# Generated by pormake.
# Topology sxc, (6)-cn, num edge types: 1
# Building blocks:
#     Node 0, Type 0, BuildingBlock: PAMTUU_clean_sbu_0, # of connection points: 6
#     Node 1, Type 0, BuildingBlock: PAMTUU_clean_sbu_0, # of connection points: 6
#     Node 2, Type 0, BuildingBlock: PAMTUU_clean_sbu_0, # of connection points: 6
#     Edge 3, Type (0, 0), BuildingBlock: TEMPAE_clean_linker_10, # of connection points: 2
#     Edge 4, Type (0, 0), BuildingBlock: TEMPAE_clean_linker_10, # of connection points: 2
#     Edge 5, Type (0, 0), BuildingBlock: TEMPAE_clean_linker_10, # of connection points: 2
#     Edge 6, Type (0, 0), BuildingBlock: TEMPAE_clean_linker_10, # of connection points: 2
#     Edge 7, Type (0, 0), BuildingBlock: TEMPAE_clean_linker_10, # of connection points: 2
#     Edge 8, Type (0, 0), BuildingBlock: TEMPAE_clean_linker_10, # of connection points: 2
#     Edge 9, Type (0, 0), BuildingBlock: TEMPAE_clean_linker_10, # of connection points: 2
#     Edge 10, Type (0, 0), BuildingBlock: TEMPAE_clean_linker_10, # of connection points: 2
#     Edge 11, Type (0, 0), BuildingBlock: TEMPAE_clean_linker_10, # of connection points: 2
# Relax obj value: 0.337
# Max RMSD: 0.127
# Mean RMSD: 0.098
data_MOF--net-sxc--node1-PAMTUU_clean_sbu_0--edge1-TEMPAE_clean_linker_10
_symmetry_space_group_name_H-M    P1
_symmetry_Int_Tables_number       1
_symmetry_cell_setting            triclinic
loop_
_symmetry_equiv_pos_as_xyz
'x, y, z'
_cell_length_a     23.048922
_cell_length_b     16.256301
_cell_length_c     46.697409
_cell_angle_alpha  87.531103
_cell_angle_beta   97.936706
_cell_angle_gamma 127.83955
loop_
_atom_site_label
_atom_site_type_symbol
_atom_site_fract_x
_atom_site_fract_y
_atom_site_fract_z
_atom_type_partial_charge
Tb0 Tb 1.00198 1.09089 0.9715 0.0
Tb1 Tb 0.17428 0.23467 -0.00763 0.0
C2 C 0.11388 0.17805 0.92649 0.0
C3 C 0.83332 0.88413 0.92717 0.0
C4 C 0.7648 0.69852 0.89345 0.0
C5 C 0.72221 0.72343 0.90399 0.0
C6 C 0.75625 0.81518 0.92071 0.0
C7 C 0.87634 0.86459 0.91484 0.0
C8 C 0.84247 0.77327 0.89786 0.0
C9 C 0.86885 0.97213 0.94829 0.0
O10 O 1.02542 0.97775 -0.01618 0.0
O11 O 0.14763 1.08367 0.97846 0.0
O12 O 0.12128 0.16585 0.03096 0.0
O13 O 1.00849 0.12844 0.01682 0.0
O14 O 0.2576 0.25579 0.02369 0.0
O15 O 0.28525 0.36188 -0.01056 0.0
O16 O 0.14798 0.34487 -0.00245 0.0
O17 O 1.035 0.25212 0.96884 0.0
O18 O 1.05265 0.09674 0.93474 0.0
O19 O 0.16646 0.25203 0.94558 0.0
C20 C 0.08643 0.98865 -0.01873 0.0
O21 O 0.89205 0.95947 0.97398 0.0
O22 O 0.91861 1.06314 0.93896 0.0
C23 C 1.05966 0.14366 0.03737 0.0
C24 C 0.35752 0.30485 0.00116 0.0
C25 C 0.45011 0.26384 -0.016 0.0
C26 C 0.46338 0.30496 0.01218 0.0
C27 C 0.41757 0.32588 0.02063 0.0
C28 C 0.34023 0.25522 0.97402 0.0
C29 C 0.38623 0.23521 0.96546 0.0
C30 C 0.30997 0.32828 0.00962 0.0
C31 C 0.09186 0.34033 -0.01672 0.0
H32 H 0.6623 0.66841 0.90167 0.0
H33 H 0.72224 0.82929 0.92992 0.0
H34 H 0.93615 0.91719 0.91949 0.0
H35 H 0.87731 0.75856 0.88978 0.0
H36 H 0.51169 0.32662 0.02707 0.0
H37 H 0.43012 0.36089 0.04204 0.0
H38 H 0.29252 0.23521 0.959 0.0
H39 H 0.37465 0.20454 0.94353 0.0
Tb40 Tb 0.14958 0.21342 0.31524 0.0
Tb41 Tb 0.97135 1.05507 0.31133 0.0
C42 C 1.0741 0.13937 0.37152 0.0
C43 C 0.34505 0.32585 0.33458 0.0
C44 C 0.44584 0.28751 0.35579 0.0
C45 C 0.46671 0.36953 0.33737 0.0
C46 C 0.41647 0.38849 0.32679 0.0
C47 C 0.32531 0.24757 0.35419 0.0
C48 C 0.37554 0.22878 0.36484 0.0
C49 C 0.289 0.33484 0.32004 0.0
O50 O 0.12637 1.05837 0.31287 0.0
O51 O 1.00001 0.94653 0.3128 0.0
O52 O 0.99121 1.05452 0.26697 0.0
O53 O 0.10784 0.21013 0.27006 0.0
O54 O 0.8803 0.92336 0.32794 0.0
O55 O 0.86461 1.00236 0.29295 0.0
O56 O 0.99417 0.21022 0.30984 0.0
O57 O 0.12187 0.32237 0.31677 0.0
O58 O 0.12805 0.15838 0.35876 0.0
O59 O 1.01393 0.1179 0.35611 0.0
C60 C 1.06357 0.96214 0.31279 0.0
O61 O 0.2462 0.26831 0.29808 0.0
O62 O 0.25131 0.3413 0.33699 0.0
C63 C 1.0467 0.13206 0.25458 0.0
C64 C 0.7876 0.94216 0.32891 0.0
C65 C 0.70823 0.98663 0.35654 0.0
C66 C 0.67683 0.92724 0.33006 0.0
C67 C 0.71636 0.90523 0.31635 0.0
C68 C 0.81738 0.99649 0.35608 0.0
C69 C 0.77788 1.0181 0.36986 0.0
C70 C 0.83365 0.93365 0.31249 0.0
C71 C 1.05763 0.3066 0.31328 0.0
H72 H 0.52082 0.41615 0.33024 0.0
H73 H 0.43226 0.44901 0.31162 0.0
H74 H 0.26996 0.19796 0.36021 0.0
H75 H 0.35778 0.16429 0.3787 0.0
H76 H 0.6237 0.90321 0.31905 0.0
H77 H 0.69279 0.8637 0.29533 0.0
H78 H 0.87243 1.02591 0.36613 0.0
H79 H 0.80313 1.06314 0.39034 0.0
Tb80 Tb 0.12923 0.27442 0.64889 0.0
Tb81 Tb 0.1429 0.10374 0.65233 0.0
C82 C 0.12277 0.17622 0.59204 0.0
C83 C 1.04714 0.40377 0.65715 0.0
C84 C 0.92346 0.37067 0.67536 0.0
C85 C 0.94999 0.42291 0.64994 0.0
C86 C 1.01148 0.43932 0.64091 0.0
C87 C 1.02347 0.35694 0.68338 0.0
C88 C 0.96244 0.34124 0.69252 0.0
C89 C 0.10193 0.40293 0.64488 0.0
O90 O 1.00139 0.12151 0.65077 0.0
O91 O 1.01158 0.99203 0.65074 0.0
O92 O 0.1271 0.11426 0.69665 0.0
O93 O 0.15161 0.2722 0.69556 0.0
O94 O 0.14866 0.99858 0.63082 0.0
O95 O 0.16609 1.01394 0.6773 0.0
O96 O 0.2717 0.25633 0.65298 0.0
O97 O 0.2601 0.38431 0.64858 0.0
O98 O 0.15186 0.26426 0.6059 0.0
O99 O 0.09988 1.09413 0.60694 0.0
C100 C 0.96381 1.01507 0.65077 0.0
O101 O 0.15458 0.41482 0.66343 0.0
O102 O 1.07373 0.32685 0.62574 0.0
C103 C 0.14032 0.19426 0.71009 0.0
C104 C 0.2452 0.99954 0.6558 0.0
C105 C 0.39194 1.06808 0.6642 0.0
C106 C 0.34173 0.99641 0.68263 0.0
C107 C 0.26865 0.96201 0.67836 0.0
C108 C 0.29494 1.06879 0.63685 0.0
C109 C 0.36756 0.10232 0.64095 0.0
C110 C 0.17313 0.97834 0.65471 0.0
C111 C 0.30864 0.36194 0.65083 0.0
H112 H 0.92058 0.44526 0.63604 0.0
H113 H 1.02869 0.47469 0.6205 0.0
H114 H 1.04995 0.32812 0.69615 0.0
H115 H 0.94381 0.30196 0.71236 0.0
H116 H 0.35939 0.96853 0.70059 0.0
H117 H 0.23131 0.90944 0.69337 0.0
H118 H 0.27882 0.10052 0.61954 0.0
H119 H 0.40555 0.15853 0.62666 0.0
C120 C 0.13385 0.51774 0.00505 0.0
C121 C 0.09189 0.43638 -0.01687 0.0
C122 C 0.13224 0.6049 0.00532 0.0
C123 C 0.08967 0.61664 -0.0174 0.0
C124 C 1.04818 0.53551 0.96019 0.0
C125 C 1.04878 0.44749 0.96098 0.0
C126 C 0.17558 0.68417 0.03052 0.0
C127 C 1.00297 0.54177 0.93487 0.0
C128 C 1.03094 0.79621 -0.00779 0.0
C129 C 0.08659 0.89286 -0.01859 0.0
C130 C 1.03189 0.70842 -0.00681 0.0
C131 C 0.08859 0.71245 -0.01775 0.0
C132 C 0.14409 0.8093 0.9708 0.0
C133 C 0.14311 0.8969 0.97095 0.0
C134 C 0.97168 0.6107 0.00631 0.0
C135 C 0.2047 0.82036 0.95776 0.0
H136 H 0.1672 0.51235 0.02262 0.0
H137 H 1.01584 0.3874 0.94366 0.0
H138 H 0.21935 0.76146 0.02289 0.0
H139 H 0.13829 0.69267 0.04043 0.0
H140 H 0.20218 0.66237 0.04743 0.0
H141 H 0.95557 0.53227 0.94227 0.0
H142 H 1.03723 0.6195 0.92556 0.0
H143 H 0.98078 0.4807 0.91754 0.0
H144 H 0.98662 0.78933 0.00055 0.0
H145 H 0.18677 0.96905 0.96231 0.0
H146 H 0.99614 0.58284 0.02203 0.0
H147 H 0.93426 0.54809 -0.01092 0.0
H148 H 0.93787 0.62303 0.01751 0.0
H149 H 0.23884 0.81056 0.9745 0.0
H150 H 0.24169 0.89741 0.94836 0.0
H151 H 0.17986 0.7581 0.94051 0.0
C152 C 0.505 0.22776 0.3903 0.0
C153 C 0.49277 0.25397 0.36232 0.0
C154 C 0.54329 0.18577 0.39567 0.0
C155 C 0.56849 0.16843 0.37238 0.0
C156 C 0.55745 0.19679 0.34423 0.0
C157 C 0.51998 0.23958 0.3396 0.0
C158 C 0.55528 0.15785 0.42599 0.0
C159 C 0.58306 0.1788 0.31874 0.0
C160 C 0.7162 0.13394 0.3761 0.0
C161 C 0.6731 1.02756 0.36787 0.0
C162 C 0.68271 0.1797 0.38063 0.0
C163 C 0.60441 0.11754 0.37662 0.0
C164 C 0.56087 1.0084 0.3711 0.0
C165 C 0.59589 0.96458 0.36679 0.0
C166 C 0.73104 0.29623 0.38673 0.0
C167 C 0.47714 0.9394 0.36687 0.0
H168 H 0.48395 0.23914 0.40786 0.0
H169 H 0.50927 0.25792 0.31785 0.0
H170 H 0.52346 1.0721 0.42668 0.0
H171 H 0.61472 0.19356 0.43251 0.0
H172 H 0.53752 0.18392 0.44205 0.0
H173 H 0.57108 0.20693 0.29838 0.0
H174 H 0.64366 0.21935 0.32311 0.0
H175 H 0.55506 1.09428 0.31537 0.0
H176 H 0.77596 0.18332 0.37682 0.0
H177 H 0.56259 0.88197 0.36098 0.0
H178 H 0.70975 0.31612 0.40286 0.0
H179 H 0.73035 0.33412 0.36648 0.0
H180 H 0.78951 0.32946 0.39482 0.0
H181 H 0.45703 0.95888 0.38364 0.0
H182 H 0.45216 0.85539 0.3676 0.0
H183 H 0.45705 0.95244 0.34548 0.0
C184 C 0.82056 0.8105 0.63979 0.0
C185 C 0.86752 0.91984 0.65076 0.0
C186 C 0.73704 0.7269 0.63902 0.0
C187 C 0.68492 0.73675 0.65093 0.0
C188 C 0.73248 0.84667 0.66272 0.0
C189 C 0.81546 0.92999 0.66184 0.0
C190 C 0.70488 0.62495 0.62365 0.0
C191 C 0.69665 0.88066 0.67804 0.0
C192 C 0.44449 0.56379 0.64122 0.0
C193 C 0.405 0.45685 0.65086 0.0
C194 C 0.52746 0.64711 0.64053 0.0
C195 C 0.58777 0.63937 0.65094 0.0
C196 C 0.54831 0.53174 0.66122 0.0
C197 C 0.46465 0.44867 0.6605 0.0
C198 C 0.549 0.74624 0.62699 0.0
C199 C 0.59481 0.5002 0.67457 0.0
H200 H 0.84973 0.78801 0.63045 0.0
H201 H 0.84047 1.00669 0.6712 0.0
H202 H 0.64427 0.57855 0.61658 0.0
H203 H 0.73242 0.6385 0.60434 0.0
H204 H 0.71565 0.57902 0.63839 0.0
H205 H 0.68651 0.92749 0.6634 0.0
H206 H 0.64344 0.81373 0.68487 0.0
H207 H 0.73445 0.93167 0.69752 0.0
H208 H 0.40891 0.58449 0.63304 0.0
H209 H 0.44599 0.37379 0.66862 0.0
H210 H 0.60431 0.7912 0.6197 0.0
H211 H 0.54953 0.79533 0.64298 0.0
H212 H 0.50741 0.72886 0.60808 0.0
H213 H 0.59377 0.45086 0.65847 0.0
H214 H 0.5713 0.45226 0.69346 0.0
H215 H 0.65319 0.56844 0.68179 0.0
C216 C 0.82893 0.39941 0.67715 0.0
C217 C 0.85034 0.33515 0.68175 0.0
C218 C 0.75552 0.35989 0.6782 0.0
C219 C 0.70279 0.25391 0.68406 0.0
C220 C 0.72535 0.19095 0.69087 0.0
C221 C 0.79882 0.23215 0.68945 0.0
C222 C 0.7334 0.42954 0.67117 0.0
C223 C 0.67085 1.07772 0.69745 0.0
C224 C 0.51122 0.15307 0.69742 0.0
C225 C 0.47065 0.11138 0.66978 0.0
C226 C 0.58725 0.2005 0.70249 0.0
C227 C 0.6228 0.20534 0.67938 0.0
C228 C 0.58172 0.1621 0.65153 0.0
C229 C 0.50605 0.11588 0.64705 0.0
C230 C 0.62958 0.24581 0.73243 0.0
C231 C 0.6177 0.16481 0.62643 0.0
H232 H 0.86892 0.47951 0.67164 0.0
H233 H 0.81455 0.18142 0.69267 0.0
H234 H 0.69851 0.40438 0.64966 0.0
H235 H 0.6997 0.42295 0.68725 0.0
H236 H 0.78235 0.51269 0.67065 0.0
H237 H 0.69951 1.04736 0.70857 0.0
H238 H 0.63117 1.06633 0.71123 0.0
H239 H 0.63831 1.0306 0.67687 0.0
H240 H 0.48381 0.15067 0.71489 0.0
H241 H 0.47435 1.08299 0.62574 0.0
H242 H 0.67512 0.33043 0.73159 0.0
H243 H 0.65551 0.20853 0.7406 0.0
H244 H 0.5935 0.23502 0.74808 0.0
H245 H 0.66379 0.24669 0.62253 0.0
H246 H 0.57783 0.12812 0.60613 0.0
H247 H 0.64184 0.12336 0.63165 0.0
C248 C 0.65214 0.52103 0.87505 0.0
C249 C 0.72866 0.58782 0.88462 0.0
C250 C 0.60781 0.42164 0.88595 0.0
C251 C 0.6427 0.3882 0.90476 0.0
C252 C 0.71905 0.43974 0.90467 0.0
C253 C 0.76256 0.54208 0.89536 0.0
C254 C 0.52483 0.36255 0.88173 0.0
C255 C 0.75643 0.39546 0.91901 0.0
C256 C 0.58086 0.37154 0.97587 0.0
C257 C 0.51021 0.27533 0.97141 0.0
C258 C 0.63068 0.40493 0.95616 0.0
C259 C 0.60964 0.33851 0.93157 0.0
C260 C 0.54485 0.23349 0.93046 0.0
C261 C 0.49471 0.20346 0.95011 0.0
C262 C 0.7004 0.51694 0.95993 0.0
C263 C 0.52482 0.15461 0.90741 0.0
H264 H 0.62597 0.55257 0.86369 0.0
H265 H 0.82228 0.58902 0.90066 0.0
H266 H 0.49634 0.28046 0.87458 0.0
H267 H 0.50653 0.36291 0.90248 0.0
H268 H 0.50683 0.39698 0.86528 0.0
H269 H 0.79282 0.40085 0.90448 0.0
H270 H 0.79276 0.44216 0.93922 0.0
H271 H 0.71554 0.31269 0.92411 0.0
H272 H 0.59393 0.42682 -0.00736 0.0
H273 H 0.44123 0.12671 0.94737 0.0
H274 H 0.69668 0.56275 0.94259 0.0
H275 H 0.74998 0.52164 0.95886 0.0
H276 H 0.70912 0.55483 -0.01899 0.0
H277 H 0.47096 0.12514 0.89427 0.0
H278 H 0.51689 1.08643 0.91794 0.0
H279 H 0.56789 0.18631 0.89299 0.0
C280 C 1.00533 0.40188 0.32581 0.0
C281 C 1.05751 0.40186 0.31309 0.0
C282 C 1.00706 0.49155 0.3268 0.0
C283 C 1.05985 0.58542 0.31327 0.0
C284 C 0.11121 0.58402 0.29959 0.0
C285 C 0.11071 0.49528 0.30045 0.0
C286 C 0.95167 0.48375 0.34296 0.0
C287 C 0.16751 0.67586 0.28349 0.0
C288 C 1.00465 0.77165 0.29742 0.0
C289 C 1.06364 0.86685 0.31268 0.0
C290 C 1.00371 0.68269 0.29675 0.0
C291 C 1.06116 0.68308 0.3132 0.0
C292 C 0.12008 0.77881 0.32932 0.0
C293 C 0.12151 0.86846 0.32819 0.0
C294 C 0.94018 0.5886 0.27785 0.0
C295 C 0.1826 0.78866 0.34845 0.0
H296 H 0.96384 0.33205 0.33597 0.0
H297 H 0.15159 0.4985 0.29031 0.0
H298 H 0.96862 0.56112 0.34968 0.0
H299 H 0.89716 0.44046 0.32893 0.0
H300 H 0.94356 0.43858 0.36258 0.0
H301 H 0.17761 0.64931 0.26457 0.0
H302 H 0.15008 0.7241 0.27571 0.0
H303 H 0.22105 0.72541 0.29806 0.0
H304 H 0.95919 0.76707 0.28512 0.0
H305 H 0.16762 0.93967 0.34042 0.0
H306 H 0.89225 0.54055 0.29003 0.0
H307 H 0.9547 0.53961 0.2709 0.0
H308 H 0.92192 0.6126 0.25822 0.0
H309 H 0.1681 0.71206 0.35461 0.0
H310 H 0.19898 0.83656 0.36856 0.0
H311 H 0.23183 0.82999 0.33693 0.0
C312 C 0.98859 1.0389 0.20506 0.0
C313 C 1.041 0.13156 0.22224 0.0
C314 C 0.98568 1.03682 0.17467 0.0
C315 C 1.03547 0.12993 0.16085 0.0
C316 C 0.08682 0.22425 0.17802 0.0
C317 C 0.08941 0.22374 0.20837 0.0
C318 C 0.93087 0.93415 0.15743 0.0
C319 C 0.14026 0.32575 0.16436 0.0
C320 C 0.09218 0.1187 0.08887 0.0
C321 C 1.04905 0.13425 0.06859 0.0
C322 C 0.08674 0.1145 0.11863 0.0
C323 C 1.03774 0.12785 0.12882 0.0
C324 C 0.99326 0.14237 0.10847 0.0
C325 C 0.99895 0.14449 0.07862 0.0
C326 C 0.13442 0.09706 0.13925 0.0
C327 C 0.94102 0.15832 0.11832 0.0
H328 H 0.95104 0.96709 0.21545 0.0
H329 H 0.12971 0.29605 0.22128 0.0
H330 H 0.89667 0.94082 0.13979 0.0
H331 H 0.96122 0.91336 0.14714 0.0
H332 H 0.89339 0.86972 0.17109 0.0
H333 H 0.17263 0.39353 0.18031 0.0
H334 H 0.17964 0.32185 0.15446 0.0
H335 H 0.1097 0.33916 0.14677 0.0
H336 H 0.13068 0.10975 0.08148 0.0
H337 H 0.96564 0.15706 0.06324 0.0
H338 H 0.09927 1.02948 0.15246 0.0
H339 H 0.17378 0.16636 0.15441 0.0
H340 H 0.16676 1.08255 0.1278 0.0
H341 H 0.90186 1.09227 0.13114 0.0
H342 H 0.90858 0.16544 0.09988 0.0
H343 H 0.97305 0.23014 0.13269 0.0
C344 C 1.02497 0.12589 0.41801 0.0
C345 C 1.08148 0.14336 0.40392 0.0
C346 C 1.03113 0.12987 0.44847 0.0
C347 C 0.09557 0.1523 0.46559 0.0
C348 C 0.15282 0.16991 0.45155 0.0
C349 C 0.14512 0.16519 0.42102 0.0
C350 C 0.96857 0.11042 0.46234 0.0
C351 C 0.22255 0.19426 0.4688 0.0
C352 C 0.1416 0.25889 0.54377 0.0
C353 C 0.11615 0.16994 0.55971 0.0
C354 C 0.13564 0.25435 0.51332 0.0
C355 C 0.10331 0.15848 0.49813 0.0
C356 C 1.0777 1.06846 0.51408 0.0
C357 C 0.08444 1.07524 0.54455 0.0
C358 C 0.16385 0.35239 0.49735 0.0
C359 C 1.04282 0.96461 0.49892 0.0
H360 H 0.97567 0.10939 0.40524 0.0
H361 H 0.18929 0.17893 0.41054 0.0
H362 H 0.94743 1.04431 0.47675 0.0
H363 H 0.98923 0.18003 0.47599 0.0
H364 H 0.92169 1.09244 0.44608 0.0
H365 H 0.26171 0.20522 0.45473 0.0
H366 H 0.2512 0.26629 0.48277 0.0
H367 H 0.20823 0.13017 0.48328 0.0
H368 H 0.1663 0.33259 0.55511 0.0
H369 H 1.06461 1.00593 0.55651 0.0
H370 H 0.11778 0.34094 0.48207 0.0
H371 H 0.2066 0.36967 0.48433 0.0
H372 H 0.1883 0.42104 0.51225 0.0
H373 H 0.99298 0.94101 0.48367 0.0
H374 H 1.02624 0.90209 0.51434 0.0
H375 H 1.0823 0.97133 0.48596 0.0
C376 C 0.13697 0.26683 0.75597 0.0
C377 C 0.14148 0.1961 0.74219 0.0
C378 C 0.13578 0.26753 0.78607 0.0
C379 C 0.1404 0.19694 0.80316 0.0
C380 C 0.14657 0.12688 0.78947 0.0
C381 C 0.1464 0.12669 0.75924 0.0
C382 C 0.12786 0.34241 0.79951 0.0
C383 C 0.15255 1.05113 0.80675 0.0
C384 C 0.19178 0.2525 0.88557 0.0
C385 C 0.12225 0.18399 0.89511 0.0
C386 C 0.19881 0.25683 0.85583 0.0
C387 C 0.13471 0.19257 0.83499 0.0
C388 C 1.06446 0.12391 0.84458 0.0
C389 C 1.05922 0.11994 0.87436 0.0
C390 C 0.27493 0.32985 0.84671 0.0
C391 C 0.9944 1.05494 0.82333 0.0
H392 H 0.13284 0.3206 0.74311 0.0
H393 H 0.15041 1.07214 0.74896 0.0
H394 H 1.07591 0.29812 0.80939 0.0
H395 H 0.17456 0.39184 0.8171 0.0
H396 H 0.12656 0.39391 0.78346 0.0
H397 H 0.16148 1.00612 0.79327 0.0
H398 H 0.19914 1.09359 0.8248 0.0
H399 H 0.10107 0.99542 0.81649 0.0
H400 H 0.24087 0.3019 0.90136 0.0
H401 H 1.00506 1.06721 0.88134 0.0
H402 H 0.27745 0.38739 0.83214 0.0
H403 H 0.28612 0.28531 0.83433 0.0
H404 H 0.31944 0.3727 0.86549 0.0
H405 H 0.98813 0.10352 0.80782 0.0
H406 H 0.94398 1.00646 0.83421 0.0
H407 H 0.99782 1.0024 0.81057 0.0
loop_
_geom_bond_atom_site_label_1
_geom_bond_atom_site_label_2
_geom_bond_distance
_geom_bond_site_symmetry_2
_ccdc_geom_bond_type
Tb0 C9 2.764 . S
Tb0 O10 2.325 . S
Tb0 O13 2.303 1_666 S
Tb0 O17 2.322 1_565 S
Tb0 O18 2.349 1_565 S
Tb0 O21 2.415 1_556 S
Tb0 O22 2.399 . S
Tb1 O11 2.322 1_545 S
Tb1 O12 2.349 . S
Tb1 O14 2.415 1_554 S
Tb1 O15 2.399 . S
Tb1 O16 2.325 . S
Tb1 O19 2.303 1_554 S
Tb1 C30 2.764 . S
C2 O18 1.261 1_455 S
C2 O19 1.257 . S
C3 C6 1.384 . S
C3 C7 1.301 1_556 S
C3 C9 1.511 . S
C4 C5 1.373 1_554 S
C4 C8 1.308 . S
C5 C4 1.373 1_556 S
C5 C6 1.429 . S
C5 H32 0.932 . S
C6 C3 1.384 . S
C6 C5 1.429 . S
C6 H33 0.930 . S
C7 C3 1.301 1_554 S
C7 C8 1.394 . S
C7 H34 0.932 . S
C8 C4 1.308 . S
C8 C7 1.394 . S
C8 H35 0.929 . S
C9 Tb0 2.764 . S
C9 C3 1.511 . S
C9 O21 1.239 1_556 S
C9 O22 1.263 . S
O10 Tb0 2.325 . S
O10 C20 1.236 1_656 S
O11 Tb1 2.322 1_565 S
O11 C20 1.257 . S
O12 Tb1 2.349 . S
O12 C23 1.261 . S
O13 Tb0 2.303 1_444 S
O13 C23 1.257 . S
O14 Tb1 2.415 1_556 S
O14 C30 1.239 1_556 S
O15 Tb1 2.399 . S
O15 C30 1.263 . S
O16 Tb1 2.325 . S
O16 C31 1.236 . S
O17 Tb0 2.322 1_545 S
O17 C31 1.257 1_656 S
O18 Tb0 2.349 1_545 S
O18 C2 1.261 1_655 S
O19 Tb1 2.303 1_556 S
O19 C2 1.257 . S
C20 O10 1.236 1_454 S
C20 O11 1.257 . S
O21 Tb0 2.415 1_554 S
O21 C9 1.239 1_554 S
O22 Tb0 2.399 . S
O22 C9 1.263 . S
C23 O12 1.261 . S
C23 O13 1.257 . S
C24 C27 1.358 . S
C24 C28 1.332 1_554 S
C24 C30 1.504 . S
C25 C26 1.373 . S
C25 C29 1.308 1_554 S
C26 C25 1.373 . S
C26 C27 1.429 . S
C26 H36 0.932 . S
C27 C24 1.358 . S
C27 C26 1.429 . S
C27 H37 0.930 . S
C28 C24 1.332 1_556 S
C28 C29 1.394 . S
C28 H38 0.932 . S
C29 C25 1.308 1_556 S
C29 C28 1.394 . S
C29 H39 0.929 . S
C30 Tb1 2.764 . S
C30 O14 1.239 1_554 S
C30 O15 1.263 . S
C30 C24 1.504 . S
C31 O16 1.236 . S
C31 O17 1.257 1_454 S
H32 C5 0.932 . S
H33 C6 0.930 . S
H34 C7 0.932 . S
H35 C8 0.929 . S
H36 C26 0.932 . S
H37 C27 0.930 . S
H38 C28 0.932 . S
H39 C29 0.929 . S
Tb40 C49 2.764 . S
Tb40 O50 2.325 1_545 S
Tb40 O53 2.303 . S
Tb40 O57 2.322 . S
Tb40 O58 2.349 . S
Tb40 O61 2.415 . S
Tb40 O62 2.399 . S
Tb41 O51 2.322 . S
Tb41 O52 2.349 . S
Tb41 O54 2.415 . S
Tb41 O55 2.399 . S
Tb41 O56 2.325 1_565 S
Tb41 O59 2.303 . S
Tb41 C70 2.764 . S
C42 O58 1.261 . S
C42 O59 1.257 1_445 S
C43 C46 1.358 . S
C43 C47 1.332 1_545 S
C43 C49 1.504 . S
C44 C45 1.373 . S
C44 C48 1.308 1_545 S
C45 C44 1.373 . S
C45 C46 1.429 . S
C45 H72 0.932 . S
C46 C43 1.358 . S
C46 C45 1.429 . S
C46 H73 0.930 . S
C47 C43 1.332 1_565 S
C47 C48 1.394 . S
C47 H74 0.932 . S
C48 C44 1.308 1_565 S
C48 C47 1.394 . S
C48 H75 0.929 . S
C49 Tb40 2.764 . S
C49 C43 1.504 . S
C49 O61 1.239 . S
C49 O62 1.263 . S
O50 Tb40 2.325 1_565 S
O50 C60 1.236 1_455 S
O51 Tb41 2.322 . S
O51 C60 1.257 . S
O52 Tb41 2.349 . S
O52 C63 1.261 . S
O53 Tb40 2.303 . S
O53 C63 1.257 1_445 S
O54 Tb41 2.415 . S
O54 C70 1.239 . S
O55 Tb41 2.399 . S
O55 C70 1.263 . S
O56 Tb41 2.325 1_545 S
O56 C71 1.236 1_655 S
O57 Tb40 2.322 . S
O57 C71 1.257 . S
O58 Tb40 2.349 . S
O58 C42 1.261 . S
O59 Tb41 2.303 . S
O59 C42 1.257 1_665 S
C60 O50 1.236 1_655 S
C60 O51 1.257 . S
O61 Tb40 2.415 . S
O61 C49 1.239 . S
O62 Tb40 2.399 . S
O62 C49 1.263 . S
C63 O52 1.261 . S
C63 O53 1.257 1_665 S
C64 C67 1.358 . S
C64 C68 1.332 1_565 S
C64 C70 1.504 . S
C65 C66 1.373 . S
C65 C69 1.308 1_565 S
C66 C65 1.373 . S
C66 C67 1.429 . S
C66 H76 0.932 . S
C67 C64 1.358 . S
C67 C66 1.429 . S
C67 H77 0.930 . S
C68 C64 1.332 1_545 S
C68 C69 1.394 . S
C68 H78 0.932 . S
C69 C65 1.308 1_545 S
C69 C68 1.394 . S
C69 H79 0.929 . S
C70 Tb41 2.764 . S
C70 O54 1.239 . S
C70 O55 1.263 . S
C70 C64 1.504 . S
C71 O56 1.236 1_455 S
C71 O57 1.257 . S
H72 C45 0.932 . S
H73 C46 0.930 . S
H74 C47 0.932 . S
H75 C48 0.929 . S
H76 C66 0.932 . S
H77 C67 0.930 . S
H78 C68 0.932 . S
H79 C69 0.929 . S
Tb80 C89 2.764 . S
Tb80 O90 2.325 . S
Tb80 O93 2.303 1_655 S
Tb80 O97 2.322 1_655 S
Tb80 O98 2.349 . S
Tb80 O101 2.415 . S
Tb80 O102 2.399 . S
Tb81 O91 2.322 1_445 S
Tb81 O92 2.349 . S
Tb81 O94 2.415 . S
Tb81 O95 2.399 . S
Tb81 O96 2.325 . S
Tb81 O99 2.303 . S
Tb81 C110 2.764 . S
C82 O98 1.261 1_455 S
C82 O99 1.257 . S
C83 C86 1.358 . S
C83 C87 1.332 . S
C83 C89 1.504 . S
C84 C85 1.373 . S
C84 C88 1.308 . S
C85 C84 1.373 . S
C85 C86 1.429 . S
C85 H112 0.932 . S
C86 C83 1.358 . S
C86 C85 1.429 . S
C86 H113 0.930 . S
C87 C83 1.332 . S
C87 C88 1.394 . S
C87 H114 0.932 . S
C88 C84 1.308 . S
C88 C87 1.394 . S
C88 H115 0.929 . S
C89 Tb80 2.764 . S
C89 C83 1.504 . S
C89 O101 1.239 . S
C89 O102 1.263 . S
O90 Tb80 2.325 . S
O90 C100 1.236 1_545 S
O91 Tb81 2.322 1_665 S
O91 C100 1.257 . S
O92 Tb81 2.349 . S
O92 C103 1.261 . S
O93 Tb80 2.303 1_455 S
O93 C103 1.257 . S
O94 Tb81 2.415 . S
O94 C110 1.239 . S
O95 Tb81 2.399 . S
O95 C110 1.263 . S
O96 Tb81 2.325 . S
O96 C111 1.236 . S
O97 Tb80 2.322 1_455 S
O97 C111 1.257 . S
O98 Tb80 2.349 . S
O98 C82 1.261 1_655 S
O99 Tb81 2.303 . S
O99 C82 1.257 . S
C100 O90 1.236 1_565 S
C100 O91 1.257 . S
O101 Tb80 2.415 . S
O101 C89 1.239 . S
O102 Tb80 2.399 . S
O102 C89 1.263 . S
C103 O92 1.261 . S
C103 O93 1.257 . S
C104 C107 1.358 . S
C104 C108 1.332 . S
C104 C110 1.504 . S
C105 C106 1.373 1_545 S
C105 C109 1.308 . S
C106 C105 1.373 1_565 S
C106 C107 1.429 1_565 S
C106 H116 0.932 . S
C107 C104 1.358 . S
C107 C106 1.429 1_545 S
C107 H117 0.930 1_545 S
C108 C104 1.332 . S
C108 C109 1.394 . S
C108 H118 0.932 . S
C109 C105 1.308 . S
C109 C108 1.394 . S
C109 H119 0.929 . S
C110 Tb81 2.764 . S
C110 O94 1.239 . S
C110 O95 1.263 . S
C110 C104 1.504 . S
C111 O96 1.236 . S
C111 O97 1.257 . S
H112 C85 0.932 . S
H113 C86 0.930 . S
H114 C87 0.932 . S
H115 C88 0.929 . S
H116 C106 0.932 . S
H117 C107 0.930 1_565 S
H118 C108 0.932 . S
H119 C109 0.929 . S
C120 C121 1.391 . S
C120 C122 1.394 . S
C120 H136 0.931 . S
C121 C120 1.391 . S
C121 C125 1.376 1_454 S
C122 C120 1.394 . S
C122 C123 1.362 1_554 S
C122 C126 1.531 . S
C123 C122 1.362 1_556 S
C123 C124 1.417 1_455 S
C123 C131 1.502 1_556 S
C124 C123 1.417 1_655 S
C124 C125 1.392 . S
C124 C127 1.511 . S
C125 C121 1.376 1_656 S
C125 C124 1.392 . S
C125 H137 0.929 . S
C126 C122 1.531 . S
C126 H138 0.960 . S
C126 H139 0.962 . S
C126 H140 0.960 . S
C127 C124 1.511 . S
C127 H141 0.961 . S
C127 H142 0.961 . S
C127 H143 0.961 . S
C128 C129 1.370 1_655 S
C128 C130 1.363 1_655 S
C128 H144 0.931 . S
C129 C128 1.370 1_455 S
C129 C133 1.408 1_554 S
C130 C128 1.363 1_455 S
C130 C131 1.370 . S
C130 C134 1.524 1_455 S
C131 C123 1.502 1_554 S
C131 C130 1.370 . S
C131 C132 1.403 1_554 S
C132 C131 1.403 1_556 S
C132 C133 1.404 . S
C132 C135 1.539 . S
C133 C129 1.408 1_556 S
C133 C132 1.404 . S
C133 H145 0.930 . S
C134 C130 1.524 1_655 S
C134 H146 0.956 1_655 S
C134 H147 0.961 . S
C134 H148 0.961 . S
C135 C132 1.539 . S
C135 H149 0.958 . S
C135 H150 0.961 . S
C135 H151 0.960 . S
H136 C120 0.931 . S
H137 C125 0.929 . S
H138 C126 0.960 . S
H139 C126 0.962 . S
H140 C126 0.960 . S
H141 C127 0.961 . S
H142 C127 0.961 . S
H143 C127 0.961 . S
H144 C128 0.931 . S
H145 C133 0.930 . S
H146 C134 0.956 1_455 S
H147 C134 0.961 . S
H148 C134 0.961 . S
H149 C135 0.958 . S
H150 C135 0.961 . S
H151 C135 0.960 . S
C152 C153 1.391 1_565 S
C152 C154 1.394 . S
C152 H168 0.931 . S
C153 C152 1.391 1_545 S
C153 C157 1.376 . S
C154 C152 1.394 . S
C154 C155 1.369 . S
C154 C158 1.531 . S
C155 C154 1.369 . S
C155 C156 1.410 1_565 S
C155 C163 1.503 . S
C156 C155 1.410 1_545 S
C156 C157 1.392 . S
C156 C159 1.511 . S
C157 C153 1.376 . S
C157 C156 1.392 . S
C157 H169 0.929 . S
C158 C154 1.531 . S
C158 H170 0.960 . S
C158 H171 0.962 1_565 S
C158 H172 0.960 . S
C159 C156 1.511 . S
C159 H173 0.961 . S
C159 H174 0.961 . S
C159 H175 0.961 1_545 S
C160 C161 1.370 1_545 S
C160 C162 1.363 . S
C160 H176 0.931 . S
C161 C160 1.370 1_565 S
C161 C165 1.408 . S
C162 C160 1.363 . S
C162 C163 1.370 1_545 S
C162 C166 1.524 . S
C163 C155 1.503 . S
C163 C162 1.370 1_565 S
C163 C164 1.403 . S
C164 C163 1.403 . S
C164 C165 1.404 . S
C164 C167 1.539 . S
C165 C161 1.408 . S
C165 C164 1.404 . S
C165 H177 0.930 . S
C166 C162 1.524 . S
C166 H178 0.956 . S
C166 H179 0.961 . S
C166 H180 0.961 . S
C167 C164 1.539 . S
C167 H181 0.958 . S
C167 H182 0.961 . S
C167 H183 0.960 . S
H168 C152 0.931 . S
H169 C157 0.929 . S
H170 C158 0.960 . S
H171 C158 0.962 1_545 S
H172 C158 0.960 . S
H173 C159 0.961 . S
H174 C159 0.961 . S
H175 C159 0.961 1_565 S
H176 C160 0.931 . S
H177 C165 0.930 . S
H178 C166 0.956 . S
H179 C166 0.961 . S
H180 C166 0.961 . S
H181 C167 0.958 . S
H182 C167 0.961 . S
H183 C167 0.960 . S
C184 C185 1.391 . S
C184 C186 1.394 . S
C184 H200 0.931 . S
C185 C184 1.391 . S
C185 C189 1.376 . S
C186 C184 1.394 . S
C186 C187 1.369 . S
C186 C190 1.531 . S
C187 C186 1.369 . S
C187 C188 1.410 . S
C187 C195 1.503 . S
C188 C187 1.410 . S
C188 C189 1.392 . S
C188 C191 1.511 . S
C189 C185 1.376 . S
C189 C188 1.392 . S
C189 H201 0.929 . S
C190 C186 1.531 . S
C190 H202 0.960 . S
C190 H203 0.962 . S
C190 H204 0.960 . S
C191 C188 1.511 . S
C191 H205 0.961 . S
C191 H206 0.961 . S
C191 H207 0.961 . S
C192 C193 1.370 . S
C192 C194 1.363 . S
C192 H208 0.931 . S
C193 C192 1.370 . S
C193 C197 1.408 . S
C194 C192 1.363 . S
C194 C195 1.370 . S
C194 C198 1.524 . S
C195 C187 1.503 . S
C195 C194 1.370 . S
C195 C196 1.403 . S
C196 C195 1.403 . S
C196 C197 1.404 . S
C196 C199 1.539 . S
C197 C193 1.408 . S
C197 C196 1.404 . S
C197 H209 0.930 . S
C198 C194 1.524 . S
C198 H210 0.956 . S
C198 H211 0.961 . S
C198 H212 0.961 . S
C199 C196 1.539 . S
C199 H213 0.958 . S
C199 H214 0.961 . S
C199 H215 0.960 . S
H200 C184 0.931 . S
H201 C189 0.929 . S
H202 C190 0.960 . S
H203 C190 0.962 . S
H204 C190 0.960 . S
H205 C191 0.961 . S
H206 C191 0.961 . S
H207 C191 0.961 . S
H208 C192 0.931 . S
H209 C197 0.930 . S
H210 C198 0.956 . S
H211 C198 0.961 . S
H212 C198 0.961 . S
H213 C199 0.958 . S
H214 C199 0.961 . S
H215 C199 0.960 . S
C216 C217 1.391 . S
C216 C218 1.394 . S
C216 H232 0.931 . S
C217 C216 1.391 . S
C217 C221 1.376 . S
C218 C216 1.394 . S
C218 C219 1.369 . S
C218 C222 1.531 . S
C219 C218 1.369 . S
C219 C220 1.410 . S
C219 C227 1.503 . S
C220 C219 1.410 . S
C220 C221 1.392 . S
C220 C223 1.511 1_545 S
C221 C217 1.376 . S
C221 C220 1.392 . S
C221 H233 0.929 . S
C222 C218 1.531 . S
C222 H234 0.960 . S
C222 H235 0.962 . S
C222 H236 0.960 . S
C223 C220 1.511 1_565 S
C223 H237 0.961 . S
C223 H238 0.961 . S
C223 H239 0.961 . S
C224 C225 1.370 . S
C224 C226 1.363 . S
C224 H240 0.931 . S
C225 C224 1.370 . S
C225 C229 1.408 . S
C226 C224 1.363 . S
C226 C227 1.370 . S
C226 C230 1.524 . S
C227 C219 1.503 . S
C227 C226 1.370 . S
C227 C228 1.403 . S
C228 C227 1.403 . S
C228 C229 1.404 . S
C228 C231 1.539 . S
C229 C225 1.408 . S
C229 C228 1.404 . S
C229 H241 0.930 1_545 S
C230 C226 1.524 . S
C230 H242 0.956 . S
C230 H243 0.961 . S
C230 H244 0.961 . S
C231 C228 1.539 . S
C231 H245 0.958 . S
C231 H246 0.961 1_545 S
C231 H247 0.960 . S
H232 C216 0.931 . S
H233 C221 0.929 . S
H234 C222 0.960 . S
H235 C222 0.962 . S
H236 C222 0.960 . S
H237 C223 0.961 . S
H238 C223 0.961 . S
H239 C223 0.961 . S
H240 C224 0.931 . S
H241 C229 0.930 1_565 S
H242 C230 0.956 . S
H243 C230 0.961 . S
H244 C230 0.961 . S
H245 C231 0.958 . S
H246 C231 0.961 1_565 S
H247 C231 0.960 . S
C248 C249 1.420 . S
C248 C250 1.394 . S
C248 H264 0.931 . S
C249 C248 1.420 . S
C249 C253 1.337 1_556 S
C250 C248 1.394 . S
C250 C251 1.369 1_556 S
C250 C254 1.531 . S
C251 C250 1.369 1_554 S
C251 C252 1.410 . S
C251 C259 1.503 . S
C252 C251 1.410 . S
C252 C253 1.392 . S
C252 C255 1.511 . S
C253 C249 1.337 1_554 S
C253 C252 1.392 . S
C253 H265 0.929 . S
C254 C250 1.531 . S
C254 H266 0.960 . S
C254 H267 0.962 . S
C254 H268 0.960 . S
C255 C252 1.511 . S
C255 H269 0.961 . S
C255 H270 0.961 . S
C255 H271 0.961 . S
C256 C257 1.370 . S
C256 C258 1.363 . S
C256 H272 0.931 . S
C257 C256 1.370 . S
C257 C261 1.408 . S
C258 C256 1.363 . S
C258 C259 1.370 . S
C258 C262 1.524 . S
C259 C251 1.503 . S
C259 C258 1.370 . S
C259 C260 1.403 . S
C260 C259 1.403 . S
C260 C261 1.404 . S
C260 C263 1.539 . S
C261 C257 1.408 . S
C261 C260 1.404 . S
C261 H273 0.930 . S
C262 C258 1.524 . S
C262 H274 0.956 1_554 S
C262 H275 0.961 . S
C262 H276 0.961 . S
C263 C260 1.539 . S
C263 H277 0.958 1_554 S
C263 H278 0.961 . S
C263 H279 0.960 . S
H264 C248 0.931 . S
H265 C253 0.929 . S
H266 C254 0.960 . S
H267 C254 0.962 . S
H268 C254 0.960 . S
H269 C255 0.961 . S
H270 C255 0.961 . S
H271 C255 0.961 . S
H272 C256 0.931 . S
H273 C261 0.930 . S
H274 C262 0.956 1_556 S
H275 C262 0.961 . S
H276 C262 0.961 . S
H277 C263 0.958 1_556 S
H278 C263 0.961 . S
H279 C263 0.960 . S
C280 C281 1.391 . S
C280 C282 1.394 . S
C280 H296 0.931 1_455 S
C281 C280 1.391 . S
C281 C285 1.376 . S
C282 C280 1.394 . S
C282 C283 1.369 . S
C282 C286 1.531 . S
C283 C282 1.369 . S
C283 C284 1.410 . S
C283 C291 1.503 . S
C284 C283 1.410 . S
C284 C285 1.392 . S
C284 C287 1.511 . S
C285 C281 1.376 . S
C285 C284 1.392 . S
C285 H297 0.929 . S
C286 C282 1.531 . S
C286 H298 0.960 . S
C286 H299 0.962 1_455 S
C286 H300 0.960 . S
C287 C284 1.511 . S
C287 H301 0.961 . S
C287 H302 0.961 . S
C287 H303 0.961 . S
C288 C289 1.370 1_655 S
C288 C290 1.363 . S
C288 H304 0.931 . S
C289 C288 1.370 1_455 S
C289 C293 1.408 . S
C290 C288 1.363 . S
C290 C291 1.370 1_655 S
C290 C294 1.524 . S
C291 C283 1.503 . S
C291 C290 1.370 1_455 S
C291 C292 1.403 . S
C292 C291 1.403 . S
C292 C293 1.404 . S
C292 C295 1.539 . S
C293 C289 1.408 . S
C293 C292 1.404 . S
C293 H305 0.930 . S
C294 C290 1.524 . S
C294 H306 0.956 . S
C294 H307 0.961 . S
C294 H308 0.961 . S
C295 C292 1.539 . S
C295 H309 0.958 . S
C295 H310 0.961 . S
C295 H311 0.960 . S
H296 C280 0.931 1_655 S
H297 C285 0.929 . S
H298 C286 0.960 . S
H299 C286 0.962 1_655 S
H300 C286 0.960 . S
H301 C287 0.961 . S
H302 C287 0.961 . S
H303 C287 0.961 . S
H304 C288 0.931 . S
H305 C293 0.930 . S
H306 C294 0.956 . S
H307 C294 0.961 . S
H308 C294 0.961 . S
H309 C295 0.958 . S
H310 C295 0.961 . S
H311 C295 0.960 . S
C312 C313 1.391 1_455 S
C312 C314 1.394 . S
C312 H328 0.931 . S
C313 C312 1.391 1_655 S
C313 C317 1.376 1_565 S
C314 C312 1.394 . S
C314 C315 1.369 1_455 S
C314 C318 1.531 . S
C315 C314 1.369 1_655 S
C315 C316 1.410 1_565 S
C315 C323 1.503 1_665 S
C316 C315 1.410 1_545 S
C316 C317 1.392 . S
C316 C319 1.511 . S
C317 C313 1.376 1_545 S
C317 C316 1.392 . S
C317 H329 0.929 . S
C318 C314 1.531 . S
C318 H330 0.960 . S
C318 H331 0.962 . S
C318 H332 0.960 . S
C319 C316 1.511 . S
C319 H333 0.961 . S
C319 H334 0.961 . S
C319 H335 0.961 . S
C320 C321 1.370 . S
C320 C322 1.363 . S
C320 H336 0.931 . S
C321 C320 1.370 . S
C321 C325 1.408 1_445 S
C322 C320 1.363 . S
C322 C323 1.371 . S
C322 C326 1.524 . S
C323 C315 1.503 1_445 S
C323 C322 1.371 . S
C323 C324 1.402 1_445 S
C324 C323 1.402 1_665 S
C324 C325 1.404 . S
C324 C327 1.539 . S
C325 C321 1.408 1_665 S
C325 C324 1.404 . S
C325 H337 0.930 . S
C326 C322 1.524 . S
C326 H338 0.956 . S
C326 H339 0.961 . S
C326 H340 0.961 . S
C327 C324 1.539 . S
C327 H341 0.958 . S
C327 H342 0.961 . S
C327 H343 0.960 . S
H328 C312 0.931 . S
H329 C317 0.929 . S
H330 C318 0.960 . S
H331 C318 0.962 . S
H332 C318 0.960 . S
H333 C319 0.961 . S
H334 C319 0.961 . S
H335 C319 0.961 . S
H336 C320 0.931 . S
H337 C325 0.930 . S
H338 C326 0.956 . S
H339 C326 0.961 . S
H340 C326 0.961 . S
H341 C327 0.958 . S
H342 C327 0.961 . S
H343 C327 0.960 . S
C344 C345 1.391 1_665 S
C344 C346 1.394 . S
C344 H360 0.931 . S
C345 C344 1.391 1_445 S
C345 C349 1.376 . S
C346 C344 1.394 . S
C346 C347 1.369 1_665 S
C346 C350 1.531 . S
C347 C346 1.369 1_445 S
C347 C348 1.410 . S
C347 C355 1.503 . S
C348 C347 1.410 . S
C348 C349 1.392 . S
C348 C351 1.511 . S
C349 C345 1.376 . S
C349 C348 1.392 . S
C349 H361 0.929 . S
C350 C346 1.531 . S
C350 H362 0.960 . S
C350 H363 0.962 . S
C350 H364 0.960 . S
C351 C348 1.511 . S
C351 H365 0.961 . S
C351 H366 0.961 . S
C351 H367 0.961 . S
C352 C353 1.370 . S
C352 C354 1.363 . S
C352 H368 0.931 . S
C353 C352 1.370 . S
C353 C357 1.408 . S
C354 C352 1.363 . S
C354 C355 1.370 . S
C354 C358 1.524 . S
C355 C347 1.503 . S
C355 C354 1.370 . S
C355 C356 1.403 1_545 S
C356 C355 1.403 1_565 S
C356 C357 1.404 1_565 S
C356 C359 1.539 . S
C357 C353 1.408 . S
C357 C356 1.404 1_545 S
C357 H369 0.930 1_545 S
C358 C354 1.524 . S
C358 H370 0.956 1_455 S
C358 H371 0.961 . S
C358 H372 0.961 . S
C359 C356 1.539 . S
C359 H373 0.958 1_455 S
C359 H374 0.961 . S
C359 H375 0.960 . S
H360 C344 0.931 . S
H361 C349 0.929 . S
H362 C350 0.960 . S
H363 C350 0.962 . S
H364 C350 0.960 . S
H365 C351 0.961 . S
H366 C351 0.961 . S
H367 C351 0.961 . S
H368 C352 0.931 . S
H369 C357 0.930 1_565 S
H370 C358 0.956 1_655 S
H371 C358 0.961 . S
H372 C358 0.961 . S
H373 C359 0.958 1_655 S
H374 C359 0.961 . S
H375 C359 0.960 . S
C376 C377 1.391 1_655 S
C376 C378 1.394 . S
C376 H392 0.931 . S
C377 C376 1.391 1_455 S
C377 C381 1.376 . S
C378 C376 1.394 . S
C378 C379 1.369 1_655 S
C378 C382 1.531 1_545 S
C379 C378 1.369 1_455 S
C379 C380 1.410 . S
C379 C387 1.503 . S
C380 C379 1.410 . S
C380 C381 1.392 . S
C380 C383 1.511 . S
C381 C377 1.376 . S
C381 C380 1.392 . S
C381 H393 0.929 . S
C382 C378 1.531 1_565 S
C382 H394 0.962 . S
C382 H395 0.959 1_565 S
C382 H396 0.961 . S
C383 C380 1.511 . S
C383 H397 0.961 . S
C383 H398 0.961 . S
C383 H399 0.961 . S
C384 C385 1.370 . S
C384 C386 1.363 . S
C384 H400 0.931 . S
C385 C384 1.370 . S
C385 C389 1.408 1_545 S
C386 C384 1.363 . S
C386 C387 1.370 . S
C386 C390 1.524 . S
C387 C379 1.503 . S
C387 C386 1.370 . S
C387 C388 1.403 1_545 S
C388 C387 1.403 1_565 S
C388 C389 1.404 . S
C388 C391 1.539 . S
C389 C385 1.408 1_565 S
C389 C388 1.404 . S
C389 H401 0.930 . S
C390 C386 1.524 . S
C390 H402 0.956 . S
C390 H403 0.961 . S
C390 H404 0.961 . S
C391 C388 1.539 . S
C391 H405 0.958 1_455 S
C391 H406 0.961 . S
C391 H407 0.960 . S
H392 C376 0.931 . S
H393 C381 0.929 . S
H394 C382 0.962 . S
H395 C382 0.959 1_545 S
H396 C382 0.961 . S
H397 C383 0.961 . S
H398 C383 0.961 . S
H399 C383 0.961 . S
H400 C384 0.931 . S
H401 C389 0.930 . S
H402 C390 0.956 . S
H403 C390 0.961 . S
H404 C390 0.961 . S
H405 C391 0.958 1_655 S
H406 C391 0.961 . S
H407 C391 0.960 . S
C121 C31 2.913 . S
C129 C20 2.906 . S
C153 C44 0.412 . S
C161 C65 0.450 . S
C185 C100 4.836 . S
C193 C111 4.837 . S
C217 C84 0.752 . S
C225 C105 0.772 . S
C249 C4 1.084 1_556 S
C257 C25 0.997 . S
C281 C71 2.864 . S
C289 C60 2.868 1_455 S
C313 C63 1.476 . S
C321 C23 1.505 . S
C345 C42 1.475 . S
C353 C82 1.505 . S
C377 C103 1.438 . S
C385 C2 1.481 . S
