# Generated by pormake.
# Topology zfu, (5)-cn, num edge types: 1
# Building blocks:
#     Node 0, Type 0, BuildingBlock: XOMCOT_clean_sbu_0, # of connection points: 5
#     Node 1, Type 0, BuildingBlock: XOMCOT_clean_sbu_0, # of connection points: 5
#     Node 2, Type 0, BuildingBlock: XOMCOT_clean_sbu_0, # of connection points: 5
#     Node 3, Type 0, BuildingBlock: XOMCOT_clean_sbu_0, # of connection points: 5
#     Node 4, Type 0, BuildingBlock: XOMCOT_clean_sbu_0, # of connection points: 5
#     Node 5, Type 0, BuildingBlock: XOMCOT_clean_sbu_0, # of connection points: 5
#     Node 6, Type 0, BuildingBlock: XOMCOT_clean_sbu_0, # of connection points: 5
#     Node 7, Type 0, BuildingBlock: XOMCOT_clean_sbu_0, # of connection points: 5
#     Edge 8, Type (0, 0), BuildingBlock: KIFKEQ_clean_linker_1, # of connection points: 2
#     Edge 9, Type (0, 0), BuildingBlock: KIFKEQ_clean_linker_1, # of connection points: 2
#     Edge 10, Type (0, 0), BuildingBlock: KIFKEQ_clean_linker_1, # of connection points: 2
#     Edge 11, Type (0, 0), BuildingBlock: KIFKEQ_clean_linker_1, # of connection points: 2
#     Edge 12, Type (0, 0), BuildingBlock: KIFKEQ_clean_linker_1, # of connection points: 2
#     Edge 13, Type (0, 0), BuildingBlock: KIFKEQ_clean_linker_1, # of connection points: 2
#     Edge 14, Type (0, 0), BuildingBlock: KIFKEQ_clean_linker_1, # of connection points: 2
#     Edge 15, Type (0, 0), BuildingBlock: KIFKEQ_clean_linker_1, # of connection points: 2
#     Edge 16, Type (0, 0), BuildingBlock: KIFKEQ_clean_linker_1, # of connection points: 2
#     Edge 17, Type (0, 0), BuildingBlock: KIFKEQ_clean_linker_1, # of connection points: 2
#     Edge 18, Type (0, 0), BuildingBlock: KIFKEQ_clean_linker_1, # of connection points: 2
#     Edge 19, Type (0, 0), BuildingBlock: KIFKEQ_clean_linker_1, # of connection points: 2
#     Edge 20, Type (0, 0), BuildingBlock: KIFKEQ_clean_linker_1, # of connection points: 2
#     Edge 21, Type (0, 0), BuildingBlock: KIFKEQ_clean_linker_1, # of connection points: 2
#     Edge 22, Type (0, 0), BuildingBlock: KIFKEQ_clean_linker_1, # of connection points: 2
#     Edge 23, Type (0, 0), BuildingBlock: KIFKEQ_clean_linker_1, # of connection points: 2
#     Edge 24, Type (0, 0), BuildingBlock: KIFKEQ_clean_linker_1, # of connection points: 2
#     Edge 25, Type (0, 0), BuildingBlock: KIFKEQ_clean_linker_1, # of connection points: 2
#     Edge 26, Type (0, 0), BuildingBlock: KIFKEQ_clean_linker_1, # of connection points: 2
#     Edge 27, Type (0, 0), BuildingBlock: KIFKEQ_clean_linker_1, # of connection points: 2
# Relax obj value: 0.175
# Max RMSD: 0.196
# Mean RMSD: 0.196
data_MOF--net-zfu--node1-XOMCOT_clean_sbu_0--edge1-KIFKEQ_clean_linker_1
_symmetry_space_group_name_H-M    P1
_symmetry_Int_Tables_number       1
_symmetry_cell_setting            triclinic
loop_
_symmetry_equiv_pos_as_xyz
'x, y, z'
_cell_length_a     41.148954
_cell_length_b     40.928131
_cell_length_c     25.39926
_cell_angle_alpha  89.689878
_cell_angle_beta   90.047955
_cell_angle_gamma 90.190494
loop_
_atom_site_label
_atom_site_type_symbol
_atom_site_fract_x
_atom_site_fract_y
_atom_site_fract_z
_atom_type_partial_charge
Co0 Co 0.45811 0.7555 0.99646 0.0
C1 C 0.50863 0.70325 1.01261 0.0
C2 C 0.46497 0.6848 0.97808 0.0
C3 C 0.48696 0.65983 0.98093 0.0
N4 N 0.47826 0.71228 0.99788 0.0
N5 N 0.51456 0.67134 1.00255 0.0
H6 H 0.52622 0.71954 0.02972 0.0
H7 H 0.44118 0.68275 0.96103 0.0
C8 C 0.40079 0.74772 0.92381 0.0
O9 O 0.38421 0.76702 0.95488 0.0
N10 N 0.43825 0.79867 0.99212 0.0
C11 C 0.42163 0.81579 0.02854 0.0
C12 C 0.40751 0.84242 1.00449 0.0
C13 C 0.4349 0.81603 0.94689 0.0
N14 N 0.41566 0.84237 0.95316 0.0
C15 C 0.43112 0.75101 0.09956 0.0
C16 C 0.38537 0.70297 0.08184 0.0
C17 C 0.39 0.71447 0.13315 0.0
C18 C 0.41291 0.73905 0.1415 0.0
C19 C 0.40371 0.71627 0.0403 0.0
N20 N 0.42645 0.74018 0.04921 0.0
H21 H 0.4492 0.76922 0.10846 0.0
H22 H 0.39995 0.70632 1.00173 0.0
H23 H 0.41838 0.80925 0.06925 0.0
H24 H 0.44406 0.80796 0.90921 0.0
O25 O 0.48964 0.77163 0.04547 0.0
O26 O 0.49632 0.77377 0.95937 0.0
O27 O 0.43039 0.74065 0.93458 0.0
C28 C 0.50761 0.78035 1.00625 0.0
H29 H 0.48314 0.63536 0.9662 0.0
H30 H 0.39145 0.85985 0.02293 0.0
H31 H 0.36796 0.68368 0.07398 0.0
H32 H 0.41767 0.74822 0.18072 0.0
Co33 Co 0.74747 0.97457 0.22687 0.0
C34 C 0.80018 0.02393 0.25706 0.0
C35 C 0.77881 0.0312 0.18095 0.0
C36 C 0.80131 0.05539 0.18891 0.0
N37 N 0.77766 1.01144 0.2236 0.0
N38 N 0.81476 0.05089 0.23669 0.0
H39 H 0.80638 1.01381 0.29495 0.0
H40 H 0.76444 0.02793 0.1457 0.0
C41 C 0.80102 0.95225 0.15803 0.0
O42 O 0.82066 0.96548 0.19275 0.0
N43 N 0.71659 0.93899 0.22633 0.0
C44 C 0.70439 0.92244 0.26775 0.0
C45 C 0.68114 0.90096 0.24962 0.0
C46 C 0.70051 0.92768 0.18376 0.0
N47 N 0.67852 0.90437 0.19675 0.0
C48 C 0.77561 0.96228 0.32733 0.0
C49 C 0.79695 0.89951 0.3085 0.0
C50 C 0.79818 0.91173 0.35995 0.0
C51 C 0.78785 0.94371 0.3688 0.0
C52 C 0.78415 0.91896 0.26784 0.0
N53 N 0.774 0.95021 0.27735 0.0
H54 H 0.76607 0.98613 0.33624 0.0
H55 H 0.78056 0.90804 0.22967 0.0
H56 H 0.7115 0.9261 0.3083 0.0
H57 H 0.70413 0.93727 0.14441 0.0
O58 O 0.72146 0.9968 0.27769 0.0
O59 O 0.71516 1.00234 0.19155 0.0
O60 O 0.77022 0.95413 0.16455 0.0
C61 C 0.70606 1.01028 0.23901 0.0
H62 H 0.80801 0.0743 0.16094 0.0
H63 H 0.6672 0.88424 0.27386 0.0
H64 H 0.80409 0.8746 0.30035 0.0
H65 H 0.78836 0.95407 0.40796 0.0
Co66 Co 0.55907 0.26962 0.48167 0.0
C67 C 0.51279 0.32387 0.50424 0.0
C68 C 0.53735 0.33006 0.43035 0.0
C69 C 0.51567 0.35515 0.43601 0.0
N70 N 0.53587 0.31052 0.47325 0.0
N71 N 0.50011 0.35122 0.48224 0.0
H72 H 0.50499 0.31352 0.54145 0.0
H73 H 0.5522 0.32595 0.39599 0.0
C74 C 0.62109 0.28523 0.42594 0.0
O75 O 0.63633 0.27311 0.4671 0.0
N76 N 0.58158 0.22768 0.48583 0.0
C77 C 0.57792 0.20349 0.5218 0.0
C78 C 0.5905 0.17498 0.50195 0.0
C79 C 0.59503 0.2127 0.44372 0.0
N80 N 0.60118 0.18073 0.45259 0.0
C81 C 0.5874 0.27432 0.58399 0.0
C82 C 0.61611 0.33498 0.57238 0.0
C83 C 0.61845 0.31879 0.62117 0.0
C84 C 0.60364 0.28815 0.62644 0.0
C85 C 0.59962 0.32001 0.5304 0.0
N86 N 0.58622 0.28952 0.53611 0.0
H87 H 0.57441 0.252 0.59088 0.0
H88 H 0.5973 0.33312 0.49356 0.0
H89 H 0.56392 0.20495 0.5576 0.0
H90 H 0.59813 0.22443 0.40591 0.0
O91 O 0.52598 0.2539 0.52822 0.0
O92 O 0.52493 0.24701 0.44177 0.0
O93 O 0.59001 0.28416 0.42377 0.0
C94 C 0.51123 0.24207 0.48761 0.0
H95 H 0.51062 0.37398 0.40707 0.0
H96 H 0.58927 0.15128 0.52095 0.0
H97 H 0.62681 0.35895 0.56673 0.0
H98 H 0.60349 0.27534 0.66387 0.0
Co99 Co 0.27885 0.06046 0.74535 0.0
C100 C 0.23032 1.00535 0.75772 0.0
C101 C 0.20867 0.05294 0.75276 0.0
C102 C 0.18422 0.03012 0.75515 0.0
N103 N 0.23765 0.03761 0.75401 0.0
N104 N 0.19783 1.00036 0.7584 0.0
H105 H 0.24796 0.98591 0.75824 0.0
H106 H 0.20549 0.07907 0.74904 0.0
C107 C 0.26446 0.11316 0.66216 0.0
O108 O 0.29132 0.12893 0.67356 0.0
N109 N 0.31996 0.08332 0.7362 0.0
C110 C 0.33617 0.10087 0.77247 0.0
C111 C 0.36312 0.11466 0.74905 0.0
C112 C 0.33826 0.08523 0.692 0.0
N113 N 0.36419 0.1053 0.69814 0.0
C114 C 0.26077 0.07664 0.84928 0.0
C115 C 0.25143 0.14298 0.83684 0.0
C116 C 0.24766 0.12896 0.88695 0.0
C117 C 0.25233 0.09534 0.89276 0.0
C118 C 0.26049 0.12335 0.79424 0.0
N119 N 0.26528 0.09052 0.80077 0.0
H120 H 0.26342 0.05061 0.8547 0.0
H121 H 0.26387 0.13499 0.75686 0.0
H122 H 0.32845 0.10438 0.81271 0.0
H123 H 0.33134 0.07401 0.65516 0.0
O124 O 0.30115 0.03011 0.79037 0.0
O125 O 0.29622 0.02411 0.70408 0.0
O126 O 0.25665 0.087 0.68717 0.0
C127 C 0.30791 1.01339 0.74876 0.0
H128 H 0.15836 0.03487 0.75366 0.0
H129 H 0.37953 0.13186 0.7675 0.0
H130 H 0.24792 0.16895 0.83081 0.0
H131 H 0.24891 0.08342 0.93055 0.0
Co132 Co 0.95253 0.76919 0.82995 0.0
C133 C 1.00866 0.8151 0.80819 0.0
C134 C 0.96305 0.83932 0.81961 0.0
C135 C 0.98623 0.8625 0.80869 0.0
N136 N 0.9769 0.80952 0.81935 0.0
N137 N 0.0149 0.84736 0.80139 0.0
H138 H 0.02665 0.7962 0.80351 0.0
H139 H 0.93752 0.84391 0.82628 0.0
C140 C 0.90013 0.78736 0.91059 0.0
O141 O 0.88399 0.76015 0.90255 0.0
N142 N 0.92826 0.72893 0.84094 0.0
C143 C 0.91229 0.71137 0.80434 0.0
C144 C 0.90095 0.68298 0.8274 0.0
C145 C 0.9273 0.71046 0.88531 0.0
N146 N 0.9102 0.68255 0.87839 0.0
C147 C 0.93855 0.78705 0.72504 0.0
C148 C 0.87269 0.79834 0.73382 0.0
C149 C 0.88776 0.80253 0.68467 0.0
C150 C 0.92109 0.79668 0.68075 0.0
C151 C 0.89111 0.78812 0.77741 0.0
N152 N 0.92376 0.78276 0.77273 0.0
H153 H 0.96442 0.78359 0.72107 0.0
H154 H 0.87885 0.78441 0.81417 0.0
H155 H 0.90946 0.71839 0.7635 0.0
H156 H 0.93876 0.71744 0.92195 0.0
O157 O 0.98222 0.74489 0.78747 0.0
O158 O 0.98758 0.75141 0.87369 0.0
O159 O 0.92643 0.7935 0.88537 0.0
C160 C 0.99822 0.73848 0.83011 0.0
H161 H 0.98226 0.8886 0.8064 0.0
H162 H 0.88666 0.66426 0.80819 0.0
H163 H 0.84688 0.80257 0.73837 0.0
H164 H 0.93385 0.80028 0.64386 0.0
Co165 Co 0.77741 0.4633 0.09157 0.0
C166 C 0.72556 0.5119 0.06459 0.0
C167 C 0.73181 0.50352 0.14762 0.0
C168 C 0.70925 0.52772 0.14093 0.0
N169 N 0.74205 0.49359 0.10003 0.0
N170 N 0.70536 0.53306 0.08892 0.0
H171 H 0.72891 0.51046 0.02239 0.0
H172 H 0.74087 0.49432 0.18481 0.0
C173 C 0.75122 0.40424 0.14614 0.0
O174 O 0.76108 0.38761 0.10504 0.0
N175 N 0.81426 0.43335 0.08781 0.0
C176 C 0.83801 0.43203 0.05126 0.0
C177 C 0.8632 0.41338 0.07031 0.0
C178 C 0.82646 0.41661 0.12956 0.0
N179 N 0.85602 0.40358 0.11979 0.0
C180 C 0.768 0.43812 0.98808 0.0
C181 C 0.70456 0.41715 0.99933 0.0
C182 C 0.72026 0.41271 0.95078 0.0
C183 C 0.75223 0.4239 0.94554 0.0
C184 C 0.7215 0.43153 0.04142 0.0
N185 N 0.7534 0.44062 0.03606 0.0
H186 H 0.79161 0.44837 0.9813 0.0
H187 H 0.7089 0.43557 0.07813 0.0
H188 H 0.83907 0.44621 1.0154 0.0
H189 H 0.81478 0.41582 0.16756 0.0
O190 O 0.79926 0.49377 0.04621 0.0
O191 O 0.80492 0.49281 0.13302 0.0
O192 O 0.7569 0.435 0.14869 0.0
C193 C 0.81258 0.50607 0.08773 0.0
H194 H 0.69656 0.54044 0.17197 0.0
H195 H 0.8861 0.40969 0.0504 0.0
H196 H 0.67957 0.40951 1.00481 0.0
H197 H 0.76482 0.42258 0.90817 0.0
Co198 Co 0.073 0.26086 0.33848 0.0
C199 C 0.02017 0.21101 0.32158 0.0
C200 C 0.06724 0.18995 0.33402 0.0
C201 C 0.04509 0.16509 0.32849 0.0
N202 N 0.05176 0.2188 0.32971 0.0
N203 N 0.01543 0.17822 0.3206 0.0
H204 H 1.00107 0.22877 0.31634 0.0
H205 H 0.09297 0.18716 0.34136 0.0
C206 C 0.12134 0.24992 0.42862 0.0
O207 O 0.13611 0.27759 0.41801 0.0
N208 N 0.09391 0.30297 0.34808 0.0
C209 C 0.11199 0.32007 0.31326 0.0
C210 C 0.12163 0.34894 0.33648 0.0
C211 C 0.09156 0.32229 0.39092 0.0
N212 N 0.10913 0.35001 0.38555 0.0
C213 C 0.09453 0.24043 0.23878 0.0
C214 C 0.16025 0.23475 0.25851 0.0
C215 C 0.14854 0.22904 0.20753 0.0
C216 C 0.11527 0.23183 0.19805 0.0
C217 C 0.13856 0.24408 0.29832 0.0
N218 N 0.10604 0.24699 0.2881 0.0
H219 H 0.06883 0.24161 0.23052 0.0
H220 H 0.1483 0.24921 0.33649 0.0
H221 H 0.11814 0.31202 0.27405 0.0
H222 H 0.07858 0.31535 0.42634 0.0
O223 O 0.04515 0.28139 0.28797 0.0
O224 O 0.03406 0.27838 0.37314 0.0
O225 O 0.09696 0.24047 0.40104 0.0
C226 C 0.02601 0.28897 0.32625 0.0
H227 H 0.05048 0.13929 0.33132 0.0
H228 H 0.13769 0.36711 0.31938 0.0
H229 H 0.18593 0.23262 0.2672 0.0
H230 H 0.10523 0.22691 0.15942 0.0
Co231 Co 0.24405 0.56136 0.60545 0.0
C232 C 0.29734 0.5142 0.5793 0.0
C233 C 0.29478 0.52714 0.66107 0.0
C234 C 0.31873 0.50436 0.6552 0.0
N235 N 0.28142 0.53348 0.61374 0.0
N236 N 0.32029 0.49598 0.60402 0.0
H237 H 0.29161 0.51279 0.53778 0.0
H238 H 0.28703 0.53777 0.69784 0.0
C239 C 0.26357 0.62203 0.66252 0.0
O240 O 0.24923 0.63903 0.62521 0.0
N241 N 0.20552 0.5889 0.60214 0.0
C242 C 0.18421 0.59468 0.5627 0.0
C243 C 0.15791 0.61138 0.58252 0.0
C244 C 0.19098 0.60104 0.64554 0.0
N245 N 0.16232 0.61544 0.63467 0.0
C246 C 0.25284 0.5849 0.50054 0.0
C247 C 0.31175 0.61604 0.51483 0.0
C248 C 0.29663 0.61752 0.46535 0.0
C249 C 0.26708 0.60129 0.45842 0.0
C250 C 0.29617 0.59972 0.55659 0.0
N251 N 0.26621 0.58573 0.54969 0.0
H252 H 0.23153 0.57054 0.49268 0.0
H253 H 0.30848 0.59789 0.59403 0.0
H254 H 0.18595 0.58589 0.52298 0.0
H255 H 0.20057 0.598 0.68493 0.0
O256 O 0.22354 0.52984 0.561 0.0
O257 O 0.21859 0.53038 0.6479 0.0
O258 O 0.26319 0.59077 0.66159 0.0
C259 C 0.21101 0.51702 0.6029 0.0
H260 H 0.33384 0.49466 0.68644 0.0
H261 H 0.13683 0.61919 0.56035 0.0
H262 H 0.33522 0.62742 0.52115 0.0
H263 H 0.25547 0.60042 0.42013 0.0
H264 H 0.6672 0.52482 1.00322 0.0
H265 H 0.69329 0.59365 0.12411 0.0
H266 H 0.62277 0.56083 0.97505 0.0
H267 H 0.64904 0.62941 0.0967 0.0
H268 H 0.57605 0.69568 1.01316 0.0
H269 H 0.626 0.66444 0.02535 0.0
H270 H 0.57081 0.57464 0.02069 0.0
H271 H 0.52108 0.60549 1.0098 0.0
C272 C 0.66387 0.54799 0.02283 0.0
C273 C 0.68333 0.55637 0.0661 0.0
C274 C 0.63835 0.56845 1.00715 0.0
C275 C 0.63221 0.59779 0.03409 0.0
C276 C 0.65318 0.6071 0.07501 0.0
C277 C 0.67835 0.58653 0.09096 0.0
C278 C 0.57447 0.66932 1.01507 0.0
C279 C 0.54433 0.65324 1.01033 0.0
C280 C 0.60317 0.65141 0.02168 0.0
C281 C 0.60238 0.61706 0.02329 0.0
C282 C 0.57235 0.60104 0.0183 0.0
C283 C 0.54374 0.61885 1.01218 0.0
H284 H 0.95375 0.20028 0.33654 0.0
H285 H 1.00826 0.11553 0.28793 0.0
H286 H 0.90322 0.16983 0.32412 0.0
H287 H 0.95805 0.08526 0.27647 0.0
H288 H 0.86421 0.02978 0.29869 0.0
H289 H 0.9119 0.06146 0.32585 0.0
H290 H 0.87225 0.14707 0.24951 0.0
H291 H 0.82452 0.11562 0.22355 0.0
C292 C 0.95508 0.17528 0.32313 0.0
C293 C 0.9853 0.16048 0.3134 0.0
C294 C 0.92609 0.15777 0.31625 0.0
C295 C 0.92663 0.12501 0.29976 0.0
C296 C 0.95677 0.1102 0.29035 0.0
C297 C 0.98566 0.12769 0.29687 0.0
C298 C 0.86544 0.05551 0.28877 0.0
C299 C 0.84082 0.07014 0.25854 0.0
C300 C 0.89284 0.07358 0.30382 0.0
C301 C 0.89601 0.10672 0.28936 0.0
C302 C 0.87054 0.12169 0.26152 0.0
C303 C 0.84334 0.10359 0.2462 0.0
H304 H 0.44782 0.33099 0.5387 0.0
H305 H 0.49179 0.41584 0.46626 0.0
H306 H 0.40086 0.36383 0.56375 0.0
H307 H 0.44537 0.44884 0.49187 0.0
H308 H 0.34671 0.49551 0.50607 0.0
H309 H 0.38873 0.4583 0.47407 0.0
H310 H 0.38615 0.40629 0.62259 0.0
H311 H 0.34352 0.44226 0.6531 0.0
C312 C 0.44763 0.35675 0.52881 0.0
C313 C 0.47346 0.37085 0.50055 0.0
C314 C 0.42069 0.37559 0.54292 0.0
C315 C 0.41915 0.40899 0.52942 0.0
C316 C 0.44529 0.42307 0.50178 0.0
C317 C 0.47204 0.40422 0.48745 0.0
C318 C 0.35473 0.4757 0.53126 0.0
C319 C 0.34216 0.47214 0.58233 0.0
C320 C 0.37905 0.45461 0.5133 0.0
C321 C 0.39117 0.42951 0.54603 0.0
C322 C 0.3774 0.42515 0.59613 0.0
C323 C 0.35318 0.4461 0.61392 0.0
H324 H 0.07596 0.82978 0.83139 0.0
H325 H 0.02239 0.90119 0.74127 0.0
H326 H 0.12636 0.86078 0.81546 0.0
H327 H 0.07176 0.93227 0.72654 0.0
H328 H 0.16306 0.97705 0.67804 0.0
H329 H 0.1228 0.93307 0.68206 0.0
H330 H 0.15005 0.91356 0.84355 0.0
H331 H 0.19128 0.95704 0.83804 0.0
C332 C 0.07505 0.85181 0.80766 0.0
C333 C 0.04518 0.86324 0.78801 0.0
C334 C 0.1038 0.86969 0.79888 0.0
C335 C 0.10322 0.89905 0.76963 0.0
C336 C 0.07341 0.9096 0.74854 0.0
C337 C 0.0449 0.89197 0.75756 0.0
C338 C 0.16105 0.9625 0.71364 0.0
C339 C 0.18011 0.97012 0.75763 0.0
C340 C 0.13783 0.93759 0.71629 0.0
C341 C 0.13266 0.92016 0.76351 0.0
C342 C 0.15345 0.92632 0.80649 0.0
C343 C 0.17704 0.95113 0.80349 0.0
H344 H 0.26854 0.66319 0.40259 0.0
H345 H 0.35753 0.6093 0.42454 0.0
H346 H 0.28979 0.68652 0.32078 0.0
H347 H 0.37891 0.63263 0.34223 0.0
H348 H 0.38588 0.65019 0.16157 0.0
H349 H 0.36404 0.62768 0.24405 0.0
H350 H 0.33485 0.72445 0.29118 0.0
H351 H 0.35669 0.74681 0.20904 0.0
C352 C 0.29283 0.65669 0.39008 0.0
C353 C 0.31148 0.63457 0.41979 0.0
C354 C 0.30497 0.67001 0.34335 0.0
C355 C 0.33586 0.66115 0.32496 0.0
C356 C 0.35485 0.63955 0.35525 0.0
C357 C 0.34284 0.62655 0.40254 0.0
C358 C 0.37426 0.66646 0.18924 0.0
C359 C 0.3728 0.70016 0.179 0.0
C360 C 0.36219 0.6537 0.23663 0.0
C361 C 0.34804 0.67439 0.27417 0.0
C362 C 0.34556 0.70793 0.26295 0.0
C363 C 0.35801 0.72071 0.21601 0.0
H364 H 0.85313 0.87465 0.36995 0.0
H365 H 0.76588 0.90244 0.45215 0.0
H366 H 0.87194 0.84543 0.44839 0.0
H367 H 0.78387 0.87245 0.52988 0.0
H368 H 0.84615 0.8542 0.67755 0.0
H369 H 0.82252 0.8777 0.5979 0.0
H370 H 0.86483 0.80015 0.50579 0.0
H371 H 0.88922 0.77741 0.58545 0.0
C372 C 0.83775 0.87397 0.40454 0.0
C373 C 0.80829 0.8911 0.40525 0.0
C374 C 0.8484 0.85715 0.4495 0.0
C375 C 0.82957 0.85677 0.49589 0.0
C376 C 0.79941 0.87282 0.4955 0.0
C377 C 0.78901 0.88989 0.45086 0.0
C378 C 0.84988 0.84192 0.64037 0.0
C379 C 0.86964 0.81411 0.63764 0.0
C380 C 0.83633 0.85534 0.59459 0.0
C381 C 0.84194 0.84101 0.54507 0.0
C382 C 0.86057 0.81231 0.5429 0.0
C383 C 0.87437 0.79912 0.58858 0.0
H384 H 0.65818 0.4229 0.91372 0.0
H385 H 0.74567 0.36826 0.8831 0.0
H386 H 0.63375 0.40077 0.83333 0.0
H387 H 0.722 0.34729 0.80243 0.0
H388 H 0.65857 0.28863 0.69151 0.0
H389 H 0.68109 0.31044 0.77249 0.0
H390 H 0.63896 0.40458 0.73698 0.0
H391 H 0.61519 0.38217 0.65635 0.0
C392 C 0.67206 0.40598 0.89012 0.0
C393 C 0.70389 0.39741 0.90474 0.0
C394 C 0.65828 0.39367 0.84369 0.0
C395 C 0.67597 0.37238 0.81116 0.0
C396 C 0.70751 0.36337 0.8266 0.0
C397 C 0.72121 0.37562 0.87274 0.0
C398 C 0.65404 0.31399 0.70092 0.0
C399 C 0.63495 0.3336 0.66751 0.0
C400 C 0.66718 0.3266 0.74726 0.0
C401 C 0.66179 0.35928 0.76148 0.0
C402 C 0.64321 0.37917 0.72759 0.0
C403 C 0.63001 0.36649 0.681 0.0
H404 H 0.19732 0.17187 0.89437 0.0
H405 H 0.27616 0.13003 0.98383 0.0
H406 H 0.17768 0.19917 0.97311 0.0
H407 H 0.25758 0.15842 0.0624 0.0
H408 H 0.18844 0.17614 0.20272 0.0
H409 H 0.21591 0.15505 0.12488 0.0
H410 H 0.18484 0.2399 0.03605 0.0
H411 H 0.15612 0.2598 0.11342 0.0
C412 C 0.21087 0.16919 0.93072 0.0
C413 C 0.23811 0.14873 0.93314 0.0
C414 C 0.19974 0.18494 0.97597 0.0
C415 C 0.21591 0.18098 0.02456 0.0
C416 C 0.24404 0.16154 0.02617 0.0
C417 C 0.25485 0.14542 0.98109 0.0
C418 C 0.18812 0.19046 0.16672 0.0
C419 C 0.17016 0.21945 0.16381 0.0
C420 C 0.20389 0.17848 0.12201 0.0
C421 C 0.20236 0.19553 0.07365 0.0
C422 C 0.18591 0.22561 0.07201 0.0
C423 C 0.16974 0.23725 0.11643 0.0
H424 H 0.32574 0.6089 0.69087 0.0
H425 H 0.24636 0.67447 0.72119 0.0
H426 H 0.36072 0.64062 0.74829 0.0
H427 H 0.27985 0.70455 0.78338 0.0
H428 H 0.35079 0.77053 0.86393 0.0
H429 H 0.31898 0.74099 0.79898 0.0
H430 H 0.37749 0.65487 0.82773 0.0
H431 H 0.41103 0.68578 0.88752 0.0
C432 C 0.31563 0.62976 0.71112 0.0
C433 C 0.28345 0.63929 0.70187 0.0
C434 C 0.33562 0.648 0.74457 0.0
C435 C 0.32356 0.6756 0.77132 0.0
C436 C 0.29077 0.6843 0.76283 0.0
C437 C 0.27122 0.66677 0.72772 0.0
C438 C 0.35704 0.7454 0.85546 0.0
C439 C 0.38335 0.73047 0.8811 0.0
C440 C 0.33845 0.72812 0.81868 0.0
C441 C 0.34487 0.69494 0.80797 0.0
C442 C 0.37168 0.68034 0.83342 0.0
C443 C 0.39098 0.69806 0.86857 0.0
H444 H 0.76866 0.91319 0.08735 0.0
H445 H 0.86507 0.94286 0.13531 0.0
H446 H 0.79237 0.87481 0.02494 0.0
H447 H 0.88861 0.90408 0.07433 0.0
H448 H 0.9221 0.84975 0.92853 0.0
H449 H 0.89729 0.8915 0.98343 0.0
H450 H 0.82121 0.82361 0.02716 0.0
H451 H 0.8455 0.78221 0.97136 0.0
C452 C 0.79487 0.91174 0.08432 0.0
C453 C 0.81492 0.9311 0.11646 0.0
C454 C 0.80849 0.88951 0.04889 0.0
C455 C 0.84246 0.88613 0.04477 0.0
C456 C 0.86241 0.90621 0.07589 0.0
C457 C 0.84883 0.92839 0.11118 0.0
C458 C 0.90009 0.84371 0.94986 0.0
C459 C 0.88585 0.81256 0.94545 0.0
C460 C 0.88588 0.86765 0.98151 0.0
C461 C 0.85713 0.86103 1.00969 0.0
C462 C 0.84299 0.82983 1.00534 0.0
C463 C 0.85713 0.80594 0.97363 0.0
H464 H 0.71848 0.34656 0.13792 0.0
H465 H 0.74023 0.42372 0.24793 0.0
H466 H 0.68635 0.31842 0.2051 0.0
H467 H 0.70838 0.39506 0.31566 0.0
H468 H 0.68279 0.3094 0.43278 0.0
H469 H 0.71357 0.33921 0.36569 0.0
H470 H 0.63316 0.32974 0.25766 0.0
H471 H 0.60196 0.3003 0.32519 0.0
C472 C 0.71655 0.35746 0.17655 0.0
C473 C 0.73205 0.38734 0.18766 0.0
C474 C 0.69793 0.34142 0.21487 0.0
C475 C 0.69484 0.35454 0.26556 0.0
C476 C 0.71049 0.38431 0.27693 0.0
C477 C 0.72863 0.40074 0.23818 0.0
C478 C 0.67165 0.31355 0.39468 0.0
C479 C 0.63995 0.30231 0.38423 0.0
C480 C 0.68922 0.33087 0.35645 0.0
C481 C 0.67575 0.33686 0.30653 0.0
C482 C 0.64419 0.32535 0.29578 0.0
C483 C 0.62633 0.30855 0.33442 0.0
H484 H 0.16353 0.26685 0.50576 0.0
H485 H 0.11406 0.18314 0.44016 0.0
H486 H 0.19548 0.23105 0.56177 0.0
H487 H 0.14672 0.14692 0.4965 0.0
H488 H 0.19933 0.09957 0.64642 0.0
H489 H 0.16096 0.13083 0.59186 0.0
H490 H 0.23962 0.19295 0.53927 0.0
H491 H 0.2775 0.16236 0.59336 0.0
C492 C 0.15928 0.24075 0.50356 0.0
C493 C 0.1366 0.22784 0.46786 0.0
C494 C 0.17774 0.2202 0.53555 0.0
C495 C 0.17418 0.18611 0.53268 0.0
C496 C 0.15008 0.1731 0.49942 0.0
C497 C 0.1314 0.19383 0.46721 0.0
C498 C 0.2084 0.11968 0.62268 0.0
C499 C 0.24141 0.12878 0.62488 0.0
C500 C 0.18644 0.13754 0.59148 0.0
C501 C 0.19716 0.16478 0.56217 0.0
C502 C 0.23042 0.17266 0.56248 0.0
C503 C 0.25219 0.15497 0.59339 0.0
H504 H 0.35313 0.8605 0.94367 0.0
H505 H 0.44718 0.86996 0.87054 0.0
H506 H 0.32987 0.89736 0.87783 0.0
H507 H 0.42401 0.90766 0.80463 0.0
H508 H 0.3705 1.01247 0.77864 0.0
H509 H 0.39934 0.96609 0.81738 0.0
H510 H 0.31914 0.90277 0.77699 0.0
H511 H 0.29073 0.94923 0.73667 0.0
C512 C 0.36876 0.87047 0.91327 0.0
C513 C 0.40199 0.86278 0.91246 0.0
C514 C 0.3554 0.89122 0.87519 0.0
C515 C 0.37508 0.90525 0.83588 0.0
C516 C 0.40827 0.89709 0.83439 0.0
C517 C 0.42152 0.87564 0.87196 0.0
C518 C 0.35979 0.98831 0.7758 0.0
C519 C 0.32858 0.9843 0.75436 0.0
C520 C 0.37622 0.96179 0.79815 0.0
C521 C 0.36135 0.93089 0.80068 0.0
C522 C 0.33108 0.92639 0.77577 0.0
C523 C 0.31493 0.95288 0.75236 0.0
H524 H 0.53633 0.83542 0.96239 0.0
H525 H 0.54973 0.7601 0.07989 0.0
H526 H 0.58108 0.86704 1.00271 0.0
H527 H 0.59403 0.79066 0.11849 0.0
H528 H 0.62205 0.87456 0.22447 0.0
H529 H 0.5853 0.84418 0.16841 0.0
H530 H 0.64502 0.86623 0.03327 0.0
H531 H 0.68283 0.89645 0.09001 0.0
C532 C 0.54968 0.825 0.99514 0.0
C533 C 0.53964 0.79521 1.01778 0.0
C534 C 0.57509 0.84312 0.01841 0.0
C535 C 0.59055 0.83154 0.0644 0.0
C536 C 0.58223 0.80048 0.08371 0.0
C537 C 0.55701 0.78275 0.06105 0.0
C538 C 0.62782 0.87281 0.18307 0.0
C539 C 0.65592 0.88763 0.16229 0.0
C540 C 0.60653 0.85548 0.15075 0.0
C541 C 0.61249 0.85247 0.09652 0.0
C542 C 0.63983 0.86819 0.07493 0.0
C543 C 0.66144 0.88548 0.10755 0.0
H544 H 0.6543 1.00102 0.30137 0.0
H545 H 0.70369 0.07438 0.20873 0.0
H546 H 0.6246 0.04343 0.34784 0.0
H547 H 0.67437 0.11733 0.25615 0.0
H548 H 0.60199 0.18495 0.34484 0.0
H549 H 0.62171 0.14403 0.28327 0.0
H550 H 0.647 0.08106 0.41375 0.0
H551 H 0.62795 0.12188 0.47524 0.0
C552 C 0.65779 0.02629 0.28959 0.0
C553 C 0.68094 0.03452 0.25123 0.0
C554 C 0.64119 0.0506 0.31673 0.0
C555 C 0.64773 0.08376 0.30664 0.0
C556 C 0.66877 0.09199 0.26482 0.0
C557 C 0.68533 0.06746 0.23728 0.0
C558 C 0.61198 0.16257 0.36065 0.0
C559 C 0.61313 0.15684 0.41547 0.0
C560 C 0.62316 0.13902 0.32512 0.0
C561 C 0.63546 0.10909 0.34348 0.0
C562 C 0.63688 0.10352 0.39814 0.0
C563 C 0.62595 0.12703 0.43355 0.0
H564 H 0.45995 0.25855 0.54667 0.0
H565 H 0.49864 0.17962 0.45434 0.0
H566 H 0.42229 0.22073 0.58965 0.0
H567 H 0.46042 0.14145 0.49761 0.0
H568 H 0.35083 0.11228 0.59325 0.0
H569 H 0.38282 0.14325 0.52839 0.0
H570 H 0.45559 0.16242 0.64638 0.0
H571 H 0.42448 0.13086 0.71081 0.0
C572 C 0.4593 0.23334 0.53381 0.0
C573 C 0.48188 0.22206 0.49674 0.0
C574 C 0.43794 0.2117 0.55869 0.0
C575 C 0.43866 0.17828 0.54704 0.0
C576 C 0.4593 0.16723 0.50682 0.0
C577 C 0.48086 0.18907 0.4817 0.0
C578 C 0.37408 0.12223 0.60509 0.0
C579 C 0.38489 0.11923 0.65765 0.0
C580 C 0.39227 0.14005 0.56789 0.0
C581 C 0.42151 0.15519 0.58263 0.0
C582 C 0.43304 0.15096 0.6342 0.0
C583 C 0.41509 0.13306 0.67115 0.0
H584 H 0.903 0.61779 0.86216 0.0
H585 H 0.89877 0.69149 0.98267 0.0
H586 H 0.88531 0.57658 0.92552 0.0
H587 H 0.88121 0.64997 0.04683 0.0
H588 H 0.80172 0.57071 0.1045 0.0
H589 H 0.83089 0.61548 0.06044 0.0
H590 H 0.90258 0.54691 1.00522 0.0
H591 H 0.87312 0.50246 0.0487 0.0
C592 C 0.89851 0.62512 0.90237 0.0
C593 C 0.9022 0.65791 0.91728 0.0
C594 C 0.8887 0.60143 0.93895 0.0
C595 C 0.88201 0.60989 0.99148 0.0
C596 C 0.88614 0.64265 1.00672 0.0
C597 C 0.89641 0.66636 0.9701 0.0
C598 C 0.82463 0.56563 0.08524 0.0
C599 C 0.8356 0.53333 0.08081 0.0
C600 C 0.84121 0.59118 0.05955 0.0
C601 C 0.86879 0.58469 0.02852 0.0
C602 C 0.88116 0.55269 0.02807 0.0
C603 C 0.86462 0.52729 0.05367 0.0
H604 H 0.96083 0.27902 0.34712 0.0
H605 H 0.02895 0.34592 0.27516 0.0
H606 H 0.91571 0.30762 0.30236 0.0
H607 H 0.98454 0.37401 0.23078 0.0
H608 H 0.91062 0.36949 0.09571 0.0
H609 H 0.94878 0.34441 0.15623 0.0
H610 H 0.88814 0.3706 0.28753 0.0
H611 H 0.84997 0.39704 0.22727 0.0
C612 C 0.96596 0.30057 0.3236 0.0
C613 C 0.99823 0.31044 0.31462 0.0
C614 C 0.94029 0.31674 0.29771 0.0
C615 C 0.94683 0.34264 0.26248 0.0
C616 C 0.97888 0.35388 0.25716 0.0
C617 C 1.00424 0.33797 0.28287 0.0
C618 C 0.90524 0.37041 0.13731 0.0
C619 C 0.87724 0.38623 0.15604 0.0
C620 C 0.92714 0.35574 0.17205 0.0
C621 C 0.92156 0.35591 0.22656 0.0
C622 C 0.89298 0.37017 0.24563 0.0
C623 C 0.87111 0.38535 0.21079 0.0
H624 H 0.22186 0.45182 0.61364 0.0
H625 H 0.14933 0.52269 0.57024 0.0
H626 H 0.19099 0.40921 0.56779 0.0
H627 H 0.11847 0.48041 0.52431 0.0
H628 H 0.11804 0.41492 0.37307 0.0
H629 H 0.13643 0.45377 0.43956 0.0
H630 H 0.13774 0.37658 0.55606 0.0
H631 H 0.11913 0.3377 0.48925 0.0
C632 C 0.1984 0.45782 0.59684 0.0
C633 C 0.18752 0.49026 0.59639 0.0
C634 C 0.18087 0.43355 0.57009 0.0
C635 C 0.15253 0.44159 0.54179 0.0
C636 C 0.14036 0.47355 0.54528 0.0
C637 C 0.15773 0.49763 0.57226 0.0
C638 C 0.12188 0.40639 0.41301 0.0
C639 C 0.11706 0.37336 0.42596 0.0
C640 C 0.13216 0.42862 0.45123 0.0
C641 C 0.13836 0.41826 0.50321 0.0
C642 C 0.1331 0.38528 0.51642 0.0
C643 C 0.12224 0.36311 0.47829 0.0
H644 H 0.17803 0.64553 0.72627 0.0
H645 H 0.09679 0.61939 0.62724 0.0
H646 H 0.1408 0.67136 0.78846 0.0
H647 H 0.05987 0.64578 0.68823 0.0
H648 H 0.99485 0.67384 0.81535 0.0
H649 H 0.03718 0.64018 0.77619 0.0
H650 H 0.10533 0.72014 0.79098 0.0
H651 H 0.06295 0.75335 0.83173 0.0
C652 C 0.15223 0.64507 0.71797 0.0
C653 C 0.14039 0.63039 0.67171 0.0
C654 C 0.13095 0.66006 0.75343 0.0
C655 C 0.09732 0.66041 0.74365 0.0
C656 C 0.08555 0.64545 0.6976 0.0
C657 C 0.10678 0.6307 0.66212 0.0
C658 C 0.01933 0.68358 0.81253 0.0
C659 C 0.02582 0.71596 0.82694 0.0
C660 C 0.04342 0.66455 0.78927 0.0
C661 C 0.07442 0.67775 0.77922 0.0
C662 C 0.08174 0.70921 0.79818 0.0
C663 C 0.05754 0.72822 0.8218 0.0
loop_
_geom_bond_atom_site_label_1
_geom_bond_atom_site_label_2
_geom_bond_distance
_geom_bond_site_symmetry_2
_ccdc_geom_bond_type
Co0 N4 2.148 . S
Co0 N10 2.128 . S
Co0 N20 2.194 1_556 S
Co0 O25 2.351 1_556 S
Co0 O26 2.155 . S
Co0 O27 2.096 . S
C1 N4 1.301 1_554 S
C1 N5 1.328 . S
C1 H6 0.930 . S
C2 C3 1.333 . S
C2 N4 1.317 . S
C2 H7 0.930 . S
C3 C2 1.333 . S
C3 N5 1.350 1_556 S
C3 H29 0.931 . S
N4 Co0 2.148 . S
N4 C1 1.301 1_556 S
N4 C2 1.317 . S
N5 C1 1.328 . S
N5 C3 1.350 1_554 S
H6 C1 0.930 . S
H7 C2 0.930 . S
C8 O9 1.224 . S
C8 O27 1.247 . S
O9 C8 1.224 . S
N10 Co0 2.128 . S
N10 C11 1.355 1_556 S
N10 C13 1.311 . S
C11 N10 1.355 1_554 S
C11 C12 1.363 . S
C11 H23 0.929 . S
C12 C11 1.363 . S
C12 N14 1.375 1_554 S
C12 H30 0.931 . S
C13 N10 1.311 . S
C13 N14 1.347 . S
C13 H24 0.929 . S
N14 C12 1.375 1_556 S
N14 C13 1.347 . S
C15 C18 1.365 . S
C15 N20 1.328 . S
C15 H21 0.929 . S
C16 C17 1.362 . S
C16 C19 1.378 . S
C16 H31 0.929 . S
C17 C16 1.362 . S
C17 C18 1.366 . S
C18 C15 1.365 . S
C18 C17 1.366 . S
C18 H32 0.930 . S
C19 C16 1.378 . S
C19 N20 1.315 . S
C19 H22 0.930 . S
N20 Co0 2.194 1_554 S
N20 C15 1.328 . S
N20 C19 1.315 . S
H21 C15 0.929 . S
H22 C19 0.930 . S
H23 C11 0.929 . S
H24 C13 0.929 . S
O25 Co0 2.351 1_554 S
O25 C28 1.244 . S
O26 Co0 2.155 . S
O26 C28 1.240 1_556 S
O27 Co0 2.096 . S
O27 C8 1.247 . S
C28 O25 1.244 . S
C28 O26 1.240 1_554 S
H29 C3 0.931 . S
H30 C12 0.931 . S
H31 C16 0.929 . S
H32 C18 0.930 . S
Co33 N37 2.148 . S
Co33 N43 2.128 . S
Co33 N53 2.194 . S
Co33 O58 2.351 . S
Co33 O59 2.155 . S
Co33 O60 2.096 . S
C34 N37 1.301 . S
C34 N38 1.317 1_565 S
C34 H39 0.930 . S
C35 C36 1.333 . S
C35 N37 1.317 . S
C35 H40 0.930 . S
C36 C35 1.333 . S
C36 N38 1.341 1_565 S
C36 H62 0.931 . S
N37 Co33 2.148 . S
N37 C34 1.301 . S
N37 C35 1.317 . S
N38 C34 1.317 1_545 S
N38 C36 1.341 1_545 S
H39 C34 0.930 . S
H40 C35 0.930 . S
C41 O42 1.224 . S
C41 O60 1.247 . S
O42 C41 1.224 . S
N43 Co33 2.128 . S
N43 C44 1.355 . S
N43 C46 1.311 . S
C44 N43 1.355 . S
C44 C45 1.363 . S
C44 H56 0.929 . S
C45 C44 1.363 . S
C45 N47 1.375 . S
C45 H63 0.931 . S
C46 N43 1.311 . S
C46 N47 1.347 . S
C46 H57 0.929 . S
N47 C45 1.375 . S
N47 C46 1.347 . S
C48 C51 1.365 . S
C48 N53 1.328 . S
C48 H54 0.929 . S
C49 C50 1.362 . S
C49 C52 1.378 . S
C49 H64 0.929 . S
C50 C49 1.362 . S
C50 C51 1.366 . S
C51 C48 1.365 . S
C51 C50 1.366 . S
C51 H65 0.930 . S
C52 C49 1.378 . S
C52 N53 1.315 . S
C52 H55 0.930 . S
N53 Co33 2.194 . S
N53 C48 1.328 . S
N53 C52 1.315 . S
H54 C48 0.929 . S
H55 C52 0.930 . S
H56 C44 0.929 . S
H57 C46 0.929 . S
O58 Co33 2.351 . S
O58 C61 1.244 . S
O59 Co33 2.155 . S
O59 C61 1.240 . S
O60 Co33 2.096 . S
O60 C41 1.247 . S
C61 O58 1.244 . S
C61 O59 1.240 . S
H62 C36 0.931 . S
H63 C45 0.931 . S
H64 C49 0.929 . S
H65 C51 0.930 . S
Co66 N70 2.148 . S
Co66 N76 2.128 . S
Co66 N86 2.194 . S
Co66 O91 2.351 . S
Co66 O92 2.155 . S
Co66 O93 2.096 . S
C67 N70 1.301 . S
C67 N71 1.328 . S
C67 H72 0.930 . S
C68 C69 1.333 . S
C68 N70 1.317 . S
C68 H73 0.930 . S
C69 C68 1.333 . S
C69 N71 1.350 . S
C69 H95 0.931 . S
N70 Co66 2.148 . S
N70 C67 1.301 . S
N70 C68 1.317 . S
N71 C67 1.328 . S
N71 C69 1.350 . S
H72 C67 0.930 . S
H73 C68 0.930 . S
C74 O75 1.224 . S
C74 O93 1.247 . S
O75 C74 1.224 . S
N76 Co66 2.128 . S
N76 C77 1.355 . S
N76 C79 1.311 . S
C77 N76 1.355 . S
C77 C78 1.363 . S
C77 H89 0.929 . S
C78 C77 1.363 . S
C78 N80 1.375 . S
C78 H96 0.931 . S
C79 N76 1.311 . S
C79 N80 1.347 . S
C79 H90 0.929 . S
N80 C78 1.375 . S
N80 C79 1.347 . S
C81 C84 1.365 . S
C81 N86 1.328 . S
C81 H87 0.929 . S
C82 C83 1.362 . S
C82 C85 1.378 . S
C82 H97 0.929 . S
C83 C82 1.362 . S
C83 C84 1.366 . S
C84 C81 1.365 . S
C84 C83 1.366 . S
C84 H98 0.930 . S
C85 C82 1.378 . S
C85 N86 1.315 . S
C85 H88 0.930 . S
N86 Co66 2.194 . S
N86 C81 1.328 . S
N86 C85 1.315 . S
H87 C81 0.929 . S
H88 C85 0.930 . S
H89 C77 0.929 . S
H90 C79 0.929 . S
O91 Co66 2.351 . S
O91 C94 1.244 . S
O92 Co66 2.155 . S
O92 C94 1.240 . S
O93 Co66 2.096 . S
O93 C74 1.247 . S
C94 O91 1.244 . S
C94 O92 1.240 . S
H95 C69 0.931 . S
H96 C78 0.931 . S
H97 C82 0.929 . S
H98 C84 0.930 . S
Co99 N103 2.148 . S
Co99 N109 2.128 . S
Co99 N119 2.194 . S
Co99 O124 2.351 . S
Co99 O125 2.155 . S
Co99 O126 2.096 . S
C100 N103 1.301 . S
C100 N104 1.317 1_545 S
C100 H105 0.930 . S
C101 C102 1.333 . S
C101 N103 1.317 . S
C101 H106 0.930 . S
C102 C101 1.333 . S
C102 N104 1.341 1_545 S
C102 H128 0.931 . S
N103 Co99 2.148 . S
N103 C100 1.301 . S
N103 C101 1.317 . S
N104 C100 1.317 1_565 S
N104 C102 1.341 1_565 S
H105 C100 0.930 . S
H106 C101 0.930 . S
C107 O108 1.224 . S
C107 O126 1.247 . S
O108 C107 1.224 . S
N109 Co99 2.128 . S
N109 C110 1.355 . S
N109 C112 1.311 . S
C110 N109 1.355 . S
C110 C111 1.363 . S
C110 H122 0.929 . S
C111 C110 1.363 . S
C111 N113 1.375 . S
C111 H129 0.931 . S
C112 N109 1.311 . S
C112 N113 1.347 . S
C112 H123 0.929 . S
N113 C111 1.375 . S
N113 C112 1.347 . S
C114 C117 1.365 . S
C114 N119 1.328 . S
C114 H120 0.929 . S
C115 C116 1.362 . S
C115 C118 1.378 . S
C115 H130 0.929 . S
C116 C115 1.362 . S
C116 C117 1.366 . S
C117 C114 1.365 . S
C117 C116 1.366 . S
C117 H131 0.930 . S
C118 C115 1.378 . S
C118 N119 1.315 . S
C118 H121 0.930 . S
N119 Co99 2.194 . S
N119 C114 1.328 . S
N119 C118 1.315 . S
H120 C114 0.929 . S
H121 C118 0.930 . S
H122 C110 0.929 . S
H123 C112 0.929 . S
O124 Co99 2.351 . S
O124 C127 1.244 . S
O125 Co99 2.155 . S
O125 C127 1.240 . S
O126 Co99 2.096 . S
O126 C107 1.247 . S
C127 O124 1.244 . S
C127 O125 1.240 . S
H128 C102 0.931 . S
H129 C111 0.931 . S
H130 C115 0.929 . S
H131 C117 0.930 . S
Co132 N136 2.148 . S
Co132 N142 2.128 . S
Co132 N152 2.194 . S
Co132 O157 2.351 . S
Co132 O158 2.155 . S
Co132 O159 2.096 . S
C133 N136 1.301 . S
C133 N137 1.317 1_655 S
C133 H138 0.930 . S
C134 C135 1.333 . S
C134 N136 1.317 . S
C134 H139 0.930 . S
C135 C134 1.333 . S
C135 N137 1.341 1_655 S
C135 H161 0.931 . S
N136 Co132 2.148 . S
N136 C133 1.301 . S
N136 C134 1.317 . S
N137 C133 1.317 1_455 S
N137 C135 1.341 1_455 S
H138 C133 0.930 . S
H139 C134 0.930 . S
C140 O141 1.224 . S
C140 O159 1.247 . S
O141 C140 1.224 . S
N142 Co132 2.128 . S
N142 C143 1.355 . S
N142 C145 1.311 . S
C143 N142 1.355 . S
C143 C144 1.363 . S
C143 H155 0.929 . S
C144 C143 1.363 . S
C144 N146 1.375 . S
C144 H162 0.931 . S
C145 N142 1.311 . S
C145 N146 1.347 . S
C145 H156 0.929 . S
N146 C144 1.375 . S
N146 C145 1.347 . S
C147 C150 1.365 . S
C147 N152 1.328 . S
C147 H153 0.929 . S
C148 C149 1.362 . S
C148 C151 1.378 . S
C148 H163 0.929 . S
C149 C148 1.362 . S
C149 C150 1.366 . S
C150 C147 1.365 . S
C150 C149 1.366 . S
C150 H164 0.930 . S
C151 C148 1.378 . S
C151 N152 1.315 . S
C151 H154 0.930 . S
N152 Co132 2.194 . S
N152 C147 1.328 . S
N152 C151 1.315 . S
H153 C147 0.929 . S
H154 C151 0.930 . S
H155 C143 0.929 . S
H156 C145 0.929 . S
O157 Co132 2.351 . S
O157 C160 1.244 . S
O158 Co132 2.155 . S
O158 C160 1.240 . S
O159 Co132 2.096 . S
O159 C140 1.247 . S
C160 O157 1.244 . S
C160 O158 1.240 . S
H161 C135 0.931 . S
H162 C144 0.931 . S
H163 C148 0.929 . S
H164 C150 0.930 . S
Co165 N169 2.148 . S
Co165 N175 2.128 . S
Co165 N185 2.194 1_554 S
Co165 O190 2.351 1_554 S
Co165 O191 2.155 . S
Co165 O192 2.096 . S
C166 N169 1.301 . S
C166 N170 1.328 . S
C166 H171 0.930 1_554 S
C167 C168 1.333 . S
C167 N169 1.317 . S
C167 H172 0.930 . S
C168 C167 1.333 . S
C168 N170 1.350 . S
C168 H194 0.931 . S
N169 Co165 2.148 . S
N169 C166 1.301 . S
N169 C167 1.317 . S
N170 C166 1.328 . S
N170 C168 1.350 . S
H171 C166 0.930 1_556 S
H172 C167 0.930 . S
C173 O174 1.224 . S
C173 O192 1.247 . S
O174 C173 1.224 . S
N175 Co165 2.128 . S
N175 C176 1.355 . S
N175 C178 1.311 . S
C176 N175 1.355 . S
C176 C177 1.363 . S
C176 H188 0.929 1_554 S
C177 C176 1.363 . S
C177 N179 1.375 . S
C177 H195 0.931 . S
C178 N175 1.311 . S
C178 N179 1.347 . S
C178 H189 0.929 . S
N179 C177 1.375 . S
N179 C178 1.347 . S
C180 C183 1.365 . S
C180 N185 1.328 . S
C180 H186 0.929 . S
C181 C182 1.362 . S
C181 C184 1.378 . S
C181 H196 0.929 . S
C182 C181 1.362 . S
C182 C183 1.366 . S
C183 C180 1.365 . S
C183 C182 1.366 . S
C183 H197 0.930 . S
C184 C181 1.378 . S
C184 N185 1.315 . S
C184 H187 0.930 1_556 S
N185 Co165 2.194 1_556 S
N185 C180 1.328 . S
N185 C184 1.315 . S
H186 C180 0.929 . S
H187 C184 0.930 1_554 S
H188 C176 0.929 1_556 S
H189 C178 0.929 . S
O190 Co165 2.351 1_556 S
O190 C193 1.244 1_556 S
O191 Co165 2.155 . S
O191 C193 1.240 . S
O192 Co165 2.096 . S
O192 C173 1.247 . S
C193 O190 1.244 1_554 S
C193 O191 1.240 . S
H194 C168 0.931 . S
H195 C177 0.931 . S
H196 C181 0.929 . S
H197 C183 0.930 . S
Co198 N202 2.148 . S
Co198 N208 2.128 . S
Co198 N218 2.194 . S
Co198 O223 2.351 . S
Co198 O224 2.155 . S
Co198 O225 2.096 . S
C199 N202 1.301 . S
C199 N203 1.317 1_455 S
C199 H204 0.930 . S
C200 C201 1.333 . S
C200 N202 1.317 . S
C200 H205 0.930 . S
C201 C200 1.333 . S
C201 N203 1.341 1_455 S
C201 H227 0.931 . S
N202 Co198 2.148 . S
N202 C199 1.301 . S
N202 C200 1.317 . S
N203 C199 1.317 1_655 S
N203 C201 1.341 1_655 S
H204 C199 0.930 . S
H205 C200 0.930 . S
C206 O207 1.224 . S
C206 O225 1.247 . S
O207 C206 1.224 . S
N208 Co198 2.128 . S
N208 C209 1.355 . S
N208 C211 1.311 . S
C209 N208 1.355 . S
C209 C210 1.363 . S
C209 H221 0.929 . S
C210 C209 1.363 . S
C210 N212 1.375 . S
C210 H228 0.931 . S
C211 N208 1.311 . S
C211 N212 1.347 . S
C211 H222 0.929 . S
N212 C210 1.375 . S
N212 C211 1.347 . S
C213 C216 1.365 . S
C213 N218 1.328 . S
C213 H219 0.929 . S
C214 C215 1.362 . S
C214 C217 1.378 . S
C214 H229 0.929 . S
C215 C214 1.362 . S
C215 C216 1.366 . S
C216 C213 1.365 . S
C216 C215 1.366 . S
C216 H230 0.930 . S
C217 C214 1.378 . S
C217 N218 1.315 . S
C217 H220 0.930 . S
N218 Co198 2.194 . S
N218 C213 1.328 . S
N218 C217 1.315 . S
H219 C213 0.929 . S
H220 C217 0.930 . S
H221 C209 0.929 . S
H222 C211 0.929 . S
O223 Co198 2.351 . S
O223 C226 1.244 . S
O224 Co198 2.155 . S
O224 C226 1.240 . S
O225 Co198 2.096 . S
O225 C206 1.247 . S
C226 O223 1.244 . S
C226 O224 1.240 . S
H227 C201 0.931 . S
H228 C210 0.931 . S
H229 C214 0.929 . S
H230 C216 0.930 . S
Co231 N235 2.148 . S
Co231 N241 2.128 . S
Co231 N251 2.194 . S
Co231 O256 2.351 . S
Co231 O257 2.155 . S
Co231 O258 2.096 . S
C232 N235 1.301 . S
C232 N236 1.328 . S
C232 H237 0.930 . S
C233 C234 1.333 . S
C233 N235 1.317 . S
C233 H238 0.930 . S
C234 C233 1.333 . S
C234 N236 1.350 . S
C234 H260 0.931 . S
N235 Co231 2.148 . S
N235 C232 1.301 . S
N235 C233 1.317 . S
N236 C232 1.328 . S
N236 C234 1.350 . S
H237 C232 0.930 . S
H238 C233 0.930 . S
C239 O240 1.224 . S
C239 O258 1.247 . S
O240 C239 1.224 . S
N241 Co231 2.128 . S
N241 C242 1.355 . S
N241 C244 1.311 . S
C242 N241 1.355 . S
C242 C243 1.363 . S
C242 H254 0.929 . S
C243 C242 1.363 . S
C243 N245 1.375 . S
C243 H261 0.931 . S
C244 N241 1.311 . S
C244 N245 1.347 . S
C244 H255 0.929 . S
N245 C243 1.375 . S
N245 C244 1.347 . S
C246 C249 1.365 . S
C246 N251 1.328 . S
C246 H252 0.929 . S
C247 C248 1.362 . S
C247 C250 1.378 . S
C247 H262 0.929 . S
C248 C247 1.362 . S
C248 C249 1.366 . S
C249 C246 1.365 . S
C249 C248 1.366 . S
C249 H263 0.930 . S
C250 C247 1.378 . S
C250 N251 1.315 . S
C250 H253 0.930 . S
N251 Co231 2.194 . S
N251 C246 1.328 . S
N251 C250 1.315 . S
H252 C246 0.929 . S
H253 C250 0.930 . S
H254 C242 0.929 . S
H255 C244 0.929 . S
O256 Co231 2.351 . S
O256 C259 1.244 . S
O257 Co231 2.155 . S
O257 C259 1.240 . S
O258 Co231 2.096 . S
O258 C239 1.247 . S
C259 O256 1.244 . S
C259 O257 1.240 . S
H260 C234 0.931 . S
H261 C243 0.931 . S
H262 C247 0.929 . S
H263 C249 0.930 . S
H264 C272 0.950 . S
H265 C277 0.950 . S
H266 C274 0.950 . S
H267 C276 0.950 . S
H268 C278 0.950 . S
H269 C280 0.950 . S
H270 C282 0.950 . S
H271 C283 0.950 . S
C272 H264 0.950 . S
C272 C273 1.386 . S
C272 C274 1.391 . S
C273 C272 1.386 . S
C273 C277 1.393 1_554 S
C274 H266 0.950 . S
C274 C272 1.391 . S
C274 C275 1.400 . S
C275 C274 1.400 . S
C275 C276 1.398 1_554 S
C275 C281 1.491 . S
C276 H267 0.950 . S
C276 C275 1.398 1_556 S
C276 C277 1.391 . S
C277 H265 0.950 . S
C277 C273 1.393 1_556 S
C277 C276 1.391 . S
C278 H268 0.950 . S
C278 C279 1.386 1_556 S
C278 C280 1.391 . S
C279 C278 1.386 1_554 S
C279 C283 1.393 . S
C280 H269 0.950 . S
C280 C278 1.391 . S
C280 C281 1.400 1_556 S
C281 C275 1.491 . S
C281 C280 1.400 1_554 S
C281 C282 1.398 . S
C282 H270 0.950 . S
C282 C281 1.398 . S
C282 C283 1.391 . S
C283 H271 0.950 . S
C283 C279 1.393 . S
C283 C282 1.391 . S
H284 C292 0.950 . S
H285 C297 0.950 1_455 S
H286 C294 0.950 . S
H287 C296 0.950 . S
H288 C298 0.950 1_565 S
H289 C300 0.950 . S
H290 C302 0.950 . S
H291 C303 0.950 . S
C292 H284 0.950 . S
C292 C293 1.386 . S
C292 C294 1.391 . S
C293 C292 1.386 . S
C293 C297 1.393 . S
C294 H286 0.950 . S
C294 C292 1.391 . S
C294 C295 1.400 . S
C295 C294 1.400 . S
C295 C296 1.398 . S
C295 C301 1.491 . S
C296 H287 0.950 . S
C296 C295 1.398 . S
C296 C297 1.391 . S
C297 H285 0.950 1_655 S
C297 C293 1.393 . S
C297 C296 1.391 . S
C298 H288 0.950 1_545 S
C298 C299 1.386 . S
C298 C300 1.391 . S
C299 C298 1.386 . S
C299 C303 1.393 . S
C300 H289 0.950 . S
C300 C298 1.391 . S
C300 C301 1.400 . S
C301 C295 1.491 . S
C301 C300 1.400 . S
C301 C302 1.398 . S
C302 H290 0.950 . S
C302 C301 1.398 . S
C302 C303 1.391 . S
C303 H291 0.950 . S
C303 C299 1.393 . S
C303 C302 1.391 . S
H304 C312 0.950 . S
H305 C317 0.950 . S
H306 C314 0.950 . S
H307 C316 0.950 . S
H308 C318 0.950 . S
H309 C320 0.950 . S
H310 C322 0.950 . S
H311 C323 0.950 . S
C312 H304 0.950 . S
C312 C313 1.386 . S
C312 C314 1.391 . S
C313 C312 1.386 . S
C313 C317 1.393 . S
C314 H306 0.950 . S
C314 C312 1.391 . S
C314 C315 1.400 . S
C315 C314 1.400 . S
C315 C316 1.398 . S
C315 C321 1.491 . S
C316 H307 0.950 . S
C316 C315 1.398 . S
C316 C317 1.391 . S
C317 H305 0.950 . S
C317 C313 1.393 . S
C317 C316 1.391 . S
C318 H308 0.950 . S
C318 C319 1.386 . S
C318 C320 1.391 . S
C319 C318 1.386 . S
C319 C323 1.393 . S
C320 H309 0.950 . S
C320 C318 1.391 . S
C320 C321 1.400 . S
C321 C315 1.491 . S
C321 C320 1.400 . S
C321 C322 1.398 . S
C322 H310 0.950 . S
C322 C321 1.398 . S
C322 C323 1.391 . S
C323 H311 0.950 . S
C323 C319 1.393 . S
C323 C322 1.391 . S
H324 C332 0.950 . S
H325 C337 0.950 . S
H326 C334 0.950 . S
H327 C336 0.950 . S
H328 C338 0.950 . S
H329 C340 0.950 . S
H330 C342 0.950 . S
H331 C343 0.950 . S
C332 H324 0.950 . S
C332 C333 1.386 . S
C332 C334 1.391 . S
C333 C332 1.386 . S
C333 C337 1.393 . S
C334 H326 0.950 . S
C334 C332 1.391 . S
C334 C335 1.400 . S
C335 C334 1.400 . S
C335 C336 1.398 . S
C335 C341 1.491 . S
C336 H327 0.950 . S
C336 C335 1.398 . S
C336 C337 1.391 . S
C337 H325 0.950 . S
C337 C333 1.393 . S
C337 C336 1.391 . S
C338 H328 0.950 . S
C338 C339 1.386 . S
C338 C340 1.391 . S
C339 C338 1.386 . S
C339 C343 1.393 . S
C340 H329 0.950 . S
C340 C338 1.391 . S
C340 C341 1.400 . S
C341 C335 1.491 . S
C341 C340 1.400 . S
C341 C342 1.398 . S
C342 H330 0.950 . S
C342 C341 1.398 . S
C342 C343 1.391 . S
C343 H331 0.950 . S
C343 C339 1.393 . S
C343 C342 1.391 . S
H344 C352 0.950 . S
H345 C357 0.950 . S
H346 C354 0.950 . S
H347 C356 0.950 . S
H348 C358 0.950 . S
H349 C360 0.950 . S
H350 C362 0.950 . S
H351 C363 0.950 . S
C352 H344 0.950 . S
C352 C353 1.386 . S
C352 C354 1.391 . S
C353 C352 1.386 . S
C353 C357 1.393 . S
C354 H346 0.950 . S
C354 C352 1.391 . S
C354 C355 1.400 . S
C355 C354 1.400 . S
C355 C356 1.398 . S
C355 C361 1.491 . S
C356 H347 0.950 . S
C356 C355 1.398 . S
C356 C357 1.391 . S
C357 H345 0.950 . S
C357 C353 1.393 . S
C357 C356 1.391 . S
C358 H348 0.950 . S
C358 C359 1.386 . S
C358 C360 1.391 . S
C359 C358 1.386 . S
C359 C363 1.393 . S
C360 H349 0.950 . S
C360 C358 1.391 . S
C360 C361 1.400 . S
C361 C355 1.491 . S
C361 C360 1.400 . S
C361 C362 1.398 . S
C362 H350 0.950 . S
C362 C361 1.398 . S
C362 C363 1.391 . S
C363 H351 0.950 . S
C363 C359 1.393 . S
C363 C362 1.391 . S
H364 C372 0.950 . S
H365 C377 0.950 . S
H366 C374 0.950 . S
H367 C376 0.950 . S
H368 C378 0.950 . S
H369 C380 0.950 . S
H370 C382 0.950 . S
H371 C383 0.950 . S
C372 H364 0.950 . S
C372 C373 1.386 . S
C372 C374 1.391 . S
C373 C372 1.386 . S
C373 C377 1.393 . S
C374 H366 0.950 . S
C374 C372 1.391 . S
C374 C375 1.400 . S
C375 C374 1.400 . S
C375 C376 1.398 . S
C375 C381 1.491 . S
C376 H367 0.950 . S
C376 C375 1.398 . S
C376 C377 1.391 . S
C377 H365 0.950 . S
C377 C373 1.393 . S
C377 C376 1.391 . S
C378 H368 0.950 . S
C378 C379 1.386 . S
C378 C380 1.391 . S
C379 C378 1.386 . S
C379 C383 1.393 . S
C380 H369 0.950 . S
C380 C378 1.391 . S
C380 C381 1.400 . S
C381 C375 1.491 . S
C381 C380 1.400 . S
C381 C382 1.398 . S
C382 H370 0.950 . S
C382 C381 1.398 . S
C382 C383 1.391 . S
C383 H371 0.950 . S
C383 C379 1.393 . S
C383 C382 1.391 . S
H384 C392 0.950 . S
H385 C397 0.950 . S
H386 C394 0.950 . S
H387 C396 0.950 . S
H388 C398 0.950 . S
H389 C400 0.950 . S
H390 C402 0.950 . S
H391 C403 0.950 . S
C392 H384 0.950 . S
C392 C393 1.386 . S
C392 C394 1.391 . S
C393 C392 1.386 . S
C393 C397 1.393 . S
C394 H386 0.950 . S
C394 C392 1.391 . S
C394 C395 1.400 . S
C395 C394 1.400 . S
C395 C396 1.398 . S
C395 C401 1.491 . S
C396 H387 0.950 . S
C396 C395 1.398 . S
C396 C397 1.391 . S
C397 H385 0.950 . S
C397 C393 1.393 . S
C397 C396 1.391 . S
C398 H388 0.950 . S
C398 C399 1.386 . S
C398 C400 1.391 . S
C399 C398 1.386 . S
C399 C403 1.393 . S
C400 H389 0.950 . S
C400 C398 1.391 . S
C400 C401 1.400 . S
C401 C395 1.491 . S
C401 C400 1.400 . S
C401 C402 1.398 . S
C402 H390 0.950 . S
C402 C401 1.398 . S
C402 C403 1.391 . S
C403 H391 0.950 . S
C403 C399 1.393 . S
C403 C402 1.391 . S
H404 C412 0.950 . S
H405 C417 0.950 . S
H406 C414 0.950 . S
H407 C416 0.950 1_554 S
H408 C418 0.950 . S
H409 C420 0.950 . S
H410 C422 0.950 . S
H411 C423 0.950 . S
C412 H404 0.950 . S
C412 C413 1.386 . S
C412 C414 1.391 . S
C413 C412 1.386 . S
C413 C417 1.393 . S
C414 H406 0.950 . S
C414 C412 1.391 . S
C414 C415 1.400 . S
C415 C414 1.400 . S
C415 C416 1.398 . S
C415 C421 1.491 1_556 S
C416 H407 0.950 1_556 S
C416 C415 1.398 . S
C416 C417 1.391 . S
C417 H405 0.950 . S
C417 C413 1.393 . S
C417 C416 1.391 . S
C418 H408 0.950 . S
C418 C419 1.386 . S
C418 C420 1.391 . S
C419 C418 1.386 . S
C419 C423 1.393 . S
C420 H409 0.950 . S
C420 C418 1.391 . S
C420 C421 1.400 . S
C421 C415 1.491 1_554 S
C421 C420 1.400 . S
C421 C422 1.398 . S
C422 H410 0.950 . S
C422 C421 1.398 . S
C422 C423 1.391 . S
C423 H411 0.950 . S
C423 C419 1.393 . S
C423 C422 1.391 . S
H424 C432 0.950 . S
H425 C437 0.950 . S
H426 C434 0.950 . S
H427 C436 0.950 . S
H428 C438 0.950 . S
H429 C440 0.950 . S
H430 C442 0.950 . S
H431 C443 0.950 . S
C432 H424 0.950 . S
C432 C433 1.386 . S
C432 C434 1.391 . S
C433 C432 1.386 . S
C433 C437 1.393 . S
C434 H426 0.950 . S
C434 C432 1.391 . S
C434 C435 1.400 . S
C435 C434 1.400 . S
C435 C436 1.398 . S
C435 C441 1.491 . S
C436 H427 0.950 . S
C436 C435 1.398 . S
C436 C437 1.391 . S
C437 H425 0.950 . S
C437 C433 1.393 . S
C437 C436 1.391 . S
C438 H428 0.950 . S
C438 C439 1.386 . S
C438 C440 1.391 . S
C439 C438 1.386 . S
C439 C443 1.393 . S
C440 H429 0.950 . S
C440 C438 1.391 . S
C440 C441 1.400 . S
C441 C435 1.491 . S
C441 C440 1.400 . S
C441 C442 1.398 . S
C442 H430 0.950 . S
C442 C441 1.398 . S
C442 C443 1.391 . S
C443 H431 0.950 . S
C443 C439 1.393 . S
C443 C442 1.391 . S
H444 C452 0.950 . S
H445 C457 0.950 . S
H446 C454 0.950 . S
H447 C456 0.950 1_556 S
H448 C458 0.950 . S
H449 C460 0.950 . S
H450 C462 0.950 . S
H451 C463 0.951 . S
C452 H444 0.950 . S
C452 C453 1.386 . S
C452 C454 1.391 . S
C453 C452 1.386 . S
C453 C457 1.393 . S
C454 H446 0.950 . S
C454 C452 1.391 . S
C454 C455 1.400 . S
C455 C454 1.400 . S
C455 C456 1.398 . S
C455 C461 1.491 . S
C456 H447 0.950 1_554 S
C456 C455 1.398 . S
C456 C457 1.391 . S
C457 H445 0.950 . S
C457 C453 1.393 . S
C457 C456 1.391 . S
C458 H448 0.950 . S
C458 C459 1.386 . S
C458 C460 1.391 . S
C459 C458 1.386 . S
C459 C463 1.393 . S
C460 H449 0.950 . S
C460 C458 1.391 . S
C460 C461 1.400 1_556 S
C461 C455 1.491 . S
C461 C460 1.400 1_554 S
C461 C462 1.398 . S
C462 H450 0.950 . S
C462 C461 1.398 . S
C462 C463 1.391 1_554 S
C463 H451 0.951 . S
C463 C459 1.393 . S
C463 C462 1.391 1_556 S
H464 C472 0.950 . S
H465 C477 0.950 . S
H466 C474 0.950 . S
H467 C476 0.950 . S
H468 C478 0.950 . S
H469 C480 0.950 . S
H470 C482 0.950 . S
H471 C483 0.950 . S
C472 H464 0.950 . S
C472 C473 1.386 . S
C472 C474 1.391 . S
C473 C472 1.386 . S
C473 C477 1.393 . S
C474 H466 0.950 . S
C474 C472 1.391 . S
C474 C475 1.400 . S
C475 C474 1.400 . S
C475 C476 1.398 . S
C475 C481 1.491 . S
C476 H467 0.950 . S
C476 C475 1.398 . S
C476 C477 1.391 . S
C477 H465 0.950 . S
C477 C473 1.393 . S
C477 C476 1.391 . S
C478 H468 0.950 . S
C478 C479 1.386 . S
C478 C480 1.391 . S
C479 C478 1.386 . S
C479 C483 1.393 . S
C480 H469 0.950 . S
C480 C478 1.391 . S
C480 C481 1.400 . S
C481 C475 1.491 . S
C481 C480 1.400 . S
C481 C482 1.398 . S
C482 H470 0.950 . S
C482 C481 1.398 . S
C482 C483 1.391 . S
C483 H471 0.950 . S
C483 C479 1.393 . S
C483 C482 1.391 . S
H484 C492 0.950 . S
H485 C497 0.950 . S
H486 C494 0.950 . S
H487 C496 0.950 . S
H488 C498 0.950 . S
H489 C500 0.950 . S
H490 C502 0.950 . S
H491 C503 0.950 . S
C492 H484 0.950 . S
C492 C493 1.386 . S
C492 C494 1.391 . S
C493 C492 1.386 . S
C493 C497 1.393 . S
C494 H486 0.950 . S
C494 C492 1.391 . S
C494 C495 1.400 . S
C495 C494 1.400 . S
C495 C496 1.398 . S
C495 C501 1.491 . S
C496 H487 0.950 . S
C496 C495 1.398 . S
C496 C497 1.391 . S
C497 H485 0.950 . S
C497 C493 1.393 . S
C497 C496 1.391 . S
C498 H488 0.950 . S
C498 C499 1.386 . S
C498 C500 1.391 . S
C499 C498 1.386 . S
C499 C503 1.393 . S
C500 H489 0.950 . S
C500 C498 1.391 . S
C500 C501 1.400 . S
C501 C495 1.491 . S
C501 C500 1.400 . S
C501 C502 1.398 . S
C502 H490 0.950 . S
C502 C501 1.398 . S
C502 C503 1.391 . S
C503 H491 0.950 . S
C503 C499 1.393 . S
C503 C502 1.391 . S
H504 C512 0.950 . S
H505 C517 0.950 . S
H506 C514 0.950 . S
H507 C516 0.950 . S
H508 C518 0.950 . S
H509 C520 0.950 . S
H510 C522 0.950 . S
H511 C523 0.950 . S
C512 H504 0.950 . S
C512 C513 1.386 . S
C512 C514 1.391 . S
C513 C512 1.386 . S
C513 C517 1.393 . S
C514 H506 0.950 . S
C514 C512 1.391 . S
C514 C515 1.400 . S
C515 C514 1.400 . S
C515 C516 1.398 . S
C515 C521 1.491 . S
C516 H507 0.950 . S
C516 C515 1.398 . S
C516 C517 1.391 . S
C517 H505 0.950 . S
C517 C513 1.393 . S
C517 C516 1.391 . S
C518 H508 0.950 . S
C518 C519 1.386 . S
C518 C520 1.391 . S
C519 C518 1.386 . S
C519 C523 1.393 . S
C520 H509 0.950 . S
C520 C518 1.391 . S
C520 C521 1.400 . S
C521 C515 1.491 . S
C521 C520 1.400 . S
C521 C522 1.398 . S
C522 H510 0.950 . S
C522 C521 1.398 . S
C522 C523 1.391 . S
C523 H511 0.950 . S
C523 C519 1.393 . S
C523 C522 1.391 . S
H524 C532 0.950 1_556 S
H525 C537 0.950 . S
H526 C534 0.950 . S
H527 C536 0.950 . S
H528 C538 0.950 . S
H529 C540 0.950 . S
H530 C542 0.950 . S
H531 C543 0.950 . S
C532 H524 0.950 1_554 S
C532 C533 1.386 . S
C532 C534 1.391 . S
C533 C532 1.386 . S
C533 C537 1.393 . S
C534 H526 0.950 . S
C534 C532 1.391 . S
C534 C535 1.400 . S
C535 C534 1.400 . S
C535 C536 1.398 . S
C535 C541 1.491 . S
C536 H527 0.950 . S
C536 C535 1.398 . S
C536 C537 1.391 . S
C537 H525 0.950 . S
C537 C533 1.393 . S
C537 C536 1.391 . S
C538 H528 0.950 . S
C538 C539 1.386 . S
C538 C540 1.391 . S
C539 C538 1.386 . S
C539 C543 1.393 . S
C540 H529 0.950 . S
C540 C538 1.391 . S
C540 C541 1.400 . S
C541 C535 1.491 . S
C541 C540 1.400 . S
C541 C542 1.398 . S
C542 H530 0.950 . S
C542 C541 1.398 . S
C542 C543 1.391 . S
C543 H531 0.950 . S
C543 C539 1.393 . S
C543 C542 1.391 . S
H544 C552 0.950 . S
H545 C557 0.950 . S
H546 C554 0.950 . S
H547 C556 0.950 . S
H548 C558 0.950 . S
H549 C560 0.950 . S
H550 C562 0.950 . S
H551 C563 0.950 . S
C552 H544 0.950 . S
C552 C553 1.386 . S
C552 C554 1.391 . S
C553 C552 1.386 . S
C553 C557 1.393 . S
C554 H546 0.950 . S
C554 C552 1.391 . S
C554 C555 1.400 . S
C555 C554 1.400 . S
C555 C556 1.398 . S
C555 C561 1.491 . S
C556 H547 0.950 . S
C556 C555 1.398 . S
C556 C557 1.391 . S
C557 H545 0.950 . S
C557 C553 1.393 . S
C557 C556 1.391 . S
C558 H548 0.950 . S
C558 C559 1.386 . S
C558 C560 1.391 . S
C559 C558 1.386 . S
C559 C563 1.393 . S
C560 H549 0.950 . S
C560 C558 1.391 . S
C560 C561 1.400 . S
C561 C555 1.491 . S
C561 C560 1.400 . S
C561 C562 1.398 . S
C562 H550 0.950 . S
C562 C561 1.398 . S
C562 C563 1.391 . S
C563 H551 0.950 . S
C563 C559 1.393 . S
C563 C562 1.391 . S
H564 C572 0.950 . S
H565 C577 0.950 . S
H566 C574 0.950 . S
H567 C576 0.950 . S
H568 C578 0.950 . S
H569 C580 0.950 . S
H570 C582 0.950 . S
H571 C583 0.950 . S
C572 H564 0.950 . S
C572 C573 1.386 . S
C572 C574 1.391 . S
C573 C572 1.386 . S
C573 C577 1.393 . S
C574 H566 0.950 . S
C574 C572 1.391 . S
C574 C575 1.400 . S
C575 C574 1.400 . S
C575 C576 1.398 . S
C575 C581 1.491 . S
C576 H567 0.950 . S
C576 C575 1.398 . S
C576 C577 1.391 . S
C577 H565 0.950 . S
C577 C573 1.393 . S
C577 C576 1.391 . S
C578 H568 0.950 . S
C578 C579 1.386 . S
C578 C580 1.391 . S
C579 C578 1.386 . S
C579 C583 1.393 . S
C580 H569 0.950 . S
C580 C578 1.391 . S
C580 C581 1.400 . S
C581 C575 1.491 . S
C581 C580 1.400 . S
C581 C582 1.398 . S
C582 H570 0.950 . S
C582 C581 1.398 . S
C582 C583 1.391 . S
C583 H571 0.950 . S
C583 C579 1.393 . S
C583 C582 1.391 . S
H584 C592 0.950 . S
H585 C597 0.950 . S
H586 C594 0.950 . S
H587 C596 0.950 . S
H588 C598 0.950 . S
H589 C600 0.950 . S
H590 C602 0.950 . S
H591 C603 0.950 . S
C592 H584 0.950 . S
C592 C593 1.386 . S
C592 C594 1.391 . S
C593 C592 1.386 . S
C593 C597 1.393 . S
C594 H586 0.950 . S
C594 C592 1.391 . S
C594 C595 1.400 . S
C595 C594 1.400 . S
C595 C596 1.398 . S
C595 C601 1.491 . S
C596 H587 0.950 . S
C596 C595 1.398 . S
C596 C597 1.391 . S
C597 H585 0.950 . S
C597 C593 1.393 . S
C597 C596 1.391 . S
C598 H588 0.950 . S
C598 C599 1.386 . S
C598 C600 1.391 . S
C599 C598 1.386 . S
C599 C603 1.393 1_554 S
C600 H589 0.950 . S
C600 C598 1.391 . S
C600 C601 1.400 1_554 S
C601 C595 1.491 . S
C601 C600 1.400 1_556 S
C601 C602 1.398 . S
C602 H590 0.950 . S
C602 C601 1.398 . S
C602 C603 1.391 . S
C603 H591 0.950 . S
C603 C599 1.393 1_556 S
C603 C602 1.391 . S
H604 C612 0.950 . S
H605 C617 0.950 1_455 S
H606 C614 0.950 . S
H607 C616 0.950 . S
H608 C618 0.950 . S
H609 C620 0.950 . S
H610 C622 0.950 . S
H611 C623 0.950 . S
C612 H604 0.950 . S
C612 C613 1.386 . S
C612 C614 1.391 . S
C613 C612 1.386 . S
C613 C617 1.393 . S
C614 H606 0.950 . S
C614 C612 1.391 . S
C614 C615 1.400 . S
C615 C614 1.400 . S
C615 C616 1.398 . S
C615 C621 1.491 . S
C616 H607 0.950 . S
C616 C615 1.398 . S
C616 C617 1.391 . S
C617 H605 0.950 1_655 S
C617 C613 1.393 . S
C617 C616 1.391 . S
C618 H608 0.950 . S
C618 C619 1.386 . S
C618 C620 1.391 . S
C619 C618 1.386 . S
C619 C623 1.393 . S
C620 H609 0.950 . S
C620 C618 1.391 . S
C620 C621 1.400 . S
C621 C615 1.491 . S
C621 C620 1.400 . S
C621 C622 1.398 . S
C622 H610 0.950 . S
C622 C621 1.398 . S
C622 C623 1.391 . S
C623 H611 0.950 . S
C623 C619 1.393 . S
C623 C622 1.391 . S
H624 C632 0.950 . S
H625 C637 0.950 . S
H626 C634 0.950 . S
H627 C636 0.950 . S
H628 C638 0.950 . S
H629 C640 0.950 . S
H630 C642 0.950 . S
H631 C643 0.950 . S
C632 H624 0.950 . S
C632 C633 1.386 . S
C632 C634 1.391 . S
C633 C632 1.386 . S
C633 C637 1.393 . S
C634 H626 0.950 . S
C634 C632 1.391 . S
C634 C635 1.400 . S
C635 C634 1.400 . S
C635 C636 1.398 . S
C635 C641 1.491 . S
C636 H627 0.950 . S
C636 C635 1.398 . S
C636 C637 1.391 . S
C637 H625 0.950 . S
C637 C633 1.393 . S
C637 C636 1.391 . S
C638 H628 0.950 . S
C638 C639 1.386 . S
C638 C640 1.391 . S
C639 C638 1.386 . S
C639 C643 1.393 . S
C640 H629 0.950 . S
C640 C638 1.391 . S
C640 C641 1.400 . S
C641 C635 1.491 . S
C641 C640 1.400 . S
C641 C642 1.398 . S
C642 H630 0.950 . S
C642 C641 1.398 . S
C642 C643 1.391 . S
C643 H631 0.950 . S
C643 C639 1.393 . S
C643 C642 1.391 . S
H644 C652 0.950 . S
H645 C657 0.950 . S
H646 C654 0.950 . S
H647 C656 0.950 . S
H648 C658 0.950 . S
H649 C660 0.950 . S
H650 C662 0.950 . S
H651 C663 0.950 . S
C652 H644 0.950 . S
C652 C653 1.386 . S
C652 C654 1.391 . S
C653 C652 1.386 . S
C653 C657 1.393 . S
C654 H646 0.950 . S
C654 C652 1.391 . S
C654 C655 1.400 . S
C655 C654 1.400 . S
C655 C656 1.398 . S
C655 C661 1.491 . S
C656 H647 0.950 . S
C656 C655 1.398 . S
C656 C657 1.391 . S
C657 H645 0.950 . S
C657 C653 1.393 . S
C657 C656 1.391 . S
C658 H648 0.950 . S
C658 C659 1.386 . S
C658 C660 1.391 . S
C659 C658 1.386 . S
C659 C663 1.393 . S
C660 H649 0.950 . S
C660 C658 1.391 . S
C660 C661 1.400 . S
C661 C655 1.491 . S
C661 C660 1.400 . S
C661 C662 1.398 . S
C662 H650 0.950 . S
C662 C661 1.398 . S
C662 C663 1.391 . S
C663 H651 0.950 . S
C663 C659 1.393 . S
C663 C662 1.391 . S
C273 N170 1.275 . S
C279 N5 1.270 . S
C293 N203 1.314 . S
C299 N38 1.318 . S
C313 N71 1.287 . S
C319 N236 1.293 . S
C333 N137 1.312 . S
C339 N104 1.304 . S
C353 C248 0.840 . S
C359 C17 0.845 . S
C373 C50 0.828 . S
C379 C149 0.852 . S
C393 C182 0.839 . S
C399 C83 0.834 . S
C413 C116 0.827 . S
C419 C215 0.850 . S
C433 C239 1.555 . S
C439 C8 1.556 . S
C453 C41 1.573 . S
C459 C140 1.572 . S
C473 C173 1.568 . S
C479 C74 1.566 . S
C493 C206 1.577 . S
C499 C107 1.577 . S
C513 N14 1.763 . S
C519 C127 1.776 1_565 S
C533 C28 1.766 . S
C539 N47 1.773 . S
C553 C61 1.767 1_545 S
C559 N80 1.758 . S
C573 C94 1.770 . S
C579 N113 1.758 . S
C593 N146 1.758 . S
C599 C193 1.767 . S
C613 C226 1.775 1_655 S
C619 N179 1.772 . S
C633 C259 1.774 . S
C639 N212 1.772 . S
C653 N245 1.773 . S
C659 C160 1.773 1_455 S
