# Generated by pormake.
# Topology vcc, (6)-cn, num edge types: 1
# Building blocks:
#     Node 0, Type 0, BuildingBlock: BETDEL_clean_sbu_0, # of connection points: 6
#     Node 1, Type 0, BuildingBlock: BETDEL_clean_sbu_0, # of connection points: 6
#     Node 2, Type 0, BuildingBlock: BETDEL_clean_sbu_0, # of connection points: 6
#     Node 3, Type 0, BuildingBlock: BETDEL_clean_sbu_0, # of connection points: 6
#     Node 4, Type 0, BuildingBlock: BETDEL_clean_sbu_0, # of connection points: 6
#     Node 5, Type 0, BuildingBlock: BETDEL_clean_sbu_0, # of connection points: 6
#     Node 6, Type 0, BuildingBlock: BETDEL_clean_sbu_0, # of connection points: 6
#     Node 7, Type 0, BuildingBlock: BETDEL_clean_sbu_0, # of connection points: 6
#     Node 8, Type 0, BuildingBlock: BETDEL_clean_sbu_0, # of connection points: 6
#     Node 9, Type 0, BuildingBlock: BETDEL_clean_sbu_0, # of connection points: 6
#     Node 10, Type 0, BuildingBlock: BETDEL_clean_sbu_0, # of connection points: 6
#     Node 11, Type 0, BuildingBlock: BETDEL_clean_sbu_0, # of connection points: 6
#     Node 12, Type 0, BuildingBlock: BETDEL_clean_sbu_0, # of connection points: 6
#     Node 13, Type 0, BuildingBlock: BETDEL_clean_sbu_0, # of connection points: 6
#     Node 14, Type 0, BuildingBlock: BETDEL_clean_sbu_0, # of connection points: 6
#     Node 15, Type 0, BuildingBlock: BETDEL_clean_sbu_0, # of connection points: 6
#     Node 16, Type 0, BuildingBlock: BETDEL_clean_sbu_0, # of connection points: 6
#     Node 17, Type 0, BuildingBlock: BETDEL_clean_sbu_0, # of connection points: 6
#     Node 18, Type 0, BuildingBlock: BETDEL_clean_sbu_0, # of connection points: 6
#     Node 19, Type 0, BuildingBlock: BETDEL_clean_sbu_0, # of connection points: 6
#     Node 20, Type 0, BuildingBlock: BETDEL_clean_sbu_0, # of connection points: 6
#     Node 21, Type 0, BuildingBlock: BETDEL_clean_sbu_0, # of connection points: 6
#     Node 22, Type 0, BuildingBlock: BETDEL_clean_sbu_0, # of connection points: 6
#     Node 23, Type 0, BuildingBlock: BETDEL_clean_sbu_0, # of connection points: 6
#     Node 24, Type 0, BuildingBlock: BETDEL_clean_sbu_0, # of connection points: 6
#     Node 25, Type 0, BuildingBlock: BETDEL_clean_sbu_0, # of connection points: 6
#     Node 26, Type 0, BuildingBlock: BETDEL_clean_sbu_0, # of connection points: 6
#     Node 27, Type 0, BuildingBlock: BETDEL_clean_sbu_0, # of connection points: 6
#     Node 28, Type 0, BuildingBlock: BETDEL_clean_sbu_0, # of connection points: 6
#     Node 29, Type 0, BuildingBlock: BETDEL_clean_sbu_0, # of connection points: 6
#     Node 30, Type 0, BuildingBlock: BETDEL_clean_sbu_0, # of connection points: 6
#     Node 31, Type 0, BuildingBlock: BETDEL_clean_sbu_0, # of connection points: 6
#     Edge 32, Type (0, 0), BuildingBlock: XIVTED_clean_linker_0, # of connection points: 2
#     Edge 33, Type (0, 0), BuildingBlock: XIVTED_clean_linker_0, # of connection points: 2
#     Edge 34, Type (0, 0), BuildingBlock: XIVTED_clean_linker_0, # of connection points: 2
#     Edge 35, Type (0, 0), BuildingBlock: XIVTED_clean_linker_0, # of connection points: 2
#     Edge 36, Type (0, 0), BuildingBlock: XIVTED_clean_linker_0, # of connection points: 2
#     Edge 37, Type (0, 0), BuildingBlock: XIVTED_clean_linker_0, # of connection points: 2
#     Edge 38, Type (0, 0), BuildingBlock: XIVTED_clean_linker_0, # of connection points: 2
#     Edge 39, Type (0, 0), BuildingBlock: XIVTED_clean_linker_0, # of connection points: 2
#     Edge 40, Type (0, 0), BuildingBlock: XIVTED_clean_linker_0, # of connection points: 2
#     Edge 41, Type (0, 0), BuildingBlock: XIVTED_clean_linker_0, # of connection points: 2
#     Edge 42, Type (0, 0), BuildingBlock: XIVTED_clean_linker_0, # of connection points: 2
#     Edge 43, Type (0, 0), BuildingBlock: XIVTED_clean_linker_0, # of connection points: 2
#     Edge 44, Type (0, 0), BuildingBlock: XIVTED_clean_linker_0, # of connection points: 2
#     Edge 45, Type (0, 0), BuildingBlock: XIVTED_clean_linker_0, # of connection points: 2
#     Edge 46, Type (0, 0), BuildingBlock: XIVTED_clean_linker_0, # of connection points: 2
#     Edge 47, Type (0, 0), BuildingBlock: XIVTED_clean_linker_0, # of connection points: 2
#     Edge 48, Type (0, 0), BuildingBlock: XIVTED_clean_linker_0, # of connection points: 2
#     Edge 49, Type (0, 0), BuildingBlock: XIVTED_clean_linker_0, # of connection points: 2
#     Edge 50, Type (0, 0), BuildingBlock: XIVTED_clean_linker_0, # of connection points: 2
#     Edge 51, Type (0, 0), BuildingBlock: XIVTED_clean_linker_0, # of connection points: 2
#     Edge 52, Type (0, 0), BuildingBlock: XIVTED_clean_linker_0, # of connection points: 2
#     Edge 53, Type (0, 0), BuildingBlock: XIVTED_clean_linker_0, # of connection points: 2
#     Edge 54, Type (0, 0), BuildingBlock: XIVTED_clean_linker_0, # of connection points: 2
#     Edge 55, Type (0, 0), BuildingBlock: XIVTED_clean_linker_0, # of connection points: 2
#     Edge 56, Type (0, 0), BuildingBlock: XIVTED_clean_linker_0, # of connection points: 2
#     Edge 57, Type (0, 0), BuildingBlock: XIVTED_clean_linker_0, # of connection points: 2
#     Edge 58, Type (0, 0), BuildingBlock: XIVTED_clean_linker_0, # of connection points: 2
#     Edge 59, Type (0, 0), BuildingBlock: XIVTED_clean_linker_0, # of connection points: 2
#     Edge 60, Type (0, 0), BuildingBlock: XIVTED_clean_linker_0, # of connection points: 2
#     Edge 61, Type (0, 0), BuildingBlock: XIVTED_clean_linker_0, # of connection points: 2
#     Edge 62, Type (0, 0), BuildingBlock: XIVTED_clean_linker_0, # of connection points: 2
#     Edge 63, Type (0, 0), BuildingBlock: XIVTED_clean_linker_0, # of connection points: 2
#     Edge 64, Type (0, 0), BuildingBlock: XIVTED_clean_linker_0, # of connection points: 2
#     Edge 65, Type (0, 0), BuildingBlock: XIVTED_clean_linker_0, # of connection points: 2
#     Edge 66, Type (0, 0), BuildingBlock: XIVTED_clean_linker_0, # of connection points: 2
#     Edge 67, Type (0, 0), BuildingBlock: XIVTED_clean_linker_0, # of connection points: 2
#     Edge 68, Type (0, 0), BuildingBlock: XIVTED_clean_linker_0, # of connection points: 2
#     Edge 69, Type (0, 0), BuildingBlock: XIVTED_clean_linker_0, # of connection points: 2
#     Edge 70, Type (0, 0), BuildingBlock: XIVTED_clean_linker_0, # of connection points: 2
#     Edge 71, Type (0, 0), BuildingBlock: XIVTED_clean_linker_0, # of connection points: 2
#     Edge 72, Type (0, 0), BuildingBlock: XIVTED_clean_linker_0, # of connection points: 2
#     Edge 73, Type (0, 0), BuildingBlock: XIVTED_clean_linker_0, # of connection points: 2
#     Edge 74, Type (0, 0), BuildingBlock: XIVTED_clean_linker_0, # of connection points: 2
#     Edge 75, Type (0, 0), BuildingBlock: XIVTED_clean_linker_0, # of connection points: 2
#     Edge 76, Type (0, 0), BuildingBlock: XIVTED_clean_linker_0, # of connection points: 2
#     Edge 77, Type (0, 0), BuildingBlock: XIVTED_clean_linker_0, # of connection points: 2
#     Edge 78, Type (0, 0), BuildingBlock: XIVTED_clean_linker_0, # of connection points: 2
#     Edge 79, Type (0, 0), BuildingBlock: XIVTED_clean_linker_0, # of connection points: 2
#     Edge 80, Type (0, 0), BuildingBlock: XIVTED_clean_linker_0, # of connection points: 2
#     Edge 81, Type (0, 0), BuildingBlock: XIVTED_clean_linker_0, # of connection points: 2
#     Edge 82, Type (0, 0), BuildingBlock: XIVTED_clean_linker_0, # of connection points: 2
#     Edge 83, Type (0, 0), BuildingBlock: XIVTED_clean_linker_0, # of connection points: 2
#     Edge 84, Type (0, 0), BuildingBlock: XIVTED_clean_linker_0, # of connection points: 2
#     Edge 85, Type (0, 0), BuildingBlock: XIVTED_clean_linker_0, # of connection points: 2
#     Edge 86, Type (0, 0), BuildingBlock: XIVTED_clean_linker_0, # of connection points: 2
#     Edge 87, Type (0, 0), BuildingBlock: XIVTED_clean_linker_0, # of connection points: 2
#     Edge 88, Type (0, 0), BuildingBlock: XIVTED_clean_linker_0, # of connection points: 2
#     Edge 89, Type (0, 0), BuildingBlock: XIVTED_clean_linker_0, # of connection points: 2
#     Edge 90, Type (0, 0), BuildingBlock: XIVTED_clean_linker_0, # of connection points: 2
#     Edge 91, Type (0, 0), BuildingBlock: XIVTED_clean_linker_0, # of connection points: 2
#     Edge 92, Type (0, 0), BuildingBlock: XIVTED_clean_linker_0, # of connection points: 2
#     Edge 93, Type (0, 0), BuildingBlock: XIVTED_clean_linker_0, # of connection points: 2
#     Edge 94, Type (0, 0), BuildingBlock: XIVTED_clean_linker_0, # of connection points: 2
#     Edge 95, Type (0, 0), BuildingBlock: XIVTED_clean_linker_0, # of connection points: 2
#     Edge 96, Type (0, 0), BuildingBlock: XIVTED_clean_linker_0, # of connection points: 2
#     Edge 97, Type (0, 0), BuildingBlock: XIVTED_clean_linker_0, # of connection points: 2
#     Edge 98, Type (0, 0), BuildingBlock: XIVTED_clean_linker_0, # of connection points: 2
#     Edge 99, Type (0, 0), BuildingBlock: XIVTED_clean_linker_0, # of connection points: 2
#     Edge 100, Type (0, 0), BuildingBlock: XIVTED_clean_linker_0, # of connection points: 2
#     Edge 101, Type (0, 0), BuildingBlock: XIVTED_clean_linker_0, # of connection points: 2
#     Edge 102, Type (0, 0), BuildingBlock: XIVTED_clean_linker_0, # of connection points: 2
#     Edge 103, Type (0, 0), BuildingBlock: XIVTED_clean_linker_0, # of connection points: 2
#     Edge 104, Type (0, 0), BuildingBlock: XIVTED_clean_linker_0, # of connection points: 2
#     Edge 105, Type (0, 0), BuildingBlock: XIVTED_clean_linker_0, # of connection points: 2
#     Edge 106, Type (0, 0), BuildingBlock: XIVTED_clean_linker_0, # of connection points: 2
#     Edge 107, Type (0, 0), BuildingBlock: XIVTED_clean_linker_0, # of connection points: 2
#     Edge 108, Type (0, 0), BuildingBlock: XIVTED_clean_linker_0, # of connection points: 2
#     Edge 109, Type (0, 0), BuildingBlock: XIVTED_clean_linker_0, # of connection points: 2
#     Edge 110, Type (0, 0), BuildingBlock: XIVTED_clean_linker_0, # of connection points: 2
#     Edge 111, Type (0, 0), BuildingBlock: XIVTED_clean_linker_0, # of connection points: 2
#     Edge 112, Type (0, 0), BuildingBlock: XIVTED_clean_linker_0, # of connection points: 2
#     Edge 113, Type (0, 0), BuildingBlock: XIVTED_clean_linker_0, # of connection points: 2
#     Edge 114, Type (0, 0), BuildingBlock: XIVTED_clean_linker_0, # of connection points: 2
#     Edge 115, Type (0, 0), BuildingBlock: XIVTED_clean_linker_0, # of connection points: 2
#     Edge 116, Type (0, 0), BuildingBlock: XIVTED_clean_linker_0, # of connection points: 2
#     Edge 117, Type (0, 0), BuildingBlock: XIVTED_clean_linker_0, # of connection points: 2
#     Edge 118, Type (0, 0), BuildingBlock: XIVTED_clean_linker_0, # of connection points: 2
#     Edge 119, Type (0, 0), BuildingBlock: XIVTED_clean_linker_0, # of connection points: 2
#     Edge 120, Type (0, 0), BuildingBlock: XIVTED_clean_linker_0, # of connection points: 2
#     Edge 121, Type (0, 0), BuildingBlock: XIVTED_clean_linker_0, # of connection points: 2
#     Edge 122, Type (0, 0), BuildingBlock: XIVTED_clean_linker_0, # of connection points: 2
#     Edge 123, Type (0, 0), BuildingBlock: XIVTED_clean_linker_0, # of connection points: 2
#     Edge 124, Type (0, 0), BuildingBlock: XIVTED_clean_linker_0, # of connection points: 2
#     Edge 125, Type (0, 0), BuildingBlock: XIVTED_clean_linker_0, # of connection points: 2
#     Edge 126, Type (0, 0), BuildingBlock: XIVTED_clean_linker_0, # of connection points: 2
#     Edge 127, Type (0, 0), BuildingBlock: XIVTED_clean_linker_0, # of connection points: 2
# Relax obj value: 0.072
# Max RMSD: 0.129
# Mean RMSD: 0.129
data_MOF--net-vcc--node1-BETDEL_clean_sbu_0--edge1-XIVTED_clean_linker_0
_symmetry_space_group_name_H-M    P1
_symmetry_Int_Tables_number       1
_symmetry_cell_setting            triclinic
loop_
_symmetry_equiv_pos_as_xyz
'x, y, z'
_cell_length_a     41.064559
_cell_length_b     54.862767
_cell_length_c     45.152369
_cell_angle_alpha  90.02469
_cell_angle_beta   90.033021
_cell_angle_gamma 89.992832
loop_
_atom_site_label
_atom_site_type_symbol
_atom_site_fract_x
_atom_site_fract_y
_atom_site_fract_z
_atom_type_partial_charge
Dy0 Dy 0.34543 0.03464 0.05157 0.0
C1 C 0.2588 0.04139 0.15445 0.0
C2 C 0.36981 0.02942 0.99548 0.0
Dy3 Dy 0.28949 0.03287 0.10185 0.0
O4 O 0.36806 0.04978 1.01015 0.0
O5 O 0.36075 1.01155 0.01257 0.0
O6 O 0.3673 0.06702 0.07346 0.0
O7 O 0.31645 0.06109 0.0772 0.0
C8 C 0.3402 0.07415 0.08585 0.0
C9 C 0.30381 0.98827 0.07911 0.0
O10 O 0.25868 0.04617 0.06429 0.0
O11 O 0.2984 0.04083 0.02771 0.0
O12 O 0.24674 0.02862 0.1327 0.0
O13 O 0.28661 0.05069 0.14655 0.0
O14 O 0.28166 0.99155 0.09926 0.0
O15 O 0.31447 1.00892 0.07264 0.0
O16 O 0.37427 1.01757 0.08818 0.0
O17 O 0.33692 0.02767 0.12548 0.0
C18 C 0.26829 0.0461 0.03616 0.0
C19 C 0.36561 1.0192 0.11654 0.0
Dy20 Dy 0.86754 0.27278 0.05402 0.0
C21 C 0.95726 0.2623 0.15192 0.0
C22 C 0.84153 0.279 0.99851 0.0
Dy23 Dy 0.92017 0.27154 0.10309 0.0
O24 O 0.84375 0.2585 0.01268 0.0
O25 O 0.85107 0.29657 0.01585 0.0
O26 O 0.84351 0.24007 0.07401 0.0
O27 O 0.89451 0.24388 0.07727 0.0
C28 C 0.8703 0.23104 0.08491 0.0
C29 C 0.89907 0.31643 0.08839 0.0
O30 O 0.95305 0.26202 0.0652 0.0
O31 O 0.9128 0.26431 0.02895 0.0
O32 O 0.96418 0.27843 0.13169 0.0
O33 O 0.93141 0.25017 0.14415 0.0
O34 O 0.90944 0.31051 0.11447 0.0
O35 O 0.90317 0.29869 0.07095 0.0
O36 O 0.83882 0.28838 0.09172 0.0
O37 O 0.87254 0.27027 0.12667 0.0
C38 C 0.94328 0.26054 0.03721 0.0
C39 C 0.84565 0.28221 0.1195 0.0
Dy40 Dy 0.34498 0.27808 0.21948 0.0
C41 C 0.25754 0.26792 0.11791 0.0
C42 C 0.37014 0.28447 0.27511 0.0
Dy43 Dy 0.28808 0.27856 0.16995 0.0
O44 O 0.37001 0.26409 0.26038 0.0
O45 O 0.35896 0.30182 0.25829 0.0
O46 O 0.3669 0.24543 0.19798 0.0
O47 O 0.31603 0.25113 0.19482 0.0
C48 C 0.33964 0.23801 0.18611 0.0
C49 C 0.30164 0.32359 0.19184 0.0
O50 O 0.25856 0.26457 0.20796 0.0
O51 O 0.29867 0.27074 0.24404 0.0
O52 O 0.24499 0.28102 0.13915 0.0
O53 O 0.28584 0.25962 0.12599 0.0
O54 O 0.27909 0.31979 0.17213 0.0
O55 O 0.31298 0.30314 0.19842 0.0
O56 O 0.37281 0.29503 0.18223 0.0
O57 O 0.33493 0.28428 0.1456 0.0
C58 C 0.26867 0.26473 0.23596 0.0
C59 C 0.36364 0.29305 0.15403 0.0
Dy60 Dy 0.86211 0.02785 0.2201 0.0
C61 C 0.94882 0.03465 0.11737 0.0
C62 C 0.8377 1.0227 0.27616 0.0
Dy63 Dy 0.91809 1.02598 0.1699 0.0
O64 O 0.84057 0.04317 0.26188 0.0
O65 O 0.84562 1.00477 0.25867 0.0
O66 O 0.84006 0.06013 0.19803 0.0
O67 O 0.8909 0.05423 0.19428 0.0
C68 C 0.86712 0.06722 0.18553 0.0
C69 C 0.90406 0.9814 0.19284 0.0
O70 O 0.94863 0.03979 0.20743 0.0
O71 O 0.90911 0.03391 0.24402 0.0
O72 O 0.96114 1.02221 0.13928 0.0
O73 O 0.92067 0.0435 0.12504 0.0
O74 O 0.92624 0.98471 0.17271 0.0
O75 O 0.89324 1.00204 0.19924 0.0
O76 O 0.83321 1.01079 0.18361 0.0
O77 O 0.87071 1.0205 0.14626 0.0
C78 C 0.93907 0.03958 0.23558 0.0
C79 C 0.84193 1.01226 0.15525 0.0
Dy80 Dy 0.66869 0.02627 0.91957 0.0
C81 C 0.58737 0.03057 0.02529 0.0
C82 C 0.69966 1.01648 0.86753 0.0
Dy83 Dy 0.61225 1.025 0.96946 0.0
O84 O 0.71193 0.02936 0.88911 0.0
O85 O 0.67139 1.00791 0.87526 0.0
O86 O 0.67683 0.0676 0.92192 0.0
O87 O 0.6439 0.05046 0.94866 0.0
C88 C 0.6546 0.07107 0.94198 0.0
C89 C 0.6178 0.98524 0.93545 0.0
O90 O 0.58393 0.04207 0.93253 0.0
O91 O 0.62161 0.03181 0.89553 0.0
O92 O 0.5899 1.01004 1.01107 0.0
O93 O 0.59591 0.04835 1.00786 0.0
O94 O 0.59055 0.99241 0.94757 0.0
O95 O 0.64128 0.99844 0.94428 0.0
O96 O 0.69873 1.01245 0.95731 0.0
O97 O 0.65913 1.01894 0.9937 0.0
C98 C 0.59295 0.04046 0.90425 0.0
C99 C 0.68907 1.01295 0.98541 0.0
Dy100 Dy 0.0407 0.77351 0.92032 0.0
C101 C 0.12206 0.76932 0.02608 0.0
C102 C 0.00952 0.78299 0.86823 0.0
Dy103 Dy 0.09721 0.77479 0.97019 0.0
O104 O -0.00265 0.77024 0.88993 0.0
O105 O 0.03779 0.79165 0.87587 0.0
O106 O 0.03251 0.7322 0.92266 0.0
O107 O 0.06565 0.7493 0.94928 0.0
C108 C 0.05482 0.72871 0.94264 0.0
C109 C 0.09176 0.81451 0.93618 0.0
O110 O 0.12573 0.75809 0.93319 0.0
O111 O 0.08781 0.76812 0.89626 0.0
O112 O 0.11937 0.78984 0.01187 0.0
O113 O 0.11374 0.75149 1.00859 0.0
O114 O 0.11897 0.8073 0.94836 0.0
O115 O 0.06818 0.8014 0.945 0.0
O116 O 0.01067 0.78722 0.9582 0.0
O117 O 0.05044 0.78079 0.99447 0.0
C118 C 0.11669 0.75981 0.90493 0.0
C119 C 0.02046 0.78672 0.98628 0.0
Dy120 Dy 0.66835 0.78002 0.85183 0.0
C121 C 0.58755 0.7758 0.7458 0.0
C122 C 0.69946 0.7892 0.90402 0.0
Dy123 Dy 0.61236 0.78127 0.80169 0.0
O124 O 0.7117 0.77669 0.88214 0.0
O125 O 0.67113 0.79783 0.8965 0.0
O126 O 0.6767 0.73876 0.84964 0.0
O127 O 0.64364 0.75568 0.82277 0.0
C128 C 0.65454 0.73514 0.82954 0.0
C129 C 0.61742 0.821 0.83577 0.0
O130 O 0.58375 0.76425 0.8384 0.0
O131 O 0.62108 0.77474 0.8756 0.0
O132 O 0.58913 0.79619 0.76043 0.0
O133 O 0.59704 0.75802 0.76284 0.0
O134 O 0.59031 0.81367 0.82355 0.0
O135 O 0.64113 0.80797 0.82703 0.0
O136 O 0.69875 0.79364 0.81424 0.0
O137 O 0.65923 0.78761 0.77764 0.0
C138 C 0.59245 0.76611 0.86674 0.0
C139 C 0.68922 0.7933 0.78609 0.0
Dy140 Dy 0.03928 1.01966 0.85174 0.0
C141 C 0.12054 1.02373 0.74598 0.0
C142 C 0.00805 1.01061 0.90392 0.0
Dy143 Dy 0.09596 1.01819 0.802 0.0
O144 O -0.00404 1.02326 0.88207 0.0
O145 O 0.03623 1.00176 0.89635 0.0
O146 O 0.03156 0.06102 0.84943 0.0
O147 O 0.06434 0.04373 0.8227 0.0
C148 C 0.05385 0.0644 0.82942 0.0
C149 C 0.09027 0.97852 0.8361 0.0
O150 O 0.12404 0.03545 0.83903 0.0
O151 O 0.08636 1.0249 0.87586 0.0
O152 O 0.11931 1.00336 0.76068 0.0
O153 O 0.1109 0.04145 0.76304 0.0
O154 O 0.11754 0.98566 0.82401 0.0
O155 O 0.06678 0.9917 0.8272 0.0
O156 O 0.00918 1.00599 0.8139 0.0
O157 O 0.04927 1.01153 0.77771 0.0
C158 C 0.11495 0.03375 0.86729 0.0
C159 C 0.01915 1.006 0.78588 0.0
Dy160 Dy 0.34546 0.53398 0.55135 0.0
C161 C 0.25871 0.54013 0.65414 0.0
C162 C 0.36974 0.529 0.49519 0.0
Dy163 Dy 0.28951 0.53184 0.60152 0.0
O164 O 0.36788 0.54932 0.50994 0.0
O165 O 0.36092 0.51106 0.51226 0.0
O166 O 0.367 0.56647 0.57331 0.0
O167 O 0.31623 0.56027 0.57701 0.0
C168 C 0.33984 0.57347 0.58569 0.0
C169 C 0.30415 0.48731 0.57871 0.0
O170 O 0.25866 0.54514 0.56399 0.0
O171 O 0.29842 0.53991 0.52744 0.0
O172 O 0.24671 0.52744 0.63229 0.0
O173 O 0.28653 0.54947 0.64634 0.0
O174 O 0.2819 0.49051 0.5988 0.0
O175 O 0.31473 0.50801 0.5723 0.0
O176 O 0.37442 0.51689 0.58784 0.0
O177 O 0.33694 0.52674 0.62514 0.0
C178 C 0.26829 0.5451 0.53586 0.0
C179 C 0.36566 0.51837 0.61619 0.0
Dy180 Dy 0.86226 0.77047 0.55175 0.0
C181 C 0.94859 0.76264 0.65461 0.0
C182 C 0.8379 0.77593 0.49566 0.0
Dy183 Dy 0.91793 0.77195 0.6022 0.0
O184 O 0.83907 0.75558 0.5104 0.0
O185 O 0.84758 0.79367 0.51267 0.0
O186 O 0.84003 0.73815 0.57355 0.0
O187 O 0.89088 0.74385 0.57743 0.0
C188 C 0.86704 0.73086 0.58599 0.0
C189 C 0.9041 0.81673 0.57962 0.0
O190 O 0.94859 0.75817 0.56482 0.0
O191 O 0.90924 0.76383 0.52799 0.0
O192 O 0.96101 0.77524 0.6329 0.0
O193 O 0.92033 0.75406 0.64684 0.0
O194 O 0.92615 0.81325 0.59986 0.0
O195 O 0.89335 0.79613 0.57292 0.0
O196 O 0.8335 0.78778 0.5882 0.0
O197 O 0.87052 0.77741 0.62568 0.0
C198 C 0.93919 0.75823 0.53663 0.0
C199 C 0.84202 0.78612 0.6166 0.0
Dy200 Dy 0.34762 0.77706 0.72037 0.0
C201 C 0.26046 0.76755 0.61844 0.0
C202 C 0.37242 0.78338 0.77615 0.0
Dy203 Dy 0.29097 0.77787 0.67061 0.0
O204 O 0.37184 0.76291 0.7616 0.0
O205 O 0.36193 0.8008 0.75908 0.0
O206 O 0.36966 0.74457 0.6987 0.0
O207 O 0.31878 0.75023 0.69535 0.0
C208 C 0.34248 0.73719 0.68663 0.0
C209 C 0.30474 0.8228 0.69276 0.0
O210 O 0.26111 0.76401 0.7085 0.0
O211 O 0.30114 0.76986 0.74472 0.0
O212 O 0.24811 0.78083 0.63961 0.0
O213 O 0.28853 0.75889 0.62667 0.0
O214 O 0.28232 0.81914 0.67289 0.0
O215 O 0.31582 0.80228 0.69936 0.0
O216 O 0.3757 0.79412 0.68335 0.0
O217 O 0.33793 0.78368 0.64647 0.0
C218 C 0.27111 0.76404 0.73653 0.0
C219 C 0.36661 0.79238 0.65509 0.0
Dy220 Dy 0.86242 0.52796 0.72222 0.0
C221 C 0.94787 0.53517 0.61862 0.0
C222 C 0.83812 0.522 0.77826 0.0
Dy223 Dy 0.91791 0.52621 0.67145 0.0
O224 O 0.83938 0.5425 0.76383 0.0
O225 O 0.8478 0.50441 0.76102 0.0
O226 O 0.84054 0.56061 0.70068 0.0
O227 O 0.89118 0.55431 0.6964 0.0
C228 C 0.86757 0.56759 0.68802 0.0
C229 C 0.90414 0.48158 0.69435 0.0
O230 O 0.9487 0.54022 0.70867 0.0
O231 O 0.90945 0.53478 0.74567 0.0
O232 O 0.96037 0.52238 0.64015 0.0
O233 O 0.91999 0.54416 0.62682 0.0
O234 O 0.92623 0.48497 0.67417 0.0
O235 O 0.89324 0.50219 0.70085 0.0
O236 O 0.83319 0.51108 0.68591 0.0
O237 O 0.87027 0.52087 0.64824 0.0
C238 C 0.93931 0.54042 0.73687 0.0
C239 C 0.84159 0.51264 0.65751 0.0
Dy240 Dy 0.66236 0.52573 0.42499 0.0
C241 C 0.58429 0.5311 0.52799 0.0
C242 C 0.69359 0.52163 0.37154 0.0
Dy243 Dy 0.61004 0.52305 0.47284 0.0
O244 O 0.70063 0.53746 0.39197 0.0
O245 O 0.67065 0.50737 0.38099 0.0
O246 O 0.67494 0.56398 0.4406 0.0
O247 O 0.62754 0.55135 0.4438 0.0
C248 C 0.64584 0.56885 0.45016 0.0
C249 C 0.61966 0.48088 0.44491 0.0
O250 O 0.57687 0.53372 0.43555 0.0
O251 O 0.61552 0.52397 0.3998 0.0
O252 O 0.58235 0.51078 0.51324 0.0
O253 O 0.59784 0.54754 0.51136 0.0
O254 O 0.59194 0.48757 0.45634 0.0
O255 O 0.64209 0.4959 0.45168 0.0
O256 O 0.69449 0.51197 0.46119 0.0
O257 O 0.65745 0.52309 0.49726 0.0
C258 C 0.58532 0.52965 0.40753 0.0
C259 C 0.68669 0.51553 0.4893 0.0
Dy260 Dy 0.03897 0.27431 0.41954 0.0
C261 C 0.1202 0.26949 0.52534 0.0
C262 C 0.0091 0.28416 0.36694 0.0
Dy263 Dy 0.09526 0.27525 0.46957 0.0
O264 O -0.00338 0.27093 0.38807 0.0
O265 O 0.03686 0.29315 0.37549 0.0
O266 O 0.03024 0.23309 0.42179 0.0
O267 O 0.06376 0.24989 0.44836 0.0
C268 C 0.05258 0.2294 0.44171 0.0
C269 C 0.09005 0.31511 0.43577 0.0
O270 O 0.12386 0.25846 0.43273 0.0
O271 O 0.08613 0.26857 0.39569 0.0
O272 O 0.11742 0.2901 0.51133 0.0
O273 O 0.11184 0.25175 0.50774 0.0
O274 O 0.11722 0.30779 0.4479 0.0
O275 O 0.06642 0.30202 0.4445 0.0
O276 O 0.0087 0.28779 0.45736 0.0
O277 O 0.04833 0.28109 0.49371 0.0
C278 C 0.1149 0.26015 0.40445 0.0
C279 C 0.01838 0.28708 0.48547 0.0
Dy280 Dy 0.67243 0.27862 0.35396 0.0
C281 C 0.59171 0.27579 0.24755 0.0
C282 C 0.70274 0.28757 0.40656 0.0
Dy283 Dy 0.61642 0.28083 0.30354 0.0
O284 O 0.71499 0.2746 0.38507 0.0
O285 O 0.67492 0.29673 0.39844 0.0
O286 O 0.68054 0.2374 0.35073 0.0
O287 O 0.64765 0.25495 0.32419 0.0
C288 C 0.65842 0.23426 0.33046 0.0
C289 C 0.62178 0.31982 0.33868 0.0
O290 O 0.58757 0.26353 0.33994 0.0
O291 O 0.62512 0.27284 0.37746 0.0
O292 O 0.5932 0.29607 0.26242 0.0
O293 O 0.60132 0.25789 0.26435 0.0
O294 O 0.59459 0.31302 0.32613 0.0
O295 O 0.64533 0.30681 0.32964 0.0
O296 O 0.70305 0.29256 0.31676 0.0
O297 O 0.66337 0.28796 0.2799 0.0
C298 C 0.59634 0.26471 0.36832 0.0
C299 C 0.69344 0.29312 0.28864 0.0
Dy300 Dy 0.03793 0.52064 0.35271 0.0
C301 C 0.11826 0.52418 0.24619 0.0
C302 C 0.00739 0.51137 0.40517 0.0
Dy303 Dy 0.09389 0.51912 0.30235 0.0
O304 O -0.00478 0.52443 0.38373 0.0
O305 O 0.03524 0.50227 0.39705 0.0
O306 O 0.03043 0.56203 0.35072 0.0
O307 O 0.06278 0.54476 0.32353 0.0
C308 C 0.05248 0.56543 0.3305 0.0
C309 C 0.0884 0.47938 0.33634 0.0
O310 O 0.12265 0.53608 0.33919 0.0
O311 O 0.08533 0.52559 0.37635 0.0
O312 O 0.11581 0.50379 0.26069 0.0
O313 O 0.10992 0.54213 0.26349 0.0
O314 O 0.11556 0.48648 0.32405 0.0
O315 O 0.06488 0.49265 0.32772 0.0
O316 O 0.00725 0.50723 0.31516 0.0
O317 O 0.04669 0.51328 0.27851 0.0
C318 C 0.11389 0.53432 0.36753 0.0
C319 C 0.01671 0.50761 0.287 0.0
Dy320 Dy 0.84649 0.02767 0.55183 0.0
C321 C 0.75934 0.03608 0.65376 0.0
C322 C 0.87133 1.02207 0.49597 0.0
Dy323 Dy 0.79015 0.02641 0.6016 0.0
O324 O 0.87015 0.04244 0.51069 0.0
O325 O 0.86143 1.00437 0.51292 0.0
O326 O 0.86869 0.05988 0.57394 0.0
O327 O 0.81776 0.05438 0.57722 0.0
C328 C 0.84158 0.06726 0.5861 0.0
C329 C 0.80394 0.98158 0.57911 0.0
O330 O 0.76005 0.04034 0.56393 0.0
O331 O 0.79982 0.03453 0.52755 0.0
O332 O 0.74697 1.02331 0.63215 0.0
O333 O 0.78761 0.04462 0.64601 0.0
O334 O 0.78164 0.98514 0.59908 0.0
O335 O 0.81492 1.00215 0.57257 0.0
O336 O 0.87471 1.01026 0.58861 0.0
O337 O 0.83714 1.02058 0.62565 0.0
C338 C 0.76979 0.04024 0.53585 0.0
C339 C 0.86573 1.01183 0.6169 0.0
Dy340 Dy 0.36362 0.27693 0.55102 0.0
C341 C 0.45025 0.26919 0.65378 0.0
C342 C 0.33899 0.28258 0.49509 0.0
Dy343 Dy 0.4196 0.27847 0.60135 0.0
O344 O 0.34183 0.26199 0.50912 0.0
O345 O 0.34712 0.30035 0.51273 0.0
O346 O 0.34196 0.24421 0.57243 0.0
O347 O 0.39268 0.25042 0.57641 0.0
C348 C 0.36909 0.23713 0.58485 0.0
C349 C 0.4054 0.32318 0.57885 0.0
O350 O 0.45002 0.2647 0.56375 0.0
O351 O 0.41065 0.27113 0.52711 0.0
O352 O 0.4626 0.28191 0.63213 0.0
O353 O 0.4221 0.26047 0.64592 0.0
O354 O 0.42763 0.31979 0.59894 0.0
O355 O 0.39465 0.30256 0.57229 0.0
O356 O 0.33459 0.29345 0.58775 0.0
O357 O 0.37215 0.28352 0.625 0.0
C358 C 0.44052 0.26517 0.53558 0.0
C359 C 0.3433 0.29171 0.61609 0.0
Dy360 Dy 0.84721 0.27034 0.72237 0.0
C361 C 0.76059 0.26208 0.61975 0.0
C362 C 0.87164 0.27661 0.77833 0.0
Dy363 Dy 0.79134 0.27163 0.67198 0.0
O364 O 0.86907 0.25589 0.76451 0.0
O365 O 0.86336 0.29418 0.76047 0.0
O366 O 0.86866 0.2373 0.70141 0.0
O367 O 0.81801 0.24372 0.69731 0.0
C368 C 0.84148 0.23024 0.68905 0.0
C369 C 0.80565 0.3165 0.694 0.0
O370 O 0.76067 0.25848 0.70956 0.0
O371 O 0.79998 0.26492 0.74625 0.0
O372 O 0.74852 0.27527 0.64111 0.0
O373 O 0.78848 0.25303 0.62782 0.0
O374 O 0.78339 0.31297 0.67398 0.0
O375 O 0.81646 0.29593 0.70072 0.0
O376 O 0.87627 0.2866 0.68535 0.0
O377 O 0.8387 0.27633 0.64825 0.0
C378 C 0.77002 0.2592 0.73774 0.0
C379 C 0.86749 0.2847 0.65702 0.0
Dy380 Dy 0.36245 0.03373 0.71943 0.0
C381 C 0.4502 0.04135 0.61761 0.0
C382 C 0.33763 0.02849 0.77536 0.0
Dy383 Dy 0.41904 0.03227 0.66979 0.0
O384 O 0.33998 0.04892 0.7609 0.0
O385 O 0.34628 1.01061 0.7581 0.0
O386 O 0.34045 0.06594 0.69722 0.0
O387 O 0.39138 0.06032 0.69407 0.0
C388 C 0.36764 0.07324 0.68513 0.0
C389 C 0.40505 0.98756 0.69245 0.0
O390 O 0.44903 0.04619 0.70752 0.0
O391 O 0.40916 0.04013 0.74376 0.0
O392 O 0.4624 0.0288 0.63948 0.0
O393 O 0.42193 0.05006 0.62513 0.0
O394 O 0.42739 0.99099 0.6725 0.0
O395 O 0.39413 1.00817 0.69887 0.0
O396 O 0.33437 1.01628 0.68257 0.0
O397 O 0.37208 0.02654 0.64564 0.0
C398 C 0.43917 0.04596 0.73557 0.0
C399 C 0.34347 1.01779 0.65431 0.0
Dy400 Dy 0.16954 1.02094 0.41949 0.0
C401 C 0.08878 1.02447 0.5256 0.0
C402 C 0.20042 1.01217 0.36705 0.0
Dy403 Dy 0.1132 1.01941 0.46946 0.0
O404 O 0.21245 1.02498 0.38879 0.0
O405 O 0.17254 1.00297 0.3749 0.0
O406 O 0.17767 0.0622 0.42202 0.0
O407 O 0.14441 0.04508 0.44848 0.0
C408 C 0.15532 0.06567 0.44194 0.0
C409 C 0.11893 0.97968 0.43543 0.0
O410 O 0.08458 0.03632 0.43257 0.0
O411 O 0.12231 1.02616 0.39558 0.0
O412 O 0.09138 1.00406 0.51113 0.0
O413 O 0.09691 0.04243 0.50825 0.0
O414 O 0.09168 0.98679 0.44759 0.0
O415 O 0.1424 0.99293 0.44423 0.0
O416 O 0.19996 1.00752 0.45722 0.0
O417 O 0.16021 1.01374 0.49355 0.0
C418 C 0.09356 0.03465 0.40427 0.0
C419 C 0.19025 1.00803 0.48531 0.0
Dy420 Dy 0.54074 0.7821 0.42035 0.0
C421 C 0.6218 0.77633 0.52623 0.0
C422 C 0.50972 0.79214 0.36835 0.0
Dy423 Dy 0.59716 0.78259 0.4704 0.0
O424 O 0.49735 0.77939 0.38996 0.0
O425 O 0.53813 0.80051 0.37604 0.0
O426 O 0.53204 0.74089 0.42211 0.0
O427 O 0.56543 0.75748 0.449 0.0
C428 C 0.55433 0.73705 0.44203 0.0
C429 C 0.59186 0.82268 0.43701 0.0
O430 O 0.62522 0.76551 0.43337 0.0
O431 O 0.58793 0.77669 0.39642 0.0
O432 O 0.62008 0.79695 0.51211 0.0
O433 O 0.61259 0.75879 0.50869 0.0
O434 O 0.61908 0.81534 0.44904 0.0
O435 O 0.56833 0.80947 0.44561 0.0
O436 O 0.51079 0.79572 0.45832 0.0
O437 O 0.55039 0.78886 0.49465 0.0
C438 C 0.61641 0.76763 0.40508 0.0
C439 C 0.5205 0.79503 0.48642 0.0
Dy440 Dy 0.1685 0.77476 0.35245 0.0
C441 C 0.08849 0.76932 0.24587 0.0
C442 C 0.1988 0.78511 0.40471 0.0
Dy443 Dy 0.11265 0.77552 0.30191 0.0
O444 O 0.21123 0.77182 0.3836 0.0
O445 O 0.17075 0.79375 0.3964 0.0
O446 O 0.17659 0.7334 0.35081 0.0
O447 O 0.14408 0.75029 0.3234 0.0
C448 C 0.15462 0.72973 0.33054 0.0
C449 C 0.11751 0.81549 0.3356 0.0
O450 O 0.08395 0.75873 0.33877 0.0
O451 O 0.12109 0.76951 0.37602 0.0
O452 O 0.08906 0.78978 0.26044 0.0
O453 O 0.09864 0.75184 0.26304 0.0
O454 O 0.09047 0.80816 0.32324 0.0
O455 O 0.14121 0.80234 0.32715 0.0
O456 O 0.19899 0.78839 0.31485 0.0
O457 O 0.15955 0.78243 0.27813 0.0
C458 C 0.09253 0.76077 0.36713 0.0
C459 C 0.18948 0.78822 0.28668 0.0
Dy460 Dy 0.5403 0.02678 0.35183 0.0
C461 C 0.62023 0.03093 0.24515 0.0
C462 C 0.50966 1.01765 0.40426 0.0
Dy463 Dy 0.59592 1.02553 0.30121 0.0
O464 O 0.49721 0.03012 0.38244 0.0
O465 O 0.53793 1.00904 0.39657 0.0
O466 O 0.53192 0.06804 0.34955 0.0
O467 O 0.56462 0.05099 0.32246 0.0
C468 C 0.55381 0.07155 0.32922 0.0
C469 C 0.59132 0.98594 0.33548 0.0
O470 O 0.62487 0.04255 0.33777 0.0
O471 O 0.58782 0.03224 0.37525 0.0
O472 O 0.61872 1.01055 0.25979 0.0
O473 O 0.61091 0.04873 0.26224 0.0
O474 O 0.61827 0.99321 0.32296 0.0
O475 O 0.56748 0.99891 0.32688 0.0
O476 O 0.50961 1.01306 0.31439 0.0
O477 O 0.54883 1.01903 0.27753 0.0
C478 C 0.61642 0.04076 0.36617 0.0
C479 C 0.51892 1.01334 0.28618 0.0
Dy480 Dy 0.83956 0.52479 0.05522 0.0
C481 C 0.7544 0.53904 0.15758 0.0
C482 C 0.86402 0.5192 0.99911 0.0
Dy483 Dy 0.78443 0.52669 0.1058 0.0
O484 O 0.86223 0.5396 0.01365 0.0
O485 O 0.85482 0.50145 0.01631 0.0
O486 O 0.86311 0.5574 0.07573 0.0
O487 O 0.81219 0.55297 0.07935 0.0
C488 C 0.83629 0.56581 0.08737 0.0
C489 C 0.79502 0.48055 0.08618 0.0
O490 O 0.75437 0.54018 0.06783 0.0
O491 O 0.79256 0.53061 0.03128 0.0
O492 O 0.74139 0.52582 0.13669 0.0
O493 O 0.78303 0.54654 0.14931 0.0
O494 O 0.77353 0.48601 0.10623 0.0
O495 O 0.80735 0.50029 0.0777 0.0
O496 O 0.86768 0.50749 0.09203 0.0
O497 O 0.83185 0.52056 0.12922 0.0
C498 C 0.76334 0.5382 0.03964 0.0
C499 C 0.85966 0.51051 0.12038 0.0
Dy500 Dy 0.36314 0.77811 0.05195 0.0
C501 C 0.44988 0.77054 0.15474 0.0
C502 C 0.33883 0.78361 0.99588 0.0
Dy503 Dy 0.41905 0.7796 0.10238 0.0
O504 O 0.34128 0.76309 1.01014 0.0
O505 O 0.34714 0.80143 0.01338 0.0
O506 O 0.34123 0.74555 0.0734 0.0
O507 O 0.392 0.75159 0.07748 0.0
C508 C 0.36828 0.73843 0.08592 0.0
C509 C 0.405 0.82428 0.0797 0.0
O510 O 0.44949 0.76566 0.06494 0.0
O511 O 0.41023 0.77202 0.02819 0.0
O512 O 0.46217 0.78314 0.13297 0.0
O513 O 0.42168 0.76179 0.14704 0.0
O514 O 0.42714 0.82093 0.09988 0.0
O515 O 0.39426 0.80365 0.07319 0.0
O516 O 0.33409 0.79464 0.08875 0.0
O517 O 0.37162 0.78464 0.12602 0.0
C518 C 0.44008 0.76606 0.03676 0.0
C519 C 0.34277 0.79284 0.11711 0.0
Dy520 Dy 0.84555 0.77033 0.21957 0.0
C521 C 0.75851 0.7637 0.11706 0.0
C522 C 0.87013 0.7754 0.27563 0.0
Dy523 Dy 0.78964 0.77232 0.16939 0.0
O524 O 0.86709 0.75495 0.26134 0.0
O525 O 0.86228 0.79336 0.25817 0.0
O526 O 0.86725 0.73787 0.19765 0.0
O527 O 0.81645 0.74395 0.19395 0.0
C528 C 0.8401 0.7308 0.18528 0.0
C529 C 0.80396 0.81691 0.19221 0.0
O530 O 0.75898 0.75876 0.20678 0.0
O531 O 0.7984 0.76472 0.24347 0.0
O532 O 0.74642 0.77622 0.139 0.0
O533 O 0.78667 0.75476 0.12457 0.0
O534 O 0.78174 0.81363 0.1721 0.0
O535 O 0.8147 0.79625 0.19863 0.0
O536 O 0.87454 0.78718 0.18294 0.0
O537 O 0.83693 0.77746 0.14565 0.0
C538 C 0.76841 0.75915 0.23495 0.0
C539 C 0.86573 0.78569 0.15459 0.0
Dy540 Dy 0.35847 0.53479 0.2197 0.0
C541 C 0.4468 0.54306 0.11824 0.0
C542 C 0.33384 0.52874 0.27559 0.0
Dy543 Dy 0.41516 0.53372 0.17009 0.0
O544 O 0.33543 0.54929 0.2613 0.0
O545 O 0.34308 0.51115 0.25815 0.0
O546 O 0.33691 0.56746 0.19818 0.0
O547 O 0.3878 0.56154 0.195 0.0
C548 C 0.36423 0.57476 0.18633 0.0
C549 C 0.40065 0.48879 0.19178 0.0
O550 O 0.44534 0.54654 0.20806 0.0
O551 O 0.40515 0.54089 0.24417 0.0
O552 O 0.45866 0.53023 0.14001 0.0
O553 O 0.4186 0.55193 0.12571 0.0
O554 O 0.423 0.49236 0.17188 0.0
O555 O 0.3899 0.50936 0.19858 0.0
O556 O 0.33064 0.51763 0.18243 0.0
O557 O 0.36819 0.52902 0.1459 0.0
C558 C 0.43534 0.54619 0.23603 0.0
C559 C 0.33979 0.51973 0.15423 0.0
Dy560 Dy 0.16857 0.51945 0.91915 0.0
C561 C 0.08823 0.52318 0.02561 0.0
C562 C 0.19916 0.51089 0.86653 0.0
Dy563 Dy 0.11236 0.51773 0.96941 0.0
O564 O 0.21142 0.52346 0.88837 0.0
O565 O 0.17119 0.50181 0.87434 0.0
O566 O 0.17679 0.5607 0.92212 0.0
O567 O 0.14391 0.54335 0.94873 0.0
C568 C 0.15467 0.56401 0.94231 0.0
C569 C 0.11768 0.47829 0.93481 0.0
O570 O 0.08402 0.53541 0.93294 0.0
O571 O 0.12131 0.52519 0.89561 0.0
O572 O 0.08929 0.50284 1.01083 0.0
O573 O 0.09785 0.54092 1.00859 0.0
O574 O 0.09052 0.48534 0.9472 0.0
O575 O 0.14123 0.49142 0.94366 0.0
O576 O 0.19899 0.50549 0.95652 0.0
O577 O 0.15923 0.51069 0.99315 0.0
C578 C 0.09288 0.53404 0.90461 0.0
C579 C 0.18925 0.50524 0.98461 0.0
Dy580 Dy 0.53965 0.28036 0.92039 0.0
C581 C 0.61985 0.27635 0.02703 0.0
C582 C 0.50925 0.28974 0.86787 0.0
Dy583 Dy 0.59534 0.28175 0.971 0.0
O584 O 0.49672 0.27711 0.88951 0.0
O585 O 0.53746 0.29834 0.87579 0.0
O586 O 0.53155 0.23906 0.92258 0.0
O587 O 0.56399 0.25619 0.94988 0.0
C588 C 0.55345 0.23557 0.94295 0.0
C589 C 0.59044 0.32136 0.93669 0.0
O590 O 0.62416 0.26456 0.93456 0.0
O591 O 0.58716 0.27486 0.89701 0.0
O592 O 0.61736 0.29684 0.01274 0.0
O593 O 0.61137 0.25851 1.00963 0.0
O594 O 0.61749 0.31414 0.94914 0.0
O595 O 0.56676 0.30828 0.94531 0.0
O596 O 0.50905 0.29424 0.95779 0.0
O597 O 0.54826 0.2881 0.99466 0.0
C598 C 0.61567 0.26621 0.90616 0.0
C599 C 0.51843 0.29401 0.98599 0.0
Dy600 Dy 0.16961 0.27377 0.85099 0.0
C601 C 0.08841 0.26825 0.74514 0.0
C602 C 0.19992 0.28412 0.90321 0.0
Dy603 Dy 0.11333 0.27438 0.80088 0.0
O604 O 0.21254 0.2711 0.88194 0.0
O605 O 0.17169 0.29252 0.89507 0.0
O606 O 0.17801 0.23244 0.84915 0.0
O607 O 0.14528 0.24927 0.82193 0.0
C608 C 0.15596 0.22873 0.82897 0.0
C609 C 0.11787 0.31418 0.83486 0.0
O610 O 0.08516 0.2573 0.83785 0.0
O611 O 0.12254 0.26819 0.87484 0.0
O612 O 0.08908 0.28867 0.75977 0.0
O613 O 0.09897 0.25076 0.76208 0.0
O614 O 0.09084 0.30668 0.82264 0.0
O615 O 0.14172 0.30129 0.82613 0.0
O616 O 0.19961 0.28778 0.81337 0.0
O617 O 0.15998 0.28177 0.77682 0.0
C618 C 0.09402 0.2593 0.86614 0.0
C619 C 0.18991 0.28769 0.78526 0.0
Dy620 Dy 0.53709 0.52691 0.85305 0.0
C621 C 0.61854 0.53032 0.74752 0.0
C622 C 0.50586 0.5179 0.90519 0.0
Dy623 Dy 0.59355 0.52537 0.80337 0.0
O624 O 0.4937 0.53042 0.88328 0.0
O625 O 0.53413 0.50916 0.89772 0.0
O626 O 0.52871 0.56816 0.85039 0.0
O627 O 0.56205 0.55104 0.824 0.0
C628 C 0.55106 0.57163 0.83046 0.0
C629 C 0.58807 0.48576 0.83758 0.0
O630 O 0.62196 0.54243 0.8402 0.0
O631 O 0.58415 0.53241 0.87715 0.0
O632 O 0.61516 0.50987 0.76175 0.0
O633 O 0.61085 0.54833 0.76498 0.0
O634 O 0.6153 0.49297 0.8255 0.0
O635 O 0.5645 0.49884 0.82862 0.0
O636 O 0.50707 0.51305 0.81529 0.0
O637 O 0.5467 0.51976 0.77903 0.0
C638 C 0.61293 0.54084 0.86846 0.0
C639 C 0.51677 0.51371 0.78721 0.0
H640 H 0.34409 0.83393 0.05763 0.0
H641 H 0.36467 0.9786 0.05678 0.0
H642 H 0.43352 0.86897 0.08381 0.0
H643 H 0.27548 0.94359 0.08355 0.0
H644 H 0.39011 0.93838 0.05115 0.0
H645 H 0.31879 0.87413 0.05155 0.0
C646 C 0.3586 0.85004 0.0615 0.0
C647 C 0.39089 0.84813 0.07139 0.0
C648 C 0.36482 0.93957 0.05782 0.0
C649 C 0.36227 0.89407 0.06414 0.0
C650 C 0.35024 0.96249 0.0609 0.0
C651 C 0.31799 0.96442 0.07086 0.0
C652 C 0.34673 0.91848 0.06404 0.0
C653 C 0.30046 0.94288 0.07596 0.0
C654 C 0.3441 0.87295 0.05818 0.0
C655 C 0.4085 0.86968 0.07626 0.0
N656 N 0.31504 0.92078 0.0725 0.0
N657 N 0.39398 0.89178 0.07259 0.0
H658 H 0.77021 0.43877 0.10839 0.0
H659 H 0.89638 0.34465 0.03758 0.0
H660 H 0.84664 0.46497 0.05132 0.0
H661 H 0.85964 0.33966 0.12678 0.0
H662 H 0.86875 0.38461 0.03239 0.0
H663 H 0.79267 0.3977 0.10468 0.0
C664 C 0.79146 0.43584 0.09464 0.0
C665 C 0.80663 0.4554 0.08019 0.0
C666 C 0.86664 0.37454 0.05292 0.0
C667 C 0.83242 0.40821 0.07575 0.0
C668 C 0.88214 0.35178 0.05581 0.0
C669 C 0.88033 0.33899 0.08269 0.0
C670 C 0.84853 0.38396 0.07678 0.0
C671 C 0.86181 0.34901 0.10575 0.0
C672 C 0.80429 0.41238 0.09261 0.0
C673 C 0.83412 0.45041 0.06266 0.0
N674 N 0.84654 0.37075 0.10222 0.0
N675 N 0.84629 0.42726 0.06098 0.0
H676 H 0.3396 0.47858 0.21346 0.0
H677 H 0.36247 0.3341 0.21359 0.0
H678 H 0.42941 0.44429 0.18694 0.0
H679 H 0.27244 0.36802 0.18692 0.0
H680 H 0.3871 0.37461 0.21895 0.0
H681 H 0.31467 0.43815 0.21876 0.0
C682 C 0.35426 0.46258 0.20929 0.0
C683 C 0.38657 0.46479 0.19956 0.0
C684 C 0.36182 0.37312 0.21234 0.0
C685 C 0.35839 0.41859 0.20603 0.0
C686 C 0.34769 0.35004 0.20942 0.0
C687 C 0.31541 0.3477 0.19963 0.0
C688 C 0.34329 0.39401 0.2061 0.0
C689 C 0.29745 0.36904 0.19441 0.0
C690 C 0.33996 0.43954 0.21218 0.0
C691 C 0.40438 0.44337 0.19438 0.0
N692 N 0.31161 0.39133 0.19772 0.0
N693 N 0.39009 0.42115 0.1977 0.0
H694 H 0.86497 0.82675 0.21414 0.0
H695 H 0.84307 0.97146 0.21473 0.0
H696 H 0.77519 0.8615 0.1884 0.0
H697 H 0.93286 0.93684 0.18881 0.0
H698 H 0.81801 0.93111 0.22041 0.0
H699 H 0.89004 0.86707 0.22018 0.0
C700 C 0.85034 0.84282 0.21035 0.0
C701 C 0.81801 0.84079 0.2006 0.0
C702 C 0.84334 0.93241 0.21392 0.0
C703 C 0.84636 0.88687 0.20781 0.0
C704 C 0.85771 0.95541 0.21083 0.0
C705 C 0.89003 0.95749 0.20111 0.0
C706 C 0.86168 0.91138 0.20793 0.0
C707 C 0.90781 0.93601 0.19623 0.0
C708 C 0.86471 0.8658 0.21365 0.0
C709 C 0.80024 0.8623 0.19585 0.0
N710 N 0.89343 0.91384 0.19968 0.0
N711 N 0.81462 0.88445 0.19949 0.0
H712 H 0.59359 0.08095 0.96386 0.0
H713 H 0.61428 0.22558 0.9654 0.0
H714 H 0.68299 0.11578 0.93736 0.0
H715 H 0.52522 0.19091 0.93749 0.0
H716 H 0.63965 0.18527 0.97047 0.0
H717 H 0.56831 0.12121 0.96955 0.0
C718 C 0.6081 0.09703 0.95979 0.0
C719 C 0.64039 0.09501 0.94995 0.0
C720 C 0.61442 0.18656 0.96365 0.0
C721 C 0.61179 0.14106 0.95685 0.0
C722 C 0.59987 0.20953 0.96088 0.0
C723 C 0.56766 0.2116 0.9508 0.0
C724 C 0.59634 0.16552 0.95702 0.0
C725 C 0.55017 0.1901 0.9452 0.0
C726 C 0.5936 0.11998 0.96291 0.0
C727 C 0.65798 0.11655 0.94488 0.0
N728 N 0.5647 0.16795 0.94841 0.0
N729 N 0.64349 0.13869 0.94841 0.0
H730 H 0.11587 0.71865 0.96428 0.0
H731 H 0.09383 0.57401 0.96466 0.0
H732 H 0.02596 0.68416 0.93839 0.0
H733 H 0.18337 0.60855 0.93794 0.0
H734 H 0.0688 0.61438 0.97035 0.0
H735 H 0.14084 0.67826 0.96997 0.0
C736 C 0.1012 0.70262 0.96037 0.0
C737 C 0.06885 0.70475 0.95069 0.0
C738 C 0.09407 0.61305 0.96367 0.0
C739 C 0.0971 0.65859 0.95752 0.0
C740 C 0.10842 0.59004 0.96055 0.0
C741 C 0.14066 0.58793 0.9506 0.0
C742 C 0.11237 0.63406 0.9575 0.0
C743 C 0.15839 0.6094 0.94553 0.0
C744 C 0.11551 0.6796 0.96347 0.0
C745 C 0.05102 0.68329 0.94578 0.0
N746 N 0.14404 0.63158 0.94903 0.0
N747 N 0.06535 0.66109 0.94926 0.0
H748 H 0.68373 0.69084 0.83446 0.0
H749 H 0.52177 0.61598 0.83441 0.0
H750 H 0.59366 0.72458 0.80762 0.0
H751 H 0.61215 0.58198 0.80905 0.0
H752 H 0.54714 0.6561 0.82768 0.0
H753 H 0.65838 0.65067 0.82822 0.0
C754 C 0.65874 0.68977 0.82685 0.0
C755 C 0.64075 0.71107 0.82159 0.0
C756 C 0.56125 0.63985 0.82315 0.0
C757 C 0.61137 0.66526 0.81522 0.0
C758 C 0.54683 0.61698 0.82701 0.0
C759 C 0.5649 0.59563 0.8223 0.0
C760 C 0.59428 0.64138 0.81536 0.0
C761 C 0.59732 0.59794 0.81287 0.0
C762 C 0.64433 0.66687 0.82327 0.0
C763 C 0.60842 0.70867 0.81189 0.0
N764 N 0.61118 0.6204 0.81025 0.0
N765 N 0.59455 0.68618 0.80956 0.0
H766 H 0.09521 0.21869 0.80647 0.0
H767 H 0.115 0.07406 0.80753 0.0
H768 H 0.18399 0.18398 0.83502 0.0
H769 H 0.02593 0.10922 0.83441 0.0
H770 H 0.14067 0.11424 0.80232 0.0
H771 H 0.06978 0.17844 0.80139 0.0
C772 C 0.10956 0.20264 0.81115 0.0
C773 C 0.14171 0.2047 0.82139 0.0
C774 C 0.11538 0.11309 0.80896 0.0
C775 C 0.11294 0.15865 0.81514 0.0
C776 C 0.10066 0.09019 0.81181 0.0
C777 C 0.06834 0.08829 0.82164 0.0
C778 C 0.09737 0.13423 0.81521 0.0
C779 C 0.05095 0.10989 0.82691 0.0
C780 C 0.09497 0.17969 0.80837 0.0
C781 C 0.15909 0.18319 0.82718 0.0
N782 N 0.06564 0.13197 0.8236 0.0
N783 N 0.14452 0.16104 0.82395 0.0
H784 H 0.34443 0.33296 0.55694 0.0
H785 H 0.36516 0.4777 0.55657 0.0
H786 H 0.43397 0.36786 0.58305 0.0
H787 H 0.27587 0.44261 0.58292 0.0
H788 H 0.39064 0.43747 0.55092 0.0
H789 H 0.31918 0.37321 0.55104 0.0
C790 C 0.35898 0.34905 0.56083 0.0
C791 C 0.39129 0.34708 0.57064 0.0
C792 C 0.36533 0.43865 0.55751 0.0
C793 C 0.36271 0.39309 0.56361 0.0
C794 C 0.35073 0.46157 0.5606 0.0
C795 C 0.31842 0.46348 0.57044 0.0
C796 C 0.34721 0.41753 0.56359 0.0
C797 C 0.30089 0.44192 0.57542 0.0
C798 C 0.3445 0.37199 0.55762 0.0
C799 C 0.40894 0.36861 0.57555 0.0
N800 N 0.31548 0.41982 0.57194 0.0
N801 N 0.39445 0.39074 0.57199 0.0
H802 H 0.86487 0.97141 0.55717 0.0
H803 H 0.84336 0.8268 0.55709 0.0
H804 H 0.77528 0.93699 0.58394 0.0
H805 H 0.93262 0.86134 0.58467 0.0
H806 H 0.81825 0.86717 0.55158 0.0
H807 H 0.88995 0.93103 0.55188 0.0
C808 C 0.85028 0.9554 0.56138 0.0
C809 C 0.818 0.95756 0.57121 0.0
C810 C 0.84347 0.86584 0.55842 0.0
C811 C 0.84637 0.91139 0.56474 0.0
C812 C 0.85787 0.84284 0.56144 0.0
C813 C 0.89006 0.84072 0.57156 0.0
C814 C 0.86168 0.88686 0.56483 0.0
C815 C 0.90768 0.86219 0.57694 0.0
C816 C 0.86467 0.93238 0.55849 0.0
C817 C 0.80028 0.93611 0.57643 0.0
N818 N 0.8933 0.88438 0.57349 0.0
N819 N 0.81467 0.9139 0.57312 0.0
H820 H 0.34398 0.97759 0.7142 0.0
H821 H 0.36565 0.833 0.71465 0.0
H822 H 0.43363 0.94293 0.68796 0.0
H823 H 0.27602 0.86739 0.68778 0.0
H824 H 0.39068 0.87337 0.72001 0.0
H825 H 0.3188 0.93727 0.71963 0.0
C826 C 0.35856 0.96154 0.71013 0.0
C827 C 0.39089 0.96362 0.70042 0.0
C828 C 0.3654 0.87202 0.71335 0.0
C829 C 0.3624 0.91752 0.70702 0.0
C830 C 0.35104 0.84901 0.71043 0.0
C831 C 0.31876 0.84684 0.70058 0.0
C832 C 0.34709 0.89301 0.70707 0.0
C833 C 0.30103 0.86828 0.69531 0.0
C834 C 0.34411 0.93856 0.7131 0.0
C835 C 0.40859 0.94212 0.69538 0.0
N836 N 0.3154 0.89049 0.69863 0.0
N837 N 0.39415 0.91996 0.69875 0.0
H838 H 0.86664 0.32673 0.71565 0.0
H839 H 0.84327 0.47133 0.71634 0.0
H840 H 0.77643 0.36094 0.69007 0.0
H841 H 0.93336 0.43718 0.69035 0.0
H842 H 0.81858 0.43084 0.72199 0.0
H843 H 0.89128 0.3672 0.72163 0.0
C844 C 0.85182 0.34272 0.71189 0.0
C845 C 0.81949 0.34049 0.70222 0.0
C846 C 0.84389 0.43228 0.71549 0.0
C847 C 0.84737 0.38674 0.70935 0.0
C848 C 0.85805 0.45535 0.71242 0.0
C849 C 0.89035 0.45761 0.70269 0.0
C850 C 0.86243 0.41134 0.70947 0.0
C851 C 0.90832 0.43622 0.69778 0.0
C852 C 0.86595 0.36578 0.71515 0.0
C853 C 0.80148 0.36188 0.69746 0.0
N854 N 0.89415 0.41397 0.70121 0.0
N855 N 0.81564 0.38413 0.70107 0.0
H856 H 0.5828 0.58191 0.45926 0.0
H857 H 0.61457 0.72577 0.46516 0.0
H858 H 0.67945 0.61236 0.4538 0.0
H859 H 0.5246 0.69316 0.4361 0.0
H860 H 0.63769 0.68483 0.47202 0.0
H861 H 0.56037 0.62301 0.46226 0.0
C862 C 0.59939 0.59726 0.45903 0.0
C863 C 0.63307 0.59369 0.45593 0.0
C864 C 0.61278 0.68669 0.46446 0.0
C865 C 0.60739 0.64096 0.45943 0.0
C866 C 0.5995 0.71004 0.46075 0.0
C867 C 0.5676 0.71285 0.45006 0.0
C868 C 0.5938 0.66608 0.45789 0.0
C869 C 0.54929 0.6918 0.44435 0.0
C870 C 0.58651 0.62074 0.46065 0.0
C871 C 0.65333 0.61431 0.45599 0.0
N872 N 0.56261 0.66935 0.44834 0.0
N873 N 0.64017 0.63712 0.45754 0.0
H874 H 0.1847 0.10993 0.43793 0.0
H875 H 0.02298 0.18517 0.43725 0.0
H876 H 0.09421 0.07614 0.46336 0.0
H877 H 0.11342 0.21871 0.46341 0.0
H878 H 0.04806 0.14491 0.44386 0.0
H879 H 0.15941 0.15009 0.44435 0.0
C880 C 0.15963 0.11098 0.44528 0.0
C881 C 0.1415 0.08968 0.45007 0.0
C882 C 0.06224 0.1611 0.4486 0.0
C883 C 0.11219 0.13549 0.45665 0.0
C884 C 0.04798 0.18404 0.4448 0.0
C885 C 0.06617 0.2053 0.44978 0.0
C886 C 0.09521 0.15942 0.4566 0.0
C887 C 0.0985 0.20283 0.45941 0.0
C888 C 0.14524 0.13388 0.44896 0.0
C889 C 0.10907 0.09207 0.45945 0.0
N890 N 0.1122 0.18031 0.46197 0.0
N891 N 0.09523 0.11456 0.46189 0.0
H892 H 0.68734 0.18978 0.334 0.0
H893 H 0.52495 0.11597 0.33427 0.0
H894 H 0.59742 0.22441 0.30846 0.0
H895 H 0.61442 0.08178 0.30668 0.0
H896 H 0.55057 0.15602 0.32775 0.0
H897 H 0.66158 0.14985 0.3269 0.0
C898 C 0.66231 0.18896 0.32647 0.0
C899 C 0.64445 0.21042 0.32186 0.0
C900 C 0.56441 0.13974 0.32268 0.0
C901 C 0.61463 0.16491 0.31452 0.0
C902 C 0.54985 0.11691 0.32642 0.0
C903 C 0.56763 0.09553 0.32107 0.0
C904 C 0.59729 0.14116 0.31436 0.0
C905 C 0.59984 0.09776 0.31105 0.0
C906 C 0.64766 0.16621 0.3224 0.0
C907 C 0.61206 0.20836 0.31224 0.0
N908 N 0.61387 0.12017 0.30857 0.0
N909 N 0.59796 0.186 0.30944 0.0
H910 H 0.09395 0.71976 0.30786 0.0
H911 H 0.11349 0.57511 0.30826 0.0
H912 H 0.18262 0.68497 0.33653 0.0
H913 H 0.02468 0.61025 0.33587 0.0
H914 H 0.13921 0.6153 0.30318 0.0
H915 H 0.0685 0.67951 0.30263 0.0
C916 C 0.10827 0.70369 0.31252 0.0
C917 C 0.14039 0.70572 0.32285 0.0
C918 C 0.11396 0.61414 0.30995 0.0
C919 C 0.11162 0.65969 0.31642 0.0
C920 C 0.09921 0.59124 0.31273 0.0
C921 C 0.06696 0.58933 0.32273 0.0
C922 C 0.09602 0.63527 0.31642 0.0
C923 C 0.04965 0.61093 0.32823 0.0
C924 C 0.09367 0.68075 0.30966 0.0
C925 C 0.15774 0.68419 0.32863 0.0
N926 N 0.06435 0.63301 0.32497 0.0
N927 N 0.14318 0.66205 0.32531 0.0
H928 H 0.28607 0.06284 0.20304 0.0
H929 H 0.17324 0.99064 0.31848 0.0
H930 H 0.20748 1.01539 0.17681 0.0
H931 H 0.25184 0.03809 0.34472 0.0
H932 H 0.18612 0.99877 0.26651 0.0
H933 H 0.27326 0.05466 0.25501 0.0
C934 C 0.26574 0.05102 0.20824 0.0
C935 C 0.24772 0.03985 0.18558 0.0
C936 C 0.20076 1.00727 0.28359 0.0
C937 C 0.23333 0.02995 0.24508 0.0
C938 C 0.19359 1.00245 0.31328 0.0
C939 C 0.21159 1.01364 0.33595 0.0
C940 C 0.22605 1.02348 0.27645 0.0
C941 C 0.23747 0.02898 0.32794 0.0
C942 C 0.25862 0.04617 0.23793 0.0
C943 C 0.22187 1.02449 0.19359 0.0
N944 N 0.24381 0.03355 0.29887 0.0
N945 N 0.21556 1.01989 0.22266 0.0
H946 H 0.95914 0.25782 0.34281 0.0
H947 H 0.00448 0.29201 0.17509 0.0
H948 H 0.03638 0.30754 0.31971 0.0
H949 H 0.9365 0.23546 0.19906 0.0
H950 H 0.01636 0.29848 0.22773 0.0
H951 H 0.94843 0.25122 0.29006 0.0
C952 C 0.97345 0.26768 0.32662 0.0
C953 C -0.0014 0.28331 0.33562 0.0
C954 C -0.0009 0.28448 0.22146 0.0
C955 C -0.01301 0.27548 0.27519 0.0
C956 C -0.00745 0.28063 0.1914 0.0
C957 C 0.96955 0.26313 0.1827 0.0
C958 C -0.01771 0.27087 0.24297 0.0
C959 C 0.95451 0.24908 0.20478 0.0
C960 C 0.96759 0.26372 0.2965 0.0
C961 C 0.01665 0.29541 0.3137 0.0
N962 N 0.96093 0.25339 0.23386 0.0
N963 N 0.01058 0.29118 0.28452 0.0
H964 H 0.25305 0.26079 0.92646 0.0
H965 H 0.20426 0.29109 0.0947 0.0
H966 H 0.17166 0.30626 0.95076 0.0
H967 H 0.28567 0.24565 0.0704 0.0
H968 H 0.19112 0.29614 0.04212 0.0
H969 H 0.26606 0.25561 0.97905 0.0
C970 C 0.23826 0.27001 0.94286 0.0
C971 C 0.21132 0.28403 0.93427 0.0
C972 C 0.21172 0.2849 0.04827 0.0
C973 C 0.22557 0.27779 0.99449 0.0
C974 C 0.21902 0.28185 0.0783 0.0
C975 C 0.24602 0.26788 0.08689 0.0
C976 C 0.23164 0.27398 0.02667 0.0
C977 C 0.26455 0.25651 0.06473 0.0
C978 C 0.2455 0.26688 0.9729 0.0
C979 C 0.19274 0.29536 0.95644 0.0
N980 N 0.25714 0.25991 0.03566 0.0
N981 N 0.2001 0.2919 0.9855 0.0
H982 H 0.00206 1.01049 0.09566 0.0
H983 H 0.95473 0.03473 0.92556 0.0
H984 H 0.92084 0.05499 0.06842 0.0
H985 H 0.03571 0.99 0.95284 0.0
H986 H 0.94119 0.0417 0.97774 0.0
H987 H 0.01546 1.0034 0.04349 0.0
C988 C -0.01262 1.01909 0.07869 0.0
C989 C 0.96038 0.03341 0.08637 0.0
C990 C 0.96177 0.0302 0.97234 0.0
C991 C 0.9751 1.02498 0.02659 0.0
C992 C 0.96932 1.02605 0.94254 0.0
C993 C -0.00369 1.0117 0.93487 0.0
C994 C -0.01856 1.02001 0.99465 0.0
C995 C 0.0146 1.0011 0.95777 0.0
C996 C -0.00515 1.01487 0.04889 0.0
C997 C 0.94197 0.04391 0.06348 0.0
N998 N 0.00695 1.00557 0.98658 0.0
N999 N 0.94955 0.03939 0.03466 0.0
H1000 H 0.75309 0.04006 0.84533 0.0
H1001 H 0.70595 1.01247 0.67598 0.0
H1002 H 0.67198 0.99497 0.81923 0.0
H1003 H 0.78716 0.05745 0.70209 0.0
H1004 H 0.6924 1.00648 0.72832 0.0
H1005 H 0.76671 0.04598 0.793 0.0
C1006 C 0.73849 0.03108 0.82859 0.0
C1007 C 0.71144 1.01695 0.8366 0.0
C1008 C 0.71304 1.01782 0.72262 0.0
C1009 C 0.72638 1.02404 0.77667 0.0
C1010 C 0.72059 1.02142 0.69273 0.0
C1011 C 0.74764 0.03554 0.68471 0.0
C1012 C 0.73277 0.02836 0.74465 0.0
C1013 C 0.76601 0.0465 0.70731 0.0
C1014 C 0.74607 0.03463 0.7987 0.0
C1015 C 0.69313 1.00593 0.81401 0.0
N1016 N 0.75835 0.04258 0.73622 0.0
N1017 N 0.70082 1.00981 0.7851 0.0
H1018 H 0.95594 0.75935 0.84631 0.0
H1019 H 0.00228 0.78606 0.67661 0.0
H1020 H 0.03708 0.80412 0.81965 0.0
H1021 H 0.92067 0.74173 0.70318 0.0
H1022 H 0.01617 0.79216 0.72887 0.0
H1023 H 0.94198 0.75323 0.79405 0.0
C1024 C 0.97048 0.76821 0.82946 0.0
C1025 C -0.00238 0.78232 0.8373 0.0
C1026 C -0.00465 0.78095 0.72329 0.0
C1027 C -0.01772 0.775 0.77745 0.0
C1028 C -0.0124 0.77729 0.69344 0.0
C1029 C 0.96036 0.76331 0.68557 0.0
C1030 C 0.97564 0.77061 0.74544 0.0
C1031 C 0.94197 0.75257 0.70828 0.0
C1032 C 0.9627 0.76455 0.79962 0.0
C1033 C 0.01586 0.79318 0.81457 0.0
N1034 N 0.94984 0.75654 0.73716 0.0
N1035 N 0.00797 0.7892 0.7857 0.0
H1036 H 0.75301 0.7653 0.92546 0.0
H1037 H 0.70528 0.78804 0.09567 0.0
H1038 H 0.67152 0.80937 0.95306 0.0
H1039 H 0.78628 0.74352 0.06796 0.0
H1040 H 0.6919 0.79555 0.04358 0.0
H1041 H 0.76645 0.75794 0.97755 0.0
C1042 C 0.73829 0.77377 0.9425 0.0
C1043 C 0.71118 0.78802 0.93495 0.0
C1044 C 0.71246 0.78398 0.04886 0.0
C1045 C 0.72593 0.77926 0.99462 0.0
C1046 C 0.7199 0.77951 0.0786 0.0
C1047 C 0.74685 0.76507 0.08612 0.0
C1048 C 0.73219 0.774 0.02647 0.0
C1049 C 0.7652 0.75468 0.06313 0.0
C1050 C 0.74577 0.76939 0.97225 0.0
C1051 C 0.69273 0.79835 0.95791 0.0
N1052 N 0.75765 0.75945 0.03438 0.0
N1053 N 0.70032 0.79366 0.98668 0.0
H1054 H 0.17171 0.48977 0.8178 0.0
H1055 H 0.28594 0.56135 0.7029 0.0
H1056 H 0.25099 0.53645 0.84437 0.0
H1057 H 0.20712 0.51426 0.67624 0.0
H1058 H 0.27279 0.55316 0.7548 0.0
H1059 H 0.18489 0.49788 0.76588 0.0
C1060 C 0.19226 0.50141 0.81268 0.0
C1061 C 0.21037 0.51239 0.83543 0.0
C1062 C 0.25817 0.54475 0.73764 0.0
C1063 C 0.22519 0.5222 0.77599 0.0
C1064 C 0.2655 0.5496 0.70799 0.0
C1065 C 0.2475 0.53854 0.68523 0.0
C1066 C 0.23271 0.52864 0.74465 0.0
C1067 C 0.22149 0.52328 0.6931 0.0
C1068 C 0.1996 0.50621 0.78302 0.0
C1069 C 0.23652 0.52751 0.82753 0.0
N1070 N 0.21498 0.51868 0.72214 0.0
N1071 N 0.24303 0.53207 0.79849 0.0
H1072 H 0.17159 0.80862 0.45182 0.0
H1073 H 0.28753 0.74401 0.57131 0.0
H1074 H 0.25089 0.76082 0.42848 0.0
H1075 H 0.20845 0.792 0.59473 0.0
H1076 H 0.27382 0.74929 0.51899 0.0
H1077 H 0.18531 0.80341 0.50417 0.0
C1078 C 0.19223 0.79733 0.45772 0.0
C1079 C 0.21021 0.78519 0.43579 0.0
C1080 C 0.25927 0.75854 0.53553 0.0
C1081 C 0.22567 0.77872 0.49574 0.0
C1082 C 0.26692 0.75536 0.56544 0.0
C1083 C 0.24901 0.76753 0.58739 0.0
C1084 C 0.23355 0.77407 0.52744 0.0
C1085 C 0.22276 0.78218 0.57852 0.0
C1086 C 0.1999 0.79419 0.48763 0.0
C1087 C 0.23652 0.77061 0.44467 0.0
N1088 N 0.21593 0.78515 0.54923 0.0
N1089 N 0.24335 0.76768 0.47396 0.0
H1090 H 0.03451 0.48881 0.45304 0.0
H1091 H 0.92032 0.55738 0.57071 0.0
H1092 H 0.95581 0.53669 0.42828 0.0
H1093 H -0.00053 0.5099 0.59545 0.0
H1094 H 0.93343 0.55055 0.5185 0.0
H1095 H 0.02126 0.49553 0.50524 0.0
C1096 C 0.01408 0.50044 0.4586 0.0
C1097 C -0.00385 0.51215 0.43629 0.0
C1098 C 0.94812 0.54176 0.53531 0.0
C1099 C -0.01877 0.52036 0.49608 0.0
C1100 C 0.94081 0.54582 0.56514 0.0
C1101 C 0.95892 0.53426 0.58745 0.0
C1102 C 0.97368 0.52593 0.52765 0.0
C1103 C -0.015 0.51928 0.57896 0.0
C1104 C 0.0067 0.50444 0.48843 0.0
C1105 C 0.97014 0.5272 0.44477 0.0
N1106 N -0.00851 0.51545 0.54975 0.0
N1107 N 0.96357 0.53097 0.47397 0.0
H1108 H 0.7808 0.56404 0.2041 0.0
H1109 H 0.67216 0.49456 0.32479 0.0
H1110 H 0.70247 0.51502 0.18173 0.0
H1111 H 0.73855 0.55261 0.34719 0.0
H1112 H 0.68519 0.5004 0.27241 0.0
H1113 H 0.76668 0.55983 0.25656 0.0
C1114 C 0.76027 0.55271 0.21021 0.0
C1115 C 0.74271 0.5399 0.18855 0.0
C1116 C 0.69704 0.51181 0.28875 0.0
C1117 C 0.72689 0.53453 0.24858 0.0
C1118 C 0.68983 0.50833 0.31869 0.0
C1119 C 0.70443 0.52305 0.34035 0.0
C1120 C 0.71914 0.5301 0.28034 0.0
C1121 C 0.72688 0.54078 0.33118 0.0
C1122 C 0.75235 0.55018 0.24018 0.0
C1123 C 0.71654 0.52531 0.1977 0.0
N1124 N 0.73355 0.54383 0.30187 0.0
N1125 N 0.7096 0.52286 0.22702 0.0
H1126 H 0.67547 0.30993 0.45443 0.0
H1127 H 0.7876 0.23942 0.57194 0.0
H1128 H 0.75389 0.2618 0.42964 0.0
H1129 H 0.70925 0.28764 0.5967 0.0
H1130 H 0.77481 0.24659 0.51974 0.0
H1131 H 0.68807 0.30258 0.50662 0.0
C1132 C 0.69571 0.29812 0.45999 0.0
C1133 C 0.71375 0.28651 0.4377 0.0
C1134 C 0.76021 0.25546 0.53655 0.0
C1135 C 0.72789 0.27758 0.49742 0.0
C1136 C 0.76732 0.2512 0.56637 0.0
C1137 C 0.74938 0.26291 0.58865 0.0
C1138 C 0.73503 0.27164 0.52893 0.0
C1139 C 0.72357 0.27815 0.5802 0.0
C1140 C 0.70272 0.29376 0.4898 0.0
C1141 C 0.7395 0.27122 0.44615 0.0
N1142 N 0.71729 0.28219 0.55101 0.0
N1143 N 0.7457 0.26709 0.47533 0.0
H1144 H 0.45583 0.26619 0.8455 0.0
H1145 H 0.50355 0.29296 0.6761 0.0
H1146 H 0.53746 0.31072 0.81949 0.0
H1147 H 0.42229 0.24807 0.70218 0.0
H1148 H 0.51701 0.29912 0.72846 0.0
H1149 H 0.4424 0.26005 0.79314 0.0
C1150 C 0.4706 0.275 0.82876 0.0
C1151 C 0.49772 0.28905 0.83683 0.0
C1152 C 0.49637 0.28777 0.72275 0.0
C1153 C 0.48297 0.28171 0.77684 0.0
C1154 C 0.48887 0.28408 0.69285 0.0
C1155 C 0.46184 0.26992 0.6848 0.0
C1156 C 0.47662 0.27729 0.74478 0.0
C1157 C 0.44343 0.25905 0.70742 0.0
C1158 C 0.46312 0.27132 0.79886 0.0
C1159 C 0.51625 0.29983 0.81423 0.0
N1160 N 0.45105 0.26306 0.73634 0.0
N1161 N 0.50864 0.29584 0.7853 0.0
H1162 H 0.50373 1.01746 0.59603 0.0
H1163 H 0.45605 0.0413 0.42597 0.0
H1164 H 0.42239 0.0618 0.56868 0.0
H1165 H 0.53793 0.99746 0.45316 0.0
H1166 H 0.44258 0.04828 0.47813 0.0
H1167 H 0.51733 1.01049 0.54387 0.0
C1168 C 0.48907 1.02606 0.57904 0.0
C1169 C 0.46197 0.04028 0.58668 0.0
C1170 C 0.46336 0.03697 0.47272 0.0
C1171 C 0.4769 0.03198 0.52693 0.0
C1172 C 0.47086 0.03281 0.44293 0.0
C1173 C 0.49807 1.01872 0.43524 0.0
C1174 C 0.48327 0.02703 0.49501 0.0
C1175 C 0.51664 1.00836 0.45812 0.0
C1176 C 0.49665 1.02191 0.54926 0.0
C1177 C 0.44359 0.05079 0.56377 0.0
N1178 N 0.50901 1.01282 0.48694 0.0
N1179 N 0.45127 0.04632 0.53497 0.0
H1180 H 0.50325 0.79443 0.17667 0.0
H1181 H 0.45589 0.76891 0.34638 0.0
H1182 H 0.422 0.74979 0.20341 0.0
H1183 H 0.5377 0.81302 0.31979 0.0
H1184 H 0.44218 0.7626 0.29413 0.0
H1185 H 0.5168 0.80103 0.22892 0.0
C1186 C 0.4886 0.78569 0.19354 0.0
C1187 C 0.46155 0.77148 0.18572 0.0
C1188 C 0.46299 0.77382 0.2997 0.0
C1189 C 0.47642 0.77935 0.24556 0.0
C1190 C 0.47063 0.7776 0.32954 0.0
C1191 C 0.4979 0.79155 0.33741 0.0
C1192 C 0.48284 0.784 0.27754 0.0
C1193 C 0.51637 0.8022 0.31468 0.0
C1194 C 0.49615 0.78963 0.22338 0.0
C1195 C 0.44317 0.7608 0.20848 0.0
N1196 N 0.50863 0.7981 0.28581 0.0
N1197 N 0.45083 0.76505 0.23734 0.0
H1198 H 0.50007 0.51883 0.09681 0.0
H1199 H 0.45259 0.54215 0.92663 0.0
H1200 H 0.4193 0.56366 0.06925 0.0
H1201 H 0.5336 0.49756 0.95421 0.0
H1202 H 0.43925 0.54956 0.97874 0.0
H1203 H 0.5135 0.51151 0.0447 0.0
C1204 C 0.48552 0.52747 0.07978 0.0
C1205 C 0.45861 0.54192 0.08734 0.0
C1206 C 0.4598 0.53799 0.97342 0.0
C1207 C 0.47332 0.53321 0.02766 0.0
C1208 C 0.46722 0.53358 0.94367 0.0
C1209 C 0.49416 0.51916 0.93612 0.0
C1210 C 0.47954 0.52798 0.99579 0.0
C1211 C 0.51251 0.50871 0.95907 0.0
C1212 C 0.49299 0.52311 0.05003 0.0
C1213 C 0.44036 0.55248 0.06438 0.0
N1214 N 0.50498 0.51343 0.98784 0.0
N1215 N 0.44792 0.5478 0.03561 0.0
H1216 H 0.3764 0.06709 0.95662 0.0
H1217 H 0.34241 0.98786 0.81067 0.0
H1218 H 0.36234 0.98925 0.95971 0.0
H1219 H 0.33408 0.06614 0.81464 0.0
H1220 H 0.35247 0.98715 0.86433 0.0
H1221 H 0.3664 0.06626 0.90329 0.0
C1222 C 0.37184 0.04972 0.94597 0.0
C1223 C 0.37032 0.02819 0.96266 0.0
C1224 C 0.34807 1.00444 0.85348 0.0
C1225 C 0.35812 0.02715 0.90148 0.0
C1226 C 0.34203 1.00484 0.82291 0.0
C1227 C 0.33721 0.02708 0.80816 0.0
C1228 C 0.34973 0.02648 0.86933 0.0
C1229 C 0.33746 0.04856 0.82508 0.0
C1230 C 0.36574 0.04929 0.91553 0.0
C1231 C 0.36395 1.00626 0.94766 0.0
N1232 N 0.34392 0.04774 0.85462 0.0
N1233 N 0.35796 1.00629 0.91793 0.0
H1234 H 0.83073 0.2419 0.95981 0.0
H1235 H 0.86779 0.31807 0.81246 0.0
H1236 H 0.85153 0.3189 0.96258 0.0
H1237 H 0.87451 0.23981 0.8187 0.0
H1238 H 0.85803 0.31998 0.86617 0.0
H1239 H 0.84001 0.24213 0.90644 0.0
C1240 C 0.83662 0.25899 0.94908 0.0
C1241 C 0.8403 0.28042 0.96572 0.0
C1242 C 0.86202 0.30244 0.85579 0.0
C1243 C 0.85167 0.28074 0.90442 0.0
C1244 C 0.86787 0.30135 0.8252 0.0
C1245 C 0.87215 0.27874 0.81109 0.0
C1246 C 0.85994 0.28074 0.87225 0.0
C1247 C 0.87153 0.25763 0.82862 0.0
C1248 C 0.84231 0.25906 0.91861 0.0
C1249 C 0.84824 0.30199 0.95058 0.0
N1250 N 0.86522 0.25914 0.85813 0.0
N1251 N 0.85381 0.3016 0.92078 0.0
H1252 H 0.38042 0.24709 0.3137 0.0
H1253 H 0.34218 0.32378 0.46059 0.0
H1254 H 0.35994 0.32415 0.31109 0.0
H1255 H 0.33682 0.24541 0.45514 0.0
H1256 H 0.35213 0.32536 0.40693 0.0
H1257 H 0.37078 0.24729 0.36708 0.0
C1258 C 0.37454 0.26418 0.32447 0.0
C1259 C 0.37106 0.28565 0.3079 0.0
C1260 C 0.3484 0.30786 0.41746 0.0
C1261 C 0.35928 0.28594 0.36911 0.0
C1262 C 0.34244 0.30695 0.44802 0.0
C1263 C 0.33849 0.28443 0.46234 0.0
C1264 C 0.35091 0.28605 0.40124 0.0
C1265 C 0.33952 0.26318 0.44504 0.0
C1266 C 0.36863 0.26423 0.35493 0.0
C1267 C 0.36305 0.30721 0.32305 0.0
N1268 N 0.34593 0.2645 0.41554 0.0
N1269 N 0.35731 0.30681 0.3528 0.0
H1270 H 0.84156 0.98179 0.31109 0.0
H1271 H 0.87957 0.05966 0.45726 0.0
H1272 H 0.8357 0.06017 0.31574 0.0
H1273 H 0.86236 0.98217 0.46008 0.0
H1274 H 0.86932 0.05921 0.40397 0.0
H1275 H 0.85216 0.98062 0.36465 0.0
C1276 C 0.84184 0.9987 0.32347 0.0
C1277 C 0.83756 1.0211 0.30894 0.0
C1278 C 0.86803 0.04224 0.41614 0.0
C1279 C 0.8507 1.01996 0.36996 0.0
C1280 C 0.87428 0.04244 0.44655 0.0
C1281 C 0.8719 1.02091 0.46316 0.0
C1282 C 0.85941 1.02032 0.40204 0.0
C1283 C 0.86462 0.99917 0.44809 0.0
C1284 C 0.84819 0.99804 0.35398 0.0
C1285 C 0.83865 0.04248 0.32601 0.0
N1286 N 0.8585 0.99942 0.41839 0.0
N1287 N 0.8454 0.04139 0.35548 0.0
H1288 H 0.59192 0.07149 0.06017 0.0
H1289 H 0.62781 0.99331 0.20638 0.0
H1290 H 0.58399 0.99322 0.06491 0.0
H1291 H 0.61178 0.07095 0.20935 0.0
H1292 H 0.6176 0.99388 0.1531 0.0
H1293 H 0.60219 0.0726 0.1138 0.0
C1294 C 0.59167 0.0546 0.07258 0.0
C1295 C 0.58693 0.03223 0.05807 0.0
C1296 C 0.61655 1.01086 0.1653 0.0
C1297 C 0.59969 0.0333 0.11915 0.0
C1298 C 0.62277 1.01058 0.19571 0.0
C1299 C 0.62073 0.03212 0.21235 0.0
C1300 C 0.6083 0.03286 0.15123 0.0
C1301 C 0.61378 0.05394 0.19732 0.0
C1302 C 0.59782 0.05523 0.10312 0.0
C1303 C 0.58732 1.01088 0.07518 0.0
N1304 N 0.60769 0.05375 0.16763 0.0
N1305 N 0.59391 1.01193 0.10467 0.0
H1306 H 0.11787 0.72841 0.06103 0.0
H1307 H 0.07994 0.80663 0.20682 0.0
H1308 H 0.12476 0.80675 0.06566 0.0
H1309 H 0.09817 0.72928 0.21033 0.0
H1310 H 0.09028 0.80595 0.15356 0.0
H1311 H 0.10745 0.72734 0.11463 0.0
C1312 C 0.11786 0.74533 0.07341 0.0
C1313 C 0.12237 0.7677 0.05887 0.0
C1314 C 0.09179 0.78906 0.16588 0.0
C1315 C 0.1094 0.76667 0.11991 0.0
C1316 C 0.08548 0.78939 0.19627 0.0
C1317 C 0.0881 0.76797 0.21307 0.0
C1318 C 0.10069 0.76712 0.15197 0.0
C1319 C 0.09571 0.74619 0.19819 0.0
C1320 C 0.11162 0.74472 0.10394 0.0
C1321 C 0.12163 0.78908 0.07594 0.0
N1322 N 0.10186 0.74632 0.1685 0.0
N1323 N 0.11493 0.78805 0.10541 0.0
H1324 H 0.58017 0.81344 0.70706 0.0
H1325 H 0.61604 0.73535 0.5608 0.0
H1326 H 0.59579 0.73575 0.70997 0.0
H1327 H 0.62575 0.81349 0.56611 0.0
H1328 H 0.60529 0.73419 0.61433 0.0
H1329 H 0.59065 0.81286 0.65382 0.0
C1330 C 0.58516 0.79616 0.69638 0.0
C1331 C 0.58704 0.77461 0.713 0.0
C1332 C 0.61015 0.75154 0.6038 0.0
C1333 C 0.59977 0.77386 0.65195 0.0
C1334 C 0.61659 0.75219 0.57332 0.0
C1335 C 0.62197 0.77455 0.55899 0.0
C1336 C 0.60864 0.77343 0.61994 0.0
C1337 C 0.62193 0.79584 0.57623 0.0
C1338 C 0.59154 0.79588 0.666 0.0
C1339 C 0.59392 0.75277 0.69796 0.0
N1340 N 0.61504 0.79478 0.60565 0.0
N1341 N 0.60017 0.75296 0.6683 0.0
H1342 H 0.12776 0.98611 0.70704 0.0
H1343 H 0.09313 0.06514 0.56102 0.0
H1344 H 0.11253 0.06383 0.7102 0.0
H1345 H 0.08595 0.9868 0.56487 0.0
H1346 H 0.10309 0.0659 0.61472 0.0
H1347 H 0.11797 0.98689 0.65367 0.0
C1348 C 0.12299 1.00344 0.6964 0.0
C1349 C 0.12109 1.02495 0.71314 0.0
C1350 C 0.09897 0.04858 0.60384 0.0
C1351 C 0.10915 1.02593 0.65187 0.0
C1352 C 0.093 0.04815 0.57324 0.0
C1353 C 0.0885 1.02588 0.55844 0.0
C1354 C 0.1009 0.02654 0.61966 0.0
C1355 C 0.08907 1.0044 0.57534 0.0
C1356 C 0.11701 1.00384 0.66593 0.0
C1357 C 0.11444 0.04684 0.69813 0.0
N1358 N 0.09545 1.00526 0.60489 0.0
N1359 N 0.1086 0.04677 0.66838 0.0
H1360 H 0.37518 0.56686 0.45645 0.0
H1361 H 0.34038 0.48798 0.31043 0.0
H1362 H 0.36244 0.48888 0.45929 0.0
H1363 H 0.32963 0.56607 0.31529 0.0
H1364 H 0.35143 0.48712 0.36393 0.0
H1365 H 0.36423 0.56614 0.40327 0.0
C1366 C 0.37073 0.54949 0.44577 0.0
C1367 C 0.36983 0.52789 0.46236 0.0
C1368 C 0.34627 0.50439 0.35332 0.0
C1369 C 0.35655 0.52697 0.40136 0.0
C1370 C 0.33966 0.50487 0.32285 0.0
C1371 C 0.33388 0.52712 0.30839 0.0
C1372 C 0.34754 0.52636 0.36934 0.0
C1373 C 0.33374 0.54848 0.32551 0.0
C1374 C 0.36407 0.54913 0.41542 0.0
C1375 C 0.36356 0.50595 0.44732 0.0
N1376 N 0.34078 0.54759 0.35493 0.0
N1377 N 0.35704 0.50605 0.41769 0.0
H1378 H 0.82987 0.73829 0.45693 0.0
H1379 H 0.8664 0.8163 0.31065 0.0
H1380 H 0.84662 0.81584 0.45976 0.0
H1381 H 0.87256 0.73793 0.31515 0.0
H1382 H 0.85627 0.81743 0.36429 0.0
H1383 H 0.83982 0.73877 0.4036 0.0
C1384 C 0.83501 0.75553 0.44622 0.0
C1385 C 0.83732 0.77707 0.46284 0.0
C1386 C 0.86021 0.80002 0.35357 0.0
C1387 C 0.84946 0.7777 0.40167 0.0
C1388 C 0.86629 0.79938 0.32301 0.0
C1389 C 0.87051 0.77699 0.30842 0.0
C1390 C 0.85791 0.77809 0.36954 0.0
C1391 C 0.86964 0.75561 0.32547 0.0
C1392 C 0.84109 0.75575 0.41578 0.0
C1393 C 0.84441 0.79883 0.44776 0.0
N1394 N 0.86316 0.75668 0.35498 0.0
N1395 N 0.85036 0.7986 0.41805 0.0
H1396 H 0.38106 0.74608 0.81522 0.0
H1397 H 0.34342 0.82448 0.96093 0.0
H1398 H 0.36308 0.82347 0.81165 0.0
H1399 H 0.33603 0.74617 0.95633 0.0
H1400 H 0.35399 0.8255 0.90734 0.0
H1401 H 0.3708 0.74683 0.86849 0.0
C1402 C 0.3756 0.76335 0.82576 0.0
C1403 C 0.373 0.78476 0.80895 0.0
C1404 C 0.34968 0.80813 0.91804 0.0
C1405 C 0.36052 0.78568 0.87004 0.0
C1406 C 0.34335 0.80756 0.94856 0.0
C1407 C 0.33866 0.78521 0.9631 0.0
C1408 C 0.35179 0.78617 0.90209 0.0
C1409 C 0.33931 0.76382 0.94605 0.0
C1410 C 0.36934 0.76371 0.85616 0.0
C1411 C 0.36552 0.80656 0.82381 0.0
N1412 N 0.34608 0.76481 0.91659 0.0
N1413 N 0.35941 0.80646 0.8535 0.0
H1414 H 0.83038 0.55924 0.81758 0.0
H1415 H 0.8587 0.47876 0.96339 0.0
H1416 H 0.8449 0.48147 0.81352 0.0
H1417 H 0.8695 0.55689 0.9602 0.0
H1418 H 0.85023 0.47845 0.90946 0.0
H1419 H 0.83863 0.55783 0.87114 0.0
C1420 C 0.83469 0.54177 0.82805 0.0
C1421 C 0.83686 0.52044 0.81103 0.0
C1422 C 0.85481 0.49561 0.92056 0.0
C1423 C 0.84699 0.51872 0.8725 0.0
C1424 C 0.85992 0.49578 0.95128 0.0
C1425 C 0.865 0.51787 0.96631 0.0
C1426 C 0.85431 0.51774 0.90485 0.0
C1427 C 0.86587 0.53941 0.94956 0.0
C1428 C 0.83979 0.54101 0.85863 0.0
C1429 C 0.84285 0.49834 0.82582 0.0
N1430 N 0.86028 0.53883 0.91988 0.0
N1431 N 0.84781 0.49805 0.8557 0.0
H1432 H 0.61614 0.57127 0.71254 0.0
H1433 H 0.57232 0.49428 0.56712 0.0
H1434 H 0.61894 0.49278 0.70803 0.0
H1435 H 0.59648 0.57071 0.56337 0.0
H1436 H 0.58267 0.49469 0.62045 0.0
H1437 H 0.6052 0.57257 0.65903 0.0
C1438 C 0.61513 0.55435 0.7002 0.0
C1439 C 0.61865 0.53188 0.71474 0.0
C1440 C 0.58544 0.51145 0.60805 0.0
C1441 C 0.60503 0.5332 0.65384 0.0
C1442 C 0.57911 0.5113 0.57763 0.0
C1443 C 0.58347 0.53251 0.56076 0.0
C1444 C 0.59606 0.53301 0.62184 0.0
C1445 C 0.59268 0.55397 0.57557 0.0
C1446 C 0.60858 0.55509 0.66973 0.0
C1447 C 0.61661 0.51051 0.69773 0.0
N1448 N 0.5988 0.55366 0.60524 0.0
N1449 N 0.60963 0.51169 0.66832 0.0
H1450 H 0.07881 0.30562 0.70642 0.0
H1451 H 0.11628 0.22835 0.55987 0.0
H1452 H 0.09801 0.22838 0.70933 0.0
H1453 H 0.12312 0.30667 0.56522 0.0
H1454 H 0.10613 0.22693 0.61351 0.0
H1455 H 0.08864 0.30522 0.65308 0.0
C1456 C 0.08445 0.28846 0.69573 0.0
C1457 C 0.08754 0.267 0.71236 0.0
C1458 C 0.11023 0.24438 0.60296 0.0
C1459 C 0.09953 0.26647 0.65121 0.0
C1460 C 0.11632 0.24519 0.57242 0.0
C1461 C 0.12072 0.26766 0.55808 0.0
C1462 C 0.10806 0.26623 0.61913 0.0
C1463 C 0.12006 0.28893 0.57535 0.0
C1464 C 0.09046 0.28829 0.66529 0.0
C1465 C 0.09522 0.24532 0.69731 0.0
N1466 N 0.11351 0.2877 0.60482 0.0
N1467 N 0.10109 0.24561 0.66758 0.0
H1468 H 0.61597 0.23548 0.06201 0.0
H1469 H 0.58382 0.31363 0.20913 0.0
H1470 H 0.62347 0.31378 0.06658 0.0
H1471 H 0.59907 0.23589 0.21135 0.0
H1472 H 0.59271 0.31316 0.15564 0.0
H1473 H 0.60687 0.23439 0.1158 0.0
C1474 C 0.61634 0.25239 0.07441 0.0
C1475 C 0.62066 0.27475 0.05981 0.0
C1476 C 0.59388 0.29614 0.16773 0.0
C1477 C 0.60926 0.27371 0.12111 0.0
C1478 C 0.58841 0.29636 0.19826 0.0
C1479 C 0.59061 0.27475 0.21474 0.0
C1480 C 0.60151 0.27413 0.15338 0.0
C1481 C 0.59697 0.25295 0.19946 0.0
C1482 C 0.61086 0.25177 0.10505 0.0
C1483 C 0.62046 0.29612 0.0769 0.0
N1484 N 0.60232 0.25319 0.16965 0.0
N1485 N 0.61455 0.29509 0.10651 0.0
H1486 H 0.0811 0.48554 0.06449 0.0
H1487 H 0.11397 0.56479 0.21073 0.0
H1488 H 0.09592 0.5633 0.06144 0.0
H1489 H 0.1217 0.48648 0.20698 0.0
H1490 H 0.10455 0.56547 0.15695 0.0
H1491 H 0.09051 0.48637 0.11793 0.0
C1492 C 0.08571 0.50289 0.07516 0.0
C1493 C 0.08759 0.52439 0.05845 0.0
C1494 C 0.10866 0.54817 0.16788 0.0
C1495 C 0.09909 0.52545 0.11978 0.0
C1496 C 0.11433 0.5478 0.19852 0.0
C1497 C 0.11882 0.52555 0.21336 0.0
C1498 C 0.10704 0.52612 0.15205 0.0
C1499 C 0.11856 0.50406 0.19648 0.0
C1500 C 0.09147 0.50332 0.10567 0.0
C1501 C 0.09404 0.54631 0.0735 0.0
N1502 N 0.11248 0.50486 0.16687 0.0
N1503 N 0.09966 0.54627 0.10328 0.0
H1504 H 0.28422 0.21313 0.16803 0.0
H1505 H 0.39021 0.10069 0.10724 0.0
H1506 H 0.38909 0.20909 0.16811 0.0
H1507 H 0.28534 0.10061 0.10232 0.0
H1508 H 0.38857 0.14031 0.13101 0.0
H1509 H 0.28231 0.1725 0.14446 0.0
C1510 C 0.30677 0.20378 0.16295 0.0
C1511 C 0.33688 0.21446 0.17014 0.0
C1512 C 0.36576 0.13178 0.12488 0.0
C1513 C 0.3349 0.16814 0.14353 0.0
C1514 C 0.36671 0.10902 0.1113 0.0
C1515 C 0.3379 0.09735 0.10261 0.0
C1516 C 0.33572 0.14332 0.12991 0.0
C1517 C 0.30815 0.10903 0.10867 0.0
C1518 C 0.30567 0.1806 0.14963 0.0
C1519 C 0.36533 0.20158 0.16312 0.0
N1520 N 0.3078 0.13149 0.12185 0.0
N1521 N 0.3636 0.17923 0.15037 0.0
H1522 H 0.81709 0.09374 0.16381 0.0
H1523 H 0.9246 0.20558 0.10381 0.0
H1524 H 0.92196 0.09329 0.16848 0.0
H1525 H 0.81984 0.20153 0.09973 0.0
H1526 H 0.92556 0.1649 0.12703 0.0
H1527 H 0.81898 0.13309 0.13921 0.0
C1528 C 0.84064 0.10192 0.15952 0.0
C1529 C 0.8694 0.09024 0.16838 0.0
C1530 C 0.90242 0.17296 0.12102 0.0
C1531 C 0.87183 0.13582 0.14014 0.0
C1532 C 0.90185 0.19617 0.10786 0.0
C1533 C 0.87208 0.20695 0.0998 0.0
C1534 C 0.87299 0.1605 0.12613 0.0
C1535 C 0.84335 0.19396 0.10551 0.0
C1536 C 0.84171 0.1245 0.14545 0.0
C1537 C 0.8992 0.10171 0.16202 0.0
N1538 N 0.84455 0.17155 0.11824 0.0
N1539 N 0.89966 0.12397 0.14842 0.0
H1540 H 0.56738 0.84786 0.85653 0.0
H1541 H 0.67334 0.96031 0.91759 0.0
H1542 H 0.67227 0.84754 0.85222 0.0
H1543 H 0.56846 0.95645 0.91692 0.0
H1544 H 0.6753 0.91966 0.89401 0.0
H1545 H 0.56902 0.88762 0.87996 0.0
C1546 C 0.59089 0.85617 0.86065 0.0
C1547 C 0.61971 0.84437 0.85224 0.0
C1548 C 0.65193 0.92781 0.89901 0.0
C1549 C 0.62188 0.89051 0.87918 0.0
C1550 C 0.6508 0.95101 0.91233 0.0
C1551 C 0.62067 0.96174 0.91934 0.0
C1552 C 0.62271 0.91539 0.89272 0.0
C1553 C 0.59224 0.94891 0.91209 0.0
C1554 C 0.59184 0.87901 0.87403 0.0
C1555 C 0.64946 0.85604 0.85835 0.0
N1556 N 0.59399 0.92655 0.89934 0.0
N1557 N 0.64981 0.87858 0.87136 0.0
H1558 H 0.14153 0.84144 0.91511 0.0
H1559 H 0.0348 0.95341 0.85385 0.0
H1560 H 0.03667 0.84083 0.91984 0.0
H1561 H 0.1397 0.94998 0.85491 0.0
H1562 H 0.03306 0.91278 0.87751 0.0
H1563 H 0.13956 0.88113 0.89157 0.0
C1564 C 0.11796 0.84967 0.91106 0.0
C1565 C 0.08925 0.83781 0.91963 0.0
C1566 C 0.05639 0.92103 0.87259 0.0
C1567 C 0.08668 0.88388 0.89256 0.0
C1568 C 0.05739 0.94421 0.85921 0.0
C1569 C 0.08746 0.95505 0.85228 0.0
C1570 C 0.08568 0.90874 0.87899 0.0
C1571 C 0.11596 0.94235 0.85966 0.0
C1572 C 0.11682 0.87248 0.89762 0.0
C1573 C 0.0594 0.84938 0.91359 0.0
N1574 N 0.11433 0.92001 0.87244 0.0
N1575 N 0.05886 0.87188 0.90052 0.0
H1576 H 0.39229 0.70968 0.6665 0.0
H1577 H 0.28459 0.59875 0.60376 0.0
H1578 H 0.28737 0.71126 0.66969 0.0
H1579 H 0.38953 0.60158 0.60486 0.0
H1580 H 0.28326 0.63924 0.62781 0.0
H1581 H 0.39008 0.66999 0.64292 0.0
C1582 C 0.36866 0.70167 0.66211 0.0
C1583 C 0.34 0.7138 0.67022 0.0
C1584 C 0.3065 0.63089 0.62281 0.0
C1585 C 0.33714 0.66775 0.6431 0.0
C1586 C 0.30727 0.60778 0.60921 0.0
C1587 C 0.33723 0.59683 0.60216 0.0
C1588 C 0.33592 0.64297 0.62934 0.0
C1589 C 0.36586 0.60931 0.60969 0.0
C1590 C 0.36738 0.67886 0.64864 0.0
C1591 C 0.31008 0.70249 0.66379 0.0
N1592 N 0.36446 0.63158 0.62269 0.0
N1593 N 0.30939 0.68 0.65068 0.0
H1594 H 0.81684 0.70396 0.60642 0.0
H1595 H 0.92289 0.59209 0.66891 0.0
H1596 H 0.92177 0.70456 0.60322 0.0
H1597 H 0.81805 0.59648 0.66998 0.0
H1598 H 0.92471 0.63245 0.6447 0.0
H1599 H 0.81842 0.6644 0.63037 0.0
C1600 C 0.84034 0.69576 0.61089 0.0
C1601 C 0.86919 0.70758 0.60266 0.0
C1602 C 0.90137 0.62449 0.65022 0.0
C1603 C 0.8713 0.66169 0.63021 0.0
C1604 C 0.90032 0.60145 0.66391 0.0
C1605 C 0.87025 0.59095 0.67158 0.0
C1606 C 0.87214 0.63698 0.6442 0.0
C1607 C 0.84179 0.60385 0.66464 0.0
C1608 C 0.84125 0.67303 0.62458 0.0
C1609 C 0.89893 0.69605 0.60921 0.0
N1610 N 0.84347 0.62606 0.65149 0.0
N1611 N 0.89925 0.67364 0.62251 0.0
H1612 H 0.57223 0.34396 0.36443 0.0
H1613 H 0.67561 0.45886 0.42219 0.0
H1614 H 0.67657 0.34665 0.35439 0.0
H1615 H 0.57232 0.44821 0.43379 0.0
H1616 H 0.67867 0.41846 0.39784 0.0
H1617 H 0.57382 0.38234 0.39097 0.0
C1618 C 0.59562 0.35265 0.36797 0.0
C1619 C 0.62426 0.34215 0.35704 0.0
C1620 C 0.65545 0.42505 0.40587 0.0
C1621 C 0.62641 0.38673 0.38748 0.0
C1622 C 0.6537 0.44807 0.41969 0.0
C1623 C 0.62368 0.45691 0.43008 0.0
C1624 C 0.62694 0.411 0.4025 0.0
C1625 C 0.59604 0.44224 0.42624 0.0
C1626 C 0.59656 0.37469 0.38317 0.0
C1627 C 0.6539 0.3542 0.36249 0.0
N1628 N 0.59838 0.42021 0.41285 0.0
N1629 N 0.65423 0.37602 0.37717 0.0
H1630 H 0.13986 0.34212 0.41486 0.0
H1631 H 0.033 0.45431 0.35437 0.0
H1632 H 0.035 0.34148 0.41955 0.0
H1633 H 0.1379 0.4507 0.35467 0.0
H1634 H 0.03135 0.41363 0.37787 0.0
H1635 H 0.13788 0.38187 0.39147 0.0
C1636 C 0.11629 0.35036 0.41084 0.0
C1637 C 0.08758 0.33848 0.41934 0.0
C1638 C 0.05466 0.42185 0.37281 0.0
C1639 C 0.085 0.38461 0.39246 0.0
C1640 C 0.05561 0.44506 0.35953 0.0
C1641 C 0.08565 0.45587 0.35244 0.0
C1642 C 0.08397 0.4095 0.37897 0.0
C1643 C 0.11418 0.4431 0.35956 0.0
C1644 C 0.11515 0.3732 0.39748 0.0
C1645 C 0.05773 0.35005 0.41334 0.0
N1646 N 0.1126 0.42073 0.37226 0.0
N1647 N 0.05719 0.37259 0.40036 0.0
H1648 H 0.89173 0.09378 0.60742 0.0
H1649 H 0.78602 0.20594 0.66969 0.0
H1650 H 0.78685 0.09374 0.60294 0.0
H1651 H 0.89081 0.20105 0.6714 0.0
H1652 H 0.78403 0.1656 0.64532 0.0
H1653 H 0.89019 0.13319 0.63174 0.0
C1654 C 0.86825 0.10207 0.61168 0.0
C1655 C 0.8394 0.09045 0.60298 0.0
C1656 C 0.80739 0.17345 0.65103 0.0
C1657 C 0.83734 0.13619 0.63096 0.0
C1658 C 0.80854 0.19647 0.66481 0.0
C1659 C 0.83864 0.20683 0.67269 0.0
C1660 C 0.83656 0.16085 0.64512 0.0
C1661 C 0.86704 0.1938 0.66589 0.0
C1662 C 0.86736 0.12472 0.62559 0.0
C1663 C 0.80968 0.1021 0.60929 0.0
N1664 N 0.86527 0.17163 0.65266 0.0
N1665 N 0.80939 0.12443 0.62281 0.0
H1666 H 0.42443 0.21226 0.60336 0.0
H1667 H 0.31773 0.10016 0.66411 0.0
H1668 H 0.31955 0.20843 0.603 0.0
H1669 H 0.42261 0.09963 0.66885 0.0
H1670 H 0.31962 0.13986 0.64056 0.0
H1671 H 0.4261 0.17169 0.62713 0.0
C1672 C 0.40183 0.20298 0.60843 0.0
C1673 C 0.37179 0.21369 0.60107 0.0
C1674 C 0.34238 0.13121 0.64661 0.0
C1675 C 0.37349 0.16745 0.62791 0.0
C1676 C 0.34129 0.1084 0.66006 0.0
C1677 C 0.37003 0.09657 0.66862 0.0
C1678 C 0.3725 0.14263 0.64155 0.0
C1679 C 0.39985 0.10816 0.6626 0.0
C1680 C 0.40279 0.17983 0.62186 0.0
C1681 C 0.34327 0.2009 0.60809 0.0
N1682 N 0.40034 0.13065 0.64952 0.0
N1683 N 0.34486 0.17859 0.62095 0.0
H1684 H 0.06754 0.84296 0.35537 0.0
H1685 H 0.17439 0.95442 0.41793 0.0
H1686 H 0.17248 0.84155 0.35277 0.0
H1687 H 0.06948 0.95134 0.41625 0.0
H1688 H 0.17606 0.91379 0.39423 0.0
H1689 H 0.06947 0.88274 0.37874 0.0
C1690 C 0.09112 0.85103 0.35985 0.0
C1691 C 0.11987 0.83892 0.35195 0.0
C1692 C 0.15274 0.92212 0.39903 0.0
C1693 C 0.12239 0.88508 0.37883 0.0
C1694 C 0.15179 0.9453 0.41242 0.0
C1695 C 0.12173 0.95623 0.4192 0.0
C1696 C 0.12342 0.90993 0.39242 0.0
C1697 C 0.09321 0.94363 0.41162 0.0
C1698 C 0.09223 0.87389 0.3732 0.0
C1699 C 0.14971 0.8503 0.3585 0.0
N1700 N 0.0948 0.9213 0.39881 0.0
N1701 N 0.15024 0.87284 0.37148 0.0
H1702 H 0.53637 0.84718 0.41844 0.0
H1703 H 0.64163 0.95955 0.35656 0.0
H1704 H 0.64119 0.85177 0.41917 0.0
H1705 H 0.53672 0.95947 0.35249 0.0
H1706 H 0.64031 0.92005 0.38064 0.0
H1707 H 0.53425 0.88765 0.39453 0.0
C1708 C 0.55887 0.85662 0.41344 0.0
C1709 C 0.58902 0.84614 0.42089 0.0
C1710 C 0.61743 0.92852 0.37463 0.0
C1711 C 0.5868 0.89227 0.39388 0.0
C1712 C 0.61819 0.95121 0.36087 0.0
C1713 C 0.58926 0.9628 0.35234 0.0
C1714 C 0.58746 0.91699 0.38 0.0
C1715 C 0.5596 0.95112 0.35871 0.0
C1716 C 0.55765 0.87971 0.39992 0.0
C1717 C 0.6174 0.85913 0.41397 0.0
N1718 N 0.55943 0.92874 0.37206 0.0
N1719 N 0.61556 0.88139 0.401 0.0
H1720 H 0.78183 0.5913 0.10618 0.0
H1721 H 0.88982 0.70378 0.164 0.0
H1722 H 0.88666 0.595 0.10306 0.0
H1723 H 0.78498 0.70452 0.16922 0.0
H1724 H 0.88763 0.66398 0.14057 0.0
H1725 H 0.7809 0.63218 0.129 0.0
C1726 C 0.8046 0.60064 0.11041 0.0
C1727 C 0.83438 0.58975 0.10264 0.0
C1728 C 0.86496 0.67271 0.14669 0.0
C1729 C 0.83351 0.63641 0.12846 0.0
C1730 C 0.86621 0.69557 0.16007 0.0
C1731 C 0.83756 0.70748 0.16874 0.0
C1732 C 0.83477 0.66133 0.14185 0.0
C1733 C 0.80767 0.69594 0.16288 0.0
C1734 C 0.80405 0.62398 0.12332 0.0
C1735 C 0.86313 0.60265 0.10857 0.0
N1736 N 0.80703 0.6734 0.14991 0.0
N1737 N 0.86194 0.62518 0.121 0.0
H1738 H 0.3147 0.60264 0.16651 0.0
H1739 H 0.42332 0.71302 0.10411 0.0
H1740 H 0.41962 0.60042 0.16961 0.0
H1741 H 0.31836 0.71064 0.10508 0.0
H1742 H 0.42435 0.67257 0.1282 0.0
H1743 H 0.31727 0.64239 0.14321 0.0
C1744 C 0.33841 0.61053 0.16216 0.0
C1745 C 0.36696 0.59819 0.17015 0.0
C1746 C 0.40117 0.68101 0.12316 0.0
C1747 C 0.37023 0.6443 0.14334 0.0
C1748 C 0.40058 0.7041 0.10955 0.0
C1749 C 0.37069 0.71514 0.10244 0.0
C1750 C 0.37166 0.66907 0.12964 0.0
C1751 C 0.34197 0.70281 0.10994 0.0
C1752 C 0.33989 0.63337 0.14885 0.0
C1753 C 0.39699 0.60935 0.16378 0.0
N1754 N 0.3432 0.68056 0.12297 0.0
N1755 N 0.39788 0.63187 0.15082 0.0
H1756 H 0.17317 0.45358 0.91653 0.0
H1757 H 0.06762 0.34085 0.85565 0.0
H1758 H 0.06832 0.44936 0.91655 0.0
H1759 H 0.17251 0.34088 0.85133 0.0
H1760 H 0.06905 0.3806 0.87915 0.0
H1761 H 0.1752 0.41297 0.8929 0.0
C1762 C 0.15065 0.44421 0.91141 0.0
C1763 C 0.12051 0.45483 0.91862 0.0
C1764 C 0.0919 0.37207 0.8732 0.0
C1765 C 0.12262 0.40852 0.89193 0.0
C1766 C 0.09108 0.34923 0.85979 0.0
C1767 C 0.11997 0.33754 0.85136 0.0
C1768 C 0.12189 0.38366 0.87836 0.0
C1769 C 0.14965 0.3493 0.85748 0.0
C1770 C 0.15181 0.42103 0.89805 0.0
C1771 C 0.0921 0.44191 0.91154 0.0
N1772 N 0.14988 0.37181 0.87052 0.0
N1773 N 0.09389 0.41956 0.89876 0.0
H1774 H 0.64029 0.34893 0.91684 0.0
H1775 H 0.53277 0.46019 0.85477 0.0
H1776 H 0.53536 0.34732 0.9197 0.0
H1777 H 0.6377 0.45766 0.8569 0.0
H1778 H 0.53137 0.4195 0.87827 0.0
H1779 H 0.63814 0.38877 0.89365 0.0
C1780 C 0.61667 0.35696 0.91245 0.0
C1781 C 0.58799 0.34478 0.92037 0.0
C1782 C 0.55463 0.42796 0.87362 0.0
C1783 C 0.58521 0.391 0.89371 0.0
C1784 C 0.55543 0.45118 0.86034 0.0
C1785 C 0.58541 0.46228 0.85374 0.0
C1786 C 0.58402 0.4159 0.88027 0.0
C1787 C 0.61402 0.44981 0.86139 0.0
C1788 C 0.61543 0.37986 0.89921 0.0
C1789 C 0.55808 0.35612 0.91394 0.0
N1790 N 0.61258 0.42743 0.87407 0.0
N1791 N 0.55744 0.37869 0.90107 0.0
H1792 H 0.28235 0.05716 0.97876 0.0
H1793 H 0.09888 0.04248 0.92472 0.0
H1794 H 0.20112 0.04607 0.038 0.0
H1795 H 0.18123 0.04259 0.86522 0.0
H1796 H 0.13516 0.05079 0.96588 0.0
H1797 H 0.24483 0.05904 0.93721 0.0
C1798 C 0.25653 0.05534 0.98315 0.0
C1799 C 0.24489 0.05102 0.01199 0.0
C1800 C 0.14536 0.04915 0.94385 0.0
C1801 C 0.20176 0.05318 0.96414 0.0
C1802 C 0.12467 0.04433 0.9202 0.0
C1803 C 0.13712 0.04135 0.89141 0.0
C1804 C 0.17889 0.05102 0.93888 0.0
C1805 C 0.17063 0.04453 0.88704 0.0
C1806 C 0.23514 0.05642 0.95929 0.0
C1807 C 0.21118 0.04927 0.01619 0.0
N1808 N 0.19046 0.04895 0.91063 0.0
N1809 N 0.19079 0.05009 0.99243 0.0
H1810 H 0.02738 0.25328 0.86353 0.0
H1811 H 0.01036 0.25724 0.03964 0.0
H1812 H 0.10911 0.25042 0.9237 0.0
H1813 H 0.9288 0.25046 0.97964 0.0
H1814 H 0.04727 0.25137 0.99756 0.0
H1815 H -0.00937 0.24848 0.90592 0.0
C1816 C 0.03758 0.2513 0.88552 0.0
C1817 C 0.07125 0.25274 0.89013 0.0
C1818 C 0.02124 0.25096 0.99375 0.0
C1819 C 0.02963 0.24751 0.93861 0.0
C1820 C 0.00022 0.25431 0.01778 0.0
C1821 C 0.96649 0.25475 0.01319 0.0
C1822 C 0.00833 0.24814 0.96503 0.0
C1823 C 0.95465 0.2507 0.98432 0.0
C1824 C 0.01666 0.24864 0.90974 0.0
C1825 C 0.08323 0.24996 0.91913 0.0
N1826 N 0.97552 0.24782 0.96137 0.0
N1827 N 0.06245 0.24778 0.94226 0.0
H1828 H 0.28439 0.25576 0.2936 0.0
H1829 H 0.10007 0.2493 0.34729 0.0
H1830 H 0.20196 0.25853 0.23415 0.0
H1831 H 0.18185 0.25664 0.4068 0.0
H1832 H 0.1375 0.24524 0.30592 0.0
H1833 H 0.24765 0.249 0.33481 0.0
C1834 C 0.25851 0.25484 0.28908 0.0
C1835 C 0.2462 0.25815 0.26026 0.0
C1836 C 0.14733 0.24751 0.32801 0.0
C1837 C 0.20392 0.25029 0.3078 0.0
C1838 C 0.12599 0.24984 0.35174 0.0
C1839 C 0.13789 0.25379 0.38055 0.0
C1840 C 0.18091 0.24918 0.333 0.0
C1841 C 0.17165 0.25381 0.38496 0.0
C1842 C 0.23755 0.25091 0.31277 0.0
C1843 C 0.2125 0.25628 0.25595 0.0
N1844 N 0.19204 0.25187 0.36132 0.0
N1845 N 0.19247 0.25271 0.27956 0.0
H1846 H 0.9245 0.04994 0.29307 0.0
H1847 H 0.10897 0.04418 0.3469 0.0
H1848 H 0.00625 0.04184 0.23367 0.0
H1849 H 0.02681 0.04093 0.40645 0.0
H1850 H 0.07201 0.05045 0.30564 0.0
H1851 H 0.96193 0.05376 0.33444 0.0
C1852 C 0.9504 0.04913 0.2886 0.0
C1853 C 0.96225 0.04514 0.25976 0.0
C1854 C 0.062 0.04854 0.32771 0.0
C1855 C 0.0053 0.04957 0.30745 0.0
C1856 C 0.08307 0.04492 0.3514 0.0
C1857 C 0.07091 0.04156 0.38023 0.0
C1858 C 0.02837 0.04882 0.3327 0.0
C1859 C 0.03721 0.04324 0.38461 0.0
C1860 C 0.97174 0.05135 0.31238 0.0
C1861 C -0.00397 0.04473 0.25549 0.0
N1862 N 0.01704 0.0465 0.36099 0.0
N1863 N 0.01641 0.04666 0.27917 0.0
H1864 H 0.77523 1.00704 0.15871 0.0
H1865 H 0.75564 1.0065 0.98251 0.0
H1866 H 0.85586 1.00281 0.09754 0.0
H1867 H 0.67477 1.00588 0.04372 0.0
H1868 H 0.79279 1.00079 0.02443 0.0
H1869 H 0.73767 1.00201 0.11693 0.0
C1870 C 0.78503 1.00472 0.13662 0.0
C1871 C 0.81865 1.00581 0.13157 0.0
C1872 C 0.76685 1.0017 0.02858 0.0
C1873 C 0.77606 1.00026 0.08374 0.0
C1874 C 0.74567 1.00494 1.00463 0.0
C1875 C 0.71211 1.00708 1.00956 0.0
C1876 C 0.7543 1.00065 0.05758 0.0
C1877 C 0.70052 1.00477 0.03877 0.0
C1878 C 0.76363 1.00194 0.11275 0.0
C1879 C 0.83006 1.00261 0.10246 0.0
N1880 N 0.72157 1.00192 0.06162 0.0
N1881 N 0.80883 1.00025 0.07966 0.0
H1882 H 0.03559 0.79536 0.04411 0.0
H1883 H 0.85091 0.79663 0.09747 0.0
H1884 H 0.95349 0.7913 0.98439 0.0
H1885 H 0.93268 0.78987 0.15709 0.0
H1886 H 0.88831 0.80185 0.05633 0.0
H1887 H -0.00156 0.80031 0.08542 0.0
C1888 C 0.00968 0.79564 0.03955 0.0
C1889 C -0.00238 0.79249 1.01062 0.0
C1890 C 0.89815 0.79942 0.07839 0.0
C1891 C 0.95487 0.79826 0.05827 0.0
C1892 C 0.87682 0.79641 0.102 0.0
C1893 C 0.88873 0.79234 0.13079 0.0
C1894 C 0.93175 0.79834 0.08344 0.0
C1895 C 0.92247 0.79278 0.13527 0.0
C1896 C -0.01151 0.79852 0.0633 0.0
C1897 C 0.96386 0.79348 1.00627 0.0
N1898 N 0.94287 0.79543 0.11173 0.0
N1899 N 0.94361 0.79605 0.02993 0.0
H1900 H 0.7757 0.79394 0.61295 0.0
H1901 H 0.7561 0.79718 0.78909 0.0
H1902 H 0.85637 0.79489 0.6744 0.0
H1903 H 0.67538 0.80146 0.72788 0.0
H1904 H 0.79361 0.80082 0.74717 0.0
H1905 H 0.73853 0.80116 0.65457 0.0
C1906 C 0.78561 0.79594 0.63506 0.0
C1907 C 0.81907 0.79334 0.64023 0.0
C1908 C 0.76764 0.80121 0.743 0.0
C1909 C 0.77694 0.80146 0.68784 0.0
C1910 C 0.74627 0.79918 0.76697 0.0
C1911 C 0.71259 0.79859 0.76203 0.0
C1912 C 0.75519 0.80257 0.71398 0.0
C1913 C 0.70118 0.80137 0.73281 0.0
C1914 C 0.76444 0.80001 0.65883 0.0
C1915 C 0.83065 0.79623 0.66936 0.0
N1916 N 0.72241 0.80296 0.70992 0.0
N1917 N 0.80963 0.79988 0.69203 0.0
H1918 H 0.84999 1.00138 0.67394 0.0
H1919 H 0.0342 0.9959 0.72838 0.0
H1920 H 0.93242 1.00544 0.61478 0.0
H1921 H 0.95204 1.00326 0.78746 0.0
H1922 H -0.00297 0.99196 0.68684 0.0
H1923 H 0.88678 0.99459 0.71521 0.0
C1924 C 0.87591 1.00071 0.66954 0.0
C1925 C 0.88821 1.00448 0.64084 0.0
C1926 C -0.01292 0.99423 0.70887 0.0
C1927 C 0.93053 0.99663 0.68836 0.0
C1928 C 0.00827 0.99652 0.73274 0.0
C1929 C -0.00378 1.00036 0.76155 0.0
C1930 C 0.95347 0.99579 0.71367 0.0
C1931 C 0.96241 1.00051 0.76568 0.0
C1932 C 0.89688 0.99678 0.69322 0.0
C1933 C 0.92192 1.00283 0.63653 0.0
N1934 N 0.94219 0.99854 0.74191 0.0
N1935 N 0.94199 0.9993 0.66016 0.0
H1936 H 0.28238 0.55567 0.47831 0.0
H1937 H 0.09836 0.54339 0.42497 0.0
H1938 H 0.20113 0.54565 0.53782 0.0
H1939 H 0.18036 0.54233 0.36509 0.0
H1940 H 0.13505 0.55117 0.46596 0.0
H1941 H 0.24476 0.55789 0.43687 0.0
C1942 C 0.25654 0.55414 0.48279 0.0
C1943 C 0.24491 0.55005 0.51168 0.0
C1944 C 0.14509 0.54939 0.44389 0.0
C1945 C 0.20167 0.55261 0.46395 0.0
C1946 C 0.12416 0.54488 0.42034 0.0
C1947 C 0.13638 0.54172 0.39148 0.0
C1948 C 0.17864 0.55078 0.43877 0.0
C1949 C 0.16994 0.54443 0.38696 0.0
C1950 C 0.23509 0.55542 0.45898 0.0
C1951 C 0.21118 0.54866 0.51597 0.0
N1952 N 0.19 0.54856 0.41047 0.0
N1953 N 0.19073 0.54968 0.49228 0.0
H1954 H 0.0261 0.75349 0.36364 0.0
H1955 H 0.00607 0.75401 0.53985 0.0
H1956 H 0.10669 0.75291 0.42517 0.0
H1957 H 0.92546 0.74943 0.47853 0.0
H1958 H 0.04364 0.74928 0.49809 0.0
H1959 H -0.01124 0.74759 0.40541 0.0
C1960 C 0.03596 0.75183 0.3858 0.0
C1961 C 0.06946 0.75415 0.39093 0.0
C1962 C 0.01768 0.74908 0.49388 0.0
C1963 C 0.02711 0.74758 0.43874 0.0
C1964 C -0.00373 0.75174 0.51774 0.0
C1965 C 0.96261 0.75253 0.51272 0.0
C1966 C 0.00528 0.74728 0.46486 0.0
C1967 C 0.95125 0.74938 0.48353 0.0
C1968 C 0.01468 0.74853 0.40967 0.0
C1969 C 0.08095 0.75175 0.42015 0.0
N1970 N 0.97251 0.74716 0.46075 0.0
N1971 N 0.05983 0.74885 0.44291 0.0
H1972 H 0.2865 0.75493 0.79421 0.0
H1973 H 0.10193 0.74963 0.84755 0.0
H1974 H 0.20428 0.75843 0.73458 0.0
H1975 H 0.18364 0.75609 0.90728 0.0
H1976 H 0.13942 0.74568 0.80621 0.0
H1977 H 0.24954 0.7485 0.83535 0.0
C1978 C 0.26062 0.75423 0.78963 0.0
C1979 C 0.24845 0.75763 0.76078 0.0
C1980 C 0.14922 0.74775 0.82834 0.0
C1981 C 0.20591 0.75017 0.80824 0.0
C1982 C 0.12784 0.75002 0.85205 0.0
C1983 C 0.1397 0.75365 0.88094 0.0
C1984 C 0.1828 0.74916 0.8334 0.0
C1985 C 0.17346 0.75349 0.88539 0.0
C1986 C 0.23954 0.7505 0.81328 0.0
C1987 C 0.21473 0.75608 0.75641 0.0
N1988 N 0.19388 0.7516 0.86177 0.0
N1989 N 0.19458 0.75269 0.77997 0.0
H1990 H 0.10882 0.5452 0.84787 0.0
H1991 H 0.92482 0.55284 0.7937 0.0
H1992 H 0.0263 0.54086 0.90691 0.0
H1993 H 0.00643 0.54206 0.73478 0.0
H1994 H 0.96226 0.5571 0.83499 0.0
H1995 H 0.07214 0.55267 0.8067 0.0
C1996 C 0.08291 0.54595 0.85227 0.0
C1997 C 0.07051 0.54185 0.88086 0.0
C1998 C 0.97203 0.55403 0.81303 0.0
C1999 C 0.02838 0.55053 0.83352 0.0
C2000 C 0.9507 0.55156 0.78933 0.0
C2001 C 0.96252 0.54658 0.76071 0.0
C2002 C 0.00552 0.55154 0.80823 0.0
C2003 C -0.00373 0.54567 0.75646 0.0
C2004 C 0.06201 0.55028 0.82865 0.0
C2005 C 0.03684 0.54368 0.88522 0.0
N2006 N 0.01664 0.54783 0.78009 0.0
N2007 N 0.01684 0.5476 0.86165 0.0
H2008 H 0.75239 0.50529 0.4856 0.0
H2009 H 0.77495 0.50864 0.66176 0.0
H2010 H 0.67366 0.51368 0.54826 0.0
H2011 H 0.85459 0.50264 0.59974 0.0
H2012 H 0.73669 0.50451 0.62043 0.0
H2013 H 0.78988 0.49897 0.52724 0.0
C2014 C 0.74299 0.50568 0.508 0.0
C2015 C 0.71 0.51041 0.51341 0.0
C2016 C 0.76257 0.50386 0.61595 0.0
C2017 C 0.75243 0.5031 0.56098 0.0
C2018 C 0.78436 0.50609 0.63957 0.0
C2019 C 0.81792 0.50646 0.63412 0.0
C2020 C 0.77455 0.50198 0.58681 0.0
C2021 C 0.82885 0.50299 0.60491 0.0
C2022 C 0.76432 0.50205 0.53176 0.0
C2023 C 0.69901 0.51052 0.54292 0.0
N2024 N 0.80724 0.50117 0.58233 0.0
N2025 N 0.72018 0.50709 0.56552 0.0
H2026 H 0.95146 0.29175 0.48324 0.0
H2027 H 0.93424 0.29062 0.65975 0.0
H2028 H 0.03312 0.29496 0.54353 0.0
H2029 H 0.85271 0.29353 0.59935 0.0
H2030 H 0.9711 0.29624 0.61754 0.0
H2031 H 0.91465 0.29633 0.52561 0.0
C2032 C 0.96165 0.29368 0.50525 0.0
C2033 C -0.00463 0.29257 0.5098 0.0
C2034 C 0.94508 0.29587 0.61364 0.0
C2035 C 0.95359 0.29765 0.55833 0.0
C2036 C 0.92409 0.29273 0.63775 0.0
C2037 C 0.89044 0.29114 0.63306 0.0
C2038 C 0.93221 0.29741 0.58476 0.0
C2039 C 0.87856 0.29411 0.60404 0.0
C2040 C 0.94068 0.29625 0.52946 0.0
C2041 C 0.00725 0.29527 0.53888 0.0
N2042 N 0.8994 0.29684 0.58103 0.0
N2043 N -0.01359 0.29743 0.56199 0.0
H2044 H 0.67984 0.30673 0.23195 0.0
H2045 H 0.86126 0.28371 0.17777 0.0
H2046 H 0.76038 0.29179 0.29076 0.0
H2047 H 0.7812 0.29678 0.11777 0.0
H2048 H 0.8258 0.29219 0.21934 0.0
H2049 H 0.71759 0.30909 0.19058 0.0
C2050 C 0.70557 0.3042 0.23627 0.0
C2051 C 0.71695 0.29861 0.26486 0.0
C2052 C 0.81589 0.29333 0.19715 0.0
C2053 C 0.76028 0.30123 0.21734 0.0
C2054 C 0.83609 0.28834 0.17328 0.0
C2055 C 0.82395 0.289 0.14418 0.0
C2056 C 0.78309 0.2989 0.1921 0.0
C2057 C 0.79141 0.29577 0.13984 0.0
C2058 C 0.7271 0.30558 0.21254 0.0
C2059 C 0.75054 0.29597 0.26911 0.0
N2060 N 0.77192 0.30019 0.16365 0.0
N2061 N 0.77101 0.29698 0.24549 0.0
H2062 H 0.84513 0.50189 0.17811 0.0
H2063 H 0.03066 0.49849 0.22902 0.0
H2064 H 0.92609 0.50335 0.11715 0.0
H2065 H 0.94974 0.50395 0.28978 0.0
H2066 H -0.00736 0.49387 0.18823 0.0
H2067 H 0.88289 0.49607 0.21894 0.0
C2068 C 0.87093 0.50082 0.17324 0.0
C2069 C 0.88255 0.50356 0.14416 0.0
C2070 C -0.01686 0.49588 0.21047 0.0
C2071 C 0.926 0.4969 0.19111 0.0
C2072 C 0.00483 0.49857 0.2339 0.0
C2073 C -0.00664 0.50203 0.26297 0.0
C2074 C 0.9496 0.49667 0.21595 0.0
C2075 C 0.95967 0.50152 0.26778 0.0
C2076 C 0.89246 0.49745 0.19666 0.0
C2077 C 0.91611 0.50149 0.13922 0.0
N2078 N 0.93893 0.49917 0.24442 0.0
N2079 N 0.93675 0.49858 0.16257 0.0
H2080 H 0.70317 0.04643 0.53879 0.0
H2081 H 0.68313 0.04612 0.36257 0.0
H2082 H 0.78397 0.04754 0.47752 0.0
H2083 H 0.60268 0.05002 0.42397 0.0
H2084 H 0.72081 0.05112 0.40431 0.0
H2085 H 0.66593 0.05201 0.49693 0.0
C2086 C 0.71311 0.04808 0.51667 0.0
C2087 C 0.74669 0.04613 0.51172 0.0
C2088 C 0.69486 0.05113 0.40854 0.0
C2089 C 0.70436 0.05238 0.46373 0.0
C2090 C 0.67339 0.04836 0.38469 0.0
C2091 C 0.63979 0.0472 0.38982 0.0
C2092 C 0.68252 0.05271 0.43759 0.0
C2093 C 0.62846 0.05029 0.41898 0.0
C2094 C 0.69187 0.05124 0.49275 0.0
C2095 C 0.75821 0.04853 0.48249 0.0
N2096 N 0.64976 0.05264 0.44173 0.0
N2097 N 0.7371 0.05128 0.45965 0.0
H2098 H 0.42579 0.25612 0.47778 0.0
H2099 H 0.61077 0.25344 0.42545 0.0
H2100 H 0.50747 0.26041 0.53794 0.0
H2101 H 0.52942 0.2608 0.36546 0.0
H2102 H 0.57306 0.24852 0.46644 0.0
H2103 H 0.46318 0.25061 0.43678 0.0
C2104 C 0.45165 0.25579 0.4825 0.0
C2105 C 0.46353 0.25917 0.51146 0.0
C2106 C 0.56339 0.25099 0.44432 0.0
C2107 C 0.50657 0.25274 0.46416 0.0
C2108 C 0.58489 0.25383 0.4208 0.0
C2109 C 0.57319 0.25801 0.39197 0.0
C2110 C 0.52984 0.25236 0.43911 0.0
C2111 C 0.53947 0.25779 0.38732 0.0
C2112 C 0.47298 0.25258 0.45893 0.0
C2113 C 0.49725 0.25807 0.51602 0.0
N2114 N 0.51891 0.25532 0.41077 0.0
N2115 N 0.51765 0.25518 0.49252 0.0
H2116 H 0.70322 0.25488 0.73426 0.0
H2117 H 0.68188 0.25826 0.91028 0.0
H2118 H 0.78336 0.25195 0.79623 0.0
H2119 H 0.60185 0.25782 0.84815 0.0
H2120 H 0.71945 0.25119 0.86896 0.0
H2121 H 0.66534 0.25122 0.77589 0.0
C2122 C 0.71286 0.2532 0.7565 0.0
C2123 C 0.74647 0.25415 0.76172 0.0
C2124 C 0.69359 0.25242 0.86448 0.0
C2125 C 0.70343 0.25011 0.80943 0.0
C2126 C 0.67219 0.25641 0.88808 0.0
C2127 C 0.63879 0.25911 0.88263 0.0
C2128 C 0.6814 0.25114 0.83535 0.0
C2129 C 0.6275 0.25639 0.8534 0.0
C2130 C 0.69126 0.25116 0.78029 0.0
C2131 C 0.75761 0.25176 0.79107 0.0
N2132 N 0.64876 0.25281 0.83088 0.0
N2133 N 0.73617 0.25011 0.81378 0.0
H2134 H 0.42418 0.05588 0.79311 0.0
H2135 H 0.60854 0.05062 0.8471 0.0
H2136 H 0.50622 0.04896 0.73382 0.0
H2137 H 0.52628 0.04686 0.90649 0.0
H2138 H 0.57165 0.05735 0.8059 0.0
H2139 H 0.46145 0.05989 0.83458 0.0
C2140 C 0.4501 0.05537 0.78869 0.0
C2141 C 0.46211 0.05163 0.75986 0.0
C2142 C 0.5616 0.05524 0.82792 0.0
C2143 C 0.50495 0.05628 0.80763 0.0
C2144 C 0.58264 0.05134 0.85157 0.0
C2145 C 0.57041 0.04767 0.88031 0.0
C2146 C 0.52796 0.05546 0.83288 0.0
C2147 C 0.53672 0.04938 0.8847 0.0
C2148 C 0.47135 0.0577 0.81251 0.0
C2149 C 0.4959 0.05163 0.75563 0.0
N2150 N 0.51658 0.05287 0.86112 0.0
N2151 N 0.51618 0.05363 0.77936 0.0
H2152 H 0.17557 0.99801 0.54285 0.0
H2153 H 0.35949 1.00786 0.59717 0.0
H2154 H 0.25741 1.00643 0.48364 0.0
H2155 H 0.27696 1.01029 0.65638 0.0
H2156 H 0.32297 1.00015 0.55596 0.0
H2157 H 0.21287 0.99525 0.58445 0.0
C2158 C 0.20147 0.99909 0.53848 0.0
C2159 C 0.21337 1.0029 0.50963 0.0
C2160 C 0.31279 1.0022 0.57794 0.0
C2161 C 0.25627 0.9997 0.55754 0.0
C2162 C 0.33361 1.00666 0.6016 0.0
C2163 C 0.32118 1.01021 0.63031 0.0
C2164 C 0.27916 1.00128 0.58284 0.0
C2165 C 0.28755 1.00788 0.63463 0.0
C2166 C 0.22274 0.99748 0.56237 0.0
C2167 C 0.24716 1.00367 0.50547 0.0
N2168 N 0.26761 1.00382 0.61103 0.0
N2169 N 0.26745 1.00237 0.52926 0.0
H2170 H 0.35112 0.80232 0.59782 0.0
H2171 H 0.53561 0.80445 0.54405 0.0
H2172 H 0.43333 0.79827 0.65732 0.0
H2173 H 0.45349 0.79898 0.48455 0.0
H2174 H 0.49843 0.80921 0.5854 0.0
H2175 H 0.38815 0.80823 0.55653 0.0
C2176 C 0.37703 0.80283 0.60229 0.0
C2177 C 0.3892 0.79931 0.63109 0.0
C2178 C 0.48848 0.80716 0.56332 0.0
C2179 C 0.43179 0.80612 0.58358 0.0
C2180 C 0.50969 0.80439 0.53956 0.0
C2181 C 0.49763 0.80087 0.5107 0.0
C2182 C 0.45485 0.80638 0.55836 0.0
C2183 C 0.46385 0.80145 0.50639 0.0
C2184 C 0.39815 0.80625 0.5786 0.0
C2185 C 0.42292 0.8007 0.63548 0.0
N2186 N 0.44359 0.80388 0.53006 0.0
N2187 N 0.44312 0.80371 0.61187 0.0
H2188 H 0.27597 0.79748 0.11367 0.0
H2189 H 0.25608 0.79473 0.28987 0.0
H2190 H 0.35648 0.80151 0.17508 0.0
H2191 H 0.17533 0.79605 0.22847 0.0
H2192 H 0.29327 0.80127 0.24818 0.0
H2193 H 0.2383 0.80133 0.15553 0.0
C2194 C 0.28571 0.79952 0.13583 0.0
C2195 C 0.31936 0.79872 0.1409 0.0
C2196 C 0.26735 0.80033 0.24395 0.0
C2197 C 0.27663 0.8029 0.18882 0.0
C2198 C 0.24615 0.79661 0.26777 0.0
C2199 C 0.2126 0.79445 0.26271 0.0
C2200 C 0.25484 0.80184 0.21494 0.0
C2201 C 0.20106 0.79717 0.23352 0.0
C2202 C 0.26425 0.80163 0.15975 0.0
C2203 C 0.33068 0.80152 0.17012 0.0
N2204 N 0.22213 0.80049 0.21079 0.0
N2205 N 0.3094 0.80321 0.19295 0.0
H2206 H 0.45197 1.00991 0.2893 0.0
H2207 H 0.43198 1.0115 0.11308 0.0
H2208 H 0.53248 1.00454 0.22807 0.0
H2209 H 0.35137 1.01112 0.17452 0.0
H2210 H 0.4692 1.00477 0.15481 0.0
H2211 H 0.41431 1.00614 0.24743 0.0
C2212 C 0.46172 1.00764 0.26719 0.0
C2213 C 0.49539 1.00795 0.26222 0.0
C2214 C 0.44329 1.00594 0.15905 0.0
C2215 C 0.45263 1.00384 0.21424 0.0
C2216 C 0.42209 1.00974 0.13521 0.0
C2217 C 0.38861 1.01233 0.14032 0.0
C2218 C 0.43083 1.00477 0.18808 0.0
C2219 C 0.37708 1.00975 0.1695 0.0
C2220 C 0.44026 1.00555 0.24326 0.0
C2221 C 0.50669 1.00485 0.23302 0.0
N2222 N 0.39814 1.00637 0.19223 0.0
N2223 N 0.48539 1.00319 0.21017 0.0
H2224 H 0.67963 0.5462 0.86578 0.0
H2225 H 0.69687 0.54564 0.0422 0.0
H2226 H 0.59812 0.55029 0.926 0.0
H2227 H 0.77833 0.54548 0.98165 0.0
H2228 H 0.66027 0.55217 0.99998 0.0
H2229 H 0.71658 0.55105 0.90803 0.0
C2230 C 0.66951 0.54846 0.88776 0.0
C2231 C 0.63583 0.54734 0.89241 0.0
C2232 C 0.68623 0.55091 0.99605 0.0
C2233 C 0.67771 0.55267 0.94077 0.0
C2234 C 0.70707 0.5472 0.02016 0.0
C2235 C 0.7406 0.54454 0.01546 0.0
C2236 C 0.69912 0.55194 0.96717 0.0
C2237 C 0.75256 0.5469 0.98638 0.0
C2238 C 0.69056 0.55114 0.9119 0.0
C2239 C 0.624 0.55049 0.9214 0.0
N2240 N 0.73184 0.55022 0.96339 0.0
N2241 N 0.64489 0.55271 0.94447 0.0
H2242 H 0.52586 0.75994 0.8635 0.0
H2243 H 0.50687 0.76083 0.03973 0.0
H2244 H 0.60682 0.75741 0.92454 0.0
H2245 H 0.42587 0.75763 0.97871 0.0
H2246 H 0.54409 0.75531 0.99783 0.0
H2247 H 0.4886 0.75464 0.90544 0.0
C2248 C 0.5358 0.75794 0.88559 0.0
C2249 C 0.5694 0.75958 0.89055 0.0
C2250 C 0.51811 0.7556 0.99372 0.0
C2251 C 0.52717 0.75372 0.93855 0.0
C2252 C 0.49691 0.75872 0.01766 0.0
C2253 C 0.46327 0.76011 0.01275 0.0
C2254 C 0.50551 0.75393 0.96477 0.0
C2255 C 0.45167 0.75713 0.98362 0.0
C2256 C 0.51458 0.755 0.90955 0.0
C2257 C 0.58101 0.75678 0.91967 0.0
N2258 N 0.47273 0.75444 0.96078 0.0
N2259 N 0.55995 0.75426 0.94255 0.0
H2260 H 0.68235 0.75813 0.40828 0.0
H2261 H 0.70141 0.7566 0.23198 0.0
H2262 H 0.60161 0.76067 0.34697 0.0
H2263 H 0.78206 0.75017 0.29299 0.0
H2264 H 0.66385 0.75343 0.27393 0.0
H2265 H 0.71906 0.75064 0.36641 0.0
C2266 C 0.67232 0.75687 0.38615 0.0
C2267 C 0.63899 0.76049 0.38112 0.0
C2268 C 0.6898 0.75248 0.27804 0.0
C2269 C 0.68062 0.75202 0.33322 0.0
C2270 C 0.71121 0.75422 0.25406 0.0
C2271 C 0.7449 0.75407 0.25896 0.0
C2272 C 0.70226 0.75064 0.30703 0.0
C2273 C 0.75625 0.75084 0.28811 0.0
C2274 C 0.69323 0.75263 0.36224 0.0
C2275 C 0.62725 0.75851 0.35194 0.0
N2276 N 0.73502 0.74952 0.31102 0.0
N2277 N 0.64804 0.75465 0.32913 0.0
H2278 H 0.42195 0.56046 0.29249 0.0
H2279 H 0.59383 0.51582 0.35045 0.0
H2280 H 0.50155 0.53999 0.23519 0.0
H2281 H 0.52443 0.55133 0.40804 0.0
H2282 H 0.55918 0.52431 0.3085 0.0
H2283 H 0.45855 0.55856 0.33495 0.0
C2284 C 0.44732 0.55594 0.28877 0.0
C2285 C 0.45872 0.55003 0.2603 0.0
C2286 C 0.55146 0.53038 0.33022 0.0
C2287 C 0.50048 0.54756 0.30889 0.0
C2288 C 0.57118 0.52542 0.35437 0.0
C2289 C 0.56211 0.53301 0.38293 0.0
C2290 C 0.52211 0.54285 0.33442 0.0
C2291 C 0.53228 0.5451 0.38644 0.0
C2292 C 0.46813 0.55485 0.31307 0.0
C2293 C 0.49177 0.54461 0.25673 0.0
N2294 N 0.51322 0.54965 0.36237 0.0
N2295 N 0.51141 0.54315 0.28086 0.0
H2296 H 0.35657 0.51296 0.09665 0.0
H2297 H 0.175 0.49208 0.04127 0.0
H2298 H 0.27424 0.50801 0.15593 0.0
H2299 H 0.25623 0.50643 0.9831 0.0
H2300 H 0.21221 0.49038 0.08311 0.0
H2301 H 0.32133 0.5035 0.05531 0.0
C2302 C 0.33099 0.50983 0.1011 0.0
C2303 C 0.31821 0.5118 0.1299 0.0
C2304 C 0.22197 0.49363 0.06119 0.0
C2305 C 0.2776 0.50073 0.08213 0.0
C2306 C 0.20078 0.4946 0.03719 0.0
C2307 C 0.21251 0.49987 1.00863 0.0
C2308 C 0.25518 0.49798 0.05669 0.0
C2309 C 0.24614 0.50249 1.00471 0.0
C2310 C 0.3109 0.50431 0.07732 0.0
C2311 C 0.28503 0.50695 0.1341 0.0
N2312 N 0.26629 0.50183 0.02859 0.0
N2313 N 0.26573 0.50189 0.11035 0.0
H2314 H 0.34821 0.30162 0.09638 0.0
H2315 H 0.53293 0.30498 0.04331 0.0
H2316 H 0.43023 0.29965 0.15626 0.0
H2317 H 0.45134 0.29699 0.98363 0.0
H2318 H 0.49538 0.3101 0.08432 0.0
H2319 H 0.38532 0.30708 0.05505 0.0
C2320 C 0.37409 0.3025 0.10092 0.0
C2321 C 0.3862 0.29971 0.12987 0.0
C2322 C 0.48562 0.30743 0.06227 0.0
C2323 C 0.42887 0.30599 0.08231 0.0
C2324 C 0.50704 0.30445 0.03871 0.0
C2325 C 0.49525 0.3001 1.00992 0.0
C2326 C 0.45205 0.30604 0.05718 0.0
C2327 C 0.46149 0.30011 1.00543 0.0
C2328 C 0.39525 0.30565 0.07721 0.0
C2329 C 0.41987 0.30153 0.13433 0.0
N2330 N 0.44102 0.30275 0.02892 0.0
N2331 N 0.44011 0.30428 0.1107 0.0
H2332 H 0.27659 0.29671 0.61245 0.0
H2333 H 0.25635 0.29465 0.78853 0.0
H2334 H 0.35694 0.30039 0.67407 0.0
H2335 H 0.17569 0.29535 0.72701 0.0
H2336 H 0.29355 0.30123 0.74691 0.0
H2337 H 0.23882 0.30095 0.65416 0.0
C2338 C 0.28628 0.29875 0.63462 0.0
C2339 C 0.31989 0.29773 0.63981 0.0
C2340 C 0.26764 0.30015 0.74262 0.0
C2341 C 0.27706 0.30237 0.68755 0.0
C2342 C 0.24643 0.29641 0.76641 0.0
C2343 C 0.21292 0.29405 0.76129 0.0
C2344 C 0.25519 0.30146 0.7136 0.0
C2345 C 0.2014 0.29662 0.73209 0.0
C2346 C 0.26476 0.30109 0.65846 0.0
C2347 C 0.33116 0.30056 0.66903 0.0
N2348 N 0.2225 0.29995 0.70938 0.0
N2349 N 0.30981 0.30247 0.69178 0.0
H2350 H 0.44992 0.50891 0.7895 0.0
H2351 H 0.4323 0.51207 0.6132 0.0
H2352 H 0.53144 0.50599 0.72912 0.0
H2353 H 0.35093 0.50868 0.67364 0.0
H2354 H 0.46923 0.50557 0.6552 0.0
H2355 H 0.41301 0.5046 0.74715 0.0
C2356 C 0.46006 0.50709 0.76747 0.0
C2357 C 0.49376 0.50824 0.76289 0.0
C2358 C 0.44323 0.50602 0.65915 0.0
C2359 C 0.45187 0.50349 0.71438 0.0
C2360 C 0.4222 0.50967 0.63516 0.0
C2361 C 0.38858 0.5114 0.63996 0.0
C2362 C 0.43042 0.50412 0.688 0.0
C2363 C 0.37676 0.50802 0.6689 0.0
C2364 C 0.43903 0.50468 0.74327 0.0
C2365 C 0.50559 0.50567 0.73378 0.0
N2366 N 0.39763 0.50481 0.6918 0.0
N2367 N 0.48469 0.50368 0.71068 0.0
loop_
_geom_bond_atom_site_label_1
_geom_bond_atom_site_label_2
_geom_bond_distance
_geom_bond_site_symmetry_2
_ccdc_geom_bond_type
Dy0 O4 2.398 1_554 S
Dy0 O5 2.491 1_544 S
Dy0 O6 2.403 . S
Dy0 O7 2.664 . S
Dy0 O11 2.326 . S
Dy0 O15 2.310 1_545 S
Dy0 O16 2.351 . S
C1 O12 1.185 . S
C1 O13 1.355 1_565 S
C2 O4 1.185 . S
C2 O5 1.355 1_545 S
Dy3 O7 2.310 1_565 S
Dy3 O10 2.355 . S
Dy3 O12 2.398 . S
Dy3 O13 2.491 1_565 S
Dy3 O14 2.403 . S
Dy3 O15 2.664 . S
Dy3 O17 2.326 . S
O4 Dy0 2.398 1_556 S
O4 C2 1.185 . S
O5 Dy0 2.491 1_566 S
O5 C2 1.355 1_565 S
O6 Dy0 2.403 . S
O6 C8 1.254 . S
O7 Dy0 2.664 . S
O7 Dy3 2.310 1_545 S
O7 C8 1.268 . S
C8 O6 1.254 . S
C8 O7 1.268 . S
C9 O14 1.254 . S
C9 O15 1.268 . S
O10 Dy3 2.355 . S
O10 C18 1.239 1_565 S
O11 Dy0 2.326 . S
O11 C18 1.267 . S
O12 C1 1.185 . S
O12 Dy3 2.398 . S
O13 C1 1.355 1_545 S
O13 Dy3 2.491 1_545 S
O14 Dy3 2.403 . S
O14 C9 1.254 . S
O15 Dy0 2.310 1_565 S
O15 Dy3 2.664 . S
O15 C9 1.268 . S
O16 Dy0 2.351 . S
O16 C19 1.249 . S
O17 Dy3 2.326 . S
O17 C19 1.267 1_565 S
C18 O10 1.239 1_545 S
C18 O11 1.267 . S
C19 O16 1.249 . S
C19 O17 1.267 1_545 S
Dy20 O24 2.398 1_554 S
Dy20 O25 2.491 1_554 S
Dy20 O26 2.403 . S
Dy20 O27 2.664 . S
Dy20 O31 2.326 . S
Dy20 O35 2.310 . S
Dy20 O36 2.351 . S
C21 O32 1.185 . S
C21 O33 1.355 . S
C22 O24 1.185 . S
C22 O25 1.355 . S
Dy23 O27 2.310 . S
Dy23 O30 2.351 . S
Dy23 O32 2.398 . S
Dy23 O33 2.491 . S
Dy23 O34 2.403 . S
Dy23 O35 2.664 . S
Dy23 O37 2.326 . S
O24 Dy20 2.398 1_556 S
O24 C22 1.185 . S
O25 Dy20 2.491 1_556 S
O25 C22 1.355 . S
O26 Dy20 2.403 . S
O26 C28 1.254 . S
O27 Dy20 2.664 . S
O27 Dy23 2.310 . S
O27 C28 1.268 . S
C28 O26 1.254 . S
C28 O27 1.268 . S
C29 O34 1.254 . S
C29 O35 1.268 . S
O30 Dy23 2.351 . S
O30 C38 1.249 . S
O31 Dy20 2.326 . S
O31 C38 1.267 . S
O32 C21 1.185 . S
O32 Dy23 2.398 . S
O33 C21 1.355 . S
O33 Dy23 2.491 . S
O34 Dy23 2.403 . S
O34 C29 1.254 . S
O35 Dy20 2.310 . S
O35 Dy23 2.664 . S
O35 C29 1.268 . S
O36 Dy20 2.351 . S
O36 C39 1.249 . S
O37 Dy23 2.326 . S
O37 C39 1.267 . S
C38 O30 1.249 . S
C38 O31 1.267 . S
C39 O36 1.249 . S
C39 O37 1.267 . S
Dy40 O44 2.398 . S
Dy40 O45 2.491 . S
Dy40 O46 2.403 . S
Dy40 O47 2.664 . S
Dy40 O51 2.326 . S
Dy40 O55 2.310 . S
Dy40 O56 2.351 . S
C41 O52 1.185 . S
C41 O53 1.355 . S
C42 O44 1.185 . S
C42 O45 1.355 . S
Dy43 O47 2.310 . S
Dy43 O50 2.351 . S
Dy43 O52 2.398 . S
Dy43 O53 2.491 . S
Dy43 O54 2.403 . S
Dy43 O55 2.664 . S
Dy43 O57 2.326 . S
O44 Dy40 2.398 . S
O44 C42 1.185 . S
O45 Dy40 2.491 . S
O45 C42 1.355 . S
O46 Dy40 2.403 . S
O46 C48 1.254 . S
O47 Dy40 2.664 . S
O47 Dy43 2.310 . S
O47 C48 1.268 . S
C48 O46 1.254 . S
C48 O47 1.268 . S
C49 O54 1.254 . S
C49 O55 1.268 . S
O50 Dy43 2.351 . S
O50 C58 1.249 . S
O51 Dy40 2.326 . S
O51 C58 1.267 . S
O52 C41 1.185 . S
O52 Dy43 2.398 . S
O53 C41 1.355 . S
O53 Dy43 2.491 . S
O54 Dy43 2.403 . S
O54 C49 1.254 . S
O55 Dy40 2.310 . S
O55 Dy43 2.664 . S
O55 C49 1.268 . S
O56 Dy40 2.351 . S
O56 C59 1.249 . S
O57 Dy43 2.326 . S
O57 C59 1.267 . S
C58 O50 1.249 . S
C58 O51 1.267 . S
C59 O56 1.249 . S
C59 O57 1.267 . S
Dy60 O64 2.398 . S
Dy60 O65 2.491 1_545 S
Dy60 O66 2.403 . S
Dy60 O67 2.664 . S
Dy60 O71 2.326 . S
Dy60 O75 2.310 1_545 S
Dy60 O76 2.351 . S
C61 O72 1.185 . S
C61 O73 1.355 1_565 S
C62 O64 1.185 . S
C62 O65 1.355 1_545 S
Dy63 O67 2.310 1_565 S
Dy63 O70 2.355 . S
Dy63 O72 2.398 . S
Dy63 O73 2.491 1_565 S
Dy63 O74 2.403 . S
Dy63 O75 2.664 . S
Dy63 O77 2.326 . S
O64 Dy60 2.398 . S
O64 C62 1.185 . S
O65 Dy60 2.491 1_565 S
O65 C62 1.355 1_565 S
O66 Dy60 2.403 . S
O66 C68 1.254 . S
O67 Dy60 2.664 . S
O67 Dy63 2.310 1_545 S
O67 C68 1.268 . S
C68 O66 1.254 . S
C68 O67 1.268 . S
C69 O74 1.254 . S
C69 O75 1.268 . S
O70 Dy63 2.355 . S
O70 C78 1.239 1_565 S
O71 Dy60 2.326 . S
O71 C78 1.267 . S
O72 C61 1.185 . S
O72 Dy63 2.398 . S
O73 C61 1.355 1_545 S
O73 Dy63 2.491 1_545 S
O74 Dy63 2.403 . S
O74 C69 1.254 . S
O75 Dy60 2.310 1_565 S
O75 Dy63 2.664 . S
O75 C69 1.268 . S
O76 Dy60 2.351 . S
O76 C79 1.249 . S
O77 Dy63 2.326 . S
O77 C79 1.267 1_565 S
C78 O70 1.239 1_545 S
C78 O71 1.267 . S
C79 O76 1.249 . S
C79 O77 1.267 1_545 S
Dy80 O84 2.398 . S
Dy80 O85 2.491 1_545 S
Dy80 O86 2.403 . S
Dy80 O87 2.664 . S
Dy80 O91 2.326 . S
Dy80 O95 2.310 1_545 S
Dy80 O96 2.355 . S
C81 O92 1.185 . S
C81 O93 1.355 1_565 S
C82 O84 1.185 . S
C82 O85 1.355 1_545 S
Dy83 O87 2.310 1_565 S
Dy83 O90 2.351 . S
Dy83 O92 2.398 1_556 S
Dy83 O93 2.491 1_566 S
Dy83 O94 2.403 . S
Dy83 O95 2.664 . S
Dy83 O97 2.326 . S
O84 Dy80 2.398 . S
O84 C82 1.185 . S
O85 Dy80 2.491 1_565 S
O85 C82 1.355 1_565 S
O86 Dy80 2.403 . S
O86 C88 1.254 . S
O87 Dy80 2.664 . S
O87 Dy83 2.310 1_545 S
O87 C88 1.268 . S
C88 O86 1.254 . S
C88 O87 1.268 . S
C89 O94 1.254 . S
C89 O95 1.268 . S
O90 Dy83 2.351 . S
O90 C98 1.249 . S
O91 Dy80 2.326 . S
O91 C98 1.267 1_545 S
O92 C81 1.185 . S
O92 Dy83 2.398 1_554 S
O93 C81 1.355 1_545 S
O93 Dy83 2.491 1_544 S
O94 Dy83 2.403 . S
O94 C89 1.254 . S
O95 Dy80 2.310 1_565 S
O95 Dy83 2.664 . S
O95 C89 1.268 . S
O96 Dy80 2.355 . S
O96 C99 1.239 1_545 S
O97 Dy83 2.326 . S
O97 C99 1.267 . S
C98 O90 1.249 . S
C98 O91 1.267 1_565 S
C99 O96 1.239 1_565 S
C99 O97 1.267 . S
Dy100 O104 2.398 . S
Dy100 O105 2.491 . S
Dy100 O106 2.403 . S
Dy100 O107 2.664 . S
Dy100 O111 2.326 . S
Dy100 O115 2.310 . S
Dy100 O116 2.351 . S
C101 O112 1.185 . S
C101 O113 1.355 . S
C102 O104 1.185 . S
C102 O105 1.355 . S
Dy103 O107 2.310 . S
Dy103 O110 2.351 . S
Dy103 O112 2.398 1_556 S
Dy103 O113 2.491 1_556 S
Dy103 O114 2.403 . S
Dy103 O115 2.664 . S
Dy103 O117 2.326 . S
O104 Dy100 2.398 . S
O104 C102 1.185 . S
O105 Dy100 2.491 . S
O105 C102 1.355 . S
O106 Dy100 2.403 . S
O106 C108 1.254 . S
O107 Dy100 2.664 . S
O107 Dy103 2.310 . S
O107 C108 1.268 . S
C108 O106 1.254 . S
C108 O107 1.268 . S
C109 O114 1.254 . S
C109 O115 1.268 . S
O110 Dy103 2.351 . S
O110 C118 1.249 . S
O111 Dy100 2.326 . S
O111 C118 1.267 . S
O112 C101 1.185 . S
O112 Dy103 2.398 1_554 S
O113 C101 1.355 . S
O113 Dy103 2.491 1_554 S
O114 Dy103 2.403 . S
O114 C109 1.254 . S
O115 Dy100 2.310 . S
O115 Dy103 2.664 . S
O115 C109 1.268 . S
O116 Dy100 2.351 . S
O116 C119 1.249 . S
O117 Dy103 2.326 . S
O117 C119 1.267 . S
C118 O110 1.249 . S
C118 O111 1.267 . S
C119 O116 1.249 . S
C119 O117 1.267 . S
Dy120 O124 2.398 . S
Dy120 O125 2.491 . S
Dy120 O126 2.403 . S
Dy120 O127 2.664 . S
Dy120 O131 2.326 . S
Dy120 O135 2.310 . S
Dy120 O136 2.351 . S
C121 O132 1.185 . S
C121 O133 1.355 . S
C122 O124 1.185 . S
C122 O125 1.355 . S
Dy123 O127 2.310 . S
Dy123 O130 2.351 . S
Dy123 O132 2.398 . S
Dy123 O133 2.491 . S
Dy123 O134 2.403 . S
Dy123 O135 2.664 . S
Dy123 O137 2.326 . S
O124 Dy120 2.398 . S
O124 C122 1.185 . S
O125 Dy120 2.491 . S
O125 C122 1.355 . S
O126 Dy120 2.403 . S
O126 C128 1.254 . S
O127 Dy120 2.664 . S
O127 Dy123 2.310 . S
O127 C128 1.268 . S
C128 O126 1.254 . S
C128 O127 1.268 . S
C129 O134 1.254 . S
C129 O135 1.268 . S
O130 Dy123 2.351 . S
O130 C138 1.249 . S
O131 Dy120 2.326 . S
O131 C138 1.267 . S
O132 C121 1.185 . S
O132 Dy123 2.398 . S
O133 C121 1.355 . S
O133 Dy123 2.491 . S
O134 Dy123 2.403 . S
O134 C129 1.254 . S
O135 Dy120 2.310 . S
O135 Dy123 2.664 . S
O135 C129 1.268 . S
O136 Dy120 2.351 . S
O136 C139 1.249 . S
O137 Dy123 2.326 . S
O137 C139 1.267 . S
C138 O130 1.249 . S
C138 O131 1.267 . S
C139 O136 1.249 . S
C139 O137 1.267 . S
Dy140 O144 2.398 . S
Dy140 O145 2.491 1_545 S
Dy140 O146 2.403 . S
Dy140 O147 2.664 . S
Dy140 O151 2.326 . S
Dy140 O155 2.310 1_545 S
Dy140 O156 2.355 . S
C141 O152 1.185 . S
C141 O153 1.355 1_565 S
C142 O144 1.185 . S
C142 O145 1.355 1_545 S
Dy143 O147 2.310 1_565 S
Dy143 O150 2.351 . S
Dy143 O152 2.398 . S
Dy143 O153 2.491 1_565 S
Dy143 O154 2.403 . S
Dy143 O155 2.664 . S
Dy143 O157 2.326 . S
O144 Dy140 2.398 . S
O144 C142 1.185 . S
O145 Dy140 2.491 1_565 S
O145 C142 1.355 1_565 S
O146 Dy140 2.403 . S
O146 C148 1.254 . S
O147 Dy140 2.664 . S
O147 Dy143 2.310 1_545 S
O147 C148 1.268 . S
C148 O146 1.254 . S
C148 O147 1.268 . S
C149 O154 1.254 . S
C149 O155 1.268 . S
O150 Dy143 2.351 . S
O150 C158 1.249 . S
O151 Dy140 2.326 . S
O151 C158 1.267 1_545 S
O152 C141 1.185 . S
O152 Dy143 2.398 . S
O153 C141 1.355 1_545 S
O153 Dy143 2.491 1_545 S
O154 Dy143 2.403 . S
O154 C149 1.254 . S
O155 Dy140 2.310 1_565 S
O155 Dy143 2.664 . S
O155 C149 1.268 . S
O156 Dy140 2.355 . S
O156 C159 1.239 1_545 S
O157 Dy143 2.326 . S
O157 C159 1.267 . S
C158 O150 1.249 . S
C158 O151 1.267 1_565 S
C159 O156 1.239 1_565 S
C159 O157 1.267 . S
Dy160 O164 2.398 . S
Dy160 O165 2.491 . S
Dy160 O166 2.403 . S
Dy160 O167 2.664 . S
Dy160 O171 2.326 . S
Dy160 O175 2.310 . S
Dy160 O176 2.351 . S
C161 O172 1.185 . S
C161 O173 1.355 . S
C162 O164 1.185 . S
C162 O165 1.355 . S
Dy163 O167 2.310 . S
Dy163 O170 2.351 . S
Dy163 O172 2.398 . S
Dy163 O173 2.491 . S
Dy163 O174 2.403 . S
Dy163 O175 2.664 . S
Dy163 O177 2.326 . S
O164 Dy160 2.398 . S
O164 C162 1.185 . S
O165 Dy160 2.491 . S
O165 C162 1.355 . S
O166 Dy160 2.403 . S
O166 C168 1.254 . S
O167 Dy160 2.664 . S
O167 Dy163 2.310 . S
O167 C168 1.268 . S
C168 O166 1.254 . S
C168 O167 1.268 . S
C169 O174 1.254 . S
C169 O175 1.268 . S
O170 Dy163 2.351 . S
O170 C178 1.249 . S
O171 Dy160 2.326 . S
O171 C178 1.267 . S
O172 C161 1.185 . S
O172 Dy163 2.398 . S
O173 C161 1.355 . S
O173 Dy163 2.491 . S
O174 Dy163 2.403 . S
O174 C169 1.254 . S
O175 Dy160 2.310 . S
O175 Dy163 2.664 . S
O175 C169 1.268 . S
O176 Dy160 2.351 . S
O176 C179 1.249 . S
O177 Dy163 2.326 . S
O177 C179 1.267 . S
C178 O170 1.249 . S
C178 O171 1.267 . S
C179 O176 1.249 . S
C179 O177 1.267 . S
Dy180 O184 2.398 . S
Dy180 O185 2.491 . S
Dy180 O186 2.403 . S
Dy180 O187 2.664 . S
Dy180 O191 2.326 . S
Dy180 O195 2.310 . S
Dy180 O196 2.351 . S
C181 O192 1.185 . S
C181 O193 1.355 . S
C182 O184 1.185 . S
C182 O185 1.355 . S
Dy183 O187 2.310 . S
Dy183 O190 2.351 . S
Dy183 O192 2.398 . S
Dy183 O193 2.491 . S
Dy183 O194 2.403 . S
Dy183 O195 2.664 . S
Dy183 O197 2.326 . S
O184 Dy180 2.398 . S
O184 C182 1.185 . S
O185 Dy180 2.491 . S
O185 C182 1.355 . S
O186 Dy180 2.403 . S
O186 C188 1.254 . S
O187 Dy180 2.664 . S
O187 Dy183 2.310 . S
O187 C188 1.268 . S
C188 O186 1.254 . S
C188 O187 1.268 . S
C189 O194 1.254 . S
C189 O195 1.268 . S
O190 Dy183 2.351 . S
O190 C198 1.249 . S
O191 Dy180 2.326 . S
O191 C198 1.267 . S
O192 C181 1.185 . S
O192 Dy183 2.398 . S
O193 C181 1.355 . S
O193 Dy183 2.491 . S
O194 Dy183 2.403 . S
O194 C189 1.254 . S
O195 Dy180 2.310 . S
O195 Dy183 2.664 . S
O195 C189 1.268 . S
O196 Dy180 2.351 . S
O196 C199 1.249 . S
O197 Dy183 2.326 . S
O197 C199 1.267 . S
C198 O190 1.249 . S
C198 O191 1.267 . S
C199 O196 1.249 . S
C199 O197 1.267 . S
Dy200 O204 2.398 . S
Dy200 O205 2.491 . S
Dy200 O206 2.403 . S
Dy200 O207 2.664 . S
Dy200 O211 2.326 . S
Dy200 O215 2.310 . S
Dy200 O216 2.351 . S
C201 O212 1.185 . S
C201 O213 1.355 . S
C202 O204 1.185 . S
C202 O205 1.355 . S
Dy203 O207 2.310 . S
Dy203 O210 2.351 . S
Dy203 O212 2.398 . S
Dy203 O213 2.491 . S
Dy203 O214 2.403 . S
Dy203 O215 2.664 . S
Dy203 O217 2.326 . S
O204 Dy200 2.398 . S
O204 C202 1.185 . S
O205 Dy200 2.491 . S
O205 C202 1.355 . S
O206 Dy200 2.403 . S
O206 C208 1.254 . S
O207 Dy200 2.664 . S
O207 Dy203 2.310 . S
O207 C208 1.268 . S
C208 O206 1.254 . S
C208 O207 1.268 . S
C209 O214 1.254 . S
C209 O215 1.268 . S
O210 Dy203 2.351 . S
O210 C218 1.249 . S
O211 Dy200 2.326 . S
O211 C218 1.267 . S
O212 C201 1.185 . S
O212 Dy203 2.398 . S
O213 C201 1.355 . S
O213 Dy203 2.491 . S
O214 Dy203 2.403 . S
O214 C209 1.254 . S
O215 Dy200 2.310 . S
O215 Dy203 2.664 . S
O215 C209 1.268 . S
O216 Dy200 2.351 . S
O216 C219 1.249 . S
O217 Dy203 2.326 . S
O217 C219 1.267 . S
C218 O210 1.249 . S
C218 O211 1.267 . S
C219 O216 1.249 . S
C219 O217 1.267 . S
Dy220 O224 2.398 . S
Dy220 O225 2.491 . S
Dy220 O226 2.403 . S
Dy220 O227 2.664 . S
Dy220 O231 2.326 . S
Dy220 O235 2.310 . S
Dy220 O236 2.351 . S
C221 O232 1.185 . S
C221 O233 1.355 . S
C222 O224 1.185 . S
C222 O225 1.355 . S
Dy223 O227 2.310 . S
Dy223 O230 2.351 . S
Dy223 O232 2.398 . S
Dy223 O233 2.491 . S
Dy223 O234 2.403 . S
Dy223 O235 2.664 . S
Dy223 O237 2.326 . S
O224 Dy220 2.398 . S
O224 C222 1.185 . S
O225 Dy220 2.491 . S
O225 C222 1.355 . S
O226 Dy220 2.403 . S
O226 C228 1.254 . S
O227 Dy220 2.664 . S
O227 Dy223 2.310 . S
O227 C228 1.268 . S
C228 O226 1.254 . S
C228 O227 1.268 . S
C229 O234 1.254 . S
C229 O235 1.268 . S
O230 Dy223 2.351 . S
O230 C238 1.249 . S
O231 Dy220 2.326 . S
O231 C238 1.267 . S
O232 C221 1.185 . S
O232 Dy223 2.398 . S
O233 C221 1.355 . S
O233 Dy223 2.491 . S
O234 Dy223 2.403 . S
O234 C229 1.254 . S
O235 Dy220 2.310 . S
O235 Dy223 2.664 . S
O235 C229 1.268 . S
O236 Dy220 2.351 . S
O236 C239 1.249 . S
O237 Dy223 2.326 . S
O237 C239 1.267 . S
C238 O230 1.249 . S
C238 O231 1.267 . S
C239 O236 1.249 . S
C239 O237 1.267 . S
Dy240 O244 2.398 . S
Dy240 O245 2.491 . S
Dy240 O246 2.403 . S
Dy240 O247 2.664 . S
Dy240 O251 2.326 . S
Dy240 O255 2.310 . S
Dy240 O256 2.351 . S
C241 O252 1.185 . S
C241 O253 1.355 . S
C242 O244 1.185 . S
C242 O245 1.355 . S
Dy243 O247 2.310 . S
Dy243 O250 2.351 . S
Dy243 O252 2.398 . S
Dy243 O253 2.491 . S
Dy243 O254 2.403 . S
Dy243 O255 2.664 . S
Dy243 O257 2.326 . S
O244 Dy240 2.398 . S
O244 C242 1.185 . S
O245 Dy240 2.491 . S
O245 C242 1.355 . S
O246 Dy240 2.403 . S
O246 C248 1.254 . S
O247 Dy240 2.664 . S
O247 Dy243 2.310 . S
O247 C248 1.268 . S
C248 O246 1.254 . S
C248 O247 1.268 . S
C249 O254 1.254 . S
C249 O255 1.268 . S
O250 Dy243 2.351 . S
O250 C258 1.249 . S
O251 Dy240 2.326 . S
O251 C258 1.267 . S
O252 C241 1.185 . S
O252 Dy243 2.398 . S
O253 C241 1.355 . S
O253 Dy243 2.491 . S
O254 Dy243 2.403 . S
O254 C249 1.254 . S
O255 Dy240 2.310 . S
O255 Dy243 2.664 . S
O255 C249 1.268 . S
O256 Dy240 2.351 . S
O256 C259 1.249 . S
O257 Dy243 2.326 . S
O257 C259 1.267 . S
C258 O250 1.249 . S
C258 O251 1.267 . S
C259 O256 1.249 . S
C259 O257 1.267 . S
Dy260 O264 2.398 . S
Dy260 O265 2.491 . S
Dy260 O266 2.403 . S
Dy260 O267 2.664 . S
Dy260 O271 2.326 . S
Dy260 O275 2.310 . S
Dy260 O276 2.351 . S
C261 O272 1.185 . S
C261 O273 1.355 . S
C262 O264 1.185 . S
C262 O265 1.355 . S
Dy263 O267 2.310 . S
Dy263 O270 2.351 . S
Dy263 O272 2.398 . S
Dy263 O273 2.491 . S
Dy263 O274 2.403 . S
Dy263 O275 2.664 . S
Dy263 O277 2.326 . S
O264 Dy260 2.398 . S
O264 C262 1.185 . S
O265 Dy260 2.491 . S
O265 C262 1.355 . S
O266 Dy260 2.403 . S
O266 C268 1.254 . S
O267 Dy260 2.664 . S
O267 Dy263 2.310 . S
O267 C268 1.268 . S
C268 O266 1.254 . S
C268 O267 1.268 . S
C269 O274 1.254 . S
C269 O275 1.268 . S
O270 Dy263 2.351 . S
O270 C278 1.249 . S
O271 Dy260 2.326 . S
O271 C278 1.267 . S
O272 C261 1.185 . S
O272 Dy263 2.398 . S
O273 C261 1.355 . S
O273 Dy263 2.491 . S
O274 Dy263 2.403 . S
O274 C269 1.254 . S
O275 Dy260 2.310 . S
O275 Dy263 2.664 . S
O275 C269 1.268 . S
O276 Dy260 2.351 . S
O276 C279 1.249 . S
O277 Dy263 2.326 . S
O277 C279 1.267 . S
C278 O270 1.249 . S
C278 O271 1.267 . S
C279 O276 1.249 . S
C279 O277 1.267 . S
Dy280 O284 2.398 . S
Dy280 O285 2.491 . S
Dy280 O286 2.403 . S
Dy280 O287 2.664 . S
Dy280 O291 2.326 . S
Dy280 O295 2.310 . S
Dy280 O296 2.351 . S
C281 O292 1.185 . S
C281 O293 1.355 . S
C282 O284 1.185 . S
C282 O285 1.355 . S
Dy283 O287 2.310 . S
Dy283 O290 2.351 . S
Dy283 O292 2.398 . S
Dy283 O293 2.491 . S
Dy283 O294 2.403 . S
Dy283 O295 2.664 . S
Dy283 O297 2.326 . S
O284 Dy280 2.398 . S
O284 C282 1.185 . S
O285 Dy280 2.491 . S
O285 C282 1.355 . S
O286 Dy280 2.403 . S
O286 C288 1.254 . S
O287 Dy280 2.664 . S
O287 Dy283 2.310 . S
O287 C288 1.268 . S
C288 O286 1.254 . S
C288 O287 1.268 . S
C289 O294 1.254 . S
C289 O295 1.268 . S
O290 Dy283 2.351 . S
O290 C298 1.249 . S
O291 Dy280 2.326 . S
O291 C298 1.267 . S
O292 C281 1.185 . S
O292 Dy283 2.398 . S
O293 C281 1.355 . S
O293 Dy283 2.491 . S
O294 Dy283 2.403 . S
O294 C289 1.254 . S
O295 Dy280 2.310 . S
O295 Dy283 2.664 . S
O295 C289 1.268 . S
O296 Dy280 2.351 . S
O296 C299 1.249 . S
O297 Dy283 2.326 . S
O297 C299 1.267 . S
C298 O290 1.249 . S
C298 O291 1.267 . S
C299 O296 1.249 . S
C299 O297 1.267 . S
Dy300 O304 2.398 . S
Dy300 O305 2.491 . S
Dy300 O306 2.403 . S
Dy300 O307 2.664 . S
Dy300 O311 2.326 . S
Dy300 O315 2.310 . S
Dy300 O316 2.351 . S
C301 O312 1.185 . S
C301 O313 1.355 . S
C302 O304 1.185 . S
C302 O305 1.355 . S
Dy303 O307 2.310 . S
Dy303 O310 2.351 . S
Dy303 O312 2.398 . S
Dy303 O313 2.491 . S
Dy303 O314 2.403 . S
Dy303 O315 2.664 . S
Dy303 O317 2.326 . S
O304 Dy300 2.398 . S
O304 C302 1.185 . S
O305 Dy300 2.491 . S
O305 C302 1.355 . S
O306 Dy300 2.403 . S
O306 C308 1.254 . S
O307 Dy300 2.664 . S
O307 Dy303 2.310 . S
O307 C308 1.268 . S
C308 O306 1.254 . S
C308 O307 1.268 . S
C309 O314 1.254 . S
C309 O315 1.268 . S
O310 Dy303 2.351 . S
O310 C318 1.249 . S
O311 Dy300 2.326 . S
O311 C318 1.267 . S
O312 C301 1.185 . S
O312 Dy303 2.398 . S
O313 C301 1.355 . S
O313 Dy303 2.491 . S
O314 Dy303 2.403 . S
O314 C309 1.254 . S
O315 Dy300 2.310 . S
O315 Dy303 2.664 . S
O315 C309 1.268 . S
O316 Dy300 2.351 . S
O316 C319 1.249 . S
O317 Dy303 2.326 . S
O317 C319 1.267 . S
C318 O310 1.249 . S
C318 O311 1.267 . S
C319 O316 1.249 . S
C319 O317 1.267 . S
Dy320 O324 2.398 . S
Dy320 O325 2.491 1_545 S
Dy320 O326 2.403 . S
Dy320 O327 2.664 . S
Dy320 O331 2.326 . S
Dy320 O335 2.310 1_545 S
Dy320 O336 2.351 . S
C321 O332 1.185 . S
C321 O333 1.355 1_565 S
C322 O324 1.185 . S
C322 O325 1.355 1_545 S
Dy323 O327 2.310 1_565 S
Dy323 O330 2.355 . S
Dy323 O332 2.398 . S
Dy323 O333 2.491 1_565 S
Dy323 O334 2.403 . S
Dy323 O335 2.664 . S
Dy323 O337 2.326 . S
O324 Dy320 2.398 . S
O324 C322 1.185 . S
O325 Dy320 2.491 1_565 S
O325 C322 1.355 1_565 S
O326 Dy320 2.403 . S
O326 C328 1.254 . S
O327 Dy320 2.664 . S
O327 Dy323 2.310 1_545 S
O327 C328 1.268 . S
C328 O326 1.254 . S
C328 O327 1.268 . S
C329 O334 1.254 . S
C329 O335 1.268 . S
O330 Dy323 2.355 . S
O330 C338 1.239 1_565 S
O331 Dy320 2.326 . S
O331 C338 1.267 . S
O332 C321 1.185 . S
O332 Dy323 2.398 . S
O333 C321 1.355 1_545 S
O333 Dy323 2.491 1_545 S
O334 Dy323 2.403 . S
O334 C329 1.254 . S
O335 Dy320 2.310 1_565 S
O335 Dy323 2.664 . S
O335 C329 1.268 . S
O336 Dy320 2.351 . S
O336 C339 1.249 . S
O337 Dy323 2.326 . S
O337 C339 1.267 1_565 S
C338 O330 1.239 1_545 S
C338 O331 1.267 . S
C339 O336 1.249 . S
C339 O337 1.267 1_545 S
Dy340 O344 2.398 . S
Dy340 O345 2.491 . S
Dy340 O346 2.403 . S
Dy340 O347 2.664 . S
Dy340 O351 2.326 . S
Dy340 O355 2.310 . S
Dy340 O356 2.351 . S
C341 O352 1.185 . S
C341 O353 1.355 . S
C342 O344 1.185 . S
C342 O345 1.355 . S
Dy343 O347 2.310 . S
Dy343 O350 2.351 . S
Dy343 O352 2.398 . S
Dy343 O353 2.491 . S
Dy343 O354 2.403 . S
Dy343 O355 2.664 . S
Dy343 O357 2.326 . S
O344 Dy340 2.398 . S
O344 C342 1.185 . S
O345 Dy340 2.491 . S
O345 C342 1.355 . S
O346 Dy340 2.403 . S
O346 C348 1.254 . S
O347 Dy340 2.664 . S
O347 Dy343 2.310 . S
O347 C348 1.268 . S
C348 O346 1.254 . S
C348 O347 1.268 . S
C349 O354 1.254 . S
C349 O355 1.268 . S
O350 Dy343 2.351 . S
O350 C358 1.249 . S
O351 Dy340 2.326 . S
O351 C358 1.267 . S
O352 C341 1.185 . S
O352 Dy343 2.398 . S
O353 C341 1.355 . S
O353 Dy343 2.491 . S
O354 Dy343 2.403 . S
O354 C349 1.254 . S
O355 Dy340 2.310 . S
O355 Dy343 2.664 . S
O355 C349 1.268 . S
O356 Dy340 2.351 . S
O356 C359 1.249 . S
O357 Dy343 2.326 . S
O357 C359 1.267 . S
C358 O350 1.249 . S
C358 O351 1.267 . S
C359 O356 1.249 . S
C359 O357 1.267 . S
Dy360 O364 2.398 . S
Dy360 O365 2.491 . S
Dy360 O366 2.403 . S
Dy360 O367 2.664 . S
Dy360 O371 2.326 . S
Dy360 O375 2.310 . S
Dy360 O376 2.351 . S
C361 O372 1.185 . S
C361 O373 1.355 . S
C362 O364 1.185 . S
C362 O365 1.355 . S
Dy363 O367 2.310 . S
Dy363 O370 2.351 . S
Dy363 O372 2.398 . S
Dy363 O373 2.491 . S
Dy363 O374 2.403 . S
Dy363 O375 2.664 . S
Dy363 O377 2.326 . S
O364 Dy360 2.398 . S
O364 C362 1.185 . S
O365 Dy360 2.491 . S
O365 C362 1.355 . S
O366 Dy360 2.403 . S
O366 C368 1.254 . S
O367 Dy360 2.664 . S
O367 Dy363 2.310 . S
O367 C368 1.268 . S
C368 O366 1.254 . S
C368 O367 1.268 . S
C369 O374 1.254 . S
C369 O375 1.268 . S
O370 Dy363 2.351 . S
O370 C378 1.249 . S
O371 Dy360 2.326 . S
O371 C378 1.267 . S
O372 C361 1.185 . S
O372 Dy363 2.398 . S
O373 C361 1.355 . S
O373 Dy363 2.491 . S
O374 Dy363 2.403 . S
O374 C369 1.254 . S
O375 Dy360 2.310 . S
O375 Dy363 2.664 . S
O375 C369 1.268 . S
O376 Dy360 2.351 . S
O376 C379 1.249 . S
O377 Dy363 2.326 . S
O377 C379 1.267 . S
C378 O370 1.249 . S
C378 O371 1.267 . S
C379 O376 1.249 . S
C379 O377 1.267 . S
Dy380 O384 2.398 . S
Dy380 O385 2.491 1_545 S
Dy380 O386 2.403 . S
Dy380 O387 2.664 . S
Dy380 O391 2.326 . S
Dy380 O395 2.310 1_545 S
Dy380 O396 2.351 . S
C381 O392 1.185 . S
C381 O393 1.355 1_565 S
C382 O384 1.185 . S
C382 O385 1.355 1_545 S
Dy383 O387 2.310 1_565 S
Dy383 O390 2.355 . S
Dy383 O392 2.398 . S
Dy383 O393 2.491 1_565 S
Dy383 O394 2.403 . S
Dy383 O395 2.664 . S
Dy383 O397 2.326 . S
O384 Dy380 2.398 . S
O384 C382 1.185 . S
O385 Dy380 2.491 1_565 S
O385 C382 1.355 1_565 S
O386 Dy380 2.403 . S
O386 C388 1.254 . S
O387 Dy380 2.664 . S
O387 Dy383 2.310 1_545 S
O387 C388 1.268 . S
C388 O386 1.254 . S
C388 O387 1.268 . S
C389 O394 1.254 . S
C389 O395 1.268 . S
O390 Dy383 2.355 . S
O390 C398 1.239 1_565 S
O391 Dy380 2.326 . S
O391 C398 1.267 . S
O392 C381 1.185 . S
O392 Dy383 2.398 . S
O393 C381 1.355 1_545 S
O393 Dy383 2.491 1_545 S
O394 Dy383 2.403 . S
O394 C389 1.254 . S
O395 Dy380 2.310 1_565 S
O395 Dy383 2.664 . S
O395 C389 1.268 . S
O396 Dy380 2.351 . S
O396 C399 1.249 . S
O397 Dy383 2.326 . S
O397 C399 1.267 1_565 S
C398 O390 1.239 1_545 S
C398 O391 1.267 . S
C399 O396 1.249 . S
C399 O397 1.267 1_545 S
Dy400 O404 2.398 . S
Dy400 O405 2.491 1_545 S
Dy400 O406 2.403 . S
Dy400 O407 2.664 . S
Dy400 O411 2.326 . S
Dy400 O415 2.310 1_545 S
Dy400 O416 2.355 . S
C401 O412 1.185 . S
C401 O413 1.355 1_565 S
C402 O404 1.185 . S
C402 O405 1.355 1_545 S
Dy403 O407 2.310 1_565 S
Dy403 O410 2.351 . S
Dy403 O412 2.398 . S
Dy403 O413 2.491 1_565 S
Dy403 O414 2.403 . S
Dy403 O415 2.664 . S
Dy403 O417 2.326 . S
O404 Dy400 2.398 . S
O404 C402 1.185 . S
O405 Dy400 2.491 1_565 S
O405 C402 1.355 1_565 S
O406 Dy400 2.403 . S
O406 C408 1.254 . S
O407 Dy400 2.664 . S
O407 Dy403 2.310 1_545 S
O407 C408 1.268 . S
C408 O406 1.254 . S
C408 O407 1.268 . S
C409 O414 1.254 . S
C409 O415 1.268 . S
O410 Dy403 2.351 . S
O410 C418 1.249 . S
O411 Dy400 2.326 . S
O411 C418 1.267 1_545 S
O412 C401 1.185 . S
O412 Dy403 2.398 . S
O413 C401 1.355 1_545 S
O413 Dy403 2.491 1_545 S
O414 Dy403 2.403 . S
O414 C409 1.254 . S
O415 Dy400 2.310 1_565 S
O415 Dy403 2.664 . S
O415 C409 1.268 . S
O416 Dy400 2.355 . S
O416 C419 1.239 1_545 S
O417 Dy403 2.326 . S
O417 C419 1.267 . S
C418 O410 1.249 . S
C418 O411 1.267 1_565 S
C419 O416 1.239 1_565 S
C419 O417 1.267 . S
Dy420 O424 2.398 . S
Dy420 O425 2.491 . S
Dy420 O426 2.403 . S
Dy420 O427 2.664 . S
Dy420 O431 2.326 . S
Dy420 O435 2.310 . S
Dy420 O436 2.351 . S
C421 O432 1.185 . S
C421 O433 1.355 . S
C422 O424 1.185 . S
C422 O425 1.355 . S
Dy423 O427 2.310 . S
Dy423 O430 2.351 . S
Dy423 O432 2.398 . S
Dy423 O433 2.491 . S
Dy423 O434 2.403 . S
Dy423 O435 2.664 . S
Dy423 O437 2.326 . S
O424 Dy420 2.398 . S
O424 C422 1.185 . S
O425 Dy420 2.491 . S
O425 C422 1.355 . S
O426 Dy420 2.403 . S
O426 C428 1.254 . S
O427 Dy420 2.664 . S
O427 Dy423 2.310 . S
O427 C428 1.268 . S
C428 O426 1.254 . S
C428 O427 1.268 . S
C429 O434 1.254 . S
C429 O435 1.268 . S
O430 Dy423 2.351 . S
O430 C438 1.249 . S
O431 Dy420 2.326 . S
O431 C438 1.267 . S
O432 C421 1.185 . S
O432 Dy423 2.398 . S
O433 C421 1.355 . S
O433 Dy423 2.491 . S
O434 Dy423 2.403 . S
O434 C429 1.254 . S
O435 Dy420 2.310 . S
O435 Dy423 2.664 . S
O435 C429 1.268 . S
O436 Dy420 2.351 . S
O436 C439 1.249 . S
O437 Dy423 2.326 . S
O437 C439 1.267 . S
C438 O430 1.249 . S
C438 O431 1.267 . S
C439 O436 1.249 . S
C439 O437 1.267 . S
Dy440 O444 2.398 . S
Dy440 O445 2.491 . S
Dy440 O446 2.403 . S
Dy440 O447 2.664 . S
Dy440 O451 2.326 . S
Dy440 O455 2.310 . S
Dy440 O456 2.351 . S
C441 O452 1.185 . S
C441 O453 1.355 . S
C442 O444 1.185 . S
C442 O445 1.355 . S
Dy443 O447 2.310 . S
Dy443 O450 2.351 . S
Dy443 O452 2.398 . S
Dy443 O453 2.491 . S
Dy443 O454 2.403 . S
Dy443 O455 2.664 . S
Dy443 O457 2.326 . S
O444 Dy440 2.398 . S
O444 C442 1.185 . S
O445 Dy440 2.491 . S
O445 C442 1.355 . S
O446 Dy440 2.403 . S
O446 C448 1.254 . S
O447 Dy440 2.664 . S
O447 Dy443 2.310 . S
O447 C448 1.268 . S
C448 O446 1.254 . S
C448 O447 1.268 . S
C449 O454 1.254 . S
C449 O455 1.268 . S
O450 Dy443 2.351 . S
O450 C458 1.249 . S
O451 Dy440 2.326 . S
O451 C458 1.267 . S
O452 C441 1.185 . S
O452 Dy443 2.398 . S
O453 C441 1.355 . S
O453 Dy443 2.491 . S
O454 Dy443 2.403 . S
O454 C449 1.254 . S
O455 Dy440 2.310 . S
O455 Dy443 2.664 . S
O455 C449 1.268 . S
O456 Dy440 2.351 . S
O456 C459 1.249 . S
O457 Dy443 2.326 . S
O457 C459 1.267 . S
C458 O450 1.249 . S
C458 O451 1.267 . S
C459 O456 1.249 . S
C459 O457 1.267 . S
Dy460 O464 2.398 . S
Dy460 O465 2.491 1_545 S
Dy460 O466 2.403 . S
Dy460 O467 2.664 . S
Dy460 O471 2.326 . S
Dy460 O475 2.310 1_545 S
Dy460 O476 2.355 . S
C461 O472 1.185 . S
C461 O473 1.355 1_565 S
C462 O464 1.185 . S
C462 O465 1.355 1_545 S
Dy463 O467 2.310 1_565 S
Dy463 O470 2.351 . S
Dy463 O472 2.398 . S
Dy463 O473 2.491 1_565 S
Dy463 O474 2.403 . S
Dy463 O475 2.664 . S
Dy463 O477 2.326 . S
O464 Dy460 2.398 . S
O464 C462 1.185 . S
O465 Dy460 2.491 1_565 S
O465 C462 1.355 1_565 S
O466 Dy460 2.403 . S
O466 C468 1.254 . S
O467 Dy460 2.664 . S
O467 Dy463 2.310 1_545 S
O467 C468 1.268 . S
C468 O466 1.254 . S
C468 O467 1.268 . S
C469 O474 1.254 . S
C469 O475 1.268 . S
O470 Dy463 2.351 . S
O470 C478 1.249 . S
O471 Dy460 2.326 . S
O471 C478 1.267 1_545 S
O472 C461 1.185 . S
O472 Dy463 2.398 . S
O473 C461 1.355 1_545 S
O473 Dy463 2.491 1_545 S
O474 Dy463 2.403 . S
O474 C469 1.254 . S
O475 Dy460 2.310 1_565 S
O475 Dy463 2.664 . S
O475 C469 1.268 . S
O476 Dy460 2.355 . S
O476 C479 1.239 1_545 S
O477 Dy463 2.326 . S
O477 C479 1.267 . S
C478 O470 1.249 . S
C478 O471 1.267 1_565 S
C479 O476 1.239 1_565 S
C479 O477 1.267 . S
Dy480 O484 2.398 1_554 S
Dy480 O485 2.491 1_554 S
Dy480 O486 2.403 . S
Dy480 O487 2.664 . S
Dy480 O491 2.326 . S
Dy480 O495 2.310 . S
Dy480 O496 2.351 . S
C481 O492 1.185 . S
C481 O493 1.355 . S
C482 O484 1.185 . S
C482 O485 1.355 . S
Dy483 O487 2.310 . S
Dy483 O490 2.351 . S
Dy483 O492 2.398 . S
Dy483 O493 2.491 . S
Dy483 O494 2.403 . S
Dy483 O495 2.664 . S
Dy483 O497 2.326 . S
O484 Dy480 2.398 1_556 S
O484 C482 1.185 . S
O485 Dy480 2.491 1_556 S
O485 C482 1.355 . S
O486 Dy480 2.403 . S
O486 C488 1.254 . S
O487 Dy480 2.664 . S
O487 Dy483 2.310 . S
O487 C488 1.268 . S
C488 O486 1.254 . S
C488 O487 1.268 . S
C489 O494 1.254 . S
C489 O495 1.268 . S
O490 Dy483 2.351 . S
O490 C498 1.249 . S
O491 Dy480 2.326 . S
O491 C498 1.267 . S
O492 C481 1.185 . S
O492 Dy483 2.398 . S
O493 C481 1.355 . S
O493 Dy483 2.491 . S
O494 Dy483 2.403 . S
O494 C489 1.254 . S
O495 Dy480 2.310 . S
O495 Dy483 2.664 . S
O495 C489 1.268 . S
O496 Dy480 2.351 . S
O496 C499 1.249 . S
O497 Dy483 2.326 . S
O497 C499 1.267 . S
C498 O490 1.249 . S
C498 O491 1.267 . S
C499 O496 1.249 . S
C499 O497 1.267 . S
Dy500 O504 2.398 1_554 S
Dy500 O505 2.491 1_554 S
Dy500 O506 2.403 . S
Dy500 O507 2.664 . S
Dy500 O511 2.326 . S
Dy500 O515 2.310 . S
Dy500 O516 2.351 . S
C501 O512 1.185 . S
C501 O513 1.355 . S
C502 O504 1.185 . S
C502 O505 1.355 . S
Dy503 O507 2.310 . S
Dy503 O510 2.351 . S
Dy503 O512 2.398 . S
Dy503 O513 2.491 . S
Dy503 O514 2.403 . S
Dy503 O515 2.664 . S
Dy503 O517 2.326 . S
O504 Dy500 2.398 1_556 S
O504 C502 1.185 . S
O505 Dy500 2.491 1_556 S
O505 C502 1.355 . S
O506 Dy500 2.403 . S
O506 C508 1.254 . S
O507 Dy500 2.664 . S
O507 Dy503 2.310 . S
O507 C508 1.268 . S
C508 O506 1.254 . S
C508 O507 1.268 . S
C509 O514 1.254 . S
C509 O515 1.268 . S
O510 Dy503 2.351 . S
O510 C518 1.249 . S
O511 Dy500 2.326 . S
O511 C518 1.267 . S
O512 C501 1.185 . S
O512 Dy503 2.398 . S
O513 C501 1.355 . S
O513 Dy503 2.491 . S
O514 Dy503 2.403 . S
O514 C509 1.254 . S
O515 Dy500 2.310 . S
O515 Dy503 2.664 . S
O515 C509 1.268 . S
O516 Dy500 2.351 . S
O516 C519 1.249 . S
O517 Dy503 2.326 . S
O517 C519 1.267 . S
C518 O510 1.249 . S
C518 O511 1.267 . S
C519 O516 1.249 . S
C519 O517 1.267 . S
Dy520 O524 2.398 . S
Dy520 O525 2.491 . S
Dy520 O526 2.403 . S
Dy520 O527 2.664 . S
Dy520 O531 2.326 . S
Dy520 O535 2.310 . S
Dy520 O536 2.351 . S
C521 O532 1.185 . S
C521 O533 1.355 . S
C522 O524 1.185 . S
C522 O525 1.355 . S
Dy523 O527 2.310 . S
Dy523 O530 2.351 . S
Dy523 O532 2.398 . S
Dy523 O533 2.491 . S
Dy523 O534 2.403 . S
Dy523 O535 2.664 . S
Dy523 O537 2.326 . S
O524 Dy520 2.398 . S
O524 C522 1.185 . S
O525 Dy520 2.491 . S
O525 C522 1.355 . S
O526 Dy520 2.403 . S
O526 C528 1.254 . S
O527 Dy520 2.664 . S
O527 Dy523 2.310 . S
O527 C528 1.268 . S
C528 O526 1.254 . S
C528 O527 1.268 . S
C529 O534 1.254 . S
C529 O535 1.268 . S
O530 Dy523 2.351 . S
O530 C538 1.249 . S
O531 Dy520 2.326 . S
O531 C538 1.267 . S
O532 C521 1.185 . S
O532 Dy523 2.398 . S
O533 C521 1.355 . S
O533 Dy523 2.491 . S
O534 Dy523 2.403 . S
O534 C529 1.254 . S
O535 Dy520 2.310 . S
O535 Dy523 2.664 . S
O535 C529 1.268 . S
O536 Dy520 2.351 . S
O536 C539 1.249 . S
O537 Dy523 2.326 . S
O537 C539 1.267 . S
C538 O530 1.249 . S
C538 O531 1.267 . S
C539 O536 1.249 . S
C539 O537 1.267 . S
Dy540 O544 2.398 . S
Dy540 O545 2.491 . S
Dy540 O546 2.403 . S
Dy540 O547 2.664 . S
Dy540 O551 2.326 . S
Dy540 O555 2.310 . S
Dy540 O556 2.351 . S
C541 O552 1.185 . S
C541 O553 1.355 . S
C542 O544 1.185 . S
C542 O545 1.355 . S
Dy543 O547 2.310 . S
Dy543 O550 2.351 . S
Dy543 O552 2.398 . S
Dy543 O553 2.491 . S
Dy543 O554 2.403 . S
Dy543 O555 2.664 . S
Dy543 O557 2.326 . S
O544 Dy540 2.398 . S
O544 C542 1.185 . S
O545 Dy540 2.491 . S
O545 C542 1.355 . S
O546 Dy540 2.403 . S
O546 C548 1.254 . S
O547 Dy540 2.664 . S
O547 Dy543 2.310 . S
O547 C548 1.268 . S
C548 O546 1.254 . S
C548 O547 1.268 . S
C549 O554 1.254 . S
C549 O555 1.268 . S
O550 Dy543 2.351 . S
O550 C558 1.249 . S
O551 Dy540 2.326 . S
O551 C558 1.267 . S
O552 C541 1.185 . S
O552 Dy543 2.398 . S
O553 C541 1.355 . S
O553 Dy543 2.491 . S
O554 Dy543 2.403 . S
O554 C549 1.254 . S
O555 Dy540 2.310 . S
O555 Dy543 2.664 . S
O555 C549 1.268 . S
O556 Dy540 2.351 . S
O556 C559 1.249 . S
O557 Dy543 2.326 . S
O557 C559 1.267 . S
C558 O550 1.249 . S
C558 O551 1.267 . S
C559 O556 1.249 . S
C559 O557 1.267 . S
Dy560 O564 2.398 . S
Dy560 O565 2.491 . S
Dy560 O566 2.403 . S
Dy560 O567 2.664 . S
Dy560 O571 2.326 . S
Dy560 O575 2.310 . S
Dy560 O576 2.351 . S
C561 O572 1.185 . S
C561 O573 1.355 . S
C562 O564 1.185 . S
C562 O565 1.355 . S
Dy563 O567 2.310 . S
Dy563 O570 2.351 . S
Dy563 O572 2.398 1_556 S
Dy563 O573 2.491 1_556 S
Dy563 O574 2.403 . S
Dy563 O575 2.664 . S
Dy563 O577 2.326 . S
O564 Dy560 2.398 . S
O564 C562 1.185 . S
O565 Dy560 2.491 . S
O565 C562 1.355 . S
O566 Dy560 2.403 . S
O566 C568 1.254 . S
O567 Dy560 2.664 . S
O567 Dy563 2.310 . S
O567 C568 1.268 . S
C568 O566 1.254 . S
C568 O567 1.268 . S
C569 O574 1.254 . S
C569 O575 1.268 . S
O570 Dy563 2.351 . S
O570 C578 1.249 . S
O571 Dy560 2.326 . S
O571 C578 1.267 . S
O572 C561 1.185 . S
O572 Dy563 2.398 1_554 S
O573 C561 1.355 . S
O573 Dy563 2.491 1_554 S
O574 Dy563 2.403 . S
O574 C569 1.254 . S
O575 Dy560 2.310 . S
O575 Dy563 2.664 . S
O575 C569 1.268 . S
O576 Dy560 2.351 . S
O576 C579 1.249 . S
O577 Dy563 2.326 . S
O577 C579 1.267 . S
C578 O570 1.249 . S
C578 O571 1.267 . S
C579 O576 1.249 . S
C579 O577 1.267 . S
Dy580 O584 2.398 . S
Dy580 O585 2.491 . S
Dy580 O586 2.403 . S
Dy580 O587 2.664 . S
Dy580 O591 2.326 . S
Dy580 O595 2.310 . S
Dy580 O596 2.351 . S
C581 O592 1.185 . S
C581 O593 1.355 . S
C582 O584 1.185 . S
C582 O585 1.355 . S
Dy583 O587 2.310 . S
Dy583 O590 2.351 . S
Dy583 O592 2.398 1_556 S
Dy583 O593 2.491 1_556 S
Dy583 O594 2.403 . S
Dy583 O595 2.664 . S
Dy583 O597 2.326 . S
O584 Dy580 2.398 . S
O584 C582 1.185 . S
O585 Dy580 2.491 . S
O585 C582 1.355 . S
O586 Dy580 2.403 . S
O586 C588 1.254 . S
O587 Dy580 2.664 . S
O587 Dy583 2.310 . S
O587 C588 1.268 . S
C588 O586 1.254 . S
C588 O587 1.268 . S
C589 O594 1.254 . S
C589 O595 1.268 . S
O590 Dy583 2.351 . S
O590 C598 1.249 . S
O591 Dy580 2.326 . S
O591 C598 1.267 . S
O592 C581 1.185 . S
O592 Dy583 2.398 1_554 S
O593 C581 1.355 . S
O593 Dy583 2.491 1_554 S
O594 Dy583 2.403 . S
O594 C589 1.254 . S
O595 Dy580 2.310 . S
O595 Dy583 2.664 . S
O595 C589 1.268 . S
O596 Dy580 2.351 . S
O596 C599 1.249 . S
O597 Dy583 2.326 . S
O597 C599 1.267 . S
C598 O590 1.249 . S
C598 O591 1.267 . S
C599 O596 1.249 . S
C599 O597 1.267 . S
Dy600 O604 2.398 . S
Dy600 O605 2.491 . S
Dy600 O606 2.403 . S
Dy600 O607 2.664 . S
Dy600 O611 2.326 . S
Dy600 O615 2.310 . S
Dy600 O616 2.351 . S
C601 O612 1.185 . S
C601 O613 1.355 . S
C602 O604 1.185 . S
C602 O605 1.355 . S
Dy603 O607 2.310 . S
Dy603 O610 2.351 . S
Dy603 O612 2.398 . S
Dy603 O613 2.491 . S
Dy603 O614 2.403 . S
Dy603 O615 2.664 . S
Dy603 O617 2.326 . S
O604 Dy600 2.398 . S
O604 C602 1.185 . S
O605 Dy600 2.491 . S
O605 C602 1.355 . S
O606 Dy600 2.403 . S
O606 C608 1.254 . S
O607 Dy600 2.664 . S
O607 Dy603 2.310 . S
O607 C608 1.268 . S
C608 O606 1.254 . S
C608 O607 1.268 . S
C609 O614 1.254 . S
C609 O615 1.268 . S
O610 Dy603 2.351 . S
O610 C618 1.249 . S
O611 Dy600 2.326 . S
O611 C618 1.267 . S
O612 C601 1.185 . S
O612 Dy603 2.398 . S
O613 C601 1.355 . S
O613 Dy603 2.491 . S
O614 Dy603 2.403 . S
O614 C609 1.254 . S
O615 Dy600 2.310 . S
O615 Dy603 2.664 . S
O615 C609 1.268 . S
O616 Dy600 2.351 . S
O616 C619 1.249 . S
O617 Dy603 2.326 . S
O617 C619 1.267 . S
C618 O610 1.249 . S
C618 O611 1.267 . S
C619 O616 1.249 . S
C619 O617 1.267 . S
Dy620 O624 2.398 . S
Dy620 O625 2.491 . S
Dy620 O626 2.403 . S
Dy620 O627 2.664 . S
Dy620 O631 2.326 . S
Dy620 O635 2.310 . S
Dy620 O636 2.351 . S
C621 O632 1.185 . S
C621 O633 1.355 . S
C622 O624 1.185 . S
C622 O625 1.355 . S
Dy623 O627 2.310 . S
Dy623 O630 2.351 . S
Dy623 O632 2.398 . S
Dy623 O633 2.491 . S
Dy623 O634 2.403 . S
Dy623 O635 2.664 . S
Dy623 O637 2.326 . S
O624 Dy620 2.398 . S
O624 C622 1.185 . S
O625 Dy620 2.491 . S
O625 C622 1.355 . S
O626 Dy620 2.403 . S
O626 C628 1.254 . S
O627 Dy620 2.664 . S
O627 Dy623 2.310 . S
O627 C628 1.268 . S
C628 O626 1.254 . S
C628 O627 1.268 . S
C629 O634 1.254 . S
C629 O635 1.268 . S
O630 Dy623 2.351 . S
O630 C638 1.249 . S
O631 Dy620 2.326 . S
O631 C638 1.267 . S
O632 C621 1.185 . S
O632 Dy623 2.398 . S
O633 C621 1.355 . S
O633 Dy623 2.491 . S
O634 Dy623 2.403 . S
O634 C629 1.254 . S
O635 Dy620 2.310 . S
O635 Dy623 2.664 . S
O635 C629 1.268 . S
O636 Dy620 2.351 . S
O636 C639 1.249 . S
O637 Dy623 2.326 . S
O637 C639 1.267 . S
C638 O630 1.249 . S
C638 O631 1.267 . S
C639 O636 1.249 . S
C639 O637 1.267 . S
H640 C646 0.930 . S
H641 C650 0.930 . S
H642 C655 0.929 . S
H643 C653 0.929 . S
H644 C648 0.929 . S
H645 C654 0.929 . S
C646 H640 0.930 . S
C646 C647 1.367 . S
C646 C654 1.378 . S
C647 C646 1.367 . S
C647 C655 1.433 . S
C648 H644 0.929 . S
C648 C650 1.378 . S
C648 C652 1.350 . S
C649 C652 1.463 . S
C649 C654 1.350 . S
C649 N657 1.427 . S
C650 H641 0.930 . S
C650 C648 1.378 . S
C650 C651 1.367 . S
C651 C650 1.367 . S
C651 C653 1.433 . S
C652 C648 1.350 . S
C652 C649 1.463 . S
C652 N656 1.427 . S
C653 H643 0.929 . S
C653 C651 1.433 . S
C653 N656 1.384 . S
C654 H645 0.929 . S
C654 C646 1.378 . S
C654 C649 1.350 . S
C655 H642 0.929 . S
C655 C647 1.433 . S
C655 N657 1.384 . S
N656 C652 1.427 . S
N656 C653 1.384 . S
N657 C649 1.427 . S
N657 C655 1.384 . S
H658 C664 0.930 . S
H659 C668 0.930 . S
H660 C673 0.929 . S
H661 C671 0.929 . S
H662 C666 0.929 . S
H663 C672 0.929 . S
C664 H658 0.930 . S
C664 C665 1.367 . S
C664 C672 1.378 . S
C665 C664 1.367 . S
C665 C673 1.433 . S
C666 H662 0.929 . S
C666 C668 1.378 . S
C666 C670 1.350 . S
C667 C670 1.463 . S
C667 C672 1.350 . S
C667 N675 1.427 . S
C668 H659 0.930 . S
C668 C666 1.378 . S
C668 C669 1.367 . S
C669 C668 1.367 . S
C669 C671 1.433 . S
C670 C666 1.350 . S
C670 C667 1.463 . S
C670 N674 1.427 . S
C671 H661 0.929 . S
C671 C669 1.433 . S
C671 N674 1.384 . S
C672 H663 0.929 . S
C672 C664 1.378 . S
C672 C667 1.350 . S
C673 H660 0.929 . S
C673 C665 1.433 . S
C673 N675 1.384 . S
N674 C670 1.427 . S
N674 C671 1.384 . S
N675 C667 1.427 . S
N675 C673 1.384 . S
H676 C682 0.930 . S
H677 C686 0.930 . S
H678 C691 0.929 . S
H679 C689 0.929 . S
H680 C684 0.929 . S
H681 C690 0.929 . S
C682 H676 0.930 . S
C682 C683 1.367 . S
C682 C690 1.378 . S
C683 C682 1.367 . S
C683 C691 1.433 . S
C684 H680 0.929 . S
C684 C686 1.378 . S
C684 C688 1.350 . S
C685 C688 1.463 . S
C685 C690 1.350 . S
C685 N693 1.427 . S
C686 H677 0.930 . S
C686 C684 1.378 . S
C686 C687 1.367 . S
C687 C686 1.367 . S
C687 C689 1.433 . S
C688 C684 1.350 . S
C688 C685 1.463 . S
C688 N692 1.427 . S
C689 H679 0.929 . S
C689 C687 1.433 . S
C689 N692 1.384 . S
C690 H681 0.929 . S
C690 C682 1.378 . S
C690 C685 1.350 . S
C691 H678 0.929 . S
C691 C683 1.433 . S
C691 N693 1.384 . S
N692 C688 1.427 . S
N692 C689 1.384 . S
N693 C685 1.427 . S
N693 C691 1.384 . S
H694 C700 0.930 . S
H695 C704 0.930 . S
H696 C709 0.929 . S
H697 C707 0.929 . S
H698 C702 0.929 . S
H699 C708 0.929 . S
C700 H694 0.930 . S
C700 C701 1.367 . S
C700 C708 1.378 . S
C701 C700 1.367 . S
C701 C709 1.433 . S
C702 H698 0.929 . S
C702 C704 1.378 . S
C702 C706 1.350 . S
C703 C706 1.463 . S
C703 C708 1.350 . S
C703 N711 1.427 . S
C704 H695 0.930 . S
C704 C702 1.378 . S
C704 C705 1.367 . S
C705 C704 1.367 . S
C705 C707 1.433 . S
C706 C702 1.350 . S
C706 C703 1.463 . S
C706 N710 1.427 . S
C707 H697 0.929 . S
C707 C705 1.433 . S
C707 N710 1.384 . S
C708 H699 0.929 . S
C708 C700 1.378 . S
C708 C703 1.350 . S
C709 H696 0.929 . S
C709 C701 1.433 . S
C709 N711 1.384 . S
N710 C706 1.427 . S
N710 C707 1.384 . S
N711 C703 1.427 . S
N711 C709 1.384 . S
H712 C718 0.930 . S
H713 C722 0.930 . S
H714 C727 0.929 . S
H715 C725 0.929 . S
H716 C720 0.929 . S
H717 C726 0.929 . S
C718 H712 0.930 . S
C718 C719 1.367 . S
C718 C726 1.378 . S
C719 C718 1.367 . S
C719 C727 1.433 . S
C720 H716 0.929 . S
C720 C722 1.378 . S
C720 C724 1.350 . S
C721 C724 1.463 . S
C721 C726 1.350 . S
C721 N729 1.427 . S
C722 H713 0.930 . S
C722 C720 1.378 . S
C722 C723 1.367 . S
C723 C722 1.367 . S
C723 C725 1.433 . S
C724 C720 1.350 . S
C724 C721 1.463 . S
C724 N728 1.427 . S
C725 H715 0.929 . S
C725 C723 1.433 . S
C725 N728 1.384 . S
C726 H717 0.929 . S
C726 C718 1.378 . S
C726 C721 1.350 . S
C727 H714 0.929 . S
C727 C719 1.433 . S
C727 N729 1.384 . S
N728 C724 1.427 . S
N728 C725 1.384 . S
N729 C721 1.427 . S
N729 C727 1.384 . S
H730 C736 0.930 . S
H731 C740 0.930 . S
H732 C745 0.929 . S
H733 C743 0.929 . S
H734 C738 0.929 . S
H735 C744 0.929 . S
C736 H730 0.930 . S
C736 C737 1.367 . S
C736 C744 1.378 . S
C737 C736 1.367 . S
C737 C745 1.433 . S
C738 H734 0.929 . S
C738 C740 1.378 . S
C738 C742 1.350 . S
C739 C742 1.463 . S
C739 C744 1.350 . S
C739 N747 1.427 . S
C740 H731 0.930 . S
C740 C738 1.378 . S
C740 C741 1.367 . S
C741 C740 1.367 . S
C741 C743 1.433 . S
C742 C738 1.350 . S
C742 C739 1.463 . S
C742 N746 1.427 . S
C743 H733 0.929 . S
C743 C741 1.433 . S
C743 N746 1.384 . S
C744 H735 0.929 . S
C744 C736 1.378 . S
C744 C739 1.350 . S
C745 H732 0.929 . S
C745 C737 1.433 . S
C745 N747 1.384 . S
N746 C742 1.427 . S
N746 C743 1.384 . S
N747 C739 1.427 . S
N747 C745 1.384 . S
H748 C754 0.930 . S
H749 C758 0.930 . S
H750 C763 0.929 . S
H751 C761 0.929 . S
H752 C756 0.929 . S
H753 C762 0.929 . S
C754 H748 0.930 . S
C754 C755 1.367 . S
C754 C762 1.378 . S
C755 C754 1.367 . S
C755 C763 1.433 . S
C756 H752 0.929 . S
C756 C758 1.378 . S
C756 C760 1.350 . S
C757 C760 1.463 . S
C757 C762 1.350 . S
C757 N765 1.427 . S
C758 H749 0.930 . S
C758 C756 1.378 . S
C758 C759 1.367 . S
C759 C758 1.367 . S
C759 C761 1.433 . S
C760 C756 1.350 . S
C760 C757 1.463 . S
C760 N764 1.427 . S
C761 H751 0.929 . S
C761 C759 1.433 . S
C761 N764 1.384 . S
C762 H753 0.929 . S
C762 C754 1.378 . S
C762 C757 1.350 . S
C763 H750 0.929 . S
C763 C755 1.433 . S
C763 N765 1.384 . S
N764 C760 1.427 . S
N764 C761 1.384 . S
N765 C757 1.427 . S
N765 C763 1.384 . S
H766 C772 0.930 . S
H767 C776 0.930 . S
H768 C781 0.929 . S
H769 C779 0.929 . S
H770 C774 0.929 . S
H771 C780 0.929 . S
C772 H766 0.930 . S
C772 C773 1.367 . S
C772 C780 1.378 . S
C773 C772 1.367 . S
C773 C781 1.433 . S
C774 H770 0.929 . S
C774 C776 1.378 . S
C774 C778 1.350 . S
C775 C778 1.463 . S
C775 C780 1.350 . S
C775 N783 1.427 . S
C776 H767 0.930 . S
C776 C774 1.378 . S
C776 C777 1.367 . S
C777 C776 1.367 . S
C777 C779 1.433 . S
C778 C774 1.350 . S
C778 C775 1.463 . S
C778 N782 1.427 . S
C779 H769 0.929 . S
C779 C777 1.433 . S
C779 N782 1.384 . S
C780 H771 0.929 . S
C780 C772 1.378 . S
C780 C775 1.350 . S
C781 H768 0.929 . S
C781 C773 1.433 . S
C781 N783 1.384 . S
N782 C778 1.427 . S
N782 C779 1.384 . S
N783 C775 1.427 . S
N783 C781 1.384 . S
H784 C790 0.930 . S
H785 C794 0.930 . S
H786 C799 0.929 . S
H787 C797 0.929 . S
H788 C792 0.929 . S
H789 C798 0.929 . S
C790 H784 0.930 . S
C790 C791 1.367 . S
C790 C798 1.378 . S
C791 C790 1.367 . S
C791 C799 1.433 . S
C792 H788 0.929 . S
C792 C794 1.378 . S
C792 C796 1.350 . S
C793 C796 1.463 . S
C793 C798 1.350 . S
C793 N801 1.427 . S
C794 H785 0.930 . S
C794 C792 1.378 . S
C794 C795 1.367 . S
C795 C794 1.367 . S
C795 C797 1.433 . S
C796 C792 1.350 . S
C796 C793 1.463 . S
C796 N800 1.427 . S
C797 H787 0.929 . S
C797 C795 1.433 . S
C797 N800 1.384 . S
C798 H789 0.929 . S
C798 C790 1.378 . S
C798 C793 1.350 . S
C799 H786 0.929 . S
C799 C791 1.433 . S
C799 N801 1.384 . S
N800 C796 1.427 . S
N800 C797 1.384 . S
N801 C793 1.427 . S
N801 C799 1.384 . S
H802 C808 0.930 . S
H803 C812 0.930 . S
H804 C817 0.929 . S
H805 C815 0.929 . S
H806 C810 0.929 . S
H807 C816 0.929 . S
C808 H802 0.930 . S
C808 C809 1.367 . S
C808 C816 1.378 . S
C809 C808 1.367 . S
C809 C817 1.433 . S
C810 H806 0.929 . S
C810 C812 1.378 . S
C810 C814 1.350 . S
C811 C814 1.463 . S
C811 C816 1.350 . S
C811 N819 1.427 . S
C812 H803 0.930 . S
C812 C810 1.378 . S
C812 C813 1.367 . S
C813 C812 1.367 . S
C813 C815 1.433 . S
C814 C810 1.350 . S
C814 C811 1.463 . S
C814 N818 1.427 . S
C815 H805 0.929 . S
C815 C813 1.433 . S
C815 N818 1.384 . S
C816 H807 0.929 . S
C816 C808 1.378 . S
C816 C811 1.350 . S
C817 H804 0.929 . S
C817 C809 1.433 . S
C817 N819 1.384 . S
N818 C814 1.427 . S
N818 C815 1.384 . S
N819 C811 1.427 . S
N819 C817 1.384 . S
H820 C826 0.930 . S
H821 C830 0.930 . S
H822 C835 0.929 . S
H823 C833 0.929 . S
H824 C828 0.929 . S
H825 C834 0.929 . S
C826 H820 0.930 . S
C826 C827 1.367 . S
C826 C834 1.378 . S
C827 C826 1.367 . S
C827 C835 1.433 . S
C828 H824 0.929 . S
C828 C830 1.378 . S
C828 C832 1.350 . S
C829 C832 1.463 . S
C829 C834 1.350 . S
C829 N837 1.427 . S
C830 H821 0.930 . S
C830 C828 1.378 . S
C830 C831 1.367 . S
C831 C830 1.367 . S
C831 C833 1.433 . S
C832 C828 1.350 . S
C832 C829 1.463 . S
C832 N836 1.427 . S
C833 H823 0.929 . S
C833 C831 1.433 . S
C833 N836 1.384 . S
C834 H825 0.929 . S
C834 C826 1.378 . S
C834 C829 1.350 . S
C835 H822 0.929 . S
C835 C827 1.433 . S
C835 N837 1.384 . S
N836 C832 1.427 . S
N836 C833 1.384 . S
N837 C829 1.427 . S
N837 C835 1.384 . S
H838 C844 0.930 . S
H839 C848 0.930 . S
H840 C853 0.929 . S
H841 C851 0.929 . S
H842 C846 0.929 . S
H843 C852 0.929 . S
C844 H838 0.930 . S
C844 C845 1.367 . S
C844 C852 1.378 . S
C845 C844 1.367 . S
C845 C853 1.433 . S
C846 H842 0.929 . S
C846 C848 1.378 . S
C846 C850 1.350 . S
C847 C850 1.463 . S
C847 C852 1.350 . S
C847 N855 1.427 . S
C848 H839 0.930 . S
C848 C846 1.378 . S
C848 C849 1.367 . S
C849 C848 1.367 . S
C849 C851 1.433 . S
C850 C846 1.350 . S
C850 C847 1.463 . S
C850 N854 1.427 . S
C851 H841 0.929 . S
C851 C849 1.433 . S
C851 N854 1.384 . S
C852 H843 0.929 . S
C852 C844 1.378 . S
C852 C847 1.350 . S
C853 H840 0.929 . S
C853 C845 1.433 . S
C853 N855 1.384 . S
N854 C850 1.427 . S
N854 C851 1.384 . S
N855 C847 1.427 . S
N855 C853 1.384 . S
H856 C862 0.930 . S
H857 C866 0.930 . S
H858 C871 0.929 . S
H859 C869 0.929 . S
H860 C864 0.929 . S
H861 C870 0.929 . S
C862 H856 0.930 . S
C862 C863 1.367 . S
C862 C870 1.378 . S
C863 C862 1.367 . S
C863 C871 1.433 . S
C864 H860 0.929 . S
C864 C866 1.378 . S
C864 C868 1.350 . S
C865 C868 1.463 . S
C865 C870 1.350 . S
C865 N873 1.427 . S
C866 H857 0.930 . S
C866 C864 1.378 . S
C866 C867 1.367 . S
C867 C866 1.367 . S
C867 C869 1.433 . S
C868 C864 1.350 . S
C868 C865 1.463 . S
C868 N872 1.427 . S
C869 H859 0.929 . S
C869 C867 1.433 . S
C869 N872 1.384 . S
C870 H861 0.929 . S
C870 C862 1.378 . S
C870 C865 1.350 . S
C871 H858 0.929 . S
C871 C863 1.433 . S
C871 N873 1.384 . S
N872 C868 1.427 . S
N872 C869 1.384 . S
N873 C865 1.427 . S
N873 C871 1.384 . S
H874 C880 0.930 . S
H875 C884 0.930 . S
H876 C889 0.929 . S
H877 C887 0.929 . S
H878 C882 0.929 . S
H879 C888 0.929 . S
C880 H874 0.930 . S
C880 C881 1.367 . S
C880 C888 1.378 . S
C881 C880 1.367 . S
C881 C889 1.433 . S
C882 H878 0.929 . S
C882 C884 1.378 . S
C882 C886 1.350 . S
C883 C886 1.463 . S
C883 C888 1.350 . S
C883 N891 1.427 . S
C884 H875 0.930 . S
C884 C882 1.378 . S
C884 C885 1.367 . S
C885 C884 1.367 . S
C885 C887 1.433 . S
C886 C882 1.350 . S
C886 C883 1.463 . S
C886 N890 1.427 . S
C887 H877 0.929 . S
C887 C885 1.433 . S
C887 N890 1.384 . S
C888 H879 0.929 . S
C888 C880 1.378 . S
C888 C883 1.350 . S
C889 H876 0.929 . S
C889 C881 1.433 . S
C889 N891 1.384 . S
N890 C886 1.427 . S
N890 C887 1.384 . S
N891 C883 1.427 . S
N891 C889 1.384 . S
H892 C898 0.930 . S
H893 C902 0.930 . S
H894 C907 0.929 . S
H895 C905 0.929 . S
H896 C900 0.929 . S
H897 C906 0.929 . S
C898 H892 0.930 . S
C898 C899 1.367 . S
C898 C906 1.378 . S
C899 C898 1.367 . S
C899 C907 1.433 . S
C900 H896 0.929 . S
C900 C902 1.378 . S
C900 C904 1.350 . S
C901 C904 1.463 . S
C901 C906 1.350 . S
C901 N909 1.427 . S
C902 H893 0.930 . S
C902 C900 1.378 . S
C902 C903 1.367 . S
C903 C902 1.367 . S
C903 C905 1.433 . S
C904 C900 1.350 . S
C904 C901 1.463 . S
C904 N908 1.427 . S
C905 H895 0.929 . S
C905 C903 1.433 . S
C905 N908 1.384 . S
C906 H897 0.929 . S
C906 C898 1.378 . S
C906 C901 1.350 . S
C907 H894 0.929 . S
C907 C899 1.433 . S
C907 N909 1.384 . S
N908 C904 1.427 . S
N908 C905 1.384 . S
N909 C901 1.427 . S
N909 C907 1.384 . S
H910 C916 0.930 . S
H911 C920 0.930 . S
H912 C925 0.929 . S
H913 C923 0.929 . S
H914 C918 0.929 . S
H915 C924 0.929 . S
C916 H910 0.930 . S
C916 C917 1.367 . S
C916 C924 1.378 . S
C917 C916 1.367 . S
C917 C925 1.433 . S
C918 H914 0.929 . S
C918 C920 1.378 . S
C918 C922 1.350 . S
C919 C922 1.463 . S
C919 C924 1.350 . S
C919 N927 1.427 . S
C920 H911 0.930 . S
C920 C918 1.378 . S
C920 C921 1.367 . S
C921 C920 1.367 . S
C921 C923 1.433 . S
C922 C918 1.350 . S
C922 C919 1.463 . S
C922 N926 1.427 . S
C923 H913 0.929 . S
C923 C921 1.433 . S
C923 N926 1.384 . S
C924 H915 0.929 . S
C924 C916 1.378 . S
C924 C919 1.350 . S
C925 H912 0.929 . S
C925 C917 1.433 . S
C925 N927 1.384 . S
N926 C922 1.427 . S
N926 C923 1.384 . S
N927 C919 1.427 . S
N927 C925 1.384 . S
H928 C934 0.930 . S
H929 C938 0.930 . S
H930 C943 0.929 . S
H931 C941 0.929 . S
H932 C936 0.929 . S
H933 C942 0.929 . S
C934 H928 0.930 . S
C934 C935 1.367 1_545 S
C934 C942 1.378 . S
C935 C934 1.367 1_565 S
C935 C943 1.433 . S
C936 H932 0.929 . S
C936 C938 1.378 . S
C936 C940 1.355 . S
C937 C940 1.462 1_545 S
C937 C942 1.355 . S
C937 N945 1.422 1_545 S
C938 H929 0.930 . S
C938 C936 1.378 . S
C938 C939 1.367 1_565 S
C939 C938 1.367 1_545 S
C939 C941 1.433 . S
C940 C936 1.355 . S
C940 C937 1.462 1_565 S
C940 N944 1.422 1_565 S
C941 H931 0.929 . S
C941 C939 1.433 . S
C941 N944 1.384 . S
C942 H933 0.929 . S
C942 C934 1.378 . S
C942 C937 1.355 . S
C943 H930 0.929 . S
C943 C935 1.433 . S
C943 N945 1.384 . S
N944 C940 1.422 1_545 S
N944 C941 1.384 . S
N945 C937 1.422 1_565 S
N945 C943 1.384 . S
H946 C952 0.930 . S
H947 C956 0.930 . S
H948 C961 0.929 . S
H949 C959 0.929 . S
H950 C954 0.929 . S
H951 C960 0.929 . S
C952 H946 0.930 . S
C952 C953 1.367 . S
C952 C960 1.378 1_455 S
C953 C952 1.367 . S
C953 C961 1.433 . S
C954 H950 0.929 . S
C954 C956 1.378 1_455 S
C954 C958 1.350 1_455 S
C955 C958 1.463 1_455 S
C955 C960 1.350 1_455 S
C955 N963 1.427 . S
C956 H947 0.930 . S
C956 C954 1.378 1_655 S
C956 C957 1.367 . S
C957 C956 1.367 . S
C957 C959 1.433 . S
C958 C954 1.350 1_655 S
C958 C955 1.463 1_655 S
C958 N962 1.427 . S
C959 H949 0.929 . S
C959 C957 1.433 . S
C959 N962 1.384 . S
C960 H951 0.929 . S
C960 C952 1.378 1_655 S
C960 C955 1.350 1_655 S
C961 H948 0.929 . S
C961 C953 1.433 . S
C961 N963 1.384 . S
N962 C958 1.427 . S
N962 C959 1.384 . S
N963 C955 1.427 . S
N963 C961 1.384 . S
H964 C970 0.930 . S
H965 C974 0.930 . S
H966 C979 0.929 . S
H967 C977 0.929 . S
H968 C972 0.929 . S
H969 C978 0.929 . S
C970 H964 0.930 . S
C970 C971 1.367 . S
C970 C978 1.378 . S
C971 C970 1.367 . S
C971 C979 1.433 . S
C972 H968 0.929 . S
C972 C974 1.378 . S
C972 C976 1.350 . S
C973 C976 1.463 1_556 S
C973 C978 1.350 . S
C973 N981 1.427 . S
C974 H965 0.930 . S
C974 C972 1.378 . S
C974 C975 1.367 . S
C975 C974 1.367 . S
C975 C977 1.433 . S
C976 C972 1.350 . S
C976 C973 1.463 1_554 S
C976 N980 1.427 . S
C977 H967 0.929 . S
C977 C975 1.433 . S
C977 N980 1.384 . S
C978 H969 0.929 . S
C978 C970 1.378 . S
C978 C973 1.350 . S
C979 H966 0.929 . S
C979 C971 1.433 . S
C979 N981 1.384 . S
N980 C976 1.427 . S
N980 C977 1.384 . S
N981 C973 1.427 . S
N981 C979 1.384 . S
H982 C988 0.930 . S
H983 C992 0.930 . S
H984 C997 0.929 . S
H985 C995 0.929 . S
H986 C990 0.929 . S
H987 C996 0.929 . S
C988 H982 0.930 . S
C988 C989 1.367 . S
C988 C996 1.378 . S
C989 C988 1.367 . S
C989 C997 1.433 1_565 S
C990 H986 0.929 . S
C990 C992 1.378 . S
C990 C994 1.350 . S
C991 C994 1.463 1_664 S
C991 C996 1.350 . S
C991 N999 1.427 1_565 S
C992 H983 0.930 . S
C992 C990 1.378 . S
C992 C993 1.367 . S
C993 C992 1.367 . S
C993 C995 1.433 1_545 S
C994 C990 1.350 . S
C994 C991 1.463 1_446 S
C994 N998 1.427 1_545 S
C995 H985 0.929 . S
C995 C993 1.433 1_565 S
C995 N998 1.384 . S
C996 H987 0.929 . S
C996 C988 1.378 . S
C996 C991 1.350 . S
C997 H984 0.929 . S
C997 C989 1.433 1_545 S
C997 N999 1.384 . S
N998 C994 1.427 1_565 S
N998 C995 1.384 . S
N999 C991 1.427 1_545 S
N999 C997 1.384 . S
H1000 C1006 0.930 . S
H1001 C1010 0.930 . S
H1002 C1015 0.929 . S
H1003 C1013 0.929 . S
H1004 C1008 0.929 . S
H1005 C1014 0.929 . S
C1006 H1000 0.930 . S
C1006 C1007 1.367 . S
C1006 C1014 1.378 . S
C1007 C1006 1.367 . S
C1007 C1015 1.433 1_545 S
C1008 H1004 0.929 . S
C1008 C1010 1.378 . S
C1008 C1012 1.350 . S
C1009 C1012 1.463 1_545 S
C1009 C1014 1.350 . S
C1009 N1017 1.427 1_545 S
C1010 H1001 0.930 . S
C1010 C1008 1.378 . S
C1010 C1011 1.367 . S
C1011 C1010 1.367 . S
C1011 C1013 1.433 1_565 S
C1012 C1008 1.350 . S
C1012 C1009 1.463 1_565 S
C1012 N1016 1.427 1_565 S
C1013 H1003 0.929 . S
C1013 C1011 1.433 1_545 S
C1013 N1016 1.384 . S
C1014 H1005 0.929 . S
C1014 C1006 1.378 . S
C1014 C1009 1.350 . S
C1015 H1002 0.929 . S
C1015 C1007 1.433 1_565 S
C1015 N1017 1.384 . S
N1016 C1012 1.427 1_545 S
N1016 C1013 1.384 . S
N1017 C1009 1.427 1_565 S
N1017 C1015 1.384 . S
H1018 C1024 0.930 . S
H1019 C1028 0.930 . S
H1020 C1033 0.929 . S
H1021 C1031 0.929 . S
H1022 C1026 0.906 1_455 S
H1023 C1032 0.907 1_655 S
C1024 H1018 0.930 . S
C1024 C1025 1.367 . S
C1024 C1032 1.393 . S
C1025 C1024 1.367 . S
C1025 C1033 1.433 . S
C1026 H1022 0.906 1_655 S
C1026 C1028 1.394 . S
C1026 C1030 1.357 . S
C1027 C1030 1.463 1_455 S
C1027 C1032 1.357 . S
C1027 N1035 1.427 . S
C1028 H1019 0.930 . S
C1028 C1026 1.394 . S
C1028 C1029 1.367 . S
C1029 C1028 1.367 . S
C1029 C1031 1.433 . S
C1030 C1026 1.357 . S
C1030 C1027 1.463 1_655 S
C1030 N1034 1.427 . S
C1031 H1021 0.929 . S
C1031 C1029 1.433 . S
C1031 N1034 1.384 . S
C1032 H1023 0.907 1_455 S
C1032 C1024 1.393 . S
C1032 C1027 1.357 . S
C1033 H1020 0.929 . S
C1033 C1025 1.433 . S
C1033 N1035 1.384 . S
N1034 C1030 1.427 . S
N1034 C1031 1.384 . S
N1035 C1027 1.427 . S
N1035 C1033 1.384 . S
H1036 C1042 0.930 . S
H1037 C1046 0.930 . S
H1038 C1051 0.929 . S
H1039 C1049 0.929 . S
H1040 C1044 0.929 . S
H1041 C1050 0.929 . S
C1042 H1036 0.930 . S
C1042 C1043 1.367 . S
C1042 C1050 1.378 . S
C1043 C1042 1.367 . S
C1043 C1051 1.433 . S
C1044 H1040 0.929 . S
C1044 C1046 1.378 . S
C1044 C1048 1.350 . S
C1045 C1048 1.463 1_556 S
C1045 C1050 1.350 . S
C1045 N1053 1.427 . S
C1046 H1037 0.930 . S
C1046 C1044 1.378 . S
C1046 C1047 1.367 . S
C1047 C1046 1.367 . S
C1047 C1049 1.433 . S
C1048 C1044 1.350 . S
C1048 C1045 1.463 1_554 S
C1048 N1052 1.427 . S
C1049 H1039 0.929 . S
C1049 C1047 1.433 . S
C1049 N1052 1.384 . S
C1050 H1041 0.929 . S
C1050 C1042 1.378 . S
C1050 C1045 1.350 . S
C1051 H1038 0.929 . S
C1051 C1043 1.433 . S
C1051 N1053 1.384 . S
N1052 C1048 1.427 . S
N1052 C1049 1.384 . S
N1053 C1045 1.427 . S
N1053 C1051 1.384 . S
H1054 C1060 0.930 . S
H1055 C1064 0.930 . S
H1056 C1069 0.929 . S
H1057 C1067 0.929 . S
H1058 C1062 0.929 . S
H1059 C1068 0.929 . S
C1060 H1054 0.930 . S
C1060 C1061 1.367 . S
C1060 C1068 1.378 . S
C1061 C1060 1.367 . S
C1061 C1069 1.433 . S
C1062 H1058 0.929 . S
C1062 C1064 1.378 . S
C1062 C1066 1.350 . S
C1063 C1066 1.463 . S
C1063 C1068 1.350 . S
C1063 N1071 1.427 . S
C1064 H1055 0.930 . S
C1064 C1062 1.378 . S
C1064 C1065 1.367 . S
C1065 C1064 1.367 . S
C1065 C1067 1.433 . S
C1066 C1062 1.350 . S
C1066 C1063 1.463 . S
C1066 N1070 1.427 . S
C1067 H1057 0.929 . S
C1067 C1065 1.433 . S
C1067 N1070 1.384 . S
C1068 H1059 0.929 . S
C1068 C1060 1.378 . S
C1068 C1063 1.350 . S
C1069 H1056 0.929 . S
C1069 C1061 1.433 . S
C1069 N1071 1.384 . S
N1070 C1066 1.427 . S
N1070 C1067 1.384 . S
N1071 C1063 1.427 . S
N1071 C1069 1.384 . S
H1072 C1078 0.930 . S
H1073 C1082 0.930 . S
H1074 C1087 0.929 . S
H1075 C1085 0.929 . S
H1076 C1080 0.929 . S
H1077 C1086 0.929 . S
C1078 H1072 0.930 . S
C1078 C1079 1.367 . S
C1078 C1086 1.378 . S
C1079 C1078 1.367 . S
C1079 C1087 1.433 . S
C1080 H1076 0.929 . S
C1080 C1082 1.378 . S
C1080 C1084 1.350 . S
C1081 C1084 1.463 . S
C1081 C1086 1.350 . S
C1081 N1089 1.427 . S
C1082 H1073 0.930 . S
C1082 C1080 1.378 . S
C1082 C1083 1.367 . S
C1083 C1082 1.367 . S
C1083 C1085 1.433 . S
C1084 C1080 1.350 . S
C1084 C1081 1.463 . S
C1084 N1088 1.427 . S
C1085 H1075 0.929 . S
C1085 C1083 1.433 . S
C1085 N1088 1.384 . S
C1086 H1077 0.929 . S
C1086 C1078 1.378 . S
C1086 C1081 1.350 . S
C1087 H1074 0.929 . S
C1087 C1079 1.433 . S
C1087 N1089 1.384 . S
N1088 C1084 1.427 . S
N1088 C1085 1.384 . S
N1089 C1081 1.427 . S
N1089 C1087 1.384 . S
H1090 C1096 0.930 . S
H1091 C1100 0.930 . S
H1092 C1105 0.929 . S
H1093 C1103 0.929 . S
H1094 C1098 0.929 . S
H1095 C1104 0.929 . S
C1096 H1090 0.930 . S
C1096 C1097 1.367 . S
C1096 C1104 1.378 . S
C1097 C1096 1.367 . S
C1097 C1105 1.433 . S
C1098 H1094 0.929 . S
C1098 C1100 1.378 . S
C1098 C1102 1.350 . S
C1099 C1102 1.463 1_455 S
C1099 C1104 1.350 . S
C1099 N1107 1.427 . S
C1100 H1091 0.930 . S
C1100 C1098 1.378 . S
C1100 C1101 1.367 . S
C1101 C1100 1.367 . S
C1101 C1103 1.433 . S
C1102 C1098 1.350 . S
C1102 C1099 1.463 1_655 S
C1102 N1106 1.427 . S
C1103 H1093 0.929 . S
C1103 C1101 1.433 . S
C1103 N1106 1.384 . S
C1104 H1095 0.929 . S
C1104 C1096 1.378 . S
C1104 C1099 1.350 . S
C1105 H1092 0.929 . S
C1105 C1097 1.433 . S
C1105 N1107 1.384 . S
N1106 C1102 1.427 . S
N1106 C1103 1.384 . S
N1107 C1099 1.427 . S
N1107 C1105 1.384 . S
H1108 C1114 0.930 . S
H1109 C1118 0.930 . S
H1110 C1123 0.929 . S
H1111 C1121 0.929 . S
H1112 C1116 0.929 . S
H1113 C1122 0.929 . S
C1114 H1108 0.930 . S
C1114 C1115 1.367 . S
C1114 C1122 1.378 . S
C1115 C1114 1.367 . S
C1115 C1123 1.433 . S
C1116 H1112 0.929 . S
C1116 C1118 1.378 . S
C1116 C1120 1.350 . S
C1117 C1120 1.463 . S
C1117 C1122 1.350 . S
C1117 N1125 1.427 . S
C1118 H1109 0.930 . S
C1118 C1116 1.378 . S
C1118 C1119 1.367 . S
C1119 C1118 1.367 . S
C1119 C1121 1.433 . S
C1120 C1116 1.350 . S
C1120 C1117 1.463 . S
C1120 N1124 1.427 . S
C1121 H1111 0.929 . S
C1121 C1119 1.433 . S
C1121 N1124 1.384 . S
C1122 H1113 0.929 . S
C1122 C1114 1.378 . S
C1122 C1117 1.350 . S
C1123 H1110 0.929 . S
C1123 C1115 1.433 . S
C1123 N1125 1.384 . S
N1124 C1120 1.427 . S
N1124 C1121 1.384 . S
N1125 C1117 1.427 . S
N1125 C1123 1.384 . S
H1126 C1132 0.930 . S
H1127 C1136 0.930 . S
H1128 C1141 0.929 . S
H1129 C1139 0.929 . S
H1130 C1134 0.929 . S
H1131 C1140 0.929 . S
C1132 H1126 0.930 . S
C1132 C1133 1.367 . S
C1132 C1140 1.378 . S
C1133 C1132 1.367 . S
C1133 C1141 1.433 . S
C1134 H1130 0.929 . S
C1134 C1136 1.378 . S
C1134 C1138 1.350 . S
C1135 C1138 1.463 . S
C1135 C1140 1.350 . S
C1135 N1143 1.427 . S
C1136 H1127 0.930 . S
C1136 C1134 1.378 . S
C1136 C1137 1.367 . S
C1137 C1136 1.367 . S
C1137 C1139 1.433 . S
C1138 C1134 1.350 . S
C1138 C1135 1.463 . S
C1138 N1142 1.427 . S
C1139 H1129 0.929 . S
C1139 C1137 1.433 . S
C1139 N1142 1.384 . S
C1140 H1131 0.929 . S
C1140 C1132 1.378 . S
C1140 C1135 1.350 . S
C1141 H1128 0.929 . S
C1141 C1133 1.433 . S
C1141 N1143 1.384 . S
N1142 C1138 1.427 . S
N1142 C1139 1.384 . S
N1143 C1135 1.427 . S
N1143 C1141 1.384 . S
H1144 C1150 0.930 . S
H1145 C1154 0.930 . S
H1146 C1159 0.929 . S
H1147 C1157 0.929 . S
H1148 C1152 0.929 . S
H1149 C1158 0.929 . S
C1150 H1144 0.930 . S
C1150 C1151 1.367 . S
C1150 C1158 1.378 . S
C1151 C1150 1.367 . S
C1151 C1159 1.433 . S
C1152 H1148 0.929 . S
C1152 C1154 1.378 . S
C1152 C1156 1.350 . S
C1153 C1156 1.463 . S
C1153 C1158 1.350 . S
C1153 N1161 1.427 . S
C1154 H1145 0.930 . S
C1154 C1152 1.378 . S
C1154 C1155 1.367 . S
C1155 C1154 1.367 . S
C1155 C1157 1.433 . S
C1156 C1152 1.350 . S
C1156 C1153 1.463 . S
C1156 N1160 1.427 . S
C1157 H1147 0.929 . S
C1157 C1155 1.433 . S
C1157 N1160 1.384 . S
C1158 H1149 0.929 . S
C1158 C1150 1.378 . S
C1158 C1153 1.350 . S
C1159 H1146 0.929 . S
C1159 C1151 1.433 . S
C1159 N1161 1.384 . S
N1160 C1156 1.427 . S
N1160 C1157 1.384 . S
N1161 C1153 1.427 . S
N1161 C1159 1.384 . S
H1162 C1168 0.930 . S
H1163 C1172 0.930 . S
H1164 C1177 0.929 . S
H1165 C1175 0.929 . S
H1166 C1170 0.929 . S
H1167 C1176 0.929 . S
C1168 H1162 0.930 . S
C1168 C1169 1.367 . S
C1168 C1176 1.378 . S
C1169 C1168 1.367 . S
C1169 C1177 1.433 1_565 S
C1170 H1166 0.929 . S
C1170 C1172 1.378 . S
C1170 C1174 1.350 . S
C1171 C1174 1.463 1_565 S
C1171 C1176 1.350 . S
C1171 N1179 1.427 1_565 S
C1172 H1163 0.930 . S
C1172 C1170 1.378 . S
C1172 C1173 1.367 . S
C1173 C1172 1.367 . S
C1173 C1175 1.433 1_545 S
C1174 C1170 1.350 . S
C1174 C1171 1.463 1_545 S
C1174 N1178 1.427 1_545 S
C1175 H1165 0.929 . S
C1175 C1173 1.433 1_565 S
C1175 N1178 1.384 . S
C1176 H1167 0.929 . S
C1176 C1168 1.378 . S
C1176 C1171 1.350 . S
C1177 H1164 0.929 . S
C1177 C1169 1.433 1_545 S
C1177 N1179 1.384 . S
N1178 C1174 1.427 1_565 S
N1178 C1175 1.384 . S
N1179 C1171 1.427 1_545 S
N1179 C1177 1.384 . S
H1180 C1186 0.930 . S
H1181 C1190 0.930 . S
H1182 C1195 0.929 . S
H1183 C1193 0.929 . S
H1184 C1188 0.929 . S
H1185 C1194 0.929 . S
C1186 H1180 0.930 . S
C1186 C1187 1.367 . S
C1186 C1194 1.378 . S
C1187 C1186 1.367 . S
C1187 C1195 1.433 . S
C1188 H1184 0.929 . S
C1188 C1190 1.378 . S
C1188 C1192 1.350 . S
C1189 C1192 1.463 . S
C1189 C1194 1.350 . S
C1189 N1197 1.427 . S
C1190 H1181 0.930 . S
C1190 C1188 1.378 . S
C1190 C1191 1.367 . S
C1191 C1190 1.367 . S
C1191 C1193 1.433 . S
C1192 C1188 1.350 . S
C1192 C1189 1.463 . S
C1192 N1196 1.427 . S
C1193 H1183 0.929 . S
C1193 C1191 1.433 . S
C1193 N1196 1.384 . S
C1194 H1185 0.929 . S
C1194 C1186 1.378 . S
C1194 C1189 1.350 . S
C1195 H1182 0.929 . S
C1195 C1187 1.433 . S
C1195 N1197 1.384 . S
N1196 C1192 1.427 . S
N1196 C1193 1.384 . S
N1197 C1189 1.427 . S
N1197 C1195 1.384 . S
H1198 C1204 0.930 . S
H1199 C1208 0.930 . S
H1200 C1213 0.929 . S
H1201 C1211 0.929 . S
H1202 C1206 0.929 . S
H1203 C1212 0.929 . S
C1204 H1198 0.930 . S
C1204 C1205 1.367 . S
C1204 C1212 1.378 . S
C1205 C1204 1.367 . S
C1205 C1213 1.433 . S
C1206 H1202 0.929 . S
C1206 C1208 1.378 . S
C1206 C1210 1.350 . S
C1207 C1210 1.463 1_554 S
C1207 C1212 1.350 . S
C1207 N1215 1.427 . S
C1208 H1199 0.930 . S
C1208 C1206 1.378 . S
C1208 C1209 1.367 . S
C1209 C1208 1.367 . S
C1209 C1211 1.433 . S
C1210 C1206 1.350 . S
C1210 C1207 1.463 1_556 S
C1210 N1214 1.427 . S
C1211 H1201 0.929 . S
C1211 C1209 1.433 . S
C1211 N1214 1.384 . S
C1212 H1203 0.929 . S
C1212 C1204 1.378 . S
C1212 C1207 1.350 . S
C1213 H1200 0.929 . S
C1213 C1205 1.433 . S
C1213 N1215 1.384 . S
N1214 C1210 1.427 . S
N1214 C1211 1.384 . S
N1215 C1207 1.427 . S
N1215 C1213 1.384 . S
H1216 C1222 0.930 . S
H1217 C1226 0.930 . S
H1218 C1231 0.929 . S
H1219 C1229 0.929 . S
H1220 C1224 0.929 . S
H1221 C1230 0.929 . S
C1222 H1216 0.930 . S
C1222 C1223 1.367 . S
C1222 C1230 1.378 . S
C1223 C1222 1.367 . S
C1223 C1231 1.433 1_545 S
C1224 H1220 0.929 . S
C1224 C1226 1.378 . S
C1224 C1228 1.350 1_565 S
C1225 C1228 1.463 . S
C1225 C1230 1.350 . S
C1225 N1233 1.427 1_545 S
C1226 H1217 0.930 . S
C1226 C1224 1.378 . S
C1226 C1227 1.367 1_565 S
C1227 C1226 1.367 1_545 S
C1227 C1229 1.433 . S
C1228 C1224 1.350 1_545 S
C1228 C1225 1.463 . S
C1228 N1232 1.427 . S
C1229 H1219 0.929 . S
C1229 C1227 1.433 . S
C1229 N1232 1.384 . S
C1230 H1221 0.929 . S
C1230 C1222 1.378 . S
C1230 C1225 1.350 . S
C1231 H1218 0.929 . S
C1231 C1223 1.433 1_565 S
C1231 N1233 1.384 . S
N1232 C1228 1.427 . S
N1232 C1229 1.384 . S
N1233 C1225 1.427 1_565 S
N1233 C1231 1.384 . S
H1234 C1240 0.930 . S
H1235 C1244 0.930 . S
H1236 C1249 0.929 . S
H1237 C1247 0.929 . S
H1238 C1242 0.929 . S
H1239 C1248 0.929 . S
C1240 H1234 0.930 . S
C1240 C1241 1.367 . S
C1240 C1248 1.378 . S
C1241 C1240 1.367 . S
C1241 C1249 1.433 . S
C1242 H1238 0.929 . S
C1242 C1244 1.378 . S
C1242 C1246 1.350 . S
C1243 C1246 1.463 . S
C1243 C1248 1.350 . S
C1243 N1251 1.427 . S
C1244 H1235 0.930 . S
C1244 C1242 1.378 . S
C1244 C1245 1.367 . S
C1245 C1244 1.367 . S
C1245 C1247 1.433 . S
C1246 C1242 1.350 . S
C1246 C1243 1.463 . S
C1246 N1250 1.427 . S
C1247 H1237 0.929 . S
C1247 C1245 1.433 . S
C1247 N1250 1.384 . S
C1248 H1239 0.929 . S
C1248 C1240 1.378 . S
C1248 C1243 1.350 . S
C1249 H1236 0.929 . S
C1249 C1241 1.433 . S
C1249 N1251 1.384 . S
N1250 C1246 1.427 . S
N1250 C1247 1.384 . S
N1251 C1243 1.427 . S
N1251 C1249 1.384 . S
H1252 C1258 0.930 . S
H1253 C1262 0.930 . S
H1254 C1267 0.929 . S
H1255 C1265 0.929 . S
H1256 C1260 0.929 . S
H1257 C1266 0.929 . S
C1258 H1252 0.930 . S
C1258 C1259 1.367 . S
C1258 C1266 1.378 . S
C1259 C1258 1.367 . S
C1259 C1267 1.433 . S
C1260 H1256 0.929 . S
C1260 C1262 1.378 . S
C1260 C1264 1.350 . S
C1261 C1264 1.463 . S
C1261 C1266 1.350 . S
C1261 N1269 1.427 . S
C1262 H1253 0.930 . S
C1262 C1260 1.378 . S
C1262 C1263 1.367 . S
C1263 C1262 1.367 . S
C1263 C1265 1.433 . S
C1264 C1260 1.350 . S
C1264 C1261 1.463 . S
C1264 N1268 1.427 . S
C1265 H1255 0.929 . S
C1265 C1263 1.433 . S
C1265 N1268 1.384 . S
C1266 H1257 0.929 . S
C1266 C1258 1.378 . S
C1266 C1261 1.350 . S
C1267 H1254 0.929 . S
C1267 C1259 1.433 . S
C1267 N1269 1.384 . S
N1268 C1264 1.427 . S
N1268 C1265 1.384 . S
N1269 C1261 1.427 . S
N1269 C1267 1.384 . S
H1270 C1276 0.930 . S
H1271 C1280 0.930 . S
H1272 C1285 0.929 . S
H1273 C1283 0.929 . S
H1274 C1278 0.929 . S
H1275 C1284 0.929 . S
C1276 H1270 0.930 . S
C1276 C1277 1.367 1_565 S
C1276 C1284 1.378 . S
C1277 C1276 1.367 1_545 S
C1277 C1285 1.433 . S
C1278 H1274 0.929 . S
C1278 C1280 1.378 . S
C1278 C1282 1.350 . S
C1279 C1282 1.463 . S
C1279 C1284 1.350 1_545 S
C1279 N1287 1.427 . S
C1280 H1271 0.930 . S
C1280 C1278 1.378 . S
C1280 C1281 1.367 . S
C1281 C1280 1.367 . S
C1281 C1283 1.433 1_545 S
C1282 C1278 1.350 . S
C1282 C1279 1.463 . S
C1282 N1286 1.427 1_545 S
C1283 H1273 0.929 . S
C1283 C1281 1.433 1_565 S
C1283 N1286 1.384 . S
C1284 H1275 0.929 . S
C1284 C1276 1.378 . S
C1284 C1279 1.350 1_565 S
C1285 H1272 0.929 . S
C1285 C1277 1.433 . S
C1285 N1287 1.384 . S
N1286 C1282 1.427 1_565 S
N1286 C1283 1.384 . S
N1287 C1279 1.427 . S
N1287 C1285 1.384 . S
H1288 C1294 0.930 . S
H1289 C1298 0.930 . S
H1290 C1303 0.929 . S
H1291 C1301 0.929 . S
H1292 C1296 0.929 . S
H1293 C1302 0.929 . S
C1294 H1288 0.930 . S
C1294 C1295 1.367 1_545 S
C1294 C1302 1.378 . S
C1295 C1294 1.367 1_565 S
C1295 C1303 1.433 . S
C1296 H1292 0.929 . S
C1296 C1298 1.378 . S
C1296 C1300 1.350 . S
C1297 C1300 1.463 . S
C1297 C1302 1.350 1_565 S
C1297 N1305 1.427 . S
C1298 H1289 0.930 . S
C1298 C1296 1.378 . S
C1298 C1299 1.367 . S
C1299 C1298 1.367 . S
C1299 C1301 1.433 1_565 S
C1300 C1296 1.350 . S
C1300 C1297 1.463 . S
C1300 N1304 1.427 1_565 S
C1301 H1291 0.929 . S
C1301 C1299 1.433 1_545 S
C1301 N1304 1.384 . S
C1302 H1293 0.929 . S
C1302 C1294 1.378 . S
C1302 C1297 1.350 1_545 S
C1303 H1290 0.929 . S
C1303 C1295 1.433 . S
C1303 N1305 1.384 . S
N1304 C1300 1.427 1_545 S
N1304 C1301 1.384 . S
N1305 C1297 1.427 . S
N1305 C1303 1.384 . S
H1306 C1312 0.930 . S
H1307 C1316 0.930 . S
H1308 C1321 0.929 . S
H1309 C1319 0.929 . S
H1310 C1314 0.929 . S
H1311 C1320 0.929 . S
C1312 H1306 0.930 . S
C1312 C1313 1.367 . S
C1312 C1320 1.378 . S
C1313 C1312 1.367 . S
C1313 C1321 1.433 . S
C1314 H1310 0.929 . S
C1314 C1316 1.378 . S
C1314 C1318 1.350 . S
C1315 C1318 1.463 . S
C1315 C1320 1.350 . S
C1315 N1323 1.427 . S
C1316 H1307 0.930 . S
C1316 C1314 1.378 . S
C1316 C1317 1.367 . S
C1317 C1316 1.367 . S
C1317 C1319 1.433 . S
C1318 C1314 1.350 . S
C1318 C1315 1.463 . S
C1318 N1322 1.427 . S
C1319 H1309 0.929 . S
C1319 C1317 1.433 . S
C1319 N1322 1.384 . S
C1320 H1311 0.929 . S
C1320 C1312 1.378 . S
C1320 C1315 1.350 . S
C1321 H1308 0.929 . S
C1321 C1313 1.433 . S
C1321 N1323 1.384 . S
N1322 C1318 1.427 . S
N1322 C1319 1.384 . S
N1323 C1315 1.427 . S
N1323 C1321 1.384 . S
H1324 C1330 0.930 . S
H1325 C1334 0.930 . S
H1326 C1339 0.929 . S
H1327 C1337 0.929 . S
H1328 C1332 0.929 . S
H1329 C1338 0.929 . S
C1330 H1324 0.930 . S
C1330 C1331 1.367 . S
C1330 C1338 1.378 . S
C1331 C1330 1.367 . S
C1331 C1339 1.433 . S
C1332 H1328 0.929 . S
C1332 C1334 1.378 . S
C1332 C1336 1.350 . S
C1333 C1336 1.463 . S
C1333 C1338 1.350 . S
C1333 N1341 1.427 . S
C1334 H1325 0.930 . S
C1334 C1332 1.378 . S
C1334 C1335 1.367 . S
C1335 C1334 1.367 . S
C1335 C1337 1.433 . S
C1336 C1332 1.350 . S
C1336 C1333 1.463 . S
C1336 N1340 1.427 . S
C1337 H1327 0.929 . S
C1337 C1335 1.433 . S
C1337 N1340 1.384 . S
C1338 H1329 0.929 . S
C1338 C1330 1.378 . S
C1338 C1333 1.350 . S
C1339 H1326 0.929 . S
C1339 C1331 1.433 . S
C1339 N1341 1.384 . S
N1340 C1336 1.427 . S
N1340 C1337 1.384 . S
N1341 C1333 1.427 . S
N1341 C1339 1.384 . S
H1342 C1348 0.930 . S
H1343 C1352 0.930 . S
H1344 C1357 0.929 . S
H1345 C1355 0.929 . S
H1346 C1350 0.929 . S
H1347 C1356 0.929 . S
C1348 H1342 0.930 . S
C1348 C1349 1.367 . S
C1348 C1356 1.378 . S
C1349 C1348 1.367 . S
C1349 C1357 1.433 1_565 S
C1350 H1346 0.929 . S
C1350 C1352 1.378 . S
C1350 C1354 1.350 1_545 S
C1351 C1354 1.463 . S
C1351 C1356 1.350 . S
C1351 N1359 1.427 1_565 S
C1352 H1343 0.930 . S
C1352 C1350 1.378 . S
C1352 C1353 1.367 1_545 S
C1353 C1352 1.367 1_565 S
C1353 C1355 1.433 . S
C1354 C1350 1.350 1_565 S
C1354 C1351 1.463 . S
C1354 N1358 1.427 . S
C1355 H1345 0.929 . S
C1355 C1353 1.433 . S
C1355 N1358 1.384 . S
C1356 H1347 0.929 . S
C1356 C1348 1.378 . S
C1356 C1351 1.350 . S
C1357 H1344 0.929 . S
C1357 C1349 1.433 1_545 S
C1357 N1359 1.384 . S
N1358 C1354 1.427 . S
N1358 C1355 1.384 . S
N1359 C1351 1.427 1_545 S
N1359 C1357 1.384 . S
H1360 C1366 0.930 . S
H1361 C1370 0.930 . S
H1362 C1375 0.929 . S
H1363 C1373 0.929 . S
H1364 C1368 0.929 . S
H1365 C1374 0.929 . S
C1366 H1360 0.930 . S
C1366 C1367 1.367 . S
C1366 C1374 1.378 . S
C1367 C1366 1.367 . S
C1367 C1375 1.433 . S
C1368 H1364 0.929 . S
C1368 C1370 1.378 . S
C1368 C1372 1.350 . S
C1369 C1372 1.463 . S
C1369 C1374 1.350 . S
C1369 N1377 1.427 . S
C1370 H1361 0.930 . S
C1370 C1368 1.378 . S
C1370 C1371 1.367 . S
C1371 C1370 1.367 . S
C1371 C1373 1.433 . S
C1372 C1368 1.350 . S
C1372 C1369 1.463 . S
C1372 N1376 1.427 . S
C1373 H1363 0.929 . S
C1373 C1371 1.433 . S
C1373 N1376 1.384 . S
C1374 H1365 0.929 . S
C1374 C1366 1.378 . S
C1374 C1369 1.350 . S
C1375 H1362 0.929 . S
C1375 C1367 1.433 . S
C1375 N1377 1.384 . S
N1376 C1372 1.427 . S
N1376 C1373 1.384 . S
N1377 C1369 1.427 . S
N1377 C1375 1.384 . S
H1378 C1384 0.930 . S
H1379 C1388 0.930 . S
H1380 C1393 0.929 . S
H1381 C1391 0.929 . S
H1382 C1386 0.929 . S
H1383 C1392 0.929 . S
C1384 H1378 0.930 . S
C1384 C1385 1.367 . S
C1384 C1392 1.378 . S
C1385 C1384 1.367 . S
C1385 C1393 1.433 . S
C1386 H1382 0.929 . S
C1386 C1388 1.378 . S
C1386 C1390 1.350 . S
C1387 C1390 1.463 . S
C1387 C1392 1.350 . S
C1387 N1395 1.427 . S
C1388 H1379 0.930 . S
C1388 C1386 1.378 . S
C1388 C1389 1.367 . S
C1389 C1388 1.367 . S
C1389 C1391 1.433 . S
C1390 C1386 1.350 . S
C1390 C1387 1.463 . S
C1390 N1394 1.427 . S
C1391 H1381 0.929 . S
C1391 C1389 1.433 . S
C1391 N1394 1.384 . S
C1392 H1383 0.929 . S
C1392 C1384 1.378 . S
C1392 C1387 1.350 . S
C1393 H1380 0.929 . S
C1393 C1385 1.433 . S
C1393 N1395 1.384 . S
N1394 C1390 1.427 . S
N1394 C1391 1.384 . S
N1395 C1387 1.427 . S
N1395 C1393 1.384 . S
H1396 C1402 0.930 . S
H1397 C1406 0.930 . S
H1398 C1411 0.929 . S
H1399 C1409 0.929 . S
H1400 C1404 0.929 . S
H1401 C1410 0.929 . S
C1402 H1396 0.930 . S
C1402 C1403 1.367 . S
C1402 C1410 1.378 . S
C1403 C1402 1.367 . S
C1403 C1411 1.433 . S
C1404 H1400 0.929 . S
C1404 C1406 1.378 . S
C1404 C1408 1.350 . S
C1405 C1408 1.463 . S
C1405 C1410 1.350 . S
C1405 N1413 1.427 . S
C1406 H1397 0.930 . S
C1406 C1404 1.378 . S
C1406 C1407 1.367 . S
C1407 C1406 1.367 . S
C1407 C1409 1.433 . S
C1408 C1404 1.350 . S
C1408 C1405 1.463 . S
C1408 N1412 1.427 . S
C1409 H1399 0.929 . S
C1409 C1407 1.433 . S
C1409 N1412 1.384 . S
C1410 H1401 0.929 . S
C1410 C1402 1.378 . S
C1410 C1405 1.350 . S
C1411 H1398 0.929 . S
C1411 C1403 1.433 . S
C1411 N1413 1.384 . S
N1412 C1408 1.427 . S
N1412 C1409 1.384 . S
N1413 C1405 1.427 . S
N1413 C1411 1.384 . S
H1414 C1420 0.930 . S
H1415 C1424 0.930 . S
H1416 C1429 0.929 . S
H1417 C1427 0.929 . S
H1418 C1422 0.929 . S
H1419 C1428 0.929 . S
C1420 H1414 0.930 . S
C1420 C1421 1.367 . S
C1420 C1428 1.378 . S
C1421 C1420 1.367 . S
C1421 C1429 1.433 . S
C1422 H1418 0.929 . S
C1422 C1424 1.378 . S
C1422 C1426 1.350 . S
C1423 C1426 1.463 . S
C1423 C1428 1.350 . S
C1423 N1431 1.427 . S
C1424 H1415 0.930 . S
C1424 C1422 1.378 . S
C1424 C1425 1.367 . S
C1425 C1424 1.367 . S
C1425 C1427 1.433 . S
C1426 C1422 1.350 . S
C1426 C1423 1.463 . S
C1426 N1430 1.427 . S
C1427 H1417 0.929 . S
C1427 C1425 1.433 . S
C1427 N1430 1.384 . S
C1428 H1419 0.929 . S
C1428 C1420 1.378 . S
C1428 C1423 1.350 . S
C1429 H1416 0.929 . S
C1429 C1421 1.433 . S
C1429 N1431 1.384 . S
N1430 C1426 1.427 . S
N1430 C1427 1.384 . S
N1431 C1423 1.427 . S
N1431 C1429 1.384 . S
H1432 C1438 0.930 . S
H1433 C1442 0.930 . S
H1434 C1447 0.929 . S
H1435 C1445 0.929 . S
H1436 C1440 0.929 . S
H1437 C1446 0.929 . S
C1438 H1432 0.930 . S
C1438 C1439 1.367 . S
C1438 C1446 1.378 . S
C1439 C1438 1.367 . S
C1439 C1447 1.433 . S
C1440 H1436 0.929 . S
C1440 C1442 1.378 . S
C1440 C1444 1.350 . S
C1441 C1444 1.463 . S
C1441 C1446 1.350 . S
C1441 N1449 1.427 . S
C1442 H1433 0.930 . S
C1442 C1440 1.378 . S
C1442 C1443 1.367 . S
C1443 C1442 1.367 . S
C1443 C1445 1.433 . S
C1444 C1440 1.350 . S
C1444 C1441 1.463 . S
C1444 N1448 1.427 . S
C1445 H1435 0.929 . S
C1445 C1443 1.433 . S
C1445 N1448 1.384 . S
C1446 H1437 0.929 . S
C1446 C1438 1.378 . S
C1446 C1441 1.350 . S
C1447 H1434 0.929 . S
C1447 C1439 1.433 . S
C1447 N1449 1.384 . S
N1448 C1444 1.427 . S
N1448 C1445 1.384 . S
N1449 C1441 1.427 . S
N1449 C1447 1.384 . S
H1450 C1456 0.930 . S
H1451 C1460 0.930 . S
H1452 C1465 0.929 . S
H1453 C1463 0.929 . S
H1454 C1458 0.929 . S
H1455 C1464 0.929 . S
C1456 H1450 0.930 . S
C1456 C1457 1.367 . S
C1456 C1464 1.378 . S
C1457 C1456 1.367 . S
C1457 C1465 1.433 . S
C1458 H1454 0.929 . S
C1458 C1460 1.378 . S
C1458 C1462 1.350 . S
C1459 C1462 1.463 . S
C1459 C1464 1.350 . S
C1459 N1467 1.427 . S
C1460 H1451 0.930 . S
C1460 C1458 1.378 . S
C1460 C1461 1.367 . S
C1461 C1460 1.367 . S
C1461 C1463 1.433 . S
C1462 C1458 1.350 . S
C1462 C1459 1.463 . S
C1462 N1466 1.427 . S
C1463 H1453 0.929 . S
C1463 C1461 1.433 . S
C1463 N1466 1.384 . S
C1464 H1455 0.929 . S
C1464 C1456 1.378 . S
C1464 C1459 1.350 . S
C1465 H1452 0.929 . S
C1465 C1457 1.433 . S
C1465 N1467 1.384 . S
N1466 C1462 1.427 . S
N1466 C1463 1.384 . S
N1467 C1459 1.427 . S
N1467 C1465 1.384 . S
H1468 C1474 0.930 . S
H1469 C1478 0.930 . S
H1470 C1483 0.929 . S
H1471 C1481 0.929 . S
H1472 C1476 0.929 . S
H1473 C1482 0.929 . S
C1474 H1468 0.930 . S
C1474 C1475 1.367 . S
C1474 C1482 1.378 . S
C1475 C1474 1.367 . S
C1475 C1483 1.433 . S
C1476 H1472 0.929 . S
C1476 C1478 1.378 . S
C1476 C1480 1.350 . S
C1477 C1480 1.463 . S
C1477 C1482 1.350 . S
C1477 N1485 1.427 . S
C1478 H1469 0.930 . S
C1478 C1476 1.378 . S
C1478 C1479 1.367 . S
C1479 C1478 1.367 . S
C1479 C1481 1.433 . S
C1480 C1476 1.350 . S
C1480 C1477 1.463 . S
C1480 N1484 1.427 . S
C1481 H1471 0.929 . S
C1481 C1479 1.433 . S
C1481 N1484 1.384 . S
C1482 H1473 0.929 . S
C1482 C1474 1.378 . S
C1482 C1477 1.350 . S
C1483 H1470 0.929 . S
C1483 C1475 1.433 . S
C1483 N1485 1.384 . S
N1484 C1480 1.427 . S
N1484 C1481 1.384 . S
N1485 C1477 1.427 . S
N1485 C1483 1.384 . S
H1486 C1492 0.930 . S
H1487 C1496 0.930 . S
H1488 C1501 0.929 . S
H1489 C1499 0.929 . S
H1490 C1494 0.929 . S
H1491 C1500 0.929 . S
C1492 H1486 0.930 . S
C1492 C1493 1.367 . S
C1492 C1500 1.378 . S
C1493 C1492 1.367 . S
C1493 C1501 1.433 . S
C1494 H1490 0.929 . S
C1494 C1496 1.378 . S
C1494 C1498 1.350 . S
C1495 C1498 1.463 . S
C1495 C1500 1.350 . S
C1495 N1503 1.427 . S
C1496 H1487 0.930 . S
C1496 C1494 1.378 . S
C1496 C1497 1.367 . S
C1497 C1496 1.367 . S
C1497 C1499 1.433 . S
C1498 C1494 1.350 . S
C1498 C1495 1.463 . S
C1498 N1502 1.427 . S
C1499 H1489 0.929 . S
C1499 C1497 1.433 . S
C1499 N1502 1.384 . S
C1500 H1491 0.929 . S
C1500 C1492 1.378 . S
C1500 C1495 1.350 . S
C1501 H1488 0.929 . S
C1501 C1493 1.433 . S
C1501 N1503 1.384 . S
N1502 C1498 1.427 . S
N1502 C1499 1.384 . S
N1503 C1495 1.427 . S
N1503 C1501 1.384 . S
H1504 C1510 0.930 . S
H1505 C1514 0.930 . S
H1506 C1519 0.929 . S
H1507 C1517 0.929 . S
H1508 C1512 0.929 . S
H1509 C1518 0.929 . S
C1510 H1504 0.930 . S
C1510 C1511 1.367 . S
C1510 C1518 1.378 . S
C1511 C1510 1.367 . S
C1511 C1519 1.433 . S
C1512 H1508 0.929 . S
C1512 C1514 1.378 . S
C1512 C1516 1.350 . S
C1513 C1516 1.463 . S
C1513 C1518 1.350 . S
C1513 N1521 1.427 . S
C1514 H1505 0.930 . S
C1514 C1512 1.378 . S
C1514 C1515 1.367 . S
C1515 C1514 1.367 . S
C1515 C1517 1.433 . S
C1516 C1512 1.350 . S
C1516 C1513 1.463 . S
C1516 N1520 1.427 . S
C1517 H1507 0.929 . S
C1517 C1515 1.433 . S
C1517 N1520 1.384 . S
C1518 H1509 0.929 . S
C1518 C1510 1.378 . S
C1518 C1513 1.350 . S
C1519 H1506 0.929 . S
C1519 C1511 1.433 . S
C1519 N1521 1.384 . S
N1520 C1516 1.427 . S
N1520 C1517 1.384 . S
N1521 C1513 1.427 . S
N1521 C1519 1.384 . S
H1522 C1528 0.930 . S
H1523 C1532 0.930 . S
H1524 C1537 0.929 . S
H1525 C1535 0.929 . S
H1526 C1530 0.929 . S
H1527 C1536 0.929 . S
C1528 H1522 0.930 . S
C1528 C1529 1.367 . S
C1528 C1536 1.378 . S
C1529 C1528 1.367 . S
C1529 C1537 1.433 . S
C1530 H1526 0.929 . S
C1530 C1532 1.378 . S
C1530 C1534 1.350 . S
C1531 C1534 1.463 . S
C1531 C1536 1.350 . S
C1531 N1539 1.427 . S
C1532 H1523 0.930 . S
C1532 C1530 1.378 . S
C1532 C1533 1.367 . S
C1533 C1532 1.367 . S
C1533 C1535 1.433 . S
C1534 C1530 1.350 . S
C1534 C1531 1.463 . S
C1534 N1538 1.427 . S
C1535 H1525 0.929 . S
C1535 C1533 1.433 . S
C1535 N1538 1.384 . S
C1536 H1527 0.929 . S
C1536 C1528 1.378 . S
C1536 C1531 1.350 . S
C1537 H1524 0.929 . S
C1537 C1529 1.433 . S
C1537 N1539 1.384 . S
N1538 C1534 1.427 . S
N1538 C1535 1.384 . S
N1539 C1531 1.427 . S
N1539 C1537 1.384 . S
H1540 C1546 0.930 . S
H1541 C1550 0.930 . S
H1542 C1555 0.929 . S
H1543 C1553 0.929 . S
H1544 C1548 0.929 . S
H1545 C1554 0.929 . S
C1546 H1540 0.930 . S
C1546 C1547 1.367 . S
C1546 C1554 1.378 . S
C1547 C1546 1.367 . S
C1547 C1555 1.433 . S
C1548 H1544 0.929 . S
C1548 C1550 1.378 . S
C1548 C1552 1.350 . S
C1549 C1552 1.463 . S
C1549 C1554 1.350 . S
C1549 N1557 1.427 . S
C1550 H1541 0.930 . S
C1550 C1548 1.378 . S
C1550 C1551 1.367 . S
C1551 C1550 1.367 . S
C1551 C1553 1.433 . S
C1552 C1548 1.350 . S
C1552 C1549 1.463 . S
C1552 N1556 1.427 . S
C1553 H1543 0.929 . S
C1553 C1551 1.433 . S
C1553 N1556 1.384 . S
C1554 H1545 0.929 . S
C1554 C1546 1.378 . S
C1554 C1549 1.350 . S
C1555 H1542 0.929 . S
C1555 C1547 1.433 . S
C1555 N1557 1.384 . S
N1556 C1552 1.427 . S
N1556 C1553 1.384 . S
N1557 C1549 1.427 . S
N1557 C1555 1.384 . S
H1558 C1564 0.930 . S
H1559 C1568 0.930 . S
H1560 C1573 0.929 . S
H1561 C1571 0.929 . S
H1562 C1566 0.929 . S
H1563 C1572 0.929 . S
C1564 H1558 0.930 . S
C1564 C1565 1.367 . S
C1564 C1572 1.378 . S
C1565 C1564 1.367 . S
C1565 C1573 1.433 . S
C1566 H1562 0.929 . S
C1566 C1568 1.378 . S
C1566 C1570 1.350 . S
C1567 C1570 1.463 . S
C1567 C1572 1.350 . S
C1567 N1575 1.427 . S
C1568 H1559 0.930 . S
C1568 C1566 1.378 . S
C1568 C1569 1.367 . S
C1569 C1568 1.367 . S
C1569 C1571 1.433 . S
C1570 C1566 1.350 . S
C1570 C1567 1.463 . S
C1570 N1574 1.427 . S
C1571 H1561 0.929 . S
C1571 C1569 1.433 . S
C1571 N1574 1.384 . S
C1572 H1563 0.929 . S
C1572 C1564 1.378 . S
C1572 C1567 1.350 . S
C1573 H1560 0.929 . S
C1573 C1565 1.433 . S
C1573 N1575 1.384 . S
N1574 C1570 1.427 . S
N1574 C1571 1.384 . S
N1575 C1567 1.427 . S
N1575 C1573 1.384 . S
H1576 C1582 0.930 . S
H1577 C1586 0.930 . S
H1578 C1591 0.929 . S
H1579 C1589 0.929 . S
H1580 C1584 0.929 . S
H1581 C1590 0.929 . S
C1582 H1576 0.930 . S
C1582 C1583 1.367 . S
C1582 C1590 1.378 . S
C1583 C1582 1.367 . S
C1583 C1591 1.433 . S
C1584 H1580 0.929 . S
C1584 C1586 1.378 . S
C1584 C1588 1.350 . S
C1585 C1588 1.463 . S
C1585 C1590 1.350 . S
C1585 N1593 1.427 . S
C1586 H1577 0.930 . S
C1586 C1584 1.378 . S
C1586 C1587 1.367 . S
C1587 C1586 1.367 . S
C1587 C1589 1.433 . S
C1588 C1584 1.350 . S
C1588 C1585 1.463 . S
C1588 N1592 1.427 . S
C1589 H1579 0.929 . S
C1589 C1587 1.433 . S
C1589 N1592 1.384 . S
C1590 H1581 0.929 . S
C1590 C1582 1.378 . S
C1590 C1585 1.350 . S
C1591 H1578 0.929 . S
C1591 C1583 1.433 . S
C1591 N1593 1.384 . S
N1592 C1588 1.427 . S
N1592 C1589 1.384 . S
N1593 C1585 1.427 . S
N1593 C1591 1.384 . S
H1594 C1600 0.930 . S
H1595 C1604 0.930 . S
H1596 C1609 0.929 . S
H1597 C1607 0.929 . S
H1598 C1602 0.929 . S
H1599 C1608 0.929 . S
C1600 H1594 0.930 . S
C1600 C1601 1.367 . S
C1600 C1608 1.378 . S
C1601 C1600 1.367 . S
C1601 C1609 1.433 . S
C1602 H1598 0.929 . S
C1602 C1604 1.378 . S
C1602 C1606 1.350 . S
C1603 C1606 1.463 . S
C1603 C1608 1.350 . S
C1603 N1611 1.427 . S
C1604 H1595 0.930 . S
C1604 C1602 1.378 . S
C1604 C1605 1.367 . S
C1605 C1604 1.367 . S
C1605 C1607 1.433 . S
C1606 C1602 1.350 . S
C1606 C1603 1.463 . S
C1606 N1610 1.427 . S
C1607 H1597 0.929 . S
C1607 C1605 1.433 . S
C1607 N1610 1.384 . S
C1608 H1599 0.929 . S
C1608 C1600 1.378 . S
C1608 C1603 1.350 . S
C1609 H1596 0.929 . S
C1609 C1601 1.433 . S
C1609 N1611 1.384 . S
N1610 C1606 1.427 . S
N1610 C1607 1.384 . S
N1611 C1603 1.427 . S
N1611 C1609 1.384 . S
H1612 C1618 0.930 . S
H1613 C1622 0.930 . S
H1614 C1627 0.929 . S
H1615 C1625 0.929 . S
H1616 C1620 0.929 . S
H1617 C1626 0.929 . S
C1618 H1612 0.930 . S
C1618 C1619 1.367 . S
C1618 C1626 1.378 . S
C1619 C1618 1.367 . S
C1619 C1627 1.433 . S
C1620 H1616 0.929 . S
C1620 C1622 1.378 . S
C1620 C1624 1.350 . S
C1621 C1624 1.463 . S
C1621 C1626 1.350 . S
C1621 N1629 1.427 . S
C1622 H1613 0.930 . S
C1622 C1620 1.378 . S
C1622 C1623 1.367 . S
C1623 C1622 1.367 . S
C1623 C1625 1.433 . S
C1624 C1620 1.350 . S
C1624 C1621 1.463 . S
C1624 N1628 1.427 . S
C1625 H1615 0.929 . S
C1625 C1623 1.433 . S
C1625 N1628 1.384 . S
C1626 H1617 0.929 . S
C1626 C1618 1.378 . S
C1626 C1621 1.350 . S
C1627 H1614 0.929 . S
C1627 C1619 1.433 . S
C1627 N1629 1.384 . S
N1628 C1624 1.427 . S
N1628 C1625 1.384 . S
N1629 C1621 1.427 . S
N1629 C1627 1.384 . S
H1630 C1636 0.930 . S
H1631 C1640 0.930 . S
H1632 C1645 0.929 . S
H1633 C1643 0.929 . S
H1634 C1638 0.929 . S
H1635 C1644 0.929 . S
C1636 H1630 0.930 . S
C1636 C1637 1.367 . S
C1636 C1644 1.378 . S
C1637 C1636 1.367 . S
C1637 C1645 1.433 . S
C1638 H1634 0.929 . S
C1638 C1640 1.378 . S
C1638 C1642 1.350 . S
C1639 C1642 1.463 . S
C1639 C1644 1.350 . S
C1639 N1647 1.427 . S
C1640 H1631 0.930 . S
C1640 C1638 1.378 . S
C1640 C1641 1.367 . S
C1641 C1640 1.367 . S
C1641 C1643 1.433 . S
C1642 C1638 1.350 . S
C1642 C1639 1.463 . S
C1642 N1646 1.427 . S
C1643 H1633 0.929 . S
C1643 C1641 1.433 . S
C1643 N1646 1.384 . S
C1644 H1635 0.929 . S
C1644 C1636 1.378 . S
C1644 C1639 1.350 . S
C1645 H1632 0.929 . S
C1645 C1637 1.433 . S
C1645 N1647 1.384 . S
N1646 C1642 1.427 . S
N1646 C1643 1.384 . S
N1647 C1639 1.427 . S
N1647 C1645 1.384 . S
H1648 C1654 0.930 . S
H1649 C1658 0.930 . S
H1650 C1663 0.929 . S
H1651 C1661 0.929 . S
H1652 C1656 0.929 . S
H1653 C1662 0.929 . S
C1654 H1648 0.930 . S
C1654 C1655 1.367 . S
C1654 C1662 1.378 . S
C1655 C1654 1.367 . S
C1655 C1663 1.433 . S
C1656 H1652 0.929 . S
C1656 C1658 1.378 . S
C1656 C1660 1.350 . S
C1657 C1660 1.463 . S
C1657 C1662 1.350 . S
C1657 N1665 1.427 . S
C1658 H1649 0.930 . S
C1658 C1656 1.378 . S
C1658 C1659 1.367 . S
C1659 C1658 1.367 . S
C1659 C1661 1.433 . S
C1660 C1656 1.350 . S
C1660 C1657 1.463 . S
C1660 N1664 1.427 . S
C1661 H1651 0.929 . S
C1661 C1659 1.433 . S
C1661 N1664 1.384 . S
C1662 H1653 0.929 . S
C1662 C1654 1.378 . S
C1662 C1657 1.350 . S
C1663 H1650 0.929 . S
C1663 C1655 1.433 . S
C1663 N1665 1.384 . S
N1664 C1660 1.427 . S
N1664 C1661 1.384 . S
N1665 C1657 1.427 . S
N1665 C1663 1.384 . S
H1666 C1672 0.930 . S
H1667 C1676 0.930 . S
H1668 C1681 0.929 . S
H1669 C1679 0.929 . S
H1670 C1674 0.929 . S
H1671 C1680 0.929 . S
C1672 H1666 0.930 . S
C1672 C1673 1.367 . S
C1672 C1680 1.378 . S
C1673 C1672 1.367 . S
C1673 C1681 1.433 . S
C1674 H1670 0.929 . S
C1674 C1676 1.378 . S
C1674 C1678 1.350 . S
C1675 C1678 1.463 . S
C1675 C1680 1.350 . S
C1675 N1683 1.427 . S
C1676 H1667 0.930 . S
C1676 C1674 1.378 . S
C1676 C1677 1.367 . S
C1677 C1676 1.367 . S
C1677 C1679 1.433 . S
C1678 C1674 1.350 . S
C1678 C1675 1.463 . S
C1678 N1682 1.427 . S
C1679 H1669 0.929 . S
C1679 C1677 1.433 . S
C1679 N1682 1.384 . S
C1680 H1671 0.929 . S
C1680 C1672 1.378 . S
C1680 C1675 1.350 . S
C1681 H1668 0.929 . S
C1681 C1673 1.433 . S
C1681 N1683 1.384 . S
N1682 C1678 1.427 . S
N1682 C1679 1.384 . S
N1683 C1675 1.427 . S
N1683 C1681 1.384 . S
H1684 C1690 0.930 . S
H1685 C1694 0.930 . S
H1686 C1699 0.929 . S
H1687 C1697 0.929 . S
H1688 C1692 0.929 . S
H1689 C1698 0.929 . S
C1690 H1684 0.930 . S
C1690 C1691 1.367 . S
C1690 C1698 1.378 . S
C1691 C1690 1.367 . S
C1691 C1699 1.433 . S
C1692 H1688 0.929 . S
C1692 C1694 1.378 . S
C1692 C1696 1.350 . S
C1693 C1696 1.463 . S
C1693 C1698 1.350 . S
C1693 N1701 1.427 . S
C1694 H1685 0.930 . S
C1694 C1692 1.378 . S
C1694 C1695 1.367 . S
C1695 C1694 1.367 . S
C1695 C1697 1.433 . S
C1696 C1692 1.350 . S
C1696 C1693 1.463 . S
C1696 N1700 1.427 . S
C1697 H1687 0.929 . S
C1697 C1695 1.433 . S
C1697 N1700 1.384 . S
C1698 H1689 0.929 . S
C1698 C1690 1.378 . S
C1698 C1693 1.350 . S
C1699 H1686 0.929 . S
C1699 C1691 1.433 . S
C1699 N1701 1.384 . S
N1700 C1696 1.427 . S
N1700 C1697 1.384 . S
N1701 C1693 1.427 . S
N1701 C1699 1.384 . S
H1702 C1708 0.930 . S
H1703 C1712 0.930 . S
H1704 C1717 0.929 . S
H1705 C1715 0.929 . S
H1706 C1710 0.929 . S
H1707 C1716 0.929 . S
C1708 H1702 0.930 . S
C1708 C1709 1.367 . S
C1708 C1716 1.378 . S
C1709 C1708 1.367 . S
C1709 C1717 1.433 . S
C1710 H1706 0.929 . S
C1710 C1712 1.378 . S
C1710 C1714 1.350 . S
C1711 C1714 1.463 . S
C1711 C1716 1.350 . S
C1711 N1719 1.427 . S
C1712 H1703 0.930 . S
C1712 C1710 1.378 . S
C1712 C1713 1.367 . S
C1713 C1712 1.367 . S
C1713 C1715 1.433 . S
C1714 C1710 1.350 . S
C1714 C1711 1.463 . S
C1714 N1718 1.427 . S
C1715 H1705 0.929 . S
C1715 C1713 1.433 . S
C1715 N1718 1.384 . S
C1716 H1707 0.929 . S
C1716 C1708 1.378 . S
C1716 C1711 1.350 . S
C1717 H1704 0.929 . S
C1717 C1709 1.433 . S
C1717 N1719 1.384 . S
N1718 C1714 1.427 . S
N1718 C1715 1.384 . S
N1719 C1711 1.427 . S
N1719 C1717 1.384 . S
H1720 C1726 0.930 . S
H1721 C1730 0.930 . S
H1722 C1735 0.929 . S
H1723 C1733 0.929 . S
H1724 C1728 0.929 . S
H1725 C1734 0.929 . S
C1726 H1720 0.930 . S
C1726 C1727 1.367 . S
C1726 C1734 1.378 . S
C1727 C1726 1.367 . S
C1727 C1735 1.433 . S
C1728 H1724 0.929 . S
C1728 C1730 1.378 . S
C1728 C1732 1.350 . S
C1729 C1732 1.463 . S
C1729 C1734 1.350 . S
C1729 N1737 1.427 . S
C1730 H1721 0.930 . S
C1730 C1728 1.378 . S
C1730 C1731 1.367 . S
C1731 C1730 1.367 . S
C1731 C1733 1.433 . S
C1732 C1728 1.350 . S
C1732 C1729 1.463 . S
C1732 N1736 1.427 . S
C1733 H1723 0.929 . S
C1733 C1731 1.433 . S
C1733 N1736 1.384 . S
C1734 H1725 0.929 . S
C1734 C1726 1.378 . S
C1734 C1729 1.350 . S
C1735 H1722 0.929 . S
C1735 C1727 1.433 . S
C1735 N1737 1.384 . S
N1736 C1732 1.427 . S
N1736 C1733 1.384 . S
N1737 C1729 1.427 . S
N1737 C1735 1.384 . S
H1738 C1744 0.930 . S
H1739 C1748 0.930 . S
H1740 C1753 0.929 . S
H1741 C1751 0.929 . S
H1742 C1746 0.929 . S
H1743 C1752 0.929 . S
C1744 H1738 0.930 . S
C1744 C1745 1.367 . S
C1744 C1752 1.378 . S
C1745 C1744 1.367 . S
C1745 C1753 1.433 . S
C1746 H1742 0.929 . S
C1746 C1748 1.378 . S
C1746 C1750 1.350 . S
C1747 C1750 1.463 . S
C1747 C1752 1.350 . S
C1747 N1755 1.427 . S
C1748 H1739 0.930 . S
C1748 C1746 1.378 . S
C1748 C1749 1.367 . S
C1749 C1748 1.367 . S
C1749 C1751 1.433 . S
C1750 C1746 1.350 . S
C1750 C1747 1.463 . S
C1750 N1754 1.427 . S
C1751 H1741 0.929 . S
C1751 C1749 1.433 . S
C1751 N1754 1.384 . S
C1752 H1743 0.929 . S
C1752 C1744 1.378 . S
C1752 C1747 1.350 . S
C1753 H1740 0.929 . S
C1753 C1745 1.433 . S
C1753 N1755 1.384 . S
N1754 C1750 1.427 . S
N1754 C1751 1.384 . S
N1755 C1747 1.427 . S
N1755 C1753 1.384 . S
H1756 C1762 0.930 . S
H1757 C1766 0.930 . S
H1758 C1771 0.929 . S
H1759 C1769 0.929 . S
H1760 C1764 0.929 . S
H1761 C1770 0.929 . S
C1762 H1756 0.930 . S
C1762 C1763 1.367 . S
C1762 C1770 1.378 . S
C1763 C1762 1.367 . S
C1763 C1771 1.433 . S
C1764 H1760 0.929 . S
C1764 C1766 1.378 . S
C1764 C1768 1.350 . S
C1765 C1768 1.463 . S
C1765 C1770 1.350 . S
C1765 N1773 1.427 . S
C1766 H1757 0.930 . S
C1766 C1764 1.378 . S
C1766 C1767 1.367 . S
C1767 C1766 1.367 . S
C1767 C1769 1.433 . S
C1768 C1764 1.350 . S
C1768 C1765 1.463 . S
C1768 N1772 1.427 . S
C1769 H1759 0.929 . S
C1769 C1767 1.433 . S
C1769 N1772 1.384 . S
C1770 H1761 0.929 . S
C1770 C1762 1.378 . S
C1770 C1765 1.350 . S
C1771 H1758 0.929 . S
C1771 C1763 1.433 . S
C1771 N1773 1.384 . S
N1772 C1768 1.427 . S
N1772 C1769 1.384 . S
N1773 C1765 1.427 . S
N1773 C1771 1.384 . S
H1774 C1780 0.930 . S
H1775 C1784 0.930 . S
H1776 C1789 0.929 . S
H1777 C1787 0.929 . S
H1778 C1782 0.929 . S
H1779 C1788 0.929 . S
C1780 H1774 0.930 . S
C1780 C1781 1.367 . S
C1780 C1788 1.378 . S
C1781 C1780 1.367 . S
C1781 C1789 1.433 . S
C1782 H1778 0.929 . S
C1782 C1784 1.378 . S
C1782 C1786 1.350 . S
C1783 C1786 1.463 . S
C1783 C1788 1.350 . S
C1783 N1791 1.427 . S
C1784 H1775 0.930 . S
C1784 C1782 1.378 . S
C1784 C1785 1.367 . S
C1785 C1784 1.367 . S
C1785 C1787 1.433 . S
C1786 C1782 1.350 . S
C1786 C1783 1.463 . S
C1786 N1790 1.427 . S
C1787 H1777 0.929 . S
C1787 C1785 1.433 . S
C1787 N1790 1.384 . S
C1788 H1779 0.929 . S
C1788 C1780 1.378 . S
C1788 C1783 1.350 . S
C1789 H1776 0.929 . S
C1789 C1781 1.433 . S
C1789 N1791 1.384 . S
N1790 C1786 1.427 . S
N1790 C1787 1.384 . S
N1791 C1783 1.427 . S
N1791 C1789 1.384 . S
H1792 C1798 0.930 . S
H1793 C1802 0.930 . S
H1794 C1807 0.929 . S
H1795 C1805 0.929 . S
H1796 C1800 0.929 . S
H1797 C1806 0.929 . S
C1798 H1792 0.930 . S
C1798 C1799 1.367 1_556 S
C1798 C1806 1.378 . S
C1799 C1798 1.367 1_554 S
C1799 C1807 1.433 1_545 S
C1800 H1796 0.929 . S
C1800 C1802 1.378 . S
C1800 C1804 1.350 . S
C1801 C1804 1.462 1_545 S
C1801 C1806 1.352 . S
C1801 N1809 1.425 1_545 S
C1802 H1793 0.930 . S
C1802 C1800 1.378 . S
C1802 C1803 1.367 . S
C1803 C1802 1.367 . S
C1803 C1805 1.433 1_565 S
C1804 C1800 1.350 . S
C1804 C1801 1.462 1_565 S
C1804 N1808 1.427 1_565 S
C1805 H1795 0.929 . S
C1805 C1803 1.433 1_545 S
C1805 N1808 1.384 . S
C1806 H1797 0.929 . S
C1806 C1798 1.378 . S
C1806 C1801 1.352 . S
C1807 H1794 0.929 . S
C1807 C1799 1.433 1_565 S
C1807 N1809 1.384 1_554 S
N1808 C1804 1.427 1_545 S
N1808 C1805 1.384 . S
N1809 C1801 1.425 1_565 S
N1809 C1807 1.384 1_556 S
H1810 C1816 0.930 . S
H1811 C1820 0.930 . S
H1812 C1825 0.929 . S
H1813 C1823 0.929 . S
H1814 C1818 0.929 . S
H1815 C1824 0.929 . S
C1816 H1810 0.930 . S
C1816 C1817 1.367 . S
C1816 C1824 1.378 . S
C1817 C1816 1.367 . S
C1817 C1825 1.433 . S
C1818 H1814 0.929 . S
C1818 C1820 1.378 1_556 S
C1818 C1822 1.350 . S
C1819 C1822 1.463 . S
C1819 C1824 1.350 . S
C1819 N1827 1.427 . S
C1820 H1811 0.930 . S
C1820 C1818 1.378 1_554 S
C1820 C1821 1.367 1_455 S
C1821 C1820 1.367 1_655 S
C1821 C1823 1.433 1_554 S
C1822 C1818 1.350 . S
C1822 C1819 1.463 . S
C1822 N1826 1.427 1_455 S
C1823 H1813 0.929 . S
C1823 C1821 1.433 1_556 S
C1823 N1826 1.384 . S
C1824 H1815 0.929 . S
C1824 C1816 1.378 . S
C1824 C1819 1.350 . S
C1825 H1812 0.929 . S
C1825 C1817 1.433 . S
C1825 N1827 1.384 . S
N1826 C1822 1.427 1_655 S
N1826 C1823 1.384 . S
N1827 C1819 1.427 . S
N1827 C1825 1.384 . S
H1828 C1834 0.930 . S
H1829 C1838 0.930 . S
H1830 C1843 0.929 . S
H1831 C1841 0.929 . S
H1832 C1836 0.929 . S
H1833 C1842 0.929 . S
C1834 H1828 0.930 . S
C1834 C1835 1.367 . S
C1834 C1842 1.378 . S
C1835 C1834 1.367 . S
C1835 C1843 1.433 . S
C1836 H1832 0.929 . S
C1836 C1838 1.378 . S
C1836 C1840 1.350 . S
C1837 C1840 1.463 . S
C1837 C1842 1.350 . S
C1837 N1845 1.427 . S
C1838 H1829 0.930 . S
C1838 C1836 1.378 . S
C1838 C1839 1.367 . S
C1839 C1838 1.367 . S
C1839 C1841 1.433 . S
C1840 C1836 1.350 . S
C1840 C1837 1.463 . S
C1840 N1844 1.427 . S
C1841 H1831 0.929 . S
C1841 C1839 1.433 . S
C1841 N1844 1.384 . S
C1842 H1833 0.929 . S
C1842 C1834 1.378 . S
C1842 C1837 1.350 . S
C1843 H1830 0.929 . S
C1843 C1835 1.433 . S
C1843 N1845 1.384 . S
N1844 C1840 1.427 . S
N1844 C1841 1.384 . S
N1845 C1837 1.427 . S
N1845 C1843 1.384 . S
H1846 C1852 0.930 . S
H1847 C1856 0.930 . S
H1848 C1861 0.929 . S
H1849 C1859 0.929 . S
H1850 C1854 0.929 . S
H1851 C1860 0.927 1_655 S
C1852 H1846 0.930 . S
C1852 C1853 1.367 . S
C1852 C1860 1.370 1_655 S
C1853 C1852 1.367 . S
C1853 C1861 1.433 1_645 S
C1854 H1850 0.929 . S
C1854 C1856 1.378 . S
C1854 C1858 1.350 . S
C1855 C1858 1.462 1_545 S
C1855 C1860 1.359 . S
C1855 N1863 1.427 1_545 S
C1856 H1847 0.930 . S
C1856 C1854 1.378 . S
C1856 C1857 1.367 . S
C1857 C1856 1.367 . S
C1857 C1859 1.433 1_565 S
C1858 C1854 1.350 . S
C1858 C1855 1.462 1_565 S
C1858 N1862 1.427 1_565 S
C1859 H1849 0.929 . S
C1859 C1857 1.433 1_545 S
C1859 N1862 1.384 . S
C1860 H1851 0.927 1_455 S
C1860 C1852 1.370 1_455 S
C1860 C1855 1.359 . S
C1861 H1848 0.929 . S
C1861 C1853 1.433 1_465 S
C1861 N1863 1.384 . S
N1862 C1858 1.427 1_545 S
N1862 C1859 1.384 . S
N1863 C1855 1.427 1_565 S
N1863 C1861 1.384 . S
H1864 C1870 0.930 . S
H1865 C1874 0.930 . S
H1866 C1879 0.929 . S
H1867 C1877 0.929 . S
H1868 C1872 0.929 . S
H1869 C1878 0.929 . S
C1870 H1864 0.930 . S
C1870 C1871 1.367 . S
C1870 C1878 1.378 . S
C1871 C1870 1.367 . S
C1871 C1879 1.433 1_545 S
C1872 H1868 0.929 . S
C1872 C1874 1.378 1_554 S
C1872 C1876 1.350 1_565 S
C1873 C1876 1.462 . S
C1873 C1878 1.350 . S
C1873 N1881 1.427 1_545 S
C1874 H1865 0.930 . S
C1874 C1872 1.378 1_556 S
C1874 C1875 1.367 . S
C1875 C1874 1.367 . S
C1875 C1877 1.433 1_566 S
C1876 C1872 1.350 1_545 S
C1876 C1873 1.462 . S
C1876 N1880 1.427 . S
C1877 H1867 0.929 . S
C1877 C1875 1.433 1_544 S
C1877 N1880 1.384 . S
C1878 H1869 0.929 . S
C1878 C1870 1.378 . S
C1878 C1873 1.350 . S
C1879 H1866 0.929 . S
C1879 C1871 1.433 1_565 S
C1879 N1881 1.384 . S
N1880 C1876 1.427 . S
N1880 C1877 1.384 . S
N1881 C1873 1.427 1_565 S
N1881 C1879 1.384 . S
H1882 C1888 0.930 1_556 S
H1883 C1892 0.930 . S
H1884 C1897 0.929 1_556 S
H1885 C1895 0.929 . S
H1886 C1890 0.929 . S
H1887 C1896 0.929 . S
C1888 H1882 0.930 1_554 S
C1888 C1889 1.367 1_554 S
C1888 C1896 1.378 1_455 S
C1889 C1888 1.367 1_556 S
C1889 C1897 1.433 1_556 S
C1890 H1886 0.929 . S
C1890 C1892 1.378 . S
C1890 C1894 1.350 . S
C1891 C1894 1.463 . S
C1891 C1896 1.350 . S
C1891 N1899 1.427 . S
C1892 H1883 0.930 . S
C1892 C1890 1.378 . S
C1892 C1893 1.367 . S
C1893 C1892 1.367 . S
C1893 C1895 1.433 . S
C1894 C1890 1.350 . S
C1894 C1891 1.463 . S
C1894 N1898 1.427 . S
C1895 H1885 0.929 . S
C1895 C1893 1.433 . S
C1895 N1898 1.384 . S
C1896 H1887 0.929 . S
C1896 C1888 1.378 1_655 S
C1896 C1891 1.350 . S
C1897 H1884 0.929 1_554 S
C1897 C1889 1.433 1_554 S
C1897 N1899 1.384 1_455 S
N1898 C1894 1.427 . S
N1898 C1895 1.384 . S
N1899 C1891 1.427 . S
N1899 C1897 1.384 1_655 S
H1900 C1906 0.930 . S
H1901 C1910 0.930 . S
H1902 C1915 0.929 . S
H1903 C1913 0.929 . S
H1904 C1908 0.929 . S
H1905 C1914 0.929 . S
C1906 H1900 0.930 . S
C1906 C1907 1.367 . S
C1906 C1914 1.378 . S
C1907 C1906 1.367 . S
C1907 C1915 1.433 . S
C1908 H1904 0.929 . S
C1908 C1910 1.378 . S
C1908 C1912 1.350 . S
C1909 C1912 1.463 . S
C1909 C1914 1.350 . S
C1909 N1917 1.427 . S
C1910 H1901 0.930 . S
C1910 C1908 1.378 . S
C1910 C1911 1.367 . S
C1911 C1910 1.367 . S
C1911 C1913 1.433 . S
C1912 C1908 1.350 . S
C1912 C1909 1.463 . S
C1912 N1916 1.427 . S
C1913 H1903 0.929 . S
C1913 C1911 1.433 . S
C1913 N1916 1.384 . S
C1914 H1905 0.929 . S
C1914 C1906 1.378 . S
C1914 C1909 1.350 . S
C1915 H1902 0.929 . S
C1915 C1907 1.433 . S
C1915 N1917 1.384 . S
N1916 C1912 1.427 . S
N1916 C1913 1.384 . S
N1917 C1909 1.427 . S
N1917 C1915 1.384 . S
H1918 C1924 0.930 . S
H1919 C1928 0.930 . S
H1920 C1933 0.929 . S
H1921 C1931 0.929 . S
H1922 C1926 0.929 . S
H1923 C1932 0.929 . S
C1924 H1918 0.930 . S
C1924 C1925 1.367 1_565 S
C1924 C1932 1.378 . S
C1925 C1924 1.367 1_545 S
C1925 C1933 1.433 . S
C1926 H1922 0.929 . S
C1926 C1928 1.378 1_655 S
C1926 C1930 1.350 . S
C1927 C1930 1.463 . S
C1927 C1932 1.315 1_545 S
C1927 N1935 1.466 . S
C1928 H1919 0.930 . S
C1928 C1926 1.378 1_455 S
C1928 C1929 1.367 1_545 S
C1929 C1928 1.367 1_565 S
C1929 C1931 1.433 1_455 S
C1930 C1926 1.350 . S
C1930 C1927 1.463 . S
C1930 N1934 1.427 1_545 S
C1931 H1921 0.929 . S
C1931 C1929 1.433 1_655 S
C1931 N1934 1.384 . S
C1932 H1923 0.929 . S
C1932 C1924 1.378 . S
C1932 C1927 1.315 1_565 S
C1933 H1920 0.929 . S
C1933 C1925 1.433 . S
C1933 N1935 1.384 . S
N1934 C1930 1.427 1_565 S
N1934 C1931 1.384 . S
N1935 C1927 1.466 . S
N1935 C1933 1.384 . S
H1936 C1942 0.930 . S
H1937 C1946 0.930 . S
H1938 C1951 0.929 . S
H1939 C1949 0.929 . S
H1940 C1944 0.929 . S
H1941 C1950 0.929 . S
C1942 H1936 0.930 . S
C1942 C1943 1.367 . S
C1942 C1950 1.378 . S
C1943 C1942 1.367 . S
C1943 C1951 1.433 . S
C1944 H1940 0.929 . S
C1944 C1946 1.378 . S
C1944 C1948 1.350 . S
C1945 C1948 1.463 . S
C1945 C1950 1.350 . S
C1945 N1953 1.427 . S
C1946 H1937 0.930 . S
C1946 C1944 1.378 . S
C1946 C1947 1.367 . S
C1947 C1946 1.367 . S
C1947 C1949 1.433 . S
C1948 C1944 1.350 . S
C1948 C1945 1.463 . S
C1948 N1952 1.427 . S
C1949 H1939 0.929 . S
C1949 C1947 1.433 . S
C1949 N1952 1.384 . S
C1950 H1941 0.929 . S
C1950 C1942 1.378 . S
C1950 C1945 1.350 . S
C1951 H1938 0.929 . S
C1951 C1943 1.433 . S
C1951 N1953 1.384 . S
N1952 C1948 1.427 . S
N1952 C1949 1.384 . S
N1953 C1945 1.427 . S
N1953 C1951 1.384 . S
H1954 C1960 0.930 . S
H1955 C1964 0.930 . S
H1956 C1969 0.929 . S
H1957 C1967 0.929 . S
H1958 C1962 0.929 . S
H1959 C1968 0.929 . S
C1960 H1954 0.930 . S
C1960 C1961 1.367 . S
C1960 C1968 1.378 . S
C1961 C1960 1.367 . S
C1961 C1969 1.433 . S
C1962 H1958 0.929 . S
C1962 C1964 1.378 1_455 S
C1962 C1966 1.350 . S
C1963 C1966 1.463 . S
C1963 C1968 1.350 . S
C1963 N1971 1.427 . S
C1964 H1955 0.930 . S
C1964 C1962 1.378 1_655 S
C1964 C1965 1.367 . S
C1965 C1964 1.367 . S
C1965 C1967 1.433 . S
C1966 C1962 1.350 . S
C1966 C1963 1.463 . S
C1966 N1970 1.427 . S
C1967 H1957 0.929 . S
C1967 C1965 1.433 . S
C1967 N1970 1.384 1_655 S
C1968 H1959 0.929 . S
C1968 C1960 1.378 . S
C1968 C1963 1.350 . S
C1969 H1956 0.929 . S
C1969 C1961 1.433 . S
C1969 N1971 1.384 . S
N1970 C1966 1.427 . S
N1970 C1967 1.384 1_455 S
N1971 C1963 1.427 . S
N1971 C1969 1.384 . S
H1972 C1978 0.930 . S
H1973 C1982 0.930 . S
H1974 C1987 0.929 . S
H1975 C1985 0.929 . S
H1976 C1980 0.929 . S
H1977 C1986 0.929 . S
C1978 H1972 0.930 . S
C1978 C1979 1.367 . S
C1978 C1986 1.378 . S
C1979 C1978 1.367 . S
C1979 C1987 1.433 . S
C1980 H1976 0.929 . S
C1980 C1982 1.378 . S
C1980 C1984 1.350 . S
C1981 C1984 1.463 . S
C1981 C1986 1.350 . S
C1981 N1989 1.427 . S
C1982 H1973 0.930 . S
C1982 C1980 1.378 . S
C1982 C1983 1.367 . S
C1983 C1982 1.367 . S
C1983 C1985 1.433 . S
C1984 C1980 1.350 . S
C1984 C1981 1.463 . S
C1984 N1988 1.427 . S
C1985 H1975 0.929 . S
C1985 C1983 1.433 . S
C1985 N1988 1.384 . S
C1986 H1977 0.929 . S
C1986 C1978 1.378 . S
C1986 C1981 1.350 . S
C1987 H1974 0.929 . S
C1987 C1979 1.433 . S
C1987 N1989 1.384 . S
N1988 C1984 1.427 . S
N1988 C1985 1.384 . S
N1989 C1981 1.427 . S
N1989 C1987 1.384 . S
H1990 C1996 0.930 . S
H1991 C2000 0.930 . S
H1992 C2005 0.929 . S
H1993 C2003 0.929 . S
H1994 C1998 0.929 . S
H1995 C2004 0.929 . S
C1996 H1990 0.930 . S
C1996 C1997 1.367 . S
C1996 C2004 1.378 . S
C1997 C1996 1.367 . S
C1997 C2005 1.433 . S
C1998 H1994 0.929 . S
C1998 C2000 1.378 1_455 S
C1998 C2002 1.350 . S
C1999 C2002 1.463 . S
C1999 C2004 1.350 . S
C1999 N2007 1.427 . S
C2000 H1991 0.930 . S
C2000 C1998 1.378 1_655 S
C2000 C2001 1.367 . S
C2001 C2000 1.367 . S
C2001 C2003 1.433 . S
C2002 C1998 1.350 . S
C2002 C1999 1.463 . S
C2002 N2006 1.427 . S
C2003 H1993 0.929 . S
C2003 C2001 1.433 . S
C2003 N2006 1.384 1_655 S
C2004 H1995 0.929 . S
C2004 C1996 1.378 . S
C2004 C1999 1.350 . S
C2005 H1992 0.929 . S
C2005 C1997 1.433 . S
C2005 N2007 1.384 . S
N2006 C2002 1.427 . S
N2006 C2003 1.384 1_455 S
N2007 C1999 1.427 . S
N2007 C2005 1.384 . S
H2008 C2014 0.930 . S
H2009 C2018 0.930 . S
H2010 C2023 0.929 . S
H2011 C2021 0.929 . S
H2012 C2016 0.929 . S
H2013 C2022 0.929 . S
C2014 H2008 0.930 . S
C2014 C2015 1.367 . S
C2014 C2022 1.378 . S
C2015 C2014 1.367 . S
C2015 C2023 1.433 . S
C2016 H2012 0.929 . S
C2016 C2018 1.378 . S
C2016 C2020 1.350 . S
C2017 C2020 1.463 . S
C2017 C2022 1.350 . S
C2017 N2025 1.427 . S
C2018 H2009 0.930 . S
C2018 C2016 1.378 . S
C2018 C2019 1.367 . S
C2019 C2018 1.367 . S
C2019 C2021 1.433 . S
C2020 C2016 1.350 . S
C2020 C2017 1.463 . S
C2020 N2024 1.427 . S
C2021 H2011 0.929 . S
C2021 C2019 1.433 . S
C2021 N2024 1.384 . S
C2022 H2013 0.929 . S
C2022 C2014 1.378 . S
C2022 C2017 1.350 . S
C2023 H2010 0.929 . S
C2023 C2015 1.433 . S
C2023 N2025 1.384 . S
N2024 C2020 1.427 . S
N2024 C2021 1.384 . S
N2025 C2017 1.427 . S
N2025 C2023 1.384 . S
H2026 C2032 0.931 1_455 S
H2027 C2036 0.930 . S
H2028 C2041 0.929 . S
H2029 C2039 0.929 . S
H2030 C2034 0.929 . S
H2031 C2040 0.929 . S
C2032 H2026 0.931 1_655 S
C2032 C2033 1.368 1_655 S
C2032 C2040 1.376 . S
C2033 C2032 1.368 1_455 S
C2033 C2041 1.433 . S
C2034 H2030 0.929 . S
C2034 C2036 1.378 . S
C2034 C2038 1.350 . S
C2035 C2038 1.463 . S
C2035 C2040 1.350 . S
C2035 N2043 1.427 . S
C2036 H2027 0.930 . S
C2036 C2034 1.378 . S
C2036 C2037 1.367 . S
C2037 C2036 1.367 . S
C2037 C2039 1.433 . S
C2038 C2034 1.350 . S
C2038 C2035 1.463 . S
C2038 N2042 1.427 . S
C2039 H2029 0.929 . S
C2039 C2037 1.433 . S
C2039 N2042 1.384 . S
C2040 H2031 0.929 . S
C2040 C2032 1.376 . S
C2040 C2035 1.350 . S
C2041 H2028 0.929 . S
C2041 C2033 1.433 . S
C2041 N2043 1.384 1_455 S
N2042 C2038 1.427 . S
N2042 C2039 1.384 . S
N2043 C2035 1.427 . S
N2043 C2041 1.384 1_655 S
H2044 C2050 0.930 . S
H2045 C2054 0.930 . S
H2046 C2059 0.929 . S
H2047 C2057 0.929 . S
H2048 C2052 0.929 . S
H2049 C2058 0.929 . S
C2050 H2044 0.930 . S
C2050 C2051 1.367 . S
C2050 C2058 1.378 . S
C2051 C2050 1.367 . S
C2051 C2059 1.433 . S
C2052 H2048 0.929 . S
C2052 C2054 1.378 . S
C2052 C2056 1.350 . S
C2053 C2056 1.463 . S
C2053 C2058 1.350 . S
C2053 N2061 1.427 . S
C2054 H2045 0.930 . S
C2054 C2052 1.378 . S
C2054 C2055 1.367 . S
C2055 C2054 1.367 . S
C2055 C2057 1.433 . S
C2056 C2052 1.350 . S
C2056 C2053 1.463 . S
C2056 N2060 1.427 . S
C2057 H2047 0.929 . S
C2057 C2055 1.433 . S
C2057 N2060 1.384 . S
C2058 H2049 0.929 . S
C2058 C2050 1.378 . S
C2058 C2053 1.350 . S
C2059 H2046 0.929 . S
C2059 C2051 1.433 . S
C2059 N2061 1.384 . S
N2060 C2056 1.427 . S
N2060 C2057 1.384 . S
N2061 C2053 1.427 . S
N2061 C2059 1.384 . S
H2062 C2068 0.930 . S
H2063 C2072 0.930 . S
H2064 C2077 0.929 . S
H2065 C2075 0.929 1_455 S
H2066 C2070 0.929 . S
H2067 C2076 0.929 . S
C2068 H2062 0.930 . S
C2068 C2069 1.367 . S
C2068 C2076 1.378 . S
C2069 C2068 1.367 . S
C2069 C2077 1.433 . S
C2070 H2066 0.929 . S
C2070 C2072 1.378 1_655 S
C2070 C2074 1.350 . S
C2071 C2074 1.463 . S
C2071 C2076 1.350 . S
C2071 N2079 1.427 . S
C2072 H2063 0.930 . S
C2072 C2070 1.378 1_455 S
C2072 C2073 1.367 . S
C2073 C2072 1.367 . S
C2073 C2075 1.433 1_455 S
C2074 C2070 1.350 . S
C2074 C2071 1.463 . S
C2074 N2078 1.427 . S
C2075 H2065 0.929 1_655 S
C2075 C2073 1.433 1_655 S
C2075 N2078 1.384 . S
C2076 H2067 0.929 . S
C2076 C2068 1.378 . S
C2076 C2071 1.350 . S
C2077 H2064 0.929 . S
C2077 C2069 1.433 . S
C2077 N2079 1.384 . S
N2078 C2074 1.427 . S
N2078 C2075 1.384 . S
N2079 C2071 1.427 . S
N2079 C2077 1.384 . S
H2080 C2086 0.930 . S
H2081 C2090 0.930 . S
H2082 C2095 0.929 . S
H2083 C2093 0.929 . S
H2084 C2088 0.929 . S
H2085 C2094 0.929 . S
C2086 H2080 0.930 . S
C2086 C2087 1.367 1_565 S
C2086 C2094 1.378 . S
C2087 C2086 1.367 1_545 S
C2087 C2095 1.433 . S
C2088 H2084 0.929 . S
C2088 C2090 1.378 . S
C2088 C2092 1.314 1_545 S
C2089 C2092 1.463 . S
C2089 C2094 1.350 . S
C2089 N2097 1.427 1_565 S
C2090 H2081 0.930 . S
C2090 C2088 1.378 . S
C2090 C2091 1.367 1_545 S
C2091 C2090 1.367 1_565 S
C2091 C2093 1.433 . S
C2092 C2088 1.314 1_565 S
C2092 C2089 1.463 . S
C2092 N2096 1.466 . S
C2093 H2083 0.929 . S
C2093 C2091 1.433 . S
C2093 N2096 1.384 . S
C2094 H2085 0.929 . S
C2094 C2086 1.378 . S
C2094 C2089 1.350 . S
C2095 H2082 0.929 . S
C2095 C2087 1.433 . S
C2095 N2097 1.384 . S
N2096 C2092 1.466 . S
N2096 C2093 1.384 . S
N2097 C2089 1.427 1_545 S
N2097 C2095 1.384 . S
H2098 C2104 0.930 . S
H2099 C2108 0.930 . S
H2100 C2113 0.929 . S
H2101 C2111 0.929 . S
H2102 C2106 0.929 . S
H2103 C2112 0.929 . S
C2104 H2098 0.930 . S
C2104 C2105 1.367 . S
C2104 C2112 1.378 . S
C2105 C2104 1.367 . S
C2105 C2113 1.433 . S
C2106 H2102 0.929 . S
C2106 C2108 1.378 . S
C2106 C2110 1.350 . S
C2107 C2110 1.463 . S
C2107 C2112 1.350 . S
C2107 N2115 1.427 . S
C2108 H2099 0.930 . S
C2108 C2106 1.378 . S
C2108 C2109 1.367 . S
C2109 C2108 1.367 . S
C2109 C2111 1.433 . S
C2110 C2106 1.350 . S
C2110 C2107 1.463 . S
C2110 N2114 1.427 . S
C2111 H2101 0.929 . S
C2111 C2109 1.433 . S
C2111 N2114 1.384 . S
C2112 H2103 0.929 . S
C2112 C2104 1.378 . S
C2112 C2107 1.350 . S
C2113 H2100 0.929 . S
C2113 C2105 1.433 . S
C2113 N2115 1.384 . S
N2114 C2110 1.427 . S
N2114 C2111 1.384 . S
N2115 C2107 1.427 . S
N2115 C2113 1.384 . S
H2116 C2122 0.930 . S
H2117 C2126 0.930 . S
H2118 C2131 0.929 . S
H2119 C2129 0.929 . S
H2120 C2124 0.929 . S
H2121 C2130 0.929 . S
C2122 H2116 0.930 . S
C2122 C2123 1.367 . S
C2122 C2130 1.378 . S
C2123 C2122 1.367 . S
C2123 C2131 1.433 . S
C2124 H2120 0.929 . S
C2124 C2126 1.378 . S
C2124 C2128 1.350 . S
C2125 C2128 1.463 . S
C2125 C2130 1.350 . S
C2125 N2133 1.427 . S
C2126 H2117 0.930 . S
C2126 C2124 1.378 . S
C2126 C2127 1.367 . S
C2127 C2126 1.367 . S
C2127 C2129 1.433 . S
C2128 C2124 1.350 . S
C2128 C2125 1.463 . S
C2128 N2132 1.427 . S
C2129 H2119 0.929 . S
C2129 C2127 1.433 . S
C2129 N2132 1.384 . S
C2130 H2121 0.929 . S
C2130 C2122 1.378 . S
C2130 C2125 1.350 . S
C2131 H2118 0.929 . S
C2131 C2123 1.433 . S
C2131 N2133 1.384 . S
N2132 C2128 1.427 . S
N2132 C2129 1.384 . S
N2133 C2125 1.427 . S
N2133 C2131 1.384 . S
H2134 C2140 0.930 . S
H2135 C2144 0.930 . S
H2136 C2149 0.929 . S
H2137 C2147 0.929 . S
H2138 C2142 0.929 . S
H2139 C2148 0.929 . S
C2140 H2134 0.930 . S
C2140 C2141 1.367 . S
C2140 C2148 1.378 . S
C2141 C2140 1.367 . S
C2141 C2149 1.433 1_545 S
C2142 H2138 0.929 . S
C2142 C2144 1.378 . S
C2142 C2146 1.350 . S
C2143 C2146 1.463 . S
C2143 C2148 1.348 1_565 S
C2143 N2151 1.429 . S
C2144 H2135 0.930 . S
C2144 C2142 1.378 . S
C2144 C2145 1.367 . S
C2145 C2144 1.367 . S
C2145 C2147 1.433 1_565 S
C2146 C2142 1.350 . S
C2146 C2143 1.463 . S
C2146 N2150 1.427 1_565 S
C2147 H2137 0.929 . S
C2147 C2145 1.433 1_545 S
C2147 N2150 1.384 . S
C2148 H2139 0.929 . S
C2148 C2140 1.378 . S
C2148 C2143 1.348 1_545 S
C2149 H2136 0.929 . S
C2149 C2141 1.433 1_565 S
C2149 N2151 1.384 . S
N2150 C2146 1.427 1_545 S
N2150 C2147 1.384 . S
N2151 C2143 1.429 . S
N2151 C2149 1.384 . S
H2152 C2158 0.930 . S
H2153 C2162 0.930 . S
H2154 C2167 0.929 . S
H2155 C2165 0.929 . S
H2156 C2160 0.929 . S
H2157 C2166 0.929 . S
C2158 H2152 0.930 . S
C2158 C2159 1.367 1_545 S
C2158 C2166 1.378 . S
C2159 C2158 1.367 1_565 S
C2159 C2167 1.433 . S
C2160 H2156 0.929 . S
C2160 C2162 1.378 . S
C2160 C2164 1.315 1_565 S
C2161 C2164 1.463 . S
C2161 C2166 1.350 . S
C2161 N2169 1.427 1_545 S
C2162 H2153 0.930 . S
C2162 C2160 1.378 . S
C2162 C2163 1.367 1_565 S
C2163 C2162 1.367 1_545 S
C2163 C2165 1.433 . S
C2164 C2160 1.315 1_545 S
C2164 C2161 1.463 . S
C2164 N2168 1.466 . S
C2165 H2155 0.929 . S
C2165 C2163 1.433 . S
C2165 N2168 1.384 . S
C2166 H2157 0.929 . S
C2166 C2158 1.378 . S
C2166 C2161 1.350 . S
C2167 H2154 0.929 . S
C2167 C2159 1.433 . S
C2167 N2169 1.384 . S
N2168 C2164 1.466 . S
N2168 C2165 1.384 . S
N2169 C2161 1.427 1_565 S
N2169 C2167 1.384 . S
H2170 C2176 0.930 . S
H2171 C2180 0.930 . S
H2172 C2185 0.929 . S
H2173 C2183 0.929 . S
H2174 C2178 0.929 . S
H2175 C2184 0.929 . S
C2176 H2170 0.930 . S
C2176 C2177 1.367 . S
C2176 C2184 1.378 . S
C2177 C2176 1.367 . S
C2177 C2185 1.433 . S
C2178 H2174 0.929 . S
C2178 C2180 1.378 . S
C2178 C2182 1.350 . S
C2179 C2182 1.463 . S
C2179 C2184 1.350 . S
C2179 N2187 1.427 . S
C2180 H2171 0.930 . S
C2180 C2178 1.378 . S
C2180 C2181 1.367 . S
C2181 C2180 1.367 . S
C2181 C2183 1.433 . S
C2182 C2178 1.350 . S
C2182 C2179 1.463 . S
C2182 N2186 1.427 . S
C2183 H2173 0.929 . S
C2183 C2181 1.433 . S
C2183 N2186 1.384 . S
C2184 H2175 0.929 . S
C2184 C2176 1.378 . S
C2184 C2179 1.350 . S
C2185 H2172 0.929 . S
C2185 C2177 1.433 . S
C2185 N2187 1.384 . S
N2186 C2182 1.427 . S
N2186 C2183 1.384 . S
N2187 C2179 1.427 . S
N2187 C2185 1.384 . S
H2188 C2194 0.930 . S
H2189 C2198 0.930 . S
H2190 C2203 0.929 . S
H2191 C2201 0.929 . S
H2192 C2196 0.929 . S
H2193 C2202 0.929 . S
C2194 H2188 0.930 . S
C2194 C2195 1.367 . S
C2194 C2202 1.378 . S
C2195 C2194 1.367 . S
C2195 C2203 1.433 . S
C2196 H2192 0.929 . S
C2196 C2198 1.378 . S
C2196 C2200 1.350 . S
C2197 C2200 1.463 . S
C2197 C2202 1.350 . S
C2197 N2205 1.427 . S
C2198 H2189 0.930 . S
C2198 C2196 1.378 . S
C2198 C2199 1.367 . S
C2199 C2198 1.367 . S
C2199 C2201 1.433 . S
C2200 C2196 1.350 . S
C2200 C2197 1.463 . S
C2200 N2204 1.427 . S
C2201 H2191 0.929 . S
C2201 C2199 1.433 . S
C2201 N2204 1.384 . S
C2202 H2193 0.929 . S
C2202 C2194 1.378 . S
C2202 C2197 1.350 . S
C2203 H2190 0.929 . S
C2203 C2195 1.433 . S
C2203 N2205 1.384 . S
N2204 C2200 1.427 . S
N2204 C2201 1.384 . S
N2205 C2197 1.427 . S
N2205 C2203 1.384 . S
H2206 C2212 0.930 . S
H2207 C2216 0.930 . S
H2208 C2221 0.929 . S
H2209 C2219 0.929 . S
H2210 C2214 0.929 . S
H2211 C2220 0.929 . S
C2212 H2206 0.930 . S
C2212 C2213 1.367 . S
C2212 C2220 1.378 . S
C2213 C2212 1.367 . S
C2213 C2221 1.433 1_565 S
C2214 H2210 0.929 . S
C2214 C2216 1.378 . S
C2214 C2218 1.350 . S
C2215 C2218 1.462 1_565 S
C2215 C2220 1.359 . S
C2215 N2223 1.419 1_565 S
C2216 H2207 0.930 . S
C2216 C2214 1.378 . S
C2216 C2217 1.367 . S
C2217 C2216 1.367 . S
C2217 C2219 1.433 1_545 S
C2218 C2214 1.350 . S
C2218 C2215 1.462 1_545 S
C2218 N2222 1.427 1_545 S
C2219 H2209 0.929 . S
C2219 C2217 1.433 1_565 S
C2219 N2222 1.384 . S
C2220 H2211 0.929 . S
C2220 C2212 1.378 . S
C2220 C2215 1.359 . S
C2221 H2208 0.929 . S
C2221 C2213 1.433 1_545 S
C2221 N2223 1.384 . S
N2222 C2218 1.427 1_565 S
N2222 C2219 1.384 . S
N2223 C2215 1.419 1_545 S
N2223 C2221 1.384 . S
H2224 C2230 0.930 . S
H2225 C2234 0.921 1_554 S
H2226 C2239 0.929 . S
H2227 C2237 0.941 . S
H2228 C2232 0.929 . S
H2229 C2238 0.929 . S
C2230 H2224 0.930 . S
C2230 C2231 1.367 . S
C2230 C2238 1.378 . S
C2231 C2230 1.367 . S
C2231 C2239 1.433 . S
C2232 H2228 0.929 . S
C2232 C2234 1.392 . S
C2232 C2236 1.350 . S
C2233 C2236 1.463 . S
C2233 C2238 1.350 . S
C2233 N2241 1.427 . S
C2234 H2225 0.921 1_556 S
C2234 C2232 1.392 . S
C2234 C2235 1.362 1_556 S
C2235 C2234 1.362 1_554 S
C2235 C2237 1.433 1_554 S
C2236 C2232 1.350 . S
C2236 C2233 1.463 . S
C2236 N2240 1.427 . S
C2237 H2227 0.941 . S
C2237 C2235 1.433 1_556 S
C2237 N2240 1.384 . S
C2238 H2229 0.929 . S
C2238 C2230 1.378 . S
C2238 C2233 1.350 . S
C2239 H2226 0.929 . S
C2239 C2231 1.433 . S
C2239 N2241 1.384 . S
N2240 C2236 1.427 . S
N2240 C2237 1.384 . S
N2241 C2233 1.427 . S
N2241 C2239 1.384 . S
H2242 C2248 0.930 . S
H2243 C2252 0.930 . S
H2244 C2257 0.929 . S
H2245 C2255 0.929 . S
H2246 C2250 0.929 . S
H2247 C2256 0.929 . S
C2248 H2242 0.930 . S
C2248 C2249 1.367 . S
C2248 C2256 1.378 . S
C2249 C2248 1.367 . S
C2249 C2257 1.433 . S
C2250 H2246 0.929 . S
C2250 C2252 1.378 1_556 S
C2250 C2254 1.350 . S
C2251 C2254 1.463 . S
C2251 C2256 1.350 . S
C2251 N2259 1.427 . S
C2252 H2243 0.930 . S
C2252 C2250 1.378 1_554 S
C2252 C2253 1.367 . S
C2253 C2252 1.367 . S
C2253 C2255 1.433 1_554 S
C2254 C2250 1.350 . S
C2254 C2251 1.463 . S
C2254 N2258 1.427 . S
C2255 H2245 0.929 . S
C2255 C2253 1.433 1_556 S
C2255 N2258 1.384 . S
C2256 H2247 0.929 . S
C2256 C2248 1.378 . S
C2256 C2251 1.350 . S
C2257 H2244 0.929 . S
C2257 C2249 1.433 . S
C2257 N2259 1.384 . S
N2258 C2254 1.427 . S
N2258 C2255 1.384 . S
N2259 C2251 1.427 . S
N2259 C2257 1.384 . S
H2260 C2266 0.930 . S
H2261 C2270 0.930 . S
H2262 C2275 0.929 . S
H2263 C2273 0.929 . S
H2264 C2268 0.929 . S
H2265 C2274 0.929 . S
C2266 H2260 0.930 . S
C2266 C2267 1.367 . S
C2266 C2274 1.378 . S
C2267 C2266 1.367 . S
C2267 C2275 1.433 . S
C2268 H2264 0.929 . S
C2268 C2270 1.378 . S
C2268 C2272 1.350 . S
C2269 C2272 1.463 . S
C2269 C2274 1.350 . S
C2269 N2277 1.427 . S
C2270 H2261 0.930 . S
C2270 C2268 1.378 . S
C2270 C2271 1.367 . S
C2271 C2270 1.367 . S
C2271 C2273 1.433 . S
C2272 C2268 1.350 . S
C2272 C2269 1.463 . S
C2272 N2276 1.427 . S
C2273 H2263 0.929 . S
C2273 C2271 1.433 . S
C2273 N2276 1.384 . S
C2274 H2265 0.929 . S
C2274 C2266 1.378 . S
C2274 C2269 1.350 . S
C2275 H2262 0.929 . S
C2275 C2267 1.433 . S
C2275 N2277 1.384 . S
N2276 C2272 1.427 . S
N2276 C2273 1.384 . S
N2277 C2269 1.427 . S
N2277 C2275 1.384 . S
H2278 C2284 0.930 . S
H2279 C2288 0.930 . S
H2280 C2293 0.929 . S
H2281 C2291 0.929 . S
H2282 C2286 0.929 . S
H2283 C2292 0.929 . S
C2284 H2278 0.930 . S
C2284 C2285 1.367 . S
C2284 C2292 1.378 . S
C2285 C2284 1.367 . S
C2285 C2293 1.433 . S
C2286 H2282 0.929 . S
C2286 C2288 1.378 . S
C2286 C2290 1.350 . S
C2287 C2290 1.463 . S
C2287 C2292 1.350 . S
C2287 N2295 1.427 . S
C2288 H2279 0.930 . S
C2288 C2286 1.378 . S
C2288 C2289 1.367 . S
C2289 C2288 1.367 . S
C2289 C2291 1.433 . S
C2290 C2286 1.350 . S
C2290 C2287 1.463 . S
C2290 N2294 1.427 . S
C2291 H2281 0.929 . S
C2291 C2289 1.433 . S
C2291 N2294 1.384 . S
C2292 H2283 0.929 . S
C2292 C2284 1.378 . S
C2292 C2287 1.350 . S
C2293 H2280 0.929 . S
C2293 C2285 1.433 . S
C2293 N2295 1.384 . S
N2294 C2290 1.427 . S
N2294 C2291 1.384 . S
N2295 C2287 1.427 . S
N2295 C2293 1.384 . S
H2296 C2302 0.930 . S
H2297 C2306 0.930 . S
H2298 C2311 0.929 . S
H2299 C2309 0.929 . S
H2300 C2304 0.929 . S
H2301 C2310 0.929 . S
C2302 H2296 0.930 . S
C2302 C2303 1.367 . S
C2302 C2310 1.378 . S
C2303 C2302 1.367 . S
C2303 C2311 1.433 . S
C2304 H2300 0.929 . S
C2304 C2306 1.378 . S
C2304 C2308 1.350 . S
C2305 C2308 1.463 . S
C2305 C2310 1.350 . S
C2305 N2313 1.427 . S
C2306 H2297 0.930 . S
C2306 C2304 1.378 . S
C2306 C2307 1.367 1_554 S
C2307 C2306 1.367 1_556 S
C2307 C2309 1.433 . S
C2308 C2304 1.350 . S
C2308 C2305 1.463 . S
C2308 N2312 1.427 . S
C2309 H2299 0.929 . S
C2309 C2307 1.433 . S
C2309 N2312 1.384 1_556 S
C2310 H2301 0.929 . S
C2310 C2302 1.378 . S
C2310 C2305 1.350 . S
C2311 H2298 0.929 . S
C2311 C2303 1.433 . S
C2311 N2313 1.384 . S
N2312 C2308 1.427 . S
N2312 C2309 1.384 1_554 S
N2313 C2305 1.427 . S
N2313 C2311 1.384 . S
H2314 C2320 0.930 . S
H2315 C2324 0.930 . S
H2316 C2329 0.929 . S
H2317 C2327 0.929 . S
H2318 C2322 0.929 . S
H2319 C2328 0.929 . S
C2320 H2314 0.930 . S
C2320 C2321 1.367 . S
C2320 C2328 1.378 . S
C2321 C2320 1.367 . S
C2321 C2329 1.433 . S
C2322 H2318 0.929 . S
C2322 C2324 1.378 . S
C2322 C2326 1.350 . S
C2323 C2326 1.463 . S
C2323 C2328 1.350 . S
C2323 N2331 1.427 . S
C2324 H2315 0.930 . S
C2324 C2322 1.378 . S
C2324 C2325 1.367 1_554 S
C2325 C2324 1.367 1_556 S
C2325 C2327 1.433 . S
C2326 C2322 1.350 . S
C2326 C2323 1.463 . S
C2326 N2330 1.427 . S
C2327 H2317 0.929 . S
C2327 C2325 1.433 . S
C2327 N2330 1.384 1_556 S
C2328 H2319 0.929 . S
C2328 C2320 1.378 . S
C2328 C2323 1.350 . S
C2329 H2316 0.929 . S
C2329 C2321 1.433 . S
C2329 N2331 1.384 . S
N2330 C2326 1.427 . S
N2330 C2327 1.384 1_554 S
N2331 C2323 1.427 . S
N2331 C2329 1.384 . S
H2332 C2338 0.930 . S
H2333 C2342 0.930 . S
H2334 C2347 0.929 . S
H2335 C2345 0.929 . S
H2336 C2340 0.929 . S
H2337 C2346 0.929 . S
C2338 H2332 0.930 . S
C2338 C2339 1.367 . S
C2338 C2346 1.378 . S
C2339 C2338 1.367 . S
C2339 C2347 1.433 . S
C2340 H2336 0.929 . S
C2340 C2342 1.378 . S
C2340 C2344 1.350 . S
C2341 C2344 1.463 . S
C2341 C2346 1.350 . S
C2341 N2349 1.427 . S
C2342 H2333 0.930 . S
C2342 C2340 1.378 . S
C2342 C2343 1.367 . S
C2343 C2342 1.367 . S
C2343 C2345 1.433 . S
C2344 C2340 1.350 . S
C2344 C2341 1.463 . S
C2344 N2348 1.427 . S
C2345 H2335 0.929 . S
C2345 C2343 1.433 . S
C2345 N2348 1.384 . S
C2346 H2337 0.929 . S
C2346 C2338 1.378 . S
C2346 C2341 1.350 . S
C2347 H2334 0.929 . S
C2347 C2339 1.433 . S
C2347 N2349 1.384 . S
N2348 C2344 1.427 . S
N2348 C2345 1.384 . S
N2349 C2341 1.427 . S
N2349 C2347 1.384 . S
H2350 C2356 0.930 . S
H2351 C2360 0.930 . S
H2352 C2365 0.929 . S
H2353 C2363 0.929 . S
H2354 C2358 0.929 . S
H2355 C2364 0.929 . S
C2356 H2350 0.930 . S
C2356 C2357 1.367 . S
C2356 C2364 1.378 . S
C2357 C2356 1.367 . S
C2357 C2365 1.433 . S
C2358 H2354 0.929 . S
C2358 C2360 1.378 . S
C2358 C2362 1.350 . S
C2359 C2362 1.463 . S
C2359 C2364 1.350 . S
C2359 N2367 1.427 . S
C2360 H2351 0.930 . S
C2360 C2358 1.378 . S
C2360 C2361 1.367 . S
C2361 C2360 1.367 . S
C2361 C2363 1.433 . S
C2362 C2358 1.350 . S
C2362 C2359 1.463 . S
C2362 N2366 1.427 . S
C2363 H2353 0.929 . S
C2363 C2361 1.433 . S
C2363 N2366 1.384 . S
C2364 H2355 0.929 . S
C2364 C2356 1.378 . S
C2364 C2359 1.350 . S
C2365 H2352 0.929 . S
C2365 C2357 1.433 . S
C2365 N2367 1.384 . S
N2366 C2362 1.427 . S
N2366 C2363 1.384 . S
N2367 C2359 1.427 . S
N2367 C2365 1.384 . S
C647 C509 1.693 . S
C651 C9 1.693 . S
C665 C489 1.685 . S
C669 C29 1.695 . S
C683 C549 1.685 . S
C687 C49 1.695 . S
C701 C529 1.696 . S
C705 C69 1.688 . S
C719 C88 1.693 . S
C723 C588 1.692 . S
C737 C108 1.693 . S
C741 C568 1.692 . S
C755 C128 1.695 . S
C759 C628 1.685 . S
C773 C608 1.689 . S
C777 C148 1.695 . S
C791 C349 1.696 . S
C795 C169 1.686 . S
C809 C329 1.696 . S
C813 C189 1.686 . S
C827 C389 1.695 . S
C831 C209 1.689 . S
C845 C369 1.695 . S
C849 C229 1.690 . S
C863 C248 1.688 . S
C867 C428 1.696 . S
C881 C408 1.693 . S
C885 C268 1.685 . S
C899 C288 1.685 . S
C903 C468 1.694 . S
C917 C448 1.689 . S
C921 C308 1.695 . S
C935 C1 0.936 . S
C939 C402 0.936 . S
C953 C262 0.926 . S
C957 C21 0.926 . S
C971 C602 0.923 . S
C975 C41 0.923 . S
C989 C61 0.935 . S
C993 C142 0.935 . S
C1007 C82 0.927 . S
C1011 C321 0.927 . S
C1025 C102 0.926 . S
C1029 C181 0.926 . S
C1043 C122 0.935 . S
C1047 C521 0.935 . S
C1061 C562 0.925 . S
C1065 C161 0.925 . S
C1079 C442 0.943 . S
C1083 C201 0.943 . S
C1097 C302 0.937 . S
C1101 C221 0.937 . S
C1115 C481 0.926 . S
C1119 C242 0.926 . S
C1133 C282 0.928 . S
C1137 C361 0.928 . S
C1151 C582 0.925 . S
C1155 C341 0.925 . S
C1169 C381 0.927 . S
C1173 C462 0.927 . S
C1187 C501 0.941 . S
C1191 C422 0.941 . S
C1205 C541 0.925 . S
C1209 C622 0.925 . S
C1223 C2 1.604 . S
C1227 C382 1.605 . S
C1241 C22 1.604 . S
C1245 C362 1.604 . S
C1259 C42 1.604 . S
C1263 C342 1.605 . S
C1277 C62 1.604 . S
C1281 C322 1.603 . S
C1295 C81 1.605 . S
C1299 C461 1.604 . S
C1313 C101 1.605 . S
C1317 C441 1.604 . S
C1331 C121 1.603 . S
C1335 C421 1.604 . S
C1349 C141 1.603 . S
C1353 C401 1.604 . S
C1367 C162 1.604 . S
C1371 C542 1.605 . S
C1385 C182 1.604 . S
C1389 C522 1.605 . S
C1403 C202 1.603 . S
C1407 C502 1.604 . S
C1421 C222 1.604 . S
C1425 C482 1.605 . S
C1439 C621 1.605 . S
C1443 C241 1.604 . S
C1457 C601 1.604 . S
C1461 C261 1.605 . S
C1475 C581 1.604 . S
C1479 C281 1.603 . S
C1493 C561 1.603 . S
C1497 C301 1.604 . S
C1511 C48 1.591 . S
C1515 C8 1.580 . S
C1529 C68 1.582 . S
C1533 C28 1.588 . S
C1547 C129 1.580 . S
C1551 C89 1.590 . S
C1565 C109 1.581 . S
C1569 C149 1.590 . S
C1583 C208 1.582 . S
C1587 C168 1.588 . S
C1601 C188 1.581 . S
C1605 C228 1.589 . S
C1619 C289 1.583 . S
C1623 C249 1.589 . S
C1637 C269 1.581 . S
C1641 C309 1.591 . S
C1655 C328 1.581 . S
C1659 C368 1.589 . S
C1673 C348 1.589 . S
C1677 C388 1.582 . S
C1691 C449 1.580 . S
C1695 C409 1.590 . S
C1709 C429 1.591 . S
C1713 C469 1.580 . S
C1727 C488 1.589 . S
C1731 C528 1.582 . S
C1745 C548 1.581 . S
C1749 C508 1.590 . S
C1763 C569 1.588 . S
C1767 C609 1.582 . S
C1781 C589 1.581 . S
C1785 C629 1.589 . S
C1799 C18 1.485 . S
C1803 C158 1.483 . S
C1817 C618 1.479 . S
C1821 C38 1.486 . S
C1835 C58 1.489 . S
C1839 C278 1.477 . S
C1853 C78 1.486 . S
C1857 C418 1.483 . S
C1871 C79 1.481 . S
C1875 C99 1.485 . S
C1889 C119 1.489 . S
C1893 C539 1.476 . S
C1907 C199 1.477 . S
C1911 C139 1.488 . S
C1925 C339 1.477 . S
C1929 C159 1.489 . S
C1943 C178 1.486 . S
C1947 C318 1.483 . S
C1961 C458 1.476 . S
C1965 C198 1.489 . S
C1979 C218 1.489 . S
C1983 C118 1.476 . S
C1997 C578 1.483 . S
C2001 C238 1.485 . S
C2015 C259 1.485 . S
C2019 C239 1.482 . S
C2033 C279 1.489 . S
C2037 C379 1.476 . S
C2051 C299 1.485 . S
C2055 C39 1.483 . S
C2069 C499 1.476 . S
C2073 C319 1.489 . S
C2087 C338 1.489 . S
C2091 C478 1.476 . S
C2105 C358 1.488 . S
C2109 C298 1.480 . S
C2123 C378 1.488 . S
C2127 C598 1.477 . S
C2141 C398 1.487 . S
C2145 C98 1.481 . S
C2159 C419 1.489 . S
C2163 C399 1.477 . S
C2177 C219 1.480 . S
C2181 C439 1.487 . S
C2195 C519 1.476 . S
C2199 C459 1.489 . S
C2213 C479 1.484 . S
C2217 C19 1.483 . S
C2231 C638 1.483 . S
C2235 C498 1.484 . S
C2249 C138 1.482 . S
C2253 C518 1.484 . S
C2267 C438 1.483 . S
C2271 C538 1.484 . S
C2285 C558 1.486 . S
C2289 C258 1.483 . S
C2303 C559 1.483 . S
C2307 C579 1.485 . S
C2321 C59 1.482 . S
C2325 C599 1.486 . S
C2339 C359 1.477 . S
C2343 C619 1.488 . S
C2357 C639 1.489 . S
C2361 C179 1.476 . S
