# Generated by pormake.
# Topology ukt, (4)-cn, num edge types: 1
# Building blocks:
#     Node 0, Type 0, BuildingBlock: QUQFOY_clean_sbu_1, # of connection points: 4
#     Node 1, Type 0, BuildingBlock: QUQFOY_clean_sbu_1, # of connection points: 4
#     Node 2, Type 0, BuildingBlock: QUQFOY_clean_sbu_1, # of connection points: 4
#     Node 3, Type 0, BuildingBlock: QUQFOY_clean_sbu_1, # of connection points: 4
#     Node 4, Type 0, BuildingBlock: QUQFOY_clean_sbu_1, # of connection points: 4
#     Node 5, Type 0, BuildingBlock: QUQFOY_clean_sbu_1, # of connection points: 4
#     Node 6, Type 0, BuildingBlock: QUQFOY_clean_sbu_1, # of connection points: 4
#     Node 7, Type 0, BuildingBlock: QUQFOY_clean_sbu_1, # of connection points: 4
#     Node 8, Type 0, BuildingBlock: QUQFOY_clean_sbu_1, # of connection points: 4
#     Node 9, Type 0, BuildingBlock: QUQFOY_clean_sbu_1, # of connection points: 4
#     Node 10, Type 0, BuildingBlock: QUQFOY_clean_sbu_1, # of connection points: 4
#     Node 11, Type 0, BuildingBlock: QUQFOY_clean_sbu_1, # of connection points: 4
#     Node 12, Type 0, BuildingBlock: QUQFOY_clean_sbu_1, # of connection points: 4
#     Node 13, Type 0, BuildingBlock: QUQFOY_clean_sbu_1, # of connection points: 4
#     Node 14, Type 0, BuildingBlock: QUQFOY_clean_sbu_1, # of connection points: 4
#     Node 15, Type 0, BuildingBlock: QUQFOY_clean_sbu_1, # of connection points: 4
#     Edge 16, Type (0, 0), BuildingBlock: CIFDUS_clean_linker_0, # of connection points: 2
#     Edge 17, Type (0, 0), BuildingBlock: CIFDUS_clean_linker_0, # of connection points: 2
#     Edge 18, Type (0, 0), BuildingBlock: CIFDUS_clean_linker_0, # of connection points: 2
#     Edge 19, Type (0, 0), BuildingBlock: CIFDUS_clean_linker_0, # of connection points: 2
#     Edge 20, Type (0, 0), BuildingBlock: CIFDUS_clean_linker_0, # of connection points: 2
#     Edge 21, Type (0, 0), BuildingBlock: CIFDUS_clean_linker_0, # of connection points: 2
#     Edge 22, Type (0, 0), BuildingBlock: CIFDUS_clean_linker_0, # of connection points: 2
#     Edge 23, Type (0, 0), BuildingBlock: CIFDUS_clean_linker_0, # of connection points: 2
#     Edge 24, Type (0, 0), BuildingBlock: CIFDUS_clean_linker_0, # of connection points: 2
#     Edge 25, Type (0, 0), BuildingBlock: CIFDUS_clean_linker_0, # of connection points: 2
#     Edge 26, Type (0, 0), BuildingBlock: CIFDUS_clean_linker_0, # of connection points: 2
#     Edge 27, Type (0, 0), BuildingBlock: CIFDUS_clean_linker_0, # of connection points: 2
#     Edge 28, Type (0, 0), BuildingBlock: CIFDUS_clean_linker_0, # of connection points: 2
#     Edge 29, Type (0, 0), BuildingBlock: CIFDUS_clean_linker_0, # of connection points: 2
#     Edge 30, Type (0, 0), BuildingBlock: CIFDUS_clean_linker_0, # of connection points: 2
#     Edge 31, Type (0, 0), BuildingBlock: CIFDUS_clean_linker_0, # of connection points: 2
#     Edge 32, Type (0, 0), BuildingBlock: CIFDUS_clean_linker_0, # of connection points: 2
#     Edge 33, Type (0, 0), BuildingBlock: CIFDUS_clean_linker_0, # of connection points: 2
#     Edge 34, Type (0, 0), BuildingBlock: CIFDUS_clean_linker_0, # of connection points: 2
#     Edge 35, Type (0, 0), BuildingBlock: CIFDUS_clean_linker_0, # of connection points: 2
#     Edge 36, Type (0, 0), BuildingBlock: CIFDUS_clean_linker_0, # of connection points: 2
#     Edge 37, Type (0, 0), BuildingBlock: CIFDUS_clean_linker_0, # of connection points: 2
#     Edge 38, Type (0, 0), BuildingBlock: CIFDUS_clean_linker_0, # of connection points: 2
#     Edge 39, Type (0, 0), BuildingBlock: CIFDUS_clean_linker_0, # of connection points: 2
#     Edge 40, Type (0, 0), BuildingBlock: CIFDUS_clean_linker_0, # of connection points: 2
#     Edge 41, Type (0, 0), BuildingBlock: CIFDUS_clean_linker_0, # of connection points: 2
#     Edge 42, Type (0, 0), BuildingBlock: CIFDUS_clean_linker_0, # of connection points: 2
#     Edge 43, Type (0, 0), BuildingBlock: CIFDUS_clean_linker_0, # of connection points: 2
#     Edge 44, Type (0, 0), BuildingBlock: CIFDUS_clean_linker_0, # of connection points: 2
#     Edge 45, Type (0, 0), BuildingBlock: CIFDUS_clean_linker_0, # of connection points: 2
#     Edge 46, Type (0, 0), BuildingBlock: CIFDUS_clean_linker_0, # of connection points: 2
#     Edge 47, Type (0, 0), BuildingBlock: CIFDUS_clean_linker_0, # of connection points: 2
# Relax obj value: 0.117
# Max RMSD: 0.083
# Mean RMSD: 0.083
data_MOF--net-ukt--node1-QUQFOY_clean_sbu_1--edge1-CIFDUS_clean_linker_0
_symmetry_space_group_name_H-M    P1
_symmetry_Int_Tables_number       1
_symmetry_cell_setting            triclinic
loop_
_symmetry_equiv_pos_as_xyz
'x, y, z'
_cell_length_a     39.503599
_cell_length_b     39.307718
_cell_length_c     36.012358
_cell_angle_alpha  89.930554
_cell_angle_beta   90.0598422
_cell_angle_gamma 90.086064
loop_
_atom_site_label
_atom_site_type_symbol
_atom_site_fract_x
_atom_site_fract_y
_atom_site_fract_z
_atom_type_partial_charge
O0 O 0.55711 0.13829 0.00306 0.0
Cd1 Cd 0.51426 0.16713 1.00186 0.0
Cd2 Cd 0.54262 0.18504 0.07509 0.0
O3 O 0.57397 0.1444 0.06117 0.0
O4 O 0.488 0.14574 0.96074 0.0
O5 O 0.47131 0.14501 0.01937 0.0
C6 C 0.46694 0.13505 0.98548 0.0
C7 C 0.53622 0.19808 0.13866 0.0
C8 C 0.57702 0.13057 0.02941 0.0
C9 C 0.53553 0.23845 0.01163 0.0
O10 O 0.54531 0.22908 0.0437 0.0
O11 O 0.52077 0.2179 0.98973 0.0
O12 O 0.56461 0.20161 0.1217 0.0
O13 O 0.51122 0.18562 0.11997 0.0
O14 O 0.40074 0.67457 0.06039 0.0
Cd15 Cd 0.4109 0.62348 0.05796 0.0
Cd16 Cd 0.34537 0.62358 0.10628 0.0
O17 O 0.35007 0.67293 0.08656 0.0
O18 O 0.44965 0.62419 0.02245 0.0
O19 O 0.4539 0.60226 0.0785 0.0
C20 C 0.46777 0.60884 0.04687 0.0
C21 C 0.31221 0.61915 0.16087 0.0
C22 C 0.37362 0.68928 0.07027 0.0
C23 C 0.34968 0.58032 0.03644 0.0
O24 O 0.33583 0.586 0.06768 0.0
O25 O 0.37741 0.5945 0.02754 0.0
O26 O 0.29914 0.62647 0.12921 0.0
O27 O 0.34447 0.61414 0.16194 0.0
O28 O 0.92404 0.35616 0.04085 0.0
Cd29 Cd 0.96812 0.32965 0.03443 0.0
Cd30 Cd 0.94034 0.30259 0.10636 0.0
O31 O 0.90521 0.34086 0.09618 0.0
O32 O 0.98744 0.35323 0.99013 0.0
O33 O 0.01207 0.35388 0.04516 0.0
C34 C 0.01142 0.36428 0.01112 0.0
C35 C 0.94993 0.28657 0.16871 0.0
C36 C 0.90247 0.35867 0.0668 0.0
C37 C 0.9504 0.25598 0.03777 0.0
O38 O 0.94047 0.26139 0.07083 0.0
O39 O 0.96352 0.2796 0.01839 0.0
O40 O 0.92163 0.28081 0.1522 0.0
O41 O 0.97295 0.30261 0.15021 0.0
O42 O 0.08872 0.80423 0.08642 0.0
Cd43 Cd 0.07792 0.85511 0.09024 0.0
Cd44 Cd 0.1455 0.85491 0.12898 0.0
O45 O 0.14252 0.80809 0.10293 0.0
O46 O 0.03451 0.8573 0.06187 0.0
O47 O 0.0389 0.87497 0.11965 0.0
C48 C 0.02055 0.87112 0.09028 0.0
C49 C 0.18034 0.85511 0.1825 0.0
C50 C 0.11806 0.79126 0.08904 0.0
C51 C 0.13475 0.90178 0.0643 0.0
O52 O 0.15079 0.89642 0.09436 0.0
O53 O 0.10742 0.88601 0.05726 0.0
O54 O 0.19267 0.85236 0.14966 0.0
O55 O 0.14792 0.85811 0.18533 0.0
O56 O 0.56362 0.35222 0.47115 0.0
Cd57 Cd 0.52125 0.32311 0.47812 0.0
Cd58 Cd 0.551 0.29476 0.40572 0.0
O59 O 0.58193 0.33673 0.4157 0.0
O60 O 0.49839 0.34718 0.51985 0.0
O61 O 0.47634 0.34333 0.4636 0.0
C62 C 0.47469 0.35534 0.49694 0.0
C63 C 0.55152 0.27501 0.3437 0.0
C64 C 0.5842 0.35551 0.44436 0.0
C65 C 0.54154 0.25017 0.47689 0.0
O66 O 0.55079 0.25493 0.44344 0.0
O67 O 0.52844 0.27392 0.49594 0.0
O68 O 0.57764 0.27327 0.36487 0.0
O69 O 0.52455 0.28856 0.35734 0.0
O70 O 0.08586 0.68238 0.41604 0.0
Cd71 Cd 0.07088 0.6325 0.41819 0.0
Cd72 Cd 0.13875 0.62682 0.37552 0.0
O73 O 0.13911 0.675 0.39884 0.0
O74 O 0.03294 0.6377 0.45432 0.0
O75 O 0.02529 0.61587 0.39881 0.0
C76 C 0.01279 0.62416 0.4306 0.0
C77 C 0.1718 0.62166 0.32103 0.0
C78 C 0.11573 0.69374 0.41187 0.0
C79 C 0.12679 0.58341 0.44291 0.0
O80 O 0.14226 0.58667 0.41217 0.0
O81 O 0.10068 0.60098 0.45013 0.0
O82 O 0.18533 0.62544 0.35321 0.0
O83 O 0.13918 0.62054 0.31945 0.0
O84 O 0.9395 0.1672 0.51924 0.0
Cd85 Cd 0.98445 0.19102 0.51013 0.0
Cd86 Cd 0.94925 0.20319 0.44043 0.0
O87 O 0.92131 0.16257 0.46154 0.0
O88 O 0.01258 0.17179 0.55088 0.0
O89 O 0.02153 0.16081 0.49142 0.0
C90 C 0.02828 0.15447 0.52589 0.0
C91 C 0.94589 0.21305 0.37582 0.0
C92 C 0.919 0.15482 0.49576 0.0
C93 C 0.96375 0.261 0.49729 0.0
O94 O 0.94837 0.24861 0.46932 0.0
O95 O 0.98348 0.24279 0.51681 0.0
O96 O 0.92002 0.21572 0.39719 0.0
O97 O 0.97405 0.20351 0.3907 0.0
O98 O 0.4172 0.82455 0.44981 0.0
Cd99 Cd 0.4248 0.87528 0.44087 0.0
Cd100 Cd 0.35898 0.85299 0.39209 0.0
O101 O 0.37255 0.80739 0.41747 0.0
O102 O 0.45743 0.88158 0.4825 0.0
O103 O 0.47089 0.89335 0.42471 0.0
C104 C 0.47962 0.89205 0.4592 0.0
C105 C 0.32557 0.84999 0.33773 0.0
C106 C 0.39651 0.80144 0.44026 0.0
C107 C 0.35738 0.91105 0.45073 0.0
O108 O 0.34396 0.89265 0.4257 0.0
O109 O 0.38815 0.90764 0.46006 0.0
O110 O 0.3138 0.84167 0.36973 0.0
O111 O 0.35701 0.85885 0.33602 0.0
O112 O 0.28721 0.92329 0.91716 0.0
Cd113 Cd 0.33884 0.91807 0.91121 0.0
Cd114 Cd 0.30524 0.85618 0.8706 0.0
O115 O 0.26232 0.88352 0.88319 0.0
O116 O 0.35271 0.95626 0.94454 0.0
O117 O 0.3667 0.95481 0.8855 0.0
C118 C 0.36756 0.97052 0.91692 0.0
C119 C 0.30451 0.81958 0.81872 0.0
C120 C 0.26057 0.90913 0.90467 0.0
C121 C 0.35225 0.84703 0.9385 0.0
O122 O 0.33042 0.83602 0.91555 0.0
O123 O 0.36141 0.878 0.93892 0.0
O124 O 0.28777 0.81271 0.84839 0.0
O125 O 0.32093 0.84797 0.81764 0.0
O126 O 0.64082 0.41841 0.9715 0.0
Cd127 Cd 0.66846 0.46141 0.98209 0.0
Cd128 Cd 0.69572 0.43804 0.90721 0.0
O129 O 0.65661 0.40317 0.91504 0.0
O130 O 0.64586 0.47845 0.02789 0.0
O131 O 0.64525 0.50655 0.97478 0.0
C132 C 0.63525 0.50402 0.00882 0.0
C133 C 0.71225 0.44915 0.8454 0.0
C134 C 0.63815 0.39886 0.94362 0.0
C135 C 0.74201 0.44477 0.97676 0.0
O136 O 0.7368 0.43732 0.94287 0.0
O137 O 0.71827 0.45546 0.99741 0.0
O138 O 0.71758 0.42028 0.86113 0.0
O139 O 0.69636 0.47193 0.86438 0.0
O140 O 0.18555 0.56667 0.90762 0.0
Cd141 Cd 0.13401 0.57493 0.90761 0.0
Cd142 Cd 0.16759 0.63514 0.86553 0.0
O143 O 0.20855 0.60296 0.86807 0.0
O144 O 0.12258 0.53913 0.94499 0.0
O145 O 0.10195 0.53828 0.88832 0.0
C146 C 0.10414 0.52421 0.9206 0.0
C147 C 0.16392 0.67426 0.81591 0.0
C148 C 0.21126 0.57801 0.89036 0.0
C149 C 0.1299 0.6457 0.9386 0.0
O150 O 0.15236 0.65528 0.91561 0.0
O151 O 0.11605 0.61661 0.93632 0.0
O152 O 0.18749 0.67615 0.84048 0.0
O153 O 0.14271 0.64937 0.8186 0.0
O154 O 0.85405 0.05848 0.01709 0.0
Cd155 Cd 0.82417 0.01612 0.01378 0.0
Cd156 Cd 0.80706 0.05275 0.9428 0.0
O157 O 0.84867 0.08072 0.96101 0.0
O158 O 0.84362 0.98692 0.05365 0.0
O159 O 0.84543 0.9734 0.9941 0.0
C160 C 0.85423 0.96682 0.02794 0.0
C161 C 0.79331 0.05767 0.87915 0.0
C162 C 0.8624 0.08052 0.993 0.0
C163 C 0.75378 0.0399 0.00536 0.0
O164 O 0.76362 0.05266 0.97473 0.0
O165 O 0.7737 0.02259 0.02561 0.0
O166 O 0.79161 0.08302 0.90153 0.0
O167 O 0.80399 0.02913 0.89239 0.0
O168 O 0.28474 0.5559 0.58203 0.0
Cd169 Cd 0.33581 0.56307 0.57795 0.0
Cd170 Cd 0.3121 0.62692 0.62437 0.0
O171 O 0.26711 0.60313 0.60942 0.0
O172 O 0.3475 0.52373 0.54532 0.0
O173 O 0.36963 0.53034 0.60096 0.0
C174 C 0.36747 0.51275 0.57081 0.0
C175 C 0.30915 0.66408 0.67593 0.0
C176 C 0.26095 0.57494 0.59332 0.0
C177 C 0.35311 0.63421 0.55194 0.0
O178 O 0.3419 0.64632 0.58223 0.0
O179 O 0.35119 0.60271 0.54456 0.0
O180 O 0.29563 0.67159 0.64455 0.0
O181 O 0.32386 0.63491 0.67879 0.0
O182 O 0.843 0.44487 0.49866 0.0
Cd183 Cd 0.81162 0.48598 0.49885 0.0
Cd184 Cd 0.79952 0.4531 0.57539 0.0
O185 O 0.84312 0.42829 0.55732 0.0
O186 O 0.82635 0.50885 0.45219 0.0
O187 O 0.83395 0.53127 0.50779 0.0
C188 C 0.83949 0.53241 0.47245 0.0
C189 C 0.78823 0.4493 0.63965 0.0
C190 C 0.85479 0.42637 0.52446 0.0
C191 C 0.74301 0.45941 0.51461 0.0
O192 O 0.75494 0.44885 0.54536 0.0
O193 O 0.76092 0.47657 0.49209 0.0
O194 O 0.78784 0.42313 0.61834 0.0
O195 O 0.79613 0.47816 0.62492 0.0
O196 O 0.18764 0.9293 0.56962 0.0
Cd197 Cd 0.13663 0.92064 0.57508 0.0
Cd198 Cd 0.17468 0.86545 0.61974 0.0
O199 O 0.21218 0.90175 0.61573 0.0
O200 O 0.12171 0.95146 0.53413 0.0
O201 O 0.10837 0.96084 0.5925 0.0
C202 C 0.10756 0.97065 0.55832 0.0
C203 C 0.17739 0.8269 0.66988 0.0
C204 C 0.21371 0.9228 0.58899 0.0
C205 C 0.13408 0.84864 0.55047 0.0
O206 O 0.15985 0.84276 0.57063 0.0
O207 O 0.11711 0.87587 0.55404 0.0
O208 O 0.2004 0.82787 0.64472 0.0
O209 O 0.15283 0.84838 0.66744 0.0
O210 O 0.64576 0.07898 0.54583 0.0
Cd211 Cd 0.67596 0.03706 0.53981 0.0
Cd212 Cd 0.69839 0.06725 0.61239 0.0
O213 O 0.65717 0.09867 0.60193 0.0
O214 O 0.65723 0.01846 0.49264 0.0
O215 O 0.65386 0.99116 0.54609 0.0
C216 C 0.64619 0.99283 0.51127 0.0
C217 C 0.71428 0.05675 0.67448 0.0
C218 C 0.64022 0.09997 0.57188 0.0
C219 C 0.74716 0.06136 0.54555 0.0
O220 O 0.73989 0.07183 0.57798 0.0
O221 O 0.72569 0.04518 0.52615 0.0
O222 O 0.71732 0.0863 0.65947 0.0
O223 O 0.70075 0.03297 0.65468 0.0
H224 H 0.56188 0.25758 0.9451 0.0
H225 H 0.53102 0.29615 0.05184 0.0
H226 H 0.55672 0.35117 0.03773 0.0
H227 H 0.59386 0.38538 0.99899 0.0
H228 H 0.62941 0.34616 0.89414 0.0
H229 H 0.59575 0.29446 0.90333 0.0
C230 C 0.56005 0.27842 0.96472 0.0
C231 C 0.54455 0.27305 0.99939 0.0
C232 C 0.57622 0.30959 0.95703 0.0
C233 C 0.54281 0.29987 0.02498 0.0
C234 C 0.55766 0.33121 0.01701 0.0
C235 C 0.59408 0.36575 0.97785 0.0
C236 C 0.61459 0.3695 0.94616 0.0
C237 C 0.57544 0.3359 0.98374 0.0
C238 C 0.61409 0.34388 0.91894 0.0
C239 C 0.59489 0.31426 0.92422 0.0
H240 H 0.22582 0.53358 0.9458 0.0
H241 H 0.27339 0.59947 0.86517 0.0
H242 H 0.32585 0.59834 0.90101 0.0
H243 H 0.35219 0.59092 0.96222 0.0
H244 H 0.30097 0.53188 0.04622 0.0
H245 H 0.25627 0.51759 1.00201 0.0
C246 C 0.24792 0.54694 0.93539 0.0
C247 C 0.24528 0.56752 0.90346 0.0
C248 C 0.27724 0.54792 0.95728 0.0
C249 C 0.27445 0.58397 0.89003 0.0
C250 C 0.30442 0.58356 0.91071 0.0
C251 C 0.33188 0.57392 0.97046 0.0
C252 C 0.3295 0.56295 0.00759 0.0
C253 C 0.30528 0.56752 0.94555 0.0
C254 C 0.30305 0.54098 0.0179 0.0
C255 C 0.27742 0.53298 0.99268 0.0
H256 H 0.88594 0.13378 0.95095 0.0
H257 H 0.89272 0.08878 0.06028 0.0
H258 H 0.92461 0.13756 0.08239 0.0
H259 H 0.94425 0.19582 0.07316 0.0
H260 H 0.9382 0.24175 0.96458 0.0
H261 H 0.91307 0.18957 0.9396 0.0
C262 C 0.89483 0.13442 0.97944 0.0
C263 C 0.88625 0.10788 0.00402 0.0
C264 C 0.91321 0.16279 0.99224 0.0
C265 C 0.89844 0.10897 0.04076 0.0
C266 C 0.91672 0.13691 0.05355 0.0
C267 C 0.938 0.19418 0.04387 0.0
C268 C 0.94259 0.22267 0.02087 0.0
C269 C 0.92327 0.16439 0.02989 0.0
C270 C 0.93488 0.2201 0.98286 0.0
C271 C 0.92024 0.19038 0.96864 0.0
H272 H 0.25017 0.95155 0.9629 0.0
H273 H 0.19714 0.88589 0.88629 0.0
H274 H 0.14787 0.88564 0.92716 0.0
H275 H 0.12636 0.89231 0.99049 0.0
H276 H 0.18343 0.95094 0.07019 0.0
H277 H 0.22426 0.96631 0.0221 0.0
C278 C 0.22753 0.93793 0.9545 0.0
C279 C 0.22774 0.91794 0.92205 0.0
C280 C 0.20016 0.93621 0.97915 0.0
C281 C 0.19792 0.90098 0.91142 0.0
C282 C 0.16979 0.90065 0.93494 0.0
C283 C 0.14707 0.90944 0.99706 0.0
C284 C 0.15226 0.92 0.03398 0.0
C285 C 0.17154 0.91637 0.96987 0.0
C286 C 0.17918 0.94217 0.04206 0.0
C287 C 0.20263 0.95076 0.01462 0.0
H288 H 0.56414 0.23882 0.54715 0.0
H289 H 0.53837 0.18807 0.44481 0.0
H290 H 0.56243 0.13509 0.46828 0.0
H291 H 0.59742 0.10582 0.51364 0.0
H292 H 0.62826 0.15712 0.61409 0.0
H293 H 0.59511 0.20709 0.59596 0.0
C294 C 0.56305 0.21587 0.5305 0.0
C295 C 0.54962 0.21722 0.49431 0.0
C296 C 0.57825 0.1858 0.54361 0.0
C297 C 0.54872 0.18755 0.47269 0.0
C298 C 0.56257 0.15734 0.48603 0.0
C299 C 0.59664 0.12772 0.53193 0.0
C300 C 0.61581 0.1279 0.5649 0.0
C301 C 0.57852 0.15657 0.5208 0.0
C302 C 0.61397 0.15636 0.58842 0.0
C303 C 0.59513 0.185 0.57797 0.0
H304 H 0.24256 0.5292 0.5408 0.0
H305 H 0.2015 0.60561 0.61402 0.0
H306 H 0.14982 0.60764 0.57681 0.0
H307 H 0.12377 0.59856 0.5159 0.0
H308 H 0.16992 0.52933 0.43815 0.0
H309 H 0.21177 0.51306 0.48491 0.0
C310 C 0.22194 0.54559 0.54939 0.0
C311 C 0.22628 0.56793 0.5796 0.0
C312 C 0.19338 0.5483 0.52649 0.0
C313 C 0.19907 0.5886 0.59052 0.0
C314 C 0.16959 0.58993 0.56907 0.0
C315 C 0.14222 0.57899 0.50962 0.0
C316 C 0.14414 0.5655 0.47349 0.0
C317 C 0.16751 0.57156 0.53574 0.0
C318 C 0.16823 0.54029 0.46568 0.0
C319 C 0.19226 0.53118 0.49233 0.0
H320 H 0.89037 0.38427 0.57125 0.0
H321 H 0.87856 0.41147 0.45561 0.0
H322 H 0.91599 0.36555 0.4376 0.0
H323 H 0.94597 0.31343 0.45355 0.0
H324 H 0.95858 0.28499 0.56833 0.0
H325 H 0.92785 0.33606 0.5878 0.0
C326 C 0.89632 0.38038 0.54218 0.0
C327 C 0.881 0.40092 0.51487 0.0
C328 C 0.91808 0.35371 0.53177 0.0
C329 C 0.88951 0.39586 0.47732 0.0
C330 C 0.911 0.36956 0.46686 0.0
C331 C 0.94269 0.31887 0.48287 0.0
C332 C 0.95411 0.29544 0.50945 0.0
C333 C 0.92455 0.34775 0.49371 0.0
C334 C 0.95008 0.30282 0.54736 0.0
C335 C 0.93215 0.33178 0.55846 0.0
H336 H 0.22601 0.95776 0.52562 0.0
H337 H 0.2766 0.91216 0.61963 0.0
H338 H 0.33024 0.91375 0.586 0.0
H339 H 0.35845 0.91432 0.52527 0.0
H340 H 0.30449 0.95055 0.42896 0.0
H341 H 0.2567 0.96703 0.46803 0.0
C342 C 0.24889 0.94896 0.53925 0.0
C343 C 0.24708 0.93385 0.57467 0.0
C344 C 0.27903 0.94785 0.51891 0.0
C345 C 0.27714 0.9233 0.59211 0.0
C346 C 0.3078 0.92399 0.57277 0.0
C347 C 0.33674 0.92709 0.51315 0.0
C348 C 0.33468 0.93109 0.47442 0.0
C349 C 0.3085 0.93414 0.53539 0.0
C350 C 0.30639 0.94719 0.45876 0.0
C351 C 0.27903 0.95633 0.48105 0.0
H352 H 0.31366 0.8161 0.98903 0.0
H353 H 0.4169 0.82595 0.9523 0.0
H354 H 0.43407 0.78005 0.99473 0.0
H355 H 0.41777 0.73274 0.03611 0.0
H356 H 0.31403 0.72422 0.07302 0.0
H357 H 0.29914 0.77475 0.03752 0.0
C358 C 0.34 0.80847 0.9909 0.0
C359 C 0.36403 0.82371 0.96755 0.0
C360 C 0.3495 0.78242 0.01531 0.0
C361 C 0.39813 0.81425 0.97015 0.0
C362 C 0.40783 0.78803 0.99425 0.0
C363 C 0.39205 0.74233 0.03705 0.0
C364 C 0.36693 0.72422 0.05665 0.0
C365 C 0.38349 0.77126 0.01613 0.0
C366 C 0.33386 0.73737 0.05797 0.0
C367 C 0.32521 0.76617 0.03744 0.0
H368 H 0.75735 0.42243 0.04633 0.0
H369 H 0.80225 0.45128 0.94175 0.0
H370 H 0.85739 0.43141 0.96316 0.0
H371 H 0.89087 0.39976 0.00791 0.0
H372 H 0.84588 0.36589 0.11075 0.0
H373 H 0.79287 0.39433 0.09403 0.0
C374 C 0.77943 0.42502 0.02866 0.0
C375 C 0.77584 0.43815 0.99249 0.0
C376 C 0.81088 0.41232 0.04066 0.0
C377 C 0.80444 0.44105 0.9696 0.0
C378 C 0.83592 0.42964 0.9818 0.0
C379 C 0.86968 0.39885 0.02702 0.0
C380 C 0.87226 0.38025 0.06032 0.0
C381 C 0.83914 0.41422 0.01672 0.0
C382 C 0.84456 0.37982 0.08482 0.0
C383 C 0.81419 0.39596 0.07519 0.0
H384 H 0.17384 0.67998 0.9813 0.0
H385 H 0.06734 0.66075 0.96613 0.0
H386 H 0.0539 0.70183 0.01525 0.0
H387 H 0.07279 0.7469 0.05818 0.0
H388 H 0.17991 0.76362 0.07463 0.0
H389 H 0.19279 0.71901 0.0301 0.0
C390 C 0.14771 0.68474 0.98897 0.0
C391 C 0.12152 0.66817 0.96984 0.0
C392 C 0.14036 0.70766 0.01757 0.0
C393 C 0.0878 0.67364 0.98042 0.0
C394 C 0.08018 0.69704 0.00843 0.0
C395 C 0.09895 0.74034 0.05259 0.0
C396 C 0.1253 0.75906 0.06931 0.0
C397 C 0.10628 0.71471 0.02667 0.0
C398 C 0.15906 0.74986 0.06208 0.0
C399 C 0.16652 0.7245 0.03635 0.0
H400 H 0.62528 0.10607 0.0775 0.0
H401 H 0.59253 0.10186 0.963 0.0
H402 H 0.6426 0.06963 0.94664 0.0
H403 H 0.69859 0.04846 0.96287 0.0
H404 H 0.73247 0.0513 0.07659 0.0
H405 H 0.67883 0.07753 0.09534 0.0
C406 C 0.6289 0.09771 0.0491 0.0
C407 C 0.6054 0.10705 0.02147 0.0
C408 C 0.658 0.07898 0.03965 0.0
C409 C 0.6103 0.09554 0.98486 0.0
C410 C 0.63899 0.07704 0.97535 0.0
C411 C 0.69395 0.05425 0.99188 0.0
C412 C 0.71942 0.0484 0.01825 0.0
C413 C 0.66342 0.06951 1.00225 0.0
C414 C 0.71308 0.05556 0.05582 0.0
C415 C 0.68257 0.07083 0.06645 0.0
H416 H 0.39567 0.68697 0.5615 0.0
H417 H 0.33581 0.63536 0.47889 0.0
H418 H 0.34586 0.68184 0.43475 0.0
H419 H 0.36637 0.74047 0.42276 0.0
H420 H 0.42913 0.78954 0.50527 0.0
H421 H 0.42369 0.74065 0.54591 0.0
C422 C 0.38549 0.68566 0.53353 0.0
C423 C 0.3649 0.65819 0.52338 0.0
C424 C 0.39165 0.71216 0.50837 0.0
C425 C 0.35193 0.65638 0.4871 0.0
C426 C 0.35743 0.68303 0.46202 0.0
C427 C 0.37931 0.74016 0.44934 0.0
C428 C 0.39764 0.76892 0.46105 0.0
C429 C 0.37645 0.71158 0.47275 0.0
C430 C 0.41467 0.76791 0.49543 0.0
C431 C 0.4115 0.73997 0.51893 0.0
H432 H 0.72118 0.43837 0.44692 0.0
H433 H 0.68848 0.45484 0.55968 0.0
H434 H 0.6343 0.42756 0.54609 0.0
H435 H 0.59937 0.39353 0.50475 0.0
H436 H 0.6334 0.37197 0.39334 0.0
H437 H 0.68385 0.40696 0.40367 0.0
C438 C 0.70179 0.43665 0.46815 0.0
C439 C 0.70859 0.4486 0.50419 0.0
C440 C 0.67124 0.41961 0.46054 0.0
C441 C 0.68367 0.44577 0.53176 0.0
C442 C 0.6528 0.43007 0.52404 0.0
C443 C 0.61753 0.39673 0.48244 0.0
C444 C 0.6127 0.37982 0.44841 0.0
C445 C 0.64679 0.41598 0.48891 0.0
C446 C 0.63657 0.38447 0.4199 0.0
C447 C 0.66545 0.40445 0.42581 0.0
H448 H 0.07267 0.74157 0.4394 0.0
H449 H 0.1789 0.71982 0.42396 0.0
H450 H 0.19381 0.76683 0.46487 0.0
H451 H 0.17666 0.80987 0.51033 0.0
H452 H 0.07085 0.833 0.52489 0.0
H453 H 0.05574 0.78942 0.47915 0.0
C454 C 0.09911 0.74748 0.44439 0.0
C455 C 0.12458 0.72679 0.42903 0.0
C456 C 0.10756 0.77432 0.46836 0.0
C457 C 0.15872 0.73515 0.43547 0.0
C458 C 0.16731 0.76187 0.45916 0.0
C459 C 0.1503 0.80537 0.50338 0.0
C460 C 0.12481 0.82396 0.5214 0.0
C461 C 0.14193 0.78081 0.47673 0.0
C462 C 0.09083 0.81867 0.51155 0.0
C463 C 0.08222 0.79383 0.48542 0.0
H464 H 0.80369 0.0792 0.58274 0.0
H465 H 0.76415 0.06614 0.47198 0.0
H466 H 0.81538 0.09193 0.44601 0.0
H467 H 0.8688 0.12362 0.45557 0.0
H468 H 0.90718 0.13603 0.56721 0.0
H469 H 0.85906 0.10503 0.59183 0.0
C470 C 0.80644 0.08161 0.55287 0.0
C471 C 0.78005 0.07124 0.52936 0.0
C472 C 0.83562 0.0967 0.53826 0.0
C473 C 0.78416 0.074 0.49069 0.0
C474 C 0.81333 0.08896 0.47584 0.0
C475 C 0.86679 0.11923 0.48522 0.0
C476 C 0.89134 0.1327 0.50945 0.0
C477 C 0.83882 0.10129 0.49946 0.0
C478 C 0.88852 0.12639 0.54781 0.0
C479 C 0.86097 0.1086 0.56205 0.0
H480 H 0.36649 0.01105 0.97771 0.0
H481 H 0.40809 0.00424 0.8672 0.0
H482 H 0.43985 0.05694 0.87745 0.0
H483 H 0.45891 0.10239 0.91948 0.0
H484 H 0.41816 0.10801 0.03051 0.0
H485 H 0.38245 0.05855 0.01807 0.0
C486 C 0.38237 0.02113 0.95573 0.0
C487 C 0.38521 0.0035 0.92185 0.0
C488 C 0.40062 0.05127 0.96189 0.0
C489 C 0.4056 0.01718 0.89359 0.0
C490 C 0.42376 0.04731 0.89945 0.0
C491 C 0.44181 0.09317 0.9408 0.0
C492 C 0.44136 0.10884 0.97598 0.0
C493 C 0.42187 0.06425 0.93371 0.0
C494 C 0.41909 0.09646 0.00324 0.0
C495 C 0.39878 0.06804 0.99621 0.0
H496 H 0.51099 0.57099 0.08929 0.0
H497 H 0.50222 0.62063 0.98272 0.0
H498 H 0.55566 0.59575 0.96301 0.0
H499 H 0.60167 0.55503 0.97336 0.0
H500 H 0.61004 0.50432 0.07933 0.0
H501 H 0.56051 0.53484 0.10198 0.0
C502 C 0.52102 0.57674 0.06197 0.0
C503 C 0.50236 0.59727 0.0374 0.0
C504 C 0.55171 0.562 0.05053 0.0
C505 C 0.51585 0.60463 1.00214 0.0
C506 C 0.54645 0.59039 0.99075 0.0
C507 C 0.59306 0.55112 1.00164 0.0
C508 C 0.60934 0.52713 0.02441 0.0
C509 C 0.56414 0.5683 0.01433 0.0
C510 C 0.59786 0.52247 0.06105 0.0
C511 C 0.56941 0.53982 0.07403 0.0
H512 H 0.1108 0.487 0.98352 0.0
H513 H 0.05734 0.48947 0.87896 0.0
H514 H 0.02592 0.43823 0.89666 0.0
H515 H 0.01138 0.39494 0.94339 0.0
H516 H 0.06435 0.39345 0.04833 0.0
H517 H 0.09863 0.44197 0.02861 0.0
C518 C 0.09236 0.47632 0.96447 0.0
C519 C 0.08618 0.49225 0.93007 0.0
C520 C 0.07439 0.44701 0.97488 0.0
C521 C 0.06246 0.47781 0.90564 0.0
C522 C 0.0445 0.44853 0.91577 0.0
C523 C 0.03072 0.40492 0.96181 0.0
C524 C 0.03519 0.39063 0.99739 0.0
C525 C 0.04996 0.43319 0.95052 0.0
C526 C 0.06035 0.40395 0.02085 0.0
C527 C 0.07986 0.4318 0.00965 0.0
H528 H 0.978 0.86723 0.03127 0.0
H529 H 0.98475 0.90574 0.14324 0.0
H530 H 0.93068 0.93507 0.13524 0.0
H531 H 0.88538 0.95519 0.09402 0.0
H532 H 0.88056 0.91912 0.98095 0.0
H533 H 0.92977 0.88292 0.99205 0.0
C534 C 0.96746 0.88164 0.05416 0.0
C535 C 0.98563 0.88462 0.08768 0.0
C536 C 0.93678 0.899 0.04908 0.0
C537 C 0.97143 0.90319 0.11709 0.0
C538 C 0.94054 0.92005 0.11248 0.0
C539 C 0.89464 0.93892 0.07198 0.0
C540 C 0.87946 0.94012 0.03657 0.0
C541 C 0.92354 0.91893 0.07824 0.0
C542 C 0.89184 0.91883 0.00838 0.0
C543 C 0.92009 0.89824 0.01467 0.0
H544 H 0.365 0.4706 0.51131 0.0
H545 H 0.41537 0.48472 0.61661 0.0
H546 H 0.45104 0.43518 0.60428 0.0
H547 H 0.47024 0.39027 0.56186 0.0
H548 H 0.42074 0.37735 0.45585 0.0
H549 H 0.38204 0.42385 0.47049 0.0
C550 C 0.38364 0.46277 0.53172 0.0
C551 C 0.38768 0.48153 0.56474 0.0
C552 C 0.40417 0.43448 0.52433 0.0
C553 C 0.41181 0.47085 0.59093 0.0
C554 C 0.43223 0.44253 0.58388 0.0
C555 C 0.4507 0.39729 0.54212 0.0
C556 C 0.44849 0.38038 0.50771 0.0
C557 C 0.42894 0.42446 0.55043 0.0
C558 C 0.42305 0.38991 0.48248 0.0
C559 C 0.401 0.41661 0.49078 0.0
H560 H 0.96333 0.59494 0.38803 0.0
H561 H 0.98282 0.63538 0.49741 0.0
H562 H 0.92802 0.61496 0.51873 0.0
H563 H 0.87801 0.5792 0.50876 0.0
H564 H 0.85851 0.53791 0.39982 0.0
H565 H 0.9092 0.56573 0.37586 0.0
C566 C 0.95534 0.59974 0.41634 0.0
C567 C 0.97745 0.61614 0.44118 0.0
C568 C 0.92372 0.58768 0.42865 0.0
C569 C 0.96653 0.62248 0.47772 0.0
C570 C 0.93513 0.61079 0.49004 0.0
C571 C 0.88436 0.57695 0.47958 0.0
C572 C 0.86473 0.55607 0.45633 0.0
C573 C 0.91399 0.59242 0.46609 0.0
C574 C 0.87329 0.55361 0.41849 0.0
C575 C 0.90246 0.56934 0.40476 0.0
H576 H 0.09355 0.02573 0.60166 0.0
H577 H 0.08938 0.98965 0.48862 0.0
H578 H 0.06803 0.04465 0.46793 0.0
H579 H 0.0488 0.10239 0.482 0.0
H580 H 0.05233 0.1388 0.59493 0.0
H581 H 0.07644 0.08473 0.61536 0.0
C582 C 0.08772 0.02989 0.57258 0.0
C583 C 0.09273 0.00354 0.54681 0.0
C584 C 0.07585 0.06184 0.5607 0.0
C585 C 0.0856 0.00946 0.50908 0.0
C586 C 0.07353 0.04097 0.49716 0.0
C587 C 0.05548 0.09879 0.51096 0.0
C588 C 0.04885 0.12466 0.53684 0.0
C589 C 0.06855 0.06734 0.52269 0.0
C590 C 0.05728 0.11935 0.57437 0.0
C591 C 0.07081 0.08831 0.58616 0.0
H592 H 0.60663 0.94622 0.54609 0.0
H593 H 0.63037 0.98681 0.43782 0.0
H594 H 0.58233 0.95638 0.411 0.0
H595 H 0.52957 0.92387 0.41981 0.0
H596 H 0.50508 0.88543 0.52889 0.0
H597 H 0.5573 0.9092 0.55367 0.0
C598 C 0.60175 0.94781 0.51649 0.0
C599 C 0.62183 0.96898 0.4941 0.0
C600 C 0.57355 0.93102 0.50142 0.0
C601 C 0.61513 0.97083 0.45577 0.0
C602 C 0.58755 0.95357 0.4404 0.0
C603 C 0.53592 0.92033 0.44886 0.0
C604 C 0.51322 0.90334 0.47251 0.0
C605 C 0.5659 0.93452 0.46319 0.0
C606 C 0.52188 0.89879 0.5101 0.0
C607 C 0.5518 0.91235 0.52437 0.0
H608 H 0.49914 0.25527 0.29826 0.0
H609 H 0.60801 0.26393 0.30315 0.0
H610 H 0.61268 0.24008 0.24107 0.0
H611 H 0.5864 0.21699 0.18534 0.0
H612 H 0.47787 0.20621 0.17935 0.0
H613 H 0.47254 0.23015 0.24194 0.0
C614 C 0.52381 0.25208 0.28557 0.0
C615 C 0.55317 0.26156 0.3053 0.0
C616 C 0.52643 0.23768 0.2498 0.0
C617 C 0.585 0.25687 0.28867 0.0
C618 C 0.58774 0.24318 0.25313 0.0
C619 C 0.56152 0.2197 0.1977 0.0
C620 C 0.53258 0.20986 0.17761 0.0
C621 C 0.55869 0.23344 0.23349 0.0
C622 C 0.5006 0.21344 0.19424 0.0
C623 C 0.49753 0.22731 0.22997 0.0
H624 H 0.2404 0.61614 0.31776 0.0
H625 H 0.15147 0.62229 0.24835 0.0
H626 H 0.1871 0.62139 0.19287 0.0
H627 H 0.24349 0.62053 0.16414 0.0
H628 H 0.33243 0.61349 0.23341 0.0
H629 H 0.29675 0.61295 0.28891 0.0
C630 C 0.22876 0.61719 0.2905 0.0
C631 C 0.19325 0.61947 0.28727 0.0
C632 C 0.24941 0.61656 0.25871 0.0
C633 C 0.17867 0.62056 0.25169 0.0
C634 C 0.19905 0.62011 0.21993 0.0
C635 C 0.25513 0.6188 0.19137 0.0
C636 C 0.29066 0.61725 0.19458 0.0
C637 C 0.23445 0.61839 0.22312 0.0
C638 C 0.30521 0.61474 0.23009 0.0
C639 C 0.2848 0.61449 0.26185 0.0
H640 H 0.904 0.25681 0.21406 0.0
H641 H 0.0087 0.28788 0.20972 0.0
H642 H 0.01764 0.26552 0.27255 0.0
H643 H -0.00498 0.23804 0.32955 0.0
H644 H 0.88953 0.20965 0.33333 0.0
H645 H 0.88176 0.22958 0.26979 0.0
C646 C 0.92884 0.25875 0.22676 0.0
C647 C 0.95561 0.2741 0.20716 0.0
C648 C 0.9337 0.24604 0.26281 0.0
C649 C 0.98758 0.27636 0.22421 0.0
C650 C 0.99273 0.26345 0.26011 0.0
C651 C 0.9705 0.23584 0.31619 0.0
C652 C 0.94292 0.22221 0.33606 0.0
C653 C 0.96594 0.24824 0.27974 0.0
C654 C 0.91115 0.22002 0.31865 0.0
C655 C 0.90664 0.2315 0.28233 0.0
H656 H 0.25689 0.84663 0.33657 0.0
H657 H 0.34374 0.85542 0.2646 0.0
H658 H 0.30641 0.85773 0.21037 0.0
H659 H 0.24915 0.85749 0.18351 0.0
H660 H 0.16226 0.85069 0.25571 0.0
H661 H 0.19961 0.84754 0.30982 0.0
C662 C 0.26771 0.84887 0.30901 0.0
C663 C 0.30313 0.85061 0.30465 0.0
C664 C 0.24607 0.85071 0.27804 0.0
C665 C 0.31663 0.85395 0.26875 0.0
C666 C 0.29527 0.8553 0.23774 0.0
C667 C 0.23833 0.85533 0.21108 0.0
C668 C 0.20288 0.85424 0.2155 0.0
C669 C 0.25997 0.85377 0.24207 0.0
C670 C 0.18938 0.85165 0.25147 0.0
C671 C 0.21075 0.84976 0.28243 0.0
H672 H 0.30298 0.75087 0.82357 0.0
H673 H 0.30886 0.8331 0.74451 0.0
H674 H 0.30964 0.79211 0.69328 0.0
H675 H 0.30868 0.73281 0.6711 0.0
H676 H 0.30796 0.65052 0.75036 0.0
H677 H 0.30513 0.69151 0.80151 0.0
C678 C 0.30441 0.75976 0.79508 0.0
C679 C 0.30559 0.79493 0.78771 0.0
C680 C 0.30587 0.73602 0.76593 0.0
C681 C 0.30797 0.80616 0.7508 0.0
C682 C 0.30837 0.78273 0.72156 0.0
C683 C 0.30789 0.72389 0.69961 0.0
C684 C 0.30829 0.6887 0.70701 0.0
C685 C 0.30732 0.74761 0.7288 0.0
C686 C 0.30774 0.67746 0.74402 0.0
C687 C 0.30607 0.70089 0.77322 0.0
H688 H 0.76118 0.4975 0.68588 0.0
H689 H 0.79265 0.39248 0.68172 0.0
H690 H 0.77218 0.3835 0.74475 0.0
H691 H 0.74371 0.40445 0.80009 0.0
H692 H 0.70995 0.50866 0.80511 0.0
H693 H 0.73262 0.5189 0.74272 0.0
C694 C 0.7639 0.47282 0.69904 0.0
C695 C 0.77853 0.44572 0.67918 0.0
C696 C 0.75128 0.46755 0.73525 0.0
C697 C 0.78146 0.41374 0.69636 0.0
C698 C 0.76968 0.40853 0.73239 0.0
C699 C 0.74123 0.42946 0.78764 0.0
C700 C 0.72503 0.4557 0.80728 0.0
C701 C 0.75419 0.43509 0.7519 0.0
C702 C 0.72214 0.48793 0.79057 0.0
C703 C 0.73522 0.49383 0.75493 0.0
H704 H 0.12703 0.78561 0.69499 0.0
H705 H 0.23251 0.80997 0.71042 0.0
H706 H 0.23745 0.7652 0.75735 0.0
H707 H 0.21253 0.71816 0.79266 0.0
H708 H 0.10826 0.69022 0.77405 0.0
H709 H 0.10231 0.7367 0.72914 0.0
C710 C 0.15096 0.78121 0.70898 0.0
C711 C 0.17925 0.80128 0.69982 0.0
C712 C 0.15403 0.7544 0.73479 0.0
C713 C 0.21038 0.79493 0.71731 0.0
C714 C 0.21328 0.76924 0.74394 0.0
C715 C 0.18849 0.72218 0.77874 0.0
C716 C 0.16084 0.70081 0.78679 0.0
C717 C 0.18541 0.74862 0.75265 0.0
C718 C 0.12999 0.70618 0.76822 0.0
C719 C 0.12652 0.73289 0.74269 0.0
H720 H 0.74093 0.10318 0.72163 0.0
H721 H 0.71773 0.99622 0.71274 0.0
H722 H 0.74206 0.98638 0.77448 0.0
H723 H 0.76965 0.00865 0.83157 0.0
H724 H 0.79072 0.11615 0.83962 0.0
H725 H 0.76796 0.12514 0.77751 0.0
C726 C 0.74107 0.07766 0.73312 0.0
C727 C 0.72742 0.05051 0.71254 0.0
C728 C 0.75504 0.07224 0.76848 0.0
C729 C 0.7279 0.01764 0.72802 0.0
C730 C 0.74195 0.01198 0.76328 0.0
C731 C 0.76958 0.03392 0.81947 0.0
C732 C 0.78202 0.06167 0.84015 0.0
C733 C 0.75569 0.0391 0.78379 0.0
C734 C 0.78131 0.09437 0.82434 0.0
C735 C 0.76821 0.09957 0.78883 0.0
loop_
_geom_bond_atom_site_label_1
_geom_bond_atom_site_label_2
_geom_bond_distance
_geom_bond_site_symmetry_2
_ccdc_geom_bond_type
O0 Cd1 2.223 1_556 S
O0 C8 1.315 1_556 S
Cd1 O0 2.223 1_554 S
Cd1 O4 2.297 . S
Cd1 O5 2.439 . S
Cd1 O11 2.240 . S
Cd2 O3 2.240 . S
Cd2 O10 2.223 . S
Cd2 O12 2.297 . S
Cd2 O13 2.439 . S
O3 Cd2 2.240 . S
O3 C8 1.279 . S
O4 Cd1 2.297 . S
O4 C6 1.247 . S
O5 Cd1 2.439 . S
O5 C6 1.208 . S
C6 O4 1.247 . S
C6 O5 1.208 . S
C7 O12 1.247 . S
C7 O13 1.208 . S
C8 O0 1.315 1_554 S
C8 O3 1.279 . S
C9 O10 1.315 . S
C9 O11 1.279 . S
O10 Cd2 2.223 . S
O10 C9 1.315 . S
O11 Cd1 2.240 . S
O11 C9 1.279 . S
O12 Cd2 2.297 . S
O12 C7 1.247 . S
O13 Cd2 2.439 . S
O13 C7 1.208 . S
O14 Cd15 2.223 1_556 S
O14 C22 1.315 1_556 S
Cd15 O14 2.223 1_554 S
Cd15 O18 2.297 . S
Cd15 O19 2.439 . S
Cd15 O25 2.240 . S
Cd16 O17 2.240 . S
Cd16 O24 2.223 . S
Cd16 O26 2.297 . S
Cd16 O27 2.439 . S
O17 Cd16 2.240 . S
O17 C22 1.279 . S
O18 Cd15 2.297 . S
O18 C20 1.247 . S
O19 Cd15 2.439 . S
O19 C20 1.208 . S
C20 O18 1.247 . S
C20 O19 1.208 . S
C21 O26 1.247 . S
C21 O27 1.208 . S
C22 O14 1.315 1_554 S
C22 O17 1.279 . S
C23 O24 1.315 . S
C23 O25 1.279 . S
O24 Cd16 2.223 . S
O24 C23 1.315 . S
O25 Cd15 2.240 . S
O25 C23 1.279 . S
O26 Cd16 2.297 . S
O26 C21 1.247 . S
O27 Cd16 2.439 . S
O27 C21 1.208 . S
O28 Cd29 2.223 1_556 S
O28 C36 1.315 1_556 S
Cd29 O28 2.223 1_554 S
Cd29 O32 2.297 . S
Cd29 O33 2.439 . S
Cd29 O39 2.240 . S
Cd30 O31 2.240 . S
Cd30 O38 2.223 . S
Cd30 O40 2.297 . S
Cd30 O41 2.439 . S
O31 Cd30 2.240 . S
O31 C36 1.279 . S
O32 Cd29 2.297 . S
O32 C34 1.247 . S
O33 Cd29 2.439 . S
O33 C34 1.208 . S
C34 O32 1.247 . S
C34 O33 1.208 . S
C35 O40 1.247 . S
C35 O41 1.208 . S
C36 O28 1.315 1_554 S
C36 O31 1.279 . S
C37 O38 1.315 . S
C37 O39 1.279 . S
O38 Cd30 2.223 . S
O38 C37 1.315 . S
O39 Cd29 2.240 . S
O39 C37 1.279 . S
O40 Cd30 2.297 . S
O40 C35 1.247 . S
O41 Cd30 2.439 . S
O41 C35 1.208 . S
O42 Cd43 2.223 1_556 S
O42 C50 1.315 1_556 S
Cd43 O42 2.223 1_554 S
Cd43 O46 2.297 . S
Cd43 O47 2.439 . S
Cd43 O53 2.240 . S
Cd44 O45 2.240 . S
Cd44 O52 2.223 . S
Cd44 O54 2.297 . S
Cd44 O55 2.439 . S
O45 Cd44 2.240 . S
O45 C50 1.279 . S
O46 Cd43 2.297 . S
O46 C48 1.247 . S
O47 Cd43 2.439 . S
O47 C48 1.208 . S
C48 O46 1.247 . S
C48 O47 1.208 . S
C49 O54 1.247 . S
C49 O55 1.208 . S
C50 O42 1.315 1_554 S
C50 O45 1.279 . S
C51 O52 1.315 . S
C51 O53 1.279 . S
O52 Cd44 2.223 . S
O52 C51 1.315 . S
O53 Cd43 2.240 . S
O53 C51 1.279 . S
O54 Cd44 2.297 . S
O54 C49 1.247 . S
O55 Cd44 2.439 . S
O55 C49 1.208 . S
O56 Cd57 2.223 . S
O56 C64 1.315 . S
Cd57 O56 2.223 . S
Cd57 O60 2.297 . S
Cd57 O61 2.439 . S
Cd57 O67 2.240 . S
Cd58 O59 2.240 . S
Cd58 O66 2.223 . S
Cd58 O68 2.297 . S
Cd58 O69 2.439 . S
O59 Cd58 2.240 . S
O59 C64 1.279 . S
O60 Cd57 2.297 . S
O60 C62 1.247 . S
O61 Cd57 2.439 . S
O61 C62 1.208 . S
C62 O60 1.247 . S
C62 O61 1.208 . S
C63 O68 1.247 . S
C63 O69 1.208 . S
C64 O56 1.315 . S
C64 O59 1.279 . S
C65 O66 1.315 . S
C65 O67 1.279 . S
O66 Cd58 2.223 . S
O66 C65 1.315 . S
O67 Cd57 2.240 . S
O67 C65 1.279 . S
O68 Cd58 2.297 . S
O68 C63 1.247 . S
O69 Cd58 2.439 . S
O69 C63 1.208 . S
O70 Cd71 2.223 . S
O70 C78 1.315 . S
Cd71 O70 2.223 . S
Cd71 O74 2.297 . S
Cd71 O75 2.439 . S
Cd71 O81 2.240 . S
Cd72 O73 2.240 . S
Cd72 O80 2.223 . S
Cd72 O82 2.297 . S
Cd72 O83 2.439 . S
O73 Cd72 2.240 . S
O73 C78 1.279 . S
O74 Cd71 2.297 . S
O74 C76 1.247 . S
O75 Cd71 2.439 . S
O75 C76 1.208 . S
C76 O74 1.247 . S
C76 O75 1.208 . S
C77 O82 1.247 . S
C77 O83 1.208 . S
C78 O70 1.315 . S
C78 O73 1.279 . S
C79 O80 1.315 . S
C79 O81 1.279 . S
O80 Cd72 2.223 . S
O80 C79 1.315 . S
O81 Cd71 2.240 . S
O81 C79 1.279 . S
O82 Cd72 2.297 . S
O82 C77 1.247 . S
O83 Cd72 2.439 . S
O83 C77 1.208 . S
O84 Cd85 2.223 . S
O84 C92 1.315 . S
Cd85 O84 2.223 . S
Cd85 O88 2.297 . S
Cd85 O89 2.439 . S
Cd85 O95 2.240 . S
Cd86 O87 2.240 . S
Cd86 O94 2.223 . S
Cd86 O96 2.297 . S
Cd86 O97 2.439 . S
O87 Cd86 2.240 . S
O87 C92 1.279 . S
O88 Cd85 2.297 . S
O88 C90 1.247 . S
O89 Cd85 2.439 . S
O89 C90 1.208 . S
C90 O88 1.247 . S
C90 O89 1.208 . S
C91 O96 1.247 . S
C91 O97 1.208 . S
C92 O84 1.315 . S
C92 O87 1.279 . S
C93 O94 1.315 . S
C93 O95 1.279 . S
O94 Cd86 2.223 . S
O94 C93 1.315 . S
O95 Cd85 2.240 . S
O95 C93 1.279 . S
O96 Cd86 2.297 . S
O96 C91 1.247 . S
O97 Cd86 2.439 . S
O97 C91 1.208 . S
O98 Cd99 2.223 . S
O98 C106 1.315 . S
Cd99 O98 2.223 . S
Cd99 O102 2.297 . S
Cd99 O103 2.439 . S
Cd99 O109 2.240 . S
Cd100 O101 2.240 . S
Cd100 O108 2.223 . S
Cd100 O110 2.297 . S
Cd100 O111 2.439 . S
O101 Cd100 2.240 . S
O101 C106 1.279 . S
O102 Cd99 2.297 . S
O102 C104 1.247 . S
O103 Cd99 2.439 . S
O103 C104 1.208 . S
C104 O102 1.247 . S
C104 O103 1.208 . S
C105 O110 1.247 . S
C105 O111 1.208 . S
C106 O98 1.315 . S
C106 O101 1.279 . S
C107 O108 1.315 . S
C107 O109 1.279 . S
O108 Cd100 2.223 . S
O108 C107 1.315 . S
O109 Cd99 2.240 . S
O109 C107 1.279 . S
O110 Cd100 2.297 . S
O110 C105 1.247 . S
O111 Cd100 2.439 . S
O111 C105 1.208 . S
O112 Cd113 2.223 1_554 S
O112 C120 1.315 1_554 S
Cd113 O112 2.223 1_556 S
Cd113 O116 2.297 . S
Cd113 O117 2.439 . S
Cd113 O123 2.240 . S
Cd114 O115 2.240 . S
Cd114 O122 2.223 . S
Cd114 O124 2.297 . S
Cd114 O125 2.439 . S
O115 Cd114 2.240 . S
O115 C120 1.279 . S
O116 Cd113 2.297 . S
O116 C118 1.247 . S
O117 Cd113 2.439 . S
O117 C118 1.208 . S
C118 O116 1.247 . S
C118 O117 1.208 . S
C119 O124 1.247 . S
C119 O125 1.208 . S
C120 O112 1.315 1_556 S
C120 O115 1.279 . S
C121 O122 1.315 . S
C121 O123 1.279 . S
O122 Cd114 2.223 . S
O122 C121 1.315 . S
O123 Cd113 2.240 . S
O123 C121 1.279 . S
O124 Cd114 2.297 . S
O124 C119 1.247 . S
O125 Cd114 2.439 . S
O125 C119 1.208 . S
O126 Cd127 2.223 1_554 S
O126 C134 1.315 1_554 S
Cd127 O126 2.223 1_556 S
Cd127 O130 2.297 . S
Cd127 O131 2.439 . S
Cd127 O137 2.240 . S
Cd128 O129 2.240 . S
Cd128 O136 2.223 . S
Cd128 O138 2.297 . S
Cd128 O139 2.439 . S
O129 Cd128 2.240 . S
O129 C134 1.279 . S
O130 Cd127 2.297 . S
O130 C132 1.247 . S
O131 Cd127 2.439 . S
O131 C132 1.208 . S
C132 O130 1.247 . S
C132 O131 1.208 . S
C133 O138 1.247 . S
C133 O139 1.208 . S
C134 O126 1.315 1_556 S
C134 O129 1.279 . S
C135 O136 1.315 . S
C135 O137 1.279 . S
O136 Cd128 2.223 . S
O136 C135 1.315 . S
O137 Cd127 2.240 . S
O137 C135 1.279 . S
O138 Cd128 2.297 . S
O138 C133 1.247 . S
O139 Cd128 2.439 . S
O139 C133 1.208 . S
O140 Cd141 2.223 1_554 S
O140 C148 1.315 1_554 S
Cd141 O140 2.223 1_556 S
Cd141 O144 2.297 . S
Cd141 O145 2.439 . S
Cd141 O151 2.240 . S
Cd142 O143 2.240 . S
Cd142 O150 2.223 . S
Cd142 O152 2.297 . S
Cd142 O153 2.439 . S
O143 Cd142 2.240 . S
O143 C148 1.279 . S
O144 Cd141 2.297 . S
O144 C146 1.247 . S
O145 Cd141 2.439 . S
O145 C146 1.208 . S
C146 O144 1.247 . S
C146 O145 1.208 . S
C147 O152 1.247 . S
C147 O153 1.208 . S
C148 O140 1.315 1_556 S
C148 O143 1.279 . S
C149 O150 1.315 . S
C149 O151 1.279 . S
O150 Cd142 2.223 . S
O150 C149 1.315 . S
O151 Cd141 2.240 . S
O151 C149 1.279 . S
O152 Cd142 2.297 . S
O152 C147 1.247 . S
O153 Cd142 2.439 . S
O153 C147 1.208 . S
O154 Cd155 2.223 1_554 S
O154 C162 1.315 1_554 S
Cd155 O154 2.223 1_556 S
Cd155 O158 2.297 . S
Cd155 O159 2.439 . S
Cd155 O165 2.240 . S
Cd156 O157 2.240 . S
Cd156 O164 2.223 . S
Cd156 O166 2.297 . S
Cd156 O167 2.439 . S
O157 Cd156 2.240 . S
O157 C162 1.279 . S
O158 Cd155 2.297 . S
O158 C160 1.247 . S
O159 Cd155 2.439 . S
O159 C160 1.208 . S
C160 O158 1.247 . S
C160 O159 1.208 . S
C161 O166 1.247 . S
C161 O167 1.208 . S
C162 O154 1.315 1_556 S
C162 O157 1.279 . S
C163 O164 1.315 . S
C163 O165 1.279 . S
O164 Cd156 2.223 . S
O164 C163 1.315 . S
O165 Cd155 2.240 . S
O165 C163 1.279 . S
O166 Cd156 2.297 . S
O166 C161 1.247 . S
O167 Cd156 2.439 . S
O167 C161 1.208 . S
O168 Cd169 2.223 . S
O168 C176 1.315 . S
Cd169 O168 2.223 . S
Cd169 O172 2.297 . S
Cd169 O173 2.439 . S
Cd169 O179 2.240 . S
Cd170 O171 2.240 . S
Cd170 O178 2.223 . S
Cd170 O180 2.297 . S
Cd170 O181 2.439 . S
O171 Cd170 2.240 . S
O171 C176 1.279 . S
O172 Cd169 2.297 . S
O172 C174 1.247 . S
O173 Cd169 2.439 . S
O173 C174 1.208 . S
C174 O172 1.247 . S
C174 O173 1.208 . S
C175 O180 1.247 . S
C175 O181 1.208 . S
C176 O168 1.315 . S
C176 O171 1.279 . S
C177 O178 1.315 . S
C177 O179 1.279 . S
O178 Cd170 2.223 . S
O178 C177 1.315 . S
O179 Cd169 2.240 . S
O179 C177 1.279 . S
O180 Cd170 2.297 . S
O180 C175 1.247 . S
O181 Cd170 2.439 . S
O181 C175 1.208 . S
O182 Cd183 2.223 . S
O182 C190 1.315 . S
Cd183 O182 2.223 . S
Cd183 O186 2.297 . S
Cd183 O187 2.439 . S
Cd183 O193 2.240 . S
Cd184 O185 2.240 . S
Cd184 O192 2.223 . S
Cd184 O194 2.297 . S
Cd184 O195 2.439 . S
O185 Cd184 2.240 . S
O185 C190 1.279 . S
O186 Cd183 2.297 . S
O186 C188 1.247 . S
O187 Cd183 2.439 . S
O187 C188 1.208 . S
C188 O186 1.247 . S
C188 O187 1.208 . S
C189 O194 1.247 . S
C189 O195 1.208 . S
C190 O182 1.315 . S
C190 O185 1.279 . S
C191 O192 1.315 . S
C191 O193 1.279 . S
O192 Cd184 2.223 . S
O192 C191 1.315 . S
O193 Cd183 2.240 . S
O193 C191 1.279 . S
O194 Cd184 2.297 . S
O194 C189 1.247 . S
O195 Cd184 2.439 . S
O195 C189 1.208 . S
O196 Cd197 2.223 . S
O196 C204 1.315 . S
Cd197 O196 2.223 . S
Cd197 O200 2.297 . S
Cd197 O201 2.439 . S
Cd197 O207 2.240 . S
Cd198 O199 2.240 . S
Cd198 O206 2.223 . S
Cd198 O208 2.297 . S
Cd198 O209 2.439 . S
O199 Cd198 2.240 . S
O199 C204 1.279 . S
O200 Cd197 2.297 . S
O200 C202 1.247 . S
O201 Cd197 2.439 . S
O201 C202 1.208 . S
C202 O200 1.247 . S
C202 O201 1.208 . S
C203 O208 1.247 . S
C203 O209 1.208 . S
C204 O196 1.315 . S
C204 O199 1.279 . S
C205 O206 1.315 . S
C205 O207 1.279 . S
O206 Cd198 2.223 . S
O206 C205 1.315 . S
O207 Cd197 2.240 . S
O207 C205 1.279 . S
O208 Cd198 2.297 . S
O208 C203 1.247 . S
O209 Cd198 2.439 . S
O209 C203 1.208 . S
O210 Cd211 2.223 . S
O210 C218 1.315 . S
Cd211 O210 2.223 . S
Cd211 O214 2.297 . S
Cd211 O215 2.439 . S
Cd211 O221 2.240 . S
Cd212 O213 2.240 . S
Cd212 O220 2.223 . S
Cd212 O222 2.297 . S
Cd212 O223 2.439 . S
O213 Cd212 2.240 . S
O213 C218 1.279 . S
O214 Cd211 2.297 . S
O214 C216 1.247 . S
O215 Cd211 2.439 . S
O215 C216 1.208 . S
C216 O214 1.247 . S
C216 O215 1.208 . S
C217 O222 1.247 . S
C217 O223 1.208 . S
C218 O210 1.315 . S
C218 O213 1.279 . S
C219 O220 1.315 . S
C219 O221 1.279 . S
O220 Cd212 2.223 . S
O220 C219 1.315 . S
O221 Cd211 2.240 . S
O221 C219 1.279 . S
O222 Cd212 2.297 . S
O222 C217 1.247 . S
O223 Cd212 2.439 . S
O223 C217 1.208 . S
H224 C230 0.930 . S
H225 C233 0.930 . S
H226 C234 0.930 . S
H227 C235 0.930 1_554 S
H228 C238 0.930 . S
H229 C239 0.930 . S
C230 H224 0.930 . S
C230 C231 1.355 . S
C230 C232 1.412 1_554 S
C231 C230 1.355 . S
C231 C233 1.419 . S
C232 C230 1.412 1_556 S
C232 C237 1.424 1_556 S
C232 C239 1.413 . S
C233 H225 0.930 . S
C233 C231 1.419 . S
C233 C234 1.362 . S
C234 H226 0.930 . S
C234 C233 1.362 . S
C234 C237 1.409 . S
C235 H227 0.930 1_556 S
C235 C236 1.355 . S
C235 C237 1.415 1_556 S
C236 C235 1.355 . S
C236 C238 1.419 . S
C237 C232 1.424 1_554 S
C237 C234 1.409 . S
C237 C235 1.415 1_554 S
C238 H228 0.930 . S
C238 C236 1.419 . S
C238 C239 1.362 . S
C239 H229 0.930 . S
C239 C232 1.413 . S
C239 C238 1.362 . S
H240 C246 0.930 . S
H241 C249 0.930 . S
H242 C250 0.928 1_554 S
H243 C251 0.930 . S
H244 C254 0.930 . S
H245 C255 0.930 . S
C246 H240 0.930 . S
C246 C247 1.355 . S
C246 C248 1.415 . S
C247 C246 1.355 . S
C247 C249 1.419 . S
C248 C246 1.415 . S
C248 C253 1.425 1_556 S
C248 C255 1.409 1_556 S
C249 H241 0.930 . S
C249 C247 1.419 . S
C249 C250 1.366 . S
C250 H242 0.928 1_556 S
C250 C249 1.366 . S
C250 C253 1.407 1_556 S
C251 H243 0.930 . S
C251 C252 1.355 . S
C251 C253 1.415 . S
C252 C251 1.355 . S
C252 C254 1.419 . S
C253 C248 1.425 1_554 S
C253 C250 1.407 1_554 S
C253 C251 1.415 . S
C254 H244 0.930 . S
C254 C252 1.419 . S
C254 C255 1.362 . S
C255 H245 0.930 . S
C255 C248 1.409 1_554 S
C255 C254 1.362 . S
H256 C262 0.930 . S
H257 C265 0.930 . S
H258 C266 0.930 . S
H259 C267 0.930 . S
H260 C270 0.930 . S
H261 C271 0.930 . S
C262 H256 0.930 . S
C262 C263 1.355 . S
C262 C264 1.415 . S
C263 C262 1.355 . S
C263 C265 1.419 1_556 S
C264 C262 1.415 . S
C264 C269 1.425 1_556 S
C264 C271 1.409 . S
C265 H257 0.930 . S
C265 C263 1.419 1_554 S
C265 C266 1.362 . S
C266 H258 0.930 . S
C266 C265 1.362 . S
C266 C269 1.409 . S
C267 H259 0.930 . S
C267 C268 1.355 . S
C267 C269 1.415 . S
C268 C267 1.355 . S
C268 C270 1.419 1_554 S
C269 C264 1.425 1_554 S
C269 C266 1.409 . S
C269 C267 1.415 . S
C270 H260 0.930 . S
C270 C268 1.419 1_556 S
C270 C271 1.362 . S
C271 H261 0.930 . S
C271 C264 1.409 . S
C271 C270 1.362 . S
H272 C278 0.933 . S
H273 C281 0.930 . S
H274 C282 0.930 . S
H275 C283 0.930 1_556 S
H276 C286 0.930 . S
H277 C287 0.930 . S
C278 H272 0.933 . S
C278 C279 1.349 1_554 S
C278 C280 1.417 . S
C279 C278 1.349 1_556 S
C279 C281 1.419 . S
C280 C278 1.417 . S
C280 C285 1.425 1_554 S
C280 C287 1.409 . S
C281 H273 0.930 . S
C281 C279 1.419 . S
C281 C282 1.362 . S
C282 H274 0.930 . S
C282 C281 1.362 . S
C282 C285 1.409 . S
C283 H275 0.930 1_554 S
C283 C284 1.355 . S
C283 C285 1.415 1_554 S
C284 C283 1.355 . S
C284 C286 1.419 . S
C285 C280 1.425 1_556 S
C285 C282 1.409 . S
C285 C283 1.415 1_556 S
C286 H276 0.930 . S
C286 C284 1.419 . S
C286 C287 1.362 . S
C287 H277 0.930 . S
C287 C280 1.409 . S
C287 C286 1.362 . S
H288 C294 0.930 . S
H289 C297 0.930 . S
H290 C298 0.930 . S
H291 C299 0.930 . S
H292 C302 0.930 . S
H293 C303 0.930 . S
C294 H288 0.930 . S
C294 C295 1.355 . S
C294 C296 1.415 . S
C295 C294 1.355 . S
C295 C297 1.419 . S
C296 C294 1.415 . S
C296 C301 1.425 . S
C296 C303 1.409 . S
C297 H289 0.930 . S
C297 C295 1.419 . S
C297 C298 1.362 . S
C298 H290 0.930 . S
C298 C297 1.362 . S
C298 C301 1.409 . S
C299 H291 0.930 . S
C299 C300 1.355 . S
C299 C301 1.415 . S
C300 C299 1.355 . S
C300 C302 1.419 . S
C301 C296 1.425 . S
C301 C298 1.409 . S
C301 C299 1.415 . S
C302 H292 0.930 . S
C302 C300 1.419 . S
C302 C303 1.362 . S
C303 H293 0.930 . S
C303 C296 1.409 . S
C303 C302 1.362 . S
H304 C310 0.930 . S
H305 C313 0.930 . S
H306 C314 0.930 . S
H307 C315 0.930 . S
H308 C318 0.930 . S
H309 C319 0.930 . S
C310 H304 0.930 . S
C310 C311 1.355 . S
C310 C312 1.415 . S
C311 C310 1.355 . S
C311 C313 1.419 . S
C312 C310 1.415 . S
C312 C317 1.425 . S
C312 C319 1.409 . S
C313 H305 0.930 . S
C313 C311 1.419 . S
C313 C314 1.362 . S
C314 H306 0.930 . S
C314 C313 1.362 . S
C314 C317 1.409 . S
C315 H307 0.930 . S
C315 C316 1.355 . S
C315 C317 1.415 . S
C316 C315 1.355 . S
C316 C318 1.419 . S
C317 C312 1.425 . S
C317 C314 1.409 . S
C317 C315 1.415 . S
C318 H308 0.930 . S
C318 C316 1.419 . S
C318 C319 1.362 . S
C319 H309 0.930 . S
C319 C312 1.409 . S
C319 C318 1.362 . S
H320 C326 0.930 . S
H321 C329 0.930 . S
H322 C330 0.930 . S
H323 C331 0.930 . S
H324 C334 0.930 . S
H325 C335 0.930 . S
C326 H320 0.930 . S
C326 C327 1.355 . S
C326 C328 1.415 . S
C327 C326 1.355 . S
C327 C329 1.419 . S
C328 C326 1.415 . S
C328 C333 1.425 . S
C328 C335 1.409 . S
C329 H321 0.930 . S
C329 C327 1.419 . S
C329 C330 1.362 . S
C330 H322 0.930 . S
C330 C329 1.362 . S
C330 C333 1.409 . S
C331 H323 0.930 . S
C331 C332 1.355 . S
C331 C333 1.415 . S
C332 C331 1.355 . S
C332 C334 1.419 . S
C333 C328 1.425 . S
C333 C330 1.409 . S
C333 C331 1.415 . S
C334 H324 0.930 . S
C334 C332 1.419 . S
C334 C335 1.362 . S
C335 H325 0.930 . S
C335 C328 1.409 . S
C335 C334 1.362 . S
H336 C342 0.930 . S
H337 C345 0.930 . S
H338 C346 0.930 . S
H339 C347 0.930 . S
H340 C350 0.930 . S
H341 C351 0.930 . S
C342 H336 0.930 . S
C342 C343 1.355 . S
C342 C344 1.415 . S
C343 C342 1.355 . S
C343 C345 1.419 . S
C344 C342 1.415 . S
C344 C349 1.425 . S
C344 C351 1.409 . S
C345 H337 0.930 . S
C345 C343 1.419 . S
C345 C346 1.362 . S
C346 H338 0.930 . S
C346 C345 1.362 . S
C346 C349 1.409 . S
C347 H339 0.930 . S
C347 C348 1.355 . S
C347 C349 1.415 . S
C348 C347 1.355 . S
C348 C350 1.419 . S
C349 C344 1.425 . S
C349 C346 1.409 . S
C349 C347 1.415 . S
C350 H340 0.930 . S
C350 C348 1.419 . S
C350 C351 1.362 . S
C351 H341 0.930 . S
C351 C344 1.409 . S
C351 C350 1.362 . S
H352 C358 0.930 . S
H353 C361 0.931 . S
H354 C362 0.930 . S
H355 C363 0.930 . S
H356 C366 0.930 . S
H357 C367 0.930 . S
C358 H352 0.930 . S
C358 C359 1.355 . S
C358 C360 1.415 . S
C359 C358 1.355 . S
C359 C361 1.414 1_556 S
C360 C358 1.415 . S
C360 C365 1.425 1_556 S
C360 C367 1.409 . S
C361 H353 0.931 . S
C361 C359 1.414 1_554 S
C361 C362 1.366 . S
C362 H354 0.930 . S
C362 C361 1.366 . S
C362 C365 1.409 . S
C363 H355 0.930 . S
C363 C364 1.355 . S
C363 C365 1.415 . S
C364 C363 1.355 . S
C364 C366 1.419 1_554 S
C365 C360 1.425 1_554 S
C365 C362 1.409 . S
C365 C363 1.415 . S
C366 H356 0.930 . S
C366 C364 1.419 1_556 S
C366 C367 1.362 . S
C367 H357 0.930 . S
C367 C360 1.409 . S
C367 C366 1.362 . S
H368 C374 0.930 . S
H369 C377 0.930 . S
H370 C378 0.930 . S
H371 C379 0.930 . S
H372 C382 0.930 . S
H373 C383 0.930 . S
C374 H368 0.930 . S
C374 C375 1.355 1_554 S
C374 C376 1.415 . S
C375 C374 1.355 1_556 S
C375 C377 1.419 . S
C376 C374 1.415 . S
C376 C381 1.425 1_554 S
C376 C383 1.409 . S
C377 H369 0.930 . S
C377 C375 1.419 . S
C377 C378 1.362 . S
C378 H370 0.930 . S
C378 C377 1.362 . S
C378 C381 1.409 . S
C379 H371 0.930 . S
C379 C380 1.355 1_556 S
C379 C381 1.415 . S
C380 C379 1.355 1_554 S
C380 C382 1.419 . S
C381 C376 1.425 1_556 S
C381 C378 1.409 . S
C381 C379 1.415 . S
C382 H372 0.930 . S
C382 C380 1.419 . S
C382 C383 1.362 . S
C383 H373 0.930 . S
C383 C376 1.409 . S
C383 C382 1.362 . S
H384 C390 0.930 . S
H385 C393 0.930 . S
H386 C394 0.930 . S
H387 C395 0.930 . S
H388 C398 0.930 . S
H389 C399 0.930 . S
C390 H384 0.930 . S
C390 C391 1.355 1_554 S
C390 C392 1.415 . S
C391 C390 1.355 1_556 S
C391 C393 1.419 . S
C392 C390 1.415 . S
C392 C397 1.425 1_554 S
C392 C399 1.409 . S
C393 H385 0.930 . S
C393 C391 1.419 . S
C393 C394 1.362 . S
C394 H386 0.930 . S
C394 C393 1.362 . S
C394 C397 1.409 . S
C395 H387 0.930 . S
C395 C396 1.355 1_556 S
C395 C397 1.415 . S
C396 C395 1.355 1_554 S
C396 C398 1.419 . S
C397 C392 1.425 1_556 S
C397 C394 1.409 . S
C397 C395 1.415 . S
C398 H388 0.930 . S
C398 C396 1.419 . S
C398 C399 1.362 . S
C399 H389 0.930 . S
C399 C392 1.409 . S
C399 C398 1.362 . S
H400 C406 0.930 . S
H401 C409 0.930 . S
H402 C410 0.930 . S
H403 C411 0.930 . S
H404 C414 0.930 . S
H405 C415 0.930 . S
C406 H400 0.930 . S
C406 C407 1.355 . S
C406 C408 1.415 . S
C407 C406 1.355 . S
C407 C409 1.419 . S
C408 C406 1.415 . S
C408 C413 1.425 1_554 S
C408 C415 1.409 . S
C409 H401 0.930 . S
C409 C407 1.419 . S
C409 C410 1.362 1_554 S
C410 H402 0.930 . S
C410 C409 1.362 1_556 S
C410 C413 1.409 . S
C411 H403 0.930 . S
C411 C412 1.355 . S
C411 C413 1.415 . S
C412 C411 1.355 . S
C412 C414 1.419 . S
C413 C408 1.425 1_556 S
C413 C410 1.409 . S
C413 C411 1.415 . S
C414 H404 0.930 . S
C414 C412 1.419 . S
C414 C415 1.362 1_556 S
C415 H405 0.930 . S
C415 C408 1.409 . S
C415 C414 1.362 1_554 S
H416 C422 0.930 . S
H417 C425 0.930 . S
H418 C426 0.930 . S
H419 C427 0.930 . S
H420 C430 0.930 . S
H421 C431 0.930 . S
C422 H416 0.930 . S
C422 C423 1.355 . S
C422 C424 1.415 . S
C423 C422 1.355 . S
C423 C425 1.419 . S
C424 C422 1.415 . S
C424 C429 1.425 . S
C424 C431 1.409 . S
C425 H417 0.930 . S
C425 C423 1.419 . S
C425 C426 1.362 . S
C426 H418 0.930 . S
C426 C425 1.362 . S
C426 C429 1.409 . S
C427 H419 0.930 . S
C427 C428 1.355 . S
C427 C429 1.415 . S
C428 C427 1.355 . S
C428 C430 1.419 . S
C429 C424 1.425 . S
C429 C426 1.409 . S
C429 C427 1.415 . S
C430 H420 0.930 . S
C430 C428 1.419 . S
C430 C431 1.362 . S
C431 H421 0.930 . S
C431 C424 1.409 . S
C431 C430 1.362 . S
H432 C438 0.930 . S
H433 C441 0.930 . S
H434 C442 0.930 . S
H435 C443 0.930 . S
H436 C446 0.930 . S
H437 C447 0.930 . S
C438 H432 0.930 . S
C438 C439 1.355 . S
C438 C440 1.415 . S
C439 C438 1.355 . S
C439 C441 1.419 . S
C440 C438 1.415 . S
C440 C445 1.425 . S
C440 C447 1.409 . S
C441 H433 0.930 . S
C441 C439 1.419 . S
C441 C442 1.362 . S
C442 H434 0.930 . S
C442 C441 1.362 . S
C442 C445 1.409 . S
C443 H435 0.930 . S
C443 C444 1.355 . S
C443 C445 1.415 . S
C444 C443 1.355 . S
C444 C446 1.419 . S
C445 C440 1.425 . S
C445 C442 1.409 . S
C445 C443 1.415 . S
C446 H436 0.930 . S
C446 C444 1.419 . S
C446 C447 1.362 . S
C447 H437 0.930 . S
C447 C440 1.409 . S
C447 C446 1.362 . S
H448 C454 0.930 . S
H449 C457 0.930 . S
H450 C458 0.930 . S
H451 C459 0.930 . S
H452 C462 0.930 . S
H453 C463 0.930 . S
C454 H448 0.930 . S
C454 C455 1.355 . S
C454 C456 1.415 . S
C455 C454 1.355 . S
C455 C457 1.419 . S
C456 C454 1.415 . S
C456 C461 1.425 . S
C456 C463 1.409 . S
C457 H449 0.930 . S
C457 C455 1.419 . S
C457 C458 1.362 . S
C458 H450 0.930 . S
C458 C457 1.362 . S
C458 C461 1.409 . S
C459 H451 0.930 . S
C459 C460 1.355 . S
C459 C461 1.415 . S
C460 C459 1.355 . S
C460 C462 1.419 . S
C461 C456 1.425 . S
C461 C458 1.409 . S
C461 C459 1.415 . S
C462 H452 0.930 . S
C462 C460 1.419 . S
C462 C463 1.362 . S
C463 H453 0.930 . S
C463 C456 1.409 . S
C463 C462 1.362 . S
H464 C470 0.930 . S
H465 C473 0.930 . S
H466 C474 0.930 . S
H467 C475 0.930 . S
H468 C478 0.930 . S
H469 C479 0.930 . S
C470 H464 0.930 . S
C470 C471 1.355 . S
C470 C472 1.415 . S
C471 C470 1.355 . S
C471 C473 1.419 . S
C472 C470 1.415 . S
C472 C477 1.425 . S
C472 C479 1.409 . S
C473 H465 0.930 . S
C473 C471 1.419 . S
C473 C474 1.362 . S
C474 H466 0.930 . S
C474 C473 1.362 . S
C474 C477 1.409 . S
C475 H467 0.930 . S
C475 C476 1.355 . S
C475 C477 1.415 . S
C476 C475 1.355 . S
C476 C478 1.419 . S
C477 C472 1.425 . S
C477 C474 1.409 . S
C477 C475 1.415 . S
C478 H468 0.930 . S
C478 C476 1.419 . S
C478 C479 1.362 . S
C479 H469 0.930 . S
C479 C472 1.409 . S
C479 C478 1.362 . S
H480 C486 0.930 1_554 S
H481 C489 0.930 . S
H482 C490 0.930 1_545 S
H483 C491 0.930 1_556 S
H484 C494 0.930 . S
H485 C495 0.930 1_565 S
C486 H480 0.930 1_556 S
C486 C487 1.355 . S
C486 C488 1.415 1_556 S
C487 C486 1.355 . S
C487 C489 1.419 . S
C488 C486 1.415 1_554 S
C488 C493 1.425 1_564 S
C488 C495 1.409 1_565 S
C489 H481 0.930 . S
C489 C487 1.419 . S
C489 C490 1.362 . S
C490 H482 0.930 1_565 S
C490 C489 1.362 . S
C490 C493 1.409 1_565 S
C491 H483 0.930 1_554 S
C491 C492 1.355 . S
C491 C493 1.415 1_554 S
C492 C491 1.355 . S
C492 C494 1.419 . S
C493 C488 1.425 1_546 S
C493 C490 1.409 1_545 S
C493 C491 1.415 1_556 S
C494 H484 0.930 . S
C494 C492 1.419 . S
C494 C495 1.362 . S
C495 H485 0.930 1_545 S
C495 C488 1.409 1_545 S
C495 C494 1.362 . S
H496 C502 0.930 . S
H497 C505 0.930 . S
H498 C506 0.930 . S
H499 C507 0.930 . S
H500 C510 0.930 . S
H501 C511 0.930 . S
C502 H496 0.930 . S
C502 C503 1.355 . S
C502 C504 1.415 . S
C503 C502 1.355 . S
C503 C505 1.419 1_554 S
C504 C502 1.415 . S
C504 C509 1.425 1_554 S
C504 C511 1.409 . S
C505 H497 0.930 . S
C505 C503 1.419 1_556 S
C505 C506 1.362 . S
C506 H498 0.930 . S
C506 C505 1.362 . S
C506 C509 1.409 . S
C507 H499 0.930 . S
C507 C508 1.355 . S
C507 C509 1.415 . S
C508 C507 1.355 . S
C508 C510 1.419 1_556 S
C509 C504 1.425 1_556 S
C509 C506 1.409 . S
C509 C507 1.415 . S
C510 H500 0.930 . S
C510 C508 1.419 1_554 S
C510 C511 1.362 . S
C511 H501 0.930 . S
C511 C504 1.409 . S
C511 C510 1.362 . S
H512 C518 0.930 . S
H513 C521 0.930 . S
H514 C522 0.930 . S
H515 C523 0.930 . S
H516 C526 0.930 . S
H517 C527 0.930 . S
C518 H512 0.930 . S
C518 C519 1.355 1_655 S
C518 C520 1.415 1_556 S
C519 C518 1.355 1_455 S
C519 C521 1.419 . S
C520 C518 1.415 1_554 S
C520 C525 1.425 1_654 S
C520 C527 1.408 . S
C521 H513 0.930 . S
C521 C519 1.419 . S
C521 C522 1.362 . S
C522 H514 0.930 . S
C522 C521 1.362 . S
C522 C525 1.408 . S
C523 H515 0.930 . S
C523 C524 1.355 1_455 S
C523 C525 1.415 1_554 S
C524 C523 1.355 1_655 S
C524 C526 1.419 . S
C525 C520 1.425 1_456 S
C525 C522 1.408 . S
C525 C523 1.415 1_556 S
C526 H516 0.930 . S
C526 C524 1.419 . S
C526 C527 1.362 . S
C527 H517 0.930 . S
C527 C520 1.408 . S
C527 C526 1.362 . S
H528 C534 0.930 . S
H529 C537 0.930 . S
H530 C538 0.944 . S
H531 C539 0.930 . S
H532 C542 0.930 . S
H533 C543 0.944 . S
C534 H528 0.930 . S
C534 C535 1.355 1_545 S
C534 C536 1.410 1_554 S
C535 C534 1.355 1_565 S
C535 C537 1.419 . S
C536 C534 1.410 1_556 S
C536 C541 1.425 1_446 S
C536 C543 1.414 1_455 S
C537 H529 0.930 . S
C537 C535 1.419 . S
C537 C538 1.362 . S
C538 H530 0.944 . S
C538 C537 1.362 . S
C538 C541 1.414 1_455 S
C539 H531 0.930 . S
C539 C540 1.355 1_565 S
C539 C541 1.410 1_556 S
C540 C539 1.355 1_545 S
C540 C542 1.419 . S
C541 C536 1.425 1_664 S
C541 C538 1.414 1_655 S
C541 C539 1.410 1_554 S
C542 H532 0.930 . S
C542 C540 1.419 . S
C542 C543 1.362 . S
C543 H533 0.944 . S
C543 C536 1.414 1_655 S
C543 C542 1.362 . S
H544 C550 0.930 . S
H545 C553 0.930 . S
H546 C554 0.930 . S
H547 C555 0.930 . S
H548 C558 0.930 . S
H549 C559 0.930 . S
C550 H544 0.930 . S
C550 C551 1.355 . S
C550 C552 1.415 . S
C551 C550 1.355 . S
C551 C553 1.419 . S
C552 C550 1.415 . S
C552 C557 1.425 . S
C552 C559 1.409 . S
C553 H545 0.930 . S
C553 C551 1.419 . S
C553 C554 1.362 . S
C554 H546 0.930 . S
C554 C553 1.362 . S
C554 C557 1.409 . S
C555 H547 0.930 . S
C555 C556 1.355 . S
C555 C557 1.415 . S
C556 C555 1.355 . S
C556 C558 1.419 . S
C557 C552 1.425 . S
C557 C554 1.409 . S
C557 C555 1.415 . S
C558 H548 0.930 . S
C558 C556 1.419 . S
C558 C559 1.362 . S
C559 H549 0.930 . S
C559 C552 1.409 . S
C559 C558 1.362 . S
H560 C566 0.930 . S
H561 C569 0.930 . S
H562 C570 0.930 . S
H563 C571 0.930 . S
H564 C574 0.930 . S
H565 C575 0.930 . S
C566 H560 0.930 . S
C566 C567 1.355 . S
C566 C568 1.415 1_455 S
C567 C566 1.355 . S
C567 C569 1.419 . S
C568 C566 1.415 1_655 S
C568 C573 1.425 1_655 S
C568 C575 1.409 . S
C569 H561 0.930 . S
C569 C567 1.419 . S
C569 C570 1.362 . S
C570 H562 0.930 . S
C570 C569 1.362 . S
C570 C573 1.409 . S
C571 H563 0.930 . S
C571 C572 1.355 . S
C571 C573 1.415 1_655 S
C572 C571 1.355 . S
C572 C574 1.419 . S
C573 C568 1.425 1_455 S
C573 C570 1.409 . S
C573 C571 1.415 1_455 S
C574 H564 0.930 . S
C574 C572 1.419 . S
C574 C575 1.362 . S
C575 H565 0.930 . S
C575 C568 1.409 . S
C575 C574 1.362 . S
H576 C582 0.930 . S
H577 C585 0.930 . S
H578 C586 0.930 . S
H579 C587 0.930 . S
H580 C590 0.930 . S
H581 C591 0.930 . S
C582 H576 0.930 . S
C582 C583 1.344 1_455 S
C582 C584 1.415 . S
C583 C582 1.344 1_655 S
C583 C585 1.433 . S
C584 C582 1.415 . S
C584 C589 1.425 1_465 S
C584 C591 1.409 1_565 S
C585 H577 0.930 . S
C585 C583 1.433 . S
C585 C586 1.362 . S
C586 H578 0.930 . S
C586 C585 1.362 . S
C586 C589 1.409 1_565 S
C587 H579 0.930 . S
C587 C588 1.344 1_655 S
C587 C589 1.415 . S
C588 C587 1.344 1_455 S
C588 C590 1.433 . S
C589 C584 1.425 1_645 S
C589 C586 1.409 1_545 S
C589 C587 1.415 . S
C590 H580 0.930 . S
C590 C588 1.433 . S
C590 C591 1.362 . S
C591 H581 0.930 . S
C591 C584 1.409 1_545 S
C591 C590 1.362 . S
H592 C598 0.930 . S
H593 C601 0.930 . S
H594 C602 0.930 . S
H595 C603 0.930 . S
H596 C606 0.930 . S
H597 C607 0.930 . S
C598 H592 0.930 . S
C598 C599 1.353 1_545 S
C598 C600 1.415 . S
C599 C598 1.353 1_565 S
C599 C601 1.421 . S
C600 C598 1.415 . S
C600 C605 1.425 1_545 S
C600 C607 1.409 . S
C601 H593 0.930 . S
C601 C599 1.421 . S
C601 C602 1.362 . S
C602 H594 0.930 . S
C602 C601 1.362 . S
C602 C605 1.409 . S
C603 H595 0.930 . S
C603 C604 1.353 1_565 S
C603 C605 1.415 . S
C604 C603 1.353 1_545 S
C604 C606 1.421 . S
C605 C600 1.425 1_565 S
C605 C602 1.409 . S
C605 C603 1.415 . S
C606 H596 0.930 . S
C606 C604 1.421 . S
C606 C607 1.362 . S
C607 H597 0.930 . S
C607 C600 1.409 . S
C607 C606 1.362 . S
H608 C614 0.930 . S
H609 C617 0.930 . S
H610 C618 0.930 . S
H611 C619 0.930 . S
H612 C622 0.930 . S
H613 C623 0.930 . S
C614 H608 0.930 . S
C614 C615 1.355 . S
C614 C616 1.415 . S
C615 C614 1.355 . S
C615 C617 1.419 . S
C616 C614 1.415 . S
C616 C621 1.425 . S
C616 C623 1.409 . S
C617 H609 0.930 . S
C617 C615 1.419 . S
C617 C618 1.362 . S
C618 H610 0.930 . S
C618 C617 1.362 . S
C618 C621 1.409 . S
C619 H611 0.930 . S
C619 C620 1.355 . S
C619 C621 1.415 . S
C620 C619 1.355 . S
C620 C622 1.419 . S
C621 C616 1.425 . S
C621 C618 1.409 . S
C621 C619 1.415 . S
C622 H612 0.930 . S
C622 C620 1.419 . S
C622 C623 1.362 . S
C623 H613 0.930 . S
C623 C616 1.409 . S
C623 C622 1.362 . S
H624 C630 0.930 . S
H625 C633 0.930 . S
H626 C634 0.930 . S
H627 C635 0.930 . S
H628 C638 0.930 . S
H629 C639 0.930 . S
C630 H624 0.930 . S
C630 C631 1.355 . S
C630 C632 1.415 . S
C631 C630 1.355 . S
C631 C633 1.419 . S
C632 C630 1.415 . S
C632 C637 1.425 . S
C632 C639 1.409 . S
C633 H625 0.930 . S
C633 C631 1.419 . S
C633 C634 1.362 . S
C634 H626 0.930 . S
C634 C633 1.362 . S
C634 C637 1.409 . S
C635 H627 0.930 . S
C635 C636 1.355 . S
C635 C637 1.415 . S
C636 C635 1.355 . S
C636 C638 1.419 . S
C637 C632 1.425 . S
C637 C634 1.409 . S
C637 C635 1.415 . S
C638 H628 0.930 . S
C638 C636 1.419 . S
C638 C639 1.362 . S
C639 H629 0.930 . S
C639 C632 1.409 . S
C639 C638 1.362 . S
H640 C646 0.930 . S
H641 C649 0.930 1_455 S
H642 C650 0.945 . S
H643 C651 0.924 1_455 S
H644 C654 0.930 . S
H645 C655 0.930 . S
C646 H640 0.930 . S
C646 C647 1.355 . S
C646 C648 1.415 . S
C647 C646 1.355 . S
C647 C649 1.419 . S
C648 C646 1.415 . S
C648 C653 1.425 . S
C648 C655 1.409 . S
C649 H641 0.930 1_655 S
C649 C647 1.419 . S
C649 C650 1.359 1_655 S
C650 H642 0.945 . S
C650 C649 1.359 1_455 S
C650 C653 1.397 1_455 S
C651 H643 0.924 1_655 S
C651 C652 1.355 . S
C651 C653 1.415 . S
C652 C651 1.355 . S
C652 C654 1.419 . S
C653 C648 1.425 . S
C653 C650 1.397 1_655 S
C653 C651 1.415 . S
C654 H644 0.930 . S
C654 C652 1.419 . S
C654 C655 1.362 . S
C655 H645 0.930 . S
C655 C648 1.409 . S
C655 C654 1.362 . S
H656 C662 0.930 . S
H657 C665 0.930 . S
H658 C666 0.930 . S
H659 C667 0.930 . S
H660 C670 0.930 . S
H661 C671 0.930 . S
C662 H656 0.930 . S
C662 C663 1.355 . S
C662 C664 1.415 . S
C663 C662 1.355 . S
C663 C665 1.419 . S
C664 C662 1.415 . S
C664 C669 1.425 . S
C664 C671 1.409 . S
C665 H657 0.930 . S
C665 C663 1.419 . S
C665 C666 1.362 . S
C666 H658 0.930 . S
C666 C665 1.362 . S
C666 C669 1.409 . S
C667 H659 0.930 . S
C667 C668 1.355 . S
C667 C669 1.415 . S
C668 C667 1.355 . S
C668 C670 1.419 . S
C669 C664 1.425 . S
C669 C666 1.409 . S
C669 C667 1.415 . S
C670 H660 0.930 . S
C670 C668 1.419 . S
C670 C671 1.362 . S
C671 H661 0.930 . S
C671 C664 1.409 . S
C671 C670 1.362 . S
H672 C678 0.930 . S
H673 C681 0.930 . S
H674 C682 0.930 . S
H675 C683 0.930 . S
H676 C686 0.930 . S
H677 C687 0.930 . S
C678 H672 0.930 . S
C678 C679 1.355 . S
C678 C680 1.415 . S
C679 C678 1.355 . S
C679 C681 1.419 . S
C680 C678 1.415 . S
C680 C685 1.425 . S
C680 C687 1.409 . S
C681 H673 0.930 . S
C681 C679 1.419 . S
C681 C682 1.362 . S
C682 H674 0.930 . S
C682 C681 1.362 . S
C682 C685 1.409 . S
C683 H675 0.930 . S
C683 C684 1.355 . S
C683 C685 1.415 . S
C684 C683 1.355 . S
C684 C686 1.419 . S
C685 C680 1.425 . S
C685 C682 1.409 . S
C685 C683 1.415 . S
C686 H676 0.930 . S
C686 C684 1.419 . S
C686 C687 1.362 . S
C687 H677 0.930 . S
C687 C680 1.409 . S
C687 C686 1.362 . S
H688 C694 0.930 . S
H689 C697 0.930 . S
H690 C698 0.930 . S
H691 C699 0.930 . S
H692 C702 0.930 . S
H693 C703 0.930 . S
C694 H688 0.930 . S
C694 C695 1.355 . S
C694 C696 1.415 . S
C695 C694 1.355 . S
C695 C697 1.419 . S
C696 C694 1.415 . S
C696 C701 1.425 . S
C696 C703 1.409 . S
C697 H689 0.930 . S
C697 C695 1.419 . S
C697 C698 1.362 . S
C698 H690 0.930 . S
C698 C697 1.362 . S
C698 C701 1.409 . S
C699 H691 0.930 . S
C699 C700 1.355 . S
C699 C701 1.415 . S
C700 C699 1.355 . S
C700 C702 1.419 . S
C701 C696 1.425 . S
C701 C698 1.409 . S
C701 C699 1.415 . S
C702 H692 0.930 . S
C702 C700 1.419 . S
C702 C703 1.362 . S
C703 H693 0.930 . S
C703 C696 1.409 . S
C703 C702 1.362 . S
H704 C710 0.930 . S
H705 C713 0.930 . S
H706 C714 0.930 . S
H707 C715 0.930 . S
H708 C718 0.930 1_655 S
H709 C719 0.930 1_655 S
C710 H704 0.930 . S
C710 C711 1.355 . S
C710 C712 1.415 . S
C711 C710 1.355 . S
C711 C713 1.419 . S
C712 C710 1.415 . S
C712 C717 1.425 . S
C712 C719 1.409 . S
C713 H705 0.930 . S
C713 C711 1.419 . S
C713 C714 1.362 . S
C714 H706 0.930 . S
C714 C713 1.362 . S
C714 C717 1.409 . S
C715 H707 0.930 . S
C715 C716 1.355 . S
C715 C717 1.415 . S
C716 C715 1.355 . S
C716 C718 1.419 . S
C717 C712 1.425 . S
C717 C714 1.409 . S
C717 C715 1.415 . S
C718 H708 0.930 1_455 S
C718 C716 1.419 . S
C718 C719 1.362 . S
C719 H709 0.930 1_455 S
C719 C712 1.409 . S
C719 C718 1.362 . S
H720 C726 0.930 . S
H721 C729 0.930 1_565 S
H722 C730 0.927 1_565 S
H723 C731 0.946 . S
H724 C734 0.930 . S
H725 C735 0.930 . S
C726 H720 0.930 . S
C726 C727 1.355 . S
C726 C728 1.415 . S
C727 C726 1.355 . S
C727 C729 1.419 . S
C728 C726 1.415 . S
C728 C733 1.425 . S
C728 C735 1.409 . S
C729 H721 0.930 1_545 S
C729 C727 1.419 . S
C729 C730 1.363 . S
C730 H722 0.927 1_545 S
C730 C729 1.363 . S
C730 C733 1.412 . S
C731 H723 0.946 . S
C731 C732 1.355 . S
C731 C733 1.415 . S
C732 C731 1.355 . S
C732 C734 1.419 . S
C733 C728 1.425 . S
C733 C730 1.412 . S
C733 C731 1.415 . S
C734 H724 0.930 . S
C734 C732 1.419 . S
C734 C735 1.362 . S
C735 H725 0.930 . S
C735 C728 1.409 . S
C735 C734 1.362 . S
C231 C9 1.125 . S
C236 C134 1.171 . S
C247 C148 1.211 . S
C252 C23 1.196 . S
C263 C162 1.193 . S
C268 C37 1.202 . S
C279 C120 1.217 . S
C284 C51 1.180 . S
C295 C65 1.174 . S
C300 C218 1.218 . S
C311 C176 1.216 . S
C316 C79 1.185 . S
C327 C190 1.176 . S
C332 C93 1.110 . S
C343 C204 1.188 . S
C348 C107 1.101 . S
C359 C121 1.203 . S
C364 C22 1.201 . S
C375 C135 1.164 . S
C380 C36 1.218 . S
C391 C149 1.166 . S
C396 C50 1.218 . S
C407 C8 1.169 . S
C412 C163 1.152 . S
C423 C177 1.176 . S
C428 C106 1.175 . S
C439 C191 1.199 . S
C444 C64 1.208 . S
C455 C78 1.217 . S
C460 C205 1.149 . S
C471 C219 1.121 . S
C476 C92 1.172 . S
C487 C118 1.598 . S
C492 C6 1.598 . S
C503 C20 1.575 . S
C508 C132 1.575 . S
C519 C146 1.583 . S
C524 C34 1.583 . S
C535 C48 1.608 . S
C540 C160 1.608 . S
C551 C174 1.602 . S
C556 C62 1.602 . S
C567 C76 1.578 . S
C572 C188 1.578 . S
C583 C202 1.635 1_655 S
C588 C90 1.635 1_455 S
C599 C216 1.627 1_565 S
C604 C104 1.627 1_545 S
C615 C63 1.536 . S
C620 C7 1.595 . S
C631 C77 1.557 . S
C636 C21 1.580 . S
C647 C35 1.595 . S
C652 C91 1.522 . S
C663 C105 1.565 . S
C668 C49 1.573 . S
C679 C119 1.567 . S
C684 C175 1.539 . S
C695 C189 1.532 . S
C700 C133 1.575 . S
C711 C203 1.523 . S
C716 C147 1.592 . S
C727 C217 1.598 . S
C732 C161 1.526 . S
