# Generated by pormake.
# Topology unc, (4)-cn, num edge types: 1
# Building blocks:
#     Node 0, Type 0, BuildingBlock: UXUYUI_clean_sbu_0, # of connection points: 4
#     Node 1, Type 0, BuildingBlock: UXUYUI_clean_sbu_0, # of connection points: 4
#     Node 2, Type 0, BuildingBlock: UXUYUI_clean_sbu_0, # of connection points: 4
#     Node 3, Type 0, BuildingBlock: UXUYUI_clean_sbu_0, # of connection points: 4
#     Edge 4, Type (0, 0), BuildingBlock: AJUNOK_clean_linker_0, # of connection points: 2
#     Edge 5, Type (0, 0), BuildingBlock: AJUNOK_clean_linker_0, # of connection points: 2
#     Edge 6, Type (0, 0), BuildingBlock: AJUNOK_clean_linker_0, # of connection points: 2
#     Edge 7, Type (0, 0), BuildingBlock: AJUNOK_clean_linker_0, # of connection points: 2
#     Edge 8, Type (0, 0), BuildingBlock: AJUNOK_clean_linker_0, # of connection points: 2
#     Edge 9, Type (0, 0), BuildingBlock: AJUNOK_clean_linker_0, # of connection points: 2
#     Edge 10, Type (0, 0), BuildingBlock: AJUNOK_clean_linker_0, # of connection points: 2
#     Edge 11, Type (0, 0), BuildingBlock: AJUNOK_clean_linker_0, # of connection points: 2
# Relax obj value: 0.184
# Max RMSD: 0.213
# Mean RMSD: 0.213
data_MOF--net-unc--node1-UXUYUI_clean_sbu_0--edge1-AJUNOK_clean_linker_0
_symmetry_space_group_name_H-M    P1
_symmetry_Int_Tables_number       1
_symmetry_cell_setting            triclinic
loop_
_symmetry_equiv_pos_as_xyz
'x, y, z'
_cell_length_a     35.529735
_cell_length_b     35.535896
_cell_length_c     26.849315
_cell_angle_alpha  89.944606
_cell_angle_beta   90.026012
_cell_angle_gamma 89.947077
loop_
_atom_site_label
_atom_site_type_symbol
_atom_site_fract_x
_atom_site_fract_y
_atom_site_fract_z
_atom_type_partial_charge
Li0 Li 0.03564 0.68782 0.01979 0.0
Li1 Li 0.99215 0.6382 0.03613 0.0
Li2 Li 0.01826 0.64074 0.95544 0.0
Li3 Li 0.96918 0.68809 0.9832 0.0
C4 C 0.08374 0.6273 0.01035 0.0
N5 N 0.15976 0.61705 0.99315 0.0
C6 C 0.10484 0.60362 0.04123 0.0
C7 C 0.10134 0.64573 0.97072 0.0
C8 C 0.14323 0.59882 0.03194 0.0
C9 C 0.13977 0.64018 0.96261 0.0
C10 C 0.98068 0.6946 0.10347 0.0
C11 C 0.94227 0.71089 0.17422 0.0
N12 N 0.96974 0.69799 0.20517 0.0
C13 C 0.0086 0.68163 0.13592 0.0
C14 C 0.94727 0.70943 0.12264 0.0
C15 C 0.0025 0.68352 0.18724 0.0
C16 C 0.07064 0.75795 0.03507 0.0
N17 N 0.07311 0.72067 0.04597 0.0
C18 C 0.12662 0.73156 0.09799 0.0
C19 C 0.10031 0.70719 0.07686 0.0
C20 C 0.12446 0.77031 0.08808 0.0
C21 C 0.09622 0.7834 0.05573 0.0
H22 H 0.04842 0.76794 0.01086 0.0
H23 H 0.10133 0.67759 0.08581 0.0
C24 C 1.00087 0.57233 0.09079 0.0
N25 N 0.97782 0.60268 0.08642 0.0
C26 C 0.99441 0.54536 0.1275 0.0
C27 C 0.93982 0.58069 0.15398 0.0
C28 C 0.94728 0.607 0.11647 0.0
C29 C 0.96391 0.54965 0.16017 0.0
H30 H 0.02453 0.5692 0.06586 0.0
H31 H 0.92884 0.63092 0.11154 0.0
C32 C 0.02757 0.71518 0.90704 0.0
N33 N 0.04427 0.75305 0.81983 0.0
C34 C 1.00076 0.71787 0.8691 0.0
C35 C 0.06273 0.73221 0.90086 0.0
C36 C 0.00978 0.73699 0.82523 0.0
C37 C 0.07068 0.75109 0.85643 0.0
C38 C 0.94055 0.60522 0.98395 0.0
C39 C 0.95188 0.56777 0.97875 0.0
C40 C 0.90496 0.6135 0.00316 0.0
C41 C 0.92741 0.53908 0.99341 0.0
C42 C 0.88129 0.58399 0.01732 0.0
N43 N 0.89293 0.54772 0.01225 0.0
C44 C 0.05547 0.58048 0.90511 0.0
C45 C 0.01603 0.61851 0.85476 0.0
C46 C 0.06235 0.55626 0.8652 0.0
N47 N 0.03284 0.61108 0.89918 0.0
C48 C 0.02189 0.59488 0.81397 0.0
C49 C 0.04518 0.56314 0.81896 0.0
H50 H 0.06712 0.57393 0.94123 0.0
H51 H 0.99662 0.64174 0.85158 0.0
C52 C 0.92841 0.75618 0.97537 0.0
N53 N 0.92967 0.71968 0.96036 0.0
C54 C 0.90185 0.78081 0.95491 0.0
C55 C 0.8782 0.72964 0.90454 0.0
C56 C 0.90497 0.70594 0.92625 0.0
C57 C 0.87686 0.76773 0.91829 0.0
H58 H 0.94865 0.76633 0.0023 0.0
H59 H 0.90685 0.67682 0.91482 0.0
O60 O 0.04619 0.63252 0.01956 0.0
O61 O 0.98585 0.69247 0.05314 0.0
O62 O 0.01905 0.69718 0.95071 0.0
O63 O 0.96448 0.63368 0.97112 0.0
H64 H 0.09174 0.5893 0.07231 0.0
H65 H 0.08548 0.66372 0.94614 0.0
H66 H 0.15989 0.58064 0.05562 0.0
H67 H 0.15369 0.65422 0.93196 0.0
H68 H 0.91652 0.72221 0.18965 0.0
H69 H 0.03441 0.66966 0.12158 0.0
H70 H 0.9254 0.71951 0.0979 0.0
H71 H 0.02375 0.67336 0.21282 0.0
H72 H 0.14842 0.72015 0.12183 0.0
H73 H 0.09349 0.81309 0.04727 0.0
H74 H 0.01365 0.52185 0.13108 0.0
H75 H 0.91558 0.58456 0.17787 0.0
H76 H 0.97335 0.70512 0.8733 0.0
H77 H 0.08366 0.73099 0.93011 0.0
H78 H 0.98933 0.7391 0.79548 0.0
H79 H 0.09781 0.76428 0.85111 0.0
H80 H 0.97945 0.56099 0.96408 0.0
H81 H 0.89593 0.6424 0.00763 0.0
H82 H 0.93586 0.50995 0.98994 0.0
H83 H 0.85374 0.58994 0.03254 0.0
H84 H 0.08013 0.53185 0.87081 0.0
H85 H 0.0069 0.60047 0.77963 0.0
H86 H 0.90164 0.81003 0.96635 0.0
H87 H 0.85902 0.71844 0.87693 0.0
Li88 Li 0.36061 0.98922 0.29593 0.0
Li89 Li 0.31329 0.03538 0.27112 0.0
Li90 Li 0.31253 0.96947 0.23543 0.0
Li91 Li 0.36042 0.01558 0.20865 0.0
C92 C 0.29887 0.96775 0.34923 0.0
N93 N 0.28708 0.93011 0.43796 0.0
C94 C 0.29062 0.98785 0.39259 0.0
C95 C 0.30041 0.92848 0.35081 0.0
C96 C 0.28497 0.96833 0.43715 0.0
C97 C 0.29454 0.90997 0.39606 0.0
C98 C 0.37734 0.07895 0.28098 0.0
C99 C 0.38427 0.14238 0.25035 0.0
N100 N 0.39403 0.15391 0.29689 0.0
C101 C 0.38797 0.09131 0.32833 0.0
C102 C 0.37591 0.10457 0.24153 0.0
C103 C 0.39607 0.12937 0.3357 0.0
C104 C 0.42184 0.95104 0.34223 0.0
N105 N 0.39257 0.97506 0.34976 0.0
C106 C 0.41182 0.9853 0.43395 0.0
C107 C 0.38725 0.9922 0.39443 0.0
C108 C 0.44241 0.96079 0.42725 0.0
C109 C 0.44725 0.94344 0.38073 0.0
H110 H 0.42613 0.93862 0.30596 0.0
H111 H 0.36464 0.01226 0.39888 0.0
C112 C 0.25082 0.08518 0.26996 0.0
N113 N 0.28219 0.07499 0.29569 0.0
C114 C 0.2264 0.11237 0.28919 0.0
C115 C 0.26671 0.11774 0.36133 0.0
C116 C 0.29037 0.09051 0.34068 0.0
C117 C 0.23421 0.12897 0.3355 0.0
H118 H 0.24429 0.07164 0.235 0.0
H119 H 0.31467 0.0809 0.36128 0.0
C120 C 0.37736 0.92782 0.21475 0.0
N121 N 0.3957 0.85684 0.18045 0.0
C122 C 0.39084 0.92303 0.16626 0.0
C123 C 0.3738 0.89658 0.24603 0.0
C124 C 0.39981 0.8869 0.14954 0.0
C125 C 0.38305 0.86091 0.22794 0.0
C126 C 0.29303 0.03513 0.15809 0.0
C127 C 0.27808 0.01319 0.11969 0.0
C128 C 0.29535 0.07414 0.15226 0.0
C129 C 0.26644 0.03061 0.07562 0.0
C130 C 0.28339 0.09051 0.10765 0.0
N131 N 0.26935 0.06858 0.07054 0.0
C132 C 0.24788 0.92335 0.23663 0.0
C133 C 0.2892 0.91164 0.16916 0.0
C134 C 0.22252 0.89655 0.21869 0.0
N135 N 0.28053 0.93024 0.21188 0.0
C136 C 0.26482 0.88443 0.15012 0.0
C137 C 0.23093 0.87659 0.17492 0.0
H138 H 0.24115 0.93929 0.26975 0.0
H139 H 0.31454 0.9186 0.14905 0.0
C140 C 0.42748 0.04163 0.16416 0.0
N141 N 0.39224 0.02869 0.15421 0.0
C142 C 0.45367 0.04588 0.1257 0.0
C143 C 0.40642 0.02459 0.06743 0.0
C144 C 0.38125 0.02065 0.10692 0.0
C145 C 0.44348 0.03626 0.07683 0.0
H146 H 0.43573 0.0471 0.20225 0.0
H147 H 0.35364 0.00922 0.10003 0.0
O148 O 0.3048 0.98642 0.30533 0.0
O149 O 0.36915 0.0418 0.27315 0.0
O150 O 0.36832 0.96301 0.23166 0.0
O151 O 0.30455 0.01847 0.20148 0.0
H152 H 0.2889 0.01823 0.39196 0.0
H153 H 0.30576 0.91245 0.31739 0.0
H154 H 0.27889 0.98355 0.47108 0.0
H155 H 0.2958 0.87958 0.39783 0.0
H156 H 0.38313 0.16254 0.22017 0.0
H157 H 0.38967 0.07178 0.35918 0.0
H158 H 0.36875 0.09534 0.2044 0.0
H159 H 0.40402 0.13938 0.37225 0.0
H160 H 0.40776 1.00013 0.46876 0.0
H161 H 0.47076 0.92468 0.37403 0.0
H162 H 0.20148 0.12009 0.26828 0.0
H163 H 0.27316 0.12898 0.39782 0.0
H164 H 0.39415 0.94688 0.14166 0.0
H165 H 0.36433 0.89986 0.28401 0.0
H166 H 0.41004 0.88277 0.11199 0.0
H167 H 0.3803 0.83648 0.25172 0.0
H168 H 0.27573 0.98302 0.12371 0.0
H169 H 0.30583 0.09166 0.18205 0.0
H170 H 0.25507 0.01395 0.04548 0.0
H171 H 0.2851 0.12066 0.10262 0.0
H172 H 0.19619 0.89226 0.23816 0.0
H173 H 0.27227 0.86988 0.11608 0.0
H174 H 0.48207 0.05476 0.1344 0.0
H175 H 0.39739 0.01729 0.03014 0.0
Li176 Li 0.01045 0.36307 0.53862 0.0
Li177 Li 0.96528 0.31521 0.51891 0.0
Li178 Li 0.03196 0.31263 0.4834 0.0
Li179 Li 0.98414 0.36049 0.45574 0.0
C180 C 0.02825 0.30361 0.60023 0.0
N181 N 0.0562 0.29393 0.69539 0.0
C182 C 0.00648 0.31369 0.64144 0.0
C183 C 0.06421 0.28854 0.60735 0.0
C184 C 0.02113 0.30863 0.68927 0.0
C185 C 0.07783 0.28386 0.65579 0.0
C186 C 0.92146 0.37543 0.53442 0.0
C187 C 0.8546 0.37016 0.5205 0.0
N188 N 0.84816 0.38399 0.56694 0.0
C189 C 0.91418 0.38969 0.58199 0.0
C190 C 0.89145 0.36569 0.50337 0.0
C191 C 0.87692 0.39378 0.59773 0.0
C192 C 0.00691 0.43205 0.58677 0.0
N193 N 0.02611 0.39895 0.58793 0.0
C194 C 0.06208 0.41999 0.65792 0.0
C195 C 0.05416 0.39297 0.62159 0.0
C196 C 0.04169 0.45382 0.65848 0.0
C197 C 0.01422 0.45997 0.62188 0.0
H198 H 0.98546 0.43656 0.55881 0.0
H199 H 0.07029 0.36725 0.62061 0.0
C200 C 0.91811 0.25107 0.51921 0.0
N201 N 0.92653 0.28312 0.54451 0.0
C202 C 0.89247 0.22519 0.53894 0.0
C203 C 0.88388 0.26622 0.60969 0.0
C204 C 0.90996 0.29101 0.58894 0.0
C205 C 0.87544 0.23238 0.5852 0.0
H206 H 0.93206 0.24513 0.4843 0.0
H207 H 0.91739 0.31621 0.60892 0.0
C208 C 0.0639 0.39354 0.48563 0.0
N209 N 0.11519 0.44777 0.51391 0.0
C210 C 0.05625 0.43154 0.47689 0.0
C211 C 0.09767 0.38302 0.50845 0.0
C212 C 0.08254 0.45857 0.49157 0.0
C213 C 0.12324 0.4109 0.52252 0.0
C214 C 0.97075 0.29889 0.40159 0.0
C215 C 0.99747 0.29423 0.36392 0.0
C216 C 0.93245 0.29835 0.38975 0.0
C217 C 0.9854 0.28976 0.31475 0.0
C218 C 0.92151 0.29379 0.34014 0.0
N219 N 0.94799 0.28968 0.30397 0.0
C220 C 0.07166 0.2441 0.47558 0.0
C221 C 0.09786 0.29489 0.42996 0.0
C222 C 0.09914 0.21964 0.45718 0.0
N223 N 0.07152 0.28086 0.46162 0.0
C224 C 0.12578 0.27142 0.41057 0.0
C225 C 0.12659 0.23322 0.42407 0.0
H226 H 0.0501 0.23373 0.50049 0.0
H227 H 0.09659 0.32413 0.41886 0.0
C228 C 0.94119 0.41452 0.40048 0.0
N229 N 0.97107 0.39058 0.39962 0.0
C230 C 0.93512 0.43952 0.36102 0.0
C231 C 0.99044 0.41445 0.32047 0.0
C232 C 0.9955 0.39011 0.3607 0.0
C233 C 0.96031 0.44003 0.32072 0.0
H234 H 0.92278 0.41517 0.43244 0.0
H235 H 0.01972 0.37167 0.36175 0.0
O236 O 0.01444 0.30813 0.5531 0.0
O237 O 0.95775 0.37104 0.51839 0.0
O238 O 0.038 0.36679 0.47311 0.0
O239 O 0.98203 0.30388 0.44982 0.0
H240 H 0.97889 0.32595 0.63653 0.0
H241 H 0.08145 0.28069 0.5758 0.0
H242 H 0.00469 0.31653 0.72151 0.0
H243 H 0.10562 0.27229 0.66189 0.0
H244 H 0.83112 0.36264 0.49687 0.0
H245 H 0.937 0.39696 0.60682 0.0
H246 H 0.89657 0.35477 0.46645 0.0
H247 H 0.87089 0.40459 0.63453 0.0
H248 H 0.08376 0.41451 0.68537 0.0
H249 H 0.99774 0.48564 0.62136 0.0
H250 H 0.88682 0.19938 0.51889 0.0
H251 H 0.87072 0.27339 0.64479 0.0
H252 H 0.03009 0.44005 0.45947 0.0
H253 H 0.10378 0.35369 0.51584 0.0
H254 H 0.07693 0.48812 0.48535 0.0
H255 H 0.1494 0.40323 0.54051 0.0
H256 H 0.02721 0.29448 0.37247 0.0
H257 H 0.91141 0.30126 0.41856 0.0
H258 H 0.00578 0.28641 0.28516 0.0
H259 H 0.89197 0.29346 0.3304 0.0
H260 H 0.09882 0.19038 0.46848 0.0
H261 H 0.14585 0.2828 0.38422 0.0
H262 H 0.91143 0.45869 0.3624 0.0
H263 H 0.01076 0.41434 0.2904 0.0
Li264 Li 0.64262 0.01074 0.79251 0.0
Li265 Li 0.69132 0.96588 0.76435 0.0
Li266 Li 0.69006 0.03016 0.73226 0.0
Li267 Li 0.64211 0.98705 0.70948 0.0
C268 C 0.71044 0.00628 0.84932 0.0
N269 N 0.73555 0.98966 0.94422 0.0
C270 C 0.69144 0.97975 0.87839 0.0
C271 C 0.74227 0.02427 0.86842 0.0
C272 C 0.70456 0.97176 0.9263 0.0
C273 C 0.75449 0.01552 0.91653 0.0
C274 C 0.61825 0.92657 0.75468 0.0
C275 C 0.61783 0.86909 0.70699 0.0
N276 N 0.58036 0.86532 0.71605 0.0
C277 C 0.57977 0.92208 0.76366 0.0
C278 C 0.63749 0.89986 0.72619 0.0
C279 C 0.56111 0.89093 0.74375 0.0
C280 C 0.57263 0.01822 0.83408 0.0
N281 N 0.60935 0.02482 0.84496 0.0
C282 C 0.59315 0.04344 0.92782 0.0
C283 C 0.61994 0.03859 0.89013 0.0
C284 C 0.55536 0.03424 0.91847 0.0
C285 C 0.54503 0.02273 0.87041 0.0
H286 H 0.56496 0.00857 0.79728 0.0
H287 H 0.64917 0.04486 0.89747 0.0
C288 C 0.76038 0.92705 0.77251 0.0
N289 N 0.72358 0.92637 0.78625 0.0
C290 C 0.78552 0.90036 0.79149 0.0
C291 C 0.73435 0.87278 0.83825 0.0
C292 C 0.71015 0.89979 0.81808 0.0
C293 C 0.77257 0.87296 0.8251 0.0
H294 H 0.77033 0.94887 0.74766 0.0
H295 H 0.6808 0.90011 0.82872 0.0
C296 C 0.62761 0.07642 0.74268 0.0
N297 N 0.61272 0.15054 0.76674 0.0
C298 C 0.59975 0.09636 0.71705 0.0
C299 C 0.64786 0.09417 0.78066 0.0
C300 C 0.59266 0.13382 0.72973 0.0
C301 C 0.63991 0.13165 0.79223 0.0
C302 C 0.70366 0.99072 0.64532 0.0
C303 C 0.68227 0.018 0.62058 0.0
C304 C 0.73255 0.97217 0.61998 0.0
C305 C 0.69018 0.02624 0.5708 0.0
C306 C 0.73958 0.9812 0.57019 0.0
N307 N 0.71843 0.00782 0.54684 0.0
C308 C 0.7595 0.06618 0.71945 0.0
C309 C 0.70883 0.09808 0.68041 0.0
C310 C 0.78507 0.09254 0.7009 0.0
N311 N 0.72221 0.06942 0.70903 0.0
C312 C 0.73335 0.12525 0.66148 0.0
C313 C 0.77205 0.12272 0.67168 0.0
H314 H 0.76942 0.04263 0.74141 0.0
H315 H 0.67922 0.09958 0.67148 0.0
C316 C 0.57291 0.98994 0.66258 0.0
N317 N 0.60728 0.97345 0.65864 0.0
C318 C 0.54544 0.98362 0.6265 0.0
C319 C 0.58897 0.94282 0.58319 0.0
C320 C 0.61569 0.94989 0.62031 0.0
C321 C 0.55335 0.95992 0.58603 0.0
H322 H 0.56708 0.00851 0.69352 0.0
H323 H 0.64323 0.937 0.61824 0.0
O324 O 0.69871 0.01403 0.80189 0.0
O325 O 0.63688 0.95745 0.77245 0.0
O326 O 0.63466 0.03972 0.73041 0.0
O327 O 0.69671 0.98216 0.69415 0.0
H328 H 0.66675 0.96557 0.86422 0.0
H329 H 0.75739 0.04471 0.84622 0.0
H330 H 0.69011 0.95132 0.94922 0.0
H331 H 0.77908 0.02924 0.93181 0.0
H332 H 0.63232 0.84832 0.68465 0.0
H333 H 0.56441 0.94237 0.78567 0.0
H334 H 0.66717 0.90317 0.71831 0.0
H335 H 0.53131 0.88715 0.75028 0.0
H336 H 0.60207 0.05283 0.96433 0.0
H337 H 0.51599 0.01646 0.86137 0.0
H338 H 0.81495 0.90177 0.78113 0.0
H339 H 0.72337 0.85207 0.86406 0.0
H340 H 0.58383 0.08302 0.68757 0.0
H341 H 0.66952 0.07934 0.80098 0.0
H342 H 0.5712 0.1496 0.71015 0.0
H343 H 0.65538 0.14574 0.82149 0.0
H344 H 0.65977 0.03266 0.63945 0.0
H345 H 0.74938 0.95101 0.63866 0.0
H346 H 0.67386 0.04728 0.55121 0.0
H347 H 0.76187 0.96705 0.55012 0.0
H348 H 0.81478 0.08884 0.70844 0.0
H349 H 0.72215 0.14797 0.63899 0.0
H350 H 0.51867 0.99803 0.6295 0.0
H351 H 0.5961 0.9244 0.55248 0.0
C352 C 0.9601 0.48336 0.19144 0.0
C353 C 0.95847 0.52222 0.20128 0.0
C354 C 0.95931 0.45691 0.23018 0.0
C355 C 0.9568 0.4683 0.28022 0.0
H356 H 0.96272 0.47335 0.1535 0.0
H357 H 0.96135 0.4273 0.22096 0.0
S358 S 0.9524 0.5667 0.32593 0.0
N359 N 0.95433 0.57079 0.26472 0.0
N360 N 0.9528 0.52107 0.33756 0.0
C361 C 0.95422 0.50702 0.29053 0.0
C362 C 0.95505 0.53398 0.25106 0.0
C363 C 0.5091 0.96157 0.45735 0.0
C364 C 0.47066 0.95588 0.46748 0.0
C365 C 0.53592 0.96129 0.49569 0.0
C366 C 0.52527 0.95527 0.54553 0.0
H367 H 0.51833 0.96786 0.41981 0.0
H368 H 0.56496 0.96742 0.48649 0.0
S369 S 0.42901 0.93357 0.59061 0.0
N370 N 0.42384 0.94031 0.53012 0.0
N371 N 0.47426 0.9396 0.6022 0.0
C372 C 0.48721 0.94762 0.55577 0.0
C373 C 0.45992 0.94798 0.51676 0.0
C374 C 0.04377 0.49683 0.78745 0.0
C375 C 0.04858 0.53548 0.77767 0.0
C376 C 0.04316 0.4704 0.74876 0.0
C377 C 0.04709 0.48166 0.69885 0.0
H378 H 0.03897 0.48702 0.82513 0.0
H379 H 0.03802 0.44113 0.75781 0.0
S380 S 0.06516 0.57854 0.65365 0.0
N381 N 0.06105 0.58308 0.71463 0.0
N382 N 0.05917 0.53334 0.64184 0.0
C383 C 0.05344 0.5199 0.68862 0.0
C384 C 0.05435 0.54681 0.72803 0.0
C385 C 0.49541 0.06684 0.0278 0.0
C386 C 0.47202 0.03557 0.0365 0.0
C387 C 0.52252 0.06632 0.9897 0.0
C388 C 0.52707 0.03451 0.95909 0.0
H389 H 0.49243 0.092 0.05022 0.0
H390 H 0.53966 0.0911 0.9837 0.0
S391 S 0.47594 0.94393 0.97059 0.0
N392 N 0.45733 0.97097 0.01407 0.0
N393 N 0.50803 0.97003 0.94262 0.0
C394 C 0.5045 0.00279 0.96833 0.0
C395 C 0.47704 0.00331 0.00697 0.0
C396 C 0.19492 0.85002 0.10277 0.0
C397 C 0.20389 0.84892 0.15384 0.0
C398 C 0.16919 0.82463 0.08193 0.0
C399 C 0.15148 0.79702 0.11127 0.0
H400 H 0.20758 0.87098 0.07874 0.0
H401 H 0.16338 0.82644 0.04239 0.0
S402 S 0.16507 0.78224 0.247 0.0
N403 N 0.19336 0.81756 0.23315 0.0
N404 N 0.14414 0.77059 0.19432 0.0
C405 C 0.16009 0.79565 0.16243 0.0
C406 C 0.1864 0.82145 0.18363 0.0
C407 C 0.16881 0.14795 0.35951 0.0
C408 C 0.20748 0.15636 0.35785 0.0
C409 C 0.143 0.17281 0.38133 0.0
C410 C 0.1548 0.20719 0.40205 0.0
H411 H 0.15843 0.12169 0.34436 0.0
H412 H 0.11348 0.16521 0.38147 0.0
S413 S 0.25293 0.24265 0.40699 0.0
N414 N 0.25629 0.20172 0.37825 0.0
N415 N 0.20784 0.2482 0.42001 0.0
C416 C 0.19338 0.21601 0.40058 0.0
C417 C 0.2197 0.19063 0.37843 0.0
C418 C 0.796 0.16148 0.60025 0.0
C419 C 0.79868 0.15088 0.65068 0.0
C420 C 0.82095 0.18768 0.57936 0.0
C421 C 0.84947 0.20445 0.60812 0.0
H422 H 0.77468 0.14912 0.57651 0.0
H423 H 0.81762 0.19513 0.54047 0.0
S424 S 0.86866 0.18622 0.74196 0.0
N425 N 0.83187 0.15963 0.72903 0.0
N426 N 0.87952 0.20783 0.68945 0.0
C427 C 0.85257 0.19398 0.65855 0.0
C428 C 0.82707 0.16742 0.67986 0.0
C429 C 0.80058 0.84154 0.9 0.0
C430 C 0.79901 0.84551 0.84787 0.0
C431 C 0.82591 0.81643 0.92254 0.0
C432 C 0.85014 0.79397 0.89372 0.0
H433 H 0.78247 0.8584 0.92357 0.0
H434 H 0.82635 0.81436 0.9628 0.0
S435 S 0.85688 0.79353 0.75585 0.0
N436 N 0.82368 0.82474 0.7681 0.0
N437 N 0.87124 0.77752 0.81042 0.0
C438 C 0.84869 0.7975 0.84158 0.0
C439 C 0.82319 0.82332 0.81867 0.0
loop_
_geom_bond_atom_site_label_1
_geom_bond_atom_site_label_2
_geom_bond_distance
_geom_bond_site_symmetry_2
_ccdc_geom_bond_type
Li0 N17 1.990 . S
Li0 O60 1.956 . S
Li0 O61 1.970 1_455 S
Li0 O62 1.961 1_554 S
Li1 N25 1.990 . S
Li1 O60 1.970 1_655 S
Li1 O61 1.956 . S
Li1 O63 1.961 1_554 S
Li2 N47 1.990 . S
Li2 O60 1.961 1_556 S
Li2 O62 1.956 . S
Li2 O63 1.970 1_455 S
Li3 N53 1.990 . S
Li3 O61 1.961 1_556 S
Li3 O62 1.970 1_655 S
Li3 O63 1.956 . S
C4 C6 1.348 . S
C4 C7 1.356 1_554 S
C4 O60 1.325 . S
N5 C8 1.314 . S
N5 C9 1.279 . S
C6 C4 1.348 . S
C6 C8 1.353 . S
C6 H64 0.929 . S
C7 C4 1.356 1_556 S
C7 C9 1.358 1_556 S
C7 H65 0.930 . S
C8 N5 1.314 . S
C8 C6 1.353 . S
C8 H66 0.930 . S
C9 N5 1.279 . S
C9 C7 1.358 1_554 S
C9 H67 0.930 1_554 S
C10 C13 1.348 1_655 S
C10 C14 1.356 . S
C10 O61 1.325 . S
C11 N12 1.279 . S
C11 C14 1.358 . S
C11 H68 0.930 . S
N12 C11 1.279 . S
N12 C15 1.314 . S
C13 C10 1.348 1_455 S
C13 C15 1.353 1_455 S
C13 H69 0.929 . S
C14 C10 1.356 . S
C14 C11 1.358 . S
C14 H70 0.930 . S
C15 N12 1.314 . S
C15 C13 1.353 1_655 S
C15 H71 0.930 1_655 S
C16 N17 1.314 . S
C16 C21 1.353 . S
C16 H22 0.930 1_554 S
N17 Li0 1.990 . S
N17 C16 1.314 . S
N17 C19 1.279 . S
C18 C19 1.358 . S
C18 C20 1.356 . S
C18 H72 0.930 . S
C19 N17 1.279 . S
C19 C18 1.358 . S
C19 H23 0.930 . S
C20 C18 1.356 . S
C20 C21 1.348 . S
C21 C16 1.353 . S
C21 C20 1.348 . S
C21 H73 0.929 . S
H22 C16 0.930 1_556 S
H23 C19 0.930 . S
C24 N25 1.314 . S
C24 C26 1.353 . S
C24 H30 0.930 . S
N25 Li1 1.990 . S
N25 C24 1.314 . S
N25 C28 1.279 . S
C26 C24 1.353 . S
C26 C29 1.348 . S
C26 H74 0.929 . S
C27 C28 1.358 . S
C27 C29 1.356 . S
C27 H75 0.930 . S
C28 N25 1.279 . S
C28 C27 1.358 . S
C28 H31 0.930 . S
C29 C26 1.348 . S
C29 C27 1.356 . S
H30 C24 0.930 . S
H31 C28 0.930 . S
C32 C34 1.348 1_455 S
C32 C35 1.356 . S
C32 O62 1.325 . S
N33 C36 1.314 . S
N33 C37 1.279 . S
C34 C32 1.348 1_655 S
C34 C36 1.353 1_655 S
C34 H76 0.929 . S
C35 C32 1.356 . S
C35 C37 1.358 . S
C35 H77 0.930 . S
C36 N33 1.314 . S
C36 C34 1.353 1_455 S
C36 H78 0.930 1_455 S
C37 N33 1.279 . S
C37 C35 1.358 . S
C37 H79 0.930 . S
C38 C39 1.348 . S
C38 C40 1.356 1_556 S
C38 O63 1.325 . S
C39 C38 1.348 . S
C39 C41 1.353 . S
C39 H80 0.929 . S
C40 C38 1.356 1_554 S
C40 C42 1.358 1_554 S
C40 H81 0.930 . S
C41 C39 1.353 . S
C41 N43 1.314 . S
C41 H82 0.930 . S
C42 C40 1.358 1_556 S
C42 N43 1.279 . S
C42 H83 0.930 1_556 S
N43 C41 1.314 . S
N43 C42 1.279 . S
C44 C46 1.353 . S
C44 N47 1.314 . S
C44 H50 0.930 . S
C45 N47 1.279 . S
C45 C48 1.358 . S
C45 H51 0.930 . S
C46 C44 1.353 . S
C46 C49 1.348 . S
C46 H84 0.929 . S
N47 Li2 1.990 . S
N47 C44 1.314 . S
N47 C45 1.279 . S
C48 C45 1.358 . S
C48 C49 1.356 . S
C48 H85 0.930 . S
C49 C46 1.348 . S
C49 C48 1.356 . S
H50 C44 0.930 . S
H51 C45 0.930 . S
C52 N53 1.314 . S
C52 C54 1.353 . S
C52 H58 0.930 1_556 S
N53 Li3 1.990 . S
N53 C52 1.314 . S
N53 C56 1.279 . S
C54 C52 1.353 . S
C54 C57 1.348 . S
C54 H86 0.929 . S
C55 C56 1.358 . S
C55 C57 1.356 . S
C55 H87 0.930 . S
C56 N53 1.279 . S
C56 C55 1.358 . S
C56 H59 0.930 . S
C57 C54 1.348 . S
C57 C55 1.356 . S
H58 C52 0.930 1_554 S
H59 C56 0.930 . S
O60 Li0 1.956 . S
O60 Li1 1.970 1_455 S
O60 Li2 1.961 1_554 S
O60 C4 1.325 . S
O61 Li0 1.970 1_655 S
O61 Li1 1.956 . S
O61 Li3 1.961 1_554 S
O61 C10 1.325 . S
O62 Li0 1.961 1_556 S
O62 Li2 1.956 . S
O62 Li3 1.970 1_455 S
O62 C32 1.325 . S
O63 Li1 1.961 1_556 S
O63 Li2 1.970 1_655 S
O63 Li3 1.956 . S
O63 C38 1.325 . S
H64 C6 0.929 . S
H65 C7 0.930 . S
H66 C8 0.930 . S
H67 C9 0.930 1_556 S
H68 C11 0.930 . S
H69 C13 0.929 . S
H70 C14 0.930 . S
H71 C15 0.930 1_455 S
H72 C18 0.930 . S
H73 C21 0.929 . S
H74 C26 0.929 . S
H75 C27 0.930 . S
H76 C34 0.929 . S
H77 C35 0.930 . S
H78 C36 0.930 1_655 S
H79 C37 0.930 . S
H80 C39 0.929 . S
H81 C40 0.930 . S
H82 C41 0.930 . S
H83 C42 0.930 1_554 S
H84 C46 0.929 . S
H85 C48 0.930 . S
H86 C54 0.929 . S
H87 C55 0.930 . S
Li88 N105 1.990 . S
Li88 O148 1.956 . S
Li88 O149 1.970 1_565 S
Li88 O150 1.961 . S
Li89 N113 1.990 . S
Li89 O148 1.970 1_545 S
Li89 O149 1.956 . S
Li89 O151 1.961 . S
Li90 N135 1.990 . S
Li90 O148 1.961 . S
Li90 O150 1.956 . S
Li90 O151 1.970 1_565 S
Li91 N141 1.990 . S
Li91 O149 1.961 . S
Li91 O150 1.970 1_545 S
Li91 O151 1.956 . S
C92 C94 1.348 1_565 S
C92 C95 1.356 . S
C92 O148 1.325 . S
N93 C96 1.314 . S
N93 C97 1.279 . S
C94 C92 1.348 1_545 S
C94 C96 1.353 1_545 S
C94 H152 0.929 . S
C95 C92 1.356 . S
C95 C97 1.358 . S
C95 H153 0.930 . S
C96 N93 1.314 . S
C96 C94 1.353 1_565 S
C96 H154 0.930 1_565 S
C97 N93 1.279 . S
C97 C95 1.358 . S
C97 H155 0.930 . S
C98 C101 1.348 . S
C98 C102 1.356 . S
C98 O149 1.325 . S
C99 N100 1.279 . S
C99 C102 1.358 . S
C99 H156 0.930 . S
N100 C99 1.279 . S
N100 C103 1.314 . S
C101 C98 1.348 . S
C101 C103 1.353 . S
C101 H157 0.929 . S
C102 C98 1.356 . S
C102 C99 1.358 . S
C102 H158 0.930 . S
C103 N100 1.314 . S
C103 C101 1.353 . S
C103 H159 0.930 . S
C104 N105 1.314 . S
C104 C109 1.353 . S
C104 H110 0.930 . S
N105 Li88 1.990 . S
N105 C104 1.314 . S
N105 C107 1.279 . S
C106 C107 1.358 . S
C106 C108 1.356 . S
C106 H160 0.930 . S
C107 N105 1.279 . S
C107 C106 1.358 . S
C107 H111 0.930 . S
C108 C106 1.356 . S
C108 C109 1.348 . S
C109 C104 1.353 . S
C109 C108 1.348 . S
C109 H161 0.929 . S
H110 C104 0.930 . S
H111 C107 0.930 . S
C112 N113 1.314 . S
C112 C114 1.353 . S
C112 H118 0.930 . S
N113 Li89 1.990 . S
N113 C112 1.314 . S
N113 C116 1.279 . S
C114 C112 1.353 . S
C114 C117 1.348 . S
C114 H162 0.929 . S
C115 C116 1.358 . S
C115 C117 1.356 . S
C115 H163 0.930 . S
C116 N113 1.279 . S
C116 C115 1.358 . S
C116 H119 0.930 . S
C117 C114 1.348 . S
C117 C115 1.356 . S
H118 C112 0.930 . S
H119 C116 0.930 . S
C120 C122 1.348 . S
C120 C123 1.356 . S
C120 O150 1.325 . S
N121 C124 1.314 . S
N121 C125 1.279 . S
C122 C120 1.348 . S
C122 C124 1.353 . S
C122 H164 0.929 . S
C123 C120 1.356 . S
C123 C125 1.358 . S
C123 H165 0.930 . S
C124 N121 1.314 . S
C124 C122 1.353 . S
C124 H166 0.930 . S
C125 N121 1.279 . S
C125 C123 1.358 . S
C125 H167 0.930 . S
C126 C127 1.348 1_545 S
C126 C128 1.356 . S
C126 O151 1.325 . S
C127 C126 1.348 1_565 S
C127 C129 1.353 1_565 S
C127 H168 0.929 . S
C128 C126 1.356 . S
C128 C130 1.358 . S
C128 H169 0.930 . S
C129 C127 1.353 1_545 S
C129 N131 1.314 . S
C129 H170 0.930 1_545 S
C130 C128 1.358 . S
C130 N131 1.279 . S
C130 H171 0.930 . S
N131 C129 1.314 . S
N131 C130 1.279 . S
C132 C134 1.353 . S
C132 N135 1.314 . S
C132 H138 0.930 . S
C133 N135 1.279 . S
C133 C136 1.358 . S
C133 H139 0.930 . S
C134 C132 1.353 . S
C134 C137 1.348 . S
C134 H172 0.929 . S
N135 Li90 1.990 . S
N135 C132 1.314 . S
N135 C133 1.279 . S
C136 C133 1.358 . S
C136 C137 1.356 . S
C136 H173 0.930 . S
C137 C134 1.348 . S
C137 C136 1.356 . S
H138 C132 0.930 . S
H139 C133 0.930 . S
C140 N141 1.314 . S
C140 C142 1.353 . S
C140 H146 0.930 . S
N141 Li91 1.990 . S
N141 C140 1.314 . S
N141 C144 1.279 . S
C142 C140 1.353 . S
C142 C145 1.348 . S
C142 H174 0.929 . S
C143 C144 1.358 . S
C143 C145 1.356 . S
C143 H175 0.930 . S
C144 N141 1.279 . S
C144 C143 1.358 . S
C144 H147 0.930 . S
C145 C142 1.348 . S
C145 C143 1.356 . S
H146 C140 0.930 . S
H147 C144 0.930 . S
O148 Li88 1.956 . S
O148 Li89 1.970 1_565 S
O148 Li90 1.961 . S
O148 C92 1.325 . S
O149 Li88 1.970 1_545 S
O149 Li89 1.956 . S
O149 Li91 1.961 . S
O149 C98 1.325 . S
O150 Li88 1.961 . S
O150 Li90 1.956 . S
O150 Li91 1.970 1_565 S
O150 C120 1.325 . S
O151 Li89 1.961 . S
O151 Li90 1.970 1_545 S
O151 Li91 1.956 . S
O151 C126 1.325 . S
H152 C94 0.929 . S
H153 C95 0.930 . S
H154 C96 0.930 1_545 S
H155 C97 0.930 . S
H156 C99 0.930 . S
H157 C101 0.929 . S
H158 C102 0.930 . S
H159 C103 0.930 . S
H160 C106 0.930 . S
H161 C109 0.929 . S
H162 C114 0.929 . S
H163 C115 0.930 . S
H164 C122 0.929 . S
H165 C123 0.930 . S
H166 C124 0.930 . S
H167 C125 0.930 . S
H168 C127 0.929 . S
H169 C128 0.930 . S
H170 C129 0.930 1_565 S
H171 C130 0.930 . S
H172 C134 0.929 . S
H173 C136 0.930 . S
H174 C142 0.929 . S
H175 C143 0.930 . S
Li176 N193 1.990 . S
Li176 O236 1.956 . S
Li176 O237 1.970 1_455 S
Li176 O238 1.961 . S
Li177 N201 1.990 . S
Li177 O236 1.970 1_655 S
Li177 O237 1.956 . S
Li177 O239 1.961 . S
Li178 N223 1.990 . S
Li178 O236 1.961 . S
Li178 O238 1.956 . S
Li178 O239 1.970 1_455 S
Li179 N229 1.990 . S
Li179 O237 1.961 . S
Li179 O238 1.970 1_655 S
Li179 O239 1.956 . S
C180 C182 1.348 1_455 S
C180 C183 1.356 . S
C180 O236 1.325 . S
N181 C184 1.314 . S
N181 C185 1.279 . S
C182 C180 1.348 1_655 S
C182 C184 1.353 1_655 S
C182 H240 0.929 . S
C183 C180 1.356 . S
C183 C185 1.358 . S
C183 H241 0.930 . S
C184 N181 1.314 . S
C184 C182 1.353 1_455 S
C184 H242 0.930 1_455 S
C185 N181 1.279 . S
C185 C183 1.358 . S
C185 H243 0.930 . S
C186 C189 1.348 . S
C186 C190 1.356 . S
C186 O237 1.325 . S
C187 N188 1.279 . S
C187 C190 1.358 . S
C187 H244 0.930 . S
N188 C187 1.279 . S
N188 C191 1.314 . S
C189 C186 1.348 . S
C189 C191 1.353 . S
C189 H245 0.929 . S
C190 C186 1.356 . S
C190 C187 1.358 . S
C190 H246 0.930 . S
C191 N188 1.314 . S
C191 C189 1.353 . S
C191 H247 0.930 . S
C192 N193 1.314 . S
C192 C197 1.353 . S
C192 H198 0.930 . S
N193 Li176 1.990 . S
N193 C192 1.314 . S
N193 C195 1.279 . S
C194 C195 1.358 . S
C194 C196 1.356 . S
C194 H248 0.930 . S
C195 N193 1.279 . S
C195 C194 1.358 . S
C195 H199 0.930 . S
C196 C194 1.356 . S
C196 C197 1.348 . S
C197 C192 1.353 . S
C197 C196 1.348 . S
C197 H249 0.929 . S
H198 C192 0.930 . S
H199 C195 0.930 . S
C200 N201 1.314 . S
C200 C202 1.353 . S
C200 H206 0.930 . S
N201 Li177 1.990 . S
N201 C200 1.314 . S
N201 C204 1.279 . S
C202 C200 1.353 . S
C202 C205 1.348 . S
C202 H250 0.929 . S
C203 C204 1.358 . S
C203 C205 1.356 . S
C203 H251 0.930 . S
C204 N201 1.279 . S
C204 C203 1.358 . S
C204 H207 0.930 . S
C205 C202 1.348 . S
C205 C203 1.356 . S
H206 C200 0.930 . S
H207 C204 0.930 . S
C208 C210 1.348 . S
C208 C211 1.356 . S
C208 O238 1.325 . S
N209 C212 1.314 . S
N209 C213 1.279 . S
C210 C208 1.348 . S
C210 C212 1.353 . S
C210 H252 0.929 . S
C211 C208 1.356 . S
C211 C213 1.358 . S
C211 H253 0.930 . S
C212 N209 1.314 . S
C212 C210 1.353 . S
C212 H254 0.930 . S
C213 N209 1.279 . S
C213 C211 1.358 . S
C213 H255 0.930 . S
C214 C215 1.348 1_655 S
C214 C216 1.356 . S
C214 O239 1.325 . S
C215 C214 1.348 1_455 S
C215 C217 1.353 1_455 S
C215 H256 0.929 . S
C216 C214 1.356 . S
C216 C218 1.358 . S
C216 H257 0.930 . S
C217 C215 1.353 1_655 S
C217 N219 1.314 . S
C217 H258 0.930 1_655 S
C218 C216 1.358 . S
C218 N219 1.279 . S
C218 H259 0.930 . S
N219 C217 1.314 . S
N219 C218 1.279 . S
C220 C222 1.353 . S
C220 N223 1.314 . S
C220 H226 0.930 . S
C221 N223 1.279 . S
C221 C224 1.358 . S
C221 H227 0.930 . S
C222 C220 1.353 . S
C222 C225 1.348 . S
C222 H260 0.929 . S
N223 Li178 1.990 . S
N223 C220 1.314 . S
N223 C221 1.279 . S
C224 C221 1.358 . S
C224 C225 1.356 . S
C224 H261 0.930 . S
C225 C222 1.348 . S
C225 C224 1.356 . S
H226 C220 0.930 . S
H227 C221 0.930 . S
C228 N229 1.314 . S
C228 C230 1.353 . S
C228 H234 0.930 . S
N229 Li179 1.990 . S
N229 C228 1.314 . S
N229 C232 1.279 . S
C230 C228 1.353 . S
C230 C233 1.348 . S
C230 H262 0.929 . S
C231 C232 1.358 . S
C231 C233 1.356 . S
C231 H263 0.930 . S
C232 N229 1.279 . S
C232 C231 1.358 . S
C232 H235 0.930 . S
C233 C230 1.348 . S
C233 C231 1.356 . S
H234 C228 0.930 . S
H235 C232 0.930 . S
O236 Li176 1.956 . S
O236 Li177 1.970 1_455 S
O236 Li178 1.961 . S
O236 C180 1.325 . S
O237 Li176 1.970 1_655 S
O237 Li177 1.956 . S
O237 Li179 1.961 . S
O237 C186 1.325 . S
O238 Li176 1.961 . S
O238 Li178 1.956 . S
O238 Li179 1.970 1_455 S
O238 C208 1.325 . S
O239 Li177 1.961 . S
O239 Li178 1.970 1_655 S
O239 Li179 1.956 . S
O239 C214 1.325 . S
H240 C182 0.929 . S
H241 C183 0.930 . S
H242 C184 0.930 1_655 S
H243 C185 0.930 . S
H244 C187 0.930 . S
H245 C189 0.929 . S
H246 C190 0.930 . S
H247 C191 0.930 . S
H248 C194 0.930 . S
H249 C197 0.929 . S
H250 C202 0.929 . S
H251 C203 0.930 . S
H252 C210 0.929 . S
H253 C211 0.930 . S
H254 C212 0.930 . S
H255 C213 0.930 . S
H256 C215 0.929 . S
H257 C216 0.930 . S
H258 C217 0.930 1_455 S
H259 C218 0.930 . S
H260 C222 0.929 . S
H261 C224 0.930 . S
H262 C230 0.929 . S
H263 C231 0.930 . S
Li264 N281 1.990 . S
Li264 O324 1.956 . S
Li264 O325 1.970 1_545 S
Li264 O326 1.961 . S
Li265 N289 1.990 . S
Li265 O324 1.970 1_565 S
Li265 O325 1.956 . S
Li265 O327 1.961 . S
Li266 N311 1.990 . S
Li266 O324 1.961 . S
Li266 O326 1.956 . S
Li266 O327 1.970 1_545 S
Li267 N317 1.990 . S
Li267 O325 1.961 . S
Li267 O326 1.970 1_565 S
Li267 O327 1.956 . S
C268 C270 1.348 1_545 S
C268 C271 1.356 . S
C268 O324 1.325 . S
N269 C272 1.314 . S
N269 C273 1.279 . S
C270 C268 1.348 1_565 S
C270 C272 1.353 1_565 S
C270 H328 0.929 . S
C271 C268 1.356 . S
C271 C273 1.358 . S
C271 H329 0.930 . S
C272 N269 1.314 . S
C272 C270 1.353 1_545 S
C272 H330 0.930 1_545 S
C273 N269 1.279 . S
C273 C271 1.358 . S
C273 H331 0.930 . S
C274 C277 1.348 . S
C274 C278 1.356 . S
C274 O325 1.325 . S
C275 N276 1.279 . S
C275 C278 1.358 . S
C275 H332 0.930 . S
N276 C275 1.279 . S
N276 C279 1.314 . S
C277 C274 1.348 . S
C277 C279 1.353 . S
C277 H333 0.929 . S
C278 C274 1.356 . S
C278 C275 1.358 . S
C278 H334 0.930 . S
C279 N276 1.314 . S
C279 C277 1.353 . S
C279 H335 0.930 . S
C280 N281 1.314 . S
C280 C285 1.353 . S
C280 H286 0.930 . S
N281 Li264 1.990 . S
N281 C280 1.314 . S
N281 C283 1.279 . S
C282 C283 1.358 . S
C282 C284 1.356 . S
C282 H336 0.930 . S
C283 N281 1.279 . S
C283 C282 1.358 . S
C283 H287 0.930 . S
C284 C282 1.356 . S
C284 C285 1.348 . S
C285 C280 1.353 . S
C285 C284 1.348 . S
C285 H337 0.929 . S
H286 C280 0.930 . S
H287 C283 0.930 . S
C288 N289 1.314 . S
C288 C290 1.353 . S
C288 H294 0.930 . S
N289 Li265 1.990 . S
N289 C288 1.314 . S
N289 C292 1.279 . S
C290 C288 1.353 . S
C290 C293 1.348 . S
C290 H338 0.929 . S
C291 C292 1.358 . S
C291 C293 1.356 . S
C291 H339 0.930 . S
C292 N289 1.279 . S
C292 C291 1.358 . S
C292 H295 0.930 . S
C293 C290 1.348 . S
C293 C291 1.356 . S
H294 C288 0.930 . S
H295 C292 0.930 . S
C296 C298 1.348 . S
C296 C299 1.356 . S
C296 O326 1.325 . S
N297 C300 1.314 . S
N297 C301 1.279 . S
C298 C296 1.348 . S
C298 C300 1.353 . S
C298 H340 0.929 . S
C299 C296 1.356 . S
C299 C301 1.358 . S
C299 H341 0.930 . S
C300 N297 1.314 . S
C300 C298 1.353 . S
C300 H342 0.930 . S
C301 N297 1.279 . S
C301 C299 1.358 . S
C301 H343 0.930 . S
C302 C303 1.348 1_565 S
C302 C304 1.356 . S
C302 O327 1.325 . S
C303 C302 1.348 1_545 S
C303 C305 1.353 1_545 S
C303 H344 0.929 . S
C304 C302 1.356 . S
C304 C306 1.358 . S
C304 H345 0.930 . S
C305 C303 1.353 1_565 S
C305 N307 1.314 . S
C305 H346 0.930 1_565 S
C306 C304 1.358 . S
C306 N307 1.279 . S
C306 H347 0.930 . S
N307 C305 1.314 . S
N307 C306 1.279 . S
C308 C310 1.353 . S
C308 N311 1.314 . S
C308 H314 0.930 . S
C309 N311 1.279 . S
C309 C312 1.358 . S
C309 H315 0.930 . S
C310 C308 1.353 . S
C310 C313 1.348 . S
C310 H348 0.929 . S
N311 Li266 1.990 . S
N311 C308 1.314 . S
N311 C309 1.279 . S
C312 C309 1.358 . S
C312 C313 1.356 . S
C312 H349 0.930 . S
C313 C310 1.348 . S
C313 C312 1.356 . S
H314 C308 0.930 . S
H315 C309 0.930 . S
C316 N317 1.314 . S
C316 C318 1.353 . S
C316 H322 0.930 . S
N317 Li267 1.990 . S
N317 C316 1.314 . S
N317 C320 1.279 . S
C318 C316 1.353 . S
C318 C321 1.348 . S
C318 H350 0.929 . S
C319 C320 1.358 . S
C319 C321 1.356 . S
C319 H351 0.930 . S
C320 N317 1.279 . S
C320 C319 1.358 . S
C320 H323 0.930 . S
C321 C318 1.348 . S
C321 C319 1.356 . S
H322 C316 0.930 . S
H323 C320 0.930 . S
O324 Li264 1.956 . S
O324 Li265 1.970 1_545 S
O324 Li266 1.961 . S
O324 C268 1.325 . S
O325 Li264 1.970 1_565 S
O325 Li265 1.956 . S
O325 Li267 1.961 . S
O325 C274 1.325 . S
O326 Li264 1.961 . S
O326 Li266 1.956 . S
O326 Li267 1.970 1_545 S
O326 C296 1.325 . S
O327 Li265 1.961 . S
O327 Li266 1.970 1_565 S
O327 Li267 1.956 . S
O327 C302 1.325 . S
H328 C270 0.929 . S
H329 C271 0.930 . S
H330 C272 0.930 1_565 S
H331 C273 0.930 . S
H332 C275 0.930 . S
H333 C277 0.929 . S
H334 C278 0.930 . S
H335 C279 0.930 . S
H336 C282 0.930 . S
H337 C285 0.929 . S
H338 C290 0.929 . S
H339 C291 0.930 . S
H340 C298 0.929 . S
H341 C299 0.930 . S
H342 C300 0.930 . S
H343 C301 0.930 . S
H344 C303 0.929 . S
H345 C304 0.930 . S
H346 C305 0.930 1_545 S
H347 C306 0.930 . S
H348 C310 0.929 . S
H349 C312 0.930 . S
H350 C318 0.929 . S
H351 C319 0.930 . S
C352 C353 1.369 . S
C352 C354 1.419 . S
C352 H356 0.930 . S
C353 C352 1.369 . S
C353 C362 1.429 . S
C354 C352 1.419 . S
C354 C355 1.363 . S
C354 H357 0.929 . S
C355 C354 1.363 . S
C355 C361 1.428 . S
H356 C352 0.930 . S
H357 C354 0.929 . S
S358 N359 1.613 . S
S358 N360 1.610 . S
N359 S358 1.613 . S
N359 C362 1.350 . S
N360 S358 1.610 . S
N360 C361 1.351 . S
C361 C355 1.428 . S
C361 N360 1.351 . S
C361 C362 1.434 . S
C362 C353 1.429 . S
C362 N359 1.350 . S
C362 C361 1.434 . S
C363 C364 1.369 . S
C363 C365 1.419 . S
C363 H367 0.930 . S
C364 C363 1.369 . S
C364 C373 1.429 . S
C365 C363 1.419 . S
C365 C366 1.363 . S
C365 H368 0.929 . S
C366 C365 1.363 . S
C366 C372 1.428 . S
H367 C363 0.930 . S
H368 C365 0.929 . S
S369 N370 1.613 . S
S369 N371 1.610 . S
N370 S369 1.613 . S
N370 C373 1.350 . S
N371 S369 1.610 . S
N371 C372 1.351 . S
C372 C366 1.428 . S
C372 N371 1.351 . S
C372 C373 1.434 . S
C373 C364 1.429 . S
C373 N370 1.350 . S
C373 C372 1.434 . S
C374 C375 1.369 . S
C374 C376 1.419 . S
C374 H378 0.949 . S
C375 C374 1.369 . S
C375 C384 1.429 . S
C376 C374 1.419 . S
C376 C377 1.363 . S
C376 H379 0.935 . S
C377 C376 1.363 . S
C377 C383 1.428 . S
H378 C374 0.949 . S
H379 C376 0.935 . S
S380 N381 1.613 . S
S380 N382 1.610 . S
N381 S380 1.613 . S
N381 C384 1.350 . S
N382 S380 1.610 . S
N382 C383 1.351 . S
C383 C377 1.428 . S
C383 N382 1.351 . S
C383 C384 1.434 . S
C384 C375 1.429 . S
C384 N381 1.350 . S
C384 C383 1.434 . S
C385 C386 1.369 . S
C385 C387 1.419 1_554 S
C385 H389 0.930 . S
C386 C385 1.369 . S
C386 C395 1.429 . S
C387 C385 1.419 1_556 S
C387 C388 1.363 . S
C387 H390 0.929 . S
C388 C387 1.363 . S
C388 C394 1.428 . S
H389 C385 0.930 . S
H390 C387 0.929 . S
S391 N392 1.613 1_556 S
S391 N393 1.610 . S
N392 S391 1.613 1_554 S
N392 C395 1.350 1_565 S
N393 S391 1.610 . S
N393 C394 1.351 1_565 S
C394 C388 1.428 . S
C394 N393 1.351 1_545 S
C394 C395 1.434 1_556 S
C395 C386 1.429 . S
C395 N392 1.350 1_545 S
C395 C394 1.434 1_554 S
C396 C397 1.369 . S
C396 C398 1.419 . S
C396 H400 0.930 . S
C397 C396 1.369 . S
C397 C406 1.429 . S
C398 C396 1.419 . S
C398 C399 1.363 . S
C398 H401 0.929 . S
C399 C398 1.363 . S
C399 C405 1.428 . S
H400 C396 0.930 . S
H401 C398 0.929 . S
S402 N403 1.613 . S
S402 N404 1.610 . S
N403 S402 1.613 . S
N403 C406 1.350 . S
N404 S402 1.610 . S
N404 C405 1.351 . S
C405 C399 1.428 . S
C405 N404 1.351 . S
C405 C406 1.434 . S
C406 C397 1.429 . S
C406 N403 1.350 . S
C406 C405 1.434 . S
C407 C408 1.369 . S
C407 C409 1.419 . S
C407 H411 0.930 . S
C408 C407 1.369 . S
C408 C417 1.429 . S
C409 C407 1.419 . S
C409 C410 1.363 . S
C409 H412 0.929 . S
C410 C409 1.363 . S
C410 C416 1.428 . S
H411 C407 0.930 . S
H412 C409 0.929 . S
S413 N414 1.613 . S
S413 N415 1.610 . S
N414 S413 1.613 . S
N414 C417 1.350 . S
N415 S413 1.610 . S
N415 C416 1.351 . S
C416 C410 1.428 . S
C416 N415 1.351 . S
C416 C417 1.434 . S
C417 C408 1.429 . S
C417 N414 1.350 . S
C417 C416 1.434 . S
C418 C419 1.369 . S
C418 C420 1.419 . S
C418 H422 0.930 . S
C419 C418 1.369 . S
C419 C428 1.429 . S
C420 C418 1.419 . S
C420 C421 1.363 . S
C420 H423 0.929 . S
C421 C420 1.363 . S
C421 C427 1.428 . S
H422 C418 0.930 . S
H423 C420 0.929 . S
S424 N425 1.613 . S
S424 N426 1.610 . S
N425 S424 1.613 . S
N425 C428 1.350 . S
N426 S424 1.610 . S
N426 C427 1.351 . S
C427 C421 1.428 . S
C427 N426 1.351 . S
C427 C428 1.434 . S
C428 C419 1.429 . S
C428 N425 1.350 . S
C428 C427 1.434 . S
C429 C430 1.369 . S
C429 C431 1.419 . S
C429 H433 0.930 . S
C430 C429 1.369 . S
C430 C439 1.429 . S
C431 C429 1.419 . S
C431 C432 1.363 . S
C431 H434 0.929 . S
C432 C431 1.363 . S
C432 C438 1.428 . S
H433 C429 0.930 . S
H434 C431 0.929 . S
S435 N436 1.613 . S
S435 N437 1.610 . S
N436 S435 1.613 . S
N436 C439 1.350 . S
N437 S435 1.610 . S
N437 C438 1.351 . S
C438 C432 1.428 . S
C438 N437 1.351 . S
C438 C439 1.434 . S
C439 C430 1.429 . S
C439 N436 1.350 . S
C439 C438 1.434 . S
C353 C29 1.028 . S
C355 C233 1.021 . S
C364 C108 1.029 . S
C366 C321 1.024 . S
C375 C49 1.030 . S
C377 C196 1.027 . S
C386 C145 1.024 . S
C388 C284 1.025 . S
C397 C137 1.749 . S
C399 C20 1.740 . S
C408 C117 1.744 . S
C410 C225 1.742 . S
C419 C313 1.749 . S
C421 C205 1.742 . S
C430 C293 1.749 . S
C432 C57 1.747 . S
