# Generated by pormake.
# Topology unv, (4)-cn, num edge types: 1
# Building blocks:
#     Node 0, Type 0, BuildingBlock: QUQFOY_clean_sbu_1, # of connection points: 4
#     Node 1, Type 0, BuildingBlock: QUQFOY_clean_sbu_1, # of connection points: 4
#     Node 2, Type 0, BuildingBlock: QUQFOY_clean_sbu_1, # of connection points: 4
#     Node 3, Type 0, BuildingBlock: QUQFOY_clean_sbu_1, # of connection points: 4
#     Node 4, Type 0, BuildingBlock: QUQFOY_clean_sbu_1, # of connection points: 4
#     Node 5, Type 0, BuildingBlock: QUQFOY_clean_sbu_1, # of connection points: 4
#     Node 6, Type 0, BuildingBlock: QUQFOY_clean_sbu_1, # of connection points: 4
#     Node 7, Type 0, BuildingBlock: QUQFOY_clean_sbu_1, # of connection points: 4
#     Node 8, Type 0, BuildingBlock: QUQFOY_clean_sbu_1, # of connection points: 4
#     Node 9, Type 0, BuildingBlock: QUQFOY_clean_sbu_1, # of connection points: 4
#     Node 10, Type 0, BuildingBlock: QUQFOY_clean_sbu_1, # of connection points: 4
#     Node 11, Type 0, BuildingBlock: QUQFOY_clean_sbu_1, # of connection points: 4
#     Node 12, Type 0, BuildingBlock: QUQFOY_clean_sbu_1, # of connection points: 4
#     Node 13, Type 0, BuildingBlock: QUQFOY_clean_sbu_1, # of connection points: 4
#     Node 14, Type 0, BuildingBlock: QUQFOY_clean_sbu_1, # of connection points: 4
#     Node 15, Type 0, BuildingBlock: QUQFOY_clean_sbu_1, # of connection points: 4
#     Node 16, Type 0, BuildingBlock: QUQFOY_clean_sbu_1, # of connection points: 4
#     Node 17, Type 0, BuildingBlock: QUQFOY_clean_sbu_1, # of connection points: 4
#     Node 18, Type 0, BuildingBlock: QUQFOY_clean_sbu_1, # of connection points: 4
#     Node 19, Type 0, BuildingBlock: QUQFOY_clean_sbu_1, # of connection points: 4
#     Node 20, Type 0, BuildingBlock: QUQFOY_clean_sbu_1, # of connection points: 4
#     Node 21, Type 0, BuildingBlock: QUQFOY_clean_sbu_1, # of connection points: 4
#     Node 22, Type 0, BuildingBlock: QUQFOY_clean_sbu_1, # of connection points: 4
#     Node 23, Type 0, BuildingBlock: QUQFOY_clean_sbu_1, # of connection points: 4
#     Edge 24, Type (0, 0), BuildingBlock: MIFKUJ_clean_linker_0, # of connection points: 2
#     Edge 25, Type (0, 0), BuildingBlock: MIFKUJ_clean_linker_0, # of connection points: 2
#     Edge 26, Type (0, 0), BuildingBlock: MIFKUJ_clean_linker_0, # of connection points: 2
#     Edge 27, Type (0, 0), BuildingBlock: MIFKUJ_clean_linker_0, # of connection points: 2
#     Edge 28, Type (0, 0), BuildingBlock: MIFKUJ_clean_linker_0, # of connection points: 2
#     Edge 29, Type (0, 0), BuildingBlock: MIFKUJ_clean_linker_0, # of connection points: 2
#     Edge 30, Type (0, 0), BuildingBlock: MIFKUJ_clean_linker_0, # of connection points: 2
#     Edge 31, Type (0, 0), BuildingBlock: MIFKUJ_clean_linker_0, # of connection points: 2
#     Edge 32, Type (0, 0), BuildingBlock: MIFKUJ_clean_linker_0, # of connection points: 2
#     Edge 33, Type (0, 0), BuildingBlock: MIFKUJ_clean_linker_0, # of connection points: 2
#     Edge 34, Type (0, 0), BuildingBlock: MIFKUJ_clean_linker_0, # of connection points: 2
#     Edge 35, Type (0, 0), BuildingBlock: MIFKUJ_clean_linker_0, # of connection points: 2
#     Edge 36, Type (0, 0), BuildingBlock: MIFKUJ_clean_linker_0, # of connection points: 2
#     Edge 37, Type (0, 0), BuildingBlock: MIFKUJ_clean_linker_0, # of connection points: 2
#     Edge 38, Type (0, 0), BuildingBlock: MIFKUJ_clean_linker_0, # of connection points: 2
#     Edge 39, Type (0, 0), BuildingBlock: MIFKUJ_clean_linker_0, # of connection points: 2
#     Edge 40, Type (0, 0), BuildingBlock: MIFKUJ_clean_linker_0, # of connection points: 2
#     Edge 41, Type (0, 0), BuildingBlock: MIFKUJ_clean_linker_0, # of connection points: 2
#     Edge 42, Type (0, 0), BuildingBlock: MIFKUJ_clean_linker_0, # of connection points: 2
#     Edge 43, Type (0, 0), BuildingBlock: MIFKUJ_clean_linker_0, # of connection points: 2
#     Edge 44, Type (0, 0), BuildingBlock: MIFKUJ_clean_linker_0, # of connection points: 2
#     Edge 45, Type (0, 0), BuildingBlock: MIFKUJ_clean_linker_0, # of connection points: 2
#     Edge 46, Type (0, 0), BuildingBlock: MIFKUJ_clean_linker_0, # of connection points: 2
#     Edge 47, Type (0, 0), BuildingBlock: MIFKUJ_clean_linker_0, # of connection points: 2
#     Edge 48, Type (0, 0), BuildingBlock: MIFKUJ_clean_linker_0, # of connection points: 2
#     Edge 49, Type (0, 0), BuildingBlock: MIFKUJ_clean_linker_0, # of connection points: 2
#     Edge 50, Type (0, 0), BuildingBlock: MIFKUJ_clean_linker_0, # of connection points: 2
#     Edge 51, Type (0, 0), BuildingBlock: MIFKUJ_clean_linker_0, # of connection points: 2
#     Edge 52, Type (0, 0), BuildingBlock: MIFKUJ_clean_linker_0, # of connection points: 2
#     Edge 53, Type (0, 0), BuildingBlock: MIFKUJ_clean_linker_0, # of connection points: 2
#     Edge 54, Type (0, 0), BuildingBlock: MIFKUJ_clean_linker_0, # of connection points: 2
#     Edge 55, Type (0, 0), BuildingBlock: MIFKUJ_clean_linker_0, # of connection points: 2
#     Edge 56, Type (0, 0), BuildingBlock: MIFKUJ_clean_linker_0, # of connection points: 2
#     Edge 57, Type (0, 0), BuildingBlock: MIFKUJ_clean_linker_0, # of connection points: 2
#     Edge 58, Type (0, 0), BuildingBlock: MIFKUJ_clean_linker_0, # of connection points: 2
#     Edge 59, Type (0, 0), BuildingBlock: MIFKUJ_clean_linker_0, # of connection points: 2
#     Edge 60, Type (0, 0), BuildingBlock: MIFKUJ_clean_linker_0, # of connection points: 2
#     Edge 61, Type (0, 0), BuildingBlock: MIFKUJ_clean_linker_0, # of connection points: 2
#     Edge 62, Type (0, 0), BuildingBlock: MIFKUJ_clean_linker_0, # of connection points: 2
#     Edge 63, Type (0, 0), BuildingBlock: MIFKUJ_clean_linker_0, # of connection points: 2
#     Edge 64, Type (0, 0), BuildingBlock: MIFKUJ_clean_linker_0, # of connection points: 2
#     Edge 65, Type (0, 0), BuildingBlock: MIFKUJ_clean_linker_0, # of connection points: 2
#     Edge 66, Type (0, 0), BuildingBlock: MIFKUJ_clean_linker_0, # of connection points: 2
#     Edge 67, Type (0, 0), BuildingBlock: MIFKUJ_clean_linker_0, # of connection points: 2
#     Edge 68, Type (0, 0), BuildingBlock: MIFKUJ_clean_linker_0, # of connection points: 2
#     Edge 69, Type (0, 0), BuildingBlock: MIFKUJ_clean_linker_0, # of connection points: 2
#     Edge 70, Type (0, 0), BuildingBlock: MIFKUJ_clean_linker_0, # of connection points: 2
#     Edge 71, Type (0, 0), BuildingBlock: MIFKUJ_clean_linker_0, # of connection points: 2
# Relax obj value: 0.143
# Max RMSD: 0.146
# Mean RMSD: 0.119
data_MOF--net-unv--node1-QUQFOY_clean_sbu_1--edge1-MIFKUJ_clean_linker_0
_symmetry_space_group_name_H-M    P1
_symmetry_Int_Tables_number       1
_symmetry_cell_setting            triclinic
loop_
_symmetry_equiv_pos_as_xyz
'x, y, z'
_cell_length_a     66.326412
_cell_length_b     66.354272
_cell_length_c     66.339809
_cell_angle_alpha  89.973989
_cell_angle_beta   89.958509
_cell_angle_gamma 89.970083
loop_
_atom_site_label
_atom_site_type_symbol
_atom_site_fract_x
_atom_site_fract_y
_atom_site_fract_z
_atom_type_partial_charge
O0 O 0.02936 0.10611 0.41363 0.0
Cd1 Cd 0.00622 0.1046 0.39295 0.0
Cd2 Cd 0.0316 0.07654 0.37629 0.0
O3 O 0.05188 0.08857 0.3966 0.0
O4 O 0.99084 0.13007 0.39665 0.0
O5 O 0.00726 0.12265 0.36856 0.0
C6 C 0.99663 0.13535 0.37885 0.0
C7 C 0.04229 0.06433 0.34496 0.0
C8 C 0.04716 0.09924 0.41181 0.0
C9 C 0.99181 0.06262 0.39446 0.0
O10 O 0.00935 0.05843 0.388 0.0
O11 O 0.9863 0.08087 0.39631 0.0
O12 O 0.04821 0.05627 0.36157 0.0
O13 O 0.03125 0.08033 0.34604 0.0
O14 O 0.96404 0.3824 0.4063 0.0
Cd15 Cd 0.9853 0.37886 0.3839 0.0
Cd16 Cd 0.96414 0.41364 0.36837 0.0
O17 O 0.94522 0.40586 0.39196 0.0
O18 O 0.99679 0.35158 0.38878 0.0
O19 O 0.97977 0.35935 0.36122 0.0
C20 C 0.98923 0.346 0.37179 0.0
C21 C 0.95018 0.43147 0.34107 0.0
C22 C 0.94851 0.39364 0.40637 0.0
C23 C 0.00864 0.41697 0.38113 0.0
O24 O 0.9922 0.42494 0.37539 0.0
O25 O 0.00967 0.39817 0.38458 0.0
O26 O 0.95148 0.43917 0.35879 0.0
O27 O 0.95589 0.413 0.33887 0.0
O28 O 0.01765 0.89458 0.10553 0.0
Cd29 Cd 0.9967 0.89592 0.12846 0.0
Cd30 Cd 0.02388 0.92212 0.14398 0.0
O31 O 0.04225 0.90944 0.12219 0.0
O32 O 0.98024 0.87098 0.12644 0.0
O33 O 0.00075 0.8773 0.15203 0.0
C34 C 0.98841 0.86515 0.1431 0.0
C35 C 0.03691 0.93294 0.17488 0.0
C36 C 0.03597 0.90007 0.10668 0.0
C37 C 0.98355 0.9382 0.12955 0.0
O38 O 0.00177 0.94162 0.1343 0.0
O39 O 0.97723 0.92021 0.12796 0.0
O40 O 0.04229 0.94113 0.15814 0.0
O41 O 0.0251 0.91749 0.17407 0.0
O42 O 0.96766 0.61597 0.11294 0.0
Cd43 Cd 0.98704 0.6191 0.13692 0.0
Cd44 Cd 0.96223 0.58623 0.15192 0.0
O45 O 0.94572 0.59516 0.12692 0.0
O46 O 0.99991 0.64583 0.13275 0.0
O47 O 0.97981 0.6392 0.15854 0.0
C48 C 0.99065 0.65204 0.14867 0.0
C49 C 0.94525 0.56866 0.17751 0.0
C50 C 0.95112 0.60634 0.1123 0.0
C51 C 0.00772 0.58018 0.14372 0.0
O52 O 0.99036 0.57348 0.14819 0.0
O53 O 0.01025 0.5986 0.13918 0.0
O54 O 0.94742 0.56132 0.15973 0.0
O55 O 0.95162 0.58677 0.1806 0.0
O56 O 0.41069 0.02677 0.10283 0.0
Cd57 Cd 0.39067 0.00311 0.10481 0.0
Cd58 Cd 0.37262 0.02444 0.07257 0.0
O59 O 0.39336 0.04583 0.08173 0.0
O60 O 0.39619 0.99028 0.13135 0.0
O61 O 0.36732 0.0054 0.1242 0.0
C62 C 0.37852 0.99601 0.13708 0.0
C63 C 0.34275 0.03549 0.05713 0.0
C64 C 0.40849 0.0432 0.09322 0.0
C65 C 0.39089 0.98262 0.06516 0.0
O66 O 0.38336 0.99891 0.05846 0.0
O67 O 0.39411 0.98041 0.08389 0.0
O68 O 0.36009 0.03783 0.04879 0.0
O69 O 0.3423 0.02777 0.07499 0.0
O70 O 0.58742 0.50359 0.09238 0.0
Cd71 Cd 0.6074 0.52669 0.09764 0.0
Cd72 Cd 0.62744 0.5087 0.06474 0.0
O73 O 0.6053 0.48729 0.06955 0.0
O74 O 0.6006 0.53588 0.12527 0.0
O75 O 0.63013 0.5225 0.11732 0.0
C76 C 0.61817 0.52976 0.1309 0.0
C77 C 0.65783 0.49729 0.05055 0.0
C78 C 0.58978 0.48859 0.08074 0.0
C79 C 0.6104 0.55159 0.06079 0.0
O80 O 0.61881 0.53621 0.05306 0.0
O81 O 0.6051 0.55154 0.07919 0.0
O82 O 0.64123 0.49745 0.04056 0.0
O83 O 0.65721 0.50304 0.06912 0.0
O84 O 0.40975 0.97405 0.38453 0.0
Cd85 Cd 0.38531 0.99315 0.38296 0.0
Cd86 Cd 0.37137 0.967 0.4137 0.0
O87 O 0.39631 0.95074 0.40416 0.0
O88 O 0.38807 0.00732 0.3567 0.0
O89 O 0.36319 0.98611 0.36339 0.0
C90 C 0.37223 0.9978 0.35068 0.0
C91 C 0.34384 0.95017 0.4282 0.0
C92 C 0.41079 0.95701 0.39322 0.0
C93 C 0.38009 0.0115 0.42311 0.0
O94 O 0.37608 0.99368 0.42881 0.0
O95 O 0.38346 0.01531 0.40466 0.0
O96 O 0.36121 0.95063 0.43677 0.0
O97 O 0.34234 0.95808 0.41047 0.0
O98 O 0.60013 0.51385 0.39074 0.0
Cd99 Cd 0.61633 0.49133 0.37539 0.0
Cd100 Cd 0.63612 0.50491 0.4262 0.0
O101 O 0.61115 0.52301 0.42149 0.0
O102 O 0.6058 0.4891 0.34753 0.0
O103 O 0.63679 0.49951 0.35481 0.0
C104 C 0.62307 0.4958 0.34146 0.0
C105 C 0.65836 0.50906 0.45279 0.0
C106 C 0.5987 0.52446 0.40682 0.0
C107 C 0.62884 0.46707 0.40522 0.0
O108 O 0.63903 0.48323 0.40508 0.0
O109 O 0.61882 0.46352 0.38945 0.0
O110 O 0.64264 0.49765 0.45466 0.0
O111 O 0.66129 0.51808 0.43572 0.0
O112 O 0.10515 0.42169 0.0318 0.0
Cd113 Cd 0.10867 0.40293 0.00728 0.0
Cd114 Cd 0.07574 0.3833 0.02498 0.0
O115 O 0.08252 0.40331 0.04786 0.0
O116 O 0.13651 0.40747 0.99717 0.0
O117 O 0.12627 0.37831 0.00975 0.0
C118 C 0.14059 0.38911 0.00212 0.0
C119 C 0.06079 0.35259 0.03411 0.0
C120 C 0.09411 0.41855 0.04715 0.0
C121 C 0.07091 0.40338 0.98361 0.0
O122 O 0.06328 0.3945 0.99876 0.0
O123 O 0.08956 0.40767 0.98326 0.0
O124 O 0.05153 0.36949 0.03613 0.0
O125 O 0.07915 0.35306 0.02765 0.0
O126 O 0.10777 0.57451 0.49692 0.0
Cd127 Cd 0.11087 0.59525 0.51967 0.0
Cd128 Cd 0.07753 0.61312 0.50091 0.0
O129 O 0.08359 0.59032 0.48042 0.0
O130 O 0.13922 0.5931 0.52913 0.0
O131 O 0.12699 0.6203 0.51411 0.0
C132 C 0.1422 0.61093 0.52193 0.0
C133 C 0.06256 0.64269 0.48851 0.0
C134 C 0.0959 0.57568 0.48196 0.0
C135 C 0.07357 0.59705 0.54404 0.0
O136 O 0.06579 0.60535 0.52866 0.0
O137 O 0.09195 0.59169 0.54411 0.0
O138 O 0.05314 0.62577 0.48879 0.0
O139 O 0.08107 0.6428 0.49451 0.0
O140 O 0.89857 0.88927 0.50329 0.0
Cd141 Cd 0.89264 0.86714 0.52417 0.0
Cd142 Cd 0.92578 0.84779 0.50497 0.0
O143 O 0.92212 0.87268 0.48656 0.0
O144 O 0.8645 0.87153 0.53356 0.0
O145 O 0.87399 0.84456 0.5163 0.0
C146 C 0.85977 0.85479 0.52489 0.0
C147 C 0.94225 0.81986 0.49058 0.0
C148 C 0.91113 0.88824 0.48886 0.0
C149 C 0.92895 0.8607 0.54932 0.0
O150 O 0.93651 0.85284 0.5336 0.0
O151 O 0.91097 0.8673 0.54929 0.0
O152 O 0.95114 0.83684 0.49316 0.0
O153 O 0.92343 0.81877 0.49537 0.0
O154 O 0.38628 0.58694 0.52168 0.0
Cd155 Cd 0.38262 0.60693 0.49831 0.0
Cd156 Cd 0.41732 0.62566 0.51711 0.0
O157 O 0.41203 0.60187 0.53662 0.0
O158 O 0.35474 0.60223 0.48835 0.0
O159 O 0.36434 0.6308 0.50261 0.0
C160 C 0.35014 0.61997 0.49483 0.0
C161 C 0.43497 0.65341 0.53032 0.0
C162 C 0.39918 0.58767 0.53579 0.0
C163 C 0.41984 0.61031 0.47345 0.0
O164 O 0.4275 0.61924 0.48852 0.0
O165 O 0.40188 0.6037 0.47396 0.0
O166 O 0.44311 0.63595 0.52853 0.0
O167 O 0.41622 0.65513 0.52543 0.0
O168 O 0.49346 0.62229 0.89184 0.0
Cd169 Cd 0.47552 0.62175 0.86656 0.0
Cd170 Cd 0.50312 0.59451 0.85367 0.0
O171 O 0.51891 0.60602 0.87796 0.0
O172 O 0.46196 0.64839 0.86497 0.0
O173 O 0.48533 0.63832 0.84326 0.0
C174 C 0.47352 0.65239 0.84981 0.0
C175 C 0.52074 0.58262 0.82549 0.0
C176 C 0.51151 0.61592 0.89263 0.0
C177 C 0.46013 0.58058 0.86266 0.0
O178 O 0.47853 0.57641 0.85938 0.0
O179 O 0.45459 0.59879 0.86472 0.0
O180 O 0.52188 0.57384 0.84273 0.0
O181 O 0.51052 0.59916 0.82442 0.0
O182 O 0.5104 0.89443 0.89814 0.0
Cd183 Cd 0.52924 0.88864 0.87417 0.0
Cd184 Cd 0.50976 0.92116 0.85741 0.0
O185 O 0.49167 0.91703 0.88252 0.0
O186 O 0.53638 0.8596 0.87533 0.0
O187 O 0.51805 0.873 0.85081 0.0
C188 C 0.52597 0.8572 0.85907 0.0
C189 C 0.4952 0.93566 0.82865 0.0
C190 C 0.49534 0.90626 0.89795 0.0
C191 C 0.5548 0.92404 0.86761 0.0
O192 O 0.53846 0.93216 0.8618 0.0
O193 O 0.55516 0.90564 0.87286 0.0
O194 O 0.4973 0.94555 0.84517 0.0
O195 O 0.50044 0.91692 0.82863 0.0
O196 O 0.53612 0.39638 0.59648 0.0
Cd197 Cd 0.51301 0.38917 0.61582 0.0
Cd198 Cd 0.52586 0.42887 0.63334 0.0
O199 O 0.54491 0.42609 0.60876 0.0
O200 O 0.50598 0.36142 0.60709 0.0
O201 O 0.51709 0.36827 0.63769 0.0
C202 C 0.51111 0.35508 0.62469 0.0
C203 C 0.53687 0.45101 0.65871 0.0
C204 C 0.54695 0.41214 0.59577 0.0
C205 C 0.48218 0.42199 0.61951 0.0
O206 O 0.49544 0.43243 0.62848 0.0
O207 O 0.48626 0.40471 0.61238 0.0
O208 O 0.53213 0.45721 0.641 0.0
O209 O 0.53612 0.43187 0.66204 0.0
O210 O 0.49492 0.10593 0.58457 0.0
Cd211 Cd 0.51972 0.11095 0.60232 0.0
Cd212 Cd 0.50378 0.07629 0.62363 0.0
O213 O 0.48142 0.08123 0.60235 0.0
O214 O 0.52776 0.13907 0.59614 0.0
O215 O 0.51752 0.12931 0.62638 0.0
C216 C 0.52334 0.14364 0.61452 0.0
C217 C 0.49375 0.05756 0.652 0.0
C218 C 0.48085 0.09329 0.58745 0.0
C219 C 0.54593 0.07505 0.60372 0.0
O220 O 0.53198 0.06715 0.61419 0.0
O221 O 0.54428 0.09283 0.59687 0.0
O222 O 0.49461 0.04976 0.63432 0.0
O223 O 0.49792 0.07647 0.65369 0.0
O224 O 0.89315 0.50066 0.62241 0.0
Cd225 Cd 0.86924 0.48103 0.62491 0.0
Cd226 Cd 0.85259 0.50435 0.59596 0.0
O227 O 0.87804 0.52157 0.60132 0.0
O228 O 0.86874 0.46998 0.65279 0.0
O229 O 0.84578 0.49127 0.64093 0.0
C230 C 0.85298 0.48101 0.65587 0.0
C231 C 0.82165 0.51907 0.58754 0.0
C232 C 0.89321 0.51678 0.61205 0.0
C233 C 0.86258 0.46084 0.58579 0.0
O234 O 0.85678 0.47816 0.5801 0.0
O235 O 0.86783 0.45787 0.60398 0.0
O236 O 0.83715 0.52054 0.57596 0.0
O237 O 0.82404 0.51041 0.60481 0.0
O238 O 0.11052 0.96859 0.60865 0.0
Cd239 Cd 0.13294 0.9898 0.61231 0.0
Cd240 Cd 0.1476 0.96795 0.57615 0.0
O241 O 0.12296 0.95039 0.58365 0.0
O242 O 0.12609 0.00161 0.63905 0.0
O243 O 0.15441 0.98503 0.63344 0.0
C244 C 0.14272 0.99433 0.64594 0.0
C245 C 0.17383 0.95273 0.55772 0.0
C246 C 0.10932 0.95365 0.59673 0.0
C247 C 0.13713 0.01324 0.57401 0.0
O248 O 0.1424 0.99674 0.56585 0.0
O249 O 0.13317 0.01408 0.59274 0.0
O250 O 0.15616 0.95534 0.55022 0.0
O251 O 0.17653 0.95786 0.57628 0.0
O252 O 0.90388 0.51605 0.8923 0.0
Cd253 Cd 0.87853 0.53375 0.88981 0.0
Cd254 Cd 0.86351 0.50918 0.91969 0.0
O255 O 0.88943 0.49351 0.91207 0.0
O256 O 0.87501 0.54267 0.86143 0.0
O257 O 0.85489 0.52058 0.87658 0.0
C258 C 0.86 0.53029 0.86044 0.0
C259 C 0.83672 0.4915 0.93436 0.0
C260 C 0.90449 0.49937 0.90171 0.0
C261 C 0.87053 0.55421 0.928 0.0
O262 O 0.86598 0.53661 0.93391 0.0
O263 O 0.87585 0.55735 0.90989 0.0
O264 O 0.85384 0.49332 0.94323 0.0
O265 O 0.83514 0.49851 0.91627 0.0
O266 O 0.09601 0.00649 0.89401 0.0
Cd267 Cd 0.118 0.98486 0.89081 0.0
Cd268 Cd 0.13653 0.00749 0.92233 0.0
O269 O 0.11245 0.02614 0.91525 0.0
O270 O 0.11489 0.97349 0.86326 0.0
O271 O 0.1416 0.99109 0.87281 0.0
C272 C 0.13198 0.98162 0.85875 0.0
C273 C 0.16478 0.02244 0.93751 0.0
C274 C 0.09715 0.02263 0.90424 0.0
C275 C 0.1238 0.96323 0.9292 0.0
O276 O 0.13105 0.97981 0.93539 0.0
O277 O 0.11764 0.96138 0.91118 0.0
O278 O 0.14768 0.02128 0.94656 0.0
O279 O 0.16573 0.01603 0.91917 0.0
O280 O 0.6132 0.88817 0.5076 0.0
Cd281 Cd 0.61689 0.86496 0.48733 0.0
Cd282 Cd 0.58123 0.85093 0.50705 0.0
O283 O 0.58679 0.87631 0.52414 0.0
O284 O 0.64501 0.86807 0.47735 0.0
O285 O 0.63501 0.84195 0.49551 0.0
C286 C 0.64942 0.85153 0.48654 0.0
C287 C 0.56404 0.82399 0.52229 0.0
C288 C 0.60015 0.8898 0.52152 0.0
C289 C 0.57995 0.86132 0.46206 0.0
O290 O 0.5713 0.85555 0.47813 0.0
O291 O 0.59864 0.86553 0.462 0.0
O292 O 0.55554 0.84112 0.51917 0.0
O293 O 0.58285 0.82228 0.51762 0.0
O294 O 0.61285 0.10336 0.97667 0.0
Cd295 Cd 0.61523 0.12753 0.99595 0.0
Cd296 Cd 0.58059 0.14093 0.9722 0.0
O297 O 0.58823 0.11462 0.95722 0.0
O298 O 0.64264 0.12514 0.00783 0.0
O299 O 0.63356 0.15045 0.98811 0.0
C300 C 0.64742 0.14149 0.99847 0.0
C301 C 0.56238 0.16547 0.95435 0.0
C302 C 0.60119 0.10117 0.96164 0.0
C303 C 0.57696 0.13453 0.01815 0.0
O304 O 0.56961 0.13929 0.00114 0.0
O305 O 0.59524 0.12909 0.0198 0.0
O306 O 0.55489 0.14808 0.95839 0.0
O307 O 0.5809 0.16868 0.95937 0.0
O308 O 0.38643 0.40116 0.96489 0.0
Cd309 Cd 0.38491 0.38017 0.98771 0.0
Cd310 Cd 0.41716 0.36341 0.96395 0.0
O311 O 0.40853 0.38646 0.94475 0.0
O312 O 0.35922 0.38702 0.00161 0.0
O313 O 0.36404 0.35805 0.98593 0.0
C314 C 0.35216 0.3699 0.99583 0.0
C315 C 0.43215 0.33434 0.95032 0.0
C316 C 0.39643 0.40085 0.94854 0.0
C317 C 0.4252 0.37829 0.00709 0.0
O318 O 0.43135 0.37147 0.9903 0.0
O319 O 0.40666 0.38219 0.00986 0.0
O320 O 0.44078 0.35166 0.94952 0.0
O321 O 0.41422 0.33356 0.95788 0.0
O322 O 0.89481 0.10597 0.01191 0.0
Cd323 Cd 0.89023 0.12601 0.98866 0.0
Cd324 Cd 0.92332 0.14651 0.00774 0.0
O325 O 0.91803 0.12349 0.02806 0.0
O326 O 0.86238 0.12105 0.9788 0.0
O327 O 0.87183 0.14975 0.99294 0.0
C328 C 0.85772 0.13886 0.98505 0.0
C329 C 0.94064 0.17462 0.02065 0.0
C330 C 0.90667 0.10811 0.02678 0.0
C331 C 0.92744 0.13007 0.96439 0.0
O332 O 0.93447 0.13908 0.97973 0.0
O333 O 0.90946 0.12351 0.96434 0.0
O334 O 0.94894 0.15722 0.01915 0.0
O335 O 0.92194 0.17613 0.01552 0.0
H336 H 0.11709 0.04847 0.58281 0.0
H337 H 0.10658 0.07448 0.55873 0.0
H338 H 0.13884 0.0437 0.51137 0.0
H339 H 0.14965 0.01805 0.53522 0.0
H340 H 0.1402 0.08391 0.50561 0.0
H341 H 0.08933 0.03301 0.52105 0.0
H342 H 0.06662 0.0143 0.54382 0.0
H343 H 0.03829 0.06971 0.56165 0.0
H344 H 0.06102 0.08876 0.53912 0.0
H345 H 0.08465 0.08236 0.4155 0.0
H346 H 0.10449 0.07935 0.44623 0.0
H347 H 0.06204 0.11734 0.47763 0.0
H348 H 0.04186 0.12018 0.44698 0.0
H349 H 0.06605 0.08264 0.49616 0.0
H350 H 0.11189 0.13173 0.47205 0.0
H351 H 0.13416 0.14883 0.4477 0.0
H352 H 0.17179 0.09626 0.44458 0.0
H353 H 0.1496 0.0787 0.46868 0.0
C354 C 0.12237 0.04755 0.56738 0.0
C355 C 0.13388 0.03099 0.56085 0.0
C356 C 0.11632 0.06239 0.55363 0.0
C357 C 0.12164 0.06082 0.53317 0.0
C358 C 0.13451 0.04522 0.52705 0.0
C359 C 0.14055 0.03045 0.54072 0.0
C360 C 0.11187 0.07352 0.51756 0.0
C361 C 0.12398 0.08377 0.50354 0.0
C362 C 0.09067 0.07373 0.51515 0.0
C363 C 0.07703 0.06231 0.52865 0.0
C364 C 0.07835 0.0412 0.52995 0.0
C365 C 0.06547 0.03054 0.54278 0.0
C366 C 0.05107 0.04082 0.55423 0.0
C367 C 0.04949 0.06178 0.55282 0.0
C368 C 0.06236 0.07251 0.54003 0.0
C369 C 0.07979 0.09055 0.42876 0.0
C370 C 0.06148 0.10126 0.42883 0.0
C371 C 0.09126 0.08892 0.44634 0.0
C372 C 0.08478 0.09813 0.46428 0.0
C373 C 0.06731 0.11008 0.46398 0.0
C374 C 0.0558 0.11168 0.44642 0.0
C375 C 0.09439 0.09261 0.48373 0.0
C376 C 0.08222 0.08353 0.49848 0.0
C377 C 0.11552 0.09337 0.48664 0.0
C378 C 0.129 0.10386 0.47215 0.0
C379 C 0.12483 0.12375 0.46608 0.0
C380 C 0.13746 0.13354 0.45233 0.0
C381 C 0.15436 0.12363 0.44458 0.0
C382 C 0.15869 0.10392 0.4506 0.0
C383 C 0.14611 0.09406 0.46434 0.0
H384 H 0.16412 0.13124 0.43394 0.0
H385 H 0.0411 0.03254 0.56415 0.0
H386 H 0.95472 0.37525 0.44281 0.0
H387 H 0.93549 0.38007 0.4738 0.0
H388 H 0.89285 0.41724 0.44169 0.0
H389 H 0.9123 0.41294 0.41073 0.0
H390 H 0.90609 0.43613 0.47343 0.0
H391 H 0.88032 0.36987 0.4613 0.0
H392 H 0.88217 0.33346 0.45411 0.0
H393 H 0.91515 0.32392 0.50896 0.0
H394 H 0.91375 0.36032 0.51635 0.0
H395 H 0.84142 0.45673 0.55113 0.0
H396 H 0.85153 0.43754 0.52145 0.0
H397 H 0.90048 0.41101 0.555 0.0
H398 H 0.8902 0.43007 0.58503 0.0
H399 H 0.88306 0.38513 0.52313 0.0
H400 H 0.91128 0.45156 0.5333 0.0
H401 H 0.90893 0.48787 0.54091 0.0
H402 H 0.87118 0.49664 0.48908 0.0
H403 H 0.87303 0.46029 0.48137 0.0
C404 C 0.94104 0.38415 0.44222 0.0
C405 C 0.93516 0.39388 0.4243 0.0
C406 C 0.92997 0.38679 0.45998 0.0
C407 C 0.91266 0.39898 0.4601 0.0
C408 C 0.90619 0.40782 0.44198 0.0
C409 C 0.91733 0.40533 0.42427 0.0
C410 C 0.90264 0.40437 0.4794 0.0
C411 C 0.90074 0.4249 0.48406 0.0
C412 C 0.89624 0.38978 0.49366 0.0
C413 C 0.89708 0.36787 0.48928 0.0
C414 C 0.88811 0.36004 0.47175 0.0
C415 C 0.88905 0.33939 0.46765 0.0
C416 C 0.89882 0.32639 0.48104 0.0
C417 C 0.90761 0.33401 0.49859 0.0
C418 C 0.90673 0.35464 0.50275 0.0
C419 C 0.85392 0.44629 0.55241 0.0
C420 C 0.86525 0.44513 0.57026 0.0
C421 C 0.85965 0.4353 0.53545 0.0
C422 C 0.87696 0.42319 0.53596 0.0
C423 C 0.88707 0.42032 0.55434 0.0
C424 C 0.8812 0.43122 0.57146 0.0
C425 C 0.88634 0.41675 0.51675 0.0
C426 C 0.88829 0.39619 0.51228 0.0
C427 C 0.89287 0.43126 0.50255 0.0
C428 C 0.89213 0.45319 0.50688 0.0
C429 C 0.90237 0.46122 0.5236 0.0
C430 C 0.90114 0.4818 0.52793 0.0
C431 C 0.88987 0.49454 0.51551 0.0
C432 C 0.87988 0.48674 0.4987 0.0
C433 C 0.88102 0.46616 0.49434 0.0
H434 H 0.88892 0.51047 0.51889 0.0
H435 H 0.89953 0.31041 0.47785 0.0
H436 H 0.02596 0.88654 0.06904 0.0
H437 H 0.04624 0.88891 0.03847 0.0
H438 H 0.0966 0.91064 0.07337 0.0
H439 H 0.07624 0.90878 0.104 0.0
H440 H 0.08818 0.93571 0.04423 0.0
H441 H 0.09785 0.86455 0.04799 0.0
H442 H 0.08784 0.82893 0.05143 0.0
H443 H 0.05245 0.83334 0.99745 0.0
H444 H 0.06201 0.86907 0.99382 0.0
H445 H 0.14733 0.95439 0.96142 0.0
H446 H 0.13769 0.93438 0.99078 0.0
H447 H 0.0828 0.91665 0.9608 0.0
H448 H 0.09277 0.93616 0.93101 0.0
H449 H 0.09655 0.88718 0.98793 0.0
H450 H 0.08267 0.95875 0.9873 0.0
H451 H 0.09205 0.9945 0.98331 0.0
H452 H 0.13447 0.98906 0.03189 0.0
H453 H 0.12554 0.95317 0.03594 0.0
C454 C 0.0415 0.89139 0.07032 0.0
C455 C 0.04939 0.89773 0.08896 0.0
C456 C 0.05314 0.89261 0.05279 0.0
C457 C 0.07298 0.89993 0.05359 0.0
C458 C 0.08131 0.905 0.07238 0.0
C459 C 0.06964 0.90391 0.08989 0.0
C460 C 0.08396 0.90494 0.03471 0.0
C461 C 0.09043 0.9249 0.03216 0.0
C462 C 0.0863 0.89107 0.01863 0.0
C463 C 0.08054 0.86956 0.02072 0.0
C464 C 0.0878 0.85798 0.03694 0.0
C465 C 0.08224 0.83775 0.0389 0.0
C466 C 0.06949 0.82889 0.02469 0.0
C467 C 0.06232 0.84022 0.00845 0.0
C468 C 0.06783 0.86046 0.00642 0.0
C469 C 0.13355 0.94564 0.96082 0.0
C470 C 0.12063 0.94704 0.94411 0.0
C471 C 0.12806 0.93422 0.97759 0.0
C472 C 0.1093 0.92447 0.97815 0.0
C473 C 0.09731 0.92414 0.9607 0.0
C474 C 0.103 0.93531 0.9437 0.0
C475 C 0.10082 0.91779 0.99773 0.0
C476 C 0.09462 0.89773 1.00026 0.0
C477 C 0.09855 0.93156 0.01388 0.0
C478 C 0.10359 0.95325 0.01178 0.0
C479 C 0.09407 0.96516 0.99706 0.0
C480 C 0.0993 0.98544 0.99478 0.0
C481 C 0.11389 0.99403 0.0073 0.0
C482 C 0.1232 0.98238 0.02218 0.0
C483 C 0.11805 0.96207 0.02448 0.0
H484 H 0.11794 0.00973 0.00551 0.0
H485 H 0.06519 0.81323 0.02624 0.0
H486 H 0.96188 0.62092 0.07531 0.0
H487 H 0.94268 0.6192 0.04407 0.0
H488 H 0.89271 0.59253 0.07612 0.0
H489 H 0.9122 0.5935 0.10737 0.0
H490 H 0.90016 0.57158 0.04453 0.0
H491 H 0.8914 0.64199 0.05576 0.0
H492 H 0.90199 0.67678 0.06338 0.0
H493 H 0.9382 0.67789 0.00972 0.0
H494 H 0.92808 0.643 0.00192 0.0
H495 H 0.84432 0.56123 0.95852 0.0
H496 H 0.8519 0.57923 0.98971 0.0
H497 H 0.9083 0.5994 0.96435 0.0
H498 H 0.90032 0.58207 0.93272 0.0
H499 H 0.89351 0.62602 0.99361 0.0
H500 H 0.90613 0.55414 0.98608 0.0
H501 H 0.89523 0.51956 0.97788 0.0
H502 H 0.85132 0.52179 0.02541 0.0
H503 H 0.86165 0.55658 0.03358 0.0
C504 C 0.9467 0.61494 0.07579 0.0
C505 C 0.93861 0.60725 0.09383 0.0
C506 C 0.93565 0.6141 0.0579 0.0
C507 C 0.9161 0.60596 0.05772 0.0
C508 C 0.90775 0.59889 0.07586 0.0
C509 C 0.9189 0.59946 0.09372 0.0
C510 C 0.90521 0.6031 0.03834 0.0
C511 C 0.8983 0.58366 0.03366 0.0
C512 C 0.90315 0.61869 0.02385 0.0
C513 C 0.90907 0.6398 0.02833 0.0
C514 C 0.90172 0.6496 0.04564 0.0
C515 C 0.90763 0.66935 0.04999 0.0
C516 C 0.92079 0.67952 0.03706 0.0
C517 C 0.92801 0.66999 0.01972 0.0
C518 C 0.92217 0.65023 0.01532 0.0
C519 C 0.8579 0.57029 0.95929 0.0
C520 C 0.87188 0.57013 0.94338 0.0
C521 C 0.86224 0.58052 0.97712 0.0
C522 C 0.88092 0.59014 0.97952 0.0
C523 C 0.89384 0.59197 0.96283 0.0
C524 C 0.88928 0.58208 0.94476 0.0
C525 C 0.88857 0.59463 1.00004 0.0
C526 C 0.89503 0.61419 0.00479 0.0
C527 C 0.89023 0.57919 0.0147 0.0
C528 C 0.88454 0.558 0.01032 0.0
C529 C 0.89411 0.54727 0.99473 0.0
C530 C 0.888 0.52766 0.99006 0.0
C531 C 0.87253 0.51851 0.00107 0.0
C532 C 0.86324 0.52892 0.01685 0.0
C533 C 0.86921 0.54859 0.02151 0.0
H534 H 0.86778 0.50335 0.99739 0.0
H535 H 0.92537 0.6948 0.04047 0.0
H536 H 0.44706 0.03848 0.10677 0.0
H537 H 0.47527 0.06141 0.10193 0.0
H538 H 0.43509 0.10563 0.07614 0.0
H539 H 0.40685 0.08232 0.08019 0.0
H540 H 0.46441 0.10016 0.05213 0.0
H541 H 0.46137 0.11314 0.12238 0.0
H542 H 0.45923 0.10535 0.15866 0.0
H543 H 0.51578 0.07398 0.1556 0.0
H544 H 0.51814 0.08131 0.11924 0.0
H545 H 0.54546 0.15929 0.02636 0.0
H546 H 0.51694 0.15171 0.0484 0.0
H547 H 0.54754 0.09839 0.06966 0.0
H548 H 0.57653 0.10641 0.04818 0.0
H549 H 0.52136 0.11411 0.09854 0.0
H550 H 0.5199 0.09632 0.02711 0.0
H551 H 0.5224 0.10494 0.99101 0.0
H552 H 0.47313 0.14649 0.99722 0.0
H553 H 0.47063 0.13841 0.03347 0.0
C554 C 0.44411 0.05325 0.10047 0.0
C555 C 0.42473 0.05849 0.09367 0.0
C556 C 0.46029 0.06646 0.09784 0.0
C557 C 0.45737 0.08537 0.08877 0.0
C558 C 0.43777 0.09111 0.08312 0.0
C559 C 0.42162 0.07778 0.08546 0.0
C560 C 0.47501 0.09786 0.0828 0.0
C561 C 0.47656 0.10366 0.0625 0.0
C562 C 0.49117 0.10211 0.09612 0.0
C563 C 0.48986 0.09768 0.11802 0.0
C564 C 0.47329 0.10445 0.1294 0.0
C565 C 0.47205 0.10014 0.15 0.0
C566 C 0.48734 0.08915 0.15942 0.0
C567 C 0.50394 0.08249 0.14828 0.0
C568 C 0.50525 0.08675 0.12768 0.0
C569 C 0.54643 0.14639 0.03634 0.0
C570 C 0.56301 0.13324 0.03539 0.0
C571 C 0.53013 0.14207 0.04891 0.0
C572 C 0.52991 0.12418 0.06021 0.0
C573 C 0.54737 0.11222 0.06096 0.0
C574 C 0.56392 0.11679 0.04867 0.0
C575 C 0.51058 0.11612 0.06804 0.0
C576 C 0.50886 0.11101 0.08849 0.0
C577 C 0.49412 0.11254 0.05493 0.0
C578 C 0.4952 0.1169 0.03301 0.0
C579 C 0.50965 0.10735 0.02078 0.0
C580 C 0.51109 0.11217 1.00031 0.0
C581 C 0.49798 0.12632 0.99185 0.0
C582 C 0.48333 0.13559 0.00381 0.0
C583 C 0.48189 0.13091 0.02432 0.0
H584 H 0.49915 0.13007 0.97601 0.0
H585 H 0.48635 0.08582 0.17537 0.0
H586 H 0.55211 0.4896 0.09764 0.0
H587 H 0.52401 0.46682 0.09096 0.0
H588 H 0.56251 0.4303 0.05333 0.0
H589 H 0.59059 0.45324 0.05957 0.0
H590 H 0.52936 0.44035 0.03404 0.0
H591 H 0.54432 0.41349 0.09953 0.0
H592 H 0.55055 0.41491 0.13614 0.0
H593 H 0.49126 0.43912 0.14566 0.0
H594 H 0.48477 0.43811 0.10907 0.0
H595 H 0.46354 0.36416 0.01015 0.0
H596 H 0.49102 0.37907 0.0294 0.0
H597 H 0.44932 0.42035 0.05737 0.0
H598 H 0.42151 0.40535 0.03818 0.0
H599 H 0.48323 0.4075 0.08299 0.0
H600 H 0.46928 0.43651 0.01782 0.0
H601 H 0.46259 0.43498 0.9813 0.0
H602 H 0.52028 0.40726 0.97154 0.0
H603 H 0.52715 0.40827 0.00809 0.0
C604 C 0.55472 0.47653 0.08821 0.0
C605 C 0.57357 0.47334 0.07899 0.0
C606 C 0.53863 0.46345 0.0845 0.0
C607 C 0.54116 0.4468 0.0717 0.0
C608 C 0.56021 0.44309 0.06322 0.0
C609 C 0.57625 0.45621 0.06681 0.0
C610 C 0.52358 0.43446 0.06548 0.0
C611 C 0.51953 0.43289 0.04479 0.0
C612 C 0.51029 0.42533 0.07951 0.0
C613 C 0.51413 0.42589 0.10153 0.0
C614 C 0.53267 0.41927 0.10941 0.0
C615 C 0.53623 0.41997 0.13016 0.0
C616 C 0.52133 0.42714 0.14321 0.0
C617 C 0.5028 0.43358 0.13554 0.0
C618 C 0.49916 0.43293 0.11479 0.0
C619 C 0.46007 0.37604 0.0208 0.0
C620 C 0.44042 0.38385 0.02237 0.0
C621 C 0.4758 0.38449 0.03183 0.0
C622 C 0.47221 0.40102 0.0445 0.0
C623 C 0.45234 0.40761 0.04763 0.0
C624 C 0.43649 0.39904 0.03663 0.0
C625 C 0.48945 0.41319 0.05167 0.0
C626 C 0.49326 0.41488 0.07239 0.0
C627 C 0.50257 0.42258 0.03773 0.0
C628 C 0.49864 0.42228 0.01571 0.0
C629 C 0.48047 0.42995 0.00791 0.0
C630 C 0.47665 0.4292 0.9872 0.0
C631 C 0.49098 0.421 0.97411 0.0
C632 C 0.50918 0.41358 0.9817 0.0
C633 C 0.51305 0.41425 0.00241 0.0
H634 H 0.488 0.42042 0.95808 0.0
H635 H 0.52412 0.42768 0.15928 0.0
H636 H 0.58768 0.88727 0.43075 0.0
H637 H 0.56253 0.9014 0.40765 0.0
H638 H 0.51788 0.86037 0.43116 0.0
H639 H 0.54286 0.84603 0.45388 0.0
H640 H 0.51039 0.86869 0.39203 0.0
H641 H 0.52585 0.90576 0.45355 0.0
H642 H 0.54869 0.9238 0.47667 0.0
H643 H 0.56317 0.96609 0.42983 0.0
H644 H 0.54059 0.9481 0.40635 0.0
H645 H 0.41768 0.91874 0.40709 0.0
H646 H 0.44978 0.90071 0.40804 0.0
H647 H 0.47875 0.95016 0.37735 0.0
H648 H 0.4467 0.96834 0.3763 0.0
H649 H 0.49808 0.93971 0.41197 0.0
H650 H 0.47446 0.90604 0.35345 0.0
H651 H 0.45026 0.88764 0.33213 0.0
H652 H 0.44959 0.83872 0.37451 0.0
H653 H 0.47356 0.85695 0.39626 0.0
C654 C 0.57271 0.88076 0.43043 0.0
C655 C 0.56712 0.86582 0.4444 0.0
C656 C 0.55833 0.88891 0.4173 0.0
C657 C 0.53822 0.88226 0.41805 0.0
C658 C 0.53326 0.86584 0.43039 0.0
C659 C 0.54756 0.85772 0.44348 0.0
C660 C 0.52168 0.8941 0.40873 0.0
C661 C 0.50771 0.88425 0.39626 0.0
C662 C 0.51837 0.91452 0.414 0.0
C663 C 0.53176 0.92545 0.42814 0.0
C664 C 0.53401 0.91884 0.44816 0.0
C665 C 0.54689 0.92905 0.46133 0.0
C666 C 0.55743 0.94605 0.4547 0.0
C667 C 0.55504 0.95289 0.43492 0.0
C668 C 0.54221 0.94269 0.42167 0.0
C669 C 0.43079 0.92567 0.40025 0.0
C670 C 0.42962 0.94505 0.39174 0.0
C671 C 0.44912 0.91528 0.40069 0.0
C672 C 0.46663 0.92405 0.39265 0.0
C673 C 0.4654 0.9431 0.38357 0.0
C674 C 0.44704 0.95345 0.38298 0.0
C675 C 0.48647 0.91416 0.39565 0.0
C676 C 0.50101 0.92437 0.4071 0.0
C677 C 0.49013 0.89404 0.38961 0.0
C678 C 0.47575 0.88294 0.37655 0.0
C679 C 0.46905 0.89143 0.35831 0.0
C680 C 0.45538 0.88101 0.34613 0.0
C681 C 0.44837 0.86204 0.35197 0.0
C682 C 0.45504 0.85342 0.37 0.0
C683 C 0.4687 0.86378 0.38225 0.0
H684 H 0.43779 0.854 0.34252 0.0
H685 H 0.5674 0.95394 0.46492 0.0
H686 H 0.44543 0.63551 0.45393 0.0
H687 H 0.47413 0.62563 0.43301 0.0
H688 H 0.45513 0.56347 0.43681 0.0
H689 H 0.42569 0.57366 0.45638 0.0
H690 H 0.50309 0.60688 0.44564 0.0
H691 H 0.47747 0.53303 0.40438 0.0
H692 H 0.44836 0.52094 0.38471 0.0
H693 H 0.43218 0.58194 0.37038 0.0
H694 H 0.46135 0.59441 0.38971 0.0
H695 H 0.58167 0.53772 0.4418 0.0
H696 H 0.55039 0.55651 0.44582 0.0
H697 H 0.54408 0.56023 0.38116 0.0
H698 H 0.57501 0.54051 0.37707 0.0
H699 H 0.50975 0.55184 0.39559 0.0
H700 H 0.55713 0.60245 0.41114 0.0
H701 H 0.58686 0.61807 0.42702 0.0
H702 H 0.56012 0.61035 0.48547 0.0
H703 H 0.53034 0.59441 0.46998 0.0
C704 C 0.44696 0.61988 0.44945 0.0
C705 C 0.43337 0.60534 0.45658 0.0
C706 C 0.46346 0.61419 0.43766 0.0
C707 C 0.46702 0.59375 0.43333 0.0
C708 C 0.45264 0.57938 0.43944 0.0
C709 C 0.43577 0.58519 0.4507 0.0
C710 C 0.48701 0.5872 0.42535 0.0
C711 C 0.50446 0.59503 0.43448 0.0
C712 C 0.48908 0.57208 0.41041 0.0
C713 C 0.47156 0.56466 0.39863 0.0
C714 C 0.46778 0.54387 0.39694 0.0
C715 C 0.45124 0.53695 0.38587 0.0
C716 C 0.43841 0.55066 0.37634 0.0
C717 C 0.4421 0.57133 0.37783 0.0
C718 C 0.45861 0.57834 0.38887 0.0
C719 C 0.5738 0.54277 0.42842 0.0
C720 C 0.58089 0.53771 0.40912 0.0
C721 C 0.5559 0.5536 0.43073 0.0
C722 C 0.54496 0.56013 0.41379 0.0
C723 C 0.55221 0.55539 0.39447 0.0
C724 C 0.56995 0.5442 0.39215 0.0
C725 C 0.52554 0.57108 0.41644 0.0
C726 C 0.50828 0.56401 0.4064 0.0
C727 C 0.52367 0.58748 0.42994 0.0
C728 C 0.54153 0.59713 0.43938 0.0
C729 C 0.55764 0.60397 0.42739 0.0
C730 C 0.5745 0.6129 0.43632 0.0
C731 C 0.57539 0.61518 0.45724 0.0
C732 C 0.5594 0.60857 0.46927 0.0
C733 C 0.54251 0.59962 0.46042 0.0
H734 H 0.58846 0.62209 0.46412 0.0
H735 H 0.42561 0.54527 0.36779 0.0
H736 H 0.10636 0.4578 0.04557 0.0
H737 H 0.09873 0.48436 0.06972 0.0
H738 H 0.07199 0.44055 0.10974 0.0
H739 H 0.07884 0.41399 0.08517 0.0
H740 H 0.04698 0.46893 0.10424 0.0
H741 H 0.11623 0.46841 0.12195 0.0
H742 H 0.15301 0.46841 0.11664 0.0
H743 H 0.14929 0.5265 0.08835 0.0
H744 H 0.11243 0.52674 0.09321 0.0
H745 H 0.01345 0.54612 0.16574 0.0
H746 H 0.03617 0.51825 0.15771 0.0
H747 H 0.06141 0.55286 0.10874 0.0
H748 H 0.03932 0.58117 0.11734 0.0
H749 H 0.08938 0.52704 0.12458 0.0
H750 H 0.01946 0.52299 0.10141 0.0
H751 H 0.98273 0.52313 0.10741 0.0
H752 H 0.98874 0.47252 0.14733 0.0
H753 H 0.02555 0.47225 0.14172 0.0
C754 C 0.09927 0.45372 0.05971 0.0
C755 C 0.09301 0.43382 0.06337 0.0
C756 C 0.09503 0.46895 0.07362 0.0
C757 C 0.08486 0.46451 0.09167 0.0
C758 C 0.07978 0.44439 0.0959 0.0
C759 C 0.08372 0.42921 0.08185 0.0
C760 C 0.07715 0.48108 0.10468 0.0
C761 C 0.05645 0.48132 0.10913 0.0
C762 C 0.08931 0.49755 0.11077 0.0
C763 C 0.11151 0.49753 0.10785 0.0
C764 C 0.12322 0.48113 0.11446 0.0
C765 C 0.1441 0.4811 0.11155 0.0
C766 C 0.15348 0.49743 0.10213 0.0
C767 C 0.142 0.51385 0.09564 0.0
C768 C 0.12111 0.51396 0.0985 0.0
C769 C 0.0243 0.548 0.15366 0.0
C770 C 0.02444 0.56564 0.14193 0.0
C771 C 0.03725 0.53208 0.14908 0.0
C772 C 0.05006 0.53327 0.13226 0.0
C773 C 0.05156 0.55157 0.12171 0.0
C774 C 0.03891 0.56773 0.1266 0.0
C775 C 0.05937 0.51478 0.1238 0.0
C776 C 0.08019 0.51429 0.12008 0.0
C777 C 0.04741 0.49794 0.11842 0.0
C778 C 0.02523 0.4977 0.12127 0.0
C779 C 0.01293 0.51192 0.11148 0.0
C780 C 0.99212 0.51204 0.11483 0.0
C781 C 0.98342 0.49787 0.12778 0.0
C782 C 0.9955 0.48349 0.13732 0.0
C783 C 0.01633 0.48334 0.13405 0.0
H784 H 0.96731 0.49802 0.13039 0.0
H785 H 0.16964 0.49737 0.09989 0.0
H786 H 0.01289 0.45647 0.37089 0.0
H787 H 0.03771 0.48017 0.38354 0.0
H788 H 0.0685 0.43188 0.41439 0.0
H789 H 0.04327 0.40792 0.40201 0.0
H790 H 0.05995 0.46113 0.43955 0.0
H791 H 0.09213 0.45877 0.37614 0.0
H792 H 0.09526 0.45851 0.33912 0.0
H793 H 0.07084 0.51838 0.33626 0.0
H794 H 0.06726 0.51891 0.37325 0.0
H795 H 0.11681 0.54008 0.48288 0.0
H796 H 0.11162 0.51062 0.4614 0.0
H797 H 0.06796 0.54371 0.4264 0.0
H798 H 0.07309 0.57328 0.44768 0.0
H799 H 0.09167 0.51803 0.40278 0.0
H800 H 0.05237 0.51585 0.46491 0.0
H801 H 0.0485 0.51606 0.5019 0.0
H802 H 0.08662 0.46392 0.50649 0.0
H803 H 0.09092 0.46359 0.46951 0.0
C804 C 0.02516 0.45074 0.38001 0.0
C805 C 0.02595 0.43032 0.38564 0.0
C806 C 0.0395 0.46434 0.3871 0.0
C807 C 0.05509 0.45783 0.39983 0.0
C808 C 0.05663 0.43723 0.40454 0.0
C809 C 0.04223 0.42355 0.39741 0.0
C810 C 0.06775 0.47301 0.41031 0.0
C811 C 0.06744 0.47322 0.43146 0.0
C812 C 0.07723 0.48901 0.39981 0.0
C813 C 0.07936 0.48884 0.37751 0.0
C814 C 0.08729 0.47184 0.36762 0.0
C815 C 0.08917 0.47165 0.34663 0.0
C816 C 0.08323 0.48841 0.33534 0.0
C817 C 0.07544 0.50541 0.34503 0.0
C818 C 0.07353 0.50568 0.36602 0.0
C819 C 0.10638 0.54125 0.47038 0.0
C820 C 0.09513 0.55897 0.46718 0.0
C821 C 0.10345 0.52438 0.45812 0.0
C822 C 0.08923 0.52493 0.44248 0.0
C823 C 0.07901 0.54299 0.4384 0.0
C824 C 0.08187 0.55984 0.45067 0.0
C825 C 0.08326 0.50627 0.43181 0.0
C826 C 0.08475 0.50553 0.41074 0.0
C827 C 0.07486 0.48972 0.44233 0.0
C828 C 0.07218 0.48985 0.46451 0.0
C829 C 0.06005 0.50453 0.47384 0.0
C830 C 0.05776 0.50466 0.49478 0.0
C831 C 0.06737 0.49006 0.50654 0.0
C832 C 0.07923 0.47526 0.49736 0.0
C833 C 0.0816 0.47509 0.47642 0.0
H834 H 0.06557 0.49018 0.52276 0.0
H835 H 0.0847 0.48824 0.3191 0.0
H836 H 0.89088 0.92433 0.4892 0.0
H837 H 0.90003 0.95517 0.47111 0.0
H838 H 0.94849 0.92352 0.44147 0.0
H839 H 0.93956 0.89273 0.45941 0.0
H840 H 0.96099 0.95786 0.46071 0.0
H841 H 0.90785 0.93775 0.41534 0.0
H842 H 0.87315 0.928 0.40634 0.0
H843 H 0.85103 0.98458 0.42865 0.0
H844 H 0.8856 0.99457 0.43805 0.0
H845 H 0.99755 0.02257 0.38799 0.0
H846 H 0.97895 0.9946 0.40266 0.0
H847 H 0.93762 0.03624 0.43067 0.0
H848 H 0.95629 0.06465 0.41594 0.0
H849 H 0.91918 0.99957 0.41475 0.0
H850 H 0.97198 0.0203 0.45907 0.0
H851 H 0.00654 0.03036 0.46828 0.0
H852 H 0.02888 0.97278 0.44894 0.0
H853 H 0.99448 0.96248 0.4393 0.0
C854 C 0.90327 0.92384 0.47856 0.0
C855 C 0.91457 0.90607 0.47586 0.0
C856 C 0.90843 0.94147 0.46821 0.0
C857 C 0.92496 0.94161 0.455 0.0
C858 C 0.93571 0.92372 0.45166 0.0
C859 C 0.93053 0.9061 0.4619 0.0
C860 C 0.93222 0.96066 0.44592 0.0
C861 C 0.9519 0.96685 0.4505 0.0
C862 C 0.92006 0.9728 0.43326 0.0
C863 C 0.89928 0.96681 0.42762 0.0
C864 C 0.89557 0.94804 0.41851 0.0
C865 C 0.87593 0.94248 0.41329 0.0
C866 C 0.85988 0.95564 0.41698 0.0
C867 C 0.86346 0.9744 0.42584 0.0
C868 C 0.88308 0.98002 0.4311 0.0
C869 C 0.98437 0.02589 0.39705 0.0
C870 C 0.97859 0.04589 0.40105 0.0
C871 C 0.97373 0.00984 0.40539 0.0
C872 C 0.95713 0.0134 0.41797 0.0
C873 C 0.95046 0.03324 0.42102 0.0
C874 C 0.96116 0.04943 0.41264 0.0
C875 C 0.9481 0.99633 0.42912 0.0
C876 C 0.92815 0.99061 0.42508 0.0
C877 C 0.95993 0.98461 0.44243 0.0
C878 C 0.98066 0.99069 0.4483 0.0
C879 C 0.98428 0.00984 0.45662 0.0
C880 C 0.00384 0.01558 0.46195 0.0
C881 C 0.0199 0.00224 0.45916 0.0
C882 C 0.01643 0.98311 0.45107 0.0
C883 C 0.9969 0.97731 0.44569 0.0
H884 H 0.03504 0.0067 0.4633 0.0
H885 H 0.84469 0.95131 0.41292 0.0
H886 H 0.36978 0.56045 0.54575 0.0
H887 H 0.37333 0.53047 0.56698 0.0
H888 H 0.43552 0.54608 0.57825 0.0
H889 H 0.43168 0.57642 0.55811 0.0
H890 H 0.39309 0.49932 0.56189 0.0
H891 H 0.45475 0.52721 0.6196 0.0
H892 H 0.46146 0.5571 0.64054 0.0
H893 H 0.39927 0.57456 0.63629 0.0
H894 H 0.39204 0.54452 0.61569 0.0
H895 H 0.46648 0.42827 0.58258 0.0
H896 H 0.44132 0.45349 0.57392 0.0
H897 H 0.42913 0.46314 0.63721 0.0
H898 H 0.45583 0.43914 0.64574 0.0
H899 H 0.43487 0.49603 0.62368 0.0
H900 H 0.39138 0.44626 0.59993 0.0
H901 H 0.37976 0.41547 0.58273 0.0
H902 H 0.39682 0.44053 0.52554 0.0
H903 H 0.40884 0.47136 0.54237 0.0
C904 C 0.38406 0.55767 0.55316 0.0
C905 C 0.40044 0.57081 0.55032 0.0
C906 C 0.3861 0.5405 0.56524 0.0
C907 C 0.40463 0.53601 0.57448 0.0
C908 C 0.42086 0.54939 0.57189 0.0
C909 C 0.4187 0.56674 0.5602 0.0
C910 C 0.40781 0.51654 0.58518 0.0
C911 C 0.40201 0.49858 0.57556 0.0
C912 C 0.41857 0.51542 0.60357 0.0
C913 C 0.42287 0.5336 0.61596 0.0
C914 C 0.44245 0.53733 0.62322 0.0
C915 C 0.44636 0.55433 0.63503 0.0
C916 C 0.43082 0.56775 0.63969 0.0
C917 C 0.41131 0.56417 0.63261 0.0
C918 C 0.4073 0.54716 0.62085 0.0
C919 C 0.45787 0.43526 0.59458 0.0
C920 C 0.46294 0.43182 0.61478 0.0
C921 C 0.44333 0.44966 0.58965 0.0
C922 C 0.43307 0.46034 0.60487 0.0
C923 C 0.43688 0.45534 0.62514 0.0
C924 C 0.45198 0.44149 0.63004 0.0
C925 C 0.4213 0.47879 0.59968 0.0
C926 C 0.42547 0.49662 0.61034 0.0
C927 C 0.40827 0.47967 0.5828 0.0
C928 C 0.40106 0.46115 0.57247 0.0
C929 C 0.39277 0.44518 0.58369 0.0
C930 C 0.3861 0.42771 0.574 0.0
C931 C 0.38756 0.42604 0.55306 0.0
C932 C 0.39568 0.44185 0.54176 0.0
C933 C 0.40238 0.45936 0.55137 0.0
H934 H 0.38239 0.4125 0.54559 0.0
H935 H 0.43388 0.58091 0.64882 0.0
H936 H 0.58395 0.58251 0.0685 0.0
H937 H 0.56908 0.60535 0.04358 0.0
H938 H 0.60851 0.58118 0.99784 0.0
H939 H 0.62361 0.55867 0.02256 0.0
H940 H 0.60069 0.62085 0.99097 0.0
H941 H 0.56298 0.55958 0.00701 0.0
H942 H 0.54491 0.53673 0.03014 0.0
H943 H 0.50384 0.58434 0.04562 0.0
H944 H 0.52187 0.60754 0.02274 0.0
H945 H 0.55062 0.60478 0.8994 0.0
H946 H 0.56883 0.60553 0.93127 0.0
H947 H 0.51796 0.63419 0.95996 0.0
H948 H 0.49947 0.63332 0.9281 0.0
H949 H 0.52931 0.60144 0.97993 0.0
H950 H 0.56258 0.65951 0.95539 0.0
H951 H 0.58067 0.68091 0.93098 0.0
H952 H 0.63001 0.639 0.93021 0.0
H953 H 0.6121 0.61717 0.95438 0.0
C954 C 0.58987 0.5825 0.05328 0.0
C955 C 0.60466 0.56848 0.04739 0.0
C956 C 0.58132 0.59553 0.03906 0.0
C957 C 0.58742 0.59465 0.01878 0.0
C958 C 0.60351 0.58206 0.01337 0.0
C959 C 0.61204 0.56908 0.02752 0.0
C960 C 0.57534 0.60427 0.00263 0.0
C961 C 0.58504 0.61675 0.98856 0.0
C962 C 0.5548 0.59928 0.99976 0.0
C963 C 0.54391 0.58533 0.01341 0.0
C964 C 0.55018 0.56519 0.01546 0.0
C965 C 0.53994 0.55218 0.0285 0.0
C966 C 0.52328 0.5591 0.0394 0.0
C967 C 0.51679 0.57902 0.03722 0.0
C968 C 0.52701 0.59211 0.02422 0.0
C969 C 0.54339 0.61157 0.91238 0.0
C970 C 0.5235 0.61881 0.91123 0.0
C971 C 0.55391 0.61215 0.93058 0.0
C972 C 0.54482 0.62007 0.94798 0.0
C973 C 0.52528 0.62808 0.9467 0.0
C974 C 0.51474 0.62755 0.92846 0.0
C975 C 0.5548 0.61756 0.96783 0.0
C976 C 0.54472 0.60625 0.98259 0.0
C977 C 0.57501 0.62355 0.97118 0.0
C978 C 0.58593 0.63665 0.95667 0.0
C979 C 0.57723 0.65478 0.94992 0.0
C980 C 0.58747 0.667 0.93613 0.0
C981 C 0.60647 0.66131 0.92903 0.0
C982 C 0.61529 0.6434 0.93573 0.0
C983 C 0.60512 0.63111 0.94951 0.0
H984 H 0.61437 0.67079 0.91835 0.0
H985 H 0.51537 0.549 0.04949 0.0
H986 H 0.38012 0.97922 0.02571 0.0
H987 H 0.39565 0.95797 1.00014 0.0
H988 H 0.43279 0.92999 0.04559 0.0
H989 H 0.41733 0.95143 0.07142 0.0
H990 H 0.45488 0.94528 0.01518 0.0
H991 H 0.39823 0.902 0.02021 0.0
H992 H 0.36229 0.89273 0.0221 0.0
H993 H 0.35253 0.9172 0.96298 0.0
H994 H 0.38835 0.92689 0.96083 0.0
H995 H 0.50265 0.89127 0.9357 0.0
H996 H 0.48314 0.89727 0.96641 0.0
H997 H 0.44015 0.93228 0.93245 0.0
H998 H 0.45953 0.92638 0.90166 0.0
H999 H 0.42171 0.90704 0.96019 0.0
H1000 H 0.47487 0.95708 0.95898 0.0
H1001 H 0.50978 0.96978 0.95761 0.0
H1002 H 0.52517 0.93391 0.00926 0.0
H1003 H 0.49024 0.92116 0.01103 0.0
C1004 C 0.39128 0.96826 0.03038 0.0
C1005 C 0.39763 0.96715 0.05057 0.0
C1006 C 0.40005 0.95599 0.01574 0.0
C1007 C 0.41533 0.94232 0.02095 0.0
C1008 C 0.42097 0.94041 0.04127 0.0
C1009 C 0.41208 0.95262 0.056 0.0
C1010 C 0.42703 0.9322 0.00481 0.0
C1011 C 0.44772 0.93639 0.00348 0.0
C1012 C 0.41758 0.9211 0.98924 0.0
C1013 C 0.39599 0.91528 0.99041 0.0
C1014 C 0.3884 0.90555 0.00767 0.0
C1015 C 0.36805 0.90019 0.00877 0.0
C1016 C 0.35513 0.90439 0.99268 0.0
C1017 C 0.36255 0.91394 0.97543 0.0
C1018 C 0.38289 0.91934 0.97425 0.0
C1019 C 0.48892 0.90006 0.9347 0.0
C1020 C 0.48269 0.90842 0.91622 0.0
C1021 C 0.47783 0.90352 0.95229 0.0
C1022 C 0.46029 0.91533 0.95171 0.0
C1023 C 0.45364 0.92309 0.9332 0.0
C1024 C 0.46478 0.91977 0.91563 0.0
C1025 C 0.44936 0.9205 0.9705 0.0
C1026 C 0.42889 0.91544 0.97224 0.0
C1027 C 0.45892 0.93094 0.98642 0.0
C1028 C 0.48006 0.93798 0.98497 0.0
C1029 C 0.48576 0.95175 0.9699 0.0
C1030 C 0.50552 0.95902 0.96911 0.0
C1031 C 0.51972 0.95256 0.98326 0.0
C1032 C 0.51417 0.93886 0.99828 0.0
C1033 C 0.49438 0.93166 0.99923 0.0
H1034 H 0.535 0.95825 0.98266 0.0
H1035 H 0.33938 0.90023 0.99357 0.0
H1036 H 0.56226 0.4477 0.58193 0.0
H1037 H 0.57908 0.45359 0.54968 0.0
H1038 H 0.57888 0.38979 0.53757 0.0
H1039 H 0.56159 0.3837 0.56969 0.0
H1040 H 0.6174 0.4174 0.52627 0.0
H1041 H 0.54498 0.40614 0.5168 0.0
H1042 H 0.5094 0.41209 0.52586 0.0
H1043 H 0.51697 0.47549 0.51528 0.0
H1044 H 0.55272 0.46993 0.5065 0.0
H1045 H 0.6346 0.42953 0.42068 0.0
H1046 H 0.62198 0.4165 0.45303 0.0
H1047 H 0.59324 0.47376 0.46468 0.0
H1048 H 0.60456 0.486 0.43195 0.0
H1049 H 0.56957 0.44589 0.47622 0.0
H1050 H 0.6404 0.45926 0.48625 0.0
H1051 H 0.67615 0.45563 0.47663 0.0
H1052 H 0.67272 0.39179 0.48679 0.0
H1053 H 0.63687 0.39504 0.49627 0.0
C1054 C 0.5662 0.43484 0.57267 0.0
C1055 C 0.56042 0.41524 0.57827 0.0
C1056 C 0.57582 0.43825 0.55427 0.0
C1057 C 0.58011 0.42211 0.54133 0.0
C1058 C 0.57572 0.40239 0.54746 0.0
C1059 C 0.56577 0.39898 0.56574 0.0
C1060 C 0.58671 0.42621 0.52048 0.0
C1061 C 0.60696 0.42335 0.51517 0.0
C1062 C 0.5731 0.43433 0.50627 0.0
C1063 C 0.55155 0.43764 0.51121 0.0
C1064 C 0.5391 0.42137 0.51659 0.0
C1065 C 0.5189 0.42466 0.52164 0.0
C1066 C 0.51094 0.44416 0.5212 0.0
C1067 C 0.52316 0.4604 0.51565 0.0
C1068 C 0.54339 0.45718 0.51062 0.0
C1069 C 0.62554 0.43919 0.43024 0.0
C1070 C 0.62113 0.45899 0.42433 0.0
C1071 C 0.61844 0.43184 0.44871 0.0
C1072 C 0.60709 0.44433 0.46158 0.0
C1073 C 0.60212 0.46387 0.45518 0.0
C1074 C 0.60888 0.47102 0.43663 0.0
C1075 C 0.60047 0.43737 0.48181 0.0
C1076 C 0.58011 0.43974 0.48712 0.0
C1077 C 0.6141 0.42915 0.49608 0.0
C1078 C 0.63594 0.42736 0.49175 0.0
C1079 C 0.6473 0.44446 0.48644 0.0
C1080 C 0.66754 0.44246 0.48095 0.0
C1081 C 0.67662 0.42345 0.48089 0.0
C1082 C 0.66561 0.40647 0.48671 0.0
C1083 C 0.64534 0.40839 0.49219 0.0
H1084 H 0.69224 0.42187 0.47642 0.0
H1085 H 0.4953 0.44669 0.52512 0.0
H1086 H 0.47906 0.11049 0.55002 0.0
H1087 H 0.45549 0.10253 0.523 0.0
H1088 H 0.42233 0.06363 0.56325 0.0
H1089 H 0.44622 0.07107 0.59024 0.0
H1090 H 0.43226 0.0442 0.5308 0.0
H1091 H 0.40199 0.10831 0.54346 0.0
H1092 H 0.40107 0.14507 0.54871 0.0
H1093 H 0.42485 0.15452 0.48924 0.0
H1094 H 0.42619 0.11779 0.48373 0.0
H1095 H 0.36319 0.01252 0.46038 0.0
H1096 H 0.37382 0.03322 0.48882 0.0
H1097 H 0.41443 0.06596 0.45001 0.0
H1098 H 0.40353 0.04547 0.42124 0.0
H1099 H 0.39815 0.08982 0.48228 0.0
H1100 H 0.43218 0.02623 0.47164 0.0
H1101 H 0.43336 0.98951 0.46602 0.0
H1102 H 0.40286 0.9796 0.52228 0.0
H1103 H 0.40122 0.01631 0.52807 0.0
C1104 C 0.46651 0.10056 0.55328 0.0
C1105 C 0.46466 0.09122 0.57224 0.0
C1106 C 0.45295 0.09613 0.53781 0.0
C1107 C 0.43707 0.08253 0.54108 0.0
C1108 C 0.4345 0.07413 0.56036 0.0
C1109 C 0.44817 0.0784 0.57577 0.0
C1110 C 0.42483 0.07509 0.5239 0.0
C1111 C 0.42443 0.05422 0.52051 0.0
C1112 C 0.41518 0.08815 0.51001 0.0
C1113 C 0.41433 0.11026 0.51325 0.0
C1114 C 0.40717 0.11821 0.53156 0.0
C1115 C 0.40654 0.13905 0.53457 0.0
C1116 C 0.41293 0.15212 0.51934 0.0
C1117 C 0.41992 0.14438 0.50104 0.0
C1118 C 0.42059 0.12355 0.49795 0.0
C1119 C 0.37396 0.02451 0.45776 0.0
C1120 C 0.38283 0.02714 0.43869 0.0
C1121 C 0.37997 0.03636 0.47401 0.0
C1122 C 0.3952 0.0508 0.47157 0.0
C1123 C 0.40268 0.05483 0.45218 0.0
C1124 C 0.39648 0.04309 0.43578 0.0
C1125 C 0.4055 0.05907 0.48955 0.0
C1126 C 0.40573 0.07994 0.49289 0.0
C1127 C 0.41511 0.04609 0.50347 0.0
C1128 C 0.41639 0.024 0.50018 0.0
C1129 C 0.42561 0.01622 0.48274 0.0
C1130 C 0.42637 0.99541 0.47953 0.0
C1131 C 0.41814 0.98223 0.49376 0.0
C1132 C 0.4092 0.98983 0.51126 0.0
C1133 C 0.40836 0.01063 0.51452 0.0
H1134 H 0.41874 0.96612 0.49124 0.0
H1135 H 0.41244 0.16826 0.5217 0.0
H1136 H 0.05182 0.62177 0.56839 0.0
H1137 H 0.02385 0.61189 0.59042 0.0
H1138 H 0.03495 0.54939 0.57573 0.0
H1139 H 0.06387 0.5593 0.55536 0.0
H1140 H 0.99164 0.59877 0.58061 0.0
H1141 H 0.01353 0.51622 0.60474 0.0
H1142 H 0.04312 0.49838 0.61843 0.0
H1143 H 0.06701 0.55426 0.64057 0.0
H1144 H 0.03744 0.57243 0.62727 0.0
H1145 H 0.90702 0.53808 0.58002 0.0
H1146 H 0.93924 0.55526 0.57672 0.0
H1147 H 0.95324 0.54115 0.63873 0.0
H1148 H 0.92144 0.52254 0.64153 0.0
H1149 H 0.98453 0.5356 0.61985 0.0
H1150 H 0.94154 0.59163 0.6208 0.0
H1151 H 0.91219 0.61295 0.61271 0.0
H1152 H 0.9314 0.61655 0.551 0.0
H1153 H 0.96071 0.59501 0.55863 0.0
C1154 C 0.04873 0.6059 0.57071 0.0
C1155 C 0.06007 0.59123 0.56057 0.0
C1156 C 0.03263 0.60023 0.58309 0.0
C1157 C 0.02713 0.57982 0.58494 0.0
C1158 C 0.03907 0.56516 0.57527 0.0
C1159 C 0.0556 0.57081 0.56349 0.0
C1160 C 0.00758 0.57403 0.5945 0.0
C1161 C 0.99021 0.5851 0.58945 0.0
C1162 C 0.0055 0.55662 0.60671 0.0
C1163 C 0.02327 0.54572 0.6149 0.0
C1164 C 0.02502 0.5247 0.61264 0.0
C1165 C 0.04182 0.51453 0.6203 0.0
C1166 C 0.05695 0.52519 0.63033 0.0
C1167 C 0.05531 0.54604 0.63275 0.0
C1168 C 0.03854 0.55628 0.62512 0.0
C1169 C 0.91684 0.53889 0.59303 0.0
C1170 C 0.9117 0.52911 0.61106 0.0
C1171 C 0.93527 0.54887 0.5912 0.0
C1172 C 0.94864 0.55 0.60761 0.0
C1173 C 0.94326 0.54057 0.62583 0.0
C1174 C 0.92505 0.53003 0.62747 0.0
C1175 C 0.9687 0.55987 0.60513 0.0
C1176 C 0.98609 0.54954 0.61147 0.0
C1177 C 0.97089 0.57856 0.59504 0.0
C1178 C 0.95331 0.59162 0.5903 0.0
C1179 C 0.93945 0.59687 0.60548 0.0
C1180 C 0.92282 0.60901 0.60097 0.0
C1181 C 0.91992 0.61609 0.58135 0.0
C1182 C 0.93367 0.61107 0.5662 0.0
C1183 C 0.95032 0.59892 0.57061 0.0
H1184 H 0.90703 0.62547 0.57789 0.0
H1185 H 0.06995 0.51728 0.63624 0.0
H1186 H 0.92906 0.8945 0.57251 0.0
H1187 H 0.95874 0.90817 0.58957 0.0
H1188 H 0.99031 0.8522 0.57996 0.0
H1189 H 0.96088 0.83861 0.56246 0.0
H1190 H 0.00184 0.87695 0.61739 0.0
H1191 H 0.99438 0.8786 0.54362 0.0
H1192 H 0.97422 0.88592 0.51324 0.0
H1193 H 0.96874 0.94779 0.5314 0.0
H1194 H 0.98851 0.94068 0.56214 0.0
H1195 H 0.09812 0.92477 0.56954 0.0
H1196 H 0.06635 0.90619 0.5684 0.0
H1197 H 0.04721 0.93492 0.62348 0.0
H1198 H 0.07895 0.95363 0.62477 0.0
H1199 H 0.02878 0.9236 0.56537 0.0
H1200 H 0.01544 0.90029 0.6481 0.0
H1201 H 0.03514 0.89161 0.67843 0.0
H1202 H 0.08408 0.87124 0.64123 0.0
H1203 H 0.06458 0.87954 0.6107 0.0
C1204 C 0.94193 0.88475 0.57495 0.0
C1205 C 0.94282 0.8656 0.56596 0.0
C1206 C 0.95889 0.8926 0.58467 0.0
C1207 C 0.97672 0.88124 0.58577 0.0
C1208 C 0.97665 0.86114 0.57929 0.0
C1209 C 0.95985 0.85343 0.56924 0.0
C1210 C 0.99625 0.89148 0.58893 0.0
C1211 C 0.00771 0.88731 0.60619 0.0
C1212 C 0.00399 0.90462 0.57403 0.0
C1213 C 0.99271 0.90907 0.55525 0.0
C1214 C 0.98875 0.89373 0.54119 0.0
C1215 C 0.9774 0.89783 0.52391 0.0
C1216 C 0.97015 0.9173 0.52041 0.0
C1217 C 0.97432 0.93271 0.53415 0.0
C1218 C 0.98559 0.92865 0.55151 0.0
C1219 C 0.0873 0.92696 0.58158 0.0
C1220 C 0.09106 0.94078 0.59719 0.0
C1221 C 0.06912 0.91638 0.58085 0.0
C1222 C 0.05444 0.91919 0.59584 0.0
C1223 C 0.0584 0.93242 0.61184 0.0
C1224 C 0.07653 0.94315 0.6125 0.0
C1225 C 0.03454 0.90924 0.59396 0.0
C1226 C 0.02294 0.91345 0.57679 0.0
C1227 C 0.02683 0.89606 0.6089 0.0
C1228 C 0.03862 0.89076 0.62713 0.0
C1229 C 0.03038 0.8939 0.6464 0.0
C1230 C 0.04151 0.88905 0.66363 0.0
C1231 C 0.06087 0.88095 0.66176 0.0
C1232 C 0.06911 0.8776 0.64266 0.0
C1233 C 0.05804 0.88241 0.62539 0.0
H1234 H 0.06947 0.87721 0.67511 0.0
H1235 H 0.96135 0.92045 0.50703 0.0
H1236 H 0.03213 0.39172 0.977 0.0
H1237 H 0.00813 0.40622 0.9534 0.0
H1238 H 0.05465 0.44477 0.92932 0.0
H1239 H 0.07891 0.4304 0.95324 0.0
H1240 H 0.02218 0.46594 0.94017 0.0
H1241 H 0.03331 0.40839 0.89956 0.0
H1242 H 0.03772 0.37236 0.89165 0.0
H1243 H 0.97726 0.3603 0.91141 0.0
H1244 H 0.97256 0.3962 0.91973 0.0
H1245 H 0.94116 0.50901 0.88513 0.0
H1246 H 0.97307 0.49098 0.88953 0.0
H1247 H 0.94236 0.44478 0.92345 0.0
H1248 H 0.91047 0.46249 0.91898 0.0
H1249 H 0.97174 0.42883 0.89933 0.0
H1250 H 0.96448 0.48395 0.94729 0.0
H1251 H 0.95981 0.51962 0.95669 0.0
H1252 H 0.01326 0.53557 0.92378 0.0
H1253 H 0.01808 0.5 0.91397 0.0
C1254 C 0.03741 0.40303 0.96646 0.0
C1255 C 0.05741 0.41003 0.96712 0.0
C1256 C 0.02367 0.4112 0.95283 0.0
C1257 C 0.02961 0.42648 0.93946 0.0
C1258 C 0.04978 0.43293 0.93945 0.0
C1259 C 0.06362 0.42467 0.95309 0.0
C1260 C 0.01408 0.43719 0.92743 0.0
C1261 C 0.01151 0.45792 0.93072 0.0
C1262 C 0.99994 0.42668 0.9154 0.0
C1263 C 0.00262 0.40503 0.91034 0.0
C1264 C 0.02099 0.39805 0.90235 0.0
C1265 C 0.02353 0.37764 0.89777 0.0
C1266 C 0.00779 0.36405 0.90104 0.0
C1267 C 0.98944 0.37085 0.90887 0.0
C1268 C 0.98682 0.39124 0.91348 0.0
C1269 C 0.94114 0.49484 0.89324 0.0
C1270 C 0.9233 0.48733 0.90195 0.0
C1271 C 0.95939 0.48457 0.89574 0.0
C1272 C 0.96011 0.46669 0.90703 0.0
C1273 C 0.94215 0.45857 0.91469 0.0
C1274 C 0.92393 0.46879 0.91221 0.0
C1275 C 0.97962 0.45733 0.91266 0.0
C1276 C 0.98283 0.4369 0.90822 0.0
C1277 C 0.99434 0.46806 0.92373 0.0
C1278 C 0.99149 0.4894 0.92968 0.0
C1279 C 0.97514 0.4951 0.94193 0.0
C1280 C 0.97248 0.51528 0.94735 0.0
C1281 C 0.98619 0.52986 0.94077 0.0
C1282 C 0.00262 0.52427 0.92881 0.0
C1283 C 0.00533 0.50411 0.92332 0.0
H1284 H 0.98411 0.54548 0.94499 0.0
H1285 H 0.00979 0.34826 0.89749 0.0
H1286 H 0.0592 0.01661 0.88927 0.0
H1287 H 0.02997 0.03868 0.89272 0.0
H1288 H 0.06693 0.08312 0.92249 0.0
H1289 H 0.09611 0.06085 0.91965 0.0
H1290 H 0.03479 0.07692 0.94345 0.0
H1291 H 0.04716 0.09004 0.87379 0.0
H1292 H 0.05331 0.08177 0.83808 0.0
H1293 H 0.99564 0.05259 0.83463 0.0
H1294 H 0.98927 0.06044 0.87042 0.0
H1295 H 0.96215 0.14937 0.95435 0.0
H1296 H 0.99034 0.13494 0.93566 0.0
H1297 H 0.95371 0.08376 0.91959 0.0
H1298 H 0.92523 0.09824 0.93818 0.0
H1299 H 0.98562 0.09498 0.89001 0.0
H1300 H 0.97528 0.08039 0.96108 0.0
H1301 H 0.96881 0.09126 0.99602 0.0
H1302 H 0.02423 0.12464 0.9962 0.0
H1303 H 0.03066 0.1146 0.96095 0.0
C1304 C 0.06119 0.0312 0.89631 0.0
C1305 C 0.07998 0.03691 0.9043 0.0
C1306 C 0.04445 0.04388 0.89816 0.0
C1307 C 0.04624 0.06267 0.90773 0.0
C1308 C 0.06516 0.06869 0.91508 0.0
C1309 C 0.08184 0.05593 0.91343 0.0
C1310 C 0.02811 0.07524 0.91168 0.0
C1311 C 0.02429 0.08113 0.93164 0.0
C1312 C 0.01407 0.08039 0.8964 0.0
C1313 C 0.01782 0.07568 0.87485 0.0
C1314 C 0.03586 0.08172 0.86547 0.0
C1315 C 0.03937 0.07713 0.8452 0.0
C1316 C 0.0249 0.06662 0.83411 0.0
C1317 C 0.00685 0.06072 0.84325 0.0
C1318 C 0.00327 0.06525 0.86352 0.0
C1319 C 0.95983 0.13541 0.94621 0.0
C1320 C 0.94163 0.1247 0.94808 0.0
C1321 C 0.97594 0.12723 0.93548 0.0
C1322 C 0.97419 0.10812 0.92665 0.0
C1323 C 0.95533 0.09852 0.92637 0.0
C1324 C 0.93908 0.1068 0.93703 0.0
C1325 C 0.99265 0.09665 0.9216 0.0
C1326 C 0.99635 0.09085 0.90162 0.0
C1327 C 0.00675 0.09163 0.93681 0.0
C1328 C 0.00333 0.09693 0.9583 0.0
C1329 C 0.98602 0.09017 0.96851 0.0
C1330 C 0.98235 0.09619 0.98837 0.0
C1331 C 0.9961 0.10862 0.99833 0.0
C1332 C 0.01357 0.11504 0.98845 0.0
C1333 C 0.01721 0.10923 0.96851 0.0
H1334 H 0.99324 0.11325 0.01371 0.0
H1335 H 0.02764 0.06308 0.81842 0.0
H1336 H 0.55642 0.06742 0.56517 0.0
H1337 H 0.57351 0.03702 0.55345 0.0
H1338 H 0.58929 0.0222 0.61484 0.0
H1339 H 0.57067 0.05182 0.62664 0.0
H1340 H 0.60546 0.01657 0.55187 0.0
H1341 H 0.58216 0.97344 0.62412 0.0
H1342 H 0.55779 0.97664 0.6521 0.0
H1343 H 0.51821 0.01104 0.61415 0.0
H1344 H 0.54219 0.00776 0.58588 0.0
H1345 H 0.63121 0.91524 0.53082 0.0
H1346 H 0.62901 0.94774 0.54816 0.0
H1347 H 0.56478 0.93954 0.55518 0.0
H1348 H 0.56719 0.90665 0.53907 0.0
H1349 H 0.57673 0.95663 0.58616 0.0
H1350 H 0.58769 0.96921 0.51593 0.0
H1351 H 0.60526 0.96679 0.48324 0.0
H1352 H 0.65784 0.99428 0.50907 0.0
H1353 H 0.64063 0.99666 0.54199 0.0
C1354 C 0.56418 0.05804 0.57605 0.0
C1355 C 0.56216 0.06175 0.59676 0.0
C1356 C 0.57393 0.04061 0.56937 0.0
C1357 C 0.58211 0.0269 0.58332 0.0
C1358 C 0.58251 0.03218 0.60384 0.0
C1359 C 0.5721 0.0492 0.61058 0.0
C1360 C 0.58731 0.00612 0.57671 0.0
C1361 C 0.59935 0.00345 0.5595 0.0
C1362 C 0.57884 0.98893 0.58623 0.0
C1363 C 0.5641 0.99057 0.603 0.0
C1364 C 0.56822 0.9816 0.62174 0.0
C1365 C 0.55447 0.98344 0.63764 0.0
C1366 C 0.5365 0.99411 0.63492 0.0
C1367 C 0.53216 0.00283 0.61625 0.0
C1368 C 0.54581 0.00098 0.60029 0.0
C1369 C 0.6167 0.9203 0.53636 0.0
C1370 C 0.59936 0.90847 0.53358 0.0
C1371 C 0.61542 0.93894 0.54613 0.0
C1372 C 0.59665 0.94637 0.55264 0.0
C1373 C 0.57946 0.93421 0.55038 0.0
C1374 C 0.58083 0.91538 0.54113 0.0
C1375 C 0.59458 0.96705 0.56107 0.0
C1376 C 0.58316 0.96969 0.57871 0.0
C1377 C 0.60259 0.98425 0.55122 0.0
C1378 C 0.61297 0.98289 0.53146 0.0
C1379 C 0.60305 0.97462 0.51466 0.0
C1380 C 0.61293 0.97327 0.49609 0.0
C1381 C 0.63268 0.98031 0.4941 0.0
C1382 C 0.64256 0.98879 0.51065 0.0
C1383 C 0.63275 0.99015 0.52927 0.0
H1384 H 0.64032 0.97926 0.47971 0.0
H1385 H 0.52591 0.99557 0.64727 0.0
H1386 H 0.63027 0.07181 0.9626 0.0
H1387 H 0.63032 0.03962 0.94454 0.0
H1388 H 0.57402 0.05541 0.91616 0.0
H1389 H 0.57386 0.08762 0.93399 0.0
H1390 H 0.57376 0.01715 0.93383 0.0
H1391 H 0.61541 0.05727 0.88936 0.0
H1392 H 0.64442 0.07894 0.88093 0.0
H1393 H 0.68518 0.0321 0.89925 0.0
H1394 H 0.65639 0.01025 0.90806 0.0
H1395 H 0.5649 0.9581 0.84728 0.0
H1396 H 0.58442 0.98599 0.86113 0.0
H1397 H 0.60243 0.94869 0.91116 0.0
H1398 H 0.58305 0.92057 0.89728 0.0
H1399 H 0.62558 0.99576 0.88408 0.0
H1400 H 0.57797 0.96758 0.94438 0.0
H1401 H 0.54966 0.94381 0.949 0.0
H1402 H 0.52081 0.96748 0.89611 0.0
H1403 H 0.54906 0.99124 0.89115 0.0
C1404 C 0.61797 0.0685 0.9524 0.0
C1405 C 0.60203 0.08228 0.94977 0.0
C1406 C 0.61806 0.05012 0.94207 0.0
C1407 C 0.60217 0.04516 0.92905 0.0
C1408 C 0.5864 0.05896 0.9262 0.0
C1409 C 0.58638 0.0774 0.93633 0.0
C1410 C 0.6015 0.02532 0.91887 0.0
C1411 C 0.58522 0.01249 0.92312 0.0
C1412 C 0.61647 0.01911 0.90493 0.0
C1413 C 0.63376 0.03222 0.89959 0.0
C1414 C 0.63056 0.05166 0.89177 0.0
C1415 C 0.64696 0.06396 0.88688 0.0
C1416 C 0.66663 0.05693 0.88961 0.0
C1417 C 0.66994 0.03755 0.89718 0.0
C1418 C 0.65359 0.02519 0.9021 0.0
C1419 C 0.57386 0.95552 0.86069 0.0
C1420 C 0.57218 0.93734 0.87144 0.0
C1421 C 0.58516 0.97143 0.86849 0.0
C1422 C 0.59466 0.96941 0.88723 0.0
C1423 C 0.59526 0.95044 0.8966 0.0
C1424 C 0.58413 0.9344 0.88867 0.0
C1425 C 0.59806 0.9878 0.89929 0.0
C1426 C 0.61455 0.00034 0.89526 0.0
C1427 C 0.58335 0.99389 0.91345 0.0
C1428 C 0.56544 0.98124 0.91754 0.0
C1429 C 0.56541 0.96789 0.93396 0.0
C1430 C 0.54946 0.95435 0.93654 0.0
C1431 C 0.53341 0.95419 0.9229 0.0
C1432 C 0.53321 0.96767 0.90671 0.0
C1433 C 0.54917 0.98117 0.90401 0.0
H1434 H 0.52113 0.94362 0.92487 0.0
H1435 H 0.67931 0.06647 0.88581 0.0
H1436 H 0.46456 0.54182 0.85026 0.0
H1437 H 0.44458 0.51276 0.86029 0.0
H1438 H 0.40353 0.55174 0.89235 0.0
H1439 H 0.42371 0.58112 0.88239 0.0
H1440 H 0.41812 0.52231 0.9161 0.0
H1441 H 0.38691 0.52476 0.8519 0.0
H1442 H 0.38487 0.52763 0.81492 0.0
H1443 H 0.41945 0.47329 0.80843 0.0
H1444 H 0.42197 0.47023 0.84538 0.0
H1445 H 0.37176 0.43379 0.95158 0.0
H1446 H 0.37406 0.4652 0.93254 0.0
H1447 H 0.42137 0.43973 0.8959 0.0
H1448 H 0.41906 0.40813 0.91471 0.0
H1449 H 0.39629 0.46461 0.87385 0.0
H1450 H 0.43334 0.46659 0.93675 0.0
H1451 H 0.43703 0.46371 0.97363 0.0
H1452 H 0.39262 0.51007 0.98204 0.0
H1453 H 0.38849 0.51304 0.94517 0.0
C1454 C 0.45104 0.54431 0.85909 0.0
C1455 C 0.44581 0.56375 0.86569 0.0
C1456 C 0.43952 0.52765 0.86469 0.0
C1457 C 0.42248 0.53005 0.87699 0.0
C1458 C 0.41659 0.54957 0.88278 0.0
C1459 C 0.42808 0.56633 0.87703 0.0
C1460 C 0.41267 0.51197 0.8858 0.0
C1461 C 0.41277 0.50993 0.90685 0.0
C1462 C 0.4062 0.49561 0.87373 0.0
C1463 C 0.40471 0.49733 0.85146 0.0
C1464 C 0.39421 0.51349 0.8426 0.0
C1465 C 0.39294 0.51514 0.82163 0.0
C1466 C 0.40204 0.50066 0.80933 0.0
C1467 C 0.4124 0.48449 0.81798 0.0
C1468 C 0.41372 0.48277 0.83894 0.0
C1469 C 0.38241 0.43469 0.93923 0.0
C1470 C 0.39545 0.41851 0.93487 0.0
C1471 C 0.3837 0.45268 0.92837 0.0
C1472 C 0.39811 0.4549 0.91304 0.0
C1473 C 0.41016 0.43834 0.90771 0.0
C1474 C 0.40886 0.4203 0.91854 0.0
C1475 C 0.40215 0.47495 0.90403 0.0
C1476 C 0.40109 0.47726 0.88303 0.0
C1477 C 0.40789 0.49158 0.91609 0.0
C1478 C 0.41042 0.48986 0.93824 0.0
C1479 C 0.42425 0.47605 0.94647 0.0
C1480 C 0.42644 0.47442 0.96737 0.0
C1481 C 0.41502 0.48664 0.98017 0.0
C1482 C 0.40142 0.50057 0.9721 0.0
C1483 C 0.39915 0.50224 0.95121 0.0
H1484 H 0.41674 0.48536 0.99634 0.0
H1485 H 0.40104 0.50197 0.7931 0.0
H1486 H 0.93031 0.10774 0.06049 0.0
H1487 H 0.93832 0.07886 0.08178 0.0
H1488 H 0.89668 0.0421 0.04809 0.0
H1489 H 0.88837 0.07102 0.02672 0.0
H1490 H 0.89705 0.0328 0.08958 0.0
H1491 H 0.94382 0.03947 0.03477 0.0
H1492 H 0.96789 0.05683 0.0124 0.0
H1493 H 0.00557 0.07068 0.06315 0.0
H1494 H 0.98165 0.05339 0.08585 0.0
H1495 H 0.94764 0.93783 0.10892 0.0
H1496 H 0.92943 0.96714 0.09565 0.0
H1497 H 0.97167 0.00675 0.12516 0.0
H1498 H 0.98998 0.97773 0.13821 0.0
H1499 H 0.96936 0.01401 0.0855 0.0
H1500 H 0.92263 0.00427 0.14012 0.0
H1501 H 0.89868 0.98513 0.16113 0.0
H1502 H 0.86071 0.97548 0.10964 0.0
H1503 H 0.88459 0.99434 0.08824 0.0
C1504 C 0.92254 0.09364 0.05779 0.0
C1505 C 0.90891 0.09163 0.04169 0.0
C1506 C 0.92716 0.07714 0.06999 0.0
C1507 C 0.91833 0.0583 0.06627 0.0
C1508 C 0.90368 0.05653 0.05115 0.0
C1509 C 0.89901 0.07307 0.03892 0.0
C1510 C 0.92598 0.04017 0.07681 0.0
C1511 C 0.91281 0.02852 0.08859 0.0
C1512 C 0.94655 0.03471 0.07555 0.0
C1513 C 0.96086 0.04533 0.06202 0.0
C1514 C 0.95715 0.04638 0.04118 0.0
C1515 C 0.97078 0.05617 0.02843 0.0
C1516 C 0.98821 0.06494 0.03636 0.0
C1517 C 0.99205 0.0639 0.05704 0.0
C1518 C 0.97848 0.05407 0.06985 0.0
C1519 C 0.95276 0.95279 0.11293 0.0
C1520 C 0.97041 0.95547 0.12437 0.0
C1521 C 0.94231 0.96952 0.10539 0.0
C1522 C 0.94926 0.98912 0.10936 0.0
C1523 C 0.96613 0.99176 0.12182 0.0
C1524 C 0.97659 0.97513 0.12924 0.0
C1525 C 0.94059 0.00678 0.09877 0.0
C1526 C 0.95361 0.01829 0.08671 0.0
C1527 C 0.91988 0.01188 0.09969 0.0
C1528 C 0.90551 0.00054 0.11253 0.0
C1529 C 0.90927 0.99791 0.13323 0.0
C1530 C 0.89568 0.98714 0.14523 0.0
C1531 C 0.87821 0.97904 0.13672 0.0
C1532 C 0.87426 0.98174 0.11621 0.0
C1533 C 0.88781 0.99248 0.10414 0.0
H1534 H 0.86771 0.97071 0.14603 0.0
H1535 H 0.99879 0.07245 0.02647 0.0
H1536 H 0.97614 0.16527 0.39812 0.0
H1537 H 0.9729 0.20035 0.38805 0.0
H1538 H 0.00429 0.18758 0.33251 0.0
H1539 H 0.00809 0.15229 0.34282 0.0
H1540 H 0.01986 0.21935 0.34913 0.0
H1541 H 0.95314 0.20037 0.33291 0.0
H1542 H 0.91991 0.18438 0.33754 0.0
H1543 H 0.90813 0.2226 0.38841 0.0
H1544 H 0.9414 0.23864 0.38429 0.0
H1545 H 0.96894 0.32712 0.34105 0.0
H1546 H 0.96911 0.29098 0.33304 0.0
H1547 H 0.0124 0.28069 0.38044 0.0
H1548 H 0.01239 0.31651 0.38839 0.0
H1549 H 0.95771 0.26027 0.35691 0.0
H1550 H 0.0432 0.24275 0.36891 0.0
H1551 H 0.07601 0.25872 0.36186 0.0
H1552 H 0.04935 0.29326 0.31406 0.0
H1553 H 0.01644 0.27729 0.32061 0.0
C1554 C 0.9821 0.16978 0.3836 0.0
C1555 C 0.99243 0.15595 0.37129 0.0
C1556 C 0.9801 0.1899 0.37778 0.0
C1557 C 0.98814 0.19665 0.35939 0.0
C1558 C 0.99792 0.18273 0.34674 0.0
C1559 C 1.00002 0.16255 0.35262 0.0
C1560 C 0.98781 0.21853 0.35445 0.0
C1561 C 0.00622 0.22826 0.35059 0.0
C1562 C 0.96995 0.23018 0.3558 0.0
C1563 C 0.94984 0.22066 0.35831 0.0
C1564 C 0.94352 0.2053 0.34516 0.0
C1565 C 0.92467 0.19623 0.34769 0.0
C1566 C 0.91193 0.20246 0.36327 0.0
C1567 C 0.91801 0.2178 0.37634 0.0
C1568 C 0.93685 0.22691 0.37388 0.0
C1569 C 0.97872 0.31717 0.34952 0.0
C1570 C 0.99063 0.32467 0.36537 0.0
C1571 C 0.97875 0.29654 0.34498 0.0
C1572 C 0.9909 0.28315 0.35602 0.0
C1573 C 0.00316 0.29074 0.37148 0.0
C1574 C 0.00304 0.31125 0.37609 0.0
C1575 C 0.98988 0.26104 0.35261 0.0
C1576 C 0.97125 0.2513 0.35497 0.0
C1577 C 0.00746 0.24936 0.34951 0.0
C1578 C 0.0273 0.25887 0.34534 0.0
C1579 C 0.04435 0.25365 0.35681 0.0
C1580 C 0.06297 0.26274 0.35292 0.0
C1581 C 0.06475 0.27703 0.33755 0.0
C1582 C 0.04793 0.28224 0.326 0.0
C1583 C 0.02928 0.27319 0.32982 0.0
H1584 H 0.07918 0.28405 0.33457 0.0
H1585 H 0.89734 0.19541 0.36521 0.0
H1586 H 0.96689 0.67212 0.17602 0.0
H1587 H 0.96448 0.70874 0.18063 0.0
H1588 H 0.01325 0.71725 0.13847 0.0
H1589 H 0.01558 0.68092 0.13358 0.0
H1590 H 0.98967 0.74042 0.19176 0.0
H1591 H 1.00023 0.75371 0.10596 0.0
H1592 H 0.99421 0.73575 0.07396 0.0
H1593 H 0.94711 0.7012 0.10187 0.0
H1594 H 0.95265 0.71914 0.13394 0.0
H1595 H 0.01267 0.84282 0.16785 0.0
H1596 H 0.01021 0.80665 0.1745 0.0
H1597 H 0.95398 0.8045 0.14185 0.0
H1598 H 0.95686 0.84042 0.13446 0.0
H1599 H 0.9767 0.77737 0.12802 0.0
H1600 H 0.95784 0.79598 0.19462 0.0
H1601 H 0.96028 0.8136 0.22724 0.0
H1602 H 0.01692 0.78455 0.23905 0.0
H1603 H 0.01495 0.76695 0.20637 0.0
C1604 C 0.97734 0.68179 0.16803 0.0
C1605 C 0.99124 0.67364 0.15422 0.0
C1606 C 0.97596 0.7027 0.17071 0.0
C1607 C 0.98845 0.71571 0.15962 0.0
C1608 C 0.00325 0.70749 0.14693 0.0
C1609 C 0.00456 0.6867 0.14417 0.0
C1610 C 0.985 0.73781 0.15977 0.0
C1611 C 0.98679 0.74858 0.17788 0.0
C1612 C 0.98063 0.74832 0.14173 0.0
C1613 C 0.977 0.73766 0.1224 0.0
C1614 C 0.98853 0.74234 0.10524 0.0
C1615 C 0.98521 0.73216 0.0871 0.0
C1616 C 0.97033 0.71731 0.0859 0.0
C1617 C 0.95868 0.71266 0.10283 0.0
C1618 C 0.96192 0.72282 0.121 0.0
C1619 C 0.99956 0.83471 0.16249 0.0
C1620 C 0.98503 0.8444 0.1505 0.0
C1621 C 0.99812 0.81401 0.16637 0.0
C1622 C 0.98189 0.80275 0.1587 0.0
C1623 C 0.96673 0.81277 0.14781 0.0
C1624 C 0.96835 0.83333 0.14364 0.0
C1625 C 0.9818 0.78033 0.16 0.0
C1626 C 0.9794 0.76939 0.14204 0.0
C1627 C 0.98507 0.76973 0.17827 0.0
C1628 C 0.98631 0.78027 0.19796 0.0
C1629 C 0.97089 0.79346 0.2041 0.0
C1630 C 0.97217 0.80343 0.22262 0.0
C1631 C 0.98876 0.80023 0.23519 0.0
C1632 C 0.00408 0.78702 0.22929 0.0
C1633 C 0.00288 0.77703 0.21078 0.0
H1634 H 0.98973 0.80795 0.24952 0.0
H1635 H 0.96779 0.70943 0.07185 0.0
H1636 H 0.39342 0.9688 0.16383 0.0
H1637 H 0.38656 0.96673 0.19989 0.0
H1638 H 0.34331 0.01507 0.19456 0.0
H1639 H 0.34963 0.01666 0.1582 0.0
H1640 H 0.3951 0.99347 0.22578 0.0
H1641 H 0.31034 0.01423 0.23435 0.0
H1642 H 0.27823 0.00878 0.21643 0.0
H1643 H 0.30213 0.95509 0.18932 0.0
H1644 H 0.33429 0.96007 0.20726 0.0
H1645 H 0.38205 0.02687 0.32347 0.0
H1646 H 0.37724 0.02582 0.28702 0.0
H1647 H 0.34447 0.96998 0.29282 0.0
H1648 H 0.34874 0.97125 0.32952 0.0
H1649 H 0.32955 0.9926 0.26185 0.0
H1650 H 0.39404 0.96855 0.28351 0.0
H1651 H 0.42634 0.97002 0.30184 0.0
H1652 H 0.44335 0.02268 0.26827 0.0
H1653 H 0.411 0.02169 0.24994 0.0
C1654 C 0.38215 0.97873 0.17027 0.0
C1655 C 0.37214 0.99298 0.15822 0.0
C1656 C 0.37827 0.97756 0.19091 0.0
C1657 C 0.36446 0.99077 0.20005 0.0
C1658 C 0.35382 0.0045 0.18788 0.0
C1659 C 0.35748 0.00545 0.1671 0.0
C1660 C 0.36283 0.99142 0.22242 0.0
C1661 C 0.38072 0.99321 0.23358 0.0
C1662 C 0.34413 0.99086 0.23276 0.0
C1663 C 0.3248 0.98766 0.222 0.0
C1664 C 0.30872 0.00123 0.22462 0.0
C1665 C 0.29051 0.99823 0.21445 0.0
C1666 C 0.28817 0.98164 0.20169 0.0
C1667 C 0.304 0.96798 0.19913 0.0
C1668 C 0.32223 0.97091 0.20927 0.0
C1669 C 0.37343 0.01458 0.31705 0.0
C1670 C 0.36601 0.99899 0.32931 0.0
C1671 C 0.37072 0.01399 0.2962 0.0
C1672 C 0.36091 0.99758 0.28715 0.0
C1673 C 0.35217 0.98274 0.29947 0.0
C1674 C 0.35465 0.98347 0.32044 0.0
C1675 C 0.36178 0.99492 0.26494 0.0
C1676 C 0.34384 0.99281 0.2539 0.0
C1677 C 0.38047 0.9946 0.25463 0.0
C1678 C 0.40003 0.99514 0.26548 0.0
C1679 C 0.40461 0.98051 0.28013 0.0
C1680 C 0.42293 0.98125 0.29051 0.0
C1681 C 0.43687 0.99646 0.28625 0.0
C1682 C 0.43253 0.01093 0.27157 0.0
C1683 C 0.41421 0.01028 0.26117 0.0
H1684 H 0.45104 0.99701 0.29431 0.0
H1685 H 0.27406 0.97935 0.19383 0.0
H1686 H 0.59405 0.53969 0.16248 0.0
H1687 H 0.60135 0.53666 0.19818 0.0
H1688 H 0.66194 0.51724 0.18443 0.0
H1689 H 0.6544 0.51956 0.14828 0.0
H1690 H 0.64706 0.49377 0.21175 0.0
H1691 H 0.65199 0.56446 0.20645 0.0
H1692 H 0.64286 0.59904 0.19638 0.0
H1693 H 0.5883 0.59512 0.23101 0.0
H1694 H 0.59693 0.56041 0.24107 0.0
H1695 H 0.65923 0.50006 0.32183 0.0
H1696 H 0.6645 0.50784 0.28595 0.0
H1697 H 0.60016 0.50928 0.27686 0.0
H1698 H 0.59477 0.50103 0.31235 0.0
H1699 H 0.62517 0.54468 0.26196 0.0
H1700 H 0.61969 0.47094 0.26138 0.0
H1701 H 0.63066 0.43693 0.27164 0.0
H1702 H 0.68995 0.44867 0.2484 0.0
H1703 H 0.67938 0.48289 0.23826 0.0
C1704 C 0.60904 0.53503 0.16696 0.0
C1705 C 0.62366 0.52989 0.15251 0.0
C1706 C 0.61326 0.53344 0.18747 0.0
C1707 C 0.63233 0.52707 0.19409 0.0
C1708 C 0.64715 0.52229 0.1797 0.0
C1709 C 0.64285 0.52368 0.15906 0.0
C1710 C 0.63599 0.52407 0.216 0.0
C1711 C 0.64275 0.50513 0.22269 0.0
C1712 C 0.63039 0.53882 0.2304 0.0
C1713 C 0.62509 0.55976 0.22445 0.0
C1714 C 0.63798 0.57091 0.21182 0.0
C1715 C 0.6329 0.59056 0.20612 0.0
C1716 C 0.615 0.59927 0.21303 0.0
C1717 C 0.60216 0.58836 0.22568 0.0
C1718 C 0.60716 0.56871 0.23142 0.0
C1719 C 0.64624 0.50194 0.31213 0.0
C1720 C 0.62659 0.4999 0.31985 0.0
C1721 C 0.64928 0.50637 0.2917 0.0
C1722 C 0.6327 0.50917 0.27889 0.0
C1723 C 0.61312 0.50721 0.28659 0.0
C1724 C 0.61008 0.5024 0.30682 0.0
C1725 C 0.63546 0.5143 0.25739 0.0
C1726 C 0.62993 0.53362 0.2509 0.0
C1727 C 0.64253 0.50007 0.24323 0.0
C1728 C 0.64884 0.47954 0.24934 0.0
C1729 C 0.63513 0.46635 0.25867 0.0
C1730 C 0.64125 0.44701 0.26441 0.0
C1731 C 0.66101 0.44067 0.26075 0.0
C1732 C 0.67466 0.45362 0.25128 0.0
C1733 C 0.66861 0.47298 0.24553 0.0
H1734 H 0.66572 0.42569 0.26519 0.0
H1735 H 0.61109 0.61447 0.2086 0.0
H1736 H 0.33037 0.33821 0.98044 0.0
H1737 H 0.29374 0.33337 0.98245 0.0
H1738 H 0.28882 0.386 0.02029 0.0
H1739 H 0.32517 0.39071 0.01863 0.0
H1740 H 0.26287 0.35788 0.03249 0.0
H1741 H 0.28262 0.38892 0.96895 0.0
H1742 H 0.30077 0.39004 0.93649 0.0
H1743 H 0.27108 0.33571 0.91769 0.0
H1744 H 0.25293 0.33416 0.95017 0.0
H1745 H 0.17208 0.4071 0.98295 0.0
H1746 H 0.2071 0.3961 0.98191 0.0
H1747 H 0.19148 0.34238 0.01505 0.0
H1748 H 0.15617 0.35344 0.01632 0.0
H1749 H 0.22694 0.36393 0.96718 0.0
H1750 H 0.23143 0.33322 0.04781 0.0
H1751 H 0.21376 0.33631 0.08044 0.0
H1752 H 0.19545 0.3965 0.06517 0.0
H1753 H 0.21322 0.39383 0.0326 0.0
C1754 C 0.3215 0.34849 0.98951 0.0
C1755 C 0.33065 0.36497 0.9992 0.0
C1756 C 0.30058 0.34575 0.99058 0.0
C1757 C 0.2885 0.35948 0.00131 0.0
C1758 C 0.29779 0.3752 0.01194 0.0
C1759 C 0.31861 0.37794 0.01087 0.0
C1760 C 0.26614 0.35883 1.00018 0.0
C1761 C 0.25499 0.35885 0.01819 0.0
C1762 C 0.25581 0.36031 0.98156 0.0
C1763 C 0.26663 0.36129 0.96204 0.0
C1764 C 0.28008 0.37715 0.95794 0.0
C1765 C 0.29034 0.37787 0.93954 0.0
C1766 C 0.28713 0.36292 0.92506 0.0
C1767 C 0.27359 0.34725 0.92894 0.0
C1768 C 0.26331 0.34644 0.94733 0.0
C1769 C 0.176 0.39284 0.98987 0.0
C1770 C 0.16136 0.38123 0.99987 0.0
C1771 C 0.19604 0.38651 0.98915 0.0
C1772 C 0.20195 0.3685 0.99852 0.0
C1773 C 0.18726 0.35642 0.00786 0.0
C1774 C 0.1671 0.36274 0.00853 0.0
C1775 C 0.22372 0.36334 0.99949 0.0
C1776 C 0.23475 0.36227 0.98146 0.0
C1777 C 0.23397 0.36134 0.0181 0.0
C1778 C 0.22341 0.3632 0.03769 0.0
C1779 C 0.22365 0.34711 0.05146 0.0
C1780 C 0.21363 0.34879 0.06993 0.0
C1781 C 0.20342 0.36656 0.07484 0.0
C1782 C 0.20329 0.38271 0.06132 0.0
C1783 C 0.21331 0.38112 0.04285 0.0
H1784 H 0.19565 0.36782 0.08914 0.0
H1785 H 0.29509 0.3635 0.91083 0.0
H1786 H 0.17609 0.59554 0.53926 0.0
H1787 H 0.21069 0.60688 0.53484 0.0
H1788 H 0.18997 0.65691 0.4988 0.0
H1789 H 0.15507 0.6454 0.50295 0.0
H1790 H 0.21959 0.63799 0.48022 0.0
H1791 H 0.21113 0.66533 0.54524 0.0
H1792 H 0.201 0.66661 0.58098 0.0
H1793 H 0.24279 0.61916 0.59486 0.0
H1794 H 0.25297 0.61738 0.55916 0.0
H1795 H 0.33401 0.65384 0.51234 0.0
H1796 H 0.29817 0.66231 0.51578 0.0
H1797 H 0.28247 0.60948 0.48131 0.0
H1798 H 0.31801 0.60117 0.47757 0.0
H1799 H 0.27047 0.64146 0.53489 0.0
H1800 H 0.23936 0.6149 0.45681 0.0
H1801 H 0.24936 0.61637 0.42104 0.0
H1802 H 0.28638 0.66803 0.43309 0.0
H1803 H 0.27639 0.66707 0.46888 0.0
C1804 C 0.1788 0.60915 0.53065 0.0
C1805 C 0.1628 0.61953 0.5214 0.0
C1806 C 0.19864 0.6157 0.52823 0.0
C1807 C 0.20297 0.63287 0.51663 0.0
C1808 C 0.18699 0.64366 0.50787 0.0
C1809 C 0.16705 0.6371 0.51032 0.0
C1810 C 0.22431 0.63825 0.51234 0.0
C1811 C 0.2307 0.639 0.49217 0.0
C1812 C 0.23877 0.64018 0.52791 0.0
C1813 C 0.23276 0.64118 0.54947 0.0
C1814 C 0.21807 0.65507 0.55588 0.0
C1815 C 0.21233 0.6559 0.57615 0.0
C1816 C 0.22123 0.64296 0.59018 0.0
C1817 C 0.23591 0.62918 0.58398 0.0
C1818 C 0.2417 0.62829 0.56373 0.0
C1819 C 0.32292 0.64429 0.50514 0.0
C1820 C 0.32886 0.6268 0.49473 0.0
C1821 C 0.30244 0.64911 0.50718 0.0
C1822 C 0.28759 0.63663 0.49869 0.0
C1823 C 0.2936 0.61958 0.48769 0.0
C1824 C 0.31398 0.61476 0.48567 0.0
C1825 C 0.26581 0.6401 0.50278 0.0
C1826 C 0.25934 0.64096 0.52292 0.0
C1827 C 0.25126 0.64004 0.48717 0.0
C1828 C 0.25718 0.64084 0.46559 0.0
C1829 C 0.24953 0.62666 0.45182 0.0
C1830 C 0.25523 0.62738 0.43154 0.0
C1831 C 0.26852 0.64226 0.4248 0.0
C1832 C 0.27613 0.65647 0.43834 0.0
C1833 C 0.27048 0.65582 0.45863 0.0
H1834 H 0.27292 0.64279 0.4091 0.0
H1835 H 0.21677 0.64362 0.60586 0.0
H1836 H 0.66594 0.82526 0.51384 0.0
H1837 H 0.70193 0.82043 0.52084 0.0
H1838 H 0.7169 0.85842 0.47023 0.0
H1839 H 0.68112 0.8637 0.46349 0.0
H1840 H 0.73647 0.80746 0.50213 0.0
H1841 H 0.75239 0.89135 0.48421 0.0
H1842 H 0.73415 0.92377 0.48346 0.0
H1843 H 0.69226 0.90164 0.52759 0.0
H1844 H 0.71043 0.86922 0.52883 0.0
H1845 H 0.84248 0.82864 0.49805 0.0
H1846 H 0.80641 0.82279 0.49283 0.0
H1847 H 0.79283 0.86076 0.54388 0.0
H1848 H 0.82871 0.86723 0.54863 0.0
H1849 H 0.77158 0.87233 0.51431 0.0
H1850 H 0.78482 0.80804 0.54362 0.0
H1851 H 0.80203 0.77538 0.54797 0.0
H1852 H 0.78449 0.75781 0.48822 0.0
H1853 H 0.7674 0.79049 0.4834 0.0
C1854 C 0.67692 0.8322 0.50394 0.0
C1855 C 0.67072 0.84512 0.48831 0.0
C1856 C 0.69748 0.82941 0.50795 0.0
C1857 C 0.71208 0.83941 0.49632 0.0
C1858 C 0.70588 0.85087 0.47964 0.0
C1859 C 0.68541 0.85385 0.47579 0.0
C1860 C 0.73353 0.83976 0.50276 0.0
C1861 C 0.74422 0.8216 0.50478 0.0
C1862 C 0.74346 0.8582 0.50679 0.0
C1863 C 0.73266 0.8778 0.50645 0.0
C1864 C 0.73935 0.89345 0.49382 0.0
C1865 C 0.72901 0.91182 0.4933 0.0
C1866 C 0.71202 0.91474 0.50542 0.0
C1867 C 0.70538 0.89933 0.51816 0.0
C1868 C 0.71569 0.88096 0.51877 0.0
C1869 C 0.83179 0.83541 0.50838 0.0
C1870 C 0.8384 0.84851 0.52366 0.0
C1871 C 0.81116 0.832 0.50543 0.0
C1872 C 0.79681 0.84132 0.51797 0.0
C1873 C 0.80354 0.85352 0.5339 0.0
C1874 C 0.82408 0.85717 0.53664 0.0
C1875 C 0.77485 0.84 0.51345 0.0
C1876 C 0.76398 0.85809 0.51173 0.0
C1877 C 0.76473 0.82147 0.51026 0.0
C1878 C 0.77499 0.80179 0.51309 0.0
C1879 C 0.78477 0.79728 0.53135 0.0
C1880 C 0.79448 0.77875 0.53391 0.0
C1881 C 0.7944 0.76455 0.51836 0.0
C1882 C 0.78456 0.76883 0.50024 0.0
C1883 C 0.77484 0.78735 0.4976 0.0
H1884 H 0.80192 0.75021 0.52038 0.0
H1885 H 0.70402 0.92896 0.50497 0.0
H1886 H 0.4994 0.84592 0.82942 0.0
H1887 H 0.48872 0.8115 0.82115 0.0
H1888 H 0.53241 0.78782 0.86303 0.0
H1889 H 0.54301 0.82196 0.87149 0.0
H1890 H 0.50685 0.77509 0.80776 0.0
H1891 H 0.50873 0.75376 0.89221 0.0
H1892 H 0.50598 0.77039 0.92536 0.0
H1893 H 0.47035 0.81762 0.89909 0.0
H1894 H 0.47262 0.80111 0.86587 0.0
H1895 H 0.50382 0.66906 0.82733 0.0
H1896 H 0.5099 0.70498 0.82186 0.0
H1897 H 0.45272 0.71894 0.84963 0.0
H1898 H 0.44686 0.68312 0.85566 0.0
H1899 H 0.4808 0.73854 0.86762 0.0
H1900 H 0.46285 0.72922 0.79885 0.0
H1901 H 0.46343 0.71349 0.76519 0.0
H1902 H 0.52606 0.72855 0.75878 0.0
H1903 H 0.52593 0.74413 0.79253 0.0
C1904 C 0.50701 0.83336 0.83655 0.0
C1905 C 0.52185 0.83668 0.85133 0.0
C1906 C 0.50092 0.81371 0.83176 0.0
C1907 C 0.50956 0.79716 0.84171 0.0
C1908 C 0.52537 0.80041 0.85537 0.0
C1909 C 0.5314 0.81996 0.8602 0.0
C1910 C 0.50082 0.7767 0.8396 0.0
C1911 C 0.5011 0.76704 0.82078 0.0
C1912 C 0.49283 0.76645 0.85651 0.0
C1913 C 0.49101 0.77628 0.87653 0.0
C1914 C 0.50022 0.76764 0.89354 0.0
C1915 C 0.49876 0.77705 0.91233 0.0
C1916 C 0.48804 0.79508 0.91432 0.0
C1917 C 0.4787 0.80369 0.89752 0.0
C1918 C 0.48008 0.79432 0.8787 0.0
C1919 C 0.49228 0.67975 0.83174 0.0
C1920 C 0.47496 0.67328 0.84212 0.0
C1921 C 0.49575 0.70031 0.82855 0.0
C1922 C 0.48181 0.71473 0.8354 0.0
C1923 C 0.46378 0.70813 0.84435 0.0
C1924 C 0.46042 0.68763 0.84774 0.0
C1925 C 0.48716 0.73651 0.8358 0.0
C1926 C 0.48633 0.74649 0.85443 0.0
C1927 C 0.49426 0.74706 0.81862 0.0
C1928 C 0.49441 0.73772 0.7983 0.0
C1929 C 0.47679 0.72904 0.79034 0.0
C1930 C 0.47703 0.72018 0.77122 0.0
C1931 C 0.49478 0.71999 0.75987 0.0
C1932 C 0.51232 0.7287 0.76759 0.0
C1933 C 0.51216 0.73758 0.7867 0.0
H1934 H 0.49493 0.71312 0.74508 0.0
H1935 H 0.48696 0.80236 0.92887 0.0
H1936 H 0.50138 0.32473 0.59907 0.0
H1937 H 0.50204 0.28873 0.6054 0.0
H1938 H 0.52025 0.29946 0.6669 0.0
H1939 H 0.52011 0.33596 0.66045 0.0
H1940 H 0.54214 0.26997 0.65108 0.0
H1941 H 0.47235 0.28219 0.65647 0.0
H1942 H 0.43901 0.29615 0.64782 0.0
H1943 H 0.43944 0.26345 0.59199 0.0
H1944 H 0.47292 0.24952 0.60013 0.0
H1945 H 0.51853 0.15879 0.65285 0.0
H1946 H 0.51607 0.19453 0.66257 0.0
H1947 H 0.52545 0.212 0.6007 0.0
H1948 H 0.52838 0.17672 0.59094 0.0
H1949 H 0.48656 0.22606 0.62714 0.0
H1950 H 0.5612 0.22193 0.62085 0.0
H1951 H 0.59394 0.20771 0.6313 0.0
H1952 H 0.58196 0.22457 0.69265 0.0
H1953 H 0.549 0.23865 0.68254 0.0
C1954 C 0.50538 0.31954 0.61403 0.0
C1955 C 0.51063 0.33325 0.62929 0.0
C1956 C 0.50562 0.29888 0.61767 0.0
C1957 C 0.5108 0.29135 0.63675 0.0
C1958 C 0.51605 0.30495 0.6521 0.0
C1959 C 0.51593 0.32577 0.64841 0.0
C1960 C 0.51159 0.26919 0.63993 0.0
C1961 C 0.52977 0.2604 0.64633 0.0
C1962 C 0.49543 0.25658 0.63392 0.0
C1963 C 0.47522 0.26485 0.62891 0.0
C1964 C 0.4654 0.27806 0.64229 0.0
C1965 C 0.44646 0.28596 0.63748 0.0
C1966 C 0.43712 0.2807 0.61936 0.0
C1967 C 0.44669 0.2675 0.60603 0.0
C1968 C 0.46564 0.25957 0.61075 0.0
C1969 C 0.52036 0.17028 0.6414 0.0
C1970 C 0.52362 0.16493 0.62112 0.0
C1971 C 0.51895 0.19062 0.64698 0.0
C1972 C 0.5206 0.20576 0.63231 0.0
C1973 C 0.52421 0.20046 0.6122 0.0
C1974 C 0.52591 0.18028 0.60668 0.0
C1975 C 0.5173 0.22718 0.63729 0.0
C1976 C 0.49861 0.23573 0.63245 0.0
C1977 C 0.53281 0.2395 0.64501 0.0
C1978 C 0.55256 0.23104 0.65101 0.0
C1979 C 0.56545 0.22238 0.63659 0.0
C1980 C 0.58407 0.21441 0.64244 0.0
C1981 C 0.58999 0.21516 0.66264 0.0
C1982 C 0.57733 0.22395 0.67702 0.0
C1983 C 0.55869 0.23193 0.67124 0.0
H1984 H 0.60441 0.20899 0.66714 0.0
H1985 H 0.42246 0.28684 0.61567 0.0
H1986 H 0.84068 0.49582 0.84919 0.0
H1987 H 0.83132 0.48591 0.81485 0.0
H1988 H 0.84857 0.5446 0.793 0.0
H1989 H 0.85856 0.55443 0.82717 0.0
H1990 H 0.80943 0.52221 0.77518 0.0
H1991 H 0.88296 0.51808 0.78793 0.0
H1992 H 0.9116 0.50667 0.80873 0.0
H1993 H 0.8913 0.44543 0.80365 0.0
H1994 H 0.86235 0.45658 0.78306 0.0
H1995 H 0.83599 0.51455 0.67218 0.0
H1996 H 0.82952 0.52096 0.70778 0.0
H1997 H 0.84495 0.45925 0.72172 0.0
H1998 H 0.85287 0.45333 0.68621 0.0
H1999 H 0.86382 0.48024 0.74554 0.0
H2000 H 0.79471 0.48163 0.7275 0.0
H2001 H 0.76428 0.49082 0.70826 0.0
H2002 H 0.77238 0.55296 0.72437 0.0
H2003 H 0.80303 0.54419 0.74348 0.0
C2004 C 0.84196 0.5068 0.83717 0.0
C2005 C 0.85048 0.52585 0.8408 0.0
C2006 C 0.83659 0.50111 0.81759 0.0
C2007 C 0.83926 0.51455 0.80148 0.0
C2008 C 0.84628 0.5341 0.80531 0.0
C2009 C 0.85207 0.53964 0.82479 0.0
C2010 C 0.83772 0.50733 0.78045 0.0
C2011 C 0.82127 0.51309 0.76853 0.0
C2012 C 0.85285 0.49488 0.77215 0.0
C2013 C 0.87041 0.48818 0.78419 0.0
C2014 C 0.88453 0.50221 0.7914 0.0
C2015 C 0.90083 0.49579 0.80312 0.0
C2016 C 0.90324 0.47534 0.80756 0.0
C2017 C 0.88939 0.46127 0.80023 0.0
C2018 C 0.87305 0.46763 0.78854 0.0
C2019 C 0.83753 0.50224 0.6828 0.0
C2020 C 0.84497 0.48346 0.67649 0.0
C2021 C 0.8337 0.50587 0.70322 0.0
C2022 C 0.83655 0.49057 0.71764 0.0
C2023 C 0.84274 0.47139 0.71103 0.0
C2024 C 0.84716 0.46795 0.69071 0.0
C2025 C 0.83545 0.49518 0.73964 0.0
C2026 C 0.85159 0.48902 0.75193 0.0
C2027 C 0.81972 0.50688 0.74829 0.0
C2028 C 0.80128 0.51225 0.73681 0.0
C2029 C 0.79009 0.49728 0.72682 0.0
C2030 C 0.77278 0.50241 0.71596 0.0
C2031 C 0.76642 0.52247 0.71506 0.0
C2032 C 0.77733 0.53743 0.72507 0.0
C2033 C 0.79466 0.53238 0.73595 0.0
H2034 H 0.75302 0.52641 0.70664 0.0
H2035 H 0.91586 0.4704 0.81664 0.0
H2036 H 0.17667 0.98128 0.66594 0.0
H2037 H 0.18209 0.98047 0.70251 0.0
H2038 H 0.12401 0.00835 0.7117 0.0
H2039 H 0.11885 0.00982 0.67547 0.0
H2040 H 0.14891 0.02299 0.73772 0.0
H2041 H 0.13209 0.95558 0.71435 0.0
H2042 H 0.1374 0.92484 0.69409 0.0
H2043 H 0.19568 0.91669 0.72108 0.0
H2044 H 0.19077 0.94752 0.74133 0.0
H2045 H 0.11732 0.95937 0.82754 0.0
H2046 H 0.12632 0.96189 0.79199 0.0
H2047 H 0.17227 0.00552 0.80645 0.0
H2048 H 0.16322 0.00317 0.84223 0.0
H2049 H 0.15957 0.95598 0.76918 0.0
H2050 H 0.17039 0.04193 0.76901 0.0
H2051 H 0.16045 0.07176 0.78892 0.0
H2052 H 0.10682 0.04126 0.80854 0.0
H2053 H 0.11632 0.01139 0.78856 0.0
C2054 C 0.16521 0.9875 0.67578 0.0
C2055 C 0.14727 0.99549 0.66778 0.0
C2056 C 0.16828 0.98694 0.69668 0.0
C2057 C 0.15332 0.99407 0.70993 0.0
C2058 C 0.13581 0.00277 0.70186 0.0
C2059 C 0.13284 0.00353 0.68107 0.0
C2060 C 0.15505 0.99157 0.73217 0.0
C2061 C 0.15154 0.00837 0.74457 0.0
C2062 C 0.15828 0.97249 0.74123 0.0
C2063 C 0.16117 0.95395 0.72915 0.0
C2064 C 0.14608 0.94729 0.71585 0.0
C2065 C 0.14901 0.92985 0.7044 0.0
C2066 C 0.16689 0.91886 0.70625 0.0
C2067 C 0.18186 0.92524 0.71962 0.0
C2068 C 0.17901 0.94269 0.7311 0.0
C2069 C 0.12954 0.96931 0.82324 0.0
C2070 C 0.13943 0.98121 0.8377 0.0
C2071 C 0.13474 0.97065 0.80289 0.0
C2072 C 0.14983 0.98403 0.79652 0.0
C2073 C 0.16045 0.99522 0.81102 0.0
C2074 C 0.1553 0.99381 0.83146 0.0
C2075 C 0.15308 0.98731 0.77461 0.0
C2076 C 0.15752 0.97068 0.76231 0.0
C2077 C 0.15017 0.00643 0.76559 0.0
C2078 C 0.14423 0.02436 0.77753 0.0
C2079 C 0.15648 0.04162 0.77757 0.0
C2080 C 0.15091 0.05853 0.78885 0.0
C2081 C 0.13306 0.05838 0.80006 0.0
C2082 C 0.12069 0.04134 0.79993 0.0
C2083 C 0.12617 0.02441 0.78865 0.0
H2084 H 0.12879 0.07147 0.80879 0.0
H2085 H 0.16914 0.90536 0.69737 0.0
H2086 H 0.82567 0.11941 0.96841 0.0
H2087 H 0.79032 0.12912 0.9696 0.0
H2088 H 0.80612 0.18396 0.00073 0.0
H2089 H 0.84177 0.1741 0.9999 0.0
H2090 H 0.77591 0.16614 0.0192 0.0
H2091 H 0.78838 0.18572 0.95205 0.0
H2092 H 0.80127 0.1831 0.91728 0.0
H2093 H 0.76263 0.13236 0.90646 0.0
H2094 H 0.74971 0.13447 0.94125 0.0
H2095 H 0.66385 0.173 0.97719 0.0
H2096 H 0.69959 0.18224 0.97497 0.0
H2097 H 0.71434 0.13508 0.01728 0.0
H2098 H 0.67889 0.12609 0.01984 0.0
H2099 H 0.72941 0.16053 0.96093 0.0
H2100 H 0.75514 0.1453 0.0439 0.0
H2101 H 0.74225 0.15079 0.07833 0.0
H2102 H 0.70456 0.19888 0.05696 0.0
H2103 H 0.71743 0.1939 0.02245 0.0
C2104 C 0.82172 0.13368 0.9753 0.0
C2105 C 0.83656 0.14596 0.98409 0.0
C2106 C 0.80146 0.13929 0.97585 0.0
C2107 C 0.79553 0.1574 0.98504 0.0
C2108 C 0.81034 0.16995 0.99348 0.0
C2109 C 0.83071 0.16432 0.99295 0.0
C2110 C 0.77372 0.16221 0.98706 0.0
C2111 C 0.76575 0.16515 0.00644 0.0
C2112 C 0.76048 0.16157 0.97033 0.0
C2113 C 0.76813 0.16022 0.94932 0.0
C2114 C 0.78272 0.17392 0.9423 0.0
C2115 C 0.79002 0.17254 0.92258 0.0
C2116 C 0.78278 0.15756 0.90968 0.0
C2117 C 0.76821 0.14396 0.91647 0.0
C2118 C 0.76087 0.14527 0.93618 0.0
C2119 C 0.67469 0.16488 0.9863 0.0
C2120 C 0.66852 0.14879 0.99867 0.0
C2121 C 0.69511 0.17013 0.98497 0.0
C2122 C 0.70967 0.15949 0.99609 0.0
C2123 C 0.70341 0.14381 0.00885 0.0
C2124 C 0.68308 0.13859 0.0102 0.0
C2125 C 0.73157 0.16335 0.9932 0.0
C2126 C 0.73957 0.162 0.97365 0.0
C2127 C 0.74483 0.1659 0.00973 0.0
C2128 C 0.7372 0.16914 0.03053 0.0
C2129 C 0.7442 0.15714 0.04655 0.0
C2130 C 0.73687 0.16014 0.06608 0.0
C2131 C 0.72257 0.17515 0.06982 0.0
C2132 C 0.7156 0.18722 0.05404 0.0
C2133 C 0.72289 0.18429 0.03448 0.0
H2134 H 0.71691 0.17744 0.08495 0.0
H2135 H 0.78846 0.15651 0.89441 0.0
H2136 H 0.01735 0.9296 0.21101 0.0
H2137 H 0.02112 0.95182 0.2402 0.0
H2138 H 0.07177 0.9809 0.21152 0.0
H2139 H 0.06757 0.95926 0.18205 0.0
H2140 H 0.04722 0.96146 0.26766 0.0
H2141 H 0.07045 0.03093 0.21961 0.0
H2142 H 0.06617 0.04362 0.1849 0.0
H2143 H 0.01188 0.00896 0.1786 0.0
H2144 H 0.01568 0.99631 0.21336 0.0
H2145 H 0.07195 0.03719 0.33659 0.0
H2146 H 0.07429 0.01514 0.30721 0.0
H2147 H 0.02255 0.04463 0.28099 0.0
H2148 H 0.0207 0.0673 0.31002 0.0
H2149 H 0.04671 0.0347 0.25234 0.0
H2150 H 0.01855 0.99981 0.30853 0.0
H2151 H 0.01688 0.9871 0.34343 0.0
H2152 H 0.07073 0.95248 0.33373 0.0
H2153 H 0.07289 0.96523 0.29884 0.0
C2154 C 0.02957 0.94043 0.21113 0.0
C2155 C 0.04202 0.94285 0.19417 0.0
C2156 C 0.03169 0.95317 0.22781 0.0
C2157 C 0.0464 0.96841 0.22785 0.0
C2158 C 0.05995 0.96964 0.21162 0.0
C2159 C 0.05764 0.95715 0.19484 0.0
C2160 C 0.04671 0.98382 0.24413 0.0
C2161 C 0.04723 0.97746 0.2643 0.0
C2162 C 0.04606 0.00475 0.23983 0.0
C2163 C 0.0435 0.01251 0.219 0.0
C2164 C 0.05757 0.02608 0.21084 0.0
C2165 C 0.05522 0.03326 0.19115 0.0
C2166 C 0.0388 0.02704 0.17953 0.0
C2167 C 0.02463 0.01371 0.18759 0.0
C2168 C 0.02688 0.00652 0.20728 0.0
C2169 C 0.06136 0.03927 0.32435 0.0
C2170 C 0.04605 0.05387 0.32565 0.0
C2171 C 0.06259 0.02654 0.30763 0.0
C2172 C 0.04823 0.0278 0.29213 0.0
C2173 C 0.03373 0.04325 0.29281 0.0
C2174 C 0.03271 0.05625 0.30939 0.0
C2175 C 0.04761 0.01235 0.27588 0.0
C2176 C 0.04694 0.0187 0.25571 0.0
C2177 C 0.04728 0.99141 0.28021 0.0
C2178 C 0.04599 0.98363 0.30115 0.0
C2179 C 0.03011 0.9896 0.31389 0.0
C2180 C 0.02907 0.98237 0.33366 0.0
C2181 C 0.04372 0.96903 0.34081 0.0
C2182 C 0.05942 0.96284 0.32818 0.0
C2183 C 0.06055 0.97005 0.3084 0.0
H2184 H 0.04288 0.96345 0.35612 0.0
H2185 H 0.03703 0.0326 0.16429 0.0
H2186 H 0.94239 0.4717 0.3414 0.0
H2187 H 0.93593 0.49365 0.31283 0.0
H2188 H 0.93709 0.44235 0.27288 0.0
H2189 H 0.94439 0.4202 0.30159 0.0
H2190 H 0.95866 0.47094 0.25749 0.0
H2191 H 0.89225 0.46901 0.28456 0.0
H2192 H 0.86579 0.47095 0.31061 0.0
H2193 H 0.88083 0.53287 0.32177 0.0
H2194 H 0.90758 0.53124 0.29599 0.0
H2195 H 0.9308 0.53038 0.17456 0.0
H2196 H 0.92557 0.5064 0.20192 0.0
H2197 H 0.93859 0.55284 0.24542 0.0
H2198 H 0.94394 0.5771 0.21802 0.0
H2199 H 0.9069 0.52501 0.25712 0.0
H2200 H 0.97558 0.52486 0.23191 0.0
H2201 H 0.00078 0.52291 0.20461 0.0
H2202 H 0.97966 0.46381 0.18892 0.0
H2203 H 0.95409 0.46556 0.21595 0.0
C2204 C 0.941 0.46496 0.3266 0.0
C2205 C 0.94388 0.44415 0.32379 0.0
C2206 C 0.93716 0.47758 0.31023 0.0
C2207 C 0.93569 0.46969 0.29066 0.0
C2208 C 0.93809 0.44881 0.28783 0.0
C2209 C 0.94218 0.43615 0.30425 0.0
C2210 C 0.93307 0.48351 0.27316 0.0
C2211 C 0.94705 0.48245 0.25727 0.0
C2212 C 0.91816 0.49886 0.27293 0.0
C2213 C 0.90203 0.49995 0.28842 0.0
C2214 C 0.89001 0.483 0.29266 0.0
C2215 C 0.87494 0.48405 0.30737 0.0
C2216 C 0.87165 0.50201 0.31786 0.0
C2217 C 0.8834 0.51897 0.31364 0.0
C2218 C 0.8985 0.518 0.29895 0.0
C2219 C 0.93213 0.53567 0.18994 0.0
C2220 C 0.93803 0.55561 0.19412 0.0
C2221 C 0.92915 0.52191 0.20556 0.0
C2222 C 0.932 0.52779 0.22564 0.0
C2223 C 0.93637 0.54803 0.22998 0.0
C2224 C 0.93943 0.56186 0.21432 0.0
C2225 C 0.93254 0.5124 0.24181 0.0
C2226 C 0.91828 0.51325 0.25737 0.0
C2227 C 0.94705 0.49674 0.24168 0.0
C2228 C 0.9628 0.49542 0.22583 0.0
C2229 C 0.97624 0.5115 0.22257 0.0
C2230 C 0.99059 0.51042 0.20715 0.0
C2231 C 0.99179 0.49326 0.19501 0.0
C2232 C 0.97869 0.4771 0.19833 0.0
C2233 C 0.96428 0.47812 0.2137 0.0
H2234 H 0.0029 0.49248 0.18308 0.0
H2235 H 0.85998 0.50279 0.32925 0.0
H2236 H 0.20286 0.02955 0.92279 0.0
H2237 H 0.23327 0.03693 0.94239 0.0
H2238 H 0.19805 0.03672 0.99712 0.0
H2239 H 0.16767 0.03023 0.97765 0.0
H2240 H 0.22517 0.06413 0.00045 0.0
H2241 H 0.2257 0.99463 0.98045 0.0
H2242 H 0.22464 0.96605 0.95672 0.0
H2243 H 0.27803 0.98795 0.92736 0.0
H2244 H 0.27926 0.01682 0.95077 0.0
H2245 H 0.30339 0.03299 0.06995 0.0
H2246 H 0.27297 0.03592 0.04906 0.0
H2247 H 0.30975 0.04979 0.99728 0.0
H2248 H 0.34003 0.04719 0.01792 0.0
H2249 H 0.28275 0.01719 0.99176 0.0
H2250 H 0.28264 0.08573 0.01569 0.0
H2251 H 0.28305 0.11227 0.04168 0.0
H2252 H 0.22785 0.08933 0.06655 0.0
H2253 H 0.22726 0.06246 0.04086 0.0
C2254 C 0.20158 0.0314 0.93896 0.0
C2255 C 0.18289 0.02916 0.94866 0.0
C2256 C 0.21899 0.0355 0.95018 0.0
C2257 C 0.21805 0.03696 0.97132 0.0
C2258 C 0.19922 0.03563 0.98087 0.0
C2259 C 0.18184 0.03186 0.96967 0.0
C2260 C 0.23667 0.03875 0.9837 0.0
C2261 C 0.23769 0.05376 0.99862 0.0
C2262 C 0.25313 0.02534 0.9813 0.0
C2263 C 0.25243 0.008 0.9672 0.0
C2264 C 0.23713 0.99343 0.96883 0.0
C2265 C 0.23651 0.97717 0.95546 0.0
C2266 C 0.25122 0.97522 0.9405 0.0
C2267 C 0.26662 0.9895 0.93892 0.0
C2268 C 0.26729 0.00581 0.95224 0.0
C2269 C 0.30495 0.03703 0.0542 0.0
C2270 C 0.32413 0.03978 0.04559 0.0
C2271 C 0.28758 0.03871 0.04231 0.0
C2272 C 0.28917 0.04302 0.02163 0.0
C2273 C 0.30823 0.04642 0.01319 0.0
C2274 C 0.32552 0.04497 0.02506 0.0
C2275 C 0.27118 0.04251 0.00842 0.0
C2276 C 0.27028 0.02766 0.99342 0.0
C2277 C 0.25472 0.05578 0.01105 0.0
C2278 C 0.25501 0.07196 0.02646 0.0
C2279 C 0.27068 0.08623 0.02681 0.0
C2280 C 0.27093 0.10136 0.04146 0.0
C2281 C 0.25552 0.10245 0.05579 0.0
C2282 C 0.23979 0.08845 0.05546 0.0
C2283 C 0.23949 0.07328 0.04084 0.0
H2284 H 0.25573 0.11418 0.06713 0.0
H2285 H 0.25072 0.96262 0.93016 0.0
H2286 H 0.66319 0.48882 0.01084 0.0
H2287 H 0.69459 0.48235 0.99314 0.0
H2288 H 0.7273 0.48645 0.0492 0.0
H2289 H 0.69569 0.49367 0.06708 0.0
H2290 H 0.74602 0.50713 0.0215 0.0
H2291 H 0.72019 0.44045 0.02417 0.0
H2292 H 0.69508 0.41328 0.0208 0.0
H2293 H 0.6913 0.42425 0.95713 0.0
H2294 H 0.71618 0.45169 0.96014 0.0
H2295 H 0.83589 0.47834 0.97323 0.0
H2296 H 0.8062 0.47335 0.99434 0.0
H2297 H 0.76772 0.48358 0.94299 0.0
H2298 H 0.79746 0.48876 0.92163 0.0
H2299 H 0.75393 0.45254 0.97094 0.0
H2300 H 0.77786 0.5217 0.97015 0.0
H2301 H 0.80426 0.54756 0.97403 0.0
H2302 H 0.81258 0.5302 0.03582 0.0
H2303 H 0.78651 0.50391 0.03218 0.0
C2304 C 0.677 0.48814 0.01952 0.0
C2305 C 0.67692 0.49172 0.04041 0.0
C2306 C 0.69499 0.4843 0.00935 0.0
C2307 C 0.71333 0.48355 0.01984 0.0
C2308 C 0.71332 0.48686 0.04078 0.0
C2309 C 0.69526 0.49092 0.05099 0.0
C2310 C 0.7325 0.48054 0.0086 0.0
C2311 C 0.74787 0.49492 0.01078 0.0
C2312 C 0.7349 0.46479 0.99434 0.0
C2313 C 0.71997 0.44823 0.99241 0.0
C2314 C 0.71391 0.43717 0.00946 0.0
C2315 C 0.69973 0.4217 0.00762 0.0
C2316 C 0.69157 0.41706 0.98877 0.0
C2317 C 0.69762 0.42786 0.97172 0.0
C2318 C 0.71179 0.44335 0.97348 0.0
C2319 C 0.82115 0.47906 0.96625 0.0
C2320 C 0.81902 0.48418 0.94577 0.0
C2321 C 0.8042 0.47623 0.97838 0.0
C2322 C 0.78483 0.47839 0.97026 0.0
C2323 C 0.7826 0.48189 0.94951 0.0
C2324 C 0.79959 0.48486 0.93734 0.0
C2325 C 0.76708 0.47922 0.98375 0.0
C2326 C 0.75206 0.46451 0.98191 0.0
C2327 C 0.76508 0.49452 0.99848 0.0
C2328 C 0.78038 0.51068 0.00083 0.0
C2329 C 0.78542 0.52329 0.98453 0.0
C2330 C 0.80033 0.53803 0.98668 0.0
C2331 C 0.81014 0.54048 0.00514 0.0
C2332 C 0.805 0.52825 0.02152 0.0
C2333 C 0.79016 0.51342 0.01941 0.0
H2334 H 0.82168 0.55189 0.00678 0.0
H2335 H 0.6806 0.40508 0.98737 0.0
H2336 H 0.30479 0.94648 0.41488 0.0
H2337 H 0.27479 0.94042 0.43558 0.0
H2338 H 0.31244 0.93324 0.48812 0.0
H2339 H 0.34234 0.93838 0.46748 0.0
H2340 H 0.28199 0.90928 0.49174 0.0
H2341 H 0.28992 0.97934 0.4752 0.0
H2342 H 0.2937 0.00872 0.45273 0.0
H2343 H 0.23652 0.9956 0.4254 0.0
H2344 H 0.23254 0.96596 0.44756 0.0
H2345 H 0.21363 0.94701 0.56785 0.0
H2346 H 0.24175 0.94026 0.54474 0.0
H2347 H 0.20011 0.93681 0.49497 0.0
H2348 H 0.17207 0.94336 0.51782 0.0
H2349 H 0.23123 0.96414 0.4889 0.0
H2350 H 0.22283 0.89527 0.51001 0.0
H2351 H 0.22018 0.86769 0.53478 0.0
H2352 H 0.27968 0.88097 0.55647 0.0
H2353 H 0.28259 0.90883 0.53201 0.0
C2354 C 0.30667 0.94315 0.43075 0.0
C2355 C 0.32593 0.94314 0.43956 0.0
C2356 C 0.28951 0.93983 0.44261 0.0
C2357 C 0.2913 0.93689 0.46355 0.0
C2358 C 0.3106 0.93556 0.47206 0.0
C2359 C 0.32773 0.93857 0.46019 0.0
C2360 C 0.27323 0.93684 0.47689 0.0
C2361 C 0.27095 0.92134 0.49117 0.0
C2362 C 0.25871 0.95249 0.47617 0.0
C2363 C 0.26105 0.97031 0.46286 0.0
C2364 C 0.27823 0.98264 0.4643 0.0
C2365 C 0.2804 0.99935 0.45163 0.0
C2366 C 0.26539 0.00399 0.4376 0.0
C2367 C 0.24816 0.99196 0.43625 0.0
C2368 C 0.24593 0.97521 0.44886 0.0
C2369 C 0.21044 0.94442 0.55206 0.0
C2370 C 0.19062 0.94584 0.54467 0.0
C2371 C 0.22651 0.94054 0.53887 0.0
C2372 C 0.22299 0.93807 0.51813 0.0
C2373 C 0.20315 0.9387 0.51091 0.0
C2374 C 0.18713 0.94242 0.52404 0.0
C2375 C 0.24 0.93661 0.50368 0.0
C2376 C 0.24213 0.95194 0.48928 0.0
C2377 C 0.25455 0.92105 0.50462 0.0
C2378 C 0.25285 0.90426 0.51929 0.0
C2379 C 0.23529 0.89243 0.52018 0.0
C2380 C 0.23375 0.87671 0.53414 0.0
C2381 C 0.24973 0.87261 0.54723 0.0
C2382 C 0.26731 0.88418 0.54634 0.0
C2383 C 0.26892 0.89992 0.53241 0.0
H2384 H 0.24852 0.86044 0.55803 0.0
H2385 H 0.26709 0.01693 0.42782 0.0
H2386 H 0.81301 0.54069 0.55376 0.0
H2387 H 0.78063 0.54305 0.53673 0.0
H2388 H 0.75206 0.512 0.58624 0.0
H2389 H 0.7847 0.50929 0.60334 0.0
H2390 H 0.74442 0.49369 0.55174 0.0
H2391 H 0.73922 0.56116 0.5744 0.0
H2392 H 0.75031 0.59593 0.58131 0.0
H2393 H 0.75903 0.60614 0.51798 0.0
H2394 H 0.74827 0.57134 0.5107 0.0
H2395 H 0.6549 0.49491 0.49147 0.0
H2396 H 0.67851 0.49969 0.51938 0.0
H2397 H 0.7178 0.53378 0.48029 0.0
H2398 H 0.6941 0.52945 0.45252 0.0
H2399 H 0.71507 0.55194 0.51526 0.0
H2400 H 0.72755 0.48283 0.49406 0.0
H2401 H 0.71976 0.4471 0.48743 0.0
H2402 H 0.69844 0.44009 0.54817 0.0
H2403 H 0.70617 0.4758 0.55516 0.0
C2404 C 0.79977 0.53483 0.56132 0.0
C2405 C 0.80146 0.52465 0.57984 0.0
C2406 C 0.78118 0.5363 0.55159 0.0
C2407 C 0.76384 0.52775 0.5602 0.0
C2408 C 0.76523 0.51872 0.57932 0.0
C2409 C 0.78388 0.51728 0.58912 0.0
C2410 C 0.74516 0.52592 0.54795 0.0
C2411 C 0.73764 0.50652 0.54419 0.0
C2412 C 0.73658 0.54257 0.53774 0.0
C2413 C 0.74302 0.56357 0.54202 0.0
C2414 C 0.74363 0.57077 0.56195 0.0
C2415 C 0.74984 0.5905 0.56593 0.0
C2416 C 0.75539 0.60323 0.5501 0.0
C2417 C 0.75471 0.59627 0.53024 0.0
C2418 C 0.74853 0.57655 0.52617 0.0
C2419 C 0.66858 0.50341 0.48882 0.0
C2420 C 0.67264 0.51177 0.46975 0.0
C2421 C 0.68211 0.50608 0.50479 0.0
C2422 C 0.70006 0.51697 0.50194 0.0
C2423 C 0.70404 0.52539 0.48292 0.0
C2424 C 0.69049 0.52283 0.46701 0.0
C2425 C 0.71484 0.51964 0.51859 0.0
C2426 C 0.72158 0.53919 0.52317 0.0
C2427 C 0.72278 0.50313 0.52954 0.0
C2428 C 0.71721 0.482 0.52505 0.0
C2429 C 0.72099 0.47371 0.50592 0.0
C2430 C 0.71669 0.45345 0.50214 0.0
C2431 C 0.7086 0.44134 0.51738 0.0
C2432 C 0.70471 0.44949 0.53639 0.0
C2433 C 0.70908 0.46972 0.54028 0.0
H2434 H 0.70541 0.42561 0.51449 0.0
H2435 H 0.7602 0.6185 0.55321 0.0
H2436 H 0.07563 0.31397 0.03221 0.0
H2437 H 0.05629 0.28258 0.03436 0.0
H2438 H 0.00193 0.31674 0.04502 0.0
H2439 H 0.02116 0.34792 0.04362 0.0
H2440 H 0.00071 0.2843 0.06679 0.0
H2441 H 0.01516 0.29888 0.99732 0.0
H2442 H 0.03669 0.3062 0.96788 0.0
H2443 H 0.06708 0.24956 0.97559 0.0
H2444 H 0.04588 0.24202 0.00525 0.0
H2445 H 0.92803 0.21361 0.02702 0.0
H2446 H 0.94939 0.24308 0.03377 0.0
H2447 H 0.00208 0.20499 0.03396 0.0
H2448 H 0.98102 0.17562 0.02749 0.0
H2449 H 0.00495 0.23829 0.00802 0.0
H2450 H 0.98708 0.22337 0.07674 0.0
H2451 H 0.96361 0.2169 0.10485 0.0
H2452 H 0.93715 0.27541 0.0967 0.0
H2453 H 0.96028 0.28212 0.06834 0.0
C2454 C 0.05962 0.31474 0.03532 0.0
C2455 C 0.04992 0.33343 0.03758 0.0
C2456 C 0.04855 0.29681 0.03643 0.0
C2457 C 0.02755 0.29731 0.03945 0.0
C2458 C 0.01807 0.31593 0.04263 0.0
C2459 C 0.02912 0.33378 0.04176 0.0
C2460 C 0.01519 0.27867 0.03822 0.0
C2461 C 0.00155 0.27433 0.05386 0.0
C2462 C 0.01635 0.26551 0.02145 0.0
C2463 C 0.02911 0.27 0.00363 0.0
C2464 C 0.02654 0.28806 0.99282 0.0
C2465 C 0.03867 0.29224 0.97609 0.0
C2466 C 0.05329 0.27838 0.96991 0.0
C2467 C 0.05578 0.26029 0.98042 0.0
C2468 C 0.04371 0.25606 0.99719 0.0
C2469 C 0.94413 0.2115 0.02879 0.0
C2470 C 0.95283 0.1923 0.02666 0.0
C2471 C 0.95629 0.22832 0.03267 0.0
C2472 C 0.9773 0.22616 0.03434 0.0
C2473 C 0.98591 0.20695 0.03269 0.0
C2474 C 0.97381 0.19018 0.02904 0.0
C2475 C 0.99053 0.24399 0.03653 0.0
C2476 C 0.00427 0.2482 0.02101 0.0
C2477 C 0.98918 0.25716 0.05322 0.0
C2478 C 0.97528 0.25316 0.07028 0.0
C2479 C 0.97613 0.23478 0.08082 0.0
C2480 C 0.96292 0.23109 0.09682 0.0
C2481 C 0.94886 0.24571 0.10252 0.0
C2482 C 0.94803 0.26408 0.09225 0.0
C2483 C 0.9612 0.26785 0.07622 0.0
H2484 H 0.93865 0.24282 0.11492 0.0
H2485 H 0.06265 0.28164 0.95694 0.0
H2486 H 0.02296 0.64647 0.47854 0.0
H2487 H 0.00385 0.67734 0.47365 0.0
H2488 H 0.0582 0.71233 0.48088 0.0
H2489 H 0.07745 0.68128 0.4865 0.0
H2490 H 0.02987 0.72733 0.50328 0.0
H2491 H 0.03306 0.70789 0.43435 0.0
H2492 H 0.03025 0.6853 0.405 0.0
H2493 H 0.9668 0.67852 0.41592 0.0
H2494 H 0.96927 0.70085 0.44552 0.0
H2495 H 0.98189 0.81877 0.48011 0.0
H2496 H 0.00282 0.7891 0.47455 0.0
H2497 H 0.9507 0.75085 0.48104 0.0
H2498 H 0.92945 0.78063 0.48676 0.0
H2499 H 0.97913 0.73888 0.44954 0.0
H2500 H 0.97755 0.75667 0.52024 0.0
H2501 H 0.98092 0.78017 0.54883 0.0
H2502 H 0.04282 0.79082 0.53312 0.0
H2503 H 0.03971 0.76761 0.50423 0.0
C2504 C 0.03097 0.66069 0.47881 0.0
C2505 C 0.05176 0.66141 0.48296 0.0
C2506 C 0.02 0.67838 0.47586 0.0
C2507 C 0.02957 0.69721 0.47664 0.0
C2508 C 0.05047 0.69797 0.48016 0.0
C2509 C 0.06148 0.68022 0.4833 0.0
C2510 C 0.01742 0.71602 0.47549 0.0
C2511 C 0.0191 0.73 0.49127 0.0
C2512 C 0.00297 0.71936 0.46009 0.0
C2513 C 0.00139 0.70594 0.44226 0.0
C2514 C 0.01853 0.70147 0.43059 0.0
C2515 C 0.01699 0.68872 0.41389 0.0
C2516 C 0.99836 0.68044 0.40862 0.0
C2517 C 0.98122 0.68493 0.42003 0.0
C2518 C 0.98268 0.69766 0.43675 0.0
C2519 C 0.97474 0.80409 0.48004 0.0
C2520 C 0.95401 0.80204 0.4841 0.0
C2521 C 0.98677 0.78716 0.47686 0.0
C2522 C 0.97834 0.76782 0.47764 0.0
C2523 C 0.95745 0.76569 0.48041 0.0
C2524 C 0.94536 0.7827 0.48371 0.0
C2525 C 0.99166 0.74991 0.4773 0.0
C2526 C 0.99011 0.73617 0.46135 0.0
C2527 C 0.00637 0.74682 0.49243 0.0
C2528 C 0.00833 0.76058 0.50995 0.0
C2529 C 0.99183 0.76415 0.52279 0.0
C2530 C 0.9937 0.7774 0.53906 0.0
C2531 C 0.01206 0.78703 0.54275 0.0
C2532 C 0.0286 0.78338 0.53022 0.0
C2533 C 0.0268 0.77017 0.5139 0.0
H2534 H 0.01347 0.79729 0.55535 0.0
H2535 H 0.99721 0.67058 0.39568 0.0
H2536 H 0.57686 0.78557 0.53099 0.0
H2537 H 0.55569 0.7562 0.53834 0.0
H2538 H 0.50259 0.79372 0.53562 0.0
H2539 H 0.52358 0.82306 0.52905 0.0
H2540 H 0.49742 0.76686 0.56363 0.0
H2541 H 0.51937 0.76545 0.49452 0.0
H2542 H 0.54406 0.76534 0.4667 0.0
H2543 H 0.5701 0.71066 0.48958 0.0
H2544 H 0.54571 0.7106 0.51771 0.0
H2545 H 0.4242 0.69342 0.53121 0.0
H2546 H 0.44677 0.72234 0.53575 0.0
H2547 H 0.4966 0.68193 0.54634 0.0
H2548 H 0.4743 0.6531 0.54186 0.0
H2549 H 0.50442 0.70924 0.51653 0.0
H2550 H 0.47856 0.70987 0.58424 0.0
H2551 H 0.45197 0.71057 0.61022 0.0
H2552 H 0.43095 0.76749 0.58766 0.0
H2553 H 0.45725 0.76699 0.56136 0.0
C2554 C 0.56071 0.78759 0.53231 0.0
C2555 C 0.5519 0.80661 0.52925 0.0
C2556 C 0.5486 0.77078 0.5364 0.0
C2557 C 0.52748 0.77266 0.53712 0.0
C2558 C 0.51881 0.79184 0.5351 0.0
C2559 C 0.53088 0.80862 0.53126 0.0
C2560 C 0.51424 0.75464 0.53863 0.0
C2561 C 0.49889 0.75431 0.55325 0.0
C2562 C 0.51621 0.73815 0.52522 0.0
C2563 C 0.53089 0.73816 0.50834 0.0
C2564 C 0.53047 0.75349 0.49371 0.0
C2565 C 0.54439 0.75345 0.47787 0.0
C2566 C 0.55868 0.73804 0.47641 0.0
C2567 C 0.55905 0.72261 0.49076 0.0
C2568 C 0.54518 0.72261 0.50665 0.0
C2569 C 0.43987 0.69072 0.53491 0.0
C2570 C 0.44748 0.67097 0.53604 0.0
C2571 C 0.45275 0.70725 0.53753 0.0
C2572 C 0.47338 0.70425 0.54134 0.0
C2573 C 0.48076 0.68457 0.54334 0.0
C2574 C 0.46795 0.66811 0.5408 0.0
C2575 C 0.48764 0.72146 0.5415 0.0
C2576 C 0.50312 0.72167 0.52708 0.0
C2577 C 0.48554 0.73793 0.55485 0.0
C2578 C 0.46978 0.7383 0.57072 0.0
C2579 C 0.46817 0.72246 0.58471 0.0
C2580 C 0.45317 0.72284 0.59952 0.0
C2581 C 0.43975 0.73904 0.60056 0.0
C2582 C 0.44134 0.75494 0.58683 0.0
C2583 C 0.45631 0.75463 0.57198 0.0
H2584 H 0.42814 0.73931 0.61204 0.0
H2585 H 0.56944 0.73802 0.46414 0.0
H2586 H 0.53822 0.54563 0.82335 0.0
H2587 H 0.54649 0.52652 0.7933 0.0
H2588 H 0.53048 0.57752 0.75618 0.0
H2589 H 0.52125 0.59659 0.78647 0.0
H2590 H 0.51315 0.54613 0.74214 0.0
H2591 H 0.58082 0.55929 0.76092 0.0
H2592 H 0.61041 0.5618 0.78324 0.0
H2593 H 0.60837 0.49799 0.79377 0.0
H2594 H 0.57858 0.49512 0.77174 0.0
H2595 H 0.54028 0.49171 0.65487 0.0
H2596 H 0.54313 0.51662 0.68172 0.0
H2597 H 0.5462 0.46899 0.72586 0.0
H2598 H 0.5434 0.44379 0.69895 0.0
H2599 H 0.57272 0.50165 0.73369 0.0
H2600 H 0.50229 0.49055 0.71681 0.0
H2601 H 0.47351 0.48903 0.69333 0.0
H2602 H 0.48243 0.55122 0.67779 0.0
H2603 H 0.51146 0.55302 0.70098 0.0
C2604 C 0.5368 0.55299 0.80885 0.0
C2605 C 0.52901 0.57265 0.80731 0.0
C2606 C 0.54169 0.54203 0.7916 0.0
C2607 C 0.53936 0.55059 0.77239 0.0
C2608 C 0.53243 0.57057 0.77083 0.0
C2609 C 0.52725 0.5815 0.78815 0.0
C2610 C 0.54226 0.53793 0.7541 0.0
C2611 C 0.52643 0.53679 0.7401 0.0
C2612 C 0.5594 0.5254 0.7515 0.0
C2613 C 0.57736 0.52702 0.76476 0.0
C2614 C 0.58658 0.54581 0.7681 0.0
C2615 C 0.60341 0.54729 0.78069 0.0
C2616 C 0.61124 0.53007 0.78994 0.0
C2617 C 0.60229 0.51132 0.7866 0.0
C2618 C 0.58545 0.50975 0.77403 0.0
C2619 C 0.54184 0.48646 0.67025 0.0
C2620 C 0.54141 0.46575 0.67481 0.0
C2621 C 0.54344 0.50076 0.68557 0.0
C2622 C 0.54457 0.49465 0.70576 0.0
C2623 C 0.54528 0.47399 0.71033 0.0
C2624 C 0.54366 0.45962 0.69497 0.0
C2625 C 0.54356 0.5098 0.72213 0.0
C2626 C 0.55967 0.5113 0.7357 0.0
C2627 C 0.52682 0.52288 0.7242 0.0
C2628 C 0.50918 0.52186 0.71047 0.0
C2629 C 0.49821 0.50386 0.70828 0.0
C2630 C 0.48183 0.50296 0.69504 0.0
C2631 C 0.47618 0.52 0.68403 0.0
C2632 C 0.48685 0.53802 0.6863 0.0
C2633 C 0.50325 0.53899 0.6995 0.0
H2634 H 0.46352 0.51927 0.67377 0.0
H2635 H 0.62427 0.53125 0.79969 0.0
H2636 H 0.49124 0.92023 0.79043 0.0
H2637 H 0.48572 0.93932 0.75927 0.0
H2638 H 0.48038 0.99419 0.79376 0.0
H2639 H 0.48521 0.97525 0.8248 0.0
H2640 H 0.45524 0.99558 0.76344 0.0
H2641 H 0.52554 0.97928 0.77187 0.0
H2642 H 0.55478 0.95676 0.77648 0.0
H2643 H 0.54099 0.9269 0.72076 0.0
H2644 H 0.5115 0.94908 0.71596 0.0
H2645 H 0.4893 0.06893 0.69158 0.0
H2646 H 0.48461 0.04673 0.7208 0.0
H2647 H 0.48386 0.99498 0.68147 0.0
H2648 H 0.48852 0.0169 0.65236 0.0
H2649 H 0.51004 0.99043 0.71277 0.0
H2650 H 0.44106 0.01033 0.70339 0.0
H2651 H 0.4131 0.0345 0.69936 0.0
H2652 H 0.42592 0.05959 0.7576 0.0
H2653 H 0.45416 0.03575 0.76186 0.0
C2654 C 0.48849 0.93629 0.79137 0.0
C2655 C 0.48888 0.94625 0.81006 0.0
C2656 C 0.48546 0.94721 0.77356 0.0
C2657 C 0.48307 0.96827 0.77415 0.0
C2658 C 0.48226 0.97799 0.79289 0.0
C2659 C 0.4851 0.9671 0.81065 0.0
C2660 C 0.48287 0.98049 0.75537 0.0
C2661 C 0.46728 0.99452 0.75241 0.0
C2662 C 0.49846 0.979 0.74084 0.0
C2663 C 0.51618 0.96567 0.74368 0.0
C2664 C 0.52866 0.9678 0.76068 0.0
C2665 C 0.54529 0.95512 0.76332 0.0
C2666 C 0.5497 0.94036 0.74895 0.0
C2667 C 0.53753 0.9383 0.73189 0.0
C2668 C 0.52086 0.95093 0.72921 0.0
C2669 C 0.48789 0.05285 0.68917 0.0
C2670 C 0.48928 0.04469 0.66967 0.0
C2671 C 0.48515 0.0402 0.70584 0.0
C2672 C 0.48379 0.01922 0.70327 0.0
C2673 C 0.48484 0.01112 0.68379 0.0
C2674 C 0.48745 0.02371 0.66716 0.0
C2675 C 0.48247 0.00555 0.7209 0.0
C2676 C 0.49786 0.99131 0.72367 0.0
C2677 C 0.46686 0.00707 0.73535 0.0
C2678 C 0.44984 0.02136 0.73286 0.0
C2679 C 0.43802 0.02111 0.71527 0.0
C2680 C 0.4221 0.03473 0.71295 0.0
C2681 C 0.41777 0.0486 0.72819 0.0
C2682 C 0.42931 0.04885 0.7458 0.0
C2683 C 0.44526 0.03527 0.74818 0.0
H2684 H 0.40543 0.05913 0.72637 0.0
H2685 H 0.56258 0.93056 0.75102 0.0
H2686 H 0.47141 0.33192 0.93876 0.0
H2687 H 0.49156 0.30177 0.93372 0.0
H2688 H 0.43895 0.26477 0.94348 0.0
H2689 H 0.4187 0.29515 0.94938 0.0
H2690 H 0.46833 0.2507 0.96459 0.0
H2691 H 0.46273 0.26968 0.89573 0.0
H2692 H 0.46376 0.29222 0.86619 0.0
H2693 H 0.52704 0.30212 0.87549 0.0
H2694 H 0.52635 0.27987 0.90526 0.0
H2695 H 0.52291 0.16245 0.94347 0.0
H2696 H 0.49948 0.18994 0.93662 0.0
H2697 H 0.54816 0.23275 0.94086 0.0
H2698 H 0.57187 0.20523 0.94781 0.0
H2699 H 0.51865 0.24163 0.90992 0.0
H2700 H 0.52229 0.22476 0.981 0.0
H2701 H 0.52093 0.20088 0.00947 0.0
H2702 H 0.45984 0.18581 0.99435 0.0
H2703 H 0.46097 0.20936 0.96554 0.0
C2704 C 0.46398 0.31741 0.93953 0.0
C2705 C 0.44341 0.31595 0.94449 0.0
C2706 C 0.47555 0.30011 0.9365 0.0
C2707 C 0.46679 0.28091 0.93792 0.0
C2708 C 0.44607 0.27941 0.94225 0.0
C2709 C 0.43448 0.29677 0.94553 0.0
C2710 C 0.47967 0.26257 0.93651 0.0
C2711 C 0.47899 0.24855 0.95237 0.0
C2712 C 0.49393 0.25984 0.92079 0.0
C2713 C 0.49445 0.2732 0.90283 0.0
C2714 C 0.47684 0.27677 0.89157 0.0
C2715 C 0.47737 0.28948 0.87476 0.0
C2716 C 0.49545 0.29862 0.86899 0.0
C2717 C 0.51305 0.29504 0.87998 0.0
C2718 C 0.5126 0.28235 0.89681 0.0
C2719 C 0.52878 0.17765 0.94254 0.0
C2720 C 0.54925 0.18168 0.94641 0.0
C2721 C 0.51533 0.19334 0.93863 0.0
C2722 C 0.52205 0.21336 0.93853 0.0
C2723 C 0.5427 0.21737 0.94092 0.0
C2724 C 0.55621 0.20164 0.94491 0.0
C2725 C 0.50728 0.23011 0.93801 0.0
C2726 C 0.50772 0.24377 0.9219 0.0
C2727 C 0.49265 0.23244 0.95337 0.0
C2728 C 0.49178 0.21868 0.971 0.0
C2729 C 0.50861 0.21626 0.98367 0.0
C2730 C 0.50788 0.20279 0.99987 0.0
C2731 C 0.49033 0.1918 0.00369 0.0
C2732 C 0.47344 0.19432 0.99135 0.0
C2733 C 0.47411 0.20773 0.97509 0.0
H2734 H 0.4898 0.18137 0.01623 0.0
H2735 H 0.49583 0.30846 0.85598 0.0
loop_
_geom_bond_atom_site_label_1
_geom_bond_atom_site_label_2
_geom_bond_distance
_geom_bond_site_symmetry_2
_ccdc_geom_bond_type
O0 Cd1 2.223 1_455 S
O0 C8 1.315 . S
Cd1 O0 2.223 1_655 S
Cd1 O4 2.297 . S
Cd1 O5 2.439 . S
Cd1 O11 2.240 . S
Cd2 O3 2.240 . S
Cd2 O10 2.204 1_455 S
Cd2 O12 2.297 . S
Cd2 O13 2.439 1_455 S
O3 Cd2 2.240 . S
O3 C8 1.279 . S
O4 Cd1 2.297 . S
O4 C6 1.247 . S
O5 Cd1 2.439 . S
O5 C6 1.208 . S
C6 O4 1.247 . S
C6 O5 1.208 . S
C7 O12 1.233 1_655 S
C7 O13 1.211 . S
C8 O0 1.315 . S
C8 O3 1.279 . S
C9 O10 1.345 . S
C9 O11 1.279 . S
O10 Cd2 2.204 1_655 S
O10 C9 1.345 . S
O11 Cd1 2.240 . S
O11 C9 1.279 . S
O12 Cd2 2.297 . S
O12 C7 1.233 1_455 S
O13 Cd2 2.439 1_655 S
O13 C7 1.211 . S
O14 Cd15 2.223 1_655 S
O14 C22 1.315 . S
Cd15 O14 2.223 1_455 S
Cd15 O18 2.297 . S
Cd15 O19 2.439 . S
Cd15 O25 2.240 . S
Cd16 O17 2.240 . S
Cd16 O24 2.238 . S
Cd16 O26 2.297 . S
Cd16 O27 2.424 1_655 S
O17 Cd16 2.240 . S
O17 C22 1.279 . S
O18 Cd15 2.297 . S
O18 C20 1.247 . S
O19 Cd15 2.439 . S
O19 C20 1.208 . S
C20 O18 1.247 . S
C20 O19 1.208 . S
C21 O26 1.263 . S
C21 O27 1.206 1_655 S
C22 O14 1.315 . S
C22 O17 1.279 . S
C23 O24 1.290 1_455 S
C23 O25 1.279 . S
O24 Cd16 2.238 . S
O24 C23 1.290 1_655 S
O25 Cd15 2.240 . S
O25 C23 1.279 . S
O26 Cd16 2.297 . S
O26 C21 1.263 . S
O27 Cd16 2.424 1_455 S
O27 C21 1.206 1_455 S
O28 Cd29 2.223 1_455 S
O28 C36 1.315 . S
Cd29 O28 2.223 1_655 S
Cd29 O32 2.297 . S
Cd29 O33 2.439 . S
Cd29 O39 2.240 . S
Cd30 O31 2.240 . S
Cd30 O38 2.213 1_455 S
Cd30 O40 2.297 . S
Cd30 O41 2.441 . S
O31 Cd30 2.240 . S
O31 C36 1.279 . S
O32 Cd29 2.297 . S
O32 C34 1.247 . S
O33 Cd29 2.439 . S
O33 C34 1.208 . S
C34 O32 1.247 . S
C34 O33 1.208 . S
C35 O40 1.247 . S
C35 O41 1.209 . S
C36 O28 1.315 . S
C36 O31 1.279 . S
C37 O38 1.330 . S
C37 O39 1.279 . S
O38 Cd30 2.213 1_655 S
O38 C37 1.330 . S
O39 Cd29 2.240 . S
O39 C37 1.279 . S
O40 Cd30 2.297 . S
O40 C35 1.247 . S
O41 Cd30 2.441 . S
O41 C35 1.209 . S
O42 Cd43 2.223 1_655 S
O42 C50 1.315 . S
Cd43 O42 2.223 1_455 S
Cd43 O46 2.297 . S
Cd43 O47 2.439 . S
Cd43 O53 2.240 . S
Cd44 O45 2.240 . S
Cd44 O52 2.243 . S
Cd44 O54 2.297 . S
Cd44 O55 2.468 . S
O45 Cd44 2.240 . S
O45 C50 1.279 . S
O46 Cd43 2.297 . S
O46 C48 1.247 . S
O47 Cd43 2.439 . S
O47 C48 1.208 . S
C48 O46 1.247 . S
C48 O47 1.208 . S
C49 O54 1.247 . S
C49 O55 1.215 . S
C50 O42 1.315 . S
C50 O45 1.279 . S
C51 O52 1.283 1_455 S
C51 O53 1.279 . S
O52 Cd44 2.243 . S
O52 C51 1.283 1_655 S
O53 Cd43 2.240 . S
O53 C51 1.279 . S
O54 Cd44 2.297 . S
O54 C49 1.247 . S
O55 Cd44 2.468 . S
O55 C49 1.215 . S
O56 Cd57 2.223 1_545 S
O56 C64 1.315 . S
Cd57 O56 2.223 1_565 S
Cd57 O60 2.297 . S
Cd57 O61 2.439 . S
Cd57 O67 2.240 . S
Cd58 O59 2.240 . S
Cd58 O66 2.204 1_545 S
Cd58 O68 2.297 . S
Cd58 O69 2.439 1_545 S
O59 Cd58 2.240 . S
O59 C64 1.279 . S
O60 Cd57 2.297 . S
O60 C62 1.247 . S
O61 Cd57 2.439 . S
O61 C62 1.208 . S
C62 O60 1.247 . S
C62 O61 1.208 . S
C63 O68 1.233 1_565 S
C63 O69 1.211 . S
C64 O56 1.315 . S
C64 O59 1.279 . S
C65 O66 1.345 . S
C65 O67 1.279 . S
O66 Cd58 2.204 1_565 S
O66 C65 1.345 . S
O67 Cd57 2.240 . S
O67 C65 1.279 . S
O68 Cd58 2.297 . S
O68 C63 1.233 1_545 S
O69 Cd58 2.439 1_565 S
O69 C63 1.211 . S
O70 Cd71 2.223 . S
O70 C78 1.315 . S
Cd71 O70 2.223 . S
Cd71 O74 2.297 . S
Cd71 O75 2.439 . S
Cd71 O81 2.240 . S
Cd72 O73 2.240 . S
Cd72 O80 2.223 . S
Cd72 O82 2.297 . S
Cd72 O83 2.439 . S
O73 Cd72 2.240 . S
O73 C78 1.279 . S
O74 Cd71 2.297 . S
O74 C76 1.247 . S
O75 Cd71 2.439 . S
O75 C76 1.208 . S
C76 O74 1.247 . S
C76 O75 1.208 . S
C77 O82 1.247 . S
C77 O83 1.208 . S
C78 O70 1.315 . S
C78 O73 1.279 . S
C79 O80 1.315 . S
C79 O81 1.279 . S
O80 Cd72 2.223 . S
O80 C79 1.315 . S
O81 Cd71 2.240 . S
O81 C79 1.279 . S
O82 Cd72 2.297 . S
O82 C77 1.247 . S
O83 Cd72 2.439 . S
O83 C77 1.208 . S
O84 Cd85 2.223 1_565 S
O84 C92 1.315 . S
Cd85 O84 2.223 1_545 S
Cd85 O88 2.297 . S
Cd85 O89 2.439 . S
Cd85 O95 2.240 . S
Cd86 O87 2.240 . S
Cd86 O94 2.238 . S
Cd86 O96 2.297 . S
Cd86 O97 2.424 1_565 S
O87 Cd86 2.240 . S
O87 C92 1.279 . S
O88 Cd85 2.297 . S
O88 C90 1.247 . S
O89 Cd85 2.439 . S
O89 C90 1.208 . S
C90 O88 1.247 . S
C90 O89 1.208 . S
C91 O96 1.263 . S
C91 O97 1.206 1_565 S
C92 O84 1.315 . S
C92 O87 1.279 . S
C93 O94 1.290 1_545 S
C93 O95 1.279 . S
O94 Cd86 2.238 . S
O94 C93 1.290 1_565 S
O95 Cd85 2.240 . S
O95 C93 1.279 . S
O96 Cd86 2.297 . S
O96 C91 1.263 . S
O97 Cd86 2.424 1_545 S
O97 C91 1.206 1_545 S
O98 Cd99 2.223 . S
O98 C106 1.315 . S
Cd99 O98 2.223 . S
Cd99 O102 2.297 . S
Cd99 O103 2.439 . S
Cd99 O109 2.240 . S
Cd100 O101 2.240 . S
Cd100 O108 2.223 . S
Cd100 O110 2.297 . S
Cd100 O111 2.439 . S
O101 Cd100 2.240 . S
O101 C106 1.279 . S
O102 Cd99 2.297 . S
O102 C104 1.247 . S
O103 Cd99 2.439 . S
O103 C104 1.208 . S
C104 O102 1.247 . S
C104 O103 1.208 . S
C105 O110 1.247 . S
C105 O111 1.208 . S
C106 O98 1.315 . S
C106 O101 1.279 . S
C107 O108 1.315 . S
C107 O109 1.279 . S
O108 Cd100 2.223 . S
O108 C107 1.315 . S
O109 Cd99 2.240 . S
O109 C107 1.279 . S
O110 Cd100 2.297 . S
O110 C105 1.247 . S
O111 Cd100 2.439 . S
O111 C105 1.208 . S
O112 Cd113 2.223 1_554 S
O112 C120 1.315 . S
Cd113 O112 2.223 1_556 S
Cd113 O116 2.297 . S
Cd113 O117 2.439 . S
Cd113 O123 2.240 . S
Cd114 O115 2.240 . S
Cd114 O122 2.204 1_554 S
Cd114 O124 2.297 . S
Cd114 O125 2.439 1_554 S
O115 Cd114 2.240 . S
O115 C120 1.279 . S
O116 Cd113 2.297 . S
O116 C118 1.247 . S
O117 Cd113 2.439 . S
O117 C118 1.208 . S
C118 O116 1.247 . S
C118 O117 1.208 . S
C119 O124 1.233 1_556 S
C119 O125 1.211 . S
C120 O112 1.315 . S
C120 O115 1.279 . S
C121 O122 1.345 . S
C121 O123 1.279 . S
O122 Cd114 2.204 1_556 S
O122 C121 1.345 . S
O123 Cd113 2.240 . S
O123 C121 1.279 . S
O124 Cd114 2.297 . S
O124 C119 1.233 1_554 S
O125 Cd114 2.439 1_556 S
O125 C119 1.211 . S
O126 Cd127 2.223 . S
O126 C134 1.315 . S
Cd127 O126 2.223 . S
Cd127 O130 2.297 . S
Cd127 O131 2.439 . S
Cd127 O137 2.240 . S
Cd128 O129 2.240 . S
Cd128 O136 2.223 . S
Cd128 O138 2.297 . S
Cd128 O139 2.439 . S
O129 Cd128 2.240 . S
O129 C134 1.279 . S
O130 Cd127 2.297 . S
O130 C132 1.247 . S
O131 Cd127 2.439 . S
O131 C132 1.208 . S
C132 O130 1.247 . S
C132 O131 1.208 . S
C133 O138 1.247 . S
C133 O139 1.208 . S
C134 O126 1.315 . S
C134 O129 1.279 . S
C135 O136 1.315 . S
C135 O137 1.279 . S
O136 Cd128 2.223 . S
O136 C135 1.315 . S
O137 Cd127 2.240 . S
O137 C135 1.279 . S
O138 Cd128 2.297 . S
O138 C133 1.247 . S
O139 Cd128 2.439 . S
O139 C133 1.208 . S
O140 Cd141 2.223 . S
O140 C148 1.315 . S
Cd141 O140 2.223 . S
Cd141 O144 2.297 . S
Cd141 O145 2.439 . S
Cd141 O151 2.240 . S
Cd142 O143 2.240 . S
Cd142 O150 2.223 . S
Cd142 O152 2.297 . S
Cd142 O153 2.439 . S
O143 Cd142 2.240 . S
O143 C148 1.279 . S
O144 Cd141 2.297 . S
O144 C146 1.247 . S
O145 Cd141 2.439 . S
O145 C146 1.208 . S
C146 O144 1.247 . S
C146 O145 1.208 . S
C147 O152 1.247 . S
C147 O153 1.208 . S
C148 O140 1.315 . S
C148 O143 1.279 . S
C149 O150 1.315 . S
C149 O151 1.279 . S
O150 Cd142 2.223 . S
O150 C149 1.315 . S
O151 Cd141 2.240 . S
O151 C149 1.279 . S
O152 Cd142 2.297 . S
O152 C147 1.247 . S
O153 Cd142 2.439 . S
O153 C147 1.208 . S
O154 Cd155 2.223 . S
O154 C162 1.315 . S
Cd155 O154 2.223 . S
Cd155 O158 2.297 . S
Cd155 O159 2.439 . S
Cd155 O165 2.240 . S
Cd156 O157 2.240 . S
Cd156 O164 2.223 . S
Cd156 O166 2.297 . S
Cd156 O167 2.439 . S
O157 Cd156 2.240 . S
O157 C162 1.279 . S
O158 Cd155 2.297 . S
O158 C160 1.247 . S
O159 Cd155 2.439 . S
O159 C160 1.208 . S
C160 O158 1.247 . S
C160 O159 1.208 . S
C161 O166 1.247 . S
C161 O167 1.208 . S
C162 O154 1.315 . S
C162 O157 1.279 . S
C163 O164 1.315 . S
C163 O165 1.279 . S
O164 Cd156 2.223 . S
O164 C163 1.315 . S
O165 Cd155 2.240 . S
O165 C163 1.279 . S
O166 Cd156 2.297 . S
O166 C161 1.247 . S
O167 Cd156 2.439 . S
O167 C161 1.208 . S
O168 Cd169 2.223 . S
O168 C176 1.315 . S
Cd169 O168 2.223 . S
Cd169 O172 2.297 . S
Cd169 O173 2.439 . S
Cd169 O179 2.240 . S
Cd170 O171 2.240 . S
Cd170 O178 2.223 . S
Cd170 O180 2.297 . S
Cd170 O181 2.439 . S
O171 Cd170 2.240 . S
O171 C176 1.279 . S
O172 Cd169 2.297 . S
O172 C174 1.247 . S
O173 Cd169 2.439 . S
O173 C174 1.208 . S
C174 O172 1.247 . S
C174 O173 1.208 . S
C175 O180 1.247 . S
C175 O181 1.208 . S
C176 O168 1.315 . S
C176 O171 1.279 . S
C177 O178 1.315 . S
C177 O179 1.279 . S
O178 Cd170 2.223 . S
O178 C177 1.315 . S
O179 Cd169 2.240 . S
O179 C177 1.279 . S
O180 Cd170 2.297 . S
O180 C175 1.247 . S
O181 Cd170 2.439 . S
O181 C175 1.208 . S
O182 Cd183 2.223 . S
O182 C190 1.315 . S
Cd183 O182 2.223 . S
Cd183 O186 2.297 . S
Cd183 O187 2.439 . S
Cd183 O193 2.240 . S
Cd184 O185 2.240 . S
Cd184 O192 2.223 . S
Cd184 O194 2.297 . S
Cd184 O195 2.439 . S
O185 Cd184 2.240 . S
O185 C190 1.279 . S
O186 Cd183 2.297 . S
O186 C188 1.247 . S
O187 Cd183 2.439 . S
O187 C188 1.208 . S
C188 O186 1.247 . S
C188 O187 1.208 . S
C189 O194 1.247 . S
C189 O195 1.208 . S
C190 O182 1.315 . S
C190 O185 1.279 . S
C191 O192 1.315 . S
C191 O193 1.279 . S
O192 Cd184 2.223 . S
O192 C191 1.315 . S
O193 Cd183 2.240 . S
O193 C191 1.279 . S
O194 Cd184 2.297 . S
O194 C189 1.247 . S
O195 Cd184 2.439 . S
O195 C189 1.208 . S
O196 Cd197 2.223 . S
O196 C204 1.315 . S
Cd197 O196 2.223 . S
Cd197 O200 2.297 . S
Cd197 O201 2.439 . S
Cd197 O207 2.240 . S
Cd198 O199 2.240 . S
Cd198 O206 2.223 . S
Cd198 O208 2.297 . S
Cd198 O209 2.439 . S
O199 Cd198 2.240 . S
O199 C204 1.279 . S
O200 Cd197 2.297 . S
O200 C202 1.247 . S
O201 Cd197 2.439 . S
O201 C202 1.208 . S
C202 O200 1.247 . S
C202 O201 1.208 . S
C203 O208 1.247 . S
C203 O209 1.208 . S
C204 O196 1.315 . S
C204 O199 1.279 . S
C205 O206 1.315 . S
C205 O207 1.279 . S
O206 Cd198 2.223 . S
O206 C205 1.315 . S
O207 Cd197 2.240 . S
O207 C205 1.279 . S
O208 Cd198 2.297 . S
O208 C203 1.247 . S
O209 Cd198 2.439 . S
O209 C203 1.208 . S
O210 Cd211 2.223 . S
O210 C218 1.315 . S
Cd211 O210 2.223 . S
Cd211 O214 2.297 . S
Cd211 O215 2.439 . S
Cd211 O221 2.240 . S
Cd212 O213 2.240 . S
Cd212 O220 2.223 . S
Cd212 O222 2.297 . S
Cd212 O223 2.439 . S
O213 Cd212 2.240 . S
O213 C218 1.279 . S
O214 Cd211 2.297 . S
O214 C216 1.247 . S
O215 Cd211 2.439 . S
O215 C216 1.208 . S
C216 O214 1.247 . S
C216 O215 1.208 . S
C217 O222 1.247 . S
C217 O223 1.208 . S
C218 O210 1.315 . S
C218 O213 1.279 . S
C219 O220 1.315 . S
C219 O221 1.279 . S
O220 Cd212 2.223 . S
O220 C219 1.315 . S
O221 Cd211 2.240 . S
O221 C219 1.279 . S
O222 Cd212 2.297 . S
O222 C217 1.247 . S
O223 Cd212 2.439 . S
O223 C217 1.208 . S
O224 Cd225 2.223 . S
O224 C232 1.315 . S
Cd225 O224 2.223 . S
Cd225 O228 2.297 . S
Cd225 O229 2.439 . S
Cd225 O235 2.240 . S
Cd226 O227 2.240 . S
Cd226 O234 2.223 . S
Cd226 O236 2.297 . S
Cd226 O237 2.439 . S
O227 Cd226 2.240 . S
O227 C232 1.279 . S
O228 Cd225 2.297 . S
O228 C230 1.247 . S
O229 Cd225 2.439 . S
O229 C230 1.208 . S
C230 O228 1.247 . S
C230 O229 1.208 . S
C231 O236 1.247 . S
C231 O237 1.208 . S
C232 O224 1.315 . S
C232 O227 1.279 . S
C233 O234 1.315 . S
C233 O235 1.279 . S
O234 Cd226 2.223 . S
O234 C233 1.315 . S
O235 Cd225 2.240 . S
O235 C233 1.279 . S
O236 Cd226 2.297 . S
O236 C231 1.247 . S
O237 Cd226 2.439 . S
O237 C231 1.208 . S
O238 Cd239 2.223 1_565 S
O238 C246 1.315 . S
Cd239 O238 2.223 1_545 S
Cd239 O242 2.297 . S
Cd239 O243 2.439 . S
Cd239 O249 2.240 . S
Cd240 O241 2.240 . S
Cd240 O248 2.243 . S
Cd240 O250 2.297 . S
Cd240 O251 2.468 . S
O241 Cd240 2.240 . S
O241 C246 1.279 . S
O242 Cd239 2.297 . S
O242 C244 1.247 . S
O243 Cd239 2.439 . S
O243 C244 1.208 . S
C244 O242 1.247 . S
C244 O243 1.208 . S
C245 O250 1.247 . S
C245 O251 1.215 . S
C246 O238 1.315 . S
C246 O241 1.279 . S
C247 O248 1.283 1_545 S
C247 O249 1.279 . S
O248 Cd240 2.243 . S
O248 C247 1.283 1_565 S
O249 Cd239 2.240 . S
O249 C247 1.279 . S
O250 Cd240 2.297 . S
O250 C245 1.247 . S
O251 Cd240 2.468 . S
O251 C245 1.215 . S
O252 Cd253 2.223 . S
O252 C260 1.315 . S
Cd253 O252 2.223 . S
Cd253 O256 2.297 . S
Cd253 O257 2.439 . S
Cd253 O263 2.240 . S
Cd254 O255 2.240 . S
Cd254 O262 2.223 . S
Cd254 O264 2.297 . S
Cd254 O265 2.439 . S
O255 Cd254 2.240 . S
O255 C260 1.279 . S
O256 Cd253 2.297 . S
O256 C258 1.247 . S
O257 Cd253 2.439 . S
O257 C258 1.208 . S
C258 O256 1.247 . S
C258 O257 1.208 . S
C259 O264 1.247 . S
C259 O265 1.208 . S
C260 O252 1.315 . S
C260 O255 1.279 . S
C261 O262 1.315 . S
C261 O263 1.279 . S
O262 Cd254 2.223 . S
O262 C261 1.315 . S
O263 Cd253 2.240 . S
O263 C261 1.279 . S
O264 Cd254 2.297 . S
O264 C259 1.247 . S
O265 Cd254 2.439 . S
O265 C259 1.208 . S
O266 Cd267 2.223 1_545 S
O266 C274 1.315 . S
Cd267 O266 2.223 1_565 S
Cd267 O270 2.297 . S
Cd267 O271 2.439 . S
Cd267 O277 2.240 . S
Cd268 O269 2.240 . S
Cd268 O276 2.213 1_545 S
Cd268 O278 2.297 . S
Cd268 O279 2.441 . S
O269 Cd268 2.240 . S
O269 C274 1.279 . S
O270 Cd267 2.297 . S
O270 C272 1.247 . S
O271 Cd267 2.439 . S
O271 C272 1.208 . S
C272 O270 1.247 . S
C272 O271 1.208 . S
C273 O278 1.247 . S
C273 O279 1.209 . S
C274 O266 1.315 . S
C274 O269 1.279 . S
C275 O276 1.330 . S
C275 O277 1.279 . S
O276 Cd268 2.213 1_565 S
O276 C275 1.330 . S
O277 Cd267 2.240 . S
O277 C275 1.279 . S
O278 Cd268 2.297 . S
O278 C273 1.247 . S
O279 Cd268 2.441 . S
O279 C273 1.209 . S
O280 Cd281 2.223 . S
O280 C288 1.315 . S
Cd281 O280 2.223 . S
Cd281 O284 2.297 . S
Cd281 O285 2.439 . S
Cd281 O291 2.240 . S
Cd282 O283 2.240 . S
Cd282 O290 2.223 . S
Cd282 O292 2.297 . S
Cd282 O293 2.439 . S
O283 Cd282 2.240 . S
O283 C288 1.279 . S
O284 Cd281 2.297 . S
O284 C286 1.247 . S
O285 Cd281 2.439 . S
O285 C286 1.208 . S
C286 O284 1.247 . S
C286 O285 1.208 . S
C287 O292 1.247 . S
C287 O293 1.208 . S
C288 O280 1.315 . S
C288 O283 1.279 . S
C289 O290 1.315 . S
C289 O291 1.279 . S
O290 Cd282 2.223 . S
O290 C289 1.315 . S
O291 Cd281 2.240 . S
O291 C289 1.279 . S
O292 Cd282 2.297 . S
O292 C287 1.247 . S
O293 Cd282 2.439 . S
O293 C287 1.208 . S
O294 Cd295 2.223 1_556 S
O294 C302 1.315 . S
Cd295 O294 2.223 1_554 S
Cd295 O298 2.297 . S
Cd295 O299 2.439 . S
Cd295 O305 2.240 . S
Cd296 O297 2.240 . S
Cd296 O304 2.243 . S
Cd296 O306 2.297 . S
Cd296 O307 2.468 . S
O297 Cd296 2.240 . S
O297 C302 1.279 . S
O298 Cd295 2.297 . S
O298 C300 1.247 . S
O299 Cd295 2.439 . S
O299 C300 1.208 . S
C300 O298 1.247 . S
C300 O299 1.208 . S
C301 O306 1.247 . S
C301 O307 1.215 . S
C302 O294 1.315 . S
C302 O297 1.279 . S
C303 O304 1.283 1_554 S
C303 O305 1.279 . S
O304 Cd296 2.243 . S
O304 C303 1.283 1_556 S
O305 Cd295 2.240 . S
O305 C303 1.279 . S
O306 Cd296 2.297 . S
O306 C301 1.247 . S
O307 Cd296 2.468 . S
O307 C301 1.215 . S
O308 Cd309 2.223 1_556 S
O308 C316 1.315 . S
Cd309 O308 2.223 1_554 S
Cd309 O312 2.297 . S
Cd309 O313 2.439 . S
Cd309 O319 2.240 . S
Cd310 O311 2.240 . S
Cd310 O318 2.238 . S
Cd310 O320 2.297 . S
Cd310 O321 2.424 1_556 S
O311 Cd310 2.240 . S
O311 C316 1.279 . S
O312 Cd309 2.297 . S
O312 C314 1.247 . S
O313 Cd309 2.439 . S
O313 C314 1.208 . S
C314 O312 1.247 . S
C314 O313 1.208 . S
C315 O320 1.263 . S
C315 O321 1.206 1_556 S
C316 O308 1.315 . S
C316 O311 1.279 . S
C317 O318 1.290 1_554 S
C317 O319 1.279 . S
O318 Cd310 2.238 . S
O318 C317 1.290 1_556 S
O319 Cd309 2.240 . S
O319 C317 1.279 . S
O320 Cd310 2.297 . S
O320 C315 1.263 . S
O321 Cd310 2.424 1_554 S
O321 C315 1.206 1_554 S
O322 Cd323 2.223 1_554 S
O322 C330 1.315 . S
Cd323 O322 2.223 1_556 S
Cd323 O326 2.297 . S
Cd323 O327 2.439 . S
Cd323 O333 2.240 . S
Cd324 O325 2.240 . S
Cd324 O332 2.213 1_554 S
Cd324 O334 2.297 . S
Cd324 O335 2.441 . S
O325 Cd324 2.240 . S
O325 C330 1.279 . S
O326 Cd323 2.297 . S
O326 C328 1.247 . S
O327 Cd323 2.439 . S
O327 C328 1.208 . S
C328 O326 1.247 . S
C328 O327 1.208 . S
C329 O334 1.247 . S
C329 O335 1.209 . S
C330 O322 1.315 . S
C330 O325 1.279 . S
C331 O332 1.330 . S
C331 O333 1.279 . S
O332 Cd324 2.213 1_556 S
O332 C331 1.330 . S
O333 Cd323 2.240 . S
O333 C331 1.279 . S
O334 Cd324 2.297 . S
O334 C329 1.247 . S
O335 Cd324 2.441 . S
O335 C329 1.209 . S
H336 C354 0.951 . S
H337 C356 0.951 . S
H338 C358 0.950 . S
H339 C359 0.950 . S
H340 C361 0.950 . S
H341 C364 0.950 . S
H342 C365 0.944 . S
H343 C367 0.950 . S
H344 C368 0.950 . S
H345 C369 0.951 . S
H346 C371 0.951 . S
H347 C373 0.950 . S
H348 C374 0.950 . S
H349 C376 0.950 . S
H350 C379 0.950 . S
H351 C380 0.950 . S
H352 C382 0.950 . S
H353 C383 0.950 . S
C354 H336 0.951 . S
C354 C355 1.366 . S
C354 C356 1.388 . S
C355 C354 1.366 . S
C355 C359 1.385 . S
C356 H337 0.951 . S
C356 C354 1.388 . S
C356 C357 1.366 . S
C357 C356 1.366 . S
C357 C358 1.414 . S
C357 C360 1.499 . S
C358 H338 0.950 . S
C358 C357 1.414 . S
C358 C359 1.374 . S
C359 H339 0.950 . S
C359 C355 1.385 . S
C359 C358 1.374 . S
C360 C357 1.499 . S
C360 C361 1.373 . S
C360 C362 1.389 . S
C361 H340 0.950 . S
C361 C360 1.373 . S
C361 C377 1.377 . S
C362 C360 1.389 . S
C362 C363 1.524 . S
C362 C376 1.377 . S
C363 C362 1.524 . S
C363 C364 1.397 . S
C363 C368 1.363 . S
C364 H341 0.950 . S
C364 C363 1.397 . S
C364 C365 1.338 1_545 S
C365 H342 0.944 . S
C365 C364 1.338 1_565 S
C365 C366 1.289 1_565 S
C366 C365 1.289 1_545 S
C366 C367 1.524 . S
C366 H385 0.937 . S
C367 H343 0.950 . S
C367 C366 1.524 . S
C367 C368 1.415 . S
C368 H344 0.950 . S
C368 C363 1.363 . S
C368 C367 1.415 . S
C369 H345 0.951 . S
C369 C370 1.366 . S
C369 C371 1.388 . S
C370 C369 1.366 . S
C370 C374 1.385 . S
C371 H346 0.951 . S
C371 C369 1.388 . S
C371 C372 1.366 . S
C372 C371 1.366 . S
C372 C373 1.414 . S
C372 C375 1.499 . S
C373 H347 0.950 . S
C373 C372 1.414 . S
C373 C374 1.374 . S
C374 H348 0.950 . S
C374 C370 1.385 . S
C374 C373 1.374 . S
C375 C372 1.499 . S
C375 C376 1.373 . S
C375 C377 1.389 . S
C376 H349 0.950 . S
C376 C362 1.377 . S
C376 C375 1.373 . S
C377 C361 1.377 . S
C377 C375 1.389 . S
C377 C378 1.524 . S
C378 C377 1.524 . S
C378 C379 1.397 . S
C378 C383 1.363 . S
C379 H350 0.950 . S
C379 C378 1.397 . S
C379 C380 1.334 . S
C380 H351 0.950 . S
C380 C379 1.334 . S
C380 C381 1.287 . S
C381 C380 1.287 . S
C381 C382 1.524 . S
C381 H384 0.999 . S
C382 H352 0.950 . S
C382 C381 1.524 . S
C382 C383 1.415 . S
C383 H353 0.950 . S
C383 C378 1.363 . S
C383 C382 1.415 . S
H384 C381 0.999 . S
H385 C366 0.937 . S
H386 C404 0.951 . S
H387 C406 0.951 . S
H388 C408 0.950 . S
H389 C409 0.950 . S
H390 C411 0.950 . S
H391 C414 0.950 . S
H392 C415 0.950 . S
H393 C417 0.950 . S
H394 C418 0.950 . S
H395 C419 0.951 . S
H396 C421 0.951 . S
H397 C423 0.950 . S
H398 C424 0.950 . S
H399 C426 0.950 . S
H400 C429 0.950 . S
H401 C430 0.950 . S
H402 C432 0.950 . S
H403 C433 0.950 . S
C404 H386 0.951 . S
C404 C405 1.366 . S
C404 C406 1.388 . S
C405 C404 1.366 . S
C405 C409 1.385 . S
C406 H387 0.951 . S
C406 C404 1.388 . S
C406 C407 1.366 . S
C407 C406 1.366 . S
C407 C408 1.414 . S
C407 C410 1.499 . S
C408 H388 0.950 . S
C408 C407 1.414 . S
C408 C409 1.374 . S
C409 H389 0.950 . S
C409 C405 1.385 . S
C409 C408 1.374 . S
C410 C407 1.499 . S
C410 C411 1.373 . S
C410 C412 1.389 . S
C411 H390 0.950 . S
C411 C410 1.373 . S
C411 C427 1.377 . S
C412 C410 1.389 . S
C412 C413 1.524 . S
C412 C426 1.377 . S
C413 C412 1.524 . S
C413 C414 1.397 . S
C413 C418 1.363 . S
C414 H391 0.950 . S
C414 C413 1.397 . S
C414 C415 1.334 . S
C415 H392 0.950 . S
C415 C414 1.334 . S
C415 C416 1.287 . S
C416 C415 1.287 . S
C416 C417 1.524 . S
C416 H435 0.913 . S
C417 H393 0.950 . S
C417 C416 1.524 . S
C417 C418 1.415 . S
C418 H394 0.950 . S
C418 C413 1.363 . S
C418 C417 1.415 . S
C419 H395 0.951 . S
C419 C420 1.366 . S
C419 C421 1.388 . S
C420 C419 1.366 . S
C420 C424 1.385 . S
C421 H396 0.951 . S
C421 C419 1.388 . S
C421 C422 1.366 . S
C422 C421 1.366 . S
C422 C423 1.414 . S
C422 C425 1.499 . S
C423 H397 0.950 . S
C423 C422 1.414 . S
C423 C424 1.374 . S
C424 H398 0.950 . S
C424 C420 1.385 . S
C424 C423 1.374 . S
C425 C422 1.499 . S
C425 C426 1.373 . S
C425 C427 1.389 . S
C426 H399 0.950 . S
C426 C412 1.377 . S
C426 C425 1.373 . S
C427 C411 1.377 . S
C427 C425 1.389 . S
C427 C428 1.524 . S
C428 C427 1.524 . S
C428 C429 1.397 . S
C428 C433 1.363 . S
C429 H400 0.950 . S
C429 C428 1.397 . S
C429 C430 1.334 . S
C430 H401 0.950 . S
C430 C429 1.334 . S
C430 C431 1.287 . S
C431 C430 1.287 . S
C431 C432 1.524 . S
C431 H434 0.999 . S
C432 H402 0.950 . S
C432 C431 1.524 . S
C432 C433 1.415 . S
C433 H403 0.950 . S
C433 C428 1.363 . S
C433 C432 1.415 . S
H434 C431 0.999 . S
H435 C416 0.913 . S
H436 C454 0.951 . S
H437 C456 0.951 . S
H438 C458 0.950 . S
H439 C459 0.950 . S
H440 C461 0.950 . S
H441 C464 0.950 . S
H442 C465 0.950 . S
H443 C467 0.950 1_556 S
H444 C468 0.950 1_556 S
H445 C469 0.951 . S
H446 C471 0.951 1_554 S
H447 C473 0.950 . S
H448 C474 0.950 . S
H449 C476 0.950 1_556 S
H450 C479 0.949 1_565 S
H451 C480 0.950 . S
H452 C482 0.950 . S
H453 C483 0.950 . S
C454 H436 0.951 . S
C454 C455 1.366 . S
C454 C456 1.388 . S
C455 C454 1.366 . S
C455 C459 1.385 . S
C456 H437 0.951 . S
C456 C454 1.388 . S
C456 C457 1.366 . S
C457 C456 1.366 . S
C457 C458 1.414 . S
C457 C460 1.499 . S
C458 H438 0.950 . S
C458 C457 1.414 . S
C458 C459 1.374 . S
C459 H439 0.950 . S
C459 C455 1.385 . S
C459 C458 1.374 . S
C460 C457 1.499 . S
C460 C461 1.373 . S
C460 C462 1.389 . S
C461 H440 0.950 . S
C461 C460 1.373 . S
C461 C477 1.377 . S
C462 C460 1.389 . S
C462 C463 1.524 . S
C462 C476 1.377 . S
C463 C462 1.524 . S
C463 C464 1.397 . S
C463 C468 1.363 . S
C464 H441 0.950 . S
C464 C463 1.397 . S
C464 C465 1.334 . S
C465 H442 0.950 . S
C465 C464 1.334 . S
C465 C466 1.287 . S
C466 C465 1.287 . S
C466 C467 1.524 . S
C466 H485 0.913 . S
C467 H443 0.950 1_554 S
C467 C466 1.524 . S
C467 C468 1.415 . S
C468 H444 0.950 1_554 S
C468 C463 1.363 . S
C468 C467 1.415 . S
C469 H445 0.951 . S
C469 C470 1.366 . S
C469 C471 1.388 . S
C470 C469 1.366 . S
C470 C474 1.385 . S
C471 H446 0.951 1_556 S
C471 C469 1.388 . S
C471 C472 1.366 . S
C472 C471 1.366 . S
C472 C473 1.414 . S
C472 C475 1.499 1_556 S
C473 H447 0.950 . S
C473 C472 1.414 . S
C473 C474 1.374 . S
C474 H448 0.950 . S
C474 C470 1.385 . S
C474 C473 1.374 . S
C475 C472 1.499 1_554 S
C475 C476 1.373 . S
C475 C477 1.389 . S
C476 H449 0.950 1_554 S
C476 C462 1.377 . S
C476 C475 1.373 . S
C477 C461 1.377 . S
C477 C475 1.389 . S
C477 C478 1.524 . S
C478 C477 1.524 . S
C478 C479 1.393 1_565 S
C478 C483 1.363 . S
C479 H450 0.949 1_545 S
C479 C478 1.393 1_545 S
C479 C480 1.339 . S
C480 H451 0.950 . S
C480 C479 1.339 . S
C480 C481 1.287 . S
C481 C480 1.287 . S
C481 C482 1.524 . S
C481 H484 0.999 . S
C482 H452 0.950 . S
C482 C481 1.524 . S
C482 C483 1.415 1_545 S
C483 H453 0.950 . S
C483 C478 1.363 . S
C483 C482 1.415 1_565 S
H484 C481 0.999 . S
H485 C466 0.913 . S
H486 C504 0.951 . S
H487 C506 0.951 . S
H488 C508 0.950 . S
H489 C509 0.950 . S
H490 C511 0.950 . S
H491 C514 0.950 . S
H492 C515 0.950 . S
H493 C517 0.950 . S
H494 C518 0.979 . S
H495 C519 0.951 . S
H496 C521 0.951 . S
H497 C523 0.950 . S
H498 C524 0.950 . S
H499 C526 0.950 1_556 S
H500 C529 0.950 1_556 S
H501 C530 0.950 . S
H502 C532 0.950 . S
H503 C533 0.950 . S
C504 H486 0.951 . S
C504 C505 1.366 . S
C504 C506 1.388 . S
C505 C504 1.366 . S
C505 C509 1.385 . S
C506 H487 0.951 . S
C506 C504 1.388 . S
C506 C507 1.366 . S
C507 C506 1.366 . S
C507 C508 1.414 . S
C507 C510 1.499 . S
C508 H488 0.950 . S
C508 C507 1.414 . S
C508 C509 1.374 . S
C509 H489 0.950 . S
C509 C505 1.385 . S
C509 C508 1.374 . S
C510 C507 1.499 . S
C510 C511 1.373 . S
C510 C512 1.389 . S
C511 H490 0.950 . S
C511 C510 1.373 . S
C511 C527 1.377 . S
C512 C510 1.389 . S
C512 C513 1.524 . S
C512 C526 1.377 . S
C513 C512 1.524 . S
C513 C514 1.397 . S
C513 C518 1.363 . S
C514 H491 0.950 . S
C514 C513 1.397 . S
C514 C515 1.334 . S
C515 H492 0.950 . S
C515 C514 1.334 . S
C515 C516 1.287 . S
C516 C515 1.287 . S
C516 C517 1.524 . S
C516 H535 0.913 . S
C517 H493 0.950 . S
C517 C516 1.524 . S
C517 C518 1.415 . S
C518 H494 0.979 . S
C518 C513 1.363 . S
C518 C517 1.415 . S
C519 H495 0.951 . S
C519 C520 1.366 . S
C519 C521 1.388 . S
C520 C519 1.366 . S
C520 C524 1.385 . S
C521 H496 0.951 . S
C521 C519 1.388 . S
C521 C522 1.366 . S
C522 C521 1.366 . S
C522 C523 1.414 . S
C522 C525 1.499 1_556 S
C523 H497 0.950 . S
C523 C522 1.414 . S
C523 C524 1.374 . S
C524 H498 0.950 . S
C524 C520 1.385 . S
C524 C523 1.374 . S
C525 C522 1.499 1_554 S
C525 C526 1.373 . S
C525 C527 1.389 . S
C526 H499 0.950 1_554 S
C526 C512 1.377 . S
C526 C525 1.373 . S
C527 C511 1.377 . S
C527 C525 1.389 . S
C527 C528 1.524 . S
C528 C527 1.524 . S
C528 C529 1.397 . S
C528 C533 1.363 . S
C529 H500 0.950 1_554 S
C529 C528 1.397 . S
C529 C530 1.334 1_554 S
C530 H501 0.950 . S
C530 C529 1.334 1_556 S
C530 C531 1.287 1_556 S
C531 C530 1.287 1_554 S
C531 C532 1.524 . S
C531 H534 0.999 . S
C532 H502 0.950 . S
C532 C531 1.524 . S
C532 C533 1.415 . S
C533 H503 0.950 . S
C533 C528 1.363 . S
C533 C532 1.415 . S
H534 C531 0.999 . S
H535 C516 0.913 . S
H536 C554 0.951 . S
H537 C556 0.951 . S
H538 C558 0.950 . S
H539 C559 0.950 . S
H540 C561 0.950 . S
H541 C564 0.950 . S
H542 C565 0.950 . S
H543 C567 0.950 . S
H544 C568 0.950 . S
H545 C569 0.951 . S
H546 C571 0.951 . S
H547 C573 0.950 . S
H548 C574 0.950 . S
H549 C576 0.950 . S
H550 C579 0.950 1_554 S
H551 C580 0.950 . S
H552 C582 0.950 . S
H553 C583 0.950 . S
C554 H536 0.951 . S
C554 C555 1.366 . S
C554 C556 1.388 . S
C555 C554 1.366 . S
C555 C559 1.385 . S
C556 H537 0.951 . S
C556 C554 1.388 . S
C556 C557 1.366 . S
C557 C556 1.366 . S
C557 C558 1.414 . S
C557 C560 1.499 . S
C558 H538 0.950 . S
C558 C557 1.414 . S
C558 C559 1.374 . S
C559 H539 0.950 . S
C559 C555 1.385 . S
C559 C558 1.374 . S
C560 C557 1.499 . S
C560 C561 1.373 . S
C560 C562 1.389 . S
C561 H540 0.950 . S
C561 C560 1.373 . S
C561 C577 1.377 . S
C562 C560 1.389 . S
C562 C563 1.524 . S
C562 C576 1.377 . S
C563 C562 1.524 . S
C563 C564 1.397 . S
C563 C568 1.363 . S
C564 H541 0.950 . S
C564 C563 1.397 . S
C564 C565 1.334 . S
C565 H542 0.950 . S
C565 C564 1.334 . S
C565 C566 1.287 . S
C566 C565 1.287 . S
C566 C567 1.524 . S
C566 H585 0.913 . S
C567 H543 0.950 . S
C567 C566 1.524 . S
C567 C568 1.415 . S
C568 H544 0.950 . S
C568 C563 1.363 . S
C568 C567 1.415 . S
C569 H545 0.951 . S
C569 C570 1.366 . S
C569 C571 1.388 . S
C570 C569 1.366 . S
C570 C574 1.385 . S
C571 H546 0.951 . S
C571 C569 1.388 . S
C571 C572 1.366 . S
C572 C571 1.366 . S
C572 C573 1.414 . S
C572 C575 1.499 . S
C573 H547 0.950 . S
C573 C572 1.414 . S
C573 C574 1.374 . S
C574 H548 0.950 . S
C574 C570 1.385 . S
C574 C573 1.374 . S
C575 C572 1.499 . S
C575 C576 1.373 . S
C575 C577 1.389 . S
C576 H549 0.950 . S
C576 C562 1.377 . S
C576 C575 1.373 . S
C577 C561 1.377 . S
C577 C575 1.389 . S
C577 C578 1.524 . S
C578 C577 1.524 . S
C578 C579 1.397 1_554 S
C578 C583 1.363 . S
C579 H550 0.950 1_556 S
C579 C578 1.397 1_556 S
C579 C580 1.334 . S
C580 H551 0.950 . S
C580 C579 1.334 . S
C580 C581 1.287 . S
C581 C580 1.287 . S
C581 C582 1.524 . S
C581 H584 0.999 . S
C582 H552 0.950 . S
C582 C581 1.524 . S
C582 C583 1.415 1_556 S
C583 H553 0.950 . S
C583 C578 1.363 . S
C583 C582 1.415 1_554 S
H584 C581 0.999 . S
H585 C566 0.913 . S
H586 C604 0.951 . S
H587 C606 0.951 . S
H588 C608 0.950 . S
H589 C609 0.950 . S
H590 C611 0.950 . S
H591 C614 0.950 . S
H592 C615 0.950 . S
H593 C617 0.950 . S
H594 C618 0.950 . S
H595 C619 0.951 . S
H596 C621 0.951 . S
H597 C623 0.950 . S
H598 C624 0.950 . S
H599 C626 0.950 . S
H600 C629 0.950 1_554 S
H601 C630 0.950 . S
H602 C632 0.950 . S
H603 C633 0.950 . S
C604 H586 0.951 . S
C604 C605 1.366 . S
C604 C606 1.388 . S
C605 C604 1.366 . S
C605 C609 1.385 . S
C606 H587 0.951 . S
C606 C604 1.388 . S
C606 C607 1.366 . S
C607 C606 1.366 . S
C607 C608 1.414 . S
C607 C610 1.499 . S
C608 H588 0.950 . S
C608 C607 1.414 . S
C608 C609 1.374 . S
C609 H589 0.950 . S
C609 C605 1.385 . S
C609 C608 1.374 . S
C610 C607 1.499 . S
C610 C611 1.373 . S
C610 C612 1.389 . S
C611 H590 0.950 . S
C611 C610 1.373 . S
C611 C627 1.377 . S
C612 C610 1.389 . S
C612 C613 1.524 . S
C612 C626 1.377 . S
C613 C612 1.524 . S
C613 C614 1.397 . S
C613 C618 1.363 . S
C614 H591 0.950 . S
C614 C613 1.397 . S
C614 C615 1.334 . S
C615 H592 0.950 . S
C615 C614 1.334 . S
C615 C616 1.287 . S
C616 C615 1.287 . S
C616 C617 1.524 . S
C616 H635 0.913 . S
C617 H593 0.950 . S
C617 C616 1.524 . S
C617 C618 1.415 . S
C618 H594 0.950 . S
C618 C613 1.363 . S
C618 C617 1.415 . S
C619 H595 0.951 . S
C619 C620 1.366 . S
C619 C621 1.388 . S
C620 C619 1.366 . S
C620 C624 1.385 . S
C621 H596 0.951 . S
C621 C619 1.388 . S
C621 C622 1.366 . S
C622 C621 1.366 . S
C622 C623 1.414 . S
C622 C625 1.499 . S
C623 H597 0.950 . S
C623 C622 1.414 . S
C623 C624 1.374 . S
C624 H598 0.950 . S
C624 C620 1.385 . S
C624 C623 1.374 . S
C625 C622 1.499 . S
C625 C626 1.373 . S
C625 C627 1.389 . S
C626 H599 0.950 . S
C626 C612 1.377 . S
C626 C625 1.373 . S
C627 C611 1.377 . S
C627 C625 1.389 . S
C627 C628 1.524 . S
C628 C627 1.524 . S
C628 C629 1.397 1_554 S
C628 C633 1.363 . S
C629 H600 0.950 1_556 S
C629 C628 1.397 1_556 S
C629 C630 1.334 . S
C630 H601 0.950 . S
C630 C629 1.334 . S
C630 C631 1.287 . S
C631 C630 1.287 . S
C631 C632 1.524 . S
C631 H634 0.999 . S
C632 H602 0.950 . S
C632 C631 1.524 . S
C632 C633 1.415 1_556 S
C633 H603 0.950 . S
C633 C628 1.363 . S
C633 C632 1.415 1_554 S
H634 C631 0.999 . S
H635 C616 0.913 . S
H636 C654 0.951 . S
H637 C656 0.951 . S
H638 C658 0.950 . S
H639 C659 0.950 . S
H640 C661 0.950 . S
H641 C664 0.950 . S
H642 C665 0.950 . S
H643 C667 0.950 . S
H644 C668 0.950 . S
H645 C669 0.951 . S
H646 C671 0.951 . S
H647 C673 0.950 . S
H648 C674 0.950 . S
H649 C676 0.950 . S
H650 C679 0.950 . S
H651 C680 0.950 . S
H652 C682 0.950 . S
H653 C683 0.950 . S
C654 H636 0.951 . S
C654 C655 1.366 . S
C654 C656 1.388 . S
C655 C654 1.366 . S
C655 C659 1.385 . S
C656 H637 0.951 . S
C656 C654 1.388 . S
C656 C657 1.366 . S
C657 C656 1.366 . S
C657 C658 1.414 . S
C657 C660 1.499 . S
C658 H638 0.950 . S
C658 C657 1.414 . S
C658 C659 1.374 . S
C659 H639 0.950 . S
C659 C655 1.385 . S
C659 C658 1.374 . S
C660 C657 1.499 . S
C660 C661 1.373 . S
C660 C662 1.389 . S
C661 H640 0.950 . S
C661 C660 1.373 . S
C661 C677 1.377 . S
C662 C660 1.389 . S
C662 C663 1.524 . S
C662 C676 1.377 . S
C663 C662 1.524 . S
C663 C664 1.397 . S
C663 C668 1.363 . S
C664 H641 0.950 . S
C664 C663 1.397 . S
C664 C665 1.334 . S
C665 H642 0.950 . S
C665 C664 1.334 . S
C665 C666 1.287 . S
C666 C665 1.287 . S
C666 C667 1.524 . S
C666 H685 0.913 . S
C667 H643 0.950 . S
C667 C666 1.524 . S
C667 C668 1.415 . S
C668 H644 0.950 . S
C668 C663 1.363 . S
C668 C667 1.415 . S
C669 H645 0.951 . S
C669 C670 1.366 . S
C669 C671 1.388 . S
C670 C669 1.366 . S
C670 C674 1.385 . S
C671 H646 0.951 . S
C671 C669 1.388 . S
C671 C672 1.366 . S
C672 C671 1.366 . S
C672 C673 1.414 . S
C672 C675 1.499 . S
C673 H647 0.950 . S
C673 C672 1.414 . S
C673 C674 1.374 . S
C674 H648 0.950 . S
C674 C670 1.385 . S
C674 C673 1.374 . S
C675 C672 1.499 . S
C675 C676 1.373 . S
C675 C677 1.389 . S
C676 H649 0.950 . S
C676 C662 1.377 . S
C676 C675 1.373 . S
C677 C661 1.377 . S
C677 C675 1.389 . S
C677 C678 1.524 . S
C678 C677 1.524 . S
C678 C679 1.397 . S
C678 C683 1.363 . S
C679 H650 0.950 . S
C679 C678 1.397 . S
C679 C680 1.334 . S
C680 H651 0.950 . S
C680 C679 1.334 . S
C680 C681 1.287 . S
C681 C680 1.287 . S
C681 C682 1.524 . S
C681 H684 0.999 . S
C682 H652 0.950 . S
C682 C681 1.524 . S
C682 C683 1.415 . S
C683 H653 0.950 . S
C683 C678 1.363 . S
C683 C682 1.415 . S
H684 C681 0.999 . S
H685 C666 0.913 . S
H686 C704 0.951 . S
H687 C706 0.951 . S
H688 C708 0.950 . S
H689 C709 0.950 . S
H690 C711 0.950 . S
H691 C714 0.950 . S
H692 C715 0.950 . S
H693 C717 0.950 . S
H694 C718 0.950 . S
H695 C719 0.951 . S
H696 C721 0.951 . S
H697 C723 0.950 . S
H698 C724 0.950 . S
H699 C726 0.950 . S
H700 C729 0.950 . S
H701 C730 0.950 . S
H702 C732 0.950 . S
H703 C733 0.950 . S
C704 H686 0.951 . S
C704 C705 1.366 . S
C704 C706 1.388 . S
C705 C704 1.366 . S
C705 C709 1.385 . S
C706 H687 0.951 . S
C706 C704 1.388 . S
C706 C707 1.366 . S
C707 C706 1.366 . S
C707 C708 1.414 . S
C707 C710 1.499 . S
C708 H688 0.950 . S
C708 C707 1.414 . S
C708 C709 1.374 . S
C709 H689 0.950 . S
C709 C705 1.385 . S
C709 C708 1.374 . S
C710 C707 1.499 . S
C710 C711 1.373 . S
C710 C712 1.389 . S
C711 H690 0.950 . S
C711 C710 1.373 . S
C711 C727 1.377 . S
C712 C710 1.389 . S
C712 C713 1.524 . S
C712 C726 1.377 . S
C713 C712 1.524 . S
C713 C714 1.397 . S
C713 C718 1.363 . S
C714 H691 0.950 . S
C714 C713 1.397 . S
C714 C715 1.334 . S
C715 H692 0.950 . S
C715 C714 1.334 . S
C715 C716 1.287 . S
C716 C715 1.287 . S
C716 C717 1.524 . S
C716 H735 0.913 . S
C717 H693 0.950 . S
C717 C716 1.524 . S
C717 C718 1.415 . S
C718 H694 0.950 . S
C718 C713 1.363 . S
C718 C717 1.415 . S
C719 H695 0.951 . S
C719 C720 1.366 . S
C719 C721 1.388 . S
C720 C719 1.366 . S
C720 C724 1.385 . S
C721 H696 0.951 . S
C721 C719 1.388 . S
C721 C722 1.366 . S
C722 C721 1.366 . S
C722 C723 1.414 . S
C722 C725 1.499 . S
C723 H697 0.950 . S
C723 C722 1.414 . S
C723 C724 1.374 . S
C724 H698 0.950 . S
C724 C720 1.385 . S
C724 C723 1.374 . S
C725 C722 1.499 . S
C725 C726 1.373 . S
C725 C727 1.389 . S
C726 H699 0.950 . S
C726 C712 1.377 . S
C726 C725 1.373 . S
C727 C711 1.377 . S
C727 C725 1.389 . S
C727 C728 1.524 . S
C728 C727 1.524 . S
C728 C729 1.397 . S
C728 C733 1.363 . S
C729 H700 0.950 . S
C729 C728 1.397 . S
C729 C730 1.334 . S
C730 H701 0.950 . S
C730 C729 1.334 . S
C730 C731 1.287 . S
C731 C730 1.287 . S
C731 C732 1.524 . S
C731 H734 0.999 . S
C732 H702 0.950 . S
C732 C731 1.524 . S
C732 C733 1.415 . S
C733 H703 0.950 . S
C733 C728 1.363 . S
C733 C732 1.415 . S
H734 C731 0.999 . S
H735 C716 0.913 . S
H736 C754 0.951 . S
H737 C756 0.951 . S
H738 C758 0.950 . S
H739 C759 0.950 . S
H740 C761 0.950 . S
H741 C764 0.950 . S
H742 C765 0.950 . S
H743 C767 0.950 . S
H744 C768 0.950 . S
H745 C769 0.951 1_655 S
H746 C771 0.951 . S
H747 C773 0.950 . S
H748 C774 0.950 . S
H749 C776 0.950 . S
H750 C779 0.950 . S
H751 C780 0.950 . S
H752 C782 0.950 . S
H753 C783 0.950 . S
C754 H736 0.951 . S
C754 C755 1.366 . S
C754 C756 1.388 . S
C755 C754 1.366 . S
C755 C759 1.385 . S
C756 H737 0.951 . S
C756 C754 1.388 . S
C756 C757 1.366 . S
C757 C756 1.366 . S
C757 C758 1.414 . S
C757 C760 1.499 . S
C758 H738 0.950 . S
C758 C757 1.414 . S
C758 C759 1.374 . S
C759 H739 0.950 . S
C759 C755 1.385 . S
C759 C758 1.374 . S
C760 C757 1.499 . S
C760 C761 1.373 . S
C760 C762 1.389 . S
C761 H740 0.950 . S
C761 C760 1.373 . S
C761 C777 1.377 . S
C762 C760 1.389 . S
C762 C763 1.524 . S
C762 C776 1.377 . S
C763 C762 1.524 . S
C763 C764 1.397 . S
C763 C768 1.363 . S
C764 H741 0.950 . S
C764 C763 1.397 . S
C764 C765 1.334 . S
C765 H742 0.950 . S
C765 C764 1.334 . S
C765 C766 1.287 . S
C766 C765 1.287 . S
C766 C767 1.524 . S
C766 H785 0.913 . S
C767 H743 0.950 . S
C767 C766 1.524 . S
C767 C768 1.415 . S
C768 H744 0.950 . S
C768 C763 1.363 . S
C768 C767 1.415 . S
C769 H745 0.951 1_455 S
C769 C770 1.366 . S
C769 C771 1.388 . S
C770 C769 1.366 . S
C770 C774 1.385 . S
C771 H746 0.951 . S
C771 C769 1.388 . S
C771 C772 1.366 . S
C772 C771 1.366 . S
C772 C773 1.414 . S
C772 C775 1.499 . S
C773 H747 0.950 . S
C773 C772 1.414 . S
C773 C774 1.374 . S
C774 H748 0.950 . S
C774 C770 1.385 . S
C774 C773 1.374 . S
C775 C772 1.499 . S
C775 C776 1.373 . S
C775 C777 1.389 . S
C776 H749 0.950 . S
C776 C762 1.377 . S
C776 C775 1.373 . S
C777 C761 1.377 . S
C777 C775 1.389 . S
C777 C778 1.524 . S
C778 C777 1.524 . S
C778 C779 1.397 . S
C778 C783 1.363 1_455 S
C779 H750 0.950 . S
C779 C778 1.397 . S
C779 C780 1.334 1_455 S
C780 H751 0.950 . S
C780 C779 1.334 1_655 S
C780 C781 1.287 . S
C781 C780 1.287 . S
C781 C782 1.524 . S
C781 H784 0.999 . S
C782 H752 0.950 . S
C782 C781 1.524 . S
C782 C783 1.415 . S
C783 H753 0.950 . S
C783 C778 1.363 1_655 S
C783 C782 1.415 . S
H784 C781 0.999 . S
H785 C766 0.913 . S
H786 C804 0.951 . S
H787 C806 0.951 . S
H788 C808 0.950 . S
H789 C809 0.950 . S
H790 C811 0.950 . S
H791 C814 0.950 . S
H792 C815 0.950 . S
H793 C817 0.950 . S
H794 C818 0.950 . S
H795 C819 0.951 . S
H796 C821 0.951 . S
H797 C823 0.950 . S
H798 C824 0.950 . S
H799 C826 0.950 . S
H800 C829 0.950 . S
H801 C830 0.955 . S
H802 C832 0.950 1_655 S
H803 C833 0.950 . S
C804 H786 0.951 . S
C804 C805 1.366 . S
C804 C806 1.388 . S
C805 C804 1.366 . S
C805 C809 1.385 . S
C806 H787 0.951 . S
C806 C804 1.388 . S
C806 C807 1.366 . S
C807 C806 1.366 . S
C807 C808 1.414 . S
C807 C810 1.499 . S
C808 H788 0.950 . S
C808 C807 1.414 . S
C808 C809 1.374 . S
C809 H789 0.950 . S
C809 C805 1.385 . S
C809 C808 1.374 . S
C810 C807 1.499 . S
C810 C811 1.373 . S
C810 C812 1.389 . S
C811 H790 0.950 . S
C811 C810 1.373 . S
C811 C827 1.377 . S
C812 C810 1.389 . S
C812 C813 1.524 . S
C812 C826 1.377 . S
C813 C812 1.524 . S
C813 C814 1.397 . S
C813 C818 1.363 . S
C814 H791 0.950 . S
C814 C813 1.397 . S
C814 C815 1.334 . S
C815 H792 0.950 . S
C815 C814 1.334 . S
C815 C816 1.287 . S
C816 C815 1.287 . S
C816 C817 1.524 . S
C816 H835 0.913 . S
C817 H793 0.950 . S
C817 C816 1.524 . S
C817 C818 1.415 . S
C818 H794 0.950 . S
C818 C813 1.363 . S
C818 C817 1.415 . S
C819 H795 0.951 . S
C819 C820 1.366 . S
C819 C821 1.388 . S
C820 C819 1.366 . S
C820 C824 1.385 . S
C821 H796 0.951 . S
C821 C819 1.388 . S
C821 C822 1.366 . S
C822 C821 1.366 . S
C822 C823 1.414 . S
C822 C825 1.499 . S
C823 H797 0.950 . S
C823 C822 1.414 . S
C823 C824 1.374 . S
C824 H798 0.950 . S
C824 C820 1.385 . S
C824 C823 1.374 . S
C825 C822 1.499 . S
C825 C826 1.373 . S
C825 C827 1.389 . S
C826 H799 0.950 . S
C826 C812 1.377 . S
C826 C825 1.373 . S
C827 C811 1.377 . S
C827 C825 1.389 . S
C827 C828 1.524 . S
C828 C827 1.524 . S
C828 C829 1.397 . S
C828 C833 1.363 . S
C829 H800 0.950 . S
C829 C828 1.397 . S
C829 C830 1.334 . S
C830 H801 0.955 . S
C830 C829 1.334 . S
C830 C831 1.287 1_455 S
C831 C830 1.287 1_655 S
C831 C832 1.524 1_655 S
C831 H834 0.999 . S
C832 H802 0.950 1_455 S
C832 C831 1.524 1_455 S
C832 C833 1.415 . S
C833 H803 0.950 . S
C833 C828 1.363 . S
C833 C832 1.415 . S
H834 C831 0.999 . S
H835 C816 0.913 . S
H836 C854 0.951 . S
H837 C856 0.951 . S
H838 C858 0.950 . S
H839 C859 0.950 . S
H840 C861 0.950 . S
H841 C864 0.950 . S
H842 C865 0.950 . S
H843 C867 0.950 . S
H844 C868 0.950 . S
H845 C869 0.951 . S
H846 C871 0.951 . S
H847 C873 0.950 . S
H848 C874 0.950 . S
H849 C876 0.950 . S
H850 C879 0.950 . S
H851 C880 0.950 . S
H852 C882 0.950 . S
H853 C883 0.950 . S
C854 H836 0.951 . S
C854 C855 1.366 . S
C854 C856 1.388 . S
C855 C854 1.366 . S
C855 C859 1.385 . S
C856 H837 0.951 . S
C856 C854 1.388 . S
C856 C857 1.366 . S
C857 C856 1.366 . S
C857 C858 1.414 . S
C857 C860 1.499 . S
C858 H838 0.950 . S
C858 C857 1.414 . S
C858 C859 1.374 . S
C859 H839 0.950 . S
C859 C855 1.385 . S
C859 C858 1.374 . S
C860 C857 1.499 . S
C860 C861 1.373 . S
C860 C862 1.389 . S
C861 H840 0.950 . S
C861 C860 1.373 . S
C861 C877 1.377 . S
C862 C860 1.389 . S
C862 C863 1.524 . S
C862 C876 1.377 . S
C863 C862 1.524 . S
C863 C864 1.397 . S
C863 C868 1.363 . S
C864 H841 0.950 . S
C864 C863 1.397 . S
C864 C865 1.334 . S
C865 H842 0.950 . S
C865 C864 1.334 . S
C865 C866 1.287 . S
C866 C865 1.287 . S
C866 C867 1.524 . S
C866 H885 0.913 . S
C867 H843 0.950 . S
C867 C866 1.524 . S
C867 C868 1.415 . S
C868 H844 0.950 . S
C868 C863 1.363 . S
C868 C867 1.415 . S
C869 H845 0.951 . S
C869 C870 1.366 . S
C869 C871 1.388 . S
C870 C869 1.366 . S
C870 C874 1.385 . S
C871 H846 0.951 . S
C871 C869 1.388 . S
C871 C872 1.366 . S
C872 C871 1.366 . S
C872 C873 1.414 . S
C872 C875 1.499 1_545 S
C873 H847 0.950 . S
C873 C872 1.414 . S
C873 C874 1.374 . S
C874 H848 0.950 . S
C874 C870 1.385 . S
C874 C873 1.374 . S
C875 C872 1.499 1_565 S
C875 C876 1.373 . S
C875 C877 1.389 . S
C876 H849 0.950 . S
C876 C862 1.377 . S
C876 C875 1.373 . S
C877 C861 1.377 . S
C877 C875 1.389 . S
C877 C878 1.524 1_565 S
C878 C877 1.524 1_545 S
C878 C879 1.397 . S
C878 C883 1.363 . S
C879 H850 0.950 . S
C879 C878 1.397 . S
C879 C880 1.334 . S
C880 H851 0.950 . S
C880 C879 1.334 . S
C880 C881 1.287 . S
C881 C880 1.287 . S
C881 C882 1.524 . S
C881 H884 0.999 . S
C882 H852 0.950 . S
C882 C881 1.524 . S
C882 C883 1.415 . S
C883 H853 0.950 . S
C883 C878 1.363 . S
C883 C882 1.415 . S
H884 C881 0.999 . S
H885 C866 0.913 . S
H886 C904 0.951 . S
H887 C906 0.951 . S
H888 C908 0.950 . S
H889 C909 0.950 . S
H890 C911 0.950 . S
H891 C914 0.950 . S
H892 C915 0.950 . S
H893 C917 0.950 . S
H894 C918 0.950 . S
H895 C919 0.951 . S
H896 C921 0.951 . S
H897 C923 0.950 . S
H898 C924 0.950 . S
H899 C926 0.950 . S
H900 C929 0.950 . S
H901 C930 0.950 . S
H902 C932 0.950 . S
H903 C933 0.950 . S
C904 H886 0.951 . S
C904 C905 1.366 . S
C904 C906 1.388 . S
C905 C904 1.366 . S
C905 C909 1.385 . S
C906 H887 0.951 . S
C906 C904 1.388 . S
C906 C907 1.366 . S
C907 C906 1.366 . S
C907 C908 1.414 . S
C907 C910 1.499 . S
C908 H888 0.950 . S
C908 C907 1.414 . S
C908 C909 1.374 . S
C909 H889 0.950 . S
C909 C905 1.385 . S
C909 C908 1.374 . S
C910 C907 1.499 . S
C910 C911 1.373 . S
C910 C912 1.389 . S
C911 H890 0.950 . S
C911 C910 1.373 . S
C911 C927 1.377 . S
C912 C910 1.389 . S
C912 C913 1.524 . S
C912 C926 1.377 . S
C913 C912 1.524 . S
C913 C914 1.397 . S
C913 C918 1.363 . S
C914 H891 0.950 . S
C914 C913 1.397 . S
C914 C915 1.334 . S
C915 H892 0.950 . S
C915 C914 1.334 . S
C915 C916 1.287 . S
C916 C915 1.287 . S
C916 C917 1.524 . S
C916 H935 0.913 . S
C917 H893 0.950 . S
C917 C916 1.524 . S
C917 C918 1.415 . S
C918 H894 0.950 . S
C918 C913 1.363 . S
C918 C917 1.415 . S
C919 H895 0.951 . S
C919 C920 1.366 . S
C919 C921 1.388 . S
C920 C919 1.366 . S
C920 C924 1.385 . S
C921 H896 0.951 . S
C921 C919 1.388 . S
C921 C922 1.366 . S
C922 C921 1.366 . S
C922 C923 1.414 . S
C922 C925 1.499 . S
C923 H897 0.950 . S
C923 C922 1.414 . S
C923 C924 1.374 . S
C924 H898 0.950 . S
C924 C920 1.385 . S
C924 C923 1.374 . S
C925 C922 1.499 . S
C925 C926 1.373 . S
C925 C927 1.389 . S
C926 H899 0.950 . S
C926 C912 1.377 . S
C926 C925 1.373 . S
C927 C911 1.377 . S
C927 C925 1.389 . S
C927 C928 1.524 . S
C928 C927 1.524 . S
C928 C929 1.397 . S
C928 C933 1.363 . S
C929 H900 0.950 . S
C929 C928 1.397 . S
C929 C930 1.334 . S
C930 H901 0.950 . S
C930 C929 1.334 . S
C930 C931 1.287 . S
C931 C930 1.287 . S
C931 C932 1.524 . S
C931 H934 0.999 . S
C932 H902 0.950 . S
C932 C931 1.524 . S
C932 C933 1.415 . S
C933 H903 0.950 . S
C933 C928 1.363 . S
C933 C932 1.415 . S
H934 C931 0.999 . S
H935 C916 0.913 . S
H936 C954 0.951 . S
H937 C956 0.951 . S
H938 C958 0.972 . S
H939 C959 0.950 . S
H940 C961 0.950 . S
H941 C964 0.966 . S
H942 C965 0.950 . S
H943 C967 0.950 . S
H944 C968 0.950 . S
H945 C969 0.951 . S
H946 C971 0.951 . S
H947 C973 0.950 . S
H948 C974 0.950 . S
H949 C976 0.950 . S
H950 C979 0.950 . S
H951 C980 0.950 . S
H952 C982 0.950 . S
H953 C983 0.950 . S
C954 H936 0.951 . S
C954 C955 1.366 . S
C954 C956 1.388 . S
C955 C954 1.366 . S
C955 C959 1.385 . S
C956 H937 0.951 . S
C956 C954 1.388 . S
C956 C957 1.366 . S
C957 C956 1.366 . S
C957 C958 1.414 . S
C957 C960 1.499 1_554 S
C958 H938 0.972 . S
C958 C957 1.414 . S
C958 C959 1.374 . S
C959 H939 0.950 . S
C959 C955 1.385 . S
C959 C958 1.374 . S
C960 C957 1.499 1_556 S
C960 C961 1.373 . S
C960 C962 1.389 . S
C961 H940 0.950 . S
C961 C960 1.373 . S
C961 C977 1.377 . S
C962 C960 1.389 . S
C962 C963 1.524 . S
C962 C976 1.377 . S
C963 C962 1.524 . S
C963 C964 1.399 . S
C963 C968 1.363 1_556 S
C964 H941 0.966 . S
C964 C963 1.399 . S
C964 C965 1.318 1_556 S
C965 H942 0.950 . S
C965 C964 1.318 1_554 S
C965 C966 1.287 . S
C966 C965 1.287 . S
C966 C967 1.524 . S
C966 H985 0.913 . S
C967 H943 0.950 . S
C967 C966 1.524 . S
C967 C968 1.415 . S
C968 H944 0.950 . S
C968 C963 1.363 1_554 S
C968 C967 1.415 . S
C969 H945 0.951 . S
C969 C970 1.366 . S
C969 C971 1.388 . S
C970 C969 1.366 . S
C970 C974 1.385 . S
C971 H946 0.951 . S
C971 C969 1.388 . S
C971 C972 1.366 . S
C972 C971 1.366 . S
C972 C973 1.414 . S
C972 C975 1.499 . S
C973 H947 0.950 . S
C973 C972 1.414 . S
C973 C974 1.374 . S
C974 H948 0.950 . S
C974 C970 1.385 . S
C974 C973 1.374 . S
C975 C972 1.499 . S
C975 C976 1.373 . S
C975 C977 1.389 . S
C976 H949 0.950 . S
C976 C962 1.377 . S
C976 C975 1.373 . S
C977 C961 1.377 . S
C977 C975 1.389 . S
C977 C978 1.524 . S
C978 C977 1.524 . S
C978 C979 1.397 . S
C978 C983 1.363 . S
C979 H950 0.950 . S
C979 C978 1.397 . S
C979 C980 1.334 . S
C980 H951 0.950 . S
C980 C979 1.334 . S
C980 C981 1.287 . S
C981 C980 1.287 . S
C981 C982 1.524 . S
C981 H984 0.999 . S
C982 H952 0.950 . S
C982 C981 1.524 . S
C982 C983 1.415 . S
C983 H953 0.950 . S
C983 C978 1.363 . S
C983 C982 1.415 . S
H984 C981 0.999 . S
H985 C966 0.913 . S
H986 C1004 0.951 . S
H987 C1006 0.951 1_556 S
H988 C1008 0.950 . S
H989 C1009 0.950 . S
H990 C1011 0.950 . S
H991 C1014 0.950 . S
H992 C1015 0.950 . S
H993 C1017 0.950 . S
H994 C1018 0.950 . S
H995 C1019 0.951 . S
H996 C1021 0.951 . S
H997 C1023 0.950 . S
H998 C1024 0.950 . S
H999 C1026 0.950 . S
H1000 C1029 0.950 . S
H1001 C1030 0.950 . S
H1002 C1032 0.950 . S
H1003 C1033 0.950 . S
C1004 H986 0.951 . S
C1004 C1005 1.366 . S
C1004 C1006 1.388 . S
C1005 C1004 1.366 . S
C1005 C1009 1.385 . S
C1006 H987 0.951 1_554 S
C1006 C1004 1.388 . S
C1006 C1007 1.366 . S
C1007 C1006 1.366 . S
C1007 C1008 1.414 . S
C1007 C1010 1.499 1_554 S
C1008 H988 0.950 . S
C1008 C1007 1.414 . S
C1008 C1009 1.374 . S
C1009 H989 0.950 . S
C1009 C1005 1.385 . S
C1009 C1008 1.374 . S
C1010 C1007 1.499 1_556 S
C1010 C1011 1.373 . S
C1010 C1012 1.389 . S
C1011 H990 0.950 . S
C1011 C1010 1.373 . S
C1011 C1027 1.377 . S
C1012 C1010 1.389 . S
C1012 C1013 1.524 . S
C1012 C1026 1.377 . S
C1013 C1012 1.524 . S
C1013 C1014 1.397 1_556 S
C1013 C1018 1.363 . S
C1014 H991 0.950 . S
C1014 C1013 1.397 1_554 S
C1014 C1015 1.334 . S
C1015 H992 0.950 . S
C1015 C1014 1.334 . S
C1015 C1016 1.287 . S
C1016 C1015 1.287 . S
C1016 C1017 1.524 1_554 S
C1016 H1035 0.913 . S
C1017 H993 0.950 . S
C1017 C1016 1.524 1_556 S
C1017 C1018 1.415 . S
C1018 H994 0.950 . S
C1018 C1013 1.363 . S
C1018 C1017 1.415 . S
C1019 H995 0.951 . S
C1019 C1020 1.366 . S
C1019 C1021 1.388 . S
C1020 C1019 1.366 . S
C1020 C1024 1.385 . S
C1021 H996 0.951 . S
C1021 C1019 1.388 . S
C1021 C1022 1.366 . S
C1022 C1021 1.366 . S
C1022 C1023 1.414 . S
C1022 C1025 1.499 . S
C1023 H997 0.950 . S
C1023 C1022 1.414 . S
C1023 C1024 1.374 . S
C1024 H998 0.950 . S
C1024 C1020 1.385 . S
C1024 C1023 1.374 . S
C1025 C1022 1.499 . S
C1025 C1026 1.373 . S
C1025 C1027 1.389 . S
C1026 H999 0.950 . S
C1026 C1012 1.377 . S
C1026 C1025 1.373 . S
C1027 C1011 1.377 . S
C1027 C1025 1.389 . S
C1027 C1028 1.524 . S
C1028 C1027 1.524 . S
C1028 C1029 1.397 . S
C1028 C1033 1.363 . S
C1029 H1000 0.950 . S
C1029 C1028 1.397 . S
C1029 C1030 1.334 . S
C1030 H1001 0.950 . S
C1030 C1029 1.334 . S
C1030 C1031 1.287 1_565 S
C1031 C1030 1.287 1_545 S
C1031 C1032 1.524 . S
C1031 H1034 0.999 . S
C1032 H1002 0.950 . S
C1032 C1031 1.524 . S
C1032 C1033 1.415 1_545 S
C1033 H1003 0.950 . S
C1033 C1028 1.363 . S
C1033 C1032 1.415 1_565 S
H1034 C1031 0.999 . S
H1035 C1016 0.913 . S
H1036 C1054 0.951 . S
H1037 C1056 0.951 . S
H1038 C1058 0.950 . S
H1039 C1059 0.950 . S
H1040 C1061 0.950 . S
H1041 C1064 0.950 . S
H1042 C1065 0.950 . S
H1043 C1067 0.950 . S
H1044 C1068 0.950 . S
H1045 C1069 0.951 . S
H1046 C1071 0.951 . S
H1047 C1073 0.950 . S
H1048 C1074 0.950 . S
H1049 C1076 0.950 . S
H1050 C1079 0.950 . S
H1051 C1080 0.950 . S
H1052 C1082 0.950 . S
H1053 C1083 0.950 . S
C1054 H1036 0.951 . S
C1054 C1055 1.366 . S
C1054 C1056 1.388 . S
C1055 C1054 1.366 . S
C1055 C1059 1.385 . S
C1056 H1037 0.951 . S
C1056 C1054 1.388 . S
C1056 C1057 1.366 . S
C1057 C1056 1.366 . S
C1057 C1058 1.414 . S
C1057 C1060 1.499 . S
C1058 H1038 0.950 . S
C1058 C1057 1.414 . S
C1058 C1059 1.374 . S
C1059 H1039 0.950 . S
C1059 C1055 1.385 . S
C1059 C1058 1.374 . S
C1060 C1057 1.499 . S
C1060 C1061 1.373 . S
C1060 C1062 1.389 . S
C1061 H1040 0.950 . S
C1061 C1060 1.373 . S
C1061 C1077 1.377 . S
C1062 C1060 1.389 . S
C1062 C1063 1.524 . S
C1062 C1076 1.377 . S
C1063 C1062 1.524 . S
C1063 C1064 1.397 . S
C1063 C1068 1.363 . S
C1064 H1041 0.950 . S
C1064 C1063 1.397 . S
C1064 C1065 1.334 . S
C1065 H1042 0.950 . S
C1065 C1064 1.334 . S
C1065 C1066 1.287 . S
C1066 C1065 1.287 . S
C1066 C1067 1.524 . S
C1066 H1085 0.913 . S
C1067 H1043 0.950 . S
C1067 C1066 1.524 . S
C1067 C1068 1.415 . S
C1068 H1044 0.950 . S
C1068 C1063 1.363 . S
C1068 C1067 1.415 . S
C1069 H1045 0.951 . S
C1069 C1070 1.366 . S
C1069 C1071 1.388 . S
C1070 C1069 1.366 . S
C1070 C1074 1.385 . S
C1071 H1046 0.951 . S
C1071 C1069 1.388 . S
C1071 C1072 1.366 . S
C1072 C1071 1.366 . S
C1072 C1073 1.414 . S
C1072 C1075 1.499 . S
C1073 H1047 0.950 . S
C1073 C1072 1.414 . S
C1073 C1074 1.374 . S
C1074 H1048 0.950 . S
C1074 C1070 1.385 . S
C1074 C1073 1.374 . S
C1075 C1072 1.499 . S
C1075 C1076 1.373 . S
C1075 C1077 1.389 . S
C1076 H1049 0.950 . S
C1076 C1062 1.377 . S
C1076 C1075 1.373 . S
C1077 C1061 1.377 . S
C1077 C1075 1.389 . S
C1077 C1078 1.524 . S
C1078 C1077 1.524 . S
C1078 C1079 1.397 . S
C1078 C1083 1.363 . S
C1079 H1050 0.950 . S
C1079 C1078 1.397 . S
C1079 C1080 1.334 . S
C1080 H1051 0.950 . S
C1080 C1079 1.334 . S
C1080 C1081 1.287 . S
C1081 C1080 1.287 . S
C1081 C1082 1.524 . S
C1081 H1084 0.999 . S
C1082 H1052 0.950 . S
C1082 C1081 1.524 . S
C1082 C1083 1.415 . S
C1083 H1053 0.950 . S
C1083 C1078 1.363 . S
C1083 C1082 1.415 . S
H1084 C1081 0.999 . S
H1085 C1066 0.913 . S
H1086 C1104 0.951 . S
H1087 C1106 0.951 . S
H1088 C1108 0.950 . S
H1089 C1109 0.950 . S
H1090 C1111 0.950 . S
H1091 C1114 0.950 . S
H1092 C1115 0.950 . S
H1093 C1117 0.950 . S
H1094 C1118 0.950 . S
H1095 C1119 0.951 . S
H1096 C1121 0.951 . S
H1097 C1123 0.950 . S
H1098 C1124 0.950 . S
H1099 C1126 0.950 . S
H1100 C1129 0.950 1_545 S
H1101 C1130 0.950 . S
H1102 C1132 0.950 . S
H1103 C1133 0.950 . S
C1104 H1086 0.951 . S
C1104 C1105 1.366 . S
C1104 C1106 1.388 . S
C1105 C1104 1.366 . S
C1105 C1109 1.385 . S
C1106 H1087 0.951 . S
C1106 C1104 1.388 . S
C1106 C1107 1.366 . S
C1107 C1106 1.366 . S
C1107 C1108 1.414 . S
C1107 C1110 1.499 . S
C1108 H1088 0.950 . S
C1108 C1107 1.414 . S
C1108 C1109 1.374 . S
C1109 H1089 0.950 . S
C1109 C1105 1.385 . S
C1109 C1108 1.374 . S
C1110 C1107 1.499 . S
C1110 C1111 1.373 . S
C1110 C1112 1.389 . S
C1111 H1090 0.950 . S
C1111 C1110 1.373 . S
C1111 C1127 1.377 . S
C1112 C1110 1.389 . S
C1112 C1113 1.524 . S
C1112 C1126 1.377 . S
C1113 C1112 1.524 . S
C1113 C1114 1.397 . S
C1113 C1118 1.363 . S
C1114 H1091 0.950 . S
C1114 C1113 1.397 . S
C1114 C1115 1.334 . S
C1115 H1092 0.950 . S
C1115 C1114 1.334 . S
C1115 C1116 1.287 . S
C1116 C1115 1.287 . S
C1116 C1117 1.524 . S
C1116 H1135 0.913 . S
C1117 H1093 0.950 . S
C1117 C1116 1.524 . S
C1117 C1118 1.415 . S
C1118 H1094 0.950 . S
C1118 C1113 1.363 . S
C1118 C1117 1.415 . S
C1119 H1095 0.951 . S
C1119 C1120 1.366 . S
C1119 C1121 1.388 . S
C1120 C1119 1.366 . S
C1120 C1124 1.385 . S
C1121 H1096 0.951 . S
C1121 C1119 1.388 . S
C1121 C1122 1.366 . S
C1122 C1121 1.366 . S
C1122 C1123 1.414 . S
C1122 C1125 1.499 . S
C1123 H1097 0.950 . S
C1123 C1122 1.414 . S
C1123 C1124 1.374 . S
C1124 H1098 0.950 . S
C1124 C1120 1.385 . S
C1124 C1123 1.374 . S
C1125 C1122 1.499 . S
C1125 C1126 1.373 . S
C1125 C1127 1.389 . S
C1126 H1099 0.950 . S
C1126 C1112 1.377 . S
C1126 C1125 1.373 . S
C1127 C1111 1.377 . S
C1127 C1125 1.389 . S
C1127 C1128 1.524 . S
C1128 C1127 1.524 . S
C1128 C1129 1.397 1_545 S
C1128 C1133 1.363 . S
C1129 H1100 0.950 1_565 S
C1129 C1128 1.397 1_565 S
C1129 C1130 1.334 . S
C1130 H1101 0.950 . S
C1130 C1129 1.334 . S
C1130 C1131 1.287 . S
C1131 C1130 1.287 . S
C1131 C1132 1.524 . S
C1131 H1134 0.999 . S
C1132 H1102 0.950 . S
C1132 C1131 1.524 . S
C1132 C1133 1.415 1_565 S
C1133 H1103 0.950 . S
C1133 C1128 1.363 . S
C1133 C1132 1.415 1_545 S
H1134 C1131 0.999 . S
H1135 C1116 0.913 . S
H1136 C1154 0.951 . S
H1137 C1156 0.951 . S
H1138 C1158 0.950 . S
H1139 C1159 0.950 . S
H1140 C1161 0.950 . S
H1141 C1164 0.950 . S
H1142 C1165 0.950 . S
H1143 C1167 0.950 . S
H1144 C1168 0.950 1_655 S
H1145 C1169 0.951 . S
H1146 C1171 0.951 . S
H1147 C1173 0.950 . S
H1148 C1174 0.950 . S
H1149 C1176 0.950 . S
H1150 C1179 0.950 . S
H1151 C1180 0.950 . S
H1152 C1182 0.950 . S
H1153 C1183 0.950 . S
C1154 H1136 0.951 . S
C1154 C1155 1.366 . S
C1154 C1156 1.388 . S
C1155 C1154 1.366 . S
C1155 C1159 1.385 . S
C1156 H1137 0.951 . S
C1156 C1154 1.388 . S
C1156 C1157 1.366 . S
C1157 C1156 1.366 . S
C1157 C1158 1.414 . S
C1157 C1160 1.499 1_455 S
C1158 H1138 0.950 . S
C1158 C1157 1.414 . S
C1158 C1159 1.374 . S
C1159 H1139 0.950 . S
C1159 C1155 1.385 . S
C1159 C1158 1.374 . S
C1160 C1157 1.499 1_655 S
C1160 C1161 1.373 . S
C1160 C1162 1.389 . S
C1161 H1140 0.950 . S
C1161 C1160 1.373 . S
C1161 C1177 1.377 . S
C1162 C1160 1.389 . S
C1162 C1163 1.524 1_655 S
C1162 C1176 1.377 . S
C1163 C1162 1.524 1_455 S
C1163 C1164 1.397 . S
C1163 C1168 1.363 . S
C1164 H1141 0.950 . S
C1164 C1163 1.397 . S
C1164 C1165 1.334 . S
C1165 H1142 0.950 . S
C1165 C1164 1.334 . S
C1165 C1166 1.287 . S
C1166 C1165 1.287 . S
C1166 C1167 1.524 . S
C1166 H1185 0.913 . S
C1167 H1143 0.950 . S
C1167 C1166 1.524 . S
C1167 C1168 1.415 . S
C1168 H1144 0.950 1_455 S
C1168 C1163 1.363 . S
C1168 C1167 1.415 . S
C1169 H1145 0.951 . S
C1169 C1170 1.366 . S
C1169 C1171 1.388 . S
C1170 C1169 1.366 . S
C1170 C1174 1.385 . S
C1171 H1146 0.951 . S
C1171 C1169 1.388 . S
C1171 C1172 1.366 . S
C1172 C1171 1.366 . S
C1172 C1173 1.414 . S
C1172 C1175 1.499 . S
C1173 H1147 0.950 . S
C1173 C1172 1.414 . S
C1173 C1174 1.374 . S
C1174 H1148 0.950 . S
C1174 C1170 1.385 . S
C1174 C1173 1.374 . S
C1175 C1172 1.499 . S
C1175 C1176 1.373 . S
C1175 C1177 1.389 . S
C1176 H1149 0.950 . S
C1176 C1162 1.377 . S
C1176 C1175 1.373 . S
C1177 C1161 1.377 . S
C1177 C1175 1.389 . S
C1177 C1178 1.524 . S
C1178 C1177 1.524 . S
C1178 C1179 1.397 . S
C1178 C1183 1.363 . S
C1179 H1150 0.950 . S
C1179 C1178 1.397 . S
C1179 C1180 1.334 . S
C1180 H1151 0.950 . S
C1180 C1179 1.334 . S
C1180 C1181 1.287 . S
C1181 C1180 1.287 . S
C1181 C1182 1.524 . S
C1181 H1184 0.999 . S
C1182 H1152 0.950 . S
C1182 C1181 1.524 . S
C1182 C1183 1.415 . S
C1183 H1153 0.950 . S
C1183 C1178 1.363 . S
C1183 C1182 1.415 . S
H1184 C1181 0.999 . S
H1185 C1166 0.913 . S
H1186 C1204 0.951 . S
H1187 C1206 0.951 . S
H1188 C1208 0.950 . S
H1189 C1209 0.950 . S
H1190 C1211 0.950 . S
H1191 C1214 0.950 . S
H1192 C1215 0.952 . S
H1193 C1217 0.950 . S
H1194 C1218 0.950 . S
H1195 C1219 0.951 . S
H1196 C1221 0.951 . S
H1197 C1223 0.950 . S
H1198 C1224 0.950 . S
H1199 C1226 0.950 . S
H1200 C1229 0.950 . S
H1201 C1230 0.950 . S
H1202 C1232 0.950 . S
H1203 C1233 0.950 . S
C1204 H1186 0.951 . S
C1204 C1205 1.366 . S
C1204 C1206 1.388 . S
C1205 C1204 1.366 . S
C1205 C1209 1.385 . S
C1206 H1187 0.951 . S
C1206 C1204 1.388 . S
C1206 C1207 1.366 . S
C1207 C1206 1.366 . S
C1207 C1208 1.414 . S
C1207 C1210 1.499 1_655 S
C1208 H1188 0.950 . S
C1208 C1207 1.414 . S
C1208 C1209 1.374 . S
C1209 H1189 0.950 . S
C1209 C1205 1.385 . S
C1209 C1208 1.374 . S
C1210 C1207 1.499 1_455 S
C1210 C1211 1.373 . S
C1210 C1212 1.389 . S
C1211 H1190 0.950 . S
C1211 C1210 1.373 . S
C1211 C1227 1.377 . S
C1212 C1210 1.389 . S
C1212 C1213 1.524 . S
C1212 C1226 1.377 . S
C1213 C1212 1.524 . S
C1213 C1214 1.397 . S
C1213 C1218 1.363 . S
C1214 H1191 0.950 . S
C1214 C1213 1.397 . S
C1214 C1215 1.334 . S
C1215 H1192 0.952 . S
C1215 C1214 1.334 . S
C1215 C1216 1.287 . S
C1216 C1215 1.287 . S
C1216 C1217 1.524 . S
C1216 H1235 0.908 1_455 S
C1217 H1193 0.950 . S
C1217 C1216 1.524 . S
C1217 C1218 1.415 . S
C1218 H1194 0.950 . S
C1218 C1213 1.363 . S
C1218 C1217 1.415 . S
C1219 H1195 0.951 . S
C1219 C1220 1.366 . S
C1219 C1221 1.388 . S
C1220 C1219 1.366 . S
C1220 C1224 1.385 . S
C1221 H1196 0.951 . S
C1221 C1219 1.388 . S
C1221 C1222 1.366 . S
C1222 C1221 1.366 . S
C1222 C1223 1.414 . S
C1222 C1225 1.499 . S
C1223 H1197 0.950 . S
C1223 C1222 1.414 . S
C1223 C1224 1.374 . S
C1224 H1198 0.950 . S
C1224 C1220 1.385 . S
C1224 C1223 1.374 . S
C1225 C1222 1.499 . S
C1225 C1226 1.373 . S
C1225 C1227 1.389 . S
C1226 H1199 0.950 . S
C1226 C1212 1.377 . S
C1226 C1225 1.373 . S
C1227 C1211 1.377 . S
C1227 C1225 1.389 . S
C1227 C1228 1.524 . S
C1228 C1227 1.524 . S
C1228 C1229 1.397 . S
C1228 C1233 1.363 . S
C1229 H1200 0.950 . S
C1229 C1228 1.397 . S
C1229 C1230 1.334 . S
C1230 H1201 0.950 . S
C1230 C1229 1.334 . S
C1230 C1231 1.287 . S
C1231 C1230 1.287 . S
C1231 C1232 1.524 . S
C1231 H1234 0.999 . S
C1232 H1202 0.950 . S
C1232 C1231 1.524 . S
C1232 C1233 1.415 . S
C1233 H1203 0.950 . S
C1233 C1228 1.363 . S
C1233 C1232 1.415 . S
H1234 C1231 0.999 . S
H1235 C1216 0.908 1_655 S
H1236 C1254 0.951 . S
H1237 C1256 0.951 1_655 S
H1238 C1258 0.950 . S
H1239 C1259 0.950 . S
H1240 C1261 0.950 1_455 S
H1241 C1264 0.990 . S
H1242 C1265 0.950 . S
H1243 C1267 0.950 . S
H1244 C1268 0.950 . S
H1245 C1269 0.951 . S
H1246 C1271 0.951 . S
H1247 C1273 0.950 . S
H1248 C1274 0.950 . S
H1249 C1276 0.950 . S
H1250 C1279 0.950 . S
H1251 C1280 0.950 . S
H1252 C1282 0.950 1_455 S
H1253 C1283 0.950 1_455 S
C1254 H1236 0.951 . S
C1254 C1255 1.366 . S
C1254 C1256 1.388 . S
C1255 C1254 1.366 . S
C1255 C1259 1.385 . S
C1256 H1237 0.951 1_455 S
C1256 C1254 1.388 . S
C1256 C1257 1.366 . S
C1257 C1256 1.366 . S
C1257 C1258 1.414 . S
C1257 C1260 1.499 1_455 S
C1258 H1238 0.950 . S
C1258 C1257 1.414 . S
C1258 C1259 1.374 . S
C1259 H1239 0.950 . S
C1259 C1255 1.385 . S
C1259 C1258 1.374 . S
C1260 C1257 1.499 1_655 S
C1260 C1261 1.373 . S
C1260 C1262 1.389 . S
C1261 H1240 0.950 1_655 S
C1261 C1260 1.373 . S
C1261 C1277 1.377 . S
C1262 C1260 1.389 . S
C1262 C1263 1.524 . S
C1262 C1276 1.377 . S
C1263 C1262 1.524 . S
C1263 C1264 1.397 . S
C1263 C1268 1.363 . S
C1264 H1241 0.990 . S
C1264 C1263 1.397 . S
C1264 C1265 1.334 . S
C1265 H1242 0.950 . S
C1265 C1264 1.334 . S
C1265 C1266 1.287 . S
C1266 C1265 1.287 . S
C1266 C1267 1.524 . S
C1266 H1285 0.913 . S
C1267 H1243 0.950 . S
C1267 C1266 1.524 . S
C1267 C1268 1.415 . S
C1268 H1244 0.950 . S
C1268 C1263 1.363 . S
C1268 C1267 1.415 . S
C1269 H1245 0.951 . S
C1269 C1270 1.366 . S
C1269 C1271 1.388 . S
C1270 C1269 1.366 . S
C1270 C1274 1.385 . S
C1271 H1246 0.951 . S
C1271 C1269 1.388 . S
C1271 C1272 1.366 . S
C1272 C1271 1.366 . S
C1272 C1273 1.414 . S
C1272 C1275 1.499 . S
C1273 H1247 0.950 . S
C1273 C1272 1.414 . S
C1273 C1274 1.374 . S
C1274 H1248 0.950 . S
C1274 C1270 1.385 . S
C1274 C1273 1.374 . S
C1275 C1272 1.499 . S
C1275 C1276 1.373 . S
C1275 C1277 1.389 . S
C1276 H1249 0.950 . S
C1276 C1262 1.377 . S
C1276 C1275 1.373 . S
C1277 C1261 1.377 . S
C1277 C1275 1.389 . S
C1277 C1278 1.524 . S
C1278 C1277 1.524 . S
C1278 C1279 1.397 . S
C1278 C1283 1.363 . S
C1279 H1250 0.950 . S
C1279 C1278 1.397 . S
C1279 C1280 1.334 . S
C1280 H1251 0.950 . S
C1280 C1279 1.334 . S
C1280 C1281 1.287 . S
C1281 C1280 1.287 . S
C1281 C1282 1.524 . S
C1281 H1284 0.999 . S
C1282 H1252 0.950 1_655 S
C1282 C1281 1.524 . S
C1282 C1283 1.415 . S
C1283 H1253 0.950 1_655 S
C1283 C1278 1.363 . S
C1283 C1282 1.415 . S
H1284 C1281 0.999 . S
H1285 C1266 0.913 . S
H1286 C1304 0.951 . S
H1287 C1306 0.951 . S
H1288 C1308 0.950 . S
H1289 C1309 0.950 . S
H1290 C1311 0.950 . S
H1291 C1314 0.950 . S
H1292 C1315 0.950 . S
H1293 C1317 0.950 1_655 S
H1294 C1318 0.950 1_655 S
H1295 C1319 0.951 . S
H1296 C1321 0.951 1_455 S
H1297 C1323 0.950 . S
H1298 C1324 0.950 . S
H1299 C1326 0.950 1_655 S
H1300 C1329 0.938 1_656 S
H1301 C1330 0.950 1_655 S
H1302 C1332 0.950 . S
H1303 C1333 0.950 . S
C1304 H1286 0.951 . S
C1304 C1305 1.366 . S
C1304 C1306 1.388 . S
C1305 C1304 1.366 . S
C1305 C1309 1.385 . S
C1306 H1287 0.951 . S
C1306 C1304 1.388 . S
C1306 C1307 1.366 . S
C1307 C1306 1.366 . S
C1307 C1308 1.414 . S
C1307 C1310 1.499 . S
C1308 H1288 0.950 . S
C1308 C1307 1.414 . S
C1308 C1309 1.374 . S
C1309 H1289 0.950 . S
C1309 C1305 1.385 . S
C1309 C1308 1.374 . S
C1310 C1307 1.499 . S
C1310 C1311 1.373 . S
C1310 C1312 1.389 . S
C1311 H1290 0.950 . S
C1311 C1310 1.373 . S
C1311 C1327 1.377 . S
C1312 C1310 1.389 . S
C1312 C1313 1.524 . S
C1312 C1326 1.377 . S
C1313 C1312 1.524 . S
C1313 C1314 1.397 . S
C1313 C1318 1.363 . S
C1314 H1291 0.950 . S
C1314 C1313 1.397 . S
C1314 C1315 1.334 . S
C1315 H1292 0.950 . S
C1315 C1314 1.334 . S
C1315 C1316 1.287 . S
C1316 C1315 1.287 . S
C1316 C1317 1.524 . S
C1316 H1335 0.913 . S
C1317 H1293 0.950 1_455 S
C1317 C1316 1.524 . S
C1317 C1318 1.415 . S
C1318 H1294 0.950 1_455 S
C1318 C1313 1.363 . S
C1318 C1317 1.415 . S
C1319 H1295 0.951 . S
C1319 C1320 1.366 . S
C1319 C1321 1.388 . S
C1320 C1319 1.366 . S
C1320 C1324 1.385 . S
C1321 H1296 0.951 1_655 S
C1321 C1319 1.388 . S
C1321 C1322 1.366 . S
C1322 C1321 1.366 . S
C1322 C1323 1.414 . S
C1322 C1325 1.499 1_655 S
C1323 H1297 0.950 . S
C1323 C1322 1.414 . S
C1323 C1324 1.374 . S
C1324 H1298 0.950 . S
C1324 C1320 1.385 . S
C1324 C1323 1.374 . S
C1325 C1322 1.499 1_455 S
C1325 C1326 1.373 . S
C1325 C1327 1.389 . S
C1326 H1299 0.950 1_455 S
C1326 C1312 1.377 . S
C1326 C1325 1.373 . S
C1327 C1311 1.377 . S
C1327 C1325 1.389 . S
C1327 C1328 1.524 . S
C1328 C1327 1.524 . S
C1328 C1329 1.397 1_556 S
C1328 C1333 1.363 . S
C1329 H1300 0.938 1_454 S
C1329 C1328 1.397 1_554 S
C1329 C1330 1.334 . S
C1330 H1301 0.950 1_455 S
C1330 C1329 1.334 . S
C1330 C1331 1.287 . S
C1331 C1330 1.287 . S
C1331 C1332 1.524 . S
C1331 H1334 0.999 . S
C1332 H1302 0.950 . S
C1332 C1331 1.524 . S
C1332 C1333 1.415 1_554 S
C1333 H1303 0.950 . S
C1333 C1328 1.363 . S
C1333 C1332 1.415 1_556 S
H1334 C1331 0.999 . S
H1335 C1316 0.913 . S
H1336 C1354 0.951 . S
H1337 C1356 0.951 . S
H1338 C1358 0.950 . S
H1339 C1359 0.950 . S
H1340 C1361 0.950 1_545 S
H1341 C1364 0.950 . S
H1342 C1365 0.950 . S
H1343 C1367 0.950 . S
H1344 C1368 0.950 . S
H1345 C1369 0.951 . S
H1346 C1371 0.951 . S
H1347 C1373 0.950 . S
H1348 C1374 0.950 . S
H1349 C1376 0.950 . S
H1350 C1379 0.950 . S
H1351 C1380 0.950 . S
H1352 C1382 0.950 . S
H1353 C1383 0.950 . S
C1354 H1336 0.951 . S
C1354 C1355 1.366 . S
C1354 C1356 1.388 . S
C1355 C1354 1.366 . S
C1355 C1359 1.385 . S
C1356 H1337 0.951 . S
C1356 C1354 1.388 . S
C1356 C1357 1.366 . S
C1357 C1356 1.366 . S
C1357 C1358 1.414 . S
C1357 C1360 1.499 1_545 S
C1358 H1338 0.950 . S
C1358 C1357 1.414 . S
C1358 C1359 1.374 . S
C1359 H1339 0.950 . S
C1359 C1355 1.385 . S
C1359 C1358 1.374 . S
C1360 C1357 1.499 1_565 S
C1360 C1361 1.373 . S
C1360 C1362 1.389 . S
C1361 H1340 0.950 1_565 S
C1361 C1360 1.373 . S
C1361 C1377 1.377 . S
C1362 C1360 1.389 . S
C1362 C1363 1.524 . S
C1362 C1376 1.377 . S
C1363 C1362 1.524 . S
C1363 C1364 1.397 . S
C1363 C1368 1.363 . S
C1364 H1341 0.950 . S
C1364 C1363 1.397 . S
C1364 C1365 1.334 . S
C1365 H1342 0.950 . S
C1365 C1364 1.334 . S
C1365 C1366 1.287 . S
C1366 C1365 1.287 . S
C1366 C1367 1.524 . S
C1366 H1385 0.913 . S
C1367 H1343 0.950 . S
C1367 C1366 1.524 . S
C1367 C1368 1.415 . S
C1368 H1344 0.950 . S
C1368 C1363 1.363 . S
C1368 C1367 1.415 . S
C1369 H1345 0.951 . S
C1369 C1370 1.366 . S
C1369 C1371 1.388 . S
C1370 C1369 1.366 . S
C1370 C1374 1.385 . S
C1371 H1346 0.951 . S
C1371 C1369 1.388 . S
C1371 C1372 1.366 . S
C1372 C1371 1.366 . S
C1372 C1373 1.414 . S
C1372 C1375 1.499 . S
C1373 H1347 0.950 . S
C1373 C1372 1.414 . S
C1373 C1374 1.374 . S
C1374 H1348 0.950 . S
C1374 C1370 1.385 . S
C1374 C1373 1.374 . S
C1375 C1372 1.499 . S
C1375 C1376 1.373 . S
C1375 C1377 1.389 . S
C1376 H1349 0.950 . S
C1376 C1362 1.377 . S
C1376 C1375 1.373 . S
C1377 C1361 1.377 . S
C1377 C1375 1.389 . S
C1377 C1378 1.524 . S
C1378 C1377 1.524 . S
C1378 C1379 1.397 . S
C1378 C1383 1.363 . S
C1379 H1350 0.950 . S
C1379 C1378 1.397 . S
C1379 C1380 1.334 . S
C1380 H1351 0.950 . S
C1380 C1379 1.334 . S
C1380 C1381 1.287 . S
C1381 C1380 1.287 . S
C1381 C1382 1.524 . S
C1381 H1384 0.999 . S
C1382 H1352 0.950 . S
C1382 C1381 1.524 . S
C1382 C1383 1.415 . S
C1383 H1353 0.950 . S
C1383 C1378 1.363 . S
C1383 C1382 1.415 . S
H1384 C1381 0.999 . S
H1385 C1366 0.913 . S
H1386 C1404 0.951 . S
H1387 C1406 0.951 . S
H1388 C1408 0.950 . S
H1389 C1409 0.950 . S
H1390 C1411 0.950 . S
H1391 C1414 0.950 . S
H1392 C1415 0.950 . S
H1393 C1417 0.950 . S
H1394 C1418 0.950 . S
H1395 C1419 0.951 . S
H1396 C1421 0.951 . S
H1397 C1423 0.950 . S
H1398 C1424 0.950 . S
H1399 C1426 0.950 . S
H1400 C1429 0.950 . S
H1401 C1430 0.950 . S
H1402 C1432 0.950 . S
H1403 C1433 0.950 . S
C1404 H1386 0.951 . S
C1404 C1405 1.366 . S
C1404 C1406 1.388 . S
C1405 C1404 1.366 . S
C1405 C1409 1.385 . S
C1406 H1387 0.951 . S
C1406 C1404 1.388 . S
C1406 C1407 1.366 . S
C1407 C1406 1.366 . S
C1407 C1408 1.414 . S
C1407 C1410 1.499 . S
C1408 H1388 0.950 . S
C1408 C1407 1.414 . S
C1408 C1409 1.374 . S
C1409 H1389 0.950 . S
C1409 C1405 1.385 . S
C1409 C1408 1.374 . S
C1410 C1407 1.499 . S
C1410 C1411 1.373 . S
C1410 C1412 1.389 . S
C1411 H1390 0.950 . S
C1411 C1410 1.373 . S
C1411 C1427 1.377 . S
C1412 C1410 1.389 . S
C1412 C1413 1.524 . S
C1412 C1426 1.377 . S
C1413 C1412 1.524 . S
C1413 C1414 1.397 . S
C1413 C1418 1.363 . S
C1414 H1391 0.950 . S
C1414 C1413 1.397 . S
C1414 C1415 1.334 . S
C1415 H1392 0.950 . S
C1415 C1414 1.334 . S
C1415 C1416 1.287 . S
C1416 C1415 1.287 . S
C1416 C1417 1.524 . S
C1416 H1435 0.913 . S
C1417 H1393 0.950 . S
C1417 C1416 1.524 . S
C1417 C1418 1.415 . S
C1418 H1394 0.950 . S
C1418 C1413 1.363 . S
C1418 C1417 1.415 . S
C1419 H1395 0.951 . S
C1419 C1420 1.366 . S
C1419 C1421 1.388 . S
C1420 C1419 1.366 . S
C1420 C1424 1.385 . S
C1421 H1396 0.951 . S
C1421 C1419 1.388 . S
C1421 C1422 1.366 . S
C1422 C1421 1.366 . S
C1422 C1423 1.414 . S
C1422 C1425 1.499 1_565 S
C1423 H1397 0.950 . S
C1423 C1422 1.414 . S
C1423 C1424 1.374 . S
C1424 H1398 0.950 . S
C1424 C1420 1.385 . S
C1424 C1423 1.374 . S
C1425 C1422 1.499 1_545 S
C1425 C1426 1.373 . S
C1425 C1427 1.389 . S
C1426 H1399 0.950 . S
C1426 C1412 1.377 . S
C1426 C1425 1.373 . S
C1427 C1411 1.377 . S
C1427 C1425 1.389 . S
C1427 C1428 1.524 . S
C1428 C1427 1.524 . S
C1428 C1429 1.397 1_545 S
C1428 C1433 1.363 . S
C1429 H1400 0.950 . S
C1429 C1428 1.397 1_565 S
C1429 C1430 1.334 . S
C1430 H1401 0.950 . S
C1430 C1429 1.334 . S
C1430 C1431 1.287 . S
C1431 C1430 1.287 . S
C1431 C1432 1.524 1_565 S
C1431 H1434 0.999 . S
C1432 H1402 0.950 . S
C1432 C1431 1.524 1_545 S
C1432 C1433 1.415 . S
C1433 H1403 0.950 . S
C1433 C1428 1.363 . S
C1433 C1432 1.415 . S
H1434 C1431 0.999 . S
H1435 C1416 0.913 . S
H1436 C1454 0.951 . S
H1437 C1456 0.951 . S
H1438 C1458 0.950 . S
H1439 C1459 0.950 . S
H1440 C1461 0.950 . S
H1441 C1464 0.950 . S
H1442 C1465 0.950 . S
H1443 C1467 0.950 . S
H1444 C1468 0.950 . S
H1445 C1469 0.951 . S
H1446 C1471 0.951 . S
H1447 C1473 0.950 . S
H1448 C1474 0.950 . S
H1449 C1476 0.950 . S
H1450 C1479 0.950 . S
H1451 C1480 0.950 . S
H1452 C1482 0.950 . S
H1453 C1483 0.950 . S
C1454 H1436 0.951 . S
C1454 C1455 1.366 . S
C1454 C1456 1.388 . S
C1455 C1454 1.366 . S
C1455 C1459 1.385 . S
C1456 H1437 0.951 . S
C1456 C1454 1.388 . S
C1456 C1457 1.366 . S
C1457 C1456 1.366 . S
C1457 C1458 1.414 . S
C1457 C1460 1.499 . S
C1458 H1438 0.950 . S
C1458 C1457 1.414 . S
C1458 C1459 1.374 . S
C1459 H1439 0.950 . S
C1459 C1455 1.385 . S
C1459 C1458 1.374 . S
C1460 C1457 1.499 . S
C1460 C1461 1.373 . S
C1460 C1462 1.389 . S
C1461 H1440 0.950 . S
C1461 C1460 1.373 . S
C1461 C1477 1.377 . S
C1462 C1460 1.389 . S
C1462 C1463 1.524 . S
C1462 C1476 1.377 . S
C1463 C1462 1.524 . S
C1463 C1464 1.397 . S
C1463 C1468 1.363 . S
C1464 H1441 0.950 . S
C1464 C1463 1.397 . S
C1464 C1465 1.334 . S
C1465 H1442 0.950 . S
C1465 C1464 1.334 . S
C1465 C1466 1.287 . S
C1466 C1465 1.287 . S
C1466 C1467 1.524 . S
C1466 H1485 0.913 . S
C1467 H1443 0.950 . S
C1467 C1466 1.524 . S
C1467 C1468 1.415 . S
C1468 H1444 0.950 . S
C1468 C1463 1.363 . S
C1468 C1467 1.415 . S
C1469 H1445 0.951 . S
C1469 C1470 1.366 . S
C1469 C1471 1.388 . S
C1470 C1469 1.366 . S
C1470 C1474 1.385 . S
C1471 H1446 0.951 . S
C1471 C1469 1.388 . S
C1471 C1472 1.366 . S
C1472 C1471 1.366 . S
C1472 C1473 1.414 . S
C1472 C1475 1.499 . S
C1473 H1447 0.950 . S
C1473 C1472 1.414 . S
C1473 C1474 1.374 . S
C1474 H1448 0.950 . S
C1474 C1470 1.385 . S
C1474 C1473 1.374 . S
C1475 C1472 1.499 . S
C1475 C1476 1.373 . S
C1475 C1477 1.389 . S
C1476 H1449 0.950 . S
C1476 C1462 1.377 . S
C1476 C1475 1.373 . S
C1477 C1461 1.377 . S
C1477 C1475 1.389 . S
C1477 C1478 1.524 . S
C1478 C1477 1.524 . S
C1478 C1479 1.397 . S
C1478 C1483 1.363 . S
C1479 H1450 0.950 . S
C1479 C1478 1.397 . S
C1479 C1480 1.334 . S
C1480 H1451 0.950 . S
C1480 C1479 1.334 . S
C1480 C1481 1.287 1_556 S
C1481 C1480 1.287 1_554 S
C1481 C1482 1.524 . S
C1481 H1484 0.999 . S
C1482 H1452 0.950 . S
C1482 C1481 1.524 . S
C1482 C1483 1.415 1_554 S
C1483 H1453 0.950 . S
C1483 C1478 1.363 . S
C1483 C1482 1.415 1_556 S
H1484 C1481 0.999 . S
H1485 C1466 0.913 . S
H1486 C1504 0.951 . S
H1487 C1506 0.951 . S
H1488 C1508 0.950 . S
H1489 C1509 0.950 . S
H1490 C1511 0.950 . S
H1491 C1514 0.950 . S
H1492 C1515 0.950 1_556 S
H1493 C1517 0.950 . S
H1494 C1518 0.950 . S
H1495 C1519 0.951 . S
H1496 C1521 0.951 . S
H1497 C1523 0.950 . S
H1498 C1524 0.895 1_455 S
H1499 C1526 0.950 . S
H1500 C1529 0.950 . S
H1501 C1530 0.950 . S
H1502 C1532 0.963 . S
H1503 C1533 0.950 . S
C1504 H1486 0.951 . S
C1504 C1505 1.366 . S
C1504 C1506 1.388 . S
C1505 C1504 1.366 . S
C1505 C1509 1.385 . S
C1506 H1487 0.951 . S
C1506 C1504 1.388 . S
C1506 C1507 1.366 . S
C1507 C1506 1.366 . S
C1507 C1508 1.414 . S
C1507 C1510 1.499 . S
C1508 H1488 0.950 . S
C1508 C1507 1.414 . S
C1508 C1509 1.374 . S
C1509 H1489 0.950 . S
C1509 C1505 1.385 . S
C1509 C1508 1.374 . S
C1510 C1507 1.499 . S
C1510 C1511 1.373 . S
C1510 C1512 1.389 . S
C1511 H1490 0.950 . S
C1511 C1510 1.373 . S
C1511 C1527 1.377 . S
C1512 C1510 1.389 . S
C1512 C1513 1.524 . S
C1512 C1526 1.377 . S
C1513 C1512 1.524 . S
C1513 C1514 1.397 . S
C1513 C1518 1.363 . S
C1514 H1491 0.950 . S
C1514 C1513 1.397 . S
C1514 C1515 1.334 . S
C1515 H1492 0.950 1_554 S
C1515 C1514 1.334 . S
C1515 C1516 1.287 . S
C1516 C1515 1.287 . S
C1516 C1517 1.524 1_655 S
C1516 H1535 0.913 1_554 S
C1517 H1493 0.950 . S
C1517 C1516 1.524 1_455 S
C1517 C1518 1.415 1_455 S
C1518 H1494 0.950 . S
C1518 C1513 1.363 . S
C1518 C1517 1.415 1_655 S
C1519 H1495 0.951 . S
C1519 C1520 1.366 . S
C1519 C1521 1.388 . S
C1520 C1519 1.366 . S
C1520 C1524 1.385 . S
C1521 H1496 0.951 . S
C1521 C1519 1.388 . S
C1521 C1522 1.366 . S
C1522 C1521 1.366 . S
C1522 C1523 1.414 . S
C1522 C1525 1.499 1_565 S
C1523 H1497 0.950 . S
C1523 C1522 1.414 . S
C1523 C1524 1.374 . S
C1524 H1498 0.895 1_655 S
C1524 C1520 1.385 . S
C1524 C1523 1.374 . S
C1525 C1522 1.499 1_545 S
C1525 C1526 1.373 . S
C1525 C1527 1.389 . S
C1526 H1499 0.950 . S
C1526 C1512 1.377 . S
C1526 C1525 1.373 . S
C1527 C1511 1.377 . S
C1527 C1525 1.389 . S
C1527 C1528 1.524 . S
C1528 C1527 1.524 . S
C1528 C1529 1.397 . S
C1528 C1533 1.363 . S
C1529 H1500 0.950 . S
C1529 C1528 1.397 . S
C1529 C1530 1.334 . S
C1530 H1501 0.950 . S
C1530 C1529 1.334 . S
C1530 C1531 1.287 . S
C1531 C1530 1.287 . S
C1531 C1532 1.524 . S
C1531 H1534 1.010 . S
C1532 H1502 0.963 . S
C1532 C1531 1.524 . S
C1532 C1533 1.415 . S
C1533 H1503 0.950 . S
C1533 C1528 1.363 . S
C1533 C1532 1.415 . S
H1534 C1531 1.010 . S
H1535 C1516 0.913 1_556 S
H1536 C1554 0.951 . S
H1537 C1556 0.951 . S
H1538 C1558 0.950 . S
H1539 C1559 0.950 . S
H1540 C1561 0.950 . S
H1541 C1564 0.950 . S
H1542 C1565 0.950 . S
H1543 C1567 0.950 . S
H1544 C1568 0.950 1_455 S
H1545 C1569 0.951 . S
H1546 C1571 0.951 . S
H1547 C1573 0.950 . S
H1548 C1574 0.950 . S
H1549 C1576 0.950 . S
H1550 C1579 0.950 . S
H1551 C1580 0.950 . S
H1552 C1582 0.950 . S
H1553 C1583 0.946 1_655 S
C1554 H1536 0.951 . S
C1554 C1555 1.350 1_455 S
C1554 C1556 1.388 . S
C1555 C1554 1.350 1_655 S
C1555 C1559 1.402 . S
C1556 H1537 0.951 . S
C1556 C1554 1.388 . S
C1556 C1557 1.347 1_455 S
C1557 C1556 1.347 1_655 S
C1557 C1558 1.433 . S
C1557 C1560 1.499 . S
C1558 H1538 0.950 . S
C1558 C1557 1.433 . S
C1558 C1559 1.374 . S
C1559 H1539 0.950 . S
C1559 C1555 1.402 . S
C1559 C1558 1.374 . S
C1560 C1557 1.499 . S
C1560 C1561 1.361 1_655 S
C1560 C1562 1.400 . S
C1561 H1540 0.950 . S
C1561 C1560 1.361 1_455 S
C1561 C1577 1.377 . S
C1562 C1560 1.400 . S
C1562 C1563 1.524 . S
C1562 C1576 1.377 . S
C1563 C1562 1.524 . S
C1563 C1564 1.397 . S
C1563 C1568 1.363 . S
C1564 H1541 0.950 . S
C1564 C1563 1.397 . S
C1564 C1565 1.334 . S
C1565 H1542 0.950 . S
C1565 C1564 1.334 . S
C1565 C1566 1.287 . S
C1566 C1565 1.287 . S
C1566 C1567 1.524 . S
C1566 H1585 0.913 . S
C1567 H1543 0.950 . S
C1567 C1566 1.524 . S
C1567 C1568 1.415 . S
C1568 H1544 0.950 1_655 S
C1568 C1563 1.363 . S
C1568 C1567 1.415 . S
C1569 H1545 0.951 . S
C1569 C1570 1.366 1_655 S
C1569 C1571 1.388 . S
C1570 C1569 1.366 1_455 S
C1570 C1574 1.385 . S
C1571 H1546 0.951 . S
C1571 C1569 1.388 . S
C1571 C1572 1.366 1_655 S
C1572 C1571 1.366 1_455 S
C1572 C1573 1.414 . S
C1572 C1575 1.499 . S
C1573 H1547 0.950 . S
C1573 C1572 1.414 . S
C1573 C1574 1.374 . S
C1574 H1548 0.950 . S
C1574 C1570 1.385 . S
C1574 C1573 1.374 . S
C1575 C1572 1.499 . S
C1575 C1576 1.373 1_455 S
C1575 C1577 1.389 . S
C1576 H1549 0.950 . S
C1576 C1562 1.377 . S
C1576 C1575 1.373 1_655 S
C1577 C1561 1.377 . S
C1577 C1575 1.389 . S
C1577 C1578 1.524 . S
C1578 C1577 1.524 . S
C1578 C1579 1.397 . S
C1578 C1583 1.363 . S
C1579 H1550 0.950 . S
C1579 C1578 1.397 . S
C1579 C1580 1.334 . S
C1580 H1551 0.950 . S
C1580 C1579 1.334 . S
C1580 C1581 1.287 . S
C1581 C1580 1.287 . S
C1581 C1582 1.524 . S
C1581 H1584 0.999 . S
C1582 H1552 0.950 . S
C1582 C1581 1.524 . S
C1582 C1583 1.415 . S
C1583 H1553 0.946 1_455 S
C1583 C1578 1.363 . S
C1583 C1582 1.415 . S
H1584 C1581 0.999 . S
H1585 C1566 0.913 . S
H1586 C1604 0.951 . S
H1587 C1606 0.951 . S
H1588 C1608 0.950 . S
H1589 C1609 0.950 . S
H1590 C1611 0.950 . S
H1591 C1614 0.945 . S
H1592 C1615 0.950 1_455 S
H1593 C1617 0.950 . S
H1594 C1618 0.950 . S
H1595 C1619 0.951 . S
H1596 C1621 0.951 . S
H1597 C1623 0.950 . S
H1598 C1624 0.950 . S
H1599 C1626 0.950 . S
H1600 C1629 0.950 1_655 S
H1601 C1630 0.950 1_655 S
H1602 C1632 0.950 . S
H1603 C1633 0.950 . S
C1604 H1586 0.951 . S
C1604 C1605 1.366 1_655 S
C1604 C1606 1.388 . S
C1605 C1604 1.366 1_455 S
C1605 C1609 1.385 . S
C1606 H1587 0.951 . S
C1606 C1604 1.388 . S
C1606 C1607 1.366 1_655 S
C1607 C1606 1.366 1_455 S
C1607 C1608 1.414 . S
C1607 C1610 1.499 . S
C1608 H1588 0.950 . S
C1608 C1607 1.414 . S
C1608 C1609 1.374 . S
C1609 H1589 0.950 . S
C1609 C1605 1.385 . S
C1609 C1608 1.374 . S
C1610 C1607 1.499 . S
C1610 C1611 1.373 . S
C1610 C1612 1.389 1_455 S
C1611 H1590 0.950 . S
C1611 C1610 1.373 . S
C1611 C1627 1.377 . S
C1612 C1610 1.389 1_655 S
C1612 C1613 1.524 . S
C1612 C1626 1.377 . S
C1613 C1612 1.524 . S
C1613 C1614 1.400 1_655 S
C1613 C1618 1.363 . S
C1614 H1591 0.945 . S
C1614 C1613 1.400 1_455 S
C1614 C1615 1.335 1_455 S
C1615 H1592 0.950 1_655 S
C1615 C1614 1.335 1_655 S
C1615 C1616 1.287 . S
C1616 C1615 1.287 . S
C1616 C1617 1.524 . S
C1616 H1635 0.913 . S
C1617 H1593 0.950 . S
C1617 C1616 1.524 . S
C1617 C1618 1.415 . S
C1618 H1594 0.950 . S
C1618 C1613 1.363 . S
C1618 C1617 1.415 . S
C1619 H1595 0.951 . S
C1619 C1620 1.366 1_455 S
C1619 C1621 1.388 . S
C1620 C1619 1.366 1_655 S
C1620 C1624 1.385 . S
C1621 H1596 0.951 . S
C1621 C1619 1.388 . S
C1621 C1622 1.325 1_455 S
C1622 C1621 1.325 1_655 S
C1622 C1623 1.456 . S
C1622 C1625 1.499 . S
C1623 H1597 0.950 . S
C1623 C1622 1.456 . S
C1623 C1624 1.374 . S
C1624 H1598 0.950 . S
C1624 C1620 1.385 . S
C1624 C1623 1.374 . S
C1625 C1622 1.499 . S
C1625 C1626 1.390 . S
C1625 C1627 1.371 1_655 S
C1626 H1599 0.950 . S
C1626 C1612 1.377 . S
C1626 C1625 1.390 . S
C1627 C1611 1.377 . S
C1627 C1625 1.371 1_455 S
C1627 C1628 1.524 . S
C1628 C1627 1.524 . S
C1628 C1629 1.397 . S
C1628 C1633 1.363 . S
C1629 H1600 0.950 1_455 S
C1629 C1628 1.397 . S
C1629 C1630 1.334 . S
C1630 H1601 0.950 1_455 S
C1630 C1629 1.334 . S
C1630 C1631 1.287 . S
C1631 C1630 1.287 . S
C1631 C1632 1.524 . S
C1631 H1634 0.999 . S
C1632 H1602 0.950 . S
C1632 C1631 1.524 . S
C1632 C1633 1.415 . S
C1633 H1603 0.950 . S
C1633 C1628 1.363 . S
C1633 C1632 1.415 . S
H1634 C1631 0.999 . S
H1635 C1616 0.913 . S
H1636 C1654 0.951 . S
H1637 C1656 0.951 . S
H1638 C1658 0.950 . S
H1639 C1659 0.950 . S
H1640 C1661 0.950 . S
H1641 C1664 0.950 . S
H1642 C1665 0.950 . S
H1643 C1667 0.950 . S
H1644 C1668 0.950 . S
H1645 C1669 0.951 . S
H1646 C1671 0.951 . S
H1647 C1673 0.950 . S
H1648 C1674 0.950 . S
H1649 C1676 0.950 . S
H1650 C1679 0.950 . S
H1651 C1680 0.950 . S
H1652 C1682 0.950 . S
H1653 C1683 0.950 . S
C1654 H1636 0.951 . S
C1654 C1655 1.399 . S
C1654 C1656 1.388 . S
C1655 C1654 1.399 . S
C1655 C1659 1.351 1_565 S
C1656 H1637 0.951 . S
C1656 C1654 1.388 . S
C1656 C1657 1.364 . S
C1657 C1656 1.364 . S
C1657 C1658 1.415 1_565 S
C1657 C1660 1.497 1_565 S
C1658 H1638 0.950 . S
C1658 C1657 1.415 1_545 S
C1658 C1659 1.374 . S
C1659 H1639 0.950 . S
C1659 C1655 1.351 1_545 S
C1659 C1658 1.374 . S
C1660 C1657 1.497 1_545 S
C1660 C1661 1.417 . S
C1660 C1662 1.348 1_545 S
C1661 H1640 0.950 . S
C1661 C1660 1.417 . S
C1661 C1677 1.377 . S
C1662 C1660 1.348 1_565 S
C1662 C1663 1.524 . S
C1662 C1676 1.377 . S
C1663 C1662 1.524 . S
C1663 C1664 1.397 . S
C1663 C1668 1.363 . S
C1664 H1641 0.950 . S
C1664 C1663 1.397 . S
C1664 C1665 1.334 . S
C1665 H1642 0.950 . S
C1665 C1664 1.334 . S
C1665 C1666 1.287 . S
C1666 C1665 1.287 . S
C1666 C1667 1.524 . S
C1666 H1685 0.913 . S
C1667 H1643 0.950 . S
C1667 C1666 1.524 . S
C1667 C1668 1.415 . S
C1668 H1644 0.950 . S
C1668 C1663 1.363 . S
C1668 C1667 1.415 . S
C1669 H1645 0.951 . S
C1669 C1670 1.366 . S
C1669 C1671 1.388 . S
C1670 C1669 1.366 . S
C1670 C1674 1.385 1_545 S
C1671 H1646 0.951 . S
C1671 C1669 1.388 . S
C1671 C1672 1.366 . S
C1672 C1671 1.366 . S
C1672 C1673 1.414 1_545 S
C1672 C1675 1.499 . S
C1673 H1647 0.950 . S
C1673 C1672 1.414 1_565 S
C1673 C1674 1.374 . S
C1674 H1648 0.950 . S
C1674 C1670 1.385 1_565 S
C1674 C1673 1.374 . S
C1675 C1672 1.499 . S
C1675 C1676 1.373 1_545 S
C1675 C1677 1.389 . S
C1676 H1649 0.950 . S
C1676 C1662 1.377 . S
C1676 C1675 1.373 1_565 S
C1677 C1661 1.377 . S
C1677 C1675 1.389 . S
C1677 C1678 1.524 . S
C1678 C1677 1.524 . S
C1678 C1679 1.397 . S
C1678 C1683 1.363 . S
C1679 H1650 0.950 . S
C1679 C1678 1.397 . S
C1679 C1680 1.334 . S
C1680 H1651 0.950 . S
C1680 C1679 1.334 . S
C1680 C1681 1.287 . S
C1681 C1680 1.287 . S
C1681 C1682 1.524 . S
C1681 H1684 0.999 . S
C1682 H1652 0.950 . S
C1682 C1681 1.524 . S
C1682 C1683 1.415 . S
C1683 H1653 0.950 . S
C1683 C1678 1.363 . S
C1683 C1682 1.415 . S
H1684 C1681 0.999 . S
H1685 C1666 0.913 . S
H1686 C1704 0.951 . S
H1687 C1706 0.951 . S
H1688 C1708 0.950 . S
H1689 C1709 0.950 . S
H1690 C1711 0.950 . S
H1691 C1714 0.950 . S
H1692 C1715 0.950 . S
H1693 C1717 0.950 . S
H1694 C1718 0.950 . S
H1695 C1719 0.951 . S
H1696 C1721 0.951 . S
H1697 C1723 0.950 . S
H1698 C1724 0.950 . S
H1699 C1726 0.950 . S
H1700 C1729 0.950 . S
H1701 C1730 0.950 . S
H1702 C1732 0.950 . S
H1703 C1733 0.950 . S
C1704 H1686 0.951 . S
C1704 C1705 1.366 . S
C1704 C1706 1.388 . S
C1705 C1704 1.366 . S
C1705 C1709 1.385 . S
C1706 H1687 0.951 . S
C1706 C1704 1.388 . S
C1706 C1707 1.366 . S
C1707 C1706 1.366 . S
C1707 C1708 1.414 . S
C1707 C1710 1.499 . S
C1708 H1688 0.950 . S
C1708 C1707 1.414 . S
C1708 C1709 1.374 . S
C1709 H1689 0.950 . S
C1709 C1705 1.385 . S
C1709 C1708 1.374 . S
C1710 C1707 1.499 . S
C1710 C1711 1.373 . S
C1710 C1712 1.389 . S
C1711 H1690 0.950 . S
C1711 C1710 1.373 . S
C1711 C1727 1.377 . S
C1712 C1710 1.389 . S
C1712 C1713 1.524 . S
C1712 C1726 1.377 . S
C1713 C1712 1.524 . S
C1713 C1714 1.397 . S
C1713 C1718 1.363 . S
C1714 H1691 0.950 . S
C1714 C1713 1.397 . S
C1714 C1715 1.334 . S
C1715 H1692 0.950 . S
C1715 C1714 1.334 . S
C1715 C1716 1.287 . S
C1716 C1715 1.287 . S
C1716 C1717 1.524 . S
C1716 H1735 0.913 . S
C1717 H1693 0.950 . S
C1717 C1716 1.524 . S
C1717 C1718 1.415 . S
C1718 H1694 0.950 . S
C1718 C1713 1.363 . S
C1718 C1717 1.415 . S
C1719 H1695 0.951 . S
C1719 C1720 1.366 . S
C1719 C1721 1.388 . S
C1720 C1719 1.366 . S
C1720 C1724 1.385 . S
C1721 H1696 0.951 . S
C1721 C1719 1.388 . S
C1721 C1722 1.366 . S
C1722 C1721 1.366 . S
C1722 C1723 1.414 . S
C1722 C1725 1.499 . S
C1723 H1697 0.950 . S
C1723 C1722 1.414 . S
C1723 C1724 1.374 . S
C1724 H1698 0.950 . S
C1724 C1720 1.385 . S
C1724 C1723 1.374 . S
C1725 C1722 1.499 . S
C1725 C1726 1.373 . S
C1725 C1727 1.389 . S
C1726 H1699 0.950 . S
C1726 C1712 1.377 . S
C1726 C1725 1.373 . S
C1727 C1711 1.377 . S
C1727 C1725 1.389 . S
C1727 C1728 1.524 . S
C1728 C1727 1.524 . S
C1728 C1729 1.397 . S
C1728 C1733 1.363 . S
C1729 H1700 0.950 . S
C1729 C1728 1.397 . S
C1729 C1730 1.334 . S
C1730 H1701 0.950 . S
C1730 C1729 1.334 . S
C1730 C1731 1.287 . S
C1731 C1730 1.287 . S
C1731 C1732 1.524 . S
C1731 H1734 0.999 . S
C1732 H1702 0.950 . S
C1732 C1731 1.524 . S
C1732 C1733 1.415 . S
C1733 H1703 0.950 . S
C1733 C1728 1.363 . S
C1733 C1732 1.415 . S
H1734 C1731 0.999 . S
H1735 C1716 0.913 . S
H1736 C1754 0.951 . S
H1737 C1756 0.952 . S
H1738 C1758 0.950 . S
H1739 C1759 0.950 . S
H1740 C1761 0.950 . S
H1741 C1764 0.950 . S
H1742 C1765 0.950 . S
H1743 C1767 0.950 . S
H1744 C1768 0.950 . S
H1745 C1769 0.951 . S
H1746 C1771 0.954 . S
H1747 C1773 0.950 . S
H1748 C1774 0.954 . S
H1749 C1776 0.950 . S
H1750 C1779 0.950 . S
H1751 C1780 0.950 . S
H1752 C1782 0.950 . S
H1753 C1783 0.950 . S
C1754 H1736 0.951 . S
C1754 C1755 1.366 . S
C1754 C1756 1.388 . S
C1755 C1754 1.366 . S
C1755 C1759 1.385 . S
C1756 H1737 0.952 . S
C1756 C1754 1.388 . S
C1756 C1757 1.367 . S
C1757 C1756 1.367 . S
C1757 C1758 1.417 . S
C1757 C1760 1.498 . S
C1758 H1738 0.950 . S
C1758 C1757 1.417 . S
C1758 C1759 1.374 . S
C1759 H1739 0.950 . S
C1759 C1755 1.385 . S
C1759 C1758 1.374 . S
C1760 C1757 1.498 . S
C1760 C1761 1.379 . S
C1760 C1762 1.384 1_554 S
C1761 H1740 0.950 . S
C1761 C1760 1.379 . S
C1761 C1777 1.377 . S
C1762 C1760 1.384 1_556 S
C1762 C1763 1.524 . S
C1762 C1776 1.377 . S
C1763 C1762 1.524 . S
C1763 C1764 1.397 . S
C1763 C1768 1.363 . S
C1764 H1741 0.950 . S
C1764 C1763 1.397 . S
C1764 C1765 1.334 . S
C1765 H1742 0.950 . S
C1765 C1764 1.334 . S
C1765 C1766 1.287 . S
C1766 C1765 1.287 . S
C1766 C1767 1.524 . S
C1766 H1785 0.913 . S
C1767 H1743 0.950 . S
C1767 C1766 1.524 . S
C1767 C1768 1.415 . S
C1768 H1744 0.950 . S
C1768 C1763 1.363 . S
C1768 C1767 1.415 . S
C1769 H1745 0.951 . S
C1769 C1770 1.365 . S
C1769 C1771 1.386 1_556 S
C1770 C1769 1.365 . S
C1770 C1774 1.385 . S
C1771 H1746 0.954 . S
C1771 C1769 1.386 1_554 S
C1771 C1772 1.367 . S
C1772 C1771 1.367 . S
C1772 C1773 1.413 1_554 S
C1772 C1775 1.499 . S
C1773 H1747 0.950 . S
C1773 C1772 1.413 1_556 S
C1773 C1774 1.373 . S
C1774 H1748 0.954 . S
C1774 C1770 1.385 . S
C1774 C1773 1.373 . S
C1775 C1772 1.499 . S
C1775 C1776 1.373 1_554 S
C1775 C1777 1.389 . S
C1776 H1749 0.950 . S
C1776 C1762 1.377 . S
C1776 C1775 1.373 1_556 S
C1777 C1761 1.377 . S
C1777 C1775 1.389 . S
C1777 C1778 1.524 . S
C1778 C1777 1.524 . S
C1778 C1779 1.397 . S
C1778 C1783 1.363 . S
C1779 H1750 0.950 . S
C1779 C1778 1.397 . S
C1779 C1780 1.334 . S
C1780 H1751 0.950 . S
C1780 C1779 1.334 . S
C1780 C1781 1.287 . S
C1781 C1780 1.287 . S
C1781 C1782 1.524 . S
C1781 H1784 0.999 . S
C1782 H1752 0.950 . S
C1782 C1781 1.524 . S
C1782 C1783 1.415 . S
C1783 H1753 0.950 . S
C1783 C1778 1.363 . S
C1783 C1782 1.415 . S
H1784 C1781 0.999 . S
H1785 C1766 0.913 . S
H1786 C1804 0.951 . S
H1787 C1806 0.951 . S
H1788 C1808 0.950 . S
H1789 C1809 0.950 . S
H1790 C1811 0.950 . S
H1791 C1814 0.950 . S
H1792 C1815 0.950 . S
H1793 C1817 0.950 . S
H1794 C1818 0.950 . S
H1795 C1819 0.951 . S
H1796 C1821 0.951 . S
H1797 C1823 0.950 . S
H1798 C1824 0.950 . S
H1799 C1826 0.950 . S
H1800 C1829 0.950 . S
H1801 C1830 0.950 . S
H1802 C1832 0.950 . S
H1803 C1833 0.950 . S
C1804 H1786 0.951 . S
C1804 C1805 1.366 . S
C1804 C1806 1.388 . S
C1805 C1804 1.366 . S
C1805 C1809 1.385 . S
C1806 H1787 0.951 . S
C1806 C1804 1.388 . S
C1806 C1807 1.366 . S
C1807 C1806 1.366 . S
C1807 C1808 1.414 . S
C1807 C1810 1.499 . S
C1808 H1788 0.950 . S
C1808 C1807 1.414 . S
C1808 C1809 1.374 . S
C1809 H1789 0.950 . S
C1809 C1805 1.385 . S
C1809 C1808 1.374 . S
C1810 C1807 1.499 . S
C1810 C1811 1.373 . S
C1810 C1812 1.389 . S
C1811 H1790 0.950 . S
C1811 C1810 1.373 . S
C1811 C1827 1.377 . S
C1812 C1810 1.389 . S
C1812 C1813 1.524 . S
C1812 C1826 1.377 . S
C1813 C1812 1.524 . S
C1813 C1814 1.397 . S
C1813 C1818 1.363 . S
C1814 H1791 0.950 . S
C1814 C1813 1.397 . S
C1814 C1815 1.334 . S
C1815 H1792 0.950 . S
C1815 C1814 1.334 . S
C1815 C1816 1.287 . S
C1816 C1815 1.287 . S
C1816 C1817 1.524 . S
C1816 H1835 0.913 . S
C1817 H1793 0.950 . S
C1817 C1816 1.524 . S
C1817 C1818 1.415 . S
C1818 H1794 0.950 . S
C1818 C1813 1.363 . S
C1818 C1817 1.415 . S
C1819 H1795 0.951 . S
C1819 C1820 1.366 . S
C1819 C1821 1.388 . S
C1820 C1819 1.366 . S
C1820 C1824 1.385 . S
C1821 H1796 0.951 . S
C1821 C1819 1.388 . S
C1821 C1822 1.366 . S
C1822 C1821 1.366 . S
C1822 C1823 1.414 . S
C1822 C1825 1.499 . S
C1823 H1797 0.950 . S
C1823 C1822 1.414 . S
C1823 C1824 1.374 . S
C1824 H1798 0.950 . S
C1824 C1820 1.385 . S
C1824 C1823 1.374 . S
C1825 C1822 1.499 . S
C1825 C1826 1.373 . S
C1825 C1827 1.389 . S
C1826 H1799 0.950 . S
C1826 C1812 1.377 . S
C1826 C1825 1.373 . S
C1827 C1811 1.377 . S
C1827 C1825 1.389 . S
C1827 C1828 1.524 . S
C1828 C1827 1.524 . S
C1828 C1829 1.397 . S
C1828 C1833 1.363 . S
C1829 H1800 0.950 . S
C1829 C1828 1.397 . S
C1829 C1830 1.334 . S
C1830 H1801 0.950 . S
C1830 C1829 1.334 . S
C1830 C1831 1.287 . S
C1831 C1830 1.287 . S
C1831 C1832 1.524 . S
C1831 H1834 0.999 . S
C1832 H1802 0.950 . S
C1832 C1831 1.524 . S
C1832 C1833 1.415 . S
C1833 H1803 0.950 . S
C1833 C1828 1.363 . S
C1833 C1832 1.415 . S
H1834 C1831 0.999 . S
H1835 C1816 0.913 . S
H1836 C1854 0.951 . S
H1837 C1856 0.951 . S
H1838 C1858 0.950 . S
H1839 C1859 0.950 . S
H1840 C1861 0.950 . S
H1841 C1864 0.950 . S
H1842 C1865 0.950 . S
H1843 C1867 0.950 . S
H1844 C1868 0.950 . S
H1845 C1869 0.951 . S
H1846 C1871 0.951 . S
H1847 C1873 0.950 . S
H1848 C1874 0.950 . S
H1849 C1876 0.950 . S
H1850 C1879 0.950 . S
H1851 C1880 0.950 . S
H1852 C1882 0.950 . S
H1853 C1883 0.950 . S
C1854 H1836 0.951 . S
C1854 C1855 1.366 . S
C1854 C1856 1.388 . S
C1855 C1854 1.366 . S
C1855 C1859 1.385 . S
C1856 H1837 0.951 . S
C1856 C1854 1.388 . S
C1856 C1857 1.366 . S
C1857 C1856 1.366 . S
C1857 C1858 1.414 . S
C1857 C1860 1.499 . S
C1858 H1838 0.950 . S
C1858 C1857 1.414 . S
C1858 C1859 1.374 . S
C1859 H1839 0.950 . S
C1859 C1855 1.385 . S
C1859 C1858 1.374 . S
C1860 C1857 1.499 . S
C1860 C1861 1.373 . S
C1860 C1862 1.389 . S
C1861 H1840 0.950 . S
C1861 C1860 1.373 . S
C1861 C1877 1.377 . S
C1862 C1860 1.389 . S
C1862 C1863 1.524 . S
C1862 C1876 1.377 . S
C1863 C1862 1.524 . S
C1863 C1864 1.397 . S
C1863 C1868 1.363 . S
C1864 H1841 0.950 . S
C1864 C1863 1.397 . S
C1864 C1865 1.334 . S
C1865 H1842 0.950 . S
C1865 C1864 1.334 . S
C1865 C1866 1.287 . S
C1866 C1865 1.287 . S
C1866 C1867 1.524 . S
C1866 H1885 0.913 . S
C1867 H1843 0.950 . S
C1867 C1866 1.524 . S
C1867 C1868 1.415 . S
C1868 H1844 0.950 . S
C1868 C1863 1.363 . S
C1868 C1867 1.415 . S
C1869 H1845 0.951 . S
C1869 C1870 1.366 . S
C1869 C1871 1.388 . S
C1870 C1869 1.366 . S
C1870 C1874 1.385 . S
C1871 H1846 0.951 . S
C1871 C1869 1.388 . S
C1871 C1872 1.366 . S
C1872 C1871 1.366 . S
C1872 C1873 1.414 . S
C1872 C1875 1.499 . S
C1873 H1847 0.950 . S
C1873 C1872 1.414 . S
C1873 C1874 1.374 . S
C1874 H1848 0.950 . S
C1874 C1870 1.385 . S
C1874 C1873 1.374 . S
C1875 C1872 1.499 . S
C1875 C1876 1.373 . S
C1875 C1877 1.389 . S
C1876 H1849 0.950 . S
C1876 C1862 1.377 . S
C1876 C1875 1.373 . S
C1877 C1861 1.377 . S
C1877 C1875 1.389 . S
C1877 C1878 1.524 . S
C1878 C1877 1.524 . S
C1878 C1879 1.397 . S
C1878 C1883 1.363 . S
C1879 H1850 0.950 . S
C1879 C1878 1.397 . S
C1879 C1880 1.334 . S
C1880 H1851 0.950 . S
C1880 C1879 1.334 . S
C1880 C1881 1.287 . S
C1881 C1880 1.287 . S
C1881 C1882 1.524 . S
C1881 H1884 0.999 . S
C1882 H1852 0.950 . S
C1882 C1881 1.524 . S
C1882 C1883 1.415 . S
C1883 H1853 0.950 . S
C1883 C1878 1.363 . S
C1883 C1882 1.415 . S
H1884 C1881 0.999 . S
H1885 C1866 0.913 . S
H1886 C1904 0.951 . S
H1887 C1906 0.951 . S
H1888 C1908 0.950 . S
H1889 C1909 0.950 . S
H1890 C1911 0.950 . S
H1891 C1914 0.950 . S
H1892 C1915 0.950 . S
H1893 C1917 0.950 . S
H1894 C1918 0.950 . S
H1895 C1919 0.951 . S
H1896 C1921 0.951 . S
H1897 C1923 0.950 . S
H1898 C1924 0.950 . S
H1899 C1926 0.950 . S
H1900 C1929 0.950 . S
H1901 C1930 0.950 . S
H1902 C1932 0.950 . S
H1903 C1933 0.950 . S
C1904 H1886 0.951 . S
C1904 C1905 1.366 . S
C1904 C1906 1.388 . S
C1905 C1904 1.366 . S
C1905 C1909 1.385 . S
C1906 H1887 0.951 . S
C1906 C1904 1.388 . S
C1906 C1907 1.366 . S
C1907 C1906 1.366 . S
C1907 C1908 1.414 . S
C1907 C1910 1.499 . S
C1908 H1888 0.950 . S
C1908 C1907 1.414 . S
C1908 C1909 1.374 . S
C1909 H1889 0.950 . S
C1909 C1905 1.385 . S
C1909 C1908 1.374 . S
C1910 C1907 1.499 . S
C1910 C1911 1.373 . S
C1910 C1912 1.389 . S
C1911 H1890 0.950 . S
C1911 C1910 1.373 . S
C1911 C1927 1.377 . S
C1912 C1910 1.389 . S
C1912 C1913 1.524 . S
C1912 C1926 1.377 . S
C1913 C1912 1.524 . S
C1913 C1914 1.397 . S
C1913 C1918 1.363 . S
C1914 H1891 0.950 . S
C1914 C1913 1.397 . S
C1914 C1915 1.334 . S
C1915 H1892 0.950 . S
C1915 C1914 1.334 . S
C1915 C1916 1.287 . S
C1916 C1915 1.287 . S
C1916 C1917 1.524 . S
C1916 H1935 0.913 . S
C1917 H1893 0.950 . S
C1917 C1916 1.524 . S
C1917 C1918 1.415 . S
C1918 H1894 0.950 . S
C1918 C1913 1.363 . S
C1918 C1917 1.415 . S
C1919 H1895 0.951 . S
C1919 C1920 1.366 . S
C1919 C1921 1.388 . S
C1920 C1919 1.366 . S
C1920 C1924 1.385 . S
C1921 H1896 0.951 . S
C1921 C1919 1.388 . S
C1921 C1922 1.366 . S
C1922 C1921 1.366 . S
C1922 C1923 1.414 . S
C1922 C1925 1.499 . S
C1923 H1897 0.950 . S
C1923 C1922 1.414 . S
C1923 C1924 1.374 . S
C1924 H1898 0.950 . S
C1924 C1920 1.385 . S
C1924 C1923 1.374 . S
C1925 C1922 1.499 . S
C1925 C1926 1.373 . S
C1925 C1927 1.389 . S
C1926 H1899 0.950 . S
C1926 C1912 1.377 . S
C1926 C1925 1.373 . S
C1927 C1911 1.377 . S
C1927 C1925 1.389 . S
C1927 C1928 1.524 . S
C1928 C1927 1.524 . S
C1928 C1929 1.397 . S
C1928 C1933 1.363 . S
C1929 H1900 0.950 . S
C1929 C1928 1.397 . S
C1929 C1930 1.334 . S
C1930 H1901 0.950 . S
C1930 C1929 1.334 . S
C1930 C1931 1.287 . S
C1931 C1930 1.287 . S
C1931 C1932 1.524 . S
C1931 H1934 0.999 . S
C1932 H1902 0.950 . S
C1932 C1931 1.524 . S
C1932 C1933 1.415 . S
C1933 H1903 0.950 . S
C1933 C1928 1.363 . S
C1933 C1932 1.415 . S
H1934 C1931 0.999 . S
H1935 C1916 0.913 . S
H1936 C1954 0.951 . S
H1937 C1956 0.951 . S
H1938 C1958 0.950 . S
H1939 C1959 0.950 . S
H1940 C1961 0.950 . S
H1941 C1964 0.950 . S
H1942 C1965 0.950 . S
H1943 C1967 0.950 . S
H1944 C1968 0.950 . S
H1945 C1969 0.951 . S
H1946 C1971 0.951 . S
H1947 C1973 0.950 . S
H1948 C1974 0.950 . S
H1949 C1976 0.950 . S
H1950 C1979 0.950 . S
H1951 C1980 0.950 . S
H1952 C1982 0.950 . S
H1953 C1983 0.950 . S
C1954 H1936 0.951 . S
C1954 C1955 1.366 . S
C1954 C1956 1.388 . S
C1955 C1954 1.366 . S
C1955 C1959 1.385 . S
C1956 H1937 0.951 . S
C1956 C1954 1.388 . S
C1956 C1957 1.366 . S
C1957 C1956 1.366 . S
C1957 C1958 1.414 . S
C1957 C1960 1.499 . S
C1958 H1938 0.950 . S
C1958 C1957 1.414 . S
C1958 C1959 1.374 . S
C1959 H1939 0.950 . S
C1959 C1955 1.385 . S
C1959 C1958 1.374 . S
C1960 C1957 1.499 . S
C1960 C1961 1.373 . S
C1960 C1962 1.389 . S
C1961 H1940 0.950 . S
C1961 C1960 1.373 . S
C1961 C1977 1.377 . S
C1962 C1960 1.389 . S
C1962 C1963 1.524 . S
C1962 C1976 1.377 . S
C1963 C1962 1.524 . S
C1963 C1964 1.397 . S
C1963 C1968 1.363 . S
C1964 H1941 0.950 . S
C1964 C1963 1.397 . S
C1964 C1965 1.334 . S
C1965 H1942 0.950 . S
C1965 C1964 1.334 . S
C1965 C1966 1.287 . S
C1966 C1965 1.287 . S
C1966 C1967 1.524 . S
C1966 H1985 0.913 . S
C1967 H1943 0.950 . S
C1967 C1966 1.524 . S
C1967 C1968 1.415 . S
C1968 H1944 0.950 . S
C1968 C1963 1.363 . S
C1968 C1967 1.415 . S
C1969 H1945 0.951 . S
C1969 C1970 1.366 . S
C1969 C1971 1.388 . S
C1970 C1969 1.366 . S
C1970 C1974 1.385 . S
C1971 H1946 0.951 . S
C1971 C1969 1.388 . S
C1971 C1972 1.366 . S
C1972 C1971 1.366 . S
C1972 C1973 1.414 . S
C1972 C1975 1.499 . S
C1973 H1947 0.950 . S
C1973 C1972 1.414 . S
C1973 C1974 1.374 . S
C1974 H1948 0.950 . S
C1974 C1970 1.385 . S
C1974 C1973 1.374 . S
C1975 C1972 1.499 . S
C1975 C1976 1.373 . S
C1975 C1977 1.389 . S
C1976 H1949 0.950 . S
C1976 C1962 1.377 . S
C1976 C1975 1.373 . S
C1977 C1961 1.377 . S
C1977 C1975 1.389 . S
C1977 C1978 1.524 . S
C1978 C1977 1.524 . S
C1978 C1979 1.397 . S
C1978 C1983 1.363 . S
C1979 H1950 0.950 . S
C1979 C1978 1.397 . S
C1979 C1980 1.334 . S
C1980 H1951 0.950 . S
C1980 C1979 1.334 . S
C1980 C1981 1.287 . S
C1981 C1980 1.287 . S
C1981 C1982 1.524 . S
C1981 H1984 0.999 . S
C1982 H1952 0.950 . S
C1982 C1981 1.524 . S
C1982 C1983 1.415 . S
C1983 H1953 0.950 . S
C1983 C1978 1.363 . S
C1983 C1982 1.415 . S
H1984 C1981 0.999 . S
H1985 C1966 0.913 . S
H1986 C2004 0.951 . S
H1987 C2006 0.951 . S
H1988 C2008 0.950 . S
H1989 C2009 0.950 . S
H1990 C2011 0.950 . S
H1991 C2014 0.950 . S
H1992 C2015 0.950 . S
H1993 C2017 0.950 . S
H1994 C2018 0.950 . S
H1995 C2019 0.951 . S
H1996 C2021 0.951 . S
H1997 C2023 0.950 . S
H1998 C2024 0.950 . S
H1999 C2026 0.950 . S
H2000 C2029 0.950 . S
H2001 C2030 0.950 . S
H2002 C2032 0.950 . S
H2003 C2033 0.950 . S
C2004 H1986 0.951 . S
C2004 C2005 1.366 . S
C2004 C2006 1.388 . S
C2005 C2004 1.366 . S
C2005 C2009 1.385 . S
C2006 H1987 0.951 . S
C2006 C2004 1.388 . S
C2006 C2007 1.366 . S
C2007 C2006 1.366 . S
C2007 C2008 1.414 . S
C2007 C2010 1.499 . S
C2008 H1988 0.950 . S
C2008 C2007 1.414 . S
C2008 C2009 1.374 . S
C2009 H1989 0.950 . S
C2009 C2005 1.385 . S
C2009 C2008 1.374 . S
C2010 C2007 1.499 . S
C2010 C2011 1.373 . S
C2010 C2012 1.389 . S
C2011 H1990 0.950 . S
C2011 C2010 1.373 . S
C2011 C2027 1.377 . S
C2012 C2010 1.389 . S
C2012 C2013 1.524 . S
C2012 C2026 1.377 . S
C2013 C2012 1.524 . S
C2013 C2014 1.397 . S
C2013 C2018 1.363 . S
C2014 H1991 0.950 . S
C2014 C2013 1.397 . S
C2014 C2015 1.334 . S
C2015 H1992 0.950 . S
C2015 C2014 1.334 . S
C2015 C2016 1.287 . S
C2016 C2015 1.287 . S
C2016 C2017 1.524 . S
C2016 H2035 0.913 . S
C2017 H1993 0.950 . S
C2017 C2016 1.524 . S
C2017 C2018 1.415 . S
C2018 H1994 0.950 . S
C2018 C2013 1.363 . S
C2018 C2017 1.415 . S
C2019 H1995 0.951 . S
C2019 C2020 1.366 . S
C2019 C2021 1.388 . S
C2020 C2019 1.366 . S
C2020 C2024 1.385 . S
C2021 H1996 0.951 . S
C2021 C2019 1.388 . S
C2021 C2022 1.366 . S
C2022 C2021 1.366 . S
C2022 C2023 1.414 . S
C2022 C2025 1.499 . S
C2023 H1997 0.950 . S
C2023 C2022 1.414 . S
C2023 C2024 1.374 . S
C2024 H1998 0.950 . S
C2024 C2020 1.385 . S
C2024 C2023 1.374 . S
C2025 C2022 1.499 . S
C2025 C2026 1.373 . S
C2025 C2027 1.389 . S
C2026 H1999 0.950 . S
C2026 C2012 1.377 . S
C2026 C2025 1.373 . S
C2027 C2011 1.377 . S
C2027 C2025 1.389 . S
C2027 C2028 1.524 . S
C2028 C2027 1.524 . S
C2028 C2029 1.397 . S
C2028 C2033 1.363 . S
C2029 H2000 0.950 . S
C2029 C2028 1.397 . S
C2029 C2030 1.334 . S
C2030 H2001 0.950 . S
C2030 C2029 1.334 . S
C2030 C2031 1.287 . S
C2031 C2030 1.287 . S
C2031 C2032 1.524 . S
C2031 H2034 0.999 . S
C2032 H2002 0.950 . S
C2032 C2031 1.524 . S
C2032 C2033 1.415 . S
C2033 H2003 0.950 . S
C2033 C2028 1.363 . S
C2033 C2032 1.415 . S
H2034 C2031 0.999 . S
H2035 C2016 0.913 . S
H2036 C2054 0.951 . S
H2037 C2056 0.951 . S
H2038 C2058 0.950 . S
H2039 C2059 0.950 . S
H2040 C2061 0.950 . S
H2041 C2064 0.950 . S
H2042 C2065 0.950 . S
H2043 C2067 0.950 . S
H2044 C2068 0.950 . S
H2045 C2069 0.951 . S
H2046 C2071 0.951 . S
H2047 C2073 0.950 . S
H2048 C2074 0.950 . S
H2049 C2076 0.950 1_565 S
H2050 C2079 0.950 . S
H2051 C2080 0.950 . S
H2052 C2082 0.950 . S
H2053 C2083 0.950 . S
C2054 H2036 0.951 . S
C2054 C2055 1.366 . S
C2054 C2056 1.388 . S
C2055 C2054 1.366 . S
C2055 C2059 1.385 1_545 S
C2056 H2037 0.951 . S
C2056 C2054 1.388 . S
C2056 C2057 1.366 . S
C2057 C2056 1.366 . S
C2057 C2058 1.414 1_545 S
C2057 C2060 1.499 . S
C2058 H2038 0.950 . S
C2058 C2057 1.414 1_565 S
C2058 C2059 1.374 . S
C2059 H2039 0.950 . S
C2059 C2055 1.385 1_565 S
C2059 C2058 1.374 . S
C2060 C2057 1.499 . S
C2060 C2061 1.374 . S
C2060 C2062 1.388 1_545 S
C2061 H2040 0.950 . S
C2061 C2060 1.374 . S
C2061 C2077 1.377 . S
C2062 C2060 1.388 1_565 S
C2062 C2063 1.531 . S
C2062 C2076 1.376 1_565 S
C2063 C2062 1.531 . S
C2063 C2064 1.397 . S
C2063 C2068 1.363 1_565 S
C2064 H2041 0.950 . S
C2064 C2063 1.397 . S
C2064 C2065 1.334 . S
C2065 H2042 0.950 . S
C2065 C2064 1.334 . S
C2065 C2066 1.287 . S
C2066 C2065 1.287 . S
C2066 C2067 1.524 1_565 S
C2066 H2085 0.913 . S
C2067 H2043 0.950 . S
C2067 C2066 1.524 1_545 S
C2067 C2068 1.415 . S
C2068 H2044 0.950 . S
C2068 C2063 1.363 1_545 S
C2068 C2067 1.415 . S
C2069 H2045 0.951 . S
C2069 C2070 1.366 . S
C2069 C2071 1.388 . S
C2070 C2069 1.366 . S
C2070 C2074 1.385 1_565 S
C2071 H2046 0.951 . S
C2071 C2069 1.388 . S
C2071 C2072 1.359 1_565 S
C2072 C2071 1.359 1_545 S
C2072 C2073 1.420 . S
C2072 C2075 1.499 . S
C2073 H2047 0.950 . S
C2073 C2072 1.420 . S
C2073 C2074 1.374 . S
C2074 H2048 0.950 . S
C2074 C2070 1.385 1_545 S
C2074 C2073 1.374 . S
C2075 C2072 1.499 . S
C2075 C2076 1.373 . S
C2075 C2077 1.389 . S
C2076 H2049 0.950 1_545 S
C2076 C2062 1.376 1_545 S
C2076 C2075 1.373 . S
C2077 C2061 1.377 . S
C2077 C2075 1.389 . S
C2077 C2078 1.524 . S
C2078 C2077 1.524 . S
C2078 C2079 1.397 . S
C2078 C2083 1.363 1_545 S
C2079 H2050 0.950 . S
C2079 C2078 1.397 . S
C2079 C2080 1.334 . S
C2080 H2051 0.950 . S
C2080 C2079 1.334 . S
C2080 C2081 1.287 . S
C2081 C2080 1.287 . S
C2081 C2082 1.524 1_545 S
C2081 H2084 0.999 . S
C2082 H2052 0.950 . S
C2082 C2081 1.524 1_565 S
C2082 C2083 1.415 . S
C2083 H2053 0.950 . S
C2083 C2078 1.363 1_565 S
C2083 C2082 1.415 . S
H2084 C2081 0.999 . S
H2085 C2066 0.913 . S
H2086 C2104 0.951 . S
H2087 C2106 0.951 . S
H2088 C2108 0.950 . S
H2089 C2109 0.950 . S
H2090 C2111 0.950 . S
H2091 C2114 0.950 . S
H2092 C2115 0.950 . S
H2093 C2117 0.950 . S
H2094 C2118 0.950 . S
H2095 C2119 0.951 . S
H2096 C2121 0.951 . S
H2097 C2123 0.950 . S
H2098 C2124 0.950 . S
H2099 C2126 0.950 . S
H2100 C2129 0.950 . S
H2101 C2130 0.950 . S
H2102 C2132 0.950 . S
H2103 C2133 0.950 . S
C2104 H2086 0.951 . S
C2104 C2105 1.366 . S
C2104 C2106 1.388 . S
C2105 C2104 1.366 . S
C2105 C2109 1.385 1_556 S
C2106 H2087 0.951 . S
C2106 C2104 1.388 . S
C2106 C2107 1.366 . S
C2107 C2106 1.366 . S
C2107 C2108 1.414 1_556 S
C2107 C2110 1.499 . S
C2108 H2088 0.950 . S
C2108 C2107 1.414 1_554 S
C2108 C2109 1.374 . S
C2109 H2089 0.950 . S
C2109 C2105 1.385 1_554 S
C2109 C2108 1.374 . S
C2110 C2107 1.499 . S
C2110 C2111 1.369 1_556 S
C2110 C2112 1.393 . S
C2111 H2090 0.950 . S
C2111 C2110 1.369 1_554 S
C2111 C2127 1.377 . S
C2112 C2110 1.393 . S
C2112 C2113 1.524 . S
C2112 C2126 1.377 . S
C2113 C2112 1.524 . S
C2113 C2114 1.397 . S
C2113 C2118 1.363 . S
C2114 H2091 0.950 . S
C2114 C2113 1.397 . S
C2114 C2115 1.334 . S
C2115 H2092 0.950 . S
C2115 C2114 1.334 . S
C2115 C2116 1.287 . S
C2116 C2115 1.287 . S
C2116 C2117 1.524 . S
C2116 H2135 0.913 . S
C2117 H2093 0.950 . S
C2117 C2116 1.524 . S
C2117 C2118 1.415 . S
C2118 H2094 0.950 . S
C2118 C2113 1.363 . S
C2118 C2117 1.415 . S
C2119 H2095 0.951 . S
C2119 C2120 1.366 . S
C2119 C2121 1.388 . S
C2120 C2119 1.366 . S
C2120 C2124 1.385 1_554 S
C2121 H2096 0.951 . S
C2121 C2119 1.388 . S
C2121 C2122 1.366 . S
C2122 C2121 1.366 . S
C2122 C2123 1.414 1_554 S
C2122 C2125 1.499 . S
C2123 H2097 0.950 . S
C2123 C2122 1.414 1_556 S
C2123 C2124 1.374 . S
C2124 H2098 0.950 . S
C2124 C2120 1.385 1_556 S
C2124 C2123 1.374 . S
C2125 C2122 1.499 . S
C2125 C2126 1.373 1_554 S
C2125 C2127 1.389 . S
C2126 H2099 0.950 . S
C2126 C2112 1.377 . S
C2126 C2125 1.373 1_556 S
C2127 C2111 1.377 . S
C2127 C2125 1.389 . S
C2127 C2128 1.524 . S
C2128 C2127 1.524 . S
C2128 C2129 1.397 . S
C2128 C2133 1.363 . S
C2129 H2100 0.950 . S
C2129 C2128 1.397 . S
C2129 C2130 1.334 . S
C2130 H2101 0.950 . S
C2130 C2129 1.334 . S
C2130 C2131 1.287 . S
C2131 C2130 1.287 . S
C2131 C2132 1.524 . S
C2131 H2134 0.999 . S
C2132 H2102 0.950 . S
C2132 C2131 1.524 . S
C2132 C2133 1.415 . S
C2133 H2103 0.950 . S
C2133 C2128 1.363 . S
C2133 C2132 1.415 . S
H2134 C2131 0.999 . S
H2135 C2116 0.913 . S
H2136 C2154 0.951 . S
H2137 C2156 0.951 . S
H2138 C2158 0.950 . S
H2139 C2159 0.950 . S
H2140 C2161 0.950 . S
H2141 C2164 0.950 1_455 S
H2142 C2165 0.950 . S
H2143 C2167 0.950 . S
H2144 C2168 0.950 . S
H2145 C2169 0.951 . S
H2146 C2171 0.951 . S
H2147 C2173 0.950 . S
H2148 C2174 0.950 . S
H2149 C2176 0.950 . S
H2150 C2179 0.950 1_655 S
H2151 C2180 0.950 . S
H2152 C2182 0.950 . S
H2153 C2183 0.950 . S
C2154 H2136 0.951 . S
C2154 C2155 1.366 . S
C2154 C2156 1.388 . S
C2155 C2154 1.366 . S
C2155 C2159 1.385 1_655 S
C2156 H2137 0.951 . S
C2156 C2154 1.388 . S
C2156 C2157 1.366 . S
C2157 C2156 1.366 . S
C2157 C2158 1.414 1_655 S
C2157 C2160 1.499 . S
C2158 H2138 0.950 . S
C2158 C2157 1.414 1_455 S
C2158 C2159 1.374 . S
C2159 H2139 0.950 . S
C2159 C2155 1.385 1_455 S
C2159 C2158 1.374 . S
C2160 C2157 1.499 . S
C2160 C2161 1.373 1_655 S
C2160 C2162 1.389 1_565 S
C2161 H2140 0.950 . S
C2161 C2160 1.373 1_455 S
C2161 C2177 1.377 . S
C2162 C2160 1.389 1_545 S
C2162 C2163 1.524 . S
C2162 C2176 1.377 . S
C2163 C2162 1.524 . S
C2163 C2164 1.397 . S
C2163 C2168 1.363 . S
C2164 H2141 0.950 1_655 S
C2164 C2163 1.397 . S
C2164 C2165 1.334 . S
C2165 H2142 0.950 . S
C2165 C2164 1.334 . S
C2165 C2166 1.287 . S
C2166 C2165 1.287 . S
C2166 C2167 1.524 . S
C2166 H2185 0.913 . S
C2167 H2143 0.950 . S
C2167 C2166 1.524 . S
C2167 C2168 1.415 . S
C2168 H2144 0.950 . S
C2168 C2163 1.363 . S
C2168 C2167 1.415 . S
C2169 H2145 0.951 . S
C2169 C2170 1.366 1_455 S
C2169 C2171 1.388 . S
C2170 C2169 1.366 1_655 S
C2170 C2174 1.385 . S
C2171 H2146 0.951 . S
C2171 C2169 1.388 . S
C2171 C2172 1.366 1_455 S
C2172 C2171 1.366 1_655 S
C2172 C2173 1.414 . S
C2172 C2175 1.499 . S
C2173 H2147 0.950 . S
C2173 C2172 1.414 . S
C2173 C2174 1.374 . S
C2174 H2148 0.950 . S
C2174 C2170 1.385 . S
C2174 C2173 1.374 . S
C2175 C2172 1.499 . S
C2175 C2176 1.373 . S
C2175 C2177 1.389 1_645 S
C2176 H2149 0.950 . S
C2176 C2162 1.377 . S
C2176 C2175 1.373 . S
C2177 C2161 1.377 . S
C2177 C2175 1.389 1_465 S
C2177 C2178 1.524 . S
C2178 C2177 1.524 . S
C2178 C2179 1.397 . S
C2178 C2183 1.363 . S
C2179 H2150 0.950 1_455 S
C2179 C2178 1.397 . S
C2179 C2180 1.334 . S
C2180 H2151 0.950 . S
C2180 C2179 1.334 . S
C2180 C2181 1.287 . S
C2181 C2180 1.287 . S
C2181 C2182 1.524 . S
C2181 H2184 0.999 . S
C2182 H2152 0.950 . S
C2182 C2181 1.524 . S
C2182 C2183 1.415 . S
C2183 H2153 0.950 . S
C2183 C2178 1.363 . S
C2183 C2182 1.415 . S
H2184 C2181 0.999 . S
H2185 C2166 0.913 . S
H2186 C2204 0.951 . S
H2187 C2206 0.951 . S
H2188 C2208 0.950 . S
H2189 C2209 0.950 . S
H2190 C2211 0.950 . S
H2191 C2214 0.950 . S
H2192 C2215 0.950 . S
H2193 C2217 0.950 . S
H2194 C2218 0.950 1_455 S
H2195 C2219 0.951 . S
H2196 C2221 0.951 . S
H2197 C2223 0.950 . S
H2198 C2224 0.950 . S
H2199 C2226 0.950 . S
H2200 C2229 0.950 . S
H2201 C2230 0.950 . S
H2202 C2232 0.950 . S
H2203 C2233 0.950 1_655 S
C2204 H2186 0.951 . S
C2204 C2205 1.366 . S
C2204 C2206 1.388 . S
C2205 C2204 1.366 . S
C2205 C2209 1.385 1_455 S
C2206 H2187 0.951 . S
C2206 C2204 1.388 . S
C2206 C2207 1.395 . S
C2207 C2206 1.395 . S
C2207 C2208 1.389 1_455 S
C2207 C2210 1.498 . S
C2208 H2188 0.950 . S
C2208 C2207 1.389 1_655 S
C2208 C2209 1.374 . S
C2209 H2189 0.950 . S
C2209 C2205 1.385 1_655 S
C2209 C2208 1.374 . S
C2210 C2207 1.498 . S
C2210 C2211 1.375 . S
C2210 C2212 1.388 1_455 S
C2211 H2190 0.950 . S
C2211 C2210 1.375 . S
C2211 C2227 1.377 . S
C2212 C2210 1.388 1_655 S
C2212 C2213 1.524 . S
C2212 C2226 1.377 . S
C2213 C2212 1.524 . S
C2213 C2214 1.397 . S
C2213 C2218 1.363 . S
C2214 H2191 0.950 . S
C2214 C2213 1.397 . S
C2214 C2215 1.334 . S
C2215 H2192 0.950 . S
C2215 C2214 1.334 . S
C2215 C2216 1.287 . S
C2216 C2215 1.287 . S
C2216 C2217 1.524 . S
C2216 H2235 0.913 . S
C2217 H2193 0.950 . S
C2217 C2216 1.524 . S
C2217 C2218 1.415 . S
C2218 H2194 0.950 1_655 S
C2218 C2213 1.363 . S
C2218 C2217 1.415 . S
C2219 H2195 0.951 . S
C2219 C2220 1.362 1_655 S
C2219 C2221 1.388 . S
C2220 C2219 1.362 1_455 S
C2220 C2224 1.389 . S
C2221 H2196 0.951 . S
C2221 C2219 1.388 . S
C2221 C2222 1.366 1_655 S
C2222 C2221 1.366 1_455 S
C2222 C2223 1.414 . S
C2222 C2225 1.499 . S
C2223 H2197 0.950 . S
C2223 C2222 1.414 . S
C2223 C2224 1.374 . S
C2224 H2198 0.950 . S
C2224 C2220 1.389 . S
C2224 C2223 1.374 . S
C2225 C2222 1.499 . S
C2225 C2226 1.373 1_455 S
C2225 C2227 1.389 . S
C2226 H2199 0.950 . S
C2226 C2212 1.377 . S
C2226 C2225 1.373 1_655 S
C2227 C2211 1.377 . S
C2227 C2225 1.389 . S
C2227 C2228 1.524 . S
C2228 C2227 1.524 . S
C2228 C2229 1.397 . S
C2228 C2233 1.363 . S
C2229 H2200 0.950 . S
C2229 C2228 1.397 . S
C2229 C2230 1.334 . S
C2230 H2201 0.950 . S
C2230 C2229 1.334 . S
C2230 C2231 1.287 . S
C2231 C2230 1.287 . S
C2231 C2232 1.524 . S
C2231 H2234 0.999 . S
C2232 H2202 0.950 . S
C2232 C2231 1.524 . S
C2232 C2233 1.415 . S
C2233 H2203 0.950 1_455 S
C2233 C2228 1.363 . S
C2233 C2232 1.415 . S
H2234 C2231 0.999 . S
H2235 C2216 0.913 . S
H2236 C2254 0.951 . S
H2237 C2256 0.951 . S
H2238 C2258 0.960 . S
H2239 C2259 0.950 . S
H2240 C2261 0.952 . S
H2241 C2264 0.950 . S
H2242 C2265 0.950 . S
H2243 C2267 0.950 . S
H2244 C2268 0.950 . S
H2245 C2269 0.948 1_545 S
H2246 C2271 0.954 . S
H2247 C2273 0.950 . S
H2248 C2274 0.950 . S
H2249 C2276 0.950 . S
H2250 C2279 0.950 . S
H2251 C2280 0.950 . S
H2252 C2282 0.950 . S
H2253 C2283 0.950 . S
C2254 H2236 0.951 . S
C2254 C2255 1.366 . S
C2254 C2256 1.388 . S
C2255 C2254 1.366 . S
C2255 C2259 1.385 1_565 S
C2256 H2237 0.951 . S
C2256 C2254 1.388 . S
C2256 C2257 1.366 . S
C2257 C2256 1.366 . S
C2257 C2258 1.405 1_565 S
C2257 C2260 1.499 . S
C2258 H2238 0.960 . S
C2258 C2257 1.405 1_545 S
C2258 C2259 1.376 . S
C2259 H2239 0.950 . S
C2259 C2255 1.385 1_545 S
C2259 C2258 1.376 . S
C2260 C2257 1.499 . S
C2260 C2261 1.373 1_565 S
C2260 C2262 1.389 . S
C2261 H2240 0.952 . S
C2261 C2260 1.373 1_545 S
C2261 C2277 1.377 1_556 S
C2262 C2260 1.389 . S
C2262 C2263 1.524 . S
C2262 C2276 1.377 . S
C2263 C2262 1.524 . S
C2263 C2264 1.397 . S
C2263 C2268 1.363 . S
C2264 H2241 0.950 . S
C2264 C2263 1.397 . S
C2264 C2265 1.334 . S
C2265 H2242 0.950 . S
C2265 C2264 1.334 . S
C2265 C2266 1.287 . S
C2266 C2265 1.287 . S
C2266 C2267 1.524 . S
C2266 H2285 0.913 . S
C2267 H2243 0.950 . S
C2267 C2266 1.524 . S
C2267 C2268 1.415 . S
C2268 H2244 0.950 . S
C2268 C2263 1.363 . S
C2268 C2267 1.415 . S
C2269 H2245 0.948 1_565 S
C2269 C2270 1.370 . S
C2269 C2271 1.387 1_565 S
C2270 C2269 1.370 . S
C2270 C2274 1.385 . S
C2271 H2246 0.954 . S
C2271 C2269 1.387 1_545 S
C2271 C2272 1.364 1_545 S
C2272 C2271 1.364 1_565 S
C2272 C2273 1.414 . S
C2272 C2275 1.499 . S
C2273 H2247 0.950 . S
C2273 C2272 1.414 . S
C2273 C2274 1.374 . S
C2274 H2248 0.950 . S
C2274 C2270 1.385 . S
C2274 C2273 1.374 . S
C2275 C2272 1.499 . S
C2275 C2276 1.373 1_554 S
C2275 C2277 1.389 1_565 S
C2276 H2249 0.950 . S
C2276 C2262 1.377 . S
C2276 C2275 1.373 1_556 S
C2277 C2261 1.377 1_554 S
C2277 C2275 1.389 1_545 S
C2277 C2278 1.524 . S
C2278 C2277 1.524 . S
C2278 C2279 1.397 . S
C2278 C2283 1.363 . S
C2279 H2250 0.950 . S
C2279 C2278 1.397 . S
C2279 C2280 1.334 . S
C2280 H2251 0.950 . S
C2280 C2279 1.334 . S
C2280 C2281 1.287 . S
C2281 C2280 1.287 . S
C2281 C2282 1.524 . S
C2281 H2284 0.999 . S
C2282 H2252 0.950 . S
C2282 C2281 1.524 . S
C2282 C2283 1.415 . S
C2283 H2253 0.950 . S
C2283 C2278 1.363 . S
C2283 C2282 1.415 . S
H2284 C2281 0.999 . S
H2285 C2266 0.913 . S
H2286 C2304 0.951 . S
H2287 C2306 0.951 . S
H2288 C2308 0.950 . S
H2289 C2309 0.950 . S
H2290 C2311 0.950 . S
H2291 C2314 0.950 . S
H2292 C2315 0.950 . S
H2293 C2317 0.950 . S
H2294 C2318 0.950 . S
H2295 C2319 0.951 . S
H2296 C2321 0.951 . S
H2297 C2323 0.950 . S
H2298 C2324 0.950 . S
H2299 C2326 0.950 . S
H2300 C2329 0.950 . S
H2301 C2330 0.950 . S
H2302 C2332 0.950 . S
H2303 C2333 0.950 . S
C2304 H2286 0.951 . S
C2304 C2305 1.366 . S
C2304 C2306 1.388 . S
C2305 C2304 1.366 . S
C2305 C2309 1.385 . S
C2306 H2287 0.951 . S
C2306 C2304 1.388 . S
C2306 C2307 1.366 . S
C2307 C2306 1.366 . S
C2307 C2308 1.414 . S
C2307 C2310 1.499 . S
C2308 H2288 0.950 . S
C2308 C2307 1.414 . S
C2308 C2309 1.374 . S
C2309 H2289 0.950 . S
C2309 C2305 1.385 . S
C2309 C2308 1.374 . S
C2310 C2307 1.499 . S
C2310 C2311 1.373 . S
C2310 C2312 1.378 1_554 S
C2311 H2290 0.950 . S
C2311 C2310 1.373 . S
C2311 C2327 1.377 1_554 S
C2312 C2310 1.378 1_556 S
C2312 C2313 1.523 1_556 S
C2312 C2326 1.389 . S
C2313 C2312 1.523 1_554 S
C2313 C2314 1.397 . S
C2313 C2318 1.363 1_554 S
C2314 H2291 0.950 . S
C2314 C2313 1.397 . S
C2314 C2315 1.334 . S
C2315 H2292 0.950 . S
C2315 C2314 1.334 . S
C2315 C2316 1.287 . S
C2316 C2315 1.287 . S
C2316 C2317 1.524 1_554 S
C2316 H2335 0.913 . S
C2317 H2293 0.950 . S
C2317 C2316 1.524 1_556 S
C2317 C2318 1.415 . S
C2318 H2294 0.950 . S
C2318 C2313 1.363 1_556 S
C2318 C2317 1.415 . S
C2319 H2295 0.951 . S
C2319 C2320 1.366 . S
C2319 C2321 1.388 . S
C2320 C2319 1.366 . S
C2320 C2324 1.385 . S
C2321 H2296 0.951 . S
C2321 C2319 1.388 . S
C2321 C2322 1.366 . S
C2322 C2321 1.366 . S
C2322 C2323 1.414 . S
C2322 C2325 1.499 . S
C2323 H2297 0.950 . S
C2323 C2322 1.414 . S
C2323 C2324 1.374 . S
C2324 H2298 0.950 . S
C2324 C2320 1.385 . S
C2324 C2323 1.374 . S
C2325 C2322 1.499 . S
C2325 C2326 1.373 . S
C2325 C2327 1.389 . S
C2326 H2299 0.950 . S
C2326 C2312 1.389 . S
C2326 C2325 1.373 . S
C2327 C2311 1.377 1_556 S
C2327 C2325 1.389 . S
C2327 C2328 1.524 . S
C2328 C2327 1.524 . S
C2328 C2329 1.397 . S
C2328 C2333 1.363 1_556 S
C2329 H2300 0.950 . S
C2329 C2328 1.397 . S
C2329 C2330 1.334 . S
C2330 H2301 0.950 . S
C2330 C2329 1.334 . S
C2330 C2331 1.287 . S
C2331 C2330 1.287 . S
C2331 C2332 1.524 1_556 S
C2331 H2334 0.999 . S
C2332 H2302 0.950 . S
C2332 C2331 1.524 1_554 S
C2332 C2333 1.415 . S
C2333 H2303 0.950 . S
C2333 C2328 1.363 1_554 S
C2333 C2332 1.415 . S
H2334 C2331 0.999 . S
H2335 C2316 0.913 . S
H2336 C2354 0.951 . S
H2337 C2356 0.951 . S
H2338 C2358 0.950 . S
H2339 C2359 0.950 . S
H2340 C2361 0.950 . S
H2341 C2364 0.950 . S
H2342 C2365 0.950 . S
H2343 C2367 0.950 . S
H2344 C2368 0.950 1_565 S
H2345 C2369 0.951 . S
H2346 C2371 0.951 . S
H2347 C2373 0.950 . S
H2348 C2374 0.950 . S
H2349 C2376 0.950 . S
H2350 C2379 0.950 . S
H2351 C2380 0.950 . S
H2352 C2382 0.950 . S
H2353 C2383 0.950 1_545 S
C2354 H2336 0.951 . S
C2354 C2355 1.366 1_565 S
C2354 C2356 1.388 . S
C2355 C2354 1.366 1_545 S
C2355 C2359 1.385 . S
C2356 H2337 0.951 . S
C2356 C2354 1.388 . S
C2356 C2357 1.366 1_565 S
C2357 C2356 1.366 1_545 S
C2357 C2358 1.414 . S
C2357 C2360 1.499 . S
C2358 H2338 0.950 . S
C2358 C2357 1.414 . S
C2358 C2359 1.374 . S
C2359 H2339 0.950 . S
C2359 C2355 1.385 . S
C2359 C2358 1.374 . S
C2360 C2357 1.499 . S
C2360 C2361 1.373 1_545 S
C2360 C2362 1.389 . S
C2361 H2340 0.950 . S
C2361 C2360 1.373 1_565 S
C2361 C2377 1.377 . S
C2362 C2360 1.389 . S
C2362 C2363 1.524 . S
C2362 C2376 1.377 . S
C2363 C2362 1.524 . S
C2363 C2364 1.397 . S
C2363 C2368 1.363 . S
C2364 H2341 0.950 . S
C2364 C2363 1.397 . S
C2364 C2365 1.334 . S
C2365 H2342 0.950 . S
C2365 C2364 1.334 . S
C2365 C2366 1.287 . S
C2366 C2365 1.287 . S
C2366 C2367 1.524 . S
C2366 H2385 0.913 . S
C2367 H2343 0.950 . S
C2367 C2366 1.524 . S
C2367 C2368 1.415 . S
C2368 H2344 0.950 1_545 S
C2368 C2363 1.363 . S
C2368 C2367 1.415 . S
C2369 H2345 0.951 . S
C2369 C2370 1.371 . S
C2369 C2371 1.388 . S
C2370 C2369 1.371 . S
C2370 C2374 1.380 1_545 S
C2371 H2346 0.951 . S
C2371 C2369 1.388 . S
C2371 C2372 1.363 1_545 S
C2372 C2371 1.363 1_565 S
C2372 C2373 1.416 . S
C2372 C2375 1.499 . S
C2373 H2347 0.950 . S
C2373 C2372 1.416 . S
C2373 C2374 1.374 . S
C2374 H2348 0.950 . S
C2374 C2370 1.380 1_565 S
C2374 C2373 1.374 . S
C2375 C2372 1.499 . S
C2375 C2376 1.369 1_565 S
C2375 C2377 1.393 . S
C2376 H2349 0.950 . S
C2376 C2362 1.377 . S
C2376 C2375 1.369 1_545 S
C2377 C2361 1.377 . S
C2377 C2375 1.393 . S
C2377 C2378 1.524 . S
C2378 C2377 1.524 . S
C2378 C2379 1.397 . S
C2378 C2383 1.363 . S
C2379 H2350 0.950 . S
C2379 C2378 1.397 . S
C2379 C2380 1.334 . S
C2380 H2351 0.950 . S
C2380 C2379 1.334 . S
C2380 C2381 1.287 . S
C2381 C2380 1.287 . S
C2381 C2382 1.524 . S
C2381 H2384 0.999 . S
C2382 H2352 0.950 . S
C2382 C2381 1.524 . S
C2382 C2383 1.415 . S
C2383 H2353 0.950 1_565 S
C2383 C2378 1.363 . S
C2383 C2382 1.415 . S
H2384 C2381 0.999 . S
H2385 C2366 0.913 . S
H2386 C2404 0.951 . S
H2387 C2406 0.951 . S
H2388 C2408 0.950 . S
H2389 C2409 0.950 . S
H2390 C2411 0.950 . S
H2391 C2414 0.950 . S
H2392 C2415 0.950 . S
H2393 C2417 0.950 . S
H2394 C2418 0.950 . S
H2395 C2419 0.951 . S
H2396 C2421 0.951 . S
H2397 C2423 0.950 . S
H2398 C2424 0.950 . S
H2399 C2426 0.950 . S
H2400 C2429 0.950 . S
H2401 C2430 0.950 . S
H2402 C2432 0.950 . S
H2403 C2433 0.950 . S
C2404 H2386 0.951 . S
C2404 C2405 1.366 . S
C2404 C2406 1.388 . S
C2405 C2404 1.366 . S
C2405 C2409 1.385 . S
C2406 H2387 0.951 . S
C2406 C2404 1.388 . S
C2406 C2407 1.366 . S
C2407 C2406 1.366 . S
C2407 C2408 1.414 . S
C2407 C2410 1.499 . S
C2408 H2388 0.950 . S
C2408 C2407 1.414 . S
C2408 C2409 1.374 . S
C2409 H2389 0.950 . S
C2409 C2405 1.385 . S
C2409 C2408 1.374 . S
C2410 C2407 1.499 . S
C2410 C2411 1.373 . S
C2410 C2412 1.389 . S
C2411 H2390 0.950 . S
C2411 C2410 1.373 . S
C2411 C2427 1.377 . S
C2412 C2410 1.389 . S
C2412 C2413 1.524 . S
C2412 C2426 1.377 . S
C2413 C2412 1.524 . S
C2413 C2414 1.397 . S
C2413 C2418 1.363 . S
C2414 H2391 0.950 . S
C2414 C2413 1.397 . S
C2414 C2415 1.334 . S
C2415 H2392 0.950 . S
C2415 C2414 1.334 . S
C2415 C2416 1.287 . S
C2416 C2415 1.287 . S
C2416 C2417 1.524 . S
C2416 H2435 0.913 . S
C2417 H2393 0.950 . S
C2417 C2416 1.524 . S
C2417 C2418 1.415 . S
C2418 H2394 0.950 . S
C2418 C2413 1.363 . S
C2418 C2417 1.415 . S
C2419 H2395 0.951 . S
C2419 C2420 1.366 . S
C2419 C2421 1.388 . S
C2420 C2419 1.366 . S
C2420 C2424 1.385 . S
C2421 H2396 0.951 . S
C2421 C2419 1.388 . S
C2421 C2422 1.366 . S
C2422 C2421 1.366 . S
C2422 C2423 1.414 . S
C2422 C2425 1.499 . S
C2423 H2397 0.950 . S
C2423 C2422 1.414 . S
C2423 C2424 1.374 . S
C2424 H2398 0.950 . S
C2424 C2420 1.385 . S
C2424 C2423 1.374 . S
C2425 C2422 1.499 . S
C2425 C2426 1.373 . S
C2425 C2427 1.389 . S
C2426 H2399 0.950 . S
C2426 C2412 1.377 . S
C2426 C2425 1.373 . S
C2427 C2411 1.377 . S
C2427 C2425 1.389 . S
C2427 C2428 1.524 . S
C2428 C2427 1.524 . S
C2428 C2429 1.397 . S
C2428 C2433 1.363 . S
C2429 H2400 0.950 . S
C2429 C2428 1.397 . S
C2429 C2430 1.334 . S
C2430 H2401 0.950 . S
C2430 C2429 1.334 . S
C2430 C2431 1.287 . S
C2431 C2430 1.287 . S
C2431 C2432 1.524 . S
C2431 H2434 0.999 . S
C2432 H2402 0.950 . S
C2432 C2431 1.524 . S
C2432 C2433 1.415 . S
C2433 H2403 0.950 . S
C2433 C2428 1.363 . S
C2433 C2432 1.415 . S
H2434 C2431 0.999 . S
H2435 C2416 0.913 . S
H2436 C2454 0.951 . S
H2437 C2456 0.951 . S
H2438 C2458 0.950 . S
H2439 C2459 0.950 . S
H2440 C2461 0.950 . S
H2441 C2464 0.948 . S
H2442 C2465 0.950 . S
H2443 C2467 0.950 . S
H2444 C2468 0.950 . S
H2445 C2469 0.951 . S
H2446 C2471 0.951 . S
H2447 C2473 0.950 . S
H2448 C2474 0.950 . S
H2449 C2476 0.950 . S
H2450 C2479 0.950 . S
H2451 C2480 0.950 . S
H2452 C2482 0.950 . S
H2453 C2483 0.950 . S
C2454 H2436 0.951 . S
C2454 C2455 1.366 . S
C2454 C2456 1.388 . S
C2455 C2454 1.366 . S
C2455 C2459 1.385 1_556 S
C2456 H2437 0.951 . S
C2456 C2454 1.388 . S
C2456 C2457 1.366 . S
C2457 C2456 1.366 . S
C2457 C2458 1.414 1_556 S
C2457 C2460 1.499 . S
C2458 H2438 0.950 . S
C2458 C2457 1.414 1_554 S
C2458 C2459 1.374 . S
C2459 H2439 0.950 . S
C2459 C2455 1.385 1_554 S
C2459 C2458 1.374 . S
C2460 C2457 1.499 . S
C2460 C2461 1.373 1_556 S
C2460 C2462 1.389 . S
C2461 H2440 0.950 . S
C2461 C2460 1.373 1_554 S
C2461 C2477 1.377 1_455 S
C2462 C2460 1.389 . S
C2462 C2463 1.524 . S
C2462 C2476 1.377 1_455 S
C2463 C2462 1.524 . S
C2463 C2464 1.397 . S
C2463 C2468 1.363 . S
C2464 H2441 0.948 . S
C2464 C2463 1.397 . S
C2464 C2465 1.334 . S
C2465 H2442 0.950 . S
C2465 C2464 1.334 . S
C2465 C2466 1.287 . S
C2466 C2465 1.287 . S
C2466 C2467 1.524 . S
C2466 H2485 0.913 . S
C2467 H2443 0.950 . S
C2467 C2466 1.524 . S
C2467 C2468 1.415 . S
C2468 H2444 0.950 . S
C2468 C2463 1.363 . S
C2468 C2467 1.415 . S
C2469 H2445 0.951 . S
C2469 C2470 1.366 1_554 S
C2469 C2471 1.388 . S
C2470 C2469 1.366 1_556 S
C2470 C2474 1.385 . S
C2471 H2446 0.951 . S
C2471 C2469 1.388 . S
C2471 C2472 1.366 1_554 S
C2472 C2471 1.366 1_556 S
C2472 C2473 1.414 . S
C2472 C2475 1.499 . S
C2473 H2447 0.950 . S
C2473 C2472 1.414 . S
C2473 C2474 1.374 . S
C2474 H2448 0.950 . S
C2474 C2470 1.385 . S
C2474 C2473 1.374 . S
C2475 C2472 1.499 . S
C2475 C2476 1.373 . S
C2475 C2477 1.389 1_556 S
C2476 H2449 0.950 . S
C2476 C2462 1.377 1_655 S
C2476 C2475 1.373 . S
C2477 C2461 1.377 1_655 S
C2477 C2475 1.389 1_554 S
C2477 C2478 1.524 . S
C2478 C2477 1.524 . S
C2478 C2479 1.397 . S
C2478 C2483 1.363 . S
C2479 H2450 0.950 . S
C2479 C2478 1.397 . S
C2479 C2480 1.334 . S
C2480 H2451 0.950 . S
C2480 C2479 1.334 . S
C2480 C2481 1.287 . S
C2481 C2480 1.287 . S
C2481 C2482 1.524 . S
C2481 H2484 0.999 . S
C2482 H2452 0.950 . S
C2482 C2481 1.524 . S
C2482 C2483 1.415 . S
C2483 H2453 0.950 . S
C2483 C2478 1.363 . S
C2483 C2482 1.415 . S
H2484 C2481 0.999 . S
H2485 C2466 0.913 . S
H2486 C2504 0.951 . S
H2487 C2506 0.951 . S
H2488 C2508 0.950 . S
H2489 C2509 0.950 . S
H2490 C2511 0.950 . S
H2491 C2514 0.950 . S
H2492 C2515 0.950 . S
H2493 C2517 0.950 . S
H2494 C2518 0.950 . S
H2495 C2519 0.951 . S
H2496 C2521 0.951 . S
H2497 C2523 0.950 . S
H2498 C2524 0.950 . S
H2499 C2526 0.950 . S
H2500 C2529 0.950 . S
H2501 C2530 0.950 . S
H2502 C2532 0.950 . S
H2503 C2533 0.950 . S
C2504 H2486 0.951 . S
C2504 C2505 1.366 . S
C2504 C2506 1.388 . S
C2505 C2504 1.366 . S
C2505 C2509 1.385 . S
C2506 H2487 0.951 . S
C2506 C2504 1.388 . S
C2506 C2507 1.366 . S
C2507 C2506 1.366 . S
C2507 C2508 1.414 . S
C2507 C2510 1.499 . S
C2508 H2488 0.950 . S
C2508 C2507 1.414 . S
C2508 C2509 1.374 . S
C2509 H2489 0.950 . S
C2509 C2505 1.385 . S
C2509 C2508 1.374 . S
C2510 C2507 1.499 . S
C2510 C2511 1.373 . S
C2510 C2512 1.389 1_455 S
C2511 H2490 0.950 . S
C2511 C2510 1.373 . S
C2511 C2527 1.377 . S
C2512 C2510 1.389 1_655 S
C2512 C2513 1.524 . S
C2512 C2526 1.377 . S
C2513 C2512 1.524 . S
C2513 C2514 1.397 1_655 S
C2513 C2518 1.363 . S
C2514 H2491 0.950 . S
C2514 C2513 1.397 1_455 S
C2514 C2515 1.334 . S
C2515 H2492 0.950 . S
C2515 C2514 1.334 . S
C2515 C2516 1.287 1_455 S
C2516 C2515 1.287 1_655 S
C2516 C2517 1.524 . S
C2516 H2535 0.913 . S
C2517 H2493 0.950 . S
C2517 C2516 1.524 . S
C2517 C2518 1.415 . S
C2518 H2494 0.950 . S
C2518 C2513 1.363 . S
C2518 C2517 1.415 . S
C2519 H2495 0.951 . S
C2519 C2520 1.366 . S
C2519 C2521 1.388 . S
C2520 C2519 1.366 . S
C2520 C2524 1.385 . S
C2521 H2496 0.951 . S
C2521 C2519 1.388 . S
C2521 C2522 1.366 . S
C2522 C2521 1.366 . S
C2522 C2523 1.414 . S
C2522 C2525 1.499 . S
C2523 H2497 0.950 . S
C2523 C2522 1.414 . S
C2523 C2524 1.374 . S
C2524 H2498 0.950 . S
C2524 C2520 1.385 . S
C2524 C2523 1.374 . S
C2525 C2522 1.499 . S
C2525 C2526 1.373 . S
C2525 C2527 1.389 1_655 S
C2526 H2499 0.950 . S
C2526 C2512 1.377 . S
C2526 C2525 1.373 . S
C2527 C2511 1.377 . S
C2527 C2525 1.389 1_455 S
C2527 C2528 1.524 . S
C2528 C2527 1.524 . S
C2528 C2529 1.397 1_455 S
C2528 C2533 1.363 . S
C2529 H2500 0.950 . S
C2529 C2528 1.397 1_655 S
C2529 C2530 1.334 . S
C2530 H2501 0.950 . S
C2530 C2529 1.334 . S
C2530 C2531 1.287 1_655 S
C2531 C2530 1.287 1_455 S
C2531 C2532 1.524 . S
C2531 H2534 0.999 . S
C2532 H2502 0.950 . S
C2532 C2531 1.524 . S
C2532 C2533 1.415 . S
C2533 H2503 0.950 . S
C2533 C2528 1.363 . S
C2533 C2532 1.415 . S
H2534 C2531 0.999 . S
H2535 C2516 0.913 . S
H2536 C2554 0.951 . S
H2537 C2556 0.951 . S
H2538 C2558 0.950 . S
H2539 C2559 0.950 . S
H2540 C2561 0.950 . S
H2541 C2564 0.950 . S
H2542 C2565 0.950 . S
H2543 C2567 0.950 . S
H2544 C2568 0.950 . S
H2545 C2569 0.951 . S
H2546 C2571 0.951 . S
H2547 C2573 0.950 . S
H2548 C2574 0.950 . S
H2549 C2576 0.950 . S
H2550 C2579 0.950 . S
H2551 C2580 0.950 . S
H2552 C2582 0.950 . S
H2553 C2583 0.950 . S
C2554 H2536 0.951 . S
C2554 C2555 1.366 . S
C2554 C2556 1.388 . S
C2555 C2554 1.366 . S
C2555 C2559 1.385 . S
C2556 H2537 0.951 . S
C2556 C2554 1.388 . S
C2556 C2557 1.366 . S
C2557 C2556 1.366 . S
C2557 C2558 1.414 . S
C2557 C2560 1.499 . S
C2558 H2538 0.950 . S
C2558 C2557 1.414 . S
C2558 C2559 1.374 . S
C2559 H2539 0.950 . S
C2559 C2555 1.385 . S
C2559 C2558 1.374 . S
C2560 C2557 1.499 . S
C2560 C2561 1.373 . S
C2560 C2562 1.389 . S
C2561 H2540 0.950 . S
C2561 C2560 1.373 . S
C2561 C2577 1.377 . S
C2562 C2560 1.389 . S
C2562 C2563 1.524 . S
C2562 C2576 1.377 . S
C2563 C2562 1.524 . S
C2563 C2564 1.397 . S
C2563 C2568 1.363 . S
C2564 H2541 0.950 . S
C2564 C2563 1.397 . S
C2564 C2565 1.334 . S
C2565 H2542 0.950 . S
C2565 C2564 1.334 . S
C2565 C2566 1.287 . S
C2566 C2565 1.287 . S
C2566 C2567 1.524 . S
C2566 H2585 0.913 . S
C2567 H2543 0.950 . S
C2567 C2566 1.524 . S
C2567 C2568 1.415 . S
C2568 H2544 0.950 . S
C2568 C2563 1.363 . S
C2568 C2567 1.415 . S
C2569 H2545 0.951 . S
C2569 C2570 1.366 . S
C2569 C2571 1.388 . S
C2570 C2569 1.366 . S
C2570 C2574 1.385 . S
C2571 H2546 0.951 . S
C2571 C2569 1.388 . S
C2571 C2572 1.366 . S
C2572 C2571 1.366 . S
C2572 C2573 1.414 . S
C2572 C2575 1.499 . S
C2573 H2547 0.950 . S
C2573 C2572 1.414 . S
C2573 C2574 1.374 . S
C2574 H2548 0.950 . S
C2574 C2570 1.385 . S
C2574 C2573 1.374 . S
C2575 C2572 1.499 . S
C2575 C2576 1.373 . S
C2575 C2577 1.389 . S
C2576 H2549 0.950 . S
C2576 C2562 1.377 . S
C2576 C2575 1.373 . S
C2577 C2561 1.377 . S
C2577 C2575 1.389 . S
C2577 C2578 1.524 . S
C2578 C2577 1.524 . S
C2578 C2579 1.397 . S
C2578 C2583 1.363 . S
C2579 H2550 0.950 . S
C2579 C2578 1.397 . S
C2579 C2580 1.334 . S
C2580 H2551 0.950 . S
C2580 C2579 1.334 . S
C2580 C2581 1.287 . S
C2581 C2580 1.287 . S
C2581 C2582 1.524 . S
C2581 H2584 0.999 . S
C2582 H2552 0.950 . S
C2582 C2581 1.524 . S
C2582 C2583 1.415 . S
C2583 H2553 0.950 . S
C2583 C2578 1.363 . S
C2583 C2582 1.415 . S
H2584 C2581 0.999 . S
H2585 C2566 0.913 . S
H2586 C2604 0.951 . S
H2587 C2606 0.951 . S
H2588 C2608 0.950 . S
H2589 C2609 0.950 . S
H2590 C2611 0.950 . S
H2591 C2614 0.950 . S
H2592 C2615 0.950 . S
H2593 C2617 0.950 . S
H2594 C2618 0.950 . S
H2595 C2619 0.951 . S
H2596 C2621 0.951 . S
H2597 C2623 0.950 . S
H2598 C2624 0.950 . S
H2599 C2626 0.950 . S
H2600 C2629 0.950 . S
H2601 C2630 0.950 . S
H2602 C2632 0.950 . S
H2603 C2633 0.950 . S
C2604 H2586 0.951 . S
C2604 C2605 1.366 . S
C2604 C2606 1.388 . S
C2605 C2604 1.366 . S
C2605 C2609 1.385 . S
C2606 H2587 0.951 . S
C2606 C2604 1.388 . S
C2606 C2607 1.366 . S
C2607 C2606 1.366 . S
C2607 C2608 1.414 . S
C2607 C2610 1.499 . S
C2608 H2588 0.950 . S
C2608 C2607 1.414 . S
C2608 C2609 1.374 . S
C2609 H2589 0.950 . S
C2609 C2605 1.385 . S
C2609 C2608 1.374 . S
C2610 C2607 1.499 . S
C2610 C2611 1.373 . S
C2610 C2612 1.389 . S
C2611 H2590 0.950 . S
C2611 C2610 1.373 . S
C2611 C2627 1.377 . S
C2612 C2610 1.389 . S
C2612 C2613 1.524 . S
C2612 C2626 1.377 . S
C2613 C2612 1.524 . S
C2613 C2614 1.397 . S
C2613 C2618 1.363 . S
C2614 H2591 0.950 . S
C2614 C2613 1.397 . S
C2614 C2615 1.334 . S
C2615 H2592 0.950 . S
C2615 C2614 1.334 . S
C2615 C2616 1.287 . S
C2616 C2615 1.287 . S
C2616 C2617 1.524 . S
C2616 H2635 0.913 . S
C2617 H2593 0.950 . S
C2617 C2616 1.524 . S
C2617 C2618 1.415 . S
C2618 H2594 0.950 . S
C2618 C2613 1.363 . S
C2618 C2617 1.415 . S
C2619 H2595 0.951 . S
C2619 C2620 1.366 . S
C2619 C2621 1.388 . S
C2620 C2619 1.366 . S
C2620 C2624 1.385 . S
C2621 H2596 0.951 . S
C2621 C2619 1.388 . S
C2621 C2622 1.366 . S
C2622 C2621 1.366 . S
C2622 C2623 1.414 . S
C2622 C2625 1.499 . S
C2623 H2597 0.950 . S
C2623 C2622 1.414 . S
C2623 C2624 1.374 . S
C2624 H2598 0.950 . S
C2624 C2620 1.385 . S
C2624 C2623 1.374 . S
C2625 C2622 1.499 . S
C2625 C2626 1.373 . S
C2625 C2627 1.389 . S
C2626 H2599 0.950 . S
C2626 C2612 1.377 . S
C2626 C2625 1.373 . S
C2627 C2611 1.377 . S
C2627 C2625 1.389 . S
C2627 C2628 1.524 . S
C2628 C2627 1.524 . S
C2628 C2629 1.397 . S
C2628 C2633 1.363 . S
C2629 H2600 0.950 . S
C2629 C2628 1.397 . S
C2629 C2630 1.334 . S
C2630 H2601 0.950 . S
C2630 C2629 1.334 . S
C2630 C2631 1.287 . S
C2631 C2630 1.287 . S
C2631 C2632 1.524 . S
C2631 H2634 0.999 . S
C2632 H2602 0.950 . S
C2632 C2631 1.524 . S
C2632 C2633 1.415 . S
C2633 H2603 0.950 . S
C2633 C2628 1.363 . S
C2633 C2632 1.415 . S
H2634 C2631 0.999 . S
H2635 C2616 0.913 . S
H2636 C2654 0.951 . S
H2637 C2656 0.951 . S
H2638 C2658 0.950 . S
H2639 C2659 0.950 . S
H2640 C2661 0.950 . S
H2641 C2664 0.950 . S
H2642 C2665 0.950 . S
H2643 C2667 0.950 . S
H2644 C2668 0.950 . S
H2645 C2669 0.951 . S
H2646 C2671 0.951 . S
H2647 C2673 0.950 . S
H2648 C2674 0.950 . S
H2649 C2676 0.950 . S
H2650 C2679 0.950 . S
H2651 C2680 0.950 . S
H2652 C2682 0.950 . S
H2653 C2683 0.950 . S
C2654 H2636 0.951 . S
C2654 C2655 1.366 . S
C2654 C2656 1.388 . S
C2655 C2654 1.366 . S
C2655 C2659 1.385 . S
C2656 H2637 0.951 . S
C2656 C2654 1.388 . S
C2656 C2657 1.366 . S
C2657 C2656 1.366 . S
C2657 C2658 1.414 . S
C2657 C2660 1.499 . S
C2658 H2638 0.950 . S
C2658 C2657 1.414 . S
C2658 C2659 1.374 . S
C2659 H2639 0.950 . S
C2659 C2655 1.385 . S
C2659 C2658 1.374 . S
C2660 C2657 1.499 . S
C2660 C2661 1.373 1_565 S
C2660 C2662 1.389 . S
C2661 H2640 0.950 . S
C2661 C2660 1.373 1_545 S
C2661 C2677 1.377 . S
C2662 C2660 1.389 . S
C2662 C2663 1.524 . S
C2662 C2676 1.377 . S
C2663 C2662 1.524 . S
C2663 C2664 1.397 . S
C2663 C2668 1.363 . S
C2664 H2641 0.950 . S
C2664 C2663 1.397 . S
C2664 C2665 1.334 . S
C2665 H2642 0.950 . S
C2665 C2664 1.334 . S
C2665 C2666 1.287 . S
C2666 C2665 1.287 . S
C2666 C2667 1.524 . S
C2666 H2685 0.913 . S
C2667 H2643 0.950 . S
C2667 C2666 1.524 . S
C2667 C2668 1.415 . S
C2668 H2644 0.950 . S
C2668 C2663 1.363 . S
C2668 C2667 1.415 . S
C2669 H2645 0.951 . S
C2669 C2670 1.366 . S
C2669 C2671 1.388 . S
C2670 C2669 1.366 . S
C2670 C2674 1.385 . S
C2671 H2646 0.951 . S
C2671 C2669 1.388 . S
C2671 C2672 1.366 . S
C2672 C2671 1.366 . S
C2672 C2673 1.414 . S
C2672 C2675 1.499 . S
C2673 H2647 0.950 . S
C2673 C2672 1.414 . S
C2673 C2674 1.374 . S
C2674 H2648 0.950 . S
C2674 C2670 1.385 . S
C2674 C2673 1.374 . S
C2675 C2672 1.499 . S
C2675 C2676 1.373 1_545 S
C2675 C2677 1.389 . S
C2676 H2649 0.950 . S
C2676 C2662 1.377 . S
C2676 C2675 1.373 1_565 S
C2677 C2661 1.377 . S
C2677 C2675 1.389 . S
C2677 C2678 1.524 . S
C2678 C2677 1.524 . S
C2678 C2679 1.397 . S
C2678 C2683 1.363 . S
C2679 H2650 0.950 . S
C2679 C2678 1.397 . S
C2679 C2680 1.334 . S
C2680 H2651 0.950 . S
C2680 C2679 1.334 . S
C2680 C2681 1.287 . S
C2681 C2680 1.287 . S
C2681 C2682 1.524 . S
C2681 H2684 0.999 . S
C2682 H2652 0.950 . S
C2682 C2681 1.524 . S
C2682 C2683 1.415 . S
C2683 H2653 0.950 . S
C2683 C2678 1.363 . S
C2683 C2682 1.415 . S
H2684 C2681 0.999 . S
H2685 C2666 0.913 . S
H2686 C2704 0.951 . S
H2687 C2706 0.951 . S
H2688 C2708 0.950 . S
H2689 C2709 0.950 . S
H2690 C2711 0.950 . S
H2691 C2714 0.950 . S
H2692 C2715 0.950 . S
H2693 C2717 0.950 . S
H2694 C2718 0.950 1_554 S
H2695 C2719 0.951 . S
H2696 C2721 0.951 . S
H2697 C2723 0.950 . S
H2698 C2724 0.950 . S
H2699 C2726 0.950 . S
H2700 C2729 0.950 . S
H2701 C2730 0.950 . S
H2702 C2732 0.950 . S
H2703 C2733 0.950 1_556 S
C2704 H2686 0.951 . S
C2704 C2705 1.366 . S
C2704 C2706 1.388 . S
C2705 C2704 1.366 . S
C2705 C2709 1.385 1_554 S
C2706 H2687 0.951 . S
C2706 C2704 1.388 . S
C2706 C2707 1.392 . S
C2707 C2706 1.392 . S
C2707 C2708 1.392 1_554 S
C2707 C2710 1.498 . S
C2708 H2688 0.950 . S
C2708 C2707 1.392 1_556 S
C2708 C2709 1.374 . S
C2709 H2689 0.950 . S
C2709 C2705 1.385 1_556 S
C2709 C2708 1.374 . S
C2710 C2707 1.498 . S
C2710 C2711 1.375 . S
C2710 C2712 1.388 1_554 S
C2711 H2690 0.950 . S
C2711 C2710 1.375 . S
C2711 C2727 1.377 . S
C2712 C2710 1.388 1_556 S
C2712 C2713 1.524 . S
C2712 C2726 1.377 . S
C2713 C2712 1.524 . S
C2713 C2714 1.397 . S
C2713 C2718 1.363 . S
C2714 H2691 0.950 . S
C2714 C2713 1.397 . S
C2714 C2715 1.334 . S
C2715 H2692 0.950 . S
C2715 C2714 1.334 . S
C2715 C2716 1.287 . S
C2716 C2715 1.287 . S
C2716 C2717 1.524 . S
C2716 H2735 0.913 . S
C2717 H2693 0.950 . S
C2717 C2716 1.524 . S
C2717 C2718 1.415 . S
C2718 H2694 0.950 1_556 S
C2718 C2713 1.363 . S
C2718 C2717 1.415 . S
C2719 H2695 0.951 . S
C2719 C2720 1.362 1_556 S
C2719 C2721 1.388 . S
C2720 C2719 1.362 1_554 S
C2720 C2724 1.388 . S
C2721 H2696 0.951 . S
C2721 C2719 1.388 . S
C2721 C2722 1.366 1_556 S
C2722 C2721 1.366 1_554 S
C2722 C2723 1.414 . S
C2722 C2725 1.499 . S
C2723 H2697 0.950 . S
C2723 C2722 1.414 . S
C2723 C2724 1.374 . S
C2724 H2698 0.950 . S
C2724 C2720 1.388 . S
C2724 C2723 1.374 . S
C2725 C2722 1.499 . S
C2725 C2726 1.373 1_554 S
C2725 C2727 1.389 . S
C2726 H2699 0.950 . S
C2726 C2712 1.377 . S
C2726 C2725 1.373 1_556 S
C2727 C2711 1.377 . S
C2727 C2725 1.389 . S
C2727 C2728 1.524 . S
C2728 C2727 1.524 . S
C2728 C2729 1.397 . S
C2728 C2733 1.363 . S
C2729 H2700 0.950 . S
C2729 C2728 1.397 . S
C2729 C2730 1.334 . S
C2730 H2701 0.950 . S
C2730 C2729 1.334 . S
C2730 C2731 1.287 . S
C2731 C2730 1.287 . S
C2731 C2732 1.524 . S
C2731 H2734 0.999 . S
C2732 H2702 0.950 . S
C2732 C2731 1.524 . S
C2732 C2733 1.415 . S
C2733 H2703 0.950 1_554 S
C2733 C2728 1.363 . S
C2733 C2732 1.415 . S
H2734 C2731 0.999 . S
H2735 C2716 0.913 . S
C355 C247 0.552 . S
C370 C8 0.525 . S
C405 C22 0.554 . S
C420 C233 0.620 . S
C455 C36 0.827 . S
C470 C275 0.823 . S
C505 C50 0.841 . S
C520 C261 0.817 . S
C555 C64 0.530 . S
C570 C303 0.554 . S
C605 C78 0.894 . S
C620 C317 0.890 . S
C655 C289 0.623 . S
C670 C92 0.548 . S
C705 C163 0.842 . S
C720 C106 0.866 . S
C755 C120 0.529 . S
C770 C51 0.553 . S
C805 C23 0.884 . S
C820 C134 0.897 . S
C855 C148 1.196 . S
C870 C9 1.176 . S
C905 C162 0.866 . S
C920 C205 0.842 . S
C955 C79 1.104 . S
C970 C176 1.167 . S
C1005 C65 1.172 . S
C1020 C190 1.198 . S
C1055 C204 0.867 . S
C1070 C107 0.843 . S
C1105 C218 0.894 . S
C1120 C93 0.889 . S
C1155 C135 1.102 . S
C1170 C232 1.166 . S
C1205 C149 0.821 . S
C1220 C246 0.836 . S
C1255 C121 1.172 . S
C1270 C260 1.199 . S
C1305 C274 0.827 . S
C1320 C331 0.823 . S
C1355 C219 1.104 . S
C1370 C288 1.167 . S
C1405 C302 0.840 . S
C1420 C191 0.816 . S
C1455 C177 0.622 . S
C1470 C316 0.549 . S
C1505 C330 0.827 . S
C1520 C37 0.822 . S
C1555 C6 1.680 . S
C1570 C20 1.656 . S
C1605 C48 1.491 . S
C1620 C34 1.505 . S
C1655 C62 1.680 . S
C1670 C90 1.656 . S
C1705 C76 2.087 . S
C1720 C104 2.062 . S
C1755 C314 1.657 . S
C1770 C118 1.680 . S
C1805 C132 2.087 . S
C1820 C160 2.062 . S
C1855 C286 1.951 . S
C1870 C146 1.973 . S
C1905 C188 1.973 . S
C1920 C174 1.950 . S
C1955 C202 2.062 . S
C1970 C216 2.087 . S
C2005 C258 1.973 . S
C2020 C230 1.950 . S
C2055 C244 1.490 . S
C2070 C272 1.505 . S
C2105 C328 1.507 . S
C2120 C300 1.490 . S
C2155 C35 1.115 1_655 S
C2170 C7 1.123 . S
C2205 C21 1.492 1_455 S
C2220 C49 1.497 1_455 S
C2255 C273 1.114 1_565 S
C2270 C63 1.122 . S
C2305 C77 1.420 . S
C2320 C259 1.424 . S
C2355 C91 1.491 1_545 S
C2370 C245 1.496 1_545 S
C2405 C231 1.814 . S
C2420 C105 1.810 . S
C2455 C119 1.121 . S
C2470 C329 1.115 1_556 S
C2505 C133 1.421 . S
C2520 C147 1.424 . S
C2555 C287 1.813 . S
C2570 C161 1.810 . S
C2605 C175 1.814 . S
C2620 C203 1.810 . S
C2655 C189 1.424 . S
C2670 C217 1.420 . S
C2705 C315 1.492 1_554 S
C2720 C301 1.497 1_554 S
