# Generated by pormake.
# Topology mok, (4)-cn, num edge types: 1
# Building blocks:
#     Node 0, Type 0, BuildingBlock: CEKHIL_clean_sbu_0, # of connection points: 4
#     Node 1, Type 0, BuildingBlock: CEKHIL_clean_sbu_0, # of connection points: 4
#     Node 2, Type 0, BuildingBlock: CEKHIL_clean_sbu_0, # of connection points: 4
#     Node 3, Type 0, BuildingBlock: CEKHIL_clean_sbu_0, # of connection points: 4
#     Node 4, Type 0, BuildingBlock: CEKHIL_clean_sbu_0, # of connection points: 4
#     Node 5, Type 0, BuildingBlock: CEKHIL_clean_sbu_0, # of connection points: 4
#     Node 6, Type 0, BuildingBlock: CEKHIL_clean_sbu_0, # of connection points: 4
#     Node 7, Type 0, BuildingBlock: CEKHIL_clean_sbu_0, # of connection points: 4
#     Edge 8, Type (0, 0), BuildingBlock: CIFDUS_clean_linker_0, # of connection points: 2
#     Edge 9, Type (0, 0), BuildingBlock: CIFDUS_clean_linker_0, # of connection points: 2
#     Edge 10, Type (0, 0), BuildingBlock: CIFDUS_clean_linker_0, # of connection points: 2
#     Edge 11, Type (0, 0), BuildingBlock: CIFDUS_clean_linker_0, # of connection points: 2
#     Edge 12, Type (0, 0), BuildingBlock: CIFDUS_clean_linker_0, # of connection points: 2
#     Edge 13, Type (0, 0), BuildingBlock: CIFDUS_clean_linker_0, # of connection points: 2
#     Edge 14, Type (0, 0), BuildingBlock: CIFDUS_clean_linker_0, # of connection points: 2
#     Edge 15, Type (0, 0), BuildingBlock: CIFDUS_clean_linker_0, # of connection points: 2
#     Edge 16, Type (0, 0), BuildingBlock: CIFDUS_clean_linker_0, # of connection points: 2
#     Edge 17, Type (0, 0), BuildingBlock: CIFDUS_clean_linker_0, # of connection points: 2
#     Edge 18, Type (0, 0), BuildingBlock: CIFDUS_clean_linker_0, # of connection points: 2
#     Edge 19, Type (0, 0), BuildingBlock: CIFDUS_clean_linker_0, # of connection points: 2
#     Edge 20, Type (0, 0), BuildingBlock: CIFDUS_clean_linker_0, # of connection points: 2
#     Edge 21, Type (0, 0), BuildingBlock: CIFDUS_clean_linker_0, # of connection points: 2
#     Edge 22, Type (0, 0), BuildingBlock: CIFDUS_clean_linker_0, # of connection points: 2
#     Edge 23, Type (0, 0), BuildingBlock: CIFDUS_clean_linker_0, # of connection points: 2
# Relax obj value: 0.017
# Max RMSD: 0.041
# Mean RMSD: 0.041
data_MOF--net-mok--node1-CEKHIL_clean_sbu_0--edge1-CIFDUS_clean_linker_0
_symmetry_space_group_name_H-M    P1
_symmetry_Int_Tables_number       1
_symmetry_cell_setting            triclinic
loop_
_symmetry_equiv_pos_as_xyz
'x, y, z'
_cell_length_a     46.420795
_cell_length_b     13.437945
_cell_length_c     23.58757
_cell_angle_alpha  90.003248
_cell_angle_beta   90.095305
_cell_angle_gamma 89.798463
loop_
_atom_site_label
_atom_site_type_symbol
_atom_site_fract_x
_atom_site_fract_y
_atom_site_fract_z
_atom_type_partial_charge
Co0 Co 0.62708 0.2792 0.01618 0.0
O1 O 0.58622 0.24985 0.01609 0.0
O2 O 0.62013 0.14015 0.99619 0.0
C3 C 0.62703 0.36284 0.09916 0.0
O4 O 0.6717 0.28259 0.01371 0.0
Co5 Co 0.64799 0.50026 0.01453 0.0
O6 O 0.68675 0.44088 0.02434 0.0
C7 C 0.6219 0.41017 0.91277 0.0
C8 C 0.59276 0.15928 0.00217 0.0
C9 C 0.69198 0.34813 0.01907 0.0
O10 O 0.62428 0.32247 0.93449 0.0
O11 O 0.62722 0.48998 0.94044 0.0
O12 O 0.6284 0.26611 0.09908 0.0
O13 O 0.62355 0.40354 0.05034 0.0
Co14 Co 0.41308 0.71613 0.01211 0.0
O15 O 0.45467 0.73377 0.0122 0.0
O16 O 0.42356 0.84456 0.98017 0.0
C17 C 0.41003 0.66143 0.10292 0.0
O18 O 0.36881 0.72854 0.00788 0.0
Co19 Co 0.38491 0.51012 0.02935 0.0
O20 O 0.34802 0.5846 0.03368 0.0
C21 C 0.41197 0.55724 0.9194 0.0
C22 C 0.45027 0.82164 0.99104 0.0
C23 C 0.34627 0.67591 0.0195 0.0
O24 O 0.41483 0.64899 0.93477 0.0
O25 O 0.40298 0.48934 0.95302 0.0
O26 O 0.4115 0.75588 0.09175 0.0
O27 O 0.41274 0.60314 0.05966 0.0
Co28 Co 0.61708 0.70038 0.48666 0.0
O29 O 0.57575 0.71712 0.48802 0.0
O30 O 0.60628 0.83718 0.50771 0.0
C31 C 0.61838 0.61813 0.40322 0.0
O32 O 0.66176 0.70766 0.48757 0.0
Co33 Co 0.64248 0.48366 0.48634 0.0
O34 O 0.67866 0.55382 0.46755 0.0
C35 C 0.61662 0.56751 0.59018 0.0
C36 C 0.57954 0.80903 0.50244 0.0
C37 C 0.68265 0.64663 0.4756 0.0
O38 O 0.61624 0.65544 0.56827 0.0
O39 O 0.62352 0.48927 0.56228 0.0
O40 O 0.61732 0.71489 0.40363 0.0
O41 O 0.61619 0.57637 0.45195 0.0
Co42 Co 0.41441 0.32012 0.49059 0.0
O43 O 0.45611 0.31345 0.48953 0.0
O44 O 0.42841 0.19365 0.52178 0.0
C45 C 0.40986 0.37457 0.39982 0.0
O46 O 0.37032 0.2991 0.49563 0.0
Co47 Co 0.38306 0.52197 0.47434 0.0
O48 O 0.34754 0.4409 0.47092 0.0
C49 C 0.41149 0.47834 0.58359 0.0
C50 C 0.45434 0.22462 0.5105 0.0
C51 C 0.34703 0.34925 0.48477 0.0
O52 O 0.4154 0.38705 0.56808 0.0
O53 O 0.40146 0.54515 0.55018 0.0
O54 O 0.41311 0.28055 0.41083 0.0
O55 O 0.41173 0.43287 0.44319 0.0
Co56 Co 0.11234 0.8094 0.01369 0.0
O57 O 0.07069 0.79979 0.01366 0.0
O58 O 0.09969 0.6824 0.9819 0.0
C59 C 0.11616 0.86401 0.10456 0.0
O60 O 0.15648 0.79072 0.00958 0.0
Co61 Co 0.14232 0.01292 0.03064 0.0
O62 O 0.17832 0.93349 0.03464 0.0
C63 C 0.1148 0.96782 0.9208 0.0
C64 C 0.07343 0.71131 0.99244 0.0
C65 C 0.1794 0.84185 0.02083 0.0
O66 O 0.11138 0.87637 0.93624 0.0
O67 O 0.12419 0.0352 0.95441 0.0
O68 O 0.11348 0.76984 0.0935 0.0
O69 O 0.11407 0.92222 0.06116 0.0
Co70 Co 0.91711 0.17126 0.01495 0.0
O71 O 0.95813 0.19394 0.01571 0.0
O72 O 0.92629 0.30601 0.98832 0.0
C73 C 0.9152 0.10103 0.1012 0.0
O74 O 0.87242 0.17216 0.011 0.0
Co75 Co 0.89472 0.9514 0.024 0.0
O76 O 0.85692 0.01799 0.03321 0.0
C77 C 0.92373 0.02186 0.9209 0.0
C78 C 0.95326 0.28287 0.99689 0.0
C79 C 0.85196 0.10941 0.02213 0.0
O80 O 0.92046 0.11335 0.93639 0.0
O81 O 0.91803 0.94784 0.95304 0.0
O82 O 0.91492 0.19761 0.09683 0.0
O83 O 0.919 0.05322 0.05483 0.0
Co84 Co 0.11366 0.20572 0.49238 0.0
O85 O 0.07195 0.21318 0.49231 0.0
O86 O 0.10011 0.33228 0.52412 0.0
C87 C 0.11759 0.15121 0.40149 0.0
O88 O 0.15781 0.22602 0.49662 0.0
Co89 Co 0.14471 0.00349 0.47555 0.0
O90 O 0.18035 0.08389 0.47183 0.0
C91 C 0.11676 0.04713 0.58507 0.0
C92 C 0.07404 0.30169 0.51366 0.0
C93 C 0.18101 0.17558 0.48558 0.0
O94 O 0.11305 0.13861 0.56977 0.0
O95 O 0.1265 0.98022 0.55146 0.0
O96 O 0.1145 0.24529 0.41256 0.0
O97 O 0.11592 0.09296 0.4449 0.0
Co98 Co 0.90921 0.81781 0.49871 0.0
O99 O 0.95059 0.80269 0.49442 0.0
O100 O 0.92149 0.68568 0.52529 0.0
C101 C 0.90397 0.88539 0.41223 0.0
O102 O 0.86476 0.8082 0.50668 0.0
Co103 Co 0.8824 0.03247 0.49111 0.0
O104 O 0.8453 0.96091 0.49272 0.0
C105 C 0.91603 0.97052 0.59062 0.0
C106 C 0.94777 0.71333 0.5141 0.0
C107 C 0.84281 0.86784 0.50187 0.0
O108 O 0.9135 0.87816 0.57648 0.0
O109 O 0.90832 0.04243 0.5584 0.0
O110 O 0.9057 0.7891 0.41739 0.0
O111 O 0.90778 0.93532 0.45792 0.0
H112 H 0.82833 0.2978 0.00916 0.0
H113 H 0.8049 0.99007 0.03415 0.0
H114 H 0.75429 0.03464 0.0346 0.0
H115 H 0.71571 0.16042 0.0287 0.0
H116 H 0.73876 0.4686 0.00542 0.0
H117 H 0.78956 0.42414 0.00342 0.0
C118 C 0.81219 0.24046 0.01459 0.0
C119 C 0.8209 0.14065 0.02158 0.0
C120 C 0.7826 0.26645 0.01518 0.0
C121 C 0.79931 0.06779 0.02871 0.0
C122 C 0.77009 0.093 0.02896 0.0
C123 C 0.7318 0.21786 0.02305 0.0
C124 C 0.72306 0.31775 0.01742 0.0
C125 C 0.76136 0.19206 0.02232 0.0
C126 C 0.74453 0.39092 0.01033 0.0
C127 C 0.7738 0.36567 0.00904 0.0
H128 H 0.23164 0.93409 0.0162 0.0
H129 H 0.19304 0.64233 0.01816 0.0
H130 H 0.24103 0.56596 0.01732 0.0
H131 H 0.29397 0.58207 0.01844 0.0
H132 H 0.33228 0.87432 0.01403 0.0
H133 H 0.28433 0.95011 0.0133 0.0
C134 C 0.2336 0.85366 0.01644 0.0
C135 C 0.20853 0.79422 0.01768 0.0
C136 C 0.26127 0.81025 0.01558 0.0
C137 C 0.21177 0.69014 0.01722 0.0
C138 C 0.23927 0.64639 0.01689 0.0
C139 C 0.29193 0.66244 0.01728 0.0
C140 C 0.31696 0.72223 0.01666 0.0
C141 C 0.26419 0.70571 0.01647 0.0
C142 C 0.31361 0.8262 0.01452 0.0
C143 C 0.28612 0.86969 0.01423 0.0
H144 H 0.81782 0.7057 0.45135 0.0
H145 H 0.79993 0.95183 0.56299 0.0
H146 H 0.74874 0.91008 0.56333 0.0
H147 H 0.7083 0.80544 0.52996 0.0
H148 H 0.72634 0.56201 0.416 0.0
H149 H 0.77744 0.60161 0.41775 0.0
C150 C 0.80275 0.74878 0.47655 0.0
C151 C 0.81278 0.83086 0.5077 0.0
C152 C 0.77302 0.72605 0.47527 0.0
C153 C 0.79281 0.88767 0.53899 0.0
C154 C 0.76344 0.86431 0.5389 0.0
C155 C 0.72336 0.76192 0.50501 0.0
C156 C 0.71323 0.68087 0.47291 0.0
C157 C 0.75313 0.78444 0.50656 0.0
C158 C 0.73333 0.62468 0.44137 0.0
C159 C 0.76273 0.64695 0.44243 0.0
H160 H 0.23386 0.08504 0.48857 0.0
H161 H 0.19373 0.37537 0.48989 0.0
H162 H 0.2413 0.45343 0.49066 0.0
H163 H 0.29419 0.43956 0.48839 0.0
H164 H 0.33437 0.14932 0.48922 0.0
H165 H 0.2868 0.07117 0.49039 0.0
C166 C 0.23539 0.16553 0.48906 0.0
C167 C 0.20997 0.22407 0.48875 0.0
C168 C 0.26288 0.20998 0.48984 0.0
C169 C 0.21269 0.3282 0.4901 0.0
C170 C 0.23997 0.37293 0.4904 0.0
C171 C 0.29268 0.35907 0.48886 0.0
C172 C 0.31811 0.30058 0.48829 0.0
C173 C 0.2652 0.3146 0.48985 0.0
C174 C 0.3154 0.19644 0.48962 0.0
C175 C 0.28812 0.15167 0.49015 0.0
H176 H 0.62882 0.29901 0.20853 0.0
H177 H 0.6282 0.56468 0.10576 0.0
H178 H 0.62677 0.66796 0.19058 0.0
H179 H 0.62315 0.68318 0.29421 0.0
H180 H 0.6228 0.41703 0.39664 0.0
H181 H 0.62725 0.31436 0.31213 0.0
C182 C 0.62864 0.37946 0.2048 0.0
C183 C 0.6285 0.42393 0.15103 0.0
C184 C 0.62748 0.43869 0.2538 0.0
C185 C 0.62823 0.52839 0.14676 0.0
C186 C 0.62736 0.58773 0.19525 0.0
C187 C 0.62422 0.6028 0.29794 0.0
C188 C 0.62253 0.558 0.35153 0.0
C189 C 0.62656 0.54373 0.24901 0.0
C190 C 0.62399 0.45363 0.35582 0.0
C191 C 0.62652 0.39459 0.30749 0.0
H192 H 0.40731 0.46808 0.13728 0.0
H193 H 0.4061 0.76931 0.20059 0.0
H194 H 0.40439 0.70743 0.2979 0.0
H195 H 0.4057 0.56772 0.3654 0.0
H196 H 0.40743 0.26653 0.30206 0.0
H197 H 0.40627 0.32833 0.20469 0.0
C198 C 0.40648 0.52019 0.17235 0.0
C199 C 0.407 0.62321 0.1616 0.0
C200 C 0.40567 0.48406 0.22834 0.0
C201 C 0.40581 0.68965 0.20759 0.0
C202 C 0.40487 0.65432 0.26333 0.0
C203 C 0.40559 0.51559 0.3303 0.0
C204 C 0.4068 0.41263 0.34107 0.0
C205 C 0.40516 0.55169 0.27427 0.0
C206 C 0.40659 0.34615 0.29504 0.0
C207 C 0.40598 0.38144 0.23927 0.0
H208 H 0.41719 0.67778 0.82612 0.0
H209 H 0.41849 0.36927 0.87715 0.0
H210 H 0.42105 0.31743 0.77839 0.0
H211 H 0.41859 0.35842 0.67677 0.0
H212 H 0.41608 0.66688 0.62578 0.0
H213 H 0.41861 0.71898 0.7245 0.0
C214 C 0.41846 0.59927 0.81574 0.0
C215 C 0.41732 0.52789 0.85935 0.0
C216 C 0.41949 0.5694 0.75845 0.0
C217 C 0.41898 0.4263 0.84472 0.0
C218 C 0.42045 0.39627 0.78805 0.0
C219 C 0.41902 0.43702 0.68715 0.0
C220 C 0.41682 0.50823 0.64357 0.0
C221 C 0.42003 0.467 0.74443 0.0
C222 C 0.4174 0.60994 0.65819 0.0
C223 C 0.41885 0.64013 0.71483 0.0
H224 H 0.61161 0.58193 0.85559 0.0
H225 H 0.61624 0.26308 0.83293 0.0
H226 H 0.61143 0.28451 0.73055 0.0
H227 H 0.61146 0.39388 0.64794 0.0
H228 H 0.60927 0.71304 0.67048 0.0
H229 H 0.60722 0.69077 0.77314 0.0
C230 C 0.61135 0.51676 0.82847 0.0
C231 C 0.61488 0.42102 0.85191 0.0
C232 C 0.60919 0.52968 0.76976 0.0
C233 C 0.61389 0.33763 0.81605 0.0
C234 C 0.61122 0.34985 0.7575 0.0
C235 C 0.6103 0.45888 0.67511 0.0
C236 C 0.6111 0.55515 0.65149 0.0
C237 C 0.60976 0.44563 0.73392 0.0
C238 C 0.60898 0.63816 0.68747 0.0
C239 C 0.60791 0.62548 0.74618 0.0
H240 H 0.11979 0.05729 0.13888 0.0
H241 H 0.11977 0.75614 0.2023 0.0
H242 H 0.12177 0.81805 0.2996 0.0
H243 H 0.12101 0.95788 0.36706 0.0
H244 H 0.12034 0.25905 0.30366 0.0
H245 H 0.1213 0.1971 0.2063 0.0
C246 C 0.12043 0.00519 0.17397 0.0
C247 C 0.11948 0.90219 0.16324 0.0
C248 C 0.12136 0.04137 0.22997 0.0
C249 C 0.12039 0.83578 0.20927 0.0
C250 C 0.1215 0.87114 0.26501 0.0
C251 C 0.1213 0.00998 0.33195 0.0
C252 C 0.12046 0.113 0.34272 0.0
C253 C 0.12161 0.97379 0.27593 0.0
C254 C 0.12089 0.1794 0.29666 0.0
C255 C 0.12139 0.14402 0.24089 0.0
H256 H 0.90675 0.8059 0.30681 0.0
H257 H 0.89304 0.08193 0.39645 0.0
H258 H 0.89368 0.17377 0.30757 0.0
H259 H 0.90232 0.17755 0.20493 0.0
H260 H 0.91719 0.90135 0.11596 0.0
H261 H 0.91189 0.80836 0.20361 0.0
C262 C 0.90344 0.88586 0.30667 0.0
C263 C 0.90011 0.93703 0.3579 0.0
C264 C 0.90439 0.93866 0.25552 0.0
C265 C 0.89585 0.04077 0.35738 0.0
C266 C 0.89631 0.0936 0.30661 0.0
C267 C 0.90421 0.09707 0.20485 0.0
C268 C 0.91038 0.04669 0.15435 0.0
C269 C 0.90131 0.04364 0.25555 0.0
C270 C 0.91257 0.94218 0.1545 0.0
C271 C 0.90954 0.88863 0.20458 0.0
H272 H 0.93015 0.84465 0.67684 0.0
H273 H 0.92349 0.15679 0.63441 0.0
H274 H 0.92978 0.20145 0.73337 0.0
H275 H 0.92943 0.15137 0.83297 0.0
H276 H 0.93543 0.83921 0.87557 0.0
H277 H 0.93767 0.79602 0.77568 0.0
C278 C 0.93054 0.92246 0.68906 0.0
C279 C 0.92543 0.99677 0.64849 0.0
C280 C 0.93378 0.94805 0.74626 0.0
C281 C 0.92667 0.09751 0.66493 0.0
C282 C 0.93027 0.12347 0.72161 0.0
C283 C 0.93177 0.07407 0.8205 0.0
C284 C 0.93132 0.99876 0.86162 0.0
C285 C 0.9326 0.04921 0.76287 0.0
C286 C 0.93497 0.89891 0.84473 0.0
C287 C 0.93625 0.87382 0.78753 0.0
H288 H 0.11012 0.84736 0.82742 0.0
H289 H 0.10838 0.15578 0.87855 0.0
H290 H 0.10633 0.20773 0.77972 0.0
H291 H 0.10933 0.16683 0.67818 0.0
H292 H 0.11235 0.85842 0.62714 0.0
H293 H 0.10935 0.80622 0.72576 0.0
C294 C 0.10885 0.92586 0.81703 0.0
C295 C 0.10971 0.99723 0.86068 0.0
C296 C 0.10816 0.95577 0.75973 0.0
C297 C 0.10809 0.09881 0.84606 0.0
C298 C 0.10693 0.12889 0.78937 0.0
C299 C 0.10893 0.08821 0.68851 0.0
C300 C 0.11139 0.01706 0.64496 0.0
C301 C 0.10763 0.05818 0.74574 0.0
C302 C 0.11084 0.91533 0.65953 0.0
C303 C 0.10911 0.88508 0.71611 0.0
H304 H 0.50854 0.7877 0.99695 0.0
H305 H 0.44586 0.02159 0.97219 0.0
H306 H 0.48424 0.14548 0.97214 0.0
H307 H 0.5354 0.18912 0.98418 0.0
H308 H 0.5986 0.95605 0.00494 0.0
H309 H 0.56042 0.83065 0.00124 0.0
C310 C 0.50329 0.86569 0.99098 0.0
C311 C 0.47418 0.89499 0.98487 0.0
C312 C 0.52562 0.93699 0.99061 0.0
C313 C 0.46793 0.99651 0.97689 0.0
C314 C 0.48992 0.06767 0.9771 0.0
C315 C 0.54087 0.11082 0.98759 0.0
C316 C 0.5699 0.08228 0.99534 0.0
C317 C 0.5188 0.03903 0.98475 0.0
C318 C 0.57653 0.98032 0.99898 0.0
C319 C 0.55464 0.90851 0.99703 0.0
H320 H 0.57733 0.01465 0.50664 0.0
H321 H 0.524 0.75319 0.51795 0.0
H322 H 0.48107 0.85681 0.52598 0.0
H323 H 0.45774 0.02197 0.52419 0.0
H324 H 0.51047 0.284 0.50873 0.0
H325 H 0.55396 0.18111 0.50845 0.0
C326 C 0.55635 0.98049 0.51143 0.0
C327 C 0.5541 0.87586 0.51144 0.0
C328 C 0.53135 0.04101 0.51512 0.0
C329 C 0.52657 0.83328 0.51739 0.0
C330 C 0.50185 0.89262 0.52205 0.0
C331 C 0.47876 0.05666 0.52155 0.0
C332 C 0.48066 0.16089 0.51655 0.0
C333 C 0.50385 0.99662 0.52018 0.0
C334 C 0.5082 0.20408 0.51256 0.0
C335 C 0.53319 0.14513 0.51227 0.0
H336 H 0.07236 0.50923 0.97702 0.0
H337 H 0.01664 0.76499 0.99315 0.0
H338 H 0.97433 0.65735 0.99144 0.0
H339 H 0.9529 0.48824 0.99206 0.0
H340 H 1.00927 0.23319 0.9808 0.0
H341 H 0.05102 0.34177 0.97358 0.0
C342 C 0.05095 0.54155 0.97938 0.0
C343 C 0.04784 0.64532 0.98521 0.0
C344 C 0.02658 0.47878 0.97967 0.0
C345 C 0.01982 0.68547 0.98875 0.0
C346 C 0.99551 0.6238 0.98788 0.0
C347 C 0.97428 0.45663 0.9873 0.0
C348 C 0.9778 0.35238 0.98717 0.0
C349 C 0.99857 0.52 0.98436 0.0
C350 C 1.0058 0.31295 0.98143 0.0
C351 C 0.02981 0.37512 0.97727 0.0
H352 H 0.07062 0.50482 0.52504 0.0
H353 H 0.01813 0.24103 0.51887 0.0
H354 H 0.97447 0.34284 0.52271 0.0
H355 H 0.95069 0.50851 0.52174 0.0
H356 H 1.00353 0.77183 0.52256 0.0
H357 H 0.04697 0.66965 0.52718 0.0
C358 C 0.04964 0.46958 0.52531 0.0
C359 C 0.04782 0.36511 0.52175 0.0
C360 C 0.02441 0.529 0.52615 0.0
C361 C 0.02032 0.32113 0.52147 0.0
C362 C 0.99523 0.37946 0.52359 0.0
C363 C 0.97169 0.54342 0.5236 0.0
C364 C 0.97366 0.64806 0.52172 0.0
C365 C 0.99692 0.48371 0.52502 0.0
C366 C 1.0012 0.69167 0.52364 0.0
C367 C 0.02619 0.63315 0.5263 0.0
loop_
_geom_bond_atom_site_label_1
_geom_bond_atom_site_label_2
_geom_bond_distance
_geom_bond_site_symmetry_2
_ccdc_geom_bond_type
Co0 O1 2.216 . S
Co0 O2 2.091 . S
Co0 O4 2.004 . S
Co0 O10 2.021 1_554 S
Co0 O12 2.137 . S
Co0 O13 2.244 . S
O1 Co0 2.216 . S
O1 C8 1.247 . S
O2 Co0 2.091 . S
O2 C8 1.261 . S
C3 O12 1.247 . S
C3 O13 1.272 . S
O4 Co0 2.004 . S
O4 C9 1.259 . S
Co5 O6 2.060 1_554 S
Co5 O11 2.052 1_554 S
Co5 O13 2.135 . S
O6 Co5 2.060 1_556 S
O6 C9 1.233 1_556 S
C7 O10 1.238 . S
C7 O11 1.241 . S
C8 O1 1.247 . S
C8 O2 1.261 . S
C9 O4 1.259 . S
C9 O6 1.233 1_554 S
O10 Co0 2.021 1_556 S
O10 C7 1.238 . S
O11 Co5 2.052 1_556 S
O11 C7 1.241 . S
O12 Co0 2.137 . S
O12 C3 1.247 . S
O13 Co0 2.244 . S
O13 C3 1.272 . S
O13 Co5 2.135 . S
Co14 O15 2.216 . S
Co14 O16 2.091 . S
Co14 O18 2.004 . S
Co14 O24 2.021 1_554 S
Co14 O26 2.137 . S
Co14 O27 2.244 . S
O15 Co14 2.216 . S
O15 C22 1.247 . S
O16 Co14 2.091 . S
O16 C22 1.261 . S
C17 O26 1.247 . S
C17 O27 1.272 . S
O18 Co14 2.004 . S
O18 C23 1.259 . S
Co19 O20 2.060 1_554 S
Co19 O25 2.052 1_554 S
Co19 O27 2.135 . S
O20 Co19 2.060 1_556 S
O20 C23 1.233 1_556 S
C21 O24 1.238 . S
C21 O25 1.241 . S
C22 O15 1.247 . S
C22 O16 1.261 . S
C23 O18 1.259 . S
C23 O20 1.233 1_554 S
O24 Co14 2.021 1_556 S
O24 C21 1.238 . S
O25 Co19 2.052 1_556 S
O25 C21 1.241 . S
O26 Co14 2.137 . S
O26 C17 1.247 . S
O27 Co14 2.244 . S
O27 C17 1.272 . S
O27 Co19 2.135 . S
Co28 O29 2.216 . S
Co28 O30 2.091 . S
Co28 O32 2.004 . S
Co28 O38 2.021 . S
Co28 O40 2.137 . S
Co28 O41 2.244 . S
O29 Co28 2.216 . S
O29 C36 1.247 . S
O30 Co28 2.091 . S
O30 C36 1.261 . S
C31 O40 1.247 . S
C31 O41 1.272 . S
O32 Co28 2.004 . S
O32 C37 1.259 . S
Co33 O34 2.061 . S
Co33 O39 2.052 . S
Co33 O41 2.135 . S
O34 Co33 2.061 . S
O34 C37 1.235 . S
C35 O38 1.238 . S
C35 O39 1.241 . S
C36 O29 1.247 . S
C36 O30 1.261 . S
C37 O32 1.259 . S
C37 O34 1.235 . S
O38 Co28 2.021 . S
O38 C35 1.238 . S
O39 Co33 2.052 . S
O39 C35 1.241 . S
O40 Co28 2.137 . S
O40 C31 1.247 . S
O41 Co28 2.244 . S
O41 C31 1.272 . S
O41 Co33 2.135 . S
Co42 O43 2.216 . S
Co42 O44 2.091 . S
Co42 O46 2.004 . S
Co42 O52 2.021 . S
Co42 O54 2.137 . S
Co42 O55 2.244 . S
O43 Co42 2.216 . S
O43 C50 1.247 . S
O44 Co42 2.091 . S
O44 C50 1.261 . S
C45 O54 1.247 . S
C45 O55 1.272 . S
O46 Co42 2.004 . S
O46 C51 1.259 . S
Co47 O48 2.061 . S
Co47 O53 2.052 . S
Co47 O55 2.135 . S
O48 Co47 2.061 . S
O48 C51 1.235 . S
C49 O52 1.238 . S
C49 O53 1.241 . S
C50 O43 1.247 . S
C50 O44 1.261 . S
C51 O46 1.259 . S
C51 O48 1.235 . S
O52 Co42 2.021 . S
O52 C49 1.238 . S
O53 Co47 2.052 . S
O53 C49 1.241 . S
O54 Co42 2.137 . S
O54 C45 1.247 . S
O55 Co42 2.244 . S
O55 C45 1.272 . S
O55 Co47 2.135 . S
Co56 O57 2.216 . S
Co56 O58 2.091 . S
Co56 O60 2.004 . S
Co56 O66 2.021 1_554 S
Co56 O68 2.137 . S
Co56 O69 2.244 . S
O57 Co56 2.216 . S
O57 C64 1.247 . S
O58 Co56 2.091 . S
O58 C64 1.261 . S
C59 O68 1.247 . S
C59 O69 1.272 . S
O60 Co56 2.004 . S
O60 C65 1.259 . S
Co61 O62 2.060 1_544 S
Co61 O67 2.052 1_544 S
Co61 O69 2.135 1_545 S
O62 Co61 2.060 1_566 S
O62 C65 1.233 1_556 S
C63 O66 1.238 . S
C63 O67 1.241 . S
C64 O57 1.247 . S
C64 O58 1.261 . S
C65 O60 1.259 . S
C65 O62 1.233 1_554 S
O66 Co56 2.021 1_556 S
O66 C63 1.238 . S
O67 Co61 2.052 1_566 S
O67 C63 1.241 . S
O68 Co56 2.137 . S
O68 C59 1.247 . S
O69 Co56 2.244 . S
O69 C59 1.272 . S
O69 Co61 2.135 1_565 S
Co70 O71 2.216 . S
Co70 O72 2.091 . S
Co70 O74 2.004 . S
Co70 O80 2.021 1_554 S
Co70 O82 2.137 . S
Co70 O83 2.244 . S
O71 Co70 2.216 . S
O71 C78 1.247 . S
O72 Co70 2.091 . S
O72 C78 1.261 . S
C73 O82 1.247 . S
C73 O83 1.272 . S
O74 Co70 2.004 . S
O74 C79 1.259 . S
Co75 O76 2.060 1_564 S
Co75 O81 2.052 1_564 S
Co75 O83 2.135 1_565 S
O76 Co75 2.060 1_546 S
O76 C79 1.233 1_556 S
C77 O80 1.238 . S
C77 O81 1.241 . S
C78 O71 1.247 . S
C78 O72 1.261 . S
C79 O74 1.259 . S
C79 O76 1.233 1_554 S
O80 Co70 2.021 1_556 S
O80 C77 1.238 . S
O81 Co75 2.052 1_546 S
O81 C77 1.241 . S
O82 Co70 2.137 . S
O82 C73 1.247 . S
O83 Co70 2.244 . S
O83 C73 1.272 . S
O83 Co75 2.135 1_545 S
Co84 O85 2.216 . S
Co84 O86 2.091 . S
Co84 O88 2.004 . S
Co84 O94 2.021 . S
Co84 O96 2.137 . S
Co84 O97 2.244 . S
O85 Co84 2.216 . S
O85 C92 1.247 . S
O86 Co84 2.091 . S
O86 C92 1.261 . S
C87 O96 1.247 . S
C87 O97 1.272 . S
O88 Co84 2.004 . S
O88 C93 1.259 . S
Co89 O90 2.061 1_565 S
Co89 O95 2.052 1_565 S
Co89 O97 2.135 1_565 S
O90 Co89 2.061 1_545 S
O90 C93 1.235 . S
C91 O94 1.238 . S
C91 O95 1.241 . S
C92 O85 1.247 . S
C92 O86 1.261 . S
C93 O88 1.259 . S
C93 O90 1.235 . S
O94 Co84 2.021 . S
O94 C91 1.238 . S
O95 Co89 2.052 1_545 S
O95 C91 1.241 . S
O96 Co84 2.137 . S
O96 C87 1.247 . S
O97 Co84 2.244 . S
O97 C87 1.272 . S
O97 Co89 2.135 1_545 S
Co98 O99 2.216 . S
Co98 O100 2.091 . S
Co98 O102 2.004 . S
Co98 O108 2.021 . S
Co98 O110 2.137 . S
Co98 O111 2.244 . S
O99 Co98 2.216 . S
O99 C106 1.247 . S
O100 Co98 2.091 . S
O100 C106 1.261 . S
C101 O110 1.247 . S
C101 O111 1.272 . S
O102 Co98 2.004 . S
O102 C107 1.259 . S
Co103 O104 2.061 1_545 S
Co103 O109 2.052 1_545 S
Co103 O111 2.135 1_545 S
O104 Co103 2.061 1_565 S
O104 C107 1.235 . S
C105 O108 1.238 . S
C105 O109 1.241 . S
C106 O99 1.247 . S
C106 O100 1.261 . S
C107 O102 1.259 . S
C107 O104 1.235 . S
O108 Co98 2.021 . S
O108 C105 1.238 . S
O109 Co103 2.052 1_565 S
O109 C105 1.241 . S
O110 Co98 2.137 . S
O110 C101 1.247 . S
O111 Co98 2.244 . S
O111 C101 1.272 . S
O111 Co103 2.135 1_565 S
H112 C118 0.930 . S
H113 C121 0.930 . S
H114 C122 0.930 . S
H115 C123 0.930 . S
H116 C126 0.930 . S
H117 C127 0.930 . S
C118 H112 0.930 . S
C118 C119 1.355 1_556 S
C118 C120 1.415 . S
C119 C118 1.355 1_554 S
C119 C121 1.419 . S
C120 C118 1.415 . S
C120 C125 1.425 1_556 S
C120 C127 1.409 . S
C121 H113 0.930 . S
C121 C119 1.419 . S
C121 C122 1.362 . S
C122 H114 0.930 . S
C122 C121 1.362 . S
C122 C125 1.409 . S
C123 H115 0.930 . S
C123 C124 1.357 . S
C123 C125 1.415 . S
C124 C123 1.357 . S
C124 C126 1.417 1_554 S
C125 C120 1.425 1_554 S
C125 C122 1.409 . S
C125 C123 1.415 . S
C126 H116 0.930 . S
C126 C124 1.417 1_556 S
C126 C127 1.362 . S
C127 H117 0.930 . S
C127 C120 1.409 . S
C127 C126 1.362 . S
H128 C134 0.930 . S
H129 C137 0.930 . S
H130 C138 0.930 . S
H131 C139 0.930 . S
H132 C142 0.930 . S
H133 C143 0.930 . S
C134 H128 0.930 . S
C134 C135 1.355 1_554 S
C134 C136 1.415 . S
C135 C134 1.355 1_556 S
C135 C137 1.419 . S
C136 C134 1.415 . S
C136 C141 1.425 1_554 S
C136 C143 1.409 . S
C137 H129 0.930 . S
C137 C135 1.419 . S
C137 C138 1.362 . S
C138 H130 0.930 . S
C138 C137 1.362 . S
C138 C141 1.409 . S
C139 H131 0.930 . S
C139 C140 1.355 1_556 S
C139 C141 1.415 . S
C140 C139 1.355 1_554 S
C140 C142 1.419 . S
C141 C136 1.425 1_556 S
C141 C138 1.409 . S
C141 C139 1.415 . S
C142 H132 0.930 . S
C142 C140 1.419 . S
C142 C143 1.362 . S
C143 H133 0.930 . S
C143 C136 1.409 . S
C143 C142 1.362 . S
H144 C150 0.930 . S
H145 C153 0.930 . S
H146 C154 0.930 . S
H147 C155 0.930 . S
H148 C158 0.930 . S
H149 C159 0.930 . S
C150 H144 0.930 . S
C150 C151 1.355 . S
C150 C152 1.415 . S
C151 C150 1.355 . S
C151 C153 1.419 . S
C152 C150 1.415 . S
C152 C157 1.425 . S
C152 C159 1.409 . S
C153 H145 0.930 . S
C153 C151 1.419 . S
C153 C154 1.362 . S
C154 H146 0.930 . S
C154 C153 1.362 . S
C154 C157 1.409 . S
C155 H147 0.930 . S
C155 C156 1.355 . S
C155 C157 1.415 . S
C156 C155 1.355 . S
C156 C158 1.419 . S
C157 C152 1.425 . S
C157 C154 1.409 . S
C157 C155 1.415 . S
C158 H148 0.930 . S
C158 C156 1.419 . S
C158 C159 1.362 . S
C159 H149 0.930 . S
C159 C152 1.409 . S
C159 C158 1.362 . S
H160 C166 0.930 . S
H161 C169 0.930 . S
H162 C170 0.930 . S
H163 C171 0.930 . S
H164 C174 0.930 . S
H165 C175 0.930 . S
C166 H160 0.930 . S
C166 C167 1.355 . S
C166 C168 1.415 . S
C167 C166 1.355 . S
C167 C169 1.419 . S
C168 C166 1.415 . S
C168 C173 1.425 . S
C168 C175 1.409 . S
C169 H161 0.930 . S
C169 C167 1.419 . S
C169 C170 1.362 . S
C170 H162 0.930 . S
C170 C169 1.362 . S
C170 C173 1.409 . S
C171 H163 0.930 . S
C171 C172 1.355 . S
C171 C173 1.415 . S
C172 C171 1.355 . S
C172 C174 1.419 . S
C173 C168 1.425 . S
C173 C170 1.409 . S
C173 C171 1.415 . S
C174 H164 0.930 . S
C174 C172 1.419 . S
C174 C175 1.362 . S
C175 H165 0.930 . S
C175 C168 1.409 . S
C175 C174 1.362 . S
H176 C182 0.930 . S
H177 C185 0.930 . S
H178 C186 0.930 . S
H179 C187 0.930 . S
H180 C190 0.930 . S
H181 C191 0.930 . S
C182 H176 0.930 . S
C182 C183 1.355 . S
C182 C184 1.415 . S
C183 C182 1.355 . S
C183 C185 1.419 . S
C184 C182 1.415 . S
C184 C189 1.425 . S
C184 C191 1.409 . S
C185 H177 0.930 . S
C185 C183 1.419 . S
C185 C186 1.362 . S
C186 H178 0.930 . S
C186 C185 1.362 . S
C186 C189 1.409 . S
C187 H179 0.930 . S
C187 C188 1.355 . S
C187 C189 1.415 . S
C188 C187 1.355 . S
C188 C190 1.419 . S
C189 C184 1.425 . S
C189 C186 1.409 . S
C189 C187 1.415 . S
C190 H180 0.930 . S
C190 C188 1.419 . S
C190 C191 1.362 . S
C191 H181 0.930 . S
C191 C184 1.409 . S
C191 C190 1.362 . S
H192 C198 0.930 . S
H193 C201 0.930 . S
H194 C202 0.930 . S
H195 C203 0.930 . S
H196 C206 0.930 . S
H197 C207 0.930 . S
C198 H192 0.930 . S
C198 C199 1.355 . S
C198 C200 1.415 . S
C199 C198 1.355 . S
C199 C201 1.419 . S
C200 C198 1.415 . S
C200 C205 1.425 . S
C200 C207 1.409 . S
C201 H193 0.930 . S
C201 C199 1.419 . S
C201 C202 1.362 . S
C202 H194 0.930 . S
C202 C201 1.362 . S
C202 C205 1.409 . S
C203 H195 0.930 . S
C203 C204 1.355 . S
C203 C205 1.415 . S
C204 C203 1.355 . S
C204 C206 1.419 . S
C205 C200 1.425 . S
C205 C202 1.409 . S
C205 C203 1.415 . S
C206 H196 0.930 . S
C206 C204 1.419 . S
C206 C207 1.362 . S
C207 H197 0.930 . S
C207 C200 1.409 . S
C207 C206 1.362 . S
H208 C214 0.930 . S
H209 C217 0.930 . S
H210 C218 0.930 . S
H211 C219 0.930 . S
H212 C222 0.930 . S
H213 C223 0.930 . S
C214 H208 0.930 . S
C214 C215 1.355 . S
C214 C216 1.415 . S
C215 C214 1.355 . S
C215 C217 1.419 . S
C216 C214 1.415 . S
C216 C221 1.425 . S
C216 C223 1.409 . S
C217 H209 0.930 . S
C217 C215 1.419 . S
C217 C218 1.362 . S
C218 H210 0.930 . S
C218 C217 1.362 . S
C218 C221 1.409 . S
C219 H211 0.930 . S
C219 C220 1.355 . S
C219 C221 1.415 . S
C220 C219 1.355 . S
C220 C222 1.419 . S
C221 C216 1.425 . S
C221 C218 1.409 . S
C221 C219 1.415 . S
C222 H212 0.930 . S
C222 C220 1.419 . S
C222 C223 1.362 . S
C223 H213 0.930 . S
C223 C216 1.409 . S
C223 C222 1.362 . S
H224 C230 0.930 . S
H225 C233 0.930 . S
H226 C234 0.930 . S
H227 C235 0.930 . S
H228 C238 0.930 . S
H229 C239 0.930 . S
C230 H224 0.930 . S
C230 C231 1.355 . S
C230 C232 1.415 . S
C231 C230 1.355 . S
C231 C233 1.419 . S
C232 C230 1.415 . S
C232 C237 1.425 . S
C232 C239 1.409 . S
C233 H225 0.930 . S
C233 C231 1.419 . S
C233 C234 1.362 . S
C234 H226 0.930 . S
C234 C233 1.362 . S
C234 C237 1.409 . S
C235 H227 0.930 . S
C235 C236 1.355 . S
C235 C237 1.415 . S
C236 C235 1.355 . S
C236 C238 1.419 . S
C237 C232 1.425 . S
C237 C234 1.409 . S
C237 C235 1.415 . S
C238 H228 0.930 . S
C238 C236 1.419 . S
C238 C239 1.362 . S
C239 H229 0.930 . S
C239 C232 1.409 . S
C239 C238 1.362 . S
H240 C246 0.930 . S
H241 C249 0.930 . S
H242 C250 0.930 . S
H243 C251 0.930 . S
H244 C254 0.930 . S
H245 C255 0.930 . S
C246 H240 0.930 . S
C246 C247 1.355 . S
C246 C248 1.415 . S
C247 C246 1.355 . S
C247 C249 1.419 . S
C248 C246 1.415 . S
C248 C253 1.425 1_565 S
C248 C255 1.409 1_565 S
C249 H241 0.930 . S
C249 C247 1.419 . S
C249 C250 1.362 . S
C250 H242 0.930 . S
C250 C249 1.362 . S
C250 C253 1.409 1_565 S
C251 H243 0.930 . S
C251 C252 1.355 . S
C251 C253 1.415 . S
C252 C251 1.355 . S
C252 C254 1.419 . S
C253 C248 1.425 1_545 S
C253 C250 1.409 1_545 S
C253 C251 1.415 . S
C254 H244 0.930 . S
C254 C252 1.419 . S
C254 C255 1.362 . S
C255 H245 0.930 . S
C255 C248 1.409 1_545 S
C255 C254 1.362 . S
H256 C262 0.930 . S
H257 C265 0.930 . S
H258 C266 0.930 . S
H259 C267 0.930 . S
H260 C270 0.930 . S
H261 C271 0.930 . S
C262 H256 0.930 . S
C262 C263 1.355 . S
C262 C264 1.415 . S
C263 C262 1.355 . S
C263 C265 1.419 1_565 S
C264 C262 1.415 . S
C264 C269 1.425 1_565 S
C264 C271 1.409 . S
C265 H257 0.930 . S
C265 C263 1.419 1_545 S
C265 C266 1.362 . S
C266 H258 0.930 . S
C266 C265 1.362 . S
C266 C269 1.409 . S
C267 H259 0.930 . S
C267 C268 1.355 . S
C267 C269 1.415 . S
C268 C267 1.355 . S
C268 C270 1.419 1_545 S
C269 C264 1.425 1_545 S
C269 C266 1.409 . S
C269 C267 1.415 . S
C270 H260 0.930 . S
C270 C268 1.419 1_565 S
C270 C271 1.362 . S
C271 H261 0.930 . S
C271 C264 1.409 . S
C271 C270 1.362 . S
H272 C278 0.930 . S
H273 C281 0.930 . S
H274 C282 0.930 . S
H275 C283 0.930 . S
H276 C286 0.930 . S
H277 C287 0.930 . S
C278 H272 0.930 . S
C278 C279 1.355 . S
C278 C280 1.415 . S
C279 C278 1.355 . S
C279 C281 1.419 1_565 S
C280 C278 1.415 . S
C280 C285 1.425 1_565 S
C280 C287 1.409 . S
C281 H273 0.930 . S
C281 C279 1.419 1_545 S
C281 C282 1.362 . S
C282 H274 0.930 . S
C282 C281 1.362 . S
C282 C285 1.409 . S
C283 H275 0.930 . S
C283 C284 1.355 . S
C283 C285 1.415 . S
C284 C283 1.355 . S
C284 C286 1.419 1_545 S
C285 C280 1.425 1_545 S
C285 C282 1.409 . S
C285 C283 1.415 . S
C286 H276 0.930 . S
C286 C284 1.419 1_565 S
C286 C287 1.362 . S
C287 H277 0.930 . S
C287 C280 1.409 . S
C287 C286 1.362 . S
H288 C294 0.930 . S
H289 C297 0.930 . S
H290 C298 0.930 . S
H291 C299 0.930 . S
H292 C302 0.930 . S
H293 C303 0.930 . S
C294 H288 0.930 . S
C294 C295 1.355 . S
C294 C296 1.415 . S
C295 C294 1.355 . S
C295 C297 1.419 1_565 S
C296 C294 1.415 . S
C296 C301 1.425 1_565 S
C296 C303 1.409 . S
C297 H289 0.930 . S
C297 C295 1.419 1_545 S
C297 C298 1.362 . S
C298 H290 0.930 . S
C298 C297 1.362 . S
C298 C301 1.409 . S
C299 H291 0.930 . S
C299 C300 1.355 . S
C299 C301 1.415 . S
C300 C299 1.355 . S
C300 C302 1.419 1_545 S
C301 C296 1.425 1_545 S
C301 C298 1.409 . S
C301 C299 1.415 . S
C302 H292 0.930 . S
C302 C300 1.419 1_565 S
C302 C303 1.362 . S
C303 H293 0.930 . S
C303 C296 1.409 . S
C303 C302 1.362 . S
H304 C310 0.930 . S
H305 C313 0.930 . S
H306 C314 0.930 . S
H307 C315 0.930 . S
H308 C318 0.930 . S
H309 C319 0.930 . S
C310 H304 0.930 . S
C310 C311 1.355 1_554 S
C310 C312 1.415 . S
C311 C310 1.355 1_556 S
C311 C313 1.419 . S
C312 C310 1.415 . S
C312 C317 1.425 1_564 S
C312 C319 1.409 . S
C313 H305 0.930 . S
C313 C311 1.419 . S
C313 C314 1.362 1_565 S
C314 H306 0.930 . S
C314 C313 1.362 1_545 S
C314 C317 1.409 . S
C315 H307 0.930 . S
C315 C316 1.355 1_556 S
C315 C317 1.415 . S
C316 C315 1.355 1_554 S
C316 C318 1.419 . S
C317 C312 1.425 1_546 S
C317 C314 1.409 . S
C317 C315 1.415 . S
C318 H308 0.930 . S
C318 C316 1.419 . S
C318 C319 1.362 1_545 S
C319 H309 0.930 . S
C319 C312 1.409 . S
C319 C318 1.362 1_565 S
H320 C326 0.930 1_545 S
H321 C329 0.930 . S
H322 C330 0.930 . S
H323 C331 0.930 1_565 S
H324 C334 0.930 . S
H325 C335 0.930 . S
C326 H320 0.930 1_565 S
C326 C327 1.355 . S
C326 C328 1.415 1_565 S
C327 C326 1.355 . S
C327 C329 1.419 . S
C328 C326 1.415 1_545 S
C328 C333 1.425 1_545 S
C328 C335 1.409 . S
C329 H321 0.930 . S
C329 C327 1.419 . S
C329 C330 1.362 . S
C330 H322 0.930 . S
C330 C329 1.362 . S
C330 C333 1.409 . S
C331 H323 0.930 1_545 S
C331 C332 1.355 . S
C331 C333 1.415 1_545 S
C332 C331 1.355 . S
C332 C334 1.419 . S
C333 C328 1.425 1_565 S
C333 C330 1.409 . S
C333 C331 1.415 1_565 S
C334 H324 0.930 . S
C334 C332 1.419 . S
C334 C335 1.362 . S
C335 H325 0.930 . S
C335 C328 1.409 . S
C335 C334 1.362 . S
H336 C342 0.930 . S
H337 C345 0.930 . S
H338 C346 0.930 1_655 S
H339 C347 0.930 . S
H340 C350 0.930 . S
H341 C351 0.930 1_455 S
C342 H336 0.930 . S
C342 C343 1.355 1_556 S
C342 C344 1.415 . S
C343 C342 1.355 1_554 S
C343 C345 1.419 . S
C344 C342 1.415 . S
C344 C349 1.425 1_456 S
C344 C351 1.409 1_455 S
C345 H337 0.930 . S
C345 C343 1.419 . S
C345 C346 1.362 . S
C346 H338 0.930 1_455 S
C346 C345 1.362 . S
C346 C349 1.409 1_455 S
C347 H339 0.930 . S
C347 C348 1.355 1_554 S
C347 C349 1.415 . S
C348 C347 1.355 1_556 S
C348 C350 1.419 . S
C349 C344 1.425 1_654 S
C349 C346 1.409 1_655 S
C349 C347 1.415 . S
C350 H340 0.930 . S
C350 C348 1.419 . S
C350 C351 1.362 . S
C351 H341 0.930 1_655 S
C351 C344 1.409 1_655 S
C351 C350 1.362 . S
H352 C358 0.930 . S
H353 C361 0.930 . S
H354 C362 0.930 . S
H355 C363 0.930 . S
H356 C366 0.930 . S
H357 C367 0.930 . S
C358 H352 0.930 . S
C358 C359 1.355 . S
C358 C360 1.415 . S
C359 C358 1.355 . S
C359 C361 1.419 . S
C360 C358 1.415 . S
C360 C365 1.425 1_455 S
C360 C367 1.409 . S
C361 H353 0.930 . S
C361 C359 1.419 . S
C361 C362 1.362 1_455 S
C362 H354 0.930 . S
C362 C361 1.362 1_655 S
C362 C365 1.409 . S
C363 H355 0.930 . S
C363 C364 1.355 . S
C363 C365 1.415 . S
C364 C363 1.355 . S
C364 C366 1.419 . S
C365 C360 1.425 1_655 S
C365 C362 1.409 . S
C365 C363 1.415 . S
C366 H356 0.930 . S
C366 C364 1.419 . S
C366 C367 1.362 1_655 S
C367 H357 0.930 . S
C367 C360 1.409 . S
C367 C366 1.362 1_455 S
C119 C79 1.453 . S
C124 C9 1.457 . S
C135 C65 1.493 1_556 S
C140 C23 1.490 . S
C151 C107 1.451 . S
C156 C37 1.453 . S
C167 C93 1.461 . S
C172 C51 1.466 . S
C183 C3 1.412 . S
C188 C31 1.421 . S
C199 C17 1.395 . S
C204 C45 1.398 . S
C215 C21 1.366 . S
C220 C49 1.403 . S
C231 C7 1.408 . S
C236 C35 1.365 . S
C247 C59 1.412 . S
C252 C87 1.421 . S
C263 C101 1.425 . S
C268 C73 1.427 . S
C279 C105 1.380 . S
C284 C77 1.377 . S
C295 C63 1.370 . S
C300 C91 1.390 . S
C311 C22 1.489 1_556 S
C316 C8 1.483 . S
C327 C36 1.502 . S
C332 C50 1.495 . S
C343 C64 1.494 . S
C348 C78 1.501 1_556 S
C359 C92 1.496 . S
C364 C106 1.502 . S
