# Generated by pormake.
# Topology dei, (4)-cn, num edge types: 1
# Building blocks:
#     Node 0, Type 0, BuildingBlock: KUFVIS_clean_sbu_0, # of connection points: 4
#     Node 1, Type 0, BuildingBlock: KUFVIS_clean_sbu_0, # of connection points: 4
#     Node 2, Type 0, BuildingBlock: KUFVIS_clean_sbu_0, # of connection points: 4
#     Node 3, Type 0, BuildingBlock: KUFVIS_clean_sbu_0, # of connection points: 4
#     Node 4, Type 0, BuildingBlock: KUFVIS_clean_sbu_0, # of connection points: 4
#     Node 5, Type 0, BuildingBlock: KUFVIS_clean_sbu_0, # of connection points: 4
#     Node 6, Type 0, BuildingBlock: KUFVIS_clean_sbu_0, # of connection points: 4
#     Node 7, Type 0, BuildingBlock: KUFVIS_clean_sbu_0, # of connection points: 4
#     Node 8, Type 0, BuildingBlock: KUFVIS_clean_sbu_0, # of connection points: 4
#     Node 9, Type 0, BuildingBlock: KUFVIS_clean_sbu_0, # of connection points: 4
#     Node 10, Type 0, BuildingBlock: KUFVIS_clean_sbu_0, # of connection points: 4
#     Node 11, Type 0, BuildingBlock: KUFVIS_clean_sbu_0, # of connection points: 4
#     Node 12, Type 0, BuildingBlock: KUFVIS_clean_sbu_0, # of connection points: 4
#     Node 13, Type 0, BuildingBlock: KUFVIS_clean_sbu_0, # of connection points: 4
#     Node 14, Type 0, BuildingBlock: KUFVIS_clean_sbu_0, # of connection points: 4
#     Node 15, Type 0, BuildingBlock: KUFVIS_clean_sbu_0, # of connection points: 4
#     Node 16, Type 0, BuildingBlock: KUFVIS_clean_sbu_0, # of connection points: 4
#     Node 17, Type 0, BuildingBlock: KUFVIS_clean_sbu_0, # of connection points: 4
#     Node 18, Type 0, BuildingBlock: KUFVIS_clean_sbu_0, # of connection points: 4
#     Node 19, Type 0, BuildingBlock: KUFVIS_clean_sbu_0, # of connection points: 4
#     Node 20, Type 0, BuildingBlock: KUFVIS_clean_sbu_0, # of connection points: 4
#     Node 21, Type 0, BuildingBlock: KUFVIS_clean_sbu_0, # of connection points: 4
#     Node 22, Type 0, BuildingBlock: KUFVIS_clean_sbu_0, # of connection points: 4
#     Node 23, Type 0, BuildingBlock: KUFVIS_clean_sbu_0, # of connection points: 4
#     Node 24, Type 0, BuildingBlock: KUFVIS_clean_sbu_0, # of connection points: 4
#     Node 25, Type 0, BuildingBlock: KUFVIS_clean_sbu_0, # of connection points: 4
#     Node 26, Type 0, BuildingBlock: KUFVIS_clean_sbu_0, # of connection points: 4
#     Node 27, Type 0, BuildingBlock: KUFVIS_clean_sbu_0, # of connection points: 4
#     Node 28, Type 0, BuildingBlock: KUFVIS_clean_sbu_0, # of connection points: 4
#     Node 29, Type 0, BuildingBlock: KUFVIS_clean_sbu_0, # of connection points: 4
#     Node 30, Type 0, BuildingBlock: KUFVIS_clean_sbu_0, # of connection points: 4
#     Node 31, Type 0, BuildingBlock: KUFVIS_clean_sbu_0, # of connection points: 4
#     Edge 32, Type (0, 0), BuildingBlock: AJUNOK_clean_linker_0, # of connection points: 2
#     Edge 33, Type (0, 0), BuildingBlock: AJUNOK_clean_linker_0, # of connection points: 2
#     Edge 34, Type (0, 0), BuildingBlock: AJUNOK_clean_linker_0, # of connection points: 2
#     Edge 35, Type (0, 0), BuildingBlock: AJUNOK_clean_linker_0, # of connection points: 2
#     Edge 36, Type (0, 0), BuildingBlock: AJUNOK_clean_linker_0, # of connection points: 2
#     Edge 37, Type (0, 0), BuildingBlock: AJUNOK_clean_linker_0, # of connection points: 2
#     Edge 38, Type (0, 0), BuildingBlock: AJUNOK_clean_linker_0, # of connection points: 2
#     Edge 39, Type (0, 0), BuildingBlock: AJUNOK_clean_linker_0, # of connection points: 2
#     Edge 40, Type (0, 0), BuildingBlock: AJUNOK_clean_linker_0, # of connection points: 2
#     Edge 41, Type (0, 0), BuildingBlock: AJUNOK_clean_linker_0, # of connection points: 2
#     Edge 42, Type (0, 0), BuildingBlock: AJUNOK_clean_linker_0, # of connection points: 2
#     Edge 43, Type (0, 0), BuildingBlock: AJUNOK_clean_linker_0, # of connection points: 2
#     Edge 44, Type (0, 0), BuildingBlock: AJUNOK_clean_linker_0, # of connection points: 2
#     Edge 45, Type (0, 0), BuildingBlock: AJUNOK_clean_linker_0, # of connection points: 2
#     Edge 46, Type (0, 0), BuildingBlock: AJUNOK_clean_linker_0, # of connection points: 2
#     Edge 47, Type (0, 0), BuildingBlock: AJUNOK_clean_linker_0, # of connection points: 2
#     Edge 48, Type (0, 0), BuildingBlock: AJUNOK_clean_linker_0, # of connection points: 2
#     Edge 49, Type (0, 0), BuildingBlock: AJUNOK_clean_linker_0, # of connection points: 2
#     Edge 50, Type (0, 0), BuildingBlock: AJUNOK_clean_linker_0, # of connection points: 2
#     Edge 51, Type (0, 0), BuildingBlock: AJUNOK_clean_linker_0, # of connection points: 2
#     Edge 52, Type (0, 0), BuildingBlock: AJUNOK_clean_linker_0, # of connection points: 2
#     Edge 53, Type (0, 0), BuildingBlock: AJUNOK_clean_linker_0, # of connection points: 2
#     Edge 54, Type (0, 0), BuildingBlock: AJUNOK_clean_linker_0, # of connection points: 2
#     Edge 55, Type (0, 0), BuildingBlock: AJUNOK_clean_linker_0, # of connection points: 2
#     Edge 56, Type (0, 0), BuildingBlock: AJUNOK_clean_linker_0, # of connection points: 2
#     Edge 57, Type (0, 0), BuildingBlock: AJUNOK_clean_linker_0, # of connection points: 2
#     Edge 58, Type (0, 0), BuildingBlock: AJUNOK_clean_linker_0, # of connection points: 2
#     Edge 59, Type (0, 0), BuildingBlock: AJUNOK_clean_linker_0, # of connection points: 2
#     Edge 60, Type (0, 0), BuildingBlock: AJUNOK_clean_linker_0, # of connection points: 2
#     Edge 61, Type (0, 0), BuildingBlock: AJUNOK_clean_linker_0, # of connection points: 2
#     Edge 62, Type (0, 0), BuildingBlock: AJUNOK_clean_linker_0, # of connection points: 2
#     Edge 63, Type (0, 0), BuildingBlock: AJUNOK_clean_linker_0, # of connection points: 2
#     Edge 64, Type (0, 0), BuildingBlock: AJUNOK_clean_linker_0, # of connection points: 2
#     Edge 65, Type (0, 0), BuildingBlock: AJUNOK_clean_linker_0, # of connection points: 2
#     Edge 66, Type (0, 0), BuildingBlock: AJUNOK_clean_linker_0, # of connection points: 2
#     Edge 67, Type (0, 0), BuildingBlock: AJUNOK_clean_linker_0, # of connection points: 2
#     Edge 68, Type (0, 0), BuildingBlock: AJUNOK_clean_linker_0, # of connection points: 2
#     Edge 69, Type (0, 0), BuildingBlock: AJUNOK_clean_linker_0, # of connection points: 2
#     Edge 70, Type (0, 0), BuildingBlock: AJUNOK_clean_linker_0, # of connection points: 2
#     Edge 71, Type (0, 0), BuildingBlock: AJUNOK_clean_linker_0, # of connection points: 2
#     Edge 72, Type (0, 0), BuildingBlock: AJUNOK_clean_linker_0, # of connection points: 2
#     Edge 73, Type (0, 0), BuildingBlock: AJUNOK_clean_linker_0, # of connection points: 2
#     Edge 74, Type (0, 0), BuildingBlock: AJUNOK_clean_linker_0, # of connection points: 2
#     Edge 75, Type (0, 0), BuildingBlock: AJUNOK_clean_linker_0, # of connection points: 2
#     Edge 76, Type (0, 0), BuildingBlock: AJUNOK_clean_linker_0, # of connection points: 2
#     Edge 77, Type (0, 0), BuildingBlock: AJUNOK_clean_linker_0, # of connection points: 2
#     Edge 78, Type (0, 0), BuildingBlock: AJUNOK_clean_linker_0, # of connection points: 2
#     Edge 79, Type (0, 0), BuildingBlock: AJUNOK_clean_linker_0, # of connection points: 2
#     Edge 80, Type (0, 0), BuildingBlock: AJUNOK_clean_linker_0, # of connection points: 2
#     Edge 81, Type (0, 0), BuildingBlock: AJUNOK_clean_linker_0, # of connection points: 2
#     Edge 82, Type (0, 0), BuildingBlock: AJUNOK_clean_linker_0, # of connection points: 2
#     Edge 83, Type (0, 0), BuildingBlock: AJUNOK_clean_linker_0, # of connection points: 2
#     Edge 84, Type (0, 0), BuildingBlock: AJUNOK_clean_linker_0, # of connection points: 2
#     Edge 85, Type (0, 0), BuildingBlock: AJUNOK_clean_linker_0, # of connection points: 2
#     Edge 86, Type (0, 0), BuildingBlock: AJUNOK_clean_linker_0, # of connection points: 2
#     Edge 87, Type (0, 0), BuildingBlock: AJUNOK_clean_linker_0, # of connection points: 2
#     Edge 88, Type (0, 0), BuildingBlock: AJUNOK_clean_linker_0, # of connection points: 2
#     Edge 89, Type (0, 0), BuildingBlock: AJUNOK_clean_linker_0, # of connection points: 2
#     Edge 90, Type (0, 0), BuildingBlock: AJUNOK_clean_linker_0, # of connection points: 2
#     Edge 91, Type (0, 0), BuildingBlock: AJUNOK_clean_linker_0, # of connection points: 2
#     Edge 92, Type (0, 0), BuildingBlock: AJUNOK_clean_linker_0, # of connection points: 2
#     Edge 93, Type (0, 0), BuildingBlock: AJUNOK_clean_linker_0, # of connection points: 2
#     Edge 94, Type (0, 0), BuildingBlock: AJUNOK_clean_linker_0, # of connection points: 2
#     Edge 95, Type (0, 0), BuildingBlock: AJUNOK_clean_linker_0, # of connection points: 2
# Relax obj value: 0.218
# Max RMSD: 0.069
# Mean RMSD: 0.069
data_MOF--net-dei--node1-KUFVIS_clean_sbu_0--edge1-AJUNOK_clean_linker_0
_symmetry_space_group_name_H-M    P1
_symmetry_Int_Tables_number       1
_symmetry_cell_setting            triclinic
loop_
_symmetry_equiv_pos_as_xyz
'x, y, z'
_cell_length_a     43.265314
_cell_length_b     43.2404
_cell_length_c     57.529482
_cell_angle_alpha  89.981331
_cell_angle_beta   90.095151
_cell_angle_gamma 89.999533
loop_
_atom_site_label
_atom_site_type_symbol
_atom_site_fract_x
_atom_site_fract_y
_atom_site_fract_z
_atom_type_partial_charge
Mn0 Mn 0.13078 0.60855 0.03072 0.0
Mn1 Mn 0.08516 0.64438 0.06694 0.0
C2 C 0.07759 0.60182 0.02369 0.0
C3 C 0.15745 0.56325 0.01906 0.0
C4 C 0.12401 0.68137 0.03262 0.0
O5 O 0.15649 0.61254 0.06152 0.0
O6 O 0.11925 0.62962 0.08578 0.0
C7 C 0.0595 0.6134 0.11767 0.0
N8 N 0.05703 0.62432 0.09069 0.0
C9 C 0.97885 0.64191 0.10552 0.0
C10 C 0.98931 0.62619 0.13432 0.0
C11 C 0.02862 0.61321 0.13904 0.0
C12 C 0.02891 0.63853 0.07949 0.0
H13 H 0.08209 0.60783 0.1242 0.0
C14 C 0.14555 0.61743 0.08204 0.0
O15 O 0.16595 0.59043 0.01188 0.0
O16 O 0.13517 0.56271 0.0339 0.0
N17 N 0.05247 0.6586 0.04654 0.0
C18 C 0.04702 0.66151 0.02169 0.0
C19 C 0.01836 0.67826 0.01104 0.0
C20 C 0.98196 0.71065 0.03679 0.0
C21 C 0.99116 0.70468 0.06397 0.0
C22 C 0.03415 0.66812 0.0646 0.0
H23 H 0.06536 0.6557 0.00978 0.0
O24 O 0.09772 0.601 0.00708 0.0
O25 O 0.08907 0.60897 0.04445 0.0
O26 O 0.1326 0.65744 0.02083 0.0
O27 O 0.11069 0.67689 0.05182 0.0
C28 C 0.96152 0.7011 0.08213 0.0
C29 C 0.95515 0.67246 0.10038 0.0
H30 H 0.9781 0.63562 0.12035 0.0
H31 H 0.03485 0.60582 0.15627 0.0
H32 H 0.01855 0.67472 0.99211 0.0
H33 H 0.96052 0.72323 0.03325 0.0
H34 H 0.94219 0.71649 0.07966 0.0
H35 H 0.93442 0.6733 0.11066 0.0
Mn36 Mn 0.65073 0.87387 0.28179 0.0
Mn37 Mn 0.6151 0.82089 0.31088 0.0
C38 C 0.65836 0.8201 0.27003 0.0
C39 C 0.69746 0.90095 0.27527 0.0
C40 C 0.57835 0.86569 0.27972 0.0
O41 O 0.64296 0.89604 0.31451 0.0
O42 O 0.62521 0.85369 0.3318 0.0
C43 C 0.6506 0.79384 0.35957 0.0
N44 N 0.63831 0.7925 0.3329 0.0
C45 C 0.60844 0.71892 0.34998 0.0
C46 C 0.62617 0.72786 0.37826 0.0
C47 C 0.64569 0.76438 0.3818 0.0
C48 C 0.61971 0.76652 0.32235 0.0
H49 H 0.66378 0.81398 0.36461 0.0
C50 C 0.6344 0.88139 0.33298 0.0
O51 O 0.6714 0.91114 0.26706 0.0
O52 O 0.69593 0.8766 0.28806 0.0
N53 N 0.60384 0.79005 0.28827 0.0
C54 C 0.59946 0.78484 0.26365 0.0
C55 C 0.57867 0.75879 0.25398 0.0
C56 C 0.54127 0.7289 0.28054 0.0
C57 C 0.54843 0.73882 0.30772 0.0
C58 C 0.59119 0.7755 0.30711 0.0
H59 H 0.60644 0.80247 0.25148 0.0
O60 O 0.66053 0.84272 0.2554 0.0
O61 O 0.65006 0.82979 0.29073 0.0
O62 O 0.60255 0.87855 0.27073 0.0
O63 O 0.58225 0.84591 0.29559 0.0
C64 C 0.5472 0.71033 0.32709 0.0
C65 C 0.57424 0.70042 0.34574 0.0
H66 H 0.6147 0.71792 0.36467 0.0
H67 H 0.65612 0.76884 0.39855 0.0
H68 H 0.58231 0.75759 0.2351 0.0
H69 H 0.52637 0.70893 0.27755 0.0
H70 H 0.52845 0.69442 0.32612 0.0
H71 H 0.56886 0.68176 0.35755 0.0
Mn72 Mn 0.38504 0.38171 0.52575 0.0
Mn73 Mn 0.42888 0.3458 0.5639 0.0
C74 C 0.4381 0.37189 0.51556 0.0
C75 C 0.3656 0.43049 0.51474 0.0
C76 C 0.37818 0.31197 0.53648 0.0
O77 O 0.36155 0.38702 0.55762 0.0
O78 O 0.40038 0.37247 0.5807 0.0
C79 C 0.46563 0.40411 0.57113 0.0
N80 N 0.46208 0.37049 0.57473 0.0
C81 C 0.53018 0.3608 0.60369 0.0
C82 C 0.53663 0.39617 0.60241 0.0
C83 C 0.49467 0.42316 0.58004 0.0
C84 C 0.48365 0.34749 0.5842 0.0
H85 H 0.44722 0.41659 0.56257 0.0
C86 C 0.37483 0.38614 0.57761 0.0
O87 O 0.35124 0.40522 0.50892 0.0
O88 O 0.39113 0.4273 0.52611 0.0
N89 N 0.45853 0.31969 0.55137 0.0
C90 C 0.45809 0.30306 0.53139 0.0
C91 C 0.48258 0.28351 0.52523 0.0
C92 C 0.50986 0.28051 0.53821 0.0
C93 C 0.51491 0.30063 0.55961 0.0
C94 C 0.48214 0.31995 0.56632 0.0
H95 H 0.43809 0.30414 0.52016 0.0
O96 O 0.41768 0.37823 0.49975 0.0
O97 O 0.4262 0.37123 0.53624 0.0
O98 O 0.37262 0.33424 0.52214 0.0
O99 O 0.39562 0.31617 0.55419 0.0
C100 C 0.56325 0.31816 0.58314 0.0
C101 C 0.56112 0.34397 0.60124 0.0
H102 H 0.55871 0.40409 0.60979 0.0
H103 H 0.49213 0.44748 0.5749 0.0
H104 H 0.48024 0.2697 0.50965 0.0
H105 H 0.51616 0.29212 0.55165 0.0
H106 H 0.58702 0.30971 0.5832 0.0
H107 H 0.58192 0.35262 0.60951 0.0
Mn108 Mn 0.87568 0.13766 0.77814 0.0
Mn109 Mn 0.91184 0.18688 0.8091 0.0
C110 C 0.86783 0.19091 0.77034 0.0
C111 C 0.8292 0.11071 0.76945 0.0
C112 C 0.94842 0.14062 0.78121 0.0
O113 O 0.88002 0.11683 0.81109 0.0
O114 O 0.89408 0.15874 0.83246 0.0
C115 C 0.86665 0.2316 0.84235 0.0
N116 N 0.89233 0.2221 0.82719 0.0
C117 C 0.94296 0.28042 0.84542 0.0
C118 C 0.91649 0.29418 0.86249 0.0
C119 C 0.86732 0.26141 0.85874 0.0
C120 C 0.92036 0.23749 0.82374 0.0
H121 H 0.84647 0.21697 0.84331 0.0
C122 C 0.88153 0.13184 0.83062 0.0
O123 O 0.85571 0.10102 0.76175 0.0
O124 O 0.83007 0.13453 0.78278 0.0
N125 N 0.92692 0.21243 0.78268 0.0
C126 C 0.94837 0.20867 0.75989 0.0
C127 C 0.97274 0.23807 0.74756 0.0
C128 C 0.9774 0.27692 0.75873 0.0
C129 C 0.95723 0.28834 0.7839 0.0
C130 C 0.92252 0.24108 0.7969 0.0
H131 H 0.94705 0.18712 0.75064 0.0
O132 O 0.86654 0.17108 0.75344 0.0
O133 O 0.87645 0.17892 0.78992 0.0
O134 O 0.92484 0.1337 0.76832 0.0
O135 O 0.94288 0.15493 0.79985 0.0
C136 C 0.97068 0.31102 0.80429 0.0
C137 C 0.96454 0.30685 0.83235 0.0
H138 H 0.92058 0.31672 0.87034 0.0
H139 H 0.84455 0.26422 0.86689 0.0
H140 H 0.98323 0.23237 0.73106 0.0
H141 H 0.99044 0.29447 0.74974 0.0
H142 H 0.98712 0.32854 0.79914 0.0
H143 H 0.97418 0.3238 0.84317 0.0
Mn144 Mn 0.13292 0.39647 0.96888 0.0
Mn145 Mn 0.08781 0.35684 0.94117 0.0
C146 C 0.07847 0.40387 0.97706 0.0
C147 C 0.15935 0.44331 0.9774 0.0
C148 C 0.13305 0.32495 0.96591 0.0
O149 O 0.15153 0.39189 0.93422 0.0
O150 O 0.10817 0.37591 0.91534 0.0
C151 C 0.03923 0.39139 0.91231 0.0
N152 N 0.0494 0.36798 0.92895 0.0
C153 C 0.99609 0.31328 0.91517 0.0
C154 C 0.98159 0.33592 0.89649 0.0
C155 C 0.00997 0.38678 0.89649 0.0
C156 C 0.03716 0.33798 0.93487 0.0
H157 H 0.05367 0.4114 0.90935 0.0
C158 C 0.13497 0.38825 0.91528 0.0
O159 O 0.16952 0.41687 0.98485 0.0
O160 O 0.13558 0.4422 0.96396 0.0
N161 N 0.06817 0.34122 0.9691 0.0
C162 C 0.07394 0.33958 0.99261 0.0
C163 C 0.05096 0.333 0.00911 0.0
C164 C 0.02031 0.32695 0.00339 0.0
C165 C 0.01206 0.3238 0.97781 0.0
C166 C 0.04032 0.33785 0.96121 0.0
H167 H 0.09512 0.34684 0.00025 0.0
O168 O 0.09877 0.40593 0.99362 0.0
O169 O 0.09089 0.39526 0.95762 0.0
O170 O 0.13803 0.34702 0.98039 0.0
O171 O 0.12668 0.33544 0.94651 0.0
C172 C 0.9692 0.2945 0.9542 0.0
C173 C 0.97035 0.29417 0.92719 0.0
H174 H 0.96099 0.32786 0.88776 0.0
H175 H 0.00594 0.40814 0.88657 0.0
H176 H 0.05687 0.33444 0.02737 0.0
H177 H 0.0119 0.32363 0.98823 0.0
H178 H 0.94835 0.28224 0.95977 0.0
H179 H 0.95102 0.28515 0.91736 0.0
Mn180 Mn 0.86491 0.87085 0.22905 0.0
Mn181 Mn 0.89642 0.8264 0.19191 0.0
C182 C 0.86199 0.81651 0.23543 0.0
C183 C 0.81976 0.89683 0.24115 0.0
C184 C 0.93467 0.87144 0.21898 0.0
O185 O 0.8646 0.89481 0.19691 0.0
O186 O 0.87231 0.85414 0.17276 0.0
C187 C 0.84584 0.78002 0.16379 0.0
N188 N 0.87431 0.79113 0.17524 0.0
C189 C 0.92391 0.7416 0.14488 0.0
C190 C 0.89476 0.72685 0.1312 0.0
C191 C 0.84473 0.75222 0.14536 0.0
C192 C 0.90406 0.77916 0.173 0.0
H193 H 0.8246 0.79257 0.16668 0.0
C194 C 0.86234 0.88143 0.17676 0.0
O195 O 0.8469 0.90633 0.24774 0.0
O196 O 0.81909 0.87303 0.22773 0.0
N197 N 0.92057 0.80069 0.21378 0.0
C198 C 0.94844 0.80462 0.23236 0.0
C199 C 0.97817 0.77684 0.238 0.0
C200 C 0.98206 0.73981 0.22364 0.0
C201 C 0.95602 0.72899 0.20201 0.0
C202 C 0.91453 0.77324 0.19842 0.0
H203 H 0.94859 0.82452 0.24356 0.0
O204 O 0.86089 0.83533 0.25301 0.0
O205 O 0.86595 0.83042 0.21578 0.0
O206 O 0.91454 0.875 0.23521 0.0
O207 O 0.92459 0.86134 0.1998 0.0
C208 C 0.96483 0.70965 0.17846 0.0
C209 C 0.95094 0.71607 0.1523 0.0
H210 H 0.89926 0.70741 0.11961 0.0
H211 H 0.82056 0.74765 0.1406 0.0
H212 H 0.98891 0.78037 0.25452 0.0
H213 H 0.9926 0.72019 0.23156 0.0
H214 H 0.98076 0.69072 0.18022 0.0
H215 H 0.95802 0.69968 0.13947 0.0
Mn216 Mn 0.38016 0.60713 0.48211 0.0
Mn217 Mn 0.4277 0.64342 0.44984 0.0
C218 C 0.4345 0.60726 0.49172 0.0
C219 C 0.35853 0.55793 0.49034 0.0
C220 C 0.37784 0.67924 0.47573 0.0
O221 O 0.35886 0.60792 0.44864 0.0
O222 O 0.40025 0.62327 0.42791 0.0
C223 C 0.47227 0.588 0.42479 0.0
N224 N 0.46073 0.61644 0.4356 0.0
C225 C 0.49891 0.66745 0.39844 0.0
C226 C 0.51433 0.63832 0.38502 0.0
C227 C 0.49691 0.58775 0.40448 0.0
C228 C 0.4687 0.64689 0.43112 0.0
H229 H 0.46104 0.5663 0.42871 0.0
C230 C 0.37351 0.61122 0.42911 0.0
O231 O 0.34535 0.58307 0.49779 0.0
O232 O 0.38308 0.56158 0.47819 0.0
N233 N 0.45305 0.66472 0.47309 0.0
C234 C 0.44836 0.69384 0.49008 0.0
C235 C 0.47267 0.72707 0.4915 0.0
C236 C 0.50627 0.73376 0.4736 0.0
C237 C 0.51673 0.70694 0.45214 0.0
C238 C 0.47782 0.6604 0.45519 0.0
H239 H 0.43017 0.69221 0.50271 0.0
O240 O 0.41443 0.60332 0.50817 0.0
O241 O 0.4212 0.6126 0.47214 0.0
O242 O 0.37113 0.65609 0.48919 0.0
O243 O 0.39522 0.67438 0.45834 0.0
C244 C 0.53092 0.71503 0.42637 0.0
C245 C 0.52207 0.6977 0.40175 0.0
H246 H 0.53193 0.64355 0.37198 0.0
H247 H 0.50331 0.56365 0.4008 0.0
H248 H 0.46981 0.73975 0.50723 0.0
H249 H 0.5257 0.74484 0.48098 0.0
H250 H 0.54942 0.7312 0.42568 0.0
H251 H 0.53603 0.704 0.38695 0.0
Mn252 Mn 0.65861 0.13467 0.72482 0.0
Mn253 Mn 0.62268 0.18147 0.69025 0.0
C254 C 0.66386 0.18926 0.73202 0.0
C255 C 0.70579 0.10993 0.73505 0.0
C256 C 0.58565 0.13788 0.72165 0.0
O257 O 0.65543 0.10943 0.69361 0.0
O258 O 0.63717 0.1475 0.67055 0.0
C259 C 0.65516 0.20428 0.64091 0.0
N260 N 0.64345 0.20908 0.66739 0.0
C261 C 0.6042 0.27444 0.6434 0.0
C262 C 0.62286 0.26272 0.61628 0.0
C263 C 0.64684 0.22856 0.61629 0.0
C264 C 0.62167 0.2342 0.67562 0.0
H265 H 0.66869 0.1844 0.63713 0.0
C266 C 0.64941 0.12088 0.67338 0.0
O267 O 0.6795 0.09995 0.74293 0.0
O268 O 0.70443 0.1331 0.72108 0.0
N269 N 0.60836 0.21418 0.71166 0.0
C270 C 0.60385 0.22408 0.73547 0.0
C271 C 0.58061 0.24971 0.74266 0.0
C272 C 0.5394 0.26968 0.71405 0.0
C273 C 0.54737 0.25543 0.68809 0.0
C274 C 0.59445 0.22465 0.69205 0.0
H275 H 0.61159 0.20917 0.74934 0.0
O276 O 0.6649 0.1693 0.74882 0.0
O277 O 0.6572 0.17663 0.71187 0.0
O278 O 0.60935 0.12868 0.73359 0.0
O279 O 0.59054 0.15524 0.70453 0.0
C280 C 0.54236 0.27953 0.66617 0.0
C281 C 0.5678 0.28901 0.64626 0.0
H282 H 0.61016 0.27351 0.62882 0.0
H283 H 0.65836 0.22211 0.60038 0.0
H284 H 0.5845 0.25492 0.76115 0.0
H285 H 0.52198 0.28767 0.7154 0.0
H286 H 0.52188 0.29349 0.66661 0.0
H287 H 0.55979 0.30426 0.63302 0.0
Mn288 Mn 0.88624 0.39345 0.97282 0.0
Mn289 Mn 0.93367 0.35636 0.93984 0.0
C290 C 0.94075 0.39842 0.97917 0.0
C291 C 0.86242 0.44141 0.98237 0.0
C292 C 0.8861 0.3201 0.96871 0.0
O293 O 0.86272 0.39129 0.94126 0.0
O294 O 0.90087 0.37151 0.91851 0.0
C295 C 0.95613 0.38311 0.88989 0.0
N296 N 0.96358 0.37802 0.9175 0.0
C297 C 0.0319 0.34026 0.8953 0.0
C298 C 0.01586 0.3505 0.86681 0.0
C299 C 0.97937 0.37092 0.8654 0.0
C300 C 0.99289 0.36311 0.92733 0.0
H301 H 0.9334 0.39061 0.88513 0.0
C302 C 0.87494 0.38576 0.92122 0.0
O303 O 0.85166 0.41547 0.99036 0.0
O304 O 0.88603 0.43932 0.96898 0.0
N305 N 0.9632 0.34412 0.96578 0.0
C306 C 0.95828 0.32137 0.98811 0.0
C307 C 0.97925 0.28562 0.99327 0.0
C308 C 0.00986 0.27105 0.97397 0.0
C309 C 0.01902 0.29132 0.94797 0.0
C310 C 0.98756 0.34128 0.94744 0.0
H311 H 0.93964 0.32662 -6e-05 0.0
O312 O 0.9218 0.39923 0.99665 0.0
O313 O 0.92722 0.39138 0.95968 0.0
O314 O 0.87792 0.34407 0.98082 0.0
O315 O 0.90519 0.32438 0.95248 0.0
C316 C 0.04256 0.28333 0.92612 0.0
C317 C 0.04886 0.30483 0.90243 0.0
H318 H 0.02905 0.34215 0.88041 0.0
H319 H 0.97028 0.37616 0.84833 0.0
H320 H 0.9756 0.27482 0.01 0.0
H321 H 0.02839 0.25762 0.98123 0.0
H322 H 0.05488 0.26165 0.92714 0.0
H323 H 0.06284 0.29323 0.88997 0.0
Mn324 Mn 0.3725 0.13676 0.71985 0.0
Mn325 Mn 0.4101 0.18497 0.68991 0.0
C326 C 0.36441 0.19037 0.72773 0.0
C327 C 0.32615 0.10968 0.72849 0.0
C328 C 0.44496 0.13758 0.71758 0.0
O329 O 0.37791 0.1157 0.68673 0.0
O330 O 0.39171 0.15799 0.6656 0.0
C331 C 0.36858 0.23275 0.65708 0.0
N332 N 0.39337 0.22233 0.67275 0.0
C333 C 0.44409 0.28333 0.65925 0.0
C334 C 0.41886 0.29767 0.64176 0.0
C335 C 0.36987 0.26378 0.64209 0.0
C336 C 0.42084 0.23801 0.67807 0.0
H337 H 0.34871 0.21797 0.65472 0.0
C338 C 0.38023 0.13044 0.66705 0.0
O339 O 0.3527 0.10018 0.73624 0.0
O340 O 0.32688 0.13332 0.7149 0.0
N341 N 0.42558 0.20876 0.71725 0.0
C342 C 0.44583 0.20268 0.74041 0.0
C343 C 0.46935 0.23044 0.75527 0.0
C344 C 0.47408 0.27039 0.74749 0.0
C345 C 0.45494 0.28506 0.72172 0.0
C346 C 0.42158 0.23901 0.70479 0.0
H347 H 0.44416 0.18049 0.74855 0.0
O348 O 0.36287 0.17026 0.74443 0.0
O349 O 0.37338 0.17844 0.70815 0.0
O350 O 0.42129 0.13246 0.73071 0.0
O351 O 0.43935 0.1508 0.69848 0.0
C352 C 0.46896 0.3106 0.70222 0.0
C353 C 0.46433 0.30899 0.67425 0.0
H354 H 0.42419 0.32018 0.63396 0.0
H355 H 0.34768 0.26693 0.63314 0.0
H356 H 0.48041 0.22275 0.77113 0.0
H357 H 0.46625 0.28336 0.73406 0.0
H358 H 0.48475 0.32797 0.70863 0.0
H359 H 0.47415 0.32811 0.66556 0.0
Mn360 Mn 0.62257 0.61617 0.46636 0.0
Mn361 Mn 0.56925 0.64267 0.43237 0.0
C362 C 0.56983 0.60775 0.47814 0.0
C363 C 0.64973 0.56966 0.47687 0.0
C364 C 0.6105 0.68878 0.46134 0.0
O365 O 0.64456 0.61877 0.43352 0.0
O366 O 0.60304 0.63085 0.41187 0.0
C367 C 0.54681 0.59472 0.38858 0.0
N368 N 0.54356 0.61229 0.41347 0.0
C369 C 0.46675 0.62673 0.39424 0.0
C370 C 0.47762 0.60487 0.36918 0.0
C371 C 0.51662 0.58986 0.36691 0.0
C372 C 0.51495 0.62864 0.42208 0.0
H373 H 0.56951 0.58734 0.38348 0.0
C374 C 0.63087 0.62192 0.41367 0.0
O375 O 0.6595 0.59664 0.48354 0.0
O376 O 0.626 0.57009 0.46361 0.0
N377 N 0.5364 0.65508 0.45309 0.0
C378 C 0.53015 0.66389 0.47693 0.0
C379 C 0.50134 0.68289 0.48412 0.0
C380 C 0.46649 0.7093 0.45315 0.0
C381 C 0.47723 0.69733 0.42747 0.0
C382 C 0.51966 0.66057 0.43329 0.0
H383 H 0.54828 0.66173 0.48972 0.0
O384 O 0.59195 0.60962 0.49318 0.0
O385 O 0.57941 0.61282 0.45677 0.0
O386 O 0.62426 0.66672 0.47283 0.0
O387 O 0.59197 0.68061 0.44506 0.0
C388 C 0.44893 0.68975 0.40872 0.0
C389 C 0.44389 0.65728 0.39366 0.0
H390 H 0.4615 0.60236 0.35494 0.0
H391 H 0.52263 0.57723 0.35134 0.0
H392 H 0.50056 0.68395 0.5032 0.0
H393 H 0.44511 0.72276 0.45446 0.0
H394 H 0.42988 0.70585 0.40895 0.0
H395 H 0.42472 0.65643 0.3816 0.0
Mn396 Mn 0.14734 0.86985 0.21778 0.0
Mn397 Mn 0.10624 0.82512 0.18901 0.0
C398 C 0.15345 0.81591 0.22537 0.0
C399 C 0.19536 0.89509 0.22502 0.0
C400 C 0.07658 0.87268 0.21597 0.0
O401 O 0.14045 0.89097 0.1846 0.0
O402 O 0.12529 0.84852 0.16419 0.0
C403 C 0.14044 0.77577 0.15493 0.0
N404 N 0.11802 0.78722 0.17184 0.0
C405 C 0.06046 0.73372 0.15822 0.0
C406 C 0.08352 0.71748 0.13975 0.0
C407 C 0.13525 0.74572 0.13952 0.0
C408 C 0.08886 0.77534 0.17721 0.0
H409 H 0.16062 0.78972 0.15139 0.0
C410 C 0.13634 0.87597 0.16514 0.0
O411 O 0.16969 0.90552 0.23367 0.0
O412 O 0.19279 0.87167 0.21138 0.0
N413 N 0.08896 0.80358 0.21725 0.0
C414 C 0.07026 0.81068 0.24111 0.0
C415 C 0.04491 0.78467 0.25606 0.0
C416 C 0.03641 0.74571 0.24749 0.0
C417 C 0.05245 0.73035 0.221 0.0
C418 C 0.08932 0.77354 0.20403 0.0
H419 H 0.07257 0.8329 0.24923 0.0
O420 O 0.15672 0.83594 0.24199 0.0
O421 O 0.1446 0.82813 0.20587 0.0
O422 O 0.09922 0.87543 0.23034 0.0
O423 O 0.08464 0.86358 0.19643 0.0
C424 C 0.03537 0.70744 0.20178 0.0
C425 C 0.03861 0.70944 0.17319 0.0
H426 H 0.07616 0.69602 0.13181 0.0
H427 H 0.15648 0.74105 0.12967 0.0
H428 H 0.03513 0.79282 0.27223 0.0
H429 H 0.02253 0.73162 0.25899 0.0
H430 H 0.01915 0.69073 0.20779 0.0
H431 H 0.0285 0.69062 0.16349 0.0
Mn432 Mn 0.89085 0.61336 0.01996 0.0
Mn433 Mn 0.94401 0.64694 0.04955 0.0
C434 C 0.9441 0.60541 0.01092 0.0
C435 C 0.86381 0.56659 0.01204 0.0
C436 C 0.89526 0.68569 0.02515 0.0
O437 O 0.8717 0.61742 0.0533 0.0
O438 O 0.91529 0.63064 0.07311 0.0
C439 C 0.98742 0.59697 0.08062 0.0
N440 N 0.97691 0.62195 0.06545 0.0
C441 C 0.0107 0.68167 0.09727 0.0
C442 C 0.02587 0.65633 0.11465 0.0
C443 C 0.01043 0.60196 0.10176 0.0
C444 C 0.98321 0.65376 0.0666 0.0
H445 H 0.97581 0.57505 0.07969 0.0
C446 C 0.88759 0.6199 0.07235 0.0
O447 O 0.85342 0.59304 0.00464 0.0
O448 O 0.88856 0.56765 0.02433 0.0
N449 N 0.96949 0.66208 0.02299 0.0
C450 C 0.96537 0.68653 0.00212 0.0
C451 C 0.98944 0.71919 0.9967 0.0
C452 C 0.02242 0.7312 0.01399 0.0
C453 C 0.03219 0.7096 0.03989 0.0
C454 C 0.99366 0.66208 0.04163 0.0
H455 H 0.94546 0.68387 0.99095 0.0
O456 O 0.92392 0.60472 0.99421 0.0
O457 O 0.93243 0.61383 0.03034 0.0
O458 O 0.8856 0.66303 0.01225 0.0
O459 O 0.91399 0.67953 0.04126 0.0
C460 C 0.04439 0.72361 0.06588 0.0
C461 C 0.03337 0.71145 0.09158 0.0
H462 H 0.04066 0.66461 0.12851 0.0
H463 H 0.01605 0.57928 0.10928 0.0
H464 H 0.984 0.73203 0.9811 0.0
H465 H 0.03184 0.72327 0.02904 0.0
H466 H 0.05967 0.74309 0.06519 0.0
H467 H 0.04328 0.72303 0.10626 0.0
Mn468 Mn 0.16005 0.13576 0.77809 0.0
Mn469 Mn 0.12736 0.18075 0.8139 0.0
C470 C 0.16738 0.18992 0.77046 0.0
C471 C 0.2053 0.10789 0.7682 0.0
C472 C 0.08927 0.13979 0.7812 0.0
O473 O 0.15015 0.10974 0.80859 0.0
O474 O 0.14932 0.15019 0.83248 0.0
C475 C 0.15395 0.21033 0.86452 0.0
N476 N 0.14288 0.21152 0.83747 0.0
C477 C 0.1093 0.28373 0.85388 0.0
C478 C 0.12673 0.27572 0.88246 0.0
C479 C 0.14757 0.23987 0.8865 0.0
C480 C 0.12303 0.23647 0.82675 0.0
H481 H 0.16469 0.1892 0.87052 0.0
C482 C 0.15107 0.12124 0.82933 0.0
O483 O 0.17843 0.10001 0.76001 0.0
O484 O 0.20533 0.12991 0.78329 0.0
N485 N 0.10814 0.21067 0.7931 0.0
C486 C 0.10453 0.21669 0.76835 0.0
C487 C 0.08237 0.24172 0.75825 0.0
C488 C 0.04323 0.2698 0.78447 0.0
C489 C 0.05061 0.26061 0.81152 0.0
C490 C 0.09505 0.22588 0.81145 0.0
H491 H 0.11353 0.20033 0.75599 0.0
O492 O 0.17003 0.16918 0.75437 0.0
O493 O 0.16074 0.17822 0.79096 0.0
O494 O 0.11186 0.13508 0.76712 0.0
O495 O 0.09611 0.15077 0.80096 0.0
C496 C 0.04793 0.28955 0.83025 0.0
C497 C 0.07465 0.30112 0.84872 0.0
H498 H 0.11514 0.28513 0.86864 0.0
H499 H 0.15672 0.2354 0.90367 0.0
H500 H 0.08629 0.24324 0.73942 0.0
H501 H 0.02739 0.289 0.78149 0.0
H502 H 0.02892 0.30531 0.82776 0.0
H503 H 0.07012 0.32192 0.85836 0.0
Mn504 Mn 0.62592 0.39737 0.52269 0.0
Mn505 Mn 0.57652 0.37323 0.55952 0.0
C506 C 0.57286 0.38885 0.51035 0.0
C507 C 0.64792 0.44571 0.51163 0.0
C508 C 0.62796 0.33157 0.53892 0.0
O509 O 0.64675 0.39905 0.55666 0.0
O510 O 0.60148 0.40601 0.57292 0.0
C511 C 0.54705 0.43828 0.578 0.0
N512 N 0.542 0.40589 0.56359 0.0
C513 C 0.48725 0.38951 0.60869 0.0
C514 C 0.49937 0.42734 0.62037 0.0
C515 C 0.52823 0.44948 0.60498 0.0
C516 C 0.51784 0.381 0.56877 0.0
H517 H 0.56543 0.4534 0.57227 0.0
C518 C 0.63034 0.4055 0.57477 0.0
O519 O 0.66189 0.41977 0.50705 0.0
O520 O 0.62206 0.44342 0.52248 0.0
N521 N 0.55258 0.33683 0.54683 0.0
C522 C 0.56637 0.30142 0.54492 0.0
C523 C 0.55937 0.26995 0.56581 0.0
C524 C 0.53596 0.27394 0.59156 0.0
C525 C 0.51682 0.30978 0.59758 0.0
C526 C 0.52975 0.34835 0.56537 0.0
H527 H 0.57628 0.29486 0.5285 0.0
O528 O 0.59371 0.39481 0.49483 0.0
O529 O 0.58445 0.38905 0.53056 0.0
O530 O 0.63419 0.34923 0.52147 0.0
O531 O 0.61327 0.34297 0.55663 0.0
C532 C 0.4962 0.32127 0.62036 0.0
C533 C 0.48217 0.35698 0.62548 0.0
H534 H 0.48916 0.40628 0.61754 0.0
H535 H 0.53507 0.47131 0.61256 0.0
H536 H 0.5679 0.24717 0.56192 0.0
H537 H 0.53603 0.25601 0.60439 0.0
H538 H 0.49197 0.30353 0.63299 0.0
H539 H 0.47022 0.36184 0.64138 0.0
Mn540 Mn 0.36614 0.86564 0.26837 0.0
Mn541 Mn 0.40202 0.81462 0.29779 0.0
C542 C 0.35706 0.81182 0.26115 0.0
C543 C 0.31946 0.89258 0.25957 0.0
C544 C 0.43907 0.86199 0.27164 0.0
O545 O 0.37165 0.88591 0.30149 0.0
O546 O 0.38778 0.84344 0.32162 0.0
C547 C 0.35491 0.77349 0.33192 0.0
N548 N 0.37897 0.7821 0.31525 0.0
C549 C 0.438 0.73969 0.34176 0.0
C550 C 0.41364 0.72633 0.36005 0.0
C551 C 0.35987 0.74842 0.35184 0.0
C552 C 0.40983 0.77232 0.31399 0.0
H553 H 0.33454 0.78777 0.33306 0.0
C554 C 0.37661 0.8709 0.32074 0.0
O555 O 0.346 0.9023 0.25198 0.0
O556 O 0.32039 0.8689 0.27305 0.0
N557 N 0.41527 0.78885 0.27086 0.0
C558 C 0.43795 0.79223 0.24877 0.0
C559 C 0.4675 0.76547 0.24058 0.0
C560 C 0.47738 0.73017 0.25569 0.0
C561 C 0.45722 0.72041 0.28223 0.0
C562 C 0.41452 0.76322 0.28831 0.0
H563 H 0.43631 0.81315 0.23859 0.0
O564 O 0.35614 0.83115 0.24389 0.0
O565 O 0.36668 0.82449 0.28001 0.0
O566 O 0.41551 0.87049 0.25919 0.0
O567 O 0.43414 0.84426 0.28846 0.0
C568 C 0.4723 0.70457 0.30658 0.0
C569 C 0.46411 0.71425 0.33337 0.0
H570 H 0.42177 0.70781 0.37104 0.0
H571 H 0.33772 0.74425 0.36062 0.0
H572 H 0.47985 0.77073 0.22473 0.0
H573 H 0.46981 0.72035 0.27062 0.0
H574 H 0.48991 0.68763 0.30365 0.0
H575 H 0.47424 0.69997 0.34682 0.0
Mn576 Mn 0.61761 0.12357 0.53133 0.0
Mn577 Mn 0.57177 0.14888 0.5739 0.0
C578 C 0.56455 0.1323 0.52222 0.0
C579 C 0.6387 0.07634 0.51745 0.0
C580 C 0.61459 0.19351 0.54478 0.0
O581 O 0.64522 0.11749 0.56063 0.0
O582 O 0.60926 0.12872 0.5866 0.0
C583 C 0.55763 0.07855 0.59898 0.0
N584 N 0.54954 0.11036 0.58528 0.0
C585 C 0.47248 0.0925 0.60205 0.0
C586 C 0.48939 0.05912 0.61538 0.0
C587 C 0.53051 0.0532 0.61369 0.0
C588 C 0.51782 0.12402 0.58238 0.0
H589 H 0.58128 0.07254 0.60019 0.0
C590 C 0.63558 0.11774 0.58149 0.0
O591 O 0.65145 0.1027 0.51214 0.0
O592 O 0.61387 0.07781 0.52962 0.0
N593 N 0.53207 0.17224 0.56761 0.0
C594 C 0.52136 0.19574 0.55128 0.0
C595 C 0.48831 0.21164 0.55216 0.0
C596 C 0.45036 0.20073 0.58561 0.0
C597 C 0.46533 0.17562 0.60281 0.0
C598 C 0.515 0.15943 0.58605 0.0
H599 H 0.5375 0.20392 0.53835 0.0
O600 O 0.58503 0.1283 0.50618 0.0
O601 O 0.57569 0.12984 0.54322 0.0
O602 O 0.62543 0.17216 0.53118 0.0
O603 O 0.59594 0.18682 0.56192 0.0
C604 C 0.44077 0.15021 0.61403 0.0
C605 C 0.44407 0.11224 0.61346 0.0
H606 H 0.47555 0.04442 0.62646 0.0
H607 H 0.53994 0.03335 0.62267 0.0
H608 H 0.48533 0.22515 0.53632 0.0
H609 H 0.426 0.20637 0.58834 0.0
H610 H 0.41941 0.15935 0.62093 0.0
H611 H 0.42956 0.09946 0.62483 0.0
Mn612 Mn 0.13458 0.37558 0.76664 0.0
Mn613 Mn 0.1012 0.32177 0.7965 0.0
C614 C 0.14302 0.32225 0.75778 0.0
C615 C 0.18017 0.40356 0.75876 0.0
C616 C 0.06237 0.36855 0.76946 0.0
O617 O 0.12951 0.39558 0.79969 0.0
O618 O 0.11429 0.35296 0.81969 0.0
C619 C 0.1551 0.28559 0.82896 0.0
N620 N 0.12806 0.29218 0.81434 0.0
C621 C 0.07701 0.24477 0.84459 0.0
C622 C 0.10491 0.23432 0.86185 0.0
C623 C 0.1549 0.26128 0.84965 0.0
C624 C 0.0988 0.27856 0.81483 0.0
H625 H 0.17558 0.29954 0.82701 0.0
C626 C 0.12504 0.38063 0.81891 0.0
O627 O 0.15353 0.41325 0.75123 0.0
O628 O 0.17994 0.37894 0.77129 0.0
N629 N 0.08845 0.29245 0.77156 0.0
C630 C 0.06394 0.29239 0.75044 0.0
C631 C 0.03675 0.2624 0.74408 0.0
C632 C 0.03102 0.22727 0.76045 0.0
C633 C 0.05415 0.22062 0.78636 0.0
C634 C 0.09302 0.26782 0.78958 0.0
H635 H 0.06269 0.31284 0.73971 0.0
O636 O 0.14428 0.34246 0.74112 0.0
O637 O 0.13405 0.334 0.7771 0.0
O638 O 0.08563 0.38 0.75826 0.0
O639 O 0.06739 0.34873 0.78514 0.0
C640 C 0.04274 0.20463 0.81198 0.0
C641 C 0.05264 0.21665 0.83814 0.0
H642 H 0.09978 0.21615 0.87458 0.0
H643 H 0.1784 0.25955 0.8568 0.0
H644 H 0.0241 0.26519 0.728 0.0
H645 H 0.0406 0.21884 0.77537 0.0
H646 H 0.02543 0.18661 0.81107 0.0
H647 H 0.04397 0.20346 0.85267 0.0
Mn648 Mn 0.87592 0.89687 0.03345 0.0
Mn649 Mn 0.92311 0.86451 0.06913 0.0
C650 C 0.92863 0.90664 0.02541 0.0
C651 C 0.8453 0.93968 0.02304 0.0
C652 C 0.88493 0.82548 0.03621 0.0
O653 O 0.85121 0.89012 0.06458 0.0
O654 O 0.891 0.88072 0.08889 0.0
C655 C 0.95296 0.89606 0.11823 0.0
N656 N 0.95337 0.88454 0.0913 0.0
C657 C 0.03174 0.8644 0.10377 0.0
C658 C 0.02363 0.88087 0.13267 0.0
C659 C 0.98521 0.89537 0.13855 0.0
C660 C 0.98026 0.86917 0.07931 0.0
H661 H 0.93103 0.90346 0.12527 0.0
C662 C 0.86332 0.88919 0.0851 0.0
O663 O 0.83872 0.91208 0.0156 0.0
O664 O 0.86822 0.9419 0.03731 0.0
N665 N 0.95378 0.84917 0.04747 0.0
C666 C 0.95757 0.84617 0.02246 0.0
C667 C 0.98505 0.82869 0.01087 0.0
C668 C 0.02237 0.79561 0.03539 0.0
C669 C 0.01513 0.80188 0.06287 0.0
C670 C 0.97318 0.83946 0.06483 0.0
H671 H 0.93876 0.85257 0.01113 0.0
O672 O 0.90769 0.90709 0.00929 0.0
O673 O 0.91805 0.89919 0.04635 0.0
O674 O 0.8775 0.84839 0.02306 0.0
O675 O 0.89492 0.8319 0.05633 0.0
C676 C 0.046 0.80482 0.07999 0.0
C677 C 0.05433 0.83325 0.09794 0.0
H678 H 0.03353 0.87075 0.11847 0.0
H679 H 0.98103 0.90473 0.15566 0.0
H680 H 0.98374 0.83228 0.99198 0.0
H681 H 0.04347 0.78287 0.0312 0.0
H682 H 0.06507 0.78954 0.07669 0.0
H683 H 0.07545 0.83106 0.10791 0.0
Mn684 Mn 0.35505 0.62393 0.28149 0.0
Mn685 Mn 0.39371 0.67278 0.31324 0.0
C686 C 0.34784 0.67766 0.27307 0.0
C687 C 0.3084 0.59761 0.27375 0.0
C688 C 0.42725 0.62985 0.27858 0.0
O689 O 0.36173 0.60025 0.3131 0.0
O690 O 0.38265 0.6389 0.33418 0.0
C691 C 0.36786 0.69754 0.36557 0.0
N692 N 0.37546 0.70046 0.33789 0.0
C693 C 0.40325 0.77511 0.35356 0.0
C694 C 0.39089 0.76485 0.38241 0.0
C695 C 0.37424 0.7271 0.3876 0.0
C696 C 0.3911 0.72769 0.32634 0.0
H697 H 0.36123 0.6751 0.37203 0.0
C698 C 0.37008 0.61234 0.33265 0.0
O699 O 0.33443 0.58801 0.26521 0.0
O700 O 0.30981 0.62112 0.28746 0.0
N701 N 0.40485 0.70526 0.29109 0.0
C702 C 0.40639 0.71199 0.26629 0.0
C703 C 0.42499 0.73975 0.25581 0.0
C704 C 0.46341 0.77048 0.28124 0.0
C705 C 0.45922 0.75965 0.3082 0.0
C706 C 0.41829 0.72055 0.30927 0.0
H707 H 0.39889 0.69456 0.25411 0.0
O708 O 0.34573 0.65664 0.25709 0.0
O709 O 0.35665 0.6668 0.2935 0.0
O710 O 0.40276 0.61839 0.26916 0.0
O711 O 0.42342 0.64799 0.29547 0.0
C712 C 0.46032 0.78805 0.32771 0.0
C713 C 0.43429 0.79563 0.34787 0.0
H714 H 0.39662 0.77955 0.39699 0.0
H715 H 0.37043 0.7204 0.40538 0.0
H716 H 0.41977 0.74144 0.23715 0.0
H717 H 0.47742 0.79109 0.27802 0.0
H718 H 0.47689 0.80615 0.32482 0.0
H719 H 0.4377 0.81608 0.35825 0.0
Mn720 Mn 0.61523 0.90451 0.48072 0.0
Mn721 Mn 0.5638 0.88426 0.44321 0.0
C722 C 0.5617 0.91462 0.48817 0.0
C723 C 0.6428 0.95078 0.49014 0.0
C724 C 0.6075 0.83421 0.46634 0.0
O725 O 0.63725 0.90251 0.44852 0.0
O726 O 0.59502 0.91068 0.42706 0.0
C727 C 0.55651 0.8758 0.38429 0.0
N728 N 0.54895 0.87186 0.41173 0.0
C729 C 0.4825 0.83158 0.39173 0.0
C730 C 0.49802 0.8399 0.36268 0.0
C731 C 0.53389 0.86075 0.36036 0.0
C732 C 0.521 0.8564 0.42209 0.0
H733 H 0.57567 0.89039 0.37967 0.0
C734 C 0.62448 0.9118 0.42948 0.0
O735 O 0.65276 0.92395 0.49716 0.0
O736 O 0.61811 0.95032 0.47796 0.0
N737 N 0.5337 0.85743 0.46122 0.0
C738 C 0.52029 0.85889 0.48467 0.0
C739 C 0.49372 0.8378 0.49411 0.0
C740 C 0.476 0.79048 0.47121 0.0
C741 C 0.49332 0.79013 0.44613 0.0
C742 C 0.52633 0.83607 0.44386 0.0
H743 H 0.53316 0.86887 0.49859 0.0
O744 O 0.58043 0.91453 0.50576 0.0
O745 O 0.57485 0.90254 0.47068 0.0
O746 O 0.61563 0.85356 0.48292 0.0
O747 O 0.59273 0.84549 0.44821 0.0
C748 C 0.47118 0.77933 0.42437 0.0
C749 C 0.46546 0.79781 0.40009 0.0
H750 H 0.48518 0.83255 0.3765 0.0
H751 H 0.54242 0.8652 0.34305 0.0
H752 H 0.48655 0.84651 0.51123 0.0
H753 H 0.45577 0.77556 0.47289 0.0
H754 H 0.45593 0.76007 0.42721 0.0
H755 H 0.45246 0.78481 0.38774 0.0
Mn756 Mn 0.35171 0.37863 0.72138 0.0
Mn757 Mn 0.39331 0.33089 0.69053 0.0
C758 C 0.34555 0.32392 0.72693 0.0
C759 C 0.30416 0.40362 0.72859 0.0
C760 C 0.42456 0.37348 0.72547 0.0
O761 O 0.35824 0.40363 0.69085 0.0
O762 O 0.38528 0.3678 0.67086 0.0
C763 C 0.36857 0.31801 0.63746 0.0
N764 N 0.37477 0.30821 0.66431 0.0
C765 C 0.41782 0.24725 0.63892 0.0
C766 C 0.40545 0.26387 0.61197 0.0
C767 C 0.38209 0.2981 0.61196 0.0
C768 C 0.39469 0.28131 0.67246 0.0
H769 H 0.35677 0.33922 0.63434 0.0
C770 C 0.3704 0.39339 0.67197 0.0
O771 O 0.32961 0.41337 0.73806 0.0
O772 O 0.30654 0.38027 0.71481 0.0
N773 N 0.40163 0.29446 0.71146 0.0
C774 C 0.40207 0.27987 0.7343 0.0
C775 C 0.42432 0.25285 0.74107 0.0
C776 C 0.47008 0.23788 0.71462 0.0
C777 C 0.46627 0.25659 0.68991 0.0
C778 C 0.41877 0.28733 0.69244 0.0
H779 H 0.39229 0.29219 0.74879 0.0
O780 O 0.34242 0.34306 0.74416 0.0
O781 O 0.35552 0.33719 0.708 0.0
O782 O 0.39944 0.38602 0.73313 0.0
O783 O 0.42243 0.35324 0.71007 0.0
C784 C 0.47447 0.23666 0.66606 0.0
C785 C 0.4522 0.23221 0.643 0.0
H786 H 0.4136 0.2552 0.5959 0.0
H787 H 0.3771 0.3089 0.59553 0.0
H788 H 0.41757 0.24422 0.75831 0.0
H789 H 0.48635 0.21866 0.71502 0.0
H790 H 0.49485 0.22251 0.66653 0.0
H791 H 0.46228 0.22164 0.6284 0.0
Mn792 Mn 0.86079 0.10585 0.96988 0.0
Mn793 Mn 0.89297 0.1263 0.95313 0.0
C794 C 0.915 0.08181 0.98153 0.0
C795 C 0.83433 0.05827 0.9816 0.0
C796 C 0.86585 0.17946 0.96346 0.0
O797 O 0.83177 0.11146 0.94015 0.0
O798 O 0.87627 0.1098 0.9249 0.0
C799 C 0.94161 0.10505 0.91917 0.0
N800 N 0.92909 0.12854 0.93504 0.0
C801 C 0.97896 0.18568 0.92049 0.0
C802 C 0.99448 0.164 0.90153 0.0
C803 C 0.96964 0.11138 0.90245 0.0
C804 C 0.94065 0.15828 0.94126 0.0
H805 H 0.93005 0.08295 0.91785 0.0
C806 C 0.84807 0.108 0.92198 0.0
O807 O 0.82905 0.08433 0.99122 0.0
O808 O 0.85327 0.05979 0.96485 0.0
N809 N 0.91601 0.14436 0.97875 0.0
C810 C 0.91101 0.14871 0.00214 0.0
C811 C 0.93415 0.15926 0.01725 0.0
C812 C 0.9626 0.17025 0.00966 0.0
C813 C 0.96735 0.17504 0.9837 0.0
C814 C 0.93941 0.15782 0.96833 0.0
H815 H 0.88948 0.14195 0.01017 0.0
O816 O 0.89487 0.0923 0.99572 0.0
O817 O 0.90505 0.08607 0.96127 0.0
O818 O 0.8583 0.15745 0.97805 0.0
O819 O 0.87906 0.16915 0.94539 0.0
C820 C 0.00617 0.20654 0.95833 0.0
C821 C 0.00356 0.20664 0.93157 0.0
H822 H 0.0145 0.17338 0.89217 0.0
H823 H 0.97485 0.09013 0.89273 0.0
H824 H 0.92997 0.15842 0.03578 0.0
H825 H 0.96852 0.1749 0.99406 0.0
H826 H 0.02803 0.21762 0.96251 0.0
H827 H 0.02208 0.21617 0.92118 0.0
Mn828 Mn 0.14413 0.62915 0.22314 0.0
Mn829 Mn 0.11 0.67828 0.18875 0.0
C830 C 0.15641 0.68255 0.22702 0.0
C831 C 0.18819 0.60097 0.23505 0.0
C832 C 0.07099 0.63858 0.22197 0.0
O833 O 0.139 0.60338 0.19331 0.0
O834 O 0.11847 0.64053 0.17015 0.0
C835 C 0.13098 0.69169 0.13415 0.0
N836 N 0.12696 0.70116 0.16138 0.0
C837 C 0.08912 0.76775 0.13773 0.0
C838 C 0.0991 0.75056 0.10954 0.0
C839 C 0.1188 0.71392 0.10906 0.0
C840 C 0.1103 0.72983 0.17029 0.0
H841 H 0.13841 0.66861 0.13032 0.0
C842 C 0.13192 0.6143 0.17323 0.0
O843 O 0.16087 0.59401 0.24271 0.0
O844 O 0.18958 0.62292 0.21997 0.0
N845 N 0.10359 0.71553 0.20912 0.0
C846 C 0.10579 0.72951 0.23219 0.0
C847 C 0.08689 0.75857 0.24008 0.0
C848 C 0.04169 0.77889 0.21536 0.0
C849 C 0.04242 0.76104 0.19018 0.0
C850 C 0.08674 0.72566 0.19071 0.0
H851 H 0.11372 0.71544 0.24642 0.0
O852 O 0.15437 0.66471 0.24514 0.0
O853 O 0.14665 0.66979 0.20772 0.0
O854 O 0.09468 0.62615 0.23206 0.0
O855 O 0.07615 0.65776 0.20601 0.0
C856 C 0.03466 0.78272 0.16749 0.0
C857 C 0.0554 0.78644 0.14399 0.0
H858 H 0.09119 0.76435 0.12265 0.0
H859 H 0.12291 0.7037 0.09225 0.0
H860 H 0.09516 0.7657 0.25735 0.0
H861 H 0.02689 0.79926 0.21699 0.0
H862 H 0.01612 0.79912 0.16929 0.0
H863 H 0.04379 0.79848 0.1304 0.0
Mn864 Mn 0.37657 0.88998 0.46916 0.0
Mn865 Mn 0.42594 0.84842 0.44326 0.0
C866 C 0.42917 0.89659 0.47958 0.0
C867 C 0.35185 0.93839 0.47463 0.0
C868 C 0.37597 0.81758 0.47079 0.0
O869 O 0.35766 0.88217 0.43583 0.0
O870 O 0.4002 0.86296 0.41767 0.0
C871 C 0.47353 0.88435 0.40696 0.0
N872 N 0.46276 0.8626 0.42469 0.0
C873 C 0.51853 0.80607 0.41278 0.0
C874 C 0.53292 0.82751 0.39249 0.0
C875 C 0.50286 0.87854 0.39082 0.0
C876 C 0.47628 0.83461 0.43123 0.0
H877 H 0.46007 0.90498 0.40389 0.0
C878 C 0.3733 0.87536 0.41726 0.0
O879 O 0.34019 0.91312 0.4831 0.0
O880 O 0.37598 0.93512 0.46185 0.0
N881 N 0.44898 0.83622 0.47147 0.0
C882 C 0.44269 0.81867 0.49593 0.0
C883 C 0.47019 0.79543 0.5117 0.0
C884 C 0.50971 0.78816 0.50345 0.0
C885 C 0.52421 0.80446 0.47591 0.0
C886 C 0.47876 0.83748 0.45793 0.0
H887 H 0.42011 0.8208 0.50353 0.0
O888 O 0.4076 0.89993 0.49501 0.0
O889 O 0.4191 0.88688 0.45951 0.0
O890 O 0.36929 0.84264 0.4819 0.0
O891 O 0.39251 0.82017 0.453 0.0
C892 C 0.5477 0.78665 0.45637 0.0
C893 C 0.5446 0.78758 0.42804 0.0
H894 H 0.55399 0.81945 0.38401 0.0
H895 H 0.50632 0.89911 0.3799 0.0
H896 H 0.4625 0.7858 0.52804 0.0
H897 H 0.52273 0.79435 0.48929 0.0
H898 H 0.56267 0.76904 0.46288 0.0
H899 H 0.56389 0.77833 0.41834 0.0
Mn900 Mn 0.85838 0.62921 0.21712 0.0
Mn901 Mn 0.89042 0.68071 0.18269 0.0
C902 C 0.85191 0.68256 0.22631 0.0
C903 C 0.81218 0.60241 0.22638 0.0
C904 C 0.93068 0.63923 0.21565 0.0
O905 O 0.86361 0.60518 0.18597 0.0
O906 O 0.88 0.64487 0.16381 0.0
C907 C 0.84791 0.69931 0.1349 0.0
N908 N 0.86322 0.70534 0.16032 0.0
C909 C 0.88749 0.77672 0.13504 0.0
C910 C 0.86666 0.76286 0.10919 0.0
C911 C 0.8484 0.7254 0.11021 0.0
C912 C 0.88154 0.73376 0.16725 0.0
H913 H 0.83796 0.67692 0.13173 0.0
C914 C 0.87003 0.6174 0.16619 0.0
O915 O 0.83876 0.59293 0.23419 0.0
O916 O 0.81282 0.62602 0.21283 0.0
N917 N 0.90198 0.71589 0.20177 0.0
C918 C 0.9096 0.72537 0.22522 0.0
C919 C 0.9314 0.75283 0.23065 0.0
C920 C 0.96454 0.77842 0.19846 0.0
C921 C 0.95353 0.76471 0.17345 0.0
C922 C 0.91146 0.72791 0.18084 0.0
H923 H 0.90528 0.70962 0.23936 0.0
O924 O 0.85082 0.66146 0.24225 0.0
O925 O 0.85834 0.67177 0.20557 0.0
O926 O 0.90736 0.62593 0.22562 0.0
O927 O 0.92539 0.65846 0.19927 0.0
C928 C 0.95137 0.79009 0.15211 0.0
C929 C 0.92143 0.79657 0.13499 0.0
H930 H 0.87935 0.77523 0.12091 0.0
H931 H 0.83687 0.71763 0.09459 0.0
H932 H 0.93075 0.75698 0.24951 0.0
H933 H 0.97995 0.79842 0.1985 0.0
H934 H 0.97027 0.80611 0.15111 0.0
H935 H 0.92412 0.81368 0.12145 0.0
Mn936 Mn 0.10216 0.11382 0.97147 0.0
Mn937 Mn 0.04609 0.14927 0.94365 0.0
C938 C 0.04911 0.10573 0.9818 0.0
C939 C 0.12969 0.06667 0.97794 0.0
C940 C 0.09647 0.1866 0.97064 0.0
O941 O 0.12135 0.1209 0.93871 0.0
O942 O 0.07874 0.13984 0.92047 0.0
C943 C 0.02264 0.11828 0.89476 0.0
N944 N 0.01647 0.12384 0.92244 0.0
C945 C 0.94453 0.15616 0.90139 0.0
C946 C 0.96003 0.14695 0.87262 0.0
C947 C 0.99753 0.1291 0.87052 0.0
C948 C 0.98638 0.13644 0.93278 0.0
H949 H 0.04354 0.10613 0.8903 0.0
C950 C 0.10672 0.12937 0.92016 0.0
O951 O 0.14004 0.09291 0.98572 0.0
O952 O 0.10459 0.0681 0.966 0.0
N953 N 0.01678 0.15794 0.97056 0.0
C954 C 0.02114 0.18204 0.99237 0.0
C955 C 0.99748 0.21656 0.99736 0.0
C956 C 0.96474 0.22777 0.97871 0.0
C957 C 0.95584 0.20598 0.95367 0.0
C958 C 0.99096 0.15848 0.9527 0.0
H959 H 0.04108 0.17905 0.0035 0.0
O960 O 0.07048 0.10427 0.99763 0.0
O961 O 0.05935 0.11478 0.96182 0.0
O962 O 0.10896 0.1626 0.98032 0.0
O963 O 0.07369 0.18225 0.95701 0.0
C964 C 0.93093 0.21215 0.93207 0.0
C965 C 0.92502 0.18974 0.90863 0.0
H966 H 0.9469 0.15437 0.88638 0.0
H967 H 0.00477 0.12297 0.85324 0.0
H968 H 0.00188 0.22935 0.01316 0.0
H969 H 0.9468 0.24309 0.98449 0.0
H970 H 0.91733 0.23298 0.93332 0.0
H971 H 0.90837 0.19763 0.89604 0.0
Mn972 Mn 0.63534 0.37644 0.72578 0.0
Mn973 Mn 0.59801 0.32465 0.69789 0.0
C974 C 0.64294 0.32298 0.73581 0.0
C975 C 0.6821 0.40312 0.73305 0.0
C976 C 0.56271 0.37305 0.72493 0.0
O977 O 0.62938 0.39582 0.69199 0.0
O978 O 0.61291 0.35291 0.6732 0.0
C979 C 0.64926 0.28517 0.66807 0.0
N980 N 0.62176 0.29213 0.68162 0.0
C981 C 0.57536 0.23507 0.65715 0.0
C982 C 0.60417 0.2239 0.6411 0.0
C983 C 0.65151 0.25729 0.65042 0.0
C984 C 0.59396 0.27611 0.68251 0.0
H985 H 0.66809 0.30134 0.66846 0.0
C986 C 0.62447 0.38025 0.67298 0.0
O987 O 0.65585 0.41373 0.74051 0.0
O988 O 0.6808 0.37867 0.72032 0.0
N989 N 0.58324 0.2978 0.72379 0.0
C990 C 0.55917 0.30014 0.74499 0.0
C991 C 0.53406 0.27016 0.75493 0.0
C992 C 0.53024 0.23179 0.74269 0.0
C993 C 0.5536 0.22153 0.71751 0.0
C994 C 0.58908 0.27023 0.70872 0.0
H995 H 0.55761 0.32191 0.75397 0.0
O996 O 0.64524 0.34409 0.75172 0.0
O997 O 0.63342 0.33416 0.71626 0.0
O998 O 0.58695 0.38213 0.73619 0.0
O999 O 0.56649 0.35493 0.70802 0.0
C1000 C 0.54369 0.19974 0.69407 0.0
C1001 C 0.55384 0.20649 0.66701 0.0
H1002 H 0.60083 0.20318 0.63041 0.0
H1003 H 0.67521 0.25633 0.6436 0.0
H1004 H 0.52217 0.27493 0.77108 0.0
H1005 H 0.54012 0.22101 0.72874 0.0
H1006 H 0.5282 0.18054 0.69698 0.0
H1007 H 0.55381 0.18685 0.65588 0.0
Mn1008 Mn 0.37986 0.11107 0.5194 0.0
Mn1009 Mn 0.42579 0.13939 0.55777 0.0
C1010 C 0.43253 0.12178 0.50801 0.0
C1011 C 0.35925 0.06274 0.5083 0.0
C1012 C 0.37289 0.17632 0.53444 0.0
O1013 O 0.35771 0.10934 0.55263 0.0
O1014 O 0.40278 0.10343 0.56946 0.0
C1015 C 0.48406 0.08464 0.56095 0.0
N1016 N 0.46472 0.1125 0.56303 0.0
C1017 C 0.49495 0.13519 0.6166 0.0
C1018 C 0.51688 0.10528 0.61741 0.0
C1019 C 0.50958 0.07437 0.5797 0.0
C1020 C 0.46834 0.13578 0.57892 0.0
H1021 H 0.47779 0.06774 0.54809 0.0
C1022 C 0.37367 0.10319 0.571 0.0
O1023 O 0.34489 0.08837 0.50353 0.0
O1024 O 0.38493 0.06518 0.51965 0.0
N1025 N 0.44723 0.1774 0.54893 0.0
C1026 C 0.43437 0.21239 0.54725 0.0
C1027 C 0.44826 0.24533 0.56263 0.0
C1028 C 0.47939 0.2461 0.58286 0.0
C1029 C 0.49998 0.21008 0.58947 0.0
C1030 C 0.47336 0.16624 0.56445 0.0
H1031 H 0.41956 0.21767 0.53325 0.0
O1032 O 0.41257 0.11348 0.49239 0.0
O1033 O 0.4205 0.12322 0.52808 0.0
O1034 O 0.36946 0.15795 0.51707 0.0
O1035 O 0.38693 0.16679 0.5532 0.0
C1036 C 0.51353 0.1996 0.61604 0.0
C1037 C 0.5096 0.16584 0.62816 0.0
H1038 H 0.53396 0.10404 0.63141 0.0
H1039 H 0.52124 0.05335 0.57355 0.0
H1040 H 0.43528 0.26621 0.56021 0.0
H1041 H 0.49371 0.22938 0.5891 0.0
H1042 H 0.52121 0.21793 0.62734 0.0
H1043 H 0.51654 0.16228 0.64583 0.0
Mn1044 Mn 0.63964 0.62986 0.26358 0.0
Mn1045 Mn 0.60237 0.68143 0.29228 0.0
C1046 C 0.64518 0.68485 0.25461 0.0
C1047 C 0.68757 0.60474 0.25655 0.0
C1048 C 0.56669 0.63276 0.26543 0.0
O1049 O 0.63637 0.6104 0.29752 0.0
O1050 O 0.61603 0.65183 0.31589 0.0
C1051 C 0.65406 0.71888 0.32466 0.0
N1052 N 0.62732 0.7115 0.31024 0.0
C1053 C 0.57442 0.75644 0.34057 0.0
C1054 C 0.60219 0.76813 0.35763 0.0
C1055 C 0.65301 0.74313 0.34497 0.0
C1056 C 0.59732 0.72314 0.31099 0.0
H1057 H 0.67492 0.70537 0.32284 0.0
C1058 C 0.62951 0.62557 0.31633 0.0
O1059 O 0.6618 0.59328 0.24881 0.0
O1060 O 0.68532 0.62979 0.26844 0.0
N1061 N 0.58778 0.7089 0.26728 0.0
C1062 C 0.56293 0.70726 0.24643 0.0
C1063 C 0.53414 0.73562 0.2401 0.0
C1064 C 0.52675 0.77067 0.25648 0.0
C1065 C 0.54978 0.77859 0.28224 0.0
C1066 C 0.59087 0.73343 0.28544 0.0
H1067 H 0.56246 0.68655 0.23592 0.0
O1068 O 0.64769 0.66459 0.23808 0.0
O1069 O 0.63652 0.67196 0.27359 0.0
O1070 O 0.59039 0.62089 0.25494 0.0
O1071 O 0.57176 0.65373 0.27992 0.0
C1072 C 0.53797 0.79438 0.30777 0.0
C1073 C 0.54866 0.78333 0.33393 0.0
H1074 H 0.5962 0.78534 0.37053 0.0
H1075 H 0.67654 0.74554 0.35199 0.0
H1076 H 0.52086 0.73174 0.22442 0.0
H1077 H 0.53601 0.77966 0.2713 0.0
H1078 H 0.52103 0.81262 0.30655 0.0
H1079 H 0.54051 0.79726 0.3481 0.0
Mn1080 Mn 0.11526 0.89303 0.01702 0.0
Mn1081 Mn 0.06275 0.85769 0.04658 0.0
C1082 C 0.0615 0.90017 0.00878 0.0
C1083 C 0.13972 0.9414 0.00872 0.0
C1084 C 0.11141 0.82012 0.02074 0.0
O1085 O 0.13579 0.88799 0.04988 0.0
O1086 O 0.09332 0.87183 0.06973 0.0
C1087 C 0.02351 0.90939 0.07896 0.0
N1088 N 0.03207 0.88394 0.06364 0.0
C1089 C 0.9983 0.8256 0.09676 0.0
C1090 C 0.9848 0.85176 0.11449 0.0
C1091 C 1.00137 0.90539 0.10062 0.0
C1092 C 0.02459 0.85252 0.06506 0.0
H1093 H 0.03658 0.93055 0.078 0.0
C1094 C 0.121 0.88247 0.06903 0.0
O1095 O 0.15103 0.91553 0.001 0.0
O1096 O 0.11607 0.93884 0.02196 0.0
N1097 N 0.03504 0.84383 0.02089 0.0
C1098 C 0.03714 0.8191 3e-05 0.0
C1099 C 0.01193 0.78701 0.99564 0.0
C1100 C 0.97992 0.77583 0.01415 0.0
C1101 C 0.97245 0.79778 0.04028 0.0
C1102 C 0.01221 0.84445 0.04046 0.0
H1103 H 0.05655 0.82094 0.98831 0.0
O1104 O 0.08113 0.90165 0.99182 0.0
O1105 O 0.07396 0.89114 0.02776 0.0
O1106 O 0.12182 0.84365 0.00904 0.0
O1107 O 0.09124 0.82487 0.03609 0.0
C1108 C 0.96172 0.78412 0.06672 0.0
C1109 C 0.97466 0.79622 0.09192 0.0
H1110 H 0.96862 0.84441 0.12781 0.0
H1111 H 0.99658 0.9284 0.10788 0.0
H1112 H 0.01602 0.77388 0.97996 0.0
H1113 H 0.97175 0.78406 0.02948 0.0
H1114 H 0.94673 0.76427 0.06676 0.0
H1115 H 0.96595 0.78418 0.10682 0.0
Mn1116 Mn 0.85186 0.37791 0.77862 0.0
Mn1117 Mn 0.89219 0.33241 0.81261 0.0
C1118 C 0.84617 0.32355 0.77388 0.0
C1119 C 0.80485 0.40284 0.76916 0.0
C1120 C 0.9245 0.373 0.77671 0.0
O1121 O 0.85826 0.40459 0.80854 0.0
O1122 O 0.88101 0.36854 0.83132 0.0
C1123 C 0.86621 0.31541 0.86515 0.0
N1124 N 0.87431 0.30737 0.83835 0.0
C1125 C 0.91482 0.24352 0.86325 0.0
C1126 C 0.90023 0.25895 0.89092 0.0
C1127 C 0.87741 0.29367 0.89053 0.0
C1128 C 0.89439 0.28068 0.83021 0.0
H1129 H 0.85475 0.33681 0.86846 0.0
C1130 C 0.86777 0.39466 0.82843 0.0
O1131 O 0.83087 0.41185 0.76023 0.0
O1132 O 0.8064 0.3807 0.78415 0.0
N1133 N 0.90346 0.29721 0.79256 0.0
C1134 C 0.9051 0.28525 0.76907 0.0
C1135 C 0.92737 0.25898 0.76171 0.0
C1136 C 0.97152 0.2405 0.78856 0.0
C1137 C 0.96657 0.25633 0.81412 0.0
C1138 C 0.91952 0.28803 0.81173 0.0
H1139 H 0.89564 0.29875 0.75502 0.0
O1140 O 0.84305 0.3424 0.75648 0.0
O1141 O 0.85511 0.33698 0.79319 0.0
O1142 O 0.89956 0.38278 0.76679 0.0
O1143 O 0.92213 0.35612 0.79434 0.0
C1144 C 0.97345 0.23409 0.83695 0.0
C1145 C 0.95035 0.22754 0.859 0.0
H1146 H 0.91074 0.24636 0.87818 0.0
H1147 H 0.871 0.30365 0.90692 0.0
H1148 H 0.92123 0.25214 0.74387 0.0
H1149 H 0.98713 0.22085 0.78775 0.0
H1150 H 0.99301 0.21906 0.8361 0.0
H1151 H 0.95998 0.21409 0.87303 0.0
C1152 C 0.134 0.58027 0.13781 0.0
C1153 C 0.148 0.60228 0.15225 0.0
C1154 C 0.14 0.58012 0.11371 0.0
C1155 C 0.15882 0.60305 0.10324 0.0
H1156 H 0.11553 0.56591 0.14451 0.0
H1157 H 0.12541 0.56576 0.10283 0.0
S1158 S 0.20854 0.65842 0.1349 0.0
N1159 N 0.18854 0.64092 0.15553 0.0
N1160 N 0.1975 0.64242 0.11015 0.0
C1161 C 0.17712 0.62101 0.1181 0.0
C1162 C 0.17206 0.62028 0.1427 0.0
C1163 C 0.64299 0.93106 0.38958 0.0
C1164 C 0.64117 0.9077 0.40698 0.0
C1165 C 0.64344 0.92341 0.36533 0.0
C1166 C 0.637 0.89287 0.35797 0.0
H1167 H 0.64278 0.95515 0.39468 0.0
H1168 H 0.64602 0.94162 0.35256 0.0
S1169 S 0.6165 0.82959 0.39891 0.0
N1170 N 0.63515 0.85426 0.41507 0.0
N1171 N 0.61606 0.84453 0.37285 0.0
C1172 C 0.63213 0.87107 0.37605 0.0
C1173 C 0.64001 0.87734 0.39951 0.0
C1174 C 0.3374 0.3942 0.63625 0.0
C1175 C 0.3624 0.40716 0.64884 0.0
C1176 C 0.3383 0.39123 0.61167 0.0
C1177 C 0.36344 0.40276 0.59883 0.0
H1178 H 0.31955 0.38176 0.64557 0.0
H1179 H 0.32142 0.37651 0.60324 0.0
S1180 S 0.42729 0.45043 0.62279 0.0
N1181 N 0.40837 0.43865 0.64607 0.0
N1182 N 0.4085 0.43618 0.60019 0.0
C1183 C 0.38488 0.42137 0.61102 0.0
C1184 C 0.38481 0.42288 0.63593 0.0
C1185 C 0.83481 0.13695 0.88678 0.0
C1186 C 0.83868 0.1078 0.89715 0.0
C1187 C 0.84733 0.14357 0.86473 0.0
C1188 C 0.8638 0.12129 0.85166 0.0
H1189 H 0.82591 0.15601 0.89701 0.0
H1190 H 0.84567 0.16708 0.85847 0.0
S1191 S 0.87514 0.03966 0.8689 0.0
N1192 N 0.85633 0.0551 0.89102 0.0
N1193 N 0.87902 0.06749 0.84942 0.0
C1194 C 0.86438 0.09105 0.86043 0.0
C1195 C 0.85173 0.08431 0.88304 0.0
C1196 C 0.12323 0.41674 0.879 0.0
C1197 C 0.14451 0.39801 0.89146 0.0
C1198 C 0.11901 0.4139 0.85471 0.0
C1199 C 0.13654 0.39279 0.84172 0.0
H1200 H 0.1069 0.43088 0.88852 0.0
H1201 H 0.10001 0.42609 0.84654 0.0
S1202 S 0.19934 0.34287 0.86485 0.0
N1203 N 0.18574 0.36053 0.88814 0.0
N1204 N 0.17938 0.35653 0.84258 0.0
C1205 C 0.16041 0.37685 0.85351 0.0
C1206 C 0.16419 0.37925 0.87828 0.0
C1207 C 0.8629 0.92186 0.12006 0.0
C1208 C 0.84716 0.89958 0.1064 0.0
C1209 C 0.86376 0.91984 0.1445 0.0
C1210 C 0.84794 0.89611 0.15606 0.0
H1211 H 0.87876 0.93778 0.11172 0.0
H1212 H 0.88021 0.93401 0.15391 0.0
S1213 S 0.79559 0.83847 0.12888 0.0
N1214 N 0.81033 0.85753 0.10662 0.0
N1215 N 0.80986 0.85506 0.15244 0.0
C1216 C 0.82731 0.87783 0.14281 0.0
C1217 C 0.82736 0.87921 0.11794 0.0
C1218 C 0.38375 0.58183 0.39282 0.0
C1219 C 0.36238 0.59937 0.40606 0.0
C1220 C 0.3836 0.58195 0.36827 0.0
C1221 C 0.36147 0.59884 0.35571 0.0
H1222 H 0.40317 0.57093 0.40149 0.0
H1223 H 0.4029 0.57152 0.35921 0.0
S1224 S 0.29741 0.64456 0.38151 0.0
N1225 N 0.31654 0.63138 0.40435 0.0
N1226 N 0.31512 0.63032 0.35843 0.0
C1227 C 0.33774 0.61329 0.36869 0.0
C1228 C 0.33838 0.61384 0.39375 0.0
C1229 C 0.6794 0.12594 0.63701 0.0
C1230 C 0.66091 0.10686 0.65125 0.0
C1231 C 0.6748 0.12727 0.61271 0.0
C1232 C 0.65474 0.10645 0.6016 0.0
H1233 H 0.69418 0.14301 0.64513 0.0
H1234 H 0.68451 0.14648 0.60309 0.0
S1235 S 0.62193 0.0365 0.62975 0.0
N1236 N 0.63262 0.05856 0.65183 0.0
N1237 N 0.63195 0.05528 0.60583 0.0
C1238 C 0.64452 0.08117 0.61517 0.0
C1239 C 0.64583 0.08235 0.64013 0.0
C1240 C 0.83492 0.39349 0.86331 0.0
C1241 C 0.85812 0.40924 0.85066 0.0
C1242 C 0.83752 0.38885 0.88758 0.0
C1243 C 0.86259 0.40122 0.89994 0.0
H1244 H 0.81776 0.38005 0.85399 0.0
H1245 H 0.82224 0.37243 0.89594 0.0
S1246 S 0.92025 0.4567 0.87679 0.0
N1247 N 0.9012 0.44479 0.85352 0.0
N1248 N 0.90392 0.43929 0.89923 0.0
C1249 C 0.88131 0.42297 0.88831 0.0
C1250 C 0.87964 0.42631 0.86356 0.0
C1251 C 0.37594 0.08787 0.63597 0.0
C1252 C 0.36754 0.11714 0.64459 0.0
C1253 C 0.37376 0.08119 0.61176 0.0
C1254 C 0.36136 0.10269 0.59557 0.0
H1255 H 0.38829 0.0719 0.64712 0.0
H1256 H 0.38498 0.06048 0.60538 0.0
S1257 S 0.3201 0.17421 0.6124 0.0
N1258 N 0.33595 0.16219 0.63687 0.0
N1259 N 0.33042 0.14916 0.59215 0.0
C1260 C 0.34694 0.12884 0.60513 0.0
C1261 C 0.35018 0.13606 0.62946 0.0
C1262 C 0.65708 0.64034 0.37788 0.0
C1263 C 0.64558 0.6152 0.39063 0.0
C1264 C 0.65539 0.64104 0.35341 0.0
C1265 C 0.64136 0.61716 0.34024 0.0
H1266 H 0.66433 0.66112 0.3869 0.0
H1267 H 0.66262 0.662 0.34484 0.0
S1268 S 0.61405 0.54289 0.36481 0.0
N1269 N 0.6252 0.56293 0.38784 0.0
N1270 N 0.62053 0.5652 0.34198 0.0
C1271 C 0.63299 0.59037 0.3525 0.0
C1272 C 0.63548 0.58926 0.37757 0.0
C1273 C 0.12072 0.90866 0.13153 0.0
C1274 C 0.14287 0.88925 0.14183 0.0
C1275 C 0.11646 0.90911 0.10724 0.0
C1276 C 0.13419 0.89027 0.09223 0.0
H1277 H 0.10421 0.92076 0.14237 0.0
H1278 H 0.0971 0.92212 0.10031 0.0
S1279 S 0.19703 0.8375 0.11035 0.0
N1280 N 0.18456 0.85278 0.13493 0.0
N1281 N 0.17634 0.85366 0.08945 0.0
C1282 C 0.15826 0.87302 0.1021 0.0
C1283 C 0.16266 0.87259 0.12683 0.0
C1284 C 0.84802 0.61753 0.10471 0.0
C1285 C 0.87592 0.60746 0.09489 0.0
C1286 C 0.84254 0.61394 0.12878 0.0
C1287 C 0.86522 0.60136 0.1438 0.0
H1288 H 0.83184 0.63086 0.09439 0.0
H1289 H 0.82236 0.62503 0.13616 0.0
S1290 S 0.93743 0.56314 0.12533 0.0
N1291 N 0.92241 0.5769 0.10102 0.0
N1292 N 0.91301 0.57264 0.14616 0.0
C1293 C 0.89075 0.58714 0.13353 0.0
C1294 C 0.896 0.58994 0.10911 0.0
C1295 C 0.15955 0.10176 0.86988 0.0
C1296 C 0.13967 0.10481 0.85039 0.0
C1297 C 0.14921 0.10871 0.89279 0.0
C1298 C 0.1202 0.12304 0.89647 0.0
H1299 H 0.18363 0.09596 0.86722 0.0
H1300 H 0.16464 0.10477 0.90732 0.0
S1301 S 0.06483 0.14238 0.84954 0.0
N1302 N 0.08875 0.11764 0.8377 0.0
N1303 N 0.0774 0.14752 0.87622 0.0
C1304 C 0.10194 0.12796 0.8766 0.0
C1305 C 0.10914 0.1132 0.85518 0.0
C1306 C 0.62673 0.42641 0.61553 0.0
C1307 C 0.64103 0.40556 0.59971 0.0
C1308 C 0.62361 0.41983 0.63964 0.0
C1309 C 0.63438 0.39184 0.64915 0.0
H1310 H 0.61525 0.44681 0.6088 0.0
H1311 H 0.61048 0.43559 0.65041 0.0
S1312 S 0.67621 0.33072 0.61613 0.0
N1313 N 0.66798 0.35689 0.59618 0.0
N1314 N 0.66286 0.34474 0.64085 0.0
C1315 C 0.65077 0.37207 0.63381 0.0
C1316 C 0.65405 0.37886 0.6094 0.0
C1317 C 0.34526 0.86368 0.35635 0.0
C1318 C 0.36599 0.88256 0.34369 0.0
C1319 C 0.34392 0.86443 0.38082 0.0
C1320 C 0.36296 0.88447 0.39358 0.0
H1321 H 0.33238 0.84578 0.34739 0.0
H1322 H 0.33046 0.84698 0.38976 0.0
S1323 S 0.41813 0.94144 0.36889 0.0
N1324 N 0.40367 0.92382 0.34583 0.0
N1325 N 0.40051 0.92617 0.39164 0.0
C1326 C 0.38125 0.90576 0.38101 0.0
C1327 C 0.38294 0.90463 0.35611 0.0
C1328 C 0.03069 0.60755 0.99662 0.0
C1329 C 0.04372 0.5957 0.01758 0.0
C1330 C 0.99822 0.60937 0.99327 0.0
C1331 C 0.97778 0.59592 0.0093 0.0
H1332 H 0.04539 0.619 0.98407 0.0
H1333 H 0.98924 0.62305 0.97901 0.0
S1334 S 0.00315 0.53523 0.05093 0.0
N1335 N 0.03523 0.55455 0.04524 0.0
N1336 N 0.97504 0.55323 0.03674 0.0
C1337 C 0.99136 0.57575 0.02581 0.0
C1338 C 0.02418 0.57632 0.0304 0.0
C1339 C 0.6714 0.73096 0.27405 0.0
C1340 C 0.65624 0.71893 0.25429 0.0
C1341 C 0.67329 0.76321 0.27905 0.0
C1342 C 0.66411 0.7858 0.26278 0.0
H1343 H 0.68143 0.71471 0.28599 0.0
H1344 H 0.68182 0.77044 0.29589 0.0
S1345 S 0.63951 0.76681 0.2022 0.0
N1346 N 0.64088 0.73261 0.21505 0.0
N1347 N 0.65092 0.79244 0.22176 0.0
C1348 C 0.65695 0.77378 0.24019 0.0
C1349 C 0.65145 0.74077 0.23639 0.0
C1350 C 0.49174 0.35405 0.50165 0.0
C1351 C 0.47226 0.37706 0.51112 0.0
C1352 C 0.52427 0.35816 0.50008 0.0
C1353 C 0.53848 0.38628 0.50648 0.0
H1354 H 0.48194 0.33257 0.4956 0.0
H1355 H 0.53844 0.33889 0.49453 0.0
S1356 S 0.49669 0.45781 0.5231 0.0
N1357 N 0.4691 0.43155 0.52088 0.0
N1358 N 0.52938 0.43969 0.51723 0.0
C1359 C 0.51873 0.41072 0.51284 0.0
C1360 C 0.4859 0.40619 0.51508 0.0
C1361 C 0.83757 0.26965 0.7908 0.0
C1362 C 0.8404 0.28886 0.77118 0.0
C1363 C 0.8432 0.23749 0.78935 0.0
C1364 C 0.85446 0.22335 0.76903 0.0
H1365 H 0.83232 0.27966 0.80758 0.0
H1366 H 0.83909 0.22329 0.80431 0.0
S1367 S 0.85333 0.26039 0.71089 0.0
N1368 N 0.84363 0.28863 0.72882 0.0
N1369 N 0.85848 0.22932 0.72719 0.0
C1370 C 0.85191 0.24097 0.74852 0.0
C1371 C 0.84363 0.27341 0.74946 0.0
C1372 C 0.99389 0.39629 0.00023 0.0
C1373 C 0.97557 0.4053 0.98096 0.0
C1374 C 0.02688 0.39891 4e-05 0.0
C1375 C 0.04335 0.40892 0.98014 0.0
H1376 H 0.98284 0.38597 0.01521 0.0
H1377 H 0.0396 0.39164 0.01526 0.0
S1378 S 0.00568 0.45364 0.93276 0.0
N1379 N 0.97637 0.43721 0.94635 0.0
N1380 N 0.03729 0.44178 0.94631 0.0
C1381 C 0.02494 0.42339 0.963 0.0
C1382 C 0.9915 0.42129 0.96325 0.0
C1383 C 0.83732 0.76928 0.21767 0.0
C1384 C 0.85286 0.78269 0.23662 0.0
C1385 C 0.83504 0.73692 0.21467 0.0
C1386 C 0.84541 0.71638 0.23195 0.0
H1387 H 0.82709 0.78437 0.20501 0.0
H1388 H 0.82586 0.72796 0.1985 0.0
S1389 S 0.87359 0.74027 0.29043 0.0
N1390 N 0.87045 0.77324 0.27605 0.0
N1391 N 0.86148 0.71287 0.27256 0.0
C1392 C 0.85367 0.72995 0.25363 0.0
C1393 C 0.85868 0.76296 0.25559 0.0
C1394 C 0.48355 0.58245 0.47615 0.0
C1395 C 0.46935 0.60071 0.49336 0.0
C1396 C 0.51576 0.58392 0.47124 0.0
C1397 C 0.53633 0.60017 0.48575 0.0
H1398 H 0.46899 0.56746 0.46602 0.0
H1399 H 0.52456 0.57226 0.45597 0.0
S1400 S 0.51307 0.63642 0.54192 0.0
N1401 N 0.4797 0.62737 0.5296 0.0
N1402 N 0.54041 0.62394 0.52418 0.0
C1403 C 0.52312 0.61113 0.50698 0.0
C1404 C 0.48976 0.61293 0.5101 0.0
C1405 C 0.6597 0.23904 0.7573 0.0
C1406 C 0.66894 0.22416 0.73628 0.0
C1407 C 0.65152 0.27111 0.7576 0.0
C1408 C 0.65653 0.29028 0.73807 0.0
H1409 H 0.65362 0.2251 0.77226 0.0
H1410 H 0.63969 0.28034 0.77265 0.0
S1411 S 0.713 0.26774 0.69243 0.0
N1412 N 0.70092 0.23427 0.70287 0.0
N1413 N 0.69354 0.29487 0.70655 0.0
C1414 C 0.67603 0.27726 0.72091 0.0
C1415 C 0.68082 0.2442 0.71933 0.0
C1416 C 0.33602 0.27089 0.70847 0.0
C1417 C 0.33796 0.28921 0.7287 0.0
C1418 C 0.34136 0.23856 0.70911 0.0
C1419 C 0.351 0.22308 0.72939 0.0
H1420 H 0.33191 0.28179 0.69183 0.0
H1421 H 0.3382 0.22528 0.69356 0.0
S1422 S 0.34479 0.25706 0.78849 0.0
N1423 N 0.33712 0.28648 0.77103 0.0
N1424 N 0.35101 0.22683 0.77154 0.0
C1425 C 0.34656 0.23969 0.75029 0.0
C1426 C 0.33873 0.27242 0.74998 0.0
C1427 C 0.16727 0.73324 0.24949 0.0
C1428 C 0.16884 0.71568 0.22859 0.0
C1429 C 0.16309 0.76597 0.24873 0.0
C1430 C 0.16404 0.78235 0.22745 0.0
H1431 H 0.16333 0.72152 0.26586 0.0
H1432 H 0.15682 0.77796 0.26455 0.0
S1433 S 0.20218 0.74911 0.1753 0.0
N1434 N 0.19119 0.71843 0.19025 0.0
N1435 N 0.18996 0.77966 0.19005 0.0
C1436 C 0.17644 0.76566 0.2085 0.0
C1437 C 0.17781 0.73235 0.20881 0.0
C1438 C 0.17703 0.24673 0.78108 0.0
C1439 C 0.16928 0.22437 0.76436 0.0
C1440 C 0.17245 0.27867 0.77674 0.0
C1441 C 0.15638 0.28972 0.75711 0.0
H1442 H 0.18634 0.23954 0.79771 0.0
H1443 H 0.18069 0.29529 0.78919 0.0
S1444 S 0.14062 0.24257 0.70469 0.0
N1445 N 0.15443 0.21737 0.72368 0.0
N1446 N 0.14039 0.27645 0.718 0.0
C1447 C 0.15235 0.26839 0.73896 0.0
C1448 C 0.16 0.23604 0.7422 0.0
C1449 C 0.34934 0.72493 0.24533 0.0
C1450 C 0.34104 0.71177 0.2672 0.0
C1451 C 0.35378 0.75744 0.24266 0.0
C1452 C 0.34598 0.77822 0.26059 0.0
H1453 H 0.357 0.70997 0.23139 0.0
H1454 H 0.36501 0.76599 0.22713 0.0
S1455 S 0.29187 0.75555 0.3078 0.0
N1456 N 0.30726 0.72236 0.29953 0.0
N1457 N 0.30905 0.78282 0.2922 0.0
C1458 C 0.32801 0.76538 0.27876 0.0
C1459 C 0.32662 0.73234 0.28258 0.0
C1460 C 0.48138 0.15318 0.50511 0.0
C1461 C 0.46659 0.12423 0.50468 0.0
C1462 C 0.51349 0.15553 0.50919 0.0
C1463 C 0.53108 0.12962 0.51592 0.0
H1464 H 0.46802 0.17412 0.50269 0.0
H1465 H 0.5244 0.17782 0.50734 0.0
S1466 S 0.50647 0.04835 0.50669 0.0
N1467 N 0.47458 0.06873 0.50244 0.0
N1468 N 0.53372 0.07361 0.51349 0.0
C1469 C 0.51751 0.10047 0.51218 0.0
C1470 C 0.48542 0.09782 0.5061 0.0
C1471 C 0.97399 0.89991 0.99706 0.0
C1472 C 0.96233 0.91208 0.01835 0.0
C1473 C 0.00622 0.89737 0.99276 0.0
C1474 C 0.02788 0.91039 0.00812 0.0
H1475 H 0.95837 0.88879 0.98494 0.0
H1476 H 0.01408 0.88349 0.97826 0.0
S1477 S 0.00622 0.97127 0.05073 0.0
N1478 N 0.9734 0.95273 0.04591 0.0
N1479 N 0.03304 0.95287 0.03553 0.0
C1480 C 0.01563 0.93081 0.02502 0.0
C1481 C 0.98307 0.93091 0.03061 0.0
C1482 C 0.48015 0.91732 0.46399 0.0
C1483 C 0.46185 0.90886 0.48322 0.0
C1484 C 0.51195 0.92441 0.46623 0.0
C1485 C 0.52736 0.92323 0.48795 0.0
H1486 H 0.47008 0.91737 0.44683 0.0
H1487 H 0.52521 0.92757 0.45046 0.0
S1488 S 0.48803 0.91273 0.54474 0.0
N1489 N 0.46011 0.90765 0.52547 0.0
N1490 N 0.51954 0.92095 0.52975 0.0
C1491 C 0.50815 0.92052 0.50775 0.0
C1492 C 0.47563 0.9129 0.50537 0.0
C1493 C 0.99734 0.10122 0.00424 0.0
C1494 C 0.01609 0.09388 0.98487 0.0
C1495 C 0.96509 0.09394 0.00472 0.0
C1496 C 0.94996 0.07972 0.98566 0.0
H1497 H 0.0072 0.11409 0.01859 0.0
H1498 H 0.95168 0.10086 0.01966 0.0
S1499 S 0.99114 0.04411 0.93573 0.0
N1500 N 0.01848 0.06335 0.9496 0.0
N1501 N 0.95903 0.04999 0.95058 0.0
C1502 C 0.96957 0.06833 0.96803 0.0
C1503 C 0.00212 0.07554 0.96753 0.0
C1504 C 0.17084 0.47719 0.01153 0.0
C1505 C 0.16913 0.47356 0.98726 0.0
C1506 C 0.16974 0.50675 0.0218 0.0
C1507 C 0.16787 0.53381 0.0082 0.0
H1508 H 0.1701 0.45707 0.02274 0.0
H1509 H 0.16843 0.50833 0.04057 0.0
S1510 S 0.16648 0.53687 0.9438 0.0
N1511 N 0.16782 0.49955 0.94987 0.0
N1512 N 0.16715 0.55495 0.96909 0.0
C1513 C 0.16895 0.53052 0.9839 0.0
C1514 C 0.1692 0.50044 0.97346 0.0
C1515 C 0.78425 0.90888 0.27403 0.0
C1516 C 0.79023 0.90939 0.25004 0.0
C1517 C 0.75372 0.90961 0.28243 0.0
C1518 C 0.72822 0.91162 0.26718 0.0
H1519 H 0.80292 0.90474 0.28621 0.0
H1520 H 0.74994 0.90615 0.30086 0.0
S1521 S 0.73215 0.91793 0.20302 0.0
N1522 N 0.76861 0.91503 0.21133 0.0
N1523 N 0.71145 0.9175 0.22713 0.0
C1524 C 0.7342 0.91537 0.24336 0.0
C1525 C 0.76519 0.9139 0.23479 0.0
C1526 C 0.3519 0.47124 0.48559 0.0
C1527 C 0.3544 0.46195 0.5089 0.0
C1528 C 0.34987 0.50279 0.4797 0.0
C1529 C 0.34942 0.52605 0.4969 0.0
H1530 H 0.3542 0.45434 0.4718 0.0
H1531 H 0.35083 0.50917 0.4615 0.0
S1532 S 0.35191 0.51321 0.56052 0.0
N1533 N 0.35395 0.4781 0.54931 0.0
N1534 N 0.34906 0.53717 0.53823 0.0
C1535 C 0.34924 0.51677 0.52027 0.0
C1536 C 0.35207 0.48475 0.52626 0.0
C1537 C 0.77319 0.09949 0.77603 0.0
C1538 C 0.79873 0.09963 0.76081 0.0
C1539 C 0.74259 0.09893 0.7676 0.0
C1540 C 0.73645 0.09937 0.74361 0.0
H1541 H 0.77685 0.102 0.79458 0.0
H1542 H 0.72379 0.10118 0.7799 0.0
S1543 S 0.79485 0.0969 0.69651 0.0
N1544 N 0.81558 0.09714 0.72065 0.0
N1545 N 0.75831 0.09727 0.7048 0.0
C1546 C 0.76172 0.09731 0.72829 0.0
C1547 C 0.79281 0.0971 0.73688 0.0
C1548 C 0.85154 0.51135 0.02069 0.0
C1549 C 0.85204 0.5359 0.00451 0.0
C1550 C 0.85094 0.48022 0.01343 0.0
C1551 C 0.85168 0.47255 0.98971 0.0
H1552 H 0.85394 0.5162 0.03908 0.0
H1553 H 0.85299 0.46221 0.02644 0.0
S1554 S 0.85037 0.52789 0.94043 0.0
N1555 N 0.85033 0.55018 0.96376 0.0
N1556 N 0.85032 0.49191 0.9501 0.0
C1557 C 0.84996 0.49683 0.97343 0.0
C1558 C 0.84981 0.52846 0.98082 0.0
C1559 C 0.26189 0.09642 0.77177 0.0
C1560 C 0.23515 0.09792 0.75775 0.0
C1561 C 0.29173 0.09643 0.76197 0.0
C1562 C 0.29595 0.0989 0.73779 0.0
H1563 H 0.25978 0.09728 0.79052 0.0
H1564 H 0.31151 0.09747 0.77351 0.0
S1565 S 0.23379 0.10077 0.69334 0.0
N1566 N 0.21508 0.09899 0.71832 0.0
N1567 N 0.27094 0.10031 0.70001 0.0
C1568 C 0.26946 0.09834 0.72356 0.0
C1569 C 0.23912 0.09749 0.7335 0.0
C1570 C 0.66172 0.48293 0.47973 0.0
C1571 C 0.65855 0.47677 0.5036 0.0
C1572 C 0.66216 0.51358 0.47125 0.0
C1573 C 0.66034 0.5393 0.48633 0.0
H1574 H 0.66105 0.46406 0.46735 0.0
H1575 H 0.66176 0.51716 0.45261 0.0
S1576 S 0.6548 0.5355 0.55053 0.0
N1577 N 0.65557 0.4989 0.5423 0.0
N1578 N 0.65758 0.55619 0.52646 0.0
C1579 C 0.65975 0.53336 0.51033 0.0
C1580 C 0.65849 0.5022 0.51892 0.0
C1581 C 0.23284 0.90578 0.25728 0.0
C1582 C 0.2266 0.90461 0.23328 0.0
C1583 C 0.26342 0.9047 0.26577 0.0
C1584 C 0.28899 0.90343 0.25061 0.0
H1585 H 0.21399 0.90463 0.26963 0.0
H1586 H 0.26702 0.9029 0.28436 0.0
S1587 S 0.28513 0.90335 0.18624 0.0
N1588 N 0.24858 0.90428 0.19449 0.0
N1589 N 0.30584 0.90365 0.2104 0.0
C1590 C 0.28308 0.90497 0.2266 0.0
C1591 C 0.25195 0.90518 0.21797 0.0
C1592 C 0.65026 0.02134 0.52747 0.0
C1593 C 0.65081 0.04534 0.5108 0.0
C1594 C 0.65256 0.99 0.521 0.0
C1595 C 0.65488 0.98141 0.49753 0.0
H1596 H 0.64576 0.02675 0.54554 0.0
H1597 H 0.64912 0.97244 0.53418 0.0
S1598 S 0.66054 0.03514 0.44737 0.0
N1599 N 0.65713 0.05827 0.47009 0.0
N1600 N 0.66045 0.99952 0.45778 0.0
C1601 C 0.65798 0.00525 0.48093 0.0
C1602 C 0.6562 0.03718 0.48758 0.0
C1603 C 0.2349 0.41766 0.76662 0.0
C1604 C 0.21026 0.4156 0.75065 0.0
C1605 C 0.26583 0.41768 0.75914 0.0
C1606 C 0.2731 0.41468 0.73545 0.0
H1607 H 0.23029 0.41676 0.78512 0.0
H1608 H 0.284 0.41685 0.7721 0.0
S1609 S 0.2172 0.4121 0.68656 0.0
N1610 N 0.19529 0.41401 0.71001 0.0
N1611 N 0.2533 0.41292 0.69594 0.0
C1612 C 0.2487 0.41515 0.71925 0.0
C1613 C 0.21726 0.41593 0.72685 0.0
C1614 C 0.83063 0.99524 0.02662 0.0
C1615 C 0.8319 0.96824 0.01295 0.0
C1616 C 0.82751 0.02461 0.01641 0.0
C1617 C 0.82637 0.02803 0.99212 0.0
H1618 H 0.83425 0.99384 0.04523 0.0
H1619 H 0.82904 0.04481 0.0275 0.0
S1620 S 0.82489 0.96457 0.94879 0.0
N1621 N 0.82809 0.9467 0.97406 0.0
N1622 N 0.82326 1.00188 0.95484 0.0
C1623 C 0.82503 1.00111 0.97842 0.0
C1624 C 0.8275 0.97119 0.98885 0.0
C1625 C 0.27334 0.58443 0.24086 0.0
C1626 C 0.27792 0.58731 0.26495 0.0
C1627 C 0.24348 0.58575 0.23125 0.0
C1628 C 0.21718 0.5891 0.24543 0.0
H1629 H 0.29297 0.58433 0.22919 0.0
H1630 H 0.24113 0.58644 0.2125 0.0
S1631 S 0.21668 0.59277 0.30977 0.0
N1632 N 0.25366 0.59032 0.30292 0.0
N1633 N 0.19756 0.59163 0.2849 0.0
C1634 C 0.22131 0.58867 0.26964 0.0
C1635 C 0.25173 0.5881 0.2794 0.0
C1636 C 0.34791 0.0067 0.51517 0.0
C1637 C 0.34887 0.03203 0.49979 0.0
C1638 C 0.34483 0.97618 0.50693 0.0
C1639 C 0.34367 0.96982 0.48295 0.0
H1640 H 0.35108 0.0104 0.53365 0.0
H1641 H 0.34621 0.95733 0.51931 0.0
S1642 S 0.3442 0.02797 0.43557 0.0
N1643 N 0.34645 0.04881 0.45959 0.0
N1644 N 0.34235 0.9915 0.44405 0.0
C1645 C 0.34322 0.99505 0.4675 0.0
C1646 C 0.34541 0.02614 0.47593 0.0
C1647 C 0.72608 0.58892 0.22644 0.0
C1648 C 0.71869 0.59321 0.25 0.0
C1649 C 0.75708 0.58848 0.21901 0.0
C1650 C 0.78177 0.59137 0.23491 0.0
H1651 H 0.70793 0.58901 0.21345 0.0
H1652 H 0.76173 0.58822 0.2005 0.0
S1653 S 0.77456 0.599 0.29879 0.0
N1654 N 0.73848 0.59758 0.28938 0.0
N1655 N 0.79654 0.59559 0.27547 0.0
C1656 C 0.77463 0.5926 0.25868 0.0
C1657 C 0.74312 0.59384 0.2662 0.0
C1658 C 0.14951 0.9977 0.01584 0.0
C1659 C 0.14831 0.97274 6e-05 0.0
C1660 C 0.1471 0.02867 0.00829 0.0
C1661 C 0.14236 0.03584 0.98469 0.0
H1662 H 0.15018 0.99315 0.03436 0.0
H1663 H 0.14605 0.04683 0.02124 0.0
S1664 S 0.13961 0.9794 0.93616 0.0
N1665 N 0.1446 0.95773 0.95953 0.0
N1666 N 0.13881 0.01555 0.94544 0.0
C1667 C 0.14298 0.01126 0.96863 0.0
C1668 C 0.1463 0.97983 0.97627 0.0
C1669 C 0.76878 0.41311 0.73608 0.0
C1670 C 0.77425 0.41283 0.76019 0.0
C1671 C 0.73846 0.41293 0.72717 0.0
C1672 C 0.71257 0.41349 0.742 0.0
H1673 H 0.78788 0.41057 0.72408 0.0
H1674 H 0.73524 0.4103 0.70859 0.0
S1675 S 0.71468 0.41661 0.80636 0.0
N1676 N 0.75143 0.41553 0.79865 0.0
N1677 N 0.69463 0.41654 0.78189 0.0
C1678 C 0.71785 0.41604 0.76602 0.0
C1679 C 0.74866 0.41533 0.77512 0.0
C1680 C 0.10778 0.76345 0.00394 0.0
C1681 C 0.12228 0.78551 0.01889 0.0
C1682 C 0.11064 0.73025 0.00689 0.0
C1683 C 0.12796 0.71624 0.02523 0.0
H1684 H 0.09241 0.77185 0.99049 0.0
H1685 H 0.09734 0.71543 0.99547 0.0
S1686 S 0.16895 0.76237 0.07053 0.0
N1687 N 0.15372 0.78924 0.05362 0.0
N1688 N 0.15915 0.72881 0.05894 0.0
C1689 C 0.14254 0.73809 0.04015 0.0
C1690 C 0.1397 0.77168 0.03711 0.0
C1691 C 0.52777 0.85592 0.25526 0.0
C1692 C 0.54374 0.87254 0.27303 0.0
C1693 C 0.4944 0.85536 0.25304 0.0
C1694 C 0.47401 0.8712 0.2685 0.0
H1695 H 0.54114 0.84152 0.24363 0.0
H1696 H 0.48455 0.8406 0.2398 0.0
S1697 S 0.50262 0.91702 0.31901 0.0
N1698 N 0.5349 0.90491 0.3067 0.0
N1699 N 0.47404 0.90331 0.30298 0.0
C1700 C 0.48983 0.88796 0.28618 0.0
C1701 C 0.52366 0.88874 0.28832 0.0
C1702 C 0.37096 0.2283 0.51197 0.0
C1703 C 0.36362 0.21067 0.53218 0.0
C1704 C 0.37348 0.26138 0.51251 0.0
C1705 C 0.3666 0.27875 0.53275 0.0
H1706 H 0.37876 0.21635 0.49651 0.0
H1707 H 0.38297 0.27311 0.4975 0.0
S1708 S 0.33287 0.24518 0.58631 0.0
N1709 N 0.34228 0.21452 0.57078 0.0
N1710 N 0.34271 0.27552 0.57061 0.0
C1711 C 0.35432 0.26157 0.55144 0.0
C1712 C 0.35363 0.2281 0.5514 0.0
C1713 C 0.00244 0.15062 0.75999 0.0
C1714 C 0.98374 0.13347 0.77603 0.0
C1715 C 0.03594 0.15062 0.76024 0.0
C1716 C 0.05391 0.1331 0.77624 0.0
H1717 H 0.99156 0.16536 0.74734 0.0
H1718 H 0.04789 0.16581 0.74831 0.0
S1719 S 0.01816 0.07725 0.81771 0.0
N1720 N 0.98782 0.09468 0.80619 0.0
N1721 N 0.04882 0.09281 0.80528 0.0
C1722 C 0.0356 0.11362 0.79072 0.0
C1723 C 1.0016 0.11427 0.79094 0.0
C1724 C 0.11154 0.23831 0.95094 0.0
C1725 C 0.10947 0.22088 0.97181 0.0
C1726 C 0.12014 0.27032 0.94997 0.0
C1727 C 0.12718 0.28894 0.96979 0.0
H1728 H 0.10603 0.227 0.93464 0.0
H1729 H 0.1205 0.28086 0.93292 0.0
S1730 S 0.12415 0.25657 0.0299 0.0
N1731 N 0.11505 0.2263 0.01367 0.0
N1732 N 0.13033 0.28579 0.01191 0.0
C1733 C 0.12523 0.27201 0.9911 0.0
C1734 C 0.11673 0.23871 0.99207 0.0
C1735 C 0.98855 0.87114 0.20037 0.0
C1736 C 0.97081 0.8758 0.22078 0.0
C1737 C 0.02137 0.87167 0.19974 0.0
C1738 C 0.04059 0.87635 0.21954 0.0
H1739 H 0.97689 0.86594 0.1842 0.0
H1740 H 0.03179 0.86733 0.18297 0.0
S1741 S 0.00764 0.8883 0.27875 0.0
N1742 N 0.97639 0.88471 0.26234 0.0
N1743 N 0.03779 0.88524 0.26124 0.0
C1744 C 0.02353 0.88105 0.24048 0.0
C1745 C 0.98927 0.8808 0.24108 0.0
C1746 C 0.3802 0.73323 0.49719 0.0
C1747 C 0.36783 0.71388 0.47938 0.0
C1748 C 0.37993 0.76662 0.49604 0.0
C1749 C 0.36672 0.78352 0.47718 0.0
H1750 H 0.39159 0.7227 0.51191 0.0
H1751 H 0.39153 0.77901 0.50979 0.0
S1752 S 0.3217 0.74546 0.43003 0.0
N1753 N 0.33576 0.71582 0.44483 0.0
N1754 N 0.33504 0.77691 0.44285 0.0
C1755 C 0.3514 0.76444 0.4607 0.0
C1756 C 0.35192 0.73058 0.46175 0.0
C1757 C 0.49788 0.14349 0.74184 0.0
C1758 C 0.48027 0.1302 0.72318 0.0
C1759 C 0.53146 0.14369 0.7427 0.0
C1760 C 0.55052 0.1294 0.72557 0.0
H1761 H 0.48608 0.15525 0.75574 0.0
H1762 H 0.54256 0.15669 0.75645 0.0
S1763 S 0.51762 0.08558 0.67562 0.0
N1764 N 0.48646 0.09915 0.68858 0.0
N1765 N 0.54752 0.09824 0.69072 0.0
C1766 C 0.53317 0.11412 0.70793 0.0
C1767 C 0.4992 0.11467 0.70671 0.0
C1768 C 0.86027 0.26999 0.95218 0.0
C1769 C 0.87417 0.28552 0.9714 0.0
C1770 C 0.85658 0.2369 0.9504 0.0
C1771 C 0.86536 0.21573 0.96816 0.0
H1772 H 0.85227 0.28376 0.93783 0.0
H1773 H 0.84716 0.22772 0.93438 0.0
S1774 S 0.90081 0.24248 0.02393 0.0
N1775 N 0.89595 0.27519 0.00949 0.0
N1776 N 0.88724 0.21462 0.00709 0.0
C1777 C 0.87764 0.23089 0.98829 0.0
C1778 C 0.88236 0.26481 0.98971 0.0
C1779 C 0.6208 0.7791 0.44717 0.0
C1780 C 0.61468 0.7972 0.4675 0.0
C1781 C 0.62051 0.74559 0.44589 0.0
C1782 C 0.61559 0.72548 0.46517 0.0
H1783 H 0.62548 0.79083 0.43141 0.0
H1784 H 0.62384 0.73516 0.42899 0.0
S1785 S 0.60082 0.75772 0.52448 0.0
N1786 N 0.60509 0.78945 0.50874 0.0
N1787 N 0.60576 0.72808 0.5067 0.0
C1788 C 0.61155 0.74273 0.48634 0.0
C1789 C 0.61125 0.77741 0.48749 0.0
C1790 C 0.87562 0.73558 0.04479 0.0
C1791 C 0.88538 0.72069 0.024 0.0
C1792 C 0.87368 0.76852 0.04753 0.0
C1793 C 0.88169 0.79012 0.02993 0.0
H1794 H 0.87059 0.72139 0.0598 0.0
H1795 H 0.8666 0.77739 0.06422 0.0
S1796 S 0.91147 0.7653 0.9721 0.0
N1797 N 0.9046 0.73201 0.98528 0.0
N1798 N 0.90132 0.79287 0.99049 0.0
C1799 C 0.89135 0.77585 0.00881 0.0
C1800 C 0.8932 0.74191 0.00592 0.0
C1801 C 0.63363 0.27943 0.55982 0.0
C1802 C 0.63432 0.29605 0.53869 0.0
C1803 C 0.62756 0.24708 0.5609 0.0
C1804 C 0.62446 0.22788 0.5414 0.0
H1805 H 0.63505 0.29214 0.57594 0.0
H1806 H 0.62184 0.23695 0.57717 0.0
S1807 S 0.62958 0.25756 0.48079 0.0
N1808 N 0.63395 0.28911 0.49671 0.0
N1809 N 0.62596 0.2284 0.4992 0.0
C1810 C 0.62846 0.24338 0.51982 0.0
C1811 C 0.63307 0.27702 0.51845 0.0
C1812 C 0.97434 0.36365 0.75195 0.0
C1813 C 0.95847 0.38043 0.76958 0.0
C1814 C 0.00766 0.36242 0.75032 0.0
C1815 C 0.02775 0.37783 0.76622 0.0
H1816 H 0.96096 0.34938 0.7402 0.0
H1817 H 0.0177 0.3475 0.73727 0.0
S1818 S 0.99917 0.42408 0.81631 0.0
N1819 N 0.96698 0.41242 0.80355 0.0
N1820 N 0.02784 0.41005 0.80061 0.0
C1821 C 0.01209 0.39502 0.78358 0.0
C1822 C 0.97838 0.39632 0.78521 0.0
C1823 C 0.47659 0.62089 0.25022 0.0
C1824 C 0.46227 0.62253 0.27269 0.0
C1825 C 0.51018 0.62116 0.24688 0.0
C1826 C 0.53179 0.62207 0.26581 0.0
H1827 H 0.46192 0.62154 0.23498 0.0
H1828 H 0.51903 0.62251 0.22933 0.0
S1829 S 0.50775 0.63277 0.32664 0.0
N1830 N 0.47458 0.6287 0.31327 0.0
N1831 N 0.53453 0.62662 0.30733 0.0
C1832 C 0.5173 0.62264 0.28784 0.0
C1833 C 0.48397 0.62354 0.29114 0.0
C1834 C 0.47688 0.37066 0.74876 0.0
C1835 C 0.45861 0.38351 0.73049 0.0
C1836 C 0.51037 0.37059 0.74857 0.0
C1837 C 0.52828 0.38249 0.72973 0.0
H1838 H 0.46524 0.35859 0.76272 0.0
H1839 H 0.52212 0.35914 0.76275 0.0
S1840 S 0.49281 0.41809 0.67719 0.0
N1841 N 0.46252 0.40876 0.6931 0.0
N1842 N 0.52352 0.40762 0.69232 0.0
C1843 C 0.51018 0.39591 0.71177 0.0
C1844 C 0.47637 0.39659 0.71222 0.0
C1845 C 0.98291 0.65315 0.23723 0.0
C1846 C 0.96568 0.63315 0.22232 0.0
C1847 C 0.01629 0.65198 0.23965 0.0
C1848 C 0.03563 0.63141 0.22676 0.0
H1849 H 0.97056 0.67113 0.24644 0.0
H1850 H 0.02726 0.66959 0.25018 0.0
S1851 S 0.00277 0.56965 0.18873 0.0
N1852 N 0.97169 0.58882 0.19707 0.0
N1853 N 0.03267 0.58721 0.2009 0.0
C1854 C 0.01839 0.60993 0.21308 0.0
C1855 C 0.98441 0.61077 0.21096 0.0
loop_
_geom_bond_atom_site_label_1
_geom_bond_atom_site_label_2
_geom_bond_distance
_geom_bond_site_symmetry_2
_ccdc_geom_bond_type
Mn0 O5 2.095 . S
Mn0 O15 2.182 . S
Mn0 O16 2.297 . S
Mn0 O24 2.385 1_554 S
Mn0 O25 2.209 . S
Mn0 O26 2.094 . S
Mn1 O6 2.121 . S
Mn1 N8 2.257 . S
Mn1 N17 2.282 . S
Mn1 O25 2.215 . S
Mn1 O27 2.117 . S
C2 O24 1.234 1_554 S
C2 O25 1.283 . S
C3 O15 1.294 . S
C3 O16 1.236 . S
C4 O26 1.240 . S
C4 O27 1.264 . S
O5 Mn0 2.095 . S
O5 C14 1.250 . S
O6 Mn1 2.121 . S
O6 C14 1.258 . S
C7 N8 1.326 . S
C7 C11 1.460 . S
C7 H13 0.929 . S
N8 Mn1 2.257 . S
N8 C7 1.326 . S
N8 C12 1.362 . S
C9 C10 1.258 . S
C9 C12 1.431 1_655 S
C9 C29 1.449 . S
C10 C9 1.258 . S
C10 C11 1.477 1_655 S
C10 H30 0.931 . S
C11 C7 1.460 . S
C11 C10 1.477 1_455 S
C11 H31 0.930 . S
C12 N8 1.362 . S
C12 C9 1.431 1_455 S
C12 C22 1.476 . S
H13 C7 0.929 . S
C14 O5 1.250 . S
C14 O6 1.258 . S
O15 Mn0 2.182 . S
O15 C3 1.294 . S
O16 Mn0 2.297 . S
O16 C3 1.236 . S
N17 Mn1 2.282 . S
N17 C18 1.328 . S
N17 C22 1.318 . S
C18 N17 1.328 . S
C18 C19 1.457 . S
C18 H23 0.929 . S
C19 C18 1.457 . S
C19 C20 1.291 1_455 S
C19 H32 0.931 1_554 S
C20 C19 1.291 1_655 S
C20 C21 1.373 . S
C20 H33 0.929 . S
C21 C20 1.373 . S
C21 C22 1.396 1_655 S
C21 C28 1.403 . S
C22 C12 1.476 . S
C22 N17 1.318 . S
C22 C21 1.396 1_455 S
H23 C18 0.929 . S
O24 Mn0 2.385 1_556 S
O24 C2 1.234 1_556 S
O25 Mn0 2.209 . S
O25 Mn1 2.215 . S
O25 C2 1.283 . S
O26 Mn0 2.094 . S
O26 C4 1.240 . S
O27 Mn1 2.117 . S
O27 C4 1.264 . S
C28 C21 1.403 . S
C28 C29 1.399 . S
C28 H34 0.929 . S
C29 C9 1.449 . S
C29 C28 1.399 . S
C29 H35 0.930 . S
H30 C10 0.931 . S
H31 C11 0.930 . S
H32 C19 0.931 1_556 S
H33 C20 0.929 . S
H34 C28 0.929 . S
H35 C29 0.930 . S
Mn36 O41 2.095 . S
Mn36 O51 2.162 . S
Mn36 O52 2.297 . S
Mn36 O60 2.385 . S
Mn36 O61 2.209 . S
Mn36 O62 2.094 . S
Mn37 O42 2.121 . S
Mn37 N44 2.257 . S
Mn37 N53 2.282 . S
Mn37 O61 2.215 . S
Mn37 O63 2.117 . S
C38 O60 1.234 . S
C38 O61 1.283 . S
C39 O51 1.281 . S
C39 O52 1.236 . S
C40 O62 1.240 . S
C40 O63 1.264 . S
O41 Mn36 2.095 . S
O41 C50 1.250 . S
O42 Mn37 2.121 . S
O42 C50 1.258 . S
C43 N44 1.326 . S
C43 C47 1.460 . S
C43 H49 0.929 . S
N44 Mn37 2.257 . S
N44 C43 1.326 . S
N44 C48 1.362 . S
C45 C46 1.258 . S
C45 C48 1.431 . S
C45 C65 1.449 . S
C46 C45 1.258 . S
C46 C47 1.477 . S
C46 H66 0.931 . S
C47 C43 1.460 . S
C47 C46 1.477 . S
C47 H67 0.930 . S
C48 N44 1.362 . S
C48 C45 1.431 . S
C48 C58 1.476 . S
H49 C43 0.929 . S
C50 O41 1.250 . S
C50 O42 1.258 . S
O51 Mn36 2.162 . S
O51 C39 1.281 . S
O52 Mn36 2.297 . S
O52 C39 1.236 . S
N53 Mn37 2.282 . S
N53 C54 1.328 . S
N53 C58 1.318 . S
C54 N53 1.328 . S
C54 C55 1.457 . S
C54 H59 0.929 . S
C55 C54 1.457 . S
C55 C56 1.291 . S
C55 H68 0.931 . S
C56 C55 1.291 . S
C56 C57 1.373 . S
C56 H69 0.929 . S
C57 C56 1.373 . S
C57 C58 1.396 . S
C57 C64 1.403 . S
C58 C48 1.476 . S
C58 N53 1.318 . S
C58 C57 1.396 . S
H59 C54 0.929 . S
O60 Mn36 2.385 . S
O60 C38 1.234 . S
O61 Mn36 2.209 . S
O61 Mn37 2.215 . S
O61 C38 1.283 . S
O62 Mn36 2.094 . S
O62 C40 1.240 . S
O63 Mn37 2.117 . S
O63 C40 1.264 . S
C64 C57 1.403 . S
C64 C65 1.399 . S
C64 H70 0.929 . S
C65 C45 1.449 . S
C65 C64 1.399 . S
C65 H71 0.930 . S
H66 C46 0.931 . S
H67 C47 0.930 . S
H68 C55 0.931 . S
H69 C56 0.929 . S
H70 C64 0.929 . S
H71 C65 0.930 . S
Mn72 O77 2.095 . S
Mn72 O87 2.162 . S
Mn72 O88 2.297 . S
Mn72 O96 2.385 . S
Mn72 O97 2.209 . S
Mn72 O98 2.094 . S
Mn73 O78 2.121 . S
Mn73 N80 2.257 . S
Mn73 N89 2.282 . S
Mn73 O97 2.215 . S
Mn73 O99 2.117 . S
C74 O96 1.234 . S
C74 O97 1.283 . S
C75 O87 1.281 . S
C75 O88 1.236 . S
C76 O98 1.240 . S
C76 O99 1.264 . S
O77 Mn72 2.095 . S
O77 C86 1.250 . S
O78 Mn73 2.121 . S
O78 C86 1.258 . S
C79 N80 1.326 . S
C79 C83 1.460 . S
C79 H85 0.929 . S
N80 Mn73 2.257 . S
N80 C79 1.326 . S
N80 C84 1.362 . S
C81 C82 1.258 . S
C81 C84 1.431 . S
C81 C101 1.449 . S
C82 C81 1.258 . S
C82 C83 1.477 . S
C82 H102 0.931 . S
C83 C79 1.460 . S
C83 C82 1.477 . S
C83 H103 0.930 . S
C84 N80 1.362 . S
C84 C81 1.431 . S
C84 C94 1.476 . S
H85 C79 0.929 . S
C86 O77 1.250 . S
C86 O78 1.258 . S
O87 Mn72 2.162 . S
O87 C75 1.281 . S
O88 Mn72 2.297 . S
O88 C75 1.236 . S
N89 Mn73 2.282 . S
N89 C90 1.328 . S
N89 C94 1.318 . S
C90 N89 1.328 . S
C90 C91 1.457 . S
C90 H95 0.929 . S
C91 C90 1.457 . S
C91 C92 1.291 . S
C91 H104 0.931 . S
C92 C91 1.291 . S
C92 C93 1.373 . S
C92 H105 0.929 . S
C93 C92 1.373 . S
C93 C94 1.396 . S
C93 C100 1.403 . S
C94 C84 1.476 . S
C94 N89 1.318 . S
C94 C93 1.396 . S
H95 C90 0.929 . S
O96 Mn72 2.385 . S
O96 C74 1.234 . S
O97 Mn72 2.209 . S
O97 Mn73 2.215 . S
O97 C74 1.283 . S
O98 Mn72 2.094 . S
O98 C76 1.240 . S
O99 Mn73 2.117 . S
O99 C76 1.264 . S
C100 C93 1.403 . S
C100 C101 1.399 . S
C100 H106 0.929 . S
C101 C81 1.449 . S
C101 C100 1.399 . S
C101 H107 0.930 . S
H102 C82 0.931 . S
H103 C83 0.930 . S
H104 C91 0.931 . S
H105 C92 0.929 . S
H106 C100 0.929 . S
H107 C101 0.930 . S
Mn108 O113 2.095 . S
Mn108 O123 2.162 . S
Mn108 O124 2.297 . S
Mn108 O132 2.385 . S
Mn108 O133 2.209 . S
Mn108 O134 2.094 . S
Mn109 O114 2.121 . S
Mn109 N116 2.257 . S
Mn109 N125 2.282 . S
Mn109 O133 2.215 . S
Mn109 O135 2.117 . S
C110 O132 1.234 . S
C110 O133 1.283 . S
C111 O123 1.281 . S
C111 O124 1.236 . S
C112 O134 1.240 . S
C112 O135 1.264 . S
O113 Mn108 2.095 . S
O113 C122 1.250 . S
O114 Mn109 2.121 . S
O114 C122 1.258 . S
C115 N116 1.326 . S
C115 C119 1.460 . S
C115 H121 0.929 . S
N116 Mn109 2.257 . S
N116 C115 1.326 . S
N116 C120 1.362 . S
C117 C118 1.258 . S
C117 C120 1.431 . S
C117 C137 1.449 . S
C118 C117 1.258 . S
C118 C119 1.477 . S
C118 H138 0.931 . S
C119 C115 1.460 . S
C119 C118 1.477 . S
C119 H139 0.930 . S
C120 N116 1.362 . S
C120 C117 1.431 . S
C120 C130 1.476 . S
H121 C115 0.929 . S
C122 O113 1.250 . S
C122 O114 1.258 . S
O123 Mn108 2.162 . S
O123 C111 1.281 . S
O124 Mn108 2.297 . S
O124 C111 1.236 . S
N125 Mn109 2.282 . S
N125 C126 1.328 . S
N125 C130 1.318 . S
C126 N125 1.328 . S
C126 C127 1.457 . S
C126 H131 0.929 . S
C127 C126 1.457 . S
C127 C128 1.291 . S
C127 H140 0.931 . S
C128 C127 1.291 . S
C128 C129 1.373 . S
C128 H141 0.929 . S
C129 C128 1.373 . S
C129 C130 1.396 . S
C129 C136 1.403 . S
C130 C120 1.476 . S
C130 N125 1.318 . S
C130 C129 1.396 . S
H131 C126 0.929 . S
O132 Mn108 2.385 . S
O132 C110 1.234 . S
O133 Mn108 2.209 . S
O133 Mn109 2.215 . S
O133 C110 1.283 . S
O134 Mn108 2.094 . S
O134 C112 1.240 . S
O135 Mn109 2.117 . S
O135 C112 1.264 . S
C136 C129 1.403 . S
C136 C137 1.399 . S
C136 H142 0.929 . S
C137 C117 1.449 . S
C137 C136 1.399 . S
C137 H143 0.930 . S
H138 C118 0.931 . S
H139 C119 0.930 . S
H140 C127 0.931 . S
H141 C128 0.929 . S
H142 C136 0.929 . S
H143 C137 0.930 . S
Mn144 O149 2.095 . S
Mn144 O159 2.182 . S
Mn144 O160 2.297 . S
Mn144 O168 2.385 1_556 S
Mn144 O169 2.209 . S
Mn144 O170 2.094 . S
Mn145 O150 2.121 . S
Mn145 N152 2.257 . S
Mn145 N161 2.282 . S
Mn145 O169 2.215 . S
Mn145 O171 2.117 . S
C146 O168 1.234 1_556 S
C146 O169 1.283 . S
C147 O159 1.294 . S
C147 O160 1.236 . S
C148 O170 1.240 . S
C148 O171 1.264 . S
O149 Mn144 2.095 . S
O149 C158 1.250 . S
O150 Mn145 2.121 . S
O150 C158 1.258 . S
C151 N152 1.326 . S
C151 C155 1.460 . S
C151 H157 0.929 . S
N152 Mn145 2.257 . S
N152 C151 1.326 . S
N152 C156 1.362 . S
C153 C154 1.258 . S
C153 C156 1.431 1_655 S
C153 C173 1.449 . S
C154 C153 1.258 . S
C154 C155 1.477 1_655 S
C154 H174 0.931 . S
C155 C151 1.460 . S
C155 C154 1.477 1_455 S
C155 H175 0.930 . S
C156 N152 1.362 . S
C156 C153 1.431 1_455 S
C156 C166 1.476 . S
H157 C151 0.929 . S
C158 O149 1.250 . S
C158 O150 1.258 . S
O159 Mn144 2.182 . S
O159 C147 1.294 . S
O160 Mn144 2.297 . S
O160 C147 1.236 . S
N161 Mn145 2.282 . S
N161 C162 1.328 . S
N161 C166 1.318 . S
C162 N161 1.328 . S
C162 C163 1.457 . S
C162 H167 0.929 . S
C163 C162 1.457 . S
C163 C164 1.291 1_455 S
C163 H176 0.931 1_556 S
C164 C163 1.291 1_655 S
C164 C165 1.373 . S
C164 H177 0.929 . S
C165 C164 1.373 . S
C165 C166 1.396 1_655 S
C165 C172 1.403 . S
C166 C156 1.476 . S
C166 N161 1.318 . S
C166 C165 1.396 1_455 S
H167 C162 0.929 . S
O168 Mn144 2.385 1_554 S
O168 C146 1.234 1_554 S
O169 Mn144 2.209 . S
O169 Mn145 2.215 . S
O169 C146 1.283 . S
O170 Mn144 2.094 . S
O170 C148 1.240 . S
O171 Mn145 2.117 . S
O171 C148 1.264 . S
C172 C165 1.403 . S
C172 C173 1.399 . S
C172 H178 0.929 . S
C173 C153 1.449 . S
C173 C172 1.399 . S
C173 H179 0.930 . S
H174 C154 0.931 . S
H175 C155 0.930 . S
H176 C163 0.931 1_554 S
H177 C164 0.929 . S
H178 C172 0.929 . S
H179 C173 0.930 . S
Mn180 O185 2.095 . S
Mn180 O195 2.162 . S
Mn180 O196 2.297 . S
Mn180 O204 2.385 . S
Mn180 O205 2.209 . S
Mn180 O206 2.094 . S
Mn181 O186 2.121 . S
Mn181 N188 2.257 . S
Mn181 N197 2.282 . S
Mn181 O205 2.215 . S
Mn181 O207 2.117 . S
C182 O204 1.234 . S
C182 O205 1.283 . S
C183 O195 1.281 . S
C183 O196 1.236 . S
C184 O206 1.240 . S
C184 O207 1.264 . S
O185 Mn180 2.095 . S
O185 C194 1.250 . S
O186 Mn181 2.121 . S
O186 C194 1.258 . S
C187 N188 1.326 . S
C187 C191 1.460 . S
C187 H193 0.929 . S
N188 Mn181 2.257 . S
N188 C187 1.326 . S
N188 C192 1.362 . S
C189 C190 1.258 . S
C189 C192 1.431 . S
C189 C209 1.449 . S
C190 C189 1.258 . S
C190 C191 1.477 . S
C190 H210 0.931 . S
C191 C187 1.460 . S
C191 C190 1.477 . S
C191 H211 0.930 . S
C192 N188 1.362 . S
C192 C189 1.431 . S
C192 C202 1.476 . S
H193 C187 0.929 . S
C194 O185 1.250 . S
C194 O186 1.258 . S
O195 Mn180 2.162 . S
O195 C183 1.281 . S
O196 Mn180 2.297 . S
O196 C183 1.236 . S
N197 Mn181 2.282 . S
N197 C198 1.328 . S
N197 C202 1.318 . S
C198 N197 1.328 . S
C198 C199 1.457 . S
C198 H203 0.929 . S
C199 C198 1.457 . S
C199 C200 1.291 . S
C199 H212 0.931 . S
C200 C199 1.291 . S
C200 C201 1.373 . S
C200 H213 0.929 . S
C201 C200 1.373 . S
C201 C202 1.396 . S
C201 C208 1.403 . S
C202 C192 1.476 . S
C202 N197 1.318 . S
C202 C201 1.396 . S
H203 C198 0.929 . S
O204 Mn180 2.385 . S
O204 C182 1.234 . S
O205 Mn180 2.209 . S
O205 Mn181 2.215 . S
O205 C182 1.283 . S
O206 Mn180 2.094 . S
O206 C184 1.240 . S
O207 Mn181 2.117 . S
O207 C184 1.264 . S
C208 C201 1.403 . S
C208 C209 1.399 . S
C208 H214 0.929 . S
C209 C189 1.449 . S
C209 C208 1.399 . S
C209 H215 0.930 . S
H210 C190 0.931 . S
H211 C191 0.930 . S
H212 C199 0.931 . S
H213 C200 0.929 . S
H214 C208 0.929 . S
H215 C209 0.930 . S
Mn216 O221 2.095 . S
Mn216 O231 2.162 . S
Mn216 O232 2.297 . S
Mn216 O240 2.385 . S
Mn216 O241 2.209 . S
Mn216 O242 2.094 . S
Mn217 O222 2.121 . S
Mn217 N224 2.257 . S
Mn217 N233 2.282 . S
Mn217 O241 2.215 . S
Mn217 O243 2.117 . S
C218 O240 1.234 . S
C218 O241 1.283 . S
C219 O231 1.281 . S
C219 O232 1.236 . S
C220 O242 1.240 . S
C220 O243 1.264 . S
O221 Mn216 2.095 . S
O221 C230 1.250 . S
O222 Mn217 2.121 . S
O222 C230 1.258 . S
C223 N224 1.326 . S
C223 C227 1.460 . S
C223 H229 0.929 . S
N224 Mn217 2.257 . S
N224 C223 1.326 . S
N224 C228 1.362 . S
C225 C226 1.258 . S
C225 C228 1.431 . S
C225 C245 1.449 . S
C226 C225 1.258 . S
C226 C227 1.477 . S
C226 H246 0.931 . S
C227 C223 1.460 . S
C227 C226 1.477 . S
C227 H247 0.930 . S
C228 N224 1.362 . S
C228 C225 1.431 . S
C228 C238 1.476 . S
H229 C223 0.929 . S
C230 O221 1.250 . S
C230 O222 1.258 . S
O231 Mn216 2.162 . S
O231 C219 1.281 . S
O232 Mn216 2.297 . S
O232 C219 1.236 . S
N233 Mn217 2.282 . S
N233 C234 1.328 . S
N233 C238 1.318 . S
C234 N233 1.328 . S
C234 C235 1.457 . S
C234 H239 0.929 . S
C235 C234 1.457 . S
C235 C236 1.291 . S
C235 H248 0.931 . S
C236 C235 1.291 . S
C236 C237 1.373 . S
C236 H249 0.929 . S
C237 C236 1.373 . S
C237 C238 1.396 . S
C237 C244 1.403 . S
C238 C228 1.476 . S
C238 N233 1.318 . S
C238 C237 1.396 . S
H239 C234 0.929 . S
O240 Mn216 2.385 . S
O240 C218 1.234 . S
O241 Mn216 2.209 . S
O241 Mn217 2.215 . S
O241 C218 1.283 . S
O242 Mn216 2.094 . S
O242 C220 1.240 . S
O243 Mn217 2.117 . S
O243 C220 1.264 . S
C244 C237 1.403 . S
C244 C245 1.399 . S
C244 H250 0.929 . S
C245 C225 1.449 . S
C245 C244 1.399 . S
C245 H251 0.930 . S
H246 C226 0.931 . S
H247 C227 0.930 . S
H248 C235 0.931 . S
H249 C236 0.929 . S
H250 C244 0.929 . S
H251 C245 0.930 . S
Mn252 O257 2.095 . S
Mn252 O267 2.162 . S
Mn252 O268 2.297 . S
Mn252 O276 2.385 . S
Mn252 O277 2.209 . S
Mn252 O278 2.094 . S
Mn253 O258 2.121 . S
Mn253 N260 2.257 . S
Mn253 N269 2.282 . S
Mn253 O277 2.215 . S
Mn253 O279 2.117 . S
C254 O276 1.234 . S
C254 O277 1.283 . S
C255 O267 1.281 . S
C255 O268 1.236 . S
C256 O278 1.240 . S
C256 O279 1.264 . S
O257 Mn252 2.095 . S
O257 C266 1.250 . S
O258 Mn253 2.121 . S
O258 C266 1.258 . S
C259 N260 1.326 . S
C259 C263 1.460 . S
C259 H265 0.929 . S
N260 Mn253 2.257 . S
N260 C259 1.326 . S
N260 C264 1.362 . S
C261 C262 1.258 . S
C261 C264 1.431 . S
C261 C281 1.449 . S
C262 C261 1.258 . S
C262 C263 1.477 . S
C262 H282 0.931 . S
C263 C259 1.460 . S
C263 C262 1.477 . S
C263 H283 0.930 . S
C264 N260 1.362 . S
C264 C261 1.431 . S
C264 C274 1.476 . S
H265 C259 0.929 . S
C266 O257 1.250 . S
C266 O258 1.258 . S
O267 Mn252 2.162 . S
O267 C255 1.281 . S
O268 Mn252 2.297 . S
O268 C255 1.236 . S
N269 Mn253 2.282 . S
N269 C270 1.328 . S
N269 C274 1.318 . S
C270 N269 1.328 . S
C270 C271 1.457 . S
C270 H275 0.929 . S
C271 C270 1.457 . S
C271 C272 1.291 . S
C271 H284 0.931 . S
C272 C271 1.291 . S
C272 C273 1.373 . S
C272 H285 0.929 . S
C273 C272 1.373 . S
C273 C274 1.396 . S
C273 C280 1.403 . S
C274 C264 1.476 . S
C274 N269 1.318 . S
C274 C273 1.396 . S
H275 C270 0.929 . S
O276 Mn252 2.385 . S
O276 C254 1.234 . S
O277 Mn252 2.209 . S
O277 Mn253 2.215 . S
O277 C254 1.283 . S
O278 Mn252 2.094 . S
O278 C256 1.240 . S
O279 Mn253 2.117 . S
O279 C256 1.264 . S
C280 C273 1.403 . S
C280 C281 1.399 . S
C280 H286 0.929 . S
C281 C261 1.449 . S
C281 C280 1.399 . S
C281 H287 0.930 . S
H282 C262 0.931 . S
H283 C263 0.930 . S
H284 C271 0.931 . S
H285 C272 0.929 . S
H286 C280 0.929 . S
H287 C281 0.930 . S
Mn288 O293 2.095 . S
Mn288 O303 2.182 . S
Mn288 O304 2.297 . S
Mn288 O312 2.385 1_556 S
Mn288 O313 2.209 . S
Mn288 O314 2.094 . S
Mn289 O294 2.121 . S
Mn289 N296 2.257 . S
Mn289 N305 2.282 . S
Mn289 O313 2.215 . S
Mn289 O315 2.117 . S
C290 O312 1.234 1_556 S
C290 O313 1.283 . S
C291 O303 1.294 . S
C291 O304 1.236 . S
C292 O314 1.240 . S
C292 O315 1.264 . S
O293 Mn288 2.095 . S
O293 C302 1.250 . S
O294 Mn289 2.121 . S
O294 C302 1.258 . S
C295 N296 1.326 . S
C295 C299 1.460 . S
C295 H301 0.929 . S
N296 Mn289 2.257 . S
N296 C295 1.326 . S
N296 C300 1.362 . S
C297 C298 1.258 . S
C297 C300 1.431 1_455 S
C297 C317 1.449 . S
C298 C297 1.258 . S
C298 C299 1.477 1_455 S
C298 H318 0.931 . S
C299 C295 1.460 . S
C299 C298 1.477 1_655 S
C299 H319 0.930 . S
C300 N296 1.362 . S
C300 C297 1.431 1_655 S
C300 C310 1.476 . S
H301 C295 0.929 . S
C302 O293 1.250 . S
C302 O294 1.258 . S
O303 Mn288 2.182 . S
O303 C291 1.294 . S
O304 Mn288 2.297 . S
O304 C291 1.236 . S
N305 Mn289 2.282 . S
N305 C306 1.328 . S
N305 C310 1.318 . S
C306 N305 1.328 . S
C306 C307 1.457 . S
C306 H311 0.929 . S
C307 C306 1.457 . S
C307 C308 1.291 1_655 S
C307 H320 0.931 1_556 S
C308 C307 1.291 1_455 S
C308 C309 1.373 . S
C308 H321 0.929 . S
C309 C308 1.373 . S
C309 C310 1.396 1_455 S
C309 C316 1.403 . S
C310 C300 1.476 . S
C310 N305 1.318 . S
C310 C309 1.396 1_655 S
H311 C306 0.929 . S
O312 Mn288 2.385 1_554 S
O312 C290 1.234 1_554 S
O313 Mn288 2.209 . S
O313 Mn289 2.215 . S
O313 C290 1.283 . S
O314 Mn288 2.094 . S
O314 C292 1.240 . S
O315 Mn289 2.117 . S
O315 C292 1.264 . S
C316 C309 1.403 . S
C316 C317 1.399 . S
C316 H322 0.929 . S
C317 C297 1.449 . S
C317 C316 1.399 . S
C317 H323 0.930 . S
H318 C298 0.931 . S
H319 C299 0.930 . S
H320 C307 0.931 1_554 S
H321 C308 0.929 . S
H322 C316 0.929 . S
H323 C317 0.930 . S
Mn324 O329 2.095 . S
Mn324 O339 2.162 . S
Mn324 O340 2.297 . S
Mn324 O348 2.385 . S
Mn324 O349 2.209 . S
Mn324 O350 2.094 . S
Mn325 O330 2.121 . S
Mn325 N332 2.257 . S
Mn325 N341 2.282 . S
Mn325 O349 2.215 . S
Mn325 O351 2.117 . S
C326 O348 1.234 . S
C326 O349 1.283 . S
C327 O339 1.281 . S
C327 O340 1.236 . S
C328 O350 1.240 . S
C328 O351 1.264 . S
O329 Mn324 2.095 . S
O329 C338 1.250 . S
O330 Mn325 2.121 . S
O330 C338 1.258 . S
C331 N332 1.326 . S
C331 C335 1.460 . S
C331 H337 0.929 . S
N332 Mn325 2.257 . S
N332 C331 1.326 . S
N332 C336 1.362 . S
C333 C334 1.258 . S
C333 C336 1.431 . S
C333 C353 1.449 . S
C334 C333 1.258 . S
C334 C335 1.477 . S
C334 H354 0.931 . S
C335 C331 1.460 . S
C335 C334 1.477 . S
C335 H355 0.930 . S
C336 N332 1.362 . S
C336 C333 1.431 . S
C336 C346 1.476 . S
H337 C331 0.929 . S
C338 O329 1.250 . S
C338 O330 1.258 . S
O339 Mn324 2.162 . S
O339 C327 1.281 . S
O340 Mn324 2.297 . S
O340 C327 1.236 . S
N341 Mn325 2.282 . S
N341 C342 1.328 . S
N341 C346 1.318 . S
C342 N341 1.328 . S
C342 C343 1.457 . S
C342 H347 0.929 . S
C343 C342 1.457 . S
C343 C344 1.291 . S
C343 H356 0.931 . S
C344 C343 1.291 . S
C344 C345 1.373 . S
C344 H357 0.929 . S
C345 C344 1.373 . S
C345 C346 1.396 . S
C345 C352 1.403 . S
C346 C336 1.476 . S
C346 N341 1.318 . S
C346 C345 1.396 . S
H347 C342 0.929 . S
O348 Mn324 2.385 . S
O348 C326 1.234 . S
O349 Mn324 2.209 . S
O349 Mn325 2.215 . S
O349 C326 1.283 . S
O350 Mn324 2.094 . S
O350 C328 1.240 . S
O351 Mn325 2.117 . S
O351 C328 1.264 . S
C352 C345 1.403 . S
C352 C353 1.399 . S
C352 H358 0.929 . S
C353 C333 1.449 . S
C353 C352 1.399 . S
C353 H359 0.930 . S
H354 C334 0.931 . S
H355 C335 0.930 . S
H356 C343 0.931 . S
H357 C344 0.929 . S
H358 C352 0.929 . S
H359 C353 0.930 . S
Mn360 O365 2.095 . S
Mn360 O375 2.162 . S
Mn360 O376 2.297 . S
Mn360 O384 2.385 . S
Mn360 O385 2.209 . S
Mn360 O386 2.094 . S
Mn361 O366 2.121 . S
Mn361 N368 2.257 . S
Mn361 N377 2.282 . S
Mn361 O385 2.215 . S
Mn361 O387 2.117 . S
C362 O384 1.234 . S
C362 O385 1.283 . S
C363 O375 1.281 . S
C363 O376 1.236 . S
C364 O386 1.240 . S
C364 O387 1.264 . S
O365 Mn360 2.095 . S
O365 C374 1.250 . S
O366 Mn361 2.121 . S
O366 C374 1.258 . S
C367 N368 1.326 . S
C367 C371 1.460 . S
C367 H373 0.929 . S
N368 Mn361 2.257 . S
N368 C367 1.326 . S
N368 C372 1.362 . S
C369 C370 1.258 . S
C369 C372 1.431 . S
C369 C389 1.449 . S
C370 C369 1.258 . S
C370 C371 1.477 . S
C370 H390 0.931 . S
C371 C367 1.460 . S
C371 C370 1.477 . S
C371 H391 0.930 . S
C372 N368 1.362 . S
C372 C369 1.431 . S
C372 C382 1.476 . S
H373 C367 0.929 . S
C374 O365 1.250 . S
C374 O366 1.258 . S
O375 Mn360 2.162 . S
O375 C363 1.281 . S
O376 Mn360 2.297 . S
O376 C363 1.236 . S
N377 Mn361 2.282 . S
N377 C378 1.328 . S
N377 C382 1.318 . S
C378 N377 1.328 . S
C378 C379 1.457 . S
C378 H383 0.929 . S
C379 C378 1.457 . S
C379 C380 1.291 . S
C379 H392 0.931 . S
C380 C379 1.291 . S
C380 C381 1.373 . S
C380 H393 0.929 . S
C381 C380 1.373 . S
C381 C382 1.396 . S
C381 C388 1.403 . S
C382 C372 1.476 . S
C382 N377 1.318 . S
C382 C381 1.396 . S
H383 C378 0.929 . S
O384 Mn360 2.385 . S
O384 C362 1.234 . S
O385 Mn360 2.209 . S
O385 Mn361 2.215 . S
O385 C362 1.283 . S
O386 Mn360 2.094 . S
O386 C364 1.240 . S
O387 Mn361 2.117 . S
O387 C364 1.264 . S
C388 C381 1.403 . S
C388 C389 1.399 . S
C388 H394 0.929 . S
C389 C369 1.449 . S
C389 C388 1.399 . S
C389 H395 0.930 . S
H390 C370 0.931 . S
H391 C371 0.930 . S
H392 C379 0.931 . S
H393 C380 0.929 . S
H394 C388 0.929 . S
H395 C389 0.930 . S
Mn396 O401 2.095 . S
Mn396 O411 2.162 . S
Mn396 O412 2.297 . S
Mn396 O420 2.385 . S
Mn396 O421 2.209 . S
Mn396 O422 2.094 . S
Mn397 O402 2.121 . S
Mn397 N404 2.257 . S
Mn397 N413 2.282 . S
Mn397 O421 2.215 . S
Mn397 O423 2.117 . S
C398 O420 1.234 . S
C398 O421 1.283 . S
C399 O411 1.281 . S
C399 O412 1.236 . S
C400 O422 1.240 . S
C400 O423 1.264 . S
O401 Mn396 2.095 . S
O401 C410 1.250 . S
O402 Mn397 2.121 . S
O402 C410 1.258 . S
C403 N404 1.326 . S
C403 C407 1.460 . S
C403 H409 0.929 . S
N404 Mn397 2.257 . S
N404 C403 1.326 . S
N404 C408 1.362 . S
C405 C406 1.258 . S
C405 C408 1.431 . S
C405 C425 1.449 . S
C406 C405 1.258 . S
C406 C407 1.477 . S
C406 H426 0.931 . S
C407 C403 1.460 . S
C407 C406 1.477 . S
C407 H427 0.930 . S
C408 N404 1.362 . S
C408 C405 1.431 . S
C408 C418 1.476 . S
H409 C403 0.929 . S
C410 O401 1.250 . S
C410 O402 1.258 . S
O411 Mn396 2.162 . S
O411 C399 1.281 . S
O412 Mn396 2.297 . S
O412 C399 1.236 . S
N413 Mn397 2.282 . S
N413 C414 1.328 . S
N413 C418 1.318 . S
C414 N413 1.328 . S
C414 C415 1.457 . S
C414 H419 0.929 . S
C415 C414 1.457 . S
C415 C416 1.291 . S
C415 H428 0.931 . S
C416 C415 1.291 . S
C416 C417 1.373 . S
C416 H429 0.929 . S
C417 C416 1.373 . S
C417 C418 1.396 . S
C417 C424 1.403 . S
C418 C408 1.476 . S
C418 N413 1.318 . S
C418 C417 1.396 . S
H419 C414 0.929 . S
O420 Mn396 2.385 . S
O420 C398 1.234 . S
O421 Mn396 2.209 . S
O421 Mn397 2.215 . S
O421 C398 1.283 . S
O422 Mn396 2.094 . S
O422 C400 1.240 . S
O423 Mn397 2.117 . S
O423 C400 1.264 . S
C424 C417 1.403 . S
C424 C425 1.399 . S
C424 H430 0.929 . S
C425 C405 1.449 . S
C425 C424 1.399 . S
C425 H431 0.930 . S
H426 C406 0.931 . S
H427 C407 0.930 . S
H428 C415 0.931 . S
H429 C416 0.929 . S
H430 C424 0.929 . S
H431 C425 0.930 . S
Mn432 O437 2.095 . S
Mn432 O447 2.182 . S
Mn432 O448 2.297 . S
Mn432 O456 2.385 1_554 S
Mn432 O457 2.209 . S
Mn432 O458 2.094 . S
Mn433 O438 2.121 . S
Mn433 N440 2.257 . S
Mn433 N449 2.282 . S
Mn433 O457 2.215 . S
Mn433 O459 2.117 . S
C434 O456 1.234 1_554 S
C434 O457 1.283 . S
C435 O447 1.294 . S
C435 O448 1.236 . S
C436 O458 1.240 . S
C436 O459 1.264 . S
O437 Mn432 2.095 . S
O437 C446 1.250 . S
O438 Mn433 2.121 . S
O438 C446 1.258 . S
C439 N440 1.326 . S
C439 C443 1.460 . S
C439 H445 0.929 . S
N440 Mn433 2.257 . S
N440 C439 1.326 . S
N440 C444 1.362 . S
C441 C442 1.258 . S
C441 C444 1.431 1_455 S
C441 C461 1.449 . S
C442 C441 1.258 . S
C442 C443 1.477 1_455 S
C442 H462 0.931 . S
C443 C439 1.460 . S
C443 C442 1.477 1_655 S
C443 H463 0.930 . S
C444 N440 1.362 . S
C444 C441 1.431 1_655 S
C444 C454 1.476 . S
H445 C439 0.929 . S
C446 O437 1.250 . S
C446 O438 1.258 . S
O447 Mn432 2.182 . S
O447 C435 1.294 . S
O448 Mn432 2.297 . S
O448 C435 1.236 . S
N449 Mn433 2.282 . S
N449 C450 1.328 . S
N449 C454 1.318 . S
C450 N449 1.328 . S
C450 C451 1.457 . S
C450 H455 0.929 . S
C451 C450 1.457 . S
C451 C452 1.291 1_655 S
C451 H464 0.931 1_554 S
C452 C451 1.291 1_455 S
C452 C453 1.373 . S
C452 H465 0.929 . S
C453 C452 1.373 . S
C453 C454 1.396 1_455 S
C453 C460 1.403 . S
C454 C444 1.476 . S
C454 N449 1.318 . S
C454 C453 1.396 1_655 S
H455 C450 0.929 . S
O456 Mn432 2.385 1_556 S
O456 C434 1.234 1_556 S
O457 Mn432 2.209 . S
O457 Mn433 2.215 . S
O457 C434 1.283 . S
O458 Mn432 2.094 . S
O458 C436 1.240 . S
O459 Mn433 2.117 . S
O459 C436 1.264 . S
C460 C453 1.403 . S
C460 C461 1.399 . S
C460 H466 0.929 . S
C461 C441 1.449 . S
C461 C460 1.399 . S
C461 H467 0.930 . S
H462 C442 0.931 . S
H463 C443 0.930 . S
H464 C451 0.931 1_556 S
H465 C452 0.929 . S
H466 C460 0.929 . S
H467 C461 0.930 . S
Mn468 O473 2.095 . S
Mn468 O483 2.162 . S
Mn468 O484 2.297 . S
Mn468 O492 2.385 . S
Mn468 O493 2.209 . S
Mn468 O494 2.094 . S
Mn469 O474 2.121 . S
Mn469 N476 2.257 . S
Mn469 N485 2.282 . S
Mn469 O493 2.215 . S
Mn469 O495 2.117 . S
C470 O492 1.234 . S
C470 O493 1.283 . S
C471 O483 1.281 . S
C471 O484 1.236 . S
C472 O494 1.240 . S
C472 O495 1.264 . S
O473 Mn468 2.095 . S
O473 C482 1.250 . S
O474 Mn469 2.121 . S
O474 C482 1.258 . S
C475 N476 1.326 . S
C475 C479 1.460 . S
C475 H481 0.929 . S
N476 Mn469 2.257 . S
N476 C475 1.326 . S
N476 C480 1.362 . S
C477 C478 1.258 . S
C477 C480 1.431 . S
C477 C497 1.449 . S
C478 C477 1.258 . S
C478 C479 1.477 . S
C478 H498 0.931 . S
C479 C475 1.460 . S
C479 C478 1.477 . S
C479 H499 0.930 . S
C480 N476 1.362 . S
C480 C477 1.431 . S
C480 C490 1.476 . S
H481 C475 0.929 . S
C482 O473 1.250 . S
C482 O474 1.258 . S
O483 Mn468 2.162 . S
O483 C471 1.281 . S
O484 Mn468 2.297 . S
O484 C471 1.236 . S
N485 Mn469 2.282 . S
N485 C486 1.328 . S
N485 C490 1.318 . S
C486 N485 1.328 . S
C486 C487 1.457 . S
C486 H491 0.929 . S
C487 C486 1.457 . S
C487 C488 1.291 . S
C487 H500 0.931 . S
C488 C487 1.291 . S
C488 C489 1.373 . S
C488 H501 0.929 . S
C489 C488 1.373 . S
C489 C490 1.396 . S
C489 C496 1.403 . S
C490 C480 1.476 . S
C490 N485 1.318 . S
C490 C489 1.396 . S
H491 C486 0.929 . S
O492 Mn468 2.385 . S
O492 C470 1.234 . S
O493 Mn468 2.209 . S
O493 Mn469 2.215 . S
O493 C470 1.283 . S
O494 Mn468 2.094 . S
O494 C472 1.240 . S
O495 Mn469 2.117 . S
O495 C472 1.264 . S
C496 C489 1.403 . S
C496 C497 1.399 . S
C496 H502 0.929 . S
C497 C477 1.449 . S
C497 C496 1.399 . S
C497 H503 0.930 . S
H498 C478 0.931 . S
H499 C479 0.930 . S
H500 C487 0.931 . S
H501 C488 0.929 . S
H502 C496 0.929 . S
H503 C497 0.930 . S
Mn504 O509 2.095 . S
Mn504 O519 2.162 . S
Mn504 O520 2.297 . S
Mn504 O528 2.385 . S
Mn504 O529 2.209 . S
Mn504 O530 2.094 . S
Mn505 O510 2.121 . S
Mn505 N512 2.257 . S
Mn505 N521 2.282 . S
Mn505 O529 2.215 . S
Mn505 O531 2.117 . S
C506 O528 1.234 . S
C506 O529 1.283 . S
C507 O519 1.281 . S
C507 O520 1.236 . S
C508 O530 1.240 . S
C508 O531 1.264 . S
O509 Mn504 2.095 . S
O509 C518 1.250 . S
O510 Mn505 2.121 . S
O510 C518 1.258 . S
C511 N512 1.326 . S
C511 C515 1.460 . S
C511 H517 0.929 . S
N512 Mn505 2.257 . S
N512 C511 1.326 . S
N512 C516 1.362 . S
C513 C514 1.258 . S
C513 C516 1.431 . S
C513 C533 1.449 . S
C514 C513 1.258 . S
C514 C515 1.477 . S
C514 H534 0.931 . S
C515 C511 1.460 . S
C515 C514 1.477 . S
C515 H535 0.930 . S
C516 N512 1.362 . S
C516 C513 1.431 . S
C516 C526 1.476 . S
H517 C511 0.929 . S
C518 O509 1.250 . S
C518 O510 1.258 . S
O519 Mn504 2.162 . S
O519 C507 1.281 . S
O520 Mn504 2.297 . S
O520 C507 1.236 . S
N521 Mn505 2.282 . S
N521 C522 1.328 . S
N521 C526 1.318 . S
C522 N521 1.328 . S
C522 C523 1.457 . S
C522 H527 0.929 . S
C523 C522 1.457 . S
C523 C524 1.291 . S
C523 H536 0.931 . S
C524 C523 1.291 . S
C524 C525 1.373 . S
C524 H537 0.929 . S
C525 C524 1.373 . S
C525 C526 1.396 . S
C525 C532 1.403 . S
C526 C516 1.476 . S
C526 N521 1.318 . S
C526 C525 1.396 . S
H527 C522 0.929 . S
O528 Mn504 2.385 . S
O528 C506 1.234 . S
O529 Mn504 2.209 . S
O529 Mn505 2.215 . S
O529 C506 1.283 . S
O530 Mn504 2.094 . S
O530 C508 1.240 . S
O531 Mn505 2.117 . S
O531 C508 1.264 . S
C532 C525 1.403 . S
C532 C533 1.399 . S
C532 H538 0.929 . S
C533 C513 1.449 . S
C533 C532 1.399 . S
C533 H539 0.930 . S
H534 C514 0.931 . S
H535 C515 0.930 . S
H536 C523 0.931 . S
H537 C524 0.929 . S
H538 C532 0.929 . S
H539 C533 0.930 . S
Mn540 O545 2.095 . S
Mn540 O555 2.162 . S
Mn540 O556 2.297 . S
Mn540 O564 2.385 . S
Mn540 O565 2.209 . S
Mn540 O566 2.094 . S
Mn541 O546 2.121 . S
Mn541 N548 2.257 . S
Mn541 N557 2.282 . S
Mn541 O565 2.215 . S
Mn541 O567 2.117 . S
C542 O564 1.234 . S
C542 O565 1.283 . S
C543 O555 1.281 . S
C543 O556 1.236 . S
C544 O566 1.240 . S
C544 O567 1.264 . S
O545 Mn540 2.095 . S
O545 C554 1.250 . S
O546 Mn541 2.121 . S
O546 C554 1.258 . S
C547 N548 1.326 . S
C547 C551 1.460 . S
C547 H553 0.929 . S
N548 Mn541 2.257 . S
N548 C547 1.326 . S
N548 C552 1.362 . S
C549 C550 1.258 . S
C549 C552 1.431 . S
C549 C569 1.449 . S
C550 C549 1.258 . S
C550 C551 1.477 . S
C550 H570 0.931 . S
C551 C547 1.460 . S
C551 C550 1.477 . S
C551 H571 0.930 . S
C552 N548 1.362 . S
C552 C549 1.431 . S
C552 C562 1.476 . S
H553 C547 0.929 . S
C554 O545 1.250 . S
C554 O546 1.258 . S
O555 Mn540 2.162 . S
O555 C543 1.281 . S
O556 Mn540 2.297 . S
O556 C543 1.236 . S
N557 Mn541 2.282 . S
N557 C558 1.328 . S
N557 C562 1.318 . S
C558 N557 1.328 . S
C558 C559 1.457 . S
C558 H563 0.929 . S
C559 C558 1.457 . S
C559 C560 1.291 . S
C559 H572 0.931 . S
C560 C559 1.291 . S
C560 C561 1.373 . S
C560 H573 0.929 . S
C561 C560 1.373 . S
C561 C562 1.396 . S
C561 C568 1.403 . S
C562 C552 1.476 . S
C562 N557 1.318 . S
C562 C561 1.396 . S
H563 C558 0.929 . S
O564 Mn540 2.385 . S
O564 C542 1.234 . S
O565 Mn540 2.209 . S
O565 Mn541 2.215 . S
O565 C542 1.283 . S
O566 Mn540 2.094 . S
O566 C544 1.240 . S
O567 Mn541 2.117 . S
O567 C544 1.264 . S
C568 C561 1.403 . S
C568 C569 1.399 . S
C568 H574 0.929 . S
C569 C549 1.449 . S
C569 C568 1.399 . S
C569 H575 0.930 . S
H570 C550 0.931 . S
H571 C551 0.930 . S
H572 C559 0.931 . S
H573 C560 0.929 . S
H574 C568 0.929 . S
H575 C569 0.930 . S
Mn576 O581 2.095 . S
Mn576 O591 2.162 . S
Mn576 O592 2.297 . S
Mn576 O600 2.385 . S
Mn576 O601 2.209 . S
Mn576 O602 2.094 . S
Mn577 O582 2.121 . S
Mn577 N584 2.257 . S
Mn577 N593 2.282 . S
Mn577 O601 2.215 . S
Mn577 O603 2.117 . S
C578 O600 1.234 . S
C578 O601 1.283 . S
C579 O591 1.281 . S
C579 O592 1.236 . S
C580 O602 1.240 . S
C580 O603 1.264 . S
O581 Mn576 2.095 . S
O581 C590 1.250 . S
O582 Mn577 2.121 . S
O582 C590 1.258 . S
C583 N584 1.326 . S
C583 C587 1.460 . S
C583 H589 0.929 . S
N584 Mn577 2.257 . S
N584 C583 1.326 . S
N584 C588 1.362 . S
C585 C586 1.258 . S
C585 C588 1.431 . S
C585 C605 1.449 . S
C586 C585 1.258 . S
C586 C587 1.477 . S
C586 H606 0.931 . S
C587 C583 1.460 . S
C587 C586 1.477 . S
C587 H607 0.930 . S
C588 N584 1.362 . S
C588 C585 1.431 . S
C588 C598 1.476 . S
H589 C583 0.929 . S
C590 O581 1.250 . S
C590 O582 1.258 . S
O591 Mn576 2.162 . S
O591 C579 1.281 . S
O592 Mn576 2.297 . S
O592 C579 1.236 . S
N593 Mn577 2.282 . S
N593 C594 1.328 . S
N593 C598 1.318 . S
C594 N593 1.328 . S
C594 C595 1.457 . S
C594 H599 0.929 . S
C595 C594 1.457 . S
C595 C596 1.291 . S
C595 H608 0.931 . S
C596 C595 1.291 . S
C596 C597 1.373 . S
C596 H609 0.929 . S
C597 C596 1.373 . S
C597 C598 1.396 . S
C597 C604 1.403 . S
C598 C588 1.476 . S
C598 N593 1.318 . S
C598 C597 1.396 . S
H599 C594 0.929 . S
O600 Mn576 2.385 . S
O600 C578 1.234 . S
O601 Mn576 2.209 . S
O601 Mn577 2.215 . S
O601 C578 1.283 . S
O602 Mn576 2.094 . S
O602 C580 1.240 . S
O603 Mn577 2.117 . S
O603 C580 1.264 . S
C604 C597 1.403 . S
C604 C605 1.399 . S
C604 H610 0.929 . S
C605 C585 1.449 . S
C605 C604 1.399 . S
C605 H611 0.930 . S
H606 C586 0.931 . S
H607 C587 0.930 . S
H608 C595 0.931 . S
H609 C596 0.929 . S
H610 C604 0.929 . S
H611 C605 0.930 . S
Mn612 O617 2.095 . S
Mn612 O627 2.162 . S
Mn612 O628 2.297 . S
Mn612 O636 2.385 . S
Mn612 O637 2.209 . S
Mn612 O638 2.094 . S
Mn613 O618 2.121 . S
Mn613 N620 2.257 . S
Mn613 N629 2.282 . S
Mn613 O637 2.215 . S
Mn613 O639 2.117 . S
C614 O636 1.234 . S
C614 O637 1.283 . S
C615 O627 1.281 . S
C615 O628 1.236 . S
C616 O638 1.240 . S
C616 O639 1.264 . S
O617 Mn612 2.095 . S
O617 C626 1.250 . S
O618 Mn613 2.121 . S
O618 C626 1.258 . S
C619 N620 1.326 . S
C619 C623 1.460 . S
C619 H625 0.929 . S
N620 Mn613 2.257 . S
N620 C619 1.326 . S
N620 C624 1.362 . S
C621 C622 1.258 . S
C621 C624 1.431 . S
C621 C641 1.449 . S
C622 C621 1.258 . S
C622 C623 1.477 . S
C622 H642 0.931 . S
C623 C619 1.460 . S
C623 C622 1.477 . S
C623 H643 0.930 . S
C624 N620 1.362 . S
C624 C621 1.431 . S
C624 C634 1.476 . S
H625 C619 0.929 . S
C626 O617 1.250 . S
C626 O618 1.258 . S
O627 Mn612 2.162 . S
O627 C615 1.281 . S
O628 Mn612 2.297 . S
O628 C615 1.236 . S
N629 Mn613 2.282 . S
N629 C630 1.328 . S
N629 C634 1.318 . S
C630 N629 1.328 . S
C630 C631 1.457 . S
C630 H635 0.929 . S
C631 C630 1.457 . S
C631 C632 1.291 . S
C631 H644 0.931 . S
C632 C631 1.291 . S
C632 C633 1.373 . S
C632 H645 0.929 . S
C633 C632 1.373 . S
C633 C634 1.396 . S
C633 C640 1.403 . S
C634 C624 1.476 . S
C634 N629 1.318 . S
C634 C633 1.396 . S
H635 C630 0.929 . S
O636 Mn612 2.385 . S
O636 C614 1.234 . S
O637 Mn612 2.209 . S
O637 Mn613 2.215 . S
O637 C614 1.283 . S
O638 Mn612 2.094 . S
O638 C616 1.240 . S
O639 Mn613 2.117 . S
O639 C616 1.264 . S
C640 C633 1.403 . S
C640 C641 1.399 . S
C640 H646 0.929 . S
C641 C621 1.449 . S
C641 C640 1.399 . S
C641 H647 0.930 . S
H642 C622 0.931 . S
H643 C623 0.930 . S
H644 C631 0.931 . S
H645 C632 0.929 . S
H646 C640 0.929 . S
H647 C641 0.930 . S
Mn648 O653 2.095 . S
Mn648 O663 2.182 . S
Mn648 O664 2.297 . S
Mn648 O672 2.385 1_554 S
Mn648 O673 2.209 . S
Mn648 O674 2.094 . S
Mn649 O654 2.121 . S
Mn649 N656 2.257 . S
Mn649 N665 2.282 . S
Mn649 O673 2.215 . S
Mn649 O675 2.117 . S
C650 O672 1.234 1_554 S
C650 O673 1.283 . S
C651 O663 1.294 . S
C651 O664 1.236 . S
C652 O674 1.240 . S
C652 O675 1.264 . S
O653 Mn648 2.095 . S
O653 C662 1.250 . S
O654 Mn649 2.121 . S
O654 C662 1.258 . S
C655 N656 1.326 . S
C655 C659 1.460 . S
C655 H661 0.929 . S
N656 Mn649 2.257 . S
N656 C655 1.326 . S
N656 C660 1.362 . S
C657 C658 1.258 . S
C657 C660 1.431 1_455 S
C657 C677 1.449 . S
C658 C657 1.258 . S
C658 C659 1.477 1_455 S
C658 H678 0.931 . S
C659 C655 1.460 . S
C659 C658 1.477 1_655 S
C659 H679 0.930 . S
C660 N656 1.362 . S
C660 C657 1.431 1_655 S
C660 C670 1.476 . S
H661 C655 0.929 . S
C662 O653 1.250 . S
C662 O654 1.258 . S
O663 Mn648 2.182 . S
O663 C651 1.294 . S
O664 Mn648 2.297 . S
O664 C651 1.236 . S
N665 Mn649 2.282 . S
N665 C666 1.328 . S
N665 C670 1.318 . S
C666 N665 1.328 . S
C666 C667 1.457 . S
C666 H671 0.929 . S
C667 C666 1.457 . S
C667 C668 1.291 1_655 S
C667 H680 0.931 1_554 S
C668 C667 1.291 1_455 S
C668 C669 1.373 . S
C668 H681 0.929 . S
C669 C668 1.373 . S
C669 C670 1.396 1_455 S
C669 C676 1.403 . S
C670 C660 1.476 . S
C670 N665 1.318 . S
C670 C669 1.396 1_655 S
H671 C666 0.929 . S
O672 Mn648 2.385 1_556 S
O672 C650 1.234 1_556 S
O673 Mn648 2.209 . S
O673 Mn649 2.215 . S
O673 C650 1.283 . S
O674 Mn648 2.094 . S
O674 C652 1.240 . S
O675 Mn649 2.117 . S
O675 C652 1.264 . S
C676 C669 1.403 . S
C676 C677 1.399 . S
C676 H682 0.929 . S
C677 C657 1.449 . S
C677 C676 1.399 . S
C677 H683 0.930 . S
H678 C658 0.931 . S
H679 C659 0.930 . S
H680 C667 0.931 1_556 S
H681 C668 0.929 . S
H682 C676 0.929 . S
H683 C677 0.930 . S
Mn684 O689 2.095 . S
Mn684 O699 2.162 . S
Mn684 O700 2.297 . S
Mn684 O708 2.385 . S
Mn684 O709 2.209 . S
Mn684 O710 2.094 . S
Mn685 O690 2.121 . S
Mn685 N692 2.257 . S
Mn685 N701 2.282 . S
Mn685 O709 2.215 . S
Mn685 O711 2.117 . S
C686 O708 1.234 . S
C686 O709 1.283 . S
C687 O699 1.281 . S
C687 O700 1.236 . S
C688 O710 1.240 . S
C688 O711 1.264 . S
O689 Mn684 2.095 . S
O689 C698 1.250 . S
O690 Mn685 2.121 . S
O690 C698 1.258 . S
C691 N692 1.326 . S
C691 C695 1.460 . S
C691 H697 0.929 . S
N692 Mn685 2.257 . S
N692 C691 1.326 . S
N692 C696 1.362 . S
C693 C694 1.258 . S
C693 C696 1.431 . S
C693 C713 1.449 . S
C694 C693 1.258 . S
C694 C695 1.477 . S
C694 H714 0.931 . S
C695 C691 1.460 . S
C695 C694 1.477 . S
C695 H715 0.930 . S
C696 N692 1.362 . S
C696 C693 1.431 . S
C696 C706 1.476 . S
H697 C691 0.929 . S
C698 O689 1.250 . S
C698 O690 1.258 . S
O699 Mn684 2.162 . S
O699 C687 1.281 . S
O700 Mn684 2.297 . S
O700 C687 1.236 . S
N701 Mn685 2.282 . S
N701 C702 1.328 . S
N701 C706 1.318 . S
C702 N701 1.328 . S
C702 C703 1.457 . S
C702 H707 0.929 . S
C703 C702 1.457 . S
C703 C704 1.291 . S
C703 H716 0.931 . S
C704 C703 1.291 . S
C704 C705 1.373 . S
C704 H717 0.929 . S
C705 C704 1.373 . S
C705 C706 1.396 . S
C705 C712 1.403 . S
C706 C696 1.476 . S
C706 N701 1.318 . S
C706 C705 1.396 . S
H707 C702 0.929 . S
O708 Mn684 2.385 . S
O708 C686 1.234 . S
O709 Mn684 2.209 . S
O709 Mn685 2.215 . S
O709 C686 1.283 . S
O710 Mn684 2.094 . S
O710 C688 1.240 . S
O711 Mn685 2.117 . S
O711 C688 1.264 . S
C712 C705 1.403 . S
C712 C713 1.399 . S
C712 H718 0.929 . S
C713 C693 1.449 . S
C713 C712 1.399 . S
C713 H719 0.930 . S
H714 C694 0.931 . S
H715 C695 0.930 . S
H716 C703 0.931 . S
H717 C704 0.929 . S
H718 C712 0.929 . S
H719 C713 0.930 . S
Mn720 O725 2.095 . S
Mn720 O735 2.162 . S
Mn720 O736 2.297 . S
Mn720 O744 2.385 . S
Mn720 O745 2.209 . S
Mn720 O746 2.094 . S
Mn721 O726 2.121 . S
Mn721 N728 2.257 . S
Mn721 N737 2.282 . S
Mn721 O745 2.215 . S
Mn721 O747 2.117 . S
C722 O744 1.234 . S
C722 O745 1.283 . S
C723 O735 1.281 . S
C723 O736 1.236 . S
C724 O746 1.240 . S
C724 O747 1.264 . S
O725 Mn720 2.095 . S
O725 C734 1.250 . S
O726 Mn721 2.121 . S
O726 C734 1.258 . S
C727 N728 1.326 . S
C727 C731 1.460 . S
C727 H733 0.929 . S
N728 Mn721 2.257 . S
N728 C727 1.326 . S
N728 C732 1.362 . S
C729 C730 1.258 . S
C729 C732 1.431 . S
C729 C749 1.449 . S
C730 C729 1.258 . S
C730 C731 1.477 . S
C730 H750 0.931 . S
C731 C727 1.460 . S
C731 C730 1.477 . S
C731 H751 0.930 . S
C732 N728 1.362 . S
C732 C729 1.431 . S
C732 C742 1.476 . S
H733 C727 0.929 . S
C734 O725 1.250 . S
C734 O726 1.258 . S
O735 Mn720 2.162 . S
O735 C723 1.281 . S
O736 Mn720 2.297 . S
O736 C723 1.236 . S
N737 Mn721 2.282 . S
N737 C738 1.328 . S
N737 C742 1.318 . S
C738 N737 1.328 . S
C738 C739 1.457 . S
C738 H743 0.929 . S
C739 C738 1.457 . S
C739 C740 1.291 . S
C739 H752 0.931 . S
C740 C739 1.291 . S
C740 C741 1.373 . S
C740 H753 0.929 . S
C741 C740 1.373 . S
C741 C742 1.396 . S
C741 C748 1.403 . S
C742 C732 1.476 . S
C742 N737 1.318 . S
C742 C741 1.396 . S
H743 C738 0.929 . S
O744 Mn720 2.385 . S
O744 C722 1.234 . S
O745 Mn720 2.209 . S
O745 Mn721 2.215 . S
O745 C722 1.283 . S
O746 Mn720 2.094 . S
O746 C724 1.240 . S
O747 Mn721 2.117 . S
O747 C724 1.264 . S
C748 C741 1.403 . S
C748 C749 1.399 . S
C748 H754 0.929 . S
C749 C729 1.449 . S
C749 C748 1.399 . S
C749 H755 0.930 . S
H750 C730 0.931 . S
H751 C731 0.930 . S
H752 C739 0.931 . S
H753 C740 0.929 . S
H754 C748 0.929 . S
H755 C749 0.930 . S
Mn756 O761 2.095 . S
Mn756 O771 2.162 . S
Mn756 O772 2.297 . S
Mn756 O780 2.385 . S
Mn756 O781 2.209 . S
Mn756 O782 2.094 . S
Mn757 O762 2.121 . S
Mn757 N764 2.257 . S
Mn757 N773 2.282 . S
Mn757 O781 2.215 . S
Mn757 O783 2.117 . S
C758 O780 1.234 . S
C758 O781 1.283 . S
C759 O771 1.281 . S
C759 O772 1.236 . S
C760 O782 1.240 . S
C760 O783 1.264 . S
O761 Mn756 2.095 . S
O761 C770 1.250 . S
O762 Mn757 2.121 . S
O762 C770 1.258 . S
C763 N764 1.326 . S
C763 C767 1.460 . S
C763 H769 0.929 . S
N764 Mn757 2.257 . S
N764 C763 1.326 . S
N764 C768 1.362 . S
C765 C766 1.258 . S
C765 C768 1.431 . S
C765 C785 1.449 . S
C766 C765 1.258 . S
C766 C767 1.477 . S
C766 H786 0.931 . S
C767 C763 1.460 . S
C767 C766 1.477 . S
C767 H787 0.930 . S
C768 N764 1.362 . S
C768 C765 1.431 . S
C768 C778 1.476 . S
H769 C763 0.929 . S
C770 O761 1.250 . S
C770 O762 1.258 . S
O771 Mn756 2.162 . S
O771 C759 1.281 . S
O772 Mn756 2.297 . S
O772 C759 1.236 . S
N773 Mn757 2.282 . S
N773 C774 1.328 . S
N773 C778 1.318 . S
C774 N773 1.328 . S
C774 C775 1.457 . S
C774 H779 0.929 . S
C775 C774 1.457 . S
C775 C776 1.291 . S
C775 H788 0.931 . S
C776 C775 1.291 . S
C776 C777 1.373 . S
C776 H789 0.929 . S
C777 C776 1.373 . S
C777 C778 1.396 . S
C777 C784 1.403 . S
C778 C768 1.476 . S
C778 N773 1.318 . S
C778 C777 1.396 . S
H779 C774 0.929 . S
O780 Mn756 2.385 . S
O780 C758 1.234 . S
O781 Mn756 2.209 . S
O781 Mn757 2.215 . S
O781 C758 1.283 . S
O782 Mn756 2.094 . S
O782 C760 1.240 . S
O783 Mn757 2.117 . S
O783 C760 1.264 . S
C784 C777 1.403 . S
C784 C785 1.399 . S
C784 H790 0.929 . S
C785 C765 1.449 . S
C785 C784 1.399 . S
C785 H791 0.930 . S
H786 C766 0.931 . S
H787 C767 0.930 . S
H788 C775 0.931 . S
H789 C776 0.929 . S
H790 C784 0.929 . S
H791 C785 0.930 . S
Mn792 O797 2.095 . S
Mn792 O807 2.182 . S
Mn792 O808 2.297 . S
Mn792 O816 2.385 1_556 S
Mn792 O817 2.209 . S
Mn792 O818 2.094 . S
Mn793 O798 2.121 . S
Mn793 N800 2.257 . S
Mn793 N809 2.282 . S
Mn793 O817 2.215 . S
Mn793 O819 2.117 . S
C794 O816 1.234 1_556 S
C794 O817 1.283 . S
C795 O807 1.294 . S
C795 O808 1.236 . S
C796 O818 1.240 . S
C796 O819 1.264 . S
O797 Mn792 2.095 . S
O797 C806 1.250 . S
O798 Mn793 2.121 . S
O798 C806 1.258 . S
C799 N800 1.326 . S
C799 C803 1.460 . S
C799 H805 0.929 . S
N800 Mn793 2.257 . S
N800 C799 1.326 . S
N800 C804 1.362 . S
C801 C802 1.258 . S
C801 C804 1.431 1_455 S
C801 C821 1.449 . S
C802 C801 1.258 . S
C802 C803 1.477 1_455 S
C802 H822 0.931 . S
C803 C799 1.460 . S
C803 C802 1.477 1_655 S
C803 H823 0.930 . S
C804 N800 1.362 . S
C804 C801 1.431 1_655 S
C804 C814 1.476 . S
H805 C799 0.929 . S
C806 O797 1.250 . S
C806 O798 1.258 . S
O807 Mn792 2.182 . S
O807 C795 1.294 . S
O808 Mn792 2.297 . S
O808 C795 1.236 . S
N809 Mn793 2.282 . S
N809 C810 1.328 . S
N809 C814 1.318 . S
C810 N809 1.328 . S
C810 C811 1.457 . S
C810 H815 0.929 . S
C811 C810 1.457 . S
C811 C812 1.291 1_655 S
C811 H824 0.931 1_556 S
C812 C811 1.291 1_455 S
C812 C813 1.373 . S
C812 H825 0.929 . S
C813 C812 1.373 . S
C813 C814 1.396 1_455 S
C813 C820 1.403 . S
C814 C804 1.476 . S
C814 N809 1.318 . S
C814 C813 1.396 1_655 S
H815 C810 0.929 . S
O816 Mn792 2.385 1_554 S
O816 C794 1.234 1_554 S
O817 Mn792 2.209 . S
O817 Mn793 2.215 . S
O817 C794 1.283 . S
O818 Mn792 2.094 . S
O818 C796 1.240 . S
O819 Mn793 2.117 . S
O819 C796 1.264 . S
C820 C813 1.403 . S
C820 C821 1.399 . S
C820 H826 0.929 . S
C821 C801 1.449 . S
C821 C820 1.399 . S
C821 H827 0.930 . S
H822 C802 0.931 . S
H823 C803 0.930 . S
H824 C811 0.931 1_554 S
H825 C812 0.929 . S
H826 C820 0.929 . S
H827 C821 0.930 . S
Mn828 O833 2.095 . S
Mn828 O843 2.162 . S
Mn828 O844 2.297 . S
Mn828 O852 2.385 . S
Mn828 O853 2.209 . S
Mn828 O854 2.094 . S
Mn829 O834 2.121 . S
Mn829 N836 2.257 . S
Mn829 N845 2.282 . S
Mn829 O853 2.215 . S
Mn829 O855 2.117 . S
C830 O852 1.234 . S
C830 O853 1.283 . S
C831 O843 1.281 . S
C831 O844 1.236 . S
C832 O854 1.240 . S
C832 O855 1.264 . S
O833 Mn828 2.095 . S
O833 C842 1.250 . S
O834 Mn829 2.121 . S
O834 C842 1.258 . S
C835 N836 1.326 . S
C835 C839 1.460 . S
C835 H841 0.929 . S
N836 Mn829 2.257 . S
N836 C835 1.326 . S
N836 C840 1.362 . S
C837 C838 1.258 . S
C837 C840 1.431 . S
C837 C857 1.449 . S
C838 C837 1.258 . S
C838 C839 1.477 . S
C838 H858 0.931 . S
C839 C835 1.460 . S
C839 C838 1.477 . S
C839 H859 0.930 . S
C840 N836 1.362 . S
C840 C837 1.431 . S
C840 C850 1.476 . S
H841 C835 0.929 . S
C842 O833 1.250 . S
C842 O834 1.258 . S
O843 Mn828 2.162 . S
O843 C831 1.281 . S
O844 Mn828 2.297 . S
O844 C831 1.236 . S
N845 Mn829 2.282 . S
N845 C846 1.328 . S
N845 C850 1.318 . S
C846 N845 1.328 . S
C846 C847 1.457 . S
C846 H851 0.929 . S
C847 C846 1.457 . S
C847 C848 1.291 . S
C847 H860 0.931 . S
C848 C847 1.291 . S
C848 C849 1.373 . S
C848 H861 0.929 . S
C849 C848 1.373 . S
C849 C850 1.396 . S
C849 C856 1.403 . S
C850 C840 1.476 . S
C850 N845 1.318 . S
C850 C849 1.396 . S
H851 C846 0.929 . S
O852 Mn828 2.385 . S
O852 C830 1.234 . S
O853 Mn828 2.209 . S
O853 Mn829 2.215 . S
O853 C830 1.283 . S
O854 Mn828 2.094 . S
O854 C832 1.240 . S
O855 Mn829 2.117 . S
O855 C832 1.264 . S
C856 C849 1.403 . S
C856 C857 1.399 . S
C856 H862 0.929 . S
C857 C837 1.449 . S
C857 C856 1.399 . S
C857 H863 0.930 . S
H858 C838 0.931 . S
H859 C839 0.930 . S
H860 C847 0.931 . S
H861 C848 0.929 . S
H862 C856 0.929 . S
H863 C857 0.930 . S
Mn864 O869 2.095 . S
Mn864 O879 2.162 . S
Mn864 O880 2.297 . S
Mn864 O888 2.385 . S
Mn864 O889 2.209 . S
Mn864 O890 2.094 . S
Mn865 O870 2.121 . S
Mn865 N872 2.257 . S
Mn865 N881 2.282 . S
Mn865 O889 2.215 . S
Mn865 O891 2.117 . S
C866 O888 1.234 . S
C866 O889 1.283 . S
C867 O879 1.281 . S
C867 O880 1.236 . S
C868 O890 1.240 . S
C868 O891 1.264 . S
O869 Mn864 2.095 . S
O869 C878 1.250 . S
O870 Mn865 2.121 . S
O870 C878 1.258 . S
C871 N872 1.326 . S
C871 C875 1.460 . S
C871 H877 0.929 . S
N872 Mn865 2.257 . S
N872 C871 1.326 . S
N872 C876 1.362 . S
C873 C874 1.258 . S
C873 C876 1.431 . S
C873 C893 1.449 . S
C874 C873 1.258 . S
C874 C875 1.477 . S
C874 H894 0.931 . S
C875 C871 1.460 . S
C875 C874 1.477 . S
C875 H895 0.930 . S
C876 N872 1.362 . S
C876 C873 1.431 . S
C876 C886 1.476 . S
H877 C871 0.929 . S
C878 O869 1.250 . S
C878 O870 1.258 . S
O879 Mn864 2.162 . S
O879 C867 1.281 . S
O880 Mn864 2.297 . S
O880 C867 1.236 . S
N881 Mn865 2.282 . S
N881 C882 1.328 . S
N881 C886 1.318 . S
C882 N881 1.328 . S
C882 C883 1.457 . S
C882 H887 0.929 . S
C883 C882 1.457 . S
C883 C884 1.291 . S
C883 H896 0.931 . S
C884 C883 1.291 . S
C884 C885 1.373 . S
C884 H897 0.929 . S
C885 C884 1.373 . S
C885 C886 1.396 . S
C885 C892 1.403 . S
C886 C876 1.476 . S
C886 N881 1.318 . S
C886 C885 1.396 . S
H887 C882 0.929 . S
O888 Mn864 2.385 . S
O888 C866 1.234 . S
O889 Mn864 2.209 . S
O889 Mn865 2.215 . S
O889 C866 1.283 . S
O890 Mn864 2.094 . S
O890 C868 1.240 . S
O891 Mn865 2.117 . S
O891 C868 1.264 . S
C892 C885 1.403 . S
C892 C893 1.399 . S
C892 H898 0.929 . S
C893 C873 1.449 . S
C893 C892 1.399 . S
C893 H899 0.930 . S
H894 C874 0.931 . S
H895 C875 0.930 . S
H896 C883 0.931 . S
H897 C884 0.929 . S
H898 C892 0.929 . S
H899 C893 0.930 . S
Mn900 O905 2.095 . S
Mn900 O915 2.162 . S
Mn900 O916 2.297 . S
Mn900 O924 2.385 . S
Mn900 O925 2.209 . S
Mn900 O926 2.094 . S
Mn901 O906 2.121 . S
Mn901 N908 2.257 . S
Mn901 N917 2.282 . S
Mn901 O925 2.215 . S
Mn901 O927 2.117 . S
C902 O924 1.234 . S
C902 O925 1.283 . S
C903 O915 1.281 . S
C903 O916 1.236 . S
C904 O926 1.240 . S
C904 O927 1.264 . S
O905 Mn900 2.095 . S
O905 C914 1.250 . S
O906 Mn901 2.121 . S
O906 C914 1.258 . S
C907 N908 1.326 . S
C907 C911 1.460 . S
C907 H913 0.929 . S
N908 Mn901 2.257 . S
N908 C907 1.326 . S
N908 C912 1.362 . S
C909 C910 1.258 . S
C909 C912 1.431 . S
C909 C929 1.449 . S
C910 C909 1.258 . S
C910 C911 1.477 . S
C910 H930 0.931 . S
C911 C907 1.460 . S
C911 C910 1.477 . S
C911 H931 0.930 . S
C912 N908 1.362 . S
C912 C909 1.431 . S
C912 C922 1.476 . S
H913 C907 0.929 . S
C914 O905 1.250 . S
C914 O906 1.258 . S
O915 Mn900 2.162 . S
O915 C903 1.281 . S
O916 Mn900 2.297 . S
O916 C903 1.236 . S
N917 Mn901 2.282 . S
N917 C918 1.328 . S
N917 C922 1.318 . S
C918 N917 1.328 . S
C918 C919 1.457 . S
C918 H923 0.929 . S
C919 C918 1.457 . S
C919 C920 1.291 . S
C919 H932 0.931 . S
C920 C919 1.291 . S
C920 C921 1.373 . S
C920 H933 0.929 . S
C921 C920 1.373 . S
C921 C922 1.396 . S
C921 C928 1.403 . S
C922 C912 1.476 . S
C922 N917 1.318 . S
C922 C921 1.396 . S
H923 C918 0.929 . S
O924 Mn900 2.385 . S
O924 C902 1.234 . S
O925 Mn900 2.209 . S
O925 Mn901 2.215 . S
O925 C902 1.283 . S
O926 Mn900 2.094 . S
O926 C904 1.240 . S
O927 Mn901 2.117 . S
O927 C904 1.264 . S
C928 C921 1.403 . S
C928 C929 1.399 . S
C928 H934 0.929 . S
C929 C909 1.449 . S
C929 C928 1.399 . S
C929 H935 0.930 . S
H930 C910 0.931 . S
H931 C911 0.930 . S
H932 C919 0.931 . S
H933 C920 0.929 . S
H934 C928 0.929 . S
H935 C929 0.930 . S
Mn936 O941 2.095 . S
Mn936 O951 2.182 . S
Mn936 O952 2.297 . S
Mn936 O960 2.385 1_556 S
Mn936 O961 2.209 . S
Mn936 O962 2.094 . S
Mn937 O942 2.121 . S
Mn937 N944 2.257 . S
Mn937 N953 2.282 . S
Mn937 O961 2.215 . S
Mn937 O963 2.117 . S
C938 O960 1.234 1_556 S
C938 O961 1.283 . S
C939 O951 1.294 . S
C939 O952 1.236 . S
C940 O962 1.240 . S
C940 O963 1.264 . S
O941 Mn936 2.095 . S
O941 C950 1.250 . S
O942 Mn937 2.121 . S
O942 C950 1.258 . S
C943 N944 1.326 . S
C943 C947 1.460 . S
C943 H949 0.929 . S
N944 Mn937 2.257 . S
N944 C943 1.326 . S
N944 C948 1.362 . S
C945 C946 1.258 . S
C945 C948 1.431 1_655 S
C945 C965 1.449 . S
C946 C945 1.258 . S
C946 C947 1.477 1_655 S
C946 H966 0.931 . S
C947 C943 1.460 . S
C947 C946 1.477 1_455 S
C947 H967 0.930 . S
C948 N944 1.362 . S
C948 C945 1.431 1_455 S
C948 C958 1.476 . S
H949 C943 0.929 . S
C950 O941 1.250 . S
C950 O942 1.258 . S
O951 Mn936 2.182 . S
O951 C939 1.294 . S
O952 Mn936 2.297 . S
O952 C939 1.236 . S
N953 Mn937 2.282 . S
N953 C954 1.328 . S
N953 C958 1.318 . S
C954 N953 1.328 . S
C954 C955 1.457 . S
C954 H959 0.929 . S
C955 C954 1.457 . S
C955 C956 1.291 1_455 S
C955 H968 0.931 1_556 S
C956 C955 1.291 1_655 S
C956 C957 1.373 . S
C956 H969 0.929 . S
C957 C956 1.373 . S
C957 C958 1.396 1_655 S
C957 C964 1.403 . S
C958 C948 1.476 . S
C958 N953 1.318 . S
C958 C957 1.396 1_455 S
H959 C954 0.929 . S
O960 Mn936 2.385 1_554 S
O960 C938 1.234 1_554 S
O961 Mn936 2.209 . S
O961 Mn937 2.215 . S
O961 C938 1.283 . S
O962 Mn936 2.094 . S
O962 C940 1.240 . S
O963 Mn937 2.117 . S
O963 C940 1.264 . S
C964 C957 1.403 . S
C964 C965 1.399 . S
C964 H970 0.929 . S
C965 C945 1.449 . S
C965 C964 1.399 . S
C965 H971 0.930 . S
H966 C946 0.931 . S
H967 C947 0.930 . S
H968 C955 0.931 1_554 S
H969 C956 0.929 . S
H970 C964 0.929 . S
H971 C965 0.930 . S
Mn972 O977 2.095 . S
Mn972 O987 2.162 . S
Mn972 O988 2.297 . S
Mn972 O996 2.385 . S
Mn972 O997 2.209 . S
Mn972 O998 2.094 . S
Mn973 O978 2.121 . S
Mn973 N980 2.257 . S
Mn973 N989 2.282 . S
Mn973 O997 2.215 . S
Mn973 O999 2.117 . S
C974 O996 1.234 . S
C974 O997 1.283 . S
C975 O987 1.281 . S
C975 O988 1.236 . S
C976 O998 1.240 . S
C976 O999 1.264 . S
O977 Mn972 2.095 . S
O977 C986 1.250 . S
O978 Mn973 2.121 . S
O978 C986 1.258 . S
C979 N980 1.326 . S
C979 C983 1.460 . S
C979 H985 0.929 . S
N980 Mn973 2.257 . S
N980 C979 1.326 . S
N980 C984 1.362 . S
C981 C982 1.258 . S
C981 C984 1.431 . S
C981 C1001 1.449 . S
C982 C981 1.258 . S
C982 C983 1.477 . S
C982 H1002 0.931 . S
C983 C979 1.460 . S
C983 C982 1.477 . S
C983 H1003 0.930 . S
C984 N980 1.362 . S
C984 C981 1.431 . S
C984 C994 1.476 . S
H985 C979 0.929 . S
C986 O977 1.250 . S
C986 O978 1.258 . S
O987 Mn972 2.162 . S
O987 C975 1.281 . S
O988 Mn972 2.297 . S
O988 C975 1.236 . S
N989 Mn973 2.282 . S
N989 C990 1.328 . S
N989 C994 1.318 . S
C990 N989 1.328 . S
C990 C991 1.457 . S
C990 H995 0.929 . S
C991 C990 1.457 . S
C991 C992 1.291 . S
C991 H1004 0.931 . S
C992 C991 1.291 . S
C992 C993 1.373 . S
C992 H1005 0.929 . S
C993 C992 1.373 . S
C993 C994 1.396 . S
C993 C1000 1.403 . S
C994 C984 1.476 . S
C994 N989 1.318 . S
C994 C993 1.396 . S
H995 C990 0.929 . S
O996 Mn972 2.385 . S
O996 C974 1.234 . S
O997 Mn972 2.209 . S
O997 Mn973 2.215 . S
O997 C974 1.283 . S
O998 Mn972 2.094 . S
O998 C976 1.240 . S
O999 Mn973 2.117 . S
O999 C976 1.264 . S
C1000 C993 1.403 . S
C1000 C1001 1.399 . S
C1000 H1006 0.929 . S
C1001 C981 1.449 . S
C1001 C1000 1.399 . S
C1001 H1007 0.930 . S
H1002 C982 0.931 . S
H1003 C983 0.930 . S
H1004 C991 0.931 . S
H1005 C992 0.929 . S
H1006 C1000 0.929 . S
H1007 C1001 0.930 . S
Mn1008 O1013 2.095 . S
Mn1008 O1023 2.162 . S
Mn1008 O1024 2.297 . S
Mn1008 O1032 2.385 . S
Mn1008 O1033 2.209 . S
Mn1008 O1034 2.094 . S
Mn1009 O1014 2.121 . S
Mn1009 N1016 2.257 . S
Mn1009 N1025 2.282 . S
Mn1009 O1033 2.215 . S
Mn1009 O1035 2.117 . S
C1010 O1032 1.234 . S
C1010 O1033 1.283 . S
C1011 O1023 1.281 . S
C1011 O1024 1.236 . S
C1012 O1034 1.240 . S
C1012 O1035 1.264 . S
O1013 Mn1008 2.095 . S
O1013 C1022 1.250 . S
O1014 Mn1009 2.121 . S
O1014 C1022 1.258 . S
C1015 N1016 1.326 . S
C1015 C1019 1.460 . S
C1015 H1021 0.929 . S
N1016 Mn1009 2.257 . S
N1016 C1015 1.326 . S
N1016 C1020 1.362 . S
C1017 C1018 1.258 . S
C1017 C1020 1.431 . S
C1017 C1037 1.449 . S
C1018 C1017 1.258 . S
C1018 C1019 1.477 . S
C1018 H1038 0.931 . S
C1019 C1015 1.460 . S
C1019 C1018 1.477 . S
C1019 H1039 0.930 . S
C1020 N1016 1.362 . S
C1020 C1017 1.431 . S
C1020 C1030 1.476 . S
H1021 C1015 0.929 . S
C1022 O1013 1.250 . S
C1022 O1014 1.258 . S
O1023 Mn1008 2.162 . S
O1023 C1011 1.281 . S
O1024 Mn1008 2.297 . S
O1024 C1011 1.236 . S
N1025 Mn1009 2.282 . S
N1025 C1026 1.328 . S
N1025 C1030 1.318 . S
C1026 N1025 1.328 . S
C1026 C1027 1.457 . S
C1026 H1031 0.929 . S
C1027 C1026 1.457 . S
C1027 C1028 1.291 . S
C1027 H1040 0.931 . S
C1028 C1027 1.291 . S
C1028 C1029 1.373 . S
C1028 H1041 0.929 . S
C1029 C1028 1.373 . S
C1029 C1030 1.396 . S
C1029 C1036 1.403 . S
C1030 C1020 1.476 . S
C1030 N1025 1.318 . S
C1030 C1029 1.396 . S
H1031 C1026 0.929 . S
O1032 Mn1008 2.385 . S
O1032 C1010 1.234 . S
O1033 Mn1008 2.209 . S
O1033 Mn1009 2.215 . S
O1033 C1010 1.283 . S
O1034 Mn1008 2.094 . S
O1034 C1012 1.240 . S
O1035 Mn1009 2.117 . S
O1035 C1012 1.264 . S
C1036 C1029 1.403 . S
C1036 C1037 1.399 . S
C1036 H1042 0.929 . S
C1037 C1017 1.449 . S
C1037 C1036 1.399 . S
C1037 H1043 0.930 . S
H1038 C1018 0.931 . S
H1039 C1019 0.930 . S
H1040 C1027 0.931 . S
H1041 C1028 0.929 . S
H1042 C1036 0.929 . S
H1043 C1037 0.930 . S
Mn1044 O1049 2.095 . S
Mn1044 O1059 2.162 . S
Mn1044 O1060 2.297 . S
Mn1044 O1068 2.385 . S
Mn1044 O1069 2.209 . S
Mn1044 O1070 2.094 . S
Mn1045 O1050 2.121 . S
Mn1045 N1052 2.257 . S
Mn1045 N1061 2.282 . S
Mn1045 O1069 2.215 . S
Mn1045 O1071 2.117 . S
C1046 O1068 1.234 . S
C1046 O1069 1.283 . S
C1047 O1059 1.281 . S
C1047 O1060 1.236 . S
C1048 O1070 1.240 . S
C1048 O1071 1.264 . S
O1049 Mn1044 2.095 . S
O1049 C1058 1.250 . S
O1050 Mn1045 2.121 . S
O1050 C1058 1.258 . S
C1051 N1052 1.326 . S
C1051 C1055 1.460 . S
C1051 H1057 0.929 . S
N1052 Mn1045 2.257 . S
N1052 C1051 1.326 . S
N1052 C1056 1.362 . S
C1053 C1054 1.258 . S
C1053 C1056 1.431 . S
C1053 C1073 1.449 . S
C1054 C1053 1.258 . S
C1054 C1055 1.477 . S
C1054 H1074 0.931 . S
C1055 C1051 1.460 . S
C1055 C1054 1.477 . S
C1055 H1075 0.930 . S
C1056 N1052 1.362 . S
C1056 C1053 1.431 . S
C1056 C1066 1.476 . S
H1057 C1051 0.929 . S
C1058 O1049 1.250 . S
C1058 O1050 1.258 . S
O1059 Mn1044 2.162 . S
O1059 C1047 1.281 . S
O1060 Mn1044 2.297 . S
O1060 C1047 1.236 . S
N1061 Mn1045 2.282 . S
N1061 C1062 1.328 . S
N1061 C1066 1.318 . S
C1062 N1061 1.328 . S
C1062 C1063 1.457 . S
C1062 H1067 0.929 . S
C1063 C1062 1.457 . S
C1063 C1064 1.291 . S
C1063 H1076 0.931 . S
C1064 C1063 1.291 . S
C1064 C1065 1.373 . S
C1064 H1077 0.929 . S
C1065 C1064 1.373 . S
C1065 C1066 1.396 . S
C1065 C1072 1.403 . S
C1066 C1056 1.476 . S
C1066 N1061 1.318 . S
C1066 C1065 1.396 . S
H1067 C1062 0.929 . S
O1068 Mn1044 2.385 . S
O1068 C1046 1.234 . S
O1069 Mn1044 2.209 . S
O1069 Mn1045 2.215 . S
O1069 C1046 1.283 . S
O1070 Mn1044 2.094 . S
O1070 C1048 1.240 . S
O1071 Mn1045 2.117 . S
O1071 C1048 1.264 . S
C1072 C1065 1.403 . S
C1072 C1073 1.399 . S
C1072 H1078 0.929 . S
C1073 C1053 1.449 . S
C1073 C1072 1.399 . S
C1073 H1079 0.930 . S
H1074 C1054 0.931 . S
H1075 C1055 0.930 . S
H1076 C1063 0.931 . S
H1077 C1064 0.929 . S
H1078 C1072 0.929 . S
H1079 C1073 0.930 . S
Mn1080 O1085 2.095 . S
Mn1080 O1095 2.182 . S
Mn1080 O1096 2.297 . S
Mn1080 O1104 2.385 1_554 S
Mn1080 O1105 2.209 . S
Mn1080 O1106 2.094 . S
Mn1081 O1086 2.121 . S
Mn1081 N1088 2.257 . S
Mn1081 N1097 2.282 . S
Mn1081 O1105 2.215 . S
Mn1081 O1107 2.117 . S
C1082 O1104 1.234 1_554 S
C1082 O1105 1.283 . S
C1083 O1095 1.294 . S
C1083 O1096 1.236 . S
C1084 O1106 1.240 . S
C1084 O1107 1.264 . S
O1085 Mn1080 2.095 . S
O1085 C1094 1.250 . S
O1086 Mn1081 2.121 . S
O1086 C1094 1.258 . S
C1087 N1088 1.326 . S
C1087 C1091 1.460 . S
C1087 H1093 0.929 . S
N1088 Mn1081 2.257 . S
N1088 C1087 1.326 . S
N1088 C1092 1.362 . S
C1089 C1090 1.258 . S
C1089 C1092 1.431 1_655 S
C1089 C1109 1.449 . S
C1090 C1089 1.258 . S
C1090 C1091 1.477 1_655 S
C1090 H1110 0.931 . S
C1091 C1087 1.460 . S
C1091 C1090 1.477 1_455 S
C1091 H1111 0.930 . S
C1092 N1088 1.362 . S
C1092 C1089 1.431 1_455 S
C1092 C1102 1.476 . S
H1093 C1087 0.929 . S
C1094 O1085 1.250 . S
C1094 O1086 1.258 . S
O1095 Mn1080 2.182 . S
O1095 C1083 1.294 . S
O1096 Mn1080 2.297 . S
O1096 C1083 1.236 . S
N1097 Mn1081 2.282 . S
N1097 C1098 1.328 . S
N1097 C1102 1.318 . S
C1098 N1097 1.328 . S
C1098 C1099 1.457 . S
C1098 H1103 0.929 . S
C1099 C1098 1.457 . S
C1099 C1100 1.291 1_455 S
C1099 H1112 0.931 1_554 S
C1100 C1099 1.291 1_655 S
C1100 C1101 1.373 . S
C1100 H1113 0.929 . S
C1101 C1100 1.373 . S
C1101 C1102 1.396 1_655 S
C1101 C1108 1.403 . S
C1102 C1092 1.476 . S
C1102 N1097 1.318 . S
C1102 C1101 1.396 1_455 S
H1103 C1098 0.929 . S
O1104 Mn1080 2.385 1_556 S
O1104 C1082 1.234 1_556 S
O1105 Mn1080 2.209 . S
O1105 Mn1081 2.215 . S
O1105 C1082 1.283 . S
O1106 Mn1080 2.094 . S
O1106 C1084 1.240 . S
O1107 Mn1081 2.117 . S
O1107 C1084 1.264 . S
C1108 C1101 1.403 . S
C1108 C1109 1.399 . S
C1108 H1114 0.929 . S
C1109 C1089 1.449 . S
C1109 C1108 1.399 . S
C1109 H1115 0.930 . S
H1110 C1090 0.931 . S
H1111 C1091 0.930 . S
H1112 C1099 0.931 1_556 S
H1113 C1100 0.929 . S
H1114 C1108 0.929 . S
H1115 C1109 0.930 . S
Mn1116 O1121 2.095 . S
Mn1116 O1131 2.162 . S
Mn1116 O1132 2.297 . S
Mn1116 O1140 2.385 . S
Mn1116 O1141 2.209 . S
Mn1116 O1142 2.094 . S
Mn1117 O1122 2.121 . S
Mn1117 N1124 2.257 . S
Mn1117 N1133 2.282 . S
Mn1117 O1141 2.215 . S
Mn1117 O1143 2.117 . S
C1118 O1140 1.234 . S
C1118 O1141 1.283 . S
C1119 O1131 1.281 . S
C1119 O1132 1.236 . S
C1120 O1142 1.240 . S
C1120 O1143 1.264 . S
O1121 Mn1116 2.095 . S
O1121 C1130 1.250 . S
O1122 Mn1117 2.121 . S
O1122 C1130 1.258 . S
C1123 N1124 1.326 . S
C1123 C1127 1.460 . S
C1123 H1129 0.929 . S
N1124 Mn1117 2.257 . S
N1124 C1123 1.326 . S
N1124 C1128 1.362 . S
C1125 C1126 1.258 . S
C1125 C1128 1.431 . S
C1125 C1145 1.449 . S
C1126 C1125 1.258 . S
C1126 C1127 1.477 . S
C1126 H1146 0.931 . S
C1127 C1123 1.460 . S
C1127 C1126 1.477 . S
C1127 H1147 0.930 . S
C1128 N1124 1.362 . S
C1128 C1125 1.431 . S
C1128 C1138 1.476 . S
H1129 C1123 0.929 . S
C1130 O1121 1.250 . S
C1130 O1122 1.258 . S
O1131 Mn1116 2.162 . S
O1131 C1119 1.281 . S
O1132 Mn1116 2.297 . S
O1132 C1119 1.236 . S
N1133 Mn1117 2.282 . S
N1133 C1134 1.328 . S
N1133 C1138 1.318 . S
C1134 N1133 1.328 . S
C1134 C1135 1.457 . S
C1134 H1139 0.929 . S
C1135 C1134 1.457 . S
C1135 C1136 1.291 . S
C1135 H1148 0.931 . S
C1136 C1135 1.291 . S
C1136 C1137 1.373 . S
C1136 H1149 0.929 . S
C1137 C1136 1.373 . S
C1137 C1138 1.396 . S
C1137 C1144 1.403 . S
C1138 C1128 1.476 . S
C1138 N1133 1.318 . S
C1138 C1137 1.396 . S
H1139 C1134 0.929 . S
O1140 Mn1116 2.385 . S
O1140 C1118 1.234 . S
O1141 Mn1116 2.209 . S
O1141 Mn1117 2.215 . S
O1141 C1118 1.283 . S
O1142 Mn1116 2.094 . S
O1142 C1120 1.240 . S
O1143 Mn1117 2.117 . S
O1143 C1120 1.264 . S
C1144 C1137 1.403 . S
C1144 C1145 1.399 . S
C1144 H1150 0.929 . S
C1145 C1125 1.449 . S
C1145 C1144 1.399 . S
C1145 H1151 0.930 . S
H1146 C1126 0.931 . S
H1147 C1127 0.930 . S
H1148 C1135 0.931 . S
H1149 C1136 0.929 . S
H1150 C1144 0.929 . S
H1151 C1145 0.930 . S
C1152 C1153 1.369 . S
C1152 C1154 1.419 . S
C1152 H1156 0.930 . S
C1153 C1152 1.369 . S
C1153 C1162 1.429 . S
C1154 C1152 1.419 . S
C1154 C1155 1.363 . S
C1154 H1157 0.929 . S
C1155 C1154 1.363 . S
C1155 C1161 1.428 . S
H1156 C1152 0.930 . S
H1157 C1154 0.929 . S
S1158 N1159 1.613 . S
S1158 N1160 1.610 . S
N1159 S1158 1.613 . S
N1159 C1162 1.350 . S
N1160 S1158 1.610 . S
N1160 C1161 1.351 . S
C1161 C1155 1.428 . S
C1161 N1160 1.351 . S
C1161 C1162 1.434 . S
C1162 C1153 1.429 . S
C1162 N1159 1.350 . S
C1162 C1161 1.434 . S
C1163 C1164 1.369 . S
C1163 C1165 1.419 . S
C1163 H1167 0.930 . S
C1164 C1163 1.369 . S
C1164 C1173 1.429 . S
C1165 C1163 1.419 . S
C1165 C1166 1.363 . S
C1165 H1168 0.929 . S
C1166 C1165 1.363 . S
C1166 C1172 1.428 . S
H1167 C1163 0.930 . S
H1168 C1165 0.929 . S
S1169 N1170 1.613 . S
S1169 N1171 1.610 . S
N1170 S1169 1.613 . S
N1170 C1173 1.350 . S
N1171 S1169 1.610 . S
N1171 C1172 1.351 . S
C1172 C1166 1.428 . S
C1172 N1171 1.351 . S
C1172 C1173 1.434 . S
C1173 C1164 1.429 . S
C1173 N1170 1.350 . S
C1173 C1172 1.434 . S
C1174 C1175 1.369 . S
C1174 C1176 1.419 . S
C1174 H1178 0.930 . S
C1175 C1174 1.369 . S
C1175 C1184 1.429 . S
C1176 C1174 1.419 . S
C1176 C1177 1.363 . S
C1176 H1179 0.929 . S
C1177 C1176 1.363 . S
C1177 C1183 1.428 . S
H1178 C1174 0.930 . S
H1179 C1176 0.929 . S
S1180 N1181 1.613 . S
S1180 N1182 1.610 . S
N1181 S1180 1.613 . S
N1181 C1184 1.350 . S
N1182 S1180 1.610 . S
N1182 C1183 1.351 . S
C1183 C1177 1.428 . S
C1183 N1182 1.351 . S
C1183 C1184 1.434 . S
C1184 C1175 1.429 . S
C1184 N1181 1.350 . S
C1184 C1183 1.434 . S
C1185 C1186 1.369 . S
C1185 C1187 1.419 . S
C1185 H1189 0.930 . S
C1186 C1185 1.369 . S
C1186 C1195 1.429 . S
C1187 C1185 1.419 . S
C1187 C1188 1.363 . S
C1187 H1190 0.929 . S
C1188 C1187 1.363 . S
C1188 C1194 1.428 . S
H1189 C1185 0.930 . S
H1190 C1187 0.929 . S
S1191 N1192 1.613 . S
S1191 N1193 1.610 . S
N1192 S1191 1.613 . S
N1192 C1195 1.350 . S
N1193 S1191 1.610 . S
N1193 C1194 1.351 . S
C1194 C1188 1.428 . S
C1194 N1193 1.351 . S
C1194 C1195 1.434 . S
C1195 C1186 1.429 . S
C1195 N1192 1.350 . S
C1195 C1194 1.434 . S
C1196 C1197 1.369 . S
C1196 C1198 1.419 . S
C1196 H1200 0.930 . S
C1197 C1196 1.369 . S
C1197 C1206 1.429 . S
C1198 C1196 1.419 . S
C1198 C1199 1.363 . S
C1198 H1201 0.929 . S
C1199 C1198 1.363 . S
C1199 C1205 1.428 . S
H1200 C1196 0.930 . S
H1201 C1198 0.929 . S
S1202 N1203 1.613 . S
S1202 N1204 1.610 . S
N1203 S1202 1.613 . S
N1203 C1206 1.350 . S
N1204 S1202 1.610 . S
N1204 C1205 1.351 . S
C1205 C1199 1.428 . S
C1205 N1204 1.351 . S
C1205 C1206 1.434 . S
C1206 C1197 1.429 . S
C1206 N1203 1.350 . S
C1206 C1205 1.434 . S
C1207 C1208 1.369 . S
C1207 C1209 1.419 . S
C1207 H1211 0.930 . S
C1208 C1207 1.369 . S
C1208 C1217 1.429 . S
C1209 C1207 1.419 . S
C1209 C1210 1.363 . S
C1209 H1212 0.929 . S
C1210 C1209 1.363 . S
C1210 C1216 1.428 . S
H1211 C1207 0.930 . S
H1212 C1209 0.929 . S
S1213 N1214 1.613 . S
S1213 N1215 1.610 . S
N1214 S1213 1.613 . S
N1214 C1217 1.350 . S
N1215 S1213 1.610 . S
N1215 C1216 1.351 . S
C1216 C1210 1.428 . S
C1216 N1215 1.351 . S
C1216 C1217 1.434 . S
C1217 C1208 1.429 . S
C1217 N1214 1.350 . S
C1217 C1216 1.434 . S
C1218 C1219 1.369 . S
C1218 C1220 1.419 . S
C1218 H1222 0.930 . S
C1219 C1218 1.369 . S
C1219 C1228 1.429 . S
C1220 C1218 1.419 . S
C1220 C1221 1.363 . S
C1220 H1223 0.929 . S
C1221 C1220 1.363 . S
C1221 C1227 1.428 . S
H1222 C1218 0.930 . S
H1223 C1220 0.929 . S
S1224 N1225 1.613 . S
S1224 N1226 1.610 . S
N1225 S1224 1.613 . S
N1225 C1228 1.350 . S
N1226 S1224 1.610 . S
N1226 C1227 1.351 . S
C1227 C1221 1.428 . S
C1227 N1226 1.351 . S
C1227 C1228 1.434 . S
C1228 C1219 1.429 . S
C1228 N1225 1.350 . S
C1228 C1227 1.434 . S
C1229 C1230 1.369 . S
C1229 C1231 1.419 . S
C1229 H1233 0.930 . S
C1230 C1229 1.369 . S
C1230 C1239 1.429 . S
C1231 C1229 1.419 . S
C1231 C1232 1.363 . S
C1231 H1234 0.929 . S
C1232 C1231 1.363 . S
C1232 C1238 1.428 . S
H1233 C1229 0.930 . S
H1234 C1231 0.929 . S
S1235 N1236 1.613 . S
S1235 N1237 1.610 . S
N1236 S1235 1.613 . S
N1236 C1239 1.350 . S
N1237 S1235 1.610 . S
N1237 C1238 1.351 . S
C1238 C1232 1.428 . S
C1238 N1237 1.351 . S
C1238 C1239 1.434 . S
C1239 C1230 1.429 . S
C1239 N1236 1.350 . S
C1239 C1238 1.434 . S
C1240 C1241 1.369 . S
C1240 C1242 1.419 . S
C1240 H1244 0.930 . S
C1241 C1240 1.369 . S
C1241 C1250 1.429 . S
C1242 C1240 1.419 . S
C1242 C1243 1.363 . S
C1242 H1245 0.929 . S
C1243 C1242 1.363 . S
C1243 C1249 1.428 . S
H1244 C1240 0.930 . S
H1245 C1242 0.929 . S
S1246 N1247 1.613 . S
S1246 N1248 1.610 . S
N1247 S1246 1.613 . S
N1247 C1250 1.350 . S
N1248 S1246 1.610 . S
N1248 C1249 1.351 . S
C1249 C1243 1.428 . S
C1249 N1248 1.351 . S
C1249 C1250 1.434 . S
C1250 C1241 1.429 . S
C1250 N1247 1.350 . S
C1250 C1249 1.434 . S
C1251 C1252 1.369 . S
C1251 C1253 1.419 . S
C1251 H1255 0.930 . S
C1252 C1251 1.369 . S
C1252 C1261 1.429 . S
C1253 C1251 1.419 . S
C1253 C1254 1.363 . S
C1253 H1256 0.929 . S
C1254 C1253 1.363 . S
C1254 C1260 1.428 . S
H1255 C1251 0.930 . S
H1256 C1253 0.929 . S
S1257 N1258 1.613 . S
S1257 N1259 1.610 . S
N1258 S1257 1.613 . S
N1258 C1261 1.350 . S
N1259 S1257 1.610 . S
N1259 C1260 1.351 . S
C1260 C1254 1.428 . S
C1260 N1259 1.351 . S
C1260 C1261 1.434 . S
C1261 C1252 1.429 . S
C1261 N1258 1.350 . S
C1261 C1260 1.434 . S
C1262 C1263 1.369 . S
C1262 C1264 1.419 . S
C1262 H1266 0.930 . S
C1263 C1262 1.369 . S
C1263 C1272 1.429 . S
C1264 C1262 1.419 . S
C1264 C1265 1.363 . S
C1264 H1267 0.929 . S
C1265 C1264 1.363 . S
C1265 C1271 1.428 . S
H1266 C1262 0.930 . S
H1267 C1264 0.929 . S
S1268 N1269 1.613 . S
S1268 N1270 1.610 . S
N1269 S1268 1.613 . S
N1269 C1272 1.350 . S
N1270 S1268 1.610 . S
N1270 C1271 1.351 . S
C1271 C1265 1.428 . S
C1271 N1270 1.351 . S
C1271 C1272 1.434 . S
C1272 C1263 1.429 . S
C1272 N1269 1.350 . S
C1272 C1271 1.434 . S
C1273 C1274 1.369 . S
C1273 C1275 1.419 . S
C1273 H1277 0.930 . S
C1274 C1273 1.369 . S
C1274 C1283 1.429 . S
C1275 C1273 1.419 . S
C1275 C1276 1.363 . S
C1275 H1278 0.929 . S
C1276 C1275 1.363 . S
C1276 C1282 1.428 . S
H1277 C1273 0.930 . S
H1278 C1275 0.929 . S
S1279 N1280 1.613 . S
S1279 N1281 1.610 . S
N1280 S1279 1.613 . S
N1280 C1283 1.350 . S
N1281 S1279 1.610 . S
N1281 C1282 1.351 . S
C1282 C1276 1.428 . S
C1282 N1281 1.351 . S
C1282 C1283 1.434 . S
C1283 C1274 1.429 . S
C1283 N1280 1.350 . S
C1283 C1282 1.434 . S
C1284 C1285 1.369 . S
C1284 C1286 1.419 . S
C1284 H1288 0.930 . S
C1285 C1284 1.369 . S
C1285 C1294 1.429 . S
C1286 C1284 1.419 . S
C1286 C1287 1.363 . S
C1286 H1289 0.929 . S
C1287 C1286 1.363 . S
C1287 C1293 1.428 . S
H1288 C1284 0.930 . S
H1289 C1286 0.929 . S
S1290 N1291 1.613 . S
S1290 N1292 1.610 . S
N1291 S1290 1.613 . S
N1291 C1294 1.350 . S
N1292 S1290 1.610 . S
N1292 C1293 1.351 . S
C1293 C1287 1.428 . S
C1293 N1292 1.351 . S
C1293 C1294 1.434 . S
C1294 C1285 1.429 . S
C1294 N1291 1.350 . S
C1294 C1293 1.434 . S
C1295 C1296 1.369 . S
C1295 C1297 1.419 . S
C1295 H1299 0.930 . S
C1296 C1295 1.369 . S
C1296 C1305 1.429 . S
C1297 C1295 1.419 . S
C1297 C1298 1.363 . S
C1297 H1300 0.929 . S
C1298 C1297 1.363 . S
C1298 C1304 1.428 . S
H1299 C1295 0.930 . S
H1300 C1297 0.929 . S
S1301 N1302 1.613 . S
S1301 N1303 1.610 . S
N1302 S1301 1.613 . S
N1302 C1305 1.350 . S
N1303 S1301 1.610 . S
N1303 C1304 1.351 . S
C1304 C1298 1.428 . S
C1304 N1303 1.351 . S
C1304 C1305 1.434 . S
C1305 C1296 1.429 . S
C1305 N1302 1.350 . S
C1305 C1304 1.434 . S
C1306 C1307 1.369 . S
C1306 C1308 1.419 . S
C1306 H1310 0.930 . S
C1307 C1306 1.369 . S
C1307 C1316 1.429 . S
C1308 C1306 1.419 . S
C1308 C1309 1.363 . S
C1308 H1311 0.929 . S
C1309 C1308 1.363 . S
C1309 C1315 1.428 . S
H1310 C1306 0.930 . S
H1311 C1308 0.929 . S
S1312 N1313 1.613 . S
S1312 N1314 1.610 . S
N1313 S1312 1.613 . S
N1313 C1316 1.350 . S
N1314 S1312 1.610 . S
N1314 C1315 1.351 . S
C1315 C1309 1.428 . S
C1315 N1314 1.351 . S
C1315 C1316 1.434 . S
C1316 C1307 1.429 . S
C1316 N1313 1.350 . S
C1316 C1315 1.434 . S
C1317 C1318 1.369 . S
C1317 C1319 1.419 . S
C1317 H1321 0.930 . S
C1318 C1317 1.369 . S
C1318 C1327 1.429 . S
C1319 C1317 1.419 . S
C1319 C1320 1.363 . S
C1319 H1322 0.929 . S
C1320 C1319 1.363 . S
C1320 C1326 1.428 . S
H1321 C1317 0.930 . S
H1322 C1319 0.929 . S
S1323 N1324 1.613 . S
S1323 N1325 1.610 . S
N1324 S1323 1.613 . S
N1324 C1327 1.350 . S
N1325 S1323 1.610 . S
N1325 C1326 1.351 . S
C1326 C1320 1.428 . S
C1326 N1325 1.351 . S
C1326 C1327 1.434 . S
C1327 C1318 1.429 . S
C1327 N1324 1.350 . S
C1327 C1326 1.434 . S
C1328 C1329 1.369 1_556 S
C1328 C1330 1.419 1_455 S
C1328 H1332 0.930 . S
C1329 C1328 1.369 1_554 S
C1329 C1338 1.429 . S
C1330 C1328 1.419 1_655 S
C1330 C1331 1.363 1_556 S
C1330 H1333 0.929 . S
C1331 C1330 1.363 1_554 S
C1331 C1337 1.428 . S
H1332 C1328 0.930 . S
H1333 C1330 0.929 . S
S1334 N1335 1.616 1_655 S
S1334 N1336 1.608 . S
N1335 S1334 1.616 1_455 S
N1335 C1338 1.350 . S
N1336 S1334 1.608 . S
N1336 C1337 1.351 . S
C1337 C1331 1.428 . S
C1337 N1336 1.351 . S
C1337 C1338 1.434 1_655 S
C1338 C1329 1.429 . S
C1338 N1335 1.350 . S
C1338 C1337 1.434 1_455 S
C1339 C1340 1.369 . S
C1339 C1341 1.419 . S
C1339 H1343 0.930 . S
C1340 C1339 1.369 . S
C1340 C1349 1.429 . S
C1341 C1339 1.419 . S
C1341 C1342 1.363 . S
C1341 H1344 0.929 . S
C1342 C1341 1.363 . S
C1342 C1348 1.428 . S
H1343 C1339 0.930 . S
H1344 C1341 0.929 . S
S1345 N1346 1.613 . S
S1345 N1347 1.610 . S
N1346 S1345 1.613 . S
N1346 C1349 1.350 . S
N1347 S1345 1.610 . S
N1347 C1348 1.351 . S
C1348 C1342 1.428 . S
C1348 N1347 1.351 . S
C1348 C1349 1.434 . S
C1349 C1340 1.429 . S
C1349 N1346 1.350 . S
C1349 C1348 1.434 . S
C1350 C1351 1.369 . S
C1350 C1352 1.419 . S
C1350 H1354 0.930 . S
C1351 C1350 1.369 . S
C1351 C1360 1.429 . S
C1352 C1350 1.419 . S
C1352 C1353 1.363 . S
C1352 H1355 0.929 . S
C1353 C1352 1.363 . S
C1353 C1359 1.428 . S
H1354 C1350 0.930 . S
H1355 C1352 0.929 . S
S1356 N1357 1.613 . S
S1356 N1358 1.610 . S
N1357 S1356 1.613 . S
N1357 C1360 1.350 . S
N1358 S1356 1.610 . S
N1358 C1359 1.351 . S
C1359 C1353 1.428 . S
C1359 N1358 1.351 . S
C1359 C1360 1.434 . S
C1360 C1351 1.429 . S
C1360 N1357 1.350 . S
C1360 C1359 1.434 . S
C1361 C1362 1.369 . S
C1361 C1363 1.419 . S
C1361 H1365 0.930 . S
C1362 C1361 1.369 . S
C1362 C1371 1.429 . S
C1363 C1361 1.419 . S
C1363 C1364 1.363 . S
C1363 H1366 0.929 . S
C1364 C1363 1.363 . S
C1364 C1370 1.428 . S
H1365 C1361 0.930 . S
H1366 C1363 0.929 . S
S1367 N1368 1.613 . S
S1367 N1369 1.610 . S
N1368 S1367 1.613 . S
N1368 C1371 1.350 . S
N1369 S1367 1.610 . S
N1369 C1370 1.351 . S
C1370 C1364 1.428 . S
C1370 N1369 1.351 . S
C1370 C1371 1.434 . S
C1371 C1362 1.429 . S
C1371 N1368 1.350 . S
C1371 C1370 1.434 . S
C1372 C1373 1.369 . S
C1372 C1374 1.419 1_655 S
C1372 H1376 0.930 . S
C1373 C1372 1.369 . S
C1373 C1382 1.429 . S
C1374 C1372 1.419 1_455 S
C1374 C1375 1.363 . S
C1374 H1377 0.929 . S
C1375 C1374 1.363 . S
C1375 C1381 1.428 . S
H1376 C1372 0.930 . S
H1377 C1374 0.929 . S
S1378 N1379 1.616 1_455 S
S1378 N1380 1.608 . S
N1379 S1378 1.616 1_655 S
N1379 C1382 1.350 . S
N1380 S1378 1.608 . S
N1380 C1381 1.351 . S
C1381 C1375 1.428 . S
C1381 N1380 1.351 . S
C1381 C1382 1.434 1_455 S
C1382 C1373 1.429 . S
C1382 N1379 1.350 . S
C1382 C1381 1.434 1_655 S
C1383 C1384 1.369 . S
C1383 C1385 1.419 . S
C1383 H1387 0.930 . S
C1384 C1383 1.369 . S
C1384 C1393 1.429 . S
C1385 C1383 1.419 . S
C1385 C1386 1.363 . S
C1385 H1388 0.929 . S
C1386 C1385 1.363 . S
C1386 C1392 1.428 . S
H1387 C1383 0.930 . S
H1388 C1385 0.929 . S
S1389 N1390 1.613 . S
S1389 N1391 1.610 . S
N1390 S1389 1.613 . S
N1390 C1393 1.350 . S
N1391 S1389 1.610 . S
N1391 C1392 1.351 . S
C1392 C1386 1.428 . S
C1392 N1391 1.351 . S
C1392 C1393 1.434 . S
C1393 C1384 1.429 . S
C1393 N1390 1.350 . S
C1393 C1392 1.434 . S
C1394 C1395 1.369 . S
C1394 C1396 1.419 . S
C1394 H1398 0.930 . S
C1395 C1394 1.369 . S
C1395 C1404 1.429 . S
C1396 C1394 1.419 . S
C1396 C1397 1.363 . S
C1396 H1399 0.929 . S
C1397 C1396 1.363 . S
C1397 C1403 1.428 . S
H1398 C1394 0.930 . S
H1399 C1396 0.929 . S
S1400 N1401 1.613 . S
S1400 N1402 1.610 . S
N1401 S1400 1.613 . S
N1401 C1404 1.350 . S
N1402 S1400 1.610 . S
N1402 C1403 1.351 . S
C1403 C1397 1.428 . S
C1403 N1402 1.351 . S
C1403 C1404 1.434 . S
C1404 C1395 1.429 . S
C1404 N1401 1.350 . S
C1404 C1403 1.434 . S
C1405 C1406 1.369 . S
C1405 C1407 1.419 . S
C1405 H1409 0.930 . S
C1406 C1405 1.369 . S
C1406 C1415 1.429 . S
C1407 C1405 1.419 . S
C1407 C1408 1.363 . S
C1407 H1410 0.929 . S
C1408 C1407 1.363 . S
C1408 C1414 1.428 . S
H1409 C1405 0.930 . S
H1410 C1407 0.929 . S
S1411 N1412 1.613 . S
S1411 N1413 1.610 . S
N1412 S1411 1.613 . S
N1412 C1415 1.350 . S
N1413 S1411 1.610 . S
N1413 C1414 1.351 . S
C1414 C1408 1.428 . S
C1414 N1413 1.351 . S
C1414 C1415 1.434 . S
C1415 C1406 1.429 . S
C1415 N1412 1.350 . S
C1415 C1414 1.434 . S
C1416 C1417 1.369 . S
C1416 C1418 1.419 . S
C1416 H1420 0.930 . S
C1417 C1416 1.369 . S
C1417 C1426 1.429 . S
C1418 C1416 1.419 . S
C1418 C1419 1.363 . S
C1418 H1421 0.929 . S
C1419 C1418 1.363 . S
C1419 C1425 1.428 . S
H1420 C1416 0.930 . S
H1421 C1418 0.929 . S
S1422 N1423 1.613 . S
S1422 N1424 1.610 . S
N1423 S1422 1.613 . S
N1423 C1426 1.350 . S
N1424 S1422 1.610 . S
N1424 C1425 1.351 . S
C1425 C1419 1.428 . S
C1425 N1424 1.351 . S
C1425 C1426 1.434 . S
C1426 C1417 1.429 . S
C1426 N1423 1.350 . S
C1426 C1425 1.434 . S
C1427 C1428 1.369 . S
C1427 C1429 1.419 . S
C1427 H1431 0.930 . S
C1428 C1427 1.369 . S
C1428 C1437 1.429 . S
C1429 C1427 1.419 . S
C1429 C1430 1.363 . S
C1429 H1432 0.929 . S
C1430 C1429 1.363 . S
C1430 C1436 1.428 . S
H1431 C1427 0.930 . S
H1432 C1429 0.929 . S
S1433 N1434 1.613 . S
S1433 N1435 1.610 . S
N1434 S1433 1.613 . S
N1434 C1437 1.350 . S
N1435 S1433 1.610 . S
N1435 C1436 1.351 . S
C1436 C1430 1.428 . S
C1436 N1435 1.351 . S
C1436 C1437 1.434 . S
C1437 C1428 1.429 . S
C1437 N1434 1.350 . S
C1437 C1436 1.434 . S
C1438 C1439 1.369 . S
C1438 C1440 1.419 . S
C1438 H1442 0.930 . S
C1439 C1438 1.369 . S
C1439 C1448 1.429 . S
C1440 C1438 1.419 . S
C1440 C1441 1.363 . S
C1440 H1443 0.929 . S
C1441 C1440 1.363 . S
C1441 C1447 1.428 . S
H1442 C1438 0.930 . S
H1443 C1440 0.929 . S
S1444 N1445 1.613 . S
S1444 N1446 1.610 . S
N1445 S1444 1.613 . S
N1445 C1448 1.350 . S
N1446 S1444 1.610 . S
N1446 C1447 1.351 . S
C1447 C1441 1.428 . S
C1447 N1446 1.351 . S
C1447 C1448 1.434 . S
C1448 C1439 1.429 . S
C1448 N1445 1.350 . S
C1448 C1447 1.434 . S
C1449 C1450 1.369 . S
C1449 C1451 1.419 . S
C1449 H1453 0.930 . S
C1450 C1449 1.369 . S
C1450 C1459 1.429 . S
C1451 C1449 1.419 . S
C1451 C1452 1.363 . S
C1451 H1454 0.929 . S
C1452 C1451 1.363 . S
C1452 C1458 1.428 . S
H1453 C1449 0.930 . S
H1454 C1451 0.929 . S
S1455 N1456 1.613 . S
S1455 N1457 1.610 . S
N1456 S1455 1.613 . S
N1456 C1459 1.350 . S
N1457 S1455 1.610 . S
N1457 C1458 1.351 . S
C1458 C1452 1.428 . S
C1458 N1457 1.351 . S
C1458 C1459 1.434 . S
C1459 C1450 1.429 . S
C1459 N1456 1.350 . S
C1459 C1458 1.434 . S
C1460 C1461 1.369 . S
C1460 C1462 1.419 . S
C1460 H1464 0.930 . S
C1461 C1460 1.369 . S
C1461 C1470 1.429 . S
C1462 C1460 1.419 . S
C1462 C1463 1.363 . S
C1462 H1465 0.929 . S
C1463 C1462 1.363 . S
C1463 C1469 1.428 . S
H1464 C1460 0.930 . S
H1465 C1462 0.929 . S
S1466 N1467 1.613 . S
S1466 N1468 1.610 . S
N1467 S1466 1.613 . S
N1467 C1470 1.350 . S
N1468 S1466 1.610 . S
N1468 C1469 1.351 . S
C1469 C1463 1.428 . S
C1469 N1468 1.351 . S
C1469 C1470 1.434 . S
C1470 C1461 1.429 . S
C1470 N1467 1.350 . S
C1470 C1469 1.434 . S
C1471 C1472 1.369 . S
C1471 C1473 1.419 1_655 S
C1471 H1475 0.930 . S
C1472 C1471 1.369 . S
C1472 C1481 1.429 . S
C1473 C1471 1.419 1_455 S
C1473 C1474 1.363 . S
C1473 H1476 0.929 . S
C1474 C1473 1.363 . S
C1474 C1480 1.428 . S
H1475 C1471 0.930 . S
H1476 C1473 0.929 . S
S1477 N1478 1.618 1_455 S
S1477 N1479 1.606 . S
N1478 S1477 1.618 1_655 S
N1478 C1481 1.347 1_556 S
N1479 S1477 1.606 . S
N1479 C1480 1.353 1_556 S
C1480 C1474 1.428 . S
C1480 N1479 1.353 1_554 S
C1480 C1481 1.434 1_455 S
C1481 C1472 1.429 . S
C1481 N1478 1.347 1_554 S
C1481 C1480 1.434 1_655 S
C1482 C1483 1.369 . S
C1482 C1484 1.419 . S
C1482 H1486 0.930 . S
C1483 C1482 1.369 . S
C1483 C1492 1.429 . S
C1484 C1482 1.419 . S
C1484 C1485 1.363 . S
C1484 H1487 0.929 . S
C1485 C1484 1.363 . S
C1485 C1491 1.428 . S
H1486 C1482 0.930 . S
H1487 C1484 0.929 . S
S1488 N1489 1.613 . S
S1488 N1490 1.610 . S
N1489 S1488 1.613 . S
N1489 C1492 1.350 . S
N1490 S1488 1.610 . S
N1490 C1491 1.351 . S
C1491 C1485 1.428 . S
C1491 N1490 1.351 . S
C1491 C1492 1.434 . S
C1492 C1483 1.429 . S
C1492 N1489 1.350 . S
C1492 C1491 1.434 . S
C1493 C1494 1.369 1_554 S
C1493 C1495 1.419 1_455 S
C1493 H1497 0.930 . S
C1494 C1493 1.369 1_556 S
C1494 C1503 1.429 . S
C1495 C1493 1.419 1_655 S
C1495 C1496 1.363 1_554 S
C1495 H1498 0.929 . S
C1496 C1495 1.363 1_556 S
C1496 C1502 1.428 . S
H1497 C1493 0.930 . S
H1498 C1495 0.929 . S
S1499 N1500 1.616 1_655 S
S1499 N1501 1.608 . S
N1500 S1499 1.616 1_455 S
N1500 C1503 1.350 . S
N1501 S1499 1.608 . S
N1501 C1502 1.351 . S
C1502 C1496 1.428 . S
C1502 N1501 1.351 . S
C1502 C1503 1.434 1_655 S
C1503 C1494 1.429 . S
C1503 N1500 1.350 . S
C1503 C1502 1.434 1_455 S
C1504 C1505 1.369 1_554 S
C1504 C1506 1.419 . S
C1504 H1508 0.930 . S
C1505 C1504 1.369 1_556 S
C1505 C1514 1.429 . S
C1506 C1504 1.419 . S
C1506 C1507 1.363 . S
C1506 H1509 0.929 . S
C1507 C1506 1.363 . S
C1507 C1513 1.428 1_554 S
H1508 C1504 0.930 . S
H1509 C1506 0.929 . S
S1510 N1511 1.613 . S
S1510 N1512 1.610 . S
N1511 S1510 1.613 . S
N1511 C1514 1.350 . S
N1512 S1510 1.610 . S
N1512 C1513 1.351 . S
C1513 C1507 1.428 1_556 S
C1513 N1512 1.351 . S
C1513 C1514 1.434 . S
C1514 C1505 1.429 . S
C1514 N1511 1.350 . S
C1514 C1513 1.434 . S
C1515 C1516 1.369 . S
C1515 C1517 1.419 . S
C1515 H1519 0.930 . S
C1516 C1515 1.369 . S
C1516 C1525 1.429 . S
C1517 C1515 1.419 . S
C1517 C1518 1.363 . S
C1517 H1520 0.929 . S
C1518 C1517 1.363 . S
C1518 C1524 1.428 . S
H1519 C1515 0.930 . S
H1520 C1517 0.929 . S
S1521 N1522 1.613 . S
S1521 N1523 1.610 . S
N1522 S1521 1.613 . S
N1522 C1525 1.350 . S
N1523 S1521 1.610 . S
N1523 C1524 1.351 . S
C1524 C1518 1.428 . S
C1524 N1523 1.351 . S
C1524 C1525 1.434 . S
C1525 C1516 1.429 . S
C1525 N1522 1.350 . S
C1525 C1524 1.434 . S
C1526 C1527 1.369 . S
C1526 C1528 1.419 . S
C1526 H1530 0.930 . S
C1527 C1526 1.369 . S
C1527 C1536 1.429 . S
C1528 C1526 1.419 . S
C1528 C1529 1.363 . S
C1528 H1531 0.929 . S
C1529 C1528 1.363 . S
C1529 C1535 1.428 . S
H1530 C1526 0.930 . S
H1531 C1528 0.929 . S
S1532 N1533 1.613 . S
S1532 N1534 1.610 . S
N1533 S1532 1.613 . S
N1533 C1536 1.350 . S
N1534 S1532 1.610 . S
N1534 C1535 1.351 . S
C1535 C1529 1.428 . S
C1535 N1534 1.351 . S
C1535 C1536 1.434 . S
C1536 C1527 1.429 . S
C1536 N1533 1.350 . S
C1536 C1535 1.434 . S
C1537 C1538 1.369 . S
C1537 C1539 1.419 . S
C1537 H1541 0.930 . S
C1538 C1537 1.369 . S
C1538 C1547 1.429 . S
C1539 C1537 1.419 . S
C1539 C1540 1.363 . S
C1539 H1542 0.929 . S
C1540 C1539 1.363 . S
C1540 C1546 1.428 . S
H1541 C1537 0.930 . S
H1542 C1539 0.929 . S
S1543 N1544 1.613 . S
S1543 N1545 1.610 . S
N1544 S1543 1.613 . S
N1544 C1547 1.350 . S
N1545 S1543 1.610 . S
N1545 C1546 1.351 . S
C1546 C1540 1.428 . S
C1546 N1545 1.351 . S
C1546 C1547 1.434 . S
C1547 C1538 1.429 . S
C1547 N1544 1.350 . S
C1547 C1546 1.434 . S
C1548 C1549 1.369 . S
C1548 C1550 1.419 . S
C1548 H1552 0.930 . S
C1549 C1548 1.369 . S
C1549 C1558 1.429 1_554 S
C1550 C1548 1.419 . S
C1550 C1551 1.363 1_554 S
C1550 H1553 0.929 . S
C1551 C1550 1.363 1_556 S
C1551 C1557 1.428 . S
H1552 C1548 0.930 . S
H1553 C1550 0.929 . S
S1554 N1555 1.613 . S
S1554 N1556 1.610 . S
N1555 S1554 1.613 . S
N1555 C1558 1.350 . S
N1556 S1554 1.610 . S
N1556 C1557 1.351 . S
C1557 C1551 1.428 . S
C1557 N1556 1.351 . S
C1557 C1558 1.434 . S
C1558 C1549 1.429 1_556 S
C1558 N1555 1.350 . S
C1558 C1557 1.434 . S
C1559 C1560 1.369 . S
C1559 C1561 1.419 . S
C1559 H1563 0.930 . S
C1560 C1559 1.369 . S
C1560 C1569 1.429 . S
C1561 C1559 1.419 . S
C1561 C1562 1.363 . S
C1561 H1564 0.929 . S
C1562 C1561 1.363 . S
C1562 C1568 1.428 . S
H1563 C1559 0.930 . S
H1564 C1561 0.929 . S
S1565 N1566 1.613 . S
S1565 N1567 1.610 . S
N1566 S1565 1.613 . S
N1566 C1569 1.350 . S
N1567 S1565 1.610 . S
N1567 C1568 1.351 . S
C1568 C1562 1.428 . S
C1568 N1567 1.351 . S
C1568 C1569 1.434 . S
C1569 C1560 1.429 . S
C1569 N1566 1.350 . S
C1569 C1568 1.434 . S
C1570 C1571 1.369 . S
C1570 C1572 1.419 . S
C1570 H1574 0.930 . S
C1571 C1570 1.369 . S
C1571 C1580 1.429 . S
C1572 C1570 1.419 . S
C1572 C1573 1.363 . S
C1572 H1575 0.929 . S
C1573 C1572 1.363 . S
C1573 C1579 1.428 . S
H1574 C1570 0.930 . S
H1575 C1572 0.929 . S
S1576 N1577 1.613 . S
S1576 N1578 1.610 . S
N1577 S1576 1.613 . S
N1577 C1580 1.350 . S
N1578 S1576 1.610 . S
N1578 C1579 1.351 . S
C1579 C1573 1.428 . S
C1579 N1578 1.351 . S
C1579 C1580 1.434 . S
C1580 C1571 1.429 . S
C1580 N1577 1.350 . S
C1580 C1579 1.434 . S
C1581 C1582 1.369 . S
C1581 C1583 1.419 . S
C1581 H1585 0.930 . S
C1582 C1581 1.369 . S
C1582 C1591 1.429 . S
C1583 C1581 1.419 . S
C1583 C1584 1.363 . S
C1583 H1586 0.929 . S
C1584 C1583 1.363 . S
C1584 C1590 1.428 . S
H1585 C1581 0.930 . S
H1586 C1583 0.929 . S
S1587 N1588 1.613 . S
S1587 N1589 1.610 . S
N1588 S1587 1.613 . S
N1588 C1591 1.350 . S
N1589 S1587 1.610 . S
N1589 C1590 1.351 . S
C1590 C1584 1.428 . S
C1590 N1589 1.351 . S
C1590 C1591 1.434 . S
C1591 C1582 1.429 . S
C1591 N1588 1.350 . S
C1591 C1590 1.434 . S
C1592 C1593 1.369 . S
C1592 C1594 1.419 1_545 S
C1592 H1596 0.930 . S
C1593 C1592 1.369 . S
C1593 C1602 1.429 . S
C1594 C1592 1.419 1_565 S
C1594 C1595 1.363 . S
C1594 H1597 0.929 . S
C1595 C1594 1.363 . S
C1595 C1601 1.428 . S
H1596 C1592 0.930 . S
H1597 C1594 0.929 . S
S1598 N1599 1.613 . S
S1598 N1600 1.610 1_545 S
N1599 S1598 1.613 . S
N1599 C1602 1.350 . S
N1600 S1598 1.610 1_565 S
N1600 C1601 1.351 . S
C1601 C1595 1.428 . S
C1601 N1600 1.351 . S
C1601 C1602 1.434 1_565 S
C1602 C1593 1.429 . S
C1602 N1599 1.350 . S
C1602 C1601 1.434 1_545 S
C1603 C1604 1.369 . S
C1603 C1605 1.419 . S
C1603 H1607 0.930 . S
C1604 C1603 1.369 . S
C1604 C1613 1.429 . S
C1605 C1603 1.419 . S
C1605 C1606 1.363 . S
C1605 H1608 0.929 . S
C1606 C1605 1.363 . S
C1606 C1612 1.428 . S
H1607 C1603 0.930 . S
H1608 C1605 0.929 . S
S1609 N1610 1.613 . S
S1609 N1611 1.610 . S
N1610 S1609 1.613 . S
N1610 C1613 1.350 . S
N1611 S1609 1.610 . S
N1611 C1612 1.351 . S
C1612 C1606 1.428 . S
C1612 N1611 1.351 . S
C1612 C1613 1.434 . S
C1613 C1604 1.429 . S
C1613 N1610 1.350 . S
C1613 C1612 1.434 . S
C1614 C1615 1.369 . S
C1614 C1616 1.419 1_565 S
C1614 H1618 0.930 . S
C1615 C1614 1.369 . S
C1615 C1624 1.429 1_554 S
C1616 C1614 1.419 1_545 S
C1616 C1617 1.363 1_554 S
C1616 H1619 0.929 . S
C1617 C1616 1.363 1_556 S
C1617 C1623 1.428 . S
H1618 C1614 0.930 . S
H1619 C1616 0.929 . S
S1620 N1621 1.613 . S
S1620 N1622 1.610 1_565 S
N1621 S1620 1.613 . S
N1621 C1624 1.350 . S
N1622 S1620 1.610 1_545 S
N1622 C1623 1.351 . S
C1623 C1617 1.428 . S
C1623 N1622 1.351 . S
C1623 C1624 1.434 1_545 S
C1624 C1615 1.429 1_556 S
C1624 N1621 1.350 . S
C1624 C1623 1.434 1_565 S
C1625 C1626 1.369 . S
C1625 C1627 1.419 . S
C1625 H1629 0.930 . S
C1626 C1625 1.369 . S
C1626 C1635 1.429 . S
C1627 C1625 1.419 . S
C1627 C1628 1.363 . S
C1627 H1630 0.929 . S
C1628 C1627 1.363 . S
C1628 C1634 1.428 . S
H1629 C1625 0.930 . S
H1630 C1627 0.929 . S
S1631 N1632 1.613 . S
S1631 N1633 1.610 . S
N1632 S1631 1.613 . S
N1632 C1635 1.350 . S
N1633 S1631 1.610 . S
N1633 C1634 1.351 . S
C1634 C1628 1.428 . S
C1634 N1633 1.351 . S
C1634 C1635 1.434 . S
C1635 C1626 1.429 . S
C1635 N1632 1.350 . S
C1635 C1634 1.434 . S
C1636 C1637 1.369 . S
C1636 C1638 1.419 1_545 S
C1636 H1640 0.930 . S
C1637 C1636 1.369 . S
C1637 C1646 1.429 . S
C1638 C1636 1.419 1_565 S
C1638 C1639 1.363 . S
C1638 H1641 0.929 . S
C1639 C1638 1.363 . S
C1639 C1645 1.428 . S
H1640 C1636 0.930 . S
H1641 C1638 0.929 . S
S1642 N1643 1.613 . S
S1642 N1644 1.610 1_545 S
N1643 S1642 1.613 . S
N1643 C1646 1.350 . S
N1644 S1642 1.610 1_565 S
N1644 C1645 1.351 . S
C1645 C1639 1.428 . S
C1645 N1644 1.351 . S
C1645 C1646 1.434 1_565 S
C1646 C1637 1.429 . S
C1646 N1643 1.350 . S
C1646 C1645 1.434 1_545 S
C1647 C1648 1.369 . S
C1647 C1649 1.419 . S
C1647 H1651 0.930 . S
C1648 C1647 1.369 . S
C1648 C1657 1.429 . S
C1649 C1647 1.419 . S
C1649 C1650 1.363 . S
C1649 H1652 0.929 . S
C1650 C1649 1.363 . S
C1650 C1656 1.428 . S
H1651 C1647 0.930 . S
H1652 C1649 0.929 . S
S1653 N1654 1.613 . S
S1653 N1655 1.610 . S
N1654 S1653 1.613 . S
N1654 C1657 1.350 . S
N1655 S1653 1.610 . S
N1655 C1656 1.351 . S
C1656 C1650 1.428 . S
C1656 N1655 1.351 . S
C1656 C1657 1.434 . S
C1657 C1648 1.429 . S
C1657 N1654 1.350 . S
C1657 C1656 1.434 . S
C1658 C1659 1.369 . S
C1658 C1660 1.419 1_565 S
C1658 H1662 0.930 . S
C1659 C1658 1.369 . S
C1659 C1668 1.429 1_554 S
C1660 C1658 1.419 1_545 S
C1660 C1661 1.363 1_554 S
C1660 H1663 0.929 . S
C1661 C1660 1.363 1_556 S
C1661 C1667 1.428 . S
H1662 C1658 0.930 . S
H1663 C1660 0.929 . S
S1664 N1665 1.613 . S
S1664 N1666 1.610 1_565 S
N1665 S1664 1.613 . S
N1665 C1668 1.350 . S
N1666 S1664 1.610 1_545 S
N1666 C1667 1.351 . S
C1667 C1661 1.428 . S
C1667 N1666 1.351 . S
C1667 C1668 1.434 1_545 S
C1668 C1659 1.429 1_556 S
C1668 N1665 1.350 . S
C1668 C1667 1.434 1_565 S
C1669 C1670 1.369 . S
C1669 C1671 1.419 . S
C1669 H1673 0.930 . S
C1670 C1669 1.369 . S
C1670 C1679 1.429 . S
C1671 C1669 1.419 . S
C1671 C1672 1.363 . S
C1671 H1674 0.929 . S
C1672 C1671 1.363 . S
C1672 C1678 1.428 . S
H1673 C1669 0.930 . S
H1674 C1671 0.929 . S
S1675 N1676 1.613 . S
S1675 N1677 1.610 . S
N1676 S1675 1.613 . S
N1676 C1679 1.350 . S
N1677 S1675 1.610 . S
N1677 C1678 1.351 . S
C1678 C1672 1.428 . S
C1678 N1677 1.351 . S
C1678 C1679 1.434 . S
C1679 C1670 1.429 . S
C1679 N1676 1.350 . S
C1679 C1678 1.434 . S
C1680 C1681 1.369 1_556 S
C1680 C1682 1.419 . S
C1680 H1684 0.930 . S
C1681 C1680 1.369 1_554 S
C1681 C1690 1.429 . S
C1682 C1680 1.419 . S
C1682 C1683 1.363 1_556 S
C1682 H1685 0.929 . S
C1683 C1682 1.363 1_554 S
C1683 C1689 1.428 . S
H1684 C1680 0.930 . S
H1685 C1682 0.929 . S
S1686 N1687 1.613 . S
S1686 N1688 1.610 . S
N1687 S1686 1.613 . S
N1687 C1690 1.350 . S
N1688 S1686 1.610 . S
N1688 C1689 1.351 . S
C1689 C1683 1.428 . S
C1689 N1688 1.351 . S
C1689 C1690 1.434 . S
C1690 C1681 1.429 . S
C1690 N1687 1.350 . S
C1690 C1689 1.434 . S
C1691 C1692 1.369 . S
C1691 C1693 1.419 . S
C1691 H1695 0.930 . S
C1692 C1691 1.369 . S
C1692 C1701 1.429 . S
C1693 C1691 1.419 . S
C1693 C1694 1.363 . S
C1693 H1696 0.929 . S
C1694 C1693 1.363 . S
C1694 C1700 1.428 . S
H1695 C1691 0.930 . S
H1696 C1693 0.929 . S
S1697 N1698 1.613 . S
S1697 N1699 1.610 . S
N1698 S1697 1.613 . S
N1698 C1701 1.350 . S
N1699 S1697 1.610 . S
N1699 C1700 1.351 . S
C1700 C1694 1.428 . S
C1700 N1699 1.351 . S
C1700 C1701 1.434 . S
C1701 C1692 1.429 . S
C1701 N1698 1.350 . S
C1701 C1700 1.434 . S
C1702 C1703 1.369 . S
C1702 C1704 1.419 . S
C1702 H1706 0.930 . S
C1703 C1702 1.369 . S
C1703 C1712 1.429 . S
C1704 C1702 1.419 . S
C1704 C1705 1.363 . S
C1704 H1707 0.929 . S
C1705 C1704 1.363 . S
C1705 C1711 1.428 . S
H1706 C1702 0.930 . S
H1707 C1704 0.929 . S
S1708 N1709 1.613 . S
S1708 N1710 1.610 . S
N1709 S1708 1.613 . S
N1709 C1712 1.350 . S
N1710 S1708 1.610 . S
N1710 C1711 1.351 . S
C1711 C1705 1.428 . S
C1711 N1710 1.351 . S
C1711 C1712 1.434 . S
C1712 C1703 1.429 . S
C1712 N1709 1.350 . S
C1712 C1711 1.434 . S
C1713 C1714 1.369 . S
C1713 C1715 1.419 1_655 S
C1713 H1717 0.930 . S
C1714 C1713 1.369 . S
C1714 C1723 1.429 . S
C1715 C1713 1.419 1_455 S
C1715 C1716 1.363 . S
C1715 H1718 0.929 . S
C1716 C1715 1.363 . S
C1716 C1722 1.428 . S
H1717 C1713 0.930 . S
H1718 C1715 0.929 . S
S1719 N1720 1.616 1_455 S
S1719 N1721 1.608 . S
N1720 S1719 1.616 1_655 S
N1720 C1723 1.350 . S
N1721 S1719 1.608 . S
N1721 C1722 1.351 . S
C1722 C1716 1.428 . S
C1722 N1721 1.351 . S
C1722 C1723 1.434 1_455 S
C1723 C1714 1.429 . S
C1723 N1720 1.350 . S
C1723 C1722 1.434 1_655 S
C1724 C1725 1.369 . S
C1724 C1726 1.419 . S
C1724 H1728 0.930 . S
C1725 C1724 1.369 . S
C1725 C1734 1.429 . S
C1726 C1724 1.419 . S
C1726 C1727 1.363 . S
C1726 H1729 0.929 . S
C1727 C1726 1.363 . S
C1727 C1733 1.428 . S
H1728 C1724 0.930 . S
H1729 C1726 0.929 . S
S1730 N1731 1.613 . S
S1730 N1732 1.610 . S
N1731 S1730 1.613 . S
N1731 C1734 1.350 . S
N1732 S1730 1.610 . S
N1732 C1733 1.351 . S
C1733 C1727 1.428 . S
C1733 N1732 1.351 . S
C1733 C1734 1.434 . S
C1734 C1725 1.429 . S
C1734 N1731 1.350 . S
C1734 C1733 1.434 . S
C1735 C1736 1.369 . S
C1735 C1737 1.419 1_655 S
C1735 H1739 0.930 . S
C1736 C1735 1.369 . S
C1736 C1745 1.429 . S
C1737 C1735 1.419 1_455 S
C1737 C1738 1.363 . S
C1737 H1740 0.929 . S
C1738 C1737 1.363 . S
C1738 C1744 1.428 . S
H1739 C1735 0.930 . S
H1740 C1737 0.929 . S
S1741 N1742 1.616 1_455 S
S1741 N1743 1.608 . S
N1742 S1741 1.616 1_655 S
N1742 C1745 1.350 . S
N1743 S1741 1.608 . S
N1743 C1744 1.351 . S
C1744 C1738 1.428 . S
C1744 N1743 1.351 . S
C1744 C1745 1.434 1_455 S
C1745 C1736 1.429 . S
C1745 N1742 1.350 . S
C1745 C1744 1.434 1_655 S
C1746 C1747 1.369 . S
C1746 C1748 1.419 . S
C1746 H1750 0.930 . S
C1747 C1746 1.369 . S
C1747 C1756 1.429 . S
C1748 C1746 1.419 . S
C1748 C1749 1.363 . S
C1748 H1751 0.929 . S
C1749 C1748 1.363 . S
C1749 C1755 1.428 . S
H1750 C1746 0.930 . S
H1751 C1748 0.929 . S
S1752 N1753 1.613 . S
S1752 N1754 1.610 . S
N1753 S1752 1.613 . S
N1753 C1756 1.350 . S
N1754 S1752 1.610 . S
N1754 C1755 1.351 . S
C1755 C1749 1.428 . S
C1755 N1754 1.351 . S
C1755 C1756 1.434 . S
C1756 C1747 1.429 . S
C1756 N1753 1.350 . S
C1756 C1755 1.434 . S
C1757 C1758 1.369 . S
C1757 C1759 1.419 . S
C1757 H1761 0.930 . S
C1758 C1757 1.369 . S
C1758 C1767 1.429 . S
C1759 C1757 1.419 . S
C1759 C1760 1.363 . S
C1759 H1762 0.929 . S
C1760 C1759 1.363 . S
C1760 C1766 1.428 . S
H1761 C1757 0.930 . S
H1762 C1759 0.929 . S
S1763 N1764 1.613 . S
S1763 N1765 1.610 . S
N1764 S1763 1.613 . S
N1764 C1767 1.350 . S
N1765 S1763 1.610 . S
N1765 C1766 1.351 . S
C1766 C1760 1.428 . S
C1766 N1765 1.351 . S
C1766 C1767 1.434 . S
C1767 C1758 1.429 . S
C1767 N1764 1.350 . S
C1767 C1766 1.434 . S
C1768 C1769 1.369 . S
C1768 C1770 1.419 . S
C1768 H1772 0.930 . S
C1769 C1768 1.369 . S
C1769 C1778 1.429 . S
C1770 C1768 1.419 . S
C1770 C1771 1.363 . S
C1770 H1773 0.929 . S
C1771 C1770 1.363 . S
C1771 C1777 1.428 . S
H1772 C1768 0.930 . S
H1773 C1770 0.929 . S
S1774 N1775 1.613 . S
S1774 N1776 1.610 . S
N1775 S1774 1.613 . S
N1775 C1778 1.350 1_554 S
N1776 S1774 1.610 . S
N1776 C1777 1.351 1_554 S
C1777 C1771 1.428 . S
C1777 N1776 1.351 1_556 S
C1777 C1778 1.434 . S
C1778 C1769 1.429 . S
C1778 N1775 1.350 1_556 S
C1778 C1777 1.434 . S
C1779 C1780 1.369 . S
C1779 C1781 1.419 . S
C1779 H1783 0.930 . S
C1780 C1779 1.369 . S
C1780 C1789 1.429 . S
C1781 C1779 1.419 . S
C1781 C1782 1.363 . S
C1781 H1784 0.929 . S
C1782 C1781 1.363 . S
C1782 C1788 1.428 . S
H1783 C1779 0.930 . S
H1784 C1781 0.929 . S
S1785 N1786 1.613 . S
S1785 N1787 1.610 . S
N1786 S1785 1.613 . S
N1786 C1789 1.350 . S
N1787 S1785 1.610 . S
N1787 C1788 1.351 . S
C1788 C1782 1.428 . S
C1788 N1787 1.351 . S
C1788 C1789 1.434 . S
C1789 C1780 1.429 . S
C1789 N1786 1.350 . S
C1789 C1788 1.434 . S
C1790 C1791 1.369 . S
C1790 C1792 1.419 . S
C1790 H1794 0.930 . S
C1791 C1790 1.369 . S
C1791 C1800 1.429 1_554 S
C1792 C1790 1.419 . S
C1792 C1793 1.363 . S
C1792 H1795 0.929 . S
C1793 C1792 1.363 . S
C1793 C1799 1.428 1_554 S
H1794 C1790 0.930 . S
H1795 C1792 0.929 . S
S1796 N1797 1.613 . S
S1796 N1798 1.610 . S
N1797 S1796 1.613 . S
N1797 C1800 1.350 . S
N1798 S1796 1.610 . S
N1798 C1799 1.351 . S
C1799 C1793 1.428 1_556 S
C1799 N1798 1.351 . S
C1799 C1800 1.434 . S
C1800 C1791 1.429 1_556 S
C1800 N1797 1.350 . S
C1800 C1799 1.434 . S
C1801 C1802 1.369 . S
C1801 C1803 1.419 . S
C1801 H1805 0.930 . S
C1802 C1801 1.369 . S
C1802 C1811 1.429 . S
C1803 C1801 1.419 . S
C1803 C1804 1.363 . S
C1803 H1806 0.929 . S
C1804 C1803 1.363 . S
C1804 C1810 1.428 . S
H1805 C1801 0.930 . S
H1806 C1803 0.929 . S
S1807 N1808 1.613 . S
S1807 N1809 1.610 . S
N1808 S1807 1.613 . S
N1808 C1811 1.350 . S
N1809 S1807 1.610 . S
N1809 C1810 1.351 . S
C1810 C1804 1.428 . S
C1810 N1809 1.351 . S
C1810 C1811 1.434 . S
C1811 C1802 1.429 . S
C1811 N1808 1.350 . S
C1811 C1810 1.434 . S
C1812 C1813 1.369 . S
C1812 C1814 1.419 1_655 S
C1812 H1816 0.930 . S
C1813 C1812 1.369 . S
C1813 C1822 1.429 . S
C1814 C1812 1.419 1_455 S
C1814 C1815 1.363 . S
C1814 H1817 0.929 . S
C1815 C1814 1.363 . S
C1815 C1821 1.428 . S
H1816 C1812 0.930 . S
H1817 C1814 0.929 . S
S1818 N1819 1.616 1_455 S
S1818 N1820 1.608 . S
N1819 S1818 1.616 1_655 S
N1819 C1822 1.350 . S
N1820 S1818 1.608 . S
N1820 C1821 1.351 . S
C1821 C1815 1.428 . S
C1821 N1820 1.351 . S
C1821 C1822 1.434 1_455 S
C1822 C1813 1.429 . S
C1822 N1819 1.350 . S
C1822 C1821 1.434 1_655 S
C1823 C1824 1.369 . S
C1823 C1825 1.419 . S
C1823 H1827 0.930 . S
C1824 C1823 1.369 . S
C1824 C1833 1.429 . S
C1825 C1823 1.419 . S
C1825 C1826 1.363 . S
C1825 H1828 0.929 . S
C1826 C1825 1.363 . S
C1826 C1832 1.428 . S
H1827 C1823 0.930 . S
H1828 C1825 0.929 . S
S1829 N1830 1.613 . S
S1829 N1831 1.610 . S
N1830 S1829 1.613 . S
N1830 C1833 1.350 . S
N1831 S1829 1.610 . S
N1831 C1832 1.351 . S
C1832 C1826 1.428 . S
C1832 N1831 1.351 . S
C1832 C1833 1.434 . S
C1833 C1824 1.429 . S
C1833 N1830 1.350 . S
C1833 C1832 1.434 . S
C1834 C1835 1.369 . S
C1834 C1836 1.419 . S
C1834 H1838 0.930 . S
C1835 C1834 1.369 . S
C1835 C1844 1.429 . S
C1836 C1834 1.419 . S
C1836 C1837 1.363 . S
C1836 H1839 0.929 . S
C1837 C1836 1.363 . S
C1837 C1843 1.428 . S
H1838 C1834 0.930 . S
H1839 C1836 0.929 . S
S1840 N1841 1.613 . S
S1840 N1842 1.610 . S
N1841 S1840 1.613 . S
N1841 C1844 1.350 . S
N1842 S1840 1.610 . S
N1842 C1843 1.351 . S
C1843 C1837 1.428 . S
C1843 N1842 1.351 . S
C1843 C1844 1.434 . S
C1844 C1835 1.429 . S
C1844 N1841 1.350 . S
C1844 C1843 1.434 . S
C1845 C1846 1.369 . S
C1845 C1847 1.419 1_655 S
C1845 H1849 0.930 . S
C1846 C1845 1.369 . S
C1846 C1855 1.429 . S
C1847 C1845 1.419 1_455 S
C1847 C1848 1.363 . S
C1847 H1850 0.929 . S
C1848 C1847 1.363 . S
C1848 C1854 1.428 . S
H1849 C1845 0.930 . S
H1850 C1847 0.929 . S
S1851 N1852 1.616 1_455 S
S1851 N1853 1.608 . S
N1852 S1851 1.616 1_655 S
N1852 C1855 1.350 . S
N1853 S1851 1.608 . S
N1853 C1854 1.351 . S
C1854 C1848 1.428 . S
C1854 N1853 1.351 . S
C1854 C1855 1.434 1_455 S
C1855 C1846 1.429 . S
C1855 N1852 1.350 . S
C1855 C1854 1.434 1_655 S
C1153 C842 1.557 . S
C1155 C14 1.560 . S
C1164 C734 1.556 . S
C1166 C50 1.556 . S
C1175 C770 1.559 . S
C1177 C86 1.558 . S
C1186 C806 1.563 . S
C1188 C122 1.564 . S
C1197 C158 1.566 . S
C1199 C626 1.564 . S
C1208 C662 1.562 . S
C1210 C194 1.559 . S
C1219 C230 1.564 . S
C1221 C698 1.561 . S
C1230 C266 1.563 . S
C1232 C590 1.560 . S
C1241 C1130 1.564 . S
C1243 C302 1.562 . S
C1252 C338 1.565 . S
C1254 C1022 1.564 . S
C1263 C374 1.565 . S
C1265 C1058 1.564 . S
C1274 C410 1.566 . S
C1276 C1094 1.565 . S
C1285 C446 1.560 . S
C1287 C914 1.561 . S
C1296 C482 1.554 . S
C1298 C950 1.556 . S
C1307 C518 1.555 . S
C1309 C986 1.555 . S
C1318 C554 1.566 . S
C1320 C878 1.564 . S
C1329 C2 1.496 . S
C1331 C434 1.496 . S
C1340 C1046 1.496 . S
C1342 C38 1.496 . S
C1351 C74 1.496 . S
C1353 C506 1.496 . S
C1362 C1118 1.496 . S
C1364 C110 1.496 . S
C1373 C290 1.496 . S
C1375 C146 1.496 . S
C1384 C182 1.496 . S
C1386 C902 1.496 . S
C1395 C218 1.495 . S
C1397 C362 1.495 . S
C1406 C254 1.496 . S
C1408 C974 1.496 . S
C1417 C758 1.495 . S
C1419 C326 1.495 . S
C1428 C830 1.496 . S
C1430 C398 1.496 . S
C1439 C470 1.495 . S
C1441 C614 1.495 . S
C1450 C686 1.496 . S
C1452 C542 1.496 . S
C1461 C1010 1.496 . S
C1463 C578 1.496 . S
C1472 C650 1.496 . S
C1474 C1082 1.496 . S
C1483 C866 1.496 . S
C1485 C722 1.496 . S
C1494 C938 1.495 . S
C1496 C794 1.495 . S
C1505 C147 1.347 . S
C1507 C3 1.350 . S
C1516 C183 1.347 . S
C1518 C39 1.350 . S
C1527 C75 1.344 . S
C1529 C219 1.350 . S
C1538 C111 1.347 . S
C1540 C255 1.344 . S
C1549 C435 1.349 . S
C1551 C291 1.344 . S
C1560 C471 1.351 . S
C1562 C327 1.345 . S
C1571 C507 1.345 . S
C1573 C363 1.350 . S
C1582 C399 1.343 . S
C1584 C543 1.348 . S
C1593 C579 1.351 . S
C1595 C723 1.347 . S
C1604 C615 1.347 . S
C1606 C759 1.345 . S
C1615 C651 1.350 . S
C1617 C795 1.345 . S
C1626 C687 1.349 . S
C1628 C831 1.349 . S
C1637 C1011 1.351 . S
C1639 C867 1.345 . S
C1648 C1047 1.346 . S
C1650 C903 1.345 . S
C1659 C1083 1.349 . S
C1661 C939 1.344 . S
C1670 C1119 1.344 . S
C1672 C975 1.350 . S
C1681 C1084 1.453 . S
C1683 C4 1.453 . S
C1692 C40 1.453 . S
C1694 C544 1.454 . S
C1703 C1012 1.455 . S
C1705 C76 1.455 . S
C1714 C112 1.451 . S
C1716 C472 1.452 . S
C1725 C940 1.451 . S
C1727 C148 1.452 . S
C1736 C184 1.457 . S
C1738 C400 1.457 . S
C1747 C220 1.451 . S
C1749 C868 1.453 . S
C1758 C328 1.456 . S
C1760 C256 1.456 . S
C1769 C292 1.452 . S
C1771 C796 1.453 . S
C1780 C724 1.460 . S
C1782 C364 1.459 . S
C1791 C436 1.459 . S
C1793 C652 1.458 . S
C1802 C508 1.458 . S
C1804 C580 1.458 . S
C1813 C1120 1.451 . S
C1815 C616 1.452 . S
C1824 C688 1.451 . S
C1826 C1048 1.452 . S
C1835 C760 1.454 . S
C1837 C976 1.455 . S
C1846 C904 1.460 . S
C1848 C832 1.459 . S
