# Generated by pormake.
# Topology ume, (4)-cn, num edge types: 1
# Building blocks:
#     Node 0, Type 0, BuildingBlock: CEKHIL_clean_sbu_0, # of connection points: 4
#     Node 1, Type 0, BuildingBlock: CEKHIL_clean_sbu_0, # of connection points: 4
#     Node 2, Type 0, BuildingBlock: CEKHIL_clean_sbu_0, # of connection points: 4
#     Node 3, Type 0, BuildingBlock: CEKHIL_clean_sbu_0, # of connection points: 4
#     Node 4, Type 0, BuildingBlock: CEKHIL_clean_sbu_0, # of connection points: 4
#     Node 5, Type 0, BuildingBlock: CEKHIL_clean_sbu_0, # of connection points: 4
#     Node 6, Type 0, BuildingBlock: CEKHIL_clean_sbu_0, # of connection points: 4
#     Node 7, Type 0, BuildingBlock: CEKHIL_clean_sbu_0, # of connection points: 4
#     Node 8, Type 0, BuildingBlock: CEKHIL_clean_sbu_0, # of connection points: 4
#     Node 9, Type 0, BuildingBlock: CEKHIL_clean_sbu_0, # of connection points: 4
#     Node 10, Type 0, BuildingBlock: CEKHIL_clean_sbu_0, # of connection points: 4
#     Node 11, Type 0, BuildingBlock: CEKHIL_clean_sbu_0, # of connection points: 4
#     Node 12, Type 0, BuildingBlock: CEKHIL_clean_sbu_0, # of connection points: 4
#     Node 13, Type 0, BuildingBlock: CEKHIL_clean_sbu_0, # of connection points: 4
#     Node 14, Type 0, BuildingBlock: CEKHIL_clean_sbu_0, # of connection points: 4
#     Node 15, Type 0, BuildingBlock: CEKHIL_clean_sbu_0, # of connection points: 4
#     Edge 16, Type (0, 0), BuildingBlock: TEMPAE_clean_linker_10, # of connection points: 2
#     Edge 17, Type (0, 0), BuildingBlock: TEMPAE_clean_linker_10, # of connection points: 2
#     Edge 18, Type (0, 0), BuildingBlock: TEMPAE_clean_linker_10, # of connection points: 2
#     Edge 19, Type (0, 0), BuildingBlock: TEMPAE_clean_linker_10, # of connection points: 2
#     Edge 20, Type (0, 0), BuildingBlock: TEMPAE_clean_linker_10, # of connection points: 2
#     Edge 21, Type (0, 0), BuildingBlock: TEMPAE_clean_linker_10, # of connection points: 2
#     Edge 22, Type (0, 0), BuildingBlock: TEMPAE_clean_linker_10, # of connection points: 2
#     Edge 23, Type (0, 0), BuildingBlock: TEMPAE_clean_linker_10, # of connection points: 2
#     Edge 24, Type (0, 0), BuildingBlock: TEMPAE_clean_linker_10, # of connection points: 2
#     Edge 25, Type (0, 0), BuildingBlock: TEMPAE_clean_linker_10, # of connection points: 2
#     Edge 26, Type (0, 0), BuildingBlock: TEMPAE_clean_linker_10, # of connection points: 2
#     Edge 27, Type (0, 0), BuildingBlock: TEMPAE_clean_linker_10, # of connection points: 2
#     Edge 28, Type (0, 0), BuildingBlock: TEMPAE_clean_linker_10, # of connection points: 2
#     Edge 29, Type (0, 0), BuildingBlock: TEMPAE_clean_linker_10, # of connection points: 2
#     Edge 30, Type (0, 0), BuildingBlock: TEMPAE_clean_linker_10, # of connection points: 2
#     Edge 31, Type (0, 0), BuildingBlock: TEMPAE_clean_linker_10, # of connection points: 2
#     Edge 32, Type (0, 0), BuildingBlock: TEMPAE_clean_linker_10, # of connection points: 2
#     Edge 33, Type (0, 0), BuildingBlock: TEMPAE_clean_linker_10, # of connection points: 2
#     Edge 34, Type (0, 0), BuildingBlock: TEMPAE_clean_linker_10, # of connection points: 2
#     Edge 35, Type (0, 0), BuildingBlock: TEMPAE_clean_linker_10, # of connection points: 2
#     Edge 36, Type (0, 0), BuildingBlock: TEMPAE_clean_linker_10, # of connection points: 2
#     Edge 37, Type (0, 0), BuildingBlock: TEMPAE_clean_linker_10, # of connection points: 2
#     Edge 38, Type (0, 0), BuildingBlock: TEMPAE_clean_linker_10, # of connection points: 2
#     Edge 39, Type (0, 0), BuildingBlock: TEMPAE_clean_linker_10, # of connection points: 2
#     Edge 40, Type (0, 0), BuildingBlock: TEMPAE_clean_linker_10, # of connection points: 2
#     Edge 41, Type (0, 0), BuildingBlock: TEMPAE_clean_linker_10, # of connection points: 2
#     Edge 42, Type (0, 0), BuildingBlock: TEMPAE_clean_linker_10, # of connection points: 2
#     Edge 43, Type (0, 0), BuildingBlock: TEMPAE_clean_linker_10, # of connection points: 2
#     Edge 44, Type (0, 0), BuildingBlock: TEMPAE_clean_linker_10, # of connection points: 2
#     Edge 45, Type (0, 0), BuildingBlock: TEMPAE_clean_linker_10, # of connection points: 2
#     Edge 46, Type (0, 0), BuildingBlock: TEMPAE_clean_linker_10, # of connection points: 2
#     Edge 47, Type (0, 0), BuildingBlock: TEMPAE_clean_linker_10, # of connection points: 2
# Relax obj value: 0.096
# Max RMSD: 0.135
# Mean RMSD: 0.135
data_MOF--net-ume--node1-CEKHIL_clean_sbu_0--edge1-TEMPAE_clean_linker_10
_symmetry_space_group_name_H-M    P1
_symmetry_Int_Tables_number       1
_symmetry_cell_setting            triclinic
loop_
_symmetry_equiv_pos_as_xyz
'x, y, z'
_cell_length_a     27.768714
_cell_length_b     27.777631
_cell_length_c     111.35229
_cell_angle_alpha  89.998981
_cell_angle_beta   89.981587
_cell_angle_gamma 90.017946
loop_
_atom_site_label
_atom_site_type_symbol
_atom_site_fract_x
_atom_site_fract_y
_atom_site_fract_z
_atom_type_partial_charge
Co0 Co 0.23528 0.11031 0.30279 0.0
O1 O 0.16718 0.1221 0.30301 0.0
O2 O 0.20138 0.05474 0.30924 0.0
C3 C 0.24789 0.13721 0.28404 0.0
O4 O 0.30468 0.08533 0.30339 0.0
Co5 Co 0.30627 0.19605 0.30021 0.0
O6 O 0.3524 0.14404 0.29611 0.0
C7 C 0.26081 0.17709 0.32365 0.0
C8 C 0.16205 0.07925 0.30742 0.0
C9 C 0.34558 0.10063 0.29941 0.0
O10 O 0.24151 0.13871 0.31933 0.0
O11 O 0.2858 0.20643 0.31733 0.0
O12 O 0.23263 0.09357 0.28581 0.0
O13 O 0.25049 0.16421 0.29346 0.0
Co14 Co 0.89712 0.74093 0.55275 0.0
O15 O 0.88904 0.67235 0.55229 0.0
O16 O 0.95399 0.70921 0.55922 0.0
C17 C 0.87085 0.75473 0.53397 0.0
O18 O 0.91812 0.81157 0.55392 0.0
Co19 Co 0.80676 0.80629 0.55051 0.0
O20 O 0.85582 0.85681 0.54759 0.0
C21 C 0.82792 0.75979 0.57364 0.0
C22 C 0.93185 0.66897 0.55682 0.0
C23 C 0.89984 0.85229 0.55065 0.0
O24 O 0.86759 0.74358 0.56925 0.0
O25 O 0.79701 0.78317 0.56742 0.0
O26 O 0.91502 0.74126 0.53583 0.0
O27 O 0.84314 0.75441 0.54329 0.0
Co28 Co 0.26367 0.3986 0.80256 0.0
O29 O 0.3321 0.39013 0.80138 0.0
O30 O 0.29654 0.45495 0.80882 0.0
C31 C 0.24606 0.37306 0.78394 0.0
O32 O 0.1939 0.42059 0.80453 0.0
Co33 Co 0.19688 0.30921 0.80109 0.0
O34 O 0.14443 0.35757 0.80118 0.0
C35 C 0.2492 0.32846 0.82347 0.0
C36 C 0.33628 0.43267 0.80605 0.0
C37 C 0.15161 0.40206 0.80332 0.0
O38 O 0.26374 0.3687 0.81904 0.0
O39 O 0.22507 0.2976 0.81742 0.0
O40 O 0.26032 0.41704 0.78572 0.0
O41 O 0.24787 0.34491 0.79318 0.0
Co42 Co 0.60778 0.76206 0.0524 0.0
O43 O 0.61597 0.83053 0.05164 0.0
O44 O 0.55009 0.79409 0.05822 0.0
C45 C 0.63663 0.74636 0.03398 0.0
O46 O 0.58658 0.69167 0.05377 0.0
Co47 Co 0.69818 0.69652 0.05148 0.0
O48 O 0.64954 0.64607 0.04803 0.0
C49 C 0.67337 0.74518 0.07409 0.0
C50 C 0.57262 0.83412 0.05584 0.0
C51 C 0.60513 0.65086 0.05069 0.0
O52 O 0.63461 0.76091 0.06916 0.0
O53 O 0.70533 0.72117 0.06836 0.0
O54 O 0.59228 0.76015 0.03537 0.0
O55 O 0.66315 0.74766 0.04352 0.0
Co56 Co 0.24319 0.39348 0.93397 0.0
O57 O 0.17492 0.38281 0.93414 0.0
O58 O 0.20978 0.44893 0.92727 0.0
C59 C 0.25637 0.3683 0.95285 0.0
O60 O 0.31309 0.41713 0.93305 0.0
Co61 Co 0.31217 0.30626 0.93673 0.0
O62 O 0.35966 0.35755 0.94033 0.0
C63 C 0.26731 0.32515 0.91326 0.0
C64 C 0.17022 0.42534 0.92952 0.0
C65 C 0.35384 0.40099 0.93694 0.0
O66 O 0.24814 0.36362 0.91756 0.0
O67 O 0.29223 0.29582 0.91958 0.0
O68 O 0.24167 0.41194 0.95083 0.0
O69 O 0.25789 0.34026 0.9436 0.0
Co70 Co 0.6001 0.73983 0.18511 0.0
O71 O 0.60688 0.67101 0.18418 0.0
O72 O 0.54146 0.71156 0.17884 0.0
C73 C 0.62927 0.74839 0.20378 0.0
O74 O 0.57982 0.8107 0.18529 0.0
Co75 Co 0.69056 0.80483 0.18778 0.0
O76 O 0.64226 0.85436 0.19217 0.0
C77 C 0.66657 0.76404 0.1641 0.0
C78 C 0.5632 0.67038 0.18009 0.0
C79 C 0.59808 0.85043 0.18922 0.0
O80 O 0.62742 0.74643 0.16845 0.0
O81 O 0.69786 0.78641 0.17044 0.0
O82 O 0.58471 0.73581 0.20212 0.0
O83 O 0.65573 0.75027 0.19424 0.0
Co84 Co 0.26241 0.10904 0.43435 0.0
O85 O 0.33065 0.11951 0.43524 0.0
O86 O 0.29665 0.05355 0.428 0.0
C87 C 0.24576 0.13446 0.45305 0.0
O88 O 0.19286 0.08545 0.43265 0.0
Co89 Co 0.19264 0.19599 0.4363 0.0
O90 O 0.14506 0.14445 0.43975 0.0
C91 C 0.24279 0.17769 0.41345 0.0
C92 C 0.3359 0.07703 0.43062 0.0
C93 C 0.15167 0.10119 0.43631 0.0
O94 O 0.26044 0.13881 0.41791 0.0
O95 O 0.21698 0.20714 0.41952 0.0
O96 O 0.26088 0.09079 0.45124 0.0
O97 O 0.24588 0.16233 0.44375 0.0
Co98 Co 0.89435 0.76244 0.68441 0.0
O99 O 0.88437 0.83071 0.68525 0.0
O100 O 0.94994 0.7961 0.67795 0.0
C101 C 0.8696 0.7459 0.70316 0.0
O102 O 0.91767 0.69292 0.68276 0.0
Co103 Co 0.80606 0.6942 0.68641 0.0
O104 O 0.85565 0.64301 0.6868 0.0
C105 C 0.82493 0.74344 0.66355 0.0
C106 C 0.92685 0.83553 0.68058 0.0
C107 C 0.8999 0.65051 0.6844 0.0
O108 O 0.86425 0.7604 0.66796 0.0
O109 O 0.79483 0.71871 0.6697 0.0
O110 O 0.91319 0.76102 0.70123 0.0
O111 O 0.8412 0.74633 0.69396 0.0
Co112 Co 0.74006 0.61323 0.80346 0.0
O113 O 0.67199 0.62459 0.80246 0.0
O114 O 0.70507 0.55833 0.8098 0.0
C115 C 0.75801 0.63774 0.78478 0.0
O116 O 0.80892 0.58832 0.80525 0.0
Co117 Co 0.8105 0.69979 0.80172 0.0
O118 O 0.86081 0.64923 0.8017 0.0
C119 C 0.75896 0.68249 0.82433 0.0
C120 C 0.66618 0.5822 0.80711 0.0
C121 C 0.85186 0.60512 0.80389 0.0
O122 O 0.74202 0.64318 0.81992 0.0
O123 O 0.78433 0.71219 0.81823 0.0
O124 O 0.74186 0.59448 0.78664 0.0
O125 O 0.75777 0.66611 0.79398 0.0
Co126 Co 0.3939 0.23836 0.05262 0.0
O127 O 0.38244 0.17031 0.05211 0.0
O128 O 0.44961 0.2039 0.05876 0.0
C129 C 0.36713 0.25419 0.03402 0.0
O130 O 0.41839 0.30772 0.05384 0.0
Co131 Co 0.30711 0.30834 0.05103 0.0
O132 O 0.35854 0.35556 0.04723 0.0
C133 C 0.32767 0.25981 0.07394 0.0
C134 C 0.42532 0.1648 0.05648 0.0
C135 C 0.4023 0.34889 0.05026 0.0
O136 O 0.36594 0.2418 0.06924 0.0
O137 O 0.29752 0.28524 0.06798 0.0
O138 O 0.41067 0.23844 0.03566 0.0
O139 O 0.33991 0.25483 0.04344 0.0
Co140 Co 0.75993 0.8973 0.30235 0.0
O141 O 0.82871 0.89049 0.30192 0.0
O142 O 0.7904 0.95499 0.3087 0.0
C143 C 0.74696 0.86965 0.28367 0.0
O144 O 0.68902 0.91737 0.3034 0.0
Co145 Co 0.69533 0.80637 0.30029 0.0
O146 O 0.64446 0.8547 0.29703 0.0
C147 C 0.74136 0.82901 0.32341 0.0
C148 C 0.83102 0.93349 0.30637 0.0
C149 C 0.64856 0.89881 0.30003 0.0
O150 O 0.75754 0.86855 0.31894 0.0
O151 O 0.71816 0.79776 0.31725 0.0
O152 O 0.75948 0.91422 0.28536 0.0
O153 O 0.74745 0.84257 0.2931 0.0
Co154 Co 0.11185 0.26539 0.55302 0.0
O155 O 0.12356 0.3335 0.55268 0.0
O156 O 0.05718 0.29987 0.55976 0.0
C157 C 0.13607 0.25081 0.53412 0.0
O158 O 0.08708 0.19599 0.55417 0.0
Co159 Co 0.19765 0.19456 0.55018 0.0
O160 O 0.14518 0.14832 0.54658 0.0
C161 C 0.18046 0.24059 0.57361 0.0
C162 C 0.08127 0.33901 0.55739 0.0
C163 C 0.10212 0.15503 0.55017 0.0
O164 O 0.14228 0.26055 0.56937 0.0
O165 O 0.20896 0.21475 0.56727 0.0
O166 O 0.0928 0.26651 0.53619 0.0
O167 O 0.16443 0.24927 0.54331 0.0
Co168 Co 0.7387 0.89372 0.43449 0.0
O169 O 0.67023 0.88512 0.4352 0.0
O170 O 0.7062 0.9504 0.42818 0.0
C171 C 0.75393 0.86752 0.45319 0.0
O172 O 0.80907 0.91527 0.43305 0.0
Co173 Co 0.80478 0.8039 0.43641 0.0
O174 O 0.85529 0.85319 0.43903 0.0
C175 C 0.75748 0.82542 0.41341 0.0
C176 C 0.66625 0.9279 0.43069 0.0
C177 C 0.85022 0.89722 0.43605 0.0
O178 O 0.74056 0.86448 0.41796 0.0
O179 O 0.78176 0.79472 0.41948 0.0
O180 O 0.74011 0.91161 0.45139 0.0
O181 O 0.75305 0.8397 0.44389 0.0
Co182 Co 0.10893 0.23851 0.68445 0.0
O183 O 0.11933 0.17027 0.68536 0.0
O184 O 0.0533 0.20447 0.67819 0.0
C185 C 0.13444 0.25601 0.70309 0.0
O186 O 0.08501 0.30773 0.68279 0.0
Co187 Co 0.19667 0.30767 0.68599 0.0
O188 O 0.14669 0.35855 0.68651 0.0
C189 C 0.17787 0.25624 0.66344 0.0
C190 C 0.07671 0.1652 0.68078 0.0
C191 C 0.10243 0.3503 0.68433 0.0
O192 O 0.13825 0.24032 0.66792 0.0
O193 O 0.20833 0.28084 0.66951 0.0
O194 O 0.09095 0.24025 0.70133 0.0
O195 O 0.16238 0.25548 0.69379 0.0
Co196 Co 0.76814 0.60796 0.93456 0.0
O197 O 0.83658 0.61726 0.93473 0.0
O198 O 0.80044 0.55212 0.92771 0.0
C199 C 0.75553 0.63264 0.95351 0.0
O200 O 0.69776 0.58584 0.93361 0.0
Co201 Co 0.70122 0.69674 0.93761 0.0
O202 O 0.6521 0.64646 0.94072 0.0
C203 C 0.74613 0.67822 0.91412 0.0
C204 C 0.84046 0.57485 0.93001 0.0
C205 C 0.6571 0.60292 0.93731 0.0
O206 O 0.76375 0.63869 0.91824 0.0
O207 O 0.72241 0.70803 0.9206 0.0
O208 O 0.76933 0.58878 0.95139 0.0
O209 O 0.7546 0.66102 0.94432 0.0
Co210 Co 0.39394 0.26573 0.18514 0.0
O211 O 0.38407 0.33412 0.18409 0.0
O212 O 0.45162 0.29668 0.17906 0.0
C213 C 0.36418 0.25578 0.20372 0.0
O214 O 0.41717 0.19578 0.1854 0.0
Co215 Co 0.30588 0.19727 0.18742 0.0
O216 O 0.35592 0.14985 0.19207 0.0
C217 C 0.32917 0.23998 0.16392 0.0
C218 C 0.42788 0.33686 0.18012 0.0
C219 C 0.40011 0.15546 0.18929 0.0
O220 O 0.3679 0.25798 0.16839 0.0
O221 O 0.29809 0.21684 0.17016 0.0
O222 O 0.40818 0.27048 0.2022 0.0
O223 O 0.33835 0.25287 0.19409 0.0
C224 C 0.89075 0.98089 0.31845 0.0
C225 C 0.87815 0.95718 0.30781 0.0
C226 C 0.93724 1.00039 0.31992 0.0
C227 C 0.97091 0.99749 0.31036 0.0
C228 C 0.95763 0.97436 0.29952 0.0
C229 C 0.91177 0.95375 0.29848 0.0
C230 C 0.95057 0.02349 0.33173 0.0
C231 C 0.99165 0.97185 0.28895 0.0
C232 C 0.07263 0.08746 0.30693 0.0
C233 C 0.11324 0.05933 0.3096 0.0
C234 C 0.02596 0.06843 0.3077 0.0
C235 C 0.01947 0.02008 0.31135 0.0
C236 C 0.06011 0.99216 0.31466 0.0
C237 C 0.10661 0.01205 0.3137 0.0
C238 C 0.98382 0.09936 0.30395 0.0
C239 C 0.05459 0.94066 0.31876 0.0
H240 H 0.86481 0.98287 0.32571 0.0
H241 H 0.90179 0.93547 0.29024 0.0
H242 H 0.9829 0.00558 0.33551 0.0
H243 H 0.95995 0.06188 0.33031 0.0
H244 H 0.92092 0.02135 0.33841 0.0
H245 H 0.97533 0.95346 0.28108 0.0
H246 H 0.00245 0.00872 0.28621 0.0
H247 H 0.02491 0.9523 0.29152 0.0
H248 H 0.0773 0.12416 0.30383 0.0
H249 H 0.13775 0.99018 0.31585 0.0
H250 H 0.95546 0.09896 0.31096 0.0
H251 H 0.96766 0.08456 0.29562 0.0
H252 H 0.99452 0.1373 0.30226 0.0
H253 H 0.02621 0.93794 0.32574 0.0
H254 H 0.08871 0.92581 0.32242 0.0
H255 H 0.04316 0.91795 0.31107 0.0
C256 C 0.93886 0.5827 0.55124 0.0
C257 C 0.95435 0.62111 0.55844 0.0
C258 C 0.95989 0.53701 0.55217 0.0
C259 C 0.99656 0.52895 0.56076 0.0
C260 C 0.01149 0.56726 0.56832 0.0
C261 C 0.9907 0.61322 0.56694 0.0
C262 C 0.94382 0.49775 0.54367 0.0
C263 C 0.04962 0.55973 0.57779 0.0
C264 C 0.02116 0.396 0.56659 0.0
C265 C 0.06122 0.38793 0.5592 0.0
C266 C 1.00127 0.44242 0.56776 0.0
C267 C 0.02117 0.48124 0.56113 0.0
C268 C 0.0622 0.4733 0.55386 0.0
C269 C 0.08198 0.42697 0.5531 0.0
C270 C 0.95822 0.44971 0.57583 0.0
C271 C 0.0839 0.51323 0.54639 0.0
H272 H 0.91099 0.5887 0.54459 0.0
H273 H 0.00244 0.64275 0.57259 0.0
H274 H 0.97477 0.48562 0.53813 0.0
H275 H 0.93081 0.46612 0.54881 0.0
H276 H 0.9146 0.50983 0.53756 0.0
H277 H 0.05427 0.59187 0.58361 0.0
H278 H 0.04012 0.52841 0.58351 0.0
H279 H 0.08461 0.55149 0.57345 0.0
H280 H 0.00525 0.36605 0.57141 0.0
H281 H 0.11287 0.42103 0.54733 0.0
H282 H 0.92591 0.45744 0.5703 0.0
H283 H 0.96407 0.48117 0.5818 0.0
H284 H 0.95071 0.41754 0.58146 0.0
H285 H 0.05734 0.52551 0.53961 0.0
H286 H 0.11713 0.50167 0.54164 0.0
H287 H 0.09272 0.54462 0.55213 0.0
C288 C 0.60881 0.52243 0.81619 0.0
C289 C 0.61732 0.56181 0.80861 0.0
C290 C 0.56247 0.50226 0.81718 0.0
C291 C 0.52426 0.52119 0.81018 0.0
C292 C 0.53265 0.56142 0.80267 0.0
C293 C 0.57889 0.58153 0.80209 0.0
C294 C 0.55462 0.46008 0.82549 0.0
C295 C 0.4933 0.58204 0.79484 0.0
C296 C 0.42292 0.43815 0.80061 0.0
C297 C 0.38435 0.45469 0.80761 0.0
C298 C 0.46871 0.45904 0.80151 0.0
C299 C 0.47655 0.49669 0.80985 0.0
C300 C 0.43809 0.51265 0.81722 0.0
C301 C 0.39214 0.49188 0.81589 0.0
C302 C 0.50831 0.44176 0.79326 0.0
C303 C 0.44539 0.55195 0.8264 0.0
H304 H 0.63834 0.50737 0.82132 0.0
H305 H 0.58526 0.61187 0.79617 0.0
H306 H 0.52298 0.46673 0.83135 0.0
H307 H 0.54683 0.42728 0.82016 0.0
H308 H 0.58653 0.45293 0.83124 0.0
H309 H 0.50528 0.61449 0.78983 0.0
H310 H 0.48135 0.5545 0.78826 0.0
H311 H 0.46156 0.59178 0.80038 0.0
H312 H 0.41701 0.40957 0.79414 0.0
H313 H 0.36247 0.50443 0.82139 0.0
H314 H 0.53974 0.42953 0.79859 0.0
H315 H 0.52068 0.47189 0.78748 0.0
H316 H 0.49643 0.41169 0.78739 0.0
H317 H 0.47644 0.54312 0.83227 0.0
H318 H 0.41302 0.55744 0.8321 0.0
H319 H 0.45393 0.58633 0.8218 0.0
C320 C 0.42339 0.07679 0.05237 0.0
C321 C 0.44551 0.11592 0.05812 0.0
C322 C 0.44291 0.03036 0.05305 0.0
C323 C 0.48515 0.0225 0.05987 0.0
C324 C 0.50661 0.06146 0.06613 0.0
C325 C 0.48685 0.10794 0.06506 0.0
C326 C 0.41949 0.99019 0.04601 0.0
C327 C 0.5511 0.05424 0.0737 0.0
C328 C 0.51528 0.89087 0.06605 0.0
C329 C 0.55017 0.88199 0.05723 0.0
C330 C 0.49509 0.93708 0.06738 0.0
C331 C 0.50908 0.97453 0.05945 0.0
C332 C 0.54412 0.96539 0.0505 0.0
C333 C 0.56469 0.9195 0.04963 0.0
C334 C 0.45875 0.94584 0.07722 0.0
C335 C 0.55901 0.00374 0.04162 0.0
H336 H 0.39148 0.08267 0.04696 0.0
H337 H 0.50382 0.13799 0.0696 0.0
H338 H 0.4447 0.97713 0.03899 0.0
H339 H 0.41133 0.9593 0.05198 0.0
H340 H 0.38559 0.00182 0.04158 0.0
H341 H 0.56014 0.08674 0.07905 0.0
H342 H 0.54601 0.02335 0.07989 0.0
H343 H 0.58218 0.04558 0.06782 0.0
H344 H 0.50442 0.86198 0.07201 0.0
H345 H 0.59147 0.91261 0.04276 0.0
H346 H 0.42321 0.95458 0.07323 0.0
H347 H 0.46985 0.97723 0.08273 0.0
H348 H 0.45447 0.91409 0.08319 0.0
H349 H 0.52718 0.01585 0.03641 0.0
H350 H 0.58685 0.99077 0.03523 0.0
H351 H 0.57339 0.03559 0.04643 0.0
C352 C 0.08292 0.42781 0.93442 0.0
C353 C 0.12163 0.44612 0.92774 0.0
C354 C 0.03681 0.44799 0.93357 0.0
C355 C 0.02867 0.48676 0.92558 0.0
C356 C 0.06716 0.50417 0.91841 0.0
C357 C 0.11348 0.48411 0.91971 0.0
C358 C 0.99732 0.42914 0.94165 0.0
C359 C 0.05958 0.54461 0.90957 0.0
C360 C 0.89598 0.51495 0.92015 0.0
C361 C 0.88867 0.5533 0.92813 0.0
C362 C 0.94203 0.49437 0.91873 0.0
C363 C 0.98111 0.5117 0.9257 0.0
C364 C 0.97379 0.55073 0.93366 0.0
C365 C 0.92792 0.57135 0.93465 0.0
C366 C 0.94872 0.45361 0.90993 0.0
C367 C 0.01395 0.56954 0.94153 0.0
H368 H 0.08902 0.39858 0.94069 0.0
H369 H 0.14321 0.49804 0.91444 0.0
H370 H 0.98545 0.45803 0.94787 0.0
H371 H 0.96558 0.41836 0.93624 0.0
H372 H 0.00915 0.39772 0.94707 0.0
H373 H 0.09143 0.55013 0.90368 0.0
H374 H 0.0277 0.53711 0.90386 0.0
H375 H 0.05235 0.57859 0.91447 0.0
H376 H 0.86583 0.50118 0.91501 0.0
H377 H 0.9225 0.60084 0.94088 0.0
H378 H 0.95645 0.4198 0.91486 0.0
H379 H 0.98004 0.46091 0.90401 0.0
H380 H 0.91631 0.44788 0.90426 0.0
H381 H 0.02642 0.54061 0.94766 0.0
H382 H 0.00259 0.6009 0.94703 0.0
H383 H 0.04518 0.58041 0.93595 0.0
C384 C 0.422 0.42042 0.17224 0.0
C385 C 0.44972 0.38414 0.17757 0.0
C386 C 0.43998 0.46741 0.17102 0.0
C387 C 0.48598 0.47875 0.17571 0.0
C388 C 0.5146 0.44179 0.18085 0.0
C389 C 0.4964 0.39463 0.18152 0.0
C390 C 0.40906 0.50525 0.16509 0.0
C391 C 0.56327 0.4526 0.18626 0.0
C392 C 0.55125 0.59554 0.1682 0.0
C393 C 0.53871 0.6243 0.17802 0.0
C394 C 0.53276 0.54862 0.16703 0.0
C395 C 0.50255 0.52977 0.17616 0.0
C396 C 0.48941 0.55926 0.18602 0.0
C397 C 0.5073 0.60644 0.18676 0.0
C398 C 0.54644 0.51891 0.15621 0.0
C399 C 0.45812 0.54034 0.19607 0.0
H400 H 0.38594 0.4121 0.16913 0.0
H401 H 0.51756 0.36659 0.18576 0.0
H402 H 0.39632 0.53135 0.17192 0.0
H403 H 0.43037 0.52567 0.15837 0.0
H404 H 0.37714 0.48938 0.16056 0.0
H405 H 0.58179 0.41958 0.18948 0.0
H406 H 0.58669 0.47076 0.17959 0.0
H407 H 0.55888 0.47761 0.19395 0.0
H408 H 0.57605 0.60953 0.16153 0.0
H409 H 0.49847 0.62871 0.19445 0.0
H410 H 0.51376 0.5033 0.152 0.0
H411 H 0.56966 0.48846 0.15903 0.0
H412 H 0.56614 0.5404 0.14938 0.0
H413 H 0.42309 0.52781 0.19246 0.0
H414 H 0.45114 0.56795 0.20307 0.0
H415 H 0.47582 0.50889 0.20035 0.0
C416 C 0.42302 0.07492 0.43578 0.0
C417 C 0.38462 0.05634 0.42903 0.0
C418 C 0.46927 0.05497 0.435 0.0
C419 C 0.4778 0.01612 0.42706 0.0
C420 C 0.43957 0.99831 0.41988 0.0
C421 C 0.39316 0.01821 0.42107 0.0
C422 C 0.50853 0.07426 0.44307 0.0
C423 C 0.44753 0.95767 0.41111 0.0
C424 C 0.61033 0.98838 0.42126 0.0
C425 C 0.61808 0.94992 0.42917 0.0
C426 C 0.56425 0.00907 0.42004 0.0
C427 C 0.5256 0.99168 0.42716 0.0
C428 C 0.53341 0.9527 0.4351 0.0
C429 C 0.5793 0.932 0.43589 0.0
C430 C 0.55702 0.04985 0.41128 0.0
C431 C 0.49367 0.93383 0.4431 0.0
H432 H 0.4166 0.10426 0.44199 0.0
H433 H 0.36367 0.00406 0.41576 0.0
H434 H 0.52058 0.04556 0.44932 0.0
H435 H 0.54024 0.08518 0.43767 0.0
H436 H 0.49641 0.10567 0.44846 0.0
H437 H 0.41563 0.95144 0.40529 0.0
H438 H 0.47914 0.96547 0.40532 0.0
H439 H 0.45543 0.92398 0.41607 0.0
H440 H 0.64013 0.00205 0.41597 0.0
H441 H 0.5851 0.90244 0.44208 0.0
H442 H 0.54849 0.08343 0.41622 0.0
H443 H 0.52599 0.04201 0.40531 0.0
H444 H 0.58943 0.05628 0.40565 0.0
H445 H 0.48113 0.96284 0.4492 0.0
H446 H 0.50549 0.90274 0.44864 0.0
H447 H 0.46237 0.9225 0.4376 0.0
C448 C 0.07406 0.07802 0.68583 0.0
C449 C 0.05568 0.1167 0.67917 0.0
C450 C 0.05359 0.03201 0.68504 0.0
C451 C 0.01442 0.02408 0.67715 0.0
C452 C 0.99678 0.0626 0.67005 0.0
C453 C 0.01721 0.10873 0.67127 0.0
C454 C 0.07272 0.99235 0.693 0.0
C455 C 0.9558 0.05525 0.66134 0.0
C456 C 0.98634 0.89205 0.67105 0.0
C457 C 0.94815 0.88394 0.67903 0.0
C458 C 0.00693 0.93815 0.6699 0.0
C459 C 0.98976 0.97645 0.67714 0.0
C460 C 0.95091 0.96835 0.68512 0.0
C461 C 0.93025 0.92242 0.68585 0.0
C462 C 0.04752 0.94572 0.66108 0.0
C463 C 0.93225 0.00776 0.69324 0.0
H464 H 0.10366 0.08403 0.692 0.0
H465 H 0.00321 0.13847 0.66602 0.0
H466 H 0.044 0.98013 0.69923 0.0
H467 H 0.0835 0.96086 0.6875 0.0
H468 H 0.10423 0.00411 0.6984 0.0
H469 H 0.94955 0.08743 0.65563 0.0
H470 H 0.96326 0.02388 0.65545 0.0
H471 H 0.92221 0.04725 0.66635 0.0
H472 H 0.99996 0.86246 0.66569 0.0
H473 H 0.90088 0.9163 0.69208 0.0
H474 H 0.08132 0.95363 0.666 0.0
H475 H 0.03977 0.97722 0.65526 0.0
H476 H 0.05353 0.91368 0.6553 0.0
H477 H 0.96134 0.0198 0.69938 0.0
H478 H 0.90107 0.99583 0.69874 0.0
H479 H 0.92114 0.03942 0.68784 0.0
C480 C 0.60258 0.97398 0.30545 0.0
C481 C 0.60421 0.92884 0.29981 0.0
C482 C 0.55994 1.00138 0.30555 0.0
C483 C 0.51811 0.98346 0.29977 0.0
C484 C 0.51974 0.93824 0.29395 0.0
C485 C 0.56257 0.9115 0.29408 0.0
C486 C 0.55952 0.04942 0.31189 0.0
C487 C 0.47624 0.91812 0.28753 0.0
C488 C 0.39469 0.03344 0.30812 0.0
C489 C 0.38764 0.06796 0.29911 0.0
C490 C 0.43723 0.00595 0.30852 0.0
C491 C 0.47288 0.01239 0.29954 0.0
C492 C 0.46507 0.04611 0.29021 0.0
C493 C 0.42285 0.07385 0.2902 0.0
C494 C 0.44452 0.9708 0.3187 0.0
C495 C 0.50146 0.05316 0.28028 0.0
H496 H 0.63442 0.98766 0.30993 0.0
H497 H 0.56337 0.87686 0.2896 0.0
H498 H 0.55079 0.07846 0.30541 0.0
H499 H 0.53109 0.04969 0.31889 0.0
H500 H 0.59465 0.05782 0.31617 0.0
H501 H 0.48349 0.88245 0.2834 0.0
H502 H 0.44579 0.91428 0.29391 0.0
H503 H 0.46453 0.94334 0.28038 0.0
H504 H 0.36776 0.02918 0.31509 0.0
H505 H 0.41732 0.1003 0.28317 0.0
H506 H 0.47753 0.98041 0.32378 0.0
H507 H 0.44986 0.93396 0.31509 0.0
H508 H 0.41354 0.97024 0.32501 0.0
H509 H 0.53613 0.06573 0.28411 0.0
H510 H 0.48921 0.07973 0.27348 0.0
H511 H 0.50854 0.0184 0.2757 0.0
C512 C 0.97456 0.89816 0.55655 0.0
C513 C 0.93 0.89654 0.55062 0.0
C514 C 0.00196 0.94082 0.55682 0.0
C515 C 0.98464 0.98263 0.55092 0.0
C516 C 0.93996 0.98104 0.54486 0.0
C517 C 0.91321 0.93822 0.54481 0.0
C518 C 0.0494 0.94123 0.56343 0.0
C519 C 0.9205 0.02451 0.5383 0.0
C520 C 0.0347 0.10632 0.55902 0.0
C521 C 0.06954 0.11284 0.55006 0.0
C522 C 0.00714 0.06382 0.55952 0.0
C523 C 0.01392 0.02763 0.55069 0.0
C524 C 0.04809 0.03482 0.54143 0.0
C525 C 0.07576 0.07706 0.5413 0.0
C526 C 0.9714 0.05722 0.5696 0.0
C527 C 0.0556 0.99781 0.53167 0.0
H528 H 0.98776 0.86631 0.5611 0.0
H529 H 0.87903 0.93743 0.54012 0.0
H530 H 0.0791 0.94942 0.55709 0.0
H531 H 0.04927 0.97 0.57034 0.0
H532 H 0.05713 0.90627 0.56787 0.0
H533 H 0.88494 0.01745 0.53409 0.0
H534 H 0.91669 0.0552 0.5446 0.0
H535 H 0.94615 0.03575 0.53119 0.0
H536 H 0.03013 0.1337 0.56586 0.0
H537 H 0.10242 0.08215 0.5343 0.0
H538 H 0.98048 0.02439 0.57481 0.0
H539 H 0.93471 0.05197 0.56589 0.0
H540 H 0.97074 0.08848 0.57582 0.0
H541 H 0.06748 0.96324 0.53568 0.0
H542 H 0.08286 0.00941 0.52496 0.0
H543 H 0.02114 0.99084 0.52693 0.0
C544 C 0.06948 0.41777 0.8113 0.0
C545 C 0.10886 0.43317 0.80443 0.0
C546 C 0.02714 0.44521 0.81191 0.0
C547 C 0.02351 0.48814 0.80512 0.0
C548 C 0.0633 0.50382 0.79816 0.0
C549 C 0.10592 0.4765 0.79807 0.0
C550 C 0.98626 0.42815 0.81978 0.0
C551 C 0.06037 0.54869 0.79054 0.0
C552 C 0.89784 0.5329 0.79724 0.0
C553 C 0.89333 0.57246 0.80493 0.0
C554 C 0.94018 0.50515 0.79717 0.0
C555 C 0.97798 0.51648 0.80526 0.0
C556 C 0.97252 0.55537 0.81337 0.0
C557 C 0.93059 0.58349 0.81293 0.0
C558 C 0.94515 0.46481 0.78817 0.0
C559 C 0.01116 0.56761 0.8224 0.0
H560 H 0.07198 0.38426 0.81626 0.0
H561 H 0.13626 0.48798 0.79264 0.0
H562 H 0.97556 0.4571 0.82611 0.0
H563 H 0.95435 0.41969 0.81418 0.0
H564 H 0.99595 0.39558 0.82504 0.0
H565 H 0.09413 0.55543 0.78545 0.0
H566 H 0.03017 0.54541 0.78406 0.0
H567 H 0.05283 0.58045 0.79627 0.0
H568 H 0.86914 0.525 0.79094 0.0
H569 H 0.92686 0.61425 0.81886 0.0
H570 H 0.95175 0.43024 0.79287 0.0
H571 H 0.97668 0.47164 0.78228 0.0
H572 H 0.9126 0.46084 0.78245 0.0
H573 H 0.02059 0.53526 0.82775 0.0
H574 H 0.99982 0.59671 0.82864 0.0
H575 H 0.0443 0.57937 0.81768 0.0
C576 C 0.59001 0.56651 0.04388 0.0
C577 C 0.5747 0.60695 0.05043 0.0
C578 C 0.56304 0.52383 0.04377 0.0
C579 C 0.51987 0.52113 0.05047 0.0
C580 C 0.50405 0.56178 0.05709 0.0
C581 C 0.53147 0.60438 0.05691 0.0
C582 C 0.5807 0.48169 0.03641 0.0
C583 C 0.45833 0.56011 0.06441 0.0
C584 C 0.42611 0.42815 0.04164 0.0
C585 C 0.43466 0.39121 0.04996 0.0
C586 C 0.45396 0.47026 0.04162 0.0
C587 C 0.49072 0.47609 0.05029 0.0
C588 C 0.49988 0.43873 0.05866 0.0
C589 C 0.47204 0.39641 0.05831 0.0
C590 C 0.44385 0.50862 0.03234 0.0
C591 C 0.53844 0.44388 0.06813 0.0
H592 H 0.62313 0.56826 0.03875 0.0
H593 H 0.51954 0.63534 0.06203 0.0
H594 H 0.58659 0.45002 0.04229 0.0
H595 H 0.55304 0.47139 0.02969 0.0
H596 H 0.61484 0.48978 0.03161 0.0
H597 H 0.45157 0.59436 0.06928 0.0
H598 H 0.42713 0.55261 0.05848 0.0
H599 H 0.46035 0.53038 0.07105 0.0
H600 H 0.39751 0.42407 0.03509 0.0
H601 H 0.47849 0.36809 0.06481 0.0
H602 H 0.477 0.51651 0.02713 0.0
H603 H 0.43288 0.5425 0.03684 0.0
H604 H 0.41497 0.49784 0.02598 0.0
H605 H 0.57397 0.44975 0.06382 0.0
H606 H 0.54086 0.41171 0.07403 0.0
H607 H 0.53089 0.47588 0.07379 0.0
C608 C 0.43475 0.42231 0.9451 0.0
C609 C 0.39679 0.43275 0.93718 0.0
C610 C 0.47724 0.4496 0.94509 0.0
C611 C 0.48237 0.48803 0.93685 0.0
C612 C 0.44408 0.4991 0.92889 0.0
C613 C 0.4015 0.47157 0.92922 0.0
C614 C 0.51667 0.43723 0.95391 0.0
C615 C 0.44837 0.53963 0.91992 0.0
C616 C 0.57344 0.58552 0.94436 0.0
C617 C 0.61338 0.57207 0.93737 0.0
C618 C 0.5307 0.55862 0.94423 0.0
C619 C 0.5274 0.51732 0.93684 0.0
C620 C 0.56758 0.5033 0.9298 0.0
C621 C 0.61026 0.53066 0.93021 0.0
C622 C 0.48911 0.57435 0.95205 0.0
C623 C 0.56532 0.45957 0.92177 0.0
H624 H 0.43121 0.39264 0.95136 0.0
H625 H 0.37247 0.47959 0.92303 0.0
H626 H 0.55014 0.42782 0.949 0.0
H627 H 0.52489 0.46891 0.95962 0.0
H628 H 0.50676 0.40658 0.95983 0.0
H629 H 0.4157 0.54319 0.91423 0.0
H630 H 0.45448 0.57418 0.92468 0.0
H631 H 0.47995 0.53346 0.91401 0.0
H632 H 0.57557 0.61721 0.95001 0.0
H633 H 0.64079 0.52017 0.92474 0.0
H634 H 0.47946 0.54515 0.95841 0.0
H635 H 0.45693 0.58148 0.94642 0.0
H636 H 0.4975 0.60734 0.95729 0.0
H637 H 0.55825 0.42693 0.92723 0.0
H638 H 0.59919 0.4541 0.91664 0.0
H639 H 0.53507 0.46326 0.91533 0.0
C640 C 0.58218 0.93311 0.19716 0.0
C641 C 0.56778 0.89434 0.1899 0.0
C642 C 0.55581 0.97616 0.19747 0.0
C643 C 0.51424 0.98094 0.19022 0.0
C644 C 0.49913 0.9418 0.18297 0.0
C645 C 0.52588 0.89881 0.18297 0.0
C646 C 0.57262 0.01665 0.20549 0.0
C647 C 0.45514 0.94565 0.17507 0.0
C648 C 0.42051 0.07539 0.1981 0.0
C649 C 0.43179 0.11266 0.19007 0.0
C650 C 0.44756 0.03277 0.19839 0.0
C651 C 0.48641 0.02681 0.1903 0.0
C652 C 0.49849 0.06459 0.18229 0.0
C653 C 0.4713 0.10731 0.18235 0.0
C654 C 0.43417 0.99387 0.20727 0.0
C655 C 0.53942 0.0594 0.17346 0.0
H656 H 0.61426 0.92983 0.20265 0.0
H657 H 0.51465 0.86915 0.17729 0.0
H658 H 0.58135 0.04879 0.2 0.0
H659 H 0.54341 0.02711 0.21178 0.0
H660 H 0.60494 0.00669 0.21082 0.0
H661 H 0.4483 0.9121 0.16991 0.0
H662 H 0.42294 0.95372 0.18061 0.0
H663 H 0.45963 0.97586 0.16864 0.0
H664 H 0.39026 0.07951 0.20418 0.0
H665 H 0.47996 0.13584 0.17606 0.0
H666 H 0.46582 0.98435 0.21287 0.0
H667 H 0.42313 0.96084 0.20239 0.0
H668 H 0.40426 0.00497 0.21329 0.0
H669 H 0.57349 0.05188 0.1783 0.0
H670 H 0.54442 0.09218 0.16788 0.0
H671 H 0.53248 0.02836 0.16742 0.0
C672 C 0.89367 0.97449 0.43109 0.0
C673 C 0.89425 0.92777 0.43588 0.0
C674 C 0.93582 0.00267 0.43077 0.0
C675 C 0.97943 0.98383 0.43543 0.0
C676 C 0.98017 0.93685 0.4403 0.0
C677 C 0.93776 0.90946 0.44045 0.0
C678 C 0.93373 0.0526 0.42545 0.0
C679 C 0.02571 0.91558 0.44549 0.0
C680 C 0.1005 0.038 0.4266 0.0
C681 C 0.10935 0.069 0.43627 0.0
C682 C 0.05782 0.01076 0.42607 0.0
C683 C 0.02409 0.01362 0.43561 0.0
C684 C 0.03368 0.04396 0.44554 0.0
C685 C 0.07584 0.07178 0.44566 0.0
C686 C 0.04845 0.9795 0.41523 0.0
C687 C 0.99947 0.04697 0.45606 0.0
H688 H 0.8604 0.98897 0.42751 0.0
H689 H 0.93882 0.87354 0.44423 0.0
H690 H 0.94327 0.07964 0.43238 0.0
H691 H 0.96052 0.05597 0.4181 0.0
H692 H 0.8975 0.06141 0.42184 0.0
H693 H 0.02031 0.87836 0.44889 0.0
H694 H 0.05444 0.91491 0.43858 0.0
H695 H 0.03882 0.93835 0.453 0.0
H696 H 0.12615 0.03633 0.41927 0.0
H697 H 0.08285 0.09561 0.45317 0.0
H698 H 0.01393 0.99007 0.41096 0.0
H699 H 0.04489 0.94132 0.41801 0.0
H700 H 0.07763 0.98222 0.40843 0.0
H701 H 0.9637 0.05976 0.45299 0.0
H702 H 0.01271 0.07162 0.46319 0.0
H703 H 0.99423 0.01069 0.46003 0.0
C704 C 0.03641 0.40108 0.69249 0.0
C705 C 0.07033 0.39216 0.68349 0.0
C706 C 0.00949 0.44391 0.69251 0.0
C707 C 0.01597 0.47778 0.68311 0.0
C708 C 0.04942 0.46804 0.67382 0.0
C709 C 0.07683 0.42562 0.67423 0.0
C710 C 0.97497 0.45345 0.70271 0.0
C711 C 0.05641 0.50248 0.66347 0.0
C712 C 0.91336 0.56571 0.6781 0.0
C713 C 0.93136 0.60787 0.68336 0.0
C714 C 0.94106 0.52356 0.67766 0.0
C715 C 0.98739 0.52313 0.68294 0.0
C716 C 0.00594 0.56577 0.68821 0.0
C717 C 0.9779 0.60796 0.6882 0.0
C718 C 0.92054 0.47937 0.67164 0.0
C719 C 0.05474 0.56641 0.69417 0.0
H720 H 0.03221 0.37533 0.69974 0.0
H721 H 0.10346 0.41853 0.66733 0.0
H722 H 0.98475 0.48761 0.70727 0.0
H723 H 0.93786 0.45778 0.69919 0.0
H724 H 0.97496 0.424 0.70946 0.0
H725 H 0.08231 0.48854 0.65671 0.0
H726 H 0.02143 0.50936 0.65897 0.0
H727 H 0.06985 0.53755 0.66685 0.0
H728 H 0.87744 0.56576 0.67428 0.0
H729 H 0.9916 0.64045 0.69237 0.0
H730 H 0.91581 0.4502 0.67833 0.0
H731 H 0.94589 0.46593 0.6647 0.0
H732 H 0.88519 0.48654 0.66732 0.0
H733 H 0.05545 0.53986 0.70162 0.0
H734 H 0.06399 0.60244 0.69784 0.0
H735 H 0.08299 0.55564 0.68767 0.0
C736 C 0.28696 0.21839 0.34258 0.0
C737 C 0.25599 0.1861 0.33671 0.0
C738 C 0.28601 0.22333 0.35512 0.0
C739 C 0.2531 0.19556 0.36192 0.0
C740 C 0.22023 0.16466 0.356 0.0
C741 C 0.22219 0.16017 0.34348 0.0
C742 C 0.32161 0.25661 0.36113 0.0
C743 C 0.18419 0.13486 0.36294 0.0
C744 C 0.28097 0.15715 0.39376 0.0
C745 C 0.25001 0.18676 0.40045 0.0
C746 C 0.28392 0.16123 0.38124 0.0
C747 C 0.25517 0.19572 0.37524 0.0
C748 C 0.22572 0.2274 0.38195 0.0
C749 C 0.22352 0.22259 0.39449 0.0
C750 C 0.31617 0.12708 0.3744 0.0
C751 C 0.19476 0.26477 0.37585 0.0
H752 H 0.31322 0.23857 0.33742 0.0
H753 H 0.19774 0.13555 0.33902 0.0
H754 H 0.30298 0.28056 0.3676 0.0
H755 H 0.34815 0.23506 0.36628 0.0
H756 H 0.34145 0.27919 0.35454 0.0
H757 H 0.15887 0.11532 0.35695 0.0
H758 H 0.20346 0.1081 0.36856 0.0
H759 H 0.16302 0.15814 0.36908 0.0
H760 H 0.30203 0.1297 0.39827 0.0
H761 H 0.19961 0.24579 0.39956 0.0
H762 H 0.33982 0.14736 0.36816 0.0
H763 H 0.29382 0.10241 0.36889 0.0
H764 H 0.33911 0.10507 0.38045 0.0
H765 H 0.21633 0.28584 0.36932 0.0
H766 H 0.17807 0.29 0.38238 0.0
H767 H 0.16562 0.24663 0.37076 0.0
C768 C 0.78328 0.78067 0.59252 0.0
C769 C 0.81935 0.75395 0.58671 0.0
C770 C 0.77841 0.77954 0.60506 0.0
C771 C 0.81014 0.75079 0.61194 0.0
C772 C 0.84513 0.72205 0.6061 0.0
C773 C 0.8494 0.72408 0.59356 0.0
C774 C 0.74067 0.81065 0.61098 0.0
C775 C 0.87925 0.69043 0.61312 0.0
C776 C 0.84274 0.7835 0.64394 0.0
C777 C 0.81624 0.74954 0.65052 0.0
C778 C 0.83932 0.78572 0.63139 0.0
C779 C 0.80908 0.75284 0.62526 0.0
C780 C 0.78067 0.71987 0.63187 0.0
C781 C 0.78439 0.71877 0.64443 0.0
C782 C 0.86963 0.82194 0.62466 0.0
C783 C 0.74816 0.68414 0.62564 0.0
H784 H 0.75985 0.80387 0.58732 0.0
H785 H 0.87708 0.70294 0.58917 0.0
H786 H 0.71879 0.78904 0.61734 0.0
H787 H 0.7585 0.83947 0.61626 0.0
H788 H 0.71619 0.82771 0.60434 0.0
H789 H 0.9021 0.66778 0.60719 0.0
H790 H 0.90313 0.71318 0.61875 0.0
H791 H 0.8588 0.66653 0.61926 0.0
H792 H 0.86707 0.80772 0.64857 0.0
H793 H 0.76387 0.69231 0.64944 0.0
H794 H 0.84694 0.84278 0.61832 0.0
H795 H 0.89729 0.80286 0.61927 0.0
H796 H 0.88815 0.84751 0.63079 0.0
H797 H 0.72471 0.70269 0.61904 0.0
H798 H 0.72506 0.66411 0.63208 0.0
H799 H 0.77038 0.65781 0.6206 0.0
C800 C 0.23387 0.28121 0.84228 0.0
C801 C 0.25744 0.31933 0.83643 0.0
C802 C 0.2364 0.27598 0.8548 0.0
C803 C 0.26327 0.30953 0.86161 0.0
C804 C 0.28926 0.34646 0.85572 0.0
C805 C 0.28598 0.35097 0.84321 0.0
C806 C 0.20834 0.23604 0.86078 0.0
C807 C 0.31881 0.38263 0.86267 0.0
C808 C 0.22752 0.34042 0.89351 0.0
C809 C 0.26291 0.31637 0.90019 0.0
C810 C 0.22605 0.33673 0.88097 0.0
C811 C 0.26116 0.30876 0.87494 0.0
C812 C 0.29584 0.28288 0.88164 0.0
C813 C 0.29615 0.28678 0.89421 0.0
C814 C 0.18798 0.36426 0.87413 0.0
C815 C 0.33394 0.25286 0.87552 0.0
H816 H 0.21185 0.25644 0.83715 0.0
H817 H 0.30476 0.38024 0.83878 0.0
H818 H 0.23145 0.21628 0.86723 0.0
H819 H 0.17796 0.25167 0.86595 0.0
H820 H 0.19353 0.20999 0.85417 0.0
H821 H 0.34012 0.40654 0.85669 0.0
H822 H 0.29463 0.40532 0.86823 0.0
H823 H 0.34383 0.36389 0.86887 0.0
H824 H 0.2014 0.36294 0.89807 0.0
H825 H 0.32372 0.26821 0.89931 0.0
H826 H 0.16867 0.33991 0.86787 0.0
H827 H 0.20527 0.39279 0.86865 0.0
H828 H 0.16121 0.38141 0.88019 0.0
H829 H 0.31726 0.22801 0.86893 0.0
H830 H 0.35538 0.23141 0.88202 0.0
H831 H 0.35879 0.27676 0.87048 0.0
C832 C 0.71733 0.73037 0.09344 0.0
C833 C 0.67935 0.75245 0.0872 0.0
C834 C 0.72016 0.73279 0.10602 0.0
C835 C 0.68421 0.75792 0.11248 0.0
C836 C 0.64698 0.78196 0.10623 0.0
C837 C 0.645 0.77896 0.09368 0.0
C838 C 0.76052 0.7069 0.1124 0.0
C839 C 0.60817 0.80947 0.11281 0.0
C840 C 0.65227 0.72338 0.14443 0.0
C841 C 0.67464 0.76009 0.15102 0.0
C842 C 0.65686 0.72113 0.1319 0.0
C843 C 0.68369 0.75699 0.12582 0.0
C844 C 0.70731 0.79348 0.13244 0.0
C845 C 0.70284 0.79435 0.14499 0.0
C846 C 0.63184 0.68114 0.12515 0.0
C847 C 0.73569 0.83267 0.12625 0.0
H848 H 0.74416 0.70994 0.08854 0.0
H849 H 0.61567 0.79649 0.08898 0.0
H850 H 0.77894 0.73158 0.11874 0.0
H851 H 0.74553 0.67675 0.11777 0.0
H852 H 0.78762 0.69217 0.10605 0.0
H853 H 0.5836 0.82881 0.10659 0.0
H854 H 0.58645 0.78424 0.11833 0.0
H855 H 0.62457 0.83603 0.11903 0.0
H856 H 0.63084 0.69653 0.14906 0.0
H857 H 0.71997 0.82299 0.15005 0.0
H858 H 0.65771 0.6625 0.11915 0.0
H859 H 0.60303 0.69646 0.1194 0.0
H860 H 0.61545 0.65413 0.13128 0.0
H861 H 0.76263 0.81676 0.12006 0.0
H862 H 0.75464 0.85644 0.13274 0.0
H863 H 0.71105 0.85508 0.12075 0.0
C864 C 0.7807 0.72576 0.84332 0.0
C865 C 0.7522 0.69156 0.83734 0.0
C866 C 0.77948 0.72992 0.85587 0.0
C867 C 0.74883 0.69937 0.86258 0.0
C868 C 0.71794 0.6668 0.85656 0.0
C869 C 0.7201 0.66317 0.84401 0.0
C870 C 0.81287 0.76514 0.86198 0.0
C871 C 0.68423 0.63408 0.8634 0.0
C872 C 0.78238 0.66037 0.89406 0.0
C873 C 0.75073 0.68786 0.90109 0.0
C874 C 0.78343 0.66529 0.88154 0.0
C875 C 0.75185 0.69824 0.87589 0.0
C876 C 0.72123 0.72754 0.88294 0.0
C877 C 0.72115 0.72212 0.89547 0.0
C878 C 0.81711 0.63385 0.87432 0.0
C879 C 0.68706 0.76304 0.87722 0.0
H880 H 0.80558 0.74793 0.83825 0.0
H881 H 0.69754 0.63703 0.83948 0.0
H882 H 0.793 0.78681 0.86872 0.0
H883 H 0.84139 0.74507 0.86685 0.0
H884 H 0.8304 0.78994 0.85549 0.0
H885 H 0.65958 0.61395 0.85736 0.0
H886 H 0.70549 0.6077 0.86868 0.0
H887 H 0.6623 0.65522 0.86985 0.0
H888 H 0.80572 0.63417 0.89832 0.0
H889 H 0.69654 0.74352 0.90082 0.0
H890 H 0.83907 0.65622 0.86814 0.0
H891 H 0.79586 0.60854 0.86872 0.0
H892 H 0.84174 0.61257 0.88012 0.0
H893 H 0.70647 0.78631 0.87073 0.0
H894 H 0.66902 0.78631 0.88398 0.0
H895 H 0.65898 0.74326 0.87213 0.0
C896 C 0.2903 0.21311 0.14476 0.0
C897 C 0.32134 0.24472 0.15082 0.0
C898 C 0.28589 0.21465 0.13221 0.0
C899 C 0.31275 0.24893 0.12561 0.0
C900 C 0.34249 0.28228 0.13173 0.0
C901 C 0.34665 0.27958 0.14425 0.0
C902 C 0.25404 0.17834 0.12598 0.0
C903 C 0.3712 0.31983 0.12501 0.0
C904 C 0.35127 0.22344 0.09362 0.0
C905 C 0.32009 0.25314 0.08702 0.0
C906 C 0.34805 0.22048 0.10615 0.0
C907 C 0.31279 0.24787 0.11227 0.0
C908 C 0.27987 0.27634 0.10567 0.0
C909 C 0.28386 0.27862 0.09311 0.0
C910 C 0.38362 0.1894 0.11288 0.0
C911 C 0.24168 0.30589 0.1119 0.0
H912 H 0.27069 0.186 0.14977 0.0
H913 H 0.37026 0.30452 0.14889 0.0
H914 H 0.22916 0.1967 0.11967 0.0
H915 H 0.27659 0.15341 0.12059 0.0
H916 H 0.23247 0.15679 0.13244 0.0
H917 H 0.3897 0.34535 0.13115 0.0
H918 H 0.39876 0.30194 0.11934 0.0
H919 H 0.34734 0.34062 0.11893 0.0
H920 H 0.37914 0.20324 0.08903 0.0
H921 H 0.2595 0.30157 0.08811 0.0
H922 H 0.36436 0.16448 0.11901 0.0
H923 H 0.40724 0.21246 0.11849 0.0
H924 H 0.40668 0.16785 0.10675 0.0
H925 H 0.22088 0.28315 0.11824 0.0
H926 H 0.21628 0.32275 0.10544 0.0
H927 H 0.25905 0.33479 0.11724 0.0
C928 C 0.77772 0.85045 0.34327 0.0
C929 C 0.74705 0.8209 0.33649 0.0
C930 C 0.77984 0.84645 0.3558 0.0
C931 C 0.7503 0.81235 0.36173 0.0
C932 C 0.72057 0.78123 0.35493 0.0
C933 C 0.71945 0.78573 0.34239 0.0
C934 C 0.81252 0.87987 0.36274 0.0
C935 C 0.68848 0.74453 0.36095 0.0
C936 C 0.78171 0.78528 0.3942 0.0
C937 C 0.75166 0.81765 0.40033 0.0
C938 C 0.78069 0.78202 0.38162 0.0
C939 C 0.74854 0.81147 0.37506 0.0
C940 C 0.71649 0.84245 0.38122 0.0
C941 C 0.71859 0.84534 0.39378 0.0
C942 C 0.81552 0.7487 0.37535 0.0
C943 C 0.68116 0.87389 0.37453 0.0
H944 H 0.79951 0.87744 0.33879 0.0
H945 H 0.69557 0.76275 0.33725 0.0
H946 H 0.79053 0.90442 0.36838 0.0
H947 H 0.83601 0.85891 0.36887 0.0
H948 H 0.83563 0.902 0.35675 0.0
H949 H 0.67036 0.72058 0.35436 0.0
H950 H 0.70964 0.72202 0.36725 0.0
H951 H 0.66046 0.76328 0.36629 0.0
H952 H 0.80748 0.76383 0.39917 0.0
H953 H 0.69493 0.87011 0.39844 0.0
H954 H 0.84209 0.77025 0.3702 0.0
H955 H 0.79619 0.7255 0.36883 0.0
H956 H 0.83534 0.72533 0.38176 0.0
H957 H 0.70104 0.90089 0.36911 0.0
H958 H 0.6563 0.89324 0.38068 0.0
H959 H 0.65947 0.85186 0.36822 0.0
C960 C 0.22555 0.27165 0.64468 0.0
C961 C 0.18668 0.2489 0.65043 0.0
C962 C 0.23081 0.2697 0.63215 0.0
C963 C 0.19644 0.24437 0.62522 0.0
C964 C 0.15854 0.21937 0.631 0.0
C965 C 0.15412 0.22193 0.64352 0.0
C966 C 0.27185 0.29656 0.62629 0.0
C967 C 0.12138 0.19159 0.62392 0.0
C968 C 0.16716 0.2814 0.59333 0.0
C969 C 0.18977 0.24505 0.58665 0.0
C970 C 0.17104 0.28287 0.60587 0.0
C971 C 0.19768 0.24676 0.6119 0.0
C972 C 0.22225 0.21113 0.60519 0.0
C973 C 0.21823 0.21085 0.59263 0.0
C974 C 0.14494 0.32194 0.6127 0.0
C975 C 0.25081 0.17194 0.61132 0.0
H976 H 0.25107 0.29242 0.64991 0.0
H977 H 0.12419 0.20384 0.64785 0.0
H978 H 0.29107 0.27292 0.61985 0.0
H979 H 0.25741 0.3275 0.62112 0.0
H980 H 0.29815 0.31038 0.63297 0.0
H981 H 0.09633 0.17119 0.62981 0.0
H982 H 0.09995 0.21684 0.61834 0.0
H983 H 0.13927 0.16594 0.61772 0.0
H984 H 0.14553 0.30825 0.58876 0.0
H985 H 0.23568 0.18253 0.58754 0.0
H986 H 0.16988 0.34008 0.61903 0.0
H987 H 0.11551 0.30577 0.61811 0.0
H988 H 0.12914 0.3495 0.60664 0.0
H989 H 0.27604 0.18762 0.61797 0.0
H990 H 0.27169 0.14991 0.60482 0.0
H991 H 0.22593 0.14782 0.61628 0.0
C992 C 0.27762 0.12104 0.2633 0.0
C993 C 0.26401 0.1541 0.27217 0.0
C994 C 0.29416 0.13688 0.25206 0.0
C995 C 0.29601 0.18687 0.24962 0.0
C996 C 0.28162 0.22032 0.25851 0.0
C997 C 0.26631 0.2035 0.26974 0.0
C998 C 0.31021 0.10023 0.24288 0.0
C999 C 0.28233 0.27386 0.25614 0.0
C1000 C 0.37873 0.23296 0.22508 0.0
C1001 C 0.34661 0.23868 0.21547 0.0
C1002 C 0.36281 0.2156 0.23621 0.0
C1003 C 0.31351 0.20431 0.2378 0.0
C1004 C 0.28088 0.21024 0.22815 0.0
C1005 C 0.29792 0.22711 0.21706 0.0
C1006 C 0.39875 0.20914 0.24627 0.0
C1007 C 0.22797 0.19901 0.22956 0.0
H1008 H 0.27621 0.0828 0.26521 0.0
H1009 H 0.25554 0.22905 0.2766 0.0
H1010 H 0.2885 0.10389 0.23457 0.0
H1011 H 0.34835 0.10681 0.24039 0.0
H1012 H 0.3068 0.06271 0.24623 0.0
H1013 H 0.26852 0.29496 0.26389 0.0
H1014 H 0.31961 0.28579 0.25416 0.0
H1015 H 0.26008 0.28231 0.24814 0.0
H1016 H 0.41649 0.24158 0.22386 0.0
H1017 H 0.273 0.2315 0.20965 0.0
H1018 H 0.39838 0.17124 0.24942 0.0
H1019 H 0.38861 0.23206 0.25402 0.0
H1020 H 0.436 0.21856 0.24348 0.0
H1021 H 0.22316 0.1607 0.2321 0.0
H1022 H 0.2073 0.20598 0.22119 0.0
H1023 H 0.21245 0.22113 0.2369 0.0
C1024 C 0.78619 0.88457 0.47363 0.0
C1025 C 0.77168 0.85104 0.46495 0.0
C1026 C 0.80333 0.86941 0.48485 0.0
C1027 C 0.80502 0.81961 0.4875 0.0
C1028 C 0.79017 0.78562 0.47878 0.0
C1029 C 0.77412 0.80177 0.46754 0.0
C1030 C 0.81974 0.90663 0.49385 0.0
C1031 C 0.79079 0.73226 0.48137 0.0
C1032 C 0.88667 0.77606 0.51256 0.0
C1033 C 0.85409 0.77138 0.5221 0.0
C1034 C 0.87123 0.79198 0.50124 0.0
C1035 C 0.82201 0.80306 0.49945 0.0
C1036 C 0.78896 0.7983 0.50905 0.0
C1037 C 0.80547 0.78268 0.5203 0.0
C1038 C 0.90756 0.79709 0.49122 0.0
C1039 C 0.73614 0.80951 0.50744 0.0
H1040 H 0.78468 0.92271 0.47159 0.0
H1041 H 0.76272 0.77584 0.46085 0.0
H1042 H 0.79761 0.90414 0.50213 0.0
H1043 H 0.85765 0.89964 0.49647 0.0
H1044 H 0.81713 0.94388 0.49028 0.0
H1045 H 0.77758 0.71061 0.47365 0.0
H1046 H 0.82792 0.72051 0.48358 0.0
H1047 H 0.76793 0.72433 0.4893 0.0
H1048 H 0.92435 0.7675 0.51393 0.0
H1049 H 0.78017 0.77907 0.52766 0.0
H1050 H 0.90771 0.83467 0.48785 0.0
H1051 H 0.89742 0.77353 0.48359 0.0
H1052 H 0.94461 0.78757 0.49414 0.0
H1053 H 0.73157 0.84759 0.50467 0.0
H1054 H 0.71508 0.8034 0.51579 0.0
H1055 H 0.72086 0.78674 0.5002 0.0
C1056 C 0.11712 0.27968 0.72425 0.0
C1057 C 0.15032 0.27445 0.71486 0.0
C1058 C 0.13171 0.29665 0.73554 0.0
C1059 C 0.18073 0.30819 0.73747 0.0
C1060 C 0.21438 0.30318 0.728 0.0
C1061 C 0.19869 0.28656 0.71677 0.0
C1062 C 0.09474 0.30206 0.7454 0.0
C1063 C 0.26702 0.31485 0.72977 0.0
C1064 C 0.21456 0.38999 0.76342 0.0
C1065 C 0.22859 0.35652 0.77216 0.0
C1066 C 0.19828 0.37474 0.75212 0.0
C1067 C 0.19695 0.32492 0.74947 0.0
C1068 C 0.21125 0.29101 0.75826 0.0
C1069 C 0.22646 0.30724 0.76956 0.0
C1070 C 0.18243 0.41187 0.74304 0.0
C1071 C 0.21097 0.23763 0.75569 0.0
H1072 H 0.07961 0.27058 0.72279 0.0
H1073 H 0.22445 0.28254 0.70952 0.0
H1074 H 0.10422 0.27849 0.75308 0.0
H1075 H 0.09459 0.33966 0.74876 0.0
H1076 H 0.05783 0.29271 0.74233 0.0
H1077 H 0.28851 0.30901 0.72148 0.0
H1078 H 0.27117 0.35292 0.73259 0.0
H1079 H 0.28213 0.2921 0.73704 0.0
H1080 H 0.21588 0.42814 0.76545 0.0
H1081 H 0.23753 0.28135 0.7763 0.0
H1082 H 0.14474 0.40473 0.74025 0.0
H1083 H 0.20516 0.40941 0.73487 0.0
H1084 H 0.18468 0.44914 0.74661 0.0
H1085 H 0.17402 0.22573 0.75334 0.0
H1086 H 0.22378 0.21606 0.76346 0.0
H1087 H 0.23435 0.22977 0.74785 0.0
C1088 C 0.72837 0.61436 0.97437 0.0
C1089 C 0.73941 0.64835 0.96549 0.0
C1090 C 0.71192 0.62893 0.98571 0.0
C1091 C 0.70726 0.67865 0.98824 0.0
C1092 C 0.71908 0.71311 0.97935 0.0
C1093 C 0.73462 0.69749 0.96803 0.0
C1094 C 0.6989 0.5912 -0.00507 0.0
C1095 C 0.71516 0.76645 0.98179 0.0
C1096 C 0.62265 0.71979 0.01289 0.0
C1097 C 0.6547 0.72822 0.02239 0.0
C1098 C 0.63923 0.70287 0.00178 0.0
C1099 C 0.68909 0.69476 0.00011 0.0
C1100 C 0.7216 0.703 0.00968 0.0
C1101 C 0.70394 0.71939 0.02075 0.0
C1102 C 0.60345 0.69389 0.99181 0.0
C1103 C 0.77507 0.69513 0.00817 0.0
H1104 H 0.73181 0.5763 0.9724 0.0
H1105 H 0.74339 0.72382 0.96118 0.0
H1106 H 0.72053 0.59643 0.0032 0.0
H1107 H 0.66046 0.59496 -0.00252 0.0
H1108 H 0.70493 0.55403 0.99157 0.0
H1109 H 0.7274 0.78852 0.97404 0.0
H1110 H 0.67726 0.77598 0.98384 0.0
H1111 H 0.73707 0.77614 0.98976 0.0
H1112 H 0.58449 0.72629 0.01415 0.0
H1113 H 0.72879 0.7259 0.02808 0.0
H1114 H 0.60646 0.65619 0.98861 0.0
H1115 H 0.61154 0.71766 0.98406 0.0
H1116 H 0.56572 0.70047 -0.0053 0.0
H1117 H 0.7822 0.65737 0.00547 0.0
H1118 H 0.79545 0.70285 0.01654 0.0
H1119 H 0.78903 0.71865 0.00091 0.0
C1120 C 0.30189 0.2816 0.02023 0.0
C1121 C 0.3508 0.27242 0.02227 0.0
C1122 C 0.28584 0.29794 0.00901 0.0
C1123 C 0.31968 0.30589 -0.0003 0.0
C1124 C 0.36923 0.29752 0.0018 0.0
C1125 C 0.38417 0.28053 0.01305 0.0
C1126 C 0.23265 0.30604 0.00705 0.0
C1127 C 0.40642 0.30634 0.99214 0.0
C1128 C 0.27737 0.30333 0.96734 0.0
C1129 C 0.27244 0.35247 0.96482 0.0
C1130 C 0.29219 0.28766 0.97872 0.0
C1131 C 0.30317 0.32206 0.98769 0.0
C1132 C 0.29871 0.37179 0.98515 0.0
C1133 C 0.28295 0.38642 0.97376 0.0
C1134 C 0.29592 0.2343 0.98115 0.0
C1135 C 0.31097 0.40948 -0.00556 0.0
H1136 H 0.27602 0.27532 0.02735 0.0
H1137 H 0.4221 0.27381 0.01463 0.0
H1138 H 0.22606 0.34384 0.0043 0.0
H1139 H 0.21961 0.2826 -0.00034 0.0
H1140 H 0.21108 0.29837 0.01523 0.0
H1141 H 0.44369 0.29967 -0.00465 0.0
H1142 H 0.39935 0.28254 0.98433 0.0
H1143 H 0.40397 0.34403 0.98889 0.0
H1144 H 0.26906 0.27705 0.96045 0.0
H1145 H 0.27946 0.42448 0.9718 0.0
H1146 H 0.27283 0.22451 0.98892 0.0
H1147 H 0.3335 0.22484 0.98356 0.0
H1148 H 0.28491 0.21227 0.97329 0.0
H1149 H 0.28803 0.40471 0.00251 0.0
H1150 H 0.30599 0.44668 0.99099 0.0
H1151 H 0.34894 0.4052 -0.00265 0.0
C1152 C 0.7248 0.80216 0.27004 0.0
C1153 C 0.7306 0.85169 0.27191 0.0
C1154 C 0.70907 0.78439 0.25893 0.0
C1155 C 0.69826 0.81707 0.24956 0.0
C1156 C 0.70389 0.86717 0.25142 0.0
C1157 C 0.72036 0.8839 0.26257 0.0
C1158 C 0.70401 0.73069 0.25722 0.0
C1159 C 0.69208 0.90308 0.24167 0.0
C1160 C 0.69637 0.77191 0.21743 0.0
C1161 C 0.647 0.76474 0.21557 0.0
C1162 C 0.71365 0.78852 0.22851 0.0
C1163 C 0.68062 0.79881 0.23785 0.0
C1164 C 0.6307 0.79171 0.236 0.0
C1165 C 0.6145 0.77439 0.22489 0.0
C1166 C 0.76719 0.79509 0.23023 0.0
C1167 C 0.5944 0.80289 0.24571 0.0
H1168 H 0.73289 0.77717 0.27724 0.0
H1169 H 0.72461 0.92226 0.26402 0.0
H1170 H 0.66606 0.72158 0.25509 0.0
H1171 H 0.72633 0.71874 0.24951 0.0
H1172 H 0.71504 0.71012 0.26532 0.0
H1173 H 0.69828 0.94083 0.24457 0.0
H1174 H 0.71439 0.8959 0.2336 0.0
H1175 H 0.65384 0.89918 0.23895 0.0
H1176 H 0.72157 0.76435 0.21024 0.0
H1177 H 0.57625 0.76917 0.22344 0.0
H1178 H 0.7797 0.77331 0.23797 0.0
H1179 H 0.77525 0.83331 0.2323 0.0
H1180 H 0.78811 0.78441 0.22215 0.0
H1181 H 0.60206 0.78104 0.25383 0.0
H1182 H 0.55683 0.79564 0.2428 0.0
H1183 H 0.59727 0.8413 0.24836 0.0
C1184 C 0.2199 0.19971 0.46697 0.0
C1185 C 0.22767 0.15064 0.46482 0.0
C1186 C 0.20392 0.21588 0.47821 0.0
C1187 C 0.19486 0.18203 0.48743 0.0
C1188 C 0.20166 0.13231 0.48523 0.0
C1189 C 0.21837 0.1172 0.47396 0.0
C1190 C 0.19753 0.26924 0.48027 0.0
C1191 C 0.19157 0.09514 0.49481 0.0
C1192 C 0.19974 0.22551 0.51969 0.0
C1193 C 0.1509 0.2329 0.52222 0.0
C1194 C 0.21454 0.20898 0.50838 0.0
C1195 C 0.17952 0.19886 0.49949 0.0
C1196 C 0.13006 0.20554 0.50207 0.0
C1197 C 0.11634 0.22291 0.51339 0.0
C1198 C 0.26766 0.20286 0.5059 0.0
C1199 C 0.0917 0.19431 0.49287 0.0
H1200 H 0.22709 0.22564 0.45991 0.0
H1201 H 0.22397 0.07917 0.47228 0.0
H1202 H 0.16 0.27695 0.48308 0.0
H1203 H 0.22153 0.28133 0.48764 0.0
H1204 H 0.20572 0.29078 0.47211 0.0
H1205 H 0.19672 0.05778 0.49149 0.0
H1206 H 0.21579 0.10099 0.5026 0.0
H1207 H 0.15406 0.09894 0.49812 0.0
H1208 H 0.22651 0.23331 0.5265 0.0
H1209 H 0.07848 0.22823 0.51537 0.0
H1210 H 0.27841 0.22576 0.49818 0.0
H1211 H 0.27539 0.165 0.5034 0.0
H1212 H 0.29025 0.21258 0.51377 0.0
H1213 H 0.0967 0.2173 0.48482 0.0
H1214 H 0.05476 0.20014 0.49642 0.0
H1215 H 0.09494 0.15632 0.4899 0.0
C1216 C 0.88782 0.72132 0.72421 0.0
C1217 C 0.85393 0.72878 0.71507 0.0
C1218 C 0.87344 0.70567 0.73563 0.0
C1219 C 0.82395 0.69795 0.73797 0.0
C1220 C 0.78959 0.70537 0.72877 0.0
C1221 C 0.80506 0.7204 0.71738 0.0
C1222 C 0.91115 0.69745 0.74518 0.0
C1223 C 0.73645 0.69793 0.73099 0.0
C1224 C 0.78669 0.61877 0.76411 0.0
C1225 C 0.77598 0.65311 0.77294 0.0
C1226 C 0.80309 0.63285 0.75273 0.0
C1227 C 0.80804 0.68244 0.75009 0.0
C1228 C 0.79733 0.71725 0.75899 0.0
C1229 C 0.78182 0.70211 0.77036 0.0
C1230 C 0.81503 0.5947 0.74353 0.0
C1231 C 0.80163 0.77047 0.75643 0.0
H1232 H 0.9257 0.72752 0.72242 0.0
H1233 H 0.77878 0.72626 0.71034 0.0
H1234 H 0.90448 0.72162 0.75294 0.0
H1235 H 0.90889 0.65992 0.74856 0.0
H1236 H 0.94824 0.70398 0.74181 0.0
H1237 H 0.71439 0.70556 0.72289 0.0
H1238 H 0.72965 0.66028 0.73384 0.0
H1239 H 0.72419 0.72172 0.73839 0.0
H1240 H 0.78253 0.58081 0.76612 0.0
H1241 H 0.7734 0.7287 0.77717 0.0
H1242 H 0.85272 0.59913 0.74041 0.0
H1243 H 0.79141 0.5988 0.73557 0.0
H1244 H 0.8106 0.55768 0.74714 0.0
H1245 H 0.83907 0.77937 0.75376 0.0
H1246 H 0.79173 0.79287 0.76432 0.0
H1247 H 0.77789 0.78034 0.74881 0.0
loop_
_geom_bond_atom_site_label_1
_geom_bond_atom_site_label_2
_geom_bond_distance
_geom_bond_site_symmetry_2
_ccdc_geom_bond_type
Co0 O1 2.216 . S
Co0 O2 2.091 . S
Co0 O4 2.004 . S
Co0 O10 2.021 . S
Co0 O12 2.137 . S
Co0 O13 2.244 . S
O1 Co0 2.216 . S
O1 C8 1.247 . S
O2 Co0 2.091 . S
O2 C8 1.261 . S
C3 O12 1.247 . S
C3 O13 1.272 . S
O4 Co0 2.004 . S
O4 C9 1.259 . S
Co5 O6 2.061 . S
Co5 O11 2.052 . S
Co5 O13 2.135 . S
O6 Co5 2.061 . S
O6 C9 1.235 . S
C7 O10 1.238 . S
C7 O11 1.241 . S
C8 O1 1.247 . S
C8 O2 1.261 . S
C9 O4 1.259 . S
C9 O6 1.235 . S
O10 Co0 2.021 . S
O10 C7 1.238 . S
O11 Co5 2.052 . S
O11 C7 1.241 . S
O12 Co0 2.137 . S
O12 C3 1.247 . S
O13 Co0 2.244 . S
O13 C3 1.272 . S
O13 Co5 2.135 . S
Co14 O15 2.216 . S
Co14 O16 2.091 . S
Co14 O18 2.004 . S
Co14 O24 2.021 . S
Co14 O26 2.137 . S
Co14 O27 2.244 . S
O15 Co14 2.216 . S
O15 C22 1.247 . S
O16 Co14 2.091 . S
O16 C22 1.261 . S
C17 O26 1.247 . S
C17 O27 1.272 . S
O18 Co14 2.004 . S
O18 C23 1.259 . S
Co19 O20 2.061 . S
Co19 O25 2.052 . S
Co19 O27 2.135 . S
O20 Co19 2.061 . S
O20 C23 1.235 . S
C21 O24 1.238 . S
C21 O25 1.241 . S
C22 O15 1.247 . S
C22 O16 1.261 . S
C23 O18 1.259 . S
C23 O20 1.235 . S
O24 Co14 2.021 . S
O24 C21 1.238 . S
O25 Co19 2.052 . S
O25 C21 1.241 . S
O26 Co14 2.137 . S
O26 C17 1.247 . S
O27 Co14 2.244 . S
O27 C17 1.272 . S
O27 Co19 2.135 . S
Co28 O29 2.216 . S
Co28 O30 2.091 . S
Co28 O32 2.004 . S
Co28 O38 2.021 . S
Co28 O40 2.137 . S
Co28 O41 2.244 . S
O29 Co28 2.216 . S
O29 C36 1.247 . S
O30 Co28 2.091 . S
O30 C36 1.261 . S
C31 O40 1.247 . S
C31 O41 1.272 . S
O32 Co28 2.004 . S
O32 C37 1.259 . S
Co33 O34 2.061 . S
Co33 O39 2.052 . S
Co33 O41 2.135 . S
O34 Co33 2.061 . S
O34 C37 1.235 . S
C35 O38 1.238 . S
C35 O39 1.241 . S
C36 O29 1.247 . S
C36 O30 1.261 . S
C37 O32 1.259 . S
C37 O34 1.235 . S
O38 Co28 2.021 . S
O38 C35 1.238 . S
O39 Co33 2.052 . S
O39 C35 1.241 . S
O40 Co28 2.137 . S
O40 C31 1.247 . S
O41 Co28 2.244 . S
O41 C31 1.272 . S
O41 Co33 2.135 . S
Co42 O43 2.216 . S
Co42 O44 2.091 . S
Co42 O46 2.004 . S
Co42 O52 2.021 . S
Co42 O54 2.137 . S
Co42 O55 2.244 . S
O43 Co42 2.216 . S
O43 C50 1.247 . S
O44 Co42 2.091 . S
O44 C50 1.261 . S
C45 O54 1.247 . S
C45 O55 1.272 . S
O46 Co42 2.004 . S
O46 C51 1.259 . S
Co47 O48 2.061 . S
Co47 O53 2.052 . S
Co47 O55 2.135 . S
O48 Co47 2.061 . S
O48 C51 1.235 . S
C49 O52 1.238 . S
C49 O53 1.241 . S
C50 O43 1.247 . S
C50 O44 1.261 . S
C51 O46 1.259 . S
C51 O48 1.235 . S
O52 Co42 2.021 . S
O52 C49 1.238 . S
O53 Co47 2.052 . S
O53 C49 1.241 . S
O54 Co42 2.137 . S
O54 C45 1.247 . S
O55 Co42 2.244 . S
O55 C45 1.272 . S
O55 Co47 2.135 . S
Co56 O57 2.216 . S
Co56 O58 2.091 . S
Co56 O60 2.004 . S
Co56 O66 2.021 . S
Co56 O68 2.137 . S
Co56 O69 2.244 . S
O57 Co56 2.216 . S
O57 C64 1.247 . S
O58 Co56 2.091 . S
O58 C64 1.261 . S
C59 O68 1.247 . S
C59 O69 1.272 . S
O60 Co56 2.004 . S
O60 C65 1.259 . S
Co61 O62 2.061 . S
Co61 O67 2.052 . S
Co61 O69 2.135 . S
O62 Co61 2.061 . S
O62 C65 1.235 . S
C63 O66 1.238 . S
C63 O67 1.241 . S
C64 O57 1.247 . S
C64 O58 1.261 . S
C65 O60 1.259 . S
C65 O62 1.235 . S
O66 Co56 2.021 . S
O66 C63 1.238 . S
O67 Co61 2.052 . S
O67 C63 1.241 . S
O68 Co56 2.137 . S
O68 C59 1.247 . S
O69 Co56 2.244 . S
O69 C59 1.272 . S
O69 Co61 2.135 . S
Co70 O71 2.216 . S
Co70 O72 2.091 . S
Co70 O74 2.004 . S
Co70 O80 2.021 . S
Co70 O82 2.137 . S
Co70 O83 2.244 . S
O71 Co70 2.216 . S
O71 C78 1.247 . S
O72 Co70 2.091 . S
O72 C78 1.261 . S
C73 O82 1.247 . S
C73 O83 1.272 . S
O74 Co70 2.004 . S
O74 C79 1.259 . S
Co75 O76 2.061 . S
Co75 O81 2.052 . S
Co75 O83 2.135 . S
O76 Co75 2.061 . S
O76 C79 1.235 . S
C77 O80 1.238 . S
C77 O81 1.241 . S
C78 O71 1.247 . S
C78 O72 1.261 . S
C79 O74 1.259 . S
C79 O76 1.235 . S
O80 Co70 2.021 . S
O80 C77 1.238 . S
O81 Co75 2.052 . S
O81 C77 1.241 . S
O82 Co70 2.137 . S
O82 C73 1.247 . S
O83 Co70 2.244 . S
O83 C73 1.272 . S
O83 Co75 2.135 . S
Co84 O85 2.216 . S
Co84 O86 2.091 . S
Co84 O88 2.004 . S
Co84 O94 2.021 . S
Co84 O96 2.137 . S
Co84 O97 2.244 . S
O85 Co84 2.216 . S
O85 C92 1.247 . S
O86 Co84 2.091 . S
O86 C92 1.261 . S
C87 O96 1.247 . S
C87 O97 1.272 . S
O88 Co84 2.004 . S
O88 C93 1.259 . S
Co89 O90 2.061 . S
Co89 O95 2.052 . S
Co89 O97 2.135 . S
O90 Co89 2.061 . S
O90 C93 1.235 . S
C91 O94 1.238 . S
C91 O95 1.241 . S
C92 O85 1.247 . S
C92 O86 1.261 . S
C93 O88 1.259 . S
C93 O90 1.235 . S
O94 Co84 2.021 . S
O94 C91 1.238 . S
O95 Co89 2.052 . S
O95 C91 1.241 . S
O96 Co84 2.137 . S
O96 C87 1.247 . S
O97 Co84 2.244 . S
O97 C87 1.272 . S
O97 Co89 2.135 . S
Co98 O99 2.216 . S
Co98 O100 2.091 . S
Co98 O102 2.004 . S
Co98 O108 2.021 . S
Co98 O110 2.137 . S
Co98 O111 2.244 . S
O99 Co98 2.216 . S
O99 C106 1.247 . S
O100 Co98 2.091 . S
O100 C106 1.261 . S
C101 O110 1.247 . S
C101 O111 1.272 . S
O102 Co98 2.004 . S
O102 C107 1.259 . S
Co103 O104 2.061 . S
Co103 O109 2.052 . S
Co103 O111 2.135 . S
O104 Co103 2.061 . S
O104 C107 1.235 . S
C105 O108 1.238 . S
C105 O109 1.241 . S
C106 O99 1.247 . S
C106 O100 1.261 . S
C107 O102 1.259 . S
C107 O104 1.235 . S
O108 Co98 2.021 . S
O108 C105 1.238 . S
O109 Co103 2.052 . S
O109 C105 1.241 . S
O110 Co98 2.137 . S
O110 C101 1.247 . S
O111 Co98 2.244 . S
O111 C101 1.272 . S
O111 Co103 2.135 . S
Co112 O113 2.216 . S
Co112 O114 2.091 . S
Co112 O116 2.004 . S
Co112 O122 2.021 . S
Co112 O124 2.137 . S
Co112 O125 2.244 . S
O113 Co112 2.216 . S
O113 C120 1.247 . S
O114 Co112 2.091 . S
O114 C120 1.261 . S
C115 O124 1.247 . S
C115 O125 1.272 . S
O116 Co112 2.004 . S
O116 C121 1.259 . S
Co117 O118 2.061 . S
Co117 O123 2.052 . S
Co117 O125 2.135 . S
O118 Co117 2.061 . S
O118 C121 1.235 . S
C119 O122 1.238 . S
C119 O123 1.241 . S
C120 O113 1.247 . S
C120 O114 1.261 . S
C121 O116 1.259 . S
C121 O118 1.235 . S
O122 Co112 2.021 . S
O122 C119 1.238 . S
O123 Co117 2.052 . S
O123 C119 1.241 . S
O124 Co112 2.137 . S
O124 C115 1.247 . S
O125 Co112 2.244 . S
O125 C115 1.272 . S
O125 Co117 2.135 . S
Co126 O127 2.216 . S
Co126 O128 2.091 . S
Co126 O130 2.004 . S
Co126 O136 2.021 . S
Co126 O138 2.137 . S
Co126 O139 2.244 . S
O127 Co126 2.216 . S
O127 C134 1.247 . S
O128 Co126 2.091 . S
O128 C134 1.261 . S
C129 O138 1.247 . S
C129 O139 1.272 . S
O130 Co126 2.004 . S
O130 C135 1.259 . S
Co131 O132 2.061 . S
Co131 O137 2.052 . S
Co131 O139 2.135 . S
O132 Co131 2.061 . S
O132 C135 1.235 . S
C133 O136 1.238 . S
C133 O137 1.241 . S
C134 O127 1.247 . S
C134 O128 1.261 . S
C135 O130 1.259 . S
C135 O132 1.235 . S
O136 Co126 2.021 . S
O136 C133 1.238 . S
O137 Co131 2.052 . S
O137 C133 1.241 . S
O138 Co126 2.137 . S
O138 C129 1.247 . S
O139 Co126 2.244 . S
O139 C129 1.272 . S
O139 Co131 2.135 . S
Co140 O141 2.216 . S
Co140 O142 2.091 . S
Co140 O144 2.004 . S
Co140 O150 2.021 . S
Co140 O152 2.137 . S
Co140 O153 2.244 . S
O141 Co140 2.216 . S
O141 C148 1.247 . S
O142 Co140 2.091 . S
O142 C148 1.261 . S
C143 O152 1.247 . S
C143 O153 1.272 . S
O144 Co140 2.004 . S
O144 C149 1.259 . S
Co145 O146 2.061 . S
Co145 O151 2.052 . S
Co145 O153 2.135 . S
O146 Co145 2.061 . S
O146 C149 1.235 . S
C147 O150 1.238 . S
C147 O151 1.241 . S
C148 O141 1.247 . S
C148 O142 1.261 . S
C149 O144 1.259 . S
C149 O146 1.235 . S
O150 Co140 2.021 . S
O150 C147 1.238 . S
O151 Co145 2.052 . S
O151 C147 1.241 . S
O152 Co140 2.137 . S
O152 C143 1.247 . S
O153 Co140 2.244 . S
O153 C143 1.272 . S
O153 Co145 2.135 . S
Co154 O155 2.216 . S
Co154 O156 2.091 . S
Co154 O158 2.004 . S
Co154 O164 2.021 . S
Co154 O166 2.137 . S
Co154 O167 2.244 . S
O155 Co154 2.216 . S
O155 C162 1.247 . S
O156 Co154 2.091 . S
O156 C162 1.261 . S
C157 O166 1.247 . S
C157 O167 1.272 . S
O158 Co154 2.004 . S
O158 C163 1.259 . S
Co159 O160 2.061 . S
Co159 O165 2.052 . S
Co159 O167 2.135 . S
O160 Co159 2.061 . S
O160 C163 1.235 . S
C161 O164 1.238 . S
C161 O165 1.241 . S
C162 O155 1.247 . S
C162 O156 1.261 . S
C163 O158 1.259 . S
C163 O160 1.235 . S
O164 Co154 2.021 . S
O164 C161 1.238 . S
O165 Co159 2.052 . S
O165 C161 1.241 . S
O166 Co154 2.137 . S
O166 C157 1.247 . S
O167 Co154 2.244 . S
O167 C157 1.272 . S
O167 Co159 2.135 . S
Co168 O169 2.216 . S
Co168 O170 2.091 . S
Co168 O172 2.004 . S
Co168 O178 2.021 . S
Co168 O180 2.137 . S
Co168 O181 2.244 . S
O169 Co168 2.216 . S
O169 C176 1.247 . S
O170 Co168 2.091 . S
O170 C176 1.261 . S
C171 O180 1.247 . S
C171 O181 1.272 . S
O172 Co168 2.004 . S
O172 C177 1.259 . S
Co173 O174 2.061 . S
Co173 O179 2.052 . S
Co173 O181 2.135 . S
O174 Co173 2.061 . S
O174 C177 1.235 . S
C175 O178 1.238 . S
C175 O179 1.241 . S
C176 O169 1.247 . S
C176 O170 1.261 . S
C177 O172 1.259 . S
C177 O174 1.235 . S
O178 Co168 2.021 . S
O178 C175 1.238 . S
O179 Co173 2.052 . S
O179 C175 1.241 . S
O180 Co168 2.137 . S
O180 C171 1.247 . S
O181 Co168 2.244 . S
O181 C171 1.272 . S
O181 Co173 2.135 . S
Co182 O183 2.216 . S
Co182 O184 2.091 . S
Co182 O186 2.004 . S
Co182 O192 2.021 . S
Co182 O194 2.137 . S
Co182 O195 2.244 . S
O183 Co182 2.216 . S
O183 C190 1.247 . S
O184 Co182 2.091 . S
O184 C190 1.261 . S
C185 O194 1.247 . S
C185 O195 1.272 . S
O186 Co182 2.004 . S
O186 C191 1.259 . S
Co187 O188 2.061 . S
Co187 O193 2.052 . S
Co187 O195 2.135 . S
O188 Co187 2.061 . S
O188 C191 1.235 . S
C189 O192 1.238 . S
C189 O193 1.241 . S
C190 O183 1.247 . S
C190 O184 1.261 . S
C191 O186 1.259 . S
C191 O188 1.235 . S
O192 Co182 2.021 . S
O192 C189 1.238 . S
O193 Co187 2.052 . S
O193 C189 1.241 . S
O194 Co182 2.137 . S
O194 C185 1.247 . S
O195 Co182 2.244 . S
O195 C185 1.272 . S
O195 Co187 2.135 . S
Co196 O197 2.216 . S
Co196 O198 2.091 . S
Co196 O200 2.004 . S
Co196 O206 2.021 . S
Co196 O208 2.137 . S
Co196 O209 2.244 . S
O197 Co196 2.216 . S
O197 C204 1.247 . S
O198 Co196 2.091 . S
O198 C204 1.261 . S
C199 O208 1.247 . S
C199 O209 1.272 . S
O200 Co196 2.004 . S
O200 C205 1.259 . S
Co201 O202 2.061 . S
Co201 O207 2.052 . S
Co201 O209 2.135 . S
O202 Co201 2.061 . S
O202 C205 1.235 . S
C203 O206 1.238 . S
C203 O207 1.241 . S
C204 O197 1.247 . S
C204 O198 1.261 . S
C205 O200 1.259 . S
C205 O202 1.235 . S
O206 Co196 2.021 . S
O206 C203 1.238 . S
O207 Co201 2.052 . S
O207 C203 1.241 . S
O208 Co196 2.137 . S
O208 C199 1.247 . S
O209 Co196 2.244 . S
O209 C199 1.272 . S
O209 Co201 2.135 . S
Co210 O211 2.216 . S
Co210 O212 2.091 . S
Co210 O214 2.004 . S
Co210 O220 2.021 . S
Co210 O222 2.137 . S
Co210 O223 2.244 . S
O211 Co210 2.216 . S
O211 C218 1.247 . S
O212 Co210 2.091 . S
O212 C218 1.261 . S
C213 O222 1.247 . S
C213 O223 1.272 . S
O214 Co210 2.004 . S
O214 C219 1.259 . S
Co215 O216 2.061 . S
Co215 O221 2.052 . S
Co215 O223 2.135 . S
O216 Co215 2.061 . S
O216 C219 1.235 . S
C217 O220 1.238 . S
C217 O221 1.241 . S
C218 O211 1.247 . S
C218 O212 1.261 . S
C219 O214 1.259 . S
C219 O216 1.235 . S
O220 Co210 2.021 . S
O220 C217 1.238 . S
O221 Co215 2.052 . S
O221 C217 1.241 . S
O222 Co210 2.137 . S
O222 C213 1.247 . S
O223 Co210 2.244 . S
O223 C213 1.272 . S
O223 Co215 2.135 . S
C224 C225 1.391 . S
C224 C226 1.394 . S
C224 H240 0.931 . S
C225 C224 1.391 . S
C225 C229 1.376 . S
C226 C224 1.394 . S
C226 C227 1.369 . S
C226 C230 1.538 . S
C227 C226 1.369 . S
C227 C228 1.410 . S
C227 C235 1.503 1_665 S
C228 C227 1.410 . S
C228 C229 1.392 . S
C228 C231 1.511 1_565 S
C229 C225 1.376 . S
C229 C228 1.392 . S
C229 H241 0.929 . S
C230 C226 1.538 . S
C230 H242 0.948 1_655 S
C230 H243 0.964 . S
C230 H244 0.963 . S
C231 C228 1.511 1_545 S
C231 H245 0.961 . S
C231 H246 0.961 . S
C231 H247 0.961 1_545 S
C232 C233 1.370 . S
C232 C234 1.363 . S
C232 H248 0.931 . S
C233 C232 1.370 . S
C233 C237 1.408 . S
C234 C232 1.363 . S
C234 C235 1.370 . S
C234 C238 1.524 1_455 S
C235 C227 1.503 1_445 S
C235 C234 1.370 . S
C235 C236 1.403 1_545 S
C236 C235 1.403 1_565 S
C236 C237 1.404 1_565 S
C236 C239 1.539 . S
C237 C233 1.408 . S
C237 C236 1.404 1_545 S
C237 H249 0.930 . S
C238 C234 1.524 1_655 S
C238 H250 0.956 . S
C238 H251 0.961 . S
C238 H252 0.961 . S
C239 C236 1.539 . S
C239 H253 0.958 . S
C239 H254 0.961 . S
C239 H255 0.960 . S
H240 C224 0.931 . S
H241 C229 0.929 . S
H242 C230 0.948 1_455 S
H243 C230 0.964 . S
H244 C230 0.963 . S
H245 C231 0.961 . S
H246 C231 0.961 . S
H247 C231 0.961 1_565 S
H248 C232 0.931 . S
H249 C237 0.930 . S
H250 C238 0.956 . S
H251 C238 0.961 . S
H252 C238 0.961 . S
H253 C239 0.958 . S
H254 C239 0.961 . S
H255 C239 0.960 . S
C256 C257 1.391 . S
C256 C258 1.394 . S
C256 H272 0.931 . S
C257 C256 1.391 . S
C257 C261 1.376 . S
C258 C256 1.394 . S
C258 C259 1.369 . S
C258 C262 1.531 . S
C259 C258 1.369 . S
C259 C260 1.410 . S
C259 C267 1.503 1_655 S
C260 C259 1.410 . S
C260 C261 1.392 . S
C260 C263 1.511 1_655 S
C261 C257 1.376 . S
C261 C260 1.392 . S
C261 H273 0.929 . S
C262 C258 1.531 . S
C262 H274 0.960 . S
C262 H275 0.962 . S
C262 H276 0.960 . S
C263 C260 1.511 1_455 S
C263 H277 0.961 . S
C263 H278 0.961 . S
C263 H279 0.961 . S
C264 C265 1.370 . S
C264 C266 1.363 1_455 S
C264 H280 0.931 . S
C265 C264 1.370 . S
C265 C269 1.408 . S
C266 C264 1.363 1_655 S
C266 C267 1.370 1_655 S
C266 C270 1.524 . S
C267 C259 1.503 1_455 S
C267 C266 1.370 1_455 S
C267 C268 1.403 . S
C268 C267 1.403 . S
C268 C269 1.404 . S
C268 C271 1.539 . S
C269 C265 1.408 . S
C269 C268 1.404 . S
C269 H281 0.930 . S
C270 C266 1.524 . S
C270 H282 0.956 . S
C270 H283 0.961 . S
C270 H284 0.961 . S
C271 C268 1.539 . S
C271 H285 0.958 . S
C271 H286 0.961 . S
C271 H287 0.960 . S
H272 C256 0.931 . S
H273 C261 0.929 . S
H274 C262 0.960 . S
H275 C262 0.962 . S
H276 C262 0.960 . S
H277 C263 0.961 . S
H278 C263 0.961 . S
H279 C263 0.961 . S
H280 C264 0.931 . S
H281 C269 0.930 . S
H282 C270 0.956 . S
H283 C270 0.961 . S
H284 C270 0.961 . S
H285 C271 0.958 . S
H286 C271 0.961 . S
H287 C271 0.960 . S
C288 C289 1.391 . S
C288 C290 1.394 . S
C288 H304 0.931 . S
C289 C288 1.391 . S
C289 C293 1.376 . S
C290 C288 1.394 . S
C290 C291 1.369 . S
C290 C294 1.531 . S
C291 C290 1.369 . S
C291 C292 1.410 . S
C291 C299 1.503 . S
C292 C291 1.410 . S
C292 C293 1.392 . S
C292 C295 1.511 . S
C293 C289 1.376 . S
C293 C292 1.392 . S
C293 H305 0.929 . S
C294 C290 1.531 . S
C294 H306 0.960 . S
C294 H307 0.962 . S
C294 H308 0.960 . S
C295 C292 1.511 . S
C295 H309 0.961 . S
C295 H310 0.961 . S
C295 H311 0.961 . S
C296 C297 1.370 . S
C296 C298 1.363 . S
C296 H312 0.931 . S
C297 C296 1.370 . S
C297 C301 1.408 . S
C298 C296 1.363 . S
C298 C299 1.370 . S
C298 C302 1.524 . S
C299 C291 1.503 . S
C299 C298 1.370 . S
C299 C300 1.403 . S
C300 C299 1.403 . S
C300 C301 1.404 . S
C300 C303 1.539 . S
C301 C297 1.408 . S
C301 C300 1.404 . S
C301 H313 0.930 . S
C302 C298 1.524 . S
C302 H314 0.956 . S
C302 H315 0.961 . S
C302 H316 0.961 . S
C303 C300 1.539 . S
C303 H317 0.958 . S
C303 H318 0.961 . S
C303 H319 0.960 . S
H304 C288 0.931 . S
H305 C293 0.929 . S
H306 C294 0.960 . S
H307 C294 0.962 . S
H308 C294 0.960 . S
H309 C295 0.961 . S
H310 C295 0.961 . S
H311 C295 0.961 . S
H312 C296 0.931 . S
H313 C301 0.930 . S
H314 C302 0.956 . S
H315 C302 0.961 . S
H316 C302 0.961 . S
H317 C303 0.958 . S
H318 C303 0.961 . S
H319 C303 0.960 . S
C320 C321 1.391 . S
C320 C322 1.394 . S
C320 H336 0.931 . S
C321 C320 1.391 . S
C321 C325 1.376 . S
C322 C320 1.394 . S
C322 C323 1.369 . S
C322 C326 1.531 1_545 S
C323 C322 1.369 . S
C323 C324 1.410 . S
C323 C331 1.503 1_545 S
C324 C323 1.410 . S
C324 C325 1.392 . S
C324 C327 1.511 . S
C325 C321 1.376 . S
C325 C324 1.392 . S
C325 H337 0.929 . S
C326 C322 1.531 1_565 S
C326 H338 0.960 . S
C326 H339 0.962 . S
C326 H340 0.960 . S
C327 C324 1.511 . S
C327 H341 0.961 . S
C327 H342 0.961 . S
C327 H343 0.961 . S
C328 C329 1.370 . S
C328 C330 1.363 . S
C328 H344 0.931 . S
C329 C328 1.370 . S
C329 C333 1.408 . S
C330 C328 1.363 . S
C330 C331 1.370 . S
C330 C334 1.524 . S
C331 C323 1.503 1_565 S
C331 C330 1.370 . S
C331 C332 1.403 . S
C332 C331 1.403 . S
C332 C333 1.404 . S
C332 C335 1.539 . S
C333 C329 1.408 . S
C333 C332 1.404 . S
C333 H345 0.930 . S
C334 C330 1.524 . S
C334 H346 0.956 . S
C334 H347 0.961 1_565 S
C334 H348 0.961 . S
C335 C332 1.539 . S
C335 H349 0.958 . S
C335 H350 0.961 . S
C335 H351 0.960 1_565 S
H336 C320 0.931 . S
H337 C325 0.929 . S
H338 C326 0.960 . S
H339 C326 0.962 . S
H340 C326 0.960 . S
H341 C327 0.961 . S
H342 C327 0.961 . S
H343 C327 0.961 . S
H344 C328 0.931 . S
H345 C333 0.930 . S
H346 C334 0.956 . S
H347 C334 0.961 1_545 S
H348 C334 0.961 . S
H349 C335 0.958 . S
H350 C335 0.961 . S
H351 C335 0.960 1_545 S
C352 C353 1.391 . S
C352 C354 1.394 . S
C352 H368 0.931 . S
C353 C352 1.391 . S
C353 C357 1.376 . S
C354 C352 1.394 . S
C354 C355 1.369 . S
C354 C358 1.531 1_455 S
C355 C354 1.369 . S
C355 C356 1.410 . S
C355 C363 1.503 1_455 S
C356 C355 1.410 . S
C356 C357 1.392 . S
C356 C359 1.511 . S
C357 C353 1.376 . S
C357 C356 1.392 . S
C357 H369 0.929 . S
C358 C354 1.531 1_655 S
C358 H370 0.960 . S
C358 H371 0.962 . S
C358 H372 0.960 1_655 S
C359 C356 1.511 . S
C359 H373 0.961 . S
C359 H374 0.961 . S
C359 H375 0.961 . S
C360 C361 1.370 . S
C360 C362 1.363 . S
C360 H376 0.931 . S
C361 C360 1.370 . S
C361 C365 1.408 . S
C362 C360 1.363 . S
C362 C363 1.370 . S
C362 C366 1.524 . S
C363 C355 1.503 1_655 S
C363 C362 1.370 . S
C363 C364 1.403 . S
C364 C363 1.403 . S
C364 C365 1.404 . S
C364 C367 1.539 1_655 S
C365 C361 1.408 . S
C365 C364 1.404 . S
C365 H377 0.930 . S
C366 C362 1.524 . S
C366 H378 0.956 . S
C366 H379 0.961 . S
C366 H380 0.961 . S
C367 C364 1.539 1_455 S
C367 H381 0.958 . S
C367 H382 0.961 . S
C367 H383 0.960 . S
H368 C352 0.931 . S
H369 C357 0.929 . S
H370 C358 0.960 . S
H371 C358 0.962 . S
H372 C358 0.960 1_455 S
H373 C359 0.961 . S
H374 C359 0.961 . S
H375 C359 0.961 . S
H376 C360 0.931 . S
H377 C365 0.930 . S
H378 C366 0.956 . S
H379 C366 0.961 . S
H380 C366 0.961 . S
H381 C367 0.958 . S
H382 C367 0.961 . S
H383 C367 0.960 . S
C384 C385 1.391 . S
C384 C386 1.394 . S
C384 H400 0.931 . S
C385 C384 1.391 . S
C385 C389 1.376 . S
C386 C384 1.394 . S
C386 C387 1.369 . S
C386 C390 1.531 . S
C387 C386 1.369 . S
C387 C388 1.410 . S
C387 C395 1.503 . S
C388 C387 1.410 . S
C388 C389 1.392 . S
C388 C391 1.511 . S
C389 C385 1.376 . S
C389 C388 1.392 . S
C389 H401 0.929 . S
C390 C386 1.531 . S
C390 H402 0.960 . S
C390 H403 0.962 . S
C390 H404 0.960 . S
C391 C388 1.511 . S
C391 H405 0.961 . S
C391 H406 0.961 . S
C391 H407 0.961 . S
C392 C393 1.370 . S
C392 C394 1.363 . S
C392 H408 0.931 . S
C393 C392 1.370 . S
C393 C397 1.408 . S
C394 C392 1.363 . S
C394 C395 1.370 . S
C394 C398 1.524 . S
C395 C387 1.503 . S
C395 C394 1.370 . S
C395 C396 1.403 . S
C396 C395 1.403 . S
C396 C397 1.404 . S
C396 C399 1.539 . S
C397 C393 1.408 . S
C397 C396 1.404 . S
C397 H409 0.930 . S
C398 C394 1.524 . S
C398 H410 0.956 . S
C398 H411 0.961 . S
C398 H412 0.961 . S
C399 C396 1.539 . S
C399 H413 0.958 . S
C399 H414 0.961 . S
C399 H415 0.960 . S
H400 C384 0.931 . S
H401 C389 0.929 . S
H402 C390 0.960 . S
H403 C390 0.962 . S
H404 C390 0.960 . S
H405 C391 0.961 . S
H406 C391 0.961 . S
H407 C391 0.961 . S
H408 C392 0.931 . S
H409 C397 0.930 . S
H410 C398 0.956 . S
H411 C398 0.961 . S
H412 C398 0.961 . S
H413 C399 0.958 . S
H414 C399 0.961 . S
H415 C399 0.960 . S
C416 C417 1.391 . S
C416 C418 1.394 . S
C416 H432 0.931 . S
C417 C416 1.391 . S
C417 C421 1.376 . S
C418 C416 1.394 . S
C418 C419 1.369 . S
C418 C422 1.531 . S
C419 C418 1.369 . S
C419 C420 1.410 1_545 S
C419 C427 1.503 1_545 S
C420 C419 1.410 1_565 S
C420 C421 1.392 1_565 S
C420 C423 1.511 . S
C421 C417 1.376 . S
C421 C420 1.392 1_545 S
C421 H433 0.929 . S
C422 C418 1.531 . S
C422 H434 0.960 . S
C422 H435 0.962 . S
C422 H436 0.960 . S
C423 C420 1.511 . S
C423 H437 0.961 . S
C423 H438 0.961 . S
C423 H439 0.961 . S
C424 C425 1.370 . S
C424 C426 1.363 . S
C424 H440 0.931 . S
C425 C424 1.370 . S
C425 C429 1.408 . S
C426 C424 1.363 . S
C426 C427 1.370 . S
C426 C430 1.524 1_565 S
C427 C419 1.503 1_565 S
C427 C426 1.370 . S
C427 C428 1.403 . S
C428 C427 1.403 . S
C428 C429 1.404 . S
C428 C431 1.539 . S
C429 C425 1.408 . S
C429 C428 1.404 . S
C429 H441 0.930 . S
C430 C426 1.524 1_545 S
C430 H442 0.956 . S
C430 H443 0.961 . S
C430 H444 0.961 . S
C431 C428 1.539 . S
C431 H445 0.958 . S
C431 H446 0.961 . S
C431 H447 0.960 . S
H432 C416 0.931 . S
H433 C421 0.929 . S
H434 C422 0.960 . S
H435 C422 0.962 . S
H436 C422 0.960 . S
H437 C423 0.961 . S
H438 C423 0.961 . S
H439 C423 0.961 . S
H440 C424 0.931 . S
H441 C429 0.930 . S
H442 C430 0.956 . S
H443 C430 0.961 . S
H444 C430 0.961 . S
H445 C431 0.958 . S
H446 C431 0.961 . S
H447 C431 0.960 . S
C448 C449 1.391 . S
C448 C450 1.394 . S
C448 H464 0.931 . S
C449 C448 1.391 . S
C449 C453 1.376 . S
C450 C448 1.394 . S
C450 C451 1.369 . S
C450 C454 1.531 1_545 S
C451 C450 1.369 . S
C451 C452 1.410 1_455 S
C451 C459 1.503 1_445 S
C452 C451 1.410 1_655 S
C452 C453 1.392 1_655 S
C452 C455 1.511 . S
C453 C449 1.376 . S
C453 C452 1.392 1_455 S
C453 H465 0.929 . S
C454 C450 1.531 1_565 S
C454 H466 0.960 . S
C454 H467 0.962 . S
C454 H468 0.960 1_565 S
C455 C452 1.511 . S
C455 H469 0.961 . S
C455 H470 0.961 . S
C455 H471 0.961 . S
C456 C457 1.370 . S
C456 C458 1.363 . S
C456 H472 0.931 . S
C457 C456 1.370 . S
C457 C461 1.408 . S
C458 C456 1.363 . S
C458 C459 1.370 . S
C458 C462 1.524 1_655 S
C459 C451 1.503 1_665 S
C459 C458 1.370 . S
C459 C460 1.403 . S
C460 C459 1.403 . S
C460 C461 1.404 . S
C460 C463 1.539 1_565 S
C461 C457 1.408 . S
C461 C460 1.404 . S
C461 H473 0.930 . S
C462 C458 1.524 1_455 S
C462 H474 0.956 . S
C462 H475 0.961 . S
C462 H476 0.961 . S
C463 C460 1.539 1_545 S
C463 H477 0.958 . S
C463 H478 0.961 . S
C463 H479 0.960 . S
H464 C448 0.931 . S
H465 C453 0.929 . S
H466 C454 0.960 . S
H467 C454 0.962 . S
H468 C454 0.960 1_545 S
H469 C455 0.961 . S
H470 C455 0.961 . S
H471 C455 0.961 . S
H472 C456 0.931 . S
H473 C461 0.930 . S
H474 C462 0.956 . S
H475 C462 0.961 . S
H476 C462 0.961 . S
H477 C463 0.958 . S
H478 C463 0.961 . S
H479 C463 0.960 . S
C480 C481 1.391 . S
C480 C482 1.394 1_565 S
C480 H496 0.931 1_565 S
C481 C480 1.391 . S
C481 C485 1.376 . S
C482 C480 1.394 1_545 S
C482 C483 1.369 1_545 S
C482 C486 1.531 . S
C483 C482 1.369 1_565 S
C483 C484 1.410 . S
C483 C491 1.503 1_565 S
C484 C483 1.410 . S
C484 C485 1.392 . S
C484 C487 1.511 . S
C485 C481 1.376 . S
C485 C484 1.392 . S
C485 H497 0.929 . S
C486 C482 1.531 . S
C486 H498 0.960 . S
C486 H499 0.962 . S
C486 H500 0.960 . S
C487 C484 1.511 . S
C487 H501 0.961 . S
C487 H502 0.961 . S
C487 H503 0.961 . S
C488 C489 1.370 . S
C488 C490 1.363 . S
C488 H504 0.931 . S
C489 C488 1.370 . S
C489 C493 1.408 . S
C490 C488 1.363 . S
C490 C491 1.370 . S
C490 C494 1.524 . S
C491 C483 1.503 1_545 S
C491 C490 1.370 . S
C491 C492 1.403 . S
C492 C491 1.403 . S
C492 C493 1.404 . S
C492 C495 1.539 1_545 S
C493 C489 1.408 . S
C493 C492 1.404 . S
C493 H505 0.930 . S
C494 C490 1.524 . S
C494 H506 0.956 . S
C494 H507 0.961 1_545 S
C494 H508 0.961 . S
C495 C492 1.539 1_565 S
C495 H509 0.958 1_565 S
C495 H510 0.961 . S
C495 H511 0.960 . S
H496 C480 0.931 1_545 S
H497 C485 0.929 . S
H498 C486 0.960 . S
H499 C486 0.962 . S
H500 C486 0.960 . S
H501 C487 0.961 . S
H502 C487 0.961 . S
H503 C487 0.961 . S
H504 C488 0.931 . S
H505 C493 0.930 . S
H506 C494 0.956 . S
H507 C494 0.961 1_565 S
H508 C494 0.961 . S
H509 C495 0.958 1_545 S
H510 C495 0.961 . S
H511 C495 0.960 . S
C512 C513 1.391 . S
C512 C514 1.394 1_655 S
C512 H528 0.931 1_655 S
C513 C512 1.391 . S
C513 C517 1.376 . S
C514 C512 1.394 1_455 S
C514 C515 1.369 1_455 S
C514 C518 1.531 . S
C515 C514 1.369 1_655 S
C515 C516 1.410 . S
C515 C523 1.503 1_665 S
C516 C515 1.410 . S
C516 C517 1.392 . S
C516 C519 1.511 1_565 S
C517 C513 1.376 . S
C517 C516 1.392 . S
C517 H529 0.929 . S
C518 C514 1.531 . S
C518 H530 0.960 . S
C518 H531 0.962 . S
C518 H532 0.960 . S
C519 C516 1.511 1_545 S
C519 H533 0.961 . S
C519 H534 0.961 . S
C519 H535 0.961 . S
C520 C521 1.370 . S
C520 C522 1.363 . S
C520 H536 0.931 . S
C521 C520 1.370 . S
C521 C525 1.408 . S
C522 C520 1.363 . S
C522 C523 1.370 . S
C522 C526 1.524 . S
C523 C515 1.503 1_445 S
C523 C522 1.370 . S
C523 C524 1.403 . S
C524 C523 1.403 . S
C524 C525 1.404 . S
C524 C527 1.539 . S
C525 C521 1.408 . S
C525 C524 1.404 . S
C525 H537 0.930 . S
C526 C522 1.524 . S
C526 H538 0.956 1_545 S
C526 H539 0.961 1_455 S
C526 H540 0.961 . S
C527 C524 1.539 . S
C527 H541 0.958 . S
C527 H542 0.961 1_455 S
C527 H543 0.960 1_455 S
H528 C512 0.931 1_455 S
H529 C517 0.929 . S
H530 C518 0.960 . S
H531 C518 0.962 . S
H532 C518 0.960 . S
H533 C519 0.961 . S
H534 C519 0.961 . S
H535 C519 0.961 . S
H536 C520 0.931 . S
H537 C525 0.930 . S
H538 C526 0.956 1_565 S
H539 C526 0.961 1_655 S
H540 C526 0.961 . S
H541 C527 0.958 . S
H542 C527 0.961 1_655 S
H543 C527 0.960 1_655 S
C544 C545 1.391 . S
C544 C546 1.394 . S
C544 H560 0.931 . S
C545 C544 1.391 . S
C545 C549 1.376 . S
C546 C544 1.394 . S
C546 C547 1.369 . S
C546 C550 1.531 1_455 S
C547 C546 1.369 . S
C547 C548 1.410 . S
C547 C555 1.503 1_455 S
C548 C547 1.410 . S
C548 C549 1.392 . S
C548 C551 1.511 . S
C549 C545 1.376 . S
C549 C548 1.392 . S
C549 H561 0.929 . S
C550 C546 1.531 1_655 S
C550 H562 0.960 . S
C550 H563 0.962 . S
C550 H564 0.960 1_655 S
C551 C548 1.511 . S
C551 H565 0.961 . S
C551 H566 0.961 . S
C551 H567 0.961 . S
C552 C553 1.370 . S
C552 C554 1.363 . S
C552 H568 0.931 . S
C553 C552 1.370 . S
C553 C557 1.408 . S
C554 C552 1.363 . S
C554 C555 1.370 . S
C554 C558 1.524 . S
C555 C547 1.503 1_655 S
C555 C554 1.370 . S
C555 C556 1.403 . S
C556 C555 1.403 . S
C556 C557 1.404 . S
C556 C559 1.539 1_655 S
C557 C553 1.408 . S
C557 C556 1.404 . S
C557 H569 0.930 . S
C558 C554 1.524 . S
C558 H570 0.956 . S
C558 H571 0.961 . S
C558 H572 0.961 . S
C559 C556 1.539 1_455 S
C559 H573 0.958 . S
C559 H574 0.961 1_455 S
C559 H575 0.960 . S
H560 C544 0.931 . S
H561 C549 0.929 . S
H562 C550 0.960 . S
H563 C550 0.962 . S
H564 C550 0.960 1_455 S
H565 C551 0.961 . S
H566 C551 0.961 . S
H567 C551 0.961 . S
H568 C552 0.931 . S
H569 C557 0.930 . S
H570 C558 0.956 . S
H571 C558 0.961 . S
H572 C558 0.961 . S
H573 C559 0.958 . S
H574 C559 0.961 1_655 S
H575 C559 0.960 . S
C576 C577 1.391 . S
C576 C578 1.394 . S
C576 H592 0.931 . S
C577 C576 1.391 . S
C577 C581 1.376 . S
C578 C576 1.394 . S
C578 C579 1.369 . S
C578 C582 1.531 . S
C579 C578 1.369 . S
C579 C580 1.410 . S
C579 C587 1.503 . S
C580 C579 1.410 . S
C580 C581 1.392 . S
C580 C583 1.511 . S
C581 C577 1.376 . S
C581 C580 1.392 . S
C581 H593 0.929 . S
C582 C578 1.531 . S
C582 H594 0.960 . S
C582 H595 0.962 . S
C582 H596 0.960 . S
C583 C580 1.511 . S
C583 H597 0.961 . S
C583 H598 0.961 . S
C583 H599 0.961 . S
C584 C585 1.370 . S
C584 C586 1.363 . S
C584 H600 0.931 . S
C585 C584 1.370 . S
C585 C589 1.408 . S
C586 C584 1.363 . S
C586 C587 1.370 . S
C586 C590 1.524 . S
C587 C579 1.503 . S
C587 C586 1.370 . S
C587 C588 1.403 . S
C588 C587 1.403 . S
C588 C589 1.404 . S
C588 C591 1.539 . S
C589 C585 1.408 . S
C589 C588 1.404 . S
C589 H601 0.930 . S
C590 C586 1.524 . S
C590 H602 0.956 . S
C590 H603 0.961 . S
C590 H604 0.961 . S
C591 C588 1.539 . S
C591 H605 0.958 . S
C591 H606 0.961 . S
C591 H607 0.960 . S
H592 C576 0.931 . S
H593 C581 0.929 . S
H594 C582 0.960 . S
H595 C582 0.962 . S
H596 C582 0.960 . S
H597 C583 0.961 . S
H598 C583 0.961 . S
H599 C583 0.961 . S
H600 C584 0.931 . S
H601 C589 0.930 . S
H602 C590 0.956 . S
H603 C590 0.961 . S
H604 C590 0.961 . S
H605 C591 0.958 . S
H606 C591 0.961 . S
H607 C591 0.960 . S
C608 C609 1.391 . S
C608 C610 1.394 . S
C608 H624 0.931 . S
C609 C608 1.391 . S
C609 C613 1.376 . S
C610 C608 1.394 . S
C610 C611 1.369 . S
C610 C614 1.531 . S
C611 C610 1.369 . S
C611 C612 1.410 . S
C611 C619 1.503 . S
C612 C611 1.410 . S
C612 C613 1.392 . S
C612 C615 1.511 . S
C613 C609 1.376 . S
C613 C612 1.392 . S
C613 H625 0.929 . S
C614 C610 1.531 . S
C614 H626 0.960 . S
C614 H627 0.962 . S
C614 H628 0.960 . S
C615 C612 1.511 . S
C615 H629 0.961 . S
C615 H630 0.961 . S
C615 H631 0.961 . S
C616 C617 1.370 . S
C616 C618 1.363 . S
C616 H632 0.931 . S
C617 C616 1.370 . S
C617 C621 1.408 . S
C618 C616 1.363 . S
C618 C619 1.370 . S
C618 C622 1.524 . S
C619 C611 1.503 . S
C619 C618 1.370 . S
C619 C620 1.403 . S
C620 C619 1.403 . S
C620 C621 1.404 . S
C620 C623 1.539 . S
C621 C617 1.408 . S
C621 C620 1.404 . S
C621 H633 0.930 . S
C622 C618 1.524 . S
C622 H634 0.956 . S
C622 H635 0.961 . S
C622 H636 0.961 . S
C623 C620 1.539 . S
C623 H637 0.958 . S
C623 H638 0.961 . S
C623 H639 0.960 . S
H624 C608 0.931 . S
H625 C613 0.929 . S
H626 C614 0.960 . S
H627 C614 0.962 . S
H628 C614 0.960 . S
H629 C615 0.961 . S
H630 C615 0.961 . S
H631 C615 0.961 . S
H632 C616 0.931 . S
H633 C621 0.930 . S
H634 C622 0.956 . S
H635 C622 0.961 . S
H636 C622 0.961 . S
H637 C623 0.958 . S
H638 C623 0.961 . S
H639 C623 0.960 . S
C640 C641 1.391 . S
C640 C642 1.394 . S
C640 H656 0.931 . S
C641 C640 1.391 . S
C641 C645 1.376 . S
C642 C640 1.394 . S
C642 C643 1.369 . S
C642 C646 1.531 1_565 S
C643 C642 1.369 . S
C643 C644 1.410 . S
C643 C651 1.503 1_565 S
C644 C643 1.410 . S
C644 C645 1.392 . S
C644 C647 1.511 . S
C645 C641 1.376 . S
C645 C644 1.392 . S
C645 H657 0.929 . S
C646 C642 1.531 1_545 S
C646 H658 0.960 . S
C646 H659 0.962 . S
C646 H660 0.960 . S
C647 C644 1.511 . S
C647 H661 0.961 . S
C647 H662 0.961 . S
C647 H663 0.961 . S
C648 C649 1.370 . S
C648 C650 1.363 . S
C648 H664 0.931 . S
C649 C648 1.370 . S
C649 C653 1.408 . S
C650 C648 1.363 . S
C650 C651 1.370 . S
C650 C654 1.524 . S
C651 C643 1.503 1_545 S
C651 C650 1.370 . S
C651 C652 1.403 . S
C652 C651 1.403 . S
C652 C653 1.404 . S
C652 C655 1.539 . S
C653 C649 1.408 . S
C653 C652 1.404 . S
C653 H665 0.930 . S
C654 C650 1.524 . S
C654 H666 0.956 . S
C654 H667 0.961 1_545 S
C654 H668 0.961 . S
C655 C652 1.539 . S
C655 H669 0.958 . S
C655 H670 0.961 . S
C655 H671 0.960 . S
H656 C640 0.931 . S
H657 C645 0.929 . S
H658 C646 0.960 . S
H659 C646 0.962 . S
H660 C646 0.960 . S
H661 C647 0.961 . S
H662 C647 0.961 . S
H663 C647 0.961 . S
H664 C648 0.931 . S
H665 C653 0.930 . S
H666 C654 0.956 . S
H667 C654 0.961 1_565 S
H668 C654 0.961 . S
H669 C655 0.958 . S
H670 C655 0.961 . S
H671 C655 0.960 . S
C672 C673 1.391 . S
C672 C674 1.394 1_565 S
C672 H688 0.931 1_565 S
C673 C672 1.391 . S
C673 C677 1.376 . S
C674 C672 1.394 1_545 S
C674 C675 1.369 1_545 S
C674 C678 1.531 . S
C675 C674 1.369 1_565 S
C675 C676 1.410 . S
C675 C683 1.503 1_665 S
C676 C675 1.410 . S
C676 C677 1.392 . S
C676 C679 1.511 1_655 S
C677 C673 1.376 . S
C677 C676 1.392 . S
C677 H689 0.929 . S
C678 C674 1.531 . S
C678 H690 0.960 . S
C678 H691 0.962 . S
C678 H692 0.960 . S
C679 C676 1.511 1_455 S
C679 H693 0.961 . S
C679 H694 0.961 . S
C679 H695 0.961 . S
C680 C681 1.370 . S
C680 C682 1.363 . S
C680 H696 0.931 . S
C681 C680 1.370 . S
C681 C685 1.408 . S
C682 C680 1.363 . S
C682 C683 1.370 . S
C682 C686 1.524 . S
C683 C675 1.503 1_445 S
C683 C682 1.370 . S
C683 C684 1.403 . S
C684 C683 1.403 . S
C684 C685 1.404 . S
C684 C687 1.539 1_545 S
C685 C681 1.408 . S
C685 C684 1.404 . S
C685 H697 0.930 . S
C686 C682 1.524 . S
C686 H698 0.956 1_455 S
C686 H699 0.961 1_545 S
C686 H700 0.961 . S
C687 C684 1.539 1_565 S
C687 H701 0.958 1_565 S
C687 H702 0.961 . S
C687 H703 0.960 . S
H688 C672 0.931 1_545 S
H689 C677 0.929 . S
H690 C678 0.960 . S
H691 C678 0.962 . S
H692 C678 0.960 . S
H693 C679 0.961 . S
H694 C679 0.961 . S
H695 C679 0.961 . S
H696 C680 0.931 . S
H697 C685 0.930 . S
H698 C686 0.956 1_655 S
H699 C686 0.961 1_565 S
H700 C686 0.961 . S
H701 C687 0.958 1_545 S
H702 C687 0.961 . S
H703 C687 0.960 . S
C704 C705 1.391 . S
C704 C706 1.394 . S
C704 H720 0.931 . S
C705 C704 1.391 . S
C705 C709 1.376 . S
C706 C704 1.394 . S
C706 C707 1.369 . S
C706 C710 1.531 1_455 S
C707 C706 1.369 . S
C707 C708 1.410 . S
C707 C715 1.503 1_455 S
C708 C707 1.410 . S
C708 C709 1.392 . S
C708 C711 1.511 . S
C709 C705 1.376 . S
C709 C708 1.392 . S
C709 H721 0.929 . S
C710 C706 1.531 1_655 S
C710 H722 0.960 . S
C710 H723 0.962 . S
C710 H724 0.960 . S
C711 C708 1.511 . S
C711 H725 0.961 . S
C711 H726 0.961 . S
C711 H727 0.961 . S
C712 C713 1.370 . S
C712 C714 1.363 . S
C712 H728 0.931 . S
C713 C712 1.370 . S
C713 C717 1.408 . S
C714 C712 1.363 . S
C714 C715 1.370 . S
C714 C718 1.524 . S
C715 C707 1.503 1_655 S
C715 C714 1.370 . S
C715 C716 1.403 1_655 S
C716 C715 1.403 1_455 S
C716 C717 1.404 1_455 S
C716 C719 1.539 . S
C717 C713 1.408 . S
C717 C716 1.404 1_655 S
C717 H729 0.927 1_655 S
C718 C714 1.524 . S
C718 H730 0.956 . S
C718 H731 0.961 . S
C718 H732 0.961 . S
C719 C716 1.539 . S
C719 H733 0.958 . S
C719 H734 0.961 . S
C719 H735 0.960 . S
H720 C704 0.931 . S
H721 C709 0.929 . S
H722 C710 0.960 . S
H723 C710 0.962 . S
H724 C710 0.960 . S
H725 C711 0.961 . S
H726 C711 0.961 . S
H727 C711 0.961 . S
H728 C712 0.931 . S
H729 C717 0.927 1_455 S
H730 C718 0.956 . S
H731 C718 0.961 . S
H732 C718 0.961 . S
H733 C719 0.958 . S
H734 C719 0.961 . S
H735 C719 0.960 . S
C736 C737 1.391 . S
C736 C738 1.394 . S
C736 H752 0.931 . S
C737 C736 1.391 . S
C737 C741 1.376 . S
C738 C736 1.394 . S
C738 C739 1.369 . S
C738 C742 1.531 . S
C739 C738 1.369 . S
C739 C740 1.410 . S
C739 C747 1.503 . S
C740 C739 1.410 . S
C740 C741 1.392 . S
C740 C743 1.511 . S
C741 C737 1.376 . S
C741 C740 1.392 . S
C741 H753 0.929 . S
C742 C738 1.531 . S
C742 H754 0.960 . S
C742 H755 0.962 . S
C742 H756 0.960 . S
C743 C740 1.511 . S
C743 H757 0.961 . S
C743 H758 0.961 . S
C743 H759 0.961 . S
C744 C745 1.370 . S
C744 C746 1.363 . S
C744 H760 0.931 . S
C745 C744 1.370 . S
C745 C749 1.408 . S
C746 C744 1.363 . S
C746 C747 1.370 . S
C746 C750 1.524 . S
C747 C739 1.503 . S
C747 C746 1.370 . S
C747 C748 1.403 . S
C748 C747 1.403 . S
C748 C749 1.404 . S
C748 C751 1.539 . S
C749 C745 1.408 . S
C749 C748 1.404 . S
C749 H761 0.930 . S
C750 C746 1.524 . S
C750 H762 0.956 . S
C750 H763 0.961 . S
C750 H764 0.961 . S
C751 C748 1.539 . S
C751 H765 0.958 . S
C751 H766 0.961 . S
C751 H767 0.960 . S
H752 C736 0.931 . S
H753 C741 0.929 . S
H754 C742 0.960 . S
H755 C742 0.962 . S
H756 C742 0.960 . S
H757 C743 0.961 . S
H758 C743 0.961 . S
H759 C743 0.961 . S
H760 C744 0.931 . S
H761 C749 0.930 . S
H762 C750 0.956 . S
H763 C750 0.961 . S
H764 C750 0.961 . S
H765 C751 0.958 . S
H766 C751 0.961 . S
H767 C751 0.960 . S
C768 C769 1.391 . S
C768 C770 1.394 . S
C768 H784 0.931 . S
C769 C768 1.391 . S
C769 C773 1.376 . S
C770 C768 1.394 . S
C770 C771 1.369 . S
C770 C774 1.531 . S
C771 C770 1.369 . S
C771 C772 1.410 . S
C771 C779 1.503 . S
C772 C771 1.410 . S
C772 C773 1.392 . S
C772 C775 1.511 . S
C773 C769 1.376 . S
C773 C772 1.392 . S
C773 H785 0.929 . S
C774 C770 1.531 . S
C774 H786 0.960 . S
C774 H787 0.962 . S
C774 H788 0.960 . S
C775 C772 1.511 . S
C775 H789 0.961 . S
C775 H790 0.961 . S
C775 H791 0.961 . S
C776 C777 1.370 . S
C776 C778 1.363 . S
C776 H792 0.931 . S
C777 C776 1.370 . S
C777 C781 1.408 . S
C778 C776 1.363 . S
C778 C779 1.370 . S
C778 C782 1.524 . S
C779 C771 1.503 . S
C779 C778 1.370 . S
C779 C780 1.403 . S
C780 C779 1.403 . S
C780 C781 1.404 . S
C780 C783 1.539 . S
C781 C777 1.408 . S
C781 C780 1.404 . S
C781 H793 0.930 . S
C782 C778 1.524 . S
C782 H794 0.956 . S
C782 H795 0.961 . S
C782 H796 0.961 . S
C783 C780 1.539 . S
C783 H797 0.958 . S
C783 H798 0.961 . S
C783 H799 0.960 . S
H784 C768 0.931 . S
H785 C773 0.929 . S
H786 C774 0.960 . S
H787 C774 0.962 . S
H788 C774 0.960 . S
H789 C775 0.961 . S
H790 C775 0.961 . S
H791 C775 0.961 . S
H792 C776 0.931 . S
H793 C781 0.930 . S
H794 C782 0.956 . S
H795 C782 0.961 . S
H796 C782 0.961 . S
H797 C783 0.958 . S
H798 C783 0.961 . S
H799 C783 0.960 . S
C800 C801 1.391 . S
C800 C802 1.394 . S
C800 H816 0.931 . S
C801 C800 1.391 . S
C801 C805 1.376 . S
C802 C800 1.394 . S
C802 C803 1.369 . S
C802 C806 1.531 . S
C803 C802 1.369 . S
C803 C804 1.410 . S
C803 C811 1.503 . S
C804 C803 1.410 . S
C804 C805 1.392 . S
C804 C807 1.511 . S
C805 C801 1.376 . S
C805 C804 1.392 . S
C805 H817 0.929 . S
C806 C802 1.531 . S
C806 H818 0.960 . S
C806 H819 0.962 . S
C806 H820 0.960 . S
C807 C804 1.511 . S
C807 H821 0.961 . S
C807 H822 0.961 . S
C807 H823 0.961 . S
C808 C809 1.370 . S
C808 C810 1.363 . S
C808 H824 0.931 . S
C809 C808 1.370 . S
C809 C813 1.408 . S
C810 C808 1.363 . S
C810 C811 1.370 . S
C810 C814 1.524 . S
C811 C803 1.503 . S
C811 C810 1.370 . S
C811 C812 1.403 . S
C812 C811 1.403 . S
C812 C813 1.404 . S
C812 C815 1.539 . S
C813 C809 1.408 . S
C813 C812 1.404 . S
C813 H825 0.930 . S
C814 C810 1.524 . S
C814 H826 0.956 . S
C814 H827 0.961 . S
C814 H828 0.961 . S
C815 C812 1.539 . S
C815 H829 0.958 . S
C815 H830 0.961 . S
C815 H831 0.960 . S
H816 C800 0.931 . S
H817 C805 0.929 . S
H818 C806 0.960 . S
H819 C806 0.962 . S
H820 C806 0.960 . S
H821 C807 0.961 . S
H822 C807 0.961 . S
H823 C807 0.961 . S
H824 C808 0.931 . S
H825 C813 0.930 . S
H826 C814 0.956 . S
H827 C814 0.961 . S
H828 C814 0.961 . S
H829 C815 0.958 . S
H830 C815 0.961 . S
H831 C815 0.960 . S
C832 C833 1.391 . S
C832 C834 1.394 . S
C832 H848 0.931 . S
C833 C832 1.391 . S
C833 C837 1.376 . S
C834 C832 1.394 . S
C834 C835 1.369 . S
C834 C838 1.531 . S
C835 C834 1.369 . S
C835 C836 1.410 . S
C835 C843 1.503 . S
C836 C835 1.410 . S
C836 C837 1.392 . S
C836 C839 1.511 . S
C837 C833 1.376 . S
C837 C836 1.392 . S
C837 H849 0.929 . S
C838 C834 1.531 . S
C838 H850 0.960 . S
C838 H851 0.962 . S
C838 H852 0.960 . S
C839 C836 1.511 . S
C839 H853 0.961 . S
C839 H854 0.961 . S
C839 H855 0.961 . S
C840 C841 1.370 . S
C840 C842 1.363 . S
C840 H856 0.931 . S
C841 C840 1.370 . S
C841 C845 1.408 . S
C842 C840 1.363 . S
C842 C843 1.370 . S
C842 C846 1.524 . S
C843 C835 1.503 . S
C843 C842 1.370 . S
C843 C844 1.403 . S
C844 C843 1.403 . S
C844 C845 1.404 . S
C844 C847 1.539 . S
C845 C841 1.408 . S
C845 C844 1.404 . S
C845 H857 0.930 . S
C846 C842 1.524 . S
C846 H858 0.956 . S
C846 H859 0.961 . S
C846 H860 0.961 . S
C847 C844 1.539 . S
C847 H861 0.958 . S
C847 H862 0.961 . S
C847 H863 0.960 . S
H848 C832 0.931 . S
H849 C837 0.929 . S
H850 C838 0.960 . S
H851 C838 0.962 . S
H852 C838 0.960 . S
H853 C839 0.961 . S
H854 C839 0.961 . S
H855 C839 0.961 . S
H856 C840 0.931 . S
H857 C845 0.930 . S
H858 C846 0.956 . S
H859 C846 0.961 . S
H860 C846 0.961 . S
H861 C847 0.958 . S
H862 C847 0.961 . S
H863 C847 0.960 . S
C864 C865 1.391 . S
C864 C866 1.394 . S
C864 H880 0.931 . S
C865 C864 1.391 . S
C865 C869 1.376 . S
C866 C864 1.394 . S
C866 C867 1.369 . S
C866 C870 1.531 . S
C867 C866 1.369 . S
C867 C868 1.410 . S
C867 C875 1.503 . S
C868 C867 1.410 . S
C868 C869 1.392 . S
C868 C871 1.511 . S
C869 C865 1.376 . S
C869 C868 1.392 . S
C869 H881 0.929 . S
C870 C866 1.531 . S
C870 H882 0.960 . S
C870 H883 0.962 . S
C870 H884 0.960 . S
C871 C868 1.511 . S
C871 H885 0.961 . S
C871 H886 0.961 . S
C871 H887 0.961 . S
C872 C873 1.370 . S
C872 C874 1.363 . S
C872 H888 0.931 . S
C873 C872 1.370 . S
C873 C877 1.408 . S
C874 C872 1.363 . S
C874 C875 1.370 . S
C874 C878 1.524 . S
C875 C867 1.503 . S
C875 C874 1.370 . S
C875 C876 1.403 . S
C876 C875 1.403 . S
C876 C877 1.404 . S
C876 C879 1.539 . S
C877 C873 1.408 . S
C877 C876 1.404 . S
C877 H889 0.930 . S
C878 C874 1.524 . S
C878 H890 0.956 . S
C878 H891 0.961 . S
C878 H892 0.961 . S
C879 C876 1.539 . S
C879 H893 0.958 . S
C879 H894 0.961 . S
C879 H895 0.960 . S
H880 C864 0.931 . S
H881 C869 0.929 . S
H882 C870 0.960 . S
H883 C870 0.962 . S
H884 C870 0.960 . S
H885 C871 0.961 . S
H886 C871 0.961 . S
H887 C871 0.961 . S
H888 C872 0.931 . S
H889 C877 0.930 . S
H890 C878 0.956 . S
H891 C878 0.961 . S
H892 C878 0.961 . S
H893 C879 0.958 . S
H894 C879 0.961 . S
H895 C879 0.960 . S
C896 C897 1.391 . S
C896 C898 1.394 . S
C896 H912 0.931 . S
C897 C896 1.391 . S
C897 C901 1.376 . S
C898 C896 1.394 . S
C898 C899 1.369 . S
C898 C902 1.531 . S
C899 C898 1.369 . S
C899 C900 1.410 . S
C899 C907 1.503 . S
C900 C899 1.410 . S
C900 C901 1.392 . S
C900 C903 1.511 . S
C901 C897 1.376 . S
C901 C900 1.392 . S
C901 H913 0.929 . S
C902 C898 1.531 . S
C902 H914 0.960 . S
C902 H915 0.962 . S
C902 H916 0.960 . S
C903 C900 1.511 . S
C903 H917 0.961 . S
C903 H918 0.961 . S
C903 H919 0.961 . S
C904 C905 1.370 . S
C904 C906 1.363 . S
C904 H920 0.931 . S
C905 C904 1.370 . S
C905 C909 1.408 . S
C906 C904 1.363 . S
C906 C907 1.370 . S
C906 C910 1.524 . S
C907 C899 1.503 . S
C907 C906 1.370 . S
C907 C908 1.403 . S
C908 C907 1.403 . S
C908 C909 1.404 . S
C908 C911 1.539 . S
C909 C905 1.408 . S
C909 C908 1.404 . S
C909 H921 0.930 . S
C910 C906 1.524 . S
C910 H922 0.956 . S
C910 H923 0.961 . S
C910 H924 0.961 . S
C911 C908 1.539 . S
C911 H925 0.958 . S
C911 H926 0.961 . S
C911 H927 0.960 . S
H912 C896 0.931 . S
H913 C901 0.929 . S
H914 C902 0.960 . S
H915 C902 0.962 . S
H916 C902 0.960 . S
H917 C903 0.961 . S
H918 C903 0.961 . S
H919 C903 0.961 . S
H920 C904 0.931 . S
H921 C909 0.930 . S
H922 C910 0.956 . S
H923 C910 0.961 . S
H924 C910 0.961 . S
H925 C911 0.958 . S
H926 C911 0.961 . S
H927 C911 0.960 . S
C928 C929 1.391 . S
C928 C930 1.394 . S
C928 H944 0.931 . S
C929 C928 1.391 . S
C929 C933 1.376 . S
C930 C928 1.394 . S
C930 C931 1.369 . S
C930 C934 1.531 . S
C931 C930 1.369 . S
C931 C932 1.410 . S
C931 C939 1.503 . S
C932 C931 1.410 . S
C932 C933 1.392 . S
C932 C935 1.511 . S
C933 C929 1.376 . S
C933 C932 1.392 . S
C933 H945 0.929 . S
C934 C930 1.531 . S
C934 H946 0.960 . S
C934 H947 0.962 . S
C934 H948 0.960 . S
C935 C932 1.511 . S
C935 H949 0.961 . S
C935 H950 0.961 . S
C935 H951 0.961 . S
C936 C937 1.370 . S
C936 C938 1.363 . S
C936 H952 0.931 . S
C937 C936 1.370 . S
C937 C941 1.408 . S
C938 C936 1.363 . S
C938 C939 1.370 . S
C938 C942 1.524 . S
C939 C931 1.503 . S
C939 C938 1.370 . S
C939 C940 1.403 . S
C940 C939 1.403 . S
C940 C941 1.404 . S
C940 C943 1.539 . S
C941 C937 1.408 . S
C941 C940 1.404 . S
C941 H953 0.930 . S
C942 C938 1.524 . S
C942 H954 0.956 . S
C942 H955 0.961 . S
C942 H956 0.961 . S
C943 C940 1.539 . S
C943 H957 0.958 . S
C943 H958 0.961 . S
C943 H959 0.960 . S
H944 C928 0.931 . S
H945 C933 0.929 . S
H946 C934 0.960 . S
H947 C934 0.962 . S
H948 C934 0.960 . S
H949 C935 0.961 . S
H950 C935 0.961 . S
H951 C935 0.961 . S
H952 C936 0.931 . S
H953 C941 0.930 . S
H954 C942 0.956 . S
H955 C942 0.961 . S
H956 C942 0.961 . S
H957 C943 0.958 . S
H958 C943 0.961 . S
H959 C943 0.960 . S
C960 C961 1.391 . S
C960 C962 1.394 . S
C960 H976 0.931 . S
C961 C960 1.391 . S
C961 C965 1.376 . S
C962 C960 1.394 . S
C962 C963 1.369 . S
C962 C966 1.531 . S
C963 C962 1.369 . S
C963 C964 1.410 . S
C963 C971 1.503 . S
C964 C963 1.410 . S
C964 C965 1.392 . S
C964 C967 1.511 . S
C965 C961 1.376 . S
C965 C964 1.392 . S
C965 H977 0.929 . S
C966 C962 1.531 . S
C966 H978 0.960 . S
C966 H979 0.962 . S
C966 H980 0.960 . S
C967 C964 1.511 . S
C967 H981 0.961 . S
C967 H982 0.961 . S
C967 H983 0.961 . S
C968 C969 1.370 . S
C968 C970 1.363 . S
C968 H984 0.931 . S
C969 C968 1.370 . S
C969 C973 1.408 . S
C970 C968 1.363 . S
C970 C971 1.370 . S
C970 C974 1.524 . S
C971 C963 1.503 . S
C971 C970 1.370 . S
C971 C972 1.403 . S
C972 C971 1.403 . S
C972 C973 1.404 . S
C972 C975 1.539 . S
C973 C969 1.408 . S
C973 C972 1.404 . S
C973 H985 0.930 . S
C974 C970 1.524 . S
C974 H986 0.956 . S
C974 H987 0.961 . S
C974 H988 0.961 . S
C975 C972 1.539 . S
C975 H989 0.958 . S
C975 H990 0.961 . S
C975 H991 0.960 . S
H976 C960 0.931 . S
H977 C965 0.929 . S
H978 C966 0.960 . S
H979 C966 0.962 . S
H980 C966 0.960 . S
H981 C967 0.961 . S
H982 C967 0.961 . S
H983 C967 0.961 . S
H984 C968 0.931 . S
H985 C973 0.930 . S
H986 C974 0.956 . S
H987 C974 0.961 . S
H988 C974 0.961 . S
H989 C975 0.958 . S
H990 C975 0.961 . S
H991 C975 0.960 . S
C992 C993 1.391 . S
C992 C994 1.394 . S
C992 H1008 0.931 . S
C993 C992 1.391 . S
C993 C997 1.376 . S
C994 C992 1.394 . S
C994 C995 1.369 . S
C994 C998 1.531 . S
C995 C994 1.369 . S
C995 C996 1.410 . S
C995 C1003 1.503 . S
C996 C995 1.410 . S
C996 C997 1.392 . S
C996 C999 1.511 . S
C997 C993 1.376 . S
C997 C996 1.392 . S
C997 H1009 0.929 . S
C998 C994 1.531 . S
C998 H1010 0.960 . S
C998 H1011 0.962 . S
C998 H1012 0.960 . S
C999 C996 1.511 . S
C999 H1013 0.961 . S
C999 H1014 0.961 . S
C999 H1015 0.961 . S
C1000 C1001 1.370 . S
C1000 C1002 1.363 . S
C1000 H1016 0.931 . S
C1001 C1000 1.370 . S
C1001 C1005 1.408 . S
C1002 C1000 1.363 . S
C1002 C1003 1.370 . S
C1002 C1006 1.524 . S
C1003 C995 1.503 . S
C1003 C1002 1.370 . S
C1003 C1004 1.403 . S
C1004 C1003 1.403 . S
C1004 C1005 1.404 . S
C1004 C1007 1.539 . S
C1005 C1001 1.408 . S
C1005 C1004 1.404 . S
C1005 H1017 0.930 . S
C1006 C1002 1.524 . S
C1006 H1018 0.956 . S
C1006 H1019 0.961 . S
C1006 H1020 0.961 . S
C1007 C1004 1.539 . S
C1007 H1021 0.958 . S
C1007 H1022 0.961 . S
C1007 H1023 0.960 . S
H1008 C992 0.931 . S
H1009 C997 0.929 . S
H1010 C998 0.960 . S
H1011 C998 0.962 . S
H1012 C998 0.960 . S
H1013 C999 0.961 . S
H1014 C999 0.961 . S
H1015 C999 0.961 . S
H1016 C1000 0.931 . S
H1017 C1005 0.930 . S
H1018 C1006 0.956 . S
H1019 C1006 0.961 . S
H1020 C1006 0.961 . S
H1021 C1007 0.958 . S
H1022 C1007 0.961 . S
H1023 C1007 0.960 . S
C1024 C1025 1.391 . S
C1024 C1026 1.394 . S
C1024 H1040 0.931 . S
C1025 C1024 1.391 . S
C1025 C1029 1.376 . S
C1026 C1024 1.394 . S
C1026 C1027 1.369 . S
C1026 C1030 1.531 . S
C1027 C1026 1.369 . S
C1027 C1028 1.410 . S
C1027 C1035 1.503 . S
C1028 C1027 1.410 . S
C1028 C1029 1.392 . S
C1028 C1031 1.511 . S
C1029 C1025 1.376 . S
C1029 C1028 1.392 . S
C1029 H1041 0.929 . S
C1030 C1026 1.531 . S
C1030 H1042 0.960 . S
C1030 H1043 0.962 . S
C1030 H1044 0.960 . S
C1031 C1028 1.511 . S
C1031 H1045 0.961 . S
C1031 H1046 0.961 . S
C1031 H1047 0.961 . S
C1032 C1033 1.370 . S
C1032 C1034 1.363 . S
C1032 H1048 0.931 . S
C1033 C1032 1.370 . S
C1033 C1037 1.408 . S
C1034 C1032 1.363 . S
C1034 C1035 1.370 . S
C1034 C1038 1.524 . S
C1035 C1027 1.503 . S
C1035 C1034 1.370 . S
C1035 C1036 1.403 . S
C1036 C1035 1.403 . S
C1036 C1037 1.404 . S
C1036 C1039 1.539 . S
C1037 C1033 1.408 . S
C1037 C1036 1.404 . S
C1037 H1049 0.930 . S
C1038 C1034 1.524 . S
C1038 H1050 0.956 . S
C1038 H1051 0.961 . S
C1038 H1052 0.961 . S
C1039 C1036 1.539 . S
C1039 H1053 0.958 . S
C1039 H1054 0.961 . S
C1039 H1055 0.960 . S
H1040 C1024 0.931 . S
H1041 C1029 0.929 . S
H1042 C1030 0.960 . S
H1043 C1030 0.962 . S
H1044 C1030 0.960 . S
H1045 C1031 0.961 . S
H1046 C1031 0.961 . S
H1047 C1031 0.961 . S
H1048 C1032 0.931 . S
H1049 C1037 0.930 . S
H1050 C1038 0.956 . S
H1051 C1038 0.961 . S
H1052 C1038 0.961 . S
H1053 C1039 0.958 . S
H1054 C1039 0.961 . S
H1055 C1039 0.960 . S
C1056 C1057 1.391 . S
C1056 C1058 1.394 . S
C1056 H1072 0.931 . S
C1057 C1056 1.391 . S
C1057 C1061 1.376 . S
C1058 C1056 1.394 . S
C1058 C1059 1.369 . S
C1058 C1062 1.531 . S
C1059 C1058 1.369 . S
C1059 C1060 1.410 . S
C1059 C1067 1.503 . S
C1060 C1059 1.410 . S
C1060 C1061 1.392 . S
C1060 C1063 1.511 . S
C1061 C1057 1.376 . S
C1061 C1060 1.392 . S
C1061 H1073 0.929 . S
C1062 C1058 1.531 . S
C1062 H1074 0.960 . S
C1062 H1075 0.962 . S
C1062 H1076 0.960 . S
C1063 C1060 1.511 . S
C1063 H1077 0.961 . S
C1063 H1078 0.961 . S
C1063 H1079 0.961 . S
C1064 C1065 1.370 . S
C1064 C1066 1.363 . S
C1064 H1080 0.931 . S
C1065 C1064 1.370 . S
C1065 C1069 1.408 . S
C1066 C1064 1.363 . S
C1066 C1067 1.370 . S
C1066 C1070 1.524 . S
C1067 C1059 1.503 . S
C1067 C1066 1.370 . S
C1067 C1068 1.403 . S
C1068 C1067 1.403 . S
C1068 C1069 1.404 . S
C1068 C1071 1.539 . S
C1069 C1065 1.408 . S
C1069 C1068 1.404 . S
C1069 H1081 0.930 . S
C1070 C1066 1.524 . S
C1070 H1082 0.956 . S
C1070 H1083 0.961 . S
C1070 H1084 0.961 . S
C1071 C1068 1.539 . S
C1071 H1085 0.958 . S
C1071 H1086 0.961 . S
C1071 H1087 0.960 . S
H1072 C1056 0.931 . S
H1073 C1061 0.929 . S
H1074 C1062 0.960 . S
H1075 C1062 0.962 . S
H1076 C1062 0.960 . S
H1077 C1063 0.961 . S
H1078 C1063 0.961 . S
H1079 C1063 0.961 . S
H1080 C1064 0.931 . S
H1081 C1069 0.930 . S
H1082 C1070 0.956 . S
H1083 C1070 0.961 . S
H1084 C1070 0.961 . S
H1085 C1071 0.958 . S
H1086 C1071 0.961 . S
H1087 C1071 0.960 . S
C1088 C1089 1.391 . S
C1088 C1090 1.394 . S
C1088 H1104 0.931 . S
C1089 C1088 1.391 . S
C1089 C1093 1.376 . S
C1090 C1088 1.394 . S
C1090 C1091 1.369 . S
C1090 C1094 1.531 . S
C1091 C1090 1.369 . S
C1091 C1092 1.410 . S
C1091 C1099 1.503 1_556 S
C1092 C1091 1.410 . S
C1092 C1093 1.392 . S
C1092 C1095 1.511 . S
C1093 C1089 1.376 . S
C1093 C1092 1.392 . S
C1093 H1105 0.929 . S
C1094 C1090 1.531 . S
C1094 H1106 0.960 1_556 S
C1094 H1107 0.962 . S
C1094 H1108 0.960 . S
C1095 C1092 1.511 . S
C1095 H1109 0.961 . S
C1095 H1110 0.898 1_556 S
C1095 H1111 0.961 . S
C1096 C1097 1.370 . S
C1096 C1098 1.363 . S
C1096 H1112 0.931 . S
C1097 C1096 1.370 . S
C1097 C1101 1.408 . S
C1098 C1096 1.363 . S
C1098 C1099 1.370 . S
C1098 C1102 1.531 1_554 S
C1099 C1091 1.503 1_554 S
C1099 C1098 1.370 . S
C1099 C1100 1.403 . S
C1100 C1099 1.403 . S
C1100 C1101 1.404 . S
C1100 C1103 1.539 . S
C1101 C1097 1.408 . S
C1101 C1100 1.404 . S
C1101 H1113 0.930 . S
C1102 C1098 1.531 1_556 S
C1102 H1114 0.951 . S
C1102 H1115 0.954 . S
C1102 H1116 0.965 1_556 S
C1103 C1100 1.539 . S
C1103 H1117 0.958 . S
C1103 H1118 0.961 . S
C1103 H1119 0.960 . S
H1104 C1088 0.931 . S
H1105 C1093 0.929 . S
H1106 C1094 0.960 1_554 S
H1107 C1094 0.962 . S
H1108 C1094 0.960 . S
H1109 C1095 0.961 . S
H1110 C1095 0.898 1_554 S
H1111 C1095 0.961 . S
H1112 C1096 0.931 . S
H1113 C1101 0.930 . S
H1114 C1102 0.951 . S
H1115 C1102 0.954 . S
H1116 C1102 0.965 1_554 S
H1117 C1103 0.958 . S
H1118 C1103 0.961 . S
H1119 C1103 0.960 . S
C1120 C1121 1.391 . S
C1120 C1122 1.394 . S
C1120 H1136 0.931 . S
C1121 C1120 1.391 . S
C1121 C1125 1.376 . S
C1122 C1120 1.394 . S
C1122 C1123 1.369 . S
C1122 C1126 1.531 . S
C1123 C1122 1.369 . S
C1123 C1124 1.410 . S
C1123 C1131 1.503 1_554 S
C1124 C1123 1.410 . S
C1124 C1125 1.392 . S
C1124 C1127 1.511 . S
C1125 C1121 1.376 . S
C1125 C1124 1.392 . S
C1125 H1137 0.929 . S
C1126 C1122 1.531 . S
C1126 H1138 0.960 . S
C1126 H1139 0.962 . S
C1126 H1140 0.960 . S
C1127 C1124 1.511 . S
C1127 H1141 0.961 . S
C1127 H1142 0.961 1_554 S
C1127 H1143 0.968 . S
C1128 C1129 1.370 . S
C1128 C1130 1.363 . S
C1128 H1144 0.931 . S
C1129 C1128 1.370 . S
C1129 C1133 1.408 . S
C1130 C1128 1.363 . S
C1130 C1131 1.370 . S
C1130 C1134 1.524 . S
C1131 C1123 1.503 1_556 S
C1131 C1130 1.370 . S
C1131 C1132 1.403 . S
C1132 C1131 1.403 . S
C1132 C1133 1.404 . S
C1132 C1135 1.539 . S
C1133 C1129 1.408 . S
C1133 C1132 1.404 . S
C1133 H1145 0.930 . S
C1134 C1130 1.524 . S
C1134 H1146 0.995 . S
C1134 H1147 0.961 . S
C1134 H1148 0.961 . S
C1135 C1132 1.539 . S
C1135 H1149 0.958 . S
C1135 H1150 0.961 . S
C1135 H1151 0.901 1_556 S
H1136 C1120 0.931 . S
H1137 C1125 0.929 . S
H1138 C1126 0.960 . S
H1139 C1126 0.962 . S
H1140 C1126 0.960 . S
H1141 C1127 0.961 . S
H1142 C1127 0.961 1_556 S
H1143 C1127 0.968 . S
H1144 C1128 0.931 . S
H1145 C1133 0.930 . S
H1146 C1134 0.995 . S
H1147 C1134 0.961 . S
H1148 C1134 0.961 . S
H1149 C1135 0.958 . S
H1150 C1135 0.961 . S
H1151 C1135 0.901 1_554 S
C1152 C1153 1.391 . S
C1152 C1154 1.394 . S
C1152 H1168 0.931 . S
C1153 C1152 1.391 . S
C1153 C1157 1.376 . S
C1154 C1152 1.394 . S
C1154 C1155 1.369 . S
C1154 C1158 1.531 . S
C1155 C1154 1.369 . S
C1155 C1156 1.410 . S
C1155 C1163 1.503 . S
C1156 C1155 1.410 . S
C1156 C1157 1.392 . S
C1156 C1159 1.511 . S
C1157 C1153 1.376 . S
C1157 C1156 1.392 . S
C1157 H1169 0.929 . S
C1158 C1154 1.531 . S
C1158 H1170 0.960 . S
C1158 H1171 0.962 . S
C1158 H1172 0.960 . S
C1159 C1156 1.511 . S
C1159 H1173 0.961 . S
C1159 H1174 0.961 . S
C1159 H1175 0.961 . S
C1160 C1161 1.370 . S
C1160 C1162 1.363 . S
C1160 H1176 0.931 . S
C1161 C1160 1.370 . S
C1161 C1165 1.408 . S
C1162 C1160 1.363 . S
C1162 C1163 1.370 . S
C1162 C1166 1.524 . S
C1163 C1155 1.503 . S
C1163 C1162 1.370 . S
C1163 C1164 1.403 . S
C1164 C1163 1.403 . S
C1164 C1165 1.404 . S
C1164 C1167 1.539 . S
C1165 C1161 1.408 . S
C1165 C1164 1.404 . S
C1165 H1177 0.930 . S
C1166 C1162 1.524 . S
C1166 H1178 0.956 . S
C1166 H1179 0.961 . S
C1166 H1180 0.961 . S
C1167 C1164 1.539 . S
C1167 H1181 0.958 . S
C1167 H1182 0.961 . S
C1167 H1183 0.960 . S
H1168 C1152 0.931 . S
H1169 C1157 0.929 . S
H1170 C1158 0.960 . S
H1171 C1158 0.962 . S
H1172 C1158 0.960 . S
H1173 C1159 0.961 . S
H1174 C1159 0.961 . S
H1175 C1159 0.961 . S
H1176 C1160 0.931 . S
H1177 C1165 0.930 . S
H1178 C1166 0.956 . S
H1179 C1166 0.961 . S
H1180 C1166 0.961 . S
H1181 C1167 0.958 . S
H1182 C1167 0.961 . S
H1183 C1167 0.960 . S
C1184 C1185 1.391 . S
C1184 C1186 1.394 . S
C1184 H1200 0.931 . S
C1185 C1184 1.391 . S
C1185 C1189 1.376 . S
C1186 C1184 1.394 . S
C1186 C1187 1.369 . S
C1186 C1190 1.531 . S
C1187 C1186 1.369 . S
C1187 C1188 1.410 . S
C1187 C1195 1.503 . S
C1188 C1187 1.410 . S
C1188 C1189 1.392 . S
C1188 C1191 1.511 . S
C1189 C1185 1.376 . S
C1189 C1188 1.392 . S
C1189 H1201 0.929 . S
C1190 C1186 1.531 . S
C1190 H1202 0.960 . S
C1190 H1203 0.962 . S
C1190 H1204 0.960 . S
C1191 C1188 1.511 . S
C1191 H1205 0.961 . S
C1191 H1206 0.961 . S
C1191 H1207 0.961 . S
C1192 C1193 1.370 . S
C1192 C1194 1.363 . S
C1192 H1208 0.931 . S
C1193 C1192 1.370 . S
C1193 C1197 1.408 . S
C1194 C1192 1.363 . S
C1194 C1195 1.370 . S
C1194 C1198 1.524 . S
C1195 C1187 1.503 . S
C1195 C1194 1.370 . S
C1195 C1196 1.403 . S
C1196 C1195 1.403 . S
C1196 C1197 1.404 . S
C1196 C1199 1.539 . S
C1197 C1193 1.408 . S
C1197 C1196 1.404 . S
C1197 H1209 0.930 . S
C1198 C1194 1.524 . S
C1198 H1210 0.956 . S
C1198 H1211 0.961 . S
C1198 H1212 0.961 . S
C1199 C1196 1.539 . S
C1199 H1213 0.958 . S
C1199 H1214 0.961 . S
C1199 H1215 0.960 . S
H1200 C1184 0.931 . S
H1201 C1189 0.929 . S
H1202 C1190 0.960 . S
H1203 C1190 0.962 . S
H1204 C1190 0.960 . S
H1205 C1191 0.961 . S
H1206 C1191 0.961 . S
H1207 C1191 0.961 . S
H1208 C1192 0.931 . S
H1209 C1197 0.930 . S
H1210 C1198 0.956 . S
H1211 C1198 0.961 . S
H1212 C1198 0.961 . S
H1213 C1199 0.958 . S
H1214 C1199 0.961 . S
H1215 C1199 0.960 . S
C1216 C1217 1.391 . S
C1216 C1218 1.394 . S
C1216 H1232 0.931 . S
C1217 C1216 1.391 . S
C1217 C1221 1.376 . S
C1218 C1216 1.394 . S
C1218 C1219 1.369 . S
C1218 C1222 1.531 . S
C1219 C1218 1.369 . S
C1219 C1220 1.410 . S
C1219 C1227 1.503 . S
C1220 C1219 1.410 . S
C1220 C1221 1.392 . S
C1220 C1223 1.511 . S
C1221 C1217 1.376 . S
C1221 C1220 1.392 . S
C1221 H1233 0.929 . S
C1222 C1218 1.531 . S
C1222 H1234 0.960 . S
C1222 H1235 0.962 . S
C1222 H1236 0.960 . S
C1223 C1220 1.511 . S
C1223 H1237 0.961 . S
C1223 H1238 0.961 . S
C1223 H1239 0.961 . S
C1224 C1225 1.370 . S
C1224 C1226 1.363 . S
C1224 H1240 0.931 . S
C1225 C1224 1.370 . S
C1225 C1229 1.408 . S
C1226 C1224 1.363 . S
C1226 C1227 1.370 . S
C1226 C1230 1.524 . S
C1227 C1219 1.503 . S
C1227 C1226 1.370 . S
C1227 C1228 1.403 . S
C1228 C1227 1.403 . S
C1228 C1229 1.404 . S
C1228 C1231 1.539 . S
C1229 C1225 1.408 . S
C1229 C1228 1.404 . S
C1229 H1241 0.930 . S
C1230 C1226 1.524 . S
C1230 H1242 0.956 . S
C1230 H1243 0.961 . S
C1230 H1244 0.961 . S
C1231 C1228 1.539 . S
C1231 H1245 0.958 . S
C1231 H1246 0.961 . S
C1231 H1247 0.960 . S
H1232 C1216 0.931 . S
H1233 C1221 0.929 . S
H1234 C1222 0.960 . S
H1235 C1222 0.962 . S
H1236 C1222 0.960 . S
H1237 C1223 0.961 . S
H1238 C1223 0.961 . S
H1239 C1223 0.961 . S
H1240 C1224 0.931 . S
H1241 C1229 0.930 . S
H1242 C1230 0.956 . S
H1243 C1230 0.961 . S
H1244 C1230 0.961 . S
H1245 C1231 0.958 . S
H1246 C1231 0.961 . S
H1247 C1231 0.960 . S
C225 C148 1.602 . S
C233 C8 1.590 . S
C257 C22 1.579 . S
C265 C162 1.599 . S
C289 C120 1.596 . S
C297 C36 1.590 . S
C321 C134 1.589 . S
C329 C50 1.596 . S
C353 C64 1.581 . S
C361 C204 1.599 . S
C385 C218 1.598 . S
C393 C78 1.592 . S
C417 C92 1.581 . S
C425 C176 1.599 . S
C449 C190 1.583 . S
C457 C106 1.598 . S
C481 C149 1.476 . S
C489 C9 1.486 . S
C513 C23 1.477 . S
C521 C163 1.485 . S
C545 C37 1.490 . S
C553 C121 1.479 . S
C577 C51 1.480 . S
C585 C135 1.484 . S
C609 C65 1.468 . S
C617 C205 1.489 . S
C641 C79 1.477 . S
C649 C219 1.485 . S
C673 C177 1.475 . S
C681 C93 1.486 . S
C705 C191 1.467 . S
C713 C107 1.489 . S
C737 C7 1.275 . S
C745 C91 1.270 . S
C769 C21 1.292 . S
C777 C105 1.259 . S
C801 C35 1.289 . S
C809 C63 1.258 . S
C833 C49 1.283 . S
C841 C77 1.260 . S
C865 C119 1.290 . S
C873 C203 1.262 . S
C897 C217 1.265 . S
C905 C133 1.274 . S
C929 C147 1.241 . S
C937 C175 1.277 . S
C961 C189 1.286 . S
C969 C161 1.259 . S
C993 C3 1.188 . S
C1001 C213 1.231 . S
C1025 C171 1.186 . S
C1033 C17 1.229 . S
C1057 C185 1.252 . S
C1065 C31 1.227 . S
C1089 C199 1.197 . S
C1097 C45 1.235 . S
C1121 C129 1.205 . S
C1129 C59 1.211 . S
C1153 C143 1.219 . S
C1161 C73 1.209 . S
C1185 C87 1.210 . S
C1193 C157 1.210 . S
C1217 C101 1.239 . S
C1225 C115 1.234 . S
