# Generated by pormake.
# Topology vme, (6)-cn, num edge types: 1
# Building blocks:
#     Node 0, Type 0, BuildingBlock: VOLQOD_clean_sbu_1, # of connection points: 6
#     Node 1, Type 0, BuildingBlock: VOLQOD_clean_sbu_1, # of connection points: 6
#     Node 2, Type 0, BuildingBlock: VOLQOD_clean_sbu_1, # of connection points: 6
#     Node 3, Type 0, BuildingBlock: VOLQOD_clean_sbu_1, # of connection points: 6
#     Edge 4, Type (0, 0), BuildingBlock: MIFKUJ_clean_linker_0, # of connection points: 2
#     Edge 5, Type (0, 0), BuildingBlock: MIFKUJ_clean_linker_0, # of connection points: 2
#     Edge 6, Type (0, 0), BuildingBlock: MIFKUJ_clean_linker_0, # of connection points: 2
#     Edge 7, Type (0, 0), BuildingBlock: MIFKUJ_clean_linker_0, # of connection points: 2
#     Edge 8, Type (0, 0), BuildingBlock: MIFKUJ_clean_linker_0, # of connection points: 2
#     Edge 9, Type (0, 0), BuildingBlock: MIFKUJ_clean_linker_0, # of connection points: 2
#     Edge 10, Type (0, 0), BuildingBlock: MIFKUJ_clean_linker_0, # of connection points: 2
#     Edge 11, Type (0, 0), BuildingBlock: MIFKUJ_clean_linker_0, # of connection points: 2
#     Edge 12, Type (0, 0), BuildingBlock: MIFKUJ_clean_linker_0, # of connection points: 2
#     Edge 13, Type (0, 0), BuildingBlock: MIFKUJ_clean_linker_0, # of connection points: 2
#     Edge 14, Type (0, 0), BuildingBlock: MIFKUJ_clean_linker_0, # of connection points: 2
#     Edge 15, Type (0, 0), BuildingBlock: MIFKUJ_clean_linker_0, # of connection points: 2
# Relax obj value: 0.301
# Max RMSD: 0.246
# Mean RMSD: 0.246
data_MOF--net-vme--node1-VOLQOD_clean_sbu_1--edge1-MIFKUJ_clean_linker_0
_symmetry_space_group_name_H-M    P1
_symmetry_Int_Tables_number       1
_symmetry_cell_setting            triclinic
loop_
_symmetry_equiv_pos_as_xyz
'x, y, z'
_cell_length_a     34.1274
_cell_length_b     34.511352
_cell_length_c     37.082367
_cell_angle_alpha  90.288206
_cell_angle_beta   114.87375
_cell_angle_gamma 89.784148
loop_
_atom_site_label
_atom_site_type_symbol
_atom_site_fract_x
_atom_site_fract_y
_atom_site_fract_z
_atom_type_partial_charge
O0 O 0.11505 0.38307 0.39635 0.0
Zn1 Zn 0.12872 0.36455 0.35113 0.0
O2 O 0.19099 0.3629 0.36737 0.0
Zn3 Zn 0.21078 0.30984 0.36638 0.0
Zn4 Zn 0.219 0.38448 0.4202 0.0
Zn5 Zn 0.20652 0.39495 0.33274 0.0
O6 O 0.23815 0.3046 0.32708 0.0
O7 O 0.22191 0.36157 0.29641 0.0
O8 O 0.10185 0.31152 0.33405 0.0
O9 O 0.15946 0.27441 0.34656 0.0
O10 O 0.24933 0.29075 0.42231 0.0
O11 O 0.24928 0.34267 0.458 0.0
O12 O 0.26478 0.42225 0.42517 0.0
O13 O 0.1013 0.40475 0.30816 0.0
O14 O 0.25951 0.42709 0.36379 0.0
O15 O 0.15732 0.43039 0.30108 0.0
C16 C 0.13699 0.40231 0.4278 0.0
C17 C 0.23661 0.32718 0.29929 0.0
C18 C 0.26016 0.30781 0.45575 0.0
C19 C 0.11883 0.27836 0.33485 0.0
C20 C 0.27833 0.43549 0.4006 0.0
C21 C 0.11718 0.43007 0.29316 0.0
O22 O 0.17718 0.40825 0.43889 0.0
O23 O 0.88889 0.88652 0.11902 0.0
Zn24 Zn 0.86589 0.86639 0.15716 0.0
O25 O 0.80298 0.86685 0.13282 0.0
Zn26 Zn 0.77957 0.81461 0.12988 0.0
Zn27 Zn 0.78292 0.88937 0.08047 0.0
Zn28 Zn 0.78283 0.89983 0.16361 0.0
O29 O 0.74808 0.80992 0.16617 0.0
O30 O 0.76167 0.86757 0.19597 0.0
O31 O 0.88911 0.81214 0.17317 0.0
O32 O 0.82908 0.7769 0.15169 0.0
O33 O 0.74396 0.7981 0.07182 0.0
O34 O 0.7554 0.84837 0.04023 0.0
O35 O 0.73629 0.92872 0.07035 0.0
O36 O 0.88955 0.90446 0.20291 0.0
O37 O 0.73238 0.93217 0.12839 0.0
O38 O 0.83044 0.93451 0.19954 0.0
C39 C 0.87188 0.90599 0.08703 0.0
C40 C 0.74686 0.8333 0.19256 0.0
C41 C 0.74001 0.81478 0.03974 0.0
C42 C 0.87013 0.77946 0.16804 0.0
C43 C 0.71839 0.94152 0.09196 0.0
C44 C 0.87142 0.93163 0.2138 0.0
O45 O 0.83129 0.9118 0.07003 0.0
O46 O 0.89092 0.60937 0.62472 0.0
Zn47 Zn 0.86527 0.62944 0.66117 0.0
O48 O 0.8026 0.6288 0.63489 0.0
Zn49 Zn 0.77876 0.68081 0.63171 0.0
Zn50 Zn 0.78541 0.60687 0.58259 0.0
Zn51 Zn 0.78065 0.59518 0.66345 0.0
O52 O 0.74485 0.68482 0.666 0.0
O53 O 0.75815 0.62721 0.69559 0.0
O54 O 0.88805 0.68339 0.67904 0.0
O55 O 0.82781 0.71852 0.65591 0.0
O56 O 0.74597 0.69769 0.5735 0.0
O57 O 0.76189 0.64865 0.54275 0.0
O58 O 0.73625 0.57002 0.56886 0.0
O59 O 0.88702 0.591 0.70607 0.0
O60 O 0.73011 0.56423 0.6257 0.0
O61 O 0.82759 0.55927 0.69882 0.0
C62 C 0.87543 0.58807 0.59376 0.0
C63 C 0.74284 0.66144 0.69184 0.0
C64 C 0.74532 0.68188 0.54197 0.0
C65 C 0.8688 0.71601 0.67377 0.0
C66 C 0.71679 0.55679 0.58879 0.0
C67 C 0.86859 0.56272 0.71467 0.0
O68 O 0.83504 0.58163 0.57582 0.0
O69 O 0.11261 0.11113 0.88832 0.0
Zn70 Zn 0.12928 0.13054 0.84583 0.0
O71 O 0.19169 0.13077 0.86495 0.0
Zn72 Zn 0.21291 0.18335 0.86566 0.0
Zn73 Zn 0.21743 0.10785 0.91719 0.0
Zn74 Zn 0.20748 0.09855 0.83067 0.0
O75 O 0.24122 0.18791 0.82699 0.0
O76 O 0.22194 0.13184 0.79437 0.0
O77 O 0.10378 0.18387 0.82933 0.0
O78 O 0.16239 0.22018 0.84531 0.0
O79 O 0.25072 0.20091 0.92263 0.0
O80 O 0.24755 0.1489 0.95652 0.0
O81 O 0.2633 0.06916 0.92254 0.0
O82 O 0.10222 0.09147 0.80179 0.0
O83 O 0.26094 0.06756 0.86195 0.0
O84 O 0.15915 0.06215 0.79943 0.0
C85 C 0.13251 0.09114 0.91956 0.0
C86 C 0.23799 0.16568 0.79817 0.0
C87 C 0.25978 0.18346 0.9555 0.0
C88 C 0.12151 0.21681 0.83176 0.0
C89 C 0.27838 0.05758 0.8983 0.0
C90 C 0.11858 0.06425 0.78918 0.0
O91 O 0.17293 0.08476 0.93279 0.0
H92 H 0.8443 0.99568 0.24089 0.0
H93 H 0.88602 0.05407 0.26992 0.0
H94 H 0.00048 -0.00085 0.27163 0.0
H95 H 0.95921 0.94042 0.2429 0.0
H96 H 0.01826 0.04696 0.33708 0.0
H97 H 0.94075 0.0529 0.19415 0.0
H98 H 0.87565 0.04893 0.13079 0.0
H99 H 0.81684 0.14109 0.16894 0.0
H100 H 0.88142 0.14521 0.23281 0.0
H101 H 0.14293 0.20452 0.32651 0.0
H102 H 0.09957 0.14583 0.31283 0.0
H103 H 0.9898 0.213 0.30594 0.0
H104 H 0.03289 0.27229 0.319 0.0
H105 H 0.96669 0.16043 0.24737 0.0
H106 H 0.04841 0.15883 0.38837 0.0
H107 H 0.1142 0.16246 0.45116 0.0
H108 H 0.16587 0.06239 0.41696 0.0
H109 H 0.10065 0.05848 0.35367 0.0
C110 C 0.87856 0.99561 0.24823 0.0
C111 C 0.89823 0.96352 0.23892 0.0
C112 C 0.90231 0.02909 0.26475 0.0
C113 C 0.94608 0.03116 0.27212 0.0
C114 C 0.96666 -0.00182 0.26595 0.0
C115 C 0.94294 0.96463 0.24944 0.0
C116 C 0.96925 0.06867 0.28232 0.0
C117 C 0.0072 0.07175 0.31744 0.0
C118 C 0.95428 0.10116 0.25695 0.0
C119 C 0.91569 0.09908 0.21839 0.0
C120 C 0.91381 0.07213 0.18912 0.0
C121 C 0.87703 0.06988 0.15311 0.0
C122 C 0.84208 0.09467 0.14589 0.0
C123 C 0.84391 0.12186 0.17461 0.0
C124 C 0.88059 0.12418 0.21071 0.0
C125 C 0.10953 0.20697 0.32199 0.0
C126 C 0.09146 0.24317 0.32406 0.0
C127 C 0.08485 0.17327 0.31442 0.0
C128 C 0.04172 0.17491 0.3092 0.0
C129 C 0.02315 0.21106 0.31017 0.0
C130 C 0.04781 0.24492 0.31758 0.0
C131 C 0.01599 0.13883 0.30212 0.0
C132 C 0.97756 0.13593 0.26741 0.0
C133 C 0.03062 0.10654 0.32788 0.0
C134 C 0.06974 0.10855 0.36612 0.0
C135 C 0.07392 0.13774 0.39411 0.0
C136 C 0.1111 0.13983 0.42982 0.0
C137 C 0.14423 0.11272 0.43801 0.0
C138 C 0.14019 0.08339 0.41056 0.0
C139 C 0.10309 0.0812 0.37479 0.0
H140 H 0.17301 0.11441 0.46566 0.0
H141 H 0.81362 0.09287 0.118 0.0
H142 H 0.02986 0.43936 0.26865 0.0
H143 H 0.98735 0.4978 0.24084 0.0
H144 H 0.09947 0.55328 0.23895 0.0
H145 H 0.14226 0.49509 0.26663 0.0
H146 H 0.06122 0.5959 0.27874 0.0
H147 H 0.01787 0.53002 0.15359 0.0
H148 H 0.98881 0.47571 0.10642 0.0
H149 H 0.86844 0.4836 0.11693 0.0
H150 H 0.897 0.53763 0.16462 0.0
H151 H 0.95647 0.77023 0.1876 0.0
H152 H -0.00204 0.70993 0.20378 0.0
H153 H 0.88413 0.64695 0.19188 0.0
H154 H 0.84217 0.70686 0.17453 0.0
H155 H 0.92445 0.60805 0.15711 0.0
H156 H 0.96676 0.6695 0.28415 0.0
H157 H 0.99438 0.7222 0.33357 0.0
H158 H 0.11471 0.72064 0.32256 0.0
H159 H 0.08758 0.66823 0.27267 0.0
C160 C 0.04532 0.46368 0.2616 0.0
C161 C 0.08959 0.46258 0.27018 0.0
C162 C 0.02092 0.49704 0.24562 0.0
C163 C 0.04034 0.52986 0.23797 0.0
C164 C 0.08395 0.52826 0.24478 0.0
C165 C 0.10829 0.49487 0.26047 0.0
C166 C 0.01622 0.56686 0.22615 0.0
C167 C 0.0317 0.5988 0.25178 0.0
C168 C 0.97701 0.57013 0.1917 0.0
C169 C 0.95974 0.53766 0.16298 0.0
C170 C 0.98534 0.51996 0.14612 0.0
C171 C 0.96892 0.48927 0.11922 0.0
C172 C 0.92684 0.47615 0.10876 0.0
C173 C 0.90105 0.49376 0.1251 0.0
C174 C 0.91732 0.52446 0.15203 0.0
C175 C 0.94032 0.74359 0.18867 0.0
C176 C 0.89604 0.7434 0.1799 0.0
C177 C 0.96411 0.70912 0.19798 0.0
C178 C 0.94428 0.67391 0.19945 0.0
C179 C 0.90012 0.6737 0.19083 0.0
C180 C 0.87622 0.70805 0.18109 0.0
C181 C 0.96942 0.63721 0.20975 0.0
C182 C 0.95411 0.60528 0.18395 0.0
C183 C 0.00855 0.63373 0.24437 0.0
C184 C 0.02496 0.66523 0.27437 0.0
C185 C -0.00102 0.68061 0.29204 0.0
C186 C 0.01457 0.71038 0.32017 0.0
C187 C 0.05623 0.72484 0.33111 0.0
C188 C 0.08242 0.70946 0.31401 0.0
C189 C 0.06697 0.6797 0.28583 0.0
H190 H 0.06824 0.74789 0.35291 0.0
H191 H 0.91419 0.45238 0.08793 0.0
H192 H 0.03023 0.06046 0.75652 0.0
H193 H 0.98579 0.00249 0.73226 0.0
H194 H 0.09947 0.93546 0.7503 0.0
H195 H 0.14392 0.99337 0.77341 0.0
H196 H 0.03357 0.91115 0.68597 0.0
H197 H 0.0578 0.94141 0.82075 0.0
H198 H 0.05586 0.98283 0.87442 0.0
H199 H 0.91756 0.98868 0.81448 0.0
H200 H 0.9187 0.94804 0.76 0.0
H201 H 0.95663 0.72439 0.70247 0.0
H202 H -0.00221 0.78482 0.71929 0.0
H203 H 0.88025 0.8496 0.69093 0.0
H204 H 0.83884 0.78948 0.67428 0.0
H205 H 0.94658 0.87537 0.75947 0.0
H206 H 0.92277 0.84516 0.62499 0.0
H207 H 0.92485 0.8037 0.57146 0.0
H208 H 0.06304 0.7966 0.63245 0.0
H209 H 0.06172 0.83761 0.68664 0.0
C210 C 0.04568 0.03356 0.75455 0.0
C211 C 0.09072 0.03146 0.76738 0.0
C212 C 0.02026 0.00039 0.74094 0.0
C213 C 0.0395 0.96445 0.74056 0.0
C214 C 0.08398 0.96283 0.75067 0.0
C215 C 0.10936 0.99604 0.76385 0.0
C216 C 0.01395 0.92817 0.73192 0.0
C217 C 0.01491 0.90318 0.70233 0.0
C218 C 0.98906 0.918 0.75291 0.0
C219 C 0.98838 0.94205 0.786 0.0
C220 C 0.02699 0.95178 0.81884 0.0
C221 C 0.02604 0.97511 0.84941 0.0
C222 C 0.98663 0.98852 0.84772 0.0
C223 C 0.94807 0.9784 0.81563 0.0
C224 C 0.94886 0.95525 0.78489 0.0
C225 C 0.93954 0.75144 0.70012 0.0
C226 C 0.89439 0.75209 0.68679 0.0
C227 C 0.9631 0.78595 0.70955 0.0
C228 C 0.94195 0.82167 0.70584 0.0
C229 C 0.89714 0.82232 0.69385 0.0
C230 C 0.87354 0.7879 0.68425 0.0
C231 C 0.96634 0.85848 0.71364 0.0
C232 C 0.9652 0.88349 0.74311 0.0
C233 C 0.99121 0.86858 0.69273 0.0
C234 C 0.9921 0.84414 0.66005 0.0
C235 C 0.95357 0.83452 0.62713 0.0
C236 C 0.95462 0.81114 0.59665 0.0
C237 C 0.99404 0.79744 0.59861 0.0
C238 C 0.03252 0.80719 0.631 0.0
C239 C 0.03164 0.83052 0.66159 0.0
H240 H 0.99478 0.77934 0.57498 0.0
H241 H 0.98592 0.00675 0.87124 0.0
H242 H 0.84172 0.49345 0.7323 0.0
H243 H 0.88558 0.43541 0.75815 0.0
H244 H 0.00029 0.4997 0.77543 0.0
H245 H 0.9568 0.55781 0.74938 0.0
H246 H 0.99117 0.43544 0.7305 0.0
H247 H 0.98469 0.46659 0.85423 0.0
H248 H 0.94888 0.48286 0.89788 0.0
H249 H 0.87977 0.37515 0.86767 0.0
H250 H 0.91472 0.35846 0.82337 0.0
H251 H 0.1472 0.29068 0.82644 0.0
H252 H 0.10335 0.34945 0.8098 0.0
H253 H 0.99075 0.28243 0.79379 0.0
H254 H 0.03449 0.22327 0.81071 0.0
H255 H 0.99765 0.34732 0.83812 0.0
H256 H 0.00203 0.3159 0.71448 0.0
H257 H 0.03444 0.29933 0.66818 0.0
H258 H 0.10398 0.40681 0.69538 0.0
H259 H 0.07252 0.42382 0.74237 0.0
C260 C 0.8764 0.49557 0.74251 0.0
C261 C 0.89563 0.53025 0.73832 0.0
C262 C 0.90145 0.4623 0.75733 0.0
C263 C 0.94616 0.46321 0.76849 0.0
C264 C 0.96578 0.49835 0.76673 0.0
C265 C 0.94082 0.5316 0.75197 0.0
C266 C 0.97179 0.42688 0.77818 0.0
C267 C 0.99325 0.4165 0.75451 0.0
C268 C 0.97301 0.40151 0.80847 0.0
C269 C 0.95203 0.41145 0.83518 0.0
C270 C 0.96158 0.44652 0.85662 0.0
C271 C 0.9415 0.45579 0.88154 0.0
C272 C 0.91199 0.4301 0.88547 0.0
C273 C 0.9026 0.39504 0.86456 0.0
C274 C 0.92257 0.38564 0.83958 0.0
C275 C 0.11308 0.28829 0.81923 0.0
C276 C 0.09437 0.25219 0.81988 0.0
C277 C 0.08803 0.32196 0.80959 0.0
C278 C 0.04375 0.32025 0.80031 0.0
C279 C 0.02489 0.28433 0.80087 0.0
C280 C 0.04991 0.25055 0.81036 0.0
C281 C 0.01746 0.35618 0.79075 0.0
C282 C 0.99572 0.36638 0.81425 0.0
C283 C 0.01568 0.38133 0.76008 0.0
C284 C 0.03526 0.37094 0.73232 0.0
C285 C 0.0246 0.33583 0.71095 0.0
C286 C 0.04271 0.3264 0.6845 0.0
C287 C 0.07129 0.35197 0.67893 0.0
C288 C 0.08185 0.38703 0.69978 0.0
C289 C 0.06388 0.39658 0.72633 0.0
H290 H 0.08522 0.34463 0.65844 0.0
H291 H 0.89647 0.43733 0.90478 0.0
H292 H 0.96031 0.60533 0.61422 0.0
H293 H 0.00999 0.57265 0.59191 0.0
H294 H 0.90828 0.4949 0.51974 0.0
H295 H 0.85819 0.52755 0.54154 0.0
H296 H 0.98966 0.45801 0.56738 0.0
H297 H 0.93115 0.56468 0.47511 0.0
H298 H 0.9145 0.63349 0.45754 0.0
H299 H 0.04938 0.66143 0.51619 0.0
H300 H 0.06677 0.5928 0.53459 0.0
H301 H 0.05775 0.38333 0.42428 0.0
H302 H 0.02037 0.41328 0.46095 0.0
H303 H 0.12902 0.48903 0.52079 0.0
H304 H 0.16691 0.45901 0.48458 0.0
H305 H 0.05103 0.52797 0.48642 0.0
H306 H 0.11227 0.42344 0.57424 0.0
H307 H 0.13249 0.35601 0.5959 0.0
H308 H -0.00144 0.32503 0.55142 0.0
H309 H 0.97747 0.39219 0.52896 0.0
C310 C 0.94846 0.58133 0.59354 0.0
C311 C 0.90524 0.56914 0.57949 0.0
C312 C 0.97689 0.56271 0.58088 0.0
C313 C 0.96269 0.53144 0.55424 0.0
C314 C 0.91977 0.51894 0.54044 0.0
C315 C 0.89117 0.53782 0.55269 0.0
C316 C 0.99233 0.51222 0.54001 0.0
C317 C 0.00279 0.47307 0.54932 0.0
C318 C 0.01063 0.53249 0.51783 0.0
C319 C 0.0002 0.5737 0.50662 0.0
C320 C 0.95722 0.58555 0.48457 0.0
C321 C 0.94765 0.62451 0.47439 0.0
C322 C 0.98085 0.65184 0.48585 0.0
C323 C 0.02369 0.64024 0.5074 0.0
C324 C 0.03342 0.60132 0.51769 0.0
C325 C 0.07385 0.40614 0.44546 0.0
C326 C 0.1152 0.41892 0.45139 0.0
C327 C 0.05258 0.42304 0.46657 0.0
C328 C 0.0721 0.45319 0.49368 0.0
C329 C 0.11355 0.46569 0.50006 0.0
C330 C 0.1351 0.44847 0.47937 0.0
C331 C 0.04777 0.47342 0.51305 0.0
C332 C 0.03827 0.51284 0.50473 0.0
C333 C 0.03086 0.45348 0.53659 0.0
C334 C 0.04327 0.41282 0.54943 0.0
C335 C 0.08709 0.40216 0.5686 0.0
C336 C 0.09873 0.364 0.58111 0.0
C337 C 0.06683 0.3362 0.57478 0.0
C338 C 0.02323 0.34656 0.55612 0.0
C339 C 0.01142 0.3847 0.54354 0.0
H340 H 0.07591 0.3067 0.58461 0.0
H341 H 0.97338 0.68198 0.47794 0.0
H342 H 0.84767 0.94997 0.01984 0.0
H343 H 0.89445 0.97982 0.99304 0.0
H344 H 0.00633 0.93067 0.08837 0.0
H345 H 0.95989 0.90105 0.11577 0.0
H346 H 0.01855 0.00594 0.07736 0.0
H347 H 0.96747 0.89292 0.99573 0.0
H348 H 0.91406 0.84696 0.95048 0.0
H349 H 0.86091 0.93656 0.86325 0.0
H350 H 0.91346 0.98328 0.90826 0.0
H351 H 0.1631 0.0474 0.98738 0.0
H352 H 0.1209 0.01555 0.01807 0.0
H353 H 0.00374 0.06296 0.92786 0.0
H354 H 0.04539 0.09463 0.89682 0.0
H355 H 0.99764 0.98563 0.93796 0.0
H356 H 0.04482 0.09958 0.02029 0.0
H357 H 0.09799 0.14614 0.06491 0.0
H358 H 0.15832 0.05551 0.14921 0.0
H359 H 0.10583 0.00826 0.10484 0.0
C360 C 0.8822 0.94532 0.03506 0.0
C361 C 0.9 0.92303 0.06993 0.0
C362 C 0.90888 0.96231 0.0196 0.0
C363 C 0.9538 0.95713 0.03853 0.0
C364 C 0.97171 0.93496 0.07331 0.0
C365 C 0.94508 0.91796 0.08883 0.0
C366 C 0.98214 0.97559 0.02245 0.0
C367 C 0.01438 0.00111 0.04702 0.0
C368 C 0.97608 0.96979 0.98264 0.0
C369 C 0.9441 0.94176 0.95565 0.0
C370 C 0.94408 0.90297 0.9671 0.0
C371 C 0.914 0.87675 0.94144 0.0
C372 C 0.884 0.88887 0.90408 0.0
C373 C 0.88408 0.92723 0.89225 0.0
C374 C 0.914 0.9536 0.91784 0.0
C375 C 0.12838 0.05129 0.97422 0.0
C376 C 0.10763 0.07359 0.93965 0.0
C377 C 0.10437 0.03316 0.99187 0.0
C378 C 0.05927 0.03706 0.97526 0.0
C379 C 0.03855 0.05959 0.94106 0.0
C380 C 0.06246 0.07777 0.92347 0.0
C381 C 0.03329 0.01656 0.99251 0.0
C382 C 0.0017 0.99048 0.96823 0.0
C383 C 0.03984 0.02198 0.03246 0.0
C384 C 0.0716 0.0503 0.05907 0.0
C385 C 0.06963 0.0895 0.04819 0.0
C386 C 0.09955 0.11604 0.0735 0.0
C387 C 0.13143 0.1038 0.1099 0.0
C388 C 0.13354 0.06496 0.12103 0.0
C389 C 0.10369 0.03829 0.09584 0.0
H390 H 0.15455 0.1244 0.12946 0.0
H391 H 0.86079 0.8685 0.88424 0.0
H392 H 0.31209 0.15333 0.02711 0.0
H393 H 0.32524 0.18088 0.09195 0.0
H394 H 0.26354 0.28728 0.03567 0.0
H395 H 0.25056 0.25988 0.97044 0.0
H396 H 0.33211 0.29742 0.11392 0.0
H397 H 0.20212 0.22082 0.04574 0.0
H398 H 0.16276 0.16199 0.01163 0.0
H399 H 0.23499 0.09445 0.11562 0.0
H400 H 0.27519 0.1528 0.15017 0.0
H401 H 0.23345 0.36653 0.23447 0.0
H402 H 0.25312 0.3434 0.18232 0.0
H403 H 0.29281 0.23385 0.2425 0.0
H404 H 0.27209 0.25656 0.29478 0.0
H405 H 0.24384 0.22255 0.16671 0.0
H406 H 0.36742 0.30013 0.23848 0.0
H407 H 0.40781 0.35829 0.273 0.0
H408 H 0.35037 0.42317 0.16463 0.0
H409 H 0.30912 0.36555 0.12956 0.0
C410 C 0.30269 0.1831 0.02867 0.0
C411 C 0.2797 0.20431 0.99377 0.0
C412 C 0.31017 0.19875 0.06571 0.0
C413 C 0.2944 0.2357 0.06841 0.0
C414 C 0.27575 0.2586 0.0341 0.0
C415 C 0.26848 0.24299 0.99688 0.0
C416 C 0.29127 0.24777 0.1055 0.0
C417 C 0.31268 0.2813 0.12546 0.0
C418 C 0.26668 0.22605 0.12093 0.0
C419 C 0.24201 0.19108 0.10037 0.0
C420 C 0.20983 0.19337 0.06122 0.0
C421 C 0.18737 0.16012 0.04181 0.0
C422 C 0.19658 0.12449 0.06137 0.0
C423 C 0.22809 0.12205 0.10044 0.0
C424 C 0.25066 0.1552 0.11997 0.0
C425 C 0.24668 0.33759 0.23697 0.0
C426 C 0.2511 0.31338 0.26891 0.0
C427 C 0.25827 0.3245 0.20715 0.0
C428 C 0.27511 0.2871 0.20872 0.0
C429 C 0.28007 0.26292 0.24077 0.0
C430 C 0.26824 0.27595 0.27064 0.0
C431 C 0.28451 0.27256 0.17539 0.0
C432 C 0.26395 0.23853 0.15581 0.0
C433 C 0.31004 0.29379 0.16053 0.0
C434 C 0.33492 0.32854 0.18145 0.0
C435 C 0.36315 0.32687 0.22206 0.0
C436 C 0.38624 0.35973 0.24172 0.0
C437 C 0.3816 0.39442 0.22104 0.0
C438 C 0.35392 0.39628 0.18062 0.0
C439 C 0.33072 0.36351 0.16082 0.0
H440 H 0.3995 0.41984 0.23631 0.0
H441 H 0.17906 0.09882 0.04641 0.0
H442 H 0.72948 0.87837 0.2446 0.0
H443 H 0.71381 0.85731 0.29968 0.0
H444 H 0.71239 0.73828 0.26333 0.0
H445 H 0.72815 0.75914 0.20761 0.0
H446 H 0.64831 0.7565 0.29205 0.0
H447 H 0.80166 0.77096 0.33142 0.0
H448 H 0.86701 0.80617 0.33779 0.0
H449 H 0.84127 0.89477 0.4067 0.0
H450 H 0.77535 0.86033 0.40021 0.0
H451 H 0.71533 0.64955 0.46854 0.0
H452 H 0.69922 0.68183 0.40586 0.0
H453 H 0.71892 0.79302 0.46457 0.0
H454 H 0.73602 0.76045 0.52826 0.0
H455 H 0.76663 0.78607 0.42396 0.0
H456 H 0.6185 0.7662 0.39293 0.0
H457 H 0.55356 0.7305 0.38681 0.0
H458 H 0.56854 0.65215 0.30316 0.0
H459 H 0.63396 0.68701 0.3092 0.0
C460 C 0.72528 0.84768 0.24782 0.0
C461 C 0.73076 0.82036 0.22197 0.0
C462 C 0.71623 0.83576 0.27937 0.0
C463 C 0.71259 0.79626 0.2859 0.0
C464 C 0.71517 0.76894 0.25876 0.0
C465 C 0.72427 0.78089 0.22701 0.0
C466 C 0.71027 0.78356 0.32309 0.0
C467 C 0.67421 0.76265 0.32094 0.0
C468 C 0.74354 0.79273 0.36075 0.0
C469 C 0.78333 0.81331 0.36493 0.0
C470 C 0.80974 0.79812 0.34764 0.0
C471 C 0.84692 0.8179 0.35132 0.0
C472 C 0.85822 0.85275 0.37253 0.0
C473 C 0.83243 0.86782 0.39021 0.0
C474 C 0.79517 0.84817 0.38656 0.0
C475 C 0.71543 0.68094 0.46811 0.0
C476 C 0.72737 0.70247 0.50346 0.0
C477 C 0.70579 0.6994 0.43205 0.0
C478 C 0.70757 0.73989 0.43033 0.0
C479 C 0.71722 0.76171 0.4652 0.0
C480 C 0.72676 0.74313 0.50151 0.0
C481 C 0.70475 0.75847 0.39324 0.0
C482 C 0.74013 0.78043 0.39527 0.0
C483 C 0.67081 0.75021 0.35559 0.0
C484 C 0.63135 0.72914 0.35172 0.0
C485 C 0.60816 0.74119 0.37345 0.0
C486 C 0.57121 0.72112 0.36995 0.0
C487 C 0.55697 0.68904 0.34466 0.0
C488 C 0.57961 0.67701 0.32274 0.0
C489 C 0.61659 0.69696 0.32614 0.0
H490 H 0.52836 0.67354 0.342 0.0
H491 H 0.88701 0.86803 0.37535 0.0
H492 H 0.71049 0.84733 0.96655 0.0
H493 H 0.69328 0.81492 0.90361 0.0
H494 H 0.70752 0.70379 0.9607 0.0
H495 H 0.72653 0.73647 0.02485 0.0
H496 H 0.75451 0.70594 0.92094 0.0
H497 H 0.60787 0.73687 0.8874 0.0
H498 H 0.54624 0.77797 0.88151 0.0
H499 H 0.57022 0.85319 0.80118 0.0
H500 H 0.63243 0.81291 0.80702 0.0
H501 H 0.72041 0.61636 0.74032 0.0
H502 H 0.70222 0.63741 0.79423 0.0
H503 H 0.70769 0.75673 0.76275 0.0
H504 H 0.72562 0.73585 0.70813 0.0
H505 H 0.64186 0.74245 0.78849 0.0
H506 H 0.7948 0.71738 0.83206 0.0
H507 H 0.85763 0.67737 0.8391 0.0
H508 H 0.82065 0.59113 0.90188 0.0
H509 H 0.75721 0.63043 0.89469 0.0
C510 C 0.70921 0.81596 0.96577 0.0
C511 C 0.72048 0.79446 1.00089 0.0
C512 C 0.69885 0.7974 0.92948 0.0
C513 C 0.69877 0.75682 0.92715 0.0
C514 C 0.70733 0.73516 0.96174 0.0
C515 C 0.71795 0.75383 0.99834 0.0
C516 C 0.69536 0.73775 0.88986 0.0
C517 C 0.72912 0.71312 0.8921 0.0
C518 C 0.66292 0.74786 0.85201 0.0
C519 C 0.625 0.77188 0.84779 0.0
C520 C 0.60016 0.76227 0.86861 0.0
C521 C 0.56508 0.78541 0.86526 0.0
C522 C 0.55433 0.81816 0.84098 0.0
C523 C 0.57857 0.82778 0.81993 0.0
C524 C 0.61369 0.80475 0.82319 0.0
C525 C 0.71713 0.64712 0.74436 0.0
C526 C 0.72517 0.67447 0.72025 0.0
C527 C 0.70663 0.65906 0.77521 0.0
C528 C 0.70431 0.69862 0.78291 0.0
C529 C 0.7094 0.72603 0.75733 0.0
C530 C 0.71976 0.71406 0.7262 0.0
C531 C 0.70116 0.71122 0.81994 0.0
C532 C 0.66648 0.73469 0.81751 0.0
C533 C 0.73267 0.70006 0.85775 0.0
C534 C 0.77103 0.67662 0.86244 0.0
C535 C 0.7999 0.68975 0.8471 0.0
C536 C 0.83564 0.66723 0.85115 0.0
C537 C 0.84306 0.63167 0.87081 0.0
C538 C 0.81482 0.61864 0.88659 0.0
C539 C 0.77898 0.64103 0.88255 0.0
H540 H 0.87074 0.61427 0.87391 0.0
H541 H 0.5272 0.83606 0.83848 0.0
H542 H 0.27926 0.23364 0.7965 0.0
H543 H 0.29893 0.25592 0.74365 0.0
H544 H 0.24631 0.15106 0.67727 0.0
H545 H 0.2278 0.12824 0.72995 0.0
H546 H 0.31764 0.16793 0.67148 0.0
H547 H 0.18914 0.23862 0.65629 0.0
H548 H 0.14406 0.28208 0.67625 0.0
H549 H 0.23616 0.37373 0.69843 0.0
H550 H 0.28194 0.33073 0.67891 0.0
H551 H 0.24912 0.2317 0.46956 0.0
H552 H 0.26364 0.20395 0.53468 0.0
H553 H 0.33011 0.30854 0.59192 0.0
H554 H 0.31532 0.33643 0.52715 0.0
H555 H 0.26091 0.29411 0.60705 0.0
H556 H 0.38338 0.22298 0.61093 0.0
H557 H 0.42281 0.17872 0.58543 0.0
H558 H 0.33624 0.08632 0.57913 0.0
H559 H 0.29589 0.13016 0.60408 0.0
C560 C 0.27216 0.21527 0.77075 0.0
C561 C 0.25175 0.17926 0.76744 0.0
C562 C 0.28329 0.22807 0.74051 0.0
C563 C 0.27365 0.20533 0.70625 0.0
C564 C 0.2542 0.16907 0.70341 0.0
C565 C 0.24344 0.15616 0.73361 0.0
C566 C 0.28221 0.21948 0.67252 0.0
C567 C 0.3051 0.19547 0.65727 0.0
C568 C 0.26644 0.25566 0.65432 0.0
C569 C 0.23927 0.28129 0.66672 0.0
C570 C 0.19997 0.26792 0.66581 0.0
C571 C 0.17425 0.2925 0.67694 0.0
C572 C 0.18738 0.33056 0.68881 0.0
C573 C 0.22613 0.34419 0.68938 0.0
C574 C 0.25195 0.31975 0.67826 0.0
C575 C 0.26845 0.24803 0.49612 0.0
C576 C 0.28066 0.28634 0.4934 0.0
C577 C 0.27665 0.23222 0.53333 0.0
C578 C 0.29756 0.25441 0.56809 0.0
C579 C 0.31366 0.29108 0.56546 0.0
C580 C 0.30528 0.30691 0.52845 0.0
C581 C 0.29612 0.24251 0.60585 0.0
C582 C 0.27423 0.26689 0.6217 0.0
C583 C 0.31214 0.20646 0.62404 0.0
C584 C 0.33641 0.17998 0.60912 0.0
C585 C 0.37252 0.19331 0.60381 0.0
C586 C 0.39509 0.16827 0.58951 0.0
C587 C 0.38199 0.12975 0.58059 0.0
C588 C 0.34634 0.11617 0.58604 0.0
C589 C 0.32365 0.14109 0.60031 0.0
H590 H 0.3995 0.11042 0.56953 0.0
H591 H 0.16754 0.34955 0.69751 0.0
H592 H 0.32971 0.45266 0.47799 0.0
H593 H 0.40314 0.47692 0.50522 0.0
H594 H 0.39508 0.49105 0.38672 0.0
H595 H 0.32143 0.46533 0.35896 0.0
H596 H 0.46563 0.45319 0.43098 0.0
H597 H 0.40073 0.5703 0.44755 0.0
H598 H 0.3539 0.61164 0.46727 0.0
H599 H 0.42581 0.57908 0.58924 0.0
H600 H 0.47272 0.53711 0.57021 0.0
H601 H 0.67219 0.54661 0.50859 0.0
H602 H 0.59704 0.52703 0.47298 0.0
H603 H 0.59007 0.50427 0.58443 0.0
H604 H 0.6651 0.52468 0.62048 0.0
H605 H 0.52629 0.55123 0.53844 0.0
H606 H 0.58815 0.43077 0.51989 0.0
H607 H 0.63467 0.39006 0.49917 0.0
H608 H 0.56809 0.43086 0.37933 0.0
H609 H 0.52153 0.47221 0.39944 0.0
C610 C 0.34308 0.46156 0.45752 0.0
C611 C 0.31971 0.4568 0.41624 0.0
C612 C 0.38515 0.47567 0.47322 0.0
C613 C 0.40455 0.4861 0.44802 0.0
C614 C 0.38068 0.48313 0.40669 0.0
C615 C 0.33855 0.46863 0.39088 0.0
C616 C 0.45085 0.49678 0.46526 0.0
C617 C 0.47882 0.4752 0.45391 0.0
C618 C 0.46812 0.52492 0.49576 0.0
C619 C 0.4401 0.55035 0.50738 0.0
C620 C 0.40639 0.57175 0.47855 0.0
C621 C 0.37986 0.59533 0.48961 0.0
C622 C 0.38684 0.59794 0.52947 0.0
C623 C 0.42044 0.57703 0.55837 0.0
C624 C 0.44706 0.55339 0.54747 0.0
C625 C 0.65505 0.53665 0.52561 0.0
C626 C 0.67459 0.53752 0.56745 0.0
C627 C 0.61203 0.5254 0.50513 0.0
C628 C 0.58797 0.51429 0.52607 0.0
C629 C 0.60807 0.51301 0.56775 0.0
C630 C 0.65102 0.52447 0.58829 0.0
C631 C 0.54103 0.50703 0.50478 0.0
C632 C 0.513 0.52942 0.5153 0.0
C633 C 0.52373 0.47985 0.47337 0.0
C634 C 0.55164 0.45487 0.46127 0.0
C635 C 0.58366 0.4313 0.48919 0.0
C636 C 0.60999 0.40806 0.47754 0.0
C637 C 0.60442 0.40795 0.43799 0.0
C638 C 0.57241 0.431 0.40997 0.0
C639 C 0.54602 0.45431 0.42147 0.0
H640 H 0.62484 0.38995 0.42903 0.0
H641 H 0.36624 0.6162 0.53797 0.0
H642 H 0.32166 0.02663 0.9723 0.0
H643 H 0.39694 0.00568 0.00264 0.0
H644 H 0.4061 0.02244 0.89127 0.0
H645 H 0.33051 0.04288 0.86034 0.0
H646 H 0.45375 0.95955 0.93278 0.0
H647 H 0.43553 0.09396 0.95724 0.0
H648 H 0.40294 0.14811 0.97876 0.0
H649 H 0.45232 0.10121 0.09669 0.0
H650 H 0.48461 0.04639 0.07569 0.0
H651 H 0.68025 0.96942 0.016 0.0
H652 H 0.6058 0.99185 0.98087 0.0
H653 H 0.58769 0.98217 0.08882 0.0
H654 H 0.66228 0.9606 0.12442 0.0
H655 H 0.54483 0.04344 0.04614 0.0
H656 H 0.56059 0.9079 0.02132 0.0
H657 H 0.59227 0.85297 0.99992 0.0
H658 H 0.54738 0.90152 0.88293 0.0
H659 H 0.51593 0.95705 0.90382 0.0
C660 C 0.33934 0.02506 0.95396 0.0
C661 C 0.32032 0.03707 0.91407 0.0
C662 C 0.38238 0.01319 0.9714 0.0
C663 C 0.40724 0.01352 0.94941 0.0
C664 C 0.38745 0.02232 0.90878 0.0
C665 C 0.34425 0.034 0.89118 0.0
C666 C 0.45457 0.0082 0.96966 0.0
C667 C 0.4738 0.97813 0.95723 0.0
C668 C 0.4805 0.03235 0.00179 0.0
C669 C 0.46218 0.06589 0.0148 0.0
C670 C 0.43926 0.09509 0.98771 0.0
C671 C 0.42084 0.1259 0.99981 0.0
C672 C 0.42546 0.12805 0.03904 0.0
C673 C 0.44872 0.09948 0.0663 0.0
C674 C 0.46712 0.06854 0.05432 0.0
C675 C 0.66075 0.97287 0.0325 0.0
C676 C 0.67699 0.96263 0.07288 0.0
C677 C 0.61814 0.98549 0.01231 0.0
C678 C 0.59098 0.98762 0.03203 0.0
C679 C 0.60806 0.98038 0.07299 0.0
C680 C 0.65075 0.96805 0.09329 0.0
C681 C 0.54408 0.99448 0.00961 0.0
C682 C 0.52488 0.02493 0.02158 0.0
C683 C 0.51821 0.97064 0.97709 0.0
C684 C 0.53629 0.93683 0.96425 0.0
C685 C 0.55766 0.90696 0.99109 0.0
C686 C 0.57556 0.87571 0.97905 0.0
C687 C 0.57194 0.8738 0.94012 0.0
C688 C 0.55021 0.90305 0.91309 0.0
C689 C 0.53232 0.93441 0.92501 0.0
H690 H 0.58594 0.84964 0.9309 0.0
H691 H 0.41108 0.15188 0.04832 0.0
loop_
_geom_bond_atom_site_label_1
_geom_bond_atom_site_label_2
_geom_bond_distance
_geom_bond_site_symmetry_2
_ccdc_geom_bond_type
O0 Zn1 1.953 . S
O0 C16 1.225 . S
Zn1 O0 1.953 . S
Zn1 O2 1.949 . S
Zn1 O8 1.919 . S
Zn1 O13 1.924 . S
O2 Zn1 1.949 . S
O2 Zn3 1.923 . S
O2 Zn4 1.950 . S
O2 Zn5 1.945 . S
Zn3 O2 1.923 . S
Zn3 O6 1.933 . S
Zn3 O9 1.941 . S
Zn3 O10 1.965 . S
Zn4 O2 1.950 . S
Zn4 O11 1.938 . S
Zn4 O12 1.906 . S
Zn4 O22 1.953 . S
Zn5 O2 1.945 . S
Zn5 O7 1.932 . S
Zn5 O14 1.977 . S
Zn5 O15 1.910 . S
O6 Zn3 1.933 . S
O6 C17 1.226 . S
O7 Zn5 1.932 . S
O7 C17 1.307 . S
O8 Zn1 1.919 . S
O8 C19 1.253 . S
O9 Zn3 1.941 . S
O9 C19 1.283 . S
O10 Zn3 1.965 . S
O10 C18 1.303 . S
O11 Zn4 1.938 . S
O11 C18 1.247 . S
O12 Zn4 1.906 . S
O12 C20 1.304 . S
O13 Zn1 1.924 . S
O13 C21 1.311 . S
O14 Zn5 1.977 . S
O14 C20 1.272 . S
O15 Zn5 1.910 . S
O15 C21 1.231 . S
C16 O0 1.225 . S
C16 O22 1.298 . S
C17 O6 1.226 . S
C17 O7 1.307 . S
C18 O10 1.303 . S
C18 O11 1.247 . S
C19 O8 1.253 . S
C19 O9 1.283 . S
C20 O12 1.304 . S
C20 O14 1.272 . S
C21 O13 1.311 . S
C21 O15 1.231 . S
O22 Zn4 1.953 . S
O22 C16 1.298 . S
O23 Zn24 1.953 . S
O23 C39 1.225 . S
Zn24 O23 1.953 . S
Zn24 O25 1.949 . S
Zn24 O31 1.919 . S
Zn24 O36 1.924 . S
O25 Zn24 1.949 . S
O25 Zn26 1.923 . S
O25 Zn27 1.950 . S
O25 Zn28 1.945 . S
Zn26 O25 1.923 . S
Zn26 O29 1.933 . S
Zn26 O32 1.941 . S
Zn26 O33 1.965 . S
Zn27 O25 1.950 . S
Zn27 O34 1.938 . S
Zn27 O35 1.906 . S
Zn27 O45 1.953 . S
Zn28 O25 1.945 . S
Zn28 O30 1.932 . S
Zn28 O37 1.977 . S
Zn28 O38 1.910 . S
O29 Zn26 1.933 . S
O29 C40 1.226 . S
O30 Zn28 1.932 . S
O30 C40 1.307 . S
O31 Zn24 1.919 . S
O31 C42 1.253 . S
O32 Zn26 1.941 . S
O32 C42 1.283 . S
O33 Zn26 1.965 . S
O33 C41 1.303 . S
O34 Zn27 1.938 . S
O34 C41 1.247 . S
O35 Zn27 1.906 . S
O35 C43 1.304 . S
O36 Zn24 1.924 . S
O36 C44 1.311 . S
O37 Zn28 1.977 . S
O37 C43 1.272 . S
O38 Zn28 1.910 . S
O38 C44 1.231 . S
C39 O23 1.225 . S
C39 O45 1.298 . S
C40 O29 1.226 . S
C40 O30 1.307 . S
C41 O33 1.303 . S
C41 O34 1.247 . S
C42 O31 1.253 . S
C42 O32 1.283 . S
C43 O35 1.304 . S
C43 O37 1.272 . S
C44 O36 1.311 . S
C44 O38 1.231 . S
O45 Zn27 1.953 . S
O45 C39 1.298 . S
O46 Zn47 1.953 . S
O46 C62 1.225 . S
Zn47 O46 1.953 . S
Zn47 O48 1.949 . S
Zn47 O54 1.919 . S
Zn47 O59 1.924 . S
O48 Zn47 1.949 . S
O48 Zn49 1.923 . S
O48 Zn50 1.950 . S
O48 Zn51 1.945 . S
Zn49 O48 1.923 . S
Zn49 O52 1.933 . S
Zn49 O55 1.941 . S
Zn49 O56 1.965 . S
Zn50 O48 1.950 . S
Zn50 O57 1.938 . S
Zn50 O58 1.906 . S
Zn50 O68 1.953 . S
Zn51 O48 1.945 . S
Zn51 O53 1.932 . S
Zn51 O60 1.977 . S
Zn51 O61 1.910 . S
O52 Zn49 1.933 . S
O52 C63 1.226 . S
O53 Zn51 1.932 . S
O53 C63 1.307 . S
O54 Zn47 1.919 . S
O54 C65 1.253 . S
O55 Zn49 1.941 . S
O55 C65 1.283 . S
O56 Zn49 1.965 . S
O56 C64 1.303 . S
O57 Zn50 1.938 . S
O57 C64 1.247 . S
O58 Zn50 1.906 . S
O58 C66 1.304 . S
O59 Zn47 1.924 . S
O59 C67 1.311 . S
O60 Zn51 1.977 . S
O60 C66 1.272 . S
O61 Zn51 1.910 . S
O61 C67 1.231 . S
C62 O46 1.225 . S
C62 O68 1.298 . S
C63 O52 1.226 . S
C63 O53 1.307 . S
C64 O56 1.303 . S
C64 O57 1.247 . S
C65 O54 1.253 . S
C65 O55 1.283 . S
C66 O58 1.304 . S
C66 O60 1.272 . S
C67 O59 1.311 . S
C67 O61 1.231 . S
O68 Zn50 1.953 . S
O68 C62 1.298 . S
O69 Zn70 1.953 . S
O69 C85 1.225 . S
Zn70 O69 1.953 . S
Zn70 O71 1.949 . S
Zn70 O77 1.919 . S
Zn70 O82 1.924 . S
O71 Zn70 1.949 . S
O71 Zn72 1.923 . S
O71 Zn73 1.950 . S
O71 Zn74 1.945 . S
Zn72 O71 1.923 . S
Zn72 O75 1.933 . S
Zn72 O78 1.941 . S
Zn72 O79 1.965 . S
Zn73 O71 1.950 . S
Zn73 O80 1.938 . S
Zn73 O81 1.906 . S
Zn73 O91 1.953 . S
Zn74 O71 1.945 . S
Zn74 O76 1.932 . S
Zn74 O83 1.977 . S
Zn74 O84 1.910 . S
O75 Zn72 1.933 . S
O75 C86 1.226 . S
O76 Zn74 1.932 . S
O76 C86 1.307 . S
O77 Zn70 1.919 . S
O77 C88 1.253 . S
O78 Zn72 1.941 . S
O78 C88 1.283 . S
O79 Zn72 1.965 . S
O79 C87 1.303 . S
O80 Zn73 1.938 . S
O80 C87 1.247 . S
O81 Zn73 1.906 . S
O81 C89 1.304 . S
O82 Zn70 1.924 . S
O82 C90 1.311 . S
O83 Zn74 1.977 . S
O83 C89 1.272 . S
O84 Zn74 1.910 . S
O84 C90 1.231 . S
C85 O69 1.225 . S
C85 O91 1.298 . S
C86 O75 1.226 . S
C86 O76 1.307 . S
C87 O79 1.303 . S
C87 O80 1.247 . S
C88 O77 1.253 . S
C88 O78 1.283 . S
C89 O81 1.304 . S
C89 O83 1.272 . S
C90 O82 1.311 . S
C90 O84 1.231 . S
O91 Zn73 1.953 . S
O91 C85 1.298 . S
H92 C110 0.951 . S
H93 C112 0.951 . S
H94 C114 0.950 . S
H95 C115 0.950 1_565 S
H96 C117 0.950 . S
H97 C120 0.950 . S
H98 C121 0.950 . S
H99 C123 0.950 . S
H100 C124 0.950 . S
H101 C125 0.951 . S
H102 C127 0.951 . S
H103 C129 0.950 1_655 S
H104 C130 0.950 . S
H105 C132 0.950 . S
H106 C135 0.950 . S
H107 C136 0.950 . S
H108 C138 0.950 . S
H109 C139 0.950 . S
C110 H92 0.951 . S
C110 C111 1.350 1_545 S
C110 C112 1.388 . S
C111 C110 1.350 1_565 S
C111 C115 1.381 1_565 S
C112 H93 0.951 . S
C112 C110 1.388 . S
C112 C113 1.366 . S
C113 C112 1.366 . S
C113 C114 1.414 . S
C113 C116 1.499 . S
C114 H94 0.950 . S
C114 C113 1.414 . S
C114 C115 1.374 . S
C115 H95 0.950 1_545 S
C115 C111 1.381 1_545 S
C115 C114 1.374 . S
C116 C113 1.499 . S
C116 C117 1.373 1_655 S
C116 C118 1.389 . S
C117 H96 0.950 . S
C117 C116 1.373 1_455 S
C117 C133 1.377 . S
C118 C116 1.389 . S
C118 C119 1.524 . S
C118 C132 1.377 . S
C119 C118 1.524 . S
C119 C120 1.397 . S
C119 C124 1.363 . S
C120 H97 0.950 . S
C120 C119 1.397 . S
C120 C121 1.334 . S
C121 H98 0.950 . S
C121 C120 1.334 . S
C121 C122 1.287 . S
C122 C121 1.287 . S
C122 C123 1.524 . S
C122 H141 0.913 . S
C123 H99 0.950 . S
C123 C122 1.524 . S
C123 C124 1.415 . S
C124 H100 0.950 . S
C124 C119 1.363 . S
C124 C123 1.415 . S
C125 H101 0.951 . S
C125 C126 1.366 . S
C125 C127 1.388 . S
C126 C125 1.366 . S
C126 C130 1.385 . S
C127 H102 0.951 . S
C127 C125 1.388 . S
C127 C128 1.366 . S
C128 C127 1.366 . S
C128 C129 1.414 . S
C128 C131 1.499 . S
C129 H103 0.950 1_455 S
C129 C128 1.414 . S
C129 C130 1.374 . S
C130 H104 0.950 . S
C130 C126 1.385 . S
C130 C129 1.374 . S
C131 C128 1.499 . S
C131 C132 1.373 1_455 S
C131 C133 1.389 . S
C132 H105 0.950 . S
C132 C118 1.377 . S
C132 C131 1.373 1_655 S
C133 C117 1.377 . S
C133 C131 1.389 . S
C133 C134 1.524 . S
C134 C133 1.524 . S
C134 C135 1.397 . S
C134 C139 1.363 . S
C135 H106 0.950 . S
C135 C134 1.397 . S
C135 C136 1.334 . S
C136 H107 0.950 . S
C136 C135 1.334 . S
C136 C137 1.287 . S
C137 C136 1.287 . S
C137 C138 1.524 . S
C137 H140 0.999 . S
C138 H108 0.950 . S
C138 C137 1.524 . S
C138 C139 1.415 . S
C139 H109 0.950 . S
C139 C134 1.363 . S
C139 C138 1.415 . S
H140 C137 0.999 . S
H141 C122 0.913 . S
H142 C160 0.951 . S
H143 C162 0.951 . S
H144 C164 0.950 . S
H145 C165 0.950 . S
H146 C167 0.950 . S
H147 C170 0.958 . S
H148 C171 0.952 . S
H149 C173 0.950 . S
H150 C174 0.950 . S
H151 C175 0.951 . S
H152 C177 0.951 1_455 S
H153 C179 0.950 . S
H154 C180 0.950 . S
H155 C182 0.950 . S
H156 C185 0.950 . S
H157 C186 0.950 . S
H158 C188 0.950 . S
H159 C189 0.950 . S
C160 H142 0.951 . S
C160 C161 1.366 . S
C160 C162 1.388 . S
C161 C160 1.366 . S
C161 C165 1.385 . S
C162 H143 0.951 . S
C162 C160 1.388 . S
C162 C163 1.366 . S
C163 C162 1.366 . S
C163 C164 1.414 . S
C163 C166 1.499 . S
C164 H144 0.950 . S
C164 C163 1.414 . S
C164 C165 1.374 . S
C165 H145 0.950 . S
C165 C161 1.385 . S
C165 C164 1.374 . S
C166 C163 1.499 . S
C166 C167 1.373 . S
C166 C168 1.374 1_455 S
C167 H146 0.950 . S
C167 C166 1.373 . S
C167 C183 1.377 . S
C168 C166 1.374 1_655 S
C168 C169 1.531 . S
C168 C182 1.387 . S
C169 C168 1.531 . S
C169 C170 1.390 1_655 S
C169 C174 1.363 . S
C170 H147 0.958 . S
C170 C169 1.390 1_455 S
C170 C171 1.333 1_455 S
C171 H148 0.952 . S
C171 C170 1.333 1_655 S
C171 C172 1.287 . S
C172 C171 1.287 . S
C172 C173 1.524 . S
C172 H191 0.913 . S
C173 H149 0.950 . S
C173 C172 1.524 . S
C173 C174 1.415 . S
C174 H150 0.950 . S
C174 C169 1.363 . S
C174 C173 1.415 . S
C175 H151 0.951 . S
C175 C176 1.366 . S
C175 C177 1.388 . S
C176 C175 1.366 . S
C176 C180 1.385 . S
C177 H152 0.951 1_655 S
C177 C175 1.388 . S
C177 C178 1.366 . S
C178 C177 1.366 . S
C178 C179 1.414 . S
C178 C181 1.499 . S
C179 H153 0.950 . S
C179 C178 1.414 . S
C179 C180 1.374 . S
C180 H154 0.950 . S
C180 C176 1.385 . S
C180 C179 1.374 . S
C181 C178 1.499 . S
C181 C182 1.373 . S
C181 C183 1.389 1_655 S
C182 H155 0.950 . S
C182 C168 1.387 . S
C182 C181 1.373 . S
C183 C167 1.377 . S
C183 C181 1.389 1_455 S
C183 C184 1.524 . S
C184 C183 1.524 . S
C184 C185 1.397 . S
C184 C189 1.363 . S
C185 H156 0.950 . S
C185 C184 1.397 . S
C185 C186 1.334 . S
C186 H157 0.950 . S
C186 C185 1.334 . S
C186 C187 1.287 . S
C187 C186 1.287 . S
C187 C188 1.524 . S
C187 H190 0.999 . S
C188 H158 0.950 . S
C188 C187 1.524 . S
C188 C189 1.415 . S
C189 H159 0.950 . S
C189 C184 1.363 . S
C189 C188 1.415 . S
H190 C187 0.999 . S
H191 C172 0.913 . S
H192 C210 0.977 . S
H193 C212 0.951 . S
H194 C214 0.950 . S
H195 C215 0.950 . S
H196 C217 0.950 . S
H197 C220 0.950 1_455 S
H198 C221 0.950 . S
H199 C223 0.950 . S
H200 C224 0.950 . S
H201 C225 0.951 . S
H202 C227 0.951 1_455 S
H203 C229 0.950 . S
H204 C230 0.950 . S
H205 C232 0.950 . S
H206 C235 0.950 . S
H207 C236 0.950 . S
H208 C238 0.950 . S
H209 C239 0.950 . S
C210 H192 0.977 . S
C210 C211 1.366 . S
C210 C212 1.362 1_545 S
C211 C210 1.366 . S
C211 C215 1.366 1_545 S
C212 H193 0.951 . S
C212 C210 1.362 1_565 S
C212 C213 1.366 . S
C213 C212 1.366 . S
C213 C214 1.414 . S
C213 C216 1.499 . S
C214 H194 0.950 . S
C214 C213 1.414 . S
C214 C215 1.374 . S
C215 H195 0.950 . S
C215 C211 1.366 1_565 S
C215 C214 1.374 . S
C216 C213 1.499 . S
C216 C217 1.373 . S
C216 C218 1.389 1_455 S
C217 H196 0.950 . S
C217 C216 1.373 . S
C217 C233 1.377 . S
C218 C216 1.389 1_655 S
C218 C219 1.524 . S
C218 C232 1.377 . S
C219 C218 1.524 . S
C219 C220 1.397 . S
C219 C224 1.363 . S
C220 H197 0.950 1_655 S
C220 C219 1.397 . S
C220 C221 1.334 . S
C221 H198 0.950 . S
C221 C220 1.334 . S
C221 C222 1.287 . S
C222 C221 1.287 . S
C222 C223 1.524 . S
C222 H241 0.913 . S
C223 H199 0.950 . S
C223 C222 1.524 . S
C223 C224 1.415 . S
C224 H200 0.950 . S
C224 C219 1.363 . S
C224 C223 1.415 . S
C225 H201 0.951 . S
C225 C226 1.366 . S
C225 C227 1.388 . S
C226 C225 1.366 . S
C226 C230 1.385 . S
C227 H202 0.951 1_655 S
C227 C225 1.388 . S
C227 C228 1.366 . S
C228 C227 1.366 . S
C228 C229 1.414 . S
C228 C231 1.499 . S
C229 H203 0.950 . S
C229 C228 1.414 . S
C229 C230 1.374 . S
C230 H204 0.950 . S
C230 C226 1.385 . S
C230 C229 1.374 . S
C231 C228 1.499 . S
C231 C232 1.373 . S
C231 C233 1.389 1_655 S
C232 H205 0.950 . S
C232 C218 1.377 . S
C232 C231 1.373 . S
C233 C217 1.377 . S
C233 C231 1.389 1_455 S
C233 C234 1.524 . S
C234 C233 1.524 . S
C234 C235 1.397 . S
C234 C239 1.363 . S
C235 H206 0.950 . S
C235 C234 1.397 . S
C235 C236 1.334 . S
C236 H207 0.950 . S
C236 C235 1.334 . S
C236 C237 1.287 . S
C237 C236 1.287 . S
C237 C238 1.524 . S
C237 H240 0.999 . S
C238 H208 0.950 . S
C238 C237 1.524 . S
C238 C239 1.415 . S
C239 H209 0.950 . S
C239 C234 1.363 . S
C239 C238 1.415 . S
H240 C237 0.999 . S
H241 C222 0.913 . S
H242 C260 0.951 . S
H243 C262 0.951 . S
H244 C264 0.950 . S
H245 C265 0.950 . S
H246 C267 0.950 1_455 S
H247 C270 0.950 . S
H248 C271 0.950 . S
H249 C273 0.950 . S
H250 C274 0.950 . S
H251 C275 0.951 . S
H252 C277 0.951 . S
H253 C279 0.950 1_655 S
H254 C280 0.950 . S
H255 C282 0.950 . S
H256 C285 0.950 . S
H257 C286 0.950 . S
H258 C288 0.950 . S
H259 C289 0.950 . S
C260 H242 0.951 . S
C260 C261 1.366 . S
C260 C262 1.388 . S
C261 C260 1.366 . S
C261 C265 1.385 . S
C262 H243 0.951 . S
C262 C260 1.388 . S
C262 C263 1.366 . S
C263 C262 1.366 . S
C263 C264 1.414 . S
C263 C266 1.499 . S
C264 H244 0.950 . S
C264 C263 1.414 . S
C264 C265 1.374 . S
C265 H245 0.950 . S
C265 C261 1.385 . S
C265 C264 1.374 . S
C266 C263 1.499 . S
C266 C267 1.373 . S
C266 C268 1.389 . S
C267 H246 0.950 1_655 S
C267 C266 1.373 . S
C267 C283 1.377 1_655 S
C268 C266 1.389 . S
C268 C269 1.524 . S
C268 C282 1.377 . S
C269 C268 1.524 . S
C269 C270 1.397 . S
C269 C274 1.363 . S
C270 H247 0.950 . S
C270 C269 1.397 . S
C270 C271 1.334 . S
C271 H248 0.950 . S
C271 C270 1.334 . S
C271 C272 1.287 . S
C272 C271 1.287 . S
C272 C273 1.524 . S
C272 H291 0.913 . S
C273 H249 0.950 . S
C273 C272 1.524 . S
C273 C274 1.415 . S
C274 H250 0.950 . S
C274 C269 1.363 . S
C274 C273 1.415 . S
C275 H251 0.951 . S
C275 C276 1.366 . S
C275 C277 1.388 . S
C276 C275 1.366 . S
C276 C280 1.385 . S
C277 H252 0.951 . S
C277 C275 1.388 . S
C277 C278 1.366 . S
C278 C277 1.366 . S
C278 C279 1.414 . S
C278 C281 1.499 . S
C279 H253 0.950 1_455 S
C279 C278 1.414 . S
C279 C280 1.374 . S
C280 H254 0.950 . S
C280 C276 1.385 . S
C280 C279 1.374 . S
C281 C278 1.499 . S
C281 C282 1.373 1_455 S
C281 C283 1.389 . S
C282 H255 0.950 . S
C282 C268 1.377 . S
C282 C281 1.373 1_655 S
C283 C267 1.377 1_455 S
C283 C281 1.389 . S
C283 C284 1.524 . S
C284 C283 1.524 . S
C284 C285 1.397 . S
C284 C289 1.363 . S
C285 H256 0.950 . S
C285 C284 1.397 . S
C285 C286 1.334 . S
C286 H257 0.950 . S
C286 C285 1.334 . S
C286 C287 1.287 . S
C287 C286 1.287 . S
C287 C288 1.524 . S
C287 H290 0.999 . S
C288 H258 0.950 . S
C288 C287 1.524 . S
C288 C289 1.415 . S
C289 H259 0.950 . S
C289 C284 1.363 . S
C289 C288 1.415 . S
H290 C287 0.999 . S
H291 C272 0.913 . S
H292 C310 0.951 . S
H293 C312 0.951 . S
H294 C314 0.950 . S
H295 C315 0.950 . S
H296 C317 0.950 . S
H297 C320 0.950 . S
H298 C321 0.950 . S
H299 C323 0.950 . S
H300 C324 0.950 . S
H301 C325 0.951 . S
H302 C327 0.951 . S
H303 C329 0.950 . S
H304 C330 0.950 . S
H305 C332 0.950 . S
H306 C335 0.950 . S
H307 C336 0.950 . S
H308 C338 0.950 . S
H309 C339 0.950 . S
C310 H292 0.951 . S
C310 C311 1.366 . S
C310 C312 1.388 . S
C311 C310 1.366 . S
C311 C315 1.385 . S
C312 H293 0.951 . S
C312 C310 1.388 . S
C312 C313 1.366 . S
C313 C312 1.366 . S
C313 C314 1.414 . S
C313 C316 1.499 . S
C314 H294 0.950 . S
C314 C313 1.414 . S
C314 C315 1.374 . S
C315 H295 0.950 . S
C315 C311 1.385 . S
C315 C314 1.374 . S
C316 C313 1.499 . S
C316 C317 1.373 . S
C316 C318 1.389 . S
C317 H296 0.950 . S
C317 C316 1.373 . S
C317 C333 1.377 1_655 S
C318 C316 1.389 . S
C318 C319 1.524 . S
C318 C332 1.377 1_655 S
C319 C318 1.524 . S
C319 C320 1.397 . S
C319 C324 1.363 1_655 S
C320 H297 0.950 . S
C320 C319 1.397 . S
C320 C321 1.334 . S
C321 H298 0.950 . S
C321 C320 1.334 . S
C321 C322 1.287 . S
C322 C321 1.287 . S
C322 C323 1.524 1_655 S
C322 H341 0.913 . S
C323 H299 0.950 . S
C323 C322 1.524 1_455 S
C323 C324 1.415 . S
C324 H300 0.950 . S
C324 C319 1.363 1_455 S
C324 C323 1.415 . S
C325 H301 0.951 . S
C325 C326 1.366 . S
C325 C327 1.388 . S
C326 C325 1.366 . S
C326 C330 1.385 . S
C327 H302 0.951 . S
C327 C325 1.388 . S
C327 C328 1.366 . S
C328 C327 1.366 . S
C328 C329 1.414 . S
C328 C331 1.499 . S
C329 H303 0.950 . S
C329 C328 1.414 . S
C329 C330 1.374 . S
C330 H304 0.950 . S
C330 C326 1.385 . S
C330 C329 1.374 . S
C331 C328 1.499 . S
C331 C332 1.373 . S
C331 C333 1.389 . S
C332 H305 0.950 . S
C332 C318 1.377 1_455 S
C332 C331 1.373 . S
C333 C317 1.377 1_455 S
C333 C331 1.389 . S
C333 C334 1.524 . S
C334 C333 1.524 . S
C334 C335 1.397 . S
C334 C339 1.363 1_455 S
C335 H306 0.950 . S
C335 C334 1.397 . S
C335 C336 1.334 . S
C336 H307 0.950 . S
C336 C335 1.334 . S
C336 C337 1.287 . S
C337 C336 1.287 . S
C337 C338 1.524 1_455 S
C337 H340 0.999 . S
C338 H308 0.950 . S
C338 C337 1.524 1_655 S
C338 C339 1.415 . S
C339 H309 0.950 . S
C339 C334 1.363 1_655 S
C339 C338 1.415 . S
H340 C337 0.999 . S
H341 C322 0.913 . S
H342 C360 0.951 . S
H343 C362 0.951 1_545 S
H344 C364 0.950 . S
H345 C365 0.950 . S
H346 C367 0.950 . S
H347 C370 0.950 . S
H348 C371 0.950 . S
H349 C373 0.950 . S
H350 C374 0.950 . S
H351 C375 0.951 . S
H352 C377 0.951 1_565 S
H353 C379 0.950 . S
H354 C380 0.950 . S
H355 C382 0.950 . S
H356 C385 0.950 . S
H357 C386 0.950 . S
H358 C388 0.950 . S
H359 C389 0.950 . S
C360 H342 0.951 . S
C360 C361 1.366 . S
C360 C362 1.388 . S
C361 C360 1.366 . S
C361 C365 1.385 . S
C362 H343 0.951 1_565 S
C362 C360 1.388 . S
C362 C363 1.366 . S
C363 C362 1.366 . S
C363 C364 1.414 . S
C363 C366 1.499 . S
C364 H344 0.950 . S
C364 C363 1.414 . S
C364 C365 1.374 . S
C365 H345 0.950 . S
C365 C361 1.385 . S
C365 C364 1.374 . S
C366 C363 1.499 . S
C366 C367 1.373 1_655 S
C366 C368 1.389 1_564 S
C367 H346 0.950 . S
C367 C366 1.373 1_455 S
C367 C383 1.377 . S
C368 C366 1.389 1_546 S
C368 C369 1.524 1_545 S
C368 C382 1.377 . S
C369 C368 1.524 1_565 S
C369 C370 1.423 . S
C369 C374 1.339 1_565 S
C370 H347 0.950 . S
C370 C369 1.423 . S
C370 C371 1.334 . S
C371 H348 0.950 . S
C371 C370 1.334 . S
C371 C372 1.287 . S
C372 C371 1.287 . S
C372 C373 1.524 1_565 S
C372 H391 0.913 . S
C373 H349 0.950 . S
C373 C372 1.524 1_545 S
C373 C374 1.415 . S
C374 H350 0.950 . S
C374 C369 1.339 1_545 S
C374 C373 1.415 . S
C375 H351 0.951 . S
C375 C376 1.366 . S
C375 C377 1.388 . S
C376 C375 1.366 . S
C376 C380 1.385 . S
C377 H352 0.951 1_545 S
C377 C375 1.388 . S
C377 C378 1.366 . S
C378 C377 1.366 . S
C378 C379 1.414 . S
C378 C381 1.499 . S
C379 H353 0.950 . S
C379 C378 1.414 . S
C379 C380 1.374 . S
C380 H354 0.950 . S
C380 C376 1.385 . S
C380 C379 1.374 . S
C381 C378 1.499 . S
C381 C382 1.373 1_455 S
C381 C383 1.389 1_546 S
C382 H355 0.950 . S
C382 C368 1.377 . S
C382 C381 1.373 1_655 S
C383 C367 1.377 . S
C383 C381 1.389 1_564 S
C383 C384 1.524 1_565 S
C384 C383 1.524 1_545 S
C384 C385 1.423 . S
C384 C389 1.339 1_545 S
C385 H356 0.950 . S
C385 C384 1.423 . S
C385 C386 1.334 . S
C386 H357 0.950 . S
C386 C385 1.334 . S
C386 C387 1.287 . S
C387 C386 1.287 . S
C387 C388 1.524 1_545 S
C387 H390 0.999 . S
C388 H358 0.950 . S
C388 C387 1.524 1_565 S
C388 C389 1.415 . S
C389 H359 0.950 . S
C389 C384 1.339 1_565 S
C389 C388 1.415 . S
H390 C387 0.999 . S
H391 C372 0.913 . S
H392 C410 0.951 . S
H393 C412 0.951 . S
H394 C414 0.950 . S
H395 C415 0.950 1_556 S
H396 C417 0.950 . S
H397 C420 0.950 . S
H398 C421 0.950 . S
H399 C423 0.950 . S
H400 C424 0.950 . S
H401 C425 0.951 . S
H402 C427 0.951 . S
H403 C429 0.950 . S
H404 C430 0.950 . S
H405 C432 0.950 . S
H406 C435 0.950 . S
H407 C436 0.950 . S
H408 C438 0.950 . S
H409 C439 0.950 . S
C410 H392 0.951 . S
C410 C411 1.366 . S
C410 C412 1.388 . S
C411 C410 1.366 . S
C411 C415 1.385 . S
C412 H393 0.951 . S
C412 C410 1.388 . S
C412 C413 1.366 . S
C413 C412 1.366 . S
C413 C414 1.414 . S
C413 C416 1.499 . S
C414 H394 0.950 . S
C414 C413 1.414 . S
C414 C415 1.374 . S
C415 H395 0.950 1_554 S
C415 C411 1.385 . S
C415 C414 1.374 . S
C416 C413 1.499 . S
C416 C417 1.373 . S
C416 C418 1.389 . S
C417 H396 0.950 . S
C417 C416 1.373 . S
C417 C433 1.377 . S
C418 C416 1.389 . S
C418 C419 1.524 . S
C418 C432 1.377 . S
C419 C418 1.524 . S
C419 C420 1.397 . S
C419 C424 1.363 . S
C420 H397 0.950 . S
C420 C419 1.397 . S
C420 C421 1.334 . S
C421 H398 0.950 . S
C421 C420 1.334 . S
C421 C422 1.287 . S
C422 C421 1.287 . S
C422 C423 1.524 . S
C422 H441 0.913 . S
C423 H399 0.950 . S
C423 C422 1.524 . S
C423 C424 1.415 . S
C424 H400 0.950 . S
C424 C419 1.363 . S
C424 C423 1.415 . S
C425 H401 0.951 . S
C425 C426 1.366 . S
C425 C427 1.388 . S
C426 C425 1.366 . S
C426 C430 1.385 . S
C427 H402 0.951 . S
C427 C425 1.388 . S
C427 C428 1.366 . S
C428 C427 1.366 . S
C428 C429 1.414 . S
C428 C431 1.499 . S
C429 H403 0.950 . S
C429 C428 1.414 . S
C429 C430 1.374 . S
C430 H404 0.950 . S
C430 C426 1.385 . S
C430 C429 1.374 . S
C431 C428 1.499 . S
C431 C432 1.373 . S
C431 C433 1.389 . S
C432 H405 0.950 . S
C432 C418 1.377 . S
C432 C431 1.373 . S
C433 C417 1.377 . S
C433 C431 1.389 . S
C433 C434 1.524 . S
C434 C433 1.524 . S
C434 C435 1.397 . S
C434 C439 1.363 . S
C435 H406 0.950 . S
C435 C434 1.397 . S
C435 C436 1.334 . S
C436 H407 0.950 . S
C436 C435 1.334 . S
C436 C437 1.287 . S
C437 C436 1.287 . S
C437 C438 1.524 . S
C437 H440 0.999 . S
C438 H408 0.950 . S
C438 C437 1.524 . S
C438 C439 1.415 . S
C439 H409 0.950 . S
C439 C434 1.363 . S
C439 C438 1.415 . S
H440 C437 0.999 . S
H441 C422 0.913 . S
H442 C460 0.951 . S
H443 C462 0.951 . S
H444 C464 0.950 . S
H445 C465 0.950 . S
H446 C467 0.950 . S
H447 C470 0.950 . S
H448 C471 0.950 . S
H449 C473 0.950 . S
H450 C474 0.950 . S
H451 C475 0.951 . S
H452 C477 0.951 . S
H453 C479 0.950 . S
H454 C480 0.950 . S
H455 C482 0.950 . S
H456 C485 0.950 . S
H457 C486 0.950 . S
H458 C488 0.950 . S
H459 C489 0.950 . S
C460 H442 0.951 . S
C460 C461 1.366 . S
C460 C462 1.388 . S
C461 C460 1.366 . S
C461 C465 1.385 . S
C462 H443 0.951 . S
C462 C460 1.388 . S
C462 C463 1.366 . S
C463 C462 1.366 . S
C463 C464 1.414 . S
C463 C466 1.499 . S
C464 H444 0.950 . S
C464 C463 1.414 . S
C464 C465 1.374 . S
C465 H445 0.950 . S
C465 C461 1.385 . S
C465 C464 1.374 . S
C466 C463 1.499 . S
C466 C467 1.373 . S
C466 C468 1.389 . S
C467 H446 0.950 . S
C467 C466 1.373 . S
C467 C483 1.377 . S
C468 C466 1.389 . S
C468 C469 1.524 . S
C468 C482 1.377 . S
C469 C468 1.524 . S
C469 C470 1.397 . S
C469 C474 1.363 . S
C470 H447 0.950 . S
C470 C469 1.397 . S
C470 C471 1.334 . S
C471 H448 0.950 . S
C471 C470 1.334 . S
C471 C472 1.287 . S
C472 C471 1.287 . S
C472 C473 1.524 . S
C472 H491 0.913 . S
C473 H449 0.950 . S
C473 C472 1.524 . S
C473 C474 1.415 . S
C474 H450 0.950 . S
C474 C469 1.363 . S
C474 C473 1.415 . S
C475 H451 0.951 . S
C475 C476 1.366 . S
C475 C477 1.388 . S
C476 C475 1.366 . S
C476 C480 1.385 . S
C477 H452 0.951 . S
C477 C475 1.388 . S
C477 C478 1.366 . S
C478 C477 1.366 . S
C478 C479 1.414 . S
C478 C481 1.499 . S
C479 H453 0.950 . S
C479 C478 1.414 . S
C479 C480 1.374 . S
C480 H454 0.950 . S
C480 C476 1.385 . S
C480 C479 1.374 . S
C481 C478 1.499 . S
C481 C482 1.373 . S
C481 C483 1.389 . S
C482 H455 0.950 . S
C482 C468 1.377 . S
C482 C481 1.373 . S
C483 C467 1.377 . S
C483 C481 1.389 . S
C483 C484 1.524 . S
C484 C483 1.524 . S
C484 C485 1.397 . S
C484 C489 1.363 . S
C485 H456 0.950 . S
C485 C484 1.397 . S
C485 C486 1.334 . S
C486 H457 0.950 . S
C486 C485 1.334 . S
C486 C487 1.287 . S
C487 C486 1.287 . S
C487 C488 1.524 . S
C487 H490 0.999 . S
C488 H458 0.950 . S
C488 C487 1.524 . S
C488 C489 1.415 . S
C489 H459 0.950 . S
C489 C484 1.363 . S
C489 C488 1.415 . S
H490 C487 0.999 . S
H491 C472 0.913 . S
H492 C510 0.951 . S
H493 C512 0.951 . S
H494 C514 0.950 . S
H495 C515 0.950 1_554 S
H496 C517 0.950 . S
H497 C520 0.950 . S
H498 C521 0.950 . S
H499 C523 0.950 . S
H500 C524 0.950 . S
H501 C525 0.951 . S
H502 C527 0.951 . S
H503 C529 0.950 . S
H504 C530 0.950 . S
H505 C532 0.950 . S
H506 C535 0.950 . S
H507 C536 0.950 . S
H508 C538 0.950 . S
H509 C539 0.950 . S
C510 H492 0.951 . S
C510 C511 1.366 . S
C510 C512 1.388 . S
C511 C510 1.366 . S
C511 C515 1.385 . S
C512 H493 0.951 . S
C512 C510 1.388 . S
C512 C513 1.366 . S
C513 C512 1.366 . S
C513 C514 1.414 . S
C513 C516 1.499 . S
C514 H494 0.950 . S
C514 C513 1.414 . S
C514 C515 1.374 . S
C515 H495 0.950 1_556 S
C515 C511 1.385 . S
C515 C514 1.374 . S
C516 C513 1.499 . S
C516 C517 1.373 . S
C516 C518 1.389 . S
C517 H496 0.950 . S
C517 C516 1.373 . S
C517 C533 1.377 . S
C518 C516 1.389 . S
C518 C519 1.524 . S
C518 C532 1.377 . S
C519 C518 1.524 . S
C519 C520 1.397 . S
C519 C524 1.363 . S
C520 H497 0.950 . S
C520 C519 1.397 . S
C520 C521 1.334 . S
C521 H498 0.950 . S
C521 C520 1.334 . S
C521 C522 1.287 . S
C522 C521 1.287 . S
C522 C523 1.524 . S
C522 H541 0.913 . S
C523 H499 0.950 . S
C523 C522 1.524 . S
C523 C524 1.415 . S
C524 H500 0.950 . S
C524 C519 1.363 . S
C524 C523 1.415 . S
C525 H501 0.951 . S
C525 C526 1.366 . S
C525 C527 1.388 . S
C526 C525 1.366 . S
C526 C530 1.385 . S
C527 H502 0.951 . S
C527 C525 1.388 . S
C527 C528 1.366 . S
C528 C527 1.366 . S
C528 C529 1.414 . S
C528 C531 1.499 . S
C529 H503 0.950 . S
C529 C528 1.414 . S
C529 C530 1.374 . S
C530 H504 0.950 . S
C530 C526 1.385 . S
C530 C529 1.374 . S
C531 C528 1.499 . S
C531 C532 1.373 . S
C531 C533 1.389 . S
C532 H505 0.950 . S
C532 C518 1.377 . S
C532 C531 1.373 . S
C533 C517 1.377 . S
C533 C531 1.389 . S
C533 C534 1.524 . S
C534 C533 1.524 . S
C534 C535 1.397 . S
C534 C539 1.363 . S
C535 H506 0.950 . S
C535 C534 1.397 . S
C535 C536 1.334 . S
C536 H507 0.950 . S
C536 C535 1.334 . S
C536 C537 1.287 . S
C537 C536 1.287 . S
C537 C538 1.524 . S
C537 H540 0.999 . S
C538 H508 0.950 . S
C538 C537 1.524 . S
C538 C539 1.415 . S
C539 H509 0.950 . S
C539 C534 1.363 . S
C539 C538 1.415 . S
H540 C537 0.999 . S
H541 C522 0.913 . S
H542 C560 0.951 . S
H543 C562 0.951 . S
H544 C564 0.950 . S
H545 C565 0.950 . S
H546 C567 0.950 . S
H547 C570 0.950 . S
H548 C571 0.950 . S
H549 C573 0.950 . S
H550 C574 0.950 . S
H551 C575 0.951 . S
H552 C577 0.951 . S
H553 C579 0.950 . S
H554 C580 0.950 . S
H555 C582 0.950 . S
H556 C585 0.950 . S
H557 C586 0.950 . S
H558 C588 0.950 . S
H559 C589 0.950 . S
C560 H542 0.951 . S
C560 C561 1.366 . S
C560 C562 1.388 . S
C561 C560 1.366 . S
C561 C565 1.385 . S
C562 H543 0.951 . S
C562 C560 1.388 . S
C562 C563 1.366 . S
C563 C562 1.366 . S
C563 C564 1.414 . S
C563 C566 1.499 . S
C564 H544 0.950 . S
C564 C563 1.414 . S
C564 C565 1.374 . S
C565 H545 0.950 . S
C565 C561 1.385 . S
C565 C564 1.374 . S
C566 C563 1.499 . S
C566 C567 1.373 . S
C566 C568 1.389 . S
C567 H546 0.950 . S
C567 C566 1.373 . S
C567 C583 1.377 . S
C568 C566 1.389 . S
C568 C569 1.524 . S
C568 C582 1.377 . S
C569 C568 1.524 . S
C569 C570 1.397 . S
C569 C574 1.363 . S
C570 H547 0.950 . S
C570 C569 1.397 . S
C570 C571 1.334 . S
C571 H548 0.950 . S
C571 C570 1.334 . S
C571 C572 1.287 . S
C572 C571 1.287 . S
C572 C573 1.524 . S
C572 H591 0.913 . S
C573 H549 0.950 . S
C573 C572 1.524 . S
C573 C574 1.415 . S
C574 H550 0.950 . S
C574 C569 1.363 . S
C574 C573 1.415 . S
C575 H551 0.951 . S
C575 C576 1.366 . S
C575 C577 1.388 . S
C576 C575 1.366 . S
C576 C580 1.385 . S
C577 H552 0.951 . S
C577 C575 1.388 . S
C577 C578 1.366 . S
C578 C577 1.366 . S
C578 C579 1.414 . S
C578 C581 1.499 . S
C579 H553 0.950 . S
C579 C578 1.414 . S
C579 C580 1.374 . S
C580 H554 0.950 . S
C580 C576 1.385 . S
C580 C579 1.374 . S
C581 C578 1.499 . S
C581 C582 1.373 . S
C581 C583 1.389 . S
C582 H555 0.950 . S
C582 C568 1.377 . S
C582 C581 1.373 . S
C583 C567 1.377 . S
C583 C581 1.389 . S
C583 C584 1.524 . S
C584 C583 1.524 . S
C584 C585 1.397 . S
C584 C589 1.363 . S
C585 H556 0.950 . S
C585 C584 1.397 . S
C585 C586 1.334 . S
C586 H557 0.950 . S
C586 C585 1.334 . S
C586 C587 1.287 . S
C587 C586 1.287 . S
C587 C588 1.524 . S
C587 H590 0.999 . S
C588 H558 0.950 . S
C588 C587 1.524 . S
C588 C589 1.415 . S
C589 H559 0.950 . S
C589 C584 1.363 . S
C589 C588 1.415 . S
H590 C587 0.999 . S
H591 C572 0.913 . S
H592 C610 0.951 . S
H593 C612 0.951 . S
H594 C614 0.950 . S
H595 C615 0.950 . S
H596 C617 0.950 . S
H597 C620 0.950 . S
H598 C621 0.950 . S
H599 C623 0.950 . S
H600 C624 0.950 . S
H601 C625 0.951 . S
H602 C627 0.951 . S
H603 C629 0.950 . S
H604 C630 0.950 . S
H605 C632 0.950 . S
H606 C635 0.950 . S
H607 C636 0.950 . S
H608 C638 0.950 . S
H609 C639 0.950 . S
C610 H592 0.951 . S
C610 C611 1.366 . S
C610 C612 1.388 . S
C611 C610 1.366 . S
C611 C615 1.385 . S
C612 H593 0.951 . S
C612 C610 1.388 . S
C612 C613 1.366 . S
C613 C612 1.366 . S
C613 C614 1.414 . S
C613 C616 1.499 . S
C614 H594 0.950 . S
C614 C613 1.414 . S
C614 C615 1.374 . S
C615 H595 0.950 . S
C615 C611 1.385 . S
C615 C614 1.374 . S
C616 C613 1.499 . S
C616 C617 1.373 . S
C616 C618 1.389 . S
C617 H596 0.950 . S
C617 C616 1.373 . S
C617 C633 1.377 . S
C618 C616 1.389 . S
C618 C619 1.524 . S
C618 C632 1.377 . S
C619 C618 1.524 . S
C619 C620 1.397 . S
C619 C624 1.363 . S
C620 H597 0.950 . S
C620 C619 1.397 . S
C620 C621 1.334 . S
C621 H598 0.950 . S
C621 C620 1.334 . S
C621 C622 1.287 . S
C622 C621 1.287 . S
C622 C623 1.524 . S
C622 H641 0.913 . S
C623 H599 0.950 . S
C623 C622 1.524 . S
C623 C624 1.415 . S
C624 H600 0.950 . S
C624 C619 1.363 . S
C624 C623 1.415 . S
C625 H601 0.951 . S
C625 C626 1.366 . S
C625 C627 1.388 . S
C626 C625 1.366 . S
C626 C630 1.385 . S
C627 H602 0.951 . S
C627 C625 1.388 . S
C627 C628 1.366 . S
C628 C627 1.366 . S
C628 C629 1.414 . S
C628 C631 1.499 . S
C629 H603 0.950 . S
C629 C628 1.414 . S
C629 C630 1.374 . S
C630 H604 0.950 . S
C630 C626 1.385 . S
C630 C629 1.374 . S
C631 C628 1.499 . S
C631 C632 1.373 . S
C631 C633 1.389 . S
C632 H605 0.950 . S
C632 C618 1.377 . S
C632 C631 1.373 . S
C633 C617 1.377 . S
C633 C631 1.389 . S
C633 C634 1.524 . S
C634 C633 1.524 . S
C634 C635 1.397 . S
C634 C639 1.363 . S
C635 H606 0.950 . S
C635 C634 1.397 . S
C635 C636 1.334 . S
C636 H607 0.950 . S
C636 C635 1.334 . S
C636 C637 1.287 . S
C637 C636 1.287 . S
C637 C638 1.524 . S
C637 H640 0.999 . S
C638 H608 0.950 . S
C638 C637 1.524 . S
C638 C639 1.415 . S
C639 H609 0.950 . S
C639 C634 1.363 . S
C639 C638 1.415 . S
H640 C637 0.999 . S
H641 C622 0.913 . S
H642 C660 0.951 . S
H643 C662 0.951 1_554 S
H644 C664 0.950 . S
H645 C665 0.950 . S
H646 C667 0.950 . S
H647 C670 0.950 1_556 S
H648 C671 0.950 . S
H649 C673 0.950 . S
H650 C674 0.950 . S
H651 C675 0.951 . S
H652 C677 0.951 1_556 S
H653 C679 0.950 . S
H654 C680 0.950 . S
H655 C682 0.950 . S
H656 C685 0.950 1_554 S
H657 C686 0.950 . S
H658 C688 0.950 . S
H659 C689 0.950 . S
C660 H642 0.951 . S
C660 C661 1.366 . S
C660 C662 1.388 . S
C661 C660 1.366 . S
C661 C665 1.385 . S
C662 H643 0.951 1_556 S
C662 C660 1.388 . S
C662 C663 1.366 . S
C663 C662 1.366 . S
C663 C664 1.414 . S
C663 C666 1.499 . S
C664 H644 0.950 . S
C664 C663 1.414 . S
C664 C665 1.374 . S
C665 H645 0.950 . S
C665 C661 1.385 . S
C665 C664 1.374 . S
C666 C663 1.499 . S
C666 C667 1.373 1_545 S
C666 C668 1.389 1_556 S
C667 H646 0.950 . S
C667 C666 1.373 1_565 S
C667 C683 1.377 . S
C668 C666 1.389 1_554 S
C668 C669 1.524 . S
C668 C682 1.377 . S
C669 C668 1.524 . S
C669 C670 1.397 . S
C669 C674 1.363 . S
C670 H647 0.950 1_554 S
C670 C669 1.397 . S
C670 C671 1.334 . S
C671 H648 0.950 . S
C671 C670 1.334 . S
C671 C672 1.287 . S
C672 C671 1.287 . S
C672 C673 1.524 . S
C672 H691 0.913 . S
C673 H649 0.950 . S
C673 C672 1.524 . S
C673 C674 1.415 . S
C674 H650 0.950 . S
C674 C669 1.363 . S
C674 C673 1.415 . S
C675 H651 0.951 . S
C675 C676 1.366 . S
C675 C677 1.388 . S
C676 C675 1.366 . S
C676 C680 1.385 . S
C677 H652 0.951 1_554 S
C677 C675 1.388 . S
C677 C678 1.366 . S
C678 C677 1.366 . S
C678 C679 1.414 . S
C678 C681 1.499 . S
C679 H653 0.950 . S
C679 C678 1.414 . S
C679 C680 1.374 . S
C680 H654 0.950 . S
C680 C676 1.385 . S
C680 C679 1.374 . S
C681 C678 1.499 . S
C681 C682 1.373 1_565 S
C681 C683 1.389 1_554 S
C682 H655 0.950 . S
C682 C668 1.377 . S
C682 C681 1.373 1_545 S
C683 C667 1.377 . S
C683 C681 1.389 1_556 S
C683 C684 1.524 . S
C684 C683 1.524 . S
C684 C685 1.397 . S
C684 C689 1.363 . S
C685 H656 0.950 1_556 S
C685 C684 1.397 . S
C685 C686 1.334 . S
C686 H657 0.950 . S
C686 C685 1.334 . S
C686 C687 1.287 . S
C687 C686 1.287 . S
C687 C688 1.524 . S
C687 H690 0.999 . S
C688 H658 0.950 . S
C688 C687 1.524 . S
C688 C689 1.415 . S
C689 H659 0.950 . S
C689 C684 1.363 . S
C689 C688 1.415 . S
H690 C687 0.999 . S
H691 C672 0.913 . S
C111 C44 1.669 . S
C126 C19 1.612 . S
C161 C21 1.649 . S
C176 C42 1.612 . S
C211 C90 1.667 . S
C226 C65 1.612 . S
C261 C67 1.649 . S
C276 C88 1.612 . S
C311 C62 0.650 . S
C326 C16 0.650 . S
C361 C39 0.649 . S
C376 C85 0.649 . S
C411 C87 1.513 1_554 S
C426 C17 1.498 . S
C461 C40 1.498 . S
C476 C64 1.513 . S
C511 C41 1.513 1_556 S
C526 C63 1.498 . S
C561 C86 1.498 . S
C576 C18 1.513 . S
C611 C20 1.255 . S
C626 C66 1.255 . S
C661 C89 1.255 . S
C676 C43 1.255 . S
