# Generated by pormake.
# Topology ume, (4)-cn, num edge types: 1
# Building blocks:
#     Node 0, Type 0, BuildingBlock: ESEHIV_clean_sbu_0, # of connection points: 4
#     Node 1, Type 0, BuildingBlock: ESEHIV_clean_sbu_0, # of connection points: 4
#     Node 2, Type 0, BuildingBlock: ESEHIV_clean_sbu_0, # of connection points: 4
#     Node 3, Type 0, BuildingBlock: ESEHIV_clean_sbu_0, # of connection points: 4
#     Node 4, Type 0, BuildingBlock: ESEHIV_clean_sbu_0, # of connection points: 4
#     Node 5, Type 0, BuildingBlock: ESEHIV_clean_sbu_0, # of connection points: 4
#     Node 6, Type 0, BuildingBlock: ESEHIV_clean_sbu_0, # of connection points: 4
#     Node 7, Type 0, BuildingBlock: ESEHIV_clean_sbu_0, # of connection points: 4
#     Node 8, Type 0, BuildingBlock: ESEHIV_clean_sbu_0, # of connection points: 4
#     Node 9, Type 0, BuildingBlock: ESEHIV_clean_sbu_0, # of connection points: 4
#     Node 10, Type 0, BuildingBlock: ESEHIV_clean_sbu_0, # of connection points: 4
#     Node 11, Type 0, BuildingBlock: ESEHIV_clean_sbu_0, # of connection points: 4
#     Node 12, Type 0, BuildingBlock: ESEHIV_clean_sbu_0, # of connection points: 4
#     Node 13, Type 0, BuildingBlock: ESEHIV_clean_sbu_0, # of connection points: 4
#     Node 14, Type 0, BuildingBlock: ESEHIV_clean_sbu_0, # of connection points: 4
#     Node 15, Type 0, BuildingBlock: ESEHIV_clean_sbu_0, # of connection points: 4
#     Edge 16, Type (0, 0), BuildingBlock: TEMPAE_clean_linker_10, # of connection points: 2
#     Edge 17, Type (0, 0), BuildingBlock: TEMPAE_clean_linker_10, # of connection points: 2
#     Edge 18, Type (0, 0), BuildingBlock: TEMPAE_clean_linker_10, # of connection points: 2
#     Edge 19, Type (0, 0), BuildingBlock: TEMPAE_clean_linker_10, # of connection points: 2
#     Edge 20, Type (0, 0), BuildingBlock: TEMPAE_clean_linker_10, # of connection points: 2
#     Edge 21, Type (0, 0), BuildingBlock: TEMPAE_clean_linker_10, # of connection points: 2
#     Edge 22, Type (0, 0), BuildingBlock: TEMPAE_clean_linker_10, # of connection points: 2
#     Edge 23, Type (0, 0), BuildingBlock: TEMPAE_clean_linker_10, # of connection points: 2
#     Edge 24, Type (0, 0), BuildingBlock: TEMPAE_clean_linker_10, # of connection points: 2
#     Edge 25, Type (0, 0), BuildingBlock: TEMPAE_clean_linker_10, # of connection points: 2
#     Edge 26, Type (0, 0), BuildingBlock: TEMPAE_clean_linker_10, # of connection points: 2
#     Edge 27, Type (0, 0), BuildingBlock: TEMPAE_clean_linker_10, # of connection points: 2
#     Edge 28, Type (0, 0), BuildingBlock: TEMPAE_clean_linker_10, # of connection points: 2
#     Edge 29, Type (0, 0), BuildingBlock: TEMPAE_clean_linker_10, # of connection points: 2
#     Edge 30, Type (0, 0), BuildingBlock: TEMPAE_clean_linker_10, # of connection points: 2
#     Edge 31, Type (0, 0), BuildingBlock: TEMPAE_clean_linker_10, # of connection points: 2
#     Edge 32, Type (0, 0), BuildingBlock: TEMPAE_clean_linker_10, # of connection points: 2
#     Edge 33, Type (0, 0), BuildingBlock: TEMPAE_clean_linker_10, # of connection points: 2
#     Edge 34, Type (0, 0), BuildingBlock: TEMPAE_clean_linker_10, # of connection points: 2
#     Edge 35, Type (0, 0), BuildingBlock: TEMPAE_clean_linker_10, # of connection points: 2
#     Edge 36, Type (0, 0), BuildingBlock: TEMPAE_clean_linker_10, # of connection points: 2
#     Edge 37, Type (0, 0), BuildingBlock: TEMPAE_clean_linker_10, # of connection points: 2
#     Edge 38, Type (0, 0), BuildingBlock: TEMPAE_clean_linker_10, # of connection points: 2
#     Edge 39, Type (0, 0), BuildingBlock: TEMPAE_clean_linker_10, # of connection points: 2
#     Edge 40, Type (0, 0), BuildingBlock: TEMPAE_clean_linker_10, # of connection points: 2
#     Edge 41, Type (0, 0), BuildingBlock: TEMPAE_clean_linker_10, # of connection points: 2
#     Edge 42, Type (0, 0), BuildingBlock: TEMPAE_clean_linker_10, # of connection points: 2
#     Edge 43, Type (0, 0), BuildingBlock: TEMPAE_clean_linker_10, # of connection points: 2
#     Edge 44, Type (0, 0), BuildingBlock: TEMPAE_clean_linker_10, # of connection points: 2
#     Edge 45, Type (0, 0), BuildingBlock: TEMPAE_clean_linker_10, # of connection points: 2
#     Edge 46, Type (0, 0), BuildingBlock: TEMPAE_clean_linker_10, # of connection points: 2
#     Edge 47, Type (0, 0), BuildingBlock: TEMPAE_clean_linker_10, # of connection points: 2
# Relax obj value: 0.042
# Max RMSD: 0.160
# Mean RMSD: 0.135
data_MOF--net-ume--node1-ESEHIV_clean_sbu_0--edge1-TEMPAE_clean_linker_10
_symmetry_space_group_name_H-M    P1
_symmetry_Int_Tables_number       1
_symmetry_cell_setting            triclinic
loop_
_symmetry_equiv_pos_as_xyz
'x, y, z'
_cell_length_a     28.896397
_cell_length_b     34.495079
_cell_length_c     122.12103
_cell_angle_alpha  89.998256
_cell_angle_beta   90.017426
_cell_angle_gamma 89.985378
loop_
_atom_site_label
_atom_site_type_symbol
_atom_site_fract_x
_atom_site_fract_y
_atom_site_fract_z
_atom_type_partial_charge
Cu0 Cu 0.24532 0.09749 0.30822 0.0
N1 N 0.2455 0.12676 0.32119 0.0
N2 N 0.24776 0.14122 0.33909 0.0
C3 C 0.24006 0.11333 0.33151 0.0
C4 C 0.25822 0.17337 0.33329 0.0
C5 C 0.25685 0.16437 0.32229 0.0
O6 O 0.18791 0.06648 0.30774 0.0
C7 C 0.31997 0.04448 0.302 0.0
O8 O 0.29397 0.0321 0.29389 0.0
H9 H 0.23256 0.08334 0.33342 0.0
H10 H 0.26499 0.1836 0.31557 0.0
N11 N 0.24742 0.13032 0.29589 0.0
N12 N 0.26678 0.15579 0.27957 0.0
C13 C 0.27558 0.12777 0.28707 0.0
C14 C 0.22007 0.16109 0.29392 0.0
C15 C 0.23186 0.1768 0.28392 0.0
C16 C 0.15026 0.08322 0.31057 0.0
O17 O 0.15208 0.11965 0.31367 0.0
H18 H 0.3015 0.10545 0.2861 0.0
H19 H 0.1934 0.17144 0.29939 0.0
O20 O 0.3036 0.0689 0.30879 0.0
H21 H 0.26677 0.20136 0.33675 0.0
H22 H 0.21615 0.2021 0.28022 0.0
Cu23 Cu 0.93857 0.76311 0.56944 0.0
N24 N 0.98028 0.80425 0.56774 0.0
N25 N 1.00674 0.86517 0.56768 0.0
C26 C 0.97379 0.84074 0.57138 0.0
C27 C 0.03555 0.84312 0.56162 0.0
C28 C 0.01931 0.80556 0.56172 0.0
O29 O 0.89065 0.77067 0.55838 0.0
C30 C 0.89365 0.74087 0.58997 0.0
O31 O 0.87704 0.71024 0.58493 0.0
H32 H 0.94422 0.84959 0.57621 0.0
H33 H 0.03437 0.7813 0.55743 0.0
N34 N 0.96783 0.71613 0.56584 0.0
N35 N 0.98838 0.65348 0.56467 0.0
C36 C 0.9687 0.68137 0.57098 0.0
C37 C 0.98757 0.70983 0.55603 0.0
C38 C 1.00066 0.67168 0.55533 0.0
C39 C 0.86862 0.80218 0.55684 0.0
O40 O 0.87208 0.8301 0.5641 0.0
H41 H 0.9533 0.67616 0.5789 0.0
H42 H 0.99031 0.73121 0.54959 0.0
O43 O 0.91782 0.76531 0.58465 0.0
H44 H 0.06571 0.85355 0.55727 0.0
H45 H 0.01699 0.65828 0.54831 0.0
Cu46 Cu 0.25386 0.42796 0.81445 0.0
N47 N 0.24986 0.3999 0.82761 0.0
N48 N 0.24528 0.38572 0.8455 0.0
C49 C 0.25387 0.41352 0.83794 0.0
C50 C 0.23561 0.35347 0.83966 0.0
C51 C 0.23848 0.36229 0.82867 0.0
O52 O 0.31043 0.46001 0.81465 0.0
C53 C 0.17563 0.46972 0.805 0.0
O54 O 0.19669 0.46704 0.7955 0.0
H55 H 0.26167 0.44345 0.83987 0.0
H56 H 0.23191 0.34282 0.8219 0.0
N57 N 0.25964 0.39343 0.80252 0.0
N58 N 0.24912 0.36183 0.7866 0.0
C59 C 0.22929 0.3839 0.79451 0.0
C60 C 0.29957 0.37618 0.79965 0.0
C61 C 0.2933 0.35684 0.78991 0.0
C62 C 0.34722 0.4464 0.81903 0.0
O63 O 0.34538 0.4123 0.8238 0.0
H64 H 0.19364 0.39339 0.79439 0.0
H65 H 0.33174 0.3788 0.8041 0.0
O66 O 0.19579 0.45748 0.81362 0.0
H67 H 0.22708 0.32544 0.8431 0.0
H68 H 0.32006 0.34192 0.78537 0.0
Cu69 Cu 0.588 0.77001 0.07513 0.0
N70 N 0.62279 0.72699 0.07969 0.0
N71 N 0.63775 0.6633 0.08119 0.0
C72 C 0.6085 0.69075 0.07739 0.0
C73 C 0.67189 0.68342 0.08622 0.0
C74 C 0.66254 0.72271 0.08529 0.0
O75 O 0.57566 0.75771 0.05968 0.0
C76 C 0.55118 0.78595 0.09505 0.0
O77 O 0.59426 0.79762 0.09594 0.0
H78 H 0.57656 0.68491 0.07308 0.0
H79 H 0.68323 0.74626 0.08847 0.0
N80 N 0.61799 0.81873 0.07549 0.0
N81 N 0.62522 0.88365 0.07578 0.0
C82 C 0.59598 0.85318 0.07474 0.0
C83 C 0.66286 0.82757 0.07703 0.0
C84 C 0.66742 0.86745 0.0772 0.0
C85 C 0.61394 0.75369 0.05454 0.0
O86 O 0.65237 0.76167 0.05982 0.0
H87 H 0.55906 0.85564 0.07345 0.0
H88 H 0.69029 0.8066 0.07809 0.0
O89 O 0.53756 0.7721 0.08589 0.0
H90 H 0.70183 0.67084 0.09018 0.0
H91 H 0.69936 0.88314 0.0785 0.0
Cu92 Cu 0.24765 0.42797 0.95895 0.0
N93 N 0.24701 0.3998 0.94572 0.0
N94 N 0.24995 0.38547 0.9278 0.0
C95 C 0.24629 0.41393 0.93539 0.0
C96 C 0.25303 0.35225 0.9336 0.0
C97 C 0.25119 0.36115 0.94459 0.0
O98 O 0.18731 0.45411 0.96056 0.0
C99 C 0.34067 0.44403 0.95634 0.0
O100 O 0.33951 0.40672 0.9542 0.0
H101 H 0.24482 0.44451 0.93346 0.0
H102 H 0.25385 0.34084 0.9513 0.0
N103 N 0.2535 0.39403 0.97097 0.0
N104 N 0.2747 0.36835 0.98713 0.0
C105 C 0.28309 0.39618 0.97954 0.0
C106 C 0.22558 0.3639 0.97322 0.0
C107 C 0.23857 0.34798 0.98311 0.0
C108 C 0.17001 0.47914 0.95404 0.0
O109 O 0.19548 0.49237 0.94596 0.0
H110 H 0.3092 0.41849 0.98035 0.0
H111 H 0.19716 0.35456 0.96809 0.0
O112 O 0.30284 0.46115 0.9588 0.0
H113 H 0.25642 0.3235 0.93013 0.0
H114 H 0.22247 0.32329 0.98702 0.0
Cu115 Cu 0.57985 0.75295 0.19471 0.0
N116 N 0.62279 0.79338 0.19399 0.0
N117 N 0.6411 0.85645 0.19488 0.0
C118 C 0.61089 0.82977 0.19108 0.0
C119 C 0.67357 0.83594 0.20033 0.0
C120 C 0.66204 0.79713 0.19983 0.0
O121 O 0.55082 0.76467 0.2088 0.0
C122 C 0.56679 0.75094 0.17279 0.0
O123 O 0.6112 0.74418 0.17412 0.0
H124 H 0.57794 0.83686 0.18736 0.0
H125 H 0.67838 0.77394 0.20436 0.0
N126 N 0.60719 0.70324 0.19469 0.0
N127 N 0.61377 0.63827 0.19417 0.0
C128 C 0.58464 0.66895 0.19508 0.0
C129 C 0.65207 0.69411 0.1934 0.0
C130 C 0.65625 0.65429 0.19309 0.0
C131 C 0.56546 0.74801 0.21747 0.0
O132 O 0.58787 0.71508 0.21655 0.0
H133 H 0.54753 0.66681 0.19605 0.0
H134 H 0.67973 0.71491 0.19244 0.0
O135 O 0.54236 0.75665 0.18136 0.0
H136 H 0.70185 0.84828 0.20498 0.0
H137 H 0.68825 0.63861 0.19188 0.0
Cu138 Cu 0.24668 0.0989 0.45271 0.0
N139 N 0.2465 0.12599 0.43929 0.0
N140 N 0.24251 0.13983 0.42135 0.0
C141 C 0.24698 0.1116 0.42898 0.0
C142 C 0.23896 0.17313 0.42708 0.0
C143 C 0.24128 0.16453 0.43807 0.0
O144 O 0.30609 0.07105 0.45424 0.0
C145 C 0.16907 0.05193 0.46077 0.0
O146 O 0.1901 0.05031 0.47029 0.0
H147 H 0.24864 0.08101 0.4271 0.0
H148 H 0.23819 0.18503 0.44473 0.0
N149 N 0.24689 0.13566 0.46422 0.0
N150 N 0.23775 0.16656 0.48034 0.0
C151 C 0.22226 0.13792 0.47364 0.0
C152 C 0.27859 0.16404 0.46499 0.0
C153 C 0.27294 0.18318 0.47477 0.0
C154 C 0.32561 0.04858 0.44734 0.0
O155 O 0.30269 0.03785 0.43857 0.0
H156 H 0.19456 0.11836 0.47572 0.0
H157 H 0.30498 0.16977 0.45892 0.0
O158 O 0.18918 0.06806 0.45267 0.0
H159 H 0.23484 0.20174 0.42357 0.0
H160 H 0.29382 0.20724 0.47756 0.0
Cu161 Cu 0.9404 0.75678 0.69389 0.0
N162 N 0.9806 0.71432 0.69418 0.0
N163 N 1.00584 0.65315 0.69473 0.0
C164 C 0.96885 0.67686 0.69551 0.0
C165 C 0.04235 0.67657 0.69284 0.0
C166 C 0.02668 0.71429 0.69253 0.0
O167 O 0.89729 0.75054 0.70606 0.0
C168 C 0.94217 0.76075 0.67135 0.0
O169 O 0.98637 0.7634 0.67376 0.0
H170 H 0.93372 0.66701 0.69668 0.0
H171 H 0.04734 0.73986 0.691 0.0
N172 N 0.97458 0.80165 0.69675 0.0
N173 N 0.99854 0.86332 0.69746 0.0
C174 C 0.96865 0.83788 0.69283 0.0
C175 C 1.00896 0.80426 0.70412 0.0
C176 C 0.02388 0.84205 0.70456 0.0
C177 C 0.86575 0.72494 0.70691 0.0
O178 O 0.85612 0.70288 0.69845 0.0
H179 H 0.94258 0.84538 0.68683 0.0
H180 H 0.02142 0.78042 0.70906 0.0
O181 O 0.91314 0.75902 0.67921 0.0
H182 H 0.07776 0.66711 0.69173 0.0
H183 H 0.0501 0.85319 0.71005 0.0
Cu184 Cu 0.75764 0.5875 0.81008 0.0
N185 N 0.76762 0.61182 0.82361 0.0
N186 N 0.7729 0.62321 0.84163 0.0
C187 C 0.75817 0.59845 0.83376 0.0
C188 C 0.79214 0.65319 0.83617 0.0
C189 C 0.7889 0.64606 0.8251 0.0
O190 O 0.7004 0.55661 0.81072 0.0
C191 C 0.83472 0.5347 0.81252 0.0
O192 O 0.81363 0.52188 0.82133 0.0
H193 H 0.74183 0.57078 0.83533 0.0
H194 H 0.80164 0.66436 0.81857 0.0
N195 N 0.75048 0.62517 0.79913 0.0
N196 N 0.7568 0.65608 0.78304 0.0
C197 C 0.768 0.62408 0.78889 0.0
C198 C 0.72751 0.65899 0.79981 0.0
C199 C 0.73128 0.67806 0.78993 0.0
C200 C 0.66447 0.57308 0.81468 0.0
O201 O 0.66829 0.60879 0.8183 0.0
H202 H 0.78827 0.60008 0.7858 0.0
H203 H 0.70971 0.66928 0.80704 0.0
O204 O 0.81468 0.55973 0.80649 0.0
H205 H 0.80728 0.67868 0.8399 0.0
H206 H 0.7171 0.70634 0.78806 0.0
Cu207 Cu 0.5091 0.27882 0.07187 0.0
N208 N 0.55434 0.31781 0.07054 0.0
N209 N 0.59004 0.37563 0.07155 0.0
C210 C 0.55095 0.35525 0.07369 0.0
C211 C 0.61923 0.34957 0.067 0.0
C212 C 0.59725 0.31417 0.06641 0.0
O213 O 0.46057 0.28872 0.06091 0.0
C214 C 0.46173 0.25667 0.0921 0.0
O215 O 0.44029 0.2297 0.08644 0.0
H216 H 0.5202 0.36727 0.07741 0.0
H217 H 0.6118 0.28756 0.06325 0.0
N218 N 0.53511 0.23062 0.06794 0.0
N219 N 0.55434 0.16764 0.06665 0.0
C220 C 0.53695 0.196 0.07318 0.0
C221 C 0.55199 0.22372 0.05787 0.0
C222 C 0.56399 0.18529 0.05706 0.0
C223 C 0.44062 0.32105 0.05905 0.0
O224 O 0.44796 0.35025 0.06572 0.0
H225 H 0.52427 0.19135 0.08142 0.0
H226 H 0.55433 0.24518 0.05144 0.0
O227 O 0.48952 0.27955 0.08722 0.0
H228 H 0.65432 0.35531 0.06439 0.0
H229 H 0.57845 0.17135 0.0499 0.0
Cu230 Cu 0.7397 0.93588 0.30961 0.0
N231 N 0.74039 0.90788 0.32277 0.0
N232 N 0.74041 0.89437 0.34073 0.0
C233 C 0.74225 0.92251 0.33301 0.0
C234 C 0.73737 0.86082 0.33506 0.0
C235 C 0.73732 0.86924 0.32402 0.0
O236 O 0.79718 0.96684 0.30865 0.0
C237 C 0.66395 0.98456 0.30219 0.0
O238 O 0.68811 0.99071 0.29324 0.0
H239 H 0.74406 0.95324 0.33475 0.0
H240 H 0.735 0.84866 0.31736 0.0
N241 N 0.73724 0.90152 0.29767 0.0
N242 N 0.71401 0.87002 0.28253 0.0
C243 C 0.7026 0.89614 0.29037 0.0
C244 C 0.77144 0.87778 0.2944 0.0
C245 C 0.75731 0.85837 0.28513 0.0
C246 C 0.83475 0.95224 0.31237 0.0
O247 O 0.83342 0.91753 0.31678 0.0
H248 H 0.67007 0.91158 0.29069 0.0
H249 H 0.80451 0.87493 0.29846 0.0
O250 O 0.6818 0.96504 0.30997 0.0
H251 H 0.73577 0.83212 0.33862 0.0
H252 H 0.77743 0.83703 0.28071 0.0
Cu253 Cu 0.07026 0.25922 0.57315 0.0
N254 N 0.03134 0.21599 0.57445 0.0
N255 N 1.00641 0.15464 0.57454 0.0
C256 C 0.04186 0.17874 0.57224 0.0
C257 C 0.97203 0.17754 0.57826 0.0
C258 C 0.98763 0.21534 0.57827 0.0
O259 O 0.10776 0.25295 0.55987 0.0
C260 C 0.1163 0.23749 0.59299 0.0
O261 O 0.11532 0.20242 0.58883 0.0
H262 H 0.07491 0.16929 0.5691 0.0
H263 H 0.96871 0.24053 0.58106 0.0
N264 N 0.03347 0.30331 0.57102 0.0
N265 N 1.00808 0.3647 0.57094 0.0
C266 C 0.04223 0.3402 0.57408 0.0
C267 C 0.99275 0.30459 0.5657 0.0
C268 C 0.97695 0.34225 0.56567 0.0
C269 C 0.13817 0.22694 0.55809 0.0
O270 O 0.1512 0.20423 0.56615 0.0
H271 H 0.07304 0.34883 0.5785 0.0
H272 H 0.97604 0.27988 0.56195 0.0
O273 O 0.10277 0.2659 0.58712 0.0
H274 H 0.93861 0.16752 0.5811 0.0
H275 H 0.94563 0.35246 0.56176 0.0
Cu276 Cu 0.74931 0.93834 0.45436 0.0
N277 N 0.75836 0.91418 0.44074 0.0
N278 N 0.7636 0.90147 0.42277 0.0
C279 C 0.74861 0.92671 0.4305 0.0
C280 C 0.78316 0.87204 0.4284 0.0
C281 C 0.77996 0.87998 0.43941 0.0
O282 O 0.68833 0.96392 0.45503 0.0
C283 C 0.82753 0.99024 0.45133 0.0
O284 O 0.80925 0.99934 0.44183 0.0
H285 H 0.73215 0.95415 0.42874 0.0
H286 H 0.79306 0.86224 0.44602 0.0
N287 N 0.74636 0.89962 0.46508 0.0
N288 N 0.75475 0.86807 0.481 0.0
C289 C 0.7672 0.89931 0.47498 0.0
C290 C 0.71998 0.86752 0.46482 0.0
C291 C 0.72509 0.84801 0.4746 0.0
C292 C 0.67148 0.99093 0.44911 0.0
O293 O 0.69802 1.00818 0.44187 0.0
H294 H 0.78987 0.92218 0.47782 0.0
H295 H 0.69803 0.85924 0.45804 0.0
O296 O 0.80525 0.96822 0.45786 0.0
H297 H 0.7986 0.8464 0.42482 0.0
H298 H 0.70825 0.8211 0.47682 0.0
Cu299 Cu 0.06445 0.25953 0.69646 0.0
N300 N 0.02437 0.30189 0.69562 0.0
N301 N 0.99916 0.36307 0.69529 0.0
C302 C 0.03556 0.3394 0.69708 0.0
C303 C 0.96363 0.33954 0.69261 0.0
C304 C 0.97928 0.3018 0.69284 0.0
O305 O 0.10358 0.26706 0.70936 0.0
C306 C 0.06785 0.24757 0.67419 0.0
O307 O 0.02378 0.24223 0.67636 0.0
H308 H 0.07004 0.34928 0.69906 0.0
H309 H 0.95936 0.27613 0.69095 0.0
N310 N 0.02961 0.21492 0.69919 0.0
N311 N 1.00651 0.15313 0.70004 0.0
C312 C 0.03729 0.17838 0.69571 0.0
C313 C 0.99288 0.21269 0.70592 0.0
C314 C 0.97851 0.17471 0.70645 0.0
C315 C 0.1351 0.29238 0.71075 0.0
O316 O 0.14829 0.31382 0.70243 0.0
H317 H 0.06577 0.17032 0.69042 0.0
H318 H 0.97815 0.23698 0.71031 0.0
O319 O 0.09506 0.255 0.68216 0.0
H320 H 0.9289 0.34893 0.6906 0.0
H321 H 0.94983 0.16379 0.71124 0.0
Cu322 Cu 0.74676 0.59435 0.95529 0.0
N323 N 0.74877 0.61902 0.94154 0.0
N324 N 0.74804 0.62992 0.92343 0.0
C325 C 0.74854 0.60282 0.93146 0.0
C326 C 0.74799 0.66432 0.92869 0.0
C327 C 0.74836 0.65753 0.93979 0.0
O328 O 0.80725 0.5695 0.95798 0.0
C329 C 0.65432 0.57526 0.95234 0.0
O330 O 0.65486 0.61082 0.94849 0.0
H331 H 0.74752 0.57189 0.93003 0.0
H332 H 0.74774 0.67932 0.94614 0.0
N333 N 0.73851 0.63201 0.96623 0.0
N334 N 0.71034 0.66587 0.98043 0.0
C335 C 0.70475 0.63454 0.97387 0.0
C336 C 0.76659 0.66234 0.96814 0.0
C337 C 0.74928 0.68331 0.97681 0.0
C338 C 0.82663 0.54478 0.95169 0.0
O339 O 0.80346 0.53138 0.94325 0.0
H340 H 0.67672 0.6139 0.97459 0.0
H341 H 0.79775 0.66857 0.96356 0.0
O342 O 0.69221 0.56051 0.95577 0.0
H343 H 0.74806 0.69251 0.9248 0.0
H344 H 0.76497 0.70884 0.98038 0.0
Cu345 Cu 0.50555 0.24166 0.19561 0.0
N346 N 0.55045 0.20251 0.19715 0.0
N347 N 0.5852 0.14432 0.19722 0.0
C348 C 0.54472 0.16376 0.19624 0.0
C349 C 0.61759 0.17196 0.19878 0.0
C350 C 0.59614 0.20766 0.19872 0.0
O351 O 0.45678 0.23261 0.20649 0.0
C352 C 0.45843 0.26286 0.17523 0.0
O353 O 0.43527 0.28896 0.18083 0.0
H354 H 0.51185 0.15012 0.19453 0.0
H355 H 0.61288 0.23552 0.19958 0.0
N356 N 0.53225 0.28953 0.19951 0.0
N357 N 0.55012 0.35261 0.20115 0.0
C358 C 0.53064 0.32496 0.19473 0.0
C359 C 0.55355 0.29518 0.20917 0.0
C360 C 0.56469 0.33373 0.21019 0.0
C361 C 0.43089 0.20291 0.20748 0.0
O362 O 0.43177 0.17602 0.19987 0.0
H363 H 0.51403 0.33065 0.18695 0.0
H364 H 0.55948 0.27276 0.2152 0.0
O365 O 0.48693 0.24082 0.18019 0.0
H366 H 0.65422 0.1668 0.19992 0.0
H367 H 0.5819 0.34692 0.21713 0.0
C368 C 0.8891 1.00146 0.30391 0.0
C369 C 0.88007 0.97292 0.31182 0.0
C370 C 0.93326 0.01886 0.30309 0.0
C371 C 0.96898 1.00814 0.31049 0.0
C372 C 0.95964 0.9798 0.31858 0.0
C373 C 0.9157 0.96237 0.31907 0.0
C374 C 0.94183 0.04853 0.29424 0.0
C375 C 0.996 0.96808 0.32683 0.0
C376 C 0.09707 0.02879 0.30455 0.0
C377 C 0.10449 0.06306 0.31049 0.0
C378 C 0.05296 1.01109 0.30423 0.0
C379 C 0.01551 0.02759 0.31016 0.0
C380 C 0.02307 0.06196 0.31623 0.0
C381 C 0.06711 0.07932 0.31625 0.0
C382 C 0.04637 0.97473 0.29755 0.0
C383 C 0.98474 0.08022 0.32288 0.0
H384 H 0.862 1.00954 0.29821 0.0
H385 H 0.90911 0.94051 0.32525 0.0
H386 H 0.95093 0.07682 0.29799 0.0
H387 H 0.97165 0.03946 0.28912 0.0
H388 H 0.9112 0.05267 0.28887 0.0
H389 H 0.98326 0.94569 0.33263 0.0
H390 H 0.02695 0.95656 0.32256 0.0
H391 H 1.00725 0.99379 0.3316 0.0
H392 H 0.12553 0.01614 0.30001 0.0
H393 H 0.07233 0.10566 0.32093 0.0
H394 H 0.01775 0.97889 0.2916 0.0
H395 H 0.03645 0.95034 0.30298 0.0
H396 H 0.07817 0.9665 0.293 0.0
H397 H 0.95498 0.08736 0.31751 0.0
H398 H 0.99609 0.10711 0.3271 0.0
H399 H 0.97218 0.05937 0.32912 0.0
C400 C 0.99301 0.58592 0.55799 0.0
C401 C 0.99158 0.61223 0.56677 0.0
C402 C 0.99663 0.54585 0.55974 0.0
C403 C 0.99851 0.53126 0.57056 0.0
C404 C 0.99677 0.55746 0.5795 0.0
C405 C 0.99332 0.59764 0.5775 0.0
C406 C 0.99809 0.51907 0.54995 0.0
C407 C 0.99855 0.54303 0.59115 0.0
C408 C 0.9631 0.42541 0.57256 0.0
C409 C 1.00602 0.40637 0.5722 0.0
C410 C 0.96021 0.46607 0.57265 0.0
C411 C 1.00126 0.48846 0.57234 0.0
C412 C 0.04476 0.46946 0.57252 0.0
C413 C 0.04662 0.42868 0.57247 0.0
C414 C 0.9131 0.48503 0.57254 0.0
C415 C 0.08936 0.49218 0.57218 0.0
H416 H 0.99057 0.59651 0.54968 0.0
H417 H 0.99251 0.61763 0.58433 0.0
H418 H 0.02992 0.5011 0.5502 0.0
H419 H 0.9681 0.499 0.55017 0.0
H420 H 0.99735 0.53509 0.54206 0.0
H421 H 0.99692 0.56705 0.5972 0.0
H422 H 0.96929 0.52295 0.59269 0.0
H423 H 0.03094 0.52643 0.59251 0.0
H424 H 0.93158 0.40845 0.57259 0.0
H425 H 0.07992 0.41431 0.57214 0.0
H426 H 0.90734 0.4993 0.56451 0.0
H427 H 0.91108 0.50785 0.57892 0.0
H428 H 0.88477 0.46383 0.57393 0.0
H429 H 0.09296 0.50629 0.56406 0.0
H430 H 0.12011 0.47348 0.57358 0.0
H431 H 0.08901 0.51549 0.57843 0.0
C432 C 0.58292 0.56972 0.82155 0.0
C433 C 0.61839 0.55358 0.81513 0.0
C434 C 0.53855 0.55309 0.82197 0.0
C435 C 0.52876 0.51955 0.81571 0.0
C436 C 0.56428 0.5031 0.80915 0.0
C437 C 0.60874 0.52013 0.809 0.0
C438 C 0.50222 0.57128 0.82923 0.0
C439 C 0.55526 0.46755 0.80228 0.0
C440 C 0.42919 0.45521 0.8252 0.0
C441 C 0.39268 0.46676 0.81833 0.0
C442 C 0.47338 0.47203 0.8244 0.0
C443 C 0.48189 0.50095 0.81643 0.0
C444 C 0.4452 0.51286 0.80946 0.0
C445 C 0.40098 0.49586 0.81054 0.0
C446 C 0.51098 0.45887 0.83216 0.0
C447 C 0.45281 0.54337 0.80079 0.0
H448 H 0.58989 0.59546 0.82637 0.0
H449 H 0.63571 0.50758 0.80395 0.0
H450 H 0.47153 0.5795 0.82429 0.0
H451 H 0.49048 0.55 0.83545 0.0
H452 H 0.51519 0.5975 0.83353 0.0
H453 H 0.58588 0.45906 0.79733 0.0
H454 H 0.54556 0.44288 0.80763 0.0
H455 H 0.5257 0.47291 0.79668 0.0
H456 H 0.42324 0.43287 0.83128 0.0
H457 H 0.37319 0.50475 0.80513 0.0
H458 H 0.52381 0.4839 0.83699 0.0
H459 H 0.54077 0.44728 0.82745 0.0
H460 H 0.49882 0.43612 0.83791 0.0
H461 H 0.46365 0.57099 0.80467 0.0
H462 H 0.42121 0.5488 0.79584 0.0
H463 H 0.48116 0.53426 0.79523 0.0
C464 C 0.57187 0.11342 0.07943 0.0
C465 C 0.56002 0.12666 0.06893 0.0
C466 C 0.58122 0.07381 0.08139 0.0
C467 C 0.57827 0.04672 0.07266 0.0
C468 C 0.56471 0.05984 0.06215 0.0
C469 C 0.55586 0.09944 0.06043 0.0
C470 C 0.59557 0.06112 0.09271 0.0
C471 C 0.56045 0.03214 0.05263 0.0
C472 C 0.64762 0.95246 0.07287 0.0
C473 C 0.61379 0.92468 0.07549 0.0
C474 C 0.63684 0.99223 0.07228 0.0
C475 C 0.59097 1.00492 0.0743 0.0
C476 C 0.55681 0.97722 0.07714 0.0
C477 C 0.56859 0.93761 0.07772 0.0
C478 C 0.67441 0.02062 0.06921 0.0
C479 C 0.50748 0.98935 0.07934 0.0
H480 H 0.57533 0.13421 0.08603 0.0
H481 H 0.54575 0.10917 0.05235 0.0
H482 H 0.57324 0.03699 0.09556 0.0
H483 H 0.63163 0.05008 0.09249 0.0
H484 H 0.59362 0.08515 0.09875 0.0
H485 H 0.5477 0.04664 0.04508 0.0
H486 H 0.59464 0.01893 0.05085 0.0
H487 H 0.53641 1.0082 0.05472 0.0
H488 H 0.68249 0.94311 0.07102 0.0
H489 H 0.54222 0.91679 0.07995 0.0
H490 H 0.67637 0.04423 0.07536 0.0
H491 H 0.6661 0.03417 0.06121 0.0
H492 H 0.70892 1.00658 0.06859 0.0
H493 H 0.50656 0.01215 0.08574 0.0
H494 H 0.48555 0.96468 0.08203 0.0
H495 H 0.49217 1.00197 0.07181 0.0
C496 C 0.09004 0.4714 0.96215 0.0
C497 C 0.12016 0.49065 0.95492 0.0
C498 C 0.04226 0.4799 0.96239 0.0
C499 C 0.02383 0.50859 0.9553 0.0
C500 C 0.05427 0.52885 0.94821 0.0
C501 C 0.10179 0.51958 0.94808 0.0
C502 C 1.01126 0.4574 0.97003 0.0
C503 C 0.03645 0.55986 0.94057 0.0
C504 C 0.89657 0.50491 0.94667 0.0
C505 C 0.87634 0.53371 0.95326 0.0
C506 C 0.94406 0.49593 0.94744 0.0
C507 C 0.97258 0.51636 0.95492 0.0
C508 C 0.95226 0.54497 0.96174 0.0
C509 C 0.90452 0.55319 0.96086 0.0
C510 C 0.9639 0.46499 0.94006 0.0
C511 C 0.98121 0.56762 0.96979 0.0
H512 H 0.1036 0.44891 0.96745 0.0
H513 H 0.12452 0.53477 0.94248 0.0
H514 H 0.9912 0.47758 0.97528 0.0
H515 H 0.98596 0.44027 0.96521 0.0
H516 H 0.03105 0.4373 0.97538 0.0
H517 H 0.06476 0.57436 0.93598 0.0
H518 H 1.01203 0.54689 0.93459 0.0
H519 H 0.01707 0.58213 0.94525 0.0
H520 H 0.87535 0.48954 0.94078 0.0
H521 H 0.88952 0.5756 0.96597 0.0
H522 H 0.982 0.44269 0.94502 0.0
H523 H 0.98987 0.478 0.93447 0.0
H524 H 0.93689 0.45051 0.93504 0.0
H525 H 0.9999 0.54754 0.97534 0.0
H526 H 0.96007 0.58778 0.97482 0.0
H527 H 1.00771 0.58469 0.96532 0.0
C528 C 0.55103 0.41976 0.20818 0.0
C529 C 0.55343 0.39398 0.19929 0.0
C530 C 0.55802 0.45977 0.2068 0.0
C531 C 0.56806 0.47471 0.19626 0.0
C532 C 0.56909 0.44904 0.18718 0.0
C533 C 0.56149 0.40901 0.18879 0.0
C534 C 0.55587 0.48593 0.2167 0.0
C535 C 0.57988 0.46367 0.17582 0.0
C536 C 0.55662 0.5844 0.19256 0.0
C537 C 0.60229 0.59719 0.19428 0.0
C538 C 0.54508 0.5447 0.19293 0.0
C539 C 0.58 0.51677 0.19497 0.0
C540 C 0.62623 0.52931 0.19648 0.0
C541 C 0.63671 0.56913 0.19618 0.0
C542 C 0.4953 0.53269 0.19135 0.0
C543 C 0.66466 0.50064 0.19866 0.0
H544 H 0.54389 0.40852 0.21628 0.0
H545 H 0.56357 0.38928 0.18191 0.0
H546 H 0.5904 0.49891 0.21822 0.0
H547 H 0.53135 0.51012 0.21522 0.0
H548 H 0.54489 0.47019 0.2242 0.0
H549 H 0.57622 0.44064 0.16952 0.0
H550 H 0.55665 0.48812 0.17367 0.0
H551 H 0.61587 0.47484 0.17558 0.0
H552 H 0.52962 0.60533 0.19092 0.0
H553 H 0.67198 0.57815 0.19767 0.0
H554 H 0.48225 0.51871 0.19893 0.0
H555 H 0.49266 0.51099 0.18468 0.0
H556 H 0.47252 0.55766 0.18935 0.0
H557 H 0.65856 0.48589 0.2066 0.0
H558 H 0.69923 0.5147 0.19893 0.0
H559 H 0.66506 0.47796 0.19222 0.0
C560 C 0.39684 0.01231 0.44119 0.0
C561 C 0.37562 0.03794 0.44859 0.0
C562 C 0.44466 1.00431 0.4417 0.0
C563 C 0.47248 0.02251 0.44977 0.0
C564 C 0.45116 0.04787 0.4574 0.0
C565 C 0.40317 0.05516 0.45675 0.0
C566 C 0.46559 0.97678 0.43347 0.0
C567 C 0.47929 0.06805 0.46612 0.0
C568 C 0.59088 0.97792 0.45621 0.0
C569 C 0.62097 1.00053 0.4498 0.0
C570 C 0.54278 0.98498 0.45638 0.0
C571 C 0.52391 0.01561 0.45006 0.0
C572 C 0.5542 0.03905 0.44375 0.0
C573 C 0.60212 0.03117 0.44367 0.0
C574 C 0.512 0.95906 0.46317 0.0
C575 C 0.53587 0.07222 0.43695 0.0
H576 H 0.37614 0.99876 0.43485 0.0
H577 H 0.38742 0.07514 0.46249 0.0
H578 H 0.49135 0.99235 0.42837 0.0
H579 H 0.48417 0.95307 0.43775 0.0
H580 H 0.43914 0.9638 0.42798 0.0
H581 H 0.4575 0.086 0.47164 0.0
H582 H 0.49824 0.0464 0.47112 0.0
H583 H 0.50554 0.08702 0.46222 0.0
H584 H 0.60477 0.95407 0.46097 0.0
H585 H 0.62481 0.04891 0.43869 0.0
H586 H 0.48721 0.94366 0.45777 0.0
H587 H 0.49136 0.9767 0.46899 0.0
H588 H 0.53202 0.9372 0.46789 0.0
H589 H 0.51195 0.06097 0.4306 0.0
H590 H 0.56396 0.08871 0.43285 0.0
H591 H 0.51578 0.09242 0.44219 0.0
C592 C 0.99032 0.08788 0.70734 0.0
C593 C 1.00529 0.11158 0.69871 0.0
C594 C 0.98922 0.0474 0.70628 0.0
C595 C 1.00307 0.03003 0.6963 0.0
C596 C 0.0178 0.05376 0.6875 0.0
C597 C 0.01902 0.09427 0.68883 0.0
C598 C 0.9739 0.02318 0.71593 0.0
C599 C 0.03233 0.03636 0.6767 0.0
C600 C 0.04157 0.92512 0.69866 0.0
C601 C 1.0009 0.9049 0.69601 0.0
C602 C 0.04322 0.96577 0.69842 0.0
C603 C 1.00339 0.98694 0.69531 0.0
C604 C 0.96292 0.96679 0.69207 0.0
C605 C 0.96209 0.92604 0.6925 0.0
C606 C 0.08708 0.98608 0.70194 0.0
C607 C 0.91987 0.98831 0.68859 0.0
H608 H 0.98035 0.101 0.71504 0.0
H609 H 0.03014 0.11249 0.68211 0.0
H610 H 0.94412 1.0047 0.71357 0.0
H611 H 1.00237 1.00357 0.71848 0.0
H612 H 0.96365 0.0412 0.72307 0.0
H613 H 0.04157 0.05883 0.67056 0.0
H614 H 0.06262 0.01707 0.67792 0.0
H615 H 1.00394 0.01826 0.67334 0.0
H616 H 0.07211 0.90917 0.70112 0.0
H617 H 0.93042 0.91091 0.69047 0.0
H618 H 0.08053 1.00275 0.70955 0.0
H619 H 0.0982 1.00708 0.69559 0.0
H620 H 0.11589 0.96545 0.70348 0.0
H621 H 0.90512 1.00395 0.69572 0.0
H622 H 0.89298 0.96855 0.68526 0.0
H623 H 0.92844 1.01031 0.68229 0.0
C624 C 0.59465 0.02059 0.29492 0.0
C625 C 0.61401 0.99522 0.30265 0.0
C626 C 0.54687 0.02878 0.29489 0.0
C627 C 0.51748 1.01063 0.30265 0.0
C628 C 0.53688 0.98511 0.31049 0.0
C629 C 0.58481 0.97799 0.31046 0.0
C630 C 0.52779 0.05674 0.28652 0.0
C631 C 0.50686 0.96474 0.31882 0.0
C632 C 0.40028 0.05591 0.30913 0.0
C633 C 0.37004 0.0342 0.30252 0.0
C634 C 0.44817 0.04869 0.3092 0.0
C635 C 0.46653 0.01855 0.30264 0.0
C636 C 0.43616 0.996 0.2961 0.0
C637 C 0.38839 1.0043 0.29605 0.0
C638 C 0.47924 0.07378 0.31617 0.0
C639 C 0.45417 0.96318 0.28913 0.0
H640 H 0.61684 0.03404 0.28886 0.0
H641 H 0.59922 0.95804 0.31641 0.0
H642 H 0.50227 0.04175 0.28121 0.0
H643 H 0.50931 0.08075 0.29069 0.0
H644 H 0.55531 0.06927 0.28125 0.0
H645 H 0.52717 0.94548 0.3243 0.0
H646 H 0.48832 0.98636 0.32391 0.0
H647 H 0.48023 0.94709 0.31457 0.0
H648 H 0.38668 0.07932 0.3141 0.0
H649 H 0.36541 0.98736 0.29092 0.0
H650 H 0.50531 0.0884 0.31094 0.0
H651 H 0.49841 0.0556 0.32214 0.0
H652 H 0.45964 0.09625 0.32075 0.0
H653 H 0.47897 0.97452 0.28298 0.0
H654 H 0.42599 0.94764 0.28476 0.0
H655 H 0.47323 0.94209 0.29431 0.0
C656 C 0.02237 0.93033 0.56025 0.0
C657 C 1.00782 0.9067 0.56893 0.0
C658 C 0.02186 0.97089 0.56117 0.0
C659 C 1.00717 0.98826 0.57108 0.0
C660 C 0.99301 0.96451 0.57993 0.0
C661 C 0.9931 0.92401 0.57871 0.0
C662 C 0.03647 0.99518 0.55147 0.0
C663 C 0.9779 0.98189 0.5907 0.0
C664 C 0.04638 0.09183 0.5763 0.0
C665 C 1.00637 0.11299 0.57376 0.0
C666 C 0.04689 0.0512 0.57564 0.0
C667 C 1.00664 0.03128 0.57216 0.0
C668 C 0.96615 0.05255 0.56955 0.0
C669 C 0.96638 0.09315 0.57049 0.0
C670 C 0.09047 0.02958 0.5787 0.0
C671 C 0.92281 0.03246 0.56562 0.0
H672 H 0.03306 0.91705 0.55262 0.0
H673 H 0.98217 0.90575 0.58545 0.0
H674 H 1.00776 0.0147 0.54902 0.0
H675 H 0.06626 0.01378 0.55374 0.0
H676 H 0.04644 0.97719 0.54431 0.0
H677 H 0.96892 0.9594 0.59685 0.0
H678 H 1.00591 1.00037 0.59407 0.0
H679 H 0.9473 1.00078 0.58942 0.0
H680 H 0.0771 0.10711 0.57898 0.0
H681 H 0.93558 0.10954 0.56844 0.0
H682 H 0.10347 0.01309 0.57153 0.0
H683 H 0.08289 1.00826 0.58526 0.0
H684 H 0.11831 0.0493 0.58158 0.0
H685 H 0.93038 0.01579 0.55805 0.0
H686 H 0.89433 0.05319 0.56387 0.0
H687 H 0.91073 1.01144 0.57187 0.0
C688 C 0.10803 0.49871 0.81503 0.0
C689 C 0.12626 0.48181 0.80552 0.0
C690 C 0.06069 0.50812 0.81581 0.0
C691 C 0.0304 0.49917 0.80702 0.0
C692 C 0.0487 0.48198 0.79741 0.0
C693 C 0.09643 0.47409 0.79671 0.0
C694 C 0.04307 0.52752 0.82608 0.0
C695 C 0.01764 0.47088 0.78797 0.0
C696 C 0.9023 0.48919 0.81432 0.0
C697 C 0.88391 0.5242 0.81042 0.0
C698 C 0.94954 0.48019 0.81298 0.0
C699 C 0.97958 0.50741 0.80795 0.0
C700 C 0.96111 0.5428 0.80399 0.0
C701 C 0.91349 0.55049 0.80513 0.0
C702 C 0.96737 0.44161 0.81701 0.0
C703 C 0.9919 0.57314 0.79886 0.0
H704 H 0.1309 0.50476 0.82185 0.0
H705 H 0.11014 0.46049 0.78939 0.0
H706 H 0.02434 0.55458 0.82394 0.0
H707 H 0.01812 0.50823 0.8303 0.0
H708 H 0.07144 0.53474 0.83187 0.0
H709 H 0.03712 0.4574 0.78112 0.0
H710 H 0.9909 0.45012 0.79083 0.0
H711 H 0.99925 0.4968 0.78483 0.0
H712 H 0.87967 0.46871 0.8184 0.0
H713 H 0.89972 0.57785 0.80221 0.0
H714 H 0.9925 0.4462 0.82375 0.0
H715 H 0.98595 0.42636 0.81033 0.0
H716 H 0.93913 0.42259 0.82005 0.0
H717 H 0.01878 0.58226 0.80482 0.0
H718 H 0.97225 0.59918 0.79621 0.0
H719 H 1.01012 0.56089 0.79166 0.0
C720 C 0.60373 0.60601 0.07188 0.0
C721 C 0.63278 0.6216 0.08001 0.0
C722 C 0.59715 0.56583 0.0708 0.0
C723 C 0.62074 0.54009 0.07789 0.0
C724 C 0.6507 0.55538 0.08601 0.0
C725 C 0.65621 0.59584 0.087 0.0
C726 C 0.56479 0.55091 0.06204 0.0
C727 C 0.67691 0.52894 0.09366 0.0
C728 C 0.57138 0.43791 0.08085 0.0
C729 C 0.5986 0.41659 0.07344 0.0
C730 C 0.57861 0.47787 0.0825 0.0
C731 C 0.61422 0.49722 0.07669 0.0
C732 C 0.64235 0.47586 0.06936 0.0
C733 C 0.63408 0.43606 0.06779 0.0
C734 C 0.54758 0.49955 0.09033 0.0
C735 C 0.6808 0.49523 0.06302 0.0
H736 H 0.58615 0.62516 0.06623 0.0
H737 H 0.67847 0.60723 0.09336 0.0
H738 H 0.58399 0.53205 0.05625 0.0
H739 H 0.53719 0.53298 0.06581 0.0
H740 H 0.54826 0.57472 0.05732 0.0
H741 H 0.69942 0.54524 0.09942 0.0
H742 H 0.65226 0.51116 0.09848 0.0
H743 H 0.69876 0.50863 0.08888 0.0
H744 H 0.54435 0.42344 0.08541 0.0
H745 H 0.65506 0.42044 0.06193 0.0
H746 H 0.52836 0.52246 0.08586 0.0
H747 H 0.56867 0.51415 0.0967 0.0
H748 H 0.52218 0.4802 0.09443 0.0
H749 H 0.66608 0.51729 0.05741 0.0
H750 H 0.70126 0.47422 0.05811 0.0
H751 H 0.7045 0.51055 0.06871 0.0
C752 C 0.39421 0.49855 0.96183 0.0
C753 C 0.38587 0.46458 0.95584 0.0
C754 C 0.43827 0.51623 0.96177 0.0
C755 C 0.47448 0.50004 0.95537 0.0
C756 C 0.46585 0.4661 0.94919 0.0
C757 C 0.42197 0.44867 0.94959 0.0
C758 C 0.44622 0.55205 0.9686 0.0
C759 C 0.50287 0.44834 0.94204 0.0
C760 C 0.57292 0.56562 0.94606 0.0
C761 C 0.60941 0.55433 0.95296 0.0
C762 C 0.52907 0.54824 0.94678 0.0
C763 C 0.5209 0.51924 0.95475 0.0
C764 C 0.55757 0.5077 0.96177 0.0
C765 C 0.60155 0.52509 0.96071 0.0
C766 C 0.49152 0.56081 0.93893 0.0
C767 C 0.55018 0.47726 0.97047 0.0
H768 H 0.36665 0.51078 0.96676 0.0
H769 H 0.41581 0.42254 0.94487 0.0
H770 H 0.47557 0.5472 0.9743 0.0
H771 H 0.45574 0.57675 0.96324 0.0
H772 H 0.41517 0.56022 0.97344 0.0
H773 H 0.49055 0.42201 0.93769 0.0
H774 H 0.51466 0.46978 0.93587 0.0
H775 H 0.53339 0.4404 0.94707 0.0
H776 H 0.57871 0.58809 0.94001 0.0
H777 H 0.62941 0.51654 0.96615 0.0
H778 H 0.46141 0.5722 0.94355 0.0
H779 H 0.47924 0.53553 0.93412 0.0
H780 H 0.50354 0.58355 0.93315 0.0
H781 H 0.52132 0.48604 0.97593 0.0
H782 H 0.58162 0.47244 0.97552 0.0
H783 H 0.54018 0.44939 0.96661 0.0
C784 C 0.61345 0.9166 0.18602 0.0
C785 C 0.63443 0.89799 0.19495 0.0
C786 C 0.60504 0.95679 0.18612 0.0
C787 C 0.61736 0.97897 0.19545 0.0
C788 C 0.63841 0.96028 0.20451 0.0
C789 C 0.64689 0.92014 0.20413 0.0
C790 C 0.58295 0.97553 0.17625 0.0
C791 C 0.65154 0.98263 0.21468 0.0
C792 C 0.63479 0.08809 0.19261 0.0
C793 C 0.5927 0.10289 0.19656 0.0
C794 C 0.64304 0.04795 0.1921 0.0
C795 C 0.60854 0.02173 0.19571 0.0
C796 C 0.56588 0.03644 0.19967 0.0
C797 C 0.5584 0.07677 0.19999 0.0
C798 C 0.68877 0.03358 0.18771 0.0
C799 C 0.52833 1.00957 0.20369 0.0
H800 H 0.60389 0.89963 0.1789 0.0
H801 H 0.66222 0.90588 0.21115 0.0
H802 H 0.5499 0.98955 0.17863 0.0
H803 H 0.60591 0.99859 0.17299 0.0
H804 H 0.57586 0.95435 0.1696 0.0
H805 H 0.66691 0.96373 0.22109 0.0
H806 H 0.67684 1.00563 0.21257 0.0
H807 H 0.62056 0.99717 0.21813 0.0
H808 H 0.66121 0.10797 0.18979 0.0
H809 H 0.52602 0.08792 0.20315 0.0
H810 H 0.68284 0.01391 0.18066 0.0
H811 H 0.70707 0.01661 0.1941 0.0
H812 H 0.71163 0.05766 0.18502 0.0
H813 H 0.51816 0.98922 0.19708 0.0
H814 H 0.49705 0.02553 0.20646 0.0
H815 H 0.5415 0.99186 0.2106 0.0
C816 C 0.896 0.03495 0.44968 0.0
C817 C 0.87664 1.00048 0.4537 0.0
C818 C 0.94328 0.04355 0.45124 0.0
C819 C 0.97252 0.01633 0.45655 0.0
C820 C 0.95306 0.98139 0.46058 0.0
C821 C 0.90534 0.97424 0.45929 0.0
C822 C 0.96196 0.08178 0.44717 0.0
C823 C 0.98293 0.95092 0.46595 0.0
C824 C 0.10204 0.02403 0.45022 0.0
C825 C 0.11951 0.04055 0.45987 0.0
C826 C 0.05463 0.01496 0.44916 0.0
C827 C 0.02345 0.02418 0.45776 0.0
C828 C 0.041 0.04127 0.46747 0.0
C829 C 0.08881 0.04852 0.46848 0.0
C830 C 0.03793 0.99547 0.43883 0.0
C831 C 1.00909 0.05296 0.47669 0.0
H832 H 0.87405 0.05534 0.44536 0.0
H833 H 0.89082 0.94725 0.46226 0.0
H834 H 0.98035 0.09705 0.45389 0.0
H835 H 0.98742 0.07669 0.44054 0.0
H836 H 0.9342 0.10101 0.44398 0.0
H837 H 0.9627 0.9251 0.46853 0.0
H838 H 1.01035 0.94145 0.46018 0.0
H839 H 1.0005 0.96315 0.47325 0.0
H840 H 0.12559 0.01782 0.44354 0.0
H841 H 0.10197 0.0619 0.47589 0.0
H842 H 0.01387 0.01493 0.43438 0.0
H843 H 0.01847 0.96872 0.4409 0.0
H844 H 0.06688 0.98771 0.43326 0.0
H845 H 0.98269 0.07362 0.4736 0.0
H846 H 0.02797 0.06676 0.48359 0.0
H847 H 0.99035 0.02725 0.47985 0.0
C848 C 0.97094 0.42619 0.68853 0.0
C849 C 0.99915 0.4048 0.69566 0.0
C850 C 0.97185 0.46686 0.68854 0.0
C851 C 1.00137 0.4866 0.69592 0.0
C852 C 0.02941 0.46518 0.70326 0.0
C853 C 0.02811 0.42453 0.703 0.0
C854 C 0.94178 0.4887 0.68052 0.0
C855 C 0.06092 0.48521 0.71134 0.0
C856 C 0.03674 0.58972 0.68895 0.0
C857 C 1.0057 0.61145 0.69528 0.0
C858 C 0.03582 0.54905 0.68911 0.0
C859 C 1.00337 0.52968 0.69586 0.0
C860 C 0.97242 0.55147 0.7024 0.0
C861 C 0.97382 0.5921 0.702 0.0
C862 C 0.06906 0.52681 0.68193 0.0
C863 C 0.93772 0.53186 0.7098 0.0
H864 H 0.94896 0.41106 0.68276 0.0
H865 H 0.04951 0.40809 0.70861 0.0
H866 H 0.91837 0.5087 0.68497 0.0
H867 H 0.96374 0.50666 0.67506 0.0
H868 H 0.92047 0.46901 0.67538 0.0
H869 H 0.07967 0.46433 0.71667 0.0
H870 H 0.08672 0.50309 0.7069 0.0
H871 H 0.04053 0.50509 0.7166 0.0
H872 H 0.06101 0.60456 0.68365 0.0
H873 H 0.9502 0.60882 0.70701 0.0
H874 H 0.04946 0.50856 0.67605 0.0
H875 H 0.09048 0.50705 0.687 0.0
H876 H 0.09243 0.54624 0.67723 0.0
H877 H 0.91385 0.51374 0.70486 0.0
H878 H 0.91689 0.553 0.71458 0.0
H879 H 0.95581 0.51225 0.7156 0.0
C880 C 0.21643 0.1121 0.35611 0.0
C881 C 0.2475 0.13732 0.35089 0.0
C882 C 0.21463 0.10945 0.36762 0.0
C883 C 0.24511 0.13213 0.37409 0.0
C884 C 0.27742 0.15678 0.36883 0.0
C885 C 0.278 0.15925 0.35734 0.0
C886 C 0.17927 0.08318 0.37287 0.0
C887 C 0.31105 0.18105 0.37536 0.0
C888 C 0.21385 0.16128 0.40326 0.0
C889 C 0.24085 0.13583 0.40956 0.0
C890 C 0.21378 0.15947 0.39176 0.0
C891 C 0.24185 0.13181 0.38634 0.0
C892 C 0.26845 0.10542 0.39265 0.0
C893 C 0.26737 0.10757 0.40418 0.0
C894 C 0.1843 0.18778 0.3854 0.0
C895 C 0.29923 0.07576 0.38722 0.0
H896 H 0.19259 0.09527 0.35118 0.0
H897 H 0.30266 0.17827 0.35337 0.0
H898 H 0.19646 0.06278 0.3786 0.0
H899 H 0.15455 0.10073 0.37775 0.0
H900 H 0.15948 0.06617 0.36673 0.0
H901 H 0.33571 0.19706 0.37005 0.0
H902 H 0.29178 0.20236 0.38041 0.0
H903 H 0.33105 0.16238 0.38105 0.0
H904 H 0.19267 0.18274 0.40736 0.0
H905 H 0.28853 0.088 0.40899 0.0
H906 H 0.16171 0.17198 0.37957 0.0
H907 H 0.2068 0.20729 0.38053 0.0
H908 H 0.1622 0.20582 0.39083 0.0
H909 H 0.27902 0.05819 0.38131 0.0
H910 H 0.31575 0.05598 0.39324 0.0
H911 H 0.32682 0.09073 0.38253 0.0
C912 C 0.8786 0.71301 0.60866 0.0
C913 C 0.88922 0.74508 0.60206 0.0
C914 C 0.88081 0.71548 0.62017 0.0
C915 C 0.89331 0.75101 0.6252 0.0
C916 C 0.90109 0.78408 0.61857 0.0
C917 C 0.89932 0.78065 0.60711 0.0
C918 C 0.8727 0.6794 0.62689 0.0
C919 C 0.91386 0.82267 0.62356 0.0
C920 C 0.88224 0.7637 0.65626 0.0
C921 C 0.92805 0.75762 0.65967 0.0
C922 C 0.87008 0.76152 0.64507 0.0
C923 C 0.90439 0.75243 0.63717 0.0
C924 C 0.9504 0.7455 0.64063 0.0
C925 C 0.96164 0.74846 0.65177 0.0
C926 C 0.8208 0.76958 0.64169 0.0
C927 C 0.98806 0.7352 0.63256 0.0
H928 H 0.87081 0.68539 0.60485 0.0
H929 H 0.90711 0.80573 0.60208 0.0
H930 H 0.90603 0.66945 0.63043 0.0
H931 H 0.849 0.6856 0.63381 0.0
H932 H 0.8579 0.65543 0.62192 0.0
H933 H 0.91279 0.84655 0.61746 0.0
H934 H 0.8901 0.82987 0.6304 0.0
H935 H 0.94937 0.82105 0.62699 0.0
H936 H 0.85611 0.77083 0.6623 0.0
H937 H 0.99706 0.74328 0.6543 0.0
H938 H 0.80675 0.74466 0.63701 0.0
H939 H 0.81979 0.79517 0.63619 0.0
H940 H 0.79794 0.7752 0.64883 0.0
H941 H 0.97784 0.70928 0.62775 0.0
H942 H 0.02167 0.72914 0.63663 0.0
H943 H 0.99308 0.75937 0.62668 0.0
C944 C 0.27641 0.41428 0.86262 0.0
C945 C 0.2452 0.38943 0.85731 0.0
C946 C 0.27814 0.41644 0.87415 0.0
C947 C 0.24743 0.39366 0.88053 0.0
C948 C 0.21497 0.36941 0.87517 0.0
C949 C 0.21448 0.3674 0.86367 0.0
C950 C 0.31369 0.44228 0.8795 0.0
C951 C 0.18109 0.34507 0.8816 0.0
C952 C 0.278 0.36364 0.90969 0.0
C953 C 0.25134 0.38928 0.91601 0.0
C954 C 0.27817 0.36563 0.89819 0.0
C955 C 0.25046 0.3936 0.89278 0.0
C956 C 0.22407 0.42006 0.89911 0.0
C957 C 0.22512 0.41778 0.91064 0.0
C958 C 0.30747 0.33726 0.89181 0.0
C959 C 0.1936 0.45001 0.89371 0.0
H960 H 0.30045 0.43114 0.85777 0.0
H961 H 0.18977 0.34863 0.85962 0.0
H962 H 0.29662 0.46259 0.88527 0.0
H963 H 0.33816 0.42438 0.88435 0.0
H964 H 0.33373 0.45937 0.87342 0.0
H965 H 0.15636 0.32941 0.87622 0.0
H966 H 0.20013 0.32345 0.8866 0.0
H967 H 0.16118 0.36363 0.88733 0.0
H968 H 0.29893 0.34198 0.91378 0.0
H969 H 0.20421 0.43749 0.91546 0.0
H970 H 0.33035 0.35305 0.88604 0.0
H971 H 0.28487 0.31806 0.88686 0.0
H972 H 0.32925 0.31891 0.89723 0.0
H973 H 0.21413 0.46776 0.8879 0.0
H974 H 0.17691 0.46961 0.89975 0.0
H975 H 0.16615 0.43531 0.8889 0.0
C976 C 0.52914 0.81513 0.1127 0.0
C977 C 0.52366 0.78458 0.10525 0.0
C978 C 0.52138 0.80975 0.12393 0.0
C979 C 0.50772 0.77281 0.12781 0.0
C980 C 0.49544 0.74368 0.12013 0.0
C981 C 0.50392 0.74978 0.10887 0.0
C982 C 0.5343 0.84198 0.13172 0.0
C983 C 0.47857 0.70453 0.12387 0.0
C984 C 0.57755 0.74369 0.1527 0.0
C985 C 0.548 0.75291 0.16144 0.0
C986 C 0.56378 0.74835 0.1418 0.0
C987 C 0.51875 0.7622 0.13941 0.0
C988 C 0.48755 0.76948 0.14815 0.0
C989 C 0.50268 0.76505 0.1591 0.0
C990 C 0.59859 0.74018 0.13283 0.0
C991 C 0.4389 0.78336 0.14603 0.0
H992 H 0.54413 0.84219 0.10989 0.0
H993 H 0.49966 0.72603 0.10315 0.0
H994 H 0.50836 0.84462 0.13836 0.0
H995 H 0.56818 0.83523 0.13556 0.0
H996 H 0.53724 0.87035 0.12747 0.0
H997 H 0.45972 0.68916 0.11723 0.0
H998 H 0.50862 0.68647 0.12632 0.0
H999 H 0.45549 0.70739 0.13109 0.0
H1000 H 0.61243 0.7337 0.15435 0.0
H1001 H 0.4794 0.77195 0.16578 0.0
H1002 H 0.60602 0.76721 0.12822 0.0
H1003 H 0.58436 0.71881 0.12695 0.0
H1004 H 0.63179 0.72867 0.13608 0.0
H1005 H 0.43897 0.81538 0.14521 0.0
H1006 H 0.4155 0.7757 0.15292 0.0
H1007 H 0.42476 0.77094 0.13834 0.0
C1008 C 0.73247 0.59866 0.85815 0.0
C1009 C 0.76945 0.61894 0.85339 0.0
C1010 C 0.7274 0.59659 0.86961 0.0
C1011 C 0.76022 0.61507 0.87648 0.0
C1012 C 0.79841 0.63446 0.87171 0.0
C1013 C 0.80249 0.63619 0.86026 0.0
C1014 C 0.68612 0.57573 0.87436 0.0
C1015 C 0.83445 0.65429 0.8787 0.0
C1016 C 0.72701 0.65155 0.9048 0.0
C1017 C 0.74787 0.6241 0.9117 0.0
C1018 C 0.72938 0.64814 0.89335 0.0
C1019 C 0.75337 0.61651 0.88862 0.0
C1020 C 0.77323 0.58795 0.89552 0.0
C1021 C 0.77012 0.59202 0.90698 0.0
C1022 C 0.70732 0.67909 0.88633 0.0
C1023 C 0.79919 0.55385 0.89082 0.0
H1024 H 0.70665 0.58545 0.85291 0.0
H1025 H 0.83167 0.65123 0.85667 0.0
H1026 H 0.6975 0.55432 0.88058 0.0
H1027 H 0.66325 0.59685 0.87856 0.0
H1028 H 0.66564 0.56045 0.86798 0.0
H1029 H 0.86341 0.66622 0.87376 0.0
H1030 H 0.81825 0.67841 0.88333 0.0
H1031 H 0.84882 0.63364 0.88478 0.0
H1032 H 0.70895 0.67599 0.90837 0.0
H1033 H 0.78654 0.57082 0.91225 0.0
H1034 H 0.68366 0.66571 0.88026 0.0
H1035 H 0.73449 0.69479 0.88169 0.0
H1036 H 0.68748 0.70048 0.89125 0.0
H1037 H 0.77772 0.53883 0.8846 0.0
H1038 H 0.80939 0.5326 0.89722 0.0
H1039 H 0.83091 0.56423 0.88663 0.0
C1040 C 0.48267 0.23552 0.15701 0.0
C1041 C 0.45418 0.26069 0.16305 0.0
C1042 C 0.48131 0.23467 0.1455 0.0
C1043 C 0.45052 0.25942 0.13978 0.0
C1044 C 0.42085 0.28424 0.14581 0.0
C1045 C 0.42313 0.28467 0.15735 0.0
C1046 C 0.51371 0.20785 0.13943 0.0
C1047 C 0.38725 0.31087 0.14007 0.0
C1048 C 0.48331 0.28501 0.11038 0.0
C1049 C 0.45642 0.25891 0.10425 0.0
C1050 C 0.48103 0.28594 0.12189 0.0
C1051 C 0.4509 0.26033 0.1275 0.0
C1052 C 0.42276 0.2346 0.12136 0.0
C1053 C 0.42596 0.2341 0.10984 0.0
C1054 C 0.51181 0.31375 0.12807 0.0
C1055 C 0.3899 0.20704 0.12698 0.0
H1056 H 0.50683 0.21683 0.16129 0.0
H1057 H 0.40087 0.30418 0.16189 0.0
H1058 H 0.49378 0.18861 0.13389 0.0
H1059 H 0.53766 0.22508 0.13426 0.0
H1060 H 0.53457 0.18955 0.14507 0.0
H1061 H 0.36482 0.32688 0.14591 0.0
H1062 H 0.40655 0.33222 0.13504 0.0
H1063 H 0.36493 0.294 0.13441 0.0
H1064 H 0.50699 0.30435 0.1062 0.0
H1065 H 0.4049 0.21389 0.10522 0.0
H1066 H 0.53621 0.29727 0.13332 0.0
H1067 H 0.49069 0.33234 0.13354 0.0
H1068 H 0.53216 0.3327 0.12251 0.0
H1069 H 0.40973 0.18624 0.13208 0.0
H1070 H 0.3685 0.19042 0.12106 0.0
H1071 H 0.36655 0.22327 0.13255 0.0
C1072 C 0.72049 0.87109 0.35932 0.0
C1073 C 0.74138 0.89886 0.35252 0.0
C1074 C 0.72267 0.87406 0.37079 0.0
C1075 C 0.74641 0.90557 0.37566 0.0
C1076 C 0.76672 0.9342 0.36886 0.0
C1077 C 0.76391 0.93054 0.3574 0.0
C1078 C 0.7003 0.84297 0.3777 0.0
C1079 C 0.79251 0.96816 0.37371 0.0
C1080 C 0.72361 0.92468 0.40601 0.0
C1081 C 0.76051 0.90488 0.41098 0.0
C1082 C 0.71901 0.92593 0.39452 0.0
C1083 C 0.75223 0.90711 0.38783 0.0
C1084 C 0.79024 0.8881 0.3928 0.0
C1085 C 0.79386 0.8872 0.40427 0.0
C1086 C 0.67795 0.94648 0.38956 0.0
C1087 C 0.82669 0.86794 0.38601 0.0
H1088 H 0.70226 0.84691 0.35567 0.0
H1089 H 0.7805 0.95197 0.35225 0.0
H1090 H 0.72716 0.82752 0.38251 0.0
H1091 H 0.67588 0.85623 0.38362 0.0
H1092 H 0.68121 0.82139 0.37268 0.0
H1093 H 0.80383 0.98919 0.36736 0.0
H1094 H 0.77038 0.98351 0.37973 0.0
H1095 H 0.82351 0.95761 0.37817 0.0
H1096 H 0.69757 0.93822 0.41111 0.0
H1097 H 0.82301 0.87254 0.408 0.0
H1098 H 0.65575 0.92523 0.38521 0.0
H1099 H 0.68971 0.96802 0.38342 0.0
H1100 H 0.65667 0.96158 0.39582 0.0
H1101 H 0.81072 0.84385 0.38132 0.0
H1102 H 0.85516 0.85593 0.3911 0.0
H1103 H 0.84171 0.88843 0.37998 0.0
C1104 C 0.12864 0.25673 0.65944 0.0
C1105 C 0.08355 0.24636 0.66256 0.0
C1106 C 0.14179 0.25708 0.64829 0.0
C1107 C 0.10911 0.24684 0.6401 0.0
C1108 C 0.06383 0.23595 0.64327 0.0
C1109 C 0.05174 0.23582 0.65439 0.0
C1110 C 0.19042 0.26873 0.64525 0.0
C1111 C 0.02776 0.22466 0.63489 0.0
C1112 C 0.113 0.27764 0.6102 0.0
C1113 C 0.12399 0.24254 0.60499 0.0
C1114 C 0.11146 0.28035 0.6217 0.0
C1115 C 0.12129 0.24723 0.62818 0.0
C1116 C 0.13594 0.21265 0.62297 0.0
C1117 C 0.13704 0.21071 0.61147 0.0
C1118 C 0.09587 0.31787 0.62688 0.0
C1119 C 0.14709 0.17671 0.62951 0.0
H1120 H 0.15345 0.265 0.66567 0.0
H1121 H 0.01683 0.2276 0.65665 0.0
H1122 H 0.20712 0.24537 0.64041 0.0
H1123 H 0.18954 0.29497 0.64 0.0
H1124 H 0.2121 0.27491 0.65256 0.0
H1125 H 0.99412 0.21686 0.6387 0.0
H1126 H 0.02191 0.249 0.62911 0.0
H1127 H 0.04012 0.19955 0.63002 0.0
H1128 H 0.10305 0.3025 0.60531 0.0
H1129 H 0.14604 0.18352 0.60756 0.0
H1130 H 0.11827 0.32542 0.63394 0.0
H1131 H 0.06008 0.31441 0.63003 0.0
H1132 H 0.0962 0.3423 0.62096 0.0
H1133 H 0.16954 0.1839 0.63659 0.0
H1134 H 0.16462 0.1543 0.62446 0.0
H1135 H 0.11459 0.16415 0.6328 0.0
C1136 C 0.33471 0.14885 0.26723 0.0
C1137 C 0.28935 0.16197 0.26909 0.0
C1138 C 0.3571 0.15526 0.25713 0.0
C1139 C 0.33373 0.17529 0.24863 0.0
C1140 C 0.28788 0.18835 0.25042 0.0
C1141 C 0.26633 0.18154 0.26058 0.0
C1142 C 0.40603 0.14089 0.25561 0.0
C1143 C 0.26152 0.20965 0.2416 0.0
C1144 C 0.40603 0.22395 0.22633 0.0
C1145 C 0.40367 0.19692 0.21774 0.0
C1146 C 0.38331 0.21738 0.23636 0.0
C1147 C 0.35736 0.18296 0.23791 0.0
C1148 C 0.35417 0.15586 0.22921 0.0
C1149 C 0.37731 0.16313 0.21927 0.0
C1150 C 0.38763 0.24711 0.24538 0.0
C1151 C 0.32677 0.11887 0.23047 0.0
H1152 H 0.35313 0.13412 0.27373 0.0
H1153 H 0.23111 0.19128 0.2618 0.0
H1154 H 0.40778 0.12114 0.24845 0.0
H1155 H 0.42935 0.1657 0.25389 0.0
H1156 H 0.41918 0.12524 0.26293 0.0
H1157 H 0.22602 0.21773 0.24424 0.0
H1158 H 0.28036 0.23644 0.23927 0.0
H1159 H 0.259 0.19136 0.23415 0.0
H1160 H 0.42631 0.25012 0.2253 0.0
H1161 H 0.37523 0.14196 0.21273 0.0
H1162 H 0.40408 0.23377 0.25268 0.0
H1163 H 0.3528 0.25728 0.2479 0.0
H1164 H 0.40851 0.27263 0.24285 0.0
H1165 H 0.34141 0.10126 0.23724 0.0
H1166 H 0.32682 0.10113 0.22288 0.0
H1167 H 0.29042 0.12569 0.23267 0.0
C1168 C 0.73931 0.83771 0.49901 0.0
C1169 C 0.7689 0.85858 0.49205 0.0
C1170 C 0.75267 0.82796 0.50974 0.0
C1171 C 0.79689 0.83908 0.51363 0.0
C1172 C 0.8269 0.86025 0.50666 0.0
C1173 C 0.81249 0.86986 0.49599 0.0
C1174 C 0.71942 0.80577 0.51692 0.0
C1175 C 0.87449 0.87239 0.51043 0.0
C1176 C 0.82156 0.84435 0.54427 0.0
C1177 C 0.8458 0.80967 0.54611 0.0
C1178 C 0.80446 0.85385 0.53382 0.0
C1179 C 0.81205 0.82824 0.52493 0.0
C1180 C 0.83535 0.7927 0.52679 0.0
C1181 C 0.85171 0.78377 0.53734 0.0
C1182 C 0.77931 0.8918 0.53223 0.0
C1183 C 0.84434 0.76462 0.51754 0.0
H1184 H 0.70532 0.82938 0.49612 0.0
H1185 H 0.83574 0.8856 0.49065 0.0
H1186 H 0.73513 0.77779 0.51942 0.0
H1187 H 0.71231 0.82241 0.52451 0.0
H1188 H 0.68604 0.79975 0.51274 0.0
H1189 H 0.89359 0.88884 0.50405 0.0
H1190 H 0.8717 0.89072 0.51787 0.0
H1191 H 0.89507 0.84642 0.51268 0.0
H1192 H 0.81673 0.86456 0.55097 0.0
H1193 H 0.87054 0.75698 0.53862 0.0
H1194 H 0.74517 0.88668 0.52833 0.0
H1195 H 0.79945 0.91075 0.52665 0.0
H1196 H 0.77383 0.90745 0.54008 0.0
H1197 H 0.81136 0.75677 0.51346 0.0
H1198 H 0.8615 0.73762 0.5204 0.0
H1199 H 0.86671 0.77854 0.5113 0.0
C1200 C 0.18809 0.32775 0.72374 0.0
C1201 C 0.15284 0.30043 0.722 0.0
C1202 C 0.20303 0.33728 0.73439 0.0
C1203 C 0.18205 0.31934 0.74358 0.0
C1204 C 0.14666 0.29157 0.74188 0.0
C1205 C 0.13267 0.28236 0.73115 0.0
C1206 C 0.24119 0.36674 0.73581 0.0
C1207 C 0.12316 0.27188 0.75142 0.0
C1208 C 0.24914 0.31817 0.77048 0.0
C1209 C 0.22976 0.34961 0.77619 0.0
C1210 C 0.23373 0.30788 0.75995 0.0
C1211 C 0.19759 0.32922 0.75495 0.0
C1212 C 0.17685 0.36027 0.76077 0.0
C1213 C 0.1932 0.37012 0.77129 0.0
C1214 C 0.25678 0.27452 0.75408 0.0
C1215 C 0.13798 0.38361 0.7558 0.0
H1216 H 0.2039 0.34196 0.71677 0.0
H1217 H 0.1052 0.26139 0.72995 0.0
H1218 H 0.22844 0.39162 0.74071 0.0
H1219 H 0.27048 0.35365 0.74037 0.0
H1220 H 0.25428 0.37782 0.72785 0.0
H1221 H 0.09616 0.25101 0.74874 0.0
H1222 H 0.14909 0.25612 0.75643 0.0
H1223 H 0.10684 0.29391 0.75679 0.0
H1224 H 0.27675 0.30159 0.77421 0.0
H1225 H 0.17816 0.39465 0.77552 0.0
H1226 H 0.27281 0.28498 0.74637 0.0
H1227 H 0.23066 0.25237 0.75181 0.0
H1228 H 0.28396 0.26045 0.75914 0.0
H1229 H 0.15047 0.39863 0.74833 0.0
H1230 H 0.12406 0.40565 0.76156 0.0
H1231 H 0.10935 0.36414 0.75327 0.0
C1232 C 0.68059 0.71669 0.99282 0.0
C1233 C 0.68305 0.67749 0.98981 0.0
C1234 C 0.66006 0.72825 1.00272 0.0
C1235 C 0.64159 0.69992 1.00989 0.0
C1236 C 0.64084 0.66056 1.00653 0.0
C1237 C 0.66151 0.64981 0.99652 0.0
C1238 C 0.66141 0.77055 1.00588 0.0
C1239 C 0.62142 0.62937 1.01386 0.0
C1240 C 0.66109 0.72344 0.03984 0.0
C1241 C 0.61783 0.73757 0.04326 0.0
C1242 C 0.66843 0.70999 0.02917 0.0
C1243 C 0.63163 0.71059 1.02154 0.0
C1244 C 0.58726 0.72355 0.02497 0.0
C1245 C 0.58078 0.73683 0.03583 0.0
C1246 C 0.71628 0.69621 0.026 0.0
C1247 C 0.5471 0.72446 1.01709 0.0
H1248 H 0.69611 0.73837 0.98756 0.0
H1249 H 0.66314 0.61947 0.99427 0.0
H1250 H 0.62745 0.77994 1.00917 0.0
H1251 H 0.68754 0.77488 1.01242 0.0
H1252 H 0.67062 0.78945 0.99884 0.0
H1253 H 0.61558 0.60182 1.00935 0.0
H1254 H 0.64608 0.62363 1.02064 0.0
H1255 H 0.58828 0.63884 1.01759 0.0
H1256 H 0.6899 0.72315 0.04553 0.0
H1257 H 0.54723 0.74751 0.0384 0.0
H1258 H 0.73079 0.71548 1.01959 0.0
H1259 H 0.7145 0.66654 0.02252 0.0
H1260 H 0.74056 0.69585 0.03305 0.0
H1261 H 0.55338 0.7469 1.01075 0.0
H1262 H 0.51388 0.73108 1.02126 0.0
H1263 H 0.54385 0.69624 1.0128 0.0
C1264 C 0.41236 0.29848 0.04057 0.0
C1265 C 0.41334 0.32701 0.04878 0.0
C1266 C 0.38977 0.30502 0.03051 0.0
C1267 C 0.3672 0.34087 0.02856 0.0
C1268 C 0.36732 0.36949 0.03689 0.0
C1269 C 0.39042 0.36229 0.04685 0.0
C1270 C 0.39063 0.2737 0.02188 0.0
C1271 C 0.34337 0.40795 0.03524 0.0
C1272 C 0.34442 0.37264 0.999 0.0
C1273 C 0.29787 0.36216 0.99753 0.0
C1274 C 0.3674 0.36584 1.00901 0.0
C1275 C 0.3433 0.34838 1.01785 0.0
C1276 C 0.29621 0.33812 1.01645 0.0
C1277 C 0.27421 0.34504 1.00635 0.0
C1278 C 0.41767 0.37707 1.0101 0.0
C1279 C 0.26893 0.31984 0.02564 0.0
H1280 H 0.43009 0.2712 0.04191 0.0
H1281 H 0.39086 0.38459 0.0531 0.0
H1282 H 0.35477 0.26536 1.01964 0.0
H1283 H 0.40751 0.2848 1.01434 0.0
H1284 H 0.40943 0.24737 0.02465 0.0
H1285 H 0.34578 0.42687 0.04258 0.0
H1286 H 0.35898 0.42341 0.02819 0.0
H1287 H 0.3063 0.40324 0.03329 0.0
H1288 H 0.36318 0.38552 0.99224 0.0
H1289 H 0.23809 0.33741 1.00541 0.0
H1290 H 0.43871 0.35109 1.0121 0.0
H1291 H 0.422 0.39791 1.01695 0.0
H1292 H 0.43154 0.39042 1.00251 0.0
H1293 H 0.28553 0.29228 0.02819 0.0
H1294 H 0.23254 0.3137 0.02328 0.0
H1295 H 0.26883 0.3393 0.03287 0.0
C1296 C 0.70828 0.84232 0.26387 0.0
C1297 C 0.68659 0.85738 0.27324 0.0
C1298 C 0.68251 0.82799 0.25499 0.0
C1299 C 0.63352 0.82877 0.25537 0.0
C1300 C 0.61125 0.84516 0.26462 0.0
C1301 C 0.63798 0.85918 0.27344 0.0
C1302 C 0.70789 0.81104 0.24529 0.0
C1303 C 0.55916 0.8469 0.26532 0.0
C1304 C 0.57687 0.8107 0.2276 0.0
C1305 C 0.57117 0.77026 0.22781 0.0
C1306 C 0.59445 0.83074 0.23677 0.0
C1307 C 0.60629 0.80991 0.24639 0.0
C1308 C 0.59711 0.76959 0.24689 0.0
C1309 C 0.57989 0.75031 0.23761 0.0
C1310 C 0.60363 0.87369 0.23582 0.0
C1311 C 0.60883 0.74616 0.25696 0.0
H1312 H 0.74568 0.8416 0.26345 0.0
H1313 H 0.62069 0.87059 0.28061 0.0
H1314 H 0.6995 0.77977 0.24451 0.0
H1315 H 0.69653 0.82544 0.23762 0.0
H1316 H 0.74603 0.81413 0.24602 0.0
H1317 H 0.54716 0.86367 0.27255 0.0
H1318 H 0.54464 0.8603 0.25781 0.0
H1319 H 0.54498 0.81709 0.26588 0.0
H1320 H 0.57086 0.82635 0.22003 0.0
H1321 H 0.57559 0.71909 0.23783 0.0
H1322 H 0.64135 0.87862 0.23486 0.0
H1323 H 0.59243 0.88905 0.24335 0.0
H1324 H 0.58571 0.88668 0.22865 0.0
H1325 H 0.64699 0.74439 0.25786 0.0
H1326 H 0.59481 0.71621 0.25652 0.0
H1327 H 0.59505 0.76042 0.26442 0.0
C1328 C 0.1797 0.16318 0.49542 0.0
C1329 C 0.22279 0.17577 0.49142 0.0
C1330 C 0.16549 0.17147 0.50622 0.0
C1331 C 0.19476 0.19321 0.51323 0.0
C1332 C 0.23803 0.20622 0.50925 0.0
C1333 C 0.25156 0.19719 0.49849 0.0
C1334 C 0.11916 0.15682 0.51014 0.0
C1335 C 0.27032 0.22958 0.5164 0.0
C1336 C 0.14255 0.24447 0.53808 0.0
C1337 C 0.15459 0.21941 0.54669 0.0
C1338 C 0.15534 0.23634 0.52719 0.0
C1339 C 0.18051 0.20212 0.52477 0.0
C1340 C 0.19296 0.17681 0.53343 0.0
C1341 C 0.18008 0.18582 0.54425 0.0
C1342 C 0.14182 0.26438 0.51825 0.0
C1343 C 0.21955 0.13993 0.53124 0.0
H1344 H 0.15679 0.147 0.49011 0.0
H1345 H 0.28525 0.20661 0.49572 0.0
H1346 H 0.12395 0.13804 0.51744 0.0
H1347 H 0.09711 0.18156 0.51268 0.0
H1348 H 0.10057 0.14003 0.50375 0.0
H1349 H 0.30225 0.23848 0.51201 0.0
H1350 H 0.25247 0.256 0.51941 0.0
H1351 H 0.28041 0.21235 0.52369 0.0
H1352 H 0.12282 0.27047 0.53984 0.0
H1353 H 0.18931 0.16605 0.5508 0.0
H1354 H 0.12001 0.24945 0.51208 0.0
H1355 H 0.17323 0.27494 0.51396 0.0
H1356 H 0.12246 0.28977 0.52146 0.0
H1357 H 0.20004 0.12141 0.52542 0.0
H1358 H 0.22612 0.12306 0.53883 0.0
H1359 H 0.25326 0.14683 0.52736 0.0
C1360 C 0.85726 0.739 0.727 0.0
C1361 C 0.84471 0.71683 0.71782 0.0
C1362 C 0.84135 0.72947 0.73755 0.0
C1363 C 0.81206 0.69696 0.73901 0.0
C1364 C 0.79826 0.67505 0.72975 0.0
C1365 C 0.81471 0.68523 0.71928 0.0
C1366 C 0.85683 0.75371 0.74717 0.0
C1367 C 0.76698 0.64026 0.73093 0.0
C1368 C 0.81038 0.64982 0.76727 0.0
C1369 C 0.76997 0.6654 0.7719 0.0
C1370 C 0.82415 0.65948 0.75656 0.0
C1371 C 0.79692 0.68539 0.75026 0.0
C1372 C 0.75583 0.70088 0.75482 0.0
C1373 C 0.7429 0.69072 0.76555 0.0
C1374 C 0.8683 0.64238 0.75203 0.0
C1375 C 0.72567 0.72844 0.74839 0.0
H1376 H 0.88041 0.76346 0.726 0.0
H1377 H 0.80484 0.66781 0.71228 0.0
H1378 H 0.82631 0.76467 0.75173 0.0
H1379 H 0.87724 0.73559 0.75292 0.0
H1380 H 0.87836 0.77882 0.74463 0.0
H1381 H 0.75774 0.62729 0.7229 0.0
H1382 H 0.78434 0.61783 0.73599 0.0
H1383 H 0.73467 0.64856 0.73524 0.0
H1384 H 0.8319 0.63065 0.7721 0.0
H1385 H 0.71127 0.70248 0.76895 0.0
H1386 H 0.89317 0.66592 0.75012 0.0
H1387 H 0.86106 0.6268 0.74427 0.0
H1388 H 0.88495 0.62191 0.75785 0.0
H1389 H 0.74567 0.7548 0.74622 0.0
H1390 H 0.69434 0.73737 0.75302 0.0
H1391 H 0.71463 0.71467 0.74061 0.0
loop_
_geom_bond_atom_site_label_1
_geom_bond_atom_site_label_2
_geom_bond_distance
_geom_bond_site_symmetry_2
_ccdc_geom_bond_type
Cu0 N1 1.999 . S
Cu0 O6 1.974 . S
Cu0 N11 1.985 . S
Cu0 O20 1.959 . S
N1 Cu0 1.999 . S
N1 C3 1.263 . S
N1 C5 1.389 . S
N2 C3 1.358 . S
N2 C4 1.400 . S
C3 N1 1.263 . S
C3 N2 1.358 . S
C3 H9 0.930 . S
C4 N2 1.400 . S
C4 C5 1.351 . S
C4 H21 0.930 . S
C5 N1 1.389 . S
C5 C4 1.351 . S
C5 H10 0.930 . S
O6 Cu0 1.974 . S
O6 C16 1.282 . S
C7 O8 1.261 . S
C7 O20 1.251 . S
O8 C7 1.261 . S
H9 C3 0.930 . S
H10 C5 0.930 . S
N11 Cu0 1.985 . S
N11 C13 1.335 . S
N11 C14 1.390 . S
N12 C13 1.345 . S
N12 C15 1.336 . S
C13 N11 1.335 . S
C13 N12 1.345 . S
C13 H18 0.930 . S
C14 N11 1.390 . S
C14 C15 1.346 . S
C14 H19 0.930 . S
C15 N12 1.336 . S
C15 C14 1.346 . S
C15 H22 0.929 . S
C16 O6 1.282 . S
C16 O17 1.216 . S
O17 C16 1.216 . S
H18 C13 0.930 . S
H19 C14 0.930 . S
O20 Cu0 1.959 . S
O20 C7 1.251 . S
H21 C4 0.930 . S
H22 C15 0.929 . S
Cu23 N24 1.999 . S
Cu23 O29 1.974 . S
Cu23 N34 1.985 . S
Cu23 O43 1.959 . S
N24 Cu23 1.999 . S
N24 C26 1.263 . S
N24 C28 1.389 1_655 S
N25 C26 1.358 . S
N25 C27 1.400 . S
C26 N24 1.263 . S
C26 N25 1.358 . S
C26 H32 0.930 . S
C27 N25 1.400 . S
C27 C28 1.351 1_655 S
C27 H44 0.930 1_655 S
C28 N24 1.389 1_455 S
C28 C27 1.351 1_455 S
C28 H33 0.930 . S
O29 Cu23 1.974 . S
O29 C39 1.282 . S
C30 O31 1.261 . S
C30 O43 1.251 . S
O31 C30 1.261 . S
H32 C26 0.930 . S
H33 C28 0.930 . S
N34 Cu23 1.985 . S
N34 C36 1.335 . S
N34 C37 1.390 . S
N35 C36 1.345 . S
N35 C38 1.336 . S
C36 N34 1.335 . S
C36 N35 1.345 . S
C36 H41 0.930 . S
C37 N34 1.390 . S
C37 C38 1.346 . S
C37 H42 0.930 . S
C38 N35 1.336 . S
C38 C37 1.346 . S
C38 H45 0.929 . S
C39 O29 1.282 . S
C39 O40 1.216 . S
O40 C39 1.216 . S
H41 C36 0.930 . S
H42 C37 0.930 . S
O43 Cu23 1.959 . S
O43 C30 1.251 . S
H44 C27 0.930 1_455 S
H45 C38 0.929 . S
Cu46 N47 1.999 . S
Cu46 O52 1.974 . S
Cu46 N57 1.985 . S
Cu46 O66 1.959 . S
N47 Cu46 1.999 . S
N47 C49 1.263 . S
N47 C51 1.389 . S
N48 C49 1.358 . S
N48 C50 1.400 . S
C49 N47 1.263 . S
C49 N48 1.358 . S
C49 H55 0.930 . S
C50 N48 1.400 . S
C50 C51 1.351 . S
C50 H67 0.930 . S
C51 N47 1.389 . S
C51 C50 1.351 . S
C51 H56 0.930 . S
O52 Cu46 1.974 . S
O52 C62 1.282 . S
C53 O54 1.261 . S
C53 O66 1.251 . S
O54 C53 1.261 . S
H55 C49 0.930 . S
H56 C51 0.930 . S
N57 Cu46 1.985 . S
N57 C59 1.335 . S
N57 C60 1.390 . S
N58 C59 1.345 . S
N58 C61 1.336 . S
C59 N57 1.335 . S
C59 N58 1.345 . S
C59 H64 0.930 . S
C60 N57 1.390 . S
C60 C61 1.346 . S
C60 H65 0.930 . S
C61 N58 1.336 . S
C61 C60 1.346 . S
C61 H68 0.929 . S
C62 O52 1.282 . S
C62 O63 1.216 . S
O63 C62 1.216 . S
H64 C59 0.930 . S
H65 C60 0.930 . S
O66 Cu46 1.959 . S
O66 C53 1.251 . S
H67 C50 0.930 . S
H68 C61 0.929 . S
Cu69 N70 1.999 . S
Cu69 O75 1.974 . S
Cu69 N80 1.985 . S
Cu69 O89 1.959 . S
N70 Cu69 1.999 . S
N70 C72 1.263 . S
N70 C74 1.389 . S
N71 C72 1.358 . S
N71 C73 1.400 . S
C72 N70 1.263 . S
C72 N71 1.358 . S
C72 H78 0.930 . S
C73 N71 1.400 . S
C73 C74 1.351 . S
C73 H90 0.930 . S
C74 N70 1.389 . S
C74 C73 1.351 . S
C74 H79 0.930 . S
O75 Cu69 1.974 . S
O75 C85 1.282 . S
C76 O77 1.261 . S
C76 O89 1.251 . S
O77 C76 1.261 . S
H78 C72 0.930 . S
H79 C74 0.930 . S
N80 Cu69 1.985 . S
N80 C82 1.335 . S
N80 C83 1.390 . S
N81 C82 1.345 . S
N81 C84 1.336 . S
C82 N80 1.335 . S
C82 N81 1.345 . S
C82 H87 0.930 . S
C83 N80 1.390 . S
C83 C84 1.346 . S
C83 H88 0.930 . S
C84 N81 1.336 . S
C84 C83 1.346 . S
C84 H91 0.929 . S
C85 O75 1.282 . S
C85 O86 1.216 . S
O86 C85 1.216 . S
H87 C82 0.930 . S
H88 C83 0.930 . S
O89 Cu69 1.959 . S
O89 C76 1.251 . S
H90 C73 0.930 . S
H91 C84 0.929 . S
Cu92 N93 1.999 . S
Cu92 O98 1.974 . S
Cu92 N103 1.985 . S
Cu92 O112 1.959 . S
N93 Cu92 1.999 . S
N93 C95 1.263 . S
N93 C97 1.389 . S
N94 C95 1.358 . S
N94 C96 1.400 . S
C95 N93 1.263 . S
C95 N94 1.358 . S
C95 H101 0.930 . S
C96 N94 1.400 . S
C96 C97 1.351 . S
C96 H113 0.930 . S
C97 N93 1.389 . S
C97 C96 1.351 . S
C97 H102 0.930 . S
O98 Cu92 1.974 . S
O98 C108 1.282 . S
C99 O100 1.261 . S
C99 O112 1.251 . S
O100 C99 1.261 . S
H101 C95 0.930 . S
H102 C97 0.930 . S
N103 Cu92 1.985 . S
N103 C105 1.335 . S
N103 C106 1.390 . S
N104 C105 1.345 . S
N104 C107 1.336 . S
C105 N103 1.335 . S
C105 N104 1.345 . S
C105 H110 0.930 . S
C106 N103 1.390 . S
C106 C107 1.346 . S
C106 H111 0.930 . S
C107 N104 1.336 . S
C107 C106 1.346 . S
C107 H114 0.929 . S
C108 O98 1.282 . S
C108 O109 1.216 . S
O109 C108 1.216 . S
H110 C105 0.930 . S
H111 C106 0.930 . S
O112 Cu92 1.959 . S
O112 C99 1.251 . S
H113 C96 0.930 . S
H114 C107 0.929 . S
Cu115 N116 1.999 . S
Cu115 O121 1.974 . S
Cu115 N126 1.985 . S
Cu115 O135 1.959 . S
N116 Cu115 1.999 . S
N116 C118 1.263 . S
N116 C120 1.389 . S
N117 C118 1.358 . S
N117 C119 1.400 . S
C118 N116 1.263 . S
C118 N117 1.358 . S
C118 H124 0.930 . S
C119 N117 1.400 . S
C119 C120 1.351 . S
C119 H136 0.930 . S
C120 N116 1.389 . S
C120 C119 1.351 . S
C120 H125 0.930 . S
O121 Cu115 1.974 . S
O121 C131 1.282 . S
C122 O123 1.261 . S
C122 O135 1.251 . S
O123 C122 1.261 . S
H124 C118 0.930 . S
H125 C120 0.930 . S
N126 Cu115 1.985 . S
N126 C128 1.335 . S
N126 C129 1.390 . S
N127 C128 1.345 . S
N127 C130 1.336 . S
C128 N126 1.335 . S
C128 N127 1.345 . S
C128 H133 0.930 . S
C129 N126 1.390 . S
C129 C130 1.346 . S
C129 H134 0.930 . S
C130 N127 1.336 . S
C130 C129 1.346 . S
C130 H137 0.929 . S
C131 O121 1.282 . S
C131 O132 1.216 . S
O132 C131 1.216 . S
H133 C128 0.930 . S
H134 C129 0.930 . S
O135 Cu115 1.959 . S
O135 C122 1.251 . S
H136 C119 0.930 . S
H137 C130 0.929 . S
Cu138 N139 1.999 . S
Cu138 O144 1.974 . S
Cu138 N149 1.985 . S
Cu138 O158 1.959 . S
N139 Cu138 1.999 . S
N139 C141 1.263 . S
N139 C143 1.389 . S
N140 C141 1.358 . S
N140 C142 1.400 . S
C141 N139 1.263 . S
C141 N140 1.358 . S
C141 H147 0.930 . S
C142 N140 1.400 . S
C142 C143 1.351 . S
C142 H159 0.930 . S
C143 N139 1.389 . S
C143 C142 1.351 . S
C143 H148 0.930 . S
O144 Cu138 1.974 . S
O144 C154 1.282 . S
C145 O146 1.261 . S
C145 O158 1.251 . S
O146 C145 1.261 . S
H147 C141 0.930 . S
H148 C143 0.930 . S
N149 Cu138 1.985 . S
N149 C151 1.335 . S
N149 C152 1.390 . S
N150 C151 1.345 . S
N150 C153 1.336 . S
C151 N149 1.335 . S
C151 N150 1.345 . S
C151 H156 0.930 . S
C152 N149 1.390 . S
C152 C153 1.346 . S
C152 H157 0.930 . S
C153 N150 1.336 . S
C153 C152 1.346 . S
C153 H160 0.929 . S
C154 O144 1.282 . S
C154 O155 1.216 . S
O155 C154 1.216 . S
H156 C151 0.930 . S
H157 C152 0.930 . S
O158 Cu138 1.959 . S
O158 C145 1.251 . S
H159 C142 0.930 . S
H160 C153 0.929 . S
Cu161 N162 1.999 . S
Cu161 O167 1.974 . S
Cu161 N172 1.985 . S
Cu161 O181 1.959 . S
N162 Cu161 1.999 . S
N162 C164 1.263 . S
N162 C166 1.389 1_655 S
N163 C164 1.358 . S
N163 C165 1.400 . S
C164 N162 1.263 . S
C164 N163 1.358 . S
C164 H170 0.930 . S
C165 N163 1.400 . S
C165 C166 1.351 1_655 S
C165 H182 0.930 1_655 S
C166 N162 1.389 1_455 S
C166 C165 1.351 1_455 S
C166 H171 0.930 . S
O167 Cu161 1.974 . S
O167 C177 1.282 . S
C168 O169 1.261 . S
C168 O181 1.251 . S
O169 C168 1.261 . S
H170 C164 0.930 . S
H171 C166 0.930 . S
N172 Cu161 1.985 . S
N172 C174 1.335 . S
N172 C175 1.390 . S
N173 C174 1.345 . S
N173 C176 1.336 . S
C174 N172 1.335 . S
C174 N173 1.345 . S
C174 H179 0.930 . S
C175 N172 1.390 . S
C175 C176 1.346 . S
C175 H180 0.930 . S
C176 N173 1.336 . S
C176 C175 1.346 . S
C176 H183 0.929 . S
C177 O167 1.282 . S
C177 O178 1.216 . S
O178 C177 1.216 . S
H179 C174 0.930 . S
H180 C175 0.930 . S
O181 Cu161 1.959 . S
O181 C168 1.251 . S
H182 C165 0.930 1_455 S
H183 C176 0.929 . S
Cu184 N185 1.999 . S
Cu184 O190 1.974 . S
Cu184 N195 1.985 . S
Cu184 O204 1.959 . S
N185 Cu184 1.999 . S
N185 C187 1.263 . S
N185 C189 1.389 . S
N186 C187 1.358 . S
N186 C188 1.400 . S
C187 N185 1.263 . S
C187 N186 1.358 . S
C187 H193 0.930 . S
C188 N186 1.400 . S
C188 C189 1.351 . S
C188 H205 0.930 . S
C189 N185 1.389 . S
C189 C188 1.351 . S
C189 H194 0.930 . S
O190 Cu184 1.974 . S
O190 C200 1.282 . S
C191 O192 1.261 . S
C191 O204 1.251 . S
O192 C191 1.261 . S
H193 C187 0.930 . S
H194 C189 0.930 . S
N195 Cu184 1.985 . S
N195 C197 1.335 . S
N195 C198 1.390 . S
N196 C197 1.345 . S
N196 C199 1.336 . S
C197 N195 1.335 . S
C197 N196 1.345 . S
C197 H202 0.930 . S
C198 N195 1.390 . S
C198 C199 1.346 . S
C198 H203 0.930 . S
C199 N196 1.336 . S
C199 C198 1.346 . S
C199 H206 0.929 . S
C200 O190 1.282 . S
C200 O201 1.216 . S
O201 C200 1.216 . S
H202 C197 0.930 . S
H203 C198 0.930 . S
O204 Cu184 1.959 . S
O204 C191 1.251 . S
H205 C188 0.930 . S
H206 C199 0.929 . S
Cu207 N208 1.999 . S
Cu207 O213 1.974 . S
Cu207 N218 1.985 . S
Cu207 O227 1.959 . S
N208 Cu207 1.999 . S
N208 C210 1.263 . S
N208 C212 1.389 . S
N209 C210 1.358 . S
N209 C211 1.400 . S
C210 N208 1.263 . S
C210 N209 1.358 . S
C210 H216 0.930 . S
C211 N209 1.400 . S
C211 C212 1.351 . S
C211 H228 0.930 . S
C212 N208 1.389 . S
C212 C211 1.351 . S
C212 H217 0.930 . S
O213 Cu207 1.974 . S
O213 C223 1.282 . S
C214 O215 1.261 . S
C214 O227 1.251 . S
O215 C214 1.261 . S
H216 C210 0.930 . S
H217 C212 0.930 . S
N218 Cu207 1.985 . S
N218 C220 1.335 . S
N218 C221 1.390 . S
N219 C220 1.345 . S
N219 C222 1.336 . S
C220 N218 1.335 . S
C220 N219 1.345 . S
C220 H225 0.930 . S
C221 N218 1.390 . S
C221 C222 1.346 . S
C221 H226 0.930 . S
C222 N219 1.336 . S
C222 C221 1.346 . S
C222 H229 0.929 . S
C223 O213 1.282 . S
C223 O224 1.216 . S
O224 C223 1.216 . S
H225 C220 0.930 . S
H226 C221 0.930 . S
O227 Cu207 1.959 . S
O227 C214 1.251 . S
H228 C211 0.930 . S
H229 C222 0.929 . S
Cu230 N231 1.999 . S
Cu230 O236 1.974 . S
Cu230 N241 1.985 . S
Cu230 O250 1.959 . S
N231 Cu230 1.999 . S
N231 C233 1.263 . S
N231 C235 1.389 . S
N232 C233 1.358 . S
N232 C234 1.400 . S
C233 N231 1.263 . S
C233 N232 1.358 . S
C233 H239 0.930 . S
C234 N232 1.400 . S
C234 C235 1.351 . S
C234 H251 0.930 . S
C235 N231 1.389 . S
C235 C234 1.351 . S
C235 H240 0.930 . S
O236 Cu230 1.974 . S
O236 C246 1.282 . S
C237 O238 1.261 . S
C237 O250 1.251 . S
O238 C237 1.261 . S
H239 C233 0.930 . S
H240 C235 0.930 . S
N241 Cu230 1.985 . S
N241 C243 1.335 . S
N241 C244 1.390 . S
N242 C243 1.345 . S
N242 C245 1.336 . S
C243 N241 1.335 . S
C243 N242 1.345 . S
C243 H248 0.930 . S
C244 N241 1.390 . S
C244 C245 1.346 . S
C244 H249 0.930 . S
C245 N242 1.336 . S
C245 C244 1.346 . S
C245 H252 0.929 . S
C246 O236 1.282 . S
C246 O247 1.216 . S
O247 C246 1.216 . S
H248 C243 0.930 . S
H249 C244 0.930 . S
O250 Cu230 1.959 . S
O250 C237 1.251 . S
H251 C234 0.930 . S
H252 C245 0.929 . S
Cu253 N254 1.999 . S
Cu253 O259 1.974 . S
Cu253 N264 1.985 . S
Cu253 O273 1.959 . S
N254 Cu253 1.999 . S
N254 C256 1.263 . S
N254 C258 1.389 1_455 S
N255 C256 1.358 . S
N255 C257 1.418 . S
C256 N254 1.263 . S
C256 N255 1.358 . S
C256 H262 0.930 . S
C257 N255 1.418 . S
C257 C258 1.350 1_455 S
C257 H274 0.917 1_455 S
C258 N254 1.389 1_655 S
C258 C257 1.350 1_655 S
C258 H263 0.930 . S
O259 Cu253 1.974 . S
O259 C269 1.282 . S
C260 O261 1.261 . S
C260 O273 1.251 . S
O261 C260 1.261 . S
H262 C256 0.930 . S
H263 C258 0.930 . S
N264 Cu253 1.985 . S
N264 C266 1.335 . S
N264 C267 1.390 . S
N265 C266 1.345 . S
N265 C268 1.336 . S
C266 N264 1.335 . S
C266 N265 1.345 . S
C266 H271 0.930 . S
C267 N264 1.390 . S
C267 C268 1.346 . S
C267 H272 0.930 . S
C268 N265 1.336 . S
C268 C267 1.346 . S
C268 H275 0.929 . S
C269 O259 1.282 . S
C269 O270 1.216 . S
O270 C269 1.216 . S
H271 C266 0.930 . S
H272 C267 0.930 . S
O273 Cu253 1.959 . S
O273 C260 1.251 . S
H274 C257 0.917 1_655 S
H275 C268 0.929 . S
Cu276 N277 1.999 . S
Cu276 O282 1.974 . S
Cu276 N287 1.985 . S
Cu276 O296 1.959 . S
N277 Cu276 1.999 . S
N277 C279 1.263 . S
N277 C281 1.389 . S
N278 C279 1.358 . S
N278 C280 1.400 . S
C279 N277 1.263 . S
C279 N278 1.358 . S
C279 H285 0.930 . S
C280 N278 1.400 . S
C280 C281 1.351 . S
C280 H297 0.930 . S
C281 N277 1.389 . S
C281 C280 1.351 . S
C281 H286 0.930 . S
O282 Cu276 1.974 . S
O282 C292 1.282 . S
C283 O284 1.261 . S
C283 O296 1.251 . S
O284 C283 1.261 . S
H285 C279 0.930 . S
H286 C281 0.930 . S
N287 Cu276 1.985 . S
N287 C289 1.335 . S
N287 C290 1.390 . S
N288 C289 1.345 . S
N288 C291 1.336 . S
C289 N287 1.335 . S
C289 N288 1.345 . S
C289 H294 0.930 . S
C290 N287 1.390 . S
C290 C291 1.346 . S
C290 H295 0.930 . S
C291 N288 1.336 . S
C291 C290 1.346 . S
C291 H298 0.929 . S
C292 O282 1.282 . S
C292 O293 1.216 . S
O293 C292 1.216 . S
H294 C289 0.930 . S
H295 C290 0.930 . S
O296 Cu276 1.959 . S
O296 C283 1.251 . S
H297 C280 0.930 . S
H298 C291 0.929 . S
Cu299 N300 1.999 . S
Cu299 O305 1.974 . S
Cu299 N310 1.985 . S
Cu299 O319 1.959 . S
N300 Cu299 1.999 . S
N300 C302 1.263 . S
N300 C304 1.389 1_455 S
N301 C302 1.358 . S
N301 C303 1.418 . S
C302 N300 1.263 . S
C302 N301 1.358 . S
C302 H308 0.930 . S
C303 N301 1.418 . S
C303 C304 1.350 1_455 S
C303 H320 0.917 1_455 S
C304 N300 1.389 1_655 S
C304 C303 1.350 1_655 S
C304 H309 0.930 . S
O305 Cu299 1.974 . S
O305 C315 1.282 . S
C306 O307 1.261 . S
C306 O319 1.251 . S
O307 C306 1.261 . S
H308 C302 0.930 . S
H309 C304 0.930 . S
N310 Cu299 1.985 . S
N310 C312 1.335 . S
N310 C313 1.390 . S
N311 C312 1.345 . S
N311 C314 1.336 . S
C312 N310 1.335 . S
C312 N311 1.345 . S
C312 H317 0.930 . S
C313 N310 1.390 . S
C313 C314 1.346 . S
C313 H318 0.930 . S
C314 N311 1.336 . S
C314 C313 1.346 . S
C314 H321 0.929 . S
C315 O305 1.282 . S
C315 O316 1.216 . S
O316 C315 1.216 . S
H317 C312 0.930 . S
H318 C313 0.930 . S
O319 Cu299 1.959 . S
O319 C306 1.251 . S
H320 C303 0.917 1_655 S
H321 C314 0.929 . S
Cu322 N323 1.999 . S
Cu322 O328 1.974 . S
Cu322 N333 1.985 . S
Cu322 O342 1.959 . S
N323 Cu322 1.999 . S
N323 C325 1.263 . S
N323 C327 1.389 . S
N324 C325 1.358 . S
N324 C326 1.400 . S
C325 N323 1.263 . S
C325 N324 1.358 . S
C325 H331 0.930 . S
C326 N324 1.400 . S
C326 C327 1.351 . S
C326 H343 0.930 . S
C327 N323 1.389 . S
C327 C326 1.351 . S
C327 H332 0.930 . S
O328 Cu322 1.974 . S
O328 C338 1.282 . S
C329 O330 1.261 . S
C329 O342 1.251 . S
O330 C329 1.261 . S
H331 C325 0.930 . S
H332 C327 0.930 . S
N333 Cu322 1.985 . S
N333 C335 1.335 . S
N333 C336 1.390 . S
N334 C335 1.345 . S
N334 C337 1.336 . S
C335 N333 1.335 . S
C335 N334 1.345 . S
C335 H340 0.930 . S
C336 N333 1.390 . S
C336 C337 1.346 . S
C336 H341 0.930 . S
C337 N334 1.336 . S
C337 C336 1.346 . S
C337 H344 0.929 . S
C338 O328 1.282 . S
C338 O339 1.216 . S
O339 C338 1.216 . S
H340 C335 0.930 . S
H341 C336 0.930 . S
O342 Cu322 1.959 . S
O342 C329 1.251 . S
H343 C326 0.930 . S
H344 C337 0.929 . S
Cu345 N346 1.999 . S
Cu345 O351 1.974 . S
Cu345 N356 1.985 . S
Cu345 O365 1.959 . S
N346 Cu345 1.999 . S
N346 C348 1.263 . S
N346 C350 1.389 . S
N347 C348 1.358 . S
N347 C349 1.400 . S
C348 N346 1.263 . S
C348 N347 1.358 . S
C348 H354 0.930 . S
C349 N347 1.400 . S
C349 C350 1.351 . S
C349 H366 0.930 . S
C350 N346 1.389 . S
C350 C349 1.351 . S
C350 H355 0.930 . S
O351 Cu345 1.974 . S
O351 C361 1.282 . S
C352 O353 1.261 . S
C352 O365 1.251 . S
O353 C352 1.261 . S
H354 C348 0.930 . S
H355 C350 0.930 . S
N356 Cu345 1.985 . S
N356 C358 1.335 . S
N356 C359 1.390 . S
N357 C358 1.345 . S
N357 C360 1.336 . S
C358 N356 1.335 . S
C358 N357 1.345 . S
C358 H363 0.930 . S
C359 N356 1.390 . S
C359 C360 1.346 . S
C359 H364 0.930 . S
C360 N357 1.336 . S
C360 C359 1.346 . S
C360 H367 0.929 . S
C361 O351 1.282 . S
C361 O362 1.216 . S
O362 C361 1.216 . S
H363 C358 0.930 . S
H364 C359 0.930 . S
O365 Cu345 1.959 . S
O365 C352 1.251 . S
H366 C349 0.930 . S
H367 C360 0.929 . S
C368 C369 1.391 . S
C368 C370 1.394 . S
C368 H384 0.931 . S
C369 C368 1.391 . S
C369 C373 1.376 . S
C370 C368 1.394 . S
C370 C371 1.369 . S
C370 C374 1.531 1_655 S
C371 C370 1.369 . S
C371 C372 1.410 1_565 S
C371 C379 1.503 1_665 S
C372 C371 1.410 1_545 S
C372 C373 1.392 1_545 S
C372 C375 1.511 . S
C373 C369 1.376 . S
C373 C372 1.392 1_565 S
C373 H385 0.929 1_565 S
C374 C370 1.531 1_455 S
C374 H386 0.960 . S
C374 H387 0.962 . S
C374 H388 0.960 . S
C375 C372 1.511 . S
C375 H389 0.961 . S
C375 H390 0.961 . S
C375 H391 0.961 . S
C376 C377 1.370 . S
C376 C378 1.363 . S
C376 H392 0.931 . S
C377 C376 1.370 . S
C377 C381 1.408 . S
C378 C376 1.363 . S
C378 C379 1.370 . S
C378 C382 1.524 . S
C379 C371 1.503 1_445 S
C379 C378 1.370 . S
C379 C380 1.403 . S
C380 C379 1.403 . S
C380 C381 1.404 . S
C380 C383 1.539 1_545 S
C381 C377 1.408 . S
C381 C380 1.404 . S
C381 H393 0.930 . S
C382 C378 1.524 . S
C382 H394 0.956 1_455 S
C382 H395 0.961 1_455 S
C382 H396 0.961 . S
C383 C380 1.539 1_565 S
C383 H397 0.958 . S
C383 H398 0.961 . S
C383 H399 0.960 . S
H384 C368 0.931 . S
H385 C373 0.929 1_545 S
H386 C374 0.960 . S
H387 C374 0.962 . S
H388 C374 0.960 . S
H389 C375 0.961 . S
H390 C375 0.961 . S
H391 C375 0.961 . S
H392 C376 0.931 . S
H393 C381 0.930 . S
H394 C382 0.956 1_655 S
H395 C382 0.961 1_655 S
H396 C382 0.961 . S
H397 C383 0.958 . S
H398 C383 0.961 . S
H399 C383 0.960 . S
C400 C401 1.391 . S
C400 C402 1.394 . S
C400 H416 0.931 . S
C401 C400 1.391 . S
C401 C405 1.376 . S
C402 C400 1.394 . S
C402 C403 1.369 1_655 S
C402 C406 1.531 . S
C403 C402 1.369 1_455 S
C403 C404 1.410 . S
C403 C411 1.503 . S
C404 C403 1.410 . S
C404 C405 1.392 1_455 S
C404 C407 1.511 . S
C405 C401 1.376 . S
C405 C404 1.392 1_655 S
C405 H417 0.929 . S
C406 C402 1.531 . S
C406 H418 0.960 . S
C406 H419 0.962 . S
C406 H420 0.960 . S
C407 C404 1.511 . S
C407 H421 0.961 . S
C407 H422 0.961 . S
C407 H423 0.961 . S
C408 C409 1.370 1_655 S
C408 C410 1.363 . S
C408 H424 0.931 . S
C409 C408 1.370 1_455 S
C409 C413 1.408 . S
C410 C408 1.363 . S
C410 C411 1.370 1_655 S
C410 C414 1.524 . S
C411 C403 1.503 . S
C411 C410 1.370 1_455 S
C411 C412 1.403 . S
C412 C411 1.403 . S
C412 C413 1.404 . S
C412 C415 1.539 . S
C413 C409 1.408 . S
C413 C412 1.404 . S
C413 H425 0.930 . S
C414 C410 1.524 . S
C414 H426 0.956 . S
C414 H427 0.961 . S
C414 H428 0.961 . S
C415 C412 1.539 . S
C415 H429 0.958 . S
C415 H430 0.961 . S
C415 H431 0.960 . S
H416 C400 0.931 . S
H417 C405 0.929 . S
H418 C406 0.960 . S
H419 C406 0.962 . S
H420 C406 0.960 . S
H421 C407 0.961 . S
H422 C407 0.961 . S
H423 C407 0.961 . S
H424 C408 0.931 . S
H425 C413 0.930 . S
H426 C414 0.956 . S
H427 C414 0.961 . S
H428 C414 0.961 . S
H429 C415 0.958 . S
H430 C415 0.961 . S
H431 C415 0.960 . S
C432 C433 1.391 . S
C432 C434 1.394 . S
C432 H448 0.931 . S
C433 C432 1.391 . S
C433 C437 1.376 . S
C434 C432 1.394 . S
C434 C435 1.369 . S
C434 C438 1.531 . S
C435 C434 1.369 . S
C435 C436 1.410 . S
C435 C443 1.503 . S
C436 C435 1.410 . S
C436 C437 1.392 . S
C436 C439 1.511 . S
C437 C433 1.376 . S
C437 C436 1.392 . S
C437 H449 0.929 . S
C438 C434 1.531 . S
C438 H450 0.960 . S
C438 H451 0.962 . S
C438 H452 0.960 . S
C439 C436 1.511 . S
C439 H453 0.961 . S
C439 H454 0.961 . S
C439 H455 0.961 . S
C440 C441 1.370 . S
C440 C442 1.363 . S
C440 H456 0.931 . S
C441 C440 1.370 . S
C441 C445 1.408 . S
C442 C440 1.363 . S
C442 C443 1.370 . S
C442 C446 1.524 . S
C443 C435 1.503 . S
C443 C442 1.370 . S
C443 C444 1.403 . S
C444 C443 1.403 . S
C444 C445 1.404 . S
C444 C447 1.539 . S
C445 C441 1.408 . S
C445 C444 1.404 . S
C445 H457 0.930 . S
C446 C442 1.524 . S
C446 H458 0.956 . S
C446 H459 0.961 . S
C446 H460 0.961 . S
C447 C444 1.539 . S
C447 H461 0.958 . S
C447 H462 0.961 . S
C447 H463 0.960 . S
H448 C432 0.931 . S
H449 C437 0.929 . S
H450 C438 0.960 . S
H451 C438 0.962 . S
H452 C438 0.960 . S
H453 C439 0.961 . S
H454 C439 0.961 . S
H455 C439 0.961 . S
H456 C440 0.931 . S
H457 C445 0.930 . S
H458 C446 0.956 . S
H459 C446 0.961 . S
H460 C446 0.961 . S
H461 C447 0.958 . S
H462 C447 0.961 . S
H463 C447 0.960 . S
C464 C465 1.391 . S
C464 C466 1.394 . S
C464 H480 0.931 . S
C465 C464 1.391 . S
C465 C469 1.376 . S
C466 C464 1.394 . S
C466 C467 1.369 . S
C466 C470 1.531 . S
C467 C466 1.369 . S
C467 C468 1.410 . S
C467 C475 1.503 1_545 S
C468 C467 1.410 . S
C468 C469 1.392 . S
C468 C471 1.511 . S
C469 C465 1.376 . S
C469 C468 1.392 . S
C469 H481 0.929 . S
C470 C466 1.531 . S
C470 H482 0.957 . S
C470 H483 0.962 . S
C470 H484 0.960 . S
C471 C468 1.511 . S
C471 H485 0.961 . S
C471 H486 0.961 1_545 S
C471 H487 0.961 1_545 S
C472 C473 1.370 . S
C472 C474 1.363 . S
C472 H488 0.931 . S
C473 C472 1.370 . S
C473 C477 1.408 . S
C474 C472 1.363 . S
C474 C475 1.370 . S
C474 C478 1.524 1_565 S
C475 C467 1.503 1_565 S
C475 C474 1.370 . S
C475 C476 1.403 . S
C476 C475 1.403 . S
C476 C477 1.404 . S
C476 C479 1.539 . S
C477 C473 1.408 . S
C477 C476 1.404 . S
C477 H489 0.930 . S
C478 C474 1.524 1_545 S
C478 H490 0.956 . S
C478 H491 0.961 . S
C478 H492 0.961 1_545 S
C479 C476 1.539 . S
C479 H493 0.958 . S
C479 H494 0.961 . S
C479 H495 0.960 . S
H480 C464 0.931 . S
H481 C469 0.929 . S
H482 C470 0.957 . S
H483 C470 0.962 . S
H484 C470 0.960 . S
H485 C471 0.961 . S
H486 C471 0.961 1_565 S
H487 C471 0.961 1_565 S
H488 C472 0.931 . S
H489 C477 0.930 . S
H490 C478 0.956 . S
H491 C478 0.961 . S
H492 C478 0.961 1_565 S
H493 C479 0.958 . S
H494 C479 0.961 . S
H495 C479 0.960 . S
C496 C497 1.391 . S
C496 C498 1.394 . S
C496 H512 0.931 . S
C497 C496 1.391 . S
C497 C501 1.376 . S
C498 C496 1.394 . S
C498 C499 1.369 . S
C498 C502 1.531 1_455 S
C499 C498 1.369 . S
C499 C500 1.410 . S
C499 C507 1.503 1_455 S
C500 C499 1.410 . S
C500 C501 1.392 . S
C500 C503 1.511 . S
C501 C497 1.376 . S
C501 C500 1.392 . S
C501 H513 0.929 . S
C502 C498 1.531 1_655 S
C502 H514 0.960 . S
C502 H515 0.962 . S
C502 H516 0.960 1_655 S
C503 C500 1.511 . S
C503 H517 0.961 . S
C503 H518 0.961 . S
C503 H519 0.961 . S
C504 C505 1.370 . S
C504 C506 1.363 . S
C504 H520 0.931 . S
C505 C504 1.370 . S
C505 C509 1.408 . S
C506 C504 1.363 . S
C506 C507 1.370 . S
C506 C510 1.524 . S
C507 C499 1.503 1_655 S
C507 C506 1.370 . S
C507 C508 1.403 . S
C508 C507 1.403 . S
C508 C509 1.404 . S
C508 C511 1.539 . S
C509 C505 1.408 . S
C509 C508 1.404 . S
C509 H521 0.930 . S
C510 C506 1.524 . S
C510 H522 0.956 . S
C510 H523 0.961 . S
C510 H524 0.961 . S
C511 C508 1.539 . S
C511 H525 0.958 . S
C511 H526 0.961 . S
C511 H527 0.960 1_655 S
H512 C496 0.931 . S
H513 C501 0.929 . S
H514 C502 0.960 . S
H515 C502 0.962 . S
H516 C502 0.960 1_455 S
H517 C503 0.961 . S
H518 C503 0.961 . S
H519 C503 0.961 . S
H520 C504 0.931 . S
H521 C509 0.930 . S
H522 C510 0.956 . S
H523 C510 0.961 . S
H524 C510 0.961 . S
H525 C511 0.958 . S
H526 C511 0.961 . S
H527 C511 0.960 1_455 S
C528 C529 1.391 . S
C528 C530 1.394 . S
C528 H544 0.931 . S
C529 C528 1.391 . S
C529 C533 1.376 . S
C530 C528 1.394 . S
C530 C531 1.369 . S
C530 C534 1.531 . S
C531 C530 1.369 . S
C531 C532 1.410 . S
C531 C539 1.503 . S
C532 C531 1.410 . S
C532 C533 1.392 . S
C532 C535 1.511 . S
C533 C529 1.376 . S
C533 C532 1.392 . S
C533 H545 0.929 . S
C534 C530 1.531 . S
C534 H546 0.960 . S
C534 H547 0.962 . S
C534 H548 0.960 . S
C535 C532 1.511 . S
C535 H549 0.961 . S
C535 H550 0.961 . S
C535 H551 0.961 . S
C536 C537 1.370 . S
C536 C538 1.363 . S
C536 H552 0.931 . S
C537 C536 1.370 . S
C537 C541 1.408 . S
C538 C536 1.363 . S
C538 C539 1.370 . S
C538 C542 1.524 . S
C539 C531 1.503 . S
C539 C538 1.370 . S
C539 C540 1.403 . S
C540 C539 1.403 . S
C540 C541 1.404 . S
C540 C543 1.539 . S
C541 C537 1.408 . S
C541 C540 1.404 . S
C541 H553 0.930 . S
C542 C538 1.524 . S
C542 H554 0.956 . S
C542 H555 0.961 . S
C542 H556 0.961 . S
C543 C540 1.539 . S
C543 H557 0.958 . S
C543 H558 0.961 . S
C543 H559 0.960 . S
H544 C528 0.931 . S
H545 C533 0.929 . S
H546 C534 0.960 . S
H547 C534 0.962 . S
H548 C534 0.960 . S
H549 C535 0.961 . S
H550 C535 0.961 . S
H551 C535 0.961 . S
H552 C536 0.931 . S
H553 C541 0.930 . S
H554 C542 0.956 . S
H555 C542 0.961 . S
H556 C542 0.961 . S
H557 C543 0.958 . S
H558 C543 0.961 . S
H559 C543 0.960 . S
C560 C561 1.391 . S
C560 C562 1.394 1_545 S
C560 H576 0.931 1_545 S
C561 C560 1.391 . S
C561 C565 1.376 . S
C562 C560 1.394 1_565 S
C562 C563 1.369 1_565 S
C562 C566 1.531 . S
C563 C562 1.369 1_545 S
C563 C564 1.410 . S
C563 C571 1.503 1_545 S
C564 C563 1.410 . S
C564 C565 1.392 . S
C564 C567 1.511 . S
C565 C561 1.376 . S
C565 C564 1.392 . S
C565 H577 0.929 . S
C566 C562 1.531 . S
C566 H578 0.960 . S
C566 H579 0.962 . S
C566 H580 0.960 . S
C567 C564 1.511 . S
C567 H581 0.961 . S
C567 H582 0.961 . S
C567 H583 0.961 . S
C568 C569 1.370 . S
C568 C570 1.363 . S
C568 H584 0.931 . S
C569 C568 1.370 . S
C569 C573 1.408 . S
C570 C568 1.363 . S
C570 C571 1.370 . S
C570 C574 1.524 . S
C571 C563 1.503 1_565 S
C571 C570 1.370 . S
C571 C572 1.403 . S
C572 C571 1.403 . S
C572 C573 1.404 . S
C572 C575 1.539 1_565 S
C573 C569 1.408 . S
C573 C572 1.404 . S
C573 H585 0.930 . S
C574 C570 1.524 . S
C574 H586 0.956 . S
C574 H587 0.988 . S
C574 H588 0.961 . S
C575 C572 1.539 1_545 S
C575 H589 0.939 1_545 S
C575 H590 0.961 . S
C575 H591 0.960 . S
H576 C560 0.931 1_565 S
H577 C565 0.929 . S
H578 C566 0.960 . S
H579 C566 0.962 . S
H580 C566 0.960 . S
H581 C567 0.961 . S
H582 C567 0.961 . S
H583 C567 0.961 . S
H584 C568 0.931 . S
H585 C573 0.930 . S
H586 C574 0.956 . S
H587 C574 0.988 . S
H588 C574 0.961 . S
H589 C575 0.939 1_565 S
H590 C575 0.961 . S
H591 C575 0.960 . S
C592 C593 1.391 . S
C592 C594 1.394 . S
C592 H608 0.931 . S
C593 C592 1.391 . S
C593 C597 1.376 . S
C594 C592 1.394 . S
C594 C595 1.370 1_455 S
C594 C598 1.531 . S
C595 C594 1.370 1_655 S
C595 C596 1.409 . S
C595 C603 1.503 1_545 S
C596 C595 1.409 . S
C596 C597 1.392 1_655 S
C596 C599 1.511 . S
C597 C593 1.376 . S
C597 C596 1.392 1_455 S
C597 H609 0.929 1_455 S
C598 C594 1.531 . S
C598 H610 0.960 1_545 S
C598 H611 0.962 1_545 S
C598 H612 0.960 . S
C599 C596 1.511 . S
C599 H613 0.961 . S
C599 H614 0.961 . S
C599 H615 0.961 . S
C600 C601 1.374 . S
C600 C602 1.362 1_655 S
C600 H616 0.928 1_655 S
C601 C600 1.374 . S
C601 C605 1.408 . S
C602 C600 1.362 1_455 S
C602 C603 1.370 1_455 S
C602 C606 1.524 . S
C603 C595 1.503 1_565 S
C603 C602 1.370 1_655 S
C603 C604 1.403 . S
C604 C603 1.403 . S
C604 C605 1.404 . S
C604 C607 1.539 . S
C605 C601 1.408 . S
C605 C604 1.404 . S
C605 H617 0.930 . S
C606 C602 1.524 . S
C606 H618 0.956 . S
C606 H619 0.961 . S
C606 H620 0.961 . S
C607 C604 1.539 . S
C607 H621 0.958 . S
C607 H622 0.961 . S
C607 H623 0.960 1_565 S
H608 C592 0.931 . S
H609 C597 0.929 1_655 S
H610 C598 0.960 1_565 S
H611 C598 0.962 1_565 S
H612 C598 0.960 . S
H613 C599 0.961 . S
H614 C599 0.961 . S
H615 C599 0.961 . S
H616 C600 0.928 1_455 S
H617 C605 0.930 . S
H618 C606 0.956 . S
H619 C606 0.961 . S
H620 C606 0.961 . S
H621 C607 0.958 . S
H622 C607 0.961 . S
H623 C607 0.960 1_545 S
C624 C625 1.391 . S
C624 C626 1.394 . S
C624 H640 0.931 . S
C625 C624 1.391 . S
C625 C629 1.376 . S
C626 C624 1.394 . S
C626 C627 1.369 . S
C626 C630 1.531 . S
C627 C626 1.369 . S
C627 C628 1.410 . S
C627 C635 1.503 1_565 S
C628 C627 1.410 . S
C628 C629 1.392 . S
C628 C631 1.511 1_565 S
C629 C625 1.376 . S
C629 C628 1.392 . S
C629 H641 0.929 . S
C630 C626 1.531 . S
C630 H642 0.960 . S
C630 H643 0.962 . S
C630 H644 0.960 . S
C631 C628 1.511 1_545 S
C631 H645 0.961 . S
C631 H646 0.961 . S
C631 H647 0.961 1_545 S
C632 C633 1.370 . S
C632 C634 1.363 . S
C632 H648 0.931 . S
C633 C632 1.370 . S
C633 C637 1.408 . S
C634 C632 1.363 . S
C634 C635 1.370 . S
C634 C638 1.524 . S
C635 C627 1.503 1_545 S
C635 C634 1.370 . S
C635 C636 1.403 1_545 S
C636 C635 1.403 1_565 S
C636 C637 1.404 1_565 S
C636 C639 1.539 . S
C637 C633 1.408 . S
C637 C636 1.404 1_545 S
C637 H649 0.930 1_545 S
C638 C634 1.524 . S
C638 H650 0.956 . S
C638 H651 0.961 . S
C638 H652 0.961 . S
C639 C636 1.539 . S
C639 H653 0.958 . S
C639 H654 0.961 . S
C639 H655 0.960 . S
H640 C624 0.931 . S
H641 C629 0.929 . S
H642 C630 0.960 . S
H643 C630 0.962 . S
H644 C630 0.960 . S
H645 C631 0.961 . S
H646 C631 0.961 . S
H647 C631 0.961 1_565 S
H648 C632 0.931 . S
H649 C637 0.930 1_565 S
H650 C638 0.956 . S
H651 C638 0.961 . S
H652 C638 0.961 . S
H653 C639 0.958 . S
H654 C639 0.961 . S
H655 C639 0.960 . S
C656 C657 1.391 . S
C656 C658 1.394 1_655 S
C656 H672 0.938 . S
C657 C656 1.391 . S
C657 C661 1.376 . S
C658 C656 1.394 1_455 S
C658 C659 1.369 1_455 S
C658 C662 1.531 . S
C659 C658 1.369 1_655 S
C659 C660 1.410 . S
C659 C667 1.503 1_665 S
C660 C659 1.410 . S
C660 C661 1.392 . S
C660 C663 1.511 . S
C661 C657 1.376 . S
C661 C660 1.392 . S
C661 H673 0.929 . S
C662 C658 1.531 . S
C662 H674 0.960 . S
C662 H675 0.962 . S
C662 H676 0.960 . S
C663 C660 1.511 . S
C663 H677 0.961 . S
C663 H678 0.961 1_565 S
C663 H679 0.961 1_565 S
C664 C665 1.370 . S
C664 C666 1.363 . S
C664 H680 0.931 . S
C665 C664 1.370 . S
C665 C669 1.408 1_455 S
C666 C664 1.363 . S
C666 C667 1.370 . S
C666 C670 1.524 1_545 S
C667 C659 1.503 1_445 S
C667 C666 1.370 . S
C667 C668 1.403 1_455 S
C668 C667 1.403 1_655 S
C668 C669 1.404 . S
C668 C671 1.539 . S
C669 C665 1.408 1_655 S
C669 C668 1.404 . S
C669 H681 0.930 . S
C670 C666 1.524 1_565 S
C670 H682 0.956 . S
C670 H683 0.961 . S
C670 H684 0.961 1_565 S
C671 C668 1.539 . S
C671 H685 0.958 . S
C671 H686 0.961 . S
C671 H687 0.960 . S
H672 C656 0.938 . S
H673 C661 0.929 . S
H674 C662 0.960 . S
H675 C662 0.962 . S
H676 C662 0.960 . S
H677 C663 0.961 . S
H678 C663 0.961 1_545 S
H679 C663 0.961 1_545 S
H680 C664 0.931 . S
H681 C669 0.930 . S
H682 C670 0.956 . S
H683 C670 0.961 . S
H684 C670 0.961 1_545 S
H685 C671 0.958 . S
H686 C671 0.961 . S
H687 C671 0.960 . S
C688 C689 1.391 . S
C688 C690 1.394 . S
C688 H704 0.931 . S
C689 C688 1.391 . S
C689 C693 1.376 . S
C690 C688 1.394 . S
C690 C691 1.369 . S
C690 C694 1.531 . S
C691 C690 1.369 . S
C691 C692 1.410 . S
C691 C699 1.503 1_455 S
C692 C691 1.410 . S
C692 C693 1.392 . S
C692 C695 1.511 . S
C693 C689 1.376 . S
C693 C692 1.392 . S
C693 H705 0.929 . S
C694 C690 1.531 . S
C694 H706 0.960 . S
C694 H707 0.962 . S
C694 H708 0.960 . S
C695 C692 1.511 . S
C695 H709 0.961 . S
C695 H710 0.961 1_455 S
C695 H711 0.961 . S
C696 C697 1.370 . S
C696 C698 1.363 . S
C696 H712 0.931 . S
C697 C696 1.370 . S
C697 C701 1.408 . S
C698 C696 1.363 . S
C698 C699 1.370 . S
C698 C702 1.524 . S
C699 C691 1.503 1_655 S
C699 C698 1.370 . S
C699 C700 1.403 . S
C700 C699 1.403 . S
C700 C701 1.404 . S
C700 C703 1.539 1_655 S
C701 C697 1.408 . S
C701 C700 1.404 . S
C701 H713 0.930 . S
C702 C698 1.524 . S
C702 H714 0.956 . S
C702 H715 0.961 . S
C702 H716 0.961 . S
C703 C700 1.539 1_455 S
C703 H717 0.958 . S
C703 H718 0.961 . S
C703 H719 0.960 . S
H704 C688 0.931 . S
H705 C693 0.929 . S
H706 C694 0.960 . S
H707 C694 0.962 . S
H708 C694 0.960 . S
H709 C695 0.961 . S
H710 C695 0.961 1_655 S
H711 C695 0.961 . S
H712 C696 0.931 . S
H713 C701 0.930 . S
H714 C702 0.956 . S
H715 C702 0.961 . S
H716 C702 0.961 . S
H717 C703 0.958 . S
H718 C703 0.961 . S
H719 C703 0.960 . S
C720 C721 1.391 . S
C720 C722 1.394 . S
C720 H736 0.931 . S
C721 C720 1.391 . S
C721 C725 1.376 . S
C722 C720 1.394 . S
C722 C723 1.369 . S
C722 C726 1.531 . S
C723 C722 1.369 . S
C723 C724 1.410 . S
C723 C731 1.503 . S
C724 C723 1.410 . S
C724 C725 1.392 . S
C724 C727 1.511 . S
C725 C721 1.376 . S
C725 C724 1.392 . S
C725 H737 0.929 . S
C726 C722 1.531 . S
C726 H738 0.960 . S
C726 H739 0.962 . S
C726 H740 0.960 . S
C727 C724 1.511 . S
C727 H741 0.961 . S
C727 H742 0.961 . S
C727 H743 0.961 . S
C728 C729 1.370 . S
C728 C730 1.363 . S
C728 H744 0.931 . S
C729 C728 1.370 . S
C729 C733 1.408 . S
C730 C728 1.363 . S
C730 C731 1.370 . S
C730 C734 1.524 . S
C731 C723 1.503 . S
C731 C730 1.370 . S
C731 C732 1.403 . S
C732 C731 1.403 . S
C732 C733 1.404 . S
C732 C735 1.539 . S
C733 C729 1.408 . S
C733 C732 1.404 . S
C733 H745 0.930 . S
C734 C730 1.524 . S
C734 H746 0.956 . S
C734 H747 0.961 . S
C734 H748 0.961 . S
C735 C732 1.539 . S
C735 H749 0.958 . S
C735 H750 0.961 . S
C735 H751 0.960 . S
H736 C720 0.931 . S
H737 C725 0.929 . S
H738 C726 0.960 . S
H739 C726 0.962 . S
H740 C726 0.960 . S
H741 C727 0.961 . S
H742 C727 0.961 . S
H743 C727 0.961 . S
H744 C728 0.931 . S
H745 C733 0.930 . S
H746 C734 0.956 . S
H747 C734 0.961 . S
H748 C734 0.961 . S
H749 C735 0.958 . S
H750 C735 0.961 . S
H751 C735 0.960 . S
C752 C753 1.391 . S
C752 C754 1.394 . S
C752 H768 0.931 . S
C753 C752 1.391 . S
C753 C757 1.376 . S
C754 C752 1.394 . S
C754 C755 1.369 . S
C754 C758 1.531 . S
C755 C754 1.369 . S
C755 C756 1.410 . S
C755 C763 1.503 . S
C756 C755 1.410 . S
C756 C757 1.392 . S
C756 C759 1.511 . S
C757 C753 1.376 . S
C757 C756 1.392 . S
C757 H769 0.929 . S
C758 C754 1.531 . S
C758 H770 0.960 . S
C758 H771 0.962 . S
C758 H772 0.960 . S
C759 C756 1.511 . S
C759 H773 0.961 . S
C759 H774 0.961 . S
C759 H775 0.961 . S
C760 C761 1.370 . S
C760 C762 1.363 . S
C760 H776 0.931 . S
C761 C760 1.370 . S
C761 C765 1.408 . S
C762 C760 1.363 . S
C762 C763 1.370 . S
C762 C766 1.524 . S
C763 C755 1.503 . S
C763 C762 1.370 . S
C763 C764 1.403 . S
C764 C763 1.403 . S
C764 C765 1.404 . S
C764 C767 1.539 . S
C765 C761 1.408 . S
C765 C764 1.404 . S
C765 H777 0.930 . S
C766 C762 1.524 . S
C766 H778 0.956 . S
C766 H779 0.961 . S
C766 H780 0.961 . S
C767 C764 1.539 . S
C767 H781 0.958 . S
C767 H782 0.961 . S
C767 H783 0.960 . S
H768 C752 0.931 . S
H769 C757 0.929 . S
H770 C758 0.960 . S
H771 C758 0.962 . S
H772 C758 0.960 . S
H773 C759 0.961 . S
H774 C759 0.961 . S
H775 C759 0.961 . S
H776 C760 0.931 . S
H777 C765 0.930 . S
H778 C766 0.956 . S
H779 C766 0.961 . S
H780 C766 0.961 . S
H781 C767 0.958 . S
H782 C767 0.961 . S
H783 C767 0.960 . S
C784 C785 1.391 . S
C784 C786 1.394 . S
C784 H800 0.931 . S
C785 C784 1.391 . S
C785 C789 1.376 . S
C786 C784 1.394 . S
C786 C787 1.369 . S
C786 C790 1.531 . S
C787 C786 1.369 . S
C787 C788 1.410 . S
C787 C795 1.503 1_565 S
C788 C787 1.410 . S
C788 C789 1.392 . S
C788 C791 1.511 1_565 S
C789 C785 1.376 . S
C789 C788 1.392 . S
C789 H801 0.929 . S
C790 C786 1.531 . S
C790 H802 0.960 . S
C790 H803 0.962 . S
C790 H804 0.960 . S
C791 C788 1.511 1_545 S
C791 H805 0.961 1_545 S
C791 H806 0.961 . S
C791 H807 0.961 . S
C792 C793 1.370 . S
C792 C794 1.363 . S
C792 H808 0.931 . S
C793 C792 1.370 . S
C793 C797 1.408 . S
C794 C792 1.363 . S
C794 C795 1.370 . S
C794 C798 1.524 . S
C795 C787 1.503 1_545 S
C795 C794 1.370 . S
C795 C796 1.403 . S
C796 C795 1.403 . S
C796 C797 1.404 . S
C796 C799 1.539 . S
C797 C793 1.408 . S
C797 C796 1.404 . S
C797 H809 0.930 . S
C798 C794 1.524 . S
C798 H810 0.956 1_545 S
C798 H811 0.961 1_545 S
C798 H812 0.961 . S
C799 C796 1.539 . S
C799 H813 0.958 . S
C799 H814 0.961 . S
C799 H815 0.960 . S
H800 C784 0.931 . S
H801 C789 0.929 . S
H802 C790 0.960 . S
H803 C790 0.962 . S
H804 C790 0.960 . S
H805 C791 0.961 1_565 S
H806 C791 0.961 . S
H807 C791 0.961 . S
H808 C792 0.931 . S
H809 C797 0.930 . S
H810 C798 0.956 1_565 S
H811 C798 0.961 1_565 S
H812 C798 0.961 . S
H813 C799 0.958 . S
H814 C799 0.961 . S
H815 C799 0.960 . S
C816 C817 1.391 . S
C816 C818 1.394 1_565 S
C816 H832 0.931 1_565 S
C817 C816 1.391 . S
C817 C821 1.376 . S
C818 C816 1.394 1_545 S
C818 C819 1.369 1_545 S
C818 C822 1.531 . S
C819 C818 1.369 1_565 S
C819 C820 1.410 . S
C819 C827 1.503 1_665 S
C820 C819 1.410 . S
C820 C821 1.392 . S
C820 C823 1.511 1_655 S
C821 C817 1.376 . S
C821 C820 1.392 . S
C821 H833 0.929 . S
C822 C818 1.531 . S
C822 H834 0.960 . S
C822 H835 0.962 . S
C822 H836 0.960 . S
C823 C820 1.511 1_455 S
C823 H837 0.961 . S
C823 H838 0.961 . S
C823 H839 0.961 . S
C824 C825 1.370 . S
C824 C826 1.363 . S
C824 H840 0.931 . S
C825 C824 1.370 . S
C825 C829 1.408 . S
C826 C824 1.363 . S
C826 C827 1.370 . S
C826 C830 1.524 . S
C827 C819 1.503 1_445 S
C827 C826 1.370 . S
C827 C828 1.403 . S
C828 C827 1.403 . S
C828 C829 1.404 . S
C828 C831 1.539 . S
C829 C825 1.408 . S
C829 C828 1.404 . S
C829 H841 0.930 . S
C830 C826 1.524 . S
C830 H842 0.956 1_455 S
C830 H843 0.961 1_545 S
C830 H844 0.961 . S
C831 C828 1.539 . S
C831 H845 0.958 . S
C831 H846 0.961 . S
C831 H847 0.960 1_545 S
H832 C816 0.931 1_545 S
H833 C821 0.929 . S
H834 C822 0.960 . S
H835 C822 0.962 . S
H836 C822 0.960 . S
H837 C823 0.961 . S
H838 C823 0.961 . S
H839 C823 0.961 . S
H840 C824 0.931 . S
H841 C829 0.930 . S
H842 C830 0.956 1_655 S
H843 C830 0.961 1_565 S
H844 C830 0.961 . S
H845 C831 0.958 . S
H846 C831 0.961 . S
H847 C831 0.960 1_565 S
C848 C849 1.391 . S
C848 C850 1.394 . S
C848 H864 0.931 . S
C849 C848 1.391 . S
C849 C853 1.376 . S
C850 C848 1.394 . S
C850 C851 1.369 1_455 S
C850 C854 1.531 1_455 S
C851 C850 1.369 1_655 S
C851 C852 1.410 1_655 S
C851 C859 1.503 . S
C852 C851 1.410 1_455 S
C852 C853 1.392 . S
C852 C855 1.511 . S
C853 C849 1.376 . S
C853 C852 1.392 . S
C853 H865 0.929 . S
C854 C850 1.531 1_655 S
C854 H866 0.960 . S
C854 H867 0.962 1_655 S
C854 H868 0.960 . S
C855 C852 1.511 . S
C855 H869 0.961 . S
C855 H870 0.961 . S
C855 H871 0.961 1_455 S
C856 C857 1.370 1_455 S
C856 C858 1.363 . S
C856 H872 0.931 . S
C857 C856 1.370 1_655 S
C857 C861 1.408 . S
C858 C856 1.363 . S
C858 C859 1.370 1_455 S
C858 C862 1.524 . S
C859 C851 1.503 . S
C859 C858 1.370 1_655 S
C859 C860 1.403 . S
C860 C859 1.403 . S
C860 C861 1.404 . S
C860 C863 1.539 . S
C861 C857 1.408 . S
C861 C860 1.404 . S
C861 H873 0.930 . S
C862 C858 1.524 . S
C862 H874 0.956 . S
C862 H875 0.961 . S
C862 H876 0.961 . S
C863 C860 1.539 . S
C863 H877 0.958 . S
C863 H878 0.961 . S
C863 H879 0.960 . S
H864 C848 0.931 . S
H865 C853 0.929 . S
H866 C854 0.960 . S
H867 C854 0.962 1_455 S
H868 C854 0.960 . S
H869 C855 0.961 . S
H870 C855 0.961 . S
H871 C855 0.961 1_655 S
H872 C856 0.931 . S
H873 C861 0.930 . S
H874 C862 0.956 . S
H875 C862 0.961 . S
H876 C862 0.961 . S
H877 C863 0.958 . S
H878 C863 0.961 . S
H879 C863 0.960 . S
C880 C881 1.391 . S
C880 C882 1.394 . S
C880 H896 0.931 . S
C881 C880 1.391 . S
C881 C885 1.376 . S
C882 C880 1.394 . S
C882 C883 1.369 . S
C882 C886 1.531 . S
C883 C882 1.369 . S
C883 C884 1.410 . S
C883 C891 1.503 . S
C884 C883 1.410 . S
C884 C885 1.392 . S
C884 C887 1.511 . S
C885 C881 1.376 . S
C885 C884 1.392 . S
C885 H897 0.929 . S
C886 C882 1.531 . S
C886 H898 0.960 . S
C886 H899 0.962 . S
C886 H900 0.960 . S
C887 C884 1.511 . S
C887 H901 0.961 . S
C887 H902 0.961 . S
C887 H903 0.961 . S
C888 C889 1.370 . S
C888 C890 1.363 . S
C888 H904 0.931 . S
C889 C888 1.370 . S
C889 C893 1.408 . S
C890 C888 1.363 . S
C890 C891 1.370 . S
C890 C894 1.524 . S
C891 C883 1.503 . S
C891 C890 1.370 . S
C891 C892 1.403 . S
C892 C891 1.403 . S
C892 C893 1.404 . S
C892 C895 1.539 1_545 S
C893 C889 1.408 . S
C893 C892 1.404 . S
C893 H905 0.930 1_545 S
C894 C890 1.524 . S
C894 H906 0.956 . S
C894 H907 0.961 . S
C894 H908 0.961 . S
C895 C892 1.539 1_565 S
C895 H909 0.958 . S
C895 H910 0.961 . S
C895 H911 0.960 . S
H896 C880 0.931 . S
H897 C885 0.929 . S
H898 C886 0.960 . S
H899 C886 0.962 . S
H900 C886 0.960 . S
H901 C887 0.961 . S
H902 C887 0.961 . S
H903 C887 0.961 . S
H904 C888 0.931 . S
H905 C893 0.930 1_565 S
H906 C894 0.956 . S
H907 C894 0.961 . S
H908 C894 0.961 . S
H909 C895 0.958 . S
H910 C895 0.961 . S
H911 C895 0.960 . S
C912 C913 1.391 . S
C912 C914 1.394 . S
C912 H928 0.931 . S
C913 C912 1.391 . S
C913 C917 1.376 . S
C914 C912 1.394 . S
C914 C915 1.369 . S
C914 C918 1.531 . S
C915 C914 1.369 . S
C915 C916 1.410 . S
C915 C923 1.503 . S
C916 C915 1.410 . S
C916 C917 1.392 . S
C916 C919 1.511 1_655 S
C917 C913 1.376 . S
C917 C916 1.392 . S
C917 H929 0.929 1_655 S
C918 C914 1.531 . S
C918 H930 0.960 . S
C918 H931 0.962 . S
C918 H932 0.960 . S
C919 C916 1.511 1_455 S
C919 H933 0.961 . S
C919 H934 0.961 . S
C919 H935 0.961 . S
C920 C921 1.370 . S
C920 C922 1.363 . S
C920 H936 0.931 . S
C921 C920 1.370 . S
C921 C925 1.408 . S
C922 C920 1.363 . S
C922 C923 1.370 . S
C922 C926 1.524 . S
C923 C915 1.503 . S
C923 C922 1.370 . S
C923 C924 1.403 . S
C924 C923 1.403 . S
C924 C925 1.404 . S
C924 C927 1.539 . S
C925 C921 1.408 . S
C925 C924 1.404 . S
C925 H937 0.930 . S
C926 C922 1.524 . S
C926 H938 0.956 . S
C926 H939 0.961 . S
C926 H940 0.961 . S
C927 C924 1.539 . S
C927 H941 0.958 . S
C927 H942 0.961 1_655 S
C927 H943 0.960 . S
H928 C912 0.931 . S
H929 C917 0.929 1_455 S
H930 C918 0.960 . S
H931 C918 0.962 . S
H932 C918 0.960 . S
H933 C919 0.961 . S
H934 C919 0.961 . S
H935 C919 0.961 . S
H936 C920 0.931 . S
H937 C925 0.930 . S
H938 C926 0.956 . S
H939 C926 0.961 . S
H940 C926 0.961 . S
H941 C927 0.958 . S
H942 C927 0.961 1_455 S
H943 C927 0.960 . S
C944 C945 1.391 . S
C944 C946 1.394 . S
C944 H960 0.931 . S
C945 C944 1.391 . S
C945 C949 1.376 . S
C946 C944 1.394 . S
C946 C947 1.369 . S
C946 C950 1.531 . S
C947 C946 1.369 . S
C947 C948 1.410 . S
C947 C955 1.503 . S
C948 C947 1.410 . S
C948 C949 1.392 . S
C948 C951 1.511 . S
C949 C945 1.376 . S
C949 C948 1.392 . S
C949 H961 0.929 . S
C950 C946 1.531 . S
C950 H962 0.960 . S
C950 H963 0.962 . S
C950 H964 0.960 . S
C951 C948 1.511 . S
C951 H965 0.961 . S
C951 H966 0.961 . S
C951 H967 0.961 . S
C952 C953 1.370 . S
C952 C954 1.363 . S
C952 H968 0.931 . S
C953 C952 1.370 . S
C953 C957 1.408 . S
C954 C952 1.363 . S
C954 C955 1.370 . S
C954 C958 1.524 . S
C955 C947 1.503 . S
C955 C954 1.370 . S
C955 C956 1.403 . S
C956 C955 1.403 . S
C956 C957 1.404 . S
C956 C959 1.539 . S
C957 C953 1.408 . S
C957 C956 1.404 . S
C957 H969 0.930 . S
C958 C954 1.524 . S
C958 H970 0.956 . S
C958 H971 0.961 . S
C958 H972 0.961 . S
C959 C956 1.539 . S
C959 H973 0.958 . S
C959 H974 0.961 . S
C959 H975 0.960 . S
H960 C944 0.931 . S
H961 C949 0.929 . S
H962 C950 0.960 . S
H963 C950 0.962 . S
H964 C950 0.960 . S
H965 C951 0.961 . S
H966 C951 0.961 . S
H967 C951 0.961 . S
H968 C952 0.931 . S
H969 C957 0.930 . S
H970 C958 0.956 . S
H971 C958 0.961 . S
H972 C958 0.961 . S
H973 C959 0.958 . S
H974 C959 0.961 . S
H975 C959 0.960 . S
C976 C977 1.391 . S
C976 C978 1.394 . S
C976 H992 0.931 . S
C977 C976 1.391 . S
C977 C981 1.376 . S
C978 C976 1.394 . S
C978 C979 1.369 . S
C978 C982 1.531 . S
C979 C978 1.369 . S
C979 C980 1.410 . S
C979 C987 1.503 . S
C980 C979 1.410 . S
C980 C981 1.392 . S
C980 C983 1.511 . S
C981 C977 1.376 . S
C981 C980 1.392 . S
C981 H993 0.929 . S
C982 C978 1.531 . S
C982 H994 0.960 . S
C982 H995 0.962 . S
C982 H996 0.960 . S
C983 C980 1.511 . S
C983 H997 0.961 . S
C983 H998 0.961 . S
C983 H999 0.961 . S
C984 C985 1.370 . S
C984 C986 1.363 . S
C984 H1000 0.931 . S
C985 C984 1.370 . S
C985 C989 1.408 . S
C986 C984 1.363 . S
C986 C987 1.370 . S
C986 C990 1.524 . S
C987 C979 1.503 . S
C987 C986 1.370 . S
C987 C988 1.403 . S
C988 C987 1.403 . S
C988 C989 1.404 . S
C988 C991 1.539 . S
C989 C985 1.408 . S
C989 C988 1.404 . S
C989 H1001 0.930 . S
C990 C986 1.524 . S
C990 H1002 0.956 . S
C990 H1003 0.961 . S
C990 H1004 0.961 . S
C991 C988 1.539 . S
C991 H1005 0.958 . S
C991 H1006 0.961 . S
C991 H1007 0.960 . S
H992 C976 0.931 . S
H993 C981 0.929 . S
H994 C982 0.960 . S
H995 C982 0.962 . S
H996 C982 0.960 . S
H997 C983 0.961 . S
H998 C983 0.961 . S
H999 C983 0.961 . S
H1000 C984 0.931 . S
H1001 C989 0.930 . S
H1002 C990 0.956 . S
H1003 C990 0.961 . S
H1004 C990 0.961 . S
H1005 C991 0.958 . S
H1006 C991 0.961 . S
H1007 C991 0.960 . S
C1008 C1009 1.391 . S
C1008 C1010 1.394 . S
C1008 H1024 0.931 . S
C1009 C1008 1.391 . S
C1009 C1013 1.376 . S
C1010 C1008 1.394 . S
C1010 C1011 1.369 . S
C1010 C1014 1.531 . S
C1011 C1010 1.369 . S
C1011 C1012 1.410 . S
C1011 C1019 1.503 . S
C1012 C1011 1.410 . S
C1012 C1013 1.392 . S
C1012 C1015 1.511 . S
C1013 C1009 1.376 . S
C1013 C1012 1.392 . S
C1013 H1025 0.929 . S
C1014 C1010 1.531 . S
C1014 H1026 0.960 . S
C1014 H1027 0.962 . S
C1014 H1028 0.960 . S
C1015 C1012 1.511 . S
C1015 H1029 0.961 . S
C1015 H1030 0.961 . S
C1015 H1031 0.961 . S
C1016 C1017 1.370 . S
C1016 C1018 1.363 . S
C1016 H1032 0.931 . S
C1017 C1016 1.370 . S
C1017 C1021 1.408 . S
C1018 C1016 1.363 . S
C1018 C1019 1.370 . S
C1018 C1022 1.524 . S
C1019 C1011 1.503 . S
C1019 C1018 1.370 . S
C1019 C1020 1.403 . S
C1020 C1019 1.403 . S
C1020 C1021 1.404 . S
C1020 C1023 1.539 . S
C1021 C1017 1.408 . S
C1021 C1020 1.404 . S
C1021 H1033 0.930 . S
C1022 C1018 1.524 . S
C1022 H1034 0.956 . S
C1022 H1035 0.961 . S
C1022 H1036 0.961 . S
C1023 C1020 1.539 . S
C1023 H1037 0.958 . S
C1023 H1038 0.961 . S
C1023 H1039 0.960 . S
H1024 C1008 0.931 . S
H1025 C1013 0.929 . S
H1026 C1014 0.960 . S
H1027 C1014 0.962 . S
H1028 C1014 0.960 . S
H1029 C1015 0.961 . S
H1030 C1015 0.961 . S
H1031 C1015 0.961 . S
H1032 C1016 0.931 . S
H1033 C1021 0.930 . S
H1034 C1022 0.956 . S
H1035 C1022 0.961 . S
H1036 C1022 0.961 . S
H1037 C1023 0.958 . S
H1038 C1023 0.961 . S
H1039 C1023 0.960 . S
C1040 C1041 1.391 . S
C1040 C1042 1.394 . S
C1040 H1056 0.931 . S
C1041 C1040 1.391 . S
C1041 C1045 1.376 . S
C1042 C1040 1.394 . S
C1042 C1043 1.369 . S
C1042 C1046 1.531 . S
C1043 C1042 1.369 . S
C1043 C1044 1.410 . S
C1043 C1051 1.503 . S
C1044 C1043 1.410 . S
C1044 C1045 1.392 . S
C1044 C1047 1.511 . S
C1045 C1041 1.376 . S
C1045 C1044 1.392 . S
C1045 H1057 0.929 . S
C1046 C1042 1.531 . S
C1046 H1058 0.960 . S
C1046 H1059 0.962 . S
C1046 H1060 0.960 . S
C1047 C1044 1.511 . S
C1047 H1061 0.961 . S
C1047 H1062 0.961 . S
C1047 H1063 0.961 . S
C1048 C1049 1.370 . S
C1048 C1050 1.363 . S
C1048 H1064 0.931 . S
C1049 C1048 1.370 . S
C1049 C1053 1.408 . S
C1050 C1048 1.363 . S
C1050 C1051 1.370 . S
C1050 C1054 1.524 . S
C1051 C1043 1.503 . S
C1051 C1050 1.370 . S
C1051 C1052 1.403 . S
C1052 C1051 1.403 . S
C1052 C1053 1.404 . S
C1052 C1055 1.539 . S
C1053 C1049 1.408 . S
C1053 C1052 1.404 . S
C1053 H1065 0.930 . S
C1054 C1050 1.524 . S
C1054 H1066 0.956 . S
C1054 H1067 0.961 . S
C1054 H1068 0.961 . S
C1055 C1052 1.539 . S
C1055 H1069 0.958 . S
C1055 H1070 0.961 . S
C1055 H1071 0.960 . S
H1056 C1040 0.931 . S
H1057 C1045 0.929 . S
H1058 C1046 0.960 . S
H1059 C1046 0.962 . S
H1060 C1046 0.960 . S
H1061 C1047 0.961 . S
H1062 C1047 0.961 . S
H1063 C1047 0.961 . S
H1064 C1048 0.931 . S
H1065 C1053 0.930 . S
H1066 C1054 0.956 . S
H1067 C1054 0.961 . S
H1068 C1054 0.961 . S
H1069 C1055 0.958 . S
H1070 C1055 0.961 . S
H1071 C1055 0.960 . S
C1072 C1073 1.391 . S
C1072 C1074 1.394 . S
C1072 H1088 0.931 . S
C1073 C1072 1.391 . S
C1073 C1077 1.376 . S
C1074 C1072 1.394 . S
C1074 C1075 1.369 . S
C1074 C1078 1.531 . S
C1075 C1074 1.369 . S
C1075 C1076 1.410 . S
C1075 C1083 1.503 . S
C1076 C1075 1.410 . S
C1076 C1077 1.392 . S
C1076 C1079 1.511 . S
C1077 C1073 1.376 . S
C1077 C1076 1.392 . S
C1077 H1089 0.929 . S
C1078 C1074 1.531 . S
C1078 H1090 0.960 . S
C1078 H1091 0.962 . S
C1078 H1092 0.960 . S
C1079 C1076 1.511 . S
C1079 H1093 0.961 . S
C1079 H1094 0.961 . S
C1079 H1095 0.961 . S
C1080 C1081 1.370 . S
C1080 C1082 1.363 . S
C1080 H1096 0.931 . S
C1081 C1080 1.370 . S
C1081 C1085 1.408 . S
C1082 C1080 1.363 . S
C1082 C1083 1.370 . S
C1082 C1086 1.524 1_565 S
C1083 C1075 1.503 . S
C1083 C1082 1.370 . S
C1083 C1084 1.403 . S
C1084 C1083 1.403 . S
C1084 C1085 1.404 . S
C1084 C1087 1.539 . S
C1085 C1081 1.408 . S
C1085 C1084 1.404 . S
C1085 H1097 0.930 . S
C1086 C1082 1.524 1_545 S
C1086 H1098 0.953 1_545 S
C1086 H1099 0.961 . S
C1086 H1100 0.961 . S
C1087 C1084 1.539 . S
C1087 H1101 0.958 . S
C1087 H1102 0.961 . S
C1087 H1103 0.960 . S
H1088 C1072 0.931 . S
H1089 C1077 0.929 . S
H1090 C1078 0.960 . S
H1091 C1078 0.962 . S
H1092 C1078 0.960 . S
H1093 C1079 0.961 . S
H1094 C1079 0.961 . S
H1095 C1079 0.961 . S
H1096 C1080 0.931 . S
H1097 C1085 0.930 . S
H1098 C1086 0.953 1_565 S
H1099 C1086 0.961 . S
H1100 C1086 0.961 . S
H1101 C1087 0.958 . S
H1102 C1087 0.961 . S
H1103 C1087 0.960 . S
C1104 C1105 1.391 . S
C1104 C1106 1.394 . S
C1104 H1120 0.931 . S
C1105 C1104 1.391 . S
C1105 C1109 1.376 . S
C1106 C1104 1.394 . S
C1106 C1107 1.369 . S
C1106 C1110 1.531 . S
C1107 C1106 1.369 . S
C1107 C1108 1.410 . S
C1107 C1115 1.503 . S
C1108 C1107 1.410 . S
C1108 C1109 1.392 . S
C1108 C1111 1.511 1_455 S
C1109 C1105 1.376 . S
C1109 C1108 1.392 . S
C1109 H1121 0.929 1_455 S
C1110 C1106 1.531 . S
C1110 H1122 0.960 . S
C1110 H1123 0.962 . S
C1110 H1124 0.960 . S
C1111 C1108 1.511 1_655 S
C1111 H1125 0.961 . S
C1111 H1126 0.961 . S
C1111 H1127 0.961 . S
C1112 C1113 1.370 . S
C1112 C1114 1.363 . S
C1112 H1128 0.931 . S
C1113 C1112 1.370 . S
C1113 C1117 1.408 . S
C1114 C1112 1.363 . S
C1114 C1115 1.370 . S
C1114 C1118 1.524 . S
C1115 C1107 1.503 . S
C1115 C1114 1.370 . S
C1115 C1116 1.403 . S
C1116 C1115 1.403 . S
C1116 C1117 1.404 . S
C1116 C1119 1.539 . S
C1117 C1113 1.408 . S
C1117 C1116 1.404 . S
C1117 H1129 0.930 . S
C1118 C1114 1.524 . S
C1118 H1130 0.956 . S
C1118 H1131 0.961 . S
C1118 H1132 0.961 . S
C1119 C1116 1.539 . S
C1119 H1133 0.958 . S
C1119 H1134 0.961 . S
C1119 H1135 0.960 . S
H1120 C1104 0.931 . S
H1121 C1109 0.929 1_655 S
H1122 C1110 0.960 . S
H1123 C1110 0.962 . S
H1124 C1110 0.960 . S
H1125 C1111 0.961 . S
H1126 C1111 0.961 . S
H1127 C1111 0.961 . S
H1128 C1112 0.931 . S
H1129 C1117 0.930 . S
H1130 C1118 0.956 . S
H1131 C1118 0.961 . S
H1132 C1118 0.961 . S
H1133 C1119 0.958 . S
H1134 C1119 0.961 . S
H1135 C1119 0.960 . S
C1136 C1137 1.391 . S
C1136 C1138 1.394 . S
C1136 H1152 0.931 . S
C1137 C1136 1.391 . S
C1137 C1141 1.376 . S
C1138 C1136 1.394 . S
C1138 C1139 1.369 . S
C1138 C1142 1.531 . S
C1139 C1138 1.369 . S
C1139 C1140 1.410 . S
C1139 C1147 1.503 . S
C1140 C1139 1.410 . S
C1140 C1141 1.392 . S
C1140 C1143 1.511 . S
C1141 C1137 1.376 . S
C1141 C1140 1.392 . S
C1141 H1153 0.929 . S
C1142 C1138 1.531 . S
C1142 H1154 0.960 . S
C1142 H1155 0.962 . S
C1142 H1156 0.960 . S
C1143 C1140 1.511 . S
C1143 H1157 0.961 . S
C1143 H1158 0.961 . S
C1143 H1159 0.961 . S
C1144 C1145 1.370 . S
C1144 C1146 1.363 . S
C1144 H1160 0.931 . S
C1145 C1144 1.370 . S
C1145 C1149 1.408 . S
C1146 C1144 1.363 . S
C1146 C1147 1.370 . S
C1146 C1150 1.524 . S
C1147 C1139 1.503 . S
C1147 C1146 1.370 . S
C1147 C1148 1.403 . S
C1148 C1147 1.403 . S
C1148 C1149 1.404 . S
C1148 C1151 1.539 . S
C1149 C1145 1.408 . S
C1149 C1148 1.404 . S
C1149 H1161 0.930 . S
C1150 C1146 1.524 . S
C1150 H1162 0.956 . S
C1150 H1163 0.961 . S
C1150 H1164 0.961 . S
C1151 C1148 1.539 . S
C1151 H1165 0.958 . S
C1151 H1166 0.961 . S
C1151 H1167 0.960 . S
H1152 C1136 0.931 . S
H1153 C1141 0.929 . S
H1154 C1142 0.960 . S
H1155 C1142 0.962 . S
H1156 C1142 0.960 . S
H1157 C1143 0.961 . S
H1158 C1143 0.961 . S
H1159 C1143 0.961 . S
H1160 C1144 0.931 . S
H1161 C1149 0.930 . S
H1162 C1150 0.956 . S
H1163 C1150 0.961 . S
H1164 C1150 0.961 . S
H1165 C1151 0.958 . S
H1166 C1151 0.961 . S
H1167 C1151 0.960 . S
C1168 C1169 1.391 . S
C1168 C1170 1.394 . S
C1168 H1184 0.931 . S
C1169 C1168 1.391 . S
C1169 C1173 1.376 . S
C1170 C1168 1.394 . S
C1170 C1171 1.369 . S
C1170 C1174 1.531 . S
C1171 C1170 1.369 . S
C1171 C1172 1.410 . S
C1171 C1179 1.503 . S
C1172 C1171 1.410 . S
C1172 C1173 1.392 . S
C1172 C1175 1.511 . S
C1173 C1169 1.376 . S
C1173 C1172 1.392 . S
C1173 H1185 0.929 . S
C1174 C1170 1.531 . S
C1174 H1186 0.960 . S
C1174 H1187 0.962 . S
C1174 H1188 0.960 . S
C1175 C1172 1.511 . S
C1175 H1189 0.961 . S
C1175 H1190 0.961 . S
C1175 H1191 0.961 . S
C1176 C1177 1.370 . S
C1176 C1178 1.363 . S
C1176 H1192 0.931 . S
C1177 C1176 1.370 . S
C1177 C1181 1.408 . S
C1178 C1176 1.363 . S
C1178 C1179 1.370 . S
C1178 C1182 1.524 . S
C1179 C1171 1.503 . S
C1179 C1178 1.370 . S
C1179 C1180 1.403 . S
C1180 C1179 1.403 . S
C1180 C1181 1.404 . S
C1180 C1183 1.539 . S
C1181 C1177 1.408 . S
C1181 C1180 1.404 . S
C1181 H1193 0.930 . S
C1182 C1178 1.524 . S
C1182 H1194 0.956 . S
C1182 H1195 0.961 . S
C1182 H1196 0.961 . S
C1183 C1180 1.539 . S
C1183 H1197 0.958 . S
C1183 H1198 0.961 . S
C1183 H1199 0.960 . S
H1184 C1168 0.931 . S
H1185 C1173 0.929 . S
H1186 C1174 0.960 . S
H1187 C1174 0.962 . S
H1188 C1174 0.960 . S
H1189 C1175 0.961 . S
H1190 C1175 0.961 . S
H1191 C1175 0.961 . S
H1192 C1176 0.931 . S
H1193 C1181 0.930 . S
H1194 C1182 0.956 . S
H1195 C1182 0.961 . S
H1196 C1182 0.961 . S
H1197 C1183 0.958 . S
H1198 C1183 0.961 . S
H1199 C1183 0.960 . S
C1200 C1201 1.391 . S
C1200 C1202 1.394 . S
C1200 H1216 0.931 . S
C1201 C1200 1.391 . S
C1201 C1205 1.376 . S
C1202 C1200 1.394 . S
C1202 C1203 1.369 . S
C1202 C1206 1.531 . S
C1203 C1202 1.369 . S
C1203 C1204 1.410 . S
C1203 C1211 1.503 . S
C1204 C1203 1.410 . S
C1204 C1205 1.392 . S
C1204 C1207 1.511 . S
C1205 C1201 1.376 . S
C1205 C1204 1.392 . S
C1205 H1217 0.929 . S
C1206 C1202 1.531 . S
C1206 H1218 0.960 . S
C1206 H1219 0.962 . S
C1206 H1220 0.960 . S
C1207 C1204 1.511 . S
C1207 H1221 0.961 . S
C1207 H1222 0.961 . S
C1207 H1223 0.961 . S
C1208 C1209 1.370 . S
C1208 C1210 1.363 . S
C1208 H1224 0.931 . S
C1209 C1208 1.370 . S
C1209 C1213 1.408 . S
C1210 C1208 1.363 . S
C1210 C1211 1.370 . S
C1210 C1214 1.524 . S
C1211 C1203 1.503 . S
C1211 C1210 1.370 . S
C1211 C1212 1.403 . S
C1212 C1211 1.403 . S
C1212 C1213 1.404 . S
C1212 C1215 1.539 . S
C1213 C1209 1.408 . S
C1213 C1212 1.404 . S
C1213 H1225 0.930 . S
C1214 C1210 1.524 . S
C1214 H1226 0.956 . S
C1214 H1227 0.961 . S
C1214 H1228 0.961 . S
C1215 C1212 1.539 . S
C1215 H1229 0.958 . S
C1215 H1230 0.961 . S
C1215 H1231 0.960 . S
H1216 C1200 0.931 . S
H1217 C1205 0.929 . S
H1218 C1206 0.960 . S
H1219 C1206 0.962 . S
H1220 C1206 0.960 . S
H1221 C1207 0.961 . S
H1222 C1207 0.961 . S
H1223 C1207 0.961 . S
H1224 C1208 0.931 . S
H1225 C1213 0.930 . S
H1226 C1214 0.956 . S
H1227 C1214 0.961 . S
H1228 C1214 0.961 . S
H1229 C1215 0.958 . S
H1230 C1215 0.961 . S
H1231 C1215 0.960 . S
C1232 C1233 1.391 . S
C1232 C1234 1.394 . S
C1232 H1248 0.931 . S
C1233 C1232 1.391 . S
C1233 C1237 1.376 . S
C1234 C1232 1.394 . S
C1234 C1235 1.369 . S
C1234 C1238 1.531 . S
C1235 C1234 1.369 . S
C1235 C1236 1.410 . S
C1235 C1243 1.410 1_556 S
C1236 C1235 1.410 . S
C1236 C1237 1.392 . S
C1236 C1239 1.511 . S
C1237 C1233 1.376 . S
C1237 C1236 1.392 . S
C1237 H1249 0.929 . S
C1238 C1234 1.531 . S
C1238 H1250 0.960 . S
C1238 H1251 0.962 . S
C1238 H1252 0.960 . S
C1239 C1236 1.511 . S
C1239 H1253 0.961 . S
C1239 H1254 0.961 1_556 S
C1239 H1255 0.961 . S
C1240 C1241 1.370 . S
C1240 C1242 1.363 . S
C1240 H1256 0.931 . S
C1241 C1240 1.370 . S
C1241 C1245 1.408 . S
C1242 C1240 1.363 . S
C1242 C1243 1.467 . S
C1242 C1246 1.524 . S
C1243 C1235 1.410 1_554 S
C1243 C1242 1.467 . S
C1243 C1244 1.402 . S
C1244 C1243 1.402 . S
C1244 C1245 1.483 . S
C1244 C1247 1.464 1_554 S
C1245 C1241 1.408 . S
C1245 C1244 1.483 . S
C1245 H1257 0.930 . S
C1246 C1242 1.524 . S
C1246 H1258 0.956 . S
C1246 H1259 0.961 . S
C1246 H1260 0.961 . S
C1247 C1244 1.464 1_556 S
C1247 H1261 0.958 . S
C1247 H1262 0.961 . S
C1247 H1263 0.960 . S
H1248 C1232 0.931 . S
H1249 C1237 0.929 . S
H1250 C1238 0.960 . S
H1251 C1238 0.962 . S
H1252 C1238 0.960 . S
H1253 C1239 0.961 . S
H1254 C1239 0.961 1_554 S
H1255 C1239 0.961 . S
H1256 C1240 0.931 . S
H1257 C1245 0.930 . S
H1258 C1246 0.956 . S
H1259 C1246 0.961 . S
H1260 C1246 0.961 . S
H1261 C1247 0.958 . S
H1262 C1247 0.961 . S
H1263 C1247 0.960 . S
C1264 C1265 1.391 . S
C1264 C1266 1.394 . S
C1264 H1280 0.931 . S
C1265 C1264 1.391 . S
C1265 C1269 1.376 . S
C1266 C1264 1.394 . S
C1266 C1267 1.382 . S
C1266 C1270 1.531 1_554 S
C1267 C1266 1.382 . S
C1267 C1268 1.477 . S
C1267 C1275 1.433 1_554 S
C1268 C1267 1.477 . S
C1268 C1269 1.392 . S
C1268 C1271 1.511 . S
C1269 C1265 1.376 . S
C1269 C1268 1.392 . S
C1269 H1281 0.929 . S
C1270 C1266 1.531 1_556 S
C1270 H1282 0.960 . S
C1270 H1283 0.962 . S
C1270 H1284 0.960 . S
C1271 C1268 1.511 . S
C1271 H1285 0.961 . S
C1271 H1286 0.961 . S
C1271 H1287 0.961 . S
C1272 C1273 1.370 . S
C1272 C1274 1.363 . S
C1272 H1288 0.931 . S
C1273 C1272 1.370 . S
C1273 C1277 1.408 . S
C1274 C1272 1.363 . S
C1274 C1275 1.370 . S
C1274 C1278 1.524 1_556 S
C1275 C1267 1.433 1_556 S
C1275 C1274 1.370 . S
C1275 C1276 1.403 . S
C1276 C1275 1.403 . S
C1276 C1277 1.404 . S
C1276 C1279 1.539 . S
C1277 C1273 1.408 . S
C1277 C1276 1.404 . S
C1277 H1289 0.930 . S
C1278 C1274 1.524 1_554 S
C1278 H1290 0.956 . S
C1278 H1291 0.961 . S
C1278 H1292 0.976 . S
C1279 C1276 1.539 . S
C1279 H1293 0.958 . S
C1279 H1294 0.961 . S
C1279 H1295 0.960 . S
H1280 C1264 0.931 . S
H1281 C1269 0.929 . S
H1282 C1270 0.960 . S
H1283 C1270 0.962 . S
H1284 C1270 0.960 . S
H1285 C1271 0.961 . S
H1286 C1271 0.961 . S
H1287 C1271 0.961 . S
H1288 C1272 0.931 . S
H1289 C1277 0.930 . S
H1290 C1278 0.956 . S
H1291 C1278 0.961 . S
H1292 C1278 0.976 . S
H1293 C1279 0.958 . S
H1294 C1279 0.961 . S
H1295 C1279 0.960 . S
C1296 C1297 1.391 . S
C1296 C1298 1.394 . S
C1296 H1312 0.931 . S
C1297 C1296 1.391 . S
C1297 C1301 1.376 . S
C1298 C1296 1.394 . S
C1298 C1299 1.369 . S
C1298 C1302 1.531 . S
C1299 C1298 1.369 . S
C1299 C1300 1.410 . S
C1299 C1307 1.503 . S
C1300 C1299 1.410 . S
C1300 C1301 1.392 . S
C1300 C1303 1.511 . S
C1301 C1297 1.376 . S
C1301 C1300 1.392 . S
C1301 H1313 0.929 . S
C1302 C1298 1.531 . S
C1302 H1314 0.960 . S
C1302 H1315 0.962 . S
C1302 H1316 0.960 . S
C1303 C1300 1.511 . S
C1303 H1317 0.961 . S
C1303 H1318 0.961 . S
C1303 H1319 0.961 . S
C1304 C1305 1.370 . S
C1304 C1306 1.363 . S
C1304 H1320 0.931 . S
C1305 C1304 1.370 . S
C1305 C1309 1.408 . S
C1306 C1304 1.363 . S
C1306 C1307 1.370 . S
C1306 C1310 1.524 . S
C1307 C1299 1.503 . S
C1307 C1306 1.370 . S
C1307 C1308 1.403 . S
C1308 C1307 1.403 . S
C1308 C1309 1.404 . S
C1308 C1311 1.539 . S
C1309 C1305 1.408 . S
C1309 C1308 1.404 . S
C1309 H1321 0.930 . S
C1310 C1306 1.524 . S
C1310 H1322 0.956 . S
C1310 H1323 0.961 . S
C1310 H1324 0.961 . S
C1311 C1308 1.539 . S
C1311 H1325 0.958 . S
C1311 H1326 0.961 . S
C1311 H1327 0.960 . S
H1312 C1296 0.931 . S
H1313 C1301 0.929 . S
H1314 C1302 0.960 . S
H1315 C1302 0.962 . S
H1316 C1302 0.960 . S
H1317 C1303 0.961 . S
H1318 C1303 0.961 . S
H1319 C1303 0.961 . S
H1320 C1304 0.931 . S
H1321 C1309 0.930 . S
H1322 C1310 0.956 . S
H1323 C1310 0.961 . S
H1324 C1310 0.961 . S
H1325 C1311 0.958 . S
H1326 C1311 0.961 . S
H1327 C1311 0.960 . S
C1328 C1329 1.391 . S
C1328 C1330 1.394 . S
C1328 H1344 0.931 . S
C1329 C1328 1.391 . S
C1329 C1333 1.376 . S
C1330 C1328 1.394 . S
C1330 C1331 1.369 . S
C1330 C1334 1.531 . S
C1331 C1330 1.369 . S
C1331 C1332 1.410 . S
C1331 C1339 1.503 . S
C1332 C1331 1.410 . S
C1332 C1333 1.392 . S
C1332 C1335 1.511 . S
C1333 C1329 1.376 . S
C1333 C1332 1.392 . S
C1333 H1345 0.929 . S
C1334 C1330 1.531 . S
C1334 H1346 0.960 . S
C1334 H1347 0.962 . S
C1334 H1348 0.960 . S
C1335 C1332 1.511 . S
C1335 H1349 0.961 . S
C1335 H1350 0.961 . S
C1335 H1351 0.961 . S
C1336 C1337 1.370 . S
C1336 C1338 1.363 . S
C1336 H1352 0.931 . S
C1337 C1336 1.370 . S
C1337 C1341 1.408 . S
C1338 C1336 1.363 . S
C1338 C1339 1.370 . S
C1338 C1342 1.524 . S
C1339 C1331 1.503 . S
C1339 C1338 1.370 . S
C1339 C1340 1.403 . S
C1340 C1339 1.403 . S
C1340 C1341 1.404 . S
C1340 C1343 1.539 . S
C1341 C1337 1.408 . S
C1341 C1340 1.404 . S
C1341 H1353 0.930 . S
C1342 C1338 1.524 . S
C1342 H1354 0.956 . S
C1342 H1355 0.961 . S
C1342 H1356 0.961 . S
C1343 C1340 1.539 . S
C1343 H1357 0.958 . S
C1343 H1358 0.961 . S
C1343 H1359 0.960 . S
H1344 C1328 0.931 . S
H1345 C1333 0.929 . S
H1346 C1334 0.960 . S
H1347 C1334 0.962 . S
H1348 C1334 0.960 . S
H1349 C1335 0.961 . S
H1350 C1335 0.961 . S
H1351 C1335 0.961 . S
H1352 C1336 0.931 . S
H1353 C1341 0.930 . S
H1354 C1342 0.956 . S
H1355 C1342 0.961 . S
H1356 C1342 0.961 . S
H1357 C1343 0.958 . S
H1358 C1343 0.961 . S
H1359 C1343 0.960 . S
C1360 C1361 1.391 . S
C1360 C1362 1.394 . S
C1360 H1376 0.931 . S
C1361 C1360 1.391 . S
C1361 C1365 1.376 . S
C1362 C1360 1.394 . S
C1362 C1363 1.369 . S
C1362 C1366 1.531 . S
C1363 C1362 1.369 . S
C1363 C1364 1.410 . S
C1363 C1371 1.503 . S
C1364 C1363 1.410 . S
C1364 C1365 1.392 . S
C1364 C1367 1.511 . S
C1365 C1361 1.376 . S
C1365 C1364 1.392 . S
C1365 H1377 0.929 . S
C1366 C1362 1.531 . S
C1366 H1378 0.960 . S
C1366 H1379 0.962 . S
C1366 H1380 0.960 . S
C1367 C1364 1.511 . S
C1367 H1381 0.961 . S
C1367 H1382 0.961 . S
C1367 H1383 0.961 . S
C1368 C1369 1.370 . S
C1368 C1370 1.363 . S
C1368 H1384 0.931 . S
C1369 C1368 1.370 . S
C1369 C1373 1.408 . S
C1370 C1368 1.363 . S
C1370 C1371 1.370 . S
C1370 C1374 1.524 . S
C1371 C1363 1.503 . S
C1371 C1370 1.370 . S
C1371 C1372 1.403 . S
C1372 C1371 1.403 . S
C1372 C1373 1.404 . S
C1372 C1375 1.539 . S
C1373 C1369 1.408 . S
C1373 C1372 1.404 . S
C1373 H1385 0.930 . S
C1374 C1370 1.524 . S
C1374 H1386 0.956 . S
C1374 H1387 0.961 . S
C1374 H1388 0.961 . S
C1375 C1372 1.539 . S
C1375 H1389 0.958 . S
C1375 H1390 0.961 . S
C1375 H1391 0.960 . S
H1376 C1360 0.931 . S
H1377 C1365 0.929 . S
H1378 C1366 0.960 . S
H1379 C1366 0.962 . S
H1380 C1366 0.960 . S
H1381 C1367 0.961 . S
H1382 C1367 0.961 . S
H1383 C1367 0.961 . S
H1384 C1368 0.931 . S
H1385 C1373 0.930 . S
H1386 C1374 0.956 . S
H1387 C1374 0.961 . S
H1388 C1374 0.961 . S
H1389 C1375 0.958 . S
H1390 C1375 0.961 . S
H1391 C1375 0.960 . S
C369 C246 2.049 . S
C377 C16 2.045 . S
C401 N35 1.917 . S
C409 N265 1.934 . S
C433 C200 2.023 . S
C441 C62 2.061 . S
C465 N219 1.941 . S
C473 N81 1.933 . S
C497 C108 2.028 . S
C505 C338 2.054 . S
C529 N357 1.911 . S
C537 N127 1.926 . S
C561 C154 2.062 . S
C569 C292 2.049 . S
C593 N311 1.914 . S
C601 N173 1.932 . S
C625 C237 1.280 . S
C633 C7 1.245 . S
C657 N25 1.051 . S
C665 N255 0.981 . S
C689 C53 1.227 . S
C697 C191 1.271 . S
C721 N71 1.047 . S
C729 N209 0.984 . S
C753 C99 1.285 . S
C761 C329 1.248 . S
C785 N117 1.033 . S
C793 N347 0.995 . S
C817 C283 1.262 . S
C825 C145 1.260 . S
C849 N301 0.942 . S
C857 N163 1.021 . S
C881 N2 1.631 . S
C889 N140 1.617 . S
C913 C30 1.657 . S
C921 C168 1.635 . S
C945 N48 1.603 . S
C953 N94 1.623 . S
C977 C76 1.653 . S
C985 C122 1.641 . S
C1009 N186 1.617 . S
C1017 N324 1.622 . S
C1041 C352 1.619 . S
C1049 C214 1.641 . S
C1073 N232 1.595 . S
C1081 N278 1.590 . S
C1105 C306 1.655 . S
C1113 C260 1.633 . S
C1137 N12 1.680 . S
C1145 C361 1.658 . S
C1169 N288 1.689 . S
C1177 C39 1.675 . S
C1201 C315 1.661 . S
C1209 N58 1.691 . S
C1233 N334 1.687 . S
C1241 C85 1.675 . S
C1265 C223 1.668 . S
C1273 N104 1.680 . S
C1297 N242 1.674 . S
C1305 C131 1.671 . S
C1329 N150 1.683 . S
C1337 C269 1.659 . S
C1361 C177 1.667 . S
C1369 N196 1.680 . S
