# Generated by pormake.
# Topology whm, (6)-cn, num edge types: 1
# Building blocks:
#     Node 0, Type 0, BuildingBlock: IZENUY_clean_sbu_0, # of connection points: 6
#     Node 1, Type 0, BuildingBlock: IZENUY_clean_sbu_0, # of connection points: 6
#     Node 2, Type 0, BuildingBlock: IZENUY_clean_sbu_0, # of connection points: 6
#     Node 3, Type 0, BuildingBlock: IZENUY_clean_sbu_0, # of connection points: 6
#     Node 4, Type 0, BuildingBlock: IZENUY_clean_sbu_0, # of connection points: 6
#     Node 5, Type 0, BuildingBlock: IZENUY_clean_sbu_0, # of connection points: 6
#     Node 6, Type 0, BuildingBlock: IZENUY_clean_sbu_0, # of connection points: 6
#     Node 7, Type 0, BuildingBlock: IZENUY_clean_sbu_0, # of connection points: 6
#     Node 8, Type 0, BuildingBlock: IZENUY_clean_sbu_0, # of connection points: 6
#     Node 9, Type 0, BuildingBlock: IZENUY_clean_sbu_0, # of connection points: 6
#     Node 10, Type 0, BuildingBlock: IZENUY_clean_sbu_0, # of connection points: 6
#     Node 11, Type 0, BuildingBlock: IZENUY_clean_sbu_0, # of connection points: 6
#     Node 12, Type 0, BuildingBlock: IZENUY_clean_sbu_0, # of connection points: 6
#     Node 13, Type 0, BuildingBlock: IZENUY_clean_sbu_0, # of connection points: 6
#     Node 14, Type 0, BuildingBlock: IZENUY_clean_sbu_0, # of connection points: 6
#     Node 15, Type 0, BuildingBlock: IZENUY_clean_sbu_0, # of connection points: 6
#     Edge 16, Type (0, 0), BuildingBlock: TEMPAE_clean_linker_10, # of connection points: 2
#     Edge 17, Type (0, 0), BuildingBlock: TEMPAE_clean_linker_10, # of connection points: 2
#     Edge 18, Type (0, 0), BuildingBlock: TEMPAE_clean_linker_10, # of connection points: 2
#     Edge 19, Type (0, 0), BuildingBlock: TEMPAE_clean_linker_10, # of connection points: 2
#     Edge 20, Type (0, 0), BuildingBlock: TEMPAE_clean_linker_10, # of connection points: 2
#     Edge 21, Type (0, 0), BuildingBlock: TEMPAE_clean_linker_10, # of connection points: 2
#     Edge 22, Type (0, 0), BuildingBlock: TEMPAE_clean_linker_10, # of connection points: 2
#     Edge 23, Type (0, 0), BuildingBlock: TEMPAE_clean_linker_10, # of connection points: 2
#     Edge 24, Type (0, 0), BuildingBlock: TEMPAE_clean_linker_10, # of connection points: 2
#     Edge 25, Type (0, 0), BuildingBlock: TEMPAE_clean_linker_10, # of connection points: 2
#     Edge 26, Type (0, 0), BuildingBlock: TEMPAE_clean_linker_10, # of connection points: 2
#     Edge 27, Type (0, 0), BuildingBlock: TEMPAE_clean_linker_10, # of connection points: 2
#     Edge 28, Type (0, 0), BuildingBlock: TEMPAE_clean_linker_10, # of connection points: 2
#     Edge 29, Type (0, 0), BuildingBlock: TEMPAE_clean_linker_10, # of connection points: 2
#     Edge 30, Type (0, 0), BuildingBlock: TEMPAE_clean_linker_10, # of connection points: 2
#     Edge 31, Type (0, 0), BuildingBlock: TEMPAE_clean_linker_10, # of connection points: 2
#     Edge 32, Type (0, 0), BuildingBlock: TEMPAE_clean_linker_10, # of connection points: 2
#     Edge 33, Type (0, 0), BuildingBlock: TEMPAE_clean_linker_10, # of connection points: 2
#     Edge 34, Type (0, 0), BuildingBlock: TEMPAE_clean_linker_10, # of connection points: 2
#     Edge 35, Type (0, 0), BuildingBlock: TEMPAE_clean_linker_10, # of connection points: 2
#     Edge 36, Type (0, 0), BuildingBlock: TEMPAE_clean_linker_10, # of connection points: 2
#     Edge 37, Type (0, 0), BuildingBlock: TEMPAE_clean_linker_10, # of connection points: 2
#     Edge 38, Type (0, 0), BuildingBlock: TEMPAE_clean_linker_10, # of connection points: 2
#     Edge 39, Type (0, 0), BuildingBlock: TEMPAE_clean_linker_10, # of connection points: 2
#     Edge 40, Type (0, 0), BuildingBlock: TEMPAE_clean_linker_10, # of connection points: 2
#     Edge 41, Type (0, 0), BuildingBlock: TEMPAE_clean_linker_10, # of connection points: 2
#     Edge 42, Type (0, 0), BuildingBlock: TEMPAE_clean_linker_10, # of connection points: 2
#     Edge 43, Type (0, 0), BuildingBlock: TEMPAE_clean_linker_10, # of connection points: 2
#     Edge 44, Type (0, 0), BuildingBlock: TEMPAE_clean_linker_10, # of connection points: 2
#     Edge 45, Type (0, 0), BuildingBlock: TEMPAE_clean_linker_10, # of connection points: 2
#     Edge 46, Type (0, 0), BuildingBlock: TEMPAE_clean_linker_10, # of connection points: 2
#     Edge 47, Type (0, 0), BuildingBlock: TEMPAE_clean_linker_10, # of connection points: 2
#     Edge 48, Type (0, 0), BuildingBlock: TEMPAE_clean_linker_10, # of connection points: 2
#     Edge 49, Type (0, 0), BuildingBlock: TEMPAE_clean_linker_10, # of connection points: 2
#     Edge 50, Type (0, 0), BuildingBlock: TEMPAE_clean_linker_10, # of connection points: 2
#     Edge 51, Type (0, 0), BuildingBlock: TEMPAE_clean_linker_10, # of connection points: 2
#     Edge 52, Type (0, 0), BuildingBlock: TEMPAE_clean_linker_10, # of connection points: 2
#     Edge 53, Type (0, 0), BuildingBlock: TEMPAE_clean_linker_10, # of connection points: 2
#     Edge 54, Type (0, 0), BuildingBlock: TEMPAE_clean_linker_10, # of connection points: 2
#     Edge 55, Type (0, 0), BuildingBlock: TEMPAE_clean_linker_10, # of connection points: 2
#     Edge 56, Type (0, 0), BuildingBlock: TEMPAE_clean_linker_10, # of connection points: 2
#     Edge 57, Type (0, 0), BuildingBlock: TEMPAE_clean_linker_10, # of connection points: 2
#     Edge 58, Type (0, 0), BuildingBlock: TEMPAE_clean_linker_10, # of connection points: 2
#     Edge 59, Type (0, 0), BuildingBlock: TEMPAE_clean_linker_10, # of connection points: 2
#     Edge 60, Type (0, 0), BuildingBlock: TEMPAE_clean_linker_10, # of connection points: 2
#     Edge 61, Type (0, 0), BuildingBlock: TEMPAE_clean_linker_10, # of connection points: 2
#     Edge 62, Type (0, 0), BuildingBlock: TEMPAE_clean_linker_10, # of connection points: 2
#     Edge 63, Type (0, 0), BuildingBlock: TEMPAE_clean_linker_10, # of connection points: 2
# Relax obj value: 0.316
# Max RMSD: 0.231
# Mean RMSD: 0.231
data_MOF--net-whm--node1-IZENUY_clean_sbu_0--edge1-TEMPAE_clean_linker_10
_symmetry_space_group_name_H-M    P1
_symmetry_Int_Tables_number       1
_symmetry_cell_setting            triclinic
loop_
_symmetry_equiv_pos_as_xyz
'x, y, z'
_cell_length_a     51.577208
_cell_length_b     51.575051
_cell_length_c     28.432013
_cell_angle_alpha  90.022216
_cell_angle_beta   90.027461
_cell_angle_gamma 90.011179
loop_
_atom_site_label
_atom_site_type_symbol
_atom_site_fract_x
_atom_site_fract_y
_atom_site_fract_z
_atom_type_partial_charge
Fe0 Fe 0.5406 0.16038 0.20926 0.0
Fe1 Fe 0.57706 0.11353 0.19731 0.0
O2 O 0.56784 0.14551 0.18201 0.0
Fe3 Fe 0.5863 0.16259 0.13976 0.0
O4 O 0.58114 0.19458 0.16568 0.0
O5 O 0.56017 0.18708 0.23141 0.0
O6 O 0.5458 0.1444 0.26683 0.0
C7 C 0.56602 0.13384 0.28364 0.0
C8 C 0.53757 0.17711 0.11337 0.0
O9 O 0.58262 0.12329 0.25741 0.0
C10 C 0.584 0.11187 0.10253 0.0
O11 O 0.51875 0.1347 0.18987 0.0
O12 O 0.54415 0.10265 0.21127 0.0
O13 O 0.55838 0.16591 0.10203 0.0
O14 O 0.53106 0.17912 0.15637 0.0
C15 C 0.6249 0.13914 0.18949 0.0
O16 O 0.57243 0.10192 0.13734 0.0
O17 O 0.59475 0.13384 0.10569 0.0
C18 C 0.52182 0.11129 0.20162 0.0
O19 O 0.61172 0.11852 0.18768 0.0
O20 O 0.61563 0.16031 0.17507 0.0
C21 C 0.57449 0.20141 0.20657 0.0
Fe22 Fe 0.33889 0.53759 0.71071 0.0
Fe23 Fe 0.38869 0.56953 0.69065 0.0
O24 O 0.35544 0.56275 0.67995 0.0
Fe25 Fe 0.33858 0.5817 0.63786 0.0
O26 O 0.30676 0.5789 0.6653 0.0
O27 O 0.31418 0.55976 0.73252 0.0
O28 O 0.35618 0.54303 0.76678 0.0
C29 C 0.37125 0.561 0.78034 0.0
C30 C 0.32056 0.53365 0.61545 0.0
O31 O 0.3827 0.57568 0.75179 0.0
C32 C 0.3877 0.57624 0.59599 0.0
O33 O 0.36218 0.51294 0.69301 0.0
O34 O 0.39774 0.53598 0.70295 0.0
O35 O 0.33292 0.55344 0.6021 0.0
O36 O 0.31868 0.5282 0.6591 0.0
C37 C 0.3656 0.61914 0.68422 0.0
O38 O 0.39758 0.56388 0.62968 0.0
O39 O 0.36673 0.58842 0.60123 0.0
C40 C 0.38645 0.51437 0.6986 0.0
O41 O 0.38539 0.60462 0.68168 0.0
O42 O 0.34353 0.61107 0.67177 0.0
C43 C 0.30015 0.57391 0.70696 0.0
Fe44 Fe 0.93465 0.38779 0.19609 0.0
Fe45 Fe 0.91781 0.3375 0.14689 0.0
O46 O 0.93921 0.35424 0.1849 0.0
Fe47 Fe 0.96501 0.33727 0.21256 0.0
O48 O 0.95165 0.34446 0.2707 0.0
O49 O 0.94605 0.38611 0.25692 0.0
O50 O 0.90226 0.38233 0.219 0.0
C51 C 0.88423 0.37059 0.19792 0.0
C52 C 0.9872 0.3872 0.19505 0.0
O53 O 0.88897 0.35625 0.16288 0.0
C54 C 0.96733 0.31788 0.12296 0.0
O55 O 0.92195 0.39548 0.13716 0.0
O56 O 0.92518 0.35882 0.09837 0.0
O57 O 0.98663 0.36546 0.21574 0.0
O58 O 0.96705 0.39581 0.17505 0.0
C59 C 0.92454 0.30008 0.2134 0.0
O60 O 0.94286 0.316 0.12391 0.0
O61 O 0.97966 0.32895 0.1559 0.0
C62 C 0.9221 0.38302 0.09874 0.0
O63 O 0.90869 0.31463 0.19244 0.0
O64 O 0.94832 0.30592 0.2151 0.0
C65 C 0.94733 0.36725 0.28525 0.0
Fe66 Fe 0.11607 0.9393 0.6925 0.0
Fe67 Fe 0.16672 0.92029 0.64751 0.0
O68 O 0.14995 0.94265 0.68356 0.0
Fe69 Fe 0.16732 0.96829 0.71104 0.0
O70 O 0.15857 0.95632 0.76937 0.0
O71 O 0.11706 0.95099 0.75308 0.0
O72 O 0.1198 0.90677 0.71634 0.0
C73 C 0.13115 0.8882 0.69615 0.0
C74 C 0.11839 0.99182 0.69046 0.0
O75 O 0.14648 0.89231 0.66234 0.0
C76 C 0.18832 0.96863 0.62262 0.0
O77 O 0.1092 0.92675 0.63318 0.0
O78 O 0.1469 0.92808 0.59732 0.0
O79 O 0.13996 0.9909 0.71166 0.0
O80 O 0.10955 0.97181 0.67043 0.0
C81 C 0.20274 0.92634 0.71641 0.0
O82 O 0.18981 0.9442 0.62557 0.0
O83 O 0.17701 0.98179 0.65414 0.0
C84 C 0.12259 0.92628 0.59584 0.0
O85 O 0.18793 0.9108 0.69526 0.0
O86 O 0.19797 0.95041 0.71635 0.0
C87 C 0.13533 0.95307 0.78255 0.0
Fe88 Fe 0.58594 0.33386 0.85283 0.0
Fe89 Fe 0.5379 0.33111 0.78952 0.0
O90 O 0.56294 0.34952 0.81648 0.0
Fe91 Fe 0.56504 0.3834 0.80638 0.0
O92 O 0.59749 0.38055 0.7821 0.0
O93 O 0.61322 0.35474 0.8365 0.0
O94 O 0.59591 0.3121 0.80598 0.0
C95 C 0.58068 0.2966 0.78566 0.0
C96 C 0.57904 0.37846 0.90298 0.0
O97 O 0.55655 0.30092 0.78541 0.0
C98 C 0.51266 0.37924 0.80943 0.0
O99 O 0.56269 0.31046 0.8759 0.0
O100 O 0.52464 0.32149 0.84665 0.0
O101 O 0.57785 0.39134 0.8651 0.0
O102 O 0.5778 0.35409 0.9025 0.0
C103 C 0.5529 0.36268 0.71712 0.0
O104 O 0.51441 0.35783 0.78786 0.0
O105 O 0.53244 0.38891 0.82903 0.0
C106 C 0.53818 0.31081 0.87845 0.0
O107 O 0.55005 0.33957 0.73119 0.0
O108 O 0.55309 0.38141 0.74589 0.0
C109 C 0.61655 0.36999 0.80222 0.0
Fe110 Fe 0.168 0.54267 0.28845 0.0
Fe111 Fe 0.11619 0.57113 0.30303 0.0
O112 O 0.14996 0.56844 0.31396 0.0
Fe113 Fe 0.16596 0.59141 0.34995 0.0
O114 O 0.18818 0.60042 0.30319 0.0
O115 O 0.19867 0.56055 0.28478 0.0
O116 O 0.16042 0.55442 0.2295 0.0
C117 C 0.13753 0.55779 0.21458 0.0
C118 C 0.1876 0.54336 0.37793 0.0
O119 O 0.1185 0.55903 0.24265 0.0
C120 C 0.1209 0.58542 0.39941 0.0
O121 O 0.14078 0.51979 0.28618 0.0
O122 O 0.10984 0.53879 0.32586 0.0
O123 O 0.1887 0.56782 0.37424 0.0
O124 O 0.17667 0.52977 0.34643 0.0
C125 C 0.13026 0.62246 0.29867 0.0
O126 O 0.10814 0.58413 0.36142 0.0
O127 O 0.14527 0.58419 0.39939 0.0
C128 C 0.11897 0.51877 0.30645 0.0
O129 O 0.11957 0.60345 0.27868 0.0
O130 O 0.14582 0.61907 0.3325 0.0
C131 C 0.20345 0.58459 0.28386 0.0
Fe132 Fe 0.93477 0.11822 0.80738 0.0
Fe133 Fe 0.91491 0.1678 0.85511 0.0
O134 O 0.9374 0.15202 0.81789 0.0
Fe135 Fe 0.96242 0.17022 0.79055 0.0
O136 O 0.94986 0.16207 0.73231 0.0
O137 O 0.94626 0.12023 0.74671 0.0
O138 O 0.90223 0.12163 0.78394 0.0
C139 C 0.88344 0.13229 0.80466 0.0
C140 C 0.98711 0.12156 0.80873 0.0
O141 O 0.88721 0.14725 0.83925 0.0
C142 C 0.96317 0.19025 0.87972 0.0
O143 O 0.92237 0.11025 0.8663 0.0
O144 O 0.92333 0.14733 0.90421 0.0
O145 O 0.98554 0.14325 0.78805 0.0
O146 O 0.96744 0.11219 0.82905 0.0
C147 C 0.91993 0.20499 0.78784 0.0
O148 O 0.93863 0.19092 0.87792 0.0
O149 O 0.97624 0.1795 0.84742 0.0
C150 C 0.92185 0.12298 0.90439 0.0
O151 O 0.90475 0.18972 0.80877 0.0
O152 O 0.94404 0.20058 0.78717 0.0
C153 C 0.94686 0.139 0.7181 0.0
Fe154 Fe 0.38474 0.93532 0.30455 0.0
Fe155 Fe 0.33455 0.91721 0.35135 0.0
O156 O 0.35099 0.93887 0.3136 0.0
Fe157 Fe 0.33365 0.96393 0.28445 0.0
O158 O 0.34244 0.9506 0.2271 0.0
O159 O 0.38389 0.94657 0.24374 0.0
O160 O 0.38073 0.90275 0.28162 0.0
C161 C 0.36976 0.88448 0.3033 0.0
C162 C 0.38233 0.98775 0.30597 0.0
O163 O 0.35497 0.88907 0.3378 0.0
C164 C 0.31256 0.96591 0.37285 0.0
O165 O 0.39173 0.92311 0.36388 0.0
O166 O 0.35456 0.92625 0.40082 0.0
O167 O 0.36127 0.98671 0.283 0.0
O168 O 0.39103 0.96777 0.32616 0.0
C169 C 0.29872 0.92142 0.28142 0.0
O170 O 0.31136 0.94141 0.37175 0.0
O171 O 0.32371 0.97849 0.34037 0.0
C172 C 0.37883 0.92387 0.40171 0.0
O173 O 0.31329 0.9066 0.30461 0.0
O174 O 0.3031 0.9456 0.27977 0.0
C175 C 0.36558 0.94674 0.21421 0.0
Fe176 Fe 0.4357 0.88357 0.80564 0.0
Fe177 Fe 0.46028 0.83087 0.78293 0.0
O178 O 0.43688 0.84954 0.81351 0.0
Fe179 Fe 0.41443 0.83414 0.85129 0.0
O180 O 0.38775 0.85673 0.8395 0.0
O181 O 0.40272 0.88197 0.78361 0.0
O182 O 0.44628 0.88268 0.74432 0.0
C183 C 0.44499 0.86465 0.7143 0.0
C184 C 0.42431 0.87733 0.90299 0.0
O185 O 0.44718 0.84121 0.72651 0.0
C186 C 0.46149 0.80707 0.86845 0.0
O187 O 0.46882 0.88746 0.82631 0.0
O188 O 0.48488 0.85666 0.78182 0.0
O189 O 0.42532 0.85292 0.90135 0.0
O190 O 0.42448 0.89061 0.86555 0.0
C191 C 0.41545 0.79905 0.77974 0.0
O192 O 0.47456 0.81916 0.83784 0.0
O193 O 0.437 0.80874 0.8696 0.0
C194 C 0.48779 0.87758 0.80468 0.0
O195 O 0.43982 0.80184 0.77751 0.0
O196 O 0.40182 0.81425 0.80405 0.0
C197 C 0.38392 0.87198 0.80537 0.0
Fe198 Fe 0.61436 0.43391 0.307 0.0
Fe199 Fe 0.66689 0.46037 0.28983 0.0
O200 O 0.64826 0.43567 0.31721 0.0
Fe201 Fe 0.66374 0.41278 0.35409 0.0
O202 O 0.64279 0.38547 0.33767 0.0
O203 O 0.61671 0.40132 0.28373 0.0
O204 O 0.61661 0.44526 0.24612 0.0
C205 C 0.63543 0.44495 0.21752 0.0
C206 C 0.61901 0.42024 0.40378 0.0
O207 O 0.65853 0.44776 0.23174 0.0
C208 C 0.68685 0.46076 0.37905 0.0
O209 O 0.60923 0.46669 0.32881 0.0
O210 O 0.64039 0.48397 0.28708 0.0
O211 O 0.64339 0.42115 0.40345 0.0
O212 O 0.60618 0.42167 0.3659 0.0
C213 C 0.70113 0.41751 0.28707 0.0
O214 O 0.67633 0.47403 0.34671 0.0
O215 O 0.6871 0.43619 0.37726 0.0
C216 C 0.61897 0.48613 0.30838 0.0
O217 O 0.69698 0.44164 0.28659 0.0
O218 O 0.68562 0.40246 0.30769 0.0
C219 C 0.62706 0.38223 0.30399 0.0
Fe220 Fe 0.08922 0.667 0.84898 0.0
Fe221 Fe 0.06798 0.61737 0.80296 0.0
O222 O 0.06589 0.65123 0.8135 0.0
Fe223 Fe 0.04032 0.66959 0.78809 0.0
O224 O 0.05863 0.70003 0.78403 0.0
O225 O 0.0984 0.68895 0.80188 0.0
O226 O 0.11648 0.64637 0.83148 0.0
C227 C 0.11952 0.63055 0.79795 0.0
C228 C 0.04161 0.68926 0.87739 0.0
O229 O 0.10027 0.62011 0.77826 0.0
C230 C 0.01566 0.62105 0.80693 0.0
O231 O 0.08189 0.64661 0.89877 0.0
O232 O 0.08106 0.60931 0.86136 0.0
O233 O 0.02773 0.67851 0.84612 0.0
O234 O 0.06605 0.69014 0.87322 0.0
C235 C 0.05487 0.63873 0.71445 0.0
O236 O 0.0356 0.61164 0.82619 0.0
O237 O 0.01701 0.64272 0.78623 0.0
C238 C 0.08281 0.62222 0.89914 0.0
O239 O 0.05574 0.61973 0.74264 0.0
O240 O 0.05183 0.66171 0.7292 0.0
C241 C 0.08273 0.7045 0.78285 0.0
Fe242 Fe 0.83939 0.0878 0.35735 0.0
Fe243 Fe 0.8875 0.06576 0.30857 0.0
O244 O 0.85364 0.065 0.31887 0.0
Fe245 Fe 0.83395 0.04167 0.29009 0.0
O246 O 0.80506 0.06244 0.28657 0.0
O247 O 0.81859 0.10037 0.31147 0.0
O248 O 0.86189 0.11419 0.34323 0.0
C249 C 0.87625 0.11769 0.30775 0.0
C250 C 0.8134 0.04101 0.37892 0.0
O251 O 0.88578 0.09865 0.28592 0.0
C252 C 0.88065 0.01364 0.3094 0.0
O253 O 0.85912 0.07696 0.40595 0.0
O254 O 0.89607 0.07737 0.36782 0.0
O255 O 0.82336 0.02777 0.34606 0.0
O256 O 0.81444 0.06553 0.37837 0.0
C257 C 0.86644 0.05615 0.21876 0.0
O258 O 0.89142 0.03266 0.32961 0.0
O259 O 0.85941 0.01675 0.28762 0.0
C260 C 0.8835 0.07781 0.40609 0.0
O261 O 0.88509 0.05475 0.24755 0.0
O262 O 0.84324 0.05435 0.23268 0.0
C263 C 0.80278 0.08688 0.28826 0.0
Fe264 Fe 0.43845 0.61643 0.19402 0.0
Fe265 Fe 0.46643 0.66764 0.21623 0.0
O266 O 0.44154 0.6504 0.18661 0.0
Fe267 Fe 0.41952 0.6673 0.15005 0.0
O268 O 0.39171 0.64627 0.16239 0.0
O269 O 0.40574 0.61974 0.21701 0.0
O270 O 0.4496 0.6165 0.25499 0.0
C271 C 0.45094 0.63433 0.28543 0.0
C272 C 0.42668 0.62394 0.09703 0.0
O273 O 0.45388 0.65777 0.27344 0.0
C274 C 0.46777 0.6915 0.1308 0.0
O275 O 0.47119 0.61058 0.17263 0.0
O276 O 0.48948 0.64061 0.21604 0.0
O277 O 0.42862 0.64827 0.09929 0.0
O278 O 0.42647 0.61031 0.1341 0.0
C279 C 0.4237 0.70233 0.22103 0.0
O280 O 0.48055 0.67864 0.16072 0.0
O281 O 0.44324 0.69147 0.13106 0.0
C282 C 0.49091 0.61946 0.19357 0.0
O283 O 0.44783 0.69784 0.22259 0.0
O284 O 0.4088 0.68758 0.19825 0.0
C285 C 0.38732 0.63103 0.19625 0.0
Fe286 Fe 0.88533 0.43792 0.69587 0.0
Fe287 Fe 0.83386 0.46655 0.71258 0.0
O288 O 0.85168 0.44145 0.68457 0.0
Fe289 Fe 0.83574 0.41972 0.64609 0.0
O290 O 0.85539 0.39142 0.66185 0.0
O291 O 0.88084 0.40534 0.71843 0.0
O292 O 0.8832 0.44906 0.75682 0.0
C293 C 0.86427 0.44941 0.78508 0.0
C294 C 0.88117 0.42554 0.59836 0.0
O295 O 0.84137 0.45309 0.77048 0.0
C296 C 0.81458 0.46872 0.62288 0.0
O297 O 0.89226 0.47057 0.67509 0.0
O298 O 0.86143 0.48907 0.71627 0.0
O299 O 0.85691 0.42802 0.59786 0.0
O300 O 0.89353 0.4256 0.63688 0.0
C301 C 0.79792 0.42486 0.7123 0.0
O302 O 0.82516 0.48122 0.65612 0.0
O303 O 0.8135 0.4442 0.62334 0.0
C304 C 0.88315 0.49035 0.69553 0.0
O305 O 0.803 0.44883 0.71466 0.0
O306 O 0.81309 0.40964 0.69127 0.0
C307 C 0.86978 0.38702 0.69699 0.0
Fe308 Fe 0.03848 0.8413 0.20826 0.0
Fe309 Fe 0.08256 0.84161 0.13529 0.0
O310 O 0.06311 0.85831 0.17689 0.0
Fe311 Fe 0.06882 0.89187 0.18656 0.0
O312 O 0.07507 0.88667 0.24792 0.0
O313 O 0.04336 0.85921 0.2637 0.0
O314 O 0.06136 0.81748 0.23079 0.0
C315 C 0.07585 0.80355 0.20567 0.0
C316 C 0.01378 0.88794 0.19451 0.0
O317 O 0.0808 0.80998 0.16388 0.0
C318 C 0.07574 0.89027 0.09196 0.0
O319 O 0.02962 0.82043 0.15748 0.0
O320 O 0.05444 0.83462 0.09981 0.0
O321 O 0.035 0.89997 0.19844 0.0
O322 O 0.01312 0.8636 0.18985 0.0
C323 C 0.11917 0.87036 0.18067 0.0
O324 O 0.08833 0.86957 0.09762 0.0
O325 O 0.06303 0.90004 0.12532 0.0
C326 C 0.03482 0.82219 0.11378 0.0
O327 O 0.11184 0.84791 0.16886 0.0
O328 O 0.10399 0.88962 0.17778 0.0
C329 C 0.06072 0.87507 0.27682 0.0
Fe330 Fe 0.61556 0.06252 0.69928 0.0
Fe331 Fe 0.66734 0.03397 0.71403 0.0
O332 O 0.64909 0.05908 0.68699 0.0
Fe333 Fe 0.66437 0.08088 0.64785 0.0
O334 O 0.64432 0.10891 0.66381 0.0
O335 O 0.62032 0.09504 0.72237 0.0
O336 O 0.61804 0.05084 0.75976 0.0
C337 C 0.63701 0.0494 0.7878 0.0
C338 C 0.6186 0.07399 0.60185 0.0
O339 O 0.65989 0.04647 0.77265 0.0
C340 C 0.68625 0.03247 0.62394 0.0
O341 O 0.60852 0.02999 0.67793 0.0
O342 O 0.6401 0.01111 0.71691 0.0
O343 O 0.64287 0.07176 0.60032 0.0
O344 O 0.60684 0.07519 0.64084 0.0
C345 C 0.70251 0.07645 0.71385 0.0
O346 O 0.67602 0.01978 0.65717 0.0
O347 O 0.68701 0.05696 0.62473 0.0
C348 C 0.61822 0.00997 0.69665 0.0
O349 O 0.69782 0.05237 0.7164 0.0
O350 O 0.6872 0.09142 0.69245 0.0
C351 C 0.63071 0.1134 0.69993 0.0
C352 C 0.56977 0.23929 0.26155 0.0
C353 C 0.58224 0.22749 0.22331 0.0
C354 C 0.57653 0.2645 0.2759 0.0
C355 C 0.59643 0.278 0.25181 0.0
C356 C 0.60936 0.26599 0.21375 0.0
C357 C 0.60204 0.24098 0.19986 0.0
C358 C 0.56218 0.27683 0.3164 0.0
C359 C 0.63089 0.2796 0.18751 0.0
C360 C 0.5998 0.35152 0.2567 0.0
C361 C 0.6192 0.35556 0.29058 0.0
C362 C 0.5919 0.32638 0.24431 0.0
C363 C 0.60378 0.30475 0.26609 0.0
C364 C 0.62339 0.30866 0.30019 0.0
C365 C 0.63082 0.334 0.31211 0.0
C366 C 0.57093 0.32298 0.2077 0.0
C367 C 0.63676 0.28606 0.32369 0.0
H368 H 0.55441 0.22904 0.27973 0.0
H369 H 0.61194 0.23193 0.1705 0.0
H370 H 0.57602 0.28233 0.34456 0.0
H371 H 0.55253 0.29488 0.30439 0.0
H372 H 0.54728 0.26372 0.33158 0.0
H373 H 0.6394 0.2673 0.15939 0.0
H374 H 0.62343 0.29768 0.17128 0.0
H375 H 0.64653 0.28523 0.2123 0.0
H376 H 0.59068 0.36802 0.23986 0.0
H377 H 0.64586 0.33688 0.33823 0.0
H378 H 0.55476 0.31133 0.22239 0.0
H379 H 0.57871 0.31219 0.17703 0.0
H380 H 0.5631 0.34181 0.19514 0.0
H381 H 0.62227 0.27356 0.34148 0.0
H382 H 0.65135 0.2924 0.35006 0.0
H383 H 0.64663 0.27396 0.29684 0.0
C384 C 0.26204 0.57121 0.76188 0.0
C385 C 0.27434 0.58278 0.72325 0.0
C386 C 0.2368 0.57857 0.775 0.0
C387 C 0.22377 0.59817 0.74925 0.0
C388 C 0.23635 0.61028 0.71092 0.0
C389 C 0.26138 0.60237 0.6983 0.0
C390 C 0.22388 0.5651 0.81588 0.0
C391 C 0.22328 0.63148 0.68293 0.0
C392 C 0.15019 0.60253 0.75191 0.0
C393 C 0.14616 0.62248 0.7847 0.0
C394 C 0.17534 0.59417 0.74052 0.0
C395 C 0.19698 0.60614 0.76221 0.0
C396 C 0.19306 0.62639 0.79503 0.0
C397 C 0.16774 0.63427 0.80594 0.0
C398 C 0.17875 0.57253 0.70525 0.0
C399 C 0.21566 0.63989 0.81838 0.0
H400 H 0.27188 0.55598 0.78117 0.0
H401 H 0.27081 0.61157 0.6686 0.0
H402 H 0.21819 0.57951 0.84294 0.0
H403 H 0.20588 0.55538 0.80376 0.0
H404 H 0.23667 0.55039 0.83249 0.0
H405 H 0.23599 0.63937 0.65483 0.0
H406 H 0.20532 0.62392 0.66643 0.0
H407 H 0.21755 0.64761 0.70658 0.0
H408 H 0.13368 0.59326 0.73533 0.0
H409 H 0.16488 0.64974 0.83122 0.0
H410 H 0.18991 0.55641 0.72132 0.0
H411 H 0.19003 0.57957 0.6746 0.0
H412 H 0.15991 0.56482 0.6924 0.0
H413 H 0.22773 0.62557 0.83757 0.0
H414 H 0.20931 0.65511 0.84351 0.0
H415 H 0.22818 0.64899 0.7913 0.0
C416 C 0.89537 0.14954 0.25081 0.0
C417 C 0.88309 0.14452 0.29387 0.0
C418 C 0.90149 0.17502 0.23728 0.0
C419 C 0.89531 0.1959 0.26768 0.0
C420 C 0.8829 0.19094 0.31111 0.0
C421 C 0.87686 0.16535 0.32358 0.0
C422 C 0.91455 0.17959 0.19048 0.0
C423 C 0.87618 0.21266 0.34462 0.0
C424 C 0.93352 0.25837 0.25506 0.0
C425 C 0.91623 0.27408 0.22974 0.0
C426 C 0.9269 0.23296 0.26775 0.0
C427 C 0.9024 0.22291 0.25471 0.0
C428 C 0.88466 0.23875 0.22982 0.0
C429 C 0.89174 0.2642 0.21778 0.0
C430 C 0.94624 0.21675 0.29472 0.0
C431 C 0.85835 0.22867 0.21533 0.0
H432 H 0.90003 0.13358 0.22747 0.0
H433 H 0.86739 0.16169 0.35694 0.0
H434 H 0.90241 0.19253 0.16842 0.0
H435 H 0.93342 0.18949 0.19589 0.0
H436 H 0.91802 0.16127 0.17092 0.0
H437 H 0.86627 0.20556 0.37681 0.0
H438 H 0.89407 0.22308 0.35525 0.0
H439 H 0.86339 0.22693 0.32692 0.0
H440 H 0.95245 0.26585 0.26463 0.0
H441 H 0.87828 0.27613 0.19808 0.0
H442 H 0.95135 0.19922 0.27409 0.0
H443 H 0.93756 0.21005 0.32828 0.0
H444 H 0.96433 0.22758 0.30276 0.0
H445 H 0.86067 0.21152 0.19215 0.0
H446 H 0.84672 0.2435 0.19642 0.0
H447 H 0.84736 0.22225 0.24677 0.0
C448 C 0.35162 0.89214 0.75074 0.0
C449 C 0.35708 0.87964 0.7934 0.0
C450 C 0.32615 0.89921 0.73898 0.0
C451 C 0.30574 0.89387 0.77088 0.0
C452 C 0.31115 0.88135 0.81403 0.0
C453 C 0.33672 0.87425 0.82466 0.0
C454 C 0.32107 0.91233 0.69239 0.0
C455 C 0.28993 0.87556 0.84911 0.0
C456 C 0.24449 0.93404 0.75888 0.0
C457 C 0.22816 0.91713 0.73397 0.0
C458 C 0.26964 0.92655 0.77179 0.0
C459 C 0.27874 0.9016 0.75929 0.0
C460 C 0.26217 0.88419 0.73524 0.0
C461 C 0.23702 0.89212 0.72305 0.0
C462 C 0.28667 0.94553 0.79795 0.0
C463 C 0.27124 0.85743 0.72131 0.0
H464 H 0.36722 0.89618 0.72628 0.0
H465 H 0.34079 0.86469 0.85779 0.0
H466 H 0.30706 0.90074 0.6715 0.0
H467 H 0.31221 0.93165 0.6983 0.0
H468 H 0.33904 0.91488 0.67137 0.0
H469 H 0.2974 0.86574 0.88114 0.0
H470 H 0.28022 0.89382 0.8598 0.0
H471 H 0.27497 0.86301 0.83272 0.0
H472 H 0.23777 0.95335 0.76769 0.0
H473 H 0.22459 0.87893 0.70374 0.0
H474 H 0.30389 0.95038 0.7763 0.0
H475 H 0.29383 0.93667 0.83105 0.0
H476 H 0.27631 0.9638 0.8067 0.0
H477 H 0.28796 0.85901 0.69694 0.0
H478 H 0.25574 0.84597 0.70383 0.0
H479 H 0.278 0.84664 0.75276 0.0
C480 C 0.61484 0.26192 0.78247 0.0
C481 C 0.59019 0.27097 0.76945 0.0
C482 C 0.62272 0.23652 0.7716 0.0
C483 C 0.60565 0.21988 0.74682 0.0
C484 C 0.58111 0.22918 0.73232 0.0
C485 C 0.57367 0.25455 0.74387 0.0
C486 C 0.64905 0.22727 0.78765 0.0
C487 C 0.56246 0.21216 0.70533 0.0
C488 C 0.63194 0.16095 0.68255 0.0
C489 C 0.62504 0.14067 0.71303 0.0
C490 C 0.62612 0.18683 0.69348 0.0
C491 C 0.61327 0.19267 0.73613 0.0
C492 C 0.60672 0.17238 0.76757 0.0
C493 C 0.61258 0.14661 0.75555 0.0
C494 C 0.63327 0.20787 0.65889 0.0
C495 C 0.59317 0.17787 0.81359 0.0
H496 H 0.6277 0.2744 0.8024 0.0
H497 H 0.55465 0.2614 0.73344 0.0
H498 H 0.64674 0.21081 0.81243 0.0
H499 H 0.66038 0.22005 0.75719 0.0
H500 H 0.66032 0.2428 0.80539 0.0
H501 H 0.54444 0.2226 0.69536 0.0
H502 H 0.57185 0.20479 0.67288 0.0
H503 H 0.55711 0.19508 0.72695 0.0
H504 H 0.64155 0.15661 0.64959 0.0
H505 H 0.60736 0.1311 0.77948 0.0
H506 H 0.64538 0.22281 0.67639 0.0
H507 H 0.61545 0.21767 0.64614 0.0
H508 H 0.64403 0.2002 0.62804 0.0
H509 H 0.60432 0.19232 0.83424 0.0
H510 H 0.59067 0.16012 0.83526 0.0
H511 H 0.57377 0.18634 0.80667 0.0
C512 C 0.35422 0.61207 0.25106 0.0
C513 C 0.36009 0.62511 0.20911 0.0
C514 C 0.32842 0.60657 0.2634 0.0
C515 C 0.30805 0.61403 0.23279 0.0
C516 C 0.31385 0.62728 0.19053 0.0
C517 C 0.33976 0.63277 0.17934 0.0
C518 C 0.32297 0.59261 0.30902 0.0
C519 C 0.29272 0.63534 0.15677 0.0
C520 C 0.24494 0.57644 0.24112 0.0
C521 C 0.2293 0.59332 0.26746 0.0
C522 C 0.27046 0.58311 0.22913 0.0
C523 C 0.28071 0.60719 0.24409 0.0
C524 C 0.26488 0.6246 0.26978 0.0
C525 C 0.23929 0.61752 0.28096 0.0
C526 C 0.28658 0.56417 0.2011 0.0
C527 C 0.27518 0.65042 0.28644 0.0
H528 H 0.36979 0.60629 0.27445 0.0
H529 H 0.34407 0.64283 0.1468 0.0
H530 H 0.30919 0.60403 0.33067 0.0
H531 H 0.31368 0.57363 0.30163 0.0
H532 H 0.34086 0.58918 0.32991 0.0
H533 H 0.30044 0.64597 0.12581 0.0
H534 H 0.28212 0.61796 0.14411 0.0
H535 H 0.27844 0.64791 0.17496 0.0
H536 H 0.23734 0.55777 0.23031 0.0
H537 H 0.2274 0.63062 0.30153 0.0
H538 H 0.30368 0.55805 0.22203 0.0
H539 H 0.29397 0.57361 0.16871 0.0
H540 H 0.27546 0.54659 0.1909 0.0
H541 H 0.29185 0.6473 0.31048 0.0
H542 H 0.26024 0.66198 0.3052 0.0
H543 H 0.28239 0.66187 0.25613 0.0
C544 C 0.86801 0.33937 0.68088 0.0
C545 C 0.87532 0.35986 0.71058 0.0
C546 C 0.87379 0.31358 0.6924 0.0
C547 C 0.88701 0.3081 0.73486 0.0
C548 C 0.89394 0.32861 0.76555 0.0
C549 C 0.8881 0.35427 0.75295 0.0
C550 C 0.86625 0.29224 0.65865 0.0
C551 C 0.90785 0.32349 0.81137 0.0
C552 C 0.88578 0.23957 0.784 0.0
C553 C 0.91035 0.23039 0.77087 0.0
C554 C 0.87776 0.26476 0.77212 0.0
C555 C 0.89463 0.28101 0.74617 0.0
C556 C 0.91907 0.27156 0.7315 0.0
C557 C 0.92665 0.24641 0.74411 0.0
C558 C 0.85156 0.27422 0.7884 0.0
C559 C 0.93748 0.28821 0.70331 0.0
H560 H 0.85813 0.34349 0.64806 0.0
H561 H 0.89359 0.36995 0.77631 0.0
H562 H 0.88392 0.28229 0.64564 0.0
H563 H 0.85429 0.27749 0.67694 0.0
H564 H 0.85521 0.29966 0.62793 0.0
H565 H 0.91088 0.34147 0.8322 0.0
H566 H 0.89663 0.30953 0.83297 0.0
H567 H 0.92702 0.31456 0.80426 0.0
H568 H 0.87309 0.22736 0.8048 0.0
H569 H 0.9456 0.23943 0.73355 0.0
H570 H 0.84004 0.28118 0.75797 0.0
H571 H 0.85407 0.2909 0.81265 0.0
H572 H 0.84037 0.25888 0.80684 0.0
H573 H 0.92778 0.29526 0.67091 0.0
H574 H 0.95537 0.27761 0.69313 0.0
H575 H 0.94311 0.30551 0.72415 0.0
C576 C 0.16678 0.8617 0.17354 0.0
C577 C 0.14625 0.87506 0.19483 0.0
C578 C 0.19263 0.86765 0.18497 0.0
C579 C 0.19788 0.88682 0.21943 0.0
C580 C 0.17709 0.89966 0.24211 0.0
C581 C 0.15156 0.89389 0.229 0.0
C582 C 0.21431 0.85396 0.1594 0.0
C583 C 0.1818 0.91965 0.28005 0.0
C584 C 0.26267 0.88908 0.28254 0.0
C585 C 0.27414 0.91108 0.2623 0.0
C586 C 0.23812 0.8805 0.26804 0.0
C587 C 0.22502 0.89387 0.23165 0.0
C588 C 0.23708 0.91532 0.2095 0.0
C589 C 0.26137 0.92388 0.22552 0.0
C590 C 0.22568 0.85793 0.29326 0.0
C591 C 0.22396 0.92971 0.16986 0.0
H592 H 0.16263 0.84725 0.14688 0.0
H593 H 0.13563 0.90402 0.2458 0.0
H594 H 0.22624 0.86835 0.14007 0.0
H595 H 0.22727 0.84414 0.18491 0.0
H596 H 0.20697 0.83933 0.13396 0.0
H597 H 0.16348 0.92669 0.29612 0.0
H598 H 0.19418 0.91135 0.3082 0.0
H599 H 0.19231 0.9365 0.2651 0.0
H600 H 0.27239 0.87919 0.3112 0.0
H601 H 0.2703 0.94073 0.2095 0.0
H602 H 0.21908 0.84312 0.26765 0.0
H603 H 0.2083 0.86478 0.31262 0.0
H604 H 0.23909 0.8486 0.31873 0.0
H605 H 0.21723 0.91589 0.14254 0.0
H606 H 0.23701 0.94417 0.15317 0.0
H607 H 0.20662 0.93999 0.18344 0.0
C608 C 0.35457 0.66626 0.67755 0.0
C609 C 0.36919 0.64641 0.69825 0.0
C610 C 0.35948 0.69238 0.68857 0.0
C611 C 0.37893 0.69855 0.72194 0.0
C612 C 0.39292 0.67842 0.74436 0.0
C613 C 0.38812 0.65262 0.73173 0.0
C614 C 0.34451 0.71335 0.6634 0.0
C615 C 0.41331 0.68413 0.78113 0.0
C616 C 0.41543 0.76225 0.72291 0.0
C617 C 0.4037 0.77515 0.7607 0.0
C618 C 0.40645 0.73793 0.70803 0.0
C619 C 0.38566 0.72599 0.73227 0.0
C620 C 0.37307 0.73938 0.76925 0.0
C621 C 0.38209 0.76397 0.78271 0.0
C622 C 0.42001 0.72451 0.66774 0.0
C623 C 0.35117 0.7271 0.79652 0.0
H624 H 0.33999 0.66142 0.65151 0.0
H625 H 0.39918 0.63721 0.74818 0.0
H626 H 0.33536 0.72664 0.68917 0.0
H627 H 0.358 0.72511 0.64175 0.0
H628 H 0.32919 0.7053 0.64011 0.0
H629 H 0.42094 0.66621 0.7978 0.0
H630 H 0.42973 0.6947 0.76481 0.0
H631 H 0.40518 0.6968 0.80902 0.0
H632 H 0.43199 0.77098 0.70557 0.0
H633 H 0.37306 0.77382 0.81215 0.0
H634 H 0.40563 0.71708 0.64202 0.0
H635 H 0.43103 0.70761 0.68125 0.0
H636 H 0.43371 0.73759 0.64916 0.0
H637 H 0.33624 0.7193 0.77225 0.0
H638 H 0.34178 0.74101 0.82101 0.0
H639 H 0.35877 0.71055 0.8173 0.0
C640 C 0.73613 0.38369 0.28494 0.0
C641 C 0.72657 0.40786 0.27038 0.0
C642 C 0.7615 0.37591 0.27361 0.0
C643 C 0.77751 0.39261 0.24679 0.0
C644 C 0.76762 0.41659 0.23062 0.0
C645 C 0.74233 0.42393 0.24268 0.0
C646 C 0.77142 0.3502 0.29148 0.0
C647 C 0.78397 0.4348 0.20143 0.0
C648 C 0.85096 0.38832 0.25363 0.0
C649 C 0.85691 0.37522 0.21175 0.0
C650 C 0.82513 0.3934 0.26624 0.0
C651 C 0.80479 0.38536 0.23605 0.0
C652 C 0.81064 0.3717 0.19423 0.0
C653 C 0.8366 0.36671 0.18269 0.0
C654 C 0.81964 0.40782 0.31139 0.0
C655 C 0.78951 0.36296 0.161 0.0
H656 H 0.72413 0.3712 0.30651 0.0
H657 H 0.73503 0.44256 0.231 0.0
H658 H 0.77881 0.33834 0.26182 0.0
H659 H 0.78788 0.35347 0.3159 0.0
H660 H 0.7562 0.33899 0.31021 0.0
H661 H 0.77304 0.45229 0.19013 0.0
H662 H 0.80112 0.44115 0.22203 0.0
H663 H 0.79127 0.42467 0.16966 0.0
H664 H 0.8665 0.39474 0.27654 0.0
H665 H 0.84097 0.35653 0.15028 0.0
H666 H 0.8057 0.39674 0.33326 0.0
H667 H 0.81055 0.4268 0.30329 0.0
H668 H 0.83749 0.41133 0.33234 0.0
H669 H 0.77498 0.35111 0.18009 0.0
H670 H 0.7972 0.3514 0.13113 0.0
H671 H 0.77922 0.38012 0.14665 0.0
C672 C 0.11179 0.85532 0.75114 0.0
C673 C 0.12513 0.86102 0.70942 0.0
C674 C 0.10597 0.82956 0.76349 0.0
C675 C 0.11341 0.80906 0.73313 0.0
C676 C 0.127 0.8147 0.69116 0.0
C677 C 0.13281 0.84054 0.67997 0.0
C678 C 0.09167 0.8243 0.80883 0.0
C679 C 0.13505 0.79345 0.65762 0.0
C680 C 0.11594 0.74012 0.78092 0.0
C681 C 0.09176 0.73035 0.76683 0.0
C682 C 0.12329 0.76571 0.7702 0.0
C683 C 0.10618 0.78177 0.74431 0.0
C684 C 0.0821 0.77174 0.72879 0.0
C685 C 0.07515 0.74623 0.74039 0.0
C686 C 0.14909 0.77574 0.7875 0.0
C687 C 0.06349 0.78809 0.70046 0.0
H688 H 0.10596 0.87098 0.77428 0.0
H689 H 0.14309 0.8447 0.64759 0.0
H690 H 0.07262 0.81528 0.80107 0.0
H691 H 0.10277 0.81037 0.83071 0.0
H692 H 0.08837 0.84224 0.82964 0.0
H693 H 0.146 0.80103 0.62692 0.0
H694 H 0.14731 0.77902 0.67612 0.0
H695 H 0.11763 0.78307 0.64455 0.0
H696 H 0.12883 0.72806 0.80162 0.0
H697 H 0.05648 0.73881 0.72916 0.0
H698 H 0.14596 0.79245 0.81143 0.0
H699 H 0.16084 0.78282 0.75746 0.0
H700 H 0.16035 0.76069 0.80656 0.0
H701 H 0.05745 0.80525 0.7213 0.0
H702 H 0.04586 0.77716 0.68993 0.0
H703 H 0.07319 0.79539 0.66826 0.0
C704 C 0.67202 0.14982 0.18105 0.0
C705 C 0.65199 0.13729 0.20529 0.0
C706 C 0.69809 0.14487 0.19253 0.0
C707 C 0.70396 0.12751 0.2297 0.0
C708 C 0.68363 0.11614 0.25599 0.0
C709 C 0.65791 0.12092 0.24304 0.0
C710 C 0.71926 0.15709 0.16341 0.0
C711 C 0.689 0.09805 0.29665 0.0
C712 C 0.76475 0.08653 0.234 0.0
C713 C 0.7792 0.09919 0.26885 0.0
C714 C 0.74094 0.09655 0.21867 0.0
C715 C 0.73113 0.11953 0.23935 0.0
C716 C 0.74618 0.13303 0.27303 0.0
C717 C 0.77018 0.12281 0.2871 0.0
C718 C 0.72568 0.08182 0.182 0.0
C719 C 0.73624 0.15739 0.29633 0.0
H720 H 0.66735 0.16238 0.15168 0.0
H721 H 0.64231 0.11149 0.26206 0.0
H722 H 0.73412 0.16609 0.18642 0.0
H723 H 0.72911 0.14187 0.14239 0.0
H724 H 0.71161 0.17207 0.139 0.0
H725 H 0.67108 0.0929 0.31623 0.0
H726 H 0.69796 0.07992 0.28334 0.0
H727 H 0.70293 0.10704 0.32153 0.0
H728 H 0.77183 0.06845 0.21933 0.0
H729 H 0.78127 0.1327 0.31409 0.0
H730 H 0.71881 0.09517 0.15406 0.0
H731 H 0.70831 0.073 0.19852 0.0
H732 H 0.73729 0.06614 0.16546 0.0
H733 H 0.72876 0.1712 0.26969 0.0
H734 H 0.75146 0.16721 0.31748 0.0
H735 H 0.71985 0.1524 0.31994 0.0
C736 C 0.36954 0.8372 0.32251 0.0
C737 C 0.37624 0.85729 0.29152 0.0
C738 C 0.37622 0.8114 0.31279 0.0
C739 C 0.38971 0.8055 0.27082 0.0
C740 C 0.39613 0.8256 0.23892 0.0
C741 C 0.38942 0.85129 0.24976 0.0
C742 C 0.36921 0.79052 0.34778 0.0
C743 C 0.41027 0.81998 0.19353 0.0
C744 C 0.43005 0.74414 0.26403 0.0
C745 C 0.41387 0.72766 0.23794 0.0
C746 C 0.42221 0.76936 0.27573 0.0
C747 C 0.39764 0.77837 0.2608 0.0
C748 C 0.38088 0.76162 0.23568 0.0
C749 C 0.38914 0.7364 0.22474 0.0
C750 C 0.44049 0.78658 0.30309 0.0
C751 C 0.35453 0.77058 0.21914 0.0
H752 H 0.35941 0.84165 0.35492 0.0
H753 H 0.39447 0.86667 0.22546 0.0
H754 H 0.3573 0.77535 0.33048 0.0
H755 H 0.38708 0.78098 0.3609 0.0
H756 H 0.35827 0.79827 0.37835 0.0
H757 H 0.41326 0.83771 0.17201 0.0
H758 H 0.42947 0.81126 0.20125 0.0
H759 H 0.3992 0.80568 0.17237 0.0
H760 H 0.44914 0.73752 0.27457 0.0
H761 H 0.3765 0.72385 0.20447 0.0
H762 H 0.43073 0.79412 0.33506 0.0
H763 H 0.44602 0.80356 0.28135 0.0
H764 H 0.45843 0.77626 0.31388 0.0
H765 H 0.343 0.77785 0.24932 0.0
H766 H 0.34345 0.75488 0.20148 0.0
H767 H 0.35681 0.78693 0.19412 0.0
C768 C 0.6643 0.37072 0.81765 0.0
C769 C 0.64334 0.37709 0.78832 0.0
C770 C 0.68975 0.37775 0.80586 0.0
C771 C 0.69446 0.39128 0.76344 0.0
C772 C 0.67348 0.39744 0.73325 0.0
C773 C 0.64814 0.39038 0.74615 0.0
C774 C 0.71155 0.37102 0.83918 0.0
C775 C 0.67779 0.41161 0.68743 0.0
C776 C 0.75575 0.4318 0.75395 0.0
C777 C 0.77211 0.4155 0.72784 0.0
C778 C 0.73052 0.42408 0.76598 0.0
C779 C 0.72131 0.39952 0.75132 0.0
C780 C 0.73779 0.38281 0.72552 0.0
C781 C 0.76304 0.39094 0.71428 0.0
C782 C 0.71363 0.44233 0.79402 0.0
C783 C 0.72862 0.3565 0.70916 0.0
H784 H 0.66081 0.36052 0.85037 0.0
H785 H 0.6321 0.3952 0.72311 0.0
H786 H 0.72636 0.35919 0.82076 0.0
H787 H 0.72126 0.38902 0.85135 0.0
H788 H 0.70468 0.36011 0.87046 0.0
H789 H 0.65946 0.41465 0.66765 0.0
H790 H 0.6868 0.43077 0.69431 0.0
H791 H 0.6914 0.40049 0.66493 0.0
H792 H 0.76259 0.45077 0.76472 0.0
H793 H 0.77546 0.37824 0.69392 0.0
H794 H 0.70708 0.43274 0.82686 0.0
H795 H 0.69602 0.44733 0.77351 0.0
H796 H 0.72386 0.46056 0.80346 0.0
H797 H 0.72248 0.34466 0.73976 0.0
H798 H 0.74387 0.34575 0.68964 0.0
H799 H 0.71147 0.35874 0.68596 0.0
C800 C 0.07371 0.76603 0.262 0.0
C801 C 0.08493 0.77792 0.22259 0.0
C802 C 0.08102 0.74084 0.27559 0.0
C803 C 0.10019 0.72741 0.24947 0.0
C804 C 0.11204 0.7396 0.21046 0.0
C805 C 0.10421 0.76461 0.19742 0.0
C806 C 0.06785 0.72838 0.31726 0.0
C807 C 0.13277 0.72609 0.18204 0.0
C808 C 0.1354 0.67063 0.30583 0.0
C809 C 0.12282 0.64928 0.28529 0.0
C810 C 0.12814 0.69613 0.2947 0.0
C811 C 0.10771 0.70046 0.26241 0.0
C812 C 0.09496 0.67905 0.24143 0.0
C813 C 0.10272 0.65373 0.25297 0.0
C814 C 0.14246 0.71845 0.31727 0.0
C815 C 0.07308 0.68289 0.2068 0.0
H816 H 0.05875 0.77612 0.28153 0.0
H817 H 0.11314 0.7737 0.16712 0.0
H818 H 0.05751 0.7106 0.30577 0.0
H819 H 0.08251 0.72239 0.34367 0.0
H820 H 0.05372 0.74158 0.33444 0.0
H821 H 0.14073 0.73863 0.15376 0.0
H822 H 0.14893 0.71999 0.20532 0.0
H823 H 0.1247 0.70829 0.16571 0.0
H824 H 0.15101 0.66744 0.3307 0.0
H825 H 0.09285 0.63741 0.23694 0.0
H826 H 0.12868 0.73091 0.33691 0.0
H827 H 0.15154 0.73068 0.28973 0.0
H828 H 0.15782 0.7118 0.34187 0.0
H829 H 0.05738 0.69444 0.22328 0.0
H830 H 0.06482 0.66421 0.19433 0.0
H831 H 0.08008 0.69395 0.17585 0.0
C832 C 0.83568 0.13205 0.8204 0.0
C833 C 0.85652 0.12555 0.79093 0.0
C834 C 0.81016 0.12511 0.80876 0.0
C835 C 0.80528 0.11155 0.76638 0.0
C836 C 0.82614 0.10538 0.73598 0.0
C837 C 0.85153 0.11234 0.74872 0.0
C838 C 0.78846 0.13188 0.84224 0.0
C839 C 0.82169 0.09118 0.69022 0.0
C840 C 0.74449 0.07031 0.75661 0.0
C841 C 0.72805 0.08629 0.73002 0.0
C842 C 0.76952 0.07845 0.76916 0.0
C843 C 0.77844 0.10312 0.75458 0.0
C844 C 0.76181 0.11957 0.72851 0.0
C845 C 0.73677 0.11101 0.71672 0.0
C846 C 0.78657 0.06046 0.79745 0.0
C847 C 0.77067 0.14599 0.71222 0.0
H848 H 0.83932 0.14222 0.85311 0.0
H849 H 0.86748 0.10743 0.72555 0.0
H850 H 0.77347 0.1435 0.82383 0.0
H851 H 0.77895 0.11389 0.85486 0.0
H852 H 0.79541 0.14302 0.87323 0.0
H853 H 0.83986 0.08865 0.66975 0.0
H854 H 0.8133 0.07176 0.69734 0.0
H855 H 0.80751 0.10191 0.66826 0.0
H856 H 0.73791 0.05123 0.76725 0.0
H857 H 0.72426 0.12348 0.69606 0.0
H858 H 0.79316 0.07027 0.83007 0.0
H859 H 0.80414 0.05542 0.7769 0.0
H860 H 0.77645 0.04223 0.80728 0.0
H861 H 0.77694 0.15781 0.74278 0.0
H862 H 0.7552 0.15666 0.69311 0.0
H863 H 0.78767 0.14391 0.68862 0.0
C864 C 0.59622 0.07114 0.05982 0.0
C865 C 0.58847 0.09716 0.05891 0.0
C866 C 0.6051 0.05888 0.0186 0.0
C867 C 0.60583 0.07298 0.97582 0.0
C868 C 0.59682 0.09891 0.97462 0.0
C869 C 0.58846 0.11069 0.01622 0.0
C870 C 0.61469 0.03128 0.02119 0.0
C871 C 0.59665 0.11451 0.9296 0.0
C872 C 0.64933 0.05989 0.8711 0.0
C873 C 0.63126 0.0503 0.83871 0.0
C874 C 0.64186 0.06539 0.91764 0.0
C875 C 0.61582 0.0611 0.93175 0.0
C876 C 0.59824 0.04925 0.90025 0.0
C877 C 0.60617 0.04402 0.85417 0.0
C878 C 0.66127 0.07767 0.95053 0.0
C879 C 0.57038 0.04419 0.91377 0.0
H880 H 0.5966 0.06085 0.09306 0.0
H881 H 0.58242 0.13084 0.01564 0.0
H882 H 0.60553 0.01931 0.99334 0.0
H883 H 0.63592 0.0309 0.01496 0.0
H884 H 0.61068 0.02228 0.05593 0.0
H885 H 0.5882 0.13415 0.9345 0.0
H886 H 0.61673 0.11672 0.91621 0.0
H887 H 0.58532 0.10424 0.90215 0.0
H888 H 0.66876 0.06462 0.85938 0.0
H889 H 0.59223 0.03606 0.8295 0.0
H890 H 0.66018 0.06865 0.98589 0.0
H891 H 0.65668 0.09857 0.95465 0.0
H892 H 0.68142 0.0759 0.93713 0.0
H893 H 0.56916 0.03544 0.94932 0.0
H894 H 0.5605 0.03115 0.88832 0.0
H895 H 0.55968 0.06286 0.91481 0.0
C896 C 0.42867 0.58608 0.55267 0.0
C897 C 0.40208 0.58056 0.55213 0.0
C898 C 0.44116 0.59509 0.51187 0.0
C899 C 0.42666 0.59819 0.46991 0.0
C900 C 0.40009 0.59131 0.46888 0.0
C901 C 0.38811 0.58279 0.51013 0.0
C902 C 0.46946 0.6024 0.51422 0.0
C903 C 0.38405 0.59372 0.42456 0.0
C904 C 0.44179 0.6442 0.37014 0.0
C905 C 0.44976 0.62669 0.33541 0.0
C906 C 0.43624 0.63551 0.41587 0.0
C907 C 0.43874 0.60879 0.42668 0.0
C908 C 0.44897 0.59154 0.39285 0.0
C909 C 0.45437 0.60071 0.34764 0.0
C910 C 0.42578 0.65454 0.45144 0.0
C911 C 0.45208 0.56296 0.40294 0.0
H912 H 0.43933 0.58471 0.58544 0.0
H913 H 0.36752 0.57845 0.50991 0.0
H914 H 0.48033 0.59343 0.48475 0.0
H915 H 0.47143 0.62373 0.51056 0.0
H916 H 0.47855 0.59642 0.54794 0.0
H917 H 0.36393 0.58648 0.42934 0.0
H918 H 0.38311 0.61433 0.41349 0.0
H919 H 0.39322 0.58267 0.39551 0.0
H920 H 0.43844 0.66432 0.36094 0.0
H921 H 0.46112 0.58716 0.32118 0.0
H922 H 0.43511 0.65157 0.48619 0.0
H923 H 0.40466 0.65131 0.45598 0.0
H924 H 0.42886 0.67496 0.44029 0.0
H925 H 0.46096 0.55982 0.43801 0.0
H926 H 0.46419 0.55311 0.376 0.0
H927 H 0.43269 0.55362 0.40328 0.0
C928 C 0.90382 0.42117 0.0551 0.0
C929 C 0.91437 0.39607 0.05442 0.0
C930 C 0.89405 0.43262 0.01389 0.0
C931 C 0.89499 0.4187 0.97102 0.0
C932 C 0.90603 0.39357 0.96995 0.0
C933 C 0.91557 0.38258 0.0116 0.0
C934 C 0.88247 0.45947 0.0163 0.0
C935 C 0.90766 0.37817 0.92479 0.0
C936 C 0.85216 0.43384 0.86567 0.0
C937 C 0.87 0.44583 0.83559 0.0
C938 C 0.8596 0.42604 0.91114 0.0
C939 C 0.88536 0.43056 0.92664 0.0
C940 C 0.90279 0.44429 0.89749 0.0
C941 C 0.89492 0.45169 0.85235 0.0
C942 C 0.84042 0.41157 0.9414 0.0
C943 C 0.93033 0.44972 0.91273 0.0
H944 H 0.90264 0.43168 0.08805 0.0
H945 H 0.92371 0.36321 0.01064 0.0
H946 H 0.89296 0.47268 0.99211 0.0
H947 H 0.86196 0.4589 0.00459 0.0
H948 H 0.88323 0.46774 0.05236 0.0
H949 H 0.91661 0.35879 0.93004 0.0
H950 H 0.88798 0.37545 0.90979 0.0
H951 H 0.91926 0.38896 0.89841 0.0
H952 H 0.83292 0.42922 0.85277 0.0
H953 H 0.9087 0.46128 0.82939 0.0
H954 H 0.84021 0.41962 0.97758 0.0
H955 H 0.84636 0.39094 0.94405 0.0
H956 H 0.82046 0.41237 0.92679 0.0
H957 H 0.93068 0.45831 0.94849 0.0
H958 H 0.94047 0.46309 0.88822 0.0
H959 H 0.94134 0.43126 0.91423 0.0
C960 C 0.0636 0.86362 0.36202 0.0
C961 C 0.06314 0.88239 0.32655 0.0
C962 C 0.07008 0.87052 0.40839 0.0
C963 C 0.0756 0.89681 0.41914 0.0
C964 C 0.07315 0.916 0.38393 0.0
C965 C 0.06725 0.90849 0.33792 0.0
C966 C 0.07282 0.84951 0.44497 0.0
C967 C 0.07838 0.94428 0.3941 0.0
C968 C 0.08311 0.91907 0.54587 0.0
C969 C 0.1102 0.91967 0.55045 0.0
C970 C 0.07142 0.91144 0.50342 0.0
C971 C 0.08723 0.90393 0.46508 0.0
C972 C 0.11455 0.90445 0.46957 0.0
C973 C 0.12567 0.9125 0.512 0.0
C974 C 0.04224 0.91162 0.49941 0.0
C975 C 0.1321 0.89652 0.42949 0.0
H976 H 0.06043 0.84344 0.35298 0.0
H977 H 0.06651 0.92303 0.31039 0.0
H978 H 0.09365 0.84681 0.45348 0.0
H979 H 0.06284 0.85513 0.47797 0.0
H980 H 0.06485 0.83068 0.43264 0.0
H981 H 0.07209 0.95703 0.36474 0.0
H982 H 0.06827 0.95043 0.42667 0.0
H983 H 0.09946 0.94721 0.39978 0.0
H984 H 0.07105 0.92461 0.57542 0.0
H985 H 0.14662 0.91274 0.5152 0.0
H986 H 0.03513 0.89207 0.48949 0.0
H987 H 0.0362 0.92516 0.47112 0.0
H988 H 0.0327 0.91758 0.53272 0.0
H989 H 0.12708 0.87669 0.41738 0.0
H990 H 0.15292 0.89684 0.43953 0.0
H991 H 0.12932 0.9098 0.39922 0.0
C992 C 0.59575 0.41703 0.9474 0.0
C993 C 0.58617 0.39155 0.94756 0.0
C994 C 0.60508 0.42859 0.98884 0.0
C995 C 0.60464 0.41439 0.03142 0.0
C996 C 0.59447 0.38889 0.032 0.0
C997 C 0.58541 0.37778 0.9901 0.0
C998 C 0.61577 0.45583 0.98697 0.0
C999 C 0.59335 0.37321 0.07686 0.0
C1000 C 0.64745 0.43004 0.13647 0.0
C1001 C 0.62943 0.44134 0.1671 0.0
C1002 C 0.64003 0.42234 0.09095 0.0
C1003 C 0.61409 0.42623 0.07593 0.0
C1004 C 0.5964 0.43926 0.10564 0.0
C1005 C 0.60427 0.44661 0.15083 0.0
C1006 C 0.65948 0.40865 0.06006 0.0
C1007 C 0.56866 0.444 0.09091 0.0
H1008 H 0.5966 0.42775 0.91465 0.0
H1009 H 0.57798 0.35812 0.99061 0.0
H1010 H 0.60505 0.46849 0.0118 0.0
H1011 H 0.63637 0.45582 0.99816 0.0
H1012 H 0.61448 0.46437 0.95117 0.0
H1013 H 0.5849 0.35362 0.07128 0.0
H1014 H 0.61312 0.37094 0.09165 0.0
H1015 H 0.58151 0.38352 0.10354 0.0
H1016 H 0.66688 0.4259 0.14892 0.0
H1017 H 0.59034 0.45569 0.17416 0.0
H1018 H 0.65936 0.41703 0.02413 0.0
H1019 H 0.65407 0.38789 0.05683 0.0
H1020 H 0.67946 0.40985 0.07447 0.0
H1021 H 0.5679 0.45277 0.05533 0.0
H1022 H 0.55826 0.45694 0.11583 0.0
H1023 H 0.55816 0.42524 0.08918 0.0
C1024 C 0.08185 0.60112 0.44344 0.0
C1025 C 0.10756 0.59219 0.44382 0.0
C1026 C 0.06993 0.60993 0.48486 0.0
C1027 C 0.08402 0.60963 0.52755 0.0
C1028 C 0.10976 0.6001 0.52834 0.0
C1029 C 0.12121 0.59153 0.48648 0.0
C1030 C 0.04243 0.61991 0.48285 0.0
C1031 C 0.12534 0.59917 0.57336 0.0
C1032 C 0.06813 0.65163 0.63312 0.0
C1033 C 0.05761 0.63318 0.66379 0.0
C1034 C 0.07544 0.64463 0.58724 0.0
C1035 C 0.07194 0.6187 0.57197 0.0
C1036 C 0.05947 0.6006 0.60165 0.0
C1037 C 0.05251 0.60806 0.64723 0.0
C1038 C 0.08853 0.6645 0.55635 0.0
C1039 C 0.05515 0.57284 0.58659 0.0
H1040 H 0.07121 0.60183 0.41058 0.0
H1041 H 0.14104 0.58456 0.48715 0.0
H1042 H 0.03002 0.60888 0.50763 0.0
H1043 H 0.04192 0.64051 0.49403 0.0
H1044 H 0.03397 0.61841 0.44701 0.0
H1045 H 0.14513 0.5912 0.56791 0.0
H1046 H 0.12713 0.61895 0.58841 0.0
H1047 H 0.11523 0.58701 0.59979 0.0
H1048 H 0.07209 0.67105 0.64583 0.0
H1049 H 0.04399 0.59381 0.67064 0.0
H1050 H 0.08013 0.66417 0.52042 0.0
H1051 H 0.10943 0.65972 0.55312 0.0
H1052 H 0.08675 0.68443 0.57083 0.0
H1053 H 0.04656 0.57204 0.55085 0.0
H1054 H 0.04223 0.56223 0.61123 0.0
H1055 H 0.07405 0.5626 0.58516 0.0
C1056 C 0.91619 0.12355 0.99157 0.0
C1057 C 0.91517 0.10981 0.94901 0.0
C1058 C 0.90743 0.11239 0.03356 0.0
C1059 C 0.89736 0.08685 0.03304 0.0
C1060 C 0.89676 0.07264 0.99048 0.0
C1061 C 0.90576 0.08427 0.94892 0.0
C1062 C 0.90866 0.12809 0.07842 0.0
C1063 C 0.88621 0.04535 0.98873 0.0
C1064 C 0.8978 0.05476 0.15241 0.0
C1065 C 0.87262 0.05999 0.16854 0.0
C1066 C 0.90568 0.06211 0.10726 0.0
C1067 C 0.88797 0.07508 0.07752 0.0
C1068 C 0.86204 0.07898 0.09243 0.0
C1069 C 0.85462 0.0713 0.13789 0.0
C1070 C 0.93343 0.05739 0.09258 0.0
C1071 C 0.84258 0.09265 0.06148 0.0
H1072 H 0.92352 0.14325 0.99202 0.0
H1073 H 0.90476 0.07356 0.91616 0.0
H1074 H 0.88891 0.1304 0.09332 0.0
H1075 H 0.92053 0.11778 0.10506 0.0
H1076 H 0.91711 0.14767 0.07281 0.0
H1077 H 0.88758 0.03673 0.953 0.0
H1078 H 0.89694 0.03279 0.01373 0.0
H1079 H 0.86558 0.0453 -0.00022 0.0
H1080 H 0.91174 0.04569 0.17576 0.0
H1081 H 0.83516 0.0754 0.15022 0.0
H1082 H 0.94391 0.07617 0.09085 0.0
H1083 H 0.9342 0.0486 0.05701 0.0
H1084 H 0.94385 0.04449 0.11754 0.0
H1085 H 0.84804 0.11338 0.05806 0.0
H1086 H 0.82261 0.09154 0.07594 0.0
H1087 H 0.84263 0.08417 0.02562 0.0
C1088 C 0.44565 0.89737 0.65023 0.0
C1089 C 0.4408 0.87181 0.66469 0.0
C1090 C 0.4381 0.90602 0.60568 0.0
C1091 C 0.42531 0.8887 0.57493 0.0
C1092 C 0.42167 0.86247 0.58821 0.0
C1093 C 0.42956 0.85427 0.63307 0.0
C1094 C 0.44254 0.93406 0.59263 0.0
C1095 C 0.40819 0.84345 0.55608 0.0
C1096 C 0.37741 0.9176 0.48875 0.0
C1097 C 0.39155 0.91704 0.44663 0.0
C1098 C 0.38826 0.90851 0.53078 0.0
C1099 C 0.41387 0.89863 0.53066 0.0
C1100 C 0.42849 0.89859 0.4886 0.0
C1101 C 0.41717 0.90787 0.44705 0.0
C1102 C 0.37216 0.9091 0.57518 0.0
C1103 C 0.45589 0.88829 0.48735 0.0
H1104 H 0.45466 0.91094 0.67438 0.0
H1105 H 0.42575 0.83453 0.64419 0.0
H1106 H 0.45164 0.93551 0.55739 0.0
H1107 H 0.42365 0.9443 0.59083 0.0
H1108 H 0.45508 0.94426 0.6185 0.0
H1109 H 0.40913 0.82328 0.56968 0.0
H1110 H 0.3875 0.849 0.55231 0.0
H1111 H 0.41695 0.84396 0.52047 0.0
H1112 H 0.35764 0.92473 0.48879 0.0
H1113 H 0.42822 0.90728 0.41464 0.0
H1114 H 0.38222 0.9206 0.60268 0.0
H1115 H 0.36976 0.88915 0.58908 0.0
H1116 H 0.35263 0.91761 0.56934 0.0
H1117 H 0.46812 0.8988 0.51319 0.0
H1118 H 0.46485 0.89018 0.45199 0.0
H1119 H 0.45601 0.86753 0.49754 0.0
C1120 C 0.4087 0.91592 0.94803 0.0
C1121 C 0.41739 0.89011 0.94791 0.0
C1122 C 0.39915 0.92746 0.98919 0.0
C1123 C 0.39853 0.91294 0.03134 0.0
C1124 C 0.40789 0.88712 0.03182 0.0
C1125 C 0.41715 0.87599 0.99006 0.0
C1126 C 0.38933 0.95503 0.98741 0.0
C1127 C 0.40789 0.87116 0.07638 0.0
C1128 C 0.39796 0.9462 0.14971 0.0
C1129 C 0.3723 0.94217 0.16445 0.0
C1130 C 0.40646 0.93772 0.10564 0.0
C1131 C 0.38886 0.92491 0.07544 0.0
C1132 C 0.36252 0.92217 0.08885 0.0
C1133 C 0.3545 0.93091 0.13336 0.0
C1134 C 0.43464 0.94122 0.09256 0.0
C1135 C 0.34317 0.90881 0.05722 0.0
H1136 H 0.40865 0.92697 0.91562 0.0
H1137 H 0.42384 0.85606 0.9903 0.0
H1138 H 0.36862 0.95561 0.99788 0.0
H1139 H 0.40019 0.96724 0.01281 0.0
H1140 H 0.39124 0.96371 0.95182 0.0
H1141 H 0.41592 0.8514 0.07086 0.0
H1142 H 0.41953 0.88103 0.10391 0.0
H1143 H 0.38783 0.86931 0.09006 0.0
H1144 H 0.41176 0.95521 0.17343 0.0
H1145 H 0.33469 0.92769 0.14473 0.0
H1146 H 0.43637 0.95014 0.05721 0.0
H1147 H 0.44428 0.922 0.09098 0.0
H1148 H 0.44523 0.95353 0.11826 0.0
H1149 H 0.34393 0.91715 0.02128 0.0
H1150 H 0.32303 0.91046 0.07073 0.0
H1151 H 0.34817 0.88795 0.05426 0.0
C1152 C 0.6195 0.41374 0.49083 0.0
C1153 C 0.6058 0.41316 0.4482 0.0
C1154 C 0.60833 0.4045 0.53249 0.0
C1155 C 0.58282 0.39434 0.53156 0.0
C1156 C 0.56867 0.39413 0.48892 0.0
C1157 C 0.58029 0.40364 0.44772 0.0
C1158 C 0.62396 0.40537 0.57745 0.0
C1159 C 0.54144 0.38345 0.48668 0.0
C1160 C 0.56737 0.35095 0.63574 0.0
C1161 C 0.55611 0.36881 0.66672 0.0
C1162 C 0.57494 0.3586 0.5903 0.0
C1163 C 0.57096 0.3846 0.57578 0.0
C1164 C 0.55791 0.40211 0.60581 0.0
C1165 C 0.55067 0.394 0.65089 0.0
C1166 C 0.58864 0.33934 0.55903 0.0
C1167 C 0.5531 0.42992 0.59161 0.0
H1168 H 0.63918 0.42112 0.49157 0.0
H1169 H 0.56963 0.40293 0.41489 0.0
H1170 H 0.6136 0.41701 0.60434 0.0
H1171 H 0.62626 0.38551 0.59183 0.0
H1172 H 0.64353 0.41388 0.57216 0.0
H1173 H 0.5329 0.38504 0.45092 0.0
H1174 H 0.54147 0.36274 0.49723 0.0
H1175 H 0.52877 0.39393 0.51183 0.0
H1176 H 0.57164 0.33149 0.64788 0.0
H1177 H 0.54161 0.4078 0.67451 0.0
H1178 H 0.60941 0.34474 0.55605 0.0
H1179 H 0.58031 0.33971 0.52306 0.0
H1180 H 0.5874 0.31926 0.57297 0.0
H1181 H 0.57182 0.44049 0.59025 0.0
H1182 H 0.54009 0.44013 0.61666 0.0
H1183 H 0.54438 0.43086 0.55599 0.0
C1184 C 0.08934 0.62286 0.9861 0.0
C1185 C 0.08989 0.60906 0.94358 0.0
C1186 C 0.09828 0.61167 0.02794 0.0
C1187 C 0.10809 0.58603 0.02732 0.0
C1188 C 0.10833 0.5718 0.98477 0.0
C1189 C 0.09913 0.58346 0.94336 0.0
C1190 C 0.09739 0.6274 0.07279 0.0
C1191 C 0.11864 0.54442 0.9829 0.0
C1192 C 0.15034 0.57086 0.13304 0.0
C1193 C 0.132 0.56028 0.16385 0.0
C1194 C 0.14326 0.57794 0.08705 0.0
C1195 C 0.11734 0.57415 0.07184 0.0
C1196 C 0.09939 0.56161 0.1017 0.0
C1197 C 0.10693 0.55487 0.14734 0.0
C1198 C 0.16298 0.5911 0.05598 0.0
C1199 C 0.07166 0.55698 0.08675 0.0
H1200 H 0.08215 0.64262 0.98664 0.0
H1201 H 0.09981 0.57273 0.9106 0.0
H1202 H 0.08538 0.61728 0.09946 0.0
H1203 H 0.11719 0.62939 0.0876 0.0
H1204 H 0.08925 0.64711 0.0672 0.0
H1205 H 0.11721 0.53588 0.94712 0.0
H1206 H 0.13926 0.54417 0.99406 0.0
H1207 H 0.10778 0.53193 0.00778 0.0
H1208 H 0.16972 0.57507 0.14571 0.0
H1209 H 0.09278 0.54629 0.17087 0.0
H1210 H 0.15807 0.61197 0.05268 0.0
H1211 H 0.16265 0.58265 0.0201 0.0
H1212 H 0.18295 0.58948 0.07037 0.0
H1213 H 0.06125 0.57579 0.08506 0.0
H1214 H 0.06117 0.54409 0.11161 0.0
H1215 H 0.07091 0.54823 0.05115 0.0
C1216 C 0.88342 0.08371 0.49321 0.0
C1217 C 0.89678 0.08504 0.45033 0.0
C1218 C 0.89434 0.09362 0.53461 0.0
C1219 C 0.91922 0.10523 0.5331 0.0
C1220 C 0.93311 0.10607 0.49023 0.0
C1221 C 0.92177 0.09585 0.44934 0.0
C1222 C 0.87906 0.09202 0.57987 0.0
C1223 C 0.95966 0.11831 0.48739 0.0
C1224 C 0.93216 0.14989 0.63657 0.0
C1225 C 0.94445 0.13282 0.66766 0.0
C1226 C 0.92512 0.14166 0.59117 0.0
C1227 C 0.93069 0.1159 0.57692 0.0
C1228 C 0.9449 0.09936 0.607 0.0
C1229 C 0.95158 0.10802 0.652 0.0
C1230 C 0.9102 0.15992 0.55975 0.0
C1231 C 0.95144 0.07185 0.59307 0.0
H1232 H 0.86415 0.07534 0.49429 0.0
H1233 H 0.93214 0.09715 0.41627 0.0
H1234 H 0.89031 0.08125 0.60679 0.0
H1235 H 0.87554 0.11179 0.5939 0.0
H1236 H 0.86005 0.08222 0.57508 0.0
H1237 H 0.9682 0.11677 0.45163 0.0
H1238 H 0.95839 0.13911 0.49707 0.0
H1239 H 0.97299 0.10896 0.51287 0.0
H1240 H 0.92662 0.16905 0.64865 0.0
H1241 H 0.96147 0.09489 0.6758 0.0
H1242 H 0.88976 0.15335 0.55722 0.0
H1243 H 0.91836 0.1598 0.52366 0.0
H1244 H 0.91039 0.18012 0.57333 0.0
H1245 H 0.93344 0.06006 0.59243 0.0
H1246 H 0.96532 0.06269 0.61792 0.0
H1247 H 0.95988 0.07128 0.55722 0.0
C1248 C 0.40499 0.56449 0.84145 0.0
C1249 C 0.3786 0.56341 0.83001 0.0
C1250 C 0.41312 0.57118 0.88679 0.0
C1251 C 0.39436 0.57752 0.92117 0.0
C1252 C 0.36759 0.57515 0.91043 0.0
C1253 C 0.35998 0.56785 0.86479 0.0
C1254 C 0.44181 0.57297 0.89698 0.0
C1255 C 0.34705 0.58195 0.94613 0.0
C1256 C 0.41637 0.58482 0.04806 0.0
C1257 C 0.42007 0.61174 0.05135 0.0
C1258 C 0.40789 0.57334 0.00598 0.0
C1259 C 0.40287 0.58917 0.9664 0.0
C1260 C 0.40689 0.61629 0.96928 0.0
C1261 C 0.41555 0.62721 0.0116 0.0
C1262 C 0.40422 0.54432 0.0039 0.0
C1263 C 0.40183 0.63384 0.92771 0.0
H1264 H 0.41933 0.56089 0.81432 0.0
H1265 H 0.33959 0.56718 0.85556 0.0
H1266 H 0.44745 0.59362 0.90094 0.0
H1267 H 0.44653 0.56303 0.93051 0.0
H1268 H 0.45371 0.5643 0.86845 0.0
H1269 H 0.3273 0.57652 0.93399 0.0
H1270 H 0.35099 0.57213 0.98008 0.0
H1271 H 0.34743 0.60315 0.95282 0.0
H1272 H 0.41981 0.57269 0.07855 0.0
H1273 H 0.41828 0.64802 0.01372 0.0
H1274 H 0.41658 0.53596 0.9758 0.0
H1275 H 0.38381 0.53969 0.99485 0.0
H1276 H 0.4091 0.53471 0.03773 0.0
H1277 H 0.41454 0.6283 0.89789 0.0
H1278 H 0.40531 0.65459 0.9361 0.0
H1279 H 0.38148 0.63159 0.9157 0.0
C1280 C 0.93231 0.35524 0.3662 0.0
C1281 C 0.94414 0.37301 0.33581 0.0
C1282 C 0.92466 0.36282 0.41169 0.0
C1283 C 0.92918 0.38864 0.42686 0.0
C1284 C 0.94284 0.40598 0.39742 0.0
C1285 C 0.95008 0.39798 0.35227 0.0
C1286 C 0.91026 0.34373 0.44226 0.0
C1287 C 0.9483 0.43357 0.4123 0.0
C1288 C 0.88102 0.41903 0.51123 0.0
C1289 C 0.89442 0.41797 0.55416 0.0
C1290 C 0.89211 0.40943 0.46973 0.0
C1291 C 0.91727 0.39846 0.47106 0.0
C1292 C 0.93114 0.39772 0.51401 0.0
C1293 C 0.91958 0.40756 0.55507 0.0
C1294 C 0.87677 0.41085 0.42449 0.0
C1295 C 0.95801 0.38624 0.51669 0.0
H1296 H 0.92763 0.33597 0.35351 0.0
H1297 H 0.95956 0.41169 0.32903 0.0
H1298 H 0.91831 0.34373 0.47845 0.0
H1299 H 0.8896 0.3496 0.44478 0.0
H1300 H 0.91114 0.3237 0.42797 0.0
H1301 H 0.96174 0.44357 0.38772 0.0
H1302 H 0.92985 0.44462 0.4135 0.0
H1303 H 0.95681 0.43407 0.44811 0.0
H1304 H 0.86161 0.42707 0.5101 0.0
H1305 H 0.93002 0.40648 0.58809 0.0
H1306 H 0.87406 0.3911 0.40979 0.0
H1307 H 0.88758 0.42233 0.39797 0.0
H1308 H 0.85738 0.41982 0.42952 0.0
H1309 H 0.95747 0.36562 0.50555 0.0
H1310 H 0.9663 0.38731 0.55271 0.0
H1311 H 0.97119 0.39654 0.49217 0.0
C1312 C 0.14551 0.94305 0.86682 0.0
C1313 C 0.12827 0.95241 0.83281 0.0
C1314 C 0.13675 0.93742 0.91252 0.0
C1315 C 0.11026 0.94127 0.92396 0.0
C1316 C 0.09347 0.95296 0.89094 0.0
C1317 C 0.10271 0.95843 0.84582 0.0
C1318 C 0.15534 0.92546 0.94728 0.0
C1319 C 0.06515 0.95753 0.90165 0.0
C1320 C 0.08182 0.89114 0.00598 0.0
C1321 C 0.08035 0.90481 0.0484 0.0
C1322 C 0.09087 0.9031 0.96503 0.0
C1323 C 0.09918 0.92925 0.96689 0.0
C1324 C 0.09694 0.94345 0.00937 0.0
C1325 C 0.08729 0.93105 0.04976 0.0
C1326 C 0.09226 0.88744 0.92013 0.0
C1327 C 0.10588 0.97125 0.0127 0.0
H1328 H 0.16531 0.93856 0.85696 0.0
H1329 H 0.08942 0.96626 0.81986 0.0
H1330 H 0.153 0.93441 0.9825 0.0
H1331 H 0.15101 0.90447 0.95085 0.0
H1332 H 0.17584 0.92761 0.93595 0.0
H1333 H 0.05588 0.97054 0.87543 0.0
H1334 H 0.05474 0.93869 0.90128 0.0
H1335 H 0.06266 0.96608 0.93715 0.0
H1336 H 0.07649 0.87079 0.00522 0.0
H1337 H 0.08659 0.94142 0.08292 0.0
H1338 H 0.11276 0.88542 0.90889 0.0
H1339 H 0.08173 0.89757 0.89149 0.0
H1340 H 0.08386 0.86773 0.92424 0.0
H1341 H 0.12729 0.97201 0.00901 0.0
H1342 H 0.10047 0.9803 0.04678 0.0
H1343 H 0.09754 0.98296 0.98369 0.0
C1344 C 0.61058 0.06832 0.51622 0.0
C1345 C 0.60501 0.08122 0.55829 0.0
C1346 C 0.6005 0.07723 0.47334 0.0
C1347 C 0.58545 0.10023 0.47246 0.0
C1348 C 0.57924 0.11294 0.51515 0.0
C1349 C 0.58877 0.10299 0.55774 0.0
C1350 C 0.60689 0.06264 0.42877 0.0
C1351 C 0.56407 0.13796 0.51558 0.0
C1352 C 0.59205 0.1357 0.35658 0.0
C1353 C 0.56864 0.12954 0.33444 0.0
C1354 C 0.59699 0.1277 0.40281 0.0
C1355 C 0.5785 0.11217 0.42654 0.0
C1356 C 0.55442 0.10658 0.40472 0.0
C1357 C 0.54958 0.11579 0.35904 0.0
C1358 C 0.62253 0.13489 0.42534 0.0
C1359 C 0.53457 0.08937 0.4281 0.0
H1360 H 0.6232 0.0515 0.51682 0.0
H1361 H 0.58486 0.1132 0.59034 0.0
H1362 H 0.58914 0.05974 0.40731 0.0
H1363 H 0.62074 0.07409 0.40733 0.0
H1364 H 0.61573 0.04342 0.43613 0.0
H1365 H 0.55902 0.14423 0.55183 0.0
H1366 H 0.57576 0.15347 0.49877 0.0
H1367 H 0.54595 0.13594 0.49489 0.0
H1368 H 0.60678 0.14625 0.33719 0.0
H1369 H 0.53162 0.11079 0.34145 0.0
H1370 H 0.63502 0.11745 0.42801 0.0
H1371 H 0.61936 0.1423 0.46154 0.0
H1372 H 0.63311 0.14986 0.40482 0.0
H1373 H 0.54201 0.06919 0.42911 0.0
H1374 H 0.51576 0.08942 0.40904 0.0
H1375 H 0.53119 0.09551 0.46496 0.0
C1376 C 0.39811 0.03385 0.30559 0.0
C1377 C 0.40119 0.00788 0.29249 0.0
C1378 C 0.41605 0.05277 0.29068 0.0
C1379 C 0.43681 0.04556 0.26061 0.0
C1380 C 0.43926 0.01941 0.24609 0.0
C1381 C 0.42171 1.00088 0.26287 0.0
C1382 C 0.41322 0.08028 0.30799 0.0
C1383 C 0.46061 0.01088 0.21317 0.0
C1384 C 0.47591 0.0955 0.19122 0.0
C1385 C 0.49921 0.09566 0.21653 0.0
C1386 C 0.45503 0.0797 0.20559 0.0
C1387 C 0.45731 0.06458 0.24712 0.0
C1388 C 0.48041 0.06578 0.27386 0.0
C1389 C 0.50117 0.08085 0.25776 0.0
C1390 C 0.43101 0.07835 0.17539 0.0
C1391 C 0.48352 0.05064 0.31901 0.0
H1392 H 0.38201 0.03921 0.32807 0.0
H1393 H 0.42379 0.98082 0.25211 0.0
H1394 H 0.43045 0.08567 0.32924 0.0
H1395 H 0.41234 0.09386 0.27781 0.0
H1396 H 0.39558 0.08294 0.32987 0.0
H1397 H 0.45811 0.9905 0.2013 0.0
H1398 H 0.46121 0.02362 0.18175 0.0
H1399 H 0.47964 0.01256 0.23112 0.0
H1400 H 0.47435 0.107 0.15944 0.0
H1401 H 0.51903 0.08118 0.27785 0.0
H1402 H 0.41347 0.0821 0.19687 0.0
H1403 H 0.42906 0.05854 0.16054 0.0
H1404 H 0.43157 0.09248 0.14591 0.0
H1405 H 0.46668 0.05403 0.34249 0.0
H1406 H 0.50152 0.05595 0.33822 0.0
H1407 H 0.48416 0.02958 0.3111 0.0
C1408 C 0.47329 0.38959 0.76153 0.0
C1409 C 0.48985 0.39603 0.79912 0.0
C1410 C 0.45456 0.40707 0.7449 0.0
C1411 C 0.45171 0.43146 0.76702 0.0
C1412 C 0.46715 0.43748 0.80688 0.0
C1413 C 0.48625 0.41983 0.82212 0.0
C1414 C 0.43896 0.40003 0.70176 0.0
C1415 C 0.46423 0.46302 0.83226 0.0
C1416 C 0.42776 0.48933 0.6963 0.0
C1417 C 0.40166 0.49082 0.70971 0.0
C1418 C 0.44398 0.46961 0.71351 0.0
C1419 C 0.43408 0.45138 0.74619 0.0
C1420 C 0.40755 0.45244 0.75903 0.0
C1421 C 0.39156 0.47197 0.74015 0.0
C1422 C 0.47191 0.46874 0.69768 0.0
C1423 C 0.39635 0.43372 0.79441 0.0
H1424 H 0.47587 0.37136 0.74316 0.0
H1425 H 0.49884 0.42499 0.8512 0.0
H1426 H 0.41797 0.40296 0.70828 0.0
H1427 H 0.44452 0.41294 0.67221 0.0
H1428 H 0.44211 0.37961 0.6907 0.0
H1429 H 0.47546 0.46354 0.8656 0.0
H1430 H 0.47111 0.479 0.80933 0.0
H1431 H 0.44351 0.46678 0.84027 0.0
H1432 H 0.43565 0.504 0.67303 0.0
H1433 H 0.37154 0.47341 0.75144 0.0
H1434 H 0.47676 0.44913 0.68424 0.0
H1435 H 0.48488 0.47269 0.72798 0.0
H1436 H 0.47609 0.48316 0.66967 0.0
H1437 H 0.40007 0.41343 0.78336 0.0
H1438 H 0.37514 0.43637 0.79913 0.0
H1439 H 0.40602 0.43654 0.82891 0.0
C1440 C 0.02734 0.39781 0.24058 0.0
C1441 C 0.00898 0.40512 0.20645 0.0
C1442 C 0.04562 0.4155 0.25808 0.0
C1443 C 0.0461 0.44111 0.24042 0.0
C1444 C 0.02845 0.44839 0.20449 0.0
C1445 C 0.00994 0.43039 0.18821 0.0
C1446 C 0.06389 0.40696 0.29664 0.0
C1447 C 0.02878 0.47537 0.18395 0.0
C1448 C 0.07657 0.49483 0.31449 0.0
C1449 C 0.10132 0.49691 0.29435 0.0
C1450 C 0.05853 0.47648 0.29783 0.0
C1451 C 0.0652 0.46016 0.25954 0.0
C1452 C 0.09029 0.4618 0.23977 0.0
C1453 C 0.10808 0.47987 0.2577 0.0
C1454 C 0.03215 0.47488 0.32062 0.0
C1455 C 0.09814 0.445 0.19862 0.0
H1456 H 0.02684 0.37843 0.25525 0.0
H1457 H 0.9959 0.43628 0.16195 0.0
H1458 H 0.08429 0.40979 0.28545 0.0
H1459 H 0.06081 0.41905 0.32844 0.0
H1460 H 0.06115 0.38628 0.30635 0.0
H1461 H 0.0147 0.47761 0.15465 0.0
H1462 H 0.02403 0.48974 0.21169 0.0
H1463 H 0.04847 0.48009 0.17075 0.0
H1464 H 0.07111 0.5079 0.34267 0.0
H1465 H 0.12701 0.48134 0.24142 0.0
H1466 H 0.0283 0.45474 0.33245 0.0
H1467 H 0.01693 0.47995 0.29462 0.0
H1468 H 0.03035 0.48809 0.35132 0.0
H1469 H 0.09611 0.42421 0.2079 0.0
H1470 H 0.11844 0.44858 0.18733 0.0
H1471 H 0.08508 0.44875 0.16835 0.0
C1472 C 0.07523 0.0146 0.6847 0.0
C1473 C 0.10066 0.01367 0.70218 0.0
C1474 C 0.05724 0.03278 0.70212 0.0
C1475 C 0.06474 0.0501 0.73842 0.0
C1476 C 0.09054 0.04975 0.75518 0.0
C1477 C 0.1082 0.03184 0.73651 0.0
C1478 C 0.03005 0.03304 0.68249 0.0
C1479 C 0.0993 0.0677 0.79409 0.0
C1480 C 0.02573 0.1115 0.75888 0.0
C1481 C 0.00905 0.10423 0.79575 0.0
C1482 C 0.04374 0.09407 0.73985 0.0
C1483 C 0.04574 0.06881 0.75876 0.0
C1484 C 0.02986 0.06161 0.79733 0.0
C1485 C 0.01151 0.07932 0.81508 0.0
C1486 C 0.06007 0.10245 0.69844 0.0
C1487 C 0.03192 0.03503 0.81923 0.0
H1488 H 0.06915 1.00069 0.65832 0.0
H1489 H 0.12773 0.03138 0.75057 0.0
H1490 H 0.01604 0.02775 0.71048 0.0
H1491 H 0.02495 0.05284 0.67028 0.0
H1492 H 0.02766 0.01933 0.65266 0.0
H1493 H 0.12011 0.06512 0.80296 0.0
H1494 H 0.0961 0.08819 0.78378 0.0
H1495 H 0.08761 0.0641 0.8262 0.0
H1496 H 0.024 0.13059 0.74326 0.0
H1497 H 0.99873 0.07347 0.84341 0.0
H1498 H 0.05612 0.08965 0.66788 0.0
H1499 H 0.08096 0.10053 0.70699 0.0
H1500 H 0.0562 0.12282 0.68789 0.0
H1501 H 0.02664 0.02003 0.79295 0.0
H1502 H 0.01909 0.03284 0.85035 0.0
H1503 H 0.05222 0.03121 0.83019 0.0
C1504 C 0.6098 0.96822 0.73878 0.0
C1505 C 0.60136 0.98723 0.70677 0.0
C1506 C 0.59288 0.94912 0.75581 0.0
C1507 C 0.56691 0.94859 0.73989 0.0
C1508 C 0.55858 0.96678 0.70571 0.0
C1509 C 0.57584 0.98599 0.68976 0.0
C1510 C 0.60251 0.9302 0.79239 0.0
C1511 C 0.53115 0.96647 0.68711 0.0
C1512 C 0.52709 0.88726 0.7562 0.0
C1513 C 0.51065 0.89408 0.79367 0.0
C1514 C 0.54567 0.90465 0.73876 0.0
C1515 C 0.54833 0.92936 0.75979 0.0
C1516 C 0.53287 0.93587 0.79929 0.0
C1517 C 0.51409 0.91823 0.81556 0.0
C1518 C 0.56162 0.897 0.69642 0.0
C1519 C 0.53558 0.96182 0.82338 0.0
H1520 H 0.62943 0.9689 0.75234 0.0
H1521 H 0.5691 1.0005 0.66504 0.0
H1522 H 0.59176 0.93315 0.82576 0.0
H1523 H 0.59884 0.90998 0.78086 0.0
H1524 H 0.62357 0.93245 0.79956 0.0
H1525 H 0.52818 0.98081 0.65846 0.0
H1526 H 0.52622 0.94689 0.67361 0.0
H1527 H 0.51742 0.9709 0.71603 0.0
H1528 H 0.52463 0.86873 0.73875 0.0
H1529 H 0.50157 0.9237 0.84451 0.0
H1530 H 0.58258 0.8994 0.70398 0.0
H1531 H 0.55688 0.90994 0.66645 0.0
H1532 H 0.55808 0.87663 0.68549 0.0
H1533 H 0.55609 0.96526 0.83336 0.0
H1534 H 0.52336 0.96326 0.85545 0.0
H1535 H 0.52987 0.97752 0.7988 0.0
C1536 C 0.61015 0.52588 0.26077 0.0
C1537 C 0.60223 0.50866 0.29633 0.0
C1538 C 0.59319 0.54449 0.24224 0.0
C1539 C 0.56776 0.54648 0.26036 0.0
C1540 C 0.55996 0.53011 0.29784 0.0
C1541 C 0.57721 0.51123 0.31513 0.0
C1542 C 0.6022 0.56137 0.20202 0.0
C1543 C 0.53316 0.53214 0.3189 0.0
C1544 C 0.53087 0.60912 0.23962 0.0
C1545 C 0.51297 0.6019 0.20462 0.0
C1546 C 0.54878 0.59133 0.25788 0.0
C1547 C 0.54938 0.56576 0.24003 0.0
C1548 C 0.53242 0.55866 0.20293 0.0
C1549 C 0.51426 0.57675 0.1859 0.0
C1550 C 0.56636 0.59964 0.29766 0.0
C1551 C 0.53296 0.53173 0.18215 0.0
H1552 H 0.62937 0.52413 0.2457 0.0
H1553 H 0.57087 0.49806 0.34252 0.0
H1554 H 0.58993 0.55778 0.17063 0.0
H1555 H 0.60008 0.58215 0.21132 0.0
H1556 H 0.62275 0.55768 0.19243 0.0
H1557 H 0.53056 0.51901 0.3495 0.0
H1558 H 0.52935 0.55235 0.33038 0.0
H1559 H 0.51841 0.52721 0.29193 0.0
H1560 H 0.53014 0.62843 0.25458 0.0
H1561 H 0.50057 0.57094 0.15894 0.0
H1562 H 0.58694 0.59629 0.28813 0.0
H1563 H 0.56224 0.58779 0.32935 0.0
H1564 H 0.56388 0.62043 0.30689 0.0
H1565 H 0.55291 0.52679 0.17061 0.0
H1566 H 0.51964 0.52973 0.15164 0.0
H1567 H 0.52729 0.51737 0.2093 0.0
C1568 C 0.89355 0.52986 0.74319 0.0
C1569 C 0.9007 0.51235 0.70751 0.0
C1570 C 0.91116 0.54815 0.761 0.0
C1571 C 0.93649 0.54949 0.74217 0.0
C1572 C 0.94354 0.53273 0.70474 0.0
C1573 C 0.92565 0.51422 0.68811 0.0
C1574 C 0.90289 0.56547 0.80115 0.0
C1575 C 0.97021 0.53395 0.68298 0.0
C1576 C 0.97541 0.61129 0.76096 0.0
C1577 C 0.99328 0.60381 0.7958 0.0
C1578 C 0.95684 0.59388 0.74343 0.0
C1579 C 0.95559 0.56843 0.76174 0.0
C1580 C 0.97268 0.56108 0.7985 0.0
C1581 C 0.99146 0.57877 0.81483 0.0
C1582 C 0.93918 0.60248 0.704 0.0
C1583 C 0.97155 0.53428 0.81975 0.0
H1584 H 0.87443 0.52861 0.75879 0.0
H1585 H 0.93141 0.50084 0.66064 0.0
H1586 H 0.91531 0.56174 0.83229 0.0
H1587 H 0.90547 0.58613 0.79144 0.0
H1588 H 0.88233 0.56235 0.81131 0.0
H1589 H 0.97225 0.52054 0.65263 0.0
H1590 H 0.97441 0.55398 0.67093 0.0
H1591 H 0.98504 0.52887 0.70969 0.0
H1592 H 0.9766 0.63049 0.74566 0.0
H1593 H 0.00512 0.57275 0.84166 0.0
H1594 H 0.9186 0.59978 0.71416 0.0
H1595 H 0.94268 0.59034 0.6724 0.0
H1596 H 0.94219 0.62313 0.69435 0.0
H1597 H 0.95159 0.53 0.83205 0.0
H1598 H 0.98512 0.53205 0.84984 0.0
H1599 H 0.9765 0.51961 0.79266 0.0
C1600 C 0.9201 0.98565 0.32121 0.0
C1601 C 0.89624 0.99005 0.29892 0.0
C1602 C 0.93709 0.96624 0.30509 0.0
C1603 C 0.93028 0.95119 0.26518 0.0
C1604 C 0.90565 0.95457 0.24421 0.0
C1605 C 0.88885 0.97371 0.26161 0.0
C1606 C 0.96293 0.96276 0.32925 0.0
C1607 C 0.89772 0.93924 0.20127 0.0
C1608 C 0.98761 0.92849 0.19211 0.0
C1609 C 0.98978 0.90242 0.20543 0.0
C1610 C 0.96765 0.94421 0.20981 0.0
C1611 C 0.94984 0.93382 0.24273 0.0
C1612 C 0.9514 0.90725 0.25508 0.0
C1613 C 0.97121 0.89177 0.23583 0.0
C1614 C 0.96626 0.97223 0.19459 0.0
C1615 C 0.93309 0.89554 0.29061 0.0
H1616 H 0.92595 0.99802 0.35018 0.0
H1617 H 0.8705 0.97685 0.24393 0.0
H1618 H 0.96661 0.94193 0.3363 0.0
H1619 H 0.97866 0.96979 0.3059 0.0
H1620 H 0.96399 0.97359 0.36298 0.0
H1621 H 0.87699 0.94221 0.19208 0.0
H1622 H 0.90975 0.9453 0.17084 0.0
H1623 H 0.90112 0.91824 0.20682 0.0
H1624 H 0.00203 0.93678 0.1688 0.0
H1625 H 0.97314 0.87176 0.24696 0.0
H1626 H 0.97058 0.98504 0.22496 0.0
H1627 H 0.94641 0.97699 0.18226 0.0
H1628 H 0.9802 0.97672 0.16595 0.0
H1629 H 0.93669 0.90436 0.32562 0.0
H1630 H 0.9355 0.8742 0.2936 0.0
H1631 H 0.91268 0.89981 0.28108 0.0
C1632 C 0.53306 0.19132 0.0299 0.0
C1633 C 0.52463 0.19313 0.07675 0.0
C1634 C 0.52726 0.21076 0.99713 0.0
C1635 C 0.51209 0.23231 0.01115 0.0
C1636 C 0.50054 0.23239 0.05635 0.0
C1637 C 0.50717 0.21292 0.08893 0.0
C1638 C 0.5399 0.20961 0.94923 0.0
C1639 C 0.48308 0.25423 0.0718 0.0
C1640 C 0.54035 0.29313 0.95896 0.0
C1641 C 0.52644 0.2954 0.9168 0.0
C1642 C 0.53442 0.2739 0.99186 0.0
C1643 C 0.51366 0.25662 0.98287 0.0
C1644 C 0.49766 0.26067 0.94289 0.0
C1645 C 0.50437 0.27999 0.90991 0.0
C1646 C 0.55204 0.27062 0.03398 0.0
C1647 C 0.47463 0.2435 0.93304 0.0
H1648 H 0.546 0.17575 0.01966 0.0
H1649 H 0.50008 0.21427 0.12473 0.0
H1650 H 0.52551 0.21367 0.92123 0.0
H1651 H 0.55523 0.22467 0.94696 0.0
H1652 H 0.5489 0.19043 0.94215 0.0
H1653 H 0.47018 0.24811 0.10104 0.0
H1654 H 0.49506 0.27069 0.08442 0.0
H1655 H 0.47099 0.2613 0.04213 0.0
H1656 H 0.55712 0.30542 0.96483 0.0
H1657 H 0.49342 0.28179 0.87752 0.0
H1658 H 0.56283 0.25207 0.03092 0.0
H1659 H 0.54054 0.26981 0.06685 0.0
H1660 H 0.56634 0.28664 0.0372 0.0
H1661 H 0.48107 0.22623 0.91294 0.0
H1662 H 0.45991 0.25382 0.9115 0.0
H1663 H 0.46542 0.23671 0.96608 0.0
C1664 C 0.21476 0.50741 0.41326 0.0
C1665 C 0.20247 0.53157 0.41716 0.0
C1666 C 0.23306 0.49939 0.44725 0.0
C1667 C 0.23935 0.51613 0.48525 0.0
C1668 C 0.22524 0.53945 0.49117 0.0
C1669 C 0.2069 0.54668 0.45741 0.0
C1670 C 0.24674 0.47381 0.44066 0.0
C1671 C 0.231 0.55802 0.53104 0.0
C1672 C 0.28102 0.50747 0.5937 0.0
C1673 C 0.30324 0.52128 0.58009 0.0
C1674 C 0.26096 0.50247 0.56121 0.0
C1675 C 0.26302 0.51205 0.51462 0.0
C1676 C 0.28668 0.52323 0.49959 0.0
C1677 C 0.30657 0.52737 0.53232 0.0
C1678 C 0.23668 0.48908 0.57795 0.0
C1679 C 0.28997 0.53368 0.45031 0.0
H1680 H 0.21124 0.49548 0.38252 0.0
H1681 H 0.19696 0.5651 0.46126 0.0
H1682 H 0.26474 0.47692 0.42009 0.0
H1683 H 0.25217 0.46505 0.47492 0.0
H1684 H 0.23441 0.45991 0.42089 0.0
H1685 H 0.21743 0.57474 0.53176 0.0
H1686 H 0.22978 0.54788 0.56532 0.0
H1687 H 0.25105 0.56561 0.52743 0.0
H1688 H 0.27838 0.50223 0.63031 0.0
H1689 H 0.32397 0.53743 0.5211 0.0
H1690 H 0.22808 0.47703 0.54959 0.0
H1691 H 0.22213 0.50382 0.5884 0.0
H1692 H 0.24066 0.4766 0.60898 0.0
H1693 H 0.28396 0.51901 0.42399 0.0
H1694 H 0.31032 0.53946 0.44288 0.0
H1695 H 0.27738 0.55094 0.44558 0.0
C1696 C 0.99919 0.28484 0.09366 0.0
C1697 C 0.98061 0.30399 0.0845 0.0
C1698 C 0.0051 0.26596 0.05938 0.0
C1699 C 0.99184 0.26628 0.01561 0.0
C1700 C 0.97543 0.28746 0.00467 0.0
C1701 C 0.97005 0.306 0.03926 0.0
C1702 C 0.02351 0.24433 0.07179 0.0
C1703 C 0.96099 0.28895 0.95849 0.0
C1704 C 0.99733 0.22089 0.91051 0.0
C1705 C 0.97562 0.20508 0.91816 0.0
C1706 C 0.00475 0.23956 0.94427 0.0
C1707 C 0.98998 0.24241 0.98606 0.0
C1708 C 0.9697 0.22463 0.99559 0.0
C1709 C 0.96286 0.20624 0.96161 0.0
C1710 C 0.02707 0.25746 0.93343 0.0
C1711 C 0.95346 0.22656 0.03971 0.0
H1712 H 0.00736 0.28323 0.12868 0.0
H1713 H 0.9558 0.32098 0.03214 0.0
H1714 H 0.01231 0.22748 0.08502 0.0
H1715 H 0.03465 0.23788 0.0405 0.0
H1716 H 0.03729 0.25037 0.09977 0.0
H1717 H 0.95157 0.30811 0.95329 0.0
H1718 H 0.97429 0.28532 0.92859 0.0
H1719 H 0.94573 0.27377 0.95764 0.0
H1720 H 0.00734 0.21997 0.87704 0.0
H1721 H 0.94635 0.19367 0.96793 0.0
H1722 H 0.03773 0.26289 0.9659 0.0
H1723 H 0.01952 0.27551 0.91724 0.0
H1724 H 0.04082 0.24842 0.90823 0.0
H1725 H 0.96603 0.22754 0.0713 0.0
H1726 H 0.94005 0.20984 0.0437 0.0
H1727 H 0.94175 0.24461 0.03864 0.0
C1728 C 0.29961 0.96741 0.4562 0.0
C1729 C 0.29855 0.97887 0.4116 0.0
C1730 C 0.28174 0.97389 0.49127 0.0
C1731 C 0.26217 0.9924 0.48155 0.0
C1732 C 0.26279 0.00616 0.43832 0.0
C1733 C 0.28102 0.99914 0.40353 0.0
C1734 C 0.2822 0.95879 0.53683 0.0
C1735 C 0.2429 0.02666 0.42717 0.0
C1736 C 0.20101 0.9687 0.53912 0.0
C1737 C 0.20228 0.98088 0.58309 0.0
C1738 C 0.21891 0.9744 0.50365 0.0
C1739 C 0.23872 0.99282 0.51234 0.0
C1740 C 0.23833 0.00728 0.55483 0.0
C1741 C 0.22007 1.00106 0.59004 0.0
C1742 C 0.21821 0.95858 0.45891 0.0
C1743 C 0.25852 0.02769 0.56487 0.0
H1744 H 0.31345 0.95196 0.46265 0.0
H1745 H 0.2802 0.0081 0.36907 0.0
H1746 H 0.28048 0.97204 0.56736 0.0
H1747 H 0.26542 0.94532 0.53784 0.0
H1748 H 0.30024 0.94723 0.54086 0.0
H1749 H 0.25003 0.04019 0.39967 0.0
H1750 H 0.22501 0.01724 0.41381 0.0
H1751 H 0.23768 0.03792 0.45905 0.0
H1752 H 0.187 0.95329 0.53359 0.0
H1753 H 0.22106 0.01054 0.62403 0.0
H1754 H 0.23481 0.94487 0.45858 0.0
H1755 H 0.22009 0.9713 0.4277 0.0
H1756 H 0.20001 0.94719 0.45552 0.0
H1757 H 0.27628 0.01825 0.5787 0.0
H1758 H 0.25159 0.04176 0.59166 0.0
H1759 H 0.26387 0.03835 0.5324 0.0
C1760 C 0.4706 0.73549 0.09768 0.0
C1761 C 0.48049 0.71023 0.09926 0.0
C1762 C 0.4758 0.75183 0.05957 0.0
C1763 C 0.4912 0.74257 0.02189 0.0
C1764 C 0.50377 0.71821 0.02609 0.0
C1765 C 0.49815 0.70214 0.06488 0.0
C1766 C 0.46215 0.77772 0.05719 0.0
C1767 C 0.52105 0.70801 0.98755 0.0
C1768 C 0.46018 0.76488 0.90928 0.0
C1769 C 0.47365 0.7879 0.90009 0.0
C1770 C 0.46737 0.7486 0.94635 0.0
C1771 C 0.48865 0.75554 0.97526 0.0
C1772 C 0.50394 0.77744 0.96329 0.0
C1773 C 0.4962 0.79351 0.92565 0.0
C1774 C 0.45058 0.72531 0.95711 0.0
C1775 C 0.5272 0.78507 0.99226 0.0
H1776 H 0.45711 0.74176 0.12465 0.0
H1777 H 0.5058 0.68257 0.06616 0.0
H1778 H 0.47569 0.79312 0.04554 0.0
H1779 H 0.44617 0.77664 0.03109 0.0
H1780 H 0.45377 0.78343 0.09167 0.0
H1781 H 0.53457 0.69299 0.00104 0.0
H1782 H 0.50892 0.69906 0.95968 0.0
H1783 H 0.53244 0.72389 0.97123 0.0
H1784 H 0.443 0.76027 0.88887 0.0
H1785 H 0.50673 0.81126 0.91839 0.0
H1786 H 0.43974 0.72873 0.99026 0.0
H1787 H 0.46269 0.70779 0.96222 0.0
H1788 H 0.43633 0.7213 0.92869 0.0
H1789 H 0.52071 0.79656 0.02308 0.0
H1790 H 0.54087 0.79721 0.97159 0.0
H1791 H 0.53764 0.76775 0.00556 0.0
C1792 C 0.78009 0.49904 0.59401 0.0
C1793 C 0.80036 0.48174 0.58457 0.0
C1794 C 0.76107 0.50419 0.55957 0.0
C1795 C 0.76243 0.49147 0.51535 0.0
C1796 C 0.78464 0.47653 0.50422 0.0
C1797 C 0.80327 0.47186 0.539 0.0
C1798 C 0.73825 0.52105 0.57226 0.0
C1799 C 0.78723 0.46274 0.45756 0.0
C1800 C 0.70407 0.45968 0.46023 0.0
C1801 C 0.70189 0.47303 0.41748 0.0
C1802 C 0.72229 0.46699 0.4942 0.0
C1803 C 0.73881 0.48839 0.48546 0.0
C1804 C 0.73499 0.50355 0.44438 0.0
C1805 C 0.71653 0.49563 0.4106 0.0
C1806 C 0.72531 0.45028 0.53755 0.0
C1807 C 0.75156 0.52698 0.43439 0.0
H1808 H 0.77777 0.50665 0.62931 0.0
H1809 H 0.81909 0.45859 0.5317 0.0
H1810 H 0.73141 0.53226 0.54135 0.0
H1811 H 0.722 0.50863 0.58435 0.0
H1812 H 0.74319 0.53471 0.60112 0.0
H1813 H 0.80702 0.45474 0.45223 0.0
H1814 H 0.77317 0.44646 0.45605 0.0
H1815 H 0.78273 0.47606 0.42809 0.0
H1816 H 0.69237 0.4425 0.4661 0.0
H1817 H 0.7148 0.50613 0.37774 0.0
H1818 H 0.72544 0.46243 0.56971 0.0
H1819 H 0.74411 0.43983 0.53601 0.0
H1820 H 0.70954 0.43572 0.54088 0.0
H1821 H 0.75638 0.53756 0.46725 0.0
H1822 H 0.74175 0.54048 0.40969 0.0
H1823 H 0.77001 0.52067 0.41797 0.0
C1824 C 0.00583 0.71613 0.91385 0.0
C1825 C 0.03022 0.70422 0.9168 0.0
C1826 C 0.99806 0.73447 0.94793 0.0
C1827 C 0.0153 0.74118 0.98492 0.0
C1828 C 0.0389 0.72745 0.98996 0.0
C1829 C 0.04585 0.70902 0.95624 0.0
C1830 C 0.97217 0.7477 0.94246 0.0
C1831 C 0.05801 0.73371 0.02874 0.0
C1832 C 0.02712 0.80834 0.031 0.0
C1833 C 0.02197 0.8049 0.07907 0.0
C1834 C 0.02217 0.78856 0.99844 0.0
C1835 C 0.01134 0.76487 0.01415 0.0
C1836 C 0.00268 0.76273 0.06128 0.0
C1837 C 0.00832 0.78273 0.09347 0.0
C1838 C 0.03148 0.79195 0.94845 0.0
C1839 C 0.98973 0.73837 0.07882 0.0
H1840 H 0.99349 0.71228 0.88379 0.0
H1841 H 0.06443 0.69932 0.95943 0.0
H1842 H 0.96399 0.75348 0.977 0.0
H1843 H 0.9746 0.76544 0.92086 0.0
H1844 H 0.95808 0.73489 0.92416 0.0
H1845 H 0.07501 0.72047 0.02868 0.0
H1846 H 0.06516 0.75388 0.02453 0.0
H1847 H 0.04848 0.73239 0.06358 0.0
H1848 H 0.03701 0.82573 0.01927 0.0
H1849 H 0.00378 0.78005 0.13037 0.0
H1850 H 0.01636 0.78566 0.92321 0.0
H1851 H 0.04885 0.77965 0.94256 0.0
H1852 H 0.03675 0.81239 0.94057 0.0
H1853 H 0.97709 0.7298 0.0513 0.0
H1854 H 0.97796 0.74223 0.11078 0.0
H1855 H 0.00474 0.72383 0.08805 0.0
C1856 C 0.78304 0.00644 0.40949 0.0
C1857 C 0.79788 0.02888 0.41682 0.0
C1858 C 0.76461 0.99842 0.44319 0.0
C1859 C 0.76101 0.01331 0.48466 0.0
C1860 C 0.77766 0.03458 0.49375 0.0
C1861 C 0.79584 0.04199 0.45986 0.0
C1862 C 0.74789 0.97514 0.43278 0.0
C1863 C 0.77487 0.051 0.53754 0.0
C1864 C 0.69704 0.02984 0.53979 0.0
C1865 C 0.70025 0.0197 0.5851 0.0
C1866 C 0.71537 0.02521 0.50449 0.0
C1867 C 0.73756 0.01008 0.51485 0.0
C1868 C 0.73916 0.9971 0.55877 0.0
C1869 C 0.72045 0.00219 0.59374 0.0
C1870 C 0.71252 0.03926 0.45815 0.0
C1871 C 0.76195 0.98001 0.57058 0.0
H1872 H 0.78469 0.99609 0.37645 0.0
H1873 H 0.80772 0.05901 0.46616 0.0
H1874 H 0.743 0.96443 0.46545 0.0
H1875 H 0.72949 0.98165 0.41641 0.0
H1876 H 0.75763 0.96169 0.40788 0.0
H1877 H 0.79066 0.06555 0.54096 0.0
H1878 H 0.75607 0.06145 0.53659 0.0
H1879 H 0.77494 0.03862 0.56941 0.0
H1880 H 0.68124 0.04323 0.53309 0.0
H1881 H 0.72296 0.99435 0.62882 0.0
H1882 H 0.71685 0.02611 0.42834 0.0
H1883 H 0.72657 0.05555 0.45674 0.0
H1884 H 0.6927 0.04728 0.45333 0.0
H1885 H 0.76845 0.9689 0.53929 0.0
H1886 H 0.75715 0.96623 0.59931 0.0
H1887 H 0.7784 0.99224 0.58247 0.0
loop_
_geom_bond_atom_site_label_1
_geom_bond_atom_site_label_2
_geom_bond_distance
_geom_bond_site_symmetry_2
_ccdc_geom_bond_type
Fe0 O2 1.918 . S
Fe0 O5 1.997 . S
Fe0 O6 2.002 . S
Fe0 O11 1.976 . S
Fe0 O14 1.996 . S
Fe1 O2 1.918 . S
Fe1 O9 1.997 . S
Fe1 O12 1.996 . S
Fe1 O16 1.976 . S
Fe1 O19 2.002 . S
O2 Fe0 1.918 . S
O2 Fe1 1.918 . S
O2 Fe3 1.918 . S
Fe3 O2 1.918 . S
Fe3 O4 2.002 . S
Fe3 O13 1.976 . S
Fe3 O17 1.996 . S
Fe3 O20 1.997 . S
O4 Fe3 2.002 . S
O4 C21 1.295 . S
O5 Fe0 1.997 . S
O5 C21 1.235 . S
O6 Fe0 2.002 . S
O6 C7 1.295 . S
C7 O6 1.295 . S
C7 O9 1.235 . S
C8 O13 1.287 . S
C8 O14 1.255 . S
O9 Fe1 1.997 . S
O9 C7 1.235 . S
C10 O16 1.287 . S
C10 O17 1.255 . S
O11 Fe0 1.976 . S
O11 C18 1.287 . S
O12 Fe1 1.996 . S
O12 C18 1.255 . S
O13 Fe3 1.976 . S
O13 C8 1.287 . S
O14 Fe0 1.996 . S
O14 C8 1.255 . S
C15 O19 1.295 . S
C15 O20 1.235 . S
O16 Fe1 1.976 . S
O16 C10 1.287 . S
O17 Fe3 1.996 . S
O17 C10 1.255 . S
C18 O11 1.287 . S
C18 O12 1.255 . S
O19 Fe1 2.002 . S
O19 C15 1.295 . S
O20 Fe3 1.997 . S
O20 C15 1.235 . S
C21 O4 1.295 . S
C21 O5 1.235 . S
Fe22 O24 1.918 . S
Fe22 O27 1.997 . S
Fe22 O28 2.002 . S
Fe22 O33 1.976 . S
Fe22 O36 1.996 . S
Fe23 O24 1.918 . S
Fe23 O31 1.997 . S
Fe23 O34 1.996 . S
Fe23 O38 1.976 . S
Fe23 O41 2.002 . S
O24 Fe22 1.918 . S
O24 Fe23 1.918 . S
O24 Fe25 1.918 . S
Fe25 O24 1.918 . S
Fe25 O26 2.002 . S
Fe25 O35 1.976 . S
Fe25 O39 1.996 . S
Fe25 O42 1.997 . S
O26 Fe25 2.002 . S
O26 C43 1.295 . S
O27 Fe22 1.997 . S
O27 C43 1.235 . S
O28 Fe22 2.002 . S
O28 C29 1.295 . S
C29 O28 1.295 . S
C29 O31 1.235 . S
C30 O35 1.287 . S
C30 O36 1.255 . S
O31 Fe23 1.997 . S
O31 C29 1.235 . S
C32 O38 1.287 . S
C32 O39 1.255 . S
O33 Fe22 1.976 . S
O33 C40 1.287 . S
O34 Fe23 1.996 . S
O34 C40 1.255 . S
O35 Fe25 1.976 . S
O35 C30 1.287 . S
O36 Fe22 1.996 . S
O36 C30 1.255 . S
C37 O41 1.295 . S
C37 O42 1.235 . S
O38 Fe23 1.976 . S
O38 C32 1.287 . S
O39 Fe25 1.996 . S
O39 C32 1.255 . S
C40 O33 1.287 . S
C40 O34 1.255 . S
O41 Fe23 2.002 . S
O41 C37 1.295 . S
O42 Fe25 1.997 . S
O42 C37 1.235 . S
C43 O26 1.295 . S
C43 O27 1.235 . S
Fe44 O46 1.918 . S
Fe44 O49 1.997 . S
Fe44 O50 2.002 . S
Fe44 O55 1.976 . S
Fe44 O58 1.996 . S
Fe45 O46 1.918 . S
Fe45 O53 1.997 . S
Fe45 O56 1.996 . S
Fe45 O60 1.976 . S
Fe45 O63 2.002 . S
O46 Fe44 1.918 . S
O46 Fe45 1.918 . S
O46 Fe47 1.918 . S
Fe47 O46 1.918 . S
Fe47 O48 2.002 . S
Fe47 O57 1.976 . S
Fe47 O61 1.996 . S
Fe47 O64 1.997 . S
O48 Fe47 2.002 . S
O48 C65 1.295 . S
O49 Fe44 1.997 . S
O49 C65 1.235 . S
O50 Fe44 2.002 . S
O50 C51 1.295 . S
C51 O50 1.295 . S
C51 O53 1.235 . S
C52 O57 1.287 . S
C52 O58 1.255 . S
O53 Fe45 1.997 . S
O53 C51 1.235 . S
C54 O60 1.287 . S
C54 O61 1.255 . S
O55 Fe44 1.976 . S
O55 C62 1.287 . S
O56 Fe45 1.996 . S
O56 C62 1.255 . S
O57 Fe47 1.976 . S
O57 C52 1.287 . S
O58 Fe44 1.996 . S
O58 C52 1.255 . S
C59 O63 1.295 . S
C59 O64 1.235 . S
O60 Fe45 1.976 . S
O60 C54 1.287 . S
O61 Fe47 1.996 . S
O61 C54 1.255 . S
C62 O55 1.287 . S
C62 O56 1.255 . S
O63 Fe45 2.002 . S
O63 C59 1.295 . S
O64 Fe47 1.997 . S
O64 C59 1.235 . S
C65 O48 1.295 . S
C65 O49 1.235 . S
Fe66 O68 1.918 . S
Fe66 O71 1.997 . S
Fe66 O72 2.002 . S
Fe66 O77 1.976 . S
Fe66 O80 1.996 . S
Fe67 O68 1.918 . S
Fe67 O75 1.997 . S
Fe67 O78 1.996 . S
Fe67 O82 1.976 . S
Fe67 O85 2.002 . S
O68 Fe66 1.918 . S
O68 Fe67 1.918 . S
O68 Fe69 1.918 . S
Fe69 O68 1.918 . S
Fe69 O70 2.002 . S
Fe69 O79 1.976 . S
Fe69 O83 1.996 . S
Fe69 O86 1.997 . S
O70 Fe69 2.002 . S
O70 C87 1.295 . S
O71 Fe66 1.997 . S
O71 C87 1.235 . S
O72 Fe66 2.002 . S
O72 C73 1.295 . S
C73 O72 1.295 . S
C73 O75 1.235 . S
C74 O79 1.287 . S
C74 O80 1.255 . S
O75 Fe67 1.997 . S
O75 C73 1.235 . S
C76 O82 1.287 . S
C76 O83 1.255 . S
O77 Fe66 1.976 . S
O77 C84 1.287 . S
O78 Fe67 1.996 . S
O78 C84 1.255 . S
O79 Fe69 1.976 . S
O79 C74 1.287 . S
O80 Fe66 1.996 . S
O80 C74 1.255 . S
C81 O85 1.295 . S
C81 O86 1.235 . S
O82 Fe67 1.976 . S
O82 C76 1.287 . S
O83 Fe69 1.996 . S
O83 C76 1.255 . S
C84 O77 1.287 . S
C84 O78 1.255 . S
O85 Fe67 2.002 . S
O85 C81 1.295 . S
O86 Fe69 1.997 . S
O86 C81 1.235 . S
C87 O70 1.295 . S
C87 O71 1.235 . S
Fe88 O90 1.918 . S
Fe88 O93 1.997 . S
Fe88 O94 2.002 . S
Fe88 O99 1.976 . S
Fe88 O102 1.996 . S
Fe89 O90 1.918 . S
Fe89 O97 1.997 . S
Fe89 O100 1.996 . S
Fe89 O104 1.976 . S
Fe89 O107 2.002 . S
O90 Fe88 1.918 . S
O90 Fe89 1.918 . S
O90 Fe91 1.918 . S
Fe91 O90 1.918 . S
Fe91 O92 2.002 . S
Fe91 O101 1.976 . S
Fe91 O105 1.996 . S
Fe91 O108 1.997 . S
O92 Fe91 2.002 . S
O92 C109 1.295 . S
O93 Fe88 1.997 . S
O93 C109 1.235 . S
O94 Fe88 2.002 . S
O94 C95 1.295 . S
C95 O94 1.295 . S
C95 O97 1.235 . S
C96 O101 1.287 . S
C96 O102 1.255 . S
O97 Fe89 1.997 . S
O97 C95 1.235 . S
C98 O104 1.287 . S
C98 O105 1.255 . S
O99 Fe88 1.976 . S
O99 C106 1.287 . S
O100 Fe89 1.996 . S
O100 C106 1.255 . S
O101 Fe91 1.976 . S
O101 C96 1.287 . S
O102 Fe88 1.996 . S
O102 C96 1.255 . S
C103 O107 1.295 . S
C103 O108 1.235 . S
O104 Fe89 1.976 . S
O104 C98 1.287 . S
O105 Fe91 1.996 . S
O105 C98 1.255 . S
C106 O99 1.287 . S
C106 O100 1.255 . S
O107 Fe89 2.002 . S
O107 C103 1.295 . S
O108 Fe91 1.997 . S
O108 C103 1.235 . S
C109 O92 1.295 . S
C109 O93 1.235 . S
Fe110 O112 1.918 . S
Fe110 O115 1.997 . S
Fe110 O116 2.002 . S
Fe110 O121 1.976 . S
Fe110 O124 1.996 . S
Fe111 O112 1.918 . S
Fe111 O119 1.997 . S
Fe111 O122 1.996 . S
Fe111 O126 1.976 . S
Fe111 O129 2.002 . S
O112 Fe110 1.918 . S
O112 Fe111 1.918 . S
O112 Fe113 1.918 . S
Fe113 O112 1.918 . S
Fe113 O114 2.002 . S
Fe113 O123 1.976 . S
Fe113 O127 1.996 . S
Fe113 O130 1.997 . S
O114 Fe113 2.002 . S
O114 C131 1.295 . S
O115 Fe110 1.997 . S
O115 C131 1.235 . S
O116 Fe110 2.002 . S
O116 C117 1.295 . S
C117 O116 1.295 . S
C117 O119 1.235 . S
C118 O123 1.287 . S
C118 O124 1.255 . S
O119 Fe111 1.997 . S
O119 C117 1.235 . S
C120 O126 1.287 . S
C120 O127 1.255 . S
O121 Fe110 1.976 . S
O121 C128 1.287 . S
O122 Fe111 1.996 . S
O122 C128 1.255 . S
O123 Fe113 1.976 . S
O123 C118 1.287 . S
O124 Fe110 1.996 . S
O124 C118 1.255 . S
C125 O129 1.295 . S
C125 O130 1.235 . S
O126 Fe111 1.976 . S
O126 C120 1.287 . S
O127 Fe113 1.996 . S
O127 C120 1.255 . S
C128 O121 1.287 . S
C128 O122 1.255 . S
O129 Fe111 2.002 . S
O129 C125 1.295 . S
O130 Fe113 1.997 . S
O130 C125 1.235 . S
C131 O114 1.295 . S
C131 O115 1.235 . S
Fe132 O134 1.918 . S
Fe132 O137 1.997 . S
Fe132 O138 2.002 . S
Fe132 O143 1.976 . S
Fe132 O146 1.996 . S
Fe133 O134 1.918 . S
Fe133 O141 1.997 . S
Fe133 O144 1.996 . S
Fe133 O148 1.976 . S
Fe133 O151 2.002 . S
O134 Fe132 1.918 . S
O134 Fe133 1.918 . S
O134 Fe135 1.918 . S
Fe135 O134 1.918 . S
Fe135 O136 2.002 . S
Fe135 O145 1.976 . S
Fe135 O149 1.996 . S
Fe135 O152 1.997 . S
O136 Fe135 2.002 . S
O136 C153 1.295 . S
O137 Fe132 1.997 . S
O137 C153 1.235 . S
O138 Fe132 2.002 . S
O138 C139 1.295 . S
C139 O138 1.295 . S
C139 O141 1.235 . S
C140 O145 1.287 . S
C140 O146 1.255 . S
O141 Fe133 1.997 . S
O141 C139 1.235 . S
C142 O148 1.287 . S
C142 O149 1.255 . S
O143 Fe132 1.976 . S
O143 C150 1.287 . S
O144 Fe133 1.996 . S
O144 C150 1.255 . S
O145 Fe135 1.976 . S
O145 C140 1.287 . S
O146 Fe132 1.996 . S
O146 C140 1.255 . S
C147 O151 1.295 . S
C147 O152 1.235 . S
O148 Fe133 1.976 . S
O148 C142 1.287 . S
O149 Fe135 1.996 . S
O149 C142 1.255 . S
C150 O143 1.287 . S
C150 O144 1.255 . S
O151 Fe133 2.002 . S
O151 C147 1.295 . S
O152 Fe135 1.997 . S
O152 C147 1.235 . S
C153 O136 1.295 . S
C153 O137 1.235 . S
Fe154 O156 1.918 . S
Fe154 O159 1.997 . S
Fe154 O160 2.002 . S
Fe154 O165 1.976 . S
Fe154 O168 1.996 . S
Fe155 O156 1.918 . S
Fe155 O163 1.997 . S
Fe155 O166 1.996 . S
Fe155 O170 1.976 . S
Fe155 O173 2.002 . S
O156 Fe154 1.918 . S
O156 Fe155 1.918 . S
O156 Fe157 1.918 . S
Fe157 O156 1.918 . S
Fe157 O158 2.002 . S
Fe157 O167 1.976 . S
Fe157 O171 1.996 . S
Fe157 O174 1.997 . S
O158 Fe157 2.002 . S
O158 C175 1.295 . S
O159 Fe154 1.997 . S
O159 C175 1.235 . S
O160 Fe154 2.002 . S
O160 C161 1.295 . S
C161 O160 1.295 . S
C161 O163 1.235 . S
C162 O167 1.287 . S
C162 O168 1.255 . S
O163 Fe155 1.997 . S
O163 C161 1.235 . S
C164 O170 1.287 . S
C164 O171 1.255 . S
O165 Fe154 1.976 . S
O165 C172 1.287 . S
O166 Fe155 1.996 . S
O166 C172 1.255 . S
O167 Fe157 1.976 . S
O167 C162 1.287 . S
O168 Fe154 1.996 . S
O168 C162 1.255 . S
C169 O173 1.295 . S
C169 O174 1.235 . S
O170 Fe155 1.976 . S
O170 C164 1.287 . S
O171 Fe157 1.996 . S
O171 C164 1.255 . S
C172 O165 1.287 . S
C172 O166 1.255 . S
O173 Fe155 2.002 . S
O173 C169 1.295 . S
O174 Fe157 1.997 . S
O174 C169 1.235 . S
C175 O158 1.295 . S
C175 O159 1.235 . S
Fe176 O178 1.918 . S
Fe176 O181 1.997 . S
Fe176 O182 2.002 . S
Fe176 O187 1.976 . S
Fe176 O190 1.996 . S
Fe177 O178 1.918 . S
Fe177 O185 1.997 . S
Fe177 O188 1.996 . S
Fe177 O192 1.976 . S
Fe177 O195 2.002 . S
O178 Fe176 1.918 . S
O178 Fe177 1.918 . S
O178 Fe179 1.918 . S
Fe179 O178 1.918 . S
Fe179 O180 2.002 . S
Fe179 O189 1.976 . S
Fe179 O193 1.996 . S
Fe179 O196 1.997 . S
O180 Fe179 2.002 . S
O180 C197 1.295 . S
O181 Fe176 1.997 . S
O181 C197 1.235 . S
O182 Fe176 2.002 . S
O182 C183 1.295 . S
C183 O182 1.295 . S
C183 O185 1.235 . S
C184 O189 1.287 . S
C184 O190 1.255 . S
O185 Fe177 1.997 . S
O185 C183 1.235 . S
C186 O192 1.287 . S
C186 O193 1.255 . S
O187 Fe176 1.976 . S
O187 C194 1.287 . S
O188 Fe177 1.996 . S
O188 C194 1.255 . S
O189 Fe179 1.976 . S
O189 C184 1.287 . S
O190 Fe176 1.996 . S
O190 C184 1.255 . S
C191 O195 1.295 . S
C191 O196 1.235 . S
O192 Fe177 1.976 . S
O192 C186 1.287 . S
O193 Fe179 1.996 . S
O193 C186 1.255 . S
C194 O187 1.287 . S
C194 O188 1.255 . S
O195 Fe177 2.002 . S
O195 C191 1.295 . S
O196 Fe179 1.997 . S
O196 C191 1.235 . S
C197 O180 1.295 . S
C197 O181 1.235 . S
Fe198 O200 1.918 . S
Fe198 O203 1.997 . S
Fe198 O204 2.002 . S
Fe198 O209 1.976 . S
Fe198 O212 1.996 . S
Fe199 O200 1.918 . S
Fe199 O207 1.997 . S
Fe199 O210 1.996 . S
Fe199 O214 1.976 . S
Fe199 O217 2.002 . S
O200 Fe198 1.918 . S
O200 Fe199 1.918 . S
O200 Fe201 1.918 . S
Fe201 O200 1.918 . S
Fe201 O202 2.002 . S
Fe201 O211 1.976 . S
Fe201 O215 1.996 . S
Fe201 O218 1.997 . S
O202 Fe201 2.002 . S
O202 C219 1.295 . S
O203 Fe198 1.997 . S
O203 C219 1.235 . S
O204 Fe198 2.002 . S
O204 C205 1.295 . S
C205 O204 1.295 . S
C205 O207 1.235 . S
C206 O211 1.287 . S
C206 O212 1.255 . S
O207 Fe199 1.997 . S
O207 C205 1.235 . S
C208 O214 1.287 . S
C208 O215 1.255 . S
O209 Fe198 1.976 . S
O209 C216 1.287 . S
O210 Fe199 1.996 . S
O210 C216 1.255 . S
O211 Fe201 1.976 . S
O211 C206 1.287 . S
O212 Fe198 1.996 . S
O212 C206 1.255 . S
C213 O217 1.295 . S
C213 O218 1.235 . S
O214 Fe199 1.976 . S
O214 C208 1.287 . S
O215 Fe201 1.996 . S
O215 C208 1.255 . S
C216 O209 1.287 . S
C216 O210 1.255 . S
O217 Fe199 2.002 . S
O217 C213 1.295 . S
O218 Fe201 1.997 . S
O218 C213 1.235 . S
C219 O202 1.295 . S
C219 O203 1.235 . S
Fe220 O222 1.918 . S
Fe220 O225 1.997 . S
Fe220 O226 2.002 . S
Fe220 O231 1.976 . S
Fe220 O234 1.996 . S
Fe221 O222 1.918 . S
Fe221 O229 1.997 . S
Fe221 O232 1.996 . S
Fe221 O236 1.976 . S
Fe221 O239 2.002 . S
O222 Fe220 1.918 . S
O222 Fe221 1.918 . S
O222 Fe223 1.918 . S
Fe223 O222 1.918 . S
Fe223 O224 2.002 . S
Fe223 O233 1.976 . S
Fe223 O237 1.996 . S
Fe223 O240 1.997 . S
O224 Fe223 2.002 . S
O224 C241 1.295 . S
O225 Fe220 1.997 . S
O225 C241 1.235 . S
O226 Fe220 2.002 . S
O226 C227 1.295 . S
C227 O226 1.295 . S
C227 O229 1.235 . S
C228 O233 1.287 . S
C228 O234 1.255 . S
O229 Fe221 1.997 . S
O229 C227 1.235 . S
C230 O236 1.287 . S
C230 O237 1.255 . S
O231 Fe220 1.976 . S
O231 C238 1.287 . S
O232 Fe221 1.996 . S
O232 C238 1.255 . S
O233 Fe223 1.976 . S
O233 C228 1.287 . S
O234 Fe220 1.996 . S
O234 C228 1.255 . S
C235 O239 1.295 . S
C235 O240 1.235 . S
O236 Fe221 1.976 . S
O236 C230 1.287 . S
O237 Fe223 1.996 . S
O237 C230 1.255 . S
C238 O231 1.287 . S
C238 O232 1.255 . S
O239 Fe221 2.002 . S
O239 C235 1.295 . S
O240 Fe223 1.997 . S
O240 C235 1.235 . S
C241 O224 1.295 . S
C241 O225 1.235 . S
Fe242 O244 1.918 . S
Fe242 O247 1.997 . S
Fe242 O248 2.002 . S
Fe242 O253 1.976 . S
Fe242 O256 1.996 . S
Fe243 O244 1.918 . S
Fe243 O251 1.997 . S
Fe243 O254 1.996 . S
Fe243 O258 1.976 . S
Fe243 O261 2.002 . S
O244 Fe242 1.918 . S
O244 Fe243 1.918 . S
O244 Fe245 1.918 . S
Fe245 O244 1.918 . S
Fe245 O246 2.002 . S
Fe245 O255 1.976 . S
Fe245 O259 1.996 . S
Fe245 O262 1.997 . S
O246 Fe245 2.002 . S
O246 C263 1.295 . S
O247 Fe242 1.997 . S
O247 C263 1.235 . S
O248 Fe242 2.002 . S
O248 C249 1.295 . S
C249 O248 1.295 . S
C249 O251 1.235 . S
C250 O255 1.287 . S
C250 O256 1.255 . S
O251 Fe243 1.997 . S
O251 C249 1.235 . S
C252 O258 1.287 . S
C252 O259 1.255 . S
O253 Fe242 1.976 . S
O253 C260 1.287 . S
O254 Fe243 1.996 . S
O254 C260 1.255 . S
O255 Fe245 1.976 . S
O255 C250 1.287 . S
O256 Fe242 1.996 . S
O256 C250 1.255 . S
C257 O261 1.295 . S
C257 O262 1.235 . S
O258 Fe243 1.976 . S
O258 C252 1.287 . S
O259 Fe245 1.996 . S
O259 C252 1.255 . S
C260 O253 1.287 . S
C260 O254 1.255 . S
O261 Fe243 2.002 . S
O261 C257 1.295 . S
O262 Fe245 1.997 . S
O262 C257 1.235 . S
C263 O246 1.295 . S
C263 O247 1.235 . S
Fe264 O266 1.918 . S
Fe264 O269 1.997 . S
Fe264 O270 2.002 . S
Fe264 O275 1.976 . S
Fe264 O278 1.996 . S
Fe265 O266 1.918 . S
Fe265 O273 1.997 . S
Fe265 O276 1.996 . S
Fe265 O280 1.976 . S
Fe265 O283 2.002 . S
O266 Fe264 1.918 . S
O266 Fe265 1.918 . S
O266 Fe267 1.918 . S
Fe267 O266 1.918 . S
Fe267 O268 2.002 . S
Fe267 O277 1.976 . S
Fe267 O281 1.996 . S
Fe267 O284 1.997 . S
O268 Fe267 2.002 . S
O268 C285 1.295 . S
O269 Fe264 1.997 . S
O269 C285 1.235 . S
O270 Fe264 2.002 . S
O270 C271 1.295 . S
C271 O270 1.295 . S
C271 O273 1.235 . S
C272 O277 1.287 . S
C272 O278 1.255 . S
O273 Fe265 1.997 . S
O273 C271 1.235 . S
C274 O280 1.287 . S
C274 O281 1.255 . S
O275 Fe264 1.976 . S
O275 C282 1.287 . S
O276 Fe265 1.996 . S
O276 C282 1.255 . S
O277 Fe267 1.976 . S
O277 C272 1.287 . S
O278 Fe264 1.996 . S
O278 C272 1.255 . S
C279 O283 1.295 . S
C279 O284 1.235 . S
O280 Fe265 1.976 . S
O280 C274 1.287 . S
O281 Fe267 1.996 . S
O281 C274 1.255 . S
C282 O275 1.287 . S
C282 O276 1.255 . S
O283 Fe265 2.002 . S
O283 C279 1.295 . S
O284 Fe267 1.997 . S
O284 C279 1.235 . S
C285 O268 1.295 . S
C285 O269 1.235 . S
Fe286 O288 1.918 . S
Fe286 O291 1.997 . S
Fe286 O292 2.002 . S
Fe286 O297 1.976 . S
Fe286 O300 1.996 . S
Fe287 O288 1.918 . S
Fe287 O295 1.997 . S
Fe287 O298 1.996 . S
Fe287 O302 1.976 . S
Fe287 O305 2.002 . S
O288 Fe286 1.918 . S
O288 Fe287 1.918 . S
O288 Fe289 1.918 . S
Fe289 O288 1.918 . S
Fe289 O290 2.002 . S
Fe289 O299 1.976 . S
Fe289 O303 1.996 . S
Fe289 O306 1.997 . S
O290 Fe289 2.002 . S
O290 C307 1.295 . S
O291 Fe286 1.997 . S
O291 C307 1.235 . S
O292 Fe286 2.002 . S
O292 C293 1.295 . S
C293 O292 1.295 . S
C293 O295 1.235 . S
C294 O299 1.287 . S
C294 O300 1.255 . S
O295 Fe287 1.997 . S
O295 C293 1.235 . S
C296 O302 1.287 . S
C296 O303 1.255 . S
O297 Fe286 1.976 . S
O297 C304 1.287 . S
O298 Fe287 1.996 . S
O298 C304 1.255 . S
O299 Fe289 1.976 . S
O299 C294 1.287 . S
O300 Fe286 1.996 . S
O300 C294 1.255 . S
C301 O305 1.295 . S
C301 O306 1.235 . S
O302 Fe287 1.976 . S
O302 C296 1.287 . S
O303 Fe289 1.996 . S
O303 C296 1.255 . S
C304 O297 1.287 . S
C304 O298 1.255 . S
O305 Fe287 2.002 . S
O305 C301 1.295 . S
O306 Fe289 1.997 . S
O306 C301 1.235 . S
C307 O290 1.295 . S
C307 O291 1.235 . S
Fe308 O310 1.918 . S
Fe308 O313 1.997 . S
Fe308 O314 2.002 . S
Fe308 O319 1.976 . S
Fe308 O322 1.996 . S
Fe309 O310 1.918 . S
Fe309 O317 1.997 . S
Fe309 O320 1.996 . S
Fe309 O324 1.976 . S
Fe309 O327 2.002 . S
O310 Fe308 1.918 . S
O310 Fe309 1.918 . S
O310 Fe311 1.918 . S
Fe311 O310 1.918 . S
Fe311 O312 2.002 . S
Fe311 O321 1.976 . S
Fe311 O325 1.996 . S
Fe311 O328 1.997 . S
O312 Fe311 2.002 . S
O312 C329 1.295 . S
O313 Fe308 1.997 . S
O313 C329 1.235 . S
O314 Fe308 2.002 . S
O314 C315 1.295 . S
C315 O314 1.295 . S
C315 O317 1.235 . S
C316 O321 1.287 . S
C316 O322 1.255 . S
O317 Fe309 1.997 . S
O317 C315 1.235 . S
C318 O324 1.287 . S
C318 O325 1.255 . S
O319 Fe308 1.976 . S
O319 C326 1.287 . S
O320 Fe309 1.996 . S
O320 C326 1.255 . S
O321 Fe311 1.976 . S
O321 C316 1.287 . S
O322 Fe308 1.996 . S
O322 C316 1.255 . S
C323 O327 1.295 . S
C323 O328 1.235 . S
O324 Fe309 1.976 . S
O324 C318 1.287 . S
O325 Fe311 1.996 . S
O325 C318 1.255 . S
C326 O319 1.287 . S
C326 O320 1.255 . S
O327 Fe309 2.002 . S
O327 C323 1.295 . S
O328 Fe311 1.997 . S
O328 C323 1.235 . S
C329 O312 1.295 . S
C329 O313 1.235 . S
Fe330 O332 1.918 . S
Fe330 O335 1.997 . S
Fe330 O336 2.002 . S
Fe330 O341 1.976 . S
Fe330 O344 1.996 . S
Fe331 O332 1.918 . S
Fe331 O339 1.997 . S
Fe331 O342 1.996 . S
Fe331 O346 1.976 . S
Fe331 O349 2.002 . S
O332 Fe330 1.918 . S
O332 Fe331 1.918 . S
O332 Fe333 1.918 . S
Fe333 O332 1.918 . S
Fe333 O334 2.002 . S
Fe333 O343 1.976 . S
Fe333 O347 1.996 . S
Fe333 O350 1.997 . S
O334 Fe333 2.002 . S
O334 C351 1.295 . S
O335 Fe330 1.997 . S
O335 C351 1.235 . S
O336 Fe330 2.002 . S
O336 C337 1.295 . S
C337 O336 1.295 . S
C337 O339 1.235 . S
C338 O343 1.287 . S
C338 O344 1.255 . S
O339 Fe331 1.997 . S
O339 C337 1.235 . S
C340 O346 1.287 . S
C340 O347 1.255 . S
O341 Fe330 1.976 . S
O341 C348 1.287 . S
O342 Fe331 1.996 . S
O342 C348 1.255 . S
O343 Fe333 1.976 . S
O343 C338 1.287 . S
O344 Fe330 1.996 . S
O344 C338 1.255 . S
C345 O349 1.295 . S
C345 O350 1.235 . S
O346 Fe331 1.976 . S
O346 C340 1.287 . S
O347 Fe333 1.996 . S
O347 C340 1.255 . S
C348 O341 1.287 . S
C348 O342 1.255 . S
O349 Fe331 2.002 . S
O349 C345 1.295 . S
O350 Fe333 1.997 . S
O350 C345 1.235 . S
C351 O334 1.295 . S
C351 O335 1.235 . S
C352 C353 1.391 . S
C352 C354 1.394 . S
C352 H368 0.931 . S
C353 C352 1.391 . S
C353 C357 1.376 . S
C354 C352 1.394 . S
C354 C355 1.369 . S
C354 C358 1.531 . S
C355 C354 1.369 . S
C355 C356 1.410 . S
C355 C363 1.503 . S
C356 C355 1.410 . S
C356 C357 1.392 . S
C356 C359 1.511 . S
C357 C353 1.376 . S
C357 C356 1.392 . S
C357 H369 0.929 . S
C358 C354 1.531 . S
C358 H370 0.960 . S
C358 H371 0.962 . S
C358 H372 0.960 . S
C359 C356 1.511 . S
C359 H373 0.961 . S
C359 H374 0.961 . S
C359 H375 0.961 . S
C360 C361 1.370 . S
C360 C362 1.363 . S
C360 H376 0.931 . S
C361 C360 1.370 . S
C361 C365 1.408 . S
C362 C360 1.363 . S
C362 C363 1.370 . S
C362 C366 1.524 . S
C363 C355 1.503 . S
C363 C362 1.370 . S
C363 C364 1.403 . S
C364 C363 1.403 . S
C364 C365 1.404 . S
C364 C367 1.539 . S
C365 C361 1.408 . S
C365 C364 1.404 . S
C365 H377 0.930 . S
C366 C362 1.524 . S
C366 H378 0.956 . S
C366 H379 0.961 . S
C366 H380 0.961 . S
C367 C364 1.539 . S
C367 H381 0.958 . S
C367 H382 0.961 . S
C367 H383 0.960 . S
H368 C352 0.931 . S
H369 C357 0.929 . S
H370 C358 0.960 . S
H371 C358 0.962 . S
H372 C358 0.960 . S
H373 C359 0.961 . S
H374 C359 0.961 . S
H375 C359 0.961 . S
H376 C360 0.931 . S
H377 C365 0.930 . S
H378 C366 0.956 . S
H379 C366 0.961 . S
H380 C366 0.961 . S
H381 C367 0.958 . S
H382 C367 0.961 . S
H383 C367 0.960 . S
C384 C385 1.391 . S
C384 C386 1.394 . S
C384 H400 0.931 . S
C385 C384 1.391 . S
C385 C389 1.376 . S
C386 C384 1.394 . S
C386 C387 1.369 . S
C386 C390 1.531 . S
C387 C386 1.369 . S
C387 C388 1.410 . S
C387 C395 1.503 . S
C388 C387 1.410 . S
C388 C389 1.392 . S
C388 C391 1.511 . S
C389 C385 1.376 . S
C389 C388 1.392 . S
C389 H401 0.929 . S
C390 C386 1.531 . S
C390 H402 0.960 . S
C390 H403 0.962 . S
C390 H404 0.960 . S
C391 C388 1.511 . S
C391 H405 0.961 . S
C391 H406 0.961 . S
C391 H407 0.961 . S
C392 C393 1.370 . S
C392 C394 1.363 . S
C392 H408 0.931 . S
C393 C392 1.370 . S
C393 C397 1.408 . S
C394 C392 1.363 . S
C394 C395 1.370 . S
C394 C398 1.524 . S
C395 C387 1.503 . S
C395 C394 1.370 . S
C395 C396 1.403 . S
C396 C395 1.403 . S
C396 C397 1.404 . S
C396 C399 1.539 . S
C397 C393 1.408 . S
C397 C396 1.404 . S
C397 H409 0.930 . S
C398 C394 1.524 . S
C398 H410 0.956 . S
C398 H411 0.961 . S
C398 H412 0.961 . S
C399 C396 1.539 . S
C399 H413 0.958 . S
C399 H414 0.961 . S
C399 H415 0.960 . S
H400 C384 0.931 . S
H401 C389 0.929 . S
H402 C390 0.960 . S
H403 C390 0.962 . S
H404 C390 0.960 . S
H405 C391 0.961 . S
H406 C391 0.961 . S
H407 C391 0.961 . S
H408 C392 0.931 . S
H409 C397 0.930 . S
H410 C398 0.956 . S
H411 C398 0.961 . S
H412 C398 0.961 . S
H413 C399 0.958 . S
H414 C399 0.961 . S
H415 C399 0.960 . S
C416 C417 1.391 . S
C416 C418 1.394 . S
C416 H432 0.931 . S
C417 C416 1.391 . S
C417 C421 1.376 . S
C418 C416 1.394 . S
C418 C419 1.369 . S
C418 C422 1.531 . S
C419 C418 1.369 . S
C419 C420 1.410 . S
C419 C427 1.503 . S
C420 C419 1.410 . S
C420 C421 1.392 . S
C420 C423 1.511 . S
C421 C417 1.376 . S
C421 C420 1.392 . S
C421 H433 0.929 . S
C422 C418 1.531 . S
C422 H434 0.960 . S
C422 H435 0.962 . S
C422 H436 0.960 . S
C423 C420 1.511 . S
C423 H437 0.961 . S
C423 H438 0.961 . S
C423 H439 0.961 . S
C424 C425 1.370 . S
C424 C426 1.363 . S
C424 H440 0.931 . S
C425 C424 1.370 . S
C425 C429 1.408 . S
C426 C424 1.363 . S
C426 C427 1.370 . S
C426 C430 1.524 . S
C427 C419 1.503 . S
C427 C426 1.370 . S
C427 C428 1.403 . S
C428 C427 1.403 . S
C428 C429 1.404 . S
C428 C431 1.539 . S
C429 C425 1.408 . S
C429 C428 1.404 . S
C429 H441 0.930 . S
C430 C426 1.524 . S
C430 H442 0.956 . S
C430 H443 0.961 . S
C430 H444 0.961 . S
C431 C428 1.539 . S
C431 H445 0.958 . S
C431 H446 0.961 . S
C431 H447 0.960 . S
H432 C416 0.931 . S
H433 C421 0.929 . S
H434 C422 0.960 . S
H435 C422 0.962 . S
H436 C422 0.960 . S
H437 C423 0.961 . S
H438 C423 0.961 . S
H439 C423 0.961 . S
H440 C424 0.931 . S
H441 C429 0.930 . S
H442 C430 0.956 . S
H443 C430 0.961 . S
H444 C430 0.961 . S
H445 C431 0.958 . S
H446 C431 0.961 . S
H447 C431 0.960 . S
C448 C449 1.391 . S
C448 C450 1.394 . S
C448 H464 0.931 . S
C449 C448 1.391 . S
C449 C453 1.376 . S
C450 C448 1.394 . S
C450 C451 1.369 . S
C450 C454 1.531 . S
C451 C450 1.369 . S
C451 C452 1.410 . S
C451 C459 1.503 . S
C452 C451 1.410 . S
C452 C453 1.392 . S
C452 C455 1.511 . S
C453 C449 1.376 . S
C453 C452 1.392 . S
C453 H465 0.929 . S
C454 C450 1.531 . S
C454 H466 0.960 . S
C454 H467 0.962 . S
C454 H468 0.960 . S
C455 C452 1.511 . S
C455 H469 0.961 . S
C455 H470 0.961 . S
C455 H471 0.961 . S
C456 C457 1.370 . S
C456 C458 1.363 . S
C456 H472 0.931 . S
C457 C456 1.370 . S
C457 C461 1.408 . S
C458 C456 1.363 . S
C458 C459 1.370 . S
C458 C462 1.524 . S
C459 C451 1.503 . S
C459 C458 1.370 . S
C459 C460 1.403 . S
C460 C459 1.403 . S
C460 C461 1.404 . S
C460 C463 1.539 . S
C461 C457 1.408 . S
C461 C460 1.404 . S
C461 H473 0.930 . S
C462 C458 1.524 . S
C462 H474 0.956 . S
C462 H475 0.961 . S
C462 H476 0.961 . S
C463 C460 1.539 . S
C463 H477 0.958 . S
C463 H478 0.961 . S
C463 H479 0.960 . S
H464 C448 0.931 . S
H465 C453 0.929 . S
H466 C454 0.960 . S
H467 C454 0.962 . S
H468 C454 0.960 . S
H469 C455 0.961 . S
H470 C455 0.961 . S
H471 C455 0.961 . S
H472 C456 0.931 . S
H473 C461 0.930 . S
H474 C462 0.956 . S
H475 C462 0.961 . S
H476 C462 0.961 . S
H477 C463 0.958 . S
H478 C463 0.961 . S
H479 C463 0.960 . S
C480 C481 1.391 . S
C480 C482 1.394 . S
C480 H496 0.931 . S
C481 C480 1.391 . S
C481 C485 1.376 . S
C482 C480 1.394 . S
C482 C483 1.369 . S
C482 C486 1.531 . S
C483 C482 1.369 . S
C483 C484 1.410 . S
C483 C491 1.503 . S
C484 C483 1.410 . S
C484 C485 1.392 . S
C484 C487 1.511 . S
C485 C481 1.376 . S
C485 C484 1.392 . S
C485 H497 0.929 . S
C486 C482 1.531 . S
C486 H498 0.960 . S
C486 H499 0.962 . S
C486 H500 0.960 . S
C487 C484 1.511 . S
C487 H501 0.961 . S
C487 H502 0.961 . S
C487 H503 0.961 . S
C488 C489 1.370 . S
C488 C490 1.363 . S
C488 H504 0.931 . S
C489 C488 1.370 . S
C489 C493 1.408 . S
C490 C488 1.363 . S
C490 C491 1.370 . S
C490 C494 1.524 . S
C491 C483 1.503 . S
C491 C490 1.370 . S
C491 C492 1.403 . S
C492 C491 1.403 . S
C492 C493 1.404 . S
C492 C495 1.539 . S
C493 C489 1.408 . S
C493 C492 1.404 . S
C493 H505 0.930 . S
C494 C490 1.524 . S
C494 H506 0.956 . S
C494 H507 0.961 . S
C494 H508 0.961 . S
C495 C492 1.539 . S
C495 H509 0.958 . S
C495 H510 0.961 . S
C495 H511 0.960 . S
H496 C480 0.931 . S
H497 C485 0.929 . S
H498 C486 0.960 . S
H499 C486 0.962 . S
H500 C486 0.960 . S
H501 C487 0.961 . S
H502 C487 0.961 . S
H503 C487 0.961 . S
H504 C488 0.931 . S
H505 C493 0.930 . S
H506 C494 0.956 . S
H507 C494 0.961 . S
H508 C494 0.961 . S
H509 C495 0.958 . S
H510 C495 0.961 . S
H511 C495 0.960 . S
C512 C513 1.391 . S
C512 C514 1.394 . S
C512 H528 0.931 . S
C513 C512 1.391 . S
C513 C517 1.376 . S
C514 C512 1.394 . S
C514 C515 1.369 . S
C514 C518 1.531 . S
C515 C514 1.369 . S
C515 C516 1.410 . S
C515 C523 1.503 . S
C516 C515 1.410 . S
C516 C517 1.392 . S
C516 C519 1.511 . S
C517 C513 1.376 . S
C517 C516 1.392 . S
C517 H529 0.929 . S
C518 C514 1.531 . S
C518 H530 0.960 . S
C518 H531 0.962 . S
C518 H532 0.960 . S
C519 C516 1.511 . S
C519 H533 0.961 . S
C519 H534 0.961 . S
C519 H535 0.961 . S
C520 C521 1.370 . S
C520 C522 1.363 . S
C520 H536 0.931 . S
C521 C520 1.370 . S
C521 C525 1.408 . S
C522 C520 1.363 . S
C522 C523 1.370 . S
C522 C526 1.524 . S
C523 C515 1.503 . S
C523 C522 1.370 . S
C523 C524 1.403 . S
C524 C523 1.403 . S
C524 C525 1.404 . S
C524 C527 1.539 . S
C525 C521 1.408 . S
C525 C524 1.404 . S
C525 H537 0.930 . S
C526 C522 1.524 . S
C526 H538 0.956 . S
C526 H539 0.961 . S
C526 H540 0.961 . S
C527 C524 1.539 . S
C527 H541 0.958 . S
C527 H542 0.961 . S
C527 H543 0.960 . S
H528 C512 0.931 . S
H529 C517 0.929 . S
H530 C518 0.960 . S
H531 C518 0.962 . S
H532 C518 0.960 . S
H533 C519 0.961 . S
H534 C519 0.961 . S
H535 C519 0.961 . S
H536 C520 0.931 . S
H537 C525 0.930 . S
H538 C526 0.956 . S
H539 C526 0.961 . S
H540 C526 0.961 . S
H541 C527 0.958 . S
H542 C527 0.961 . S
H543 C527 0.960 . S
C544 C545 1.391 . S
C544 C546 1.394 . S
C544 H560 0.931 . S
C545 C544 1.391 . S
C545 C549 1.376 . S
C546 C544 1.394 . S
C546 C547 1.369 . S
C546 C550 1.531 . S
C547 C546 1.369 . S
C547 C548 1.410 . S
C547 C555 1.503 . S
C548 C547 1.410 . S
C548 C549 1.392 . S
C548 C551 1.511 . S
C549 C545 1.376 . S
C549 C548 1.392 . S
C549 H561 0.929 . S
C550 C546 1.531 . S
C550 H562 0.960 . S
C550 H563 0.962 . S
C550 H564 0.960 . S
C551 C548 1.511 . S
C551 H565 0.961 . S
C551 H566 0.961 . S
C551 H567 0.961 . S
C552 C553 1.370 . S
C552 C554 1.363 . S
C552 H568 0.931 . S
C553 C552 1.370 . S
C553 C557 1.408 . S
C554 C552 1.363 . S
C554 C555 1.370 . S
C554 C558 1.524 . S
C555 C547 1.503 . S
C555 C554 1.370 . S
C555 C556 1.403 . S
C556 C555 1.403 . S
C556 C557 1.404 . S
C556 C559 1.539 . S
C557 C553 1.408 . S
C557 C556 1.404 . S
C557 H569 0.930 . S
C558 C554 1.524 . S
C558 H570 0.956 . S
C558 H571 0.961 . S
C558 H572 0.961 . S
C559 C556 1.539 . S
C559 H573 0.958 . S
C559 H574 0.961 . S
C559 H575 0.960 . S
H560 C544 0.931 . S
H561 C549 0.929 . S
H562 C550 0.960 . S
H563 C550 0.962 . S
H564 C550 0.960 . S
H565 C551 0.961 . S
H566 C551 0.961 . S
H567 C551 0.961 . S
H568 C552 0.931 . S
H569 C557 0.930 . S
H570 C558 0.956 . S
H571 C558 0.961 . S
H572 C558 0.961 . S
H573 C559 0.958 . S
H574 C559 0.961 . S
H575 C559 0.960 . S
C576 C577 1.391 . S
C576 C578 1.394 . S
C576 H592 0.931 . S
C577 C576 1.391 . S
C577 C581 1.376 . S
C578 C576 1.394 . S
C578 C579 1.369 . S
C578 C582 1.531 . S
C579 C578 1.369 . S
C579 C580 1.410 . S
C579 C587 1.503 . S
C580 C579 1.410 . S
C580 C581 1.392 . S
C580 C583 1.511 . S
C581 C577 1.376 . S
C581 C580 1.392 . S
C581 H593 0.929 . S
C582 C578 1.531 . S
C582 H594 0.960 . S
C582 H595 0.962 . S
C582 H596 0.960 . S
C583 C580 1.511 . S
C583 H597 0.961 . S
C583 H598 0.961 . S
C583 H599 0.961 . S
C584 C585 1.370 . S
C584 C586 1.363 . S
C584 H600 0.931 . S
C585 C584 1.370 . S
C585 C589 1.408 . S
C586 C584 1.363 . S
C586 C587 1.370 . S
C586 C590 1.524 . S
C587 C579 1.503 . S
C587 C586 1.370 . S
C587 C588 1.403 . S
C588 C587 1.403 . S
C588 C589 1.404 . S
C588 C591 1.539 . S
C589 C585 1.408 . S
C589 C588 1.404 . S
C589 H601 0.930 . S
C590 C586 1.524 . S
C590 H602 0.956 . S
C590 H603 0.961 . S
C590 H604 0.961 . S
C591 C588 1.539 . S
C591 H605 0.958 . S
C591 H606 0.961 . S
C591 H607 0.960 . S
H592 C576 0.931 . S
H593 C581 0.929 . S
H594 C582 0.960 . S
H595 C582 0.962 . S
H596 C582 0.960 . S
H597 C583 0.961 . S
H598 C583 0.961 . S
H599 C583 0.961 . S
H600 C584 0.931 . S
H601 C589 0.930 . S
H602 C590 0.956 . S
H603 C590 0.961 . S
H604 C590 0.961 . S
H605 C591 0.958 . S
H606 C591 0.961 . S
H607 C591 0.960 . S
C608 C609 1.391 . S
C608 C610 1.394 . S
C608 H624 0.931 . S
C609 C608 1.391 . S
C609 C613 1.376 . S
C610 C608 1.394 . S
C610 C611 1.369 . S
C610 C614 1.531 . S
C611 C610 1.369 . S
C611 C612 1.410 . S
C611 C619 1.503 . S
C612 C611 1.410 . S
C612 C613 1.392 . S
C612 C615 1.511 . S
C613 C609 1.376 . S
C613 C612 1.392 . S
C613 H625 0.929 . S
C614 C610 1.531 . S
C614 H626 0.960 . S
C614 H627 0.962 . S
C614 H628 0.960 . S
C615 C612 1.511 . S
C615 H629 0.961 . S
C615 H630 0.961 . S
C615 H631 0.961 . S
C616 C617 1.370 . S
C616 C618 1.363 . S
C616 H632 0.931 . S
C617 C616 1.370 . S
C617 C621 1.408 . S
C618 C616 1.363 . S
C618 C619 1.370 . S
C618 C622 1.524 . S
C619 C611 1.503 . S
C619 C618 1.370 . S
C619 C620 1.403 . S
C620 C619 1.403 . S
C620 C621 1.404 . S
C620 C623 1.539 . S
C621 C617 1.408 . S
C621 C620 1.404 . S
C621 H633 0.930 . S
C622 C618 1.524 . S
C622 H634 0.956 . S
C622 H635 0.961 . S
C622 H636 0.961 . S
C623 C620 1.539 . S
C623 H637 0.958 . S
C623 H638 0.961 . S
C623 H639 0.960 . S
H624 C608 0.931 . S
H625 C613 0.929 . S
H626 C614 0.960 . S
H627 C614 0.962 . S
H628 C614 0.960 . S
H629 C615 0.961 . S
H630 C615 0.961 . S
H631 C615 0.961 . S
H632 C616 0.931 . S
H633 C621 0.930 . S
H634 C622 0.956 . S
H635 C622 0.961 . S
H636 C622 0.961 . S
H637 C623 0.958 . S
H638 C623 0.961 . S
H639 C623 0.960 . S
C640 C641 1.391 . S
C640 C642 1.394 . S
C640 H656 0.931 . S
C641 C640 1.391 . S
C641 C645 1.376 . S
C642 C640 1.394 . S
C642 C643 1.369 . S
C642 C646 1.531 . S
C643 C642 1.369 . S
C643 C644 1.410 . S
C643 C651 1.503 . S
C644 C643 1.410 . S
C644 C645 1.392 . S
C644 C647 1.511 . S
C645 C641 1.376 . S
C645 C644 1.392 . S
C645 H657 0.929 . S
C646 C642 1.531 . S
C646 H658 0.960 . S
C646 H659 0.962 . S
C646 H660 0.960 . S
C647 C644 1.511 . S
C647 H661 0.961 . S
C647 H662 0.961 . S
C647 H663 0.961 . S
C648 C649 1.370 . S
C648 C650 1.363 . S
C648 H664 0.931 . S
C649 C648 1.370 . S
C649 C653 1.408 . S
C650 C648 1.363 . S
C650 C651 1.370 . S
C650 C654 1.524 . S
C651 C643 1.503 . S
C651 C650 1.370 . S
C651 C652 1.403 . S
C652 C651 1.403 . S
C652 C653 1.404 . S
C652 C655 1.539 . S
C653 C649 1.408 . S
C653 C652 1.404 . S
C653 H665 0.930 . S
C654 C650 1.524 . S
C654 H666 0.956 . S
C654 H667 0.961 . S
C654 H668 0.961 . S
C655 C652 1.539 . S
C655 H669 0.958 . S
C655 H670 0.961 . S
C655 H671 0.960 . S
H656 C640 0.931 . S
H657 C645 0.929 . S
H658 C646 0.960 . S
H659 C646 0.962 . S
H660 C646 0.960 . S
H661 C647 0.961 . S
H662 C647 0.961 . S
H663 C647 0.961 . S
H664 C648 0.931 . S
H665 C653 0.930 . S
H666 C654 0.956 . S
H667 C654 0.961 . S
H668 C654 0.961 . S
H669 C655 0.958 . S
H670 C655 0.961 . S
H671 C655 0.960 . S
C672 C673 1.391 . S
C672 C674 1.394 . S
C672 H688 0.931 . S
C673 C672 1.391 . S
C673 C677 1.376 . S
C674 C672 1.394 . S
C674 C675 1.369 . S
C674 C678 1.531 . S
C675 C674 1.369 . S
C675 C676 1.410 . S
C675 C683 1.503 . S
C676 C675 1.410 . S
C676 C677 1.392 . S
C676 C679 1.511 . S
C677 C673 1.376 . S
C677 C676 1.392 . S
C677 H689 0.929 . S
C678 C674 1.531 . S
C678 H690 0.960 . S
C678 H691 0.962 . S
C678 H692 0.960 . S
C679 C676 1.511 . S
C679 H693 0.961 . S
C679 H694 0.961 . S
C679 H695 0.961 . S
C680 C681 1.370 . S
C680 C682 1.363 . S
C680 H696 0.931 . S
C681 C680 1.370 . S
C681 C685 1.408 . S
C682 C680 1.363 . S
C682 C683 1.370 . S
C682 C686 1.524 . S
C683 C675 1.503 . S
C683 C682 1.370 . S
C683 C684 1.403 . S
C684 C683 1.403 . S
C684 C685 1.404 . S
C684 C687 1.539 . S
C685 C681 1.408 . S
C685 C684 1.404 . S
C685 H697 0.930 . S
C686 C682 1.524 . S
C686 H698 0.956 . S
C686 H699 0.961 . S
C686 H700 0.961 . S
C687 C684 1.539 . S
C687 H701 0.958 . S
C687 H702 0.961 . S
C687 H703 0.960 . S
H688 C672 0.931 . S
H689 C677 0.929 . S
H690 C678 0.960 . S
H691 C678 0.962 . S
H692 C678 0.960 . S
H693 C679 0.961 . S
H694 C679 0.961 . S
H695 C679 0.961 . S
H696 C680 0.931 . S
H697 C685 0.930 . S
H698 C686 0.956 . S
H699 C686 0.961 . S
H700 C686 0.961 . S
H701 C687 0.958 . S
H702 C687 0.961 . S
H703 C687 0.960 . S
C704 C705 1.391 . S
C704 C706 1.394 . S
C704 H720 0.931 . S
C705 C704 1.391 . S
C705 C709 1.376 . S
C706 C704 1.394 . S
C706 C707 1.369 . S
C706 C710 1.531 . S
C707 C706 1.369 . S
C707 C708 1.410 . S
C707 C715 1.503 . S
C708 C707 1.410 . S
C708 C709 1.392 . S
C708 C711 1.511 . S
C709 C705 1.376 . S
C709 C708 1.392 . S
C709 H721 0.929 . S
C710 C706 1.531 . S
C710 H722 0.960 . S
C710 H723 0.962 . S
C710 H724 0.960 . S
C711 C708 1.511 . S
C711 H725 0.961 . S
C711 H726 0.961 . S
C711 H727 0.961 . S
C712 C713 1.370 . S
C712 C714 1.363 . S
C712 H728 0.931 . S
C713 C712 1.370 . S
C713 C717 1.408 . S
C714 C712 1.363 . S
C714 C715 1.370 . S
C714 C718 1.524 . S
C715 C707 1.503 . S
C715 C714 1.370 . S
C715 C716 1.403 . S
C716 C715 1.403 . S
C716 C717 1.404 . S
C716 C719 1.539 . S
C717 C713 1.408 . S
C717 C716 1.404 . S
C717 H729 0.930 . S
C718 C714 1.524 . S
C718 H730 0.956 . S
C718 H731 0.961 . S
C718 H732 0.961 . S
C719 C716 1.539 . S
C719 H733 0.958 . S
C719 H734 0.961 . S
C719 H735 0.960 . S
H720 C704 0.931 . S
H721 C709 0.929 . S
H722 C710 0.960 . S
H723 C710 0.962 . S
H724 C710 0.960 . S
H725 C711 0.961 . S
H726 C711 0.961 . S
H727 C711 0.961 . S
H728 C712 0.931 . S
H729 C717 0.930 . S
H730 C718 0.956 . S
H731 C718 0.961 . S
H732 C718 0.961 . S
H733 C719 0.958 . S
H734 C719 0.961 . S
H735 C719 0.960 . S
C736 C737 1.391 . S
C736 C738 1.394 . S
C736 H752 0.931 . S
C737 C736 1.391 . S
C737 C741 1.376 . S
C738 C736 1.394 . S
C738 C739 1.369 . S
C738 C742 1.531 . S
C739 C738 1.369 . S
C739 C740 1.410 . S
C739 C747 1.503 . S
C740 C739 1.410 . S
C740 C741 1.392 . S
C740 C743 1.511 . S
C741 C737 1.376 . S
C741 C740 1.392 . S
C741 H753 0.929 . S
C742 C738 1.531 . S
C742 H754 0.960 . S
C742 H755 0.962 . S
C742 H756 0.960 . S
C743 C740 1.511 . S
C743 H757 0.961 . S
C743 H758 0.961 . S
C743 H759 0.961 . S
C744 C745 1.370 . S
C744 C746 1.363 . S
C744 H760 0.931 . S
C745 C744 1.370 . S
C745 C749 1.408 . S
C746 C744 1.363 . S
C746 C747 1.370 . S
C746 C750 1.524 . S
C747 C739 1.503 . S
C747 C746 1.370 . S
C747 C748 1.403 . S
C748 C747 1.403 . S
C748 C749 1.404 . S
C748 C751 1.539 . S
C749 C745 1.408 . S
C749 C748 1.404 . S
C749 H761 0.930 . S
C750 C746 1.524 . S
C750 H762 0.956 . S
C750 H763 0.961 . S
C750 H764 0.961 . S
C751 C748 1.539 . S
C751 H765 0.958 . S
C751 H766 0.961 . S
C751 H767 0.960 . S
H752 C736 0.931 . S
H753 C741 0.929 . S
H754 C742 0.960 . S
H755 C742 0.962 . S
H756 C742 0.960 . S
H757 C743 0.961 . S
H758 C743 0.961 . S
H759 C743 0.961 . S
H760 C744 0.931 . S
H761 C749 0.930 . S
H762 C750 0.956 . S
H763 C750 0.961 . S
H764 C750 0.961 . S
H765 C751 0.958 . S
H766 C751 0.961 . S
H767 C751 0.960 . S
C768 C769 1.391 . S
C768 C770 1.394 . S
C768 H784 0.931 . S
C769 C768 1.391 . S
C769 C773 1.376 . S
C770 C768 1.394 . S
C770 C771 1.369 . S
C770 C774 1.531 . S
C771 C770 1.369 . S
C771 C772 1.410 . S
C771 C779 1.503 . S
C772 C771 1.410 . S
C772 C773 1.392 . S
C772 C775 1.511 . S
C773 C769 1.376 . S
C773 C772 1.392 . S
C773 H785 0.929 . S
C774 C770 1.531 . S
C774 H786 0.960 . S
C774 H787 0.962 . S
C774 H788 0.960 . S
C775 C772 1.511 . S
C775 H789 0.961 . S
C775 H790 0.961 . S
C775 H791 0.961 . S
C776 C777 1.370 . S
C776 C778 1.363 . S
C776 H792 0.931 . S
C777 C776 1.370 . S
C777 C781 1.408 . S
C778 C776 1.363 . S
C778 C779 1.370 . S
C778 C782 1.524 . S
C779 C771 1.503 . S
C779 C778 1.370 . S
C779 C780 1.403 . S
C780 C779 1.403 . S
C780 C781 1.404 . S
C780 C783 1.539 . S
C781 C777 1.408 . S
C781 C780 1.404 . S
C781 H793 0.930 . S
C782 C778 1.524 . S
C782 H794 0.956 . S
C782 H795 0.961 . S
C782 H796 0.961 . S
C783 C780 1.539 . S
C783 H797 0.958 . S
C783 H798 0.961 . S
C783 H799 0.960 . S
H784 C768 0.931 . S
H785 C773 0.929 . S
H786 C774 0.960 . S
H787 C774 0.962 . S
H788 C774 0.960 . S
H789 C775 0.961 . S
H790 C775 0.961 . S
H791 C775 0.961 . S
H792 C776 0.931 . S
H793 C781 0.930 . S
H794 C782 0.956 . S
H795 C782 0.961 . S
H796 C782 0.961 . S
H797 C783 0.958 . S
H798 C783 0.961 . S
H799 C783 0.960 . S
C800 C801 1.391 . S
C800 C802 1.394 . S
C800 H816 0.931 . S
C801 C800 1.391 . S
C801 C805 1.376 . S
C802 C800 1.394 . S
C802 C803 1.369 . S
C802 C806 1.531 . S
C803 C802 1.369 . S
C803 C804 1.410 . S
C803 C811 1.503 . S
C804 C803 1.410 . S
C804 C805 1.392 . S
C804 C807 1.511 . S
C805 C801 1.376 . S
C805 C804 1.392 . S
C805 H817 0.929 . S
C806 C802 1.531 . S
C806 H818 0.960 . S
C806 H819 0.962 . S
C806 H820 0.960 . S
C807 C804 1.511 . S
C807 H821 0.961 . S
C807 H822 0.961 . S
C807 H823 0.961 . S
C808 C809 1.370 . S
C808 C810 1.363 . S
C808 H824 0.931 . S
C809 C808 1.370 . S
C809 C813 1.408 . S
C810 C808 1.363 . S
C810 C811 1.370 . S
C810 C814 1.524 . S
C811 C803 1.503 . S
C811 C810 1.370 . S
C811 C812 1.403 . S
C812 C811 1.403 . S
C812 C813 1.404 . S
C812 C815 1.539 . S
C813 C809 1.408 . S
C813 C812 1.404 . S
C813 H825 0.930 . S
C814 C810 1.524 . S
C814 H826 0.956 . S
C814 H827 0.961 . S
C814 H828 0.961 . S
C815 C812 1.539 . S
C815 H829 0.958 . S
C815 H830 0.961 . S
C815 H831 0.960 . S
H816 C800 0.931 . S
H817 C805 0.929 . S
H818 C806 0.960 . S
H819 C806 0.962 . S
H820 C806 0.960 . S
H821 C807 0.961 . S
H822 C807 0.961 . S
H823 C807 0.961 . S
H824 C808 0.931 . S
H825 C813 0.930 . S
H826 C814 0.956 . S
H827 C814 0.961 . S
H828 C814 0.961 . S
H829 C815 0.958 . S
H830 C815 0.961 . S
H831 C815 0.960 . S
C832 C833 1.391 . S
C832 C834 1.394 . S
C832 H848 0.931 . S
C833 C832 1.391 . S
C833 C837 1.376 . S
C834 C832 1.394 . S
C834 C835 1.369 . S
C834 C838 1.531 . S
C835 C834 1.369 . S
C835 C836 1.410 . S
C835 C843 1.503 . S
C836 C835 1.410 . S
C836 C837 1.392 . S
C836 C839 1.511 . S
C837 C833 1.376 . S
C837 C836 1.392 . S
C837 H849 0.929 . S
C838 C834 1.531 . S
C838 H850 0.960 . S
C838 H851 0.962 . S
C838 H852 0.960 . S
C839 C836 1.511 . S
C839 H853 0.961 . S
C839 H854 0.961 . S
C839 H855 0.961 . S
C840 C841 1.370 . S
C840 C842 1.363 . S
C840 H856 0.931 . S
C841 C840 1.370 . S
C841 C845 1.408 . S
C842 C840 1.363 . S
C842 C843 1.370 . S
C842 C846 1.524 . S
C843 C835 1.503 . S
C843 C842 1.370 . S
C843 C844 1.403 . S
C844 C843 1.403 . S
C844 C845 1.404 . S
C844 C847 1.539 . S
C845 C841 1.408 . S
C845 C844 1.404 . S
C845 H857 0.930 . S
C846 C842 1.524 . S
C846 H858 0.956 . S
C846 H859 0.961 . S
C846 H860 0.961 . S
C847 C844 1.539 . S
C847 H861 0.958 . S
C847 H862 0.961 . S
C847 H863 0.960 . S
H848 C832 0.931 . S
H849 C837 0.929 . S
H850 C838 0.960 . S
H851 C838 0.962 . S
H852 C838 0.960 . S
H853 C839 0.961 . S
H854 C839 0.961 . S
H855 C839 0.961 . S
H856 C840 0.931 . S
H857 C845 0.930 . S
H858 C846 0.956 . S
H859 C846 0.961 . S
H860 C846 0.961 . S
H861 C847 0.958 . S
H862 C847 0.961 . S
H863 C847 0.960 . S
C864 C865 1.391 . S
C864 C866 1.394 . S
C864 H880 0.931 . S
C865 C864 1.391 . S
C865 C869 1.376 . S
C866 C864 1.394 . S
C866 C867 1.369 1_554 S
C866 C870 1.531 1_554 S
C867 C866 1.369 1_556 S
C867 C868 1.410 . S
C867 C875 1.503 . S
C868 C867 1.410 . S
C868 C869 1.392 1_556 S
C868 C871 1.511 . S
C869 C865 1.376 . S
C869 C868 1.392 1_554 S
C869 H881 0.929 . S
C870 C866 1.531 1_556 S
C870 H882 0.960 . S
C870 H883 0.962 1_556 S
C870 H884 0.960 1_556 S
C871 C868 1.511 . S
C871 H885 0.961 . S
C871 H886 0.961 . S
C871 H887 0.961 . S
C872 C873 1.370 . S
C872 C874 1.363 . S
C872 H888 0.931 . S
C873 C872 1.370 . S
C873 C877 1.408 . S
C874 C872 1.363 . S
C874 C875 1.370 . S
C874 C878 1.524 . S
C875 C867 1.503 . S
C875 C874 1.370 . S
C875 C876 1.403 . S
C876 C875 1.403 . S
C876 C877 1.404 . S
C876 C879 1.539 . S
C877 C873 1.408 . S
C877 C876 1.404 . S
C877 H889 0.930 . S
C878 C874 1.524 . S
C878 H890 0.956 . S
C878 H891 0.961 . S
C878 H892 0.961 . S
C879 C876 1.539 . S
C879 H893 0.958 . S
C879 H894 0.961 . S
C879 H895 0.960 . S
H880 C864 0.931 . S
H881 C869 0.929 . S
H882 C870 0.960 . S
H883 C870 0.962 1_554 S
H884 C870 0.960 1_554 S
H885 C871 0.961 . S
H886 C871 0.961 . S
H887 C871 0.961 . S
H888 C872 0.931 . S
H889 C877 0.930 . S
H890 C878 0.956 . S
H891 C878 0.961 . S
H892 C878 0.961 . S
H893 C879 0.958 . S
H894 C879 0.961 . S
H895 C879 0.960 . S
C896 C897 1.391 . S
C896 C898 1.394 . S
C896 H912 0.931 . S
C897 C896 1.391 . S
C897 C901 1.376 . S
C898 C896 1.394 . S
C898 C899 1.369 . S
C898 C902 1.531 . S
C899 C898 1.369 . S
C899 C900 1.410 . S
C899 C907 1.503 . S
C900 C899 1.410 . S
C900 C901 1.392 . S
C900 C903 1.511 . S
C901 C897 1.376 . S
C901 C900 1.392 . S
C901 H913 0.929 . S
C902 C898 1.531 . S
C902 H914 0.960 . S
C902 H915 0.962 . S
C902 H916 0.960 . S
C903 C900 1.511 . S
C903 H917 0.961 . S
C903 H918 0.961 . S
C903 H919 0.961 . S
C904 C905 1.370 . S
C904 C906 1.363 . S
C904 H920 0.931 . S
C905 C904 1.370 . S
C905 C909 1.408 . S
C906 C904 1.363 . S
C906 C907 1.370 . S
C906 C910 1.524 . S
C907 C899 1.503 . S
C907 C906 1.370 . S
C907 C908 1.403 . S
C908 C907 1.403 . S
C908 C909 1.404 . S
C908 C911 1.539 . S
C909 C905 1.408 . S
C909 C908 1.404 . S
C909 H921 0.930 . S
C910 C906 1.524 . S
C910 H922 0.956 . S
C910 H923 0.961 . S
C910 H924 0.961 . S
C911 C908 1.539 . S
C911 H925 0.958 . S
C911 H926 0.961 . S
C911 H927 0.960 . S
H912 C896 0.931 . S
H913 C901 0.929 . S
H914 C902 0.960 . S
H915 C902 0.962 . S
H916 C902 0.960 . S
H917 C903 0.961 . S
H918 C903 0.961 . S
H919 C903 0.961 . S
H920 C904 0.931 . S
H921 C909 0.930 . S
H922 C910 0.956 . S
H923 C910 0.961 . S
H924 C910 0.961 . S
H925 C911 0.958 . S
H926 C911 0.961 . S
H927 C911 0.960 . S
C928 C929 1.391 . S
C928 C930 1.394 . S
C928 H944 0.931 . S
C929 C928 1.391 . S
C929 C933 1.376 . S
C930 C928 1.394 . S
C930 C931 1.369 1_554 S
C930 C934 1.531 . S
C931 C930 1.369 1_556 S
C931 C932 1.410 . S
C931 C939 1.503 . S
C932 C931 1.410 . S
C932 C933 1.392 1_556 S
C932 C935 1.511 . S
C933 C929 1.376 . S
C933 C932 1.392 1_554 S
C933 H945 0.929 . S
C934 C930 1.531 . S
C934 H946 0.960 1_554 S
C934 H947 0.962 . S
C934 H948 0.960 . S
C935 C932 1.511 . S
C935 H949 0.961 . S
C935 H950 0.961 . S
C935 H951 0.961 . S
C936 C937 1.370 . S
C936 C938 1.363 . S
C936 H952 0.931 . S
C937 C936 1.370 . S
C937 C941 1.408 . S
C938 C936 1.363 . S
C938 C939 1.370 . S
C938 C942 1.524 . S
C939 C931 1.503 . S
C939 C938 1.370 . S
C939 C940 1.403 . S
C940 C939 1.403 . S
C940 C941 1.404 . S
C940 C943 1.539 . S
C941 C937 1.408 . S
C941 C940 1.404 . S
C941 H953 0.930 . S
C942 C938 1.524 . S
C942 H954 0.956 . S
C942 H955 0.961 . S
C942 H956 0.961 . S
C943 C940 1.539 . S
C943 H957 0.958 . S
C943 H958 0.961 . S
C943 H959 0.960 . S
H944 C928 0.931 . S
H945 C933 0.929 . S
H946 C934 0.960 1_556 S
H947 C934 0.962 . S
H948 C934 0.960 . S
H949 C935 0.961 . S
H950 C935 0.961 . S
H951 C935 0.961 . S
H952 C936 0.931 . S
H953 C941 0.930 . S
H954 C942 0.956 . S
H955 C942 0.961 . S
H956 C942 0.961 . S
H957 C943 0.958 . S
H958 C943 0.961 . S
H959 C943 0.960 . S
C960 C961 1.391 . S
C960 C962 1.394 . S
C960 H976 0.931 . S
C961 C960 1.391 . S
C961 C965 1.376 . S
C962 C960 1.394 . S
C962 C963 1.369 . S
C962 C966 1.531 . S
C963 C962 1.369 . S
C963 C964 1.410 . S
C963 C971 1.503 . S
C964 C963 1.410 . S
C964 C965 1.392 . S
C964 C967 1.511 . S
C965 C961 1.376 . S
C965 C964 1.392 . S
C965 H977 0.929 . S
C966 C962 1.531 . S
C966 H978 0.960 . S
C966 H979 0.962 . S
C966 H980 0.960 . S
C967 C964 1.511 . S
C967 H981 0.961 . S
C967 H982 0.961 . S
C967 H983 0.961 . S
C968 C969 1.370 . S
C968 C970 1.363 . S
C968 H984 0.931 . S
C969 C968 1.370 . S
C969 C973 1.408 . S
C970 C968 1.363 . S
C970 C971 1.370 . S
C970 C974 1.524 . S
C971 C963 1.503 . S
C971 C970 1.370 . S
C971 C972 1.403 . S
C972 C971 1.403 . S
C972 C973 1.404 . S
C972 C975 1.539 . S
C973 C969 1.408 . S
C973 C972 1.404 . S
C973 H985 0.930 . S
C974 C970 1.524 . S
C974 H986 0.956 . S
C974 H987 0.961 . S
C974 H988 0.961 . S
C975 C972 1.539 . S
C975 H989 0.958 . S
C975 H990 0.961 . S
C975 H991 0.960 . S
H976 C960 0.931 . S
H977 C965 0.929 . S
H978 C966 0.960 . S
H979 C966 0.962 . S
H980 C966 0.960 . S
H981 C967 0.961 . S
H982 C967 0.961 . S
H983 C967 0.961 . S
H984 C968 0.931 . S
H985 C973 0.930 . S
H986 C974 0.956 . S
H987 C974 0.961 . S
H988 C974 0.961 . S
H989 C975 0.958 . S
H990 C975 0.961 . S
H991 C975 0.960 . S
C992 C993 1.391 . S
C992 C994 1.394 . S
C992 H1008 0.931 . S
C993 C992 1.391 . S
C993 C997 1.376 . S
C994 C992 1.394 . S
C994 C995 1.369 1_556 S
C994 C998 1.531 . S
C995 C994 1.369 1_554 S
C995 C996 1.410 . S
C995 C1003 1.503 . S
C996 C995 1.410 . S
C996 C997 1.392 1_554 S
C996 C999 1.511 . S
C997 C993 1.376 . S
C997 C996 1.392 1_556 S
C997 H1009 0.929 . S
C998 C994 1.531 . S
C998 H1010 0.960 1_556 S
C998 H1011 0.962 . S
C998 H1012 0.960 . S
C999 C996 1.511 . S
C999 H1013 0.961 . S
C999 H1014 0.961 . S
C999 H1015 0.961 . S
C1000 C1001 1.370 . S
C1000 C1002 1.363 . S
C1000 H1016 0.931 . S
C1001 C1000 1.370 . S
C1001 C1005 1.408 . S
C1002 C1000 1.363 . S
C1002 C1003 1.370 . S
C1002 C1006 1.524 . S
C1003 C995 1.503 . S
C1003 C1002 1.370 . S
C1003 C1004 1.403 . S
C1004 C1003 1.403 . S
C1004 C1005 1.404 . S
C1004 C1007 1.539 . S
C1005 C1001 1.408 . S
C1005 C1004 1.404 . S
C1005 H1017 0.930 . S
C1006 C1002 1.524 . S
C1006 H1018 0.956 . S
C1006 H1019 0.961 . S
C1006 H1020 0.961 . S
C1007 C1004 1.539 . S
C1007 H1021 0.958 . S
C1007 H1022 0.961 . S
C1007 H1023 0.960 . S
H1008 C992 0.931 . S
H1009 C997 0.929 . S
H1010 C998 0.960 1_554 S
H1011 C998 0.962 . S
H1012 C998 0.960 . S
H1013 C999 0.961 . S
H1014 C999 0.961 . S
H1015 C999 0.961 . S
H1016 C1000 0.931 . S
H1017 C1005 0.930 . S
H1018 C1006 0.956 . S
H1019 C1006 0.961 . S
H1020 C1006 0.961 . S
H1021 C1007 0.958 . S
H1022 C1007 0.961 . S
H1023 C1007 0.960 . S
C1024 C1025 1.391 . S
C1024 C1026 1.394 . S
C1024 H1040 0.931 . S
C1025 C1024 1.391 . S
C1025 C1029 1.376 . S
C1026 C1024 1.394 . S
C1026 C1027 1.369 . S
C1026 C1030 1.531 . S
C1027 C1026 1.369 . S
C1027 C1028 1.410 . S
C1027 C1035 1.503 . S
C1028 C1027 1.410 . S
C1028 C1029 1.392 . S
C1028 C1031 1.511 . S
C1029 C1025 1.376 . S
C1029 C1028 1.392 . S
C1029 H1041 0.929 . S
C1030 C1026 1.531 . S
C1030 H1042 0.960 . S
C1030 H1043 0.962 . S
C1030 H1044 0.960 . S
C1031 C1028 1.511 . S
C1031 H1045 0.961 . S
C1031 H1046 0.961 . S
C1031 H1047 0.961 . S
C1032 C1033 1.370 . S
C1032 C1034 1.363 . S
C1032 H1048 0.931 . S
C1033 C1032 1.370 . S
C1033 C1037 1.408 . S
C1034 C1032 1.363 . S
C1034 C1035 1.370 . S
C1034 C1038 1.524 . S
C1035 C1027 1.503 . S
C1035 C1034 1.370 . S
C1035 C1036 1.403 . S
C1036 C1035 1.403 . S
C1036 C1037 1.404 . S
C1036 C1039 1.539 . S
C1037 C1033 1.408 . S
C1037 C1036 1.404 . S
C1037 H1049 0.930 . S
C1038 C1034 1.524 . S
C1038 H1050 0.956 . S
C1038 H1051 0.961 . S
C1038 H1052 0.961 . S
C1039 C1036 1.539 . S
C1039 H1053 0.958 . S
C1039 H1054 0.961 . S
C1039 H1055 0.960 . S
H1040 C1024 0.931 . S
H1041 C1029 0.929 . S
H1042 C1030 0.960 . S
H1043 C1030 0.962 . S
H1044 C1030 0.960 . S
H1045 C1031 0.961 . S
H1046 C1031 0.961 . S
H1047 C1031 0.961 . S
H1048 C1032 0.931 . S
H1049 C1037 0.930 . S
H1050 C1038 0.956 . S
H1051 C1038 0.961 . S
H1052 C1038 0.961 . S
H1053 C1039 0.958 . S
H1054 C1039 0.961 . S
H1055 C1039 0.960 . S
C1056 C1057 1.391 . S
C1056 C1058 1.394 1_556 S
C1056 H1072 0.931 . S
C1057 C1056 1.391 . S
C1057 C1061 1.376 . S
C1058 C1056 1.394 1_554 S
C1058 C1059 1.369 . S
C1058 C1062 1.531 . S
C1059 C1058 1.369 . S
C1059 C1060 1.410 1_554 S
C1059 C1067 1.503 . S
C1060 C1059 1.410 1_556 S
C1060 C1061 1.392 . S
C1060 C1063 1.511 . S
C1061 C1057 1.376 . S
C1061 C1060 1.392 . S
C1061 H1073 0.929 . S
C1062 C1058 1.531 . S
C1062 H1074 0.960 . S
C1062 H1075 0.962 . S
C1062 H1076 0.960 . S
C1063 C1060 1.511 . S
C1063 H1077 0.961 . S
C1063 H1078 0.961 1_556 S
C1063 H1079 0.961 . S
C1064 C1065 1.370 . S
C1064 C1066 1.363 . S
C1064 H1080 0.931 . S
C1065 C1064 1.370 . S
C1065 C1069 1.408 . S
C1066 C1064 1.363 . S
C1066 C1067 1.370 . S
C1066 C1070 1.524 . S
C1067 C1059 1.503 . S
C1067 C1066 1.370 . S
C1067 C1068 1.403 . S
C1068 C1067 1.403 . S
C1068 C1069 1.404 . S
C1068 C1071 1.539 . S
C1069 C1065 1.408 . S
C1069 C1068 1.404 . S
C1069 H1081 0.930 . S
C1070 C1066 1.524 . S
C1070 H1082 0.956 . S
C1070 H1083 0.961 . S
C1070 H1084 0.961 . S
C1071 C1068 1.539 . S
C1071 H1085 0.958 . S
C1071 H1086 0.961 . S
C1071 H1087 0.960 . S
H1072 C1056 0.931 . S
H1073 C1061 0.929 . S
H1074 C1062 0.960 . S
H1075 C1062 0.962 . S
H1076 C1062 0.960 . S
H1077 C1063 0.961 . S
H1078 C1063 0.961 1_554 S
H1079 C1063 0.961 . S
H1080 C1064 0.931 . S
H1081 C1069 0.930 . S
H1082 C1070 0.956 . S
H1083 C1070 0.961 . S
H1084 C1070 0.961 . S
H1085 C1071 0.958 . S
H1086 C1071 0.961 . S
H1087 C1071 0.960 . S
C1088 C1089 1.391 . S
C1088 C1090 1.394 . S
C1088 H1104 0.931 . S
C1089 C1088 1.391 . S
C1089 C1093 1.376 . S
C1090 C1088 1.394 . S
C1090 C1091 1.369 . S
C1090 C1094 1.531 . S
C1091 C1090 1.369 . S
C1091 C1092 1.410 . S
C1091 C1099 1.503 . S
C1092 C1091 1.410 . S
C1092 C1093 1.392 . S
C1092 C1095 1.511 . S
C1093 C1089 1.376 . S
C1093 C1092 1.392 . S
C1093 H1105 0.929 . S
C1094 C1090 1.531 . S
C1094 H1106 0.960 . S
C1094 H1107 0.962 . S
C1094 H1108 0.960 . S
C1095 C1092 1.511 . S
C1095 H1109 0.961 . S
C1095 H1110 0.961 . S
C1095 H1111 0.961 . S
C1096 C1097 1.370 . S
C1096 C1098 1.363 . S
C1096 H1112 0.931 . S
C1097 C1096 1.370 . S
C1097 C1101 1.408 . S
C1098 C1096 1.363 . S
C1098 C1099 1.370 . S
C1098 C1102 1.524 . S
C1099 C1091 1.503 . S
C1099 C1098 1.370 . S
C1099 C1100 1.403 . S
C1100 C1099 1.403 . S
C1100 C1101 1.404 . S
C1100 C1103 1.539 . S
C1101 C1097 1.408 . S
C1101 C1100 1.404 . S
C1101 H1113 0.930 . S
C1102 C1098 1.524 . S
C1102 H1114 0.956 . S
C1102 H1115 0.961 . S
C1102 H1116 0.961 . S
C1103 C1100 1.539 . S
C1103 H1117 0.958 . S
C1103 H1118 0.961 . S
C1103 H1119 0.960 . S
H1104 C1088 0.931 . S
H1105 C1093 0.929 . S
H1106 C1094 0.960 . S
H1107 C1094 0.962 . S
H1108 C1094 0.960 . S
H1109 C1095 0.961 . S
H1110 C1095 0.961 . S
H1111 C1095 0.961 . S
H1112 C1096 0.931 . S
H1113 C1101 0.930 . S
H1114 C1102 0.956 . S
H1115 C1102 0.961 . S
H1116 C1102 0.961 . S
H1117 C1103 0.958 . S
H1118 C1103 0.961 . S
H1119 C1103 0.960 . S
C1120 C1121 1.391 . S
C1120 C1122 1.394 . S
C1120 H1136 0.931 . S
C1121 C1120 1.391 . S
C1121 C1125 1.376 . S
C1122 C1120 1.394 . S
C1122 C1123 1.369 1_556 S
C1122 C1126 1.531 . S
C1123 C1122 1.369 1_554 S
C1123 C1124 1.410 . S
C1123 C1131 1.503 . S
C1124 C1123 1.410 . S
C1124 C1125 1.392 1_554 S
C1124 C1127 1.511 . S
C1125 C1121 1.376 . S
C1125 C1124 1.392 1_556 S
C1125 H1137 0.929 . S
C1126 C1122 1.531 . S
C1126 H1138 0.960 1_556 S
C1126 H1139 0.962 1_556 S
C1126 H1140 0.960 . S
C1127 C1124 1.511 . S
C1127 H1141 0.961 . S
C1127 H1142 0.961 . S
C1127 H1143 0.961 . S
C1128 C1129 1.370 . S
C1128 C1130 1.363 . S
C1128 H1144 0.931 . S
C1129 C1128 1.370 . S
C1129 C1133 1.408 . S
C1130 C1128 1.363 . S
C1130 C1131 1.370 . S
C1130 C1134 1.524 . S
C1131 C1123 1.503 . S
C1131 C1130 1.370 . S
C1131 C1132 1.403 . S
C1132 C1131 1.403 . S
C1132 C1133 1.404 . S
C1132 C1135 1.539 . S
C1133 C1129 1.408 . S
C1133 C1132 1.404 . S
C1133 H1145 0.930 . S
C1134 C1130 1.524 . S
C1134 H1146 0.956 . S
C1134 H1147 0.961 . S
C1134 H1148 0.961 . S
C1135 C1132 1.539 . S
C1135 H1149 0.958 . S
C1135 H1150 0.961 . S
C1135 H1151 0.960 . S
H1136 C1120 0.931 . S
H1137 C1125 0.929 . S
H1138 C1126 0.960 1_554 S
H1139 C1126 0.962 1_554 S
H1140 C1126 0.960 . S
H1141 C1127 0.961 . S
H1142 C1127 0.961 . S
H1143 C1127 0.961 . S
H1144 C1128 0.931 . S
H1145 C1133 0.930 . S
H1146 C1134 0.956 . S
H1147 C1134 0.961 . S
H1148 C1134 0.961 . S
H1149 C1135 0.958 . S
H1150 C1135 0.961 . S
H1151 C1135 0.960 . S
C1152 C1153 1.391 . S
C1152 C1154 1.394 . S
C1152 H1168 0.931 . S
C1153 C1152 1.391 . S
C1153 C1157 1.376 . S
C1154 C1152 1.394 . S
C1154 C1155 1.369 . S
C1154 C1158 1.531 . S
C1155 C1154 1.369 . S
C1155 C1156 1.410 . S
C1155 C1163 1.503 . S
C1156 C1155 1.410 . S
C1156 C1157 1.392 . S
C1156 C1159 1.511 . S
C1157 C1153 1.376 . S
C1157 C1156 1.392 . S
C1157 H1169 0.929 . S
C1158 C1154 1.531 . S
C1158 H1170 0.960 . S
C1158 H1171 0.962 . S
C1158 H1172 0.960 . S
C1159 C1156 1.511 . S
C1159 H1173 0.961 . S
C1159 H1174 0.961 . S
C1159 H1175 0.961 . S
C1160 C1161 1.370 . S
C1160 C1162 1.363 . S
C1160 H1176 0.931 . S
C1161 C1160 1.370 . S
C1161 C1165 1.408 . S
C1162 C1160 1.363 . S
C1162 C1163 1.370 . S
C1162 C1166 1.524 . S
C1163 C1155 1.503 . S
C1163 C1162 1.370 . S
C1163 C1164 1.403 . S
C1164 C1163 1.403 . S
C1164 C1165 1.404 . S
C1164 C1167 1.539 . S
C1165 C1161 1.408 . S
C1165 C1164 1.404 . S
C1165 H1177 0.930 . S
C1166 C1162 1.524 . S
C1166 H1178 0.956 . S
C1166 H1179 0.961 . S
C1166 H1180 0.961 . S
C1167 C1164 1.539 . S
C1167 H1181 0.958 . S
C1167 H1182 0.961 . S
C1167 H1183 0.960 . S
H1168 C1152 0.931 . S
H1169 C1157 0.929 . S
H1170 C1158 0.960 . S
H1171 C1158 0.962 . S
H1172 C1158 0.960 . S
H1173 C1159 0.961 . S
H1174 C1159 0.961 . S
H1175 C1159 0.961 . S
H1176 C1160 0.931 . S
H1177 C1165 0.930 . S
H1178 C1166 0.956 . S
H1179 C1166 0.961 . S
H1180 C1166 0.961 . S
H1181 C1167 0.958 . S
H1182 C1167 0.961 . S
H1183 C1167 0.960 . S
C1184 C1185 1.391 . S
C1184 C1186 1.394 1_556 S
C1184 H1200 0.931 . S
C1185 C1184 1.391 . S
C1185 C1189 1.376 . S
C1186 C1184 1.394 1_554 S
C1186 C1187 1.369 . S
C1186 C1190 1.531 . S
C1187 C1186 1.369 . S
C1187 C1188 1.410 1_554 S
C1187 C1195 1.503 . S
C1188 C1187 1.410 1_556 S
C1188 C1189 1.392 . S
C1188 C1191 1.511 . S
C1189 C1185 1.376 . S
C1189 C1188 1.392 . S
C1189 H1201 0.929 . S
C1190 C1186 1.531 . S
C1190 H1202 0.960 . S
C1190 H1203 0.962 . S
C1190 H1204 0.960 . S
C1191 C1188 1.511 . S
C1191 H1205 0.961 . S
C1191 H1206 0.961 1_556 S
C1191 H1207 0.961 . S
C1192 C1193 1.370 . S
C1192 C1194 1.363 . S
C1192 H1208 0.931 . S
C1193 C1192 1.370 . S
C1193 C1197 1.408 . S
C1194 C1192 1.363 . S
C1194 C1195 1.370 . S
C1194 C1198 1.524 . S
C1195 C1187 1.503 . S
C1195 C1194 1.370 . S
C1195 C1196 1.403 . S
C1196 C1195 1.403 . S
C1196 C1197 1.404 . S
C1196 C1199 1.539 . S
C1197 C1193 1.408 . S
C1197 C1196 1.404 . S
C1197 H1209 0.930 . S
C1198 C1194 1.524 . S
C1198 H1210 0.956 . S
C1198 H1211 0.961 . S
C1198 H1212 0.961 . S
C1199 C1196 1.539 . S
C1199 H1213 0.958 . S
C1199 H1214 0.961 . S
C1199 H1215 0.960 . S
H1200 C1184 0.931 . S
H1201 C1189 0.929 . S
H1202 C1190 0.960 . S
H1203 C1190 0.962 . S
H1204 C1190 0.960 . S
H1205 C1191 0.961 . S
H1206 C1191 0.961 1_554 S
H1207 C1191 0.961 . S
H1208 C1192 0.931 . S
H1209 C1197 0.930 . S
H1210 C1198 0.956 . S
H1211 C1198 0.961 . S
H1212 C1198 0.961 . S
H1213 C1199 0.958 . S
H1214 C1199 0.961 . S
H1215 C1199 0.960 . S
C1216 C1217 1.391 . S
C1216 C1218 1.394 . S
C1216 H1232 0.931 . S
C1217 C1216 1.391 . S
C1217 C1221 1.376 . S
C1218 C1216 1.394 . S
C1218 C1219 1.369 . S
C1218 C1222 1.531 . S
C1219 C1218 1.369 . S
C1219 C1220 1.410 . S
C1219 C1227 1.503 . S
C1220 C1219 1.410 . S
C1220 C1221 1.392 . S
C1220 C1223 1.511 . S
C1221 C1217 1.376 . S
C1221 C1220 1.392 . S
C1221 H1233 0.929 . S
C1222 C1218 1.531 . S
C1222 H1234 0.960 . S
C1222 H1235 0.962 . S
C1222 H1236 0.960 . S
C1223 C1220 1.511 . S
C1223 H1237 0.961 . S
C1223 H1238 0.961 . S
C1223 H1239 0.961 . S
C1224 C1225 1.370 . S
C1224 C1226 1.363 . S
C1224 H1240 0.931 . S
C1225 C1224 1.370 . S
C1225 C1229 1.408 . S
C1226 C1224 1.363 . S
C1226 C1227 1.370 . S
C1226 C1230 1.524 . S
C1227 C1219 1.503 . S
C1227 C1226 1.370 . S
C1227 C1228 1.403 . S
C1228 C1227 1.403 . S
C1228 C1229 1.404 . S
C1228 C1231 1.539 . S
C1229 C1225 1.408 . S
C1229 C1228 1.404 . S
C1229 H1241 0.930 . S
C1230 C1226 1.524 . S
C1230 H1242 0.956 . S
C1230 H1243 0.961 . S
C1230 H1244 0.961 . S
C1231 C1228 1.539 . S
C1231 H1245 0.958 . S
C1231 H1246 0.961 . S
C1231 H1247 0.960 . S
H1232 C1216 0.931 . S
H1233 C1221 0.929 . S
H1234 C1222 0.960 . S
H1235 C1222 0.962 . S
H1236 C1222 0.960 . S
H1237 C1223 0.961 . S
H1238 C1223 0.961 . S
H1239 C1223 0.961 . S
H1240 C1224 0.931 . S
H1241 C1229 0.930 . S
H1242 C1230 0.956 . S
H1243 C1230 0.961 . S
H1244 C1230 0.961 . S
H1245 C1231 0.958 . S
H1246 C1231 0.961 . S
H1247 C1231 0.960 . S
C1248 C1249 1.391 . S
C1248 C1250 1.394 . S
C1248 H1264 0.931 . S
C1249 C1248 1.391 . S
C1249 C1253 1.376 . S
C1250 C1248 1.394 . S
C1250 C1251 1.369 . S
C1250 C1254 1.531 . S
C1251 C1250 1.369 . S
C1251 C1252 1.410 . S
C1251 C1259 1.503 . S
C1252 C1251 1.410 . S
C1252 C1253 1.392 . S
C1252 C1255 1.511 . S
C1253 C1249 1.376 . S
C1253 C1252 1.392 . S
C1253 H1265 0.929 . S
C1254 C1250 1.531 . S
C1254 H1266 0.960 . S
C1254 H1267 0.962 . S
C1254 H1268 0.960 . S
C1255 C1252 1.511 . S
C1255 H1269 0.961 . S
C1255 H1270 0.961 . S
C1255 H1271 0.961 . S
C1256 C1257 1.370 . S
C1256 C1258 1.363 . S
C1256 H1272 0.931 . S
C1257 C1256 1.370 . S
C1257 C1261 1.408 . S
C1258 C1256 1.363 . S
C1258 C1259 1.370 1_554 S
C1258 C1262 1.524 . S
C1259 C1251 1.503 . S
C1259 C1258 1.370 1_556 S
C1259 C1260 1.403 . S
C1260 C1259 1.403 . S
C1260 C1261 1.404 1_556 S
C1260 C1263 1.539 . S
C1261 C1257 1.408 . S
C1261 C1260 1.404 1_554 S
C1261 H1273 0.930 . S
C1262 C1258 1.524 . S
C1262 H1274 0.947 1_554 S
C1262 H1275 0.961 1_554 S
C1262 H1276 0.961 . S
C1263 C1260 1.539 . S
C1263 H1277 0.958 . S
C1263 H1278 0.961 . S
C1263 H1279 0.960 . S
H1264 C1248 0.931 . S
H1265 C1253 0.929 . S
H1266 C1254 0.960 . S
H1267 C1254 0.962 . S
H1268 C1254 0.960 . S
H1269 C1255 0.961 . S
H1270 C1255 0.961 . S
H1271 C1255 0.961 . S
H1272 C1256 0.931 . S
H1273 C1261 0.930 . S
H1274 C1262 0.947 1_556 S
H1275 C1262 0.961 1_556 S
H1276 C1262 0.961 . S
H1277 C1263 0.958 . S
H1278 C1263 0.961 . S
H1279 C1263 0.960 . S
C1280 C1281 1.391 . S
C1280 C1282 1.394 . S
C1280 H1296 0.931 . S
C1281 C1280 1.391 . S
C1281 C1285 1.376 . S
C1282 C1280 1.394 . S
C1282 C1283 1.369 . S
C1282 C1286 1.531 . S
C1283 C1282 1.369 . S
C1283 C1284 1.410 . S
C1283 C1291 1.503 . S
C1284 C1283 1.410 . S
C1284 C1285 1.392 . S
C1284 C1287 1.511 . S
C1285 C1281 1.376 . S
C1285 C1284 1.392 . S
C1285 H1297 0.929 . S
C1286 C1282 1.531 . S
C1286 H1298 0.960 . S
C1286 H1299 0.962 . S
C1286 H1300 0.960 . S
C1287 C1284 1.511 . S
C1287 H1301 0.961 . S
C1287 H1302 0.961 . S
C1287 H1303 0.961 . S
C1288 C1289 1.370 . S
C1288 C1290 1.363 . S
C1288 H1304 0.931 . S
C1289 C1288 1.370 . S
C1289 C1293 1.408 . S
C1290 C1288 1.363 . S
C1290 C1291 1.370 . S
C1290 C1294 1.524 . S
C1291 C1283 1.503 . S
C1291 C1290 1.370 . S
C1291 C1292 1.403 . S
C1292 C1291 1.403 . S
C1292 C1293 1.404 . S
C1292 C1295 1.539 . S
C1293 C1289 1.408 . S
C1293 C1292 1.404 . S
C1293 H1305 0.930 . S
C1294 C1290 1.524 . S
C1294 H1306 0.956 . S
C1294 H1307 0.961 . S
C1294 H1308 0.961 . S
C1295 C1292 1.539 . S
C1295 H1309 0.958 . S
C1295 H1310 0.961 . S
C1295 H1311 0.960 . S
H1296 C1280 0.931 . S
H1297 C1285 0.929 . S
H1298 C1286 0.960 . S
H1299 C1286 0.962 . S
H1300 C1286 0.960 . S
H1301 C1287 0.961 . S
H1302 C1287 0.961 . S
H1303 C1287 0.961 . S
H1304 C1288 0.931 . S
H1305 C1293 0.930 . S
H1306 C1294 0.956 . S
H1307 C1294 0.961 . S
H1308 C1294 0.961 . S
H1309 C1295 0.958 . S
H1310 C1295 0.961 . S
H1311 C1295 0.960 . S
C1312 C1313 1.391 . S
C1312 C1314 1.394 . S
C1312 H1328 0.931 . S
C1313 C1312 1.391 . S
C1313 C1317 1.376 . S
C1314 C1312 1.394 . S
C1314 C1315 1.369 . S
C1314 C1318 1.531 . S
C1315 C1314 1.369 . S
C1315 C1316 1.410 . S
C1315 C1323 1.503 . S
C1316 C1315 1.410 . S
C1316 C1317 1.392 . S
C1316 C1319 1.511 . S
C1317 C1313 1.376 . S
C1317 C1316 1.392 . S
C1317 H1329 0.929 . S
C1318 C1314 1.531 . S
C1318 H1330 0.960 . S
C1318 H1331 0.962 . S
C1318 H1332 0.960 . S
C1319 C1316 1.511 . S
C1319 H1333 0.961 . S
C1319 H1334 0.961 . S
C1319 H1335 0.961 . S
C1320 C1321 1.370 . S
C1320 C1322 1.363 1_554 S
C1320 H1336 0.931 . S
C1321 C1320 1.370 . S
C1321 C1325 1.408 . S
C1322 C1320 1.363 1_556 S
C1322 C1323 1.370 . S
C1322 C1326 1.524 . S
C1323 C1315 1.503 . S
C1323 C1322 1.370 . S
C1323 C1324 1.403 1_556 S
C1324 C1323 1.403 1_554 S
C1324 C1325 1.404 . S
C1324 C1327 1.539 . S
C1325 C1321 1.408 . S
C1325 C1324 1.404 . S
C1325 H1337 0.930 . S
C1326 C1322 1.524 . S
C1326 H1338 0.956 . S
C1326 H1339 0.961 . S
C1326 H1340 0.961 . S
C1327 C1324 1.539 . S
C1327 H1341 0.958 . S
C1327 H1342 0.961 . S
C1327 H1343 0.960 1_554 S
H1328 C1312 0.931 . S
H1329 C1317 0.929 . S
H1330 C1318 0.960 . S
H1331 C1318 0.962 . S
H1332 C1318 0.960 . S
H1333 C1319 0.961 . S
H1334 C1319 0.961 . S
H1335 C1319 0.961 . S
H1336 C1320 0.931 . S
H1337 C1325 0.930 . S
H1338 C1326 0.956 . S
H1339 C1326 0.961 . S
H1340 C1326 0.961 . S
H1341 C1327 0.958 . S
H1342 C1327 0.961 . S
H1343 C1327 0.960 1_556 S
C1344 C1345 1.391 . S
C1344 C1346 1.394 . S
C1344 H1360 0.931 . S
C1345 C1344 1.391 . S
C1345 C1349 1.376 . S
C1346 C1344 1.394 . S
C1346 C1347 1.369 . S
C1346 C1350 1.531 . S
C1347 C1346 1.369 . S
C1347 C1348 1.410 . S
C1347 C1355 1.503 . S
C1348 C1347 1.410 . S
C1348 C1349 1.392 . S
C1348 C1351 1.511 . S
C1349 C1345 1.376 . S
C1349 C1348 1.392 . S
C1349 H1361 0.929 . S
C1350 C1346 1.531 . S
C1350 H1362 0.960 . S
C1350 H1363 0.962 . S
C1350 H1364 0.960 . S
C1351 C1348 1.511 . S
C1351 H1365 0.961 . S
C1351 H1366 0.961 . S
C1351 H1367 0.961 . S
C1352 C1353 1.370 . S
C1352 C1354 1.363 . S
C1352 H1368 0.931 . S
C1353 C1352 1.370 . S
C1353 C1357 1.408 . S
C1354 C1352 1.363 . S
C1354 C1355 1.370 . S
C1354 C1358 1.524 . S
C1355 C1347 1.503 . S
C1355 C1354 1.370 . S
C1355 C1356 1.403 . S
C1356 C1355 1.403 . S
C1356 C1357 1.404 . S
C1356 C1359 1.539 . S
C1357 C1353 1.408 . S
C1357 C1356 1.404 . S
C1357 H1369 0.930 . S
C1358 C1354 1.524 . S
C1358 H1370 0.956 . S
C1358 H1371 0.961 . S
C1358 H1372 0.961 . S
C1359 C1356 1.539 . S
C1359 H1373 0.958 . S
C1359 H1374 0.961 . S
C1359 H1375 0.960 . S
H1360 C1344 0.931 . S
H1361 C1349 0.929 . S
H1362 C1350 0.960 . S
H1363 C1350 0.962 . S
H1364 C1350 0.960 . S
H1365 C1351 0.961 . S
H1366 C1351 0.961 . S
H1367 C1351 0.961 . S
H1368 C1352 0.931 . S
H1369 C1357 0.930 . S
H1370 C1358 0.956 . S
H1371 C1358 0.961 . S
H1372 C1358 0.961 . S
H1373 C1359 0.958 . S
H1374 C1359 0.961 . S
H1375 C1359 0.960 . S
C1376 C1377 1.391 . S
C1376 C1378 1.394 . S
C1376 H1392 0.931 . S
C1377 C1376 1.391 . S
C1377 C1381 1.376 . S
C1378 C1376 1.394 . S
C1378 C1379 1.369 . S
C1378 C1382 1.531 . S
C1379 C1378 1.369 . S
C1379 C1380 1.410 . S
C1379 C1387 1.503 . S
C1380 C1379 1.410 . S
C1380 C1381 1.392 . S
C1380 C1383 1.511 . S
C1381 C1377 1.376 . S
C1381 C1380 1.392 . S
C1381 H1393 0.929 1_545 S
C1382 C1378 1.531 . S
C1382 H1394 0.960 . S
C1382 H1395 0.962 . S
C1382 H1396 0.960 . S
C1383 C1380 1.511 . S
C1383 H1397 0.961 1_545 S
C1383 H1398 0.961 . S
C1383 H1399 0.961 . S
C1384 C1385 1.370 . S
C1384 C1386 1.363 . S
C1384 H1400 0.931 . S
C1385 C1384 1.370 . S
C1385 C1389 1.408 . S
C1386 C1384 1.363 . S
C1386 C1387 1.370 . S
C1386 C1390 1.524 . S
C1387 C1379 1.503 . S
C1387 C1386 1.370 . S
C1387 C1388 1.403 . S
C1388 C1387 1.403 . S
C1388 C1389 1.404 . S
C1388 C1391 1.539 . S
C1389 C1385 1.408 . S
C1389 C1388 1.404 . S
C1389 H1401 0.930 . S
C1390 C1386 1.524 . S
C1390 H1402 0.956 . S
C1390 H1403 0.961 . S
C1390 H1404 0.961 . S
C1391 C1388 1.539 . S
C1391 H1405 0.958 . S
C1391 H1406 0.961 . S
C1391 H1407 0.960 . S
H1392 C1376 0.931 . S
H1393 C1381 0.929 1_565 S
H1394 C1382 0.960 . S
H1395 C1382 0.962 . S
H1396 C1382 0.960 . S
H1397 C1383 0.961 1_565 S
H1398 C1383 0.961 . S
H1399 C1383 0.961 . S
H1400 C1384 0.931 . S
H1401 C1389 0.930 . S
H1402 C1390 0.956 . S
H1403 C1390 0.961 . S
H1404 C1390 0.961 . S
H1405 C1391 0.958 . S
H1406 C1391 0.961 . S
H1407 C1391 0.960 . S
C1408 C1409 1.391 . S
C1408 C1410 1.394 . S
C1408 H1424 0.931 . S
C1409 C1408 1.391 . S
C1409 C1413 1.376 . S
C1410 C1408 1.394 . S
C1410 C1411 1.369 . S
C1410 C1414 1.531 . S
C1411 C1410 1.369 . S
C1411 C1412 1.410 . S
C1411 C1419 1.503 . S
C1412 C1411 1.410 . S
C1412 C1413 1.392 . S
C1412 C1415 1.511 . S
C1413 C1409 1.376 . S
C1413 C1412 1.392 . S
C1413 H1425 0.929 . S
C1414 C1410 1.531 . S
C1414 H1426 0.960 . S
C1414 H1427 0.962 . S
C1414 H1428 0.960 . S
C1415 C1412 1.511 . S
C1415 H1429 0.961 . S
C1415 H1430 0.961 . S
C1415 H1431 0.961 . S
C1416 C1417 1.370 . S
C1416 C1418 1.363 . S
C1416 H1432 0.931 . S
C1417 C1416 1.370 . S
C1417 C1421 1.408 . S
C1418 C1416 1.363 . S
C1418 C1419 1.370 . S
C1418 C1422 1.524 . S
C1419 C1411 1.503 . S
C1419 C1418 1.370 . S
C1419 C1420 1.403 . S
C1420 C1419 1.403 . S
C1420 C1421 1.404 . S
C1420 C1423 1.539 . S
C1421 C1417 1.408 . S
C1421 C1420 1.404 . S
C1421 H1433 0.930 . S
C1422 C1418 1.524 . S
C1422 H1434 0.956 . S
C1422 H1435 0.961 . S
C1422 H1436 0.961 . S
C1423 C1420 1.539 . S
C1423 H1437 0.958 . S
C1423 H1438 0.961 . S
C1423 H1439 0.960 . S
H1424 C1408 0.931 . S
H1425 C1413 0.929 . S
H1426 C1414 0.960 . S
H1427 C1414 0.962 . S
H1428 C1414 0.960 . S
H1429 C1415 0.961 . S
H1430 C1415 0.961 . S
H1431 C1415 0.961 . S
H1432 C1416 0.931 . S
H1433 C1421 0.930 . S
H1434 C1422 0.956 . S
H1435 C1422 0.961 . S
H1436 C1422 0.961 . S
H1437 C1423 0.958 . S
H1438 C1423 0.961 . S
H1439 C1423 0.960 . S
C1440 C1441 1.391 . S
C1440 C1442 1.394 . S
C1440 H1456 0.931 . S
C1441 C1440 1.391 . S
C1441 C1445 1.376 . S
C1442 C1440 1.394 . S
C1442 C1443 1.369 . S
C1442 C1446 1.531 . S
C1443 C1442 1.369 . S
C1443 C1444 1.410 . S
C1443 C1451 1.503 . S
C1444 C1443 1.410 . S
C1444 C1445 1.392 . S
C1444 C1447 1.511 . S
C1445 C1441 1.376 . S
C1445 C1444 1.392 . S
C1445 H1457 0.929 1_455 S
C1446 C1442 1.531 . S
C1446 H1458 0.960 . S
C1446 H1459 0.962 . S
C1446 H1460 0.960 . S
C1447 C1444 1.511 . S
C1447 H1461 0.961 1_455 S
C1447 H1462 0.961 . S
C1447 H1463 0.961 . S
C1448 C1449 1.370 . S
C1448 C1450 1.363 . S
C1448 H1464 0.931 . S
C1449 C1448 1.370 . S
C1449 C1453 1.408 . S
C1450 C1448 1.363 . S
C1450 C1451 1.370 . S
C1450 C1454 1.524 . S
C1451 C1443 1.503 . S
C1451 C1450 1.370 . S
C1451 C1452 1.403 . S
C1452 C1451 1.403 . S
C1452 C1453 1.404 . S
C1452 C1455 1.539 . S
C1453 C1449 1.408 . S
C1453 C1452 1.404 . S
C1453 H1465 0.930 . S
C1454 C1450 1.524 . S
C1454 H1466 0.956 . S
C1454 H1467 0.961 . S
C1454 H1468 0.961 . S
C1455 C1452 1.539 . S
C1455 H1469 0.958 . S
C1455 H1470 0.961 . S
C1455 H1471 0.960 . S
H1456 C1440 0.931 . S
H1457 C1445 0.929 1_655 S
H1458 C1446 0.960 . S
H1459 C1446 0.962 . S
H1460 C1446 0.960 . S
H1461 C1447 0.961 1_655 S
H1462 C1447 0.961 . S
H1463 C1447 0.961 . S
H1464 C1448 0.931 . S
H1465 C1453 0.930 . S
H1466 C1454 0.956 . S
H1467 C1454 0.961 . S
H1468 C1454 0.961 . S
H1469 C1455 0.958 . S
H1470 C1455 0.961 . S
H1471 C1455 0.960 . S
C1472 C1473 1.391 . S
C1472 C1474 1.394 . S
C1472 H1488 0.931 1_545 S
C1473 C1472 1.391 . S
C1473 C1477 1.376 . S
C1474 C1472 1.394 . S
C1474 C1475 1.369 . S
C1474 C1478 1.531 . S
C1475 C1474 1.369 . S
C1475 C1476 1.410 . S
C1475 C1483 1.503 . S
C1476 C1475 1.410 . S
C1476 C1477 1.392 . S
C1476 C1479 1.511 . S
C1477 C1473 1.376 . S
C1477 C1476 1.392 . S
C1477 H1489 0.929 . S
C1478 C1474 1.531 . S
C1478 H1490 0.960 . S
C1478 H1491 0.962 . S
C1478 H1492 0.988 . S
C1479 C1476 1.511 . S
C1479 H1493 0.961 . S
C1479 H1494 0.961 . S
C1479 H1495 0.961 . S
C1480 C1481 1.370 . S
C1480 C1482 1.363 . S
C1480 H1496 0.931 1_455 S
C1481 C1480 1.370 . S
C1481 C1485 1.408 . S
C1482 C1480 1.363 . S
C1482 C1483 1.370 . S
C1482 C1486 1.524 . S
C1483 C1475 1.503 . S
C1483 C1482 1.370 . S
C1483 C1484 1.403 . S
C1484 C1483 1.403 . S
C1484 C1485 1.404 . S
C1484 C1487 1.539 . S
C1485 C1481 1.408 . S
C1485 C1484 1.404 . S
C1485 H1497 0.930 . S
C1486 C1482 1.524 . S
C1486 H1498 0.956 . S
C1486 H1499 0.961 . S
C1486 H1500 0.961 . S
C1487 C1484 1.539 . S
C1487 H1501 0.958 . S
C1487 H1502 0.961 . S
C1487 H1503 0.960 . S
H1488 C1472 0.931 1_565 S
H1489 C1477 0.929 . S
H1490 C1478 0.960 . S
H1491 C1478 0.962 . S
H1492 C1478 0.988 . S
H1493 C1479 0.961 . S
H1494 C1479 0.961 . S
H1495 C1479 0.961 . S
H1496 C1480 0.931 1_655 S
H1497 C1485 0.930 . S
H1498 C1486 0.956 . S
H1499 C1486 0.961 . S
H1500 C1486 0.961 . S
H1501 C1487 0.958 . S
H1502 C1487 0.961 . S
H1503 C1487 0.960 . S
C1504 C1505 1.391 . S
C1504 C1506 1.394 . S
C1504 H1520 0.931 . S
C1505 C1504 1.391 . S
C1505 C1509 1.376 . S
C1506 C1504 1.394 . S
C1506 C1507 1.369 . S
C1506 C1510 1.531 . S
C1507 C1506 1.369 . S
C1507 C1508 1.410 . S
C1507 C1515 1.503 . S
C1508 C1507 1.410 . S
C1508 C1509 1.392 . S
C1508 C1511 1.511 . S
C1509 C1505 1.376 . S
C1509 C1508 1.392 . S
C1509 H1521 0.929 1_565 S
C1510 C1506 1.531 . S
C1510 H1522 0.960 . S
C1510 H1523 0.962 . S
C1510 H1524 0.960 . S
C1511 C1508 1.511 . S
C1511 H1525 0.962 1_565 S
C1511 H1526 0.961 . S
C1511 H1527 0.961 . S
C1512 C1513 1.370 . S
C1512 C1514 1.363 . S
C1512 H1528 0.931 . S
C1513 C1512 1.370 . S
C1513 C1517 1.408 . S
C1514 C1512 1.363 . S
C1514 C1515 1.370 . S
C1514 C1518 1.524 . S
C1515 C1507 1.503 . S
C1515 C1514 1.370 . S
C1515 C1516 1.403 . S
C1516 C1515 1.403 . S
C1516 C1517 1.404 . S
C1516 C1519 1.539 . S
C1517 C1513 1.408 . S
C1517 C1516 1.404 . S
C1517 H1529 0.930 . S
C1518 C1514 1.524 . S
C1518 H1530 0.956 . S
C1518 H1531 0.961 . S
C1518 H1532 0.961 . S
C1519 C1516 1.539 . S
C1519 H1533 0.958 . S
C1519 H1534 0.961 . S
C1519 H1535 0.960 . S
H1520 C1504 0.931 . S
H1521 C1509 0.929 1_545 S
H1522 C1510 0.960 . S
H1523 C1510 0.962 . S
H1524 C1510 0.960 . S
H1525 C1511 0.962 1_545 S
H1526 C1511 0.961 . S
H1527 C1511 0.961 . S
H1528 C1512 0.931 . S
H1529 C1517 0.930 . S
H1530 C1518 0.956 . S
H1531 C1518 0.961 . S
H1532 C1518 0.961 . S
H1533 C1519 0.958 . S
H1534 C1519 0.961 . S
H1535 C1519 0.960 . S
C1536 C1537 1.391 . S
C1536 C1538 1.394 . S
C1536 H1552 0.931 . S
C1537 C1536 1.391 . S
C1537 C1541 1.376 . S
C1538 C1536 1.394 . S
C1538 C1539 1.369 . S
C1538 C1542 1.531 . S
C1539 C1538 1.369 . S
C1539 C1540 1.410 . S
C1539 C1547 1.503 . S
C1540 C1539 1.410 . S
C1540 C1541 1.392 . S
C1540 C1543 1.511 . S
C1541 C1537 1.376 . S
C1541 C1540 1.392 . S
C1541 H1553 0.929 . S
C1542 C1538 1.531 . S
C1542 H1554 0.960 . S
C1542 H1555 0.962 . S
C1542 H1556 0.960 . S
C1543 C1540 1.511 . S
C1543 H1557 0.961 . S
C1543 H1558 0.961 . S
C1543 H1559 0.961 . S
C1544 C1545 1.370 . S
C1544 C1546 1.363 . S
C1544 H1560 0.931 . S
C1545 C1544 1.370 . S
C1545 C1549 1.408 . S
C1546 C1544 1.363 . S
C1546 C1547 1.370 . S
C1546 C1550 1.524 . S
C1547 C1539 1.503 . S
C1547 C1546 1.370 . S
C1547 C1548 1.403 . S
C1548 C1547 1.403 . S
C1548 C1549 1.404 . S
C1548 C1551 1.539 . S
C1549 C1545 1.408 . S
C1549 C1548 1.404 . S
C1549 H1561 0.930 . S
C1550 C1546 1.524 . S
C1550 H1562 0.956 . S
C1550 H1563 0.961 . S
C1550 H1564 0.961 . S
C1551 C1548 1.539 . S
C1551 H1565 0.958 . S
C1551 H1566 0.961 . S
C1551 H1567 0.960 . S
H1552 C1536 0.931 . S
H1553 C1541 0.929 . S
H1554 C1542 0.960 . S
H1555 C1542 0.962 . S
H1556 C1542 0.960 . S
H1557 C1543 0.961 . S
H1558 C1543 0.961 . S
H1559 C1543 0.961 . S
H1560 C1544 0.931 . S
H1561 C1549 0.930 . S
H1562 C1550 0.956 . S
H1563 C1550 0.961 . S
H1564 C1550 0.961 . S
H1565 C1551 0.958 . S
H1566 C1551 0.961 . S
H1567 C1551 0.960 . S
C1568 C1569 1.391 . S
C1568 C1570 1.394 . S
C1568 H1584 0.931 . S
C1569 C1568 1.391 . S
C1569 C1573 1.376 . S
C1570 C1568 1.394 . S
C1570 C1571 1.369 . S
C1570 C1574 1.531 . S
C1571 C1570 1.369 . S
C1571 C1572 1.410 . S
C1571 C1579 1.503 . S
C1572 C1571 1.410 . S
C1572 C1573 1.392 . S
C1572 C1575 1.511 . S
C1573 C1569 1.376 . S
C1573 C1572 1.392 . S
C1573 H1585 0.929 . S
C1574 C1570 1.531 . S
C1574 H1586 0.960 . S
C1574 H1587 0.962 . S
C1574 H1588 0.960 . S
C1575 C1572 1.511 . S
C1575 H1589 0.961 . S
C1575 H1590 0.961 . S
C1575 H1591 0.961 . S
C1576 C1577 1.370 . S
C1576 C1578 1.363 . S
C1576 H1592 0.931 . S
C1577 C1576 1.370 . S
C1577 C1581 1.408 . S
C1578 C1576 1.363 . S
C1578 C1579 1.370 . S
C1578 C1582 1.524 . S
C1579 C1571 1.503 . S
C1579 C1578 1.370 . S
C1579 C1580 1.403 . S
C1580 C1579 1.403 . S
C1580 C1581 1.404 . S
C1580 C1583 1.539 . S
C1581 C1577 1.408 . S
C1581 C1580 1.404 . S
C1581 H1593 0.930 1_655 S
C1582 C1578 1.524 . S
C1582 H1594 0.956 . S
C1582 H1595 0.961 . S
C1582 H1596 0.961 . S
C1583 C1580 1.539 . S
C1583 H1597 0.958 . S
C1583 H1598 0.961 1_655 S
C1583 H1599 0.960 . S
H1584 C1568 0.931 . S
H1585 C1573 0.929 . S
H1586 C1574 0.960 . S
H1587 C1574 0.962 . S
H1588 C1574 0.960 . S
H1589 C1575 0.961 . S
H1590 C1575 0.961 . S
H1591 C1575 0.961 . S
H1592 C1576 0.931 . S
H1593 C1581 0.930 1_455 S
H1594 C1582 0.956 . S
H1595 C1582 0.961 . S
H1596 C1582 0.961 . S
H1597 C1583 0.958 . S
H1598 C1583 0.961 1_455 S
H1599 C1583 0.960 . S
C1600 C1601 1.391 . S
C1600 C1602 1.394 . S
C1600 H1616 0.931 . S
C1601 C1600 1.391 . S
C1601 C1605 1.376 . S
C1602 C1600 1.394 . S
C1602 C1603 1.369 . S
C1602 C1606 1.531 . S
C1603 C1602 1.369 . S
C1603 C1604 1.410 . S
C1603 C1611 1.503 . S
C1604 C1603 1.410 . S
C1604 C1605 1.392 . S
C1604 C1607 1.511 . S
C1605 C1601 1.376 . S
C1605 C1604 1.392 . S
C1605 H1617 0.929 . S
C1606 C1602 1.531 . S
C1606 H1618 0.960 . S
C1606 H1619 0.962 . S
C1606 H1620 0.960 . S
C1607 C1604 1.511 . S
C1607 H1621 0.961 . S
C1607 H1622 0.961 . S
C1607 H1623 0.961 . S
C1608 C1609 1.370 . S
C1608 C1610 1.363 . S
C1608 H1624 0.931 1_655 S
C1609 C1608 1.370 . S
C1609 C1613 1.408 . S
C1610 C1608 1.363 . S
C1610 C1611 1.370 . S
C1610 C1614 1.524 . S
C1611 C1603 1.503 . S
C1611 C1610 1.370 . S
C1611 C1612 1.403 . S
C1612 C1611 1.403 . S
C1612 C1613 1.404 . S
C1612 C1615 1.539 . S
C1613 C1609 1.408 . S
C1613 C1612 1.404 . S
C1613 H1625 0.930 . S
C1614 C1610 1.524 . S
C1614 H1626 0.956 . S
C1614 H1627 0.961 . S
C1614 H1628 0.961 . S
C1615 C1612 1.539 . S
C1615 H1629 0.958 . S
C1615 H1630 0.961 . S
C1615 H1631 0.960 . S
H1616 C1600 0.931 . S
H1617 C1605 0.929 . S
H1618 C1606 0.960 . S
H1619 C1606 0.962 . S
H1620 C1606 0.960 . S
H1621 C1607 0.961 . S
H1622 C1607 0.961 . S
H1623 C1607 0.961 . S
H1624 C1608 0.931 1_455 S
H1625 C1613 0.930 . S
H1626 C1614 0.956 . S
H1627 C1614 0.961 . S
H1628 C1614 0.961 . S
H1629 C1615 0.958 . S
H1630 C1615 0.961 . S
H1631 C1615 0.960 . S
C1632 C1633 1.391 . S
C1632 C1634 1.394 . S
C1632 H1648 0.931 . S
C1633 C1632 1.391 . S
C1633 C1637 1.376 . S
C1634 C1632 1.394 . S
C1634 C1635 1.369 . S
C1634 C1638 1.531 . S
C1635 C1634 1.369 . S
C1635 C1636 1.410 . S
C1635 C1643 1.503 1_554 S
C1636 C1635 1.410 . S
C1636 C1637 1.392 . S
C1636 C1639 1.511 . S
C1637 C1633 1.376 . S
C1637 C1636 1.392 . S
C1637 H1649 0.929 . S
C1638 C1634 1.531 . S
C1638 H1650 0.960 1_554 S
C1638 H1651 0.962 . S
C1638 H1652 0.960 . S
C1639 C1636 1.511 . S
C1639 H1653 0.961 . S
C1639 H1654 0.961 1_554 S
C1639 H1655 0.961 1_554 S
C1640 C1641 1.370 . S
C1640 C1642 1.363 . S
C1640 H1656 0.931 . S
C1641 C1640 1.370 . S
C1641 C1645 1.408 . S
C1642 C1640 1.363 . S
C1642 C1643 1.370 . S
C1642 C1646 1.524 1_556 S
C1643 C1635 1.503 1_556 S
C1643 C1642 1.370 . S
C1643 C1644 1.403 . S
C1644 C1643 1.403 . S
C1644 C1645 1.404 . S
C1644 C1647 1.539 . S
C1645 C1641 1.408 . S
C1645 C1644 1.404 . S
C1645 H1657 0.930 . S
C1646 C1642 1.524 1_554 S
C1646 H1658 0.956 . S
C1646 H1659 0.961 . S
C1646 H1660 0.961 . S
C1647 C1644 1.539 . S
C1647 H1661 0.958 . S
C1647 H1662 0.961 . S
C1647 H1663 0.960 . S
H1648 C1632 0.931 . S
H1649 C1637 0.929 . S
H1650 C1638 0.960 1_556 S
H1651 C1638 0.962 . S
H1652 C1638 0.960 . S
H1653 C1639 0.961 . S
H1654 C1639 0.961 1_556 S
H1655 C1639 0.961 1_556 S
H1656 C1640 0.931 . S
H1657 C1645 0.930 . S
H1658 C1646 0.956 . S
H1659 C1646 0.961 . S
H1660 C1646 0.961 . S
H1661 C1647 0.958 . S
H1662 C1647 0.961 . S
H1663 C1647 0.960 . S
C1664 C1665 1.391 . S
C1664 C1666 1.394 . S
C1664 H1680 0.931 . S
C1665 C1664 1.391 . S
C1665 C1669 1.376 . S
C1666 C1664 1.394 . S
C1666 C1667 1.369 . S
C1666 C1670 1.531 . S
C1667 C1666 1.369 . S
C1667 C1668 1.410 . S
C1667 C1675 1.503 . S
C1668 C1667 1.410 . S
C1668 C1669 1.392 . S
C1668 C1671 1.511 . S
C1669 C1665 1.376 . S
C1669 C1668 1.392 . S
C1669 H1681 0.929 . S
C1670 C1666 1.531 . S
C1670 H1682 0.960 . S
C1670 H1683 0.962 . S
C1670 H1684 0.960 . S
C1671 C1668 1.511 . S
C1671 H1685 0.961 . S
C1671 H1686 0.961 . S
C1671 H1687 0.961 . S
C1672 C1673 1.370 . S
C1672 C1674 1.363 . S
C1672 H1688 0.931 . S
C1673 C1672 1.370 . S
C1673 C1677 1.408 . S
C1674 C1672 1.363 . S
C1674 C1675 1.370 . S
C1674 C1678 1.524 . S
C1675 C1667 1.503 . S
C1675 C1674 1.370 . S
C1675 C1676 1.403 . S
C1676 C1675 1.403 . S
C1676 C1677 1.404 . S
C1676 C1679 1.539 . S
C1677 C1673 1.408 . S
C1677 C1676 1.404 . S
C1677 H1689 0.930 . S
C1678 C1674 1.524 . S
C1678 H1690 0.956 . S
C1678 H1691 0.961 . S
C1678 H1692 0.961 . S
C1679 C1676 1.539 . S
C1679 H1693 0.958 . S
C1679 H1694 0.961 . S
C1679 H1695 0.960 . S
H1680 C1664 0.931 . S
H1681 C1669 0.929 . S
H1682 C1670 0.960 . S
H1683 C1670 0.962 . S
H1684 C1670 0.960 . S
H1685 C1671 0.961 . S
H1686 C1671 0.961 . S
H1687 C1671 0.961 . S
H1688 C1672 0.931 . S
H1689 C1677 0.930 . S
H1690 C1678 0.956 . S
H1691 C1678 0.961 . S
H1692 C1678 0.961 . S
H1693 C1679 0.958 . S
H1694 C1679 0.961 . S
H1695 C1679 0.960 . S
C1696 C1697 1.391 . S
C1696 C1698 1.394 . S
C1696 H1712 0.931 . S
C1697 C1696 1.391 . S
C1697 C1701 1.376 . S
C1698 C1696 1.394 . S
C1698 C1699 1.369 . S
C1698 C1702 1.531 . S
C1699 C1698 1.369 . S
C1699 C1700 1.410 . S
C1699 C1707 1.503 1_554 S
C1700 C1699 1.410 . S
C1700 C1701 1.392 . S
C1700 C1703 1.511 1_554 S
C1701 C1697 1.376 . S
C1701 C1700 1.392 . S
C1701 H1713 0.929 . S
C1702 C1698 1.531 . S
C1702 H1714 0.960 . S
C1702 H1715 0.962 1_655 S
C1702 H1716 0.960 . S
C1703 C1700 1.511 1_556 S
C1703 H1717 0.961 . S
C1703 H1718 0.961 . S
C1703 H1719 0.961 . S
C1704 C1705 1.370 . S
C1704 C1706 1.363 . S
C1704 H1720 0.931 1_655 S
C1705 C1704 1.370 . S
C1705 C1709 1.408 . S
C1706 C1704 1.363 . S
C1706 C1707 1.370 . S
C1706 C1710 1.524 1_655 S
C1707 C1699 1.503 1_556 S
C1707 C1706 1.370 . S
C1707 C1708 1.403 . S
C1708 C1707 1.403 . S
C1708 C1709 1.404 . S
C1708 C1711 1.539 1_556 S
C1709 C1705 1.408 . S
C1709 C1708 1.404 . S
C1709 H1721 0.930 . S
C1710 C1706 1.524 1_455 S
C1710 H1722 0.956 . S
C1710 H1723 0.961 . S
C1710 H1724 0.961 . S
C1711 C1708 1.539 1_554 S
C1711 H1725 0.958 . S
C1711 H1726 0.961 1_554 S
C1711 H1727 0.960 . S
H1712 C1696 0.931 . S
H1713 C1701 0.929 . S
H1714 C1702 0.960 . S
H1715 C1702 0.962 1_455 S
H1716 C1702 0.960 . S
H1717 C1703 0.961 . S
H1718 C1703 0.961 . S
H1719 C1703 0.961 . S
H1720 C1704 0.931 1_455 S
H1721 C1709 0.930 . S
H1722 C1710 0.956 . S
H1723 C1710 0.961 . S
H1724 C1710 0.961 . S
H1725 C1711 0.958 . S
H1726 C1711 0.961 1_556 S
H1727 C1711 0.960 . S
C1728 C1729 1.391 . S
C1728 C1730 1.394 . S
C1728 H1744 0.931 . S
C1729 C1728 1.391 . S
C1729 C1733 1.376 . S
C1730 C1728 1.394 . S
C1730 C1731 1.369 . S
C1730 C1734 1.531 . S
C1731 C1730 1.369 . S
C1731 C1732 1.410 . S
C1731 C1739 1.503 . S
C1732 C1731 1.410 . S
C1732 C1733 1.392 . S
C1732 C1735 1.511 1_565 S
C1733 C1729 1.376 . S
C1733 C1732 1.392 . S
C1733 H1745 0.929 . S
C1734 C1730 1.531 . S
C1734 H1746 0.960 . S
C1734 H1747 0.962 . S
C1734 H1748 0.960 . S
C1735 C1732 1.511 1_545 S
C1735 H1749 0.961 1_545 S
C1735 H1750 0.961 1_545 S
C1735 H1751 0.961 . S
C1736 C1737 1.370 . S
C1736 C1738 1.363 . S
C1736 H1752 0.931 . S
C1737 C1736 1.370 . S
C1737 C1741 1.408 1_565 S
C1738 C1736 1.363 . S
C1738 C1739 1.370 . S
C1738 C1742 1.524 . S
C1739 C1731 1.503 . S
C1739 C1738 1.370 . S
C1739 C1740 1.403 1_565 S
C1740 C1739 1.403 1_545 S
C1740 C1741 1.404 . S
C1740 C1743 1.539 . S
C1741 C1737 1.408 1_545 S
C1741 C1740 1.404 . S
C1741 H1753 0.930 . S
C1742 C1738 1.524 . S
C1742 H1754 0.956 . S
C1742 H1755 0.961 . S
C1742 H1756 0.961 . S
C1743 C1740 1.539 . S
C1743 H1757 0.958 . S
C1743 H1758 0.961 . S
C1743 H1759 0.960 . S
H1744 C1728 0.931 . S
H1745 C1733 0.929 . S
H1746 C1734 0.960 . S
H1747 C1734 0.962 . S
H1748 C1734 0.960 . S
H1749 C1735 0.961 1_565 S
H1750 C1735 0.961 1_565 S
H1751 C1735 0.961 . S
H1752 C1736 0.931 . S
H1753 C1741 0.930 . S
H1754 C1742 0.956 . S
H1755 C1742 0.961 . S
H1756 C1742 0.961 . S
H1757 C1743 0.958 . S
H1758 C1743 0.961 . S
H1759 C1743 0.960 . S
C1760 C1761 1.391 . S
C1760 C1762 1.394 . S
C1760 H1776 0.931 . S
C1761 C1760 1.391 . S
C1761 C1765 1.376 . S
C1762 C1760 1.394 . S
C1762 C1763 1.369 . S
C1762 C1766 1.531 . S
C1763 C1762 1.369 . S
C1763 C1764 1.410 . S
C1763 C1771 1.503 1_554 S
C1764 C1763 1.410 . S
C1764 C1765 1.392 . S
C1764 C1767 1.511 1_554 S
C1765 C1761 1.376 . S
C1765 C1764 1.392 . S
C1765 H1777 0.929 . S
C1766 C1762 1.531 . S
C1766 H1778 0.960 . S
C1766 H1779 0.962 . S
C1766 H1780 0.960 . S
C1767 C1764 1.511 1_556 S
C1767 H1781 0.961 . S
C1767 H1782 0.961 . S
C1767 H1783 0.961 1_556 S
C1768 C1769 1.370 . S
C1768 C1770 1.363 . S
C1768 H1784 0.931 . S
C1769 C1768 1.370 . S
C1769 C1773 1.408 . S
C1770 C1768 1.363 . S
C1770 C1771 1.370 . S
C1770 C1774 1.524 . S
C1771 C1763 1.503 1_556 S
C1771 C1770 1.370 . S
C1771 C1772 1.403 . S
C1772 C1771 1.403 . S
C1772 C1773 1.404 . S
C1772 C1775 1.539 1_556 S
C1773 C1769 1.408 . S
C1773 C1772 1.404 . S
C1773 H1785 0.930 . S
C1774 C1770 1.524 . S
C1774 H1786 0.956 . S
C1774 H1787 0.961 . S
C1774 H1788 0.961 . S
C1775 C1772 1.539 1_554 S
C1775 H1789 0.958 . S
C1775 H1790 0.961 . S
C1775 H1791 0.960 . S
H1776 C1760 0.931 . S
H1777 C1765 0.929 . S
H1778 C1766 0.960 . S
H1779 C1766 0.962 . S
H1780 C1766 0.960 . S
H1781 C1767 0.961 . S
H1782 C1767 0.961 . S
H1783 C1767 0.961 1_554 S
H1784 C1768 0.931 . S
H1785 C1773 0.930 . S
H1786 C1774 0.956 . S
H1787 C1774 0.961 . S
H1788 C1774 0.961 . S
H1789 C1775 0.958 . S
H1790 C1775 0.961 . S
H1791 C1775 0.960 . S
C1792 C1793 1.391 . S
C1792 C1794 1.394 . S
C1792 H1808 0.931 . S
C1793 C1792 1.391 . S
C1793 C1797 1.376 . S
C1794 C1792 1.394 . S
C1794 C1795 1.369 . S
C1794 C1798 1.531 . S
C1795 C1794 1.369 . S
C1795 C1796 1.410 . S
C1795 C1803 1.503 . S
C1796 C1795 1.410 . S
C1796 C1797 1.392 . S
C1796 C1799 1.511 . S
C1797 C1793 1.376 . S
C1797 C1796 1.392 . S
C1797 H1809 0.929 . S
C1798 C1794 1.531 . S
C1798 H1810 0.960 . S
C1798 H1811 0.962 . S
C1798 H1812 0.960 . S
C1799 C1796 1.511 . S
C1799 H1813 0.961 . S
C1799 H1814 0.961 . S
C1799 H1815 0.961 . S
C1800 C1801 1.370 . S
C1800 C1802 1.363 . S
C1800 H1816 0.931 . S
C1801 C1800 1.370 . S
C1801 C1805 1.408 . S
C1802 C1800 1.363 . S
C1802 C1803 1.370 . S
C1802 C1806 1.524 . S
C1803 C1795 1.503 . S
C1803 C1802 1.370 . S
C1803 C1804 1.403 . S
C1804 C1803 1.403 . S
C1804 C1805 1.404 . S
C1804 C1807 1.539 . S
C1805 C1801 1.408 . S
C1805 C1804 1.404 . S
C1805 H1817 0.930 . S
C1806 C1802 1.524 . S
C1806 H1818 0.956 . S
C1806 H1819 0.961 . S
C1806 H1820 0.961 . S
C1807 C1804 1.539 . S
C1807 H1821 0.958 . S
C1807 H1822 0.961 . S
C1807 H1823 0.960 . S
H1808 C1792 0.931 . S
H1809 C1797 0.929 . S
H1810 C1798 0.960 . S
H1811 C1798 0.962 . S
H1812 C1798 0.960 . S
H1813 C1799 0.961 . S
H1814 C1799 0.961 . S
H1815 C1799 0.961 . S
H1816 C1800 0.931 . S
H1817 C1805 0.930 . S
H1818 C1806 0.956 . S
H1819 C1806 0.961 . S
H1820 C1806 0.961 . S
H1821 C1807 0.958 . S
H1822 C1807 0.961 . S
H1823 C1807 0.960 . S
C1824 C1825 1.391 . S
C1824 C1826 1.394 . S
C1824 H1840 0.931 1_455 S
C1825 C1824 1.391 . S
C1825 C1829 1.376 . S
C1826 C1824 1.394 . S
C1826 C1827 1.369 . S
C1826 C1830 1.531 1_456 S
C1827 C1826 1.369 . S
C1827 C1828 1.410 . S
C1827 C1835 1.503 1_556 S
C1828 C1827 1.410 . S
C1828 C1829 1.392 . S
C1828 C1831 1.511 . S
C1829 C1825 1.376 . S
C1829 C1828 1.392 . S
C1829 H1841 0.929 . S
C1830 C1826 1.531 1_654 S
C1830 H1842 0.960 . S
C1830 H1843 0.962 . S
C1830 H1844 0.960 . S
C1831 C1828 1.511 . S
C1831 H1845 0.961 . S
C1831 H1846 0.961 . S
C1831 H1847 0.961 . S
C1832 C1833 1.370 . S
C1832 C1834 1.363 . S
C1832 H1848 0.931 1_455 S
C1833 C1832 1.370 . S
C1833 C1837 1.408 . S
C1834 C1832 1.363 . S
C1834 C1835 1.370 . S
C1834 C1838 1.524 1_454 S
C1835 C1827 1.503 1_554 S
C1835 C1834 1.370 . S
C1835 C1836 1.403 . S
C1836 C1835 1.403 . S
C1836 C1837 1.404 . S
C1836 C1839 1.539 . S
C1837 C1833 1.408 . S
C1837 C1836 1.404 . S
C1837 H1849 0.930 . S
C1838 C1834 1.524 1_656 S
C1838 H1850 0.956 . S
C1838 H1851 0.961 1_655 S
C1838 H1852 0.961 . S
C1839 C1836 1.539 . S
C1839 H1853 0.958 . S
C1839 H1854 0.961 . S
C1839 H1855 0.960 . S
H1840 C1824 0.931 1_655 S
H1841 C1829 0.929 . S
H1842 C1830 0.960 . S
H1843 C1830 0.962 . S
H1844 C1830 0.960 . S
H1845 C1831 0.961 . S
H1846 C1831 0.961 . S
H1847 C1831 0.961 . S
H1848 C1832 0.931 1_655 S
H1849 C1837 0.930 . S
H1850 C1838 0.956 . S
H1851 C1838 0.961 1_455 S
H1852 C1838 0.961 . S
H1853 C1839 0.958 . S
H1854 C1839 0.961 . S
H1855 C1839 0.960 . S
C1856 C1857 1.391 . S
C1856 C1858 1.395 . S
C1856 H1872 0.931 1_545 S
C1857 C1856 1.391 . S
C1857 C1861 1.376 . S
C1858 C1856 1.395 . S
C1858 C1859 1.387 . S
C1858 C1862 1.511 1_545 S
C1859 C1858 1.387 . S
C1859 C1860 1.410 . S
C1859 C1867 1.503 . S
C1860 C1859 1.410 . S
C1860 C1861 1.392 . S
C1860 C1863 1.511 . S
C1861 C1857 1.376 . S
C1861 C1860 1.392 . S
C1861 H1873 0.929 . S
C1862 C1858 1.511 1_565 S
C1862 H1874 0.960 . S
C1862 H1875 0.962 . S
C1862 H1876 0.960 . S
C1863 C1860 1.511 . S
C1863 H1877 0.961 . S
C1863 H1878 0.961 . S
C1863 H1879 0.961 . S
C1864 C1865 1.370 . S
C1864 C1866 1.363 . S
C1864 H1880 0.931 . S
C1865 C1864 1.370 . S
C1865 C1869 1.408 . S
C1866 C1864 1.363 . S
C1866 C1867 1.370 . S
C1866 C1870 1.524 . S
C1867 C1859 1.503 . S
C1867 C1866 1.370 . S
C1867 C1868 1.403 . S
C1868 C1867 1.403 . S
C1868 C1869 1.404 . S
C1868 C1871 1.539 1_545 S
C1869 C1865 1.408 . S
C1869 C1868 1.404 . S
C1869 H1881 0.930 1_545 S
C1870 C1866 1.524 . S
C1870 H1882 0.956 . S
C1870 H1883 0.961 . S
C1870 H1884 0.961 . S
C1871 C1868 1.539 1_565 S
C1871 H1885 0.958 . S
C1871 H1886 0.961 . S
C1871 H1887 0.960 . S
H1872 C1856 0.931 1_565 S
H1873 C1861 0.929 . S
H1874 C1862 0.960 . S
H1875 C1862 0.962 . S
H1876 C1862 0.960 . S
H1877 C1863 0.961 . S
H1878 C1863 0.961 . S
H1879 C1863 0.961 . S
H1880 C1864 0.931 . S
H1881 C1869 0.930 1_565 S
H1882 C1870 0.956 . S
H1883 C1870 0.961 . S
H1884 C1870 0.961 . S
H1885 C1871 0.958 . S
H1886 C1871 0.961 . S
H1887 C1871 0.960 . S
C353 C21 1.362 . S
C361 C219 1.353 . S
C385 C43 1.357 . S
C393 C227 1.357 . S
C417 C249 1.367 . S
C425 C59 1.338 . S
C449 C197 1.362 . S
C457 C81 1.346 . S
C481 C95 1.313 . S
C489 C351 1.359 . S
C513 C285 1.367 . S
C521 C131 1.334 . S
C545 C307 1.337 . S
C553 C147 1.344 . S
C577 C323 1.343 . S
C585 C169 1.350 . S
C609 C37 1.359 . S
C617 C191 1.338 . S
C641 C213 1.342 . S
C649 C51 1.340 . S
C673 C73 1.330 . S
C681 C241 1.334 . S
C705 C15 1.360 . S
C713 C263 1.337 . S
C737 C161 1.353 . S
C745 C279 1.327 . S
C769 C109 1.349 . S
C777 C301 1.345 . S
C801 C315 1.324 . S
C809 C125 1.342 . S
C833 C139 1.356 . S
C841 C345 1.328 . S
C865 C10 1.346 . S
C873 C337 1.319 . S
C897 C32 1.334 . S
C905 C271 1.319 . S
C929 C62 1.351 . S
C937 C293 1.331 . S
C961 C329 1.302 . S
C969 C84 1.336 . S
C993 C96 1.353 . S
C1001 C205 1.327 . S
C1025 C120 1.343 . S
C1033 C235 1.319 . S
C1057 C150 1.314 . S
C1065 C257 1.330 . S
C1089 C183 1.345 . S
C1097 C172 1.340 . S
C1121 C184 1.334 . S
C1129 C175 1.350 . S
C1153 C206 1.362 . S
C1161 C103 1.346 . S
C1185 C238 1.362 . S
C1193 C117 1.346 . S
C1217 C260 1.362 . S
C1225 C153 1.347 . S
C1249 C29 1.320 . S
C1257 C272 1.351 . S
C1281 C65 1.361 . S
C1289 C294 1.348 . S
C1313 C87 1.357 . S
C1321 C318 1.353 . S
C1345 C338 1.361 . S
C1353 C7 1.347 . S
C1377 C162 1.243 1_545 S
C1385 C18 1.221 . S
C1409 C98 1.253 . S
C1417 C40 1.221 . S
C1441 C52 1.254 1_455 S
C1449 C128 1.222 . S
C1473 C74 1.222 1_545 S
C1481 C140 1.248 1_455 S
C1505 C348 1.234 1_565 S
C1513 C194 1.259 . S
C1537 C216 1.218 . S
C1545 C282 1.243 . S
C1569 C304 1.220 . S
C1577 C230 1.242 1_655 S
C1601 C252 1.262 1_565 S
C1609 C316 1.253 1_655 S
C1633 C8 1.287 . S
C1641 C106 1.297 . S
C1665 C118 1.255 . S
C1673 C30 1.280 . S
C1697 C54 1.261 . S
C1705 C142 1.280 . S
C1729 C164 1.322 . S
C1737 C76 1.308 . S
C1761 C274 1.286 . S
C1769 C186 1.274 . S
C1793 C296 1.295 . S
C1801 C208 1.279 . S
C1825 C228 1.233 . S
C1833 C326 1.254 . S
C1857 C250 1.282 . S
C1865 C340 1.274 . S
