# Generated by pormake.
# Topology bcu-i, (5)-cn, num edge types: 1
# Building blocks:
#     Node 0, Type 0, BuildingBlock: XOMCOT_clean_sbu_1, # of connection points: 5
#     Node 1, Type 0, BuildingBlock: XOMCOT_clean_sbu_1, # of connection points: 5
#     Node 2, Type 0, BuildingBlock: XOMCOT_clean_sbu_1, # of connection points: 5
#     Node 3, Type 0, BuildingBlock: XOMCOT_clean_sbu_1, # of connection points: 5
#     Node 4, Type 0, BuildingBlock: XOMCOT_clean_sbu_1, # of connection points: 5
#     Node 5, Type 0, BuildingBlock: XOMCOT_clean_sbu_1, # of connection points: 5
#     Node 6, Type 0, BuildingBlock: XOMCOT_clean_sbu_1, # of connection points: 5
#     Node 7, Type 0, BuildingBlock: XOMCOT_clean_sbu_1, # of connection points: 5
#     Node 8, Type 0, BuildingBlock: XOMCOT_clean_sbu_1, # of connection points: 5
#     Node 9, Type 0, BuildingBlock: XOMCOT_clean_sbu_1, # of connection points: 5
#     Node 10, Type 0, BuildingBlock: XOMCOT_clean_sbu_1, # of connection points: 5
#     Node 11, Type 0, BuildingBlock: XOMCOT_clean_sbu_1, # of connection points: 5
#     Node 12, Type 0, BuildingBlock: XOMCOT_clean_sbu_1, # of connection points: 5
#     Node 13, Type 0, BuildingBlock: XOMCOT_clean_sbu_1, # of connection points: 5
#     Node 14, Type 0, BuildingBlock: XOMCOT_clean_sbu_1, # of connection points: 5
#     Node 15, Type 0, BuildingBlock: XOMCOT_clean_sbu_1, # of connection points: 5
#     Edge 16, Type (0, 0), BuildingBlock: CIFDUS_clean_linker_0, # of connection points: 2
#     Edge 17, Type (0, 0), BuildingBlock: CIFDUS_clean_linker_0, # of connection points: 2
#     Edge 18, Type (0, 0), BuildingBlock: CIFDUS_clean_linker_0, # of connection points: 2
#     Edge 19, Type (0, 0), BuildingBlock: CIFDUS_clean_linker_0, # of connection points: 2
#     Edge 20, Type (0, 0), BuildingBlock: CIFDUS_clean_linker_0, # of connection points: 2
#     Edge 21, Type (0, 0), BuildingBlock: CIFDUS_clean_linker_0, # of connection points: 2
#     Edge 22, Type (0, 0), BuildingBlock: CIFDUS_clean_linker_0, # of connection points: 2
#     Edge 23, Type (0, 0), BuildingBlock: CIFDUS_clean_linker_0, # of connection points: 2
#     Edge 24, Type (0, 0), BuildingBlock: CIFDUS_clean_linker_0, # of connection points: 2
#     Edge 25, Type (0, 0), BuildingBlock: CIFDUS_clean_linker_0, # of connection points: 2
#     Edge 26, Type (0, 0), BuildingBlock: CIFDUS_clean_linker_0, # of connection points: 2
#     Edge 27, Type (0, 0), BuildingBlock: CIFDUS_clean_linker_0, # of connection points: 2
#     Edge 28, Type (0, 0), BuildingBlock: CIFDUS_clean_linker_0, # of connection points: 2
#     Edge 29, Type (0, 0), BuildingBlock: CIFDUS_clean_linker_0, # of connection points: 2
#     Edge 30, Type (0, 0), BuildingBlock: CIFDUS_clean_linker_0, # of connection points: 2
#     Edge 31, Type (0, 0), BuildingBlock: CIFDUS_clean_linker_0, # of connection points: 2
#     Edge 32, Type (0, 0), BuildingBlock: CIFDUS_clean_linker_0, # of connection points: 2
#     Edge 33, Type (0, 0), BuildingBlock: CIFDUS_clean_linker_0, # of connection points: 2
#     Edge 34, Type (0, 0), BuildingBlock: CIFDUS_clean_linker_0, # of connection points: 2
#     Edge 35, Type (0, 0), BuildingBlock: CIFDUS_clean_linker_0, # of connection points: 2
#     Edge 36, Type (0, 0), BuildingBlock: CIFDUS_clean_linker_0, # of connection points: 2
#     Edge 37, Type (0, 0), BuildingBlock: CIFDUS_clean_linker_0, # of connection points: 2
#     Edge 38, Type (0, 0), BuildingBlock: CIFDUS_clean_linker_0, # of connection points: 2
#     Edge 39, Type (0, 0), BuildingBlock: CIFDUS_clean_linker_0, # of connection points: 2
#     Edge 40, Type (0, 0), BuildingBlock: CIFDUS_clean_linker_0, # of connection points: 2
#     Edge 41, Type (0, 0), BuildingBlock: CIFDUS_clean_linker_0, # of connection points: 2
#     Edge 42, Type (0, 0), BuildingBlock: CIFDUS_clean_linker_0, # of connection points: 2
#     Edge 43, Type (0, 0), BuildingBlock: CIFDUS_clean_linker_0, # of connection points: 2
#     Edge 44, Type (0, 0), BuildingBlock: CIFDUS_clean_linker_0, # of connection points: 2
#     Edge 45, Type (0, 0), BuildingBlock: CIFDUS_clean_linker_0, # of connection points: 2
#     Edge 46, Type (0, 0), BuildingBlock: CIFDUS_clean_linker_0, # of connection points: 2
#     Edge 47, Type (0, 0), BuildingBlock: CIFDUS_clean_linker_0, # of connection points: 2
#     Edge 48, Type (0, 0), BuildingBlock: CIFDUS_clean_linker_0, # of connection points: 2
#     Edge 49, Type (0, 0), BuildingBlock: CIFDUS_clean_linker_0, # of connection points: 2
#     Edge 50, Type (0, 0), BuildingBlock: CIFDUS_clean_linker_0, # of connection points: 2
#     Edge 51, Type (0, 0), BuildingBlock: CIFDUS_clean_linker_0, # of connection points: 2
#     Edge 52, Type (0, 0), BuildingBlock: CIFDUS_clean_linker_0, # of connection points: 2
#     Edge 53, Type (0, 0), BuildingBlock: CIFDUS_clean_linker_0, # of connection points: 2
#     Edge 54, Type (0, 0), BuildingBlock: CIFDUS_clean_linker_0, # of connection points: 2
#     Edge 55, Type (0, 0), BuildingBlock: CIFDUS_clean_linker_0, # of connection points: 2
# Relax obj value: 0.552
# Max RMSD: 0.211
# Mean RMSD: 0.211
data_MOF--net-bcu-i--node1-XOMCOT_clean_sbu_1--edge1-CIFDUS_clean_linker_0
_symmetry_space_group_name_H-M    P1
_symmetry_Int_Tables_number       1
_symmetry_cell_setting            triclinic
loop_
_symmetry_equiv_pos_as_xyz
'x, y, z'
_cell_length_a     45.567517
_cell_length_b     45.591438
_cell_length_c     37.677075
_cell_angle_alpha  89.979836
_cell_angle_beta   90.018574
_cell_angle_gamma 89.998146
loop_
_atom_site_label
_atom_site_type_symbol
_atom_site_fract_x
_atom_site_fract_y
_atom_site_fract_z
_atom_type_partial_charge
C0 C 0.18197 0.07449 0.31565 0.0
C1 C 0.15412 0.08143 0.30437 0.0
N2 N 0.14132 0.09798 0.32961 0.0
N3 N 0.1866 0.08679 0.34765 0.0
C4 C 0.16142 0.10083 0.35559 0.0
H5 H 0.198 0.06157 0.3014 0.0
Co6 Co 0.22132 0.0841 0.37212 0.0
C7 C 0.21486 0.12196 0.43527 0.0
O8 O 0.24236 0.13021 0.43194 0.0
N9 N 0.2571 0.08012 0.39649 0.0
C10 C 0.30357 0.06942 0.40974 0.0
C11 C 0.28516 0.082 0.38497 0.0
C12 C 0.25926 0.06697 0.42844 0.0
N13 N 0.28705 0.06007 0.43698 0.0
O14 O 0.20822 0.04782 0.39031 0.0
H15 H 0.2919 0.08926 0.35899 0.0
H16 H 0.24043 0.05969 0.44362 0.0
O17 O 0.20391 0.10377 0.41314 0.0
C18 C 0.21875 0.02383 0.37887 0.0
O19 O 0.24285 0.02422 0.35975 0.0
N20 N 0.23293 0.11916 0.3511 0.0
C21 C 0.24487 0.16561 0.30565 0.0
C22 C 0.22695 0.16978 0.33532 0.0
C23 C 0.22057 0.14604 0.35724 0.0
C24 C 0.24944 0.1146 0.32152 0.0
C25 C 0.25608 0.13761 0.29866 0.0
H26 H 0.20434 0.14924 0.37761 0.0
H27 H 0.2566 0.09264 0.31498 0.0
H28 H 0.15811 0.11373 0.37933 0.0
H29 H 0.14409 0.07488 0.27955 0.0
H30 H 0.32669 0.06474 0.40631 0.0
H31 H 0.21713 0.19094 0.34078 0.0
H32 H 0.26978 0.13351 0.2757 0.0
C33 C 0.93553 0.12323 0.31833 0.0
C34 C 0.92302 0.09577 0.3158 0.0
N35 N 0.89983 0.09495 0.33788 0.0
N36 N 0.92042 0.13924 0.34227 0.0
C37 C 0.89878 0.12137 0.35355 0.0
H38 H 0.95438 0.13096 0.30367 0.0
Co39 Co 0.92775 0.1773 0.35684 0.0
C40 C 0.89326 0.18209 0.42432 0.0
O41 O 0.88534 0.20922 0.41737 0.0
N42 N 0.93589 0.2158 0.37138 0.0
C43 C 0.94868 0.26302 0.37376 0.0
C44 C 0.93758 0.24099 0.35247 0.0
C45 C 0.94641 0.22302 0.40365 0.0
N46 N 0.95374 0.25152 0.406 0.0
O47 O 0.96471 0.16521 0.37462 0.0
H48 H 0.93254 0.24315 0.3246 0.0
H49 H 0.95 0.20728 0.42474 0.0
O50 O 0.90971 0.16821 0.40265 0.0
C51 C 0.98452 0.1704 0.35172 0.0
O52 O 0.97716 0.18445 0.32256 0.0
N53 N 0.89247 0.18876 0.33598 0.0
C54 C 0.84596 0.20641 0.29348 0.0
C55 C 0.84069 0.19413 0.32692 0.0
C56 C 0.86431 0.18475 0.34753 0.0
C57 C 0.89769 0.19874 0.30254 0.0
C58 C 0.8748 0.208 0.28091 0.0
H59 H 0.8595 0.17383 0.37211 0.0
H60 H 0.91998 0.19972 0.29276 0.0
H61 H 0.88265 0.12732 0.3733 0.0
H62 H 0.93006 0.07802 0.29873 0.0
H63 H 0.95332 0.28541 0.36601 0.0
H64 H 0.81854 0.19182 0.33698 0.0
H65 H 0.87974 0.21726 0.2551 0.0
C66 C 0.81044 0.94013 0.29941 0.0
C67 C 0.8387 0.93638 0.28752 0.0
N68 N 0.8525 0.91808 0.31009 0.0
N69 N 0.80659 0.92418 0.32914 0.0
C70 C 0.8326 0.9111 0.33514 0.0
H71 H 0.79353 0.9532 0.28692 0.0
Co72 Co 0.77141 0.92135 0.35237 0.0
C73 C 0.78146 0.88094 0.41329 0.0
O74 O 0.75567 0.8688 0.4079 0.0
N75 N 0.73486 0.91989 0.37503 0.0
C76 C 0.68706 0.92458 0.38639 0.0
C77 C 0.70763 0.91775 0.3609 0.0
C78 C 0.73015 0.92794 0.40896 0.0
N79 N 0.70143 0.93072 0.4166 0.0
O80 O 0.77994 0.95724 0.37471 0.0
H81 H 0.70272 0.91391 0.33331 0.0
H82 H 0.74759 0.93423 0.42694 0.0
O83 O 0.79028 0.90145 0.39274 0.0
C84 C 0.77096 0.98135 0.3619 0.0
O85 O 0.74966 0.98115 0.3384 0.0
N86 N 0.76434 0.88651 0.32796 0.0
C87 C 0.7552 0.83986 0.28194 0.0
C88 C 0.77386 0.83671 0.31115 0.0
C89 C 0.77878 0.86059 0.33335 0.0
C90 C 0.74792 0.89048 0.29816 0.0
C91 C 0.74262 0.86729 0.27502 0.0
H92 H 0.79506 0.85819 0.35383 0.0
H93 H 0.73927 0.91198 0.29206 0.0
H94 H 0.83658 0.89576 0.35652 0.0
H95 H 0.84824 0.94605 0.26396 0.0
H96 H 0.66363 0.92679 0.38245 0.0
H97 H 0.78482 0.81608 0.31647 0.0
H98 H 0.7284 0.87069 0.25235 0.0
C99 C 0.06691 0.88155 0.29456 0.0
C100 C 0.08026 0.9086 0.29586 0.0
N101 N 0.09902 0.90858 0.32344 0.0
N102 N 0.07698 0.86492 0.32156 0.0
C103 C 0.09678 0.88191 0.33841 0.0
H104 H 0.05056 0.87466 0.27553 0.0
Co105 Co 0.06413 0.82787 0.33366 0.0
C106 C 0.08825 0.81682 0.40595 0.0
O107 O 0.09146 0.7887 0.39941 0.0
N108 N 0.05034 0.79004 0.34576 0.0
C109 C 0.04207 0.7421 0.35349 0.0
C110 C 0.059 0.76272 0.33609 0.0
C111 C 0.0281 0.78524 0.36868 0.0
N112 N 0.02249 0.7566 0.37345 0.0
O113 O 0.02763 0.84426 0.34646 0.0
H114 H 0.07688 0.75771 0.31832 0.0
H115 H 0.01676 0.80236 0.38304 0.0
O116 O 0.07795 0.83381 0.38208 0.0
C117 C 0.00856 0.84308 0.32193 0.0
O118 O 0.01539 0.83014 0.29188 0.0
N119 N 0.09956 0.81295 0.31793 0.0
C120 C 0.14802 0.79079 0.28253 0.0
C121 C 0.15091 0.802 0.31698 0.0
C122 C 0.12639 0.81362 0.33408 0.0
C123 C 0.09686 0.80395 0.28368 0.0
C124 C 0.12074 0.79247 0.26553 0.0
H125 H 0.12935 0.82342 0.35982 0.0
H126 H 0.07566 0.80502 0.2708 0.0
H127 H 0.10881 0.87532 0.36184 0.0
H128 H 0.0765 0.92686 0.27804 0.0
H129 H 0.04404 0.71848 0.3518 0.0
H130 H 0.17189 0.80171 0.33052 0.0
H131 H 0.11757 0.78395 0.23897 0.0
C132 C 0.15061 0.91601 0.67864 0.0
C133 C 0.12269 0.90694 0.68716 0.0
N134 N 0.11286 0.88963 0.66073 0.0
N135 N 0.15828 0.90426 0.6472 0.0
C136 C 0.1348 0.88841 0.63681 0.0
H137 H 0.16472 0.92983 0.69456 0.0
Co138 Co 0.19453 0.9089 0.62657 0.0
C139 C 0.19311 0.87249 0.56133 0.0
O140 O 0.22021 0.86393 0.56737 0.0
N141 N 0.23177 0.91456 0.60603 0.0
C142 C 0.27895 0.92516 0.59698 0.0
C143 C 0.25882 0.91429 0.62088 0.0
C144 C 0.23616 0.92564 0.57325 0.0
N145 N 0.26452 0.93199 0.56702 0.0
O146 O 0.18192 0.946 0.60907 0.0
H147 H 0.26372 0.90862 0.64802 0.0
H148 H 0.21851 0.93096 0.55509 0.0
O149 O 0.18051 0.89011 0.5829 0.0
C150 C 0.19405 0.96909 0.62111 0.0
O151 O 0.21691 0.96678 0.64214 0.0
N152 N 0.2061 0.87349 0.64701 0.0
C153 C 0.22529 0.82608 0.68692 0.0
C154 C 0.20783 0.82155 0.65687 0.0
C155 C 0.19754 0.84575 0.63787 0.0
C156 C 0.22096 0.87818 0.6778 0.0
C157 C 0.23119 0.85479 0.69794 0.0
H158 H 0.18234 0.84192 0.61649 0.0
H159 H 0.22501 0.90039 0.68663 0.0
H160 H 0.1341 0.87523 0.61296 0.0
H161 H 0.11066 0.91239 0.71103 0.0
H162 H 0.30203 0.92915 0.60181 0.0
H163 H 0.20193 0.7996 0.64849 0.0
H164 H 0.24422 0.85914 0.72142 0.0
C165 C 0.0738 0.14421 0.68729 0.0
C166 C 0.08336 0.1157 0.6905 0.0
N167 N 0.09913 0.1091 0.66139 0.0
N168 N 0.0832 0.15523 0.65609 0.0
C169 C 0.09894 0.13341 0.64112 0.0
H170 H 0.05998 0.15581 0.7059 0.0
Co171 Co 0.07178 0.19094 0.63732 0.0
C172 C 0.09521 0.19213 0.56388 0.0
O173 O 0.0985 0.2207 0.5659 0.0
N174 N 0.0592 0.22736 0.61849 0.0
C175 C 0.05149 0.27395 0.60228 0.0
C176 C 0.06806 0.25548 0.62341 0.0
C177 C 0.0372 0.22956 0.59466 0.0
N178 N 0.03193 0.25735 0.58482 0.0
O179 O 0.0338 0.17516 0.63012 0.0
H180 H 0.08574 0.26241 0.64051 0.0
H181 H 0.02571 0.21097 0.58347 0.0
O182 O 0.08421 0.17807 0.59004 0.0
C183 C 0.01678 0.18321 0.65505 0.0
O184 O 0.02706 0.2011 0.67942 0.0
N185 N 0.10842 0.20592 0.64844 0.0
C186 C 0.15886 0.22886 0.6787 0.0
C187 C 0.1605 0.21319 0.64681 0.0
C188 C 0.13494 0.20106 0.63252 0.0
C189 C 0.10684 0.21993 0.68022 0.0
C190 C 0.13173 0.23186 0.69569 0.0
H191 H 0.13688 0.18724 0.60949 0.0
H192 H 0.08584 0.22211 0.69335 0.0
H193 H 0.10903 0.13468 0.61517 0.0
H194 H 0.07873 0.10083 0.7122 0.0
H195 H 0.05361 0.29751 0.59989 0.0
H196 H 0.18134 0.20986 0.6336 0.0
H197 H 0.12967 0.24379 0.72043 0.0
C198 C 0.82341 0.08493 0.68125 0.0
C199 C 0.85103 0.09589 0.68728 0.0
N200 N 0.86359 0.10138 0.6556 0.0
N201 N 0.81861 0.08379 0.646 0.0
C202 C 0.84358 0.09368 0.63102 0.0
H203 H 0.80763 0.0785 0.70123 0.0
Co204 Co 0.78401 0.07155 0.62567 0.0
C205 C 0.78216 0.10082 0.55498 0.0
O206 O 0.75353 0.10365 0.55658 0.0
N207 N 0.74801 0.05812 0.6059 0.0
C208 C 0.70114 0.05093 0.59028 0.0
C209 C 0.72053 0.06963 0.60689 0.0
C210 C 0.74439 0.03245 0.58858 0.0
N211 N 0.71633 0.02738 0.57943 0.0
O212 O 0.80273 0.03593 0.61355 0.0
H213 H 0.71466 0.0906 0.61815 0.0
H214 H 0.76201 0.01769 0.58164 0.0
O215 O 0.79594 0.08832 0.58032 0.0
C216 C 0.80156 0.01728 0.63858 0.0
O217 O 0.78724 0.02424 0.66767 0.0
N218 N 0.76693 0.10612 0.64085 0.0
C219 C 0.74711 0.15397 0.67916 0.0
C220 C 0.76356 0.1582 0.64824 0.0
C221 C 0.77397 0.1338 0.6298 0.0
C222 C 0.75113 0.10178 0.67102 0.0
C223 C 0.74071 0.12543 0.69042 0.0
H224 H 0.78891 0.13736 0.60805 0.0
H225 H 0.74723 0.07969 0.68038 0.0
H226 H 0.84686 0.09595 0.60274 0.0
H227 H 0.86108 0.09954 0.71293 0.0
H228 H 0.67785 0.05435 0.58641 0.0
H229 H 0.76936 0.18006 0.63939 0.0
H230 H 0.72799 0.12143 0.71423 0.0
C231 C 0.90605 0.82483 0.67751 0.0
C232 C 0.89425 0.85084 0.68894 0.0
N233 N 0.88067 0.86368 0.66123 0.0
N234 N 0.89993 0.82129 0.6428 0.0
C235 C 0.88458 0.84539 0.63347 0.0
H236 H 0.91786 0.80913 0.6936 0.0
Co237 Co 0.91021 0.78801 0.61813 0.0
C238 C 0.87271 0.78655 0.55435 0.0
O239 O 0.86946 0.75831 0.56024 0.0
N240 N 0.92212 0.75391 0.59391 0.0
C241 C 0.93914 0.70995 0.57781 0.0
C242 C 0.92639 0.72592 0.60482 0.0
C243 C 0.93291 0.75434 0.56058 0.0
N244 N 0.94281 0.72797 0.54997 0.0
O245 O 0.945 0.80713 0.60275 0.0
H246 H 0.92185 0.71753 0.63099 0.0
H247 H 0.93448 0.77407 0.54468 0.0
O248 O 0.88878 0.80177 0.57538 0.0
C249 C 0.96535 0.80247 0.62518 0.0
O250 O 0.96015 0.7844 0.65163 0.0
N251 N 0.87683 0.76985 0.63676 0.0
C252 C 0.83112 0.74751 0.67746 0.0
C253 C 0.82534 0.7671 0.64978 0.0
C254 C 0.84862 0.77877 0.63044 0.0
C255 C 0.88281 0.75205 0.66486 0.0
C256 C 0.86027 0.74016 0.6852 0.0
H257 H 0.84382 0.79606 0.61181 0.0
H258 H 0.90531 0.74818 0.6726 0.0
H259 H 0.87552 0.84899 0.60729 0.0
H260 H 0.89548 0.85956 0.71562 0.0
H261 H 0.94573 0.68715 0.57877 0.0
H262 H 0.80315 0.77424 0.64412 0.0
H263 H 0.86562 0.72561 0.707 0.0
C264 C 0.65373 0.58329 0.79492 0.0
C265 C 0.62803 0.59729 0.78609 0.0
N266 N 0.6166 0.60894 0.81589 0.0
N267 N 0.65844 0.58625 0.83004 0.0
C268 C 0.63542 0.60191 0.84215 0.0
H269 H 0.66838 0.57211 0.77686 0.0
Co270 Co 0.69151 0.57278 0.85294 0.0
C271 C 0.68858 0.59659 0.92621 0.0
O272 O 0.71719 0.60003 0.92734 0.0
N273 N 0.72568 0.55836 0.87542 0.0
C274 C 0.77134 0.54834 0.8934 0.0
C275 C 0.75423 0.56646 0.87268 0.0
C276 C 0.72623 0.53537 0.89799 0.0
N277 N 0.75354 0.52863 0.90878 0.0
O278 O 0.67232 0.53669 0.86077 0.0
H279 H 0.76251 0.58438 0.8569 0.0
H280 H 0.70688 0.52387 0.90708 0.0
O281 O 0.67637 0.58669 0.8982 0.0
C282 C 0.6772 0.51718 0.83748 0.0
O283 O 0.6948 0.52341 0.8109 0.0
N284 N 0.70976 0.60788 0.84202 0.0
C285 C 0.7359 0.65611 0.81044 0.0
C286 C 0.71997 0.65945 0.84195 0.0
C287 C 0.70628 0.63497 0.85698 0.0
C288 C 0.72463 0.60459 0.811 0.0
C289 C 0.73812 0.62834 0.7949 0.0
H290 H 0.69223 0.6382 0.87962 0.0
H291 H 0.72591 0.58316 0.79877 0.0
H292 H 0.63286 0.60891 0.8694 0.0
H293 H 0.61849 0.59879 0.75984 0.0
H294 H 0.79493 0.54927 0.89653 0.0
H295 H 0.71735 0.68084 0.85405 0.0
H296 H 0.75028 0.62501 0.77052 0.0
C297 C 0.40405 0.6607 0.80452 0.0
C298 C 0.3935 0.63409 0.79309 0.0
N299 N 0.38227 0.61981 0.82131 0.0
N300 N 0.39935 0.66318 0.83967 0.0
C301 C 0.3862 0.63787 0.84924 0.0
H302 H 0.41401 0.67749 0.7882 0.0
Co303 Co 0.40827 0.69624 0.86563 0.0
C304 C 0.37443 0.69072 0.93217 0.0
O305 O 0.36689 0.71846 0.92926 0.0
N306 N 0.4185 0.73002 0.89145 0.0
C307 C 0.43096 0.77452 0.91114 0.0
C308 C 0.41972 0.75885 0.88286 0.0
C309 C 0.42978 0.72882 0.92449 0.0
N310 N 0.43674 0.75539 0.93731 0.0
O311 O 0.44493 0.67942 0.87755 0.0
H312 H 0.41364 0.76817 0.85761 0.0
H313 H 0.43334 0.70856 0.93889 0.0
O314 O 0.39071 0.67891 0.90849 0.0
C315 C 0.46481 0.68673 0.85562 0.0
O316 O 0.45819 0.70551 0.83037 0.0
N317 N 0.37278 0.71251 0.85069 0.0
C318 C 0.32407 0.73526 0.81615 0.0
C319 C 0.32054 0.7142 0.84273 0.0
C320 C 0.34537 0.70224 0.85884 0.0
C321 C 0.37644 0.73185 0.82354 0.0
C322 C 0.35235 0.74385 0.80618 0.0
H323 H 0.34237 0.68397 0.87664 0.0
H324 H 0.3983 0.73716 0.81446 0.0
H325 H 0.37864 0.63313 0.87584 0.0
H326 H 0.39391 0.62596 0.76611 0.0
H327 H 0.43464 0.79796 0.91238 0.0
H328 H 0.29893 0.70626 0.84988 0.0
H329 H 0.35578 0.7595 0.78493 0.0
C330 C 0.33219 0.40239 0.79694 0.0
C331 C 0.3587 0.39098 0.78637 0.0
N332 N 0.37221 0.37978 0.81517 0.0
N333 N 0.32904 0.39826 0.83213 0.0
C334 C 0.35383 0.38463 0.84259 0.0
H335 H 0.31591 0.4125 0.78001 0.0
Co336 Co 0.29578 0.40823 0.85707 0.0
C337 C 0.29621 0.37206 0.92179 0.0
O338 O 0.26823 0.36685 0.91597 0.0
N339 N 0.26183 0.41964 0.88199 0.0
C340 C 0.21759 0.43301 0.90166 0.0
C341 C 0.23302 0.42137 0.87342 0.0
C342 C 0.26326 0.43094 0.91501 0.0
N343 N 0.23683 0.43856 0.92784 0.0
O344 O 0.31414 0.4437 0.87098 0.0
H345 H 0.22348 0.41519 0.84834 0.0
H346 H 0.2836 0.43384 0.92944 0.0
O347 O 0.31059 0.38837 0.90023 0.0
C348 C 0.30861 0.4639 0.84869 0.0
O349 O 0.29079 0.45801 0.82218 0.0
N350 N 0.27826 0.37399 0.83999 0.0
C351 C 0.25559 0.32676 0.80236 0.0
C352 C 0.27648 0.32219 0.82895 0.0
C353 C 0.2883 0.34624 0.84669 0.0
C354 C 0.25922 0.37882 0.81278 0.0
C355 C 0.24716 0.35548 0.79398 0.0
H356 H 0.30637 0.34244 0.86459 0.0
H357 H 0.25423 0.40102 0.80472 0.0
H358 H 0.3579 0.37736 0.86947 0.0
H359 H 0.36725 0.39077 0.75958 0.0
H360 H 0.1942 0.43698 0.90289 0.0
H361 H 0.28436 0.30033 0.83503 0.0
H362 H 0.23155 0.35987 0.77295 0.0
C363 C 0.5907 0.31532 0.80402 0.0
C364 C 0.60304 0.34068 0.79129 0.0
N365 N 0.61211 0.35675 0.81921 0.0
N366 N 0.59206 0.3154 0.83973 0.0
C367 C 0.60511 0.34096 0.8483 0.0
H368 H 0.58152 0.29773 0.78828 0.0
Co369 Co 0.57891 0.28467 0.86713 0.0
C370 C 0.60736 0.29097 0.93714 0.0
O371 O 0.6109 0.26241 0.93842 0.0
N372 N 0.56445 0.25257 0.89402 0.0
C373 C 0.55436 0.20882 0.91806 0.0
C374 C 0.57299 0.22408 0.89593 0.0
C375 C 0.54069 0.25379 0.91536 0.0
N376 N 0.53388 0.22764 0.92963 0.0
O377 O 0.54343 0.30535 0.87421 0.0
H378 H 0.59172 0.21464 0.88269 0.0
H379 H 0.52859 0.27362 0.92113 0.0
O380 O 0.59507 0.3027 0.91014 0.0
C381 C 0.52432 0.30069 0.85031 0.0
O382 O 0.53037 0.28191 0.82489 0.0
N383 N 0.61344 0.26516 0.85661 0.0
C384 C 0.66133 0.24182 0.82141 0.0
C385 C 0.66559 0.26133 0.84952 0.0
C386 C 0.64115 0.27348 0.8663 0.0
C387 C 0.60916 0.24613 0.8293 0.0
C388 C 0.63282 0.23389 0.81157 0.0
H389 H 0.64472 0.29094 0.88509 0.0
H390 H 0.58707 0.24135 0.82047 0.0
H391 H 0.61001 0.3476 0.87522 0.0
H392 H 0.60496 0.3469 0.76366 0.0
H393 H 0.55557 0.18578 0.92483 0.0
H394 H 0.68745 0.2684 0.85694 0.0
H395 H 0.62889 0.21899 0.78967 0.0
C396 C 0.67323 0.40462 0.20085 0.0
C397 C 0.64659 0.39334 0.21109 0.0
N398 N 0.63465 0.37958 0.18295 0.0
N399 N 0.678 0.39783 0.16654 0.0
C400 C 0.65402 0.38276 0.15623 0.0
H401 H 0.6886 0.41628 0.21755 0.0
Co402 Co 0.71249 0.40575 0.14312 0.0
C403 C 0.71192 0.36832 0.07904 0.0
O404 O 0.73979 0.36239 0.08454 0.0
N405 N 0.74781 0.41496 0.12001 0.0
C406 C 0.79312 0.42896 0.10529 0.0
C407 C 0.77588 0.41682 0.13158 0.0
C408 C 0.74866 0.42624 0.08698 0.0
N409 N 0.7758 0.43454 0.07723 0.0
O410 O 0.69597 0.44124 0.12641 0.0
H411 H 0.78347 0.41122 0.15781 0.0
H412 H 0.72926 0.42975 0.07092 0.0
O413 O 0.69827 0.38532 0.1004 0.0
C414 C 0.70146 0.46231 0.14743 0.0
O415 O 0.71902 0.4575 0.1745 0.0
N416 N 0.728 0.37166 0.16279 0.0
C417 C 0.74631 0.32573 0.20584 0.0
C418 C 0.72798 0.32034 0.17679 0.0
C419 C 0.71833 0.34379 0.15615 0.0
C420 C 0.74466 0.37729 0.19198 0.0
C421 C 0.7545 0.35461 0.21359 0.0
H422 H 0.70191 0.33945 0.13625 0.0
H423 H 0.74932 0.39972 0.19936 0.0
H424 H 0.65129 0.37311 0.13022 0.0
H425 H 0.6369 0.39484 0.23726 0.0
H426 H 0.81626 0.43412 0.10706 0.0
H427 H 0.72033 0.29837 0.17092 0.0
H428 H 0.76826 0.35966 0.23623 0.0
C429 C 0.5756 0.63886 0.19695 0.0
C430 C 0.58844 0.61249 0.20521 0.0
N431 N 0.60571 0.6046 0.17784 0.0
N432 N 0.58485 0.6475 0.16465 0.0
C433 C 0.60305 0.62607 0.15348 0.0
H434 H 0.56146 0.65162 0.21405 0.0
Co435 Co 0.57672 0.68392 0.14621 0.0
C436 C 0.60802 0.68833 0.07777 0.0
O437 O 0.61257 0.71624 0.08435 0.0
N438 N 0.56746 0.7216 0.12839 0.0
C439 C 0.56219 0.76942 0.11671 0.0
C440 C 0.57604 0.74897 0.13797 0.0
C441 C 0.5484 0.72618 0.10158 0.0
N442 N 0.54465 0.75477 0.09428 0.0
O443 O 0.53924 0.66984 0.13193 0.0
H444 H 0.59137 0.75417 0.15885 0.0
H445 H 0.53756 0.70879 0.08707 0.0
O446 O 0.59371 0.67267 0.10007 0.0
C447 C 0.51976 0.67693 0.15452 0.0
O448 O 0.52754 0.69351 0.18147 0.0
N449 N 0.61256 0.69673 0.1639 0.0
C450 C 0.66124 0.71489 0.20204 0.0
C451 C 0.66481 0.70009 0.16985 0.0
C452 C 0.64006 0.69027 0.15163 0.0
C453 C 0.60894 0.70942 0.19628 0.0
C454 C 0.633 0.71897 0.21573 0.0
H455 H 0.64336 0.67696 0.1284 0.0
H456 H 0.58704 0.71253 0.2067 0.0
H457 H 0.61555 0.62699 0.12908 0.0
H458 H 0.58597 0.60044 0.22979 0.0
H459 H 0.56434 0.79304 0.11806 0.0
H460 H 0.68648 0.69599 0.15913 0.0
H461 H 0.62951 0.7303 0.24065 0.0
C462 C 0.32104 0.59169 0.20945 0.0
C463 C 0.34765 0.60381 0.21817 0.0
N464 N 0.36053 0.61328 0.18809 0.0
N465 N 0.31713 0.59364 0.1741 0.0
C466 C 0.34167 0.60666 0.16168 0.0
H467 H 0.30522 0.58252 0.22773 0.0
Co468 Co 0.2832 0.58177 0.15163 0.0
C469 C 0.28002 0.61476 0.0848 0.0
O470 O 0.25186 0.61857 0.09064 0.0
N471 N 0.24837 0.56861 0.1292 0.0
C472 C 0.20296 0.55851 0.11019 0.0
C473 C 0.21942 0.57393 0.13463 0.0
C474 C 0.24865 0.54989 0.10146 0.0
N475 N 0.22159 0.54322 0.08978 0.0
O476 O 0.30258 0.54694 0.13801 0.0
H477 H 0.21035 0.5883 0.15451 0.0
H478 H 0.26847 0.54166 0.08918 0.0
O479 O 0.29554 0.60051 0.10723 0.0
C480 C 0.30114 0.52704 0.16151 0.0
O481 O 0.28571 0.53198 0.19036 0.0
N482 N 0.2653 0.61565 0.16843 0.0
C483 C 0.24519 0.66282 0.20828 0.0
C484 C 0.26403 0.66739 0.17944 0.0
C485 C 0.27434 0.64343 0.16026 0.0
C486 C 0.24815 0.61077 0.1974 0.0
C487 C 0.23727 0.63405 0.21726 0.0
H488 H 0.29089 0.64729 0.14035 0.0
H489 H 0.24336 0.5885 0.20547 0.0
H490 H 0.34527 0.61211 0.13407 0.0
H491 H 0.35679 0.60561 0.24461 0.0
H492 H 0.17928 0.55824 0.10787 0.0
H493 H 0.27159 0.68919 0.17258 0.0
H494 H 0.22292 0.62952 0.2395 0.0
C495 C 0.43366 0.35253 0.19834 0.0
C496 C 0.42401 0.3801 0.20724 0.0
N497 N 0.40365 0.38828 0.18328 0.0
N498 N 0.41937 0.34347 0.16902 0.0
C499 C 0.40137 0.36578 0.16027 0.0
H500 H 0.44908 0.33935 0.21322 0.0
Co501 Co 0.42172 0.30603 0.15127 0.0
C502 C 0.38704 0.30605 0.08452 0.0
O503 O 0.37708 0.27975 0.09229 0.0
N504 N 0.42524 0.26754 0.13432 0.0
C505 C 0.43224 0.21928 0.12908 0.0
C506 C 0.42276 0.24146 0.15125 0.0
C507 C 0.43646 0.26063 0.10234 0.0
N508 N 0.44041 0.23161 0.09826 0.0
O509 O 0.45955 0.3147 0.13357 0.0
H510 H 0.41609 0.23859 0.17851 0.0
H511 H 0.44306 0.27683 0.08289 0.0
O512 O 0.40446 0.31904 0.10602 0.0
C513 C 0.47967 0.30583 0.15432 0.0
O514 O 0.47224 0.28995 0.18203 0.0
N515 N 0.38551 0.29808 0.17186 0.0
C516 C 0.33743 0.28551 0.21418 0.0
C517 C 0.33353 0.29939 0.18142 0.0
C518 C 0.3581 0.30641 0.16103 0.0
C519 C 0.38961 0.28638 0.2047 0.0
C520 C 0.36585 0.27968 0.22626 0.0
H521 H 0.35477 0.31895 0.13718 0.0
H522 H 0.41165 0.28207 0.21403 0.0
H523 H 0.3855 0.36485 0.13893 0.0
H524 H 0.43071 0.39276 0.23015 0.0
H525 H 0.43391 0.19619 0.13544 0.0
H526 H 0.31177 0.30473 0.1718 0.0
H527 H 0.36964 0.26902 0.25157 0.0
H528 H 0.1607 0.02492 0.3682 0.0
H529 H 0.23375 0.96594 0.3823 0.0
H530 H 0.20191 0.92399 0.36851 0.0
H531 H 0.15423 0.90504 0.34736 0.0
H532 H 0.08333 0.96528 0.32714 0.0
H533 H 0.11351 0.00622 0.34791 0.0
C534 C 0.1695 0.00281 0.36902 0.0
C535 C 0.19931 -0.00173 0.37665 0.0
C536 C 0.15159 0.97929 0.35924 0.0
C537 C 0.21073 0.96971 0.37674 0.0
C538 C 0.19262 0.94587 0.36864 0.0
C539 C 0.14547 0.92715 0.34786 0.0
C540 C 0.11679 0.9324 0.33574 0.0
C541 C 0.1632 0.95052 0.359 0.0
C542 C 0.10553 0.96102 0.33598 0.0
C543 C 0.12267 0.98427 0.34805 0.0
H544 H 0.10526 0.10835 0.38471 0.0
H545 H 0.11378 0.1183 0.27133 0.0
H546 H 0.06617 0.14268 0.26872 0.0
H547 H 0.02246 0.161 0.29838 0.0
H548 H 0.01218 0.14987 0.41143 0.0
H549 H 0.06058 0.12642 0.41468 0.0
C550 C 0.09668 0.11602 0.35953 0.0
C551 C 0.11292 0.11158 0.32823 0.0
C552 C 0.06922 0.12989 0.35824 0.0
C553 C 0.10148 0.12117 0.29565 0.0
C554 C 0.0744 0.13528 0.29419 0.0
C555 C 0.03086 0.15368 0.32383 0.0
C556 C 0.01397 0.15734 0.35468 0.0
C557 C 0.05815 0.13976 0.32529 0.0
C558 C 0.02491 0.14731 0.38735 0.0
C559 C 0.05249 0.13389 0.38917 0.0
H560 H 0.8298 0.97927 0.36364 0.0
H561 H 0.75691 0.0396 0.3607 0.0
H562 H 0.79114 0.0809 0.35455 0.0
H563 H 0.84166 0.09904 0.34619 0.0
H564 H 0.91353 0.0377 0.34292 0.0
H565 H 0.87967 -0.00291 0.35459 0.0
C566 C 0.82139 0.00151 0.36232 0.0
C567 C 0.79096 0.00661 0.3632 0.0
C568 C 0.84097 0.02468 0.35695 0.0
C569 C 0.78031 0.03537 0.36047 0.0
C570 C 0.79982 0.05884 0.35672 0.0
C571 C 0.84979 0.07676 0.3483 0.0
C572 C 0.8799 0.07114 0.34385 0.0
C573 C 0.83015 0.05365 0.3543 0.0
C574 C 0.89036 0.04228 0.34599 0.0
C575 C 0.87108 0.01922 0.3529 0.0
H576 H 0.88884 0.90296 0.36302 0.0
H577 H 0.88087 0.90596 0.24903 0.0
H578 H 0.92883 0.88268 0.24277 0.0
H579 H 0.97222 0.86039 0.26966 0.0
H580 H 0.98101 0.85793 0.38366 0.0
H581 H 0.93317 0.8818 0.39011 0.0
C582 C 0.89764 0.89841 0.33687 0.0
C583 C 0.88142 0.90603 0.30654 0.0
C584 C 0.92514 0.88499 0.33353 0.0
C585 C 0.89316 0.90056 0.27273 0.0
C586 C 0.92043 0.88706 0.26915 0.0
C587 C 0.9636 0.86497 0.29592 0.0
C588 C 0.97986 0.85729 0.32615 0.0
C589 C 0.93646 0.87899 0.29936 0.0
C590 C 0.96875 0.86371 0.36002 0.0
C591 C 0.94147 0.87731 0.36371 0.0
H592 H 0.15162 0.09967 0.63162 0.0
H593 H 0.07422 0.05619 0.67073 0.0
H594 H 0.0955 0.00836 0.65627 0.0
H595 H 0.13754 0.97899 0.63647 0.0
H596 H 0.21725 0.02208 0.60401 0.0
H597 H 0.19366 0.07013 0.61095 0.0
C598 C 0.13946 0.07964 0.63661 0.0
C599 C 0.11156 0.0812 0.6523 0.0
C600 C 0.15221 0.05231 0.62915 0.0
C601 C 0.09592 0.05529 0.65909 0.0
C602 C 0.10799 0.02805 0.65064 0.0
C603 C 0.1494 -0.00105 0.63011 0.0
C604 C 0.17876 -0.00269 0.61915 0.0
C605 C 0.13626 0.0263 0.63611 0.0
C606 C 0.19444 0.02311 0.61205 0.0
C607 C 0.18105 0.05046 0.61628 0.0
H608 H 0.89005 0.14134 0.6964 0.0
H609 H 0.90006 0.09113 0.6003 0.0
H610 H 0.94842 0.11308 0.59037 0.0
H611 H 0.98853 0.14538 0.61055 0.0
H612 H 0.97745 0.19545 0.70697 0.0
H613 H 0.92884 0.17463 0.71529 0.0
C614 C 0.90295 0.13502 0.67349 0.0
C615 C 0.89178 0.11445 0.64939 0.0
C616 C 0.9305 0.14771 0.668 0.0
C617 C 0.90829 0.107 0.6192 0.0
C618 C 0.93593 0.11946 0.6136 0.0
C619 C 0.97539 0.15181 0.63326 0.0
C620 C 0.98667 0.17175 0.65821 0.0
C621 C 0.94734 0.1397 0.638 0.0
C622 C 0.96936 0.18004 0.68741 0.0
C623 C 0.94155 0.16813 0.69227 0.0
H624 H 0.87337 0.9018 0.60726 0.0
H625 H 0.85057 0.88579 0.7167 0.0
H626 H 0.82347 0.93178 0.71882 0.0
H627 H 0.80703 0.97671 0.69022 0.0
H628 H 0.82969 0.99377 0.58092 0.0
H629 H 0.85578 0.94688 0.5779 0.0
C630 C 0.86223 0.9083 0.63141 0.0
C631 C 0.86415 0.89052 0.66184 0.0
C632 C 0.84668 0.93486 0.63246 0.0
C633 C 0.84987 0.89933 0.69312 0.0
C634 C 0.83421 0.92553 0.6943 0.0
C635 C 0.81754 0.97018 0.66564 0.0
C636 C 0.81649 0.98868 0.63587 0.0
C637 C 0.83264 0.94351 0.66423 0.0
C638 C 0.83029 0.97991 0.60426 0.0
C639 C 0.8452 0.95314 0.60252 0.0
H640 H -0.0004 0.8144 0.68128 0.0
H641 H 0.9922 0.82926 0.56857 0.0
H642 H 0.03797 0.85771 0.56951 0.0
H643 H 0.08 0.87829 0.60298 0.0
H644 H 0.08509 0.86483 0.71609 0.0
H645 H 0.03998 0.83599 0.71455 0.0
C646 C 0.00807 0.82369 0.65682 0.0
C647 C 0.99283 0.81951 0.62481 0.0
C648 C 0.03379 0.8404 0.65778 0.0
C649 C 0.00369 0.83217 0.59349 0.0
C650 C 0.02979 0.84839 0.59406 0.0
C651 C 0.07116 0.86894 0.62718 0.0
C652 C 0.08575 0.87359 0.65962 0.0
C653 C 0.04502 0.85264 0.6261 0.0
C654 C 0.07402 0.86177 0.69094 0.0
C655 C 0.04837 0.84516 0.69002 0.0
H656 H 0.68065 0.47306 0.78976 0.0
H657 H 0.64323 0.49574 0.89137 0.0
H658 H 0.6201 0.44747 0.89505 0.0
H659 H 0.60962 0.39934 0.86856 0.0
H660 H 0.64733 0.37704 0.76707 0.0
H661 H 0.67107 0.42489 0.76402 0.0
C662 C 0.6675 0.46746 0.81278 0.0
C663 C 0.66358 0.48795 0.84018 0.0
C664 C 0.65421 0.43983 0.81464 0.0
C665 C 0.64647 0.48036 0.86983 0.0
C666 C 0.63327 0.45277 0.87197 0.0
C667 C 0.62329 0.40485 0.84599 0.0
C668 C 0.62661 0.38472 0.81803 0.0
C669 C 0.63689 0.4324 0.84443 0.0
C670 C 0.64405 0.39232 0.78867 0.0
C671 C 0.65777 0.4196 0.787 0.0
H672 H 0.50538 0.68843 0.80358 0.0
H673 H 0.48872 0.65179 0.90728 0.0
H674 H 0.5353 0.62507 0.90466 0.0
H675 H 0.5796 0.61051 0.87144 0.0
H676 H 0.59469 0.64611 0.76698 0.0
H677 H 0.54958 0.67475 0.77117 0.0
C678 C 0.512 0.67482 0.82579 0.0
C679 C 0.49367 0.6721 0.85559 0.0
C680 C 0.53834 0.65914 0.82377 0.0
C681 C 0.50248 0.65419 0.88401 0.0
C682 C 0.52905 0.63889 0.8825 0.0
C683 C 0.57309 0.62477 0.8498 0.0
C684 C 0.59032 0.62615 0.81889 0.0
C685 C 0.54698 0.64096 0.85231 0.0
C686 C 0.58153 0.64439 0.7908 0.0
C687 C 0.55586 0.66088 0.79328 0.0
H688 H 0.30998 0.50502 0.79735 0.0
H689 H 0.34089 0.48699 0.90343 0.0
H690 H 0.36648 0.53427 0.90447 0.0
H691 H 0.38061 0.58031 0.87447 0.0
H692 H 0.35004 0.59703 0.76799 0.0
H693 H 0.32399 0.55034 0.76768 0.0
C694 C 0.32217 0.51144 0.82084 0.0
C695 C 0.32346 0.49262 0.85033 0.0
C696 C 0.33706 0.53827 0.82101 0.0
C697 C 0.33959 0.50115 0.88039 0.0
C698 C 0.35421 0.52813 0.88097 0.0
C699 C 0.36808 0.57376 0.85134 0.0
C700 C 0.36729 0.59206 0.82126 0.0
C701 C 0.35317 0.54681 0.85134 0.0
C702 C 0.35133 0.58316 0.79125 0.0
C703 C 0.33626 0.55657 0.79115 0.0
H704 H 0.41018 0.37717 0.86977 0.0
H705 H 0.39559 0.34688 0.76274 0.0
H706 H 0.44145 0.31936 0.76454 0.0
H707 H 0.48536 0.30373 0.79646 0.0
H708 H 0.50064 0.33404 0.9034 0.0
H709 H 0.45449 0.36146 0.90193 0.0
C710 C 0.41698 0.36438 0.84697 0.0
C711 C 0.39955 0.36408 0.81616 0.0
C712 C 0.44335 0.34856 0.84823 0.0
C713 C 0.40882 0.34779 0.78658 0.0
C714 C 0.43492 0.33189 0.78767 0.0
C715 C 0.47857 0.31622 0.81954 0.0
C716 C 0.4963 0.31682 0.85002 0.0
C717 C 0.4523 0.3321 0.81835 0.0
C718 C 0.48733 0.3333 0.87959 0.0
C719 C 0.46098 0.34896 0.87876 0.0
H720 H 0.61824 0.57089 0.1214 0.0
H721 H 0.63791 0.58408 0.23214 0.0
H722 H 0.67134 0.54226 0.23143 0.0
H723 H 0.69328 0.50108 0.20021 0.0
H724 H 0.67173 0.48501 0.09042 0.0
H725 H 0.64092 0.52913 0.08955 0.0
C726 C 0.63006 0.56458 0.14519 0.0
C727 C 0.6256 0.58025 0.17683 0.0
C728 C 0.64884 0.54017 0.14468 0.0
C729 C 0.64074 0.57195 0.20768 0.0
C730 C 0.65994 0.54821 0.20722 0.0
C731 C 0.68215 0.50738 0.17592 0.0
C732 C 0.68483 0.48997 0.14538 0.0
C733 C 0.66393 0.53204 0.17599 0.0
C734 C 0.66995 0.49816 0.11426 0.0
C735 C 0.65232 0.52329 0.1138 0.0
H736 H 0.47722 0.68376 0.2034 0.0
H737 H 0.49478 0.64322 0.10211 0.0
H738 H 0.44586 0.62083 0.10266 0.0
H739 H 0.39918 0.61069 0.13398 0.0
H740 H 0.38341 0.65059 0.23599 0.0
H741 H 0.4308 0.67522 0.23324 0.0
C742 C 0.47037 0.67021 0.18124 0.0
C743 C 0.48965 0.66505 0.15284 0.0
C744 C 0.44265 0.65709 0.18208 0.0
C745 C 0.48035 0.64744 0.12437 0.0
C746 C 0.45243 0.6346 0.12472 0.0
C747 C 0.40607 0.62502 0.15536 0.0
C748 C 0.38798 0.62862 0.18531 0.0
C749 C 0.43355 0.63895 0.15372 0.0
C750 C 0.3972 0.64706 0.213 0.0
C751 C 0.42419 0.66128 0.21135 0.0
H752 H 0.32111 0.49427 0.21562 0.0
H753 H 0.32236 0.50101 0.10143 0.0
H754 H 0.35437 0.45787 0.09796 0.0
H755 H 0.38267 0.41883 0.12793 0.0
H756 H 0.3827 0.41422 0.24222 0.0
H757 H 0.34971 0.45629 0.24527 0.0
C758 C 0.32818 0.48615 0.18994 0.0
C759 C 0.31932 0.50052 0.15882 0.0
C760 C 0.34702 0.46199 0.18827 0.0
C761 C 0.32899 0.49016 0.12574 0.0
C762 C 0.34726 0.46559 0.12377 0.0
C763 C 0.37533 0.42711 0.1534 0.0
C764 C 0.38509 0.41364 0.1848 0.0
C765 C 0.35654 0.45144 0.15491 0.0
C766 C 0.37578 0.42458 0.21776 0.0
C767 C 0.35677 0.44844 0.21949 0.0
H768 H 0.52092 0.30564 0.20547 0.0
H769 H 0.50522 0.33336 0.09757 0.0
H770 H 0.55308 0.35783 0.09638 0.0
H771 H 0.5978 0.37395 0.1277 0.0
H772 H 0.61155 0.34796 0.2365 0.0
H773 H 0.56564 0.32041 0.23587 0.0
C774 C 0.52808 0.31668 0.18147 0.0
C775 C 0.50963 0.31769 0.15163 0.0
C776 C 0.55501 0.33135 0.1814 0.0
C777 C 0.5191 0.33233 0.12089 0.0
C778 C 0.54636 0.34639 0.12026 0.0
C779 C 0.59079 0.36201 0.15109 0.0
C780 C 0.60783 0.36309 0.18217 0.0
C781 C 0.56424 0.34648 0.15061 0.0
C782 C 0.59849 0.34782 0.21249 0.0
C783 C 0.5724 0.33192 0.21206 0.0
H784 H 0.16074 0.10558 0.45948 0.0
H785 H 0.22514 0.1749 0.46562 0.0
H786 H 0.19255 0.20344 0.50329 0.0
H787 H 0.14643 0.20873 0.53509 0.0
H788 H 0.08317 0.13844 0.53449 0.0
H789 H 0.11445 0.11032 0.49367 0.0
C790 C 0.1676 0.12689 0.46921 0.0
C791 C 0.19536 0.13806 0.4598 0.0
C792 C 0.14888 0.1431 0.49151 0.0
C793 C 0.20404 0.16564 0.47268 0.0
C794 C 0.18534 0.1821 0.49407 0.0
C795 C 0.13923 0.18744 0.52559 0.0
C796 C 0.11231 0.17586 0.5371 0.0
C797 C 0.15776 0.17109 0.50357 0.0
C798 C 0.10369 0.14788 0.52554 0.0
C799 C 0.12162 0.1318 0.50241 0.0
H800 H 0.83672 0.18866 0.44382 0.0
H801 H 0.91397 0.13686 0.46449 0.0
H802 H 0.88634 0.10659 0.5067 0.0
H803 H 0.83981 0.09457 0.53687 0.0
H804 H 0.76204 0.14487 0.51265 0.0
H805 H 0.79012 0.17561 0.4721 0.0
C806 C 0.84758 0.17099 0.45797 0.0
C807 C 0.87741 0.16527 0.45171 0.0
C808 C 0.83133 0.15313 0.48105 0.0
C809 C 0.89106 0.14179 0.4693 0.0
C810 C 0.87524 0.12444 0.49323 0.0
C811 C 0.82902 0.11223 0.52267 0.0
C812 C 0.79888 0.11746 0.52796 0.0
C813 C 0.84529 0.12979 0.49913 0.0
C814 C 0.78515 0.14021 0.509 0.0
C815 C 0.80124 0.15797 0.48596 0.0
H816 H 0.87668 0.84246 0.52708 0.0
H817 H 0.82641 0.76231 0.52016 0.0
H818 H 0.79376 0.78468 0.47712 0.0
H819 H 0.77885 0.82664 0.44158 0.0
H820 H 0.82958 0.90642 0.44448 0.0
H821 H 0.86254 0.88464 0.48879 0.0
C822 C 0.85863 0.82993 0.51603 0.0
C823 C 0.85408 0.80073 0.52699 0.0
C824 C 0.83989 0.84287 0.49062 0.0
C825 C 0.83064 0.78476 0.51224 0.0
C826 C 0.81179 0.79755 0.48762 0.0
C827 C 0.79702 0.83938 0.452 0.0
C828 C 0.80157 0.86819 0.44006 0.0
C829 C 0.81612 0.82656 0.47672 0.0
C830 C 0.82556 0.88418 0.45337 0.0
C831 C 0.8444 0.87174 0.47869 0.0
H832 H 0.13583 0.79607 0.44046 0.0
H833 H 0.0737 0.8674 0.44048 0.0
H834 H 0.10013 0.89075 0.48963 0.0
H835 H 0.14205 0.89148 0.53127 0.0
H836 H 0.20594 0.82163 0.52716 0.0
H837 H 0.17779 0.79722 0.48083 0.0
C838 C 0.12784 0.81652 0.45156 0.0
C839 C 0.10267 0.82983 0.43729 0.0
C840 C 0.14368 0.83025 0.47879 0.0
C841 C 0.09296 0.85668 0.45129 0.0
C842 C 0.10811 0.87006 0.47925 0.0
C843 C 0.14976 0.87092 0.52019 0.0
C844 C 0.17607 0.85844 0.5326 0.0
C845 C 0.1337 0.85718 0.49299 0.0
C846 C 0.18589 0.83186 0.5179 0.0
C847 C 0.16974 0.81777 0.4915 0.0
H848 H 0.70056 0.64409 0.966 0.0
H849 H 0.635 0.57743 0.94911 0.0
H850 H 0.60412 0.59929 0.99548 0.0
H851 H 0.59579 0.63811 0.04067 0.0
H852 H 0.6603 0.70678 0.05242 0.0
H853 H 0.69143 0.68351 0.00828 0.0
C854 C 0.67962 0.6342 0.97272 0.0
C855 C 0.6702 0.60901 0.95469 0.0
C856 C 0.66169 0.64742 -0.00167 0.0
C857 C 0.64272 0.59679 0.96293 0.0
C858 C 0.62509 0.60929 0.98935 0.0
C859 C 0.61662 0.64792 0.03338 0.0
C860 C 0.62565 0.67415 0.0497 0.0
C861 C 0.6343 0.63473 0.00719 0.0
C862 C 0.65264 0.68677 0.03998 0.0
C863 C 0.6706 0.67341 0.01486 0.0
H864 H 0.3228 0.70031 0.96454 0.0
H865 H 0.39611 0.64058 0.9626 0.0
H866 H 0.37367 0.61161 0.01039 0.0
H867 H 0.33294 0.60379 0.05313 0.0
H868 H 0.25865 0.6626 0.05097 0.0
H869 H 0.28173 0.69135 0.00435 0.0
C870 C 0.33396 0.68102 0.97468 0.0
C871 C 0.36118 0.67274 0.96048 0.0
C872 C 0.32067 0.66427 0.00135 0.0
C873 C 0.37512 0.64738 0.9733 0.0
C874 C 0.36232 0.63087 0.00059 0.0
C875 C 0.32186 0.62286 0.04233 0.0
C876 C 0.29415 0.63105 0.05554 0.0
C877 C 0.33507 0.63916 0.01489 0.0
C878 C 0.2799 0.65568 0.04116 0.0
C879 C 0.29311 0.67225 0.01457 0.0
H880 H 0.34706 0.38694 0.95634 0.0
H881 H 0.27844 0.32169 0.9528 0.0
H882 H 0.30122 0.29519 0.00152 0.0
H883 H 0.33955 0.2908 0.04595 0.0
H884 H 0.40724 0.35666 0.05328 0.0
H885 H 0.38598 0.38261 0.00234 0.0
C886 C 0.33726 0.36686 0.96623 0.0
C887 C 0.31107 0.35635 0.95102 0.0
C888 C 0.35023 0.35185 0.99495 0.0
C889 C 0.29844 0.33042 0.9642 0.0
C890 C 0.31149 0.31515 0.99204 0.0
C891 C 0.34985 0.31074 0.03636 0.0
C892 C 0.37503 0.32169 0.05328 0.0
C893 C 0.33723 0.32574 0.00772 0.0
C894 C 0.38782 0.34776 0.04068 0.0
C895 C 0.37567 0.36259 0.01157 0.0
H896 H 0.65732 0.27785 0.9716 0.0
H897 H 0.59226 0.34587 0.96062 0.0
H898 H 0.61853 0.37605 0.00435 0.0
H899 H 0.66037 0.3827 0.04595 0.0
H900 H 0.72681 0.31537 0.05208 0.0
H901 H 0.69969 0.28537 0.00995 0.0
C902 C 0.64875 0.29921 0.97896 0.0
C903 C 0.62269 0.30948 0.96343 0.0
C904 C 0.66434 0.3166 0.00311 0.0
C905 C 0.61223 0.33748 0.97248 0.0
C906 C 0.62724 0.35469 0.99743 0.0
C907 C 0.66886 0.3615 0.03791 0.0
C908 C 0.69555 0.35128 0.05215 0.0
C909 C 0.65337 0.34446 0.01295 0.0
C910 C 0.70645 0.32387 0.04136 0.0
C911 C 0.69089 0.30659 0.01737 0.0
H912 H 0.26463 0.21856 0.32636 0.0
H913 H 0.24285 0.16785 0.23343 0.0
H914 H 0.26451 0.20548 0.19532 0.0
H915 H 0.2973 0.24776 0.1898 0.0
H916 H 0.32325 0.29565 0.28324 0.0
H917 H 0.29145 0.2648 0.31996 0.0
C918 C 0.26394 0.21622 0.29771 0.0
C919 C 0.25272 0.19045 0.28258 0.0
C920 C 0.27724 0.2374 0.27621 0.0
C921 C 0.25197 0.18739 0.24551 0.0
C922 C 0.26425 0.20887 0.2238 0.0
C923 C 0.29505 0.25204 0.21801 0.0
C924 C 0.31243 0.27364 0.23406 0.0
C925 C 0.27807 0.23329 0.23899 0.0
C926 C 0.30992 0.27896 0.27061 0.0
C927 C 0.292 0.26122 0.29153 0.0
H928 H 0.77103 0.27547 0.18292 0.0
H929 H 0.74626 0.32198 0.27795 0.0
H930 H 0.77136 0.28538 0.31438 0.0
H931 H 0.80605 0.24461 0.31825 0.0
H932 H 0.83351 0.1999 0.22305 0.0
H933 H 0.80111 0.23101 0.18744 0.0
C934 C 0.77059 0.27713 0.21164 0.0
C935 C 0.75729 0.30141 0.22786 0.0
C936 C 0.78565 0.25649 0.23224 0.0
C937 C 0.75689 0.30361 0.26503 0.0
C938 C 0.77114 0.28272 0.28579 0.0
C939 C 0.80423 0.24113 0.28984 0.0
C940 C 0.82213 0.22028 0.27312 0.0
C941 C 0.78645 0.25968 0.26958 0.0
C942 C 0.82001 0.21612 0.23628 0.0
C943 C 0.80161 0.2339 0.21599 0.0
H944 H 0.73777 0.78718 0.30599 0.0
H945 H 0.75379 0.83573 0.20967 0.0
H946 H 0.73069 0.79678 0.1748 0.0
H947 H 0.69851 0.75371 0.17348 0.0
H948 H 0.67847 0.70803 0.27064 0.0
H949 H 0.71133 0.7406 0.3036 0.0
C950 C 0.73696 0.78877 0.27726 0.0
C951 C 0.74703 0.81425 0.26031 0.0
C952 C 0.72279 0.76691 0.25772 0.0
C953 C 0.7457 0.81636 0.22317 0.0
C954 C 0.73254 0.79416 0.20331 0.0
C955 C 0.70221 0.75038 0.20165 0.0
C956 C 0.68624 0.72884 0.21986 0.0
C957 C 0.7199 0.77 0.22051 0.0
C958 C 0.69064 0.7247 0.25637 0.0
C959 C 0.70922 0.74337 0.27514 0.0
H960 H 0.18214 0.74931 0.31237 0.0
H961 H 0.16719 0.79564 0.21417 0.0
H962 H 0.19917 0.76127 0.18282 0.0
H963 H 0.22512 0.71431 0.18215 0.0
H964 H 0.23922 0.66741 0.28023 0.0
H965 H 0.21374 0.70593 0.31301 0.0
C966 C 0.18662 0.75239 0.28434 0.0
C967 C 0.1722 0.77466 0.26544 0.0
C968 C 0.20433 0.73218 0.26643 0.0
C969 C 0.17786 0.77832 0.22906 0.0
C970 C 0.19603 0.75868 0.21117 0.0
C971 C 0.22324 0.71286 0.2108 0.0
C972 C 0.23351 0.68787 0.22869 0.0
C973 C 0.20841 0.7349 0.22936 0.0
C974 C 0.23079 0.68616 0.26579 0.0
C975 C 0.2164 0.70821 0.28455 0.0
H976 H 0.31214 0.73254 0.74636 0.0
H977 H 0.27963 0.76647 0.84553 0.0
H978 H 0.24239 0.79514 0.81386 0.0
H979 H 0.22421 0.81552 0.75754 0.0
H980 H 0.25731 0.78188 0.6584 0.0
H981 H 0.28885 0.74743 0.69036 0.0
C982 C 0.29647 0.74584 0.76089 0.0
C983 C 0.2986 0.74795 0.79791 0.0
C984 C 0.27545 0.76226 0.74254 0.0
C985 C 0.2782 0.76478 0.8169 0.0
C986 C 0.25711 0.78121 0.79883 0.0
C987 C 0.23795 0.80019 0.74308 0.0
C988 C 0.23891 0.80133 0.70587 0.0
C989 C 0.25626 0.78088 0.76161 0.0
C990 C 0.25632 0.78124 0.68712 0.0
C991 C 0.2745 0.76178 0.70535 0.0
H992 H 0.25075 0.3201 0.73129 0.0
H993 H 0.23147 0.27772 0.83093 0.0
H994 H 0.20331 0.23992 0.79996 0.0
H995 H 0.17858 0.22347 0.74574 0.0
H996 H 0.19629 0.26675 0.64632 0.0
H997 H 0.23134 0.2994 0.67577 0.0
C998 C 0.24061 0.30236 0.74605 0.0
C999 C 0.24256 0.30181 0.78323 0.0
C1000 C 0.22426 0.28101 0.72813 0.0
C1001 C 0.23003 0.2785 0.80224 0.0
C1002 C 0.21388 0.25702 0.7846 0.0
C1003 C 0.19065 0.23969 0.73052 0.0
C1004 C 0.18477 0.24318 0.69421 0.0
C1005 C 0.21004 0.25869 0.74774 0.0
C1006 C 0.20063 0.26382 0.67437 0.0
C1007 C 0.22038 0.28261 0.69124 0.0
H1008 H 0.66993 0.24898 0.75161 0.0
H1009 H 0.70741 0.20944 0.84509 0.0
H1010 H 0.74187 0.18162 0.80817 0.0
H1011 H 0.75478 0.16268 0.7492 0.0
H1012 H 0.71541 0.2006 0.65578 0.0
H1013 H 0.68849 0.23564 0.69268 0.0
C1014 C 0.68615 0.23471 0.76375 0.0
C1015 C 0.68609 0.23061 0.80064 0.0
C1016 C 0.7052 0.21848 0.74241 0.0
C1017 C 0.70723 0.21261 0.81659 0.0
C1018 C 0.72668 0.19665 0.79552 0.0
C1019 C 0.7407 0.17905 0.73704 0.0
C1020 C 0.73643 0.17892 0.70015 0.0
C1021 C 0.72489 0.19847 0.7584 0.0
C1022 C 0.71876 0.20039 0.68425 0.0
C1023 C 0.70327 0.2202 0.70531 0.0
H1024 H 0.72902 0.67346 0.74286 0.0
H1025 H 0.77576 0.69365 0.83924 0.0
H1026 H 0.8081 0.72706 0.80651 0.0
H1027 H 0.82706 0.74458 0.74911 0.0
H1028 H 0.78113 0.72251 0.65261 0.0
H1029 H 0.74415 0.69587 0.68674 0.0
C1030 C 0.74596 0.6857 0.75669 0.0
C1031 C 0.75047 0.68103 0.79308 0.0
C1032 C 0.76473 0.70409 0.73763 0.0
C1033 C 0.77206 0.69708 0.81113 0.0
C1034 C 0.79065 0.71588 0.7924 0.0
C1035 C 0.80878 0.7341 0.7357 0.0
C1036 C 0.80696 0.73492 0.69849 0.0
C1037 C 0.78789 0.71858 0.75543 0.0
C1038 C 0.78292 0.72198 0.68127 0.0
C1039 C 0.76189 0.70669 0.70072 0.0
H1040 H 0.27433 0.00408 0.42841 0.0
H1041 H 0.3144 0.06556 0.49994 0.0
H1042 H 0.31588 0.02798 0.54684 0.0
H1043 H 0.29786 0.98034 0.56947 0.0
H1044 H 0.25325 0.9212 0.49861 0.0
H1045 H 0.26158 0.95475 0.4489 0.0
C1046 C 0.28415 0.00873 0.45404 0.0
C1047 C 0.29434 0.0371 0.46118 0.0
C1048 C 0.2837 0.98754 0.48082 0.0
C1049 C 0.30673 0.04358 0.49425 0.0
C1050 C 0.30729 0.02223 0.52093 0.0
C1051 C 0.29091 0.97454 0.54286 0.0
C1052 C 0.27502 0.94853 0.53734 0.0
C1053 C 0.29476 -0.0055 0.51489 0.0
C1054 C 0.26549 0.94123 0.50309 0.0
C1055 C 0.27014 0.9604 0.47486 0.0
H1056 H 0.93503 0.24774 0.47241 0.0
H1057 H 0.00312 0.28429 0.40696 0.0
H1058 H 0.03246 0.29557 0.45993 0.0
H1059 H 0.04219 0.28555 0.52367 0.0
H1060 H 0.97468 0.24596 0.58745 0.0
H1061 H 0.94111 0.24587 0.53684 0.0
C1062 C 0.95595 0.25895 0.47005 0.0
C1063 C 0.96725 0.26491 0.43625 0.0
C1064 C 0.97273 0.26456 0.50036 0.0
C1065 C 0.99416 0.2796 0.43297 0.0
C1066 C 0.01096 0.28577 0.46318 0.0
C1067 C 0.01972 0.2781 0.52655 0.0
C1068 C 0.01065 0.26575 0.55885 0.0
C1069 C 0.00102 0.27708 0.49688 0.0
C1070 C 0.98178 0.25559 0.5626 0.0
C1071 C 0.96278 0.25531 0.53368 0.0
H1072 H 0.71587 0.91865 0.48319 0.0
H1073 H 0.66345 0.97611 0.41854 0.0
H1074 H 0.65801 0.01022 0.46832 0.0
H1075 H 0.67795 0.02821 0.5253 0.0
H1076 H 0.73297 0.97145 0.58799 0.0
H1077 H 0.72739 0.93223 0.54444 0.0
C1078 C 0.70242 0.93817 0.48063 0.0
C1079 C 0.69041 0.94524 0.44752 0.0
C1080 C 0.70039 0.95798 0.50882 0.0
C1081 C 0.67282 0.97036 0.44402 0.0
C1082 C 0.67004 0.98998 0.47231 0.0
C1083 C 0.68776 0.00688 0.52988 0.0
C1084 C 0.70635 0.00274 0.55916 0.0
C1085 C 0.68515 0.98476 0.50416 0.0
C1086 C 0.71906 0.97511 0.56509 0.0
C1087 C 0.71592 0.95277 0.54025 0.0
H1088 H 0.92555 0.74741 0.48689 0.0
H1089 H 0.9919 0.69585 0.53897 0.0
H1090 H 0.02134 0.69538 0.48442 0.0
H1091 H 0.0316 0.71745 0.42547 0.0
H1092 H 0.96603 0.77175 0.37603 0.0
H1093 H 0.93246 0.76315 0.42553 0.0
C1094 C 0.94621 0.73563 0.48591 0.0
C1095 C 0.95691 0.72213 0.51672 0.0
C1096 C 0.96312 0.73618 0.45498 0.0
C1097 C 0.98338 0.70642 0.51538 0.0
C1098 C 0.00025 0.70637 0.48434 0.0
C1099 C 0.00957 0.72643 0.42521 0.0
C1100 C 0.00107 0.74523 0.39755 0.0
C1101 C 0.99087 0.72223 0.45444 0.0
C1102 C 0.97275 0.75726 0.39732 0.0
C1103 C 0.95373 0.7525 0.42562 0.0
H1104 H 0.79269 0.53052 0.96208 0.0
H1105 H 0.73105 0.47437 0.90821 0.0
H1106 H 0.73696 0.43694 0.95399 0.0
H1107 H 0.7539 0.42366 0.01323 0.0
H1108 H 0.81261 0.48081 0.07002 0.0
H1109 H 0.81463 0.51404 0.01888 0.0
C1110 C 0.78121 0.50976 0.96011 0.0
C1111 C 0.76116 0.50519 0.93236 0.0
C1112 C 0.78414 0.4887 0.98709 0.0
C1113 C 0.74619 0.47837 0.92984 0.0
C1114 C 0.7496 0.45702 0.95589 0.0
C1115 C 0.76751 0.44316 0.01403 0.0
C1116 C 0.78267 0.45016 0.04527 0.0
C1117 C 0.76759 0.46248 0.98527 0.0
C1118 C 0.80076 0.47508 0.0461 0.0
C1119 C 0.80165 0.49418 0.01705 0.0
H1120 H 0.48344 0.789 0.95312 0.0
H1121 H 0.41711 0.733 -0.00174 0.0
H1122 H 0.44323 0.73217 0.05484 0.0
H1123 H 0.48876 0.74034 0.08742 0.0
H1124 H 0.55697 0.79384 0.04249 0.0
H1125 H 0.52632 0.80347 0.98998 0.0
C1126 C 0.47444 0.77746 0.9758 0.0
C1127 C 0.44874 0.76079 0.97179 0.0
C1128 C 0.4901 0.77641 0.00793 0.0
C1129 C 0.43711 0.74565 0.00101 0.0
C1130 C 0.45203 0.74513 0.03318 0.0
C1131 C 0.49645 0.75468 0.06639 0.0
C1132 C 0.52491 0.76614 0.06817 0.0
C1133 C 0.47913 0.75932 0.03636 0.0
C1134 C 0.53497 0.78491 0.04133 0.0
C1135 C 0.51758 0.79014 0.01132 0.0
H1136 H 0.24628 0.4913 0.07922 0.0
H1137 H 0.18263 0.55138 0.0365 0.0
H1138 H 0.17857 0.52142 0.98245 0.0
H1139 H 0.19865 0.48157 0.94463 0.0
H1140 H 0.26337 0.42279 0.98834 0.0
H1141 H 0.26156 0.44859 0.04495 0.0
C1142 C 0.23125 0.49749 0.05818 0.0
C1143 C 0.2151 0.5235 0.06125 0.0
C1144 C 0.22952 0.48055 0.02739 0.0
C1145 C 0.19524 0.53133 0.0344 0.0
C1146 C 0.19312 0.51435 0.00354 0.0
C1147 C 0.21175 0.47412 0.96689 0.0
C1148 C 0.23151 0.45075 0.96233 0.0
C1149 C 0.2109 0.4894 -0.00072 0.0
C1150 C 0.24849 0.44117 0.99121 0.0
C1151 C 0.24742 0.45583 0.02352 0.0
H1152 H 0.53494 0.19547 0.98939 0.0
H1153 H 0.4792 0.24824 0.92265 0.0
H1154 H 0.44129 0.24882 0.96838 0.0
H1155 H 0.42842 0.24216 0.03073 0.0
H1156 H 0.48497 0.19252 0.09961 0.0
H1157 H 0.51789 0.18187 0.04967 0.0
C1158 C 0.5141 0.20626 0.98467 0.0
C1159 C 0.50985 0.22223 0.95322 0.0
C1160 C 0.49279 0.2072 0.01157 0.0
C1161 C 0.48292 0.23629 0.94709 0.0
C1162 C 0.46133 0.23662 0.97315 0.0
C1163 C 0.44755 0.2283 0.03435 0.0
C1164 C 0.45468 0.21841 0.06845 0.0
C1165 C 0.46666 0.22336 0.00602 0.0
C1166 C 0.47921 0.20026 0.07334 0.0
C1167 C 0.49813 0.19451 0.04493 0.0
loop_
_geom_bond_atom_site_label_1
_geom_bond_atom_site_label_2
_geom_bond_distance
_geom_bond_site_symmetry_2
_ccdc_geom_bond_type
C0 C1 1.351 . S
C0 N3 1.368 . S
C0 H5 0.931 . S
C1 C0 1.351 . S
C1 N2 1.373 . S
C1 H29 0.930 . S
N2 C1 1.373 . S
N2 C4 1.340 . S
N3 C0 1.368 . S
N3 C4 1.321 . S
N3 Co6 2.135 . S
C4 N2 1.340 . S
C4 N3 1.321 . S
C4 H28 0.930 . S
H5 C0 0.931 . S
Co6 N3 2.135 . S
Co6 N9 2.121 . S
Co6 O14 2.055 . S
Co6 O17 2.039 . S
Co6 N20 2.140 . S
C7 O8 1.227 . S
C7 O17 1.265 . S
O8 C7 1.227 . S
N9 Co6 2.121 . S
N9 C11 1.375 . S
N9 C12 1.313 . S
C10 C11 1.338 . S
C10 N13 1.377 . S
C10 H30 0.930 . S
C11 N9 1.375 . S
C11 C10 1.338 . S
C11 H15 0.931 . S
C12 N9 1.313 . S
C12 N13 1.344 . S
C12 H16 0.930 . S
N13 C10 1.377 . S
N13 C12 1.344 . S
O14 Co6 2.055 . S
O14 C18 1.253 . S
H15 C11 0.931 . S
H16 C12 0.930 . S
O17 Co6 2.039 . S
O17 C7 1.265 . S
C18 O14 1.253 . S
C18 O19 1.227 . S
O19 C18 1.227 . S
N20 Co6 2.140 . S
N20 C23 1.346 . S
N20 C24 1.345 . S
C21 C22 1.387 . S
C21 C25 1.391 . S
C22 C21 1.387 . S
C22 C23 1.369 . S
C22 H31 0.929 . S
C23 N20 1.346 . S
C23 C22 1.369 . S
C23 H26 0.928 . S
C24 N20 1.345 . S
C24 C25 1.371 . S
C24 H27 0.931 . S
C25 C21 1.391 . S
C25 C24 1.371 . S
C25 H32 0.930 . S
H26 C23 0.928 . S
H27 C24 0.931 . S
H28 C4 0.930 . S
H29 C1 0.930 . S
H30 C10 0.930 . S
H31 C22 0.929 . S
H32 C25 0.930 . S
C33 C34 1.351 . S
C33 N36 1.368 . S
C33 H38 0.931 . S
C34 C33 1.351 . S
C34 N35 1.373 . S
C34 H62 0.930 . S
N35 C34 1.373 . S
N35 C37 1.340 . S
N36 C33 1.368 . S
N36 C37 1.321 . S
N36 Co39 2.135 . S
C37 N35 1.340 . S
C37 N36 1.321 . S
C37 H61 0.930 . S
H38 C33 0.931 . S
Co39 N36 2.135 . S
Co39 N42 2.121 . S
Co39 O47 2.055 . S
Co39 O50 2.039 . S
Co39 N53 2.140 . S
C40 O41 1.227 . S
C40 O50 1.265 . S
O41 C40 1.227 . S
N42 Co39 2.121 . S
N42 C44 1.375 . S
N42 C45 1.313 . S
C43 C44 1.338 . S
C43 N46 1.377 . S
C43 H63 0.930 . S
C44 N42 1.375 . S
C44 C43 1.338 . S
C44 H48 0.931 . S
C45 N42 1.313 . S
C45 N46 1.344 . S
C45 H49 0.930 . S
N46 C43 1.377 . S
N46 C45 1.344 . S
O47 Co39 2.055 . S
O47 C51 1.253 . S
H48 C44 0.931 . S
H49 C45 0.930 . S
O50 Co39 2.039 . S
O50 C40 1.265 . S
C51 O47 1.253 . S
C51 O52 1.227 . S
O52 C51 1.227 . S
N53 Co39 2.140 . S
N53 C56 1.346 . S
N53 C57 1.345 . S
C54 C55 1.387 . S
C54 C58 1.391 . S
C55 C54 1.387 . S
C55 C56 1.369 . S
C55 H64 0.929 . S
C56 N53 1.346 . S
C56 C55 1.369 . S
C56 H59 0.928 . S
C57 N53 1.345 . S
C57 C58 1.371 . S
C57 H60 0.931 . S
C58 C54 1.391 . S
C58 C57 1.371 . S
C58 H65 0.930 . S
H59 C56 0.928 . S
H60 C57 0.931 . S
H61 C37 0.930 . S
H62 C34 0.930 . S
H63 C43 0.930 . S
H64 C55 0.929 . S
H65 C58 0.930 . S
C66 C67 1.351 . S
C66 N69 1.368 . S
C66 H71 0.931 . S
C67 C66 1.351 . S
C67 N68 1.373 . S
C67 H95 0.930 . S
N68 C67 1.373 . S
N68 C70 1.340 . S
N69 C66 1.368 . S
N69 C70 1.321 . S
N69 Co72 2.135 . S
C70 N68 1.340 . S
C70 N69 1.321 . S
C70 H94 0.930 . S
H71 C66 0.931 . S
Co72 N69 2.135 . S
Co72 N75 2.121 . S
Co72 O80 2.055 . S
Co72 O83 2.039 . S
Co72 N86 2.140 . S
C73 O74 1.227 . S
C73 O83 1.265 . S
O74 C73 1.227 . S
N75 Co72 2.121 . S
N75 C77 1.375 . S
N75 C78 1.313 . S
C76 C77 1.338 . S
C76 N79 1.377 . S
C76 H96 0.930 . S
C77 N75 1.375 . S
C77 C76 1.338 . S
C77 H81 0.931 . S
C78 N75 1.313 . S
C78 N79 1.344 . S
C78 H82 0.930 . S
N79 C76 1.377 . S
N79 C78 1.344 . S
O80 Co72 2.055 . S
O80 C84 1.253 . S
H81 C77 0.931 . S
H82 C78 0.930 . S
O83 Co72 2.039 . S
O83 C73 1.265 . S
C84 O80 1.253 . S
C84 O85 1.227 . S
O85 C84 1.227 . S
N86 Co72 2.140 . S
N86 C89 1.346 . S
N86 C90 1.345 . S
C87 C88 1.387 . S
C87 C91 1.391 . S
C88 C87 1.387 . S
C88 C89 1.369 . S
C88 H97 0.929 . S
C89 N86 1.346 . S
C89 C88 1.369 . S
C89 H92 0.928 . S
C90 N86 1.345 . S
C90 C91 1.371 . S
C90 H93 0.931 . S
C91 C87 1.391 . S
C91 C90 1.371 . S
C91 H98 0.930 . S
H92 C89 0.928 . S
H93 C90 0.931 . S
H94 C70 0.930 . S
H95 C67 0.930 . S
H96 C76 0.930 . S
H97 C88 0.929 . S
H98 C91 0.930 . S
C99 C100 1.351 . S
C99 N102 1.368 . S
C99 H104 0.931 . S
C100 C99 1.351 . S
C100 N101 1.373 . S
C100 H128 0.930 . S
N101 C100 1.373 . S
N101 C103 1.340 . S
N102 C99 1.368 . S
N102 C103 1.321 . S
N102 Co105 2.135 . S
C103 N101 1.340 . S
C103 N102 1.321 . S
C103 H127 0.930 . S
H104 C99 0.931 . S
Co105 N102 2.135 . S
Co105 N108 2.121 . S
Co105 O113 2.055 . S
Co105 O116 2.039 . S
Co105 N119 2.140 . S
C106 O107 1.227 . S
C106 O116 1.265 . S
O107 C106 1.227 . S
N108 Co105 2.121 . S
N108 C110 1.375 . S
N108 C111 1.313 . S
C109 C110 1.338 . S
C109 N112 1.377 . S
C109 H129 0.930 . S
C110 N108 1.375 . S
C110 C109 1.338 . S
C110 H114 0.931 . S
C111 N108 1.313 . S
C111 N112 1.344 . S
C111 H115 0.930 . S
N112 C109 1.377 . S
N112 C111 1.344 . S
O113 Co105 2.055 . S
O113 C117 1.253 . S
H114 C110 0.931 . S
H115 C111 0.930 . S
O116 Co105 2.039 . S
O116 C106 1.265 . S
C117 O113 1.253 . S
C117 O118 1.227 . S
O118 C117 1.227 . S
N119 Co105 2.140 . S
N119 C122 1.346 . S
N119 C123 1.345 . S
C120 C121 1.387 . S
C120 C124 1.391 . S
C121 C120 1.387 . S
C121 C122 1.369 . S
C121 H130 0.929 . S
C122 N119 1.346 . S
C122 C121 1.369 . S
C122 H125 0.928 . S
C123 N119 1.345 . S
C123 C124 1.371 . S
C123 H126 0.931 . S
C124 C120 1.391 . S
C124 C123 1.371 . S
C124 H131 0.930 . S
H125 C122 0.928 . S
H126 C123 0.931 . S
H127 C103 0.930 . S
H128 C100 0.930 . S
H129 C109 0.930 . S
H130 C121 0.929 . S
H131 C124 0.930 . S
C132 C133 1.351 . S
C132 N135 1.368 . S
C132 H137 0.931 . S
C133 C132 1.351 . S
C133 N134 1.373 . S
C133 H161 0.930 . S
N134 C133 1.373 . S
N134 C136 1.340 . S
N135 C132 1.368 . S
N135 C136 1.321 . S
N135 Co138 2.135 . S
C136 N134 1.340 . S
C136 N135 1.321 . S
C136 H160 0.930 . S
H137 C132 0.931 . S
Co138 N135 2.135 . S
Co138 N141 2.121 . S
Co138 O146 2.055 . S
Co138 O149 2.039 . S
Co138 N152 2.140 . S
C139 O140 1.227 . S
C139 O149 1.265 . S
O140 C139 1.227 . S
N141 Co138 2.121 . S
N141 C143 1.375 . S
N141 C144 1.313 . S
C142 C143 1.338 . S
C142 N145 1.377 . S
C142 H162 0.930 . S
C143 N141 1.375 . S
C143 C142 1.338 . S
C143 H147 0.931 . S
C144 N141 1.313 . S
C144 N145 1.344 . S
C144 H148 0.930 . S
N145 C142 1.377 . S
N145 C144 1.344 . S
O146 Co138 2.055 . S
O146 C150 1.253 . S
H147 C143 0.931 . S
H148 C144 0.930 . S
O149 Co138 2.039 . S
O149 C139 1.265 . S
C150 O146 1.253 . S
C150 O151 1.227 . S
O151 C150 1.227 . S
N152 Co138 2.140 . S
N152 C155 1.346 . S
N152 C156 1.345 . S
C153 C154 1.387 . S
C153 C157 1.391 . S
C154 C153 1.387 . S
C154 C155 1.369 . S
C154 H163 0.929 . S
C155 N152 1.346 . S
C155 C154 1.369 . S
C155 H158 0.928 . S
C156 N152 1.345 . S
C156 C157 1.371 . S
C156 H159 0.931 . S
C157 C153 1.391 . S
C157 C156 1.371 . S
C157 H164 0.930 . S
H158 C155 0.928 . S
H159 C156 0.931 . S
H160 C136 0.930 . S
H161 C133 0.930 . S
H162 C142 0.930 . S
H163 C154 0.929 . S
H164 C157 0.930 . S
C165 C166 1.351 . S
C165 N168 1.368 . S
C165 H170 0.931 . S
C166 C165 1.351 . S
C166 N167 1.373 . S
C166 H194 0.930 . S
N167 C166 1.373 . S
N167 C169 1.340 . S
N168 C165 1.368 . S
N168 C169 1.321 . S
N168 Co171 2.135 . S
C169 N167 1.340 . S
C169 N168 1.321 . S
C169 H193 0.930 . S
H170 C165 0.931 . S
Co171 N168 2.135 . S
Co171 N174 2.121 . S
Co171 O179 2.055 . S
Co171 O182 2.039 . S
Co171 N185 2.140 . S
C172 O173 1.227 . S
C172 O182 1.265 . S
O173 C172 1.227 . S
N174 Co171 2.121 . S
N174 C176 1.375 . S
N174 C177 1.313 . S
C175 C176 1.338 . S
C175 N178 1.377 . S
C175 H195 0.930 . S
C176 N174 1.375 . S
C176 C175 1.338 . S
C176 H180 0.931 . S
C177 N174 1.313 . S
C177 N178 1.344 . S
C177 H181 0.930 . S
N178 C175 1.377 . S
N178 C177 1.344 . S
O179 Co171 2.055 . S
O179 C183 1.253 . S
H180 C176 0.931 . S
H181 C177 0.930 . S
O182 Co171 2.039 . S
O182 C172 1.265 . S
C183 O179 1.253 . S
C183 O184 1.227 . S
O184 C183 1.227 . S
N185 Co171 2.140 . S
N185 C188 1.346 . S
N185 C189 1.345 . S
C186 C187 1.387 . S
C186 C190 1.391 . S
C187 C186 1.387 . S
C187 C188 1.369 . S
C187 H196 0.929 . S
C188 N185 1.346 . S
C188 C187 1.369 . S
C188 H191 0.928 . S
C189 N185 1.345 . S
C189 C190 1.371 . S
C189 H192 0.931 . S
C190 C186 1.391 . S
C190 C189 1.371 . S
C190 H197 0.930 . S
H191 C188 0.928 . S
H192 C189 0.931 . S
H193 C169 0.930 . S
H194 C166 0.930 . S
H195 C175 0.930 . S
H196 C187 0.929 . S
H197 C190 0.930 . S
C198 C199 1.351 . S
C198 N201 1.368 . S
C198 H203 0.931 . S
C199 C198 1.351 . S
C199 N200 1.373 . S
C199 H227 0.930 . S
N200 C199 1.373 . S
N200 C202 1.340 . S
N201 C198 1.368 . S
N201 C202 1.321 . S
N201 Co204 2.135 . S
C202 N200 1.340 . S
C202 N201 1.321 . S
C202 H226 0.930 . S
H203 C198 0.931 . S
Co204 N201 2.135 . S
Co204 N207 2.121 . S
Co204 O212 2.055 . S
Co204 O215 2.039 . S
Co204 N218 2.140 . S
C205 O206 1.227 . S
C205 O215 1.265 . S
O206 C205 1.227 . S
N207 Co204 2.121 . S
N207 C209 1.375 . S
N207 C210 1.313 . S
C208 C209 1.338 . S
C208 N211 1.377 . S
C208 H228 0.930 . S
C209 N207 1.375 . S
C209 C208 1.338 . S
C209 H213 0.931 . S
C210 N207 1.313 . S
C210 N211 1.344 . S
C210 H214 0.930 . S
N211 C208 1.377 . S
N211 C210 1.344 . S
O212 Co204 2.055 . S
O212 C216 1.253 . S
H213 C209 0.931 . S
H214 C210 0.930 . S
O215 Co204 2.039 . S
O215 C205 1.265 . S
C216 O212 1.253 . S
C216 O217 1.227 . S
O217 C216 1.227 . S
N218 Co204 2.140 . S
N218 C221 1.346 . S
N218 C222 1.345 . S
C219 C220 1.387 . S
C219 C223 1.391 . S
C220 C219 1.387 . S
C220 C221 1.369 . S
C220 H229 0.929 . S
C221 N218 1.346 . S
C221 C220 1.369 . S
C221 H224 0.928 . S
C222 N218 1.345 . S
C222 C223 1.371 . S
C222 H225 0.931 . S
C223 C219 1.391 . S
C223 C222 1.371 . S
C223 H230 0.930 . S
H224 C221 0.928 . S
H225 C222 0.931 . S
H226 C202 0.930 . S
H227 C199 0.930 . S
H228 C208 0.930 . S
H229 C220 0.929 . S
H230 C223 0.930 . S
C231 C232 1.351 . S
C231 N234 1.368 . S
C231 H236 0.931 . S
C232 C231 1.351 . S
C232 N233 1.373 . S
C232 H260 0.930 . S
N233 C232 1.373 . S
N233 C235 1.340 . S
N234 C231 1.368 . S
N234 C235 1.321 . S
N234 Co237 2.135 . S
C235 N233 1.340 . S
C235 N234 1.321 . S
C235 H259 0.930 . S
H236 C231 0.931 . S
Co237 N234 2.135 . S
Co237 N240 2.121 . S
Co237 O245 2.055 . S
Co237 O248 2.039 . S
Co237 N251 2.140 . S
C238 O239 1.227 . S
C238 O248 1.265 . S
O239 C238 1.227 . S
N240 Co237 2.121 . S
N240 C242 1.375 . S
N240 C243 1.313 . S
C241 C242 1.338 . S
C241 N244 1.377 . S
C241 H261 0.930 . S
C242 N240 1.375 . S
C242 C241 1.338 . S
C242 H246 0.931 . S
C243 N240 1.313 . S
C243 N244 1.344 . S
C243 H247 0.930 . S
N244 C241 1.377 . S
N244 C243 1.344 . S
O245 Co237 2.055 . S
O245 C249 1.253 . S
H246 C242 0.931 . S
H247 C243 0.930 . S
O248 Co237 2.039 . S
O248 C238 1.265 . S
C249 O245 1.253 . S
C249 O250 1.227 . S
O250 C249 1.227 . S
N251 Co237 2.140 . S
N251 C254 1.346 . S
N251 C255 1.345 . S
C252 C253 1.387 . S
C252 C256 1.391 . S
C253 C252 1.387 . S
C253 C254 1.369 . S
C253 H262 0.929 . S
C254 N251 1.346 . S
C254 C253 1.369 . S
C254 H257 0.928 . S
C255 N251 1.345 . S
C255 C256 1.371 . S
C255 H258 0.931 . S
C256 C252 1.391 . S
C256 C255 1.371 . S
C256 H263 0.930 . S
H257 C254 0.928 . S
H258 C255 0.931 . S
H259 C235 0.930 . S
H260 C232 0.930 . S
H261 C241 0.930 . S
H262 C253 0.929 . S
H263 C256 0.930 . S
C264 C265 1.351 . S
C264 N267 1.368 . S
C264 H269 0.931 . S
C265 C264 1.351 . S
C265 N266 1.373 . S
C265 H293 0.930 . S
N266 C265 1.373 . S
N266 C268 1.340 . S
N267 C264 1.368 . S
N267 C268 1.321 . S
N267 Co270 2.135 . S
C268 N266 1.340 . S
C268 N267 1.321 . S
C268 H292 0.930 . S
H269 C264 0.931 . S
Co270 N267 2.135 . S
Co270 N273 2.121 . S
Co270 O278 2.055 . S
Co270 O281 2.039 . S
Co270 N284 2.140 . S
C271 O272 1.227 . S
C271 O281 1.265 . S
O272 C271 1.227 . S
N273 Co270 2.121 . S
N273 C275 1.375 . S
N273 C276 1.313 . S
C274 C275 1.338 . S
C274 N277 1.377 . S
C274 H294 0.930 . S
C275 N273 1.375 . S
C275 C274 1.338 . S
C275 H279 0.931 . S
C276 N273 1.313 . S
C276 N277 1.344 . S
C276 H280 0.930 . S
N277 C274 1.377 . S
N277 C276 1.344 . S
O278 Co270 2.055 . S
O278 C282 1.253 . S
H279 C275 0.931 . S
H280 C276 0.930 . S
O281 Co270 2.039 . S
O281 C271 1.265 . S
C282 O278 1.253 . S
C282 O283 1.227 . S
O283 C282 1.227 . S
N284 Co270 2.140 . S
N284 C287 1.346 . S
N284 C288 1.345 . S
C285 C286 1.387 . S
C285 C289 1.391 . S
C286 C285 1.387 . S
C286 C287 1.369 . S
C286 H295 0.929 . S
C287 N284 1.346 . S
C287 C286 1.369 . S
C287 H290 0.928 . S
C288 N284 1.345 . S
C288 C289 1.371 . S
C288 H291 0.931 . S
C289 C285 1.391 . S
C289 C288 1.371 . S
C289 H296 0.930 . S
H290 C287 0.928 . S
H291 C288 0.931 . S
H292 C268 0.930 . S
H293 C265 0.930 . S
H294 C274 0.930 . S
H295 C286 0.929 . S
H296 C289 0.930 . S
C297 C298 1.351 . S
C297 N300 1.368 . S
C297 H302 0.931 . S
C298 C297 1.351 . S
C298 N299 1.373 . S
C298 H326 0.930 . S
N299 C298 1.373 . S
N299 C301 1.340 . S
N300 C297 1.368 . S
N300 C301 1.321 . S
N300 Co303 2.135 . S
C301 N299 1.340 . S
C301 N300 1.321 . S
C301 H325 0.930 . S
H302 C297 0.931 . S
Co303 N300 2.135 . S
Co303 N306 2.121 . S
Co303 O311 2.055 . S
Co303 O314 2.039 . S
Co303 N317 2.140 . S
C304 O305 1.227 . S
C304 O314 1.265 . S
O305 C304 1.227 . S
N306 Co303 2.121 . S
N306 C308 1.375 . S
N306 C309 1.313 . S
C307 C308 1.338 . S
C307 N310 1.377 . S
C307 H327 0.930 . S
C308 N306 1.375 . S
C308 C307 1.338 . S
C308 H312 0.931 . S
C309 N306 1.313 . S
C309 N310 1.344 . S
C309 H313 0.930 . S
N310 C307 1.377 . S
N310 C309 1.344 . S
O311 Co303 2.055 . S
O311 C315 1.253 . S
H312 C308 0.931 . S
H313 C309 0.930 . S
O314 Co303 2.039 . S
O314 C304 1.265 . S
C315 O311 1.253 . S
C315 O316 1.227 . S
O316 C315 1.227 . S
N317 Co303 2.140 . S
N317 C320 1.346 . S
N317 C321 1.345 . S
C318 C319 1.387 . S
C318 C322 1.391 . S
C319 C318 1.387 . S
C319 C320 1.369 . S
C319 H328 0.929 . S
C320 N317 1.346 . S
C320 C319 1.369 . S
C320 H323 0.928 . S
C321 N317 1.345 . S
C321 C322 1.371 . S
C321 H324 0.931 . S
C322 C318 1.391 . S
C322 C321 1.371 . S
C322 H329 0.930 . S
H323 C320 0.928 . S
H324 C321 0.931 . S
H325 C301 0.930 . S
H326 C298 0.930 . S
H327 C307 0.930 . S
H328 C319 0.929 . S
H329 C322 0.930 . S
C330 C331 1.351 . S
C330 N333 1.368 . S
C330 H335 0.931 . S
C331 C330 1.351 . S
C331 N332 1.373 . S
C331 H359 0.930 . S
N332 C331 1.373 . S
N332 C334 1.340 . S
N333 C330 1.368 . S
N333 C334 1.321 . S
N333 Co336 2.135 . S
C334 N332 1.340 . S
C334 N333 1.321 . S
C334 H358 0.930 . S
H335 C330 0.931 . S
Co336 N333 2.135 . S
Co336 N339 2.121 . S
Co336 O344 2.055 . S
Co336 O347 2.039 . S
Co336 N350 2.140 . S
C337 O338 1.227 . S
C337 O347 1.265 . S
O338 C337 1.227 . S
N339 Co336 2.121 . S
N339 C341 1.375 . S
N339 C342 1.313 . S
C340 C341 1.338 . S
C340 N343 1.377 . S
C340 H360 0.930 . S
C341 N339 1.375 . S
C341 C340 1.338 . S
C341 H345 0.931 . S
C342 N339 1.313 . S
C342 N343 1.344 . S
C342 H346 0.930 . S
N343 C340 1.377 . S
N343 C342 1.344 . S
O344 Co336 2.055 . S
O344 C348 1.253 . S
H345 C341 0.931 . S
H346 C342 0.930 . S
O347 Co336 2.039 . S
O347 C337 1.265 . S
C348 O344 1.253 . S
C348 O349 1.227 . S
O349 C348 1.227 . S
N350 Co336 2.140 . S
N350 C353 1.346 . S
N350 C354 1.345 . S
C351 C352 1.387 . S
C351 C355 1.391 . S
C352 C351 1.387 . S
C352 C353 1.369 . S
C352 H361 0.929 . S
C353 N350 1.346 . S
C353 C352 1.369 . S
C353 H356 0.928 . S
C354 N350 1.345 . S
C354 C355 1.371 . S
C354 H357 0.931 . S
C355 C351 1.391 . S
C355 C354 1.371 . S
C355 H362 0.930 . S
H356 C353 0.928 . S
H357 C354 0.931 . S
H358 C334 0.930 . S
H359 C331 0.930 . S
H360 C340 0.930 . S
H361 C352 0.929 . S
H362 C355 0.930 . S
C363 C364 1.351 . S
C363 N366 1.368 . S
C363 H368 0.931 . S
C364 C363 1.351 . S
C364 N365 1.373 . S
C364 H392 0.930 . S
N365 C364 1.373 . S
N365 C367 1.340 . S
N366 C363 1.368 . S
N366 C367 1.321 . S
N366 Co369 2.135 . S
C367 N365 1.340 . S
C367 N366 1.321 . S
C367 H391 0.930 . S
H368 C363 0.931 . S
Co369 N366 2.135 . S
Co369 N372 2.121 . S
Co369 O377 2.055 . S
Co369 O380 2.039 . S
Co369 N383 2.140 . S
C370 O371 1.227 . S
C370 O380 1.265 . S
O371 C370 1.227 . S
N372 Co369 2.121 . S
N372 C374 1.375 . S
N372 C375 1.313 . S
C373 C374 1.338 . S
C373 N376 1.377 . S
C373 H393 0.930 . S
C374 N372 1.375 . S
C374 C373 1.338 . S
C374 H378 0.931 . S
C375 N372 1.313 . S
C375 N376 1.344 . S
C375 H379 0.930 . S
N376 C373 1.377 . S
N376 C375 1.344 . S
O377 Co369 2.055 . S
O377 C381 1.253 . S
H378 C374 0.931 . S
H379 C375 0.930 . S
O380 Co369 2.039 . S
O380 C370 1.265 . S
C381 O377 1.253 . S
C381 O382 1.227 . S
O382 C381 1.227 . S
N383 Co369 2.140 . S
N383 C386 1.346 . S
N383 C387 1.345 . S
C384 C385 1.387 . S
C384 C388 1.391 . S
C385 C384 1.387 . S
C385 C386 1.369 . S
C385 H394 0.929 . S
C386 N383 1.346 . S
C386 C385 1.369 . S
C386 H389 0.928 . S
C387 N383 1.345 . S
C387 C388 1.371 . S
C387 H390 0.931 . S
C388 C384 1.391 . S
C388 C387 1.371 . S
C388 H395 0.930 . S
H389 C386 0.928 . S
H390 C387 0.931 . S
H391 C367 0.930 . S
H392 C364 0.930 . S
H393 C373 0.930 . S
H394 C385 0.929 . S
H395 C388 0.930 . S
C396 C397 1.351 . S
C396 N399 1.368 . S
C396 H401 0.931 . S
C397 C396 1.351 . S
C397 N398 1.373 . S
C397 H425 0.930 . S
N398 C397 1.373 . S
N398 C400 1.340 . S
N399 C396 1.368 . S
N399 C400 1.321 . S
N399 Co402 2.135 . S
C400 N398 1.340 . S
C400 N399 1.321 . S
C400 H424 0.930 . S
H401 C396 0.931 . S
Co402 N399 2.135 . S
Co402 N405 2.121 . S
Co402 O410 2.055 . S
Co402 O413 2.039 . S
Co402 N416 2.140 . S
C403 O404 1.227 . S
C403 O413 1.265 . S
O404 C403 1.227 . S
N405 Co402 2.121 . S
N405 C407 1.375 . S
N405 C408 1.313 . S
C406 C407 1.338 . S
C406 N409 1.377 . S
C406 H426 0.930 . S
C407 N405 1.375 . S
C407 C406 1.338 . S
C407 H411 0.931 . S
C408 N405 1.313 . S
C408 N409 1.344 . S
C408 H412 0.930 . S
N409 C406 1.377 . S
N409 C408 1.344 . S
O410 Co402 2.055 . S
O410 C414 1.253 . S
H411 C407 0.931 . S
H412 C408 0.930 . S
O413 Co402 2.039 . S
O413 C403 1.265 . S
C414 O410 1.253 . S
C414 O415 1.227 . S
O415 C414 1.227 . S
N416 Co402 2.140 . S
N416 C419 1.346 . S
N416 C420 1.345 . S
C417 C418 1.387 . S
C417 C421 1.391 . S
C418 C417 1.387 . S
C418 C419 1.369 . S
C418 H427 0.929 . S
C419 N416 1.346 . S
C419 C418 1.369 . S
C419 H422 0.928 . S
C420 N416 1.345 . S
C420 C421 1.371 . S
C420 H423 0.931 . S
C421 C417 1.391 . S
C421 C420 1.371 . S
C421 H428 0.930 . S
H422 C419 0.928 . S
H423 C420 0.931 . S
H424 C400 0.930 . S
H425 C397 0.930 . S
H426 C406 0.930 . S
H427 C418 0.929 . S
H428 C421 0.930 . S
C429 C430 1.351 . S
C429 N432 1.368 . S
C429 H434 0.931 . S
C430 C429 1.351 . S
C430 N431 1.373 . S
C430 H458 0.930 . S
N431 C430 1.373 . S
N431 C433 1.340 . S
N432 C429 1.368 . S
N432 C433 1.321 . S
N432 Co435 2.135 . S
C433 N431 1.340 . S
C433 N432 1.321 . S
C433 H457 0.930 . S
H434 C429 0.931 . S
Co435 N432 2.135 . S
Co435 N438 2.121 . S
Co435 O443 2.055 . S
Co435 O446 2.039 . S
Co435 N449 2.140 . S
C436 O437 1.227 . S
C436 O446 1.265 . S
O437 C436 1.227 . S
N438 Co435 2.121 . S
N438 C440 1.375 . S
N438 C441 1.313 . S
C439 C440 1.338 . S
C439 N442 1.377 . S
C439 H459 0.930 . S
C440 N438 1.375 . S
C440 C439 1.338 . S
C440 H444 0.931 . S
C441 N438 1.313 . S
C441 N442 1.344 . S
C441 H445 0.930 . S
N442 C439 1.377 . S
N442 C441 1.344 . S
O443 Co435 2.055 . S
O443 C447 1.253 . S
H444 C440 0.931 . S
H445 C441 0.930 . S
O446 Co435 2.039 . S
O446 C436 1.265 . S
C447 O443 1.253 . S
C447 O448 1.227 . S
O448 C447 1.227 . S
N449 Co435 2.140 . S
N449 C452 1.346 . S
N449 C453 1.345 . S
C450 C451 1.387 . S
C450 C454 1.391 . S
C451 C450 1.387 . S
C451 C452 1.369 . S
C451 H460 0.929 . S
C452 N449 1.346 . S
C452 C451 1.369 . S
C452 H455 0.928 . S
C453 N449 1.345 . S
C453 C454 1.371 . S
C453 H456 0.931 . S
C454 C450 1.391 . S
C454 C453 1.371 . S
C454 H461 0.930 . S
H455 C452 0.928 . S
H456 C453 0.931 . S
H457 C433 0.930 . S
H458 C430 0.930 . S
H459 C439 0.930 . S
H460 C451 0.929 . S
H461 C454 0.930 . S
C462 C463 1.351 . S
C462 N465 1.368 . S
C462 H467 0.931 . S
C463 C462 1.351 . S
C463 N464 1.373 . S
C463 H491 0.930 . S
N464 C463 1.373 . S
N464 C466 1.340 . S
N465 C462 1.368 . S
N465 C466 1.321 . S
N465 Co468 2.135 . S
C466 N464 1.340 . S
C466 N465 1.321 . S
C466 H490 0.930 . S
H467 C462 0.931 . S
Co468 N465 2.135 . S
Co468 N471 2.121 . S
Co468 O476 2.055 . S
Co468 O479 2.039 . S
Co468 N482 2.140 . S
C469 O470 1.227 . S
C469 O479 1.265 . S
O470 C469 1.227 . S
N471 Co468 2.121 . S
N471 C473 1.375 . S
N471 C474 1.313 . S
C472 C473 1.338 . S
C472 N475 1.377 . S
C472 H492 0.930 . S
C473 N471 1.375 . S
C473 C472 1.338 . S
C473 H477 0.931 . S
C474 N471 1.313 . S
C474 N475 1.344 . S
C474 H478 0.930 . S
N475 C472 1.377 . S
N475 C474 1.344 . S
O476 Co468 2.055 . S
O476 C480 1.253 . S
H477 C473 0.931 . S
H478 C474 0.930 . S
O479 Co468 2.039 . S
O479 C469 1.265 . S
C480 O476 1.253 . S
C480 O481 1.227 . S
O481 C480 1.227 . S
N482 Co468 2.140 . S
N482 C485 1.346 . S
N482 C486 1.345 . S
C483 C484 1.387 . S
C483 C487 1.391 . S
C484 C483 1.387 . S
C484 C485 1.369 . S
C484 H493 0.929 . S
C485 N482 1.346 . S
C485 C484 1.369 . S
C485 H488 0.928 . S
C486 N482 1.345 . S
C486 C487 1.371 . S
C486 H489 0.931 . S
C487 C483 1.391 . S
C487 C486 1.371 . S
C487 H494 0.930 . S
H488 C485 0.928 . S
H489 C486 0.931 . S
H490 C466 0.930 . S
H491 C463 0.930 . S
H492 C472 0.930 . S
H493 C484 0.929 . S
H494 C487 0.930 . S
C495 C496 1.351 . S
C495 N498 1.368 . S
C495 H500 0.931 . S
C496 C495 1.351 . S
C496 N497 1.373 . S
C496 H524 0.930 . S
N497 C496 1.373 . S
N497 C499 1.340 . S
N498 C495 1.368 . S
N498 C499 1.321 . S
N498 Co501 2.135 . S
C499 N497 1.340 . S
C499 N498 1.321 . S
C499 H523 0.930 . S
H500 C495 0.931 . S
Co501 N498 2.135 . S
Co501 N504 2.121 . S
Co501 O509 2.055 . S
Co501 O512 2.039 . S
Co501 N515 2.140 . S
C502 O503 1.227 . S
C502 O512 1.265 . S
O503 C502 1.227 . S
N504 Co501 2.121 . S
N504 C506 1.375 . S
N504 C507 1.313 . S
C505 C506 1.338 . S
C505 N508 1.377 . S
C505 H525 0.930 . S
C506 N504 1.375 . S
C506 C505 1.338 . S
C506 H510 0.931 . S
C507 N504 1.313 . S
C507 N508 1.344 . S
C507 H511 0.930 . S
N508 C505 1.377 . S
N508 C507 1.344 . S
O509 Co501 2.055 . S
O509 C513 1.253 . S
H510 C506 0.931 . S
H511 C507 0.930 . S
O512 Co501 2.039 . S
O512 C502 1.265 . S
C513 O509 1.253 . S
C513 O514 1.227 . S
O514 C513 1.227 . S
N515 Co501 2.140 . S
N515 C518 1.346 . S
N515 C519 1.345 . S
C516 C517 1.387 . S
C516 C520 1.391 . S
C517 C516 1.387 . S
C517 C518 1.369 . S
C517 H526 0.929 . S
C518 N515 1.346 . S
C518 C517 1.369 . S
C518 H521 0.928 . S
C519 N515 1.345 . S
C519 C520 1.371 . S
C519 H522 0.931 . S
C520 C516 1.391 . S
C520 C519 1.371 . S
C520 H527 0.930 . S
H521 C518 0.928 . S
H522 C519 0.931 . S
H523 C499 0.930 . S
H524 C496 0.930 . S
H525 C505 0.930 . S
H526 C517 0.929 . S
H527 C520 0.930 . S
H528 C534 0.930 . S
H529 C537 0.930 . S
H530 C538 0.930 . S
H531 C539 0.930 . S
H532 C542 0.930 . S
H533 C543 0.930 . S
C534 H528 0.930 . S
C534 C535 1.355 . S
C534 C536 1.415 . S
C535 C534 1.355 . S
C535 C537 1.419 . S
C536 C534 1.415 . S
C536 C541 1.425 . S
C536 C543 1.409 . S
C537 H529 0.930 . S
C537 C535 1.419 . S
C537 C538 1.362 . S
C538 H530 0.930 . S
C538 C537 1.362 . S
C538 C541 1.409 . S
C539 H531 0.930 . S
C539 C540 1.355 . S
C539 C541 1.415 . S
C540 C539 1.355 . S
C540 C542 1.419 . S
C541 C536 1.425 . S
C541 C538 1.409 . S
C541 C539 1.415 . S
C542 H532 0.930 . S
C542 C540 1.419 . S
C542 C543 1.362 . S
C543 H533 0.930 . S
C543 C536 1.409 . S
C543 C542 1.362 . S
H544 C550 0.930 . S
H545 C553 0.930 . S
H546 C554 0.930 . S
H547 C555 0.930 . S
H548 C558 0.930 . S
H549 C559 0.930 . S
C550 H544 0.930 . S
C550 C551 1.355 . S
C550 C552 1.415 . S
C551 C550 1.355 . S
C551 C553 1.419 . S
C552 C550 1.415 . S
C552 C557 1.425 . S
C552 C559 1.409 . S
C553 H545 0.930 . S
C553 C551 1.419 . S
C553 C554 1.362 . S
C554 H546 0.930 . S
C554 C553 1.362 . S
C554 C557 1.409 . S
C555 H547 0.930 . S
C555 C556 1.355 . S
C555 C557 1.415 . S
C556 C555 1.355 . S
C556 C558 1.419 . S
C557 C552 1.425 . S
C557 C554 1.409 . S
C557 C555 1.415 . S
C558 H548 0.930 . S
C558 C556 1.419 . S
C558 C559 1.362 . S
C559 H549 0.930 . S
C559 C552 1.409 . S
C559 C558 1.362 . S
H560 C566 0.930 . S
H561 C569 0.930 . S
H562 C570 0.930 . S
H563 C571 0.930 . S
H564 C574 0.930 . S
H565 C575 0.930 . S
C566 H560 0.930 . S
C566 C567 1.355 . S
C566 C568 1.415 . S
C567 C566 1.355 . S
C567 C569 1.419 . S
C568 C566 1.415 . S
C568 C573 1.425 . S
C568 C575 1.409 . S
C569 H561 0.930 . S
C569 C567 1.419 . S
C569 C570 1.362 . S
C570 H562 0.930 . S
C570 C569 1.362 . S
C570 C573 1.409 . S
C571 H563 0.930 . S
C571 C572 1.355 . S
C571 C573 1.415 . S
C572 C571 1.355 . S
C572 C574 1.419 . S
C573 C568 1.425 . S
C573 C570 1.409 . S
C573 C571 1.415 . S
C574 H564 0.930 . S
C574 C572 1.419 . S
C574 C575 1.362 . S
C575 H565 0.930 . S
C575 C568 1.409 . S
C575 C574 1.362 . S
H576 C582 0.930 . S
H577 C585 0.930 . S
H578 C586 0.930 . S
H579 C587 0.930 . S
H580 C590 0.930 . S
H581 C591 0.930 . S
C582 H576 0.930 . S
C582 C583 1.355 . S
C582 C584 1.415 . S
C583 C582 1.355 . S
C583 C585 1.419 . S
C584 C582 1.415 . S
C584 C589 1.425 . S
C584 C591 1.409 . S
C585 H577 0.930 . S
C585 C583 1.419 . S
C585 C586 1.362 . S
C586 H578 0.930 . S
C586 C585 1.362 . S
C586 C589 1.409 . S
C587 H579 0.930 . S
C587 C588 1.355 . S
C587 C589 1.415 . S
C588 C587 1.355 . S
C588 C590 1.419 . S
C589 C584 1.425 . S
C589 C586 1.409 . S
C589 C587 1.415 . S
C590 H580 0.930 . S
C590 C588 1.419 . S
C590 C591 1.362 . S
C591 H581 0.930 . S
C591 C584 1.409 . S
C591 C590 1.362 . S
H592 C598 0.930 . S
H593 C601 0.930 . S
H594 C602 0.930 . S
H595 C603 0.930 . S
H596 C606 0.930 . S
H597 C607 0.930 . S
C598 H592 0.930 . S
C598 C599 1.355 . S
C598 C600 1.415 . S
C599 C598 1.355 . S
C599 C601 1.419 . S
C600 C598 1.415 . S
C600 C605 1.425 . S
C600 C607 1.409 . S
C601 H593 0.930 . S
C601 C599 1.419 . S
C601 C602 1.362 . S
C602 H594 0.930 . S
C602 C601 1.362 . S
C602 C605 1.409 . S
C603 H595 0.930 . S
C603 C604 1.355 . S
C603 C605 1.415 . S
C604 C603 1.355 . S
C604 C606 1.419 . S
C605 C600 1.425 . S
C605 C602 1.409 . S
C605 C603 1.415 . S
C606 H596 0.930 . S
C606 C604 1.419 . S
C606 C607 1.362 . S
C607 H597 0.930 . S
C607 C600 1.409 . S
C607 C606 1.362 . S
H608 C614 0.930 . S
H609 C617 0.930 . S
H610 C618 0.930 . S
H611 C619 0.930 . S
H612 C622 0.930 1_455 S
H613 C623 0.930 . S
C614 H608 0.930 . S
C614 C615 1.355 . S
C614 C616 1.415 . S
C615 C614 1.355 . S
C615 C617 1.419 . S
C616 C614 1.415 . S
C616 C621 1.425 . S
C616 C623 1.409 . S
C617 H609 0.930 . S
C617 C615 1.419 . S
C617 C618 1.362 . S
C618 H610 0.930 . S
C618 C617 1.362 . S
C618 C621 1.409 . S
C619 H611 0.930 . S
C619 C620 1.355 . S
C619 C621 1.415 . S
C620 C619 1.355 . S
C620 C622 1.419 . S
C621 C616 1.425 . S
C621 C618 1.409 . S
C621 C619 1.415 . S
C622 H612 0.930 1_655 S
C622 C620 1.419 . S
C622 C623 1.362 . S
C623 H613 0.930 . S
C623 C616 1.409 . S
C623 C622 1.362 . S
H624 C630 0.930 . S
H625 C633 0.930 . S
H626 C634 0.930 . S
H627 C635 0.930 . S
H628 C638 0.930 . S
H629 C639 0.930 . S
C630 H624 0.930 . S
C630 C631 1.355 . S
C630 C632 1.415 . S
C631 C630 1.355 . S
C631 C633 1.419 . S
C632 C630 1.415 . S
C632 C637 1.425 . S
C632 C639 1.409 . S
C633 H625 0.930 . S
C633 C631 1.419 . S
C633 C634 1.362 . S
C634 H626 0.930 . S
C634 C633 1.362 . S
C634 C637 1.409 . S
C635 H627 0.930 . S
C635 C636 1.355 . S
C635 C637 1.415 . S
C636 C635 1.355 . S
C636 C638 1.419 . S
C637 C632 1.425 . S
C637 C634 1.409 . S
C637 C635 1.415 . S
C638 H628 0.930 . S
C638 C636 1.419 . S
C638 C639 1.362 . S
C639 H629 0.930 . S
C639 C632 1.409 . S
C639 C638 1.362 . S
H640 C646 0.930 . S
H641 C649 0.930 . S
H642 C650 0.930 . S
H643 C651 0.930 . S
H644 C654 0.930 . S
H645 C655 0.930 . S
C646 H640 0.930 . S
C646 C647 1.355 . S
C646 C648 1.415 . S
C647 C646 1.355 . S
C647 C649 1.419 . S
C648 C646 1.415 . S
C648 C653 1.425 . S
C648 C655 1.409 . S
C649 H641 0.930 . S
C649 C647 1.419 . S
C649 C650 1.362 . S
C650 H642 0.930 . S
C650 C649 1.362 . S
C650 C653 1.409 . S
C651 H643 0.930 . S
C651 C652 1.355 . S
C651 C653 1.415 . S
C652 C651 1.355 . S
C652 C654 1.419 . S
C653 C648 1.425 . S
C653 C650 1.409 . S
C653 C651 1.415 . S
C654 H644 0.930 . S
C654 C652 1.419 . S
C654 C655 1.362 . S
C655 H645 0.930 . S
C655 C648 1.409 . S
C655 C654 1.362 . S
H656 C662 0.930 . S
H657 C665 0.930 . S
H658 C666 0.930 . S
H659 C667 0.930 . S
H660 C670 0.930 . S
H661 C671 0.930 . S
C662 H656 0.930 . S
C662 C663 1.355 . S
C662 C664 1.415 . S
C663 C662 1.355 . S
C663 C665 1.419 . S
C664 C662 1.415 . S
C664 C669 1.425 . S
C664 C671 1.409 . S
C665 H657 0.930 . S
C665 C663 1.419 . S
C665 C666 1.362 . S
C666 H658 0.930 . S
C666 C665 1.362 . S
C666 C669 1.409 . S
C667 H659 0.930 . S
C667 C668 1.355 . S
C667 C669 1.415 . S
C668 C667 1.355 . S
C668 C670 1.419 . S
C669 C664 1.425 . S
C669 C666 1.409 . S
C669 C667 1.415 . S
C670 H660 0.930 . S
C670 C668 1.419 . S
C670 C671 1.362 . S
C671 H661 0.930 . S
C671 C664 1.409 . S
C671 C670 1.362 . S
H672 C678 0.930 . S
H673 C681 0.930 . S
H674 C682 0.930 . S
H675 C683 0.930 . S
H676 C686 0.930 . S
H677 C687 0.930 . S
C678 H672 0.930 . S
C678 C679 1.355 . S
C678 C680 1.415 . S
C679 C678 1.355 . S
C679 C681 1.419 . S
C680 C678 1.415 . S
C680 C685 1.425 . S
C680 C687 1.409 . S
C681 H673 0.930 . S
C681 C679 1.419 . S
C681 C682 1.362 . S
C682 H674 0.930 . S
C682 C681 1.362 . S
C682 C685 1.409 . S
C683 H675 0.930 . S
C683 C684 1.355 . S
C683 C685 1.415 . S
C684 C683 1.355 . S
C684 C686 1.419 . S
C685 C680 1.425 . S
C685 C682 1.409 . S
C685 C683 1.415 . S
C686 H676 0.930 . S
C686 C684 1.419 . S
C686 C687 1.362 . S
C687 H677 0.930 . S
C687 C680 1.409 . S
C687 C686 1.362 . S
H688 C694 0.930 . S
H689 C697 0.930 . S
H690 C698 0.930 . S
H691 C699 0.930 . S
H692 C702 0.930 . S
H693 C703 0.930 . S
C694 H688 0.930 . S
C694 C695 1.355 . S
C694 C696 1.415 . S
C695 C694 1.355 . S
C695 C697 1.419 . S
C696 C694 1.415 . S
C696 C701 1.425 . S
C696 C703 1.409 . S
C697 H689 0.930 . S
C697 C695 1.419 . S
C697 C698 1.362 . S
C698 H690 0.930 . S
C698 C697 1.362 . S
C698 C701 1.409 . S
C699 H691 0.930 . S
C699 C700 1.355 . S
C699 C701 1.415 . S
C700 C699 1.355 . S
C700 C702 1.419 . S
C701 C696 1.425 . S
C701 C698 1.409 . S
C701 C699 1.415 . S
C702 H692 0.930 . S
C702 C700 1.419 . S
C702 C703 1.362 . S
C703 H693 0.930 . S
C703 C696 1.409 . S
C703 C702 1.362 . S
H704 C710 0.930 . S
H705 C713 0.930 . S
H706 C714 0.930 . S
H707 C715 0.930 . S
H708 C718 0.930 . S
H709 C719 0.930 . S
C710 H704 0.930 . S
C710 C711 1.355 . S
C710 C712 1.415 . S
C711 C710 1.355 . S
C711 C713 1.419 . S
C712 C710 1.415 . S
C712 C717 1.425 . S
C712 C719 1.409 . S
C713 H705 0.930 . S
C713 C711 1.419 . S
C713 C714 1.362 . S
C714 H706 0.930 . S
C714 C713 1.362 . S
C714 C717 1.409 . S
C715 H707 0.930 . S
C715 C716 1.355 . S
C715 C717 1.415 . S
C716 C715 1.355 . S
C716 C718 1.419 . S
C717 C712 1.425 . S
C717 C714 1.409 . S
C717 C715 1.415 . S
C718 H708 0.930 . S
C718 C716 1.419 . S
C718 C719 1.362 . S
C719 H709 0.930 . S
C719 C712 1.409 . S
C719 C718 1.362 . S
H720 C726 0.930 . S
H721 C729 0.930 . S
H722 C730 0.930 . S
H723 C731 0.930 . S
H724 C734 0.930 . S
H725 C735 0.930 . S
C726 H720 0.930 . S
C726 C727 1.355 . S
C726 C728 1.415 . S
C727 C726 1.355 . S
C727 C729 1.419 . S
C728 C726 1.415 . S
C728 C733 1.425 . S
C728 C735 1.409 . S
C729 H721 0.930 . S
C729 C727 1.419 . S
C729 C730 1.362 . S
C730 H722 0.930 . S
C730 C729 1.362 . S
C730 C733 1.409 . S
C731 H723 0.930 . S
C731 C732 1.355 . S
C731 C733 1.415 . S
C732 C731 1.355 . S
C732 C734 1.419 . S
C733 C728 1.425 . S
C733 C730 1.409 . S
C733 C731 1.415 . S
C734 H724 0.930 . S
C734 C732 1.419 . S
C734 C735 1.362 . S
C735 H725 0.930 . S
C735 C728 1.409 . S
C735 C734 1.362 . S
H736 C742 0.930 . S
H737 C745 0.930 . S
H738 C746 0.930 . S
H739 C747 0.930 . S
H740 C750 0.930 . S
H741 C751 0.930 . S
C742 H736 0.930 . S
C742 C743 1.355 . S
C742 C744 1.415 . S
C743 C742 1.355 . S
C743 C745 1.419 . S
C744 C742 1.415 . S
C744 C749 1.425 . S
C744 C751 1.409 . S
C745 H737 0.930 . S
C745 C743 1.419 . S
C745 C746 1.362 . S
C746 H738 0.930 . S
C746 C745 1.362 . S
C746 C749 1.409 . S
C747 H739 0.930 . S
C747 C748 1.355 . S
C747 C749 1.415 . S
C748 C747 1.355 . S
C748 C750 1.419 . S
C749 C744 1.425 . S
C749 C746 1.409 . S
C749 C747 1.415 . S
C750 H740 0.930 . S
C750 C748 1.419 . S
C750 C751 1.362 . S
C751 H741 0.930 . S
C751 C744 1.409 . S
C751 C750 1.362 . S
H752 C758 0.930 . S
H753 C761 0.930 . S
H754 C762 0.930 . S
H755 C763 0.930 . S
H756 C766 0.930 . S
H757 C767 0.930 . S
C758 H752 0.930 . S
C758 C759 1.355 . S
C758 C760 1.415 . S
C759 C758 1.355 . S
C759 C761 1.419 . S
C760 C758 1.415 . S
C760 C765 1.425 . S
C760 C767 1.409 . S
C761 H753 0.930 . S
C761 C759 1.419 . S
C761 C762 1.362 . S
C762 H754 0.930 . S
C762 C761 1.362 . S
C762 C765 1.409 . S
C763 H755 0.930 . S
C763 C764 1.355 . S
C763 C765 1.415 . S
C764 C763 1.355 . S
C764 C766 1.419 . S
C765 C760 1.425 . S
C765 C762 1.409 . S
C765 C763 1.415 . S
C766 H756 0.930 . S
C766 C764 1.419 . S
C766 C767 1.362 . S
C767 H757 0.930 . S
C767 C760 1.409 . S
C767 C766 1.362 . S
H768 C774 0.930 . S
H769 C777 0.930 . S
H770 C778 0.930 . S
H771 C779 0.930 . S
H772 C782 0.930 . S
H773 C783 0.930 . S
C774 H768 0.930 . S
C774 C775 1.355 . S
C774 C776 1.415 . S
C775 C774 1.355 . S
C775 C777 1.419 . S
C776 C774 1.415 . S
C776 C781 1.425 . S
C776 C783 1.409 . S
C777 H769 0.930 . S
C777 C775 1.419 . S
C777 C778 1.362 . S
C778 H770 0.930 . S
C778 C777 1.362 . S
C778 C781 1.409 . S
C779 H771 0.930 . S
C779 C780 1.355 . S
C779 C781 1.415 . S
C780 C779 1.355 . S
C780 C782 1.419 . S
C781 C776 1.425 . S
C781 C778 1.409 . S
C781 C779 1.415 . S
C782 H772 0.930 . S
C782 C780 1.419 . S
C782 C783 1.362 . S
C783 H773 0.930 . S
C783 C776 1.409 . S
C783 C782 1.362 . S
H784 C790 0.930 . S
H785 C793 0.930 . S
H786 C794 0.930 . S
H787 C795 0.930 . S
H788 C798 0.930 . S
H789 C799 0.930 . S
C790 H784 0.930 . S
C790 C791 1.355 . S
C790 C792 1.415 . S
C791 C790 1.355 . S
C791 C793 1.419 . S
C792 C790 1.415 . S
C792 C797 1.425 . S
C792 C799 1.409 . S
C793 H785 0.930 . S
C793 C791 1.419 . S
C793 C794 1.362 . S
C794 H786 0.930 . S
C794 C793 1.362 . S
C794 C797 1.409 . S
C795 H787 0.930 . S
C795 C796 1.355 . S
C795 C797 1.415 . S
C796 C795 1.355 . S
C796 C798 1.419 . S
C797 C792 1.425 . S
C797 C794 1.409 . S
C797 C795 1.415 . S
C798 H788 0.930 . S
C798 C796 1.419 . S
C798 C799 1.362 . S
C799 H789 0.930 . S
C799 C792 1.409 . S
C799 C798 1.362 . S
H800 C806 0.930 . S
H801 C809 0.930 . S
H802 C810 0.930 . S
H803 C811 0.930 . S
H804 C814 0.930 . S
H805 C815 0.930 . S
C806 H800 0.930 . S
C806 C807 1.355 . S
C806 C808 1.415 . S
C807 C806 1.355 . S
C807 C809 1.419 . S
C808 C806 1.415 . S
C808 C813 1.425 . S
C808 C815 1.409 . S
C809 H801 0.930 . S
C809 C807 1.419 . S
C809 C810 1.362 . S
C810 H802 0.930 . S
C810 C809 1.362 . S
C810 C813 1.409 . S
C811 H803 0.930 . S
C811 C812 1.355 . S
C811 C813 1.415 . S
C812 C811 1.355 . S
C812 C814 1.419 . S
C813 C808 1.425 . S
C813 C810 1.409 . S
C813 C811 1.415 . S
C814 H804 0.930 . S
C814 C812 1.419 . S
C814 C815 1.362 . S
C815 H805 0.930 . S
C815 C808 1.409 . S
C815 C814 1.362 . S
H816 C822 0.930 . S
H817 C825 0.930 . S
H818 C826 0.930 . S
H819 C827 0.930 . S
H820 C830 0.930 . S
H821 C831 0.930 . S
C822 H816 0.930 . S
C822 C823 1.355 . S
C822 C824 1.415 . S
C823 C822 1.355 . S
C823 C825 1.419 . S
C824 C822 1.415 . S
C824 C829 1.425 . S
C824 C831 1.409 . S
C825 H817 0.930 . S
C825 C823 1.419 . S
C825 C826 1.362 . S
C826 H818 0.930 . S
C826 C825 1.362 . S
C826 C829 1.409 . S
C827 H819 0.930 . S
C827 C828 1.355 . S
C827 C829 1.415 . S
C828 C827 1.355 . S
C828 C830 1.419 . S
C829 C824 1.425 . S
C829 C826 1.409 . S
C829 C827 1.415 . S
C830 H820 0.930 . S
C830 C828 1.419 . S
C830 C831 1.362 . S
C831 H821 0.930 . S
C831 C824 1.409 . S
C831 C830 1.362 . S
H832 C838 0.930 . S
H833 C841 0.930 . S
H834 C842 0.930 . S
H835 C843 0.930 . S
H836 C846 0.930 . S
H837 C847 0.930 . S
C838 H832 0.930 . S
C838 C839 1.355 . S
C838 C840 1.415 . S
C839 C838 1.355 . S
C839 C841 1.419 . S
C840 C838 1.415 . S
C840 C845 1.425 . S
C840 C847 1.409 . S
C841 H833 0.930 . S
C841 C839 1.419 . S
C841 C842 1.362 . S
C842 H834 0.930 . S
C842 C841 1.362 . S
C842 C845 1.409 . S
C843 H835 0.930 . S
C843 C844 1.355 . S
C843 C845 1.415 . S
C844 C843 1.355 . S
C844 C846 1.419 . S
C845 C840 1.425 . S
C845 C842 1.409 . S
C845 C843 1.415 . S
C846 H836 0.930 . S
C846 C844 1.419 . S
C846 C847 1.362 . S
C847 H837 0.930 . S
C847 C840 1.409 . S
C847 C846 1.362 . S
H848 C854 0.930 . S
H849 C857 0.930 . S
H850 C858 0.930 . S
H851 C859 0.930 . S
H852 C862 0.930 . S
H853 C863 0.930 . S
C854 H848 0.930 . S
C854 C855 1.355 . S
C854 C856 1.415 1_556 S
C855 C854 1.355 . S
C855 C857 1.419 . S
C856 C854 1.415 1_554 S
C856 C861 1.425 1_554 S
C856 C863 1.409 . S
C857 H849 0.930 . S
C857 C855 1.419 . S
C857 C858 1.362 . S
C858 H850 0.930 . S
C858 C857 1.362 . S
C858 C861 1.409 . S
C859 H851 0.930 . S
C859 C860 1.355 . S
C859 C861 1.415 1_554 S
C860 C859 1.355 . S
C860 C862 1.419 . S
C861 C856 1.425 1_556 S
C861 C858 1.409 . S
C861 C859 1.415 1_556 S
C862 H852 0.930 . S
C862 C860 1.419 . S
C862 C863 1.362 . S
C863 H853 0.930 . S
C863 C856 1.409 . S
C863 C862 1.362 . S
H864 C870 0.930 . S
H865 C873 0.930 . S
H866 C874 0.923 1_554 S
H867 C875 0.930 . S
H868 C878 0.930 . S
H869 C879 0.923 1_556 S
C870 H864 0.930 . S
C870 C871 1.355 . S
C870 C872 1.415 . S
C871 C870 1.355 . S
C871 C873 1.419 . S
C872 C870 1.415 . S
C872 C877 1.425 1_556 S
C872 C879 1.409 1_556 S
C873 H865 0.930 . S
C873 C871 1.419 . S
C873 C874 1.362 . S
C874 H866 0.923 1_556 S
C874 C873 1.362 . S
C874 C877 1.409 1_556 S
C875 H867 0.930 . S
C875 C876 1.355 . S
C875 C877 1.415 . S
C876 C875 1.355 . S
C876 C878 1.419 . S
C877 C872 1.425 1_554 S
C877 C874 1.409 1_554 S
C877 C875 1.415 . S
C878 H868 0.930 . S
C878 C876 1.419 . S
C878 C879 1.362 . S
C879 H869 0.923 1_554 S
C879 C872 1.409 1_554 S
C879 C878 1.362 . S
H880 C886 0.930 . S
H881 C889 0.930 . S
H882 C890 0.930 . S
H883 C891 0.930 . S
H884 C894 0.930 . S
H885 C895 0.930 . S
C886 H880 0.930 . S
C886 C887 1.355 . S
C886 C888 1.415 . S
C887 C886 1.355 . S
C887 C889 1.419 . S
C888 C886 1.415 . S
C888 C893 1.425 1_556 S
C888 C895 1.409 . S
C889 H881 0.930 . S
C889 C887 1.419 . S
C889 C890 1.362 1_556 S
C890 H882 0.930 . S
C890 C889 1.362 1_554 S
C890 C893 1.409 . S
C891 H883 0.930 . S
C891 C892 1.355 . S
C891 C893 1.415 . S
C892 C891 1.355 . S
C892 C894 1.419 . S
C893 C888 1.425 1_554 S
C893 C890 1.409 . S
C893 C891 1.415 . S
C894 H884 0.930 . S
C894 C892 1.419 . S
C894 C895 1.362 1_554 S
C895 H885 0.930 . S
C895 C888 1.409 . S
C895 C894 1.362 1_556 S
H896 C902 0.930 . S
H897 C905 0.930 . S
H898 C906 0.930 . S
H899 C907 0.930 . S
H900 C910 0.930 . S
H901 C911 0.930 . S
C902 H896 0.930 . S
C902 C903 1.355 . S
C902 C904 1.415 . S
C903 C902 1.355 . S
C903 C905 1.419 . S
C904 C902 1.415 . S
C904 C909 1.425 1_556 S
C904 C911 1.409 . S
C905 H897 0.930 . S
C905 C903 1.419 . S
C905 C906 1.362 1_556 S
C906 H898 0.930 . S
C906 C905 1.362 1_554 S
C906 C909 1.409 . S
C907 H899 0.930 . S
C907 C908 1.355 . S
C907 C909 1.415 . S
C908 C907 1.355 . S
C908 C910 1.419 . S
C909 C904 1.425 1_554 S
C909 C906 1.409 . S
C909 C907 1.415 . S
C910 H900 0.930 . S
C910 C908 1.419 . S
C910 C911 1.362 1_554 S
C911 H901 0.930 . S
C911 C904 1.409 . S
C911 C910 1.362 1_556 S
H912 C918 0.930 . S
H913 C921 0.930 . S
H914 C922 0.930 . S
H915 C923 0.930 . S
H916 C926 0.930 . S
H917 C927 0.930 . S
C918 H912 0.930 . S
C918 C919 1.355 . S
C918 C920 1.415 . S
C919 C918 1.355 . S
C919 C921 1.419 . S
C920 C918 1.415 . S
C920 C925 1.425 . S
C920 C927 1.409 . S
C921 H913 0.930 . S
C921 C919 1.419 . S
C921 C922 1.362 . S
C922 H914 0.930 . S
C922 C921 1.362 . S
C922 C925 1.409 . S
C923 H915 0.930 . S
C923 C924 1.355 . S
C923 C925 1.415 . S
C924 C923 1.355 . S
C924 C926 1.419 . S
C925 C920 1.425 . S
C925 C922 1.409 . S
C925 C923 1.415 . S
C926 H916 0.930 . S
C926 C924 1.419 . S
C926 C927 1.362 . S
C927 H917 0.930 . S
C927 C920 1.409 . S
C927 C926 1.362 . S
H928 C934 0.930 . S
H929 C937 0.930 . S
H930 C938 0.930 . S
H931 C939 0.930 . S
H932 C942 0.930 . S
H933 C943 0.930 . S
C934 H928 0.930 . S
C934 C935 1.355 . S
C934 C936 1.415 . S
C935 C934 1.355 . S
C935 C937 1.419 . S
C936 C934 1.415 . S
C936 C941 1.425 . S
C936 C943 1.409 . S
C937 H929 0.930 . S
C937 C935 1.419 . S
C937 C938 1.362 . S
C938 H930 0.930 . S
C938 C937 1.362 . S
C938 C941 1.409 . S
C939 H931 0.930 . S
C939 C940 1.355 . S
C939 C941 1.415 . S
C940 C939 1.355 . S
C940 C942 1.419 . S
C941 C936 1.425 . S
C941 C938 1.409 . S
C941 C939 1.415 . S
C942 H932 0.930 . S
C942 C940 1.419 . S
C942 C943 1.362 . S
C943 H933 0.930 . S
C943 C936 1.409 . S
C943 C942 1.362 . S
H944 C950 0.930 . S
H945 C953 0.930 . S
H946 C954 0.930 . S
H947 C955 0.930 . S
H948 C958 0.930 . S
H949 C959 0.930 . S
C950 H944 0.930 . S
C950 C951 1.355 . S
C950 C952 1.415 . S
C951 C950 1.355 . S
C951 C953 1.419 . S
C952 C950 1.415 . S
C952 C957 1.425 . S
C952 C959 1.409 . S
C953 H945 0.930 . S
C953 C951 1.419 . S
C953 C954 1.362 . S
C954 H946 0.930 . S
C954 C953 1.362 . S
C954 C957 1.409 . S
C955 H947 0.930 . S
C955 C956 1.355 . S
C955 C957 1.415 . S
C956 C955 1.355 . S
C956 C958 1.419 . S
C957 C952 1.425 . S
C957 C954 1.409 . S
C957 C955 1.415 . S
C958 H948 0.930 . S
C958 C956 1.419 . S
C958 C959 1.362 . S
C959 H949 0.930 . S
C959 C952 1.409 . S
C959 C958 1.362 . S
H960 C966 0.930 . S
H961 C969 0.930 . S
H962 C970 0.930 . S
H963 C971 0.930 . S
H964 C974 0.930 . S
H965 C975 0.930 . S
C966 H960 0.930 . S
C966 C967 1.355 . S
C966 C968 1.415 . S
C967 C966 1.355 . S
C967 C969 1.419 . S
C968 C966 1.415 . S
C968 C973 1.425 . S
C968 C975 1.409 . S
C969 H961 0.930 . S
C969 C967 1.419 . S
C969 C970 1.362 . S
C970 H962 0.930 . S
C970 C969 1.362 . S
C970 C973 1.409 . S
C971 H963 0.930 . S
C971 C972 1.355 . S
C971 C973 1.415 . S
C972 C971 1.355 . S
C972 C974 1.419 . S
C973 C968 1.425 . S
C973 C970 1.409 . S
C973 C971 1.415 . S
C974 H964 0.930 . S
C974 C972 1.419 . S
C974 C975 1.362 . S
C975 H965 0.930 . S
C975 C968 1.409 . S
C975 C974 1.362 . S
H976 C982 0.930 . S
H977 C985 0.930 . S
H978 C986 0.930 . S
H979 C987 0.930 . S
H980 C990 0.930 . S
H981 C991 0.930 . S
C982 H976 0.930 . S
C982 C983 1.355 . S
C982 C984 1.415 . S
C983 C982 1.355 . S
C983 C985 1.419 . S
C984 C982 1.415 . S
C984 C989 1.425 . S
C984 C991 1.409 . S
C985 H977 0.930 . S
C985 C983 1.419 . S
C985 C986 1.362 . S
C986 H978 0.930 . S
C986 C985 1.362 . S
C986 C989 1.409 . S
C987 H979 0.930 . S
C987 C988 1.355 . S
C987 C989 1.415 . S
C988 C987 1.355 . S
C988 C990 1.419 . S
C989 C984 1.425 . S
C989 C986 1.409 . S
C989 C987 1.415 . S
C990 H980 0.930 . S
C990 C988 1.419 . S
C990 C991 1.362 . S
C991 H981 0.930 . S
C991 C984 1.409 . S
C991 C990 1.362 . S
H992 C998 0.930 . S
H993 C1001 0.930 . S
H994 C1002 0.930 . S
H995 C1003 0.930 . S
H996 C1006 0.930 . S
H997 C1007 0.930 . S
C998 H992 0.930 . S
C998 C999 1.355 . S
C998 C1000 1.415 . S
C999 C998 1.355 . S
C999 C1001 1.419 . S
C1000 C998 1.415 . S
C1000 C1005 1.425 . S
C1000 C1007 1.409 . S
C1001 H993 0.930 . S
C1001 C999 1.419 . S
C1001 C1002 1.362 . S
C1002 H994 0.930 . S
C1002 C1001 1.362 . S
C1002 C1005 1.409 . S
C1003 H995 0.930 . S
C1003 C1004 1.355 . S
C1003 C1005 1.415 . S
C1004 C1003 1.355 . S
C1004 C1006 1.419 . S
C1005 C1000 1.425 . S
C1005 C1002 1.409 . S
C1005 C1003 1.415 . S
C1006 H996 0.930 . S
C1006 C1004 1.419 . S
C1006 C1007 1.362 . S
C1007 H997 0.930 . S
C1007 C1000 1.409 . S
C1007 C1006 1.362 . S
H1008 C1014 0.930 . S
H1009 C1017 0.930 . S
H1010 C1018 0.930 . S
H1011 C1019 0.930 . S
H1012 C1022 0.930 . S
H1013 C1023 0.930 . S
C1014 H1008 0.930 . S
C1014 C1015 1.355 . S
C1014 C1016 1.415 . S
C1015 C1014 1.355 . S
C1015 C1017 1.419 . S
C1016 C1014 1.415 . S
C1016 C1021 1.425 . S
C1016 C1023 1.409 . S
C1017 H1009 0.930 . S
C1017 C1015 1.419 . S
C1017 C1018 1.362 . S
C1018 H1010 0.930 . S
C1018 C1017 1.362 . S
C1018 C1021 1.409 . S
C1019 H1011 0.930 . S
C1019 C1020 1.355 . S
C1019 C1021 1.415 . S
C1020 C1019 1.355 . S
C1020 C1022 1.419 . S
C1021 C1016 1.425 . S
C1021 C1018 1.409 . S
C1021 C1019 1.415 . S
C1022 H1012 0.930 . S
C1022 C1020 1.419 . S
C1022 C1023 1.362 . S
C1023 H1013 0.930 . S
C1023 C1016 1.409 . S
C1023 C1022 1.362 . S
H1024 C1030 0.930 . S
H1025 C1033 0.930 . S
H1026 C1034 0.930 . S
H1027 C1035 0.930 . S
H1028 C1038 0.930 . S
H1029 C1039 0.930 . S
C1030 H1024 0.930 . S
C1030 C1031 1.355 . S
C1030 C1032 1.415 . S
C1031 C1030 1.355 . S
C1031 C1033 1.419 . S
C1032 C1030 1.415 . S
C1032 C1037 1.425 . S
C1032 C1039 1.409 . S
C1033 H1025 0.930 . S
C1033 C1031 1.419 . S
C1033 C1034 1.362 . S
C1034 H1026 0.930 . S
C1034 C1033 1.362 . S
C1034 C1037 1.409 . S
C1035 H1027 0.930 . S
C1035 C1036 1.355 . S
C1035 C1037 1.415 . S
C1036 C1035 1.355 . S
C1036 C1038 1.419 . S
C1037 C1032 1.425 . S
C1037 C1034 1.409 . S
C1037 C1035 1.415 . S
C1038 H1028 0.930 . S
C1038 C1036 1.419 . S
C1038 C1039 1.362 . S
C1039 H1029 0.930 . S
C1039 C1032 1.409 . S
C1039 C1038 1.362 . S
H1040 C1046 0.928 1_565 S
H1041 C1049 0.930 . S
H1042 C1050 0.930 . S
H1043 C1051 0.927 1_545 S
H1044 C1054 0.930 . S
H1045 C1055 0.930 . S
C1046 H1040 0.928 1_545 S
C1046 C1047 1.357 . S
C1046 C1048 1.414 1_545 S
C1047 C1046 1.357 . S
C1047 C1049 1.419 . S
C1048 C1046 1.414 1_565 S
C1048 C1053 1.425 1_565 S
C1048 C1055 1.409 . S
C1049 H1041 0.930 . S
C1049 C1047 1.419 . S
C1049 C1050 1.362 . S
C1050 H1042 0.930 . S
C1050 C1049 1.362 . S
C1050 C1053 1.409 . S
C1051 H1043 0.927 1_565 S
C1051 C1052 1.358 . S
C1051 C1053 1.414 1_565 S
C1052 C1051 1.358 . S
C1052 C1054 1.419 . S
C1053 C1048 1.425 1_545 S
C1053 C1050 1.409 . S
C1053 C1051 1.414 1_545 S
C1054 H1044 0.930 . S
C1054 C1052 1.419 . S
C1054 C1055 1.362 . S
C1055 H1045 0.930 . S
C1055 C1048 1.409 . S
C1055 C1054 1.362 . S
H1056 C1062 0.930 . S
H1057 C1065 0.930 . S
H1058 C1066 0.930 . S
H1059 C1067 0.930 . S
H1060 C1070 0.930 . S
H1061 C1071 0.930 . S
C1062 H1056 0.930 . S
C1062 C1063 1.355 . S
C1062 C1064 1.415 . S
C1063 C1062 1.355 . S
C1063 C1065 1.419 1_655 S
C1064 C1062 1.415 . S
C1064 C1069 1.425 1_655 S
C1064 C1071 1.409 . S
C1065 H1057 0.930 . S
C1065 C1063 1.419 1_455 S
C1065 C1066 1.362 . S
C1066 H1058 0.930 . S
C1066 C1065 1.362 . S
C1066 C1069 1.409 . S
C1067 H1059 0.930 . S
C1067 C1068 1.355 . S
C1067 C1069 1.415 . S
C1068 C1067 1.355 . S
C1068 C1070 1.419 1_455 S
C1069 C1064 1.425 1_455 S
C1069 C1066 1.409 . S
C1069 C1067 1.415 . S
C1070 H1060 0.930 . S
C1070 C1068 1.419 1_655 S
C1070 C1071 1.362 . S
C1071 H1061 0.930 . S
C1071 C1064 1.409 . S
C1071 C1070 1.362 . S
H1072 C1078 0.930 . S
H1073 C1081 0.930 1_545 S
H1074 C1082 0.930 . S
H1075 C1083 0.930 . S
H1076 C1086 0.930 1_565 S
H1077 C1087 0.930 . S
C1078 H1072 0.930 . S
C1078 C1079 1.355 . S
C1078 C1080 1.415 . S
C1079 C1078 1.355 . S
C1079 C1081 1.419 . S
C1080 C1078 1.415 . S
C1080 C1085 1.425 1_565 S
C1080 C1087 1.409 . S
C1081 H1073 0.930 1_565 S
C1081 C1079 1.419 . S
C1081 C1082 1.362 1_565 S
C1082 H1074 0.930 . S
C1082 C1081 1.362 1_545 S
C1082 C1085 1.409 . S
C1083 H1075 0.930 . S
C1083 C1084 1.355 . S
C1083 C1085 1.415 . S
C1084 C1083 1.355 . S
C1084 C1086 1.419 . S
C1085 C1080 1.425 1_545 S
C1085 C1082 1.409 . S
C1085 C1083 1.415 . S
C1086 H1076 0.930 1_545 S
C1086 C1084 1.419 . S
C1086 C1087 1.362 1_545 S
C1087 H1077 0.930 . S
C1087 C1080 1.409 . S
C1087 C1086 1.362 1_565 S
H1088 C1094 0.930 . S
H1089 C1097 0.930 . S
H1090 C1098 0.930 . S
H1091 C1099 0.930 . S
H1092 C1102 0.930 . S
H1093 C1103 0.930 . S
C1094 H1088 0.930 . S
C1094 C1095 1.355 . S
C1094 C1096 1.415 . S
C1095 C1094 1.355 . S
C1095 C1097 1.419 . S
C1096 C1094 1.415 . S
C1096 C1101 1.425 1_655 S
C1096 C1103 1.409 . S
C1097 H1089 0.930 . S
C1097 C1095 1.419 . S
C1097 C1098 1.362 1_655 S
C1098 H1090 0.930 . S
C1098 C1097 1.362 1_455 S
C1098 C1101 1.409 . S
C1099 H1091 0.930 . S
C1099 C1100 1.355 . S
C1099 C1101 1.415 . S
C1100 C1099 1.355 . S
C1100 C1102 1.419 . S
C1101 C1096 1.425 1_455 S
C1101 C1098 1.409 . S
C1101 C1099 1.415 . S
C1102 H1092 0.930 . S
C1102 C1100 1.419 . S
C1102 C1103 1.362 1_455 S
C1103 H1093 0.930 . S
C1103 C1096 1.409 . S
C1103 C1102 1.362 1_655 S
H1104 C1110 0.930 . S
H1105 C1113 0.930 . S
H1106 C1114 0.930 . S
H1107 C1115 0.930 . S
H1108 C1118 0.930 . S
H1109 C1119 0.930 . S
C1110 H1104 0.930 . S
C1110 C1111 1.355 . S
C1110 C1112 1.415 1_556 S
C1111 C1110 1.355 . S
C1111 C1113 1.419 . S
C1112 C1110 1.415 1_554 S
C1112 C1117 1.425 1_554 S
C1112 C1119 1.409 . S
C1113 H1105 0.930 . S
C1113 C1111 1.419 . S
C1113 C1114 1.362 . S
C1114 H1106 0.930 . S
C1114 C1113 1.362 . S
C1114 C1117 1.409 . S
C1115 H1107 0.930 . S
C1115 C1116 1.355 . S
C1115 C1117 1.415 1_554 S
C1116 C1115 1.355 . S
C1116 C1118 1.419 . S
C1117 C1112 1.425 1_556 S
C1117 C1114 1.409 . S
C1117 C1115 1.415 1_556 S
C1118 H1108 0.930 . S
C1118 C1116 1.419 . S
C1118 C1119 1.362 . S
C1119 H1109 0.930 . S
C1119 C1112 1.409 . S
C1119 C1118 1.362 . S
H1120 C1126 0.930 . S
H1121 C1129 0.930 . S
H1122 C1130 0.930 . S
H1123 C1131 0.930 . S
H1124 C1134 0.930 . S
H1125 C1135 0.930 . S
C1126 H1120 0.930 . S
C1126 C1127 1.355 . S
C1126 C1128 1.415 . S
C1127 C1126 1.355 . S
C1127 C1129 1.419 . S
C1128 C1126 1.415 . S
C1128 C1133 1.425 1_556 S
C1128 C1135 1.409 . S
C1129 H1121 0.930 . S
C1129 C1127 1.419 . S
C1129 C1130 1.362 1_556 S
C1130 H1122 0.930 . S
C1130 C1129 1.362 1_554 S
C1130 C1133 1.409 . S
C1131 H1123 0.930 . S
C1131 C1132 1.355 . S
C1131 C1133 1.415 . S
C1132 C1131 1.355 . S
C1132 C1134 1.419 . S
C1133 C1128 1.425 1_554 S
C1133 C1130 1.409 . S
C1133 C1131 1.415 . S
C1134 H1124 0.930 . S
C1134 C1132 1.419 . S
C1134 C1135 1.362 1_554 S
C1135 H1125 0.930 . S
C1135 C1128 1.409 . S
C1135 C1134 1.362 1_556 S
H1136 C1142 0.930 . S
H1137 C1145 0.930 . S
H1138 C1146 0.930 1_556 S
H1139 C1147 0.930 . S
H1140 C1150 0.930 . S
H1141 C1151 0.930 1_554 S
C1142 H1136 0.930 . S
C1142 C1143 1.355 . S
C1142 C1144 1.415 . S
C1143 C1142 1.355 . S
C1143 C1145 1.419 . S
C1144 C1142 1.415 . S
C1144 C1149 1.425 1_554 S
C1144 C1151 1.409 1_554 S
C1145 H1137 0.930 . S
C1145 C1143 1.419 . S
C1145 C1146 1.362 . S
C1146 H1138 0.930 1_554 S
C1146 C1145 1.362 . S
C1146 C1149 1.409 1_554 S
C1147 H1139 0.930 . S
C1147 C1148 1.355 . S
C1147 C1149 1.415 . S
C1148 C1147 1.355 . S
C1148 C1150 1.419 . S
C1149 C1144 1.425 1_556 S
C1149 C1146 1.409 1_556 S
C1149 C1147 1.415 . S
C1150 H1140 0.930 . S
C1150 C1148 1.419 . S
C1150 C1151 1.362 . S
C1151 H1141 0.930 1_556 S
C1151 C1144 1.409 1_556 S
C1151 C1150 1.362 . S
H1152 C1158 0.930 . S
H1153 C1161 0.930 . S
H1154 C1162 0.930 . S
H1155 C1163 0.930 . S
H1156 C1166 0.930 . S
H1157 C1167 0.930 . S
C1158 H1152 0.930 . S
C1158 C1159 1.355 . S
C1158 C1160 1.412 . S
C1159 C1158 1.355 . S
C1159 C1161 1.419 . S
C1160 C1158 1.412 . S
C1160 C1165 1.425 1_556 S
C1160 C1167 1.411 1_556 S
C1161 H1153 0.930 . S
C1161 C1159 1.419 . S
C1161 C1162 1.362 . S
C1162 H1154 0.930 . S
C1162 C1161 1.362 . S
C1162 C1165 1.411 1_556 S
C1163 H1155 0.930 . S
C1163 C1164 1.355 . S
C1163 C1165 1.413 . S
C1164 C1163 1.355 . S
C1164 C1166 1.419 . S
C1165 C1160 1.425 1_554 S
C1165 C1162 1.411 1_554 S
C1165 C1163 1.413 . S
C1166 H1156 0.930 . S
C1166 C1164 1.419 . S
C1166 C1167 1.362 . S
C1167 H1157 0.930 . S
C1167 C1160 1.411 1_554 S
C1167 C1166 1.362 . S
C535 C18 1.860 1_565 S
C540 N101 1.681 . S
C551 N2 1.707 . S
C556 C51 1.861 1_455 S
C567 C84 1.860 1_545 S
C572 N35 1.688 . S
C583 N68 1.694 . S
C588 C117 1.860 1_655 S
C599 N167 1.677 . S
C604 C150 1.862 1_545 S
C615 N200 1.702 . S
C620 C183 1.870 1_655 S
C631 N233 1.733 . S
C636 C216 1.865 1_565 S
C647 C249 1.863 1_455 S
C652 N134 1.725 . S
C663 C282 1.873 . S
C668 N365 1.763 . S
C679 C315 1.874 . S
C684 N266 1.764 . S
C695 C348 1.870 . S
C700 N299 1.757 . S
C711 N332 1.765 . S
C716 C381 1.874 . S
C727 N431 1.760 . S
C732 C414 1.871 . S
C743 C447 1.876 . S
C748 N464 1.757 . S
C759 C480 1.874 . S
C764 N497 1.764 . S
C775 C513 1.876 . S
C780 N398 1.747 . S
C791 C7 1.077 . S
C796 C172 1.057 . S
C807 C40 1.055 . S
C812 C205 1.072 . S
C823 C238 1.092 . S
C828 C73 1.069 . S
C839 C106 1.069 . S
C844 C139 1.092 . S
C855 C271 1.054 . S
C860 C436 1.068 . S
C871 C304 1.076 . S
C876 C469 1.096 . S
C887 C337 1.098 . S
C892 C502 1.081 . S
C903 C370 1.092 . S
C908 C403 1.098 . S
C919 C21 0.621 . S
C924 C516 0.578 . S
C935 C417 0.564 . S
C940 C54 0.627 . S
C951 C87 0.616 . S
C956 C450 0.585 . S
C967 C120 0.561 . S
C972 C483 0.624 . S
C983 C318 0.613 . S
C988 C153 0.565 . S
C999 C351 0.626 . S
C1004 C186 0.562 . S
C1015 C384 0.624 . S
C1020 C219 0.561 . S
C1031 C285 0.620 . S
C1036 C252 0.562 . S
C1047 N13 0.869 . S
C1052 N145 0.872 . S
C1063 N46 1.026 . S
C1068 N178 0.976 . S
C1079 N79 1.021 . S
C1084 N211 0.921 . S
C1095 N244 1.003 . S
C1100 N112 0.889 . S
C1111 N277 1.025 . S
C1116 N409 0.982 . S
C1127 N310 0.848 . S
C1132 N442 0.917 . S
C1143 N475 0.904 . S
C1148 N343 0.851 . S
C1159 N376 0.976 . S
C1164 N508 1.026 . S
