# Generated by pormake.
# Topology wmc, (6)-cn, num edge types: 1
# Building blocks:
#     Node 0, Type 0, BuildingBlock: JUFBIX_clean_sbu_0, # of connection points: 6
#     Node 1, Type 0, BuildingBlock: JUFBIX_clean_sbu_0, # of connection points: 6
#     Node 2, Type 0, BuildingBlock: JUFBIX_clean_sbu_0, # of connection points: 6
#     Node 3, Type 0, BuildingBlock: JUFBIX_clean_sbu_0, # of connection points: 6
#     Node 4, Type 0, BuildingBlock: JUFBIX_clean_sbu_0, # of connection points: 6
#     Node 5, Type 0, BuildingBlock: JUFBIX_clean_sbu_0, # of connection points: 6
#     Node 6, Type 0, BuildingBlock: JUFBIX_clean_sbu_0, # of connection points: 6
#     Node 7, Type 0, BuildingBlock: JUFBIX_clean_sbu_0, # of connection points: 6
#     Node 8, Type 0, BuildingBlock: JUFBIX_clean_sbu_0, # of connection points: 6
#     Node 9, Type 0, BuildingBlock: JUFBIX_clean_sbu_0, # of connection points: 6
#     Node 10, Type 0, BuildingBlock: JUFBIX_clean_sbu_0, # of connection points: 6
#     Node 11, Type 0, BuildingBlock: JUFBIX_clean_sbu_0, # of connection points: 6
#     Node 12, Type 0, BuildingBlock: JUFBIX_clean_sbu_0, # of connection points: 6
#     Node 13, Type 0, BuildingBlock: JUFBIX_clean_sbu_0, # of connection points: 6
#     Node 14, Type 0, BuildingBlock: JUFBIX_clean_sbu_0, # of connection points: 6
#     Node 15, Type 0, BuildingBlock: JUFBIX_clean_sbu_0, # of connection points: 6
#     Node 16, Type 0, BuildingBlock: JUFBIX_clean_sbu_0, # of connection points: 6
#     Node 17, Type 0, BuildingBlock: JUFBIX_clean_sbu_0, # of connection points: 6
#     Edge 18, Type (0, 0), BuildingBlock: AJUNOK_clean_linker_0, # of connection points: 2
#     Edge 19, Type (0, 0), BuildingBlock: AJUNOK_clean_linker_0, # of connection points: 2
#     Edge 20, Type (0, 0), BuildingBlock: AJUNOK_clean_linker_0, # of connection points: 2
#     Edge 21, Type (0, 0), BuildingBlock: AJUNOK_clean_linker_0, # of connection points: 2
#     Edge 22, Type (0, 0), BuildingBlock: AJUNOK_clean_linker_0, # of connection points: 2
#     Edge 23, Type (0, 0), BuildingBlock: AJUNOK_clean_linker_0, # of connection points: 2
#     Edge 24, Type (0, 0), BuildingBlock: AJUNOK_clean_linker_0, # of connection points: 2
#     Edge 25, Type (0, 0), BuildingBlock: AJUNOK_clean_linker_0, # of connection points: 2
#     Edge 26, Type (0, 0), BuildingBlock: AJUNOK_clean_linker_0, # of connection points: 2
#     Edge 27, Type (0, 0), BuildingBlock: AJUNOK_clean_linker_0, # of connection points: 2
#     Edge 28, Type (0, 0), BuildingBlock: AJUNOK_clean_linker_0, # of connection points: 2
#     Edge 29, Type (0, 0), BuildingBlock: AJUNOK_clean_linker_0, # of connection points: 2
#     Edge 30, Type (0, 0), BuildingBlock: AJUNOK_clean_linker_0, # of connection points: 2
#     Edge 31, Type (0, 0), BuildingBlock: AJUNOK_clean_linker_0, # of connection points: 2
#     Edge 32, Type (0, 0), BuildingBlock: AJUNOK_clean_linker_0, # of connection points: 2
#     Edge 33, Type (0, 0), BuildingBlock: AJUNOK_clean_linker_0, # of connection points: 2
#     Edge 34, Type (0, 0), BuildingBlock: AJUNOK_clean_linker_0, # of connection points: 2
#     Edge 35, Type (0, 0), BuildingBlock: AJUNOK_clean_linker_0, # of connection points: 2
#     Edge 36, Type (0, 0), BuildingBlock: AJUNOK_clean_linker_0, # of connection points: 2
#     Edge 37, Type (0, 0), BuildingBlock: AJUNOK_clean_linker_0, # of connection points: 2
#     Edge 38, Type (0, 0), BuildingBlock: AJUNOK_clean_linker_0, # of connection points: 2
#     Edge 39, Type (0, 0), BuildingBlock: AJUNOK_clean_linker_0, # of connection points: 2
#     Edge 40, Type (0, 0), BuildingBlock: AJUNOK_clean_linker_0, # of connection points: 2
#     Edge 41, Type (0, 0), BuildingBlock: AJUNOK_clean_linker_0, # of connection points: 2
#     Edge 42, Type (0, 0), BuildingBlock: AJUNOK_clean_linker_0, # of connection points: 2
#     Edge 43, Type (0, 0), BuildingBlock: AJUNOK_clean_linker_0, # of connection points: 2
#     Edge 44, Type (0, 0), BuildingBlock: AJUNOK_clean_linker_0, # of connection points: 2
#     Edge 45, Type (0, 0), BuildingBlock: AJUNOK_clean_linker_0, # of connection points: 2
#     Edge 46, Type (0, 0), BuildingBlock: AJUNOK_clean_linker_0, # of connection points: 2
#     Edge 47, Type (0, 0), BuildingBlock: AJUNOK_clean_linker_0, # of connection points: 2
#     Edge 48, Type (0, 0), BuildingBlock: AJUNOK_clean_linker_0, # of connection points: 2
#     Edge 49, Type (0, 0), BuildingBlock: AJUNOK_clean_linker_0, # of connection points: 2
#     Edge 50, Type (0, 0), BuildingBlock: AJUNOK_clean_linker_0, # of connection points: 2
#     Edge 51, Type (0, 0), BuildingBlock: AJUNOK_clean_linker_0, # of connection points: 2
#     Edge 52, Type (0, 0), BuildingBlock: AJUNOK_clean_linker_0, # of connection points: 2
#     Edge 53, Type (0, 0), BuildingBlock: AJUNOK_clean_linker_0, # of connection points: 2
#     Edge 54, Type (0, 0), BuildingBlock: AJUNOK_clean_linker_0, # of connection points: 2
#     Edge 55, Type (0, 0), BuildingBlock: AJUNOK_clean_linker_0, # of connection points: 2
#     Edge 56, Type (0, 0), BuildingBlock: AJUNOK_clean_linker_0, # of connection points: 2
#     Edge 57, Type (0, 0), BuildingBlock: AJUNOK_clean_linker_0, # of connection points: 2
#     Edge 58, Type (0, 0), BuildingBlock: AJUNOK_clean_linker_0, # of connection points: 2
#     Edge 59, Type (0, 0), BuildingBlock: AJUNOK_clean_linker_0, # of connection points: 2
#     Edge 60, Type (0, 0), BuildingBlock: AJUNOK_clean_linker_0, # of connection points: 2
#     Edge 61, Type (0, 0), BuildingBlock: AJUNOK_clean_linker_0, # of connection points: 2
#     Edge 62, Type (0, 0), BuildingBlock: AJUNOK_clean_linker_0, # of connection points: 2
#     Edge 63, Type (0, 0), BuildingBlock: AJUNOK_clean_linker_0, # of connection points: 2
#     Edge 64, Type (0, 0), BuildingBlock: AJUNOK_clean_linker_0, # of connection points: 2
#     Edge 65, Type (0, 0), BuildingBlock: AJUNOK_clean_linker_0, # of connection points: 2
#     Edge 66, Type (0, 0), BuildingBlock: AJUNOK_clean_linker_0, # of connection points: 2
#     Edge 67, Type (0, 0), BuildingBlock: AJUNOK_clean_linker_0, # of connection points: 2
#     Edge 68, Type (0, 0), BuildingBlock: AJUNOK_clean_linker_0, # of connection points: 2
#     Edge 69, Type (0, 0), BuildingBlock: AJUNOK_clean_linker_0, # of connection points: 2
#     Edge 70, Type (0, 0), BuildingBlock: AJUNOK_clean_linker_0, # of connection points: 2
#     Edge 71, Type (0, 0), BuildingBlock: AJUNOK_clean_linker_0, # of connection points: 2
# Relax obj value: 0.532
# Max RMSD: 0.262
# Mean RMSD: 0.262
data_MOF--net-wmc--node1-JUFBIX_clean_sbu_0--edge1-AJUNOK_clean_linker_0
_symmetry_space_group_name_H-M    P1
_symmetry_Int_Tables_number       1
_symmetry_cell_setting            triclinic
loop_
_symmetry_equiv_pos_as_xyz
'x, y, z'
_cell_length_a     38.534268
_cell_length_b     38.52586
_cell_length_c     21.226429
_cell_angle_alpha  89.816715
_cell_angle_beta   90.246985
_cell_angle_gamma 119.97539
loop_
_atom_site_label
_atom_site_type_symbol
_atom_site_fract_x
_atom_site_fract_y
_atom_site_fract_z
_atom_type_partial_charge
Co0 Co 0.62724 0.12098 0.00741 0.0
C1 C 0.54477 0.07966 0.97956 0.0
Co2 Co 0.60336 0.16261 -0.00775 0.0
C3 C 0.6955 0.10806 0.02067 0.0
C4 C 0.6469 0.06847 0.0797 0.0
N5 N 0.65531 0.09298 0.02951 0.0
N6 N 0.71268 0.09609 0.06544 0.0
C7 C 0.68179 0.07069 0.10203 0.0
H8 H 0.71277 0.13132 0.98671 0.0
H9 H 0.61839 0.054 0.10376 0.0
C10 C 0.68367 0.20492 0.01479 0.0
N11 N 0.58144 0.19473 0.97427 0.0
C12 C 0.59134 0.23014 0.00144 0.0
C13 C 0.55529 0.19014 0.92819 0.0
N14 N 0.57306 0.24826 0.97348 0.0
C15 C 0.54995 0.22294 0.92778 0.0
C16 C 0.59881 0.14096 0.11496 0.0
O17 O 0.67808 0.16965 0.01965 0.0
O18 O 0.65377 0.20911 0.00326 0.0
O19 O 0.59193 0.16288 0.07827 0.0
O20 O 0.61432 0.12108 0.0935 0.0
O21 O 0.55275 0.11598 0.97988 0.0
H22 H 0.54207 0.16525 0.89562 0.0
H23 H 0.61206 0.24259 0.04055 0.0
O24 O 0.57333 0.07236 -0.00744 0.0
O25 O 0.63887 0.12097 0.92094 0.0
O26 O 0.61485 0.16181 0.90656 0.0
C27 C 0.62999 0.14173 0.88461 0.0
H28 H 0.68464 0.05709 0.14499 0.0
H29 H 0.53181 0.22853 0.89475 0.0
Co30 Co 0.96692 0.52532 -0.00182 0.0
C31 C 1.00815 0.48446 0.9743 0.0
Co32 Co 0.92459 0.45973 -0.01095 0.0
C33 C 0.97801 0.59951 0.05091 0.0
C34 C 1.02099 0.61247 0.97825 0.0
N35 N 0.99369 0.58193 0.01342 0.0
N36 N 0.99235 0.63889 0.03811 0.0
C37 C 1.02048 0.64722 -0.0065 0.0
H38 H 0.95326 0.58265 0.08274 0.0
H39 H 1.03763 0.60915 0.9401 0.0
C40 C 0.8831 0.49842 0.00603 0.0
N41 N 0.8929 0.40488 0.97752 0.0
C42 C 0.85703 0.38013 0.00417 0.0
C43 C 0.89985 0.38118 0.93911 0.0
N44 N 0.84155 0.34206 0.98422 0.0
C45 C 0.86835 0.34248 0.94331 0.0
C46 C 0.94935 0.48196 0.11004 0.0
O47 O 0.91865 0.52746 0.00662 0.0
O48 O 0.87771 0.46339 0.00077 0.0
O49 O 0.92744 0.45189 0.07566 0.0
O50 O 0.96819 0.5166 0.08537 0.0
O51 O 0.97177 0.45626 0.97588 0.0
H52 H 0.92568 0.3915 0.90886 0.0
H53 H 0.84232 0.3898 0.03735 0.0
O54 O 1.0157 0.5205 0.98577 0.0
O55 O 0.96554 0.53288 0.91081 0.0
O56 O 0.92228 0.46814 0.90272 0.0
C57 C 0.94286 0.50241 0.87754 0.0
H58 H 1.03843 0.67596 0.97092 0.0
H59 H 0.86473 0.31692 0.91676 0.0
Co60 Co 0.56515 0.46107 0.00976 0.0
C61 C 0.60402 0.54454 -0.00927 0.0
Co62 Co 0.63087 0.4876 -0.00358 0.0
C63 C 0.49397 0.39714 0.06884 0.0
C64 C 0.47689 0.42589 -0.00099 0.0
N65 N 0.50929 0.42983 0.02984 0.0
N66 N 0.45386 0.37236 0.06223 0.0
C67 C 0.4431 0.39112 0.01899 0.0
H68 H 0.5125 0.39055 0.09935 0.0
H69 H 0.47806 0.44515 0.9609 0.0
C70 C 0.59507 0.40676 0.0079 0.0
N71 N 0.68509 0.51207 0.98023 0.0
C72 C 0.71132 0.5024 0.00561 0.0
C73 C 0.70636 0.54067 0.9372 0.0
N74 N 0.74807 0.52367 0.98008 0.0
C75 C 0.74511 0.54781 0.9369 0.0
C76 C 0.61202 0.48527 0.11933 0.0
O77 O 0.56483 0.4111 0.0147 0.0
O78 O 0.62886 0.43762 -0.00048 0.0
O79 O 0.6413 0.49436 0.08291 0.0
O80 O 0.57682 0.47052 0.09691 0.0
O81 O 0.63313 0.53774 -0.00834 0.0
H82 H 0.69408 0.55429 0.90638 0.0
H83 H 0.70338 0.47951 0.04126 0.0
O84 O 0.56833 0.51472 0.00053 0.0
O85 O 0.55454 0.45261 0.92243 0.0
O86 O 0.61998 0.48108 0.91032 0.0
C87 C 0.58502 0.46558 0.88693 0.0
H88 H 0.41321 0.37923 -0.0002 0.0
H89 H 0.76866 0.56775 0.90522 0.0
Co90 Co 0.92277 0.48441 0.48802 0.0
C91 C 0.88151 0.40368 0.4969 0.0
Co92 Co 0.96487 0.46102 0.50127 0.0
C93 C 0.85409 0.49353 0.50124 0.0
C94 C 0.89821 0.54062 0.44395 0.0
N95 N 0.89076 0.50723 0.47585 0.0
N96 N 0.83857 0.51698 0.48691 0.0
C97 C 0.86606 0.54678 0.45093 0.0
H98 H 0.83905 0.467 0.53045 0.0
H99 H 0.92513 0.55919 0.41727 0.0
C100 C 1.00638 0.54423 0.48507 0.0
N101 N 0.99055 0.43045 0.52056 0.0
C102 C 0.97405 0.39868 0.56154 0.0
C103 C 1.01707 0.4247 0.48762 0.0
N104 N 0.98803 0.37284 0.55428 0.0
C105 C 1.01586 0.38988 0.50848 0.0
C106 C 0.94722 0.46478 0.37817 0.0
O107 O 0.96988 0.53573 0.4837 0.0
O108 O 1.01384 0.51535 0.49412 0.0
O109 O 0.96703 0.4542 0.41368 0.0
O110 O 0.92624 0.47865 0.40123 0.0
O111 O 0.91685 0.41034 0.50436 0.0
H112 H 1.03366 0.44256 0.44746 0.0
H113 H 0.95008 0.39321 0.59358 0.0
O114 O 0.87599 0.43314 0.49057 0.0
O115 O 0.92007 0.49043 0.57494 0.0
O116 O 0.96278 0.46913 0.5883 0.0
C117 C 0.94173 0.48291 0.61099 0.0
H118 H 0.86271 0.57064 0.43015 0.0
H119 H 1.03231 0.37668 0.48822 0.0
Co120 Co 0.60045 0.45527 0.49876 0.0
C121 C 0.67974 0.4905 0.52507 0.0
Co122 Co 0.6267 0.52146 0.50748 0.0
C123 C 0.59196 0.37729 0.4793 0.0
C124 C 0.5382 0.3738 0.51369 0.0
N125 N 0.57508 0.39991 0.49199 0.0
N126 N 0.56769 0.33838 0.49448 0.0
C127 C 0.53355 0.33605 0.51512 0.0
H128 H 0.62215 0.38953 0.46179 0.0
H129 H 0.51721 0.38211 0.53203 0.0
C130 C 0.54523 0.48311 0.47579 0.0
N131 N 0.65732 0.57841 0.52106 0.0
C132 C 0.69826 0.6007 0.52005 0.0
C133 C 0.64661 0.60055 0.5563 0.0
N134 N 0.71355 0.63447 0.55569 0.0
C135 C 0.68067 0.63458 0.57738 0.0
C136 C 0.62926 0.49656 0.38766 0.0
O137 O 0.55178 0.45394 0.48026 0.0
O138 O 0.57443 0.51873 0.48764 0.0
O139 O 0.63859 0.52749 0.42088 0.0
O140 O 0.61282 0.4619 0.41262 0.0
O141 O 0.67555 0.52106 0.52487 0.0
H142 H 0.61631 0.59057 0.57158 0.0
H143 H 0.71676 0.59019 0.49894 0.0
O144 O 0.64921 0.45661 0.51579 0.0
O145 O 0.58809 0.44936 0.58495 0.0
O146 O 0.61379 0.51429 0.59359 0.0
C147 C 0.59626 0.47968 0.6184 0.0
H148 H 0.50805 0.30947 0.53411 0.0
H149 H 0.68096 0.65632 0.60985 0.0
Co150 Co 0.6327 0.1606 0.49301 0.0
C151 C 0.5983 0.20613 0.50925 0.0
Co152 Co 0.56667 0.12151 0.50703 0.0
C153 C 0.71144 0.2284 0.46655 0.0
C154 C 0.71391 0.17708 0.49875 0.0
N155 N 0.68797 0.18918 0.48094 0.0
N156 N 0.75072 0.24119 0.4755 0.0
C157 C 0.75233 0.20883 0.49549 0.0
H158 H 0.69994 0.24792 0.45336 0.0
H159 H 0.70547 0.14809 0.5183 0.0
C160 C 0.60248 0.07551 0.48494 0.0
N161 N 0.51055 0.09825 0.52561 0.0
C162 C 0.4953 0.11651 0.5626 0.0
C163 C 0.47776 0.06755 0.49905 0.0
N164 N 0.45491 0.09918 0.55939 0.0
C165 C 0.44376 0.06791 0.51989 0.0
C166 C 0.58777 0.14172 0.38353 0.0
O167 O 0.63234 0.11102 0.48272 0.0
O168 O 0.5675 0.07066 0.49683 0.0
O169 O 0.5577 0.12153 0.41922 0.0
O170 O 0.62301 0.16113 0.40635 0.0
O171 O 0.56814 0.17138 0.51312 0.0
H172 H 0.47853 0.04757 0.46412 0.0
H173 H 0.51367 0.14315 0.59017 0.0
O174 O 0.63244 0.20956 0.50238 0.0
O175 O 0.64175 0.15975 0.57941 0.0
O176 O 0.57715 0.12173 0.59484 0.0
C177 C 0.6127 0.14035 0.61656 0.0
H178 H 0.77897 0.20884 0.51194 0.0
H179 H 0.41332 0.04784 0.50454 0.0
Co180 Co 0.29432 0.45496 0.32596 0.0
C181 C 0.21187 0.40981 0.30587 0.0
Co182 Co 0.26756 0.4942 0.31493 0.0
C183 C 0.35728 0.44635 0.38561 0.0
C184 C 0.33243 0.40557 0.3084 0.0
N185 N 0.3258 0.43046 0.34416 0.0
N186 N 0.38397 0.43367 0.37579 0.0
C187 C 0.36764 0.40727 0.3278 0.0
H188 H 0.36182 0.46901 0.41976 0.0
H189 H 0.31497 0.39004 0.26723 0.0
C190 C 0.34863 0.53858 0.32775 0.0
N191 N 0.2428 0.52404 0.30015 0.0
C192 C 0.2516 0.55929 0.32682 0.0
C193 C 0.21525 0.51761 0.25555 0.0
N194 N 0.2309 0.57538 0.30036 0.0
C195 C 0.20809 0.54919 0.25523 0.0
C196 C 0.26824 0.47421 0.43659 0.0
O197 O 0.3431 0.5036 0.33373 0.0
O198 O 0.31835 0.54289 0.32045 0.0
O199 O 0.25978 0.49541 0.40101 0.0
O200 O 0.28371 0.45464 0.41348 0.0
O201 O 0.21676 0.4451 0.3077 0.0
H202 H 0.20255 0.49251 0.22341 0.0
H203 H 0.27367 0.57342 0.36385 0.0
O204 O 0.24249 0.4052 0.31418 0.0
O205 O 0.30364 0.45536 0.23797 0.0
O206 O 0.27509 0.49245 0.22918 0.0
C207 C 0.29086 0.4739 0.20401 0.0
H208 H 0.38158 0.39226 0.30499 0.0
H209 H 0.18926 0.55343 0.22182 0.0
Co210 Co 0.63005 0.85554 0.32937 0.0
C211 C 0.67523 0.81862 0.30453 0.0
Co212 Co 0.59115 0.78956 0.31727 0.0
C213 C 0.63676 0.92557 0.39078 0.0
C214 C 0.68246 0.94453 0.32085 0.0
N215 N 0.65411 0.91129 0.35008 0.0
N216 N 0.65223 0.96568 0.38713 0.0
C217 C 0.68149 0.97784 0.34369 0.0
H218 H 0.61146 0.90655 0.42042 0.0
H219 H 0.70065 0.94436 0.28231 0.0
C220 C 0.54573 0.82403 0.33601 0.0
N221 N 0.56151 0.73523 0.30073 0.0
C222 C 0.52645 0.7083 0.32738 0.0
C223 C 0.56702 0.7153 0.25336 0.0
N224 N 0.50951 0.67243 0.29813 0.0
C225 C 0.53504 0.67681 0.25141 0.0
C226 C 0.6133 0.80907 0.43922 0.0
O227 O 0.58032 0.85459 0.33846 0.0
O228 O 0.54282 0.7902 0.32825 0.0
O229 O 0.59259 0.77922 0.40367 0.0
O230 O 0.63085 0.84417 0.41597 0.0
O231 O 0.63968 0.78878 0.30508 0.0
H232 H 0.59151 0.72859 0.22015 0.0
H233 H 0.51283 0.71538 0.36605 0.0
O234 O 0.68047 0.85385 0.31613 0.0
O235 O 0.62929 0.86593 0.24264 0.0
O236 O 0.59028 0.80066 0.23103 0.0
C237 C 0.6087 0.83567 0.20764 0.0
H238 H 0.69934 1.00834 0.32692 0.0
H239 H 0.5299 0.65476 0.2157 0.0
Co240 Co 0.22925 0.7926 0.33465 0.0
C241 C 0.27056 0.87531 0.3142 0.0
Co242 Co 0.29424 0.81548 0.31979 0.0
C243 C 0.15826 0.73049 0.39656 0.0
C244 C 0.14074 0.75979 0.32836 0.0
N245 N 0.1735 0.76275 0.35658 0.0
N246 N 0.11784 0.70725 0.39362 0.0
C247 C 0.10678 0.72611 0.35106 0.0
H248 H 0.17679 0.7228 0.42512 0.0
H249 H 0.14155 0.77897 0.29038 0.0
C250 C 0.25575 0.73517 0.33362 0.0
N251 N 0.34819 0.83826 0.30318 0.0
C252 C 0.37325 0.82759 0.32998 0.0
C253 C 0.37065 0.86666 0.26055 0.0
N254 N 0.41025 0.84753 0.30508 0.0
C255 C 0.409 0.87255 0.26183 0.0
C256 C 0.27697 0.81696 0.44317 0.0
O257 O 0.22691 0.7418 0.33929 0.0
O258 O 0.29059 0.76472 0.32646 0.0
O259 O 0.30562 0.82464 0.40613 0.0
O260 O 0.24163 0.80225 0.4215 0.0
O261 O 0.29806 0.86623 0.3117 0.0
H262 H 0.35959 0.88129 0.22946 0.0
H263 H 0.36433 0.8052 0.3667 0.0
O264 O 0.23443 0.84697 0.32591 0.0
O265 O 0.21795 0.78414 0.24724 0.0
O266 O 0.28251 0.80649 0.23364 0.0
C267 C 0.2475 0.79282 0.21115 0.0
H268 H 0.07648 0.71496 0.33422 0.0
H269 H 0.43359 0.89246 0.23165 0.0
Co270 Co 0.58932 0.81821 0.8163 0.0
C271 C 0.54651 0.73752 0.82935 0.0
Co272 Co 0.63027 0.79373 0.83163 0.0
C273 C 0.52151 0.82962 0.8208 0.0
C274 C 0.56744 0.87387 0.76219 0.0
N275 N 0.55875 0.84199 0.7992 0.0
N276 N 0.50639 0.85202 0.79823 0.0
C277 C 0.53525 0.88026 0.76182 0.0
H278 H 0.50552 0.80444 0.85236 0.0
H279 H 0.59504 0.89091 0.73626 0.0
C280 C 0.67322 0.87668 0.81265 0.0
N281 N 0.65518 0.76293 0.85405 0.0
C282 C 0.6385 0.73168 0.89598 0.0
C283 C 0.68191 0.75688 0.82242 0.0
N284 N 0.65264 0.7058 0.89059 0.0
C285 C 0.68064 0.72239 0.84486 0.0
C286 C 0.61293 0.79499 0.70792 0.0
O287 O 0.63698 0.86881 0.80973 0.0
O288 O 0.67994 0.84751 0.82356 0.0
O289 O 0.6329 0.78525 0.74454 0.0
O290 O 0.59237 0.80967 0.72982 0.0
O291 O 0.58171 0.74362 0.83598 0.0
H292 H 0.69874 0.77432 0.7821 0.0
H293 H 0.61445 0.72674 0.92745 0.0
O294 O 0.54171 0.7674 0.82164 0.0
O295 O 0.58689 0.82689 0.90307 0.0
O296 O 0.6276 0.80328 0.91777 0.0
C297 C 0.60781 0.81866 0.93984 0.0
H298 H 0.53268 0.90293 0.73532 0.0
H299 H 0.69728 0.70909 0.82564 0.0
Co300 Co 0.26617 0.79054 0.82092 0.0
C301 C 0.34681 0.82649 0.83362 0.0
Co302 Co 0.29254 0.85638 0.83284 0.0
C303 C 0.25034 0.71002 0.8356 0.0
C304 C 0.21751 0.71525 0.75812 0.0
N305 N 0.24207 0.73611 0.806 0.0
N306 N 0.233 0.67387 0.80701 0.0
C307 C 0.21192 0.67709 0.75857 0.0
H308 H 0.26955 0.7181 0.87655 0.0
H309 H 0.20615 0.72762 0.72323 0.0
C310 C 0.20949 0.81755 0.8129 0.0
N311 N 0.32392 0.91241 0.85176 0.0
C312 C 0.35551 0.92782 0.8931 0.0
C313 C 0.33014 0.94427 0.81698 0.0
N314 N 0.38188 0.9675 0.88432 0.0
C315 C 0.36515 0.97777 0.83686 0.0
C316 C 0.29114 0.8356 0.71056 0.0
O317 O 0.21634 0.78848 0.81148 0.0
O318 O 0.23921 0.8532 0.82326 0.0
O319 O 0.30098 0.86598 0.74526 0.0
O320 O 0.27581 0.8008 0.73442 0.0
O321 O 0.34246 0.85685 0.83839 0.0
H322 H 0.31252 0.94269 0.77612 0.0
H323 H 0.36019 0.90933 0.92655 0.0
O324 O 0.31585 0.79238 0.82863 0.0
O325 O 0.25662 0.78089 0.90778 0.0
O326 O 0.28301 0.84575 0.92003 0.0
C327 C 0.26608 0.8107 0.94344 0.0
H328 H 0.19537 0.65423 0.72364 0.0
H329 H 0.37865 1.00692 0.81453 0.0
Co330 Co 0.29443 0.49525 0.81464 0.0
C331 C 0.25737 0.53819 0.83073 0.0
Co332 Co 0.22872 0.45419 0.82391 0.0
C333 C 0.37538 0.56105 0.82557 0.0
C334 C 0.36912 0.52031 0.7522 0.0
N335 N 0.3487 0.52596 0.79861 0.0
N336 N 0.41161 0.57769 0.79765 0.0
C337 C 0.4077 0.5521 0.75129 0.0
H338 H 0.368 0.57474 0.86381 0.0
H339 H 0.35624 0.49561 0.71924 0.0
C340 C 0.26842 0.41156 0.8026 0.0
N341 N 0.17272 0.4292 0.84358 0.0
C342 C 0.15782 0.44608 0.88418 0.0
C343 C 0.14019 0.40229 0.81126 0.0
N344 N 0.11797 0.43206 0.87715 0.0
C345 C 0.10678 0.40373 0.832 0.0
C346 C 0.24914 0.47501 0.70337 0.0
O347 O 0.29681 0.44783 0.802 0.0
O348 O 0.2326 0.40455 0.81454 0.0
O349 O 0.21886 0.45283 0.73715 0.0
O350 O 0.2835 0.49606 0.72823 0.0
O351 O 0.22757 0.50308 0.82957 0.0
H352 H 0.14111 0.38521 0.77159 0.0
H353 H 0.17658 0.47025 0.91589 0.0
O354 O 0.2921 0.54271 0.82661 0.0
O355 O 0.30468 0.4937 0.9009 0.0
O356 O 0.23963 0.45547 0.91016 0.0
C357 C 0.27419 0.47329 0.93518 0.0
H358 H 0.43029 0.55699 0.71678 0.0
H359 H 0.07697 0.38708 0.81202 0.0
Co360 Co 0.96021 0.79101 0.66092 0.0
C361 C 0.87746 0.74471 0.64037 0.0
Co362 Co 0.93175 0.82859 0.64533 0.0
C363 C 1.02472 0.78509 0.7215 0.0
C364 C 0.99409 0.73614 0.65755 0.0
N365 N 0.99184 0.767 0.68293 0.0
N366 N 1.04763 0.76757 0.72025 0.0
C367 C 1.02801 0.7363 0.68055 0.0
H368 H 1.0328 0.81187 0.7485 0.0
H369 H 0.9739 0.71633 0.62175 0.0
C370 C 1.01262 0.87451 0.66007 0.0
N371 N 0.90662 0.85797 0.62858 0.0
C372 C 0.91889 0.89528 0.64998 0.0
C373 C 0.87467 0.84907 0.59154 0.0
N374 N 0.8965 0.91029 0.62713 0.0
C375 C 0.86825 0.88129 0.5908 0.0
C376 C 0.93337 0.8122 0.76901 0.0
O377 O 1.00888 0.84034 0.66743 0.0
O378 O 0.98187 0.87729 0.64923 0.0
O379 O 0.92421 0.83187 0.73128 0.0
O380 O 0.94903 0.79221 0.7483 0.0
O381 O 0.88175 0.77971 0.64022 0.0
H382 H 0.85783 0.82144 0.56549 0.0
H383 H 0.94425 0.91161 0.68117 0.0
O384 O 0.90834 0.74067 0.65013 0.0
O385 O 0.97019 0.79009 0.57342 0.0
O386 O 0.93921 0.82474 0.55935 0.0
C387 C 0.9567 0.80697 0.53695 0.0
H388 H 1.03857 0.71622 0.66635 0.0
H389 H 0.84575 0.88388 0.56381 0.0
Co390 Co 0.299 0.18845 0.66981 0.0
C391 C 0.34239 0.14888 0.65027 0.0
Co392 Co 0.25846 0.12278 0.65653 0.0
C393 C 0.30751 0.26024 0.72716 0.0
C394 C 0.35095 0.27624 0.65415 0.0
N395 N 0.3243 0.24451 0.6881 0.0
N396 N 0.32123 0.29982 0.71737 0.0
C397 C 0.34937 0.31001 0.67226 0.0
H398 H 0.28348 0.24217 0.75946 0.0
H399 H 0.36771 0.27438 0.61484 0.0
C400 C 0.21513 0.16018 0.67068 0.0
N401 N 0.22762 0.06801 0.64249 0.0
C402 C 0.18959 0.04385 0.66188 0.0
C403 C 0.23704 0.04383 0.61012 0.0
N404 N 0.17467 1.00562 0.64288 0.0
C405 C 0.20463 1.00552 0.61032 0.0
C406 C 0.27776 0.14238 0.7795 0.0
O407 O 0.25012 0.18995 0.67494 0.0
O408 O 0.2111 0.12585 0.66337 0.0
O409 O 0.25756 0.11317 0.74281 0.0
O410 O 0.29764 0.17769 0.7573 0.0
O411 O 0.30629 0.12015 0.64864 0.0
H412 H 0.26532 0.05347 0.58679 0.0
H413 H 0.17265 0.05455 0.68742 0.0
O414 O 0.34874 0.18463 0.66079 0.0
O415 O 0.30015 0.19782 0.58238 0.0
O416 O 0.25963 0.13272 0.57026 0.0
C417 C 0.2797 0.16767 0.54712 0.0
H418 H 0.36566 0.33926 0.65035 0.0
H419 H 0.20315 0.97976 0.58743 0.0
Co420 Co 0.89792 0.12708 0.6685 0.0
C421 C 0.93831 0.21084 0.65128 0.0
Co422 Co 0.96342 0.15263 0.65228 0.0
C423 C 0.82667 0.06274 0.72766 0.0
C424 C 0.80932 0.09527 0.66569 0.0
N425 N 0.8421 0.0964 0.69066 0.0
N426 N 0.78613 0.04043 0.72591 0.0
C427 C 0.77519 0.06131 0.68735 0.0
H428 H 0.84503 0.05364 0.75366 0.0
H429 H 0.81013 0.11619 0.6308 0.0
C430 C 0.92597 0.07149 0.66041 0.0
N431 N 1.01756 0.17569 0.63503 0.0
C432 C 1.04308 0.16621 0.66366 0.0
C433 C 1.03895 0.20095 0.5882 0.0
N434 N 0.07937 0.18362 0.63577 0.0
C435 C 0.07694 0.2059 0.58858 0.0
C436 C 0.94599 0.14922 0.77653 0.0
O437 O 0.89648 0.0766 0.67054 0.0
O438 O 0.95998 0.10202 0.65208 0.0
O439 O 0.97466 0.15801 0.73899 0.0
O440 O 0.91063 0.13551 0.7555 0.0
O441 O 0.9671 0.2035 0.65023 0.0
H442 H 1.02721 0.21362 0.55448 0.0
H443 H 1.03467 0.14634 0.7038 0.0
O444 O 0.9025 0.18136 0.66177 0.0
O445 O 0.8862 0.11984 0.58137 0.0
O446 O 0.9514 0.14735 0.56623 0.0
C447 C 0.91607 0.13265 0.54453 0.0
H448 H 0.74475 0.05158 0.67271 0.0
H449 H 0.10037 0.22319 0.55488 0.0
Co450 Co 0.25663 0.14961 0.15791 0.0
C451 C 0.21508 0.06902 0.17026 0.0
Co452 Co 0.29857 0.1259 0.16992 0.0
C453 C 0.18757 0.15893 0.16954 0.0
C454 C 0.23259 0.20598 0.1133 0.0
N455 N 0.22465 0.17259 0.14565 0.0
N456 N 0.17229 0.1824 0.15369 0.0
C457 C 0.2004 0.21218 0.11841 0.0
H458 H 0.17199 0.13239 0.19858 0.0
H459 H 0.25983 0.22446 0.08728 0.0
C460 C 0.34052 0.20856 0.15012 0.0
N461 N 0.32431 0.09541 0.18858 0.0
C462 C 0.30797 0.06332 0.22889 0.0
C463 C 0.35202 0.09099 0.15671 0.0
N464 N 0.32344 0.03875 0.22258 0.0
C465 C 0.3517 0.05659 0.17758 0.0
C466 C 0.27824 0.12734 0.0475 0.0
O467 O 0.30417 0.2007 0.14945 0.0
O468 O 0.34753 0.17958 0.16091 0.0
O469 O 0.29945 0.11815 0.0823 0.0
O470 O 0.25751 0.1413 0.07121 0.0
O471 O 0.2505 0.07558 0.17495 0.0
H472 H 0.36901 0.10953 0.11736 0.0
H473 H 0.28311 0.05656 0.25983 0.0
O474 O 0.20966 0.0986 0.16471 0.0
O475 O 0.25636 0.15798 0.2447 0.0
O476 O 0.29769 0.13487 0.25692 0.0
C477 C 0.27802 0.15005 0.28018 0.0
H478 H 0.19741 0.23605 0.09679 0.0
H479 H 0.36908 0.04424 0.15789 0.0
Co480 Co 0.93354 0.12348 0.1575 0.0
C481 C 1.01389 0.15903 0.18329 0.0
Co482 Co 0.96165 0.19003 0.1654 0.0
C483 C 0.92493 0.04453 0.1477 0.0
C484 C 0.87008 0.04207 0.17307 0.0
N485 N 0.90795 0.0677 0.15455 0.0
N486 N 0.89966 1.00593 0.16312 0.0
C487 C 0.86489 1.00415 0.17824 0.0
H488 H 0.95609 0.05607 0.13584 0.0
H489 H 0.84838 0.05075 0.18606 0.0
C490 C 0.87971 0.15276 0.13467 0.0
N491 N 0.99373 0.24712 0.17458 0.0
C492 C 1.02288 0.26505 0.21967 0.0
C493 C 1.00545 0.27509 0.12877 0.0
N494 N 0.05269 0.30208 0.20287 0.0
C495 C 1.04151 0.30841 0.14568 0.0
C496 C 0.96185 0.16183 0.04515 0.0
O497 O 0.88448 0.12236 0.13723 0.0
O498 O 0.90974 0.18773 0.14736 0.0
O499 O 0.97161 0.19321 0.0775 0.0
O500 O 0.94558 0.1276 0.0715 0.0
O501 O 1.01062 0.19008 0.18082 0.0
H502 H 0.99139 0.26999 0.08291 0.0
H503 H 1.02487 0.24926 0.26055 0.0
O504 O 0.98271 0.12522 0.1761 0.0
O505 O 0.92145 0.11993 0.24381 0.0
O506 O 0.95031 0.18521 0.25219 0.0
C507 C 0.93124 0.15072 0.27723 0.0
H508 H 0.83802 0.97766 0.19394 0.0
H509 H 0.05959 0.33413 0.11606 0.0
Co510 Co 0.96455 0.82891 0.14475 0.0
C511 C 0.93052 0.87444 0.16988 0.0
Co512 Co 0.89856 0.79046 0.15814 0.0
C513 C 1.04559 0.89235 0.1576 0.0
C514 C 1.03867 0.85438 0.07949 0.0
N515 N 1.01862 0.85854 0.12802 0.0
N516 N 0.08164 0.90983 0.12916 0.0
C517 C 0.0774 0.88599 0.07988 0.0
H518 H 1.03847 0.90471 0.19798 0.0
H519 H 1.02541 0.83104 0.04426 0.0
C520 C 0.93536 0.74548 0.12827 0.0
N521 N 0.84266 0.76506 0.17979 0.0
C522 C 0.81987 0.78325 0.17854 0.0
C523 C 0.82416 0.73567 0.22263 0.0
N524 N 0.7893 0.76794 0.22111 0.0
C525 C 0.79195 0.73732 0.24766 0.0
C526 C 0.91787 0.81326 0.03636 0.0
O527 O 0.96544 0.78078 0.12938 0.0
O528 O 0.90037 0.74037 0.14115 0.0
O529 O 0.88766 0.79285 0.07158 0.0
O530 O 0.95301 0.83099 0.05941 0.0
O531 O 0.89972 0.84002 0.173 0.0
H532 H 0.83601 0.71727 0.24018 0.0
H533 H 0.82766 0.80922 0.14974 0.0
O534 O 0.96395 0.87731 0.158 0.0
O535 O 0.9754 0.82626 0.23126 0.0
O536 O 0.91054 0.78828 0.24341 0.0
C537 C 0.94559 0.80553 0.26677 0.0
H538 H 0.09981 0.89213 0.04434 0.0
H539 H 0.77409 0.71914 0.28666 0.0
C540 C 0.54676 0.29476 0.98074 0.0
C541 C 0.57903 0.28764 0.98604 0.0
C542 C 0.55212 0.33316 -0.01028 0.0
C543 C 0.59005 0.36607 0.00399 0.0
H544 H 0.51711 0.27041 0.96929 0.0
H545 H 0.52644 0.33721 0.98365 0.0
S546 S 0.68465 0.36355 0.02174 0.0
N547 N 0.65049 0.31684 0.00539 0.0
N548 N 0.66053 0.38891 0.02308 0.0
C549 C 0.6226 0.35934 0.00983 0.0
C550 C 0.6171 0.32015 0.00083 0.0
C551 C 0.73012 0.27892 0.00314 0.0
C552 C 0.72477 0.24054 0.01563 0.0
C553 C 0.76847 0.31237 -0.0047 0.0
C554 C 0.80282 0.30858 -0.00118 0.0
H555 H 0.70449 0.28307 -0.00263 0.0
H556 H 0.77121 0.34104 0.98381 0.0
S557 S 0.80652 0.21708 0.03905 0.0
N558 N 0.75826 0.2024 0.03835 0.0
N559 N 0.82995 0.26521 0.0214 0.0
C560 C 0.79827 0.27117 0.01411 0.0
C561 C 0.75937 0.23719 0.0232 0.0
C562 C 0.77644 0.47966 0.00054 0.0
C563 C 0.78195 0.51828 -0.00856 0.0
C564 C 0.80924 0.47354 0.0071 0.0
C565 C 0.84883 0.50591 0.0053 0.0
H566 H 0.74658 0.45385 0.00039 0.0
H567 H 0.80346 0.44312 0.01228 0.0
S568 S 0.8788 0.61342 0.98721 0.0
N569 N 0.82942 0.58945 0.9849 0.0
N570 N 0.89126 0.57848 -0.00356 0.0
C571 C 0.85456 0.54491 -0.00169 0.0
C572 C 0.82111 0.55095 -0.00854 0.0
C573 C 0.72663 0.46646 0.49433 0.0
C574 C 0.72033 0.49524 0.52497 0.0
C575 C 0.76543 0.47337 0.4834 0.0
C576 C 0.79916 0.50933 0.5023 0.0
H577 H 0.70155 0.43918 0.47607 0.0
H578 H 0.76922 0.45116 0.45799 0.0
S579 S 0.79929 0.59005 0.59601 0.0
N580 N 0.75135 0.55828 0.58254 0.0
N581 N 0.8243 0.57125 0.56056 0.0
C582 C 0.79347 0.53717 0.53622 0.0
C583 C 0.754 0.53008 0.54799 0.0
C584 C 0.55364 0.23477 0.49266 0.0
C585 C 0.59217 0.24112 0.5065 0.0
C586 C 0.54632 0.26672 0.48754 0.0
C587 C 0.57707 0.30649 0.49643 0.0
H588 H 0.52878 0.20478 0.48483 0.0
H589 H 0.51622 0.26018 0.47625 0.0
S590 S 0.68308 0.33931 0.53686 0.0
N591 N 0.66148 0.29014 0.53007 0.0
N592 N 0.64755 0.35037 0.52259 0.0
C593 C 0.61584 0.31341 0.51077 0.0
C594 C 0.62339 0.28069 0.51534 0.0
C595 C 0.77683 0.31291 0.49871 0.0
C596 C 0.78318 0.28203 0.47685 0.0
C597 C 0.80871 0.35232 0.50497 0.0
C598 C 0.8481 0.3621 0.49022 0.0
H599 H 0.7472 0.30639 0.5127 0.0
H600 H 0.80258 0.37508 0.52256 0.0
S601 S 0.87987 0.29313 0.4243 0.0
N602 N 0.83118 0.26464 0.43553 0.0
N603 N 0.89121 0.33839 0.44793 0.0
C604 C 0.85466 0.33172 0.46666 0.0
C605 C 0.82219 0.29178 0.45987 0.0
C606 C 0.2796 0.68542 0.33831 0.0
C607 C 0.24812 0.69351 0.32949 0.0
C608 C 0.27353 0.64662 0.33028 0.0
C609 C 0.23582 0.61445 0.31263 0.0
H610 H 0.30931 0.70933 0.35072 0.0
H611 H 0.29893 0.64212 0.33603 0.0
S612 S 0.14349 0.61966 0.28372 0.0
N613 N 0.17783 0.66602 0.30158 0.0
N614 N 0.16629 0.59315 0.28858 0.0
C615 C 0.20395 0.62202 0.30476 0.0
C616 C 0.21011 0.66148 0.31275 0.0
C617 C 0.43835 0.64448 0.32817 0.0
C618 C 0.47002 0.6386 0.30891 0.0
C619 C 0.39911 0.61215 0.33469 0.0
C620 C 0.39024 0.57267 0.323 0.0
H621 H 0.4437 0.6744 0.33664 0.0
H622 H 0.37561 0.61815 0.34871 0.0
S623 S 0.46259 0.54106 0.27201 0.0
N624 N 0.48993 0.59012 0.28 0.0
N625 N 0.41649 0.5296 0.29027 0.0
C626 C 0.4218 0.56637 0.30433 0.0
C627 C 0.46158 0.59923 0.2978 0.0
C628 C 0.51511 0.86776 0.32962 0.0
C629 C 0.50996 0.82896 0.33491 0.0
C630 C 0.48237 0.87361 0.32085 0.0
C631 C 0.4432 0.84097 0.31781 0.0
H632 H 0.5448 0.89389 0.3302 0.0
H633 H 0.48771 0.90388 0.31586 0.0
S634 S 0.4129 0.73343 0.33052 0.0
N635 N 0.46215 0.75737 0.33804 0.0
N636 N 0.40069 0.76855 0.32129 0.0
C637 C 0.43735 0.80209 0.3247 0.0
C638 C 0.47071 0.79604 0.33331 0.0
C639 C 0.46022 0.8769 0.8226 0.0
C640 C 0.46654 0.84507 0.8076 0.0
C641 C 0.42141 0.87034 0.83202 0.0
C642 C 0.38752 0.83172 0.8272 0.0
H643 H 0.48548 0.90698 0.82715 0.0
H644 H 0.41793 0.89595 0.84176 0.0
S645 S 0.38856 0.73973 0.77832 0.0
N646 N 0.43626 0.77463 0.78157 0.0
N647 N 0.36323 0.76193 0.79956 0.0
C648 C 0.39363 0.79983 0.81029 0.0
C649 C 0.43316 0.80661 0.80058 0.0
C650 C 0.21512 0.5686 0.80598 0.0
C651 C 0.25092 0.5729 0.83084 0.0
C652 C 0.20915 0.60144 0.80051 0.0
C653 C 0.23865 0.64005 0.81973 0.0
H654 H 0.19178 0.53977 0.78898 0.0
H655 H 0.18117 0.59648 0.78045 0.0
S656 S 0.33625 0.66593 0.89465 0.0
N657 N 0.31504 0.61758 0.87958 0.0
N658 N 0.30441 0.67971 0.86904 0.0
C659 C 0.27409 0.64437 0.84728 0.0
C660 C 0.28011 0.61074 0.85263 0.0
C661 C 0.44012 0.64903 0.82658 0.0
C662 C 0.44567 0.61681 0.80957 0.0
C663 C 0.47284 0.68794 0.83388 0.0
C664 C 0.51234 0.69597 0.82509 0.0
H665 H 0.41021 0.64442 0.8324 0.0
H666 H 0.46709 0.71193 0.84585 0.0
S667 S 0.54299 0.62181 0.78107 0.0
N668 N 0.49371 0.59534 0.78606 0.0
N669 N 0.55504 0.6683 0.79794 0.0
C670 C 0.51828 0.66384 0.80894 0.0
C671 C 0.48502 0.62434 0.80159 0.0
C672 C 0.88133 0.99698 0.66358 0.0
C673 C 0.91972 1.03038 0.6536 0.0
C674 C 0.87367 0.95773 0.65429 0.0
C675 C 0.90425 0.95052 0.63507 0.0
H676 H 0.85685 1.00121 0.67794 0.0
H677 H 0.84382 0.93284 0.66271 0.0
S678 S 1.00861 1.02665 0.59556 0.0
N679 N 0.98794 0.05306 0.61873 0.0
N680 N 0.97334 0.97923 0.60202 0.0
C681 C 0.94252 0.98335 0.62392 0.0
C682 C 0.95034 1.02331 0.63297 0.0
C683 C 0.11742 0.94303 0.60255 0.0
C684 C 0.13393 0.97303 0.6491 0.0
C685 C 0.07781 0.91163 0.60631 0.0
C686 C 0.05294 0.90943 0.656 0.0
H687 H 0.13502 0.94393 0.56237 0.0
H688 H 0.06644 0.88889 0.56988 0.0
S689 S 0.0811 0.97791 0.79226 0.0
N690 N 0.12218 0.99646 0.74921 0.0
N691 N 1.04694 0.93818 0.75379 0.0
C692 C 0.06851 0.93881 0.70288 0.0
C693 C 0.10922 0.97049 0.70001 0.0
C694 C 0.15214 0.20835 0.63596 0.0
C695 C 0.1129 0.17774 0.64963 0.0
C696 C 0.18507 0.20277 0.64488 0.0
C697 C 0.18017 0.16626 0.66762 0.0
H698 H 0.15751 0.23692 0.6179 0.0
H699 H 0.21453 0.22699 0.63217 0.0
S700 S 0.08452 0.07703 0.71411 0.0
N701 N 0.0715 0.10959 0.68922 0.0
N702 N 0.13364 0.09968 0.70666 0.0
C703 C 0.14142 0.1357 0.68306 0.0
C704 C 0.10775 0.14132 0.67411 0.0
C705 C 0.099 0.13954 0.14763 0.0
C706 C 0.13281 0.1752 0.1674 0.0
C707 C 0.06025 0.13349 0.15612 0.0
C708 C 0.05413 0.16289 0.185 0.0
H709 H 0.10273 0.11695 0.12333 0.0
H710 H 1.03513 0.10643 0.13735 0.0
S711 S 0.13305 0.25747 0.25673 0.0
N712 N 0.15795 0.23756 0.22433 0.0
N713 N 0.08523 0.22637 0.24132 0.0
C714 C 0.0878 0.19749 0.20865 0.0
C715 C 0.12715 0.20363 0.19953 0.0
C716 C 0.94207 0.9392 0.12504 0.0
C717 C 0.92617 0.91025 0.17312 0.0
C718 C 0.93367 0.97068 0.12248 0.0
C719 C 0.90937 0.97441 0.16817 0.0
H720 H 0.95973 0.93654 0.08775 0.0
H721 H 0.94529 0.99163 0.08355 0.0
S722 S 0.86703 0.91038 0.31004 0.0
N723 N 0.88862 0.88936 0.2707 0.0
N724 N 0.8745 0.94965 0.26786 0.0
C725 C 0.89538 0.94693 0.21856 0.0
C726 C 0.90333 0.91452 0.22048 0.0
C727 C 0.14182 1.01861 0.17442 0.0
C728 C 0.18141 1.02741 0.16422 0.0
C729 C 0.10944 0.97989 0.16443 0.0
C730 C 0.11544 0.94867 0.14321 0.0
H731 H 0.13574 0.04189 0.18946 0.0
H732 H 0.07942 0.97471 0.17147 0.0
S733 S 0.21316 0.95601 0.10926 0.0
N734 N 0.22476 1.00161 0.13124 0.0
N735 N 0.16392 0.92888 0.11396 0.0
C736 C 0.15487 0.95693 0.13371 0.0
C737 C 0.18784 0.99625 0.14393 0.0
C738 C 0.59591 0.17491 0.28025 0.0
C739 C 0.58312 0.13961 0.31519 0.0
C740 C 0.59874 0.17467 0.21453 0.0
C741 C 0.59025 0.13941 0.1825 0.0
H742 H 0.60495 0.20301 0.30408 0.0
H743 H 0.60971 0.20264 0.18907 0.0
S744 S 0.55415 0.03901 0.25321 0.0
N745 N 0.55998 0.06835 0.3137 0.0
N746 N 0.56665 0.068 0.19014 0.0
C747 C 0.57629 0.10371 0.21697 0.0
C748 C 0.57239 0.10379 0.28354 0.0
C749 C 0.92568 0.43504 0.27237 0.0
C750 C 0.95261 0.4668 0.31041 0.0
C751 C 0.92572 0.43981 0.20701 0.0
C752 C 0.95232 0.47672 0.17827 0.0
H753 H 0.90352 0.40699 0.29344 0.0
H754 H 0.90377 0.41487 0.17923 0.0
S755 S 1.02996 0.56823 0.25965 0.0
N756 N 1.00736 0.53532 0.31662 0.0
N757 N 1.00782 0.54486 0.1937 0.0
C758 C 0.98037 0.50825 0.21639 0.0
C759 C 0.98035 0.50314 0.28267 0.0
C760 C 0.65164 0.48734 0.28289 0.0
C761 C 0.62926 0.49936 0.31933 0.0
C762 C 0.647 0.4843 0.21734 0.0
C763 C 0.61874 0.49171 0.18724 0.0
H764 H 0.67216 0.47955 0.30529 0.0
H765 H 0.66437 0.4745 0.19038 0.0
S766 S 0.55315 0.52417 0.26299 0.0
N767 N 0.57891 0.51966 0.32167 0.0
N768 N 0.56895 0.51248 0.19855 0.0
C769 C 0.59658 0.50419 0.22343 0.0
C770 C 0.60216 0.50837 0.28968 0.0
C771 C 0.90983 0.49291 0.77423 0.0
C772 C 0.94484 0.50462 0.80933 0.0
C773 C 0.90939 0.48713 0.70922 0.0
C774 C 0.94354 0.49148 0.67838 0.0
H775 H 0.88246 0.48714 0.79747 0.0
H776 H 0.88175 0.47762 0.68343 0.0
S777 S 1.04268 0.52247 0.75056 0.0
N778 N 1.01457 0.52165 0.80969 0.0
N779 N 1.01366 0.50961 0.68742 0.0
C780 C 0.97896 0.50396 0.71313 0.0
C781 C 0.97962 0.51085 0.77886 0.0
C782 C 0.60829 0.5092 0.72511 0.0
C783 C 0.58813 0.47528 0.6864 0.0
C784 C 0.60536 0.50563 0.79037 0.0
C785 C 0.58163 0.46823 0.81905 0.0
H786 H 0.62793 0.53854 0.70518 0.0
H787 H 0.62276 0.53221 0.8188 0.0
S788 S 0.51954 0.37093 0.73963 0.0
N789 N 0.54117 0.40333 0.68158 0.0
N790 N 0.53544 0.39716 0.80544 0.0
C791 C 0.55939 0.43441 0.78149 0.0
C792 C 0.56275 0.43781 0.71467 0.0
C793 C 0.59836 0.10632 0.78636 0.0
C794 C 0.63108 0.13843 0.81643 0.0
C795 C 0.59292 0.10688 0.72125 0.0
C796 C 0.6203 0.13943 0.68439 0.0
H797 H 0.57572 0.08166 0.8138 0.0
H798 H 0.56675 0.08202 0.69988 0.0
S799 S 0.71163 0.23014 0.74189 0.0
N800 N 0.6914 0.20306 0.8059 0.0
N801 N 0.68221 0.20392 0.68281 0.0
C802 C 0.65409 0.17099 0.71396 0.0
C803 C 0.65917 0.17059 0.78037 0.0
C804 C 0.26121 0.50564 0.5339 0.0
C805 C 0.25987 0.4724 0.50418 0.0
C806 C 0.25543 0.50563 0.59884 0.0
C807 C 0.24678 0.47187 0.63519 0.0
H808 H 0.26833 0.53243 0.50727 0.0
H809 H 0.25885 0.53246 0.62103 0.0
S810 S 0.23776 0.37665 0.58009 0.0
N811 N 0.24804 0.40442 0.51588 0.0
N812 N 0.23605 0.40423 0.6381 0.0
C813 C 0.24373 0.43792 0.606 0.0
C814 C 0.25057 0.43821 0.54024 0.0
C815 C 0.58651 0.76886 0.53767 0.0
C816 C 0.61644 0.80338 0.50728 0.0
C817 C 0.58669 0.7649 0.60328 0.0
C818 C 0.61733 0.79482 0.63988 0.0
H819 H 0.5618 0.74565 0.51102 0.0
H820 H 0.56201 0.73912 0.62572 0.0
S821 S 0.70413 0.8892 0.58375 0.0
N822 N 0.67878 0.86692 0.51915 0.0
N823 N 0.679 0.8588 0.64239 0.0
C824 C 0.64834 0.82841 0.61021 0.0
C825 C 0.64797 0.83285 0.54375 0.0
C826 C 0.26415 0.84284 0.60944 0.0
C827 C 0.2937 0.83907 0.64229 0.0
C828 C 0.25944 0.83626 0.54448 0.0
C829 C 0.2845 0.82623 0.51059 0.0
H830 H 0.24318 0.84867 0.63462 0.0
H831 H 0.23553 0.83829 0.52087 0.0
S832 S 0.36774 0.81492 0.57589 0.0
N833 N 0.34894 0.82589 0.63748 0.0
N834 N 0.34119 0.81483 0.51447 0.0
C835 C 0.31543 0.82429 0.54278 0.0
C836 C 0.31969 0.83028 0.6091 0.0
C837 C 0.57873 0.82953 0.03773 0.0
C838 C 0.6102 0.82765 0.00752 0.0
C839 C 0.57926 0.83465 0.10315 0.0
C840 C 0.6118 0.83926 0.13941 0.0
H841 H 0.55281 0.82524 0.01118 0.0
H842 H 0.55358 0.8336 0.12573 0.0
S843 S 0.7024 0.83909 0.0831 0.0
N844 N 0.67552 0.83268 0.01894 0.0
N845 N 0.6764 0.84291 0.14157 0.0
C846 C 0.64408 0.83924 0.10967 0.0
C847 C 0.64335 0.83334 0.04362 0.0
C848 C 0.24893 0.76863 0.04066 0.0
C849 C 0.25692 0.80474 0.01134 0.0
C850 C 0.24292 0.76347 0.10585 0.0
C851 C 0.24364 0.7938 0.14305 0.0
H852 H 0.24898 0.74487 0.01359 0.0
H853 H 0.23931 0.73637 0.12759 0.0
S854 S 0.26073 0.89264 0.08994 0.0
N855 N 0.2633 0.87054 0.025 0.0
N856 N 0.25144 0.86016 0.14734 0.0
C857 C 0.2498 0.82916 0.11439 0.0
C858 C 0.25653 0.8348 0.04843 0.0
C859 C 0.31602 0.48301 0.03131 0.0
C860 C 0.27819 0.47034 0.00368 0.0
C861 C 0.32023 0.48193 0.09687 0.0
C862 C 0.28676 0.46859 0.136 0.0
H863 H 0.34257 0.4944 0.00229 0.0
H864 H 0.34981 0.49319 0.11707 0.0
S865 S 0.18122 0.43035 0.08797 0.0
N866 N 0.20651 0.44211 0.0214 0.0
N867 N 0.2149 0.44101 0.14387 0.0
C868 C 0.24884 0.45474 0.10907 0.0
C869 C 0.2444 0.45538 0.04295 0.0
C870 C 0.90737 0.77656 0.87068 0.0
C871 C 0.9257 0.81258 0.83639 0.0
C872 C 0.90108 0.77661 0.93559 0.0
C873 C 0.914 0.81277 0.96794 0.0
H874 H 0.89837 0.74832 0.84733 0.0
H875 H 0.88843 0.74853 0.96121 0.0
S876 S 0.96275 0.91477 0.8993 0.0
N877 N 0.95492 0.88496 0.8386 0.0
N878 N 0.94504 0.88515 0.96149 0.0
C879 C 0.93147 0.84879 0.93396 0.0
C880 C 0.93683 0.84867 0.86776 0.0
C881 C 0.31223 0.16204 0.8832 0.0
C882 C 0.27864 0.13538 0.84733 0.0
C883 C 0.31311 0.15727 0.94834 0.0
C884 C 0.28028 0.12603 0.97932 0.0
H885 H 0.33774 0.1871 0.86095 0.0
H886 H 0.33874 0.17925 0.97502 0.0
S887 S 0.18583 0.0477 0.90757 0.0
N888 N 0.21239 0.07567 0.84758 0.0
N889 N 0.21391 0.06769 0.97086 0.0
C890 C 0.24699 0.09863 0.94429 0.0
C891 C 0.24625 0.103 0.87785 0.0
C892 C 0.97166 0.13736 0.87685 0.0
C893 C 0.95367 0.15596 0.84403 0.0
C894 C 0.97582 0.14066 0.94247 0.0
C895 C 0.96355 0.16393 0.97633 0.0
H896 H 0.98089 0.11879 0.85202 0.0
H897 H 0.9879 0.1243 0.96703 0.0
S898 S 0.9175 0.22082 0.91072 0.0
N899 N 0.92479 0.1993 0.84893 0.0
N900 N 0.93458 0.20734 0.97208 0.0
C901 C 0.94747 0.18434 0.94341 0.0
C902 C 0.94197 0.17983 0.8771 0.0
C903 C 0.24888 0.15971 0.37825 0.0
C904 C 0.28084 0.15899 0.34773 0.0
C905 C 0.24965 0.16521 0.4434 0.0
C906 C 0.2829 0.17138 0.47913 0.0
H907 H 0.22239 0.15424 0.35215 0.0
H908 H 0.22361 0.16319 0.46628 0.0
S909 S 0.37523 0.17514 0.42187 0.0
N910 N 0.34748 0.16695 0.35807 0.0
N911 N 0.3489 0.1781 0.48067 0.0
C912 C 0.31575 0.17266 0.44916 0.0
C913 C 0.31475 0.16627 0.38319 0.0
C914 C 0.90428 0.10768 0.37284 0.0
C915 C 0.92187 0.14611 0.34508 0.0
C916 C 0.89936 0.10276 0.43812 0.0
C917 C 0.91161 0.13606 0.47717 0.0
H918 H 0.89582 0.08133 0.34437 0.0
H919 H 0.88806 0.07318 0.45831 0.0
S920 S 0.95456 0.2421 0.42908 0.0
N921 N 0.94792 0.21753 0.36239 0.0
N922 N 0.93875 0.20784 0.48519 0.0
C923 C 0.9269 0.17417 0.45033 0.0
C924 C 0.93195 0.17933 0.38408 0.0
C925 C 0.91576 0.78612 0.37317 0.0
C926 C 0.95032 0.80277 0.33537 0.0
C927 C 0.91849 0.78617 0.43852 0.0
C928 C 0.95571 0.80197 0.46872 0.0
H929 H 0.88622 0.77423 0.35249 0.0
H930 H 0.89122 0.77477 0.46584 0.0
S931 S 0.05509 0.84649 0.39274 0.0
N932 N 1.02312 0.83391 0.3334 0.0
N933 N 1.02777 0.83298 0.45755 0.0
C934 C 0.99047 0.81697 0.43224 0.0
C935 C 0.98788 0.81762 0.36513 0.0
C936 C 0.43772 0.03529 0.91354 0.0
C937 C 0.42149 0.99342 0.91313 0.0
C938 C 0.47665 0.06174 0.936 0.0
C939 C 0.50253 0.04842 0.95937 0.0
H940 H 0.42013 0.04809 0.89611 0.0
H941 H 0.48661 0.09344 0.9339 0.0
S942 S 0.47506 0.94163 0.97282 0.0
N943 N 0.43469 0.93974 0.94207 0.0
N944 N 0.50796 0.98964 0.98266 0.0
C945 C 0.48671 1.00658 0.96069 0.0
C946 C 0.44639 0.97922 0.93833 0.0
C947 C 1.02635 0.43231 0.94204 0.0
C948 C 1.03918 0.47314 0.95454 0.0
C949 C 0.05219 0.41949 0.91814 0.0
C950 C 0.09288 0.44646 0.90593 0.0
H951 H 0.99545 0.4095 0.94971 0.0
H952 H 1.04001 0.38786 0.90893 0.0
S953 S 0.14318 0.55673 0.93144 0.0
N954 N 0.09643 0.54057 0.95321 0.0
N955 N 0.14516 0.51664 0.90949 0.0
C956 C 0.10677 0.48738 0.91962 0.0
C957 C 0.08005 0.5006 0.94347 0.0
C958 C 0.66638 0.65307 0.93081 0.0
C959 C 0.63915 0.66686 0.92148 0.0
C960 C 0.65447 0.6147 0.9553 0.0
C961 C 0.61421 0.58682 0.97145 0.0
H962 H 0.69759 0.67217 0.91863 0.0
H963 H 0.67757 0.60668 0.96008 0.0
S964 S 0.53035 0.60798 0.9599 0.0
N965 N 0.5695 0.64969 0.93428 0.0
N966 N 0.54709 0.5772 0.97818 0.0
C967 C 0.5865 0.60038 0.96399 0.0
C968 C 0.5989 0.64024 0.9398 0.0
C969 C 0.07693 0.5989 0.44944 0.0
C970 C 1.03791 0.58752 0.47052 0.0
C971 C 0.10364 0.63843 0.42725 0.0
C972 C 0.09222 0.6681 0.42313 0.0
H973 H 0.08654 0.57687 0.44822 0.0
H974 H 0.133 0.64539 0.41126 0.0
S975 S 0.9966 0.65671 0.48174 0.0
N976 N 0.99216 0.61233 0.49371 0.0
N977 N 1.041 0.68438 0.44926 0.0
C978 C 0.05429 0.65772 0.44684 0.0
C979 C 1.02764 0.61821 0.47101 0.0
C980 C 0.47738 0.43337 0.43182 0.0
C981 C 0.50374 0.47295 0.45294 0.0
C982 C 0.43878 0.42114 0.40829 0.0
C983 C 0.42344 0.44741 0.40464 0.0
H984 H 0.48665 0.41107 0.43253 0.0
H985 H 0.42064 0.39043 0.39276 0.0
S986 S 0.47892 0.55446 0.45455 0.0
N987 N 0.51091 0.53859 0.4687 0.0
N988 N 0.43807 0.5156 0.42589 0.0
C989 C 0.44891 0.48709 0.42666 0.0
C990 C 0.48894 0.49981 0.4501 0.0
C991 C 0.59999 0.98584 0.40026 0.0
C992 C 0.63733 0.98969 0.41711 0.0
C993 C 0.58692 1.01149 0.4257 0.0
C994 C 0.61054 0.04187 0.46947 0.0
H995 H 0.58156 0.96395 0.36522 0.0
H996 H 0.55921 1.00886 0.40847 0.0
S997 S 0.70805 0.06043 0.53514 0.0
N998 N 0.69579 1.0239 0.48387 0.0
N999 N 0.6713 0.07076 0.53295 0.0
C1000 C 0.64679 0.04414 0.489 0.0
C1001 C 0.66016 1.01854 0.46257 0.0
C1002 C 0.16605 0.35973 0.22471 0.0
C1003 C 0.17136 0.37627 0.2856 0.0
C1004 C 0.12742 0.33567 0.1981 0.0
C1005 C 0.09216 0.32561 0.23205 0.0
H1006 H 0.19202 0.36702 0.19609 0.0
H1007 H 0.12508 0.32477 0.15044 0.0
S1008 S 0.08902 0.35981 0.39385 0.0
N1009 N 0.13744 0.38072 0.37871 0.0
N1010 N 0.06541 0.33335 0.33074 0.0
C1011 C 0.097 0.34056 0.2938 0.0
C1012 C 0.13631 0.36634 0.31996 0.0
C1013 C 0.70249 0.77133 0.30112 0.0
C1014 C 0.70828 0.8098 0.2878 0.0
C1015 C 0.72858 0.75838 0.27897 0.0
C1016 C 0.76248 0.78289 0.24156 0.0
H1017 H 0.67673 0.75029 0.32834 0.0
H1018 H 0.72118 0.72813 0.29062 0.0
S1019 S 0.79037 0.88628 0.18955 0.0
N1020 N 0.75012 0.87228 0.2331 0.0
N1021 N 0.79924 0.84854 0.19098 0.0
C1022 C 0.76875 0.8218 0.22759 0.0
C1023 C 0.74194 0.83509 0.25095 0.0
C1024 C 0.25536 0.93092 0.27996 0.0
C1025 C 0.28284 0.91867 0.29886 0.0
C1026 C 0.2685 0.97055 0.25769 0.0
C1027 C 0.30971 0.99943 0.25157 0.0
H1028 H 0.22355 0.90952 0.28059 0.0
H1029 H 0.24622 0.97819 0.2432 0.0
S1030 S 0.394 0.98549 0.30272 0.0
N1031 N 0.35376 0.94176 0.31674 0.0
N1032 N 0.37735 1.01396 0.27255 0.0
C1033 C 0.33718 0.98813 0.27273 0.0
C1034 C 0.32408 0.94854 0.29678 0.0
C1035 C 0.76983 0.96977 0.75123 0.0
C1036 C 0.76014 1.00073 0.75353 0.0
C1037 C 0.74301 0.93019 0.77299 0.0
C1038 C 0.70534 0.91979 0.79897 0.0
H1039 H 0.79771 0.9757 0.73022 0.0
H1040 H 0.75122 0.90731 0.76709 0.0
S1041 S 0.66806 0.99133 0.82433 0.0
N1042 N 0.71166 1.01867 0.78929 0.0
N1043 N 0.66221 0.94603 0.83131 0.0
C1044 C 0.69653 0.95132 0.80456 0.0
C1045 C 0.72349 0.99111 0.78165 0.0
C1046 C 0.11826 0.82178 0.74408 0.0
C1047 C 0.08679 0.78155 0.74963 0.0
C1048 C 0.15751 0.83445 0.76756 0.0
C1049 C 0.16683 0.80753 0.79838 0.0
H1050 H 0.11292 0.84321 0.71905 0.0
H1051 H 0.181 0.86499 0.75902 0.0
S1052 S 0.09319 0.70053 0.83369 0.0
N1053 N 0.06691 0.71632 0.79361 0.0
N1054 N 0.13893 0.73947 0.83894 0.0
C1055 C 0.13463 0.76787 0.80736 0.0
C1056 C 0.09525 0.75507 0.78273 0.0
C1057 C 0.33341 0.36647 0.75266 0.0
C1058 C 0.30662 0.32542 0.7433 0.0
C1059 C 0.32045 0.39279 0.77346 0.0
C1060 C 0.27962 0.38006 0.78562 0.0
H1061 H 0.36502 0.37856 0.74357 0.0
H1062 H 0.34319 0.42397 0.77896 0.0
S1063 S 0.19641 0.27526 0.76887 0.0
N1064 N 0.23658 0.27291 0.74882 0.0
N1065 N 0.21234 0.32257 0.78693 0.0
C1066 C 0.2523 0.33887 0.7773 0.0
C1067 C 0.26568 0.31165 0.75655 0.0
C1068 C 0.76347 0.67868 0.637 0.0
C1069 C 0.75511 0.65996 0.57723 0.0
C1070 C 0.80308 0.70376 0.65879 0.0
C1071 C 0.83669 0.71067 0.62306 0.0
H1072 H 0.73918 0.67432 0.66747 0.0
H1073 H 0.80747 0.71873 0.70369 0.0
S1074 S 0.83288 0.67082 0.46276 0.0
N1075 N 0.78525 0.6521 0.48167 0.0
N1076 N 0.85903 0.6975 0.52409 0.0
C1077 C 0.8291 0.69185 0.5638 0.0
C1078 C 0.78868 0.66696 0.5407 0.0
C1079 C 0.41144 0.16573 0.60631 0.0
C1080 C 0.3748 0.13854 0.6355 0.0
C1081 C 0.43818 0.15322 0.58336 0.0
C1082 C 0.42924 0.11286 0.58773 0.0
H1083 H 0.41879 0.19648 0.59879 0.0
H1084 H 0.46532 0.17497 0.5598 0.0
S1085 S 0.34041 1.03083 0.66683 0.0
N1086 N 0.33385 0.06988 0.67293 0.0
N1087 N 0.38293 0.047 0.62846 0.0
C1088 C 0.39373 0.086 0.61889 0.0
C1089 C 0.36699 0.09864 0.64305 0.0
C1090 C 1.00167 0.32049 0.59672 0.0
C1091 C 0.97419 0.33352 0.58377 0.0
C1092 C 0.98948 0.28199 0.62109 0.0
C1093 C 0.94877 0.25335 0.63322 0.0
H1094 H 1.03321 0.34033 0.58755 0.0
H1095 H 1.01271 0.27442 0.62892 0.0
S1096 S 0.86394 0.27185 0.6077 0.0
N1097 N 0.90368 0.31444 0.5864 0.0
N1098 N 0.88082 0.24184 0.63023 0.0
C1099 C 0.92077 0.26608 0.62135 0.0
C1100 C 0.93338 0.30596 0.59727 0.0
C1101 C 0.36059 0.28027 0.12312 0.0
C1102 C 0.37243 0.25128 0.13365 0.0
C1103 C 0.38733 0.31936 0.10143 0.0
C1104 C 0.42795 0.33248 0.08957 0.0
H1105 H 0.3298 0.27264 0.13048 0.0
H1106 H 0.37586 0.33957 0.0935 0.0
S1107 S 0.4759 0.26992 0.11165 0.0
N1108 N 0.42875 0.23961 0.13174 0.0
N1109 N 0.47912 0.313 0.09214 0.0
C1110 C 0.44088 0.30447 0.1018 0.0
C1111 C 0.41326 0.26414 0.12341 0.0
C1112 C 0.81071 0.14264 0.15867 0.0
C1113 C 0.83911 0.14553 0.11417 0.0
C1114 C 0.7698 0.12696 0.14233 0.0
C1115 C 0.75531 0.1137 0.08055 0.0
H1116 H 0.81981 0.15093 0.2072 0.0
H1117 H 0.74917 0.12483 0.17861 0.0
S1118 S 0.81706 0.1144 0.94652 0.0
N1119 N 0.8492 0.13288 0.00572 0.0
N1120 N 0.77334 0.10513 0.97485 0.0
C1121 C 0.78357 0.11727 0.03543 0.0
C1122 C 0.825 0.13255 0.05231 0.0
C1123 C 0.95803 0.65871 0.11967 0.0
C1124 C 0.97575 0.66393 0.05936 0.0
C1125 C 0.94221 0.683 0.14104 0.0
C1126 C 0.94278 0.71327 0.10272 0.0
H1127 H 0.95744 0.6364 0.15147 0.0
H1128 H 0.93099 0.67911 0.18874 0.0
S1129 S 0.98119 0.737 0.93893 0.0
N1130 N 0.98908 0.70025 0.96012 0.0
N1131 N 0.96062 0.74559 0.00055 0.0
C1132 C 0.95909 0.71785 0.04192 0.0
C1133 C 0.97515 0.69339 0.02018 0.0
loop_
_geom_bond_atom_site_label_1
_geom_bond_atom_site_label_2
_geom_bond_distance
_geom_bond_site_symmetry_2
_ccdc_geom_bond_type
Co0 N5 2.057 . S
Co0 O17 2.021 . S
Co0 O20 2.062 . S
Co0 O24 2.117 . S
Co0 O25 2.020 1_554 S
C1 O21 1.259 1_556 S
C1 O24 1.257 1_556 S
Co2 N11 2.057 . S
Co2 O18 2.117 . S
Co2 O19 2.020 . S
Co2 O21 2.021 . S
Co2 O26 2.062 1_554 S
C3 N5 1.316 . S
C3 N6 1.347 . S
C3 H8 0.931 . S
C4 N5 1.375 . S
C4 C7 1.350 . S
C4 H9 0.930 1_554 S
N5 Co0 2.057 . S
N5 C3 1.316 . S
N5 C4 1.375 . S
N6 C3 1.347 . S
N6 C7 1.373 . S
C7 C4 1.350 . S
C7 N6 1.373 . S
C7 H28 0.931 . S
H8 C3 0.931 . S
H9 C4 0.930 1_556 S
C10 O17 1.259 . S
C10 O18 1.258 . S
N11 Co2 2.057 . S
N11 C12 1.316 1_554 S
N11 C13 1.375 . S
C12 N11 1.316 1_556 S
C12 N14 1.347 . S
C12 H23 0.931 . S
C13 N11 1.375 . S
C13 C15 1.350 1_554 S
C13 H22 0.930 . S
N14 C12 1.347 . S
N14 C15 1.373 . S
C15 C13 1.350 1_556 S
C15 N14 1.373 . S
C15 H29 0.931 . S
C16 O19 1.256 . S
C16 O20 1.255 . S
O17 Co0 2.021 . S
O17 C10 1.259 . S
O18 Co2 2.117 . S
O18 C10 1.258 . S
O19 Co2 2.020 . S
O19 C16 1.256 . S
O20 Co0 2.062 . S
O20 C16 1.255 . S
O21 C1 1.259 1_554 S
O21 Co2 2.021 . S
H22 C13 0.930 . S
H23 C12 0.931 . S
O24 Co0 2.117 . S
O24 C1 1.257 1_554 S
O25 Co0 2.020 1_556 S
O25 C27 1.256 . S
O26 Co2 2.062 1_556 S
O26 C27 1.255 . S
C27 O25 1.256 . S
C27 O26 1.255 . S
H28 C7 0.931 . S
H29 C15 0.931 . S
Co30 N35 2.057 . S
Co30 O47 2.021 . S
Co30 O50 2.062 . S
Co30 O54 2.117 . S
Co30 O55 2.020 1_554 S
C31 O51 1.259 1_556 S
C31 O54 1.257 1_556 S
Co32 N41 2.057 . S
Co32 O48 2.117 . S
Co32 O49 2.020 . S
Co32 O51 2.021 . S
Co32 O56 2.062 1_554 S
C33 N35 1.316 . S
C33 N36 1.347 . S
C33 H38 0.931 . S
C34 N35 1.375 . S
C34 C37 1.350 . S
C34 H39 0.930 1_554 S
N35 Co30 2.057 . S
N35 C33 1.316 . S
N35 C34 1.375 . S
N36 C33 1.347 . S
N36 C37 1.373 . S
C37 C34 1.350 . S
C37 N36 1.373 . S
C37 H58 0.931 . S
H38 C33 0.931 . S
H39 C34 0.930 1_556 S
C40 O47 1.259 . S
C40 O48 1.258 . S
N41 Co32 2.057 . S
N41 C42 1.316 1_554 S
N41 C43 1.375 . S
C42 N41 1.316 1_556 S
C42 N44 1.347 . S
C42 H53 0.931 . S
C43 N41 1.375 . S
C43 C45 1.350 1_554 S
C43 H52 0.930 . S
N44 C42 1.347 . S
N44 C45 1.373 . S
C45 C43 1.350 1_556 S
C45 N44 1.373 . S
C45 H59 0.931 . S
C46 O49 1.256 . S
C46 O50 1.255 . S
O47 Co30 2.021 . S
O47 C40 1.259 . S
O48 Co32 2.117 . S
O48 C40 1.258 . S
O49 Co32 2.020 . S
O49 C46 1.256 . S
O50 Co30 2.062 . S
O50 C46 1.255 . S
O51 C31 1.259 1_554 S
O51 Co32 2.021 . S
H52 C43 0.930 . S
H53 C42 0.931 . S
O54 Co30 2.117 . S
O54 C31 1.257 1_554 S
O55 Co30 2.020 1_556 S
O55 C57 1.256 . S
O56 Co32 2.062 1_556 S
O56 C57 1.255 . S
C57 O55 1.256 . S
C57 O56 1.255 . S
H58 C37 0.931 . S
H59 C45 0.931 . S
Co60 N65 2.057 . S
Co60 O77 2.021 . S
Co60 O80 2.062 . S
Co60 O84 2.117 . S
Co60 O85 2.020 1_554 S
C61 O81 1.259 1_556 S
C61 O84 1.257 1_556 S
Co62 N71 2.057 . S
Co62 O78 2.117 . S
Co62 O79 2.020 . S
Co62 O81 2.021 . S
Co62 O86 2.062 1_554 S
C63 N65 1.316 . S
C63 N66 1.347 . S
C63 H68 0.931 . S
C64 N65 1.375 . S
C64 C67 1.350 . S
C64 H69 0.930 1_554 S
N65 Co60 2.057 . S
N65 C63 1.316 . S
N65 C64 1.375 . S
N66 C63 1.347 . S
N66 C67 1.373 . S
C67 C64 1.350 . S
C67 N66 1.373 . S
C67 H88 0.931 . S
H68 C63 0.931 . S
H69 C64 0.930 1_556 S
C70 O77 1.259 . S
C70 O78 1.258 . S
N71 Co62 2.057 . S
N71 C72 1.316 1_554 S
N71 C73 1.375 . S
C72 N71 1.316 1_556 S
C72 N74 1.347 . S
C72 H83 0.931 . S
C73 N71 1.375 . S
C73 C75 1.350 1_554 S
C73 H82 0.930 . S
N74 C72 1.347 . S
N74 C75 1.373 . S
C75 C73 1.350 1_556 S
C75 N74 1.373 . S
C75 H89 0.931 . S
C76 O79 1.256 . S
C76 O80 1.255 . S
O77 Co60 2.021 . S
O77 C70 1.259 . S
O78 Co62 2.117 . S
O78 C70 1.258 . S
O79 Co62 2.020 . S
O79 C76 1.256 . S
O80 Co60 2.062 . S
O80 C76 1.255 . S
O81 C61 1.259 1_554 S
O81 Co62 2.021 . S
H82 C73 0.930 . S
H83 C72 0.931 . S
O84 Co60 2.117 . S
O84 C61 1.257 1_554 S
O85 Co60 2.020 1_556 S
O85 C87 1.256 . S
O86 Co62 2.062 1_556 S
O86 C87 1.255 . S
C87 O85 1.256 . S
C87 O86 1.255 . S
H88 C67 0.931 . S
H89 C75 0.931 . S
Co90 N95 2.057 . S
Co90 O107 2.021 . S
Co90 O110 2.062 . S
Co90 O114 2.117 . S
Co90 O115 2.020 . S
C91 O111 1.259 . S
C91 O114 1.258 . S
Co92 N101 2.057 . S
Co92 O108 2.117 . S
Co92 O109 2.020 . S
Co92 O111 2.021 . S
Co92 O116 2.062 . S
C93 N95 1.316 . S
C93 N96 1.347 . S
C93 H98 0.931 . S
C94 N95 1.375 . S
C94 C97 1.350 . S
C94 H99 0.930 . S
N95 Co90 2.057 . S
N95 C93 1.316 . S
N95 C94 1.375 . S
N96 C93 1.347 . S
N96 C97 1.373 . S
C97 C94 1.350 . S
C97 N96 1.373 . S
C97 H118 0.931 . S
H98 C93 0.931 . S
H99 C94 0.930 . S
C100 O107 1.259 . S
C100 O108 1.258 . S
N101 Co92 2.057 . S
N101 C102 1.316 . S
N101 C103 1.375 . S
C102 N101 1.316 . S
C102 N104 1.347 . S
C102 H113 0.931 . S
C103 N101 1.375 . S
C103 C105 1.350 . S
C103 H112 0.930 . S
N104 C102 1.347 . S
N104 C105 1.373 . S
C105 C103 1.350 . S
C105 N104 1.373 . S
C105 H119 0.931 . S
C106 O109 1.256 . S
C106 O110 1.255 . S
O107 Co90 2.021 . S
O107 C100 1.259 . S
O108 Co92 2.117 . S
O108 C100 1.258 . S
O109 Co92 2.020 . S
O109 C106 1.256 . S
O110 Co90 2.062 . S
O110 C106 1.255 . S
O111 C91 1.259 . S
O111 Co92 2.021 . S
H112 C103 0.930 . S
H113 C102 0.931 . S
O114 Co90 2.117 . S
O114 C91 1.258 . S
O115 Co90 2.020 . S
O115 C117 1.256 . S
O116 Co92 2.062 . S
O116 C117 1.255 . S
C117 O115 1.256 . S
C117 O116 1.255 . S
H118 C97 0.931 . S
H119 C105 0.931 . S
Co120 N125 2.057 . S
Co120 O137 2.021 . S
Co120 O140 2.062 . S
Co120 O144 2.117 . S
Co120 O145 2.020 . S
C121 O141 1.259 . S
C121 O144 1.258 . S
Co122 N131 2.057 . S
Co122 O138 2.117 . S
Co122 O139 2.020 . S
Co122 O141 2.021 . S
Co122 O146 2.062 . S
C123 N125 1.316 . S
C123 N126 1.347 . S
C123 H128 0.931 . S
C124 N125 1.375 . S
C124 C127 1.350 . S
C124 H129 0.930 . S
N125 Co120 2.057 . S
N125 C123 1.316 . S
N125 C124 1.375 . S
N126 C123 1.347 . S
N126 C127 1.373 . S
C127 C124 1.350 . S
C127 N126 1.373 . S
C127 H148 0.931 . S
H128 C123 0.931 . S
H129 C124 0.930 . S
C130 O137 1.259 . S
C130 O138 1.258 . S
N131 Co122 2.057 . S
N131 C132 1.316 . S
N131 C133 1.375 . S
C132 N131 1.316 . S
C132 N134 1.347 . S
C132 H143 0.931 . S
C133 N131 1.375 . S
C133 C135 1.350 . S
C133 H142 0.930 . S
N134 C132 1.347 . S
N134 C135 1.373 . S
C135 C133 1.350 . S
C135 N134 1.373 . S
C135 H149 0.931 . S
C136 O139 1.256 . S
C136 O140 1.255 . S
O137 Co120 2.021 . S
O137 C130 1.259 . S
O138 Co122 2.117 . S
O138 C130 1.258 . S
O139 Co122 2.020 . S
O139 C136 1.256 . S
O140 Co120 2.062 . S
O140 C136 1.255 . S
O141 C121 1.259 . S
O141 Co122 2.021 . S
H142 C133 0.930 . S
H143 C132 0.931 . S
O144 Co120 2.117 . S
O144 C121 1.258 . S
O145 Co120 2.020 . S
O145 C147 1.256 . S
O146 Co122 2.062 . S
O146 C147 1.255 . S
C147 O145 1.256 . S
C147 O146 1.255 . S
H148 C127 0.931 . S
H149 C135 0.931 . S
Co150 N155 2.057 . S
Co150 O167 2.021 . S
Co150 O170 2.062 . S
Co150 O174 2.117 . S
Co150 O175 2.020 . S
C151 O171 1.259 . S
C151 O174 1.258 . S
Co152 N161 2.057 . S
Co152 O168 2.117 . S
Co152 O169 2.020 . S
Co152 O171 2.021 . S
Co152 O176 2.062 . S
C153 N155 1.316 . S
C153 N156 1.347 . S
C153 H158 0.931 . S
C154 N155 1.375 . S
C154 C157 1.350 . S
C154 H159 0.930 . S
N155 Co150 2.057 . S
N155 C153 1.316 . S
N155 C154 1.375 . S
N156 C153 1.347 . S
N156 C157 1.373 . S
C157 C154 1.350 . S
C157 N156 1.373 . S
C157 H178 0.931 . S
H158 C153 0.931 . S
H159 C154 0.930 . S
C160 O167 1.259 . S
C160 O168 1.258 . S
N161 Co152 2.057 . S
N161 C162 1.316 . S
N161 C163 1.375 . S
C162 N161 1.316 . S
C162 N164 1.347 . S
C162 H173 0.931 . S
C163 N161 1.375 . S
C163 C165 1.350 . S
C163 H172 0.930 . S
N164 C162 1.347 . S
N164 C165 1.373 . S
C165 C163 1.350 . S
C165 N164 1.373 . S
C165 H179 0.931 . S
C166 O169 1.256 . S
C166 O170 1.255 . S
O167 Co150 2.021 . S
O167 C160 1.259 . S
O168 Co152 2.117 . S
O168 C160 1.258 . S
O169 Co152 2.020 . S
O169 C166 1.256 . S
O170 Co150 2.062 . S
O170 C166 1.255 . S
O171 C151 1.259 . S
O171 Co152 2.021 . S
H172 C163 0.930 . S
H173 C162 0.931 . S
O174 Co150 2.117 . S
O174 C151 1.258 . S
O175 Co150 2.020 . S
O175 C177 1.256 . S
O176 Co152 2.062 . S
O176 C177 1.255 . S
C177 O175 1.256 . S
C177 O176 1.255 . S
H178 C157 0.931 . S
H179 C165 0.931 . S
Co180 N185 2.057 . S
Co180 O197 2.021 . S
Co180 O200 2.062 . S
Co180 O204 2.117 . S
Co180 O205 2.020 . S
C181 O201 1.259 . S
C181 O204 1.258 . S
Co182 N191 2.057 . S
Co182 O198 2.117 . S
Co182 O199 2.020 . S
Co182 O201 2.021 . S
Co182 O206 2.062 . S
C183 N185 1.316 . S
C183 N186 1.347 . S
C183 H188 0.931 . S
C184 N185 1.375 . S
C184 C187 1.350 . S
C184 H189 0.930 . S
N185 Co180 2.057 . S
N185 C183 1.316 . S
N185 C184 1.375 . S
N186 C183 1.347 . S
N186 C187 1.373 . S
C187 C184 1.350 . S
C187 N186 1.373 . S
C187 H208 0.931 . S
H188 C183 0.931 . S
H189 C184 0.930 . S
C190 O197 1.259 . S
C190 O198 1.258 . S
N191 Co182 2.057 . S
N191 C192 1.316 . S
N191 C193 1.375 . S
C192 N191 1.316 . S
C192 N194 1.347 . S
C192 H203 0.931 . S
C193 N191 1.375 . S
C193 C195 1.350 . S
C193 H202 0.930 . S
N194 C192 1.347 . S
N194 C195 1.373 . S
C195 C193 1.350 . S
C195 N194 1.373 . S
C195 H209 0.931 . S
C196 O199 1.256 . S
C196 O200 1.255 . S
O197 Co180 2.021 . S
O197 C190 1.259 . S
O198 Co182 2.117 . S
O198 C190 1.258 . S
O199 Co182 2.020 . S
O199 C196 1.256 . S
O200 Co180 2.062 . S
O200 C196 1.255 . S
O201 C181 1.259 . S
O201 Co182 2.021 . S
H202 C193 0.930 . S
H203 C192 0.931 . S
O204 Co180 2.117 . S
O204 C181 1.258 . S
O205 Co180 2.020 . S
O205 C207 1.256 . S
O206 Co182 2.062 . S
O206 C207 1.255 . S
C207 O205 1.256 . S
C207 O206 1.255 . S
H208 C187 0.931 . S
H209 C195 0.931 . S
Co210 N215 2.057 . S
Co210 O227 2.021 . S
Co210 O230 2.062 . S
Co210 O234 2.117 . S
Co210 O235 2.020 . S
C211 O231 1.259 . S
C211 O234 1.258 . S
Co212 N221 2.057 . S
Co212 O228 2.117 . S
Co212 O229 2.020 . S
Co212 O231 2.021 . S
Co212 O236 2.062 . S
C213 N215 1.316 . S
C213 N216 1.347 . S
C213 H218 0.931 . S
C214 N215 1.375 . S
C214 C217 1.350 . S
C214 H219 0.930 . S
N215 Co210 2.057 . S
N215 C213 1.316 . S
N215 C214 1.375 . S
N216 C213 1.347 . S
N216 C217 1.373 . S
C217 C214 1.350 . S
C217 N216 1.373 . S
C217 H238 0.931 . S
H218 C213 0.931 . S
H219 C214 0.930 . S
C220 O227 1.259 . S
C220 O228 1.258 . S
N221 Co212 2.057 . S
N221 C222 1.316 . S
N221 C223 1.375 . S
C222 N221 1.316 . S
C222 N224 1.347 . S
C222 H233 0.931 . S
C223 N221 1.375 . S
C223 C225 1.350 . S
C223 H232 0.930 . S
N224 C222 1.347 . S
N224 C225 1.373 . S
C225 C223 1.350 . S
C225 N224 1.373 . S
C225 H239 0.931 . S
C226 O229 1.256 . S
C226 O230 1.255 . S
O227 Co210 2.021 . S
O227 C220 1.259 . S
O228 Co212 2.117 . S
O228 C220 1.258 . S
O229 Co212 2.020 . S
O229 C226 1.256 . S
O230 Co210 2.062 . S
O230 C226 1.255 . S
O231 C211 1.259 . S
O231 Co212 2.021 . S
H232 C223 0.930 . S
H233 C222 0.931 . S
O234 Co210 2.117 . S
O234 C211 1.258 . S
O235 Co210 2.020 . S
O235 C237 1.256 . S
O236 Co212 2.062 . S
O236 C237 1.255 . S
C237 O235 1.256 . S
C237 O236 1.255 . S
H238 C217 0.931 . S
H239 C225 0.931 . S
Co240 N245 2.057 . S
Co240 O257 2.021 . S
Co240 O260 2.062 . S
Co240 O264 2.117 . S
Co240 O265 2.020 . S
C241 O261 1.259 . S
C241 O264 1.258 . S
Co242 N251 2.057 . S
Co242 O258 2.117 . S
Co242 O259 2.020 . S
Co242 O261 2.021 . S
Co242 O266 2.062 . S
C243 N245 1.316 . S
C243 N246 1.347 . S
C243 H248 0.931 . S
C244 N245 1.375 . S
C244 C247 1.350 . S
C244 H249 0.930 . S
N245 Co240 2.057 . S
N245 C243 1.316 . S
N245 C244 1.375 . S
N246 C243 1.347 . S
N246 C247 1.373 . S
C247 C244 1.350 . S
C247 N246 1.373 . S
C247 H268 0.931 . S
H248 C243 0.931 . S
H249 C244 0.930 . S
C250 O257 1.259 . S
C250 O258 1.258 . S
N251 Co242 2.057 . S
N251 C252 1.316 . S
N251 C253 1.375 . S
C252 N251 1.316 . S
C252 N254 1.347 . S
C252 H263 0.931 . S
C253 N251 1.375 . S
C253 C255 1.350 . S
C253 H262 0.930 . S
N254 C252 1.347 . S
N254 C255 1.373 . S
C255 C253 1.350 . S
C255 N254 1.373 . S
C255 H269 0.931 . S
C256 O259 1.256 . S
C256 O260 1.255 . S
O257 Co240 2.021 . S
O257 C250 1.259 . S
O258 Co242 2.117 . S
O258 C250 1.258 . S
O259 Co242 2.020 . S
O259 C256 1.256 . S
O260 Co240 2.062 . S
O260 C256 1.255 . S
O261 C241 1.259 . S
O261 Co242 2.021 . S
H262 C253 0.930 . S
H263 C252 0.931 . S
O264 Co240 2.117 . S
O264 C241 1.258 . S
O265 Co240 2.020 . S
O265 C267 1.256 . S
O266 Co242 2.062 . S
O266 C267 1.255 . S
C267 O265 1.256 . S
C267 O266 1.255 . S
H268 C247 0.931 . S
H269 C255 0.931 . S
Co270 N275 2.057 . S
Co270 O287 2.021 . S
Co270 O290 2.062 . S
Co270 O294 2.117 . S
Co270 O295 2.020 . S
C271 O291 1.259 . S
C271 O294 1.258 . S
Co272 N281 2.057 . S
Co272 O288 2.117 . S
Co272 O289 2.020 . S
Co272 O291 2.021 . S
Co272 O296 2.062 . S
C273 N275 1.316 . S
C273 N276 1.347 . S
C273 H278 0.931 . S
C274 N275 1.375 . S
C274 C277 1.350 . S
C274 H279 0.930 . S
N275 Co270 2.057 . S
N275 C273 1.316 . S
N275 C274 1.375 . S
N276 C273 1.347 . S
N276 C277 1.373 . S
C277 C274 1.350 . S
C277 N276 1.373 . S
C277 H298 0.931 . S
H278 C273 0.931 . S
H279 C274 0.930 . S
C280 O287 1.259 . S
C280 O288 1.258 . S
N281 Co272 2.057 . S
N281 C282 1.316 . S
N281 C283 1.375 . S
C282 N281 1.316 . S
C282 N284 1.347 . S
C282 H293 0.931 . S
C283 N281 1.375 . S
C283 C285 1.350 . S
C283 H292 0.930 . S
N284 C282 1.347 . S
N284 C285 1.373 . S
C285 C283 1.350 . S
C285 N284 1.373 . S
C285 H299 0.931 . S
C286 O289 1.256 . S
C286 O290 1.255 . S
O287 Co270 2.021 . S
O287 C280 1.259 . S
O288 Co272 2.117 . S
O288 C280 1.258 . S
O289 Co272 2.020 . S
O289 C286 1.256 . S
O290 Co270 2.062 . S
O290 C286 1.255 . S
O291 C271 1.259 . S
O291 Co272 2.021 . S
H292 C283 0.930 . S
H293 C282 0.931 . S
O294 Co270 2.117 . S
O294 C271 1.258 . S
O295 Co270 2.020 . S
O295 C297 1.256 . S
O296 Co272 2.062 . S
O296 C297 1.255 . S
C297 O295 1.256 . S
C297 O296 1.255 . S
H298 C277 0.931 . S
H299 C285 0.931 . S
Co300 N305 2.057 . S
Co300 O317 2.021 . S
Co300 O320 2.062 . S
Co300 O324 2.117 . S
Co300 O325 2.020 . S
C301 O321 1.259 . S
C301 O324 1.258 . S
Co302 N311 2.057 . S
Co302 O318 2.117 . S
Co302 O319 2.020 . S
Co302 O321 2.021 . S
Co302 O326 2.062 . S
C303 N305 1.316 . S
C303 N306 1.347 . S
C303 H308 0.931 . S
C304 N305 1.375 . S
C304 C307 1.350 . S
C304 H309 0.930 . S
N305 Co300 2.057 . S
N305 C303 1.316 . S
N305 C304 1.375 . S
N306 C303 1.347 . S
N306 C307 1.373 . S
C307 C304 1.350 . S
C307 N306 1.373 . S
C307 H328 0.931 . S
H308 C303 0.931 . S
H309 C304 0.930 . S
C310 O317 1.259 . S
C310 O318 1.258 . S
N311 Co302 2.057 . S
N311 C312 1.316 . S
N311 C313 1.375 . S
C312 N311 1.316 . S
C312 N314 1.347 . S
C312 H323 0.931 . S
C313 N311 1.375 . S
C313 C315 1.350 . S
C313 H322 0.930 . S
N314 C312 1.347 . S
N314 C315 1.373 . S
C315 C313 1.350 . S
C315 N314 1.373 . S
C315 H329 0.931 . S
C316 O319 1.256 . S
C316 O320 1.255 . S
O317 Co300 2.021 . S
O317 C310 1.259 . S
O318 Co302 2.117 . S
O318 C310 1.258 . S
O319 Co302 2.020 . S
O319 C316 1.256 . S
O320 Co300 2.062 . S
O320 C316 1.255 . S
O321 C301 1.259 . S
O321 Co302 2.021 . S
H322 C313 0.930 . S
H323 C312 0.931 . S
O324 Co300 2.117 . S
O324 C301 1.258 . S
O325 Co300 2.020 . S
O325 C327 1.256 . S
O326 Co302 2.062 . S
O326 C327 1.255 . S
C327 O325 1.256 . S
C327 O326 1.255 . S
H328 C307 0.931 . S
H329 C315 0.931 . S
Co330 N335 2.057 . S
Co330 O347 2.021 . S
Co330 O350 2.062 . S
Co330 O354 2.117 . S
Co330 O355 2.020 . S
C331 O351 1.259 . S
C331 O354 1.258 . S
Co332 N341 2.057 . S
Co332 O348 2.117 . S
Co332 O349 2.020 . S
Co332 O351 2.021 . S
Co332 O356 2.062 . S
C333 N335 1.316 . S
C333 N336 1.347 . S
C333 H338 0.931 . S
C334 N335 1.375 . S
C334 C337 1.350 . S
C334 H339 0.930 . S
N335 Co330 2.057 . S
N335 C333 1.316 . S
N335 C334 1.375 . S
N336 C333 1.347 . S
N336 C337 1.373 . S
C337 C334 1.350 . S
C337 N336 1.373 . S
C337 H358 0.931 . S
H338 C333 0.931 . S
H339 C334 0.930 . S
C340 O347 1.259 . S
C340 O348 1.258 . S
N341 Co332 2.057 . S
N341 C342 1.316 . S
N341 C343 1.375 . S
C342 N341 1.316 . S
C342 N344 1.347 . S
C342 H353 0.931 . S
C343 N341 1.375 . S
C343 C345 1.350 . S
C343 H352 0.930 . S
N344 C342 1.347 . S
N344 C345 1.373 . S
C345 C343 1.350 . S
C345 N344 1.373 . S
C345 H359 0.931 . S
C346 O349 1.256 . S
C346 O350 1.255 . S
O347 Co330 2.021 . S
O347 C340 1.259 . S
O348 Co332 2.117 . S
O348 C340 1.258 . S
O349 Co332 2.020 . S
O349 C346 1.256 . S
O350 Co330 2.062 . S
O350 C346 1.255 . S
O351 C331 1.259 . S
O351 Co332 2.021 . S
H352 C343 0.930 . S
H353 C342 0.931 . S
O354 Co330 2.117 . S
O354 C331 1.258 . S
O355 Co330 2.020 . S
O355 C357 1.256 . S
O356 Co332 2.062 . S
O356 C357 1.255 . S
C357 O355 1.256 . S
C357 O356 1.255 . S
H358 C337 0.931 . S
H359 C345 0.931 . S
Co360 N365 2.057 . S
Co360 O377 2.021 1_655 S
Co360 O380 2.062 . S
Co360 O384 2.117 . S
Co360 O385 2.020 . S
C361 O381 1.259 . S
C361 O384 1.258 . S
Co362 N371 2.057 . S
Co362 O378 2.117 . S
Co362 O379 2.020 . S
Co362 O381 2.021 . S
Co362 O386 2.062 . S
C363 N365 1.316 1_455 S
C363 N366 1.347 . S
C363 H368 0.931 . S
C364 N365 1.375 . S
C364 C367 1.350 . S
C364 H369 0.930 . S
N365 Co360 2.057 . S
N365 C363 1.316 1_655 S
N365 C364 1.375 . S
N366 C363 1.347 . S
N366 C367 1.373 1_455 S
C367 C364 1.350 . S
C367 N366 1.373 1_655 S
C367 H388 0.931 . S
H368 C363 0.931 . S
H369 C364 0.930 . S
C370 O377 1.259 1_655 S
C370 O378 1.258 . S
N371 Co362 2.057 . S
N371 C372 1.316 . S
N371 C373 1.375 . S
C372 N371 1.316 . S
C372 N374 1.347 . S
C372 H383 0.931 . S
C373 N371 1.375 . S
C373 C375 1.350 . S
C373 H382 0.930 . S
N374 C372 1.347 . S
N374 C375 1.373 . S
C375 C373 1.350 . S
C375 N374 1.373 . S
C375 H389 0.931 . S
C376 O379 1.256 . S
C376 O380 1.255 . S
O377 Co360 2.021 1_455 S
O377 C370 1.259 1_455 S
O378 Co362 2.117 . S
O378 C370 1.258 . S
O379 Co362 2.020 . S
O379 C376 1.256 . S
O380 Co360 2.062 . S
O380 C376 1.255 . S
O381 C361 1.259 . S
O381 Co362 2.021 . S
H382 C373 0.930 . S
H383 C372 0.931 . S
O384 Co360 2.117 . S
O384 C361 1.258 . S
O385 Co360 2.020 . S
O385 C387 1.256 . S
O386 Co362 2.062 . S
O386 C387 1.255 . S
C387 O385 1.256 . S
C387 O386 1.255 . S
H388 C367 0.931 . S
H389 C375 0.931 . S
Co390 N395 2.057 . S
Co390 O407 2.021 . S
Co390 O410 2.062 . S
Co390 O414 2.117 . S
Co390 O415 2.020 . S
C391 O411 1.259 . S
C391 O414 1.258 . S
Co392 N401 2.057 . S
Co392 O408 2.117 . S
Co392 O409 2.020 . S
Co392 O411 2.021 . S
Co392 O416 2.062 . S
C393 N395 1.316 . S
C393 N396 1.347 . S
C393 H398 0.931 . S
C394 N395 1.375 . S
C394 C397 1.350 . S
C394 H399 0.930 . S
N395 Co390 2.057 . S
N395 C393 1.316 . S
N395 C394 1.375 . S
N396 C393 1.347 . S
N396 C397 1.373 . S
C397 C394 1.350 . S
C397 N396 1.373 . S
C397 H418 0.931 . S
H398 C393 0.931 . S
H399 C394 0.930 . S
C400 O407 1.259 . S
C400 O408 1.258 . S
N401 Co392 2.057 . S
N401 C402 1.316 . S
N401 C403 1.375 . S
C402 N401 1.316 . S
C402 N404 1.347 1_545 S
C402 H413 0.931 . S
C403 N401 1.375 . S
C403 C405 1.350 1_545 S
C403 H412 0.930 . S
N404 C402 1.347 1_565 S
N404 C405 1.373 . S
C405 C403 1.350 1_565 S
C405 N404 1.373 . S
C405 H419 0.931 . S
C406 O409 1.256 . S
C406 O410 1.255 . S
O407 Co390 2.021 . S
O407 C400 1.259 . S
O408 Co392 2.117 . S
O408 C400 1.258 . S
O409 Co392 2.020 . S
O409 C406 1.256 . S
O410 Co390 2.062 . S
O410 C406 1.255 . S
O411 C391 1.259 . S
O411 Co392 2.021 . S
H412 C403 0.930 . S
H413 C402 0.931 . S
O414 Co390 2.117 . S
O414 C391 1.258 . S
O415 Co390 2.020 . S
O415 C417 1.256 . S
O416 Co392 2.062 . S
O416 C417 1.255 . S
C417 O415 1.256 . S
C417 O416 1.255 . S
H418 C397 0.931 . S
H419 C405 0.931 . S
Co420 N425 2.057 . S
Co420 O437 2.021 1_545 S
Co420 O440 2.062 . S
Co420 O444 2.117 . S
Co420 O445 2.020 . S
C421 O441 1.259 . S
C421 O444 1.258 . S
Co422 N431 2.057 . S
Co422 O438 2.117 . S
Co422 O439 2.020 . S
Co422 O441 2.021 . S
Co422 O446 2.062 . S
C423 N425 1.316 1_565 S
C423 N426 1.347 . S
C423 H428 0.931 . S
C424 N425 1.375 . S
C424 C427 1.350 . S
C424 H429 0.930 . S
N425 Co420 2.057 . S
N425 C423 1.316 1_545 S
N425 C424 1.375 . S
N426 C423 1.347 . S
N426 C427 1.373 1_565 S
C427 C424 1.350 . S
C427 N426 1.373 1_545 S
C427 H448 0.931 . S
H428 C423 0.931 . S
H429 C424 0.930 . S
C430 O437 1.259 1_545 S
C430 O438 1.258 . S
N431 Co422 2.057 . S
N431 C432 1.316 . S
N431 C433 1.375 . S
C432 N431 1.316 . S
C432 N434 1.347 1_655 S
C432 H443 0.931 . S
C433 N431 1.375 . S
C433 C435 1.350 1_655 S
C433 H442 0.930 . S
N434 C432 1.347 1_455 S
N434 C435 1.373 . S
C435 C433 1.350 1_455 S
C435 N434 1.373 . S
C435 H449 0.931 . S
C436 O439 1.256 . S
C436 O440 1.255 . S
O437 Co420 2.021 1_565 S
O437 C430 1.259 1_565 S
O438 Co422 2.117 . S
O438 C430 1.258 . S
O439 Co422 2.020 . S
O439 C436 1.256 . S
O440 Co420 2.062 . S
O440 C436 1.255 . S
O441 C421 1.259 . S
O441 Co422 2.021 . S
H442 C433 0.930 . S
H443 C432 0.931 . S
O444 Co420 2.117 . S
O444 C421 1.258 . S
O445 Co420 2.020 . S
O445 C447 1.256 . S
O446 Co422 2.062 . S
O446 C447 1.255 . S
C447 O445 1.256 . S
C447 O446 1.255 . S
H448 C427 0.931 . S
H449 C435 0.931 . S
Co450 N455 2.057 . S
Co450 O467 2.021 . S
Co450 O470 2.062 . S
Co450 O474 2.117 . S
Co450 O475 2.020 . S
C451 O471 1.259 1_545 S
C451 O474 1.258 . S
Co452 N461 2.057 . S
Co452 O468 2.117 . S
Co452 O469 2.020 . S
Co452 O471 2.021 1_545 S
Co452 O476 2.062 . S
C453 N455 1.316 . S
C453 N456 1.347 . S
C453 H458 0.931 . S
C454 N455 1.375 . S
C454 C457 1.350 . S
C454 H459 0.930 . S
N455 Co450 2.057 . S
N455 C453 1.316 . S
N455 C454 1.375 . S
N456 C453 1.347 . S
N456 C457 1.373 . S
C457 C454 1.350 . S
C457 N456 1.373 . S
C457 H478 0.931 . S
H458 C453 0.931 . S
H459 C454 0.930 . S
C460 O467 1.259 . S
C460 O468 1.258 . S
N461 Co452 2.057 . S
N461 C462 1.316 1_545 S
N461 C463 1.375 . S
C462 N461 1.316 1_565 S
C462 N464 1.347 . S
C462 H473 0.931 . S
C463 N461 1.375 . S
C463 C465 1.350 . S
C463 H472 0.930 . S
N464 C462 1.347 . S
N464 C465 1.373 1_565 S
C465 C463 1.350 . S
C465 N464 1.373 1_545 S
C465 H479 0.931 . S
C466 O469 1.256 . S
C466 O470 1.255 . S
O467 Co450 2.021 . S
O467 C460 1.259 . S
O468 Co452 2.117 . S
O468 C460 1.258 . S
O469 Co452 2.020 . S
O469 C466 1.256 . S
O470 Co450 2.062 . S
O470 C466 1.255 . S
O471 C451 1.259 1_565 S
O471 Co452 2.021 1_565 S
H472 C463 0.930 . S
H473 C462 0.931 . S
O474 Co450 2.117 . S
O474 C451 1.258 . S
O475 Co450 2.020 . S
O475 C477 1.256 . S
O476 Co452 2.062 . S
O476 C477 1.255 . S
C477 O475 1.256 . S
C477 O476 1.255 . S
H478 C457 0.931 . S
H479 C465 0.931 . S
Co480 N485 2.057 . S
Co480 O497 2.021 . S
Co480 O500 2.062 . S
Co480 O504 2.117 . S
Co480 O505 2.020 . S
C481 O501 1.259 1_655 S
C481 O504 1.258 . S
Co482 N491 2.057 . S
Co482 O498 2.117 . S
Co482 O499 2.020 . S
Co482 O501 2.021 1_655 S
Co482 O506 2.062 . S
C483 N485 1.316 . S
C483 N486 1.347 1_545 S
C483 H488 0.931 . S
C484 N485 1.375 . S
C484 C487 1.350 1_545 S
C484 H489 0.930 . S
N485 Co480 2.057 . S
N485 C483 1.316 . S
N485 C484 1.375 . S
N486 C483 1.347 1_565 S
N486 C487 1.373 . S
C487 C484 1.350 1_565 S
C487 N486 1.373 . S
C487 H508 0.931 . S
H488 C483 0.931 . S
H489 C484 0.930 . S
C490 O497 1.259 . S
C490 O498 1.258 . S
N491 Co482 2.057 . S
N491 C492 1.316 1_655 S
N491 C493 1.375 . S
C492 N491 1.316 1_455 S
C492 N494 1.347 . S
C492 H503 0.931 . S
C493 N491 1.375 . S
C493 C495 1.350 . S
C493 H502 0.930 . S
N494 C492 1.347 . S
N494 C495 1.373 1_455 S
C495 C493 1.350 . S
C495 N494 1.373 1_655 S
C495 H509 0.931 . S
C496 O499 1.256 . S
C496 O500 1.255 . S
O497 Co480 2.021 . S
O497 C490 1.259 . S
O498 Co482 2.117 . S
O498 C490 1.258 . S
O499 Co482 2.020 . S
O499 C496 1.256 . S
O500 Co480 2.062 . S
O500 C496 1.255 . S
O501 C481 1.259 1_455 S
O501 Co482 2.021 1_455 S
H502 C493 0.930 . S
H503 C492 0.931 . S
O504 Co480 2.117 . S
O504 C481 1.258 . S
O505 Co480 2.020 . S
O505 C507 1.256 . S
O506 Co482 2.062 . S
O506 C507 1.255 . S
C507 O505 1.256 . S
C507 O506 1.255 . S
H508 C487 0.931 . S
H509 C495 0.931 . S
Co510 N515 2.057 . S
Co510 O527 2.021 . S
Co510 O530 2.062 . S
Co510 O534 2.117 . S
Co510 O535 2.020 . S
C511 O531 1.259 . S
C511 O534 1.258 . S
Co512 N521 2.057 . S
Co512 O528 2.117 . S
Co512 O529 2.020 . S
Co512 O531 2.021 . S
Co512 O536 2.062 . S
C513 N515 1.316 . S
C513 N516 1.347 1_655 S
C513 H518 0.931 . S
C514 N515 1.375 . S
C514 C517 1.350 1_655 S
C514 H519 0.930 . S
N515 Co510 2.057 . S
N515 C513 1.316 . S
N515 C514 1.375 . S
N516 C513 1.347 1_455 S
N516 C517 1.373 . S
C517 C514 1.350 1_455 S
C517 N516 1.373 . S
C517 H538 0.931 . S
H518 C513 0.931 . S
H519 C514 0.930 . S
C520 O527 1.259 . S
C520 O528 1.258 . S
N521 Co512 2.057 . S
N521 C522 1.316 . S
N521 C523 1.375 . S
C522 N521 1.316 . S
C522 N524 1.347 . S
C522 H533 0.931 . S
C523 N521 1.375 . S
C523 C525 1.350 . S
C523 H532 0.930 . S
N524 C522 1.347 . S
N524 C525 1.373 . S
C525 C523 1.350 . S
C525 N524 1.373 . S
C525 H539 0.931 . S
C526 O529 1.256 . S
C526 O530 1.255 . S
O527 Co510 2.021 . S
O527 C520 1.259 . S
O528 Co512 2.117 . S
O528 C520 1.258 . S
O529 Co512 2.020 . S
O529 C526 1.256 . S
O530 Co510 2.062 . S
O530 C526 1.255 . S
O531 C511 1.259 . S
O531 Co512 2.021 . S
H532 C523 0.930 . S
H533 C522 0.931 . S
O534 Co510 2.117 . S
O534 C511 1.258 . S
O535 Co510 2.020 . S
O535 C537 1.256 . S
O536 Co512 2.062 . S
O536 C537 1.255 . S
C537 O535 1.256 . S
C537 O536 1.255 . S
H538 C517 0.931 . S
H539 C525 0.931 . S
C540 C541 1.369 . S
C540 C542 1.419 . S
C540 H544 0.930 . S
C541 C540 1.369 . S
C541 C550 1.429 1_556 S
C542 C540 1.419 . S
C542 C543 1.363 1_556 S
C542 H545 0.929 . S
C543 C542 1.363 1_554 S
C543 C549 1.428 . S
H544 C540 0.930 . S
H545 C542 0.929 . S
S546 N547 1.613 . S
S546 N548 1.610 . S
N547 S546 1.613 . S
N547 C550 1.350 . S
N548 S546 1.610 . S
N548 C549 1.351 . S
C549 C543 1.428 . S
C549 N548 1.351 . S
C549 C550 1.434 . S
C550 C541 1.429 1_554 S
C550 N547 1.350 . S
C550 C549 1.434 . S
C551 C552 1.369 1_556 S
C551 C553 1.419 . S
C551 H555 0.930 . S
C552 C551 1.369 1_554 S
C552 C561 1.429 . S
C553 C551 1.419 . S
C553 C554 1.363 . S
C553 H556 0.929 . S
C554 C553 1.363 . S
C554 C560 1.428 1_556 S
H555 C551 0.930 . S
H556 C553 0.929 . S
S557 N558 1.613 . S
S557 N559 1.610 . S
N558 S557 1.613 . S
N558 C561 1.350 . S
N559 S557 1.610 . S
N559 C560 1.351 . S
C560 C554 1.428 1_554 S
C560 N559 1.351 . S
C560 C561 1.434 . S
C561 C552 1.429 . S
C561 N558 1.350 . S
C561 C560 1.434 . S
C562 C563 1.369 1_554 S
C562 C564 1.419 . S
C562 H566 0.930 . S
C563 C562 1.369 1_556 S
C563 C572 1.429 . S
C564 C562 1.419 . S
C564 C565 1.363 . S
C564 H567 0.929 . S
C565 C564 1.363 . S
C565 C571 1.428 1_554 S
H566 C562 0.930 . S
H567 C564 0.929 . S
S568 N569 1.613 . S
S568 N570 1.610 . S
N569 S568 1.613 . S
N569 C572 1.350 . S
N570 S568 1.610 . S
N570 C571 1.351 . S
C571 C565 1.428 1_556 S
C571 N570 1.351 . S
C571 C572 1.434 . S
C572 C563 1.429 . S
C572 N569 1.350 . S
C572 C571 1.434 . S
C573 C574 1.369 . S
C573 C575 1.419 . S
C573 H577 0.930 . S
C574 C573 1.369 . S
C574 C583 1.429 . S
C575 C573 1.419 . S
C575 C576 1.363 . S
C575 H578 0.929 . S
C576 C575 1.363 . S
C576 C582 1.428 . S
H577 C573 0.930 . S
H578 C575 0.929 . S
S579 N580 1.613 . S
S579 N581 1.610 . S
N580 S579 1.613 . S
N580 C583 1.350 . S
N581 S579 1.610 . S
N581 C582 1.351 . S
C582 C576 1.428 . S
C582 N581 1.351 . S
C582 C583 1.434 . S
C583 C574 1.429 . S
C583 N580 1.350 . S
C583 C582 1.434 . S
C584 C585 1.369 . S
C584 C586 1.419 . S
C584 H588 0.930 . S
C585 C584 1.369 . S
C585 C594 1.429 . S
C586 C584 1.419 . S
C586 C587 1.363 . S
C586 H589 0.929 . S
C587 C586 1.363 . S
C587 C593 1.428 . S
H588 C584 0.930 . S
H589 C586 0.929 . S
S590 N591 1.613 . S
S590 N592 1.610 . S
N591 S590 1.613 . S
N591 C594 1.350 . S
N592 S590 1.610 . S
N592 C593 1.351 . S
C593 C587 1.428 . S
C593 N592 1.351 . S
C593 C594 1.434 . S
C594 C585 1.429 . S
C594 N591 1.350 . S
C594 C593 1.434 . S
C595 C596 1.369 . S
C595 C597 1.419 . S
C595 H599 0.930 . S
C596 C595 1.369 . S
C596 C605 1.429 . S
C597 C595 1.419 . S
C597 C598 1.363 . S
C597 H600 0.929 . S
C598 C597 1.363 . S
C598 C604 1.428 . S
H599 C595 0.930 . S
H600 C597 0.929 . S
S601 N602 1.613 . S
S601 N603 1.610 . S
N602 S601 1.613 . S
N602 C605 1.350 . S
N603 S601 1.610 . S
N603 C604 1.351 . S
C604 C598 1.428 . S
C604 N603 1.351 . S
C604 C605 1.434 . S
C605 C596 1.429 . S
C605 N602 1.350 . S
C605 C604 1.434 . S
C606 C607 1.369 . S
C606 C608 1.419 . S
C606 H610 0.930 . S
C607 C606 1.369 . S
C607 C616 1.429 . S
C608 C606 1.419 . S
C608 C609 1.363 . S
C608 H611 0.929 . S
C609 C608 1.363 . S
C609 C615 1.428 . S
H610 C606 0.930 . S
H611 C608 0.929 . S
S612 N613 1.613 . S
S612 N614 1.610 . S
N613 S612 1.613 . S
N613 C616 1.350 . S
N614 S612 1.610 . S
N614 C615 1.351 . S
C615 C609 1.428 . S
C615 N614 1.351 . S
C615 C616 1.434 . S
C616 C607 1.429 . S
C616 N613 1.350 . S
C616 C615 1.434 . S
C617 C618 1.369 . S
C617 C619 1.419 . S
C617 H621 0.930 . S
C618 C617 1.369 . S
C618 C627 1.429 . S
C619 C617 1.419 . S
C619 C620 1.363 . S
C619 H622 0.929 . S
C620 C619 1.363 . S
C620 C626 1.428 . S
H621 C617 0.930 . S
H622 C619 0.929 . S
S623 N624 1.613 . S
S623 N625 1.610 . S
N624 S623 1.613 . S
N624 C627 1.350 . S
N625 S623 1.610 . S
N625 C626 1.351 . S
C626 C620 1.428 . S
C626 N625 1.351 . S
C626 C627 1.434 . S
C627 C618 1.429 . S
C627 N624 1.350 . S
C627 C626 1.434 . S
C628 C629 1.369 . S
C628 C630 1.419 . S
C628 H632 0.930 . S
C629 C628 1.369 . S
C629 C638 1.429 . S
C630 C628 1.419 . S
C630 C631 1.363 . S
C630 H633 0.929 . S
C631 C630 1.363 . S
C631 C637 1.428 . S
H632 C628 0.930 . S
H633 C630 0.929 . S
S634 N635 1.613 . S
S634 N636 1.610 . S
N635 S634 1.613 . S
N635 C638 1.350 . S
N636 S634 1.610 . S
N636 C637 1.351 . S
C637 C631 1.428 . S
C637 N636 1.351 . S
C637 C638 1.434 . S
C638 C629 1.429 . S
C638 N635 1.350 . S
C638 C637 1.434 . S
C639 C640 1.369 . S
C639 C641 1.419 . S
C639 H643 0.930 . S
C640 C639 1.369 . S
C640 C649 1.429 . S
C641 C639 1.419 . S
C641 C642 1.363 . S
C641 H644 0.929 . S
C642 C641 1.363 . S
C642 C648 1.428 . S
H643 C639 0.930 . S
H644 C641 0.929 . S
S645 N646 1.613 . S
S645 N647 1.610 . S
N646 S645 1.613 . S
N646 C649 1.350 . S
N647 S645 1.610 . S
N647 C648 1.351 . S
C648 C642 1.428 . S
C648 N647 1.351 . S
C648 C649 1.434 . S
C649 C640 1.429 . S
C649 N646 1.350 . S
C649 C648 1.434 . S
C650 C651 1.369 . S
C650 C652 1.419 . S
C650 H654 0.930 . S
C651 C650 1.369 . S
C651 C660 1.429 . S
C652 C650 1.419 . S
C652 C653 1.363 . S
C652 H655 0.929 . S
C653 C652 1.363 . S
C653 C659 1.428 . S
H654 C650 0.930 . S
H655 C652 0.929 . S
S656 N657 1.613 . S
S656 N658 1.610 . S
N657 S656 1.613 . S
N657 C660 1.350 . S
N658 S656 1.610 . S
N658 C659 1.351 . S
C659 C653 1.428 . S
C659 N658 1.351 . S
C659 C660 1.434 . S
C660 C651 1.429 . S
C660 N657 1.350 . S
C660 C659 1.434 . S
C661 C662 1.369 . S
C661 C663 1.419 . S
C661 H665 0.930 . S
C662 C661 1.369 . S
C662 C671 1.429 . S
C663 C661 1.419 . S
C663 C664 1.363 . S
C663 H666 0.929 . S
C664 C663 1.363 . S
C664 C670 1.428 . S
H665 C661 0.930 . S
H666 C663 0.929 . S
S667 N668 1.613 . S
S667 N669 1.610 . S
N668 S667 1.613 . S
N668 C671 1.350 . S
N669 S667 1.610 . S
N669 C670 1.351 . S
C670 C664 1.428 . S
C670 N669 1.351 . S
C670 C671 1.434 . S
C671 C662 1.429 . S
C671 N668 1.350 . S
C671 C670 1.434 . S
C672 C673 1.369 . S
C672 C674 1.419 . S
C672 H676 0.930 . S
C673 C672 1.369 . S
C673 C682 1.429 . S
C674 C672 1.419 . S
C674 C675 1.363 . S
C674 H677 0.929 . S
C675 C674 1.363 . S
C675 C681 1.428 . S
H676 C672 0.930 . S
H677 C674 0.929 . S
S678 N679 1.613 . S
S678 N680 1.610 . S
N679 S678 1.613 . S
N679 C682 1.350 . S
N680 S678 1.610 . S
N680 C681 1.351 . S
C681 C675 1.428 . S
C681 N680 1.351 . S
C681 C682 1.434 . S
C682 C673 1.429 . S
C682 N679 1.350 . S
C682 C681 1.434 . S
C683 C684 1.369 . S
C683 C685 1.419 . S
C683 H687 0.930 . S
C684 C683 1.369 . S
C684 C693 1.429 . S
C685 C683 1.419 . S
C685 C686 1.363 . S
C685 H688 0.929 . S
C686 C685 1.363 . S
C686 C692 1.428 . S
H687 C683 0.930 . S
H688 C685 0.929 . S
S689 N690 1.613 . S
S689 N691 1.610 . S
N690 S689 1.613 . S
N690 C693 1.350 . S
N691 S689 1.610 . S
N691 C692 1.351 . S
C692 C686 1.428 . S
C692 N691 1.351 . S
C692 C693 1.434 . S
C693 C684 1.429 . S
C693 N690 1.350 . S
C693 C692 1.434 . S
C694 C695 1.369 . S
C694 C696 1.419 . S
C694 H698 0.930 . S
C695 C694 1.369 . S
C695 C704 1.429 . S
C696 C694 1.419 . S
C696 C697 1.363 . S
C696 H699 0.929 . S
C697 C696 1.363 . S
C697 C703 1.428 . S
H698 C694 0.930 . S
H699 C696 0.929 . S
S700 N701 1.613 . S
S700 N702 1.610 . S
N701 S700 1.613 . S
N701 C704 1.350 . S
N702 S700 1.610 . S
N702 C703 1.351 . S
C703 C697 1.428 . S
C703 N702 1.351 . S
C703 C704 1.434 . S
C704 C695 1.429 . S
C704 N701 1.350 . S
C704 C703 1.434 . S
C705 C706 1.369 . S
C705 C707 1.419 . S
C705 H709 0.930 . S
C706 C705 1.369 . S
C706 C715 1.429 . S
C707 C705 1.419 . S
C707 C708 1.363 . S
C707 H710 0.929 . S
C708 C707 1.363 . S
C708 C714 1.428 . S
H709 C705 0.930 . S
H710 C707 0.929 . S
S711 N712 1.613 . S
S711 N713 1.610 . S
N712 S711 1.613 . S
N712 C715 1.350 . S
N713 S711 1.610 . S
N713 C714 1.351 . S
C714 C708 1.428 . S
C714 N713 1.351 . S
C714 C715 1.434 . S
C715 C706 1.429 . S
C715 N712 1.350 . S
C715 C714 1.434 . S
C716 C717 1.369 . S
C716 C718 1.419 . S
C716 H720 0.930 . S
C717 C716 1.369 . S
C717 C726 1.429 . S
C718 C716 1.419 . S
C718 C719 1.363 . S
C718 H721 0.929 . S
C719 C718 1.363 . S
C719 C725 1.428 . S
H720 C716 0.930 . S
H721 C718 0.929 . S
S722 N723 1.613 . S
S722 N724 1.610 . S
N723 S722 1.613 . S
N723 C726 1.350 . S
N724 S722 1.610 . S
N724 C725 1.351 . S
C725 C719 1.428 . S
C725 N724 1.351 . S
C725 C726 1.434 . S
C726 C717 1.429 . S
C726 N723 1.350 . S
C726 C725 1.434 . S
C727 C728 1.369 . S
C727 C729 1.419 . S
C727 H731 0.930 . S
C728 C727 1.369 . S
C728 C737 1.429 . S
C729 C727 1.419 . S
C729 C730 1.363 . S
C729 H732 0.929 . S
C730 C729 1.363 . S
C730 C736 1.428 . S
H731 C727 0.930 . S
H732 C729 0.929 . S
S733 N734 1.613 . S
S733 N735 1.610 . S
N734 S733 1.613 . S
N734 C737 1.350 . S
N735 S733 1.610 . S
N735 C736 1.351 . S
C736 C730 1.428 . S
C736 N735 1.351 . S
C736 C737 1.434 . S
C737 C728 1.429 . S
C737 N734 1.350 . S
C737 C736 1.434 . S
C738 C739 1.369 . S
C738 C740 1.419 . S
C738 H742 0.930 . S
C739 C738 1.369 . S
C739 C748 1.429 . S
C740 C738 1.419 . S
C740 C741 1.363 . S
C740 H743 0.929 . S
C741 C740 1.363 . S
C741 C747 1.428 . S
H742 C738 0.930 . S
H743 C740 0.929 . S
S744 N745 1.613 . S
S744 N746 1.610 . S
N745 S744 1.613 . S
N745 C748 1.350 . S
N746 S744 1.610 . S
N746 C747 1.351 . S
C747 C741 1.428 . S
C747 N746 1.351 . S
C747 C748 1.434 . S
C748 C739 1.429 . S
C748 N745 1.350 . S
C748 C747 1.434 . S
C749 C750 1.369 . S
C749 C751 1.419 . S
C749 H753 0.930 . S
C750 C749 1.369 . S
C750 C759 1.429 . S
C751 C749 1.419 . S
C751 C752 1.363 . S
C751 H754 0.929 . S
C752 C751 1.363 . S
C752 C758 1.428 . S
H753 C749 0.930 . S
H754 C751 0.929 . S
S755 N756 1.613 . S
S755 N757 1.610 . S
N756 S755 1.613 . S
N756 C759 1.350 . S
N757 S755 1.610 . S
N757 C758 1.351 . S
C758 C752 1.428 . S
C758 N757 1.351 . S
C758 C759 1.434 . S
C759 C750 1.429 . S
C759 N756 1.350 . S
C759 C758 1.434 . S
C760 C761 1.369 . S
C760 C762 1.419 . S
C760 H764 0.930 . S
C761 C760 1.369 . S
C761 C770 1.429 . S
C762 C760 1.419 . S
C762 C763 1.363 . S
C762 H765 0.929 . S
C763 C762 1.363 . S
C763 C769 1.428 . S
H764 C760 0.930 . S
H765 C762 0.929 . S
S766 N767 1.613 . S
S766 N768 1.610 . S
N767 S766 1.613 . S
N767 C770 1.350 . S
N768 S766 1.610 . S
N768 C769 1.351 . S
C769 C763 1.428 . S
C769 N768 1.351 . S
C769 C770 1.434 . S
C770 C761 1.429 . S
C770 N767 1.350 . S
C770 C769 1.434 . S
C771 C772 1.369 . S
C771 C773 1.419 . S
C771 H775 0.930 . S
C772 C771 1.369 . S
C772 C781 1.429 . S
C773 C771 1.419 . S
C773 C774 1.363 . S
C773 H776 0.929 . S
C774 C773 1.363 . S
C774 C780 1.428 . S
H775 C771 0.930 . S
H776 C773 0.929 . S
S777 N778 1.613 . S
S777 N779 1.610 . S
N778 S777 1.613 . S
N778 C781 1.350 . S
N779 S777 1.610 . S
N779 C780 1.351 . S
C780 C774 1.428 . S
C780 N779 1.351 . S
C780 C781 1.434 . S
C781 C772 1.429 . S
C781 N778 1.350 . S
C781 C780 1.434 . S
C782 C783 1.369 . S
C782 C784 1.419 . S
C782 H786 0.930 . S
C783 C782 1.369 . S
C783 C792 1.429 . S
C784 C782 1.419 . S
C784 C785 1.363 . S
C784 H787 0.929 . S
C785 C784 1.363 . S
C785 C791 1.428 . S
H786 C782 0.930 . S
H787 C784 0.929 . S
S788 N789 1.613 . S
S788 N790 1.610 . S
N789 S788 1.613 . S
N789 C792 1.350 . S
N790 S788 1.610 . S
N790 C791 1.351 . S
C791 C785 1.428 . S
C791 N790 1.351 . S
C791 C792 1.434 . S
C792 C783 1.429 . S
C792 N789 1.350 . S
C792 C791 1.434 . S
C793 C794 1.369 . S
C793 C795 1.419 . S
C793 H797 0.930 . S
C794 C793 1.369 . S
C794 C803 1.429 . S
C795 C793 1.419 . S
C795 C796 1.363 . S
C795 H798 0.929 . S
C796 C795 1.363 . S
C796 C802 1.428 . S
H797 C793 0.930 . S
H798 C795 0.929 . S
S799 N800 1.613 . S
S799 N801 1.610 . S
N800 S799 1.613 . S
N800 C803 1.350 . S
N801 S799 1.610 . S
N801 C802 1.351 . S
C802 C796 1.428 . S
C802 N801 1.351 . S
C802 C803 1.434 . S
C803 C794 1.429 . S
C803 N800 1.350 . S
C803 C802 1.434 . S
C804 C805 1.369 . S
C804 C806 1.419 . S
C804 H808 0.930 . S
C805 C804 1.369 . S
C805 C814 1.429 . S
C806 C804 1.419 . S
C806 C807 1.363 . S
C806 H809 0.929 . S
C807 C806 1.363 . S
C807 C813 1.428 . S
H808 C804 0.930 . S
H809 C806 0.929 . S
S810 N811 1.613 . S
S810 N812 1.610 . S
N811 S810 1.613 . S
N811 C814 1.350 . S
N812 S810 1.610 . S
N812 C813 1.351 . S
C813 C807 1.428 . S
C813 N812 1.351 . S
C813 C814 1.434 . S
C814 C805 1.429 . S
C814 N811 1.350 . S
C814 C813 1.434 . S
C815 C816 1.369 . S
C815 C817 1.419 . S
C815 H819 0.930 . S
C816 C815 1.369 . S
C816 C825 1.429 . S
C817 C815 1.419 . S
C817 C818 1.363 . S
C817 H820 0.929 . S
C818 C817 1.363 . S
C818 C824 1.428 . S
H819 C815 0.930 . S
H820 C817 0.929 . S
S821 N822 1.613 . S
S821 N823 1.610 . S
N822 S821 1.613 . S
N822 C825 1.350 . S
N823 S821 1.610 . S
N823 C824 1.351 . S
C824 C818 1.428 . S
C824 N823 1.351 . S
C824 C825 1.434 . S
C825 C816 1.429 . S
C825 N822 1.350 . S
C825 C824 1.434 . S
C826 C827 1.369 . S
C826 C828 1.419 . S
C826 H830 0.930 . S
C827 C826 1.369 . S
C827 C836 1.429 . S
C828 C826 1.419 . S
C828 C829 1.363 . S
C828 H831 0.929 . S
C829 C828 1.363 . S
C829 C835 1.428 . S
H830 C826 0.930 . S
H831 C828 0.929 . S
S832 N833 1.613 . S
S832 N834 1.610 . S
N833 S832 1.613 . S
N833 C836 1.350 . S
N834 S832 1.610 . S
N834 C835 1.351 . S
C835 C829 1.428 . S
C835 N834 1.351 . S
C835 C836 1.434 . S
C836 C827 1.429 . S
C836 N833 1.350 . S
C836 C835 1.434 . S
C837 C838 1.369 . S
C837 C839 1.419 . S
C837 H841 0.930 . S
C838 C837 1.369 . S
C838 C847 1.429 . S
C839 C837 1.419 . S
C839 C840 1.363 . S
C839 H842 0.929 . S
C840 C839 1.363 . S
C840 C846 1.428 . S
H841 C837 0.930 . S
H842 C839 0.929 . S
S843 N844 1.613 . S
S843 N845 1.610 . S
N844 S843 1.613 . S
N844 C847 1.350 . S
N845 S843 1.610 . S
N845 C846 1.351 . S
C846 C840 1.428 . S
C846 N845 1.351 . S
C846 C847 1.434 . S
C847 C838 1.429 . S
C847 N844 1.350 . S
C847 C846 1.434 . S
C848 C849 1.369 . S
C848 C850 1.419 . S
C848 H852 0.930 . S
C849 C848 1.369 . S
C849 C858 1.429 . S
C850 C848 1.419 . S
C850 C851 1.363 . S
C850 H853 0.929 . S
C851 C850 1.363 . S
C851 C857 1.428 . S
H852 C848 0.930 . S
H853 C850 0.929 . S
S854 N855 1.613 . S
S854 N856 1.610 . S
N855 S854 1.613 . S
N855 C858 1.350 . S
N856 S854 1.610 . S
N856 C857 1.351 . S
C857 C851 1.428 . S
C857 N856 1.351 . S
C857 C858 1.434 . S
C858 C849 1.429 . S
C858 N855 1.350 . S
C858 C857 1.434 . S
C859 C860 1.369 . S
C859 C861 1.419 . S
C859 H863 0.930 1_554 S
C860 C859 1.369 . S
C860 C869 1.429 . S
C861 C859 1.419 . S
C861 C862 1.363 . S
C861 H864 0.929 . S
C862 C861 1.363 . S
C862 C868 1.428 . S
H863 C859 0.930 1_556 S
H864 C861 0.929 . S
S865 N866 1.613 . S
S865 N867 1.610 . S
N866 S865 1.613 . S
N866 C869 1.350 . S
N867 S865 1.610 . S
N867 C868 1.351 . S
C868 C862 1.428 . S
C868 N867 1.351 . S
C868 C869 1.434 . S
C869 C860 1.429 . S
C869 N866 1.350 . S
C869 C868 1.434 . S
C870 C871 1.369 . S
C870 C872 1.419 . S
C870 H874 0.930 . S
C871 C870 1.369 . S
C871 C880 1.429 . S
C872 C870 1.419 . S
C872 C873 1.363 . S
C872 H875 0.929 . S
C873 C872 1.363 . S
C873 C879 1.428 . S
H874 C870 0.930 . S
H875 C872 0.929 . S
S876 N877 1.613 . S
S876 N878 1.610 1_556 S
N877 S876 1.613 . S
N877 C880 1.350 . S
N878 S876 1.610 1_554 S
N878 C879 1.351 1_554 S
C879 C873 1.428 . S
C879 N878 1.351 1_556 S
C879 C880 1.434 . S
C880 C871 1.429 . S
C880 N877 1.350 . S
C880 C879 1.434 . S
C881 C882 1.369 . S
C881 C883 1.419 . S
C881 H885 0.930 . S
C882 C881 1.369 . S
C882 C891 1.429 . S
C883 C881 1.419 . S
C883 C884 1.363 . S
C883 H886 0.929 1_556 S
C884 C883 1.363 . S
C884 C890 1.428 . S
H885 C881 0.930 . S
H886 C883 0.929 1_554 S
S887 N888 1.613 . S
S887 N889 1.610 . S
N888 S887 1.613 . S
N888 C891 1.350 . S
N889 S887 1.610 . S
N889 C890 1.351 . S
C890 C884 1.428 . S
C890 N889 1.351 . S
C890 C891 1.434 . S
C891 C882 1.429 . S
C891 N888 1.350 . S
C891 C890 1.434 . S
C892 C893 1.369 . S
C892 C894 1.419 . S
C892 H896 0.930 . S
C893 C892 1.369 . S
C893 C902 1.429 . S
C894 C892 1.419 . S
C894 C895 1.363 . S
C894 H897 0.929 1_556 S
C895 C894 1.363 . S
C895 C901 1.428 . S
H896 C892 0.930 . S
H897 C894 0.929 1_554 S
S898 N899 1.613 . S
S898 N900 1.610 . S
N899 S898 1.613 . S
N899 C902 1.350 . S
N900 S898 1.610 . S
N900 C901 1.351 . S
C901 C895 1.428 . S
C901 N900 1.351 . S
C901 C902 1.434 . S
C902 C893 1.429 . S
C902 N899 1.350 . S
C902 C901 1.434 . S
C903 C904 1.369 . S
C903 C905 1.419 . S
C903 H907 0.930 . S
C904 C903 1.369 . S
C904 C913 1.429 . S
C905 C903 1.419 . S
C905 C906 1.363 . S
C905 H908 0.929 . S
C906 C905 1.363 . S
C906 C912 1.428 . S
H907 C903 0.930 . S
H908 C905 0.929 . S
S909 N910 1.613 . S
S909 N911 1.610 . S
N910 S909 1.613 . S
N910 C913 1.350 . S
N911 S909 1.610 . S
N911 C912 1.351 . S
C912 C906 1.428 . S
C912 N911 1.351 . S
C912 C913 1.434 . S
C913 C904 1.429 . S
C913 N910 1.350 . S
C913 C912 1.434 . S
C914 C915 1.369 . S
C914 C916 1.419 . S
C914 H918 0.930 . S
C915 C914 1.369 . S
C915 C924 1.429 . S
C916 C914 1.419 . S
C916 C917 1.363 . S
C916 H919 0.929 . S
C917 C916 1.363 . S
C917 C923 1.428 . S
H918 C914 0.930 . S
H919 C916 0.929 . S
S920 N921 1.613 . S
S920 N922 1.610 . S
N921 S920 1.613 . S
N921 C924 1.350 . S
N922 S920 1.610 . S
N922 C923 1.351 . S
C923 C917 1.428 . S
C923 N922 1.351 . S
C923 C924 1.434 . S
C924 C915 1.429 . S
C924 N921 1.350 . S
C924 C923 1.434 . S
C925 C926 1.369 . S
C925 C927 1.419 . S
C925 H929 0.930 . S
C926 C925 1.369 . S
C926 C935 1.429 . S
C927 C925 1.419 . S
C927 C928 1.363 . S
C927 H930 0.929 . S
C928 C927 1.363 . S
C928 C934 1.428 . S
H929 C925 0.930 . S
H930 C927 0.929 . S
S931 N932 1.613 . S
S931 N933 1.610 . S
N932 S931 1.613 . S
N932 C935 1.350 . S
N933 S931 1.610 . S
N933 C934 1.351 . S
C934 C928 1.428 . S
C934 N933 1.351 . S
C934 C935 1.434 . S
C935 C926 1.429 . S
C935 N932 1.350 . S
C935 C934 1.434 . S
C936 C937 1.369 1_545 S
C936 C938 1.419 . S
C936 H940 0.930 . S
C937 C936 1.369 1_565 S
C937 C946 1.429 . S
C938 C936 1.419 . S
C938 C939 1.363 . S
C938 H941 0.929 1_556 S
C939 C938 1.363 . S
C939 C945 1.428 . S
H940 C936 0.930 . S
H941 C938 0.929 1_554 S
S942 N943 1.613 . S
S942 N944 1.610 1_565 S
N943 S942 1.613 . S
N943 C946 1.350 . S
N944 S942 1.610 1_545 S
N944 C945 1.351 . S
C945 C939 1.428 . S
C945 N944 1.351 . S
C945 C946 1.434 1_545 S
C946 C937 1.429 . S
C946 N943 1.350 . S
C946 C945 1.434 1_565 S
C947 C948 1.369 . S
C947 C949 1.419 . S
C947 H951 0.930 . S
C948 C947 1.369 . S
C948 C957 1.429 1_655 S
C949 C947 1.419 . S
C949 C950 1.363 1_655 S
C949 H952 0.929 . S
C950 C949 1.363 1_455 S
C950 C956 1.428 . S
H951 C947 0.930 . S
H952 C949 0.929 . S
S953 N954 1.613 . S
S953 N955 1.610 . S
N954 S953 1.613 . S
N954 C957 1.350 . S
N955 S953 1.610 . S
N955 C956 1.351 . S
C956 C950 1.428 . S
C956 N955 1.351 . S
C956 C957 1.434 . S
C957 C948 1.429 1_455 S
C957 N954 1.350 . S
C957 C956 1.434 . S
C958 C959 1.369 . S
C958 C960 1.419 . S
C958 H962 0.930 . S
C959 C958 1.369 . S
C959 C968 1.429 . S
C960 C958 1.419 . S
C960 C961 1.363 . S
C960 H963 0.929 . S
C961 C960 1.363 . S
C961 C967 1.428 . S
H962 C958 0.930 . S
H963 C960 0.929 . S
S964 N965 1.613 . S
S964 N966 1.610 . S
N965 S964 1.613 . S
N965 C968 1.350 1_554 S
N966 S964 1.610 . S
N966 C967 1.351 1_554 S
C967 C961 1.428 . S
C967 N966 1.351 1_556 S
C967 C968 1.434 . S
C968 C959 1.429 . S
C968 N965 1.350 1_556 S
C968 C967 1.434 . S
C969 C970 1.369 . S
C969 C971 1.416 1_655 S
C969 H973 0.930 . S
C970 C969 1.369 . S
C970 C979 1.429 . S
C971 C969 1.416 1_455 S
C971 C972 1.357 . S
C971 H974 0.939 . S
C972 C971 1.357 . S
C972 C978 1.428 1_455 S
H973 C969 0.930 . S
H974 C971 0.939 . S
S975 N976 1.613 . S
S975 N977 1.610 1_655 S
N976 S975 1.613 . S
N976 C979 1.350 . S
N977 S975 1.610 1_455 S
N977 C978 1.351 1_455 S
C978 C972 1.428 1_655 S
C978 N977 1.351 1_655 S
C978 C979 1.434 . S
C979 C970 1.429 . S
C979 N976 1.350 . S
C979 C978 1.434 . S
C980 C981 1.369 . S
C980 C982 1.419 . S
C980 H984 0.930 . S
C981 C980 1.369 . S
C981 C990 1.429 . S
C982 C980 1.419 . S
C982 C983 1.363 . S
C982 H985 0.929 . S
C983 C982 1.363 . S
C983 C989 1.428 . S
H984 C980 0.930 . S
H985 C982 0.929 . S
S986 N987 1.613 . S
S986 N988 1.610 . S
N987 S986 1.613 . S
N987 C990 1.350 . S
N988 S986 1.610 . S
N988 C989 1.351 . S
C989 C983 1.428 . S
C989 N988 1.351 . S
C989 C990 1.434 . S
C990 C981 1.429 . S
C990 N987 1.350 . S
C990 C989 1.434 . S
C991 C992 1.369 . S
C991 C993 1.419 1_565 S
C991 H995 0.930 . S
C992 C991 1.369 . S
C992 C1001 1.429 1_565 S
C993 C991 1.419 1_545 S
C993 C994 1.363 . S
C993 H996 0.929 . S
C994 C993 1.363 . S
C994 C1000 1.428 . S
H995 C991 0.930 . S
H996 C993 0.929 . S
S997 N998 1.613 . S
S997 N999 1.610 . S
N998 S997 1.613 . S
N998 C1001 1.350 . S
N999 S997 1.610 . S
N999 C1000 1.351 . S
C1000 C994 1.428 . S
C1000 N999 1.351 . S
C1000 C1001 1.434 . S
C1001 C992 1.429 1_545 S
C1001 N998 1.350 . S
C1001 C1000 1.434 . S
C1002 C1003 1.369 . S
C1002 C1004 1.419 . S
C1002 H1006 0.930 . S
C1003 C1002 1.369 . S
C1003 C1012 1.429 . S
C1004 C1002 1.419 . S
C1004 C1005 1.363 . S
C1004 H1007 0.929 . S
C1005 C1004 1.363 . S
C1005 C1011 1.428 . S
H1006 C1002 0.930 . S
H1007 C1004 0.929 . S
S1008 N1009 1.613 . S
S1008 N1010 1.610 . S
N1009 S1008 1.613 . S
N1009 C1012 1.350 . S
N1010 S1008 1.610 . S
N1010 C1011 1.351 . S
C1011 C1005 1.428 . S
C1011 N1010 1.351 . S
C1011 C1012 1.434 . S
C1012 C1003 1.429 . S
C1012 N1009 1.350 . S
C1012 C1011 1.434 . S
C1013 C1014 1.369 . S
C1013 C1015 1.419 . S
C1013 H1017 0.930 . S
C1014 C1013 1.369 . S
C1014 C1023 1.429 . S
C1015 C1013 1.419 . S
C1015 C1016 1.363 . S
C1015 H1018 0.929 . S
C1016 C1015 1.363 . S
C1016 C1022 1.428 . S
H1017 C1013 0.930 . S
H1018 C1015 0.929 . S
S1019 N1020 1.613 . S
S1019 N1021 1.610 . S
N1020 S1019 1.613 . S
N1020 C1023 1.350 . S
N1021 S1019 1.610 . S
N1021 C1022 1.351 . S
C1022 C1016 1.428 . S
C1022 N1021 1.351 . S
C1022 C1023 1.434 . S
C1023 C1014 1.429 . S
C1023 N1020 1.350 . S
C1023 C1022 1.434 . S
C1024 C1025 1.369 . S
C1024 C1026 1.419 . S
C1024 H1028 0.930 . S
C1025 C1024 1.369 . S
C1025 C1034 1.429 . S
C1026 C1024 1.419 . S
C1026 C1027 1.363 . S
C1026 H1029 0.929 . S
C1027 C1026 1.363 . S
C1027 C1033 1.428 . S
H1028 C1024 0.930 . S
H1029 C1026 0.929 . S
S1030 N1031 1.613 . S
S1030 N1032 1.610 . S
N1031 S1030 1.613 . S
N1031 C1034 1.350 . S
N1032 S1030 1.610 . S
N1032 C1033 1.351 . S
C1033 C1027 1.428 . S
C1033 N1032 1.351 . S
C1033 C1034 1.434 . S
C1034 C1025 1.429 . S
C1034 N1031 1.350 . S
C1034 C1033 1.434 . S
C1035 C1036 1.369 . S
C1035 C1037 1.419 . S
C1035 H1039 0.930 . S
C1036 C1035 1.369 . S
C1036 C1045 1.429 . S
C1037 C1035 1.419 . S
C1037 C1038 1.363 . S
C1037 H1040 0.929 . S
C1038 C1037 1.363 . S
C1038 C1044 1.428 . S
H1039 C1035 0.930 . S
H1040 C1037 0.929 . S
S1041 N1042 1.613 . S
S1041 N1043 1.610 . S
N1042 S1041 1.613 . S
N1042 C1045 1.350 . S
N1043 S1041 1.610 . S
N1043 C1044 1.351 . S
C1044 C1038 1.428 . S
C1044 N1043 1.351 . S
C1044 C1045 1.434 . S
C1045 C1036 1.429 . S
C1045 N1042 1.350 . S
C1045 C1044 1.434 . S
C1046 C1047 1.369 . S
C1046 C1048 1.419 . S
C1046 H1050 0.930 . S
C1047 C1046 1.369 . S
C1047 C1056 1.429 . S
C1048 C1046 1.419 . S
C1048 C1049 1.363 . S
C1048 H1051 0.929 . S
C1049 C1048 1.363 . S
C1049 C1055 1.428 . S
H1050 C1046 0.930 . S
H1051 C1048 0.929 . S
S1052 N1053 1.613 . S
S1052 N1054 1.610 . S
N1053 S1052 1.613 . S
N1053 C1056 1.350 . S
N1054 S1052 1.610 . S
N1054 C1055 1.351 . S
C1055 C1049 1.428 . S
C1055 N1054 1.351 . S
C1055 C1056 1.434 . S
C1056 C1047 1.429 . S
C1056 N1053 1.350 . S
C1056 C1055 1.434 . S
C1057 C1058 1.369 . S
C1057 C1059 1.419 . S
C1057 H1061 0.930 . S
C1058 C1057 1.369 . S
C1058 C1067 1.429 . S
C1059 C1057 1.419 . S
C1059 C1060 1.363 . S
C1059 H1062 0.929 . S
C1060 C1059 1.363 . S
C1060 C1066 1.428 . S
H1061 C1057 0.930 . S
H1062 C1059 0.929 . S
S1063 N1064 1.613 . S
S1063 N1065 1.610 . S
N1064 S1063 1.613 . S
N1064 C1067 1.350 . S
N1065 S1063 1.610 . S
N1065 C1066 1.351 . S
C1066 C1060 1.428 . S
C1066 N1065 1.351 . S
C1066 C1067 1.434 . S
C1067 C1058 1.429 . S
C1067 N1064 1.350 . S
C1067 C1066 1.434 . S
C1068 C1069 1.369 . S
C1068 C1070 1.419 . S
C1068 H1072 0.930 . S
C1069 C1068 1.369 . S
C1069 C1078 1.429 . S
C1070 C1068 1.419 . S
C1070 C1071 1.363 . S
C1070 H1073 0.929 . S
C1071 C1070 1.363 . S
C1071 C1077 1.428 . S
H1072 C1068 0.930 . S
H1073 C1070 0.929 . S
S1074 N1075 1.613 . S
S1074 N1076 1.610 . S
N1075 S1074 1.613 . S
N1075 C1078 1.350 . S
N1076 S1074 1.610 . S
N1076 C1077 1.351 . S
C1077 C1071 1.428 . S
C1077 N1076 1.351 . S
C1077 C1078 1.434 . S
C1078 C1069 1.429 . S
C1078 N1075 1.350 . S
C1078 C1077 1.434 . S
C1079 C1080 1.369 . S
C1079 C1081 1.419 . S
C1079 H1083 0.930 . S
C1080 C1079 1.369 . S
C1080 C1089 1.429 . S
C1081 C1079 1.419 . S
C1081 C1082 1.363 . S
C1081 H1084 0.929 . S
C1082 C1081 1.363 . S
C1082 C1088 1.428 . S
H1083 C1079 0.930 . S
H1084 C1081 0.929 . S
S1085 N1086 1.613 . S
S1085 N1087 1.610 . S
N1086 S1085 1.613 . S
N1086 C1089 1.350 . S
N1087 S1085 1.610 . S
N1087 C1088 1.351 . S
C1088 C1082 1.428 . S
C1088 N1087 1.351 . S
C1088 C1089 1.434 . S
C1089 C1080 1.429 . S
C1089 N1086 1.350 . S
C1089 C1088 1.434 . S
C1090 C1091 1.369 . S
C1090 C1092 1.419 . S
C1090 H1094 0.930 . S
C1091 C1090 1.369 . S
C1091 C1100 1.429 . S
C1092 C1090 1.419 . S
C1092 C1093 1.363 . S
C1092 H1095 0.929 . S
C1093 C1092 1.363 . S
C1093 C1099 1.428 . S
H1094 C1090 0.930 . S
H1095 C1092 0.929 . S
S1096 N1097 1.613 . S
S1096 N1098 1.610 . S
N1097 S1096 1.613 . S
N1097 C1100 1.350 . S
N1098 S1096 1.610 . S
N1098 C1099 1.351 . S
C1099 C1093 1.428 . S
C1099 N1098 1.351 . S
C1099 C1100 1.434 . S
C1100 C1091 1.429 . S
C1100 N1097 1.350 . S
C1100 C1099 1.434 . S
C1101 C1102 1.369 . S
C1101 C1103 1.419 . S
C1101 H1105 0.930 . S
C1102 C1101 1.369 . S
C1102 C1111 1.429 . S
C1103 C1101 1.419 . S
C1103 C1104 1.363 . S
C1103 H1106 0.929 . S
C1104 C1103 1.363 . S
C1104 C1110 1.428 . S
H1105 C1101 0.930 . S
H1106 C1103 0.929 . S
S1107 N1108 1.613 . S
S1107 N1109 1.610 . S
N1108 S1107 1.613 . S
N1108 C1111 1.350 . S
N1109 S1107 1.610 . S
N1109 C1110 1.351 . S
C1110 C1104 1.428 . S
C1110 N1109 1.351 . S
C1110 C1111 1.434 . S
C1111 C1102 1.429 . S
C1111 N1108 1.350 . S
C1111 C1110 1.434 . S
C1112 C1113 1.369 . S
C1112 C1114 1.419 . S
C1112 H1116 0.930 . S
C1113 C1112 1.369 . S
C1113 C1122 1.429 . S
C1114 C1112 1.419 . S
C1114 C1115 1.363 . S
C1114 H1117 0.929 . S
C1115 C1114 1.363 . S
C1115 C1121 1.428 . S
H1116 C1112 0.930 . S
H1117 C1114 0.929 . S
S1118 N1119 1.613 . S
S1118 N1120 1.610 . S
N1119 S1118 1.613 . S
N1119 C1122 1.350 . S
N1120 S1118 1.610 . S
N1120 C1121 1.351 . S
C1121 C1115 1.428 . S
C1121 N1120 1.351 . S
C1121 C1122 1.434 . S
C1122 C1113 1.429 . S
C1122 N1119 1.350 . S
C1122 C1121 1.434 . S
C1123 C1124 1.369 . S
C1123 C1125 1.419 . S
C1123 H1127 0.930 . S
C1124 C1123 1.369 . S
C1124 C1133 1.429 . S
C1125 C1123 1.419 . S
C1125 C1126 1.363 . S
C1125 H1128 0.929 . S
C1126 C1125 1.363 . S
C1126 C1132 1.428 . S
H1127 C1123 0.930 . S
H1128 C1125 0.929 . S
S1129 N1130 1.613 . S
S1129 N1131 1.610 . S
N1130 S1129 1.613 . S
N1130 C1133 1.350 . S
N1131 S1129 1.610 . S
N1131 C1132 1.351 . S
C1132 C1126 1.428 . S
C1132 N1131 1.351 . S
C1132 C1133 1.434 . S
C1133 C1124 1.429 . S
C1133 N1130 1.350 . S
C1133 C1132 1.434 . S
C541 N14 0.947 . S
C543 C70 1.255 . S
C552 C10 1.248 . S
C554 N44 0.963 . S
C563 N74 0.964 . S
C565 C40 1.246 . S
C574 C121 1.248 . S
C576 N96 0.961 . S
C585 C151 1.253 . S
C587 N126 0.953 . S
C596 N156 0.947 . S
C598 C91 1.255 . S
C607 C250 1.244 . S
C609 N194 0.965 . S
C618 N224 0.964 . S
C620 C190 1.246 . S
C629 C220 1.257 . S
C631 N254 0.948 . S
C640 N276 0.944 . S
C642 C301 1.256 . S
C651 C331 1.255 . S
C653 N306 0.952 . S
C662 N336 0.971 . S
C664 C271 1.245 . S
C673 C430 1.252 1_565 S
C675 N374 0.953 . S
C684 N404 0.958 . S
C686 C370 1.251 1_455 S
C695 N434 0.946 . S
C697 C400 1.255 . S
C706 N456 0.971 . S
C708 C481 1.245 1_455 S
C717 C511 1.247 . S
C719 N486 0.963 . S
C728 C451 1.243 1_565 S
C730 N516 0.967 . S
C739 C166 1.438 . S
C741 C16 1.438 . S
C750 C106 1.435 . S
C752 C46 1.440 . S
C761 C136 1.432 . S
C763 C76 1.443 . S
C772 C57 1.436 . S
C774 C117 1.440 . S
C783 C147 1.434 . S
C785 C87 1.441 . S
C794 C27 1.440 . S
C796 C177 1.437 . S
C805 C196 1.438 . S
C807 C346 1.437 . S
C816 C226 1.439 . S
C818 C286 1.437 . S
C827 C316 1.440 . S
C829 C256 1.436 . S
C838 C297 1.444 1_554 S
C840 C237 1.433 . S
C849 C327 1.444 1_554 S
C851 C267 1.433 . S
C860 C357 1.444 1_554 S
C862 C207 1.433 . S
C871 C376 1.443 . S
C873 C526 1.434 1_556 S
C882 C406 1.435 . S
C884 C466 1.440 1_556 S
C893 C436 1.435 . S
C895 C496 1.440 1_556 S
C904 C477 1.441 . S
C906 C417 1.435 . S
C915 C507 1.443 . S
C917 C447 1.434 . S
C926 C537 1.438 . S
C928 C387 1.437 . S
C937 N314 2.239 . S
C939 C1 2.190 . S
C948 C31 2.190 . S
C950 N344 2.240 . S
C959 N284 2.241 . S
C961 C61 2.190 . S
C970 C100 2.183 . S
C972 N246 2.243 . S
C981 C130 2.187 . S
C983 N186 2.240 . S
C992 N216 2.242 . S
C994 C160 2.184 . S
C1003 C181 2.188 . S
C1005 N494 2.240 . S
C1014 C211 2.182 . S
C1016 N524 2.242 . S
C1025 C241 2.185 . S
C1027 N464 2.242 . S
C1036 N426 2.243 . S
C1038 C280 2.184 . S
C1047 N366 2.241 . S
C1049 C310 2.185 . S
C1058 N396 2.239 . S
C1060 C340 2.187 . S
C1069 N134 2.240 . S
C1071 C361 2.185 . S
C1080 C391 2.186 . S
C1082 N164 2.241 . S
C1091 N104 2.242 . S
C1093 C421 2.185 . S
C1102 C460 2.186 . S
C1104 N66 2.241 . S
C1113 C490 2.181 . S
C1115 N6 2.243 . S
C1124 N36 2.244 . S
C1126 C520 2.182 . S
