# Generated by pormake.
# Topology swi, (7)-cn, num edge types: 1
# Building blocks:
#     Node 0, Type 0, BuildingBlock: HICVOG_clean_sbu_0, # of connection points: 7
#     Node 1, Type 0, BuildingBlock: HICVOG_clean_sbu_0, # of connection points: 7
#     Node 2, Type 0, BuildingBlock: HICVOG_clean_sbu_0, # of connection points: 7
#     Node 3, Type 0, BuildingBlock: HICVOG_clean_sbu_0, # of connection points: 7
#     Node 4, Type 0, BuildingBlock: HICVOG_clean_sbu_0, # of connection points: 7
#     Node 5, Type 0, BuildingBlock: HICVOG_clean_sbu_0, # of connection points: 7
#     Node 6, Type 0, BuildingBlock: HICVOG_clean_sbu_0, # of connection points: 7
#     Node 7, Type 0, BuildingBlock: HICVOG_clean_sbu_0, # of connection points: 7
#     Node 8, Type 0, BuildingBlock: HICVOG_clean_sbu_0, # of connection points: 7
#     Node 9, Type 0, BuildingBlock: HICVOG_clean_sbu_0, # of connection points: 7
#     Node 10, Type 0, BuildingBlock: HICVOG_clean_sbu_0, # of connection points: 7
#     Node 11, Type 0, BuildingBlock: HICVOG_clean_sbu_0, # of connection points: 7
#     Edge 12, Type (0, 0), BuildingBlock: EZIPEK_clean_linker_0, # of connection points: 2
#     Edge 13, Type (0, 0), BuildingBlock: EZIPEK_clean_linker_0, # of connection points: 2
#     Edge 14, Type (0, 0), BuildingBlock: EZIPEK_clean_linker_0, # of connection points: 2
#     Edge 15, Type (0, 0), BuildingBlock: EZIPEK_clean_linker_0, # of connection points: 2
#     Edge 16, Type (0, 0), BuildingBlock: EZIPEK_clean_linker_0, # of connection points: 2
#     Edge 17, Type (0, 0), BuildingBlock: EZIPEK_clean_linker_0, # of connection points: 2
#     Edge 18, Type (0, 0), BuildingBlock: EZIPEK_clean_linker_0, # of connection points: 2
#     Edge 19, Type (0, 0), BuildingBlock: EZIPEK_clean_linker_0, # of connection points: 2
#     Edge 20, Type (0, 0), BuildingBlock: EZIPEK_clean_linker_0, # of connection points: 2
#     Edge 21, Type (0, 0), BuildingBlock: EZIPEK_clean_linker_0, # of connection points: 2
#     Edge 22, Type (0, 0), BuildingBlock: EZIPEK_clean_linker_0, # of connection points: 2
#     Edge 23, Type (0, 0), BuildingBlock: EZIPEK_clean_linker_0, # of connection points: 2
#     Edge 24, Type (0, 0), BuildingBlock: EZIPEK_clean_linker_0, # of connection points: 2
#     Edge 25, Type (0, 0), BuildingBlock: EZIPEK_clean_linker_0, # of connection points: 2
#     Edge 26, Type (0, 0), BuildingBlock: EZIPEK_clean_linker_0, # of connection points: 2
#     Edge 27, Type (0, 0), BuildingBlock: EZIPEK_clean_linker_0, # of connection points: 2
#     Edge 28, Type (0, 0), BuildingBlock: EZIPEK_clean_linker_0, # of connection points: 2
#     Edge 29, Type (0, 0), BuildingBlock: EZIPEK_clean_linker_0, # of connection points: 2
#     Edge 30, Type (0, 0), BuildingBlock: EZIPEK_clean_linker_0, # of connection points: 2
#     Edge 31, Type (0, 0), BuildingBlock: EZIPEK_clean_linker_0, # of connection points: 2
#     Edge 32, Type (0, 0), BuildingBlock: EZIPEK_clean_linker_0, # of connection points: 2
#     Edge 33, Type (0, 0), BuildingBlock: EZIPEK_clean_linker_0, # of connection points: 2
#     Edge 34, Type (0, 0), BuildingBlock: EZIPEK_clean_linker_0, # of connection points: 2
#     Edge 35, Type (0, 0), BuildingBlock: EZIPEK_clean_linker_0, # of connection points: 2
#     Edge 36, Type (0, 0), BuildingBlock: EZIPEK_clean_linker_0, # of connection points: 2
#     Edge 37, Type (0, 0), BuildingBlock: EZIPEK_clean_linker_0, # of connection points: 2
#     Edge 38, Type (0, 0), BuildingBlock: EZIPEK_clean_linker_0, # of connection points: 2
#     Edge 39, Type (0, 0), BuildingBlock: EZIPEK_clean_linker_0, # of connection points: 2
#     Edge 40, Type (0, 0), BuildingBlock: EZIPEK_clean_linker_0, # of connection points: 2
#     Edge 41, Type (0, 0), BuildingBlock: EZIPEK_clean_linker_0, # of connection points: 2
#     Edge 42, Type (0, 0), BuildingBlock: EZIPEK_clean_linker_0, # of connection points: 2
#     Edge 43, Type (0, 0), BuildingBlock: EZIPEK_clean_linker_0, # of connection points: 2
#     Edge 44, Type (0, 0), BuildingBlock: EZIPEK_clean_linker_0, # of connection points: 2
#     Edge 45, Type (0, 0), BuildingBlock: EZIPEK_clean_linker_0, # of connection points: 2
#     Edge 46, Type (0, 0), BuildingBlock: EZIPEK_clean_linker_0, # of connection points: 2
#     Edge 47, Type (0, 0), BuildingBlock: EZIPEK_clean_linker_0, # of connection points: 2
#     Edge 48, Type (0, 0), BuildingBlock: EZIPEK_clean_linker_0, # of connection points: 2
#     Edge 49, Type (0, 0), BuildingBlock: EZIPEK_clean_linker_0, # of connection points: 2
#     Edge 50, Type (0, 0), BuildingBlock: EZIPEK_clean_linker_0, # of connection points: 2
#     Edge 51, Type (0, 0), BuildingBlock: EZIPEK_clean_linker_0, # of connection points: 2
#     Edge 52, Type (0, 0), BuildingBlock: EZIPEK_clean_linker_0, # of connection points: 2
#     Edge 53, Type (0, 0), BuildingBlock: EZIPEK_clean_linker_0, # of connection points: 2
# Relax obj value: 0.319
# Max RMSD: 0.248
# Mean RMSD: 0.248
data_MOF--net-swi--node1-HICVOG_clean_sbu_0--edge1-EZIPEK_clean_linker_0
_symmetry_space_group_name_H-M    P1
_symmetry_Int_Tables_number       1
_symmetry_cell_setting            triclinic
loop_
_symmetry_equiv_pos_as_xyz
'x, y, z'
_cell_length_a     30.35729
_cell_length_b     30.30748
_cell_length_c     31.301611
_cell_angle_alpha  90.548467
_cell_angle_beta   89.857052
_cell_angle_gamma 120.23578
loop_
_atom_site_label
_atom_site_type_symbol
_atom_site_fract_x
_atom_site_fract_y
_atom_site_fract_z
_atom_type_partial_charge
Zn0 Zn 0.40514 0.1023 0.97307 0.0
C1 C 0.54084 0.16496 1.01867 0.0
N2 N 0.54683 0.13429 0.99133 0.0
C3 C 0.49897 0.09509 0.98516 0.0
N4 N 0.46455 0.10529 1.00464 0.0
N5 N 0.49164 0.14663 0.0286 0.0
C6 C 0.52296 0.28013 0.10226 0.0
O7 O 0.47736 0.27428 0.10691 0.0
O8 O 0.35362 0.02745 0.96118 0.0
Zn9 Zn 0.46723 0.17935 0.06733 0.0
N10 N 0.43069 0.14827 0.92253 0.0
C11 C 0.49492 0.23405 0.90742 0.0
C12 C 0.47202 0.19299 0.93504 0.0
C13 C 0.40878 0.14454 0.88325 0.0
N14 N 0.4741 0.23024 0.86853 0.0
C15 C 0.43135 0.18717 0.8553 0.0
O16 O 0.42692 0.20295 0.03465 0.0
C17 C 0.38482 0.17932 1.01463 0.0
O18 O 0.36569 0.13216 1.0049 0.0
H19 H 0.48609 0.19756 0.96719 0.0
H20 H 0.37354 0.11033 0.87466 0.0
C21 C 0.4345 0.16368 0.15481 0.0
C22 C 0.40163 0.13798 0.18906 0.0
C23 C 0.36262 0.06217 0.1467 0.0
C24 C 0.39395 0.08863 0.11224 0.0
N25 N 0.42879 0.13907 0.11669 0.0
N26 N 0.36655 0.08751 0.18391 0.0
H27 H 0.46291 0.20351 0.15822 0.0
C28 C 0.30639 0.01209 0.95665 0.0
O29 O 0.29156 0.04578 0.95355 0.0
O30 O 0.52727 0.24282 0.08948 0.0
H31 H 0.39001 0.06948 0.08197 0.0
H32 H 0.5281 0.26947 0.91736 0.0
H33 H 0.33456 0.02202 0.1436 0.0
Zn34 Zn 0.28629 0.46612 0.05226 0.0
C35 C 0.41123 0.4939 0.98203 0.0
N36 N 0.42035 0.54198 0.98514 0.0
C37 C 0.38137 0.53742 1.00823 0.0
N38 N 0.348 0.48867 1.01799 0.0
N39 N 0.36409 0.46042 0.99853 0.0
C40 C 0.31904 0.32487 0.98144 0.0
O41 O 0.29649 0.33323 1.01379 0.0
O42 O 0.28164 0.52817 0.06505 0.0
Zn43 Zn 0.31037 0.40728 0.96087 0.0
N44 N 0.28876 0.43679 0.10659 0.0
C45 C 0.31469 0.38945 0.14956 0.0
C46 C 0.31482 0.41145 0.11051 0.0
C47 C 0.26156 0.43999 0.13998 0.0
N48 N 0.28763 0.39277 0.18287 0.0
C49 C 0.26085 0.41752 0.17917 0.0
O50 O 0.2361 0.36544 0.98292 0.0
C51 C 0.20508 0.3767 1.00061 0.0
O52 O 0.22036 0.41628 1.02392 0.0
H53 H 0.33492 0.40779 0.08343 0.0
H54 H 0.24002 0.45913 0.13607 0.0
C55 C 0.29256 0.43586 0.87055 0.0
C56 C 0.26844 0.45781 0.84695 0.0
C57 C 0.2549 0.49136 0.91118 0.0
C58 C 0.27854 0.47028 0.93404 0.0
N59 N 0.2964 0.44228 0.91413 0.0
N60 N 0.25026 0.48446 0.86853 0.0
H61 H 0.30644 0.41329 0.85483 0.0
C62 C 0.24225 0.53 0.07524 0.0
O63 O 0.19821 0.48765 0.07929 0.0
O64 O 0.3305 0.35347 0.9487 0.0
H65 H 0.28005 0.47426 0.96813 0.0
H66 H 0.33538 0.36927 0.15318 0.0
H67 H 0.23981 0.51267 0.92723 0.0
Zn68 Zn 0.90385 0.30434 0.97309 0.0
C69 C 0.88134 0.39136 0.06135 0.0
N70 N 0.92715 0.42924 0.05027 0.0
C71 C 0.94437 0.40724 1.02285 0.0
N72 N 0.91035 0.35633 1.01709 0.0
N73 N 0.87191 0.34702 0.04306 0.0
C74 C 0.7375 0.30042 0.05516 0.0
O75 O 0.76179 0.31854 1.01916 0.0
O76 O 0.97412 0.31503 0.95844 0.0
Zn77 Zn 0.82039 0.28265 0.06668 0.0
N78 N 0.85934 0.30163 0.92554 0.0
C79 C 0.77157 0.27737 0.92447 0.0
C80 C 0.81699 0.29455 0.94619 0.0
C81 C 0.85826 0.29314 0.88219 0.0
N82 N 0.76981 0.26763 0.88223 0.0
C83 C 0.81135 0.27506 0.85962 0.0
O84 O 0.79723 0.22024 0.03013 0.0
C85 C 0.81673 0.20119 1.00549 0.0
O86 O 0.86159 0.22804 0.99019 0.0
H87 H 0.81764 0.2981 0.98024 0.0
H88 H 0.89205 0.29816 0.86614 0.0
C89 C 0.81948 0.2495 0.1537 0.0
C90 C 0.84111 0.23809 0.18861 0.0
C91 C 0.91926 0.27182 0.15084 0.0
C92 C 0.89756 0.28253 0.11624 0.0
N93 N 0.84813 0.27077 0.11808 0.0
N94 N 0.89061 0.24978 0.18603 0.0
H95 H 0.78026 0.24081 0.15455 0.0
C96 C 0.99079 0.29896 0.98837 0.0
O97 O 0.96406 0.28488 1.0237 0.0
O98 O 0.75655 0.28351 0.08193 0.0
H99 H 0.91974 0.29975 0.08791 0.0
H100 H 0.7374 0.27024 0.94118 0.0
H101 H 0.95853 0.28075 0.1497 0.0
Zn102 Zn 0.52956 0.82369 0.08422 0.0
C103 C 0.49735 0.91269 1.00887 0.0
N104 N 0.46093 0.90185 0.03774 0.0
C105 C 0.46808 0.87462 0.0674 0.0
N106 N 0.50688 0.86644 0.0561 0.0
N107 N 0.52561 0.89099 1.01939 0.0
C108 C 0.66986 0.98548 0.98339 0.0
O109 O 0.63074 0.97052 0.95772 0.0
O110 O 0.47188 0.75047 0.08332 0.0
Zn111 Zn 0.57975 0.89181 0.98228 0.0
N112 N 0.56235 0.85308 0.13925 0.0
C113 C 0.6226 0.92879 0.1759 0.0
C114 C 0.59422 0.90448 0.13941 0.0
C115 C 0.55759 0.82473 0.17444 0.0
N116 N 0.61805 0.9007 0.21089 0.0
C117 C 0.58626 0.84914 0.21145 0.0
O118 O 0.63066 0.87458 1.00965 0.0
C119 C 0.6196 0.8335 0.0288 0.0
O120 O 0.58171 0.81284 0.05379 0.0
H121 H 0.59805 0.92624 0.11104 0.0
H122 H 0.53213 0.78377 0.1735 0.0
C123 C 0.55427 0.83234 0.89715 0.0
C124 C 0.53968 0.78396 0.87823 0.0
C125 C 0.51369 0.74552 0.94634 0.0
C126 C 0.52461 0.792 0.96406 0.0
N127 N 0.54758 0.83509 0.94029 0.0
N128 N 0.52124 0.7426 0.90415 0.0
H129 H 0.57178 0.8668 0.87835 0.0
C130 C 0.43101 0.73496 0.06183 0.0
O131 O 0.41862 0.76778 0.04772 0.0
O132 O 0.62998 0.9675 0.9598 0.0
H133 H 0.51789 0.7944 0.99759 0.0
H134 H 0.64828 0.96968 0.17638 0.0
H135 H 0.49872 0.71172 0.96583 0.0
Zn136 Zn 0.70446 0.6067 0.99045 0.0
C137 C 0.62505 0.48376 0.06693 0.0
N138 N 0.58424 0.47967 0.04736 0.0
C139 C 0.60314 0.52205 1.02418 0.0
N140 N 0.65466 0.55227 0.02935 0.0
N141 N 0.66767 0.52806 0.05749 0.0
C142 C 0.74477 0.46896 0.07667 0.0
O143 O 0.72323 0.4684 0.04038 0.0
O144 O 0.68094 0.65894 0.98161 0.0
Zn145 Zn 0.73234 0.55404 0.08822 0.0
N146 N 0.71463 0.57085 0.94132 0.0
C147 C 0.74622 0.51302 0.9394 0.0
C148 C 0.72661 0.53883 0.96161 0.0
C149 C 0.7225 0.57864 0.89809 0.0
N150 N 0.75511 0.52132 0.89729 0.0
C151 C 0.74425 0.5532 0.87532 0.0
O152 O 0.79465 0.6017 0.05502 0.0
C153 C 0.81064 0.63714 0.02773 0.0
O154 O 0.78037 0.64796 1.00841 0.0
H155 H 0.7243 0.53612 0.99571 0.0
H156 H 0.71429 0.60527 0.88226 0.0
C157 C 0.75885 0.58582 0.17485 0.0
C158 C 0.75597 0.60617 0.21457 0.0
C159 C 0.70022 0.63085 0.18393 0.0
C160 C 0.70261 0.60985 0.1447 0.0
N161 N 0.73165 0.58757 0.14101 0.0
N162 N 0.72668 0.62836 0.21792 0.0
H163 H 0.7818 0.56794 0.1711 0.0
C164 C 0.69969 0.69599 1.00858 0.0
O165 O 0.73431 0.69965 0.03573 0.0
O166 O 0.74775 0.49963 0.10563 0.0
H167 H 0.68106 0.61068 0.11756 0.0
H168 H 0.7556 0.48747 0.95554 0.0
H169 H 0.67716 0.64863 0.18745 0.0
Zn170 Zn 0.18288 0.73975 0.07926 0.0
C171 C 0.11027 0.60113 1.01694 0.0
N172 N 0.15195 0.60152 0.03133 0.0
C173 C 0.1784 0.64666 0.05095 0.0
N174 N 0.1555 0.67442 0.04836 0.0
N175 N 0.11425 0.64797 1.0238 0.0
C176 C 0.02301 0.70181 1.00322 0.0
O177 O 0.0604 0.731 0.02916 0.0
O178 O 0.2552 0.76468 0.09909 0.0
Zn179 Zn 0.105 0.68796 0.97675 0.0
N180 N 0.14432 0.73622 0.13078 0.0
C181 C 0.0671 0.72124 0.16338 0.0
C182 C 0.09321 0.71704 0.12823 0.0
C183 C 0.16993 0.75727 0.1681 0.0
N184 N 0.09315 0.7444 0.19982 0.0
C185 C 0.14419 0.76266 0.20338 0.0
O186 O 0.14718 0.76622 0.9825 0.0
C187 C 0.17559 0.80367 1.00692 0.0
O188 O 0.18968 0.79593 0.04277 0.0
H189 H 0.07307 0.69922 0.099 0.0
H190 H 0.21024 0.77098 0.17029 0.0
C191 C 0.14456 0.71295 0.88886 0.0
C192 C 0.17201 0.7111 0.85288 0.0
C193 C 0.16668 0.63584 0.88 0.0
C194 C 0.14166 0.63902 0.91608 0.0
N195 N 0.13074 0.67733 0.92047 0.0
N196 N 0.18164 0.67199 0.84966 0.0
H197 H 0.13615 0.74342 0.89235 0.0
C198 C 0.28322 0.81079 0.11157 0.0
O199 O 0.26566 0.84216 0.10684 0.0
O200 O 0.0311 0.67441 0.9766 0.0
H201 H 0.13214 0.61107 0.94031 0.0
H202 H 0.0265 0.70674 0.16155 0.0
H203 H 0.17525 0.60539 0.87657 0.0
Zn204 Zn 0.82877 0.53576 0.48653 0.0
C205 C 0.91928 0.51082 0.56686 0.0
N206 N 0.88568 0.4622 0.55652 0.0
C207 C 0.85462 0.46578 0.52848 0.0
N208 N 0.86585 0.51436 0.5234 0.0
N209 N 0.90393 0.54245 0.5501 0.0
C210 C 0.98519 0.69336 0.59865 0.0
O211 O 0.95182 0.70857 0.59482 0.0
O212 O 0.76745 0.47136 0.46624 0.0
Zn213 Zn 0.89732 0.5914 0.58877 0.0
N214 N 0.86668 0.57526 0.43706 0.0
C215 C 0.94447 0.63154 0.40185 0.0
C216 C 0.91835 0.60436 0.43811 0.0
C217 C 0.83993 0.57355 0.40157 0.0
N218 N 0.91778 0.62942 0.36631 0.0
C219 C 0.86592 0.60124 0.36514 0.0
O220 O 0.85873 0.62597 0.56677 0.0
C221 C 0.81733 0.61031 0.54594 0.0
O222 O 0.80203 0.5748 0.51816 0.0
H223 H 0.93901 0.60651 0.46685 0.0
H224 H 0.79878 0.55099 0.40165 0.0
C225 C 0.84872 0.56845 0.67776 0.0
C226 C 0.80249 0.54052 0.70118 0.0
C227 C 0.76575 0.48408 0.64201 0.0
C228 C 0.8103 0.51179 0.61907 0.0
N229 N 0.85105 0.55344 0.63662 0.0
N230 N 0.7627 0.49951 0.68181 0.0
H231 H 0.88103 0.60219 0.69128 0.0
C232 C 0.72571 0.47019 0.46009 0.0
O233 O 0.72487 0.51307 0.45995 0.0
O234 O 0.96969 0.64602 0.60278 0.0
H235 H 0.81058 0.50252 0.586 0.0
H236 H 0.98564 0.65453 0.40208 0.0
H237 H 0.73294 0.45162 0.62784 0.0
Zn238 Zn 0.31102 0.8957 0.58883 0.0
C239 C 0.3602 0.82611 0.52478 0.0
N240 N 0.40408 0.85653 0.54499 0.0
C241 C 0.40153 0.89869 0.55355 0.0
N242 N 0.35456 0.89122 0.54258 0.0
N243 N 0.33132 0.84757 0.52044 0.0
C244 C 0.21279 0.71795 0.44 0.0
O245 O 0.17641 0.72936 0.44136 0.0
O246 O 0.32439 0.96928 0.59044 0.0
Zn247 Zn 0.2692 0.81658 0.48431 0.0
N248 N 0.32334 0.87357 0.64622 0.0
C249 C 0.37647 0.86052 0.69484 0.0
C250 C 0.36857 0.87619 0.6554 0.0
C251 C 0.28465 0.85309 0.67564 0.0
N252 N 0.33824 0.84054 0.72371 0.0
C253 C 0.29219 0.83574 0.71535 0.0
O254 O 0.20821 0.80078 0.51947 0.0
C255 C 0.19886 0.81469 0.55514 0.0
O256 O 0.23402 0.84769 0.57939 0.0
H257 H 0.39908 0.89022 0.63284 0.0
H258 H 0.24817 0.84937 0.66806 0.0
C259 C 0.25542 0.8361 0.39622 0.0
C260 C 0.24478 0.8617 0.36418 0.0
C261 C 0.27269 0.93285 0.41114 0.0
C262 C 0.28024 0.90591 0.44355 0.0
N263 N 0.27108 0.85796 0.43576 0.0
N264 N 0.25424 0.90986 0.37259 0.0
H265 H 0.24849 0.79809 0.39007 0.0
C266 C 0.29876 0.98189 0.56653 0.0
O267 O 0.26172 0.94678 0.54303 0.0
O268 O 0.25513 0.74845 0.45829 0.0
H269 H 0.29152 0.922 0.47513 0.0
H270 H 0.41262 0.86335 0.70219 0.0
H271 H 0.27956 0.97103 0.41711 0.0
Zn272 Zn 0.45467 0.26832 0.47224 0.0
C273 C 0.50257 0.39841 0.54364 0.0
N274 N 0.54766 0.40384 0.53245 0.0
C275 C 0.5352 0.36232 0.50903 0.0
N276 N 0.48455 0.33111 0.50622 0.0
N277 N 0.46333 0.35165 0.53053 0.0
C278 C 0.31778 0.30755 0.54386 0.0
O279 O 0.31815 0.27413 0.51707 0.0
O280 O 0.51038 0.25419 0.45665 0.0
Zn281 Zn 0.40725 0.30551 0.57088 0.0
N282 N 0.42104 0.26931 0.41954 0.0
C283 C 0.35573 0.27731 0.38505 0.0
C284 C 0.38566 0.2841 0.42103 0.0
C285 C 0.42875 0.24927 0.38296 0.0
N286 N 0.36181 0.25516 0.34927 0.0
C287 C 0.39749 0.24053 0.34709 0.0
O288 O 0.36929 0.22847 0.55692 0.0
C289 C 0.37227 0.19486 0.53444 0.0
O290 O 0.40514 0.20792 0.50493 0.0
H291 H 0.38002 0.29985 0.45024 0.0
H292 H 0.45748 0.23828 0.38215 0.0
C293 C 0.40974 0.27287 0.66048 0.0
C294 C 0.43506 0.26661 0.69597 0.0
C295 C 0.51455 0.32384 0.66466 0.0
C296 C 0.48975 0.32847 0.62924 0.0
N297 N 0.43784 0.30412 0.62753 0.0
N298 N 0.4868 0.29286 0.69685 0.0
H299 H 0.36859 0.25196 0.65861 0.0
C300 C 0.50224 0.21035 0.44531 0.0
O301 O 0.45524 0.17264 0.44 0.0
O302 O 0.35263 0.32757 0.57245 0.0
H303 H 0.51256 0.34985 0.60283 0.0
H304 H 0.32709 0.28855 0.38587 0.0
H305 H 0.55576 0.34343 0.66589 0.0
Zn306 Zn 0.11323 0.41723 0.56722 0.0
C307 C 0.14367 0.5308 0.4871 0.0
N308 N 0.11886 0.54158 0.5168 0.0
C309 C 0.09608 0.49944 0.54049 0.0
N310 N 0.10883 0.46454 0.52655 0.0
N311 N 0.13757 0.48368 0.49179 0.0
C312 C 0.26346 0.50979 0.47521 0.0
O313 O 0.23721 0.49229 0.51056 0.0
O314 O 0.04103 0.3627 0.58534 0.0
Zn315 Zn 0.16588 0.45106 0.45367 0.0
N316 N 0.16273 0.4597 0.61218 0.0
C317 C 0.24547 0.53385 0.61524 0.0
C318 C 0.19865 0.50489 0.59534 0.0
C319 C 0.1707 0.44446 0.65111 0.0
N320 N 0.25412 0.51816 0.65287 0.0
C321 C 0.21798 0.47515 0.67251 0.0
O322 O 0.17386 0.39397 0.4792 0.0
C323 C 0.168 0.36985 0.51373 0.0
O324 O 0.1473 0.37843 0.54558 0.0
H325 H 0.19255 0.51717 0.56505 0.0
H326 H 0.14169 0.4087 0.66447 0.0
C327 C 0.16157 0.43193 0.36458 0.0
C328 C 0.13949 0.41663 0.32385 0.0
C329 C 0.05947 0.39674 0.35322 0.0
C330 C 0.08163 0.41184 0.39374 0.0
N331 N 0.13227 0.42949 0.39855 0.0
N332 N 0.08876 0.39934 0.31929 0.0
H333 H 0.20166 0.44525 0.36926 0.0
C334 C 0.01415 0.33385 0.55446 0.0
O335 O 0.03459 0.34204 0.51622 0.0
O336 O 0.23887 0.50045 0.44066 0.0
H337 H 0.05874 0.40944 0.4211 0.0
H338 H 0.27498 0.56843 0.60075 0.0
H339 H 0.01921 0.38274 0.34882 0.0
Zn340 Zn 0.72446 0.16894 0.47375 0.0
C341 C 0.59452 0.07461 0.53658 0.0
N342 N 0.57626 0.093 0.50713 0.0
C343 C 0.61793 0.12749 0.48688 0.0
N344 N 0.6603 0.12983 0.50261 0.0
N345 N 0.64652 0.09777 0.53524 0.0
C346 C 0.68438 0.00809 0.57498 0.0
O347 O 0.70591 0.0299 0.53873 0.0
O348 O 0.73064 0.23529 0.45899 0.0
Zn349 Zn 0.69424 0.10491 0.58294 0.0
N350 N 0.72599 0.13473 0.42171 0.0
C351 C 0.72101 0.0619 0.3876 0.0
C352 C 0.71548 0.08565 0.42396 0.0
C353 C 0.74066 0.16075 0.38427 0.0
N354 N 0.73787 0.08859 0.35072 0.0
C355 C 0.74826 0.13774 0.34797 0.0
O356 O 0.77129 0.14563 0.57051 0.0
C357 C 0.80211 0.1776 0.54352 0.0
O358 O 0.78668 0.18723 0.50912 0.0
H359 H 0.70372 0.06553 0.45394 0.0
H360 H 0.74848 0.19969 0.38312 0.0
C361 C 0.71714 0.16145 0.66653 0.0
C362 C 0.72988 0.20817 0.68777 0.0
C363 C 0.68913 0.22687 0.6317 0.0
C364 C 0.67599 0.18085 0.61175 0.0
N365 N 0.692 0.14997 0.628 0.0
N366 N 0.71638 0.2397 0.66837 0.0
H367 H 0.72867 0.1358 0.67938 0.0
C368 C 0.77452 0.27322 0.45233 0.0
O369 O 0.81313 0.2658 0.44627 0.0
O370 O 0.67643 0.03418 0.60285 0.0
H371 H 0.65547 0.17105 0.5821 0.0
H372 H 0.71301 0.02288 0.3889 0.0
H373 H 0.67841 0.25271 0.61787 0.0
Zn374 Zn 0.58803 0.68895 0.5875 0.0
C375 C 0.4795 0.60776 0.49778 0.0
N376 N 0.4868 0.56916 0.50686 0.0
C377 C 0.52597 0.58963 0.53425 0.0
N378 N 0.5438 0.64025 0.54165 0.0
N379 N 0.51536 0.65121 0.51674 0.0
C380 C 0.44104 0.71342 0.50655 0.0
O381 O 0.45571 0.71482 0.54614 0.0
O382 O 0.641 0.67008 0.60459 0.0
Zn383 Zn 0.5335 0.7167 0.49415 0.0
N384 N 0.54456 0.68967 0.63468 0.0
C385 C 0.46589 0.68813 0.64466 0.0
C386 C 0.49869 0.67991 0.6194 0.0
C387 C 0.55911 0.70791 0.6756 0.0
N388 N 0.4804 0.70687 0.68466 0.0
C389 C 0.52596 0.71719 0.70143 0.0
O390 O 0.57154 0.77619 0.53392 0.0
C391 C 0.61014 0.79329 0.5584 0.0
O392 O 0.62685 0.76502 0.5724 0.0
H393 H 0.48875 0.6686 0.58682 0.0
H394 H 0.59615 0.7166 0.68733 0.0
C395 C 0.5634 0.74535 0.40635 0.0
C396 C 0.5967 0.75868 0.37125 0.0
C397 C 0.6492 0.73678 0.41131 0.0
C398 C 0.61661 0.7246 0.44621 0.0
N399 N 0.5747 0.72952 0.44325 0.0
N400 N 0.63876 0.75382 0.37489 0.0
H401 H 0.52964 0.74877 0.40468 0.0
C402 C 0.67358 0.67869 0.57536 0.0
O403 O 0.67189 0.70137 0.54039 0.0
O404 O 0.4706 0.716 0.477 0.0
H405 H 0.62479 0.71186 0.47565 0.0
H406 H 0.42957 0.68084 0.63224 0.0
H407 H 0.68286 0.73324 0.41327 0.0
C408 C 0.23836 0.92238 0.93699 0.0
C409 C 0.26813 0.95913 0.96871 0.0
C410 C 0.21958 0.89756 1.0247 0.0
C411 C 0.19668 0.8583 0.99329 0.0
N412 N 0.16312 0.8404 0.92146 0.0
N413 N 0.28732 0.98259 0.04319 0.0
C414 C 0.19983 0.87243 0.94967 0.0
C415 C 0.25855 0.94705 1.01271 0.0
N416 N 0.24763 0.93504 0.89482 0.0
N417 N 0.20061 0.88852 0.06535 0.0
H418 H 0.31431 0.02028 0.03611 0.0
H419 H 0.28674 0.97378 0.07534 0.0
H420 H 0.16784 0.85452 0.07361 0.0
H421 H 0.21264 0.91654 0.0891 0.0
H422 H 0.23052 0.90901 0.86983 0.0
H423 H 0.27502 0.97141 0.88471 0.0
H424 H 0.16173 0.84903 0.88959 0.0
H425 H 0.12941 0.80862 0.9314 0.0
C426 C 0.36103 0.28853 1.02527 0.0
C427 C 0.33541 0.2865 0.98693 0.0
C428 C 0.3336 0.20665 0.96692 0.0
C429 C 0.35756 0.20834 1.00664 0.0
N430 N 0.37096 0.23846 0.07952 0.0
N431 N 0.28754 0.23821 0.9252 0.0
C432 C 0.364 0.24548 0.03763 0.0
C433 C 0.31867 0.24384 0.95881 0.0
N434 N 0.38417 0.33225 0.04948 0.0
N435 N 0.32576 0.17056 0.93677 0.0
H436 H 0.27657 0.26489 0.91823 0.0
H437 H 0.26944 0.20556 0.90607 0.0
H438 H 0.33597 0.14302 0.94093 0.0
H439 H 0.31088 0.16879 0.90651 0.0
H440 H 0.40689 0.33652 0.07592 0.0
H441 H 0.38558 0.36598 0.04038 0.0
H442 H 0.37183 0.26255 0.10394 0.0
H443 H 0.36934 0.20509 0.09 0.0
C444 C 0.07302 0.31957 0.94948 0.0
C445 C 0.04256 0.30326 0.98686 0.0
C446 C 0.11723 0.3192 0.02926 0.0
C447 C 0.14909 0.3437 0.99377 0.0
N448 N 0.15768 0.3628 0.91848 0.0
N449 N 0.03227 0.25809 0.05272 0.0
C450 C 0.127 0.34171 0.95316 0.0
C451 C 0.06346 0.29426 1.02418 0.0
N452 N 0.04993 0.30956 0.91035 0.0
N453 N 0.13829 0.32031 0.06809 0.0
H454 H 0.99392 0.23255 0.04621 0.0
H455 H 0.0457 0.24763 0.07909 0.0
H456 H 0.1773 0.3348 0.07245 0.0
H457 H 0.11728 0.30921 0.0963 0.0
H458 H 0.0693 0.31721 0.88145 0.0
H459 H 0.01054 0.28701 0.90662 0.0
H460 H 0.14547 0.37007 0.88974 0.0
H461 H 0.19619 0.37428 0.91878 0.0
C462 C 0.73007 0.06034 0.02798 0.0
C463 C 0.71076 0.0403 0.98652 0.0
C464 C 0.76657 0.12515 0.95588 0.0
C465 C 0.78612 0.14495 0.99732 0.0
N466 N 0.79614 0.1289 0.07076 0.0
N467 N 0.7226 0.05011 0.9102 0.0
C468 C 0.77074 0.11165 0.03272 0.0
C469 C 0.73227 0.07166 0.95011 0.0
N470 N 0.70822 0.03084 0.06323 0.0
N471 N 0.77941 0.15755 0.92216 0.0
H472 H 0.70066 0.01086 0.9049 0.0
H473 H 0.74098 0.07035 0.88283 0.0
H474 H 0.80622 0.19624 0.92461 0.0
H475 H 0.76138 0.14662 0.8925 0.0
H476 H 0.71584 0.04519 0.09437 0.0
H477 H 0.67957 0.99255 0.06155 0.0
H478 H 0.79048 0.10538 0.09669 0.0
H479 H 0.82672 0.16598 0.07503 0.0
C480 C 0.6802 0.76099 0.97646 0.0
C481 C 0.68109 0.73317 1.01237 0.0
C482 C 0.65944 0.78552 0.05858 0.0
C483 C 0.64969 0.80697 1.02231 0.0
N484 N 0.64841 0.81212 0.94506 0.0
N485 N 0.66177 0.71311 0.08719 0.0
C486 C 0.65979 0.79427 0.98074 0.0
C487 C 0.66827 0.74402 0.05336 0.0
N488 N 0.70086 0.75752 0.93861 0.0
N489 N 0.66137 0.80566 0.09825 0.0
H490 H 0.66528 0.68071 0.08473 0.0
H491 H 0.64737 0.7164 0.11656 0.0
H492 H 0.65709 0.83744 0.10306 0.0
H493 H 0.67324 0.79478 0.12538 0.0
H494 H 0.70652 0.78117 0.91275 0.0
H495 H 0.71693 0.73444 0.9343 0.0
H496 H 0.64738 0.79762 0.91453 0.0
H497 H 0.63764 0.83961 0.94575 0.0
C498 C 0.95493 0.71094 0.04523 0.0
C499 C 0.97175 0.69871 1.00653 0.0
C500 C 0.88504 0.66267 0.97713 0.0
C501 C 0.86663 0.66569 1.01838 0.0
N502 N 0.88414 0.69328 0.09194 0.0
N503 N 0.95777 0.68729 0.93065 0.0
C504 C 0.90172 0.69014 0.0524 0.0
C505 C 0.93812 0.68139 0.97093 0.0
N506 N 0.98924 0.74627 0.07336 0.0
N507 N 0.85161 0.63964 0.94416 0.0
H508 H 0.99689 0.70634 0.9248 0.0
H509 H 0.93635 0.67979 0.90283 0.0
H510 H 0.81384 0.63043 0.94577 0.0
H511 H 0.86081 0.62814 0.9157 0.0
H512 H 0.97879 0.75842 0.10078 0.0
H513 H 0.02737 0.77065 0.06609 0.0
H514 H 0.90632 0.70298 0.11955 0.0
H515 H 0.84645 0.68365 0.09758 0.0
C516 C 0.05557 0.75855 0.55198 0.0
C517 C 0.04015 0.72923 0.59011 0.0
C518 C 0.12926 0.75548 0.60484 0.0
C519 C 0.14502 0.78895 0.56954 0.0
N520 N 0.12376 0.82981 0.51421 0.0
N521 N 0.06384 0.70869 0.65736 0.0
C522 C 0.10829 0.79303 0.54474 0.0
C523 C 0.0775 0.73052 0.61797 0.0
N524 N 0.02063 0.75078 0.52099 0.0
N525 N 0.16267 0.74429 0.62404 0.0
H526 H 0.02638 0.69086 0.66847 0.0
H527 H 0.09047 0.71288 0.6804 0.0
H528 H 0.20104 0.76139 0.61562 0.0
H529 H 0.1504 0.7137 0.64482 0.0
H530 H 0.03083 0.76731 0.4909 0.0
H531 H 0.98205 0.72356 0.52317 0.0
H532 H 0.09864 0.83775 0.498 0.0
H533 H 0.16212 0.85563 0.50808 0.0
C534 C 0.30899 0.06584 0.59291 0.0
C535 C 0.31475 0.03649 0.56009 0.0
C536 C 0.33476 0.10469 0.50942 0.0
C537 C 0.33995 0.13848 0.54322 0.0
N538 N 0.32282 0.14799 0.61748 0.0
N539 N 0.34517 0.03365 0.48951 0.0
C540 C 0.3241 0.11815 0.58517 0.0
C541 C 0.33066 0.05736 0.51893 0.0
N542 N 0.28739 0.04315 0.63084 0.0
N543 N 0.3328 0.11753 0.46805 0.0
H544 H 0.34786 0.00166 0.49699 0.0
H545 H 0.36094 0.0497 0.46006 0.0
H546 H 0.33199 0.15053 0.4602 0.0
H547 H 0.32554 0.09248 0.44245 0.0
H548 H 0.27697 0.06028 0.65466 0.0
H549 H 0.27675 0.00542 0.63753 0.0
H550 H 0.32048 0.13867 0.64964 0.0
H551 H 0.32172 0.18117 0.61222 0.0
C552 C 0.24033 0.31189 0.56945 0.0
C553 C 0.27826 0.32281 0.53792 0.0
C554 C 0.22882 0.34149 0.48666 0.0
C555 C 0.19649 0.34089 0.51978 0.0
N556 N 0.16153 0.30946 0.58962 0.0
N557 N 0.31243 0.35622 0.46833 0.0
C558 C 0.19944 0.3215 0.56052 0.0
C559 C 0.27346 0.33988 0.49707 0.0
N560 N 0.24228 0.29028 0.60705 0.0
N561 N 0.21509 0.33984 0.44491 0.0
H562 H 0.34675 0.35768 0.47524 0.0
H563 H 0.31277 0.37356 0.43963 0.0
H564 H 0.1792 0.33347 0.43611 0.0
H565 H 0.23563 0.33661 0.41954 0.0
H566 H 0.21489 0.27834 0.6309 0.0
H567 H 0.27122 0.28255 0.61424 0.0
H568 H 0.16363 0.302 0.62165 0.0
H569 H 0.12598 0.30393 0.58081 0.0
C570 C 0.87099 0.25686 0.57942 0.0
C571 C 0.85685 0.21175 0.55515 0.0
C572 C 0.94747 0.24151 0.54298 0.0
C573 C 0.96085 0.29035 0.56026 0.0
N574 N 0.93351 0.34618 0.59073 0.0
N575 N 0.88129 0.16137 0.51231 0.0
C576 C 0.92227 0.29832 0.57806 0.0
C577 C 0.89508 0.20401 0.5367 0.0
N578 N 0.83531 0.26029 0.60359 0.0
N579 N 0.98496 0.23056 0.53364 0.0
H580 H 0.84344 0.13214 0.5089 0.0
H581 H 0.90694 0.15633 0.4937 0.0
H582 H 0.02348 0.25638 0.53941 0.0
H583 H 0.97767 0.19436 0.52448 0.0
H584 H 0.84432 0.2899 0.62534 0.0
H585 H 0.79732 0.23117 0.60475 0.0
H586 H 0.90574 0.35532 0.5989 0.0
H587 H 0.97009 0.37793 0.58958 0.0
C588 C 0.60276 0.86394 0.59281 0.0
C589 C 0.63388 0.84763 0.57226 0.0
C590 C 0.70324 0.93666 0.56939 0.0
C591 C 0.66867 0.95331 0.58134 0.0
N592 N 0.583 0.93122 0.60219 0.0
N593 N 0.7137 0.86868 0.53884 0.0
C594 C 0.61794 0.91664 0.59324 0.0
C595 C 0.68447 0.88396 0.56053 0.0
N596 N 0.55874 0.82888 0.61235 0.0
N597 N 0.75424 0.97129 0.56724 0.0
H598 H 0.7015 0.8305 0.53195 0.0
H599 H 0.74859 0.89414 0.52503 0.0
H600 H 0.76932 0.00981 0.57505 0.0
H601 H 0.78182 0.96095 0.56236 0.0
H602 H 0.53691 0.83882 0.63152 0.0
H603 H 0.54708 0.79013 0.61312 0.0
H604 H 0.5441 0.90537 0.6051 0.0
H605 H 0.59168 0.96901 0.60367 0.0
C606 C 0.73292 0.5938 0.57463 0.0
C607 C 0.78216 0.62905 0.55839 0.0
C608 C 0.76382 0.69868 0.56814 0.0
C609 C 0.71248 0.66255 0.57845 0.0
N610 N 0.64811 0.57555 0.59366 0.0
N611 N 0.84366 0.71448 0.5368 0.0
C612 C 0.69727 0.61021 0.58305 0.0
C613 C 0.79769 0.68152 0.55492 0.0
N614 N 0.7205 0.54468 0.5831 0.0
N615 N 0.78031 0.74964 0.57205 0.0
H616 H 0.86923 0.70326 0.52636 0.0
H617 H 0.85487 0.75198 0.52893 0.0
H618 H 0.75662 0.76311 0.58284 0.0
H619 H 0.81826 0.77823 0.56893 0.0
H620 H 0.68856 0.51915 0.60042 0.0
H621 H 0.74376 0.52983 0.57524 0.0
H622 H 0.63196 0.53622 0.58998 0.0
H623 H 0.62251 0.58592 0.60529 0.0
C624 C 0.4067 0.2389 0.26706 0.0
C625 C 0.40201 0.21538 0.30712 0.0
C626 C 0.40629 0.14568 0.26996 0.0
C627 C 0.40304 0.16535 0.22979 0.0
N628 N 0.38602 0.22448 0.19202 0.0
N629 N 0.38512 0.13918 0.34505 0.0
C630 C 0.3995 0.2104 0.2288 0.0
C631 C 0.3986 0.16678 0.30824 0.0
N632 N 0.41919 0.28891 0.26529 0.0
N633 N 0.41802 0.10775 0.27185 0.0
H634 H 0.37574 0.15134 0.37309 0.0
H635 H 0.37767 0.10168 0.34636 0.0
H636 H 0.42558 0.09244 0.24473 0.0
H637 H 0.4256 0.09555 0.30049 0.0
H638 H 0.42755 0.30895 0.23672 0.0
H639 H 0.42681 0.31181 0.2925 0.0
H640 H 0.37869 0.25455 0.19071 0.0
H641 H 0.3759 0.20231 0.16427 0.0
C642 C 0.16085 0.37049 0.26754 0.0
C643 C 0.17019 0.41728 0.2863 0.0
C644 C 0.24133 0.46451 0.23654 0.0
C645 C 0.22923 0.41791 0.2156 0.0
N646 N 0.17078 0.32771 0.2056 0.0
N647 N 0.21282 0.50921 0.28359 0.0
C648 C 0.18708 0.37119 0.22956 0.0
C649 C 0.20863 0.46447 0.26934 0.0
N650 N 0.12825 0.3253 0.28687 0.0
N651 N 0.28507 0.50852 0.22624 0.0
H652 H 0.18942 0.51068 0.30735 0.0
H653 H 0.23626 0.54432 0.26928 0.0
H654 H 0.31026 0.51007 0.20279 0.0
H655 H 0.2987 0.54256 0.24339 0.0
H656 H 0.12426 0.29043 0.27739 0.0
H657 H 0.10847 0.32306 0.31482 0.0
H658 H 0.13699 0.2938 0.21161 0.0
H659 H 0.18834 0.32673 0.17721 0.0
C660 C 0.7678 0.16599 0.22879 0.0
C661 C 0.8125 0.21506 0.22879 0.0
C662 C 0.81626 0.21301 0.30692 0.0
C663 C 0.76897 0.16621 0.30729 0.0
N664 N 0.69359 0.10527 0.26858 0.0
N665 N 0.8704 0.29095 0.26867 0.0
C666 C 0.74277 0.14493 0.26819 0.0
C667 C 0.83376 0.24041 0.26817 0.0
N668 N 0.75075 0.13803 0.19183 0.0
N669 N 0.84639 0.22983 0.3426 0.0
H670 H 0.88316 0.31269 0.24095 0.0
H671 H 0.88381 0.31235 0.29681 0.0
H672 H 0.83722 0.20938 0.37096 0.0
H673 H 0.88328 0.26124 0.3425 0.0
H674 H 0.72151 0.1 0.19108 0.0
H675 H 0.76885 0.15092 0.16251 0.0
H676 H 0.67125 0.09144 0.24108 0.0
H677 H 0.67345 0.08988 0.29678 0.0
C678 C 0.5823 0.82209 0.33004 0.0
C679 C 0.58763 0.77811 0.33041 0.0
C680 C 0.59249 0.78013 0.25202 0.0
C681 C 0.58219 0.82099 0.25159 0.0
N682 N 0.55274 0.87041 0.29046 0.0
N683 N 0.58373 0.70744 0.29083 0.0
C684 C 0.57238 0.83856 0.29072 0.0
C685 C 0.58821 0.75461 0.29107 0.0
N686 N 0.58997 0.85032 0.36645 0.0
N687 N 0.60942 0.76752 0.21602 0.0
H688 H 0.57873 0.68676 0.31866 0.0
H689 H 0.57934 0.6867 0.26283 0.0
H690 H 0.61577 0.78679 0.18727 0.0
H691 H 0.62224 0.74144 0.21598 0.0
H692 H 0.59136 0.8854 0.36662 0.0
H693 H 0.60059 0.84189 0.3955 0.0
H694 H 0.5407 0.88063 0.31812 0.0
H695 H 0.54316 0.88184 0.26232 0.0
C696 C 0.8218 0.65075 0.27236 0.0
C697 C 0.78464 0.60446 0.25262 0.0
C698 C 0.80507 0.55614 0.30363 0.0
C699 C 0.83779 0.60206 0.32632 0.0
N700 N 0.86886 0.69207 0.33692 0.0
N701 N 0.73345 0.51245 0.25507 0.0
C702 C 0.84388 0.64914 0.31194 0.0
C703 C 0.77417 0.55689 0.26979 0.0
N704 N 0.83744 0.6963 0.25261 0.0
N705 N 0.80483 0.51212 0.31324 0.0
H706 H 0.70902 0.51135 0.23119 0.0
H707 H 0.72096 0.47725 0.26944 0.0
H708 H 0.82794 0.51023 0.3369 0.0
H709 H 0.78557 0.47881 0.29493 0.0
H710 H 0.86821 0.73069 0.26333 0.0
H711 H 0.8231 0.69913 0.22316 0.0
H712 H 0.86975 0.72608 0.33006 0.0
H713 H 0.88427 0.69239 0.36673 0.0
C714 C 0.15222 0.76225 0.28371 0.0
C715 C 0.17135 0.78772 0.2443 0.0
C716 C 0.24267 0.85854 0.28323 0.0
C717 C 0.21998 0.83583 0.32281 0.0
N718 N 0.14452 0.77258 0.35951 0.0
N719 N 0.22799 0.86696 0.20861 0.0
C720 C 0.1723 0.78942 0.32278 0.0
C721 C 0.21483 0.83779 0.24453 0.0
N722 N 0.11586 0.71164 0.28409 0.0
N723 N 0.29126 0.89922 0.2823 0.0
H724 H 0.20705 0.8547 0.18029 0.0
H725 H 0.25618 0.90541 0.20846 0.0
H726 H 0.31328 0.91486 0.30979 0.0
H727 H 0.31128 0.91398 0.25398 0.0
H728 H 0.10367 0.6904 0.31203 0.0
H729 H 0.10189 0.68956 0.25633 0.0
H730 H 0.10731 0.74173 0.36011 0.0
H731 H 0.15612 0.79275 0.38834 0.0
C732 C 0.57824 0.78187 0.76063 0.0
C733 C 0.53559 0.73455 0.74719 0.0
C734 C 0.49335 0.73082 0.81479 0.0
C735 C 0.53851 0.77333 0.83121 0.0
N736 N 0.62831 0.83322 0.82112 0.0
N737 N 0.45938 0.65724 0.7681 0.0
C738 C 0.58239 0.79736 0.80456 0.0
C739 C 0.49538 0.70694 0.77645 0.0
N740 N 0.61351 0.81316 0.73157 0.0
N741 N 0.44786 0.7138 0.83528 0.0
H742 H 0.46096 0.63736 0.74128 0.0
H743 H 0.43178 0.63438 0.79032 0.0
H744 H 0.44399 0.73232 0.86208 0.0
H745 H 0.41329 0.68524 0.82264 0.0
H746 H 0.64246 0.85007 0.7392 0.0
H747 H 0.61106 0.80416 0.69914 0.0
H748 H 0.66219 0.8481 0.8039 0.0
H749 H 0.63328 0.84461 0.85308 0.0
C750 C 0.78811 0.6009 0.80623 0.0
C751 C 0.75394 0.55526 0.82821 0.0
C752 C 0.76649 0.50585 0.77251 0.0
C753 C 0.79382 0.54982 0.74685 0.0
N754 N 0.81974 0.63879 0.73678 0.0
N755 N 0.69799 0.46398 0.82296 0.0
C756 C 0.8017 0.5975 0.76286 0.0
C757 C 0.73876 0.50772 0.80797 0.0
N758 N 0.80936 0.64702 0.82673 0.0
N759 N 0.76797 0.46235 0.76377 0.0
H760 H 0.67537 0.46428 0.84802 0.0
H761 H 0.68372 0.42882 0.80733 0.0
H762 H 0.79106 0.46056 0.73985 0.0
H763 H 0.75122 0.43057 0.78361 0.0
H764 H 0.83811 0.68049 0.81313 0.0
H765 H 0.80139 0.65108 0.85842 0.0
H766 H 0.82181 0.67285 0.74627 0.0
H767 H 0.82777 0.63738 0.7046 0.0
C768 C 0.2305 0.8009 0.82442 0.0
C769 C 0.19137 0.74925 0.8175 0.0
C770 C 0.21404 0.75679 0.74163 0.0
C771 C 0.25117 0.80895 0.74772 0.0
N772 N 0.28723 0.88372 0.79287 0.0
N773 N 0.13599 0.68448 0.76709 0.0
C774 C 0.25634 0.8321 0.78846 0.0
C775 C 0.17957 0.72977 0.77512 0.0
N776 N 0.24609 0.81908 0.86497 0.0
N777 N 0.2147 0.73136 0.70564 0.0
H778 H 0.10967 0.66415 0.79105 0.0
H779 H 0.12381 0.67031 0.73624 0.0
H780 H 0.24029 0.74904 0.68068 0.0
H781 H 0.19258 0.69177 0.70233 0.0
H782 H 0.27832 0.85428 0.87163 0.0
H783 H 0.22928 0.79762 0.89217 0.0
H784 H 0.29017 0.90364 0.82099 0.0
H785 H 0.30647 0.90711 0.76702 0.0
C786 C 0.415 0.16745 0.77616 0.0
C787 C 0.40912 0.19079 0.81362 0.0
C788 C 0.397 0.25081 0.76922 0.0
C789 C 0.40903 0.23148 0.73244 0.0
N790 N 0.41479 0.16348 0.69827 0.0
N791 N 0.38291 0.24627 0.84595 0.0
C792 C 0.41241 0.18657 0.73519 0.0
C793 C 0.39537 0.22917 0.80993 0.0
N794 N 0.42713 0.12995 0.77991 0.0
N795 N 0.39109 0.29242 0.76536 0.0
H796 H 0.38474 0.23347 0.87628 0.0
H797 H 0.3682 0.27071 0.84594 0.0
H798 H 0.39016 0.30734 0.73569 0.0
H799 H 0.38814 0.31285 0.79099 0.0
H800 H 0.43782 0.11517 0.7544 0.0
H801 H 0.42815 0.11453 0.80925 0.0
H802 H 0.41339 0.12848 0.69704 0.0
H803 H 0.41397 0.17783 0.66827 0.0
C804 C 0.28007 0.50661 0.78142 0.0
C805 C 0.26476 0.45838 0.79942 0.0
C806 C 0.22376 0.41873 0.73077 0.0
C807 C 0.22999 0.46624 0.71698 0.0
N808 N 0.25172 0.55218 0.73764 0.0
N809 N 0.21474 0.3665 0.79218 0.0
C810 C 0.25478 0.50936 0.74471 0.0
C811 C 0.2347 0.41361 0.77436 0.0
N812 N 0.31777 0.55009 0.80032 0.0
N813 N 0.20968 0.37939 0.70242 0.0
H814 H 0.22148 0.36122 0.82382 0.0
H815 H 0.18849 0.33312 0.77627 0.0
H816 H 0.20449 0.38273 0.66998 0.0
H817 H 0.20871 0.3456 0.71042 0.0
H818 H 0.33234 0.58604 0.78666 0.0
H819 H 0.33788 0.54914 0.82699 0.0
H820 H 0.26627 0.58293 0.75905 0.0
H821 H 0.22902 0.55417 0.71363 0.0
C822 C 0.77114 0.28115 0.7929 0.0
C823 C 0.80289 0.26524 0.81227 0.0
C824 C 0.79619 0.21856 0.74531 0.0
C825 C 0.75481 0.22465 0.73131 0.0
N826 N 0.69321 0.24904 0.75348 0.0
N827 N 0.83789 0.20898 0.80759 0.0
C828 C 0.73954 0.25246 0.75841 0.0
C829 C 0.81363 0.23124 0.78872 0.0
N830 N 0.76979 0.32276 0.80826 0.0
N831 N 0.8207 0.20347 0.71741 0.0
H832 H 0.84911 0.21508 0.83951 0.0
H833 H 0.84234 0.18074 0.79231 0.0
H834 H 0.81283 0.199 0.68478 0.0
H835 H 0.8531 0.20198 0.726 0.0
H836 H 0.74879 0.33693 0.79335 0.0
H837 H 0.79404 0.34592 0.83267 0.0
H838 H 0.68011 0.26679 0.77453 0.0
H839 H 0.66532 0.22294 0.7326 0.0
C840 C 0.66086 0.29396 1.02197 0.0
C841 C 0.68336 0.28684 0.05841 0.0
C842 C 0.60166 0.2138 0.07849 0.0
C843 C 0.5847 0.21213 0.03574 0.0
N844 N 0.60059 0.25028 0.96552 0.0
N845 N 0.67002 0.25842 0.1308 0.0
C846 C 0.61433 0.25279 1.00734 0.0
C847 C 0.65185 0.25257 0.09006 0.0
N848 N 0.68512 0.33921 1.00086 0.0
N849 N 0.57062 0.17759 0.10703 0.0
H850 H 0.70551 0.28929 0.1394 0.0
H851 H 0.64912 0.23609 0.15645 0.0
H852 H 0.53223 0.15236 0.1008 0.0
H853 H 0.58215 0.17304 0.13711 0.0
H854 H 0.66901 0.34757 0.97507 0.0
H855 H 0.71885 0.37001 1.01266 0.0
H856 H 0.62372 0.27705 0.94294 0.0
H857 H 0.56862 0.21893 0.95243 0.0
C858 C 0.3942 0.66712 1.00422 0.0
C859 C 0.4022 0.68083 0.04839 0.0
C860 C 0.38653 0.59615 0.06693 0.0
C861 C 0.37998 0.58271 1.02301 0.0
N862 N 0.36768 0.60025 0.95048 0.0
N863 N 0.38777 0.6534 0.12148 0.0
C864 C 0.38054 0.61664 0.99189 0.0
C865 C 0.39239 0.64357 0.07961 0.0
N866 N 0.40227 0.70247 0.97372 0.0
N867 N 0.38895 0.56459 0.09653 0.0
H868 H 0.39094 0.68767 0.13134 0.0
H869 H 0.37522 0.62589 0.14527 0.0
H870 H 0.38155 0.52797 0.08934 0.0
H871 H 0.40069 0.57573 0.12799 0.0
H872 H 0.40322 0.69623 0.9411 0.0
H873 H 0.41054 0.73951 0.98001 0.0
H874 H 0.3603 0.62001 0.92724 0.0
H875 H 0.36025 0.5645 0.93984 0.0
C876 C 0.83494 0.43156 0.03282 0.0
C877 C 0.84141 0.4049 0.06693 0.0
C878 C 0.78145 0.41823 0.10977 0.0
C879 C 0.78067 0.44984 0.07689 0.0
N880 N 0.82502 0.50304 1.01643 0.0
N881 N 0.82679 0.3787 0.14043 0.0
C882 C 0.8131 0.46167 0.04127 0.0
C883 C 0.8167 0.4002 0.10653 0.0
N884 N 0.8485 0.42737 0.992 0.0
N885 N 0.74811 0.40464 0.14305 0.0
H886 H 0.85144 0.3642 0.13803 0.0
H887 H 0.81306 0.37793 0.1711 0.0
H888 H 0.72182 0.41708 0.14586 0.0
H889 H 0.7444 0.37861 0.16626 0.0
H890 H 0.8409 0.44388 0.96605 0.0
H891 H 0.8608 0.4021 0.98338 0.0
H892 H 0.85188 0.51478 0.99195 0.0
H893 H 0.81302 0.52901 1.02364 0.0
C894 C 0.42447 0.90115 0.1194 0.0
C895 C 0.43948 0.86505 0.10874 0.0
C896 C 0.35606 0.79631 0.13022 0.0
C897 C 0.3371 0.83019 0.1256 0.0
N898 N 0.35683 0.91576 0.14439 0.0
N899 N 0.43181 0.79188 0.14287 0.0
C900 C 0.37245 0.88339 0.12959 0.0
C901 C 0.40898 0.81558 0.12488 0.0
N902 N 0.4596 0.95186 0.11652 0.0
N903 N 0.32433 0.74667 0.1411 0.0
H904 H 0.47094 0.80852 0.14171 0.0
H905 H 0.41297 0.76113 0.16348 0.0
H906 H 0.28763 0.73385 0.15267 0.0
H907 H 0.33541 0.71926 0.13972 0.0
H908 H 0.45103 0.98097 0.11924 0.0
H909 H 0.49791 0.96397 0.11051 0.0
H910 H 0.38108 0.95481 0.14892 0.0
H911 H 0.32059 0.90225 0.15721 0.0
C912 C 0.58885 0.36612 0.12891 0.0
C913 C 0.56557 0.33156 0.09433 0.0
C914 C 0.60975 0.40034 0.04358 0.0
C915 C 0.6232 0.43588 0.07784 0.0
N916 N 0.63024 0.45469 0.15288 0.0
N917 N 0.55213 0.31498 1.01816 0.0
C918 C 0.61545 0.41942 0.12065 0.0
C919 C 0.57688 0.34806 0.05142 0.0
N920 N 0.58428 0.34773 0.16932 0.0
N921 N 0.6251 0.41737 1.00295 0.0
H922 H 0.52712 0.27603 1.02169 0.0
H923 H 0.55344 0.32644 0.98673 0.0
H924 H 0.64588 0.45601 0.99573 0.0
H925 H 0.62111 0.39367 0.97717 0.0
H926 H 0.60313 0.3706 0.19573 0.0
H927 H 0.5646 0.30864 0.17561 0.0
H928 H 0.62129 0.44551 0.18489 0.0
H929 H 0.65045 0.49377 0.14683 0.0
C930 C 0.26313 0.61411 0.04355 0.0
C931 C 0.24533 0.57999 0.07864 0.0
C932 C 0.21501 0.63225 0.11313 0.0
C933 C 0.22483 0.65921 0.07459 0.0
N934 N 0.28503 0.69842 1.01872 0.0
N935 N 0.22116 0.56695 0.15299 0.0
C936 C 0.26114 0.65956 0.04691 0.0
C937 C 0.22734 0.59286 0.11597 0.0
N938 N 0.27458 0.60029 1.00536 0.0
N939 N 0.18803 0.6402 0.144 0.0
H940 H 0.2306 0.53836 0.1554 0.0
H941 H 0.21062 0.57638 0.1818 0.0
H942 H 0.17852 0.66862 0.14049 0.0
H943 H 0.17429 0.61843 0.17151 0.0
H944 H 0.28236 0.62229 0.97796 0.0
H945 H 0.27176 0.56498 0.99996 0.0
H946 H 0.31256 0.70082 0.99739 0.0
H947 H 0.27919 0.72959 1.0197 0.0
C948 C 0.82522 0.41507 0.45986 0.0
C949 C 0.81791 0.4201 0.5042 0.0
C950 C 0.77964 0.32871 0.5132 0.0
C951 C 0.78488 0.32299 0.4688 0.0
N952 N 0.80119 0.35834 0.39817 0.0
N953 N 0.77397 0.38036 0.56932 0.0
C954 C 0.80345 0.36543 0.44143 0.0
C955 C 0.78896 0.37613 0.52908 0.0
N956 N 0.85603 0.45701 0.43614 0.0
N957 N 0.77117 0.29082 0.54106 0.0
H958 H 0.78276 0.41544 0.58268 0.0
H959 H 0.74874 0.34884 0.58731 0.0
H960 H 0.76755 0.25618 0.53158 0.0
H961 H 0.77264 0.29575 0.57411 0.0
H962 H 0.86769 0.45498 0.40522 0.0
H963 H 0.87226 0.49389 0.44827 0.0
H964 H 0.81002 0.38757 0.37656 0.0
H965 H 0.78617 0.32221 0.38408 0.0
C966 C 0.33616 0.73734 0.53469 0.0
C967 C 0.35018 0.77773 0.50605 0.0
C968 C 0.39689 0.74843 0.4624 0.0
C969 C 0.39646 0.71952 0.49792 0.0
N970 N 0.35048 0.66943 0.55867 0.0
N971 N 0.38031 0.81442 0.43731 0.0
C972 C 0.36038 0.7079 0.53101 0.0
C973 C 0.37541 0.78016 0.46758 0.0
N974 N 0.30244 0.73018 0.56652 0.0
N975 N 0.41566 0.74389 0.42396 0.0
H976 H 0.36132 0.83502 0.44018 0.0
H977 H 0.40312 0.82282 0.41031 0.0
H978 H 0.42474 0.71552 0.418 0.0
H979 H 0.4156 0.76297 0.39654 0.0
H980 H 0.29054 0.7021 0.58968 0.0
H981 H 0.28486 0.75222 0.56835 0.0
H982 H 0.32664 0.66017 0.58502 0.0
H983 H 0.36499 0.64503 0.5536 0.0
C984 C 0.63978 0.40621 0.43309 0.0
C985 C 0.6773 0.42187 0.46542 0.0
C986 C 0.61339 0.36082 0.51431 0.0
C987 C 0.57532 0.35773 0.48688 0.0
N988 N 0.54978 0.37037 0.41774 0.0
N989 N 0.69988 0.41444 0.53815 0.0
C990 C 0.58766 0.3765 0.44474 0.0
C991 C 0.66474 0.39771 0.50592 0.0
N992 N 0.65422 0.42152 0.39203 0.0
N993 N 0.59933 0.33348 0.5512 0.0
H994 H 0.73735 0.44397 0.53503 0.0
H995 H 0.69087 0.40147 0.56934 0.0
H996 H 0.56098 0.31005 0.55919 0.0
H997 H 0.62493 0.33047 0.57136 0.0
H998 H 0.62896 0.40879 0.36631 0.0
H999 H 0.69254 0.44362 0.38342 0.0
H1000 H 0.55616 0.38809 0.38823 0.0
H1001 H 0.51154 0.34866 0.42619 0.0
C1002 C 0.15162 0.62741 0.41392 0.0
C1003 C 0.20161 0.66618 0.42513 0.0
C1004 C 0.22009 0.60496 0.45579 0.0
C1005 C 0.16816 0.56688 0.45197 0.0
N1006 N 0.08846 0.53637 0.4153 0.0
N1007 N 0.28705 0.68195 0.4242 0.0
C1008 C 0.13552 0.5761 0.42576 0.0
C1009 C 0.23729 0.65125 0.43431 0.0
N1010 N 0.12031 0.63996 0.39281 0.0
N1011 N 0.25099 0.60107 0.48493 0.0
H1012 H 0.29913 0.71559 0.40714 0.0
H1013 H 0.31335 0.6698 0.42779 0.0
H1014 H 0.23703 0.57285 0.508 0.0
H1015 H 0.28915 0.62883 0.48839 0.0
H1016 H 0.0819 0.61469 0.38668 0.0
H1017 H 0.13427 0.67627 0.38007 0.0
H1018 H 0.06244 0.53949 0.39588 0.0
H1019 H 0.07695 0.49918 0.42468 0.0
C1020 C 0.57249 0.21244 0.48752 0.0
C1021 C 0.5441 0.19926 0.44905 0.0
C1022 C 0.58802 0.15449 0.42456 0.0
C1023 C 0.61559 0.16812 0.46343 0.0
N1024 N 0.65012 0.2285 0.52131 0.0
N1025 N 0.53269 0.16754 0.37653 0.0
C1026 C 0.61441 0.20501 0.49022 0.0
C1027 C 0.55474 0.17379 0.41575 0.0
N1028 N 0.5559 0.22554 0.52344 0.0
N1029 N 0.59146 0.12058 0.39783 0.0
H1030 H 0.50824 0.18137 0.3696 0.0
H1031 H 0.54164 0.15225 0.35024 0.0
H1032 H 0.61697 0.10776 0.40396 0.0
H1033 H 0.56845 0.10441 0.37099 0.0
H1034 H 0.57292 0.22966 0.55325 0.0
H1035 H 0.52178 0.2259 0.52488 0.0
H1036 H 0.65253 0.25825 0.54013 0.0
H1037 H 0.67959 0.22083 0.52485 0.0
C1038 C 0.40644 0.59968 0.45342 0.0
C1039 C 0.42588 0.59442 0.49288 0.0
C1040 C 0.3418 0.52648 0.51247 0.0
C1041 C 0.31995 0.5376 0.47738 0.0
N1042 N 0.3332 0.59232 0.4164 0.0
N1043 N 0.40749 0.56185 0.56525 0.0
C1044 C 0.35257 0.57651 0.44819 0.0
C1045 C 0.39175 0.56184 0.52447 0.0
N1046 N 0.43898 0.62511 0.42072 0.0
N1047 N 0.31686 0.48013 0.53219 0.0
H1048 H 0.44461 0.58594 0.57551 0.0
H1049 H 0.3821 0.54078 0.58952 0.0
H1050 H 0.28306 0.44959 0.52033 0.0
H1051 H 0.33367 0.46976 0.55614 0.0
H1052 H 0.4266 0.62563 0.3898 0.0
H1053 H 0.47846 0.64283 0.4242 0.0
H1054 H 0.35614 0.6232 0.39691 0.0
H1055 H 0.2945 0.5784 0.41183 0.0
C1056 C 0.52338 0.03754 1.02074 0.0
C1057 C 0.49547 0.04393 0.98733 0.0
C1058 C 0.48455 0.96482 0.95467 0.0
C1059 C 0.51599 0.96204 0.98697 0.0
N1060 N 0.58074 0.00772 0.04 0.0
N1061 N 0.45621 0.01707 0.91809 0.0
C1062 C 0.54228 0.00393 1.01496 0.0
C1063 C 0.4784 0.00879 0.95253 0.0
N1064 N 0.52889 0.06107 0.05927 0.0
N1065 N 0.45882 0.9242 0.92765 0.0
H1066 H 0.4497 0.04775 0.91702 0.0
H1067 H 0.44669 0.99504 0.89023 0.0
H1068 H 0.46459 0.89299 0.92835 0.0
H1069 H 0.43116 0.92096 0.90617 0.0
H1070 H 0.5473 0.05616 0.0853 0.0
H1071 H 0.5079 0.07859 0.06678 0.0
H1072 H 0.60274 0.03934 0.05963 0.0
H1073 H 0.59332 0.98152 0.03775 0.0
C1074 C 0.48255 0.51266 0.03111 0.0
C1075 C 0.4587 0.49185 0.99109 0.0
C1076 C 0.54195 0.50689 0.96495 0.0
C1077 C 0.56568 0.53284 1.00369 0.0
N1078 N 0.56015 0.57396 0.06742 0.0
N1079 N 0.4685 0.47562 0.91736 0.0
C1080 C 0.53638 0.54145 0.03391 0.0
C1081 C 0.48941 0.49113 0.95703 0.0
N1082 N 0.45369 0.50371 0.06684 0.0
N1083 N 0.56915 0.49554 0.93672 0.0
H1084 H 0.42975 0.4615 0.91166 0.0
H1085 H 0.48992 0.47876 0.89031 0.0
H1086 H 0.60776 0.50829 0.94161 0.0
H1087 H 0.55296 0.47212 0.90997 0.0
H1088 H 0.46928 0.5157 0.09729 0.0
H1089 H 0.41464 0.47828 0.06649 0.0
H1090 H 0.54085 0.58418 0.08937 0.0
H1091 H 0.59982 0.59406 0.07025 0.0
C1092 C 0.99387 0.47668 0.97296 0.0
C1093 C 0.99395 0.44136 1.00242 0.0
C1094 C 0.06025 0.51162 0.04345 0.0
C1095 C 0.06266 0.54858 1.01406 0.0
N1096 N 0.02956 0.56494 0.95026 0.0
N1097 N 0.04109 0.42462 0.05397 0.0
C1098 C 0.02913 0.53064 0.97815 0.0
C1099 C 0.0336 0.45911 0.03235 0.0
N1100 N 0.95738 0.458 0.94186 0.0
N1101 N 0.08034 0.52647 0.08355 0.0
H1102 H 0.01906 0.38556 0.04736 0.0
H1103 H 0.07148 0.43542 0.07505 0.0
H1104 H 0.09446 0.56373 0.09484 0.0
H1105 H 0.07685 0.50071 0.10701 0.0
H1106 H 0.95058 0.48047 0.92104 0.0
H1107 H 0.93329 0.41865 0.93769 0.0
H1108 H 0.00996 0.55525 0.92134 0.0
H1109 H 0.04983 0.6038 0.95697 0.0
C1110 C 0.98375 0.50516 0.52335 0.0
C1111 C 0.9726 0.52052 0.56294 0.0
C1112 C 0.04089 0.50999 0.59495 0.0
C1113 C 0.04504 0.48712 0.55638 0.0
N1114 N 0.00475 0.44611 0.49005 0.0
N1115 N 0.98802 0.53227 0.63859 0.0
C1116 C 0.01011 0.47798 0.52318 0.0
C1117 C 0.0004 0.52122 0.59964 0.0
N1118 N 0.96849 0.51583 0.4859 0.0
N1119 N 0.07619 0.52192 0.62639 0.0
H1120 H 0.96034 0.54288 0.64196 0.0
H1121 H 0.00376 0.52896 0.66708 0.0
H1122 H 0.10437 0.51191 0.62389 0.0
H1123 H 0.07835 0.54305 0.65357 0.0
H1124 H 0.9779 0.5072 0.45612 0.0
H1125 H 0.9526 0.53922 0.48499 0.0
H1126 H 0.97781 0.43677 0.46585 0.0
H1127 H 0.02323 0.42498 0.48976 0.0
C1128 C 0.52154 0.02683 0.5852 0.0
C1129 C 0.55707 0.02564 0.55627 0.0
C1130 C 0.48767 0.95123 0.521 0.0
C1131 C 0.45175 0.94863 0.55166 0.0
N1132 N 0.43528 0.98587 0.61338 0.0
N1133 N 0.5755 0.97772 0.50535 0.0
C1134 C 0.46904 0.98684 0.58428 0.0
C1135 C 0.5405 0.98371 0.52815 0.0
N1136 N 0.53799 0.0681 0.61181 0.0
N1137 N 0.47091 0.92559 0.48303 0.0
H1138 H 0.61454 0.00278 0.50897 0.0
H1139 H 0.56573 0.94558 0.4864 0.0
H1140 H 0.43253 0.90729 0.47442 0.0
H1141 H 0.49523 0.92874 0.45819 0.0
H1142 H 0.51407 0.07549 0.63061 0.0
H1143 H 0.57652 0.09583 0.61393 0.0
H1144 H 0.44553 0.00876 0.64072 0.0
H1145 H 0.39648 0.96075 0.61002 0.0
C1146 C 0.558 0.53485 0.5188 0.0
C1147 C 0.54164 0.55482 0.55176 0.0
C1148 C 0.49463 0.46837 0.58267 0.0
C1149 C 0.50251 0.44778 0.54437 0.0
N1150 N 0.52968 0.46303 0.47073 0.0
N1151 N 0.49648 0.54181 0.61743 0.0
C1152 C 0.53035 0.48176 0.5107 0.0
C1153 C 0.51123 0.52187 0.58498 0.0
N1154 N 0.59615 0.56746 0.49243 0.0
N1155 N 0.47125 0.43702 0.61633 0.0
H1156 H 0.51054 0.58108 0.61987 0.0
H1157 H 0.46991 0.51976 0.64055 0.0
H1158 H 0.45529 0.39761 0.6136 0.0
H1159 H 0.46871 0.45017 0.64658 0.0
H1160 H 0.61156 0.5549 0.4687 0.0
H1161 H 0.61484 0.60694 0.49753 0.0
H1162 H 0.5472 0.48643 0.44454 0.0
H1163 H 0.50658 0.42436 0.46319 0.0
loop_
_geom_bond_atom_site_label_1
_geom_bond_atom_site_label_2
_geom_bond_distance
_geom_bond_site_symmetry_2
_ccdc_geom_bond_type
Zn0 N4 2.020 . S
Zn0 O8 2.019 . S
Zn0 N10 2.119 . S
Zn0 O18 1.975 . S
C1 N2 1.345 . S
C1 N5 1.336 . S
N2 C1 1.345 . S
N2 C3 1.323 1_554 S
C3 N2 1.323 1_556 S
C3 N4 1.336 . S
N4 Zn0 2.020 . S
N4 C3 1.336 . S
N4 N5 1.354 1_556 S
N5 C1 1.336 . S
N5 N4 1.354 1_554 S
N5 Zn9 2.020 . S
C6 O7 1.244 1_554 S
C6 O30 1.257 . S
O7 C6 1.244 1_556 S
O8 Zn0 2.019 . S
O8 C28 1.257 . S
Zn9 N5 2.020 . S
Zn9 O16 1.975 . S
Zn9 N25 2.119 . S
Zn9 O30 2.019 . S
N10 Zn0 2.119 . S
N10 C12 1.334 . S
N10 C13 1.328 . S
C11 C12 1.391 . S
C11 N14 1.329 . S
C11 H32 0.930 . S
C12 N10 1.334 . S
C12 C11 1.391 . S
C12 H19 0.930 . S
C13 N10 1.328 . S
C13 C15 1.392 . S
C13 H20 0.930 . S
N14 C11 1.329 . S
N14 C15 1.331 . S
C15 C13 1.392 . S
C15 N14 1.331 . S
O16 Zn9 1.975 . S
O16 C17 1.252 1_554 S
C17 O16 1.252 1_556 S
C17 O18 1.253 . S
O18 Zn0 1.975 . S
O18 C17 1.253 . S
H19 C12 0.930 . S
H20 C13 0.930 . S
C21 C22 1.392 . S
C21 N25 1.328 . S
C21 H27 0.930 . S
C22 C21 1.392 . S
C22 N26 1.331 . S
C23 C24 1.391 . S
C23 N26 1.329 . S
C23 H33 0.930 . S
C24 C23 1.391 . S
C24 N25 1.334 . S
C24 H31 0.930 . S
N25 Zn9 2.119 . S
N25 C21 1.328 . S
N25 C24 1.334 . S
N26 C22 1.331 . S
N26 C23 1.329 . S
H27 C21 0.930 . S
C28 O8 1.257 . S
C28 O29 1.244 1_556 S
O29 C28 1.244 1_554 S
O30 C6 1.257 . S
O30 Zn9 2.019 . S
H31 C24 0.930 . S
H32 C11 0.930 . S
H33 C23 0.930 . S
Zn34 N38 2.020 . S
Zn34 O42 2.019 . S
Zn34 N44 2.119 . S
Zn34 O52 1.975 . S
C35 N36 1.323 1_556 S
C35 N39 1.336 . S
N36 C35 1.323 1_554 S
N36 C37 1.345 . S
C37 N36 1.345 . S
C37 N38 1.336 . S
N38 Zn34 2.020 . S
N38 C37 1.336 . S
N38 N39 1.354 1_554 S
N39 C35 1.336 . S
N39 N38 1.354 1_556 S
N39 Zn43 2.020 . S
C40 O41 1.244 1_556 S
C40 O64 1.257 . S
O41 C40 1.244 1_554 S
O42 Zn34 2.019 . S
O42 C62 1.257 . S
Zn43 N39 2.020 . S
Zn43 O50 1.975 . S
Zn43 N59 2.119 . S
Zn43 O64 2.019 . S
N44 Zn34 2.119 . S
N44 C46 1.334 . S
N44 C47 1.328 . S
C45 C46 1.391 . S
C45 N48 1.329 . S
C45 H66 0.930 . S
C46 N44 1.334 . S
C46 C45 1.391 . S
C46 H53 0.930 . S
C47 N44 1.328 . S
C47 C49 1.392 . S
C47 H54 0.930 . S
N48 C45 1.329 . S
N48 C49 1.331 . S
C49 C47 1.392 . S
C49 N48 1.331 . S
O50 Zn43 1.975 . S
O50 C51 1.253 . S
C51 O50 1.253 . S
C51 O52 1.251 1_556 S
O52 Zn34 1.975 . S
O52 C51 1.251 1_554 S
H53 C46 0.930 . S
H54 C47 0.930 . S
C55 C56 1.392 . S
C55 N59 1.328 . S
C55 H61 0.930 . S
C56 C55 1.392 . S
C56 N60 1.331 . S
C57 C58 1.391 . S
C57 N60 1.329 . S
C57 H67 0.930 . S
C58 C57 1.391 . S
C58 N59 1.334 . S
C58 H65 0.930 . S
N59 Zn43 2.119 . S
N59 C55 1.328 . S
N59 C58 1.334 . S
N60 C56 1.331 . S
N60 C57 1.329 . S
H61 C55 0.930 . S
C62 O42 1.257 . S
C62 O63 1.244 1_554 S
O63 C62 1.244 1_556 S
O64 C40 1.257 . S
O64 Zn43 2.019 . S
H65 C58 0.930 . S
H66 C45 0.930 . S
H67 C57 0.930 . S
Zn68 N72 2.020 . S
Zn68 O76 2.019 . S
Zn68 N78 2.119 . S
Zn68 O86 1.975 . S
C69 N70 1.345 . S
C69 N73 1.336 . S
N70 C69 1.345 . S
N70 C71 1.323 1_554 S
C71 N70 1.323 1_556 S
C71 N72 1.336 . S
N72 Zn68 2.020 . S
N72 C71 1.336 . S
N72 N73 1.354 1_556 S
N73 C69 1.336 . S
N73 N72 1.354 1_554 S
N73 Zn77 2.020 . S
C74 O75 1.244 1_554 S
C74 O98 1.257 . S
O75 C74 1.244 1_556 S
O76 Zn68 2.019 . S
O76 C96 1.257 . S
Zn77 N73 2.020 . S
Zn77 O84 1.975 . S
Zn77 N93 2.119 . S
Zn77 O98 2.019 . S
N78 Zn68 2.119 . S
N78 C80 1.334 . S
N78 C81 1.328 . S
C79 C80 1.391 . S
C79 N82 1.329 . S
C79 H100 0.930 . S
C80 N78 1.334 . S
C80 C79 1.391 . S
C80 H87 0.930 . S
C81 N78 1.328 . S
C81 C83 1.392 . S
C81 H88 0.930 . S
N82 C79 1.329 . S
N82 C83 1.331 . S
C83 C81 1.392 . S
C83 N82 1.331 . S
O84 Zn77 1.975 . S
O84 C85 1.252 1_554 S
C85 O84 1.252 1_556 S
C85 O86 1.253 . S
O86 Zn68 1.975 . S
O86 C85 1.253 . S
H87 C80 0.930 . S
H88 C81 0.930 . S
C89 C90 1.392 . S
C89 N93 1.328 . S
C89 H95 0.930 . S
C90 C89 1.392 . S
C90 N94 1.331 . S
C91 C92 1.391 . S
C91 N94 1.329 . S
C91 H101 0.930 . S
C92 C91 1.391 . S
C92 N93 1.334 . S
C92 H99 0.930 . S
N93 Zn77 2.119 . S
N93 C89 1.328 . S
N93 C92 1.334 . S
N94 C90 1.331 . S
N94 C91 1.329 . S
H95 C89 0.930 . S
C96 O76 1.257 . S
C96 O97 1.244 1_556 S
O97 C96 1.244 1_554 S
O98 C74 1.257 . S
O98 Zn77 2.019 . S
H99 C92 0.930 . S
H100 C79 0.930 . S
H101 C91 0.930 . S
Zn102 N106 2.020 . S
Zn102 O110 2.019 . S
Zn102 N112 2.119 . S
Zn102 O120 1.975 . S
C103 N104 1.323 1_556 S
C103 N107 1.336 . S
N104 C103 1.323 1_554 S
N104 C105 1.345 . S
C105 N104 1.345 . S
C105 N106 1.336 . S
N106 Zn102 2.020 . S
N106 C105 1.336 . S
N106 N107 1.354 1_554 S
N107 C103 1.336 . S
N107 N106 1.354 1_556 S
N107 Zn111 2.020 . S
C108 O109 1.244 1_556 S
C108 O132 1.257 . S
O109 C108 1.244 1_554 S
O110 Zn102 2.019 . S
O110 C130 1.257 . S
Zn111 N107 2.020 . S
Zn111 O118 1.975 . S
Zn111 N127 2.119 . S
Zn111 O132 2.019 . S
N112 Zn102 2.119 . S
N112 C114 1.334 . S
N112 C115 1.328 . S
C113 C114 1.391 . S
C113 N116 1.329 . S
C113 H134 0.930 . S
C114 N112 1.334 . S
C114 C113 1.391 . S
C114 H121 0.930 . S
C115 N112 1.328 . S
C115 C117 1.392 . S
C115 H122 0.930 . S
N116 C113 1.329 . S
N116 C117 1.331 . S
C117 C115 1.392 . S
C117 N116 1.331 . S
O118 Zn111 1.975 . S
O118 C119 1.253 . S
C119 O118 1.253 . S
C119 O120 1.251 1_556 S
O120 Zn102 1.975 . S
O120 C119 1.251 1_554 S
H121 C114 0.930 . S
H122 C115 0.930 . S
C123 C124 1.392 . S
C123 N127 1.328 . S
C123 H129 0.930 . S
C124 C123 1.392 . S
C124 N128 1.331 . S
C125 C126 1.391 . S
C125 N128 1.329 . S
C125 H135 0.930 . S
C126 C125 1.391 . S
C126 N127 1.334 . S
C126 H133 0.930 . S
N127 Zn111 2.119 . S
N127 C123 1.328 . S
N127 C126 1.334 . S
N128 C124 1.331 . S
N128 C125 1.329 . S
H129 C123 0.930 . S
C130 O110 1.257 . S
C130 O131 1.244 1_554 S
O131 C130 1.244 1_556 S
O132 C108 1.257 . S
O132 Zn111 2.019 . S
H133 C126 0.930 . S
H134 C113 0.930 . S
H135 C125 0.930 . S
Zn136 N140 2.020 . S
Zn136 O144 2.019 . S
Zn136 N146 2.119 . S
Zn136 O154 1.975 . S
C137 N138 1.345 . S
C137 N141 1.336 . S
N138 C137 1.345 . S
N138 C139 1.323 1_554 S
C139 N138 1.323 1_556 S
C139 N140 1.336 . S
N140 Zn136 2.020 . S
N140 C139 1.336 . S
N140 N141 1.354 1_556 S
N141 C137 1.336 . S
N141 N140 1.354 1_554 S
N141 Zn145 2.020 . S
C142 O143 1.244 1_554 S
C142 O166 1.257 . S
O143 C142 1.244 1_556 S
O144 Zn136 2.019 . S
O144 C164 1.257 . S
Zn145 N141 2.020 . S
Zn145 O152 1.975 . S
Zn145 N161 2.119 . S
Zn145 O166 2.019 . S
N146 Zn136 2.119 . S
N146 C148 1.334 . S
N146 C149 1.328 . S
C147 C148 1.391 . S
C147 N150 1.329 . S
C147 H168 0.930 . S
C148 N146 1.334 . S
C148 C147 1.391 . S
C148 H155 0.930 . S
C149 N146 1.328 . S
C149 C151 1.392 . S
C149 H156 0.930 . S
N150 C147 1.329 . S
N150 C151 1.331 . S
C151 C149 1.392 . S
C151 N150 1.331 . S
O152 Zn145 1.975 . S
O152 C153 1.251 1_554 S
C153 O152 1.251 1_556 S
C153 O154 1.253 . S
O154 Zn136 1.975 . S
O154 C153 1.253 . S
H155 C148 0.930 . S
H156 C149 0.930 . S
C157 C158 1.392 . S
C157 N161 1.328 . S
C157 H163 0.930 . S
C158 C157 1.392 . S
C158 N162 1.331 . S
C159 C160 1.391 . S
C159 N162 1.329 . S
C159 H169 0.930 . S
C160 C159 1.391 . S
C160 N161 1.334 . S
C160 H167 0.930 . S
N161 Zn145 2.119 . S
N161 C157 1.328 . S
N161 C160 1.334 . S
N162 C158 1.331 . S
N162 C159 1.329 . S
H163 C157 0.930 . S
C164 O144 1.257 . S
C164 O165 1.244 1_556 S
O165 C164 1.244 1_554 S
O166 C142 1.257 . S
O166 Zn145 2.019 . S
H167 C160 0.930 . S
H168 C147 0.930 . S
H169 C159 0.930 . S
Zn170 N174 2.020 . S
Zn170 O178 2.019 . S
Zn170 N180 2.119 . S
Zn170 O188 1.975 . S
C171 N172 1.323 1_556 S
C171 N175 1.336 . S
N172 C171 1.323 1_554 S
N172 C173 1.345 . S
C173 N172 1.345 . S
C173 N174 1.336 . S
N174 Zn170 2.020 . S
N174 C173 1.336 . S
N174 N175 1.354 1_554 S
N175 C171 1.336 . S
N175 N174 1.354 1_556 S
N175 Zn179 2.020 . S
C176 O177 1.244 1_556 S
C176 O200 1.257 . S
O177 C176 1.244 1_554 S
O178 Zn170 2.019 . S
O178 C198 1.257 . S
Zn179 N175 2.020 . S
Zn179 O186 1.975 . S
Zn179 N195 2.119 . S
Zn179 O200 2.019 . S
N180 Zn170 2.119 . S
N180 C182 1.334 . S
N180 C183 1.328 . S
C181 C182 1.391 . S
C181 N184 1.329 . S
C181 H202 0.930 . S
C182 N180 1.334 . S
C182 C181 1.391 . S
C182 H189 0.930 . S
C183 N180 1.328 . S
C183 C185 1.392 . S
C183 H190 0.930 . S
N184 C181 1.329 . S
N184 C185 1.331 . S
C185 C183 1.392 . S
C185 N184 1.331 . S
O186 Zn179 1.975 . S
O186 C187 1.253 . S
C187 O186 1.253 . S
C187 O188 1.252 1_556 S
O188 Zn170 1.975 . S
O188 C187 1.252 1_554 S
H189 C182 0.930 . S
H190 C183 0.930 . S
C191 C192 1.392 . S
C191 N195 1.328 . S
C191 H197 0.930 . S
C192 C191 1.392 . S
C192 N196 1.331 . S
C193 C194 1.391 . S
C193 N196 1.329 . S
C193 H203 0.930 . S
C194 C193 1.391 . S
C194 N195 1.334 . S
C194 H201 0.930 . S
N195 Zn179 2.119 . S
N195 C191 1.328 . S
N195 C194 1.334 . S
N196 C192 1.331 . S
N196 C193 1.329 . S
H197 C191 0.930 . S
C198 O178 1.257 . S
C198 O199 1.244 1_554 S
O199 C198 1.244 1_556 S
O200 C176 1.257 . S
O200 Zn179 2.019 . S
H201 C194 0.930 . S
H202 C181 0.930 . S
H203 C193 0.930 . S
Zn204 N208 2.020 . S
Zn204 O212 2.019 . S
Zn204 N214 2.119 . S
Zn204 O222 1.975 . S
C205 N206 1.334 . S
C205 N209 1.336 . S
N206 C205 1.334 . S
N206 C207 1.334 . S
C207 N206 1.334 . S
C207 N208 1.336 . S
N208 Zn204 2.020 . S
N208 C207 1.336 . S
N208 N209 1.354 . S
N209 C205 1.336 . S
N209 N208 1.354 . S
N209 Zn213 2.020 . S
C210 O211 1.244 . S
C210 O234 1.257 . S
O211 C210 1.244 . S
O212 Zn204 2.019 . S
O212 C232 1.257 . S
Zn213 N209 2.020 . S
Zn213 O220 1.975 . S
Zn213 N229 2.119 . S
Zn213 O234 2.019 . S
N214 Zn204 2.119 . S
N214 C216 1.334 . S
N214 C217 1.328 . S
C215 C216 1.391 . S
C215 N218 1.329 . S
C215 H236 0.930 . S
C216 N214 1.334 . S
C216 C215 1.391 . S
C216 H223 0.930 . S
C217 N214 1.328 . S
C217 C219 1.392 . S
C217 H224 0.930 . S
N218 C215 1.329 . S
N218 C219 1.331 . S
C219 C217 1.392 . S
C219 N218 1.331 . S
O220 Zn213 1.975 . S
O220 C221 1.252 . S
C221 O220 1.252 . S
C221 O222 1.252 . S
O222 Zn204 1.975 . S
O222 C221 1.252 . S
H223 C216 0.930 . S
H224 C217 0.930 . S
C225 C226 1.392 . S
C225 N229 1.328 . S
C225 H231 0.930 . S
C226 C225 1.392 . S
C226 N230 1.331 . S
C227 C228 1.391 . S
C227 N230 1.329 . S
C227 H237 0.930 . S
C228 C227 1.391 . S
C228 N229 1.334 . S
C228 H235 0.930 . S
N229 Zn213 2.119 . S
N229 C225 1.328 . S
N229 C228 1.334 . S
N230 C226 1.331 . S
N230 C227 1.329 . S
H231 C225 0.930 . S
C232 O212 1.257 . S
C232 O233 1.244 . S
O233 C232 1.244 . S
O234 C210 1.257 . S
O234 Zn213 2.019 . S
H235 C228 0.930 . S
H236 C215 0.930 . S
H237 C227 0.930 . S
Zn238 N242 2.020 . S
Zn238 O246 2.019 . S
Zn238 N248 2.119 . S
Zn238 O256 1.975 . S
C239 N240 1.334 . S
C239 N243 1.336 . S
N240 C239 1.334 . S
N240 C241 1.334 . S
C241 N240 1.334 . S
C241 N242 1.336 . S
N242 Zn238 2.020 . S
N242 C241 1.336 . S
N242 N243 1.354 . S
N243 C239 1.336 . S
N243 N242 1.354 . S
N243 Zn247 2.020 . S
C244 O245 1.244 . S
C244 O268 1.257 . S
O245 C244 1.244 . S
O246 Zn238 2.019 . S
O246 C266 1.257 . S
Zn247 N243 2.020 . S
Zn247 O254 1.975 . S
Zn247 N263 2.119 . S
Zn247 O268 2.019 . S
N248 Zn238 2.119 . S
N248 C250 1.334 . S
N248 C251 1.328 . S
C249 C250 1.391 . S
C249 N252 1.329 . S
C249 H270 0.930 . S
C250 N248 1.334 . S
C250 C249 1.391 . S
C250 H257 0.930 . S
C251 N248 1.328 . S
C251 C253 1.392 . S
C251 H258 0.930 . S
N252 C249 1.329 . S
N252 C253 1.331 . S
C253 C251 1.392 . S
C253 N252 1.331 . S
O254 Zn247 1.975 . S
O254 C255 1.252 . S
C255 O254 1.252 . S
C255 O256 1.252 . S
O256 Zn238 1.975 . S
O256 C255 1.252 . S
H257 C250 0.930 . S
H258 C251 0.930 . S
C259 C260 1.392 . S
C259 N263 1.328 . S
C259 H265 0.930 . S
C260 C259 1.392 . S
C260 N264 1.331 . S
C261 C262 1.391 . S
C261 N264 1.329 . S
C261 H271 0.930 . S
C262 C261 1.391 . S
C262 N263 1.334 . S
C262 H269 0.930 . S
N263 Zn247 2.119 . S
N263 C259 1.328 . S
N263 C262 1.334 . S
N264 C260 1.331 . S
N264 C261 1.329 . S
H265 C259 0.930 . S
C266 O246 1.257 . S
C266 O267 1.244 . S
O267 C266 1.244 . S
O268 C244 1.257 . S
O268 Zn247 2.019 . S
H269 C262 0.930 . S
H270 C249 0.930 . S
H271 C261 0.930 . S
Zn272 N276 2.020 . S
Zn272 O280 2.019 . S
Zn272 N282 2.119 . S
Zn272 O290 1.975 . S
C273 N274 1.334 . S
C273 N277 1.336 . S
N274 C273 1.334 . S
N274 C275 1.334 . S
C275 N274 1.334 . S
C275 N276 1.336 . S
N276 Zn272 2.020 . S
N276 C275 1.336 . S
N276 N277 1.354 . S
N277 C273 1.336 . S
N277 N276 1.354 . S
N277 Zn281 2.020 . S
C278 O279 1.244 . S
C278 O302 1.257 . S
O279 C278 1.244 . S
O280 Zn272 2.019 . S
O280 C300 1.257 . S
Zn281 N277 2.020 . S
Zn281 O288 1.975 . S
Zn281 N297 2.119 . S
Zn281 O302 2.019 . S
N282 Zn272 2.119 . S
N282 C284 1.334 . S
N282 C285 1.328 . S
C283 C284 1.391 . S
C283 N286 1.329 . S
C283 H304 0.930 . S
C284 N282 1.334 . S
C284 C283 1.391 . S
C284 H291 0.930 . S
C285 N282 1.328 . S
C285 C287 1.392 . S
C285 H292 0.930 . S
N286 C283 1.329 . S
N286 C287 1.331 . S
C287 C285 1.392 . S
C287 N286 1.331 . S
O288 Zn281 1.975 . S
O288 C289 1.252 . S
C289 O288 1.252 . S
C289 O290 1.252 . S
O290 Zn272 1.975 . S
O290 C289 1.252 . S
H291 C284 0.930 . S
H292 C285 0.930 . S
C293 C294 1.392 . S
C293 N297 1.328 . S
C293 H299 0.930 . S
C294 C293 1.392 . S
C294 N298 1.331 . S
C295 C296 1.391 . S
C295 N298 1.329 . S
C295 H305 0.930 . S
C296 C295 1.391 . S
C296 N297 1.334 . S
C296 H303 0.930 . S
N297 Zn281 2.119 . S
N297 C293 1.328 . S
N297 C296 1.334 . S
N298 C294 1.331 . S
N298 C295 1.329 . S
H299 C293 0.930 . S
C300 O280 1.257 . S
C300 O301 1.244 . S
O301 C300 1.244 . S
O302 C278 1.257 . S
O302 Zn281 2.019 . S
H303 C296 0.930 . S
H304 C283 0.930 . S
H305 C295 0.930 . S
Zn306 N310 2.020 . S
Zn306 O314 2.019 . S
Zn306 N316 2.119 . S
Zn306 O324 1.975 . S
C307 N308 1.334 . S
C307 N311 1.336 . S
N308 C307 1.334 . S
N308 C309 1.334 . S
C309 N308 1.334 . S
C309 N310 1.336 . S
N310 Zn306 2.020 . S
N310 C309 1.336 . S
N310 N311 1.354 . S
N311 C307 1.336 . S
N311 N310 1.354 . S
N311 Zn315 2.020 . S
C312 O313 1.244 . S
C312 O336 1.257 . S
O313 C312 1.244 . S
O314 Zn306 2.019 . S
O314 C334 1.257 . S
Zn315 N311 2.020 . S
Zn315 O322 1.975 . S
Zn315 N331 2.119 . S
Zn315 O336 2.019 . S
N316 Zn306 2.119 . S
N316 C318 1.334 . S
N316 C319 1.328 . S
C317 C318 1.391 . S
C317 N320 1.329 . S
C317 H338 0.930 . S
C318 N316 1.334 . S
C318 C317 1.391 . S
C318 H325 0.930 . S
C319 N316 1.328 . S
C319 C321 1.392 . S
C319 H326 0.930 . S
N320 C317 1.329 . S
N320 C321 1.331 . S
C321 C319 1.392 . S
C321 N320 1.331 . S
O322 Zn315 1.975 . S
O322 C323 1.252 . S
C323 O322 1.252 . S
C323 O324 1.252 . S
O324 Zn306 1.975 . S
O324 C323 1.252 . S
H325 C318 0.930 . S
H326 C319 0.930 . S
C327 C328 1.392 . S
C327 N331 1.328 . S
C327 H333 0.930 . S
C328 C327 1.392 . S
C328 N332 1.331 . S
C329 C330 1.391 . S
C329 N332 1.329 . S
C329 H339 0.930 . S
C330 C329 1.391 . S
C330 N331 1.334 . S
C330 H337 0.930 . S
N331 Zn315 2.119 . S
N331 C327 1.328 . S
N331 C330 1.334 . S
N332 C328 1.331 . S
N332 C329 1.329 . S
H333 C327 0.930 . S
C334 O314 1.257 . S
C334 O335 1.244 . S
O335 C334 1.244 . S
O336 C312 1.257 . S
O336 Zn315 2.019 . S
H337 C330 0.930 . S
H338 C317 0.930 . S
H339 C329 0.930 . S
Zn340 N344 2.020 . S
Zn340 O348 2.019 . S
Zn340 N350 2.119 . S
Zn340 O358 1.975 . S
C341 N342 1.334 . S
C341 N345 1.336 . S
N342 C341 1.334 . S
N342 C343 1.334 . S
C343 N342 1.334 . S
C343 N344 1.336 . S
N344 Zn340 2.020 . S
N344 C343 1.336 . S
N344 N345 1.354 . S
N345 C341 1.336 . S
N345 N344 1.354 . S
N345 Zn349 2.020 . S
C346 O347 1.244 . S
C346 O370 1.257 . S
O347 C346 1.244 . S
O348 Zn340 2.019 . S
O348 C368 1.257 . S
Zn349 N345 2.020 . S
Zn349 O356 1.975 . S
Zn349 N365 2.119 . S
Zn349 O370 2.019 . S
N350 Zn340 2.119 . S
N350 C352 1.334 . S
N350 C353 1.328 . S
C351 C352 1.391 . S
C351 N354 1.329 . S
C351 H372 0.930 . S
C352 N350 1.334 . S
C352 C351 1.391 . S
C352 H359 0.930 . S
C353 N350 1.328 . S
C353 C355 1.392 . S
C353 H360 0.930 . S
N354 C351 1.329 . S
N354 C355 1.331 . S
C355 C353 1.392 . S
C355 N354 1.331 . S
O356 Zn349 1.975 . S
O356 C357 1.252 . S
C357 O356 1.252 . S
C357 O358 1.252 . S
O358 Zn340 1.975 . S
O358 C357 1.252 . S
H359 C352 0.930 . S
H360 C353 0.930 . S
C361 C362 1.392 . S
C361 N365 1.328 . S
C361 H367 0.930 . S
C362 C361 1.392 . S
C362 N366 1.331 . S
C363 C364 1.391 . S
C363 N366 1.329 . S
C363 H373 0.930 . S
C364 C363 1.391 . S
C364 N365 1.334 . S
C364 H371 0.930 . S
N365 Zn349 2.119 . S
N365 C361 1.328 . S
N365 C364 1.334 . S
N366 C362 1.331 . S
N366 C363 1.329 . S
H367 C361 0.930 . S
C368 O348 1.257 . S
C368 O369 1.244 . S
O369 C368 1.244 . S
O370 C346 1.257 . S
O370 Zn349 2.019 . S
H371 C364 0.930 . S
H372 C351 0.930 . S
H373 C363 0.930 . S
Zn374 N378 2.020 . S
Zn374 O382 2.019 . S
Zn374 N384 2.119 . S
Zn374 O392 1.975 . S
C375 N376 1.334 . S
C375 N379 1.336 . S
N376 C375 1.334 . S
N376 C377 1.334 . S
C377 N376 1.334 . S
C377 N378 1.336 . S
N378 Zn374 2.020 . S
N378 C377 1.336 . S
N378 N379 1.354 . S
N379 C375 1.336 . S
N379 N378 1.354 . S
N379 Zn383 2.020 . S
C380 O381 1.244 . S
C380 O404 1.257 . S
O381 C380 1.244 . S
O382 Zn374 2.019 . S
O382 C402 1.257 . S
Zn383 N379 2.020 . S
Zn383 O390 1.975 . S
Zn383 N399 2.119 . S
Zn383 O404 2.019 . S
N384 Zn374 2.119 . S
N384 C386 1.334 . S
N384 C387 1.328 . S
C385 C386 1.391 . S
C385 N388 1.329 . S
C385 H406 0.930 . S
C386 N384 1.334 . S
C386 C385 1.391 . S
C386 H393 0.930 . S
C387 N384 1.328 . S
C387 C389 1.392 . S
C387 H394 0.930 . S
N388 C385 1.329 . S
N388 C389 1.331 . S
C389 C387 1.392 . S
C389 N388 1.331 . S
O390 Zn383 1.975 . S
O390 C391 1.252 . S
C391 O390 1.252 . S
C391 O392 1.252 . S
O392 Zn374 1.975 . S
O392 C391 1.252 . S
H393 C386 0.930 . S
H394 C387 0.930 . S
C395 C396 1.392 . S
C395 N399 1.328 . S
C395 H401 0.930 . S
C396 C395 1.392 . S
C396 N400 1.331 . S
C397 C398 1.391 . S
C397 N400 1.329 . S
C397 H407 0.930 . S
C398 C397 1.391 . S
C398 N399 1.334 . S
C398 H405 0.930 . S
N399 Zn383 2.119 . S
N399 C395 1.328 . S
N399 C398 1.334 . S
N400 C396 1.331 . S
N400 C397 1.329 . S
H401 C395 0.930 . S
C402 O382 1.257 . S
C402 O403 1.244 . S
O403 C402 1.244 . S
O404 C380 1.257 . S
O404 Zn383 2.019 . S
H405 C398 0.930 . S
H406 C385 0.930 . S
H407 C397 0.930 . S
C408 C409 1.363 . S
C408 C414 1.379 . S
C408 N416 1.356 . S
C409 C408 1.363 . S
C409 C415 1.363 1_556 S
C410 C411 1.363 1_554 S
C410 C415 1.379 . S
C410 N417 1.356 . S
C411 C410 1.363 1_556 S
C411 C414 1.363 . S
N412 C414 1.356 . S
N412 H424 0.984 . S
N412 H425 0.985 . S
N413 C415 1.356 . S
N413 H418 0.984 1_565 S
N413 H419 0.985 . S
C414 C408 1.379 . S
C414 C411 1.363 . S
C414 N412 1.356 . S
C415 C409 1.363 1_554 S
C415 C410 1.379 . S
C415 N413 1.356 . S
N416 C408 1.356 . S
N416 H422 0.984 . S
N416 H423 0.984 1_565 S
N417 C410 1.356 . S
N417 H420 0.984 . S
N417 H421 0.985 . S
H418 N413 0.984 1_545 S
H419 N413 0.985 . S
H420 N417 0.984 . S
H421 N417 0.985 . S
H422 N416 0.984 . S
H423 N416 0.984 1_545 S
H424 N412 0.984 . S
H425 N412 0.985 . S
C426 C427 1.363 1_554 S
C426 C432 1.379 . S
C426 N434 1.356 . S
C427 C426 1.363 1_556 S
C427 C433 1.363 . S
C428 C429 1.363 . S
C428 C433 1.379 . S
C428 N435 1.356 . S
C429 C428 1.363 . S
C429 C432 1.363 1_556 S
N430 C432 1.356 . S
N430 H442 0.984 . S
N430 H443 0.985 . S
N431 C433 1.356 . S
N431 H436 0.984 . S
N431 H437 0.985 . S
C432 C426 1.379 . S
C432 C429 1.363 1_554 S
C432 N430 1.356 . S
C433 C427 1.363 . S
C433 C428 1.379 . S
C433 N431 1.356 . S
N434 C426 1.356 . S
N434 H440 0.984 . S
N434 H441 0.984 . S
N435 C428 1.356 . S
N435 H438 0.984 . S
N435 H439 0.985 . S
H436 N431 0.984 . S
H437 N431 0.985 . S
H438 N435 0.984 . S
H439 N435 0.985 . S
H440 N434 0.984 . S
H441 N434 0.984 . S
H442 N430 0.984 . S
H443 N430 0.985 . S
C444 C445 1.363 . S
C444 C450 1.379 . S
C444 N452 1.356 . S
C445 C444 1.363 . S
C445 C451 1.363 1_556 S
C446 C447 1.363 1_554 S
C446 C451 1.379 . S
C446 N453 1.356 . S
C447 C446 1.363 1_556 S
C447 C450 1.363 . S
N448 C450 1.356 . S
N448 H460 0.984 . S
N448 H461 0.985 . S
N449 C451 1.356 . S
N449 H454 0.984 1_455 S
N449 H455 0.985 . S
C450 C444 1.379 . S
C450 C447 1.363 . S
C450 N448 1.356 . S
C451 C445 1.363 1_554 S
C451 C446 1.379 . S
C451 N449 1.356 . S
N452 C444 1.356 . S
N452 H458 0.984 . S
N452 H459 0.984 1_455 S
N453 C446 1.356 . S
N453 H456 0.984 . S
N453 H457 0.985 . S
H454 N449 0.984 1_655 S
H455 N449 0.985 . S
H456 N453 0.984 . S
H457 N453 0.985 . S
H458 N452 0.984 . S
H459 N452 0.984 1_655 S
H460 N448 0.984 . S
H461 N448 0.985 . S
C462 C463 1.363 1_554 S
C462 C468 1.379 . S
C462 N470 1.356 . S
C463 C462 1.363 1_556 S
C463 C469 1.363 . S
C464 C465 1.363 . S
C464 C469 1.379 . S
C464 N471 1.356 . S
C465 C464 1.363 . S
C465 C468 1.363 1_556 S
N466 C468 1.356 . S
N466 H478 0.984 . S
N466 H479 0.985 . S
N467 C469 1.356 . S
N467 H472 0.984 1_545 S
N467 H473 0.985 . S
C468 C462 1.379 . S
C468 C465 1.363 1_554 S
C468 N466 1.356 . S
C469 C463 1.363 . S
C469 C464 1.379 . S
C469 N467 1.356 . S
N470 C462 1.356 . S
N470 H476 0.984 . S
N470 H477 0.984 1_545 S
N471 C464 1.356 . S
N471 H474 0.984 . S
N471 H475 0.985 . S
H472 N467 0.984 1_565 S
H473 N467 0.985 . S
H474 N471 0.984 . S
H475 N471 0.985 . S
H476 N470 0.984 . S
H477 N470 0.984 1_565 S
H478 N466 0.984 . S
H479 N466 0.985 . S
C480 C481 1.363 . S
C480 C486 1.379 . S
C480 N488 1.356 . S
C481 C480 1.363 . S
C481 C487 1.363 . S
C482 C483 1.363 1_554 S
C482 C487 1.379 1_554 S
C482 N489 1.356 . S
C483 C482 1.363 1_556 S
C483 C486 1.363 . S
N484 C486 1.356 . S
N484 H496 0.984 . S
N484 H497 0.985 . S
N485 C487 1.356 . S
N485 H490 0.984 . S
N485 H491 0.980 1_556 S
C486 C480 1.379 . S
C486 C483 1.363 . S
C486 N484 1.356 . S
C487 C481 1.363 . S
C487 C482 1.379 1_556 S
C487 N485 1.356 . S
N488 C480 1.356 . S
N488 H494 0.984 . S
N488 H495 0.984 . S
N489 C482 1.356 . S
N489 H492 0.984 . S
N489 H493 0.985 . S
H490 N485 0.984 . S
H491 N485 0.980 1_554 S
H492 N489 0.984 . S
H493 N489 0.985 . S
H494 N488 0.984 . S
H495 N488 0.984 . S
H496 N484 0.984 . S
H497 N484 0.985 . S
C498 C499 1.363 1_554 S
C498 C504 1.379 . S
C498 N506 1.356 . S
C499 C498 1.363 1_556 S
C499 C505 1.363 . S
C500 C501 1.363 . S
C500 C505 1.379 . S
C500 N507 1.356 . S
C501 C500 1.363 . S
C501 C504 1.363 1_556 S
N502 C504 1.356 . S
N502 H514 0.984 . S
N502 H515 0.985 . S
N503 C505 1.356 . S
N503 H508 0.984 1_655 S
N503 H509 0.985 . S
C504 C498 1.379 . S
C504 C501 1.363 1_554 S
C504 N502 1.356 . S
C505 C499 1.363 . S
C505 C500 1.379 . S
C505 N503 1.356 . S
N506 C498 1.356 . S
N506 H512 0.984 . S
N506 H513 0.984 1_655 S
N507 C500 1.356 . S
N507 H510 0.984 . S
N507 H511 0.985 . S
H508 N503 0.984 1_455 S
H509 N503 0.985 . S
H510 N507 0.984 . S
H511 N507 0.985 . S
H512 N506 0.984 . S
H513 N506 0.984 1_455 S
H514 N502 0.984 . S
H515 N502 0.985 . S
C516 C517 1.363 . S
C516 C522 1.379 . S
C516 N524 1.356 . S
C517 C516 1.363 . S
C517 C523 1.363 . S
C518 C519 1.363 . S
C518 C523 1.379 . S
C518 N525 1.356 . S
C519 C518 1.363 . S
C519 C522 1.363 . S
N520 C522 1.356 . S
N520 H532 0.984 . S
N520 H533 0.985 . S
N521 C523 1.356 . S
N521 H526 0.984 1_455 S
N521 H527 0.985 . S
C522 C516 1.379 . S
C522 C519 1.363 . S
C522 N520 1.356 . S
C523 C517 1.363 . S
C523 C518 1.379 . S
C523 N521 1.356 . S
N524 C516 1.356 . S
N524 H530 0.984 . S
N524 H531 0.984 1_455 S
N525 C518 1.356 . S
N525 H528 0.984 . S
N525 H529 0.985 . S
H526 N521 0.984 1_655 S
H527 N521 0.985 . S
H528 N525 0.984 . S
H529 N525 0.985 . S
H530 N524 0.984 . S
H531 N524 0.984 1_655 S
H532 N520 0.984 . S
H533 N520 0.985 . S
C534 C535 1.363 . S
C534 C540 1.379 . S
C534 N542 1.356 . S
C535 C534 1.363 . S
C535 C541 1.363 . S
C536 C537 1.363 . S
C536 C541 1.379 . S
C536 N543 1.356 . S
C537 C536 1.363 . S
C537 C540 1.363 . S
N538 C540 1.356 . S
N538 H550 0.984 . S
N538 H551 0.985 . S
N539 C541 1.356 . S
N539 H544 0.984 1_545 S
N539 H545 0.985 . S
C540 C534 1.379 . S
C540 C537 1.363 . S
C540 N538 1.356 . S
C541 C535 1.363 . S
C541 C536 1.379 . S
C541 N539 1.356 . S
N542 C534 1.356 . S
N542 H548 0.984 . S
N542 H549 0.984 1_545 S
N543 C536 1.356 . S
N543 H546 0.984 . S
N543 H547 0.985 . S
H544 N539 0.984 1_565 S
H545 N539 0.985 . S
H546 N543 0.984 . S
H547 N543 0.985 . S
H548 N542 0.984 . S
H549 N542 0.984 1_565 S
H550 N538 0.984 . S
H551 N538 0.985 . S
C552 C553 1.363 . S
C552 C558 1.379 . S
C552 N560 1.356 . S
C553 C552 1.363 . S
C553 C559 1.363 . S
C554 C555 1.363 . S
C554 C559 1.379 . S
C554 N561 1.356 . S
C555 C554 1.363 . S
C555 C558 1.363 . S
N556 C558 1.356 . S
N556 H568 0.984 . S
N556 H569 0.985 . S
N557 C559 1.356 . S
N557 H562 0.984 . S
N557 H563 0.985 . S
C558 C552 1.379 . S
C558 C555 1.363 . S
C558 N556 1.356 . S
C559 C553 1.363 . S
C559 C554 1.379 . S
C559 N557 1.356 . S
N560 C552 1.356 . S
N560 H566 0.984 . S
N560 H567 0.984 . S
N561 C554 1.356 . S
N561 H564 0.984 . S
N561 H565 0.985 . S
H562 N557 0.984 . S
H563 N557 0.985 . S
H564 N561 0.984 . S
H565 N561 0.985 . S
H566 N560 0.984 . S
H567 N560 0.984 . S
H568 N556 0.984 . S
H569 N556 0.985 . S
C570 C571 1.363 . S
C570 C576 1.379 . S
C570 N578 1.356 . S
C571 C570 1.363 . S
C571 C577 1.363 . S
C572 C573 1.363 . S
C572 C577 1.379 . S
C572 N579 1.356 . S
C573 C572 1.363 . S
C573 C576 1.363 . S
N574 C576 1.356 . S
N574 H586 0.984 . S
N574 H587 0.985 1_655 S
N575 C577 1.356 . S
N575 H580 0.984 . S
N575 H581 0.985 . S
C576 C570 1.379 . S
C576 C573 1.363 . S
C576 N574 1.356 . S
C577 C571 1.363 . S
C577 C572 1.379 . S
C577 N575 1.356 . S
N578 C570 1.356 . S
N578 H584 0.984 . S
N578 H585 0.984 . S
N579 C572 1.356 . S
N579 H582 0.984 1_655 S
N579 H583 0.985 . S
H580 N575 0.984 . S
H581 N575 0.985 . S
H582 N579 0.984 1_455 S
H583 N579 0.985 . S
H584 N578 0.984 . S
H585 N578 0.984 . S
H586 N574 0.984 . S
H587 N574 0.985 1_455 S
C588 C589 1.363 . S
C588 C594 1.379 . S
C588 N596 1.356 . S
C589 C588 1.363 . S
C589 C595 1.363 . S
C590 C591 1.363 . S
C590 C595 1.379 . S
C590 N597 1.356 . S
C591 C590 1.363 . S
C591 C594 1.363 . S
N592 C594 1.356 . S
N592 H604 0.984 . S
N592 H605 0.985 1_565 S
N593 C595 1.356 . S
N593 H598 0.984 . S
N593 H599 0.985 . S
C594 C588 1.379 . S
C594 C591 1.363 . S
C594 N592 1.356 . S
C595 C589 1.363 . S
C595 C590 1.379 . S
C595 N593 1.356 . S
N596 C588 1.356 . S
N596 H602 0.984 . S
N596 H603 0.984 . S
N597 C590 1.356 . S
N597 H600 0.984 1_565 S
N597 H601 0.985 . S
H598 N593 0.984 . S
H599 N593 0.985 . S
H600 N597 0.984 1_545 S
H601 N597 0.985 . S
H602 N596 0.984 . S
H603 N596 0.984 . S
H604 N592 0.984 . S
H605 N592 0.985 1_545 S
C606 C607 1.363 . S
C606 C612 1.379 . S
C606 N614 1.356 . S
C607 C606 1.363 . S
C607 C613 1.363 . S
C608 C609 1.363 . S
C608 C613 1.379 . S
C608 N615 1.356 . S
C609 C608 1.363 . S
C609 C612 1.363 . S
N610 C612 1.356 . S
N610 H622 0.984 . S
N610 H623 0.985 . S
N611 C613 1.356 . S
N611 H616 0.984 . S
N611 H617 0.985 . S
C612 C606 1.379 . S
C612 C609 1.363 . S
C612 N610 1.356 . S
C613 C607 1.363 . S
C613 C608 1.379 . S
C613 N611 1.356 . S
N614 C606 1.356 . S
N614 H620 0.984 . S
N614 H621 0.984 . S
N615 C608 1.356 . S
N615 H618 0.984 . S
N615 H619 0.985 . S
H616 N611 0.984 . S
H617 N611 0.985 . S
H618 N615 0.984 . S
H619 N615 0.985 . S
H620 N614 0.984 . S
H621 N614 0.984 . S
H622 N610 0.984 . S
H623 N610 0.985 . S
C624 C625 1.363 . S
C624 C630 1.379 . S
C624 N632 1.356 . S
C625 C624 1.363 . S
C625 C631 1.363 . S
C626 C627 1.363 . S
C626 C631 1.379 . S
C626 N633 1.356 . S
C627 C626 1.363 . S
C627 C630 1.363 . S
N628 C630 1.356 . S
N628 H640 0.984 . S
N628 H641 0.985 . S
N629 C631 1.356 . S
N629 H634 0.984 . S
N629 H635 0.985 . S
C630 C624 1.379 . S
C630 C627 1.363 . S
C630 N628 1.356 . S
C631 C625 1.363 . S
C631 C626 1.379 . S
C631 N629 1.356 . S
N632 C624 1.356 . S
N632 H638 0.984 . S
N632 H639 0.984 . S
N633 C626 1.356 . S
N633 H636 0.984 . S
N633 H637 0.985 . S
H634 N629 0.984 . S
H635 N629 0.985 . S
H636 N633 0.984 . S
H637 N633 0.985 . S
H638 N632 0.984 . S
H639 N632 0.984 . S
H640 N628 0.984 . S
H641 N628 0.985 . S
C642 C643 1.363 . S
C642 C648 1.379 . S
C642 N650 1.356 . S
C643 C642 1.363 . S
C643 C649 1.363 . S
C644 C645 1.363 . S
C644 C649 1.379 . S
C644 N651 1.356 . S
C645 C644 1.363 . S
C645 C648 1.363 . S
N646 C648 1.356 . S
N646 H658 0.984 . S
N646 H659 0.985 . S
N647 C649 1.356 . S
N647 H652 0.984 . S
N647 H653 0.985 . S
C648 C642 1.379 . S
C648 C645 1.363 . S
C648 N646 1.356 . S
C649 C643 1.363 . S
C649 C644 1.379 . S
C649 N647 1.356 . S
N650 C642 1.356 . S
N650 H656 0.984 . S
N650 H657 0.984 . S
N651 C644 1.356 . S
N651 H654 0.984 . S
N651 H655 0.985 . S
H652 N647 0.984 . S
H653 N647 0.985 . S
H654 N651 0.984 . S
H655 N651 0.985 . S
H656 N650 0.984 . S
H657 N650 0.984 . S
H658 N646 0.984 . S
H659 N646 0.985 . S
C660 C661 1.363 . S
C660 C666 1.379 . S
C660 N668 1.356 . S
C661 C660 1.363 . S
C661 C667 1.363 . S
C662 C663 1.363 . S
C662 C667 1.379 . S
C662 N669 1.356 . S
C663 C662 1.363 . S
C663 C666 1.363 . S
N664 C666 1.356 . S
N664 H676 0.984 . S
N664 H677 0.985 . S
N665 C667 1.356 . S
N665 H670 0.984 . S
N665 H671 0.985 . S
C666 C660 1.379 . S
C666 C663 1.363 . S
C666 N664 1.356 . S
C667 C661 1.363 . S
C667 C662 1.379 . S
C667 N665 1.356 . S
N668 C660 1.356 . S
N668 H674 0.984 . S
N668 H675 0.984 . S
N669 C662 1.356 . S
N669 H672 0.984 . S
N669 H673 0.985 . S
H670 N665 0.984 . S
H671 N665 0.985 . S
H672 N669 0.984 . S
H673 N669 0.985 . S
H674 N668 0.984 . S
H675 N668 0.984 . S
H676 N664 0.984 . S
H677 N664 0.985 . S
C678 C679 1.363 . S
C678 C684 1.379 . S
C678 N686 1.356 . S
C679 C678 1.363 . S
C679 C685 1.363 . S
C680 C681 1.363 . S
C680 C685 1.379 . S
C680 N687 1.356 . S
C681 C680 1.363 . S
C681 C684 1.363 . S
N682 C684 1.356 . S
N682 H694 0.984 . S
N682 H695 0.985 . S
N683 C685 1.356 . S
N683 H688 0.984 . S
N683 H689 0.985 . S
C684 C678 1.379 . S
C684 C681 1.363 . S
C684 N682 1.356 . S
C685 C679 1.363 . S
C685 C680 1.379 . S
C685 N683 1.356 . S
N686 C678 1.356 . S
N686 H692 0.984 . S
N686 H693 0.984 . S
N687 C680 1.356 . S
N687 H690 0.984 . S
N687 H691 0.985 . S
H688 N683 0.984 . S
H689 N683 0.985 . S
H690 N687 0.984 . S
H691 N687 0.985 . S
H692 N686 0.984 . S
H693 N686 0.984 . S
H694 N682 0.984 . S
H695 N682 0.985 . S
C696 C697 1.363 . S
C696 C702 1.379 . S
C696 N704 1.356 . S
C697 C696 1.363 . S
C697 C703 1.363 . S
C698 C699 1.363 . S
C698 C703 1.379 . S
C698 N705 1.356 . S
C699 C698 1.363 . S
C699 C702 1.363 . S
N700 C702 1.356 . S
N700 H712 0.984 . S
N700 H713 0.985 . S
N701 C703 1.356 . S
N701 H706 0.984 . S
N701 H707 0.985 . S
C702 C696 1.379 . S
C702 C699 1.363 . S
C702 N700 1.356 . S
C703 C697 1.363 . S
C703 C698 1.379 . S
C703 N701 1.356 . S
N704 C696 1.356 . S
N704 H710 0.984 . S
N704 H711 0.984 . S
N705 C698 1.356 . S
N705 H708 0.984 . S
N705 H709 0.985 . S
H706 N701 0.984 . S
H707 N701 0.985 . S
H708 N705 0.984 . S
H709 N705 0.985 . S
H710 N704 0.984 . S
H711 N704 0.984 . S
H712 N700 0.984 . S
H713 N700 0.985 . S
C714 C715 1.363 . S
C714 C720 1.379 . S
C714 N722 1.356 . S
C715 C714 1.363 . S
C715 C721 1.363 . S
C716 C717 1.363 . S
C716 C721 1.379 . S
C716 N723 1.356 . S
C717 C716 1.363 . S
C717 C720 1.363 . S
N718 C720 1.356 . S
N718 H730 0.984 . S
N718 H731 0.985 . S
N719 C721 1.356 . S
N719 H724 0.984 . S
N719 H725 0.985 . S
C720 C714 1.379 . S
C720 C717 1.363 . S
C720 N718 1.356 . S
C721 C715 1.363 . S
C721 C716 1.379 . S
C721 N719 1.356 . S
N722 C714 1.356 . S
N722 H728 0.984 . S
N722 H729 0.984 . S
N723 C716 1.356 . S
N723 H726 0.984 . S
N723 H727 0.985 . S
H724 N719 0.984 . S
H725 N719 0.985 . S
H726 N723 0.984 . S
H727 N723 0.985 . S
H728 N722 0.984 . S
H729 N722 0.984 . S
H730 N718 0.984 . S
H731 N718 0.985 . S
C732 C733 1.363 . S
C732 C738 1.379 . S
C732 N740 1.356 . S
C733 C732 1.363 . S
C733 C739 1.363 . S
C734 C735 1.363 . S
C734 C739 1.379 . S
C734 N741 1.356 . S
C735 C734 1.363 . S
C735 C738 1.363 . S
N736 C738 1.356 . S
N736 H748 0.984 . S
N736 H749 0.985 . S
N737 C739 1.356 . S
N737 H742 0.984 . S
N737 H743 0.985 . S
C738 C732 1.379 . S
C738 C735 1.363 . S
C738 N736 1.356 . S
C739 C733 1.363 . S
C739 C734 1.379 . S
C739 N737 1.356 . S
N740 C732 1.356 . S
N740 H746 0.984 . S
N740 H747 0.984 . S
N741 C734 1.356 . S
N741 H744 0.984 . S
N741 H745 0.985 . S
H742 N737 0.984 . S
H743 N737 0.985 . S
H744 N741 0.984 . S
H745 N741 0.985 . S
H746 N740 0.984 . S
H747 N740 0.984 . S
H748 N736 0.984 . S
H749 N736 0.985 . S
C750 C751 1.363 . S
C750 C756 1.379 . S
C750 N758 1.356 . S
C751 C750 1.363 . S
C751 C757 1.363 . S
C752 C753 1.363 . S
C752 C757 1.379 . S
C752 N759 1.356 . S
C753 C752 1.363 . S
C753 C756 1.363 . S
N754 C756 1.356 . S
N754 H766 0.984 . S
N754 H767 0.985 . S
N755 C757 1.356 . S
N755 H760 0.984 . S
N755 H761 0.985 . S
C756 C750 1.379 . S
C756 C753 1.363 . S
C756 N754 1.356 . S
C757 C751 1.363 . S
C757 C752 1.379 . S
C757 N755 1.356 . S
N758 C750 1.356 . S
N758 H764 0.984 . S
N758 H765 0.984 . S
N759 C752 1.356 . S
N759 H762 0.984 . S
N759 H763 0.985 . S
H760 N755 0.984 . S
H761 N755 0.985 . S
H762 N759 0.984 . S
H763 N759 0.985 . S
H764 N758 0.984 . S
H765 N758 0.984 . S
H766 N754 0.984 . S
H767 N754 0.985 . S
C768 C769 1.363 . S
C768 C774 1.379 . S
C768 N776 1.356 . S
C769 C768 1.363 . S
C769 C775 1.363 . S
C770 C771 1.363 . S
C770 C775 1.379 . S
C770 N777 1.356 . S
C771 C770 1.363 . S
C771 C774 1.363 . S
N772 C774 1.356 . S
N772 H784 0.984 . S
N772 H785 0.985 . S
N773 C775 1.356 . S
N773 H778 0.984 . S
N773 H779 0.985 . S
C774 C768 1.379 . S
C774 C771 1.363 . S
C774 N772 1.356 . S
C775 C769 1.363 . S
C775 C770 1.379 . S
C775 N773 1.356 . S
N776 C768 1.356 . S
N776 H782 0.984 . S
N776 H783 0.984 . S
N777 C770 1.356 . S
N777 H780 0.984 . S
N777 H781 0.985 . S
H778 N773 0.984 . S
H779 N773 0.985 . S
H780 N777 0.984 . S
H781 N777 0.985 . S
H782 N776 0.984 . S
H783 N776 0.984 . S
H784 N772 0.984 . S
H785 N772 0.985 . S
C786 C787 1.363 . S
C786 C792 1.379 . S
C786 N794 1.356 . S
C787 C786 1.363 . S
C787 C793 1.363 . S
C788 C789 1.363 . S
C788 C793 1.379 . S
C788 N795 1.356 . S
C789 C788 1.363 . S
C789 C792 1.363 . S
N790 C792 1.356 . S
N790 H802 0.984 . S
N790 H803 0.985 . S
N791 C793 1.356 . S
N791 H796 0.984 . S
N791 H797 0.985 . S
C792 C786 1.379 . S
C792 C789 1.363 . S
C792 N790 1.356 . S
C793 C787 1.363 . S
C793 C788 1.379 . S
C793 N791 1.356 . S
N794 C786 1.356 . S
N794 H800 0.984 . S
N794 H801 0.984 . S
N795 C788 1.356 . S
N795 H798 0.984 . S
N795 H799 0.985 . S
H796 N791 0.984 . S
H797 N791 0.985 . S
H798 N795 0.984 . S
H799 N795 0.985 . S
H800 N794 0.984 . S
H801 N794 0.984 . S
H802 N790 0.984 . S
H803 N790 0.985 . S
C804 C805 1.363 . S
C804 C810 1.379 . S
C804 N812 1.356 . S
C805 C804 1.363 . S
C805 C811 1.363 . S
C806 C807 1.363 . S
C806 C811 1.379 . S
C806 N813 1.356 . S
C807 C806 1.363 . S
C807 C810 1.363 . S
N808 C810 1.356 . S
N808 H820 0.984 . S
N808 H821 0.985 . S
N809 C811 1.356 . S
N809 H814 0.984 . S
N809 H815 0.985 . S
C810 C804 1.379 . S
C810 C807 1.363 . S
C810 N808 1.356 . S
C811 C805 1.363 . S
C811 C806 1.379 . S
C811 N809 1.356 . S
N812 C804 1.356 . S
N812 H818 0.984 . S
N812 H819 0.984 . S
N813 C806 1.356 . S
N813 H816 0.984 . S
N813 H817 0.985 . S
H814 N809 0.984 . S
H815 N809 0.985 . S
H816 N813 0.984 . S
H817 N813 0.985 . S
H818 N812 0.984 . S
H819 N812 0.984 . S
H820 N808 0.984 . S
H821 N808 0.985 . S
C822 C823 1.363 . S
C822 C828 1.379 . S
C822 N830 1.356 . S
C823 C822 1.363 . S
C823 C829 1.363 . S
C824 C825 1.363 . S
C824 C829 1.379 . S
C824 N831 1.356 . S
C825 C824 1.363 . S
C825 C828 1.363 . S
N826 C828 1.356 . S
N826 H838 0.984 . S
N826 H839 0.985 . S
N827 C829 1.356 . S
N827 H832 0.984 . S
N827 H833 0.985 . S
C828 C822 1.379 . S
C828 C825 1.363 . S
C828 N826 1.356 . S
C829 C823 1.363 . S
C829 C824 1.379 . S
C829 N827 1.356 . S
N830 C822 1.356 . S
N830 H836 0.984 . S
N830 H837 0.984 . S
N831 C824 1.356 . S
N831 H834 0.984 . S
N831 H835 0.985 . S
H832 N827 0.984 . S
H833 N827 0.985 . S
H834 N831 0.984 . S
H835 N831 0.985 . S
H836 N830 0.984 . S
H837 N830 0.984 . S
H838 N826 0.984 . S
H839 N826 0.985 . S
C840 C841 1.363 1_556 S
C840 C846 1.379 . S
C840 N848 1.356 . S
C841 C840 1.363 1_554 S
C841 C847 1.363 . S
C842 C843 1.363 . S
C842 C847 1.379 . S
C842 N849 1.356 . S
C843 C842 1.363 . S
C843 C846 1.363 1_554 S
N844 C846 1.356 . S
N844 H856 0.984 . S
N844 H857 0.985 . S
N845 C847 1.356 . S
N845 H850 0.984 . S
N845 H851 0.985 . S
C846 C840 1.379 . S
C846 C843 1.363 1_556 S
C846 N844 1.356 . S
C847 C841 1.363 . S
C847 C842 1.379 . S
C847 N845 1.356 . S
N848 C840 1.356 . S
N848 H854 0.984 . S
N848 H855 0.984 . S
N849 C842 1.356 . S
N849 H852 0.984 . S
N849 H853 0.985 . S
H850 N845 0.984 . S
H851 N845 0.985 . S
H852 N849 0.984 . S
H853 N849 0.985 . S
H854 N848 0.984 . S
H855 N848 0.984 . S
H856 N844 0.984 . S
H857 N844 0.985 . S
C858 C859 1.363 1_556 S
C858 C864 1.380 . S
C858 N866 1.356 . S
C859 C858 1.363 1_554 S
C859 C865 1.363 . S
C860 C861 1.363 . S
C860 C865 1.379 . S
C860 N867 1.356 . S
C861 C860 1.363 . S
C861 C864 1.350 1_554 S
N862 C864 1.365 . S
N862 H874 0.984 . S
N862 H875 0.985 . S
N863 C865 1.356 . S
N863 H868 0.984 . S
N863 H869 0.985 . S
C864 C858 1.380 . S
C864 C861 1.350 1_556 S
C864 N862 1.365 . S
C865 C859 1.363 . S
C865 C860 1.379 . S
C865 N863 1.356 . S
N866 C858 1.356 . S
N866 H872 0.984 . S
N866 H873 0.984 . S
N867 C860 1.356 . S
N867 H870 0.984 . S
N867 H871 0.985 . S
H868 N863 0.984 . S
H869 N863 0.985 . S
H870 N867 0.984 . S
H871 N867 0.985 . S
H872 N866 0.984 . S
H873 N866 0.984 . S
H874 N862 0.984 . S
H875 N862 0.985 . S
C876 C877 1.363 1_556 S
C876 C882 1.379 . S
C876 N884 1.356 . S
C877 C876 1.363 1_554 S
C877 C883 1.363 . S
C878 C879 1.363 . S
C878 C883 1.379 . S
C878 N885 1.356 . S
C879 C878 1.363 . S
C879 C882 1.363 1_554 S
N880 C882 1.356 . S
N880 H892 0.984 . S
N880 H893 0.985 . S
N881 C883 1.356 . S
N881 H886 0.984 . S
N881 H887 0.985 . S
C882 C876 1.379 . S
C882 C879 1.363 1_556 S
C882 N880 1.356 . S
C883 C877 1.363 . S
C883 C878 1.379 . S
C883 N881 1.356 . S
N884 C876 1.356 . S
N884 H890 0.984 . S
N884 H891 0.984 . S
N885 C878 1.356 . S
N885 H888 0.984 . S
N885 H889 0.985 . S
H886 N881 0.984 . S
H887 N881 0.985 . S
H888 N885 0.984 . S
H889 N885 0.985 . S
H890 N884 0.984 . S
H891 N884 0.984 . S
H892 N880 0.984 . S
H893 N880 0.985 . S
C894 C895 1.363 . S
C894 C900 1.379 . S
C894 N902 1.356 . S
C895 C894 1.363 . S
C895 C901 1.363 . S
C896 C897 1.363 . S
C896 C901 1.379 . S
C896 N903 1.356 . S
C897 C896 1.363 . S
C897 C900 1.363 . S
N898 C900 1.356 . S
N898 H910 0.984 1_554 S
N898 H911 0.985 . S
N899 C901 1.356 . S
N899 H904 0.984 . S
N899 H905 0.985 . S
C900 C894 1.379 . S
C900 C897 1.363 . S
C900 N898 1.356 . S
C901 C895 1.363 . S
C901 C896 1.379 . S
C901 N899 1.356 . S
N902 C894 1.356 . S
N902 H908 0.977 1_554 S
N902 H909 0.984 . S
N903 C896 1.356 . S
N903 H906 0.984 . S
N903 H907 0.985 . S
H904 N899 0.984 . S
H905 N899 0.985 . S
H906 N903 0.984 . S
H907 N903 0.985 . S
H908 N902 0.977 1_556 S
H909 N902 0.984 . S
H910 N898 0.984 1_556 S
H911 N898 0.985 . S
C912 C913 1.363 . S
C912 C918 1.379 . S
C912 N920 1.356 . S
C913 C912 1.363 . S
C913 C919 1.363 1_554 S
C914 C915 1.363 1_556 S
C914 C919 1.379 . S
C914 N921 1.356 . S
C915 C914 1.363 1_554 S
C915 C918 1.363 . S
N916 C918 1.356 . S
N916 H928 0.984 . S
N916 H929 0.985 . S
N917 C919 1.356 . S
N917 H922 0.984 . S
N917 H923 0.985 . S
C918 C912 1.379 . S
C918 C915 1.363 . S
C918 N916 1.356 . S
C919 C913 1.363 1_556 S
C919 C914 1.379 . S
C919 N917 1.356 . S
N920 C912 1.356 . S
N920 H926 0.984 . S
N920 H927 0.984 . S
N921 C914 1.356 . S
N921 H924 0.984 . S
N921 H925 0.985 . S
H922 N917 0.984 . S
H923 N917 0.985 . S
H924 N921 0.984 . S
H925 N921 0.985 . S
H926 N920 0.984 . S
H927 N920 0.984 . S
H928 N916 0.984 . S
H929 N916 0.985 . S
C930 C931 1.363 1_556 S
C930 C936 1.379 . S
C930 N938 1.356 . S
C931 C930 1.363 1_554 S
C931 C937 1.363 . S
C932 C933 1.363 . S
C932 C937 1.379 . S
C932 N939 1.356 . S
C933 C932 1.363 . S
C933 C936 1.363 1_554 S
N934 C936 1.356 . S
N934 H946 0.984 . S
N934 H947 0.985 . S
N935 C937 1.356 . S
N935 H940 0.984 . S
N935 H941 0.985 . S
C936 C930 1.379 . S
C936 C933 1.363 1_556 S
C936 N934 1.356 . S
C937 C931 1.363 . S
C937 C932 1.379 . S
C937 N935 1.356 . S
N938 C930 1.356 . S
N938 H944 0.984 . S
N938 H945 0.984 . S
N939 C932 1.356 . S
N939 H942 0.984 . S
N939 H943 0.985 . S
H940 N935 0.984 . S
H941 N935 0.985 . S
H942 N939 0.984 . S
H943 N939 0.985 . S
H944 N938 0.984 . S
H945 N938 0.984 . S
H946 N934 0.984 . S
H947 N934 0.985 . S
C948 C949 1.363 . S
C948 C954 1.379 . S
C948 N956 1.356 . S
C949 C948 1.363 . S
C949 C955 1.363 . S
C950 C951 1.363 . S
C950 C955 1.379 . S
C950 N957 1.356 . S
C951 C950 1.363 . S
C951 C954 1.363 . S
N952 C954 1.356 . S
N952 H964 0.984 . S
N952 H965 0.985 . S
N953 C955 1.356 . S
N953 H958 0.984 . S
N953 H959 0.985 . S
C954 C948 1.379 . S
C954 C951 1.363 . S
C954 N952 1.356 . S
C955 C949 1.363 . S
C955 C950 1.379 . S
C955 N953 1.356 . S
N956 C948 1.356 . S
N956 H962 0.984 . S
N956 H963 0.984 . S
N957 C950 1.356 . S
N957 H960 0.984 . S
N957 H961 0.985 . S
H958 N953 0.984 . S
H959 N953 0.985 . S
H960 N957 0.984 . S
H961 N957 0.985 . S
H962 N956 0.984 . S
H963 N956 0.984 . S
H964 N952 0.984 . S
H965 N952 0.985 . S
C966 C967 1.363 . S
C966 C972 1.379 . S
C966 N974 1.356 . S
C967 C966 1.363 . S
C967 C973 1.363 . S
C968 C969 1.363 . S
C968 C973 1.379 . S
C968 N975 1.356 . S
C969 C968 1.363 . S
C969 C972 1.363 . S
N970 C972 1.356 . S
N970 H982 0.984 . S
N970 H983 0.985 . S
N971 C973 1.356 . S
N971 H976 0.984 . S
N971 H977 0.985 . S
C972 C966 1.379 . S
C972 C969 1.363 . S
C972 N970 1.356 . S
C973 C967 1.363 . S
C973 C968 1.379 . S
C973 N971 1.356 . S
N974 C966 1.356 . S
N974 H980 0.984 . S
N974 H981 0.984 . S
N975 C968 1.356 . S
N975 H978 0.984 . S
N975 H979 0.985 . S
H976 N971 0.984 . S
H977 N971 0.985 . S
H978 N975 0.984 . S
H979 N975 0.985 . S
H980 N974 0.984 . S
H981 N974 0.984 . S
H982 N970 0.984 . S
H983 N970 0.985 . S
C984 C985 1.363 . S
C984 C990 1.379 . S
C984 N992 1.356 . S
C985 C984 1.363 . S
C985 C991 1.363 . S
C986 C987 1.363 . S
C986 C991 1.379 . S
C986 N993 1.356 . S
C987 C986 1.363 . S
C987 C990 1.363 . S
N988 C990 1.356 . S
N988 H1000 0.984 . S
N988 H1001 0.985 . S
N989 C991 1.356 . S
N989 H994 0.984 . S
N989 H995 0.985 . S
C990 C984 1.379 . S
C990 C987 1.363 . S
C990 N988 1.356 . S
C991 C985 1.363 . S
C991 C986 1.379 . S
C991 N989 1.356 . S
N992 C984 1.356 . S
N992 H998 0.984 . S
N992 H999 0.984 . S
N993 C986 1.356 . S
N993 H996 0.984 . S
N993 H997 0.985 . S
H994 N989 0.984 . S
H995 N989 0.985 . S
H996 N993 0.984 . S
H997 N993 0.985 . S
H998 N992 0.984 . S
H999 N992 0.984 . S
H1000 N988 0.984 . S
H1001 N988 0.985 . S
C1002 C1003 1.363 . S
C1002 C1008 1.379 . S
C1002 N1010 1.356 . S
C1003 C1002 1.363 . S
C1003 C1009 1.363 . S
C1004 C1005 1.363 . S
C1004 C1009 1.379 . S
C1004 N1011 1.356 . S
C1005 C1004 1.363 . S
C1005 C1008 1.363 . S
N1006 C1008 1.356 . S
N1006 H1018 0.984 . S
N1006 H1019 0.985 . S
N1007 C1009 1.356 . S
N1007 H1012 0.984 . S
N1007 H1013 0.985 . S
C1008 C1002 1.379 . S
C1008 C1005 1.363 . S
C1008 N1006 1.356 . S
C1009 C1003 1.363 . S
C1009 C1004 1.379 . S
C1009 N1007 1.356 . S
N1010 C1002 1.356 . S
N1010 H1016 0.984 . S
N1010 H1017 0.984 . S
N1011 C1004 1.356 . S
N1011 H1014 0.984 . S
N1011 H1015 0.985 . S
H1012 N1007 0.984 . S
H1013 N1007 0.985 . S
H1014 N1011 0.984 . S
H1015 N1011 0.985 . S
H1016 N1010 0.984 . S
H1017 N1010 0.984 . S
H1018 N1006 0.984 . S
H1019 N1006 0.985 . S
C1020 C1021 1.363 . S
C1020 C1026 1.379 . S
C1020 N1028 1.356 . S
C1021 C1020 1.363 . S
C1021 C1027 1.363 . S
C1022 C1023 1.363 . S
C1022 C1027 1.379 . S
C1022 N1029 1.356 . S
C1023 C1022 1.363 . S
C1023 C1026 1.363 . S
N1024 C1026 1.356 . S
N1024 H1036 0.984 . S
N1024 H1037 0.985 . S
N1025 C1027 1.356 . S
N1025 H1030 0.984 . S
N1025 H1031 0.985 . S
C1026 C1020 1.379 . S
C1026 C1023 1.363 . S
C1026 N1024 1.356 . S
C1027 C1021 1.363 . S
C1027 C1022 1.379 . S
C1027 N1025 1.356 . S
N1028 C1020 1.356 . S
N1028 H1034 0.984 . S
N1028 H1035 0.984 . S
N1029 C1022 1.356 . S
N1029 H1032 0.984 . S
N1029 H1033 0.985 . S
H1030 N1025 0.984 . S
H1031 N1025 0.985 . S
H1032 N1029 0.984 . S
H1033 N1029 0.985 . S
H1034 N1028 0.984 . S
H1035 N1028 0.984 . S
H1036 N1024 0.984 . S
H1037 N1024 0.985 . S
C1038 C1039 1.363 . S
C1038 C1044 1.379 . S
C1038 N1046 1.356 . S
C1039 C1038 1.363 . S
C1039 C1045 1.363 . S
C1040 C1041 1.363 . S
C1040 C1045 1.379 . S
C1040 N1047 1.356 . S
C1041 C1040 1.363 . S
C1041 C1044 1.363 . S
N1042 C1044 1.356 . S
N1042 H1054 0.984 . S
N1042 H1055 0.985 . S
N1043 C1045 1.356 . S
N1043 H1048 0.984 . S
N1043 H1049 0.985 . S
C1044 C1038 1.379 . S
C1044 C1041 1.363 . S
C1044 N1042 1.356 . S
C1045 C1039 1.363 . S
C1045 C1040 1.379 . S
C1045 N1043 1.356 . S
N1046 C1038 1.356 . S
N1046 H1052 0.984 . S
N1046 H1053 0.984 . S
N1047 C1040 1.356 . S
N1047 H1050 0.984 . S
N1047 H1051 0.985 . S
H1048 N1043 0.984 . S
H1049 N1043 0.985 . S
H1050 N1047 0.984 . S
H1051 N1047 0.985 . S
H1052 N1046 0.984 . S
H1053 N1046 0.984 . S
H1054 N1042 0.984 . S
H1055 N1042 0.985 . S
C1056 C1057 1.363 1_554 S
C1056 C1062 1.379 . S
C1056 N1064 1.356 . S
C1057 C1056 1.363 1_556 S
C1057 C1063 1.363 1_545 S
C1058 C1059 1.363 . S
C1058 C1063 1.379 . S
C1058 N1065 1.356 . S
C1059 C1058 1.363 . S
C1059 C1062 1.363 1_566 S
N1060 C1062 1.356 . S
N1060 H1072 0.984 . S
N1060 H1073 0.985 1_545 S
N1061 C1063 1.356 . S
N1061 H1066 0.984 1_565 S
N1061 H1067 0.985 . S
C1062 C1056 1.379 . S
C1062 C1059 1.363 1_544 S
C1062 N1060 1.356 . S
C1063 C1057 1.363 1_565 S
C1063 C1058 1.379 . S
C1063 N1061 1.356 . S
N1064 C1056 1.356 . S
N1064 H1070 0.984 . S
N1064 H1071 0.984 . S
N1065 C1058 1.356 . S
N1065 H1068 0.984 . S
N1065 H1069 0.985 . S
H1066 N1061 0.984 1_545 S
H1067 N1061 0.985 . S
H1068 N1065 0.984 . S
H1069 N1065 0.985 . S
H1070 N1064 0.984 . S
H1071 N1064 0.984 . S
H1072 N1060 0.984 . S
H1073 N1060 0.985 1_565 S
C1074 C1075 1.363 1_554 S
C1074 C1080 1.379 . S
C1074 N1082 1.356 . S
C1075 C1074 1.363 1_556 S
C1075 C1081 1.363 . S
C1076 C1077 1.363 . S
C1076 C1081 1.379 . S
C1076 N1083 1.356 . S
C1077 C1076 1.363 . S
C1077 C1080 1.363 1_556 S
N1078 C1080 1.356 . S
N1078 H1090 0.984 . S
N1078 H1091 0.985 . S
N1079 C1081 1.356 . S
N1079 H1084 0.984 . S
N1079 H1085 0.985 . S
C1080 C1074 1.379 . S
C1080 C1077 1.363 1_554 S
C1080 N1078 1.356 . S
C1081 C1075 1.363 . S
C1081 C1076 1.379 . S
C1081 N1079 1.356 . S
N1082 C1074 1.356 . S
N1082 H1088 0.984 . S
N1082 H1089 0.984 . S
N1083 C1076 1.356 . S
N1083 H1086 0.984 . S
N1083 H1087 0.985 . S
H1084 N1079 0.984 . S
H1085 N1079 0.985 . S
H1086 N1083 0.984 . S
H1087 N1083 0.985 . S
H1088 N1082 0.984 . S
H1089 N1082 0.984 . S
H1090 N1078 0.984 . S
H1091 N1078 0.985 . S
C1092 C1093 1.363 1_455 S
C1092 C1098 1.379 . S
C1092 N1100 1.356 . S
C1093 C1092 1.363 1_655 S
C1093 C1099 1.363 1_556 S
C1094 C1095 1.363 1_654 S
C1094 C1099 1.379 . S
C1094 N1101 1.356 . S
C1095 C1094 1.363 1_456 S
C1095 C1098 1.363 . S
N1096 C1098 1.356 . S
N1096 H1108 0.984 . S
N1096 H1109 0.985 . S
N1097 C1099 1.356 . S
N1097 H1102 0.984 . S
N1097 H1103 0.985 . S
C1098 C1092 1.379 . S
C1098 C1095 1.363 . S
C1098 N1096 1.356 . S
C1099 C1093 1.363 1_554 S
C1099 C1094 1.379 . S
C1099 N1097 1.356 . S
N1100 C1092 1.356 . S
N1100 H1106 0.984 . S
N1100 H1107 0.984 1_455 S
N1101 C1094 1.356 . S
N1101 H1104 0.984 1_655 S
N1101 H1105 0.985 . S
H1102 N1097 0.984 . S
H1103 N1097 0.985 . S
H1104 N1101 0.984 1_455 S
H1105 N1101 0.985 . S
H1106 N1100 0.984 . S
H1107 N1100 0.984 1_655 S
H1108 N1096 0.984 . S
H1109 N1096 0.985 . S
C1110 C1111 1.363 . S
C1110 C1116 1.379 . S
C1110 N1118 1.356 . S
C1111 C1110 1.363 . S
C1111 C1117 1.363 1_655 S
C1112 C1113 1.363 . S
C1112 C1117 1.379 . S
C1112 N1119 1.356 . S
C1113 C1112 1.363 . S
C1113 C1116 1.363 1_455 S
N1114 C1116 1.356 . S
N1114 H1126 0.984 . S
N1114 H1127 0.985 1_655 S
N1115 C1117 1.356 . S
N1115 H1120 0.984 1_455 S
N1115 H1121 0.985 . S
C1116 C1110 1.379 . S
C1116 C1113 1.363 1_655 S
C1116 N1114 1.356 . S
C1117 C1111 1.363 1_455 S
C1117 C1112 1.379 . S
C1117 N1115 1.356 . S
N1118 C1110 1.356 . S
N1118 H1124 0.984 . S
N1118 H1125 0.984 . S
N1119 C1112 1.356 . S
N1119 H1122 0.984 . S
N1119 H1123 0.985 . S
H1120 N1115 0.984 1_655 S
H1121 N1115 0.985 . S
H1122 N1119 0.984 . S
H1123 N1119 0.985 . S
H1124 N1118 0.984 . S
H1125 N1118 0.984 . S
H1126 N1114 0.984 . S
H1127 N1114 0.985 1_455 S
C1128 C1129 1.363 1_565 S
C1128 C1134 1.379 . S
C1128 N1136 1.356 . S
C1129 C1128 1.363 1_545 S
C1129 C1135 1.363 . S
C1130 C1131 1.363 1_545 S
C1130 C1135 1.379 . S
C1130 N1137 1.356 . S
C1131 C1130 1.363 1_565 S
C1131 C1134 1.363 . S
N1132 C1134 1.356 . S
N1132 H1144 0.984 . S
N1132 H1145 0.985 . S
N1133 C1135 1.356 . S
N1133 H1138 0.984 . S
N1133 H1139 0.985 . S
C1134 C1128 1.379 . S
C1134 C1131 1.363 . S
C1134 N1132 1.356 . S
C1135 C1129 1.363 . S
C1135 C1130 1.379 . S
C1135 N1133 1.356 . S
N1136 C1128 1.356 . S
N1136 H1142 0.984 . S
N1136 H1143 0.984 1_565 S
N1137 C1130 1.356 . S
N1137 H1140 0.984 1_545 S
N1137 H1141 0.985 . S
H1138 N1133 0.984 . S
H1139 N1133 0.985 . S
H1140 N1137 0.984 1_565 S
H1141 N1137 0.985 . S
H1142 N1136 0.984 . S
H1143 N1136 0.984 1_545 S
H1144 N1132 0.984 . S
H1145 N1132 0.985 . S
C1146 C1147 1.363 . S
C1146 C1152 1.379 . S
C1146 N1154 1.356 . S
C1147 C1146 1.363 . S
C1147 C1153 1.363 . S
C1148 C1149 1.363 . S
C1148 C1153 1.379 . S
C1148 N1155 1.356 . S
C1149 C1148 1.363 . S
C1149 C1152 1.363 . S
N1150 C1152 1.356 . S
N1150 H1162 0.984 . S
N1150 H1163 0.985 . S
N1151 C1153 1.356 . S
N1151 H1156 0.984 . S
N1151 H1157 0.985 . S
C1152 C1146 1.379 . S
C1152 C1149 1.363 . S
C1152 N1150 1.356 . S
C1153 C1147 1.363 . S
C1153 C1148 1.379 . S
C1153 N1151 1.356 . S
N1154 C1146 1.356 . S
N1154 H1160 0.984 . S
N1154 H1161 0.984 . S
N1155 C1148 1.356 . S
N1155 H1158 0.984 . S
N1155 H1159 0.985 . S
H1156 N1151 0.984 . S
H1157 N1151 0.985 . S
H1158 N1155 0.984 . S
H1159 N1155 0.985 . S
H1160 N1154 0.984 . S
H1161 N1154 0.984 . S
H1162 N1150 0.984 . S
H1163 N1150 0.985 . S
C409 C28 1.010 1_565 S
C411 C187 1.020 . S
C427 C40 1.010 . S
C429 C17 1.020 . S
C445 C96 1.010 1_455 S
C447 C51 1.020 . S
C463 C108 1.010 1_545 S
C465 C85 1.020 . S
C481 C164 1.010 . S
C483 C119 1.020 . S
C499 C176 1.010 1_655 S
C501 C153 1.020 . S
C517 C210 1.010 1_455 S
C519 C255 1.020 . S
C535 C266 1.010 1_545 S
C537 C289 1.020 . S
C553 C278 1.010 . S
C555 C323 1.020 . S
C571 C357 1.020 . S
C573 C334 1.010 1_655 S
C589 C391 1.020 . S
C591 C346 1.010 1_565 S
C607 C221 1.020 . S
C609 C402 1.010 . S
C625 C287 1.589 . S
C627 C22 1.589 . S
C643 C328 1.589 . S
C645 C49 1.589 . S
C661 C90 1.589 . S
C663 C355 1.589 . S
C679 C396 1.589 . S
C681 C117 1.590 . S
C697 C158 1.590 . S
C699 C219 1.590 . S
C715 C185 1.589 . S
C717 C260 1.589 . S
C733 C389 2.169 . S
C735 C124 2.168 . S
C751 C151 2.168 . S
C753 C226 2.168 . S
C769 C192 2.169 . S
C771 C253 2.169 . S
C787 C15 2.169 . S
C789 C294 2.169 . S
C805 C56 2.169 . S
C807 C321 2.169 . S
C823 C83 2.169 . S
C825 C362 2.169 . S
C841 C74 1.171 . S
C843 C1 1.069 . S
C859 C130 1.171 . S
C861 C37 1.069 . S
C877 C69 1.069 . S
C879 C142 1.171 . S
C895 C105 1.069 . S
C897 C198 1.171 . S
C913 C6 1.171 . S
C915 C137 1.069 . S
C931 C62 1.171 . S
C933 C173 1.069 . S
C949 C207 1.069 . S
C951 C368 1.171 . S
C967 C239 1.069 . S
C969 C380 1.171 . S
C985 C232 1.171 . S
C987 C275 1.069 . S
C1003 C244 1.171 . S
C1005 C307 1.069 . S
C1021 C300 1.171 . S
C1023 C343 1.069 . S
C1039 C375 1.069 . S
C1041 C312 1.171 . S
C1057 C3 2.202 . S
C1059 C103 2.202 . S
C1075 C35 2.202 . S
C1077 C139 2.202 . S
C1093 C71 2.202 . S
C1095 C171 2.202 . S
C1111 C205 2.202 . S
C1113 C309 2.202 . S
C1129 C341 2.202 . S
C1131 C241 2.202 . S
C1147 C377 2.202 . S
C1149 C273 2.202 . S
