# Generated by pormake.
# Topology rob, (6)-cn, num edge types: 1
# Building blocks:
#     Node 0, Type 0, BuildingBlock: KUMBOL_clean_sbu_0, # of connection points: 6
#     Node 1, Type 0, BuildingBlock: KUMBOL_clean_sbu_0, # of connection points: 6
#     Node 2, Type 0, BuildingBlock: KUMBOL_clean_sbu_0, # of connection points: 6
#     Node 3, Type 0, BuildingBlock: KUMBOL_clean_sbu_0, # of connection points: 6
#     Edge 4, Type (0, 0), BuildingBlock: ZUJKAS_clean_linker_0, # of connection points: 2
#     Edge 5, Type (0, 0), BuildingBlock: ZUJKAS_clean_linker_0, # of connection points: 2
#     Edge 6, Type (0, 0), BuildingBlock: ZUJKAS_clean_linker_0, # of connection points: 2
#     Edge 7, Type (0, 0), BuildingBlock: ZUJKAS_clean_linker_0, # of connection points: 2
#     Edge 8, Type (0, 0), BuildingBlock: ZUJKAS_clean_linker_0, # of connection points: 2
#     Edge 9, Type (0, 0), BuildingBlock: ZUJKAS_clean_linker_0, # of connection points: 2
#     Edge 10, Type (0, 0), BuildingBlock: ZUJKAS_clean_linker_0, # of connection points: 2
#     Edge 11, Type (0, 0), BuildingBlock: ZUJKAS_clean_linker_0, # of connection points: 2
#     Edge 12, Type (0, 0), BuildingBlock: ZUJKAS_clean_linker_0, # of connection points: 2
#     Edge 13, Type (0, 0), BuildingBlock: ZUJKAS_clean_linker_0, # of connection points: 2
#     Edge 14, Type (0, 0), BuildingBlock: ZUJKAS_clean_linker_0, # of connection points: 2
#     Edge 15, Type (0, 0), BuildingBlock: ZUJKAS_clean_linker_0, # of connection points: 2
# Relax obj value: 0.032
# Max RMSD: 0.149
# Mean RMSD: 0.149
data_MOF--net-rob--node1-KUMBOL_clean_sbu_0--edge1-ZUJKAS_clean_linker_0
_symmetry_space_group_name_H-M    P1
_symmetry_Int_Tables_number       1
_symmetry_cell_setting            triclinic
loop_
_symmetry_equiv_pos_as_xyz
'x, y, z'
_cell_length_a     20.045004
_cell_length_b     34.049569
_cell_length_c     41.718089
_cell_angle_alpha  118.53015
_cell_angle_beta   89.969849
_cell_angle_gamma 89.926553
loop_
_atom_site_label
_atom_site_type_symbol
_atom_site_fract_x
_atom_site_fract_y
_atom_site_fract_z
_atom_type_partial_charge
Gd0 Gd 0.30919 0.22015 0.98385 0.0
Gd1 Gd 0.18157 0.29638 0.04729 0.0
C2 C 0.0187 0.3609 1.01136 0.0
C3 C 0.04685 0.43975 0.04569 0.0
C4 C 0.1136 0.38426 0.05213 0.0
C5 C 0.07351 0.35059 0.02722 0.0
C6 C 0.09999 0.42933 0.06227 0.0
C7 C 0.00634 0.40558 0.02022 0.0
C8 C 0.97719 0.32611 0.98768 0.0
C9 C 0.98963 0.28261 0.98128 0.0
N10 N 0.08668 0.30787 0.01949 0.0
C11 C 0.0443 0.27414 0.99791 0.0
H12 H 0.05323 0.24033 0.99259 0.0
C13 C 0.20067 0.40536 0.09539 0.0
N14 N 0.16425 0.37301 0.06769 0.0
C15 C 0.1893 0.45054 0.1063 0.0
C16 C 0.13921 0.46259 0.08938 0.0
H17 H 0.23961 0.39624 0.10848 0.0
H18 H 0.96477 0.41413 1.00812 0.0
H19 H 0.43894 0.27775 0.03676 0.0
H20 H 0.93471 0.33259 0.97483 0.0
H21 H 0.95718 0.25556 0.96349 0.0
H22 H 0.03589 0.47416 0.05288 0.0
H23 H 0.25312 0.11917 0.92409 0.0
H24 H 0.55651 0.18877 0.05897 0.0
H25 H 0.53484 0.26451 0.06705 0.0
H26 H 0.4554 0.04605 0.98451 0.0
H27 H 0.21918 0.47602 0.12772 0.0
H28 H 0.13035 0.49762 0.09795 0.0
H29 H 0.52608 0.10728 0.02829 0.0
H30 H 0.27378 0.03999 0.90716 0.0
N31 N 0.40474 0.2104 1.01227 0.0
C32 C 0.51413 0.19437 0.04554 0.0
C33 C 0.50216 0.23712 0.05009 0.0
C34 C 0.47246 0.15908 0.02279 0.0
C35 C 0.41779 0.16826 1.00612 0.0
C36 C 0.44754 0.24445 0.03274 0.0
N37 N 0.32794 0.14406 0.96514 0.0
C38 C 0.37815 0.13393 0.98167 0.0
C39 C 0.30336 0.0661 0.92827 0.0
C40 C 0.353 0.05526 0.94623 0.0
C41 C 0.29194 0.1109 0.93781 0.0
C42 C 0.39177 0.0893 0.97297 0.0
H43 H 0.36186 0.02053 0.93875 0.0
O44 O 0.32195 0.19294 0.92529 0.0
O45 O 0.22033 0.26217 0.99065 0.0
O46 O 0.1486 0.2235 0.01944 0.0
O47 O 0.24549 0.18009 1.00201 0.0
O48 O 0.22271 0.20102 0.94451 0.0
O49 O 0.39106 0.24258 0.96278 0.0
O50 O 0.17314 0.31819 0.10524 0.0
O51 O 0.27014 0.25412 0.04019 0.0
O52 O 0.34141 0.29321 1.01118 0.0
O53 O 0.2449 0.33714 0.02973 0.0
O54 O 0.26856 0.31521 0.08643 0.0
O55 O 0.09468 0.27819 0.06846 0.0
C56 C 0.18963 0.23781 0.96144 0.0
C57 C 0.44447 0.08008 0.99056 0.0
C58 C 0.48471 0.11494 0.01548 0.0
C59 C 0.37602 0.2158 0.92876 0.0
C60 C 0.43171 0.19174 0.90437 0.0
C61 C 0.47664 0.16655 0.91296 0.0
C62 C 0.44142 0.19559 0.87265 0.0
C63 C 0.4969 0.17552 0.85008 0.0
C64 C 0.53151 0.14612 0.89035 0.0
C65 C 0.54206 0.1509 0.85925 0.0
C66 C 0.18127 0.18569 1.01044 0.0
C67 C 0.30147 0.27838 0.06915 0.0
C68 C 0.11468 0.30019 0.10225 0.0
C69 C 0.06501 0.3279 0.12966 0.0
C70 C 0.03013 0.36172 0.1267 0.0
C71 C 0.05355 0.32085 0.15972 0.0
C72 C 0.00722 0.34732 0.18693 0.0
C73 C 0.98418 0.38822 0.15358 0.0
C74 C 0.97267 0.38115 0.1835 0.0
C75 C 0.3089 0.33126 0.02078 0.0
H76 H 0.46976 0.16318 0.93726 0.0
H77 H 0.40695 0.21533 0.86612 0.0
H78 H 0.56634 0.12693 0.89716 0.0
H79 H 0.58528 0.13526 0.84226 0.0
H80 H 0.03849 0.36765 0.10375 0.0
H81 H 0.0802 0.29428 0.16158 0.0
H82 H 0.95748 0.4144 0.15127 0.0
H83 H 0.93725 0.40247 0.20412 0.0
Gd84 Gd 0.80675 0.71841 0.9821 0.0
Gd85 Gd 0.68428 0.7974 0.04789 0.0
C86 C 0.52417 0.86504 1.01317 0.0
C87 C 0.55691 0.94315 0.04641 0.0
C88 C 0.62047 0.88649 0.0529 0.0
C89 C 0.57849 0.85367 0.02863 0.0
C90 C 0.60939 0.93174 0.06273 0.0
C91 C 0.51443 0.90983 0.02161 0.0
C92 C 0.48042 0.83122 0.99038 0.0
C93 C 0.49014 0.7877 0.98456 0.0
N94 N 0.58914 0.81085 0.02135 0.0
C95 C 0.54444 0.77819 1.00079 0.0
H96 H 0.55131 0.74435 0.99584 0.0
C97 C 0.70857 0.90593 0.09541 0.0
N98 N 0.67043 0.87429 0.0682 0.0
C99 C 0.69971 0.95126 0.10603 0.0
C100 C 0.65041 0.96422 0.08931 0.0
H101 H 0.747 0.89606 0.10827 0.0
H102 H 0.47332 0.91916 1.00976 0.0
H103 H 0.94005 0.77064 0.0339 0.0
H104 H 0.43826 0.83851 0.97784 0.0
H105 H 0.45594 0.76142 0.96749 0.0
H106 H 0.54792 0.9777 0.05335 0.0
H107 H 0.74374 0.62003 0.92125 0.0
H108 H 0.05042 0.67613 0.05281 0.0
H109 H 0.03462 0.75315 0.06257 0.0
H110 H 0.93925 0.53754 0.97732 0.0
H111 H 0.73096 0.97615 0.12704 0.0
H112 H 0.64352 0.99936 0.09763 0.0
H113 H 0.01405 0.59571 0.02111 0.0
H114 H 0.7586 0.53986 0.90258 0.0
N115 N 0.90103 0.70449 1.00885 0.0
C116 C 0.00866 0.68362 0.04014 0.0
C117 C 1e-05 0.72709 0.04563 0.0
C118 C 0.9645 0.65005 0.01741 0.0
C119 C 0.91076 0.66166 1.00177 0.0
C120 C 0.94622 0.73685 0.02924 0.0
N121 N 0.81947 0.64145 0.96177 0.0
C122 C 0.86869 0.62904 0.97735 0.0
C123 C 0.78971 0.56462 0.92377 0.0
C124 C 0.83816 0.55146 0.94079 0.0
C125 C 0.78153 0.60999 0.93433 0.0
C126 C 0.87906 0.58374 0.96759 0.0
H127 H 0.84451 0.51629 0.93251 0.0
O128 O 0.81383 0.696 0.92399 0.0
O129 O 0.72039 0.763 0.99085 0.0
O130 O 0.6476 0.72529 0.02031 0.0
O131 O 0.74165 0.67913 1.00036 0.0
O132 O 0.71851 0.70238 0.94408 0.0
O133 O 0.89427 0.73452 0.95988 0.0
O134 O 0.6779 0.82016 0.10608 0.0
O135 O 0.77086 0.75296 0.03921 0.0
O136 O 0.84343 0.79059 1.00946 0.0
O137 O 0.7492 0.83666 0.02957 0.0
O138 O 0.77304 0.81394 0.08557 0.0
O139 O 0.59803 0.78043 0.07038 0.0
C140 C 0.68769 0.73994 0.9621 0.0
C141 C 0.93083 0.57212 0.98418 0.0
C142 C 0.97342 0.60524 1.00911 0.0
C143 C 0.87308 0.71273 0.92629 0.0
C144 C 0.9214 0.68384 0.8985 0.0
C145 C 0.95321 0.64867 0.90089 0.0
C146 C 0.93457 0.69107 0.86865 0.0
C147 C 0.97945 0.66332 0.84102 0.0
C148 C -0.0023 0.62095 0.87365 0.0
C149 C 0.01078 0.6281 0.84391 0.0
C150 C 0.6781 0.68644 1.0101 0.0
C151 C 0.80388 0.77635 0.06777 0.0
C152 C 0.61929 0.80266 0.10392 0.0
C153 C 0.57058 0.83093 0.13172 0.0
C154 C 0.53715 0.86559 0.1293 0.0
C155 C 0.55835 0.82345 0.16152 0.0
C156 C 0.51263 0.85031 0.18898 0.0
C157 C 0.49186 0.89247 0.15643 0.0
C158 C 0.47955 0.88497 0.18606 0.0
C159 C 0.81273 0.82941 0.01972 0.0
H160 H 0.94353 0.6426 0.92366 0.0
H161 H 0.91033 0.71869 0.86724 0.0
H162 H 0.02197 0.59369 0.87551 0.0
H163 H 0.04486 0.6057 0.82298 0.0
H164 H 0.54613 0.87185 0.10657 0.0
H165 H 0.58386 0.79625 0.16298 0.0
H166 H 0.46627 0.9193 0.15453 0.0
H167 H 0.44465 0.9066 0.20688 0.0
Gd168 Gd 0.3077 0.79441 0.54599 0.0
Gd169 Gd 0.18365 0.71604 0.48126 0.0
C170 C 0.02472 0.65008 0.51807 0.0
C171 C 0.05737 0.57183 0.48545 0.0
C172 C 0.12025 0.6277 0.47764 0.0
C173 C 0.07862 0.66088 0.50197 0.0
C174 C 0.10934 0.58265 0.46845 0.0
C175 C 0.01518 0.60552 0.51027 0.0
C176 C 0.98111 0.68422 0.54078 0.0
C177 C 0.99047 0.72743 0.54583 0.0
N178 N 0.08904 0.70346 0.50862 0.0
C179 C 0.04441 0.73637 0.52902 0.0
H180 H 0.05113 0.76997 0.53338 0.0
C181 C 0.20749 0.60729 0.43442 0.0
N182 N 0.16973 0.63934 0.46168 0.0
C183 C 0.1988 0.56213 0.42444 0.0
C184 C 0.15002 0.54978 0.44183 0.0
H185 H 0.24555 0.6167 0.42106 0.0
H186 H 0.97442 0.59663 0.52263 0.0
H187 H 0.44071 0.73886 0.4949 0.0
H188 H 0.93926 0.67737 0.55379 0.0
H189 H 0.95631 0.75393 0.56278 0.0
H190 H 0.04852 0.53746 0.47902 0.0
H191 H 0.24658 0.89453 0.60473 0.0
H192 H 0.55768 0.8298 0.47501 0.0
H193 H 0.53791 0.75371 0.46641 0.0
H194 H 0.44865 0.97061 0.54673 0.0
H195 H 0.2298 0.53692 0.40341 0.0
H196 H 0.14329 0.51477 0.43401 0.0
H197 H 0.52303 0.91055 0.50436 0.0
H198 H 0.26409 0.97393 0.62154 0.0
N199 N 0.40389 0.80565 0.51884 0.0
C200 C 0.51456 0.82347 0.48752 0.0
C201 C 0.50372 0.78053 0.48274 0.0
C202 C 0.47073 0.858 0.50931 0.0
C203 C 0.41554 0.84795 0.52509 0.0
C204 C 0.44836 0.77228 0.49906 0.0
N205 N 0.32344 0.87075 0.56469 0.0
C206 C 0.37392 0.88163 0.54881 0.0
C207 C 0.2952 0.94829 0.60093 0.0
C208 C 0.34509 0.95985 0.58358 0.0
C209 C 0.28555 0.90336 0.59145 0.0
C210 C 0.38589 0.92643 0.55753 0.0
H211 H 0.3526 0.99468 0.59103 0.0
O212 O 0.31567 0.82015 0.60456 0.0
O213 O 0.2201 0.75123 0.53823 0.0
O214 O 0.14825 0.78846 0.50846 0.0
O215 O 0.24357 0.83326 0.52681 0.0
O216 O 0.21944 0.81255 0.58429 0.0
O217 O 0.39136 0.77519 0.56852 0.0
O218 O 0.17604 0.69296 0.42307 0.0
O219 O 0.27106 0.75936 0.48918 0.0
O220 O 0.34271 0.72188 0.51908 0.0
O221 O 0.24764 0.67683 0.50005 0.0
O222 O 0.27175 0.69838 0.4428 0.0
O223 O 0.09677 0.73312 0.45924 0.0
C224 C 0.18776 0.77531 0.56695 0.0
C225 C 0.439 0.93645 0.54068 0.0
C226 C 0.48135 0.90227 0.51657 0.0
C227 C 0.37213 0.79999 0.60221 0.0
C228 C 0.42371 0.8265 0.62869 0.0
C229 C 0.46316 0.85693 0.62349 0.0
C230 C 0.43321 0.82125 0.65979 0.0
C231 C 0.48243 0.84597 0.68574 0.0
C232 C 0.51193 0.88169 0.64907 0.0
C233 C 0.52171 0.87627 0.67992 0.0
C234 C 0.17968 0.82671 0.51779 0.0
C235 C 0.30355 0.73552 0.46048 0.0
C236 C 0.11735 0.71061 0.42556 0.0
C237 C 0.06815 0.68229 0.3982 0.0
C238 C 0.03539 0.6478 0.4011 0.0
C239 C 0.05492 0.68945 0.36831 0.0
C240 C 0.00902 0.6623 0.34117 0.0
C241 C 0.98989 0.62068 0.37434 0.0
C242 C 0.97673 0.62776 0.34457 0.0
C243 C 0.31134 0.68351 0.50941 0.0
H244 H 0.45635 0.86141 0.59969 0.0
H245 H 0.40167 0.79815 0.66385 0.0
H246 H 0.54257 0.90501 0.64488 0.0
H247 H 0.56079 0.89532 0.6989 0.0
H248 H 0.04511 0.6418 0.4239 0.0
H249 H 0.0799 0.71656 0.36652 0.0
H250 H 0.96487 0.59395 0.37659 0.0
H251 H 0.94184 0.60583 0.32401 0.0
Gd252 Gd 0.80932 0.29315 0.5449 0.0
Gd253 Gd 0.6815 0.21689 0.48179 0.0
C254 C 0.52007 0.15205 0.51817 0.0
C255 C 0.54935 0.0733 0.48407 0.0
C256 C 0.61494 0.12888 0.47725 0.0
C257 C 0.5745 0.16246 0.50214 0.0
C258 C 0.60212 0.08381 0.46734 0.0
C259 C 0.50844 0.10738 0.50949 0.0
C260 C 0.47822 0.18675 0.54186 0.0
C261 C 0.49001 0.23025 0.54815 0.0
N262 N 0.58703 0.20519 0.50974 0.0
C263 C 0.54437 0.23882 0.53138 0.0
H264 H 0.55284 0.27263 0.53663 0.0
C265 C 0.70206 0.10792 0.43391 0.0
N266 N 0.66525 0.14022 0.46155 0.0
C267 C 0.69151 0.06274 0.42325 0.0
C268 C 0.64179 0.05063 0.44031 0.0
H269 H 0.74074 0.11709 0.42072 0.0
H270 H 0.46718 0.09876 0.52173 0.0
H271 H 0.94001 0.23507 0.49275 0.0
H272 H 0.43602 0.18019 0.55484 0.0
H273 H 0.45733 0.25723 0.56596 0.0
H274 H 0.539 0.03889 0.47705 0.0
H275 H 0.75217 0.39444 0.60361 0.0
H276 H 0.05962 0.32342 0.47106 0.0
H277 H 0.03732 0.24794 0.46322 0.0
H278 H 0.95605 0.46618 0.543 0.0
H279 H 0.72175 0.03731 0.40191 0.0
H280 H 0.63358 0.0156 0.43194 0.0
H281 H 0.02795 0.4047 0.50024 0.0
H282 H 0.77247 0.47338 0.61976 0.0
N283 N 0.90551 0.30241 0.5166 0.0
C284 C 0.01644 0.31798 0.48406 0.0
C285 C 0.00416 0.27538 0.47969 0.0
C286 C 0.97398 0.35331 0.50606 0.0
C287 C 0.91864 0.3444 0.52247 0.0
C288 C 0.9487 0.26826 0.49661 0.0
N289 N 0.82788 0.36907 0.56295 0.0
C290 C 0.87848 0.37888 0.54644 0.0
C291 C 0.80253 0.44712 0.59899 0.0
C292 C 0.85261 0.45761 0.58104 0.0
C293 C 0.79132 0.40246 0.5899 0.0
C294 C 0.89199 0.42337 0.55476 0.0
H295 H 0.86134 0.49223 0.58819 0.0
O296 O 0.8228 0.32148 0.60352 0.0
O297 O 0.72047 0.2514 0.53835 0.0
O298 O 0.64831 0.28973 0.50992 0.0
O299 O 0.74531 0.33275 0.52636 0.0
O300 O 0.72309 0.31244 0.58456 0.0
O301 O 0.88985 0.26981 0.56611 0.0
O302 O 0.67246 0.19529 0.42391 0.0
O303 O 0.77006 0.25894 0.48869 0.0
O304 O 0.84163 0.22005 0.51746 0.0
O305 O 0.74509 0.17636 0.49945 0.0
O306 O 0.76807 0.19807 0.44222 0.0
O307 O 0.594 0.23508 0.461 0.0
C308 C 0.68997 0.27574 0.56769 0.0
C309 C 0.94521 0.43227 0.53727 0.0
C310 C 0.98615 0.39728 0.51294 0.0
C311 C 0.87572 0.29752 0.60009 0.0
C312 C 0.93236 0.32062 0.62394 0.0
C313 C 0.97838 0.34456 0.61468 0.0
C314 C 0.94198 0.3169 0.65572 0.0
C315 C -0.0016 0.33586 0.67771 0.0
C316 C 0.03419 0.36388 0.63669 0.0
C317 C 0.0446 0.35923 0.66786 0.0
C318 C 0.68091 0.32736 0.51849 0.0
C319 C 0.80123 0.23467 0.45962 0.0
C320 C 0.61373 0.21314 0.42713 0.0
C321 C 0.56404 0.18522 0.39994 0.0
C322 C 0.53039 0.15111 0.40299 0.0
C323 C 0.55156 0.19221 0.36993 0.0
C324 C 0.50563 0.16523 0.34275 0.0
C325 C 0.4848 0.12417 0.37621 0.0
C326 C 0.47246 0.13104 0.34627 0.0
C327 C 0.80916 0.18213 0.50811 0.0
H328 H 0.97161 0.34779 0.59031 0.0
H329 H 0.90669 0.29809 0.66274 0.0
H330 H 0.06985 0.3821 0.62935 0.0
H331 H 0.08852 0.37402 0.68437 0.0
H332 H 0.5395 0.14524 0.4259 0.0
H333 H 0.57722 0.21904 0.36805 0.0
H334 H 0.45911 0.09772 0.37857 0.0
H335 H 0.4375 0.10925 0.32568 0.0
H336 H 0.72401 0.60565 1.0003 0.0
H337 H 0.65937 0.54544 1.00121 0.0
H338 H 0.47983 0.62387 0.02205 0.0
H339 H 0.54356 0.68387 0.02029 0.0
H340 H 0.58287 0.55026 0.05913 0.0
H341 H 0.42673 0.50333 0.93622 0.0
H342 H 0.50105 0.53694 0.94552 0.0
H343 H 0.42448 0.56171 0.96895 0.0
C344 C 0.67062 0.60989 1.00446 0.0
C345 C 0.6389 0.64943 1.00975 0.0
C346 C 0.63384 0.57551 1.00519 0.0
C347 C 0.56472 0.57996 1.01115 0.0
C348 C 0.53292 0.6194 0.01663 0.0
H349 H 0.2597 0.41143 0.03062 0.0
H350 H 0.322 0.47288 0.03026 0.0
C351 C 0.56959 0.65379 0.01584 0.0
C352 C 0.52633 0.54402 1.01307 0.0
H353 H 0.39851 0.47037 0.97327 0.0
C354 C 0.54273 0.53263 0.04029 0.0
C355 C 0.47383 0.52131 0.98853 0.0
C356 C 0.4557 0.53107 0.95793 0.0
C357 C 0.50743 0.49943 0.04394 0.0
C358 C 0.45514 0.47656 0.0193 0.0
C359 C 0.43854 0.48809 0.99217 0.0
C360 C 0.4179 0.4399 0.02071 0.0
C361 C 0.52561 0.48971 0.07455 0.0
C362 C 0.45115 0.4009 0.01519 0.0
C363 C 0.41587 0.36586 0.01567 0.0
C364 C 0.34646 0.36903 0.02142 0.0
C365 C 0.31321 0.40809 0.02668 0.0
C366 C 0.34864 0.44317 0.02627 0.0
H367 H 0.55345 0.51786 0.09657 0.0
H368 H 0.4804 0.48298 0.08654 0.0
H369 H 0.55802 0.45962 0.06369 0.0
H370 H 0.50437 0.39731 1.01005 0.0
H371 H 0.4431 0.3362 1.01124 0.0
H372 H 0.44633 0.67827 0.51639 0.0
H373 H 0.50922 0.61722 0.51712 0.0
H374 H 0.32663 0.54407 0.50361 0.0
H375 H 0.26322 0.60473 0.50263 0.0
H376 H 0.49621 0.58326 0.56562 0.0
H377 H 0.44626 0.45217 0.42346 0.0
H378 H 0.43081 0.51074 0.43891 0.0
H379 H 0.3726 0.47842 0.44946 0.0
C380 C 0.41947 0.6491 0.51332 0.0
C381 C 0.34975 0.64619 0.50903 0.0
C382 C 0.45555 0.61427 0.51377 0.0
C383 C 0.42268 0.57589 0.50985 0.0
C384 C 0.35311 0.57297 0.50582 0.0
H385 H 0.54588 0.33453 0.51339 0.0
H386 H 0.48418 0.39596 0.5126 0.0
C387 C 0.31695 0.60774 0.50531 0.0
C388 C 0.46104 0.53959 0.51123 0.0
H389 H 0.49888 0.4286 0.4624 0.0
C390 C 0.49715 0.54948 0.54301 0.0
C391 C 0.46196 0.49561 0.48167 0.0
C392 C 0.42636 0.48355 0.4463 0.0
C393 C 0.53329 0.51627 0.54629 0.0
C394 C 0.53399 0.47227 0.51679 0.0
C395 C 0.49801 0.4624 0.48498 0.0
C396 C 0.57171 0.43587 0.51832 0.0
C397 C 0.56921 0.5283 0.58157 0.0
C398 C 0.64143 0.43792 0.52154 0.0
C399 C 0.67694 0.40287 0.522 0.0
C400 C 0.64329 0.36509 0.51913 0.0
C401 C 0.57339 0.36316 0.51578 0.0
C402 C 0.53799 0.3982 0.5153 0.0
H403 H 0.55051 0.56019 0.60432 0.0
H404 H 0.56362 0.50148 0.58931 0.0
H405 H 0.62319 0.53233 0.578 0.0
H406 H 0.66847 0.4663 0.52312 0.0
H407 H 0.7308 0.40512 0.52393 0.0
H408 H 0.04667 0.17945 0.01804 0.0
H409 H 0.98595 0.11839 0.01985 0.0
H410 H 0.16998 0.04548 1.00359 0.0
H411 H 0.23152 0.10678 1.00272 0.0
H412 H 0.97757 0.02846 0.96679 0.0
H413 H 0.09104 0.04699 0.09472 0.0
H414 H 0.09799 0.08946 0.08073 0.0
H415 H 0.15013 0.04056 0.06016 0.0
C416 C 0.07439 0.1505 0.01489 0.0
C417 C 0.14404 0.14803 1.01015 0.0
C418 C 0.03952 0.1156 0.01588 0.0
C419 C 0.0736 0.07775 1.01236 0.0
C420 C 0.1429 0.07478 1.00702 0.0
H421 H 0.94739 0.83295 1.01033 0.0
H422 H 0.01024 0.8931 1.00812 0.0
C423 C 0.17789 0.1097 1.00611 0.0
C424 C 0.03634 0.04121 1.01394 0.0
H425 H 0.02124 0.98408 0.06216 0.0
C426 C 0.9869 0.01881 0.98769 0.0
C427 C 0.04879 0.02876 0.04126 0.0
C428 C 0.09944 0.0529 0.07104 0.0
C429 C 0.95008 0.9838 0.9877 0.0
C430 C 0.96243 0.97144 0.01505 0.0
C431 C 0.01202 0.9937 0.04123 0.0
C432 C 0.9242 0.93551 0.01701 0.0
C433 C 0.89915 0.95979 0.95805 0.0
C434 C 0.85518 0.93983 0.02332 0.0
C435 C 0.81904 0.90555 0.02455 0.0
C436 C 0.85141 0.86641 0.01977 0.0
C437 C 0.92082 0.86256 1.01405 0.0
C438 C 0.95689 0.8969 1.01282 0.0
H439 H 0.90733 0.96572 0.93436 0.0
H440 H 0.90048 0.92323 0.94836 0.0
H441 H 0.84856 0.9722 0.96909 0.0
H442 H 0.82923 0.96972 0.02722 0.0
H443 H 0.76563 0.90956 0.02875 0.0
H444 H 0.94389 0.17587 0.51504 0.0
H445 H 0.00551 0.11453 0.5159 0.0
H446 H 0.82182 0.04229 0.50186 0.0
H447 H 0.75956 0.10334 0.50077 0.0
H448 H 0.98974 0.08092 0.56479 0.0
H449 H 0.94261 0.94989 0.42215 0.0
H450 H 0.92812 0.00854 0.43745 0.0
H451 H 0.86885 0.97666 0.44783 0.0
C452 C 0.91648 0.14685 0.51185 0.0
C453 C 0.84677 0.14438 0.50746 0.0
C454 C 0.95185 0.11184 0.51239 0.0
C455 C 0.91832 0.07368 0.50843 0.0
C456 C 0.84878 0.07107 0.50416 0.0
H457 H 0.04466 0.83183 0.511 0.0
H458 H 0.98149 0.89271 0.51014 0.0
C459 C 0.81329 0.10606 0.50358 0.0
C460 C 0.95605 0.03733 0.51008 0.0
H461 H 0.99559 0.92664 0.4611 0.0
C462 C 0.9913 0.04721 0.5421 0.0
C463 C 0.95771 0.99344 0.48042 0.0
C464 C 0.92282 0.98142 0.44487 0.0
C465 C 0.02756 0.01412 0.54548 0.0
C466 C 0.02935 0.97025 0.51579 0.0
C467 C 0.99396 0.96035 0.4838 0.0
C468 C 0.06788 0.9341 0.51728 0.0
C469 C 0.06257 0.02616 0.581 0.0
C470 C 0.13745 0.93714 0.52128 0.0
C471 C 0.17379 0.90244 0.5218 0.0
C472 C 0.14115 0.86398 0.51818 0.0
C473 C 0.07141 0.861 0.51397 0.0
C474 C 0.03516 0.89573 0.51346 0.0
H475 H 0.04253 0.05755 0.60376 0.0
H476 H 0.05771 0.99895 0.58833 0.0
H477 H 0.11645 0.03121 0.57806 0.0
H478 H 0.16376 0.96608 0.52346 0.0
H479 H 0.22752 0.9055 0.52441 0.0
H480 H 0.38519 0.16182 0.31049 0.0
H481 H 0.36214 0.17577 0.25934 0.0
H482 H 0.57065 0.20246 0.25318 0.0
H483 H 0.59467 0.18678 0.30345 0.0
H484 H 0.38171 0.25329 0.25719 0.0
H485 H 0.52727 0.11694 0.14681 0.0
H486 H 0.50822 0.11754 0.18935 0.0
H487 H 0.5749 0.15134 0.18702 0.0
C488 C 0.42645 0.16979 0.29785 0.0
C489 C 0.49186 0.173 0.3111 0.0
C490 C 0.41309 0.17804 0.26872 0.0
C491 C 0.46476 0.18957 0.25205 0.0
C492 C 0.53015 0.19275 0.26509 0.0
H493 H 0.38681 0.32569 0.12446 0.0
H494 H 0.43564 0.30295 0.16695 0.0
C495 C 0.54363 0.18438 0.29421 0.0
C496 C 0.44915 0.20082 0.22255 0.0
H497 H 0.48139 0.17199 0.13345 0.0
C498 C 0.40354 0.23549 0.23016 0.0
C499 C 0.47722 0.1773 0.18715 0.0
C500 C 0.52416 0.13842 0.17687 0.0
C501 C 0.38529 0.2474 0.20349 0.0
C502 C 0.41455 0.22468 0.16837 0.0
C503 C 0.45983 0.18976 0.16056 0.0
C504 C 0.39594 0.23578 0.13921 0.0
C505 C 0.33346 0.28352 0.21291 0.0
C506 C 0.36064 0.20478 0.10846 0.0
C507 C 0.33311 0.21763 0.08406 0.0
C508 C 0.34119 0.26155 0.08985 0.0
C509 C 0.38001 0.29163 0.11939 0.0
C510 C 0.40765 0.27874 0.1437 0.0
H511 H 0.30487 0.29014 0.23783 0.0
H512 H 0.35856 0.31502 0.21805 0.0
H513 H 0.29779 0.27427 0.19007 0.0
H514 H 0.35115 0.17142 0.10446 0.0
H515 H 0.30264 0.19391 0.06191 0.0
H516 H 0.60195 0.82951 0.22854 0.0
H517 H 0.57784 0.81252 0.27823 0.0
H518 H 0.36855 0.83592 0.27044 0.0
H519 H 0.39182 0.85184 0.22027 0.0
H520 H 0.51205 0.86536 0.34746 0.0
H521 H 0.37694 0.70821 0.25848 0.0
H522 H 0.42989 0.73591 0.24047 0.0
H523 H 0.34693 0.75634 0.25587 0.0
C524 C 0.55072 0.83077 0.23725 0.0
C525 C 0.49875 0.84175 0.22021 0.0
C526 C 0.53714 0.82141 0.26584 0.0
C527 C 0.47135 0.8225 0.27775 0.0
C528 C 0.4196 0.83439 0.26139 0.0
H529 H 0.30301 0.81971 0.46716 0.0
H530 H 0.3541 0.84256 0.4255 0.0
C531 C 0.43309 0.84384 0.23289 0.0
C532 C 0.45631 0.8101 0.30661 0.0
H533 H 0.36983 0.73466 0.32226 0.0
C534 C 0.48127 0.83667 0.342 0.0
C535 C 0.41703 0.77227 0.29926 0.0
C536 C 0.39158 0.74123 0.26141 0.0
C537 C 0.46629 0.82705 0.37049 0.0
C538 C 0.42487 0.79015 0.36339 0.0
C539 C 0.40141 0.76304 0.32777 0.0
C540 C 0.40347 0.7792 0.39233 0.0
C541 C 0.4955 0.85607 0.4078 0.0
C542 C 0.41462 0.73616 0.3879 0.0
C543 C 0.38515 0.72301 0.41163 0.0
C544 C 0.34435 0.75272 0.4404 0.0
C545 C 0.33546 0.79642 0.44581 0.0
C546 C 0.3648 0.80955 0.42197 0.0
H547 H 0.53962 0.87498 0.40651 0.0
H548 H 0.45744 0.88059 0.42541 0.0
H549 H 0.51048 0.83561 0.42081 0.0
H550 H 0.44398 0.7121 0.36515 0.0
H551 H 0.3922 0.68901 0.40669 0.0
H552 H 0.68797 0.8256 0.97179 0.0
H553 H 0.63711 0.85166 0.93212 0.0
H554 H 0.55437 0.72044 0.86533 0.0
H555 H 0.60323 0.69478 0.9058 0.0
H556 H 0.67041 0.81886 0.86159 0.0
H557 H 0.39854 0.79813 0.87029 0.0
H558 H 0.45643 0.7979 0.90336 0.0
H559 H 0.4438 0.74815 0.86046 0.0
C560 C 0.65696 0.80278 0.94948 0.0
C561 C 0.64854 0.75833 0.94227 0.0
C562 C 0.62827 0.81762 0.92661 0.0
C563 C 0.59115 0.78821 0.89592 0.0
C564 C 0.58123 0.74414 0.8893 0.0
H565 H 0.47807 0.76788 0.68994 0.0
H566 H 0.49992 0.75752 0.74309 0.0
C567 C 0.60957 0.72939 0.91229 0.0
C568 C 0.56991 0.80174 0.86844 0.0
H569 H 0.43708 0.80306 0.81757 0.0
C570 C 0.61917 0.81611 0.85242 0.0
C571 C 0.50311 0.79797 0.85631 0.0
C572 C 0.44735 0.78513 0.87377 0.0
C573 C 0.60397 0.82521 0.82377 0.0
C574 C 0.53763 0.82016 0.81094 0.0
C575 C 0.48799 0.8067 0.82738 0.0
C576 C 0.51971 0.82733 0.77962 0.0
C577 C 0.65941 0.83864 0.8065 0.0
C578 C 0.52251 0.87017 0.78273 0.0
C579 C 0.50948 0.87634 0.75247 0.0
C580 C 0.49349 0.83973 0.71842 0.0
C581 C 0.4894 0.79695 0.71572 0.0
C582 C 0.50213 0.79088 0.74606 0.0
H583 H 0.7095 0.83369 0.81541 0.0
H584 H 0.65666 0.8191 0.77629 0.0
H585 H 0.65387 0.87452 0.81428 0.0
H586 H 0.53526 0.89882 0.80854 0.0
H587 H 0.51183 0.90986 0.75582 0.0
H588 H 0.6181 0.32498 0.62886 0.0
H589 H 0.57413 0.30126 0.67151 0.0
H590 H 0.62942 0.16496 0.59709 0.0
H591 H 0.67884 0.18933 0.55609 0.0
H592 H 0.48399 0.24864 0.67423 0.0
H593 H 0.73101 0.18145 0.68378 0.0
H594 H 0.71886 0.21184 0.65886 0.0
H595 H 0.69695 0.15354 0.63864 0.0
C596 C 0.62023 0.28987 0.62147 0.0
C597 C 0.65163 0.25903 0.58901 0.0
C598 C 0.59489 0.27627 0.64581 0.0
C599 C 0.59999 0.23144 0.63808 0.0
C600 C 0.62685 0.19998 0.60434 0.0
H601 H 0.41576 0.15245 0.79125 0.0
H602 H 0.43727 0.16242 0.73766 0.0
C603 C 0.65397 0.21382 0.58047 0.0
C604 C 0.58143 0.21874 0.66651 0.0
H605 H 0.64303 0.17172 0.71668 0.0
C606 C 0.51875 0.23177 0.68351 0.0
C607 C 0.62717 0.19739 0.67913 0.0
C608 C 0.69744 0.18566 0.66444 0.0
C609 C 0.50104 0.22492 0.7131 0.0
C610 C 0.5462 0.20258 0.72509 0.0
C611 C 0.60819 0.18864 0.70749 0.0
C612 C 0.53242 0.19551 0.75711 0.0
C613 C 0.43546 0.24365 0.73215 0.0
C614 C 0.57975 0.20896 0.78528 0.0
C615 C 0.56848 0.20187 0.81517 0.0
C616 C 0.50914 0.18185 0.81785 0.0
C617 C 0.46163 0.16837 0.78985 0.0
C618 C 0.47365 0.17447 0.75944 0.0
H619 H 0.41701 0.27089 0.72697 0.0
H620 H 0.39742 0.21675 0.72161 0.0
H621 H 0.43991 0.25696 0.76208 0.0
H622 H 0.62551 0.22523 0.78426 0.0
H623 H 0.60566 0.21271 0.83655 0.0
H624 H 0.8008 0.69175 0.06044 0.0
H625 H 0.84798 0.66823 0.10273 0.0
H626 H 0.93855 0.79789 0.16459 0.0
H627 H 0.89136 0.82158 0.12237 0.0
H628 H 0.98039 0.66728 0.1313 0.0
H629 H 0.80525 0.78654 0.23591 0.0
H630 H 0.79763 0.77023 0.18807 0.0
H631 H 0.85895 0.81081 0.21561 0.0
C632 C 0.83235 0.71478 0.08239 0.0
C633 C 0.84267 0.75849 0.08808 0.0
C634 C 0.85909 0.70135 0.10663 0.0
C635 C 0.89579 0.73158 0.13713 0.0
C636 C 0.90958 0.77426 0.14151 0.0
H637 H 0.09669 0.68439 0.3016 0.0
H638 H 0.07131 0.69951 0.25114 0.0
C639 C 0.88286 0.78769 0.11735 0.0
C640 C 0.91392 0.72021 0.16622 0.0
H641 H 0.88203 0.74961 0.25531 0.0
C642 C 0.95905 0.68523 0.15845 0.0
C643 C 0.88502 0.74321 0.20141 0.0
C644 C 0.83355 0.77953 0.21082 0.0
C645 C 0.97682 0.67309 0.1852 0.0
C646 C 0.94923 0.69695 0.22069 0.0
C647 C 0.90354 0.73156 0.22821 0.0
C648 C 0.96562 0.6862 0.25042 0.0
C649 C 0.02381 0.63426 0.17501 0.0
C650 C 0.91453 0.67467 0.2674 0.0
C651 C 0.92869 0.66666 0.29659 0.0
C652 C 0.99434 0.67018 0.30963 0.0
C653 C 0.0455 0.68172 0.29251 0.0
C654 C 0.03123 0.68978 0.26329 0.0
H655 H 0.02667 0.61255 0.14498 0.0
H656 H 0.0746 0.64724 0.18499 0.0
H657 H 0.0081 0.61361 0.18775 0.0
H658 H 0.86342 0.67212 0.25818 0.0
H659 H 0.88787 0.65855 0.30941 0.0
H660 H 0.88898 0.18713 0.40562 0.0
H661 H 0.94167 0.20962 0.36392 0.0
H662 H 0.85417 0.34087 0.42422 0.0
H663 H 0.80251 0.31867 0.46611 0.0
H664 H 0.86958 0.23174 0.32093 0.0
H665 H 0.03875 0.37248 0.40466 0.0
H666 H 0.00836 0.33408 0.41969 0.0
H667 H 0.95638 0.37918 0.42352 0.0
C668 C 0.88271 0.22116 0.41051 0.0
C669 C 0.84248 0.25131 0.43934 0.0
C670 C 0.9127 0.23398 0.3867 0.0
C671 C 0.90247 0.27708 0.39107 0.0
C672 C 0.86427 0.30782 0.42075 0.0
H673 H 0.88695 0.34763 0.21821 0.0
H674 H 0.86513 0.33189 0.2686 0.0
C675 C 0.83455 0.29505 0.44471 0.0
C676 C 0.924 0.28771 0.36197 0.0
H677 H 0.00958 0.36325 0.34577 0.0
C678 C 0.90077 0.26027 0.32636 0.0
C679 C 0.96493 0.32479 0.36896 0.0
C680 C 0.99413 0.35413 0.4062 0.0
C681 C 0.91596 0.26939 0.29777 0.0
C682 C 0.95443 0.30752 0.30504 0.0
C683 C 0.97935 0.33436 0.34038 0.0
C684 C 0.96855 0.32 0.27615 0.0
C685 C 0.89086 0.23796 0.25993 0.0
C686 C 0.03417 0.31983 0.26437 0.0
C687 C 0.04691 0.32915 0.23569 0.0
C688 C 0.99423 0.33913 0.21841 0.0
C689 C 0.92873 0.3404 0.23101 0.0
C690 C 0.91608 0.33103 0.25962 0.0
H691 H 0.87751 0.20477 0.25706 0.0
H692 H 0.84544 0.2524 0.25439 0.0
H693 H 0.92884 0.23312 0.23896 0.0
H694 H 0.07541 0.31164 0.27691 0.0
H695 H 0.09803 0.32857 0.22706 0.0
H696 H 0.10666 0.29816 0.69135 0.0
H697 H 0.12611 0.28617 0.74393 0.0
H698 H 0.9383 0.35036 0.79058 0.0
H699 H 0.9172 0.35989 0.73676 0.0
H700 H 0.14371 0.34028 0.81149 0.0
H701 H 0.91701 0.24244 0.80204 0.0
H702 H 0.94034 0.25576 0.76663 0.0
H703 H 0.89784 0.29647 0.80697 0.0
C704 C 0.06947 0.30942 0.7128 0.0
C705 C 0.01037 0.32972 0.71006 0.0
C706 C 0.08053 0.30263 0.74286 0.0
C707 C 0.0332 0.31662 0.77113 0.0
C708 C 0.97466 0.3379 0.76873 0.0
H709 H 0.17806 0.32421 0.97295 0.0
H710 H 0.12893 0.34838 0.93172 0.0
C711 C 0.96287 0.34374 0.73817 0.0
C712 C 0.04672 0.30988 0.80333 0.0
H713 H 0.98381 0.26486 0.85478 0.0
C714 C 0.10869 0.3237 0.82088 0.0
C715 C 0.00132 0.28798 0.81556 0.0
C716 C 0.93574 0.2694 0.7966 0.0
C717 C 0.12735 0.31527 0.84946 0.0
C718 C 0.08136 0.29435 0.86231 0.0
C719 C 0.01874 0.28142 0.84534 0.0
C720 C 0.09969 0.28186 0.89088 0.0
C721 C 0.19756 0.32687 0.86414 0.0
C722 C 0.09459 0.23709 0.88331 0.0
C723 C 0.11985 0.22362 0.90774 0.0
C724 C 0.15116 0.2545 0.94013 0.0
C725 C 0.15334 0.29968 0.94858 0.0
C726 C 0.12636 0.3134 0.92459 0.0
H727 H 0.23129 0.33086 0.84474 0.0
H728 H 0.197 0.35906 0.88988 0.0
H729 H 0.21881 0.30071 0.86984 0.0
H730 H 0.07393 0.21206 0.85765 0.0
H731 H 0.11778 0.18853 0.90044 0.0
H732 H 0.10143 0.8222 0.62199 0.0
H733 H 0.05313 0.79952 0.66462 0.0
H734 H 0.14014 0.66847 0.60275 0.0
H735 H 0.1885 0.69098 0.56013 0.0
H736 H 0.00724 0.66968 0.63171 0.0
H737 H 0.18517 0.78635 0.73561 0.0
H738 H 0.13246 0.81123 0.71538 0.0
H739 H 0.19289 0.76978 0.68772 0.0
C740 C 0.10892 0.78824 0.61707 0.0
C741 C 0.1484 0.75832 0.58768 0.0
C742 C 0.08155 0.77539 0.64146 0.0
C743 C 0.09398 0.73257 0.63716 0.0
C744 C 0.13005 0.7017 0.60659 0.0
H745 H 0.10017 0.65787 0.80828 0.0
H746 H 0.12456 0.67169 0.75716 0.0
C747 C 0.15746 0.71456 0.58214 0.0
C748 C 0.07512 0.72155 0.66635 0.0
H749 H 0.10773 0.75008 0.75516 0.0
C750 C 0.029 0.68723 0.65875 0.0
C751 C 0.10455 0.74404 0.70138 0.0
C752 C 0.15697 0.77964 0.71058 0.0
C753 C 0.01087 0.6752 0.6855 0.0
C754 C 0.03916 0.69846 0.72082 0.0
C755 C 0.08572 0.73247 0.72819 0.0
C756 C 0.02272 0.68761 0.75047 0.0
C757 C 0.96279 0.63706 0.6755 0.0
C758 C 0.95733 0.69212 0.76388 0.0
C759 C 0.94308 0.68391 0.79303 0.0
C760 C 0.99406 0.67129 0.80953 0.0
C761 C 0.05948 0.66682 0.79594 0.0
C762 C 0.07361 0.67498 0.76682 0.0
H763 H 0.95905 0.61564 0.64547 0.0
H764 H 0.97811 0.61594 0.68789 0.0
H765 H 0.91245 0.65077 0.68601 0.0
H766 H 0.91744 0.70268 0.75221 0.0
H767 H 0.89206 0.68732 0.80255 0.0
loop_
_geom_bond_atom_site_label_1
_geom_bond_atom_site_label_2
_geom_bond_distance
_geom_bond_site_symmetry_2
_ccdc_geom_bond_type
Gd0 N31 2.661 . S
Gd0 N37 2.601 . S
Gd0 O44 2.545 . S
Gd0 O45 2.606 . S
Gd0 O47 2.429 . S
Gd0 O48 2.545 . S
Gd0 O49 2.412 . S
Gd0 O51 2.362 1_556 S
Gd0 O52 2.324 . S
Gd0 C59 2.828 . S
Gd1 N10 2.661 . S
Gd1 N14 2.601 . S
Gd1 O45 2.362 1_554 S
Gd1 O46 2.324 . S
Gd1 O50 2.545 . S
Gd1 O51 2.606 . S
Gd1 O53 2.429 . S
Gd1 O54 2.545 . S
Gd1 O55 2.412 . S
Gd1 C68 2.828 . S
C2 C5 1.417 1_656 S
C2 C7 1.431 . S
C2 C8 1.412 . S
C3 C6 1.437 1_655 S
C3 C7 1.317 1_554 S
C3 H22 0.929 . S
C4 C5 1.426 . S
C4 C6 1.413 . S
C4 N14 1.359 . S
C5 C2 1.417 1_454 S
C5 C4 1.426 . S
C5 N10 1.350 . S
C6 C3 1.437 1_455 S
C6 C4 1.413 . S
C6 C16 1.391 . S
C7 C2 1.431 . S
C7 C3 1.317 1_556 S
C7 H18 0.930 . S
C8 C2 1.412 . S
C8 C9 1.355 . S
C8 H20 0.930 . S
C9 C8 1.355 . S
C9 C11 1.402 1_655 S
C9 H21 0.930 . S
N10 Gd1 2.661 . S
N10 C5 1.350 . S
N10 C11 1.307 1_554 S
C11 C9 1.402 1_455 S
C11 N10 1.307 1_556 S
C11 H12 0.930 . S
H12 C11 0.930 . S
C13 N14 1.334 . S
C13 C15 1.394 . S
C13 H17 0.930 . S
N14 Gd1 2.601 . S
N14 C4 1.359 . S
N14 C13 1.334 . S
C15 C13 1.394 . S
C15 C16 1.359 . S
C15 H27 0.930 . S
C16 C6 1.391 . S
C16 C15 1.359 . S
C16 H28 0.929 . S
H17 C13 0.930 . S
H18 C7 0.930 . S
H19 C36 0.930 . S
H20 C8 0.930 . S
H21 C9 0.930 . S
H22 C3 0.929 . S
H23 C41 0.930 . S
H24 C32 0.930 . S
H25 C33 0.930 . S
H26 C57 0.929 . S
H27 C15 0.930 . S
H28 C16 0.929 . S
H29 C58 0.930 . S
H30 C39 0.930 . S
N31 Gd0 2.661 . S
N31 C35 1.350 . S
N31 C36 1.307 1_556 S
C32 H24 0.930 . S
C32 C33 1.355 . S
C32 C34 1.412 . S
C33 H25 0.930 . S
C33 C32 1.355 . S
C33 C36 1.402 . S
C34 C32 1.412 . S
C34 C35 1.417 1_554 S
C34 C58 1.431 . S
C35 N31 1.350 . S
C35 C34 1.417 1_556 S
C35 C38 1.426 . S
C36 H19 0.930 . S
C36 N31 1.307 1_554 S
C36 C33 1.402 . S
N37 Gd0 2.601 . S
N37 C38 1.359 . S
N37 C41 1.334 . S
C38 C35 1.426 . S
C38 N37 1.359 . S
C38 C42 1.413 . S
C39 H30 0.930 . S
C39 C40 1.359 . S
C39 C41 1.394 . S
C40 C39 1.359 . S
C40 C42 1.391 . S
C40 H43 0.929 . S
C41 H23 0.930 . S
C41 N37 1.334 . S
C41 C39 1.394 . S
C42 C38 1.413 . S
C42 C40 1.391 . S
C42 C57 1.437 . S
H43 C40 0.929 . S
O44 Gd0 2.545 . S
O44 C59 1.258 . S
O45 Gd0 2.606 . S
O45 Gd1 2.362 1_556 S
O45 C56 1.284 . S
O46 Gd1 2.324 . S
O46 C66 1.254 1_554 S
O47 Gd0 2.429 . S
O47 C66 1.268 . S
O48 Gd0 2.545 . S
O48 C56 1.250 . S
O49 Gd0 2.412 . S
O49 C59 1.252 . S
O50 Gd1 2.545 . S
O50 C68 1.258 . S
O51 Gd0 2.362 1_554 S
O51 Gd1 2.606 . S
O51 C67 1.284 . S
O52 Gd0 2.324 . S
O52 C75 1.254 1_556 S
O53 Gd1 2.429 . S
O53 C75 1.268 . S
O54 Gd1 2.545 . S
O54 C67 1.250 . S
O55 Gd1 2.412 . S
O55 C68 1.252 . S
C56 O45 1.284 . S
C56 O48 1.250 . S
C57 H26 0.929 . S
C57 C42 1.437 . S
C57 C58 1.317 1_556 S
C58 H29 0.930 . S
C58 C34 1.431 . S
C58 C57 1.317 1_554 S
C59 Gd0 2.828 . S
C59 O44 1.258 . S
C59 O49 1.252 . S
C59 C60 1.497 . S
C60 C59 1.497 . S
C60 C61 1.395 . S
C60 C62 1.380 . S
C61 C60 1.395 . S
C61 C64 1.398 . S
C61 H76 0.930 . S
C62 C60 1.380 . S
C62 C63 1.391 . S
C62 H77 0.930 . S
C63 C62 1.391 . S
C63 C65 1.387 . S
C64 C61 1.398 . S
C64 C65 1.380 . S
C64 H78 0.930 . S
C65 C63 1.387 . S
C65 C64 1.380 . S
C65 H79 0.930 . S
C66 O46 1.254 1_556 S
C66 O47 1.268 . S
C67 O51 1.284 . S
C67 O54 1.250 . S
C68 Gd1 2.828 . S
C68 O50 1.258 . S
C68 O55 1.252 . S
C68 C69 1.497 . S
C69 C68 1.497 . S
C69 C70 1.395 . S
C69 C71 1.380 . S
C70 C69 1.395 . S
C70 C73 1.398 . S
C70 H80 0.930 . S
C71 C69 1.380 . S
C71 C72 1.391 . S
C71 H81 0.930 . S
C72 C71 1.391 . S
C72 C74 1.387 . S
C73 C70 1.398 . S
C73 C74 1.380 . S
C73 H82 0.930 . S
C74 C72 1.387 . S
C74 C73 1.380 . S
C74 H83 0.930 . S
C75 O52 1.254 1_554 S
C75 O53 1.268 . S
H76 C61 0.930 . S
H77 C62 0.930 . S
H78 C64 0.930 . S
H79 C65 0.930 . S
H80 C70 0.930 . S
H81 C71 0.930 . S
H82 C73 0.930 . S
H83 C74 0.930 . S
Gd84 N115 2.661 . S
Gd84 N121 2.601 . S
Gd84 O128 2.545 . S
Gd84 O129 2.606 . S
Gd84 O131 2.429 . S
Gd84 O132 2.545 . S
Gd84 O133 2.412 . S
Gd84 O135 2.362 1_556 S
Gd84 O136 2.324 . S
Gd84 C143 2.828 . S
Gd85 N94 2.661 . S
Gd85 N98 2.601 . S
Gd85 O129 2.362 1_554 S
Gd85 O130 2.324 . S
Gd85 O134 2.545 . S
Gd85 O135 2.606 . S
Gd85 O137 2.429 . S
Gd85 O138 2.545 . S
Gd85 O139 2.412 . S
Gd85 C152 2.828 . S
C86 C89 1.417 1_556 S
C86 C91 1.431 . S
C86 C92 1.412 . S
C87 C90 1.437 . S
C87 C91 1.317 1_554 S
C87 H106 0.929 . S
C88 C89 1.426 . S
C88 C90 1.413 . S
C88 N98 1.359 . S
C89 C86 1.417 1_554 S
C89 C88 1.426 . S
C89 N94 1.350 . S
C90 C87 1.437 . S
C90 C88 1.413 . S
C90 C100 1.391 . S
C91 C86 1.431 . S
C91 C87 1.317 1_556 S
C91 H102 0.930 . S
C92 C86 1.412 . S
C92 C93 1.355 . S
C92 H104 0.930 . S
C93 C92 1.355 . S
C93 C95 1.402 . S
C93 H105 0.930 . S
N94 Gd85 2.661 . S
N94 C89 1.350 . S
N94 C95 1.307 1_554 S
C95 C93 1.402 . S
C95 N94 1.307 1_556 S
C95 H96 0.930 . S
H96 C95 0.930 . S
C97 N98 1.334 . S
C97 C99 1.394 . S
C97 H101 0.930 . S
N98 Gd85 2.601 . S
N98 C88 1.359 . S
N98 C97 1.334 . S
C99 C97 1.394 . S
C99 C100 1.359 . S
C99 H111 0.930 . S
C100 C90 1.391 . S
C100 C99 1.359 . S
C100 H112 0.929 . S
H101 C97 0.930 . S
H102 C91 0.930 . S
H103 C120 0.930 . S
H104 C92 0.930 . S
H105 C93 0.930 . S
H106 C87 0.929 . S
H107 C125 0.930 . S
H108 C116 0.930 . S
H109 C117 0.930 . S
H110 C141 0.929 . S
H111 C99 0.930 . S
H112 C100 0.929 . S
H113 C142 0.930 . S
H114 C123 0.930 . S
N115 Gd84 2.661 . S
N115 C119 1.350 . S
N115 C120 1.307 1_556 S
C116 H108 0.930 . S
C116 C117 1.355 . S
C116 C118 1.412 . S
C117 H109 0.930 . S
C117 C116 1.355 . S
C117 C120 1.402 1_455 S
C118 C116 1.412 . S
C118 C119 1.417 1_454 S
C118 C142 1.431 . S
C119 N115 1.350 . S
C119 C118 1.417 1_656 S
C119 C122 1.426 . S
C120 H103 0.930 . S
C120 N115 1.307 1_554 S
C120 C117 1.402 1_655 S
N121 Gd84 2.601 . S
N121 C122 1.359 . S
N121 C125 1.334 . S
C122 C119 1.426 . S
C122 N121 1.359 . S
C122 C126 1.413 . S
C123 H114 0.930 . S
C123 C124 1.359 . S
C123 C125 1.394 . S
C124 C123 1.359 . S
C124 C126 1.391 . S
C124 H127 0.929 . S
C125 H107 0.930 . S
C125 N121 1.334 . S
C125 C123 1.394 . S
C126 C122 1.413 . S
C126 C124 1.391 . S
C126 C141 1.437 1_655 S
H127 C124 0.929 . S
O128 Gd84 2.545 . S
O128 C143 1.258 . S
O129 Gd84 2.606 . S
O129 Gd85 2.362 1_556 S
O129 C140 1.284 . S
O130 Gd85 2.324 . S
O130 C150 1.254 1_554 S
O131 Gd84 2.429 . S
O131 C150 1.268 . S
O132 Gd84 2.545 . S
O132 C140 1.250 . S
O133 Gd84 2.412 . S
O133 C143 1.252 . S
O134 Gd85 2.545 . S
O134 C152 1.258 . S
O135 Gd84 2.362 1_554 S
O135 Gd85 2.606 . S
O135 C151 1.284 . S
O136 Gd84 2.324 . S
O136 C159 1.254 1_556 S
O137 Gd85 2.429 . S
O137 C159 1.268 . S
O138 Gd85 2.545 . S
O138 C151 1.250 . S
O139 Gd85 2.412 . S
O139 C152 1.252 . S
C140 O129 1.284 . S
C140 O132 1.250 . S
C141 H110 0.929 . S
C141 C126 1.437 1_455 S
C141 C142 1.317 1_556 S
C142 H113 0.930 . S
C142 C118 1.431 . S
C142 C141 1.317 1_554 S
C143 Gd84 2.828 . S
C143 O128 1.258 . S
C143 O133 1.252 . S
C143 C144 1.497 . S
C144 C143 1.497 . S
C144 C145 1.395 . S
C144 C146 1.380 . S
C145 C144 1.395 . S
C145 C148 1.398 . S
C145 H160 0.930 . S
C146 C144 1.380 . S
C146 C147 1.391 . S
C146 H161 0.930 . S
C147 C146 1.391 . S
C147 C149 1.387 . S
C148 C145 1.398 . S
C148 C149 1.380 . S
C148 H162 0.930 . S
C149 C147 1.387 . S
C149 C148 1.380 . S
C149 H163 0.930 . S
C150 O130 1.254 1_556 S
C150 O131 1.268 . S
C151 O135 1.284 . S
C151 O138 1.250 . S
C152 Gd85 2.828 . S
C152 O134 1.258 . S
C152 O139 1.252 . S
C152 C153 1.497 . S
C153 C152 1.497 . S
C153 C154 1.395 . S
C153 C155 1.380 . S
C154 C153 1.395 . S
C154 C157 1.398 . S
C154 H164 0.930 . S
C155 C153 1.380 . S
C155 C156 1.391 . S
C155 H165 0.930 . S
C156 C155 1.391 . S
C156 C158 1.387 . S
C157 C154 1.398 . S
C157 C158 1.380 . S
C157 H166 0.930 . S
C158 C156 1.387 . S
C158 C157 1.380 . S
C158 H167 0.930 . S
C159 O136 1.254 1_554 S
C159 O137 1.268 . S
H160 C145 0.930 . S
H161 C146 0.930 . S
H162 C148 0.930 . S
H163 C149 0.930 . S
H164 C154 0.930 . S
H165 C155 0.930 . S
H166 C157 0.930 . S
H167 C158 0.930 . S
Gd168 N199 2.661 . S
Gd168 N205 2.601 . S
Gd168 O212 2.545 . S
Gd168 O213 2.606 . S
Gd168 O215 2.429 . S
Gd168 O216 2.545 . S
Gd168 O217 2.412 . S
Gd168 O219 2.362 . S
Gd168 O220 2.324 . S
Gd168 C227 2.828 . S
Gd169 N178 2.661 . S
Gd169 N182 2.601 . S
Gd169 O213 2.362 . S
Gd169 O214 2.324 . S
Gd169 O218 2.545 . S
Gd169 O219 2.606 . S
Gd169 O221 2.429 . S
Gd169 O222 2.545 . S
Gd169 O223 2.412 . S
Gd169 C236 2.828 . S
C170 C173 1.417 1_655 S
C170 C175 1.431 . S
C170 C176 1.412 . S
C171 C174 1.437 1_655 S
C171 C175 1.317 . S
C171 H190 0.929 . S
C172 C173 1.426 . S
C172 C174 1.413 . S
C172 N182 1.359 . S
C173 C170 1.417 1_455 S
C173 C172 1.426 . S
C173 N178 1.350 . S
C174 C171 1.437 1_455 S
C174 C172 1.413 . S
C174 C184 1.391 . S
C175 C170 1.431 . S
C175 C171 1.317 . S
C175 H186 0.930 . S
C176 C170 1.412 . S
C176 C177 1.355 . S
C176 H188 0.930 . S
C177 C176 1.355 . S
C177 C179 1.402 1_655 S
C177 H189 0.930 . S
N178 Gd169 2.661 . S
N178 C173 1.350 . S
N178 C179 1.307 . S
C179 C177 1.402 1_455 S
C179 N178 1.307 . S
C179 H180 0.930 . S
H180 C179 0.930 . S
C181 N182 1.334 . S
C181 C183 1.394 . S
C181 H185 0.930 . S
N182 Gd169 2.601 . S
N182 C172 1.359 . S
N182 C181 1.334 . S
C183 C181 1.394 . S
C183 C184 1.359 . S
C183 H195 0.930 . S
C184 C174 1.391 . S
C184 C183 1.359 . S
C184 H196 0.929 . S
H185 C181 0.930 . S
H186 C175 0.930 . S
H187 C204 0.930 . S
H188 C176 0.930 . S
H189 C177 0.930 . S
H190 C171 0.929 . S
H191 C209 0.930 . S
H192 C200 0.930 . S
H193 C201 0.930 . S
H194 C225 0.929 . S
H195 C183 0.930 . S
H196 C184 0.929 . S
H197 C226 0.930 . S
H198 C207 0.930 . S
N199 Gd168 2.661 . S
N199 C203 1.350 . S
N199 C204 1.307 . S
C200 H192 0.930 . S
C200 C201 1.355 . S
C200 C202 1.412 . S
C201 H193 0.930 . S
C201 C200 1.355 . S
C201 C204 1.402 . S
C202 C200 1.412 . S
C202 C203 1.417 . S
C202 C226 1.431 . S
C203 N199 1.350 . S
C203 C202 1.417 . S
C203 C206 1.426 . S
C204 H187 0.930 . S
C204 N199 1.307 . S
C204 C201 1.402 . S
N205 Gd168 2.601 . S
N205 C206 1.359 . S
N205 C209 1.334 . S
C206 C203 1.426 . S
C206 N205 1.359 . S
C206 C210 1.413 . S
C207 H198 0.930 . S
C207 C208 1.359 . S
C207 C209 1.394 . S
C208 C207 1.359 . S
C208 C210 1.391 . S
C208 H211 0.929 . S
C209 H191 0.930 . S
C209 N205 1.334 . S
C209 C207 1.394 . S
C210 C206 1.413 . S
C210 C208 1.391 . S
C210 C225 1.437 . S
H211 C208 0.929 . S
O212 Gd168 2.545 . S
O212 C227 1.258 . S
O213 Gd168 2.606 . S
O213 Gd169 2.362 . S
O213 C224 1.284 . S
O214 Gd169 2.324 . S
O214 C234 1.254 . S
O215 Gd168 2.429 . S
O215 C234 1.268 . S
O216 Gd168 2.545 . S
O216 C224 1.250 . S
O217 Gd168 2.412 . S
O217 C227 1.252 . S
O218 Gd169 2.545 . S
O218 C236 1.258 . S
O219 Gd168 2.362 . S
O219 Gd169 2.606 . S
O219 C235 1.284 . S
O220 Gd168 2.324 . S
O220 C243 1.254 . S
O221 Gd169 2.429 . S
O221 C243 1.268 . S
O222 Gd169 2.545 . S
O222 C235 1.250 . S
O223 Gd169 2.412 . S
O223 C236 1.252 . S
C224 O213 1.284 . S
C224 O216 1.250 . S
C225 H194 0.929 . S
C225 C210 1.437 . S
C225 C226 1.317 . S
C226 H197 0.930 . S
C226 C202 1.431 . S
C226 C225 1.317 . S
C227 Gd168 2.828 . S
C227 O212 1.258 . S
C227 O217 1.252 . S
C227 C228 1.497 . S
C228 C227 1.497 . S
C228 C229 1.395 . S
C228 C230 1.380 . S
C229 C228 1.395 . S
C229 C232 1.398 . S
C229 H244 0.930 . S
C230 C228 1.380 . S
C230 C231 1.391 . S
C230 H245 0.930 . S
C231 C230 1.391 . S
C231 C233 1.387 . S
C232 C229 1.398 . S
C232 C233 1.380 . S
C232 H246 0.930 . S
C233 C231 1.387 . S
C233 C232 1.380 . S
C233 H247 0.930 . S
C234 O214 1.254 . S
C234 O215 1.268 . S
C235 O219 1.284 . S
C235 O222 1.250 . S
C236 Gd169 2.828 . S
C236 O218 1.258 . S
C236 O223 1.252 . S
C236 C237 1.497 . S
C237 C236 1.497 . S
C237 C238 1.395 . S
C237 C239 1.380 . S
C238 C237 1.395 . S
C238 C241 1.398 . S
C238 H248 0.930 . S
C239 C237 1.380 . S
C239 C240 1.391 . S
C239 H249 0.930 . S
C240 C239 1.391 . S
C240 C242 1.387 . S
C241 C238 1.398 . S
C241 C242 1.380 . S
C241 H250 0.930 . S
C242 C240 1.387 . S
C242 C241 1.380 . S
C242 H251 0.930 . S
C243 O220 1.254 . S
C243 O221 1.268 . S
H244 C229 0.930 . S
H245 C230 0.930 . S
H246 C232 0.930 . S
H247 C233 0.930 . S
H248 C238 0.930 . S
H249 C239 0.930 . S
H250 C241 0.930 . S
H251 C242 0.930 . S
Gd252 N283 2.661 . S
Gd252 N289 2.601 . S
Gd252 O296 2.545 . S
Gd252 O297 2.606 . S
Gd252 O299 2.429 . S
Gd252 O300 2.545 . S
Gd252 O301 2.412 . S
Gd252 O303 2.362 . S
Gd252 O304 2.324 . S
Gd252 C311 2.828 . S
Gd253 N262 2.661 . S
Gd253 N266 2.601 . S
Gd253 O297 2.362 . S
Gd253 O298 2.324 . S
Gd253 O302 2.545 . S
Gd253 O303 2.606 . S
Gd253 O305 2.429 . S
Gd253 O306 2.545 . S
Gd253 O307 2.412 . S
Gd253 C320 2.828 . S
C254 C257 1.417 . S
C254 C259 1.431 . S
C254 C260 1.412 . S
C255 C258 1.437 . S
C255 C259 1.317 . S
C255 H274 0.929 . S
C256 C257 1.426 . S
C256 C258 1.413 . S
C256 N266 1.359 . S
C257 C254 1.417 . S
C257 C256 1.426 . S
C257 N262 1.350 . S
C258 C255 1.437 . S
C258 C256 1.413 . S
C258 C268 1.391 . S
C259 C254 1.431 . S
C259 C255 1.317 . S
C259 H270 0.930 . S
C260 C254 1.412 . S
C260 C261 1.355 . S
C260 H272 0.930 . S
C261 C260 1.355 . S
C261 C263 1.402 . S
C261 H273 0.930 . S
N262 Gd253 2.661 . S
N262 C257 1.350 . S
N262 C263 1.307 . S
C263 C261 1.402 . S
C263 N262 1.307 . S
C263 H264 0.930 . S
H264 C263 0.930 . S
C265 N266 1.334 . S
C265 C267 1.394 . S
C265 H269 0.930 . S
N266 Gd253 2.601 . S
N266 C256 1.359 . S
N266 C265 1.334 . S
C267 C265 1.394 . S
C267 C268 1.359 . S
C267 H279 0.930 . S
C268 C258 1.391 . S
C268 C267 1.359 . S
C268 H280 0.929 . S
H269 C265 0.930 . S
H270 C259 0.930 . S
H271 C288 0.930 . S
H272 C260 0.930 . S
H273 C261 0.930 . S
H274 C255 0.929 . S
H275 C293 0.930 . S
H276 C284 0.930 . S
H277 C285 0.930 . S
H278 C309 0.929 . S
H279 C267 0.930 . S
H280 C268 0.929 . S
H281 C310 0.930 . S
H282 C291 0.930 . S
N283 Gd252 2.661 . S
N283 C287 1.350 . S
N283 C288 1.307 . S
C284 H276 0.930 . S
C284 C285 1.355 . S
C284 C286 1.412 . S
C285 H277 0.930 . S
C285 C284 1.355 . S
C285 C288 1.402 1_455 S
C286 C284 1.412 . S
C286 C287 1.417 1_455 S
C286 C310 1.431 . S
C287 N283 1.350 . S
C287 C286 1.417 1_655 S
C287 C290 1.426 . S
C288 H271 0.930 . S
C288 N283 1.307 . S
C288 C285 1.402 1_655 S
N289 Gd252 2.601 . S
N289 C290 1.359 . S
N289 C293 1.334 . S
C290 C287 1.426 . S
C290 N289 1.359 . S
C290 C294 1.413 . S
C291 H282 0.930 . S
C291 C292 1.359 . S
C291 C293 1.394 . S
C292 C291 1.359 . S
C292 C294 1.391 . S
C292 H295 0.929 . S
C293 H275 0.930 . S
C293 N289 1.334 . S
C293 C291 1.394 . S
C294 C290 1.413 . S
C294 C292 1.391 . S
C294 C309 1.437 1_655 S
H295 C292 0.929 . S
O296 Gd252 2.545 . S
O296 C311 1.258 . S
O297 Gd252 2.606 . S
O297 Gd253 2.362 . S
O297 C308 1.284 . S
O298 Gd253 2.324 . S
O298 C318 1.254 . S
O299 Gd252 2.429 . S
O299 C318 1.268 . S
O300 Gd252 2.545 . S
O300 C308 1.250 . S
O301 Gd252 2.412 . S
O301 C311 1.252 . S
O302 Gd253 2.545 . S
O302 C320 1.258 . S
O303 Gd252 2.362 . S
O303 Gd253 2.606 . S
O303 C319 1.284 . S
O304 Gd252 2.324 . S
O304 C327 1.254 . S
O305 Gd253 2.429 . S
O305 C327 1.268 . S
O306 Gd253 2.545 . S
O306 C319 1.250 . S
O307 Gd253 2.412 . S
O307 C320 1.252 . S
C308 O297 1.284 . S
C308 O300 1.250 . S
C309 H278 0.929 . S
C309 C294 1.437 1_455 S
C309 C310 1.317 . S
C310 H281 0.930 . S
C310 C286 1.431 . S
C310 C309 1.317 . S
C311 Gd252 2.828 . S
C311 O296 1.258 . S
C311 O301 1.252 . S
C311 C312 1.497 . S
C312 C311 1.497 . S
C312 C313 1.395 . S
C312 C314 1.380 . S
C313 C312 1.395 . S
C313 C316 1.398 . S
C313 H328 0.930 . S
C314 C312 1.380 . S
C314 C315 1.391 . S
C314 H329 0.930 . S
C315 C314 1.391 . S
C315 C317 1.387 . S
C316 C313 1.398 . S
C316 C317 1.380 . S
C316 H330 0.930 . S
C317 C315 1.387 . S
C317 C316 1.380 . S
C317 H331 0.930 . S
C318 O298 1.254 . S
C318 O299 1.268 . S
C319 O303 1.284 . S
C319 O306 1.250 . S
C320 Gd253 2.828 . S
C320 O302 1.258 . S
C320 O307 1.252 . S
C320 C321 1.497 . S
C321 C320 1.497 . S
C321 C322 1.395 . S
C321 C323 1.380 . S
C322 C321 1.395 . S
C322 C325 1.398 . S
C322 H332 0.930 . S
C323 C321 1.380 . S
C323 C324 1.391 . S
C323 H333 0.930 . S
C324 C323 1.391 . S
C324 C326 1.387 . S
C325 C322 1.398 . S
C325 C326 1.380 . S
C325 H334 0.930 . S
C326 C324 1.387 . S
C326 C325 1.380 . S
C326 H335 0.930 . S
C327 O304 1.254 . S
C327 O305 1.268 . S
H328 C313 0.930 . S
H329 C314 0.930 . S
H330 C316 0.930 . S
H331 C317 0.930 . S
H332 C322 0.930 . S
H333 C323 0.930 . S
H334 C325 0.930 . S
H335 C326 0.930 . S
H336 C344 0.929 . S
H337 C346 0.930 . S
H338 C348 0.930 . S
H339 C351 0.929 . S
H340 C354 0.930 . S
H341 C356 0.960 . S
H342 C356 0.960 . S
H343 C356 0.960 . S
C344 H336 0.929 . S
C344 C345 1.377 . S
C344 C346 1.384 . S
C345 C344 1.377 . S
C345 C351 1.390 1_556 S
C346 H337 0.930 . S
C346 C344 1.384 . S
C346 C347 1.372 . S
C347 C346 1.372 . S
C347 C348 1.400 1_556 S
C347 C352 1.490 . S
C348 H338 0.930 . S
C348 C347 1.400 1_554 S
C348 C351 1.386 . S
H349 C365 0.930 . S
H350 C366 0.931 . S
C351 H339 0.929 . S
C351 C345 1.390 1_554 S
C351 C348 1.386 . S
C352 C347 1.490 . S
C352 C354 1.395 . S
C352 C355 1.403 1_556 S
H353 C359 0.930 . S
C354 H340 0.930 . S
C354 C352 1.395 . S
C354 C357 1.403 . S
C355 C352 1.403 1_554 S
C355 C356 1.524 . S
C355 C359 1.400 . S
C356 H341 0.960 . S
C356 H342 0.960 . S
C356 H343 0.960 . S
C356 C355 1.524 . S
C357 C354 1.403 . S
C357 C358 1.392 . S
C357 C361 1.495 . S
C358 C357 1.392 . S
C358 C359 1.385 1_556 S
C358 C360 1.478 . S
C359 H353 0.930 . S
C359 C355 1.400 . S
C359 C358 1.385 1_554 S
C360 C358 1.478 . S
C360 C362 1.381 . S
C360 C366 1.383 1_556 S
C361 C357 1.495 . S
C361 H367 0.959 . S
C361 H368 0.961 . S
C361 H369 0.960 . S
C362 C360 1.381 . S
C362 C363 1.394 . S
C362 H370 0.930 . S
C363 C362 1.394 . S
C363 C364 1.383 1_556 S
C363 H371 0.929 . S
C364 C363 1.383 1_554 S
C364 C365 1.377 . S
C365 H349 0.930 . S
C365 C364 1.377 . S
C365 C366 1.379 . S
C366 H350 0.931 . S
C366 C360 1.383 1_554 S
C366 C365 1.379 . S
H367 C361 0.959 . S
H368 C361 0.961 . S
H369 C361 0.960 . S
H370 C362 0.930 . S
H371 C363 0.929 . S
H372 C380 0.929 . S
H373 C382 0.930 . S
H374 C384 0.930 . S
H375 C387 0.929 . S
H376 C390 0.930 . S
H377 C392 0.960 . S
H378 C392 0.960 . S
H379 C392 0.960 . S
C380 H372 0.929 . S
C380 C381 1.377 . S
C380 C382 1.384 . S
C381 C380 1.377 . S
C381 C387 1.390 . S
C382 H373 0.930 . S
C382 C380 1.384 . S
C382 C383 1.372 . S
C383 C382 1.372 . S
C383 C384 1.400 . S
C383 C388 1.490 . S
C384 H374 0.930 . S
C384 C383 1.400 . S
C384 C387 1.386 . S
H385 C401 0.930 . S
H386 C402 0.931 . S
C387 H375 0.929 . S
C387 C381 1.390 . S
C387 C384 1.386 . S
C388 C383 1.490 . S
C388 C390 1.395 . S
C388 C391 1.403 . S
H389 C395 0.930 . S
C390 H376 0.930 . S
C390 C388 1.395 . S
C390 C393 1.403 . S
C391 C388 1.403 . S
C391 C392 1.524 . S
C391 C395 1.400 . S
C392 H377 0.960 . S
C392 H378 0.960 . S
C392 H379 0.960 . S
C392 C391 1.524 . S
C393 C390 1.403 . S
C393 C394 1.392 . S
C393 C397 1.495 . S
C394 C393 1.392 . S
C394 C395 1.385 . S
C394 C396 1.478 . S
C395 H389 0.930 . S
C395 C391 1.400 . S
C395 C394 1.385 . S
C396 C394 1.478 . S
C396 C398 1.381 . S
C396 C402 1.383 . S
C397 C393 1.495 . S
C397 H403 0.959 . S
C397 H404 0.961 . S
C397 H405 0.960 . S
C398 C396 1.381 . S
C398 C399 1.394 . S
C398 H406 0.930 . S
C399 C398 1.394 . S
C399 C400 1.383 . S
C399 H407 0.929 . S
C400 C399 1.383 . S
C400 C401 1.377 . S
C401 H385 0.930 . S
C401 C400 1.377 . S
C401 C402 1.379 . S
C402 H386 0.931 . S
C402 C396 1.383 . S
C402 C401 1.379 . S
H403 C397 0.959 . S
H404 C397 0.961 . S
H405 C397 0.960 . S
H406 C398 0.930 . S
H407 C399 0.929 . S
H408 C416 0.929 . S
H409 C418 0.930 . S
H410 C420 0.930 . S
H411 C423 0.929 . S
H412 C426 0.930 . S
H413 C428 0.960 . S
H414 C428 0.960 . S
H415 C428 0.960 . S
C416 H408 0.929 . S
C416 C417 1.377 1_554 S
C416 C418 1.384 . S
C417 C416 1.377 1_556 S
C417 C423 1.390 . S
C418 H409 0.930 . S
C418 C416 1.384 . S
C418 C419 1.371 1_554 S
C419 C418 1.371 1_556 S
C419 C420 1.399 . S
C419 C424 1.498 . S
C420 H410 0.930 . S
C420 C419 1.399 . S
C420 C423 1.386 . S
H421 C437 0.930 . S
H422 C438 0.931 . S
C423 H411 0.929 . S
C423 C417 1.390 . S
C423 C420 1.386 . S
C424 C419 1.498 . S
C424 C426 1.405 1_455 S
C424 C427 1.386 1_556 S
H425 C431 0.930 . S
C426 H412 0.930 . S
C426 C424 1.405 1_655 S
C426 C429 1.403 1_545 S
C427 C424 1.386 1_554 S
C427 C428 1.524 . S
C427 C431 1.400 1_545 S
C428 H413 0.960 . S
C428 H414 0.960 . S
C428 H415 0.960 . S
C428 C427 1.524 . S
C429 C426 1.403 1_565 S
C429 C430 1.392 . S
C429 C433 1.495 . S
C430 C429 1.392 . S
C430 C431 1.385 1_656 S
C430 C432 1.478 . S
C431 H425 0.930 . S
C431 C427 1.400 1_565 S
C431 C430 1.385 1_454 S
C432 C430 1.478 . S
C432 C434 1.381 1_556 S
C432 C438 1.383 . S
C433 C429 1.495 . S
C433 H439 0.959 . S
C433 H440 0.961 . S
C433 H441 0.960 . S
C434 C432 1.381 1_554 S
C434 C435 1.394 . S
C434 H442 0.930 . S
C435 C434 1.394 . S
C435 C436 1.384 1_554 S
C435 H443 0.929 . S
C436 C435 1.384 1_556 S
C436 C437 1.378 . S
C437 H421 0.930 . S
C437 C436 1.378 . S
C437 C438 1.379 . S
C438 H422 0.931 . S
C438 C432 1.383 . S
C438 C437 1.379 . S
H439 C433 0.959 . S
H440 C433 0.961 . S
H441 C433 0.960 . S
H442 C434 0.930 . S
H443 C435 0.929 . S
H444 C452 0.929 . S
H445 C454 0.930 . S
H446 C456 0.930 . S
H447 C459 0.929 . S
H448 C462 0.930 . S
H449 C464 0.960 . S
H450 C464 0.960 . S
H451 C464 0.960 . S
C452 H444 0.929 . S
C452 C453 1.377 . S
C452 C454 1.384 . S
C453 C452 1.377 . S
C453 C459 1.390 . S
C454 H445 0.930 . S
C454 C452 1.384 . S
C454 C455 1.372 . S
C455 C454 1.372 . S
C455 C456 1.400 . S
C455 C460 1.490 . S
C456 H446 0.930 . S
C456 C455 1.400 . S
C456 C459 1.386 . S
H457 C473 0.930 . S
H458 C474 0.931 . S
C459 H447 0.929 . S
C459 C453 1.390 . S
C459 C456 1.386 . S
C460 C455 1.490 . S
C460 C462 1.395 1_655 S
C460 C463 1.403 1_545 S
H461 C467 0.930 . S
C462 H448 0.930 . S
C462 C460 1.395 1_455 S
C462 C465 1.403 . S
C463 C460 1.403 1_565 S
C463 C464 1.524 . S
C463 C467 1.400 . S
C464 H449 0.960 . S
C464 H450 0.960 . S
C464 H451 0.960 . S
C464 C463 1.524 . S
C465 C462 1.403 . S
C465 C466 1.392 1_545 S
C465 C469 1.495 . S
C466 C465 1.392 1_565 S
C466 C467 1.385 1_455 S
C466 C468 1.478 . S
C467 H461 0.930 . S
C467 C463 1.400 . S
C467 C466 1.385 1_655 S
C468 C466 1.478 . S
C468 C470 1.381 . S
C468 C474 1.383 . S
C469 C465 1.495 . S
C469 H475 0.959 . S
C469 H476 0.961 . S
C469 H477 0.960 . S
C470 C468 1.381 . S
C470 C471 1.394 . S
C470 H478 0.930 . S
C471 C470 1.394 . S
C471 C472 1.383 . S
C471 H479 0.929 . S
C472 C471 1.383 . S
C472 C473 1.377 . S
C473 H457 0.930 . S
C473 C472 1.377 . S
C473 C474 1.379 . S
C474 H458 0.931 . S
C474 C468 1.383 . S
C474 C473 1.379 . S
H475 C469 0.959 . S
H476 C469 0.961 . S
H477 C469 0.960 . S
H478 C470 0.930 . S
H479 C471 0.929 . S
H480 C488 0.929 . S
H481 C490 0.930 . S
H482 C492 0.930 . S
H483 C495 0.929 . S
H484 C498 0.930 . S
H485 C500 0.960 . S
H486 C500 0.960 . S
H487 C500 0.960 . S
C488 H480 0.929 . S
C488 C489 1.377 . S
C488 C490 1.384 . S
C489 C488 1.377 . S
C489 C495 1.390 . S
C490 H481 0.930 . S
C490 C488 1.384 . S
C490 C491 1.372 . S
C491 C490 1.372 . S
C491 C492 1.400 . S
C491 C496 1.490 . S
C492 H482 0.930 . S
C492 C491 1.400 . S
C492 C495 1.386 . S
H493 C509 0.930 . S
H494 C510 0.931 . S
C495 H483 0.929 . S
C495 C489 1.390 . S
C495 C492 1.386 . S
C496 C491 1.490 . S
C496 C498 1.395 . S
C496 C499 1.403 . S
H497 C503 0.930 . S
C498 H484 0.930 . S
C498 C496 1.395 . S
C498 C501 1.403 . S
C499 C496 1.403 . S
C499 C500 1.524 . S
C499 C503 1.400 . S
C500 H485 0.960 . S
C500 H486 0.960 . S
C500 H487 0.960 . S
C500 C499 1.524 . S
C501 C498 1.403 . S
C501 C502 1.392 . S
C501 C505 1.495 . S
C502 C501 1.392 . S
C502 C503 1.385 . S
C502 C504 1.478 . S
C503 H497 0.930 . S
C503 C499 1.400 . S
C503 C502 1.385 . S
C504 C502 1.478 . S
C504 C506 1.381 . S
C504 C510 1.383 . S
C505 C501 1.495 . S
C505 H511 0.959 . S
C505 H512 0.961 . S
C505 H513 0.960 . S
C506 C504 1.381 . S
C506 C507 1.394 . S
C506 H514 0.930 . S
C507 C506 1.394 . S
C507 C508 1.383 . S
C507 H515 0.929 . S
C508 C507 1.383 . S
C508 C509 1.377 . S
C509 H493 0.930 . S
C509 C508 1.377 . S
C509 C510 1.379 . S
C510 H494 0.931 . S
C510 C504 1.383 . S
C510 C509 1.379 . S
H511 C505 0.959 . S
H512 C505 0.961 . S
H513 C505 0.960 . S
H514 C506 0.930 . S
H515 C507 0.929 . S
H516 C524 0.929 . S
H517 C526 0.930 . S
H518 C528 0.930 . S
H519 C531 0.929 . S
H520 C534 0.930 . S
H521 C536 0.960 . S
H522 C536 0.960 . S
H523 C536 0.960 . S
C524 H516 0.929 . S
C524 C525 1.377 . S
C524 C526 1.384 . S
C525 C524 1.377 . S
C525 C531 1.390 . S
C526 H517 0.930 . S
C526 C524 1.384 . S
C526 C527 1.372 . S
C527 C526 1.372 . S
C527 C528 1.400 . S
C527 C532 1.490 . S
C528 H518 0.930 . S
C528 C527 1.400 . S
C528 C531 1.386 . S
H529 C545 0.930 . S
H530 C546 0.931 . S
C531 H519 0.929 . S
C531 C525 1.390 . S
C531 C528 1.386 . S
C532 C527 1.490 . S
C532 C534 1.395 . S
C532 C535 1.403 . S
H533 C539 0.930 . S
C534 H520 0.930 . S
C534 C532 1.395 . S
C534 C537 1.403 . S
C535 C532 1.403 . S
C535 C536 1.524 . S
C535 C539 1.400 . S
C536 H521 0.960 . S
C536 H522 0.960 . S
C536 H523 0.960 . S
C536 C535 1.524 . S
C537 C534 1.403 . S
C537 C538 1.392 . S
C537 C541 1.495 . S
C538 C537 1.392 . S
C538 C539 1.385 . S
C538 C540 1.478 . S
C539 H533 0.930 . S
C539 C535 1.400 . S
C539 C538 1.385 . S
C540 C538 1.478 . S
C540 C542 1.381 . S
C540 C546 1.383 . S
C541 C537 1.495 . S
C541 H547 0.959 . S
C541 H548 0.961 . S
C541 H549 0.960 . S
C542 C540 1.381 . S
C542 C543 1.394 . S
C542 H550 0.930 . S
C543 C542 1.394 . S
C543 C544 1.383 . S
C543 H551 0.929 . S
C544 C543 1.383 . S
C544 C545 1.377 . S
C545 H529 0.930 . S
C545 C544 1.377 . S
C545 C546 1.379 . S
C546 H530 0.931 . S
C546 C540 1.383 . S
C546 C545 1.379 . S
H547 C541 0.959 . S
H548 C541 0.961 . S
H549 C541 0.960 . S
H550 C542 0.930 . S
H551 C543 0.929 . S
H552 C560 0.929 . S
H553 C562 0.930 . S
H554 C564 0.930 . S
H555 C567 0.929 . S
H556 C570 0.930 . S
H557 C572 0.960 . S
H558 C572 0.960 . S
H559 C572 0.960 . S
C560 H552 0.929 . S
C560 C561 1.377 . S
C560 C562 1.384 . S
C561 C560 1.377 . S
C561 C567 1.390 . S
C562 H553 0.930 . S
C562 C560 1.384 . S
C562 C563 1.372 . S
C563 C562 1.372 . S
C563 C564 1.400 . S
C563 C568 1.490 . S
C564 H554 0.930 . S
C564 C563 1.400 . S
C564 C567 1.386 . S
H565 C581 0.930 . S
H566 C582 0.931 . S
C567 H555 0.929 . S
C567 C561 1.390 . S
C567 C564 1.386 . S
C568 C563 1.490 . S
C568 C570 1.395 . S
C568 C571 1.403 . S
H569 C575 0.930 . S
C570 H556 0.930 . S
C570 C568 1.395 . S
C570 C573 1.403 . S
C571 C568 1.403 . S
C571 C572 1.524 . S
C571 C575 1.400 . S
C572 H557 0.960 . S
C572 H558 0.960 . S
C572 H559 0.960 . S
C572 C571 1.524 . S
C573 C570 1.403 . S
C573 C574 1.392 . S
C573 C577 1.495 . S
C574 C573 1.392 . S
C574 C575 1.385 . S
C574 C576 1.478 . S
C575 H569 0.930 . S
C575 C571 1.400 . S
C575 C574 1.385 . S
C576 C574 1.478 . S
C576 C578 1.381 . S
C576 C582 1.383 . S
C577 C573 1.495 . S
C577 H583 0.959 . S
C577 H584 0.961 . S
C577 H585 0.960 . S
C578 C576 1.381 . S
C578 C579 1.394 . S
C578 H586 0.930 . S
C579 C578 1.394 . S
C579 C580 1.383 . S
C579 H587 0.929 . S
C580 C579 1.383 . S
C580 C581 1.377 . S
C581 H565 0.930 . S
C581 C580 1.377 . S
C581 C582 1.379 . S
C582 H566 0.931 . S
C582 C576 1.383 . S
C582 C581 1.379 . S
H583 C577 0.959 . S
H584 C577 0.961 . S
H585 C577 0.960 . S
H586 C578 0.930 . S
H587 C579 0.929 . S
H588 C596 0.929 . S
H589 C598 0.930 . S
H590 C600 0.930 . S
H591 C603 0.929 . S
H592 C606 0.930 . S
H593 C608 0.960 . S
H594 C608 0.960 . S
H595 C608 0.960 . S
C596 H588 0.929 . S
C596 C597 1.377 . S
C596 C598 1.384 . S
C597 C596 1.377 . S
C597 C603 1.390 . S
C598 H589 0.930 . S
C598 C596 1.384 . S
C598 C599 1.372 . S
C599 C598 1.372 . S
C599 C600 1.400 . S
C599 C604 1.490 . S
C600 H590 0.930 . S
C600 C599 1.400 . S
C600 C603 1.386 . S
H601 C617 0.930 . S
H602 C618 0.931 . S
C603 H591 0.929 . S
C603 C597 1.390 . S
C603 C600 1.386 . S
C604 C599 1.490 . S
C604 C606 1.395 . S
C604 C607 1.403 . S
H605 C611 0.930 . S
C606 H592 0.930 . S
C606 C604 1.395 . S
C606 C609 1.403 . S
C607 C604 1.403 . S
C607 C608 1.524 . S
C607 C611 1.400 . S
C608 H593 0.960 . S
C608 H594 0.960 . S
C608 H595 0.960 . S
C608 C607 1.524 . S
C609 C606 1.403 . S
C609 C610 1.392 . S
C609 C613 1.495 . S
C610 C609 1.392 . S
C610 C611 1.385 . S
C610 C612 1.478 . S
C611 H605 0.930 . S
C611 C607 1.400 . S
C611 C610 1.385 . S
C612 C610 1.478 . S
C612 C614 1.381 . S
C612 C618 1.383 . S
C613 C609 1.495 . S
C613 H619 0.959 . S
C613 H620 0.961 . S
C613 H621 0.960 . S
C614 C612 1.381 . S
C614 C615 1.394 . S
C614 H622 0.930 . S
C615 C614 1.394 . S
C615 C616 1.383 . S
C615 H623 0.929 . S
C616 C615 1.383 . S
C616 C617 1.377 . S
C617 H601 0.930 . S
C617 C616 1.377 . S
C617 C618 1.379 . S
C618 H602 0.931 . S
C618 C612 1.383 . S
C618 C617 1.379 . S
H619 C613 0.959 . S
H620 C613 0.961 . S
H621 C613 0.960 . S
H622 C614 0.930 . S
H623 C615 0.929 . S
H624 C632 0.929 . S
H625 C634 0.930 . S
H626 C636 0.930 . S
H627 C639 0.929 . S
H628 C642 0.930 . S
H629 C644 0.960 . S
H630 C644 0.960 . S
H631 C644 0.960 . S
C632 H624 0.929 . S
C632 C633 1.377 . S
C632 C634 1.384 . S
C633 C632 1.377 . S
C633 C639 1.390 . S
C634 H625 0.930 . S
C634 C632 1.384 . S
C634 C635 1.372 . S
C635 C634 1.372 . S
C635 C636 1.400 . S
C635 C640 1.490 . S
C636 H626 0.930 . S
C636 C635 1.400 . S
C636 C639 1.386 . S
H637 C653 0.930 . S
H638 C654 0.931 . S
C639 H627 0.929 . S
C639 C633 1.390 . S
C639 C636 1.386 . S
C640 C635 1.490 . S
C640 C642 1.395 . S
C640 C643 1.403 . S
H641 C647 0.930 . S
C642 H628 0.930 . S
C642 C640 1.395 . S
C642 C645 1.403 . S
C643 C640 1.403 . S
C643 C644 1.524 . S
C643 C647 1.400 . S
C644 H629 0.960 . S
C644 H630 0.960 . S
C644 H631 0.960 . S
C644 C643 1.524 . S
C645 C642 1.403 . S
C645 C646 1.392 . S
C645 C649 1.495 . S
C646 C645 1.392 . S
C646 C647 1.385 . S
C646 C648 1.478 . S
C647 H641 0.930 . S
C647 C643 1.400 . S
C647 C646 1.385 . S
C648 C646 1.478 . S
C648 C650 1.381 . S
C648 C654 1.383 1_655 S
C649 C645 1.495 . S
C649 H655 0.959 . S
C649 H656 0.961 1_655 S
C649 H657 0.960 . S
C650 C648 1.381 . S
C650 C651 1.394 . S
C650 H658 0.930 . S
C651 C650 1.394 . S
C651 C652 1.383 1_655 S
C651 H659 0.929 . S
C652 C651 1.383 1_455 S
C652 C653 1.377 . S
C653 H637 0.930 . S
C653 C652 1.377 . S
C653 C654 1.379 . S
C654 H638 0.931 . S
C654 C648 1.383 1_455 S
C654 C653 1.379 . S
H655 C649 0.959 . S
H656 C649 0.961 1_455 S
H657 C649 0.960 . S
H658 C650 0.930 . S
H659 C651 0.929 . S
H660 C668 0.929 . S
H661 C670 0.930 . S
H662 C672 0.930 . S
H663 C675 0.929 . S
H664 C678 0.930 . S
H665 C680 0.960 . S
H666 C680 0.960 . S
H667 C680 0.960 . S
C668 H660 0.929 . S
C668 C669 1.377 . S
C668 C670 1.384 . S
C669 C668 1.377 . S
C669 C675 1.390 . S
C670 H661 0.930 . S
C670 C668 1.384 . S
C670 C671 1.372 . S
C671 C670 1.372 . S
C671 C672 1.400 . S
C671 C676 1.490 . S
C672 H662 0.930 . S
C672 C671 1.400 . S
C672 C675 1.386 . S
H673 C689 0.930 . S
H674 C690 0.931 . S
C675 H663 0.929 . S
C675 C669 1.390 . S
C675 C672 1.386 . S
C676 C671 1.490 . S
C676 C678 1.395 . S
C676 C679 1.403 . S
H677 C683 0.930 . S
C678 H664 0.930 . S
C678 C676 1.395 . S
C678 C681 1.403 . S
C679 C676 1.403 . S
C679 C680 1.524 . S
C679 C683 1.400 . S
C680 H665 0.960 . S
C680 H666 0.960 . S
C680 H667 0.960 . S
C680 C679 1.524 . S
C681 C678 1.403 . S
C681 C682 1.392 . S
C681 C685 1.495 1_655 S
C682 C681 1.392 . S
C682 C683 1.385 . S
C682 C684 1.478 . S
C683 H677 0.930 . S
C683 C679 1.400 . S
C683 C682 1.385 . S
C684 C682 1.478 . S
C684 C686 1.381 1_655 S
C684 C690 1.383 . S
C685 C681 1.495 1_455 S
C685 H691 0.959 . S
C685 H692 0.961 . S
C685 H693 0.960 . S
C686 C684 1.381 1_455 S
C686 C687 1.394 . S
C686 H694 0.930 . S
C687 C686 1.394 . S
C687 C688 1.383 . S
C687 H695 0.929 . S
C688 C687 1.383 . S
C688 C689 1.377 1_455 S
C689 H673 0.930 . S
C689 C688 1.377 1_655 S
C689 C690 1.379 . S
C690 H674 0.931 . S
C690 C684 1.383 . S
C690 C689 1.379 . S
H691 C685 0.959 . S
H692 C685 0.961 . S
H693 C685 0.960 . S
H694 C686 0.930 . S
H695 C687 0.929 . S
H696 C704 0.929 . S
H697 C706 0.930 . S
H698 C708 0.930 . S
H699 C711 0.929 . S
H700 C714 0.930 . S
H701 C716 0.960 . S
H702 C716 0.960 . S
H703 C716 0.960 . S
C704 H696 0.929 . S
C704 C705 1.377 1_455 S
C704 C706 1.384 . S
C705 C704 1.377 1_655 S
C705 C711 1.390 . S
C706 H697 0.930 . S
C706 C704 1.384 . S
C706 C707 1.372 . S
C707 C706 1.372 . S
C707 C708 1.400 1_455 S
C707 C712 1.490 . S
C708 H698 0.930 . S
C708 C707 1.400 1_655 S
C708 C711 1.386 . S
H709 C725 0.930 . S
H710 C726 0.931 . S
C711 H699 0.929 . S
C711 C705 1.390 . S
C711 C708 1.386 . S
C712 C707 1.490 . S
C712 C714 1.395 . S
C712 C715 1.403 . S
H713 C719 0.930 . S
C714 H700 0.930 . S
C714 C712 1.395 . S
C714 C717 1.403 . S
C715 C712 1.403 . S
C715 C716 1.524 1_455 S
C715 C719 1.400 . S
C716 H701 0.960 . S
C716 H702 0.960 . S
C716 H703 0.960 . S
C716 C715 1.524 1_655 S
C717 C714 1.403 . S
C717 C718 1.392 . S
C717 C721 1.495 . S
C718 C717 1.392 . S
C718 C719 1.385 . S
C718 C720 1.478 . S
C719 H713 0.930 . S
C719 C715 1.400 . S
C719 C718 1.385 . S
C720 C718 1.478 . S
C720 C722 1.381 . S
C720 C726 1.383 . S
C721 C717 1.495 . S
C721 H727 0.959 . S
C721 H728 0.961 . S
C721 H729 0.960 . S
C722 C720 1.381 . S
C722 C723 1.394 . S
C722 H730 0.930 . S
C723 C722 1.394 . S
C723 C724 1.383 . S
C723 H731 0.929 . S
C724 C723 1.383 . S
C724 C725 1.377 . S
C725 H709 0.930 . S
C725 C724 1.377 . S
C725 C726 1.379 . S
C726 H710 0.931 . S
C726 C720 1.383 . S
C726 C725 1.379 . S
H727 C721 0.959 . S
H728 C721 0.961 . S
H729 C721 0.960 . S
H730 C722 0.930 . S
H731 C723 0.929 . S
H732 C740 0.929 . S
H733 C742 0.930 . S
H734 C744 0.930 . S
H735 C747 0.929 . S
H736 C750 0.930 1_655 S
H737 C752 0.960 . S
H738 C752 0.960 . S
H739 C752 0.960 . S
C740 H732 0.929 . S
C740 C741 1.377 . S
C740 C742 1.384 . S
C741 C740 1.377 . S
C741 C747 1.390 . S
C742 H733 0.930 . S
C742 C740 1.384 . S
C742 C743 1.372 . S
C743 C742 1.372 . S
C743 C744 1.400 . S
C743 C748 1.490 . S
C744 H734 0.930 . S
C744 C743 1.400 . S
C744 C747 1.386 . S
H745 C761 0.930 . S
H746 C762 0.931 . S
C747 H735 0.929 . S
C747 C741 1.390 . S
C747 C744 1.386 . S
C748 C743 1.490 . S
C748 C750 1.395 . S
C748 C751 1.403 . S
H749 C755 0.930 . S
C750 H736 0.930 1_455 S
C750 C748 1.395 . S
C750 C753 1.403 1_455 S
C751 C748 1.403 . S
C751 C752 1.524 . S
C751 C755 1.400 . S
C752 H737 0.960 . S
C752 H738 0.960 . S
C752 H739 0.960 . S
C752 C751 1.524 . S
C753 C750 1.403 1_655 S
C753 C754 1.392 1_655 S
C753 C757 1.495 . S
C754 C753 1.392 1_455 S
C754 C755 1.385 . S
C754 C756 1.478 . S
C755 H749 0.930 . S
C755 C751 1.400 . S
C755 C754 1.385 . S
C756 C754 1.478 . S
C756 C758 1.381 1_455 S
C756 C762 1.383 . S
C757 C753 1.495 . S
C757 H763 0.959 . S
C757 H764 0.961 . S
C757 H765 0.960 . S
C758 C756 1.381 1_655 S
C758 C759 1.394 . S
C758 H766 0.930 . S
C759 C758 1.394 . S
C759 C760 1.383 . S
C759 H767 0.929 . S
C760 C759 1.383 . S
C760 C761 1.377 1_655 S
C761 H745 0.930 . S
C761 C760 1.377 1_455 S
C761 C762 1.379 . S
C762 H746 0.931 . S
C762 C756 1.383 . S
C762 C761 1.379 . S
H763 C757 0.959 . S
H764 C757 0.961 . S
H765 C757 0.960 . S
H766 C758 0.930 . S
H767 C759 0.929 . S
C345 C150 1.491 . S
C364 C75 1.480 . S
C381 C243 1.493 . S
C400 C318 1.506 . S
C417 C66 1.497 . S
C436 C159 1.514 1_556 S
C453 C327 1.492 . S
C472 C234 1.497 . S
C489 C324 1.101 . S
C508 C67 1.069 . S
C525 C156 1.117 . S
C544 C235 1.147 . S
C561 C140 1.117 . S
C580 C231 1.083 . S
C597 C308 1.103 . S
C616 C63 1.154 . S
C633 C151 1.099 . S
C652 C240 1.059 . S
C669 C319 1.116 . S
C688 C72 1.141 . S
C705 C315 1.117 . S
C724 C56 1.095 . S
C741 C224 1.100 . S
C760 C147 1.097 . S
