# Generated by pormake.
# Topology crs, (6)-cn, num edge types: 1
# Building blocks:
#     Node 0, Type 0, BuildingBlock: MIFKUJ_clean_sbu_0, # of connection points: 6
#     Node 1, Type 0, BuildingBlock: MIFKUJ_clean_sbu_0, # of connection points: 6
#     Node 2, Type 0, BuildingBlock: MIFKUJ_clean_sbu_0, # of connection points: 6
#     Node 3, Type 0, BuildingBlock: MIFKUJ_clean_sbu_0, # of connection points: 6
#     Node 4, Type 0, BuildingBlock: MIFKUJ_clean_sbu_0, # of connection points: 6
#     Node 5, Type 0, BuildingBlock: MIFKUJ_clean_sbu_0, # of connection points: 6
#     Node 6, Type 0, BuildingBlock: MIFKUJ_clean_sbu_0, # of connection points: 6
#     Node 7, Type 0, BuildingBlock: MIFKUJ_clean_sbu_0, # of connection points: 6
#     Node 8, Type 0, BuildingBlock: MIFKUJ_clean_sbu_0, # of connection points: 6
#     Node 9, Type 0, BuildingBlock: MIFKUJ_clean_sbu_0, # of connection points: 6
#     Node 10, Type 0, BuildingBlock: MIFKUJ_clean_sbu_0, # of connection points: 6
#     Node 11, Type 0, BuildingBlock: MIFKUJ_clean_sbu_0, # of connection points: 6
#     Node 12, Type 0, BuildingBlock: MIFKUJ_clean_sbu_0, # of connection points: 6
#     Node 13, Type 0, BuildingBlock: MIFKUJ_clean_sbu_0, # of connection points: 6
#     Node 14, Type 0, BuildingBlock: MIFKUJ_clean_sbu_0, # of connection points: 6
#     Node 15, Type 0, BuildingBlock: MIFKUJ_clean_sbu_0, # of connection points: 6
#     Edge 16, Type (0, 0), BuildingBlock: UVAHIK_clean_linker_0, # of connection points: 2
#     Edge 17, Type (0, 0), BuildingBlock: UVAHIK_clean_linker_0, # of connection points: 2
#     Edge 18, Type (0, 0), BuildingBlock: UVAHIK_clean_linker_0, # of connection points: 2
#     Edge 19, Type (0, 0), BuildingBlock: UVAHIK_clean_linker_0, # of connection points: 2
#     Edge 20, Type (0, 0), BuildingBlock: UVAHIK_clean_linker_0, # of connection points: 2
#     Edge 21, Type (0, 0), BuildingBlock: UVAHIK_clean_linker_0, # of connection points: 2
#     Edge 22, Type (0, 0), BuildingBlock: UVAHIK_clean_linker_0, # of connection points: 2
#     Edge 23, Type (0, 0), BuildingBlock: UVAHIK_clean_linker_0, # of connection points: 2
#     Edge 24, Type (0, 0), BuildingBlock: UVAHIK_clean_linker_0, # of connection points: 2
#     Edge 25, Type (0, 0), BuildingBlock: UVAHIK_clean_linker_0, # of connection points: 2
#     Edge 26, Type (0, 0), BuildingBlock: UVAHIK_clean_linker_0, # of connection points: 2
#     Edge 27, Type (0, 0), BuildingBlock: UVAHIK_clean_linker_0, # of connection points: 2
#     Edge 28, Type (0, 0), BuildingBlock: UVAHIK_clean_linker_0, # of connection points: 2
#     Edge 29, Type (0, 0), BuildingBlock: UVAHIK_clean_linker_0, # of connection points: 2
#     Edge 30, Type (0, 0), BuildingBlock: UVAHIK_clean_linker_0, # of connection points: 2
#     Edge 31, Type (0, 0), BuildingBlock: UVAHIK_clean_linker_0, # of connection points: 2
#     Edge 32, Type (0, 0), BuildingBlock: UVAHIK_clean_linker_0, # of connection points: 2
#     Edge 33, Type (0, 0), BuildingBlock: UVAHIK_clean_linker_0, # of connection points: 2
#     Edge 34, Type (0, 0), BuildingBlock: UVAHIK_clean_linker_0, # of connection points: 2
#     Edge 35, Type (0, 0), BuildingBlock: UVAHIK_clean_linker_0, # of connection points: 2
#     Edge 36, Type (0, 0), BuildingBlock: UVAHIK_clean_linker_0, # of connection points: 2
#     Edge 37, Type (0, 0), BuildingBlock: UVAHIK_clean_linker_0, # of connection points: 2
#     Edge 38, Type (0, 0), BuildingBlock: UVAHIK_clean_linker_0, # of connection points: 2
#     Edge 39, Type (0, 0), BuildingBlock: UVAHIK_clean_linker_0, # of connection points: 2
#     Edge 40, Type (0, 0), BuildingBlock: UVAHIK_clean_linker_0, # of connection points: 2
#     Edge 41, Type (0, 0), BuildingBlock: UVAHIK_clean_linker_0, # of connection points: 2
#     Edge 42, Type (0, 0), BuildingBlock: UVAHIK_clean_linker_0, # of connection points: 2
#     Edge 43, Type (0, 0), BuildingBlock: UVAHIK_clean_linker_0, # of connection points: 2
#     Edge 44, Type (0, 0), BuildingBlock: UVAHIK_clean_linker_0, # of connection points: 2
#     Edge 45, Type (0, 0), BuildingBlock: UVAHIK_clean_linker_0, # of connection points: 2
#     Edge 46, Type (0, 0), BuildingBlock: UVAHIK_clean_linker_0, # of connection points: 2
#     Edge 47, Type (0, 0), BuildingBlock: UVAHIK_clean_linker_0, # of connection points: 2
#     Edge 48, Type (0, 0), BuildingBlock: UVAHIK_clean_linker_0, # of connection points: 2
#     Edge 49, Type (0, 0), BuildingBlock: UVAHIK_clean_linker_0, # of connection points: 2
#     Edge 50, Type (0, 0), BuildingBlock: UVAHIK_clean_linker_0, # of connection points: 2
#     Edge 51, Type (0, 0), BuildingBlock: UVAHIK_clean_linker_0, # of connection points: 2
#     Edge 52, Type (0, 0), BuildingBlock: UVAHIK_clean_linker_0, # of connection points: 2
#     Edge 53, Type (0, 0), BuildingBlock: UVAHIK_clean_linker_0, # of connection points: 2
#     Edge 54, Type (0, 0), BuildingBlock: UVAHIK_clean_linker_0, # of connection points: 2
#     Edge 55, Type (0, 0), BuildingBlock: UVAHIK_clean_linker_0, # of connection points: 2
#     Edge 56, Type (0, 0), BuildingBlock: UVAHIK_clean_linker_0, # of connection points: 2
#     Edge 57, Type (0, 0), BuildingBlock: UVAHIK_clean_linker_0, # of connection points: 2
#     Edge 58, Type (0, 0), BuildingBlock: UVAHIK_clean_linker_0, # of connection points: 2
#     Edge 59, Type (0, 0), BuildingBlock: UVAHIK_clean_linker_0, # of connection points: 2
#     Edge 60, Type (0, 0), BuildingBlock: UVAHIK_clean_linker_0, # of connection points: 2
#     Edge 61, Type (0, 0), BuildingBlock: UVAHIK_clean_linker_0, # of connection points: 2
#     Edge 62, Type (0, 0), BuildingBlock: UVAHIK_clean_linker_0, # of connection points: 2
#     Edge 63, Type (0, 0), BuildingBlock: UVAHIK_clean_linker_0, # of connection points: 2
# Relax obj value: 0.310
# Max RMSD: 0.278
# Mean RMSD: 0.243
data_MOF--net-crs--node1-MIFKUJ_clean_sbu_0--edge1-UVAHIK_clean_linker_0
_symmetry_space_group_name_H-M    P1
_symmetry_Int_Tables_number       1
_symmetry_cell_setting            triclinic
loop_
_symmetry_equiv_pos_as_xyz
'x, y, z'
_cell_length_a     55.201386
_cell_length_b     55.075451
_cell_length_c     56.581575
_cell_angle_alpha  89.79833
_cell_angle_beta   89.844091
_cell_angle_gamma 81.379543
loop_
_atom_site_label
_atom_site_type_symbol
_atom_site_fract_x
_atom_site_fract_y
_atom_site_fract_z
_atom_type_partial_charge
Zn0 Zn 0.01235 0.04007 0.98 0.0
Zn1 Zn 0.95172 0.00698 0.98795 0.0
C2 C 0.01013 0.08364 0.00579 0.0
O3 O 0.01005 0.09214 0.98405 0.0
C4 C 0.94699 0.96418 0.96352 0.0
O5 O 0.94074 0.95857 0.98506 0.0
O6 O 0.04508 0.03741 0.96424 0.0
O7 O 0.00096 0.00778 0.98683 0.0
O8 O 0.97777 0.99027 0.01027 0.0
C9 C 0.04681 0.03507 0.94194 0.0
O10 O 0.02751 0.03106 0.92988 0.0
O11 O 0.01145 0.06068 0.00905 0.0
C12 C 0.90015 0.00501 0.9966 0.0
O13 O 0.89885 0.00329 0.9735 0.0
O14 O 0.92004 0.00924 0.00583 0.0
O15 O 0.96329 0.03933 0.98078 0.0
O16 O 0.98667 0.0564 0.95707 0.0
O17 O 0.95221 0.98548 0.95948 0.0
C18 C -0.00164 0.9972 0.00643 0.0
C19 C 0.96616 0.04928 0.96091 0.0
Zn20 Zn 0.98776 0.24821 0.27128 0.0
Zn21 Zn 0.01858 0.27095 0.23895 0.0
C22 C 0.01166 0.26335 0.31193 0.0
O23 O 0.01586 0.23948 0.31531 0.0
C24 C -0.00239 0.2538 0.19781 0.0
O25 O -0.00479 0.27738 0.1929 0.0
O26 O 0.96656 0.23036 0.29156 0.0
O27 O 0.96625 0.26784 0.24716 0.0
O28 O -0.00968 0.29619 0.24764 0.0
C29 C 0.95023 0.24404 0.3032 0.0
O30 O 0.94699 0.26782 0.29915 0.0
O31 O -0.00011 0.2719 0.29371 0.0
C32 C 0.05699 0.27139 0.2078 0.0
O33 O 0.05955 0.2483 0.21459 0.0
O34 O 0.04052 0.28672 0.21751 0.0
O35 O 0.03977 0.25289 0.26383 0.0
O36 O 0.01682 0.22375 0.26169 0.0
O37 O 0.00635 0.24626 0.21771 0.0
C38 C 0.96936 0.29005 0.24412 0.0
C39 C 0.03754 0.23035 0.26557 0.0
Zn40 Zn 0.78562 0.25149 0.52855 0.0
Zn41 Zn 0.75455 0.22953 0.4971 0.0
C42 C 0.82979 0.21937 0.51255 0.0
O43 O 0.83766 0.22034 0.53437 0.0
C44 C 0.71281 0.26529 0.50974 0.0
O45 O 0.70906 0.26668 0.48682 0.0
O46 O 0.80582 0.26934 0.54968 0.0
O47 O 0.76711 0.27792 0.50778 0.0
O48 O 0.77092 0.25313 0.47726 0.0
C49 C 0.79651 0.28966 0.55881 0.0
O50 O 0.77294 0.29727 0.55621 0.0
O51 O 0.80895 0.23093 0.50696 0.0
C52 C 0.72167 0.19773 0.48754 0.0
O53 O 0.72331 0.19699 0.5107 0.0
O54 O 0.7341 0.21149 0.47611 0.0
O55 O 0.77322 0.20333 0.51837 0.0
O56 O 0.76845 0.22877 0.5483 0.0
O57 O 0.73072 0.25048 0.51785 0.0
C58 C 0.76869 0.27483 0.48551 0.0
C59 C 0.77049 0.20694 0.5405 0.0
Zn60 Zn 0.75037 -0.00021 0.76536 0.0
Zn61 Zn 0.70851 0.9884 0.7384 0.0
C62 C 0.73879 0.98355 0.81135 0.0
O63 O 0.7395 0.00684 0.81577 0.0
C64 C 0.72612 0.00982 0.69588 0.0
O65 O 0.7225 0.98873 0.68682 0.0
O66 O 0.77976 0.01238 0.77817 0.0
O67 O 0.76162 0.98048 0.73594 0.0
O68 O 0.73272 0.95808 0.74223 0.0
C69 C 0.79825 0.99672 0.7835 0.0
O70 O 0.79776 0.9734 0.77903 0.0
O71 O 0.7422 0.97586 0.79026 0.0
C72 C 0.65862 0.98375 0.72274 0.0
O73 O 0.65067 0.99724 0.74108 0.0
O74 O 0.68149 0.97808 0.71931 0.0
O75 O 0.69473 0.00481 0.76789 0.0
O76 O 0.72305 0.02864 0.7648 0.0
O77 O 0.72205 0.01365 0.7178 0.0
C78 C 0.75388 0.95997 0.73446 0.0
C79 C 0.70175 0.02539 0.77145 0.0
Zn80 Zn 0.47859 0.75096 0.28749 0.0
Zn81 Zn 0.51042 0.76008 0.24457 0.0
C82 C 0.50788 0.78182 0.31357 0.0
O83 O 0.51631 0.76095 0.32405 0.0
C84 C 0.49282 0.73626 0.20475 0.0
O85 O 0.48786 0.75922 0.19768 0.0
O86 O 0.45726 0.74326 0.31469 0.0
O87 O 0.45675 0.75743 0.25945 0.0
O88 O 0.47962 0.78463 0.24827 0.0
C89 C 0.45085 0.75919 0.33059 0.0
O90 O 0.457 0.78121 0.32867 0.0
O91 O 0.49274 0.7818 0.29663 0.0
C92 C 0.55103 0.78523 0.22979 0.0
O93 O 0.55846 0.78266 0.25182 0.0
O94 O 0.53172 0.77705 0.22352 0.0
O95 O 0.53134 0.7456 0.27208 0.0
O96 O 0.50489 0.72237 0.2847 0.0
O97 O 0.50216 0.73172 0.22511 0.0
C98 C 0.45912 0.77682 0.24814 0.0
C99 C 0.5268 0.72639 0.28268 0.0
Zn100 Zn 0.20954 0.77911 0.49937 0.0
Zn101 Zn 0.23734 0.8156 0.52255 0.0
C102 C 0.22869 0.73661 0.52505 0.0
O103 O 0.23338 0.72925 0.50322 0.0
C104 C 0.22165 0.85594 0.49064 0.0
O105 O 0.21897 0.86851 0.51041 0.0
O106 O 0.19139 0.75767 0.4797 0.0
O107 O 0.18596 0.80921 0.50853 0.0
O108 O 0.20694 0.81288 0.54083 0.0
C109 C 0.1709 0.75287 0.48709 0.0
O110 O 0.16104 0.76425 0.50594 0.0
O111 O 0.21856 0.7586 0.52859 0.0
C112 C 0.27685 0.83075 0.55028 0.0
O113 O 0.28671 0.80758 0.54871 0.0
O114 O 0.25606 0.83781 0.54097 0.0
O115 O 0.26028 0.78477 0.51512 0.0
O116 O 0.24063 0.78176 0.48185 0.0
O117 O 0.22857 0.8329 0.49159 0.0
C118 C 0.18655 0.81534 0.53012 0.0
C119 C 0.26035 0.77796 0.4937 0.0
Zn120 Zn 0.27986 0.53879 0.77325 0.0
Zn121 Zn 0.23869 0.52479 0.74658 0.0
C122 C 0.26506 0.51365 0.81413 0.0
O123 O 0.26687 0.53488 0.82397 0.0
C124 C 0.24717 0.54819 0.70246 0.0
O125 O 0.24912 0.5255 0.69475 0.0
O126 O 0.30755 0.54893 0.79143 0.0
O127 O 0.29366 0.52542 0.74216 0.0
O128 O 0.26796 0.49878 0.74443 0.0
C129 C 0.32601 0.53244 0.79426 0.0
O130 O 0.32615 0.511 0.7841 0.0
O131 O 0.26976 0.51078 0.79223 0.0
C132 C 0.19083 0.52146 0.7291 0.0
O133 O 0.18696 0.54497 0.73426 0.0
O134 O 0.21157 0.50902 0.73348 0.0
O135 O 0.22702 0.53976 0.77754 0.0
O136 O 0.25206 0.56688 0.77373 0.0
O137 O 0.24313 0.55238 0.72429 0.0
C138 C 0.28816 0.50445 0.73722 0.0
C139 C 0.23176 0.56134 0.78093 0.0
Zn140 Zn 0.04146 0.5037 0.49725 0.0
Zn141 Zn 0.00241 0.47739 0.51414 0.0
C142 C 0.01383 0.54933 0.51504 0.0
O143 O 0.01665 0.55782 0.49363 0.0
C144 C 0.0218 0.42885 0.49886 0.0
O145 O 0.01394 0.42298 0.51975 0.0
O146 O 0.06672 0.52214 0.48358 0.0
O147 O 0.05785 0.47574 0.51732 0.0
O148 O 0.02535 0.48155 0.54038 0.0
C149 C 0.08248 0.52983 0.49678 0.0
O150 O 0.08338 0.52362 0.51924 0.0
O151 O 0.02247 0.52723 0.51992 0.0
C152 C 0.95882 0.45641 0.51472 0.0
O153 O 0.96143 0.45919 0.49182 0.0
O154 O 0.97424 0.46371 0.52859 0.0
O155 O 0.98796 0.50575 0.49375 0.0
O156 O 0.01972 0.49789 0.4702 0.0
O157 O 0.01932 0.45127 0.49272 0.0
C158 C 0.04819 0.4746 0.53767 0.0
C159 C -0.00285 0.50593 0.47316 0.0
Zn160 Zn 0.21285 0.24256 0.96759 0.0
Zn161 Zn 0.24794 0.27176 0.98974 0.0
C162 C 0.238 0.1979 0.98897 0.0
O163 O 0.24356 0.19187 0.96695 0.0
C164 C 0.22869 0.31881 0.97063 0.0
O165 O 0.22729 0.32438 0.9932 0.0
O166 O 0.19181 0.22429 0.94788 0.0
O167 O 0.19256 0.27154 0.98302 0.0
O168 O 0.22001 0.26806 0.01137 0.0
C169 C 0.16953 0.22252 0.9518 0.0
O170 O 0.1581 0.23453 0.9696 0.0
O171 O 0.22566 0.21877 0.99339 0.0
C172 C 0.28724 0.29758 0.99722 0.0
O173 O 0.28833 0.29488 0.97416 0.0
O174 O 0.27147 0.28783 0.0088 0.0
O175 O 0.26748 0.24279 0.97355 0.0
O176 O 0.23975 0.24785 0.9456 0.0
O177 O 0.23596 0.2967 0.96465 0.0
C178 C 0.19815 0.27479 0.00443 0.0
C179 C 0.2616 0.2406 0.95208 0.0
Zn180 Zn 0.26683 0.00302 0.23311 0.0
Zn181 Zn 0.22368 0.99263 0.20758 0.0
C182 C 0.25127 0.99086 0.27909 0.0
O183 O 0.25504 0.01356 0.28265 0.0
C184 C 0.23696 0.01054 0.16272 0.0
O185 O 0.22838 0.99074 0.1558 0.0
O186 O 0.29627 0.01423 0.24734 0.0
O187 O 0.2776 0.98182 0.20501 0.0
O188 O 0.24691 0.96117 0.21005 0.0
C189 C 0.31207 -0.00159 0.25731 0.0
O190 O 0.31013 0.97502 0.25519 0.0
O191 O 0.2548 0.98172 0.25853 0.0
C192 C 0.17664 0.0046 0.18879 0.0
O193 O 0.18064 0.02604 0.19673 0.0
O194 O 0.19278 0.98591 0.19221 0.0
O195 O 0.21332 0.01125 0.23715 0.0
O196 O 0.24218 0.03355 0.23005 0.0
O197 O 0.23763 0.01514 0.18468 0.0
C198 C 0.26881 0.96183 0.20345 0.0
C199 C 0.22135 0.03159 0.23875 0.0
Zn200 Zn 0.47592 0.25681 0.75313 0.0
Zn201 Zn 0.51457 0.27279 0.72507 0.0
C202 C 0.49132 0.27007 0.79868 0.0
O203 O 0.49055 0.24658 0.80206 0.0
C204 C 0.49776 0.25513 0.68091 0.0
O205 O 0.50058 0.27737 0.6741 0.0
O206 O 0.44884 0.2417 0.76757 0.0
O207 O 0.46141 0.27709 0.72549 0.0
O208 O 0.48861 0.30161 0.73079 0.0
C209 C 0.42836 0.255 0.77114 0.0
O210 O 0.42525 0.27805 0.7642 0.0
O211 O 0.48595 0.27931 0.77839 0.0
C212 C 0.55703 0.2698 0.69789 0.0
O213 O 0.55659 0.24646 0.70251 0.0
O214 O 0.54088 0.28577 0.70712 0.0
O215 O 0.53056 0.25386 0.75264 0.0
O216 O 0.50333 0.22899 0.7488 0.0
O217 O 0.50191 0.24896 0.70239 0.0
C218 C 0.4674 0.29841 0.72414 0.0
C219 C 0.52442 0.23273 0.75537 0.0
Zn220 Zn 0.96225 0.72863 0.77095 0.0
Zn221 Zn 0.98919 0.75209 0.73438 0.0
C222 C 0.97971 0.75857 0.80706 0.0
O223 O 0.98964 0.73725 0.81575 0.0
C224 C 0.97301 0.72742 0.69548 0.0
O225 O 0.96744 0.75042 0.68872 0.0
O226 O 0.94598 0.71032 0.79549 0.0
O227 O 0.93851 0.73999 0.74448 0.0
O228 O 0.95724 0.77239 0.7408 0.0
C229 C 0.92398 0.70617 0.79536 0.0
O230 O 0.91003 0.71297 0.77702 0.0
O231 O 0.96774 0.75925 0.78788 0.0
C232 C 0.02518 0.75943 0.70128 0.0
O233 O 0.03171 0.73605 0.70628 0.0
O234 O 0.00713 0.77139 0.71218 0.0
O235 O 0.01181 0.74169 0.76109 0.0
O236 O -0.00484 0.70818 0.76474 0.0
O237 O 0.98267 0.72277 0.71568 0.0
C238 C 0.93833 0.76216 0.73797 0.0
C239 C 0.01358 0.71931 0.76708 0.0
Zn240 Zn 0.76873 0.51306 0.28938 0.0
Zn241 Zn 0.72515 0.49924 0.26699 0.0
C242 C 0.76347 0.48677 0.33331 0.0
O243 O 0.76601 0.50805 0.34266 0.0
C244 C 0.73212 0.52053 0.22182 0.0
O245 O 0.73068 0.49785 0.2155 0.0
O246 O 0.79897 0.52482 0.30105 0.0
O247 O 0.77705 0.49978 0.25695 0.0
O248 O 0.75364 0.47206 0.26461 0.0
C249 C 0.81853 0.50942 0.30066 0.0
O250 O 0.81781 0.48727 0.29239 0.0
O251 O 0.76344 0.48473 0.31094 0.0
C252 C 0.67721 0.49887 0.24876 0.0
O253 O 0.67514 0.52242 0.25356 0.0
O254 O 0.69681 0.48493 0.25429 0.0
O255 O 0.71519 0.51478 0.29837 0.0
O256 O 0.74111 0.54076 0.29284 0.0
O257 O 0.73044 0.52606 0.24363 0.0
C258 C 0.7724 0.47808 0.25449 0.0
C259 C 0.72101 0.53602 0.30127 0.0
Zn260 Zn 0.73346 0.7448 0.01344 0.0
Zn261 Zn 0.77097 0.77153 0.03262 0.0
C262 C 0.74629 0.69818 0.03659 0.0
O263 O 0.74636 0.69051 0.01462 0.0
C264 C 0.75232 0.81636 0.00816 0.0
O265 O 0.75221 0.82516 0.02972 0.0
O266 O 0.70857 0.72995 0.99519 0.0
O267 O 0.7169 0.77673 0.02697 0.0
O268 O 0.74356 0.7702 0.05568 0.0
C269 C 0.68734 0.7292 0.00351 0.0
O270 O 0.68094 0.74046 0.0235 0.0
O271 O 0.74226 0.72112 0.0406 0.0
C272 C 0.81263 0.796 0.0393 0.0
O273 O 0.81937 0.78584 0.01888 0.0
O274 O 0.79363 0.79055 0.04941 0.0
O275 O 0.78983 0.74037 0.01924 0.0
O276 O 0.76194 0.74368 0.99138 0.0
O277 O 0.75887 0.79347 0.00497 0.0
C278 C 0.72226 0.77903 0.04856 0.0
C279 C 0.78361 0.73595 -0.00173 0.0
Zn280 Zn 0.46534 0.01699 0.49964 0.0
Zn281 Zn 0.50308 0.04056 0.4762 0.0
C282 C 0.42331 0.04287 0.47279 0.0
O283 O 0.41086 0.04428 0.49266 0.0
C284 C 0.53849 0.00724 0.50566 0.0
O285 O 0.55139 0.00099 0.4865 0.0
O286 O 0.44425 0.99788 0.51899 0.0
O287 O 0.49012 0.99103 0.48408 0.0
O288 O 0.4929 0.01561 0.45392 0.0
C289 C 0.4299 0.00652 0.53551 0.0
O290 O 0.42782 0.02994 0.54082 0.0
O291 O 0.44557 0.0329 0.47264 0.0
C292 C 0.525 0.07778 0.45128 0.0
O293 O 0.50319 0.09085 0.45364 0.0
O294 O 0.52891 0.05602 0.45942 0.0
O295 O 0.47856 0.06781 0.49025 0.0
O296 O 0.47496 0.04356 0.52051 0.0
O297 O 0.51911 0.02278 0.50434 0.0
C298 C 0.49386 0.99398 0.46213 0.0
C299 C 0.47487 0.06507 0.51225 0.0
Zn300 Zn 0.53074 0.49913 0.01218 0.0
Zn301 Zn 0.49156 0.46772 0.02435 0.0
C302 C 0.50751 0.54473 0.03186 0.0
O303 O 0.50774 0.55138 0.00954 0.0
C304 C 0.51156 0.423 0.00011 0.0
O305 O 0.50931 0.4133 0.0211 0.0
O306 O 0.55607 0.5165 0.99731 0.0
O307 O 0.5476 0.46886 0.02868 0.0
O308 O 0.51495 0.46902 0.05091 0.0
C309 C 0.57404 0.5219 0.00905 0.0
O310 O 0.5772 0.514 0.03092 0.0
O311 O 0.5155 0.52259 0.03737 0.0
C312 C 0.44642 0.46055 0.04833 0.0
O313 O 0.44292 0.48447 0.05124 0.0
O314 O 0.46539 0.4503 0.03752 0.0
O315 O 0.47511 0.49916 0.00981 0.0
O316 O 0.50679 0.49702 0.98606 0.0
O317 O 0.50652 0.44615 -0.00234 0.0
C318 C 0.53801 0.46442 0.04835 0.0
C319 C 0.48414 0.50374 0.98993 0.0
C320 C 0.0031 0.12613 0.02212 0.0
C321 C 0.00783 0.10067 0.02601 0.0
C322 C 0.00041 0.14235 0.04113 0.0
C323 C 0.98721 0.14597 0.10518 0.0
H324 H 0.01579 0.20597 0.10035 0.0
C325 C -0.002 0.21067 0.18385 0.0
C326 C -0.00636 0.23605 0.17926 0.0
C327 C -0.00263 0.19386 0.1655 0.0
C328 C 0.00743 0.18945 0.10184 0.0
H329 H 0.01366 0.07219 0.05288 0.0
H330 H 0.00944 0.10062 0.08615 0.0
H331 H 0.02047 0.17693 0.06779 0.0
H332 H 0.98386 0.26371 0.15212 0.0
H333 H 0.9827 0.23437 0.12019 0.0
H334 H 0.97457 0.15848 0.13953 0.0
C335 C 0.00736 0.10801 0.06838 0.0
C336 C 0.01012 0.1728 0.08319 0.0
C337 C 0.00993 0.09174 0.04933 0.0
C338 C 0.98747 0.24428 0.15622 0.0
C339 C 0.98694 0.2275 0.1379 0.0
C340 C 0.98463 0.16262 0.12394 0.0
C341 C 0.00256 0.1335 0.06448 0.0
C342 C -4e-05 0.15092 0.08458 0.0
C343 C -0.00754 0.20215 0.14226 0.0
C344 C -0.00536 0.18457 0.12237 0.0
H345 H 0.00121 0.13359 0.00437 0.0
H346 H -0.00367 0.16186 0.03752 0.0
H347 H 0.9789 0.12942 0.10668 0.0
H348 H 0.00275 0.20375 0.20144 0.0
H349 H 0.00179 0.17442 0.16935 0.0
C350 C 0.87157 0.20396 0.49657 0.0
C351 C 0.84604 0.20804 0.49362 0.0
C352 C 0.88694 0.19832 0.47704 0.0
C353 C 0.90845 0.21471 0.4316 0.0
H354 H 0.89421 0.17943 0.37529 0.0
C355 C 0.92478 0.2503 0.33967 0.0
C356 C 0.9383 0.23412 0.3237 0.0
C357 C 0.91631 0.24154 0.36078 0.0
C358 C 0.89863 0.18907 0.39098 0.0
H359 H 0.8165 0.20669 0.46866 0.0
H360 H 0.84317 0.1971 0.43474 0.0
H361 H 0.87586 0.17033 0.41321 0.0
H362 H 0.95241 0.19587 0.31671 0.0
H363 H 0.93698 0.18048 0.35367 0.0
H364 H 0.93022 0.23426 0.40927 0.0
C365 C 0.85146 0.19823 0.45196 0.0
C366 C 0.88813 0.18393 0.41261 0.0
C367 C 0.83614 0.204 0.47138 0.0
C368 C 0.9421 0.20879 0.32873 0.0
C369 C 0.93333 0.19997 0.34982 0.0
C370 C 0.91874 0.21995 0.41003 0.0
C371 C 0.87697 0.1965 0.45438 0.0
C372 C 0.8923 0.19732 0.43296 0.0
C373 C 0.92095 0.2164 0.36626 0.0
C374 C 0.9132 0.20782 0.38942 0.0
H375 H 0.87969 0.20675 0.51356 0.0
H376 H 0.90657 0.19679 0.47943 0.0
H377 H 0.91183 0.22554 0.44685 0.0
H378 H 0.92145 0.26989 0.33632 0.0
H379 H 0.90638 0.2545 0.37302 0.0
C380 C 0.73787 0.02499 0.65625 0.0
C381 C 0.73348 0.02933 0.68047 0.0
C382 C 0.74346 0.04371 0.64137 0.0
C383 C 0.76475 0.10456 0.64117 0.0
H384 H 0.73399 0.11079 0.57947 0.0
C385 C 0.76532 0.19002 0.58118 0.0
C386 C 0.76837 0.18613 0.55673 0.0
C387 C 0.76231 0.17057 0.59637 0.0
C388 C 0.743 0.10915 0.59651 0.0
H389 H 0.73202 0.05672 0.7081 0.0
H390 H 0.74154 0.08946 0.68208 0.0
H391 H 0.72665 0.07758 0.60578 0.0
H392 H 0.77097 0.15859 0.52915 0.0
H393 H 0.76593 0.12469 0.55564 0.0
H394 H 0.78094 0.13632 0.6319 0.0
C395 C 0.7409 0.07148 0.67462 0.0
C396 C 0.73879 0.09007 0.61162 0.0
C397 C 0.73532 0.05273 0.68954 0.0
C398 C 0.76864 0.16226 0.54788 0.0
C399 C 0.76558 0.14284 0.56305 0.0
C400 C 0.76895 0.12369 0.62604 0.0
C401 C 0.74479 0.06729 0.65029 0.0
C402 C 0.7496 0.08751 0.63415 0.0
C403 C 0.76221 0.14676 0.58748 0.0
C404 C 0.7581 0.12623 0.60352 0.0
H405 H 0.73674 0.00716 0.64868 0.0
H406 H 0.74676 0.03968 0.62281 0.0
H407 H 0.77364 0.10297 0.65826 0.0
H408 H 0.76496 0.20817 0.58861 0.0
H409 H 0.75949 0.17432 0.61503 0.0
C410 C 0.92544 0.04296 0.94531 0.0
C411 C 0.94966 0.04654 0.94101 0.0
C412 C 0.91001 0.03934 0.92656 0.0
C413 C 0.87771 0.04566 0.88305 0.0
H414 H 0.90327 0.00156 0.83256 0.0
C415 C 0.81828 0.02898 0.80339 0.0
C416 C 0.81855 0.00423 0.79726 0.0
C417 C 0.83588 0.03569 0.81872 0.0
C418 C 0.89588 0.0139 0.84654 0.0
H419 H 0.97668 0.04989 0.91372 0.0
H420 H 0.94967 0.04379 0.88094 0.0
H421 H 0.9303 0.01018 0.86454 0.0
H422 H 0.83818 0.96728 0.80149 0.0
H423 H 0.86872 0.97898 0.82844 0.0
H424 H 0.84313 0.04876 0.86555 0.0
C425 C 0.9427 0.04337 0.89882 0.0
C426 C 0.9114 0.01902 0.86472 0.0
C427 C 0.95809 0.04704 0.91758 0.0
C428 C 0.83744 0.9865 0.8059 0.0
C429 C 0.85503 0.99322 0.82126 0.0
C430 C 0.86222 0.04057 0.86488 0.0
C431 C 0.91855 0.03932 0.90313 0.0
C432 C 0.90239 0.03476 0.88328 0.0
C433 C 0.8541 0.01781 0.82824 0.0
C434 C 0.87108 0.02446 0.84654 0.0
H435 H 0.91844 0.043 0.9632 0.0
H436 H 0.89153 0.03612 0.93044 0.0
H437 H 0.87033 0.05807 0.89698 0.0
H438 H 0.80407 0.04311 0.79688 0.0
H439 H 0.83496 0.05484 0.82347 0.0
C440 C 0.0385 0.00584 0.02226 0.0
C441 C 0.01573 0.99805 0.02609 0.0
C442 C 0.05476 0.00674 0.041 0.0
C443 C 0.07869 0.02041 0.08638 0.0
H444 H 0.08901 0.96627 0.13107 0.0
C445 C 0.13813 0.024 0.16905 0.0
C446 C 0.15532 0.00299 0.17353 0.0
C447 C 0.1195 0.0233 0.15258 0.0
C448 C 0.08636 0.98148 0.1187 0.0
H449 H -0.00779 0.98484 0.05252 0.0
H450 H 0.02052 0.9865 0.08515 0.0
H451 H 0.06034 0.96522 0.09847 0.0
H452 H 0.16586 0.96447 0.16497 0.0
H453 H 0.1334 0.9633 0.13607 0.0
H454 H 0.10514 0.0364 0.10623 0.0
C455 C 0.02588 0.99179 0.06767 0.0
C456 C 0.0698 0.98099 0.10017 0.0
C457 C 0.00963 0.99095 0.04897 0.0
C458 C 0.15288 0.98097 0.16192 0.0
C459 C 0.13424 0.98028 0.14542 0.0
C460 C 0.09521 0.02092 0.10492 0.0
C461 C 0.0486 -0.00031 0.06389 0.0
C462 C 0.06589 0.0004 0.08375 0.0
C463 C 0.11766 0.00157 0.14024 0.0
C464 C 0.09931 0.00141 0.12121 0.0
H465 H 0.04385 0.01109 0.00479 0.0
H466 H 0.0723 0.01259 0.0375 0.0
H467 H 0.07585 0.03575 0.07416 0.0
H468 H 0.1394 0.04121 0.17784 0.0
H469 H 0.10671 0.03988 0.14926 0.0
C470 C 0.02321 0.3863 0.48354 0.0
C471 C 0.03024 0.40964 0.48141 0.0
C472 C 0.028 0.36927 0.46529 0.0
C473 C 0.03916 0.36804 0.40091 0.0
H474 H 0.04347 0.29793 0.41112 0.0
C475 C 0.00884 0.30468 0.33046 0.0
C476 C 0.01981 0.28003 0.32951 0.0
C477 C 0.01529 0.32007 0.34814 0.0
C478 C 0.04277 0.31739 0.4078 0.0
H479 H 0.04944 0.43293 0.45948 0.0
H480 H 0.05882 0.40283 0.42803 0.0
H481 H 0.04768 0.3246 0.44442 0.0
H482 H 0.04698 0.25237 0.34547 0.0
H483 H 0.05896 0.27948 0.37586 0.0
H484 H 0.03487 0.36079 0.36424 0.0
C485 C 0.04876 0.39793 0.44334 0.0
C486 C 0.0448 0.33277 0.42703 0.0
C487 C 0.04355 0.41512 0.46141 0.0
C488 C 0.03802 0.27126 0.346 0.0
C489 C 0.04479 0.28677 0.36347 0.0
C490 C 0.03756 0.35263 0.38165 0.0
C491 C 0.04032 0.37509 0.44468 0.0
C492 C 0.04219 0.35837 0.42394 0.0
C493 C 0.03319 0.31127 0.36503 0.0
C494 C 0.0385 0.3272 0.38494 0.0
H495 H 0.01282 0.38162 0.49872 0.0
H496 H 0.02087 0.35207 0.4669 0.0
H497 H 0.03685 0.38765 0.39776 0.0
H498 H -0.00536 0.31189 0.31804 0.0
H499 H 0.00558 0.33865 0.349 0.0
C500 C 0.6717 0.28902 0.51922 0.0
C501 C 0.69554 0.2793 0.52633 0.0
C502 C 0.65424 0.29846 0.53602 0.0
C503 C 0.6211 0.28939 0.57669 0.0
H504 H 0.63407 0.32028 0.63593 0.0
C505 C 0.58554 0.25902 0.66416 0.0
C506 C 0.57306 0.277 0.6791 0.0
C507 C 0.59813 0.26583 0.64447 0.0
C508 C 0.63 0.31201 0.61934 0.0
H509 H 0.72063 0.27423 0.556 0.0
H510 H 0.69025 0.29039 0.58523 0.0
H511 H 0.66032 0.32429 0.60155 0.0
H512 H 0.56492 0.31617 0.68584 0.0
H513 H 0.58768 0.32801 0.65146 0.0
H514 H 0.59172 0.27596 0.59478 0.0
C515 C 0.6849 0.29081 0.5668 0.0
C516 C 0.64499 0.31425 0.59974 0.0
C517 C 0.70225 0.28122 0.55009 0.0
C518 C 0.57435 0.30192 0.67456 0.0
C519 C 0.58727 0.30872 0.65495 0.0
C520 C 0.60631 0.28702 0.59626 0.0
C521 C 0.66048 0.29852 0.5601 0.0
C522 C 0.64126 0.30208 0.57854 0.0
C523 C 0.59873 0.29071 0.63948 0.0
C524 C 0.6113 0.29743 0.61796 0.0
H525 H 0.66613 0.28798 0.50095 0.0
H526 H 0.63556 0.3045 0.53039 0.0
H527 H 0.61787 0.27962 0.56069 0.0
H528 H 0.58492 0.23969 0.66717 0.0
H529 H 0.60727 0.25161 0.63297 0.0
C530 C 0.73187 0.97513 0.85412 0.0
C531 C 0.73607 0.96629 0.83098 0.0
C532 C 0.73113 0.95887 0.87302 0.0
C533 C 0.72475 0.8946 0.8884 0.0
H534 H 0.75898 0.90877 0.94529 0.0
C535 C 0.74865 0.82418 0.96447 0.0
C536 C 0.74684 0.83317 0.98773 0.0
C537 C 0.74528 0.84034 0.94521 0.0
C538 C 0.74904 0.90469 0.92968 0.0
H539 H 0.74211 0.93342 0.80945 0.0
H540 H 0.74109 0.90499 0.84252 0.0
H541 H 0.75676 0.93701 0.91197 0.0
H542 H 0.73926 0.86616 0.00899 0.0
H543 H 0.73318 0.89425 0.97548 0.0
H544 H 0.71731 0.86205 0.90616 0.0
C545 C 0.73812 0.92453 0.84602 0.0
C546 C 0.74776 0.92091 0.91055 0.0
C547 C 0.73881 0.94083 0.82707 0.0
C548 C 0.74092 0.85861 0.99131 0.0
C549 C 0.73758 0.87474 0.97209 0.0
C550 C 0.72606 0.87832 0.90758 0.0
C551 C 0.73464 0.93336 0.86927 0.0
C552 C 0.73558 0.9161 0.88967 0.0
C553 C 0.74008 0.86585 0.94881 0.0
C554 C 0.73821 0.8832 0.92846 0.0
H555 H 0.7295 0.99464 0.85775 0.0
H556 H 0.72795 0.96632 0.89064 0.0
H557 H 0.71501 0.89047 0.87268 0.0
H558 H 0.7532 0.80468 0.96109 0.0
H559 H 0.74753 0.83289 0.92752 0.0
C560 C 0.1542 0.2857 0.01666 0.0
C561 C 0.17923 0.28455 0.02178 0.0
C562 C 0.13665 0.29193 0.03434 0.0
C563 C 0.11065 0.28121 0.07958 0.0
H564 H 0.11684 0.32602 0.13125 0.0
C565 C 0.08473 0.25995 0.17363 0.0
C566 C 0.07004 0.27827 0.1866 0.0
C567 C 0.09474 0.26551 0.15204 0.0
C568 C 0.11463 0.31371 0.11679 0.0
H569 H 0.20541 0.29102 0.04873 0.0
H570 H 0.17496 0.30157 0.07947 0.0
H571 H 0.13929 0.32977 0.09434 0.0
H572 H 0.05515 0.31704 0.18762 0.0
H573 H 0.07328 0.32685 0.1498 0.0
H574 H 0.08685 0.26451 0.10231 0.0
C575 C 0.16877 0.29778 0.0619 0.0
C576 C 0.12751 0.31577 0.09575 0.0
C577 C 0.18627 0.29142 0.04433 0.0
C578 C 0.0664 0.30253 0.17798 0.0
C579 C 0.07668 0.30816 0.15639 0.0
C580 C 0.09793 0.27908 0.10059 0.0
C581 C 0.14386 0.29733 0.05732 0.0
C582 C 0.12631 0.29896 0.07728 0.0
C583 C 0.09046 0.28954 0.14302 0.0
C584 C 0.10053 0.29471 0.11966 0.0
H585 H 0.14823 0.28072 -0.00064 0.0
H586 H 0.11752 0.29165 0.0303 0.0
H587 H 0.10948 0.26787 0.06577 0.0
H588 H 0.08797 0.2411 0.17978 0.0
H589 H 0.10575 0.25093 0.14228 0.0
C590 C 0.76191 0.44172 0.3388 0.0
C591 C 0.76209 0.4651 0.34866 0.0
C592 C 0.76185 0.42112 0.35336 0.0
C593 C 0.7772 0.3991 0.41427 0.0
H594 H 0.73937 0.34762 0.39817 0.0
C595 C 0.76595 0.3202 0.47887 0.0
C596 C 0.7675 0.29639 0.46951 0.0
C597 C 0.76493 0.3406 0.46394 0.0
C598 C 0.75024 0.36172 0.40279 0.0
H599 H 0.76174 0.4852 0.38158 0.0
H600 H 0.76124 0.44943 0.4069 0.0
H601 H 0.73777 0.38362 0.3726 0.0
H602 H 0.76908 0.27544 0.43701 0.0
H603 H 0.76743 0.31109 0.41093 0.0
H604 H 0.78962 0.37727 0.44447 0.0
C605 C 0.76163 0.44689 0.38793 0.0
C606 C 0.74933 0.38237 0.38812 0.0
C607 C 0.76174 0.46746 0.37339 0.0
C608 C 0.76788 0.29351 0.44482 0.0
C609 C 0.76679 0.31397 0.42986 0.0
C610 C 0.77807 0.37851 0.42894 0.0
C611 C 0.76192 0.4234 0.37813 0.0
C612 C 0.76277 0.40137 0.3937 0.0
C613 C 0.76539 0.33776 0.43924 0.0
C614 C 0.76457 0.35957 0.42342 0.0
H615 H 0.76224 0.43922 0.31982 0.0
H616 H 0.76234 0.4033 0.34518 0.0
H617 H 0.78818 0.41311 0.4189 0.0
H618 H 0.76554 0.32314 0.4978 0.0
H619 H 0.76353 0.35868 0.47177 0.0
C620 C 0.53114 0.00263 0.54881 0.0
C621 C 0.5466 0.99736 0.5291 0.0
C622 C 0.53932 0.9956 0.57143 0.0
C623 C 0.58755 0.95679 0.60539 0.0
H624 H 0.57777 0.01097 0.64971 0.0
C625 C 0.65074 0.96489 0.68405 0.0
C626 C 0.64153 0.97783 0.70433 0.0
C627 C 0.63548 0.96234 0.66494 0.0
C628 C 0.58018 0.99538 0.63786 0.0
H629 H 0.58225 0.97935 0.51751 0.0
H630 H 0.59673 0.96728 0.55727 0.0
H631 H 0.55805 0.01547 0.61137 0.0
H632 H 0.60867 0.99654 0.72121 0.0
H633 H 0.58182 0.99172 0.68786 0.0
H634 H 0.61024 0.93693 0.63178 0.0
C635 C 0.5782 0.97673 0.5551 0.0
C636 C 0.56893 0.99801 0.6158 0.0
C637 C 0.56998 0.98377 0.53237 0.0
C638 C 0.61636 0.9867 0.70574 0.0
C639 C 0.60102 0.98404 0.68659 0.0
C640 C 0.59872 0.95409 0.62758 0.0
C641 C 0.56314 0.98315 0.57489 0.0
C642 C 0.57294 0.97897 0.59914 0.0
C643 C 0.6106 0.97253 0.66569 0.0
C644 C 0.59566 0.9736 0.64383 0.0
H645 H 0.51285 0.01275 0.5469 0.0
H646 H 0.52719 0.00044 0.58631 0.0
H647 H 0.59068 0.94171 0.59298 0.0
H648 H 0.67003 0.95766 0.68243 0.0
H649 H 0.64357 0.9536 0.64909 0.0
C650 C 0.96301 0.9484 0.92415 0.0
C651 C 0.94989 0.94522 0.94497 0.0
C652 C 0.96782 0.92929 0.90781 0.0
C653 C 0.97125 0.86178 0.90431 0.0
H654 H 0.97064 0.87305 0.83665 0.0
C655 C 0.96514 0.8031 0.81407 0.0
C656 C 0.98061 0.78142 0.82034 0.0
C657 C 0.9641 0.82411 0.82796 0.0
C658 C 0.97078 0.86958 0.8555 0.0
H659 H 0.93033 0.9202 0.96439 0.0
H660 H 0.93798 0.88728 0.93563 0.0
H661 H 0.96147 0.90783 0.86341 0.0
H662 H 0.00823 0.76514 0.8452 0.0
H663 H 0.00697 0.80206 0.8691 0.0
H664 H 0.97933 0.82356 0.89654 0.0
C665 C 0.94534 0.90412 0.93224 0.0
C666 C 0.96579 0.88955 0.87084 0.0
C667 C 0.94077 0.92307 0.94866 0.0
C668 C -0.0041 0.7815 0.84011 0.0
C669 C -0.00493 0.80262 0.85386 0.0
C670 C 0.97602 0.84186 0.88901 0.0
C671 C 0.95939 0.90677 0.9119 0.0
C672 C 0.96565 0.88583 0.89543 0.0
C673 C 0.97872 0.824 0.84827 0.0
C674 C 0.9756 0.84546 0.86441 0.0
H675 H 0.97029 0.9653 0.92087 0.0
H676 H 0.9788 0.93191 0.89238 0.0
H677 H 0.97182 0.85827 0.92316 0.0
H678 H 0.95311 0.80362 0.79893 0.0
H679 H 0.95108 0.8401 0.82326 0.0
C680 C 0.06434 0.054 0.90691 0.0
C681 C 0.06745 0.04405 0.92981 0.0
C682 C 0.08022 0.06952 0.89837 0.0
C683 C 0.09651 0.11944 0.90229 0.0
H684 H 0.16464 0.11836 0.91923 0.0
C685 C 0.13396 0.20051 0.94356 0.0
C686 C 0.15802 0.20425 0.93849 0.0
C687 C 0.12445 0.18088 0.9334 0.0
C688 C 0.14574 0.11893 0.91387 0.0
H689 H 0.09147 0.03953 0.96026 0.0
H690 H 0.11914 0.06642 0.94539 0.0
H691 H 0.14811 0.07981 0.91621 0.0
H692 H 0.19043 0.19135 0.91753 0.0
H693 H 0.17382 0.15701 0.90003 0.0
H694 H 0.09377 0.15863 0.90136 0.0
C695 C 0.10442 0.06254 0.93405 0.0
C696 C 0.13628 0.09686 0.91226 0.0
C697 C 0.08846 0.04722 0.94267 0.0
C698 C 0.17186 0.18886 0.92198 0.0
C699 C 0.16242 0.16916 0.91196 0.0
C700 C 0.10593 0.14149 0.90404 0.0
C701 C 0.09956 0.07504 0.91248 0.0
C702 C 0.11131 0.09699 0.9075 0.0
C703 C 0.13887 0.1646 0.91805 0.0
C704 C 0.13035 0.14149 0.91087 0.0
H705 H 0.04842 0.0517 0.89648 0.0
H706 H 0.07629 0.07866 0.88152 0.0
H707 H 0.07713 0.1202 0.89878 0.0
H708 H 0.12281 0.21208 0.95612 0.0
H709 H 0.10631 0.17766 0.93862 0.0
C710 C 0.70635 0.58057 0.30788 0.0
C711 C 0.70286 0.55599 0.31081 0.0
C712 C 0.68749 0.59961 0.31311 0.0
C713 C 0.62061 0.60958 0.31404 0.0
H714 H 0.6293 0.67601 0.33058 0.0
C715 C 0.54129 0.68864 0.30623 0.0
C716 C 0.54678 0.70887 0.29314 0.0
C717 C 0.56002 0.67107 0.31482 0.0
C718 C 0.62663 0.65752 0.32601 0.0
H719 H 0.67784 0.53209 0.32371 0.0
H720 H 0.6451 0.5654 0.33343 0.0
H721 H 0.66323 0.64241 0.33588 0.0
H722 H 0.57621 0.72719 0.27979 0.0
H723 H 0.609 0.69616 0.29452 0.0
H724 H 0.58436 0.62464 0.30355 0.0
C725 C 0.66213 0.56994 0.32638 0.0
C726 C 0.64601 0.6383 0.32903 0.0
C727 C 0.68091 0.55086 0.3209 0.0
C728 C 0.57141 0.71173 0.2897 0.0
C729 C 0.59018 0.69409 0.29831 0.0
C730 C 0.60126 0.6287 0.31119 0.0
C731 C 0.66485 0.59447 0.32162 0.0
C732 C 0.6434 0.61421 0.32246 0.0
C733 C 0.58462 0.67332 0.3105 0.0
C734 C 0.60426 0.65293 0.31658 0.0
H735 H 0.72311 0.58513 0.30024 0.0
H736 H 0.6902 0.61824 0.30902 0.0
H737 H 0.61803 0.5914 0.30833 0.0
H738 H 0.5225 0.68606 0.30948 0.0
H739 H 0.55522 0.65541 0.32443 0.0
C740 C 0.27931 0.87288 0.56545 0.0
C741 C 0.29099 0.8491 0.56002 0.0
C742 C 0.29306 0.89121 0.5716 0.0
C743 C 0.35677 0.9027 0.58526 0.0
H744 H 0.3355 0.96373 0.55182 0.0
C745 C 0.4213 0.96479 0.54646 0.0
C746 C 0.41458 0.99039 0.54742 0.0
C747 C 0.40578 0.94925 0.55551 0.0
C748 C 0.34146 0.94704 0.56171 0.0
H749 H 0.32608 0.82552 0.558 0.0
H750 H 0.35011 0.85758 0.56777 0.0
H751 H 0.30847 0.93288 0.55411 0.0
H752 H 0.38686 0.01987 0.55948 0.0
H753 H 0.35931 0.99253 0.57485 0.0
H754 H 0.39056 0.91647 0.59127 0.0
C755 C 0.33034 0.86209 0.5679 0.0
C756 C 0.32593 0.92929 0.56311 0.0
C757 C 0.31656 0.84367 0.5621 0.0
C758 C 0.39248 0.0002 0.5585 0.0
C759 C 0.37672 0.9846 0.56724 0.0
C760 C 0.37243 0.92036 0.58359 0.0
C761 C 0.3188 0.88627 0.57207 0.0
C762 C 0.33366 0.90658 0.57427 0.0
C763 C 0.38307 0.95899 0.56543 0.0
C764 C 0.36516 0.94238 0.57121 0.0
H765 H 0.25957 0.87751 0.56431 0.0
H766 H 0.28351 0.90946 0.57525 0.0
H767 H 0.36312 0.88568 0.59446 0.0
H768 H 0.43832 0.95672 0.53817 0.0
H769 H 0.41101 0.92959 0.55364 0.0
C770 C 0.05701 0.71916 0.77937 0.0
C771 C 0.03685 0.70654 0.77675 0.0
C772 C 0.07944 0.7069 0.78736 0.0
C773 C 0.10952 0.64956 0.81574 0.0
H774 H 0.16381 0.65834 0.77455 0.0
C775 C 0.18955 0.57413 0.79659 0.0
C776 C 0.21253 0.5803 0.79042 0.0
C777 C 0.17013 0.59241 0.8022 0.0
C778 C 0.14911 0.65606 0.78669 0.0
H779 H 0.0241 0.67144 0.78139 0.0
H780 H 0.06343 0.6499 0.79496 0.0
H781 H 0.12516 0.68548 0.77061 0.0
H782 H 0.23379 0.61025 0.78724 0.0
H783 H 0.1998 0.64226 0.79727 0.0
H784 H 0.13331 0.61942 0.83114 0.0
C785 C 0.06179 0.66936 0.79111 0.0
C786 C 0.12689 0.67161 0.78438 0.0
C787 C 0.03933 0.68162 0.7831 0.0
C788 C 0.2162 0.60496 0.79163 0.0
C789 C 0.19674 0.62328 0.79732 0.0
C790 C 0.13182 0.63403 0.81812 0.0
C791 C 0.08217 0.68178 0.79291 0.0
C792 C 0.10664 0.66799 0.79831 0.0
C793 C 0.1733 0.61725 0.80186 0.0
C794 C 0.15157 0.63658 0.80303 0.0
H795 H 0.05562 0.73846 0.77486 0.0
H796 H 0.09478 0.71698 0.7888 0.0
H797 H 0.0943 0.64665 0.82698 0.0
H798 H 0.18617 0.55527 0.796 0.0
H799 H 0.15228 0.58711 0.80535 0.0
C800 C 0.80433 0.33209 0.5683 0.0
C801 C 0.81293 0.30679 0.56683 0.0
C802 C 0.82087 0.34891 0.56971 0.0
C803 C 0.86103 0.38135 0.57548 0.0
H804 H 0.90996 0.36425 0.52657 0.0
C805 C 0.9369 0.43966 0.54852 0.0
C806 C 0.9401 0.44234 0.52402 0.0
C807 C 0.92097 0.42424 0.55721 0.0
C808 C 0.89641 0.36926 0.54028 0.0
H809 H 0.84527 0.27911 0.56875 0.0
H810 H 0.87405 0.30846 0.57154 0.0
H811 H 0.88397 0.3345 0.53861 0.0
H812 H 0.92834 0.43183 0.48945 0.0
H813 H 0.90072 0.40486 0.50464 0.0
H814 H 0.87333 0.41653 0.57649 0.0
C815 C 0.85461 0.31532 0.57095 0.0
C816 C 0.88175 0.35211 0.54744 0.0
C817 C 0.83812 0.29852 0.56943 0.0
C818 C 0.92638 0.43008 0.50841 0.0
C819 C 0.91067 0.41454 0.51708 0.0
C820 C 0.87595 0.39852 0.56842 0.0
C821 C 0.84622 0.34067 0.5698 0.0
C822 C 0.86365 0.35806 0.56485 0.0
C823 C 0.90821 0.41109 0.54153 0.0
C824 C 0.89339 0.39274 0.55039 0.0
H825 H 0.785 0.33903 0.5665 0.0
H826 H 0.81385 0.36834 0.56879 0.0
H827 H 0.84723 0.38638 0.58895 0.0
H828 H 0.94716 0.44897 0.56099 0.0
H829 H 0.91938 0.42185 0.57613 0.0
C830 C 0.2765 0.9162 0.19851 0.0
C831 C 0.285 0.93898 0.19705 0.0
C832 C 0.2928 0.89438 0.19611 0.0
C833 C 0.35679 0.86841 0.17991 0.0
H834 H 0.35213 0.82696 0.23477 0.0
C835 C 0.44025 0.81302 0.22435 0.0
C836 C 0.43801 0.79069 0.2356 0.0
C837 C 0.41999 0.82686 0.21364 0.0
C838 C 0.35348 0.83788 0.219 0.0
H839 H 0.3168 0.9568 0.19002 0.0
H840 H 0.34518 0.91882 0.18617 0.0
H841 H 0.3185 0.85914 0.22542 0.0
H842 H 0.41314 0.76467 0.24333 0.0
H843 H 0.37776 0.78886 0.22447 0.0
H844 H 0.39235 0.84775 0.17421 0.0
C845 C 0.32597 0.91774 0.189 0.0
C846 C 0.33414 0.85636 0.21362 0.0
C847 C 0.30971 0.93954 0.19143 0.0
C848 C 0.41536 0.78198 0.23506 0.0
C849 C 0.3951 0.79581 0.22427 0.0
C850 C 0.37614 0.84986 0.18528 0.0
C851 C 0.31784 0.89495 0.19214 0.0
C852 C 0.33597 0.87238 0.19454 0.0
C853 C 0.39709 0.81863 0.21385 0.0
C854 C 0.37504 0.83501 0.2054 0.0
H855 H 0.25751 0.91518 0.20257 0.0
H856 H 0.28599 0.87705 0.19831 0.0
H857 H 0.35852 0.88027 0.16489 0.0
H858 H 0.45748 0.82016 0.22434 0.0
H859 H 0.42208 0.84454 0.20608 0.0
C860 C 0.29792 0.46475 0.71593 0.0
C861 C 0.30591 0.4857 0.72543 0.0
C862 C 0.31482 0.44516 0.7079 0.0
C863 C 0.38058 0.4245 0.69445 0.0
H864 H 0.36688 0.36344 0.72206 0.0
C865 C 0.45504 0.34346 0.71769 0.0
C866 C 0.44942 0.31945 0.71637 0.0
C867 C 0.4373 0.36354 0.71243 0.0
C868 C 0.37082 0.38014 0.71371 0.0
H869 H 0.33767 0.50338 0.73245 0.0
H870 H 0.36734 0.4688 0.719 0.0
H871 H 0.336 0.3996 0.72368 0.0
H872 H 0.4213 0.29756 0.70708 0.0
H873 H 0.39039 0.33266 0.69764 0.0
H874 H 0.41589 0.405 0.68528 0.0
C875 C 0.348 0.46764 0.71745 0.0
C876 C 0.35308 0.40094 0.71465 0.0
C877 C 0.33103 0.4874 0.72529 0.0
C878 C 0.42609 0.31587 0.70854 0.0
C879 C 0.40838 0.33596 0.70318 0.0
C880 C 0.39839 0.40361 0.69348 0.0
C881 C 0.34007 0.446 0.70944 0.0
C882 C 0.35792 0.42347 0.70547 0.0
C883 C 0.4136 0.36003 0.70565 0.0
C884 C 0.39386 0.38135 0.70358 0.0
H885 H 0.27861 0.46314 0.71541 0.0
H886 H 0.30814 0.42895 0.70133 0.0
H887 H 0.38471 0.44156 0.68699 0.0
H888 H 0.47289 0.34682 0.72357 0.0
H889 H 0.44184 0.38184 0.71478 0.0
C890 C 0.16448 0.82696 0.56784 0.0
C891 C 0.16357 0.82127 0.54371 0.0
C892 C 0.14359 0.82806 0.58191 0.0
C893 C 0.09575 0.83272 0.60869 0.0
H894 H 0.06711 0.77341 0.59898 0.0
C895 C 0.0307 0.79605 0.67652 0.0
C896 C 0.03725 0.77096 0.68183 0.0
C897 C 0.04154 0.80656 0.65744 0.0
C898 C 0.0748 0.79014 0.60183 0.0
H899 H 0.13951 0.81479 0.51488 0.0
H900 H 0.10293 0.8167 0.53956 0.0
H901 H 0.09365 0.78675 0.56878 0.0
H902 H 0.06032 0.73726 0.6714 0.0
H903 H 0.07926 0.75559 0.63833 0.0
H904 H 0.07803 0.83508 0.64251 0.0
C905 C 0.11994 0.81989 0.54762 0.0
C906 C 0.08974 0.798 0.58439 0.0
C907 C 0.14088 0.81884 0.5335 0.0
C908 C 0.05487 0.75663 0.66779 0.0
C909 C 0.06554 0.76708 0.64868 0.0
C910 C 0.08074 0.82484 0.62617 0.0
C911 C 0.12134 0.82352 0.57214 0.0
C912 C 0.10116 0.81883 0.58803 0.0
C913 C 0.05891 0.79209 0.64324 0.0
C914 C 0.07096 0.80293 0.62325 0.0
H915 H 0.18163 0.82924 0.57619 0.0
H916 H 0.14538 0.83071 0.60074 0.0
H917 H 0.10407 0.84901 0.61185 0.0
H918 H 0.01713 0.80755 0.68702 0.0
H919 H 0.03613 0.82589 0.65361 0.0
C920 C 0.24309 0.95084 0.29642 0.0
C921 C 0.2438 0.9761 0.29898 0.0
C922 C 0.23725 0.9368 0.3157 0.0
C923 C 0.20844 0.94156 0.375 0.0
H924 H 0.25111 0.88031 0.38738 0.0
C925 C 0.2148 0.89447 0.46638 0.0
C926 C 0.21908 0.8687 0.46751 0.0
C927 C 0.21465 0.9066 0.44464 0.0
C928 C 0.2387 0.89713 0.384 0.0
H929 H 0.23833 0.00654 0.32362 0.0
H930 H 0.22822 0.98211 0.35714 0.0
H931 H 0.25651 0.90318 0.35131 0.0
H932 H 0.2255 0.83541 0.44657 0.0
H933 H 0.22483 0.85658 0.4086 0.0
H934 H 0.19082 0.93569 0.40783 0.0
C935 C 0.23201 0.97314 0.34024 0.0
C936 C 0.24184 0.91026 0.36331 0.0
C937 C 0.23799 0.98712 0.32105 0.0
C938 C 0.22232 0.8553 0.44634 0.0
C939 C 0.22208 0.86743 0.42457 0.0
C940 C 0.20523 0.92839 0.39565 0.0
C941 C 0.23181 0.94779 0.33786 0.0
C942 C 0.227 0.93282 0.35877 0.0
C943 C 0.21867 0.89324 0.42348 0.0
C944 C 0.22059 0.90621 0.40059 0.0
H945 H 0.24744 0.94181 0.27963 0.0
H946 H 0.23703 0.91734 0.31328 0.0
H947 H 0.19647 0.95871 0.37181 0.0
H948 H 0.21228 0.90536 0.48235 0.0
H949 H 0.21226 0.92648 0.44451 0.0
C950 C 0.97493 0.68274 0.68621 0.0
C951 C 0.9701 0.7074 0.67895 0.0
C952 C 0.97431 0.66387 0.66989 0.0
C953 C 0.95562 0.65088 0.60843 0.0
H954 H 0.01059 0.59823 0.61254 0.0
C955 C -0.0057 0.59062 0.52957 0.0
C956 C 0.00251 0.56563 0.53398 0.0
C957 C 0.98583 0.60636 0.54811 0.0
C958 C -0.00511 0.61257 0.61134 0.0
H959 H 0.95988 0.73164 0.64914 0.0
H960 H 0.95947 0.69886 0.62065 0.0
H961 H 0.00377 0.62846 0.64393 0.0
H962 H 0.00702 0.53728 0.56109 0.0
H963 H -0.00769 0.56477 0.59332 0.0
H964 H 0.94751 0.63536 0.57519 0.0
C965 C 0.96328 0.69398 0.63897 0.0
C966 C -0.00908 0.62988 0.62939 0.0
C967 C 0.96371 0.71282 0.6553 0.0
C968 C 0.00105 0.55649 0.5571 0.0
C969 C -0.00731 0.57222 0.5756 0.0
C970 C 0.95973 0.63362 0.59025 0.0
C971 C 0.96904 0.66928 0.64596 0.0
C972 C 0.97147 0.64947 0.62799 0.0
C973 C 0.98549 0.59739 0.57138 0.0
C974 C 0.97961 0.6145 0.59141 0.0
H975 H 0.97967 0.678 0.70439 0.0
H976 H 0.9784 0.64503 0.67595 0.0
H977 H 0.94023 0.66552 0.60699 0.0
H978 H -0.00488 0.59818 0.51194 0.0
H979 H 0.98055 0.62574 0.54439 0.0
C980 C 0.30609 0.77008 0.49247 0.0
C981 C 0.2835 0.76753 0.48213 0.0
C982 C 0.32789 0.76289 0.48015 0.0
C983 C 0.35654 0.7279 0.42954 0.0
H984 H 0.39038 0.78404 0.42062 0.0
C985 C 0.41848 0.73829 0.34918 0.0
C986 C 0.43677 0.75325 0.35127 0.0
C987 C 0.40326 0.73524 0.3684 0.0
C988 C 0.38175 0.76784 0.4233 0.0
H989 H 0.26607 0.75373 0.45169 0.0
H990 H 0.30426 0.74107 0.43023 0.0
H991 H 0.35766 0.78611 0.44939 0.0
H992 H 0.45517 0.77496 0.37527 0.0
H993 H 0.42971 0.76853 0.40918 0.0
H994 H 0.38057 0.70963 0.40328 0.0
C995 C 0.30505 0.74869 0.44779 0.0
C996 C 0.36287 0.76913 0.43979 0.0
C997 C 0.28321 0.75617 0.45996 0.0
C998 C 0.4408 0.76372 0.37317 0.0
C999 C 0.4261 0.76013 0.39253 0.0
C1000 C 0.3758 0.72641 0.41326 0.0
C1001 C 0.32747 0.75271 0.45748 0.0
C1002 C 0.34974 0.74942 0.44267 0.0
C1003 C 0.40652 0.74665 0.39018 0.0
C1004 C 0.38825 0.74663 0.40952 0.0
H1005 H 0.30689 0.77864 0.50959 0.0
H1006 H 0.34503 0.76606 0.48798 0.0
H1007 H 0.34666 0.71244 0.43157 0.0
H1008 H 0.41511 0.73004 0.33238 0.0
H1009 H 0.38825 0.72495 0.36578 0.0
C1010 C 0.25607 0.04759 0.15185 0.0
C1011 C 0.24345 0.02839 0.14512 0.0
C1012 C 0.26063 0.06538 0.13539 0.0
C1013 C 0.25892 0.07935 0.07058 0.0
H1014 H 0.25095 0.14679 0.09214 0.0
C1015 C 0.26148 0.15872 0.00458 0.0
C1016 C 0.2442 0.17983 0.00819 0.0
C1017 C 0.26589 0.14073 0.02218 0.0
C1018 C 0.25308 0.12808 0.08575 0.0
H1019 H 0.22598 0.01258 0.11584 0.0
H1020 H 0.23306 0.04389 0.08748 0.0
H1021 H 0.24974 0.11391 0.1206 0.0
H1022 H 0.21837 0.19894 0.03326 0.0
H1023 H 0.22523 0.16728 0.06348 0.0
H1024 H 0.26049 0.09358 0.03559 0.0
C1025 C 0.24016 0.04498 0.1052 0.0
C1026 C 0.25279 0.10912 0.10218 0.0
C1027 C 0.23592 0.02705 0.12155 0.0
C1028 C 0.23189 0.18291 0.02998 0.0
C1029 C 0.236 0.16477 0.04742 0.0
C1030 C 0.25882 0.09832 0.05413 0.0
C1031 C 0.25237 0.06453 0.11192 0.0
C1032 C 0.25524 0.08451 0.09477 0.0
C1033 C 0.25281 0.14326 0.04365 0.0
C1034 C 0.25545 0.12299 0.06143 0.0
H1035 H 0.26224 0.049 0.16988 0.0
H1036 H 0.27047 0.07989 0.14113 0.0
H1037 H 0.2614 0.06062 0.06422 0.0
H1038 H 0.27145 0.15597 0.98805 0.0
H1039 H 0.27937 0.12471 0.01881 0.0
C1040 C 0.82661 0.71853 0.98622 0.0
C1041 C 0.80142 0.72317 0.98123 0.0
C1042 C 0.84328 0.7084 0.96892 0.0
C1043 C 0.84714 0.67841 0.90955 0.0
H1044 H 0.90142 0.71461 0.90005 0.0
C1045 C 0.8883 0.69592 0.81887 0.0
C1046 C 0.91343 0.69739 0.81728 0.0
C1047 C 0.87775 0.69148 0.84065 0.0
C1048 C 0.88669 0.7039 0.90268 0.0
H1049 H 0.77385 0.71957 0.95467 0.0
H1050 H 0.80268 0.70254 0.92465 0.0
H1051 H 0.87735 0.7206 0.93614 0.0
H1052 H 0.94756 0.69344 0.83696 0.0
H1053 H 0.92908 0.6858 0.87487 0.0
H1054 H 0.85574 0.66284 0.87533 0.0
C1055 C 0.80972 0.70635 0.94188 0.0
C1056 C 0.8729 0.7073 0.92344 0.0
C1057 C 0.79316 0.71644 0.95906 0.0
C1058 C 0.92807 0.6927 0.8376 0.0
C1059 C 0.91751 0.68837 0.85935 0.0
C1060 C 0.86084 0.67515 0.8887 0.0
C1061 C 0.83502 0.70264 0.94639 0.0
C1062 C 0.85245 0.69524 0.92675 0.0
C1063 C 0.89214 0.68849 0.86123 0.0
C1064 C 0.88028 0.68845 0.88476 0.0
H1065 H 0.8335 0.7234 0.00319 0.0
H1066 H 0.86266 0.70555 0.973 0.0
H1067 H 0.83179 0.66846 0.91179 0.0
H1068 H 0.87655 0.69934 0.80355 0.0
H1069 H 0.8581 0.69185 0.84158 0.0
C1070 C 0.24322 0.59321 0.69344 0.0
C1071 C 0.24848 0.56871 0.68579 0.0
C1072 C 0.24329 0.61258 0.67741 0.0
C1073 C 0.26595 0.62803 0.61862 0.0
H1074 H 0.21082 0.68072 0.6197 0.0
C1075 C 0.24332 0.69435 0.54032 0.0
C1076 C 0.23388 0.71902 0.54488 0.0
C1077 C 0.24705 0.67726 0.55871 0.0
C1078 C 0.22657 0.6664 0.61939 0.0
H1079 H 0.25845 0.54537 0.65542 0.0
H1080 H 0.25859 0.57916 0.62751 0.0
H1081 H 0.21393 0.64852 0.64969 0.0
H1082 H 0.22151 0.74525 0.57247 0.0
H1083 H 0.22837 0.71541 0.60472 0.0
H1084 H 0.27854 0.64577 0.58825 0.0
C1085 C 0.25453 0.58339 0.64591 0.0
C1086 C 0.22832 0.64792 0.63656 0.0
C1087 C 0.25431 0.56402 0.66189 0.0
C1088 C 0.22872 0.72635 0.56836 0.0
C1089 C 0.23252 0.70922 0.58682 0.0
C1090 C 0.26427 0.64657 0.60152 0.0
C1091 C 0.24881 0.60788 0.65345 0.0
C1092 C 0.24785 0.62835 0.63617 0.0
C1093 C 0.24154 0.68441 0.58217 0.0
C1094 C 0.24436 0.66579 0.60147 0.0
H1095 H 0.23868 0.59746 0.71175 0.0
H1096 H 0.23905 0.63126 0.68379 0.0
H1097 H 0.28142 0.6134 0.61809 0.0
H1098 H 0.24742 0.68804 0.52243 0.0
H1099 H 0.25364 0.65826 0.55441 0.0
C1100 C 0.34102 0.98926 0.29106 0.0
C1101 C 0.3284 0.00646 0.27535 0.0
C1102 C 0.35233 0.99713 0.31105 0.0
C1103 C 0.37504 0.04894 0.33971 0.0
H1104 H 0.35623 0.01772 0.3971 0.0
C1105 C 0.38525 0.0513 0.44837 0.0
C1106 C 0.41088 0.04869 0.44997 0.0
C1107 C 0.37394 0.0517 0.42628 0.0
C1108 C 0.36135 0.0269 0.3813 0.0
H1109 H 0.3195 0.04533 0.2672 0.0
H1110 H 0.33953 0.05899 0.30211 0.0
H1111 H 0.34116 0.00584 0.35914 0.0
H1112 H 0.44461 0.04694 0.42979 0.0
H1113 H 0.42488 0.04758 0.39136 0.0
H1114 H 0.3956 0.06974 0.36204 0.0
C1115 C 0.34045 0.03947 0.29901 0.0
C1116 C 0.35304 0.01981 0.35954 0.0
C1117 C 0.32896 0.03162 0.27906 0.0
C1118 C 0.42481 0.04868 0.42912 0.0
C1119 C 0.41351 0.04923 0.40708 0.0
C1120 C 0.38359 0.0559 0.36155 0.0
C1121 C 0.35141 0.0223 0.31561 0.0
C1122 C 0.36006 0.03049 0.33853 0.0
C1123 C 0.38808 0.0497 0.40547 0.0
C1124 C 0.37698 0.04476 0.38253 0.0
H1125 H 0.34107 0.96976 0.28865 0.0
H1126 H 0.36109 0.98351 0.32341 0.0
H1127 H 0.38062 0.0575 0.32374 0.0
H1128 H 0.37402 0.05152 0.46412 0.0
H1129 H 0.35424 0.05243 0.42548 0.0
C1130 C 0.8443 0.82392 0.03685 0.0
C1131 C 0.82297 0.81775 0.04735 0.0
C1132 C 0.85128 0.84688 0.04092 0.0
C1133 C 0.82257 0.90895 0.04977 0.0
H1134 H 0.88935 0.92209 0.0553 0.0
C1135 C 0.88783 0.98934 0.03563 0.0
C1136 C 0.8825 0.99427 0.01162 0.0
C1137 C 0.87613 0.97242 0.04798 0.0
C1138 C 0.87049 0.91888 0.05429 0.0
H1139 H 0.79315 0.83014 0.07167 0.0
H1140 H 0.80519 0.87039 0.07833 0.0
H1141 H 0.88024 0.88082 0.06313 0.0
H1142 H 0.85826 0.98817 0.98285 0.0
H1143 H 0.83777 0.9588 0.00446 0.0
H1144 H 0.81312 0.94664 0.03934 0.0
C1145 C 0.81647 0.85742 0.06703 0.0
C1146 C 0.86537 0.89522 0.05858 0.0
C1147 C 0.80969 0.83433 0.06326 0.0
C1148 C 0.86301 0.98451 0.00122 0.0
C1149 C 0.85117 0.96774 0.01365 0.0
C1150 C 0.82775 0.93258 0.04518 0.0
C1151 C 0.83689 0.86415 0.05534 0.0
C1152 C 0.84152 0.88988 0.0556 0.0
C1153 C 0.8587 0.96045 0.03665 0.0
C1154 C 0.85191 0.93754 0.04666 0.0
H1155 H 0.85491 0.81151 0.02459 0.0
H1156 H 0.86704 0.8517 0.03156 0.0
H1157 H 0.80403 0.90524 0.04719 0.0
H1158 H 0.9025 0.99685 0.04432 0.0
H1159 H 0.88197 0.96738 0.06583 0.0
C1160 C 0.695 0.16519 0.48822 0.0
C1161 C 0.70528 0.18299 0.47542 0.0
C1162 C 0.67861 0.15182 0.4775 0.0
C1163 C 0.63322 0.15579 0.4308 0.0
H1164 H 0.63236 0.08824 0.44979 0.0
C1165 C 0.56729 0.0743 0.43465 0.0
C1166 C 0.54572 0.0891 0.44214 0.0
C1167 C 0.58828 0.0847 0.42963 0.0
C1168 C 0.63243 0.10687 0.44369 0.0
H1169 H 0.70684 0.20049 0.44115 0.0
H1170 H 0.67779 0.17702 0.42231 0.0
H1171 H 0.66808 0.10745 0.45808 0.0
H1172 H 0.52857 0.12653 0.44859 0.0
H1173 H 0.56537 0.1446 0.44089 0.0
H1174 H 0.5973 0.15532 0.41678 0.0
C1175 C 0.68254 0.17351 0.44069 0.0
C1176 C 0.65287 0.11798 0.44875 0.0
C1177 C 0.69918 0.18685 0.45144 0.0
C1178 C 0.54499 0.11466 0.44291 0.0
C1179 C 0.5661 0.12504 0.43829 0.0
C1180 C 0.61275 0.14459 0.42555 0.0
C1181 C 0.67203 0.15593 0.45369 0.0
C1182 C 0.653 0.14286 0.44338 0.0
C1183 C 0.58826 0.11007 0.43247 0.0
C1184 C 0.61169 0.12032 0.43289 0.0
H1185 H 0.69936 0.16172 0.5067 0.0
H1186 H 0.67049 0.13875 0.48814 0.0
H1187 H 0.63283 0.17499 0.42639 0.0
H1188 H 0.56821 0.05455 0.43349 0.0
H1189 H 0.60483 0.07269 0.42457 0.0
C1190 C 0.81101 0.46627 0.23153 0.0
C1191 C 0.79028 0.45945 0.24269 0.0
C1192 C 0.82963 0.44837 0.22328 0.0
C1193 C 0.84708 0.38148 0.21244 0.0
H1194 H 0.9095 0.3931 0.23779 0.0
C1195 C 0.92461 0.30428 0.23833 0.0
C1196 C 0.94895 0.30863 0.2363 0.0
C1197 C 0.9053 0.3227 0.2325 0.0
C1198 C 0.89241 0.38968 0.23005 0.0
H1199 H 0.77188 0.42868 0.25237 0.0
H1200 H 0.80463 0.39744 0.23846 0.0
H1201 H 0.87498 0.42585 0.23829 0.0
H1202 H 0.9723 0.33488 0.22502 0.0
H1203 H 0.93865 0.36682 0.21445 0.0
H1204 H 0.86451 0.34486 0.20507 0.0
C1205 C 0.80642 0.41658 0.23583 0.0
C1206 C 0.87257 0.40852 0.23033 0.0
C1207 C 0.78774 0.43449 0.24399 0.0
C1208 C 0.95369 0.3312 0.22719 0.0
C1209 C 0.93442 0.34948 0.22114 0.0
C1210 C 0.86702 0.36257 0.21212 0.0
C1211 C 0.82791 0.42333 0.22614 0.0
C1212 C 0.84956 0.40446 0.22207 0.0
C1213 C 0.91003 0.34568 0.22433 0.0
C1214 C 0.88973 0.36633 0.22147 0.0
H1215 H 0.81331 0.4854 0.22995 0.0
H1216 H 0.84583 0.45409 0.21552 0.0
H1217 H 0.82959 0.37795 0.20574 0.0
H1218 H 0.92046 0.28701 0.24525 0.0
H1219 H 0.88671 0.31929 0.23543 0.0
C1220 C 0.09108 0.5598 0.46568 0.0
C1221 C 0.09654 0.54879 0.48788 0.0
C1222 C 0.10147 0.58034 0.4588 0.0
C1223 C 0.10861 0.63404 0.46126 0.0
H1224 H 0.17547 0.64311 0.47487 0.0
C1225 C 0.13791 0.72648 0.48528 0.0
C1226 C 0.16089 0.73147 0.47766 0.0
C1227 C 0.13026 0.70413 0.47981 0.0
C1228 C 0.15685 0.64078 0.47055 0.0
H1229 H 0.11844 0.5496 0.51955 0.0
H1230 H 0.13666 0.58539 0.50748 0.0
H1231 H 0.16378 0.60216 0.47783 0.0
H1232 H 0.19321 0.71764 0.45701 0.0
H1233 H 0.17985 0.6785 0.44764 0.0
H1234 H 0.10145 0.67283 0.45492 0.0
C1235 C 0.12433 0.57815 0.49542 0.0
C1236 C 0.15013 0.6174 0.47246 0.0
C1237 C 0.11379 0.55774 0.50239 0.0
C1238 C 0.17541 0.71432 0.46321 0.0
C1239 C 0.16785 0.69186 0.45793 0.0
C1240 C 0.11528 0.65746 0.45955 0.0
C1241 C 0.1177 0.59008 0.47387 0.0
C1242 C 0.12581 0.61392 0.4684 0.0
C1243 C 0.14553 0.68628 0.46676 0.0
C1244 C 0.13931 0.66114 0.46475 0.0
H1245 H 0.07792 0.55329 0.45403 0.0
H1246 H 0.09625 0.58904 0.442 0.0
H1247 H 0.08968 0.63194 0.4582 0.0
H1248 H 0.12628 0.73938 0.49636 0.0
H1249 H 0.11303 0.70027 0.487 0.0
C1250 C 0.66075 0.04247 0.78797 0.0
C1251 C 0.68416 0.04617 0.78035 0.0
C1252 C 0.64296 0.06247 0.79326 0.0
C1253 C 0.6319 0.13011 0.80203 0.0
H1254 H 0.57204 0.12543 0.76778 0.0
C1255 C 0.56676 0.21395 0.76711 0.0
C1256 C 0.54164 0.21248 0.76569 0.0
C1257 C 0.5832 0.19387 0.77512 0.0
C1258 C 0.58835 0.12697 0.77793 0.0
H1259 H 0.70789 0.07359 0.77401 0.0
H1260 H 0.67667 0.10851 0.78273 0.0
H1261 H 0.60283 0.08944 0.77174 0.0
H1262 H 0.51375 0.1896 0.77307 0.0
H1263 H 0.54236 0.15476 0.78743 0.0
H1264 H 0.61756 0.16804 0.80742 0.0
C1265 C 0.6721 0.09017 0.78486 0.0
C1266 C 0.60604 0.10627 0.78022 0.0
C1267 C 0.68995 0.07015 0.77967 0.0
C1268 C 0.53309 0.19108 0.77356 0.0
C1269 C 0.54947 0.17113 0.78178 0.0
C1270 C 0.6141 0.15089 0.79978 0.0
C1271 C 0.6482 0.08655 0.79093 0.0
C1272 C 0.62823 0.10772 0.79182 0.0
C1273 C 0.57476 0.17205 0.78204 0.0
C1274 C 0.59237 0.14963 0.78724 0.0
H1275 H 0.65586 0.02417 0.78904 0.0
H1276 H 0.6248 0.05913 0.79831 0.0
H1277 H 0.64874 0.13168 0.81128 0.0
H1278 H 0.57384 0.23026 0.76119 0.0
H1279 H 0.6026 0.19508 0.77485 0.0
C1280 C 0.73508 0.56401 0.20974 0.0
C1281 C 0.73534 0.53924 0.20364 0.0
C1282 C 0.73744 0.58161 0.19227 0.0
C1283 C 0.72978 0.59198 0.12783 0.0
H1284 H 0.76857 0.64418 0.13787 0.0
C1285 C 0.75092 0.65496 0.05174 0.0
C1286 C 0.74829 0.68027 0.05638 0.0
C1287 C 0.75062 0.63807 0.07018 0.0
C1288 C 0.7575 0.62983 0.13488 0.0
H1289 H 0.73886 0.51348 0.17447 0.0
H1290 H 0.7433 0.54394 0.14422 0.0
H1291 H 0.76536 0.61422 0.16928 0.0
H1292 H 0.74404 0.70763 0.08418 0.0
H1293 H 0.74346 0.67807 0.1164 0.0
H1294 H 0.72193 0.60747 0.0935 0.0
C1295 C 0.74079 0.54994 0.16239 0.0
C1296 C 0.75562 0.61268 0.15289 0.0
C1297 C 0.73838 0.53241 0.17979 0.0
C1298 C 0.74613 0.68825 0.07999 0.0
C1299 C 0.74588 0.67131 0.09847 0.0
C1300 C 0.7317 0.60903 0.10986 0.0
C1301 C 0.74013 0.5748 0.16834 0.0
C1302 C 0.74185 0.59345 0.14952 0.0
C1303 C 0.7477 0.64605 0.09373 0.0
C1304 C 0.74569 0.62809 0.11309 0.0
H1305 H 0.73274 0.56988 0.22796 0.0
H1306 H 0.73664 0.60062 0.19746 0.0
H1307 H 0.71857 0.57776 0.12478 0.0
H1308 H 0.75274 0.64815 0.03379 0.0
H1309 H 0.75251 0.61871 0.06595 0.0
C1310 C -0.00819 0.51739 0.43047 0.0
C1311 C 0.98144 0.51413 0.45275 0.0
C1312 C 0.97683 0.52356 0.41084 0.0
C1313 C 0.94183 0.51675 0.37114 0.0
H1314 H 0.87686 0.5542 0.37738 0.0
C1315 C 0.86082 0.49678 0.31609 0.0
C1316 C 0.84108 0.51543 0.31165 0.0
C1317 C 0.88089 0.5017 0.32914 0.0
C1318 C 0.89511 0.54413 0.37501 0.0
H1319 H 0.94731 0.51547 0.47213 0.0
H1320 H 0.92125 0.52546 0.43793 0.0
H1321 H 0.90644 0.55523 0.40888 0.0
H1322 H 0.82767 0.55427 0.31579 0.0
H1323 H 0.86305 0.563 0.33815 0.0
H1324 H 0.93048 0.50566 0.33726 0.0
C1325 C 0.9409 0.52386 0.43558 0.0
C1326 C 0.91197 0.54443 0.39328 0.0
C1327 C 0.95585 0.51791 0.45519 0.0
C1328 C 0.84249 0.53944 0.31923 0.0
C1329 C 0.86271 0.54443 0.33211 0.0
C1330 C 0.92506 0.51668 0.35274 0.0
C1331 C 0.95119 0.52642 0.4131 0.0
C1332 C 0.93515 0.52993 0.39198 0.0
C1333 C 0.8818 0.52545 0.33783 0.0
C1334 C 0.90116 0.52954 0.35489 0.0
H1335 H 0.01151 0.51485 0.4281 0.0
H1336 H 0.98533 0.52574 0.39385 0.0
H1337 H 0.9595 0.50533 0.36952 0.0
H1338 H 0.8603 0.47809 0.31044 0.0
H1339 H 0.89504 0.48653 0.33347 0.0
C1340 C 0.15196 0.52485 0.70598 0.0
C1341 C 0.17272 0.51023 0.7154 0.0
C1342 C 0.13681 0.51484 0.6902 0.0
C1343 C 0.14059 0.46584 0.6464 0.0
H1344 H 0.07095 0.48871 0.64082 0.0
C1345 C 0.05253 0.46284 0.58009 0.0
C1346 C 0.06351 0.46849 0.55874 0.0
C1347 C 0.06583 0.46111 0.60107 0.0
C1348 C 0.09029 0.48168 0.64231 0.0
H1349 H 0.1929 0.47325 0.71708 0.0
H1350 H 0.16623 0.45576 0.68975 0.0
H1351 H 0.09264 0.49867 0.67598 0.0
H1352 H 0.09744 0.475 0.54224 0.0
H1353 H 0.12058 0.47263 0.579 0.0
H1354 H 0.13828 0.44912 0.61256 0.0
C1355 C 0.16198 0.47506 0.69417 0.0
C1356 C 0.10276 0.48768 0.66235 0.0
C1357 C 0.17718 0.48508 0.70989 0.0
C1358 C 0.08851 0.47068 0.55846 0.0
C1359 C 0.10178 0.46919 0.57953 0.0
C1360 C 0.1281 0.45977 0.62637 0.0
C1361 C 0.14206 0.48999 0.68364 0.0
C1362 C 0.12815 0.48043 0.66429 0.0
C1363 C 0.09032 0.46523 0.60117 0.0
C1364 C 0.10295 0.46821 0.62382 0.0
H1365 H 0.14803 0.54428 0.70991 0.0
H1366 H 0.12172 0.52691 0.68221 0.0
H1367 H 0.16021 0.46012 0.64729 0.0
H1368 H 0.03336 0.46065 0.58074 0.0
H1369 H 0.05665 0.45748 0.61737 0.0
C1370 C 0.59077 0.79692 0.21577 0.0
C1371 C 0.56597 0.79543 0.21168 0.0
C1372 C 0.60562 0.80323 0.19738 0.0
C1373 C 0.60871 0.79869 0.13295 0.0
H1374 H 0.66566 0.83146 0.14035 0.0
C1375 C 0.6791 0.79726 0.05836 0.0
C1376 C 0.70337 0.78964 0.06564 0.0
C1377 C 0.66082 0.80489 0.075 0.0
C1378 C 0.64977 0.82232 0.13803 0.0
H1379 H 0.53671 0.80148 0.18582 0.0
H1380 H 0.56245 0.81298 0.15395 0.0
H1381 H 0.63573 0.8328 0.17245 0.0
H1382 H 0.72779 0.78544 0.09587 0.0
H1383 H 0.6959 0.7983 0.12483 0.0
H1384 H 0.62305 0.7874 0.09903 0.0
C1385 C 0.57064 0.80858 0.17111 0.0
C1386 C 0.63268 0.82307 0.15638 0.0
C1387 C 0.55589 0.80205 0.18939 0.0
C1388 C 0.70922 0.79103 0.0897 0.0
C1389 C 0.69097 0.79865 0.10631 0.0
C1390 C 0.62572 0.79798 0.11465 0.0
C1391 C 0.59584 0.80838 0.17465 0.0
C1392 C 0.61226 0.81075 0.15424 0.0
C1393 C 0.66648 0.80506 0.0992 0.0
C1394 C 0.64675 0.80925 0.1172 0.0
H1395 H 0.59902 0.79197 0.2328 0.0
H1396 H 0.62501 0.80272 0.20067 0.0
H1397 H 0.59344 0.78862 0.13084 0.0
H1398 H 0.67405 0.79662 0.03991 0.0
H1399 H 0.64215 0.81004 0.06897 0.0
C1400 C 0.66316 0.46483 0.22593 0.0
C1401 C 0.65923 0.48946 0.23332 0.0
C1402 C 0.64855 0.45681 0.20837 0.0
C1403 C 0.59108 0.47344 0.17472 0.0
H1404 H 0.62779 0.43828 0.12358 0.0
C1405 C 0.57812 0.46136 0.0696 0.0
C1406 C 0.55341 0.45799 0.06939 0.0
C1407 C 0.59121 0.45958 0.09081 0.0
C1408 C 0.61729 0.44801 0.13775 0.0
H1409 H 0.63593 0.5246 0.2292 0.0
H1410 H 0.61051 0.51064 0.19848 0.0
H1411 H 0.64885 0.44669 0.15983 0.0
H1412 H 0.5237 0.44786 0.09068 0.0
H1413 H 0.54665 0.44434 0.1275 0.0
H1414 H 0.55977 0.47586 0.15229 0.0
C1415 C 0.62482 0.49749 0.20631 0.0
C1416 C 0.62928 0.4526 0.1586 0.0
C1417 C 0.63946 0.50552 0.22386 0.0
C1418 C 0.54262 0.45096 0.09036 0.0
C1419 C 0.55571 0.44904 0.11148 0.0
C1420 C 0.5791 0.46882 0.15392 0.0
C1421 C 0.62967 0.47324 0.19793 0.0
C1422 C 0.61637 0.4658 0.1771 0.0
C1423 C 0.57984 0.45422 0.11209 0.0
C1424 C 0.59217 0.45647 0.13504 0.0
H1425 H 0.67814 0.45192 0.23301 0.0
H1426 H 0.65244 0.43792 0.20251 0.0
H1427 H 0.58064 0.48347 0.18876 0.0
H1428 H 0.58695 0.46672 0.0537 0.0
H1429 H 0.60975 0.46379 0.09072 0.0
C1430 C 0.40316 0.4566 0.05923 0.0
C1431 C 0.42745 0.44563 0.05516 0.0
C1432 C 0.38461 0.44203 0.06159 0.0
C1433 C 0.3518 0.40829 0.04053 0.0
H1434 H 0.35979 0.34253 0.06709 0.0
C1435 C 0.31449 0.32971 0.99538 0.0
C1436 C 0.30188 0.3143 0.00901 0.0
C1437 C 0.3267 0.34701 0.00624 0.0
C1438 C 0.35708 0.36099 0.0599 0.0
H1439 H 0.45179 0.41092 0.05267 0.0
H1440 H 0.41958 0.38565 0.05661 0.0
H1441 H 0.38658 0.37149 0.08013 0.0
H1442 H 0.29268 0.30444 0.04476 0.0
H1443 H 0.31465 0.33457 0.06381 0.0
H1444 H 0.32312 0.39747 0.01952 0.0
C1445 C 0.41472 0.4054 0.05802 0.0
C1446 C 0.37243 0.3775 0.06727 0.0
C1447 C 0.43317 0.41991 0.05548 0.0
C1448 C 0.30225 0.31611 0.0338 0.0
C1449 C 0.31476 0.3333 0.0447 0.0
C1450 C 0.33662 0.39178 0.03309 0.0
C1451 C 0.39014 0.4163 0.06015 0.0
C1452 C 0.37052 0.401 0.05698 0.0
C1453 C 0.32674 0.34915 0.03096 0.0
C1454 C 0.33976 0.36771 0.04203 0.0
H1455 H 0.39827 0.47639 0.05924 0.0
H1456 H 0.36582 0.45088 0.06344 0.0
H1457 H 0.34999 0.42617 0.03212 0.0
H1458 H 0.31454 0.32879 0.97626 0.0
H1459 H 0.33621 0.35872 0.99526 0.0
C1460 C 0.05627 0.18721 0.27448 0.0
C1461 C 0.05891 0.212 0.27157 0.0
C1462 C 0.07674 0.16957 0.27844 0.0
C1463 C 0.14137 0.1585 0.26411 0.0
H1464 H 0.14058 0.10004 0.30234 0.0
C1465 C 0.21572 0.07495 0.25307 0.0
C1466 C 0.20636 0.05282 0.25 0.0
C1467 C 0.20088 0.09555 0.26218 0.0
C1468 C 0.14109 0.11631 0.29165 0.0
H1469 H 0.08485 0.23799 0.27174 0.0
H1470 H 0.12067 0.20704 0.27855 0.0
H1471 H 0.108 0.13498 0.30703 0.0
H1472 H 0.17453 0.03453 0.25507 0.0
H1473 H 0.14851 0.07054 0.27039 0.0
H1474 H 0.17361 0.13952 0.24781 0.0
C1475 C 0.10277 0.2013 0.2776 0.0
C1476 C 0.1225 0.13627 0.29435 0.0
C1477 C 0.08227 0.21897 0.27371 0.0
C1478 C 0.18224 0.05136 0.25714 0.0
C1479 C 0.16739 0.07195 0.26616 0.0
C1480 C 0.15989 0.13855 0.26136 0.0
C1481 C 0.10024 0.17638 0.27953 0.0
C1482 C 0.12205 0.15721 0.28004 0.0
C1483 C 0.1764 0.0944 0.26833 0.0
C1484 C 0.15948 0.11693 0.27452 0.0
H1485 H 0.03847 0.1813 0.27308 0.0
H1486 H 0.07426 0.15045 0.27955 0.0
H1487 H 0.14136 0.17429 0.25264 0.0
H1488 H 0.23436 0.07653 0.248 0.0
H1489 H 0.20839 0.11252 0.26393 0.0
C1490 C 0.22856 0.33268 0.9284 0.0
C1491 C 0.22556 0.33845 0.95252 0.0
C1492 C 0.22873 0.35128 0.91157 0.0
C1493 C 0.2144 0.41882 0.90233 0.0
H1494 H 0.26706 0.40734 0.85633 0.0
C1495 C 0.25109 0.4971 0.85223 0.0
C1496 C 0.25744 0.49347 0.8283 0.0
C1497 C 0.24433 0.47795 0.86579 0.0
C1498 C 0.25202 0.41073 0.8688 0.0
H1499 H 0.21926 0.36833 0.97773 0.0
H1500 H 0.21989 0.40068 0.94847 0.0
H1501 H 0.25954 0.37426 0.8827 0.0
H1502 H 0.26128 0.467 0.79971 0.0
H1503 H 0.24947 0.43355 0.82344 0.0
H1504 H 0.20738 0.45556 0.88878 0.0
C1505 C 0.22185 0.38183 0.94248 0.0
C1506 C 0.24766 0.39174 0.8839 0.0
C1507 C 0.2216 0.36325 0.9593 0.0
C1508 C 0.2566 0.47036 0.81814 0.0
C1509 C 0.24992 0.45117 0.83173 0.0
C1510 C 0.21882 0.43785 0.88726 0.0
C1511 C 0.22596 0.37605 0.91848 0.0
C1512 C 0.22902 0.39564 0.90107 0.0
C1513 C 0.24383 0.45473 0.85574 0.0
C1514 C 0.2379 0.4341 0.87055 0.0
H1515 H 0.23149 0.31375 0.92257 0.0
H1516 H 0.23151 0.34622 0.89317 0.0
H1517 H 0.19966 0.42233 0.9151 0.0
H1518 H 0.25153 0.51468 0.86059 0.0
H1519 H 0.24005 0.48119 0.88431 0.0
C1520 C 0.27237 0.22053 0.9135 0.0
C1521 C 0.27994 0.23099 0.93428 0.0
C1522 C 0.28879 0.21454 0.89496 0.0
C1523 C 0.31888 0.22649 0.85355 0.0
H1524 H 0.38914 0.20832 0.86 0.0
C1525 C 0.38729 0.26063 0.79056 0.0
C1526 C 0.40946 0.24551 0.78546 0.0
C1527 C 0.37065 0.25281 0.80637 0.0
C1528 C 0.36951 0.21296 0.85777 0.0
H1529 H 0.31083 0.24195 0.95277 0.0
H1530 H 0.33946 0.23238 0.92 0.0
H1531 H 0.36251 0.20342 0.8936 0.0
H1532 H 0.43103 0.20978 0.79191 0.0
H1533 H 0.40179 0.1961 0.81951 0.0
H1534 H 0.32586 0.23636 0.81789 0.0
C1535 C 0.32098 0.22828 0.91814 0.0
C1536 C 0.35429 0.21042 0.8771 0.0
C1537 C 0.30459 0.23392 0.93687 0.0
C1538 C 0.41414 0.22193 0.79561 0.0
C1539 C 0.39748 0.21411 0.81148 0.0
C1540 C 0.33405 0.22892 0.83425 0.0
C1541 C 0.31301 0.21931 0.89668 0.0
C1542 C 0.32888 0.2179 0.8754 0.0
C1543 C 0.37582 0.22969 0.81739 0.0
C1544 C 0.35956 0.22298 0.8364 0.0
H1545 H 0.25351 0.21764 0.91129 0.0
H1546 H 0.28225 0.20708 0.87891 0.0
H1547 H 0.29942 0.23267 0.85163 0.0
H1548 H 0.38313 0.27886 0.78299 0.0
H1549 H 0.35425 0.26537 0.81079 0.0
C1550 C 0.47883 0.52449 0.95071 0.0
C1551 C 0.46832 0.51485 0.97063 0.0
C1552 C 0.46443 0.53273 0.93126 0.0
C1553 C 0.43477 0.52871 0.88731 0.0
H1554 H 0.36651 0.55792 0.89156 0.0
C1555 C 0.36482 0.51702 0.81547 0.0
C1556 C 0.34544 0.53609 0.81114 0.0
C1557 C 0.38159 0.51913 0.83344 0.0
C1558 C 0.38567 0.55017 0.88999 0.0
H1559 H 0.43435 0.50732 0.98632 0.0
H1560 H 0.40923 0.52104 0.95206 0.0
H1561 H 0.39188 0.55449 0.92696 0.0
H1562 H 0.32917 0.5729 0.82139 0.0
H1563 H 0.35872 0.57667 0.85268 0.0
H1564 H 0.42857 0.5243 0.85041 0.0
C1565 C 0.42853 0.52267 0.9516 0.0
C1566 C 0.40011 0.54791 0.91033 0.0
C1567 C 0.44293 0.51466 0.97119 0.0
C1568 C 0.34384 0.55782 0.8244 0.0
C1569 C 0.36066 0.55994 0.8424 0.0
C1570 C 0.42038 0.53107 0.86699 0.0
C1571 C 0.43924 0.53126 0.9312 0.0
C1572 C 0.42466 0.5366 0.90932 0.0
C1573 C 0.3794 0.5404 0.84742 0.0
C1574 C 0.39551 0.54122 0.86822 0.0
H1575 H 0.49832 0.52523 0.94996 0.0
H1576 H 0.47314 0.53974 0.91605 0.0
H1577 H 0.45354 0.51968 0.88589 0.0
H1578 H 0.36658 0.50006 0.80555 0.0
H1579 H 0.39562 0.50361 0.83704 0.0
C1580 C 0.64993 0.70862 0.00396 0.0
C1581 C 0.67233 0.71174 0.99344 0.0
C1582 C 0.63821 0.68886 -0.00244 0.0
C1583 C 0.61395 0.64775 0.97634 0.0
H1584 H 0.65929 0.58695 0.9821 0.0
C1585 C 0.58053 0.55384 0.97919 0.0
C1586 C 0.58847 0.54023 -0.00044 0.0
C1587 C 0.59181 0.57376 0.97221 0.0
C1588 C 0.64647 0.60377 0.98019 0.0
H1589 H 0.69888 0.69791 0.96645 0.0
H1590 H 0.67842 0.66338 0.95546 0.0
H1591 H 0.67504 0.62601 0.98014 0.0
H1592 H 0.61545 0.53578 0.02763 0.0
H1593 H 0.63532 0.57044 0.01528 0.0
H1594 H 0.58533 0.62551 0.9775 0.0
C1595 C 0.67012 0.67606 0.96881 0.0
C1596 C 0.65545 0.62609 0.97886 0.0
C1597 C 0.68176 0.69588 0.97508 0.0
C1598 C 0.60887 0.54597 0.01193 0.0
C1599 C 0.62032 0.56573 0.00478 0.0
C1600 C 0.60497 0.62538 0.97744 0.0
C1601 C 0.64874 0.67186 0.9806 0.0
C1602 C 0.63924 0.64833 0.97764 0.0
C1603 C 0.61144 0.58021 0.98527 0.0
C1604 C 0.62114 0.60327 0.98011 0.0
H1605 H 0.64213 0.72061 0.01804 0.0
H1606 H 0.62179 0.68599 0.00703 0.0
H1607 H 0.6011 0.66463 0.9753 0.0
H1608 H 0.56488 0.54986 0.96922 0.0
H1609 H 0.58477 0.58454 0.957 0.0
C1610 C 0.89296 0.77422 0.73425 0.0
C1611 C 0.91678 0.77643 0.7268 0.0
C1612 C 0.8732 0.79155 0.7269 0.0
C1613 C 0.86439 0.85619 0.71238 0.0
H1614 H 0.79668 0.84865 0.70134 0.0
C1615 C 0.7909 0.94057 0.71229 0.0
C1616 C 0.76986 0.93814 0.7255 0.0
C1617 C 0.80701 0.91976 0.70552 0.0
C1618 C 0.81553 0.85103 0.70444 0.0
H1619 H 0.93853 0.7963 0.70383 0.0
H1620 H 0.90414 0.82602 0.69064 0.0
H1621 H 0.82829 0.81233 0.70176 0.0
H1622 H 0.74853 0.91216 0.74113 0.0
H1623 H 0.77712 0.87599 0.73031 0.0
H1624 H 0.85193 0.89439 0.71652 0.0
C1625 C 0.90068 0.81153 0.70263 0.0
C1626 C 0.83356 0.83026 0.7046 0.0
C1627 C 0.92033 0.79454 0.71018 0.0
C1628 C 0.76466 0.91457 0.73096 0.0
C1629 C 0.78096 0.8938 0.72455 0.0
C1630 C 0.84646 0.8768 0.71244 0.0
C1631 C 0.87717 0.811 0.71187 0.0
C1632 C 0.85811 0.83268 0.7089 0.0
C1633 C 0.80263 0.89617 0.71224 0.0
C1634 C 0.82175 0.87447 0.70889 0.0
H1635 H 0.88986 0.7603 0.74702 0.0
H1636 H 0.85523 0.79077 0.73433 0.0
H1637 H 0.88309 0.8586 0.71627 0.0
H1638 H 0.79512 0.95854 0.70751 0.0
H1639 H 0.82327 0.92221 0.69558 0.0
C1640 C 0.48961 0.24327 0.63928 0.0
C1641 C 0.49158 0.23705 0.6634 0.0
C1642 C 0.4853 0.22587 0.62248 0.0
C1643 C 0.49321 0.18119 0.59034 0.0
H1644 H 0.44717 0.13579 0.60197 0.0
C1645 C 0.47463 0.11004 0.52026 0.0
C1646 C 0.47298 0.08627 0.52862 0.0
C1647 C 0.47459 0.12956 0.53609 0.0
C1648 C 0.46026 0.14819 0.59851 0.0
H1649 H 0.48998 0.20775 0.6888 0.0
H1650 H 0.48245 0.17736 0.65944 0.0
H1651 H 0.45156 0.16751 0.63098 0.0
H1652 H 0.46947 0.06455 0.56019 0.0
H1653 H 0.46978 0.0983 0.58762 0.0
H1654 H 0.50233 0.16163 0.55816 0.0
C1655 C 0.48412 0.19577 0.65356 0.0
C1656 C 0.46275 0.16638 0.61515 0.0
C1657 C 0.48855 0.21316 0.67038 0.0
C1658 C 0.47072 0.08261 0.55309 0.0
C1659 C 0.47074 0.10206 0.56887 0.0
C1660 C 0.4908 0.16294 0.57375 0.0
C1661 C 0.48273 0.20184 0.62937 0.0
C1662 C 0.47937 0.18301 0.61134 0.0
C1663 C 0.47293 0.12575 0.56063 0.0
C1664 C 0.47443 0.14606 0.57769 0.0
H1665 H 0.49178 0.26152 0.63327 0.0
H1666 H 0.484 0.23125 0.60404 0.0
H1667 H 0.50644 0.19347 0.587 0.0
H1668 H 0.47633 0.11353 0.50152 0.0
H1669 H 0.47594 0.14763 0.52908 0.0
C1670 C 0.5038 0.27481 0.84069 0.0
C1671 C 0.49746 0.28551 0.81855 0.0
C1672 C 0.50845 0.28932 0.85987 0.0
C1673 C 0.52329 0.35048 0.87639 0.0
H1674 H 0.49462 0.33589 0.93646 0.0
C1675 C 0.51381 0.41716 0.95613 0.0
C1676 C 0.51603 0.40703 0.97902 0.0
C1677 C 0.51466 0.40196 0.93629 0.0
C1678 C 0.50313 0.34 0.91994 0.0
H1679 H 0.49162 0.31986 0.79905 0.0
H1680 H 0.49951 0.34527 0.83266 0.0
H1681 H 0.48991 0.31033 0.90236 0.0
H1682 H 0.52238 0.37292 -0.00111 0.0
H1683 H 0.52429 0.34645 0.96432 0.0
H1684 H 0.53626 0.3804 0.89405 0.0
C1685 C 0.5011 0.32559 0.83512 0.0
C1686 C 0.50038 0.32534 0.90034 0.0
C1687 C 0.49644 0.31104 0.81588 0.0
C1688 C 0.52038 0.38135 0.98154 0.0
C1689 C 0.5213 0.36616 0.96171 0.0
C1690 C 0.52606 0.36518 0.89606 0.0
C1691 C 0.50687 0.31492 0.85742 0.0
C1692 C 0.51036 0.3304 0.8783 0.0
C1693 C 0.51782 0.37627 0.93888 0.0
C1694 C 0.51596 0.36015 0.91808 0.0
H1695 H 0.50495 0.25519 0.84335 0.0
H1696 H 0.51326 0.28044 0.87668 0.0
H1697 H 0.53144 0.35472 0.85973 0.0
H1698 H 0.51042 0.43688 0.95354 0.0
H1699 H 0.51174 0.41039 0.91902 0.0
C1700 C 0.53014 0.8056 0.34171 0.0
C1701 C 0.51181 0.80526 0.3246 0.0
C1702 C 0.53152 0.82684 0.3548 0.0
C1703 C 0.50683 0.8939 0.35879 0.0
H1704 H 0.52187 0.8832 0.42523 0.0
C1705 C 0.50765 0.97512 0.42316 0.0
C1706 C 0.49865 0.97252 0.44615 0.0
C1707 C 0.5116 0.95502 0.40785 0.0
C1708 C 0.51739 0.88658 0.40678 0.0
H1709 H 0.48114 0.8273 0.30713 0.0
H1710 H 0.48301 0.86402 0.33033 0.0
H1711 H 0.52441 0.8483 0.39885 0.0
H1712 H 0.48669 0.94676 0.47107 0.0
H1713 H 0.49275 0.91196 0.44422 0.0
H1714 H 0.49843 0.93209 0.36703 0.0
C1715 C 0.49673 0.84812 0.33341 0.0
C1716 C 0.51929 0.86651 0.39148 0.0
C1717 C 0.49558 0.82697 0.3201 0.0
C1718 C 0.4938 0.94935 0.45353 0.0
C1719 C 0.49745 0.92932 0.43812 0.0
C1720 C 0.50465 0.91397 0.37416 0.0
C1721 C 0.51436 0.84819 0.35135 0.0
C1722 C 0.51386 0.86983 0.36728 0.0
C1723 C 0.50637 0.93186 0.41503 0.0
C1724 C 0.5097 0.91058 0.39843 0.0
H1725 H 0.54305 0.78922 0.34546 0.0
H1726 H 0.54576 0.82633 0.36799 0.0
H1727 H 0.50283 0.8973 0.34025 0.0
H1728 H 0.51175 0.9927 0.41699 0.0
H1729 H 0.51891 0.95766 0.39041 0.0
C1730 C 0.50535 0.5577 0.07441 0.0
C1731 C 0.50068 0.56341 0.05045 0.0
C1732 C 0.50132 0.57605 0.09165 0.0
C1733 C 0.49698 0.64336 0.0975 0.0
H1734 H 0.47424 0.63191 0.1609 0.0
C1735 C 0.48017 0.72138 0.16556 0.0
C1736 C 0.48955 0.71605 0.18838 0.0
C1737 C 0.47896 0.70256 0.14931 0.0
C1738 C 0.48076 0.63533 0.1433 0.0
H1739 H 0.48692 0.5926 0.02598 0.0
H1740 H 0.4794 0.62441 0.05602 0.0
H1741 H 0.47631 0.59937 0.13136 0.0
H1742 H 0.5042 0.68663 0.21227 0.0
H1743 H 0.5022 0.65375 0.18381 0.0
H1744 H 0.50161 0.67917 0.1094 0.0
C1745 C 0.48677 0.60591 0.06147 0.0
C1746 C 0.48197 0.61668 0.12637 0.0
C1747 C 0.49093 0.58762 0.04425 0.0
C1748 C 0.4969 0.69137 0.19483 0.0
C1749 C 0.49565 0.67251 0.17855 0.0
C1750 C 0.4957 0.66197 0.11436 0.0
C1751 C 0.49241 0.60048 0.08533 0.0
C1752 C 0.49017 0.62045 0.10326 0.0
C1753 C 0.48707 0.67793 0.15546 0.0
C1754 C 0.48764 0.65819 0.13748 0.0
H1755 H 0.51293 0.53923 0.07979 0.0
H1756 H 0.50607 0.57121 0.10979 0.0
H1757 H 0.50391 0.64678 0.08007 0.0
H1758 H 0.47418 0.74016 0.16004 0.0
H1759 H 0.47186 0.70733 0.1318 0.0
loop_
_geom_bond_atom_site_label_1
_geom_bond_atom_site_label_2
_geom_bond_distance
_geom_bond_site_symmetry_2
_ccdc_geom_bond_type
Zn0 O6 1.969 1_554 S
Zn0 O7 1.965 . S
Zn0 O11 2.024 1_455 S
Zn0 O16 1.969 1_454 S
Zn1 O8 1.969 1_656 S
Zn1 O14 1.969 1_556 S
Zn1 O15 1.965 1_565 S
Zn1 O17 2.024 1_655 S
C2 O3 1.229 . S
C2 O11 1.058 . S
O3 C2 1.229 . S
C4 O5 1.229 . S
C4 O17 1.058 . S
O5 C4 1.229 . S
O6 Zn0 1.969 1_556 S
O6 C9 1.259 1_556 S
O7 Zn0 1.965 . S
O7 C18 1.260 1_545 S
O8 Zn1 1.969 1_454 S
O8 C18 1.258 . S
C9 O6 1.259 1_554 S
C9 O10 1.245 . S
O10 C9 1.245 . S
O11 Zn0 2.024 1_655 S
O11 C2 1.058 . S
C12 O13 1.228 1_554 S
C12 O14 1.267 . S
O13 C12 1.228 1_556 S
O14 Zn1 1.969 1_554 S
O14 C12 1.267 . S
O15 Zn1 1.965 1_545 S
O15 C19 1.260 . S
O16 Zn0 1.969 1_656 S
O16 C19 1.258 . S
O17 Zn1 2.024 1_455 S
O17 C4 1.058 . S
C18 O7 1.260 1_565 S
C18 O8 1.258 . S
C19 O15 1.260 . S
C19 O16 1.258 . S
Zn20 O26 1.969 1_455 S
Zn20 O27 1.965 1_455 S
Zn20 O31 2.024 . S
Zn20 O36 1.969 . S
Zn21 O28 1.969 . S
Zn21 O34 1.969 . S
Zn21 O35 1.965 . S
Zn21 O37 2.024 . S
C22 O23 1.229 . S
C22 O31 1.058 . S
O23 C22 1.229 . S
C24 O25 1.229 . S
C24 O37 1.058 . S
O25 C24 1.229 . S
O26 Zn20 1.969 1_655 S
O26 C29 1.267 . S
O27 Zn20 1.965 1_655 S
O27 C38 1.260 . S
O28 Zn21 1.969 . S
O28 C38 1.258 1_455 S
C29 O26 1.267 . S
C29 O30 1.228 . S
O30 C29 1.228 . S
O31 Zn20 2.024 . S
O31 C22 1.058 . S
C32 O33 1.228 . S
C32 O34 1.267 . S
O33 C32 1.228 . S
O34 Zn21 1.969 . S
O34 C32 1.267 . S
O35 Zn21 1.965 . S
O35 C39 1.260 . S
O36 Zn20 1.969 . S
O36 C39 1.258 . S
O37 Zn21 2.024 . S
O37 C24 1.058 . S
C38 O27 1.260 . S
C38 O28 1.258 1_655 S
C39 O35 1.260 . S
C39 O36 1.258 . S
Zn40 O46 1.969 . S
Zn40 O47 1.965 . S
Zn40 O51 2.024 . S
Zn40 O56 1.969 . S
Zn41 O48 1.969 . S
Zn41 O54 1.969 . S
Zn41 O55 1.965 . S
Zn41 O57 2.024 . S
C42 O43 1.229 . S
C42 O51 1.058 . S
O43 C42 1.229 . S
C44 O45 1.229 . S
C44 O57 1.058 . S
O45 C44 1.229 . S
O46 Zn40 1.969 . S
O46 C49 1.267 . S
O47 Zn40 1.965 . S
O47 C58 1.260 . S
O48 Zn41 1.969 . S
O48 C58 1.258 . S
C49 O46 1.267 . S
C49 O50 1.228 . S
O50 C49 1.228 . S
O51 Zn40 2.024 . S
O51 C42 1.058 . S
C52 O53 1.228 . S
C52 O54 1.267 . S
O53 C52 1.228 . S
O54 Zn41 1.969 . S
O54 C52 1.267 . S
O55 Zn41 1.965 . S
O55 C59 1.260 . S
O56 Zn40 1.969 . S
O56 C59 1.258 . S
O57 Zn41 2.024 . S
O57 C44 1.058 . S
C58 O47 1.260 . S
C58 O48 1.258 . S
C59 O55 1.260 . S
C59 O56 1.258 . S
Zn60 O66 1.969 . S
Zn60 O67 1.965 . S
Zn60 O71 2.024 1_545 S
Zn60 O76 1.969 . S
Zn61 O68 1.969 . S
Zn61 O74 1.969 . S
Zn61 O75 1.965 . S
Zn61 O77 2.024 . S
C62 O63 1.229 1_565 S
C62 O71 1.058 . S
O63 C62 1.229 1_545 S
C64 O65 1.229 . S
C64 O77 1.058 . S
O65 C64 1.229 . S
O66 Zn60 1.969 . S
O66 C69 1.267 . S
O67 Zn60 1.965 . S
O67 C78 1.260 . S
O68 Zn61 1.969 . S
O68 C78 1.258 . S
C69 O66 1.267 . S
C69 O70 1.228 . S
O70 C69 1.228 . S
O71 Zn60 2.024 1_565 S
O71 C62 1.058 . S
C72 O73 1.228 . S
C72 O74 1.267 . S
O73 C72 1.228 . S
O74 Zn61 1.969 . S
O74 C72 1.267 . S
O75 Zn61 1.965 . S
O75 C79 1.260 . S
O76 Zn60 1.969 . S
O76 C79 1.258 . S
O77 Zn61 2.024 . S
O77 C64 1.058 . S
C78 O67 1.260 . S
C78 O68 1.258 . S
C79 O75 1.260 . S
C79 O76 1.258 . S
Zn80 O86 1.969 . S
Zn80 O87 1.965 . S
Zn80 O91 2.024 . S
Zn80 O96 1.969 . S
Zn81 O88 1.969 . S
Zn81 O94 1.969 . S
Zn81 O95 1.965 . S
Zn81 O97 2.024 . S
C82 O83 1.229 . S
C82 O91 1.058 . S
O83 C82 1.229 . S
C84 O85 1.229 . S
C84 O97 1.058 . S
O85 C84 1.229 . S
O86 Zn80 1.969 . S
O86 C89 1.267 . S
O87 Zn80 1.965 . S
O87 C98 1.260 . S
O88 Zn81 1.969 . S
O88 C98 1.258 . S
C89 O86 1.267 . S
C89 O90 1.228 . S
O90 C89 1.228 . S
O91 Zn80 2.024 . S
O91 C82 1.058 . S
C92 O93 1.228 . S
C92 O94 1.267 . S
O93 C92 1.228 . S
O94 Zn81 1.969 . S
O94 C92 1.267 . S
O95 Zn81 1.965 . S
O95 C99 1.260 . S
O96 Zn80 1.969 . S
O96 C99 1.258 . S
O97 Zn81 2.024 . S
O97 C84 1.058 . S
C98 O87 1.260 . S
C98 O88 1.258 . S
C99 O95 1.260 . S
C99 O96 1.258 . S
Zn100 O106 1.969 . S
Zn100 O107 1.965 . S
Zn100 O111 2.024 . S
Zn100 O116 1.969 . S
Zn101 O108 1.969 . S
Zn101 O114 1.969 . S
Zn101 O115 1.965 . S
Zn101 O117 2.024 . S
C102 O103 1.229 . S
C102 O111 1.058 . S
O103 C102 1.229 . S
C104 O105 1.229 . S
C104 O117 1.058 . S
O105 C104 1.229 . S
O106 Zn100 1.969 . S
O106 C109 1.267 . S
O107 Zn100 1.965 . S
O107 C118 1.260 . S
O108 Zn101 1.969 . S
O108 C118 1.258 . S
C109 O106 1.267 . S
C109 O110 1.228 . S
O110 C109 1.228 . S
O111 Zn100 2.024 . S
O111 C102 1.058 . S
C112 O113 1.228 . S
C112 O114 1.267 . S
O113 C112 1.228 . S
O114 Zn101 1.969 . S
O114 C112 1.267 . S
O115 Zn101 1.965 . S
O115 C119 1.260 . S
O116 Zn100 1.969 . S
O116 C119 1.258 . S
O117 Zn101 2.024 . S
O117 C104 1.058 . S
C118 O107 1.260 . S
C118 O108 1.258 . S
C119 O115 1.260 . S
C119 O116 1.258 . S
Zn120 O126 1.969 . S
Zn120 O127 1.965 . S
Zn120 O131 2.024 . S
Zn120 O136 1.969 . S
Zn121 O128 1.969 . S
Zn121 O134 1.969 . S
Zn121 O135 1.965 . S
Zn121 O137 2.024 . S
C122 O123 1.229 . S
C122 O131 1.058 . S
O123 C122 1.229 . S
C124 O125 1.229 . S
C124 O137 1.058 . S
O125 C124 1.229 . S
O126 Zn120 1.969 . S
O126 C129 1.267 . S
O127 Zn120 1.965 . S
O127 C138 1.260 . S
O128 Zn121 1.969 . S
O128 C138 1.258 . S
C129 O126 1.267 . S
C129 O130 1.228 . S
O130 C129 1.228 . S
O131 Zn120 2.024 . S
O131 C122 1.058 . S
C132 O133 1.228 . S
C132 O134 1.267 . S
O133 C132 1.228 . S
O134 Zn121 1.969 . S
O134 C132 1.267 . S
O135 Zn121 1.965 . S
O135 C139 1.260 . S
O136 Zn120 1.969 . S
O136 C139 1.258 . S
O137 Zn121 2.024 . S
O137 C124 1.058 . S
C138 O127 1.260 . S
C138 O128 1.258 . S
C139 O135 1.260 . S
C139 O136 1.258 . S
Zn140 O146 1.969 . S
Zn140 O147 1.965 . S
Zn140 O151 2.024 . S
Zn140 O156 1.969 1_455 S
Zn141 O148 1.969 . S
Zn141 O154 1.969 1_455 S
Zn141 O155 1.965 1_455 S
Zn141 O157 2.024 . S
C142 O143 1.232 . S
C142 O151 1.067 . S
O143 C142 1.232 . S
C144 O145 1.229 . S
C144 O157 1.058 . S
O145 C144 1.229 . S
O146 Zn140 1.969 . S
O146 C149 1.267 . S
O147 Zn140 1.965 . S
O147 C158 1.260 . S
O148 Zn141 1.969 . S
O148 C158 1.258 . S
C149 O146 1.267 . S
C149 O150 1.228 . S
O150 C149 1.228 . S
O151 Zn140 2.024 . S
O151 C142 1.067 . S
C152 O153 1.228 . S
C152 O154 1.267 . S
O153 C152 1.228 . S
O154 Zn141 1.969 1_655 S
O154 C152 1.267 . S
O155 Zn141 1.965 1_655 S
O155 C159 1.260 . S
O156 Zn140 1.969 1_655 S
O156 C159 1.258 . S
O157 Zn141 2.024 . S
O157 C144 1.058 . S
C158 O147 1.260 . S
C158 O148 1.258 . S
C159 O155 1.260 . S
C159 O156 1.258 . S
Zn160 O166 1.969 1_554 S
Zn160 O167 1.965 . S
Zn160 O171 2.024 . S
Zn160 O176 1.969 1_554 S
Zn161 O168 1.969 1_556 S
Zn161 O174 1.969 1_556 S
Zn161 O175 1.965 . S
Zn161 O177 2.024 . S
C162 O163 1.229 . S
C162 O171 1.058 . S
O163 C162 1.229 . S
C164 O165 1.229 . S
C164 O177 1.058 . S
O165 C164 1.229 . S
O166 Zn160 1.969 1_556 S
O166 C169 1.259 1_556 S
O167 Zn160 1.965 . S
O167 C178 1.260 . S
O168 Zn161 1.969 1_554 S
O168 C178 1.258 . S
C169 O166 1.259 1_554 S
C169 O170 1.245 . S
O170 C169 1.245 . S
O171 Zn160 2.024 . S
O171 C162 1.058 . S
C172 O173 1.228 1_554 S
C172 O174 1.267 . S
O173 C172 1.228 1_556 S
O174 Zn161 1.969 1_554 S
O174 C172 1.267 . S
O175 Zn161 1.965 . S
O175 C179 1.260 . S
O176 Zn160 1.969 1_556 S
O176 C179 1.258 . S
O177 Zn161 2.024 . S
O177 C164 1.058 . S
C178 O167 1.260 . S
C178 O168 1.258 . S
C179 O175 1.260 . S
C179 O176 1.258 . S
Zn180 O186 1.969 1_565 S
Zn180 O187 1.965 . S
Zn180 O191 2.024 . S
Zn180 O196 1.969 1_565 S
Zn181 O188 1.969 1_545 S
Zn181 O194 1.969 1_545 S
Zn181 O195 1.965 . S
Zn181 O197 2.024 . S
C182 O183 1.229 . S
C182 O191 1.058 . S
O183 C182 1.229 . S
C184 O185 1.229 . S
C184 O197 1.058 . S
O185 C184 1.229 . S
O186 Zn180 1.969 1_545 S
O186 C189 1.267 . S
O187 Zn180 1.965 . S
O187 C198 1.260 . S
O188 Zn181 1.969 1_565 S
O188 C198 1.258 . S
C189 O186 1.267 . S
C189 O190 1.228 1_545 S
O190 C189 1.228 1_565 S
O191 Zn180 2.024 . S
O191 C182 1.058 . S
C192 O193 1.192 1_565 S
C192 O194 1.285 . S
O193 C192 1.192 1_545 S
O194 Zn181 1.969 1_565 S
O194 C192 1.285 . S
O195 Zn181 1.965 . S
O195 C199 1.260 . S
O196 Zn180 1.969 1_545 S
O196 C199 1.258 . S
O197 Zn181 2.024 . S
O197 C184 1.058 . S
C198 O187 1.260 . S
C198 O188 1.258 . S
C199 O195 1.260 . S
C199 O196 1.258 . S
Zn200 O206 1.969 . S
Zn200 O207 1.965 . S
Zn200 O211 2.024 . S
Zn200 O216 1.969 . S
Zn201 O208 1.969 . S
Zn201 O214 1.969 . S
Zn201 O215 1.965 . S
Zn201 O217 2.024 . S
C202 O203 1.229 . S
C202 O211 1.058 . S
O203 C202 1.229 . S
C204 O205 1.229 . S
C204 O217 1.058 . S
O205 C204 1.229 . S
O206 Zn200 1.969 . S
O206 C209 1.267 . S
O207 Zn200 1.965 . S
O207 C218 1.260 . S
O208 Zn201 1.969 . S
O208 C218 1.258 . S
C209 O206 1.267 . S
C209 O210 1.228 . S
O210 C209 1.228 . S
O211 Zn200 2.024 . S
O211 C202 1.058 . S
C212 O213 1.228 . S
C212 O214 1.267 . S
O213 C212 1.228 . S
O214 Zn201 1.969 . S
O214 C212 1.267 . S
O215 Zn201 1.965 . S
O215 C219 1.260 . S
O216 Zn200 1.969 . S
O216 C219 1.258 . S
O217 Zn201 2.024 . S
O217 C204 1.058 . S
C218 O207 1.260 . S
C218 O208 1.258 . S
C219 O215 1.260 . S
C219 O216 1.258 . S
Zn220 O226 1.969 . S
Zn220 O227 1.965 . S
Zn220 O231 2.024 1_655 S
Zn220 O236 1.969 1_655 S
Zn221 O228 1.969 1_455 S
Zn221 O234 1.969 . S
Zn221 O235 1.965 . S
Zn221 O237 2.024 1_455 S
C222 O223 1.229 . S
C222 O231 1.058 . S
O223 C222 1.229 . S
C224 O225 1.229 . S
C224 O237 1.058 . S
O225 C224 1.229 . S
O226 Zn220 1.969 . S
O226 C229 1.267 . S
O227 Zn220 1.965 . S
O227 C238 1.260 . S
O228 Zn221 1.969 1_655 S
O228 C238 1.258 . S
C229 O226 1.267 . S
C229 O230 1.228 . S
O230 C229 1.228 . S
O231 Zn220 2.024 1_455 S
O231 C222 1.058 . S
C232 O233 1.228 . S
C232 O234 1.267 . S
O233 C232 1.228 . S
O234 Zn221 1.969 . S
O234 C232 1.267 . S
O235 Zn221 1.965 . S
O235 C239 1.260 . S
O236 Zn220 1.969 1_455 S
O236 C239 1.258 . S
O237 Zn221 2.024 1_655 S
O237 C224 1.058 . S
C238 O227 1.260 . S
C238 O228 1.258 . S
C239 O235 1.260 . S
C239 O236 1.258 . S
Zn240 O246 1.969 . S
Zn240 O247 1.965 . S
Zn240 O251 2.024 . S
Zn240 O256 1.969 . S
Zn241 O248 1.969 . S
Zn241 O254 1.969 . S
Zn241 O255 1.965 . S
Zn241 O257 2.024 . S
C242 O243 1.229 . S
C242 O251 1.058 . S
O243 C242 1.229 . S
C244 O245 1.229 . S
C244 O257 1.058 . S
O245 C244 1.229 . S
O246 Zn240 1.969 . S
O246 C249 1.267 . S
O247 Zn240 1.965 . S
O247 C258 1.260 . S
O248 Zn241 1.969 . S
O248 C258 1.258 . S
C249 O246 1.267 . S
C249 O250 1.228 . S
O250 C249 1.228 . S
O251 Zn240 2.024 . S
O251 C242 1.058 . S
C252 O253 1.228 . S
C252 O254 1.267 . S
O253 C252 1.228 . S
O254 Zn241 1.969 . S
O254 C252 1.267 . S
O255 Zn241 1.965 . S
O255 C259 1.260 . S
O256 Zn240 1.969 . S
O256 C259 1.258 . S
O257 Zn241 2.024 . S
O257 C244 1.058 . S
C258 O247 1.260 . S
C258 O248 1.258 . S
C259 O255 1.260 . S
C259 O256 1.258 . S
Zn260 O266 1.969 1_554 S
Zn260 O267 1.965 . S
Zn260 O271 2.024 . S
Zn260 O276 1.969 1_554 S
Zn261 O268 1.969 . S
Zn261 O274 1.969 . S
Zn261 O275 1.963 1_554 S
Zn261 O277 2.024 1_554 S
C262 O263 1.229 . S
C262 O271 1.058 . S
O263 C262 1.229 . S
C264 O265 1.229 . S
C264 O277 1.058 . S
O265 C264 1.229 . S
O266 Zn260 1.969 1_556 S
O266 C269 1.267 1_556 S
O267 Zn260 1.965 . S
O267 C278 1.260 . S
O268 Zn261 1.969 . S
O268 C278 1.258 . S
C269 O266 1.267 1_554 S
C269 O270 1.228 . S
O270 C269 1.228 . S
O271 Zn260 2.024 . S
O271 C262 1.058 . S
C272 O273 1.228 1_554 S
C272 O274 1.267 . S
O273 C272 1.228 1_556 S
O274 Zn261 1.969 . S
O274 C272 1.267 . S
O275 Zn261 1.963 1_556 S
O275 C279 1.284 . S
O276 Zn260 1.969 1_556 S
O276 C279 1.258 . S
O277 Zn261 2.024 1_556 S
O277 C264 1.058 . S
C278 O267 1.260 . S
C278 O268 1.258 . S
C279 O275 1.284 . S
C279 O276 1.258 . S
Zn280 O286 1.969 1_545 S
Zn280 O287 1.965 1_545 S
Zn280 O291 2.024 . S
Zn280 O296 1.969 . S
Zn281 O288 1.969 . S
Zn281 O294 1.969 . S
Zn281 O295 1.965 . S
Zn281 O297 2.024 . S
C282 O283 1.229 . S
C282 O291 1.058 . S
O283 C282 1.229 . S
C284 O285 1.229 . S
C284 O297 1.058 . S
O285 C284 1.229 . S
O286 Zn280 1.969 1_565 S
O286 C289 1.267 . S
O287 Zn280 1.965 1_565 S
O287 C298 1.260 . S
O288 Zn281 1.969 . S
O288 C298 1.258 1_545 S
C289 O286 1.267 . S
C289 O290 1.228 . S
O290 C289 1.228 . S
O291 Zn280 2.024 . S
O291 C282 1.058 . S
C292 O293 1.228 . S
C292 O294 1.267 . S
O293 C292 1.228 . S
O294 Zn281 1.969 . S
O294 C292 1.267 . S
O295 Zn281 1.965 . S
O295 C299 1.260 . S
O296 Zn280 1.969 . S
O296 C299 1.258 . S
O297 Zn281 2.024 . S
O297 C284 1.058 . S
C298 O287 1.260 . S
C298 O288 1.258 1_565 S
C299 O295 1.260 . S
C299 O296 1.258 . S
Zn300 O306 1.969 1_554 S
Zn300 O307 1.965 . S
Zn300 O311 2.024 . S
Zn300 O316 1.969 1_554 S
Zn301 O308 1.969 . S
Zn301 O314 1.969 . S
Zn301 O315 1.963 1_554 S
Zn301 O317 2.024 1_554 S
C302 O303 1.229 . S
C302 O311 1.058 . S
O303 C302 1.229 . S
C304 O305 1.229 . S
C304 O317 1.058 . S
O305 C304 1.229 . S
O306 Zn300 1.969 1_556 S
O306 C309 1.267 1_556 S
O307 Zn300 1.965 . S
O307 C318 1.260 . S
O308 Zn301 1.969 . S
O308 C318 1.258 . S
C309 O306 1.267 1_554 S
C309 O310 1.228 . S
O310 C309 1.228 . S
O311 Zn300 2.024 . S
O311 C302 1.058 . S
C312 O313 1.228 1_554 S
C312 O314 1.267 . S
O313 C312 1.228 1_556 S
O314 Zn301 1.969 . S
O314 C312 1.267 . S
O315 Zn301 1.963 1_556 S
O315 C319 1.284 . S
O316 Zn300 1.969 1_556 S
O316 C319 1.258 . S
O317 Zn301 2.024 1_556 S
O317 C304 1.058 . S
C318 O307 1.260 . S
C318 O308 1.258 . S
C319 O315 1.284 . S
C319 O316 1.258 . S
C320 C321 1.349 . S
C320 C322 1.327 . S
C320 H345 0.950 . S
C321 C320 1.349 . S
C321 C337 1.349 . S
C322 C320 1.327 . S
C322 C341 1.429 . S
C322 H346 0.950 . S
C323 C340 1.575 . S
C323 C342 1.366 1_455 S
C323 H347 0.949 . S
H324 C328 0.949 . S
C325 C326 1.349 . S
C325 C327 1.327 . S
C325 H348 0.950 . S
C326 C325 1.349 . S
C326 C338 1.349 1_455 S
C327 C325 1.327 . S
C327 C343 1.429 1_455 S
C327 H349 0.950 . S
C328 H324 0.949 . S
C328 C336 1.574 . S
C328 C344 1.368 . S
H329 C337 0.950 . S
H330 C335 0.949 1_455 S
H331 C336 0.949 . S
H332 C338 0.950 . S
H333 C339 0.950 . S
H334 C340 0.949 . S
C335 H330 0.949 1_655 S
C335 C337 1.327 . S
C335 C341 1.429 . S
C336 C328 1.574 . S
C336 H331 0.949 . S
C336 C342 1.368 . S
C337 C321 1.349 . S
C337 H329 0.950 . S
C337 C335 1.327 . S
C338 C326 1.349 1_655 S
C338 H332 0.950 . S
C338 C339 1.327 . S
C339 H333 0.950 . S
C339 C338 1.327 . S
C339 C343 1.428 . S
C340 C323 1.575 . S
C340 H334 0.949 . S
C340 C344 1.368 1_455 S
C341 C322 1.429 . S
C341 C335 1.429 . S
C341 C342 1.523 . S
C342 C323 1.366 1_655 S
C342 C336 1.368 . S
C342 C341 1.523 . S
C343 C327 1.429 1_655 S
C343 C339 1.428 . S
C343 C344 1.523 . S
C344 C328 1.368 . S
C344 C340 1.368 1_655 S
C344 C343 1.523 . S
H345 C320 0.950 . S
H346 C322 0.950 . S
H347 C323 0.949 . S
H348 C325 0.950 . S
H349 C327 0.950 . S
C350 C351 1.349 . S
C350 C352 1.327 . S
C350 H375 0.950 . S
C351 C350 1.349 . S
C351 C367 1.349 . S
C352 C350 1.327 . S
C352 C371 1.429 . S
C352 H376 0.950 . S
C353 C370 1.574 . S
C353 C372 1.368 . S
C353 H377 0.949 . S
H354 C358 0.949 . S
C355 C356 1.349 . S
C355 C357 1.327 . S
C355 H378 0.950 . S
C356 C355 1.349 . S
C356 C368 1.349 . S
C357 C355 1.327 . S
C357 C373 1.429 . S
C357 H379 0.950 . S
C358 H354 0.949 . S
C358 C366 1.574 . S
C358 C374 1.368 . S
H359 C367 0.950 . S
H360 C365 0.950 . S
H361 C366 0.949 . S
H362 C368 0.950 . S
H363 C369 0.950 . S
H364 C370 0.949 . S
C365 H360 0.950 . S
C365 C367 1.327 . S
C365 C371 1.429 . S
C366 C358 1.574 . S
C366 H361 0.949 . S
C366 C372 1.368 . S
C367 C351 1.349 . S
C367 H359 0.950 . S
C367 C365 1.327 . S
C368 C356 1.349 . S
C368 H362 0.950 . S
C368 C369 1.327 . S
C369 H363 0.950 . S
C369 C368 1.327 . S
C369 C373 1.429 . S
C370 C353 1.574 . S
C370 H364 0.949 . S
C370 C374 1.368 . S
C371 C352 1.429 . S
C371 C365 1.429 . S
C371 C372 1.523 . S
C372 C353 1.368 . S
C372 C366 1.368 . S
C372 C371 1.523 . S
C373 C357 1.429 . S
C373 C369 1.429 . S
C373 C374 1.523 . S
C374 C358 1.368 . S
C374 C370 1.368 . S
C374 C373 1.523 . S
H375 C350 0.950 . S
H376 C352 0.950 . S
H377 C353 0.949 . S
H378 C355 0.950 . S
H379 C357 0.950 . S
C380 C381 1.349 . S
C380 C382 1.327 . S
C380 H405 0.950 . S
C381 C380 1.349 . S
C381 C397 1.349 . S
C382 C380 1.327 . S
C382 C401 1.429 . S
C382 H406 0.950 . S
C383 C400 1.574 . S
C383 C402 1.368 . S
C383 H407 0.949 . S
H384 C388 0.949 . S
C385 C386 1.349 . S
C385 C387 1.327 . S
C385 H408 0.950 . S
C386 C385 1.349 . S
C386 C398 1.349 . S
C387 C385 1.327 . S
C387 C403 1.429 . S
C387 H409 0.950 . S
C388 H384 0.949 . S
C388 C396 1.574 . S
C388 C404 1.368 . S
H389 C397 0.950 . S
H390 C395 0.950 . S
H391 C396 0.949 . S
H392 C398 0.950 . S
H393 C399 0.950 . S
H394 C400 0.949 . S
C395 H390 0.950 . S
C395 C397 1.327 . S
C395 C401 1.429 . S
C396 C388 1.574 . S
C396 H391 0.949 . S
C396 C402 1.368 . S
C397 C381 1.349 . S
C397 H389 0.950 . S
C397 C395 1.327 . S
C398 C386 1.349 . S
C398 H392 0.950 . S
C398 C399 1.327 . S
C399 H393 0.950 . S
C399 C398 1.327 . S
C399 C403 1.429 . S
C400 C383 1.574 . S
C400 H394 0.949 . S
C400 C404 1.368 . S
C401 C382 1.429 . S
C401 C395 1.429 . S
C401 C402 1.523 . S
C402 C383 1.368 . S
C402 C396 1.368 . S
C402 C401 1.523 . S
C403 C387 1.429 . S
C403 C399 1.429 . S
C403 C404 1.523 . S
C404 C388 1.368 . S
C404 C400 1.368 . S
C404 C403 1.523 . S
H405 C380 0.950 . S
H406 C382 0.950 . S
H407 C383 0.949 . S
H408 C385 0.950 . S
H409 C387 0.950 . S
C410 C411 1.349 . S
C410 C412 1.327 . S
C410 H435 0.950 . S
C411 C410 1.349 . S
C411 C427 1.349 . S
C412 C410 1.327 . S
C412 C431 1.429 . S
C412 H436 0.950 . S
C413 C430 1.574 . S
C413 C432 1.368 . S
C413 H437 0.949 . S
H414 C418 0.949 . S
C415 C416 1.349 . S
C415 C417 1.327 . S
C415 H438 0.950 . S
C416 C415 1.349 . S
C416 C428 1.349 . S
C417 C415 1.327 . S
C417 C433 1.429 . S
C417 H439 0.950 . S
C418 H414 0.949 . S
C418 C426 1.574 . S
C418 C434 1.368 . S
H419 C427 0.950 . S
H420 C425 0.950 . S
H421 C426 0.949 . S
H422 C428 0.950 . S
H423 C429 0.950 . S
H424 C430 0.949 . S
C425 H420 0.950 . S
C425 C427 1.327 . S
C425 C431 1.429 . S
C426 C418 1.574 . S
C426 H421 0.949 . S
C426 C432 1.368 . S
C427 C411 1.349 . S
C427 H419 0.950 . S
C427 C425 1.327 . S
C428 C416 1.349 . S
C428 H422 0.950 . S
C428 C429 1.327 . S
C429 H423 0.950 . S
C429 C428 1.327 . S
C429 C433 1.429 . S
C430 C413 1.574 . S
C430 H424 0.949 . S
C430 C434 1.368 . S
C431 C412 1.429 . S
C431 C425 1.429 . S
C431 C432 1.523 . S
C432 C413 1.368 . S
C432 C426 1.368 . S
C432 C431 1.523 . S
C433 C417 1.429 . S
C433 C429 1.429 . S
C433 C434 1.523 . S
C434 C418 1.368 . S
C434 C430 1.368 . S
C434 C433 1.523 . S
H435 C410 0.950 . S
H436 C412 0.950 . S
H437 C413 0.949 . S
H438 C415 0.950 . S
H439 C417 0.950 . S
C440 C441 1.349 . S
C440 C442 1.327 . S
C440 H465 0.950 . S
C441 C440 1.349 . S
C441 C457 1.349 1_565 S
C442 C440 1.327 . S
C442 C461 1.429 . S
C442 H466 0.950 . S
C443 C460 1.574 . S
C443 C462 1.368 1_545 S
C443 H467 0.949 . S
H444 C448 0.949 . S
C445 C446 1.349 1_545 S
C445 C447 1.327 . S
C445 H468 0.950 . S
C446 C445 1.349 1_565 S
C446 C458 1.349 . S
C447 C445 1.327 . S
C447 C463 1.429 1_545 S
C447 H469 0.950 . S
C448 H444 0.949 . S
C448 C456 1.574 . S
C448 C464 1.368 . S
H449 C457 0.950 . S
H450 C455 0.950 . S
H451 C456 0.949 . S
H452 C458 0.950 . S
H453 C459 0.950 . S
H454 C460 0.949 . S
C455 H450 0.950 . S
C455 C457 1.327 . S
C455 C461 1.429 1_545 S
C456 C448 1.574 . S
C456 H451 0.949 . S
C456 C462 1.368 . S
C457 C441 1.349 1_545 S
C457 H449 0.950 . S
C457 C455 1.327 . S
C458 C446 1.349 . S
C458 H452 0.950 . S
C458 C459 1.327 . S
C459 H453 0.950 . S
C459 C458 1.327 . S
C459 C463 1.429 . S
C460 C443 1.574 . S
C460 H454 0.949 . S
C460 C464 1.368 1_545 S
C461 C442 1.429 . S
C461 C455 1.429 1_565 S
C461 C462 1.523 . S
C462 C443 1.368 1_565 S
C462 C456 1.368 . S
C462 C461 1.523 . S
C463 C447 1.429 1_565 S
C463 C459 1.429 . S
C463 C464 1.523 . S
C464 C448 1.368 . S
C464 C460 1.368 1_565 S
C464 C463 1.523 . S
H465 C440 0.950 . S
H466 C442 0.950 . S
H467 C443 0.949 . S
H468 C445 0.950 . S
H469 C447 0.950 . S
C470 C471 1.349 . S
C470 C472 1.327 . S
C470 H495 0.950 . S
C471 C470 1.349 . S
C471 C487 1.349 . S
C472 C470 1.327 . S
C472 C491 1.429 . S
C472 H496 0.950 . S
C473 C490 1.574 . S
C473 C492 1.368 . S
C473 H497 0.949 . S
H474 C478 0.949 . S
C475 C476 1.349 . S
C475 C477 1.327 . S
C475 H498 0.950 . S
C476 C475 1.349 . S
C476 C488 1.349 . S
C477 C475 1.327 . S
C477 C493 1.429 . S
C477 H499 0.950 . S
C478 H474 0.949 . S
C478 C486 1.574 . S
C478 C494 1.368 . S
H479 C487 0.950 . S
H480 C485 0.950 . S
H481 C486 0.949 . S
H482 C488 0.950 . S
H483 C489 0.950 . S
H484 C490 0.949 . S
C485 H480 0.950 . S
C485 C487 1.327 . S
C485 C491 1.429 . S
C486 C478 1.574 . S
C486 H481 0.949 . S
C486 C492 1.368 . S
C487 C471 1.349 . S
C487 H479 0.950 . S
C487 C485 1.327 . S
C488 C476 1.349 . S
C488 H482 0.950 . S
C488 C489 1.327 . S
C489 H483 0.950 . S
C489 C488 1.327 . S
C489 C493 1.429 . S
C490 C473 1.574 . S
C490 H484 0.949 . S
C490 C494 1.368 . S
C491 C472 1.429 . S
C491 C485 1.429 . S
C491 C492 1.523 . S
C492 C473 1.368 . S
C492 C486 1.368 . S
C492 C491 1.523 . S
C493 C477 1.429 . S
C493 C489 1.429 . S
C493 C494 1.523 . S
C494 C478 1.368 . S
C494 C490 1.368 . S
C494 C493 1.523 . S
H495 C470 0.950 . S
H496 C472 0.950 . S
H497 C473 0.949 . S
H498 C475 0.950 . S
H499 C477 0.950 . S
C500 C501 1.349 . S
C500 C502 1.327 . S
C500 H525 0.950 . S
C501 C500 1.349 . S
C501 C517 1.349 . S
C502 C500 1.327 . S
C502 C521 1.429 . S
C502 H526 0.950 . S
C503 C520 1.574 . S
C503 C522 1.368 . S
C503 H527 0.949 . S
H504 C508 0.949 . S
C505 C506 1.349 . S
C505 C507 1.327 . S
C505 H528 0.950 . S
C506 C505 1.349 . S
C506 C518 1.349 . S
C507 C505 1.327 . S
C507 C523 1.429 . S
C507 H529 0.950 . S
C508 H504 0.949 . S
C508 C516 1.574 . S
C508 C524 1.368 . S
H509 C517 0.950 . S
H510 C515 0.950 . S
H511 C516 0.949 . S
H512 C518 0.950 . S
H513 C519 0.950 . S
H514 C520 0.949 . S
C515 H510 0.950 . S
C515 C517 1.327 . S
C515 C521 1.429 . S
C516 C508 1.574 . S
C516 H511 0.949 . S
C516 C522 1.368 . S
C517 C501 1.349 . S
C517 H509 0.950 . S
C517 C515 1.327 . S
C518 C506 1.349 . S
C518 H512 0.950 . S
C518 C519 1.327 . S
C519 H513 0.950 . S
C519 C518 1.327 . S
C519 C523 1.429 . S
C520 C503 1.574 . S
C520 H514 0.949 . S
C520 C524 1.368 . S
C521 C502 1.429 . S
C521 C515 1.429 . S
C521 C522 1.523 . S
C522 C503 1.368 . S
C522 C516 1.368 . S
C522 C521 1.523 . S
C523 C507 1.429 . S
C523 C519 1.429 . S
C523 C524 1.523 . S
C524 C508 1.368 . S
C524 C520 1.368 . S
C524 C523 1.523 . S
H525 C500 0.950 . S
H526 C502 0.950 . S
H527 C503 0.949 . S
H528 C505 0.950 . S
H529 C507 0.950 . S
C530 C531 1.349 . S
C530 C532 1.327 . S
C530 H555 0.950 1_565 S
C531 C530 1.349 . S
C531 C547 1.349 . S
C532 C530 1.327 . S
C532 C551 1.429 . S
C532 H556 0.950 . S
C533 C550 1.574 . S
C533 C552 1.368 . S
C533 H557 0.949 . S
H534 C538 0.949 . S
C535 C536 1.349 . S
C535 C537 1.327 . S
C535 H558 0.950 . S
C536 C535 1.349 . S
C536 C548 1.349 . S
C537 C535 1.327 . S
C537 C553 1.429 . S
C537 H559 0.950 . S
C538 H534 0.949 . S
C538 C546 1.574 . S
C538 C554 1.368 . S
H539 C547 0.950 . S
H540 C545 0.950 . S
H541 C546 0.949 . S
H542 C548 0.950 . S
H543 C549 0.950 . S
H544 C550 0.949 . S
C545 H540 0.950 . S
C545 C547 1.327 . S
C545 C551 1.429 . S
C546 C538 1.574 . S
C546 H541 0.949 . S
C546 C552 1.368 . S
C547 C531 1.349 . S
C547 H539 0.950 . S
C547 C545 1.327 . S
C548 C536 1.349 . S
C548 H542 0.950 . S
C548 C549 1.327 . S
C549 H543 0.950 . S
C549 C548 1.327 . S
C549 C553 1.429 . S
C550 C533 1.574 . S
C550 H544 0.949 . S
C550 C554 1.368 . S
C551 C532 1.429 . S
C551 C545 1.429 . S
C551 C552 1.523 . S
C552 C533 1.368 . S
C552 C546 1.368 . S
C552 C551 1.523 . S
C553 C537 1.429 . S
C553 C549 1.429 . S
C553 C554 1.523 . S
C554 C538 1.368 . S
C554 C550 1.368 . S
C554 C553 1.523 . S
H555 C530 0.950 1_545 S
H556 C532 0.950 . S
H557 C533 0.949 . S
H558 C535 0.950 . S
H559 C537 0.950 . S
C560 C561 1.349 . S
C560 C562 1.327 . S
C560 H585 0.950 . S
C561 C560 1.349 . S
C561 C577 1.349 . S
C562 C560 1.327 . S
C562 C581 1.429 . S
C562 H586 0.950 . S
C563 C580 1.574 . S
C563 C582 1.368 . S
C563 H587 0.949 . S
H564 C568 0.949 . S
C565 C566 1.349 . S
C565 C567 1.327 . S
C565 H588 0.950 . S
C566 C565 1.349 . S
C566 C578 1.349 . S
C567 C565 1.327 . S
C567 C583 1.429 . S
C567 H589 0.950 . S
C568 H564 0.949 . S
C568 C576 1.574 . S
C568 C584 1.368 . S
H569 C577 0.950 . S
H570 C575 0.950 . S
H571 C576 0.949 . S
H572 C578 0.950 . S
H573 C579 0.950 . S
H574 C580 0.949 . S
C575 H570 0.950 . S
C575 C577 1.327 . S
C575 C581 1.429 . S
C576 C568 1.574 . S
C576 H571 0.949 . S
C576 C582 1.368 . S
C577 C561 1.349 . S
C577 H569 0.950 . S
C577 C575 1.327 . S
C578 C566 1.349 . S
C578 H572 0.950 . S
C578 C579 1.327 . S
C579 H573 0.950 . S
C579 C578 1.327 . S
C579 C583 1.429 . S
C580 C563 1.574 . S
C580 H574 0.949 . S
C580 C584 1.368 . S
C581 C562 1.429 . S
C581 C575 1.429 . S
C581 C582 1.523 . S
C582 C563 1.368 . S
C582 C576 1.368 . S
C582 C581 1.523 . S
C583 C567 1.429 . S
C583 C579 1.429 . S
C583 C584 1.523 . S
C584 C568 1.368 . S
C584 C580 1.368 . S
C584 C583 1.523 . S
H585 C560 0.950 . S
H586 C562 0.950 . S
H587 C563 0.949 . S
H588 C565 0.950 . S
H589 C567 0.950 . S
C590 C591 1.349 . S
C590 C592 1.327 . S
C590 H615 0.950 . S
C591 C590 1.349 . S
C591 C607 1.349 . S
C592 C590 1.327 . S
C592 C611 1.429 . S
C592 H616 0.950 . S
C593 C610 1.574 . S
C593 C612 1.368 . S
C593 H617 0.949 . S
H594 C598 0.949 . S
C595 C596 1.349 . S
C595 C597 1.327 . S
C595 H618 0.950 . S
C596 C595 1.349 . S
C596 C608 1.349 . S
C597 C595 1.327 . S
C597 C613 1.429 . S
C597 H619 0.950 . S
C598 H594 0.949 . S
C598 C606 1.574 . S
C598 C614 1.368 . S
H599 C607 0.950 . S
H600 C605 0.950 . S
H601 C606 0.949 . S
H602 C608 0.950 . S
H603 C609 0.950 . S
H604 C610 0.949 . S
C605 H600 0.950 . S
C605 C607 1.327 . S
C605 C611 1.429 . S
C606 C598 1.574 . S
C606 H601 0.949 . S
C606 C612 1.368 . S
C607 C591 1.349 . S
C607 H599 0.950 . S
C607 C605 1.327 . S
C608 C596 1.349 . S
C608 H602 0.950 . S
C608 C609 1.327 . S
C609 H603 0.950 . S
C609 C608 1.327 . S
C609 C613 1.429 . S
C610 C593 1.574 . S
C610 H604 0.949 . S
C610 C614 1.368 . S
C611 C592 1.429 . S
C611 C605 1.429 . S
C611 C612 1.523 . S
C612 C593 1.368 . S
C612 C606 1.368 . S
C612 C611 1.523 . S
C613 C597 1.429 . S
C613 C609 1.429 . S
C613 C614 1.523 . S
C614 C598 1.368 . S
C614 C610 1.368 . S
C614 C613 1.523 . S
H615 C590 0.950 . S
H616 C592 0.950 . S
H617 C593 0.949 . S
H618 C595 0.950 . S
H619 C597 0.950 . S
C620 C621 1.349 . S
C620 C622 1.327 . S
C620 H645 0.950 . S
C621 C620 1.349 . S
C621 C637 1.349 1_545 S
C622 C620 1.327 . S
C622 C641 1.429 . S
C622 H646 0.950 . S
C623 C640 1.574 . S
C623 C642 1.368 1_565 S
C623 H647 0.949 . S
H624 C628 0.949 . S
C625 C626 1.349 . S
C625 C627 1.327 . S
C625 H648 0.950 1_545 S
C626 C625 1.349 . S
C626 C638 1.349 . S
C627 C625 1.327 . S
C627 C643 1.429 . S
C627 H649 0.950 1_545 S
C628 H624 0.949 . S
C628 C636 1.574 . S
C628 C644 1.368 . S
H629 C637 0.950 . S
H630 C635 0.950 . S
H631 C636 0.949 . S
H632 C638 0.950 . S
H633 C639 0.950 . S
H634 C640 0.949 . S
C635 H630 0.950 . S
C635 C637 1.327 . S
C635 C641 1.429 1_565 S
C636 C628 1.574 . S
C636 H631 0.949 . S
C636 C642 1.368 . S
C637 C621 1.349 1_565 S
C637 H629 0.950 . S
C637 C635 1.327 . S
C638 C626 1.349 . S
C638 H632 0.950 . S
C638 C639 1.327 . S
C639 H633 0.950 . S
C639 C638 1.327 . S
C639 C643 1.429 . S
C640 C623 1.574 . S
C640 H634 0.949 . S
C640 C644 1.368 1_565 S
C641 C622 1.429 . S
C641 C635 1.429 1_545 S
C641 C642 1.523 . S
C642 C623 1.368 1_545 S
C642 C636 1.368 . S
C642 C641 1.523 . S
C643 C627 1.429 . S
C643 C639 1.429 . S
C643 C644 1.523 . S
C644 C628 1.368 . S
C644 C640 1.368 1_545 S
C644 C643 1.523 . S
H645 C620 0.950 . S
H646 C622 0.950 . S
H647 C623 0.949 . S
H648 C625 0.950 1_565 S
H649 C627 0.950 1_565 S
C650 C651 1.349 . S
C650 C652 1.327 . S
C650 H675 0.950 . S
C651 C650 1.349 . S
C651 C667 1.349 . S
C652 C650 1.327 . S
C652 C671 1.429 . S
C652 H676 0.950 . S
C653 C670 1.576 . S
C653 C672 1.368 . S
C653 H677 0.949 1_455 S
H654 C658 0.949 . S
C655 C656 1.349 1_655 S
C655 C657 1.327 . S
C655 H678 0.950 . S
C656 C655 1.349 1_455 S
C656 C668 1.349 . S
C657 C655 1.327 . S
C657 C673 1.429 1_655 S
C657 H679 0.950 . S
C658 H654 0.949 . S
C658 C666 1.574 . S
C658 C674 1.368 . S
H659 C667 0.950 1_655 S
H660 C665 0.950 1_655 S
H661 C666 0.949 . S
H662 C668 0.950 . S
H663 C669 0.950 . S
H664 C670 0.939 1_655 S
C665 H660 0.950 1_455 S
C665 C667 1.327 . S
C665 C671 1.429 . S
C666 C658 1.574 . S
C666 H661 0.949 . S
C666 C672 1.368 . S
C667 C651 1.349 . S
C667 H659 0.950 1_455 S
C667 C665 1.327 . S
C668 C656 1.349 . S
C668 H662 0.950 . S
C668 C669 1.327 . S
C669 H663 0.950 . S
C669 C668 1.327 . S
C669 C673 1.429 . S
C670 C653 1.576 . S
C670 H664 0.939 1_455 S
C670 C674 1.378 . S
C671 C652 1.429 . S
C671 C665 1.429 . S
C671 C672 1.523 . S
C672 C653 1.368 . S
C672 C666 1.368 . S
C672 C671 1.523 . S
C673 C657 1.429 1_455 S
C673 C669 1.429 . S
C673 C674 1.523 . S
C674 C658 1.368 . S
C674 C670 1.378 . S
C674 C673 1.523 . S
H675 C650 0.950 . S
H676 C652 0.950 . S
H677 C653 0.949 1_655 S
H678 C655 0.950 . S
H679 C657 0.950 . S
C680 C681 1.349 . S
C680 C682 1.327 . S
C680 H705 0.950 . S
C681 C680 1.349 . S
C681 C697 1.349 1_556 S
C682 C680 1.327 . S
C682 C701 1.429 . S
C682 H706 0.950 . S
C683 C700 1.574 . S
C683 C702 1.368 1_554 S
C683 H707 0.949 . S
H684 C688 0.949 . S
C685 C686 1.349 1_554 S
C685 C687 1.327 . S
C685 H708 0.950 . S
C686 C685 1.349 1_556 S
C686 C698 1.349 . S
C687 C685 1.327 . S
C687 C703 1.429 1_554 S
C687 H709 0.950 . S
C688 H684 0.949 . S
C688 C696 1.574 . S
C688 C704 1.368 . S
H689 C697 0.950 . S
H690 C695 0.950 . S
H691 C696 0.949 . S
H692 C698 0.950 . S
H693 C699 0.950 . S
H694 C700 0.949 . S
C695 H690 0.950 . S
C695 C697 1.327 . S
C695 C701 1.429 1_554 S
C696 C688 1.574 . S
C696 H691 0.949 . S
C696 C702 1.368 . S
C697 C681 1.349 1_554 S
C697 H689 0.950 . S
C697 C695 1.327 . S
C698 C686 1.349 . S
C698 H692 0.950 . S
C698 C699 1.327 . S
C699 H693 0.950 . S
C699 C698 1.327 . S
C699 C703 1.429 . S
C700 C683 1.574 . S
C700 H694 0.949 . S
C700 C704 1.368 1_554 S
C701 C682 1.429 . S
C701 C695 1.429 1_556 S
C701 C702 1.523 . S
C702 C683 1.368 1_556 S
C702 C696 1.368 . S
C702 C701 1.523 . S
C703 C687 1.429 1_556 S
C703 C699 1.429 . S
C703 C704 1.523 . S
C704 C688 1.368 . S
C704 C700 1.368 1_556 S
C704 C703 1.523 . S
H705 C680 0.950 . S
H706 C682 0.950 . S
H707 C683 0.949 . S
H708 C685 0.950 . S
H709 C687 0.950 . S
C710 C711 1.349 . S
C710 C712 1.327 . S
C710 H735 0.950 . S
C711 C710 1.349 . S
C711 C727 1.349 . S
C712 C710 1.327 . S
C712 C731 1.429 . S
C712 H736 0.950 . S
C713 C730 1.574 . S
C713 C732 1.368 . S
C713 H737 0.949 . S
H714 C718 0.949 . S
C715 C716 1.349 . S
C715 C717 1.327 . S
C715 H738 0.950 . S
C716 C715 1.349 . S
C716 C728 1.349 . S
C717 C715 1.327 . S
C717 C733 1.429 . S
C717 H739 0.950 . S
C718 H714 0.949 . S
C718 C726 1.574 . S
C718 C734 1.368 . S
H719 C727 0.950 . S
H720 C725 0.950 . S
H721 C726 0.949 . S
H722 C728 0.950 . S
H723 C729 0.950 . S
H724 C730 0.949 . S
C725 H720 0.950 . S
C725 C727 1.327 . S
C725 C731 1.429 . S
C726 C718 1.574 . S
C726 H721 0.949 . S
C726 C732 1.368 . S
C727 C711 1.349 . S
C727 H719 0.950 . S
C727 C725 1.327 . S
C728 C716 1.349 . S
C728 H722 0.950 . S
C728 C729 1.327 . S
C729 H723 0.950 . S
C729 C728 1.327 . S
C729 C733 1.429 . S
C730 C713 1.574 . S
C730 H724 0.949 . S
C730 C734 1.368 . S
C731 C712 1.429 . S
C731 C725 1.429 . S
C731 C732 1.523 . S
C732 C713 1.368 . S
C732 C726 1.368 . S
C732 C731 1.523 . S
C733 C717 1.429 . S
C733 C729 1.429 . S
C733 C734 1.523 . S
C734 C718 1.368 . S
C734 C730 1.368 . S
C734 C733 1.523 . S
H735 C710 0.950 . S
H736 C712 0.950 . S
H737 C713 0.949 . S
H738 C715 0.950 . S
H739 C717 0.950 . S
C740 C741 1.349 . S
C740 C742 1.327 . S
C740 H765 0.950 . S
C741 C740 1.349 . S
C741 C757 1.349 . S
C742 C740 1.327 . S
C742 C761 1.429 . S
C742 H766 0.950 . S
C743 C760 1.574 . S
C743 C762 1.368 . S
C743 H767 0.949 . S
H744 C748 0.949 . S
C745 C746 1.349 . S
C745 C747 1.327 . S
C745 H768 0.950 . S
C746 C745 1.349 . S
C746 C758 1.349 . S
C747 C745 1.327 . S
C747 C763 1.429 . S
C747 H769 0.950 . S
C748 H744 0.949 . S
C748 C756 1.574 . S
C748 C764 1.368 . S
H749 C757 0.950 . S
H750 C755 0.950 . S
H751 C756 0.949 . S
H752 C758 0.950 . S
H753 C759 0.950 . S
H754 C760 0.949 . S
C755 H750 0.950 . S
C755 C757 1.327 . S
C755 C761 1.429 . S
C756 C748 1.574 . S
C756 H751 0.949 . S
C756 C762 1.368 . S
C757 C741 1.349 . S
C757 H749 0.950 . S
C757 C755 1.327 . S
C758 C746 1.349 . S
C758 H752 0.950 . S
C758 C759 1.327 . S
C759 H753 0.950 . S
C759 C758 1.327 . S
C759 C763 1.429 . S
C760 C743 1.574 . S
C760 H754 0.949 . S
C760 C764 1.368 . S
C761 C742 1.429 . S
C761 C755 1.429 . S
C761 C762 1.523 . S
C762 C743 1.368 . S
C762 C756 1.368 . S
C762 C761 1.523 . S
C763 C747 1.429 . S
C763 C759 1.429 . S
C763 C764 1.523 . S
C764 C748 1.368 . S
C764 C760 1.368 . S
C764 C763 1.523 . S
H765 C740 0.950 . S
H766 C742 0.950 . S
H767 C743 0.949 . S
H768 C745 0.950 . S
H769 C747 0.950 . S
C770 C771 1.349 . S
C770 C772 1.327 . S
C770 H795 0.950 . S
C771 C770 1.349 . S
C771 C787 1.349 . S
C772 C770 1.327 . S
C772 C791 1.429 . S
C772 H796 0.950 . S
C773 C790 1.574 . S
C773 C792 1.368 . S
C773 H797 0.949 . S
H774 C778 0.949 . S
C775 C776 1.349 . S
C775 C777 1.327 . S
C775 H798 0.950 . S
C776 C775 1.349 . S
C776 C788 1.349 . S
C777 C775 1.327 . S
C777 C793 1.429 . S
C777 H799 0.950 . S
C778 H774 0.949 . S
C778 C786 1.574 . S
C778 C794 1.368 . S
H779 C787 0.950 . S
H780 C785 0.950 . S
H781 C786 0.949 . S
H782 C788 0.950 . S
H783 C789 0.950 . S
H784 C790 0.949 . S
C785 H780 0.950 . S
C785 C787 1.327 . S
C785 C791 1.429 . S
C786 C778 1.574 . S
C786 H781 0.949 . S
C786 C792 1.368 . S
C787 C771 1.349 . S
C787 H779 0.950 . S
C787 C785 1.327 . S
C788 C776 1.349 . S
C788 H782 0.950 . S
C788 C789 1.327 . S
C789 H783 0.950 . S
C789 C788 1.327 . S
C789 C793 1.429 . S
C790 C773 1.574 . S
C790 H784 0.949 . S
C790 C794 1.368 . S
C791 C772 1.429 . S
C791 C785 1.429 . S
C791 C792 1.523 . S
C792 C773 1.368 . S
C792 C786 1.368 . S
C792 C791 1.523 . S
C793 C777 1.429 . S
C793 C789 1.429 . S
C793 C794 1.523 . S
C794 C778 1.368 . S
C794 C790 1.368 . S
C794 C793 1.523 . S
H795 C770 0.950 . S
H796 C772 0.950 . S
H797 C773 0.949 . S
H798 C775 0.950 . S
H799 C777 0.950 . S
C800 C801 1.349 . S
C800 C802 1.327 . S
C800 H825 0.950 . S
C801 C800 1.349 . S
C801 C817 1.349 . S
C802 C800 1.327 . S
C802 C821 1.429 . S
C802 H826 0.950 . S
C803 C820 1.574 . S
C803 C822 1.368 . S
C803 H827 0.949 . S
H804 C808 0.949 . S
C805 C806 1.349 . S
C805 C807 1.327 . S
C805 H828 0.950 . S
C806 C805 1.349 . S
C806 C818 1.349 . S
C807 C805 1.327 . S
C807 C823 1.429 . S
C807 H829 0.950 . S
C808 H804 0.949 . S
C808 C816 1.574 . S
C808 C824 1.368 . S
H809 C817 0.950 . S
H810 C815 0.950 . S
H811 C816 0.949 . S
H812 C818 0.950 . S
H813 C819 0.950 . S
H814 C820 0.949 . S
C815 H810 0.950 . S
C815 C817 1.327 . S
C815 C821 1.429 . S
C816 C808 1.574 . S
C816 H811 0.949 . S
C816 C822 1.368 . S
C817 C801 1.349 . S
C817 H809 0.950 . S
C817 C815 1.327 . S
C818 C806 1.349 . S
C818 H812 0.950 . S
C818 C819 1.327 . S
C819 H813 0.950 . S
C819 C818 1.327 . S
C819 C823 1.429 . S
C820 C803 1.574 . S
C820 H814 0.949 . S
C820 C824 1.368 . S
C821 C802 1.429 . S
C821 C815 1.429 . S
C821 C822 1.523 . S
C822 C803 1.368 . S
C822 C816 1.368 . S
C822 C821 1.523 . S
C823 C807 1.429 . S
C823 C819 1.429 . S
C823 C824 1.523 . S
C824 C808 1.368 . S
C824 C820 1.368 . S
C824 C823 1.523 . S
H825 C800 0.950 . S
H826 C802 0.950 . S
H827 C803 0.949 . S
H828 C805 0.950 . S
H829 C807 0.950 . S
C830 C831 1.349 . S
C830 C832 1.327 . S
C830 H855 0.950 . S
C831 C830 1.349 . S
C831 C847 1.349 . S
C832 C830 1.327 . S
C832 C851 1.429 . S
C832 H856 0.950 . S
C833 C850 1.574 . S
C833 C852 1.368 . S
C833 H857 0.949 . S
H834 C838 0.949 . S
C835 C836 1.349 . S
C835 C837 1.327 . S
C835 H858 0.950 . S
C836 C835 1.349 . S
C836 C848 1.349 . S
C837 C835 1.327 . S
C837 C853 1.429 . S
C837 H859 0.950 . S
C838 H834 0.949 . S
C838 C846 1.574 . S
C838 C854 1.368 . S
H839 C847 0.950 . S
H840 C845 0.950 . S
H841 C846 0.949 . S
H842 C848 0.950 . S
H843 C849 0.950 . S
H844 C850 0.949 . S
C845 H840 0.950 . S
C845 C847 1.327 . S
C845 C851 1.429 . S
C846 C838 1.574 . S
C846 H841 0.949 . S
C846 C852 1.368 . S
C847 C831 1.349 . S
C847 H839 0.950 . S
C847 C845 1.327 . S
C848 C836 1.349 . S
C848 H842 0.950 . S
C848 C849 1.327 . S
C849 H843 0.950 . S
C849 C848 1.327 . S
C849 C853 1.429 . S
C850 C833 1.574 . S
C850 H844 0.949 . S
C850 C854 1.368 . S
C851 C832 1.429 . S
C851 C845 1.429 . S
C851 C852 1.523 . S
C852 C833 1.368 . S
C852 C846 1.368 . S
C852 C851 1.523 . S
C853 C837 1.429 . S
C853 C849 1.429 . S
C853 C854 1.523 . S
C854 C838 1.368 . S
C854 C850 1.368 . S
C854 C853 1.523 . S
H855 C830 0.950 . S
H856 C832 0.950 . S
H857 C833 0.949 . S
H858 C835 0.950 . S
H859 C837 0.950 . S
C860 C861 1.349 . S
C860 C862 1.327 . S
C860 H885 0.950 . S
C861 C860 1.349 . S
C861 C877 1.349 . S
C862 C860 1.327 . S
C862 C881 1.429 . S
C862 H886 0.950 . S
C863 C880 1.574 . S
C863 C882 1.368 . S
C863 H887 0.949 . S
H864 C868 0.949 . S
C865 C866 1.349 . S
C865 C867 1.327 . S
C865 H888 0.950 . S
C866 C865 1.349 . S
C866 C878 1.349 . S
C867 C865 1.327 . S
C867 C883 1.429 . S
C867 H889 0.950 . S
C868 H864 0.949 . S
C868 C876 1.574 . S
C868 C884 1.368 . S
H869 C877 0.950 . S
H870 C875 0.950 . S
H871 C876 0.949 . S
H872 C878 0.950 . S
H873 C879 0.950 . S
H874 C880 0.949 . S
C875 H870 0.950 . S
C875 C877 1.327 . S
C875 C881 1.429 . S
C876 C868 1.574 . S
C876 H871 0.949 . S
C876 C882 1.368 . S
C877 C861 1.349 . S
C877 H869 0.950 . S
C877 C875 1.327 . S
C878 C866 1.349 . S
C878 H872 0.950 . S
C878 C879 1.327 . S
C879 H873 0.950 . S
C879 C878 1.327 . S
C879 C883 1.429 . S
C880 C863 1.574 . S
C880 H874 0.949 . S
C880 C884 1.368 . S
C881 C862 1.429 . S
C881 C875 1.429 . S
C881 C882 1.523 . S
C882 C863 1.368 . S
C882 C876 1.368 . S
C882 C881 1.523 . S
C883 C867 1.429 . S
C883 C879 1.429 . S
C883 C884 1.523 . S
C884 C868 1.368 . S
C884 C880 1.368 . S
C884 C883 1.523 . S
H885 C860 0.950 . S
H886 C862 0.950 . S
H887 C863 0.949 . S
H888 C865 0.950 . S
H889 C867 0.950 . S
C890 C891 1.349 . S
C890 C892 1.327 . S
C890 H915 0.950 . S
C891 C890 1.349 . S
C891 C907 1.349 . S
C892 C890 1.327 . S
C892 C911 1.429 . S
C892 H916 0.950 . S
C893 C910 1.574 . S
C893 C912 1.368 . S
C893 H917 0.949 . S
H894 C898 0.949 . S
C895 C896 1.349 . S
C895 C897 1.327 . S
C895 H918 0.950 . S
C896 C895 1.349 . S
C896 C908 1.349 . S
C897 C895 1.327 . S
C897 C913 1.429 . S
C897 H919 0.950 . S
C898 H894 0.949 . S
C898 C906 1.574 . S
C898 C914 1.368 . S
H899 C907 0.950 . S
H900 C905 0.950 . S
H901 C906 0.949 . S
H902 C908 0.950 . S
H903 C909 0.950 . S
H904 C910 0.949 . S
C905 H900 0.950 . S
C905 C907 1.327 . S
C905 C911 1.429 . S
C906 C898 1.574 . S
C906 H901 0.949 . S
C906 C912 1.368 . S
C907 C891 1.349 . S
C907 H899 0.950 . S
C907 C905 1.327 . S
C908 C896 1.349 . S
C908 H902 0.950 . S
C908 C909 1.327 . S
C909 H903 0.950 . S
C909 C908 1.327 . S
C909 C913 1.429 . S
C910 C893 1.574 . S
C910 H904 0.949 . S
C910 C914 1.368 . S
C911 C892 1.429 . S
C911 C905 1.429 . S
C911 C912 1.523 . S
C912 C893 1.368 . S
C912 C906 1.368 . S
C912 C911 1.523 . S
C913 C897 1.429 . S
C913 C909 1.429 . S
C913 C914 1.523 . S
C914 C898 1.368 . S
C914 C910 1.368 . S
C914 C913 1.523 . S
H915 C890 0.950 . S
H916 C892 0.950 . S
H917 C893 0.949 . S
H918 C895 0.950 . S
H919 C897 0.950 . S
C920 C921 1.349 . S
C920 C922 1.327 . S
C920 H945 0.950 . S
C921 C920 1.349 . S
C921 C937 1.349 . S
C922 C920 1.327 . S
C922 C941 1.429 . S
C922 H946 0.950 . S
C923 C940 1.574 . S
C923 C942 1.368 . S
C923 H947 0.949 . S
H924 C928 0.949 . S
C925 C926 1.349 . S
C925 C927 1.327 . S
C925 H948 0.950 . S
C926 C925 1.349 . S
C926 C938 1.349 . S
C927 C925 1.327 . S
C927 C943 1.429 . S
C927 H949 0.950 . S
C928 H924 0.949 . S
C928 C936 1.574 . S
C928 C944 1.368 . S
H929 C937 0.950 . S
H930 C935 0.950 . S
H931 C936 0.949 . S
H932 C938 0.950 . S
H933 C939 0.950 . S
H934 C940 0.949 . S
C935 H930 0.950 . S
C935 C937 1.327 . S
C935 C941 1.429 . S
C936 C928 1.574 . S
C936 H931 0.949 . S
C936 C942 1.368 . S
C937 C921 1.349 . S
C937 H929 0.950 . S
C937 C935 1.327 . S
C938 C926 1.349 . S
C938 H932 0.950 . S
C938 C939 1.327 . S
C939 H933 0.950 . S
C939 C938 1.327 . S
C939 C943 1.429 . S
C940 C923 1.574 . S
C940 H934 0.949 . S
C940 C944 1.368 . S
C941 C922 1.429 . S
C941 C935 1.429 . S
C941 C942 1.523 . S
C942 C923 1.368 . S
C942 C936 1.368 . S
C942 C941 1.523 . S
C943 C927 1.429 . S
C943 C939 1.429 . S
C943 C944 1.523 . S
C944 C928 1.368 . S
C944 C940 1.368 . S
C944 C943 1.523 . S
H945 C920 0.950 . S
H946 C922 0.950 . S
H947 C923 0.949 . S
H948 C925 0.950 . S
H949 C927 0.950 . S
C950 C951 1.349 1_455 S
C950 C952 1.327 . S
C950 H975 0.950 . S
C951 C950 1.349 1_655 S
C951 C967 1.349 . S
C952 C950 1.327 . S
C952 C971 1.429 1_455 S
C952 H976 0.950 . S
C953 C970 1.574 . S
C953 C972 1.368 . S
C953 H977 0.949 . S
H954 C958 0.949 . S
C955 C956 1.349 . S
C955 C957 1.327 . S
C955 H978 0.950 . S
C956 C955 1.349 . S
C956 C968 1.349 1_655 S
C957 C955 1.327 . S
C957 C973 1.429 . S
C957 H979 0.950 . S
C958 H954 0.949 . S
C958 C966 1.574 . S
C958 C974 1.368 1_455 S
H959 C967 0.950 . S
H960 C965 0.950 . S
H961 C966 0.949 . S
H962 C968 0.950 . S
H963 C969 0.950 . S
H964 C970 0.949 . S
C965 H960 0.950 . S
C965 C967 1.327 . S
C965 C971 1.429 . S
C966 C958 1.574 . S
C966 H961 0.949 . S
C966 C972 1.368 1_455 S
C967 C951 1.349 . S
C967 H959 0.950 . S
C967 C965 1.327 . S
C968 C956 1.349 1_455 S
C968 H962 0.950 . S
C968 C969 1.327 . S
C969 H963 0.950 . S
C969 C968 1.327 . S
C969 C973 1.429 1_455 S
C970 C953 1.574 . S
C970 H964 0.949 . S
C970 C974 1.368 . S
C971 C952 1.429 1_655 S
C971 C965 1.429 . S
C971 C972 1.523 . S
C972 C953 1.368 . S
C972 C966 1.368 1_655 S
C972 C971 1.523 . S
C973 C957 1.429 . S
C973 C969 1.429 1_655 S
C973 C974 1.523 . S
C974 C958 1.368 1_655 S
C974 C970 1.368 . S
C974 C973 1.523 . S
H975 C950 0.950 . S
H976 C952 0.950 . S
H977 C953 0.949 . S
H978 C955 0.950 . S
H979 C957 0.950 . S
C980 C981 1.349 . S
C980 C982 1.327 . S
C980 H1005 0.950 . S
C981 C980 1.349 . S
C981 C997 1.349 . S
C982 C980 1.327 . S
C982 C1001 1.429 . S
C982 H1006 0.950 . S
C983 C1000 1.574 . S
C983 C1002 1.368 . S
C983 H1007 0.949 . S
H984 C988 0.949 . S
C985 C986 1.349 . S
C985 C987 1.327 . S
C985 H1008 0.950 . S
C986 C985 1.349 . S
C986 C998 1.349 . S
C987 C985 1.327 . S
C987 C1003 1.429 . S
C987 H1009 0.950 . S
C988 H984 0.949 . S
C988 C996 1.574 . S
C988 C1004 1.368 . S
H989 C997 0.950 . S
H990 C995 0.950 . S
H991 C996 0.949 . S
H992 C998 0.950 . S
H993 C999 0.950 . S
H994 C1000 0.949 . S
C995 H990 0.950 . S
C995 C997 1.327 . S
C995 C1001 1.429 . S
C996 C988 1.574 . S
C996 H991 0.949 . S
C996 C1002 1.368 . S
C997 C981 1.349 . S
C997 H989 0.950 . S
C997 C995 1.327 . S
C998 C986 1.349 . S
C998 H992 0.950 . S
C998 C999 1.327 . S
C999 H993 0.950 . S
C999 C998 1.327 . S
C999 C1003 1.429 . S
C1000 C983 1.574 . S
C1000 H994 0.949 . S
C1000 C1004 1.368 . S
C1001 C982 1.429 . S
C1001 C995 1.429 . S
C1001 C1002 1.523 . S
C1002 C983 1.368 . S
C1002 C996 1.368 . S
C1002 C1001 1.523 . S
C1003 C987 1.429 . S
C1003 C999 1.429 . S
C1003 C1004 1.523 . S
C1004 C988 1.368 . S
C1004 C1000 1.368 . S
C1004 C1003 1.523 . S
H1005 C980 0.950 . S
H1006 C982 0.950 . S
H1007 C983 0.949 . S
H1008 C985 0.950 . S
H1009 C987 0.950 . S
C1010 C1011 1.349 . S
C1010 C1012 1.327 . S
C1010 H1035 0.950 . S
C1011 C1010 1.349 . S
C1011 C1027 1.349 . S
C1012 C1010 1.327 . S
C1012 C1031 1.429 . S
C1012 H1036 0.950 . S
C1013 C1030 1.574 . S
C1013 C1032 1.368 . S
C1013 H1037 0.949 . S
H1014 C1018 0.949 . S
C1015 C1016 1.349 . S
C1015 C1017 1.327 . S
C1015 H1038 0.950 . S
C1016 C1015 1.349 . S
C1016 C1028 1.349 . S
C1017 C1015 1.327 . S
C1017 C1033 1.429 . S
C1017 H1039 0.950 . S
C1018 H1014 0.949 . S
C1018 C1026 1.574 . S
C1018 C1034 1.368 . S
H1019 C1027 0.950 . S
H1020 C1025 0.950 . S
H1021 C1026 0.949 . S
H1022 C1028 0.950 . S
H1023 C1029 0.950 . S
H1024 C1030 0.949 . S
C1025 H1020 0.950 . S
C1025 C1027 1.327 . S
C1025 C1031 1.429 . S
C1026 C1018 1.574 . S
C1026 H1021 0.949 . S
C1026 C1032 1.368 . S
C1027 C1011 1.349 . S
C1027 H1019 0.950 . S
C1027 C1025 1.327 . S
C1028 C1016 1.349 . S
C1028 H1022 0.950 . S
C1028 C1029 1.327 . S
C1029 H1023 0.950 . S
C1029 C1028 1.327 . S
C1029 C1033 1.429 . S
C1030 C1013 1.574 . S
C1030 H1024 0.949 . S
C1030 C1034 1.368 . S
C1031 C1012 1.429 . S
C1031 C1025 1.429 . S
C1031 C1032 1.523 . S
C1032 C1013 1.368 . S
C1032 C1026 1.368 . S
C1032 C1031 1.523 . S
C1033 C1017 1.429 . S
C1033 C1029 1.429 . S
C1033 C1034 1.523 . S
C1034 C1018 1.368 . S
C1034 C1030 1.368 . S
C1034 C1033 1.523 . S
H1035 C1010 0.950 . S
H1036 C1012 0.950 . S
H1037 C1013 0.949 . S
H1038 C1015 0.950 . S
H1039 C1017 0.950 . S
C1040 C1041 1.349 . S
C1040 C1042 1.327 . S
C1040 H1065 0.950 . S
C1041 C1040 1.349 . S
C1041 C1057 1.349 . S
C1042 C1040 1.327 . S
C1042 C1061 1.429 . S
C1042 H1066 0.950 . S
C1043 C1060 1.574 . S
C1043 C1062 1.368 . S
C1043 H1067 0.949 . S
H1044 C1048 0.949 . S
C1045 C1046 1.349 . S
C1045 C1047 1.327 . S
C1045 H1068 0.950 . S
C1046 C1045 1.349 . S
C1046 C1058 1.349 . S
C1047 C1045 1.327 . S
C1047 C1063 1.429 . S
C1047 H1069 0.950 . S
C1048 H1044 0.949 . S
C1048 C1056 1.574 . S
C1048 C1064 1.368 . S
H1049 C1057 0.950 . S
H1050 C1055 0.950 . S
H1051 C1056 0.949 . S
H1052 C1058 0.950 . S
H1053 C1059 0.950 . S
H1054 C1060 0.949 . S
C1055 H1050 0.950 . S
C1055 C1057 1.327 . S
C1055 C1061 1.429 . S
C1056 C1048 1.574 . S
C1056 H1051 0.949 . S
C1056 C1062 1.368 . S
C1057 C1041 1.349 . S
C1057 H1049 0.950 . S
C1057 C1055 1.327 . S
C1058 C1046 1.349 . S
C1058 H1052 0.950 . S
C1058 C1059 1.327 . S
C1059 H1053 0.950 . S
C1059 C1058 1.327 . S
C1059 C1063 1.429 . S
C1060 C1043 1.574 . S
C1060 H1054 0.949 . S
C1060 C1064 1.368 . S
C1061 C1042 1.429 . S
C1061 C1055 1.429 . S
C1061 C1062 1.523 . S
C1062 C1043 1.368 . S
C1062 C1056 1.368 . S
C1062 C1061 1.523 . S
C1063 C1047 1.429 . S
C1063 C1059 1.429 . S
C1063 C1064 1.523 . S
C1064 C1048 1.368 . S
C1064 C1060 1.368 . S
C1064 C1063 1.523 . S
H1065 C1040 0.950 . S
H1066 C1042 0.950 . S
H1067 C1043 0.949 . S
H1068 C1045 0.950 . S
H1069 C1047 0.950 . S
C1070 C1071 1.349 . S
C1070 C1072 1.327 . S
C1070 H1095 0.950 . S
C1071 C1070 1.349 . S
C1071 C1087 1.349 . S
C1072 C1070 1.327 . S
C1072 C1091 1.429 . S
C1072 H1096 0.950 . S
C1073 C1090 1.574 . S
C1073 C1092 1.368 . S
C1073 H1097 0.949 . S
H1074 C1078 0.949 . S
C1075 C1076 1.349 . S
C1075 C1077 1.327 . S
C1075 H1098 0.950 . S
C1076 C1075 1.349 . S
C1076 C1088 1.349 . S
C1077 C1075 1.327 . S
C1077 C1093 1.429 . S
C1077 H1099 0.950 . S
C1078 H1074 0.949 . S
C1078 C1086 1.574 . S
C1078 C1094 1.368 . S
H1079 C1087 0.950 . S
H1080 C1085 0.950 . S
H1081 C1086 0.949 . S
H1082 C1088 0.950 . S
H1083 C1089 0.950 . S
H1084 C1090 0.949 . S
C1085 H1080 0.950 . S
C1085 C1087 1.327 . S
C1085 C1091 1.429 . S
C1086 C1078 1.574 . S
C1086 H1081 0.949 . S
C1086 C1092 1.368 . S
C1087 C1071 1.349 . S
C1087 H1079 0.950 . S
C1087 C1085 1.327 . S
C1088 C1076 1.349 . S
C1088 H1082 0.950 . S
C1088 C1089 1.327 . S
C1089 H1083 0.950 . S
C1089 C1088 1.327 . S
C1089 C1093 1.429 . S
C1090 C1073 1.574 . S
C1090 H1084 0.949 . S
C1090 C1094 1.368 . S
C1091 C1072 1.429 . S
C1091 C1085 1.429 . S
C1091 C1092 1.523 . S
C1092 C1073 1.368 . S
C1092 C1086 1.368 . S
C1092 C1091 1.523 . S
C1093 C1077 1.429 . S
C1093 C1089 1.429 . S
C1093 C1094 1.523 . S
C1094 C1078 1.368 . S
C1094 C1090 1.368 . S
C1094 C1093 1.523 . S
H1095 C1070 0.950 . S
H1096 C1072 0.950 . S
H1097 C1073 0.949 . S
H1098 C1075 0.950 . S
H1099 C1077 0.950 . S
C1100 C1101 1.349 1_565 S
C1100 C1102 1.327 . S
C1100 H1125 0.950 . S
C1101 C1100 1.349 1_545 S
C1101 C1117 1.349 . S
C1102 C1100 1.327 . S
C1102 C1121 1.429 1_565 S
C1102 H1126 0.950 . S
C1103 C1120 1.574 . S
C1103 C1122 1.368 . S
C1103 H1127 0.949 . S
H1104 C1108 0.949 1_565 S
C1105 C1106 1.349 . S
C1105 C1107 1.327 . S
C1105 H1128 0.950 . S
C1106 C1105 1.349 . S
C1106 C1118 1.349 . S
C1107 C1105 1.327 . S
C1107 C1123 1.429 . S
C1107 H1129 0.950 . S
C1108 H1104 0.949 1_545 S
C1108 C1116 1.574 1_545 S
C1108 C1124 1.368 . S
H1109 C1117 0.950 . S
H1110 C1115 0.950 . S
H1111 C1116 0.949 . S
H1112 C1118 0.950 . S
H1113 C1119 0.950 1_565 S
H1114 C1120 0.949 . S
C1115 H1110 0.950 . S
C1115 C1117 1.327 . S
C1115 C1121 1.429 . S
C1116 C1108 1.574 1_565 S
C1116 H1111 0.949 . S
C1116 C1122 1.368 1_565 S
C1117 C1101 1.349 . S
C1117 H1109 0.950 . S
C1117 C1115 1.327 . S
C1118 C1106 1.349 . S
C1118 H1112 0.950 . S
C1118 C1119 1.327 . S
C1119 H1113 0.950 1_545 S
C1119 C1118 1.327 . S
C1119 C1123 1.429 . S
C1120 C1103 1.574 . S
C1120 H1114 0.949 . S
C1120 C1124 1.368 . S
C1121 C1102 1.429 1_545 S
C1121 C1115 1.429 . S
C1121 C1122 1.523 . S
C1122 C1103 1.368 . S
C1122 C1116 1.368 1_545 S
C1122 C1121 1.523 . S
C1123 C1107 1.429 . S
C1123 C1119 1.429 . S
C1123 C1124 1.523 . S
C1124 C1108 1.368 . S
C1124 C1120 1.368 . S
C1124 C1123 1.523 . S
H1125 C1100 0.950 . S
H1126 C1102 0.950 . S
H1127 C1103 0.949 . S
H1128 C1105 0.950 . S
H1129 C1107 0.950 . S
C1130 C1131 1.346 . S
C1130 C1132 1.326 1_554 S
C1130 H1155 0.953 1_554 S
C1131 C1130 1.346 . S
C1131 C1147 1.349 . S
C1132 C1130 1.326 1_556 S
C1132 C1151 1.397 1_556 S
C1132 H1156 0.985 . S
C1133 C1150 1.574 . S
C1133 C1152 1.368 . S
C1133 H1157 0.949 . S
H1134 C1138 0.949 . S
C1135 C1136 1.349 . S
C1135 C1137 1.327 . S
C1135 H1158 0.950 . S
C1136 C1135 1.349 . S
C1136 C1148 1.349 1_554 S
C1137 C1135 1.327 . S
C1137 C1153 1.429 . S
C1137 H1159 0.950 . S
C1138 H1134 0.949 . S
C1138 C1146 1.574 . S
C1138 C1154 1.368 1_556 S
H1139 C1147 0.950 . S
H1140 C1145 0.950 . S
H1141 C1146 0.949 . S
H1142 C1148 0.950 . S
H1143 C1149 0.950 . S
H1144 C1150 0.949 . S
C1145 H1140 0.950 . S
C1145 C1147 1.327 . S
C1145 C1151 1.429 . S
C1146 C1138 1.574 . S
C1146 H1141 0.949 . S
C1146 C1152 1.368 1_556 S
C1147 C1131 1.349 . S
C1147 H1139 0.950 . S
C1147 C1145 1.327 . S
C1148 C1136 1.349 1_556 S
C1148 H1142 0.950 . S
C1148 C1149 1.327 . S
C1149 H1143 0.950 . S
C1149 C1148 1.327 . S
C1149 C1153 1.429 1_556 S
C1150 C1133 1.574 . S
C1150 H1144 0.949 . S
C1150 C1154 1.368 . S
C1151 C1132 1.397 1_554 S
C1151 C1145 1.429 . S
C1151 C1152 1.523 . S
C1152 C1133 1.368 . S
C1152 C1146 1.368 1_554 S
C1152 C1151 1.523 . S
C1153 C1137 1.429 . S
C1153 C1149 1.429 1_554 S
C1153 C1154 1.523 . S
C1154 C1138 1.368 1_554 S
C1154 C1150 1.368 . S
C1154 C1153 1.523 . S
H1155 C1130 0.953 1_556 S
H1156 C1132 0.985 . S
H1157 C1133 0.949 . S
H1158 C1135 0.950 . S
H1159 C1137 0.950 . S
C1160 C1161 1.349 . S
C1160 C1162 1.327 . S
C1160 H1185 0.950 . S
C1161 C1160 1.349 . S
C1161 C1177 1.349 . S
C1162 C1160 1.327 . S
C1162 C1181 1.429 . S
C1162 H1186 0.950 . S
C1163 C1180 1.574 . S
C1163 C1182 1.368 . S
C1163 H1187 0.949 . S
H1164 C1168 0.949 . S
C1165 C1166 1.349 . S
C1165 C1167 1.327 . S
C1165 H1188 0.950 . S
C1166 C1165 1.349 . S
C1166 C1178 1.349 . S
C1167 C1165 1.327 . S
C1167 C1183 1.429 . S
C1167 H1189 0.950 . S
C1168 H1164 0.949 . S
C1168 C1176 1.574 . S
C1168 C1184 1.368 . S
H1169 C1177 0.950 . S
H1170 C1175 0.950 . S
H1171 C1176 0.949 . S
H1172 C1178 0.950 . S
H1173 C1179 0.950 . S
H1174 C1180 0.949 . S
C1175 H1170 0.950 . S
C1175 C1177 1.327 . S
C1175 C1181 1.429 . S
C1176 C1168 1.574 . S
C1176 H1171 0.949 . S
C1176 C1182 1.368 . S
C1177 C1161 1.349 . S
C1177 H1169 0.950 . S
C1177 C1175 1.327 . S
C1178 C1166 1.349 . S
C1178 H1172 0.950 . S
C1178 C1179 1.327 . S
C1179 H1173 0.950 . S
C1179 C1178 1.327 . S
C1179 C1183 1.429 . S
C1180 C1163 1.574 . S
C1180 H1174 0.949 . S
C1180 C1184 1.368 . S
C1181 C1162 1.429 . S
C1181 C1175 1.429 . S
C1181 C1182 1.523 . S
C1182 C1163 1.368 . S
C1182 C1176 1.368 . S
C1182 C1181 1.523 . S
C1183 C1167 1.429 . S
C1183 C1179 1.429 . S
C1183 C1184 1.523 . S
C1184 C1168 1.368 . S
C1184 C1180 1.368 . S
C1184 C1183 1.523 . S
H1185 C1160 0.950 . S
H1186 C1162 0.950 . S
H1187 C1163 0.949 . S
H1188 C1165 0.950 . S
H1189 C1167 0.950 . S
C1190 C1191 1.349 . S
C1190 C1192 1.327 . S
C1190 H1215 0.950 . S
C1191 C1190 1.349 . S
C1191 C1207 1.349 . S
C1192 C1190 1.327 . S
C1192 C1211 1.429 . S
C1192 H1216 0.950 . S
C1193 C1210 1.574 . S
C1193 C1212 1.368 . S
C1193 H1217 0.949 . S
H1194 C1198 0.949 . S
C1195 C1196 1.349 . S
C1195 C1197 1.327 . S
C1195 H1218 0.950 . S
C1196 C1195 1.349 . S
C1196 C1208 1.349 . S
C1197 C1195 1.327 . S
C1197 C1213 1.429 . S
C1197 H1219 0.950 . S
C1198 H1194 0.949 . S
C1198 C1206 1.574 . S
C1198 C1214 1.368 . S
H1199 C1207 0.950 . S
H1200 C1205 0.950 . S
H1201 C1206 0.949 . S
H1202 C1208 0.950 . S
H1203 C1209 0.950 . S
H1204 C1210 0.949 . S
C1205 H1200 0.950 . S
C1205 C1207 1.327 . S
C1205 C1211 1.429 . S
C1206 C1198 1.574 . S
C1206 H1201 0.949 . S
C1206 C1212 1.368 . S
C1207 C1191 1.349 . S
C1207 H1199 0.950 . S
C1207 C1205 1.327 . S
C1208 C1196 1.349 . S
C1208 H1202 0.950 . S
C1208 C1209 1.327 . S
C1209 H1203 0.950 . S
C1209 C1208 1.327 . S
C1209 C1213 1.429 . S
C1210 C1193 1.574 . S
C1210 H1204 0.949 . S
C1210 C1214 1.368 . S
C1211 C1192 1.429 . S
C1211 C1205 1.429 . S
C1211 C1212 1.523 . S
C1212 C1193 1.368 . S
C1212 C1206 1.368 . S
C1212 C1211 1.523 . S
C1213 C1197 1.429 . S
C1213 C1209 1.429 . S
C1213 C1214 1.523 . S
C1214 C1198 1.368 . S
C1214 C1210 1.368 . S
C1214 C1213 1.523 . S
H1215 C1190 0.950 . S
H1216 C1192 0.950 . S
H1217 C1193 0.949 . S
H1218 C1195 0.950 . S
H1219 C1197 0.950 . S
C1220 C1221 1.349 . S
C1220 C1222 1.327 . S
C1220 H1245 0.950 . S
C1221 C1220 1.349 . S
C1221 C1237 1.349 . S
C1222 C1220 1.327 . S
C1222 C1241 1.429 . S
C1222 H1246 0.950 . S
C1223 C1240 1.574 . S
C1223 C1242 1.368 . S
C1223 H1247 0.949 . S
H1224 C1228 0.949 . S
C1225 C1226 1.349 . S
C1225 C1227 1.327 . S
C1225 H1248 0.950 . S
C1226 C1225 1.349 . S
C1226 C1238 1.349 . S
C1227 C1225 1.327 . S
C1227 C1243 1.429 . S
C1227 H1249 0.950 . S
C1228 H1224 0.949 . S
C1228 C1236 1.574 . S
C1228 C1244 1.368 . S
H1229 C1237 0.950 . S
H1230 C1235 0.950 . S
H1231 C1236 0.949 . S
H1232 C1238 0.950 . S
H1233 C1239 0.950 . S
H1234 C1240 0.949 . S
C1235 H1230 0.950 . S
C1235 C1237 1.327 . S
C1235 C1241 1.429 . S
C1236 C1228 1.574 . S
C1236 H1231 0.949 . S
C1236 C1242 1.368 . S
C1237 C1221 1.349 . S
C1237 H1229 0.950 . S
C1237 C1235 1.327 . S
C1238 C1226 1.349 . S
C1238 H1232 0.950 . S
C1238 C1239 1.327 . S
C1239 H1233 0.950 . S
C1239 C1238 1.327 . S
C1239 C1243 1.429 . S
C1240 C1223 1.574 . S
C1240 H1234 0.949 . S
C1240 C1244 1.368 . S
C1241 C1222 1.429 . S
C1241 C1235 1.429 . S
C1241 C1242 1.523 . S
C1242 C1223 1.368 . S
C1242 C1236 1.368 . S
C1242 C1241 1.523 . S
C1243 C1227 1.429 . S
C1243 C1239 1.429 . S
C1243 C1244 1.523 . S
C1244 C1228 1.368 . S
C1244 C1240 1.368 . S
C1244 C1243 1.523 . S
H1245 C1220 0.950 . S
H1246 C1222 0.950 . S
H1247 C1223 0.949 . S
H1248 C1225 0.950 . S
H1249 C1227 0.950 . S
C1250 C1251 1.349 . S
C1250 C1252 1.327 . S
C1250 H1275 0.950 . S
C1251 C1250 1.349 . S
C1251 C1267 1.349 . S
C1252 C1250 1.327 . S
C1252 C1271 1.429 . S
C1252 H1276 0.950 . S
C1253 C1270 1.574 . S
C1253 C1272 1.368 . S
C1253 H1277 0.949 . S
H1254 C1258 0.949 . S
C1255 C1256 1.349 . S
C1255 C1257 1.327 . S
C1255 H1278 0.950 . S
C1256 C1255 1.349 . S
C1256 C1268 1.349 . S
C1257 C1255 1.327 . S
C1257 C1273 1.429 . S
C1257 H1279 0.950 . S
C1258 H1254 0.949 . S
C1258 C1266 1.574 . S
C1258 C1274 1.368 . S
H1259 C1267 0.950 . S
H1260 C1265 0.950 . S
H1261 C1266 0.949 . S
H1262 C1268 0.950 . S
H1263 C1269 0.950 . S
H1264 C1270 0.949 . S
C1265 H1260 0.950 . S
C1265 C1267 1.327 . S
C1265 C1271 1.429 . S
C1266 C1258 1.574 . S
C1266 H1261 0.949 . S
C1266 C1272 1.368 . S
C1267 C1251 1.349 . S
C1267 H1259 0.950 . S
C1267 C1265 1.327 . S
C1268 C1256 1.349 . S
C1268 H1262 0.950 . S
C1268 C1269 1.327 . S
C1269 H1263 0.950 . S
C1269 C1268 1.327 . S
C1269 C1273 1.429 . S
C1270 C1253 1.574 . S
C1270 H1264 0.949 . S
C1270 C1274 1.368 . S
C1271 C1252 1.429 . S
C1271 C1265 1.429 . S
C1271 C1272 1.523 . S
C1272 C1253 1.368 . S
C1272 C1266 1.368 . S
C1272 C1271 1.523 . S
C1273 C1257 1.429 . S
C1273 C1269 1.429 . S
C1273 C1274 1.523 . S
C1274 C1258 1.368 . S
C1274 C1270 1.368 . S
C1274 C1273 1.523 . S
H1275 C1250 0.950 . S
H1276 C1252 0.950 . S
H1277 C1253 0.949 . S
H1278 C1255 0.950 . S
H1279 C1257 0.950 . S
C1280 C1281 1.349 . S
C1280 C1282 1.327 . S
C1280 H1305 0.950 . S
C1281 C1280 1.349 . S
C1281 C1297 1.349 . S
C1282 C1280 1.327 . S
C1282 C1301 1.429 . S
C1282 H1306 0.950 . S
C1283 C1300 1.574 . S
C1283 C1302 1.368 . S
C1283 H1307 0.949 . S
H1284 C1288 0.949 . S
C1285 C1286 1.349 . S
C1285 C1287 1.327 . S
C1285 H1308 0.950 . S
C1286 C1285 1.349 . S
C1286 C1298 1.349 . S
C1287 C1285 1.327 . S
C1287 C1303 1.429 . S
C1287 H1309 0.950 . S
C1288 H1284 0.949 . S
C1288 C1296 1.574 . S
C1288 C1304 1.368 . S
H1289 C1297 0.950 . S
H1290 C1295 0.950 . S
H1291 C1296 0.949 . S
H1292 C1298 0.950 . S
H1293 C1299 0.950 . S
H1294 C1300 0.949 . S
C1295 H1290 0.950 . S
C1295 C1297 1.327 . S
C1295 C1301 1.429 . S
C1296 C1288 1.574 . S
C1296 H1291 0.949 . S
C1296 C1302 1.368 . S
C1297 C1281 1.349 . S
C1297 H1289 0.950 . S
C1297 C1295 1.327 . S
C1298 C1286 1.349 . S
C1298 H1292 0.950 . S
C1298 C1299 1.327 . S
C1299 H1293 0.950 . S
C1299 C1298 1.327 . S
C1299 C1303 1.429 . S
C1300 C1283 1.574 . S
C1300 H1294 0.949 . S
C1300 C1304 1.368 . S
C1301 C1282 1.429 . S
C1301 C1295 1.429 . S
C1301 C1302 1.523 . S
C1302 C1283 1.368 . S
C1302 C1296 1.368 . S
C1302 C1301 1.523 . S
C1303 C1287 1.429 . S
C1303 C1299 1.429 . S
C1303 C1304 1.523 . S
C1304 C1288 1.368 . S
C1304 C1300 1.368 . S
C1304 C1303 1.523 . S
H1305 C1280 0.950 . S
H1306 C1282 0.950 . S
H1307 C1283 0.949 . S
H1308 C1285 0.950 . S
H1309 C1287 0.950 . S
C1310 C1311 1.349 . S
C1310 C1312 1.327 . S
C1310 H1335 0.950 . S
C1311 C1310 1.349 . S
C1311 C1327 1.349 . S
C1312 C1310 1.327 . S
C1312 C1331 1.429 . S
C1312 H1336 0.950 . S
C1313 C1330 1.574 . S
C1313 C1332 1.368 . S
C1313 H1337 0.949 . S
H1314 C1318 0.949 . S
C1315 C1316 1.349 . S
C1315 C1317 1.327 . S
C1315 H1338 0.950 . S
C1316 C1315 1.349 . S
C1316 C1328 1.349 . S
C1317 C1315 1.327 . S
C1317 C1333 1.429 . S
C1317 H1339 0.950 . S
C1318 H1314 0.949 . S
C1318 C1326 1.574 . S
C1318 C1334 1.368 . S
H1319 C1327 0.950 . S
H1320 C1325 0.950 . S
H1321 C1326 0.949 . S
H1322 C1328 0.950 . S
H1323 C1329 0.950 . S
H1324 C1330 0.949 . S
C1325 H1320 0.950 . S
C1325 C1327 1.327 . S
C1325 C1331 1.429 . S
C1326 C1318 1.574 . S
C1326 H1321 0.949 . S
C1326 C1332 1.368 . S
C1327 C1311 1.349 . S
C1327 H1319 0.950 . S
C1327 C1325 1.327 . S
C1328 C1316 1.349 . S
C1328 H1322 0.950 . S
C1328 C1329 1.327 . S
C1329 H1323 0.950 . S
C1329 C1328 1.327 . S
C1329 C1333 1.429 . S
C1330 C1313 1.574 . S
C1330 H1324 0.949 . S
C1330 C1334 1.368 . S
C1331 C1312 1.429 . S
C1331 C1325 1.429 . S
C1331 C1332 1.523 . S
C1332 C1313 1.368 . S
C1332 C1326 1.368 . S
C1332 C1331 1.523 . S
C1333 C1317 1.429 . S
C1333 C1329 1.429 . S
C1333 C1334 1.523 . S
C1334 C1318 1.368 . S
C1334 C1330 1.368 . S
C1334 C1333 1.523 . S
H1335 C1310 0.950 . S
H1336 C1312 0.950 . S
H1337 C1313 0.949 . S
H1338 C1315 0.950 . S
H1339 C1317 0.950 . S
C1340 C1341 1.349 . S
C1340 C1342 1.327 . S
C1340 H1365 0.950 . S
C1341 C1340 1.349 . S
C1341 C1357 1.349 . S
C1342 C1340 1.327 . S
C1342 C1361 1.429 . S
C1342 H1366 0.950 . S
C1343 C1360 1.574 . S
C1343 C1362 1.368 . S
C1343 H1367 0.949 . S
H1344 C1348 0.949 . S
C1345 C1346 1.349 . S
C1345 C1347 1.327 . S
C1345 H1368 0.950 . S
C1346 C1345 1.349 . S
C1346 C1358 1.349 . S
C1347 C1345 1.327 . S
C1347 C1363 1.429 . S
C1347 H1369 0.950 . S
C1348 H1344 0.949 . S
C1348 C1356 1.574 . S
C1348 C1364 1.368 . S
H1349 C1357 0.950 . S
H1350 C1355 0.950 . S
H1351 C1356 0.949 . S
H1352 C1358 0.950 . S
H1353 C1359 0.950 . S
H1354 C1360 0.949 . S
C1355 H1350 0.950 . S
C1355 C1357 1.327 . S
C1355 C1361 1.429 . S
C1356 C1348 1.574 . S
C1356 H1351 0.949 . S
C1356 C1362 1.368 . S
C1357 C1341 1.349 . S
C1357 H1349 0.950 . S
C1357 C1355 1.327 . S
C1358 C1346 1.349 . S
C1358 H1352 0.950 . S
C1358 C1359 1.327 . S
C1359 H1353 0.950 . S
C1359 C1358 1.327 . S
C1359 C1363 1.429 . S
C1360 C1343 1.574 . S
C1360 H1354 0.949 . S
C1360 C1364 1.368 . S
C1361 C1342 1.429 . S
C1361 C1355 1.429 . S
C1361 C1362 1.523 . S
C1362 C1343 1.368 . S
C1362 C1356 1.368 . S
C1362 C1361 1.523 . S
C1363 C1347 1.429 . S
C1363 C1359 1.429 . S
C1363 C1364 1.523 . S
C1364 C1348 1.368 . S
C1364 C1360 1.368 . S
C1364 C1363 1.523 . S
H1365 C1340 0.950 . S
H1366 C1342 0.950 . S
H1367 C1343 0.949 . S
H1368 C1345 0.950 . S
H1369 C1347 0.950 . S
C1370 C1371 1.349 . S
C1370 C1372 1.327 . S
C1370 H1395 0.950 . S
C1371 C1370 1.349 . S
C1371 C1387 1.349 . S
C1372 C1370 1.327 . S
C1372 C1391 1.429 . S
C1372 H1396 0.950 . S
C1373 C1390 1.574 . S
C1373 C1392 1.368 . S
C1373 H1397 0.949 . S
H1374 C1378 0.949 . S
C1375 C1376 1.349 . S
C1375 C1377 1.327 . S
C1375 H1398 0.950 . S
C1376 C1375 1.349 . S
C1376 C1388 1.349 . S
C1377 C1375 1.327 . S
C1377 C1393 1.429 . S
C1377 H1399 0.950 . S
C1378 H1374 0.949 . S
C1378 C1386 1.574 . S
C1378 C1394 1.368 . S
H1379 C1387 0.950 . S
H1380 C1385 0.950 . S
H1381 C1386 0.949 . S
H1382 C1388 0.950 . S
H1383 C1389 0.950 . S
H1384 C1390 0.949 . S
C1385 H1380 0.950 . S
C1385 C1387 1.327 . S
C1385 C1391 1.429 . S
C1386 C1378 1.574 . S
C1386 H1381 0.949 . S
C1386 C1392 1.368 . S
C1387 C1371 1.349 . S
C1387 H1379 0.950 . S
C1387 C1385 1.327 . S
C1388 C1376 1.349 . S
C1388 H1382 0.950 . S
C1388 C1389 1.327 . S
C1389 H1383 0.950 . S
C1389 C1388 1.327 . S
C1389 C1393 1.429 . S
C1390 C1373 1.574 . S
C1390 H1384 0.949 . S
C1390 C1394 1.368 . S
C1391 C1372 1.429 . S
C1391 C1385 1.429 . S
C1391 C1392 1.523 . S
C1392 C1373 1.368 . S
C1392 C1386 1.368 . S
C1392 C1391 1.523 . S
C1393 C1377 1.429 . S
C1393 C1389 1.429 . S
C1393 C1394 1.523 . S
C1394 C1378 1.368 . S
C1394 C1390 1.368 . S
C1394 C1393 1.523 . S
H1395 C1370 0.950 . S
H1396 C1372 0.950 . S
H1397 C1373 0.949 . S
H1398 C1375 0.950 . S
H1399 C1377 0.950 . S
C1400 C1401 1.349 . S
C1400 C1402 1.327 . S
C1400 H1425 0.950 . S
C1401 C1400 1.349 . S
C1401 C1417 1.349 . S
C1402 C1400 1.327 . S
C1402 C1421 1.429 . S
C1402 H1426 0.950 . S
C1403 C1420 1.574 . S
C1403 C1422 1.368 . S
C1403 H1427 0.949 . S
H1404 C1408 0.949 . S
C1405 C1406 1.349 . S
C1405 C1407 1.327 . S
C1405 H1428 0.950 . S
C1406 C1405 1.349 . S
C1406 C1418 1.349 . S
C1407 C1405 1.327 . S
C1407 C1423 1.429 . S
C1407 H1429 0.950 . S
C1408 H1404 0.949 . S
C1408 C1416 1.574 . S
C1408 C1424 1.368 . S
H1409 C1417 0.950 . S
H1410 C1415 0.950 . S
H1411 C1416 0.949 . S
H1412 C1418 0.950 . S
H1413 C1419 0.950 . S
H1414 C1420 0.949 . S
C1415 H1410 0.950 . S
C1415 C1417 1.327 . S
C1415 C1421 1.429 . S
C1416 C1408 1.574 . S
C1416 H1411 0.949 . S
C1416 C1422 1.368 . S
C1417 C1401 1.349 . S
C1417 H1409 0.950 . S
C1417 C1415 1.327 . S
C1418 C1406 1.349 . S
C1418 H1412 0.950 . S
C1418 C1419 1.327 . S
C1419 H1413 0.950 . S
C1419 C1418 1.327 . S
C1419 C1423 1.429 . S
C1420 C1403 1.574 . S
C1420 H1414 0.949 . S
C1420 C1424 1.368 . S
C1421 C1402 1.429 . S
C1421 C1415 1.429 . S
C1421 C1422 1.523 . S
C1422 C1403 1.368 . S
C1422 C1416 1.368 . S
C1422 C1421 1.523 . S
C1423 C1407 1.429 . S
C1423 C1419 1.429 . S
C1423 C1424 1.523 . S
C1424 C1408 1.368 . S
C1424 C1420 1.368 . S
C1424 C1423 1.523 . S
H1425 C1400 0.950 . S
H1426 C1402 0.950 . S
H1427 C1403 0.949 . S
H1428 C1405 0.950 . S
H1429 C1407 0.950 . S
C1430 C1431 1.349 . S
C1430 C1432 1.327 . S
C1430 H1455 0.950 . S
C1431 C1430 1.349 . S
C1431 C1447 1.349 . S
C1432 C1430 1.327 . S
C1432 C1451 1.429 . S
C1432 H1456 0.950 . S
C1433 C1450 1.574 . S
C1433 C1452 1.368 . S
C1433 H1457 0.949 1_554 S
H1434 C1438 0.949 . S
C1435 C1436 1.349 . S
C1435 C1437 1.327 . S
C1435 H1458 0.950 1_554 S
C1436 C1435 1.349 . S
C1436 C1448 1.349 . S
C1437 C1435 1.327 . S
C1437 C1453 1.429 . S
C1437 H1459 0.950 1_554 S
C1438 H1434 0.949 . S
C1438 C1446 1.574 . S
C1438 C1454 1.368 . S
H1439 C1447 0.950 1_556 S
H1440 C1445 0.950 1_556 S
H1441 C1446 0.949 . S
H1442 C1448 0.950 . S
H1443 C1449 0.950 . S
H1444 C1450 0.949 1_556 S
C1445 H1440 0.950 1_554 S
C1445 C1447 1.327 . S
C1445 C1451 1.429 . S
C1446 C1438 1.574 . S
C1446 H1441 0.949 . S
C1446 C1452 1.368 . S
C1447 C1431 1.349 . S
C1447 H1439 0.950 1_554 S
C1447 C1445 1.327 . S
C1448 C1436 1.349 . S
C1448 H1442 0.950 . S
C1448 C1449 1.327 . S
C1449 H1443 0.950 . S
C1449 C1448 1.327 . S
C1449 C1453 1.429 . S
C1450 C1433 1.574 . S
C1450 H1444 0.949 1_554 S
C1450 C1454 1.368 . S
C1451 C1432 1.429 . S
C1451 C1445 1.429 . S
C1451 C1452 1.523 . S
C1452 C1433 1.368 . S
C1452 C1446 1.368 . S
C1452 C1451 1.523 . S
C1453 C1437 1.429 . S
C1453 C1449 1.429 . S
C1453 C1454 1.523 . S
C1454 C1438 1.368 . S
C1454 C1450 1.368 . S
C1454 C1453 1.523 . S
H1455 C1430 0.950 . S
H1456 C1432 0.950 . S
H1457 C1433 0.949 1_556 S
H1458 C1435 0.950 1_556 S
H1459 C1437 0.950 1_556 S
C1460 C1461 1.349 . S
C1460 C1462 1.327 . S
C1460 H1485 0.950 . S
C1461 C1460 1.349 . S
C1461 C1477 1.349 . S
C1462 C1460 1.327 . S
C1462 C1481 1.429 . S
C1462 H1486 0.950 . S
C1463 C1480 1.574 . S
C1463 C1482 1.368 . S
C1463 H1487 0.949 . S
H1464 C1468 0.949 . S
C1465 C1466 1.349 . S
C1465 C1467 1.327 . S
C1465 H1488 0.950 . S
C1466 C1465 1.349 . S
C1466 C1478 1.349 . S
C1467 C1465 1.327 . S
C1467 C1483 1.429 . S
C1467 H1489 0.950 . S
C1468 H1464 0.949 . S
C1468 C1476 1.574 . S
C1468 C1484 1.368 . S
H1469 C1477 0.950 . S
H1470 C1475 0.950 . S
H1471 C1476 0.949 . S
H1472 C1478 0.950 . S
H1473 C1479 0.950 . S
H1474 C1480 0.949 . S
C1475 H1470 0.950 . S
C1475 C1477 1.327 . S
C1475 C1481 1.429 . S
C1476 C1468 1.574 . S
C1476 H1471 0.949 . S
C1476 C1482 1.368 . S
C1477 C1461 1.349 . S
C1477 H1469 0.950 . S
C1477 C1475 1.327 . S
C1478 C1466 1.349 . S
C1478 H1472 0.950 . S
C1478 C1479 1.327 . S
C1479 H1473 0.950 . S
C1479 C1478 1.327 . S
C1479 C1483 1.429 . S
C1480 C1463 1.574 . S
C1480 H1474 0.949 . S
C1480 C1484 1.368 . S
C1481 C1462 1.429 . S
C1481 C1475 1.429 . S
C1481 C1482 1.523 . S
C1482 C1463 1.368 . S
C1482 C1476 1.368 . S
C1482 C1481 1.523 . S
C1483 C1467 1.429 . S
C1483 C1479 1.429 . S
C1483 C1484 1.523 . S
C1484 C1468 1.368 . S
C1484 C1480 1.368 . S
C1484 C1483 1.523 . S
H1485 C1460 0.950 . S
H1486 C1462 0.950 . S
H1487 C1463 0.949 . S
H1488 C1465 0.950 . S
H1489 C1467 0.950 . S
C1490 C1491 1.349 . S
C1490 C1492 1.327 . S
C1490 H1515 0.950 . S
C1491 C1490 1.349 . S
C1491 C1507 1.349 . S
C1492 C1490 1.327 . S
C1492 C1511 1.429 . S
C1492 H1516 0.950 . S
C1493 C1510 1.574 . S
C1493 C1512 1.368 . S
C1493 H1517 0.949 . S
H1494 C1498 0.949 . S
C1495 C1496 1.349 . S
C1495 C1497 1.327 . S
C1495 H1518 0.950 . S
C1496 C1495 1.349 . S
C1496 C1508 1.349 . S
C1497 C1495 1.327 . S
C1497 C1513 1.429 . S
C1497 H1519 0.950 . S
C1498 H1494 0.949 . S
C1498 C1506 1.574 . S
C1498 C1514 1.368 . S
H1499 C1507 0.950 . S
H1500 C1505 0.950 . S
H1501 C1506 0.949 . S
H1502 C1508 0.950 . S
H1503 C1509 0.950 . S
H1504 C1510 0.949 . S
C1505 H1500 0.950 . S
C1505 C1507 1.327 . S
C1505 C1511 1.429 . S
C1506 C1498 1.574 . S
C1506 H1501 0.949 . S
C1506 C1512 1.368 . S
C1507 C1491 1.349 . S
C1507 H1499 0.950 . S
C1507 C1505 1.327 . S
C1508 C1496 1.349 . S
C1508 H1502 0.950 . S
C1508 C1509 1.327 . S
C1509 H1503 0.950 . S
C1509 C1508 1.327 . S
C1509 C1513 1.429 . S
C1510 C1493 1.574 . S
C1510 H1504 0.949 . S
C1510 C1514 1.368 . S
C1511 C1492 1.429 . S
C1511 C1505 1.429 . S
C1511 C1512 1.523 . S
C1512 C1493 1.368 . S
C1512 C1506 1.368 . S
C1512 C1511 1.523 . S
C1513 C1497 1.429 . S
C1513 C1509 1.429 . S
C1513 C1514 1.523 . S
C1514 C1498 1.368 . S
C1514 C1510 1.368 . S
C1514 C1513 1.523 . S
H1515 C1490 0.950 . S
H1516 C1492 0.950 . S
H1517 C1493 0.949 . S
H1518 C1495 0.950 . S
H1519 C1497 0.950 . S
C1520 C1521 1.349 . S
C1520 C1522 1.327 . S
C1520 H1545 0.950 . S
C1521 C1520 1.349 . S
C1521 C1537 1.349 . S
C1522 C1520 1.327 . S
C1522 C1541 1.429 . S
C1522 H1546 0.950 . S
C1523 C1540 1.574 . S
C1523 C1542 1.368 . S
C1523 H1547 0.949 . S
H1524 C1528 0.949 . S
C1525 C1526 1.349 . S
C1525 C1527 1.327 . S
C1525 H1548 0.950 . S
C1526 C1525 1.349 . S
C1526 C1538 1.349 . S
C1527 C1525 1.327 . S
C1527 C1543 1.429 . S
C1527 H1549 0.950 . S
C1528 H1524 0.949 . S
C1528 C1536 1.574 . S
C1528 C1544 1.368 . S
H1529 C1537 0.950 . S
H1530 C1535 0.950 . S
H1531 C1536 0.949 . S
H1532 C1538 0.950 . S
H1533 C1539 0.950 . S
H1534 C1540 0.949 . S
C1535 H1530 0.950 . S
C1535 C1537 1.327 . S
C1535 C1541 1.429 . S
C1536 C1528 1.574 . S
C1536 H1531 0.949 . S
C1536 C1542 1.368 . S
C1537 C1521 1.349 . S
C1537 H1529 0.950 . S
C1537 C1535 1.327 . S
C1538 C1526 1.349 . S
C1538 H1532 0.950 . S
C1538 C1539 1.327 . S
C1539 H1533 0.950 . S
C1539 C1538 1.327 . S
C1539 C1543 1.429 . S
C1540 C1523 1.574 . S
C1540 H1534 0.949 . S
C1540 C1544 1.368 . S
C1541 C1522 1.429 . S
C1541 C1535 1.429 . S
C1541 C1542 1.523 . S
C1542 C1523 1.368 . S
C1542 C1536 1.368 . S
C1542 C1541 1.523 . S
C1543 C1527 1.429 . S
C1543 C1539 1.429 . S
C1543 C1544 1.523 . S
C1544 C1528 1.368 . S
C1544 C1540 1.368 . S
C1544 C1543 1.523 . S
H1545 C1520 0.950 . S
H1546 C1522 0.950 . S
H1547 C1523 0.949 . S
H1548 C1525 0.950 . S
H1549 C1527 0.950 . S
C1550 C1551 1.349 . S
C1550 C1552 1.327 . S
C1550 H1575 0.950 . S
C1551 C1550 1.349 . S
C1551 C1567 1.349 . S
C1552 C1550 1.327 . S
C1552 C1571 1.429 . S
C1552 H1576 0.950 . S
C1553 C1570 1.574 . S
C1553 C1572 1.368 . S
C1553 H1577 0.949 . S
H1554 C1558 0.949 . S
C1555 C1556 1.349 . S
C1555 C1557 1.327 . S
C1555 H1578 0.950 . S
C1556 C1555 1.349 . S
C1556 C1568 1.349 . S
C1557 C1555 1.327 . S
C1557 C1573 1.429 . S
C1557 H1579 0.950 . S
C1558 H1554 0.949 . S
C1558 C1566 1.574 . S
C1558 C1574 1.368 . S
H1559 C1567 0.950 . S
H1560 C1565 0.950 . S
H1561 C1566 0.949 . S
H1562 C1568 0.950 . S
H1563 C1569 0.950 . S
H1564 C1570 0.949 . S
C1565 H1560 0.950 . S
C1565 C1567 1.327 . S
C1565 C1571 1.429 . S
C1566 C1558 1.574 . S
C1566 H1561 0.949 . S
C1566 C1572 1.368 . S
C1567 C1551 1.349 . S
C1567 H1559 0.950 . S
C1567 C1565 1.327 . S
C1568 C1556 1.349 . S
C1568 H1562 0.950 . S
C1568 C1569 1.327 . S
C1569 H1563 0.950 . S
C1569 C1568 1.327 . S
C1569 C1573 1.429 . S
C1570 C1553 1.574 . S
C1570 H1564 0.949 . S
C1570 C1574 1.368 . S
C1571 C1552 1.429 . S
C1571 C1565 1.429 . S
C1571 C1572 1.523 . S
C1572 C1553 1.368 . S
C1572 C1566 1.368 . S
C1572 C1571 1.523 . S
C1573 C1557 1.429 . S
C1573 C1569 1.429 . S
C1573 C1574 1.523 . S
C1574 C1558 1.368 . S
C1574 C1570 1.368 . S
C1574 C1573 1.523 . S
H1575 C1550 0.950 . S
H1576 C1552 0.950 . S
H1577 C1553 0.949 . S
H1578 C1555 0.950 . S
H1579 C1557 0.950 . S
C1580 C1581 1.349 1_554 S
C1580 C1582 1.327 . S
C1580 H1605 0.950 . S
C1581 C1580 1.349 1_556 S
C1581 C1597 1.349 . S
C1582 C1580 1.327 . S
C1582 C1601 1.429 1_554 S
C1582 H1606 0.950 . S
C1583 C1600 1.574 . S
C1583 C1602 1.368 . S
C1583 H1607 0.949 . S
H1584 C1588 0.949 . S
C1585 C1586 1.349 . S
C1585 C1587 1.327 . S
C1585 H1608 0.950 . S
C1586 C1585 1.349 . S
C1586 C1598 1.349 1_556 S
C1587 C1585 1.327 . S
C1587 C1603 1.429 . S
C1587 H1609 0.950 . S
C1588 H1584 0.949 . S
C1588 C1596 1.574 . S
C1588 C1604 1.368 1_554 S
H1589 C1597 0.950 . S
H1590 C1595 0.950 . S
H1591 C1596 0.949 . S
H1592 C1598 0.950 . S
H1593 C1599 0.950 . S
H1594 C1600 0.949 . S
C1595 H1590 0.950 . S
C1595 C1597 1.327 . S
C1595 C1601 1.429 . S
C1596 C1588 1.574 . S
C1596 H1591 0.949 . S
C1596 C1602 1.368 1_554 S
C1597 C1581 1.349 . S
C1597 H1589 0.950 . S
C1597 C1595 1.327 . S
C1598 C1586 1.349 1_554 S
C1598 H1592 0.950 . S
C1598 C1599 1.327 . S
C1599 H1593 0.950 . S
C1599 C1598 1.327 . S
C1599 C1603 1.429 1_554 S
C1600 C1583 1.574 . S
C1600 H1594 0.949 . S
C1600 C1604 1.368 . S
C1601 C1582 1.429 1_556 S
C1601 C1595 1.429 . S
C1601 C1602 1.523 . S
C1602 C1583 1.368 . S
C1602 C1596 1.368 1_556 S
C1602 C1601 1.523 . S
C1603 C1587 1.429 . S
C1603 C1599 1.429 1_556 S
C1603 C1604 1.523 . S
C1604 C1588 1.368 1_556 S
C1604 C1600 1.368 . S
C1604 C1603 1.523 . S
H1605 C1580 0.950 . S
H1606 C1582 0.950 . S
H1607 C1583 0.949 . S
H1608 C1585 0.950 . S
H1609 C1587 0.950 . S
C1610 C1611 1.349 . S
C1610 C1612 1.327 . S
C1610 H1635 0.950 . S
C1611 C1610 1.349 . S
C1611 C1627 1.349 . S
C1612 C1610 1.327 . S
C1612 C1631 1.429 . S
C1612 H1636 0.950 . S
C1613 C1630 1.574 . S
C1613 C1632 1.368 . S
C1613 H1637 0.949 . S
H1614 C1618 0.949 . S
C1615 C1616 1.349 . S
C1615 C1617 1.327 . S
C1615 H1638 0.950 . S
C1616 C1615 1.349 . S
C1616 C1628 1.349 . S
C1617 C1615 1.327 . S
C1617 C1633 1.429 . S
C1617 H1639 0.950 . S
C1618 H1614 0.949 . S
C1618 C1626 1.574 . S
C1618 C1634 1.368 . S
H1619 C1627 0.950 . S
H1620 C1625 0.950 . S
H1621 C1626 0.949 . S
H1622 C1628 0.950 . S
H1623 C1629 0.950 . S
H1624 C1630 0.949 . S
C1625 H1620 0.950 . S
C1625 C1627 1.327 . S
C1625 C1631 1.429 . S
C1626 C1618 1.574 . S
C1626 H1621 0.949 . S
C1626 C1632 1.368 . S
C1627 C1611 1.349 . S
C1627 H1619 0.950 . S
C1627 C1625 1.327 . S
C1628 C1616 1.349 . S
C1628 H1622 0.950 . S
C1628 C1629 1.327 . S
C1629 H1623 0.950 . S
C1629 C1628 1.327 . S
C1629 C1633 1.429 . S
C1630 C1613 1.574 . S
C1630 H1624 0.949 . S
C1630 C1634 1.368 . S
C1631 C1612 1.429 . S
C1631 C1625 1.429 . S
C1631 C1632 1.523 . S
C1632 C1613 1.368 . S
C1632 C1626 1.368 . S
C1632 C1631 1.523 . S
C1633 C1617 1.429 . S
C1633 C1629 1.429 . S
C1633 C1634 1.523 . S
C1634 C1618 1.368 . S
C1634 C1630 1.368 . S
C1634 C1633 1.523 . S
H1635 C1610 0.950 . S
H1636 C1612 0.950 . S
H1637 C1613 0.949 . S
H1638 C1615 0.950 . S
H1639 C1617 0.950 . S
C1640 C1641 1.349 . S
C1640 C1642 1.327 . S
C1640 H1665 0.950 . S
C1641 C1640 1.349 . S
C1641 C1657 1.349 . S
C1642 C1640 1.327 . S
C1642 C1661 1.429 . S
C1642 H1666 0.950 . S
C1643 C1660 1.574 . S
C1643 C1662 1.368 . S
C1643 H1667 0.949 . S
H1644 C1648 0.949 . S
C1645 C1646 1.349 . S
C1645 C1647 1.327 . S
C1645 H1668 0.950 . S
C1646 C1645 1.349 . S
C1646 C1658 1.349 . S
C1647 C1645 1.327 . S
C1647 C1663 1.429 . S
C1647 H1669 0.950 . S
C1648 H1644 0.949 . S
C1648 C1656 1.574 . S
C1648 C1664 1.368 . S
H1649 C1657 0.950 . S
H1650 C1655 0.950 . S
H1651 C1656 0.949 . S
H1652 C1658 0.950 . S
H1653 C1659 0.950 . S
H1654 C1660 0.949 . S
C1655 H1650 0.950 . S
C1655 C1657 1.327 . S
C1655 C1661 1.429 . S
C1656 C1648 1.574 . S
C1656 H1651 0.949 . S
C1656 C1662 1.368 . S
C1657 C1641 1.349 . S
C1657 H1649 0.950 . S
C1657 C1655 1.327 . S
C1658 C1646 1.349 . S
C1658 H1652 0.950 . S
C1658 C1659 1.327 . S
C1659 H1653 0.950 . S
C1659 C1658 1.327 . S
C1659 C1663 1.429 . S
C1660 C1643 1.574 . S
C1660 H1654 0.949 . S
C1660 C1664 1.368 . S
C1661 C1642 1.429 . S
C1661 C1655 1.429 . S
C1661 C1662 1.523 . S
C1662 C1643 1.368 . S
C1662 C1656 1.368 . S
C1662 C1661 1.523 . S
C1663 C1647 1.429 . S
C1663 C1659 1.429 . S
C1663 C1664 1.523 . S
C1664 C1648 1.368 . S
C1664 C1660 1.368 . S
C1664 C1663 1.523 . S
H1665 C1640 0.950 . S
H1666 C1642 0.950 . S
H1667 C1643 0.949 . S
H1668 C1645 0.950 . S
H1669 C1647 0.950 . S
C1670 C1671 1.349 . S
C1670 C1672 1.327 . S
C1670 H1695 0.950 . S
C1671 C1670 1.349 . S
C1671 C1687 1.349 . S
C1672 C1670 1.327 . S
C1672 C1691 1.429 . S
C1672 H1696 0.950 . S
C1673 C1690 1.574 . S
C1673 C1692 1.368 . S
C1673 H1697 0.949 . S
H1674 C1678 0.949 . S
C1675 C1676 1.349 . S
C1675 C1677 1.327 . S
C1675 H1698 0.950 . S
C1676 C1675 1.349 . S
C1676 C1688 1.349 . S
C1677 C1675 1.327 . S
C1677 C1693 1.429 . S
C1677 H1699 0.950 . S
C1678 H1674 0.949 . S
C1678 C1686 1.574 . S
C1678 C1694 1.368 . S
H1679 C1687 0.950 . S
H1680 C1685 0.950 . S
H1681 C1686 0.949 . S
H1682 C1688 0.950 . S
H1683 C1689 0.950 . S
H1684 C1690 0.949 . S
C1685 H1680 0.950 . S
C1685 C1687 1.327 . S
C1685 C1691 1.429 . S
C1686 C1678 1.574 . S
C1686 H1681 0.949 . S
C1686 C1692 1.368 . S
C1687 C1671 1.349 . S
C1687 H1679 0.950 . S
C1687 C1685 1.327 . S
C1688 C1676 1.349 . S
C1688 H1682 0.950 . S
C1688 C1689 1.327 . S
C1689 H1683 0.950 . S
C1689 C1688 1.327 . S
C1689 C1693 1.429 . S
C1690 C1673 1.574 . S
C1690 H1684 0.949 . S
C1690 C1694 1.368 . S
C1691 C1672 1.429 . S
C1691 C1685 1.429 . S
C1691 C1692 1.523 . S
C1692 C1673 1.368 . S
C1692 C1686 1.368 . S
C1692 C1691 1.523 . S
C1693 C1677 1.429 . S
C1693 C1689 1.429 . S
C1693 C1694 1.523 . S
C1694 C1678 1.368 . S
C1694 C1690 1.368 . S
C1694 C1693 1.523 . S
H1695 C1670 0.950 . S
H1696 C1672 0.950 . S
H1697 C1673 0.949 . S
H1698 C1675 0.950 . S
H1699 C1677 0.950 . S
C1700 C1701 1.349 . S
C1700 C1702 1.327 . S
C1700 H1725 0.950 . S
C1701 C1700 1.349 . S
C1701 C1717 1.349 . S
C1702 C1700 1.327 . S
C1702 C1721 1.429 . S
C1702 H1726 0.950 . S
C1703 C1720 1.574 . S
C1703 C1722 1.368 . S
C1703 H1727 0.949 . S
H1704 C1708 0.949 . S
C1705 C1706 1.349 . S
C1705 C1707 1.327 . S
C1705 H1728 0.950 . S
C1706 C1705 1.349 . S
C1706 C1718 1.349 . S
C1707 C1705 1.327 . S
C1707 C1723 1.429 . S
C1707 H1729 0.950 . S
C1708 H1704 0.949 . S
C1708 C1716 1.574 . S
C1708 C1724 1.368 . S
H1709 C1717 0.950 . S
H1710 C1715 0.950 . S
H1711 C1716 0.949 . S
H1712 C1718 0.950 . S
H1713 C1719 0.950 . S
H1714 C1720 0.949 . S
C1715 H1710 0.950 . S
C1715 C1717 1.327 . S
C1715 C1721 1.429 . S
C1716 C1708 1.574 . S
C1716 H1711 0.949 . S
C1716 C1722 1.368 . S
C1717 C1701 1.349 . S
C1717 H1709 0.950 . S
C1717 C1715 1.327 . S
C1718 C1706 1.349 . S
C1718 H1712 0.950 . S
C1718 C1719 1.327 . S
C1719 H1713 0.950 . S
C1719 C1718 1.327 . S
C1719 C1723 1.429 . S
C1720 C1703 1.574 . S
C1720 H1714 0.949 . S
C1720 C1724 1.368 . S
C1721 C1702 1.429 . S
C1721 C1715 1.429 . S
C1721 C1722 1.523 . S
C1722 C1703 1.368 . S
C1722 C1716 1.368 . S
C1722 C1721 1.523 . S
C1723 C1707 1.429 . S
C1723 C1719 1.429 . S
C1723 C1724 1.523 . S
C1724 C1708 1.368 . S
C1724 C1720 1.368 . S
C1724 C1723 1.523 . S
H1725 C1700 0.950 . S
H1726 C1702 0.950 . S
H1727 C1703 0.949 . S
H1728 C1705 0.950 . S
H1729 C1707 0.950 . S
C1730 C1731 1.349 . S
C1730 C1732 1.327 . S
C1730 H1755 0.950 . S
C1731 C1730 1.349 . S
C1731 C1747 1.349 . S
C1732 C1730 1.327 . S
C1732 C1751 1.429 . S
C1732 H1756 0.950 . S
C1733 C1750 1.574 . S
C1733 C1752 1.368 . S
C1733 H1757 0.949 . S
H1734 C1738 0.949 . S
C1735 C1736 1.349 . S
C1735 C1737 1.327 . S
C1735 H1758 0.950 . S
C1736 C1735 1.349 . S
C1736 C1748 1.349 . S
C1737 C1735 1.327 . S
C1737 C1753 1.429 . S
C1737 H1759 0.950 . S
C1738 H1734 0.949 . S
C1738 C1746 1.574 . S
C1738 C1754 1.368 . S
H1739 C1747 0.950 . S
H1740 C1745 0.950 . S
H1741 C1746 0.949 . S
H1742 C1748 0.950 . S
H1743 C1749 0.950 . S
H1744 C1750 0.949 . S
C1745 H1740 0.950 . S
C1745 C1747 1.327 . S
C1745 C1751 1.429 . S
C1746 C1738 1.574 . S
C1746 H1741 0.949 . S
C1746 C1752 1.368 . S
C1747 C1731 1.349 . S
C1747 H1739 0.950 . S
C1747 C1745 1.327 . S
C1748 C1736 1.349 . S
C1748 H1742 0.950 . S
C1748 C1749 1.327 . S
C1749 H1743 0.950 . S
C1749 C1748 1.327 . S
C1749 C1753 1.429 . S
C1750 C1733 1.574 . S
C1750 H1744 0.949 . S
C1750 C1754 1.368 . S
C1751 C1732 1.429 . S
C1751 C1745 1.429 . S
C1751 C1752 1.523 . S
C1752 C1733 1.368 . S
C1752 C1746 1.368 . S
C1752 C1751 1.523 . S
C1753 C1737 1.429 . S
C1753 C1749 1.429 . S
C1753 C1754 1.523 . S
C1754 C1738 1.368 . S
C1754 C1750 1.368 . S
C1754 C1753 1.523 . S
H1755 C1730 0.950 . S
H1756 C1732 0.950 . S
H1757 C1733 0.949 . S
H1758 C1735 0.950 . S
H1759 C1737 0.950 . S
C321 C2 0.660 . S
C326 C24 0.632 . S
C351 C42 0.650 . S
C356 C29 0.598 . S
C381 C64 0.804 . S
C386 C59 0.821 . S
C411 C19 0.593 . S
C416 C69 0.622 . S
C441 C18 0.559 . S
C446 C192 0.615 . S
C471 C144 0.528 . S
C476 C22 0.537 . S
C501 C44 0.793 . S
C506 C212 0.809 . S
C531 C62 0.996 . S
C536 C264 0.958 . S
C561 C178 0.559 . S
C566 C32 0.588 . S
C591 C242 1.067 . S
C596 C58 1.123 . S
C621 C284 0.793 . S
C626 C72 0.809 . S
C651 C4 0.636 . S
C656 C222 0.617 . S
C681 C9 0.436 1_556 S
C686 C169 0.436 1_556 S
C711 C259 1.657 . S
C716 C99 1.657 . S
C741 C112 0.491 . S
C746 C289 0.497 . S
C771 C239 1.387 . S
C776 C139 1.386 . S
C801 C49 0.497 . S
C806 C152 0.491 . S
C831 C198 1.432 . S
C836 C98 1.433 . S
C861 C138 1.478 . S
C866 C218 1.478 . S
C891 C118 0.983 . S
C896 C232 0.970 . S
C921 C182 0.537 . S
C926 C104 0.527 . S
C951 C224 0.660 . S
C956 C142 0.647 1_655 S
C981 C119 1.273 . S
C986 C89 1.255 . S
C1011 C184 0.632 . S
C1016 C162 0.660 . S
C1041 C279 0.993 . S
C1046 C229 0.978 . S
C1071 C124 0.660 . S
C1076 C102 0.666 . S
C1101 C189 0.598 . S
C1106 C282 0.650 . S
C1131 C272 0.476 . S
C1136 C12 0.462 . S
C1161 C52 0.494 . S
C1166 C292 0.494 . S
C1191 C258 1.433 . S
C1196 C38 1.432 . S
C1221 C149 0.470 . S
C1226 C109 0.470 . S
C1251 C79 1.484 . S
C1256 C219 1.484 . S
C1281 C244 0.963 . S
C1286 C262 0.943 . S
C1311 C159 1.274 . S
C1316 C249 1.255 . S
C1341 C132 0.972 . S
C1346 C158 0.983 . S
C1371 C92 0.996 . S
C1376 C278 1.020 . S
C1401 C252 0.996 . S
C1406 C318 1.021 . S
C1431 C312 0.476 . S
C1436 C172 0.462 . S
C1461 C39 1.296 . S
C1466 C199 1.296 . S
C1491 C164 0.636 . S
C1496 C122 0.619 . S
C1521 C179 0.593 . S
C1526 C209 0.621 . S
C1551 C319 0.993 . S
C1556 C129 0.976 . S
C1581 C269 0.501 1_556 S
C1586 C309 0.501 1_556 S
C1611 C238 1.478 . S
C1616 C78 1.479 1_565 S
C1641 C204 0.804 . S
C1646 C299 0.821 . S
C1671 C202 0.997 . S
C1676 C304 0.958 . S
C1701 C82 1.067 . S
C1706 C298 1.123 . S
C1731 C302 0.943 . S
C1736 C84 0.963 . S
