# Generated by pormake.
# Topology unh, (4)-cn, num edge types: 1
# Building blocks:
#     Node 0, Type 0, BuildingBlock: KUFVIS_clean_sbu_0, # of connection points: 4
#     Node 1, Type 0, BuildingBlock: KUFVIS_clean_sbu_0, # of connection points: 4
#     Node 2, Type 0, BuildingBlock: KUFVIS_clean_sbu_0, # of connection points: 4
#     Node 3, Type 0, BuildingBlock: KUFVIS_clean_sbu_0, # of connection points: 4
#     Node 4, Type 0, BuildingBlock: KUFVIS_clean_sbu_0, # of connection points: 4
#     Node 5, Type 0, BuildingBlock: KUFVIS_clean_sbu_0, # of connection points: 4
#     Edge 6, Type (0, 0), BuildingBlock: KIFKEQ_clean_linker_1, # of connection points: 2
#     Edge 7, Type (0, 0), BuildingBlock: KIFKEQ_clean_linker_1, # of connection points: 2
#     Edge 8, Type (0, 0), BuildingBlock: KIFKEQ_clean_linker_1, # of connection points: 2
#     Edge 9, Type (0, 0), BuildingBlock: KIFKEQ_clean_linker_1, # of connection points: 2
#     Edge 10, Type (0, 0), BuildingBlock: KIFKEQ_clean_linker_1, # of connection points: 2
#     Edge 11, Type (0, 0), BuildingBlock: KIFKEQ_clean_linker_1, # of connection points: 2
#     Edge 12, Type (0, 0), BuildingBlock: KIFKEQ_clean_linker_1, # of connection points: 2
#     Edge 13, Type (0, 0), BuildingBlock: KIFKEQ_clean_linker_1, # of connection points: 2
#     Edge 14, Type (0, 0), BuildingBlock: KIFKEQ_clean_linker_1, # of connection points: 2
#     Edge 15, Type (0, 0), BuildingBlock: KIFKEQ_clean_linker_1, # of connection points: 2
#     Edge 16, Type (0, 0), BuildingBlock: KIFKEQ_clean_linker_1, # of connection points: 2
#     Edge 17, Type (0, 0), BuildingBlock: KIFKEQ_clean_linker_1, # of connection points: 2
# Relax obj value: 0.110
# Max RMSD: 0.223
# Mean RMSD: 0.223
data_MOF--net-unh--node1-KUFVIS_clean_sbu_0--edge1-KIFKEQ_clean_linker_1
_symmetry_space_group_name_H-M    P1
_symmetry_Int_Tables_number       1
_symmetry_cell_setting            triclinic
loop_
_symmetry_equiv_pos_as_xyz
'x, y, z'
_cell_length_a     42.493314
_cell_length_b     42.463135
_cell_length_c     22.520884
_cell_angle_alpha  90.009264
_cell_angle_beta   89.995516
_cell_angle_gamma 120.01452
loop_
_atom_site_label
_atom_site_type_symbol
_atom_site_fract_x
_atom_site_fract_y
_atom_site_fract_z
_atom_type_partial_charge
Mn0 Mn 0.1428 0.57198 0.06147 0.0
Mn1 Mn 0.10719 0.62684 0.04592 0.0
C2 C 0.16941 0.62019 0.99689 0.0
C3 C 0.18086 0.55709 0.11321 0.0
C4 C 0.07498 0.5523 0.98864 0.0
O5 O 0.10898 0.55909 0.13164 0.0
O6 O 0.09003 0.59979 0.12257 0.0
C7 C 0.14569 0.67806 0.14433 0.0
N8 N 0.13753 0.67193 0.08547 0.0
C9 C 0.1747 0.73562 0.06307 0.0
C10 C 0.18329 0.74266 0.12352 0.0
C11 C 0.16874 0.71374 0.16429 0.0
C12 C 0.15131 0.69955 0.04587 0.0
H13 H 0.13477 0.65587 0.17574 0.0
C14 C 0.09097 0.57377 0.14993 0.0
O15 O 0.15357 0.53265 0.08272 0.0
O16 O 0.18538 0.58962 0.11442 0.0
N17 N 0.12159 0.65476 0.97419 0.0
C18 C 0.11207 0.64314 0.91715 0.0
C19 C 0.12526 0.6686 0.87068 0.0
C20 C 0.14789 0.70571 0.88334 0.0
C21 C 0.15693 0.71706 0.94244 0.0
C22 C 0.1427 0.69049 0.98695 0.0
H23 H 0.09483 0.61464 0.90711 0.0
O24 O 0.17561 0.59331 0.99226 0.0
O25 O 0.14855 0.61854 0.04062 0.0
O26 O 0.09926 0.54504 0.00588 0.0
O27 O 0.07487 0.58145 0.00257 0.0
C28 C 0.18012 0.7536 0.95882 0.0
C29 C 0.189 0.76288 0.01909 0.0
H30 H 0.20128 0.77011 0.13904 0.0
H31 H 0.17541 0.71893 0.21097 0.0
H32 H 0.11817 0.65962 0.82519 0.0
H33 H 0.15833 0.72521 0.84733 0.0
H34 H 0.19165 0.77473 0.92536 0.0
H35 H 0.20721 0.79101 0.03106 0.0
Mn36 Mn 0.56167 0.14032 0.23622 0.0
Mn37 Mn 0.4711 0.10466 0.22254 0.0
C38 C 0.53905 0.16539 0.17028 0.0
C39 C 0.61573 0.17975 0.28424 0.0
C40 C 0.51223 0.07118 0.1658 0.0
O41 O 0.54192 0.10944 0.30985 0.0
O42 O 0.4818 0.08755 0.29864 0.0
C43 C 0.46028 0.14385 0.32204 0.0
N44 N 0.45745 0.13556 0.26315 0.0
C45 C 0.4323 0.17409 0.24216 0.0
C46 C 0.43469 0.18281 0.30266 0.0
C47 C 0.44876 0.16764 0.34274 0.0
C48 C 0.44392 0.14998 0.22419 0.0
H49 H 0.47135 0.13249 0.35295 0.0
C50 C 0.50919 0.09065 0.32766 0.0
O51 O 0.61201 0.15135 0.25616 0.0
O52 O 0.58804 0.18476 0.28498 0.0
N53 N 0.4569 0.11913 0.1516 0.0
C54 C 0.45768 0.10903 0.09442 0.0
C55 C 0.44522 0.12247 0.04864 0.0
C56 C 0.43197 0.14602 0.06211 0.0
C57 C 0.431 0.15567 0.12134 0.0
C58 C 0.44341 0.1411 0.16518 0.0
H59 H 0.46808 0.09115 0.08372 0.0
O60 O 0.57178 0.17085 0.16396 0.0
O61 O 0.52076 0.14576 0.21561 0.0
O62 O 0.54369 0.0947 0.18475 0.0
O63 O 0.48333 0.07215 0.17796 0.0
C64 C 0.41879 0.17966 0.1385 0.0
C65 C 0.41946 0.18888 0.19886 0.0
H66 H 0.42607 0.20135 0.31875 0.0
H67 H 0.45088 0.1744 0.38945 0.0
H68 H 0.44606 0.1149 0.00303 0.0
H69 H 0.42278 0.15667 0.0266 0.0
H70 H 0.40918 0.19147 0.10556 0.0
H71 H 0.41035 0.20764 0.21143 0.0
Mn72 Mn 0.42476 0.57029 0.39965 0.0
Mn73 Mn 0.36914 0.47956 0.38874 0.0
C74 C 0.37644 0.54772 0.33527 0.0
C75 C 0.44042 0.6246 0.44772 0.0
C76 C 0.44321 0.52002 0.32985 0.0
O77 O 0.43757 0.5507 0.47168 0.0
O78 O 0.39698 0.49088 0.46477 0.0
C79 C 0.31923 0.46968 0.48777 0.0
N80 N 0.32464 0.46619 0.4291 0.0
C81 C 0.26081 0.43976 0.40823 0.0
C82 C 0.25452 0.44282 0.46852 0.0
C83 C 0.28386 0.45788 0.50843 0.0
C84 C 0.29659 0.45169 0.39033 0.0
H85 H 0.34175 0.48147 0.51851 0.0
C86 C 0.42302 0.51827 0.49127 0.0
O87 O 0.46455 0.62067 0.41831 0.0
O88 O 0.40775 0.5969 0.45007 0.0
N89 N 0.34045 0.46463 0.31785 0.0
C90 C 0.35137 0.46517 0.26077 0.0
C91 C 0.32541 0.45201 0.21506 0.0
C92 C 0.28853 0.43821 0.22853 0.0
C93 C 0.27789 0.43746 0.28769 0.0
C94 C 0.30494 0.45065 0.33145 0.0
H95 H 0.37969 0.47589 0.2501 0.0
O96 O 0.40353 0.58056 0.32902 0.0
O97 O 0.37792 0.52932 0.38043 0.0
O98 O 0.45107 0.55194 0.34607 0.0
O99 O 0.41387 0.49121 0.34463 0.0
C100 C 0.24163 0.42485 0.30482 0.0
C101 C 0.23309 0.42601 0.36504 0.0
H102 H 0.22732 0.43399 0.48456 0.0
H103 H 0.27925 0.46051 0.55497 0.0
H104 H 0.33383 0.45268 0.16951 0.0
H105 H 0.26864 0.42845 0.19307 0.0
H106 H 0.22015 0.41463 0.27194 0.0
H107 H 0.20517 0.41663 0.37756 0.0
Mn108 Mn 0.8535 0.42596 0.56291 0.0
Mn109 Mn 0.88689 0.36938 0.54605 0.0
C110 C 0.82345 0.37622 0.50217 0.0
C111 C 0.81961 0.44354 0.62056 0.0
C112 C 0.91864 0.44315 0.48563 0.0
O113 O 0.89075 0.44043 0.62821 0.0
O114 O 0.90531 0.39632 0.62258 0.0
C115 C 0.84902 0.31843 0.645 0.0
N116 N 0.8565 0.32445 0.58594 0.0
C117 C 0.8183 0.26086 0.56384 0.0
C118 C 0.81041 0.25392 0.62449 0.0
C119 C 0.82581 0.28285 0.66523 0.0
C120 C 0.84187 0.29683 0.54637 0.0
H121 H 0.8606 0.34064 0.67639 0.0
C122 C 0.90705 0.42425 0.64775 0.0
O123 O 0.84452 0.46639 0.58462 0.0
O124 O 0.81443 0.41077 0.62258 0.0
N125 N 0.87113 0.34149 0.47434 0.0
C126 C 0.88006 0.35301 0.41713 0.0
C127 C 0.86599 0.32754 0.37073 0.0
C128 C 0.84311 0.29051 0.38361 0.0
C129 C 0.8347 0.27924 0.44285 0.0
C130 C 0.84979 0.30582 0.48728 0.0
H131 H 0.89753 0.38144 0.4069 0.0
O132 O 0.8171 0.40304 0.49861 0.0
O133 O 0.8461 0.37864 0.54335 0.0
O134 O 0.89419 0.45048 0.5016 0.0
O135 O 0.91932 0.41467 0.50224 0.0
C136 C 0.81132 0.24278 0.45948 0.0
C137 C 0.80311 0.2336 0.51992 0.0
H138 H 0.7923 0.22656 0.64023 0.0
H139 H 0.81968 0.27775 0.71207 0.0
H140 H 0.87262 0.33646 0.32512 0.0
H141 H 0.83199 0.271 0.34766 0.0
H142 H 0.79913 0.22166 0.42609 0.0
H143 H 0.78475 0.20555 0.5321 0.0
Mn144 Mn 0.43282 0.85731 0.73697 0.0
Mn145 Mn 0.52321 0.89194 0.72171 0.0
C146 C 0.45429 0.8325 0.66865 0.0
C147 C 0.37855 0.81792 0.78443 0.0
C148 C 0.48276 0.9267 0.6673 0.0
O149 O 0.45312 0.88713 0.81137 0.0
O150 O 0.51309 0.90902 0.79844 0.0
C151 C 0.53376 0.85189 0.8201 0.0
N152 N 0.53666 0.86063 0.7614 0.0
C153 C 0.56225 0.8226 0.73931 0.0
C154 C 0.5598 0.81343 0.79961 0.0
C155 C 0.54545 0.82811 0.84014 0.0
C156 C 0.55048 0.84669 0.72201 0.0
H157 H 0.5225 0.8629 0.85135 0.0
C158 C 0.48598 0.90584 0.82846 0.0
O159 O 0.38286 0.847 0.75791 0.0
O160 O 0.40585 0.8123 0.78422 0.0
N161 N 0.53714 0.8777 0.65023 0.0
C162 C 0.53601 0.88788 0.59324 0.0
C163 C 0.54841 0.87467 0.54699 0.0
C164 C 0.56205 0.85137 0.55982 0.0
C165 C 0.56339 0.84167 0.61888 0.0
C166 C 0.55095 0.85593 0.66319 0.0
H167 H 0.52533 0.90558 0.58303 0.0
O168 O 0.42178 0.82779 0.66369 0.0
O169 O 0.47321 0.85117 0.71442 0.0
O170 O 0.45134 0.90367 0.68705 0.0
O171 O 0.51138 0.92495 0.67811 0.0
C172 C 0.57584 0.81777 0.63538 0.0
C173 C 0.57526 0.80824 0.69555 0.0
H174 H 0.56854 0.79489 0.81519 0.0
H175 H 0.54327 0.821 0.8867 0.0
H176 H 0.54725 0.88227 0.50152 0.0
H177 H 0.5712 0.84092 0.52395 0.0
H178 H 0.58548 0.80619 0.60207 0.0
H179 H 0.5845 0.7895 0.70759 0.0
Mn180 Mn 0.57105 0.4272 0.89999 0.0
Mn181 Mn 0.62773 0.51761 0.88977 0.0
C182 C 0.62216 0.44895 0.84181 0.0
C183 C 0.5526 0.37398 0.95337 0.0
C184 C 0.55517 0.4772 0.82545 0.0
O185 O 0.55532 0.44808 0.96691 0.0
O186 O 0.59935 0.50696 0.96494 0.0
C187 C 0.67661 0.52777 0.99057 0.0
N188 N 0.67178 0.53083 0.93151 0.0
C189 C 0.73563 0.55597 0.91228 0.0
C190 C 0.74133 0.55335 0.97297 0.0
C191 C 0.71167 0.53914 0.01225 0.0
C192 C 0.70011 0.54444 0.89331 0.0
H193 H 0.65384 0.51661 0.02084 0.0
C194 C 0.5712 0.48014 0.98843 0.0
O195 O 0.5304 0.37708 0.91736 0.0
O196 O 0.58522 0.40158 0.95798 0.0
N197 N 0.65702 0.53162 0.8195 0.0
C198 C 0.64674 0.53118 0.76204 0.0
C199 C 0.67311 0.54385 0.71697 0.0
C200 C 0.70976 0.55701 0.73144 0.0
C201 C 0.71975 0.5577 0.79096 0.0
C202 C 0.69234 0.5451 0.83405 0.0
H203 H 0.61861 0.52101 0.75058 0.0
O204 O 0.59557 0.4159 0.83497 0.0
O205 O 0.61852 0.46772 0.88416 0.0
O206 O 0.54762 0.44508 0.83968 0.0
O207 O 0.58333 0.50598 0.84413 0.0
C208 C 0.75576 0.56986 0.80912 0.0
C209 C 0.76369 0.56896 0.86973 0.0
H210 H 0.7683 0.56187 0.98982 0.0
H211 H 0.71582 0.53684 0.0591 0.0
H212 H 0.66518 0.54328 0.67115 0.0
H213 H 0.72996 0.56637 0.69648 0.0
H214 H 0.77751 0.57959 0.77677 0.0
H215 H 0.79142 0.578 0.88307 0.0
H216 H 0.00815 0.54448 0.96987 0.0
H217 H 0.07791 0.50327 0.91329 0.0
H218 H 0.96447 0.50867 0.89325 0.0
H219 H 0.03483 0.46847 0.83481 0.0
H220 H 0.93861 0.39389 0.71645 0.0
H221 H 0.97576 0.41975 0.80549 0.0
H222 H 0.96378 0.51464 0.78892 0.0
H223 H 0.92616 0.48865 0.70206 0.0
C224 C 0.01406 0.52761 0.94118 0.0
C225 C 0.04664 0.52701 0.94715 0.0
C226 C 0.98912 0.50722 0.89702 0.0
C227 C 0.99645 0.48623 0.85705 0.0
C228 C 0.0282 0.48416 0.86498 0.0
C229 C 0.05297 0.50421 0.90984 0.0
C230 C 0.94382 0.42019 0.73211 0.0
C231 C 0.92934 0.43913 0.70208 0.0
C232 C 0.96518 0.43504 0.78302 0.0
C233 C 0.97255 0.46916 0.8047 0.0
C234 C 0.95799 0.48793 0.77451 0.0
C235 C 0.93657 0.47308 0.72417 0.0
H236 H 0.43966 0.88866 0.9219 0.0
H237 H 0.54751 0.96798 0.86313 0.0
H238 H 0.44758 0.92455 0.01056 0.0
H239 H 0.55497 0.00486 0.95087 0.0
H240 H 0.56555 0.05631 0.13128 0.0
H241 H 0.56102 0.01262 0.05649 0.0
H242 H 0.44783 0.97924 0.02972 0.0
H243 H 0.45194 0.02161 0.10529 0.0
C244 C 0.46514 0.91379 0.92805 0.0
C245 C 0.49278 0.92577 0.88517 0.0
C246 C 0.46963 0.93447 0.97877 0.0
C247 C 0.50164 0.96798 0.98745 0.0
C248 C 0.53004 0.9791 0.94593 0.0
C249 C 0.52573 0.95806 0.89545 0.0
C250 C 0.53958 0.03928 0.10995 0.0
C251 C 0.50915 0.04263 0.12431 0.0
C252 C 0.53706 0.01439 0.06678 0.0
C253 C 0.5041 0.9924 0.03688 0.0
C254 C 0.47353 0.99518 0.05244 0.0
C255 C 0.47596 0.01979 0.09571 0.0
H256 H 0.44749 0.45907 0.30821 0.0
H257 H 0.49435 0.57176 0.25674 0.0
H258 H 0.4826 0.45028 0.2314 0.0
H259 H 0.52844 0.56264 0.17827 0.0
H260 H 0.60197 0.54004 0.0613 0.0
H261 H 0.57565 0.55042 0.15033 0.0
H262 H 0.47899 0.44554 0.12666 0.0
H263 H 0.50558 0.4347 0.03948 0.0
C264 C 0.46544 0.48203 0.28065 0.0
C265 C 0.46788 0.51602 0.2882 0.0
C266 C 0.48542 0.47694 0.23633 0.0
C267 C 0.5079 0.50558 0.19791 0.0
C268 C 0.51163 0.54004 0.20729 0.0
C269 C 0.49197 0.54525 0.25219 0.0
C270 C 0.57517 0.51915 0.07534 0.0
C271 C 0.55588 0.48656 0.04314 0.0
C272 C 0.56004 0.52516 0.12628 0.0
C273 C 0.52523 0.49879 0.14586 0.0
C274 C 0.50616 0.46615 0.11376 0.0
C275 C 0.52134 0.46004 0.0633 0.0
H276 H 0.98614 0.45199 0.47038 0.0
H277 H 0.91523 0.48999 0.40591 0.0
H278 H 0.03095 0.48825 0.3955 0.0
H279 H 0.95942 0.52514 0.329 0.0
H280 H 0.05621 0.60196 0.21563 0.0
H281 H 0.0177 0.57499 0.30282 0.0
H282 H 0.03621 0.48385 0.2924 0.0
H283 H 0.07538 0.51117 0.20748 0.0
C284 C 0.98015 0.46815 0.44015 0.0
C285 C 0.94702 0.46787 0.44364 0.0
C286 C 0.00576 0.48881 0.39697 0.0
C287 C -0.00139 0.50919 0.35546 0.0
C288 C 0.96603 0.51005 0.36049 0.0
C289 C 0.94059 0.48976 0.4044 0.0
C290 C 0.05225 0.57631 0.23237 0.0
C291 C 0.06891 0.55876 0.20447 0.0
C292 C 0.03004 0.56076 0.28217 0.0
C293 C 0.02385 0.52724 0.30484 0.0
C294 C 0.0409 0.51004 0.27717 0.0
C295 C 0.06326 0.52567 0.22797 0.0
H296 H 0.44765 0.02905 0.36388 0.0
H297 H 0.55644 0.10765 0.41974 0.0
H298 H 0.44032 0.99281 0.45235 0.0
H299 H 0.54866 0.07247 0.5092 0.0
H300 H 0.54313 0.97563 0.60637 0.0
H301 H 0.54753 0.01768 0.53016 0.0
H302 H 0.43485 0.98608 0.55798 0.0
H303 H 0.42999 0.94258 0.63343 0.0
C304 C 0.46971 0.03893 0.39567 0.0
C305 C 0.50283 0.07084 0.38439 0.0
C306 C 0.46546 0.01829 0.4466 0.0
C307 C 0.4941 0.02942 0.48764 0.0
C308 C 0.52639 0.06252 0.47784 0.0
C309 C 0.53081 0.0828 0.42664 0.0
C310 C 0.51929 0.97779 0.59694 0.0
C311 C 0.48612 0.95543 0.62596 0.0
C312 C 0.5219 0.00223 0.55327 0.0
C313 C 0.49154 0.00537 0.53773 0.0
C314 C 0.45864 0.98399 0.56821 0.0
C315 C 0.45593 0.95923 0.61178 0.0
H316 H 0.50738 0.42725 0.74642 0.0
H317 H 0.54838 0.53717 0.80895 0.0
H318 H 0.47219 0.43668 0.67038 0.0
H319 H 0.51202 0.54614 0.73476 0.0
H320 H 0.39497 0.45641 0.55956 0.0
H321 H 0.42271 0.44567 0.64642 0.0
H322 H 0.51431 0.55482 0.63154 0.0
H323 H 0.48617 0.56592 0.54689 0.0
C324 C 0.50834 0.45321 0.74464 0.0
C325 C 0.53099 0.4816 0.78324 0.0
C326 C 0.48797 0.45857 0.70122 0.0
C327 C 0.48947 0.49231 0.69595 0.0
C328 C 0.51086 0.5201 0.73651 0.0
C329 C 0.5316 0.51491 0.77929 0.0
C330 C 0.42088 0.47818 0.57527 0.0
C331 C 0.43835 0.51198 0.5461 0.0
C332 C 0.43688 0.47197 0.62488 0.0
C333 C 0.47082 0.49934 0.64607 0.0
C334 C 0.48786 0.53329 0.61739 0.0
C335 C 0.47176 0.5396 0.56836 0.0
H336 H 0.24995 0.60572 0.14377 0.0
H337 H 0.1707 0.49101 0.15073 0.0
H338 H 0.29406 0.59425 0.19377 0.0
H339 H 0.21522 0.47978 0.20288 0.0
H340 H 0.30793 0.52381 0.37546 0.0
H341 H 0.25623 0.51746 0.31721 0.0
H342 H 0.32139 0.54573 0.15824 0.0
H343 H 0.37258 0.55076 0.21607 0.0
C344 C 0.24192 0.57805 0.15618 0.0
C345 C 0.20691 0.54924 0.14349 0.0
C346 C 0.26722 0.57153 0.18445 0.0
C347 C 0.25786 0.53619 0.20157 0.0
C348 C 0.22284 0.50722 0.18962 0.0
C349 C 0.19758 0.51365 0.15994 0.0
C350 C 0.31048 0.52683 0.32766 0.0
C351 C 0.34363 0.53657 0.29968 0.0
C352 C 0.28108 0.52338 0.29453 0.0
C353 C 0.28499 0.53075 0.23343 0.0
C354 C 0.31777 0.5394 0.20522 0.0
C355 C 0.34692 0.54237 0.23816 0.0
H356 H 0.66996 0.16873 0.32739 0.0
H357 H 0.63881 0.25057 0.30572 0.0
H358 H 0.72605 0.21373 0.37819 0.0
H359 H 0.69473 0.29515 0.35443 0.0
H360 H 0.81433 0.37304 0.38364 0.0
H361 H 0.76748 0.32211 0.32635 0.0
H362 H 0.73347 0.25577 0.48434 0.0
H363 H 0.77974 0.30726 0.54208 0.0
C364 C 0.67528 0.19631 0.33297 0.0
C365 C 0.65011 0.20624 0.31288 0.0
C366 C 0.70715 0.22185 0.36197 0.0
C367 C 0.71454 0.25774 0.36954 0.0
C368 C 0.68967 0.26767 0.3485 0.0
C369 C 0.65764 0.24212 0.32098 0.0
C370 C 0.79751 0.3472 0.40558 0.0
C371 C 0.80116 0.34351 0.46665 0.0
C372 C 0.77086 0.3182 0.37296 0.0
C373 C 0.74727 0.28514 0.40105 0.0
C374 C 0.75186 0.28086 0.46167 0.0
C375 C 0.77832 0.31013 0.49452 0.0
H376 H 0.47824 0.78739 0.70611 0.0
H377 H 0.44829 0.82473 0.54949 0.0
H378 H 0.48317 0.7417 0.64654 0.0
H379 H 0.45179 0.77812 0.49034 0.0
H380 H 0.39347 0.64873 0.46783 0.0
H381 H 0.4055 0.70507 0.51598 0.0
H382 H 0.51773 0.73495 0.54086 0.0
H383 H 0.50597 0.6785 0.49048 0.0
C384 C 0.47418 0.78672 0.65855 0.0
C385 C 0.46408 0.8102 0.63177 0.0
C386 C 0.4768 0.76055 0.62465 0.0
C387 C 0.46811 0.75676 0.564 0.0
C388 C 0.45898 0.7809 0.53696 0.0
C389 C 0.45693 0.80739 0.57065 0.0
C390 C 0.4208 0.66737 0.48314 0.0
C391 C 0.44879 0.6593 0.47564 0.0
C392 C 0.42769 0.69966 0.51027 0.0
C393 C 0.46253 0.72422 0.53156 0.0
C394 C 0.49071 0.71634 0.52435 0.0
C395 C 0.48399 0.68424 0.49566 0.0
H396 H 0.68713 0.46804 0.89177 0.0
H397 H 0.63311 0.45187 0.72314 0.0
H398 H 0.74168 0.47609 0.84083 0.0
H399 H 0.68771 0.46033 0.67193 0.0
H400 H 0.80173 0.49614 0.59887 0.0
H401 H 0.75848 0.50698 0.65527 0.0
H402 H 0.74487 0.42459 0.78149 0.0
H403 H 0.78712 0.41326 0.72498 0.0
C404 C 0.68749 0.46743 0.84368 0.0
C405 C 0.65653 0.46024 0.81097 0.0
C406 C 0.71849 0.47185 0.81467 0.0
C407 C 0.71886 0.46904 0.75254 0.0
C408 C 0.68829 0.46323 0.71977 0.0
C409 C 0.6571 0.45822 0.74891 0.0
C410 C 0.78987 0.48084 0.6392 0.0
C411 C 0.7974 0.45365 0.65741 0.0
C412 C 0.76519 0.48699 0.67125 0.0
C413 C 0.74855 0.46667 0.72266 0.0
C414 C 0.75765 0.44089 0.74237 0.0
C415 C 0.78158 0.43421 0.70978 0.0
H416 H 0.35417 0.74646 0.8017 0.0
H417 H 0.32481 0.82921 0.82906 0.0
H418 H 0.29758 0.70154 0.84824 0.0
H419 H 0.26804 0.78384 0.87767 0.0
H420 H 0.21279 0.68894 0.03745 0.0
H421 H 0.25906 0.74072 0.9805 0.0
H422 H 0.22561 0.6752 0.82156 0.0
H423 H 0.17861 0.62393 0.87813 0.0
C424 C 0.33558 0.75503 0.81773 0.0
C425 C 0.34383 0.79128 0.81193 0.0
C426 C 0.30313 0.72928 0.84394 0.0
C427 C 0.27855 0.73934 0.86594 0.0
C428 C 0.28666 0.77559 0.86061 0.0
C429 C 0.31895 0.80137 0.83291 0.0
C430 C 0.21426 0.68631 0.98984 0.0
C431 C 0.19157 0.65303 0.96155 0.0
C432 C 0.24075 0.71576 0.95743 0.0
C433 C 0.24559 0.71179 0.8968 0.0
C434 C 0.22208 0.67887 0.86822 0.0
C435 C 0.19534 0.64967 0.90042 0.0
H436 H 0.50036 0.3041 0.92627 0.0
H437 H 0.58113 0.36877 0.05771 0.0
H438 H 0.48779 0.24847 0.97976 0.0
H439 H 0.56808 0.31371 0.1113 0.0
H440 H 0.51977 0.21152 0.21827 0.0
H441 H 0.51396 0.25911 0.16673 0.0
H442 H 0.53274 0.22196 -0.0009 0.0
H443 H 0.53875 0.17441 0.051 0.0
C444 C 0.51488 0.30641 0.96705 0.0
C445 C 0.54187 0.3406 0.98776 0.0
C446 C 0.50776 0.27471 0.99742 0.0
C447 C 0.52688 0.27696 0.04964 0.0
C448 C 0.55267 0.31128 0.07151 0.0
C449 C 0.56033 0.34274 0.04061 0.0
C450 C 0.52143 0.21286 0.17024 0.0
C451 C 0.52888 0.18902 0.13819 0.0
C452 C 0.51832 0.24011 0.14089 0.0
C453 C 0.52279 0.24402 0.07904 0.0
C454 C 0.52865 0.21912 0.04671 0.0
C455 C 0.53227 0.19215 0.07625 0.0
loop_
_geom_bond_atom_site_label_1
_geom_bond_atom_site_label_2
_geom_bond_distance
_geom_bond_site_symmetry_2
_ccdc_geom_bond_type
Mn0 O5 2.095 . S
Mn0 O15 2.162 . S
Mn0 O16 2.297 . S
Mn0 O24 2.385 . S
Mn0 O25 2.209 . S
Mn0 O26 2.094 . S
Mn1 O6 2.121 . S
Mn1 N8 2.257 . S
Mn1 N17 2.282 1_554 S
Mn1 O25 2.215 . S
Mn1 O27 2.117 1_554 S
C2 O24 1.234 . S
C2 O25 1.283 . S
C3 O15 1.281 . S
C3 O16 1.236 . S
C4 O26 1.240 1_556 S
C4 O27 1.264 . S
O5 Mn0 2.095 . S
O5 C14 1.250 . S
O6 Mn1 2.121 . S
O6 C14 1.258 . S
C7 N8 1.326 . S
C7 C11 1.460 . S
C7 H13 0.929 . S
N8 Mn1 2.257 . S
N8 C7 1.326 . S
N8 C12 1.362 . S
C9 C10 1.258 . S
C9 C12 1.431 . S
C9 C29 1.449 1_554 S
C10 C9 1.258 . S
C10 C11 1.477 . S
C10 H30 0.931 . S
C11 C7 1.460 . S
C11 C10 1.477 . S
C11 H31 0.930 . S
C12 N8 1.362 . S
C12 C9 1.431 . S
C12 C22 1.476 1_554 S
H13 C7 0.929 . S
C14 O5 1.250 . S
C14 O6 1.258 . S
O15 Mn0 2.162 . S
O15 C3 1.281 . S
O16 Mn0 2.297 . S
O16 C3 1.236 . S
N17 Mn1 2.282 1_556 S
N17 C18 1.328 . S
N17 C22 1.318 . S
C18 N17 1.328 . S
C18 C19 1.457 . S
C18 H23 0.929 . S
C19 C18 1.457 . S
C19 C20 1.291 . S
C19 H32 0.931 . S
C20 C19 1.291 . S
C20 C21 1.373 . S
C20 H33 0.929 . S
C21 C20 1.373 . S
C21 C22 1.396 . S
C21 C28 1.403 . S
C22 C12 1.476 1_556 S
C22 N17 1.318 . S
C22 C21 1.396 . S
H23 C18 0.929 . S
O24 Mn0 2.385 . S
O24 C2 1.234 . S
O25 Mn0 2.209 . S
O25 Mn1 2.215 . S
O25 C2 1.283 . S
O26 Mn0 2.094 . S
O26 C4 1.240 1_554 S
O27 Mn1 2.117 1_556 S
O27 C4 1.264 . S
C28 C21 1.403 . S
C28 C29 1.399 . S
C28 H34 0.929 . S
C29 C9 1.449 1_556 S
C29 C28 1.399 . S
C29 H35 0.930 . S
H30 C10 0.931 . S
H31 C11 0.930 . S
H32 C19 0.931 . S
H33 C20 0.929 . S
H34 C28 0.929 . S
H35 C29 0.930 . S
Mn36 O41 2.095 . S
Mn36 O51 2.162 . S
Mn36 O52 2.297 . S
Mn36 O60 2.385 . S
Mn36 O61 2.209 . S
Mn36 O62 2.094 . S
Mn37 O42 2.121 . S
Mn37 N44 2.257 . S
Mn37 N53 2.282 . S
Mn37 O61 2.215 . S
Mn37 O63 2.117 . S
C38 O60 1.234 . S
C38 O61 1.283 . S
C39 O51 1.281 . S
C39 O52 1.236 . S
C40 O62 1.240 . S
C40 O63 1.264 . S
O41 Mn36 2.095 . S
O41 C50 1.250 . S
O42 Mn37 2.121 . S
O42 C50 1.258 . S
C43 N44 1.326 . S
C43 C47 1.460 . S
C43 H49 0.929 . S
N44 Mn37 2.257 . S
N44 C43 1.326 . S
N44 C48 1.362 . S
C45 C46 1.258 . S
C45 C48 1.431 . S
C45 C65 1.449 . S
C46 C45 1.258 . S
C46 C47 1.477 . S
C46 H66 0.931 . S
C47 C43 1.460 . S
C47 C46 1.477 . S
C47 H67 0.930 . S
C48 N44 1.362 . S
C48 C45 1.431 . S
C48 C58 1.476 . S
H49 C43 0.929 . S
C50 O41 1.250 . S
C50 O42 1.258 . S
O51 Mn36 2.162 . S
O51 C39 1.281 . S
O52 Mn36 2.297 . S
O52 C39 1.236 . S
N53 Mn37 2.282 . S
N53 C54 1.328 . S
N53 C58 1.318 . S
C54 N53 1.328 . S
C54 C55 1.457 . S
C54 H59 0.929 . S
C55 C54 1.457 . S
C55 C56 1.291 . S
C55 H68 0.931 1_554 S
C56 C55 1.291 . S
C56 C57 1.373 . S
C56 H69 0.929 . S
C57 C56 1.373 . S
C57 C58 1.396 . S
C57 C64 1.403 . S
C58 C48 1.476 . S
C58 N53 1.318 . S
C58 C57 1.396 . S
H59 C54 0.929 . S
O60 Mn36 2.385 . S
O60 C38 1.234 . S
O61 Mn36 2.209 . S
O61 Mn37 2.215 . S
O61 C38 1.283 . S
O62 Mn36 2.094 . S
O62 C40 1.240 . S
O63 Mn37 2.117 . S
O63 C40 1.264 . S
C64 C57 1.403 . S
C64 C65 1.399 . S
C64 H70 0.929 . S
C65 C45 1.449 . S
C65 C64 1.399 . S
C65 H71 0.930 . S
H66 C46 0.931 . S
H67 C47 0.930 . S
H68 C55 0.931 1_556 S
H69 C56 0.929 . S
H70 C64 0.929 . S
H71 C65 0.930 . S
Mn72 O77 2.095 . S
Mn72 O87 2.162 . S
Mn72 O88 2.297 . S
Mn72 O96 2.385 . S
Mn72 O97 2.209 . S
Mn72 O98 2.094 . S
Mn73 O78 2.121 . S
Mn73 N80 2.257 . S
Mn73 N89 2.282 . S
Mn73 O97 2.215 . S
Mn73 O99 2.117 . S
C74 O96 1.234 . S
C74 O97 1.283 . S
C75 O87 1.281 . S
C75 O88 1.236 . S
C76 O98 1.240 . S
C76 O99 1.264 . S
O77 Mn72 2.095 . S
O77 C86 1.250 . S
O78 Mn73 2.121 . S
O78 C86 1.258 . S
C79 N80 1.326 . S
C79 C83 1.460 . S
C79 H85 0.929 . S
N80 Mn73 2.257 . S
N80 C79 1.326 . S
N80 C84 1.362 . S
C81 C82 1.258 . S
C81 C84 1.431 . S
C81 C101 1.449 . S
C82 C81 1.258 . S
C82 C83 1.477 . S
C82 H102 0.931 . S
C83 C79 1.460 . S
C83 C82 1.477 . S
C83 H103 0.930 . S
C84 N80 1.362 . S
C84 C81 1.431 . S
C84 C94 1.476 . S
H85 C79 0.929 . S
C86 O77 1.250 . S
C86 O78 1.258 . S
O87 Mn72 2.162 . S
O87 C75 1.281 . S
O88 Mn72 2.297 . S
O88 C75 1.236 . S
N89 Mn73 2.282 . S
N89 C90 1.328 . S
N89 C94 1.318 . S
C90 N89 1.328 . S
C90 C91 1.457 . S
C90 H95 0.929 . S
C91 C90 1.457 . S
C91 C92 1.291 . S
C91 H104 0.931 . S
C92 C91 1.291 . S
C92 C93 1.373 . S
C92 H105 0.929 . S
C93 C92 1.373 . S
C93 C94 1.396 . S
C93 C100 1.403 . S
C94 C84 1.476 . S
C94 N89 1.318 . S
C94 C93 1.396 . S
H95 C90 0.929 . S
O96 Mn72 2.385 . S
O96 C74 1.234 . S
O97 Mn72 2.209 . S
O97 Mn73 2.215 . S
O97 C74 1.283 . S
O98 Mn72 2.094 . S
O98 C76 1.240 . S
O99 Mn73 2.117 . S
O99 C76 1.264 . S
C100 C93 1.403 . S
C100 C101 1.399 . S
C100 H106 0.929 . S
C101 C81 1.449 . S
C101 C100 1.399 . S
C101 H107 0.930 . S
H102 C82 0.931 . S
H103 C83 0.930 . S
H104 C91 0.931 . S
H105 C92 0.929 . S
H106 C100 0.929 . S
H107 C101 0.930 . S
Mn108 O113 2.095 . S
Mn108 O123 2.162 . S
Mn108 O124 2.297 . S
Mn108 O132 2.385 . S
Mn108 O133 2.209 . S
Mn108 O134 2.094 . S
Mn109 O114 2.121 . S
Mn109 N116 2.257 . S
Mn109 N125 2.282 . S
Mn109 O133 2.215 . S
Mn109 O135 2.117 . S
C110 O132 1.234 . S
C110 O133 1.283 . S
C111 O123 1.281 . S
C111 O124 1.236 . S
C112 O134 1.240 . S
C112 O135 1.264 . S
O113 Mn108 2.095 . S
O113 C122 1.250 . S
O114 Mn109 2.121 . S
O114 C122 1.258 . S
C115 N116 1.326 . S
C115 C119 1.460 . S
C115 H121 0.929 . S
N116 Mn109 2.257 . S
N116 C115 1.326 . S
N116 C120 1.362 . S
C117 C118 1.258 . S
C117 C120 1.431 . S
C117 C137 1.449 . S
C118 C117 1.258 . S
C118 C119 1.477 . S
C118 H138 0.931 . S
C119 C115 1.460 . S
C119 C118 1.477 . S
C119 H139 0.930 . S
C120 N116 1.362 . S
C120 C117 1.431 . S
C120 C130 1.476 . S
H121 C115 0.929 . S
C122 O113 1.250 . S
C122 O114 1.258 . S
O123 Mn108 2.162 . S
O123 C111 1.281 . S
O124 Mn108 2.297 . S
O124 C111 1.236 . S
N125 Mn109 2.282 . S
N125 C126 1.328 . S
N125 C130 1.318 . S
C126 N125 1.328 . S
C126 C127 1.457 . S
C126 H131 0.929 . S
C127 C126 1.457 . S
C127 C128 1.291 . S
C127 H140 0.931 . S
C128 C127 1.291 . S
C128 C129 1.373 . S
C128 H141 0.929 . S
C129 C128 1.373 . S
C129 C130 1.396 . S
C129 C136 1.403 . S
C130 C120 1.476 . S
C130 N125 1.318 . S
C130 C129 1.396 . S
H131 C126 0.929 . S
O132 Mn108 2.385 . S
O132 C110 1.234 . S
O133 Mn108 2.209 . S
O133 Mn109 2.215 . S
O133 C110 1.283 . S
O134 Mn108 2.094 . S
O134 C112 1.240 . S
O135 Mn109 2.117 . S
O135 C112 1.264 . S
C136 C129 1.403 . S
C136 C137 1.399 . S
C136 H142 0.929 . S
C137 C117 1.449 . S
C137 C136 1.399 . S
C137 H143 0.930 . S
H138 C118 0.931 . S
H139 C119 0.930 . S
H140 C127 0.931 . S
H141 C128 0.929 . S
H142 C136 0.929 . S
H143 C137 0.930 . S
Mn144 O149 2.095 . S
Mn144 O159 2.162 . S
Mn144 O160 2.297 . S
Mn144 O168 2.385 . S
Mn144 O169 2.209 . S
Mn144 O170 2.094 . S
Mn145 O150 2.121 . S
Mn145 N152 2.257 . S
Mn145 N161 2.282 . S
Mn145 O169 2.215 . S
Mn145 O171 2.117 . S
C146 O168 1.234 . S
C146 O169 1.283 . S
C147 O159 1.281 . S
C147 O160 1.236 . S
C148 O170 1.240 . S
C148 O171 1.264 . S
O149 Mn144 2.095 . S
O149 C158 1.250 . S
O150 Mn145 2.121 . S
O150 C158 1.258 . S
C151 N152 1.326 . S
C151 C155 1.460 . S
C151 H157 0.929 . S
N152 Mn145 2.257 . S
N152 C151 1.326 . S
N152 C156 1.362 . S
C153 C154 1.258 . S
C153 C156 1.431 . S
C153 C173 1.449 . S
C154 C153 1.258 . S
C154 C155 1.477 . S
C154 H174 0.931 . S
C155 C151 1.460 . S
C155 C154 1.477 . S
C155 H175 0.930 . S
C156 N152 1.362 . S
C156 C153 1.431 . S
C156 C166 1.476 . S
H157 C151 0.929 . S
C158 O149 1.250 . S
C158 O150 1.258 . S
O159 Mn144 2.162 . S
O159 C147 1.281 . S
O160 Mn144 2.297 . S
O160 C147 1.236 . S
N161 Mn145 2.282 . S
N161 C162 1.328 . S
N161 C166 1.318 . S
C162 N161 1.328 . S
C162 C163 1.457 . S
C162 H167 0.929 . S
C163 C162 1.457 . S
C163 C164 1.291 . S
C163 H176 0.931 . S
C164 C163 1.291 . S
C164 C165 1.373 . S
C164 H177 0.929 . S
C165 C164 1.373 . S
C165 C166 1.396 . S
C165 C172 1.403 . S
C166 C156 1.476 . S
C166 N161 1.318 . S
C166 C165 1.396 . S
H167 C162 0.929 . S
O168 Mn144 2.385 . S
O168 C146 1.234 . S
O169 Mn144 2.209 . S
O169 Mn145 2.215 . S
O169 C146 1.283 . S
O170 Mn144 2.094 . S
O170 C148 1.240 . S
O171 Mn145 2.117 . S
O171 C148 1.264 . S
C172 C165 1.403 . S
C172 C173 1.399 . S
C172 H178 0.929 . S
C173 C153 1.449 . S
C173 C172 1.399 . S
C173 H179 0.930 . S
H174 C154 0.931 . S
H175 C155 0.930 . S
H176 C163 0.931 . S
H177 C164 0.929 . S
H178 C172 0.929 . S
H179 C173 0.930 . S
Mn180 O185 2.095 . S
Mn180 O195 2.162 . S
Mn180 O196 2.297 . S
Mn180 O204 2.385 . S
Mn180 O205 2.209 . S
Mn180 O206 2.094 . S
Mn181 O186 2.121 . S
Mn181 N188 2.257 . S
Mn181 N197 2.282 . S
Mn181 O205 2.215 . S
Mn181 O207 2.117 . S
C182 O204 1.234 . S
C182 O205 1.283 . S
C183 O195 1.281 . S
C183 O196 1.236 . S
C184 O206 1.240 . S
C184 O207 1.264 . S
O185 Mn180 2.095 . S
O185 C194 1.250 . S
O186 Mn181 2.121 . S
O186 C194 1.258 . S
C187 N188 1.326 . S
C187 C191 1.460 . S
C187 H193 0.929 . S
N188 Mn181 2.257 . S
N188 C187 1.326 . S
N188 C192 1.362 . S
C189 C190 1.258 . S
C189 C192 1.431 . S
C189 C209 1.449 . S
C190 C189 1.258 . S
C190 C191 1.477 . S
C190 H210 0.931 . S
C191 C187 1.460 . S
C191 C190 1.477 . S
C191 H211 0.930 1_556 S
C192 N188 1.362 . S
C192 C189 1.431 . S
C192 C202 1.476 . S
H193 C187 0.929 . S
C194 O185 1.250 . S
C194 O186 1.258 . S
O195 Mn180 2.162 . S
O195 C183 1.281 . S
O196 Mn180 2.297 . S
O196 C183 1.236 . S
N197 Mn181 2.282 . S
N197 C198 1.328 . S
N197 C202 1.318 . S
C198 N197 1.328 . S
C198 C199 1.457 . S
C198 H203 0.929 . S
C199 C198 1.457 . S
C199 C200 1.291 . S
C199 H212 0.931 . S
C200 C199 1.291 . S
C200 C201 1.373 . S
C200 H213 0.929 . S
C201 C200 1.373 . S
C201 C202 1.396 . S
C201 C208 1.403 . S
C202 C192 1.476 . S
C202 N197 1.318 . S
C202 C201 1.396 . S
H203 C198 0.929 . S
O204 Mn180 2.385 . S
O204 C182 1.234 . S
O205 Mn180 2.209 . S
O205 Mn181 2.215 . S
O205 C182 1.283 . S
O206 Mn180 2.094 . S
O206 C184 1.240 . S
O207 Mn181 2.117 . S
O207 C184 1.264 . S
C208 C201 1.403 . S
C208 C209 1.399 . S
C208 H214 0.929 . S
C209 C189 1.449 . S
C209 C208 1.399 . S
C209 H215 0.930 . S
H210 C190 0.931 . S
H211 C191 0.930 1_554 S
H212 C199 0.931 . S
H213 C200 0.929 . S
H214 C208 0.929 . S
H215 C209 0.930 . S
H216 C224 0.950 . S
H217 C229 0.950 . S
H218 C226 0.978 . S
H219 C228 0.950 . S
H220 C230 0.950 . S
H221 C232 0.950 1_455 S
H222 C234 0.950 . S
H223 C235 0.950 . S
C224 H216 0.950 . S
C224 C225 1.386 . S
C224 C226 1.372 1_455 S
C225 C224 1.386 . S
C225 C229 1.393 . S
C226 H218 0.978 . S
C226 C224 1.372 1_655 S
C226 C227 1.393 1_655 S
C227 C226 1.393 1_455 S
C227 C228 1.398 . S
C227 C233 1.491 1_455 S
C228 H219 0.950 . S
C228 C227 1.398 . S
C228 C229 1.391 . S
C229 H217 0.950 . S
C229 C225 1.393 . S
C229 C228 1.391 . S
C230 H220 0.950 . S
C230 C231 1.386 . S
C230 C232 1.391 . S
C231 C230 1.386 . S
C231 C235 1.393 . S
C232 H221 0.950 1_655 S
C232 C230 1.391 . S
C232 C233 1.400 . S
C233 C227 1.491 1_655 S
C233 C232 1.400 . S
C233 C234 1.398 . S
C234 H222 0.950 . S
C234 C233 1.398 . S
C234 C235 1.391 . S
C235 H223 0.950 . S
C235 C231 1.393 . S
C235 C234 1.391 . S
H236 C244 0.950 . S
H237 C249 0.950 . S
H238 C246 0.950 1_554 S
H239 C248 0.950 1_545 S
H240 C250 0.950 . S
H241 C252 0.950 1_556 S
H242 C254 0.977 . S
H243 C255 0.950 . S
C244 H236 0.950 . S
C244 C245 1.386 . S
C244 C246 1.391 . S
C245 C244 1.386 . S
C245 C249 1.393 . S
C246 H238 0.950 1_556 S
C246 C244 1.391 . S
C246 C247 1.400 . S
C247 C246 1.400 . S
C247 C248 1.398 . S
C247 C253 1.491 1_566 S
C248 H239 0.950 1_565 S
C248 C247 1.398 . S
C248 C249 1.391 . S
C249 H237 0.950 . S
C249 C245 1.393 . S
C249 C248 1.391 . S
C250 H240 0.950 . S
C250 C251 1.386 . S
C250 C252 1.391 . S
C251 C250 1.386 . S
C251 C255 1.393 . S
C252 H241 0.950 1_554 S
C252 C250 1.391 . S
C252 C253 1.400 . S
C253 C247 1.491 1_544 S
C253 C252 1.400 . S
C253 C254 1.391 1_545 S
C254 H242 0.977 . S
C254 C253 1.391 1_565 S
C254 C255 1.373 1_565 S
C255 H243 0.950 . S
C255 C251 1.393 . S
C255 C254 1.373 1_545 S
H256 C264 0.950 . S
H257 C269 0.950 . S
H258 C266 0.950 . S
H259 C268 0.950 . S
H260 C270 0.950 1_556 S
H261 C272 0.950 . S
H262 C274 0.950 . S
H263 C275 0.950 . S
C264 H256 0.950 . S
C264 C265 1.386 . S
C264 C266 1.391 . S
C265 C264 1.386 . S
C265 C269 1.393 . S
C266 H258 0.950 . S
C266 C264 1.391 . S
C266 C267 1.400 . S
C267 C266 1.400 . S
C267 C268 1.398 . S
C267 C273 1.491 . S
C268 H259 0.950 . S
C268 C267 1.398 . S
C268 C269 1.391 . S
C269 H257 0.950 . S
C269 C265 1.393 . S
C269 C268 1.391 . S
C270 H260 0.950 1_554 S
C270 C271 1.386 . S
C270 C272 1.391 . S
C271 C270 1.386 . S
C271 C275 1.393 . S
C272 H261 0.950 . S
C272 C270 1.391 . S
C272 C273 1.400 . S
C273 C267 1.491 . S
C273 C272 1.400 . S
C273 C274 1.398 . S
C274 H262 0.950 . S
C274 C273 1.398 . S
C274 C275 1.391 . S
C275 H263 0.950 . S
C275 C271 1.393 . S
C275 C274 1.391 . S
H276 C284 0.950 . S
H277 C289 0.950 . S
H278 C286 0.950 1_455 S
H279 C288 0.950 . S
H280 C290 0.950 . S
H281 C292 0.950 . S
H282 C294 0.950 . S
H283 C295 0.950 . S
C284 H276 0.950 . S
C284 C285 1.386 . S
C284 C286 1.391 . S
C285 C284 1.386 . S
C285 C289 1.393 . S
C286 H278 0.950 1_655 S
C286 C284 1.391 . S
C286 C287 1.400 . S
C287 C286 1.400 . S
C287 C288 1.398 . S
C287 C293 1.491 1_655 S
C288 H279 0.950 . S
C288 C287 1.398 . S
C288 C289 1.391 . S
C289 H277 0.950 . S
C289 C285 1.393 . S
C289 C288 1.391 . S
C290 H280 0.950 . S
C290 C291 1.386 . S
C290 C292 1.391 . S
C291 C290 1.386 . S
C291 C295 1.393 . S
C292 H281 0.950 . S
C292 C290 1.391 . S
C292 C293 1.400 . S
C293 C287 1.491 1_455 S
C293 C292 1.400 . S
C293 C294 1.398 . S
C294 H282 0.950 . S
C294 C293 1.398 . S
C294 C295 1.391 . S
C295 H283 0.950 . S
C295 C291 1.393 . S
C295 C294 1.391 . S
H296 C304 0.950 . S
H297 C309 0.950 . S
H298 C306 0.950 1_565 S
H299 C308 0.950 . S
H300 C310 0.950 . S
H301 C312 0.950 . S
H302 C314 0.950 . S
H303 C315 0.950 . S
C304 H296 0.950 . S
C304 C305 1.386 . S
C304 C306 1.391 . S
C305 C304 1.386 . S
C305 C309 1.393 . S
C306 H298 0.950 1_545 S
C306 C304 1.391 . S
C306 C307 1.400 . S
C307 C306 1.400 . S
C307 C308 1.398 . S
C307 C313 1.491 1_545 S
C308 H299 0.950 . S
C308 C307 1.398 . S
C308 C309 1.391 . S
C309 H297 0.950 . S
C309 C305 1.393 . S
C309 C308 1.391 . S
C310 H300 0.950 . S
C310 C311 1.386 . S
C310 C312 1.391 1_565 S
C311 C310 1.386 . S
C311 C315 1.393 . S
C312 H301 0.950 . S
C312 C310 1.391 1_545 S
C312 C313 1.400 1_545 S
C313 C307 1.491 1_565 S
C313 C312 1.400 1_565 S
C313 C314 1.398 . S
C314 H302 0.950 . S
C314 C313 1.398 . S
C314 C315 1.391 . S
C315 H303 0.950 . S
C315 C311 1.393 . S
C315 C314 1.391 . S
H316 C324 0.950 . S
H317 C329 0.950 . S
H318 C326 0.950 . S
H319 C328 0.950 . S
H320 C330 0.950 . S
H321 C332 0.950 . S
H322 C334 0.950 . S
H323 C335 0.950 . S
C324 H316 0.950 . S
C324 C325 1.386 . S
C324 C326 1.391 . S
C325 C324 1.386 . S
C325 C329 1.393 . S
C326 H318 0.950 . S
C326 C324 1.391 . S
C326 C327 1.400 . S
C327 C326 1.400 . S
C327 C328 1.398 . S
C327 C333 1.491 . S
C328 H319 0.950 . S
C328 C327 1.398 . S
C328 C329 1.391 . S
C329 H317 0.950 . S
C329 C325 1.393 . S
C329 C328 1.391 . S
C330 H320 0.950 . S
C330 C331 1.386 . S
C330 C332 1.391 . S
C331 C330 1.386 . S
C331 C335 1.393 . S
C332 H321 0.950 . S
C332 C330 1.391 . S
C332 C333 1.400 . S
C333 C327 1.491 . S
C333 C332 1.400 . S
C333 C334 1.398 . S
C334 H322 0.950 . S
C334 C333 1.398 . S
C334 C335 1.391 . S
C335 H323 0.950 . S
C335 C331 1.393 . S
C335 C334 1.391 . S
H336 C344 0.950 . S
H337 C349 0.950 . S
H338 C346 0.950 . S
H339 C348 0.950 . S
H340 C350 0.950 . S
H341 C352 0.950 . S
H342 C354 0.950 . S
H343 C355 0.950 . S
C344 H336 0.950 . S
C344 C345 1.386 . S
C344 C346 1.391 . S
C345 C344 1.386 . S
C345 C349 1.393 . S
C346 H338 0.950 . S
C346 C344 1.391 . S
C346 C347 1.400 . S
C347 C346 1.400 . S
C347 C348 1.398 . S
C347 C353 1.491 . S
C348 H339 0.950 . S
C348 C347 1.398 . S
C348 C349 1.391 . S
C349 H337 0.950 . S
C349 C345 1.393 . S
C349 C348 1.391 . S
C350 H340 0.950 . S
C350 C351 1.386 . S
C350 C352 1.391 . S
C351 C350 1.386 . S
C351 C355 1.393 . S
C352 H341 0.950 . S
C352 C350 1.391 . S
C352 C353 1.400 . S
C353 C347 1.491 . S
C353 C352 1.400 . S
C353 C354 1.398 . S
C354 H342 0.950 . S
C354 C353 1.398 . S
C354 C355 1.391 . S
C355 H343 0.950 . S
C355 C351 1.393 . S
C355 C354 1.391 . S
H356 C364 0.950 . S
H357 C369 0.950 . S
H358 C366 0.950 . S
H359 C368 0.950 . S
H360 C370 0.950 . S
H361 C372 0.950 . S
H362 C374 0.950 . S
H363 C375 0.950 . S
C364 H356 0.950 . S
C364 C365 1.386 . S
C364 C366 1.391 . S
C365 C364 1.386 . S
C365 C369 1.393 . S
C366 H358 0.950 . S
C366 C364 1.391 . S
C366 C367 1.400 . S
C367 C366 1.400 . S
C367 C368 1.398 . S
C367 C373 1.491 . S
C368 H359 0.950 . S
C368 C367 1.398 . S
C368 C369 1.391 . S
C369 H357 0.950 . S
C369 C365 1.393 . S
C369 C368 1.391 . S
C370 H360 0.950 . S
C370 C371 1.386 . S
C370 C372 1.391 . S
C371 C370 1.386 . S
C371 C375 1.393 . S
C372 H361 0.950 . S
C372 C370 1.391 . S
C372 C373 1.400 . S
C373 C367 1.491 . S
C373 C372 1.400 . S
C373 C374 1.398 . S
C374 H362 0.950 . S
C374 C373 1.398 . S
C374 C375 1.391 . S
C375 H363 0.950 . S
C375 C371 1.393 . S
C375 C374 1.391 . S
H376 C384 0.950 . S
H377 C389 0.950 . S
H378 C386 0.950 . S
H379 C388 0.950 . S
H380 C390 0.950 . S
H381 C392 0.950 . S
H382 C394 0.950 . S
H383 C395 0.950 . S
C384 H376 0.950 . S
C384 C385 1.386 . S
C384 C386 1.391 . S
C385 C384 1.386 . S
C385 C389 1.393 . S
C386 H378 0.950 . S
C386 C384 1.391 . S
C386 C387 1.400 . S
C387 C386 1.400 . S
C387 C388 1.398 . S
C387 C393 1.491 . S
C388 H379 0.950 . S
C388 C387 1.398 . S
C388 C389 1.391 . S
C389 H377 0.950 . S
C389 C385 1.393 . S
C389 C388 1.391 . S
C390 H380 0.950 . S
C390 C391 1.386 . S
C390 C392 1.391 . S
C391 C390 1.386 . S
C391 C395 1.393 . S
C392 H381 0.950 . S
C392 C390 1.391 . S
C392 C393 1.400 . S
C393 C387 1.491 . S
C393 C392 1.400 . S
C393 C394 1.398 . S
C394 H382 0.950 . S
C394 C393 1.398 . S
C394 C395 1.391 . S
C395 H383 0.950 . S
C395 C391 1.393 . S
C395 C394 1.391 . S
H396 C404 0.950 . S
H397 C409 0.950 . S
H398 C406 0.950 . S
H399 C408 0.950 . S
H400 C410 0.950 . S
H401 C412 0.950 . S
H402 C414 0.950 . S
H403 C415 0.950 . S
C404 H396 0.950 . S
C404 C405 1.386 . S
C404 C406 1.391 . S
C405 C404 1.386 . S
C405 C409 1.393 . S
C406 H398 0.950 . S
C406 C404 1.391 . S
C406 C407 1.400 . S
C407 C406 1.400 . S
C407 C408 1.398 . S
C407 C413 1.491 . S
C408 H399 0.950 . S
C408 C407 1.398 . S
C408 C409 1.391 . S
C409 H397 0.950 . S
C409 C405 1.393 . S
C409 C408 1.391 . S
C410 H400 0.950 . S
C410 C411 1.386 . S
C410 C412 1.391 . S
C411 C410 1.386 . S
C411 C415 1.393 . S
C412 H401 0.950 . S
C412 C410 1.391 . S
C412 C413 1.400 . S
C413 C407 1.491 . S
C413 C412 1.400 . S
C413 C414 1.398 . S
C414 H402 0.950 . S
C414 C413 1.398 . S
C414 C415 1.391 . S
C415 H403 0.950 . S
C415 C411 1.393 . S
C415 C414 1.391 . S
H416 C424 0.950 . S
H417 C429 0.950 . S
H418 C426 0.950 . S
H419 C428 0.950 . S
H420 C430 0.950 . S
H421 C432 0.950 . S
H422 C434 0.950 . S
H423 C435 0.950 . S
C424 H416 0.950 . S
C424 C425 1.386 . S
C424 C426 1.391 . S
C425 C424 1.386 . S
C425 C429 1.393 . S
C426 H418 0.950 . S
C426 C424 1.391 . S
C426 C427 1.400 . S
C427 C426 1.400 . S
C427 C428 1.398 . S
C427 C433 1.491 . S
C428 H419 0.950 . S
C428 C427 1.398 . S
C428 C429 1.391 . S
C429 H417 0.950 . S
C429 C425 1.393 . S
C429 C428 1.391 . S
C430 H420 0.950 . S
C430 C431 1.386 1_556 S
C430 C432 1.391 . S
C431 C430 1.386 1_554 S
C431 C435 1.393 . S
C432 H421 0.950 . S
C432 C430 1.391 . S
C432 C433 1.400 . S
C433 C427 1.491 . S
C433 C432 1.400 . S
C433 C434 1.398 . S
C434 H422 0.950 . S
C434 C433 1.398 . S
C434 C435 1.391 1_556 S
C435 H423 0.950 . S
C435 C431 1.393 . S
C435 C434 1.391 1_554 S
H436 C444 0.950 . S
H437 C449 0.950 . S
H438 C446 0.950 . S
H439 C448 0.950 . S
H440 C450 0.950 . S
H441 C452 0.950 . S
H442 C454 0.950 . S
H443 C455 0.950 . S
C444 H436 0.950 . S
C444 C445 1.386 . S
C444 C446 1.391 1_556 S
C445 C444 1.386 . S
C445 C449 1.393 1_556 S
C446 H438 0.950 . S
C446 C444 1.391 1_554 S
C446 C447 1.400 . S
C447 C446 1.400 . S
C447 C448 1.398 . S
C447 C453 1.491 . S
C448 H439 0.950 . S
C448 C447 1.398 . S
C448 C449 1.391 . S
C449 H437 0.950 . S
C449 C445 1.393 1_554 S
C449 C448 1.391 . S
C450 H440 0.950 . S
C450 C451 1.386 . S
C450 C452 1.391 . S
C451 C450 1.386 . S
C451 C455 1.393 . S
C452 H441 0.950 . S
C452 C450 1.391 . S
C452 C453 1.400 . S
C453 C447 1.491 . S
C453 C452 1.400 . S
C453 C454 1.398 . S
C454 H442 0.950 . S
C454 C453 1.398 . S
C454 C455 1.391 . S
C455 H443 0.950 . S
C455 C451 1.393 . S
C455 C454 1.391 . S
C225 C4 1.214 . S
C231 C122 1.224 . S
C245 C158 1.221 . S
C251 C40 1.214 . S
C265 C76 1.215 . S
C271 C194 1.226 1_554 S
C285 C112 1.221 . S
C291 C14 1.235 . S
C305 C50 1.234 . S
C311 C148 1.241 . S
C325 C184 1.235 . S
C331 C86 1.241 . S
C345 C3 1.237 . S
C351 C74 1.221 . S
C365 C39 1.249 . S
C371 C110 1.233 . S
C385 C146 1.230 . S
C391 C75 1.251 . S
C405 C182 1.214 . S
C411 C111 1.251 . S
C425 C147 1.245 . S
C431 C2 1.211 . S
C445 C183 1.244 . S
C451 C38 1.238 . S
