# Generated by pormake.
# Topology yfg, (5)-cn, num edge types: 1
# Building blocks:
#     Node 0, Type 0, BuildingBlock: XOMCOT_clean_sbu_0, # of connection points: 5
#     Node 1, Type 0, BuildingBlock: XOMCOT_clean_sbu_0, # of connection points: 5
#     Node 2, Type 0, BuildingBlock: XOMCOT_clean_sbu_0, # of connection points: 5
#     Node 3, Type 0, BuildingBlock: XOMCOT_clean_sbu_0, # of connection points: 5
#     Node 4, Type 0, BuildingBlock: XOMCOT_clean_sbu_0, # of connection points: 5
#     Node 5, Type 0, BuildingBlock: XOMCOT_clean_sbu_0, # of connection points: 5
#     Node 6, Type 0, BuildingBlock: XOMCOT_clean_sbu_0, # of connection points: 5
#     Node 7, Type 0, BuildingBlock: XOMCOT_clean_sbu_0, # of connection points: 5
#     Edge 8, Type (0, 0), BuildingBlock: AJUNOK_clean_linker_0, # of connection points: 2
#     Edge 9, Type (0, 0), BuildingBlock: AJUNOK_clean_linker_0, # of connection points: 2
#     Edge 10, Type (0, 0), BuildingBlock: AJUNOK_clean_linker_0, # of connection points: 2
#     Edge 11, Type (0, 0), BuildingBlock: AJUNOK_clean_linker_0, # of connection points: 2
#     Edge 12, Type (0, 0), BuildingBlock: AJUNOK_clean_linker_0, # of connection points: 2
#     Edge 13, Type (0, 0), BuildingBlock: AJUNOK_clean_linker_0, # of connection points: 2
#     Edge 14, Type (0, 0), BuildingBlock: AJUNOK_clean_linker_0, # of connection points: 2
#     Edge 15, Type (0, 0), BuildingBlock: AJUNOK_clean_linker_0, # of connection points: 2
#     Edge 16, Type (0, 0), BuildingBlock: AJUNOK_clean_linker_0, # of connection points: 2
#     Edge 17, Type (0, 0), BuildingBlock: AJUNOK_clean_linker_0, # of connection points: 2
#     Edge 18, Type (0, 0), BuildingBlock: AJUNOK_clean_linker_0, # of connection points: 2
#     Edge 19, Type (0, 0), BuildingBlock: AJUNOK_clean_linker_0, # of connection points: 2
#     Edge 20, Type (0, 0), BuildingBlock: AJUNOK_clean_linker_0, # of connection points: 2
#     Edge 21, Type (0, 0), BuildingBlock: AJUNOK_clean_linker_0, # of connection points: 2
#     Edge 22, Type (0, 0), BuildingBlock: AJUNOK_clean_linker_0, # of connection points: 2
#     Edge 23, Type (0, 0), BuildingBlock: AJUNOK_clean_linker_0, # of connection points: 2
#     Edge 24, Type (0, 0), BuildingBlock: AJUNOK_clean_linker_0, # of connection points: 2
#     Edge 25, Type (0, 0), BuildingBlock: AJUNOK_clean_linker_0, # of connection points: 2
#     Edge 26, Type (0, 0), BuildingBlock: AJUNOK_clean_linker_0, # of connection points: 2
#     Edge 27, Type (0, 0), BuildingBlock: AJUNOK_clean_linker_0, # of connection points: 2
# Relax obj value: 0.347
# Max RMSD: 0.198
# Mean RMSD: 0.198
data_MOF--net-yfg--node1-XOMCOT_clean_sbu_0--edge1-AJUNOK_clean_linker_0
_symmetry_space_group_name_H-M    P1
_symmetry_Int_Tables_number       1
_symmetry_cell_setting            triclinic
loop_
_symmetry_equiv_pos_as_xyz
'x, y, z'
_cell_length_a     26.736167
_cell_length_b     26.455081
_cell_length_c     33.494074
_cell_angle_alpha  89.966033
_cell_angle_beta   90.291092
_cell_angle_gamma 90.265874
loop_
_atom_site_label
_atom_site_type_symbol
_atom_site_fract_x
_atom_site_fract_y
_atom_site_fract_z
_atom_type_partial_charge
Co0 Co 0.26585 0.52326 0.06221 0.0
C1 C 0.29983 0.56593 0.9856 0.0
C2 C 0.34161 0.49957 1.00047 0.0
C3 C 0.36211 0.52135 0.96675 0.0
N4 N 0.30246 0.52764 0.01229 0.0
N5 N 0.33576 0.56321 0.95748 0.0
H6 H 0.27376 0.59685 0.98779 0.0
H7 H 0.35637 0.46735 0.0164 0.0
C8 C 0.28719 0.42439 0.1033 0.0
O9 O 0.24255 0.42086 0.11929 0.0
N10 N 0.22883 0.52163 0.11162 0.0
C11 C 0.17884 0.52481 0.11624 0.0
C12 C 0.16826 0.52478 0.15623 0.0
C13 C 0.24799 0.52196 0.14892 0.0
N14 N 0.21171 0.52268 0.17673 0.0
C15 C 0.17963 0.53599 0.01329 0.0
C16 C 0.13699 0.4425 0.02801 0.0
C17 C 0.1076 0.48077 0.01123 0.0
C18 C 0.13012 0.52705 1.00196 0.0
C19 C 0.18708 0.45258 0.03787 0.0
N20 N 0.2066 0.50007 0.03315 0.0
H21 H 0.19468 0.57342 0.00898 0.0
H22 H 0.2086 0.42303 0.05149 0.0
H23 H 0.15153 0.52754 0.09254 0.0
H24 H 0.28765 0.522 0.15534 0.0
O25 O 0.25456 0.59617 0.06143 0.0
O26 O 0.31982 0.55698 0.08842 0.0
O27 O 0.29418 0.45291 0.0727 0.0
C28 C 0.29676 0.59885 0.0809 0.0
H29 H 0.39597 0.50924 0.95209 0.0
H30 H 0.13127 0.52563 0.16919 0.0
H31 H 0.12086 0.40591 0.03491 0.0
H32 H 0.10851 0.55745 0.98886 0.0
Co33 Co 0.49842 0.28181 0.30991 0.0
C34 C 0.44222 0.33473 0.24458 0.0
C35 C 0.52106 0.33185 0.23361 0.0
C36 C 0.49773 0.35264 0.20069 0.0
N37 N 0.48642 0.32076 0.26133 0.0
N38 N 0.44803 0.35476 0.20754 0.0
H39 H 0.4063 0.32932 0.25865 0.0
H40 H 0.56039 0.32297 0.23618 0.0
C41 C 0.60185 0.29927 0.34131 0.0
O42 O 0.60923 0.25145 0.35002 0.0
N43 N 0.50873 0.24157 0.3578 0.0
C44 C 0.50437 0.19087 0.36147 0.0
C45 C 0.51171 0.17776 0.40069 0.0
C46 C 0.51712 0.25861 0.39524 0.0
N47 N 0.51982 0.22037 0.42164 0.0
C48 C 0.47608 0.19551 0.26277 0.0
C49 C 0.57054 0.15378 0.26475 0.0
C50 C 0.52934 0.12213 0.25668 0.0
C51 C 0.48211 0.1446 0.25301 0.0
C52 C 0.56273 0.20476 0.27436 0.0
N53 N 0.51534 0.22344 0.27703 0.0
H54 H 0.4388 0.21095 0.26256 0.0
H55 H 0.59461 0.22801 0.28144 0.0
H56 H 0.49522 0.16478 0.33783 0.0
H57 H 0.52205 0.29803 0.40294 0.0
O58 O 0.42684 0.26966 0.31687 0.0
O59 O 0.47035 0.33404 0.34176 0.0
O60 O 0.5694 0.31071 0.31433 0.0
C61 C 0.42836 0.30949 0.33971 0.0
H62 H 0.51595 0.3627 0.17303 0.0
H63 H 0.50966 0.14003 0.41313 0.0
H64 H 0.60818 0.13889 0.26531 0.0
H65 H 0.44924 0.12228 0.24581 0.0
Co66 Co 0.74216 0.50847 0.55435 0.0
C67 C 0.69901 0.45287 0.48526 0.0
C68 C 0.66862 0.52749 0.48926 0.0
C69 C 0.64659 0.50274 0.4572 0.0
N70 N 0.70139 0.49606 0.50694 0.0
N71 N 0.66545 0.45553 0.4548 0.0
H72 H 0.72186 0.42024 0.4915 0.0
H73 H 0.66079 0.56551 0.49917 0.0
C74 C 0.66811 0.57271 0.59143 0.0
O75 O 0.69494 0.60611 0.57177 0.0
N76 N 0.78399 0.51722 0.60146 0.0
C77 C 0.82513 0.48905 0.6076 0.0
C78 C 0.84064 0.4945 0.64625 0.0
C79 C 0.77522 0.53994 0.63697 0.0
N80 N 0.80974 0.52689 0.66491 0.0
C81 C 0.82578 0.47684 0.50414 0.0
C82 C 0.87424 0.56788 0.51862 0.0
C83 C 0.90194 0.52841 0.50153 0.0
C84 C 0.87584 0.48312 0.49238 0.0
C85 C 0.82378 0.56129 0.52695 0.0
N86 N 0.80136 0.5155 0.52231 0.0
H87 H 0.80799 0.44031 0.501 0.0
H88 H 0.80391 0.59107 0.54222 0.0
H89 H 0.84049 0.46272 0.58633 0.0
H90 H 0.74318 0.56328 0.64306 0.0
O91 O 0.74592 0.43339 0.565 0.0
O92 O 0.6886 0.48008 0.58881 0.0
O93 O 0.67934 0.52529 0.58751 0.0
C94 C 0.70806 0.43574 0.58762 0.0
H95 H 0.61798 0.51804 0.43773 0.0
H96 H 0.8699 0.47247 0.66014 0.0
H97 H 0.89138 0.60249 0.52895 0.0
H98 H 0.89445 0.45161 0.47837 0.0
Co99 Co 0.50364 0.74096 0.81134 0.0
C100 C 0.54792 0.68141 0.74443 0.0
C101 C 0.46875 0.66975 0.74875 0.0
C102 C 0.48655 0.64077 0.71777 0.0
N103 N 0.50724 0.69498 0.76586 0.0
N104 N 0.53635 0.64796 0.71517 0.0
H105 H 0.58532 0.69563 0.74989 0.0
H106 H 0.43001 0.67266 0.75744 0.0
C107 C 0.40443 0.72294 0.85239 0.0
O108 O 0.40173 0.7692 0.86641 0.0
N109 N 0.50222 0.7873 0.85619 0.0
C110 C 0.52107 0.83449 0.85538 0.0
C111 C 0.52732 0.85136 0.89372 0.0
C112 C 0.49831 0.77583 0.89534 0.0
N113 N 0.51229 0.81477 0.91928 0.0
C114 C 0.51472 0.81869 0.75356 0.0
C115 C 0.42777 0.86857 0.77367 0.0
C116 C 0.46655 0.89573 0.75564 0.0
C117 C 0.50905 0.86959 0.74305 0.0
C118 C 0.43472 0.81755 0.78309 0.0
N119 N 0.47974 0.79489 0.77657 0.0
H120 H 0.54983 0.80034 0.74729 0.0
H121 H 0.40538 0.79813 0.79856 0.0
H122 H 0.53395 0.85383 0.82897 0.0
H123 H 0.48713 0.73882 0.90576 0.0
O124 O 0.57541 0.75424 0.80925 0.0
O125 O 0.53819 0.69348 0.84418 0.0
O126 O 0.43468 0.71264 0.82403 0.0
C127 C 0.57885 0.71792 0.83541 0.0
H128 H 0.46426 0.61759 0.6978 0.0
H129 H 0.5455 0.88656 0.9012 0.0
H130 H 0.39389 0.88746 0.78294 0.0
H131 H 0.53954 0.8894 0.72859 0.0
Co132 Co 0.28119 0.49732 0.45769 0.0
C133 C 0.32079 0.45188 0.53169 0.0
C134 C 0.36322 0.51788 0.51648 0.0
C135 C 0.38615 0.49398 0.54853 0.0
N136 N 0.32208 0.49131 0.50591 0.0
N137 N 0.35967 0.45201 0.55762 0.0
H138 H 0.29311 0.42212 0.53045 0.0
H139 H 0.37741 0.55057 0.50072 0.0
C140 C 0.29909 0.59646 0.41569 0.0
O141 O 0.25179 0.60051 0.4055 0.0
N142 N 0.24002 0.49966 0.41013 0.0
C143 C 0.19016 0.4921 0.4076 0.0
C144 C 0.17609 0.49373 0.36817 0.0
C145 C 0.2559 0.50305 0.3721 0.0
N146 N 0.21746 0.50075 0.34606 0.0
C147 C 0.19905 0.48726 0.51106 0.0
C148 C 0.15324 0.57576 0.48812 0.0
C149 C 0.12322 0.53726 0.50501 0.0
C150 C 0.1488 0.49496 0.52042 0.0
C151 C 0.20464 0.56838 0.48307 0.0
N152 N 0.22519 0.52207 0.48943 0.0
H153 H 0.21522 0.45112 0.51808 0.0
H154 H 0.22656 0.59885 0.47134 0.0
H155 H 0.16553 0.48498 0.4324 0.0
H156 H 0.29457 0.50898 0.36385 0.0
O157 O 0.26652 0.42501 0.45913 0.0
O158 O 0.33086 0.46191 0.42871 0.0
O159 O 0.3115 0.56706 0.44479 0.0
C160 C 0.30622 0.421 0.43702 0.0
H161 H 0.42128 0.50486 0.56234 0.0
H162 H 0.13844 0.48961 0.35654 0.0
H163 H 0.13824 0.61021 0.47607 0.0
H164 H 0.12973 0.46564 0.53698 0.0
Co165 Co 0.52359 0.27491 0.70509 0.0
C166 C 0.57087 0.32233 0.77615 0.0
C167 C 0.4912 0.32997 0.77797 0.0
C168 C 0.51157 0.35153 0.81205 0.0
N169 N 0.52857 0.31197 0.75527 0.0
N170 N 0.56177 0.3463 0.81098 0.0
H171 H 0.60791 0.31335 0.76581 0.0
H172 H 0.45186 0.32726 0.77062 0.0
C173 C 0.4252 0.29185 0.66525 0.0
O174 O 0.42303 0.24481 0.65283 0.0
N175 N 0.52142 0.23662 0.6557 0.0
C176 C 0.52619 0.18605 0.65175 0.0
C177 C 0.52998 0.17438 0.61205 0.0
C178 C 0.52333 0.255 0.6181 0.0
N179 N 0.52878 0.21774 0.59107 0.0
C180 C 0.53776 0.18637 0.75228 0.0
C181 C 0.44264 0.14704 0.74168 0.0
C182 C 0.48094 0.11501 0.75473 0.0
C183 C 0.52828 0.1359 0.76233 0.0
C184 C 0.4535 0.19764 0.73289 0.0
N185 N 0.50159 0.21524 0.73468 0.0
H186 H 0.57538 0.20083 0.75551 0.0
H187 H 0.42351 0.22139 0.72286 0.0
H188 H 0.52813 0.15897 0.67572 0.0
H189 H 0.52193 0.29481 0.61071 0.0
O190 O 0.59586 0.26413 0.70449 0.0
O191 O 0.55541 0.32944 0.67808 0.0
O192 O 0.4539 0.30316 0.69481 0.0
C193 C 0.5972 0.30622 0.6842 0.0
H194 H 0.49093 0.3692 0.83596 0.0
H195 H 0.53329 0.13681 0.5996 0.0
H196 H 0.40511 0.13259 0.73689 0.0
H197 H 0.55867 0.11251 0.77306 0.0
Co198 Co 0.73882 0.5401 0.94732 0.0
C199 C 0.68678 0.58685 0.01701 0.0
C200 C 0.68724 0.50603 0.02043 0.0
C201 C 0.66704 0.52497 0.0552 0.0
N202 N 0.69948 0.54479 0.99624 0.0
N203 N 0.66651 0.57598 0.05309 0.0
H204 H 0.69352 0.6249 1.0066 0.0
H205 H 0.69501 0.46673 0.01427 0.0
C206 C 0.71622 0.43891 0.90819 0.0
O207 O 0.76072 0.43674 0.89191 0.0
N208 N 0.78014 0.53823 0.8997 0.0
C209 C 0.82775 0.55505 0.89935 0.0
C210 C 0.84348 0.55956 0.8608 0.0
C211 C 0.76718 0.53396 0.86066 0.0
N212 N 0.80601 0.54509 0.83614 0.0
C213 C 0.82233 0.54731 1.00035 0.0
C214 C 0.8604 0.45247 0.98447 0.0
C215 C 0.8916 0.48898 1.00174 0.0
C216 C 0.87135 0.53589 0.01196 0.0
C217 C 0.81142 0.46521 0.97397 0.0
N218 N 0.7946 0.51353 0.97863 0.0
H219 H 0.80839 0.58498 1.00552 0.0
H220 H 0.78855 0.43667 0.96036 0.0
H221 H 0.84878 0.56719 0.92521 0.0
H222 H 0.73002 0.52364 0.85055 0.0
O223 O 0.75375 0.61249 0.94926 0.0
O224 O 0.68917 0.57603 0.91835 0.0
O225 O 0.70683 0.47162 0.93538 0.0
C226 C 0.71427 0.61671 0.92647 0.0
H227 H 0.65639 0.50265 0.08087 0.0
H228 H 0.87897 0.57566 0.85206 0.0
H229 H 0.87458 0.4153 0.97724 0.0
H230 H 0.89438 0.56479 0.02585 0.0
Co231 Co 0.49816 0.74353 0.20139 0.0
C232 C 0.44489 0.69666 0.27022 0.0
C233 C 0.52064 0.67098 0.26737 0.0
C234 C 0.4978 0.64881 0.30001 0.0
N235 N 0.48739 0.70096 0.24847 0.0
N236 N 0.45 0.6647 0.30168 0.0
H237 H 0.41101 0.71725 0.26364 0.0
H238 H 0.55896 0.66535 0.25837 0.0
C239 C 0.60091 0.72666 0.16854 0.0
O240 O 0.60854 0.77365 0.15729 0.0
N241 N 0.50594 0.78734 0.15515 0.0
C242 C 0.48963 0.83541 0.15336 0.0
C243 C 0.49068 0.85167 0.11465 0.0
C244 C 0.51543 0.77468 0.11678 0.0
N245 N 0.50787 0.81393 0.0915 0.0
C246 C 0.4766 0.82648 0.25242 0.0
C247 C 0.56962 0.87196 0.24646 0.0
C248 C 0.52841 0.90148 0.25697 0.0
C249 C 0.48208 0.87757 0.2623 0.0
C250 C 0.56234 0.82102 0.23644 0.0
N251 N 0.51538 0.80037 0.23605 0.0
H252 H 0.43969 0.80983 0.25343 0.0
H253 H 0.59397 0.79979 0.22632 0.0
H254 H 0.47391 0.8564 0.17776 0.0
H255 H 0.52632 0.73714 0.10758 0.0
O256 O 0.42607 0.75361 0.19521 0.0
O257 O 0.47073 0.6925 0.16769 0.0
O258 O 0.56939 0.71714 0.19638 0.0
C259 C 0.42809 0.71508 0.17101 0.0
H260 H 0.51486 0.6223 0.32053 0.0
H261 H 0.47599 0.8874 0.10439 0.0
H262 H 0.60627 0.88897 0.24298 0.0
H263 H 0.44959 0.89907 0.27116 0.0
C264 C 0.1814 0.53656 0.28502 0.0
C265 C 0.21909 0.50832 0.30375 0.0
C266 C 0.18055 0.54268 0.24368 0.0
C267 C 0.21692 0.52012 0.21942 0.0
H268 H 0.15237 0.55415 0.30256 0.0
H269 H 0.15079 0.5649 0.23059 0.0
S270 S 0.32453 0.44326 0.25446 0.0
N271 N 0.29501 0.45942 0.29566 0.0
N272 N 0.2924 0.46884 0.21746 0.0
C273 C 0.2557 0.49273 0.23793 0.0
C274 C 0.25699 0.48729 0.28026 0.0
C275 C 0.49784 0.25736 0.48657 0.0
C276 C 0.52678 0.22385 0.46393 0.0
C277 C 0.50012 0.25673 0.52834 0.0
C278 C 0.53149 0.22261 0.54851 0.0
H279 H 0.47166 0.28241 0.47201 0.0
H280 H 0.47563 0.28138 0.54497 0.0
S281 S 0.62139 0.13421 0.5022 0.0
N282 N 0.59188 0.16037 0.46407 0.0
N283 N 0.59711 0.15974 0.54266 0.0
C284 C 0.56298 0.19138 0.52601 0.0
C285 C 0.56033 0.1918 0.48364 0.0
C286 C 0.7646 0.54517 0.72796 0.0
C287 C 0.80968 0.53735 0.70733 0.0
C288 C 0.76353 0.54772 0.7699 0.0
C289 C 0.80758 0.54308 0.79291 0.0
H290 H 0.72961 0.54785 0.71177 0.0
H291 H 0.72785 0.55331 0.7843 0.0
S292 S 0.9361 0.52636 0.75285 0.0
N293 N 0.90006 0.53045 0.71294 0.0
N294 N 0.89788 0.53068 0.79111 0.0
C295 C 0.85307 0.53656 0.77238 0.0
C296 C 0.85418 0.53511 0.72984 0.0
C297 C 0.50852 0.76993 0.98453 0.0
C298 C 0.51342 0.81537 0.96268 0.0
C299 C 0.50751 0.76956 0.02637 0.0
C300 C 0.51234 0.81447 0.04848 0.0
H301 H 0.5051 0.73394 0.96957 0.0
H302 H 0.50188 0.73375 0.04132 0.0
S303 S 0.53047 0.94354 0.00701 0.0
N304 N 0.52352 0.90696 0.96758 0.0
N305 N 0.52729 0.90515 0.04564 0.0
C306 C 0.51964 0.8599 0.02733 0.0
C307 C 0.51883 0.86064 0.9847 0.0
C308 C 0.02337 0.47216 0.04245 0.0
C309 C 0.05261 0.47544 0.00767 0.0
C310 C 0.97094 0.4754 0.04053 0.0
C311 C 0.94625 0.48102 1.0037 0.0
H312 H 0.04131 0.46937 0.07144 0.0
H313 H 0.94968 0.4745 0.06797 0.0
S314 S 1.00548 0.48976 0.90412 0.0
N315 N 0.05299 0.48379 0.9355 0.0
N316 N 0.95449 0.48847 0.93176 0.0
C317 C 0.97495 0.48267 0.9687 0.0
C318 C 0.02818 0.48025 0.9707 0.0
C319 C 0.50637 0.03786 0.22674 0.0
C320 C 0.53406 0.06583 0.2551 0.0
C321 C 0.5051 0.98485 0.22767 0.0
C322 C 0.5318 0.9575 0.25672 0.0
H323 H 0.4849 0.05712 0.20388 0.0
H324 H 0.48288 0.96498 0.20548 0.0
S325 S 0.60984 1.01146 0.33788 0.0
N326 N 0.58841 0.06132 0.31362 0.0
N327 N 0.58718 0.96159 0.31414 0.0
C328 C 0.56065 0.9845 0.28461 0.0
C329 C 0.56153 0.03863 0.28407 0.0
C330 C 0.03993 0.49118 0.50425 0.0
C331 C 0.06645 0.5376 0.50349 0.0
C332 C 0.98763 0.48873 0.5029 0.0
C333 C 0.95815 0.53227 0.49821 0.0
H334 H 0.0592 0.45543 0.50576 0.0
H335 H 0.97057 0.45186 0.5064 0.0
S336 S 0.00726 0.66366 0.48859 0.0
N337 N 0.0572 0.62911 0.49743 0.0
N338 N 0.96024 0.62328 0.48685 0.0
C339 C 0.98389 0.57885 0.49429 0.0
C340 C 0.03733 0.58181 0.49867 0.0
C341 C 0.45973 0.03275 0.72162 0.0
C342 C 0.47317 0.05945 0.75652 0.0
C343 C 0.45691 0.97964 0.72135 0.0
C344 C 0.46653 0.95169 0.75617 0.0
H345 H 0.45295 0.05304 0.69402 0.0
H346 H 0.44773 0.96032 0.69374 0.0
S347 S 0.50114 1.0033 0.85546 0.0
N348 N 0.49521 0.05379 0.82678 0.0
N349 N 0.48864 0.95424 0.82654 0.0
C350 C 0.47875 0.97793 0.79139 0.0
C351 C 0.48242 0.03177 0.79151 0.0
C352 C 0.40037 0.68471 0.10518 0.0
C353 C 0.38726 0.70046 0.14384 0.0
C354 C 0.3667 0.65782 0.08135 0.0
C355 C 0.31889 0.64586 0.09541 0.0
H356 H 0.43822 0.68977 0.09441 0.0
H357 H 0.37994 0.64173 0.05358 0.0
S358 S 0.26281 0.68742 0.19056 0.0
N359 N 0.32068 0.70972 0.19235 0.0
N360 N 0.25708 0.65796 0.14728 0.0
C361 C 0.30321 0.66647 0.13184 0.0
C362 C 0.33762 0.69423 0.15625 0.0
C363 C 0.40364 0.33388 0.40734 0.0
C364 C 0.38881 0.32212 0.36813 0.0
C365 C 0.37165 0.35865 0.43335 0.0
C366 C 0.3241 0.37354 0.42062 0.0
H367 H 0.44174 0.32801 0.41698 0.0
H368 H 0.3866 0.37194 0.46163 0.0
S369 S 0.26384 0.34341 0.32364 0.0
N370 N 0.32071 0.31956 0.31992 0.0
N371 N 0.26043 0.3686 0.36872 0.0
C372 C 0.30655 0.35708 0.38316 0.0
C373 C 0.33913 0.33081 0.35672 0.0
C374 C 0.65659 0.31323 0.62844 0.0
C375 C 0.64245 0.32806 0.66712 0.0
C376 C 0.68217 0.3469 0.60315 0.0
C377 C 0.69311 0.39625 0.61597 0.0
H378 H 0.64341 0.27757 0.61632 0.0
H379 H 0.68928 0.33591 0.57255 0.0
S380 S 0.67023 0.45001 0.71642 0.0
N381 N 0.6464 0.39244 0.71839 0.0
N382 N 0.69395 0.45587 0.67121 0.0
C383 C 0.68319 0.40956 0.65573 0.0
C384 C 0.65798 0.37526 0.68134 0.0
C385 C 0.65397 0.68477 0.9258 0.0
C386 C 0.69704 0.66401 0.90895 0.0
C387 C 0.61757 0.70696 0.90159 0.0
C388 C 0.62362 0.70978 0.85996 0.0
H389 H 0.64514 0.67777 0.95687 0.0
H390 H 0.5826 0.71782 0.9152 0.0
S391 S 0.73526 0.67194 0.80297 0.0
N392 N 0.74805 0.6556 0.84955 0.0
N393 N 0.6795 0.69864 0.80388 0.0
C394 C 0.6695 0.69586 0.84354 0.0
C395 C 0.70652 0.67277 0.86826 0.0
C396 C 0.32292 0.36455 0.15445 0.0
C397 C 0.33067 0.40331 0.12616 0.0
C398 C 0.36127 0.34869 0.18052 0.0
C399 C 0.40917 0.37115 0.17989 0.0
H400 H 0.28651 0.34674 0.15697 0.0
H401 H 0.35315 0.31862 0.20146 0.0
S402 S 0.44841 0.47633 0.11316 0.0
N403 N 0.39007 0.46443 0.0998 0.0
N404 N 0.46135 0.43587 0.14925 0.0
C405 C 0.41749 0.40995 0.1517 0.0
C406 C 0.37857 0.42566 0.1248 0.0
C407 C 0.62022 0.39075 0.35976 0.0
C408 C 0.62138 0.33896 0.36969 0.0
C409 C 0.6351 0.4284 0.38737 0.0
C410 C 0.65136 0.41612 0.4264 0.0
H411 H 0.60751 0.4024 0.33042 0.0
H412 H 0.63389 0.46753 0.378 0.0
S413 S 0.65681 0.28663 0.46914 0.0
N414 N 0.63846 0.27792 0.42256 0.0
N415 N 0.66407 0.34821 0.47416 0.0
C416 C 0.65192 0.36457 0.4369 0.0
C417 C 0.63755 0.32626 0.40873 0.0
C418 C 0.60522 0.65893 0.667 0.0
C419 C 0.56929 0.62766 0.68508 0.0
C420 C 0.63604 0.64085 0.63641 0.0
C421 C 0.6329 0.5904 0.62289 0.0
H422 H 0.60888 0.69805 0.67608 0.0
H423 H 0.66301 0.66677 0.62358 0.0
S424 S 0.54626 0.49225 0.66191 0.0
N425 N 0.53306 0.5433 0.68817 0.0
N426 N 0.59126 0.50911 0.63095 0.0
C427 C 0.59756 0.55842 0.6412 0.0
C428 C 0.56568 0.57709 0.67213 0.0
C429 C 0.34062 0.65327 0.93757 0.0
C430 C 0.34849 0.60193 0.92859 0.0
C431 C 0.35617 0.6918 0.9116 0.0
C432 C 0.38055 0.68093 0.8754 0.0
H433 H 0.32413 0.66408 0.96572 0.0
H434 H 0.35075 0.73055 0.92096 0.0
S435 S 0.40525 0.55226 0.83574 0.0
N436 N 0.37826 0.54206 0.87926 0.0
N437 N 0.40832 0.61427 0.83065 0.0
C438 C 0.38667 0.62958 0.86518 0.0
C439 C 0.37064 0.59024 0.89172 0.0
C440 C 0.38812 0.62306 0.39837 0.0
C441 C 0.33766 0.61634 0.38708 0.0
C442 C 0.42453 0.63928 0.37057 0.0
C443 C 0.41212 0.64911 0.33024 0.0
H444 H 0.39961 0.61573 0.42888 0.0
H445 H 0.46271 0.64433 0.38077 0.0
S446 S 0.28716 0.6306 0.28389 0.0
N447 N 0.27852 0.61744 0.33145 0.0
N448 N 0.34671 0.64616 0.27993 0.0
C449 C 0.3622 0.64131 0.31843 0.0
C450 C 0.32517 0.62539 0.34658 0.0
C451 C 0.39565 0.423 0.6224 0.0
C452 C 0.37369 0.41192 0.58506 0.0
C453 C 0.4103 0.38425 0.64895 0.0
C454 C 0.40376 0.33269 0.63922 0.0
H455 H 0.40165 0.46198 0.6311 0.0
H456 H 0.42782 0.39488 0.67695 0.0
S457 S 0.35117 0.28359 0.54356 0.0
N458 N 0.34873 0.34556 0.53891 0.0
N459 N 0.37465 0.27328 0.58844 0.0
C460 C 0.38165 0.32133 0.60184 0.0
C461 C 0.36711 0.36069 0.5749 0.0
C462 C 0.62692 0.43226 0.88509 0.0
C463 C 0.67449 0.41009 0.88919 0.0
C464 C 0.58971 0.41038 0.86064 0.0
C465 C 0.59841 0.36523 0.83949 0.0
H466 H 0.61922 0.4683 0.89907 0.0
H467 H 0.55471 0.43024 0.85687 0.0
S468 S 0.71375 0.2877 0.84582 0.0
N469 N 0.72638 0.33784 0.87347 0.0
N470 N 0.65617 0.29568 0.82902 0.0
C471 C 0.64471 0.34099 0.84559 0.0
C472 C 0.68274 0.36365 0.87003 0.0
C473 C 0.65911 0.69552 0.1151 0.0
C474 C 0.62087 0.68501 0.14279 0.0
C475 C 0.67412 0.65973 0.08653 0.0
C476 C 0.6514 0.61163 0.08388 0.0
H477 H 0.67723 0.73222 0.11496 0.0
H478 H 0.70382 0.6701 0.06625 0.0
S479 S 0.54868 0.56496 0.14889 0.0
N480 N 0.56093 0.62224 0.16589 0.0
N481 N 0.58776 0.55588 0.11161 0.0
C482 C 0.61347 0.60028 0.11174 0.0
C483 C 0.59861 0.63661 0.14124 0.0
loop_
_geom_bond_atom_site_label_1
_geom_bond_atom_site_label_2
_geom_bond_distance
_geom_bond_site_symmetry_2
_ccdc_geom_bond_type
Co0 N4 2.148 . S
Co0 N10 2.128 . S
Co0 N20 2.194 . S
Co0 O25 2.351 . S
Co0 O26 2.155 . S
Co0 O27 2.096 . S
C1 N4 1.301 1_556 S
C1 N5 1.328 . S
C1 H6 0.930 . S
C2 C3 1.333 1_554 S
C2 N4 1.317 . S
C2 H7 0.930 . S
C3 C2 1.333 1_556 S
C3 N5 1.350 . S
C3 H29 0.931 . S
N4 Co0 2.148 . S
N4 C1 1.301 1_554 S
N4 C2 1.317 . S
N5 C1 1.328 . S
N5 C3 1.350 . S
H6 C1 0.930 . S
H7 C2 0.930 . S
C8 O9 1.224 . S
C8 O27 1.247 . S
O9 C8 1.224 . S
N10 Co0 2.128 . S
N10 C11 1.355 . S
N10 C13 1.311 . S
C11 N10 1.355 . S
C11 C12 1.363 . S
C11 H23 0.929 . S
C12 C11 1.363 . S
C12 N14 1.375 . S
C12 H30 0.931 . S
C13 N10 1.311 . S
C13 N14 1.347 . S
C13 H24 0.929 . S
N14 C12 1.375 . S
N14 C13 1.347 . S
C15 C18 1.365 . S
C15 N20 1.328 . S
C15 H21 0.929 . S
C16 C17 1.362 . S
C16 C19 1.378 . S
C16 H31 0.929 . S
C17 C16 1.362 . S
C17 C18 1.366 . S
C18 C15 1.365 . S
C18 C17 1.366 . S
C18 H32 0.930 . S
C19 C16 1.378 . S
C19 N20 1.315 . S
C19 H22 0.930 . S
N20 Co0 2.194 . S
N20 C15 1.328 . S
N20 C19 1.315 . S
H21 C15 0.929 . S
H22 C19 0.930 . S
H23 C11 0.929 . S
H24 C13 0.929 . S
O25 Co0 2.351 . S
O25 C28 1.244 . S
O26 Co0 2.155 . S
O26 C28 1.240 . S
O27 Co0 2.096 . S
O27 C8 1.247 . S
C28 O25 1.244 . S
C28 O26 1.240 . S
H29 C3 0.931 . S
H30 C12 0.931 . S
H31 C16 0.929 . S
H32 C18 0.930 . S
Co33 N37 2.148 . S
Co33 N43 2.128 . S
Co33 N53 2.194 . S
Co33 O58 2.351 . S
Co33 O59 2.155 . S
Co33 O60 2.096 . S
C34 N37 1.301 . S
C34 N38 1.328 . S
C34 H39 0.930 . S
C35 C36 1.333 . S
C35 N37 1.317 . S
C35 H40 0.930 . S
C36 C35 1.333 . S
C36 N38 1.350 . S
C36 H62 0.931 . S
N37 Co33 2.148 . S
N37 C34 1.301 . S
N37 C35 1.317 . S
N38 C34 1.328 . S
N38 C36 1.350 . S
H39 C34 0.930 . S
H40 C35 0.930 . S
C41 O42 1.224 . S
C41 O60 1.247 . S
O42 C41 1.224 . S
N43 Co33 2.128 . S
N43 C44 1.355 . S
N43 C46 1.311 . S
C44 N43 1.355 . S
C44 C45 1.363 . S
C44 H56 0.929 . S
C45 C44 1.363 . S
C45 N47 1.375 . S
C45 H63 0.931 . S
C46 N43 1.311 . S
C46 N47 1.347 . S
C46 H57 0.929 . S
N47 C45 1.375 . S
N47 C46 1.347 . S
C48 C51 1.365 . S
C48 N53 1.328 . S
C48 H54 0.929 . S
C49 C50 1.362 . S
C49 C52 1.378 . S
C49 H64 0.929 . S
C50 C49 1.362 . S
C50 C51 1.366 . S
C51 C48 1.365 . S
C51 C50 1.366 . S
C51 H65 0.930 . S
C52 C49 1.378 . S
C52 N53 1.315 . S
C52 H55 0.930 . S
N53 Co33 2.194 . S
N53 C48 1.328 . S
N53 C52 1.315 . S
H54 C48 0.929 . S
H55 C52 0.930 . S
H56 C44 0.929 . S
H57 C46 0.929 . S
O58 Co33 2.351 . S
O58 C61 1.244 . S
O59 Co33 2.155 . S
O59 C61 1.240 . S
O60 Co33 2.096 . S
O60 C41 1.247 . S
C61 O58 1.244 . S
C61 O59 1.240 . S
H62 C36 0.931 . S
H63 C45 0.931 . S
H64 C49 0.929 . S
H65 C51 0.930 . S
Co66 N70 2.148 . S
Co66 N76 2.128 . S
Co66 N86 2.194 . S
Co66 O91 2.351 . S
Co66 O92 2.155 . S
Co66 O93 2.096 . S
C67 N70 1.301 . S
C67 N71 1.328 . S
C67 H72 0.930 . S
C68 C69 1.333 . S
C68 N70 1.317 . S
C68 H73 0.930 . S
C69 C68 1.333 . S
C69 N71 1.350 . S
C69 H95 0.931 . S
N70 Co66 2.148 . S
N70 C67 1.301 . S
N70 C68 1.317 . S
N71 C67 1.328 . S
N71 C69 1.350 . S
H72 C67 0.930 . S
H73 C68 0.930 . S
C74 O75 1.224 . S
C74 O93 1.247 . S
O75 C74 1.224 . S
N76 Co66 2.128 . S
N76 C77 1.355 . S
N76 C79 1.311 . S
C77 N76 1.355 . S
C77 C78 1.363 . S
C77 H89 0.929 . S
C78 C77 1.363 . S
C78 N80 1.375 . S
C78 H96 0.931 . S
C79 N76 1.311 . S
C79 N80 1.347 . S
C79 H90 0.929 . S
N80 C78 1.375 . S
N80 C79 1.347 . S
C81 C84 1.365 . S
C81 N86 1.328 . S
C81 H87 0.929 . S
C82 C83 1.362 . S
C82 C85 1.378 . S
C82 H97 0.929 . S
C83 C82 1.362 . S
C83 C84 1.366 . S
C84 C81 1.365 . S
C84 C83 1.366 . S
C84 H98 0.930 . S
C85 C82 1.378 . S
C85 N86 1.315 . S
C85 H88 0.930 . S
N86 Co66 2.194 . S
N86 C81 1.328 . S
N86 C85 1.315 . S
H87 C81 0.929 . S
H88 C85 0.930 . S
H89 C77 0.929 . S
H90 C79 0.929 . S
O91 Co66 2.351 . S
O91 C94 1.244 . S
O92 Co66 2.155 . S
O92 C94 1.240 . S
O93 Co66 2.096 . S
O93 C74 1.247 . S
C94 O91 1.244 . S
C94 O92 1.240 . S
H95 C69 0.931 . S
H96 C78 0.931 . S
H97 C82 0.929 . S
H98 C84 0.930 . S
Co99 N103 2.148 . S
Co99 N109 2.128 . S
Co99 N119 2.194 . S
Co99 O124 2.351 . S
Co99 O125 2.155 . S
Co99 O126 2.096 . S
C100 N103 1.301 . S
C100 N104 1.328 . S
C100 H105 0.930 . S
C101 C102 1.333 . S
C101 N103 1.317 . S
C101 H106 0.930 . S
C102 C101 1.333 . S
C102 N104 1.350 . S
C102 H128 0.931 . S
N103 Co99 2.148 . S
N103 C100 1.301 . S
N103 C101 1.317 . S
N104 C100 1.328 . S
N104 C102 1.350 . S
H105 C100 0.930 . S
H106 C101 0.930 . S
C107 O108 1.224 . S
C107 O126 1.247 . S
O108 C107 1.224 . S
N109 Co99 2.128 . S
N109 C110 1.355 . S
N109 C112 1.311 . S
C110 N109 1.355 . S
C110 C111 1.363 . S
C110 H122 0.929 . S
C111 C110 1.363 . S
C111 N113 1.375 . S
C111 H129 0.931 . S
C112 N109 1.311 . S
C112 N113 1.347 . S
C112 H123 0.929 . S
N113 C111 1.375 . S
N113 C112 1.347 . S
C114 C117 1.365 . S
C114 N119 1.328 . S
C114 H120 0.929 . S
C115 C116 1.362 . S
C115 C118 1.378 . S
C115 H130 0.929 . S
C116 C115 1.362 . S
C116 C117 1.366 . S
C117 C114 1.365 . S
C117 C116 1.366 . S
C117 H131 0.930 . S
C118 C115 1.378 . S
C118 N119 1.315 . S
C118 H121 0.930 . S
N119 Co99 2.194 . S
N119 C114 1.328 . S
N119 C118 1.315 . S
H120 C114 0.929 . S
H121 C118 0.930 . S
H122 C110 0.929 . S
H123 C112 0.929 . S
O124 Co99 2.351 . S
O124 C127 1.244 . S
O125 Co99 2.155 . S
O125 C127 1.240 . S
O126 Co99 2.096 . S
O126 C107 1.247 . S
C127 O124 1.244 . S
C127 O125 1.240 . S
H128 C102 0.931 . S
H129 C111 0.931 . S
H130 C115 0.929 . S
H131 C117 0.930 . S
Co132 N136 2.148 . S
Co132 N142 2.128 . S
Co132 N152 2.194 . S
Co132 O157 2.351 . S
Co132 O158 2.155 . S
Co132 O159 2.096 . S
C133 N136 1.301 . S
C133 N137 1.328 . S
C133 H138 0.930 . S
C134 C135 1.333 . S
C134 N136 1.317 . S
C134 H139 0.930 . S
C135 C134 1.333 . S
C135 N137 1.350 . S
C135 H161 0.931 . S
N136 Co132 2.148 . S
N136 C133 1.301 . S
N136 C134 1.317 . S
N137 C133 1.328 . S
N137 C135 1.350 . S
H138 C133 0.930 . S
H139 C134 0.930 . S
C140 O141 1.224 . S
C140 O159 1.247 . S
O141 C140 1.224 . S
N142 Co132 2.128 . S
N142 C143 1.355 . S
N142 C145 1.311 . S
C143 N142 1.355 . S
C143 C144 1.363 . S
C143 H155 0.929 . S
C144 C143 1.363 . S
C144 N146 1.375 . S
C144 H162 0.931 . S
C145 N142 1.311 . S
C145 N146 1.347 . S
C145 H156 0.929 . S
N146 C144 1.375 . S
N146 C145 1.347 . S
C147 C150 1.365 . S
C147 N152 1.328 . S
C147 H153 0.929 . S
C148 C149 1.362 . S
C148 C151 1.378 . S
C148 H163 0.929 . S
C149 C148 1.362 . S
C149 C150 1.366 . S
C150 C147 1.365 . S
C150 C149 1.366 . S
C150 H164 0.930 . S
C151 C148 1.378 . S
C151 N152 1.315 . S
C151 H154 0.930 . S
N152 Co132 2.194 . S
N152 C147 1.328 . S
N152 C151 1.315 . S
H153 C147 0.929 . S
H154 C151 0.930 . S
H155 C143 0.929 . S
H156 C145 0.929 . S
O157 Co132 2.351 . S
O157 C160 1.244 . S
O158 Co132 2.155 . S
O158 C160 1.240 . S
O159 Co132 2.096 . S
O159 C140 1.247 . S
C160 O157 1.244 . S
C160 O158 1.240 . S
H161 C135 0.931 . S
H162 C144 0.931 . S
H163 C148 0.929 . S
H164 C150 0.930 . S
Co165 N169 2.148 . S
Co165 N175 2.128 . S
Co165 N185 2.194 . S
Co165 O190 2.351 . S
Co165 O191 2.155 . S
Co165 O192 2.096 . S
C166 N169 1.301 . S
C166 N170 1.328 . S
C166 H171 0.930 . S
C167 C168 1.333 . S
C167 N169 1.317 . S
C167 H172 0.930 . S
C168 C167 1.333 . S
C168 N170 1.350 . S
C168 H194 0.931 . S
N169 Co165 2.148 . S
N169 C166 1.301 . S
N169 C167 1.317 . S
N170 C166 1.328 . S
N170 C168 1.350 . S
H171 C166 0.930 . S
H172 C167 0.930 . S
C173 O174 1.224 . S
C173 O192 1.247 . S
O174 C173 1.224 . S
N175 Co165 2.128 . S
N175 C176 1.355 . S
N175 C178 1.311 . S
C176 N175 1.355 . S
C176 C177 1.363 . S
C176 H188 0.929 . S
C177 C176 1.363 . S
C177 N179 1.375 . S
C177 H195 0.931 . S
C178 N175 1.311 . S
C178 N179 1.347 . S
C178 H189 0.929 . S
N179 C177 1.375 . S
N179 C178 1.347 . S
C180 C183 1.365 . S
C180 N185 1.328 . S
C180 H186 0.929 . S
C181 C182 1.362 . S
C181 C184 1.378 . S
C181 H196 0.929 . S
C182 C181 1.362 . S
C182 C183 1.366 . S
C183 C180 1.365 . S
C183 C182 1.366 . S
C183 H197 0.930 . S
C184 C181 1.378 . S
C184 N185 1.315 . S
C184 H187 0.930 . S
N185 Co165 2.194 . S
N185 C180 1.328 . S
N185 C184 1.315 . S
H186 C180 0.929 . S
H187 C184 0.930 . S
H188 C176 0.929 . S
H189 C178 0.929 . S
O190 Co165 2.351 . S
O190 C193 1.244 . S
O191 Co165 2.155 . S
O191 C193 1.240 . S
O192 Co165 2.096 . S
O192 C173 1.247 . S
C193 O190 1.244 . S
C193 O191 1.240 . S
H194 C168 0.931 . S
H195 C177 0.931 . S
H196 C181 0.929 . S
H197 C183 0.930 . S
Co198 N202 2.148 . S
Co198 N208 2.128 . S
Co198 N218 2.194 . S
Co198 O223 2.351 . S
Co198 O224 2.155 . S
Co198 O225 2.096 . S
C199 N202 1.301 1_554 S
C199 N203 1.328 . S
C199 H204 0.930 . S
C200 C201 1.333 1_556 S
C200 N202 1.317 . S
C200 H205 0.930 . S
C201 C200 1.333 1_554 S
C201 N203 1.350 . S
C201 H227 0.931 . S
N202 Co198 2.148 . S
N202 C199 1.301 1_556 S
N202 C200 1.317 . S
N203 C199 1.328 . S
N203 C201 1.350 . S
H204 C199 0.930 . S
H205 C200 0.930 . S
C206 O207 1.224 . S
C206 O225 1.247 . S
O207 C206 1.224 . S
N208 Co198 2.128 . S
N208 C209 1.355 . S
N208 C211 1.311 . S
C209 N208 1.355 . S
C209 C210 1.363 . S
C209 H221 0.929 . S
C210 C209 1.363 . S
C210 N212 1.375 . S
C210 H228 0.931 . S
C211 N208 1.311 . S
C211 N212 1.347 . S
C211 H222 0.929 . S
N212 C210 1.375 . S
N212 C211 1.347 . S
C213 C216 1.365 . S
C213 N218 1.328 . S
C213 H219 0.929 . S
C214 C215 1.362 . S
C214 C217 1.378 . S
C214 H229 0.929 . S
C215 C214 1.362 . S
C215 C216 1.366 . S
C216 C213 1.365 . S
C216 C215 1.366 . S
C216 H230 0.930 . S
C217 C214 1.378 . S
C217 N218 1.315 . S
C217 H220 0.930 . S
N218 Co198 2.194 . S
N218 C213 1.328 . S
N218 C217 1.315 . S
H219 C213 0.929 . S
H220 C217 0.930 . S
H221 C209 0.929 . S
H222 C211 0.929 . S
O223 Co198 2.351 . S
O223 C226 1.244 . S
O224 Co198 2.155 . S
O224 C226 1.240 . S
O225 Co198 2.096 . S
O225 C206 1.247 . S
C226 O223 1.244 . S
C226 O224 1.240 . S
H227 C201 0.931 . S
H228 C210 0.931 . S
H229 C214 0.929 . S
H230 C216 0.930 . S
Co231 N235 2.148 . S
Co231 N241 2.128 . S
Co231 N251 2.194 . S
Co231 O256 2.351 . S
Co231 O257 2.155 . S
Co231 O258 2.096 . S
C232 N235 1.301 . S
C232 N236 1.328 . S
C232 H237 0.930 . S
C233 C234 1.333 . S
C233 N235 1.317 . S
C233 H238 0.930 . S
C234 C233 1.333 . S
C234 N236 1.350 . S
C234 H260 0.931 . S
N235 Co231 2.148 . S
N235 C232 1.301 . S
N235 C233 1.317 . S
N236 C232 1.328 . S
N236 C234 1.350 . S
H237 C232 0.930 . S
H238 C233 0.930 . S
C239 O240 1.224 . S
C239 O258 1.247 . S
O240 C239 1.224 . S
N241 Co231 2.128 . S
N241 C242 1.355 . S
N241 C244 1.311 . S
C242 N241 1.355 . S
C242 C243 1.363 . S
C242 H254 0.929 . S
C243 C242 1.363 . S
C243 N245 1.375 . S
C243 H261 0.931 . S
C244 N241 1.311 . S
C244 N245 1.347 . S
C244 H255 0.929 . S
N245 C243 1.375 . S
N245 C244 1.347 . S
C246 C249 1.365 . S
C246 N251 1.328 . S
C246 H252 0.929 . S
C247 C248 1.362 . S
C247 C250 1.378 . S
C247 H262 0.929 . S
C248 C247 1.362 . S
C248 C249 1.366 . S
C249 C246 1.365 . S
C249 C248 1.366 . S
C249 H263 0.930 . S
C250 C247 1.378 . S
C250 N251 1.315 . S
C250 H253 0.930 . S
N251 Co231 2.194 . S
N251 C246 1.328 . S
N251 C250 1.315 . S
H252 C246 0.929 . S
H253 C250 0.930 . S
H254 C242 0.929 . S
H255 C244 0.929 . S
O256 Co231 2.351 . S
O256 C259 1.244 . S
O257 Co231 2.155 . S
O257 C259 1.240 . S
O258 Co231 2.096 . S
O258 C239 1.247 . S
C259 O256 1.244 . S
C259 O257 1.240 . S
H260 C234 0.931 . S
H261 C243 0.931 . S
H262 C247 0.929 . S
H263 C249 0.930 . S
C264 C265 1.369 . S
C264 C266 1.419 . S
C264 H268 0.930 . S
C265 C264 1.369 . S
C265 C274 1.429 . S
C266 C264 1.419 . S
C266 C267 1.363 . S
C266 H269 0.929 . S
C267 C266 1.363 . S
C267 C273 1.428 . S
H268 C264 0.930 . S
H269 C266 0.929 . S
S270 N271 1.613 . S
S270 N272 1.610 . S
N271 S270 1.613 . S
N271 C274 1.350 . S
N272 S270 1.610 . S
N272 C273 1.351 . S
C273 C267 1.428 . S
C273 N272 1.351 . S
C273 C274 1.434 . S
C274 C265 1.429 . S
C274 N271 1.350 . S
C274 C273 1.434 . S
C275 C276 1.369 . S
C275 C277 1.419 . S
C275 H279 0.930 . S
C276 C275 1.369 . S
C276 C285 1.429 . S
C277 C275 1.419 . S
C277 C278 1.363 . S
C277 H280 0.929 . S
C278 C277 1.363 . S
C278 C284 1.428 . S
H279 C275 0.930 . S
H280 C277 0.929 . S
S281 N282 1.613 . S
S281 N283 1.610 . S
N282 S281 1.613 . S
N282 C285 1.350 . S
N283 S281 1.610 . S
N283 C284 1.351 . S
C284 C278 1.428 . S
C284 N283 1.351 . S
C284 C285 1.434 . S
C285 C276 1.429 . S
C285 N282 1.350 . S
C285 C284 1.434 . S
C286 C287 1.369 . S
C286 C288 1.419 . S
C286 H290 0.930 . S
C287 C286 1.369 . S
C287 C296 1.429 . S
C288 C286 1.419 . S
C288 C289 1.363 . S
C288 H291 0.929 . S
C289 C288 1.363 . S
C289 C295 1.428 . S
H290 C286 0.930 . S
H291 C288 0.929 . S
S292 N293 1.613 . S
S292 N294 1.610 . S
N293 S292 1.613 . S
N293 C296 1.350 . S
N294 S292 1.610 . S
N294 C295 1.351 . S
C295 C289 1.428 . S
C295 N294 1.351 . S
C295 C296 1.434 . S
C296 C287 1.429 . S
C296 N293 1.350 . S
C296 C295 1.434 . S
C297 C298 1.369 . S
C297 C299 1.419 1_556 S
C297 H301 0.930 . S
C298 C297 1.369 . S
C298 C307 1.429 . S
C299 C297 1.419 1_554 S
C299 C300 1.363 . S
C299 H302 0.929 . S
C300 C299 1.363 . S
C300 C306 1.428 . S
H301 C297 0.930 . S
H302 C299 0.929 . S
S303 N304 1.624 . S
S303 N305 1.600 1_556 S
N304 S303 1.624 . S
N304 C307 1.350 . S
N305 S303 1.600 1_554 S
N305 C306 1.351 . S
C306 C300 1.428 . S
C306 N305 1.351 . S
C306 C307 1.434 1_554 S
C307 C298 1.429 . S
C307 N304 1.350 . S
C307 C306 1.434 1_556 S
C308 C309 1.369 . S
C308 C310 1.419 1_455 S
C308 H312 0.930 . S
C309 C308 1.369 . S
C309 C318 1.429 1_554 S
C310 C308 1.419 1_655 S
C310 C311 1.363 1_554 S
C310 H313 0.929 . S
C311 C310 1.363 1_556 S
C311 C317 1.428 . S
H312 C308 0.930 . S
H313 C310 0.929 . S
S314 N315 1.613 . S
S314 N316 1.610 1_455 S
N315 S314 1.613 . S
N315 C318 1.350 . S
N316 S314 1.610 1_655 S
N316 C317 1.351 . S
C317 C311 1.428 . S
C317 N316 1.351 . S
C317 C318 1.434 1_655 S
C318 C309 1.429 1_556 S
C318 N315 1.350 . S
C318 C317 1.434 1_455 S
C319 C320 1.369 . S
C319 C321 1.419 1_545 S
C319 H323 0.930 . S
C320 C319 1.369 . S
C320 C329 1.429 . S
C321 C319 1.419 1_565 S
C321 C322 1.363 . S
C321 H324 0.929 . S
C322 C321 1.363 . S
C322 C328 1.428 . S
H323 C319 0.930 . S
H324 C321 0.929 . S
S325 N326 1.613 1_565 S
S325 N327 1.610 . S
N326 S325 1.613 1_545 S
N326 C329 1.350 . S
N327 S325 1.610 . S
N327 C328 1.351 . S
C328 C322 1.428 . S
C328 N327 1.351 . S
C328 C329 1.434 1_565 S
C329 C320 1.429 . S
C329 N326 1.350 . S
C329 C328 1.434 1_545 S
C330 C331 1.369 . S
C330 C332 1.419 1_455 S
C330 H334 0.930 . S
C331 C330 1.369 . S
C331 C340 1.429 . S
C332 C330 1.419 1_655 S
C332 C333 1.363 . S
C332 H335 0.929 . S
C333 C332 1.363 . S
C333 C339 1.428 . S
H334 C330 0.930 . S
H335 C332 0.929 . S
S336 N337 1.628 . S
S336 N338 1.595 1_455 S
N337 S336 1.628 . S
N337 C340 1.350 . S
N338 S336 1.595 1_655 S
N338 C339 1.351 . S
C339 C333 1.428 . S
C339 N338 1.351 . S
C339 C340 1.434 1_655 S
C340 C331 1.429 . S
C340 N337 1.350 . S
C340 C339 1.434 1_455 S
C341 C342 1.369 . S
C341 C343 1.419 1_545 S
C341 H345 0.930 . S
C342 C341 1.369 . S
C342 C351 1.429 . S
C343 C341 1.419 1_565 S
C343 C344 1.363 . S
C343 H346 0.929 . S
C344 C343 1.363 . S
C344 C350 1.428 . S
H345 C341 0.930 . S
H346 C343 0.929 . S
S347 N348 1.613 . S
S347 N349 1.610 1_545 S
N348 S347 1.613 . S
N348 C351 1.350 . S
N349 S347 1.610 1_565 S
N349 C350 1.351 . S
C350 C344 1.428 . S
C350 N349 1.351 . S
C350 C351 1.434 1_565 S
C351 C342 1.429 . S
C351 N348 1.350 . S
C351 C350 1.434 1_545 S
C352 C353 1.369 . S
C352 C354 1.419 . S
C352 H356 0.930 . S
C353 C352 1.369 . S
C353 C362 1.429 . S
C354 C352 1.419 . S
C354 C355 1.363 . S
C354 H357 0.929 . S
C355 C354 1.363 . S
C355 C361 1.428 . S
H356 C352 0.930 . S
H357 C354 0.929 . S
S358 N359 1.613 . S
S358 N360 1.610 . S
N359 S358 1.613 . S
N359 C362 1.350 . S
N360 S358 1.610 . S
N360 C361 1.351 . S
C361 C355 1.428 . S
C361 N360 1.351 . S
C361 C362 1.434 . S
C362 C353 1.429 . S
C362 N359 1.350 . S
C362 C361 1.434 . S
C363 C364 1.369 . S
C363 C365 1.419 . S
C363 H367 0.930 . S
C364 C363 1.369 . S
C364 C373 1.429 . S
C365 C363 1.419 . S
C365 C366 1.363 . S
C365 H368 0.929 . S
C366 C365 1.363 . S
C366 C372 1.428 . S
H367 C363 0.930 . S
H368 C365 0.929 . S
S369 N370 1.613 . S
S369 N371 1.610 . S
N370 S369 1.613 . S
N370 C373 1.350 . S
N371 S369 1.610 . S
N371 C372 1.351 . S
C372 C366 1.428 . S
C372 N371 1.351 . S
C372 C373 1.434 . S
C373 C364 1.429 . S
C373 N370 1.350 . S
C373 C372 1.434 . S
C374 C375 1.369 . S
C374 C376 1.419 . S
C374 H378 0.930 . S
C375 C374 1.369 . S
C375 C384 1.429 . S
C376 C374 1.419 . S
C376 C377 1.363 . S
C376 H379 0.929 . S
C377 C376 1.363 . S
C377 C383 1.428 . S
H378 C374 0.930 . S
H379 C376 0.929 . S
S380 N381 1.613 . S
S380 N382 1.610 . S
N381 S380 1.613 . S
N381 C384 1.350 . S
N382 S380 1.610 . S
N382 C383 1.351 . S
C383 C377 1.428 . S
C383 N382 1.351 . S
C383 C384 1.434 . S
C384 C375 1.429 . S
C384 N381 1.350 . S
C384 C383 1.434 . S
C385 C386 1.369 . S
C385 C387 1.419 . S
C385 H389 0.930 . S
C386 C385 1.369 . S
C386 C395 1.429 . S
C387 C385 1.419 . S
C387 C388 1.363 . S
C387 H390 0.929 . S
C388 C387 1.363 . S
C388 C394 1.428 . S
H389 C385 0.930 . S
H390 C387 0.929 . S
S391 N392 1.613 . S
S391 N393 1.610 . S
N392 S391 1.613 . S
N392 C395 1.350 . S
N393 S391 1.610 . S
N393 C394 1.351 . S
C394 C388 1.428 . S
C394 N393 1.351 . S
C394 C395 1.434 . S
C395 C386 1.429 . S
C395 N392 1.350 . S
C395 C394 1.434 . S
C396 C397 1.369 . S
C396 C398 1.419 . S
C396 H400 0.930 . S
C397 C396 1.369 . S
C397 C406 1.429 . S
C398 C396 1.419 . S
C398 C399 1.363 . S
C398 H401 0.929 . S
C399 C398 1.363 . S
C399 C405 1.428 . S
H400 C396 0.930 . S
H401 C398 0.929 . S
S402 N403 1.613 . S
S402 N404 1.610 . S
N403 S402 1.613 . S
N403 C406 1.350 . S
N404 S402 1.610 . S
N404 C405 1.351 . S
C405 C399 1.428 . S
C405 N404 1.351 . S
C405 C406 1.434 . S
C406 C397 1.429 . S
C406 N403 1.350 . S
C406 C405 1.434 . S
C407 C408 1.369 . S
C407 C409 1.419 . S
C407 H411 0.930 . S
C408 C407 1.369 . S
C408 C417 1.429 . S
C409 C407 1.419 . S
C409 C410 1.363 . S
C409 H412 0.929 . S
C410 C409 1.363 . S
C410 C416 1.428 . S
H411 C407 0.930 . S
H412 C409 0.929 . S
S413 N414 1.613 . S
S413 N415 1.610 . S
N414 S413 1.613 . S
N414 C417 1.350 . S
N415 S413 1.610 . S
N415 C416 1.351 . S
C416 C410 1.428 . S
C416 N415 1.351 . S
C416 C417 1.434 . S
C417 C408 1.429 . S
C417 N414 1.350 . S
C417 C416 1.434 . S
C418 C419 1.369 . S
C418 C420 1.419 . S
C418 H422 0.930 . S
C419 C418 1.369 . S
C419 C428 1.429 . S
C420 C418 1.419 . S
C420 C421 1.363 . S
C420 H423 0.929 . S
C421 C420 1.363 . S
C421 C427 1.428 . S
H422 C418 0.930 . S
H423 C420 0.929 . S
S424 N425 1.613 . S
S424 N426 1.610 . S
N425 S424 1.613 . S
N425 C428 1.350 . S
N426 S424 1.610 . S
N426 C427 1.351 . S
C427 C421 1.428 . S
C427 N426 1.351 . S
C427 C428 1.434 . S
C428 C419 1.429 . S
C428 N425 1.350 . S
C428 C427 1.434 . S
C429 C430 1.369 . S
C429 C431 1.419 . S
C429 H433 0.930 . S
C430 C429 1.369 . S
C430 C439 1.429 . S
C431 C429 1.419 . S
C431 C432 1.363 . S
C431 H434 0.929 . S
C432 C431 1.363 . S
C432 C438 1.428 . S
H433 C429 0.930 . S
H434 C431 0.929 . S
S435 N436 1.613 . S
S435 N437 1.610 . S
N436 S435 1.613 . S
N436 C439 1.350 . S
N437 S435 1.610 . S
N437 C438 1.351 . S
C438 C432 1.428 . S
C438 N437 1.351 . S
C438 C439 1.434 . S
C439 C430 1.429 . S
C439 N436 1.350 . S
C439 C438 1.434 . S
C440 C441 1.369 . S
C440 C442 1.419 . S
C440 H444 0.930 . S
C441 C440 1.369 . S
C441 C450 1.429 . S
C442 C440 1.419 . S
C442 C443 1.363 . S
C442 H445 0.929 . S
C443 C442 1.363 . S
C443 C449 1.428 . S
H444 C440 0.930 . S
H445 C442 0.929 . S
S446 N447 1.613 . S
S446 N448 1.610 . S
N447 S446 1.613 . S
N447 C450 1.350 . S
N448 S446 1.610 . S
N448 C449 1.351 . S
C449 C443 1.428 . S
C449 N448 1.351 . S
C449 C450 1.434 . S
C450 C441 1.429 . S
C450 N447 1.350 . S
C450 C449 1.434 . S
C451 C452 1.369 . S
C451 C453 1.419 . S
C451 H455 0.930 . S
C452 C451 1.369 . S
C452 C461 1.429 . S
C453 C451 1.419 . S
C453 C454 1.363 . S
C453 H456 0.929 . S
C454 C453 1.363 . S
C454 C460 1.428 . S
H455 C451 0.930 . S
H456 C453 0.929 . S
S457 N458 1.613 . S
S457 N459 1.610 . S
N458 S457 1.613 . S
N458 C461 1.350 . S
N459 S457 1.610 . S
N459 C460 1.351 . S
C460 C454 1.428 . S
C460 N459 1.351 . S
C460 C461 1.434 . S
C461 C452 1.429 . S
C461 N458 1.350 . S
C461 C460 1.434 . S
C462 C463 1.369 . S
C462 C464 1.419 . S
C462 H466 0.930 . S
C463 C462 1.369 . S
C463 C472 1.429 . S
C464 C462 1.419 . S
C464 C465 1.363 . S
C464 H467 0.929 . S
C465 C464 1.363 . S
C465 C471 1.428 . S
H466 C462 0.930 . S
H467 C464 0.929 . S
S468 N469 1.613 . S
S468 N470 1.610 . S
N469 S468 1.613 . S
N469 C472 1.350 . S
N470 S468 1.610 . S
N470 C471 1.351 . S
C471 C465 1.428 . S
C471 N470 1.351 . S
C471 C472 1.434 . S
C472 C463 1.429 . S
C472 N469 1.350 . S
C472 C471 1.434 . S
C473 C474 1.369 . S
C473 C475 1.419 . S
C473 H477 0.930 . S
C474 C473 1.369 . S
C474 C483 1.429 . S
C475 C473 1.419 . S
C475 C476 1.363 . S
C475 H478 0.929 . S
C476 C475 1.363 . S
C476 C482 1.428 . S
H477 C473 0.930 . S
H478 C475 0.929 . S
S479 N480 1.613 . S
S479 N481 1.610 . S
N480 S479 1.613 . S
N480 C483 1.350 . S
N481 S479 1.610 . S
N481 C482 1.351 . S
C482 C476 1.428 . S
C482 N481 1.351 . S
C482 C483 1.434 . S
C483 C474 1.429 . S
C483 N480 1.350 . S
C483 C482 1.434 . S
C265 N146 0.756 . S
C267 N14 0.766 . S
C276 N47 0.769 . S
C278 N179 0.761 . S
C287 N80 0.757 . S
C289 N212 0.769 . S
C298 N113 0.763 . S
C300 N245 0.765 . S
C309 C17 1.207 . S
C311 C215 1.203 . S
C320 C50 1.203 . S
C322 C248 1.206 . S
C331 C149 1.206 . S
C333 C83 1.204 . S
C342 C182 1.207 . S
C344 C116 1.203 . S
C353 C259 0.718 . S
C355 C28 0.702 . S
C364 C61 0.717 . S
C366 C160 0.704 . S
C375 C193 0.701 . S
C377 C94 0.697 . S
C386 C226 0.692 . S
C388 C127 0.715 . S
C397 C8 1.899 . S
C399 N38 1.936 . S
C408 C41 1.897 . S
C410 N71 1.933 . S
C419 N104 1.935 . S
C421 C74 1.898 . S
C430 N5 1.934 . S
C432 C107 1.897 . S
C441 C140 1.897 . S
C443 N236 1.934 . S
C452 N137 1.933 . S
C454 C173 1.898 . S
C463 C206 1.903 . S
C465 N170 1.937 . S
C474 C239 1.897 . S
C476 N203 1.935 . S
