# Generated by pormake.
# Topology upc, (4)-cn, num edge types: 1
# Building blocks:
#     Node 0, Type 0, BuildingBlock: NAWXER_clean_sbu_0, # of connection points: 4
#     Node 1, Type 0, BuildingBlock: NAWXER_clean_sbu_0, # of connection points: 4
#     Node 2, Type 0, BuildingBlock: NAWXER_clean_sbu_0, # of connection points: 4
#     Node 3, Type 0, BuildingBlock: NAWXER_clean_sbu_0, # of connection points: 4
#     Node 4, Type 0, BuildingBlock: NAWXER_clean_sbu_0, # of connection points: 4
#     Node 5, Type 0, BuildingBlock: NAWXER_clean_sbu_0, # of connection points: 4
#     Node 6, Type 0, BuildingBlock: NAWXER_clean_sbu_0, # of connection points: 4
#     Node 7, Type 0, BuildingBlock: NAWXER_clean_sbu_0, # of connection points: 4
#     Node 8, Type 0, BuildingBlock: NAWXER_clean_sbu_0, # of connection points: 4
#     Node 9, Type 0, BuildingBlock: NAWXER_clean_sbu_0, # of connection points: 4
#     Node 10, Type 0, BuildingBlock: NAWXER_clean_sbu_0, # of connection points: 4
#     Node 11, Type 0, BuildingBlock: NAWXER_clean_sbu_0, # of connection points: 4
#     Node 12, Type 0, BuildingBlock: NAWXER_clean_sbu_0, # of connection points: 4
#     Node 13, Type 0, BuildingBlock: NAWXER_clean_sbu_0, # of connection points: 4
#     Node 14, Type 0, BuildingBlock: NAWXER_clean_sbu_0, # of connection points: 4
#     Node 15, Type 0, BuildingBlock: NAWXER_clean_sbu_0, # of connection points: 4
#     Edge 16, Type (0, 0), BuildingBlock: KIFKEQ_clean_linker_1, # of connection points: 2
#     Edge 17, Type (0, 0), BuildingBlock: KIFKEQ_clean_linker_1, # of connection points: 2
#     Edge 18, Type (0, 0), BuildingBlock: KIFKEQ_clean_linker_1, # of connection points: 2
#     Edge 19, Type (0, 0), BuildingBlock: KIFKEQ_clean_linker_1, # of connection points: 2
#     Edge 20, Type (0, 0), BuildingBlock: KIFKEQ_clean_linker_1, # of connection points: 2
#     Edge 21, Type (0, 0), BuildingBlock: KIFKEQ_clean_linker_1, # of connection points: 2
#     Edge 22, Type (0, 0), BuildingBlock: KIFKEQ_clean_linker_1, # of connection points: 2
#     Edge 23, Type (0, 0), BuildingBlock: KIFKEQ_clean_linker_1, # of connection points: 2
#     Edge 24, Type (0, 0), BuildingBlock: KIFKEQ_clean_linker_1, # of connection points: 2
#     Edge 25, Type (0, 0), BuildingBlock: KIFKEQ_clean_linker_1, # of connection points: 2
#     Edge 26, Type (0, 0), BuildingBlock: KIFKEQ_clean_linker_1, # of connection points: 2
#     Edge 27, Type (0, 0), BuildingBlock: KIFKEQ_clean_linker_1, # of connection points: 2
#     Edge 28, Type (0, 0), BuildingBlock: KIFKEQ_clean_linker_1, # of connection points: 2
#     Edge 29, Type (0, 0), BuildingBlock: KIFKEQ_clean_linker_1, # of connection points: 2
#     Edge 30, Type (0, 0), BuildingBlock: KIFKEQ_clean_linker_1, # of connection points: 2
#     Edge 31, Type (0, 0), BuildingBlock: KIFKEQ_clean_linker_1, # of connection points: 2
#     Edge 32, Type (0, 0), BuildingBlock: KIFKEQ_clean_linker_1, # of connection points: 2
#     Edge 33, Type (0, 0), BuildingBlock: KIFKEQ_clean_linker_1, # of connection points: 2
#     Edge 34, Type (0, 0), BuildingBlock: KIFKEQ_clean_linker_1, # of connection points: 2
#     Edge 35, Type (0, 0), BuildingBlock: KIFKEQ_clean_linker_1, # of connection points: 2
#     Edge 36, Type (0, 0), BuildingBlock: KIFKEQ_clean_linker_1, # of connection points: 2
#     Edge 37, Type (0, 0), BuildingBlock: KIFKEQ_clean_linker_1, # of connection points: 2
#     Edge 38, Type (0, 0), BuildingBlock: KIFKEQ_clean_linker_1, # of connection points: 2
#     Edge 39, Type (0, 0), BuildingBlock: KIFKEQ_clean_linker_1, # of connection points: 2
#     Edge 40, Type (0, 0), BuildingBlock: KIFKEQ_clean_linker_1, # of connection points: 2
#     Edge 41, Type (0, 0), BuildingBlock: KIFKEQ_clean_linker_1, # of connection points: 2
#     Edge 42, Type (0, 0), BuildingBlock: KIFKEQ_clean_linker_1, # of connection points: 2
#     Edge 43, Type (0, 0), BuildingBlock: KIFKEQ_clean_linker_1, # of connection points: 2
#     Edge 44, Type (0, 0), BuildingBlock: KIFKEQ_clean_linker_1, # of connection points: 2
#     Edge 45, Type (0, 0), BuildingBlock: KIFKEQ_clean_linker_1, # of connection points: 2
#     Edge 46, Type (0, 0), BuildingBlock: KIFKEQ_clean_linker_1, # of connection points: 2
#     Edge 47, Type (0, 0), BuildingBlock: KIFKEQ_clean_linker_1, # of connection points: 2
# Relax obj value: 0.229
# Max RMSD: 0.220
# Mean RMSD: 0.220
data_MOF--net-upc--node1-NAWXER_clean_sbu_0--edge1-KIFKEQ_clean_linker_1
_symmetry_space_group_name_H-M    P1
_symmetry_Int_Tables_number       1
_symmetry_cell_setting            triclinic
loop_
_symmetry_equiv_pos_as_xyz
'x, y, z'
_cell_length_a     36.346375
_cell_length_b     36.380196
_cell_length_c     42.765167
_cell_angle_alpha  89.94695
_cell_angle_beta   89.987281
_cell_angle_gamma 89.970108
loop_
_atom_site_label
_atom_site_type_symbol
_atom_site_fract_x
_atom_site_fract_y
_atom_site_fract_z
_atom_type_partial_charge
C0 C 0.08821 0.55804 0.15314 0.0
C1 C 0.16657 0.64539 0.0957 0.0
O2 O 0.06997 0.58353 0.13928 0.0
Zn3 Zn 0.0812 0.62853 0.10709 0.0
O4 O 0.12243 0.55455 0.14752 0.0
Zn5 Zn 0.12656 0.59676 0.11931 0.0
O6 O 0.11031 0.64076 0.15144 0.0
O7 O 0.06091 0.66677 0.13047 0.0
O8 O 0.1756 0.61407 0.10648 0.0
O9 O 0.13236 0.65356 0.09395 0.0
O10 O 0.05455 0.61922 0.07048 0.0
O11 O 0.09724 0.57733 0.07816 0.0
C12 C 0.08445 0.66488 0.15233 0.0
C13 C 0.06962 0.58944 0.06244 0.0
C14 C 0.93307 0.09576 0.05749 0.0
C15 C 0.84857 0.08775 0.1423 0.0
O16 O 0.94075 0.12076 0.07763 0.0
Zn17 Zn 0.91329 0.14199 0.1188 0.0
O18 O 0.90359 0.07762 0.06014 0.0
Zn19 Zn 0.88776 0.09638 0.09897 0.0
O20 O 0.85884 0.14626 0.08917 0.0
O21 O 0.89227 0.19052 0.10916 0.0
O22 O 0.84947 0.06888 0.11736 0.0
O23 O 0.87001 0.11551 0.14586 0.0
O24 O 0.95254 0.13849 0.14945 0.0
O25 O 0.93224 0.08482 0.13261 0.0
C26 C 0.86345 0.18051 0.09471 0.0
C27 C 0.95381 0.10351 0.15041 0.0
C28 C 0.44305 0.84229 0.14795 0.0
C29 C 0.43233 0.92386 0.06115 0.0
O30 O 0.41524 0.86374 0.1514 0.0
Zn31 Zn 0.38799 0.90617 0.12394 0.0
O32 O 0.46113 0.84205 0.12254 0.0
Zn33 Zn 0.43295 0.87974 0.10372 0.0
O34 O 0.44571 0.92486 0.13628 0.0
O35 O 0.39262 0.94605 0.15382 0.0
O36 O 0.45059 0.8945 0.06414 0.0
O37 O 0.40793 0.93222 0.08168 0.0
O38 O 0.33907 0.88515 0.11599 0.0
O39 O 0.38251 0.85074 0.0958 0.0
C40 C 0.42766 0.94685 0.15419 0.0
C41 C 0.34843 0.85582 0.10201 0.0
C42 C 0.59875 0.4592 0.05719 0.0
C43 C 0.6723 0.43355 0.1474 0.0
O44 O 0.58636 0.43032 0.07093 0.0
Zn45 Zn 0.60324 0.39777 0.11079 0.0
O46 O 0.62794 0.47403 0.06708 0.0
Zn47 Zn 0.63657 0.44363 0.10212 0.0
O48 O 0.65997 0.39307 0.08558 0.0
O49 O 0.61965 0.34959 0.09543 0.0
O50 O 0.67555 0.45947 0.12766 0.0
O51 O 0.64702 0.40917 0.14415 0.0
O52 O 0.5603 0.40124 0.13843 0.0
O53 O 0.59156 0.45302 0.13438 0.0
C54 C 0.65119 0.35898 0.08529 0.0
C55 C 0.56501 0.43459 0.14645 0.0
C56 C 0.08875 0.96242 0.31989 0.0
C57 C 0.16515 0.8717 0.37585 0.0
O58 O 0.06988 0.93765 0.33407 0.0
Zn59 Zn 0.08012 0.89142 0.36511 0.0
O60 O 0.12335 0.96386 0.32441 0.0
Zn61 Zn 0.12658 0.92165 0.35263 0.0
O62 O 0.10892 0.87852 0.32071 0.0
O63 O 0.05858 0.85399 0.34125 0.0
O64 O 0.17513 0.9027 0.365 0.0
O65 O 0.1307 0.86471 0.37787 0.0
O66 O 0.05434 0.90123 0.40213 0.0
O67 O 0.09857 0.94148 0.39429 0.0
C68 C 0.08247 0.85514 0.31961 0.0
C69 C 0.07077 0.93028 0.41025 0.0
C70 C 0.60778 0.05515 0.41416 0.0
C71 C 0.67969 0.06432 0.3213 0.0
O72 O 0.59641 0.08279 0.3981 0.0
Zn73 Zn 0.61584 0.11056 0.35626 0.0
O74 O 0.63683 0.03871 0.40594 0.0
Zn75 Zn 0.64619 0.06426 0.36852 0.0
O76 O 0.67351 0.1146 0.38078 0.0
O77 O 0.63524 0.15884 0.36821 0.0
O78 O 0.68288 0.04202 0.34397 0.0
O79 O 0.65665 0.09109 0.3227 0.0
O80 O 0.57267 0.10841 0.32945 0.0
O81 O 0.5984 0.05445 0.33833 0.0
C82 C 0.66629 0.149 0.37898 0.0
C83 C 0.57348 0.07386 0.32476 0.0
C84 C 0.42849 0.59026 0.4101 0.0
C85 C 0.4377 0.67197 0.32341 0.0
O86 O 0.40392 0.58169 0.38982 0.0
Zn87 Zn 0.38318 0.60764 0.34776 0.0
O88 O 0.44634 0.61982 0.40698 0.0
Zn89 Zn 0.42805 0.63448 0.36761 0.0
O90 O 0.37764 0.66318 0.37584 0.0
O91 O 0.33415 0.62855 0.35609 0.0
O92 O 0.45577 0.67224 0.34882 0.0
O93 O 0.40997 0.6504 0.31997 0.0
O94 O 0.38783 0.5673 0.31811 0.0
O95 O 0.44086 0.58994 0.33454 0.0
C96 C 0.34353 0.65798 0.36992 0.0
C97 C 0.42286 0.5675 0.31705 0.0
C98 C 0.92455 0.43581 0.41513 0.0
C99 C 0.84664 0.41699 0.32698 0.0
O100 O 0.93693 0.40833 0.39943 0.0
Zn101 Zn 0.91735 0.37798 0.35893 0.0
O102 O 0.894 0.44982 0.40768 0.0
Zn103 Zn 0.88419 0.42215 0.37157 0.0
O104 O 0.86174 0.37021 0.3858 0.0
O105 O 0.90246 0.32852 0.37237 0.0
O106 O 0.84422 0.44041 0.34887 0.0
O107 O 0.87193 0.39226 0.32751 0.0
O108 O 0.95867 0.38344 0.32995 0.0
O109 O 0.9278 0.43477 0.33827 0.0
C110 C 0.87123 0.33637 0.38399 0.0
C111 C 0.95369 0.4174 0.32412 0.0
C112 C 0.93562 0.34389 0.8288 0.0
C113 C 0.93195 0.42225 0.91774 0.0
O114 O 0.95489 0.3422 0.85351 0.0
Zn115 Zn 0.92876 0.37968 0.87439 0.0
O116 O 0.90816 0.36606 0.82697 0.0
Zn117 Zn 0.88349 0.40792 0.85658 0.0
O118 O 0.88746 0.44883 0.8276 0.0
O119 O 0.9409 0.42578 0.84253 0.0
O120 O 0.90668 0.43194 0.89843 0.0
O121 O 0.94904 0.39241 0.91355 0.0
O122 O 0.87815 0.35173 0.88371 0.0
O123 O 0.83456 0.38787 0.86608 0.0
C124 C 0.92247 0.44888 0.82593 0.0
C125 C 0.84392 0.35787 0.87903 0.0
C126 C 0.0734 0.949 0.82474 0.0
C127 C 0.16386 0.87004 0.87762 0.0
O128 O 0.07048 0.91464 0.82984 0.0
Zn129 Zn 0.11389 0.91044 0.85642 0.0
O130 O 0.09913 0.96726 0.83828 0.0
Zn131 Zn 0.14589 0.9555 0.86901 0.0
O132 O 0.18312 0.97712 0.84477 0.0
O133 O 0.1553 0.92929 0.82293 0.0
O134 O 0.17201 0.90418 0.8799 0.0
O135 O 0.1322 0.86131 0.86748 0.0
O136 O 0.09549 0.938 0.8985 0.0
O137 O 0.13721 0.98064 0.9068 0.0
C138 C 0.1791 0.9554 0.8218 0.0
C139 C 0.10766 0.965 0.91484 0.0
C140 C 0.58066 0.1727 0.82528 0.0
C141 C 0.5606 0.09633 0.91456 0.0
O142 O 0.55668 0.17592 0.84671 0.0
Zn143 Zn 0.57413 0.13601 0.87034 0.0
O144 O 0.60522 0.14732 0.82667 0.0
Zn145 Zn 0.61936 0.10318 0.85907 0.0
O146 O 0.61515 0.06111 0.83101 0.0
O147 O 0.56312 0.09159 0.83737 0.0
O148 O 0.58872 0.08444 0.89943 0.0
O149 O 0.54561 0.12613 0.90628 0.0
O150 O 0.62544 0.15919 0.88529 0.0
O151 O 0.66828 0.11917 0.87299 0.0
C152 C 0.58134 0.06556 0.82422 0.0
C153 C 0.65952 0.15035 0.88414 0.0
C154 C 0.34745 0.58846 0.82479 0.0
C155 C 0.43283 0.59372 0.90914 0.0
O156 O 0.34762 0.5704 0.8502 0.0
Zn157 Zn 0.38762 0.59593 0.86746 0.0
O158 O 0.37045 0.61483 0.82036 0.0
Zn159 Zn 0.4159 0.63924 0.84681 0.0
O160 O 0.45505 0.63245 0.81638 0.0
O161 O 0.43016 0.58065 0.83322 0.0
O162 O 0.44197 0.61783 0.88861 0.0
O163 O 0.40256 0.57701 0.90648 0.0
O164 O 0.36189 0.64786 0.87622 0.0
O165 O 0.39804 0.68931 0.85521 0.0
C166 C 0.45305 0.59753 0.8153 0.0
C167 C 0.36865 0.68158 0.86987 0.0
C168 C 0.94198 0.10091 0.55856 0.0
C169 C 0.94055 0.18286 0.64539 0.0
O170 O 0.95844 0.13115 0.56248 0.0
Zn171 Zn 0.93653 0.145 0.60083 0.0
O172 O 0.91644 0.09132 0.5776 0.0
Zn173 Zn 0.89185 0.11551 0.61861 0.0
O174 O 0.84239 0.13354 0.60808 0.0
O175 O 0.88505 0.17051 0.59002 0.0
O176 O 0.91408 0.15956 0.64742 0.0
O177 O 0.96035 0.18454 0.62096 0.0
O178 O 0.94964 0.10139 0.63467 0.0
O179 O 0.89708 0.07535 0.64844 0.0
C180 C 0.85097 0.16338 0.59448 0.0
C181 C 0.93188 0.07781 0.65127 0.0
C182 C 0.45242 0.92168 0.65232 0.0
C183 C 0.36697 0.83879 0.59793 0.0
O184 O 0.45412 0.88673 0.65124 0.0
Zn185 Zn 0.41517 0.88037 0.62056 0.0
O186 O 0.42984 0.93883 0.63429 0.0
Zn187 Zn 0.38727 0.92409 0.59985 0.0
O188 O 0.34738 0.95002 0.61726 0.0
O189 O 0.37013 0.90526 0.64688 0.0
O190 O 0.36073 0.87258 0.5915 0.0
O191 O 0.39652 0.83057 0.61217 0.0
O192 O 0.4418 0.90191 0.57926 0.0
O193 O 0.40279 0.9428 0.56078 0.0
C194 C 0.3473 0.93179 0.6426 0.0
C195 C 0.43318 0.92613 0.55867 0.0
C196 C 0.58285 0.34528 0.64458 0.0
C197 C 0.56327 0.42035 0.55458 0.0
O198 O 0.5593 0.34172 0.62286 0.0
Zn199 Zn 0.57697 0.38128 0.59912 0.0
O200 O 0.60735 0.3707 0.64328 0.0
Zn201 Zn 0.62165 0.41453 0.61046 0.0
O202 O 0.617 0.45686 0.63814 0.0
O203 O 0.5652 0.4261 0.63162 0.0
O204 O 0.59102 0.43283 0.56985 0.0
O205 O 0.54886 0.3903 0.56287 0.0
O206 O 0.62859 0.35809 0.58495 0.0
O207 O 0.67086 0.39876 0.59697 0.0
C208 C 0.58314 0.45235 0.64469 0.0
C209 C 0.66256 0.36728 0.58621 0.0
C210 C 0.16828 0.5695 0.65328 0.0
C211 C 0.09039 0.5706 0.56353 0.0
O212 O 0.16946 0.54885 0.62938 0.0
Zn213 Zn 0.13205 0.57426 0.60769 0.0
O214 O 0.14602 0.59693 0.65433 0.0
Zn215 Zn 0.104 0.62041 0.62403 0.0
O216 O 0.0627 0.61748 0.65269 0.0
O217 O 0.0857 0.56351 0.63943 0.0
O218 O 0.08067 0.59656 0.58212 0.0
O219 O 0.11969 0.55295 0.56882 0.0
O220 O 0.16055 0.62447 0.59762 0.0
O221 O 0.12451 0.66893 0.6138 0.0
C222 C 0.06244 0.58261 0.65528 0.0
C223 C 0.15473 0.65887 0.60156 0.0
H224 H 0.15505 0.71505 0.07357 0.0
H225 H 0.24156 0.64251 0.10506 0.0
H226 H 0.1986 0.76579 0.07126 0.0
H227 H 0.28516 0.69358 0.10312 0.0
H228 H 0.36127 0.78803 0.07628 0.0
H229 H 0.31838 0.73699 0.07036 0.0
H230 H 0.23119 0.80417 0.1083 0.0
H231 H 0.27401 0.85541 0.11386 0.0
C232 C 0.18349 0.70971 0.07962 0.0
C233 C 0.19465 0.6745 0.08958 0.0
C234 C 0.20846 0.73903 0.07857 0.0
C235 C 0.24542 0.7341 0.08737 0.0
C236 C 0.25701 0.69849 0.09596 0.0
C237 C 0.23195 0.6691 0.09709 0.0
C238 C 0.33285 0.79215 0.08304 0.0
C239 C 0.3212 0.82602 0.09557 0.0
C240 C 0.30827 0.76267 0.07985 0.0
C241 C 0.27124 0.76619 0.08897 0.0
C242 C 0.25936 0.80042 0.10068 0.0
C243 C 0.28399 0.82988 0.10398 0.0
H244 H 0.86171 0.25511 0.10511 0.0
H245 H 0.79659 0.16612 0.0678 0.0
H246 H 0.80986 0.29695 0.09798 0.0
H247 H 0.74496 0.20802 0.06031 0.0
H248 H 0.64876 0.28396 0.094 0.0
H249 H 0.70041 0.24099 0.09222 0.0
H250 H 0.77155 0.32811 0.05988 0.0
H251 H 0.72022 0.37103 0.06202 0.0
C252 C 0.83658 0.24455 0.09493 0.0
C253 C 0.83349 0.20715 0.0871 0.0
C254 C 0.80678 0.26861 0.09071 0.0
C255 C 0.77299 0.25593 0.07864 0.0
C256 C 0.77028 0.21872 0.07004 0.0
C257 C 0.8001 0.19472 0.07413 0.0
C258 C 0.6752 0.29378 0.08584 0.0
C259 C 0.6802 0.3311 0.07831 0.0
C260 C 0.70493 0.2691 0.08485 0.0
C261 C 0.74044 0.28111 0.07634 0.0
C262 C 0.74488 0.31798 0.0672 0.0
C263 C 0.71523 0.34258 0.06814 0.0
H264 H 0.1514 0.80169 0.39626 0.0
H265 H 0.24036 0.87288 0.36775 0.0
H266 H 0.19378 0.7499 0.3986 0.0
H267 H 0.28277 0.82081 0.36973 0.0
H268 H 0.3563 0.72491 0.39708 0.0
H269 H 0.31397 0.77642 0.40279 0.0
H270 H 0.22706 0.71129 0.36205 0.0
H271 H 0.26936 0.65948 0.35671 0.0
C272 C 0.18013 0.8065 0.39088 0.0
C273 C 0.19234 0.84168 0.38178 0.0
C274 C 0.20441 0.77657 0.39193 0.0
C275 C 0.24173 0.78087 0.38404 0.0
C276 C 0.25431 0.81638 0.37622 0.0
C277 C 0.22995 0.84635 0.37505 0.0
C278 C 0.32805 0.72132 0.38966 0.0
C279 C 0.31637 0.68786 0.37638 0.0
C280 C 0.30379 0.75108 0.39271 0.0
C281 C 0.26704 0.74831 0.3827 0.0
C282 C 0.25502 0.71446 0.37033 0.0
C283 C 0.27935 0.68468 0.36718 0.0
H284 H 0.80304 0.34474 0.41025 0.0
H285 H 0.87573 0.26208 0.37237 0.0
H286 H 0.75382 0.29954 0.41373 0.0
H287 H 0.82618 0.21695 0.37525 0.0
H288 H 0.73602 0.13634 0.40098 0.0
H289 H 0.78604 0.18034 0.40731 0.0
H290 H 0.71355 0.26809 0.37835 0.0
H291 H 0.66334 0.22418 0.37263 0.0
C292 C 0.80875 0.31678 0.40303 0.0
C293 C 0.8435 0.3072 0.39093 0.0
C294 C 0.78028 0.29087 0.40475 0.0
C295 C 0.78563 0.25455 0.39439 0.0
C296 C 0.82094 0.24451 0.3837 0.0
C297 C 0.84948 0.27047 0.38201 0.0
C298 C 0.73054 0.1651 0.39636 0.0
C299 C 0.69549 0.17659 0.38624 0.0
C300 C 0.75942 0.19036 0.39976 0.0
C301 C 0.75414 0.2279 0.39317 0.0
C302 C 0.71872 0.23955 0.38403 0.0
C303 C 0.68983 0.21427 0.38062 0.0
H304 H 0.85624 0.28971 0.90426 0.0
H305 H 0.76922 0.35894 0.86867 0.0
H306 H 0.81271 0.23928 0.91049 0.0
H307 H 0.72577 0.30828 0.87446 0.0
H308 H 0.64889 0.21939 0.90788 0.0
H309 H 0.69312 0.2695 0.91101 0.0
H310 H 0.77867 0.19698 0.87776 0.0
H311 H 0.73445 0.14658 0.87506 0.0
C312 C 0.82774 0.29435 0.89801 0.0
C313 C 0.81635 0.32855 0.8859 0.0
C314 C 0.80278 0.26523 0.90138 0.0
C315 C 0.76564 0.26943 0.89283 0.0
C316 C 0.75401 0.30401 0.88164 0.0
C317 C 0.77901 0.33314 0.8782 0.0
C318 C 0.67727 0.21384 0.90174 0.0
C319 C 0.68797 0.17878 0.89111 0.0
C320 C 0.70262 0.2428 0.90326 0.0
C321 C 0.73948 0.23761 0.89424 0.0
C322 C 0.75061 0.20208 0.8851 0.0
C323 C 0.7252 0.17306 0.88354 0.0
H324 H 0.37075 0.75553 0.85624 0.0
H325 H 0.30171 0.67249 0.89828 0.0
H326 H 0.32124 0.80043 0.86195 0.0
H327 H 0.2525 0.71742 0.90435 0.0
H328 H 0.15914 0.79507 0.86985 0.0
H329 H 0.2092 0.75031 0.87151 0.0
H330 H 0.28488 0.83602 0.89856 0.0
H331 H 0.23505 0.88078 0.89649 0.0
C332 C 0.34528 0.74695 0.86717 0.0
C333 C 0.34036 0.71026 0.87671 0.0
C334 C 0.31681 0.77277 0.87053 0.0
C335 C 0.2826 0.76262 0.88346 0.0
C336 C 0.27815 0.72619 0.89385 0.0
C337 C 0.3066 0.70044 0.89058 0.0
C338 C 0.18632 0.8043 0.87663 0.0
C339 C 0.19291 0.84166 0.88295 0.0
C340 C 0.21512 0.77856 0.87764 0.0
C341 C 0.25133 0.78949 0.88491 0.0
C342 C 0.25758 0.82663 0.89233 0.0
C343 C 0.22882 0.8523 0.89142 0.0
H344 H 0.73746 0.37238 0.5949 0.0
H345 H 0.65289 0.2974 0.564 0.0
H346 H 0.7825 0.32262 0.59285 0.0
H347 H 0.69793 0.24792 0.56152 0.0
H348 H 0.7763 0.16091 0.60502 0.0
H349 H 0.73173 0.21053 0.59846 0.0
H350 H 0.81692 0.28019 0.56047 0.0
H351 H 0.86154 0.23085 0.56745 0.0
C352 C 0.72859 0.34553 0.58699 0.0
C353 C 0.6914 0.33904 0.57974 0.0
C354 C 0.75448 0.31689 0.58579 0.0
C355 C 0.74389 0.28096 0.57735 0.0
C356 C 0.70704 0.27496 0.56871 0.0
C357 C 0.68122 0.30355 0.56985 0.0
C358 C 0.78545 0.18661 0.59486 0.0
C359 C 0.82263 0.19174 0.58687 0.0
C360 C 0.75981 0.21514 0.59099 0.0
C361 C 0.77065 0.24964 0.57909 0.0
C362 C 0.8076 0.25431 0.57016 0.0
C363 C 0.83319 0.22579 0.57395 0.0
H364 H 0.15412 0.73398 0.6095 0.0
H365 H 0.22419 0.64463 0.57989 0.0
H366 H 0.20593 0.77639 0.60492 0.0
H367 H 0.27577 0.68704 0.57503 0.0
H368 H 0.36747 0.765 0.61243 0.0
H369 H 0.31604 0.7219 0.60969 0.0
H370 H 0.24803 0.80642 0.56858 0.0
H371 H 0.29917 0.84952 0.57157 0.0
C372 C 0.18037 0.72344 0.60153 0.0
C373 C 0.18482 0.68577 0.59513 0.0
C374 C 0.21015 0.74782 0.59883 0.0
C375 C 0.24526 0.73518 0.58979 0.0
C376 C 0.24937 0.69771 0.5825 0.0
C377 C 0.2196 0.67341 0.58505 0.0
C378 C 0.34175 0.77425 0.60235 0.0
C379 C 0.33762 0.81086 0.59231 0.0
C380 C 0.31218 0.74949 0.60073 0.0
C381 C 0.27763 0.76069 0.58915 0.0
C382 C 0.27395 0.79693 0.57811 0.0
C383 C 0.30351 0.8216 0.57959 0.0
H384 H 0.92907 0.47131 0.28592 0.0
H385 H 0.02542 0.40596 0.30522 0.0
H386 H 0.96112 0.50225 0.24395 0.0
H387 H 0.0592 0.43914 0.26447 0.0
H388 H 0.10316 0.48698 0.17213 0.0
H389 H 0.07127 0.45149 0.21258 0.0
H390 H 1.00238 0.54581 0.23211 0.0
H391 H 0.03214 0.57944 0.19047 0.0
C392 C 0.95754 0.46409 0.28153 0.0
C393 C 0.9748 0.43646 0.29915 0.0
C394 C 0.97624 0.48214 0.25746 0.0
C395 C 0.01338 0.47409 0.25076 0.0
C396 C 0.03064 0.44613 0.26842 0.0
C397 C 0.01141 0.42722 0.29206 0.0
C398 C 0.0809 0.49976 0.18498 0.0
C399 C 0.06976 0.53578 0.17773 0.0
C400 C 0.06273 0.47956 0.20845 0.0
C401 C 0.03358 0.49526 0.22579 0.0
C402 C 0.02351 0.53182 0.21886 0.0
C403 C 0.04088 0.55145 0.19496 0.0
H404 H 1.00408 0.13313 0.19164 0.0
H405 H 0.95687 0.02979 0.16234 0.0
H406 H 0.03819 0.1011 0.23295 0.0
H407 H 0.99079 0.99812 0.20335 0.0
H408 H 0.11882 0.01807 0.28401 0.0
H409 H 0.08852 0.05349 0.24247 0.0
H410 H 0.98672 0.99658 0.26123 0.0
H411 H 0.01659 0.96146 0.30238 0.0
C412 C 1.00124 0.1036 0.19374 0.0
C413 C 0.97751 0.08413 0.17366 0.0
C414 C 0.02088 0.08525 0.2174 0.0
C415 C 0.01691 0.0471 0.22173 0.0
C416 C 0.99403 0.02761 0.20105 0.0
C417 C 0.97473 0.0458 0.17733 0.0
C418 C 0.08988 0.0134 0.27946 0.0
C419 C 0.07027 0.98672 0.29655 0.0
C420 C 0.07252 0.03374 0.25567 0.0
C421 C 0.0353 0.02754 0.24822 0.0
C422 C 0.01558 1.0016 0.26591 0.0
C423 C 0.03273 0.9816 0.28974 0.0
H424 H 0.5171 0.10546 0.29088 0.0
H425 H 0.5736 1.00235 0.30541 0.0
H426 H 0.48073 0.07723 0.24904 0.0
H427 H 0.53742 0.97442 0.26393 0.0
H428 H 0.50172 0.94868 0.16491 0.0
H429 H 0.53457 0.98047 0.2064 0.0
H430 H 0.43271 0.02846 0.23844 0.0
H431 H 0.39952 0.99654 0.19663 0.0
C432 C 0.52152 0.07673 0.28544 0.0
C433 C 0.54845 0.05628 0.30154 0.0
C434 C 0.50062 0.06055 0.26147 0.0
C435 C 0.50647 0.02367 0.25282 0.0
C436 C 0.53265 1.00306 0.26954 0.0
C437 C 0.55323 0.01906 0.29358 0.0
C438 C 0.48622 0.96628 0.18052 0.0
C439 C 0.44785 0.96985 0.17738 0.0
C440 C 0.50509 0.98431 0.20453 0.0
C441 C 0.48624 1.00665 0.22606 0.0
C442 C 0.44808 0.01151 0.22224 0.0
C443 C 0.42906 0.99316 0.19828 0.0
H444 H 0.58986 0.48015 0.19143 0.0
H445 H 0.49102 0.42668 0.15946 0.0
H446 H 0.55613 0.5085 0.23375 0.0
H447 H 0.45579 0.4577 0.20055 0.0
H448 H 0.40476 0.5001 0.29179 0.0
H449 H 0.43856 0.46574 0.25182 0.0
H450 H 0.51788 0.55425 0.24631 0.0
H451 H 0.48587 0.58639 0.28755 0.0
C452 C 0.56056 0.47503 0.19319 0.0
C453 C 0.54302 0.45153 0.17191 0.0
C454 C 0.54091 0.49165 0.21744 0.0
C455 C 0.50265 0.48642 0.22064 0.0
C456 C 0.48514 0.4624 0.19936 0.0
C457 C 0.50522 0.44475 0.17554 0.0
C458 C 0.42976 0.51174 0.2822 0.0
C459 C 0.44301 0.54561 0.29324 0.0
C460 C 0.44906 0.49225 0.25898 0.0
C461 C 0.48157 0.50666 0.24563 0.0
C462 C 0.49399 0.54111 0.25644 0.0
C463 C 0.47539 0.55991 0.28013 0.0
H464 H 0.06162 0.50986 0.67117 0.0
H465 H 1.00887 0.61322 0.69278 0.0
H466 H 0.02689 0.48007 0.71271 0.0
H467 H 0.97398 0.58312 0.73463 0.0
H468 H 0.89346 0.50157 0.7866 0.0
H469 H 0.92522 0.53501 0.74479 0.0
H470 H 0.02726 0.48236 0.77053 0.0
H471 H 0.99583 0.44907 0.81203 0.0
C472 C 0.04236 0.52625 0.68457 0.0
C473 C 0.03821 0.56406 0.67858 0.0
C474 C 0.02263 0.50916 0.70862 0.0
C475 C 0.99796 0.52927 0.72731 0.0
C476 C 0.99271 0.5668 0.72065 0.0
C477 C 0.01276 0.58405 0.69668 0.0
C478 C 0.92275 0.49745 0.78357 0.0
C479 C 0.94198 0.47246 0.80272 0.0
C480 C 0.94096 0.51667 0.75961 0.0
C481 C 0.97871 0.51103 0.75403 0.0
C482 C 0.99805 0.48688 0.77378 0.0
C483 C 0.98001 0.46799 0.79781 0.0
H484 H 0.09528 1.00307 0.78566 0.0
H485 H 1.00147 0.93537 0.80767 0.0
H486 H 0.06171 0.03142 0.74329 0.0
H487 H 0.96599 0.96607 0.76658 0.0
H488 H 0.91926 1.00769 0.67336 0.0
H489 H 0.9527 0.97552 0.71486 0.0
H490 H 0.0194 0.07264 0.72929 0.0
H491 H 0.9882 0.10279 0.68646 0.0
C492 C 0.06696 0.99491 0.78187 0.0
C493 C 0.05089 0.96731 0.80029 0.0
C494 C 0.04737 0.01145 0.75753 0.0
C495 C 0.01048 1.00187 0.75135 0.0
C496 C 0.99434 0.97415 0.77003 0.0
C497 C 0.0145 0.95671 0.79391 0.0
C498 C 0.94145 0.02174 0.68529 0.0
C499 C 0.95161 0.05745 0.67625 0.0
C500 C 0.96049 1.0035 0.7094 0.0
C501 C 0.98944 0.02098 0.72568 0.0
C502 C 0.9985 0.05727 0.71693 0.0
C503 C 0.98034 0.07489 0.69233 0.0
H504 H 0.53101 0.08914 0.78214 0.0
H505 H 0.59225 0.99278 0.80923 0.0
H506 H 0.50284 0.0554 0.73971 0.0
H507 H 0.56164 0.95739 0.76824 0.0
H508 H 0.52098 0.90725 0.67679 0.0
H509 H 0.55353 0.94177 0.71722 0.0
H510 H 0.46006 0.01504 0.72518 0.0
H511 H 0.42963 0.98244 0.68326 0.0
C512 C 0.53784 0.06032 0.77935 0.0
C513 C 0.5636 0.04354 0.7992 0.0
C514 C 0.52137 0.04064 0.75502 0.0
C515 C 0.52912 1.00304 0.75032 0.0
C516 C 0.55505 0.98626 0.77043 0.0
C517 C 0.57246 1.00642 0.79426 0.0
C518 C 0.50782 0.93109 0.68705 0.0
C519 C 0.47304 0.94248 0.6765 0.0
C520 C 0.52627 0.95079 0.71057 0.0
C521 C 0.50991 0.98178 0.72484 0.0
C522 C 0.47461 0.99239 0.71445 0.0
C523 C 0.4568 0.97344 0.69037 0.0
H524 H 0.53224 0.42915 0.68645 0.0
H525 H 0.59385 0.52523 0.65937 0.0
H526 H 0.50371 0.46319 0.72856 0.0
H527 H 0.56289 0.56091 0.70001 0.0
H528 H 0.52178 0.61158 0.79107 0.0
H529 H 0.5545 0.57676 0.75091 0.0
H530 H 0.46094 0.50372 0.74284 0.0
H531 H 0.43032 0.53663 0.78453 0.0
C532 C 0.53906 0.45797 0.68916 0.0
C533 C 0.56504 0.47458 0.66941 0.0
C534 C 0.52239 0.47782 0.71331 0.0
C535 C 0.53018 0.51542 0.71792 0.0
C536 C 0.55628 0.53204 0.69789 0.0
C537 C 0.57388 0.51171 0.67426 0.0
C538 C 0.50863 0.58773 0.78086 0.0
C539 C 0.47376 0.5765 0.7913 0.0
C540 C 0.52719 0.56785 0.75748 0.0
C541 C 0.51084 0.53685 0.74325 0.0
C542 C 0.47546 0.52639 0.75355 0.0
C543 C 0.45755 0.54551 0.77749 0.0
H544 H 0.13651 0.67743 0.19672 0.0
H545 H 0.02835 0.71161 0.1658 0.0
H546 H 0.13481 0.72402 0.23767 0.0
H547 H 0.02698 0.75822 0.20661 0.0
H548 H 0.02678 0.80771 0.30631 0.0
H549 H 0.02653 0.76006 0.26627 0.0
H550 H 0.13458 0.79438 0.23593 0.0
H551 H 0.13516 0.8419 0.276 0.0
C552 C 0.11235 0.69469 0.19881 0.0
C553 C 0.08265 0.69116 0.17808 0.0
C554 C 0.11151 0.72138 0.22202 0.0
C555 C 0.08088 0.74457 0.22489 0.0
C556 C 0.05078 0.74041 0.20477 0.0
C557 C 0.0517 0.71392 0.18143 0.0
C558 C 0.05039 0.80519 0.29099 0.0
C559 C 0.08105 0.82832 0.29423 0.0
C560 C 0.05016 0.77806 0.26814 0.0
C561 C 0.08065 0.77365 0.24845 0.0
C562 C 0.11101 0.79713 0.25128 0.0
C563 C 0.11117 0.82442 0.27397 0.0
H564 H 0.85879 0.09986 0.20396 0.0
H565 H 0.78318 0.0518 0.13751 0.0
H566 H 0.81656 0.08508 0.24644 0.0
H567 H 0.74047 0.03762 0.18028 0.0
H568 H 0.66611 0.09078 0.26312 0.0
H569 H 0.70686 0.08776 0.2178 0.0
H570 H 0.78524 0.0247 0.27151 0.0
H571 H 0.74437 0.02719 0.31687 0.0
C572 C 0.83318 0.08602 0.19854 0.0
C573 C 0.82383 0.07727 0.16763 0.0
C574 C 0.80935 0.07722 0.22278 0.0
C575 C 0.77567 0.06013 0.21632 0.0
C576 C 0.76653 0.05068 0.18553 0.0
C577 C 0.79078 0.05883 0.16126 0.0
C578 C 0.69183 0.07589 0.26509 0.0
C579 C 0.70251 0.0597 0.29346 0.0
C580 C 0.7148 0.07381 0.23916 0.0
C581 C 0.74885 0.05598 0.24151 0.0
C582 C 0.75892 0.03848 0.26943 0.0
C583 C 0.73568 0.04003 0.29523 0.0
H584 H 0.42301 0.66164 0.26203 0.0
H585 H 0.47885 0.7344 0.32632 0.0
H586 H 0.43751 0.70299 0.21901 0.0
H587 H 0.49317 0.77603 0.28299 0.0
H588 H 0.47987 0.77718 0.14473 0.0
H589 H 0.49105 0.73446 0.18805 0.0
H590 H 0.44281 0.8123 0.25237 0.0
H591 H 0.43135 0.85459 0.20938 0.0
C592 C 0.4387 0.68632 0.26685 0.0
C593 C 0.44917 0.69541 0.29743 0.0
C594 C 0.4475 0.70958 0.24221 0.0
C595 C 0.4665 0.74242 0.24791 0.0
C596 C 0.47858 0.75068 0.27824 0.0
C597 C 0.47022 0.72708 0.30289 0.0
C598 C 0.47236 0.78528 0.16825 0.0
C599 C 0.45407 0.81859 0.17385 0.0
C600 C 0.47887 0.76105 0.19288 0.0
C601 C 0.46777 0.77035 0.22329 0.0
C602 C 0.45195 0.80481 0.22911 0.0
C603 C 0.44492 0.82869 0.20451 0.0
H604 H 0.72127 0.48525 0.16678 0.0
H605 H 0.68101 0.37585 0.18712 0.0
H606 H 0.76413 0.48048 0.21045 0.0
H607 H 0.72382 0.37136 0.23082 0.0
H608 H 0.83671 0.36605 0.28112 0.0
H609 H 0.79425 0.3699 0.237 0.0
H610 H 0.75627 0.4756 0.2698 0.0
H611 H 0.7986 0.47204 0.31377 0.0
C612 C 0.72158 0.46025 0.18057 0.0
C613 C 0.69784 0.43095 0.17372 0.0
C614 C 0.74593 0.45762 0.20552 0.0
C615 C 0.74701 0.42558 0.22373 0.0
C616 C 0.72351 0.39619 0.21681 0.0
C617 C 0.69894 0.39891 0.19202 0.0
C618 C 0.81928 0.39007 0.27888 0.0
C619 C 0.82087 0.41875 0.30076 0.0
C620 C 0.79499 0.39215 0.25381 0.0
C621 C 0.77233 0.42307 0.25023 0.0
C622 C 0.77386 0.45169 0.27207 0.0
C623 C 0.79788 0.4495 0.29725 0.0
H624 H 0.97482 0.24943 0.6452 0.0
H625 H 0.92591 0.16785 0.70592 0.0
H626 H 0.98444 0.28975 0.69036 0.0
H627 H 0.93582 0.2078 0.75072 0.0
H628 H 0.97536 0.28041 0.82806 0.0
H629 H 0.98745 0.24131 0.78261 0.0
H630 H 0.93102 0.31925 0.72331 0.0
H631 H 0.91867 0.35805 0.76844 0.0
C632 C 0.96667 0.24001 0.66822 0.0
C633 C 0.94896 0.20609 0.67222 0.0
C634 C 0.97231 0.26287 0.69389 0.0
C635 C 0.96095 0.25156 0.72373 0.0
C636 C 0.94517 0.21678 0.7279 0.0
C637 C 0.939 0.19427 0.70227 0.0
C638 C 0.96602 0.28929 0.80522 0.0
C639 C 0.94547 0.32168 0.80165 0.0
C640 C 0.97308 0.26714 0.77937 0.0
C641 C 0.96022 0.27759 0.74975 0.0
C642 C 0.94155 0.31099 0.74596 0.0
C643 C 0.93402 0.33281 0.77179 0.0
H644 H 0.28096 0.966 0.63735 0.0
H645 H 0.35791 0.92099 0.70436 0.0
H646 H 0.23827 0.98047 0.68003 0.0
H647 H 0.31565 0.93584 0.74669 0.0
H648 H 0.24387 0.99225 0.81703 0.0
H649 H 0.28423 0.99484 0.77138 0.0
H650 H 0.20506 0.93239 0.71811 0.0
H651 H 0.16473 0.92948 0.76365 0.0
C652 C 0.2888 0.95963 0.66118 0.0
C653 C 0.32227 0.942 0.66776 0.0
C654 C 0.26458 0.96795 0.6854 0.0
C655 C 0.27411 0.95942 0.71633 0.0
C656 C 0.30812 0.94303 0.72293 0.0
C657 C 0.33197 0.93414 0.69877 0.0
C658 C 0.23489 0.97958 0.79542 0.0
C659 C 0.20165 0.96008 0.79384 0.0
C660 C 0.25784 0.98118 0.76945 0.0
C661 C 0.24745 0.96381 0.74159 0.0
C662 C 0.21327 0.94623 0.73943 0.0
C663 C 0.19055 0.94419 0.76549 0.0
H664 H 0.55177 0.24148 0.82368 0.0
H665 H 0.60906 0.16078 0.76758 0.0
H666 H 0.5522 0.28414 0.77944 0.0
H667 H 0.60891 0.20336 0.72334 0.0
H668 H 0.55374 0.27671 0.64623 0.0
H669 H 0.55295 0.2345 0.6907 0.0
H670 H 0.60878 0.3154 0.74721 0.0
H671 H 0.61014 0.35762 0.70267 0.0
C672 C 0.56425 0.23289 0.80187 0.0
C673 C 0.58043 0.19805 0.79885 0.0
C674 C 0.56463 0.25724 0.77679 0.0
C675 C 0.58058 0.24666 0.74838 0.0
C676 C 0.59638 0.21175 0.7452 0.0
C677 C 0.5966 0.18764 0.77042 0.0
C678 C 0.56577 0.28545 0.66817 0.0
C679 C 0.58207 0.32021 0.67121 0.0
C680 C 0.56543 0.26135 0.69339 0.0
C681 C 0.5808 0.27207 0.72198 0.0
C682 C 0.59669 0.30693 0.72522 0.0
C683 C 0.59762 0.33081 0.69983 0.0
H684 H 0.35416 0.60291 0.76289 0.0
H685 H 0.28317 0.55094 0.83102 0.0
H686 H 0.31012 0.58831 0.72173 0.0
H687 H 0.23892 0.53669 0.78966 0.0
H688 H 0.15745 0.58963 0.71345 0.0
H689 H 0.2015 0.58526 0.75626 0.0
H690 H 0.27861 0.53034 0.69525 0.0
H691 H 0.23429 0.53427 0.65227 0.0
C692 C 0.32922 0.58825 0.76898 0.0
C693 C 0.32166 0.57845 0.80004 0.0
C694 C 0.30438 0.57949 0.74545 0.0
C695 C 0.27152 0.56127 0.75278 0.0
C696 C 0.2643 0.55066 0.78368 0.0
C697 C 0.28944 0.55891 0.80719 0.0
C698 C 0.18358 0.57611 0.70935 0.0
C699 C 0.19289 0.56275 0.67964 0.0
C700 C 0.2085 0.57329 0.73384 0.0
C701 C 0.24317 0.55754 0.72875 0.0
C702 C 0.25188 0.54259 0.69946 0.0
C703 C 0.22666 0.54485 0.67504 0.0
H704 H 0.09036 0.52175 0.04001 0.0
H705 H 1.00761 0.6064 0.03011 0.0
H706 H 0.05507 0.48222 0.00498 0.0
H707 H 0.97171 0.56658 -0.00312 0.0
H708 H 0.93105 0.49689 0.91549 0.0
H709 H 0.96662 0.53852 0.94814 0.0
H710 H 1.00041 0.44689 0.00598 0.0
H711 H 0.96627 0.40519 0.97224 0.0
C712 C 0.06487 0.53201 0.03019 0.0
C713 C 0.05178 0.56711 0.03795 0.0
C714 C 0.04436 0.50922 0.01047 0.0
C715 C 0.01019 0.52098 -0.00152 0.0
C716 C 0.99796 0.55664 0.00537 0.0
C717 C 0.01861 0.57949 0.02463 0.0
C718 C 0.9454 0.48586 0.93562 0.0
C719 C 0.94592 0.44792 0.94143 0.0
C720 C 0.96599 0.50965 0.95428 0.0
C721 C 0.98694 0.496 0.97944 0.0
C722 C 0.98555 0.45822 -0.01374 0.0
C723 C 0.9655 0.4344 0.96728 0.0
H724 H 0.12367 0.02623 0.94872 0.0
H725 H 0.04057 0.94238 0.93693 0.0
H726 H 0.08252 0.06078 0.98217 0.0
H727 H 0.99978 0.97631 0.97181 0.0
H728 H 0.91984 0.06331 0.00159 0.0
H729 H 0.96399 0.03092 0.96889 0.0
H730 H 0.05189 0.06463 0.03071 0.0
H731 H 1.00768 0.09837 0.06259 0.0
C732 C 0.09686 0.01469 0.95385 0.0
C733 C 0.08521 0.9817 0.93985 0.0
C734 C 0.07326 0.03456 0.97316 0.0
C735 C 0.03758 0.02171 0.97925 0.0
C736 C 0.02674 0.98753 0.96684 0.0
C737 C 0.05027 0.96779 0.9472 0.0
C738 C 0.94874 0.06446 0.0077 0.0
C739 C 0.96043 0.08336 0.0345 0.0
C740 C 0.97397 0.04542 -0.0107 0.0
C741 C 0.01137 0.04438 -0.00241 0.0
C742 C 0.02331 0.06492 0.02357 0.0
C743 C 0.99806 0.08446 0.04175 0.0
H744 H 0.42663 0.99856 0.06287 0.0
H745 H 0.46541 0.90867 0.00579 0.0
H746 H 0.45847 0.04205 0.02887 0.0
H747 H 0.49603 0.952 0.97113 0.0
H748 H 0.5837 0.03039 0.93856 0.0
H749 H 0.54958 0.98986 0.97353 0.0
H750 H 0.46163 0.0697 0.97858 0.0
H751 H 0.49624 0.11066 0.94483 0.0
C752 C 0.44098 0.98824 0.04247 0.0
C753 C 0.44373 0.95031 0.03699 0.0
C754 C 0.45939 0.0131 0.02306 0.0
C755 C 0.48049 1.00042 -0.00235 0.0
C756 C 0.48103 0.9626 -0.00894 0.0
C757 C 0.46305 0.9378 0.01064 0.0
C758 C 0.55736 0.03948 0.94755 0.0
C759 C 0.54266 0.07364 0.93881 0.0
C760 C 0.53757 0.01611 0.96728 0.0
C761 C 0.50254 0.02628 0.97841 0.0
C762 C 0.48855 0.06105 0.9706 0.0
C763 C 0.50845 0.08452 0.95115 0.0
H764 H 0.41632 0.56101 0.96432 0.0
H765 H 0.50791 0.59633 0.90741 0.0
H766 H 0.45832 0.52855 -0.00106 0.0
H767 H 0.5501 0.56279 0.94157 0.0
H768 H 0.61577 0.52324 0.02743 0.0
H769 H 0.57678 0.55904 -0.00719 0.0
H770 H 0.4945 0.47337 -0.00413 0.0
H771 H 0.53307 0.43797 0.03154 0.0
C772 C 0.44556 0.56221 0.95948 0.0
C773 C 0.4589 0.58108 0.93318 0.0
C774 C 0.46957 0.5432 0.97905 0.0
C775 C 0.50744 0.54231 0.97257 0.0
C776 C 0.52105 0.56295 0.94722 0.0
C777 C 0.49696 0.58233 0.92775 0.0
C778 C 0.58952 0.51178 0.02049 0.0
C779 C 0.57735 0.47786 0.03248 0.0
C780 C 0.5672 0.53234 0.00054 0.0
C781 C 0.53231 0.51935 -0.00804 0.0
C782 C 0.52089 0.48458 0.00271 0.0
C783 C 0.54314 0.46408 0.02285 0.0
H784 H 0.09591 0.99571 0.43409 0.0
H785 H 1.00788 0.9164 0.44244 0.0
H786 H 0.06365 0.03619 0.47047 0.0
H787 H 0.97504 0.95725 0.47709 0.0
H788 H 0.93871 0.02625 0.55997 0.0
H789 H 0.97241 0.98372 0.52668 0.0
H790 H 0.01133 0.075 0.47084 0.0
H791 H 0.97905 0.1175 0.50519 0.0
C792 C 0.0699 0.98681 0.44385 0.0
C793 C 0.05446 0.95294 0.43529 0.0
C794 C 0.05114 0.01015 0.46437 0.0
C795 C 0.01644 1.00021 0.47639 0.0
C796 C 1.0018 0.96572 0.46863 0.0
C797 C 0.02069 0.9423 0.44856 0.0
C798 C 0.95393 0.03709 0.54022 0.0
C799 C 0.95626 0.07509 0.53508 0.0
C800 C 0.97339 0.01275 0.52118 0.0
C801 C 0.99504 0.02594 0.49626 0.0
C802 C 0.99583 0.06394 0.49032 0.0
C803 C 0.97688 0.08827 0.50968 0.0
H804 H 0.54108 0.07904 0.43634 0.0
H805 H 0.62275 0.99369 0.4481 0.0
H806 H 0.50005 0.04615 0.47182 0.0
H807 H 0.5814 0.9602 0.48209 0.0
H808 H 0.50789 0.92382 0.56318 0.0
H809 H 0.55176 0.95745 0.53093 0.0
H810 H 0.46315 0.99223 0.47021 0.0
H811 H 0.41929 0.95992 0.50328 0.0
C812 C 0.55041 0.05351 0.44672 0.0
C813 C 0.58504 0.03891 0.43923 0.0
C814 C 0.52675 0.03438 0.46671 0.0
C815 C 0.53716 1.00014 0.47935 0.0
C816 C 0.57249 0.98653 0.47298 0.0
C817 C 0.59622 1.00578 0.45333 0.0
C818 C 0.49799 0.93801 0.54254 0.0
C819 C 0.46027 0.93929 0.53568 0.0
C820 C 0.52307 0.95747 0.52413 0.0
C821 C 0.5109 0.97813 0.49826 0.0
C822 C 0.47334 0.97757 0.49049 0.0
C823 C 0.44827 0.95858 0.50913 0.0
H824 H 0.50005 0.40387 0.5235 0.0
H825 H 0.58398 0.48752 0.53141 0.0
H826 H 0.46395 0.44403 0.49026 0.0
H827 H 0.54841 0.52731 0.49684 0.0
H828 H 0.46095 0.60571 0.46563 0.0
H829 H 0.49348 0.56295 0.49959 0.0
H830 H 0.45932 0.47265 0.44066 0.0
H831 H 0.42553 0.51549 0.40745 0.0
C832 C 0.51121 0.43061 0.51762 0.0
C833 C 0.54482 0.44264 0.53033 0.0
C834 C 0.49044 0.45363 0.49845 0.0
C835 C 0.50295 0.48912 0.49123 0.0
C836 C 0.53749 0.50047 0.50264 0.0
C837 C 0.55814 0.47752 0.52212 0.0
C838 C 0.45971 0.57659 0.46042 0.0
C839 C 0.44077 0.56384 0.43397 0.0
C840 C 0.47881 0.55215 0.47956 0.0
C841 C 0.47981 0.51447 0.47242 0.0
C842 C 0.45908 0.50148 0.44691 0.0
C843 C 0.43952 0.52596 0.42795 0.0
H844 H 0.99109 0.41412 0.43943 0.0
H845 H 0.90944 0.50039 0.44426 0.0
H846 H 0.03053 0.44908 0.47477 0.0
H847 H 0.94927 0.53589 0.47791 0.0
H848 H 0.01564 0.57463 0.56234 0.0
H849 H 0.97452 0.54072 0.52792 0.0
H850 H 0.06819 0.50205 0.47484 0.0
H851 H 0.1092 0.53455 0.51031 0.0
C852 C 0.98151 0.44039 0.44813 0.0
C853 C 0.94716 0.45439 0.43905 0.0
C854 C 1.00426 0.46069 0.46805 0.0
C855 C 0.99328 0.49558 0.47893 0.0
C856 C 0.95852 0.50902 0.47038 0.0
C857 C 0.93567 0.48859 0.45091 0.0
C858 C 0.02729 0.55951 0.5429 0.0
C859 C 0.06552 0.55714 0.53896 0.0
C860 C 1.00377 0.53992 0.52319 0.0
C861 C 0.01805 0.51809 0.49885 0.0
C862 C 0.05628 0.51763 0.49389 0.0
C863 C 0.07976 0.5367 0.51389 0.0
loop_
_geom_bond_atom_site_label_1
_geom_bond_atom_site_label_2
_geom_bond_distance
_geom_bond_site_symmetry_2
_ccdc_geom_bond_type
C0 O2 1.247 . S
C0 O4 1.258 . S
C1 O8 1.247 . S
C1 O9 1.258 . S
O2 C0 1.247 . S
O2 Zn3 2.028 . S
Zn3 O2 2.028 . S
Zn3 O7 2.035 . S
Zn3 O9 2.035 . S
Zn3 O10 2.028 . S
O4 C0 1.258 . S
O4 Zn5 2.035 . S
Zn5 O4 2.035 . S
Zn5 O6 2.028 . S
Zn5 O8 2.028 . S
Zn5 O11 2.035 . S
O6 Zn5 2.028 . S
O6 C12 1.247 . S
O7 Zn3 2.035 . S
O7 C12 1.258 . S
O8 C1 1.247 . S
O8 Zn5 2.028 . S
O9 C1 1.258 . S
O9 Zn3 2.035 . S
O10 Zn3 2.028 . S
O10 C13 1.247 . S
O11 Zn5 2.035 . S
O11 C13 1.258 . S
C12 O6 1.247 . S
C12 O7 1.258 . S
C13 O10 1.247 . S
C13 O11 1.258 . S
C14 O16 1.247 . S
C14 O18 1.258 . S
C15 O22 1.247 . S
C15 O23 1.258 . S
O16 C14 1.247 . S
O16 Zn17 2.028 . S
Zn17 O16 2.028 . S
Zn17 O21 2.035 . S
Zn17 O23 2.035 . S
Zn17 O24 2.028 . S
O18 C14 1.258 . S
O18 Zn19 2.035 . S
Zn19 O18 2.035 . S
Zn19 O20 2.028 . S
Zn19 O22 2.028 . S
Zn19 O25 2.035 . S
O20 Zn19 2.028 . S
O20 C26 1.247 . S
O21 Zn17 2.035 . S
O21 C26 1.258 . S
O22 C15 1.247 . S
O22 Zn19 2.028 . S
O23 C15 1.258 . S
O23 Zn17 2.035 . S
O24 Zn17 2.028 . S
O24 C27 1.247 . S
O25 Zn19 2.035 . S
O25 C27 1.258 . S
C26 O20 1.247 . S
C26 O21 1.258 . S
C27 O24 1.247 . S
C27 O25 1.258 . S
C28 O30 1.247 . S
C28 O32 1.258 . S
C29 O36 1.247 . S
C29 O37 1.258 . S
O30 C28 1.247 . S
O30 Zn31 2.028 . S
Zn31 O30 2.028 . S
Zn31 O35 2.035 . S
Zn31 O37 2.035 . S
Zn31 O38 2.028 . S
O32 C28 1.258 . S
O32 Zn33 2.035 . S
Zn33 O32 2.035 . S
Zn33 O34 2.028 . S
Zn33 O36 2.028 . S
Zn33 O39 2.035 . S
O34 Zn33 2.028 . S
O34 C40 1.247 . S
O35 Zn31 2.035 . S
O35 C40 1.258 . S
O36 C29 1.247 . S
O36 Zn33 2.028 . S
O37 C29 1.258 . S
O37 Zn31 2.035 . S
O38 Zn31 2.028 . S
O38 C41 1.247 . S
O39 Zn33 2.035 . S
O39 C41 1.258 . S
C40 O34 1.247 . S
C40 O35 1.258 . S
C41 O38 1.247 . S
C41 O39 1.258 . S
C42 O44 1.247 . S
C42 O46 1.258 . S
C43 O50 1.247 . S
C43 O51 1.258 . S
O44 C42 1.247 . S
O44 Zn45 2.028 . S
Zn45 O44 2.028 . S
Zn45 O49 2.035 . S
Zn45 O51 2.035 . S
Zn45 O52 2.028 . S
O46 C42 1.258 . S
O46 Zn47 2.035 . S
Zn47 O46 2.035 . S
Zn47 O48 2.028 . S
Zn47 O50 2.028 . S
Zn47 O53 2.035 . S
O48 Zn47 2.028 . S
O48 C54 1.247 . S
O49 Zn45 2.035 . S
O49 C54 1.258 . S
O50 C43 1.247 . S
O50 Zn47 2.028 . S
O51 C43 1.258 . S
O51 Zn45 2.035 . S
O52 Zn45 2.028 . S
O52 C55 1.247 . S
O53 Zn47 2.035 . S
O53 C55 1.258 . S
C54 O48 1.247 . S
C54 O49 1.258 . S
C55 O52 1.247 . S
C55 O53 1.258 . S
C56 O58 1.247 . S
C56 O60 1.258 . S
C57 O64 1.247 . S
C57 O65 1.258 . S
O58 C56 1.247 . S
O58 Zn59 2.028 . S
Zn59 O58 2.028 . S
Zn59 O63 2.035 . S
Zn59 O65 2.035 . S
Zn59 O66 2.028 . S
O60 C56 1.258 . S
O60 Zn61 2.035 . S
Zn61 O60 2.035 . S
Zn61 O62 2.028 . S
Zn61 O64 2.028 . S
Zn61 O67 2.035 . S
O62 Zn61 2.028 . S
O62 C68 1.247 . S
O63 Zn59 2.035 . S
O63 C68 1.258 . S
O64 C57 1.247 . S
O64 Zn61 2.028 . S
O65 C57 1.258 . S
O65 Zn59 2.035 . S
O66 Zn59 2.028 . S
O66 C69 1.247 . S
O67 Zn61 2.035 . S
O67 C69 1.258 . S
C68 O62 1.247 . S
C68 O63 1.258 . S
C69 O66 1.247 . S
C69 O67 1.258 . S
C70 O72 1.247 . S
C70 O74 1.258 . S
C71 O78 1.247 . S
C71 O79 1.258 . S
O72 C70 1.247 . S
O72 Zn73 2.028 . S
Zn73 O72 2.028 . S
Zn73 O77 2.035 . S
Zn73 O79 2.035 . S
Zn73 O80 2.028 . S
O74 C70 1.258 . S
O74 Zn75 2.035 . S
Zn75 O74 2.035 . S
Zn75 O76 2.028 . S
Zn75 O78 2.028 . S
Zn75 O81 2.035 . S
O76 Zn75 2.028 . S
O76 C82 1.247 . S
O77 Zn73 2.035 . S
O77 C82 1.258 . S
O78 C71 1.247 . S
O78 Zn75 2.028 . S
O79 C71 1.258 . S
O79 Zn73 2.035 . S
O80 Zn73 2.028 . S
O80 C83 1.247 . S
O81 Zn75 2.035 . S
O81 C83 1.258 . S
C82 O76 1.247 . S
C82 O77 1.258 . S
C83 O80 1.247 . S
C83 O81 1.258 . S
C84 O86 1.247 . S
C84 O88 1.258 . S
C85 O92 1.247 . S
C85 O93 1.258 . S
O86 C84 1.247 . S
O86 Zn87 2.028 . S
Zn87 O86 2.028 . S
Zn87 O91 2.035 . S
Zn87 O93 2.035 . S
Zn87 O94 2.028 . S
O88 C84 1.258 . S
O88 Zn89 2.035 . S
Zn89 O88 2.035 . S
Zn89 O90 2.028 . S
Zn89 O92 2.028 . S
Zn89 O95 2.035 . S
O90 Zn89 2.028 . S
O90 C96 1.247 . S
O91 Zn87 2.035 . S
O91 C96 1.258 . S
O92 C85 1.247 . S
O92 Zn89 2.028 . S
O93 C85 1.258 . S
O93 Zn87 2.035 . S
O94 Zn87 2.028 . S
O94 C97 1.247 . S
O95 Zn89 2.035 . S
O95 C97 1.258 . S
C96 O90 1.247 . S
C96 O91 1.258 . S
C97 O94 1.247 . S
C97 O95 1.258 . S
C98 O100 1.247 . S
C98 O102 1.258 . S
C99 O106 1.247 . S
C99 O107 1.258 . S
O100 C98 1.247 . S
O100 Zn101 2.028 . S
Zn101 O100 2.028 . S
Zn101 O105 2.035 . S
Zn101 O107 2.035 . S
Zn101 O108 2.028 . S
O102 C98 1.258 . S
O102 Zn103 2.035 . S
Zn103 O102 2.035 . S
Zn103 O104 2.028 . S
Zn103 O106 2.028 . S
Zn103 O109 2.035 . S
O104 Zn103 2.028 . S
O104 C110 1.247 . S
O105 Zn101 2.035 . S
O105 C110 1.258 . S
O106 C99 1.247 . S
O106 Zn103 2.028 . S
O107 C99 1.258 . S
O107 Zn101 2.035 . S
O108 Zn101 2.028 . S
O108 C111 1.247 . S
O109 Zn103 2.035 . S
O109 C111 1.258 . S
C110 O104 1.247 . S
C110 O105 1.258 . S
C111 O108 1.247 . S
C111 O109 1.258 . S
C112 O114 1.247 . S
C112 O116 1.258 . S
C113 O120 1.247 . S
C113 O121 1.258 . S
O114 C112 1.247 . S
O114 Zn115 2.028 . S
Zn115 O114 2.028 . S
Zn115 O119 2.035 . S
Zn115 O121 2.035 . S
Zn115 O122 2.028 . S
O116 C112 1.258 . S
O116 Zn117 2.035 . S
Zn117 O116 2.035 . S
Zn117 O118 2.028 . S
Zn117 O120 2.028 . S
Zn117 O123 2.035 . S
O118 Zn117 2.028 . S
O118 C124 1.247 . S
O119 Zn115 2.035 . S
O119 C124 1.258 . S
O120 C113 1.247 . S
O120 Zn117 2.028 . S
O121 C113 1.258 . S
O121 Zn115 2.035 . S
O122 Zn115 2.028 . S
O122 C125 1.247 . S
O123 Zn117 2.035 . S
O123 C125 1.258 . S
C124 O118 1.247 . S
C124 O119 1.258 . S
C125 O122 1.247 . S
C125 O123 1.258 . S
C126 O128 1.247 . S
C126 O130 1.258 . S
C127 O134 1.247 . S
C127 O135 1.258 . S
O128 C126 1.247 . S
O128 Zn129 2.028 . S
Zn129 O128 2.028 . S
Zn129 O133 2.035 . S
Zn129 O135 2.035 . S
Zn129 O136 2.028 . S
O130 C126 1.258 . S
O130 Zn131 2.035 . S
Zn131 O130 2.035 . S
Zn131 O132 2.028 . S
Zn131 O134 2.028 . S
Zn131 O137 2.035 . S
O132 Zn131 2.028 . S
O132 C138 1.247 . S
O133 Zn129 2.035 . S
O133 C138 1.258 . S
O134 C127 1.247 . S
O134 Zn131 2.028 . S
O135 C127 1.258 . S
O135 Zn129 2.035 . S
O136 Zn129 2.028 . S
O136 C139 1.247 . S
O137 Zn131 2.035 . S
O137 C139 1.258 . S
C138 O132 1.247 . S
C138 O133 1.258 . S
C139 O136 1.247 . S
C139 O137 1.258 . S
C140 O142 1.247 . S
C140 O144 1.258 . S
C141 O148 1.247 . S
C141 O149 1.258 . S
O142 C140 1.247 . S
O142 Zn143 2.028 . S
Zn143 O142 2.028 . S
Zn143 O147 2.035 . S
Zn143 O149 2.035 . S
Zn143 O150 2.028 . S
O144 C140 1.258 . S
O144 Zn145 2.035 . S
Zn145 O144 2.035 . S
Zn145 O146 2.028 . S
Zn145 O148 2.028 . S
Zn145 O151 2.035 . S
O146 Zn145 2.028 . S
O146 C152 1.247 . S
O147 Zn143 2.035 . S
O147 C152 1.258 . S
O148 C141 1.247 . S
O148 Zn145 2.028 . S
O149 C141 1.258 . S
O149 Zn143 2.035 . S
O150 Zn143 2.028 . S
O150 C153 1.247 . S
O151 Zn145 2.035 . S
O151 C153 1.258 . S
C152 O146 1.247 . S
C152 O147 1.258 . S
C153 O150 1.247 . S
C153 O151 1.258 . S
C154 O156 1.247 . S
C154 O158 1.258 . S
C155 O162 1.247 . S
C155 O163 1.258 . S
O156 C154 1.247 . S
O156 Zn157 2.028 . S
Zn157 O156 2.028 . S
Zn157 O161 2.035 . S
Zn157 O163 2.035 . S
Zn157 O164 2.028 . S
O158 C154 1.258 . S
O158 Zn159 2.035 . S
Zn159 O158 2.035 . S
Zn159 O160 2.028 . S
Zn159 O162 2.028 . S
Zn159 O165 2.035 . S
O160 Zn159 2.028 . S
O160 C166 1.247 . S
O161 Zn157 2.035 . S
O161 C166 1.258 . S
O162 C155 1.247 . S
O162 Zn159 2.028 . S
O163 C155 1.258 . S
O163 Zn157 2.035 . S
O164 Zn157 2.028 . S
O164 C167 1.247 . S
O165 Zn159 2.035 . S
O165 C167 1.258 . S
C166 O160 1.247 . S
C166 O161 1.258 . S
C167 O164 1.247 . S
C167 O165 1.258 . S
C168 O170 1.247 . S
C168 O172 1.258 . S
C169 O176 1.247 . S
C169 O177 1.258 . S
O170 C168 1.247 . S
O170 Zn171 2.028 . S
Zn171 O170 2.028 . S
Zn171 O175 2.035 . S
Zn171 O177 2.035 . S
Zn171 O178 2.028 . S
O172 C168 1.258 . S
O172 Zn173 2.035 . S
Zn173 O172 2.035 . S
Zn173 O174 2.028 . S
Zn173 O176 2.028 . S
Zn173 O179 2.035 . S
O174 Zn173 2.028 . S
O174 C180 1.247 . S
O175 Zn171 2.035 . S
O175 C180 1.258 . S
O176 C169 1.247 . S
O176 Zn173 2.028 . S
O177 C169 1.258 . S
O177 Zn171 2.035 . S
O178 Zn171 2.028 . S
O178 C181 1.247 . S
O179 Zn173 2.035 . S
O179 C181 1.258 . S
C180 O174 1.247 . S
C180 O175 1.258 . S
C181 O178 1.247 . S
C181 O179 1.258 . S
C182 O184 1.247 . S
C182 O186 1.258 . S
C183 O190 1.247 . S
C183 O191 1.258 . S
O184 C182 1.247 . S
O184 Zn185 2.028 . S
Zn185 O184 2.028 . S
Zn185 O189 2.035 . S
Zn185 O191 2.035 . S
Zn185 O192 2.028 . S
O186 C182 1.258 . S
O186 Zn187 2.035 . S
Zn187 O186 2.035 . S
Zn187 O188 2.028 . S
Zn187 O190 2.028 . S
Zn187 O193 2.035 . S
O188 Zn187 2.028 . S
O188 C194 1.247 . S
O189 Zn185 2.035 . S
O189 C194 1.258 . S
O190 C183 1.247 . S
O190 Zn187 2.028 . S
O191 C183 1.258 . S
O191 Zn185 2.035 . S
O192 Zn185 2.028 . S
O192 C195 1.247 . S
O193 Zn187 2.035 . S
O193 C195 1.258 . S
C194 O188 1.247 . S
C194 O189 1.258 . S
C195 O192 1.247 . S
C195 O193 1.258 . S
C196 O198 1.247 . S
C196 O200 1.258 . S
C197 O204 1.247 . S
C197 O205 1.258 . S
O198 C196 1.247 . S
O198 Zn199 2.028 . S
Zn199 O198 2.028 . S
Zn199 O203 2.035 . S
Zn199 O205 2.035 . S
Zn199 O206 2.028 . S
O200 C196 1.258 . S
O200 Zn201 2.035 . S
Zn201 O200 2.035 . S
Zn201 O202 2.028 . S
Zn201 O204 2.028 . S
Zn201 O207 2.035 . S
O202 Zn201 2.028 . S
O202 C208 1.247 . S
O203 Zn199 2.035 . S
O203 C208 1.258 . S
O204 C197 1.247 . S
O204 Zn201 2.028 . S
O205 C197 1.258 . S
O205 Zn199 2.035 . S
O206 Zn199 2.028 . S
O206 C209 1.247 . S
O207 Zn201 2.035 . S
O207 C209 1.258 . S
C208 O202 1.247 . S
C208 O203 1.258 . S
C209 O206 1.247 . S
C209 O207 1.258 . S
C210 O212 1.247 . S
C210 O214 1.258 . S
C211 O218 1.247 . S
C211 O219 1.258 . S
O212 C210 1.247 . S
O212 Zn213 2.028 . S
Zn213 O212 2.028 . S
Zn213 O217 2.035 . S
Zn213 O219 2.035 . S
Zn213 O220 2.028 . S
O214 C210 1.258 . S
O214 Zn215 2.035 . S
Zn215 O214 2.035 . S
Zn215 O216 2.028 . S
Zn215 O218 2.028 . S
Zn215 O221 2.035 . S
O216 Zn215 2.028 . S
O216 C222 1.247 . S
O217 Zn213 2.035 . S
O217 C222 1.258 . S
O218 C211 1.247 . S
O218 Zn215 2.028 . S
O219 C211 1.258 . S
O219 Zn213 2.035 . S
O220 Zn213 2.028 . S
O220 C223 1.247 . S
O221 Zn215 2.035 . S
O221 C223 1.258 . S
C222 O216 1.247 . S
C222 O217 1.258 . S
C223 O220 1.247 . S
C223 O221 1.258 . S
H224 C232 0.950 . S
H225 C237 0.950 . S
H226 C234 0.950 . S
H227 C236 0.950 . S
H228 C238 0.950 . S
H229 C240 0.950 . S
H230 C242 0.950 . S
H231 C243 0.950 . S
C232 H224 0.950 . S
C232 C233 1.386 . S
C232 C234 1.391 . S
C233 C232 1.386 . S
C233 C237 1.393 . S
C234 H226 0.950 . S
C234 C232 1.391 . S
C234 C235 1.400 . S
C235 C234 1.400 . S
C235 C236 1.398 . S
C235 C241 1.491 . S
C236 H227 0.950 . S
C236 C235 1.398 . S
C236 C237 1.391 . S
C237 H225 0.950 . S
C237 C233 1.393 . S
C237 C236 1.391 . S
C238 H228 0.950 . S
C238 C239 1.386 . S
C238 C240 1.391 . S
C239 C238 1.386 . S
C239 C243 1.393 . S
C240 H229 0.950 . S
C240 C238 1.391 . S
C240 C241 1.400 . S
C241 C235 1.491 . S
C241 C240 1.400 . S
C241 C242 1.398 . S
C242 H230 0.950 . S
C242 C241 1.398 . S
C242 C243 1.391 . S
C243 H231 0.950 . S
C243 C239 1.393 . S
C243 C242 1.391 . S
H244 C252 0.950 . S
H245 C257 0.950 . S
H246 C254 0.950 . S
H247 C256 0.950 . S
H248 C258 0.950 . S
H249 C260 0.950 . S
H250 C262 0.950 . S
H251 C263 0.950 . S
C252 H244 0.950 . S
C252 C253 1.386 . S
C252 C254 1.391 . S
C253 C252 1.386 . S
C253 C257 1.393 . S
C254 H246 0.950 . S
C254 C252 1.391 . S
C254 C255 1.400 . S
C255 C254 1.400 . S
C255 C256 1.398 . S
C255 C261 1.491 . S
C256 H247 0.950 . S
C256 C255 1.398 . S
C256 C257 1.391 . S
C257 H245 0.950 . S
C257 C253 1.393 . S
C257 C256 1.391 . S
C258 H248 0.950 . S
C258 C259 1.386 . S
C258 C260 1.391 . S
C259 C258 1.386 . S
C259 C263 1.393 . S
C260 H249 0.950 . S
C260 C258 1.391 . S
C260 C261 1.400 . S
C261 C255 1.491 . S
C261 C260 1.400 . S
C261 C262 1.398 . S
C262 H250 0.950 . S
C262 C261 1.398 . S
C262 C263 1.391 . S
C263 H251 0.950 . S
C263 C259 1.393 . S
C263 C262 1.391 . S
H264 C272 0.950 . S
H265 C277 0.950 . S
H266 C274 0.950 . S
H267 C276 0.950 . S
H268 C278 0.950 . S
H269 C280 0.950 . S
H270 C282 0.950 . S
H271 C283 0.950 . S
C272 H264 0.950 . S
C272 C273 1.386 . S
C272 C274 1.391 . S
C273 C272 1.386 . S
C273 C277 1.393 . S
C274 H266 0.950 . S
C274 C272 1.391 . S
C274 C275 1.400 . S
C275 C274 1.400 . S
C275 C276 1.398 . S
C275 C281 1.491 . S
C276 H267 0.950 . S
C276 C275 1.398 . S
C276 C277 1.391 . S
C277 H265 0.950 . S
C277 C273 1.393 . S
C277 C276 1.391 . S
C278 H268 0.950 . S
C278 C279 1.386 . S
C278 C280 1.391 . S
C279 C278 1.386 . S
C279 C283 1.393 . S
C280 H269 0.950 . S
C280 C278 1.391 . S
C280 C281 1.400 . S
C281 C275 1.491 . S
C281 C280 1.400 . S
C281 C282 1.398 . S
C282 H270 0.950 . S
C282 C281 1.398 . S
C282 C283 1.391 . S
C283 H271 0.950 . S
C283 C279 1.393 . S
C283 C282 1.391 . S
H284 C292 0.950 . S
H285 C297 0.950 . S
H286 C294 0.950 . S
H287 C296 0.950 . S
H288 C298 0.950 . S
H289 C300 0.950 . S
H290 C302 0.950 . S
H291 C303 0.950 . S
C292 H284 0.950 . S
C292 C293 1.386 . S
C292 C294 1.391 . S
C293 C292 1.386 . S
C293 C297 1.393 . S
C294 H286 0.950 . S
C294 C292 1.391 . S
C294 C295 1.400 . S
C295 C294 1.400 . S
C295 C296 1.398 . S
C295 C301 1.491 . S
C296 H287 0.950 . S
C296 C295 1.398 . S
C296 C297 1.391 . S
C297 H285 0.950 . S
C297 C293 1.393 . S
C297 C296 1.391 . S
C298 H288 0.950 . S
C298 C299 1.386 . S
C298 C300 1.391 . S
C299 C298 1.386 . S
C299 C303 1.393 . S
C300 H289 0.950 . S
C300 C298 1.391 . S
C300 C301 1.400 . S
C301 C295 1.491 . S
C301 C300 1.400 . S
C301 C302 1.398 . S
C302 H290 0.950 . S
C302 C301 1.398 . S
C302 C303 1.391 . S
C303 H291 0.950 . S
C303 C299 1.393 . S
C303 C302 1.391 . S
H304 C312 0.950 . S
H305 C317 0.950 . S
H306 C314 0.950 . S
H307 C316 0.950 . S
H308 C318 0.950 . S
H309 C320 0.950 . S
H310 C322 0.950 . S
H311 C323 0.950 . S
C312 H304 0.950 . S
C312 C313 1.386 . S
C312 C314 1.391 . S
C313 C312 1.386 . S
C313 C317 1.393 . S
C314 H306 0.950 . S
C314 C312 1.391 . S
C314 C315 1.400 . S
C315 C314 1.400 . S
C315 C316 1.398 . S
C315 C321 1.491 . S
C316 H307 0.950 . S
C316 C315 1.398 . S
C316 C317 1.391 . S
C317 H305 0.950 . S
C317 C313 1.393 . S
C317 C316 1.391 . S
C318 H308 0.950 . S
C318 C319 1.386 . S
C318 C320 1.391 . S
C319 C318 1.386 . S
C319 C323 1.393 . S
C320 H309 0.950 . S
C320 C318 1.391 . S
C320 C321 1.400 . S
C321 C315 1.491 . S
C321 C320 1.400 . S
C321 C322 1.398 . S
C322 H310 0.950 . S
C322 C321 1.398 . S
C322 C323 1.391 . S
C323 H311 0.950 . S
C323 C319 1.393 . S
C323 C322 1.391 . S
H324 C332 0.950 . S
H325 C337 0.950 . S
H326 C334 0.950 . S
H327 C336 0.950 . S
H328 C338 0.950 . S
H329 C340 0.950 . S
H330 C342 0.950 . S
H331 C343 0.950 . S
C332 H324 0.950 . S
C332 C333 1.386 . S
C332 C334 1.391 . S
C333 C332 1.386 . S
C333 C337 1.393 . S
C334 H326 0.950 . S
C334 C332 1.391 . S
C334 C335 1.400 . S
C335 C334 1.400 . S
C335 C336 1.398 . S
C335 C341 1.491 . S
C336 H327 0.950 . S
C336 C335 1.398 . S
C336 C337 1.391 . S
C337 H325 0.950 . S
C337 C333 1.393 . S
C337 C336 1.391 . S
C338 H328 0.950 . S
C338 C339 1.386 . S
C338 C340 1.391 . S
C339 C338 1.386 . S
C339 C343 1.393 . S
C340 H329 0.950 . S
C340 C338 1.391 . S
C340 C341 1.400 . S
C341 C335 1.491 . S
C341 C340 1.400 . S
C341 C342 1.398 . S
C342 H330 0.950 . S
C342 C341 1.398 . S
C342 C343 1.391 . S
C343 H331 0.950 . S
C343 C339 1.393 . S
C343 C342 1.391 . S
H344 C352 0.950 . S
H345 C357 0.950 . S
H346 C354 0.950 . S
H347 C356 0.950 . S
H348 C358 0.950 . S
H349 C360 0.950 . S
H350 C362 0.950 . S
H351 C363 0.950 . S
C352 H344 0.950 . S
C352 C353 1.386 . S
C352 C354 1.391 . S
C353 C352 1.386 . S
C353 C357 1.393 . S
C354 H346 0.950 . S
C354 C352 1.391 . S
C354 C355 1.400 . S
C355 C354 1.400 . S
C355 C356 1.398 . S
C355 C361 1.491 . S
C356 H347 0.950 . S
C356 C355 1.398 . S
C356 C357 1.391 . S
C357 H345 0.950 . S
C357 C353 1.393 . S
C357 C356 1.391 . S
C358 H348 0.950 . S
C358 C359 1.386 . S
C358 C360 1.391 . S
C359 C358 1.386 . S
C359 C363 1.393 . S
C360 H349 0.950 . S
C360 C358 1.391 . S
C360 C361 1.400 . S
C361 C355 1.491 . S
C361 C360 1.400 . S
C361 C362 1.398 . S
C362 H350 0.950 . S
C362 C361 1.398 . S
C362 C363 1.391 . S
C363 H351 0.950 . S
C363 C359 1.393 . S
C363 C362 1.391 . S
H364 C372 0.950 . S
H365 C377 0.950 . S
H366 C374 0.950 . S
H367 C376 0.950 . S
H368 C378 0.950 . S
H369 C380 0.950 . S
H370 C382 0.950 . S
H371 C383 0.950 . S
C372 H364 0.950 . S
C372 C373 1.386 . S
C372 C374 1.391 . S
C373 C372 1.386 . S
C373 C377 1.393 . S
C374 H366 0.950 . S
C374 C372 1.391 . S
C374 C375 1.400 . S
C375 C374 1.400 . S
C375 C376 1.398 . S
C375 C381 1.491 . S
C376 H367 0.950 . S
C376 C375 1.398 . S
C376 C377 1.391 . S
C377 H365 0.950 . S
C377 C373 1.393 . S
C377 C376 1.391 . S
C378 H368 0.950 . S
C378 C379 1.386 . S
C378 C380 1.391 . S
C379 C378 1.386 . S
C379 C383 1.393 . S
C380 H369 0.950 . S
C380 C378 1.391 . S
C380 C381 1.400 . S
C381 C375 1.491 . S
C381 C380 1.400 . S
C381 C382 1.398 . S
C382 H370 0.950 . S
C382 C381 1.398 . S
C382 C383 1.391 . S
C383 H371 0.950 . S
C383 C379 1.393 . S
C383 C382 1.391 . S
H384 C392 0.950 . S
H385 C397 0.950 . S
H386 C394 0.950 . S
H387 C396 0.950 . S
H388 C398 0.956 . S
H389 C400 0.950 . S
H390 C402 0.950 . S
H391 C403 0.950 . S
C392 H384 0.950 . S
C392 C393 1.386 . S
C392 C394 1.391 . S
C393 C392 1.386 . S
C393 C397 1.393 . S
C394 H386 0.950 . S
C394 C392 1.391 . S
C394 C395 1.400 . S
C395 C394 1.400 . S
C395 C396 1.398 . S
C395 C401 1.491 . S
C396 H387 0.950 . S
C396 C395 1.398 . S
C396 C397 1.391 . S
C397 H385 0.950 . S
C397 C393 1.393 . S
C397 C396 1.391 . S
C398 H388 0.956 . S
C398 C399 1.386 . S
C398 C400 1.391 . S
C399 C398 1.386 . S
C399 C403 1.393 . S
C400 H389 0.950 . S
C400 C398 1.391 . S
C400 C401 1.400 . S
C401 C395 1.491 . S
C401 C400 1.400 . S
C401 C402 1.398 . S
C402 H390 0.950 . S
C402 C401 1.398 . S
C402 C403 1.391 . S
C403 H391 0.950 . S
C403 C399 1.393 . S
C403 C402 1.391 . S
H404 C412 0.950 . S
H405 C417 0.950 . S
H406 C414 0.950 . S
H407 C416 0.950 . S
H408 C418 0.950 . S
H409 C420 0.950 . S
H410 C422 0.950 . S
H411 C423 0.950 . S
C412 H404 0.950 . S
C412 C413 1.386 . S
C412 C414 1.391 . S
C413 C412 1.386 . S
C413 C417 1.393 . S
C414 H406 0.950 . S
C414 C412 1.391 . S
C414 C415 1.400 . S
C415 C414 1.400 . S
C415 C416 1.398 . S
C415 C421 1.491 . S
C416 H407 0.950 . S
C416 C415 1.398 . S
C416 C417 1.391 . S
C417 H405 0.950 . S
C417 C413 1.393 . S
C417 C416 1.391 . S
C418 H408 0.950 . S
C418 C419 1.386 1_455 S
C418 C420 1.391 . S
C419 C418 1.386 1_655 S
C419 C423 1.393 . S
C420 H409 0.950 . S
C420 C418 1.391 . S
C420 C421 1.400 1_455 S
C421 C415 1.491 . S
C421 C420 1.400 1_655 S
C421 C422 1.398 . S
C422 H410 0.950 . S
C422 C421 1.398 . S
C422 C423 1.391 . S
C423 H411 0.950 . S
C423 C419 1.393 . S
C423 C422 1.391 . S
H424 C432 0.950 . S
H425 C437 0.950 . S
H426 C434 0.946 1_545 S
H427 C436 0.950 . S
H428 C438 0.950 . S
H429 C440 0.950 . S
H430 C442 0.950 . S
H431 C443 0.950 . S
C432 H424 0.950 . S
C432 C433 1.386 1_545 S
C432 C434 1.388 1_545 S
C433 C432 1.386 1_565 S
C433 C437 1.393 . S
C434 H426 0.946 1_565 S
C434 C432 1.388 1_565 S
C434 C435 1.407 . S
C435 C434 1.407 . S
C435 C436 1.398 . S
C435 C441 1.491 . S
C436 H427 0.950 . S
C436 C435 1.398 . S
C436 C437 1.391 . S
C437 H425 0.950 . S
C437 C433 1.393 . S
C437 C436 1.391 . S
C438 H428 0.950 . S
C438 C439 1.386 . S
C438 C440 1.391 . S
C439 C438 1.386 . S
C439 C443 1.393 . S
C440 H429 0.950 . S
C440 C438 1.391 . S
C440 C441 1.400 . S
C441 C435 1.491 . S
C441 C440 1.400 . S
C441 C442 1.398 . S
C442 H430 0.950 . S
C442 C441 1.398 . S
C442 C443 1.391 . S
C443 H431 0.950 . S
C443 C439 1.393 . S
C443 C442 1.391 . S
H444 C452 0.950 . S
H445 C457 0.950 . S
H446 C454 0.950 . S
H447 C456 0.950 . S
H448 C458 0.950 . S
H449 C460 0.950 . S
H450 C462 0.950 . S
H451 C463 0.950 . S
C452 H444 0.950 . S
C452 C453 1.386 . S
C452 C454 1.391 . S
C453 C452 1.386 . S
C453 C457 1.393 . S
C454 H446 0.950 . S
C454 C452 1.391 . S
C454 C455 1.400 . S
C455 C454 1.400 . S
C455 C456 1.398 . S
C455 C461 1.491 . S
C456 H447 0.950 . S
C456 C455 1.398 . S
C456 C457 1.391 . S
C457 H445 0.950 . S
C457 C453 1.393 . S
C457 C456 1.391 . S
C458 H448 0.950 . S
C458 C459 1.386 . S
C458 C460 1.391 . S
C459 C458 1.386 . S
C459 C463 1.393 . S
C460 H449 0.950 . S
C460 C458 1.391 . S
C460 C461 1.400 . S
C461 C455 1.491 . S
C461 C460 1.400 . S
C461 C462 1.398 . S
C462 H450 0.950 . S
C462 C461 1.398 . S
C462 C463 1.391 . S
C463 H451 0.950 . S
C463 C459 1.393 . S
C463 C462 1.391 . S
H464 C472 0.950 . S
H465 C477 0.950 . S
H466 C474 0.950 . S
H467 C476 0.950 . S
H468 C478 0.950 . S
H469 C480 0.944 1_655 S
H470 C482 0.950 . S
H471 C483 0.950 . S
C472 H464 0.950 . S
C472 C473 1.386 . S
C472 C474 1.391 . S
C473 C472 1.386 . S
C473 C477 1.393 . S
C474 H466 0.950 . S
C474 C472 1.391 . S
C474 C475 1.400 . S
C475 C474 1.400 . S
C475 C476 1.398 . S
C475 C481 1.491 . S
C476 H467 0.950 . S
C476 C475 1.398 . S
C476 C477 1.391 . S
C477 H465 0.950 . S
C477 C473 1.393 . S
C477 C476 1.391 . S
C478 H468 0.950 . S
C478 C479 1.386 1_655 S
C478 C480 1.387 1_655 S
C479 C478 1.386 1_455 S
C479 C483 1.393 . S
C480 H469 0.944 1_455 S
C480 C478 1.387 1_455 S
C480 C481 1.410 . S
C481 C475 1.491 . S
C481 C480 1.410 . S
C481 C482 1.398 . S
C482 H470 0.950 . S
C482 C481 1.398 . S
C482 C483 1.391 . S
C483 H471 0.950 . S
C483 C479 1.393 . S
C483 C482 1.391 . S
H484 C492 0.950 . S
H485 C497 0.950 . S
H486 C494 0.950 . S
H487 C496 0.950 1_565 S
H488 C498 0.950 . S
H489 C500 0.950 1_655 S
H490 C502 0.950 . S
H491 C503 0.950 . S
C492 H484 0.950 . S
C492 C493 1.386 . S
C492 C494 1.391 . S
C493 C492 1.386 . S
C493 C497 1.393 1_545 S
C494 H486 0.950 . S
C494 C492 1.391 . S
C494 C495 1.400 . S
C495 C494 1.400 . S
C495 C496 1.398 . S
C495 C501 1.491 . S
C496 H487 0.950 1_545 S
C496 C495 1.398 . S
C496 C497 1.391 1_545 S
C497 H485 0.950 . S
C497 C493 1.393 1_565 S
C497 C496 1.391 1_565 S
C498 H488 0.950 . S
C498 C499 1.386 1_655 S
C498 C500 1.391 1_655 S
C499 C498 1.386 1_455 S
C499 C503 1.393 . S
C500 H489 0.950 1_455 S
C500 C498 1.391 1_455 S
C500 C501 1.400 . S
C501 C495 1.491 . S
C501 C500 1.400 . S
C501 C502 1.398 . S
C502 H490 0.950 . S
C502 C501 1.398 . S
C502 C503 1.391 . S
C503 H491 0.950 . S
C503 C499 1.393 . S
C503 C502 1.391 . S
H504 C512 0.950 . S
H505 C517 0.950 . S
H506 C514 0.950 . S
H507 C516 0.950 . S
H508 C518 0.950 . S
H509 C520 0.950 1_565 S
H510 C522 0.950 . S
H511 C523 0.950 . S
C512 H504 0.950 . S
C512 C513 1.386 . S
C512 C514 1.391 . S
C513 C512 1.386 . S
C513 C517 1.393 . S
C514 H506 0.950 . S
C514 C512 1.391 . S
C514 C515 1.400 . S
C515 C514 1.400 . S
C515 C516 1.398 . S
C515 C521 1.491 . S
C516 H507 0.950 . S
C516 C515 1.398 . S
C516 C517 1.391 . S
C517 H505 0.950 . S
C517 C513 1.393 . S
C517 C516 1.391 . S
C518 H508 0.950 . S
C518 C519 1.386 1_565 S
C518 C520 1.391 1_565 S
C519 C518 1.386 1_545 S
C519 C523 1.393 . S
C520 H509 0.950 1_545 S
C520 C518 1.391 1_545 S
C520 C521 1.400 . S
C521 C515 1.491 . S
C521 C520 1.400 . S
C521 C522 1.398 . S
C522 H510 0.950 . S
C522 C521 1.398 . S
C522 C523 1.391 . S
C523 H511 0.950 . S
C523 C519 1.393 . S
C523 C522 1.391 . S
H524 C532 0.950 . S
H525 C537 0.950 . S
H526 C534 0.950 . S
H527 C536 0.950 . S
H528 C538 0.950 . S
H529 C540 0.950 . S
H530 C542 0.950 . S
H531 C543 0.950 . S
C532 H524 0.950 . S
C532 C533 1.386 . S
C532 C534 1.391 . S
C533 C532 1.386 . S
C533 C537 1.393 . S
C534 H526 0.950 . S
C534 C532 1.391 . S
C534 C535 1.400 . S
C535 C534 1.400 . S
C535 C536 1.398 . S
C535 C541 1.491 . S
C536 H527 0.950 . S
C536 C535 1.398 . S
C536 C537 1.391 . S
C537 H525 0.950 . S
C537 C533 1.393 . S
C537 C536 1.391 . S
C538 H528 0.950 . S
C538 C539 1.386 . S
C538 C540 1.391 . S
C539 C538 1.386 . S
C539 C543 1.393 . S
C540 H529 0.950 . S
C540 C538 1.391 . S
C540 C541 1.400 . S
C541 C535 1.491 . S
C541 C540 1.400 . S
C541 C542 1.398 . S
C542 H530 0.950 . S
C542 C541 1.398 . S
C542 C543 1.391 . S
C543 H531 0.950 . S
C543 C539 1.393 . S
C543 C542 1.391 . S
H544 C552 0.950 . S
H545 C557 0.950 . S
H546 C554 0.950 . S
H547 C556 0.950 . S
H548 C558 0.950 . S
H549 C560 0.950 . S
H550 C562 0.950 . S
H551 C563 0.950 . S
C552 H544 0.950 . S
C552 C553 1.386 . S
C552 C554 1.391 . S
C553 C552 1.386 . S
C553 C557 1.393 . S
C554 H546 0.950 . S
C554 C552 1.391 . S
C554 C555 1.400 . S
C555 C554 1.400 . S
C555 C556 1.398 . S
C555 C561 1.491 . S
C556 H547 0.950 . S
C556 C555 1.398 . S
C556 C557 1.391 . S
C557 H545 0.950 . S
C557 C553 1.393 . S
C557 C556 1.391 . S
C558 H548 0.950 . S
C558 C559 1.386 . S
C558 C560 1.391 . S
C559 C558 1.386 . S
C559 C563 1.393 . S
C560 H549 0.950 . S
C560 C558 1.391 . S
C560 C561 1.400 . S
C561 C555 1.491 . S
C561 C560 1.400 . S
C561 C562 1.398 . S
C562 H550 0.950 . S
C562 C561 1.398 . S
C562 C563 1.391 . S
C563 H551 0.950 . S
C563 C559 1.393 . S
C563 C562 1.391 . S
H564 C572 0.950 . S
H565 C577 0.950 . S
H566 C574 0.950 . S
H567 C576 0.950 . S
H568 C578 0.950 . S
H569 C580 0.950 . S
H570 C582 0.950 . S
H571 C583 0.950 . S
C572 H564 0.950 . S
C572 C573 1.386 . S
C572 C574 1.391 . S
C573 C572 1.386 . S
C573 C577 1.393 . S
C574 H566 0.950 . S
C574 C572 1.391 . S
C574 C575 1.400 . S
C575 C574 1.400 . S
C575 C576 1.398 . S
C575 C581 1.491 . S
C576 H567 0.950 . S
C576 C575 1.398 . S
C576 C577 1.391 . S
C577 H565 0.950 . S
C577 C573 1.393 . S
C577 C576 1.391 . S
C578 H568 0.950 . S
C578 C579 1.386 . S
C578 C580 1.391 . S
C579 C578 1.386 . S
C579 C583 1.393 . S
C580 H569 0.950 . S
C580 C578 1.391 . S
C580 C581 1.400 . S
C581 C575 1.491 . S
C581 C580 1.400 . S
C581 C582 1.398 . S
C582 H570 0.950 . S
C582 C581 1.398 . S
C582 C583 1.391 . S
C583 H571 0.950 . S
C583 C579 1.393 . S
C583 C582 1.391 . S
H584 C592 0.950 . S
H585 C597 0.950 . S
H586 C594 0.950 . S
H587 C596 0.950 . S
H588 C598 0.950 . S
H589 C600 0.950 . S
H590 C602 0.950 . S
H591 C603 0.950 . S
C592 H584 0.950 . S
C592 C593 1.386 . S
C592 C594 1.391 . S
C593 C592 1.386 . S
C593 C597 1.393 . S
C594 H586 0.950 . S
C594 C592 1.391 . S
C594 C595 1.400 . S
C595 C594 1.400 . S
C595 C596 1.398 . S
C595 C601 1.491 . S
C596 H587 0.950 . S
C596 C595 1.398 . S
C596 C597 1.391 . S
C597 H585 0.950 . S
C597 C593 1.393 . S
C597 C596 1.391 . S
C598 H588 0.950 . S
C598 C599 1.386 . S
C598 C600 1.391 . S
C599 C598 1.386 . S
C599 C603 1.393 . S
C600 H589 0.950 . S
C600 C598 1.391 . S
C600 C601 1.400 . S
C601 C595 1.491 . S
C601 C600 1.400 . S
C601 C602 1.398 . S
C602 H590 0.950 . S
C602 C601 1.398 . S
C602 C603 1.391 . S
C603 H591 0.950 . S
C603 C599 1.393 . S
C603 C602 1.391 . S
H604 C612 0.950 . S
H605 C617 0.950 . S
H606 C614 0.950 . S
H607 C616 0.950 . S
H608 C618 0.950 . S
H609 C620 0.950 . S
H610 C622 0.950 . S
H611 C623 0.950 . S
C612 H604 0.950 . S
C612 C613 1.386 . S
C612 C614 1.391 . S
C613 C612 1.386 . S
C613 C617 1.393 . S
C614 H606 0.950 . S
C614 C612 1.391 . S
C614 C615 1.400 . S
C615 C614 1.400 . S
C615 C616 1.398 . S
C615 C621 1.491 . S
C616 H607 0.950 . S
C616 C615 1.398 . S
C616 C617 1.391 . S
C617 H605 0.950 . S
C617 C613 1.393 . S
C617 C616 1.391 . S
C618 H608 0.950 . S
C618 C619 1.386 . S
C618 C620 1.391 . S
C619 C618 1.386 . S
C619 C623 1.393 . S
C620 H609 0.950 . S
C620 C618 1.391 . S
C620 C621 1.400 . S
C621 C615 1.491 . S
C621 C620 1.400 . S
C621 C622 1.398 . S
C622 H610 0.950 . S
C622 C621 1.398 . S
C622 C623 1.391 . S
C623 H611 0.950 . S
C623 C619 1.393 . S
C623 C622 1.391 . S
H624 C632 0.950 . S
H625 C637 0.950 . S
H626 C634 0.950 . S
H627 C636 0.950 . S
H628 C638 0.950 . S
H629 C640 0.950 . S
H630 C642 0.950 . S
H631 C643 0.950 . S
C632 H624 0.950 . S
C632 C633 1.386 . S
C632 C634 1.391 . S
C633 C632 1.386 . S
C633 C637 1.393 . S
C634 H626 0.950 . S
C634 C632 1.391 . S
C634 C635 1.400 . S
C635 C634 1.400 . S
C635 C636 1.398 . S
C635 C641 1.491 . S
C636 H627 0.950 . S
C636 C635 1.398 . S
C636 C637 1.391 . S
C637 H625 0.950 . S
C637 C633 1.393 . S
C637 C636 1.391 . S
C638 H628 0.950 . S
C638 C639 1.386 . S
C638 C640 1.391 . S
C639 C638 1.386 . S
C639 C643 1.393 . S
C640 H629 0.950 . S
C640 C638 1.391 . S
C640 C641 1.400 . S
C641 C635 1.491 . S
C641 C640 1.400 . S
C641 C642 1.398 . S
C642 H630 0.950 . S
C642 C641 1.398 . S
C642 C643 1.391 . S
C643 H631 0.950 . S
C643 C639 1.393 . S
C643 C642 1.391 . S
H644 C652 0.950 . S
H645 C657 0.950 . S
H646 C654 0.950 . S
H647 C656 0.950 . S
H648 C658 0.950 . S
H649 C660 0.950 . S
H650 C662 0.950 . S
H651 C663 0.950 . S
C652 H644 0.950 . S
C652 C653 1.386 . S
C652 C654 1.391 . S
C653 C652 1.386 . S
C653 C657 1.393 . S
C654 H646 0.950 . S
C654 C652 1.391 . S
C654 C655 1.400 . S
C655 C654 1.400 . S
C655 C656 1.398 . S
C655 C661 1.491 . S
C656 H647 0.950 . S
C656 C655 1.398 . S
C656 C657 1.391 . S
C657 H645 0.950 . S
C657 C653 1.393 . S
C657 C656 1.391 . S
C658 H648 0.950 . S
C658 C659 1.386 . S
C658 C660 1.391 . S
C659 C658 1.386 . S
C659 C663 1.393 . S
C660 H649 0.950 . S
C660 C658 1.391 . S
C660 C661 1.400 . S
C661 C655 1.491 . S
C661 C660 1.400 . S
C661 C662 1.398 . S
C662 H650 0.950 . S
C662 C661 1.398 . S
C662 C663 1.391 . S
C663 H651 0.950 . S
C663 C659 1.393 . S
C663 C662 1.391 . S
H664 C672 0.950 . S
H665 C677 0.950 . S
H666 C674 0.950 . S
H667 C676 0.950 . S
H668 C678 0.950 . S
H669 C680 0.950 . S
H670 C682 0.950 . S
H671 C683 0.950 . S
C672 H664 0.950 . S
C672 C673 1.386 . S
C672 C674 1.391 . S
C673 C672 1.386 . S
C673 C677 1.393 . S
C674 H666 0.950 . S
C674 C672 1.391 . S
C674 C675 1.400 . S
C675 C674 1.400 . S
C675 C676 1.398 . S
C675 C681 1.491 . S
C676 H667 0.950 . S
C676 C675 1.398 . S
C676 C677 1.391 . S
C677 H665 0.950 . S
C677 C673 1.393 . S
C677 C676 1.391 . S
C678 H668 0.950 . S
C678 C679 1.386 . S
C678 C680 1.391 . S
C679 C678 1.386 . S
C679 C683 1.393 . S
C680 H669 0.950 . S
C680 C678 1.391 . S
C680 C681 1.400 . S
C681 C675 1.491 . S
C681 C680 1.400 . S
C681 C682 1.398 . S
C682 H670 0.950 . S
C682 C681 1.398 . S
C682 C683 1.391 . S
C683 H671 0.950 . S
C683 C679 1.393 . S
C683 C682 1.391 . S
H684 C692 0.950 . S
H685 C697 0.950 . S
H686 C694 0.950 . S
H687 C696 0.950 . S
H688 C698 0.950 . S
H689 C700 0.950 . S
H690 C702 0.950 . S
H691 C703 0.950 . S
C692 H684 0.950 . S
C692 C693 1.386 . S
C692 C694 1.391 . S
C693 C692 1.386 . S
C693 C697 1.393 . S
C694 H686 0.950 . S
C694 C692 1.391 . S
C694 C695 1.400 . S
C695 C694 1.400 . S
C695 C696 1.398 . S
C695 C701 1.491 . S
C696 H687 0.950 . S
C696 C695 1.398 . S
C696 C697 1.391 . S
C697 H685 0.950 . S
C697 C693 1.393 . S
C697 C696 1.391 . S
C698 H688 0.950 . S
C698 C699 1.386 . S
C698 C700 1.391 . S
C699 C698 1.386 . S
C699 C703 1.393 . S
C700 H689 0.950 . S
C700 C698 1.391 . S
C700 C701 1.400 . S
C701 C695 1.491 . S
C701 C700 1.400 . S
C701 C702 1.398 . S
C702 H690 0.950 . S
C702 C701 1.398 . S
C702 C703 1.391 . S
C703 H691 0.950 . S
C703 C699 1.393 . S
C703 C702 1.391 . S
H704 C712 0.950 . S
H705 C717 0.950 . S
H706 C714 0.950 . S
H707 C716 0.950 . S
H708 C718 0.950 . S
H709 C720 0.950 . S
H710 C722 0.950 . S
H711 C723 0.950 . S
C712 H704 0.950 . S
C712 C713 1.386 . S
C712 C714 1.391 . S
C713 C712 1.386 . S
C713 C717 1.393 . S
C714 H706 0.950 . S
C714 C712 1.391 . S
C714 C715 1.400 . S
C715 C714 1.400 . S
C715 C716 1.398 1_455 S
C715 C721 1.491 1_454 S
C716 H707 0.950 . S
C716 C715 1.398 1_655 S
C716 C717 1.391 1_655 S
C717 H705 0.950 . S
C717 C713 1.393 . S
C717 C716 1.391 1_455 S
C718 H708 0.950 . S
C718 C719 1.386 . S
C718 C720 1.391 . S
C719 C718 1.386 . S
C719 C723 1.393 . S
C720 H709 0.950 . S
C720 C718 1.391 . S
C720 C721 1.400 . S
C721 C715 1.491 1_656 S
C721 C720 1.400 . S
C721 C722 1.398 1_655 S
C722 H710 0.950 . S
C722 C721 1.398 1_455 S
C722 C723 1.391 1_455 S
C723 H711 0.950 . S
C723 C719 1.393 . S
C723 C722 1.391 1_655 S
H724 C732 0.950 1_545 S
H725 C737 0.950 . S
H726 C734 0.950 . S
H727 C736 0.950 1_655 S
H728 C738 0.950 1_565 S
H729 C740 0.950 . S
H730 C742 0.950 1_455 S
H731 C743 0.950 . S
C732 H724 0.950 1_565 S
C732 C733 1.386 . S
C732 C734 1.391 1_565 S
C733 C732 1.386 . S
C733 C737 1.393 . S
C734 H726 0.950 . S
C734 C732 1.391 1_545 S
C734 C735 1.400 1_545 S
C735 C734 1.400 1_565 S
C735 C736 1.398 . S
C735 C741 1.491 1_466 S
C736 H727 0.950 1_455 S
C736 C735 1.398 . S
C736 C737 1.391 . S
C737 H725 0.950 . S
C737 C733 1.393 . S
C737 C736 1.391 . S
C738 H728 0.950 1_545 S
C738 C739 1.386 . S
C738 C740 1.391 1_545 S
C739 C738 1.386 . S
C739 C743 1.393 . S
C740 H729 0.950 . S
C740 C738 1.391 1_565 S
C740 C741 1.400 1_565 S
C741 C735 1.491 1_644 S
C741 C740 1.400 1_545 S
C741 C742 1.398 . S
C742 H730 0.950 1_655 S
C742 C741 1.398 . S
C742 C743 1.391 . S
C743 H731 0.950 . S
C743 C739 1.393 . S
C743 C742 1.391 . S
H744 C752 0.950 . S
H745 C757 0.950 . S
H746 C754 0.948 1_556 S
H747 C756 0.950 . S
H748 C758 0.950 . S
H749 C760 0.948 1_554 S
H750 C762 0.950 . S
H751 C763 0.950 . S
C752 H744 0.950 . S
C752 C753 1.386 . S
C752 C754 1.391 . S
C753 C752 1.386 . S
C753 C757 1.393 . S
C754 H746 0.948 1_554 S
C754 C752 1.391 . S
C754 C755 1.400 . S
C755 C754 1.400 . S
C755 C756 1.398 . S
C755 C761 1.491 1_564 S
C756 H747 0.950 . S
C756 C755 1.398 . S
C756 C757 1.391 . S
C757 H745 0.950 . S
C757 C753 1.393 . S
C757 C756 1.391 . S
C758 H748 0.950 . S
C758 C759 1.386 . S
C758 C760 1.391 . S
C759 C758 1.386 . S
C759 C763 1.393 . S
C760 H749 0.948 1_556 S
C760 C758 1.391 . S
C760 C761 1.400 . S
C761 C755 1.491 1_546 S
C761 C760 1.400 . S
C761 C762 1.398 . S
C762 H750 0.950 . S
C762 C761 1.398 . S
C762 C763 1.391 . S
C763 H751 0.950 . S
C763 C759 1.393 . S
C763 C762 1.391 . S
H764 C772 0.950 . S
H765 C777 0.950 . S
H766 C774 0.951 . S
H767 C776 0.950 . S
H768 C778 0.950 . S
H769 C780 0.951 . S
H770 C782 0.950 . S
H771 C783 0.950 . S
C772 H764 0.950 . S
C772 C773 1.386 . S
C772 C774 1.390 1_556 S
C773 C772 1.386 . S
C773 C777 1.393 . S
C774 H766 0.951 . S
C774 C772 1.390 1_554 S
C774 C775 1.400 1_554 S
C775 C774 1.400 1_556 S
C775 C776 1.398 . S
C775 C781 1.491 1_556 S
C776 H767 0.950 . S
C776 C775 1.398 . S
C776 C777 1.391 . S
C777 H765 0.950 . S
C777 C773 1.393 . S
C777 C776 1.391 . S
C778 H768 0.950 . S
C778 C779 1.386 . S
C778 C780 1.390 1_554 S
C779 C778 1.386 . S
C779 C783 1.393 . S
C780 H769 0.951 . S
C780 C778 1.390 1_556 S
C780 C781 1.400 1_556 S
C781 C775 1.491 1_554 S
C781 C780 1.400 1_554 S
C781 C782 1.398 . S
C782 H770 0.950 . S
C782 C781 1.398 . S
C782 C783 1.391 . S
C783 H771 0.950 . S
C783 C779 1.393 . S
C783 C782 1.391 . S
H784 C792 0.950 . S
H785 C797 0.950 . S
H786 C794 0.950 1_545 S
H787 C796 0.950 . S
H788 C798 0.950 . S
H789 C800 0.950 1_565 S
H790 C802 0.950 . S
H791 C803 0.950 . S
C792 H784 0.950 . S
C792 C793 1.386 . S
C792 C794 1.391 . S
C793 C792 1.386 . S
C793 C797 1.393 . S
C794 H786 0.950 1_565 S
C794 C792 1.391 . S
C794 C795 1.400 . S
C795 C794 1.400 . S
C795 C796 1.398 . S
C795 C801 1.491 1_465 S
C796 H787 0.950 . S
C796 C795 1.398 . S
C796 C797 1.391 . S
C797 H785 0.950 . S
C797 C793 1.393 . S
C797 C796 1.391 . S
C798 H788 0.950 . S
C798 C799 1.386 . S
C798 C800 1.391 . S
C799 C798 1.386 . S
C799 C803 1.393 . S
C800 H789 0.950 1_545 S
C800 C798 1.391 . S
C800 C801 1.400 . S
C801 C795 1.491 1_645 S
C801 C800 1.400 . S
C801 C802 1.398 . S
C802 H790 0.950 . S
C802 C801 1.398 . S
C802 C803 1.391 . S
C803 H791 0.950 . S
C803 C799 1.393 . S
C803 C802 1.391 . S
H804 C812 0.950 . S
H805 C817 0.942 1_565 S
H806 C814 0.950 . S
H807 C816 0.950 . S
H808 C818 0.950 . S
H809 C820 0.950 . S
H810 C822 0.950 . S
H811 C823 0.942 1_545 S
C812 H804 0.950 . S
C812 C813 1.386 . S
C812 C814 1.391 . S
C813 C812 1.386 . S
C813 C817 1.393 . S
C814 H806 0.950 . S
C814 C812 1.391 . S
C814 C815 1.400 . S
C815 C814 1.400 . S
C815 C816 1.398 1_545 S
C815 C821 1.491 1_545 S
C816 H807 0.950 . S
C816 C815 1.398 1_565 S
C816 C817 1.391 1_565 S
C817 H805 0.942 1_545 S
C817 C813 1.393 . S
C817 C816 1.391 1_545 S
C818 H808 0.950 . S
C818 C819 1.386 . S
C818 C820 1.391 . S
C819 C818 1.386 . S
C819 C823 1.393 . S
C820 H809 0.950 . S
C820 C818 1.391 . S
C820 C821 1.400 . S
C821 C815 1.491 1_565 S
C821 C820 1.400 . S
C821 C822 1.398 1_565 S
C822 H810 0.950 . S
C822 C821 1.398 1_545 S
C822 C823 1.391 1_545 S
C823 H811 0.942 1_565 S
C823 C819 1.393 . S
C823 C822 1.391 1_565 S
H824 C832 0.950 . S
H825 C837 0.950 . S
H826 C834 0.950 . S
H827 C836 0.950 . S
H828 C838 0.950 . S
H829 C840 0.950 . S
H830 C842 0.950 . S
H831 C843 0.950 . S
C832 H824 0.950 . S
C832 C833 1.386 . S
C832 C834 1.391 . S
C833 C832 1.386 . S
C833 C837 1.393 . S
C834 H826 0.950 . S
C834 C832 1.391 . S
C834 C835 1.400 . S
C835 C834 1.400 . S
C835 C836 1.398 . S
C835 C841 1.491 . S
C836 H827 0.950 . S
C836 C835 1.398 . S
C836 C837 1.391 . S
C837 H825 0.950 . S
C837 C833 1.393 . S
C837 C836 1.391 . S
C838 H828 0.950 . S
C838 C839 1.386 . S
C838 C840 1.391 . S
C839 C838 1.386 . S
C839 C843 1.393 . S
C840 H829 0.950 . S
C840 C838 1.391 . S
C840 C841 1.400 . S
C841 C835 1.491 . S
C841 C840 1.400 . S
C841 C842 1.398 . S
C842 H830 0.950 . S
C842 C841 1.398 . S
C842 C843 1.391 . S
C843 H831 0.950 . S
C843 C839 1.393 . S
C843 C842 1.391 . S
H844 C852 0.950 . S
H845 C857 0.950 . S
H846 C854 0.950 1_455 S
H847 C856 0.950 . S
H848 C858 0.950 . S
H849 C860 0.950 1_655 S
H850 C862 0.950 . S
H851 C863 0.950 . S
C852 H844 0.950 . S
C852 C853 1.386 . S
C852 C854 1.391 . S
C853 C852 1.386 . S
C853 C857 1.393 . S
C854 H846 0.950 1_655 S
C854 C852 1.391 . S
C854 C855 1.400 . S
C855 C854 1.400 . S
C855 C856 1.398 . S
C855 C861 1.491 1_655 S
C856 H847 0.950 . S
C856 C855 1.398 . S
C856 C857 1.391 . S
C857 H845 0.950 . S
C857 C853 1.393 . S
C857 C856 1.391 . S
C858 H848 0.950 . S
C858 C859 1.386 . S
C858 C860 1.391 . S
C859 C858 1.386 . S
C859 C863 1.393 . S
C860 H849 0.950 1_455 S
C860 C858 1.391 . S
C860 C861 1.400 . S
C861 C855 1.491 1_455 S
C861 C860 1.400 . S
C861 C862 1.398 . S
C862 H850 0.950 . S
C862 C861 1.398 . S
C862 C863 1.391 . S
C863 H851 0.950 . S
C863 C859 1.393 . S
C863 C862 1.391 . S
C233 C1 1.947 . S
C239 C41 1.956 . S
C253 C26 1.961 . S
C259 C54 1.955 . S
C273 C57 1.946 . S
C279 C96 1.959 . S
C293 C110 1.948 . S
C299 C82 1.959 . S
C313 C125 1.957 . S
C319 C153 1.949 . S
C333 C167 1.955 . S
C339 C127 1.961 . S
C353 C209 1.957 . S
C359 C180 1.958 . S
C373 C223 1.949 . S
C379 C183 1.962 . S
C393 C111 1.666 . S
C399 C0 1.671 1_655 S
C413 C27 1.670 1_565 S
C419 C56 1.669 1_655 S
C433 C83 1.657 1_565 S
C439 C40 1.654 . S
C453 C55 1.672 . S
C459 C97 1.671 . S
C473 C222 1.652 . S
C479 C124 1.657 1_455 S
C493 C126 1.645 1_545 S
C499 C181 1.648 1_455 S
C513 C152 1.646 . S
C519 C182 1.647 1_545 S
C533 C208 1.646 . S
C539 C166 1.649 . S
C553 C12 0.508 . S
C559 C68 0.531 . S
C573 C15 0.503 . S
C579 C71 0.504 . S
C593 C85 0.526 . S
C599 C28 0.526 . S
C613 C43 0.526 . S
C619 C99 0.499 . S
C633 C169 0.503 . S
C639 C112 0.504 . S
C653 C194 0.502 . S
C659 C138 0.505 . S
C673 C140 0.517 . S
C679 C196 0.497 . S
C693 C154 0.522 . S
C699 C210 0.528 . S
C713 C13 1.796 . S
C719 C113 1.797 . S
C733 C139 1.801 . S
C739 C14 1.801 . S
C753 C29 1.800 . S
C759 C141 1.801 . S
C773 C155 1.796 . S
C779 C42 1.796 . S
C793 C69 1.795 . S
C799 C168 1.795 . S
C813 C70 1.803 . S
C819 C195 1.803 . S
C833 C197 1.796 . S
C839 C84 1.796 . S
C853 C98 1.797 . S
C859 C211 1.797 . S
