# Generated by pormake.
# Topology wji, (4)-cn, num edge types: 1
# Building blocks:
#     Node 0, Type 0, BuildingBlock: TATPOV_clean_sbu_0, # of connection points: 4
#     Node 1, Type 0, BuildingBlock: TATPOV_clean_sbu_0, # of connection points: 4
#     Node 2, Type 0, BuildingBlock: TATPOV_clean_sbu_0, # of connection points: 4
#     Node 3, Type 0, BuildingBlock: TATPOV_clean_sbu_0, # of connection points: 4
#     Node 4, Type 0, BuildingBlock: TATPOV_clean_sbu_0, # of connection points: 4
#     Node 5, Type 0, BuildingBlock: TATPOV_clean_sbu_0, # of connection points: 4
#     Node 6, Type 0, BuildingBlock: TATPOV_clean_sbu_0, # of connection points: 4
#     Node 7, Type 0, BuildingBlock: TATPOV_clean_sbu_0, # of connection points: 4
#     Node 8, Type 0, BuildingBlock: TATPOV_clean_sbu_0, # of connection points: 4
#     Node 9, Type 0, BuildingBlock: TATPOV_clean_sbu_0, # of connection points: 4
#     Node 10, Type 0, BuildingBlock: TATPOV_clean_sbu_0, # of connection points: 4
#     Node 11, Type 0, BuildingBlock: TATPOV_clean_sbu_0, # of connection points: 4
#     Edge 12, Type (0, 0), BuildingBlock: ZUJKAS_clean_linker_0, # of connection points: 2
#     Edge 13, Type (0, 0), BuildingBlock: ZUJKAS_clean_linker_0, # of connection points: 2
#     Edge 14, Type (0, 0), BuildingBlock: ZUJKAS_clean_linker_0, # of connection points: 2
#     Edge 15, Type (0, 0), BuildingBlock: ZUJKAS_clean_linker_0, # of connection points: 2
#     Edge 16, Type (0, 0), BuildingBlock: ZUJKAS_clean_linker_0, # of connection points: 2
#     Edge 17, Type (0, 0), BuildingBlock: ZUJKAS_clean_linker_0, # of connection points: 2
#     Edge 18, Type (0, 0), BuildingBlock: ZUJKAS_clean_linker_0, # of connection points: 2
#     Edge 19, Type (0, 0), BuildingBlock: ZUJKAS_clean_linker_0, # of connection points: 2
#     Edge 20, Type (0, 0), BuildingBlock: ZUJKAS_clean_linker_0, # of connection points: 2
#     Edge 21, Type (0, 0), BuildingBlock: ZUJKAS_clean_linker_0, # of connection points: 2
#     Edge 22, Type (0, 0), BuildingBlock: ZUJKAS_clean_linker_0, # of connection points: 2
#     Edge 23, Type (0, 0), BuildingBlock: ZUJKAS_clean_linker_0, # of connection points: 2
#     Edge 24, Type (0, 0), BuildingBlock: ZUJKAS_clean_linker_0, # of connection points: 2
#     Edge 25, Type (0, 0), BuildingBlock: ZUJKAS_clean_linker_0, # of connection points: 2
#     Edge 26, Type (0, 0), BuildingBlock: ZUJKAS_clean_linker_0, # of connection points: 2
#     Edge 27, Type (0, 0), BuildingBlock: ZUJKAS_clean_linker_0, # of connection points: 2
#     Edge 28, Type (0, 0), BuildingBlock: ZUJKAS_clean_linker_0, # of connection points: 2
#     Edge 29, Type (0, 0), BuildingBlock: ZUJKAS_clean_linker_0, # of connection points: 2
#     Edge 30, Type (0, 0), BuildingBlock: ZUJKAS_clean_linker_0, # of connection points: 2
#     Edge 31, Type (0, 0), BuildingBlock: ZUJKAS_clean_linker_0, # of connection points: 2
#     Edge 32, Type (0, 0), BuildingBlock: ZUJKAS_clean_linker_0, # of connection points: 2
#     Edge 33, Type (0, 0), BuildingBlock: ZUJKAS_clean_linker_0, # of connection points: 2
#     Edge 34, Type (0, 0), BuildingBlock: ZUJKAS_clean_linker_0, # of connection points: 2
#     Edge 35, Type (0, 0), BuildingBlock: ZUJKAS_clean_linker_0, # of connection points: 2
# Relax obj value: 0.208
# Max RMSD: 0.098
# Mean RMSD: 0.098
data_MOF--net-wji--node1-TATPOV_clean_sbu_0--edge1-ZUJKAS_clean_linker_0
_symmetry_space_group_name_H-M    P1
_symmetry_Int_Tables_number       1
_symmetry_cell_setting            triclinic
loop_
_symmetry_equiv_pos_as_xyz
'x, y, z'
_cell_length_a     74.354023
_cell_length_b     74.302974
_cell_length_c     28.472321
_cell_angle_alpha  90.007191
_cell_angle_beta   89.963415
_cell_angle_gamma 119.96981
loop_
_atom_site_label
_atom_site_type_symbol
_atom_site_fract_x
_atom_site_fract_y
_atom_site_fract_z
_atom_type_partial_charge
Zn0 Zn 0.44126 0.36476 0.36701 0.0
Zn1 Zn 0.43222 0.32852 0.40245 0.0
O2 O 0.46414 0.34354 0.38769 0.0
O3 O 0.4709 0.37346 0.35722 0.0
O4 O 0.42704 0.30141 0.43183 0.0
O5 O 0.43244 0.37247 0.42707 0.0
O6 O 0.42485 0.3421 0.45654 0.0
C7 C 0.47707 0.36118 0.37017 0.0
C8 C 0.40936 0.33141 0.31483 0.0
O9 O 0.41122 0.32024 0.34645 0.0
O10 O 0.42103 0.35093 0.31515 0.0
C11 C 0.43906 0.30294 0.46535 0.0
O12 O 0.45367 0.32154 0.47833 0.0
C13 C 0.42586 0.35966 0.46081 0.0
Zn14 Zn 0.07918 0.43726 0.54335 0.0
Zn15 Zn 0.10314 0.42402 0.58113 0.0
O16 O 0.12187 0.45623 0.57394 0.0
O17 O 0.10251 0.46634 0.53656 0.0
O18 O 0.12247 0.41606 0.61331 0.0
O19 O 0.06125 0.42815 0.60197 0.0
O20 O 0.08047 0.41588 0.63065 0.0
C21 C 0.11964 0.47053 0.55483 0.0
C22 C 0.07936 0.4048 0.48934 0.0
O23 O 0.09145 0.40511 0.52163 0.0
O24 O 0.07258 0.41738 0.49051 0.0
C25 C 0.14137 0.42362 0.60128 0.0
O26 O 0.1483 0.43585 0.56439 0.0
C27 C 0.06502 0.41877 0.63425 0.0
Zn28 Zn 0.63613 0.07035 0.67641 0.0
Zn29 Zn 0.69155 0.10878 0.7339 0.0
O30 O 0.68045 0.12924 0.72117 0.0
O31 O 0.6585 0.09999 0.69195 0.0
O32 O 0.71614 0.12388 0.77771 0.0
O33 O 0.63575 0.05812 0.74121 0.0
O34 O 0.6678 0.08154 0.76793 0.0
C35 C 0.66263 0.11812 0.70359 0.0
C36 C 0.683 0.08695 0.6543 0.0
O37 O 0.70024 0.09882 0.67393 0.0
O38 O 0.66764 0.0878 0.67098 0.0
C39 C 0.72902 0.14284 0.76871 0.0
O40 O 0.7263 0.15119 0.73063 0.0
C41 C 0.64996 0.06484 0.77292 0.0
Zn42 Zn 0.56487 0.64197 0.86692 0.0
Zn43 Zn 0.57726 0.6792 0.90177 0.0
O44 O 0.54479 0.66444 0.8961 0.0
O45 O 0.53541 0.63472 0.86074 0.0
O46 O 0.58489 0.70715 0.93098 0.0
O47 O 0.57478 0.63436 0.92582 0.0
O48 O 0.58636 0.66602 0.95285 0.0
C49 C 0.53065 0.64735 0.87859 0.0
C50 C 0.59624 0.67354 0.81011 0.0
O51 O 0.59587 0.68563 0.8416 0.0
O52 O 0.58391 0.65417 0.81258 0.0
C53 C 0.5744 0.71615 0.92355 0.0
O54 O 0.55898 0.7079 0.8934 0.0
C55 C 0.584 0.64791 0.95744 0.0
Zn56 Zn 0.93104 0.56897 0.03746 0.0
Zn57 Zn 0.90372 0.57844 0.07105 0.0
O58 O 0.88709 0.54613 0.06108 0.0
O59 O 0.91017 0.53905 0.0315 0.0
O60 O 0.88235 0.58441 0.10041 0.0
O61 O 0.94817 0.57955 0.09644 0.0
O62 O 0.9254 0.58761 0.12376 0.0
C63 C 0.89185 0.53295 0.04523 0.0
C64 C 0.92858 0.59939 0.9811 0.0
O65 O 0.91567 0.59803 0.01253 0.0
O66 O 0.93666 0.58794 0.98316 0.0
C67 C 0.86316 0.57433 0.08992 0.0
O68 O 0.85692 0.5603 0.05646 0.0
C69 C 0.94214 0.58704 0.1287 0.0
Zn70 Zn 0.35655 0.92759 0.19489 0.0
Zn71 Zn 0.31948 0.89958 0.22534 0.0
O72 O 0.33566 0.88338 0.21472 0.0
O73 O 0.36601 0.90716 0.18739 0.0
O74 O 0.29189 0.87806 0.25379 0.0
O75 O 0.36245 0.94406 0.2546 0.0
O76 O 0.33118 0.92095 0.27885 0.0
C77 C 0.35377 0.88858 0.1994 0.0
C78 C 0.32418 0.92551 0.13715 0.0
O79 O 0.31224 0.91197 0.16708 0.0
O80 O 0.34367 0.93382 0.14081 0.0
C81 C 0.28469 0.85852 0.25185 0.0
O82 O 0.29468 0.85131 0.22729 0.0
C83 C 0.34833 0.93767 0.28548 0.0
Zn84 Zn 0.63537 0.5624 0.46224 0.0
Zn85 Zn 0.67261 0.57227 0.43208 0.0
O86 O 0.65751 0.54011 0.4443 0.0
O87 O 0.62678 0.5327 0.47072 0.0
O88 O 0.7001 0.57801 0.40402 0.0
O89 O 0.62886 0.57197 0.40183 0.0
O90 O 0.66028 0.5808 0.3775 0.0
C91 C 0.63949 0.52684 0.45943 0.0
C92 C 0.66739 0.59374 0.51924 0.0
O93 O 0.67954 0.59231 0.48962 0.0
O94 O 0.64794 0.5821 0.51563 0.0
C95 C 0.69847 0.56807 0.36632 0.0
O96 O 0.67979 0.5552 0.35018 0.0
C97 C 0.6428 0.57964 0.37056 0.0
Zn98 Zn 0.07465 0.63671 0.63985 0.0
Zn99 Zn 0.10244 0.67394 0.60681 0.0
O100 O 0.11848 0.65781 0.61702 0.0
O101 O 0.09572 0.62786 0.64824 0.0
O102 O 0.12489 0.70104 0.57883 0.0
O103 O 0.0585 0.63067 0.579 0.0
O104 O 0.08116 0.66192 0.55362 0.0
C105 C 0.11393 0.6401 0.63387 0.0
C106 C 0.07685 0.67004 0.69516 0.0
O107 O 0.09026 0.68163 0.66461 0.0
O108 O 0.06858 0.65049 0.69277 0.0
C109 C 0.12083 0.71232 0.55224 0.0
O110 O 0.10136 0.7072 0.54556 0.0
C111 C 0.06463 0.64456 0.54754 0.0
Zn112 Zn 0.43358 0.06616 0.79241 0.0
Zn113 Zn 0.42882 0.09696 0.76305 0.0
O114 O 0.46105 0.1095 0.77064 0.0
O115 O 0.46415 0.08338 0.79717 0.0
O116 O 0.4264 0.12126 0.73801 0.0
O117 O 0.42057 0.05018 0.73315 0.0
O118 O 0.41629 0.07594 0.70909 0.0
C119 C 0.47245 0.10214 0.78439 0.0
C120 C 0.40674 0.07246 0.85265 0.0
O121 O 0.40965 0.0864 0.82251 0.0
O122 O 0.41603 0.0622 0.8484 0.0
C123 C 0.43754 0.13091 0.70262 0.0
O124 O 0.45012 0.12497 0.68524 0.0
C125 C 0.41419 0.05802 0.70252 0.0
Zn126 Zn 0.37077 0.44134 0.97271 0.0
Zn127 Zn 0.33307 0.42835 0.93676 0.0
O128 O 0.34599 0.46032 0.94688 0.0
O129 O 0.37575 0.4701 0.98262 0.0
O130 O 0.30557 0.42018 0.90542 0.0
O131 O 0.37944 0.43348 0.91188 0.0
O132 O 0.34765 0.42124 0.88528 0.0
C133 C 0.36254 0.47439 0.96632 0.0
C134 C 0.33834 0.40795 0.02579 0.0
O135 O 0.32636 0.40884 0.99489 0.0
O136 O 0.35772 0.42038 0.02404 0.0
C137 C 0.29403 0.42756 0.91713 0.0
O138 O 0.29925 0.44006 0.95351 0.0
C139 C 0.36602 0.42444 0.87993 0.0
Zn140 Zn 0.93192 0.37123 0.14377 0.0
Zn141 Zn 0.9036 0.33428 0.11498 0.0
O142 O 0.88745 0.35025 0.12776 0.0
O143 O 0.91155 0.38069 0.15383 0.0
O144 O 0.88092 0.30667 0.09017 0.0
O145 O 0.94694 0.37689 0.08198 0.0
O146 O 0.92346 0.34565 0.05841 0.0
C147 C 0.89283 0.36843 0.14302 0.0
C148 C 0.9311 0.33918 0.20042 0.0
O149 O 0.91701 0.32723 0.17154 0.0
O150 O 0.9394 0.35868 0.19661 0.0
C151 C 0.88464 0.2929 0.07399 0.0
O152 O 0.90369 0.29613 0.07591 0.0
C153 C 0.93994 0.36291 0.05073 0.0
Zn154 Zn 0.55982 0.93258 0.2793 0.0
Zn155 Zn 0.56808 0.90357 0.25311 0.0
O156 O 0.53576 0.88811 0.26292 0.0
O157 O 0.52961 0.91295 0.28445 0.0
O158 O 0.57239 0.88027 0.22886 0.0
O159 O 0.57182 0.94857 0.21961 0.0
O160 O 0.57876 0.9243 0.1977 0.0
C161 C 0.52299 0.89403 0.2752 0.0
C162 C 0.58821 0.92954 0.34184 0.0
O163 O 0.58691 0.91585 0.31268 0.0
O164 O 0.57761 0.93837 0.33584 0.0
C165 C 0.58843 0.88363 0.20574 0.0
O166 O 0.60359 0.90286 0.20025 0.0
C167 C 0.57921 0.9414 0.18973 0.0
H168 H 0.30805 0.367 0.01684 0.0
H169 H 0.30328 0.33848 0.06885 0.0
H170 H 0.34809 0.38322 0.16522 0.0
H171 H 0.3526 0.41133 0.11424 0.0
H172 H 0.33354 0.33029 0.08487 0.0
H173 H 0.30853 0.34224 0.25724 0.0
H174 H 0.3052 0.35392 0.20472 0.0
H175 H 0.32912 0.36687 0.23772 0.0
C176 C 0.31612 0.37068 0.0502 0.0
C177 C 0.33069 0.39135 0.06161 0.0
C178 C 0.3135 0.35438 0.07973 0.0
C179 C 0.32514 0.35863 0.12136 0.0
C180 C 0.33847 0.37942 0.13415 0.0
H181 H 0.41249 0.34115 0.22306 0.0
H182 H 0.38453 0.3375 0.17282 0.0
C183 C 0.34118 0.39556 0.1047 0.0
C184 C 0.32659 0.34205 0.14747 0.0
H185 H 0.33586 0.33201 0.25887 0.0
C186 C 0.33331 0.33005 0.12296 0.0
C187 C 0.32566 0.34098 0.1971 0.0
C188 C 0.31647 0.35155 0.22551 0.0
C189 C 0.34182 0.31949 0.14681 0.0
C190 C 0.34414 0.32144 0.19621 0.0
C191 C 0.33468 0.3309 0.2209 0.0
C192 C 0.35986 0.3182 0.22135 0.0
C193 C 0.34943 0.30746 0.11854 0.0
C194 C 0.35549 0.30808 0.26516 0.0
C195 C 0.3717 0.31019 0.29419 0.0
C196 C 0.39244 0.3227 0.27996 0.0
C197 C 0.39662 0.33125 0.23463 0.0
C198 C 0.38053 0.32904 0.20569 0.0
H199 H 0.33878 0.29944 0.08868 0.0
H200 H 0.36489 0.31839 0.10347 0.0
H201 H 0.35072 0.29575 0.14027 0.0
H202 H 0.3397 0.29978 0.27824 0.0
H203 H 0.36811 0.30373 0.32932 0.0
H204 H 0.07041 0.40903 0.39977 0.0
H205 H 0.04506 0.38152 0.35001 0.0
H206 H 0.04207 0.33552 0.44715 0.0
H207 H 0.0673 0.36343 0.49829 0.0
H208 H 0.03717 0.34643 0.30442 0.0
H209 H 0.98424 0.32689 0.45862 0.0
H210 H 0.00997 0.34922 0.45937 0.0
H211 H 0.00646 0.32354 0.46388 0.0
C212 C 0.06491 0.39304 0.40981 0.0
C213 C 0.07056 0.38837 0.4532 0.0
C214 C 0.05038 0.37726 0.38127 0.0
C215 C 0.04112 0.35642 0.39546 0.0
C216 C 0.04859 0.35152 0.43608 0.0
H217 H 0.9374 0.30573 0.19423 0.0
H218 H 0.96078 0.29967 0.24466 0.0
C219 C 0.06323 0.36745 0.46494 0.0
C220 C 0.02176 0.34102 0.37112 0.0
H221 H 0.96923 0.31846 0.38466 0.0
C222 C 0.02224 0.33964 0.32197 0.0
C223 C 0.00226 0.33201 0.39418 0.0
C224 C 1.00052 0.33296 0.44686 0.0
C225 C 0.00406 0.33206 0.29498 0.0
C226 C 0.98479 0.32513 0.31796 0.0
C227 C 0.98404 0.32391 0.36719 0.0
C228 C 0.96693 0.32458 0.2931 0.0
C229 C 0.00596 0.33374 0.24217 0.0
C230 C 0.96144 0.33949 0.30547 0.0
C231 C 0.94806 0.34277 0.2773 0.0
C232 C 0.93976 0.33118 0.23608 0.0
C233 C 0.94356 0.31485 0.22593 0.0
C234 C 0.95711 0.31156 0.25436 0.0
H235 H 0.02234 0.341 0.23017 0.0
H236 H 0.99721 0.31801 0.22643 0.0
H237 H 0.99925 0.34312 0.22858 0.0
H238 H 0.96869 0.3497 0.33522 0.0
H239 H 0.9453 0.35538 0.28612 0.0
H240 H 0.58108 0.93624 0.43109 0.0
H241 H 0.60709 0.96009 0.48641 0.0
H242 H 0.65583 0.96587 0.39447 0.0
H243 H 0.62957 0.9418 0.33856 0.0
H244 H 0.64344 0.96611 0.53487 0.0
H245 H 0.6602 0.02372 0.39177 0.0
H246 H 0.63804 0.99784 0.38938 0.0
H247 H 0.66364 0.0019 0.3793 0.0
C248 C 0.59734 0.94189 0.42361 0.0
C249 C 0.60336 0.93727 0.3806 0.0
C250 C 0.61221 0.95557 0.4552 0.0
C251 C 0.63339 0.96509 0.44414 0.0
C252 C 0.63954 0.95886 0.4034 0.0
H253 H 0.7097 0.07255 0.63261 0.0
H254 H 0.70272 0.04333 0.58031 0.0
C255 C 0.62456 0.94494 0.37176 0.0
C256 C 0.64813 0.98369 0.47148 0.0
H257 H 0.67169 0.03666 0.46712 0.0
C258 C 0.65023 0.98156 0.51987 0.0
C259 C 0.65673 0.00386 0.45187 0.0
C260 C 0.65454 0.00715 0.40032 0.0
C261 C 0.65959 0.99902 0.54954 0.0
C262 C 0.66695 0.01901 0.53026 0.0
C263 C 0.6661 0.02126 0.48158 0.0
C264 C 0.67208 0.03716 0.5605 0.0
C265 C 0.66014 0.99597 0.60176 0.0
C266 C 0.6573 0.04347 0.56591 0.0
C267 C 0.66117 0.05994 0.5956 0.0
C268 C 0.67999 0.07059 0.62033 0.0
C269 C 0.69508 0.06465 0.61391 0.0
C270 C 0.6911 0.04795 0.58429 0.0
H271 H 0.65407 0.97941 0.61123 0.0
H272 H 0.67634 0.00524 0.6147 0.0
H273 H 0.65074 0.00165 0.62009 0.0
H274 H 0.64256 0.03536 0.54768 0.0
H275 H 0.6493 0.06422 0.59946 0.0
H276 H 0.65175 0.59036 0.60621 0.0
H277 H 0.65549 0.61863 0.65574 0.0
H278 H 0.70322 0.663 0.56374 0.0
H279 H 0.69904 0.63435 0.51284 0.0
H280 H 0.68472 0.65159 0.70452 0.0
H281 H 0.65858 0.67865 0.54992 0.0
H282 H 0.6588 0.65452 0.54855 0.0
H283 H 0.68278 0.67881 0.54573 0.0
C284 C 0.66351 0.60609 0.59722 0.0
C285 C 0.67492 0.61018 0.55541 0.0
C286 C 0.66566 0.6223 0.62562 0.0
C287 C 0.67924 0.64303 0.61289 0.0
C288 C 0.69228 0.64715 0.57369 0.0
H289 H 0.63753 0.70324 0.81721 0.0
H290 H 0.66529 0.7057 0.76577 0.0
C291 C 0.69011 0.63077 0.545 0.0
C292 C 0.67717 0.65955 0.63772 0.0
H293 H 0.65338 0.68841 0.62394 0.0
C294 C 0.67847 0.66023 0.68695 0.0
C295 C 0.66911 0.67091 0.61463 0.0
C296 C 0.6671 0.67074 0.56184 0.0
C297 C 0.66965 0.66973 0.71386 0.0
C298 C 0.65982 0.6794 0.69075 0.0
C299 C 0.66084 0.68093 0.64154 0.0
C300 C 0.64429 0.6831 0.71546 0.0
C301 C 0.669 0.66731 0.7666 0.0
C302 C 0.62339 0.67109 0.70213 0.0
C303 C 0.60768 0.66998 0.7308 0.0
C304 C 0.61248 0.68086 0.7735 0.0
C305 C 0.6334 0.69475 0.78438 0.0
C306 C 0.64926 0.6959 0.75538 0.0
H307 H 0.67549 0.65746 0.7784 0.0
H308 H 0.67821 0.68281 0.78318 0.0
H309 H 0.65278 0.66024 0.77954 0.0
H310 H 0.61907 0.66118 0.67142 0.0
H311 H 0.59169 0.65922 0.72145 0.0
H312 H 0.06633 0.70026 0.68415 0.0
H313 H 0.04226 0.70506 0.73489 0.0
H314 H 0.04318 0.66183 0.83474 0.0
H315 H 0.06708 0.65726 0.78483 0.0
H316 H 0.00425 0.67398 0.7502 0.0
H317 H 0.03935 0.70119 0.9235 0.0
H318 H 0.05497 0.70464 0.87197 0.0
H319 H 0.04437 0.68098 0.90596 0.0
C320 C 0.06216 0.69265 0.71808 0.0
C321 C 0.06857 0.67843 0.73074 0.0
C322 C 0.04828 0.69526 0.74687 0.0
C323 C 0.04098 0.68396 0.78898 0.0
C324 C 0.0489 0.67118 0.80323 0.0
H325 H 0.93629 0.59535 0.89044 0.0
H326 H 0.96066 0.62303 0.83956 0.0
C327 C 0.06252 0.66846 0.77447 0.0
C328 C 0.02246 0.68203 0.81376 0.0
H329 H 0.00212 0.67312 0.92422 0.0
C330 C 0.0039 0.67453 0.78824 0.0
C331 C 0.02182 0.68329 0.86325 0.0
C332 C 0.04131 0.69322 0.89254 0.0
C333 C 0.9846 0.66567 0.81117 0.0
C334 C 0.98384 0.66384 0.8607 0.0
C335 C 0.00251 0.67397 0.88617 0.0
C336 C 0.96485 0.64806 0.88564 0.0
C337 C 0.96516 0.6572 0.78187 0.0
C338 C 0.9584 0.65272 0.92818 0.0
C339 C 0.94426 0.63668 0.95755 0.0
C340 C 0.93669 0.61583 0.94499 0.0
C341 C 0.94174 0.6113 0.90072 0.0
C342 C 0.95566 0.62721 0.87141 0.0
H343 H 0.96775 0.66739 0.75104 0.0
H344 H 0.96117 0.64165 0.76822 0.0
H345 H 0.95183 0.65579 0.80246 0.0
H346 H 0.96539 0.66866 0.94014 0.0
H347 H 0.94087 0.64057 0.99187 0.0
H348 H 0.40902 0.06008 0.94025 0.0
H349 H 0.37979 0.03744 0.98987 0.0
H350 H 0.33837 0.04575 0.89795 0.0
H351 H 0.36794 0.06826 0.84699 0.0
H352 H 0.34767 0.03603 0.03839 0.0
H353 H 0.31826 0.98457 0.88103 0.0
H354 H 0.34338 0.00777 0.88069 0.0
H355 H 0.32022 0.00965 0.87845 0.0
C356 C 0.3938 0.05769 0.93144 0.0
C357 C 0.39069 0.06568 0.88951 0.0
C358 C 0.37704 0.04471 0.95987 0.0
C359 C 0.35674 0.03936 0.94698 0.0
C360 C 0.35383 0.04925 0.90797 0.0
H361 H 0.29421 0.93657 0.14621 0.0
H362 H 0.29157 0.96223 0.09641 0.0
C363 C 0.37076 0.06235 0.87926 0.0
C364 C 0.33925 0.02123 0.97083 0.0
H365 H 0.3083 0.96898 0.95432 0.0
C366 C 0.33845 0.02143 0.02008 0.0
C367 C 0.32708 0.00221 0.94675 0.0
C368 C 0.3272 1.00084 0.89385 0.0
C369 C 0.32818 0.00288 0.04601 0.0
C370 C 0.31787 0.98364 0.02184 0.0
C371 C 0.3163 0.98371 0.97271 0.0
C372 C 0.31389 0.96402 0.04499 0.0
C373 C 0.33052 0.004 0.09878 0.0
C374 C 0.32575 0.95511 0.03038 0.0
C375 C 0.32698 0.94034 0.05815 0.0
C376 C 0.31633 0.9341 0.10109 0.0
C377 C 0.30248 0.94106 0.11309 0.0
C378 C 0.30123 0.95596 0.08504 0.0
H379 H 0.34052 0.02016 0.11151 0.0
H380 H 0.31503 0.99771 0.11542 0.0
H381 H 0.33737 0.9945 0.11071 0.0
H382 H 0.33557 0.9609 -0.00045 0.0
H383 H 0.33774 0.93519 0.04809 0.0
H384 H 0.6047 0.49672 0.50118 0.0
H385 H 0.58792 0.45981 0.48814 0.0
H386 H 0.64036 0.4679 0.40625 0.0
H387 H 0.65702 0.50569 0.41734 0.0
H388 H 0.60862 0.44553 0.35892 0.0
H389 H 0.58731 0.40994 0.53154 0.0
H390 H 0.57955 0.42912 0.53278 0.0
H391 H 0.60669 0.43703 0.52525 0.0
C392 C 0.613 0.49074 0.48124 0.0
C393 C 0.63212 0.50424 0.45983 0.0
C394 C 0.60346 0.46939 0.47442 0.0
C395 C 0.61293 0.46074 0.44694 0.0
C396 C 0.63274 0.47409 0.42792 0.0
H397 H 0.49882 0.34485 0.41448 0.0
H398 H 0.53659 0.36239 0.42581 0.0
C399 C 0.6423 0.49569 0.4344 0.0
C400 C 0.60027 0.4386 0.43208 0.0
H401 H 0.55786 0.3946 0.47152 0.0
C402 C 0.59802 0.43409 0.38379 0.0
C403 C 0.587 0.42288 0.46391 0.0
C404 C 0.59055 0.42502 0.51624 0.0
C405 C 0.5809 0.41587 0.3666 0.0
C406 C 0.56515 0.40248 0.39824 0.0
C407 C 0.56928 0.40524 0.44667 0.0
C408 C 0.5432 0.38907 0.38276 0.0
C409 C 0.57931 0.41189 0.31442 0.0
C410 C 0.53426 0.39773 0.35363 0.0
C411 C 0.51291 0.38765 0.34658 0.0
C412 C 0.4997 0.36881 0.36945 0.0
C413 C 0.50858 0.35935 0.39632 0.0
C414 C 0.53018 0.36942 0.40295 0.0
H415 H 0.59465 0.41544 0.30018 0.0
H416 H 0.56773 0.39554 0.30575 0.0
H417 H 0.57497 0.42246 0.29659 0.0
H418 H 0.54356 0.41312 0.33887 0.0
H419 H 0.50667 0.39539 0.32548 0.0
H420 H 0.13826 0.49896 0.48552 0.0
H421 H 0.1544 0.53662 0.49466 0.0
H422 H 0.1491 0.529 0.64531 0.0
H423 H 0.13454 0.49166 0.63595 0.0
H424 H 0.13214 0.55045 0.52354 0.0
H425 H 0.19891 0.58413 0.64337 0.0
H426 H 0.18967 0.55898 0.61668 0.0
H427 H 0.1783 0.56151 0.67059 0.0
C428 C 0.14172 0.50556 0.52053 0.0
C429 C 0.1354 0.49256 0.56006 0.0
C430 C 0.1508 0.52706 0.52583 0.0
C431 C 0.15302 0.53586 0.57071 0.0
C432 C 0.1482 0.52291 0.61032 0.0
H433 H 0.11522 0.61139 0.69053 0.0
H434 H 0.13219 0.59125 0.6734 0.0
C435 C 0.13975 0.50146 0.60501 0.0
C436 C 0.1557 0.55706 0.57566 0.0
H437 H 0.17638 0.59986 0.64687 0.0
C438 C 0.14241 0.56155 0.54937 0.0
C439 C 0.16897 0.57167 0.60948 0.0
C440 C 0.1849 0.56886 0.63617 0.0
C441 C 0.14087 0.57926 0.5583 0.0
C442 C 0.15291 0.59296 0.59459 0.0
C443 C 0.16712 0.58927 0.61912 0.0
C444 C 0.14823 0.60899 0.61171 0.0
C445 C 0.1252 0.5824 0.53114 0.0
C446 C 0.15255 0.62635 0.58406 0.0
C447 C 0.14292 0.63803 0.59396 0.0
C448 C 0.12868 0.63226 0.63126 0.0
C449 C 0.12599 0.61609 0.66133 0.0
C450 C 0.13576 0.60462 0.65175 0.0
H451 H 0.11595 0.56945 0.50642 0.0
H452 H 0.11437 0.58385 0.55569 0.0
H453 H 0.13336 0.59702 0.51061 0.0
H454 H 0.16213 0.62991 0.55293 0.0
H455 H 0.14523 0.65037 0.57012 0.0
H456 H 0.49708 0.13743 0.73235 0.0
H457 H 0.53439 0.15241 0.71635 0.0
H458 H 0.53636 0.10835 0.81187 0.0
H459 H 0.49974 0.09396 0.82897 0.0
H460 H 0.57142 0.14531 0.81708 0.0
H461 H 0.55232 0.12097 0.63014 0.0
H462 H 0.5457 0.13965 0.65164 0.0
H463 H 0.53244 0.11358 0.67421 0.0
C464 C 0.50566 0.13136 0.7508 0.0
C465 C 0.4954 0.11429 0.78134 0.0
C466 C 0.52691 0.13978 0.74126 0.0
C467 C 0.53807 0.13114 0.76198 0.0
C468 C 0.52811 0.11522 0.79517 0.0
H469 H 0.62153 0.09394 0.68351 0.0
H470 H 0.5941 0.10239 0.69397 0.0
C471 C 0.50708 0.10692 0.80478 0.0
C472 C 0.55943 0.13688 0.74688 0.0
H473 H 0.58562 0.13036 0.6559 0.0
C474 C 0.57474 0.14249 0.7816 0.0
C475 C 0.56366 0.13306 0.70058 0.0
C476 C 0.54769 0.12636 0.66192 0.0
C477 C 0.59345 0.1428 0.77231 0.0
C478 C 0.59726 0.13801 0.72652 0.0
C479 C 0.58265 0.13399 0.69095 0.0
C480 C 0.61462 0.13407 0.71644 0.0
C481 C 0.60817 0.14662 0.81253 0.0
C482 C 0.63545 0.1492 0.72445 0.0
C483 C 0.65124 0.14426 0.71911 0.0
C484 C 0.64647 0.12422 0.70495 0.0
C485 C 0.62575 0.10948 0.69466 0.0
C486 C 0.61002 0.11433 0.70049 0.0
H487 H 0.60102 0.14609 0.84715 0.0
H488 H 0.6133 0.13492 0.8126 0.0
H489 H 0.62211 0.16222 0.80857 0.0
H490 H 0.63946 0.16469 0.73565 0.0
H491 H 0.6671 0.15601 0.72687 0.0
H492 H 0.51221 0.65628 0.95124 0.0
H493 H 0.47561 0.63523 0.97434 0.0
H494 H 0.46247 0.60069 0.84508 0.0
H495 H 0.49882 0.6215 0.82199 0.0
H496 H 0.42757 0.60592 0.88597 0.0
H497 H 0.46486 0.57511 0.007 0.0
H498 H 0.47342 0.60242 0.00888 0.0
H499 H 0.47878 0.59161 0.95803 0.0
C500 C 0.50131 0.64484 0.92686 0.0
C501 C 0.50838 0.64026 0.88518 0.0
C502 C 0.48043 0.63278 0.94016 0.0
C503 C 0.46644 0.61622 0.91168 0.0
C504 C 0.47301 0.61338 0.86755 0.0
H505 H 0.36563 0.49685 0.88879 0.0
H506 H 0.38688 0.53452 0.88198 0.0
C507 C 0.49382 0.62524 0.85448 0.0
C508 C 0.44674 0.59921 0.93096 0.0
H509 H 0.42929 0.55531 0.99662 0.0
C510 C 0.42776 0.59505 0.91108 0.0
C511 C 0.44706 0.58508 0.96374 0.0
C512 C 0.46706 0.58858 0.98567 0.0
C513 C 0.40918 0.57664 0.92178 0.0
C514 C 0.40979 0.56174 0.95182 0.0
C515 C 0.42863 0.56662 0.97371 0.0
C516 C 0.39216 0.54004 0.95685 0.0
C517 C 0.38924 0.5733 0.90017 0.0
C518 C 0.38744 0.53036 0.00116 0.0
C519 C 0.37591 0.50872 0.00479 0.0
C520 C 0.3683 0.49642 0.96434 0.0
C521 C 0.371 0.50608 0.92054 0.0
C522 C 0.38311 0.52771 0.91672 0.0
H523 H 0.38947 0.5883 0.89644 0.0
H524 H 0.38762 0.56672 0.8644 0.0
H525 H 0.3755 0.56254 0.92141 0.0
H526 H 0.39414 0.53943 0.03271 0.0
H527 H 0.37416 0.50155 0.03889 0.0
H528 H 0.89913 0.40414 0.18335 0.0
H529 H 0.8799 0.42187 0.17033 0.0
H530 H 0.83364 0.36926 0.0921 0.0
H531 H 0.85381 0.3516 0.10314 0.0
H532 H 0.84375 0.4008 0.04305 0.0
H533 H 0.83202 0.42477 0.21526 0.0
H534 H 0.85875 0.43175 0.21511 0.0
H535 H 0.83887 0.40472 0.20949 0.0
C536 C 0.88462 0.39601 0.16425 0.0
C537 C 0.87818 0.37652 0.14378 0.0
C538 C 0.87334 0.40612 0.15744 0.0
C539 C 0.85496 0.39687 0.13094 0.0
C540 C 0.84768 0.37673 0.11298 0.0
H541 H 0.85424 0.51178 0.09169 0.0
H542 H 0.83424 0.47416 0.10622 0.0
C543 C 0.85918 0.3666 0.11943 0.0
C544 C 0.84601 0.40997 0.11579 0.0
H545 H 0.84583 0.4534 0.1534 0.0
C546 C 0.84341 0.41182 0.06748 0.0
C547 C 0.84428 0.42385 0.14712 0.0
C548 C 0.84337 0.42089 0.19964 0.0
C549 C 0.84259 0.429 0.04958 0.0
C550 C 0.84549 0.44518 0.08048 0.0
C551 C 0.84457 0.44158 0.12911 0.0
C552 C 0.85404 0.46697 0.06376 0.0
C553 C 0.83987 0.43015 0.99739 0.0
C554 C 0.87146 0.4755 0.03409 0.0
C555 C 0.88263 0.49675 0.02536 0.0
C556 C 0.87706 0.51027 0.04694 0.0
C557 C 0.85893 0.50176 0.0745 0.0
C558 C 0.84753 0.48026 0.08293 0.0
H559 H 0.82795 0.41471 0.98388 0.0
H560 H 0.83514 0.44173 0.98838 0.0
H561 H 0.85464 0.43429 0.97918 0.0
H562 H 0.87744 0.46598 0.02008 0.0
H563 H 0.89645 0.50269 0.00378 0.0
H564 H 0.38737 0.89308 0.15233 0.0
H565 H 0.40581 0.87451 0.16495 0.0
H566 H 0.35724 0.83179 0.2578 0.0
H567 H 0.33888 0.85132 0.24676 0.0
H568 H 0.39106 0.84477 0.3003 0.0
H569 H 0.40758 0.82496 0.12806 0.0
H570 H 0.41392 0.85143 0.12233 0.0
H571 H 0.38749 0.83164 0.13555 0.0
C572 C 0.38024 0.87943 0.1746 0.0
C573 C 0.36178 0.87388 0.19906 0.0
C574 C 0.39072 0.86851 0.18122 0.0
C575 C 0.38287 0.85138 0.21173 0.0
C576 C 0.3636 0.84483 0.23378 0.0
H577 H 0.50047 0.85436 0.23836 0.0
H578 H 0.46246 0.83356 0.23086 0.0
C579 C 0.35308 0.85596 0.22737 0.0
C580 C 0.39685 0.8434 0.22639 0.0
H581 H 0.43898 0.84233 0.18269 0.0
C582 C 0.40104 0.84339 0.2745 0.0
C583 C 0.40946 0.84042 0.19357 0.0
C584 C 0.4041 0.83685 0.14208 0.0
C585 C 0.41927 0.844 0.28982 0.0
C586 C 0.43406 0.84563 0.25619 0.0
C587 C 0.42819 0.84206 0.20872 0.0
C588 C 0.45654 0.85555 0.26792 0.0
C589 C 0.4231 0.84433 0.3419 0.0
C590 C 0.46592 0.87466 0.29166 0.0
C591 C 0.48738 0.88636 0.29619 0.0
C592 C 0.50025 0.87955 0.27629 0.0
C593 C 0.49097 0.86001 0.25417 0.0
C594 C 0.46926 0.84813 0.24982 0.0
H595 H 0.40853 0.83321 0.36027 0.0
H596 H 0.43525 0.84027 0.35005 0.0
H597 H 0.42794 0.86002 0.35603 0.0
H598 H 0.45675 0.88126 0.30447 0.0
H599 H 0.49391 0.90129 0.31358 0.0
H600 H 0.40485 0.43493 0.84895 0.0
H601 H 0.41401 0.42303 0.77759 0.0
H602 H 0.3491 0.38529 0.74301 0.0
H603 H 0.33983 0.39763 0.81348 0.0
H604 H 0.40479 0.3847 0.75108 0.0
H605 H 0.37208 0.41658 0.62223 0.0
H606 H 0.3751 0.42358 0.68355 0.0
H607 H 0.35334 0.39944 0.66422 0.0
C608 C 0.39252 0.42419 0.82602 0.0
C609 C 0.37162 0.41734 0.83669 0.0
C610 C 0.39778 0.41737 0.7853 0.0
C611 C 0.38226 0.40352 0.7546 0.0
C612 C 0.36136 0.39639 0.76554 0.0
H613 H 0.40467 0.33435 0.5351 0.0
H614 H 0.39344 0.344 0.60703 0.0
C615 C 0.35609 0.40338 0.80598 0.0
C616 C 0.38801 0.3963 0.71161 0.0
H617 H 0.38341 0.39412 0.59223 0.0
C618 C 0.40016 0.38679 0.71631 0.0
C619 C 0.38212 0.39924 0.66627 0.0
C620 C 0.37012 0.41044 0.6586 0.0
C621 C 0.40663 0.38016 0.67689 0.0
C622 C 0.40028 0.38261 0.63166 0.0
C623 C 0.38809 0.39207 0.62699 0.0
C624 C 0.40696 0.37647 0.5884 0.0
C625 C 0.4207 0.37118 0.68403 0.0
C626 C 0.4178 0.39138 0.5536 0.0
C627 C 0.42393 0.38587 0.5123 0.0
C628 C 0.41941 0.36531 0.50498 0.0
C629 C 0.40854 0.35035 0.53989 0.0
C630 C 0.40222 0.35587 0.58111 0.0
H631 H 0.42848 0.37548 0.71884 0.0
H632 H 0.41135 0.35399 0.68235 0.0
H633 H 0.4328 0.37657 0.65629 0.0
H634 H 0.4216 0.40737 0.55846 0.0
H635 H 0.4323 0.39779 0.48619 0.0
H636 H 0.97041 0.39998 0.01705 0.0
H637 H 0.98998 0.40654 0.9443 0.0
H638 H 0.95534 0.34125 0.9105 0.0
H639 H 0.93516 0.33458 0.98299 0.0
H640 H 0.01509 0.3919 0.9187 0.0
H641 H 0.95117 0.36745 0.78927 0.0
H642 H 0.94802 0.37135 0.85061 0.0
H643 H 0.94727 0.34791 0.83159 0.0
C644 C 0.96681 0.387 0.99404 0.0
C645 C 0.95121 0.36675 0.00574 0.0
C646 C 0.97804 0.39078 0.95247 0.0
C647 C 0.974 0.37443 0.92177 0.0
C648 C 0.95842 0.35416 0.93322 0.0
H649 H 0.0639 0.3921 0.70195 0.0
H650 H 0.04133 0.37953 0.77095 0.0
C651 C 0.94698 0.35037 0.97473 0.0
C652 C 0.98673 0.37877 0.87876 0.0
H653 H 0.98438 0.37692 0.75903 0.0
C654 C 0.00838 0.38858 0.88376 0.0
C655 C 0.97792 0.37456 0.83327 0.0
C656 C 0.95484 0.36491 0.82564 0.0
C657 C 0.02153 0.39465 0.84454 0.0
C658 C 0.01273 0.39023 0.79903 0.0
C659 C 0.99106 0.38014 0.79399 0.0
C660 C 0.02578 0.39696 0.75621 0.0
C661 C 0.04471 0.40643 0.8523 0.0
C662 C 0.02404 0.41037 0.72422 0.0
C663 C 0.0367 0.41735 0.68445 0.0
C664 C 0.05141 0.4111 0.67602 0.0
C665 C 0.05291 0.39741 0.70776 0.0
C666 C 0.04007 0.39026 0.7473 0.0
H667 H 0.04879 0.4132 0.88815 0.0
H668 H 0.05087 0.39565 0.84817 0.0
H669 H 0.0526 0.41918 0.82631 0.0
H670 H 0.01307 0.41569 0.7304 0.0
H671 H 0.03512 0.42785 0.66065 0.0
H672 H 0.57558 0.9735 0.15465 0.0
H673 H 0.59139 0.99367 0.08386 0.0
H674 H 0.62058 0.95709 0.05608 0.0
H675 H 0.60421 0.93628 0.12654 0.0
H676 H 0.63175 0.01784 0.06151 0.0
H677 H 0.59295 0.9538 0.93172 0.0
H678 H 0.58493 0.95091 0.99235 0.0
H679 H 0.60767 0.9497 0.97612 0.0
C680 C 0.58527 0.96962 0.13342 0.0
C681 C 0.58856 0.95321 0.14609 0.0
C682 C 0.59435 0.98123 0.09299 0.0
C683 C 0.60701 0.97679 0.06443 0.0
C684 C 0.61052 0.96052 0.07709 0.0
H685 H 0.6776 0.06659 0.83933 0.0
H686 H 0.66976 0.04516 0.91013 0.0
C687 C 0.60122 0.9487 0.11742 0.0
C688 C 0.61646 0.98944 0.02168 0.0
H689 H 0.6164 0.98697 0.90201 0.0
C690 C 0.62854 0.01111 0.02659 0.0
C691 C 0.61215 0.98059 0.97622 0.0
C692 C 0.59858 0.9575 0.96853 0.0
C693 C 0.63578 0.02424 0.98729 0.0
C694 C 0.63129 0.0154 0.94182 0.0
C695 C 0.61987 0.99369 0.93694 0.0
C696 C 0.63652 0.02832 0.89882 0.0
C697 C 0.64723 0.04745 0.99487 0.0
C698 C 0.62052 0.02565 0.86848 0.0
C699 C 0.62495 0.03759 0.82786 0.0
C700 C 0.64551 0.0526 0.81672 0.0
C701 C 0.66158 0.05531 0.84718 0.0
C702 C 0.65712 0.04313 0.88771 0.0
H703 H 0.6452 0.05162 0.03119 0.0
H704 H 0.66406 0.05368 0.98891 0.0
H705 H 0.64182 0.05521 0.96986 0.0
H706 H 0.60451 0.01435 0.8764 0.0
H707 H 0.61218 0.03512 0.80532 0.0
H708 H 0.57564 0.60941 0.98555 0.0
H709 H 0.5885 0.60039 0.05528 0.0
H710 H 0.62395 0.66516 0.09333 0.0
H711 H 0.61064 0.67431 0.02419 0.0
H712 H 0.62757 0.61127 0.08159 0.0
H713 H 0.59186 0.6394 0.21262 0.0
H714 H 0.58523 0.63678 0.15112 0.0
H715 H 0.60886 0.65881 0.17159 0.0
C716 C 0.58613 0.62176 0.00879 0.0
C717 C 0.592 0.64257 -0.00046 0.0
C718 C 0.5935 0.61657 0.04857 0.0
C719 C 0.60696 0.63206 0.07981 0.0
C720 C 0.61321 0.65291 0.07025 0.0
H721 H 0.67082 0.6038 0.30304 0.0
H722 H 0.66389 0.61787 0.23189 0.0
C723 C 0.60565 0.65812 0.03064 0.0
C724 C 0.61428 0.62617 0.12232 0.0
H725 H 0.61321 0.62687 0.24207 0.0
C726 C 0.62451 0.61473 0.11673 0.0
C727 C 0.61009 0.63057 0.16806 0.0
C728 C 0.59825 0.64189 0.1764 0.0
C729 C 0.63032 0.60721 0.15564 0.0
C730 C 0.62625 0.61174 0.20136 0.0
C731 C 0.6164 0.62353 0.20694 0.0
C732 C 0.63077 0.60326 0.24396 0.0
C733 C 0.64001 0.59383 0.14737 0.0
C734 C 0.61454 0.59076 0.27476 0.0
C735 C 0.61848 0.58299 0.31562 0.0
C736 C 0.63875 0.58749 0.32647 0.0
C737 C 0.65501 0.59992 0.29544 0.0
C738 C 0.65107 0.60789 0.25468 0.0
H739 H 0.63735 0.58766 0.11094 0.0
H740 H 0.65702 0.60327 0.15297 0.0
H741 H 0.63371 0.58054 0.17222 0.0
H742 H 0.59876 0.587 0.26714 0.0
H743 H 0.6056 0.57343 0.33869 0.0
H744 H 0.06811 0.67294 0.48164 0.0
H745 H 0.04676 0.66656 0.41148 0.0
H746 H 0.01253 0.60117 0.44458 0.0
H747 H 0.03329 0.60749 0.51542 0.0
H748 H 0.04202 0.64387 0.33577 0.0
H749 H 0.96588 0.61267 0.42342 0.0
H750 H 0.99004 0.62546 0.45541 0.0
H751 H 0.97846 0.5984 0.43998 0.0
C752 C 0.05597 0.65721 0.47406 0.0
C753 C 0.05227 0.64073 0.50426 0.0
C754 C 0.04377 0.6536 0.43401 0.0
C755 C 0.02773 0.63346 0.42339 0.0
C756 C 0.02436 0.61693 0.45289 0.0
H757 H 0.97402 0.58154 0.15742 0.0
H758 H 0.99487 0.59487 0.22838 0.0
C759 C 0.03637 0.62055 0.49317 0.0
C760 C 0.01503 0.62951 0.38047 0.0
H761 H 0.96503 0.60511 0.34096 0.0
C762 C 0.02519 0.63563 0.33694 0.0
C763 C 0.99308 0.6192 0.38204 0.0
C764 C 0.98125 0.61377 0.4278 0.0
C765 C 0.01397 0.63084 0.2948 0.0
C766 C 0.99203 0.61906 0.29624 0.0
C767 C 0.98187 0.61383 0.33984 0.0
C768 C 0.97937 0.6112 0.25301 0.0
C769 C 0.02579 0.63847 0.24924 0.0
C770 C 0.96316 0.61527 0.24414 0.0
C771 C 0.9509 0.60731 0.20389 0.0
C772 C 0.95471 0.5952 0.17183 0.0
C773 C 0.97083 0.59101 0.18111 0.0
C774 C 0.98289 0.59877 0.2215 0.0
H775 H 0.04108 0.65272 0.25475 0.0
H776 H 0.02877 0.62634 0.23475 0.0
H777 H 0.01691 0.6419 0.22288 0.0
H778 H 0.96005 0.62467 0.26825 0.0
H779 H 0.93859 0.6108 0.19772 0.0
H780 H 0.31928 0.93463 0.34908 0.0
H781 H 0.32514 0.95622 0.41879 0.0
H782 H 0.39087 0.98953 0.38954 0.0
H783 H 0.3851 0.96861 0.31932 0.0
H784 H 0.34643 0.96049 0.49583 0.0
H785 H 0.38079 0.03702 0.40953 0.0
H786 H 0.36782 0.01303 0.37684 0.0
H787 H 0.39474 0.02412 0.39308 0.0
C788 C 0.33496 0.94663 0.35746 0.0
C789 C 0.35172 0.95003 0.32856 0.0
C790 C 0.33827 0.95898 0.39717 0.0
C791 C 0.35837 0.97486 0.40866 0.0
C792 C 0.37514 0.97789 0.38045 0.0
H793 H 0.41444 0.02375 0.66983 0.0
H794 H 0.39775 0.00375 0.59948 0.0
C795 C 0.37183 0.96576 0.34055 0.0
C796 C 0.36219 0.98753 0.45155 0.0
H797 H 0.38953 0.03735 0.49183 0.0
C798 C 0.35553 0.97732 0.49489 0.0
C799 C 0.37353 0.00952 0.45036 0.0
C800 C 0.3794 0.02153 0.40484 0.0
C801 C 0.36118 0.98843 0.53722 0.0
C802 C 0.37439 0.01025 0.5361 0.0
C803 C 0.37978 0.02058 0.49272 0.0
C804 C 0.38409 0.02239 0.57921 0.0
C805 C 0.35315 0.9766 0.58265 0.0
C806 C 0.38273 0.0401 0.59017 0.0
C807 C 0.39268 0.0519 0.63005 0.0
C808 C 0.40408 0.0461 0.65958 0.0
C809 C 0.40557 0.02849 0.64814 0.0
C810 C 0.39585 0.0169 0.60814 0.0
H811 H 0.33788 0.96231 0.57742 0.0
H812 H 0.36417 0.97173 0.59544 0.0
H813 H 0.35144 0.98625 0.61014 0.0
H814 H 0.37393 0.04475 0.56797 0.0
H815 H 0.39126 0.0654 0.63797 0.0
H816 H 0.46569 0.30136 0.52869 0.0
H817 H 0.46271 0.27098 0.56868 0.0
H818 H 0.40444 0.23195 0.49873 0.0
H819 H 0.40761 0.26236 0.45736 0.0
H820 H 0.43414 0.24427 0.62917 0.0
H821 H 0.43554 0.20163 0.47037 0.0
H822 H 0.44175 0.22839 0.46834 0.0
H823 H 0.41511 0.20785 0.47056 0.0
C824 C 0.45225 0.28632 0.52158 0.0
C825 C 0.43694 0.28429 0.48955 0.0
C826 C 0.45055 0.26894 0.54461 0.0
C827 C 0.4335 0.2491 0.53634 0.0
C828 C 0.41799 0.24702 0.50492 0.0
H829 H 0.40913 0.14357 0.71937 0.0
H830 H 0.40657 0.17152 0.67984 0.0
C831 C 0.41976 0.26443 0.48147 0.0
C832 C 0.43212 0.23079 0.56106 0.0
H833 H 0.43006 0.18434 0.54309 0.0
C834 C 0.43318 0.23113 0.61036 0.0
C835 C 0.43109 0.21374 0.5365 0.0
C836 C 0.431 0.21288 0.48353 0.0
C837 C 0.43352 0.21506 0.63571 0.0
C838 C 0.43224 0.19789 0.61118 0.0
C839 C 0.4309 0.19742 0.56192 0.0
C840 C 0.43349 0.18082 0.63553 0.0
C841 C 0.43605 0.21706 0.68837 0.0
C842 C 0.44914 0.17638 0.62311 0.0
C843 C 0.45046 0.16029 0.64517 0.0
C844 C 0.43618 0.14824 0.6803 0.0
C845 C 0.42049 0.15268 0.69278 0.0
C846 C 0.41907 0.16872 0.67035 0.0
H847 H 0.44215 0.23335 0.7002 0.0
H848 H 0.42071 0.20732 0.70526 0.0
H849 H 0.44671 0.21167 0.70086 0.0
H850 H 0.46043 0.18546 0.59636 0.0
H851 H 0.46275 0.15733 0.63465 0.0
H852 H 0.28153 0.40598 0.8343 0.0
H853 H 0.25444 0.40307 0.78095 0.0
H854 H 0.23897 0.43776 0.87822 0.0
H855 H 0.26627 0.44107 0.93147 0.0
H856 H 0.21188 0.38662 0.79069 0.0
H857 H 0.25157 0.47151 0.75736 0.0
H858 H 0.26419 0.45925 0.78652 0.0
H859 H 0.2465 0.46464 0.81832 0.0
C860 C 0.27229 0.41288 0.84457 0.0
C861 C 0.27624 0.42395 0.88701 0.0
C862 C 0.25679 0.41119 0.81399 0.0
C863 C 0.24496 0.42055 0.82515 0.0
C864 C 0.24824 0.43082 0.86839 0.0
H865 H 0.13326 0.40332 0.68577 0.0
H866 H 0.15807 0.40131 0.73872 0.0
C867 C 0.26378 0.43259 0.89893 0.0
C868 C 0.22962 0.42005 0.79098 0.0
H869 H 0.21774 0.45131 0.72587 0.0
C870 C 0.21315 0.40075 0.77643 0.0
C871 C 0.23151 0.43849 0.77177 0.0
C872 C 0.24949 0.45965 0.78387 0.0
C873 C 0.19833 0.39941 0.74381 0.0
C874 C 0.19985 0.41789 0.72582 0.0
C875 C 0.21649 0.43715 0.73988 0.0
C876 C 0.18444 0.41773 0.69233 0.0
C877 C 0.18142 0.37824 0.72829 0.0
C878 C 0.19099 0.42779 0.64874 0.0
C879 C 0.17688 0.42914 0.61853 0.0
C880 C 0.15589 0.4205 0.63135 0.0
C881 C 0.14927 0.41003 0.67461 0.0
C882 C 0.16343 0.40876 0.70488 0.0
H883 H 0.18576 0.36614 0.73464 0.0
H884 H 0.16709 0.37393 0.7486 0.0
H885 H 0.17788 0.3782 0.69039 0.0
H886 H 0.20714 0.43488 0.63836 0.0
H887 H 0.18253 0.43732 0.58554 0.0
H888 H 0.84533 0.28447 0.05227 0.0
H889 H 0.81932 0.25562 0.00567 0.0
H890 H 0.86034 0.23048 0.99333 0.0
H891 H 0.88671 0.25964 0.039 0.0
H892 H 0.84485 0.23188 0.90996 0.0
H893 H 0.78022 0.19569 0.03737 0.0
H894 H 0.78917 0.22284 0.02989 0.0
H895 H 0.80628 0.21472 0.05458 0.0
C896 C 0.84874 0.27267 0.04023 0.0
C897 C 0.86813 0.27438 0.04943 0.0
C898 C 0.83376 0.25607 0.01381 0.0
C899 C 0.83769 0.24065 0.99659 0.0
C900 C 0.85689 0.24212 0.00644 0.0
H901 H 0.73925 0.13106 0.85144 0.0
H902 H 0.7666 0.15325 0.90709 0.0
C903 C 0.87195 0.2588 0.03262 0.0
C904 C 0.8224 0.2239 0.96545 0.0
H905 H 0.77121 0.18678 0.95617 0.0
C906 C 0.82881 0.22185 0.92034 0.0
C907 C 0.80152 0.21053 0.9791 0.0
C908 C 0.79394 0.21089 0.02806 0.0
C909 C 0.81478 0.20745 0.88791 0.0
C910 C 0.79362 0.19507 0.90049 0.0
C911 C 0.78737 0.19645 0.94627 0.0
C912 C 0.77758 0.18134 0.86603 0.0
C913 C 0.8228 0.20567 0.84044 0.0
C914 C 0.77457 0.18974 0.82465 0.0
C915 C 0.75909 0.17713 0.79277 0.0
C916 C 0.74606 0.15582 0.80178 0.0
C917 C 0.74906 0.14739 0.84332 0.0
C918 C 0.76465 0.16005 0.8752 0.0
H919 H 0.83962 0.21078 0.84182 0.0
H920 H 0.81425 0.18947 0.82708 0.0
H921 H 0.82076 0.21585 0.81508 0.0
H922 H 0.78398 0.2062 0.81733 0.0
H923 H 0.75713 0.1842 0.76138 0.0
H924 H 0.62025 0.88544 0.15349 0.0
H925 H 0.62017 0.85759 0.1075 0.0
H926 H 0.55799 0.81499 0.15494 0.0
H927 H 0.55805 0.84263 0.20172 0.0
H928 H 0.58313 0.7974 0.15491 0.0
H929 H 0.58858 0.83607 0.98444 0.0
H930 H 0.60911 0.85155 0.02482 0.0
H931 H 0.58285 0.84463 0.03885 0.0
C932 C 0.60659 0.87011 0.15445 0.0
C933 C 0.58908 0.86634 0.18106 0.0
C934 C 0.60653 0.85423 0.12785 0.0
C935 C 0.58892 0.8343 0.12696 0.0
C936 C 0.57172 0.83028 0.15484 0.0
H937 H 0.55296 0.73716 0.92042 0.0
H938 H 0.55753 0.7659 0.97024 0.0
C939 C 0.57178 0.84613 0.18158 0.0
C940 C 0.5882 0.81772 0.09636 0.0
H941 H 0.59043 0.80522 0.98179 0.0
C942 C 0.58477 0.79911 0.11707 0.0
C943 C 0.59006 0.81986 0.0469 0.0
C944 C 0.59266 0.83901 0.02228 0.0
C945 C 0.58321 0.78263 0.08972 0.0
C946 C 0.58551 0.78494 0.04034 0.0
C947 C 0.58889 0.80353 0.01966 0.0
C948 C 0.58342 0.76789 0.00926 0.0
C949 C 0.5785 0.76266 0.11387 0.0
C950 C 0.59675 0.75969 0.01385 0.0
C951 C 0.59414 0.74316 0.98542 0.0
C952 C 0.57824 0.73461 0.95155 0.0
C953 C 0.56534 0.7433 0.94614 0.0
C954 C 0.56792 0.75976 0.97464 0.0
H955 H 0.57214 0.76157 0.14975 0.0
H956 H 0.5672 0.74896 0.09326 0.0
H957 H 0.59303 0.762 0.11712 0.0
H958 H 0.60912 0.76602 0.03957 0.0
H959 H 0.60443 0.73694 0.99037 0.0
H960 H 0.73979 0.59354 0.38794 0.0
H961 H 0.76999 0.59844 0.34234 0.0
H962 H 0.72912 0.55402 0.24013 0.0
H963 H 0.69907 0.54917 0.28483 0.0
H964 H 0.7812 0.56864 0.3157 0.0
H965 H 0.76741 0.60441 0.15928 0.0
H966 H 0.7549 0.60227 0.21503 0.0
H967 H 0.74509 0.5803 0.1761 0.0
C968 C 0.73726 0.58487 0.35568 0.0
C969 C 0.71699 0.57106 0.33993 0.0
C970 C 0.75452 0.58769 0.32969 0.0
C971 C 0.7518 0.57689 0.28736 0.0
C972 C 0.7316 0.56289 0.27207 0.0
H973 H 0.82105 0.55457 0.07797 0.0
H974 H 0.79548 0.5571 0.12727 0.0
C975 C 0.71442 0.56004 0.29793 0.0
C976 C 0.7699 0.57967 0.25947 0.0
H977 H 0.79108 0.59171 0.14946 0.0
C978 C 0.78357 0.57397 0.27957 0.0
C979 C 0.77296 0.58663 0.21232 0.0
C980 C 0.75944 0.59395 0.1895 0.0
C981 C 0.79963 0.57413 0.25311 0.0
C982 C 0.80228 0.58049 0.20551 0.0
C983 C 0.78898 0.58676 0.18586 0.0
C984 C 0.81811 0.57979 0.17487 0.0
C985 C 0.81308 0.56665 0.27572 0.0
C986 C 0.83938 0.59206 0.18463 0.0
C987 C 0.85409 0.59067 0.15645 0.0
C988 C 0.84778 0.57702 0.11784 0.0
C989 C 0.82648 0.5652 0.10744 0.0
C990 C 0.81181 0.56662 0.1356 0.0
H991 H 0.80625 0.55817 0.30902 0.0
H992 H 0.81544 0.55629 0.25155 0.0
H993 H 0.82851 0.58022 0.28382 0.0
H994 H 0.84462 0.60264 0.21422 0.0
H995 H 0.87037 0.60007 0.16537 0.0
H996 H 0.11735 0.73861 0.4903 0.0
H997 H 0.14449 0.7649 0.44017 0.0
H998 H 0.1893 0.75109 0.50109 0.0
H999 H 0.16235 0.72498 0.55188 0.0
H1000 H 0.20445 0.79353 0.48995 0.0
H1001 H 0.16809 0.75052 0.32547 0.0
H1002 H 0.15145 0.75598 0.36111 0.0
H1003 H 0.16008 0.73885 0.38282 0.0
C1004 C 0.13301 0.74126 0.49335 0.0
C1005 C 0.13762 0.72955 0.52492 0.0
C1006 C 0.14847 0.75621 0.4644 0.0
C1007 C 0.16883 0.75967 0.4662 0.0
C1008 C 0.17367 0.74858 0.49889 0.0
H1009 H 0.26687 0.81633 0.25976 0.0
H1010 H 0.23854 0.79309 0.31173 0.0
C1011 C 0.15822 0.73365 0.52792 0.0
C1012 C 0.18502 0.77453 0.43346 0.0
H1013 H 0.19768 0.78391 0.31714 0.0
C1014 C 0.20297 0.79147 0.45216 0.0
C1015 C 0.18319 0.77165 0.38417 0.0
C1016 C 0.16477 0.75318 0.36207 0.0
C1017 C 0.21908 0.80567 0.42292 0.0
C1018 C 0.21703 0.80303 0.37359 0.0
C1019 C 0.19913 0.78603 0.35492 0.0
C1020 C 0.23368 0.81723 0.34082 0.0
C1021 C 0.23838 0.82303 0.44519 0.0
C1022 C 0.24006 0.83848 0.33905 0.0
C1023 C 0.25631 0.85185 0.30936 0.0
C1024 C 0.2664 0.8442 0.28062 0.0
C1025 C 0.2595 0.82278 0.28144 0.0
C1026 C 0.24329 0.80945 0.31117 0.0
H1027 H 0.23965 0.81993 0.48287 0.0
H1028 H 0.25255 0.8254 0.42664 0.0
H1029 H 0.23786 0.83767 0.44288 0.0
H1030 H 0.23257 0.84475 0.36085 0.0
H1031 H 0.26114 0.86823 0.30945 0.0
loop_
_geom_bond_atom_site_label_1
_geom_bond_atom_site_label_2
_geom_bond_distance
_geom_bond_site_symmetry_2
_ccdc_geom_bond_type
Zn0 O3 2.031 . S
Zn0 O5 2.049 . S
Zn0 O10 2.067 . S
Zn1 O2 1.962 . S
Zn1 O4 1.986 . S
Zn1 O6 1.996 . S
Zn1 O9 1.943 . S
O2 Zn1 1.962 . S
O2 C7 1.254 . S
O3 Zn0 2.031 . S
O3 C7 1.269 . S
O4 Zn1 1.986 . S
O4 C11 1.262 . S
O5 Zn0 2.049 . S
O5 C13 1.260 . S
O6 Zn1 1.996 . S
O6 C13 1.257 . S
C7 O2 1.254 . S
C7 O3 1.269 . S
C8 O9 1.249 . S
C8 O10 1.270 . S
O9 Zn1 1.943 . S
O9 C8 1.249 . S
O10 Zn0 2.067 . S
O10 C8 1.270 . S
C11 O4 1.262 . S
C11 O12 1.232 . S
O12 C11 1.232 . S
C13 O5 1.260 . S
C13 O6 1.257 . S
Zn14 O17 2.031 . S
Zn14 O19 2.049 . S
Zn14 O24 2.067 . S
Zn15 O16 1.962 . S
Zn15 O18 1.986 . S
Zn15 O20 1.996 . S
Zn15 O23 1.943 . S
O16 Zn15 1.962 . S
O16 C21 1.254 . S
O17 Zn14 2.031 . S
O17 C21 1.269 . S
O18 Zn15 1.986 . S
O18 C25 1.262 . S
O19 Zn14 2.049 . S
O19 C27 1.260 . S
O20 Zn15 1.996 . S
O20 C27 1.257 . S
C21 O16 1.254 . S
C21 O17 1.269 . S
C22 O23 1.249 . S
C22 O24 1.270 . S
O23 Zn15 1.943 . S
O23 C22 1.249 . S
O24 Zn14 2.067 . S
O24 C22 1.270 . S
C25 O18 1.262 . S
C25 O26 1.232 . S
O26 C25 1.232 . S
C27 O19 1.260 . S
C27 O20 1.257 . S
Zn28 O31 2.031 . S
Zn28 O33 2.049 . S
Zn28 O38 2.067 . S
Zn29 O30 1.962 . S
Zn29 O32 1.986 . S
Zn29 O34 1.996 . S
Zn29 O37 1.943 . S
O30 Zn29 1.962 . S
O30 C35 1.254 . S
O31 Zn28 2.031 . S
O31 C35 1.269 . S
O32 Zn29 1.986 . S
O32 C39 1.262 . S
O33 Zn28 2.049 . S
O33 C41 1.260 . S
O34 Zn29 1.996 . S
O34 C41 1.257 . S
C35 O30 1.254 . S
C35 O31 1.269 . S
C36 O37 1.249 . S
C36 O38 1.270 . S
O37 Zn29 1.943 . S
O37 C36 1.249 . S
O38 Zn28 2.067 . S
O38 C36 1.270 . S
C39 O32 1.262 . S
C39 O40 1.232 . S
O40 C39 1.232 . S
C41 O33 1.260 . S
C41 O34 1.257 . S
Zn42 O45 2.031 . S
Zn42 O47 2.049 . S
Zn42 O52 2.067 . S
Zn43 O44 1.962 . S
Zn43 O46 1.986 . S
Zn43 O48 1.996 . S
Zn43 O51 1.943 . S
O44 Zn43 1.962 . S
O44 C49 1.254 . S
O45 Zn42 2.031 . S
O45 C49 1.269 . S
O46 Zn43 1.986 . S
O46 C53 1.262 . S
O47 Zn42 2.049 . S
O47 C55 1.260 1_556 S
O48 Zn43 1.996 . S
O48 C55 1.257 1_556 S
C49 O44 1.254 . S
C49 O45 1.269 . S
C50 O51 1.249 . S
C50 O52 1.270 . S
O51 Zn43 1.943 . S
O51 C50 1.249 . S
O52 Zn42 2.067 . S
O52 C50 1.270 . S
C53 O46 1.262 . S
C53 O54 1.232 . S
O54 C53 1.232 . S
C55 O47 1.260 1_554 S
C55 O48 1.257 1_554 S
Zn56 O59 2.031 . S
Zn56 O61 2.049 . S
Zn56 O66 2.067 . S
Zn57 O58 1.962 . S
Zn57 O60 1.986 . S
Zn57 O62 1.996 . S
Zn57 O65 1.943 . S
O58 Zn57 1.962 . S
O58 C63 1.254 . S
O59 Zn56 2.031 . S
O59 C63 1.269 . S
O60 Zn57 1.986 . S
O60 C67 1.262 . S
O61 Zn56 2.049 . S
O61 C69 1.260 . S
O62 Zn57 1.996 . S
O62 C69 1.257 . S
C63 O58 1.254 . S
C63 O59 1.269 . S
C64 O65 1.249 . S
C64 O66 1.270 . S
O65 Zn57 1.943 . S
O65 C64 1.249 . S
O66 Zn56 2.067 . S
O66 C64 1.270 . S
C67 O60 1.262 . S
C67 O68 1.232 . S
O68 C67 1.232 . S
C69 O61 1.260 . S
C69 O62 1.257 . S
Zn70 O73 2.031 . S
Zn70 O75 2.049 . S
Zn70 O80 2.067 . S
Zn71 O72 1.962 . S
Zn71 O74 1.986 . S
Zn71 O76 1.996 . S
Zn71 O79 1.943 . S
O72 Zn71 1.962 . S
O72 C77 1.254 . S
O73 Zn70 2.031 . S
O73 C77 1.269 . S
O74 Zn71 1.986 . S
O74 C81 1.262 . S
O75 Zn70 2.049 . S
O75 C83 1.260 . S
O76 Zn71 1.996 . S
O76 C83 1.257 . S
C77 O72 1.254 . S
C77 O73 1.269 . S
C78 O79 1.249 . S
C78 O80 1.270 . S
O79 Zn71 1.943 . S
O79 C78 1.249 . S
O80 Zn70 2.067 . S
O80 C78 1.270 . S
C81 O74 1.262 . S
C81 O82 1.232 . S
O82 C81 1.232 . S
C83 O75 1.260 . S
C83 O76 1.257 . S
Zn84 O87 2.031 . S
Zn84 O89 2.049 . S
Zn84 O94 2.067 . S
Zn85 O86 1.962 . S
Zn85 O88 1.986 . S
Zn85 O90 1.996 . S
Zn85 O93 1.943 . S
O86 Zn85 1.962 . S
O86 C91 1.254 . S
O87 Zn84 2.031 . S
O87 C91 1.269 . S
O88 Zn85 1.986 . S
O88 C95 1.262 . S
O89 Zn84 2.049 . S
O89 C97 1.260 . S
O90 Zn85 1.996 . S
O90 C97 1.257 . S
C91 O86 1.254 . S
C91 O87 1.269 . S
C92 O93 1.249 . S
C92 O94 1.270 . S
O93 Zn85 1.943 . S
O93 C92 1.249 . S
O94 Zn84 2.067 . S
O94 C92 1.270 . S
C95 O88 1.262 . S
C95 O96 1.232 . S
O96 C95 1.232 . S
C97 O89 1.260 . S
C97 O90 1.257 . S
Zn98 O101 2.031 . S
Zn98 O103 2.049 . S
Zn98 O108 2.067 . S
Zn99 O100 1.962 . S
Zn99 O102 1.986 . S
Zn99 O104 1.996 . S
Zn99 O107 1.943 . S
O100 Zn99 1.962 . S
O100 C105 1.254 . S
O101 Zn98 2.031 . S
O101 C105 1.269 . S
O102 Zn99 1.986 . S
O102 C109 1.262 . S
O103 Zn98 2.049 . S
O103 C111 1.260 . S
O104 Zn99 1.996 . S
O104 C111 1.257 . S
C105 O100 1.254 . S
C105 O101 1.269 . S
C106 O107 1.249 . S
C106 O108 1.270 . S
O107 Zn99 1.943 . S
O107 C106 1.249 . S
O108 Zn98 2.067 . S
O108 C106 1.270 . S
C109 O102 1.262 . S
C109 O110 1.232 . S
O110 C109 1.232 . S
C111 O103 1.260 . S
C111 O104 1.257 . S
Zn112 O115 2.031 . S
Zn112 O117 2.049 . S
Zn112 O122 2.067 . S
Zn113 O114 1.962 . S
Zn113 O116 1.986 . S
Zn113 O118 1.996 . S
Zn113 O121 1.943 . S
O114 Zn113 1.962 . S
O114 C119 1.254 . S
O115 Zn112 2.031 . S
O115 C119 1.269 . S
O116 Zn113 1.986 . S
O116 C123 1.262 . S
O117 Zn112 2.049 . S
O117 C125 1.260 . S
O118 Zn113 1.996 . S
O118 C125 1.257 . S
C119 O114 1.254 . S
C119 O115 1.269 . S
C120 O121 1.249 . S
C120 O122 1.270 . S
O121 Zn113 1.943 . S
O121 C120 1.249 . S
O122 Zn112 2.067 . S
O122 C120 1.270 . S
C123 O116 1.262 . S
C123 O124 1.232 . S
O124 C123 1.232 . S
C125 O117 1.260 . S
C125 O118 1.257 . S
Zn126 O129 2.031 . S
Zn126 O131 2.049 . S
Zn126 O136 2.067 . S
Zn127 O128 1.962 . S
Zn127 O130 1.986 . S
Zn127 O132 1.996 . S
Zn127 O135 1.943 . S
O128 Zn127 1.962 . S
O128 C133 1.254 . S
O129 Zn126 2.031 . S
O129 C133 1.269 . S
O130 Zn127 1.986 . S
O130 C137 1.262 . S
O131 Zn126 2.049 . S
O131 C139 1.260 . S
O132 Zn127 1.996 . S
O132 C139 1.257 . S
C133 O128 1.254 . S
C133 O129 1.269 . S
C134 O135 1.249 . S
C134 O136 1.270 . S
O135 Zn127 1.943 . S
O135 C134 1.249 . S
O136 Zn126 2.067 . S
O136 C134 1.270 . S
C137 O130 1.262 . S
C137 O138 1.232 . S
O138 C137 1.232 . S
C139 O131 1.260 . S
C139 O132 1.257 . S
Zn140 O143 2.031 . S
Zn140 O145 2.049 . S
Zn140 O150 2.067 . S
Zn141 O142 1.962 . S
Zn141 O144 1.986 . S
Zn141 O146 1.996 . S
Zn141 O149 1.943 . S
O142 Zn141 1.962 . S
O142 C147 1.254 . S
O143 Zn140 2.031 . S
O143 C147 1.269 . S
O144 Zn141 1.986 . S
O144 C151 1.262 . S
O145 Zn140 2.049 . S
O145 C153 1.260 1_554 S
O146 Zn141 1.996 . S
O146 C153 1.257 1_554 S
C147 O142 1.254 . S
C147 O143 1.269 . S
C148 O149 1.249 . S
C148 O150 1.270 . S
O149 Zn141 1.943 . S
O149 C148 1.249 . S
O150 Zn140 2.067 . S
O150 C148 1.270 . S
C151 O144 1.262 . S
C151 O152 1.232 . S
O152 C151 1.232 . S
C153 O145 1.260 1_556 S
C153 O146 1.257 1_556 S
Zn154 O157 2.031 . S
Zn154 O159 2.049 . S
Zn154 O164 2.067 . S
Zn155 O156 1.962 . S
Zn155 O158 1.986 . S
Zn155 O160 1.996 . S
Zn155 O163 1.943 . S
O156 Zn155 1.962 . S
O156 C161 1.254 . S
O157 Zn154 2.031 . S
O157 C161 1.269 . S
O158 Zn155 1.986 . S
O158 C165 1.262 . S
O159 Zn154 2.049 . S
O159 C167 1.260 . S
O160 Zn155 1.996 . S
O160 C167 1.257 . S
C161 O156 1.254 . S
C161 O157 1.269 . S
C162 O163 1.249 . S
C162 O164 1.270 . S
O163 Zn155 1.943 . S
O163 C162 1.249 . S
O164 Zn154 2.067 . S
O164 C162 1.270 . S
C165 O158 1.262 . S
C165 O166 1.232 . S
O166 C165 1.232 . S
C167 O159 1.260 . S
C167 O160 1.257 . S
H168 C176 0.929 . S
H169 C178 0.930 . S
H170 C180 0.930 . S
H171 C183 0.929 1_556 S
H172 C186 0.930 . S
H173 C188 0.960 . S
H174 C188 0.960 . S
H175 C188 0.960 . S
C176 H168 0.929 . S
C176 C177 1.377 . S
C176 C178 1.384 . S
C177 C176 1.377 . S
C177 C183 1.390 . S
C178 H169 0.930 . S
C178 C176 1.384 . S
C178 C179 1.372 . S
C179 C178 1.372 . S
C179 C180 1.400 . S
C179 C184 1.490 . S
C180 H170 0.930 . S
C180 C179 1.400 . S
C180 C183 1.386 . S
H181 C197 0.930 . S
H182 C198 0.931 . S
C183 H171 0.929 1_554 S
C183 C177 1.390 . S
C183 C180 1.386 . S
C184 C179 1.490 . S
C184 C186 1.395 . S
C184 C187 1.403 . S
H185 C191 0.930 . S
C186 H172 0.930 . S
C186 C184 1.395 . S
C186 C189 1.403 . S
C187 C184 1.403 . S
C187 C188 1.524 . S
C187 C191 1.400 . S
C188 H173 0.960 . S
C188 H174 0.960 . S
C188 H175 0.960 . S
C188 C187 1.524 . S
C189 C186 1.403 . S
C189 C190 1.392 . S
C189 C193 1.495 . S
C190 C189 1.392 . S
C190 C191 1.385 . S
C190 C192 1.478 . S
C191 H185 0.930 . S
C191 C187 1.400 . S
C191 C190 1.385 . S
C192 C190 1.478 . S
C192 C194 1.381 . S
C192 C198 1.383 . S
C193 C189 1.495 . S
C193 H199 0.959 . S
C193 H200 0.961 . S
C193 H201 0.960 . S
C194 C192 1.381 . S
C194 C195 1.394 . S
C194 H202 0.930 . S
C195 C194 1.394 . S
C195 C196 1.383 . S
C195 H203 0.929 . S
C196 C195 1.383 . S
C196 C197 1.377 . S
C197 H181 0.930 . S
C197 C196 1.377 . S
C197 C198 1.379 . S
C198 H182 0.931 . S
C198 C192 1.383 . S
C198 C197 1.379 . S
H199 C193 0.959 . S
H200 C193 0.961 . S
H201 C193 0.960 . S
H202 C194 0.930 . S
H203 C195 0.929 . S
H204 C212 0.929 . S
H205 C214 0.930 . S
H206 C216 0.930 . S
H207 C219 0.929 . S
H208 C222 0.930 . S
H209 C224 0.960 . S
H210 C224 0.960 . S
H211 C224 0.960 . S
C212 H204 0.929 . S
C212 C213 1.377 . S
C212 C214 1.384 . S
C213 C212 1.377 . S
C213 C219 1.390 . S
C214 H205 0.930 . S
C214 C212 1.384 . S
C214 C215 1.372 . S
C215 C214 1.372 . S
C215 C216 1.400 . S
C215 C220 1.490 . S
C216 H206 0.930 . S
C216 C215 1.400 . S
C216 C219 1.386 . S
H217 C233 0.930 . S
H218 C234 0.931 . S
C219 H207 0.929 . S
C219 C213 1.390 . S
C219 C216 1.386 . S
C220 C215 1.490 . S
C220 C222 1.395 . S
C220 C223 1.403 1_455 S
H221 C227 0.930 . S
C222 H208 0.930 . S
C222 C220 1.395 . S
C222 C225 1.403 . S
C223 C220 1.403 1_655 S
C223 C224 1.524 . S
C223 C227 1.400 . S
C224 H209 0.960 . S
C224 H210 0.960 . S
C224 H211 0.960 . S
C224 C223 1.524 . S
C225 C222 1.403 . S
C225 C226 1.392 1_455 S
C225 C229 1.495 . S
C226 C225 1.392 1_655 S
C226 C227 1.385 . S
C226 C228 1.478 . S
C227 H221 0.930 . S
C227 C223 1.400 . S
C227 C226 1.385 . S
C228 C226 1.478 . S
C228 C230 1.381 . S
C228 C234 1.383 . S
C229 C225 1.495 . S
C229 H235 0.959 . S
C229 H236 0.961 . S
C229 H237 0.960 . S
C230 C228 1.381 . S
C230 C231 1.394 . S
C230 H238 0.930 . S
C231 C230 1.394 . S
C231 C232 1.383 . S
C231 H239 0.929 . S
C232 C231 1.383 . S
C232 C233 1.377 . S
C233 H217 0.930 . S
C233 C232 1.377 . S
C233 C234 1.379 . S
C234 H218 0.931 . S
C234 C228 1.383 . S
C234 C233 1.379 . S
H235 C229 0.959 . S
H236 C229 0.961 . S
H237 C229 0.960 . S
H238 C230 0.930 . S
H239 C231 0.929 . S
H240 C248 0.929 . S
H241 C250 0.930 . S
H242 C252 0.930 . S
H243 C255 0.929 . S
H244 C258 0.930 . S
H245 C260 0.960 . S
H246 C260 0.960 1_565 S
H247 C260 0.960 . S
C248 H240 0.929 . S
C248 C249 1.377 . S
C248 C250 1.384 . S
C249 C248 1.377 . S
C249 C255 1.390 . S
C250 H241 0.930 . S
C250 C248 1.384 . S
C250 C251 1.372 . S
C251 C250 1.372 . S
C251 C252 1.400 . S
C251 C256 1.490 . S
C252 H242 0.930 . S
C252 C251 1.400 . S
C252 C255 1.386 . S
H253 C269 0.930 . S
H254 C270 0.931 . S
C255 H243 0.929 . S
C255 C249 1.390 . S
C255 C252 1.386 . S
C256 C251 1.490 . S
C256 C258 1.395 . S
C256 C259 1.344 1_565 S
H257 C263 0.930 . S
C258 H244 0.930 . S
C258 C256 1.395 . S
C258 C261 1.403 . S
C259 C256 1.344 1_545 S
C259 C260 1.554 . S
C259 C263 1.431 . S
C260 H245 0.960 . S
C260 H246 0.960 1_545 S
C260 H247 0.960 . S
C260 C259 1.554 . S
C261 C258 1.403 . S
C261 C262 1.392 1_565 S
C261 C265 1.495 . S
C262 C261 1.392 1_545 S
C262 C263 1.385 . S
C262 C264 1.478 . S
C263 H257 0.930 . S
C263 C259 1.431 . S
C263 C262 1.385 . S
C264 C262 1.478 . S
C264 C266 1.381 . S
C264 C270 1.383 . S
C265 C261 1.495 . S
C265 H271 0.959 . S
C265 H272 0.961 1_565 S
C265 H273 0.960 . S
C266 C264 1.381 . S
C266 C267 1.394 . S
C266 H274 0.930 . S
C267 C266 1.394 . S
C267 C268 1.383 . S
C267 H275 0.929 . S
C268 C267 1.383 . S
C268 C269 1.377 . S
C269 H253 0.930 . S
C269 C268 1.377 . S
C269 C270 1.379 . S
C270 H254 0.931 . S
C270 C264 1.383 . S
C270 C269 1.379 . S
H271 C265 0.959 . S
H272 C265 0.961 1_545 S
H273 C265 0.960 . S
H274 C266 0.930 . S
H275 C267 0.929 . S
H276 C284 0.929 . S
H277 C286 0.930 . S
H278 C288 0.930 . S
H279 C291 0.929 . S
H280 C294 0.930 . S
H281 C296 0.960 . S
H282 C296 0.960 . S
H283 C296 0.960 . S
C284 H276 0.929 . S
C284 C285 1.377 . S
C284 C286 1.384 . S
C285 C284 1.377 . S
C285 C291 1.390 . S
C286 H277 0.930 . S
C286 C284 1.384 . S
C286 C287 1.372 . S
C287 C286 1.372 . S
C287 C288 1.400 . S
C287 C292 1.490 . S
C288 H278 0.930 . S
C288 C287 1.400 . S
C288 C291 1.386 . S
H289 C305 0.930 . S
H290 C306 0.931 . S
C291 H279 0.929 . S
C291 C285 1.390 . S
C291 C288 1.386 . S
C292 C287 1.490 . S
C292 C294 1.395 . S
C292 C295 1.403 . S
H293 C299 0.930 . S
C294 H280 0.930 . S
C294 C292 1.395 . S
C294 C297 1.403 . S
C295 C292 1.403 . S
C295 C296 1.524 . S
C295 C299 1.400 . S
C296 H281 0.960 . S
C296 H282 0.960 . S
C296 H283 0.960 . S
C296 C295 1.524 . S
C297 C294 1.403 . S
C297 C298 1.392 . S
C297 C301 1.495 . S
C298 C297 1.392 . S
C298 C299 1.385 . S
C298 C300 1.478 . S
C299 H293 0.930 . S
C299 C295 1.400 . S
C299 C298 1.385 . S
C300 C298 1.478 . S
C300 C302 1.381 . S
C300 C306 1.383 . S
C301 C297 1.495 . S
C301 H307 0.959 . S
C301 H308 0.961 . S
C301 H309 0.960 . S
C302 C300 1.381 . S
C302 C303 1.394 . S
C302 H310 0.930 . S
C303 C302 1.394 . S
C303 C304 1.383 . S
C303 H311 0.929 . S
C304 C303 1.383 . S
C304 C305 1.377 . S
C305 H289 0.930 . S
C305 C304 1.377 . S
C305 C306 1.379 . S
C306 H290 0.931 . S
C306 C300 1.383 . S
C306 C305 1.379 . S
H307 C301 0.959 . S
H308 C301 0.961 . S
H309 C301 0.960 . S
H310 C302 0.930 . S
H311 C303 0.929 . S
H312 C320 0.929 . S
H313 C322 0.930 . S
H314 C324 0.930 . S
H315 C327 0.929 . S
H316 C330 0.930 . S
H317 C332 0.960 . S
H318 C332 0.960 . S
H319 C332 0.960 . S
C320 H312 0.929 . S
C320 C321 1.377 . S
C320 C322 1.384 . S
C321 C320 1.377 . S
C321 C327 1.390 . S
C322 H313 0.930 . S
C322 C320 1.384 . S
C322 C323 1.372 . S
C323 C322 1.372 . S
C323 C324 1.400 . S
C323 C328 1.490 . S
C324 H314 0.930 . S
C324 C323 1.400 . S
C324 C327 1.386 . S
H325 C341 0.930 . S
H326 C342 0.931 . S
C327 H315 0.929 . S
C327 C321 1.390 . S
C327 C324 1.386 . S
C328 C323 1.490 . S
C328 C330 1.395 . S
C328 C331 1.403 . S
H329 C335 0.930 . S
C330 H316 0.930 . S
C330 C328 1.395 . S
C330 C333 1.403 1_455 S
C331 C328 1.403 . S
C331 C332 1.524 . S
C331 C335 1.400 1_455 S
C332 H317 0.960 . S
C332 H318 0.960 . S
C332 H319 0.960 . S
C332 C331 1.524 . S
C333 C330 1.403 1_655 S
C333 C334 1.392 . S
C333 C337 1.495 . S
C334 C333 1.392 . S
C334 C335 1.385 . S
C334 C336 1.478 . S
C335 H329 0.930 . S
C335 C331 1.400 1_655 S
C335 C334 1.385 . S
C336 C334 1.478 . S
C336 C338 1.381 . S
C336 C342 1.383 . S
C337 C333 1.495 . S
C337 H343 0.959 . S
C337 H344 0.961 . S
C337 H345 0.960 . S
C338 C336 1.381 . S
C338 C339 1.394 . S
C338 H346 0.930 . S
C339 C338 1.394 . S
C339 C340 1.383 . S
C339 H347 0.929 1_556 S
C340 C339 1.383 . S
C340 C341 1.377 . S
C341 H325 0.930 . S
C341 C340 1.377 . S
C341 C342 1.379 . S
C342 H326 0.931 . S
C342 C336 1.383 . S
C342 C341 1.379 . S
H343 C337 0.959 . S
H344 C337 0.961 . S
H345 C337 0.960 . S
H346 C338 0.930 . S
H347 C339 0.929 1_554 S
H348 C356 0.929 . S
H349 C358 0.930 . S
H350 C360 0.930 . S
H351 C363 0.929 . S
H352 C366 0.930 . S
H353 C368 0.960 . S
H354 C368 0.960 . S
H355 C368 0.960 . S
C356 H348 0.929 . S
C356 C357 1.377 . S
C356 C358 1.384 . S
C357 C356 1.377 . S
C357 C363 1.390 . S
C358 H349 0.930 . S
C358 C356 1.384 . S
C358 C359 1.372 . S
C359 C358 1.372 . S
C359 C360 1.400 . S
C359 C364 1.490 . S
C360 H350 0.930 . S
C360 C359 1.400 . S
C360 C363 1.386 . S
H361 C377 0.930 . S
H362 C378 0.931 . S
C363 H351 0.929 . S
C363 C357 1.390 . S
C363 C360 1.386 . S
C364 C359 1.490 . S
C364 C366 1.395 1_556 S
C364 C367 1.403 1_545 S
H365 C371 0.930 1_556 S
C366 H352 0.930 . S
C366 C364 1.395 1_554 S
C366 C369 1.403 . S
C367 C364 1.403 1_565 S
C367 C368 1.524 . S
C367 C371 1.395 1_556 S
C368 H353 0.960 . S
C368 H354 0.960 . S
C368 H355 0.960 . S
C368 C367 1.524 . S
C369 C366 1.403 . S
C369 C370 1.392 1_545 S
C369 C373 1.495 . S
C370 C369 1.392 1_565 S
C370 C371 1.390 . S
C370 C372 1.478 . S
C371 H365 0.930 1_554 S
C371 C367 1.395 1_554 S
C371 C370 1.390 . S
C372 C370 1.478 . S
C372 C374 1.381 . S
C372 C378 1.383 . S
C373 C369 1.495 . S
C373 H379 0.959 . S
C373 H380 0.961 . S
C373 H381 0.960 . S
C374 C372 1.381 . S
C374 C375 1.394 . S
C374 H382 0.930 . S
C375 C374 1.394 . S
C375 C376 1.383 . S
C375 H383 0.929 . S
C376 C375 1.383 . S
C376 C377 1.377 . S
C377 H361 0.930 . S
C377 C376 1.377 . S
C377 C378 1.379 . S
C378 H362 0.931 . S
C378 C372 1.383 . S
C378 C377 1.379 . S
H379 C373 0.959 . S
H380 C373 0.961 . S
H381 C373 0.960 . S
H382 C374 0.930 . S
H383 C375 0.929 . S
H384 C392 0.929 . S
H385 C394 0.930 . S
H386 C396 0.930 . S
H387 C399 0.929 . S
H388 C402 0.930 . S
H389 C404 0.960 . S
H390 C404 0.960 . S
H391 C404 0.960 . S
C392 H384 0.929 . S
C392 C393 1.377 . S
C392 C394 1.384 . S
C393 C392 1.377 . S
C393 C399 1.390 . S
C394 H385 0.930 . S
C394 C392 1.384 . S
C394 C395 1.372 . S
C395 C394 1.372 . S
C395 C396 1.400 . S
C395 C400 1.490 . S
C396 H386 0.930 . S
C396 C395 1.400 . S
C396 C399 1.386 . S
H397 C413 0.930 . S
H398 C414 0.931 . S
C399 H387 0.929 . S
C399 C393 1.390 . S
C399 C396 1.386 . S
C400 C395 1.490 . S
C400 C402 1.395 . S
C400 C403 1.403 . S
H401 C407 0.930 . S
C402 H388 0.930 . S
C402 C400 1.395 . S
C402 C405 1.403 . S
C403 C400 1.403 . S
C403 C404 1.524 . S
C403 C407 1.400 . S
C404 H389 0.960 . S
C404 H390 0.960 . S
C404 H391 0.960 . S
C404 C403 1.524 . S
C405 C402 1.403 . S
C405 C406 1.392 . S
C405 C409 1.495 . S
C406 C405 1.392 . S
C406 C407 1.385 . S
C406 C408 1.478 . S
C407 H401 0.930 . S
C407 C403 1.400 . S
C407 C406 1.385 . S
C408 C406 1.478 . S
C408 C410 1.381 . S
C408 C414 1.383 . S
C409 C405 1.495 . S
C409 H415 0.959 . S
C409 H416 0.961 . S
C409 H417 0.960 . S
C410 C408 1.381 . S
C410 C411 1.394 . S
C410 H418 0.930 . S
C411 C410 1.394 . S
C411 C412 1.383 . S
C411 H419 0.929 . S
C412 C411 1.383 . S
C412 C413 1.377 . S
C413 H397 0.930 . S
C413 C412 1.377 . S
C413 C414 1.379 . S
C414 H398 0.931 . S
C414 C408 1.383 . S
C414 C413 1.379 . S
H415 C409 0.959 . S
H416 C409 0.961 . S
H417 C409 0.960 . S
H418 C410 0.930 . S
H419 C411 0.929 . S
H420 C428 0.929 . S
H421 C430 0.930 . S
H422 C432 0.930 . S
H423 C435 0.929 . S
H424 C438 0.930 . S
H425 C440 0.960 . S
H426 C440 0.960 . S
H427 C440 0.960 . S
C428 H420 0.929 . S
C428 C429 1.377 . S
C428 C430 1.384 . S
C429 C428 1.377 . S
C429 C435 1.390 . S
C430 H421 0.930 . S
C430 C428 1.384 . S
C430 C431 1.372 . S
C431 C430 1.372 . S
C431 C432 1.400 . S
C431 C436 1.490 . S
C432 H422 0.930 . S
C432 C431 1.400 . S
C432 C435 1.386 . S
H433 C449 0.930 . S
H434 C450 0.931 . S
C435 H423 0.929 . S
C435 C429 1.390 . S
C435 C432 1.386 . S
C436 C431 1.490 . S
C436 C438 1.395 . S
C436 C439 1.403 . S
H437 C443 0.930 . S
C438 H424 0.930 . S
C438 C436 1.395 . S
C438 C441 1.403 . S
C439 C436 1.403 . S
C439 C440 1.524 . S
C439 C443 1.400 . S
C440 H425 0.960 . S
C440 H426 0.960 . S
C440 H427 0.960 . S
C440 C439 1.524 . S
C441 C438 1.403 . S
C441 C442 1.392 . S
C441 C445 1.495 . S
C442 C441 1.392 . S
C442 C443 1.385 . S
C442 C444 1.478 . S
C443 H437 0.930 . S
C443 C439 1.400 . S
C443 C442 1.385 . S
C444 C442 1.478 . S
C444 C446 1.381 . S
C444 C450 1.383 . S
C445 C441 1.495 . S
C445 H451 0.959 . S
C445 H452 0.961 . S
C445 H453 0.960 . S
C446 C444 1.381 . S
C446 C447 1.394 . S
C446 H454 0.930 . S
C447 C446 1.394 . S
C447 C448 1.383 . S
C447 H455 0.929 . S
C448 C447 1.383 . S
C448 C449 1.377 . S
C449 H433 0.930 . S
C449 C448 1.377 . S
C449 C450 1.379 . S
C450 H434 0.931 . S
C450 C444 1.383 . S
C450 C449 1.379 . S
H451 C445 0.959 . S
H452 C445 0.961 . S
H453 C445 0.960 . S
H454 C446 0.930 . S
H455 C447 0.929 . S
H456 C464 0.929 . S
H457 C466 0.930 . S
H458 C468 0.930 . S
H459 C471 0.929 . S
H460 C474 0.930 . S
H461 C476 0.960 . S
H462 C476 0.960 . S
H463 C476 0.960 . S
C464 H456 0.929 . S
C464 C465 1.377 . S
C464 C466 1.384 . S
C465 C464 1.377 . S
C465 C471 1.390 . S
C466 H457 0.930 . S
C466 C464 1.384 . S
C466 C467 1.372 . S
C467 C466 1.372 . S
C467 C468 1.400 . S
C467 C472 1.490 . S
C468 H458 0.930 . S
C468 C467 1.400 . S
C468 C471 1.386 . S
H469 C485 0.930 . S
H470 C486 0.931 . S
C471 H459 0.929 . S
C471 C465 1.390 . S
C471 C468 1.386 . S
C472 C467 1.490 . S
C472 C474 1.395 . S
C472 C475 1.403 . S
H473 C479 0.930 . S
C474 H460 0.930 . S
C474 C472 1.395 . S
C474 C477 1.403 . S
C475 C472 1.403 . S
C475 C476 1.524 . S
C475 C479 1.400 . S
C476 H461 0.960 . S
C476 H462 0.960 . S
C476 H463 0.960 . S
C476 C475 1.524 . S
C477 C474 1.403 . S
C477 C478 1.392 . S
C477 C481 1.495 . S
C478 C477 1.392 . S
C478 C479 1.385 . S
C478 C480 1.478 . S
C479 H473 0.930 . S
C479 C475 1.400 . S
C479 C478 1.385 . S
C480 C478 1.478 . S
C480 C482 1.381 . S
C480 C486 1.383 . S
C481 C477 1.495 . S
C481 H487 0.959 . S
C481 H488 0.961 . S
C481 H489 0.960 . S
C482 C480 1.381 . S
C482 C483 1.394 . S
C482 H490 0.930 . S
C483 C482 1.394 . S
C483 C484 1.383 . S
C483 H491 0.929 . S
C484 C483 1.383 . S
C484 C485 1.377 . S
C485 H469 0.930 . S
C485 C484 1.377 . S
C485 C486 1.379 . S
C486 H470 0.931 . S
C486 C480 1.383 . S
C486 C485 1.379 . S
H487 C481 0.959 . S
H488 C481 0.961 . S
H489 C481 0.960 . S
H490 C482 0.930 . S
H491 C483 0.929 . S
H492 C500 0.929 . S
H493 C502 0.930 . S
H494 C504 0.930 . S
H495 C507 0.929 . S
H496 C510 0.930 . S
H497 C512 0.960 . S
H498 C512 0.960 . S
H499 C512 0.960 . S
C500 H492 0.929 . S
C500 C501 1.377 . S
C500 C502 1.384 . S
C501 C500 1.377 . S
C501 C507 1.390 . S
C502 H493 0.930 . S
C502 C500 1.384 . S
C502 C503 1.372 . S
C503 C502 1.372 . S
C503 C504 1.400 . S
C503 C508 1.490 . S
C504 H494 0.930 . S
C504 C503 1.400 . S
C504 C507 1.386 . S
H505 C521 0.930 . S
H506 C522 0.931 . S
C507 H495 0.929 . S
C507 C501 1.390 . S
C507 C504 1.386 . S
C508 C503 1.490 . S
C508 C510 1.395 . S
C508 C511 1.403 . S
H509 C515 0.930 . S
C510 H496 0.930 . S
C510 C508 1.395 . S
C510 C513 1.403 . S
C511 C508 1.403 . S
C511 C512 1.524 . S
C511 C515 1.400 . S
C512 H497 0.960 . S
C512 H498 0.960 . S
C512 H499 0.960 . S
C512 C511 1.524 . S
C513 C510 1.403 . S
C513 C514 1.392 . S
C513 C517 1.495 . S
C514 C513 1.392 . S
C514 C515 1.385 . S
C514 C516 1.478 . S
C515 H509 0.930 . S
C515 C511 1.400 . S
C515 C514 1.385 . S
C516 C514 1.478 . S
C516 C518 1.381 . S
C516 C522 1.383 . S
C517 C513 1.495 . S
C517 H523 0.959 . S
C517 H524 0.961 . S
C517 H525 0.960 . S
C518 C516 1.381 . S
C518 C519 1.394 . S
C518 H526 0.930 . S
C519 C518 1.394 . S
C519 C520 1.383 . S
C519 H527 0.929 . S
C520 C519 1.383 . S
C520 C521 1.377 . S
C521 H505 0.930 . S
C521 C520 1.377 . S
C521 C522 1.379 . S
C522 H506 0.931 . S
C522 C516 1.383 . S
C522 C521 1.379 . S
H523 C517 0.959 . S
H524 C517 0.961 . S
H525 C517 0.960 . S
H526 C518 0.930 . S
H527 C519 0.929 . S
H528 C536 0.929 . S
H529 C538 0.930 . S
H530 C540 0.930 . S
H531 C543 0.929 . S
H532 C546 0.930 . S
H533 C548 0.960 . S
H534 C548 0.960 . S
H535 C548 0.960 . S
C536 H528 0.929 . S
C536 C537 1.377 . S
C536 C538 1.384 . S
C537 C536 1.377 . S
C537 C543 1.390 . S
C538 H529 0.930 . S
C538 C536 1.384 . S
C538 C539 1.372 . S
C539 C538 1.372 . S
C539 C540 1.400 . S
C539 C544 1.490 . S
C540 H530 0.930 . S
C540 C539 1.400 . S
C540 C543 1.386 . S
H541 C557 0.930 . S
H542 C558 0.931 . S
C543 H531 0.929 . S
C543 C537 1.390 . S
C543 C540 1.386 . S
C544 C539 1.490 . S
C544 C546 1.395 . S
C544 C547 1.403 . S
H545 C551 0.930 . S
C546 H532 0.930 . S
C546 C544 1.395 . S
C546 C549 1.403 . S
C547 C544 1.403 . S
C547 C548 1.524 . S
C547 C551 1.400 . S
C548 H533 0.960 . S
C548 H534 0.960 . S
C548 H535 0.960 . S
C548 C547 1.524 . S
C549 C546 1.403 . S
C549 C550 1.392 . S
C549 C553 1.495 . S
C550 C549 1.392 . S
C550 C551 1.385 . S
C550 C552 1.478 . S
C551 H545 0.930 . S
C551 C547 1.400 . S
C551 C550 1.385 . S
C552 C550 1.478 . S
C552 C554 1.381 . S
C552 C558 1.383 . S
C553 C549 1.495 . S
C553 H559 0.959 . S
C553 H560 0.961 1_554 S
C553 H561 0.960 . S
C554 C552 1.381 . S
C554 C555 1.394 . S
C554 H562 0.930 . S
C555 C554 1.394 . S
C555 C556 1.383 . S
C555 H563 0.929 . S
C556 C555 1.383 . S
C556 C557 1.377 . S
C557 H541 0.930 . S
C557 C556 1.377 . S
C557 C558 1.379 . S
C558 H542 0.931 . S
C558 C552 1.383 . S
C558 C557 1.379 . S
H559 C553 0.959 . S
H560 C553 0.961 1_556 S
H561 C553 0.960 . S
H562 C554 0.930 . S
H563 C555 0.929 . S
H564 C572 0.929 . S
H565 C574 0.930 . S
H566 C576 0.930 . S
H567 C579 0.929 . S
H568 C582 0.930 . S
H569 C584 0.960 . S
H570 C584 0.960 . S
H571 C584 0.960 . S
C572 H564 0.929 . S
C572 C573 1.377 . S
C572 C574 1.384 . S
C573 C572 1.377 . S
C573 C579 1.390 . S
C574 H565 0.930 . S
C574 C572 1.384 . S
C574 C575 1.372 . S
C575 C574 1.372 . S
C575 C576 1.400 . S
C575 C580 1.490 . S
C576 H566 0.930 . S
C576 C575 1.400 . S
C576 C579 1.386 . S
H577 C593 0.930 . S
H578 C594 0.931 . S
C579 H567 0.929 . S
C579 C573 1.390 . S
C579 C576 1.386 . S
C580 C575 1.490 . S
C580 C582 1.395 . S
C580 C583 1.403 . S
H581 C587 0.930 . S
C582 H568 0.930 . S
C582 C580 1.395 . S
C582 C585 1.403 . S
C583 C580 1.403 . S
C583 C584 1.524 . S
C583 C587 1.400 . S
C584 H569 0.960 . S
C584 H570 0.960 . S
C584 H571 0.960 . S
C584 C583 1.524 . S
C585 C582 1.403 . S
C585 C586 1.392 . S
C585 C589 1.495 . S
C586 C585 1.392 . S
C586 C587 1.385 . S
C586 C588 1.478 . S
C587 H581 0.930 . S
C587 C583 1.400 . S
C587 C586 1.385 . S
C588 C586 1.478 . S
C588 C590 1.381 . S
C588 C594 1.383 . S
C589 C585 1.495 . S
C589 H595 0.959 . S
C589 H596 0.961 . S
C589 H597 0.960 . S
C590 C588 1.381 . S
C590 C591 1.394 . S
C590 H598 0.930 . S
C591 C590 1.394 . S
C591 C592 1.383 . S
C591 H599 0.929 . S
C592 C591 1.383 . S
C592 C593 1.377 . S
C593 H577 0.930 . S
C593 C592 1.377 . S
C593 C594 1.379 . S
C594 H578 0.931 . S
C594 C588 1.383 . S
C594 C593 1.379 . S
H595 C589 0.959 . S
H596 C589 0.961 . S
H597 C589 0.960 . S
H598 C590 0.930 . S
H599 C591 0.929 . S
H600 C608 0.929 . S
H601 C610 0.930 . S
H602 C612 0.930 . S
H603 C615 0.929 . S
H604 C618 0.930 . S
H605 C620 0.960 . S
H606 C620 0.960 . S
H607 C620 0.960 . S
C608 H600 0.929 . S
C608 C609 1.377 . S
C608 C610 1.384 . S
C609 C608 1.377 . S
C609 C615 1.390 . S
C610 H601 0.930 . S
C610 C608 1.384 . S
C610 C611 1.372 . S
C611 C610 1.372 . S
C611 C612 1.400 . S
C611 C616 1.490 . S
C612 H602 0.930 . S
C612 C611 1.400 . S
C612 C615 1.386 . S
H613 C629 0.930 . S
H614 C630 0.931 . S
C615 H603 0.929 . S
C615 C609 1.390 . S
C615 C612 1.386 . S
C616 C611 1.490 . S
C616 C618 1.395 . S
C616 C619 1.403 . S
H617 C623 0.930 . S
C618 H604 0.930 . S
C618 C616 1.395 . S
C618 C621 1.403 . S
C619 C616 1.403 . S
C619 C620 1.524 . S
C619 C623 1.400 . S
C620 H605 0.960 . S
C620 H606 0.960 . S
C620 H607 0.960 . S
C620 C619 1.524 . S
C621 C618 1.403 . S
C621 C622 1.392 . S
C621 C625 1.495 . S
C622 C621 1.392 . S
C622 C623 1.385 . S
C622 C624 1.478 . S
C623 H617 0.930 . S
C623 C619 1.400 . S
C623 C622 1.385 . S
C624 C622 1.478 . S
C624 C626 1.381 . S
C624 C630 1.383 . S
C625 C621 1.495 . S
C625 H631 0.959 . S
C625 H632 0.961 . S
C625 H633 0.960 . S
C626 C624 1.381 . S
C626 C627 1.394 . S
C626 H634 0.930 . S
C627 C626 1.394 . S
C627 C628 1.383 . S
C627 H635 0.929 . S
C628 C627 1.383 . S
C628 C629 1.377 . S
C629 H613 0.930 . S
C629 C628 1.377 . S
C629 C630 1.379 . S
C630 H614 0.931 . S
C630 C624 1.383 . S
C630 C629 1.379 . S
H631 C625 0.959 . S
H632 C625 0.961 . S
H633 C625 0.960 . S
H634 C626 0.930 . S
H635 C627 0.929 . S
H636 C644 0.929 . S
H637 C646 0.930 . S
H638 C648 0.930 . S
H639 C651 0.927 1_554 S
H640 C654 0.925 1_655 S
H641 C656 0.960 . S
H642 C656 0.960 . S
H643 C656 0.960 . S
C644 H636 0.929 . S
C644 C645 1.377 . S
C644 C646 1.384 . S
C645 C644 1.377 . S
C645 C651 1.390 . S
C646 H637 0.930 . S
C646 C644 1.384 . S
C646 C647 1.372 . S
C647 C646 1.372 . S
C647 C648 1.400 . S
C647 C652 1.490 . S
C648 H638 0.930 . S
C648 C647 1.400 . S
C648 C651 1.386 . S
H649 C665 0.930 . S
H650 C666 0.931 . S
C651 H639 0.927 1_556 S
C651 C645 1.390 . S
C651 C648 1.386 . S
C652 C647 1.490 . S
C652 C654 1.392 1_655 S
C652 C655 1.403 . S
H653 C659 0.930 . S
C654 H640 0.925 1_455 S
C654 C652 1.392 1_455 S
C654 C657 1.412 . S
C655 C652 1.403 . S
C655 C656 1.524 . S
C655 C659 1.400 1_655 S
C656 H641 0.960 . S
C656 H642 0.960 . S
C656 H643 0.960 . S
C656 C655 1.524 . S
C657 C654 1.412 . S
C657 C658 1.392 . S
C657 C661 1.495 . S
C658 C657 1.392 . S
C658 C659 1.385 . S
C658 C660 1.478 . S
C659 H653 0.930 . S
C659 C655 1.400 1_455 S
C659 C658 1.385 . S
C660 C658 1.478 . S
C660 C662 1.381 . S
C660 C666 1.383 . S
C661 C657 1.495 . S
C661 H667 0.959 . S
C661 H668 0.961 . S
C661 H669 0.960 . S
C662 C660 1.381 . S
C662 C663 1.394 . S
C662 H670 0.930 . S
C663 C662 1.394 . S
C663 C664 1.383 . S
C663 H671 0.929 . S
C664 C663 1.383 . S
C664 C665 1.377 . S
C665 H649 0.930 . S
C665 C664 1.377 . S
C665 C666 1.379 . S
C666 H650 0.931 . S
C666 C660 1.383 . S
C666 C665 1.379 . S
H667 C661 0.959 . S
H668 C661 0.961 . S
H669 C661 0.960 . S
H670 C662 0.930 . S
H671 C663 0.929 . S
H672 C680 0.929 . S
H673 C682 0.930 . S
H674 C684 0.930 . S
H675 C687 0.929 . S
H676 C690 0.930 . S
H677 C692 0.960 . S
H678 C692 0.960 . S
H679 C692 0.960 . S
C680 H672 0.929 . S
C680 C681 1.377 . S
C680 C682 1.384 . S
C681 C680 1.377 . S
C681 C687 1.390 . S
C682 H673 0.930 . S
C682 C680 1.384 . S
C682 C683 1.372 . S
C683 C682 1.372 . S
C683 C684 1.400 . S
C683 C688 1.490 . S
C684 H674 0.930 . S
C684 C683 1.400 . S
C684 C687 1.386 . S
H685 C701 0.930 . S
H686 C702 0.931 . S
C687 H675 0.929 . S
C687 C681 1.390 . S
C687 C684 1.386 . S
C688 C683 1.490 . S
C688 C690 1.395 1_565 S
C688 C691 1.403 1_554 S
H689 C695 0.930 . S
C690 H676 0.930 . S
C690 C688 1.395 1_545 S
C690 C693 1.403 . S
C691 C688 1.403 1_556 S
C691 C692 1.524 . S
C691 C695 1.400 . S
C692 H677 0.960 . S
C692 H678 0.960 . S
C692 H679 0.960 . S
C692 C691 1.524 . S
C693 C690 1.403 . S
C693 C694 1.392 1_554 S
C693 C697 1.495 . S
C694 C693 1.392 1_556 S
C694 C695 1.385 1_545 S
C694 C696 1.478 . S
C695 H689 0.930 . S
C695 C691 1.400 . S
C695 C694 1.385 1_565 S
C696 C694 1.478 . S
C696 C698 1.381 . S
C696 C702 1.383 . S
C697 C693 1.495 . S
C697 H703 0.959 . S
C697 H704 0.961 . S
C697 H705 0.960 . S
C698 C696 1.381 . S
C698 C699 1.394 . S
C698 H706 0.930 . S
C699 C698 1.394 . S
C699 C700 1.383 . S
C699 H707 0.929 . S
C700 C699 1.383 . S
C700 C701 1.377 . S
C701 H685 0.930 . S
C701 C700 1.377 . S
C701 C702 1.379 . S
C702 H686 0.931 . S
C702 C696 1.383 . S
C702 C701 1.379 . S
H703 C697 0.959 . S
H704 C697 0.961 . S
H705 C697 0.960 . S
H706 C698 0.930 . S
H707 C699 0.929 . S
H708 C716 0.929 . S
H709 C718 0.930 . S
H710 C720 0.930 . S
H711 C723 0.925 1_556 S
H712 C726 0.930 . S
H713 C728 0.960 . S
H714 C728 0.960 . S
H715 C728 0.960 . S
C716 H708 0.929 . S
C716 C717 1.377 . S
C716 C718 1.384 . S
C717 C716 1.377 . S
C717 C723 1.390 . S
C718 H709 0.930 . S
C718 C716 1.384 . S
C718 C719 1.372 . S
C719 C718 1.372 . S
C719 C720 1.400 . S
C719 C724 1.490 . S
C720 H710 0.930 . S
C720 C719 1.400 . S
C720 C723 1.386 . S
H721 C737 0.930 . S
H722 C738 0.931 . S
C723 H711 0.925 1_554 S
C723 C717 1.390 . S
C723 C720 1.386 . S
C724 C719 1.490 . S
C724 C726 1.395 . S
C724 C727 1.403 . S
H725 C731 0.930 . S
C726 H712 0.930 . S
C726 C724 1.395 . S
C726 C729 1.403 . S
C727 C724 1.403 . S
C727 C728 1.524 . S
C727 C731 1.400 . S
C728 H713 0.960 . S
C728 H714 0.960 . S
C728 H715 0.960 . S
C728 C727 1.524 . S
C729 C726 1.403 . S
C729 C730 1.392 . S
C729 C733 1.495 . S
C730 C729 1.392 . S
C730 C731 1.385 . S
C730 C732 1.478 . S
C731 H725 0.930 . S
C731 C727 1.400 . S
C731 C730 1.385 . S
C732 C730 1.478 . S
C732 C734 1.381 . S
C732 C738 1.383 . S
C733 C729 1.495 . S
C733 H739 0.959 . S
C733 H740 0.961 . S
C733 H741 0.960 . S
C734 C732 1.381 . S
C734 C735 1.394 . S
C734 H742 0.930 . S
C735 C734 1.394 . S
C735 C736 1.383 . S
C735 H743 0.929 . S
C736 C735 1.383 . S
C736 C737 1.377 . S
C737 H721 0.930 . S
C737 C736 1.377 . S
C737 C738 1.379 . S
C738 H722 0.931 . S
C738 C732 1.383 . S
C738 C737 1.379 . S
H739 C733 0.959 . S
H740 C733 0.961 . S
H741 C733 0.960 . S
H742 C734 0.930 . S
H743 C735 0.929 . S
H744 C752 0.929 . S
H745 C754 0.930 . S
H746 C756 0.930 . S
H747 C759 0.929 . S
H748 C762 0.930 . S
H749 C764 0.960 1_655 S
H750 C764 0.973 . S
H751 C764 0.960 . S
C752 H744 0.929 . S
C752 C753 1.377 . S
C752 C754 1.384 . S
C753 C752 1.377 . S
C753 C759 1.390 . S
C754 H745 0.930 . S
C754 C752 1.384 . S
C754 C755 1.372 . S
C755 C754 1.372 . S
C755 C756 1.400 . S
C755 C760 1.490 . S
C756 H746 0.930 . S
C756 C755 1.400 . S
C756 C759 1.386 . S
H757 C773 0.930 . S
H758 C774 0.931 . S
C759 H747 0.929 . S
C759 C753 1.390 . S
C759 C756 1.386 . S
C760 C755 1.490 . S
C760 C762 1.395 . S
C760 C763 1.403 . S
H761 C767 0.930 . S
C762 H748 0.930 . S
C762 C760 1.395 . S
C762 C765 1.403 1_455 S
C763 C760 1.403 . S
C763 C764 1.524 . S
C763 C767 1.400 1_455 S
C764 H749 0.960 1_455 S
C764 H750 0.973 . S
C764 H751 0.960 . S
C764 C763 1.524 . S
C765 C762 1.403 1_655 S
C765 C766 1.392 . S
C765 C769 1.495 . S
C766 C765 1.392 . S
C766 C767 1.385 . S
C766 C768 1.478 . S
C767 H761 0.930 . S
C767 C763 1.400 1_655 S
C767 C766 1.385 . S
C768 C766 1.478 . S
C768 C770 1.381 . S
C768 C774 1.383 . S
C769 C765 1.495 . S
C769 H775 0.956 1_655 S
C769 H776 0.961 . S
C769 H777 0.960 . S
C770 C768 1.381 . S
C770 C771 1.394 . S
C770 H778 0.930 . S
C771 C770 1.394 . S
C771 C772 1.383 . S
C771 H779 0.929 . S
C772 C771 1.383 . S
C772 C773 1.377 . S
C773 H757 0.930 . S
C773 C772 1.377 . S
C773 C774 1.379 . S
C774 H758 0.931 . S
C774 C768 1.383 . S
C774 C773 1.379 . S
H775 C769 0.956 1_455 S
H776 C769 0.961 . S
H777 C769 0.960 . S
H778 C770 0.930 . S
H779 C771 0.929 . S
H780 C788 0.929 . S
H781 C790 0.930 . S
H782 C792 0.930 . S
H783 C795 0.929 . S
H784 C798 0.930 . S
H785 C800 0.960 . S
H786 C800 0.960 . S
H787 C800 0.960 . S
C788 H780 0.929 . S
C788 C789 1.377 . S
C788 C790 1.384 . S
C789 C788 1.377 . S
C789 C795 1.390 . S
C790 H781 0.930 . S
C790 C788 1.384 . S
C790 C791 1.372 . S
C791 C790 1.372 . S
C791 C792 1.400 . S
C791 C796 1.490 . S
C792 H782 0.930 . S
C792 C791 1.400 . S
C792 C795 1.386 . S
H793 C809 0.930 . S
H794 C810 0.931 . S
C795 H783 0.929 . S
C795 C789 1.390 . S
C795 C792 1.386 . S
C796 C791 1.490 . S
C796 C798 1.395 . S
C796 C799 1.403 1_565 S
H797 C803 0.930 . S
C798 H784 0.930 . S
C798 C796 1.395 . S
C798 C801 1.403 . S
C799 C796 1.403 1_545 S
C799 C800 1.524 . S
C799 C803 1.400 . S
C800 H785 0.960 . S
C800 H786 0.960 . S
C800 H787 0.960 . S
C800 C799 1.524 . S
C801 C798 1.403 . S
C801 C802 1.392 1_565 S
C801 C805 1.495 . S
C802 C801 1.392 1_545 S
C802 C803 1.385 . S
C802 C804 1.478 . S
C803 H797 0.930 . S
C803 C799 1.400 . S
C803 C802 1.385 . S
C804 C802 1.478 . S
C804 C806 1.381 . S
C804 C810 1.383 . S
C805 C801 1.495 . S
C805 H811 0.959 . S
C805 H812 0.961 . S
C805 H813 0.960 . S
C806 C804 1.381 . S
C806 C807 1.394 . S
C806 H814 0.930 . S
C807 C806 1.394 . S
C807 C808 1.383 . S
C807 H815 0.929 . S
C808 C807 1.383 . S
C808 C809 1.377 . S
C809 H793 0.930 . S
C809 C808 1.377 . S
C809 C810 1.379 . S
C810 H794 0.931 . S
C810 C804 1.383 . S
C810 C809 1.379 . S
H811 C805 0.959 . S
H812 C805 0.961 . S
H813 C805 0.960 . S
H814 C806 0.930 . S
H815 C807 0.929 . S
H816 C824 0.929 . S
H817 C826 0.930 . S
H818 C828 0.930 . S
H819 C831 0.929 . S
H820 C834 0.930 . S
H821 C836 0.960 . S
H822 C836 0.960 . S
H823 C836 0.960 . S
C824 H816 0.929 . S
C824 C825 1.377 . S
C824 C826 1.384 . S
C825 C824 1.377 . S
C825 C831 1.390 . S
C826 H817 0.930 . S
C826 C824 1.384 . S
C826 C827 1.372 . S
C827 C826 1.372 . S
C827 C828 1.400 . S
C827 C832 1.490 . S
C828 H818 0.930 . S
C828 C827 1.400 . S
C828 C831 1.386 . S
H829 C845 0.930 . S
H830 C846 0.931 . S
C831 H819 0.929 . S
C831 C825 1.390 . S
C831 C828 1.386 . S
C832 C827 1.490 . S
C832 C834 1.395 . S
C832 C835 1.403 . S
H833 C839 0.930 . S
C834 H820 0.930 . S
C834 C832 1.395 . S
C834 C837 1.403 . S
C835 C832 1.403 . S
C835 C836 1.524 . S
C835 C839 1.400 . S
C836 H821 0.960 . S
C836 H822 0.960 . S
C836 H823 0.960 . S
C836 C835 1.524 . S
C837 C834 1.403 . S
C837 C838 1.392 . S
C837 C841 1.495 . S
C838 C837 1.392 . S
C838 C839 1.385 . S
C838 C840 1.478 . S
C839 H833 0.930 . S
C839 C835 1.400 . S
C839 C838 1.385 . S
C840 C838 1.478 . S
C840 C842 1.381 . S
C840 C846 1.383 . S
C841 C837 1.495 . S
C841 H847 0.959 . S
C841 H848 0.961 . S
C841 H849 0.960 . S
C842 C840 1.381 . S
C842 C843 1.394 . S
C842 H850 0.930 . S
C843 C842 1.394 . S
C843 C844 1.383 . S
C843 H851 0.929 . S
C844 C843 1.383 . S
C844 C845 1.377 . S
C845 H829 0.930 . S
C845 C844 1.377 . S
C845 C846 1.379 . S
C846 H830 0.931 . S
C846 C840 1.383 . S
C846 C845 1.379 . S
H847 C841 0.959 . S
H848 C841 0.961 . S
H849 C841 0.960 . S
H850 C842 0.930 . S
H851 C843 0.929 . S
H852 C860 0.929 . S
H853 C862 0.930 . S
H854 C864 0.930 . S
H855 C867 0.929 . S
H856 C870 0.930 . S
H857 C872 0.960 . S
H858 C872 0.960 . S
H859 C872 0.960 . S
C860 H852 0.929 . S
C860 C861 1.377 . S
C860 C862 1.384 . S
C861 C860 1.377 . S
C861 C867 1.390 . S
C862 H853 0.930 . S
C862 C860 1.384 . S
C862 C863 1.372 . S
C863 C862 1.372 . S
C863 C864 1.400 . S
C863 C868 1.490 . S
C864 H854 0.930 . S
C864 C863 1.400 . S
C864 C867 1.386 . S
H865 C881 0.930 . S
H866 C882 0.931 . S
C867 H855 0.929 . S
C867 C861 1.390 . S
C867 C864 1.386 . S
C868 C863 1.490 . S
C868 C870 1.395 . S
C868 C871 1.403 . S
H869 C875 0.930 . S
C870 H856 0.930 . S
C870 C868 1.395 . S
C870 C873 1.403 . S
C871 C868 1.403 . S
C871 C872 1.524 . S
C871 C875 1.400 . S
C872 H857 0.960 . S
C872 H858 0.960 . S
C872 H859 0.960 . S
C872 C871 1.524 . S
C873 C870 1.403 . S
C873 C874 1.392 . S
C873 C877 1.495 . S
C874 C873 1.392 . S
C874 C875 1.385 . S
C874 C876 1.478 . S
C875 H869 0.930 . S
C875 C871 1.400 . S
C875 C874 1.385 . S
C876 C874 1.478 . S
C876 C878 1.381 . S
C876 C882 1.383 . S
C877 C873 1.495 . S
C877 H883 0.959 . S
C877 H884 0.961 . S
C877 H885 0.960 . S
C878 C876 1.381 . S
C878 C879 1.394 . S
C878 H886 0.930 . S
C879 C878 1.394 . S
C879 C880 1.383 . S
C879 H887 0.929 . S
C880 C879 1.383 . S
C880 C881 1.377 . S
C881 H865 0.930 . S
C881 C880 1.377 . S
C881 C882 1.379 . S
C882 H866 0.931 . S
C882 C876 1.383 . S
C882 C881 1.379 . S
H883 C877 0.959 . S
H884 C877 0.961 . S
H885 C877 0.960 . S
H886 C878 0.930 . S
H887 C879 0.929 . S
H888 C896 0.929 . S
H889 C898 0.930 . S
H890 C900 0.930 . S
H891 C903 0.929 . S
H892 C906 0.930 . S
H893 C908 0.960 . S
H894 C908 0.960 . S
H895 C908 0.960 1_554 S
C896 H888 0.929 . S
C896 C897 1.377 1_556 S
C896 C898 1.384 . S
C897 C896 1.377 1_554 S
C897 C903 1.390 . S
C898 H889 0.930 . S
C898 C896 1.384 . S
C898 C899 1.372 . S
C899 C898 1.372 . S
C899 C900 1.400 1_556 S
C899 C904 1.490 . S
C900 H890 0.930 . S
C900 C899 1.400 1_554 S
C900 C903 1.386 . S
H901 C917 0.930 . S
H902 C918 0.931 . S
C903 H891 0.929 . S
C903 C897 1.390 . S
C903 C900 1.386 . S
C904 C899 1.490 . S
C904 C906 1.395 . S
C904 C907 1.403 . S
H905 C911 0.930 . S
C906 H892 0.930 . S
C906 C904 1.395 . S
C906 C909 1.403 . S
C907 C904 1.403 . S
C907 C908 1.524 . S
C907 C911 1.400 . S
C908 H893 0.960 . S
C908 H894 0.960 . S
C908 H895 0.960 1_556 S
C908 C907 1.524 . S
C909 C906 1.403 . S
C909 C910 1.392 . S
C909 C913 1.495 . S
C910 C909 1.392 . S
C910 C911 1.385 . S
C910 C912 1.478 . S
C911 H905 0.930 . S
C911 C907 1.400 . S
C911 C910 1.385 . S
C912 C910 1.478 . S
C912 C914 1.381 . S
C912 C918 1.383 . S
C913 C909 1.495 . S
C913 H919 0.959 . S
C913 H920 0.961 . S
C913 H921 0.960 . S
C914 C912 1.381 . S
C914 C915 1.394 . S
C914 H922 0.930 . S
C915 C914 1.394 . S
C915 C916 1.383 . S
C915 H923 0.929 . S
C916 C915 1.383 . S
C916 C917 1.377 . S
C917 H901 0.930 . S
C917 C916 1.377 . S
C917 C918 1.379 . S
C918 H902 0.931 . S
C918 C912 1.383 . S
C918 C917 1.379 . S
H919 C913 0.959 . S
H920 C913 0.961 . S
H921 C913 0.960 . S
H922 C914 0.930 . S
H923 C915 0.929 . S
H924 C932 0.929 . S
H925 C934 0.930 . S
H926 C936 0.930 . S
H927 C939 0.929 . S
H928 C942 0.930 . S
H929 C944 0.960 . S
H930 C944 0.960 . S
H931 C944 0.960 . S
C932 H924 0.929 . S
C932 C933 1.377 . S
C932 C934 1.384 . S
C933 C932 1.377 . S
C933 C939 1.390 . S
C934 H925 0.930 . S
C934 C932 1.384 . S
C934 C935 1.372 . S
C935 C934 1.372 . S
C935 C936 1.400 . S
C935 C940 1.490 . S
C936 H926 0.930 . S
C936 C935 1.400 . S
C936 C939 1.386 . S
H937 C953 0.930 . S
H938 C954 0.931 . S
C939 H927 0.929 . S
C939 C933 1.390 . S
C939 C936 1.386 . S
C940 C935 1.490 . S
C940 C942 1.395 . S
C940 C943 1.403 . S
H941 C947 0.930 . S
C942 H928 0.930 . S
C942 C940 1.395 . S
C942 C945 1.403 . S
C943 C940 1.403 . S
C943 C944 1.524 . S
C943 C947 1.400 . S
C944 H929 0.960 . S
C944 H930 0.960 . S
C944 H931 0.960 . S
C944 C943 1.524 . S
C945 C942 1.403 . S
C945 C946 1.392 . S
C945 C949 1.495 . S
C946 C945 1.392 . S
C946 C947 1.385 . S
C946 C948 1.478 . S
C947 H941 0.930 . S
C947 C943 1.400 . S
C947 C946 1.385 . S
C948 C946 1.478 . S
C948 C950 1.381 . S
C948 C954 1.383 1_554 S
C949 C945 1.495 . S
C949 H955 0.959 . S
C949 H956 0.961 . S
C949 H957 0.960 . S
C950 C948 1.381 . S
C950 C951 1.394 . S
C950 H958 0.930 . S
C951 C950 1.394 . S
C951 C952 1.383 1_554 S
C951 H959 0.929 . S
C952 C951 1.383 1_556 S
C952 C953 1.377 . S
C953 H937 0.930 . S
C953 C952 1.377 . S
C953 C954 1.379 . S
C954 H938 0.931 . S
C954 C948 1.383 1_556 S
C954 C953 1.379 . S
H955 C949 0.959 . S
H956 C949 0.961 . S
H957 C949 0.960 . S
H958 C950 0.930 . S
H959 C951 0.929 . S
H960 C968 0.929 . S
H961 C970 0.930 . S
H962 C972 0.930 . S
H963 C975 0.929 . S
H964 C978 0.930 . S
H965 C980 0.960 . S
H966 C980 0.960 . S
H967 C980 0.960 . S
C968 H960 0.929 . S
C968 C969 1.377 . S
C968 C970 1.384 . S
C969 C968 1.377 . S
C969 C975 1.390 . S
C970 H961 0.930 . S
C970 C968 1.384 . S
C970 C971 1.372 . S
C971 C970 1.372 . S
C971 C972 1.400 . S
C971 C976 1.490 . S
C972 H962 0.930 . S
C972 C971 1.400 . S
C972 C975 1.386 . S
H973 C989 0.930 . S
H974 C990 0.931 . S
C975 H963 0.929 . S
C975 C969 1.390 . S
C975 C972 1.386 . S
C976 C971 1.490 . S
C976 C978 1.395 . S
C976 C979 1.403 . S
H977 C983 0.930 . S
C978 H964 0.930 . S
C978 C976 1.395 . S
C978 C981 1.403 . S
C979 C976 1.403 . S
C979 C980 1.524 . S
C979 C983 1.400 . S
C980 H965 0.960 . S
C980 H966 0.960 . S
C980 H967 0.960 . S
C980 C979 1.524 . S
C981 C978 1.403 . S
C981 C982 1.392 . S
C981 C985 1.495 . S
C982 C981 1.392 . S
C982 C983 1.385 . S
C982 C984 1.478 . S
C983 H977 0.930 . S
C983 C979 1.400 . S
C983 C982 1.385 . S
C984 C982 1.478 . S
C984 C986 1.381 . S
C984 C990 1.383 . S
C985 C981 1.495 . S
C985 H991 0.959 . S
C985 H992 0.961 . S
C985 H993 0.960 . S
C986 C984 1.381 . S
C986 C987 1.394 . S
C986 H994 0.930 . S
C987 C986 1.394 . S
C987 C988 1.383 . S
C987 H995 0.929 . S
C988 C987 1.383 . S
C988 C989 1.377 . S
C989 H973 0.930 . S
C989 C988 1.377 . S
C989 C990 1.379 . S
C990 H974 0.931 . S
C990 C984 1.383 . S
C990 C989 1.379 . S
H991 C985 0.959 . S
H992 C985 0.961 . S
H993 C985 0.960 . S
H994 C986 0.930 . S
H995 C987 0.929 . S
H996 C1004 0.929 . S
H997 C1006 0.930 . S
H998 C1008 0.930 . S
H999 C1011 0.929 . S
H1000 C1014 0.930 . S
H1001 C1016 0.960 . S
H1002 C1016 0.960 . S
H1003 C1016 0.960 . S
C1004 H996 0.929 . S
C1004 C1005 1.377 . S
C1004 C1006 1.384 . S
C1005 C1004 1.377 . S
C1005 C1011 1.390 . S
C1006 H997 0.930 . S
C1006 C1004 1.384 . S
C1006 C1007 1.372 . S
C1007 C1006 1.372 . S
C1007 C1008 1.400 . S
C1007 C1012 1.490 . S
C1008 H998 0.930 . S
C1008 C1007 1.400 . S
C1008 C1011 1.386 . S
H1009 C1025 0.930 . S
H1010 C1026 0.931 . S
C1011 H999 0.929 . S
C1011 C1005 1.390 . S
C1011 C1008 1.386 . S
C1012 C1007 1.490 . S
C1012 C1014 1.395 . S
C1012 C1015 1.403 . S
H1013 C1019 0.930 . S
C1014 H1000 0.930 . S
C1014 C1012 1.395 . S
C1014 C1017 1.403 . S
C1015 C1012 1.403 . S
C1015 C1016 1.524 . S
C1015 C1019 1.400 . S
C1016 H1001 0.960 . S
C1016 H1002 0.960 . S
C1016 H1003 0.960 . S
C1016 C1015 1.524 . S
C1017 C1014 1.403 . S
C1017 C1018 1.392 . S
C1017 C1021 1.495 . S
C1018 C1017 1.392 . S
C1018 C1019 1.385 . S
C1018 C1020 1.478 . S
C1019 H1013 0.930 . S
C1019 C1015 1.400 . S
C1019 C1018 1.385 . S
C1020 C1018 1.478 . S
C1020 C1022 1.381 . S
C1020 C1026 1.383 . S
C1021 C1017 1.495 . S
C1021 H1027 0.959 . S
C1021 H1028 0.961 . S
C1021 H1029 0.960 . S
C1022 C1020 1.381 . S
C1022 C1023 1.394 . S
C1022 H1030 0.930 . S
C1023 C1022 1.394 . S
C1023 C1024 1.383 . S
C1023 H1031 0.929 . S
C1024 C1023 1.383 . S
C1024 C1025 1.377 . S
C1025 H1009 0.930 . S
C1025 C1024 1.377 . S
C1025 C1026 1.379 . S
C1026 H1010 0.931 . S
C1026 C1020 1.383 . S
C1026 C1025 1.379 . S
H1027 C1021 0.959 . S
H1028 C1021 0.961 . S
H1029 C1021 0.960 . S
H1030 C1022 0.930 . S
H1031 C1023 0.929 . S
C177 C134 1.558 1_554 S
C196 C8 1.565 . S
C213 C22 1.550 . S
C232 C148 1.526 . S
C249 C162 1.554 . S
C268 C36 1.543 . S
C285 C92 1.548 . S
C304 C50 1.519 . S
C321 C106 1.558 . S
C340 C64 1.563 1_556 S
C357 C120 1.547 . S
C376 C78 1.518 . S
C393 C91 1.477 . S
C412 C7 1.476 . S
C429 C21 1.482 . S
C448 C105 1.451 . S
C465 C119 1.481 . S
C484 C35 1.455 . S
C501 C49 1.473 . S
C520 C133 1.493 . S
C537 C147 1.478 . S
C556 C63 1.470 . S
C573 C77 1.473 . S
C592 C161 1.496 . S
C609 C139 0.588 . S
C628 C13 0.584 . S
C645 C153 0.594 . S
C664 C27 0.557 . S
C681 C167 0.574 . S
C700 C41 0.649 . S
C717 C55 0.594 . S
C736 C97 0.557 . S
C753 C111 0.572 . S
C772 C69 0.657 . S
C789 C83 0.590 . S
C808 C125 0.578 . S
C825 C11 1.306 . S
C844 C123 1.305 . S
C861 C137 1.298 . S
C880 C25 1.320 . S
C897 C151 1.299 . S
C916 C39 1.321 . S
C933 C165 1.306 . S
C952 C53 1.277 . S
C969 C95 1.303 . S
C988 C67 1.277 . S
C1005 C109 1.304 . S
C1024 C81 1.277 . S
