# Generated by pormake.
# Topology umo, (4)-cn, num edge types: 1
# Building blocks:
#     Node 0, Type 0, BuildingBlock: QUQFOY_clean_sbu_3, # of connection points: 4
#     Node 1, Type 0, BuildingBlock: QUQFOY_clean_sbu_3, # of connection points: 4
#     Node 2, Type 0, BuildingBlock: QUQFOY_clean_sbu_3, # of connection points: 4
#     Node 3, Type 0, BuildingBlock: QUQFOY_clean_sbu_3, # of connection points: 4
#     Node 4, Type 0, BuildingBlock: QUQFOY_clean_sbu_3, # of connection points: 4
#     Node 5, Type 0, BuildingBlock: QUQFOY_clean_sbu_3, # of connection points: 4
#     Node 6, Type 0, BuildingBlock: QUQFOY_clean_sbu_3, # of connection points: 4
#     Node 7, Type 0, BuildingBlock: QUQFOY_clean_sbu_3, # of connection points: 4
#     Node 8, Type 0, BuildingBlock: QUQFOY_clean_sbu_3, # of connection points: 4
#     Node 9, Type 0, BuildingBlock: QUQFOY_clean_sbu_3, # of connection points: 4
#     Node 10, Type 0, BuildingBlock: QUQFOY_clean_sbu_3, # of connection points: 4
#     Node 11, Type 0, BuildingBlock: QUQFOY_clean_sbu_3, # of connection points: 4
#     Edge 12, Type (0, 0), BuildingBlock: EZIPEK_clean_linker_0, # of connection points: 2
#     Edge 13, Type (0, 0), BuildingBlock: EZIPEK_clean_linker_0, # of connection points: 2
#     Edge 14, Type (0, 0), BuildingBlock: EZIPEK_clean_linker_0, # of connection points: 2
#     Edge 15, Type (0, 0), BuildingBlock: EZIPEK_clean_linker_0, # of connection points: 2
#     Edge 16, Type (0, 0), BuildingBlock: EZIPEK_clean_linker_0, # of connection points: 2
#     Edge 17, Type (0, 0), BuildingBlock: EZIPEK_clean_linker_0, # of connection points: 2
#     Edge 18, Type (0, 0), BuildingBlock: EZIPEK_clean_linker_0, # of connection points: 2
#     Edge 19, Type (0, 0), BuildingBlock: EZIPEK_clean_linker_0, # of connection points: 2
#     Edge 20, Type (0, 0), BuildingBlock: EZIPEK_clean_linker_0, # of connection points: 2
#     Edge 21, Type (0, 0), BuildingBlock: EZIPEK_clean_linker_0, # of connection points: 2
#     Edge 22, Type (0, 0), BuildingBlock: EZIPEK_clean_linker_0, # of connection points: 2
#     Edge 23, Type (0, 0), BuildingBlock: EZIPEK_clean_linker_0, # of connection points: 2
#     Edge 24, Type (0, 0), BuildingBlock: EZIPEK_clean_linker_0, # of connection points: 2
#     Edge 25, Type (0, 0), BuildingBlock: EZIPEK_clean_linker_0, # of connection points: 2
#     Edge 26, Type (0, 0), BuildingBlock: EZIPEK_clean_linker_0, # of connection points: 2
#     Edge 27, Type (0, 0), BuildingBlock: EZIPEK_clean_linker_0, # of connection points: 2
#     Edge 28, Type (0, 0), BuildingBlock: EZIPEK_clean_linker_0, # of connection points: 2
#     Edge 29, Type (0, 0), BuildingBlock: EZIPEK_clean_linker_0, # of connection points: 2
#     Edge 30, Type (0, 0), BuildingBlock: EZIPEK_clean_linker_0, # of connection points: 2
#     Edge 31, Type (0, 0), BuildingBlock: EZIPEK_clean_linker_0, # of connection points: 2
#     Edge 32, Type (0, 0), BuildingBlock: EZIPEK_clean_linker_0, # of connection points: 2
#     Edge 33, Type (0, 0), BuildingBlock: EZIPEK_clean_linker_0, # of connection points: 2
#     Edge 34, Type (0, 0), BuildingBlock: EZIPEK_clean_linker_0, # of connection points: 2
#     Edge 35, Type (0, 0), BuildingBlock: EZIPEK_clean_linker_0, # of connection points: 2
# Relax obj value: 0.164
# Max RMSD: 0.251
# Mean RMSD: 0.250
data_MOF--net-umo--node1-QUQFOY_clean_sbu_3--edge1-EZIPEK_clean_linker_0
_symmetry_space_group_name_H-M    P1
_symmetry_Int_Tables_number       1
_symmetry_cell_setting            triclinic
loop_
_symmetry_equiv_pos_as_xyz
'x, y, z'
_cell_length_a     37.324106
_cell_length_b     37.157361
_cell_length_c     27.920021
_cell_angle_alpha  89.486841
_cell_angle_beta   90.334891
_cell_angle_gamma 119.76288
loop_
_atom_site_label
_atom_site_type_symbol
_atom_site_fract_x
_atom_site_fract_y
_atom_site_fract_z
_atom_type_partial_charge
C0 C 0.17415 0.46006 0.33706 0.0
O1 O 0.19418 0.46291 0.37499 0.0
Cd2 Cd 0.17949 0.48819 0.44986 0.0
O3 O 0.14581 0.46916 0.33839 0.0
Cd4 Cd 0.13098 0.50634 0.39805 0.0
C5 C 0.22574 0.58247 0.40483 0.0
O6 O 0.1208 0.49202 0.48415 0.0
O7 O 0.13895 0.55391 0.45565 0.0
O8 O 0.0608 0.4577 0.38622 0.0
C9 C 0.12445 0.52804 0.48986 0.0
O10 O 0.22681 0.56 0.4387 0.0
C11 C 0.05203 0.48347 0.36708 0.0
O12 O 0.19481 0.56932 0.37676 0.0
O13 O 0.08101 0.52062 0.36067 0.0
C14 C 0.70355 0.18116 0.48936 0.0
O15 O 0.70808 0.16219 0.52487 0.0
Cd16 Cd 0.64748 0.15839 0.5652 0.0
O17 O 0.67207 0.18569 0.4887 0.0
Cd18 Cd 0.61533 0.14807 0.55091 0.0
C19 C 0.63395 0.23515 0.55698 0.0
O20 O 0.62189 0.13557 0.64149 0.0
O21 O 0.57299 0.14631 0.61484 0.0
O22 O 0.59832 0.07964 0.52944 0.0
C23 C 0.58936 0.13778 0.64974 0.0
O24 O 0.66134 0.22887 0.5758 0.0
C25 C 0.56408 0.07136 0.51054 0.0
O26 O 0.60462 0.20576 0.53443 0.0
O27 O 0.55438 0.09962 0.50829 0.0
C28 C 0.49915 0.71761 0.66769 0.0
O29 O 0.51164 0.73114 0.70944 0.0
Cd30 Cd 0.45836 0.68368 0.76422 0.0
O31 O 0.47229 0.67968 0.66261 0.0
Cd32 Cd 0.44682 0.62097 0.72048 0.0
C33 C 0.36595 0.62691 0.70741 0.0
O34 O 0.45805 0.62892 0.80977 0.0
O35 O 0.39881 0.58288 0.78001 0.0
O36 O 0.50315 0.60799 0.70755 0.0
C37 C 0.4224 0.59707 0.81589 0.0
O38 O 0.38778 0.65655 0.73575 0.0
C39 C 0.47979 0.57021 0.69662 0.0
O40 O 0.3803 0.60551 0.68912 0.0
O41 O 0.44135 0.55728 0.69294 0.0
C42 C 0.78468 0.51008 0.81419 0.0
O43 O 0.76572 0.51193 0.85081 0.0
Cd44 Cd 0.77413 0.48811 0.92987 0.0
O45 O 0.8099 0.49663 0.81863 0.0
Cd46 Cd 0.83028 0.46417 0.8829 0.0
C47 C 0.73533 0.38733 0.90357 0.0
O48 O 0.83759 0.49499 0.96351 0.0
O49 O 0.82663 0.43187 0.95598 0.0
O50 O 0.90293 0.49961 0.86807 0.0
C51 C 0.83524 0.4624 0.98269 0.0
O52 O 0.73084 0.41425 0.92651 0.0
C53 C 0.90345 0.46834 0.85097 0.0
O54 O 0.76786 0.39738 0.8795 0.0
O55 O 0.86937 0.43474 0.84727 0.0
C56 C 0.2407 0.76839 -0.00575 0.0
O57 O 0.22192 0.7596 0.03402 0.0
Cd58 Cd 0.26446 0.76926 0.10514 0.0
O59 O 0.2798 0.78746 -0.00656 0.0
Cd60 Cd 0.33572 0.82225 0.05097 0.0
C61 C 0.3277 0.73264 0.06943 0.0
O62 O 0.3203 0.83451 0.13343 0.0
O63 O 0.37217 0.8244 0.11972 0.0
O64 O 0.34895 0.88819 0.02361 0.0
C65 C 0.35272 0.83443 0.14867 0.0
O66 O 0.29768 0.72795 0.0953 0.0
C67 C 0.38632 0.90079 0.01276 0.0
O68 O 0.34777 0.76476 0.04334 0.0
O69 O 0.39957 0.87525 0.01618 0.0
C70 C 0.44893 0.2617 0.15876 0.0
O71 O 0.42318 0.25457 0.19191 0.0
Cd72 Cd 0.47667 0.2942 0.25216 0.0
O73 O 0.48571 0.29064 0.16475 0.0
Cd74 Cd 0.50023 0.34428 0.22665 0.0
C75 C 0.57286 0.33024 0.22078 0.0
O76 O 0.48505 0.34011 0.31567 0.0
O77 O 0.54235 0.39075 0.28636 0.0
O78 O 0.44311 0.35159 0.20442 0.0
C79 C 0.51855 0.37453 0.32189 0.0
O80 O 0.54344 0.29903 0.24136 0.0
C81 C 0.46559 0.38745 0.18648 0.0
O82 O 0.56742 0.35906 0.20452 0.0
O83 O 0.50446 0.40246 0.18544 0.0
C84 C 0.50147 0.79291 0.49037 0.0
O85 O 0.52487 0.81115 0.4549 0.0
Cd86 Cd 0.46659 0.80739 0.40878 0.0
O87 O 0.4649 0.78681 0.48907 0.0
Cd88 Cd 0.44665 0.82288 0.42379 0.0
C89 C 0.3775 0.73389 0.42094 0.0
O90 O 0.45643 0.83004 0.33327 0.0
O91 O 0.40437 0.83105 0.3676 0.0
O92 O 0.50159 0.89058 0.4397 0.0
C93 C 0.42386 0.83333 0.32958 0.0
O94 O 0.4112 0.73584 0.40938 0.0
C95 C 0.4785 0.90156 0.46086 0.0
O96 O 0.37832 0.76663 0.43492 0.0
O97 O 0.44069 0.8748 0.46719 0.0
C98 C 0.7156 0.51739 0.63285 0.0
O99 O 0.72782 0.52429 0.5896 0.0
Cd100 Cd 0.68126 0.48624 0.5227 0.0
O101 O 0.67743 0.49592 0.64232 0.0
Cd102 Cd 0.6105 0.46089 0.60235 0.0
C103 C 0.63991 0.39145 0.57896 0.0
O104 O 0.61464 0.48047 0.51785 0.0
O105 O 0.55986 0.42493 0.54275 0.0
O106 O 0.59225 0.50771 0.63502 0.0
C107 C 0.58066 0.44758 0.50782 0.0
O108 O 0.66084 0.41604 0.54508 0.0
C109 C 0.56108 0.48023 0.65767 0.0
O110 O 0.62064 0.40104 0.60931 0.0
O111 O 0.55417 0.44304 0.65768 0.0
C112 C 0.1713 0.70895 0.80686 0.0
O113 O 0.1902 0.7292 0.76959 0.0
Cd114 Cd 0.1857 0.70139 0.68884 0.0
O115 O 0.14642 0.67028 0.80476 0.0
Cd116 Cd 0.1227 0.61549 0.74582 0.0
C117 C 0.22049 0.63574 0.71266 0.0
O118 O 0.12606 0.63819 0.66418 0.0
O119 O 0.06901 0.5845 0.68395 0.0
O120 O 0.06221 0.58039 0.79197 0.0
C121 C 0.09451 0.60482 0.65128 0.0
O122 O 0.22877 0.67073 0.69493 0.0
C123 C 0.06312 0.54674 0.7956 0.0
O124 O 0.18585 0.61168 0.73246 0.0
O125 O 0.09431 0.54564 0.77916 0.0
C126 C 0.45443 0.19952 0.97565 0.0
O127 O 0.44395 0.20475 0.93408 0.0
Cd128 Cd 0.48911 0.20367 0.87186 0.0
O129 O 0.47799 0.18419 0.98013 0.0
Cd130 Cd 0.50299 0.15054 0.92446 0.0
C131 C 0.58508 0.23859 0.92026 0.0
O132 O 0.48329 0.14193 0.83758 0.0
O133 O 0.54298 0.1503 0.86045 0.0
O134 O 0.45011 0.08209 0.94262 0.0
C135 C 0.51664 0.14179 0.8275 0.0
O136 O 0.56178 0.24516 0.89241 0.0
C137 C 0.47433 0.07182 0.96264 0.0
O138 O 0.57145 0.20461 0.94309 0.0
O139 O 0.51216 0.09901 0.967 0.0
C140 C 0.25265 0.46321 0.16022 0.0
O141 O 0.24995 0.43741 0.12907 0.0
Cd142 Cd 0.31057 0.49244 0.08618 0.0
O143 O 0.28217 0.50008 0.15639 0.0
Cd144 Cd 0.33612 0.50822 0.09456 0.0
C145 C 0.33936 0.58755 0.09545 0.0
O146 O 0.3169 0.48588 0.00583 0.0
O147 O 0.37411 0.54152 0.0239 0.0
O148 O 0.34198 0.4489 0.11827 0.0
C149 C 0.35064 0.51699 -0.00794 0.0
O150 O 0.3065 0.55665 0.08033 0.0
C151 C 0.37912 0.4712 0.13182 0.0
O152 O 0.3674 0.58134 0.11217 0.0
O153 O 0.39531 0.5103 0.12978 0.0
C154 C 0.78349 0.2653 0.32005 0.0
O155 O 0.8065 0.26544 0.28663 0.0
Cd156 Cd 0.80246 0.3224 0.24524 0.0
O157 O 0.77359 0.29336 0.31962 0.0
Cd158 Cd 0.81209 0.3533 0.26 0.0
C159 C 0.72439 0.33131 0.25173 0.0
O160 O 0.82384 0.35395 0.16947 0.0
O161 O 0.82141 0.40527 0.20364 0.0
O162 O 0.88008 0.37064 0.2823 0.0
C163 C 0.82569 0.38927 0.1657 0.0
O164 O 0.7295 0.30126 0.2403 0.0
C165 C 0.88569 0.40155 0.30705 0.0
O166 O 0.75494 0.36378 0.26802 0.0
O167 O 0.85617 0.40903 0.31161 0.0
C168 C 0.26671 0.65146 0.44022 0.0
C169 C 0.26022 0.62497 0.40123 0.0
C170 C 0.32866 0.67335 0.37036 0.0
C171 C 0.33772 0.69563 0.4143 0.0
N172 N 0.3169 0.70094 0.49468 0.0
N173 N 0.28477 0.60864 0.32965 0.0
C174 C 0.30706 0.68358 0.45015 0.0
C175 C 0.29097 0.63546 0.36607 0.0
N176 N 0.23415 0.64578 0.4677 0.0
N177 N 0.35497 0.68882 0.33218 0.0
H178 H 0.25681 0.58138 0.32449 0.0
H179 H 0.308 0.61219 0.30631 0.0
H180 H 0.38264 0.71682 0.33263 0.0
H181 H 0.3474 0.67592 0.29812 0.0
H182 H 0.23654 0.66644 0.4942 0.0
H183 H 0.20396 0.62304 0.45998 0.0
H184 H 0.2962 0.69038 0.5232 0.0
H185 H 0.3469 0.72259 0.50481 0.0
C186 C 0.67231 0.31241 0.55729 0.0
C187 C 0.63498 0.27478 0.56449 0.0
C188 C 0.5997 0.31326 0.58436 0.0
C189 C 0.638 0.35083 0.58101 0.0
N190 N 0.7124 0.38432 0.57943 0.0
N191 N 0.56661 0.23966 0.59949 0.0
C192 C 0.67487 0.34978 0.57231 0.0
C193 C 0.59961 0.27516 0.58238 0.0
N194 N 0.70477 0.31287 0.53428 0.0
N195 N 0.56319 0.31335 0.587 0.0
H196 H 0.56572 0.21124 0.60073 0.0
H197 H 0.54209 0.23947 0.61741 0.0
H198 H 0.56093 0.34011 0.58815 0.0
H199 H 0.53461 0.28646 0.58369 0.0
H200 H 0.73123 0.34021 0.52436 0.0
H201 H 0.70353 0.28629 0.52043 0.0
H202 H 0.74019 0.38414 0.57747 0.0
H203 H 0.7153 0.41174 0.59279 0.0
C204 C 0.27024 0.62618 0.66258 0.0
C205 C 0.25153 0.6225 0.70797 0.0
C206 C 0.2971 0.60013 0.743 0.0
C207 C 0.32224 0.61486 0.7018 0.0
N208 N 0.33247 0.63983 0.62047 0.0
N209 N 0.24917 0.60794 0.79314 0.0
C210 C 0.30842 0.62662 0.66055 0.0
C211 C 0.2648 0.6091 0.74863 0.0
N212 N 0.25116 0.62855 0.62172 0.0
N213 N 0.30435 0.57768 0.77663 0.0
H214 H 0.22668 0.61605 0.79983 0.0
H215 H 0.26138 0.60256 0.82428 0.0
H216 H 0.32691 0.56935 0.7717 0.0
H217 H 0.28496 0.56331 0.80578 0.0
H218 H 0.26177 0.62793 0.58748 0.0
H219 H 0.22227 0.6266 0.6221 0.0
H220 H 0.32612 0.65327 0.5911 0.0
H221 H 0.3599 0.63895 0.61772 0.0
C222 C 0.68457 0.31833 0.86837 0.0
C223 C 0.70332 0.34353 0.90893 0.0
C224 C 0.64906 0.29268 0.96111 0.0
C225 C 0.62936 0.26894 0.9201 0.0
N226 N 0.6366 0.24935 0.84042 0.0
N227 N 0.71288 0.347 -0.00525 0.0
C228 C 0.65008 0.2785 0.87558 0.0
C229 C 0.68866 0.32808 0.95577 0.0
N230 N 0.69736 0.33313 0.82302 0.0
N231 N 0.6293 0.28278 0.00429 0.0
H232 H 0.74289 0.37186 -0.00855 0.0
H233 H 0.70509 0.3353 0.02951 0.0
H234 H 0.60056 0.25642 0.00951 0.0
H235 H 0.64045 0.30188 0.03416 0.0
H236 H 0.68144 0.31715 0.79247 0.0
H237 H 0.7218 0.36265 0.81558 0.0
H238 H 0.6526 0.25334 0.80855 0.0
H239 H 0.61201 0.21942 0.84584 0.0
C240 C 0.33901 0.67754 0.03372 0.0
C241 C 0.34097 0.70157 0.07371 0.0
C242 C 0.34991 0.65466 0.12815 0.0
C243 C 0.34605 0.62966 0.08838 0.0
N244 N 0.35182 0.62433 0.00312 0.0
N245 N 0.36202 0.7215 0.15555 0.0
C246 C 0.3454 0.64342 0.041 0.0
C247 C 0.351 0.69288 0.11992 0.0
N248 N 0.32885 0.68578 0.98944 0.0
N249 N 0.35031 0.64099 0.17366 0.0
H250 H 0.36385 0.75018 0.15013 0.0
H251 H 0.37326 0.71866 0.18877 0.0
H252 H 0.35002 0.61328 0.181 0.0
H253 H 0.34832 0.65577 0.20422 0.0
H254 H 0.32194 0.66606 0.96032 0.0
H255 H 0.32479 0.71109 0.98231 0.0
H256 H 0.35581 0.63551 0.96809 0.0
H257 H 0.35765 0.59987 0.00758 0.0
C258 C 0.66476 0.31665 0.19749 0.0
C259 C 0.68527 0.33055 0.24244 0.0
C260 C 0.63876 0.356 0.26359 0.0
C261 C 0.61419 0.33552 0.2233 0.0
N262 N 0.60116 0.29363 0.15308 0.0
N263 N 0.68613 0.35581 0.3223 0.0
C264 C 0.62631 0.31487 0.19057 0.0
C265 C 0.67084 0.3483 0.27662 0.0
N266 N 0.68281 0.30762 0.1605 0.0
N267 N 0.63159 0.38284 0.28936 0.0
H268 H 0.70765 0.34773 0.33459 0.0
H269 H 0.67388 0.36549 0.34948 0.0
H270 H 0.60875 0.38992 0.28006 0.0
H271 H 0.65127 0.4015 0.31638 0.0
H272 H 0.67066 0.3014 0.12594 0.0
H273 H 0.71208 0.31076 0.16238 0.0
H274 H 0.60629 0.27403 0.13126 0.0
H275 H 0.5738 0.29379 0.14559 0.0
C276 C 0.0829 0.58342 0.56484 0.0
C277 C 0.09802 0.58137 0.61062 0.0
C278 C 0.12756 0.54035 0.57848 0.0
C279 C 0.11074 0.54061 0.5331 0.0
N280 N 0.06457 0.55436 0.48528 0.0
N281 N 0.12494 0.5484 0.66359 0.0
C282 C 0.0859 0.55966 0.52702 0.0
C283 C 0.11715 0.55675 0.61825 0.0
N284 N 0.06656 0.60874 0.55722 0.0
N285 N 0.15567 0.52712 0.58335 0.0
H286 H 0.11809 0.55976 0.69387 0.0
H287 H 0.13452 0.52699 0.67128 0.0
H288 H 0.16454 0.51502 0.55522 0.0
H289 H 0.17297 0.53154 0.6144 0.0
H290 H 0.05932 0.61531 0.52337 0.0
H291 H 0.06289 0.62554 0.58464 0.0
H292 H 0.04284 0.56388 0.48039 0.0
H293 H 0.06571 0.53697 0.45688 0.0
C294 C 0.58252 0.17565 0.71801 0.0
C295 C 0.5735 0.13709 0.69814 0.0
C296 C 0.5215 0.10028 0.76043 0.0
C297 C 0.52899 0.13902 0.77828 0.0
N298 N 0.55968 0.21287 0.7688 0.0
N299 N 0.53165 0.06273 0.69593 0.0
C300 C 0.55738 0.17651 0.7553 0.0
C301 C 0.54215 0.0993 0.7181 0.0
N302 N 0.61574 0.2114 0.70165 0.0
N303 N 0.49549 0.06469 0.78471 0.0
H304 H 0.54798 0.06099 0.66668 0.0
H305 H 0.50591 0.03456 0.70511 0.0
H306 H 0.47845 0.06447 0.81434 0.0
H307 H 0.49203 0.0358 0.77684 0.0
H308 H 0.62637 0.24017 0.71758 0.0
H309 H 0.63514 0.21167 0.67471 0.0
H310 H 0.57708 0.24089 0.75072 0.0
H311 H 0.54113 0.21424 0.79573 0.0
C312 C 0.39775 0.52707 0.92477 0.0
C313 C 0.36246 0.52791 0.94171 0.0
C314 C 0.37166 0.57942 0.88107 0.0
C315 C 0.40615 0.5777 0.86286 0.0
N316 N 0.4486 0.54565 0.8619 0.0
N317 N 0.30986 0.54652 0.92984 0.0
C318 C 0.41831 0.55029 0.88319 0.0
C319 C 0.34734 0.55123 0.91755 0.0
N320 N 0.41193 0.50463 0.94929 0.0
N321 N 0.36326 0.60924 0.86464 0.0
H322 H 0.29151 0.52599 0.95664 0.0
H323 H 0.29538 0.55994 0.91075 0.0
H324 H 0.38136 0.63121 0.83883 0.0
H325 H 0.34075 0.61456 0.87934 0.0
H326 H 0.44025 0.50653 0.94276 0.0
H327 H 0.39547 0.48485 0.97756 0.0
H328 H 0.45583 0.52288 0.87154 0.0
H329 H 0.46518 0.5635 0.83256 0.0
C330 C 0.79764 0.41952 0.10566 0.0
C331 C 0.8294 0.41069 0.11934 0.0
C332 C 0.87132 0.45182 0.05108 0.0
C333 C 0.8378 0.45635 0.03466 0.0
N334 N 0.76958 0.44614 0.04517 0.0
N335 N 0.89663 0.41835 0.10609 0.0
C336 C 0.80145 0.44144 0.06224 0.0
C337 C 0.86641 0.42694 0.09237 0.0
N338 N 0.76354 0.40653 0.13401 0.0
N339 N 0.90793 0.47191 0.0269 0.0
H340 H 0.89491 0.40194 0.13728 0.0
H341 H 0.92264 0.42568 0.08573 0.0
H342 H 0.912 0.49105 -0.0026 0.0
H343 H 0.93495 0.47262 0.03781 0.0
H344 H 0.74207 0.41644 0.12984 0.0
H345 H 0.75708 0.38668 0.16324 0.0
H346 H 0.73988 0.43111 0.05926 0.0
H347 H 0.77261 0.46438 0.01522 0.0
C348 C 0.40869 0.87179 0.20841 0.0
C349 C 0.36691 0.84158 0.19893 0.0
C350 C 0.36409 0.80527 0.27325 0.0
C351 C 0.40572 0.8357 0.28327 0.0
N352 N 0.46492 0.90234 0.26588 0.0
N353 N 0.30193 0.78604 0.22749 0.0
C354 C 0.4273 0.87035 0.25245 0.0
C355 C 0.34359 0.81064 0.23327 0.0
N356 N 0.43083 0.90116 0.17446 0.0
N357 N 0.34472 0.76999 0.30059 0.0
H358 H 0.28581 0.78895 0.19857 0.0
H359 H 0.28262 0.76567 0.25375 0.0
H360 H 0.35845 0.76449 0.33015 0.0
H361 H 0.31648 0.7444 0.29159 0.0
H362 H 0.46264 0.92079 0.17613 0.0
H363 H 0.41734 0.90467 0.14327 0.0
H364 H 0.48015 0.93054 0.2476 0.0
H365 H 0.47978 0.90191 0.29742 0.0
C366 C 0.54278 0.37107 0.40423 0.0
C367 C 0.53298 0.39299 0.36976 0.0
C368 C 0.56242 0.45441 0.42187 0.0
C369 C 0.56838 0.43097 0.45833 0.0
N370 N 0.5641 0.36661 0.48447 0.0
N371 N 0.53139 0.45446 0.34498 0.0
C372 C 0.55831 0.38918 0.44952 0.0
C373 C 0.54262 0.43457 0.37819 0.0
N374 N 0.54023 0.33414 0.39247 0.0
N375 N 0.57543 0.49545 0.42902 0.0
H376 H 0.51693 0.44088 0.31278 0.0
H377 H 0.53367 0.48319 0.35025 0.0
H378 H 0.58757 0.51038 0.46138 0.0
H379 H 0.57659 0.5156 0.40219 0.0
H380 H 0.55197 0.31919 0.41366 0.0
H381 H 0.52961 0.3197 0.3595 0.0
H382 H 0.55023 0.33441 0.48417 0.0
H383 H 0.58216 0.38002 0.51456 0.0
C384 C 0.9363 0.42552 0.37364 0.0
C385 C 0.92656 0.42982 0.3258 0.0
C386 C -0.00091 0.47427 0.30596 0.0
C387 C 0.00919 0.47001 0.35394 0.0
N388 N -0.01214 0.45085 0.43629 0.0
N389 N 0.94568 0.46625 0.25024 0.0
C390 C -0.02215 0.44865 0.3888 0.0
C391 C 0.95706 0.45714 0.29331 0.0
N392 N 0.9062 0.39793 0.40373 0.0
N393 N 0.02912 0.49158 0.27169 0.0
H394 H 0.91488 0.45374 0.23987 0.0
H395 H 0.96639 0.48909 0.22695 0.0
H396 H 0.06042 0.50358 0.27879 0.0
H397 H 0.0228 0.49092 0.23523 0.0
H398 H 0.91224 0.38949 0.43719 0.0
H399 H 0.87509 0.38155 0.39404 0.0
H400 H 0.96604 0.43939 0.46362 0.0
H401 H 0.01811 0.46731 0.44884 0.0
C402 C 0.49454 0.95688 0.52096 0.0
C403 C 0.49442 0.94511 0.47285 0.0
C404 C 0.53507 0.01748 0.44767 0.0
C405 C 0.53531 0.02911 0.49571 0.0
N406 N 0.50668 0.01234 0.57525 0.0
N407 N 0.50325 0.96316 0.38871 0.0
C408 C 0.51202 -0.0005 0.53147 0.0
C409 C 0.51119 0.97515 0.43555 0.0
N410 N 0.48028 0.92772 0.55676 0.0
N411 N 0.55873 0.04664 0.41418 0.0
H412 H 0.4846 0.93233 0.37863 0.0
H413 H 0.51159 0.98396 0.36012 0.0
H414 H 0.5754 0.07827 0.42167 0.0
H415 H 0.56371 0.03929 0.37985 0.0
H416 H 0.48383 0.93509 0.59301 0.0
H417 H 0.46762 0.89608 0.5505 0.0
H418 H 0.48691 -0.00777 0.60139 0.0
H419 H 0.51903 0.0436 0.58365 0.0
C420 C 0.52304 0.54029 0.72672 0.0
C421 C 0.4964 0.54182 0.69094 0.0
C422 C 0.49916 0.48667 0.64713 0.0
C423 C 0.53168 0.4914 0.67732 0.0
N424 N 0.57449 0.52069 0.74661 0.0
N425 N 0.463 0.51982 0.61373 0.0
C426 C 0.54323 0.51726 0.71779 0.0
C427 C 0.48479 0.51535 0.65061 0.0
N428 N 0.52833 0.55994 0.76949 0.0
N429 N 0.48296 0.45554 0.61423 0.0
H430 H 0.45409 0.54232 0.61306 0.0
H431 H 0.45747 0.50415 0.58139 0.0
H432 H 0.49329 0.43425 0.61079 0.0
H433 H 0.45666 0.44825 0.5941 0.0
H434 H 0.54379 0.55618 0.79857 0.0
H435 H 0.51441 0.5774 0.7776 0.0
H436 H 0.58822 0.54295 0.77322 0.0
H437 H 0.58779 0.50195 0.74235 0.0
C438 C -0.00517 0.48901 0.77542 0.0
C439 C 0.02554 0.50928 0.81078 0.0
C440 C 0.97332 0.48206 0.87325 0.0
C441 C 0.94289 0.47162 0.83726 0.0
N442 N 0.92285 0.46121 0.75404 0.0
N443 N 0.04634 0.52108 0.8931 0.0
C444 C 0.95285 0.47262 0.78823 0.0
C445 C 0.01549 0.50359 0.85988 0.0
N446 N 0.00629 0.48736 0.72949 0.0
N447 N 0.96151 0.47193 0.91989 0.0
H448 H 0.07742 0.53552 0.88333 0.0
H449 H 0.04132 0.52216 0.92956 0.0
H450 H 0.93046 0.45548 0.9298 0.0
H451 H -0.0181 0.47643 0.94779 0.0
H452 H -0.0145 0.47084 0.7023 0.0
H453 H 0.03718 0.49954 0.71989 0.0
H454 H 0.9289 0.46604 0.7175 0.0
H455 H 0.89166 0.44835 0.76238 0.0
C456 C 0.43446 0.01657 0.02199 0.0
C457 C 0.45846 0.02941 0.97982 0.0
C458 C 0.43782 0.95783 0.96003 0.0
C459 C 0.41413 0.94495 0.00266 0.0
N460 N 0.39917 0.96221 0.08066 0.0
N461 N 0.49069 0.01495 0.91384 0.0
C462 C 0.41526 0.97439 0.03567 0.0
C463 C 0.46295 0.00087 0.95071 0.0
N464 N 0.42919 0.0445 0.04827 0.0
N465 N 0.43425 0.92919 0.9271 0.0
H466 H 0.50868 0.04632 0.90517 0.0
H467 H 0.49838 -0.00401 0.89435 0.0
H468 H 0.41549 0.89734 0.93215 0.0
H469 H 0.44728 0.93691 0.89308 0.0
H470 H 0.40759 0.03593 0.07568 0.0
H471 H 0.44476 0.07626 0.04086 0.0
H472 H 0.40291 0.98292 0.10771 0.0
H473 H 0.38554 0.93161 0.0927 0.0
C474 C 0.41739 0.43532 0.10966 0.0
C475 C 0.40369 0.45232 0.14573 0.0
C476 C 0.43309 0.42893 0.20834 0.0
C477 C 0.44724 0.41243 0.17219 0.0
N478 N 0.46091 0.40636 0.08927 0.0
N479 N 0.40378 0.47239 0.22766 0.0
C480 C 0.44202 0.41775 0.12298 0.0
C481 C 0.41335 0.4515 0.19462 0.0
N482 N 0.40615 0.43532 0.06292 0.0
N483 N 0.43774 0.42213 0.25566 0.0
H484 H 0.38755 0.48774 0.2191 0.0
H485 H 0.41412 0.47693 0.26296 0.0
H486 H 0.45373 0.40727 0.26722 0.0
H487 H 0.42397 0.42914 0.28363 0.0
H488 H 0.41107 0.41922 0.03581 0.0
H489 H 0.38954 0.44953 0.05142 0.0
H490 H 0.46175 0.41324 0.05294 0.0
H491 H 0.47867 0.39269 0.098 0.0
C492 C 0.19348 0.48341 0.25156 0.0
C493 C 0.189 0.45531 0.28932 0.0
C494 C 0.22093 0.42566 0.23798 0.0
C495 C 0.22301 0.45243 0.2001 0.0
N496 N 0.19842 0.49576 0.16609 0.0
N497 N 0.1897 0.39326 0.31401 0.0
C498 C 0.20447 0.47719 0.20534 0.0
C499 C 0.19992 0.42427 0.28114 0.0
N500 N 0.1913 0.51845 0.26028 0.0
N501 N 0.24076 0.40329 0.23386 0.0
H502 H 0.17366 0.391 0.34538 0.0
H503 H 0.19362 0.36779 0.30799 0.0
H504 H 0.25567 0.40287 0.20259 0.0
H505 H 0.24448 0.38716 0.26237 0.0
H506 H 0.19821 0.54138 0.23443 0.0
H507 H 0.18827 0.52781 0.29428 0.0
H508 H 0.18168 0.51135 0.16736 0.0
H509 H 0.2062 0.49148 0.13156 0.0
C510 C 0.79173 0.24847 0.40475 0.0
C511 C 0.76987 0.23549 0.36078 0.0
C512 C 0.71278 0.17655 0.40185 0.0
C513 C 0.73082 0.19441 0.44657 0.0
N514 N 0.78829 0.24587 0.49178 0.0
N515 N 0.71062 0.18652 0.31599 0.0
C516 C 0.77107 0.2294 0.44844 0.0
C517 C 0.731 0.19878 0.35876 0.0
N518 N 0.83199 0.2795 0.40444 0.0
N519 N 0.67807 0.13833 0.40098 0.0
H520 H 0.72408 0.20125 0.28367 0.0
H521 H 0.68004 0.16308 0.31268 0.0
H522 H 0.6646 0.12134 0.43218 0.0
H523 H 0.66491 0.12189 0.36971 0.0
H524 H 0.85099 0.28862 0.43452 0.0
H525 H 0.84747 0.29383 0.37279 0.0
H526 H 0.8154 0.27407 0.49584 0.0
H527 H 0.77433 0.23191 0.52419 0.0
C528 C 0.50816 0.78095 0.62235 0.0
C529 C 0.51302 0.74531 0.62474 0.0
C530 C 0.52284 0.74841 0.53749 0.0
C531 C 0.51606 0.78263 0.53521 0.0
N532 N 0.5172 0.84013 0.57525 0.0
N533 N 0.53815 0.70389 0.58755 0.0
C534 C 0.5141 0.80193 0.5778 0.0
C535 C 0.52488 0.73204 0.58314 0.0
N536 N 0.49445 0.79284 0.66113 0.0
N537 N 0.52495 0.73014 0.4962 0.0
H538 H 0.54076 0.69223 0.62075 0.0
H539 H 0.55036 0.69535 0.55926 0.0
H540 H 0.52483 0.74225 0.4624 0.0
H541 H 0.52481 0.70205 0.49541 0.0
H542 H 0.48557 0.81533 0.65931 0.0
H543 H 0.4887 0.77834 0.69447 0.0
H544 H 0.51975 0.85768 0.60529 0.0
H545 H 0.52161 0.85601 0.54282 0.0
C546 C 0.76555 0.55098 0.75568 0.0
C547 C 0.77312 0.51757 0.76509 0.0
C548 C 0.76088 0.4991 0.68009 0.0
C549 C 0.74496 0.52625 0.67321 0.0
N550 N 0.73066 0.5777 0.70502 0.0
N551 N 0.76554 0.45251 0.73663 0.0
C552 C 0.74704 0.5523 0.71121 0.0
C553 C 0.76799 0.48987 0.72731 0.0
N554 N 0.7769 0.58188 0.78841 0.0
N555 N 0.76782 0.48078 0.64186 0.0
H556 H 0.7649 0.44121 0.77107 0.0
H557 H 0.75814 0.43009 0.7104 0.0
H558 H 0.76334 0.48698 0.60657 0.0
H559 H 0.78249 0.4632 0.64522 0.0
H560 H 0.77511 0.60857 0.78175 0.0
H561 H 0.79209 0.58286 0.82025 0.0
H562 H 0.72678 0.59386 0.73295 0.0
H563 H 0.71919 0.58093 0.67202 0.0
C564 C 0.22827 0.72375 0.92352 0.0
C565 C 0.21841 0.75061 0.94873 0.0
C566 C 0.17427 0.74838 0.88171 0.0
C567 C 0.18855 0.72589 0.85462 0.0
N568 N 0.23457 0.69799 0.84678 0.0
N569 N 0.18412 0.79098 0.95169 0.0
C570 C 0.21717 0.71534 0.8747 0.0
C571 C 0.19167 0.76344 0.92798 0.0
N572 N 0.24687 0.70487 0.94693 0.0
N573 N 0.14381 0.75474 0.86348 0.0
H574 H 0.19579 0.80185 0.98581 0.0
H575 H 0.16837 0.80487 0.9366 0.0
H576 H 0.13165 0.74514 0.8292 0.0
H577 H 0.12894 0.76713 0.88316 0.0
H578 H 0.25101 0.68169 0.9317 0.0
H579 H 0.25407 0.70899 0.98337 0.0
H580 H 0.25903 0.69405 0.85821 0.0
H581 H 0.2273 0.69096 0.8107 0.0
C582 C 0.42767 0.19953 0.10603 0.0
C583 C 0.43695 0.24112 0.11148 0.0
C584 C 0.44921 0.25353 0.02526 0.0
C585 C 0.44114 0.21213 0.01964 0.0
N586 N 0.41017 0.14258 0.05149 0.0
N587 N 0.44197 0.30245 0.07556 0.0
C588 C 0.42611 0.18404 0.05911 0.0
C589 C 0.44261 0.26622 0.07064 0.0
N590 N 0.42259 0.17559 0.1456 0.0
N591 N 0.46638 0.28185 0.98888 0.0
H592 H 0.43678 0.31211 0.10852 0.0
H593 H 0.44209 0.32036 0.04657 0.0
H594 H 0.47288 0.27479 0.9552 0.0
H595 H 0.47742 0.31344 -0.00669 0.0
H596 H 0.42078 0.14674 0.1442 0.0
H597 H 0.42241 0.18569 0.18029 0.0
H598 H 0.39573 0.1201 0.07805 0.0
H599 H 0.40768 0.13037 0.01732 0.0
loop_
_geom_bond_atom_site_label_1
_geom_bond_atom_site_label_2
_geom_bond_distance
_geom_bond_site_symmetry_2
_ccdc_geom_bond_type
C0 O1 1.306 . S
C0 O3 1.160 . S
O1 C0 1.306 . S
O1 Cd2 2.228 . S
Cd2 O1 2.228 . S
Cd2 O6 2.273 . S
Cd2 O10 2.277 . S
O3 C0 1.160 . S
O3 Cd4 2.203 . S
Cd4 O3 2.203 . S
Cd4 O6 2.411 . S
Cd4 O7 2.333 . S
Cd4 O8 2.352 . S
Cd4 O12 2.277 . S
Cd4 O13 2.356 . S
C5 O10 1.209 . S
C5 O12 1.226 . S
O6 Cd2 2.273 . S
O6 Cd4 2.411 . S
O6 C9 1.320 . S
O7 Cd4 2.333 . S
O7 C9 1.214 . S
O8 Cd4 2.352 . S
O8 C11 1.258 . S
C9 O6 1.320 . S
C9 O7 1.214 . S
O10 Cd2 2.277 . S
O10 C5 1.209 . S
C11 O8 1.258 . S
C11 O13 1.282 . S
O12 Cd4 2.277 . S
O12 C5 1.226 . S
O13 Cd4 2.356 . S
O13 C11 1.282 . S
C14 O15 1.306 . S
C14 O17 1.160 . S
O15 C14 1.306 . S
O15 Cd16 2.228 . S
Cd16 O15 2.228 . S
Cd16 O20 2.273 . S
Cd16 O24 2.277 . S
O17 C14 1.160 . S
O17 Cd18 2.203 . S
Cd18 O17 2.203 . S
Cd18 O20 2.411 . S
Cd18 O21 2.333 . S
Cd18 O22 2.352 . S
Cd18 O26 2.277 . S
Cd18 O27 2.356 . S
C19 O24 1.209 . S
C19 O26 1.226 . S
O20 Cd16 2.273 . S
O20 Cd18 2.411 . S
O20 C23 1.320 . S
O21 Cd18 2.333 . S
O21 C23 1.214 . S
O22 Cd18 2.352 . S
O22 C25 1.258 . S
C23 O20 1.320 . S
C23 O21 1.214 . S
O24 Cd16 2.277 . S
O24 C19 1.209 . S
C25 O22 1.258 . S
C25 O27 1.282 . S
O26 Cd18 2.277 . S
O26 C19 1.226 . S
O27 Cd18 2.356 . S
O27 C25 1.282 . S
C28 O29 1.306 . S
C28 O31 1.160 . S
O29 C28 1.306 . S
O29 Cd30 2.228 . S
Cd30 O29 2.228 . S
Cd30 O34 2.273 . S
Cd30 O38 2.277 . S
O31 C28 1.160 . S
O31 Cd32 2.203 . S
Cd32 O31 2.203 . S
Cd32 O34 2.411 . S
Cd32 O35 2.333 . S
Cd32 O36 2.352 . S
Cd32 O40 2.277 . S
Cd32 O41 2.356 . S
C33 O38 1.209 . S
C33 O40 1.226 . S
O34 Cd30 2.273 . S
O34 Cd32 2.411 . S
O34 C37 1.320 . S
O35 Cd32 2.333 . S
O35 C37 1.214 . S
O36 Cd32 2.352 . S
O36 C39 1.258 . S
C37 O34 1.320 . S
C37 O35 1.214 . S
O38 Cd30 2.277 . S
O38 C33 1.209 . S
C39 O36 1.258 . S
C39 O41 1.282 . S
O40 Cd32 2.277 . S
O40 C33 1.226 . S
O41 Cd32 2.356 . S
O41 C39 1.282 . S
C42 O43 1.306 . S
C42 O45 1.160 . S
O43 C42 1.306 . S
O43 Cd44 2.228 . S
Cd44 O43 2.228 . S
Cd44 O48 2.273 . S
Cd44 O52 2.277 . S
O45 C42 1.160 . S
O45 Cd46 2.203 . S
Cd46 O45 2.203 . S
Cd46 O48 2.411 . S
Cd46 O49 2.333 . S
Cd46 O50 2.352 . S
Cd46 O54 2.277 . S
Cd46 O55 2.356 . S
C47 O52 1.209 . S
C47 O54 1.226 . S
O48 Cd44 2.273 . S
O48 Cd46 2.411 . S
O48 C51 1.320 . S
O49 Cd46 2.333 . S
O49 C51 1.214 . S
O50 Cd46 2.352 . S
O50 C53 1.258 . S
C51 O48 1.320 . S
C51 O49 1.214 . S
O52 Cd44 2.277 . S
O52 C47 1.209 . S
C53 O50 1.258 . S
C53 O55 1.282 . S
O54 Cd46 2.277 . S
O54 C47 1.226 . S
O55 Cd46 2.356 . S
O55 C53 1.282 . S
C56 O57 1.306 . S
C56 O59 1.164 . S
O57 C56 1.306 . S
O57 Cd58 2.228 . S
Cd58 O57 2.228 . S
Cd58 O62 2.273 . S
Cd58 O66 2.277 . S
O59 C56 1.164 . S
O59 Cd60 2.220 . S
Cd60 O59 2.220 . S
Cd60 O62 2.411 . S
Cd60 O63 2.333 . S
Cd60 O64 2.352 . S
Cd60 O68 2.277 . S
Cd60 O69 2.356 . S
C61 O66 1.209 . S
C61 O68 1.226 . S
O62 Cd58 2.273 . S
O62 Cd60 2.411 . S
O62 C65 1.320 . S
O63 Cd60 2.333 . S
O63 C65 1.214 . S
O64 Cd60 2.352 . S
O64 C67 1.258 . S
C65 O62 1.320 . S
C65 O63 1.214 . S
O66 Cd58 2.277 . S
O66 C61 1.209 . S
C67 O64 1.258 . S
C67 O69 1.282 . S
O68 Cd60 2.277 . S
O68 C61 1.226 . S
O69 Cd60 2.356 . S
O69 C67 1.282 . S
C70 O71 1.306 . S
C70 O73 1.160 . S
O71 C70 1.306 . S
O71 Cd72 2.228 . S
Cd72 O71 2.228 . S
Cd72 O76 2.273 . S
Cd72 O80 2.277 . S
O73 C70 1.160 . S
O73 Cd74 2.203 . S
Cd74 O73 2.203 . S
Cd74 O76 2.411 . S
Cd74 O77 2.333 . S
Cd74 O78 2.352 . S
Cd74 O82 2.277 . S
Cd74 O83 2.356 . S
C75 O80 1.209 . S
C75 O82 1.226 . S
O76 Cd72 2.273 . S
O76 Cd74 2.411 . S
O76 C79 1.320 . S
O77 Cd74 2.333 . S
O77 C79 1.214 . S
O78 Cd74 2.352 . S
O78 C81 1.258 . S
C79 O76 1.320 . S
C79 O77 1.214 . S
O80 Cd72 2.277 . S
O80 C75 1.209 . S
C81 O78 1.258 . S
C81 O83 1.282 . S
O82 Cd74 2.277 . S
O82 C75 1.226 . S
O83 Cd74 2.356 . S
O83 C81 1.282 . S
C84 O85 1.306 . S
C84 O87 1.160 . S
O85 C84 1.306 . S
O85 Cd86 2.228 . S
Cd86 O85 2.228 . S
Cd86 O90 2.273 . S
Cd86 O94 2.277 . S
O87 C84 1.160 . S
O87 Cd88 2.203 . S
Cd88 O87 2.203 . S
Cd88 O90 2.411 . S
Cd88 O91 2.333 . S
Cd88 O92 2.352 . S
Cd88 O96 2.277 . S
Cd88 O97 2.356 . S
C89 O94 1.209 . S
C89 O96 1.226 . S
O90 Cd86 2.273 . S
O90 Cd88 2.411 . S
O90 C93 1.320 . S
O91 Cd88 2.333 . S
O91 C93 1.214 . S
O92 Cd88 2.352 . S
O92 C95 1.258 . S
C93 O90 1.320 . S
C93 O91 1.214 . S
O94 Cd86 2.277 . S
O94 C89 1.209 . S
C95 O92 1.258 . S
C95 O97 1.282 . S
O96 Cd88 2.277 . S
O96 C89 1.226 . S
O97 Cd88 2.356 . S
O97 C95 1.282 . S
C98 O99 1.306 . S
C98 O101 1.160 . S
O99 C98 1.306 . S
O99 Cd100 2.228 . S
Cd100 O99 2.228 . S
Cd100 O104 2.273 . S
Cd100 O108 2.277 . S
O101 C98 1.160 . S
O101 Cd102 2.203 . S
Cd102 O101 2.203 . S
Cd102 O104 2.411 . S
Cd102 O105 2.333 . S
Cd102 O106 2.352 . S
Cd102 O110 2.277 . S
Cd102 O111 2.356 . S
C103 O108 1.209 . S
C103 O110 1.226 . S
O104 Cd100 2.273 . S
O104 Cd102 2.411 . S
O104 C107 1.320 . S
O105 Cd102 2.333 . S
O105 C107 1.214 . S
O106 Cd102 2.352 . S
O106 C109 1.258 . S
C107 O104 1.320 . S
C107 O105 1.214 . S
O108 Cd100 2.277 . S
O108 C103 1.209 . S
C109 O106 1.258 . S
C109 O111 1.282 . S
O110 Cd102 2.277 . S
O110 C103 1.226 . S
O111 Cd102 2.356 . S
O111 C109 1.282 . S
C112 O113 1.306 . S
C112 O115 1.160 . S
O113 C112 1.306 . S
O113 Cd114 2.228 . S
Cd114 O113 2.228 . S
Cd114 O118 2.273 . S
Cd114 O122 2.277 . S
O115 C112 1.160 . S
O115 Cd116 2.203 . S
Cd116 O115 2.203 . S
Cd116 O118 2.411 . S
Cd116 O119 2.333 . S
Cd116 O120 2.352 . S
Cd116 O124 2.277 . S
Cd116 O125 2.356 . S
C117 O122 1.209 . S
C117 O124 1.226 . S
O118 Cd114 2.273 . S
O118 Cd116 2.411 . S
O118 C121 1.320 . S
O119 Cd116 2.333 . S
O119 C121 1.214 . S
O120 Cd116 2.352 . S
O120 C123 1.258 . S
C121 O118 1.320 . S
C121 O119 1.214 . S
O122 Cd114 2.277 . S
O122 C117 1.209 . S
C123 O120 1.258 . S
C123 O125 1.282 . S
O124 Cd116 2.277 . S
O124 C117 1.226 . S
O125 Cd116 2.356 . S
O125 C123 1.282 . S
C126 O127 1.306 . S
C126 O129 1.164 . S
O127 C126 1.306 . S
O127 Cd128 2.228 . S
Cd128 O127 2.228 . S
Cd128 O132 2.273 . S
Cd128 O136 2.277 . S
O129 C126 1.164 . S
O129 Cd130 2.220 . S
Cd130 O129 2.220 . S
Cd130 O132 2.411 . S
Cd130 O133 2.333 . S
Cd130 O134 2.352 . S
Cd130 O138 2.277 . S
Cd130 O139 2.356 . S
C131 O136 1.209 . S
C131 O138 1.226 . S
O132 Cd128 2.273 . S
O132 Cd130 2.411 . S
O132 C135 1.320 . S
O133 Cd130 2.333 . S
O133 C135 1.214 . S
O134 Cd130 2.352 . S
O134 C137 1.258 . S
C135 O132 1.320 . S
C135 O133 1.214 . S
O136 Cd128 2.277 . S
O136 C131 1.209 . S
C137 O134 1.258 . S
C137 O139 1.282 . S
O138 Cd130 2.277 . S
O138 C131 1.226 . S
O139 Cd130 2.356 . S
O139 C137 1.282 . S
C140 O141 1.306 . S
C140 O143 1.160 . S
O141 C140 1.306 . S
O141 Cd142 2.228 . S
Cd142 O141 2.228 . S
Cd142 O146 2.273 . S
Cd142 O150 2.277 . S
O143 C140 1.160 . S
O143 Cd144 2.203 . S
Cd144 O143 2.203 . S
Cd144 O146 2.411 . S
Cd144 O147 2.333 . S
Cd144 O148 2.352 . S
Cd144 O152 2.277 . S
Cd144 O153 2.356 . S
C145 O150 1.209 . S
C145 O152 1.226 . S
O146 Cd142 2.273 . S
O146 Cd144 2.411 . S
O146 C149 1.320 . S
O147 Cd144 2.333 . S
O147 C149 1.214 . S
O148 Cd144 2.352 . S
O148 C151 1.258 . S
C149 O146 1.320 . S
C149 O147 1.214 . S
O150 Cd142 2.277 . S
O150 C145 1.209 . S
C151 O148 1.258 . S
C151 O153 1.282 . S
O152 Cd144 2.277 . S
O152 C145 1.226 . S
O153 Cd144 2.356 . S
O153 C151 1.282 . S
C154 O155 1.306 . S
C154 O157 1.160 . S
O155 C154 1.306 . S
O155 Cd156 2.228 . S
Cd156 O155 2.228 . S
Cd156 O160 2.273 . S
Cd156 O164 2.277 . S
O157 C154 1.160 . S
O157 Cd158 2.203 . S
Cd158 O157 2.203 . S
Cd158 O160 2.411 . S
Cd158 O161 2.333 . S
Cd158 O162 2.352 . S
Cd158 O166 2.277 . S
Cd158 O167 2.356 . S
C159 O164 1.209 . S
C159 O166 1.226 . S
O160 Cd156 2.273 . S
O160 Cd158 2.411 . S
O160 C163 1.320 . S
O161 Cd158 2.333 . S
O161 C163 1.214 . S
O162 Cd158 2.352 . S
O162 C165 1.258 . S
C163 O160 1.320 . S
C163 O161 1.214 . S
O164 Cd156 2.277 . S
O164 C159 1.209 . S
C165 O162 1.258 . S
C165 O167 1.282 . S
O166 Cd158 2.277 . S
O166 C159 1.226 . S
O167 Cd158 2.356 . S
O167 C165 1.282 . S
C168 C169 1.363 . S
C168 C174 1.379 . S
C168 N176 1.356 . S
C169 C168 1.363 . S
C169 C175 1.363 . S
C170 C171 1.363 . S
C170 C175 1.379 . S
C170 N177 1.356 . S
C171 C170 1.363 . S
C171 C174 1.363 . S
N172 C174 1.356 . S
N172 H184 0.984 . S
N172 H185 0.985 . S
N173 C175 1.356 . S
N173 H178 0.984 . S
N173 H179 0.985 . S
C174 C168 1.379 . S
C174 C171 1.363 . S
C174 N172 1.356 . S
C175 C169 1.363 . S
C175 C170 1.379 . S
C175 N173 1.356 . S
N176 C168 1.356 . S
N176 H182 0.984 . S
N176 H183 0.984 . S
N177 C170 1.356 . S
N177 H180 0.984 . S
N177 H181 0.985 . S
H178 N173 0.984 . S
H179 N173 0.985 . S
H180 N177 0.984 . S
H181 N177 0.985 . S
H182 N176 0.984 . S
H183 N176 0.984 . S
H184 N172 0.984 . S
H185 N172 0.985 . S
C186 C187 1.363 . S
C186 C192 1.379 . S
C186 N194 1.356 . S
C187 C186 1.363 . S
C187 C193 1.363 . S
C188 C189 1.363 . S
C188 C193 1.379 . S
C188 N195 1.356 . S
C189 C188 1.363 . S
C189 C192 1.363 . S
N190 C192 1.356 . S
N190 H202 0.984 . S
N190 H203 0.985 . S
N191 C193 1.356 . S
N191 H196 0.984 . S
N191 H197 0.985 . S
C192 C186 1.379 . S
C192 C189 1.363 . S
C192 N190 1.356 . S
C193 C187 1.363 . S
C193 C188 1.379 . S
C193 N191 1.356 . S
N194 C186 1.356 . S
N194 H200 0.984 . S
N194 H201 0.984 . S
N195 C188 1.356 . S
N195 H198 0.984 . S
N195 H199 0.985 . S
H196 N191 0.984 . S
H197 N191 0.985 . S
H198 N195 0.984 . S
H199 N195 0.985 . S
H200 N194 0.984 . S
H201 N194 0.984 . S
H202 N190 0.984 . S
H203 N190 0.985 . S
C204 C205 1.363 . S
C204 C210 1.379 . S
C204 N212 1.356 . S
C205 C204 1.363 . S
C205 C211 1.363 . S
C206 C207 1.363 . S
C206 C211 1.379 . S
C206 N213 1.356 . S
C207 C206 1.363 . S
C207 C210 1.363 . S
N208 C210 1.356 . S
N208 H220 0.984 . S
N208 H221 0.985 . S
N209 C211 1.356 . S
N209 H214 0.984 . S
N209 H215 0.985 . S
C210 C204 1.379 . S
C210 C207 1.363 . S
C210 N208 1.356 . S
C211 C205 1.363 . S
C211 C206 1.379 . S
C211 N209 1.356 . S
N212 C204 1.356 . S
N212 H218 0.984 . S
N212 H219 0.984 . S
N213 C206 1.356 . S
N213 H216 0.984 . S
N213 H217 0.985 . S
H214 N209 0.984 . S
H215 N209 0.985 . S
H216 N213 0.984 . S
H217 N213 0.985 . S
H218 N212 0.984 . S
H219 N212 0.984 . S
H220 N208 0.984 . S
H221 N208 0.985 . S
C222 C223 1.363 . S
C222 C228 1.379 . S
C222 N230 1.356 . S
C223 C222 1.363 . S
C223 C229 1.363 . S
C224 C225 1.363 . S
C224 C229 1.379 . S
C224 N231 1.356 1_556 S
C225 C224 1.363 . S
C225 C228 1.363 . S
N226 C228 1.356 . S
N226 H238 0.984 . S
N226 H239 0.985 . S
N227 C229 1.356 . S
N227 H232 0.984 . S
N227 H233 0.985 1_556 S
C228 C222 1.379 . S
C228 C225 1.363 . S
C228 N226 1.356 . S
C229 C223 1.363 . S
C229 C224 1.379 . S
C229 N227 1.356 . S
N230 C222 1.356 . S
N230 H236 0.984 . S
N230 H237 0.984 . S
N231 C224 1.356 1_554 S
N231 H234 0.986 . S
N231 H235 0.985 . S
H232 N227 0.984 . S
H233 N227 0.985 1_554 S
H234 N231 0.986 . S
H235 N231 0.985 . S
H236 N230 0.984 . S
H237 N230 0.984 . S
H238 N226 0.984 . S
H239 N226 0.985 . S
C240 C241 1.363 . S
C240 C246 1.379 . S
C240 N248 1.356 . S
C241 C240 1.363 . S
C241 C247 1.363 . S
C242 C243 1.363 . S
C242 C247 1.379 . S
C242 N249 1.356 . S
C243 C242 1.363 . S
C243 C246 1.363 . S
N244 C246 1.356 . S
N244 H256 0.984 . S
N244 H257 0.985 . S
N245 C247 1.356 . S
N245 H250 0.984 . S
N245 H251 0.985 . S
C246 C240 1.379 . S
C246 C243 1.363 . S
C246 N244 1.356 . S
C247 C241 1.363 . S
C247 C242 1.379 . S
C247 N245 1.356 . S
N248 C240 1.356 . S
N248 H254 0.984 1_554 S
N248 H255 0.984 . S
N249 C242 1.356 . S
N249 H252 0.984 . S
N249 H253 0.985 . S
H250 N245 0.984 . S
H251 N245 0.985 . S
H252 N249 0.984 . S
H253 N249 0.985 . S
H254 N248 0.984 1_556 S
H255 N248 0.984 . S
H256 N244 0.984 . S
H257 N244 0.985 . S
C258 C259 1.363 . S
C258 C264 1.379 . S
C258 N266 1.356 . S
C259 C258 1.363 . S
C259 C265 1.363 . S
C260 C261 1.363 . S
C260 C265 1.379 . S
C260 N267 1.356 . S
C261 C260 1.363 . S
C261 C264 1.363 . S
N262 C264 1.356 . S
N262 H274 0.984 . S
N262 H275 0.985 . S
N263 C265 1.356 . S
N263 H268 0.984 . S
N263 H269 0.985 . S
C264 C258 1.379 . S
C264 C261 1.363 . S
C264 N262 1.356 . S
C265 C259 1.363 . S
C265 C260 1.379 . S
C265 N263 1.356 . S
N266 C258 1.356 . S
N266 H272 0.984 . S
N266 H273 0.984 . S
N267 C260 1.356 . S
N267 H270 0.984 . S
N267 H271 0.985 . S
H268 N263 0.984 . S
H269 N263 0.985 . S
H270 N267 0.984 . S
H271 N267 0.985 . S
H272 N266 0.984 . S
H273 N266 0.984 . S
H274 N262 0.984 . S
H275 N262 0.985 . S
C276 C277 1.363 . S
C276 C282 1.379 . S
C276 N284 1.356 . S
C277 C276 1.363 . S
C277 C283 1.363 . S
C278 C279 1.363 . S
C278 C283 1.379 . S
C278 N285 1.356 . S
C279 C278 1.363 . S
C279 C282 1.363 . S
N280 C282 1.356 . S
N280 H292 0.984 . S
N280 H293 0.985 . S
N281 C283 1.356 . S
N281 H286 0.984 . S
N281 H287 0.985 . S
C282 C276 1.379 . S
C282 C279 1.363 . S
C282 N280 1.356 . S
C283 C277 1.363 . S
C283 C278 1.379 . S
C283 N281 1.356 . S
N284 C276 1.356 . S
N284 H290 0.984 . S
N284 H291 0.984 . S
N285 C278 1.356 . S
N285 H288 0.984 . S
N285 H289 0.985 . S
H286 N281 0.984 . S
H287 N281 0.985 . S
H288 N285 0.984 . S
H289 N285 0.985 . S
H290 N284 0.984 . S
H291 N284 0.984 . S
H292 N280 0.984 . S
H293 N280 0.985 . S
C294 C295 1.363 . S
C294 C300 1.379 . S
C294 N302 1.356 . S
C295 C294 1.363 . S
C295 C301 1.363 . S
C296 C297 1.363 . S
C296 C301 1.379 . S
C296 N303 1.356 . S
C297 C296 1.363 . S
C297 C300 1.363 . S
N298 C300 1.356 . S
N298 H310 0.984 . S
N298 H311 0.985 . S
N299 C301 1.356 . S
N299 H304 0.984 . S
N299 H305 0.985 . S
C300 C294 1.379 . S
C300 C297 1.363 . S
C300 N298 1.356 . S
C301 C295 1.363 . S
C301 C296 1.379 . S
C301 N299 1.356 . S
N302 C294 1.356 . S
N302 H308 0.984 . S
N302 H309 0.984 . S
N303 C296 1.356 . S
N303 H306 0.984 . S
N303 H307 0.985 . S
H304 N299 0.984 . S
H305 N299 0.985 . S
H306 N303 0.984 . S
H307 N303 0.985 . S
H308 N302 0.984 . S
H309 N302 0.984 . S
H310 N298 0.984 . S
H311 N298 0.985 . S
C312 C313 1.363 . S
C312 C318 1.379 . S
C312 N320 1.356 . S
C313 C312 1.363 . S
C313 C319 1.363 . S
C314 C315 1.363 . S
C314 C319 1.379 . S
C314 N321 1.356 . S
C315 C314 1.363 . S
C315 C318 1.363 . S
N316 C318 1.356 . S
N316 H328 0.984 . S
N316 H329 0.985 . S
N317 C319 1.356 . S
N317 H322 0.984 . S
N317 H323 0.985 . S
C318 C312 1.379 . S
C318 C315 1.363 . S
C318 N316 1.356 . S
C319 C313 1.363 . S
C319 C314 1.379 . S
C319 N317 1.356 . S
N320 C312 1.356 . S
N320 H326 0.984 . S
N320 H327 0.984 . S
N321 C314 1.356 . S
N321 H324 0.984 . S
N321 H325 0.985 . S
H322 N317 0.984 . S
H323 N317 0.985 . S
H324 N321 0.984 . S
H325 N321 0.985 . S
H326 N320 0.984 . S
H327 N320 0.984 . S
H328 N316 0.984 . S
H329 N316 0.985 . S
C330 C331 1.363 . S
C330 C336 1.379 . S
C330 N338 1.356 . S
C331 C330 1.363 . S
C331 C337 1.363 . S
C332 C333 1.363 . S
C332 C337 1.379 . S
C332 N339 1.356 1_554 S
C333 C332 1.363 . S
C333 C336 1.363 . S
N334 C336 1.356 . S
N334 H346 0.984 . S
N334 H347 0.985 . S
N335 C337 1.356 . S
N335 H340 0.984 . S
N335 H341 0.985 . S
C336 C330 1.379 . S
C336 C333 1.363 . S
C336 N334 1.356 . S
C337 C331 1.363 . S
C337 C332 1.379 . S
C337 N335 1.356 . S
N338 C330 1.356 . S
N338 H344 0.984 . S
N338 H345 0.984 . S
N339 C332 1.356 1_556 S
N339 H342 0.984 . S
N339 H343 0.985 . S
H340 N335 0.984 . S
H341 N335 0.985 . S
H342 N339 0.984 . S
H343 N339 0.985 . S
H344 N338 0.984 . S
H345 N338 0.984 . S
H346 N334 0.984 . S
H347 N334 0.985 . S
C348 C349 1.363 . S
C348 C354 1.379 . S
C348 N356 1.356 . S
C349 C348 1.363 . S
C349 C355 1.363 . S
C350 C351 1.363 . S
C350 C355 1.379 . S
C350 N357 1.356 . S
C351 C350 1.363 . S
C351 C354 1.363 . S
N352 C354 1.356 . S
N352 H364 0.984 . S
N352 H365 0.985 . S
N353 C355 1.356 . S
N353 H358 0.984 . S
N353 H359 0.985 . S
C354 C348 1.379 . S
C354 C351 1.363 . S
C354 N352 1.356 . S
C355 C349 1.363 . S
C355 C350 1.379 . S
C355 N353 1.356 . S
N356 C348 1.356 . S
N356 H362 0.984 . S
N356 H363 0.984 . S
N357 C350 1.356 . S
N357 H360 0.984 . S
N357 H361 0.985 . S
H358 N353 0.984 . S
H359 N353 0.985 . S
H360 N357 0.984 . S
H361 N357 0.985 . S
H362 N356 0.984 . S
H363 N356 0.984 . S
H364 N352 0.984 . S
H365 N352 0.985 . S
C366 C367 1.363 . S
C366 C372 1.379 . S
C366 N374 1.356 . S
C367 C366 1.363 . S
C367 C373 1.363 . S
C368 C369 1.363 . S
C368 C373 1.379 . S
C368 N375 1.356 . S
C369 C368 1.363 . S
C369 C372 1.363 . S
N370 C372 1.356 . S
N370 H382 0.984 . S
N370 H383 0.985 . S
N371 C373 1.356 . S
N371 H376 0.984 . S
N371 H377 0.985 . S
C372 C366 1.379 . S
C372 C369 1.363 . S
C372 N370 1.356 . S
C373 C367 1.363 . S
C373 C368 1.379 . S
C373 N371 1.356 . S
N374 C366 1.356 . S
N374 H380 0.984 . S
N374 H381 0.984 . S
N375 C368 1.356 . S
N375 H378 0.984 . S
N375 H379 0.985 . S
H376 N371 0.984 . S
H377 N371 0.985 . S
H378 N375 0.984 . S
H379 N375 0.985 . S
H380 N374 0.984 . S
H381 N374 0.984 . S
H382 N370 0.984 . S
H383 N370 0.985 . S
C384 C385 1.363 . S
C384 C390 1.379 1_655 S
C384 N392 1.356 . S
C385 C384 1.363 . S
C385 C391 1.363 . S
C386 C387 1.363 . S
C386 C391 1.379 1_455 S
C386 N393 1.356 . S
C387 C386 1.363 . S
C387 C390 1.363 . S
N388 C390 1.356 . S
N388 H400 0.984 . S
N388 H401 0.985 . S
N389 C391 1.356 . S
N389 H394 0.984 . S
N389 H395 0.985 . S
C390 C384 1.379 1_455 S
C390 C387 1.363 . S
C390 N388 1.356 . S
C391 C385 1.363 . S
C391 C386 1.379 1_655 S
C391 N389 1.356 . S
N392 C384 1.356 . S
N392 H398 0.984 . S
N392 H399 0.984 . S
N393 C386 1.356 . S
N393 H396 0.984 . S
N393 H397 0.985 . S
H394 N389 0.984 . S
H395 N389 0.985 . S
H396 N393 0.984 . S
H397 N393 0.985 . S
H398 N392 0.984 . S
H399 N392 0.984 . S
H400 N388 0.984 . S
H401 N388 0.985 . S
C402 C403 1.363 . S
C402 C408 1.379 1_565 S
C402 N410 1.356 . S
C403 C402 1.363 . S
C403 C409 1.363 . S
C404 C405 1.363 . S
C404 C409 1.379 1_545 S
C404 N411 1.356 . S
C405 C404 1.363 . S
C405 C408 1.363 . S
N406 C408 1.356 . S
N406 H418 0.984 . S
N406 H419 0.985 . S
N407 C409 1.356 . S
N407 H412 0.984 . S
N407 H413 0.985 . S
C408 C402 1.379 1_545 S
C408 C405 1.363 . S
C408 N406 1.356 . S
C409 C403 1.363 . S
C409 C404 1.379 1_565 S
C409 N407 1.356 . S
N410 C402 1.356 . S
N410 H416 0.984 . S
N410 H417 0.984 . S
N411 C404 1.356 . S
N411 H414 0.984 . S
N411 H415 0.985 . S
H412 N407 0.984 . S
H413 N407 0.985 . S
H414 N411 0.984 . S
H415 N411 0.985 . S
H416 N410 0.984 . S
H417 N410 0.984 . S
H418 N406 0.984 . S
H419 N406 0.985 . S
C420 C421 1.363 . S
C420 C426 1.379 . S
C420 N428 1.356 . S
C421 C420 1.363 . S
C421 C427 1.363 . S
C422 C423 1.363 . S
C422 C427 1.379 . S
C422 N429 1.356 . S
C423 C422 1.363 . S
C423 C426 1.363 . S
N424 C426 1.356 . S
N424 H436 0.984 . S
N424 H437 0.985 . S
N425 C427 1.356 . S
N425 H430 0.984 . S
N425 H431 0.985 . S
C426 C420 1.379 . S
C426 C423 1.363 . S
C426 N424 1.356 . S
C427 C421 1.363 . S
C427 C422 1.379 . S
C427 N425 1.356 . S
N428 C420 1.356 . S
N428 H434 0.984 . S
N428 H435 0.984 . S
N429 C422 1.356 . S
N429 H432 0.984 . S
N429 H433 0.985 . S
H430 N425 0.984 . S
H431 N425 0.985 . S
H432 N429 0.984 . S
H433 N429 0.985 . S
H434 N428 0.984 . S
H435 N428 0.984 . S
H436 N424 0.984 . S
H437 N424 0.985 . S
C438 C439 1.363 . S
C438 C444 1.379 1_455 S
C438 N446 1.356 . S
C439 C438 1.363 . S
C439 C445 1.363 . S
C440 C441 1.363 . S
C440 C445 1.379 1_655 S
C440 N447 1.356 . S
C441 C440 1.363 . S
C441 C444 1.363 . S
N442 C444 1.356 . S
N442 H454 0.984 . S
N442 H455 0.985 . S
N443 C445 1.356 . S
N443 H448 0.984 . S
N443 H449 0.985 . S
C444 C438 1.379 1_655 S
C444 C441 1.363 . S
C444 N442 1.356 . S
C445 C439 1.363 . S
C445 C440 1.379 1_455 S
C445 N443 1.356 . S
N446 C438 1.356 . S
N446 H452 0.984 . S
N446 H453 0.984 . S
N447 C440 1.356 . S
N447 H450 0.984 . S
N447 H451 0.985 . S
H448 N443 0.984 . S
H449 N443 0.985 . S
H450 N447 0.984 . S
H451 N447 0.985 . S
H452 N446 0.984 . S
H453 N446 0.984 . S
H454 N442 0.984 . S
H455 N442 0.985 . S
C456 C457 1.362 1_554 S
C456 C462 1.379 1_545 S
C456 N464 1.356 1_554 S
C457 C456 1.362 1_556 S
C457 C463 1.363 . S
C458 C459 1.362 1_556 S
C458 C463 1.380 1_565 S
C458 N465 1.356 1_556 S
C459 C458 1.362 1_554 S
C459 C462 1.363 . S
N460 C462 1.356 . S
N460 H472 0.984 . S
N460 H473 0.985 . S
N461 C463 1.356 . S
N461 H466 0.984 . S
N461 H467 0.985 . S
C462 C456 1.379 1_565 S
C462 C459 1.363 . S
C462 N460 1.356 . S
C463 C457 1.363 . S
C463 C458 1.380 1_545 S
C463 N461 1.356 . S
N464 C456 1.356 1_556 S
N464 H470 0.984 1_556 S
N464 H471 0.984 . S
N465 C458 1.356 1_554 S
N465 H468 0.984 . S
N465 H469 0.985 1_554 S
H466 N461 0.984 . S
H467 N461 0.985 . S
H468 N465 0.984 . S
H469 N465 0.985 1_556 S
H470 N464 0.984 1_554 S
H471 N464 0.984 . S
H472 N460 0.984 . S
H473 N460 0.985 . S
C474 C475 1.363 . S
C474 C480 1.379 . S
C474 N482 1.356 . S
C475 C474 1.363 . S
C475 C481 1.363 . S
C476 C477 1.363 . S
C476 C481 1.379 . S
C476 N483 1.356 . S
C477 C476 1.363 . S
C477 C480 1.363 . S
N478 C480 1.356 . S
N478 H490 0.984 . S
N478 H491 0.985 . S
N479 C481 1.356 . S
N479 H484 0.984 . S
N479 H485 0.985 . S
C480 C474 1.379 . S
C480 C477 1.363 . S
C480 N478 1.356 . S
C481 C475 1.363 . S
C481 C476 1.379 . S
C481 N479 1.356 . S
N482 C474 1.356 . S
N482 H488 0.984 . S
N482 H489 0.984 . S
N483 C476 1.356 . S
N483 H486 0.984 . S
N483 H487 0.985 . S
H484 N479 0.984 . S
H485 N479 0.985 . S
H486 N483 0.984 . S
H487 N483 0.985 . S
H488 N482 0.984 . S
H489 N482 0.984 . S
H490 N478 0.984 . S
H491 N478 0.985 . S
C492 C493 1.363 . S
C492 C498 1.379 . S
C492 N500 1.356 . S
C493 C492 1.363 . S
C493 C499 1.363 . S
C494 C495 1.363 . S
C494 C499 1.379 . S
C494 N501 1.356 . S
C495 C494 1.363 . S
C495 C498 1.363 . S
N496 C498 1.356 . S
N496 H508 0.984 . S
N496 H509 0.985 . S
N497 C499 1.356 . S
N497 H502 0.984 . S
N497 H503 0.985 . S
C498 C492 1.379 . S
C498 C495 1.363 . S
C498 N496 1.356 . S
C499 C493 1.363 . S
C499 C494 1.379 . S
C499 N497 1.356 . S
N500 C492 1.356 . S
N500 H506 0.984 . S
N500 H507 0.984 . S
N501 C494 1.356 . S
N501 H504 0.984 . S
N501 H505 0.985 . S
H502 N497 0.984 . S
H503 N497 0.985 . S
H504 N501 0.984 . S
H505 N501 0.985 . S
H506 N500 0.984 . S
H507 N500 0.984 . S
H508 N496 0.984 . S
H509 N496 0.985 . S
C510 C511 1.363 . S
C510 C516 1.379 . S
C510 N518 1.356 . S
C511 C510 1.363 . S
C511 C517 1.363 . S
C512 C513 1.363 . S
C512 C517 1.379 . S
C512 N519 1.356 . S
C513 C512 1.363 . S
C513 C516 1.363 . S
N514 C516 1.356 . S
N514 H526 0.984 . S
N514 H527 0.985 . S
N515 C517 1.356 . S
N515 H520 0.984 . S
N515 H521 0.985 . S
C516 C510 1.379 . S
C516 C513 1.363 . S
C516 N514 1.356 . S
C517 C511 1.363 . S
C517 C512 1.379 . S
C517 N515 1.356 . S
N518 C510 1.356 . S
N518 H524 0.984 . S
N518 H525 0.984 . S
N519 C512 1.356 . S
N519 H522 0.984 . S
N519 H523 0.985 . S
H520 N515 0.984 . S
H521 N515 0.985 . S
H522 N519 0.984 . S
H523 N519 0.985 . S
H524 N518 0.984 . S
H525 N518 0.984 . S
H526 N514 0.984 . S
H527 N514 0.985 . S
C528 C529 1.363 . S
C528 C534 1.379 . S
C528 N536 1.356 . S
C529 C528 1.363 . S
C529 C535 1.363 . S
C530 C531 1.363 . S
C530 C535 1.379 . S
C530 N537 1.356 . S
C531 C530 1.363 . S
C531 C534 1.363 . S
N532 C534 1.356 . S
N532 H544 0.984 . S
N532 H545 0.985 . S
N533 C535 1.356 . S
N533 H538 0.984 . S
N533 H539 0.985 . S
C534 C528 1.379 . S
C534 C531 1.363 . S
C534 N532 1.356 . S
C535 C529 1.363 . S
C535 C530 1.379 . S
C535 N533 1.356 . S
N536 C528 1.356 . S
N536 H542 0.984 . S
N536 H543 0.984 . S
N537 C530 1.356 . S
N537 H540 0.984 . S
N537 H541 0.985 . S
H538 N533 0.984 . S
H539 N533 0.985 . S
H540 N537 0.984 . S
H541 N537 0.985 . S
H542 N536 0.984 . S
H543 N536 0.984 . S
H544 N532 0.984 . S
H545 N532 0.985 . S
C546 C547 1.363 . S
C546 C552 1.379 . S
C546 N554 1.356 . S
C547 C546 1.363 . S
C547 C553 1.363 . S
C548 C549 1.363 . S
C548 C553 1.379 . S
C548 N555 1.356 . S
C549 C548 1.363 . S
C549 C552 1.363 . S
N550 C552 1.356 . S
N550 H562 0.984 . S
N550 H563 0.985 . S
N551 C553 1.356 . S
N551 H556 0.984 . S
N551 H557 0.985 . S
C552 C546 1.379 . S
C552 C549 1.363 . S
C552 N550 1.356 . S
C553 C547 1.363 . S
C553 C548 1.379 . S
C553 N551 1.356 . S
N554 C546 1.356 . S
N554 H560 0.984 . S
N554 H561 0.984 . S
N555 C548 1.356 . S
N555 H558 0.984 . S
N555 H559 0.985 . S
H556 N551 0.984 . S
H557 N551 0.985 . S
H558 N555 0.984 . S
H559 N555 0.985 . S
H560 N554 0.984 . S
H561 N554 0.984 . S
H562 N550 0.984 . S
H563 N550 0.985 . S
C564 C565 1.363 . S
C564 C570 1.379 . S
C564 N572 1.356 . S
C565 C564 1.363 . S
C565 C571 1.363 . S
C566 C567 1.363 . S
C566 C571 1.379 . S
C566 N573 1.356 . S
C567 C566 1.363 . S
C567 C570 1.363 . S
N568 C570 1.356 . S
N568 H580 0.984 . S
N568 H581 0.985 . S
N569 C571 1.356 . S
N569 H574 0.984 1_556 S
N569 H575 0.985 . S
C570 C564 1.379 . S
C570 C567 1.363 . S
C570 N568 1.356 . S
C571 C565 1.363 . S
C571 C566 1.379 . S
C571 N569 1.356 . S
N572 C564 1.356 . S
N572 H578 0.984 . S
N572 H579 0.984 . S
N573 C566 1.356 . S
N573 H576 0.984 . S
N573 H577 0.985 . S
H574 N569 0.984 1_554 S
H575 N569 0.985 . S
H576 N573 0.984 . S
H577 N573 0.985 . S
H578 N572 0.984 . S
H579 N572 0.984 . S
H580 N568 0.984 . S
H581 N568 0.985 . S
C582 C583 1.363 . S
C582 C588 1.379 . S
C582 N590 1.356 . S
C583 C582 1.363 . S
C583 C589 1.363 . S
C584 C585 1.363 . S
C584 C589 1.379 . S
C584 N591 1.356 1_554 S
C585 C584 1.363 . S
C585 C588 1.363 . S
N586 C588 1.356 . S
N586 H598 0.984 . S
N586 H599 0.985 . S
N587 C589 1.356 . S
N587 H592 0.984 . S
N587 H593 0.985 . S
C588 C582 1.379 . S
C588 C585 1.363 . S
C588 N586 1.356 . S
C589 C583 1.363 . S
C589 C584 1.379 . S
C589 N587 1.356 . S
N590 C582 1.356 . S
N590 H596 0.984 . S
N590 H597 0.984 . S
N591 C584 1.356 1_556 S
N591 H594 0.984 . S
N591 H595 0.985 . S
H592 N587 0.984 . S
H593 N587 0.985 . S
H594 N591 0.984 . S
H595 N591 0.985 . S
H596 N590 0.984 . S
H597 N590 0.984 . S
H598 N586 0.984 . S
H599 N586 0.985 . S
C169 C5 0.989 . S
C171 C89 0.989 . S
C187 C19 0.989 . S
C189 C103 0.989 . S
C205 C117 0.989 . S
C207 C33 0.989 . S
C223 C47 0.989 . S
C225 C131 0.989 . S
C241 C61 0.989 . S
C243 C145 0.989 . S
C259 C159 0.989 . S
C261 C75 0.989 . S
C277 C121 1.608 . S
C279 C9 1.608 . S
C295 C23 1.608 . S
C297 C135 1.608 . S
C313 C149 1.608 1_556 S
C315 C37 1.608 . S
C331 C163 1.608 . S
C333 C51 1.608 1_554 S
C349 C65 1.608 . S
C351 C93 1.608 . S
C367 C79 1.608 . S
C369 C107 1.608 . S
C385 C165 1.392 . S
C387 C11 1.392 . S
C403 C95 1.392 . S
C405 C25 1.392 . S
C421 C39 1.392 . S
C423 C109 1.392 . S
C439 C123 1.392 . S
C441 C53 1.392 . S
C457 C137 1.392 . S
C459 C67 1.392 . S
C475 C151 1.392 . S
C477 C81 1.392 . S
C493 C0 1.587 . S
C495 C140 1.587 . S
C511 C154 1.587 . S
C513 C14 1.587 . S
C529 C28 1.587 . S
C531 C84 1.587 . S
C547 C42 1.587 . S
C549 C98 1.587 . S
C565 C56 1.587 1_556 S
C567 C112 1.587 . S
C583 C70 1.587 . S
C585 C126 1.587 1_554 S
