# Generated by pormake.
# Topology umx, (4)-cn, num edge types: 1
# Building blocks:
#     Node 0, Type 0, BuildingBlock: ESEHIV_clean_sbu_0, # of connection points: 4
#     Node 1, Type 0, BuildingBlock: ESEHIV_clean_sbu_0, # of connection points: 4
#     Node 2, Type 0, BuildingBlock: ESEHIV_clean_sbu_0, # of connection points: 4
#     Node 3, Type 0, BuildingBlock: ESEHIV_clean_sbu_0, # of connection points: 4
#     Node 4, Type 0, BuildingBlock: ESEHIV_clean_sbu_0, # of connection points: 4
#     Node 5, Type 0, BuildingBlock: ESEHIV_clean_sbu_0, # of connection points: 4
#     Node 6, Type 0, BuildingBlock: ESEHIV_clean_sbu_0, # of connection points: 4
#     Node 7, Type 0, BuildingBlock: ESEHIV_clean_sbu_0, # of connection points: 4
#     Edge 8, Type (0, 0), BuildingBlock: TEMPAE_clean_linker_10, # of connection points: 2
#     Edge 9, Type (0, 0), BuildingBlock: TEMPAE_clean_linker_10, # of connection points: 2
#     Edge 10, Type (0, 0), BuildingBlock: TEMPAE_clean_linker_10, # of connection points: 2
#     Edge 11, Type (0, 0), BuildingBlock: TEMPAE_clean_linker_10, # of connection points: 2
#     Edge 12, Type (0, 0), BuildingBlock: TEMPAE_clean_linker_10, # of connection points: 2
#     Edge 13, Type (0, 0), BuildingBlock: TEMPAE_clean_linker_10, # of connection points: 2
#     Edge 14, Type (0, 0), BuildingBlock: TEMPAE_clean_linker_10, # of connection points: 2
#     Edge 15, Type (0, 0), BuildingBlock: TEMPAE_clean_linker_10, # of connection points: 2
#     Edge 16, Type (0, 0), BuildingBlock: TEMPAE_clean_linker_10, # of connection points: 2
#     Edge 17, Type (0, 0), BuildingBlock: TEMPAE_clean_linker_10, # of connection points: 2
#     Edge 18, Type (0, 0), BuildingBlock: TEMPAE_clean_linker_10, # of connection points: 2
#     Edge 19, Type (0, 0), BuildingBlock: TEMPAE_clean_linker_10, # of connection points: 2
#     Edge 20, Type (0, 0), BuildingBlock: TEMPAE_clean_linker_10, # of connection points: 2
#     Edge 21, Type (0, 0), BuildingBlock: TEMPAE_clean_linker_10, # of connection points: 2
#     Edge 22, Type (0, 0), BuildingBlock: TEMPAE_clean_linker_10, # of connection points: 2
#     Edge 23, Type (0, 0), BuildingBlock: TEMPAE_clean_linker_10, # of connection points: 2
# Relax obj value: 0.114
# Max RMSD: 0.185
# Mean RMSD: 0.174
data_MOF--net-umx--node1-ESEHIV_clean_sbu_0--edge1-TEMPAE_clean_linker_10
_symmetry_space_group_name_H-M    P1
_symmetry_Int_Tables_number       1
_symmetry_cell_setting            triclinic
loop_
_symmetry_equiv_pos_as_xyz
'x, y, z'
_cell_length_a     39.460698
_cell_length_b     46.133446
_cell_length_c     30.855819
_cell_angle_alpha  89.559044
_cell_angle_beta   90.205204
_cell_angle_gamma 89.616571
loop_
_atom_site_label
_atom_site_type_symbol
_atom_site_fract_x
_atom_site_fract_y
_atom_site_fract_z
_atom_type_partial_charge
Cu0 Cu 0.14267 0.39036 0.05815 0.0
N1 N 0.15913 0.42293 1.02941 0.0
N2 N 0.17762 0.45113 0.97556 0.0
C3 C 0.17532 0.42378 0.99106 0.0
C4 C 0.16241 0.46809 1.00519 0.0
C5 C 0.15111 0.45063 1.03845 0.0
O6 O 0.16416 0.35632 1.033 0.0
C7 C 0.07227 0.391 0.08221 0.0
O8 O 0.08258 0.38143 0.12027 0.0
H9 H 0.18289 0.40465 0.97334 0.0
H10 H 0.13614 0.45742 0.06588 0.0
N11 N 0.15576 0.39218 0.1164 0.0
N12 N 0.16454 0.40774 0.18386 0.0
C13 C 0.15001 0.41359 0.14502 0.0
C14 C 0.17489 0.37245 0.13781 0.0
C15 C 0.18016 0.38187 0.17937 0.0
C16 C 0.16065 0.33076 0.04807 0.0
O17 O 0.13714 0.32599 0.07729 0.0
H18 H 0.1356 0.43303 0.13751 0.0
H19 H 0.18527 0.35291 0.12396 0.0
O20 O 0.09357 0.393 0.05142 0.0
H21 H 0.1584 0.49125 1.00198 0.0
H22 H 0.19548 0.37107 0.20388 0.0
Cu23 Cu 0.55398 0.19522 0.55619 0.0
N24 N 0.57826 0.16022 0.55671 0.0
N25 N 0.58281 0.11186 0.55697 0.0
C26 C 0.56313 0.135 0.54721 0.0
C27 C 0.61174 0.12294 0.57321 0.0
C28 C 0.60895 0.1529 0.57275 0.0
O29 O 0.5286 0.19492 0.61245 0.0
C30 C 0.54874 0.19148 0.46569 0.0
O31 O 0.58134 0.18758 0.47256 0.0
H32 H 0.53709 0.13364 0.53627 0.0
H33 H 0.62715 0.16806 0.58556 0.0
N34 N 0.58015 0.22901 0.55773 0.0
N35 N 0.61916 0.26405 0.55497 0.0
C36 C 0.61338 0.23514 0.55206 0.0
C37 C 0.56494 0.25467 0.56478 0.0
C38 C 0.58868 0.27616 0.56315 0.0
C39 C 0.5476 0.19363 0.64641 0.0
O40 O 0.58057 0.19372 0.64073 0.0
H41 H 0.63263 0.21903 0.54513 0.0
H42 H 0.5381 0.25748 0.57056 0.0
O43 O 0.52976 0.19591 0.49886 0.0
H44 H 0.6328 0.11032 0.58594 0.0
H45 H 0.5839 0.29904 0.56803 0.0
Cu46 Cu 0.86021 0.596 0.07492 0.0
N47 N 0.88197 0.60985 1.02543 0.0
N48 N 0.89457 0.60868 0.95508 0.0
C49 C 0.88129 0.59428 0.98894 0.0
C50 C 0.90413 0.63462 0.97074 0.0
C51 C 0.89673 0.63515 1.01464 0.0
O52 O 0.81174 0.60523 0.06976 0.0
C53 C 0.90542 0.552 0.08163 0.0
O54 O 0.92381 0.5756 0.08391 0.0
H55 H 0.8693 0.57329 0.98677 0.0
H56 H 0.90025 0.65313 1.03645 0.0
N57 N 0.8743 0.61169 0.12743 0.0
N58 N 0.87506 0.61038 0.19997 0.0
C59 C 0.87578 0.5949 0.1631 0.0
C60 C 0.8734 0.63912 0.14191 0.0
C61 C 0.87413 0.63839 0.18679 0.0
C62 C 0.80481 0.63134 0.05859 0.0
O63 O 0.82986 0.64902 0.05012 0.0
H64 H 0.87449 0.57154 0.16171 0.0
H65 H 0.86921 0.65808 0.12172 0.0
O66 O 0.87335 0.55493 0.07737 0.0
H67 H 0.91474 0.65211 0.95166 0.0
H68 H 0.87101 0.65686 0.20785 0.0
Cu69 Cu 0.44241 0.83672 0.57229 0.0
N70 N 0.44279 0.87745 0.56858 0.0
N71 N 0.46111 0.92328 0.56765 0.0
C72 C 0.46996 0.89499 0.57138 0.0
C73 C 0.4272 0.92347 0.56194 0.0
C74 C 0.41604 0.89528 0.56229 0.0
O75 O 0.46422 0.82534 0.62886 0.0
C76 C 0.44435 0.83268 0.48176 0.0
O77 O 0.41776 0.84933 0.48838 0.0
H78 H 0.49559 0.88718 0.57653 0.0
H79 H 0.39021 0.8883 0.55762 0.0
N80 N 0.39772 0.82352 0.57722 0.0
N81 N 0.35327 0.79346 0.57725 0.0
C82 C 0.38549 0.79786 0.56376 0.0
C83 C 0.37251 0.83569 0.60015 0.0
C84 C 0.34513 0.81738 0.60006 0.0
C85 C 0.45528 0.84015 0.66216 0.0
O86 O 0.43467 0.86226 0.65599 0.0
H87 H 0.40032 0.78252 0.54533 0.0
H88 H 0.3743 0.85594 0.61735 0.0
O89 O 0.46032 0.82286 0.51526 0.0
H90 H 0.41166 0.94264 0.55693 0.0
H91 H 0.32166 0.82091 0.6173 0.0
Cu92 Cu 0.20266 0.5526 0.56821 0.0
N93 N 0.22455 0.52865 0.60836 0.0
N94 N 0.23446 0.50565 0.67096 0.0
C95 C 0.22123 0.52953 0.65174 0.0
C96 C 0.24653 0.48911 0.63861 0.0
C97 C 0.24054 0.50346 0.59995 0.0
O98 O 0.21521 0.59276 0.5786 0.0
C99 C 0.13109 0.5528 0.54884 0.0
O100 O 0.13796 0.57113 0.51734 0.0
H101 H 0.20695 0.54611 0.66852 0.0
H102 H 0.24538 0.49523 0.56782 0.0
N103 N 0.21692 0.54217 0.513 0.0
N104 N 0.21748 0.524 0.44617 0.0
C105 C 0.19959 0.52718 0.4831 0.0
C106 C 0.24683 0.54857 0.49467 0.0
C107 C 0.24725 0.53744 0.45341 0.0
C108 C 0.2151 0.61148 0.54801 0.0
O109 O 0.20275 0.60428 0.51002 0.0
H110 H 0.17457 0.51847 0.48861 0.0
H111 H 0.26675 0.56076 0.51017 0.0
O112 O 0.15469 0.54433 0.5742 0.0
H113 H 0.2573 0.4676 0.64255 0.0
H114 H 0.26772 0.5395 0.43036 0.0
Cu115 Cu 0.46963 0.18059 0.05579 0.0
N116 N 0.45482 0.14194 0.05579 0.0
N117 N 0.45935 0.09348 0.05806 0.0
C118 C 0.47536 0.119 0.06363 0.0
C119 C 0.42738 0.10072 0.04636 0.0
C120 C 0.42467 0.13055 0.04493 0.0
O121 O 0.49372 0.18631 0.99926 0.0
C122 C 0.47664 0.1784 0.14632 0.0
O123 O 0.44608 0.168 0.14027 0.0
H124 H 0.50195 0.12109 0.07163 0.0
H125 H 0.40257 0.14284 1.03506 0.0
N126 N 0.43486 0.20859 0.05577 0.0
N127 N 0.3866 0.23444 0.05628 0.0
C128 C 0.40058 0.20754 0.05535 0.0
C129 C 0.44242 0.23695 0.05683 0.0
C130 C 0.41295 0.25287 0.05717 0.0
C131 C 0.47644 0.17996 0.96522 0.0
O132 O 0.44532 0.17073 0.9706 0.0
H133 H 0.38612 0.18777 0.05524 0.0
H134 H 0.46791 0.24543 0.05729 0.0
O135 O 0.49366 0.18587 0.11259 0.0
H136 H 0.40739 0.0856 1.03888 0.0
H137 H 0.41105 0.27629 0.05742 0.0
Cu138 Cu 0.83161 0.46166 0.58279 0.0
N139 N 0.81714 0.48369 0.6294 0.0
N140 N 0.81935 0.5137 0.68579 0.0
C141 C 0.83733 0.49775 0.65733 0.0
C142 C 0.78651 0.50936 0.67522 0.0
C143 C 0.78526 0.49091 0.64028 0.0
O144 O 0.81108 0.4233 0.58641 0.0
C145 C 0.90066 0.45835 0.55349 0.0
O146 O 0.88844 0.44865 0.51673 0.0
H147 H 0.86469 0.49622 0.65668 0.0
H148 H 0.76278 0.48371 0.62344 0.0
N149 N 0.8171 0.48095 0.53287 0.0
N150 N 0.81633 0.51115 0.47606 0.0
C151 C 0.83493 0.49998 0.50901 0.0
C152 C 0.78608 0.48019 0.51474 0.0
C153 C 0.78553 0.49879 0.47956 0.0
C154 C 0.80939 0.40602 0.55446 0.0
O155 O 0.82436 0.41313 0.51798 0.0
H156 H 0.86087 0.50586 0.51603 0.0
H157 H 0.76536 0.46707 0.52643 0.0
O158 O 0.88079 0.46234 0.58529 0.0
H159 H 0.76492 0.51927 0.69092 0.0
H160 H 0.76437 0.50249 0.45775 0.0
Cu161 Cu 0.51706 0.8071 0.07303 0.0
N162 N 0.54233 0.8413 0.07351 0.0
N163 N 0.54871 0.8895 0.0742 0.0
C164 C 0.52758 0.86711 0.08126 0.0
C165 C 0.57819 0.87721 0.0615 0.0
C166 C 0.5742 0.84741 0.06117 0.0
O167 O 0.49329 0.8084 1.01546 0.0
C168 C 0.51161 0.81002 0.16284 0.0
O169 O 0.54442 0.81141 0.15611 0.0
H170 H 0.50104 0.86941 0.08943 0.0
H171 H 0.59268 0.83158 0.05068 0.0
N172 N 0.54212 0.77233 0.07292 0.0
N173 N 0.58103 0.73682 0.07015 0.0
C174 C 0.57557 0.76573 0.07438 0.0
C175 C 0.5263 0.74681 0.0682 0.0
C176 C 0.55003 0.725 0.06641 0.0
C177 C 0.5137 0.80769 0.98304 0.0
O178 O 0.54622 0.80511 0.99158 0.0
H179 H 0.59543 0.78165 0.07718 0.0
H180 H 0.49913 0.74439 0.06547 0.0
O181 O 0.49219 0.80742 0.12953 0.0
H182 H 0.60071 0.88889 0.05203 0.0
H183 H 0.54487 0.70215 0.06255 0.0
C184 C 0.1681 0.41349 0.26292 0.0
C185 C 0.16603 0.42599 0.22145 0.0
C186 C 0.17345 0.43056 0.29964 0.0
C187 C 0.17698 0.46091 0.29473 0.0
C188 C 0.17338 0.47385 0.25317 0.0
C189 C 0.16782 0.4562 0.21696 0.0
C190 C 0.17672 0.41597 0.34346 0.0
C191 C 0.17706 0.50613 0.24665 0.0
C192 C 0.17269 0.50615 0.39702 0.0
C193 C 0.20717 0.5091 0.4074 0.0
C194 C 0.1624 0.49102 0.35996 0.0
C195 C 0.18718 0.47863 0.33259 0.0
C196 C 0.22199 0.48197 0.34245 0.0
C197 C 0.23154 0.49709 0.37973 0.0
C198 C 0.12505 0.48794 0.35043 0.0
C199 C 0.24921 0.469 0.31409 0.0
H200 H 0.16612 0.39018 0.26652 0.0
H201 H 0.16646 0.46591 0.18493 0.0
H202 H 0.20301 0.41833 0.35575 0.0
H203 H 0.15962 0.42649 0.36715 0.0
H204 H 0.17068 0.3925 0.3422 0.0
H205 H 0.17032 0.51309 0.21315 0.0
H206 H 0.16078 0.51808 0.26979 0.0
H207 H 0.20366 0.51245 0.25323 0.0
H208 H 0.1537 0.51576 0.41777 0.0
H209 H 0.25817 0.49892 0.3877 0.0
H210 H 0.11802 0.4647 0.35126 0.0
H211 H 0.11922 0.49623 0.31738 0.0
H212 H 0.10902 0.49977 0.37406 0.0
H213 H 0.24696 0.44504 0.31406 0.0
H214 H 0.27512 0.47469 0.32518 0.0
H215 H 0.24593 0.47662 0.28014 0.0
C216 C 0.55529 0.17667 0.72322 0.0
C217 C 0.53479 0.19095 0.69218 0.0
C218 C 0.5465 0.17538 0.76746 0.0
C219 C 0.51658 0.18925 0.78214 0.0
C220 C 0.49556 0.20369 0.75101 0.0
C221 C 0.50468 0.20412 0.70645 0.0
C222 C 0.56936 0.15895 0.79853 0.0
C223 C 0.46366 0.21912 0.76495 0.0
C224 C 0.47754 0.16211 0.88869 0.0
C225 C 0.48966 0.18182 0.91961 0.0
C226 C 0.4861 0.16429 0.84443 0.0
C227 C 0.50681 0.18728 0.82962 0.0
C228 C 0.5193 0.20731 0.86066 0.0
C229 C 0.51093 0.20418 0.90522 0.0
C230 C 0.47294 0.14177 0.81347 0.0
C231 C 0.54105 0.23241 0.8466 0.0
H232 H 0.57856 0.16626 0.71282 0.0
H233 H 0.48884 0.21554 0.6831 0.0
H234 H 0.57879 0.17369 0.82404 0.0
H235 H 0.55489 0.14153 0.81499 0.0
H236 H 0.5915 0.149 0.78205 0.0
H237 H 0.45053 0.2301 0.73741 0.0
H238 H 0.44597 0.20345 0.78002 0.0
H239 H 0.46984 0.23551 0.78985 0.0
H240 H 0.46112 0.14469 0.89924 0.0
H241 H 0.52003 0.21982 0.92849 0.0
H242 H 0.49446 0.13094 0.79696 0.0
H243 H 0.45711 0.1523 0.788 0.0
H244 H 0.45756 0.12497 0.83005 0.0
H245 H 0.56466 0.22424 0.83144 0.0
H246 H 0.54794 0.24664 0.8741 0.0
H247 H 0.52741 0.24557 0.82174 0.0
C248 C 0.86103 0.52913 0.42735 0.0
C249 C 0.82759 0.53061 0.44244 0.0
C250 C 0.87131 0.54554 0.39129 0.0
C251 C 0.84763 0.56404 0.37011 0.0
C252 C 0.8145 0.56708 0.38707 0.0
C253 C 0.80481 0.55015 0.42285 0.0
C254 C 0.90675 0.5414 0.37402 0.0
C255 C 0.78862 0.58688 0.36584 0.0
C256 C 0.87707 0.61503 0.28008 0.0
C257 C 0.86907 0.59894 0.24302 0.0
C258 C 0.87038 0.60406 0.3219 0.0
C259 C 0.85559 0.57633 0.32665 0.0
C260 C 0.84765 0.55999 0.28945 0.0
C261 C 0.85416 0.57156 0.24834 0.0
C262 C 0.87888 0.62216 0.36094 0.0
C263 C 0.83188 0.53028 0.29295 0.0
H264 H 0.87869 0.51396 0.44225 0.0
H265 H 0.77916 0.55175 0.43502 0.0
H266 H 0.90565 0.52869 0.34365 0.0
H267 H 0.91837 0.56259 0.36603 0.0
H268 H 0.92341 0.52968 0.39748 0.0
H269 H 0.76593 0.59009 0.38652 0.0
H270 H 0.79986 0.60833 0.3585 0.0
H271 H 0.78031 0.57739 0.33465 0.0
H272 H 0.88863 0.63612 0.27638 0.0
H273 H 0.84674 0.55915 0.22035 0.0
H274 H 0.89669 0.61014 0.38251 0.0
H275 H 0.85558 0.62646 0.37992 0.0
H276 H 0.89046 0.64321 0.35181 0.0
H277 H 0.84799 0.51584 0.3134 0.0
H278 H 0.82844 0.51994 0.26085 0.0
H279 H 0.80676 0.53193 0.30881 0.0
C280 C 0.5283 0.81576 0.90468 0.0
C281 C 0.50313 0.81068 0.93612 0.0
C282 C 0.52062 0.81864 0.86022 0.0
C283 C 0.48672 0.81613 0.84564 0.0
C284 C 0.46104 0.81064 0.87695 0.0
C285 C 0.46945 0.80818 0.92172 0.0
C286 C 0.54896 0.82508 0.82885 0.0
C287 C 0.42458 0.80754 0.86311 0.0
C288 C 0.46449 0.8554 0.73916 0.0
C289 C 0.46587 0.83325 0.70806 0.0
C290 C 0.47077 0.85002 0.78352 0.0
C291 C 0.47832 0.82152 0.79822 0.0
C292 C 0.47995 0.79893 0.76706 0.0
C293 C 0.47396 0.80506 0.72244 0.0
C294 C 0.46951 0.87508 0.81471 0.0
C295 C 0.48766 0.76819 0.78099 0.0
H296 H 0.55447 0.81793 0.91484 0.0
H297 H 0.44973 0.80411 0.94529 0.0
H298 H 0.54961 0.80857 0.80292 0.0
H299 H 0.54443 0.84643 0.81299 0.0
H300 H 0.57416 0.82548 0.84497 0.0
H301 H 0.40788 0.80144 0.89057 0.0
H302 H 0.41525 0.82829 0.84893 0.0
H303 H 0.4225 0.79084 0.83756 0.0
H304 H 0.45836 0.87732 0.72876 0.0
H305 H 0.47465 0.78765 0.69907 0.0
H306 H 0.49446 0.87744 0.83096 0.0
H307 H 0.45053 0.87081 0.84036 0.0
H308 H 0.46294 0.89591 0.79837 0.0
H309 H 0.51313 0.76699 0.79624 0.0
H310 H 0.48691 0.75287 0.75341 0.0
H311 H 0.46908 0.76109 0.80575 0.0
C312 C 0.86558 0.54244 0.71828 0.0
C313 C 0.83259 0.53126 0.72042 0.0
C314 C 0.87947 0.55804 0.75292 0.0
C315 C 0.85988 0.56264 0.79057 0.0
C316 C 0.82618 0.55231 0.79234 0.0
C317 C 0.813 0.53673 0.75732 0.0
C318 C 0.91542 0.56882 0.74974 0.0
C319 C 0.80442 0.55673 0.83196 0.0
C320 C 0.89877 0.56964 0.90205 0.0
C321 C 0.89299 0.59898 0.91097 0.0
C322 C 0.89012 0.55792 0.86182 0.0
C323 C 0.87518 0.57602 0.82971 0.0
C324 C 0.87163 0.60615 0.83737 0.0
C325 C 0.8807 0.61733 0.87805 0.0
C326 C 0.89472 0.52575 0.85493 0.0
C327 C 0.85597 0.62616 0.80387 0.0
H328 H 0.88071 0.5389 0.68959 0.0
H329 H 0.78765 0.52802 0.75952 0.0
H330 H 0.91644 0.59224 0.75745 0.0
H331 H 0.93157 0.55726 0.77388 0.0
H332 H 0.92637 0.56544 0.71702 0.0
H333 H 0.77806 0.54909 0.82706 0.0
H334 H 0.81562 0.54476 0.85993 0.0
H335 H 0.80359 0.58002 0.84062 0.0
H336 H 0.90856 0.55558 0.92752 0.0
H337 H 0.87599 0.63997 0.88511 0.0
H338 H 0.90733 0.52161 0.82349 0.0
H339 H 0.86954 0.5152 0.85385 0.0
H340 H 0.90995 0.51536 0.8812 0.0
H341 H 0.86686 0.62203 0.77139 0.0
H342 H 0.85971 0.64934 0.81204 0.0
H343 H 0.82835 0.62201 0.80178 0.0
C344 C 0.46889 0.80028 0.22354 0.0
C345 C 0.4993 0.81254 0.20886 0.0
C346 C 0.45972 0.80119 0.26806 0.0
C347 C 0.48102 0.8152 0.29873 0.0
C348 C 0.51139 0.82796 0.28369 0.0
C349 C 0.52017 0.82625 0.23953 0.0
C350 C 0.42732 0.78696 0.28239 0.0
C351 C 0.53462 0.84387 0.31426 0.0
C352 C 0.44332 0.8466 0.40289 0.0
C353 C 0.45491 0.82739 0.43553 0.0
C354 C 0.45119 0.84261 0.35879 0.0
C355 C 0.47087 0.8184 0.34587 0.0
C356 C 0.48252 0.79867 0.37851 0.0
C357 C 0.47473 0.80352 0.42286 0.0
C358 C 0.43887 0.86479 0.32599 0.0
C359 C 0.5032 0.77236 0.3665 0.0
H360 H 0.45269 0.78936 0.20051 0.0
H361 H 0.54366 0.83601 0.22888 0.0
H362 H 0.43279 0.77096 0.30859 0.0
H363 H 0.40981 0.80345 0.29593 0.0
H364 H 0.41429 0.77576 0.25537 0.0
H365 H 0.55745 0.85246 0.2977 0.0
H366 H 0.52079 0.86226 0.32919 0.0
H367 H 0.54297 0.82921 0.34094 0.0
H368 H 0.42818 0.86528 0.41188 0.0
H369 H 0.48363 0.78836 0.44743 0.0
H370 H 0.42342 0.85416 0.30065 0.0
H371 H 0.46085 0.8749 0.30956 0.0
H372 H 0.42338 0.88221 0.34099 0.0
H373 H 0.48954 0.7596 0.34167 0.0
H374 H 0.50867 0.75814 0.39492 0.0
H375 H 0.52758 0.7792 0.352 0.0
C376 C 0.16772 0.47792 0.90755 0.0
C377 C 0.18835 0.45969 0.93294 0.0
C378 C 0.17683 0.48531 0.86501 0.0
C379 C 0.20784 0.47488 0.84796 0.0
C380 C 0.22922 0.45705 0.87398 0.0
C381 C 0.21889 0.44925 0.916 0.0
C382 C 0.15283 0.50365 0.83796 0.0
C383 C 0.26288 0.44619 0.85739 0.0
C384 C 0.2149 0.4706 0.72548 0.0
C385 C 0.23009 0.49712 0.7154 0.0
C386 C 0.20782 0.46294 0.76857 0.0
C387 C 0.21716 0.48192 0.8024 0.0
C388 C 0.23371 0.50829 0.79235 0.0
C389 C 0.23941 0.51582 0.74879 0.0
C390 C 0.18917 0.43509 0.77774 0.0
C391 C 0.24495 0.52868 0.82753 0.0
H392 H 0.14387 0.4856 0.92062 0.0
H393 H 0.23479 0.43525 0.93593 0.0
H394 H 0.1656 0.52375 0.82709 0.0
H395 H 0.14531 0.49164 0.80846 0.0
H396 H 0.12955 0.50975 0.85598 0.0
H397 H 0.27745 0.43409 0.88262 0.0
H398 H 0.25883 0.43169 0.82936 0.0
H399 H 0.27835 0.46468 0.84581 0.0
H400 H 0.20735 0.45643 0.69937 0.0
H401 H 0.25124 0.53628 0.74065 0.0
H402 H 0.16461 0.44002 0.79358 0.0
H403 H 0.20402 0.42124 0.80049 0.0
H404 H 0.18413 0.42257 0.74782 0.0
H405 H 0.22248 0.53772 0.84433 0.0
H406 H 0.26014 0.54696 0.81454 0.0
H407 H 0.26031 0.51678 0.85214 0.0
C408 C 0.50738 0.205 0.40446 0.0
C409 C 0.536 0.1897 0.41965 0.0
C410 C 0.49814 0.2048 0.35985 0.0
C411 C 0.51746 0.18846 0.32956 0.0
C412 C 0.5459 0.17257 0.34515 0.0
C413 C 0.55489 0.17362 0.38941 0.0
C414 C 0.46788 0.22239 0.34496 0.0
C415 C 0.56688 0.15412 0.31503 0.0
C416 C 0.47552 0.16247 0.22436 0.0
C417 C 0.4894 0.18071 0.19229 0.0
C418 C 0.48428 0.16488 0.26857 0.0
C419 C 0.50722 0.18653 0.28215 0.0
C420 C 0.52146 0.2051 0.25 0.0
C421 C 0.51269 0.20181 0.20556 0.0
C422 C 0.46902 0.14396 0.30081 0.0
C423 C 0.5457 0.22872 0.26268 0.0
H424 H 0.49276 0.21776 0.42714 0.0
H425 H 0.57697 0.16153 0.40047 0.0
H426 H 0.47557 0.2378 0.31907 0.0
H427 H 0.44848 0.20792 0.33087 0.0
H428 H 0.45617 0.2348 0.37182 0.0
H429 H 0.58814 0.14292 0.33207 0.0
H430 H 0.55064 0.13752 0.29966 0.0
H431 H 0.57746 0.16773 0.28864 0.0
H432 H 0.45761 0.14597 0.21482 0.0
H433 H 0.52331 0.21629 0.18143 0.0
H434 H 0.45467 0.15603 0.32578 0.0
H435 H 0.48945 0.13168 0.31778 0.0
H436 H 0.45169 0.12825 0.28521 0.0
H437 H 0.53364 0.24308 0.28695 0.0
H438 H 0.55367 0.24207 0.23444 0.0
H439 H 0.56861 0.21907 0.27811 0.0
C440 C 0.95675 0.5225 0.09825 0.0
C441 C 0.923 0.52343 0.08379 0.0
C442 C 0.97593 0.49691 0.09721 0.0
C443 C 0.96114 0.47119 0.0814 0.0
C444 C 0.92662 0.47153 0.06826 0.0
C445 C 0.90787 0.49773 0.06958 0.0
C446 C 0.01253 0.49771 0.11188 0.0
C447 C 0.90985 0.44453 0.05155 0.0
C448 C 0.03075 0.42187 0.04046 0.0
C449 C 0.03871 0.40575 0.07797 0.0
C450 C 1.00324 0.44138 1.03962 0.0
C451 C 0.98299 0.44478 0.07708 0.0
C452 C 0.98875 0.42639 0.11338 0.0
C453 C 0.0166 0.40718 0.11348 0.0
C454 C 0.99803 0.4604 1.00008 0.0
C455 C 0.96743 0.42885 0.1537 0.0
H456 H 0.96863 0.54211 0.10986 0.0
H457 H 0.88182 0.49826 0.05833 0.0
H458 H 0.01706 0.48133 0.1378 0.0
H459 H 0.02942 0.49223 0.08441 0.0
H460 H 0.0199 0.51929 0.1244 0.0
H461 H 0.88195 0.44724 0.04855 0.0
H462 H 0.9202 0.43923 1.01916 0.0
H463 H 0.91538 0.4258 0.07326 0.0
H464 H 0.04736 0.42077 1.0126 0.0
H465 H 0.02216 0.39456 0.14245 0.0
H466 H 0.00721 0.48257 1.00709 0.0
H467 H 0.97073 0.46215 0.99173 0.0
H468 H 0.01199 0.45207 0.97152 0.0
H469 H 0.97523 0.44829 0.17209 0.0
H470 H 0.97046 0.40956 0.17519 0.0
H471 H 0.94023 0.43152 0.14526 0.0
C472 C 0.47103 0.9744 0.58627 0.0
C473 C 0.48286 0.94831 0.56867 0.0
C474 C 0.49078 0.99958 0.58513 0.0
C475 C 0.52313 0.99886 0.56538 0.0
C476 C 0.53562 0.97239 0.54846 0.0
C477 C 0.51541 0.94737 0.55058 0.0
C478 C 0.47663 0.02717 0.60418 0.0
C479 C 0.56978 0.97077 0.52676 0.0
C480 C 0.55077 0.07245 0.52291 0.0
C481 C 0.57209 0.08203 0.5562 0.0
C482 C 0.53618 0.04478 0.52436 0.0
C483 C 0.54267 0.0263 0.56036 0.0
C484 C 0.5654 0.03536 0.59318 0.0
C485 C 0.58003 0.06308 0.59057 0.0
C486 C 0.51256 0.03589 0.48829 0.0
C487 C 0.57279 0.01647 0.63227 0.0
H488 H 0.44612 0.9751 0.60089 0.0
H489 H 0.52455 0.92731 0.53666 0.0
H490 H 0.49487 0.03635 0.62774 0.0
H491 H 0.47275 0.04356 0.5781 0.0
H492 H 0.45206 0.02366 0.62083 0.0
H493 H 0.57685 0.94822 0.51796 0.0
H494 H 0.56943 0.98428 0.49685 0.0
H495 H 0.58967 0.97961 0.54833 0.0
H496 H 0.5449 0.08697 0.49611 0.0
H497 H 0.59623 0.07051 0.61656 0.0
H498 H 0.48629 0.03455 0.5008 0.0
H499 H 0.51963 0.01409 0.47622 0.0
H500 H 0.51282 0.05147 0.46065 0.0
H501 H 0.54965 0.01477 0.65245 0.0
H502 H 0.59357 0.02527 0.65257 0.0
H503 H 0.57977 0.99421 0.62214 0.0
C504 C 0.06928 0.55111 0.52938 0.0
C505 C 0.0971 0.53935 0.552 0.0
C506 C 0.03744 0.53761 0.5306 0.0
C507 C 0.03346 0.51144 0.55437 0.0
C508 C 0.06143 0.49951 0.57731 0.0
C509 C 0.09278 0.51372 0.57616 0.0
C510 C 0.00805 0.5513 0.50635 0.0
C511 C 0.05841 0.47145 0.6025 0.0
C512 C 0.94482 0.48911 0.58855 0.0
C513 C 0.93571 0.46975 0.55564 0.0
C514 C 0.9765 0.50277 0.58856 0.0
C515 C 1.00002 0.49656 0.5553 0.0
C516 C 0.99143 0.47635 0.52275 0.0
C517 C 0.95927 0.46339 0.52307 0.0
C518 C 0.98442 0.52447 0.62352 0.0
C519 C 0.01605 0.46874 0.4872 0.0
H520 H 0.07238 0.5709 0.51071 0.0
H521 H 0.11418 0.50429 0.59345 0.0
H522 H 0.99874 0.53628 0.48114 0.0
H523 H 0.98673 0.55537 0.5289 0.0
H524 H 0.01504 0.57211 0.4905 0.0
H525 H 0.08263 0.46493 0.61836 0.0
H526 H 0.03867 0.47358 0.62779 0.0
H527 H 0.05038 0.45384 0.58051 0.0
H528 H 0.92671 0.49442 0.61365 0.0
H529 H 0.95244 0.44849 0.49755 0.0
H530 H 0.98933 0.54599 0.60862 0.0
H531 H 0.00774 0.51785 0.64128 0.0
H532 H 0.96345 0.52676 0.64721 0.0
H533 H 0.0215 0.48828 0.46731 0.0
H534 H 0.00617 0.45158 0.46557 0.0
H535 H 0.04044 0.46119 0.50146 0.0
C536 C 0.51432 0.9297 0.10351 0.0
C537 C 0.53966 0.9199 0.07524 0.0
C538 C 0.50274 0.95855 0.10226 0.0
C539 C 0.51675 0.97824 0.07192 0.0
C540 C 0.54315 0.96879 0.04426 0.0
C541 C 0.55434 0.93976 0.04632 0.0
C542 C 0.47478 0.96772 0.13261 0.0
C543 C 0.55875 0.98907 1.01144 0.0
C544 C 0.46086 0.04186 1.03676 0.0
C545 C 0.47392 0.06468 0.06143 0.0
C546 C 0.47482 0.0138 1.03952 0.0
C547 C 0.50254 0.00824 0.06776 0.0
C548 C 0.51597 0.03117 0.09264 0.0
C549 C 0.50155 0.05907 0.08915 0.0
C550 C 0.4598 0.99003 1.01225 0.0
C551 C 0.54535 0.02614 0.12332 0.0
H552 H 0.50325 0.91462 0.12642 0.0
H553 H 0.57369 0.93236 1.02412 0.0
H554 H 0.48257 0.9871 0.15113 0.0
H555 H 0.45186 0.97384 0.11362 0.0
H556 H 0.46791 0.95027 0.15591 0.0
H557 H 0.58041 0.97894 0.99419 0.0
H558 H 0.53935 0.99573 0.98715 0.0
H559 H 0.5677 0.00904 1.02754 0.0
H560 H 0.43994 0.04601 1.01474 0.0
H561 H 0.51159 0.07644 0.10869 0.0
H562 H 0.45011 0.97246 1.0335 0.0
H563 H 0.47964 0.98038 0.99133 0.0
H564 H 0.43869 0.99799 0.99131 0.0
H565 H 0.53825 0.01 0.14847 0.0
H566 H 0.55338 0.04637 0.13963 0.0
H567 H 0.56731 0.01707 0.10549 0.0
C568 C 0.21359 0.3143 1.0106 0.0
C569 C 0.1885 0.30932 0.04187 0.0
C570 C 0.24372 0.29789 1.01028 0.0
C571 C 0.24911 0.27609 0.04222 0.0
C572 C 0.22285 0.26952 0.07181 0.0
C573 C 0.1928 0.28611 0.07114 0.0
C574 C 0.27081 0.30537 0.97771 0.0
C575 C 0.22749 0.24653 0.10643 0.0
C576 C 0.32746 0.22753 1.03118 0.0
C577 C 0.35126 0.24273 0.05592 0.0
C578 C 0.29379 0.23764 1.02706 0.0
C579 C 0.28373 0.26337 0.0485 0.0
C580 C 0.30739 0.27803 0.07493 0.0
C581 C 0.34075 0.26758 0.07819 0.0
C582 C 0.26936 0.22143 0.99856 0.0
C583 C 0.29778 0.3053 0.09889 0.0
H584 H 0.21042 0.33201 0.9876 0.0
H585 H 0.17362 0.28201 0.09545 0.0
H586 H 0.29199 0.31646 0.9944 0.0
H587 H 0.28129 0.28543 0.96286 0.0
H588 H 0.26108 0.31989 0.95154 0.0
H589 H 0.2032 0.241 0.12249 0.0
H590 H 0.23865 0.22653 0.09259 0.0
H591 H 0.24534 0.25449 0.13146 0.0
H592 H 0.33554 0.20843 1.01371 0.0
H593 H 0.35889 0.2791 0.09795 0.0
H594 H 0.26278 0.23495 0.96981 0.0
H595 H 0.24546 0.21709 1.01621 0.0
H596 H 0.28013 0.20052 0.98725 0.0
H597 H 0.29088 0.32266 0.07533 0.0
H598 H 0.31868 0.31327 0.11977 0.0
H599 H 0.27527 0.30134 0.11949 0.0
C600 C 0.76584 0.37541 0.59215 0.0
C601 C 0.78724 0.38001 0.55653 0.0
C602 C 0.74163 0.35316 0.592 0.0
C603 C 0.73879 0.33485 0.5555 0.0
C604 C 0.76168 0.33827 0.52061 0.0
C605 C 0.7855 0.36084 0.52145 0.0
C606 C 0.71772 0.3504 0.62988 0.0
C607 C 0.75982 0.31909 0.48127 0.0
C608 C 0.68115 0.2688 0.5669 0.0
C609 C 0.65045 0.27988 0.55051 0.0
C610 C 0.71057 0.28605 0.56764 0.0
C611 C 0.70917 0.31494 0.55153 0.0
C612 C 0.67858 0.32561 0.53316 0.0
C613 C 0.6498 0.30798 0.53279 0.0
C614 C 0.74275 0.27377 0.58713 0.0
C615 C 0.67583 0.35611 0.51523 0.0
H616 H 0.76699 0.38997 0.61951 0.0
H617 H 0.80207 0.36398 0.4939 0.0
H618 H 0.6918 0.35694 0.61952 0.0
H619 H 0.71649 0.32754 0.64115 0.0
H620 H 0.72538 0.36418 0.65756 0.0
H621 H 0.78218 0.32176 0.45985 0.0
H622 H 0.75801 0.29598 0.49113 0.0
H623 H 0.73668 0.32453 0.4623 0.0
H624 H 0.68176 0.24716 0.58076 0.0
H625 H 0.62634 0.31645 0.51928 0.0
H626 H 0.7485 0.2851 0.61785 0.0
H627 H 0.76442 0.27743 0.565 0.0
H628 H 0.74077 0.25018 0.5941 0.0
H629 H 0.68028 0.37192 0.54154 0.0
H630 H 0.65058 0.36071 0.50057 0.0
H631 H 0.6955 0.35977 0.49023 0.0
C632 C 0.76274 0.66735 1.03098 0.0
C633 C 0.76981 0.64321 0.05753 0.0
C634 C 0.73143 0.68182 1.03278 0.0
C635 C 0.70653 0.67225 0.06239 0.0
C636 C 0.71312 0.64741 0.08859 0.0
C637 C 0.74466 0.63299 0.08561 0.0
C638 C 0.7253 0.70776 1.00353 0.0
C639 C 0.68728 0.63664 0.12073 0.0
C640 C 0.64041 0.72901 0.09389 0.0
C641 C 0.61279 0.72119 0.06796 0.0
C642 C 0.67078 0.71277 0.09337 0.0
C643 C 0.67375 0.68847 0.06567 0.0
C644 C 0.64599 0.68073 1.03912 0.0
C645 C 0.61588 0.69705 0.04078 0.0
C646 C 0.6997 0.7216 0.12244 0.0
C647 C 0.64825 0.65547 1.00839 0.0
H648 H 0.78204 0.67527 1.00903 0.0
H649 H 0.75015 0.61455 0.10652 0.0
H650 H 0.70188 0.70466 0.98416 0.0
H651 H 0.72151 0.72746 1.02336 0.0
H652 H 0.74671 0.71163 0.98098 0.0
H653 H 0.69586 0.61664 0.13792 0.0
H654 H 0.68216 0.65369 0.14508 0.0
H655 H 0.66297 0.63214 0.10402 0.0
H656 H 0.63797 0.74744 0.11523 0.0
H657 H 0.59475 0.69115 1.02023 0.0
H658 H 0.72184 0.72789 0.1025 0.0
H659 H 0.70772 0.70301 0.14316 0.0
H660 H 0.69281 0.74008 0.14362 0.0
H661 H 0.66856 0.6594 0.98431 0.0
H662 H 0.62409 0.65181 0.99074 0.0
H663 H 0.65511 0.63537 1.02643 0.0
C664 C 0.29725 0.76955 0.57613 0.0
C665 C 0.33266 0.76788 0.57182 0.0
C666 C 0.27693 0.74476 0.57293 0.0
C667 C 0.29223 0.71754 0.56471 0.0
C668 C 0.32784 0.71567 0.55965 0.0
C669 C 0.3476 0.74079 0.56342 0.0
C670 C 0.23906 0.7477 0.57854 0.0
C671 C 0.34512 0.68707 0.55053 0.0
C672 C 0.24551 0.64804 0.59366 0.0
C673 C 0.23262 0.63966 0.55324 0.0
C674 C 0.26447 0.67357 0.59802 0.0
C675 C 0.27096 0.69103 0.56102 0.0
C676 C 0.25754 0.68294 0.52031 0.0
C677 C 0.23842 0.65748 0.51696 0.0
C678 C 0.278 0.68164 0.6421 0.0
C679 C 0.26405 0.70083 0.48002 0.0
H680 H 0.28526 0.79033 0.58186 0.0
H681 H 0.37485 0.73901 0.56055 0.0
H682 H 0.22585 0.74041 0.5488 0.0
H683 H 0.23052 0.73357 0.60558 0.0
H684 H 0.23113 0.77035 0.58538 0.0
H685 H 0.37296 0.68933 0.54665 0.0
H686 H 0.34023 0.67155 0.57739 0.0
H687 H 0.33455 0.67751 0.52053 0.0
H688 H 0.24116 0.63445 0.62188 0.0
H689 H 0.22873 0.65119 0.48552 0.0
H690 H 0.26944 0.70383 0.65063 0.0
H691 H 0.30611 0.68181 0.6415 0.0
H692 H 0.26968 0.66637 0.6679 0.0
H693 H 0.25513 0.72343 0.48478 0.0
H694 H 0.25123 0.69191 0.45096 0.0
H695 H 0.29169 0.70171 0.47368 0.0
loop_
_geom_bond_atom_site_label_1
_geom_bond_atom_site_label_2
_geom_bond_distance
_geom_bond_site_symmetry_2
_ccdc_geom_bond_type
Cu0 N1 1.999 1_554 S
Cu0 O6 1.974 . S
Cu0 N11 1.985 . S
Cu0 O20 1.959 . S
N1 Cu0 1.999 1_556 S
N1 C3 1.263 . S
N1 C5 1.389 . S
N2 C3 1.358 . S
N2 C4 1.400 . S
C3 N1 1.263 . S
C3 N2 1.358 . S
C3 H9 0.930 . S
C4 N2 1.400 . S
C4 C5 1.351 . S
C4 H21 0.930 . S
C5 N1 1.389 . S
C5 C4 1.351 . S
C5 H10 0.930 . S
O6 Cu0 1.974 . S
O6 C16 1.282 . S
C7 O8 1.261 . S
C7 O20 1.251 . S
O8 C7 1.261 . S
H9 C3 0.930 . S
H10 C5 0.930 . S
N11 Cu0 1.985 . S
N11 C13 1.335 . S
N11 C14 1.390 . S
N12 C13 1.345 . S
N12 C15 1.336 . S
C13 N11 1.335 . S
C13 N12 1.345 . S
C13 H18 0.930 . S
C14 N11 1.390 . S
C14 C15 1.346 . S
C14 H19 0.930 . S
C15 N12 1.336 . S
C15 C14 1.346 . S
C15 H22 0.929 . S
C16 O6 1.282 . S
C16 O17 1.216 . S
O17 C16 1.216 . S
H18 C13 0.930 . S
H19 C14 0.930 . S
O20 Cu0 1.959 . S
O20 C7 1.251 . S
H21 C4 0.930 . S
H22 C15 0.929 . S
Cu23 N24 1.999 . S
Cu23 O29 1.974 . S
Cu23 N34 1.985 . S
Cu23 O43 1.959 . S
N24 Cu23 1.999 . S
N24 C26 1.263 . S
N24 C28 1.389 . S
N25 C26 1.358 . S
N25 C27 1.400 . S
C26 N24 1.263 . S
C26 N25 1.358 . S
C26 H32 0.930 . S
C27 N25 1.400 . S
C27 C28 1.351 . S
C27 H44 0.930 . S
C28 N24 1.389 . S
C28 C27 1.351 . S
C28 H33 0.930 . S
O29 Cu23 1.974 . S
O29 C39 1.282 . S
C30 O31 1.261 . S
C30 O43 1.251 . S
O31 C30 1.261 . S
H32 C26 0.930 . S
H33 C28 0.930 . S
N34 Cu23 1.985 . S
N34 C36 1.335 . S
N34 C37 1.390 . S
N35 C36 1.345 . S
N35 C38 1.336 . S
C36 N34 1.335 . S
C36 N35 1.345 . S
C36 H41 0.930 . S
C37 N34 1.390 . S
C37 C38 1.346 . S
C37 H42 0.930 . S
C38 N35 1.336 . S
C38 C37 1.346 . S
C38 H45 0.929 . S
C39 O29 1.282 . S
C39 O40 1.216 . S
O40 C39 1.216 . S
H41 C36 0.930 . S
H42 C37 0.930 . S
O43 Cu23 1.959 . S
O43 C30 1.251 . S
H44 C27 0.930 . S
H45 C38 0.929 . S
Cu46 N47 1.999 1_554 S
Cu46 O52 1.974 . S
Cu46 N57 1.985 . S
Cu46 O66 1.959 . S
N47 Cu46 1.999 1_556 S
N47 C49 1.263 . S
N47 C51 1.389 . S
N48 C49 1.358 . S
N48 C50 1.400 . S
C49 N47 1.263 . S
C49 N48 1.358 . S
C49 H55 0.930 . S
C50 N48 1.400 . S
C50 C51 1.351 . S
C50 H67 0.930 . S
C51 N47 1.389 . S
C51 C50 1.351 . S
C51 H56 0.930 . S
O52 Cu46 1.974 . S
O52 C62 1.282 . S
C53 O54 1.261 . S
C53 O66 1.251 . S
O54 C53 1.261 . S
H55 C49 0.930 . S
H56 C51 0.930 . S
N57 Cu46 1.985 . S
N57 C59 1.335 . S
N57 C60 1.390 . S
N58 C59 1.345 . S
N58 C61 1.336 . S
C59 N57 1.335 . S
C59 N58 1.345 . S
C59 H64 0.930 . S
C60 N57 1.390 . S
C60 C61 1.346 . S
C60 H65 0.930 . S
C61 N58 1.336 . S
C61 C60 1.346 . S
C61 H68 0.929 . S
C62 O52 1.282 . S
C62 O63 1.216 . S
O63 C62 1.216 . S
H64 C59 0.930 . S
H65 C60 0.930 . S
O66 Cu46 1.959 . S
O66 C53 1.251 . S
H67 C50 0.930 . S
H68 C61 0.929 . S
Cu69 N70 1.999 . S
Cu69 O75 1.974 . S
Cu69 N80 1.985 . S
Cu69 O89 1.959 . S
N70 Cu69 1.999 . S
N70 C72 1.263 . S
N70 C74 1.389 . S
N71 C72 1.358 . S
N71 C73 1.400 . S
C72 N70 1.263 . S
C72 N71 1.358 . S
C72 H78 0.930 . S
C73 N71 1.400 . S
C73 C74 1.351 . S
C73 H90 0.930 . S
C74 N70 1.389 . S
C74 C73 1.351 . S
C74 H79 0.930 . S
O75 Cu69 1.974 . S
O75 C85 1.282 . S
C76 O77 1.261 . S
C76 O89 1.251 . S
O77 C76 1.261 . S
H78 C72 0.930 . S
H79 C74 0.930 . S
N80 Cu69 1.985 . S
N80 C82 1.335 . S
N80 C83 1.390 . S
N81 C82 1.345 . S
N81 C84 1.336 . S
C82 N80 1.335 . S
C82 N81 1.345 . S
C82 H87 0.930 . S
C83 N80 1.390 . S
C83 C84 1.346 . S
C83 H88 0.930 . S
C84 N81 1.336 . S
C84 C83 1.346 . S
C84 H91 0.929 . S
C85 O75 1.282 . S
C85 O86 1.216 . S
O86 C85 1.216 . S
H87 C82 0.930 . S
H88 C83 0.930 . S
O89 Cu69 1.959 . S
O89 C76 1.251 . S
H90 C73 0.930 . S
H91 C84 0.929 . S
Cu92 N93 1.999 . S
Cu92 O98 1.974 . S
Cu92 N103 1.985 . S
Cu92 O112 1.959 . S
N93 Cu92 1.999 . S
N93 C95 1.263 . S
N93 C97 1.389 . S
N94 C95 1.358 . S
N94 C96 1.400 . S
C95 N93 1.263 . S
C95 N94 1.358 . S
C95 H101 0.930 . S
C96 N94 1.400 . S
C96 C97 1.351 . S
C96 H113 0.930 . S
C97 N93 1.389 . S
C97 C96 1.351 . S
C97 H102 0.930 . S
O98 Cu92 1.974 . S
O98 C108 1.282 . S
C99 O100 1.261 . S
C99 O112 1.251 . S
O100 C99 1.261 . S
H101 C95 0.930 . S
H102 C97 0.930 . S
N103 Cu92 1.985 . S
N103 C105 1.335 . S
N103 C106 1.390 . S
N104 C105 1.345 . S
N104 C107 1.336 . S
C105 N103 1.335 . S
C105 N104 1.345 . S
C105 H110 0.930 . S
C106 N103 1.390 . S
C106 C107 1.346 . S
C106 H111 0.930 . S
C107 N104 1.336 . S
C107 C106 1.346 . S
C107 H114 0.929 . S
C108 O98 1.282 . S
C108 O109 1.216 . S
O109 C108 1.216 . S
H110 C105 0.930 . S
H111 C106 0.930 . S
O112 Cu92 1.959 . S
O112 C99 1.251 . S
H113 C96 0.930 . S
H114 C107 0.929 . S
Cu115 N116 1.999 . S
Cu115 O121 1.974 1_554 S
Cu115 N126 1.985 . S
Cu115 O135 1.959 . S
N116 Cu115 1.999 . S
N116 C118 1.263 1_554 S
N116 C120 1.389 . S
N117 C118 1.358 1_554 S
N117 C119 1.400 . S
C118 N116 1.263 1_556 S
C118 N117 1.358 1_556 S
C118 H124 0.930 . S
C119 N117 1.400 . S
C119 C120 1.351 . S
C119 H136 0.930 . S
C120 N116 1.389 . S
C120 C119 1.351 . S
C120 H125 0.930 . S
O121 Cu115 1.974 1_556 S
O121 C131 1.282 . S
C122 O123 1.261 . S
C122 O135 1.251 . S
O123 C122 1.261 . S
H124 C118 0.930 . S
H125 C120 0.930 . S
N126 Cu115 1.985 . S
N126 C128 1.335 . S
N126 C129 1.390 1_554 S
N127 C128 1.345 . S
N127 C130 1.336 1_554 S
C128 N126 1.335 . S
C128 N127 1.345 . S
C128 H133 0.930 . S
C129 N126 1.390 1_556 S
C129 C130 1.346 . S
C129 H134 0.930 . S
C130 N127 1.336 1_556 S
C130 C129 1.346 . S
C130 H137 0.929 . S
C131 O121 1.282 . S
C131 O132 1.216 . S
O132 C131 1.216 . S
H133 C128 0.930 . S
H134 C129 0.930 . S
O135 Cu115 1.959 . S
O135 C122 1.251 . S
H136 C119 0.930 . S
H137 C130 0.929 . S
Cu138 N139 1.999 . S
Cu138 O144 1.974 . S
Cu138 N149 1.985 . S
Cu138 O158 1.959 . S
N139 Cu138 1.999 . S
N139 C141 1.263 . S
N139 C143 1.389 . S
N140 C141 1.358 . S
N140 C142 1.400 . S
C141 N139 1.263 . S
C141 N140 1.358 . S
C141 H147 0.930 . S
C142 N140 1.400 . S
C142 C143 1.351 . S
C142 H159 0.930 . S
C143 N139 1.389 . S
C143 C142 1.351 . S
C143 H148 0.930 . S
O144 Cu138 1.974 . S
O144 C154 1.282 . S
C145 O146 1.261 . S
C145 O158 1.251 . S
O146 C145 1.261 . S
H147 C141 0.930 . S
H148 C143 0.930 . S
N149 Cu138 1.985 . S
N149 C151 1.335 . S
N149 C152 1.390 . S
N150 C151 1.345 . S
N150 C153 1.336 . S
C151 N149 1.335 . S
C151 N150 1.345 . S
C151 H156 0.930 . S
C152 N149 1.390 . S
C152 C153 1.346 . S
C152 H157 0.930 . S
C153 N150 1.336 . S
C153 C152 1.346 . S
C153 H160 0.929 . S
C154 O144 1.282 . S
C154 O155 1.216 . S
O155 C154 1.216 . S
H156 C151 0.930 . S
H157 C152 0.930 . S
O158 Cu138 1.959 . S
O158 C145 1.251 . S
H159 C142 0.930 . S
H160 C153 0.929 . S
Cu161 N162 1.999 . S
Cu161 O167 1.974 1_554 S
Cu161 N172 1.985 . S
Cu161 O181 1.959 . S
N162 Cu161 1.999 . S
N162 C164 1.263 1_554 S
N162 C166 1.389 . S
N163 C164 1.358 1_554 S
N163 C165 1.400 . S
C164 N162 1.263 1_556 S
C164 N163 1.358 1_556 S
C164 H170 0.930 . S
C165 N163 1.400 . S
C165 C166 1.351 . S
C165 H182 0.930 . S
C166 N162 1.389 . S
C166 C165 1.351 . S
C166 H171 0.930 . S
O167 Cu161 1.974 1_556 S
O167 C177 1.282 . S
C168 O169 1.261 . S
C168 O181 1.251 . S
O169 C168 1.261 . S
H170 C164 0.930 . S
H171 C166 0.930 . S
N172 Cu161 1.985 . S
N172 C174 1.335 . S
N172 C175 1.390 1_554 S
N173 C174 1.345 . S
N173 C176 1.336 1_554 S
C174 N172 1.335 . S
C174 N173 1.345 . S
C174 H179 0.930 . S
C175 N172 1.390 1_556 S
C175 C176 1.346 . S
C175 H180 0.930 . S
C176 N173 1.336 1_556 S
C176 C175 1.346 . S
C176 H183 0.929 . S
C177 O167 1.282 . S
C177 O178 1.216 . S
O178 C177 1.216 . S
H179 C174 0.930 . S
H180 C175 0.930 . S
O181 Cu161 1.959 . S
O181 C168 1.251 . S
H182 C165 0.930 . S
H183 C176 0.929 . S
C184 C185 1.391 . S
C184 C186 1.394 . S
C184 H200 0.931 . S
C185 C184 1.391 . S
C185 C189 1.376 . S
C186 C184 1.394 . S
C186 C187 1.369 . S
C186 C190 1.531 . S
C187 C186 1.369 . S
C187 C188 1.410 . S
C187 C195 1.503 . S
C188 C187 1.410 . S
C188 C189 1.392 . S
C188 C191 1.511 . S
C189 C185 1.376 . S
C189 C188 1.392 . S
C189 H201 0.929 . S
C190 C186 1.531 . S
C190 H202 0.960 . S
C190 H203 0.962 . S
C190 H204 0.960 . S
C191 C188 1.511 . S
C191 H205 0.961 . S
C191 H206 0.961 . S
C191 H207 0.961 . S
C192 C193 1.370 . S
C192 C194 1.363 . S
C192 H208 0.931 . S
C193 C192 1.370 . S
C193 C197 1.408 . S
C194 C192 1.363 . S
C194 C195 1.370 . S
C194 C198 1.524 . S
C195 C187 1.503 . S
C195 C194 1.370 . S
C195 C196 1.403 . S
C196 C195 1.403 . S
C196 C197 1.404 . S
C196 C199 1.539 . S
C197 C193 1.408 . S
C197 C196 1.404 . S
C197 H209 0.930 . S
C198 C194 1.524 . S
C198 H210 0.956 . S
C198 H211 0.961 . S
C198 H212 0.961 . S
C199 C196 1.539 . S
C199 H213 0.958 . S
C199 H214 0.961 . S
C199 H215 0.960 . S
H200 C184 0.931 . S
H201 C189 0.929 . S
H202 C190 0.960 . S
H203 C190 0.962 . S
H204 C190 0.960 . S
H205 C191 0.961 . S
H206 C191 0.961 . S
H207 C191 0.961 . S
H208 C192 0.931 . S
H209 C197 0.930 . S
H210 C198 0.956 . S
H211 C198 0.961 . S
H212 C198 0.961 . S
H213 C199 0.958 . S
H214 C199 0.961 . S
H215 C199 0.960 . S
C216 C217 1.391 . S
C216 C218 1.394 . S
C216 H232 0.931 . S
C217 C216 1.391 . S
C217 C221 1.376 . S
C218 C216 1.394 . S
C218 C219 1.369 . S
C218 C222 1.531 . S
C219 C218 1.369 . S
C219 C220 1.410 . S
C219 C227 1.503 . S
C220 C219 1.410 . S
C220 C221 1.392 . S
C220 C223 1.511 . S
C221 C217 1.376 . S
C221 C220 1.392 . S
C221 H233 0.929 . S
C222 C218 1.531 . S
C222 H234 0.960 . S
C222 H235 0.962 . S
C222 H236 0.960 . S
C223 C220 1.511 . S
C223 H237 0.961 . S
C223 H238 0.961 . S
C223 H239 0.961 . S
C224 C225 1.370 . S
C224 C226 1.363 . S
C224 H240 0.931 . S
C225 C224 1.370 . S
C225 C229 1.408 . S
C226 C224 1.363 . S
C226 C227 1.370 . S
C226 C230 1.524 . S
C227 C219 1.503 . S
C227 C226 1.370 . S
C227 C228 1.403 . S
C228 C227 1.403 . S
C228 C229 1.404 . S
C228 C231 1.539 . S
C229 C225 1.408 . S
C229 C228 1.404 . S
C229 H241 0.930 . S
C230 C226 1.524 . S
C230 H242 0.956 . S
C230 H243 0.961 . S
C230 H244 0.961 . S
C231 C228 1.539 . S
C231 H245 0.958 . S
C231 H246 0.961 . S
C231 H247 0.960 . S
H232 C216 0.931 . S
H233 C221 0.929 . S
H234 C222 0.960 . S
H235 C222 0.962 . S
H236 C222 0.960 . S
H237 C223 0.961 . S
H238 C223 0.961 . S
H239 C223 0.961 . S
H240 C224 0.931 . S
H241 C229 0.930 . S
H242 C230 0.956 . S
H243 C230 0.961 . S
H244 C230 0.961 . S
H245 C231 0.958 . S
H246 C231 0.961 . S
H247 C231 0.960 . S
C248 C249 1.391 . S
C248 C250 1.394 . S
C248 H264 0.931 . S
C249 C248 1.391 . S
C249 C253 1.376 . S
C250 C248 1.394 . S
C250 C251 1.369 . S
C250 C254 1.531 . S
C251 C250 1.369 . S
C251 C252 1.410 . S
C251 C259 1.503 . S
C252 C251 1.410 . S
C252 C253 1.392 . S
C252 C255 1.511 . S
C253 C249 1.376 . S
C253 C252 1.392 . S
C253 H265 0.929 . S
C254 C250 1.531 . S
C254 H266 0.960 . S
C254 H267 0.962 . S
C254 H268 0.960 . S
C255 C252 1.511 . S
C255 H269 0.961 . S
C255 H270 0.961 . S
C255 H271 0.961 . S
C256 C257 1.370 . S
C256 C258 1.363 . S
C256 H272 0.931 . S
C257 C256 1.370 . S
C257 C261 1.408 . S
C258 C256 1.363 . S
C258 C259 1.370 . S
C258 C262 1.524 . S
C259 C251 1.503 . S
C259 C258 1.370 . S
C259 C260 1.403 . S
C260 C259 1.403 . S
C260 C261 1.404 . S
C260 C263 1.539 . S
C261 C257 1.408 . S
C261 C260 1.404 . S
C261 H273 0.930 . S
C262 C258 1.524 . S
C262 H274 0.956 . S
C262 H275 0.961 . S
C262 H276 0.961 . S
C263 C260 1.539 . S
C263 H277 0.958 . S
C263 H278 0.961 . S
C263 H279 0.960 . S
H264 C248 0.931 . S
H265 C253 0.929 . S
H266 C254 0.960 . S
H267 C254 0.962 . S
H268 C254 0.960 . S
H269 C255 0.961 . S
H270 C255 0.961 . S
H271 C255 0.961 . S
H272 C256 0.931 . S
H273 C261 0.930 . S
H274 C262 0.956 . S
H275 C262 0.961 . S
H276 C262 0.961 . S
H277 C263 0.958 . S
H278 C263 0.961 . S
H279 C263 0.960 . S
C280 C281 1.391 . S
C280 C282 1.394 . S
C280 H296 0.931 . S
C281 C280 1.391 . S
C281 C285 1.376 . S
C282 C280 1.394 . S
C282 C283 1.369 . S
C282 C286 1.531 . S
C283 C282 1.369 . S
C283 C284 1.410 . S
C283 C291 1.503 . S
C284 C283 1.410 . S
C284 C285 1.392 . S
C284 C287 1.511 . S
C285 C281 1.376 . S
C285 C284 1.392 . S
C285 H297 0.929 . S
C286 C282 1.531 . S
C286 H298 0.960 . S
C286 H299 0.962 . S
C286 H300 0.960 . S
C287 C284 1.511 . S
C287 H301 0.961 . S
C287 H302 0.961 . S
C287 H303 0.961 . S
C288 C289 1.370 . S
C288 C290 1.363 . S
C288 H304 0.931 . S
C289 C288 1.370 . S
C289 C293 1.408 . S
C290 C288 1.363 . S
C290 C291 1.370 . S
C290 C294 1.524 . S
C291 C283 1.503 . S
C291 C290 1.370 . S
C291 C292 1.403 . S
C292 C291 1.403 . S
C292 C293 1.404 . S
C292 C295 1.539 . S
C293 C289 1.408 . S
C293 C292 1.404 . S
C293 H305 0.930 . S
C294 C290 1.524 . S
C294 H306 0.956 . S
C294 H307 0.961 . S
C294 H308 0.961 . S
C295 C292 1.539 . S
C295 H309 0.958 . S
C295 H310 0.961 . S
C295 H311 0.960 . S
H296 C280 0.931 . S
H297 C285 0.929 . S
H298 C286 0.960 . S
H299 C286 0.962 . S
H300 C286 0.960 . S
H301 C287 0.961 . S
H302 C287 0.961 . S
H303 C287 0.961 . S
H304 C288 0.931 . S
H305 C293 0.930 . S
H306 C294 0.956 . S
H307 C294 0.961 . S
H308 C294 0.961 . S
H309 C295 0.958 . S
H310 C295 0.961 . S
H311 C295 0.960 . S
C312 C313 1.391 . S
C312 C314 1.394 . S
C312 H328 0.931 . S
C313 C312 1.391 . S
C313 C317 1.376 . S
C314 C312 1.394 . S
C314 C315 1.369 . S
C314 C318 1.531 . S
C315 C314 1.369 . S
C315 C316 1.410 . S
C315 C323 1.503 . S
C316 C315 1.410 . S
C316 C317 1.392 . S
C316 C319 1.511 . S
C317 C313 1.376 . S
C317 C316 1.392 . S
C317 H329 0.929 . S
C318 C314 1.531 . S
C318 H330 0.960 . S
C318 H331 0.962 . S
C318 H332 0.960 . S
C319 C316 1.511 . S
C319 H333 0.961 . S
C319 H334 0.961 . S
C319 H335 0.961 . S
C320 C321 1.370 . S
C320 C322 1.363 . S
C320 H336 0.931 . S
C321 C320 1.370 . S
C321 C325 1.408 . S
C322 C320 1.363 . S
C322 C323 1.370 . S
C322 C326 1.524 . S
C323 C315 1.503 . S
C323 C322 1.370 . S
C323 C324 1.403 . S
C324 C323 1.403 . S
C324 C325 1.404 . S
C324 C327 1.539 . S
C325 C321 1.408 . S
C325 C324 1.404 . S
C325 H337 0.930 . S
C326 C322 1.524 . S
C326 H338 0.956 . S
C326 H339 0.961 . S
C326 H340 0.961 . S
C327 C324 1.539 . S
C327 H341 0.958 . S
C327 H342 0.961 . S
C327 H343 0.960 . S
H328 C312 0.931 . S
H329 C317 0.929 . S
H330 C318 0.960 . S
H331 C318 0.962 . S
H332 C318 0.960 . S
H333 C319 0.961 . S
H334 C319 0.961 . S
H335 C319 0.961 . S
H336 C320 0.931 . S
H337 C325 0.930 . S
H338 C326 0.956 . S
H339 C326 0.961 . S
H340 C326 0.961 . S
H341 C327 0.958 . S
H342 C327 0.961 . S
H343 C327 0.960 . S
C344 C345 1.391 . S
C344 C346 1.394 . S
C344 H360 0.931 . S
C345 C344 1.391 . S
C345 C349 1.376 . S
C346 C344 1.394 . S
C346 C347 1.369 . S
C346 C350 1.531 . S
C347 C346 1.369 . S
C347 C348 1.410 . S
C347 C355 1.503 . S
C348 C347 1.410 . S
C348 C349 1.392 . S
C348 C351 1.511 . S
C349 C345 1.376 . S
C349 C348 1.392 . S
C349 H361 0.929 . S
C350 C346 1.531 . S
C350 H362 0.960 . S
C350 H363 0.962 . S
C350 H364 0.960 . S
C351 C348 1.511 . S
C351 H365 0.961 . S
C351 H366 0.961 . S
C351 H367 0.961 . S
C352 C353 1.370 . S
C352 C354 1.363 . S
C352 H368 0.931 . S
C353 C352 1.370 . S
C353 C357 1.408 . S
C354 C352 1.363 . S
C354 C355 1.370 . S
C354 C358 1.524 . S
C355 C347 1.503 . S
C355 C354 1.370 . S
C355 C356 1.403 . S
C356 C355 1.403 . S
C356 C357 1.404 . S
C356 C359 1.539 . S
C357 C353 1.408 . S
C357 C356 1.404 . S
C357 H369 0.930 . S
C358 C354 1.524 . S
C358 H370 0.956 . S
C358 H371 0.961 . S
C358 H372 0.961 . S
C359 C356 1.539 . S
C359 H373 0.958 . S
C359 H374 0.961 . S
C359 H375 0.960 . S
H360 C344 0.931 . S
H361 C349 0.929 . S
H362 C350 0.960 . S
H363 C350 0.962 . S
H364 C350 0.960 . S
H365 C351 0.961 . S
H366 C351 0.961 . S
H367 C351 0.961 . S
H368 C352 0.931 . S
H369 C357 0.930 . S
H370 C358 0.956 . S
H371 C358 0.961 . S
H372 C358 0.961 . S
H373 C359 0.958 . S
H374 C359 0.961 . S
H375 C359 0.960 . S
C376 C377 1.391 . S
C376 C378 1.394 . S
C376 H392 0.931 . S
C377 C376 1.391 . S
C377 C381 1.376 . S
C378 C376 1.394 . S
C378 C379 1.369 . S
C378 C382 1.531 . S
C379 C378 1.369 . S
C379 C380 1.410 . S
C379 C387 1.503 . S
C380 C379 1.410 . S
C380 C381 1.392 . S
C380 C383 1.511 . S
C381 C377 1.376 . S
C381 C380 1.392 . S
C381 H393 0.929 . S
C382 C378 1.531 . S
C382 H394 0.960 . S
C382 H395 0.962 . S
C382 H396 0.960 . S
C383 C380 1.511 . S
C383 H397 0.961 . S
C383 H398 0.961 . S
C383 H399 0.961 . S
C384 C385 1.370 . S
C384 C386 1.363 . S
C384 H400 0.931 . S
C385 C384 1.370 . S
C385 C389 1.408 . S
C386 C384 1.363 . S
C386 C387 1.370 . S
C386 C390 1.524 . S
C387 C379 1.503 . S
C387 C386 1.370 . S
C387 C388 1.403 . S
C388 C387 1.403 . S
C388 C389 1.404 . S
C388 C391 1.539 . S
C389 C385 1.408 . S
C389 C388 1.404 . S
C389 H401 0.930 . S
C390 C386 1.524 . S
C390 H402 0.956 . S
C390 H403 0.961 . S
C390 H404 0.961 . S
C391 C388 1.539 . S
C391 H405 0.958 . S
C391 H406 0.961 . S
C391 H407 0.960 . S
H392 C376 0.931 . S
H393 C381 0.929 . S
H394 C382 0.960 . S
H395 C382 0.962 . S
H396 C382 0.960 . S
H397 C383 0.961 . S
H398 C383 0.961 . S
H399 C383 0.961 . S
H400 C384 0.931 . S
H401 C389 0.930 . S
H402 C390 0.956 . S
H403 C390 0.961 . S
H404 C390 0.961 . S
H405 C391 0.958 . S
H406 C391 0.961 . S
H407 C391 0.960 . S
C408 C409 1.391 . S
C408 C410 1.394 . S
C408 H424 0.931 . S
C409 C408 1.391 . S
C409 C413 1.376 . S
C410 C408 1.394 . S
C410 C411 1.369 . S
C410 C414 1.531 . S
C411 C410 1.369 . S
C411 C412 1.410 . S
C411 C419 1.503 . S
C412 C411 1.410 . S
C412 C413 1.392 . S
C412 C415 1.511 . S
C413 C409 1.376 . S
C413 C412 1.392 . S
C413 H425 0.929 . S
C414 C410 1.531 . S
C414 H426 0.960 . S
C414 H427 0.962 . S
C414 H428 0.960 . S
C415 C412 1.511 . S
C415 H429 0.961 . S
C415 H430 0.961 . S
C415 H431 0.961 . S
C416 C417 1.370 . S
C416 C418 1.363 . S
C416 H432 0.931 . S
C417 C416 1.370 . S
C417 C421 1.408 . S
C418 C416 1.363 . S
C418 C419 1.370 . S
C418 C422 1.524 . S
C419 C411 1.503 . S
C419 C418 1.370 . S
C419 C420 1.403 . S
C420 C419 1.403 . S
C420 C421 1.404 . S
C420 C423 1.539 . S
C421 C417 1.408 . S
C421 C420 1.404 . S
C421 H433 0.930 . S
C422 C418 1.524 . S
C422 H434 0.956 . S
C422 H435 0.961 . S
C422 H436 0.961 . S
C423 C420 1.539 . S
C423 H437 0.958 . S
C423 H438 0.961 . S
C423 H439 0.960 . S
H424 C408 0.931 . S
H425 C413 0.929 . S
H426 C414 0.960 . S
H427 C414 0.962 . S
H428 C414 0.960 . S
H429 C415 0.961 . S
H430 C415 0.961 . S
H431 C415 0.961 . S
H432 C416 0.931 . S
H433 C421 0.930 . S
H434 C422 0.956 . S
H435 C422 0.961 . S
H436 C422 0.961 . S
H437 C423 0.958 . S
H438 C423 0.961 . S
H439 C423 0.960 . S
C440 C441 1.391 . S
C440 C442 1.394 . S
C440 H456 0.931 . S
C441 C440 1.391 . S
C441 C445 1.376 . S
C442 C440 1.394 . S
C442 C443 1.369 . S
C442 C446 1.531 . S
C443 C442 1.369 . S
C443 C444 1.410 . S
C443 C451 1.503 1_655 S
C444 C443 1.410 . S
C444 C445 1.392 . S
C444 C447 1.511 . S
C445 C441 1.376 . S
C445 C444 1.392 . S
C445 H457 0.929 . S
C446 C442 1.531 . S
C446 H458 0.960 1_655 S
C446 H459 0.962 . S
C446 H460 0.960 . S
C447 C444 1.511 . S
C447 H461 0.961 . S
C447 H462 0.961 1_655 S
C447 H463 0.961 . S
C448 C449 1.370 . S
C448 C450 1.363 . S
C448 H464 0.931 1_554 S
C449 C448 1.370 . S
C449 C453 1.408 . S
C450 C448 1.363 . S
C450 C451 1.370 . S
C450 C454 1.524 1_554 S
C451 C443 1.503 1_455 S
C451 C450 1.370 . S
C451 C452 1.403 . S
C452 C451 1.403 . S
C452 C453 1.404 . S
C452 C455 1.539 . S
C453 C449 1.408 . S
C453 C452 1.404 . S
C453 H465 0.930 . S
C454 C450 1.524 1_556 S
C454 H466 0.974 . S
C454 H467 0.961 1_455 S
C454 H468 0.961 . S
C455 C452 1.539 . S
C455 H469 0.958 . S
C455 H470 0.961 . S
C455 H471 0.985 . S
H456 C440 0.931 . S
H457 C445 0.929 . S
H458 C446 0.960 1_455 S
H459 C446 0.962 . S
H460 C446 0.960 . S
H461 C447 0.961 . S
H462 C447 0.961 1_455 S
H463 C447 0.961 . S
H464 C448 0.931 1_556 S
H465 C453 0.930 . S
H466 C454 0.974 . S
H467 C454 0.961 1_655 S
H468 C454 0.961 . S
H469 C455 0.958 . S
H470 C455 0.961 . S
H471 C455 0.985 . S
C472 C473 1.391 . S
C472 C474 1.394 . S
C472 H488 0.931 . S
C473 C472 1.391 . S
C473 C477 1.376 . S
C474 C472 1.394 . S
C474 C475 1.369 . S
C474 C478 1.531 . S
C475 C474 1.369 . S
C475 C476 1.410 . S
C475 C483 1.503 1_565 S
C476 C475 1.410 . S
C476 C477 1.392 . S
C476 C479 1.511 . S
C477 C473 1.376 . S
C477 C476 1.392 . S
C477 H489 0.929 . S
C478 C474 1.531 . S
C478 H490 0.960 . S
C478 H491 0.962 . S
C478 H492 0.960 . S
C479 C476 1.511 . S
C479 H493 0.961 . S
C479 H494 0.961 1_565 S
C479 H495 0.961 . S
C480 C481 1.370 . S
C480 C482 1.363 . S
C480 H496 0.931 . S
C481 C480 1.370 . S
C481 C485 1.408 . S
C482 C480 1.363 . S
C482 C483 1.370 . S
C482 C486 1.524 . S
C483 C475 1.503 1_545 S
C483 C482 1.370 . S
C483 C484 1.403 . S
C484 C483 1.403 . S
C484 C485 1.404 . S
C484 C487 1.539 . S
C485 C481 1.408 . S
C485 C484 1.404 . S
C485 H497 0.930 . S
C486 C482 1.524 . S
C486 H498 0.956 1_545 S
C486 H499 0.961 1_545 S
C486 H500 0.961 . S
C487 C484 1.539 . S
C487 H501 0.958 . S
C487 H502 0.961 . S
C487 H503 0.960 . S
H488 C472 0.931 . S
H489 C477 0.929 . S
H490 C478 0.960 . S
H491 C478 0.962 . S
H492 C478 0.960 . S
H493 C479 0.961 . S
H494 C479 0.961 1_545 S
H495 C479 0.961 . S
H496 C480 0.931 . S
H497 C485 0.930 . S
H498 C486 0.956 1_565 S
H499 C486 0.961 1_565 S
H500 C486 0.961 . S
H501 C487 0.958 . S
H502 C487 0.961 . S
H503 C487 0.960 . S
C504 C505 1.391 . S
C504 C506 1.394 . S
C504 H520 0.931 . S
C505 C504 1.391 . S
C505 C509 1.376 . S
C506 C504 1.394 . S
C506 C507 1.369 . S
C506 C510 1.531 . S
C507 C506 1.369 . S
C507 C508 1.410 . S
C507 C515 1.503 1_455 S
C508 C507 1.410 . S
C508 C509 1.392 . S
C508 C511 1.511 . S
C509 C505 1.376 . S
C509 C508 1.392 . S
C509 H521 0.929 . S
C510 C506 1.531 . S
C510 H522 0.960 1_455 S
C510 H523 0.962 . S
C510 H524 0.960 . S
C511 C508 1.511 . S
C511 H525 0.961 . S
C511 H526 0.961 1_455 S
C511 H527 0.961 . S
C512 C513 1.370 . S
C512 C514 1.363 . S
C512 H528 0.931 . S
C513 C512 1.370 . S
C513 C517 1.408 . S
C514 C512 1.363 . S
C514 C515 1.370 . S
C514 C518 1.524 . S
C515 C507 1.503 1_655 S
C515 C514 1.370 . S
C515 C516 1.403 . S
C516 C515 1.403 . S
C516 C517 1.404 . S
C516 C519 1.539 . S
C517 C513 1.408 . S
C517 C516 1.404 . S
C517 H529 0.930 . S
C518 C514 1.524 . S
C518 H530 0.958 . S
C518 H531 0.961 1_655 S
C518 H532 0.961 . S
C519 C516 1.539 . S
C519 H533 0.958 . S
C519 H534 0.961 . S
C519 H535 0.960 . S
H520 C504 0.931 . S
H521 C509 0.929 . S
H522 C510 0.960 1_655 S
H523 C510 0.962 . S
H524 C510 0.960 . S
H525 C511 0.961 . S
H526 C511 0.961 1_655 S
H527 C511 0.961 . S
H528 C512 0.931 . S
H529 C517 0.930 . S
H530 C518 0.958 . S
H531 C518 0.961 1_455 S
H532 C518 0.961 . S
H533 C519 0.958 . S
H534 C519 0.961 . S
H535 C519 0.960 . S
C536 C537 1.391 1_554 S
C536 C538 1.394 . S
C536 H552 0.931 . S
C537 C536 1.391 1_556 S
C537 C541 1.376 . S
C538 C536 1.394 . S
C538 C539 1.369 . S
C538 C542 1.531 . S
C539 C538 1.369 . S
C539 C540 1.410 1_554 S
C539 C547 1.504 1_565 S
C540 C539 1.410 1_556 S
C540 C541 1.392 . S
C540 C543 1.511 . S
C541 C537 1.376 . S
C541 C540 1.392 . S
C541 H553 0.929 . S
C542 C538 1.531 . S
C542 H554 0.960 1_565 S
C542 H555 0.962 . S
C542 H556 0.960 . S
C543 C540 1.511 . S
C543 H557 0.961 . S
C543 H558 0.961 . S
C543 H559 0.961 . S
C544 C545 1.370 . S
C544 C546 1.363 . S
C544 H560 0.931 . S
C545 C544 1.370 . S
C545 C549 1.408 1_556 S
C546 C544 1.363 . S
C546 C547 1.359 1_556 S
C546 C550 1.524 . S
C547 C539 1.504 1_545 S
C547 C546 1.359 1_554 S
C547 C548 1.413 . S
C548 C547 1.413 . S
C548 C549 1.404 . S
C548 C551 1.539 . S
C549 C545 1.408 1_554 S
C549 C548 1.404 . S
C549 H561 0.930 . S
C550 C546 1.524 . S
C550 H562 0.956 . S
C550 H563 0.961 . S
C550 H564 0.961 . S
C551 C548 1.539 . S
C551 H565 0.958 . S
C551 H566 0.961 . S
C551 H567 0.960 1_545 S
H552 C536 0.931 . S
H553 C541 0.929 . S
H554 C542 0.960 1_545 S
H555 C542 0.962 . S
H556 C542 0.960 . S
H557 C543 0.961 . S
H558 C543 0.961 . S
H559 C543 0.961 . S
H560 C544 0.931 . S
H561 C549 0.930 . S
H562 C550 0.956 . S
H563 C550 0.961 . S
H564 C550 0.961 . S
H565 C551 0.958 . S
H566 C551 0.961 . S
H567 C551 0.960 1_565 S
C568 C569 1.372 1_556 S
C568 C570 1.391 1_556 S
C568 H584 0.952 . S
C569 C568 1.372 1_554 S
C569 C573 1.376 . S
C570 C568 1.391 1_554 S
C570 C571 1.369 . S
C570 C574 1.531 1_554 S
C571 C570 1.369 . S
C571 C572 1.410 . S
C571 C579 1.503 . S
C572 C571 1.410 . S
C572 C573 1.392 . S
C572 C575 1.511 . S
C573 C569 1.376 . S
C573 C572 1.392 . S
C573 H585 0.929 . S
C574 C570 1.531 1_556 S
C574 H586 0.960 . S
C574 H587 0.962 . S
C574 H588 0.960 . S
C575 C572 1.511 . S
C575 H589 0.961 . S
C575 H590 0.961 . S
C575 H591 0.961 . S
C576 C577 1.370 . S
C576 C578 1.363 . S
C576 H592 0.931 1_554 S
C577 C576 1.370 . S
C577 C581 1.408 . S
C578 C576 1.363 . S
C578 C579 1.370 . S
C578 C582 1.524 1_554 S
C579 C571 1.503 . S
C579 C578 1.370 . S
C579 C580 1.403 . S
C580 C579 1.403 . S
C580 C581 1.404 . S
C580 C583 1.539 . S
C581 C577 1.408 . S
C581 C580 1.404 . S
C581 H593 0.930 . S
C582 C578 1.524 1_556 S
C582 H594 0.956 . S
C582 H595 0.961 1_556 S
C582 H596 0.961 . S
C583 C580 1.539 . S
C583 H597 0.958 . S
C583 H598 0.961 . S
C583 H599 0.960 . S
H584 C568 0.952 . S
H585 C573 0.929 . S
H586 C574 0.960 . S
H587 C574 0.962 . S
H588 C574 0.960 . S
H589 C575 0.961 . S
H590 C575 0.961 . S
H591 C575 0.961 . S
H592 C576 0.931 1_556 S
H593 C581 0.930 . S
H594 C582 0.956 . S
H595 C582 0.961 1_554 S
H596 C582 0.961 . S
H597 C583 0.958 . S
H598 C583 0.961 . S
H599 C583 0.960 . S
C600 C601 1.391 . S
C600 C602 1.394 . S
C600 H616 0.931 . S
C601 C600 1.391 . S
C601 C605 1.376 . S
C602 C600 1.394 . S
C602 C603 1.369 . S
C602 C606 1.531 . S
C603 C602 1.369 . S
C603 C604 1.410 . S
C603 C611 1.503 . S
C604 C603 1.410 . S
C604 C605 1.392 . S
C604 C607 1.511 . S
C605 C601 1.376 . S
C605 C604 1.392 . S
C605 H617 0.929 . S
C606 C602 1.531 . S
C606 H618 0.960 . S
C606 H619 0.962 . S
C606 H620 0.960 . S
C607 C604 1.511 . S
C607 H621 0.961 . S
C607 H622 0.961 . S
C607 H623 0.961 . S
C608 C609 1.370 . S
C608 C610 1.363 . S
C608 H624 0.931 . S
C609 C608 1.370 . S
C609 C613 1.408 . S
C610 C608 1.363 . S
C610 C611 1.370 . S
C610 C614 1.524 . S
C611 C603 1.503 . S
C611 C610 1.370 . S
C611 C612 1.403 . S
C612 C611 1.403 . S
C612 C613 1.404 . S
C612 C615 1.539 . S
C613 C609 1.408 . S
C613 C612 1.404 . S
C613 H625 0.930 . S
C614 C610 1.524 . S
C614 H626 0.956 . S
C614 H627 0.961 . S
C614 H628 0.961 . S
C615 C612 1.539 . S
C615 H629 0.958 . S
C615 H630 0.961 . S
C615 H631 0.960 . S
H616 C600 0.931 . S
H617 C605 0.929 . S
H618 C606 0.960 . S
H619 C606 0.962 . S
H620 C606 0.960 . S
H621 C607 0.961 . S
H622 C607 0.961 . S
H623 C607 0.961 . S
H624 C608 0.931 . S
H625 C613 0.930 . S
H626 C614 0.956 . S
H627 C614 0.961 . S
H628 C614 0.961 . S
H629 C615 0.958 . S
H630 C615 0.961 . S
H631 C615 0.960 . S
C632 C633 1.391 . S
C632 C634 1.394 . S
C632 H648 0.931 . S
C633 C632 1.391 . S
C633 C637 1.376 . S
C634 C632 1.394 . S
C634 C635 1.369 . S
C634 C638 1.531 . S
C635 C634 1.369 . S
C635 C636 1.410 . S
C635 C643 1.503 . S
C636 C635 1.410 . S
C636 C637 1.392 . S
C636 C639 1.511 . S
C637 C633 1.376 . S
C637 C636 1.392 . S
C637 H649 0.929 . S
C638 C634 1.531 . S
C638 H650 0.960 1_554 S
C638 H651 0.962 . S
C638 H652 0.960 1_554 S
C639 C636 1.511 . S
C639 H653 0.961 . S
C639 H654 0.961 . S
C639 H655 0.944 1_554 S
C640 C641 1.370 . S
C640 C642 1.363 . S
C640 H656 0.931 . S
C641 C640 1.370 . S
C641 C645 1.408 1_554 S
C642 C640 1.363 . S
C642 C643 1.370 . S
C642 C646 1.524 . S
C643 C635 1.503 . S
C643 C642 1.370 . S
C643 C644 1.403 1_554 S
C644 C643 1.403 1_556 S
C644 C645 1.404 . S
C644 C647 1.539 . S
C645 C641 1.408 1_556 S
C645 C644 1.404 . S
C645 H657 0.930 . S
C646 C642 1.524 . S
C646 H658 0.956 . S
C646 H659 0.961 . S
C646 H660 0.961 . S
C647 C644 1.539 . S
C647 H661 0.958 . S
C647 H662 0.961 . S
C647 H663 0.960 . S
H648 C632 0.931 . S
H649 C637 0.929 . S
H650 C638 0.960 1_556 S
H651 C638 0.962 . S
H652 C638 0.960 1_556 S
H653 C639 0.961 . S
H654 C639 0.961 . S
H655 C639 0.944 1_556 S
H656 C640 0.931 . S
H657 C645 0.930 . S
H658 C646 0.956 . S
H659 C646 0.961 . S
H660 C646 0.961 . S
H661 C647 0.958 . S
H662 C647 0.961 . S
H663 C647 0.960 . S
C664 C665 1.391 . S
C664 C666 1.394 . S
C664 H680 0.931 . S
C665 C664 1.391 . S
C665 C669 1.376 . S
C666 C664 1.394 . S
C666 C667 1.369 . S
C666 C670 1.531 . S
C667 C666 1.369 . S
C667 C668 1.410 . S
C667 C675 1.503 . S
C668 C667 1.410 . S
C668 C669 1.392 . S
C668 C671 1.511 . S
C669 C665 1.376 . S
C669 C668 1.392 . S
C669 H681 0.929 . S
C670 C666 1.531 . S
C670 H682 0.960 . S
C670 H683 0.962 . S
C670 H684 0.960 . S
C671 C668 1.511 . S
C671 H685 0.961 . S
C671 H686 0.961 . S
C671 H687 0.961 . S
C672 C673 1.370 . S
C672 C674 1.363 . S
C672 H688 0.931 . S
C673 C672 1.370 . S
C673 C677 1.408 . S
C674 C672 1.363 . S
C674 C675 1.370 . S
C674 C678 1.524 . S
C675 C667 1.503 . S
C675 C674 1.370 . S
C675 C676 1.403 . S
C676 C675 1.403 . S
C676 C677 1.404 . S
C676 C679 1.539 . S
C677 C673 1.408 . S
C677 C676 1.404 . S
C677 H689 0.930 . S
C678 C674 1.524 . S
C678 H690 0.956 . S
C678 H691 0.961 . S
C678 H692 0.961 . S
C679 C676 1.539 . S
C679 H693 0.958 . S
C679 H694 0.961 . S
C679 H695 0.960 . S
H680 C664 0.931 . S
H681 C669 0.929 . S
H682 C670 0.960 . S
H683 C670 0.962 . S
H684 C670 0.960 . S
H685 C671 0.961 . S
H686 C671 0.961 . S
H687 C671 0.961 . S
H688 C672 0.931 . S
H689 C677 0.930 . S
H690 C678 0.956 . S
H691 C678 0.961 . S
H692 C678 0.961 . S
H693 C679 0.958 . S
H694 C679 0.961 . S
H695 C679 0.960 . S
C185 N12 0.400 . S
C193 N104 0.463 . S
C217 C39 1.767 . S
C225 C131 1.781 . S
C249 N150 0.393 . S
C257 N58 0.459 . S
C281 C177 1.767 . S
C289 C85 1.781 . S
C313 N140 1.274 . S
C321 N48 1.336 . S
C345 C168 2.683 . S
C353 C76 2.682 . S
C377 N2 1.303 . S
C385 N94 1.328 . S
C409 C30 2.683 . S
C417 C122 2.682 . S
C441 C53 1.884 . S
C449 C7 1.879 . S
C473 N71 1.820 . S
C481 N25 1.783 . S
C505 C99 1.894 . S
C513 C145 1.867 . S
C537 N163 1.744 1_556 S
C545 N117 1.793 1_556 S
C569 C16 1.823 . S
C577 N127 1.815 . S
C601 C154 1.804 . S
C609 N35 1.816 . S
C633 C62 1.830 . S
C641 N173 1.794 . S
C665 N81 1.826 . S
C673 C108 1.821 . S
