# Generated by pormake.
# Topology wjz, (5)-cn, num edge types: 1
# Building blocks:
#     Node 0, Type 0, BuildingBlock: XOMCOT_clean_sbu_1, # of connection points: 5
#     Node 1, Type 0, BuildingBlock: XOMCOT_clean_sbu_1, # of connection points: 5
#     Node 2, Type 0, BuildingBlock: XOMCOT_clean_sbu_1, # of connection points: 5
#     Node 3, Type 0, BuildingBlock: XOMCOT_clean_sbu_1, # of connection points: 5
#     Node 4, Type 0, BuildingBlock: XOMCOT_clean_sbu_1, # of connection points: 5
#     Node 5, Type 0, BuildingBlock: XOMCOT_clean_sbu_1, # of connection points: 5
#     Node 6, Type 0, BuildingBlock: XOMCOT_clean_sbu_1, # of connection points: 5
#     Node 7, Type 0, BuildingBlock: XOMCOT_clean_sbu_1, # of connection points: 5
#     Node 8, Type 0, BuildingBlock: XOMCOT_clean_sbu_1, # of connection points: 5
#     Node 9, Type 0, BuildingBlock: XOMCOT_clean_sbu_1, # of connection points: 5
#     Node 10, Type 0, BuildingBlock: XOMCOT_clean_sbu_1, # of connection points: 5
#     Node 11, Type 0, BuildingBlock: XOMCOT_clean_sbu_1, # of connection points: 5
#     Edge 12, Type (0, 0), BuildingBlock: OJICUG_clean_linker_0, # of connection points: 2
#     Edge 13, Type (0, 0), BuildingBlock: OJICUG_clean_linker_0, # of connection points: 2
#     Edge 14, Type (0, 0), BuildingBlock: OJICUG_clean_linker_0, # of connection points: 2
#     Edge 15, Type (0, 0), BuildingBlock: OJICUG_clean_linker_0, # of connection points: 2
#     Edge 16, Type (0, 0), BuildingBlock: OJICUG_clean_linker_0, # of connection points: 2
#     Edge 17, Type (0, 0), BuildingBlock: OJICUG_clean_linker_0, # of connection points: 2
#     Edge 18, Type (0, 0), BuildingBlock: OJICUG_clean_linker_0, # of connection points: 2
#     Edge 19, Type (0, 0), BuildingBlock: OJICUG_clean_linker_0, # of connection points: 2
#     Edge 20, Type (0, 0), BuildingBlock: OJICUG_clean_linker_0, # of connection points: 2
#     Edge 21, Type (0, 0), BuildingBlock: OJICUG_clean_linker_0, # of connection points: 2
#     Edge 22, Type (0, 0), BuildingBlock: OJICUG_clean_linker_0, # of connection points: 2
#     Edge 23, Type (0, 0), BuildingBlock: OJICUG_clean_linker_0, # of connection points: 2
#     Edge 24, Type (0, 0), BuildingBlock: OJICUG_clean_linker_0, # of connection points: 2
#     Edge 25, Type (0, 0), BuildingBlock: OJICUG_clean_linker_0, # of connection points: 2
#     Edge 26, Type (0, 0), BuildingBlock: OJICUG_clean_linker_0, # of connection points: 2
#     Edge 27, Type (0, 0), BuildingBlock: OJICUG_clean_linker_0, # of connection points: 2
#     Edge 28, Type (0, 0), BuildingBlock: OJICUG_clean_linker_0, # of connection points: 2
#     Edge 29, Type (0, 0), BuildingBlock: OJICUG_clean_linker_0, # of connection points: 2
#     Edge 30, Type (0, 0), BuildingBlock: OJICUG_clean_linker_0, # of connection points: 2
#     Edge 31, Type (0, 0), BuildingBlock: OJICUG_clean_linker_0, # of connection points: 2
#     Edge 32, Type (0, 0), BuildingBlock: OJICUG_clean_linker_0, # of connection points: 2
#     Edge 33, Type (0, 0), BuildingBlock: OJICUG_clean_linker_0, # of connection points: 2
#     Edge 34, Type (0, 0), BuildingBlock: OJICUG_clean_linker_0, # of connection points: 2
#     Edge 35, Type (0, 0), BuildingBlock: OJICUG_clean_linker_0, # of connection points: 2
#     Edge 36, Type (0, 0), BuildingBlock: OJICUG_clean_linker_0, # of connection points: 2
#     Edge 37, Type (0, 0), BuildingBlock: OJICUG_clean_linker_0, # of connection points: 2
#     Edge 38, Type (0, 0), BuildingBlock: OJICUG_clean_linker_0, # of connection points: 2
#     Edge 39, Type (0, 0), BuildingBlock: OJICUG_clean_linker_0, # of connection points: 2
#     Edge 40, Type (0, 0), BuildingBlock: OJICUG_clean_linker_0, # of connection points: 2
#     Edge 41, Type (0, 0), BuildingBlock: OJICUG_clean_linker_0, # of connection points: 2
# Relax obj value: 0.180
# Max RMSD: 0.195
# Mean RMSD: 0.195
data_MOF--net-wjz--node1-XOMCOT_clean_sbu_1--edge1-OJICUG_clean_linker_0
_symmetry_space_group_name_H-M    P1
_symmetry_Int_Tables_number       1
_symmetry_cell_setting            triclinic
loop_
_symmetry_equiv_pos_as_xyz
'x, y, z'
_cell_length_a     55.662489
_cell_length_b     55.651437
_cell_length_c     13.379933
_cell_angle_alpha  89.95017
_cell_angle_beta   90.074746
_cell_angle_gamma 119.97669
loop_
_atom_site_label
_atom_site_type_symbol
_atom_site_fract_x
_atom_site_fract_y
_atom_site_fract_z
_atom_type_partial_charge
C0 C 0.3185 0.45557 0.04042 0.0
C1 C 0.31627 0.4539 0.9375 0.0
N2 N 0.32512 0.4796 0.90139 0.0
N3 N 0.32878 0.48221 0.06854 0.0
C4 C 0.33193 0.49613 0.98231 0.0
H5 H 0.31435 0.43877 0.09105 0.0
Co6 Co 0.34039 0.49749 0.1962 0.0
C7 C 0.39207 0.5487 0.1309 0.0
O8 O 0.40748 0.54478 0.19607 0.0
N9 N 0.35101 0.51281 0.32548 0.0
C10 C 0.36593 0.54041 0.45883 0.0
C11 C 0.36669 0.53935 0.35625 0.0
C12 C 0.33988 0.49849 0.41086 0.0
N13 N 0.34907 0.51456 0.49347 0.0
O14 O 0.31178 0.50666 0.19929 0.0
H15 H 0.37695 0.55725 0.30823 0.0
H16 H 0.32478 0.47661 0.41182 0.0
O17 O 0.36579 0.53297 0.13222 0.0
C18 C 0.28967 0.48518 0.22786 0.0
O19 O 0.29058 0.46241 0.24552 0.0
N20 N 0.36714 0.48579 0.19539 0.0
C21 C 0.40028 0.46115 0.19325 0.0
C22 C 0.40142 0.47822 0.11434 0.0
C23 C 0.3841 0.48971 0.11559 0.0
C24 C 0.36532 0.46844 0.2708 0.0
C25 C 0.38196 0.45633 0.27212 0.0
H26 H 0.38356 0.50087 0.0505 0.0
H27 H 0.34988 0.46251 0.328 0.0
H28 H 0.33996 0.51824 0.97803 0.0
H29 H 0.31022 0.43557 0.89265 0.0
H30 H 0.37624 0.55904 0.50369 0.0
H31 H 0.4145 0.48148 0.04999 0.0
H32 H 0.3799 0.44262 0.33314 0.0
C33 C 0.84936 0.32203 0.18409 0.0
C34 C 0.84878 0.31988 0.0812 0.0
N35 N 0.8336 0.33067 0.04488 0.0
N36 N 0.83465 0.33416 0.21201 0.0
C37 C 0.82483 0.33854 0.12565 0.0
H38 H 0.86101 0.31656 0.23486 0.0
Co39 Co 0.83237 0.34663 0.33959 0.0
C40 C 0.83651 0.40025 0.27578 0.0
O41 O 0.85605 0.41453 0.34174 0.0
N42 N 0.82913 0.35826 0.4689 0.0
C43 C 0.8174 0.37417 0.60195 0.0
C44 C 0.819 0.37461 0.49933 0.0
C45 C 0.83213 0.34711 0.55461 0.0
N46 N 0.82573 0.35681 0.6369 0.0
O47 O 0.79385 0.31971 0.34491 0.0
H48 H 0.81153 0.385 0.45103 0.0
H49 H 0.83803 0.33135 0.55623 0.0
O50 O 0.82456 0.37381 0.27563 0.0
C51 C 0.79265 0.29749 0.37598 0.0
O52 O 0.8161 0.29779 0.39222 0.0
N53 N 0.87129 0.3712 0.3372 0.0
C54 C 0.92917 0.40062 0.33351 0.0
C55 C 0.91398 0.40406 0.25708 0.0
C56 C 0.885 0.38841 0.25866 0.0
C57 C 0.88607 0.36694 0.4095 0.0
C58 C 0.91495 0.38164 0.40981 0.0
H59 H 0.87367 0.38931 0.19474 0.0
H60 H 0.87572 0.35097 0.46448 0.0
H61 H 0.81219 0.34823 0.12116 0.0
H62 H 0.86003 0.31256 0.03652 0.0
H63 H 0.80945 0.38485 0.64666 0.0
H64 H 0.9244 0.41764 0.19438 0.0
H65 H 0.9261 0.37767 0.46794 0.0
C66 C 0.53592 0.85883 0.35921 0.0
C67 C 0.53756 0.85829 0.25631 0.0
N68 N 0.5117 0.84253 0.21989 0.0
N69 N 0.50914 0.84353 0.38707 0.0
C70 C 0.49506 0.8334 0.30065 0.0
H71 H 0.5529 0.87084 0.41001 0.0
Co72 Co 0.49418 0.84089 0.51453 0.0
C73 C 0.44379 0.84322 0.44845 0.0
O74 O 0.44817 0.86284 0.51278 0.0
N75 N 0.4792 0.83733 0.64368 0.0
C76 C 0.45168 0.82546 0.77699 0.0
C77 C 0.45274 0.82708 0.67435 0.0
C78 C 0.49346 0.84044 0.72921 0.0
N79 N 0.47742 0.83396 0.81173 0.0
O80 O 0.48316 0.80259 0.51974 0.0
H81 H 0.43485 0.81958 0.62627 0.0
H82 H 0.51519 0.8466 0.7304 0.0
O83 O 0.45909 0.83216 0.45043 0.0
C84 C 0.50372 0.80053 0.55025 0.0
O85 O 0.52734 0.82347 0.56656 0.0
N86 N 0.50755 0.87966 0.51195 0.0
C87 C 0.53297 0.93743 0.51115 0.0
C88 C 0.5151 0.92183 0.43353 0.0
C89 C 0.50334 0.89298 0.43366 0.0
C90 C 0.52607 0.89489 0.58499 0.0
C91 C 0.53874 0.92371 0.58674 0.0
H92 H 0.49148 0.88148 0.36938 0.0
H93 H 0.53223 0.88498 0.64012 0.0
H94 H 0.4728 0.82025 0.29611 0.0
H95 H 0.55607 0.86994 0.21168 0.0
H96 H 0.43307 0.81744 0.82182 0.0
H97 H 0.51121 0.93191 0.37138 0.0
H98 H 0.55329 0.93523 0.6459 0.0
C99 C 0.6642 0.54448 0.49845 0.0
C100 C 0.66568 0.54614 0.39574 0.0
N101 N 0.66337 0.52244 0.35971 0.0
N102 N 0.66053 0.51967 0.52743 0.0
C103 C 0.66104 0.50719 0.44159 0.0
H104 H 0.66489 0.56012 0.54805 0.0
Co105 Co 0.65337 0.50384 0.65512 0.0
C106 C 0.61443 0.44188 0.58983 0.0
O107 O 0.61014 0.42692 0.67073 0.0
N108 N 0.64717 0.48842 0.78327 0.0
C109 C 0.65077 0.46586 0.9146 0.0
C110 C 0.65019 0.46682 0.81208 0.0
C111 C 0.64672 0.50068 0.86991 0.0
N112 N 0.64883 0.48737 0.951 0.0
O113 O 0.68436 0.49857 0.64399 0.0
H114 H 0.6546 0.45427 0.7622 0.0
H115 H 0.64667 0.52001 0.87369 0.0
O116 O 0.62956 0.46821 0.59291 0.0
C117 C 0.70622 0.51967 0.67598 0.0
O118 O 0.70506 0.542 0.69937 0.0
N119 N 0.62379 0.51069 0.66958 0.0
C120 C 0.58575 0.52903 0.69186 0.0
C121 C 0.57745 0.50274 0.6517 0.0
C122 C 0.59679 0.49385 0.64154 0.0
C123 C 0.63205 0.53616 0.70946 0.0
C124 C 0.61339 0.54569 0.72182 0.0
H125 H 0.58985 0.47366 0.60983 0.0
H126 H 0.65355 0.5494 0.73017 0.0
H127 H 0.6591 0.48689 0.43953 0.0
H128 H 0.66714 0.56309 0.35146 0.0
H129 H 0.65471 0.45183 0.95841 0.0
H130 H 0.55623 0.48924 0.62794 0.0
H131 H 0.62081 0.56632 0.75148 0.0
C132 C 0.13569 0.66798 0.68484 0.0
C133 C 0.13617 0.67013 0.58193 0.0
N134 N 0.15169 0.65974 0.54566 0.0
N135 N 0.15079 0.65626 0.71279 0.0
C136 C 0.16073 0.6521 0.62645 0.0
H137 H 0.12389 0.67321 0.73561 0.0
Co138 Co 0.15356 0.64413 0.8405 0.0
C139 C 0.15027 0.59087 0.77848 0.0
O140 O 0.13143 0.57663 0.8466 0.0
N141 N 0.15728 0.63289 0.96998 0.0
C142 C 0.16976 0.61769 0.10334 0.0
C143 C 0.16821 0.61723 1.0007 0.0
C144 C 0.15381 0.64373 0.05553 0.0
N145 N 0.16063 0.63442 0.13798 0.0
O146 O 0.19184 0.67134 0.84486 0.0
H147 H 0.17623 0.60735 0.95255 0.0
H148 H 0.14727 0.65902 0.05697 0.0
O149 O 0.16181 0.61727 0.77712 0.0
C150 C 0.19301 0.69353 0.87577 0.0
O151 O 0.16956 0.69318 0.89256 0.0
N152 N 0.11483 0.619 0.83872 0.0
C153 C 0.05686 0.58671 0.83877 0.0
C154 C 0.07257 0.5844 0.76127 0.0
C155 C 0.10138 0.60143 0.76091 0.0
C156 C 0.09974 0.62263 0.9111 0.0
C157 C 0.07094 0.60659 0.91334 0.0
H158 H 0.11279 0.60094 0.69667 0.0
H159 H 0.10972 0.63902 0.96488 0.0
H160 H 0.17369 0.64277 0.62203 0.0
H161 H 0.12468 0.67719 0.53722 0.0
H162 H 0.1782 0.60749 0.14833 0.0
H163 H 0.06284 0.56993 0.70032 0.0
H164 H 0.05984 0.61066 0.97112 0.0
C165 C 0.44858 0.13144 0.86013 0.0
C166 C 0.44636 0.13187 0.75755 0.0
N167 N 0.47207 0.14688 0.71869 0.0
N168 N 0.47555 0.14599 0.88598 0.0
C169 C 0.48923 0.15551 0.79852 0.0
H170 H 0.43175 0.12029 0.91228 0.0
Co171 Co 0.4905 0.14868 0.01367 0.0
C172 C 0.54148 0.14742 0.95007 0.0
O173 O 0.53724 0.12803 0.01539 0.0
N174 N 0.50533 0.15223 0.14326 0.0
C175 C 0.53257 0.16484 0.27799 0.0
C176 C 0.53183 0.16321 0.17525 0.0
C177 C 0.4907 0.14859 0.2281 0.0
N178 N 0.50658 0.15554 0.31106 0.0
O179 O 0.50073 0.18671 0.02002 0.0
H180 H 0.54988 0.17114 0.12796 0.0
H181 H 0.46896 0.14248 0.22882 0.0
O182 O 0.5259 0.15816 0.95048 0.0
C183 C 0.47983 0.18806 0.05104 0.0
O184 O 0.45646 0.16475 0.06598 0.0
N185 N 0.4778 0.11013 0.01015 0.0
C186 C 0.453 0.05247 0.00776 0.0
C187 C 0.47099 0.06837 0.93099 0.0
C188 C 0.48245 0.09716 0.93188 0.0
C189 C 0.45917 0.0946 0.08235 0.0
C190 C 0.44681 0.06582 0.08334 0.0
H191 H 0.4944 0.1089 0.86817 0.0
H192 H 0.45265 0.10423 0.13723 0.0
H193 H 0.51153 0.1674 0.79288 0.0
H194 H 0.42727 0.12131 0.71523 0.0
H195 H 0.55092 0.17279 0.3244 0.0
H196 H 0.47519 0.05854 0.86885 0.0
H197 H 0.43213 0.05404 0.14177 0.0
C198 C 0.52982 0.67004 0.83446 0.0
C199 C 0.53149 0.67245 0.93734 0.0
N200 N 0.50574 0.66323 0.97336 0.0
N201 N 0.50313 0.65926 0.80618 0.0
C202 C 0.48917 0.65608 0.89231 0.0
H203 H 0.54667 0.67426 0.78408 0.0
Co204 Co 0.48794 0.64675 0.67857 0.0
C205 C 0.43739 0.59521 0.74543 0.0
O206 O 0.44183 0.58007 0.68082 0.0
N207 N 0.47278 0.63546 0.54927 0.0
C208 C 0.44528 0.62049 0.41554 0.0
C209 C 0.44628 0.61965 0.51816 0.0
C210 C 0.48713 0.64669 0.46402 0.0
N211 N 0.47111 0.63752 0.3812 0.0
O212 O 0.47878 0.6754 0.67091 0.0
H213 H 0.42835 0.60935 0.56598 0.0
H214 H 0.50903 0.66175 0.46341 0.0
O215 O 0.45238 0.6216 0.74276 0.0
C216 C 0.50017 0.69732 0.64048 0.0
O217 O 0.52307 0.69645 0.6256 0.0
N218 N 0.49945 0.61969 0.68394 0.0
C219 C 0.52165 0.58434 0.69206 0.0
C220 C 0.5071 0.58652 0.77356 0.0
C221 C 0.4965 0.60455 0.76845 0.0
C222 C 0.51467 0.61859 0.60603 0.0
C223 C 0.52539 0.60069 0.60761 0.0
H224 H 0.48633 0.60667 0.83361 0.0
H225 H 0.51984 0.63239 0.54356 0.0
H226 H 0.46698 0.64757 0.89652 0.0
H227 H 0.54986 0.67872 0.98228 0.0
H228 H 0.42667 0.61021 0.37047 0.0
H229 H 0.50423 0.57468 0.84121 0.0
H230 H 0.53765 0.60065 0.54485 0.0
C231 C 0.86207 0.54506 0.98759 0.0
C232 C 0.86179 0.54686 0.09048 0.0
N233 N 0.84469 0.5213 0.12704 0.0
N234 N 0.84526 0.51848 0.95988 0.0
C235 C 0.83452 0.50472 0.04636 0.0
H236 H 0.87492 0.56169 0.93671 0.0
Co237 Co 0.84173 0.50323 0.83247 0.0
C238 C 0.83906 0.45021 0.8956 0.0
O239 O 0.85774 0.4532 0.82916 0.0
N240 N 0.8373 0.48808 0.70313 0.0
C241 C 0.82262 0.46046 0.56975 0.0
C242 C 0.82414 0.46138 0.67239 0.0
C243 C 0.84222 0.50278 0.61755 0.0
N244 N 0.83405 0.48662 0.53508 0.0
O245 O 0.80454 0.49558 0.82477 0.0
H246 H 0.81447 0.44344 0.72045 0.0
H247 H 0.85067 0.52497 0.61617 0.0
O248 O 0.8299 0.46717 0.89626 0.0
C249 C 0.80472 0.51717 0.79213 0.0
O250 O 0.82879 0.53978 0.77832 0.0
N251 N 0.87964 0.51335 0.8371 0.0
C252 C 0.93682 0.53318 0.83912 0.0
C253 C 0.91976 0.51621 0.91657 0.0
C254 C 0.89144 0.50738 0.91583 0.0
C255 C 0.8962 0.53127 0.76505 0.0
C256 C 0.92463 0.54114 0.76388 0.0
H257 H 0.87912 0.49612 0.97957 0.0
H258 H 0.88778 0.53916 0.71033 0.0
H259 H 0.82022 0.48266 0.05102 0.0
H260 H 0.8745 0.56516 0.13498 0.0
H261 H 0.81254 0.44182 0.52482 0.0
H262 H 0.92807 0.50995 0.97801 0.0
H263 H 0.93701 0.55571 0.7061 0.0
C264 C 0.31761 0.85314 0.15406 0.0
C265 C 0.3154 0.85252 0.25696 0.0
N266 N 0.32633 0.83747 0.29335 0.0
N267 N 0.32991 0.83858 0.12621 0.0
C268 C 0.33433 0.82881 0.21262 0.0
H269 H 0.31205 0.86471 0.10325 0.0
Co270 Co 0.34249 0.83639 0.99868 0.0
C271 C 0.39616 0.84094 0.06385 0.0
O272 O 0.41059 0.86053 0.99829 0.0
N273 N 0.35421 0.83326 0.86941 0.0
C274 C 0.3705 0.82203 0.7362 0.0
C275 C 0.37097 0.82363 0.83884 0.0
C276 C 0.34281 0.83596 0.78379 0.0
N277 N 0.35273 0.82986 0.70137 0.0
O278 O 0.31602 0.79789 0.99359 0.0
H279 H 0.38172 0.81655 0.88703 0.0
H280 H 0.3268 0.84151 0.78236 0.0
O281 O 0.36973 0.82885 0.06271 0.0
C282 C 0.29353 0.79599 0.9624 0.0
O283 O 0.29304 0.81903 0.94591 0.0
N284 N 0.36683 0.8753 1.00105 0.0
C285 C 0.39679 0.93314 1.00273 0.0
C286 C 0.39998 0.91804 0.08006 0.0
C287 C 0.38406 0.88909 0.07949 0.0
C288 C 0.36268 0.89 0.92815 0.0
C289 C 0.37766 0.91887 0.92679 0.0
H290 H 0.38495 0.87786 0.14376 0.0
H291 H 0.3467 0.8796 0.87317 0.0
H292 H 0.34414 0.81628 0.21719 0.0
H293 H 0.30795 0.86365 0.3016 0.0
H294 H 0.38149 0.81445 0.6914 0.0
H295 H 0.41367 0.92853 0.14248 0.0
H296 H 0.37389 0.92997 0.86792 0.0
C297 C 0.45353 0.32233 0.34049 0.0
C298 C 0.45171 0.32094 0.44335 0.0
N299 N 0.47707 0.32866 0.48051 0.0
N300 N 0.47993 0.33101 0.31328 0.0
C301 C 0.49353 0.33405 0.40004 0.0
H302 H 0.43697 0.3185 0.28913 0.0
Co303 Co 0.49509 0.34086 0.18565 0.0
C304 C 0.55144 0.38977 0.23292 0.0
O305 O 0.55128 0.40457 0.15655 0.0
N306 N 0.51006 0.3499 0.05639 0.0
C307 C 0.5369 0.35588 0.92461 0.0
C308 C 0.53573 0.35597 0.02724 0.0
C309 C 0.4958 0.34514 0.96989 0.0
N310 N 0.51164 0.34886 0.88873 0.0
O311 O 0.50272 0.31124 0.18579 0.0
H312 H 0.55209 0.35837 0.07699 0.0
H313 H 0.47383 0.33753 0.96591 0.0
O314 O 0.53108 0.36533 0.24632 0.0
C315 C 0.4816 0.28967 0.15205 0.0
O316 O 0.45922 0.29105 0.13144 0.0
N317 N 0.48509 0.36853 0.18294 0.0
C318 C 0.45998 0.40113 0.18017 0.0
C319 C 0.48375 0.40896 0.2381 0.0
C320 C 0.49555 0.39189 0.2408 0.0
C321 C 0.46142 0.36031 0.12931 0.0
C322 C 0.4488 0.37645 0.12547 0.0
H323 H 0.51192 0.3968 0.29386 0.0
H324 H 0.45123 0.34019 0.09413 0.0
H325 H 0.5153 0.3406 0.40455 0.0
H326 H 0.43348 0.316 0.48716 0.0
H327 H 0.55445 0.3589 0.88022 0.0
H328 H 0.49216 0.42722 0.28517 0.0
H329 H 0.42993 0.36924 0.0824 0.0
C330 C 0.12676 0.44877 0.4804 0.0
C331 C 0.12724 0.44657 0.583 0.0
N332 N 0.14255 0.47228 0.62184 0.0
N333 N 0.14157 0.47571 0.45448 0.0
C334 C 0.15131 0.48938 0.54189 0.0
H335 H 0.11545 0.43195 0.42828 0.0
Co336 Co 0.14468 0.49083 0.32684 0.0
C337 C 0.14396 0.54207 0.39333 0.0
O338 O 0.1241 0.53818 0.3308 0.0
N339 N 0.14865 0.50581 0.19751 0.0
C340 C 0.1604 0.53283 0.06248 0.0
C341 C 0.15871 0.53215 0.16523 0.0
C342 C 0.14558 0.49123 0.11298 0.0
N343 N 0.152 0.50695 0.02978 0.0
O344 O 0.18275 0.50116 0.32303 0.0
H345 H 0.16576 0.55017 0.21226 0.0
H346 H 0.13988 0.46959 0.1127 0.0
O347 O 0.15424 0.52612 0.39028 0.0
C348 C 0.18508 0.48066 0.29409 0.0
O349 O 0.16233 0.45699 0.27634 0.0
N350 N 0.1061 0.4783 0.32846 0.0
C351 C 0.04848 0.45448 0.32818 0.0
C352 C 0.06433 0.4718 0.40658 0.0
C353 C 0.09306 0.48277 0.40689 0.0
C354 C 0.09061 0.4603 0.25451 0.0
C355 C 0.06186 0.44844 0.25224 0.0
H356 H 0.10471 0.49425 0.4715 0.0
H357 H 0.1002 0.45397 0.19884 0.0
H358 H 0.16356 0.51167 0.54728 0.0
H359 H 0.11653 0.4275 0.62527 0.0
H360 H 0.16758 0.55103 0.01575 0.0
H361 H 0.05449 0.47588 0.46896 0.0
H362 H 0.05013 0.4343 0.19235 0.0
C363 C 0.6691 0.13763 0.65939 0.0
C364 C 0.67126 0.13822 0.76231 0.0
N365 N 0.66006 0.15301 0.79855 0.0
N366 N 0.65654 0.15194 0.63136 0.0
C367 C 0.65193 0.16155 0.71769 0.0
H368 H 0.67483 0.12621 0.60869 0.0
Co369 Co 0.64379 0.15386 0.50373 0.0
C370 C 0.58993 0.14898 0.56821 0.0
O371 O 0.57559 0.12925 0.50301 0.0
N372 N 0.63189 0.1567 0.37434 0.0
C373 C 0.61552 0.16784 0.24088 0.0
C374 C 0.6151 0.1663 0.34353 0.0
C375 C 0.64323 0.15394 0.28882 0.0
N376 N 0.63328 0.16 0.20627 0.0
O377 O 0.67009 0.19254 0.4979 0.0
H378 H 0.60441 0.17345 0.39156 0.0
H379 H 0.65928 0.14843 0.28756 0.0
O380 O 0.61637 0.16118 0.56743 0.0
C381 C 0.69263 0.19468 0.46616 0.0
O382 O 0.69335 0.17174 0.45001 0.0
N383 N 0.61968 0.11484 0.50675 0.0
C384 C 0.58985 0.05694 0.50895 0.0
C385 C 0.58658 0.07207 0.58588 0.0
C386 C 0.60244 0.10104 0.58509 0.0
C387 C 0.62395 0.10012 0.43437 0.0
C388 C 0.60905 0.07123 0.43331 0.0
H389 H 0.60146 0.11229 0.64904 0.0
H390 H 0.63993 0.11054 0.37948 0.0
H391 H 0.64188 0.17386 0.7221 0.0
H392 H 0.67888 0.12721 0.80706 0.0
H393 H 0.60453 0.17542 0.19591 0.0
H394 H 0.57283 0.06159 0.6481 0.0
H395 H 0.61289 0.06013 0.37475 0.0
C396 C 0.35927 0.52303 0.67456 0.0
C397 C 0.34239 0.50592 0.59666 0.0
H398 H 0.36715 0.52795 0.83164 0.0
C399 C 0.31935 0.47998 0.62164 0.0
H400 H 0.37747 0.54284 0.65909 0.0
C401 C 0.31361 0.47134 0.72141 0.0
C402 C 0.33052 0.48853 0.79863 0.0
H403 H 0.30556 0.46629 0.56459 0.0
H404 H 0.29579 0.45132 0.73835 0.0
C405 C 0.35336 0.51448 0.77403 0.0
C406 C 0.82992 0.3192 0.86494 0.0
C407 C 0.83089 0.33672 0.94208 0.0
H408 H 0.82669 0.31124 0.70806 0.0
C409 C 0.82986 0.36076 0.91737 0.0
H410 H 0.83048 0.30047 0.88196 0.0
C411 C 0.82804 0.36721 0.81779 0.0
C412 C 0.82702 0.34971 0.74007 0.0
H413 H 0.83119 0.37502 0.97493 0.0
H414 H 0.82801 0.38626 0.802 0.0
C415 C 0.82784 0.32552 0.76512 0.0
C416 C 0.51973 0.83924 0.03981 0.0
C417 C 0.50291 0.83963 0.11704 0.0
H418 H 0.52464 0.83631 0.88287 0.0
C419 C 0.47752 0.83787 0.09233 0.0
H420 H 0.5393 0.84039 0.05679 0.0
C421 C 0.46917 0.83588 0.99277 0.0
C422 C 0.48591 0.83542 0.91493 0.0
H423 H 0.46437 0.83876 0.14992 0.0
H424 H 0.44981 0.83528 0.97715 0.0
C425 C 0.51128 0.83699 0.93996 0.0
C426 C 0.64542 0.47703 0.13163 0.0
C427 C 0.65239 0.49632 0.05385 0.0
H428 H 0.64362 0.46991 0.28813 0.0
C429 C 0.66369 0.52452 0.07826 0.0
H430 H 0.63647 0.45514 0.1156 0.0
C431 C 0.66773 0.53313 0.17809 0.0
C432 C 0.66054 0.51379 0.25625 0.0
H433 H 0.66992 0.54008 0.02039 0.0
H434 H 0.6767 0.55503 0.19352 0.0
C435 C 0.64954 0.48562 0.23125 0.0
C436 C 0.15812 0.62382 0.31871 0.0
C437 C 0.15899 0.64129 0.24104 0.0
H438 H 0.15477 0.61584 0.47574 0.0
C439 C 0.15768 0.66522 0.266 0.0
H440 H 0.1585 0.60496 0.30287 0.0
C441 C 0.15533 0.67133 0.36576 0.0
C442 C 0.15456 0.65387 0.44288 0.0
H443 H 0.15868 0.67944 0.20888 0.0
H444 H 0.15442 0.68988 0.38278 0.0
C445 C 0.156 0.63007 0.41819 0.0
C446 C 0.46199 0.13207 0.5412 0.0
C447 C 0.48018 0.15015 0.61454 0.0
H448 H 0.45623 0.11942 0.38785 0.0
C449 C 0.50702 0.17062 0.5849 0.0
H450 H 0.44134 0.1158 0.56058 0.0
C451 C 0.51563 0.17245 0.48569 0.0
C452 C 0.49756 0.15411 0.41306 0.0
H453 H 0.52154 0.18533 0.63809 0.0
H454 H 0.5364 0.18842 0.46577 0.0
C455 C 0.47055 0.13408 0.44178 0.0
C456 C 0.46272 0.62779 0.1998 0.0
C457 C 0.4797 0.64458 0.27811 0.0
H458 H 0.4578 0.62041 0.04246 0.0
C459 C 0.50539 0.66802 0.25357 0.0
H460 H 0.44311 0.60931 0.21492 0.0
C461 C 0.51391 0.67424 0.15381 0.0
C462 C 0.49685 0.65742 0.07613 0.0
H463 H 0.51896 0.68175 0.31102 0.0
H464 H 0.53374 0.69236 0.13724 0.0
C465 C 0.47115 0.63418 0.10036 0.0
C466 C 0.83502 0.47777 0.35419 0.0
C467 C 0.83623 0.49533 0.43199 0.0
H468 H 0.83705 0.47235 0.19702 0.0
C469 C 0.83999 0.52161 0.40707 0.0
H470 H 0.83272 0.45766 0.36997 0.0
C471 C 0.84267 0.53012 0.30721 0.0
C472 C 0.84137 0.51248 0.22992 0.0
H473 H 0.84063 0.53562 0.46431 0.0
H474 H 0.84548 0.5504 0.29027 0.0
C475 C 0.83749 0.4862 0.25461 0.0
C476 C 0.31481 0.83361 0.47334 0.0
C477 C 0.33243 0.83483 0.39618 0.0
H478 H 0.30684 0.83024 0.63023 0.0
C479 C 0.35663 0.83413 0.42091 0.0
H480 H 0.29596 0.83394 0.45631 0.0
C481 C 0.36315 0.83236 0.52044 0.0
C482 C 0.34555 0.83108 0.5982 0.0
H483 H 0.37097 0.8357 0.36333 0.0
H484 H 0.38232 0.83258 0.53617 0.0
C485 C 0.32119 0.83158 0.57316 0.0
C486 C 0.47525 0.32412 0.76078 0.0
C487 C 0.50279 0.34371 0.78586 0.0
H488 H 0.44558 0.30364 0.64385 0.0
C489 C 0.52168 0.35808 0.70879 0.0
H490 H 0.46027 0.31232 0.81819 0.0
C491 C 0.51325 0.35308 0.60903 0.0
C492 C 0.48573 0.33344 0.58371 0.0
H493 H 0.54291 0.37356 0.72567 0.0
H494 H 0.52824 0.36507 0.55197 0.0
C495 C 0.46682 0.31906 0.6608 0.0
C496 C 0.13082 0.47067 0.89968 0.0
C497 C 0.15046 0.49788 0.92779 0.0
H498 H 0.11261 0.44124 0.78146 0.0
C499 C 0.16823 0.51614 0.85445 0.0
H500 H 0.1166 0.45618 0.95419 0.0
C501 C 0.16622 0.50751 0.75517 0.0
C502 C 0.14609 0.48045 0.72606 0.0
H503 H 0.18389 0.5371 0.87388 0.0
H504 H 0.18053 0.52224 0.70162 0.0
C505 C 0.1286 0.46208 0.80018 0.0
C506 C 0.67145 0.15672 0.9787 0.0
C507 C 0.65384 0.15548 0.90131 0.0
H508 H 0.67932 0.15995 0.13571 0.0
C509 C 0.62953 0.15598 0.92574 0.0
H510 H 0.69038 0.15655 0.96192 0.0
C511 C 0.62291 0.15758 0.02522 0.0
C512 C 0.64051 0.15889 0.1032 0.0
H513 H 0.61519 0.15441 0.868 0.0
H514 H 0.60367 0.15722 0.04074 0.0
C515 C 0.66497 0.15857 0.07845 0.0
C516 C 0.43156 0.5649 0.88967 0.0
C517 C 0.42404 0.58257 0.8414 0.0
H518 H 0.42913 0.54236 0.02196 0.0
C519 C 0.40669 0.59027 0.89116 0.0
H520 H 0.44512 0.55883 0.85364 0.0
C521 C 0.39634 0.57962 0.98666 0.0
C522 C 0.40464 0.56259 0.0356 0.0
H523 H 0.40094 0.60418 0.85579 0.0
H524 H 0.38212 0.58484 0.02258 0.0
C525 C 0.42264 0.55571 0.98662 0.0
C526 C 0.86148 0.43085 0.13284 0.0
C527 C 0.83622 0.41389 0.18152 0.0
H528 H 0.88182 0.45355 1.0012 0.0
C529 C 0.81132 0.40779 0.13349 0.0
H530 H 0.88098 0.43572 0.16754 0.0
C531 C 0.81189 0.41932 0.03936 0.0
C532 C 0.83725 0.4356 0.98984 0.0
H533 H 0.79158 0.39443 0.16918 0.0
H534 H 0.79263 0.41532 1.00488 0.0
C535 C 0.86193 0.44086 0.03703 0.0
C536 C 0.42707 0.86598 0.20637 0.0
C537 C 0.40938 0.84065 0.1591 0.0
H538 H 0.45002 0.88643 0.33774 0.0
C539 C 0.40189 0.81576 0.2098 0.0
H540 H 0.43287 0.8855 0.16973 0.0
C541 C 0.41269 0.81631 0.30524 0.0
C542 C 0.42976 0.84175 0.35322 0.0
H543 H 0.38792 0.79599 0.17531 0.0
H544 H 0.40756 0.79697 0.34189 0.0
C545 C 0.43656 0.86651 0.30322 0.0
C546 C 0.57411 0.38753 0.39198 0.0
C547 C 0.57064 0.40343 0.31759 0.0
H548 H 0.59057 0.38713 0.53665 0.0
C549 C 0.58277 0.43216 0.33157 0.0
H550 H 0.5651 0.36534 0.38305 0.0
C551 C 0.59708 0.44454 0.4197 0.0
C552 C 0.60002 0.4286 0.49529 0.0
H553 H 0.58017 0.44496 0.27651 0.0
H554 H 0.6051 0.46655 0.42958 0.0
C555 C 0.58861 0.39997 0.48007 0.0
C556 C 0.12227 0.54915 0.54324 0.0
C557 C 0.14644 0.55628 0.48884 0.0
H558 H 0.10479 0.5527 0.68043 0.0
C559 C 0.17239 0.57382 0.53282 0.0
H560 H 0.10199 0.53537 0.51178 0.0
C561 C 0.17398 0.58488 0.62853 0.0
C562 C 0.14968 0.57713 0.6835 0.0
H563 H 0.19131 0.57918 0.49272 0.0
H564 H 0.19408 0.59933 0.65973 0.0
C565 C 0.12389 0.55878 0.64043 0.0
C566 C 0.58337 0.17444 0.71127 0.0
C567 C 0.57658 0.14943 0.66283 0.0
H568 H 0.57693 0.19349 0.84084 0.0
C569 C 0.55937 0.12423 0.71167 0.0
H570 H 0.59696 0.19413 0.67553 0.0
C571 C 0.54969 0.12395 0.80789 0.0
C572 C 0.55576 0.1488 0.85561 0.0
H573 H 0.55408 0.10464 0.67675 0.0
H574 H 0.5366 0.10412 0.84361 0.0
C575 C 0.57235 0.1741 0.80601 0.0
C576 C 0.26228 0.50965 0.25227 0.0
C577 C 0.26332 0.48502 0.2426 0.0
H578 H 0.23652 0.5277 0.27806 0.0
C579 C 0.23868 0.45943 0.25076 0.0
H580 H 0.28103 0.52966 0.24685 0.0
C581 C 0.21353 0.45832 0.26801 0.0
C582 C 0.21231 0.48277 0.27854 0.0
H583 H 0.23872 0.44006 0.2435 0.0
H584 H 0.19499 0.43814 0.27357 0.0
C585 C 0.23692 0.50852 0.27084 0.0
C586 C 0.74103 0.27133 0.40995 0.0
C587 C 0.76626 0.2717 0.39599 0.0
H588 H 0.69758 0.2465 0.4452 0.0
C589 C 0.76679 0.24687 0.40623 0.0
H590 H 0.74009 0.29024 0.40315 0.0
C591 C 0.74288 0.22226 0.42994 0.0
C592 C 0.71764 0.22166 0.44481 0.0
H593 H 0.78582 0.24634 0.39584 0.0
H594 H 0.74432 0.20362 0.43695 0.0
C595 C 0.71684 0.24643 0.43484 0.0
C596 C 0.52632 0.7726 0.58295 0.0
C597 C 0.50176 0.77352 0.57072 0.0
H598 H 0.54494 0.74809 0.61495 0.0
C599 C 0.47612 0.74897 0.5827 0.0
H600 H 0.54642 0.79109 0.57421 0.0
C601 C 0.47526 0.72401 0.60743 0.0
C602 C 0.50002 0.7233 0.6192 0.0
H603 H 0.45686 0.74915 0.57435 0.0
H604 H 0.45534 0.70531 0.61618 0.0
C605 C 0.52547 0.74786 0.60644 0.0
C606 C 0.78004 0.54246 0.74672 0.0
C607 C 0.77908 0.51708 0.76335 0.0
H608 H 0.75788 0.56307 0.70513 0.0
C609 C 0.75405 0.49222 0.74721 0.0
H610 H 0.79903 0.56199 0.75817 0.0
C611 C 0.73039 0.49287 0.71506 0.0
C612 C 0.73142 0.51838 0.69989 0.0
H613 H 0.75281 0.47236 0.75852 0.0
H614 H 0.71122 0.47347 0.70434 0.0
C615 C 0.75647 0.54311 0.7159 0.0
C616 C 0.24309 0.76867 0.92922 0.0
C617 C 0.26833 0.76913 0.9422 0.0
H618 H 0.19997 0.74471 0.89744 0.0
C619 C 0.26899 0.74432 0.93148 0.0
H620 H 0.24181 0.78738 0.93694 0.0
C621 C 0.24465 0.7195 0.9075 0.0
C622 C 0.21943 0.71927 0.89529 0.0
H623 H 0.28825 0.74416 0.94042 0.0
H624 H 0.24548 0.70055 0.89995 0.0
C625 C 0.21901 0.74412 0.90646 0.0
C626 C 0.4568 0.23936 0.11394 0.0
C627 C 0.48203 0.26394 0.12961 0.0
H628 H 0.43648 0.19646 0.0763 0.0
C629 C 0.50702 0.2637 0.11793 0.0
H630 H 0.43719 0.23884 0.12225 0.0
C631 C 0.50663 0.23919 0.09005 0.0
C632 C 0.48124 0.21462 0.07482 0.0
H633 H 0.52678 0.28246 0.12873 0.0
H634 H 0.52607 0.23938 0.08167 0.0
C635 C 0.4564 0.21502 0.08737 0.0
C636 C 0.40218 0.41749 0.20668 0.0
C637 C 0.416 0.44621 0.18955 0.0
H638 H 0.40537 0.38087 0.21731 0.0
C639 C 0.4446 0.46026 0.1694 0.0
H640 H 0.3801 0.40613 0.22147 0.0
C641 C 0.45917 0.44577 0.16767 0.0
C642 C 0.44518 0.41698 0.18401 0.0
H643 H 0.45569 0.48244 0.15626 0.0
H644 H 0.48121 0.45692 0.15219 0.0
C645 C 0.41659 0.40302 0.20356 0.0
C646 C 0.97573 0.44381 0.33293 0.0
C647 C 0.95971 0.41476 0.32973 0.0
H648 H 0.01683 0.47929 0.33712 0.0
C649 C 0.97296 0.39896 0.3256 0.0
H650 H 0.96582 0.4563 0.33655 0.0
C651 C 0.00183 0.41198 0.32426 0.0
C652 C 0.01794 0.441 0.329 0.0
H653 H 0.96092 0.37651 0.32294 0.0
H654 H 0.01162 0.39936 0.32093 0.0
C655 C 0.00472 0.45686 0.33381 0.0
C656 C 0.5901 0.01233 0.51121 0.0
C657 C 0.57501 0.02634 0.51095 0.0
H658 H 0.58841 0.97301 0.51244 0.0
C659 C 0.5459 0.01101 0.51045 0.0
H660 H 0.61257 0.02379 0.51183 0.0
C661 C 0.53209 0.98198 0.50873 0.0
C662 C 0.54725 0.96802 0.50999 0.0
H663 H 0.53392 0.0215 0.50981 0.0
H664 H 0.50962 0.97044 0.5078 0.0
C665 C 0.57634 0.9834 0.51174 0.0
C666 C 0.566 0.55471 0.78188 0.0
C667 C 0.56636 0.53996 0.69725 0.0
H668 H 0.55142 0.58022 0.84674 0.0
C669 C 0.54981 0.53772 0.61451 0.0
H670 H 0.57837 0.55654 0.84705 0.0
C671 C 0.53436 0.55124 0.61438 0.0
C672 C 0.53499 0.56705 0.69726 0.0
H673 H 0.54981 0.52663 0.54804 0.0
H674 H 0.52246 0.54991 0.54839 0.0
C675 C 0.55038 0.56805 0.78204 0.0
C676 C 0.01112 0.56295 0.92923 0.0
C677 C 0.02597 0.57026 0.8387 0.0
H678 H 0.97185 0.54656 1.00103 0.0
C679 C 0.01098 0.56309 0.74848 0.0
H680 H 0.0218 0.56744 1.00036 0.0
C681 C 0.98208 0.54992 0.74889 0.0
C682 C 0.96734 0.54418 0.83939 0.0
H683 H 0.02148 0.56846 0.67705 0.0
H684 H 0.97136 0.54478 0.67776 0.0
C685 C 0.98225 0.55041 0.92963 0.0
C686 C 0.45425 0.00815 1.005 0.0
C687 C 0.43892 0.02194 1.00549 0.0
H688 H 0.45266 0.96876 1.00605 0.0
C689 C 0.40985 0.00644 1.00557 0.0
H690 H 0.47671 0.01982 1.00534 0.0
C691 C 0.39624 0.97755 1.00438 0.0
C692 C 0.41149 0.9637 1.00497 0.0
H693 H 0.39767 0.01672 1.00565 0.0
H694 H 0.37377 0.96597 1.0039 0.0
C695 C 0.44058 0.97914 1.00598 0.0
loop_
_geom_bond_atom_site_label_1
_geom_bond_atom_site_label_2
_geom_bond_distance
_geom_bond_site_symmetry_2
_ccdc_geom_bond_type
C0 C1 1.351 . S
C0 N3 1.368 . S
C0 H5 0.931 . S
C1 C0 1.351 . S
C1 N2 1.373 . S
C1 H29 0.930 . S
N2 C1 1.373 . S
N2 C4 1.340 . S
N3 C0 1.368 . S
N3 C4 1.321 . S
N3 Co6 2.135 1_556 S
C4 N2 1.340 . S
C4 N3 1.321 . S
C4 H28 0.930 . S
H5 C0 0.931 . S
Co6 N3 2.135 1_554 S
Co6 N9 2.121 . S
Co6 O14 2.055 . S
Co6 O17 2.039 . S
Co6 N20 2.140 . S
C7 O8 1.227 . S
C7 O17 1.265 . S
O8 C7 1.227 . S
N9 Co6 2.121 . S
N9 C11 1.375 . S
N9 C12 1.313 . S
C10 C11 1.338 . S
C10 N13 1.377 . S
C10 H30 0.930 . S
C11 N9 1.375 . S
C11 C10 1.338 . S
C11 H15 0.931 . S
C12 N9 1.313 . S
C12 N13 1.344 . S
C12 H16 0.930 . S
N13 C10 1.377 . S
N13 C12 1.344 . S
O14 Co6 2.055 . S
O14 C18 1.253 . S
H15 C11 0.931 . S
H16 C12 0.930 . S
O17 Co6 2.039 . S
O17 C7 1.265 . S
C18 O14 1.253 . S
C18 O19 1.227 . S
O19 C18 1.227 . S
N20 Co6 2.140 . S
N20 C23 1.346 . S
N20 C24 1.345 . S
C21 C22 1.387 . S
C21 C25 1.391 . S
C22 C21 1.387 . S
C22 C23 1.369 . S
C22 H31 0.929 1_554 S
C23 N20 1.346 . S
C23 C22 1.369 . S
C23 H26 0.928 1_554 S
C24 N20 1.345 . S
C24 C25 1.371 . S
C24 H27 0.931 . S
C25 C21 1.391 . S
C25 C24 1.371 . S
C25 H32 0.930 . S
H26 C23 0.928 1_556 S
H27 C24 0.931 . S
H28 C4 0.930 . S
H29 C1 0.930 . S
H30 C10 0.930 . S
H31 C22 0.929 1_556 S
H32 C25 0.930 . S
C33 C34 1.351 1_554 S
C33 N36 1.368 . S
C33 H38 0.931 . S
C34 C33 1.351 1_556 S
C34 N35 1.373 . S
C34 H62 0.930 . S
N35 C34 1.373 . S
N35 C37 1.340 1_556 S
N36 C33 1.368 . S
N36 C37 1.321 . S
N36 Co39 2.135 . S
C37 N35 1.340 1_554 S
C37 N36 1.321 . S
C37 H61 0.930 . S
H38 C33 0.931 . S
Co39 N36 2.135 . S
Co39 N42 2.121 . S
Co39 O47 2.055 . S
Co39 O50 2.039 . S
Co39 N53 2.140 . S
C40 O41 1.227 . S
C40 O50 1.265 . S
O41 C40 1.227 . S
N42 Co39 2.121 . S
N42 C44 1.375 . S
N42 C45 1.313 . S
C43 C44 1.338 . S
C43 N46 1.377 . S
C43 H63 0.930 . S
C44 N42 1.375 . S
C44 C43 1.338 . S
C44 H48 0.931 . S
C45 N42 1.313 . S
C45 N46 1.344 . S
C45 H49 0.930 . S
N46 C43 1.377 . S
N46 C45 1.344 . S
O47 Co39 2.055 . S
O47 C51 1.253 . S
H48 C44 0.931 . S
H49 C45 0.930 . S
O50 Co39 2.039 . S
O50 C40 1.265 . S
C51 O47 1.253 . S
C51 O52 1.227 . S
O52 C51 1.227 . S
N53 Co39 2.140 . S
N53 C56 1.346 . S
N53 C57 1.345 . S
C54 C55 1.387 . S
C54 C58 1.391 . S
C55 C54 1.387 . S
C55 C56 1.369 . S
C55 H64 0.929 . S
C56 N53 1.346 . S
C56 C55 1.369 . S
C56 H59 0.928 . S
C57 N53 1.345 . S
C57 C58 1.371 . S
C57 H60 0.931 . S
C58 C54 1.391 . S
C58 C57 1.371 . S
C58 H65 0.930 . S
H59 C56 0.928 . S
H60 C57 0.931 . S
H61 C37 0.930 . S
H62 C34 0.930 . S
H63 C43 0.930 . S
H64 C55 0.929 . S
H65 C58 0.930 . S
C66 C67 1.351 . S
C66 N69 1.368 . S
C66 H71 0.931 . S
C67 C66 1.351 . S
C67 N68 1.373 . S
C67 H95 0.930 . S
N68 C67 1.373 . S
N68 C70 1.340 . S
N69 C66 1.368 . S
N69 C70 1.321 . S
N69 Co72 2.135 . S
C70 N68 1.340 . S
C70 N69 1.321 . S
C70 H94 0.930 . S
H71 C66 0.931 . S
Co72 N69 2.135 . S
Co72 N75 2.121 . S
Co72 O80 2.055 . S
Co72 O83 2.039 . S
Co72 N86 2.140 . S
C73 O74 1.227 . S
C73 O83 1.265 . S
O74 C73 1.227 . S
N75 Co72 2.121 . S
N75 C77 1.375 . S
N75 C78 1.313 . S
C76 C77 1.338 . S
C76 N79 1.377 . S
C76 H96 0.930 . S
C77 N75 1.375 . S
C77 C76 1.338 . S
C77 H81 0.931 . S
C78 N75 1.313 . S
C78 N79 1.344 . S
C78 H82 0.930 . S
N79 C76 1.377 . S
N79 C78 1.344 . S
O80 Co72 2.055 . S
O80 C84 1.253 . S
H81 C77 0.931 . S
H82 C78 0.930 . S
O83 Co72 2.039 . S
O83 C73 1.265 . S
C84 O80 1.253 . S
C84 O85 1.227 . S
O85 C84 1.227 . S
N86 Co72 2.140 . S
N86 C89 1.346 . S
N86 C90 1.345 . S
C87 C88 1.387 . S
C87 C91 1.391 . S
C88 C87 1.387 . S
C88 C89 1.369 . S
C88 H97 0.929 . S
C89 N86 1.346 . S
C89 C88 1.369 . S
C89 H92 0.928 . S
C90 N86 1.345 . S
C90 C91 1.371 . S
C90 H93 0.931 . S
C91 C87 1.391 . S
C91 C90 1.371 . S
C91 H98 0.930 . S
H92 C89 0.928 . S
H93 C90 0.931 . S
H94 C70 0.930 . S
H95 C67 0.930 . S
H96 C76 0.930 . S
H97 C88 0.929 . S
H98 C91 0.930 . S
C99 C100 1.351 . S
C99 N102 1.368 . S
C99 H104 0.931 . S
C100 C99 1.351 . S
C100 N101 1.373 . S
C100 H128 0.930 . S
N101 C100 1.373 . S
N101 C103 1.340 . S
N102 C99 1.368 . S
N102 C103 1.321 . S
N102 Co105 2.135 . S
C103 N101 1.340 . S
C103 N102 1.321 . S
C103 H127 0.930 . S
H104 C99 0.931 . S
Co105 N102 2.135 . S
Co105 N108 2.121 . S
Co105 O113 2.055 . S
Co105 O116 2.039 . S
Co105 N119 2.140 . S
C106 O107 1.227 . S
C106 O116 1.265 . S
O107 C106 1.227 . S
N108 Co105 2.121 . S
N108 C110 1.375 . S
N108 C111 1.313 . S
C109 C110 1.338 . S
C109 N112 1.377 . S
C109 H129 0.930 . S
C110 N108 1.375 . S
C110 C109 1.338 . S
C110 H114 0.931 . S
C111 N108 1.313 . S
C111 N112 1.344 . S
C111 H115 0.930 . S
N112 C109 1.377 . S
N112 C111 1.344 . S
O113 Co105 2.055 . S
O113 C117 1.253 . S
H114 C110 0.931 . S
H115 C111 0.930 . S
O116 Co105 2.039 . S
O116 C106 1.265 . S
C117 O113 1.253 . S
C117 O118 1.227 . S
O118 C117 1.227 . S
N119 Co105 2.140 . S
N119 C122 1.346 . S
N119 C123 1.345 . S
C120 C121 1.387 . S
C120 C124 1.391 . S
C121 C120 1.387 . S
C121 C122 1.369 . S
C121 H130 0.929 . S
C122 N119 1.346 . S
C122 C121 1.369 . S
C122 H125 0.928 . S
C123 N119 1.345 . S
C123 C124 1.371 . S
C123 H126 0.931 . S
C124 C120 1.391 . S
C124 C123 1.371 . S
C124 H131 0.930 . S
H125 C122 0.928 . S
H126 C123 0.931 . S
H127 C103 0.930 . S
H128 C100 0.930 . S
H129 C109 0.930 . S
H130 C121 0.929 . S
H131 C124 0.930 . S
C132 C133 1.351 . S
C132 N135 1.368 . S
C132 H137 0.931 . S
C133 C132 1.351 . S
C133 N134 1.373 . S
C133 H161 0.930 . S
N134 C133 1.373 . S
N134 C136 1.340 . S
N135 C132 1.368 . S
N135 C136 1.321 . S
N135 Co138 2.135 . S
C136 N134 1.340 . S
C136 N135 1.321 . S
C136 H160 0.930 . S
H137 C132 0.931 . S
Co138 N135 2.135 . S
Co138 N141 2.121 . S
Co138 O146 2.055 . S
Co138 O149 2.039 . S
Co138 N152 2.140 . S
C139 O140 1.227 . S
C139 O149 1.265 . S
O140 C139 1.227 . S
N141 Co138 2.121 . S
N141 C143 1.375 . S
N141 C144 1.313 . S
C142 C143 1.338 1_554 S
C142 N145 1.377 . S
C142 H162 0.930 . S
C143 N141 1.375 . S
C143 C142 1.338 1_556 S
C143 H147 0.931 . S
C144 N141 1.313 . S
C144 N145 1.344 1_556 S
C144 H148 0.930 . S
N145 C142 1.377 . S
N145 C144 1.344 1_554 S
O146 Co138 2.055 . S
O146 C150 1.253 . S
H147 C143 0.931 . S
H148 C144 0.930 . S
O149 Co138 2.039 . S
O149 C139 1.265 . S
C150 O146 1.253 . S
C150 O151 1.227 . S
O151 C150 1.227 . S
N152 Co138 2.140 . S
N152 C155 1.346 . S
N152 C156 1.345 . S
C153 C154 1.387 . S
C153 C157 1.391 . S
C154 C153 1.387 . S
C154 C155 1.369 . S
C154 H163 0.929 . S
C155 N152 1.346 . S
C155 C154 1.369 . S
C155 H158 0.928 . S
C156 N152 1.345 . S
C156 C157 1.371 . S
C156 H159 0.931 . S
C157 C153 1.391 . S
C157 C156 1.371 . S
C157 H164 0.930 . S
H158 C155 0.928 . S
H159 C156 0.931 . S
H160 C136 0.930 . S
H161 C133 0.930 . S
H162 C142 0.930 . S
H163 C154 0.929 . S
H164 C157 0.930 . S
C165 C166 1.351 . S
C165 N168 1.368 . S
C165 H170 0.931 . S
C166 C165 1.351 . S
C166 N167 1.373 . S
C166 H194 0.930 . S
N167 C166 1.373 . S
N167 C169 1.340 . S
N168 C165 1.368 . S
N168 C169 1.321 . S
N168 Co171 2.135 . S
C169 N167 1.340 . S
C169 N168 1.321 . S
C169 H193 0.930 . S
H170 C165 0.931 . S
Co171 N168 2.135 . S
Co171 N174 2.121 1_556 S
Co171 O179 2.055 . S
Co171 O182 2.039 . S
Co171 N185 2.140 . S
C172 O173 1.227 . S
C172 O182 1.265 . S
O173 C172 1.227 . S
N174 Co171 2.121 1_554 S
N174 C176 1.375 . S
N174 C177 1.313 . S
C175 C176 1.338 . S
C175 N178 1.377 . S
C175 H195 0.930 . S
C176 N174 1.375 . S
C176 C175 1.338 . S
C176 H180 0.931 . S
C177 N174 1.313 . S
C177 N178 1.344 . S
C177 H181 0.930 . S
N178 C175 1.377 . S
N178 C177 1.344 . S
O179 Co171 2.055 . S
O179 C183 1.253 . S
H180 C176 0.931 . S
H181 C177 0.930 . S
O182 Co171 2.039 . S
O182 C172 1.265 . S
C183 O179 1.253 . S
C183 O184 1.227 . S
O184 C183 1.227 . S
N185 Co171 2.140 . S
N185 C188 1.346 . S
N185 C189 1.345 1_556 S
C186 C187 1.387 . S
C186 C190 1.391 1_556 S
C187 C186 1.387 . S
C187 C188 1.369 . S
C187 H196 0.929 . S
C188 N185 1.346 . S
C188 C187 1.369 . S
C188 H191 0.928 . S
C189 N185 1.345 1_554 S
C189 C190 1.371 . S
C189 H192 0.931 . S
C190 C186 1.391 1_554 S
C190 C189 1.371 . S
C190 H197 0.930 . S
H191 C188 0.928 . S
H192 C189 0.931 . S
H193 C169 0.930 . S
H194 C166 0.930 . S
H195 C175 0.930 . S
H196 C187 0.929 . S
H197 C190 0.930 . S
C198 C199 1.351 1_556 S
C198 N201 1.368 . S
C198 H203 0.931 . S
C199 C198 1.351 1_554 S
C199 N200 1.373 . S
C199 H227 0.930 . S
N200 C199 1.373 . S
N200 C202 1.340 1_554 S
N201 C198 1.368 . S
N201 C202 1.321 . S
N201 Co204 2.135 . S
C202 N200 1.340 1_556 S
C202 N201 1.321 . S
C202 H226 0.930 . S
H203 C198 0.931 . S
Co204 N201 2.135 . S
Co204 N207 2.121 . S
Co204 O212 2.055 . S
Co204 O215 2.039 . S
Co204 N218 2.140 . S
C205 O206 1.227 . S
C205 O215 1.265 . S
O206 C205 1.227 . S
N207 Co204 2.121 . S
N207 C209 1.375 . S
N207 C210 1.313 . S
C208 C209 1.338 . S
C208 N211 1.377 . S
C208 H228 0.930 . S
C209 N207 1.375 . S
C209 C208 1.338 . S
C209 H213 0.931 . S
C210 N207 1.313 . S
C210 N211 1.344 . S
C210 H214 0.930 . S
N211 C208 1.377 . S
N211 C210 1.344 . S
O212 Co204 2.055 . S
O212 C216 1.253 . S
H213 C209 0.931 . S
H214 C210 0.930 . S
O215 Co204 2.039 . S
O215 C205 1.265 . S
C216 O212 1.253 . S
C216 O217 1.227 . S
O217 C216 1.227 . S
N218 Co204 2.140 . S
N218 C221 1.346 . S
N218 C222 1.345 . S
C219 C220 1.387 . S
C219 C223 1.391 . S
C220 C219 1.387 . S
C220 C221 1.369 . S
C220 H229 0.929 . S
C221 N218 1.346 . S
C221 C220 1.369 . S
C221 H224 0.928 . S
C222 N218 1.345 . S
C222 C223 1.371 . S
C222 H225 0.931 . S
C223 C219 1.391 . S
C223 C222 1.371 . S
C223 H230 0.930 . S
H224 C221 0.928 . S
H225 C222 0.931 . S
H226 C202 0.930 . S
H227 C199 0.930 . S
H228 C208 0.930 . S
H229 C220 0.929 . S
H230 C223 0.930 . S
C231 C232 1.351 . S
C231 N234 1.368 . S
C231 H236 0.931 . S
C232 C231 1.351 . S
C232 N233 1.373 . S
C232 H260 0.930 . S
N233 C232 1.373 . S
N233 C235 1.340 . S
N234 C231 1.368 . S
N234 C235 1.321 . S
N234 Co237 2.135 1_554 S
C235 N233 1.340 . S
C235 N234 1.321 . S
C235 H259 0.930 . S
H236 C231 0.931 . S
Co237 N234 2.135 1_556 S
Co237 N240 2.121 . S
Co237 O245 2.055 . S
Co237 O248 2.039 . S
Co237 N251 2.140 . S
C238 O239 1.227 . S
C238 O248 1.265 . S
O239 C238 1.227 . S
N240 Co237 2.121 . S
N240 C242 1.375 . S
N240 C243 1.313 . S
C241 C242 1.338 . S
C241 N244 1.377 . S
C241 H261 0.930 . S
C242 N240 1.375 . S
C242 C241 1.338 . S
C242 H246 0.931 . S
C243 N240 1.313 . S
C243 N244 1.344 . S
C243 H247 0.930 . S
N244 C241 1.377 . S
N244 C243 1.344 . S
O245 Co237 2.055 . S
O245 C249 1.253 . S
H246 C242 0.931 . S
H247 C243 0.930 . S
O248 Co237 2.039 . S
O248 C238 1.265 . S
C249 O245 1.253 . S
C249 O250 1.227 . S
O250 C249 1.227 . S
N251 Co237 2.140 . S
N251 C254 1.346 . S
N251 C255 1.345 . S
C252 C253 1.387 . S
C252 C256 1.391 . S
C253 C252 1.387 . S
C253 C254 1.369 . S
C253 H262 0.929 1_556 S
C254 N251 1.346 . S
C254 C253 1.369 . S
C254 H257 0.928 1_556 S
C255 N251 1.345 . S
C255 C256 1.371 . S
C255 H258 0.931 . S
C256 C252 1.391 . S
C256 C255 1.371 . S
C256 H263 0.930 . S
H257 C254 0.928 1_554 S
H258 C255 0.931 . S
H259 C235 0.930 . S
H260 C232 0.930 . S
H261 C241 0.930 . S
H262 C253 0.929 1_554 S
H263 C256 0.930 . S
C264 C265 1.351 . S
C264 N267 1.368 . S
C264 H269 0.931 . S
C265 C264 1.351 . S
C265 N266 1.373 . S
C265 H293 0.930 . S
N266 C265 1.373 . S
N266 C268 1.340 . S
N267 C264 1.368 . S
N267 C268 1.321 . S
N267 Co270 2.135 . S
C268 N266 1.340 . S
C268 N267 1.321 . S
C268 H292 0.930 . S
H269 C264 0.931 . S
Co270 N267 2.135 . S
Co270 N273 2.121 1_554 S
Co270 O278 2.055 . S
Co270 O281 2.039 . S
Co270 N284 2.140 . S
C271 O272 1.227 . S
C271 O281 1.265 . S
O272 C271 1.227 . S
N273 Co270 2.121 1_556 S
N273 C275 1.375 . S
N273 C276 1.313 . S
C274 C275 1.338 . S
C274 N277 1.377 . S
C274 H294 0.930 . S
C275 N273 1.375 . S
C275 C274 1.338 . S
C275 H279 0.931 . S
C276 N273 1.313 . S
C276 N277 1.344 . S
C276 H280 0.930 . S
N277 C274 1.377 . S
N277 C276 1.344 . S
O278 Co270 2.055 . S
O278 C282 1.253 . S
H279 C275 0.931 . S
H280 C276 0.930 . S
O281 Co270 2.039 . S
O281 C271 1.265 . S
C282 O278 1.253 . S
C282 O283 1.227 . S
O283 C282 1.227 . S
N284 Co270 2.140 . S
N284 C287 1.346 . S
N284 C288 1.345 1_554 S
C285 C286 1.387 . S
C285 C289 1.391 1_554 S
C286 C285 1.387 . S
C286 C287 1.369 . S
C286 H295 0.929 . S
C287 N284 1.346 . S
C287 C286 1.369 . S
C287 H290 0.928 . S
C288 N284 1.345 1_556 S
C288 C289 1.371 . S
C288 H291 0.931 . S
C289 C285 1.391 1_556 S
C289 C288 1.371 . S
C289 H296 0.930 . S
H290 C287 0.928 . S
H291 C288 0.931 . S
H292 C268 0.930 . S
H293 C265 0.930 . S
H294 C274 0.930 . S
H295 C286 0.929 . S
H296 C289 0.930 . S
C297 C298 1.351 . S
C297 N300 1.368 . S
C297 H302 0.931 . S
C298 C297 1.351 . S
C298 N299 1.373 . S
C298 H326 0.930 . S
N299 C298 1.373 . S
N299 C301 1.340 . S
N300 C297 1.368 . S
N300 C301 1.321 . S
N300 Co303 2.135 . S
C301 N299 1.340 . S
C301 N300 1.321 . S
C301 H325 0.930 . S
H302 C297 0.931 . S
Co303 N300 2.135 . S
Co303 N306 2.121 . S
Co303 O311 2.055 . S
Co303 O314 2.039 . S
Co303 N317 2.140 . S
C304 O305 1.227 . S
C304 O314 1.265 . S
O305 C304 1.227 . S
N306 Co303 2.121 . S
N306 C308 1.375 . S
N306 C309 1.313 . S
C307 C308 1.338 1_556 S
C307 N310 1.377 . S
C307 H327 0.930 . S
C308 N306 1.375 . S
C308 C307 1.338 1_554 S
C308 H312 0.931 . S
C309 N306 1.313 . S
C309 N310 1.344 1_554 S
C309 H313 0.930 . S
N310 C307 1.377 . S
N310 C309 1.344 1_556 S
O311 Co303 2.055 . S
O311 C315 1.253 . S
H312 C308 0.931 . S
H313 C309 0.930 . S
O314 Co303 2.039 . S
O314 C304 1.265 . S
C315 O311 1.253 . S
C315 O316 1.227 . S
O316 C315 1.227 . S
N317 Co303 2.140 . S
N317 C320 1.346 . S
N317 C321 1.345 . S
C318 C319 1.387 . S
C318 C322 1.391 . S
C319 C318 1.387 . S
C319 C320 1.369 . S
C319 H328 0.929 . S
C320 N317 1.346 . S
C320 C319 1.369 . S
C320 H323 0.928 . S
C321 N317 1.345 . S
C321 C322 1.371 . S
C321 H324 0.931 . S
C322 C318 1.391 . S
C322 C321 1.371 . S
C322 H329 0.930 . S
H323 C320 0.928 . S
H324 C321 0.931 . S
H325 C301 0.930 . S
H326 C298 0.930 . S
H327 C307 0.930 . S
H328 C319 0.929 . S
H329 C322 0.930 . S
C330 C331 1.351 . S
C330 N333 1.368 . S
C330 H335 0.931 . S
C331 C330 1.351 . S
C331 N332 1.373 . S
C331 H359 0.930 . S
N332 C331 1.373 . S
N332 C334 1.340 . S
N333 C330 1.368 . S
N333 C334 1.321 . S
N333 Co336 2.135 . S
C334 N332 1.340 . S
C334 N333 1.321 . S
C334 H358 0.930 . S
H335 C330 0.931 . S
Co336 N333 2.135 . S
Co336 N339 2.121 . S
Co336 O344 2.055 . S
Co336 O347 2.039 . S
Co336 N350 2.140 . S
C337 O338 1.227 . S
C337 O347 1.265 . S
O338 C337 1.227 . S
N339 Co336 2.121 . S
N339 C341 1.375 . S
N339 C342 1.313 . S
C340 C341 1.338 . S
C340 N343 1.377 . S
C340 H360 0.930 . S
C341 N339 1.375 . S
C341 C340 1.338 . S
C341 H345 0.931 . S
C342 N339 1.313 . S
C342 N343 1.344 . S
C342 H346 0.930 . S
N343 C340 1.377 . S
N343 C342 1.344 . S
O344 Co336 2.055 . S
O344 C348 1.253 . S
H345 C341 0.931 . S
H346 C342 0.930 . S
O347 Co336 2.039 . S
O347 C337 1.265 . S
C348 O344 1.253 . S
C348 O349 1.227 . S
O349 C348 1.227 . S
N350 Co336 2.140 . S
N350 C353 1.346 . S
N350 C354 1.345 . S
C351 C352 1.387 . S
C351 C355 1.391 . S
C352 C351 1.387 . S
C352 C353 1.369 . S
C352 H361 0.929 . S
C353 N350 1.346 . S
C353 C352 1.369 . S
C353 H356 0.928 . S
C354 N350 1.345 . S
C354 C355 1.371 . S
C354 H357 0.931 . S
C355 C351 1.391 . S
C355 C354 1.371 . S
C355 H362 0.930 . S
H356 C353 0.928 . S
H357 C354 0.931 . S
H358 C334 0.930 . S
H359 C331 0.930 . S
H360 C340 0.930 . S
H361 C352 0.929 . S
H362 C355 0.930 . S
C363 C364 1.351 . S
C363 N366 1.368 . S
C363 H368 0.931 . S
C364 C363 1.351 . S
C364 N365 1.373 . S
C364 H392 0.930 . S
N365 C364 1.373 . S
N365 C367 1.340 . S
N366 C363 1.368 . S
N366 C367 1.321 . S
N366 Co369 2.135 . S
C367 N365 1.340 . S
C367 N366 1.321 . S
C367 H391 0.930 . S
H368 C363 0.931 . S
Co369 N366 2.135 . S
Co369 N372 2.121 . S
Co369 O377 2.055 . S
Co369 O380 2.039 . S
Co369 N383 2.140 . S
C370 O371 1.227 . S
C370 O380 1.265 . S
O371 C370 1.227 . S
N372 Co369 2.121 . S
N372 C374 1.375 . S
N372 C375 1.313 . S
C373 C374 1.338 . S
C373 N376 1.377 . S
C373 H393 0.930 . S
C374 N372 1.375 . S
C374 C373 1.338 . S
C374 H378 0.931 . S
C375 N372 1.313 . S
C375 N376 1.344 . S
C375 H379 0.930 . S
N376 C373 1.377 . S
N376 C375 1.344 . S
O377 Co369 2.055 . S
O377 C381 1.253 . S
H378 C374 0.931 . S
H379 C375 0.930 . S
O380 Co369 2.039 . S
O380 C370 1.265 . S
C381 O377 1.253 . S
C381 O382 1.227 . S
O382 C381 1.227 . S
N383 Co369 2.140 . S
N383 C386 1.346 . S
N383 C387 1.345 . S
C384 C385 1.387 . S
C384 C388 1.391 . S
C385 C384 1.387 . S
C385 C386 1.369 . S
C385 H394 0.929 . S
C386 N383 1.346 . S
C386 C385 1.369 . S
C386 H389 0.928 . S
C387 N383 1.345 . S
C387 C388 1.371 . S
C387 H390 0.931 . S
C388 C384 1.391 . S
C388 C387 1.371 . S
C388 H395 0.930 . S
H389 C386 0.928 . S
H390 C387 0.931 . S
H391 C367 0.930 . S
H392 C364 0.930 . S
H393 C373 0.930 . S
H394 C385 0.929 . S
H395 C388 0.930 . S
C396 C397 1.387 . S
C396 H400 0.950 . S
C396 C405 1.390 . S
C397 C396 1.387 . S
C397 C399 1.387 . S
H398 C405 0.950 . S
C399 C397 1.387 . S
C399 C401 1.390 . S
C399 H403 0.950 . S
H400 C396 0.950 . S
C401 C399 1.390 . S
C401 C402 1.387 . S
C401 H404 0.950 . S
C402 C401 1.387 . S
C402 C405 1.387 . S
H403 C399 0.950 . S
H404 C401 0.950 . S
C405 C396 1.390 . S
C405 H398 0.950 . S
C405 C402 1.387 . S
C406 C407 1.387 . S
C406 H410 0.950 . S
C406 C415 1.390 . S
C407 C406 1.387 . S
C407 C409 1.387 . S
H408 C415 0.950 . S
C409 C407 1.387 . S
C409 C411 1.390 . S
C409 H413 0.950 . S
H410 C406 0.950 . S
C411 C409 1.390 . S
C411 C412 1.387 . S
C411 H414 0.950 . S
C412 C411 1.387 . S
C412 C415 1.387 . S
H413 C409 0.950 . S
H414 C411 0.950 . S
C415 C406 1.390 . S
C415 H408 0.950 . S
C415 C412 1.387 . S
C416 C417 1.387 1_556 S
C416 H420 0.950 1_556 S
C416 C425 1.390 . S
C417 C416 1.387 1_554 S
C417 C419 1.387 1_554 S
H418 C425 0.950 . S
C419 C417 1.387 1_556 S
C419 C421 1.390 . S
C419 H423 0.951 . S
H420 C416 0.950 1_554 S
C421 C419 1.390 . S
C421 C422 1.387 . S
C421 H424 0.950 . S
C422 C421 1.387 . S
C422 C425 1.387 . S
H423 C419 0.951 . S
H424 C421 0.950 . S
C425 C416 1.390 . S
C425 H418 0.950 . S
C425 C422 1.387 . S
C426 C427 1.387 1_554 S
C426 H430 0.950 . S
C426 C435 1.390 . S
C427 C426 1.387 1_556 S
C427 C429 1.387 1_556 S
H428 C435 0.950 . S
C429 C427 1.387 1_554 S
C429 C431 1.390 . S
C429 H433 0.950 1_554 S
H430 C426 0.950 . S
C431 C429 1.390 . S
C431 C432 1.387 . S
C431 H434 0.950 . S
C432 C431 1.387 . S
C432 C435 1.387 . S
H433 C429 0.950 1_556 S
H434 C431 0.950 . S
C435 C426 1.390 . S
C435 H428 0.950 . S
C435 C432 1.387 . S
C436 C437 1.387 . S
C436 H440 0.950 . S
C436 C445 1.390 . S
C437 C436 1.387 . S
C437 C439 1.387 . S
H438 C445 0.950 . S
C439 C437 1.387 . S
C439 C441 1.390 . S
C439 H443 0.950 . S
H440 C436 0.950 . S
C441 C439 1.390 . S
C441 C442 1.387 . S
C441 H444 0.950 . S
C442 C441 1.387 . S
C442 C445 1.387 . S
H443 C439 0.950 . S
H444 C441 0.950 . S
C445 C436 1.390 . S
C445 H438 0.950 . S
C445 C442 1.387 . S
C446 C447 1.387 . S
C446 H450 0.950 . S
C446 C455 1.390 . S
C447 C446 1.387 . S
C447 C449 1.387 . S
H448 C455 0.950 . S
C449 C447 1.387 . S
C449 C451 1.390 . S
C449 H453 0.950 . S
H450 C446 0.950 . S
C451 C449 1.390 . S
C451 C452 1.387 . S
C451 H454 0.950 . S
C452 C451 1.387 . S
C452 C455 1.387 . S
H453 C449 0.950 . S
H454 C451 0.950 . S
C455 C446 1.390 . S
C455 H448 0.950 . S
C455 C452 1.387 . S
C456 C457 1.387 . S
C456 H460 0.950 . S
C456 C465 1.390 . S
C457 C456 1.387 . S
C457 C459 1.387 . S
H458 C465 0.950 . S
C459 C457 1.387 . S
C459 C461 1.390 . S
C459 H463 0.950 . S
H460 C456 0.950 . S
C461 C459 1.390 . S
C461 C462 1.387 . S
C461 H464 0.950 . S
C462 C461 1.387 . S
C462 C465 1.387 . S
H463 C459 0.950 . S
H464 C461 0.950 . S
C465 C456 1.390 . S
C465 H458 0.950 . S
C465 C462 1.387 . S
C466 C467 1.387 . S
C466 H470 0.950 . S
C466 C475 1.390 . S
C467 C466 1.387 . S
C467 C469 1.387 . S
H468 C475 0.950 . S
C469 C467 1.387 . S
C469 C471 1.390 . S
C469 H473 0.950 . S
H470 C466 0.950 . S
C471 C469 1.390 . S
C471 C472 1.387 . S
C471 H474 0.950 . S
C472 C471 1.387 . S
C472 C475 1.387 . S
H473 C469 0.950 . S
H474 C471 0.950 . S
C475 C466 1.390 . S
C475 H468 0.950 . S
C475 C472 1.387 . S
C476 C477 1.387 . S
C476 H480 0.950 . S
C476 C485 1.390 . S
C477 C476 1.387 . S
C477 C479 1.387 . S
H478 C485 0.950 . S
C479 C477 1.387 . S
C479 C481 1.390 . S
C479 H483 0.950 . S
H480 C476 0.950 . S
C481 C479 1.390 . S
C481 C482 1.387 . S
C481 H484 0.950 . S
C482 C481 1.387 . S
C482 C485 1.387 . S
H483 C479 0.950 . S
H484 C481 0.950 . S
C485 C476 1.390 . S
C485 H478 0.950 . S
C485 C482 1.387 . S
C486 C487 1.387 . S
C486 H490 0.950 . S
C486 C495 1.390 . S
C487 C486 1.387 . S
C487 C489 1.387 . S
H488 C495 0.950 . S
C489 C487 1.387 . S
C489 C491 1.390 . S
C489 H493 0.950 . S
H490 C486 0.950 . S
C491 C489 1.390 . S
C491 C492 1.387 . S
C491 H494 0.950 . S
C492 C491 1.387 . S
C492 C495 1.387 . S
H493 C489 0.950 . S
H494 C491 0.950 . S
C495 C486 1.390 . S
C495 H488 0.950 . S
C495 C492 1.387 . S
C496 C497 1.387 1_556 S
C496 H500 0.950 1_556 S
C496 C505 1.390 . S
C497 C496 1.387 1_554 S
C497 C499 1.387 1_554 S
H498 C505 0.950 . S
C499 C497 1.387 1_556 S
C499 C501 1.390 . S
C499 H503 0.950 . S
H500 C496 0.950 1_554 S
C501 C499 1.390 . S
C501 C502 1.387 . S
C501 H504 0.950 . S
C502 C501 1.387 . S
C502 C505 1.387 . S
H503 C499 0.950 . S
H504 C501 0.950 . S
C505 C496 1.390 . S
C505 H498 0.950 . S
C505 C502 1.387 . S
C506 C507 1.387 1_554 S
C506 H510 0.950 1_554 S
C506 C515 1.390 . S
C507 C506 1.387 1_556 S
C507 C509 1.387 1_556 S
H508 C515 0.950 . S
C509 C507 1.387 1_554 S
C509 C511 1.390 . S
C509 H513 0.950 . S
H510 C506 0.950 1_556 S
C511 C509 1.390 . S
C511 C512 1.387 . S
C511 H514 0.950 . S
C512 C511 1.387 . S
C512 C515 1.387 . S
H513 C509 0.950 . S
H514 C511 0.950 . S
C515 C506 1.390 . S
C515 H508 0.950 . S
C515 C512 1.387 . S
C516 C517 1.387 . S
C516 H520 0.950 . S
C516 C525 1.390 . S
C517 C516 1.387 . S
C517 C519 1.387 . S
H518 C525 0.950 1_554 S
C519 C517 1.387 . S
C519 C521 1.390 . S
C519 H523 0.950 . S
H520 C516 0.950 . S
C521 C519 1.390 . S
C521 C522 1.387 . S
C521 H524 0.950 . S
C522 C521 1.387 . S
C522 C525 1.387 . S
H523 C519 0.950 . S
H524 C521 0.950 . S
C525 C516 1.390 . S
C525 H518 0.950 1_556 S
C525 C522 1.387 . S
C526 C527 1.387 . S
C526 H530 0.950 . S
C526 C535 1.390 . S
C527 C526 1.387 . S
C527 C529 1.387 . S
H528 C535 0.950 . S
C529 C527 1.387 . S
C529 C531 1.390 1_554 S
C529 H533 0.950 . S
H530 C526 0.950 . S
C531 C529 1.390 1_556 S
C531 C532 1.387 1_556 S
C531 H534 0.950 . S
C532 C531 1.387 1_554 S
C532 C535 1.387 . S
H533 C529 0.950 . S
H534 C531 0.950 . S
C535 C526 1.390 . S
C535 H528 0.950 . S
C535 C532 1.387 . S
C536 C537 1.387 . S
C536 H540 0.950 . S
C536 C545 1.390 . S
C537 C536 1.387 . S
C537 C539 1.387 . S
H538 C545 0.950 . S
C539 C537 1.387 . S
C539 C541 1.390 . S
C539 H543 0.950 . S
H540 C536 0.950 . S
C541 C539 1.390 . S
C541 C542 1.387 . S
C541 H544 0.950 . S
C542 C541 1.387 . S
C542 C545 1.387 . S
H543 C539 0.950 . S
H544 C541 0.950 . S
C545 C536 1.390 . S
C545 H538 0.950 . S
C545 C542 1.387 . S
C546 C547 1.387 . S
C546 H550 0.950 . S
C546 C555 1.390 . S
C547 C546 1.387 . S
C547 C549 1.387 . S
H548 C555 0.950 . S
C549 C547 1.387 . S
C549 C551 1.390 . S
C549 H553 0.950 . S
H550 C546 0.950 . S
C551 C549 1.390 . S
C551 C552 1.387 . S
C551 H554 0.950 . S
C552 C551 1.387 . S
C552 C555 1.387 . S
H553 C549 0.950 . S
H554 C551 0.950 . S
C555 C546 1.390 . S
C555 H548 0.950 . S
C555 C552 1.387 . S
C556 C557 1.387 . S
C556 H560 0.950 . S
C556 C565 1.390 . S
C557 C556 1.387 . S
C557 C559 1.387 . S
H558 C565 0.950 . S
C559 C557 1.387 . S
C559 C561 1.390 . S
C559 H563 0.950 . S
H560 C556 0.950 . S
C561 C559 1.390 . S
C561 C562 1.387 . S
C561 H564 0.950 . S
C562 C561 1.387 . S
C562 C565 1.387 . S
H563 C559 0.950 . S
H564 C561 0.950 . S
C565 C556 1.390 . S
C565 H558 0.950 . S
C565 C562 1.387 . S
C566 C567 1.387 . S
C566 H570 0.950 . S
C566 C575 1.390 . S
C567 C566 1.387 . S
C567 C569 1.387 . S
H568 C575 0.950 . S
C569 C567 1.387 . S
C569 C571 1.390 . S
C569 H573 0.950 . S
H570 C566 0.950 . S
C571 C569 1.390 . S
C571 C572 1.387 . S
C571 H574 0.950 . S
C572 C571 1.387 . S
C572 C575 1.387 . S
H573 C569 0.950 . S
H574 C571 0.950 . S
C575 C566 1.390 . S
C575 H568 0.950 . S
C575 C572 1.387 . S
C576 C577 1.387 . S
C576 H580 0.950 . S
C576 C585 1.390 . S
C577 C576 1.387 . S
C577 C579 1.387 . S
H578 C585 0.950 . S
C579 C577 1.387 . S
C579 C581 1.390 . S
C579 H583 0.950 . S
H580 C576 0.950 . S
C581 C579 1.390 . S
C581 C582 1.387 . S
C581 H584 0.950 . S
C582 C581 1.387 . S
C582 C585 1.387 . S
H583 C579 0.950 . S
H584 C581 0.950 . S
C585 C576 1.390 . S
C585 H578 0.950 . S
C585 C582 1.387 . S
C586 C587 1.387 . S
C586 H590 0.950 . S
C586 C595 1.390 . S
C587 C586 1.387 . S
C587 C589 1.387 . S
H588 C595 0.950 . S
C589 C587 1.387 . S
C589 C591 1.390 . S
C589 H593 0.950 . S
H590 C586 0.950 . S
C591 C589 1.390 . S
C591 C592 1.387 . S
C591 H594 0.950 . S
C592 C591 1.387 . S
C592 C595 1.387 . S
H593 C589 0.950 . S
H594 C591 0.950 . S
C595 C586 1.390 . S
C595 H588 0.950 . S
C595 C592 1.387 . S
C596 C597 1.387 . S
C596 H600 0.950 . S
C596 C605 1.390 . S
C597 C596 1.387 . S
C597 C599 1.387 . S
H598 C605 0.950 . S
C599 C597 1.387 . S
C599 C601 1.390 . S
C599 H603 0.950 . S
H600 C596 0.950 . S
C601 C599 1.390 . S
C601 C602 1.387 . S
C601 H604 0.950 . S
C602 C601 1.387 . S
C602 C605 1.387 . S
H603 C599 0.950 . S
H604 C601 0.950 . S
C605 C596 1.390 . S
C605 H598 0.950 . S
C605 C602 1.387 . S
C606 C607 1.387 . S
C606 H610 0.950 . S
C606 C615 1.390 . S
C607 C606 1.387 . S
C607 C609 1.387 . S
H608 C615 0.950 . S
C609 C607 1.387 . S
C609 C611 1.390 . S
C609 H613 0.950 . S
H610 C606 0.950 . S
C611 C609 1.390 . S
C611 C612 1.387 . S
C611 H614 0.950 . S
C612 C611 1.387 . S
C612 C615 1.387 . S
H613 C609 0.950 . S
H614 C611 0.950 . S
C615 C606 1.390 . S
C615 H608 0.950 . S
C615 C612 1.387 . S
C616 C617 1.387 . S
C616 H620 0.950 . S
C616 C625 1.390 . S
C617 C616 1.387 . S
C617 C619 1.387 1_556 S
H618 C625 0.950 . S
C619 C617 1.387 1_554 S
C619 C621 1.390 1_554 S
C619 H623 0.950 . S
H620 C616 0.950 . S
C621 C619 1.390 1_556 S
C621 C622 1.387 . S
C621 H624 0.950 . S
C622 C621 1.387 . S
C622 C625 1.387 . S
H623 C619 0.950 . S
H624 C621 0.950 . S
C625 C616 1.390 . S
C625 H618 0.950 . S
C625 C622 1.387 . S
C626 C627 1.387 . S
C626 H630 0.950 . S
C626 C635 1.390 . S
C627 C626 1.387 . S
C627 C629 1.387 . S
H628 C635 0.950 . S
C629 C627 1.387 . S
C629 C631 1.390 . S
C629 H633 0.950 . S
H630 C626 0.950 . S
C631 C629 1.390 . S
C631 C632 1.387 . S
C631 H634 0.950 1_554 S
C632 C631 1.387 . S
C632 C635 1.387 . S
H633 C629 0.950 . S
H634 C631 0.950 1_556 S
C635 C626 1.390 . S
C635 H628 0.950 . S
C635 C632 1.387 . S
C636 C637 1.387 . S
C636 H640 0.950 . S
C636 C645 1.390 . S
C637 C636 1.387 . S
C637 C639 1.387 . S
H638 C645 0.950 . S
C639 C637 1.387 . S
C639 C641 1.390 . S
C639 H643 0.950 . S
H640 C636 0.950 . S
C641 C639 1.390 . S
C641 C642 1.387 . S
C641 H644 0.950 . S
C642 C641 1.387 . S
C642 C645 1.387 . S
H643 C639 0.950 . S
H644 C641 0.950 . S
C645 C636 1.390 . S
C645 H638 0.950 . S
C645 C642 1.387 . S
C646 C647 1.387 . S
C646 H650 0.950 . S
C646 C655 1.390 1_655 S
C647 C646 1.387 . S
C647 C649 1.387 . S
H648 C655 0.950 . S
C649 C647 1.387 . S
C649 C651 1.390 1_655 S
C649 H653 0.950 . S
H650 C646 0.950 . S
C651 C649 1.390 1_455 S
C651 C652 1.387 . S
C651 H654 0.950 . S
C652 C651 1.387 . S
C652 C655 1.387 . S
H653 C649 0.950 . S
H654 C651 0.950 . S
C655 C646 1.390 1_455 S
C655 H648 0.950 . S
C655 C652 1.387 . S
C656 C657 1.387 . S
C656 H660 0.950 . S
C656 C665 1.390 1_545 S
C657 C656 1.387 . S
C657 C659 1.387 . S
H658 C665 0.950 . S
C659 C657 1.387 . S
C659 C661 1.390 1_545 S
C659 H663 0.950 . S
H660 C656 0.950 . S
C661 C659 1.390 1_565 S
C661 C662 1.387 . S
C661 H664 0.950 . S
C662 C661 1.387 . S
C662 C665 1.387 . S
H663 C659 0.950 . S
H664 C661 0.950 . S
C665 C656 1.390 1_565 S
C665 H658 0.950 . S
C665 C662 1.387 . S
C666 C667 1.387 . S
C666 H670 0.950 . S
C666 C675 1.390 . S
C667 C666 1.387 . S
C667 C669 1.387 . S
H668 C675 0.950 . S
C669 C667 1.387 . S
C669 C671 1.390 . S
C669 H673 0.950 . S
H670 C666 0.950 . S
C671 C669 1.390 . S
C671 C672 1.387 . S
C671 H674 0.950 . S
C672 C671 1.387 . S
C672 C675 1.387 . S
H673 C669 0.950 . S
H674 C671 0.950 . S
C675 C666 1.390 . S
C675 H668 0.950 . S
C675 C672 1.387 . S
C676 C677 1.387 . S
C676 H680 0.950 . S
C676 C685 1.390 1_455 S
C677 C676 1.387 . S
C677 C679 1.387 . S
H678 C685 0.958 . S
C679 C677 1.387 . S
C679 C681 1.390 1_455 S
C679 H683 0.950 . S
H680 C676 0.950 . S
C681 C679 1.390 1_655 S
C681 C682 1.387 . S
C681 H684 0.950 . S
C682 C681 1.387 . S
C682 C685 1.387 . S
H683 C679 0.950 . S
H684 C681 0.950 . S
C685 C676 1.390 1_655 S
C685 H678 0.958 . S
C685 C682 1.387 . S
C686 C687 1.387 . S
C686 H690 0.950 . S
C686 C695 1.390 1_546 S
C687 C686 1.387 . S
C687 C689 1.387 . S
H688 C695 0.950 . S
C689 C687 1.387 . S
C689 C691 1.390 1_546 S
C689 H693 0.950 . S
H690 C686 0.950 . S
C691 C689 1.390 1_564 S
C691 C692 1.387 . S
C691 H694 0.950 . S
C692 C691 1.387 . S
C692 C695 1.387 . S
H693 C689 0.950 . S
H694 C691 0.950 . S
C695 C686 1.390 1_564 S
C695 H688 0.950 . S
C695 C692 1.387 . S
C397 N13 1.384 . S
C402 N2 1.384 . S
C407 N35 1.386 . S
C412 N46 1.387 . S
C417 N68 1.386 . S
C422 N79 1.386 . S
C427 N112 1.384 . S
C432 N101 1.384 . S
C437 N145 1.384 . S
C442 N134 1.384 . S
C447 N167 1.385 . S
C452 N178 1.385 . S
C457 N211 1.384 . S
C462 N200 1.384 . S
C467 N244 1.385 . S
C472 N233 1.385 . S
C477 N266 1.385 . S
C482 N277 1.386 . S
C487 N310 1.387 . S
C492 N299 1.386 . S
C497 N343 1.386 . S
C502 N332 1.385 . S
C507 N365 1.386 . S
C512 N376 1.386 . S
C517 C205 1.570 . S
C522 C7 1.571 1_556 S
C527 C40 1.571 . S
C532 C238 1.569 1_554 S
C537 C271 1.570 . S
C542 C73 1.570 . S
C547 C304 1.568 . S
C552 C106 1.570 . S
C557 C337 1.570 . S
C562 C139 1.571 . S
C567 C370 1.568 . S
C572 C172 1.568 . S
C577 C18 1.298 . S
C582 C348 1.298 . S
C587 C51 1.299 . S
C592 C381 1.298 . S
C597 C84 1.300 . S
C602 C216 1.301 . S
C607 C249 1.301 . S
C612 C117 1.301 . S
C617 C282 1.301 1_556 S
C622 C150 1.299 . S
C627 C315 1.300 . S
C632 C183 1.301 1_554 S
C637 C21 1.553 . S
C642 C318 1.554 . S
C647 C54 1.555 . S
C652 C351 1.554 . S
C657 C384 1.553 . S
C662 C87 1.553 . S
C667 C120 1.553 . S
C672 C219 1.555 . S
C677 C153 1.553 . S
C682 C252 1.555 . S
C687 C186 1.555 . S
C692 C285 1.555 . S
