# Generated by pormake.
# Topology qtz-e, (6)-cn, num edge types: 1
# Building blocks:
#     Node 0, Type 0, BuildingBlock: BETFAJ_clean_sbu_0, # of connection points: 6
#     Node 1, Type 0, BuildingBlock: BETFAJ_clean_sbu_0, # of connection points: 6
#     Node 2, Type 0, BuildingBlock: BETFAJ_clean_sbu_0, # of connection points: 6
#     Node 3, Type 0, BuildingBlock: BETFAJ_clean_sbu_0, # of connection points: 6
#     Node 4, Type 0, BuildingBlock: BETFAJ_clean_sbu_0, # of connection points: 6
#     Node 5, Type 0, BuildingBlock: BETFAJ_clean_sbu_0, # of connection points: 6
#     Edge 6, Type (0, 0), BuildingBlock: OJICUG_clean_linker_0, # of connection points: 2
#     Edge 7, Type (0, 0), BuildingBlock: OJICUG_clean_linker_0, # of connection points: 2
#     Edge 8, Type (0, 0), BuildingBlock: OJICUG_clean_linker_0, # of connection points: 2
#     Edge 9, Type (0, 0), BuildingBlock: OJICUG_clean_linker_0, # of connection points: 2
#     Edge 10, Type (0, 0), BuildingBlock: OJICUG_clean_linker_0, # of connection points: 2
#     Edge 11, Type (0, 0), BuildingBlock: OJICUG_clean_linker_0, # of connection points: 2
#     Edge 12, Type (0, 0), BuildingBlock: OJICUG_clean_linker_0, # of connection points: 2
#     Edge 13, Type (0, 0), BuildingBlock: OJICUG_clean_linker_0, # of connection points: 2
#     Edge 14, Type (0, 0), BuildingBlock: OJICUG_clean_linker_0, # of connection points: 2
#     Edge 15, Type (0, 0), BuildingBlock: OJICUG_clean_linker_0, # of connection points: 2
#     Edge 16, Type (0, 0), BuildingBlock: OJICUG_clean_linker_0, # of connection points: 2
#     Edge 17, Type (0, 0), BuildingBlock: OJICUG_clean_linker_0, # of connection points: 2
#     Edge 18, Type (0, 0), BuildingBlock: OJICUG_clean_linker_0, # of connection points: 2
#     Edge 19, Type (0, 0), BuildingBlock: OJICUG_clean_linker_0, # of connection points: 2
#     Edge 20, Type (0, 0), BuildingBlock: OJICUG_clean_linker_0, # of connection points: 2
#     Edge 21, Type (0, 0), BuildingBlock: OJICUG_clean_linker_0, # of connection points: 2
#     Edge 22, Type (0, 0), BuildingBlock: OJICUG_clean_linker_0, # of connection points: 2
#     Edge 23, Type (0, 0), BuildingBlock: OJICUG_clean_linker_0, # of connection points: 2
# Relax obj value: 0.095
# Max RMSD: 0.188
# Mean RMSD: 0.188
data_MOF--net-qtz-e--node1-BETFAJ_clean_sbu_0--edge1-OJICUG_clean_linker_0
_symmetry_space_group_name_H-M    P1
_symmetry_Int_Tables_number       1
_symmetry_cell_setting            triclinic
loop_
_symmetry_equiv_pos_as_xyz
'x, y, z'
_cell_length_a     19.207738
_cell_length_b     19.451222
_cell_length_c     41.901181
_cell_angle_alpha  89.795807
_cell_angle_beta   90.342637
_cell_angle_gamma 120.37234
loop_
_atom_site_label
_atom_site_type_symbol
_atom_site_fract_x
_atom_site_fract_y
_atom_site_fract_z
_atom_type_partial_charge
Sm0 Sm 0.20638 0.48374 0.08969 0.0
Sm1 Sm 0.15212 0.32842 0.05542 0.0
C2 C 0.24709 0.62341 0.11501 0.0
C3 C 0.25855 0.64969 0.14838 0.0
C4 C 0.23219 0.70125 0.15841 0.0
C5 C 0.23218 0.71752 0.19083 0.0
C6 C 0.25855 0.68235 0.21368 0.0
C7 C 0.28817 0.6334 0.20344 0.0
C8 C 0.28767 0.61674 0.17104 0.0
C9 C 0.31056 0.42755 0.09656 0.0
C10 C 0.10987 0.32418 0.13202 0.0
C11 C 0.12633 0.1993 1.02393 0.0
C12 C 0.14896 0.18577 0.99151 0.0
C13 C 0.19726 0.15099 0.9882 0.0
C14 C 0.22257 0.14169 0.95797 0.0
C15 C 0.19984 0.1665 0.93012 0.0
C16 C 0.14998 0.19972 0.93342 0.0
C17 C 0.12514 0.20952 0.96367 0.0
C18 C 0.05167 0.39218 0.05022 0.0
C19 C 0.24938 0.48612 1.015 0.0
O20 O 0.173 0.57101 0.10707 0.0
O21 O 0.29981 0.60635 0.10368 0.0
O22 O 0.27636 0.4276 0.07075 0.0
O23 O 0.28642 0.45353 0.11995 0.0
O24 O 0.12691 0.39862 0.12881 0.0
O25 O 0.12265 0.28593 0.1086 0.0
O26 O 0.18502 0.23598 0.04468 0.0
O27 O 0.07344 0.22269 1.02544 0.0
O28 O 0.08528 0.38603 0.07483 0.0
O29 O 0.07001 0.36325 1.02597 0.0
O30 O 0.24402 0.41739 1.02098 0.0
O31 O 0.22392 0.51884 0.03603 0.0
H32 H 0.20895 0.72664 0.14129 0.0
H33 H 0.20968 0.75607 0.19813 0.0
H34 H 0.30799 0.60491 0.22056 0.0
H35 H 0.30726 0.57578 0.16385 0.0
H36 H 0.21644 0.1319 1.00911 0.0
H37 H 0.26027 0.11519 0.95641 0.0
H38 H 0.13213 0.22054 0.91265 0.0
H39 H 0.08835 0.23702 0.96521 0.0
Sm40 Sm 0.68932 0.19044 0.43343 0.0
Sm41 Sm 0.82606 0.17553 0.39568 0.0
C42 C 0.55468 0.16658 0.4598 0.0
C43 C 0.54114 0.19665 0.48978 0.0
C44 C 0.48129 0.14288 0.51048 0.0
C45 C 0.481 0.16376 0.54222 0.0
C46 C 0.54043 0.23882 0.55368 0.0
C47 C 0.59615 0.29508 0.53234 0.0
C48 C 0.59685 0.27394 0.50056 0.0
C49 C 0.83342 0.33159 0.43916 0.0
C50 C 0.79258 0.12319 0.4722 0.0
C51 C 0.94623 0.18189 0.36257 0.0
C52 C 0.96906 0.19784 0.32832 0.0
C53 C 0.96514 0.25883 0.31181 0.0
C54 C -0.01551 0.27233 0.27936 0.0
C55 C 0.00731 0.22458 0.2622 0.0
C56 C 0.0111 0.1634 0.27886 0.0
C57 C -0.00778 0.15028 0.31151 0.0
C58 C 0.66558 0.06032 0.38597 0.0
C59 C 0.73537 0.2543 0.36115 0.0
O60 O 0.58244 0.118 0.46364 0.0
O61 O 0.59105 0.21865 0.43695 0.0
O62 O 0.82193 0.27015 0.42462 0.0
O63 O 0.7681 0.31724 0.45366 0.0
O64 O 0.73109 0.13585 0.47192 0.0
O65 O 0.84101 0.13777 0.44726 0.0
O66 O 0.95345 0.24184 0.37946 0.0
O67 O 0.87997 0.11482 0.36897 0.0
O68 O 0.70033 0.09204 0.41159 0.0
O69 O 0.71681 0.08977 0.36269 0.0
O70 O 0.80718 0.26406 0.36706 0.0
O71 O 0.67331 0.21161 0.38015 0.0
H72 H 0.43824 0.08292 0.50268 0.0
H73 H 0.43679 0.11977 0.55824 0.0
H74 H 0.64238 0.35324 0.54069 0.0
H75 H 0.64398 0.31636 0.48502 0.0
H76 H 0.94692 0.29626 0.32395 0.0
H77 H 0.98231 0.32114 0.26786 0.0
H78 H 0.0274 0.12468 0.26661 0.0
H79 H -0.00498 0.10238 0.32358 0.0
Sm80 Sm 0.47255 0.70668 0.74962 0.0
Sm81 Sm 0.6428 0.81847 0.72462 0.0
C82 C 0.34322 0.60743 0.78224 0.0
C83 C 0.33013 0.59454 0.81682 0.0
C84 C 0.29994 0.51809 0.8296 0.0
C85 C 0.29168 0.50651 0.86257 0.0
C86 C 0.31315 0.57124 0.8832 0.0
C87 C 0.34245 0.64752 0.87038 0.0
C88 C 0.35137 0.65922 0.8375 0.0
C89 C 0.49874 0.8535 0.7329 0.0
C90 C 0.62483 0.78762 0.80173 0.0
C91 C 0.77451 0.93518 0.69803 0.0
C92 C 0.78609 0.9659 0.66474 0.0
C93 C 0.72514 0.97409 0.64964 0.0
C94 C 0.73216 -0.00269 0.61769 0.0
C95 C 0.80005 0.01255 0.59959 0.0
C96 C 0.86213 0.00612 0.61485 0.0
C97 C 0.855 0.98266 0.64709 0.0
C98 C 0.58799 0.65709 0.72178 0.0
C99 C 0.49599 0.72865 0.67452 0.0
O100 O 0.39049 0.58522 0.76921 0.0
O101 O 0.35659 0.67636 0.77182 0.0
O102 O 0.54949 0.84147 0.74757 0.0
O103 O 0.4335 0.78727 0.72617 0.0
O104 O 0.54596 0.74756 0.79649 0.0
O105 O 0.67726 0.82057 0.77801 0.0
O106 O 0.72584 0.94745 0.71574 0.0
O107 O 0.76294 0.86325 0.7016 0.0
O108 O 0.58127 0.69515 0.74435 0.0
O109 O 0.62691 0.70513 0.69843 0.0
O110 O 0.55858 0.79819 0.68244 0.0
O111 O 0.45675 0.67301 0.69631 0.0
H112 H 0.28365 0.4676 0.81413 0.0
H113 H 0.26822 0.44687 0.87196 0.0
H114 H 0.36018 0.69836 0.88582 0.0
H115 H 0.37603 0.71926 0.82839 0.0
H116 H 0.67099 0.96138 0.66239 0.0
H117 H 0.68381 0.00319 0.60714 0.0
H118 H 0.91516 0.01714 0.60169 0.0
H119 H 0.90266 0.97632 0.65807 0.0
Sm120 Sm 0.77518 0.4854 0.10165 0.0
Sm121 Sm 0.79455 0.63688 0.06316 0.0
C122 C 0.80192 0.38166 0.13141 0.0
C123 C 0.77822 0.34749 0.16351 0.0
C124 C 0.83781 0.35224 0.18426 0.0
C125 C 0.8219 0.33744 0.21672 0.0
C126 C 0.74603 0.31761 0.22902 0.0
C127 C 0.68478 0.30836 0.20798 0.0
C128 C 0.70092 0.32375 0.17544 0.0
C129 C 0.63356 0.48661 0.10578 0.0
C130 C 0.83374 0.65218 0.1412 0.0
C131 C 0.78872 0.75004 0.02971 0.0
C132 C 0.7681 0.75708 0.99601 0.0
C133 C 0.70802 0.69049 0.97941 0.0
C134 C 0.68777 0.6978 0.94786 0.0
C135 C 0.72739 0.77177 0.93191 0.0
C136 C 0.78894 0.83793 0.94833 0.0
C137 C 0.80882 0.83066 0.98004 0.0
C138 C 0.90721 0.59003 0.05348 0.0
C139 C 0.70789 0.46588 0.02965 0.0
O140 O 0.85392 0.4582 0.13122 0.0
O141 O 0.7441 0.36027 0.1102 0.0
O142 O 0.6965 0.53739 0.09154 0.0
O143 O 0.64591 0.43456 0.12009 0.0
O144 O 0.81296 0.5762 0.14195 0.0
O145 O 0.83398 0.68997 0.11453 0.0
O146 O 0.72942 0.69871 0.04774 0.0
O147 O 0.85565 0.74901 0.03448 0.0
O148 O 0.877 0.59386 0.07934 0.0
O149 O 0.87811 0.61245 0.03027 0.0
O150 O 0.70212 0.52943 0.03509 0.0
O151 O 0.74907 0.44501 0.04887 0.0
H152 H 0.89806 0.37185 0.17565 0.0
H153 H 0.86984 0.34386 0.2324 0.0
H154 H 0.62585 0.29316 0.21687 0.0
H155 H 0.65416 0.32086 0.15996 0.0
H156 H 0.67631 0.63266 0.99088 0.0
H157 H 0.64113 0.64518 0.93588 0.0
H158 H 0.82047 0.89581 0.93693 0.0
H159 H 0.85569 0.8828 0.99221 0.0
Sm160 Sm 0.25798 0.75738 0.42254 0.0
Sm161 Sm 0.15401 0.8139 0.39176 0.0
C162 C 0.35997 0.71445 0.44421 0.0
C163 C 0.3758 0.69599 0.47646 0.0
C164 C 0.45436 0.71658 0.48531 0.0
C165 C 0.47242 0.7108 0.51718 0.0
C166 C 0.41209 0.68453 0.54065 0.0
C167 C 0.33251 0.65986 0.53138 0.0
C168 C 0.31458 0.66598 0.49954 0.0
C169 C 0.09619 0.6535 0.43004 0.0
C170 C 0.19907 0.85118 0.46858 0.0
C171 C 0.04801 0.84226 0.36274 0.0
C172 C 0.01651 0.82709 0.32947 0.0
C173 C 0.93508 0.80155 0.32335 0.0
C174 C 0.90367 0.78167 0.29224 0.0
C175 C 0.95315 0.78737 0.26646 0.0
C176 C 0.03517 0.81466 0.27258 0.0
C177 C 0.06635 0.83376 0.30372 0.0
C178 C 0.31932 0.91344 0.38568 0.0
C179 C 0.21799 0.72825 0.34667 0.0
O180 O 0.38028 0.78873 0.43956 0.0
O181 O 0.28961 0.66412 0.43191 0.0
O182 O 0.12885 0.68932 0.40434 0.0
O183 O 0.14869 0.67602 0.45296 0.0
O184 O 0.25516 0.83203 0.46396 0.0
O185 O 0.14621 0.8411 0.44574 0.0
O186 O 0.02658 0.77926 0.38054 0.0
O187 O 0.12408 0.89639 0.36649 0.0
O188 O 0.28107 0.87817 0.41022 0.0
O189 O 0.26974 0.89779 0.362 0.0
O190 O 0.15328 0.73161 0.35354 0.0
O191 O 0.27554 0.74819 0.36821 0.0
H192 H 0.50234 0.74025 0.46783 0.0
H193 H 0.5342 0.72965 0.52369 0.0
H194 H 0.28512 0.64035 0.54898 0.0
H195 H 0.25361 0.65059 0.49323 0.0
H196 H 0.89534 0.7955 0.34276 0.0
H197 H 0.84028 0.76098 0.28837 0.0
H198 H 0.07464 0.81833 0.25346 0.0
H199 H 0.12916 0.85212 0.30774 0.0
Sm200 Sm 0.49683 0.28249 0.76056 0.0
Sm201 Sm 0.34024 0.15807 0.72692 0.0
C202 C 0.60727 0.39588 0.79711 0.0
C203 C 0.62269 0.39823 0.83155 0.0
C204 C 0.63386 0.46366 0.84946 0.0
C205 C 0.64165 0.46348 0.88257 0.0
C206 C 0.6388 0.39797 0.89819 0.0
C207 C 0.62922 0.33314 0.88021 0.0
C208 C 0.62046 0.33289 0.84713 0.0
C209 C 0.49215 0.14259 0.74915 0.0
C210 C 0.33549 0.17667 0.80487 0.0
C211 C 0.21983 0.03902 0.69515 0.0
C212 C 0.20946 0.01877 0.66069 0.0
C213 C 0.14113 0.94945 0.64939 0.0
C214 C 0.13564 0.92668 0.61722 0.0
C215 C 0.19887 0.97242 0.59579 0.0
C216 C 0.26596 0.04323 0.6071 0.0
C217 C 0.27109 0.06614 0.63909 0.0
C218 C 0.38317 0.31643 0.72049 0.0
C219 C 0.50299 0.25521 0.68642 0.0
O220 O 0.54038 0.39345 0.78891 0.0
O221 O 0.62075 0.3472 0.78049 0.0
O222 O 0.43168 0.14732 0.75803 0.0
O223 O 0.55721 0.21173 0.74773 0.0
O224 O 0.41488 0.22297 0.80376 0.0
O225 O 0.29111 0.14575 0.77863 0.0
O226 O 0.27743 0.03321 0.70941 0.0
O227 O 0.21921 0.10361 0.70342 0.0
O228 O 0.38489 0.28093 0.74512 0.0
O229 O 0.35795 0.26739 0.69656 0.0
O230 O 0.44187 0.18359 0.69255 0.0
O231 O 0.5274 0.31392 0.70728 0.0
H232 H 0.63511 0.5142 0.83791 0.0
H233 H 0.64991 0.51461 0.89601 0.0
H234 H 0.62646 0.28196 0.89181 0.0
H235 H 0.61052 0.28098 0.83385 0.0
H236 H 0.09297 0.9118 0.66562 0.0
H237 H 0.0834 0.87158 0.60943 0.0
H238 H 0.3152 0.08059 0.59127 0.0
H239 H 0.32429 0.12007 0.64714 0.0
C240 C 0.30053 0.71772 0.30262 0.0
C241 C 0.22786 0.71022 0.31337 0.0
H242 H 0.36771 0.71535 0.26227 0.0
C243 C 0.16523 0.69111 0.29128 0.0
H244 H 0.34995 0.73279 0.31905 0.0
C245 C 0.17567 0.68211 0.25908 0.0
C246 C 0.24879 0.69152 0.24811 0.0
H247 H 0.10818 0.68446 0.29867 0.0
H248 H 0.1262 0.66754 0.24272 0.0
C249 C 0.31078 0.70804 0.27019 0.0
C250 C 0.54621 0.32817 0.63457 0.0
C251 C 0.53801 0.26648 0.65455 0.0
H252 H 0.55243 0.36728 0.58604 0.0
C253 C 0.54344 0.20305 0.64154 0.0
H254 H 0.54174 0.37735 0.64418 0.0
C255 C 0.54858 0.19686 0.60876 0.0
C256 C 0.54844 0.25404 0.58835 0.0
H257 H 0.53759 0.15496 0.65659 0.0
H258 H 0.54861 0.14513 0.59924 0.0
C259 C 0.55147 0.32197 0.60144 0.0
C260 C 0.25361 0.57111 0.96919 0.0
C261 C 0.27747 0.52053 0.98313 0.0
H262 H 0.24564 0.62636 0.926 0.0
C263 C 0.32021 0.49382 0.96479 0.0
H264 H 0.22024 0.5921 0.9828 0.0
C265 C 0.33406 0.51269 0.93256 0.0
C266 C 0.30575 0.55892 0.91804 0.0
H267 H 0.3404 0.4556 0.97504 0.0
H268 H 0.36525 0.48949 0.9188 0.0
C269 C 0.26778 0.59029 0.93676 0.0
C270 C 0.78981 0.35055 0.31693 0.0
C271 C 0.72479 0.28136 0.3298 0.0
H272 H 0.84643 0.41694 0.27483 0.0
C273 C 0.65979 0.23044 0.31004 0.0
H274 H 0.84041 0.39086 0.33185 0.0
C275 C 0.664 0.24444 0.27711 0.0
C276 C 0.73306 0.30967 0.26389 0.0
H277 H 0.60935 0.17642 0.31952 0.0
H278 H 0.61614 0.20137 0.26186 0.0
C279 C 0.79372 0.36483 0.2843 0.0
C280 C 0.40622 0.64328 0.62966 0.0
C281 C 0.47282 0.71478 0.64046 0.0
H282 H 0.33475 0.57701 0.5892 0.0
C283 C 0.51976 0.77435 0.61811 0.0
H284 H 0.36926 0.59617 0.64629 0.0
C285 C 0.50065 0.76321 0.58581 0.0
C286 C 0.43395 0.69229 0.5749 0.0
H287 H 0.57156 0.83026 0.62544 0.0
H288 H 0.53721 0.81122 0.56943 0.0
C289 C 0.38663 0.6323 0.59708 0.0
C290 C 0.71866 0.39859 0.98087 0.0
C291 C 0.67669 0.4268 0.99873 0.0
H292 H 0.73953 0.36759 0.93422 0.0
C293 C 0.61388 0.43295 0.98428 0.0
H294 H 0.76775 0.39403 0.99148 0.0
C295 C 0.59857 0.41895 0.9518 0.0
C296 C 0.64544 0.39802 0.93324 0.0
H297 H 0.58006 0.45385 0.99767 0.0
H298 H 0.5527 0.42827 0.94088 0.0
C299 C 0.70296 0.38412 0.94817 0.0
C300 C 0.41868 0.42006 0.12569 0.0
C301 C 0.39197 0.43903 0.09768 0.0
H302 H 0.5173 0.42115 0.15006 0.0
C303 C 0.44657 0.4781 0.07266 0.0
H304 H 0.37774 0.39112 0.14541 0.0
C305 C 0.52726 0.49829 0.07582 0.0
C306 C 0.55333 0.47775 0.10368 0.0
H307 H 0.42743 0.49479 0.05107 0.0
H308 H 0.56836 0.52771 0.05622 0.0
C309 C 0.49846 0.43822 0.12848 0.0
C310 C 0.98036 0.5456 0.45893 0.0
C311 C 0.02586 0.5726 0.43092 0.0
H312 H 0.88357 0.44725 0.48334 0.0
C313 C 0.01056 0.51864 0.40592 0.0
H314 H -0.00776 0.58596 0.47868 0.0
C315 C 0.95066 0.43841 0.4091 0.0
C316 C 0.90432 0.41195 0.43701 0.0
H317 H 0.04634 0.53795 0.38435 0.0
H318 H 0.93928 0.39784 0.38952 0.0
C319 C 0.91927 0.46625 0.46174 0.0
C320 C 0.42106 -0.00472 0.74217 0.0
C321 C 0.49305 0.06845 0.74434 0.0
H322 H 0.36669 0.86958 0.73586 0.0
C323 C 0.56733 0.07103 0.74172 0.0
H324 H 0.36329 -0.00821 0.74443 0.0
C325 C 0.56957 0.00108 0.73765 0.0
C326 C 0.49756 0.92799 0.73533 0.0
H327 H 0.62388 0.127 0.74334 0.0
H328 H 0.62735 0.0041 0.73638 0.0
C329 C 0.42326 0.9256 0.73723 0.0
C330 C 0.50222 0.52786 0.74799 0.0
C331 C 0.53709 0.56976 0.71976 0.0
H332 H 0.42175 0.4164 0.76965 0.0
C333 C 0.51696 0.52827 0.6906 0.0
H334 H 0.51641 0.55819 0.77081 0.0
C335 C 0.46321 0.44544 0.69005 0.0
C336 C 0.42948 0.40405 0.71863 0.0
H337 H 0.5421 0.55968 0.66843 0.0
H338 H 0.4494 0.41379 0.66758 0.0
C339 C 0.44791 0.44656 0.74733 0.0
C340 C 0.0074 0.47529 0.07794 0.0
C341 C 0.01386 0.4422 0.04922 0.0
H342 H 0.97754 0.55445 0.1008 0.0
C343 C -0.01256 0.46059 1.02074 0.0
H344 H 0.0256 0.46129 0.1004 0.0
C345 C 0.95413 0.51066 1.02139 0.0
C346 C 0.94888 0.544 0.05041 0.0
H347 H -0.00814 0.43594 0.99823 0.0
H348 H 0.93155 0.5222 0.99949 0.0
C349 C 0.97829 0.52762 0.07831 0.0
C350 C 0.45024 0.95775 0.4121 0.0
C351 C 0.40792 0.95092 0.38382 0.0
H352 H 0.56301 -0.00864 0.43411 0.0
C353 C 0.45075 0.97667 0.35494 0.0
H354 H 0.41942 0.93926 0.4348 0.0
C355 C 0.53518 0.01011 0.35477 0.0
C356 C 0.57676 0.01697 0.38343 0.0
H357 H 0.41929 0.97149 0.33274 0.0
H358 H 0.56781 0.03187 0.33258 0.0
C359 C 0.53291 -0.01164 0.41177 0.0
C360 C 0.34507 0.18466 0.86467 0.0
C361 C 0.29698 0.16444 0.83688 0.0
H362 H 0.35282 0.20158 0.91527 0.0
C363 C 0.21492 0.14045 0.84021 0.0
H364 H 0.4086 0.20364 0.86321 0.0
C365 C 0.18278 0.13966 0.87042 0.0
C366 C 0.23167 0.16191 0.89807 0.0
H367 H 0.17619 0.12499 0.81939 0.0
H368 H 0.11972 0.12224 0.8721 0.0
C369 C 0.31293 0.18316 0.89473 0.0
C370 C 0.08898 0.23003 0.21355 0.0
C371 C 0.0275 0.23971 0.22731 0.0
H372 H 0.16241 0.24764 0.17217 0.0
C373 C -0.01243 0.26791 0.20763 0.0
H374 H 0.12166 0.20896 0.22779 0.0
C375 C 0.01209 0.29131 0.17614 0.0
C376 C 0.07557 0.28498 0.16298 0.0
H377 H 0.93808 0.27346 0.21669 0.0
H378 H 0.98251 0.3162 0.16216 0.0
C379 C 0.11241 0.252 0.18163 0.0
C380 C 0.73319 -0.00365 0.54623 0.0
C381 C 0.80383 0.0338 0.56495 0.0
H382 H 0.67535 -0.00493 0.50229 0.0
C383 C 0.8752 0.09445 0.55076 0.0
H384 H 0.67766 0.94792 0.55583 0.0
C385 C 0.87414 0.12051 0.51939 0.0
C386 C 0.80166 0.08647 0.50185 0.0
H387 H 0.93074 0.12461 0.56442 0.0
H388 H 0.92849 0.1703 0.50968 0.0
C389 C 0.73201 0.02278 0.51533 0.0
C390 C 0.73538 0.82893 0.84366 0.0
C391 C 0.65299 0.78912 0.83528 0.0
H392 H 0.82372 0.85489 0.88056 0.0
C393 C 0.59605 0.74592 0.85925 0.0
H394 H 0.78102 0.86251 0.82593 0.0
C395 C 0.62041 0.74108 0.89031 0.0
C396 C 0.7026 0.77965 0.89868 0.0
H397 H 0.53199 0.71429 0.85402 0.0
H398 H 0.57442 0.70705 0.90788 0.0
C399 C 0.75985 0.82462 0.87503 0.0
C400 C 0.84655 0.685 0.23041 0.0
C401 C 0.91811 0.75874 0.23391 0.0
H402 H 0.76409 0.59441 0.19843 0.0
C403 C 0.95773 0.80154 0.20611 0.0
H404 H 0.81487 0.65002 0.25117 0.0
C405 C 0.92758 0.76999 0.17559 0.0
C406 C 0.85823 0.69435 0.17236 0.0
H407 H 0.01285 0.85872 0.20799 0.0
H408 H 0.96078 0.80273 0.15467 0.0
C409 C 0.81751 0.65303 0.20012 0.0
C410 C 0.26778 0.94783 0.55014 0.0
C411 C 0.19806 0.94407 0.5625 0.0
H412 H 0.32256 0.92205 0.51134 0.0
C413 C 0.12827 0.91143 0.54311 0.0
H414 H 0.3223 0.97149 0.56442 0.0
C415 C 0.12848 0.88317 0.51219 0.0
C416 C 0.19802 0.88558 0.50026 0.0
H417 H 0.07361 0.90796 0.55181 0.0
H418 H 0.07377 0.85782 0.49798 0.0
C419 C 0.26765 0.91877 0.51965 0.0
loop_
_geom_bond_atom_site_label_1
_geom_bond_atom_site_label_2
_geom_bond_distance
_geom_bond_site_symmetry_2
_ccdc_geom_bond_type
Sm0 C2 2.846 . S
Sm0 O20 2.543 . S
Sm0 O21 2.450 . S
Sm0 O22 2.681 . S
Sm0 O23 2.464 . S
Sm0 O24 2.396 . S
Sm0 O28 2.386 . S
Sm0 O31 2.408 . S
Sm1 C11 2.846 1_554 S
Sm1 O22 2.386 . S
Sm1 O25 2.408 . S
Sm1 O26 2.543 1_554 S
Sm1 O27 2.450 1_554 S
Sm1 O28 2.681 . S
Sm1 O29 2.464 . S
Sm1 O30 2.396 1_554 S
C2 Sm0 2.846 . S
C2 C3 1.506 . S
C2 O20 1.261 . S
C2 O21 1.242 . S
C3 C2 1.506 . S
C3 C4 1.358 . S
C3 C8 1.382 . S
C4 C3 1.358 . S
C4 C5 1.385 . S
C4 H32 0.930 . S
C5 C4 1.385 . S
C5 C6 1.395 . S
C5 H33 0.929 . S
C6 C5 1.395 . S
C6 C7 1.335 . S
C7 C6 1.335 . S
C7 C8 1.398 . S
C7 H34 0.930 . S
C8 C3 1.382 . S
C8 C7 1.398 . S
C8 H35 0.929 . S
C9 O22 1.271 . S
C9 O23 1.251 . S
C10 O24 1.252 . S
C10 O25 1.272 . S
C11 Sm1 2.846 1_556 S
C11 C12 1.506 . S
C11 O26 1.261 . S
C11 O27 1.242 . S
C12 C11 1.506 . S
C12 C13 1.358 . S
C12 C17 1.382 . S
C13 C12 1.358 . S
C13 C14 1.385 . S
C13 H36 0.930 . S
C14 C13 1.385 . S
C14 C15 1.395 . S
C14 H37 0.929 . S
C15 C14 1.395 . S
C15 C16 1.335 . S
C16 C15 1.335 . S
C16 C17 1.398 . S
C16 H38 0.930 . S
C17 C12 1.382 . S
C17 C16 1.398 . S
C17 H39 0.929 . S
C18 O28 1.271 . S
C18 O29 1.251 . S
C19 O30 1.252 . S
C19 O31 1.272 1_556 S
O20 Sm0 2.543 . S
O20 C2 1.261 . S
O21 Sm0 2.450 . S
O21 C2 1.242 . S
O22 Sm0 2.681 . S
O22 Sm1 2.386 . S
O22 C9 1.271 . S
O23 Sm0 2.464 . S
O23 C9 1.251 . S
O24 Sm0 2.396 . S
O24 C10 1.252 . S
O25 Sm1 2.408 . S
O25 C10 1.272 . S
O26 Sm1 2.543 1_556 S
O26 C11 1.261 . S
O27 Sm1 2.450 1_556 S
O27 C11 1.242 . S
O28 Sm0 2.386 . S
O28 Sm1 2.681 . S
O28 C18 1.271 . S
O29 Sm1 2.464 . S
O29 C18 1.251 . S
O30 Sm1 2.396 1_556 S
O30 C19 1.252 . S
O31 Sm0 2.408 . S
O31 C19 1.272 1_554 S
H32 C4 0.930 . S
H33 C5 0.929 . S
H34 C7 0.930 . S
H35 C8 0.929 . S
H36 C13 0.930 . S
H37 C14 0.929 . S
H38 C16 0.930 . S
H39 C17 0.929 . S
Sm40 C42 2.846 . S
Sm40 O60 2.543 . S
Sm40 O61 2.450 . S
Sm40 O62 2.681 . S
Sm40 O63 2.464 . S
Sm40 O64 2.396 . S
Sm40 O68 2.386 . S
Sm40 O71 2.408 . S
Sm41 C51 2.846 . S
Sm41 O62 2.386 . S
Sm41 O65 2.408 . S
Sm41 O66 2.543 . S
Sm41 O67 2.450 . S
Sm41 O68 2.681 . S
Sm41 O69 2.464 . S
Sm41 O70 2.396 . S
C42 Sm40 2.846 . S
C42 C43 1.506 . S
C42 O60 1.261 . S
C42 O61 1.242 . S
C43 C42 1.506 . S
C43 C44 1.358 . S
C43 C48 1.382 . S
C44 C43 1.358 . S
C44 C45 1.385 . S
C44 H72 0.930 . S
C45 C44 1.385 . S
C45 C46 1.395 . S
C45 H73 0.929 . S
C46 C45 1.395 . S
C46 C47 1.335 . S
C47 C46 1.335 . S
C47 C48 1.398 . S
C47 H74 0.930 . S
C48 C43 1.382 . S
C48 C47 1.398 . S
C48 H75 0.929 . S
C49 O62 1.271 . S
C49 O63 1.251 . S
C50 O64 1.252 . S
C50 O65 1.272 . S
C51 Sm41 2.846 . S
C51 C52 1.506 . S
C51 O66 1.261 . S
C51 O67 1.242 . S
C52 C51 1.506 . S
C52 C53 1.358 1_655 S
C52 C57 1.382 . S
C53 C52 1.358 1_455 S
C53 C54 1.385 . S
C53 H76 0.930 . S
C54 C53 1.385 . S
C54 C55 1.395 . S
C54 H77 0.929 . S
C55 C54 1.395 . S
C55 C56 1.335 1_455 S
C56 C55 1.335 1_655 S
C56 C57 1.398 . S
C56 H78 0.930 . S
C57 C52 1.382 . S
C57 C56 1.398 . S
C57 H79 0.929 . S
C58 O68 1.271 . S
C58 O69 1.251 . S
C59 O70 1.252 . S
C59 O71 1.272 . S
O60 Sm40 2.543 . S
O60 C42 1.261 . S
O61 Sm40 2.450 . S
O61 C42 1.242 . S
O62 Sm40 2.681 . S
O62 Sm41 2.386 . S
O62 C49 1.271 . S
O63 Sm40 2.464 . S
O63 C49 1.251 . S
O64 Sm40 2.396 . S
O64 C50 1.252 . S
O65 Sm41 2.408 . S
O65 C50 1.272 . S
O66 Sm41 2.543 . S
O66 C51 1.261 . S
O67 Sm41 2.450 . S
O67 C51 1.242 . S
O68 Sm40 2.386 . S
O68 Sm41 2.681 . S
O68 C58 1.271 . S
O69 Sm41 2.464 . S
O69 C58 1.251 . S
O70 Sm41 2.396 . S
O70 C59 1.252 . S
O71 Sm40 2.408 . S
O71 C59 1.272 . S
H72 C44 0.930 . S
H73 C45 0.929 . S
H74 C47 0.930 . S
H75 C48 0.929 . S
H76 C53 0.930 . S
H77 C54 0.929 . S
H78 C56 0.930 . S
H79 C57 0.929 . S
Sm80 C82 2.846 . S
Sm80 O100 2.543 . S
Sm80 O101 2.450 . S
Sm80 O102 2.681 . S
Sm80 O103 2.464 . S
Sm80 O104 2.396 . S
Sm80 O108 2.386 . S
Sm80 O111 2.408 . S
Sm81 C91 2.846 . S
Sm81 O102 2.386 . S
Sm81 O105 2.408 . S
Sm81 O106 2.543 . S
Sm81 O107 2.450 . S
Sm81 O108 2.681 . S
Sm81 O109 2.464 . S
Sm81 O110 2.396 . S
C82 Sm80 2.846 . S
C82 C83 1.506 . S
C82 O100 1.261 . S
C82 O101 1.242 . S
C83 C82 1.506 . S
C83 C84 1.358 . S
C83 C88 1.382 . S
C84 C83 1.358 . S
C84 C85 1.385 . S
C84 H112 0.930 . S
C85 C84 1.385 . S
C85 C86 1.395 . S
C85 H113 0.929 . S
C86 C85 1.395 . S
C86 C87 1.335 . S
C87 C86 1.335 . S
C87 C88 1.398 . S
C87 H114 0.930 . S
C88 C83 1.382 . S
C88 C87 1.398 . S
C88 H115 0.929 . S
C89 O102 1.271 . S
C89 O103 1.251 . S
C90 O104 1.252 . S
C90 O105 1.272 . S
C91 Sm81 2.846 . S
C91 C92 1.506 . S
C91 O106 1.261 . S
C91 O107 1.242 . S
C92 C91 1.506 . S
C92 C93 1.358 1_565 S
C92 C97 1.382 . S
C93 C92 1.358 1_545 S
C93 C94 1.385 . S
C93 H116 0.930 . S
C94 C93 1.385 . S
C94 C95 1.395 . S
C94 H117 0.929 . S
C95 C94 1.395 . S
C95 C96 1.335 1_545 S
C96 C95 1.335 1_565 S
C96 C97 1.398 . S
C96 H118 0.930 . S
C97 C92 1.382 . S
C97 C96 1.398 . S
C97 H119 0.929 . S
C98 O108 1.271 . S
C98 O109 1.251 . S
C99 O110 1.252 . S
C99 O111 1.272 . S
O100 Sm80 2.543 . S
O100 C82 1.261 . S
O101 Sm80 2.450 . S
O101 C82 1.242 . S
O102 Sm80 2.681 . S
O102 Sm81 2.386 . S
O102 C89 1.271 . S
O103 Sm80 2.464 . S
O103 C89 1.251 . S
O104 Sm80 2.396 . S
O104 C90 1.252 . S
O105 Sm81 2.408 . S
O105 C90 1.272 . S
O106 Sm81 2.543 . S
O106 C91 1.261 . S
O107 Sm81 2.450 . S
O107 C91 1.242 . S
O108 Sm80 2.386 . S
O108 Sm81 2.681 . S
O108 C98 1.271 . S
O109 Sm81 2.464 . S
O109 C98 1.251 . S
O110 Sm81 2.396 . S
O110 C99 1.252 . S
O111 Sm80 2.408 . S
O111 C99 1.272 . S
H112 C84 0.930 . S
H113 C85 0.929 . S
H114 C87 0.930 . S
H115 C88 0.929 . S
H116 C93 0.930 . S
H117 C94 0.929 . S
H118 C96 0.930 . S
H119 C97 0.929 . S
Sm120 C122 2.846 . S
Sm120 O140 2.543 . S
Sm120 O141 2.450 . S
Sm120 O142 2.681 . S
Sm120 O143 2.464 . S
Sm120 O144 2.396 . S
Sm120 O148 2.386 . S
Sm120 O151 2.408 . S
Sm121 C131 2.846 1_554 S
Sm121 O142 2.386 . S
Sm121 O145 2.408 . S
Sm121 O146 2.543 1_554 S
Sm121 O147 2.450 1_554 S
Sm121 O148 2.681 . S
Sm121 O149 2.464 . S
Sm121 O150 2.396 1_554 S
C122 Sm120 2.846 . S
C122 C123 1.506 . S
C122 O140 1.261 . S
C122 O141 1.242 . S
C123 C122 1.506 . S
C123 C124 1.358 . S
C123 C128 1.382 . S
C124 C123 1.358 . S
C124 C125 1.385 . S
C124 H152 0.930 . S
C125 C124 1.385 . S
C125 C126 1.395 . S
C125 H153 0.929 . S
C126 C125 1.395 . S
C126 C127 1.335 . S
C127 C126 1.335 . S
C127 C128 1.398 . S
C127 H154 0.930 . S
C128 C123 1.382 . S
C128 C127 1.398 . S
C128 H155 0.929 . S
C129 O142 1.271 . S
C129 O143 1.251 . S
C130 O144 1.252 . S
C130 O145 1.272 . S
C131 Sm121 2.846 1_556 S
C131 C132 1.506 . S
C131 O146 1.261 . S
C131 O147 1.242 . S
C132 C131 1.506 . S
C132 C133 1.358 . S
C132 C137 1.382 . S
C133 C132 1.358 . S
C133 C134 1.385 . S
C133 H156 0.930 . S
C134 C133 1.385 . S
C134 C135 1.395 . S
C134 H157 0.929 . S
C135 C134 1.395 . S
C135 C136 1.335 . S
C136 C135 1.335 . S
C136 C137 1.398 . S
C136 H158 0.930 . S
C137 C132 1.382 . S
C137 C136 1.398 . S
C137 H159 0.929 . S
C138 O148 1.271 . S
C138 O149 1.251 . S
C139 O150 1.252 . S
C139 O151 1.272 1_556 S
O140 Sm120 2.543 . S
O140 C122 1.261 . S
O141 Sm120 2.450 . S
O141 C122 1.242 . S
O142 Sm120 2.681 . S
O142 Sm121 2.386 . S
O142 C129 1.271 . S
O143 Sm120 2.464 . S
O143 C129 1.251 . S
O144 Sm120 2.396 . S
O144 C130 1.252 . S
O145 Sm121 2.408 . S
O145 C130 1.272 . S
O146 Sm121 2.543 1_556 S
O146 C131 1.261 . S
O147 Sm121 2.450 1_556 S
O147 C131 1.242 . S
O148 Sm120 2.386 . S
O148 Sm121 2.681 . S
O148 C138 1.271 . S
O149 Sm121 2.464 . S
O149 C138 1.251 . S
O150 Sm121 2.396 1_556 S
O150 C139 1.252 . S
O151 Sm120 2.408 . S
O151 C139 1.272 1_554 S
H152 C124 0.930 . S
H153 C125 0.929 . S
H154 C127 0.930 . S
H155 C128 0.929 . S
H156 C133 0.930 . S
H157 C134 0.929 . S
H158 C136 0.930 . S
H159 C137 0.929 . S
Sm160 C162 2.846 . S
Sm160 O180 2.543 . S
Sm160 O181 2.450 . S
Sm160 O182 2.681 . S
Sm160 O183 2.464 . S
Sm160 O184 2.396 . S
Sm160 O188 2.386 . S
Sm160 O191 2.408 . S
Sm161 C171 2.846 . S
Sm161 O182 2.386 . S
Sm161 O185 2.408 . S
Sm161 O186 2.543 . S
Sm161 O187 2.450 . S
Sm161 O188 2.681 . S
Sm161 O189 2.464 . S
Sm161 O190 2.396 . S
C162 Sm160 2.846 . S
C162 C163 1.506 . S
C162 O180 1.261 . S
C162 O181 1.242 . S
C163 C162 1.506 . S
C163 C164 1.358 . S
C163 C168 1.382 . S
C164 C163 1.358 . S
C164 C165 1.385 . S
C164 H192 0.930 . S
C165 C164 1.385 . S
C165 C166 1.395 . S
C165 H193 0.929 . S
C166 C165 1.395 . S
C166 C167 1.335 . S
C167 C166 1.335 . S
C167 C168 1.398 . S
C167 H194 0.930 . S
C168 C163 1.382 . S
C168 C167 1.398 . S
C168 H195 0.929 . S
C169 O182 1.271 . S
C169 O183 1.251 . S
C170 O184 1.252 . S
C170 O185 1.272 . S
C171 Sm161 2.846 . S
C171 C172 1.506 . S
C171 O186 1.261 . S
C171 O187 1.242 . S
C172 C171 1.506 . S
C172 C173 1.358 1_455 S
C172 C177 1.382 . S
C173 C172 1.358 1_655 S
C173 C174 1.385 . S
C173 H196 0.930 . S
C174 C173 1.385 . S
C174 C175 1.395 . S
C174 H197 0.929 . S
C175 C174 1.395 . S
C175 C176 1.335 1_655 S
C176 C175 1.335 1_455 S
C176 C177 1.398 . S
C176 H198 0.930 . S
C177 C172 1.382 . S
C177 C176 1.398 . S
C177 H199 0.929 . S
C178 O188 1.271 . S
C178 O189 1.251 . S
C179 O190 1.252 . S
C179 O191 1.272 . S
O180 Sm160 2.543 . S
O180 C162 1.261 . S
O181 Sm160 2.450 . S
O181 C162 1.242 . S
O182 Sm160 2.681 . S
O182 Sm161 2.386 . S
O182 C169 1.271 . S
O183 Sm160 2.464 . S
O183 C169 1.251 . S
O184 Sm160 2.396 . S
O184 C170 1.252 . S
O185 Sm161 2.408 . S
O185 C170 1.272 . S
O186 Sm161 2.543 . S
O186 C171 1.261 . S
O187 Sm161 2.450 . S
O187 C171 1.242 . S
O188 Sm160 2.386 . S
O188 Sm161 2.681 . S
O188 C178 1.271 . S
O189 Sm161 2.464 . S
O189 C178 1.251 . S
O190 Sm161 2.396 . S
O190 C179 1.252 . S
O191 Sm160 2.408 . S
O191 C179 1.272 . S
H192 C164 0.930 . S
H193 C165 0.929 . S
H194 C167 0.930 . S
H195 C168 0.929 . S
H196 C173 0.930 . S
H197 C174 0.929 . S
H198 C176 0.930 . S
H199 C177 0.929 . S
Sm200 C202 2.846 . S
Sm200 O220 2.543 . S
Sm200 O221 2.450 . S
Sm200 O222 2.681 . S
Sm200 O223 2.464 . S
Sm200 O224 2.396 . S
Sm200 O228 2.386 . S
Sm200 O231 2.408 . S
Sm201 C211 2.846 . S
Sm201 O222 2.386 . S
Sm201 O225 2.408 . S
Sm201 O226 2.543 . S
Sm201 O227 2.450 . S
Sm201 O228 2.681 . S
Sm201 O229 2.464 . S
Sm201 O230 2.396 . S
C202 Sm200 2.846 . S
C202 C203 1.506 . S
C202 O220 1.261 . S
C202 O221 1.242 . S
C203 C202 1.506 . S
C203 C204 1.358 . S
C203 C208 1.382 . S
C204 C203 1.358 . S
C204 C205 1.385 . S
C204 H232 0.930 . S
C205 C204 1.385 . S
C205 C206 1.395 . S
C205 H233 0.929 . S
C206 C205 1.395 . S
C206 C207 1.335 . S
C207 C206 1.335 . S
C207 C208 1.398 . S
C207 H234 0.930 . S
C208 C203 1.382 . S
C208 C207 1.398 . S
C208 H235 0.929 . S
C209 O222 1.271 . S
C209 O223 1.251 . S
C210 O224 1.252 . S
C210 O225 1.272 . S
C211 Sm201 2.846 . S
C211 C212 1.506 . S
C211 O226 1.261 . S
C211 O227 1.242 . S
C212 C211 1.506 . S
C212 C213 1.358 1_545 S
C212 C217 1.382 . S
C213 C212 1.358 1_565 S
C213 C214 1.385 . S
C213 H236 0.930 . S
C214 C213 1.385 . S
C214 C215 1.395 . S
C214 H237 0.929 . S
C215 C214 1.395 . S
C215 C216 1.335 1_565 S
C216 C215 1.335 1_545 S
C216 C217 1.398 . S
C216 H238 0.930 . S
C217 C212 1.382 . S
C217 C216 1.398 . S
C217 H239 0.929 . S
C218 O228 1.271 . S
C218 O229 1.251 . S
C219 O230 1.252 . S
C219 O231 1.272 . S
O220 Sm200 2.543 . S
O220 C202 1.261 . S
O221 Sm200 2.450 . S
O221 C202 1.242 . S
O222 Sm200 2.681 . S
O222 Sm201 2.386 . S
O222 C209 1.271 . S
O223 Sm200 2.464 . S
O223 C209 1.251 . S
O224 Sm200 2.396 . S
O224 C210 1.252 . S
O225 Sm201 2.408 . S
O225 C210 1.272 . S
O226 Sm201 2.543 . S
O226 C211 1.261 . S
O227 Sm201 2.450 . S
O227 C211 1.242 . S
O228 Sm200 2.386 . S
O228 Sm201 2.681 . S
O228 C218 1.271 . S
O229 Sm201 2.464 . S
O229 C218 1.251 . S
O230 Sm201 2.396 . S
O230 C219 1.252 . S
O231 Sm200 2.408 . S
O231 C219 1.272 . S
H232 C204 0.930 . S
H233 C205 0.929 . S
H234 C207 0.930 . S
H235 C208 0.929 . S
H236 C213 0.930 . S
H237 C214 0.929 . S
H238 C216 0.930 . S
H239 C217 0.929 . S
C240 C241 1.387 . S
C240 H244 0.950 . S
C240 C249 1.390 . S
C241 C240 1.387 . S
C241 C243 1.387 . S
H242 C249 0.950 . S
C243 C241 1.387 . S
C243 C245 1.390 . S
C243 H247 0.950 . S
H244 C240 0.950 . S
C245 C243 1.390 . S
C245 C246 1.387 . S
C245 H248 0.950 . S
C246 C245 1.387 . S
C246 C249 1.387 . S
H247 C243 0.950 . S
H248 C245 0.950 . S
C249 C240 1.390 . S
C249 H242 0.950 . S
C249 C246 1.387 . S
C250 C251 1.387 . S
C250 H254 0.950 . S
C250 C259 1.390 . S
C251 C250 1.387 . S
C251 C253 1.387 . S
H252 C259 0.950 . S
C253 C251 1.387 . S
C253 C255 1.390 . S
C253 H257 0.950 . S
H254 C250 0.950 . S
C255 C253 1.390 . S
C255 C256 1.387 . S
C255 H258 0.950 . S
C256 C255 1.387 . S
C256 C259 1.387 . S
H257 C253 0.950 . S
H258 C255 0.950 . S
C259 C250 1.390 . S
C259 H252 0.950 . S
C259 C256 1.387 . S
C260 C261 1.387 . S
C260 H264 0.950 . S
C260 C269 1.390 . S
C261 C260 1.387 . S
C261 C263 1.387 . S
H262 C269 0.950 . S
C263 C261 1.387 . S
C263 C265 1.390 . S
C263 H267 0.950 . S
H264 C260 0.950 . S
C265 C263 1.390 . S
C265 C266 1.387 . S
C265 H268 0.950 . S
C266 C265 1.387 . S
C266 C269 1.387 . S
H267 C263 0.950 . S
H268 C265 0.950 . S
C269 C260 1.390 . S
C269 H262 0.950 . S
C269 C266 1.387 . S
C270 C271 1.387 . S
C270 H274 0.950 . S
C270 C279 1.390 . S
C271 C270 1.387 . S
C271 C273 1.387 . S
H272 C279 0.950 . S
C273 C271 1.387 . S
C273 C275 1.390 . S
C273 H277 0.950 . S
H274 C270 0.950 . S
C275 C273 1.390 . S
C275 C276 1.387 . S
C275 H278 0.950 . S
C276 C275 1.387 . S
C276 C279 1.387 . S
H277 C273 0.950 . S
H278 C275 0.950 . S
C279 C270 1.390 . S
C279 H272 0.950 . S
C279 C276 1.387 . S
C280 C281 1.387 . S
C280 H284 0.950 . S
C280 C289 1.390 . S
C281 C280 1.387 . S
C281 C283 1.387 . S
H282 C289 0.950 . S
C283 C281 1.387 . S
C283 C285 1.390 . S
C283 H287 0.950 . S
H284 C280 0.950 . S
C285 C283 1.390 . S
C285 C286 1.387 . S
C285 H288 0.950 . S
C286 C285 1.387 . S
C286 C289 1.387 . S
H287 C283 0.950 . S
H288 C285 0.950 . S
C289 C280 1.390 . S
C289 H282 0.950 . S
C289 C286 1.387 . S
C290 C291 1.387 . S
C290 H294 0.950 . S
C290 C299 1.390 . S
C291 C290 1.387 . S
C291 C293 1.387 . S
H292 C299 0.950 . S
C293 C291 1.387 . S
C293 C295 1.390 . S
C293 H297 0.950 . S
H294 C290 0.950 . S
C295 C293 1.390 . S
C295 C296 1.387 . S
C295 H298 0.950 . S
C296 C295 1.387 . S
C296 C299 1.387 . S
H297 C293 0.950 . S
H298 C295 0.950 . S
C299 C290 1.390 . S
C299 H292 0.950 . S
C299 C296 1.387 . S
C300 C301 1.387 . S
C300 H304 0.950 . S
C300 C309 1.390 . S
C301 C300 1.387 . S
C301 C303 1.387 . S
H302 C309 0.950 . S
C303 C301 1.387 . S
C303 C305 1.390 . S
C303 H307 0.950 . S
H304 C300 0.950 . S
C305 C303 1.390 . S
C305 C306 1.387 . S
C305 H308 0.950 . S
C306 C305 1.387 . S
C306 C309 1.387 . S
H307 C303 0.950 . S
H308 C305 0.950 . S
C309 C300 1.390 . S
C309 H302 0.950 . S
C309 C306 1.387 . S
C310 C311 1.387 . S
C310 H314 0.950 . S
C310 C319 1.390 1_455 S
C311 C310 1.387 . S
C311 C313 1.387 . S
H312 C319 0.950 . S
C313 C311 1.387 . S
C313 C315 1.390 1_455 S
C313 H317 0.950 . S
H314 C310 0.950 . S
C315 C313 1.390 1_655 S
C315 C316 1.387 . S
C315 H318 0.950 . S
C316 C315 1.387 . S
C316 C319 1.387 . S
H317 C313 0.950 . S
H318 C315 0.950 . S
C319 C310 1.390 1_655 S
C319 H312 0.950 . S
C319 C316 1.387 . S
C320 C321 1.387 . S
C320 H324 0.950 . S
C320 C329 1.390 1_545 S
C321 C320 1.387 . S
C321 C323 1.387 . S
H322 C329 0.950 . S
C323 C321 1.387 . S
C323 C325 1.390 1_545 S
C323 H327 0.950 . S
H324 C320 0.950 . S
C325 C323 1.390 1_565 S
C325 C326 1.387 . S
C325 H328 0.950 . S
C326 C325 1.387 . S
C326 C329 1.387 . S
H327 C323 0.950 . S
H328 C325 0.950 . S
C329 C320 1.390 1_565 S
C329 H322 0.950 . S
C329 C326 1.387 . S
C330 C331 1.387 . S
C330 H334 0.950 . S
C330 C339 1.390 . S
C331 C330 1.387 . S
C331 C333 1.387 . S
H332 C339 0.950 . S
C333 C331 1.387 . S
C333 C335 1.390 . S
C333 H337 0.950 . S
H334 C330 0.950 . S
C335 C333 1.390 . S
C335 C336 1.387 . S
C335 H338 0.950 . S
C336 C335 1.387 . S
C336 C339 1.387 . S
H337 C333 0.950 . S
H338 C335 0.950 . S
C339 C330 1.390 . S
C339 H332 0.950 . S
C339 C336 1.387 . S
C340 C341 1.387 . S
C340 H344 0.950 . S
C340 C349 1.390 1_455 S
C341 C340 1.387 . S
C341 C343 1.387 . S
H342 C349 0.950 . S
C343 C341 1.387 . S
C343 C345 1.390 1_455 S
C343 H347 0.950 1_554 S
H344 C340 0.950 . S
C345 C343 1.390 1_655 S
C345 C346 1.387 . S
C345 H348 0.950 1_554 S
C346 C345 1.387 . S
C346 C349 1.387 . S
H347 C343 0.950 1_556 S
H348 C345 0.950 1_556 S
C349 C340 1.390 1_655 S
C349 H342 0.950 . S
C349 C346 1.387 . S
C350 C351 1.387 . S
C350 H354 0.950 . S
C350 C359 1.390 1_565 S
C351 C350 1.387 . S
C351 C353 1.387 . S
H352 C359 0.950 . S
C353 C351 1.387 . S
C353 C355 1.390 1_565 S
C353 H357 0.950 . S
H354 C350 0.950 . S
C355 C353 1.390 1_545 S
C355 C356 1.387 . S
C355 H358 0.950 . S
C356 C355 1.387 . S
C356 C359 1.387 . S
H357 C353 0.950 . S
H358 C355 0.950 . S
C359 C350 1.390 1_545 S
C359 H352 0.950 . S
C359 C356 1.387 . S
C360 C361 1.387 . S
C360 H364 0.950 . S
C360 C369 1.390 . S
C361 C360 1.387 . S
C361 C363 1.387 . S
H362 C369 0.950 . S
C363 C361 1.387 . S
C363 C365 1.390 . S
C363 H367 0.950 . S
H364 C360 0.950 . S
C365 C363 1.390 . S
C365 C366 1.387 . S
C365 H368 0.950 . S
C366 C365 1.387 . S
C366 C369 1.387 . S
H367 C363 0.950 . S
H368 C365 0.950 . S
C369 C360 1.390 . S
C369 H362 0.950 . S
C369 C366 1.387 . S
C370 C371 1.387 . S
C370 H374 0.950 . S
C370 C379 1.390 . S
C371 C370 1.387 . S
C371 C373 1.387 . S
H372 C379 0.950 . S
C373 C371 1.387 . S
C373 C375 1.390 . S
C373 H377 0.950 . S
H374 C370 0.950 . S
C375 C373 1.390 . S
C375 C376 1.387 . S
C375 H378 0.950 . S
C376 C375 1.387 . S
C376 C379 1.387 . S
H377 C373 0.950 . S
H378 C375 0.950 . S
C379 C370 1.390 . S
C379 H372 0.950 . S
C379 C376 1.387 . S
C380 C381 1.387 . S
C380 H384 0.950 1_545 S
C380 C389 1.390 . S
C381 C380 1.387 . S
C381 C383 1.387 . S
H382 C389 0.950 . S
C383 C381 1.387 . S
C383 C385 1.390 . S
C383 H387 0.950 . S
H384 C380 0.950 1_565 S
C385 C383 1.390 . S
C385 C386 1.387 . S
C385 H388 0.950 . S
C386 C385 1.387 . S
C386 C389 1.387 . S
H387 C383 0.950 . S
H388 C385 0.950 . S
C389 C380 1.390 . S
C389 H382 0.950 . S
C389 C386 1.387 . S
C390 C391 1.387 . S
C390 H394 0.950 . S
C390 C399 1.390 . S
C391 C390 1.387 . S
C391 C393 1.387 . S
H392 C399 0.950 . S
C393 C391 1.387 . S
C393 C395 1.390 . S
C393 H397 0.950 . S
H394 C390 0.950 . S
C395 C393 1.390 . S
C395 C396 1.387 . S
C395 H398 0.950 . S
C396 C395 1.387 . S
C396 C399 1.387 . S
H397 C393 0.950 . S
H398 C395 0.950 . S
C399 C390 1.390 . S
C399 H392 0.950 . S
C399 C396 1.387 . S
C400 C401 1.387 . S
C400 H404 0.950 . S
C400 C409 1.390 . S
C401 C400 1.387 . S
C401 C403 1.387 . S
H402 C409 0.950 . S
C403 C401 1.387 . S
C403 C405 1.390 . S
C403 H407 0.950 . S
H404 C400 0.950 . S
C405 C403 1.390 . S
C405 C406 1.387 . S
C405 H408 0.950 . S
C406 C405 1.387 . S
C406 C409 1.387 . S
H407 C403 0.950 . S
H408 C405 0.950 . S
C409 C400 1.390 . S
C409 H402 0.950 . S
C409 C406 1.387 . S
C410 C411 1.387 1_545 S
C410 H414 0.950 . S
C410 C419 1.390 1_545 S
C411 C410 1.387 1_565 S
C411 C413 1.387 . S
H412 C419 0.950 1_545 S
C413 C411 1.387 . S
C413 C415 1.390 . S
C413 H417 0.950 . S
H414 C410 0.950 . S
C415 C413 1.390 . S
C415 C416 1.387 . S
C415 H418 0.950 . S
C416 C415 1.387 . S
C416 C419 1.387 . S
H417 C413 0.950 . S
H418 C415 0.950 . S
C419 C410 1.390 1_565 S
C419 H412 0.950 1_565 S
C419 C416 1.387 . S
C241 C179 1.229 . S
C246 C6 1.239 . S
C251 C219 1.227 . S
C256 C46 1.238 . S
C261 C19 1.229 . S
C266 C86 1.240 . S
C271 C59 1.228 . S
C276 C126 1.240 . S
C281 C99 1.227 . S
C286 C166 1.238 . S
C291 C139 1.229 . S
C296 C206 1.239 . S
C301 C9 1.235 . S
C306 C129 1.235 . S
C311 C169 1.235 . S
C316 C49 1.235 . S
C321 C209 1.235 . S
C326 C89 1.235 . S
C331 C98 1.508 . S
C336 C218 1.508 . S
C341 C18 1.507 . S
C346 C138 1.507 . S
C351 C178 1.507 . S
C356 C58 1.507 . S
C361 C210 1.431 . S
C366 C15 1.382 . S
C371 C55 1.383 . S
C376 C10 1.432 . S
C381 C95 1.384 . S
C386 C50 1.432 . S
C391 C90 1.432 . S
C396 C135 1.384 . S
C401 C175 1.381 . S
C406 C130 1.430 . S
C411 C215 1.385 . S
C416 C170 1.433 . S
