# Generated by pormake.
# Topology soe, (5)-cn, num edge types: 1
# Building blocks:
#     Node 0, Type 0, BuildingBlock: XOMCOT_clean_sbu_0, # of connection points: 5
#     Node 1, Type 0, BuildingBlock: XOMCOT_clean_sbu_0, # of connection points: 5
#     Node 2, Type 0, BuildingBlock: XOMCOT_clean_sbu_0, # of connection points: 5
#     Node 3, Type 0, BuildingBlock: XOMCOT_clean_sbu_0, # of connection points: 5
#     Node 4, Type 0, BuildingBlock: XOMCOT_clean_sbu_0, # of connection points: 5
#     Node 5, Type 0, BuildingBlock: XOMCOT_clean_sbu_0, # of connection points: 5
#     Node 6, Type 0, BuildingBlock: XOMCOT_clean_sbu_0, # of connection points: 5
#     Node 7, Type 0, BuildingBlock: XOMCOT_clean_sbu_0, # of connection points: 5
#     Edge 8, Type (0, 0), BuildingBlock: MIFKUJ_clean_linker_0, # of connection points: 2
#     Edge 9, Type (0, 0), BuildingBlock: MIFKUJ_clean_linker_0, # of connection points: 2
#     Edge 10, Type (0, 0), BuildingBlock: MIFKUJ_clean_linker_0, # of connection points: 2
#     Edge 11, Type (0, 0), BuildingBlock: MIFKUJ_clean_linker_0, # of connection points: 2
#     Edge 12, Type (0, 0), BuildingBlock: MIFKUJ_clean_linker_0, # of connection points: 2
#     Edge 13, Type (0, 0), BuildingBlock: MIFKUJ_clean_linker_0, # of connection points: 2
#     Edge 14, Type (0, 0), BuildingBlock: MIFKUJ_clean_linker_0, # of connection points: 2
#     Edge 15, Type (0, 0), BuildingBlock: MIFKUJ_clean_linker_0, # of connection points: 2
#     Edge 16, Type (0, 0), BuildingBlock: MIFKUJ_clean_linker_0, # of connection points: 2
#     Edge 17, Type (0, 0), BuildingBlock: MIFKUJ_clean_linker_0, # of connection points: 2
#     Edge 18, Type (0, 0), BuildingBlock: MIFKUJ_clean_linker_0, # of connection points: 2
#     Edge 19, Type (0, 0), BuildingBlock: MIFKUJ_clean_linker_0, # of connection points: 2
#     Edge 20, Type (0, 0), BuildingBlock: MIFKUJ_clean_linker_0, # of connection points: 2
#     Edge 21, Type (0, 0), BuildingBlock: MIFKUJ_clean_linker_0, # of connection points: 2
#     Edge 22, Type (0, 0), BuildingBlock: MIFKUJ_clean_linker_0, # of connection points: 2
#     Edge 23, Type (0, 0), BuildingBlock: MIFKUJ_clean_linker_0, # of connection points: 2
#     Edge 24, Type (0, 0), BuildingBlock: MIFKUJ_clean_linker_0, # of connection points: 2
#     Edge 25, Type (0, 0), BuildingBlock: MIFKUJ_clean_linker_0, # of connection points: 2
#     Edge 26, Type (0, 0), BuildingBlock: MIFKUJ_clean_linker_0, # of connection points: 2
#     Edge 27, Type (0, 0), BuildingBlock: MIFKUJ_clean_linker_0, # of connection points: 2
# Relax obj value: 0.031
# Max RMSD: 0.067
# Mean RMSD: 0.067
data_MOF--net-soe--node1-XOMCOT_clean_sbu_0--edge1-MIFKUJ_clean_linker_0
_symmetry_space_group_name_H-M    P1
_symmetry_Int_Tables_number       1
_symmetry_cell_setting            triclinic
loop_
_symmetry_equiv_pos_as_xyz
'x, y, z'
_cell_length_a     74.111016
_cell_length_b     57.756111
_cell_length_c     22.145282
_cell_angle_alpha  90.095111
_cell_angle_beta   89.70917
_cell_angle_gamma 90.091037
loop_
_atom_site_label
_atom_site_type_symbol
_atom_site_fract_x
_atom_site_fract_y
_atom_site_fract_z
_atom_type_partial_charge
Co0 Co 0.11178 0.09473 0.13052 0.0
C1 C 0.11936 0.09692 0.99817 0.0
C2 C 0.11273 0.1301 0.03595 0.0
C3 C 0.11479 0.13252 0.97467 0.0
N4 N 0.11573 0.10786 0.05092 0.0
N5 N 0.11892 0.11169 0.95067 0.0
H6 H 0.12183 0.07851 0.99461 0.0
H7 H 0.10847 0.14354 0.06684 0.0
C8 C 0.1298 0.13576 0.19463 0.0
O9 O 0.1438 0.12307 0.20918 0.0
N10 N 0.10689 0.08196 0.21136 0.0
C11 C 0.09739 0.06254 0.22431 0.0
C12 C 0.09693 0.0593 0.28572 0.0
C13 C 0.11187 0.09026 0.26613 0.0
N14 N 0.10605 0.07673 0.3121 0.0
C15 C 0.14036 0.06335 0.15743 0.0
C16 C 0.16826 0.08739 0.10309 0.0
C17 C 0.1718 0.06534 0.12717 0.0
C18 C 0.15753 0.0536 0.15549 0.0
C19 C 0.15078 0.09674 0.10667 0.0
N20 N 0.13705 0.08484 0.13434 0.0
H21 H 0.12956 0.05299 0.1757 0.0
H22 H 0.1483 0.11351 0.08682 0.0
H23 H 0.09133 0.05101 0.19179 0.0
H24 H 0.11973 0.10564 0.27303 0.0
O25 O 0.10249 0.06698 0.09324 0.0
O26 O 0.08589 0.09751 0.11734 0.0
O27 O 0.1164 0.12668 0.16688 0.0
C28 C 0.08672 0.07682 0.09362 0.0
H29 H 0.11242 0.14825 0.94948 0.0
H30 H 0.0902 0.04526 0.30905 0.0
H31 H 0.17873 0.09707 0.08001 0.0
H32 H 0.15945 0.03668 0.17538 0.0
Co33 Co 0.40443 0.921 0.11068 0.0
C34 C 0.40334 0.91649 0.97544 0.0
C35 C 0.41331 0.88609 0.01911 0.0
C36 C 0.41441 0.88279 0.95776 0.0
N37 N 0.40585 0.90695 0.03062 0.0
N38 N 0.40818 0.90193 0.93027 0.0
H39 H 0.39887 0.93395 0.96783 0.0
H40 H 0.41841 0.8744 0.05303 0.0
C41 C 0.3883 0.87382 0.12847 0.0
O42 O 0.37766 0.87851 0.08278 0.0
N43 N 0.40367 0.93482 0.19018 0.0
C44 C 0.39863 0.95668 0.2029 0.0
C45 C 0.39926 0.95988 0.26439 0.0
C46 C 0.40733 0.92497 0.24398 0.0
N47 N 0.40472 0.93995 0.29033 0.0
C48 C 0.37402 0.94533 0.06298 0.0
C49 C 0.34878 0.93012 0.14615 0.0
C50 C 0.34392 0.94763 0.10554 0.0
C51 C 0.35675 0.95492 0.06309 0.0
C52 C 0.36636 0.92106 0.14483 0.0
N53 N 0.37873 0.92834 0.10273 0.0
H54 H 0.38392 0.95305 0.03373 0.0
H55 H 0.37026 0.90921 0.18007 0.0
H56 H 0.39445 0.96929 0.16976 0.0
H57 H 0.41181 0.90726 0.24901 0.0
O58 O 0.41413 0.9495 0.07849 0.0
O59 O 0.43074 0.92075 0.11323 0.0
O60 O 0.39948 0.88919 0.14712 0.0
C61 C 0.43009 0.9413 0.08901 0.0
H62 H 0.42021 0.8679 0.93518 0.0
H63 H 0.39548 0.97553 0.28818 0.0
H64 H 0.33944 0.92443 0.18088 0.0
H65 H 0.3537 0.96862 0.0314 0.0
Co66 Co 0.11221 0.41997 0.42566 0.0
C67 C 0.11212 0.41511 0.56153 0.0
C68 C 0.10115 0.38567 0.51577 0.0
C69 C 0.09969 0.38202 0.57693 0.0
N70 N 0.10936 0.40618 0.50567 0.0
N71 N 0.1066 0.40055 0.60582 0.0
H72 H 0.11699 0.4323 0.57041 0.0
H73 H 0.09611 0.37428 0.4809 0.0
C74 C 0.12832 0.37257 0.4115 0.0
O75 O 0.13814 0.37701 0.4594 0.0
N76 N 0.11443 0.43326 0.34596 0.0
C77 C 0.12005 0.45483 0.33257 0.0
C78 C 0.1215 0.4568 0.27075 0.0
C79 C 0.11238 0.42244 0.29239 0.0
N80 N 0.11673 0.4364 0.24556 0.0
C81 C 0.1419 0.44442 0.47884 0.0
C82 C 0.16785 0.43048 0.3968 0.0
C83 C 0.17229 0.44804 0.43829 0.0
C84 C 0.15909 0.45429 0.48097 0.0
C85 C 0.15056 0.42048 0.39749 0.0
N86 N 0.13773 0.42743 0.43833 0.0
H87 H 0.13162 0.45207 0.50669 0.0
H88 H 0.14713 0.40847 0.36192 0.0
H89 H 0.12334 0.468 0.36553 0.0
H90 H 0.10839 0.4045 0.28785 0.0
O91 O 0.1018 0.44855 0.45525 0.0
O92 O 0.08609 0.41948 0.41689 0.0
O93 O 0.11774 0.38814 0.39085 0.0
C94 C 0.08615 0.44017 0.4405 0.0
H95 H 0.09385 0.36692 0.59829 0.0
H96 H 0.12579 0.47208 0.24634 0.0
H97 H 0.17721 0.42536 0.36158 0.0
H98 H 0.16163 0.46754 0.51447 0.0
Co99 Co 0.40396 0.59646 0.40178 0.0
C100 C 0.40055 0.60044 0.53599 0.0
C101 C 0.40023 0.63362 0.49271 0.0
C102 C 0.39981 0.63697 0.5541 0.0
N103 N 0.40069 0.6107 0.48099 0.0
N104 N 0.4002 0.61615 0.58155 0.0
H105 H 0.40151 0.58193 0.54263 0.0
H106 H 0.40073 0.64725 0.45944 0.0
C107 C 0.3869 0.63513 0.3266 0.0
O108 O 0.37504 0.62071 0.3036 0.0
N109 N 0.40784 0.58232 0.32185 0.0
C110 C 0.4113 0.55974 0.31031 0.0
C111 C 0.41311 0.55647 0.24912 0.0
C112 C 0.40863 0.59255 0.26676 0.0
N113 N 0.41132 0.57709 0.22164 0.0
C114 C 0.37519 0.56384 0.39531 0.0
C115 C 0.34667 0.59347 0.41629 0.0
C116 C 0.34299 0.56991 0.40521 0.0
C117 C 0.3577 0.55509 0.39619 0.0
C118 C 0.36463 0.60154 0.41574 0.0
N119 N 0.37859 0.58692 0.40214 0.0
H120 H 0.38607 0.5517 0.39087 0.0
H121 H 0.36725 0.61956 0.4256 0.0
H122 H 0.41264 0.5463 0.34382 0.0
H123 H 0.40747 0.61087 0.25905 0.0
O124 O 0.41367 0.56921 0.43991 0.0
O125 O 0.43005 0.59924 0.41077 0.0
O126 O 0.39897 0.62777 0.36303 0.0
C127 C 0.42948 0.57876 0.43557 0.0
H128 H 0.39954 0.6536 0.57665 0.0
H129 H 0.41578 0.54016 0.22666 0.0
H130 H 0.33585 0.60562 0.42484 0.0
H131 H 0.35583 0.53659 0.39112 0.0
Co132 Co 0.90519 0.92469 0.88583 0.0
C133 C 0.9034 0.91953 0.02104 0.0
C134 C 0.91762 0.89196 0.97698 0.0
C135 C 0.91838 0.8884 0.03825 0.0
N136 N 0.90785 0.91116 0.9658 0.0
N137 N 0.90949 0.90579 0.06591 0.0
H138 H 0.89634 0.93552 0.02902 0.0
H139 H 0.92418 0.88153 0.94275 0.0
C140 C 0.89116 0.87619 0.87449 0.0
O141 O 0.88214 0.87991 0.92482 0.0
N142 N 0.90319 0.93802 0.80628 0.0
C143 C 0.89737 0.95953 0.79367 0.0
C144 C 0.89738 0.9624 0.73204 0.0
C145 C 0.90669 0.92805 0.75233 0.0
N146 N 0.90323 0.94261 0.70597 0.0
C147 C 0.8748 0.949 0.93507 0.0
C148 C 0.84888 0.93009 0.86065 0.0
C149 C 0.84393 0.94841 0.89912 0.0
C150 C 0.85723 0.95765 0.93702 0.0
C151 C 0.86672 0.92197 0.85994 0.0
N152 N 0.87945 0.9311 0.89776 0.0
H153 H 0.88492 0.95802 0.96073 0.0
H154 H 0.87041 0.90929 0.82628 0.0
H155 H 0.89316 0.97215 0.82701 0.0
H156 H 0.91172 0.91058 0.74719 0.0
O157 O 0.91478 0.95367 0.91572 0.0
O158 O 0.93143 0.92521 0.87886 0.0
O159 O 0.90048 0.89258 0.85085 0.0
C160 C 0.93074 0.94584 0.90275 0.0
H161 H 0.92559 0.87465 0.0608 0.0
H162 H 0.89298 0.97774 0.70832 0.0
H163 H 0.83922 0.92246 0.82997 0.0
H164 H 0.85442 0.97243 0.96569 0.0
Co165 Co 0.61215 0.0948 0.88752 0.0
C166 C 0.61348 0.09972 0.02272 0.0
C167 C 0.6006 0.12828 0.97909 0.0
C168 C 0.5996 0.13169 0.04046 0.0
N169 N 0.60973 0.10855 0.96759 0.0
N170 N 0.60765 0.11368 0.06784 0.0
H171 H 0.61976 0.08322 0.03048 0.0
H172 H 0.59454 0.13915 0.94506 0.0
C173 C 0.62685 0.14294 0.87464 0.0
O174 O 0.63612 0.13905 0.92403 0.0
N175 N 0.61392 0.08123 0.80798 0.0
C176 C 0.61946 0.05957 0.79534 0.0
C177 C 0.61927 0.05649 0.73376 0.0
C178 C 0.61042 0.09109 0.75408 0.0
N179 N 0.61359 0.07629 0.70775 0.0
C180 C 0.64215 0.06999 0.93593 0.0
C181 C 0.66831 0.08742 0.85919 0.0
C182 C 0.6727 0.06881 0.89697 0.0
C183 C 0.65942 0.06047 0.93646 0.0
C184 C 0.6507 0.09643 0.8598 0.0
N185 N 0.63783 0.0879 0.89846 0.0
H186 H 0.63194 0.06152 0.9626 0.0
H187 H 0.64722 0.10912 0.82614 0.0
H188 H 0.62359 0.04698 0.82861 0.0
H189 H 0.60557 0.10863 0.74896 0.0
O190 O 0.60234 0.06611 0.91812 0.0
O191 O 0.58588 0.09468 0.88175 0.0
O192 O 0.61716 0.12673 0.85202 0.0
C193 C 0.58643 0.07412 0.90591 0.0
H194 H 0.59276 0.14579 0.06324 0.0
H195 H 0.62344 0.04099 0.70999 0.0
H196 H 0.67804 0.09399 0.8268 0.0
H197 H 0.66213 0.04596 0.96597 0.0
Co198 Co 0.90319 0.59738 0.6003 0.0
C199 C 0.90225 0.60314 0.46506 0.0
C200 C 0.91462 0.63167 0.51074 0.0
C201 C 0.91616 0.63524 0.44961 0.0
N202 N 0.9055 0.61181 0.5209 0.0
N203 N 0.90844 0.61724 0.42068 0.0
H204 H 0.89668 0.58626 0.45645 0.0
H205 H 0.92039 0.64249 0.54558 0.0
C206 C 0.88873 0.64537 0.6172 0.0
O207 O 0.87949 0.64216 0.5674 0.0
N208 N 0.9016 0.58321 0.67927 0.0
C209 C 0.8958 0.5616 0.69123 0.0
C210 C 0.8955 0.5585 0.75286 0.0
C211 C 0.90489 0.59296 0.73365 0.0
N212 N 0.90116 0.57823 0.77958 0.0
C213 C 0.87276 0.5736 0.55054 0.0
C214 C 0.84732 0.58952 0.63209 0.0
C215 C 0.84257 0.57152 0.59256 0.0
C216 C 0.85547 0.56404 0.55049 0.0
C217 C 0.86489 0.59868 0.63065 0.0
N218 N 0.87744 0.59081 0.5899 0.0
H219 H 0.88273 0.5656 0.522 0.0
H220 H 0.86867 0.61085 0.6654 0.0
H221 H 0.89174 0.5491 0.65748 0.0
H222 H 0.9094 0.61063 0.73955 0.0
O223 O 0.91265 0.56891 0.56704 0.0
O224 O 0.92944 0.59697 0.60527 0.0
O225 O 0.89844 0.62895 0.63826 0.0
C226 C 0.92865 0.57675 0.57909 0.0
H227 H 0.92281 0.64981 0.42834 0.0
H228 H 0.89139 0.54287 0.77613 0.0
H229 H 0.83794 0.59546 0.6664 0.0
H230 H 0.8525 0.55011 0.51927 0.0
Co231 Co 0.61138 0.42431 0.62157 0.0
C232 C 0.6121 0.41884 0.48613 0.0
C233 C 0.59728 0.39215 0.53156 0.0
C234 C 0.59585 0.38862 0.47042 0.0
N235 N 0.60774 0.41085 0.54179 0.0
N236 N 0.60512 0.40546 0.44169 0.0
H237 H 0.61939 0.43462 0.47766 0.0
H238 H 0.5908 0.38197 0.56646 0.0
C239 C 0.62507 0.37564 0.6301 0.0
O240 O 0.63321 0.37909 0.57802 0.0
N241 N 0.61436 0.43754 0.70105 0.0
C242 C 0.62085 0.45881 0.71338 0.0
C243 C 0.62194 0.46137 0.77502 0.0
C244 C 0.61144 0.42747 0.75521 0.0
N245 N 0.61607 0.44166 0.8013 0.0
C246 C 0.64114 0.44886 0.56938 0.0
C247 C 0.6678 0.43048 0.64147 0.0
C248 C 0.67203 0.44944 0.6044 0.0
C249 C 0.6585 0.45819 0.56703 0.0
C250 C 0.65015 0.42161 0.64253 0.0
N251 N 0.63699 0.43069 0.60641 0.0
H252 H 0.63077 0.45765 0.54454 0.0
H253 H 0.64688 0.40862 0.67581 0.0
H254 H 0.62476 0.47147 0.67981 0.0
H255 H 0.60647 0.40997 0.76073 0.0
O256 O 0.60163 0.45332 0.59328 0.0
O257 O 0.58521 0.42499 0.63194 0.0
O258 O 0.61638 0.39218 0.65554 0.0
C259 C 0.58577 0.4456 0.60806 0.0
H260 H 0.58838 0.37478 0.44899 0.0
H261 H 0.62664 0.47663 0.79866 0.0
H262 H 0.67772 0.42352 0.67224 0.0
H263 H 0.66107 0.47287 0.53782 0.0
H264 H 0.33757 0.99415 0.10468 0.0
H265 H 0.30854 0.01416 0.10866 0.0
H266 H 0.281 0.9485 0.12044 0.0
H267 H 0.31016 0.92827 0.11646 0.0
H268 H 0.26613 0.97913 0.03415 0.0
H269 H 0.28402 0.98042 0.24271 0.0
H270 H 0.30469 0.98818 0.32728 0.0
H271 H 0.30516 0.06053 0.28289 0.0
H272 H 0.2847 0.05314 0.19745 0.0
H273 H 0.17921 0.01939 0.10762 0.0
H274 H 0.20837 1.00032 0.1048 0.0
H275 H 0.23499 0.06626 0.12654 0.0
H276 H 0.20559 0.08546 0.13342 0.0
H277 H 0.25088 0.03595 0.19468 0.0
H278 H 0.23366 0.03608 0.98759 0.0
H279 H 0.21391 0.02958 0.89991 0.0
H280 H 0.21329 0.95659 0.93629 0.0
H281 H 0.23285 0.96268 0.02472 0.0
C282 C 0.32534 0.98393 0.10795 0.0
C283 C 0.32616 0.95959 0.10988 0.0
C284 C 0.30876 0.99542 0.11062 0.0
C285 C 0.29259 0.98285 0.11506 0.0
C286 C 0.29332 0.95854 0.11704 0.0
C287 C 0.30997 0.94701 0.11509 0.0
C288 C 0.27496 0.99518 0.11659 0.0
C289 C 0.26265 0.9913 0.06971 0.0
C290 C 0.27072 0.0117 0.16178 0.0
C291 C 0.28296 0.01619 0.21331 0.0
C292 C 0.28865 0.99796 0.25065 0.0
C293 C 0.30031 1.00229 0.29882 0.0
C294 C 0.30627 0.02482 0.31036 0.0
C295 C 0.30055 0.04308 0.27385 0.0
C296 C 0.28891 0.03883 0.22558 0.0
C297 C 0.1912 0.02994 0.11261 0.0
C298 C 0.1899 0.05405 0.12142 0.0
C299 C 0.20797 0.01896 0.10999 0.0
C300 C 0.22401 0.0318 0.11453 0.0
C301 C 0.22284 0.05592 0.12272 0.0
C302 C 0.20599 0.06693 0.12604 0.0
C303 C 0.24189 0.01986 0.11226 0.0
C304 C 0.25429 0.02382 0.15896 0.0
C305 C 0.24633 1.00363 0.06639 0.0
C306 C 0.2346 0.99987 0.01312 0.0
C307 C 0.22921 0.01866 0.97716 0.0
C308 C 0.21806 0.01505 0.92728 0.0
C309 C 0.21231 0.99269 0.91263 0.0
C310 C 0.21774 0.9739 0.94774 0.0
C311 C 0.22887 0.97742 0.99771 0.0
H312 H 0.20368 0.98993 0.87399 0.0
H313 H 0.31529 0.02815 0.34768 0.0
H314 H 0.17897 0.49379 0.46711 0.0
H315 H 0.20721 0.51477 0.4625 0.0
H316 H 0.23372 0.45439 0.38951 0.0
H317 H 0.20575 0.43235 0.39973 0.0
H318 H 0.25555 0.47306 0.461 0.0
H319 H 0.22043 0.50452 0.30167 0.0
H320 H 0.19402 0.5222 0.25277 0.0
H321 H 0.19903 0.58206 0.36677 0.0
H322 H 0.22534 0.56459 0.41694 0.0
H323 H 0.32972 0.53513 0.33343 0.0
H324 H 0.30052 0.51585 0.34012 0.0
H325 H 0.28375 0.56369 0.47876 0.0
H326 H 0.31345 0.58254 0.47489 0.0
H327 H 0.25748 0.55215 0.3739 0.0
H328 H 0.29429 0.51757 0.53075 0.0
H329 H 0.32193 0.49879 0.56808 0.0
H330 H 0.31461 0.44303 0.44202 0.0
H331 H 0.28708 0.46169 0.40327 0.0
C332 C 0.1908 0.48458 0.45142 0.0
C333 C 0.18984 0.46105 0.43437 0.0
C334 C 0.207 0.49692 0.44749 0.0
C335 C 0.22267 0.48649 0.42427 0.0
C336 C 0.22186 0.46302 0.4073 0.0
C337 C 0.20571 0.45044 0.41255 0.0
C338 C 0.23989 0.49995 0.41878 0.0
C339 C 0.25589 0.49023 0.4412 0.0
C340 C 0.24057 0.52255 0.39354 0.0
C341 C 0.22475 0.53313 0.36347 0.0
C342 C 0.21582 0.52138 0.31662 0.0
C343 C 0.20088 0.53137 0.28862 0.0
C344 C 0.19482 0.55321 0.30676 0.0
C345 C 0.20372 0.56513 0.35283 0.0
C346 C 0.21866 0.5552 0.38102 0.0
C347 C 0.31997 0.54154 0.36591 0.0
C348 C 0.32422 0.56021 0.40451 0.0
C349 C 0.30318 0.53056 0.3692 0.0
C350 C 0.29005 0.53819 0.41029 0.0
C351 C 0.29375 0.55753 0.44675 0.0
C352 C 0.31072 0.56836 0.44421 0.0
C353 C 0.27279 0.52522 0.41641 0.0
C354 C 0.25692 0.53502 0.39384 0.0
C355 C 0.2723 0.50248 0.43999 0.0
C356 C 0.28873 0.49114 0.46372 0.0
C357 C 0.29867 0.50141 0.51062 0.0
C358 C 0.3143 0.49077 0.53211 0.0
C359 C 0.32005 0.46976 0.50733 0.0
C360 C 0.31016 0.45932 0.46113 0.0
C361 C 0.29453 0.46991 0.43942 0.0
H362 H 0.33215 0.46154 0.52403 0.0
H363 H 0.18325 0.56093 0.28502 0.0
H364 H 0.70684 0.08763 0.89442 0.0
H365 H 0.73572 0.06685 0.89146 0.0
H366 H 0.70711 1.00177 0.88355 0.0
H367 H 0.67844 0.02238 0.88819 0.0
H368 H 0.73255 0.99721 0.95878 0.0
H369 H 0.72947 0.02685 0.75783 0.0
H370 H 0.72624 0.0566 0.67889 0.0
H371 H 0.77354 0.09143 0.74406 0.0
H372 H 0.77692 0.06203 0.82393 0.0
H373 H 0.82208 0.95509 0.80034 0.0
H374 H 0.79272 0.97422 0.79691 0.0
H375 H 0.79531 0.98678 0.98871 0.0
H376 H 0.82406 0.96649 0.99318 0.0
H377 H 0.78245 0.01633 0.8173 0.0
H378 H 0.75419 0.98874 0.05151 0.0
H379 H 0.75584 0.9555 0.12111 0.0
H380 H 0.76828 0.91031 0.97252 0.0
H381 H 0.76647 0.94321 0.90196 0.0
C382 C 0.70677 0.0689 0.89169 0.0
C383 C 0.69037 0.05664 0.8921 0.0
C384 C 0.72328 0.05701 0.88981 0.0
C385 C 0.7237 0.03264 0.88698 0.0
C386 C 0.70726 0.0205 0.88627 0.0
C387 C 0.69084 0.03232 0.88893 0.0
C388 C 0.74112 0.0196 0.88632 0.0
C389 C 0.74344 1.00146 0.92779 0.0
C390 C 0.7553 0.02469 0.84523 0.0
C391 C 0.75334 0.04237 0.79722 0.0
C392 C 0.7391 0.04095 0.7556 0.0
C393 C 0.73726 0.05773 0.71065 0.0
C394 C 0.74965 0.07593 0.70657 0.0
C395 C 0.76394 0.07734 0.74734 0.0
C396 C 0.76584 0.06062 0.79243 0.0
C397 C 0.81624 0.96142 0.84212 0.0
C398 C 0.82553 0.95905 0.89713 0.0
C399 C 0.79952 0.97268 0.83991 0.0
C400 C 0.79163 0.98188 0.89257 0.0
C401 C 0.80087 0.97957 0.94749 0.0
C402 C 0.81749 0.96813 0.94985 0.0
C403 C 0.77389 0.9941 0.8901 0.0
C404 C 0.77154 0.01212 0.84824 0.0
C405 C 0.75944 0.98844 0.92956 0.0
C406 C 0.76037 0.96849 0.97158 0.0
C407 C 0.75721 0.97169 0.03368 0.0
C408 C 0.75818 0.95292 0.0733 0.0
C409 C 0.76222 0.93083 0.05128 0.0
C410 C 0.76522 0.92745 0.98955 0.0
C411 C 0.76424 0.94616 0.94974 0.0
H412 H 0.76299 0.91632 0.08203 0.0
H413 H 0.7482 0.08891 0.67173 0.0
H414 H 0.80863 0.58996 0.60842 0.0
H415 H 0.77984 0.56906 0.61467 0.0
H416 H 0.80807 0.50412 0.59688 0.0
H417 H 0.83669 0.52484 0.5899 0.0
H418 H 0.78 0.50334 0.52722 0.0
H419 H 0.78998 0.52366 0.73422 0.0
H420 H 0.79607 0.54976 0.81999 0.0
H421 H 0.74741 0.58731 0.78313 0.0
H422 H 0.74114 0.56162 0.69659 0.0
H423 H 0.70593 0.43006 0.60813 0.0
H424 H 0.73509 0.45032 0.61085 0.0
H425 H 0.7075 0.516 0.61138 0.0
H426 H 0.67847 0.49596 0.60959 0.0
H427 H 0.73529 0.51582 0.69143 0.0
H428 H 0.72598 0.49536 0.4828 0.0
H429 H 0.72004 0.46861 0.39825 0.0
H430 H 0.76796 0.43038 0.44072 0.0
H431 H 0.77405 0.45673 0.5261 0.0
C432 C 0.80868 0.57123 0.60622 0.0
C433 C 0.82496 0.55912 0.59808 0.0
C434 C 0.79221 0.55927 0.60993 0.0
C435 C 0.79172 0.53492 0.60664 0.0
C436 C 0.80801 0.52286 0.59914 0.0
C437 C 0.82439 0.53478 0.59497 0.0
C438 C 0.77429 0.52191 0.60963 0.0
C439 C 0.77037 0.50587 0.56369 0.0
C440 C 0.76148 0.5254 0.65649 0.0
C441 C 0.76519 0.54086 0.70855 0.0
C442 C 0.78065 0.5376 0.74411 0.0
C443 C 0.78412 0.5523 0.79292 0.0
C444 C 0.77216 0.57022 0.8069 0.0
C445 C 0.75667 0.57344 0.77219 0.0
C446 C 0.75315 0.5588 0.72329 0.0
C447 C 0.7061 0.44881 0.60923 0.0
C448 C 0.68987 0.46137 0.60781 0.0
C449 C 0.72276 0.46038 0.61047 0.0
C450 C 0.72351 0.48473 0.61066 0.0
C451 C 0.7073 0.49724 0.61102 0.0
C452 C 0.6907 0.48573 0.60939 0.0
C453 C 0.74109 0.49729 0.60917 0.0
C454 C 0.745 0.51326 0.65522 0.0
C455 C 0.75395 0.49365 0.56266 0.0
C456 C 0.75036 0.47786 0.51121 0.0
C457 C 0.73517 0.48114 0.4744 0.0
C458 C 0.73179 0.46607 0.42628 0.0
C459 C 0.74359 0.44777 0.41423 0.0
C460 C 0.75882 0.44454 0.45017 0.0
C461 C 0.76225 0.45954 0.49841 0.0
H462 H 0.74095 0.43613 0.37695 0.0
H463 H 0.77487 0.58158 0.84471 0.0
H464 H 0.96623 0.93213 0.8987 0.0
H465 H 0.99287 0.95485 0.92749 0.0
H466 H 0.95883 0.01344 0.96746 0.0
H467 H 0.93226 0.99093 0.93885 0.0
H468 H 0.9894 0.02663 0.9066 0.0
H469 H 0.97411 0.98053 0.07975 0.0
H470 H 0.96735 0.94434 0.13432 0.0
H471 H 0.01991 0.91808 0.08934 0.0
H472 H 0.02688 0.95401 0.03366 0.0
H473 H 0.05169 0.09235 0.08535 0.0
H474 H 0.0253 0.07066 0.04939 0.0
H475 H 0.05902 0.01127 0.01464 0.0
H476 H 0.08526 0.03268 0.05057 0.0
H477 H 0.02859 0.99858 0.07194 0.0
H478 H 0.04407 0.04488 0.8996 0.0
H479 H 0.05075 0.08097 0.84444 0.0
H480 H 0.99794 0.10686 0.88761 0.0
H481 H 0.99104 0.07103 0.94378 0.0
C482 C 0.96445 0.9499 0.91321 0.0
C483 C 0.94712 0.95967 0.91668 0.0
C484 C 0.97968 0.96285 0.92988 0.0
C485 C 0.97786 0.98584 0.95016 0.0
C486 C 0.9606 0.99578 0.95199 0.0
C487 C 0.94541 0.98282 0.9358 0.0
C488 C 0.99381 0.99938 0.97111 0.0
C489 C 0.99786 0.02061 0.94318 0.0
C490 C 1.00505 0.99141 0.01821 0.0
C491 C 1.00095 0.96986 0.05198 0.0
C492 C 0.98418 0.96697 0.08107 0.0
C493 C 0.98031 0.94651 0.11227 0.0
C494 C 0.99318 0.9289 0.11515 0.0
C495 C 0.00995 0.93173 0.08698 0.0
C496 C 0.01387 0.95214 0.05562 0.0
C497 C 0.05347 0.0747 0.06985 0.0
C498 C 0.0706 0.06428 0.07078 0.0
C499 C 0.03839 0.06233 0.04912 0.0
C500 C 0.04016 0.03931 0.02891 0.0
C501 C 0.05726 0.02894 0.03003 0.0
C502 C 0.07229 0.04128 0.05043 0.0
C503 C 0.02424 0.02583 0.00732 0.0
C504 C 0.02017 1.0046 0.03525 0.0
C505 C 0.013 0.03381 0.96022 0.0
C506 C 0.01711 0.05537 0.92644 0.0
C507 C 0.03394 0.05835 0.89778 0.0
C508 C 0.03775 0.07874 0.86624 0.0
C509 C 0.02479 0.09622 0.86266 0.0
C510 C 1.00798 0.09332 0.89051 0.0
C511 C 1.0041 0.07296 0.92216 0.0
H512 H 0.02774 0.11199 0.8382 0.0
H513 H 0.99017 0.91307 0.13934 0.0
H514 H 0.4314 0.98445 0.03995 0.0
H515 H 0.45788 1.00664 0.00922 0.0
H516 H 0.49244 0.95127 0.06868 0.0
H517 H 0.4658 0.92888 0.10045 0.0
H518 H 0.50565 0.99371 0.10179 0.0
H519 H 0.48361 0.95864 0.92023 0.0
H520 H 0.46052 0.94857 0.84477 0.0
H521 H 0.45258 0.02063 0.80601 0.0
H522 H 0.47539 0.03117 0.88208 0.0
H523 H 0.58493 0.03075 0.9535 0.0
H524 H 0.55834 1.00857 0.98324 0.0
H525 H 0.52402 0.06419 0.92379 0.0
H526 H 0.55077 0.08656 0.89302 0.0
H527 H 0.51064 0.02175 0.89058 0.0
H528 H 0.53241 0.05693 0.07212 0.0
H529 H 0.55547 0.06721 0.14754 0.0
H530 H 0.5638 0.99521 0.18627 0.0
H531 H 0.54101 0.98447 0.11034 0.0
C532 C 0.44462 0.97693 0.04672 0.0
C533 C 0.44647 0.95479 0.07243 0.0
C534 C 0.45977 0.98966 0.02885 0.0
C535 C 0.47718 0.98054 0.03573 0.0
C536 C 0.47914 0.95865 0.06269 0.0
C537 C 0.46391 0.94585 0.08071 0.0
C538 C 0.49322 0.99386 0.01412 0.0
C539 C 0.50686 0.99954 0.0554 0.0
C540 C 0.49462 1.00202 0.95389 0.0
C541 C 0.48111 0.99571 0.90729 0.0
C542 C 0.47686 0.97235 0.89592 0.0
C543 C 0.46382 0.96655 0.85301 0.0
C544 C 0.45506 0.98395 0.8207 0.0
C545 C 0.45937 1.00718 0.83111 0.0
C546 C 0.47235 0.01307 0.87411 0.0
C547 C 0.57174 0.03831 0.94645 0.0
C548 C 0.57 0.06052 0.92112 0.0
C549 C 0.55652 0.02559 0.96374 0.0
C550 C 0.53915 0.0348 0.95667 0.0
C551 C 0.53729 0.05674 0.9299 0.0
C552 C 0.55258 0.06953 0.91245 0.0
C553 C 0.52306 0.02157 0.97824 0.0
C554 C 0.50942 0.01591 0.93696 0.0
C555 C 0.52164 0.01346 0.03849 0.0
C556 C 0.5351 0.01988 0.08512 0.0
C557 C 0.53924 0.04327 0.09645 0.0
C558 C 0.55226 0.04919 0.13931 0.0
C559 C 0.56112 0.03188 0.17157 0.0
C560 C 0.55694 1.00861 0.1612 0.0
C561 C 0.54396 1.00259 0.11828 0.0
H562 H 0.57122 0.03649 0.20466 0.0
H563 H 0.44497 0.97942 0.78753 0.0
H564 H 0.08131 0.47639 0.51752 0.0
H565 H 0.05386 0.4989 0.53528 0.0
H566 H 0.02575 0.45784 0.4029 0.0
H567 H 0.0532 0.43473 0.38591 0.0
H568 H 0.01957 0.50787 0.3945 0.0
H569 H 0.0163 0.44603 0.53141 0.0
H570 H 0.02619 0.41853 0.60929 0.0
H571 H 0.0313 0.47434 0.73653 0.0
H572 H 0.02233 0.50226 0.65868 0.0
H573 H 0.93078 0.54191 0.49659 0.0
H574 H 0.95728 0.51922 0.46746 0.0
H575 H 0.98976 0.55815 0.59279 0.0
H576 H 0.96325 0.58135 0.62145 0.0
H577 H 0.99252 0.50762 0.59999 0.0
H578 H 0.9943 0.56932 0.45238 0.0
H579 H 0.98124 0.59329 0.3717 0.0
H580 H 0.97446 0.53292 0.26071 0.0
H581 H 0.98705 0.50847 0.34137 0.0
C582 C 0.0693 0.47213 0.49208 0.0
C583 C 0.0694 0.45371 0.4505 0.0
C584 C 0.05363 0.48504 0.50225 0.0
C585 C 0.03775 0.48009 0.47037 0.0
C586 C 0.03787 0.46201 0.42781 0.0
C587 C 0.0535 0.44873 0.41849 0.0
C588 C 0.02098 0.49334 0.4838 0.0
C589 C 0.01352 0.50763 0.4392 0.0
C590 C 0.01304 0.49299 0.54204 0.0
C591 C 0.01896 0.47632 0.58879 0.0
C592 C 0.01993 0.45251 0.57562 0.0
C593 C 0.02538 0.43681 0.6198 0.0
C594 C 0.02959 0.44466 0.67769 0.0
C595 C 0.02832 0.46823 0.69153 0.0
C596 C 0.0231 0.48403 0.6473 0.0
C597 C 0.94357 0.54571 0.51793 0.0
C598 C 0.94493 0.5634 0.56151 0.0
C599 C 0.95871 0.53277 0.50098 0.0
C600 C 0.9755 0.53704 0.52774 0.0
C601 C 0.97692 0.55462 0.57149 0.0
C602 C 0.9618 0.56788 0.58773 0.0
C603 C 0.99142 0.52265 0.51134 0.0
C604 C 0.99864 0.50798 0.55539 0.0
C605 C 0.99877 0.52223 0.45212 0.0
C606 C 0.99144 0.53701 0.40328 0.0
C607 C 0.98986 0.56111 0.41105 0.0
C608 C 0.98254 0.57479 0.36528 0.0
C609 C 0.97695 0.56462 0.31121 0.0
C610 C 0.97875 0.54076 0.30269 0.0
C611 C 0.98596 0.52698 0.34844 0.0
H612 H 0.97126 0.57524 0.27586 0.0
H613 H 0.03371 0.43239 0.71174 0.0
H614 H 0.46513 0.59227 0.42819 0.0
H615 H 0.49173 0.57019 0.46048 0.0
H616 H 0.45706 0.51532 0.52434 0.0
H617 H 0.43066 0.53697 0.49185 0.0
H618 H 0.50276 0.55353 0.57007 0.0
H619 H 0.47673 0.46322 0.49726 0.0
H620 H 0.45654 0.44607 0.42098 0.0
H621 H 0.46621 0.50383 0.30327 0.0
H622 H 0.48666 0.52114 0.3784 0.0
H623 H 0.55014 0.43333 0.62387 0.0
H624 H 0.52336 0.45651 0.59959 0.0
H625 H 0.55768 0.51229 0.53907 0.0
H626 H 0.58429 0.48949 0.56367 0.0
H627 H 0.51199 0.47367 0.49297 0.0
H628 H 0.53776 0.56418 0.56654 0.0
H629 H 0.55784 0.58137 0.64307 0.0
H630 H 0.54871 0.52313 0.75962 0.0
H631 H 0.52838 0.50576 0.68422 0.0
C632 C 0.46322 0.57552 0.44923 0.0
C633 C 0.44578 0.56633 0.45696 0.0
C634 C 0.47841 0.56294 0.4678 0.0
C635 C 0.47644 0.5409 0.49405 0.0
C636 C 0.459 0.53205 0.50321 0.0
C637 C 0.44388 0.54454 0.48471 0.0
C638 C 0.49252 0.52691 0.51133 0.0
C639 C 0.50492 0.5362 0.55253 0.0
C640 C 0.49512 0.50402 0.48977 0.0
C641 C 0.48308 0.49358 0.44379 0.0
C642 C 0.47461 0.47221 0.45499 0.0
C643 C 0.46311 0.46247 0.41196 0.0
C644 C 0.46005 0.47389 0.3574 0.0
C645 C 0.46854 0.49504 0.34564 0.0
C646 C 0.48007 0.50483 0.38846 0.0
C647 C 0.55194 0.45061 0.60588 0.0
C648 C 0.56936 0.45957 0.59597 0.0
C649 C 0.53664 0.46381 0.59179 0.0
C650 C 0.53846 0.48629 0.56806 0.0
C651 C 0.55586 0.4952 0.55827 0.0
C652 C 0.5711 0.48205 0.57218 0.0
C653 C 0.52227 0.50027 0.55177 0.0
C654 C 0.50983 0.49098 0.51065 0.0
C655 C 0.51965 0.52314 0.57341 0.0
C656 C 0.53169 0.53357 0.6194 0.0
C657 C 0.53998 0.55509 0.6086 0.0
C658 C 0.55142 0.56485 0.65177 0.0
C659 C 0.55459 0.55331 0.70608 0.0
C660 C 0.54629 0.53201 0.71743 0.0
C661 C 0.53484 0.52218 0.67445 0.0
H662 H 0.56346 0.5609 0.73942 0.0
H663 H 0.45113 0.46634 0.32419 0.0
H664 H 0.12832 0.14137 0.86117 0.0
H665 H 0.12744 0.13417 0.75279 0.0
H666 H 0.11278 0.06304 0.78546 0.0
H667 H 0.11309 0.07024 0.89461 0.0
H668 H 0.13937 0.06973 0.69107 0.0
H669 H 0.08079 0.09719 0.75034 0.0
H670 H 0.05944 0.1239 0.79991 0.0
H671 H 0.07795 0.17945 0.68675 0.0
H672 H 0.09971 0.15317 0.63726 0.0
H673 H 0.10643 0.04357 0.39876 0.0
H674 H 0.11029 0.04903 0.50704 0.0
H675 H 0.11685 0.12251 0.47993 0.0
H676 H 0.11234 0.11728 0.37141 0.0
H677 H 0.09466 0.11429 0.57242 0.0
H678 H 0.15302 0.08748 0.51243 0.0
H679 H 0.17502 0.06146 0.46342 0.0
H680 H 0.15761 1.00547 0.57704 0.0
H681 H 0.13531 0.03108 0.6262 0.0
C682 C 0.12484 0.12418 0.84561 0.0
C683 C 0.12048 0.1065 0.88694 0.0
C684 C 0.12445 0.12008 0.7835 0.0
C685 C 0.11982 0.09817 0.76109 0.0
C686 C 0.11636 0.0801 0.80192 0.0
C687 C 0.1166 0.08424 0.86434 0.0
C688 C 0.11782 0.09461 0.69502 0.0
C689 C 0.12943 0.07919 0.66513 0.0
C690 C 0.10517 0.10745 0.66111 0.0
C691 C 0.09202 0.12326 0.69053 0.0
C692 C 0.08043 0.11515 0.73639 0.0
C693 C 0.06823 0.1302 0.76441 0.0
C694 C 0.06735 0.15336 0.74657 0.0
C695 C 0.07866 0.16151 0.70058 0.0
C696 C 0.09094 0.14654 0.67252 0.0
C697 C 0.10857 0.06093 0.41565 0.0
C698 C 0.10901 0.07998 0.37607 0.0
C699 C 0.111 0.064 0.47769 0.0
C700 C 0.11409 0.08614 0.50173 0.0
C701 C 0.11457 0.10523 0.46246 0.0
C702 C 0.11212 0.10218 0.40026 0.0
C703 C 0.11625 0.0894 0.56802 0.0
C704 C 0.10463 0.10479 0.59811 0.0
C705 C 0.12896 0.0766 0.60199 0.0
C706 C 0.14237 0.06115 0.5726 0.0
C707 C 0.15378 0.06957 0.52664 0.0
C708 C 0.16632 0.0549 0.49889 0.0
C709 C 0.16768 0.03181 0.517 0.0
C710 C 0.15652 0.02335 0.56301 0.0
C711 C 0.14394 0.03794 0.59087 0.0
H712 H 0.1774 0.02049 0.49546 0.0
H713 H 0.05788 0.16498 0.76829 0.0
H714 H 0.41126 0.97159 0.37827 0.0
H715 H 0.41242 0.96486 0.48677 0.0
H716 H 0.40401 0.89182 0.45721 0.0
H717 H 0.40217 0.89856 0.34834 0.0
H718 H 0.38279 0.90719 0.54613 0.0
H719 H 0.44562 0.91394 0.49703 0.0
H720 H 0.47288 0.93213 0.45379 0.0
H721 H 0.46548 0.99127 0.56897 0.0
H722 H 0.43802 0.97359 0.61231 0.0
H723 H 0.40404 0.8701 0.84178 0.0
H724 H 0.40409 0.87681 0.73297 0.0
H725 H 0.41128 0.95002 0.76355 0.0
H726 H 0.41172 0.9433 0.87274 0.0
H727 H 0.43319 0.93467 0.67443 0.0
H728 H 0.37033 0.92826 0.72266 0.0
H729 H 0.34307 0.91022 0.76633 0.0
H730 H 0.35058 0.85059 0.65296 0.0
H731 H 0.37804 0.86814 0.60918 0.0
C732 C 0.40958 0.95409 0.39466 0.0
C733 C 0.40655 0.93564 0.3543 0.0
C734 C 0.41044 0.95023 0.45686 0.0
C735 C 0.40849 0.92779 0.4803 0.0
C736 C 0.40562 0.90928 0.44021 0.0
C737 C 0.40472 0.91313 0.37786 0.0
C738 C 0.40882 0.92383 0.54672 0.0
C739 C 0.39396 0.91287 0.57401 0.0
C740 C 0.42313 0.93185 0.58351 0.0
C741 C 0.43964 0.94253 0.55746 0.0
C742 C 0.44971 0.93091 0.51277 0.0
C743 C 0.46522 0.94112 0.48831 0.0
C744 C 0.47088 0.96287 0.50849 0.0
C745 C 0.46107 0.97444 0.5533 0.0
C746 C 0.44553 0.96433 0.57786 0.0
C747 C 0.40573 0.88762 0.8254 0.0
C748 C 0.4078 0.90616 0.86605 0.0
C749 C 0.40559 0.89146 0.76314 0.0
C750 C 0.40744 0.91396 0.74 0.0
C751 C 0.40971 0.93252 0.78036 0.0
C752 C 0.4098 0.92869 0.8428 0.0
C753 C 0.40721 0.91797 0.67365 0.0
C754 C 0.42206 0.92897 0.64645 0.0
C755 C 0.39288 0.91001 0.63691 0.0
C756 C 0.37634 0.89943 0.66306 0.0
C757 C 0.36625 0.91122 0.70738 0.0
C758 C 0.35075 0.9011 0.7321 0.0
C759 C 0.34512 0.87924 0.71254 0.0
C760 C 0.35497 0.8675 0.66812 0.0
C761 C 0.37049 0.87754 0.6433 0.0
H762 H 0.33311 0.87144 0.73172 0.0
H763 H 0.4829 0.97073 0.48951 0.0
H764 H 0.08521 0.38113 0.69216 0.0
H765 H 0.08761 0.3858 0.80122 0.0
H766 H 0.13199 0.43328 0.77641 0.0
H767 H 0.1301 0.42802 0.66699 0.0
H768 H 0.13961 0.40403 0.86412 0.0
H769 H 0.08905 0.45266 0.8196 0.0
H770 H 0.05923 0.46505 0.78392 0.0
H771 H 0.03384 0.41184 0.88996 0.0
H772 H 0.06364 0.3991 0.92625 0.0
H773 H 0.13783 0.45516 0.15782 0.0
H774 H 0.13705 0.44659 0.04981 0.0
H775 H 0.09555 0.39549 0.08089 0.0
H776 H 0.09598 0.40435 0.18897 0.0
H777 H 0.08681 0.42496 0.99123 0.0
H778 H 0.13766 0.379 0.04331 0.0
H779 H 0.16731 0.37059 0.08814 0.0
H780 H 0.19224 0.42069 0.97131 0.0
H781 H 0.16268 0.42959 0.92626 0.0
C782 C 0.09557 0.39247 0.70968 0.0
C783 C 0.10749 0.40416 0.67044 0.0
C784 C 0.09679 0.39533 0.77227 0.0
C785 C 0.10987 0.41008 0.79729 0.0
C786 C 0.12176 0.42183 0.75831 0.0
C787 C 0.12056 0.41897 0.69561 0.0
C788 C 0.11136 0.41283 0.86405 0.0
C789 C 0.1281 0.4089 0.89178 0.0
C790 C 0.09629 0.41851 0.90071 0.0
C791 C 0.07856 0.4248 0.87509 0.0
C792 C 0.07713 0.44337 0.83453 0.0
C793 C 0.0602 0.45054 0.8145 0.0
C794 C 0.0446 0.43926 0.83477 0.0
C795 C 0.04593 0.42058 0.87443 0.0
C796 C 0.06283 0.4134 0.89477 0.0
C797 C 0.1285 0.44214 0.14175 0.0
C798 C 0.11686 0.43057 0.18212 0.0
C799 C 0.12823 0.43705 0.08001 0.0
C800 C 0.11635 0.42026 0.05727 0.0
C801 C 0.10488 0.40845 0.09748 0.0
C802 C 0.1052 0.41346 0.15931 0.0
C803 C 0.11499 0.41622 0.99114 0.0
C804 C 0.09828 0.41991 0.96357 0.0
C805 C 0.1301 0.4104 0.95486 0.0
C806 C 0.14792 0.40509 0.98176 0.0
C807 C 0.14944 0.38835 0.02749 0.0
C808 C 0.16624 0.38346 0.05288 0.0
C809 C 0.18165 0.39514 0.03269 0.0
C810 C 0.18029 0.41167 0.98694 0.0
C811 C 0.16352 0.41662 0.9614 0.0
H812 H 0.19464 0.39134 0.0524 0.0
H813 H 0.03147 0.44502 0.81999 0.0
H814 H 0.42168 0.61628 0.16269 0.0
H815 H 0.42069 0.62329 0.0537 0.0
H816 H 0.39914 0.55466 0.02591 0.0
H817 H 0.40043 0.54748 0.13428 0.0
H818 H 0.42338 0.56324 0.94284 0.0
H819 H 0.37251 0.60543 0.02493 0.0
H820 H 0.35826 0.63395 0.09305 0.0
H821 H 0.39021 0.68824 0.01428 0.0
H822 H 0.40489 0.65997 0.94639 0.0
H823 H 0.39027 0.57738 0.64337 0.0
H824 H 0.39262 0.57084 0.75236 0.0
H825 H 0.41556 0.63896 0.77479 0.0
H826 H 0.41336 0.64554 0.66662 0.0
H827 H 0.39112 0.6313 0.8604 0.0
H828 H 0.44185 0.5904 0.77886 0.0
H829 H 0.45746 0.56252 0.71238 0.0
H830 H 0.427 0.50671 0.79056 0.0
H831 H 0.411 0.53433 0.85692 0.0
C832 C 0.4167 0.60272 0.13334 0.0
C833 C 0.41114 0.58131 0.15731 0.0
C834 C 0.41611 0.60674 0.07096 0.0
C835 C 0.4096 0.5896 0.03134 0.0
C836 C 0.40426 0.56815 0.05526 0.0
C837 C 0.40504 0.56404 0.11738 0.0
C838 C 0.40817 0.59389 0.96507 0.0
C839 C 0.41612 0.57797 0.92489 0.0
C840 C 0.39911 0.61343 0.94132 0.0
C841 C 0.38991 0.63054 0.98093 0.0
C842 C 0.37655 0.62344 0.02231 0.0
C843 C 0.36841 0.63956 0.06091 0.0
C844 C 0.37336 0.66288 0.05811 0.0
C845 C 0.38639 0.67016 0.01641 0.0
C846 C 0.39463 0.6541 0.97788 0.0
C847 C 0.39592 0.5909 0.67141 0.0
C848 C 0.40154 0.61202 0.64586 0.0
C849 C 0.39724 0.58716 0.73382 0.0
C850 C 0.40437 0.60438 0.77196 0.0
C851 C 0.4099 0.62546 0.74656 0.0
C852 C 0.40857 0.62922 0.68442 0.0
C853 C 0.40617 0.60051 0.83825 0.0
C854 C 0.39833 0.61653 0.87839 0.0
C855 C 0.41542 0.58115 0.862 0.0
C856 C 0.42509 0.56447 0.82242 0.0
C857 C 0.43838 0.57221 0.78155 0.0
C858 C 0.44731 0.55645 0.74394 0.0
C859 C 0.44319 0.53287 0.74713 0.0
C860 C 0.43016 0.52499 0.78807 0.0
C861 C 0.42116 0.54069 0.82572 0.0
H862 H 0.45012 0.52069 0.71797 0.0
H863 H 0.36709 0.67532 0.08818 0.0
H864 H 0.90703 0.87292 0.15226 0.0
H865 H 0.90585 0.87887 0.26165 0.0
H866 H 0.90742 0.95279 0.23496 0.0
H867 H 0.90877 0.9469 0.12533 0.0
H868 H 0.93157 0.93773 0.32193 0.0
H869 H 0.86885 0.92793 0.27501 0.0
H870 H 0.84238 0.90825 0.23143 0.0
H871 H 0.85218 0.84886 0.34285 0.0
H872 H 0.87888 0.86806 0.3865 0.0
H873 H 0.90845 0.97412 0.61691 0.0
H874 H 0.9096 0.96691 0.50857 0.0
H875 H 0.90336 0.89366 0.54024 0.0
H876 H 0.90154 0.90086 0.64912 0.0
H877 H 0.8819 0.90747 0.45066 0.0
H878 H 0.94422 0.91672 0.49858 0.0
H879 H 0.97104 0.93565 0.54202 0.0
H880 H 0.96266 0.99491 0.42884 0.0
H881 H 0.93562 0.97648 0.38529 0.0
C882 C 0.90713 0.89043 0.16972 0.0
C883 C 0.90797 0.90944 0.13018 0.0
C884 C 0.90633 0.89381 0.23219 0.0
C885 C 0.90644 0.91627 0.25646 0.0
C886 C 0.90728 0.93531 0.21715 0.0
C887 C 0.9079 0.93194 0.15455 0.0
C888 C 0.90608 0.91983 0.32291 0.0
C889 C 0.92059 0.93142 0.35004 0.0
C890 C 0.89203 0.91093 0.35971 0.0
C891 C 0.87598 0.89934 0.33355 0.0
C892 C 0.86546 0.91059 0.28982 0.0
C893 C 0.85039 0.89954 0.26519 0.0
C894 C 0.84563 0.87729 0.28423 0.0
C895 C 0.8559 0.86607 0.32807 0.0
C896 C 0.87099 0.87704 0.35281 0.0
C897 C 0.90721 0.95647 0.60104 0.0
C898 C 0.90485 0.93808 0.64197 0.0
C899 C 0.90807 0.95235 0.53892 0.0
C900 C 0.90677 0.92972 0.51613 0.0
C901 C 0.90446 0.91127 0.55676 0.0
C902 C 0.90359 0.91539 0.61907 0.0
C903 C 0.90737 0.92549 0.44984 0.0
C904 C 0.89291 0.91376 0.42267 0.0
C905 C 0.92154 0.93414 0.413 0.0
C906 C 0.93779 0.9453 0.43909 0.0
C907 C 0.94801 0.93387 0.4833 0.0
C908 C 0.96326 0.9445 0.50788 0.0
C909 C 0.96852 0.96649 0.48831 0.0
C910 C 0.95855 0.97789 0.44401 0.0
C911 C 0.94327 0.96735 0.41932 0.0
H912 H 0.98034 0.97469 0.50738 0.0
H913 H 0.83396 0.86877 0.26513 0.0
H914 H 0.60748 0.04463 0.61965 0.0
H915 H 0.60641 0.05142 0.51109 0.0
H916 H 0.61457 0.12448 0.54096 0.0
H917 H 0.61581 0.11778 0.65006 0.0
H918 H 0.58868 0.11622 0.4559 0.0
H919 H 0.64925 0.09086 0.49428 0.0
H920 H 0.67254 0.06472 0.53449 0.0
H921 H 0.65246 0.00935 0.42388 0.0
H922 H 0.62888 0.03509 0.38361 0.0
H923 H 0.61114 0.14605 0.1551 0.0
H924 H 0.61195 0.13973 0.26416 0.0
H925 H 0.60698 0.06609 0.23548 0.0
H926 H 0.60644 0.07237 0.12608 0.0
H927 H 0.63129 0.07474 0.32036 0.0
H928 H 0.57075 0.09935 0.28209 0.0
H929 H 0.54711 0.12494 0.24177 0.0
H930 H 0.5665 0.18088 0.35183 0.0
H931 H 0.59043 0.15571 0.39222 0.0
C932 C 0.60918 0.06214 0.6033 0.0
C933 C 0.61193 0.08062 0.64376 0.0
C934 C 0.60852 0.066 0.5411 0.0
C935 C 0.6107 0.08841 0.51775 0.0
C936 C 0.6129 0.10703 0.55796 0.0
C937 C 0.61355 0.10318 0.62037 0.0
C938 C 0.61086 0.09227 0.45136 0.0
C939 C 0.59816 0.10741 0.42632 0.0
C940 C 0.62293 0.08031 0.41257 0.0
C941 C 0.6372 0.06485 0.43635 0.0
C942 C 0.64972 0.07307 0.47885 0.0
C943 C 0.66298 0.05833 0.5016 0.0
C944 C 0.66395 0.03537 0.48186 0.0
C945 C 0.65168 0.02713 0.43918 0.0
C946 C 0.63837 0.04179 0.41633 0.0
C947 C 0.61016 0.12853 0.17209 0.0
C948 C 0.60868 0.10973 0.13202 0.0
C949 C 0.6106 0.12492 0.23444 0.0
C950 C 0.60924 0.10245 0.25823 0.0
C951 C 0.60805 0.08358 0.21826 0.0
C952 C 0.6078 0.08718 0.15574 0.0
C953 C 0.60909 0.0987 0.32474 0.0
C954 C 0.6218 0.08357 0.34985 0.0
C955 C 0.59696 0.11058 0.36356 0.0
C956 C 0.58248 0.1257 0.33978 0.0
C957 C 0.57005 0.11716 0.29741 0.0
C958 C 0.55659 0.13158 0.27458 0.0
C959 C 0.55533 0.15454 0.29413 0.0
C960 C 0.5675 0.1631 0.33669 0.0
C961 C 0.58101 0.14876 0.35961 0.0
H962 H 0.5449 0.16568 0.27638 0.0
H963 H 0.67423 0.02398 0.49954 0.0
H964 H 0.88508 0.58988 0.35831 0.0
H965 H 0.88439 0.58346 0.24915 0.0
H966 H 0.92982 0.62939 0.22651 0.0
H967 H 0.93082 0.63563 0.33531 0.0
H968 H 0.90365 0.63805 0.14356 0.0
H969 H 0.93526 0.57193 0.2196 0.0
H970 H 0.93934 0.53783 0.28487 0.0
H971 H 0.89276 0.50564 0.20637 0.0
H972 H 0.88806 0.53984 0.14177 0.0
H973 H 0.92365 0.60815 0.83714 0.0
H974 H 0.92551 0.61519 0.94606 0.0
H975 H 0.88276 0.56571 0.97648 0.0
H976 H 0.88099 0.5585 0.86814 0.0
H977 H 0.90834 0.55919 0.05595 0.0
H978 H 0.87651 0.62537 0.98034 0.0
H979 H 0.872 0.65974 0.91629 0.0
H980 H 0.91848 0.69214 0.99492 0.0
H981 H 0.92363 0.65767 0.058 0.0
C982 C 0.89505 0.59846 0.33032 0.0
C983 C 0.908 0.61329 0.35609 0.0
C984 C 0.89459 0.59483 0.26776 0.0
C985 C 0.90711 0.60586 0.22953 0.0
C986 C 0.91996 0.62078 0.25498 0.0
C987 C 0.92046 0.62437 0.31744 0.0
C988 C 0.9069 0.6018 0.16307 0.0
C989 C 0.9049 0.62084 0.12429 0.0
C990 C 0.90822 0.5793 0.13796 0.0
C991 C 0.9112 0.55857 0.1762 0.0
C992 C 0.92579 0.55767 0.21655 0.0
C993 C 0.92823 0.53831 0.2534 0.0
C994 C 0.91634 0.51958 0.24973 0.0
C995 C 0.90196 0.52017 0.20919 0.0
C996 C 0.89938 0.53955 0.17249 0.0
C997 C 0.91457 0.5989 0.86701 0.0
C998 C 0.9022 0.58273 0.84374 0.0
C999 C 0.91564 0.60293 0.92935 0.0
C1000 C 0.90416 0.59113 0.96972 0.0
C1001 C 0.89183 0.57497 0.9465 0.0
C1002 C 0.89086 0.57082 0.88437 0.0
C1003 C 0.90494 0.59544 0.03615 0.0
C1004 C 0.90709 0.57643 0.07503 0.0
C1005 C 0.90373 0.61798 0.0613 0.0
C1006 C 0.9006 0.63877 0.02339 0.0
C1007 C 0.88591 0.63971 0.98347 0.0
C1008 C 0.88324 0.65921 0.94726 0.0
C1009 C 0.89503 0.67805 0.95116 0.0
C1010 C 0.90946 0.67746 0.99149 0.0
C1011 C 0.91227 0.65793 0.02745 0.0
H1012 H 0.89293 0.69314 0.92315 0.0
H1013 H 0.91827 0.50461 0.27828 0.0
H1014 H 0.58233 0.38935 0.35518 0.0
H1015 H 0.58487 0.39472 0.24642 0.0
H1016 H 0.6331 0.43537 0.27133 0.0
H1017 H 0.6309 0.42973 0.38055 0.0
H1018 H 0.60959 0.45552 0.19162 0.0
H1019 H 0.63616 0.38065 0.22117 0.0
H1020 H 0.63732 0.34041 0.25796 0.0
H1021 H 0.59092 0.32321 0.15148 0.0
H1022 H 0.58931 0.36346 0.11474 0.0
H1023 H 0.6381 0.45893 0.88749 0.0
H1024 H 0.63639 0.4521 0.99602 0.0
H1025 H 0.59082 0.40669 0.96948 0.0
H1026 H 0.59266 0.41329 0.86028 0.0
H1027 H 0.61289 0.38883 0.05047 0.0
H1028 H 0.58564 0.46306 0.02182 0.0
H1029 H 0.58366 0.50327 0.98526 0.0
H1030 H 0.63009 0.52175 0.09021 0.0
H1031 H 0.6325 0.48154 0.12677 0.0
C1032 C 0.59364 0.3992 0.33784 0.0
C1033 C 0.60648 0.40897 0.37711 0.0
C1034 C 0.59503 0.40231 0.27541 0.0
C1035 C 0.60928 0.41523 0.25061 0.0
C1036 C 0.62199 0.42531 0.28949 0.0
C1037 C 0.62066 0.42214 0.35204 0.0
C1038 C 0.61078 0.4184 0.18415 0.0
C1039 C 0.61058 0.44096 0.16078 0.0
C1040 C 0.61154 0.39937 0.1438 0.0
C1041 C 0.61251 0.37513 0.16568 0.0
C1042 C 0.62611 0.36834 0.20599 0.0
C1043 C 0.62687 0.34552 0.22677 0.0
C1044 C 0.61417 0.32928 0.2072 0.0
C1045 C 0.60072 0.33582 0.16668 0.0
C1046 C 0.59989 0.35863 0.14583 0.0
C1047 C 0.62763 0.44761 0.9047 0.0
C1048 C 0.61538 0.43687 0.86523 0.0
C1049 C 0.62667 0.44371 0.96687 0.0
C1050 C 0.61324 0.42925 0.99125 0.0
C1051 C 0.60126 0.418 0.95184 0.0
C1052 C 0.60233 0.42175 0.88942 0.0
C1053 C 0.61173 0.42599 0.0578 0.0
C1054 C 0.6119 0.40341 0.08123 0.0
C1055 C 0.61081 0.44501 0.09824 0.0
C1056 C 0.60935 0.46923 0.07658 0.0
C1057 C 0.59551 0.47566 0.03676 0.0
C1058 C 0.5943 0.49845 0.01609 0.0
C1059 C 0.60677 0.51504 0.03528 0.0
C1060 C 0.62045 0.50887 0.07532 0.0
C1061 C 0.62173 0.48609 0.09608 0.0
H1062 H 0.60581 0.53268 0.01922 0.0
H1063 H 0.61478 0.31162 0.22333 0.0
H1064 H 0.1539 0.15911 0.26575 0.0
H1065 H 0.15276 0.19944 0.29876 0.0
H1066 H 0.10315 0.20908 0.20122 0.0
H1067 H 0.1042 0.16861 0.16768 0.0
H1068 H 0.12669 0.24587 0.18546 0.0
H1069 H 0.10194 0.20273 0.35055 0.0
H1070 H 0.10144 0.17163 0.42673 0.0
H1071 H 0.14953 0.19918 0.50707 0.0
H1072 H 0.15052 0.2302 0.43064 0.0
H1073 H 0.10566 0.35438 0.32561 0.0
H1074 H 0.10506 0.31476 0.28639 0.0
H1075 H 0.15113 0.29764 0.3958 0.0
H1076 H 0.15145 0.33697 0.43647 0.0
H1077 H 0.12771 0.26436 0.40426 0.0
H1078 H 0.15331 0.30648 0.23697 0.0
H1079 H 0.15438 0.33702 0.15931 0.0
H1080 H 0.10513 0.31136 0.0827 0.0
H1081 H 0.10363 0.28084 0.16042 0.0
C1082 C 0.14272 0.16974 0.25116 0.0
C1083 C 0.12909 0.16047 0.21421 0.0
C1084 C 0.14207 0.19285 0.27026 0.0
C1085 C 0.12778 0.20732 0.25302 0.0
C1086 C 0.11431 0.19828 0.21522 0.0
C1087 C 0.11489 0.17508 0.19629 0.0
C1088 C 0.12686 0.23173 0.27531 0.0
C1089 C 0.12665 0.24993 0.23331 0.0
C1090 C 0.12713 0.23709 0.33775 0.0
C1091 C 0.12639 0.21869 0.38449 0.0
C1092 C 0.11249 0.20207 0.3842 0.0
C1093 C 0.11211 0.18446 0.42745 0.0
C1094 C 0.12546 0.18341 0.47165 0.0
C1095 C 0.1392 0.2 0.47277 0.0
C1096 C 0.13967 0.21761 0.42951 0.0
C1097 C 0.11575 0.34224 0.34102 0.0
C1098 C 0.12862 0.34896 0.38423 0.0
C1099 C 0.11543 0.31953 0.31834 0.0
C1100 C 0.12816 0.30308 0.33752 0.0
C1101 C 0.14112 0.30987 0.38023 0.0
C1102 C 0.14133 0.33247 0.40332 0.0
C1103 C 0.12782 0.27868 0.31443 0.0
C1104 C 0.12773 0.2604 0.35636 0.0
C1105 C 0.12731 0.27327 0.25192 0.0
C1106 C 0.12827 0.29151 0.20489 0.0
C1107 C 0.14264 0.30745 0.20382 0.0
C1108 C 0.14333 0.32474 0.15975 0.0
C1109 C 0.12981 0.32616 0.1162 0.0
C1110 C 0.11558 0.31025 0.11652 0.0
C1111 C 0.11481 0.29294 0.16053 0.0
H1112 H 0.13037 0.33953 0.08209 0.0
H1113 H 0.12515 0.16975 0.50508 0.0
H1114 H 0.36184 0.84109 0.11843 0.0
H1115 H 0.36198 0.80129 0.15582 0.0
H1116 H 0.41443 0.81244 0.234 0.0
H1117 H 0.41429 0.85259 0.19727 0.0
H1118 H 0.41166 0.77052 0.16588 0.0
H1119 H 0.38031 0.80973 0.32536 0.0
H1120 H 0.35725 0.83541 0.36981 0.0
H1121 H 0.31529 0.7917 0.30004 0.0
H1122 H 0.33812 0.76592 0.25435 0.0
H1123 H 0.41334 0.66765 0.34498 0.0
H1124 H 0.4136 0.7082 0.31303 0.0
H1125 H 0.36101 0.69952 0.23381 0.0
H1126 H 0.36072 0.6588 0.26494 0.0
H1127 H 0.36426 0.74038 0.3041 0.0
H1128 H 0.39514 0.70129 0.14419 0.0
H1129 H 0.41792 0.67513 0.09993 0.0
H1130 H 0.46035 0.71836 0.16835 0.0
H1131 H 0.43783 0.7445 0.21438 0.0
C1132 C 0.37338 0.83519 0.14395 0.0
C1133 C 0.38804 0.85011 0.15493 0.0
C1134 C 0.37342 0.81238 0.16536 0.0
C1135 C 0.3882 0.80381 0.1978 0.0
C1136 C 0.40288 0.81864 0.20901 0.0
C1137 C 0.40273 0.84163 0.18834 0.0
C1138 C 0.38828 0.77929 0.21925 0.0
C1139 C 0.40147 0.76402 0.19688 0.0
C1140 C 0.37471 0.77059 0.25841 0.0
C1141 C 0.36093 0.78602 0.2859 0.0
C1142 C 0.36616 0.8057 0.31901 0.0
C1143 C 0.35313 0.82025 0.34453 0.0
C1144 C 0.33481 0.81522 0.33762 0.0
C1145 C 0.32949 0.79559 0.30528 0.0
C1146 C 0.34247 0.78099 0.2796 0.0
C1147 C 0.40181 0.67431 0.32076 0.0
C1148 C 0.38702 0.65987 0.30749 0.0
C1149 C 0.402 0.69753 0.30241 0.0
C1150 C 0.38734 0.70694 0.27085 0.0
C1151 C 0.37246 0.69268 0.25819 0.0
C1152 C 0.37236 0.66935 0.27583 0.0
C1153 C 0.38764 0.73162 0.25082 0.0
C1154 C 0.37449 0.74689 0.2733 0.0
C1155 C 0.40121 0.74028 0.21155 0.0
C1156 C 0.41479 0.72473 0.18337 0.0
C1157 C 0.40933 0.70511 0.15033 0.0
C1158 C 0.42219 0.6903 0.12482 0.0
C1159 C 0.44056 0.69507 0.13137 0.0
C1160 C 0.44611 0.71468 0.16339 0.0
C1161 C 0.4333 0.72949 0.18924 0.0
H1162 H 0.45049 0.68359 0.11155 0.0
H1163 H 0.32474 0.82651 0.35743 0.0
H1164 H 0.89907 0.86342 0.75748 0.0
H1165 H 0.89888 0.82412 0.71447 0.0
H1166 H 0.88369 0.79631 0.88794 0.0
H1167 H 0.88343 0.83539 0.93074 0.0
H1168 H 0.9135 0.7722 0.82459 0.0
H1169 H 0.85233 0.79975 0.7939 0.0
H1170 H 0.82989 0.82763 0.75623 0.0
H1171 H 0.84982 0.81836 0.5754 0.0
H1172 H 0.87257 0.79066 0.61219 0.0
H1173 H 0.89268 0.65656 0.73712 0.0
H1174 H 0.8928 0.69533 0.78242 0.0
H1175 H 0.88691 0.72554 0.60531 0.0
H1176 H 0.88546 0.68691 0.56104 0.0
H1177 H 0.86804 0.74925 0.67216 0.0
H1178 H 0.9288 0.72325 0.69429 0.0
H1179 H 0.9534 0.69719 0.72518 0.0
H1180 H 0.93808 0.70557 0.91108 0.0
H1181 H 0.9131 0.73128 0.88129 0.0
C1182 C 0.89568 0.84893 0.78639 0.0
C1183 C 0.89117 0.85258 0.84746 0.0
C1184 C 0.89557 0.82649 0.76179 0.0
C1185 C 0.89128 0.80725 0.79804 0.0
C1186 C 0.88708 0.81085 0.85916 0.0
C1187 C 0.88683 0.83325 0.88343 0.0
C1188 C 0.89079 0.7834 0.77223 0.0
C1189 C 0.90348 0.76703 0.79166 0.0
C1190 C 0.87805 0.77687 0.72804 0.0
C1191 C 0.86426 0.79333 0.70588 0.0
C1192 C 0.85203 0.80381 0.74619 0.0
C1193 C 0.83923 0.81954 0.72498 0.0
C1194 C 0.83846 0.82481 0.66348 0.0
C1195 C 0.85045 0.81429 0.62304 0.0
C1196 C 0.86329 0.79856 0.64403 0.0
C1197 C 0.89136 0.67153 0.70807 0.0
C1198 C 0.88903 0.66869 0.64555 0.0
C1199 C 0.89159 0.69377 0.73388 0.0
C1200 C 0.89022 0.71371 0.69744 0.0
C1201 C 0.88792 0.71069 0.63488 0.0
C1202 C 0.88714 0.68851 0.60944 0.0
C1203 C 0.89095 0.73768 0.72385 0.0
C1204 C 0.87821 0.75418 0.7048 0.0
C1205 C 0.90399 0.74448 0.76724 0.0
C1206 C 0.91896 0.729 0.78546 0.0
C1207 C 0.93057 0.71937 0.74173 0.0
C1208 C 0.94457 0.70466 0.75906 0.0
C1209 C 0.94723 0.69963 0.82005 0.0
C1210 C 0.93592 0.70937 0.86387 0.0
C1211 C 0.92184 0.72402 0.84679 0.0
H1212 H 0.95809 0.68826 0.83339 0.0
H1213 H 0.82855 0.837 0.64715 0.0
H1214 H 0.61647 0.15631 0.76064 0.0
H1215 H 0.61599 0.19576 0.7191 0.0
H1216 H 0.63592 0.22259 0.88783 0.0
H1217 H 0.63676 0.18337 0.92915 0.0
H1218 H 0.60557 0.24756 0.83895 0.0
H1219 H 0.66433 0.21872 0.77834 0.0
H1220 H 0.68474 0.19069 0.72915 0.0
H1221 H 0.65841 0.20196 0.55946 0.0
H1222 H 0.63767 0.22984 0.60788 0.0
H1223 H 0.62504 0.36331 0.74987 0.0
H1224 H 0.62571 0.3241 0.79203 0.0
H1225 H 0.62428 0.29557 0.61169 0.0
H1226 H 0.62506 0.33463 0.56994 0.0
H1227 H 0.64491 0.27056 0.66744 0.0
H1228 H 0.5859 0.29792 0.72105 0.0
H1229 H 0.56349 0.3245 0.7658 0.0
H1230 H 0.58679 0.31456 0.94097 0.0
H1231 H 0.60948 0.28811 0.89713 0.0
C1232 C 0.6208 0.17061 0.7888 0.0
C1233 C 0.62674 0.16663 0.84815 0.0
C1234 C 0.62052 0.19314 0.76501 0.0
C1235 C 0.62592 0.21217 0.80037 0.0
C1236 C 0.63166 0.20823 0.85974 0.0
C1237 C 0.63224 0.18573 0.88315 0.0
C1238 C 0.62579 0.23619 0.7756 0.0
C1239 C 0.61427 0.25271 0.80176 0.0
C1240 C 0.63676 0.24275 0.72607 0.0
C1241 C 0.64934 0.22619 0.69686 0.0
C1242 C 0.66281 0.21509 0.73064 0.0
C1243 C 0.67445 0.19925 0.70288 0.0
C1244 C 0.67284 0.1945 0.64125 0.0
C1245 C 0.65963 0.20564 0.60721 0.0
C1246 C 0.64793 0.22147 0.63478 0.0
C1247 C 0.62489 0.34861 0.71943 0.0
C1248 C 0.62503 0.35204 0.65664 0.0
C1249 C 0.6251 0.32611 0.74351 0.0
C1250 C 0.62466 0.30652 0.70537 0.0
C1251 C 0.6247 0.31013 0.64254 0.0
C1252 C 0.62509 0.33255 0.61856 0.0
C1253 C 0.62449 0.2823 0.73024 0.0
C1254 C 0.63604 0.26562 0.70432 0.0
C1255 C 0.61319 0.27547 0.77913 0.0
C1256 C 0.59949 0.29122 0.80569 0.0
C1257 C 0.5863 0.30151 0.76905 0.0
C1258 C 0.57354 0.31653 0.79426 0.0
C1259 C 0.57374 0.32126 0.85616 0.0
C1260 C 0.58667 0.3109 0.89302 0.0
C1261 C 0.59946 0.29587 0.86803 0.0
H1262 H 0.56386 0.33291 0.87558 0.0
H1263 H 0.68187 0.18223 0.61984 0.0
loop_
_geom_bond_atom_site_label_1
_geom_bond_atom_site_label_2
_geom_bond_distance
_geom_bond_site_symmetry_2
_ccdc_geom_bond_type
Co0 N4 2.148 . S
Co0 N10 2.128 . S
Co0 N20 2.194 . S
Co0 O25 2.351 . S
Co0 O26 2.155 . S
Co0 O27 2.096 . S
C1 N4 1.301 1_556 S
C1 N5 1.328 . S
C1 H6 0.930 . S
C2 C3 1.333 . S
C2 N4 1.317 1_556 S
C2 H7 0.930 1_556 S
C3 C2 1.333 . S
C3 N5 1.350 . S
C3 H29 0.931 . S
N4 Co0 2.148 . S
N4 C1 1.301 1_554 S
N4 C2 1.317 1_554 S
N5 C1 1.328 . S
N5 C3 1.350 . S
H6 C1 0.930 . S
H7 C2 0.930 1_554 S
C8 O9 1.224 . S
C8 O27 1.247 . S
O9 C8 1.224 . S
N10 Co0 2.128 . S
N10 C11 1.355 . S
N10 C13 1.311 . S
C11 N10 1.355 . S
C11 C12 1.363 . S
C11 H23 0.929 . S
C12 C11 1.363 . S
C12 N14 1.375 . S
C12 H30 0.931 . S
C13 N10 1.311 . S
C13 N14 1.347 . S
C13 H24 0.929 . S
N14 C12 1.375 . S
N14 C13 1.347 . S
C15 C18 1.365 . S
C15 N20 1.328 . S
C15 H21 0.929 . S
C16 C17 1.362 . S
C16 C19 1.378 . S
C16 H31 0.929 . S
C17 C16 1.362 . S
C17 C18 1.366 . S
C18 C15 1.365 . S
C18 C17 1.366 . S
C18 H32 0.930 . S
C19 C16 1.378 . S
C19 N20 1.315 . S
C19 H22 0.930 . S
N20 Co0 2.194 . S
N20 C15 1.328 . S
N20 C19 1.315 . S
H21 C15 0.929 . S
H22 C19 0.930 . S
H23 C11 0.929 . S
H24 C13 0.929 . S
O25 Co0 2.351 . S
O25 C28 1.244 . S
O26 Co0 2.155 . S
O26 C28 1.240 . S
O27 Co0 2.096 . S
O27 C8 1.247 . S
C28 O25 1.244 . S
C28 O26 1.240 . S
H29 C3 0.931 . S
H30 C12 0.931 . S
H31 C16 0.929 . S
H32 C18 0.930 . S
Co33 N37 2.148 . S
Co33 N43 2.128 . S
Co33 N53 2.194 . S
Co33 O58 2.351 . S
Co33 O59 2.155 . S
Co33 O60 2.096 . S
C34 N37 1.301 1_556 S
C34 N38 1.328 . S
C34 H39 0.930 . S
C35 C36 1.333 . S
C35 N37 1.317 1_556 S
C35 H40 0.930 1_556 S
C36 C35 1.333 . S
C36 N38 1.350 . S
C36 H62 0.931 . S
N37 Co33 2.148 . S
N37 C34 1.301 1_554 S
N37 C35 1.317 1_554 S
N38 C34 1.328 . S
N38 C36 1.350 . S
H39 C34 0.930 . S
H40 C35 0.930 1_554 S
C41 O42 1.224 . S
C41 O60 1.247 . S
O42 C41 1.224 . S
N43 Co33 2.128 . S
N43 C44 1.355 . S
N43 C46 1.311 . S
C44 N43 1.355 . S
C44 C45 1.363 . S
C44 H56 0.929 . S
C45 C44 1.363 . S
C45 N47 1.375 . S
C45 H63 0.931 . S
C46 N43 1.311 . S
C46 N47 1.347 . S
C46 H57 0.929 . S
N47 C45 1.375 . S
N47 C46 1.347 . S
C48 C51 1.365 . S
C48 N53 1.328 . S
C48 H54 0.929 . S
C49 C50 1.362 . S
C49 C52 1.378 . S
C49 H64 0.929 . S
C50 C49 1.362 . S
C50 C51 1.366 . S
C51 C48 1.365 . S
C51 C50 1.366 . S
C51 H65 0.930 . S
C52 C49 1.378 . S
C52 N53 1.315 . S
C52 H55 0.930 . S
N53 Co33 2.194 . S
N53 C48 1.328 . S
N53 C52 1.315 . S
H54 C48 0.929 . S
H55 C52 0.930 . S
H56 C44 0.929 . S
H57 C46 0.929 . S
O58 Co33 2.351 . S
O58 C61 1.244 . S
O59 Co33 2.155 . S
O59 C61 1.240 . S
O60 Co33 2.096 . S
O60 C41 1.247 . S
C61 O58 1.244 . S
C61 O59 1.240 . S
H62 C36 0.931 . S
H63 C45 0.931 . S
H64 C49 0.929 . S
H65 C51 0.930 . S
Co66 N70 2.148 . S
Co66 N76 2.128 . S
Co66 N86 2.194 . S
Co66 O91 2.351 . S
Co66 O92 2.155 . S
Co66 O93 2.096 . S
C67 N70 1.301 . S
C67 N71 1.328 . S
C67 H72 0.930 . S
C68 C69 1.333 . S
C68 N70 1.317 . S
C68 H73 0.930 . S
C69 C68 1.333 . S
C69 N71 1.350 . S
C69 H95 0.931 . S
N70 Co66 2.148 . S
N70 C67 1.301 . S
N70 C68 1.317 . S
N71 C67 1.328 . S
N71 C69 1.350 . S
H72 C67 0.930 . S
H73 C68 0.930 . S
C74 O75 1.224 . S
C74 O93 1.247 . S
O75 C74 1.224 . S
N76 Co66 2.128 . S
N76 C77 1.355 . S
N76 C79 1.311 . S
C77 N76 1.355 . S
C77 C78 1.363 . S
C77 H89 0.929 . S
C78 C77 1.363 . S
C78 N80 1.375 . S
C78 H96 0.931 . S
C79 N76 1.311 . S
C79 N80 1.347 . S
C79 H90 0.929 . S
N80 C78 1.375 . S
N80 C79 1.347 . S
C81 C84 1.365 . S
C81 N86 1.328 . S
C81 H87 0.929 . S
C82 C83 1.362 . S
C82 C85 1.378 . S
C82 H97 0.929 . S
C83 C82 1.362 . S
C83 C84 1.366 . S
C84 C81 1.365 . S
C84 C83 1.366 . S
C84 H98 0.930 . S
C85 C82 1.378 . S
C85 N86 1.315 . S
C85 H88 0.930 . S
N86 Co66 2.194 . S
N86 C81 1.328 . S
N86 C85 1.315 . S
H87 C81 0.929 . S
H88 C85 0.930 . S
H89 C77 0.929 . S
H90 C79 0.929 . S
O91 Co66 2.351 . S
O91 C94 1.244 . S
O92 Co66 2.155 . S
O92 C94 1.240 . S
O93 Co66 2.096 . S
O93 C74 1.247 . S
C94 O91 1.244 . S
C94 O92 1.240 . S
H95 C69 0.931 . S
H96 C78 0.931 . S
H97 C82 0.929 . S
H98 C84 0.930 . S
Co99 N103 2.148 . S
Co99 N109 2.128 . S
Co99 N119 2.194 . S
Co99 O124 2.351 . S
Co99 O125 2.155 . S
Co99 O126 2.096 . S
C100 N103 1.301 . S
C100 N104 1.328 . S
C100 H105 0.930 . S
C101 C102 1.333 . S
C101 N103 1.317 . S
C101 H106 0.930 . S
C102 C101 1.333 . S
C102 N104 1.350 . S
C102 H128 0.931 . S
N103 Co99 2.148 . S
N103 C100 1.301 . S
N103 C101 1.317 . S
N104 C100 1.328 . S
N104 C102 1.350 . S
H105 C100 0.930 . S
H106 C101 0.930 . S
C107 O108 1.224 . S
C107 O126 1.247 . S
O108 C107 1.224 . S
N109 Co99 2.128 . S
N109 C110 1.355 . S
N109 C112 1.311 . S
C110 N109 1.355 . S
C110 C111 1.363 . S
C110 H122 0.929 . S
C111 C110 1.363 . S
C111 N113 1.375 . S
C111 H129 0.931 . S
C112 N109 1.311 . S
C112 N113 1.347 . S
C112 H123 0.929 . S
N113 C111 1.375 . S
N113 C112 1.347 . S
C114 C117 1.365 . S
C114 N119 1.328 . S
C114 H120 0.929 . S
C115 C116 1.362 . S
C115 C118 1.378 . S
C115 H130 0.929 . S
C116 C115 1.362 . S
C116 C117 1.366 . S
C117 C114 1.365 . S
C117 C116 1.366 . S
C117 H131 0.930 . S
C118 C115 1.378 . S
C118 N119 1.315 . S
C118 H121 0.930 . S
N119 Co99 2.194 . S
N119 C114 1.328 . S
N119 C118 1.315 . S
H120 C114 0.929 . S
H121 C118 0.930 . S
H122 C110 0.929 . S
H123 C112 0.929 . S
O124 Co99 2.351 . S
O124 C127 1.244 . S
O125 Co99 2.155 . S
O125 C127 1.240 . S
O126 Co99 2.096 . S
O126 C107 1.247 . S
C127 O124 1.244 . S
C127 O125 1.240 . S
H128 C102 0.931 . S
H129 C111 0.931 . S
H130 C115 0.929 . S
H131 C117 0.930 . S
Co132 N136 2.148 . S
Co132 N142 2.128 . S
Co132 N152 2.194 . S
Co132 O157 2.351 . S
Co132 O158 2.155 . S
Co132 O159 2.096 . S
C133 N136 1.301 1_554 S
C133 N137 1.328 . S
C133 H138 0.930 . S
C134 C135 1.333 . S
C134 N136 1.317 1_554 S
C134 H139 0.930 1_554 S
C135 C134 1.333 . S
C135 N137 1.350 . S
C135 H161 0.931 . S
N136 Co132 2.148 . S
N136 C133 1.301 1_556 S
N136 C134 1.317 1_556 S
N137 C133 1.328 . S
N137 C135 1.350 . S
H138 C133 0.930 . S
H139 C134 0.930 1_556 S
C140 O141 1.224 . S
C140 O159 1.247 . S
O141 C140 1.224 . S
N142 Co132 2.128 . S
N142 C143 1.355 . S
N142 C145 1.311 . S
C143 N142 1.355 . S
C143 C144 1.363 . S
C143 H155 0.929 . S
C144 C143 1.363 . S
C144 N146 1.375 . S
C144 H162 0.931 . S
C145 N142 1.311 . S
C145 N146 1.347 . S
C145 H156 0.929 . S
N146 C144 1.375 . S
N146 C145 1.347 . S
C147 C150 1.365 . S
C147 N152 1.328 . S
C147 H153 0.929 . S
C148 C149 1.362 . S
C148 C151 1.378 . S
C148 H163 0.929 . S
C149 C148 1.362 . S
C149 C150 1.366 . S
C150 C147 1.365 . S
C150 C149 1.366 . S
C150 H164 0.930 . S
C151 C148 1.378 . S
C151 N152 1.315 . S
C151 H154 0.930 . S
N152 Co132 2.194 . S
N152 C147 1.328 . S
N152 C151 1.315 . S
H153 C147 0.929 . S
H154 C151 0.930 . S
H155 C143 0.929 . S
H156 C145 0.929 . S
O157 Co132 2.351 . S
O157 C160 1.244 . S
O158 Co132 2.155 . S
O158 C160 1.240 . S
O159 Co132 2.096 . S
O159 C140 1.247 . S
C160 O157 1.244 . S
C160 O158 1.240 . S
H161 C135 0.931 . S
H162 C144 0.931 . S
H163 C148 0.929 . S
H164 C150 0.930 . S
Co165 N169 2.148 . S
Co165 N175 2.128 . S
Co165 N185 2.194 . S
Co165 O190 2.351 . S
Co165 O191 2.155 . S
Co165 O192 2.096 . S
C166 N169 1.301 1_554 S
C166 N170 1.328 . S
C166 H171 0.930 . S
C167 C168 1.333 . S
C167 N169 1.317 1_554 S
C167 H172 0.930 1_554 S
C168 C167 1.333 . S
C168 N170 1.350 . S
C168 H194 0.931 . S
N169 Co165 2.148 . S
N169 C166 1.301 1_556 S
N169 C167 1.317 1_556 S
N170 C166 1.328 . S
N170 C168 1.350 . S
H171 C166 0.930 . S
H172 C167 0.930 1_556 S
C173 O174 1.224 . S
C173 O192 1.247 . S
O174 C173 1.224 . S
N175 Co165 2.128 . S
N175 C176 1.355 . S
N175 C178 1.311 . S
C176 N175 1.355 . S
C176 C177 1.363 . S
C176 H188 0.929 . S
C177 C176 1.363 . S
C177 N179 1.375 . S
C177 H195 0.931 . S
C178 N175 1.311 . S
C178 N179 1.347 . S
C178 H189 0.929 . S
N179 C177 1.375 . S
N179 C178 1.347 . S
C180 C183 1.365 . S
C180 N185 1.328 . S
C180 H186 0.929 . S
C181 C182 1.362 . S
C181 C184 1.378 . S
C181 H196 0.929 . S
C182 C181 1.362 . S
C182 C183 1.366 . S
C183 C180 1.365 . S
C183 C182 1.366 . S
C183 H197 0.930 . S
C184 C181 1.378 . S
C184 N185 1.315 . S
C184 H187 0.930 . S
N185 Co165 2.194 . S
N185 C180 1.328 . S
N185 C184 1.315 . S
H186 C180 0.929 . S
H187 C184 0.930 . S
H188 C176 0.929 . S
H189 C178 0.929 . S
O190 Co165 2.351 . S
O190 C193 1.244 . S
O191 Co165 2.155 . S
O191 C193 1.240 . S
O192 Co165 2.096 . S
O192 C173 1.247 . S
C193 O190 1.244 . S
C193 O191 1.240 . S
H194 C168 0.931 . S
H195 C177 0.931 . S
H196 C181 0.929 . S
H197 C183 0.930 . S
Co198 N202 2.148 . S
Co198 N208 2.128 . S
Co198 N218 2.194 . S
Co198 O223 2.351 . S
Co198 O224 2.155 . S
Co198 O225 2.096 . S
C199 N202 1.301 . S
C199 N203 1.328 . S
C199 H204 0.930 . S
C200 C201 1.333 . S
C200 N202 1.317 . S
C200 H205 0.930 . S
C201 C200 1.333 . S
C201 N203 1.350 . S
C201 H227 0.931 . S
N202 Co198 2.148 . S
N202 C199 1.301 . S
N202 C200 1.317 . S
N203 C199 1.328 . S
N203 C201 1.350 . S
H204 C199 0.930 . S
H205 C200 0.930 . S
C206 O207 1.224 . S
C206 O225 1.247 . S
O207 C206 1.224 . S
N208 Co198 2.128 . S
N208 C209 1.355 . S
N208 C211 1.311 . S
C209 N208 1.355 . S
C209 C210 1.363 . S
C209 H221 0.929 . S
C210 C209 1.363 . S
C210 N212 1.375 . S
C210 H228 0.931 . S
C211 N208 1.311 . S
C211 N212 1.347 . S
C211 H222 0.929 . S
N212 C210 1.375 . S
N212 C211 1.347 . S
C213 C216 1.365 . S
C213 N218 1.328 . S
C213 H219 0.929 . S
C214 C215 1.362 . S
C214 C217 1.378 . S
C214 H229 0.929 . S
C215 C214 1.362 . S
C215 C216 1.366 . S
C216 C213 1.365 . S
C216 C215 1.366 . S
C216 H230 0.930 . S
C217 C214 1.378 . S
C217 N218 1.315 . S
C217 H220 0.930 . S
N218 Co198 2.194 . S
N218 C213 1.328 . S
N218 C217 1.315 . S
H219 C213 0.929 . S
H220 C217 0.930 . S
H221 C209 0.929 . S
H222 C211 0.929 . S
O223 Co198 2.351 . S
O223 C226 1.244 . S
O224 Co198 2.155 . S
O224 C226 1.240 . S
O225 Co198 2.096 . S
O225 C206 1.247 . S
C226 O223 1.244 . S
C226 O224 1.240 . S
H227 C201 0.931 . S
H228 C210 0.931 . S
H229 C214 0.929 . S
H230 C216 0.930 . S
Co231 N235 2.148 . S
Co231 N241 2.128 . S
Co231 N251 2.194 . S
Co231 O256 2.351 . S
Co231 O257 2.155 . S
Co231 O258 2.096 . S
C232 N235 1.301 . S
C232 N236 1.328 . S
C232 H237 0.930 . S
C233 C234 1.333 . S
C233 N235 1.317 . S
C233 H238 0.930 . S
C234 C233 1.333 . S
C234 N236 1.350 . S
C234 H260 0.931 . S
N235 Co231 2.148 . S
N235 C232 1.301 . S
N235 C233 1.317 . S
N236 C232 1.328 . S
N236 C234 1.350 . S
H237 C232 0.930 . S
H238 C233 0.930 . S
C239 O240 1.224 . S
C239 O258 1.247 . S
O240 C239 1.224 . S
N241 Co231 2.128 . S
N241 C242 1.355 . S
N241 C244 1.311 . S
C242 N241 1.355 . S
C242 C243 1.363 . S
C242 H254 0.929 . S
C243 C242 1.363 . S
C243 N245 1.375 . S
C243 H261 0.931 . S
C244 N241 1.311 . S
C244 N245 1.347 . S
C244 H255 0.929 . S
N245 C243 1.375 . S
N245 C244 1.347 . S
C246 C249 1.365 . S
C246 N251 1.328 . S
C246 H252 0.929 . S
C247 C248 1.362 . S
C247 C250 1.378 . S
C247 H262 0.929 . S
C248 C247 1.362 . S
C248 C249 1.366 . S
C249 C246 1.365 . S
C249 C248 1.366 . S
C249 H263 0.930 . S
C250 C247 1.378 . S
C250 N251 1.315 . S
C250 H253 0.930 . S
N251 Co231 2.194 . S
N251 C246 1.328 . S
N251 C250 1.315 . S
H252 C246 0.929 . S
H253 C250 0.930 . S
H254 C242 0.929 . S
H255 C244 0.929 . S
O256 Co231 2.351 . S
O256 C259 1.244 . S
O257 Co231 2.155 . S
O257 C259 1.240 . S
O258 Co231 2.096 . S
O258 C239 1.247 . S
C259 O256 1.244 . S
C259 O257 1.240 . S
H260 C234 0.931 . S
H261 C243 0.931 . S
H262 C247 0.929 . S
H263 C249 0.930 . S
H264 C282 0.951 . S
H265 C284 0.951 1_545 S
H266 C286 0.950 . S
H267 C287 0.950 . S
H268 C289 0.950 . S
H269 C292 0.950 . S
H270 C293 0.950 . S
H271 C295 0.950 . S
H272 C296 0.950 . S
H273 C297 0.951 . S
H274 C299 0.951 1_565 S
H275 C301 0.950 . S
H276 C302 0.950 . S
H277 C304 0.950 . S
H278 C307 0.950 1_554 S
H279 C308 0.950 . S
H280 C310 0.950 . S
H281 C311 0.950 . S
C282 H264 0.951 . S
C282 C283 1.366 . S
C282 C284 1.388 . S
C283 C282 1.366 . S
C283 C287 1.385 . S
C284 H265 0.951 1_565 S
C284 C282 1.388 . S
C284 C285 1.366 . S
C285 C284 1.366 . S
C285 C286 1.414 . S
C285 C288 1.499 . S
C286 H266 0.950 . S
C286 C285 1.414 . S
C286 C287 1.374 . S
C287 H267 0.950 . S
C287 C283 1.385 . S
C287 C286 1.374 . S
C288 C285 1.499 . S
C288 C289 1.373 . S
C288 C290 1.389 . S
C289 H268 0.950 . S
C289 C288 1.373 . S
C289 C305 1.377 1_565 S
C290 C288 1.389 . S
C290 C291 1.524 . S
C290 C304 1.377 1_565 S
C291 C290 1.524 . S
C291 C292 1.397 . S
C291 C296 1.363 1_565 S
C292 H269 0.950 . S
C292 C291 1.397 . S
C292 C293 1.334 . S
C293 H270 0.950 . S
C293 C292 1.334 . S
C293 C294 1.287 . S
C294 C293 1.287 . S
C294 C295 1.524 1_565 S
C294 H313 0.913 . S
C295 H271 0.950 . S
C295 C294 1.524 1_545 S
C295 C296 1.415 . S
C296 H272 0.950 . S
C296 C291 1.363 1_545 S
C296 C295 1.415 . S
C297 H273 0.951 . S
C297 C298 1.366 . S
C297 C299 1.388 . S
C298 C297 1.366 . S
C298 C302 1.385 . S
C299 H274 0.951 1_545 S
C299 C297 1.388 . S
C299 C300 1.366 . S
C300 C299 1.366 . S
C300 C301 1.414 . S
C300 C303 1.499 . S
C301 H275 0.950 . S
C301 C300 1.414 . S
C301 C302 1.374 . S
C302 H276 0.950 . S
C302 C298 1.385 . S
C302 C301 1.374 . S
C303 C300 1.499 . S
C303 C304 1.373 . S
C303 C305 1.389 . S
C304 H277 0.950 . S
C304 C290 1.377 1_545 S
C304 C303 1.373 . S
C305 C289 1.377 1_545 S
C305 C303 1.389 . S
C305 C306 1.524 1_554 S
C306 C305 1.524 1_556 S
C306 C307 1.397 . S
C306 C311 1.363 1_545 S
C307 H278 0.950 1_556 S
C307 C306 1.397 . S
C307 C308 1.334 . S
C308 H279 0.950 . S
C308 C307 1.334 . S
C308 C309 1.287 . S
C309 C308 1.287 . S
C309 C310 1.524 1_545 S
C309 H312 0.999 . S
C310 H280 0.950 . S
C310 C309 1.524 1_565 S
C310 C311 1.415 . S
C311 H281 0.950 . S
C311 C306 1.363 1_565 S
C311 C310 1.415 . S
H312 C309 0.999 . S
H313 C294 0.913 . S
H314 C332 0.951 . S
H315 C334 0.951 . S
H316 C336 0.950 . S
H317 C337 0.950 . S
H318 C339 0.950 . S
H319 C342 0.950 . S
H320 C343 0.950 . S
H321 C345 0.950 . S
H322 C346 0.950 . S
H323 C347 0.951 . S
H324 C349 0.951 . S
H325 C351 0.950 . S
H326 C352 0.950 . S
H327 C354 0.950 . S
H328 C357 0.950 . S
H329 C358 0.950 . S
H330 C360 0.950 . S
H331 C361 0.950 . S
C332 H314 0.951 . S
C332 C333 1.366 . S
C332 C334 1.388 . S
C333 C332 1.366 . S
C333 C337 1.385 . S
C334 H315 0.951 . S
C334 C332 1.388 . S
C334 C335 1.366 . S
C335 C334 1.366 . S
C335 C336 1.414 . S
C335 C338 1.499 . S
C336 H316 0.950 . S
C336 C335 1.414 . S
C336 C337 1.374 . S
C337 H317 0.950 . S
C337 C333 1.385 . S
C337 C336 1.374 . S
C338 C335 1.499 . S
C338 C339 1.373 . S
C338 C340 1.389 . S
C339 H318 0.950 . S
C339 C338 1.373 . S
C339 C355 1.377 . S
C340 C338 1.389 . S
C340 C341 1.524 . S
C340 C354 1.377 . S
C341 C340 1.524 . S
C341 C342 1.397 . S
C341 C346 1.363 . S
C342 H319 0.950 . S
C342 C341 1.397 . S
C342 C343 1.334 . S
C343 H320 0.950 . S
C343 C342 1.334 . S
C343 C344 1.287 . S
C344 C343 1.287 . S
C344 C345 1.524 . S
C344 H363 0.913 . S
C345 H321 0.950 . S
C345 C344 1.524 . S
C345 C346 1.415 . S
C346 H322 0.950 . S
C346 C341 1.363 . S
C346 C345 1.415 . S
C347 H323 0.951 . S
C347 C348 1.366 . S
C347 C349 1.388 . S
C348 C347 1.366 . S
C348 C352 1.385 . S
C349 H324 0.951 . S
C349 C347 1.388 . S
C349 C350 1.366 . S
C350 C349 1.366 . S
C350 C351 1.414 . S
C350 C353 1.499 . S
C351 H325 0.950 . S
C351 C350 1.414 . S
C351 C352 1.374 . S
C352 H326 0.950 . S
C352 C348 1.385 . S
C352 C351 1.374 . S
C353 C350 1.499 . S
C353 C354 1.373 . S
C353 C355 1.389 . S
C354 H327 0.950 . S
C354 C340 1.377 . S
C354 C353 1.373 . S
C355 C339 1.377 . S
C355 C353 1.389 . S
C355 C356 1.524 . S
C356 C355 1.524 . S
C356 C357 1.397 . S
C356 C361 1.363 . S
C357 H328 0.950 . S
C357 C356 1.397 . S
C357 C358 1.334 . S
C358 H329 0.950 . S
C358 C357 1.334 . S
C358 C359 1.287 . S
C359 C358 1.287 . S
C359 C360 1.524 . S
C359 H362 0.999 . S
C360 H330 0.950 . S
C360 C359 1.524 . S
C360 C361 1.415 . S
C361 H331 0.950 . S
C361 C356 1.363 . S
C361 C360 1.415 . S
H362 C359 0.999 . S
H363 C344 0.913 . S
H364 C382 0.951 . S
H365 C384 0.951 . S
H366 C386 0.950 1_565 S
H367 C387 0.950 . S
H368 C389 0.950 . S
H369 C392 0.950 . S
H370 C393 0.950 . S
H371 C395 0.950 . S
H372 C396 0.950 . S
H373 C397 0.951 . S
H374 C399 0.951 . S
H375 C401 0.950 1_545 S
H376 C402 0.950 . S
H377 C404 0.950 . S
H378 C407 0.950 . S
H379 C408 0.948 1_554 S
H380 C410 0.950 . S
H381 C411 0.950 . S
C382 H364 0.951 . S
C382 C383 1.366 . S
C382 C384 1.388 . S
C383 C382 1.366 . S
C383 C387 1.385 . S
C384 H365 0.951 . S
C384 C382 1.388 . S
C384 C385 1.366 . S
C385 C384 1.366 . S
C385 C386 1.414 . S
C385 C388 1.499 . S
C386 H366 0.950 1_545 S
C386 C385 1.414 . S
C386 C387 1.374 . S
C387 H367 0.950 . S
C387 C383 1.385 . S
C387 C386 1.374 . S
C388 C385 1.499 . S
C388 C389 1.373 1_545 S
C388 C390 1.389 . S
C389 H368 0.950 . S
C389 C388 1.373 1_565 S
C389 C405 1.377 . S
C390 C388 1.389 . S
C390 C391 1.524 . S
C390 C404 1.377 . S
C391 C390 1.524 . S
C391 C392 1.397 . S
C391 C396 1.363 . S
C392 H369 0.950 . S
C392 C391 1.397 . S
C392 C393 1.334 . S
C393 H370 0.950 . S
C393 C392 1.334 . S
C393 C394 1.287 . S
C394 C393 1.287 . S
C394 C395 1.524 . S
C394 H413 0.913 . S
C395 H371 0.950 . S
C395 C394 1.524 . S
C395 C396 1.415 . S
C396 H372 0.950 . S
C396 C391 1.363 . S
C396 C395 1.415 . S
C397 H373 0.951 . S
C397 C398 1.366 . S
C397 C399 1.388 . S
C398 C397 1.366 . S
C398 C402 1.385 . S
C399 H374 0.951 . S
C399 C397 1.388 . S
C399 C400 1.366 . S
C400 C399 1.366 . S
C400 C401 1.414 . S
C400 C403 1.499 . S
C401 H375 0.950 1_565 S
C401 C400 1.414 . S
C401 C402 1.374 . S
C402 H376 0.950 . S
C402 C398 1.385 . S
C402 C401 1.374 . S
C403 C400 1.499 . S
C403 C404 1.373 1_565 S
C403 C405 1.389 . S
C404 H377 0.950 . S
C404 C390 1.377 . S
C404 C403 1.373 1_545 S
C405 C389 1.377 . S
C405 C403 1.389 . S
C405 C406 1.524 . S
C406 C405 1.524 . S
C406 C407 1.397 . S
C406 C411 1.363 . S
C407 H378 0.950 . S
C407 C406 1.397 . S
C407 C408 1.335 . S
C408 H379 0.948 1_556 S
C408 C407 1.335 . S
C408 C409 1.288 . S
C409 C408 1.288 . S
C409 C410 1.524 . S
C409 H412 0.999 . S
C410 H380 0.950 . S
C410 C409 1.524 . S
C410 C411 1.415 . S
C411 H381 0.950 . S
C411 C406 1.363 . S
C411 C410 1.415 . S
H412 C409 0.999 . S
H413 C394 0.913 . S
H414 C432 0.951 . S
H415 C434 0.951 . S
H416 C436 0.950 . S
H417 C437 0.950 . S
H418 C439 0.950 . S
H419 C442 0.950 . S
H420 C443 0.950 . S
H421 C445 0.950 . S
H422 C446 0.950 . S
H423 C447 0.951 . S
H424 C449 0.951 . S
H425 C451 0.950 . S
H426 C452 0.950 . S
H427 C454 0.950 . S
H428 C457 0.950 . S
H429 C458 0.950 . S
H430 C460 0.950 . S
H431 C461 0.950 . S
C432 H414 0.951 . S
C432 C433 1.366 . S
C432 C434 1.388 . S
C433 C432 1.366 . S
C433 C437 1.385 . S
C434 H415 0.951 . S
C434 C432 1.388 . S
C434 C435 1.366 . S
C435 C434 1.366 . S
C435 C436 1.414 . S
C435 C438 1.499 . S
C436 H416 0.950 . S
C436 C435 1.414 . S
C436 C437 1.374 . S
C437 H417 0.950 . S
C437 C433 1.385 . S
C437 C436 1.374 . S
C438 C435 1.499 . S
C438 C439 1.373 . S
C438 C440 1.389 . S
C439 H418 0.950 . S
C439 C438 1.373 . S
C439 C455 1.377 . S
C440 C438 1.389 . S
C440 C441 1.524 . S
C440 C454 1.377 . S
C441 C440 1.524 . S
C441 C442 1.397 . S
C441 C446 1.363 . S
C442 H419 0.950 . S
C442 C441 1.397 . S
C442 C443 1.334 . S
C443 H420 0.950 . S
C443 C442 1.334 . S
C443 C444 1.287 . S
C444 C443 1.287 . S
C444 C445 1.524 . S
C444 H463 0.913 . S
C445 H421 0.950 . S
C445 C444 1.524 . S
C445 C446 1.415 . S
C446 H422 0.950 . S
C446 C441 1.363 . S
C446 C445 1.415 . S
C447 H423 0.951 . S
C447 C448 1.366 . S
C447 C449 1.388 . S
C448 C447 1.366 . S
C448 C452 1.385 . S
C449 H424 0.951 . S
C449 C447 1.388 . S
C449 C450 1.366 . S
C450 C449 1.366 . S
C450 C451 1.414 . S
C450 C453 1.499 . S
C451 H425 0.950 . S
C451 C450 1.414 . S
C451 C452 1.374 . S
C452 H426 0.950 . S
C452 C448 1.385 . S
C452 C451 1.374 . S
C453 C450 1.499 . S
C453 C454 1.373 . S
C453 C455 1.389 . S
C454 H427 0.950 . S
C454 C440 1.377 . S
C454 C453 1.373 . S
C455 C439 1.377 . S
C455 C453 1.389 . S
C455 C456 1.524 . S
C456 C455 1.524 . S
C456 C457 1.397 . S
C456 C461 1.363 . S
C457 H428 0.950 . S
C457 C456 1.397 . S
C457 C458 1.334 . S
C458 H429 0.950 . S
C458 C457 1.334 . S
C458 C459 1.287 . S
C459 C458 1.287 . S
C459 C460 1.524 . S
C459 H462 0.999 . S
C460 H430 0.950 . S
C460 C459 1.524 . S
C460 C461 1.415 . S
C461 H431 0.950 . S
C461 C456 1.363 . S
C461 C460 1.415 . S
H462 C459 0.999 . S
H463 C444 0.913 . S
H464 C482 0.951 . S
H465 C484 0.951 . S
H466 C486 0.950 1_545 S
H467 C487 0.950 . S
H468 C489 0.950 . S
H469 C492 0.950 . S
H470 C493 0.950 . S
H471 C495 0.950 . S
H472 C496 0.950 . S
H473 C497 0.951 . S
H474 C499 0.951 . S
H475 C501 0.950 1_565 S
H476 C502 0.950 . S
H477 C504 0.950 . S
H478 C507 0.950 . S
H479 C508 0.950 . S
H480 C510 0.950 . S
H481 C511 0.950 . S
C482 H464 0.951 . S
C482 C483 1.366 . S
C482 C484 1.388 . S
C483 C482 1.366 . S
C483 C487 1.385 . S
C484 H465 0.951 . S
C484 C482 1.388 . S
C484 C485 1.366 . S
C485 C484 1.366 . S
C485 C486 1.414 . S
C485 C488 1.499 . S
C486 H466 0.950 1_565 S
C486 C485 1.414 . S
C486 C487 1.374 . S
C487 H467 0.950 . S
C487 C483 1.385 . S
C487 C486 1.374 . S
C488 C485 1.499 . S
C488 C489 1.373 1_565 S
C488 C490 1.389 1_556 S
C489 H468 0.950 . S
C489 C488 1.373 1_545 S
C489 C505 1.377 1_655 S
C490 C488 1.389 1_554 S
C490 C491 1.524 . S
C490 C504 1.377 1_655 S
C491 C490 1.524 . S
C491 C492 1.397 . S
C491 C496 1.363 1_655 S
C492 H469 0.950 . S
C492 C491 1.397 . S
C492 C493 1.334 . S
C493 H470 0.950 . S
C493 C492 1.334 . S
C493 C494 1.287 . S
C494 C493 1.287 . S
C494 C495 1.524 1_655 S
C494 H513 0.913 . S
C495 H471 0.950 . S
C495 C494 1.524 1_455 S
C495 C496 1.415 . S
C496 H472 0.950 . S
C496 C491 1.363 1_455 S
C496 C495 1.415 . S
C497 H473 0.951 . S
C497 C498 1.366 . S
C497 C499 1.388 . S
C498 C497 1.366 . S
C498 C502 1.385 . S
C499 H474 0.951 . S
C499 C497 1.388 . S
C499 C500 1.366 . S
C500 C499 1.366 . S
C500 C501 1.414 . S
C500 C503 1.499 . S
C501 H475 0.950 1_545 S
C501 C500 1.414 . S
C501 C502 1.374 . S
C502 H476 0.950 . S
C502 C498 1.385 . S
C502 C501 1.374 . S
C503 C500 1.499 . S
C503 C504 1.373 1_545 S
C503 C505 1.389 1_554 S
C504 H477 0.950 . S
C504 C490 1.377 1_455 S
C504 C503 1.373 1_565 S
C505 C489 1.377 1_455 S
C505 C503 1.389 1_556 S
C505 C506 1.524 . S
C506 C505 1.524 . S
C506 C507 1.397 . S
C506 C511 1.363 1_455 S
C507 H478 0.950 . S
C507 C506 1.397 . S
C507 C508 1.334 . S
C508 H479 0.950 . S
C508 C507 1.334 . S
C508 C509 1.287 . S
C509 C508 1.287 . S
C509 C510 1.524 1_455 S
C509 H512 0.999 . S
C510 H480 0.950 . S
C510 C509 1.524 1_655 S
C510 C511 1.415 . S
C511 H481 0.950 . S
C511 C506 1.363 1_655 S
C511 C510 1.415 . S
H512 C509 0.999 . S
H513 C494 0.913 . S
H514 C532 0.951 . S
H515 C534 0.951 . S
H516 C536 0.950 . S
H517 C537 0.950 1_556 S
H518 C539 0.950 . S
H519 C542 0.950 1_556 S
H520 C543 0.950 . S
H521 C545 0.950 . S
H522 C546 0.950 . S
H523 C547 0.951 . S
H524 C549 0.951 . S
H525 C551 0.950 . S
H526 C552 0.950 1_554 S
H527 C554 0.950 . S
H528 C557 0.950 1_554 S
H529 C558 0.950 . S
H530 C560 0.950 . S
H531 C561 0.950 . S
C532 H514 0.951 . S
C532 C533 1.366 . S
C532 C534 1.388 . S
C533 C532 1.366 . S
C533 C537 1.385 . S
C534 H515 0.951 . S
C534 C532 1.388 . S
C534 C535 1.366 . S
C535 C534 1.366 . S
C535 C536 1.414 1_554 S
C535 C538 1.499 . S
C536 H516 0.950 . S
C536 C535 1.414 1_556 S
C536 C537 1.374 1_556 S
C537 H517 0.950 1_554 S
C537 C533 1.385 . S
C537 C536 1.374 1_554 S
C538 C535 1.499 . S
C538 C539 1.373 1_554 S
C538 C540 1.389 1_565 S
C539 H518 0.950 . S
C539 C538 1.373 1_556 S
C539 C555 1.377 . S
C540 C538 1.389 1_545 S
C540 C541 1.524 . S
C540 C554 1.377 . S
C541 C540 1.524 . S
C541 C542 1.397 . S
C541 C546 1.363 . S
C542 H519 0.950 1_554 S
C542 C541 1.397 . S
C542 C543 1.334 . S
C543 H520 0.950 . S
C543 C542 1.334 . S
C543 C544 1.287 . S
C544 C543 1.287 . S
C544 C545 1.524 . S
C544 H563 0.913 . S
C545 H521 0.950 . S
C545 C544 1.524 . S
C545 C546 1.415 . S
C546 H522 0.950 . S
C546 C541 1.363 . S
C546 C545 1.415 . S
C547 H523 0.951 . S
C547 C548 1.366 . S
C547 C549 1.388 . S
C548 C547 1.366 . S
C548 C552 1.385 . S
C549 H524 0.951 . S
C549 C547 1.388 . S
C549 C550 1.366 . S
C550 C549 1.366 . S
C550 C551 1.414 1_556 S
C550 C553 1.499 . S
C551 H525 0.950 . S
C551 C550 1.414 1_554 S
C551 C552 1.374 1_554 S
C552 H526 0.950 1_556 S
C552 C548 1.385 . S
C552 C551 1.374 1_556 S
C553 C550 1.499 . S
C553 C554 1.373 1_556 S
C553 C555 1.389 1_545 S
C554 H527 0.950 . S
C554 C540 1.377 . S
C554 C553 1.373 1_554 S
C555 C539 1.377 . S
C555 C553 1.389 1_565 S
C555 C556 1.524 . S
C556 C555 1.524 . S
C556 C557 1.397 . S
C556 C561 1.363 . S
C557 H528 0.950 1_556 S
C557 C556 1.397 . S
C557 C558 1.334 . S
C558 H529 0.950 . S
C558 C557 1.334 . S
C558 C559 1.287 . S
C559 C558 1.287 . S
C559 C560 1.524 . S
C559 H562 0.999 . S
C560 H530 0.950 . S
C560 C559 1.524 . S
C560 C561 1.415 . S
C561 H531 0.950 . S
C561 C556 1.363 . S
C561 C560 1.415 . S
H562 C559 0.999 . S
H563 C544 0.913 . S
H564 C582 0.951 . S
H565 C584 0.951 . S
H566 C586 0.950 . S
H567 C587 0.950 . S
H568 C589 0.950 . S
H569 C592 0.950 . S
H570 C593 0.950 . S
H571 C595 0.950 . S
H572 C596 0.950 . S
H573 C597 0.951 . S
H574 C599 0.951 . S
H575 C601 0.950 . S
H576 C602 0.950 . S
H577 C604 0.950 . S
H578 C607 0.950 . S
H579 C608 0.950 . S
H580 C610 0.950 . S
H581 C611 0.950 . S
C582 H564 0.951 . S
C582 C583 1.366 . S
C582 C584 1.388 . S
C583 C582 1.366 . S
C583 C587 1.385 . S
C584 H565 0.951 . S
C584 C582 1.388 . S
C584 C585 1.366 . S
C585 C584 1.366 . S
C585 C586 1.414 . S
C585 C588 1.499 . S
C586 H566 0.950 . S
C586 C585 1.414 . S
C586 C587 1.374 . S
C587 H567 0.950 . S
C587 C583 1.385 . S
C587 C586 1.374 . S
C588 C585 1.499 . S
C588 C589 1.373 . S
C588 C590 1.389 . S
C589 H568 0.950 . S
C589 C588 1.373 . S
C589 C605 1.377 1_455 S
C590 C588 1.389 . S
C590 C591 1.524 . S
C590 C604 1.377 1_455 S
C591 C590 1.524 . S
C591 C592 1.397 . S
C591 C596 1.363 . S
C592 H569 0.950 . S
C592 C591 1.397 . S
C592 C593 1.334 . S
C593 H570 0.950 . S
C593 C592 1.334 . S
C593 C594 1.287 . S
C594 C593 1.287 . S
C594 C595 1.524 . S
C594 H613 0.913 . S
C595 H571 0.950 . S
C595 C594 1.524 . S
C595 C596 1.415 . S
C596 H572 0.950 . S
C596 C591 1.363 . S
C596 C595 1.415 . S
C597 H573 0.951 . S
C597 C598 1.366 . S
C597 C599 1.388 . S
C598 C597 1.366 . S
C598 C602 1.385 . S
C599 H574 0.951 . S
C599 C597 1.388 . S
C599 C600 1.366 . S
C600 C599 1.366 . S
C600 C601 1.414 . S
C600 C603 1.499 . S
C601 H575 0.950 . S
C601 C600 1.414 . S
C601 C602 1.374 . S
C602 H576 0.950 . S
C602 C598 1.385 . S
C602 C601 1.374 . S
C603 C600 1.499 . S
C603 C604 1.373 . S
C603 C605 1.389 . S
C604 H577 0.950 . S
C604 C590 1.377 1_655 S
C604 C603 1.373 . S
C605 C589 1.377 1_655 S
C605 C603 1.389 . S
C605 C606 1.524 . S
C606 C605 1.524 . S
C606 C607 1.397 . S
C606 C611 1.363 . S
C607 H578 0.950 . S
C607 C606 1.397 . S
C607 C608 1.334 . S
C608 H579 0.950 . S
C608 C607 1.334 . S
C608 C609 1.287 . S
C609 C608 1.287 . S
C609 C610 1.524 . S
C609 H612 0.999 . S
C610 H580 0.950 . S
C610 C609 1.524 . S
C610 C611 1.415 . S
C611 H581 0.950 . S
C611 C606 1.363 . S
C611 C610 1.415 . S
H612 C609 0.999 . S
H613 C594 0.913 . S
H614 C632 0.951 . S
H615 C634 0.951 . S
H616 C636 0.950 . S
H617 C637 0.950 . S
H618 C639 0.950 . S
H619 C642 0.950 . S
H620 C643 0.950 . S
H621 C645 0.950 . S
H622 C646 0.950 . S
H623 C647 0.951 . S
H624 C649 0.951 . S
H625 C651 0.950 . S
H626 C652 0.950 . S
H627 C654 0.950 . S
H628 C657 0.950 . S
H629 C658 0.950 . S
H630 C660 0.950 . S
H631 C661 0.950 . S
C632 H614 0.951 . S
C632 C633 1.366 . S
C632 C634 1.388 . S
C633 C632 1.366 . S
C633 C637 1.385 . S
C634 H615 0.951 . S
C634 C632 1.388 . S
C634 C635 1.366 . S
C635 C634 1.366 . S
C635 C636 1.414 . S
C635 C638 1.499 . S
C636 H616 0.950 . S
C636 C635 1.414 . S
C636 C637 1.374 . S
C637 H617 0.950 . S
C637 C633 1.385 . S
C637 C636 1.374 . S
C638 C635 1.499 . S
C638 C639 1.373 . S
C638 C640 1.389 . S
C639 H618 0.950 . S
C639 C638 1.373 . S
C639 C655 1.377 . S
C640 C638 1.389 . S
C640 C641 1.524 . S
C640 C654 1.377 . S
C641 C640 1.524 . S
C641 C642 1.397 . S
C641 C646 1.363 . S
C642 H619 0.950 . S
C642 C641 1.397 . S
C642 C643 1.334 . S
C643 H620 0.950 . S
C643 C642 1.334 . S
C643 C644 1.287 . S
C644 C643 1.287 . S
C644 C645 1.524 . S
C644 H663 0.913 . S
C645 H621 0.950 . S
C645 C644 1.524 . S
C645 C646 1.415 . S
C646 H622 0.950 . S
C646 C641 1.363 . S
C646 C645 1.415 . S
C647 H623 0.951 . S
C647 C648 1.366 . S
C647 C649 1.388 . S
C648 C647 1.366 . S
C648 C652 1.385 . S
C649 H624 0.951 . S
C649 C647 1.388 . S
C649 C650 1.366 . S
C650 C649 1.366 . S
C650 C651 1.414 . S
C650 C653 1.499 . S
C651 H625 0.950 . S
C651 C650 1.414 . S
C651 C652 1.374 . S
C652 H626 0.950 . S
C652 C648 1.385 . S
C652 C651 1.374 . S
C653 C650 1.499 . S
C653 C654 1.373 . S
C653 C655 1.389 . S
C654 H627 0.950 . S
C654 C640 1.377 . S
C654 C653 1.373 . S
C655 C639 1.377 . S
C655 C653 1.389 . S
C655 C656 1.524 . S
C656 C655 1.524 . S
C656 C657 1.397 . S
C656 C661 1.363 . S
C657 H628 0.950 . S
C657 C656 1.397 . S
C657 C658 1.334 . S
C658 H629 0.950 . S
C658 C657 1.334 . S
C658 C659 1.287 . S
C659 C658 1.287 . S
C659 C660 1.524 . S
C659 H662 0.999 . S
C660 H630 0.950 . S
C660 C659 1.524 . S
C660 C661 1.415 . S
C661 H631 0.950 . S
C661 C656 1.363 . S
C661 C660 1.415 . S
H662 C659 0.999 . S
H663 C644 0.913 . S
H664 C682 0.951 . S
H665 C684 0.951 . S
H666 C686 0.950 . S
H667 C687 0.950 . S
H668 C689 0.950 . S
H669 C692 0.950 . S
H670 C693 0.950 . S
H671 C695 0.950 . S
H672 C696 0.950 . S
H673 C697 0.951 . S
H674 C699 0.951 . S
H675 C701 0.950 . S
H676 C702 0.950 . S
H677 C704 0.950 . S
H678 C707 0.950 . S
H679 C708 0.950 . S
H680 C710 0.950 . S
H681 C711 0.950 . S
C682 H664 0.951 . S
C682 C683 1.366 . S
C682 C684 1.388 . S
C683 C682 1.366 . S
C683 C687 1.385 . S
C684 H665 0.951 . S
C684 C682 1.388 . S
C684 C685 1.366 . S
C685 C684 1.366 . S
C685 C686 1.414 . S
C685 C688 1.499 . S
C686 H666 0.950 . S
C686 C685 1.414 . S
C686 C687 1.374 . S
C687 H667 0.950 . S
C687 C683 1.385 . S
C687 C686 1.374 . S
C688 C685 1.499 . S
C688 C689 1.373 . S
C688 C690 1.389 . S
C689 H668 0.950 . S
C689 C688 1.373 . S
C689 C705 1.377 . S
C690 C688 1.389 . S
C690 C691 1.524 . S
C690 C704 1.377 . S
C691 C690 1.524 . S
C691 C692 1.397 . S
C691 C696 1.363 . S
C692 H669 0.950 . S
C692 C691 1.397 . S
C692 C693 1.334 . S
C693 H670 0.950 . S
C693 C692 1.334 . S
C693 C694 1.287 . S
C694 C693 1.287 . S
C694 C695 1.524 . S
C694 H713 0.913 . S
C695 H671 0.950 . S
C695 C694 1.524 . S
C695 C696 1.415 . S
C696 H672 0.950 . S
C696 C691 1.363 . S
C696 C695 1.415 . S
C697 H673 0.951 . S
C697 C698 1.366 . S
C697 C699 1.388 . S
C698 C697 1.366 . S
C698 C702 1.385 . S
C699 H674 0.951 . S
C699 C697 1.388 . S
C699 C700 1.366 . S
C700 C699 1.366 . S
C700 C701 1.414 . S
C700 C703 1.499 . S
C701 H675 0.950 . S
C701 C700 1.414 . S
C701 C702 1.374 . S
C702 H676 0.950 . S
C702 C698 1.385 . S
C702 C701 1.374 . S
C703 C700 1.499 . S
C703 C704 1.373 . S
C703 C705 1.389 . S
C704 H677 0.950 . S
C704 C690 1.377 . S
C704 C703 1.373 . S
C705 C689 1.377 . S
C705 C703 1.389 . S
C705 C706 1.524 . S
C706 C705 1.524 . S
C706 C707 1.397 . S
C706 C711 1.363 . S
C707 H678 0.950 . S
C707 C706 1.397 . S
C707 C708 1.334 . S
C708 H679 0.950 . S
C708 C707 1.334 . S
C708 C709 1.287 . S
C709 C708 1.287 . S
C709 C710 1.524 . S
C709 H712 0.999 . S
C710 H680 0.950 . S
C710 C709 1.524 . S
C710 C711 1.415 . S
C711 H681 0.950 . S
C711 C706 1.363 . S
C711 C710 1.415 . S
H712 C709 0.999 . S
H713 C694 0.913 . S
H714 C732 0.951 . S
H715 C734 0.951 . S
H716 C736 0.950 . S
H717 C737 0.950 . S
H718 C739 0.950 . S
H719 C742 0.950 . S
H720 C743 0.950 . S
H721 C745 0.950 . S
H722 C746 0.950 . S
H723 C747 0.951 . S
H724 C749 0.951 . S
H725 C751 0.950 . S
H726 C752 0.950 . S
H727 C754 0.950 . S
H728 C757 0.950 . S
H729 C758 0.950 . S
H730 C760 0.950 . S
H731 C761 0.950 . S
C732 H714 0.951 . S
C732 C733 1.366 . S
C732 C734 1.388 . S
C733 C732 1.366 . S
C733 C737 1.385 . S
C734 H715 0.951 . S
C734 C732 1.388 . S
C734 C735 1.366 . S
C735 C734 1.366 . S
C735 C736 1.414 . S
C735 C738 1.499 . S
C736 H716 0.950 . S
C736 C735 1.414 . S
C736 C737 1.374 . S
C737 H717 0.950 . S
C737 C733 1.385 . S
C737 C736 1.374 . S
C738 C735 1.499 . S
C738 C739 1.373 . S
C738 C740 1.389 . S
C739 H718 0.950 . S
C739 C738 1.373 . S
C739 C755 1.377 . S
C740 C738 1.389 . S
C740 C741 1.524 . S
C740 C754 1.377 . S
C741 C740 1.524 . S
C741 C742 1.397 . S
C741 C746 1.363 . S
C742 H719 0.950 . S
C742 C741 1.397 . S
C742 C743 1.334 . S
C743 H720 0.950 . S
C743 C742 1.334 . S
C743 C744 1.287 . S
C744 C743 1.287 . S
C744 C745 1.524 . S
C744 H763 0.913 . S
C745 H721 0.950 . S
C745 C744 1.524 . S
C745 C746 1.415 . S
C746 H722 0.950 . S
C746 C741 1.363 . S
C746 C745 1.415 . S
C747 H723 0.951 . S
C747 C748 1.366 . S
C747 C749 1.388 . S
C748 C747 1.366 . S
C748 C752 1.385 . S
C749 H724 0.951 . S
C749 C747 1.388 . S
C749 C750 1.366 . S
C750 C749 1.366 . S
C750 C751 1.414 . S
C750 C753 1.499 . S
C751 H725 0.950 . S
C751 C750 1.414 . S
C751 C752 1.374 . S
C752 H726 0.950 . S
C752 C748 1.385 . S
C752 C751 1.374 . S
C753 C750 1.499 . S
C753 C754 1.373 . S
C753 C755 1.389 . S
C754 H727 0.950 . S
C754 C740 1.377 . S
C754 C753 1.373 . S
C755 C739 1.377 . S
C755 C753 1.389 . S
C755 C756 1.524 . S
C756 C755 1.524 . S
C756 C757 1.397 . S
C756 C761 1.363 . S
C757 H728 0.950 . S
C757 C756 1.397 . S
C757 C758 1.334 . S
C758 H729 0.950 . S
C758 C757 1.334 . S
C758 C759 1.287 . S
C759 C758 1.287 . S
C759 C760 1.524 . S
C759 H762 0.999 . S
C760 H730 0.950 . S
C760 C759 1.524 . S
C760 C761 1.415 . S
C761 H731 0.950 . S
C761 C756 1.363 . S
C761 C760 1.415 . S
H762 C759 0.999 . S
H763 C744 0.913 . S
H764 C782 0.951 . S
H765 C784 0.951 . S
H766 C786 0.950 . S
H767 C787 0.950 . S
H768 C789 0.950 . S
H769 C792 0.950 . S
H770 C793 0.950 . S
H771 C795 0.950 . S
H772 C796 0.950 . S
H773 C797 0.951 . S
H774 C799 0.951 . S
H775 C801 0.950 . S
H776 C802 0.950 . S
H777 C804 0.950 . S
H778 C807 0.950 . S
H779 C808 0.950 . S
H780 C810 0.950 . S
H781 C811 0.950 . S
C782 H764 0.951 . S
C782 C783 1.366 . S
C782 C784 1.388 . S
C783 C782 1.366 . S
C783 C787 1.385 . S
C784 H765 0.951 . S
C784 C782 1.388 . S
C784 C785 1.366 . S
C785 C784 1.366 . S
C785 C786 1.414 . S
C785 C788 1.499 . S
C786 H766 0.950 . S
C786 C785 1.414 . S
C786 C787 1.374 . S
C787 H767 0.950 . S
C787 C783 1.385 . S
C787 C786 1.374 . S
C788 C785 1.499 . S
C788 C789 1.373 . S
C788 C790 1.389 . S
C789 H768 0.950 . S
C789 C788 1.373 . S
C789 C805 1.377 . S
C790 C788 1.389 . S
C790 C791 1.524 . S
C790 C804 1.377 . S
C791 C790 1.524 . S
C791 C792 1.397 . S
C791 C796 1.363 . S
C792 H769 0.950 . S
C792 C791 1.397 . S
C792 C793 1.334 . S
C793 H770 0.950 . S
C793 C792 1.334 . S
C793 C794 1.287 . S
C794 C793 1.287 . S
C794 C795 1.524 . S
C794 H813 0.913 . S
C795 H771 0.950 . S
C795 C794 1.524 . S
C795 C796 1.415 . S
C796 H772 0.950 . S
C796 C791 1.363 . S
C796 C795 1.415 . S
C797 H773 0.951 . S
C797 C798 1.366 . S
C797 C799 1.388 . S
C798 C797 1.366 . S
C798 C802 1.385 . S
C799 H774 0.951 . S
C799 C797 1.388 . S
C799 C800 1.366 . S
C800 C799 1.366 . S
C800 C801 1.414 . S
C800 C803 1.499 1_554 S
C801 H775 0.950 . S
C801 C800 1.414 . S
C801 C802 1.374 . S
C802 H776 0.950 . S
C802 C798 1.385 . S
C802 C801 1.374 . S
C803 C800 1.499 1_556 S
C803 C804 1.373 . S
C803 C805 1.389 . S
C804 H777 0.950 . S
C804 C790 1.377 . S
C804 C803 1.373 . S
C805 C789 1.377 . S
C805 C803 1.389 . S
C805 C806 1.524 . S
C806 C805 1.524 . S
C806 C807 1.397 . S
C806 C811 1.363 . S
C807 H778 0.950 . S
C807 C806 1.397 . S
C807 C808 1.334 1_556 S
C808 H779 0.950 . S
C808 C807 1.334 1_554 S
C808 C809 1.287 1_554 S
C809 C808 1.287 1_556 S
C809 C810 1.524 . S
C809 H812 0.999 1_556 S
C810 H780 0.950 . S
C810 C809 1.524 . S
C810 C811 1.415 . S
C811 H781 0.950 . S
C811 C806 1.363 . S
C811 C810 1.415 . S
H812 C809 0.999 1_554 S
H813 C794 0.913 . S
H814 C832 0.951 . S
H815 C834 0.951 . S
H816 C836 0.950 . S
H817 C837 0.950 . S
H818 C839 0.950 . S
H819 C842 0.950 . S
H820 C843 0.950 . S
H821 C845 0.950 . S
H822 C846 0.950 . S
H823 C847 0.951 . S
H824 C849 0.951 . S
H825 C851 0.950 . S
H826 C852 0.950 . S
H827 C854 0.950 . S
H828 C857 0.950 . S
H829 C858 0.950 . S
H830 C860 0.950 . S
H831 C861 0.950 . S
C832 H814 0.951 . S
C832 C833 1.366 . S
C832 C834 1.388 . S
C833 C832 1.366 . S
C833 C837 1.385 . S
C834 H815 0.951 . S
C834 C832 1.388 . S
C834 C835 1.366 . S
C835 C834 1.366 . S
C835 C836 1.414 . S
C835 C838 1.499 1_554 S
C836 H816 0.950 . S
C836 C835 1.414 . S
C836 C837 1.374 . S
C837 H817 0.950 . S
C837 C833 1.385 . S
C837 C836 1.374 . S
C838 C835 1.499 1_556 S
C838 C839 1.373 . S
C838 C840 1.389 . S
C839 H818 0.950 . S
C839 C838 1.373 . S
C839 C855 1.377 . S
C840 C838 1.389 . S
C840 C841 1.524 . S
C840 C854 1.377 . S
C841 C840 1.524 . S
C841 C842 1.397 . S
C841 C846 1.363 . S
C842 H819 0.950 . S
C842 C841 1.397 . S
C842 C843 1.334 1_556 S
C843 H820 0.950 . S
C843 C842 1.334 1_554 S
C843 C844 1.287 1_554 S
C844 C843 1.287 1_556 S
C844 C845 1.524 . S
C844 H863 0.913 1_556 S
C845 H821 0.950 . S
C845 C844 1.524 . S
C845 C846 1.415 . S
C846 H822 0.950 . S
C846 C841 1.363 . S
C846 C845 1.415 . S
C847 H823 0.951 . S
C847 C848 1.366 . S
C847 C849 1.388 . S
C848 C847 1.366 . S
C848 C852 1.385 . S
C849 H824 0.951 . S
C849 C847 1.388 . S
C849 C850 1.366 . S
C850 C849 1.366 . S
C850 C851 1.414 . S
C850 C853 1.499 . S
C851 H825 0.950 . S
C851 C850 1.414 . S
C851 C852 1.374 . S
C852 H826 0.950 . S
C852 C848 1.385 . S
C852 C851 1.374 . S
C853 C850 1.499 . S
C853 C854 1.373 . S
C853 C855 1.389 . S
C854 H827 0.950 . S
C854 C840 1.377 . S
C854 C853 1.373 . S
C855 C839 1.377 . S
C855 C853 1.389 . S
C855 C856 1.524 . S
C856 C855 1.524 . S
C856 C857 1.397 . S
C856 C861 1.363 . S
C857 H828 0.950 . S
C857 C856 1.397 . S
C857 C858 1.334 . S
C858 H829 0.950 . S
C858 C857 1.334 . S
C858 C859 1.287 . S
C859 C858 1.287 . S
C859 C860 1.524 . S
C859 H862 0.999 . S
C860 H830 0.950 . S
C860 C859 1.524 . S
C860 C861 1.415 . S
C861 H831 0.950 . S
C861 C856 1.363 . S
C861 C860 1.415 . S
H862 C859 0.999 . S
H863 C844 0.913 1_554 S
H864 C882 0.951 . S
H865 C884 0.951 . S
H866 C886 0.950 . S
H867 C887 0.950 . S
H868 C889 0.950 . S
H869 C892 0.950 . S
H870 C893 0.950 . S
H871 C895 0.950 . S
H872 C896 0.950 . S
H873 C897 0.951 . S
H874 C899 0.951 . S
H875 C901 0.950 . S
H876 C902 0.950 . S
H877 C904 0.950 . S
H878 C907 0.950 . S
H879 C908 0.950 . S
H880 C910 0.950 . S
H881 C911 0.950 . S
C882 H864 0.951 . S
C882 C883 1.366 . S
C882 C884 1.388 . S
C883 C882 1.366 . S
C883 C887 1.385 . S
C884 H865 0.951 . S
C884 C882 1.388 . S
C884 C885 1.366 . S
C885 C884 1.366 . S
C885 C886 1.414 . S
C885 C888 1.499 . S
C886 H866 0.950 . S
C886 C885 1.414 . S
C886 C887 1.374 . S
C887 H867 0.950 . S
C887 C883 1.385 . S
C887 C886 1.374 . S
C888 C885 1.499 . S
C888 C889 1.373 . S
C888 C890 1.389 . S
C889 H868 0.950 . S
C889 C888 1.373 . S
C889 C905 1.377 . S
C890 C888 1.389 . S
C890 C891 1.524 . S
C890 C904 1.377 . S
C891 C890 1.524 . S
C891 C892 1.397 . S
C891 C896 1.363 . S
C892 H869 0.950 . S
C892 C891 1.397 . S
C892 C893 1.334 . S
C893 H870 0.950 . S
C893 C892 1.334 . S
C893 C894 1.287 . S
C894 C893 1.287 . S
C894 C895 1.524 . S
C894 H913 0.913 . S
C895 H871 0.950 . S
C895 C894 1.524 . S
C895 C896 1.415 . S
C896 H872 0.950 . S
C896 C891 1.363 . S
C896 C895 1.415 . S
C897 H873 0.951 . S
C897 C898 1.366 . S
C897 C899 1.388 . S
C898 C897 1.366 . S
C898 C902 1.385 . S
C899 H874 0.951 . S
C899 C897 1.388 . S
C899 C900 1.366 . S
C900 C899 1.366 . S
C900 C901 1.414 . S
C900 C903 1.499 . S
C901 H875 0.950 . S
C901 C900 1.414 . S
C901 C902 1.374 . S
C902 H876 0.950 . S
C902 C898 1.385 . S
C902 C901 1.374 . S
C903 C900 1.499 . S
C903 C904 1.373 . S
C903 C905 1.389 . S
C904 H877 0.950 . S
C904 C890 1.377 . S
C904 C903 1.373 . S
C905 C889 1.377 . S
C905 C903 1.389 . S
C905 C906 1.524 . S
C906 C905 1.524 . S
C906 C907 1.397 . S
C906 C911 1.363 . S
C907 H878 0.950 . S
C907 C906 1.397 . S
C907 C908 1.334 . S
C908 H879 0.950 . S
C908 C907 1.334 . S
C908 C909 1.287 . S
C909 C908 1.287 . S
C909 C910 1.524 . S
C909 H912 0.999 . S
C910 H880 0.950 . S
C910 C909 1.524 . S
C910 C911 1.415 . S
C911 H881 0.950 . S
C911 C906 1.363 . S
C911 C910 1.415 . S
H912 C909 0.999 . S
H913 C894 0.913 . S
H914 C932 0.951 . S
H915 C934 0.951 . S
H916 C936 0.950 . S
H917 C937 0.950 . S
H918 C939 0.950 . S
H919 C942 0.950 . S
H920 C943 0.950 . S
H921 C945 0.950 1_565 S
H922 C946 0.950 . S
H923 C947 0.951 . S
H924 C949 0.951 . S
H925 C951 0.950 . S
H926 C952 0.950 . S
H927 C954 0.950 . S
H928 C957 0.950 . S
H929 C958 0.950 . S
H930 C960 0.950 . S
H931 C961 0.950 . S
C932 H914 0.951 . S
C932 C933 1.366 . S
C932 C934 1.388 . S
C933 C932 1.366 . S
C933 C937 1.385 . S
C934 H915 0.951 . S
C934 C932 1.388 . S
C934 C935 1.366 . S
C935 C934 1.366 . S
C935 C936 1.414 . S
C935 C938 1.499 . S
C936 H916 0.950 . S
C936 C935 1.414 . S
C936 C937 1.374 . S
C937 H917 0.950 . S
C937 C933 1.385 . S
C937 C936 1.374 . S
C938 C935 1.499 . S
C938 C939 1.373 . S
C938 C940 1.389 . S
C939 H918 0.950 . S
C939 C938 1.373 . S
C939 C955 1.377 . S
C940 C938 1.389 . S
C940 C941 1.524 . S
C940 C954 1.377 . S
C941 C940 1.524 . S
C941 C942 1.397 . S
C941 C946 1.363 . S
C942 H919 0.950 . S
C942 C941 1.397 . S
C942 C943 1.334 . S
C943 H920 0.950 . S
C943 C942 1.334 . S
C943 C944 1.287 . S
C944 C943 1.287 . S
C944 C945 1.524 . S
C944 H963 0.913 1_545 S
C945 H921 0.950 1_545 S
C945 C944 1.524 . S
C945 C946 1.415 . S
C946 H922 0.950 . S
C946 C941 1.363 . S
C946 C945 1.415 . S
C947 H923 0.951 . S
C947 C948 1.366 . S
C947 C949 1.388 . S
C948 C947 1.366 . S
C948 C952 1.385 . S
C949 H924 0.951 . S
C949 C947 1.388 . S
C949 C950 1.366 . S
C950 C949 1.366 . S
C950 C951 1.414 . S
C950 C953 1.499 . S
C951 H925 0.950 . S
C951 C950 1.414 . S
C951 C952 1.374 . S
C952 H926 0.950 . S
C952 C948 1.385 . S
C952 C951 1.374 . S
C953 C950 1.499 . S
C953 C954 1.373 . S
C953 C955 1.389 . S
C954 H927 0.950 . S
C954 C940 1.377 . S
C954 C953 1.373 . S
C955 C939 1.377 . S
C955 C953 1.389 . S
C955 C956 1.524 . S
C956 C955 1.524 . S
C956 C957 1.397 . S
C956 C961 1.363 . S
C957 H928 0.950 . S
C957 C956 1.397 . S
C957 C958 1.334 . S
C958 H929 0.950 . S
C958 C957 1.334 . S
C958 C959 1.287 . S
C959 C958 1.287 . S
C959 C960 1.524 . S
C959 H962 0.999 . S
C960 H930 0.950 . S
C960 C959 1.524 . S
C960 C961 1.415 . S
C961 H931 0.950 . S
C961 C956 1.363 . S
C961 C960 1.415 . S
H962 C959 0.999 . S
H963 C944 0.913 1_565 S
H964 C982 0.951 . S
H965 C984 0.951 . S
H966 C986 0.950 . S
H967 C987 0.950 . S
H968 C989 0.950 . S
H969 C992 0.950 . S
H970 C993 0.950 . S
H971 C995 0.950 . S
H972 C996 0.950 . S
H973 C997 0.951 . S
H974 C999 0.951 . S
H975 C1001 0.950 . S
H976 C1002 0.950 . S
H977 C1004 0.950 . S
H978 C1007 0.950 . S
H979 C1008 0.950 . S
H980 C1010 0.950 . S
H981 C1011 0.950 . S
C982 H964 0.951 . S
C982 C983 1.366 . S
C982 C984 1.388 . S
C983 C982 1.366 . S
C983 C987 1.385 . S
C984 H965 0.951 . S
C984 C982 1.388 . S
C984 C985 1.366 . S
C985 C984 1.366 . S
C985 C986 1.414 . S
C985 C988 1.499 . S
C986 H966 0.950 . S
C986 C985 1.414 . S
C986 C987 1.374 . S
C987 H967 0.950 . S
C987 C983 1.385 . S
C987 C986 1.374 . S
C988 C985 1.499 . S
C988 C989 1.373 . S
C988 C990 1.389 . S
C989 H968 0.950 . S
C989 C988 1.373 . S
C989 C1005 1.377 . S
C990 C988 1.389 . S
C990 C991 1.524 . S
C990 C1004 1.377 . S
C991 C990 1.524 . S
C991 C992 1.397 . S
C991 C996 1.363 . S
C992 H969 0.950 . S
C992 C991 1.397 . S
C992 C993 1.334 . S
C993 H970 0.950 . S
C993 C992 1.334 . S
C993 C994 1.287 . S
C994 C993 1.287 . S
C994 C995 1.524 . S
C994 H1013 0.913 . S
C995 H971 0.950 . S
C995 C994 1.524 . S
C995 C996 1.415 . S
C996 H972 0.950 . S
C996 C991 1.363 . S
C996 C995 1.415 . S
C997 H973 0.951 . S
C997 C998 1.366 . S
C997 C999 1.388 . S
C998 C997 1.366 . S
C998 C1002 1.385 . S
C999 H974 0.951 . S
C999 C997 1.388 . S
C999 C1000 1.366 . S
C1000 C999 1.366 . S
C1000 C1001 1.414 . S
C1000 C1003 1.499 1_556 S
C1001 H975 0.950 . S
C1001 C1000 1.414 . S
C1001 C1002 1.374 . S
C1002 H976 0.950 . S
C1002 C998 1.385 . S
C1002 C1001 1.374 . S
C1003 C1000 1.499 1_554 S
C1003 C1004 1.373 . S
C1003 C1005 1.389 . S
C1004 H977 0.950 . S
C1004 C990 1.377 . S
C1004 C1003 1.373 . S
C1005 C989 1.377 . S
C1005 C1003 1.389 . S
C1005 C1006 1.524 . S
C1006 C1005 1.524 . S
C1006 C1007 1.397 . S
C1006 C1011 1.363 . S
C1007 H978 0.950 . S
C1007 C1006 1.397 . S
C1007 C1008 1.334 1_554 S
C1008 H979 0.950 . S
C1008 C1007 1.334 1_556 S
C1008 C1009 1.287 1_556 S
C1009 C1008 1.287 1_554 S
C1009 C1010 1.524 . S
C1009 H1012 0.999 1_554 S
C1010 H980 0.950 . S
C1010 C1009 1.524 . S
C1010 C1011 1.415 . S
C1011 H981 0.950 . S
C1011 C1006 1.363 . S
C1011 C1010 1.415 . S
H1012 C1009 0.999 1_556 S
H1013 C994 0.913 . S
H1014 C1032 0.951 . S
H1015 C1034 0.951 . S
H1016 C1036 0.950 . S
H1017 C1037 0.950 . S
H1018 C1039 0.950 . S
H1019 C1042 0.950 . S
H1020 C1043 0.950 . S
H1021 C1045 0.950 . S
H1022 C1046 0.950 . S
H1023 C1047 0.951 . S
H1024 C1049 0.951 . S
H1025 C1051 0.950 . S
H1026 C1052 0.950 . S
H1027 C1054 0.950 . S
H1028 C1057 0.950 . S
H1029 C1058 0.950 . S
H1030 C1060 0.950 . S
H1031 C1061 0.950 . S
C1032 H1014 0.951 . S
C1032 C1033 1.366 . S
C1032 C1034 1.388 . S
C1033 C1032 1.366 . S
C1033 C1037 1.385 . S
C1034 H1015 0.951 . S
C1034 C1032 1.388 . S
C1034 C1035 1.366 . S
C1035 C1034 1.366 . S
C1035 C1036 1.414 . S
C1035 C1038 1.499 . S
C1036 H1016 0.950 . S
C1036 C1035 1.414 . S
C1036 C1037 1.374 . S
C1037 H1017 0.950 . S
C1037 C1033 1.385 . S
C1037 C1036 1.374 . S
C1038 C1035 1.499 . S
C1038 C1039 1.373 . S
C1038 C1040 1.389 . S
C1039 H1018 0.950 . S
C1039 C1038 1.373 . S
C1039 C1055 1.377 . S
C1040 C1038 1.389 . S
C1040 C1041 1.524 . S
C1040 C1054 1.377 . S
C1041 C1040 1.524 . S
C1041 C1042 1.397 . S
C1041 C1046 1.363 . S
C1042 H1019 0.950 . S
C1042 C1041 1.397 . S
C1042 C1043 1.334 . S
C1043 H1020 0.950 . S
C1043 C1042 1.334 . S
C1043 C1044 1.287 . S
C1044 C1043 1.287 . S
C1044 C1045 1.524 . S
C1044 H1063 0.913 . S
C1045 H1021 0.950 . S
C1045 C1044 1.524 . S
C1045 C1046 1.415 . S
C1046 H1022 0.950 . S
C1046 C1041 1.363 . S
C1046 C1045 1.415 . S
C1047 H1023 0.951 . S
C1047 C1048 1.366 . S
C1047 C1049 1.388 . S
C1048 C1047 1.366 . S
C1048 C1052 1.385 . S
C1049 H1024 0.951 . S
C1049 C1047 1.388 . S
C1049 C1050 1.366 . S
C1050 C1049 1.366 . S
C1050 C1051 1.414 . S
C1050 C1053 1.499 1_556 S
C1051 H1025 0.950 . S
C1051 C1050 1.414 . S
C1051 C1052 1.374 . S
C1052 H1026 0.950 . S
C1052 C1048 1.385 . S
C1052 C1051 1.374 . S
C1053 C1050 1.499 1_554 S
C1053 C1054 1.373 . S
C1053 C1055 1.389 . S
C1054 H1027 0.950 . S
C1054 C1040 1.377 . S
C1054 C1053 1.373 . S
C1055 C1039 1.377 . S
C1055 C1053 1.389 . S
C1055 C1056 1.524 . S
C1056 C1055 1.524 . S
C1056 C1057 1.397 . S
C1056 C1061 1.363 . S
C1057 H1028 0.950 . S
C1057 C1056 1.397 . S
C1057 C1058 1.334 1_554 S
C1058 H1029 0.950 . S
C1058 C1057 1.334 1_556 S
C1058 C1059 1.287 1_556 S
C1059 C1058 1.287 1_554 S
C1059 C1060 1.524 . S
C1059 H1062 0.999 1_554 S
C1060 H1030 0.950 . S
C1060 C1059 1.524 . S
C1060 C1061 1.415 . S
C1061 H1031 0.950 . S
C1061 C1056 1.363 . S
C1061 C1060 1.415 . S
H1062 C1059 0.999 1_556 S
H1063 C1044 0.913 . S
H1064 C1082 0.951 . S
H1065 C1084 0.951 . S
H1066 C1086 0.950 . S
H1067 C1087 0.950 . S
H1068 C1089 0.950 . S
H1069 C1092 0.950 . S
H1070 C1093 0.950 . S
H1071 C1095 0.950 . S
H1072 C1096 0.950 . S
H1073 C1097 0.951 . S
H1074 C1099 0.951 . S
H1075 C1101 0.950 . S
H1076 C1102 0.950 . S
H1077 C1104 0.950 . S
H1078 C1107 0.950 . S
H1079 C1108 0.950 . S
H1080 C1110 0.950 . S
H1081 C1111 0.950 . S
C1082 H1064 0.951 . S
C1082 C1083 1.366 . S
C1082 C1084 1.388 . S
C1083 C1082 1.366 . S
C1083 C1087 1.385 . S
C1084 H1065 0.951 . S
C1084 C1082 1.388 . S
C1084 C1085 1.366 . S
C1085 C1084 1.366 . S
C1085 C1086 1.414 . S
C1085 C1088 1.499 . S
C1086 H1066 0.950 . S
C1086 C1085 1.414 . S
C1086 C1087 1.374 . S
C1087 H1067 0.950 . S
C1087 C1083 1.385 . S
C1087 C1086 1.374 . S
C1088 C1085 1.499 . S
C1088 C1089 1.373 . S
C1088 C1090 1.389 . S
C1089 H1068 0.950 . S
C1089 C1088 1.373 . S
C1089 C1105 1.377 . S
C1090 C1088 1.389 . S
C1090 C1091 1.524 . S
C1090 C1104 1.377 . S
C1091 C1090 1.524 . S
C1091 C1092 1.397 . S
C1091 C1096 1.363 . S
C1092 H1069 0.950 . S
C1092 C1091 1.397 . S
C1092 C1093 1.334 . S
C1093 H1070 0.950 . S
C1093 C1092 1.334 . S
C1093 C1094 1.287 . S
C1094 C1093 1.287 . S
C1094 C1095 1.524 . S
C1094 H1113 0.913 . S
C1095 H1071 0.950 . S
C1095 C1094 1.524 . S
C1095 C1096 1.415 . S
C1096 H1072 0.950 . S
C1096 C1091 1.363 . S
C1096 C1095 1.415 . S
C1097 H1073 0.951 . S
C1097 C1098 1.366 . S
C1097 C1099 1.388 . S
C1098 C1097 1.366 . S
C1098 C1102 1.385 . S
C1099 H1074 0.951 . S
C1099 C1097 1.388 . S
C1099 C1100 1.366 . S
C1100 C1099 1.366 . S
C1100 C1101 1.414 . S
C1100 C1103 1.499 . S
C1101 H1075 0.950 . S
C1101 C1100 1.414 . S
C1101 C1102 1.374 . S
C1102 H1076 0.950 . S
C1102 C1098 1.385 . S
C1102 C1101 1.374 . S
C1103 C1100 1.499 . S
C1103 C1104 1.373 . S
C1103 C1105 1.389 . S
C1104 H1077 0.950 . S
C1104 C1090 1.377 . S
C1104 C1103 1.373 . S
C1105 C1089 1.377 . S
C1105 C1103 1.389 . S
C1105 C1106 1.524 . S
C1106 C1105 1.524 . S
C1106 C1107 1.397 . S
C1106 C1111 1.363 . S
C1107 H1078 0.950 . S
C1107 C1106 1.397 . S
C1107 C1108 1.334 . S
C1108 H1079 0.950 . S
C1108 C1107 1.334 . S
C1108 C1109 1.287 . S
C1109 C1108 1.287 . S
C1109 C1110 1.524 . S
C1109 H1112 0.999 . S
C1110 H1080 0.950 . S
C1110 C1109 1.524 . S
C1110 C1111 1.415 . S
C1111 H1081 0.950 . S
C1111 C1106 1.363 . S
C1111 C1110 1.415 . S
H1112 C1109 0.999 . S
H1113 C1094 0.913 . S
H1114 C1132 0.951 . S
H1115 C1134 0.951 . S
H1116 C1136 0.950 . S
H1117 C1137 0.950 . S
H1118 C1139 0.950 . S
H1119 C1142 0.950 . S
H1120 C1143 0.950 . S
H1121 C1145 0.950 . S
H1122 C1146 0.950 . S
H1123 C1147 0.951 . S
H1124 C1149 0.951 . S
H1125 C1151 0.950 . S
H1126 C1152 0.950 . S
H1127 C1154 0.950 . S
H1128 C1157 0.950 . S
H1129 C1158 0.950 . S
H1130 C1160 0.950 . S
H1131 C1161 0.950 . S
C1132 H1114 0.951 . S
C1132 C1133 1.366 . S
C1132 C1134 1.388 . S
C1133 C1132 1.366 . S
C1133 C1137 1.385 . S
C1134 H1115 0.951 . S
C1134 C1132 1.388 . S
C1134 C1135 1.366 . S
C1135 C1134 1.366 . S
C1135 C1136 1.414 . S
C1135 C1138 1.499 . S
C1136 H1116 0.950 . S
C1136 C1135 1.414 . S
C1136 C1137 1.374 . S
C1137 H1117 0.950 . S
C1137 C1133 1.385 . S
C1137 C1136 1.374 . S
C1138 C1135 1.499 . S
C1138 C1139 1.373 . S
C1138 C1140 1.389 . S
C1139 H1118 0.950 . S
C1139 C1138 1.373 . S
C1139 C1155 1.377 . S
C1140 C1138 1.389 . S
C1140 C1141 1.524 . S
C1140 C1154 1.377 . S
C1141 C1140 1.524 . S
C1141 C1142 1.397 . S
C1141 C1146 1.363 . S
C1142 H1119 0.950 . S
C1142 C1141 1.397 . S
C1142 C1143 1.334 . S
C1143 H1120 0.950 . S
C1143 C1142 1.334 . S
C1143 C1144 1.287 . S
C1144 C1143 1.287 . S
C1144 C1145 1.524 . S
C1144 H1163 0.913 . S
C1145 H1121 0.950 . S
C1145 C1144 1.524 . S
C1145 C1146 1.415 . S
C1146 H1122 0.950 . S
C1146 C1141 1.363 . S
C1146 C1145 1.415 . S
C1147 H1123 0.951 . S
C1147 C1148 1.366 . S
C1147 C1149 1.388 . S
C1148 C1147 1.366 . S
C1148 C1152 1.385 . S
C1149 H1124 0.951 . S
C1149 C1147 1.388 . S
C1149 C1150 1.366 . S
C1150 C1149 1.366 . S
C1150 C1151 1.414 . S
C1150 C1153 1.499 . S
C1151 H1125 0.950 . S
C1151 C1150 1.414 . S
C1151 C1152 1.374 . S
C1152 H1126 0.950 . S
C1152 C1148 1.385 . S
C1152 C1151 1.374 . S
C1153 C1150 1.499 . S
C1153 C1154 1.373 . S
C1153 C1155 1.389 . S
C1154 H1127 0.950 . S
C1154 C1140 1.377 . S
C1154 C1153 1.373 . S
C1155 C1139 1.377 . S
C1155 C1153 1.389 . S
C1155 C1156 1.524 . S
C1156 C1155 1.524 . S
C1156 C1157 1.397 . S
C1156 C1161 1.363 . S
C1157 H1128 0.950 . S
C1157 C1156 1.397 . S
C1157 C1158 1.334 . S
C1158 H1129 0.950 . S
C1158 C1157 1.334 . S
C1158 C1159 1.287 . S
C1159 C1158 1.287 . S
C1159 C1160 1.524 . S
C1159 H1162 0.999 . S
C1160 H1130 0.950 . S
C1160 C1159 1.524 . S
C1160 C1161 1.415 . S
C1161 H1131 0.950 . S
C1161 C1156 1.363 . S
C1161 C1160 1.415 . S
H1162 C1159 0.999 . S
H1163 C1144 0.913 . S
H1164 C1182 0.951 . S
H1165 C1184 0.951 . S
H1166 C1186 0.950 . S
H1167 C1187 0.950 . S
H1168 C1189 0.950 . S
H1169 C1192 0.950 . S
H1170 C1193 0.950 . S
H1171 C1195 0.950 . S
H1172 C1196 0.950 . S
H1173 C1197 0.951 . S
H1174 C1199 0.951 . S
H1175 C1201 0.950 . S
H1176 C1202 0.950 . S
H1177 C1204 0.950 . S
H1178 C1207 0.950 . S
H1179 C1208 0.950 . S
H1180 C1210 0.950 . S
H1181 C1211 0.950 . S
C1182 H1164 0.951 . S
C1182 C1183 1.366 . S
C1182 C1184 1.388 . S
C1183 C1182 1.366 . S
C1183 C1187 1.385 . S
C1184 H1165 0.951 . S
C1184 C1182 1.388 . S
C1184 C1185 1.366 . S
C1185 C1184 1.366 . S
C1185 C1186 1.414 . S
C1185 C1188 1.499 . S
C1186 H1166 0.950 . S
C1186 C1185 1.414 . S
C1186 C1187 1.374 . S
C1187 H1167 0.950 . S
C1187 C1183 1.385 . S
C1187 C1186 1.374 . S
C1188 C1185 1.499 . S
C1188 C1189 1.373 . S
C1188 C1190 1.389 . S
C1189 H1168 0.950 . S
C1189 C1188 1.373 . S
C1189 C1205 1.377 . S
C1190 C1188 1.389 . S
C1190 C1191 1.524 . S
C1190 C1204 1.377 . S
C1191 C1190 1.524 . S
C1191 C1192 1.397 . S
C1191 C1196 1.363 . S
C1192 H1169 0.950 . S
C1192 C1191 1.397 . S
C1192 C1193 1.334 . S
C1193 H1170 0.950 . S
C1193 C1192 1.334 . S
C1193 C1194 1.287 . S
C1194 C1193 1.287 . S
C1194 C1195 1.524 . S
C1194 H1213 0.913 . S
C1195 H1171 0.950 . S
C1195 C1194 1.524 . S
C1195 C1196 1.415 . S
C1196 H1172 0.950 . S
C1196 C1191 1.363 . S
C1196 C1195 1.415 . S
C1197 H1173 0.951 . S
C1197 C1198 1.366 . S
C1197 C1199 1.388 . S
C1198 C1197 1.366 . S
C1198 C1202 1.385 . S
C1199 H1174 0.951 . S
C1199 C1197 1.388 . S
C1199 C1200 1.366 . S
C1200 C1199 1.366 . S
C1200 C1201 1.414 . S
C1200 C1203 1.499 . S
C1201 H1175 0.950 . S
C1201 C1200 1.414 . S
C1201 C1202 1.374 . S
C1202 H1176 0.950 . S
C1202 C1198 1.385 . S
C1202 C1201 1.374 . S
C1203 C1200 1.499 . S
C1203 C1204 1.373 . S
C1203 C1205 1.389 . S
C1204 H1177 0.950 . S
C1204 C1190 1.377 . S
C1204 C1203 1.373 . S
C1205 C1189 1.377 . S
C1205 C1203 1.389 . S
C1205 C1206 1.524 . S
C1206 C1205 1.524 . S
C1206 C1207 1.397 . S
C1206 C1211 1.363 . S
C1207 H1178 0.950 . S
C1207 C1206 1.397 . S
C1207 C1208 1.334 . S
C1208 H1179 0.950 . S
C1208 C1207 1.334 . S
C1208 C1209 1.287 . S
C1209 C1208 1.287 . S
C1209 C1210 1.524 . S
C1209 H1212 0.999 . S
C1210 H1180 0.950 . S
C1210 C1209 1.524 . S
C1210 C1211 1.415 . S
C1211 H1181 0.950 . S
C1211 C1206 1.363 . S
C1211 C1210 1.415 . S
H1212 C1209 0.999 . S
H1213 C1194 0.913 . S
H1214 C1232 0.951 . S
H1215 C1234 0.951 . S
H1216 C1236 0.950 . S
H1217 C1237 0.950 . S
H1218 C1239 0.950 . S
H1219 C1242 0.950 . S
H1220 C1243 0.950 . S
H1221 C1245 0.950 . S
H1222 C1246 0.950 . S
H1223 C1247 0.951 . S
H1224 C1249 0.951 . S
H1225 C1251 0.950 . S
H1226 C1252 0.950 . S
H1227 C1254 0.950 . S
H1228 C1257 0.950 . S
H1229 C1258 0.950 . S
H1230 C1260 0.950 . S
H1231 C1261 0.950 . S
C1232 H1214 0.951 . S
C1232 C1233 1.366 . S
C1232 C1234 1.388 . S
C1233 C1232 1.366 . S
C1233 C1237 1.385 . S
C1234 H1215 0.951 . S
C1234 C1232 1.388 . S
C1234 C1235 1.366 . S
C1235 C1234 1.366 . S
C1235 C1236 1.414 . S
C1235 C1238 1.499 . S
C1236 H1216 0.950 . S
C1236 C1235 1.414 . S
C1236 C1237 1.374 . S
C1237 H1217 0.950 . S
C1237 C1233 1.385 . S
C1237 C1236 1.374 . S
C1238 C1235 1.499 . S
C1238 C1239 1.373 . S
C1238 C1240 1.389 . S
C1239 H1218 0.950 . S
C1239 C1238 1.373 . S
C1239 C1255 1.377 . S
C1240 C1238 1.389 . S
C1240 C1241 1.524 . S
C1240 C1254 1.377 . S
C1241 C1240 1.524 . S
C1241 C1242 1.397 . S
C1241 C1246 1.363 . S
C1242 H1219 0.950 . S
C1242 C1241 1.397 . S
C1242 C1243 1.334 . S
C1243 H1220 0.950 . S
C1243 C1242 1.334 . S
C1243 C1244 1.287 . S
C1244 C1243 1.287 . S
C1244 C1245 1.524 . S
C1244 H1263 0.913 . S
C1245 H1221 0.950 . S
C1245 C1244 1.524 . S
C1245 C1246 1.415 . S
C1246 H1222 0.950 . S
C1246 C1241 1.363 . S
C1246 C1245 1.415 . S
C1247 H1223 0.951 . S
C1247 C1248 1.366 . S
C1247 C1249 1.388 . S
C1248 C1247 1.366 . S
C1248 C1252 1.385 . S
C1249 H1224 0.951 . S
C1249 C1247 1.388 . S
C1249 C1250 1.366 . S
C1250 C1249 1.366 . S
C1250 C1251 1.414 . S
C1250 C1253 1.499 . S
C1251 H1225 0.950 . S
C1251 C1250 1.414 . S
C1251 C1252 1.374 . S
C1252 H1226 0.950 . S
C1252 C1248 1.385 . S
C1252 C1251 1.374 . S
C1253 C1250 1.499 . S
C1253 C1254 1.373 . S
C1253 C1255 1.389 . S
C1254 H1227 0.950 . S
C1254 C1240 1.377 . S
C1254 C1253 1.373 . S
C1255 C1239 1.377 . S
C1255 C1253 1.389 . S
C1255 C1256 1.524 . S
C1256 C1255 1.524 . S
C1256 C1257 1.397 . S
C1256 C1261 1.363 . S
C1257 H1228 0.950 . S
C1257 C1256 1.397 . S
C1257 C1258 1.334 . S
C1258 H1229 0.950 . S
C1258 C1257 1.334 . S
C1258 C1259 1.287 . S
C1259 C1258 1.287 . S
C1259 C1260 1.524 . S
C1259 H1262 0.999 . S
C1260 H1230 0.950 . S
C1260 C1259 1.524 . S
C1260 C1261 1.415 . S
C1261 H1231 0.950 . S
C1261 C1256 1.363 . S
C1261 C1260 1.415 . S
H1262 C1259 0.999 . S
H1263 C1244 0.913 . S
C283 C50 1.510 . S
C298 C17 1.510 . S
C333 C83 1.510 . S
C348 C116 1.510 . S
C383 C182 1.510 . S
C398 C149 1.510 . S
C433 C215 1.510 . S
C448 C248 1.510 . S
C483 C160 1.521 . S
C498 C28 1.521 . S
C533 C61 1.521 . S
C548 C193 1.521 . S
C583 C94 1.521 . S
C598 C226 1.521 . S
C633 C127 1.521 . S
C648 C259 1.521 . S
C683 N5 1.325 . S
C698 N14 1.320 . S
C733 N47 1.320 . S
C748 N38 1.325 . S
C783 N71 1.325 . S
C798 N80 1.320 . S
C833 N113 1.320 . S
C848 N104 1.325 . S
C883 N137 1.325 . S
C898 N146 1.320 . S
C933 N179 1.320 . S
C948 N170 1.325 . S
C983 N203 1.324 . S
C998 N212 1.320 . S
C1033 N236 1.325 . S
C1048 N245 1.320 . S
C1083 C8 1.525 . S
C1098 C74 1.525 . S
C1133 C41 1.525 . S
C1148 C107 1.525 . S
C1183 C140 1.525 . S
C1198 C206 1.525 . S
C1233 C173 1.525 . S
C1248 C239 1.525 . S
