# Generated by pormake.
# Topology rob, (6)-cn, num edge types: 1
# Building blocks:
#     Node 0, Type 0, BuildingBlock: KUMJIN_clean_sbu_1, # of connection points: 6
#     Node 1, Type 0, BuildingBlock: KUMJIN_clean_sbu_1, # of connection points: 6
#     Node 2, Type 0, BuildingBlock: KUMJIN_clean_sbu_1, # of connection points: 6
#     Node 3, Type 0, BuildingBlock: KUMJIN_clean_sbu_1, # of connection points: 6
#     Edge 4, Type (0, 0), BuildingBlock: OJICUG_clean_linker_0, # of connection points: 2
#     Edge 5, Type (0, 0), BuildingBlock: OJICUG_clean_linker_0, # of connection points: 2
#     Edge 6, Type (0, 0), BuildingBlock: OJICUG_clean_linker_0, # of connection points: 2
#     Edge 7, Type (0, 0), BuildingBlock: OJICUG_clean_linker_0, # of connection points: 2
#     Edge 8, Type (0, 0), BuildingBlock: OJICUG_clean_linker_0, # of connection points: 2
#     Edge 9, Type (0, 0), BuildingBlock: OJICUG_clean_linker_0, # of connection points: 2
#     Edge 10, Type (0, 0), BuildingBlock: OJICUG_clean_linker_0, # of connection points: 2
#     Edge 11, Type (0, 0), BuildingBlock: OJICUG_clean_linker_0, # of connection points: 2
#     Edge 12, Type (0, 0), BuildingBlock: OJICUG_clean_linker_0, # of connection points: 2
#     Edge 13, Type (0, 0), BuildingBlock: OJICUG_clean_linker_0, # of connection points: 2
#     Edge 14, Type (0, 0), BuildingBlock: OJICUG_clean_linker_0, # of connection points: 2
#     Edge 15, Type (0, 0), BuildingBlock: OJICUG_clean_linker_0, # of connection points: 2
# Relax obj value: 0.026
# Max RMSD: 0.137
# Mean RMSD: 0.137
data_MOF--net-rob--node1-KUMJIN_clean_sbu_1--edge1-OJICUG_clean_linker_0
_symmetry_space_group_name_H-M    P1
_symmetry_Int_Tables_number       1
_symmetry_cell_setting            triclinic
loop_
_symmetry_equiv_pos_as_xyz
'x, y, z'
_cell_length_a     15.119817
_cell_length_b     16.72396
_cell_length_c     26.823671
_cell_angle_alpha  109.46816
_cell_angle_beta   90.270529
_cell_angle_gamma 87.691074
loop_
_atom_site_label
_atom_site_type_symbol
_atom_site_fract_x
_atom_site_fract_y
_atom_site_fract_z
_atom_type_partial_charge
Eu0 Eu 0.28269 0.14152 0.94732 0.0
C1 C 0.20979 0.47462 0.1759 0.0
N2 N 0.26968 0.41286 0.15052 0.0
C3 C 0.38774 0.50728 0.18447 0.0
C4 C 0.23569 0.55713 0.20451 0.0
C5 C 0.35818 0.42673 0.15582 0.0
C6 C 0.326 0.57342 0.20813 0.0
C7 C 0.05824 0.51363 0.20317 0.0
C8 C 0.12287 0.45336 0.1754 0.0
C9 C 0.0816 0.59838 0.22607 0.0
C10 C 0.17039 0.62008 0.22812 0.0
Eu11 Eu 0.21252 0.28357 0.09618 0.0
N12 N 0.10147 0.37298 0.14786 0.0
C13 C 0.97278 0.48631 0.20641 0.0
C14 C 0.01895 0.34515 0.15121 0.0
C15 C 0.95322 0.40148 0.18112 0.0
H16 H 0.40584 0.37631 0.13656 0.0
H17 H 0.88745 0.37999 0.18396 0.0
H18 H 0.06144 0.09833 0.93525 0.0
H19 H 0.5591 0.95043 0.8341 0.0
H20 H 0.00365 0.28008 0.12989 0.0
H21 H 0.92219 0.52885 0.22951 0.0
H22 H 0.47928 0.08341 0.88574 0.0
H23 H 0.45787 0.51857 0.1876 0.0
H24 H 0.0319 0.64772 0.241 0.0
H25 H 0.18765 0.68525 0.24798 0.0
H26 H 0.96914 0.97861 0.89383 0.0
H27 H 0.34865 0.63607 0.22973 0.0
H28 H 0.47878 0.81574 0.80751 0.0
N29 N 0.18344 0.03287 0.90327 0.0
C30 C 0.2216 0.95725 0.87416 0.0
C31 C 0.04011 0.97171 0.88752 0.0
C32 C 0.17094 0.88493 0.85194 0.0
C33 C 0.09335 0.04083 0.90992 0.0
C34 C 0.07911 0.89315 0.85877 0.0
N35 N 0.35798 0.02366 0.88677 0.0
C36 C 0.44427 0.02517 0.87266 0.0
C37 C 0.35406 0.87557 0.8359 0.0
C38 C 0.31162 0.95255 0.86597 0.0
C39 C 0.44456 0.87468 0.82703 0.0
C40 C 0.48957 0.95014 0.84318 0.0
H41 H 0.03776 0.8396 0.8421 0.0
H42 H 0.17656 0.75008 0.80845 0.0
H43 H 0.3375 0.74186 0.79341 0.0
O44 O 0.36738 0.20139 0.90557 0.0
O45 O 0.36948 0.10678 1.00946 0.0
O46 O 0.34653 0.23329 0.07021 0.0
O47 O 0.22914 0.18393 0.8843 0.0
O48 O 0.37403 0.25472 0.98448 0.0
O49 O 0.29727 0.35683 0.0532 0.0
O50 O 0.15423 0.2064 0.13878 0.0
O51 O 0.14153 0.33626 0.03648 0.0
O52 O 0.15405 0.20968 0.97539 0.0
O53 O 0.28412 0.25535 0.1598 0.0
O54 O 0.12659 0.16793 0.05275 0.0
O55 O 0.22252 0.06648 0.99687 0.0
C56 C 0.3758 0.156 0.05927 0.0
C57 C 0.33527 0.1617 0.81563 0.0
C58 C 0.44225 0.1434 0.74387 0.0
C59 C 0.40874 0.06318 0.71793 0.0
C60 C 0.29982 0.084 0.78692 0.0
C61 C 0.33658 0.03518 0.73889 0.0
C62 C 0.40526 0.19283 0.79339 0.0
C63 C 0.3598 0.33526 0.01532 0.0
C64 C 0.30692 0.20291 0.87101 0.0
C65 C 0.21364 0.80691 0.82391 0.0
C66 C 0.30527 0.80214 0.81584 0.0
C67 C 0.13713 0.28995 0.98624 0.0
C68 C 0.18307 0.26743 0.23 0.0
C69 C 0.07399 0.28726 0.30144 0.0
C70 C 0.09838 0.37189 0.32286 0.0
C71 C 0.2115 0.34957 0.25643 0.0
C72 C 0.11561 0.2348 0.25379 0.0
C73 C 0.16809 0.40172 0.30143 0.0
C74 C 0.15026 0.08679 0.0272 0.0
C75 C 0.21531 0.22383 0.17488 0.0
H76 H 0.43632 0.02381 0.68036 0.0
H77 H 0.24543 0.05892 0.80243 0.0
H78 H 0.30741 0.97567 0.71862 0.0
H79 H 0.43204 0.25376 0.81494 0.0
H80 H 0.06462 0.41463 0.35731 0.0
H81 H 0.26482 0.37592 0.24102 0.0
H82 H 0.09365 0.17105 0.23458 0.0
H83 H 0.18894 0.4658 0.31921 0.0
Eu84 Eu 0.82577 0.61816 0.96467 0.0
C85 C 0.65303 -0.01632 0.05177 0.0
N86 N 0.69868 0.94717 0.08252 0.0
C87 C 0.78602 0.06922 0.11635 0.0
C88 C 0.67381 0.06434 0.05091 0.0
C89 C 0.76139 -0.01019 0.11683 0.0
C90 C 0.74205 0.10683 0.08323 0.0
C91 C 0.53093 0.97776 0.9925 0.0
C92 C 0.58423 0.94008 0.02163 0.0
C93 C 0.55467 0.05634 0.98887 0.0
C94 C 0.62637 0.09909 0.01753 0.0
Eu95 Eu 0.68032 0.80083 0.05768 0.0
N96 N 0.56832 0.86105 0.02187 0.0
C97 C 0.45464 0.93577 0.9697 0.0
C98 C 0.49433 0.81996 1.00038 0.0
C99 C 0.43538 0.85747 0.97406 0.0
H100 H 0.79791 0.95889 0.14055 0.0
H101 H 0.37598 0.82598 0.95667 0.0
H102 H 0.74016 0.468 0.8594 0.0
H103 H 0.07725 0.58176 0.09978 0.0
H104 H 0.48287 0.7577 1.0024 0.0
H105 H 0.40743 0.96407 0.95083 0.0
H106 H 0.00543 0.65318 0.04203 0.0
H107 H 0.84026 0.10052 0.14054 0.0
H108 H 0.51636 0.08733 0.96635 0.0
H109 H 0.64192 0.16056 0.01538 0.0
H110 H 0.7148 0.31397 0.8333 0.0
H111 H 0.76116 0.16846 0.08301 0.0
H112 H 0.03164 0.43967 0.09282 0.0
N113 N 0.81751 0.47021 0.92601 0.0
C114 C 0.85143 0.42613 0.95608 0.0
C115 C 0.75351 0.34475 0.86795 0.0
C116 C 0.83437 0.33989 0.94504 0.0
C117 C 0.76946 0.43139 0.88205 0.0
C118 C 0.78493 0.29902 0.90009 0.0
N119 N 0.92485 0.54902 1.00426 0.0
C120 C 0.98935 0.58902 0.03793 0.0
C121 C 0.9426 0.42551 0.02967 0.0
C122 C 0.90564 0.46765 0.99724 0.0
C123 C 0.00235 0.46921 0.06773 0.0
C124 C 0.02862 0.54971 0.07108 0.0
H125 H 0.77101 0.23244 0.8898 0.0
H126 H 0.8547 0.23174 0.97191 0.0
H127 H 0.94897 0.30718 0.04663 0.0
O128 O 0.87244 0.69495 0.91977 0.0
O129 O 0.81119 0.63492 0.05304 0.0
O130 O 0.80849 0.77698 0.09171 0.0
O131 O 0.91167 0.56083 0.89525 0.0
O132 O 0.91028 0.73767 1.00077 0.0
O133 O 0.81139 0.85007 0.03783 0.0
O134 O 0.61819 0.74494 0.11058 0.0
O135 O 0.67157 0.78164 0.96967 0.0
O136 O 0.69748 0.63989 0.92783 0.0
O137 O 0.61284 0.88174 0.1301 0.0
O138 O 0.61343 0.67025 0.03528 0.0
O139 O 0.68783 0.56511 0.96806 0.0
C140 C 0.82519 0.70223 0.09439 0.0
C141 C 0.90329 0.62907 0.83015 0.0
C142 C 0.93889 0.6842 0.75902 0.0
C143 C 0.85608 0.65834 0.73726 0.0
C144 C 0.82538 0.59688 0.80425 0.0
C145 C 0.80268 0.61051 0.75748 0.0
C146 C 0.96253 0.66915 0.80621 0.0
C147 C 0.89076 0.8206 0.01825 0.0
C148 C 0.91601 0.63195 0.88497 0.0
C149 C 0.86789 0.29781 0.979 0.0
C150 C 0.92133 0.34093 0.0217 0.0
C151 C 0.66907 0.71402 0.92734 0.0
C152 C 0.61037 0.82504 0.20059 0.0
C153 C 0.575 0.78257 0.27695 0.0
C154 C 0.6555 0.81536 0.29955 0.0
C155 C 0.68631 0.86355 0.22617 0.0
C156 C 0.55318 0.78707 0.22679 0.0
C157 C 0.70812 0.85925 0.27573 0.0
C158 C 0.62148 0.59048 1.00279 0.0
C159 C 0.59361 0.81787 0.1453 0.0
H160 H 0.83269 0.67488 0.70427 0.0
H161 H 0.77993 0.56509 0.8215 0.0
H162 H 0.7419 0.58663 0.73777 0.0
H163 H 0.02463 0.69095 0.82516 0.0
H164 H 0.6775 0.80842 0.33609 0.0
H165 H 0.7303 0.89421 0.20709 0.0
H166 H 0.49294 0.75955 0.20771 0.0
H167 H 0.76761 0.88776 0.2951 0.0
Eu168 Eu 0.31431 0.80442 0.56855 0.0
C169 C 0.08593 0.49992 0.46279 0.0
N170 N 0.16398 0.52253 0.44851 0.0
C171 C 0.22305 0.37948 0.42572 0.0
C172 C 0.07538 0.41662 0.46101 0.0
C173 C 0.22956 0.4624 0.42583 0.0
C174 C 0.14655 0.35722 0.44556 0.0
C175 C 0.92863 0.53197 0.4797 0.0
C176 C 0.01452 0.55901 0.47667 0.0
C177 C 0.9185 0.44906 0.4789 0.0
C178 C 0.99371 0.3946 0.47377 0.0
Eu179 Eu 0.16716 0.66757 0.46143 0.0
N180 N 0.02806 0.64179 0.48497 0.0
C181 C 0.85686 0.59057 0.48667 0.0
C182 C 0.95965 0.70033 0.49302 0.0
C183 C 0.87261 0.67547 0.49367 0.0
H184 H 0.28689 0.47723 0.40721 0.0
H185 H 0.81803 0.72153 0.49931 0.0
H186 H 0.2075 -0.00513 0.63258 0.0
H187 H 0.65803 0.7303 0.51841 0.0
H188 H 0.9724 0.76506 0.49644 0.0
H189 H 0.78958 0.57148 0.48828 0.0
H190 H 0.50186 0.69585 0.52452 0.0
H191 H 0.27587 0.33257 0.4092 0.0
H192 H 0.85407 0.42934 0.48631 0.0
H193 H 0.99143 0.33598 0.48117 0.0
H194 H 0.22756 0.14374 0.63957 0.0
H195 H 0.14085 0.29273 0.4453 0.0
H196 H 0.69585 0.88 0.53579 0.0
N197 N 0.32659 0.94885 0.58789 0.0
C198 C 0.40499 0.96863 0.57242 0.0
C199 C 0.27719 0.09507 0.61996 0.0
C200 C 0.42132 0.05301 0.57971 0.0
C201 C 0.26531 0.01049 0.61479 0.0
C202 C 0.35513 0.1163 0.60098 0.0
N203 N 0.45326 0.82274 0.54129 0.0
C204 C 0.51813 0.76009 0.52961 0.0
C205 C 0.55927 0.9276 0.54955 0.0
C206 C 0.47179 0.90521 0.55263 0.0
C207 C 0.62739 0.86435 0.53778 0.0
C208 C 0.60643 0.77983 0.52724 0.0
H209 H 0.36578 0.18216 0.60584 0.0
H210 H 0.5095 0.13433 0.56492 0.0
H211 H 0.64167 0.02766 0.55049 0.0
O212 O 0.3713 0.73596 0.61968 0.0
O213 O 0.35774 0.78518 0.48102 0.0
O214 O 0.29867 0.66314 0.42439 0.0
O215 O 0.36831 0.87154 0.64536 0.0
O216 O 0.30589 0.66491 0.55669 0.0
O217 O 0.30558 0.60982 0.46914 0.0
O218 O 0.0995 0.72627 0.40872 0.0
O219 O 0.12952 0.69069 0.55096 0.0
O220 O 0.17936 0.82036 0.6016 0.0
O221 O 0.12084 0.59061 0.38398 0.0
O222 O 0.16158 0.80846 0.47209 0.0
O223 O 0.18027 0.87118 0.55967 0.0
C224 C 0.34981 0.72704 0.43322 0.0
C225 C 0.49142 0.80445 0.67294 0.0
C226 C 0.60614 0.76603 0.727 0.0
C227 C 0.6677 0.80959 0.70765 0.0
C228 C 0.55244 0.85573 0.66011 0.0
C229 C 0.64066 0.8547 0.67479 0.0
C230 C 0.5193 0.75821 0.706 0.0
C231 C 0.33844 0.60891 0.51413 0.0
C232 C 0.39777 0.80457 0.65535 0.0
C233 C 0.50388 0.07217 0.56686 0.0
C234 C 0.5751 0.01164 0.55624 0.0
C235 C 0.13422 0.75427 0.59713 0.0
C236 C 0.98713 0.64278 0.35626 0.0
C237 C 0.86625 0.67224 0.30272 0.0
C238 C 0.81322 0.61753 0.31868 0.0
C239 C 0.93724 0.57867 0.36374 0.0
C240 C 0.94908 0.69253 0.32791 0.0
C241 C 0.84912 0.5703 0.34843 0.0
C242 C 0.13899 0.86884 0.51588 0.0
C243 C 0.0807 0.65366 0.37385 0.0
H244 H 0.73564 0.81371 0.72086 0.0
H245 H 0.53193 0.89849 0.63987 0.0
H246 H 0.6872 0.89266 0.66293 0.0
H247 H 0.47111 0.72303 0.71904 0.0
H248 H 0.74668 0.60486 0.30424 0.0
H249 H 0.96604 0.53429 0.38087 0.0
H250 H 0.98948 0.73928 0.32042 0.0
H251 H 0.81023 0.52316 0.35673 0.0
Eu252 Eu 0.80361 0.32002 0.59111 0.0
C253 C 0.51949 0.04 0.44983 0.0
N254 N 0.60905 0.04283 0.44914 0.0
C255 C 0.62512 0.89397 0.43091 0.0
C256 C 0.47899 0.96297 0.44222 0.0
C257 C 0.6621 0.97125 0.43737 0.0
C258 C 0.53368 0.89058 0.43431 0.0
C259 C 0.37553 0.11416 0.46764 0.0
C260 C 0.46859 0.11512 0.46275 0.0
C261 C 0.33498 0.03718 0.45966 0.0
C262 C 0.38665 0.96205 0.44746 0.0
Eu263 Eu 0.66627 0.17276 0.45842 0.0
N264 N 0.51002 0.18904 0.47168 0.0
C265 C 0.32604 0.1908 0.48138 0.0
C266 C 0.46058 0.26244 0.4802 0.0
C267 C 0.36896 0.26536 0.48743 0.0
H268 H 0.73292 0.97388 0.43426 0.0
H269 H 0.33141 0.32495 0.49632 0.0
H270 H 0.67839 0.50584 0.62875 0.0
H271 H 0.1601 0.27155 0.57591 0.0
H272 H 0.48939 0.3179 0.47849 0.0
H273 H 0.25477 0.1928 0.48621 0.0
H274 H 0.00462 0.22955 0.57726 0.0
H275 H 0.66714 0.83786 0.42604 0.0
H276 H 0.26394 0.03527 0.46406 0.0
H277 H 0.35418 0.90448 0.44399 0.0
H278 H 0.69148 0.64776 0.62248 0.0
H279 H 0.50755 0.83457 0.43756 0.0
H280 H 0.19045 0.41922 0.58229 0.0
N281 N 0.81113 0.4647 0.6024 0.0
C282 C 0.89309 0.49078 0.59826 0.0
C283 C 0.74847 0.60404 0.6148 0.0
C284 C 0.90523 0.57416 0.60058 0.0
C285 C 0.74078 0.52218 0.61628 0.0
C286 C 0.83139 0.62988 0.60579 0.0
N287 N 0.9502 0.35155 0.5837 0.0
C288 C 0.01833 0.29382 0.58003 0.0
C289 C 0.05178 0.46 0.5894 0.0
C290 C 0.96505 0.43341 0.5905 0.0
C291 C 0.12279 0.40109 0.58386 0.0
C292 C 0.10591 0.31756 0.57967 0.0
H293 H 0.83848 0.69426 0.60608 0.0
H294 H 0.99468 0.65593 0.58616 0.0
H295 H 0.12915 0.56173 0.58381 0.0
O296 O 0.84926 0.26947 0.65403 0.0
O297 O 0.8754 0.27158 0.5088 0.0
O298 O 0.75455 0.27584 0.46079 0.0
O299 O 0.79405 0.39544 0.67534 0.0
O300 O 0.82692 0.17519 0.56629 0.0
O301 O 0.79827 0.11042 0.47621 0.0
O302 O 0.5958 0.15387 0.38399 0.0
O303 O 0.65064 0.16014 0.5416 0.0
O304 O 0.66203 0.29721 0.58962 0.0
O305 O 0.72673 0.0971 0.38232 0.0
O306 O 0.64848 0.31691 0.47679 0.0
O307 O 0.66836 0.37174 0.56743 0.0
C308 C 0.83873 0.26086 0.46207 0.0
C309 C 0.9121 0.37479 0.72905 0.0
C310 C 0.00372 0.38693 0.80821 0.0
C311 C 0.05734 0.44261 0.79372 0.0
C312 C 0.96434 0.43546 0.71934 0.0
C313 C 0.03747 0.46663 0.75005 0.0
C314 C 0.93155 0.35109 0.77438 0.0
C315 C 0.84333 0.11511 0.52003 0.0
C316 C 0.83634 0.34093 0.69256 0.0
C317 C 0.98969 0.59766 0.59364 0.0
C318 C 0.06377 0.54247 0.58988 0.0
C319 C 0.64404 0.2222 0.58786 0.0
C320 C 0.67882 0.12857 0.30508 0.0
C321 C 0.62834 0.15584 0.22438 0.0
C322 C 0.71248 0.18707 0.22098 0.0
C323 C 0.7647 0.14793 0.29499 0.0
C324 C 0.61126 0.12833 0.26794 0.0
C325 C 0.78075 0.17909 0.25409 0.0
C326 C 0.63682 0.37916 0.52254 0.0
C327 C 0.65993 0.10917 0.35409 0.0
H328 H 0.11564 0.46801 0.816 0.0
H329 H 0.94777 0.46063 0.68851 0.0
H330 H 0.07846 0.51091 0.74036 0.0
H331 H 0.88991 0.30665 0.78354 0.0
H332 H 0.72807 0.21361 0.19063 0.0
H333 H 0.81934 0.14059 0.31937 0.0
H334 H 0.54574 0.10864 0.27359 0.0
H335 H 0.84663 0.19697 0.24771 0.0
C336 C 0.47831 0.54928 0.04013 0.0
C337 C 0.55183 0.52641 1.0048 0.0
H338 H 0.36168 0.51045 0.07104 0.0
C339 C 0.55982 0.43978 0.97296 0.0
H340 H 0.46844 0.61444 0.06584 0.0
C341 C 0.49839 0.37938 0.97629 0.0
C342 C 0.42514 0.40192 1.01173 0.0
H343 H 0.61464 0.41781 0.94545 0.0
H344 H 0.50917 0.31413 0.95093 0.0
C345 C 0.41651 0.48877 0.04337 0.0
C346 C 0.43953 0.53887 0.56479 0.0
C347 C 0.41737 0.55301 0.51713 0.0
H348 H 0.52528 0.47391 0.60432 0.0
C349 C 0.47376 0.51616 0.4732 0.0
H350 H 0.39782 0.56591 0.59953 0.0
C351 C 0.54891 0.46572 0.47654 0.0
C352 C 0.5692 0.44857 0.52355 0.0
H353 H 0.45994 0.52644 0.4361 0.0
H354 H 0.58927 0.4369 0.44136 0.0
C355 C 0.51386 0.48706 0.56788 0.0
C356 C 0.11405 0.93168 0.01708 0.0
C357 C 0.08578 0.01706 0.02503 0.0
H358 H 0.07786 0.80403 1.00995 0.0
C359 C 0.99353 0.03436 0.02821 0.0
H360 H 0.1841 0.91437 1.01332 0.0
C361 C 0.93278 0.97005 0.02381 0.0
C362 C 0.96016 0.886 0.01915 0.0
H363 H 0.96766 0.09758 0.03224 0.0
H364 H 0.86318 -0.01407 0.0227 0.0
C365 C 0.05266 0.86773 1.01485 0.0
C366 C 0.9503 -0.00873 0.47024 0.0
C367 C 0.91699 0.04957 0.51826 0.0
H368 H 0.04559 0.89077 0.43146 0.0
C369 C 0.95832 0.04743 0.56523 0.0
H370 H 0.92151 -0.00938 0.43307 0.0
C371 C 0.02974 -0.01011 0.56434 0.0
C372 C 0.06373 0.93217 0.51643 0.0
H373 H 0.93554 0.09062 0.60325 0.0
H374 H 0.05776 -0.00964 0.60162 0.0
C375 C 0.02228 0.93383 0.46935 0.0
C376 C 0.55954 0.21642 0.15835 0.0
C377 C 0.56156 0.15276 0.18189 0.0
H378 H 0.5067 0.26211 0.09873 0.0
C379 C 0.50485 0.08437 0.16124 0.0
H380 H 0.59999 0.27119 0.17312 0.0
C381 C 0.44764 0.08078 0.11861 0.0
C382 C 0.44728 0.14471 0.09525 0.0
H383 H 0.50494 0.03356 0.17782 0.0
H384 H 0.40236 0.02956 0.10494 0.0
C385 C 0.50501 0.2116 0.11553 0.0
C386 C 0.54095 0.69929 0.33732 0.0
C387 C 0.51162 0.75163 0.3083 0.0
H388 H 0.51178 0.64944 0.39956 0.0
C389 C 0.42363 0.78424 0.31538 0.0
H390 H 0.60775 0.6722 0.33224 0.0
C391 C 0.36938 0.772 0.35421 0.0
C392 C 0.40258 0.7283 0.38727 0.0
H393 H 0.39856 0.82406 0.29342 0.0
H394 H 0.30323 0.80115 0.36059 0.0
C395 C 0.48618 0.68627 0.37584 0.0
C396 C 0.60572 0.66478 0.83555 0.0
C397 C 0.65127 0.72494 0.87583 0.0
H398 H 0.55546 0.62977 0.75629 0.0
C399 C 0.68569 0.79444 0.86569 0.0
H400 H 0.57942 0.61004 0.84244 0.0
C401 C 0.67537 0.80391 0.81636 0.0
C402 C 0.62804 0.74536 0.77587 0.0
H403 H 0.72193 0.84124 0.89582 0.0
H404 H 0.70139 0.8599 0.81103 0.0
C405 C 0.59271 0.67571 0.78624 0.0
C406 C 0.53756 0.26731 0.66384 0.0
C407 C 0.60844 0.21278 0.63733 0.0
H408 H 0.42973 0.28821 0.71902 0.0
C409 C 0.63689 0.14656 0.65562 0.0
H410 H 0.51531 0.32004 0.65137 0.0
C411 C 0.58631 0.12702 0.69359 0.0
C412 C 0.50934 0.17623 0.71583 0.0
H413 H 0.69371 0.10589 0.63756 0.0
H414 H 0.60434 0.07064 0.70331 0.0
C415 C 0.48857 0.24928 0.70273 0.0
C416 C 0.88149 0.75639 0.18688 0.0
C417 C 0.83521 0.69557 0.14755 0.0
H418 H 0.92485 0.80007 0.26696 0.0
C419 C 0.79225 0.6329 0.16071 0.0
H420 H 0.91358 0.80675 0.17783 0.0
C421 C 0.79637 0.63009 0.21205 0.0
C422 C 0.84621 0.68839 0.25169 0.0
H423 H 0.75463 0.58621 0.13136 0.0
H424 H 0.76459 0.57801 0.21898 0.0
C425 C 0.88754 0.75257 0.23818 0.0
C426 C 0.86553 0.29731 0.38034 0.0
C427 C 0.89081 0.24865 0.41242 0.0
H428 H 0.90412 0.3478 0.3204 0.0
C429 C 0.97001 0.19845 0.39963 0.0
H430 H 0.80485 0.33632 0.38862 0.0
C431 C 0.02611 0.20318 0.35879 0.0
C432 C 0.00446 0.25878 0.33054 0.0
H433 H 0.99122 0.16023 0.42344 0.0
H434 H 0.08985 0.16927 0.35257 0.0
C435 C 0.92228 0.30366 0.34088 0.0
C436 C 0.07044 0.42484 0.90059 0.0
C437 C 0.02759 0.3659 0.85737 0.0
H438 H 0.13934 0.4475 0.9743 0.0
C439 C 0.01473 0.285 0.8602 0.0
H440 H 0.07987 0.48901 0.90137 0.0
C441 C 0.04671 0.2627 0.90313 0.0
C442 C 0.09337 0.31981 0.94484 0.0
H443 H 0.98279 0.23736 0.82836 0.0
H444 H 0.03579 0.19944 0.90275 0.0
C445 C 0.10374 0.40178 0.94324 0.0
C446 C 0.13298 0.7022 0.67488 0.0
C447 C 0.09389 0.75213 0.64706 0.0
H448 H 0.11372 0.64049 0.7322 0.0
C449 C 0.01342 0.79663 0.66584 0.0
H450 H 0.19691 0.67019 0.66253 0.0
C451 C 0.96645 0.78083 0.70635 0.0
C452 C -0.00037 0.72124 0.72932 0.0
H453 H 0.98346 0.83794 0.64623 0.0
H454 H 0.90131 0.81084 0.71715 0.0
C455 C 0.0856 0.68579 0.71512 0.0
loop_
_geom_bond_atom_site_label_1
_geom_bond_atom_site_label_2
_geom_bond_distance
_geom_bond_site_symmetry_2
_ccdc_geom_bond_type
Eu0 N29 2.600 1_545 S
Eu0 N35 2.562 . S
Eu0 O44 2.462 . S
Eu0 O45 2.373 1_556 S
Eu0 O47 2.432 . S
Eu0 O48 2.291 . S
Eu0 O52 2.335 . S
Eu0 O55 2.372 . S
Eu0 C64 2.787 . S
C1 N2 1.365 . S
C1 C4 1.405 1_455 S
C1 C8 1.448 1_455 S
N2 C1 1.365 . S
N2 C5 1.319 . S
N2 Eu11 2.600 . S
C3 C5 1.397 . S
C3 C6 1.367 . S
C3 H23 0.931 . S
C4 C1 1.405 1_655 S
C4 C6 1.403 1_655 S
C4 C10 1.439 . S
C5 N2 1.319 . S
C5 C3 1.397 . S
C5 H16 0.930 . S
C6 C3 1.367 . S
C6 C4 1.403 1_455 S
C6 H27 0.929 . S
C7 C8 1.430 . S
C7 C9 1.387 . S
C7 C13 1.403 . S
C8 C1 1.448 1_655 S
C8 C7 1.430 . S
C8 N12 1.351 . S
C9 C7 1.387 . S
C9 C10 1.374 . S
C9 H24 0.930 . S
C10 C4 1.439 . S
C10 C9 1.374 . S
C10 H25 0.931 . S
Eu11 N2 2.600 . S
Eu11 N12 2.562 1_455 S
Eu11 O46 2.335 . S
Eu11 O49 2.372 . S
Eu11 O50 2.462 . S
Eu11 O51 2.373 1_554 S
Eu11 O53 2.432 . S
Eu11 O54 2.291 . S
Eu11 C75 2.787 . S
N12 C8 1.351 . S
N12 Eu11 2.562 1_655 S
N12 C14 1.325 . S
C13 C7 1.403 . S
C13 C15 1.377 . S
C13 H21 0.921 1_554 S
C14 N12 1.325 . S
C14 C15 1.416 . S
C14 H20 0.929 . S
C15 C13 1.377 . S
C15 C14 1.416 . S
C15 H17 0.930 1_554 S
H16 C5 0.930 . S
H17 C15 0.930 1_556 S
H18 C33 0.930 . S
H19 C40 0.930 1_554 S
H20 C14 0.929 . S
H21 C13 0.921 1_556 S
H22 C36 0.929 . S
H23 C3 0.931 . S
H24 C9 0.930 . S
H25 C10 0.931 . S
H26 C31 0.931 . S
H27 C6 0.929 . S
H28 C39 0.930 . S
N29 Eu0 2.600 1_565 S
N29 C30 1.365 . S
N29 C33 1.319 . S
C30 N29 1.365 . S
C30 C32 1.405 . S
C30 C38 1.448 1_565 S
C31 H26 0.931 . S
C31 C33 1.397 . S
C31 C34 1.367 . S
C32 C30 1.405 . S
C32 C34 1.403 . S
C32 C65 1.439 . S
C33 H18 0.930 . S
C33 N29 1.319 . S
C33 C31 1.397 . S
C34 C31 1.367 . S
C34 C32 1.403 . S
C34 H41 0.929 . S
N35 Eu0 2.562 . S
N35 C36 1.325 . S
N35 C38 1.351 . S
C36 H22 0.929 . S
C36 N35 1.325 . S
C36 C40 1.417 . S
C37 C38 1.430 . S
C37 C39 1.404 1_556 S
C37 C66 1.387 1_545 S
C38 C30 1.448 1_545 S
C38 N35 1.351 . S
C38 C37 1.430 . S
C39 H28 0.930 . S
C39 C37 1.404 1_554 S
C39 C40 1.364 1_554 S
C40 H19 0.930 1_556 S
C40 C36 1.417 . S
C40 C39 1.364 1_556 S
H41 C34 0.929 . S
H42 C65 0.931 . S
H43 C66 0.931 1_554 S
O44 Eu0 2.462 . S
O44 C64 1.252 . S
O45 Eu0 2.373 1_554 S
O45 C56 1.249 . S
O46 Eu11 2.335 . S
O46 C56 1.264 . S
O47 Eu0 2.432 . S
O47 C64 1.268 . S
O48 Eu0 2.291 . S
O48 C63 1.255 1_556 S
O49 Eu11 2.372 . S
O49 C63 1.257 . S
O50 Eu11 2.462 . S
O50 C75 1.252 . S
O51 Eu11 2.373 1_556 S
O51 C67 1.249 . S
O52 Eu0 2.335 . S
O52 C67 1.264 . S
O53 Eu11 2.432 . S
O53 C75 1.268 . S
O54 Eu11 2.291 . S
O54 C74 1.255 1_554 S
O55 Eu0 2.372 . S
O55 C74 1.257 . S
C56 O45 1.249 . S
C56 O46 1.264 . S
C57 C60 1.382 . S
C57 C62 1.390 . S
C57 C64 1.506 . S
C58 C59 1.398 . S
C58 C62 1.392 . S
C59 C58 1.398 . S
C59 C61 1.372 1_545 S
C59 H76 0.931 . S
C60 C57 1.382 . S
C60 C61 1.390 1_545 S
C60 H77 0.931 1_545 S
C61 C59 1.372 1_565 S
C61 C60 1.390 1_565 S
C61 H78 0.929 . S
C62 C57 1.390 . S
C62 C58 1.392 . S
C62 H79 0.930 . S
C63 O48 1.255 1_554 S
C63 O49 1.257 . S
C64 Eu0 2.787 . S
C64 O44 1.252 . S
C64 O47 1.268 . S
C64 C57 1.506 . S
C65 C32 1.439 . S
C65 H42 0.931 . S
C65 C66 1.374 . S
C66 C37 1.387 1_565 S
C66 H43 0.931 1_556 S
C66 C65 1.374 . S
C67 O51 1.249 . S
C67 O52 1.264 . S
C68 C71 1.382 . S
C68 C72 1.390 . S
C68 C75 1.506 . S
C69 C70 1.398 . S
C69 C72 1.392 1_655 S
C70 C69 1.398 . S
C70 C73 1.372 1_655 S
C70 H80 0.931 . S
C71 C68 1.382 . S
C71 C73 1.390 . S
C71 H81 0.931 . S
C72 C68 1.390 . S
C72 C69 1.392 1_455 S
C72 H82 0.930 . S
C73 C70 1.372 1_455 S
C73 C71 1.390 . S
C73 H83 0.929 . S
C74 O54 1.255 1_556 S
C74 O55 1.257 . S
C75 Eu11 2.787 . S
C75 O50 1.252 . S
C75 O53 1.268 . S
C75 C68 1.506 . S
H76 C59 0.931 . S
H77 C60 0.931 1_565 S
H78 C61 0.929 . S
H79 C62 0.930 . S
H80 C70 0.931 . S
H81 C71 0.931 . S
H82 C72 0.930 . S
H83 C73 0.929 . S
Eu84 N113 2.600 . S
Eu84 N119 2.562 1_655 S
Eu84 O128 2.462 . S
Eu84 O129 2.373 1_556 S
Eu84 O131 2.432 . S
Eu84 O132 2.291 . S
Eu84 O136 2.335 . S
Eu84 O139 2.372 . S
Eu84 C148 2.787 . S
C85 N86 1.365 . S
C85 C88 1.405 . S
C85 C92 1.448 1_545 S
N86 C85 1.365 . S
N86 C89 1.319 . S
N86 Eu95 2.600 1_545 S
C87 C89 1.397 . S
C87 C90 1.367 . S
C87 H107 0.931 . S
C88 C85 1.405 . S
C88 C90 1.403 . S
C88 C94 1.439 . S
C89 N86 1.319 . S
C89 C87 1.397 . S
C89 H100 0.930 . S
C90 C87 1.367 . S
C90 C88 1.403 . S
C90 H111 0.929 . S
C91 C92 1.430 . S
C91 C93 1.387 1_565 S
C91 C97 1.403 . S
C92 C85 1.448 1_565 S
C92 C91 1.430 . S
C92 N96 1.351 . S
C93 C91 1.387 1_545 S
C93 C94 1.374 . S
C93 H108 0.930 . S
C94 C88 1.439 . S
C94 C93 1.374 . S
C94 H109 0.931 . S
Eu95 N86 2.600 1_565 S
Eu95 N96 2.562 . S
Eu95 O130 2.335 . S
Eu95 O133 2.372 . S
Eu95 O134 2.462 . S
Eu95 O135 2.373 1_554 S
Eu95 O137 2.432 . S
Eu95 O138 2.291 . S
Eu95 C159 2.787 . S
N96 C92 1.351 . S
N96 Eu95 2.562 . S
N96 C98 1.325 . S
C97 C91 1.403 . S
C97 C99 1.377 . S
C97 H105 0.921 1_554 S
C98 N96 1.325 . S
C98 C99 1.416 . S
C98 H104 0.929 . S
C99 C97 1.377 . S
C99 C98 1.416 . S
C99 H101 0.930 1_554 S
H100 C89 0.930 . S
H101 C99 0.930 1_556 S
H102 C117 0.930 . S
H103 C124 0.930 1_554 S
H104 C98 0.929 . S
H105 C97 0.921 1_556 S
H106 C120 0.929 . S
H107 C87 0.931 . S
H108 C93 0.930 . S
H109 C94 0.931 . S
H110 C115 0.931 . S
H111 C90 0.929 . S
H112 C123 0.930 . S
N113 Eu84 2.600 . S
N113 C114 1.365 . S
N113 C117 1.319 . S
C114 N113 1.365 . S
C114 C116 1.405 1_655 S
C114 C122 1.448 1_655 S
C115 H110 0.931 . S
C115 C117 1.397 . S
C115 C118 1.367 . S
C116 C114 1.405 1_455 S
C116 C118 1.403 1_455 S
C116 C149 1.439 . S
C117 H102 0.930 . S
C117 N113 1.319 . S
C117 C115 1.397 . S
C118 C115 1.367 . S
C118 C116 1.403 1_655 S
C118 H125 0.929 . S
N119 Eu84 2.562 1_455 S
N119 C120 1.325 . S
N119 C122 1.351 . S
C120 H106 0.929 . S
C120 N119 1.325 . S
C120 C124 1.417 . S
C121 C122 1.430 . S
C121 C123 1.404 1_556 S
C121 C150 1.387 . S
C122 C114 1.448 1_455 S
C122 N119 1.351 . S
C122 C121 1.430 . S
C123 H112 0.930 . S
C123 C121 1.404 1_554 S
C123 C124 1.364 1_554 S
C124 H103 0.930 1_556 S
C124 C120 1.417 . S
C124 C123 1.364 1_556 S
H125 C118 0.929 . S
H126 C149 0.931 . S
H127 C150 0.931 1_554 S
O128 Eu84 2.462 . S
O128 C148 1.252 . S
O129 Eu84 2.373 1_554 S
O129 C140 1.249 . S
O130 Eu95 2.335 . S
O130 C140 1.264 . S
O131 Eu84 2.432 . S
O131 C148 1.268 . S
O132 Eu84 2.291 . S
O132 C147 1.255 1_556 S
O133 Eu95 2.372 . S
O133 C147 1.257 . S
O134 Eu95 2.462 . S
O134 C159 1.252 . S
O135 Eu95 2.373 1_556 S
O135 C151 1.249 . S
O136 Eu84 2.335 . S
O136 C151 1.264 . S
O137 Eu95 2.432 . S
O137 C159 1.268 . S
O138 Eu95 2.291 . S
O138 C158 1.255 1_554 S
O139 Eu84 2.372 . S
O139 C158 1.257 . S
C140 O129 1.249 . S
C140 O130 1.264 . S
C141 C144 1.382 . S
C141 C146 1.390 . S
C141 C148 1.506 . S
C142 C143 1.398 . S
C142 C146 1.392 1_455 S
C143 C142 1.398 . S
C143 C145 1.372 1_455 S
C143 H160 0.931 . S
C144 C141 1.382 . S
C144 C145 1.390 . S
C144 H161 0.931 . S
C145 C143 1.372 1_655 S
C145 C144 1.390 . S
C145 H162 0.929 . S
C146 C141 1.390 . S
C146 C142 1.392 1_655 S
C146 H163 0.930 . S
C147 O132 1.255 1_554 S
C147 O133 1.257 . S
C148 Eu84 2.787 . S
C148 O128 1.252 . S
C148 O131 1.268 . S
C148 C141 1.506 . S
C149 C116 1.439 . S
C149 H126 0.931 . S
C149 C150 1.374 . S
C150 C121 1.387 . S
C150 H127 0.931 1_556 S
C150 C149 1.374 . S
C151 O135 1.249 . S
C151 O136 1.264 . S
C152 C155 1.382 . S
C152 C156 1.390 . S
C152 C159 1.506 . S
C153 C154 1.398 . S
C153 C156 1.392 . S
C154 C153 1.398 . S
C154 C157 1.372 1_565 S
C154 H164 0.931 . S
C155 C152 1.382 . S
C155 C157 1.390 1_565 S
C155 H165 0.931 1_565 S
C156 C152 1.390 . S
C156 C153 1.392 . S
C156 H166 0.930 . S
C157 C154 1.372 1_545 S
C157 C155 1.390 1_545 S
C157 H167 0.929 . S
C158 O138 1.255 1_556 S
C158 O139 1.257 . S
C159 Eu95 2.787 . S
C159 O134 1.252 . S
C159 O137 1.268 . S
C159 C152 1.506 . S
H160 C143 0.931 . S
H161 C144 0.931 . S
H162 C145 0.929 . S
H163 C146 0.930 . S
H164 C154 0.931 . S
H165 C155 0.931 1_545 S
H166 C156 0.930 . S
H167 C157 0.929 . S
Eu168 N197 2.600 1_565 S
Eu168 N203 2.562 . S
Eu168 O212 2.462 . S
Eu168 O213 2.373 . S
Eu168 O215 2.432 . S
Eu168 O216 2.291 . S
Eu168 O220 2.335 . S
Eu168 O223 2.372 . S
Eu168 C232 2.787 . S
C169 N170 1.365 . S
C169 C172 1.405 1_455 S
C169 C176 1.448 1_455 S
N170 C169 1.365 . S
N170 C173 1.319 . S
N170 Eu179 2.600 . S
C171 C173 1.397 . S
C171 C174 1.367 . S
C171 H191 0.931 . S
C172 C169 1.405 1_655 S
C172 C174 1.403 1_655 S
C172 C178 1.439 . S
C173 N170 1.319 . S
C173 C171 1.397 . S
C173 H184 0.930 . S
C174 C171 1.367 . S
C174 C172 1.403 1_455 S
C174 H195 0.929 . S
C175 C176 1.430 . S
C175 C177 1.387 . S
C175 C181 1.404 . S
C176 C169 1.448 1_655 S
C176 C175 1.430 . S
C176 N180 1.351 . S
C177 C175 1.387 . S
C177 C178 1.374 . S
C177 H192 0.931 . S
C178 C172 1.439 . S
C178 C177 1.374 . S
C178 H193 0.931 . S
Eu179 N170 2.600 . S
Eu179 N180 2.562 1_455 S
Eu179 O214 2.335 . S
Eu179 O217 2.372 . S
Eu179 O218 2.462 . S
Eu179 O219 2.373 . S
Eu179 O221 2.432 . S
Eu179 O222 2.291 . S
Eu179 C243 2.787 . S
N180 C176 1.351 . S
N180 Eu179 2.562 1_655 S
N180 C182 1.325 . S
C181 C175 1.404 . S
C181 C183 1.366 . S
C181 H189 0.930 . S
C182 N180 1.325 . S
C182 C183 1.416 . S
C182 H188 0.929 . S
C183 C181 1.366 . S
C183 C182 1.416 . S
C183 H185 0.930 . S
H184 C173 0.930 . S
H185 C183 0.930 . S
H186 C201 0.930 . S
H187 C208 0.930 . S
H188 C182 0.929 . S
H189 C181 0.930 . S
H190 C204 0.929 . S
H191 C171 0.931 . S
H192 C177 0.931 . S
H193 C178 0.931 . S
H194 C199 0.931 . S
H195 C174 0.929 . S
H196 C207 0.930 . S
N197 Eu168 2.600 1_545 S
N197 C198 1.365 . S
N197 C201 1.319 . S
C198 N197 1.365 . S
C198 C200 1.405 . S
C198 C206 1.448 1_545 S
C199 H194 0.931 . S
C199 C201 1.397 . S
C199 C202 1.367 . S
C200 C198 1.405 . S
C200 C202 1.403 . S
C200 C233 1.439 . S
C201 H186 0.930 . S
C201 N197 1.319 . S
C201 C199 1.397 . S
C202 C199 1.367 . S
C202 C200 1.403 . S
C202 H209 0.929 . S
N203 Eu168 2.562 . S
N203 C204 1.325 . S
N203 C206 1.351 . S
C204 H190 0.929 . S
C204 N203 1.325 . S
C204 C208 1.416 . S
C205 C206 1.430 . S
C205 C207 1.404 . S
C205 C234 1.387 1_565 S
C206 C198 1.448 1_565 S
C206 N203 1.351 . S
C206 C205 1.430 . S
C207 H196 0.930 . S
C207 C205 1.404 . S
C207 C208 1.366 . S
C208 H187 0.930 . S
C208 C204 1.416 . S
C208 C207 1.366 . S
H209 C202 0.929 . S
H210 C233 0.931 . S
H211 C234 0.931 . S
O212 Eu168 2.462 . S
O212 C232 1.252 . S
O213 Eu168 2.373 . S
O213 C224 1.249 . S
O214 Eu179 2.335 . S
O214 C224 1.264 . S
O215 Eu168 2.432 . S
O215 C232 1.268 . S
O216 Eu168 2.291 . S
O216 C231 1.255 . S
O217 Eu179 2.372 . S
O217 C231 1.257 . S
O218 Eu179 2.462 . S
O218 C243 1.252 . S
O219 Eu179 2.373 . S
O219 C235 1.249 . S
O220 Eu168 2.335 . S
O220 C235 1.264 . S
O221 Eu179 2.432 . S
O221 C243 1.268 . S
O222 Eu179 2.291 . S
O222 C242 1.255 . S
O223 Eu168 2.372 . S
O223 C242 1.257 . S
C224 O213 1.249 . S
C224 O214 1.264 . S
C225 C228 1.382 . S
C225 C230 1.390 . S
C225 C232 1.506 . S
C226 C227 1.398 . S
C226 C230 1.392 . S
C227 C226 1.398 . S
C227 C229 1.372 1_565 S
C227 H244 0.931 . S
C228 C225 1.382 . S
C228 C229 1.390 1_565 S
C228 H245 0.931 1_565 S
C229 C227 1.372 1_545 S
C229 C228 1.390 1_545 S
C229 H246 0.929 . S
C230 C225 1.390 . S
C230 C226 1.392 . S
C230 H247 0.930 . S
C231 O216 1.255 . S
C231 O217 1.257 . S
C232 Eu168 2.787 . S
C232 O212 1.252 . S
C232 O215 1.268 . S
C232 C225 1.506 . S
C233 C200 1.439 . S
C233 H210 0.931 . S
C233 C234 1.374 . S
C234 C205 1.387 1_545 S
C234 H211 0.931 . S
C234 C233 1.374 . S
C235 O219 1.249 . S
C235 O220 1.264 . S
C236 C239 1.382 . S
C236 C240 1.390 . S
C236 C243 1.506 . S
C237 C238 1.398 . S
C237 C240 1.392 1_655 S
C238 C237 1.398 . S
C238 C241 1.372 1_655 S
C238 H248 0.931 . S
C239 C236 1.382 . S
C239 C241 1.390 . S
C239 H249 0.931 . S
C240 C236 1.390 . S
C240 C237 1.392 1_455 S
C240 H250 0.930 . S
C241 C238 1.372 1_455 S
C241 C239 1.390 . S
C241 H251 0.929 . S
C242 O222 1.255 . S
C242 O223 1.257 . S
C243 Eu179 2.787 . S
C243 O218 1.252 . S
C243 O221 1.268 . S
C243 C236 1.506 . S
H244 C227 0.931 . S
H245 C228 0.931 1_545 S
H246 C229 0.929 . S
H247 C230 0.930 . S
H248 C238 0.931 . S
H249 C239 0.931 . S
H250 C240 0.930 . S
H251 C241 0.929 . S
Eu252 N281 2.600 . S
Eu252 N287 2.562 1_655 S
Eu252 O296 2.462 . S
Eu252 O297 2.373 . S
Eu252 O299 2.432 . S
Eu252 O300 2.291 . S
Eu252 O304 2.335 . S
Eu252 O307 2.372 . S
Eu252 C316 2.787 . S
C253 N254 1.365 . S
C253 C256 1.405 . S
C253 C260 1.448 1_565 S
N254 C253 1.365 . S
N254 C257 1.319 . S
N254 Eu263 2.600 1_565 S
C255 C257 1.397 . S
C255 C258 1.367 . S
C255 H275 0.931 . S
C256 C253 1.405 . S
C256 C258 1.403 . S
C256 C262 1.439 . S
C257 N254 1.319 . S
C257 C255 1.397 . S
C257 H268 0.930 . S
C258 C255 1.367 . S
C258 C256 1.403 . S
C258 H279 0.929 . S
C259 C260 1.430 . S
C259 C261 1.387 1_545 S
C259 C265 1.404 . S
C260 C253 1.448 1_545 S
C260 C259 1.430 . S
C260 N264 1.351 . S
C261 C259 1.387 1_565 S
C261 C262 1.374 . S
C261 H276 0.931 . S
C262 C256 1.439 . S
C262 C261 1.374 . S
C262 H277 0.931 . S
Eu263 N254 2.600 1_545 S
Eu263 N264 2.562 . S
Eu263 O298 2.335 . S
Eu263 O301 2.372 . S
Eu263 O302 2.462 . S
Eu263 O303 2.373 . S
Eu263 O305 2.432 . S
Eu263 O306 2.291 . S
Eu263 C327 2.787 . S
N264 C260 1.351 . S
N264 Eu263 2.562 . S
N264 C266 1.325 . S
C265 C259 1.404 . S
C265 C267 1.366 . S
C265 H273 0.930 . S
C266 N264 1.325 . S
C266 C267 1.416 . S
C266 H272 0.929 . S
C267 C265 1.366 . S
C267 C266 1.416 . S
C267 H269 0.930 . S
H268 C257 0.930 . S
H269 C267 0.930 . S
H270 C285 0.930 . S
H271 C292 0.930 . S
H272 C266 0.929 . S
H273 C265 0.930 . S
H274 C288 0.929 . S
H275 C255 0.931 . S
H276 C261 0.931 . S
H277 C262 0.931 . S
H278 C283 0.931 . S
H279 C258 0.929 . S
H280 C291 0.930 . S
N281 Eu252 2.600 . S
N281 C282 1.365 . S
N281 C285 1.319 . S
C282 N281 1.365 . S
C282 C284 1.405 1_655 S
C282 C290 1.448 1_655 S
C283 H278 0.931 . S
C283 C285 1.397 . S
C283 C286 1.367 . S
C284 C282 1.405 1_455 S
C284 C286 1.403 1_455 S
C284 C317 1.439 . S
C285 H270 0.930 . S
C285 N281 1.319 . S
C285 C283 1.397 . S
C286 C283 1.367 . S
C286 C284 1.403 1_655 S
C286 H293 0.929 . S
N287 Eu252 2.562 1_455 S
N287 C288 1.325 . S
N287 C290 1.351 . S
C288 H274 0.929 . S
C288 N287 1.325 . S
C288 C292 1.416 . S
C289 C290 1.430 . S
C289 C291 1.404 . S
C289 C318 1.387 . S
C290 C282 1.448 1_455 S
C290 N287 1.351 . S
C290 C289 1.430 . S
C291 H280 0.930 . S
C291 C289 1.404 . S
C291 C292 1.366 . S
C292 H271 0.930 . S
C292 C288 1.416 . S
C292 C291 1.366 . S
H293 C286 0.929 . S
H294 C317 0.931 . S
H295 C318 0.931 . S
O296 Eu252 2.462 . S
O296 C316 1.252 . S
O297 Eu252 2.373 . S
O297 C308 1.249 . S
O298 Eu263 2.335 . S
O298 C308 1.264 . S
O299 Eu252 2.432 . S
O299 C316 1.268 . S
O300 Eu252 2.291 . S
O300 C315 1.255 . S
O301 Eu263 2.372 . S
O301 C315 1.257 . S
O302 Eu263 2.462 . S
O302 C327 1.252 . S
O303 Eu263 2.373 . S
O303 C319 1.249 . S
O304 Eu252 2.335 . S
O304 C319 1.264 . S
O305 Eu263 2.432 . S
O305 C327 1.268 . S
O306 Eu263 2.291 . S
O306 C326 1.255 . S
O307 Eu252 2.372 . S
O307 C326 1.257 . S
C308 O297 1.249 . S
C308 O298 1.264 . S
C309 C312 1.382 . S
C309 C314 1.390 . S
C309 C316 1.506 . S
C310 C311 1.398 . S
C310 C314 1.392 1_455 S
C311 C310 1.398 . S
C311 C313 1.372 1_455 S
C311 H328 0.931 . S
C312 C309 1.382 . S
C312 C313 1.390 . S
C312 H329 0.931 . S
C313 C311 1.372 1_655 S
C313 C312 1.390 . S
C313 H330 0.929 . S
C314 C309 1.390 . S
C314 C310 1.392 1_655 S
C314 H331 0.930 . S
C315 O300 1.255 . S
C315 O301 1.257 . S
C316 Eu252 2.787 . S
C316 O296 1.252 . S
C316 O299 1.268 . S
C316 C309 1.506 . S
C317 C284 1.439 . S
C317 H294 0.931 . S
C317 C318 1.374 . S
C318 C289 1.387 . S
C318 H295 0.931 . S
C318 C317 1.374 . S
C319 O303 1.249 . S
C319 O304 1.264 . S
C320 C323 1.382 . S
C320 C324 1.390 . S
C320 C327 1.506 . S
C321 C322 1.398 . S
C321 C324 1.392 . S
C322 C321 1.398 . S
C322 C325 1.372 1_545 S
C322 H332 0.931 . S
C323 C320 1.382 . S
C323 C325 1.390 1_545 S
C323 H333 0.931 1_545 S
C324 C320 1.390 . S
C324 C321 1.392 . S
C324 H334 0.930 . S
C325 C322 1.372 1_565 S
C325 C323 1.390 1_565 S
C325 H335 0.929 . S
C326 O306 1.255 . S
C326 O307 1.257 . S
C327 Eu263 2.787 . S
C327 O302 1.252 . S
C327 O305 1.268 . S
C327 C320 1.506 . S
H328 C311 0.931 . S
H329 C312 0.931 . S
H330 C313 0.929 . S
H331 C314 0.930 . S
H332 C322 0.931 . S
H333 C323 0.931 1_565 S
H334 C324 0.930 . S
H335 C325 0.929 . S
C336 C337 1.376 1_556 S
C336 H340 0.950 . S
C336 C345 1.390 . S
C337 C336 1.376 1_554 S
C337 C339 1.404 . S
H338 C345 0.950 . S
C339 C337 1.404 . S
C339 C341 1.390 . S
C339 H343 0.950 . S
H340 C336 0.950 . S
C341 C339 1.390 . S
C341 C342 1.387 . S
C341 H344 0.950 . S
C342 C341 1.387 . S
C342 C345 1.387 1_554 S
H343 C339 0.950 . S
H344 C341 0.950 . S
C345 C336 1.390 . S
C345 H338 0.950 . S
C345 C342 1.387 1_556 S
C346 C347 1.387 . S
C346 H350 0.950 . S
C346 C355 1.390 . S
C347 C346 1.387 . S
C347 C349 1.387 . S
H348 C355 0.950 . S
C349 C347 1.387 . S
C349 C351 1.390 . S
C349 H353 0.950 . S
H350 C346 0.950 . S
C351 C349 1.390 . S
C351 C352 1.387 . S
C351 H354 0.950 . S
C352 C351 1.387 . S
C352 C355 1.387 . S
H353 C349 0.950 . S
H354 C351 0.950 . S
C355 C346 1.390 . S
C355 H348 0.950 . S
C355 C352 1.387 . S
C356 C357 1.403 . S
C356 H360 0.950 . S
C356 C365 1.390 1_445 S
C357 C356 1.403 . S
C357 C359 1.376 1_554 S
H358 C365 0.950 . S
C359 C357 1.376 1_556 S
C359 C361 1.390 1_445 S
C359 H363 0.950 . S
H360 C356 0.950 . S
C361 C359 1.390 1_665 S
C361 C362 1.387 1_556 S
C361 H364 0.950 . S
C362 C361 1.387 1_554 S
C362 C365 1.387 . S
H363 C359 0.950 . S
H364 C361 0.950 . S
C365 C356 1.390 1_665 S
C365 H358 0.950 . S
C365 C362 1.387 . S
C366 C367 1.387 1_565 S
C366 H370 0.950 . S
C366 C375 1.390 1_655 S
C367 C366 1.387 1_545 S
C367 C369 1.387 . S
H368 C375 0.950 . S
C369 C367 1.387 . S
C369 C371 1.390 1_655 S
C369 H373 0.950 . S
H370 C366 0.950 . S
C371 C369 1.390 1_455 S
C371 C372 1.387 1_545 S
C371 H374 0.950 . S
C372 C371 1.387 1_565 S
C372 C375 1.387 . S
H373 C369 0.950 . S
H374 C371 0.950 . S
C375 C366 1.390 1_455 S
C375 H368 0.950 . S
C375 C372 1.387 . S
C376 C377 1.387 . S
C376 H380 0.950 . S
C376 C385 1.390 . S
C377 C376 1.387 . S
C377 C379 1.387 . S
H378 C385 0.950 . S
C379 C377 1.387 . S
C379 C381 1.390 . S
C379 H383 0.950 . S
H380 C376 0.950 . S
C381 C379 1.390 . S
C381 C382 1.387 . S
C381 H384 0.950 . S
C382 C381 1.387 . S
C382 C385 1.387 . S
H383 C379 0.950 . S
H384 C381 0.950 . S
C385 C376 1.390 . S
C385 H378 0.950 . S
C385 C382 1.387 . S
C386 C387 1.387 . S
C386 H390 0.950 . S
C386 C395 1.390 . S
C387 C386 1.387 . S
C387 C389 1.387 . S
H388 C395 0.950 . S
C389 C387 1.387 . S
C389 C391 1.390 . S
C389 H393 0.950 . S
H390 C386 0.950 . S
C391 C389 1.390 . S
C391 C392 1.387 . S
C391 H394 0.950 . S
C392 C391 1.387 . S
C392 C395 1.387 . S
H393 C389 0.950 . S
H394 C391 0.950 . S
C395 C386 1.390 . S
C395 H388 0.950 . S
C395 C392 1.387 . S
C396 C397 1.387 . S
C396 H400 0.950 . S
C396 C405 1.390 . S
C397 C396 1.387 . S
C397 C399 1.387 . S
H398 C405 0.950 . S
C399 C397 1.387 . S
C399 C401 1.390 . S
C399 H403 0.950 . S
H400 C396 0.950 . S
C401 C399 1.390 . S
C401 C402 1.387 . S
C401 H404 0.950 . S
C402 C401 1.387 . S
C402 C405 1.387 . S
H403 C399 0.950 . S
H404 C401 0.950 . S
C405 C396 1.390 . S
C405 H398 0.950 . S
C405 C402 1.387 . S
C406 C407 1.387 . S
C406 H410 0.950 . S
C406 C415 1.390 . S
C407 C406 1.387 . S
C407 C409 1.387 . S
H408 C415 0.950 . S
C409 C407 1.387 . S
C409 C411 1.390 . S
C409 H413 0.950 . S
H410 C406 0.950 . S
C411 C409 1.390 . S
C411 C412 1.387 . S
C411 H414 0.950 . S
C412 C411 1.387 . S
C412 C415 1.387 . S
H413 C409 0.950 . S
H414 C411 0.950 . S
C415 C406 1.390 . S
C415 H408 0.950 . S
C415 C412 1.387 . S
C416 C417 1.387 . S
C416 H420 0.950 . S
C416 C425 1.390 . S
C417 C416 1.387 . S
C417 C419 1.387 . S
H418 C425 0.950 1_455 S
C419 C417 1.387 . S
C419 C421 1.390 . S
C419 H423 0.950 . S
H420 C416 0.950 . S
C421 C419 1.390 . S
C421 C422 1.387 . S
C421 H424 0.950 . S
C422 C421 1.387 . S
C422 C425 1.387 . S
H423 C419 0.950 . S
H424 C421 0.950 . S
C425 C416 1.390 . S
C425 H418 0.950 1_655 S
C425 C422 1.387 . S
C426 C427 1.387 . S
C426 H430 0.950 . S
C426 C435 1.390 . S
C427 C426 1.387 . S
C427 C429 1.387 . S
H428 C435 0.950 . S
C429 C427 1.387 . S
C429 C431 1.390 . S
C429 H433 0.950 . S
H430 C426 0.950 . S
C431 C429 1.390 . S
C431 C432 1.387 . S
C431 H434 0.950 . S
C432 C431 1.387 . S
C432 C435 1.387 . S
H433 C429 0.950 . S
H434 C431 0.950 . S
C435 C426 1.390 . S
C435 H428 0.950 . S
C435 C432 1.387 . S
C436 C437 1.387 . S
C436 H440 0.950 1_455 S
C436 C445 1.390 . S
C437 C436 1.387 . S
C437 C439 1.387 . S
H438 C445 0.950 . S
C439 C437 1.387 . S
C439 C441 1.390 . S
C439 H443 0.950 . S
H440 C436 0.950 1_655 S
C441 C439 1.390 . S
C441 C442 1.387 . S
C441 H444 0.950 . S
C442 C441 1.387 . S
C442 C445 1.387 . S
H443 C439 0.950 . S
H444 C441 0.950 . S
C445 C436 1.390 . S
C445 H438 0.950 . S
C445 C442 1.387 . S
C446 C447 1.387 . S
C446 H450 0.950 . S
C446 C455 1.390 . S
C447 C446 1.387 . S
C447 C449 1.387 . S
H448 C455 0.950 . S
C449 C447 1.387 . S
C449 C451 1.390 . S
C449 H453 0.950 . S
H450 C446 0.950 . S
C451 C449 1.390 . S
C451 C452 1.387 . S
C451 H454 0.950 . S
C452 C451 1.387 . S
C452 C455 1.387 . S
H453 C449 0.950 . S
H454 C451 0.950 . S
C455 C446 1.390 . S
C455 H448 0.950 . S
C455 C452 1.387 . S
C337 C158 1.530 1_554 S
C342 C63 1.537 . S
C347 C231 1.537 . S
C352 C326 1.537 . S
C357 C74 1.533 1_554 S
C362 C147 1.539 . S
C367 C315 1.539 . S
C372 C242 1.539 . S
C377 C321 1.340 . S
C382 C56 1.393 . S
C387 C153 1.342 . S
C392 C224 1.392 . S
C397 C151 1.391 . S
C402 C226 1.340 . S
C407 C319 1.391 . S
C412 C58 1.340 . S
C417 C140 1.391 . S
C422 C237 1.341 . S
C427 C308 1.391 . S
C432 C69 1.340 . S
C437 C310 1.340 . S
C442 C67 1.393 . S
C447 C235 1.393 . S
C452 C142 1.341 . S
