# Generated by pormake.
# Topology uon, (4)-cn, num edge types: 1
# Building blocks:
#     Node 0, Type 0, BuildingBlock: KOZSID_clean_sbu_0, # of connection points: 4
#     Node 1, Type 0, BuildingBlock: KOZSID_clean_sbu_0, # of connection points: 4
#     Node 2, Type 0, BuildingBlock: KOZSID_clean_sbu_0, # of connection points: 4
#     Node 3, Type 0, BuildingBlock: KOZSID_clean_sbu_0, # of connection points: 4
#     Node 4, Type 0, BuildingBlock: KOZSID_clean_sbu_0, # of connection points: 4
#     Node 5, Type 0, BuildingBlock: KOZSID_clean_sbu_0, # of connection points: 4
#     Edge 6, Type (0, 0), BuildingBlock: FUNLAD_clean_linker_0, # of connection points: 2
#     Edge 7, Type (0, 0), BuildingBlock: FUNLAD_clean_linker_0, # of connection points: 2
#     Edge 8, Type (0, 0), BuildingBlock: FUNLAD_clean_linker_0, # of connection points: 2
#     Edge 9, Type (0, 0), BuildingBlock: FUNLAD_clean_linker_0, # of connection points: 2
#     Edge 10, Type (0, 0), BuildingBlock: FUNLAD_clean_linker_0, # of connection points: 2
#     Edge 11, Type (0, 0), BuildingBlock: FUNLAD_clean_linker_0, # of connection points: 2
#     Edge 12, Type (0, 0), BuildingBlock: FUNLAD_clean_linker_0, # of connection points: 2
#     Edge 13, Type (0, 0), BuildingBlock: FUNLAD_clean_linker_0, # of connection points: 2
#     Edge 14, Type (0, 0), BuildingBlock: FUNLAD_clean_linker_0, # of connection points: 2
#     Edge 15, Type (0, 0), BuildingBlock: FUNLAD_clean_linker_0, # of connection points: 2
#     Edge 16, Type (0, 0), BuildingBlock: FUNLAD_clean_linker_0, # of connection points: 2
#     Edge 17, Type (0, 0), BuildingBlock: FUNLAD_clean_linker_0, # of connection points: 2
# Relax obj value: 0.068
# Max RMSD: 0.128
# Mean RMSD: 0.128
data_MOF--net-uon--node1-KOZSID_clean_sbu_0--edge1-FUNLAD_clean_linker_0
_symmetry_space_group_name_H-M    P1
_symmetry_Int_Tables_number       1
_symmetry_cell_setting            triclinic
loop_
_symmetry_equiv_pos_as_xyz
'x, y, z'
_cell_length_a     43.370872
_cell_length_b     43.360587
_cell_length_c     38.35379
_cell_angle_alpha  89.973245
_cell_angle_beta   90.024666
_cell_angle_gamma 119.99988
loop_
_atom_site_label
_atom_site_type_symbol
_atom_site_fract_x
_atom_site_fract_y
_atom_site_fract_z
_atom_type_partial_charge
C0 C 0.14184 0.37034 0.02026 0.0
C1 C 0.10745 0.35793 0.0081 0.0
C2 C 0.11041 0.37612 0.97811 0.0
C3 C 0.14624 0.39845 0.97365 0.0
N4 N 0.16642 0.39539 0.99879 0.0
Co5 Co 0.21968 0.42285 0.00242 0.0
N6 N 0.22364 0.45279 0.96093 0.0
C7 C 0.19654 0.45187 0.94261 0.0
C8 C 0.20743 0.47589 0.91575 0.0
C9 C 0.24371 0.49308 0.91679 0.0
C10 C 0.25283 0.47831 0.94425 0.0
N11 N 0.27309 0.44923 0.00502 0.0
C12 C 0.29759 0.47403 0.98323 0.0
C13 C 0.33205 0.48386 0.99321 0.0
C14 C 0.32928 0.46433 0.02218 0.0
C15 C 0.29343 0.44369 0.02812 0.0
N16 N 0.21555 0.39402 0.04496 0.0
C17 C 0.24254 0.39656 0.06479 0.0
C18 C 0.2314 0.37503 0.09367 0.0
C19 C 0.1951 0.35824 0.09263 0.0
C20 C 0.18624 0.37051 0.06302 0.0
N21 N 0.22226 0.38731 0.9716 0.0
C22 C 0.23428 0.34398 0.92511 0.0
C23 C 0.24661 0.34901 0.95942 0.0
C24 C 0.24029 0.37044 0.98199 0.0
C25 C 0.21397 0.35936 0.91505 0.0
C26 C 0.20817 0.38062 0.93859 0.0
N27 N 0.2174 0.45847 0.03325 0.0
C28 C 0.23946 0.49762 0.0832 0.0
C29 C 0.21341 0.50725 0.07905 0.0
C30 C 0.18937 0.49212 0.05144 0.0
C31 C 0.19198 0.46814 0.02884 0.0
C32 C 0.24091 0.47341 0.06033 0.0
H33 H 0.17309 0.45767 0.00808 0.0
H34 H 0.26114 0.46698 0.06539 0.0
H35 H 0.25098 0.37346 0.0075 0.0
H36 H 0.19294 0.39202 0.92921 0.0
C37 C 0.16137 0.42562 0.94892 0.0
C38 C 0.14965 0.35967 0.05362 0.0
C39 C 0.28947 0.48823 0.95231 0.0
C40 C 0.27804 0.41946 0.05554 0.0
H41 H 0.08272 0.33867 0.02028 0.0
H42 H 0.08892 0.37446 0.96234 0.0
H43 H 0.19097 0.4796 0.89691 0.0
H44 H 0.26146 0.51355 0.89882 0.0
H45 H 0.35663 0.50292 0.98062 0.0
H46 H 0.35081 0.46494 0.037 0.0
H47 H 0.24772 0.37227 0.11338 0.0
H48 H 0.17713 0.3394 0.11168 0.0
H49 H 0.26155 0.33679 0.96884 0.0
H50 H 0.20364 0.35611 0.88877 0.0
H51 H 0.25837 0.5082 0.1045 0.0
H52 H 0.16889 0.49904 0.04703 0.0
C53 C 0.77856 0.14151 0.3544 0.0
C54 C 0.75815 0.10767 0.34026 0.0
C55 C 0.74509 0.11176 0.30937 0.0
C56 C 0.75799 0.14762 0.30642 0.0
N57 N 0.77879 0.16683 0.33343 0.0
Co58 Co 0.80194 0.21971 0.34003 0.0
N59 N 0.77867 0.22492 0.29689 0.0
C60 C 0.75574 0.19848 0.27559 0.0
C61 C 0.7443 0.21003 0.24789 0.0
C62 C 0.76097 0.24608 0.25155 0.0
C63 C 0.78169 0.25446 0.28151 0.0
N64 N 0.82602 0.27276 0.34602 0.0
C65 C 0.8255 0.29792 0.32536 0.0
C66 C 0.84722 0.33197 0.3384 0.0
C67 C 0.86244 0.32829 0.36807 0.0
C68 C 0.84918 0.29237 0.3715 0.0
N69 N 0.82412 0.21429 0.38392 0.0
C70 C 0.84633 0.24056 0.4058 0.0
C71 C 0.85604 0.2286 0.43452 0.0
C72 C 0.83848 0.19244 0.43118 0.0
C73 C 0.81895 0.18443 0.40051 0.0
N74 N 0.8435 0.22648 0.31196 0.0
C75 C 0.90345 0.24536 0.26937 0.0
C76 C 0.90732 0.25547 0.30436 0.0
C77 C 0.87738 0.24585 0.32494 0.0
C78 C 0.86895 0.22352 0.25668 0.0
C79 C 0.83958 0.21424 0.27835 0.0
N80 N 0.76064 0.21333 0.36802 0.0
C81 C 0.73751 0.22878 0.41827 0.0
C82 C 0.70255 0.20386 0.40913 0.0
C83 C 0.69718 0.18372 0.37891 0.0
C84 C 0.72638 0.18886 0.35888 0.0
C85 C 0.7658 0.23311 0.39753 0.0
H86 H 0.72063 0.17273 0.33613 0.0
H87 H 0.79166 0.25251 0.40611 0.0
H88 H 0.88254 0.2552 0.35104 0.0
H89 H 0.814 0.1979 0.26703 0.0
C90 C 0.74769 0.16342 0.28078 0.0
C91 C 0.7954 0.14803 0.38868 0.0
C92 C 0.80508 0.29095 0.2932 0.0
C93 C 0.85744 0.27623 0.39864 0.0
H94 H 0.75222 0.08241 0.35147 0.0
H95 H 0.72703 0.09091 0.29189 0.0
H96 H 0.72674 0.19423 0.22696 0.0
H97 H 0.75875 0.26416 0.23365 0.0
H98 H 0.85169 0.3569 0.32749 0.0
H99 H 0.88102 0.3493 0.38509 0.0
H100 H 0.87346 0.24427 0.45558 0.0
H101 H 0.83961 0.17399 0.44944 0.0
H102 H 0.93347 0.27133 0.31588 0.0
H103 H 0.86446 0.21466 0.22981 0.0
H104 H 0.74326 0.24465 0.44172 0.0
H105 H 0.67059 0.16433 0.37045 0.0
C106 C 0.63319 0.76942 0.68432 0.0
C107 C 0.64638 0.74839 0.67137 0.0
C108 C 0.63364 0.73926 0.63797 0.0
C109 C 0.61326 0.75491 0.63251 0.0
N110 N 0.61245 0.77328 0.6604 0.0
Co111 Co 0.58512 0.7985 0.66468 0.0
N112 N 0.55322 0.77087 0.62563 0.0
C113 C 0.55989 0.75232 0.60158 0.0
C114 C 0.53343 0.73652 0.57711 0.0
C115 C 0.50881 0.74615 0.58601 0.0
C116 C 0.52169 0.76741 0.61558 0.0
N117 N 0.55823 0.82423 0.66891 0.0
C118 C 0.52645 0.81658 0.65505 0.0
C119 C 0.51783 0.84237 0.66415 0.0
C120 C 0.54563 0.86738 0.68359 0.0
C121 C 0.56955 0.85549 0.68551 0.0
N122 N 0.61708 0.82587 0.70368 0.0
C123 C 0.62274 0.85723 0.71618 0.0
C124 C 0.64604 0.86916 0.74383 0.0
C125 C 0.6555 0.8436 0.7489 0.0
C126 C 0.63728 0.81748 0.72403 0.0
N127 N 0.61754 0.83473 0.6317 0.0
C128 C 0.66335 0.89127 0.58845 0.0
C129 C 0.67698 0.87889 0.61464 0.0
C130 C 0.65363 0.85029 0.6357 0.0
C131 C 0.62647 0.87401 0.58363 0.0
C132 C 0.60411 0.84605 0.60555 0.0
N133 N 0.55283 0.76263 0.69784 0.0
C134 C 0.52293 0.74844 0.75327 0.0
C135 C 0.50952 0.71203 0.74751 0.0
C136 C 0.51777 0.70145 0.71597 0.0
C137 C 0.53953 0.72716 0.69154 0.0
C138 C 0.54433 0.77318 0.72816 0.0
H139 H 0.54598 0.71839 0.66775 0.0
H140 H 0.55432 0.80097 0.73351 0.0
H141 H 0.66475 0.84135 0.65581 0.0
H142 H 0.57586 0.83432 0.60183 0.0
C143 C 0.58883 0.74671 0.60536 0.0
C144 C 0.64114 0.78613 0.71888 0.0
C145 C 0.50583 0.78762 0.63021 0.0
C146 C 0.60039 0.87035 0.70615 0.0
H147 H 0.66293 0.73998 0.68463 0.0
H148 H 0.63707 0.72152 0.62062 0.0
H149 H 0.5319 0.71958 0.55568 0.0
H150 H 0.48466 0.73914 0.57173 0.0
H151 H 0.49426 0.84341 0.65684 0.0
H152 H 0.54777 0.89101 0.69548 0.0
H153 H 0.65382 0.89264 0.75957 0.0
H154 H 0.67358 0.84403 0.76861 0.0
H155 H 0.7054 0.89136 0.61898 0.0
H156 H 0.61481 0.88296 0.56391 0.0
H157 H 0.51674 0.75783 0.77696 0.0
H158 H 0.50811 0.6736 0.71049 0.0
C159 C 0.86007 0.63375 0.02104 0.0
C160 C 0.89439 0.64451 0.00968 0.0
C161 C 0.89114 0.62523 0.98045 0.0
C162 C 0.85522 0.60384 0.97568 0.0
N163 N 0.83522 0.60861 0.9998 0.0
Co164 Co 0.7819 0.58197 0.00351 0.0
N165 N 0.77733 0.55084 0.96283 0.0
C166 C 0.80413 0.55175 0.94397 0.0
C167 C 0.79282 0.52765 0.91718 0.0
C168 C 0.75659 0.51047 0.91876 0.0
C169 C 0.74786 0.52513 0.94661 0.0
N170 N 0.72853 0.55557 0.007 0.0
C171 C 0.70371 0.5298 0.9862 0.0
C172 C 0.66938 0.51937 0.99719 0.0
C173 C 0.67256 0.53963 0.02565 0.0
C174 C 0.70849 0.56113 0.03045 0.0
N175 N 0.78656 0.61285 0.04445 0.0
C176 C 0.75984 0.61215 0.06332 0.0
C177 C 0.77138 0.63548 0.0908 0.0
C178 C 0.80763 0.65166 0.08983 0.0
C179 C 0.81608 0.63712 0.06175 0.0
N180 N 0.7793 0.6165 0.97114 0.0
C181 C 0.76887 0.65909 0.92209 0.0
C182 C 0.75192 0.65113 0.9545 0.0
C183 C 0.75768 0.6303 0.97843 0.0
C184 C 0.7924 0.64657 0.91531 0.0
C185 C 0.79723 0.62558 0.94001 0.0
N186 N 0.78421 0.54731 0.0358 0.0
C187 C 0.76491 0.51239 0.08873 0.0
C188 C 0.78731 0.49852 0.0824 0.0
C189 C 0.80841 0.50973 0.05236 0.0
C190 C 0.80639 0.5339 0.02954 0.0
C191 C 0.7638 0.53646 0.06538 0.0
H192 H 0.82297 0.54132 0.00702 0.0
H193 H 0.74629 0.54603 0.07198 0.0
H194 H 0.74357 0.62507 0.00231 0.0
H195 H 0.81511 0.61651 0.93304 0.0
C196 C 0.83958 0.57694 0.95073 0.0
C197 C 0.85245 0.64621 0.05343 0.0
C198 C 0.71129 0.51494 0.95547 0.0
C199 C 0.7242 0.58764 0.05591 0.0
H200 H 0.91926 0.6635 0.02182 0.0
H201 H 0.91243 0.62575 0.96527 0.0
H202 H 0.809 0.52371 0.8982 0.0
H203 H 0.73865 0.49001 0.90091 0.0
H204 H 0.64461 0.49949 0.98552 0.0
H205 H 0.65122 0.53917 0.04069 0.0
H206 H 0.75532 0.63948 0.10987 0.0
H207 H 0.82582 0.67135 0.10815 0.0
H208 H 0.73323 0.65986 0.96113 0.0
H209 H 0.8069 0.65266 0.89094 0.0
H210 H 0.7485 0.50506 0.11193 0.0
H211 H 0.82601 0.49953 0.04616 0.0
C212 C 0.21935 0.85515 0.36292 0.0
C213 C 0.24076 0.88955 0.35046 0.0
C214 C 0.2549 0.88665 0.31975 0.0
C215 C 0.24155 0.85086 0.31522 0.0
N216 N 0.21932 0.83062 0.34096 0.0
Co217 Co 0.19508 0.77743 0.34525 0.0
N218 N 0.22085 0.77386 0.30336 0.0
C219 C 0.24553 0.80113 0.284 0.0
C220 C 0.25858 0.79058 0.25683 0.0
C221 C 0.24105 0.75434 0.25877 0.0
C222 C 0.21819 0.74486 0.28716 0.0
N223 N 0.1698 0.72411 0.34878 0.0
C224 C 0.17082 0.69975 0.32735 0.0
C225 C 0.14753 0.66518 0.33819 0.0
C226 C 0.13078 0.66773 0.36723 0.0
C227 C 0.14473 0.70355 0.37244 0.0
N228 N 0.17054 0.78122 0.38805 0.0
C229 C 0.14661 0.75413 0.40814 0.0
C230 C 0.136 0.76508 0.43696 0.0
C231 C 0.15491 0.80139 0.43569 0.0
C232 C 0.17606 0.81046 0.40607 0.0
N233 N 0.15568 0.77275 0.31489 0.0
C234 C 0.09881 0.75489 0.26833 0.0
C235 C 0.09252 0.744 0.3031 0.0
C236 C 0.12099 0.75329 0.32572 0.0
C237 C 0.13404 0.77729 0.25793 0.0
C238 C 0.16188 0.78602 0.28155 0.0
N239 N 0.23416 0.78166 0.37549 0.0
C240 C 0.25349 0.7629 0.42633 0.0
C241 C 0.28894 0.78872 0.4203 0.0
C242 C 0.29656 0.8107 0.39108 0.0
C243 C 0.26898 0.80675 0.36918 0.0
C244 C 0.22683 0.75985 0.40385 0.0
H245 H 0.27636 0.82443 0.34745 0.0
H246 H 0.20042 0.73969 0.41006 0.0
H247 H 0.11406 0.74343 0.35155 0.0
H248 H 0.18817 0.80262 0.27188 0.0
C249 C 0.25342 0.83603 0.29004 0.0
C250 C 0.20187 0.84717 0.39691 0.0
C251 C 0.19297 0.70799 0.29629 0.0
C252 C 0.13522 0.7187 0.39954 0.0
H253 H 0.2468 0.91436 0.3628 0.0
H254 H 0.27419 0.90818 0.30364 0.0
H255 H 0.27766 0.80718 0.23725 0.0
H256 H 0.24405 0.73687 0.24068 0.0
H257 H 0.14297 0.64066 0.32617 0.0
H258 H 0.11067 0.64606 0.3826 0.0
H259 H 0.11733 0.74864 0.4569 0.0
H260 H 0.15382 0.81923 0.45474 0.0
H261 H 0.06562 0.72764 0.31275 0.0
H262 H 0.14028 0.78682 0.23132 0.0
H263 H 0.24622 0.74474 0.44819 0.0
H264 H 0.32359 0.8313 0.38539 0.0
C265 C 0.3639 0.22598 0.69009 0.0
C266 C 0.35165 0.24865 0.6797 0.0
C267 C 0.36873 0.26413 0.64934 0.0
C268 C 0.3904 0.2502 0.64297 0.0
N269 N 0.38778 0.22626 0.66712 0.0
Co270 Co 0.41564 0.20071 0.6688 0.0
N271 N 0.44462 0.22756 0.62714 0.0
C272 C 0.4422 0.25303 0.60899 0.0
C273 C 0.46582 0.26699 0.5819 0.0
C274 C 0.48441 0.2493 0.58263 0.0
C275 C 0.47084 0.22533 0.61016 0.0
N276 N 0.44309 0.17469 0.67017 0.0
C277 C 0.46911 0.17709 0.64877 0.0
C278 C 0.48025 0.15332 0.65827 0.0
C279 C 0.46054 0.13515 0.68663 0.0
C280 C 0.43849 0.14871 0.69276 0.0
N281 N 0.38717 0.17449 0.71097 0.0
C282 C 0.38932 0.14888 0.72916 0.0
C283 C 0.36782 0.13735 0.75803 0.0
C284 C 0.35148 0.1573 0.75876 0.0
C285 C 0.36408 0.17991 0.7302 0.0
N286 N 0.38002 0.16295 0.63757 0.0
C287 C 0.33496 0.10896 0.59039 0.0
C288 C 0.34417 0.1006 0.62249 0.0
C289 C 0.36621 0.12764 0.64547 0.0
C290 C 0.34769 0.14492 0.58291 0.0
C291 C 0.36991 0.17122 0.60667 0.0
N292 N 0.45126 0.23821 0.69992 0.0
C293 C 0.48948 0.25465 0.75054 0.0
C294 C 0.50106 0.29067 0.74529 0.0
C295 C 0.48713 0.30005 0.71696 0.0
C296 C 0.46257 0.27358 0.69462 0.0
C297 C 0.46478 0.22915 0.72786 0.0
H298 H 0.45305 0.28228 0.67327 0.0
H299 H 0.45687 0.20221 0.73363 0.0
H300 H 0.37221 0.11914 0.66915 0.0
H301 H 0.37896 0.19803 0.59918 0.0
C302 C 0.4164 0.26215 0.61704 0.0
C303 C 0.35446 0.20708 0.7233 0.0
C304 C 0.48339 0.20068 0.61869 0.0
C305 C 0.41344 0.13785 0.71968 0.0
H306 H 0.33331 0.2545 0.69325 0.0
H307 H 0.3669 0.28445 0.6346 0.0
H308 H 0.46883 0.28726 0.56352 0.0
H309 H 0.50537 0.25334 0.56469 0.0
H310 H 0.50035 0.1493 0.64579 0.0
H311 H 0.46198 0.1144 0.70097 0.0
H312 H 0.3652 0.11762 0.77691 0.0
H313 H 0.33303 0.15601 0.77849 0.0
H314 H 0.3354 0.07327 0.62961 0.0
H315 H 0.34075 0.15289 0.55874 0.0
H316 H 0.49903 0.24599 0.77245 0.0
H317 H 0.4955 0.32769 0.71174 0.0
C318 C 0.27854 0.32899 0.90003 0.0
C319 C 0.24396 0.32413 0.8999 0.0
C320 C 0.28821 0.31083 0.8764 0.0
C321 C 0.26343 0.28706 0.85206 0.0
C322 C 0.22902 0.28259 0.85155 0.0
C323 C 0.21932 0.30082 0.87526 0.0
C324 C 0.27315 0.26805 0.82579 0.0
C325 C 0.30003 0.26122 0.83035 0.0
C326 C 0.31227 0.2452 0.80322 0.0
C327 C 0.34733 0.25153 0.8052 0.0
C328 C 0.36071 0.23852 0.77954 0.0
C329 C 0.33917 0.21867 0.75156 0.0
H330 H 0.26281 0.21758 0.77377 0.0
C331 C 0.30371 0.21097 0.7501 0.0
C332 C 0.2903 0.22414 0.77568 0.0
H333 H 0.2866 0.19522 0.72886 0.0
H334 H 0.29851 0.34752 0.91797 0.0
H335 H 0.31544 0.31637 0.87683 0.0
H336 H 0.2095 0.26478 0.83285 0.0
H337 H 0.19245 0.2964 0.8745 0.0
H338 H 0.25777 0.25999 0.80185 0.0
H339 H 0.31501 0.26901 0.85454 0.0
H340 H 0.36475 0.26733 0.82625 0.0
H341 H 0.38812 0.24454 0.78115 0.0
C342 C 0.93785 0.23734 0.22048 0.0
C343 C 0.93521 0.25897 0.24626 0.0
C344 C 0.9679 0.2507 0.19889 0.0
C345 C 0.9959 0.28612 0.20255 0.0
C346 C 0.99321 0.30749 0.22845 0.0
C347 C 0.96326 0.29424 0.24985 0.0
C348 C 0.02853 0.30208 0.18049 0.0
C349 C 0.03082 0.28957 0.14898 0.0
C350 C 0.06291 0.3078 0.12623 0.0
C351 C 0.06786 0.28813 0.0999 0.0
C352 C 0.0966 0.30471 0.07682 0.0
C353 C 0.12071 0.34131 0.07953 0.0
H354 H 0.08417 0.36114 0.14785 0.0
C355 C 0.11616 0.36107 0.10582 0.0
C356 C 0.08748 0.34459 0.12888 0.0
H357 H 0.13434 0.38949 0.1079 0.0
H358 H 0.91695 0.20991 0.21734 0.0
H359 H 0.96919 0.23295 0.17991 0.0
H360 H 0.01425 0.33485 0.23192 0.0
H361 H 0.96193 0.31193 0.26894 0.0
H362 H 0.05133 0.32603 0.19053 0.0
H363 H 0.00839 0.26535 0.13894 0.0
H364 H 0.04926 0.25991 0.09698 0.0
H365 H 0.09966 0.28915 0.05644 0.0
C366 C 0.7661 0.11279 0.44243 0.0
C367 C 0.78658 0.11765 0.41248 0.0
C368 C 0.75563 0.08299 0.46371 0.0
C369 C 0.76542 0.05743 0.45528 0.0
C370 C 0.78646 0.06276 0.4256 0.0
C371 C 0.79736 0.09286 0.40462 0.0
C372 C 0.75157 0.02367 0.4752 0.0
C373 C 0.74376 0.02102 0.50944 0.0
C374 C 0.72603 0.98655 0.52849 0.0
C375 C 0.73127 0.98626 0.56459 0.0
C376 C 0.71221 0.95484 0.58384 0.0
C377 C 0.68695 0.92324 0.56743 0.0
H378 H 0.69617 0.9539 0.48426 0.0
C379 C 0.6822 0.9233 0.5312 0.0
C380 C 0.7016 0.95458 0.51188 0.0
H381 H 0.66286 0.8993 0.51791 0.0
H382 H 0.75745 0.13162 0.44882 0.0
H383 H 0.73869 0.07934 0.48587 0.0
H384 H 0.79418 0.0434 0.41841 0.0
H385 H 0.81336 0.09631 0.38169 0.0
H386 H 0.74796 1.00035 0.46112 0.0
H387 H 0.75066 0.04497 0.52426 0.0
H388 H 0.74967 0.01057 0.57806 0.0
H389 H 0.71607 0.95565 0.61181 0.0
C390 C 0.75373 0.70611 0.90499 0.0
C391 C 0.76067 0.67886 0.89525 0.0
C392 C 0.74301 0.72251 0.88021 0.0
C393 C 0.73913 0.71215 0.84501 0.0
C394 C 0.74754 0.6861 0.83499 0.0
C395 C 0.75792 0.66943 0.85981 0.0
C396 C 0.72647 0.72798 0.81815 0.0
C397 C 0.7033 0.7393 0.82522 0.0
C398 C 0.68844 0.75255 0.79792 0.0
C399 C 0.65426 0.74798 0.80258 0.0
C400 C 0.63902 0.7591 0.77692 0.0
C401 C 0.65785 0.77524 0.74631 0.0
H402 H 0.73463 0.77509 0.76378 0.0
C403 C 0.69259 0.78133 0.74221 0.0
C404 C 0.70774 0.76992 0.76768 0.0
H405 H 0.70792 0.79474 0.71917 0.0
H406 H 0.75648 0.71477 0.93186 0.0
H407 H 0.73798 0.7434 0.88868 0.0
H408 H 0.74506 0.67783 0.80799 0.0
H409 H 0.76266 0.64835 0.8513 0.0
H410 H 0.73429 0.72758 0.79132 0.0
H411 H 0.69267 0.73627 0.85143 0.0
H412 H 0.63903 0.73513 0.82583 0.0
H413 H 0.61236 0.75471 0.78073 0.0
C414 C 0.88225 0.64579 0.10892 0.0
C415 C 0.88108 0.66456 0.0797 0.0
C416 C 0.9103 0.66204 0.13273 0.0
C417 C 0.93792 0.69741 0.12754 0.0
C418 C 0.93581 0.7165 0.09889 0.0
C419 C 0.90768 0.70019 0.07508 0.0
C420 C 0.96895 0.71518 0.15161 0.0
C421 C 0.98081 0.69697 0.17053 0.0
C422 C 0.01137 0.71342 0.19524 0.0
C423 C 0.01401 0.6914 0.22045 0.0
C424 C 0.04223 0.70502 0.24409 0.0
C425 C 0.06883 0.7411 0.24303 0.0
H426 H 0.03774 0.76731 0.17428 0.0
C427 C 0.06665 0.76321 0.21749 0.0
C428 C 0.03818 0.74957 0.19383 0.0
H429 H 0.08681 0.7911 0.21596 0.0
H430 H 0.86165 0.61837 0.11305 0.0
H431 H 0.91001 0.64681 0.15518 0.0
H432 H 0.95638 0.74387 0.0945 0.0
H433 H 0.90697 0.71512 0.05274 0.0
H434 H 0.98262 0.74402 0.15299 0.0
H435 H 0.96723 0.66817 0.16834 0.0
H436 H 0.99406 0.66342 0.22198 0.0
H437 H 0.04347 0.68705 0.26293 0.0
C438 C 0.28649 0.04666 0.57579 0.0
C439 C 0.31356 0.08037 0.56461 0.0
C440 C 0.26871 0.01881 0.552 0.0
C441 C 0.27745 0.02405 0.51636 0.0
C442 C 0.30317 0.05809 0.5049 0.0
C443 C 0.32124 0.08588 0.52874 0.0
C444 C 0.26048 0.99454 0.49066 0.0
C445 C 0.25041 0.96054 0.49883 0.0
C446 C 0.23662 0.93134 0.4727 0.0
C447 C 0.24315 0.90301 0.47768 0.0
C448 C 0.23161 0.87561 0.45314 0.0
C449 C 0.21285 0.87578 0.42342 0.0
H450 H 0.21049 0.95178 0.43921 0.0
C451 C 0.20498 0.90325 0.41901 0.0
C452 C 0.21695 0.93096 0.44332 0.0
H453 H 0.18993 0.90342 0.39654 0.0
H454 H 0.2791 0.04165 0.60304 0.0
H455 H 0.24811 0.99324 0.56159 0.0
H456 H 0.31018 0.06292 0.47754 0.0
H457 H 0.34208 0.1113 0.51911 0.0
H458 H 0.25921 0.00155 0.46371 0.0
H459 H 0.25516 0.95429 0.52502 0.0
H460 H 0.25789 0.90245 0.50025 0.0
H461 H 0.23767 0.85447 0.45712 0.0
C462 C 0.21402 0.66816 0.2721 0.0
C463 C 0.18857 0.67905 0.27256 0.0
C464 C 0.21161 0.64316 0.24763 0.0
C465 C 0.18376 0.62882 0.22297 0.0
C466 C 0.15755 0.6388 0.22456 0.0
C467 C 0.16002 0.66386 0.24904 0.0
C468 C 0.18122 0.60343 0.19542 0.0
C469 C 0.21003 0.60315 0.18254 0.0
C470 C 0.20914 0.57881 0.15458 0.0
C471 C 0.24164 0.58582 0.13978 0.0
C472 C 0.24284 0.5631 0.11473 0.0
C473 C 0.21152 0.53265 0.10377 0.0
H474 H 0.15198 0.54155 0.15418 0.0
C475 C 0.17881 0.52585 0.11791 0.0
C476 C 0.17759 0.54854 0.1432 0.0
H477 H 0.15427 0.50231 0.11029 0.0
H478 H 0.23607 0.67949 0.29031 0.0
H479 H 0.23158 0.63517 0.24822 0.0
H480 H 0.1356 0.62789 0.20623 0.0
H481 H 0.14013 0.672 0.24914 0.0
H482 H 0.15514 0.58619 0.18428 0.0
H483 H 0.23618 0.62267 0.19217 0.0
H484 H 0.26639 0.60886 0.14786 0.0
H485 H 0.26843 0.56932 0.10404 0.0
C486 C 0.50109 0.18309 0.56341 0.0
C487 C 0.5106 0.19953 0.59619 0.0
C488 C 0.52712 0.18426 0.54104 0.0
C489 C 0.56318 0.20192 0.55121 0.0
C490 C 0.57239 0.21806 0.58426 0.0
C491 C 0.54632 0.21677 0.60662 0.0
C492 C 0.59213 0.20612 0.52741 0.0
C493 C 0.58723 0.1844 0.50022 0.0
C494 C 0.61664 0.18996 0.47639 0.0
C495 C 0.61534 0.16052 0.45968 0.0
C496 C 0.64292 0.16494 0.43753 0.0
C497 C 0.67223 0.19903 0.43128 0.0
H498 H 0.64669 0.24764 0.48061 0.0
C499 C 0.67284 0.22859 0.44712 0.0
C500 C 0.64543 0.22415 0.46937 0.0
H501 H 0.69447 0.25533 0.44215 0.0
H502 H 0.47361 0.17004 0.55486 0.0
H503 H 0.51896 0.17235 0.51549 0.0
H504 H 0.59993 0.23208 0.59268 0.0
H505 H 0.55409 0.22984 0.63176 0.0
H506 H 0.61885 0.22753 0.5333 0.0
H507 H 0.56139 0.16088 0.49608 0.0
H508 H 0.59326 0.13392 0.46432 0.0
H509 H 0.64163 0.14154 0.42597 0.0
C510 C 0.45606 0.65391 0.76496 0.0
C511 C 0.48709 0.6855 0.77438 0.0
C512 C 0.43404 0.62992 0.79051 0.0
C513 C 0.44284 0.63682 0.82615 0.0
C514 C 0.47414 0.6682 0.83538 0.0
C515 C 0.49602 0.6922 0.80988 0.0
C516 C 0.4194 0.61329 0.85458 0.0
C517 C 0.39334 0.57925 0.84989 0.0
C518 C 0.36871 0.55646 0.87803 0.0
C519 C 0.34892 0.51943 0.87279 0.0
C520 C 0.32391 0.49717 0.89744 0.0
C521 C 0.3182 0.51155 0.9278 0.0
H522 H 0.37663 0.59904 0.91361 0.0
C523 C 0.33798 0.54835 0.93349 0.0
C524 C 0.36294 0.57069 0.90881 0.0
H525 H 0.3334 0.55985 0.95661 0.0
H526 H 0.44817 0.64826 0.73786 0.0
H527 H 0.40974 0.60669 0.78208 0.0
H528 H 0.48163 0.67437 0.86253 0.0
H529 H 0.51998 0.71609 0.818 0.0
H530 H 0.42459 0.62462 0.88059 0.0
H531 H 0.39005 0.56693 0.82452 0.0
H532 H 0.35247 0.50767 0.8493 0.0
H533 H 0.30852 0.46879 0.89253 0.0
C534 C 0.82067 0.47468 0.11638 0.0
C535 C 0.78829 0.47249 0.10703 0.0
C536 C 0.82143 0.45089 0.14064 0.0
C537 C 0.78968 0.42431 0.15612 0.0
C538 C 0.75736 0.42181 0.14611 0.0
C539 C 0.75663 0.44556 0.12199 0.0
C540 C 0.78847 0.39828 0.18234 0.0
C541 C 0.81707 0.40056 0.19874 0.0
C542 C 0.81414 0.37363 0.22464 0.0
C543 C 0.84258 0.36705 0.22836 0.0
C544 C 0.84001 0.34076 0.25131 0.0
C545 C 0.80913 0.32098 0.27124 0.0
H546 H 0.76184 0.35982 0.24465 0.0
C547 C 0.7813 0.32848 0.26879 0.0
C548 C 0.78375 0.3546 0.24574 0.0
H549 H 0.7574 0.31363 0.28427 0.0
H550 H 0.84555 0.49521 0.10542 0.0
H551 H 0.84695 0.45356 0.14684 0.0
H552 H 0.73241 0.40149 0.15719 0.0
H553 H 0.73114 0.44267 0.11492 0.0
H554 H 0.7623 0.37598 0.18839 0.0
H555 H 0.84364 0.42186 0.19249 0.0
H556 H 0.86645 0.38161 0.21279 0.0
H557 H 0.86178 0.33532 0.25297 0.0
C558 C 0.31176 0.78874 0.4806 0.0
C559 C 0.31754 0.79237 0.44436 0.0
C560 C 0.33809 0.79098 0.50323 0.0
C561 C 0.37086 0.79676 0.49012 0.0
C562 C 0.37693 0.80122 0.45401 0.0
C563 C 0.35057 0.79892 0.43136 0.0
C564 C 0.39966 0.7993 0.5132 0.0
C565 C 0.39391 0.78454 0.54525 0.0
C566 C 0.42289 0.78654 0.56767 0.0
C567 C 0.41464 0.76004 0.59301 0.0
C568 C 0.44139 0.76065 0.61395 0.0
C569 C 0.47674 0.78807 0.6102 0.0
H570 H 0.46575 0.83599 0.54632 0.0
C571 C 0.48502 0.815 0.58554 0.0
C572 C 0.45838 0.81443 0.56463 0.0
H573 H 0.51227 0.83631 0.58223 0.0
H574 H 0.28694 0.78454 0.49158 0.0
H575 H 0.33276 0.78873 0.53094 0.0
H576 H 0.40202 0.80601 0.44318 0.0
H577 H 0.35586 0.8016 0.4036 0.0
H578 H 0.42637 0.81226 0.50239 0.0
H579 H 0.36684 0.76863 0.5548 0.0
H580 H 0.38752 0.73843 0.59613 0.0
H581 H 0.43463 0.73952 0.6327 0.0
C582 C 0.52274 0.34566 0.78228 0.0
C583 C 0.52741 0.3179 0.76946 0.0
C584 C 0.54649 0.36983 0.80681 0.0
C585 C 0.57571 0.36693 0.81874 0.0
C586 C 0.58054 0.3395 0.80533 0.0
C587 C 0.55678 0.31534 0.78104 0.0
C588 C 0.60119 0.39077 0.84584 0.0
C589 C 0.60355 0.42129 0.85733 0.0
C590 C 0.63 0.44448 0.88402 0.0
C591 C 0.64147 0.48107 0.8843 0.0
C592 C 0.66734 0.50388 0.90806 0.0
C593 C 0.6819 0.49039 0.93215 0.0
H594 H 0.63474 0.40275 0.91085 0.0
C595 C 0.66966 0.45376 0.93294 0.0
C596 C 0.64382 0.43092 0.90921 0.0
H597 H 0.68046 0.44293 0.95164 0.0
H598 H 0.50009 0.34803 0.77417 0.0
H599 H 0.54115 0.39 0.81676 0.0
H600 H 0.60273 0.33651 0.81387 0.0
H601 H 0.56137 0.29451 0.77136 0.0
H602 H 0.6198 0.38312 0.85594 0.0
H603 H 0.5872 0.43094 0.84564 0.0
H604 H 0.63101 0.49219 0.86554 0.0
H605 H 0.6765 0.53214 0.90722 0.0
loop_
_geom_bond_atom_site_label_1
_geom_bond_atom_site_label_2
_geom_bond_distance
_geom_bond_site_symmetry_2
_ccdc_geom_bond_type
C0 C1 1.443 . S
C0 N4 1.376 . S
C0 C38 1.389 . S
C1 C0 1.443 . S
C1 C2 1.340 1_554 S
C1 H41 0.951 . S
C2 C1 1.340 1_556 S
C2 C3 1.439 . S
C2 H42 0.950 . S
C3 C2 1.439 . S
C3 N4 1.374 1_556 S
C3 C37 1.395 . S
N4 C0 1.376 . S
N4 C3 1.374 1_554 S
N4 Co5 2.008 . S
Co5 N4 2.008 . S
Co5 N6 1.995 1_554 S
Co5 N11 2.008 . S
Co5 N16 1.995 . S
Co5 N21 2.282 1_554 S
Co5 N27 2.282 . S
N6 Co5 1.995 1_556 S
N6 C7 1.376 . S
N6 C10 1.383 . S
C7 N6 1.376 . S
C7 C8 1.446 . S
C7 C37 1.391 . S
C8 C7 1.446 . S
C8 C9 1.339 . S
C8 H43 0.949 . S
C9 C8 1.339 . S
C9 C10 1.439 . S
C9 H44 0.950 . S
C10 N6 1.383 . S
C10 C9 1.439 . S
C10 C39 1.392 . S
N11 Co5 2.008 . S
N11 C12 1.376 1_554 S
N11 C15 1.374 . S
C12 N11 1.376 1_556 S
C12 C13 1.443 . S
C12 C39 1.389 . S
C13 C12 1.443 . S
C13 C14 1.340 1_556 S
C13 H45 0.951 . S
C14 C13 1.340 1_554 S
C14 C15 1.439 . S
C14 H46 0.950 . S
C15 N11 1.374 . S
C15 C14 1.439 . S
C15 C40 1.395 . S
N16 Co5 1.995 . S
N16 C17 1.376 . S
N16 C20 1.383 . S
C17 N16 1.376 . S
C17 C18 1.446 . S
C17 C40 1.391 . S
C18 C17 1.446 . S
C18 C19 1.339 . S
C18 H47 0.949 . S
C19 C18 1.339 . S
C19 C20 1.439 . S
C19 H48 0.950 . S
C20 N16 1.383 . S
C20 C19 1.439 . S
C20 C38 1.392 . S
N21 Co5 2.282 1_556 S
N21 C24 1.332 . S
N21 C26 1.332 . S
C22 C23 1.386 . S
C22 C25 1.388 . S
C23 C22 1.386 . S
C23 C24 1.382 . S
C23 H49 0.950 . S
C24 N21 1.332 . S
C24 C23 1.382 . S
C24 H35 0.952 1_556 S
C25 C22 1.388 . S
C25 C26 1.382 . S
C25 H50 0.950 . S
C26 N21 1.332 . S
C26 C25 1.382 . S
C26 H36 0.948 . S
N27 Co5 2.282 . S
N27 C31 1.332 . S
N27 C32 1.332 . S
C28 C29 1.388 . S
C28 C32 1.382 . S
C28 H51 0.950 . S
C29 C28 1.388 . S
C29 C30 1.386 . S
C30 C29 1.386 . S
C30 C31 1.382 . S
C30 H52 0.950 . S
C31 N27 1.332 . S
C31 C30 1.382 . S
C31 H33 0.952 . S
C32 N27 1.332 . S
C32 C28 1.382 . S
C32 H34 0.948 . S
H33 C31 0.952 . S
H34 C32 0.948 . S
H35 C24 0.952 1_554 S
H36 C26 0.948 . S
C37 C3 1.395 . S
C37 C7 1.391 . S
C38 C0 1.389 . S
C38 C20 1.392 . S
C39 C10 1.392 . S
C39 C12 1.389 . S
C40 C15 1.395 . S
C40 C17 1.391 . S
H41 C1 0.951 . S
H42 C2 0.950 . S
H43 C8 0.949 . S
H44 C9 0.950 . S
H45 C13 0.951 . S
H46 C14 0.950 . S
H47 C18 0.949 . S
H48 C19 0.950 . S
H49 C23 0.950 . S
H50 C25 0.950 . S
H51 C28 0.950 . S
H52 C30 0.950 . S
C53 C54 1.443 . S
C53 N57 1.376 . S
C53 C91 1.389 . S
C54 C53 1.443 . S
C54 C55 1.340 . S
C54 H94 0.951 . S
C55 C54 1.340 . S
C55 C56 1.439 . S
C55 H95 0.950 . S
C56 C55 1.439 . S
C56 N57 1.374 . S
C56 C90 1.395 . S
N57 C53 1.376 . S
N57 C56 1.374 . S
N57 Co58 2.008 . S
Co58 N57 2.008 . S
Co58 N59 1.995 . S
Co58 N64 2.008 . S
Co58 N69 1.995 . S
Co58 N74 2.282 . S
Co58 N80 2.282 . S
N59 Co58 1.995 . S
N59 C60 1.376 . S
N59 C63 1.383 . S
C60 N59 1.376 . S
C60 C61 1.446 . S
C60 C90 1.391 . S
C61 C60 1.446 . S
C61 C62 1.339 . S
C61 H96 0.949 . S
C62 C61 1.339 . S
C62 C63 1.439 . S
C62 H97 0.950 . S
C63 N59 1.383 . S
C63 C62 1.439 . S
C63 C92 1.392 . S
N64 Co58 2.008 . S
N64 C65 1.376 . S
N64 C68 1.374 . S
C65 N64 1.376 . S
C65 C66 1.443 . S
C65 C92 1.389 . S
C66 C65 1.443 . S
C66 C67 1.340 . S
C66 H98 0.951 . S
C67 C66 1.340 . S
C67 C68 1.439 . S
C67 H99 0.950 . S
C68 N64 1.374 . S
C68 C67 1.439 . S
C68 C93 1.395 . S
N69 Co58 1.995 . S
N69 C70 1.376 . S
N69 C73 1.383 . S
C70 N69 1.376 . S
C70 C71 1.446 . S
C70 C93 1.391 . S
C71 C70 1.446 . S
C71 C72 1.339 . S
C71 H100 0.949 . S
C72 C71 1.339 . S
C72 C73 1.439 . S
C72 H101 0.950 . S
C73 N69 1.383 . S
C73 C72 1.439 . S
C73 C91 1.392 . S
N74 Co58 2.282 . S
N74 C77 1.332 . S
N74 C79 1.332 . S
C75 C76 1.386 . S
C75 C78 1.388 . S
C76 C75 1.386 . S
C76 C77 1.382 . S
C76 H102 0.950 . S
C77 N74 1.332 . S
C77 C76 1.382 . S
C77 H88 0.952 . S
C78 C75 1.388 . S
C78 C79 1.382 . S
C78 H103 0.950 . S
C79 N74 1.332 . S
C79 C78 1.382 . S
C79 H89 0.948 . S
N80 Co58 2.282 . S
N80 C84 1.332 . S
N80 C85 1.332 . S
C81 C82 1.388 . S
C81 C85 1.382 . S
C81 H104 0.950 . S
C82 C81 1.388 . S
C82 C83 1.386 . S
C83 C82 1.386 . S
C83 C84 1.382 . S
C83 H105 0.950 . S
C84 N80 1.332 . S
C84 C83 1.382 . S
C84 H86 0.952 . S
C85 N80 1.332 . S
C85 C81 1.382 . S
C85 H87 0.948 . S
H86 C84 0.952 . S
H87 C85 0.948 . S
H88 C77 0.952 . S
H89 C79 0.948 . S
C90 C56 1.395 . S
C90 C60 1.391 . S
C91 C53 1.389 . S
C91 C73 1.392 . S
C92 C63 1.392 . S
C92 C65 1.389 . S
C93 C68 1.395 . S
C93 C70 1.391 . S
H94 C54 0.951 . S
H95 C55 0.950 . S
H96 C61 0.949 . S
H97 C62 0.950 . S
H98 C66 0.951 . S
H99 C67 0.950 . S
H100 C71 0.949 . S
H101 C72 0.950 . S
H102 C76 0.950 . S
H103 C78 0.950 . S
H104 C81 0.950 . S
H105 C83 0.950 . S
C106 C107 1.443 . S
C106 N110 1.376 . S
C106 C144 1.389 . S
C107 C106 1.443 . S
C107 C108 1.340 . S
C107 H147 0.951 . S
C108 C107 1.340 . S
C108 C109 1.439 . S
C108 H148 0.950 . S
C109 C108 1.439 . S
C109 N110 1.374 . S
C109 C143 1.395 . S
N110 C106 1.376 . S
N110 C109 1.374 . S
N110 Co111 2.008 . S
Co111 N110 2.008 . S
Co111 N112 1.995 . S
Co111 N117 2.008 . S
Co111 N122 1.995 . S
Co111 N127 2.282 . S
Co111 N133 2.282 . S
N112 Co111 1.995 . S
N112 C113 1.376 . S
N112 C116 1.383 . S
C113 N112 1.376 . S
C113 C114 1.446 . S
C113 C143 1.391 . S
C114 C113 1.446 . S
C114 C115 1.339 . S
C114 H149 0.949 . S
C115 C114 1.339 . S
C115 C116 1.439 . S
C115 H150 0.950 . S
C116 N112 1.383 . S
C116 C115 1.439 . S
C116 C145 1.392 . S
N117 Co111 2.008 . S
N117 C118 1.376 . S
N117 C121 1.374 . S
C118 N117 1.376 . S
C118 C119 1.443 . S
C118 C145 1.389 . S
C119 C118 1.443 . S
C119 C120 1.340 . S
C119 H151 0.951 . S
C120 C119 1.340 . S
C120 C121 1.439 . S
C120 H152 0.950 . S
C121 N117 1.374 . S
C121 C120 1.439 . S
C121 C146 1.395 . S
N122 Co111 1.995 . S
N122 C123 1.376 . S
N122 C126 1.383 . S
C123 N122 1.376 . S
C123 C124 1.446 . S
C123 C146 1.391 . S
C124 C123 1.446 . S
C124 C125 1.339 . S
C124 H153 0.949 . S
C125 C124 1.339 . S
C125 C126 1.439 . S
C125 H154 0.950 . S
C126 N122 1.383 . S
C126 C125 1.439 . S
C126 C144 1.392 . S
N127 Co111 2.282 . S
N127 C130 1.332 . S
N127 C132 1.332 . S
C128 C129 1.386 . S
C128 C131 1.388 . S
C129 C128 1.386 . S
C129 C130 1.382 . S
C129 H155 0.950 . S
C130 N127 1.332 . S
C130 C129 1.382 . S
C130 H141 0.952 . S
C131 C128 1.388 . S
C131 C132 1.382 . S
C131 H156 0.950 . S
C132 N127 1.332 . S
C132 C131 1.382 . S
C132 H142 0.948 . S
N133 Co111 2.282 . S
N133 C137 1.332 . S
N133 C138 1.332 . S
C134 C135 1.388 . S
C134 C138 1.382 . S
C134 H157 0.950 . S
C135 C134 1.388 . S
C135 C136 1.386 . S
C136 C135 1.386 . S
C136 C137 1.382 . S
C136 H158 0.950 . S
C137 N133 1.332 . S
C137 C136 1.382 . S
C137 H139 0.952 . S
C138 N133 1.332 . S
C138 C134 1.382 . S
C138 H140 0.948 . S
H139 C137 0.952 . S
H140 C138 0.948 . S
H141 C130 0.952 . S
H142 C132 0.948 . S
C143 C109 1.395 . S
C143 C113 1.391 . S
C144 C106 1.389 . S
C144 C126 1.392 . S
C145 C116 1.392 . S
C145 C118 1.389 . S
C146 C121 1.395 . S
C146 C123 1.391 . S
H147 C107 0.951 . S
H148 C108 0.950 . S
H149 C114 0.949 . S
H150 C115 0.950 . S
H151 C119 0.951 . S
H152 C120 0.950 . S
H153 C124 0.949 . S
H154 C125 0.950 . S
H155 C129 0.950 . S
H156 C131 0.950 . S
H157 C134 0.950 . S
H158 C136 0.950 . S
C159 C160 1.443 . S
C159 N163 1.376 . S
C159 C197 1.389 . S
C160 C159 1.443 . S
C160 C161 1.340 1_554 S
C160 H200 0.951 . S
C161 C160 1.340 1_556 S
C161 C162 1.439 . S
C161 H201 0.950 . S
C162 C161 1.439 . S
C162 N163 1.374 1_556 S
C162 C196 1.395 . S
N163 C159 1.376 . S
N163 C162 1.374 1_554 S
N163 Co164 2.008 . S
Co164 N163 2.008 . S
Co164 N165 1.995 1_554 S
Co164 N170 2.008 . S
Co164 N175 1.995 . S
Co164 N180 2.282 1_554 S
Co164 N186 2.282 . S
N165 Co164 1.995 1_556 S
N165 C166 1.376 . S
N165 C169 1.383 . S
C166 N165 1.376 . S
C166 C167 1.446 . S
C166 C196 1.391 . S
C167 C166 1.446 . S
C167 C168 1.339 . S
C167 H202 0.949 . S
C168 C167 1.339 . S
C168 C169 1.439 . S
C168 H203 0.950 . S
C169 N165 1.383 . S
C169 C168 1.439 . S
C169 C198 1.392 . S
N170 Co164 2.008 . S
N170 C171 1.376 1_554 S
N170 C174 1.374 . S
C171 N170 1.376 1_556 S
C171 C172 1.443 . S
C171 C198 1.389 . S
C172 C171 1.443 . S
C172 C173 1.340 1_556 S
C172 H204 0.951 . S
C173 C172 1.340 1_554 S
C173 C174 1.439 . S
C173 H205 0.950 . S
C174 N170 1.374 . S
C174 C173 1.439 . S
C174 C199 1.395 . S
N175 Co164 1.995 . S
N175 C176 1.376 . S
N175 C179 1.383 . S
C176 N175 1.376 . S
C176 C177 1.446 . S
C176 C199 1.391 . S
C177 C176 1.446 . S
C177 C178 1.339 . S
C177 H206 0.949 . S
C178 C177 1.339 . S
C178 C179 1.439 . S
C178 H207 0.950 . S
C179 N175 1.383 . S
C179 C178 1.439 . S
C179 C197 1.392 . S
N180 Co164 2.282 1_556 S
N180 C183 1.332 . S
N180 C185 1.332 . S
C181 C182 1.386 . S
C181 C184 1.388 . S
C182 C181 1.386 . S
C182 C183 1.382 . S
C182 H208 0.950 . S
C183 N180 1.332 . S
C183 C182 1.382 . S
C183 H194 0.952 1_556 S
C184 C181 1.388 . S
C184 C185 1.382 . S
C184 H209 0.950 . S
C185 N180 1.332 . S
C185 C184 1.382 . S
C185 H195 0.948 . S
N186 Co164 2.282 . S
N186 C190 1.332 . S
N186 C191 1.332 . S
C187 C188 1.388 . S
C187 C191 1.382 . S
C187 H210 0.950 . S
C188 C187 1.388 . S
C188 C189 1.386 . S
C189 C188 1.386 . S
C189 C190 1.382 . S
C189 H211 0.950 . S
C190 N186 1.332 . S
C190 C189 1.382 . S
C190 H192 0.952 . S
C191 N186 1.332 . S
C191 C187 1.382 . S
C191 H193 0.948 . S
H192 C190 0.952 . S
H193 C191 0.948 . S
H194 C183 0.952 1_554 S
H195 C185 0.948 . S
C196 C162 1.395 . S
C196 C166 1.391 . S
C197 C159 1.389 . S
C197 C179 1.392 . S
C198 C169 1.392 . S
C198 C171 1.389 . S
C199 C174 1.395 . S
C199 C176 1.391 . S
H200 C160 0.951 . S
H201 C161 0.950 . S
H202 C167 0.949 . S
H203 C168 0.950 . S
H204 C172 0.951 . S
H205 C173 0.950 . S
H206 C177 0.949 . S
H207 C178 0.950 . S
H208 C182 0.950 . S
H209 C184 0.950 . S
H210 C187 0.950 . S
H211 C189 0.950 . S
C212 C213 1.443 . S
C212 N216 1.376 . S
C212 C250 1.389 . S
C213 C212 1.443 . S
C213 C214 1.340 . S
C213 H253 0.951 . S
C214 C213 1.340 . S
C214 C215 1.439 . S
C214 H254 0.950 . S
C215 C214 1.439 . S
C215 N216 1.374 . S
C215 C249 1.395 . S
N216 C212 1.376 . S
N216 C215 1.374 . S
N216 Co217 2.008 . S
Co217 N216 2.008 . S
Co217 N218 1.995 . S
Co217 N223 2.008 . S
Co217 N228 1.995 . S
Co217 N233 2.282 . S
Co217 N239 2.282 . S
N218 Co217 1.995 . S
N218 C219 1.376 . S
N218 C222 1.383 . S
C219 N218 1.376 . S
C219 C220 1.446 . S
C219 C249 1.391 . S
C220 C219 1.446 . S
C220 C221 1.339 . S
C220 H255 0.949 . S
C221 C220 1.339 . S
C221 C222 1.439 . S
C221 H256 0.950 . S
C222 N218 1.383 . S
C222 C221 1.439 . S
C222 C251 1.392 . S
N223 Co217 2.008 . S
N223 C224 1.376 . S
N223 C227 1.374 . S
C224 N223 1.376 . S
C224 C225 1.443 . S
C224 C251 1.389 . S
C225 C224 1.443 . S
C225 C226 1.340 . S
C225 H257 0.951 . S
C226 C225 1.340 . S
C226 C227 1.439 . S
C226 H258 0.950 . S
C227 N223 1.374 . S
C227 C226 1.439 . S
C227 C252 1.395 . S
N228 Co217 1.995 . S
N228 C229 1.376 . S
N228 C232 1.383 . S
C229 N228 1.376 . S
C229 C230 1.446 . S
C229 C252 1.391 . S
C230 C229 1.446 . S
C230 C231 1.339 . S
C230 H259 0.949 . S
C231 C230 1.339 . S
C231 C232 1.439 . S
C231 H260 0.950 . S
C232 N228 1.383 . S
C232 C231 1.439 . S
C232 C250 1.392 . S
N233 Co217 2.282 . S
N233 C236 1.332 . S
N233 C238 1.332 . S
C234 C235 1.386 . S
C234 C237 1.388 . S
C235 C234 1.386 . S
C235 C236 1.382 . S
C235 H261 0.950 . S
C236 N233 1.332 . S
C236 C235 1.382 . S
C236 H247 0.952 . S
C237 C234 1.388 . S
C237 C238 1.382 . S
C237 H262 0.950 . S
C238 N233 1.332 . S
C238 C237 1.382 . S
C238 H248 0.948 . S
N239 Co217 2.282 . S
N239 C243 1.332 . S
N239 C244 1.332 . S
C240 C241 1.388 . S
C240 C244 1.382 . S
C240 H263 0.950 . S
C241 C240 1.388 . S
C241 C242 1.386 . S
C242 C241 1.386 . S
C242 C243 1.382 . S
C242 H264 0.950 . S
C243 N239 1.332 . S
C243 C242 1.382 . S
C243 H245 0.952 . S
C244 N239 1.332 . S
C244 C240 1.382 . S
C244 H246 0.948 . S
H245 C243 0.952 . S
H246 C244 0.948 . S
H247 C236 0.952 . S
H248 C238 0.948 . S
C249 C215 1.395 . S
C249 C219 1.391 . S
C250 C212 1.389 . S
C250 C232 1.392 . S
C251 C222 1.392 . S
C251 C224 1.389 . S
C252 C227 1.395 . S
C252 C229 1.391 . S
H253 C213 0.951 . S
H254 C214 0.950 . S
H255 C220 0.949 . S
H256 C221 0.950 . S
H257 C225 0.951 . S
H258 C226 0.950 . S
H259 C230 0.949 . S
H260 C231 0.950 . S
H261 C235 0.950 . S
H262 C237 0.950 . S
H263 C240 0.950 . S
H264 C242 0.950 . S
C265 C266 1.443 . S
C265 N269 1.376 . S
C265 C303 1.389 . S
C266 C265 1.443 . S
C266 C267 1.340 . S
C266 H306 0.951 . S
C267 C266 1.340 . S
C267 C268 1.439 . S
C267 H307 0.950 . S
C268 C267 1.439 . S
C268 N269 1.374 . S
C268 C302 1.395 . S
N269 C265 1.376 . S
N269 C268 1.374 . S
N269 Co270 2.008 . S
Co270 N269 2.008 . S
Co270 N271 1.995 . S
Co270 N276 2.008 . S
Co270 N281 1.995 . S
Co270 N286 2.282 . S
Co270 N292 2.282 . S
N271 Co270 1.995 . S
N271 C272 1.376 . S
N271 C275 1.383 . S
C272 N271 1.376 . S
C272 C273 1.446 . S
C272 C302 1.391 . S
C273 C272 1.446 . S
C273 C274 1.339 . S
C273 H308 0.949 . S
C274 C273 1.339 . S
C274 C275 1.439 . S
C274 H309 0.950 . S
C275 N271 1.383 . S
C275 C274 1.439 . S
C275 C304 1.392 . S
N276 Co270 2.008 . S
N276 C277 1.376 . S
N276 C280 1.374 . S
C277 N276 1.376 . S
C277 C278 1.443 . S
C277 C304 1.389 . S
C278 C277 1.443 . S
C278 C279 1.340 . S
C278 H310 0.951 . S
C279 C278 1.340 . S
C279 C280 1.439 . S
C279 H311 0.950 . S
C280 N276 1.374 . S
C280 C279 1.439 . S
C280 C305 1.395 . S
N281 Co270 1.995 . S
N281 C282 1.376 . S
N281 C285 1.383 . S
C282 N281 1.376 . S
C282 C283 1.446 . S
C282 C305 1.391 . S
C283 C282 1.446 . S
C283 C284 1.339 . S
C283 H312 0.949 . S
C284 C283 1.339 . S
C284 C285 1.439 . S
C284 H313 0.950 . S
C285 N281 1.383 . S
C285 C284 1.439 . S
C285 C303 1.392 . S
N286 Co270 2.282 . S
N286 C289 1.332 . S
N286 C291 1.332 . S
C287 C288 1.386 . S
C287 C290 1.388 . S
C288 C287 1.386 . S
C288 C289 1.382 . S
C288 H314 0.950 . S
C289 N286 1.332 . S
C289 C288 1.382 . S
C289 H300 0.952 . S
C290 C287 1.388 . S
C290 C291 1.382 . S
C290 H315 0.950 . S
C291 N286 1.332 . S
C291 C290 1.382 . S
C291 H301 0.948 . S
N292 Co270 2.282 . S
N292 C296 1.332 . S
N292 C297 1.332 . S
C293 C294 1.388 . S
C293 C297 1.382 . S
C293 H316 0.950 . S
C294 C293 1.388 . S
C294 C295 1.386 . S
C295 C294 1.386 . S
C295 C296 1.382 . S
C295 H317 0.950 . S
C296 N292 1.332 . S
C296 C295 1.382 . S
C296 H298 0.952 . S
C297 N292 1.332 . S
C297 C293 1.382 . S
C297 H299 0.948 . S
H298 C296 0.952 . S
H299 C297 0.948 . S
H300 C289 0.952 . S
H301 C291 0.948 . S
C302 C268 1.395 . S
C302 C272 1.391 . S
C303 C265 1.389 . S
C303 C285 1.392 . S
C304 C275 1.392 . S
C304 C277 1.389 . S
C305 C280 1.395 . S
C305 C282 1.391 . S
H306 C266 0.951 . S
H307 C267 0.950 . S
H308 C273 0.949 . S
H309 C274 0.950 . S
H310 C278 0.951 . S
H311 C279 0.950 . S
H312 C283 0.949 . S
H313 C284 0.950 . S
H314 C288 0.950 . S
H315 C290 0.950 . S
H316 C293 0.950 . S
H317 C295 0.950 . S
C318 C319 1.386 . S
C318 C320 1.383 . S
C318 H334 0.951 . S
C319 C318 1.386 . S
C319 C323 1.383 . S
C320 C318 1.383 . S
C320 C321 1.402 . S
C320 H335 0.951 . S
C321 C320 1.402 . S
C321 C322 1.375 . S
C321 C324 1.481 . S
C322 C321 1.375 . S
C322 C323 1.367 . S
C322 H336 0.951 . S
C323 C319 1.383 . S
C323 C322 1.367 . S
C323 H337 0.950 . S
C324 C321 1.481 . S
C324 C325 1.297 . S
C324 H338 0.950 . S
C325 C324 1.297 . S
C325 C326 1.479 . S
C325 H339 0.950 . S
C326 C325 1.479 . S
C326 C327 1.375 . S
C326 C332 1.404 . S
C327 C326 1.375 . S
C327 C328 1.369 . S
C327 H340 0.950 . S
C328 C327 1.369 . S
C328 C329 1.392 . S
C328 H341 0.951 . S
C329 C328 1.392 . S
C329 C331 1.384 . S
H330 C332 0.949 . S
C331 C329 1.384 . S
C331 C332 1.385 . S
C331 H333 0.950 . S
C332 C326 1.404 . S
C332 H330 0.949 . S
C332 C331 1.385 . S
H333 C331 0.950 . S
H334 C318 0.951 . S
H335 C320 0.951 . S
H336 C322 0.951 . S
H337 C323 0.950 . S
H338 C324 0.950 . S
H339 C325 0.950 . S
H340 C327 0.950 . S
H341 C328 0.951 . S
C342 C343 1.386 . S
C342 C344 1.383 . S
C342 H358 0.951 . S
C343 C342 1.386 . S
C343 C347 1.383 . S
C344 C342 1.383 . S
C344 C345 1.402 . S
C344 H359 0.951 . S
C345 C344 1.402 . S
C345 C346 1.375 . S
C345 C348 1.481 1_655 S
C346 C345 1.375 . S
C346 C347 1.367 . S
C346 H360 0.951 . S
C347 C343 1.383 . S
C347 C346 1.367 . S
C347 H361 0.950 . S
C348 C345 1.481 1_455 S
C348 C349 1.297 . S
C348 H362 0.950 . S
C349 C348 1.297 . S
C349 C350 1.479 . S
C349 H363 0.950 1_455 S
C350 C349 1.479 . S
C350 C351 1.375 . S
C350 C356 1.404 . S
C351 C350 1.375 . S
C351 C352 1.369 . S
C351 H364 0.950 . S
C352 C351 1.369 . S
C352 C353 1.392 . S
C352 H365 0.951 . S
C353 C352 1.392 . S
C353 C355 1.384 . S
H354 C356 0.949 . S
C355 C353 1.384 . S
C355 C356 1.385 . S
C355 H357 0.950 . S
C356 C350 1.404 . S
C356 H354 0.949 . S
C356 C355 1.385 . S
H357 C355 0.950 . S
H358 C342 0.951 . S
H359 C344 0.951 . S
H360 C346 0.951 . S
H361 C347 0.950 . S
H362 C348 0.950 . S
H363 C349 0.950 1_655 S
H364 C351 0.950 . S
H365 C352 0.951 . S
C366 C367 1.386 . S
C366 C368 1.383 . S
C366 H382 0.951 . S
C367 C366 1.386 . S
C367 C371 1.383 . S
C368 C366 1.383 . S
C368 C369 1.402 . S
C368 H383 0.951 . S
C369 C368 1.402 . S
C369 C370 1.375 . S
C369 C372 1.481 . S
C370 C369 1.375 . S
C370 C371 1.367 . S
C370 H384 0.951 . S
C371 C367 1.383 . S
C371 C370 1.367 . S
C371 H385 0.950 . S
C372 C369 1.481 . S
C372 C373 1.297 . S
C372 H386 0.950 1_545 S
C373 C372 1.297 . S
C373 C374 1.479 1_545 S
C373 H387 0.950 . S
C374 C373 1.479 1_565 S
C374 C375 1.375 . S
C374 C380 1.404 . S
C375 C374 1.375 . S
C375 C376 1.369 . S
C375 H388 0.950 1_565 S
C376 C375 1.369 . S
C376 C377 1.392 . S
C376 H389 0.951 . S
C377 C376 1.392 . S
C377 C379 1.384 . S
H378 C380 0.949 . S
C379 C377 1.384 . S
C379 C380 1.385 . S
C379 H381 0.950 . S
C380 C374 1.404 . S
C380 H378 0.949 . S
C380 C379 1.385 . S
H381 C379 0.950 . S
H382 C366 0.951 . S
H383 C368 0.951 . S
H384 C370 0.951 . S
H385 C371 0.950 . S
H386 C372 0.950 1_565 S
H387 C373 0.950 . S
H388 C375 0.950 1_545 S
H389 C376 0.951 . S
C390 C391 1.386 . S
C390 C392 1.383 . S
C390 H406 0.951 . S
C391 C390 1.386 . S
C391 C395 1.383 . S
C392 C390 1.383 . S
C392 C393 1.402 . S
C392 H407 0.951 . S
C393 C392 1.402 . S
C393 C394 1.375 . S
C393 C396 1.481 . S
C394 C393 1.375 . S
C394 C395 1.367 . S
C394 H408 0.951 . S
C395 C391 1.383 . S
C395 C394 1.367 . S
C395 H409 0.950 . S
C396 C393 1.481 . S
C396 C397 1.297 . S
C396 H410 0.950 . S
C397 C396 1.297 . S
C397 C398 1.479 . S
C397 H411 0.950 . S
C398 C397 1.479 . S
C398 C399 1.375 . S
C398 C404 1.404 . S
C399 C398 1.375 . S
C399 C400 1.369 . S
C399 H412 0.950 . S
C400 C399 1.369 . S
C400 C401 1.392 . S
C400 H413 0.951 . S
C401 C400 1.392 . S
C401 C403 1.384 . S
H402 C404 0.949 . S
C403 C401 1.384 . S
C403 C404 1.385 . S
C403 H405 0.950 . S
C404 C398 1.404 . S
C404 H402 0.949 . S
C404 C403 1.385 . S
H405 C403 0.950 . S
H406 C390 0.951 . S
H407 C392 0.951 . S
H408 C394 0.951 . S
H409 C395 0.950 . S
H410 C396 0.950 . S
H411 C397 0.950 . S
H412 C399 0.950 . S
H413 C400 0.951 . S
C414 C415 1.386 . S
C414 C416 1.383 . S
C414 H430 0.951 . S
C415 C414 1.386 . S
C415 C419 1.383 . S
C416 C414 1.383 . S
C416 C417 1.402 . S
C416 H431 0.951 . S
C417 C416 1.402 . S
C417 C418 1.375 . S
C417 C420 1.481 . S
C418 C417 1.375 . S
C418 C419 1.367 . S
C418 H432 0.951 . S
C419 C415 1.383 . S
C419 C418 1.367 . S
C419 H433 0.950 . S
C420 C417 1.481 . S
C420 C421 1.297 1_655 S
C420 H434 0.950 . S
C421 C420 1.297 1_455 S
C421 C422 1.479 . S
C421 H435 0.950 1_455 S
C422 C421 1.479 . S
C422 C423 1.375 . S
C422 C428 1.404 . S
C423 C422 1.375 . S
C423 C424 1.369 . S
C423 H436 0.950 . S
C424 C423 1.369 . S
C424 C425 1.392 . S
C424 H437 0.951 . S
C425 C424 1.392 . S
C425 C427 1.384 . S
H426 C428 0.949 . S
C427 C425 1.384 . S
C427 C428 1.385 . S
C427 H429 0.950 . S
C428 C422 1.404 . S
C428 H426 0.949 . S
C428 C427 1.385 . S
H429 C427 0.950 . S
H430 C414 0.951 . S
H431 C416 0.951 . S
H432 C418 0.951 . S
H433 C419 0.950 . S
H434 C420 0.950 . S
H435 C421 0.950 1_655 S
H436 C423 0.950 . S
H437 C424 0.951 . S
C438 C439 1.386 . S
C438 C440 1.383 . S
C438 H454 0.951 . S
C439 C438 1.386 . S
C439 C443 1.383 . S
C440 C438 1.383 . S
C440 C441 1.402 . S
C440 H455 0.951 . S
C441 C440 1.402 . S
C441 C442 1.375 . S
C441 C444 1.481 . S
C442 C441 1.375 . S
C442 C443 1.367 . S
C442 H456 0.951 . S
C443 C439 1.383 . S
C443 C442 1.367 . S
C443 H457 0.950 . S
C444 C441 1.481 . S
C444 C445 1.297 1_545 S
C444 H458 0.950 . S
C445 C444 1.297 1_565 S
C445 C446 1.479 . S
C445 H459 0.950 . S
C446 C445 1.479 . S
C446 C447 1.375 . S
C446 C452 1.404 . S
C447 C446 1.375 . S
C447 C448 1.369 . S
C447 H460 0.950 . S
C448 C447 1.369 . S
C448 C449 1.392 . S
C448 H461 0.951 . S
C449 C448 1.392 . S
C449 C451 1.384 . S
H450 C452 0.949 . S
C451 C449 1.384 . S
C451 C452 1.385 . S
C451 H453 0.950 . S
C452 C446 1.404 . S
C452 H450 0.949 . S
C452 C451 1.385 . S
H453 C451 0.950 . S
H454 C438 0.951 . S
H455 C440 0.951 . S
H456 C442 0.951 . S
H457 C443 0.950 . S
H458 C444 0.950 . S
H459 C445 0.950 . S
H460 C447 0.950 . S
H461 C448 0.951 . S
C462 C463 1.386 . S
C462 C464 1.383 . S
C462 H478 0.951 . S
C463 C462 1.386 . S
C463 C467 1.383 . S
C464 C462 1.383 . S
C464 C465 1.402 . S
C464 H479 0.951 . S
C465 C464 1.402 . S
C465 C466 1.375 . S
C465 C468 1.481 . S
C466 C465 1.375 . S
C466 C467 1.367 . S
C466 H480 0.951 . S
C467 C463 1.383 . S
C467 C466 1.367 . S
C467 H481 0.950 . S
C468 C465 1.481 . S
C468 C469 1.297 . S
C468 H482 0.950 . S
C469 C468 1.297 . S
C469 C470 1.479 . S
C469 H483 0.950 . S
C470 C469 1.479 . S
C470 C471 1.375 . S
C470 C476 1.404 . S
C471 C470 1.375 . S
C471 C472 1.369 . S
C471 H484 0.950 . S
C472 C471 1.369 . S
C472 C473 1.392 . S
C472 H485 0.951 . S
C473 C472 1.392 . S
C473 C475 1.384 . S
H474 C476 0.949 . S
C475 C473 1.384 . S
C475 C476 1.385 . S
C475 H477 0.950 . S
C476 C470 1.404 . S
C476 H474 0.949 . S
C476 C475 1.385 . S
H477 C475 0.950 . S
H478 C462 0.951 . S
H479 C464 0.951 . S
H480 C466 0.951 . S
H481 C467 0.950 . S
H482 C468 0.950 . S
H483 C469 0.950 . S
H484 C471 0.950 . S
H485 C472 0.951 . S
C486 C487 1.386 . S
C486 C488 1.383 . S
C486 H502 0.951 . S
C487 C486 1.386 . S
C487 C491 1.383 . S
C488 C486 1.383 . S
C488 C489 1.402 . S
C488 H503 0.951 . S
C489 C488 1.402 . S
C489 C490 1.375 . S
C489 C492 1.481 . S
C490 C489 1.375 . S
C490 C491 1.367 . S
C490 H504 0.951 . S
C491 C487 1.383 . S
C491 C490 1.367 . S
C491 H505 0.950 . S
C492 C489 1.481 . S
C492 C493 1.297 . S
C492 H506 0.950 . S
C493 C492 1.297 . S
C493 C494 1.479 . S
C493 H507 0.950 . S
C494 C493 1.479 . S
C494 C495 1.375 . S
C494 C500 1.404 . S
C495 C494 1.375 . S
C495 C496 1.369 . S
C495 H508 0.950 . S
C496 C495 1.369 . S
C496 C497 1.392 . S
C496 H509 0.951 . S
C497 C496 1.392 . S
C497 C499 1.384 . S
H498 C500 0.949 . S
C499 C497 1.384 . S
C499 C500 1.385 . S
C499 H501 0.950 . S
C500 C494 1.404 . S
C500 H498 0.949 . S
C500 C499 1.385 . S
H501 C499 0.950 . S
H502 C486 0.951 . S
H503 C488 0.951 . S
H504 C490 0.951 . S
H505 C491 0.950 . S
H506 C492 0.950 . S
H507 C493 0.950 . S
H508 C495 0.950 . S
H509 C496 0.951 . S
C510 C511 1.386 . S
C510 C512 1.383 . S
C510 H526 0.951 . S
C511 C510 1.386 . S
C511 C515 1.383 . S
C512 C510 1.383 . S
C512 C513 1.402 . S
C512 H527 0.951 . S
C513 C512 1.402 . S
C513 C514 1.375 . S
C513 C516 1.481 . S
C514 C513 1.375 . S
C514 C515 1.367 . S
C514 H528 0.951 . S
C515 C511 1.383 . S
C515 C514 1.367 . S
C515 H529 0.950 . S
C516 C513 1.481 . S
C516 C517 1.297 . S
C516 H530 0.950 . S
C517 C516 1.297 . S
C517 C518 1.479 . S
C517 H531 0.950 . S
C518 C517 1.479 . S
C518 C519 1.375 . S
C518 C524 1.404 . S
C519 C518 1.375 . S
C519 C520 1.369 . S
C519 H532 0.950 . S
C520 C519 1.369 . S
C520 C521 1.392 . S
C520 H533 0.951 . S
C521 C520 1.392 . S
C521 C523 1.384 . S
H522 C524 0.949 . S
C523 C521 1.384 . S
C523 C524 1.385 . S
C523 H525 0.950 . S
C524 C518 1.404 . S
C524 H522 0.949 . S
C524 C523 1.385 . S
H525 C523 0.950 . S
H526 C510 0.951 . S
H527 C512 0.951 . S
H528 C514 0.951 . S
H529 C515 0.950 . S
H530 C516 0.950 . S
H531 C517 0.950 . S
H532 C519 0.950 . S
H533 C520 0.951 . S
C534 C535 1.386 . S
C534 C536 1.383 . S
C534 H550 0.951 . S
C535 C534 1.386 . S
C535 C539 1.383 . S
C536 C534 1.383 . S
C536 C537 1.402 . S
C536 H551 0.951 . S
C537 C536 1.402 . S
C537 C538 1.375 . S
C537 C540 1.481 . S
C538 C537 1.375 . S
C538 C539 1.367 . S
C538 H552 0.951 . S
C539 C535 1.383 . S
C539 C538 1.367 . S
C539 H553 0.950 . S
C540 C537 1.481 . S
C540 C541 1.297 . S
C540 H554 0.950 . S
C541 C540 1.297 . S
C541 C542 1.479 . S
C541 H555 0.950 . S
C542 C541 1.479 . S
C542 C543 1.375 . S
C542 C548 1.404 . S
C543 C542 1.375 . S
C543 C544 1.369 . S
C543 H556 0.950 . S
C544 C543 1.369 . S
C544 C545 1.392 . S
C544 H557 0.951 . S
C545 C544 1.392 . S
C545 C547 1.384 . S
H546 C548 0.949 . S
C547 C545 1.384 . S
C547 C548 1.385 . S
C547 H549 0.950 . S
C548 C542 1.404 . S
C548 H546 0.949 . S
C548 C547 1.385 . S
H549 C547 0.950 . S
H550 C534 0.951 . S
H551 C536 0.951 . S
H552 C538 0.951 . S
H553 C539 0.950 . S
H554 C540 0.950 . S
H555 C541 0.950 . S
H556 C543 0.950 . S
H557 C544 0.951 . S
C558 C559 1.386 . S
C558 C560 1.383 . S
C558 H574 0.951 . S
C559 C558 1.386 . S
C559 C563 1.383 . S
C560 C558 1.383 . S
C560 C561 1.402 . S
C560 H575 0.951 . S
C561 C560 1.402 . S
C561 C562 1.375 . S
C561 C564 1.481 . S
C562 C561 1.375 . S
C562 C563 1.367 . S
C562 H576 0.951 . S
C563 C559 1.383 . S
C563 C562 1.367 . S
C563 H577 0.950 . S
C564 C561 1.481 . S
C564 C565 1.297 . S
C564 H578 0.950 . S
C565 C564 1.297 . S
C565 C566 1.479 . S
C565 H579 0.950 . S
C566 C565 1.479 . S
C566 C567 1.375 . S
C566 C572 1.404 . S
C567 C566 1.375 . S
C567 C568 1.369 . S
C567 H580 0.950 . S
C568 C567 1.369 . S
C568 C569 1.392 . S
C568 H581 0.951 . S
C569 C568 1.392 . S
C569 C571 1.384 . S
H570 C572 0.949 . S
C571 C569 1.384 . S
C571 C572 1.385 . S
C571 H573 0.950 . S
C572 C566 1.404 . S
C572 H570 0.949 . S
C572 C571 1.385 . S
H573 C571 0.950 . S
H574 C558 0.951 . S
H575 C560 0.951 . S
H576 C562 0.951 . S
H577 C563 0.950 . S
H578 C564 0.950 . S
H579 C565 0.950 . S
H580 C567 0.950 . S
H581 C568 0.951 . S
C582 C583 1.386 . S
C582 C584 1.383 . S
C582 H598 0.951 . S
C583 C582 1.386 . S
C583 C587 1.383 . S
C584 C582 1.383 . S
C584 C585 1.402 . S
C584 H599 0.951 . S
C585 C584 1.402 . S
C585 C586 1.375 . S
C585 C588 1.481 . S
C586 C585 1.375 . S
C586 C587 1.367 . S
C586 H600 0.951 . S
C587 C583 1.383 . S
C587 C586 1.367 . S
C587 H601 0.950 . S
C588 C585 1.481 . S
C588 C589 1.297 . S
C588 H602 0.950 . S
C589 C588 1.297 . S
C589 C590 1.479 . S
C589 H603 0.950 . S
C590 C589 1.479 . S
C590 C591 1.375 . S
C590 C596 1.404 . S
C591 C590 1.375 . S
C591 C592 1.369 . S
C591 H604 0.950 . S
C592 C591 1.369 . S
C592 C593 1.392 . S
C592 H605 0.951 . S
C593 C592 1.392 . S
C593 C595 1.384 . S
H594 C596 0.949 . S
C595 C593 1.384 . S
C595 C596 1.385 . S
C595 H597 0.950 . S
C596 C590 1.404 . S
C596 H594 0.949 . S
C596 C595 1.385 . S
H597 C595 0.950 . S
H598 C582 0.951 . S
H599 C584 0.951 . S
H600 C586 0.951 . S
H601 C587 0.950 . S
H602 C588 0.950 . S
H603 C589 0.950 . S
H604 C591 0.950 . S
H605 C592 0.951 . S
C319 C22 1.432 . S
C329 C303 1.428 . S
C343 C75 1.404 . S
C353 C38 1.398 . S
C367 C91 1.416 . S
C377 C128 1.387 . S
C391 C181 1.422 . S
C401 C144 1.430 . S
C415 C197 1.428 . S
C425 C234 1.408 . S
C439 C287 1.422 . S
C449 C250 1.430 . S
C463 C251 1.500 . S
C473 C29 1.482 . S
C487 C304 1.496 . S
C497 C82 1.492 . S
C511 C135 1.503 . S
C521 C39 1.505 . S
C535 C188 1.482 . S
C545 C92 1.479 . S
C559 C241 1.481 . S
C569 C145 1.474 . S
C583 C294 1.482 . S
C593 C198 1.479 . S
