# Generated by pormake.
# Topology sra, (4)-cn, num edge types: 1
# Building blocks:
#     Node 0, Type 0, BuildingBlock: TATPOV_clean_sbu_0, # of connection points: 4
#     Node 1, Type 0, BuildingBlock: TATPOV_clean_sbu_0, # of connection points: 4
#     Node 2, Type 0, BuildingBlock: TATPOV_clean_sbu_0, # of connection points: 4
#     Node 3, Type 0, BuildingBlock: TATPOV_clean_sbu_0, # of connection points: 4
#     Node 4, Type 0, BuildingBlock: TATPOV_clean_sbu_0, # of connection points: 4
#     Node 5, Type 0, BuildingBlock: TATPOV_clean_sbu_0, # of connection points: 4
#     Node 6, Type 0, BuildingBlock: TATPOV_clean_sbu_0, # of connection points: 4
#     Node 7, Type 0, BuildingBlock: TATPOV_clean_sbu_0, # of connection points: 4
#     Edge 8, Type (0, 0), BuildingBlock: TEMPAE_clean_linker_10, # of connection points: 2
#     Edge 9, Type (0, 0), BuildingBlock: TEMPAE_clean_linker_10, # of connection points: 2
#     Edge 10, Type (0, 0), BuildingBlock: TEMPAE_clean_linker_10, # of connection points: 2
#     Edge 11, Type (0, 0), BuildingBlock: TEMPAE_clean_linker_10, # of connection points: 2
#     Edge 12, Type (0, 0), BuildingBlock: TEMPAE_clean_linker_10, # of connection points: 2
#     Edge 13, Type (0, 0), BuildingBlock: TEMPAE_clean_linker_10, # of connection points: 2
#     Edge 14, Type (0, 0), BuildingBlock: TEMPAE_clean_linker_10, # of connection points: 2
#     Edge 15, Type (0, 0), BuildingBlock: TEMPAE_clean_linker_10, # of connection points: 2
#     Edge 16, Type (0, 0), BuildingBlock: TEMPAE_clean_linker_10, # of connection points: 2
#     Edge 17, Type (0, 0), BuildingBlock: TEMPAE_clean_linker_10, # of connection points: 2
#     Edge 18, Type (0, 0), BuildingBlock: TEMPAE_clean_linker_10, # of connection points: 2
#     Edge 19, Type (0, 0), BuildingBlock: TEMPAE_clean_linker_10, # of connection points: 2
#     Edge 20, Type (0, 0), BuildingBlock: TEMPAE_clean_linker_10, # of connection points: 2
#     Edge 21, Type (0, 0), BuildingBlock: TEMPAE_clean_linker_10, # of connection points: 2
#     Edge 22, Type (0, 0), BuildingBlock: TEMPAE_clean_linker_10, # of connection points: 2
#     Edge 23, Type (0, 0), BuildingBlock: TEMPAE_clean_linker_10, # of connection points: 2
# Relax obj value: 0.055
# Max RMSD: 0.069
# Mean RMSD: 0.069
data_MOF--net-sra--node1-TATPOV_clean_sbu_0--edge1-TEMPAE_clean_linker_10
_symmetry_space_group_name_H-M    P1
_symmetry_Int_Tables_number       1
_symmetry_cell_setting            triclinic
loop_
_symmetry_equiv_pos_as_xyz
'x, y, z'
_cell_length_a     27.595514
_cell_length_b     43.722512
_cell_length_c     41.720638
_cell_angle_alpha  90.345449
_cell_angle_beta   89.737164
_cell_angle_gamma 89.891566
loop_
_atom_site_label
_atom_site_type_symbol
_atom_site_fract_x
_atom_site_fract_y
_atom_site_fract_z
_atom_type_partial_charge
Zn0 Zn -0.0099 0.09498 0.22669 0.0
Zn1 Zn -0.01024 0.06872 0.17209 0.0
O2 O 0.04947 0.05028 0.19563 0.0
O3 O 0.03834 0.06645 0.24506 0.0
O4 O -0.00945 0.04701 0.12911 0.0
O5 O 0.92 0.0873 0.23367 0.0
O6 O 0.92249 0.05736 0.19111 0.0
C7 C 0.06182 0.05035 0.22509 0.0
C8 C 0.00782 0.13769 0.17764 0.0
O9 O -0.00391 0.11483 0.1602 0.0
O10 O 0.01188 0.13455 0.20762 0.0
C11 C 0.024 0.05209 0.10876 0.0
O12 O 0.05827 0.07172 0.11606 0.0
C13 C 0.89958 0.06835 0.21519 0.0
Zn14 Zn 0.00074 0.40205 0.23276 0.0
Zn15 Zn 0.00048 0.42813 0.17733 0.0
O16 O 0.93979 0.44648 0.20034 0.0
O17 O 0.94913 0.42969 0.2495 0.0
O18 O 0.0026 0.4483 0.13372 0.0
O19 O 0.06988 0.41253 0.24028 0.0
O20 O 0.06608 0.44123 0.19718 0.0
C21 C 0.92626 0.44591 0.22965 0.0
C22 C -0.01366 0.35857 0.18329 0.0
O23 O -0.00436 0.38174 0.16586 0.0
O24 O -0.01685 0.36163 0.21339 0.0
C25 C 0.96554 0.45819 0.11899 0.0
O26 O 0.92262 0.45562 0.13245 0.0
C27 C 0.08907 0.43177 0.22165 0.0
Zn28 Zn -4e-05 0.89948 0.77382 0.0
Zn29 Zn 0.00273 0.92866 0.82891 0.0
O30 O 0.06619 0.94196 0.8062 0.0
O31 O 0.05889 0.92087 0.75841 0.0
O32 O 0.00415 0.95125 0.87143 0.0
O33 O 0.93456 0.91647 0.76441 0.0
O34 O 0.94106 0.94565 0.80745 0.0
C35 C 0.08222 0.93751 0.7778 0.0
C36 C 0.00379 0.85808 0.82566 0.0
O37 O -0.00066 0.88263 0.84213 0.0
O38 O 0.00709 0.85929 0.79546 0.0
C39 C 0.02956 0.94185 0.89476 0.0
O40 O 0.05605 0.91707 0.89097 0.0
C41 C 0.91825 0.93756 0.7823 0.0
Zn42 Zn -0.01305 0.5984 0.78183 0.0
Zn43 Zn -0.01244 0.57138 0.83567 0.0
O44 O 0.9295 0.55236 0.81068 0.0
O45 O 0.94088 0.56937 0.76181 0.0
O46 O -0.01458 0.54928 0.87829 0.0
O47 O 0.05766 0.59227 0.77575 0.0
O48 O 0.0562 0.56162 0.8174 0.0
C49 C 0.91768 0.55266 0.78111 0.0
C50 C 0.9659 0.64021 0.83145 0.0
O51 O 0.97835 0.61727 0.84828 0.0
O52 O 0.96253 0.63744 0.80135 0.0
C53 C 0.0015 0.5615 0.90387 0.0
O54 O 0.02099 0.58885 0.90247 0.0
C55 C 0.07894 0.57359 0.79392 0.0
Zn56 Zn 0.50107 0.61408 0.73347 0.0
Zn57 Zn 0.49552 0.58774 0.67772 0.0
O58 O 0.56085 0.57196 0.69554 0.0
O59 O 0.56929 0.60018 0.73905 0.0
O60 O 0.49118 0.5663 0.63464 0.0
O61 O 0.44705 0.58928 0.75128 0.0
O62 O 0.43477 0.57213 0.70235 0.0
C63 C 0.58577 0.58036 0.71968 0.0
C64 C 0.48894 0.65783 0.68427 0.0
O65 O 0.49473 0.63427 0.66642 0.0
O66 O 0.48721 0.65499 0.7144 0.0
C67 C 0.51909 0.57372 0.61162 0.0
O68 O 0.55036 0.59597 0.61602 0.0
C69 C 0.42212 0.57369 0.73181 0.0
Zn70 Zn 0.52018 0.92292 0.73063 0.0
Zn71 Zn 0.51072 0.94749 0.67532 0.0
O72 O 0.44627 0.95891 0.69839 0.0
O73 O 0.4528 0.93303 0.7432 0.0
O74 O 0.50519 0.96787 0.6321 0.0
O75 O 0.57199 0.95123 0.74402 0.0
O76 O 0.57296 0.96752 0.6943 0.0
C77 C 0.4285 0.95033 0.72516 0.0
C78 C 0.52863 0.87833 0.68141 0.0
O79 O 0.51624 0.90105 0.6642 0.0
O80 O 0.53605 0.8821 0.71108 0.0
C81 C 0.47733 0.95775 0.61029 0.0
O82 O 0.451 0.93336 0.61605 0.0
C83 C 0.59051 0.96782 0.72255 0.0
Zn84 Zn 0.49963 0.40844 0.28492 0.0
Zn85 Zn 0.49776 0.43691 0.33822 0.0
O86 O 0.56497 0.44853 0.31912 0.0
O87 O 0.56973 0.41651 0.27829 0.0
O88 O 0.49489 0.46063 0.38004 0.0
O89 O 0.45088 0.43538 0.2646 0.0
O90 O 0.43806 0.45339 0.31316 0.0
C91 C 0.58886 0.43675 0.29587 0.0
C92 C 0.48115 0.36768 0.33565 0.0
O93 O 0.49209 0.39123 0.3523 0.0
O94 O 0.47808 0.36961 0.3055 0.0
C95 C 0.52366 0.45455 0.40288 0.0
O96 O 0.55554 0.43246 0.399 0.0
C97 C 0.42626 0.45185 0.28362 0.0
Zn98 Zn 0.48108 0.1054 0.27552 0.0
Zn99 Zn 0.48603 0.07813 0.33038 0.0
O100 O 0.41973 0.06403 0.31248 0.0
O101 O 0.4121 0.0933 0.27 0.0
O102 O 0.49012 0.05658 0.37302 0.0
O103 O 0.53347 0.07947 0.25676 0.0
O104 O 0.54556 0.06143 0.30514 0.0
C105 C 0.39493 0.07346 0.28878 0.0
C106 C 0.49689 0.14801 0.32585 0.0
O107 O 0.49001 0.12434 0.34301 0.0
O108 O 0.49762 0.14564 0.29562 0.0
C109 C 0.46009 0.063 0.39529 0.0
O110 O 0.42659 0.08376 0.39004 0.0
C111 C 0.55788 0.06309 0.27566 0.0
C112 C 0.95475 0.3056 0.18575 0.0
C113 C -0.01745 0.32742 0.16955 0.0
C114 C 0.95826 0.27449 0.17802 0.0
C115 C -0.00914 0.26484 0.15365 0.0
C116 C 0.01573 0.28702 0.13521 0.0
C117 C 0.01118 0.31822 0.14335 0.0
C118 C 0.93025 0.25179 0.198 0.0
C119 C 0.05017 0.27775 0.1087 0.0
C120 C 0.04347 0.18961 0.17948 0.0
C121 C 0.01247 0.16878 0.16434 0.0
C122 C 0.04022 0.22099 0.17346 0.0
C123 C 0.00458 0.2319 0.15202 0.0
C124 C 0.97656 0.21071 0.13418 0.0
C125 C -0.01906 0.17921 0.14051 0.0
C126 C 0.07161 0.24262 0.19259 0.0
C127 C 0.93884 0.22133 0.11068 0.0
H128 H 0.93194 0.31273 0.20569 0.0
H129 H 0.03263 0.33506 0.13069 0.0
H130 H 0.91211 0.23471 0.18241 0.0
H131 H 0.95563 0.23924 0.21378 0.0
H132 H 0.90236 0.26308 0.21331 0.0
H133 H 0.05694 0.29691 0.09191 0.0
H134 H 0.08534 0.27089 0.11928 0.0
H135 H 0.03601 0.25789 0.09501 0.0
H136 H 0.06841 0.1815 0.19758 0.0
H137 H 0.95698 0.16312 0.12869 0.0
H138 H 0.04916 0.25432 0.21111 0.0
H139 H 0.08726 0.26048 0.17689 0.0
H140 H 0.1017 0.23052 0.2048 0.0
H141 H 0.90558 0.22816 0.12397 0.0
H142 H 0.92907 0.20289 0.09345 0.0
H143 H 0.95167 0.24154 0.09713 0.0
C144 C 0.97186 0.82061 0.86597 0.0
C145 C 0.00347 0.82759 0.84066 0.0
C146 C 0.96361 0.78996 0.87475 0.0
C147 C -0.01229 0.76614 0.85779 0.0
C148 C 0.02327 0.77353 0.83452 0.0
C149 C 0.03048 0.80411 0.82619 0.0
C150 C 0.9263 0.78315 0.90021 0.0
C151 C 0.05059 0.74904 0.81614 0.0
C152 C -0.00957 0.6807 0.8709 0.0
C153 C 0.96072 0.67111 0.8456 0.0
C154 C -0.00431 0.71204 0.87805 0.0
C155 C 0.97057 0.73391 0.85944 0.0
C156 C 0.936 0.7239 0.83671 0.0
C157 C 0.9317 0.69264 0.82997 0.0
C158 C 0.03174 0.72171 0.90317 0.0
C159 C 0.90753 0.7463 0.81675 0.0
H160 H 0.95105 0.83878 0.8773 0.0
H161 H 0.05558 0.80957 0.80698 0.0
H162 H 0.89085 0.77874 0.88864 0.0
H163 H 0.93623 0.76251 0.91409 0.0
H164 H 0.92172 0.80278 0.91699 0.0
H165 H 0.08045 0.75865 0.80138 0.0
H166 H 0.06616 0.73201 0.8328 0.0
H167 H 0.02531 0.73676 0.79996 0.0
H168 H 0.01266 0.66407 0.88324 0.0
H169 H 0.90795 0.68519 0.81082 0.0
H170 H 0.01921 0.74252 0.91613 0.0
H171 H 0.06678 0.72716 0.8914 0.0
H172 H 0.03819 0.70319 0.92078 0.0
H173 H 0.89215 0.76477 0.83204 0.0
H174 H 0.87748 0.73501 0.80361 0.0
H175 H 0.93205 0.75709 0.79895 0.0
C176 C 0.46117 0.71166 0.68757 0.0
C177 C 0.48737 0.68908 0.67098 0.0
C178 C 0.46711 0.74268 0.68053 0.0
C179 C 0.50062 0.75145 0.65649 0.0
C180 C 0.52394 0.72862 0.63766 0.0
C181 C 0.51691 0.69753 0.64509 0.0
C182 C 0.44071 0.76612 0.70091 0.0
C183 C 0.55934 0.73697 0.61151 0.0
C184 C 0.49761 0.8374 0.64444 0.0
C185 C 0.52997 0.84681 0.66836 0.0
C186 C 0.49057 0.80608 0.63786 0.0
C187 C 0.51672 0.78396 0.65552 0.0
C188 C 0.55302 0.79365 0.6772 0.0
C189 C 0.55898 0.82491 0.68345 0.0
C190 C 0.45216 0.79675 0.61415 0.0
C191 C 0.58244 0.77098 0.6962 0.0
H192 H 0.43774 0.70513 0.70731 0.0
H193 H 0.5372 0.68009 0.63218 0.0
H194 H 0.46686 0.77765 0.71707 0.0
H195 H 0.42408 0.78392 0.68564 0.0
H196 H 0.41182 0.75563 0.71585 0.0
H197 H 0.56517 0.71767 0.59448 0.0
H198 H 0.54661 0.75722 0.59802 0.0
H199 H 0.59473 0.74287 0.62241 0.0
H200 H 0.4752 0.85427 0.63261 0.0
H201 H 0.58461 0.83216 0.70159 0.0
H202 H 0.41846 0.79084 0.62731 0.0
H203 H 0.4636 0.77625 0.60024 0.0
H204 H 0.4437 0.81554 0.59726 0.0
H205 H 0.55886 0.76001 0.71442 0.0
H206 H 0.61327 0.78204 0.70876 0.0
H207 H 0.59688 0.75265 0.68032 0.0
C208 C 0.44173 0.31699 0.33683 0.0
C209 C 0.47563 0.33715 0.35007 0.0
C210 C 0.44424 0.28555 0.34268 0.0
C211 C 0.48215 0.27393 0.3619 0.0
C212 C 0.51307 0.29457 0.37829 0.0
C213 C 0.50939 0.32615 0.37221 0.0
C214 C 0.4097 0.26457 0.32523 0.0
C215 C 0.55314 0.28319 0.3996 0.0
C216 C 0.47617 0.18729 0.36806 0.0
C217 C 0.50159 0.17888 0.34017 0.0
C218 C 0.47269 0.21826 0.37743 0.0
C219 C 0.49529 0.24099 0.35846 0.0
C220 C 0.52475 0.23208 0.33211 0.0
C221 C 0.52733 0.20121 0.32327 0.0
C222 C 0.44178 0.22669 0.40604 0.0
C223 C 0.55026 0.25536 0.31141 0.0
H224 H 0.41518 0.32561 0.32002 0.0
H225 H 0.53561 0.34176 0.38253 0.0
H226 H 0.42914 0.25304 0.30517 0.0
H227 H 0.39591 0.24657 0.34148 0.0
H228 H 0.37832 0.2772 0.3152 0.0
H229 H 0.56537 0.30127 0.41654 0.0
H230 H 0.54138 0.26291 0.41345 0.0
H231 H 0.58459 0.27625 0.38455 0.0
H232 H 0.4564 0.17005 0.3813 0.0
H233 H 0.54778 0.19469 0.30203 0.0
H234 H 0.40501 0.2331 0.39778 0.0
H235 H 0.45704 0.24658 0.41917 0.0
H236 H 0.4381 0.20719 0.42283 0.0
H237 H 0.52303 0.26864 0.29777 0.0
H238 H 0.57572 0.24451 0.29403 0.0
H239 H 0.57084 0.27174 0.32647 0.0
C240 C 0.33414 0.03101 0.28666 0.0
C241 C 0.34575 0.06196 0.2828 0.0
C242 C 0.2882 0.01993 0.27784 0.0
C243 C 0.25327 0.04055 0.26566 0.0
C244 C 0.26473 0.072 0.2627 0.0
C245 C 0.31098 0.08217 0.27091 0.0
C246 C 0.27785 0.98616 0.28045 0.0
C247 C 0.22822 0.09505 0.25069 0.0
C248 C 0.14455 0.02934 0.21353 0.0
C249 C 0.10784 0.0364 0.2357 0.0
C250 C 0.19273 0.02602 0.22368 0.0
C251 C 0.20395 0.03032 0.2565 0.0
C252 C 0.16608 0.03285 0.27929 0.0
C253 C 0.11832 0.03564 0.26858 0.0
C254 C 0.2321 0.02177 0.19887 0.0
C255 C 0.17627 0.03704 0.31457 0.0
H256 H 0.36147 0.01533 0.29542 0.0
H257 H 0.32002 0.10614 0.26811 0.0
H258 H 0.24106 0.98203 0.2903 0.0
H259 H 0.27922 0.97572 0.25616 0.0
H260 H 0.30481 0.97433 0.29573 0.0
H261 H 0.24248 0.11879 0.25115 0.0
H262 H 0.21785 0.08937 0.2257 0.0
H263 H 0.19485 0.09431 0.26559 0.0
H264 H 0.13659 0.02919 0.18811 0.0
H265 H 0.0898 0.04013 0.28596 0.0
H266 H 0.26128 1.00672 0.20802 0.0
H267 H 0.24843 0.0443 0.19327 0.0
H268 H 0.21764 0.01183 0.17629 0.0
H269 H 0.20591 0.02173 0.32246 0.0
H270 H 0.1436 0.03258 0.32947 0.0
H271 H 0.188 0.06097 0.319 0.0
C272 C 0.67132 0.42362 0.27717 0.0
C273 C 0.6392 0.44577 0.28907 0.0
C274 C 0.71858 0.43128 0.2683 0.0
C275 C 0.73391 0.46211 0.27068 0.0
C276 C 0.70171 0.4847 0.28282 0.0
C277 C 0.65461 0.47615 0.29226 0.0
C278 C 0.75205 0.40622 0.25633 0.0
C279 C 0.71638 0.51787 0.2849 0.0
C280 C 0.86936 0.46136 0.27319 0.0
C281 C 0.88029 0.46024 0.2403 0.0
C282 C 0.82176 0.46584 0.28395 0.0
C283 C 0.78442 0.46962 0.26123 0.0
C284 C 0.79635 0.47297 0.22836 0.0
C285 C 0.84436 0.46804 0.21817 0.0
C286 C 0.81086 0.4624 0.31924 0.0
C287 C 0.75767 0.47822 0.20357 0.0
H288 H 0.65941 0.40008 0.27489 0.0
H289 H 0.6294 0.49333 0.30106 0.0
H290 H 0.76338 0.41093 0.23131 0.0
H291 H 0.78528 0.40548 0.27119 0.0
H292 H 0.73475 0.38331 0.25695 0.0
H293 H 0.68989 0.53174 0.29892 0.0
H294 H 0.75266 0.52028 0.29594 0.0
H295 H 0.7188 0.52739 0.26036 0.0
H296 H 0.89729 0.4562 0.29054 0.0
H297 H 0.85271 0.4678 0.19275 0.0
H298 H 0.7964 0.43911 0.32363 0.0
H299 H 0.78295 0.47908 0.32727 0.0
H300 H 0.84381 0.46551 0.3341 0.0
H301 H 0.73915 0.45627 0.19827 0.0
H302 H 0.77324 0.48707 0.18084 0.0
H303 H 0.72995 0.49459 0.2126 0.0
C304 C 0.15421 0.93472 0.74216 0.0
C305 C 0.13017 0.94906 0.76786 0.0
C306 C 0.20216 0.94193 0.7346 0.0
C307 C 0.22636 0.96471 0.75262 0.0
C308 C 0.20101 0.9812 0.77676 0.0
C309 C 0.15328 0.97277 0.78456 0.0
C310 C 0.22803 0.92327 0.7091 0.0
C311 C 0.22503 1.00654 0.7955 0.0
C312 C 0.35766 0.94386 0.76135 0.0
C313 C 0.37849 0.95847 0.73482 0.0
C314 C 0.30863 0.94756 0.76881 0.0
C315 C 0.27977 0.96692 0.74968 0.0
C316 C 0.30139 0.98392 0.72463 0.0
C317 C 0.35057 0.97917 0.71714 0.0
C318 C 0.28702 0.92864 0.79551 0.0
C319 C 0.27207 1.00575 0.70462 0.0
H320 H 0.13653 0.91644 0.72904 0.0
H321 H 0.1345 0.98429 0.80407 0.0
H322 H 0.24583 0.93847 0.69147 0.0
H323 H 0.25679 0.90923 0.72036 0.0
H324 H 0.20312 0.90771 0.69601 0.0
H325 H 0.19785 0.02199 0.80688 0.0
H326 H 0.24754 0.99654 0.81476 0.0
H327 H 0.2492 0.02025 0.77986 0.0
H328 H 0.37904 0.92811 0.77545 0.0
H329 H 0.36667 0.99098 0.69697 0.0
H330 H 0.26156 0.91159 0.78527 0.0
H331 H 0.2661 0.94336 0.81231 0.0
H332 H 0.31506 0.91622 0.80937 0.0
H333 H 0.25117 0.99268 0.68651 0.0
H334 H 0.29562 0.02227 0.69178 0.0
H335 H 0.24575 0.01863 0.71974 0.0
C336 C 0.6454 0.53701 0.71948 0.0
C337 C 0.63451 0.56787 0.72532 0.0
C338 C 0.69112 0.525 0.72746 0.0
C339 C 0.72659 0.54461 0.74086 0.0
C340 C 0.7158 0.57599 0.74593 0.0
C341 C 0.66976 0.58706 0.73848 0.0
C342 C 0.70067 0.4913 0.72265 0.0
C343 C 0.75286 0.59804 0.7593 0.0
C344 C 0.83557 0.53059 0.7917 0.0
C345 C 0.87206 0.53862 0.76985 0.0
C346 C 0.78733 0.52769 0.78153 0.0
C347 C 0.7758 0.53347 0.74908 0.0
C348 C 0.81349 0.53677 0.72631 0.0
C349 C 0.86135 0.53906 0.73699 0.0
C350 C 0.74818 0.52243 0.8062 0.0
C351 C 0.80299 0.54247 0.69137 0.0
H352 H 0.61774 0.52211 0.7097 0.0
H353 H 0.66132 0.61098 0.7428 0.0
H354 H 0.73757 0.48714 0.71289 0.0
H355 H 0.6984 0.47967 0.74617 0.0
H356 H 0.67376 0.48064 0.70633 0.0
H357 H 0.73912 0.62192 0.76041 0.0
H358 H 0.76324 0.59108 0.78385 0.0
H359 H 0.78614 0.59765 0.74426 0.0
H360 H 0.84371 0.52943 0.81706 0.0
H361 H 0.88969 0.54426 0.71979 0.0
H362 H 0.71881 0.50799 0.7962 0.0
H363 H 0.73206 0.54473 0.81337 0.0
H364 H 0.76282 0.51132 0.82801 0.0
H365 H 0.77312 0.52769 0.68273 0.0
H366 H 0.83547 0.53842 0.67608 0.0
H367 H 0.79148 0.56663 0.68837 0.0
C368 C 0.64955 0.98725 0.76219 0.0
C369 C 0.63667 0.98322 0.72996 0.0
C370 C 0.69813 0.99008 0.77103 0.0
C371 C 0.73424 0.98929 0.7469 0.0
C372 C 0.72066 0.99116 0.71427 0.0
C373 C 0.67165 0.98776 0.70603 0.0
C374 C 0.71083 0.98884 0.80616 0.0
C375 C 0.75825 0.99244 0.688 0.0
C376 C 0.86463 0.98329 0.77574 0.0
C377 C 0.87159 0.95157 0.77417 0.0
C378 C 0.82057 0.9964 0.76592 0.0
C379 C 0.78271 0.97708 0.75524 0.0
C380 C 0.78977 0.94494 0.75414 0.0
C381 C 0.83438 0.93271 0.76313 0.0
C382 C 0.81532 0.03075 0.76601 0.0
C383 C 0.75004 0.92325 0.74382 0.0
H384 H 0.62221 0.98487 0.78077 0.0
H385 H 0.66172 0.98548 0.68102 0.0
H386 H 0.72161 0.96512 0.81234 0.0
H387 H 0.74182 1.00404 0.81171 0.0
H388 H 0.67961 0.99548 0.82162 0.0
H389 H 0.7427 1.0015 0.66544 0.0
H390 H 0.78932 1.00694 0.69529 0.0
H391 H 0.77221 0.96904 0.68312 0.0
H392 H 0.89404 0.99783 0.78372 0.0
H393 H 0.84002 0.90816 0.762 0.0
H394 H 0.77883 0.03799 0.77436 0.0
H395 H 0.81993 0.03918 0.74115 0.0
H396 H 0.84307 0.04193 0.7813 0.0
H397 H 0.7172 0.92686 0.75882 0.0
H398 H 0.76105 0.89888 0.74573 0.0
H399 H 0.73998 0.92773 0.71857 0.0
C400 C 0.36309 0.5631 0.77568 0.0
C401 C 0.37562 0.56069 0.74309 0.0
C402 C 0.31552 0.55803 0.78609 0.0
C403 C 0.27977 0.54998 0.76342 0.0
C404 C 0.29344 0.54382 0.73124 0.0
C405 C 0.34132 0.54945 0.72135 0.0
C406 C 0.30265 0.56486 0.82063 0.0
C407 C 0.25655 0.5343 0.70656 0.0
C408 C 0.15067 0.53812 0.79376 0.0
C409 C 0.13051 0.56695 0.78775 0.0
C410 C 0.1992 0.53178 0.78546 0.0
C411 C 0.22796 0.55509 0.7716 0.0
C412 C 0.20777 0.58439 0.76625 0.0
C413 C 0.15926 0.58981 0.77408 0.0
C414 C 0.21933 0.50013 0.79083 0.0
C415 C 0.23738 0.61021 0.75229 0.0
H416 H 0.38964 0.57109 0.79286 0.0
H417 H 0.35089 0.54697 0.69624 0.0
H418 H 0.28481 0.58761 0.82215 0.0
H419 H 0.27681 0.54775 0.83016 0.0
H420 H 0.33522 0.56529 0.83619 0.0
H421 H 0.27405 0.52412 0.68496 0.0
H422 H 0.23065 0.51754 0.71674 0.0
H423 H 0.23548 0.55465 0.69902 0.0
H424 H 0.12819 0.52036 0.80404 0.0
H425 H 0.14379 0.6122 0.76967 0.0
H426 H 0.25353 0.50131 0.80465 0.0
H427 H 0.22811 0.48934 0.76737 0.0
H428 H 0.19335 0.48521 0.80379 0.0
H429 H 0.26961 0.61461 0.76744 0.0
H430 H 0.21633 0.6318 0.7504 0.0
H431 H 0.25062 0.60379 0.72802 0.0
C432 C 0.63774 0.03733 0.2853 0.0
C433 C 0.60398 0.04966 0.26393 0.0
C434 C 0.6858 0.03195 0.27552 0.0
C435 C 0.70018 0.03957 0.24392 0.0
C436 C 0.66486 0.04844 0.22135 0.0
C437 C 0.61707 0.05314 0.23159 0.0
C438 C 0.72216 0.02138 0.29998 0.0
C439 C 0.67845 0.05688 0.18744 0.0
C440 C 0.81886 0.08175 0.23698 0.0
C441 C 0.8487 0.06022 0.22163 0.0
C442 C 0.77067 0.07506 0.24436 0.0
C443 C 0.75196 0.04575 0.23686 0.0
C444 C 0.78203 0.02364 0.2217 0.0
C445 C 0.83011 0.03134 0.21377 0.0
C446 C 0.73968 0.09962 0.25992 0.0
C447 C 0.76351 0.992 0.21403 0.0
H448 H 0.6277 0.03395 0.31017 0.0
H449 H 0.5909 0.06193 0.21466 0.0
H450 H 0.74914 1.00562 0.28897 0.0
H451 H 0.74204 0.04147 0.30955 0.0
H452 H 0.70423 0.00966 0.32039 0.0
H453 H 0.64632 0.0575 0.1715 0.0
H454 H 0.69528 0.07993 0.1875 0.0
H455 H 0.70529 0.0406 0.17725 0.0
H456 H 0.8331 0.10418 0.24287 0.0
H457 H 0.85341 0.0146 0.20214 0.0
H458 H 0.72634 0.09171 0.28357 0.0
H459 H 0.70753 0.10436 0.24485 0.0
H460 H 0.75972 0.12137 0.26354 0.0
H461 H 0.74649 0.98176 0.23558 0.0
H462 H 0.7928 0.97656 0.2053 0.0
H463 H 0.73518 0.99334 0.19533 0.0
C464 C 0.17076 0.42236 0.24358 0.0
C465 C 0.13858 0.44236 0.22852 0.0
C466 C 0.21772 0.43153 0.25135 0.0
C467 C 0.23258 0.46185 0.24468 0.0
C468 C 0.19994 0.48245 0.22998 0.0
C469 C 0.15339 0.47223 0.22146 0.0
C470 C 0.25159 0.40852 0.26638 0.0
C471 C 0.21403 0.51509 0.22311 0.0
C472 C 0.34439 0.47501 0.29374 0.0
C473 C 0.37986 0.46463 0.27208 0.0
C474 C 0.29605 0.4784 0.28393 0.0
C475 C 0.28324 0.47068 0.25205 0.0
C476 C 0.31996 0.4642 0.22928 0.0
C477 C 0.36797 0.46155 0.23954 0.0
C478 C 0.25802 0.48687 0.30852 0.0
C479 C 0.30805 0.45601 0.195 0.0
H480 H 0.15936 0.3992 0.24889 0.0
H481 H 0.12824 0.48778 0.21005 0.0
H482 H 0.2847 0.40586 0.25142 0.0
H483 H 0.26307 0.41672 0.29037 0.0
H484 H 0.23457 0.38568 0.26917 0.0
H485 H 0.18173 0.5298 0.21923 0.0
H486 H 0.23567 0.5249 0.24303 0.0
H487 H 0.23668 0.51579 0.20111 0.0
H488 H 0.35344 0.47813 0.3188 0.0
H489 H 0.39545 0.45438 0.22241 0.0
H490 H 0.24002 0.46579 0.3172 0.0
H491 H 0.22978 0.50172 0.29785 0.0
H492 H 0.27413 0.49884 0.32947 0.0
H493 H 0.29277 0.43255 0.19416 0.0
H494 H 0.34064 0.4566 0.17928 0.0
H495 H 0.28043 0.47178 0.18521 0.0
C496 C 0.06036 0.04269 0.05441 0.0
C497 C 0.02443 0.0361 0.07725 0.0
C498 C 0.06138 0.02773 0.02451 0.0
C499 C 0.0257 1.00555 0.01726 0.0
C500 C -0.0107 0.9988 0.04017 0.0
C501 C -0.01095 0.01417 0.06985 0.0
C502 C 0.10072 0.03563 1.0007 0.0
C503 C 0.9507 0.97523 0.03338 0.0
C504 C 0.00242 0.9856 0.92975 0.0
C505 C 0.02876 0.9583 0.92601 0.0
C506 C 0.00115 1.00123 0.95927 0.0
C507 C 0.02668 0.98925 0.98577 0.0
C508 C 0.0533 0.96171 0.98217 0.0
C509 C 0.0541 0.94662 0.95235 0.0
C510 C 0.97251 0.03059 0.96211 0.0
C511 C 0.08088 0.94814 0.00986 0.0
H512 H 0.08782 0.05962 0.05984 0.0
H513 H 0.96116 0.00889 0.08732 0.0
H514 H 0.1224 0.01494 0.99482 0.0
H515 H 0.08431 0.04373 0.97805 0.0
H516 H 0.12551 0.05362 0.00989 0.0
H517 H 0.92484 0.97269 0.05367 0.0
H518 H 0.93008 0.9817 0.01167 0.0
H519 H 0.96779 0.95269 0.02842 0.0
H520 H -0.01724 0.99484 0.90955 0.0
H521 H 0.07448 0.92553 0.94976 0.0
H522 H -0.00331 0.04956 0.96957 0.0
H523 H 0.94419 0.0283 0.9809 0.0
H524 H 0.95476 0.03692 0.93924 0.0
H525 H 0.10826 0.9647 0.01866 0.0
H526 H 0.09964 0.92651 1.00318 0.0
H527 H 0.05573 0.94349 0.03007 0.0
C528 C -0.01827 0.51503 0.93646 0.0
C529 C -0.00297 0.54559 0.93508 0.0
C530 C 0.97679 0.49996 0.96596 0.0
C531 C -0.01307 0.51591 0.99481 0.0
C532 C 0.0024 0.54673 0.99356 0.0
C533 C 0.00748 0.56114 0.96374 0.0
C534 C 0.96067 0.46698 0.96628 0.0
C535 C 0.0132 0.56461 0.02377 0.0
C536 C 0.93138 0.48742 0.07274 0.0
C537 C 0.97081 0.47255 0.08701 0.0
C538 C 0.93606 0.5015 0.04269 0.0
C539 C -0.01886 0.50046 0.02635 0.0
C540 C 0.02092 0.48519 0.04045 0.0
C541 C 0.01535 0.47155 0.07065 0.0
C542 C 0.89289 0.51778 0.0286 0.0
C543 C 0.06946 0.48335 0.02367 0.0
H544 H 0.97372 0.5028 0.91444 0.0
H545 H 0.01915 0.58478 0.96296 0.0
H546 H -0.01188 0.45271 0.97857 0.0
H547 H 0.92629 0.46485 0.97997 0.0
H548 H 0.95505 0.45765 0.94175 0.0
H549 H 0.02474 0.58844 0.01871 0.0
H550 H -0.01945 0.56538 0.03938 0.0
H551 H 0.04228 0.55309 0.03747 0.0
H552 H 0.89686 0.48837 0.0852 0.0
H553 H 0.04598 0.46 0.08139 0.0
H554 H 0.88406 0.50783 1.00481 0.0
H555 H 0.90166 0.54226 0.02485 0.0
H556 H 0.86027 0.51631 0.04421 0.0
H557 H 0.06522 0.47268 0.99965 0.0
H558 H 0.09639 0.46991 0.03744 0.0
H559 H 0.08403 0.5067 0.01996 0.0
C560 C 0.48835 0.49632 0.43744 0.0
C561 C 0.52152 0.47219 0.43341 0.0
C562 C 0.48633 0.51328 0.46615 0.0
C563 C 0.51818 0.50595 0.4915 0.0
C564 C 0.55157 0.48155 0.48765 0.0
C565 C 0.55286 0.46501 0.45869 0.0
C566 C 0.45028 0.53916 0.4693 0.0
C567 C 0.58611 0.47298 0.51411 0.0
C568 C 0.54707 0.56606 0.55489 0.0
C569 C 0.51753 0.55694 0.58057 0.0
C570 C 0.54712 0.54994 0.52565 0.0
C571 C 0.51704 0.52396 0.52198 0.0
C572 C 0.48674 0.51482 0.54767 0.0
C573 C 0.48727 0.53144 0.57662 0.0
C574 C 0.5798 0.56051 0.4988 0.0
C575 C 0.45422 0.48722 0.54473 0.0
H576 H 0.46397 0.50206 0.41808 0.0
H577 H 0.57858 0.44642 0.45588 0.0
H578 H 0.42597 0.53516 0.4901 0.0
H579 H 0.46963 0.56097 0.47387 0.0
H580 H 0.42776 0.5418 0.44748 0.0
H581 H 0.60947 0.45319 0.50749 0.0
H582 H 0.6097 0.49272 0.52003 0.0
H583 H 0.56549 0.4672 0.53614 0.0
H584 H 0.57047 0.58577 0.55763 0.0
H585 H 0.46432 0.52419 0.5963 0.0
H586 H 0.55815 0.56496 0.47697 0.0
H587 H 0.60634 0.54228 0.49267 0.0
H588 H 0.59999 0.58164 0.50516 0.0
H589 H 0.42957 0.4899 0.524 0.0
H590 H 0.43201 0.48352 0.56663 0.0
H591 H 0.47644 0.46645 0.54018 0.0
C592 C 0.44576 0.96118 0.55416 0.0
C593 C 0.47487 0.97314 0.57871 0.0
C594 C 0.44322 0.97543 0.52412 0.0
C595 C 0.47034 1.00234 0.51846 0.0
C596 C 0.49975 0.01454 0.54312 0.0
C597 C 0.50171 0.99979 0.57291 0.0
C598 C 0.41149 0.96168 0.49841 0.0
C599 C 0.5291 0.04324 0.53805 0.0
C600 C 0.49785 0.02477 0.43228 0.0
C601 C 0.46277 0.0474 0.42675 0.0
C602 C 0.50068 0.00989 0.46198 0.0
C603 C 0.46771 0.01784 0.48679 0.0
C604 C 0.43224 0.04064 0.48136 0.0
C605 C 0.43018 0.05512 0.45144 0.0
C606 C 0.53897 0.98566 0.46681 0.0
C607 C 0.39647 0.0498 0.50722 0.0
H608 H 0.42493 0.94059 0.55836 0.0
H609 H 0.52429 0.00923 0.5917 0.0
H610 H 0.38363 0.97851 0.491 0.0
H611 H 0.43361 0.95608 0.47689 0.0
H612 H 0.39293 0.94056 0.50655 0.0
H613 H 0.55024 0.04976 0.55963 0.0
H614 H 0.55457 0.03994 0.51767 0.0
H615 H 0.50476 0.06251 0.5318 0.0
H616 H 0.52318 0.01863 0.41337 0.0
H617 H 0.40296 0.07257 0.44744 0.0
H618 H 0.52163 0.96364 0.47321 0.0
H619 H 0.56283 0.99223 0.48704 0.0
H620 H 0.56176 0.98205 0.44509 0.0
H621 H 0.37501 0.02962 0.51473 0.0
H622 H 0.37112 0.06794 0.49919 0.0
H623 H 0.41612 0.05822 0.52865 0.0
loop_
_geom_bond_atom_site_label_1
_geom_bond_atom_site_label_2
_geom_bond_distance
_geom_bond_site_symmetry_2
_ccdc_geom_bond_type
Zn0 O3 2.031 . S
Zn0 O5 2.049 1_455 S
Zn0 O10 2.067 1_455 S
Zn1 O2 1.962 . S
Zn1 O4 1.986 1_455 S
Zn1 O6 1.996 1_455 S
Zn1 O9 1.943 . S
O2 Zn1 1.962 . S
O2 C7 1.254 . S
O3 Zn0 2.031 . S
O3 C7 1.269 . S
O4 Zn1 1.986 1_655 S
O4 C11 1.262 1_655 S
O5 Zn0 2.049 1_655 S
O5 C13 1.260 . S
O6 Zn1 1.996 1_655 S
O6 C13 1.257 . S
C7 O2 1.254 . S
C7 O3 1.269 . S
C8 O9 1.249 . S
C8 O10 1.270 1_455 S
O9 Zn1 1.943 . S
O9 C8 1.249 . S
O10 Zn0 2.067 1_655 S
O10 C8 1.270 1_655 S
C11 O4 1.262 1_455 S
C11 O12 1.232 . S
O12 C11 1.232 . S
C13 O5 1.260 . S
C13 O6 1.257 . S
Zn14 O17 2.031 1_455 S
Zn14 O19 2.049 . S
Zn14 O24 2.067 . S
Zn15 O16 1.962 1_455 S
Zn15 O18 1.986 . S
Zn15 O20 1.996 . S
Zn15 O23 1.943 . S
O16 Zn15 1.962 1_655 S
O16 C21 1.254 . S
O17 Zn14 2.031 1_655 S
O17 C21 1.269 . S
O18 Zn15 1.986 . S
O18 C25 1.262 . S
O19 Zn14 2.049 . S
O19 C27 1.260 . S
O20 Zn15 1.996 . S
O20 C27 1.257 . S
C21 O16 1.254 . S
C21 O17 1.269 . S
C22 O23 1.249 . S
C22 O24 1.270 . S
O23 Zn15 1.943 . S
O23 C22 1.249 . S
O24 Zn14 2.067 . S
O24 C22 1.270 . S
C25 O18 1.262 . S
C25 O26 1.232 1_455 S
O26 C25 1.232 1_655 S
C27 O19 1.260 . S
C27 O20 1.257 . S
Zn28 O31 2.031 . S
Zn28 O33 2.049 1_455 S
Zn28 O38 2.067 1_455 S
Zn29 O30 1.962 . S
Zn29 O32 1.986 1_455 S
Zn29 O34 1.996 1_455 S
Zn29 O37 1.943 . S
O30 Zn29 1.962 . S
O30 C35 1.254 . S
O31 Zn28 2.031 . S
O31 C35 1.269 . S
O32 Zn29 1.986 1_655 S
O32 C39 1.262 1_655 S
O33 Zn28 2.049 1_655 S
O33 C41 1.260 . S
O34 Zn29 1.996 1_655 S
O34 C41 1.257 . S
C35 O30 1.254 . S
C35 O31 1.269 . S
C36 O37 1.249 . S
C36 O38 1.270 1_455 S
O37 Zn29 1.943 . S
O37 C36 1.249 . S
O38 Zn28 2.067 1_655 S
O38 C36 1.270 1_655 S
C39 O32 1.262 1_455 S
C39 O40 1.232 . S
O40 C39 1.232 . S
C41 O33 1.260 . S
C41 O34 1.257 . S
Zn42 O45 2.031 1_455 S
Zn42 O47 2.049 . S
Zn42 O52 2.067 . S
Zn43 O44 1.962 1_455 S
Zn43 O46 1.986 . S
Zn43 O48 1.996 . S
Zn43 O51 1.943 . S
O44 Zn43 1.962 1_655 S
O44 C49 1.254 . S
O45 Zn42 2.031 1_655 S
O45 C49 1.269 . S
O46 Zn43 1.986 . S
O46 C53 1.262 . S
O47 Zn42 2.049 . S
O47 C55 1.260 . S
O48 Zn43 1.996 . S
O48 C55 1.257 . S
C49 O44 1.254 . S
C49 O45 1.269 . S
C50 O51 1.249 . S
C50 O52 1.270 . S
O51 Zn43 1.943 . S
O51 C50 1.249 . S
O52 Zn42 2.067 . S
O52 C50 1.270 . S
C53 O46 1.262 . S
C53 O54 1.232 1_455 S
O54 C53 1.232 1_655 S
C55 O47 1.260 . S
C55 O48 1.257 . S
Zn56 O59 2.031 . S
Zn56 O61 2.049 . S
Zn56 O66 2.067 . S
Zn57 O58 1.962 . S
Zn57 O60 1.986 . S
Zn57 O62 1.996 . S
Zn57 O65 1.943 . S
O58 Zn57 1.962 . S
O58 C63 1.254 . S
O59 Zn56 2.031 . S
O59 C63 1.269 . S
O60 Zn57 1.986 . S
O60 C67 1.262 . S
O61 Zn56 2.049 . S
O61 C69 1.260 . S
O62 Zn57 1.996 . S
O62 C69 1.257 . S
C63 O58 1.254 . S
C63 O59 1.269 . S
C64 O65 1.249 . S
C64 O66 1.270 . S
O65 Zn57 1.943 . S
O65 C64 1.249 . S
O66 Zn56 2.067 . S
O66 C64 1.270 . S
C67 O60 1.262 . S
C67 O68 1.232 . S
O68 C67 1.232 . S
C69 O61 1.260 . S
C69 O62 1.257 . S
Zn70 O73 2.031 . S
Zn70 O75 2.049 . S
Zn70 O80 2.067 . S
Zn71 O72 1.962 . S
Zn71 O74 1.986 . S
Zn71 O76 1.996 . S
Zn71 O79 1.943 . S
O72 Zn71 1.962 . S
O72 C77 1.254 . S
O73 Zn70 2.031 . S
O73 C77 1.269 . S
O74 Zn71 1.986 . S
O74 C81 1.262 . S
O75 Zn70 2.049 . S
O75 C83 1.260 . S
O76 Zn71 1.996 . S
O76 C83 1.257 . S
C77 O72 1.254 . S
C77 O73 1.269 . S
C78 O79 1.249 . S
C78 O80 1.270 . S
O79 Zn71 1.943 . S
O79 C78 1.249 . S
O80 Zn70 2.067 . S
O80 C78 1.270 . S
C81 O74 1.262 . S
C81 O82 1.232 . S
O82 C81 1.232 . S
C83 O75 1.260 . S
C83 O76 1.257 . S
Zn84 O87 2.031 . S
Zn84 O89 2.049 . S
Zn84 O94 2.067 . S
Zn85 O86 1.962 . S
Zn85 O88 1.986 . S
Zn85 O90 1.996 . S
Zn85 O93 1.943 . S
O86 Zn85 1.962 . S
O86 C91 1.254 . S
O87 Zn84 2.031 . S
O87 C91 1.269 . S
O88 Zn85 1.986 . S
O88 C95 1.262 . S
O89 Zn84 2.049 . S
O89 C97 1.260 . S
O90 Zn85 1.996 . S
O90 C97 1.257 . S
C91 O86 1.254 . S
C91 O87 1.269 . S
C92 O93 1.249 . S
C92 O94 1.270 . S
O93 Zn85 1.943 . S
O93 C92 1.249 . S
O94 Zn84 2.067 . S
O94 C92 1.270 . S
C95 O88 1.262 . S
C95 O96 1.232 . S
O96 C95 1.232 . S
C97 O89 1.260 . S
C97 O90 1.257 . S
Zn98 O101 2.031 . S
Zn98 O103 2.049 . S
Zn98 O108 2.067 . S
Zn99 O100 1.962 . S
Zn99 O102 1.986 . S
Zn99 O104 1.996 . S
Zn99 O107 1.943 . S
O100 Zn99 1.962 . S
O100 C105 1.254 . S
O101 Zn98 2.031 . S
O101 C105 1.269 . S
O102 Zn99 1.986 . S
O102 C109 1.262 . S
O103 Zn98 2.049 . S
O103 C111 1.260 . S
O104 Zn99 1.996 . S
O104 C111 1.257 . S
C105 O100 1.254 . S
C105 O101 1.269 . S
C106 O107 1.249 . S
C106 O108 1.270 . S
O107 Zn99 1.943 . S
O107 C106 1.249 . S
O108 Zn98 2.067 . S
O108 C106 1.270 . S
C109 O102 1.262 . S
C109 O110 1.232 . S
O110 C109 1.232 . S
C111 O103 1.260 . S
C111 O104 1.257 . S
C112 C113 1.391 . S
C112 C114 1.394 . S
C112 H128 0.933 . S
C113 C112 1.391 . S
C113 C117 1.376 . S
C114 C112 1.394 . S
C114 C115 1.369 . S
C114 C118 1.531 1_455 S
C115 C114 1.369 . S
C115 C116 1.410 . S
C115 C123 1.503 . S
C116 C115 1.410 . S
C116 C117 1.392 . S
C116 C119 1.511 . S
C117 C113 1.376 . S
C117 C116 1.392 . S
C117 H129 0.929 . S
C118 C114 1.531 1_655 S
C118 H130 0.960 . S
C118 H131 0.962 1_655 S
C118 H132 0.960 . S
C119 C116 1.511 . S
C119 H133 0.961 . S
C119 H134 0.961 . S
C119 H135 0.961 1_455 S
C120 C121 1.370 . S
C120 C122 1.363 . S
C120 H136 0.931 . S
C121 C120 1.370 . S
C121 C125 1.408 1_455 S
C122 C120 1.363 . S
C122 C123 1.370 . S
C122 C126 1.524 . S
C123 C115 1.503 . S
C123 C122 1.370 . S
C123 C124 1.403 1_455 S
C124 C123 1.403 1_655 S
C124 C125 1.404 . S
C124 C127 1.539 . S
C125 C121 1.408 1_655 S
C125 C124 1.404 . S
C125 H137 0.930 . S
C126 C122 1.524 . S
C126 H138 0.956 . S
C126 H139 0.961 . S
C126 H140 0.961 . S
C127 C124 1.539 . S
C127 H141 0.958 . S
C127 H142 0.961 . S
C127 H143 0.960 . S
H128 C112 0.933 . S
H129 C117 0.929 . S
H130 C118 0.960 . S
H131 C118 0.962 1_455 S
H132 C118 0.960 . S
H133 C119 0.961 . S
H134 C119 0.961 . S
H135 C119 0.961 1_655 S
H136 C120 0.931 . S
H137 C125 0.930 . S
H138 C126 0.956 . S
H139 C126 0.961 . S
H140 C126 0.961 . S
H141 C127 0.958 . S
H142 C127 0.961 . S
H143 C127 0.960 . S
C144 C145 1.391 1_655 S
C144 C146 1.394 . S
C144 H160 0.931 . S
C145 C144 1.391 1_455 S
C145 C149 1.376 . S
C146 C144 1.394 . S
C146 C147 1.369 1_655 S
C146 C150 1.531 . S
C147 C146 1.369 1_455 S
C147 C148 1.410 . S
C147 C155 1.503 . S
C148 C147 1.410 . S
C148 C149 1.392 . S
C148 C151 1.511 . S
C149 C145 1.376 . S
C149 C148 1.392 . S
C149 H161 0.929 . S
C150 C146 1.531 . S
C150 H162 0.960 . S
C150 H163 0.962 . S
C150 H164 0.960 . S
C151 C148 1.511 . S
C151 H165 0.961 . S
C151 H166 0.961 . S
C151 H167 0.961 . S
C152 C153 1.370 . S
C152 C154 1.363 . S
C152 H168 0.931 . S
C153 C152 1.370 . S
C153 C157 1.408 1_455 S
C154 C152 1.363 . S
C154 C155 1.370 . S
C154 C158 1.524 . S
C155 C147 1.503 . S
C155 C154 1.370 . S
C155 C156 1.403 1_455 S
C156 C155 1.403 1_655 S
C156 C157 1.404 . S
C156 C159 1.539 . S
C157 C153 1.408 1_655 S
C157 C156 1.404 . S
C157 H169 0.930 . S
C158 C154 1.524 . S
C158 H170 0.956 . S
C158 H171 0.961 . S
C158 H172 0.961 . S
C159 C156 1.539 . S
C159 H173 0.958 . S
C159 H174 0.961 . S
C159 H175 0.960 . S
H160 C144 0.931 . S
H161 C149 0.929 . S
H162 C150 0.960 . S
H163 C150 0.962 . S
H164 C150 0.960 . S
H165 C151 0.961 . S
H166 C151 0.961 . S
H167 C151 0.961 . S
H168 C152 0.931 . S
H169 C157 0.930 . S
H170 C158 0.956 . S
H171 C158 0.961 . S
H172 C158 0.961 . S
H173 C159 0.958 . S
H174 C159 0.961 . S
H175 C159 0.960 . S
C176 C177 1.391 . S
C176 C178 1.394 . S
C176 H192 0.931 . S
C177 C176 1.391 . S
C177 C181 1.376 . S
C178 C176 1.394 . S
C178 C179 1.369 . S
C178 C182 1.531 . S
C179 C178 1.369 . S
C179 C180 1.410 . S
C179 C187 1.503 . S
C180 C179 1.410 . S
C180 C181 1.392 . S
C180 C183 1.511 . S
C181 C177 1.376 . S
C181 C180 1.392 . S
C181 H193 0.929 . S
C182 C178 1.531 . S
C182 H194 0.960 . S
C182 H195 0.962 . S
C182 H196 0.960 . S
C183 C180 1.511 . S
C183 H197 0.961 . S
C183 H198 0.961 . S
C183 H199 0.961 . S
C184 C185 1.370 . S
C184 C186 1.363 . S
C184 H200 0.931 . S
C185 C184 1.370 . S
C185 C189 1.408 . S
C186 C184 1.363 . S
C186 C187 1.370 . S
C186 C190 1.524 . S
C187 C179 1.503 . S
C187 C186 1.370 . S
C187 C188 1.403 . S
C188 C187 1.403 . S
C188 C189 1.404 . S
C188 C191 1.539 . S
C189 C185 1.408 . S
C189 C188 1.404 . S
C189 H201 0.930 . S
C190 C186 1.524 . S
C190 H202 0.956 . S
C190 H203 0.961 . S
C190 H204 0.961 . S
C191 C188 1.539 . S
C191 H205 0.958 . S
C191 H206 0.961 . S
C191 H207 0.960 . S
H192 C176 0.931 . S
H193 C181 0.929 . S
H194 C182 0.960 . S
H195 C182 0.962 . S
H196 C182 0.960 . S
H197 C183 0.961 . S
H198 C183 0.961 . S
H199 C183 0.961 . S
H200 C184 0.931 . S
H201 C189 0.930 . S
H202 C190 0.956 . S
H203 C190 0.961 . S
H204 C190 0.961 . S
H205 C191 0.958 . S
H206 C191 0.961 . S
H207 C191 0.960 . S
C208 C209 1.391 . S
C208 C210 1.394 . S
C208 H224 0.931 . S
C209 C208 1.391 . S
C209 C213 1.376 . S
C210 C208 1.394 . S
C210 C211 1.369 . S
C210 C214 1.531 . S
C211 C210 1.369 . S
C211 C212 1.410 . S
C211 C219 1.503 . S
C212 C211 1.410 . S
C212 C213 1.392 . S
C212 C215 1.511 . S
C213 C209 1.376 . S
C213 C212 1.392 . S
C213 H225 0.929 . S
C214 C210 1.531 . S
C214 H226 0.960 . S
C214 H227 0.962 . S
C214 H228 0.960 . S
C215 C212 1.511 . S
C215 H229 0.961 . S
C215 H230 0.961 . S
C215 H231 0.961 . S
C216 C217 1.370 . S
C216 C218 1.363 . S
C216 H232 0.931 . S
C217 C216 1.370 . S
C217 C221 1.408 . S
C218 C216 1.363 . S
C218 C219 1.370 . S
C218 C222 1.524 . S
C219 C211 1.503 . S
C219 C218 1.370 . S
C219 C220 1.403 . S
C220 C219 1.403 . S
C220 C221 1.404 . S
C220 C223 1.539 . S
C221 C217 1.408 . S
C221 C220 1.404 . S
C221 H233 0.930 . S
C222 C218 1.524 . S
C222 H234 0.956 . S
C222 H235 0.961 . S
C222 H236 0.961 . S
C223 C220 1.539 . S
C223 H237 0.958 . S
C223 H238 0.961 . S
C223 H239 0.960 . S
H224 C208 0.931 . S
H225 C213 0.929 . S
H226 C214 0.960 . S
H227 C214 0.962 . S
H228 C214 0.960 . S
H229 C215 0.961 . S
H230 C215 0.961 . S
H231 C215 0.961 . S
H232 C216 0.931 . S
H233 C221 0.930 . S
H234 C222 0.956 . S
H235 C222 0.961 . S
H236 C222 0.961 . S
H237 C223 0.958 . S
H238 C223 0.961 . S
H239 C223 0.960 . S
C240 C241 1.391 . S
C240 C242 1.394 . S
C240 H256 0.931 . S
C241 C240 1.391 . S
C241 C245 1.376 . S
C242 C240 1.394 . S
C242 C243 1.369 . S
C242 C246 1.531 . S
C243 C242 1.369 . S
C243 C244 1.410 . S
C243 C251 1.503 . S
C244 C243 1.410 . S
C244 C245 1.392 . S
C244 C247 1.511 . S
C245 C241 1.376 . S
C245 C244 1.392 . S
C245 H257 0.929 . S
C246 C242 1.531 . S
C246 H258 0.960 . S
C246 H259 0.962 . S
C246 H260 0.960 . S
C247 C244 1.511 . S
C247 H261 0.961 . S
C247 H262 0.961 . S
C247 H263 0.961 . S
C248 C249 1.370 . S
C248 C250 1.363 . S
C248 H264 0.931 . S
C249 C248 1.370 . S
C249 C253 1.408 . S
C250 C248 1.363 . S
C250 C251 1.370 . S
C250 C254 1.524 . S
C251 C243 1.503 . S
C251 C250 1.370 . S
C251 C252 1.403 . S
C252 C251 1.403 . S
C252 C253 1.404 . S
C252 C255 1.539 . S
C253 C249 1.408 . S
C253 C252 1.404 . S
C253 H265 0.930 . S
C254 C250 1.524 . S
C254 H266 0.956 . S
C254 H267 0.961 . S
C254 H268 0.961 . S
C255 C252 1.539 . S
C255 H269 0.958 . S
C255 H270 0.961 . S
C255 H271 0.960 . S
H256 C240 0.931 . S
H257 C245 0.929 . S
H258 C246 0.960 . S
H259 C246 0.962 . S
H260 C246 0.960 . S
H261 C247 0.961 . S
H262 C247 0.961 . S
H263 C247 0.961 . S
H264 C248 0.931 . S
H265 C253 0.930 . S
H266 C254 0.956 . S
H267 C254 0.961 . S
H268 C254 0.961 . S
H269 C255 0.958 . S
H270 C255 0.961 . S
H271 C255 0.960 . S
C272 C273 1.391 . S
C272 C274 1.394 . S
C272 H288 0.931 . S
C273 C272 1.391 . S
C273 C277 1.376 . S
C274 C272 1.394 . S
C274 C275 1.369 . S
C274 C278 1.531 . S
C275 C274 1.369 . S
C275 C276 1.410 . S
C275 C283 1.503 . S
C276 C275 1.410 . S
C276 C277 1.392 . S
C276 C279 1.511 . S
C277 C273 1.376 . S
C277 C276 1.392 . S
C277 H289 0.929 . S
C278 C274 1.531 . S
C278 H290 0.960 . S
C278 H291 0.962 . S
C278 H292 0.960 . S
C279 C276 1.511 . S
C279 H293 0.961 . S
C279 H294 0.961 . S
C279 H295 0.961 . S
C280 C281 1.370 . S
C280 C282 1.363 . S
C280 H296 0.931 . S
C281 C280 1.370 . S
C281 C285 1.408 . S
C282 C280 1.363 . S
C282 C283 1.370 . S
C282 C286 1.524 . S
C283 C275 1.503 . S
C283 C282 1.370 . S
C283 C284 1.403 . S
C284 C283 1.403 . S
C284 C285 1.404 . S
C284 C287 1.539 . S
C285 C281 1.408 . S
C285 C284 1.404 . S
C285 H297 0.930 . S
C286 C282 1.524 . S
C286 H298 0.956 . S
C286 H299 0.961 . S
C286 H300 0.961 . S
C287 C284 1.539 . S
C287 H301 0.958 . S
C287 H302 0.961 . S
C287 H303 0.960 . S
H288 C272 0.931 . S
H289 C277 0.929 . S
H290 C278 0.960 . S
H291 C278 0.962 . S
H292 C278 0.960 . S
H293 C279 0.961 . S
H294 C279 0.961 . S
H295 C279 0.961 . S
H296 C280 0.931 . S
H297 C285 0.930 . S
H298 C286 0.956 . S
H299 C286 0.961 . S
H300 C286 0.961 . S
H301 C287 0.958 . S
H302 C287 0.961 . S
H303 C287 0.960 . S
C304 C305 1.391 . S
C304 C306 1.394 . S
C304 H320 0.931 . S
C305 C304 1.391 . S
C305 C309 1.376 . S
C306 C304 1.394 . S
C306 C307 1.369 . S
C306 C310 1.531 . S
C307 C306 1.369 . S
C307 C308 1.410 . S
C307 C315 1.503 . S
C308 C307 1.410 . S
C308 C309 1.392 . S
C308 C311 1.511 . S
C309 C305 1.376 . S
C309 C308 1.392 . S
C309 H321 0.929 . S
C310 C306 1.531 . S
C310 H322 0.960 . S
C310 H323 0.962 . S
C310 H324 0.960 . S
C311 C308 1.511 . S
C311 H325 0.961 . S
C311 H326 0.961 . S
C311 H327 0.961 . S
C312 C313 1.370 . S
C312 C314 1.363 . S
C312 H328 0.931 . S
C313 C312 1.370 . S
C313 C317 1.408 . S
C314 C312 1.363 . S
C314 C315 1.370 . S
C314 C318 1.524 . S
C315 C307 1.503 . S
C315 C314 1.370 . S
C315 C316 1.403 . S
C316 C315 1.403 . S
C316 C317 1.404 . S
C316 C319 1.539 . S
C317 C313 1.408 . S
C317 C316 1.404 . S
C317 H329 0.930 . S
C318 C314 1.524 . S
C318 H330 0.956 . S
C318 H331 0.961 . S
C318 H332 0.961 . S
C319 C316 1.539 . S
C319 H333 0.958 . S
C319 H334 0.961 . S
C319 H335 0.960 . S
H320 C304 0.931 . S
H321 C309 0.929 . S
H322 C310 0.960 . S
H323 C310 0.962 . S
H324 C310 0.960 . S
H325 C311 0.961 . S
H326 C311 0.961 . S
H327 C311 0.961 . S
H328 C312 0.931 . S
H329 C317 0.930 . S
H330 C318 0.956 . S
H331 C318 0.961 . S
H332 C318 0.961 . S
H333 C319 0.958 . S
H334 C319 0.961 . S
H335 C319 0.960 . S
C336 C337 1.391 . S
C336 C338 1.394 . S
C336 H352 0.931 . S
C337 C336 1.391 . S
C337 C341 1.376 . S
C338 C336 1.394 . S
C338 C339 1.369 . S
C338 C342 1.531 . S
C339 C338 1.369 . S
C339 C340 1.410 . S
C339 C347 1.503 . S
C340 C339 1.410 . S
C340 C341 1.392 . S
C340 C343 1.511 . S
C341 C337 1.376 . S
C341 C340 1.392 . S
C341 H353 0.929 . S
C342 C338 1.531 . S
C342 H354 0.960 . S
C342 H355 0.962 . S
C342 H356 0.960 . S
C343 C340 1.511 . S
C343 H357 0.961 . S
C343 H358 0.961 . S
C343 H359 0.961 . S
C344 C345 1.370 . S
C344 C346 1.363 . S
C344 H360 0.931 . S
C345 C344 1.370 . S
C345 C349 1.408 . S
C346 C344 1.363 . S
C346 C347 1.370 . S
C346 C350 1.524 . S
C347 C339 1.503 . S
C347 C346 1.370 . S
C347 C348 1.403 . S
C348 C347 1.403 . S
C348 C349 1.404 . S
C348 C351 1.539 . S
C349 C345 1.408 . S
C349 C348 1.404 . S
C349 H361 0.930 . S
C350 C346 1.524 . S
C350 H362 0.956 . S
C350 H363 0.961 . S
C350 H364 0.961 . S
C351 C348 1.539 . S
C351 H365 0.958 . S
C351 H366 0.961 . S
C351 H367 0.960 . S
H352 C336 0.931 . S
H353 C341 0.929 . S
H354 C342 0.960 . S
H355 C342 0.962 . S
H356 C342 0.960 . S
H357 C343 0.961 . S
H358 C343 0.961 . S
H359 C343 0.961 . S
H360 C344 0.931 . S
H361 C349 0.930 . S
H362 C350 0.956 . S
H363 C350 0.961 . S
H364 C350 0.961 . S
H365 C351 0.958 . S
H366 C351 0.961 . S
H367 C351 0.960 . S
C368 C369 1.391 . S
C368 C370 1.394 . S
C368 H384 0.931 . S
C369 C368 1.391 . S
C369 C373 1.376 . S
C370 C368 1.394 . S
C370 C371 1.369 . S
C370 C374 1.531 . S
C371 C370 1.369 . S
C371 C372 1.410 . S
C371 C379 1.503 . S
C372 C371 1.410 . S
C372 C373 1.392 . S
C372 C375 1.511 . S
C373 C369 1.376 . S
C373 C372 1.392 . S
C373 H385 0.929 . S
C374 C370 1.531 . S
C374 H386 0.960 . S
C374 H387 0.962 . S
C374 H388 0.960 . S
C375 C372 1.511 . S
C375 H389 0.961 . S
C375 H390 0.961 . S
C375 H391 0.961 . S
C376 C377 1.370 . S
C376 C378 1.363 . S
C376 H392 0.931 . S
C377 C376 1.370 . S
C377 C381 1.408 . S
C378 C376 1.363 . S
C378 C379 1.370 . S
C378 C382 1.524 . S
C379 C371 1.503 . S
C379 C378 1.370 . S
C379 C380 1.403 . S
C380 C379 1.403 . S
C380 C381 1.404 . S
C380 C383 1.539 . S
C381 C377 1.408 . S
C381 C380 1.404 . S
C381 H393 0.930 . S
C382 C378 1.524 . S
C382 H394 0.956 . S
C382 H395 0.961 . S
C382 H396 0.961 . S
C383 C380 1.539 . S
C383 H397 0.958 . S
C383 H398 0.961 . S
C383 H399 0.960 . S
H384 C368 0.931 . S
H385 C373 0.929 . S
H386 C374 0.960 . S
H387 C374 0.962 . S
H388 C374 0.960 . S
H389 C375 0.961 . S
H390 C375 0.961 . S
H391 C375 0.961 . S
H392 C376 0.931 . S
H393 C381 0.930 . S
H394 C382 0.956 . S
H395 C382 0.961 . S
H396 C382 0.961 . S
H397 C383 0.958 . S
H398 C383 0.961 . S
H399 C383 0.960 . S
C400 C401 1.391 . S
C400 C402 1.394 . S
C400 H416 0.931 . S
C401 C400 1.391 . S
C401 C405 1.376 . S
C402 C400 1.394 . S
C402 C403 1.369 . S
C402 C406 1.531 . S
C403 C402 1.369 . S
C403 C404 1.410 . S
C403 C411 1.503 . S
C404 C403 1.410 . S
C404 C405 1.392 . S
C404 C407 1.511 . S
C405 C401 1.376 . S
C405 C404 1.392 . S
C405 H417 0.929 . S
C406 C402 1.531 . S
C406 H418 0.960 . S
C406 H419 0.962 . S
C406 H420 0.960 . S
C407 C404 1.511 . S
C407 H421 0.961 . S
C407 H422 0.961 . S
C407 H423 0.961 . S
C408 C409 1.370 . S
C408 C410 1.363 . S
C408 H424 0.931 . S
C409 C408 1.370 . S
C409 C413 1.408 . S
C410 C408 1.363 . S
C410 C411 1.370 . S
C410 C414 1.524 . S
C411 C403 1.503 . S
C411 C410 1.370 . S
C411 C412 1.403 . S
C412 C411 1.403 . S
C412 C413 1.404 . S
C412 C415 1.539 . S
C413 C409 1.408 . S
C413 C412 1.404 . S
C413 H425 0.930 . S
C414 C410 1.524 . S
C414 H426 0.956 . S
C414 H427 0.961 . S
C414 H428 0.961 . S
C415 C412 1.539 . S
C415 H429 0.958 . S
C415 H430 0.961 . S
C415 H431 0.960 . S
H416 C400 0.931 . S
H417 C405 0.929 . S
H418 C406 0.960 . S
H419 C406 0.962 . S
H420 C406 0.960 . S
H421 C407 0.961 . S
H422 C407 0.961 . S
H423 C407 0.961 . S
H424 C408 0.931 . S
H425 C413 0.930 . S
H426 C414 0.956 . S
H427 C414 0.961 . S
H428 C414 0.961 . S
H429 C415 0.958 . S
H430 C415 0.961 . S
H431 C415 0.960 . S
C432 C433 1.391 . S
C432 C434 1.394 . S
C432 H448 0.931 . S
C433 C432 1.391 . S
C433 C437 1.376 . S
C434 C432 1.394 . S
C434 C435 1.369 . S
C434 C438 1.531 . S
C435 C434 1.369 . S
C435 C436 1.410 . S
C435 C443 1.503 . S
C436 C435 1.410 . S
C436 C437 1.392 . S
C436 C439 1.511 . S
C437 C433 1.376 . S
C437 C436 1.392 . S
C437 H449 0.929 . S
C438 C434 1.531 . S
C438 H450 0.960 . S
C438 H451 0.962 . S
C438 H452 0.960 1_545 S
C439 C436 1.511 . S
C439 H453 0.961 . S
C439 H454 0.961 . S
C439 H455 0.961 . S
C440 C441 1.370 . S
C440 C442 1.363 . S
C440 H456 0.931 . S
C441 C440 1.370 . S
C441 C445 1.408 . S
C442 C440 1.363 . S
C442 C443 1.370 . S
C442 C446 1.524 . S
C443 C435 1.503 . S
C443 C442 1.370 . S
C443 C444 1.403 . S
C444 C443 1.403 . S
C444 C445 1.404 . S
C444 C447 1.539 . S
C445 C441 1.408 . S
C445 C444 1.404 . S
C445 H457 0.930 . S
C446 C442 1.524 . S
C446 H458 0.956 . S
C446 H459 0.961 . S
C446 H460 0.961 . S
C447 C444 1.539 . S
C447 H461 0.958 . S
C447 H462 0.961 . S
C447 H463 0.960 . S
H448 C432 0.931 . S
H449 C437 0.929 . S
H450 C438 0.960 . S
H451 C438 0.962 . S
H452 C438 0.960 1_565 S
H453 C439 0.961 . S
H454 C439 0.961 . S
H455 C439 0.961 . S
H456 C440 0.931 . S
H457 C445 0.930 . S
H458 C446 0.956 . S
H459 C446 0.961 . S
H460 C446 0.961 . S
H461 C447 0.958 . S
H462 C447 0.961 . S
H463 C447 0.960 . S
C464 C465 1.391 . S
C464 C466 1.394 . S
C464 H480 0.931 . S
C465 C464 1.391 . S
C465 C469 1.376 . S
C466 C464 1.394 . S
C466 C467 1.369 . S
C466 C470 1.531 . S
C467 C466 1.369 . S
C467 C468 1.410 . S
C467 C475 1.503 . S
C468 C467 1.410 . S
C468 C469 1.392 . S
C468 C471 1.511 . S
C469 C465 1.376 . S
C469 C468 1.392 . S
C469 H481 0.929 . S
C470 C466 1.531 . S
C470 H482 0.960 . S
C470 H483 0.962 . S
C470 H484 0.960 . S
C471 C468 1.511 . S
C471 H485 0.961 . S
C471 H486 0.961 . S
C471 H487 0.961 . S
C472 C473 1.370 . S
C472 C474 1.363 . S
C472 H488 0.931 . S
C473 C472 1.370 . S
C473 C477 1.408 . S
C474 C472 1.363 . S
C474 C475 1.370 . S
C474 C478 1.524 . S
C475 C467 1.503 . S
C475 C474 1.370 . S
C475 C476 1.403 . S
C476 C475 1.403 . S
C476 C477 1.404 . S
C476 C479 1.539 . S
C477 C473 1.408 . S
C477 C476 1.404 . S
C477 H489 0.930 . S
C478 C474 1.524 . S
C478 H490 0.956 . S
C478 H491 0.961 . S
C478 H492 0.961 . S
C479 C476 1.539 . S
C479 H493 0.958 . S
C479 H494 0.961 . S
C479 H495 0.960 . S
H480 C464 0.931 . S
H481 C469 0.929 . S
H482 C470 0.960 . S
H483 C470 0.962 . S
H484 C470 0.960 . S
H485 C471 0.961 . S
H486 C471 0.961 . S
H487 C471 0.961 . S
H488 C472 0.931 . S
H489 C477 0.930 . S
H490 C478 0.956 . S
H491 C478 0.961 . S
H492 C478 0.961 . S
H493 C479 0.958 . S
H494 C479 0.961 . S
H495 C479 0.960 . S
C496 C497 1.391 . S
C496 C498 1.394 . S
C496 H512 0.931 . S
C497 C496 1.391 . S
C497 C501 1.376 1_455 S
C498 C496 1.394 . S
C498 C499 1.369 . S
C498 C502 1.531 . S
C499 C498 1.369 . S
C499 C500 1.410 1_455 S
C499 C507 1.503 1_544 S
C500 C499 1.410 1_655 S
C500 C501 1.392 . S
C500 C503 1.511 1_545 S
C501 C497 1.376 1_655 S
C501 C500 1.392 . S
C501 H513 0.929 . S
C502 C498 1.531 . S
C502 H514 0.960 1_545 S
C502 H515 0.962 1_554 S
C502 H516 0.960 . S
C503 C500 1.511 1_565 S
C503 H517 0.961 1_565 S
C503 H518 0.961 . S
C503 H519 0.961 . S
C504 C505 1.370 . S
C504 C506 1.363 1_565 S
C504 H520 0.931 1_565 S
C505 C504 1.370 . S
C505 C509 1.408 . S
C506 C504 1.363 1_545 S
C506 C507 1.370 1_545 S
C506 C510 1.524 1_455 S
C507 C499 1.503 1_566 S
C507 C506 1.370 1_565 S
C507 C508 1.403 . S
C508 C507 1.403 . S
C508 C509 1.404 . S
C508 C511 1.539 1_556 S
C509 C505 1.408 . S
C509 C508 1.404 . S
C509 H521 0.930 . S
C510 C506 1.524 1_655 S
C510 H522 0.956 1_655 S
C510 H523 0.961 . S
C510 H524 0.961 . S
C511 C508 1.539 1_554 S
C511 H525 0.958 . S
C511 H526 0.961 . S
C511 H527 0.960 . S
H512 C496 0.931 . S
H513 C501 0.929 . S
H514 C502 0.960 1_565 S
H515 C502 0.962 1_556 S
H516 C502 0.960 . S
H517 C503 0.961 1_545 S
H518 C503 0.961 . S
H519 C503 0.961 . S
H520 C504 0.931 1_545 S
H521 C509 0.930 . S
H522 C510 0.956 1_455 S
H523 C510 0.961 . S
H524 C510 0.961 . S
H525 C511 0.958 . S
H526 C511 0.961 . S
H527 C511 0.960 . S
C528 C529 1.391 . S
C528 C530 1.394 . S
C528 H544 0.931 . S
C529 C528 1.391 . S
C529 C533 1.376 . S
C530 C528 1.394 . S
C530 C531 1.369 . S
C530 C534 1.531 . S
C531 C530 1.369 . S
C531 C532 1.410 . S
C531 C539 1.503 1_556 S
C532 C531 1.410 . S
C532 C533 1.392 . S
C532 C535 1.511 1_556 S
C533 C529 1.376 . S
C533 C532 1.392 . S
C533 H545 0.929 . S
C534 C530 1.531 . S
C534 H546 0.960 . S
C534 H547 0.962 1_455 S
C534 H548 0.960 . S
C535 C532 1.511 1_554 S
C535 H549 0.961 . S
C535 H550 0.961 . S
C535 H551 0.961 . S
C536 C537 1.370 1_655 S
C536 C538 1.363 . S
C536 H552 0.931 . S
C537 C536 1.370 1_455 S
C537 C541 1.408 . S
C538 C536 1.363 . S
C538 C539 1.370 1_655 S
C538 C542 1.524 . S
C539 C531 1.503 1_554 S
C539 C538 1.370 1_455 S
C539 C540 1.403 . S
C540 C539 1.403 . S
C540 C541 1.404 . S
C540 C543 1.539 . S
C541 C537 1.408 . S
C541 C540 1.404 . S
C541 H553 0.930 . S
C542 C538 1.524 . S
C542 H554 0.956 1_554 S
C542 H555 0.961 . S
C542 H556 0.961 . S
C543 C540 1.539 . S
C543 H557 0.958 . S
C543 H558 0.961 . S
C543 H559 0.960 . S
H544 C528 0.931 . S
H545 C533 0.929 . S
H546 C534 0.960 . S
H547 C534 0.962 1_655 S
H548 C534 0.960 . S
H549 C535 0.961 . S
H550 C535 0.961 . S
H551 C535 0.961 . S
H552 C536 0.931 . S
H553 C541 0.930 . S
H554 C542 0.956 1_556 S
H555 C542 0.961 . S
H556 C542 0.961 . S
H557 C543 0.958 . S
H558 C543 0.961 . S
H559 C543 0.960 . S
C560 C561 1.391 . S
C560 C562 1.394 . S
C560 H576 0.931 . S
C561 C560 1.391 . S
C561 C565 1.376 . S
C562 C560 1.394 . S
C562 C563 1.369 . S
C562 C566 1.531 . S
C563 C562 1.369 . S
C563 C564 1.410 . S
C563 C571 1.503 . S
C564 C563 1.410 . S
C564 C565 1.392 . S
C564 C567 1.511 . S
C565 C561 1.376 . S
C565 C564 1.392 . S
C565 H577 0.929 . S
C566 C562 1.531 . S
C566 H578 0.960 . S
C566 H579 0.962 . S
C566 H580 0.960 . S
C567 C564 1.511 . S
C567 H581 0.961 . S
C567 H582 0.961 . S
C567 H583 0.961 . S
C568 C569 1.370 . S
C568 C570 1.363 . S
C568 H584 0.931 . S
C569 C568 1.370 . S
C569 C573 1.408 . S
C570 C568 1.363 . S
C570 C571 1.370 . S
C570 C574 1.524 . S
C571 C563 1.503 . S
C571 C570 1.370 . S
C571 C572 1.403 . S
C572 C571 1.403 . S
C572 C573 1.404 . S
C572 C575 1.539 . S
C573 C569 1.408 . S
C573 C572 1.404 . S
C573 H585 0.930 . S
C574 C570 1.524 . S
C574 H586 0.956 . S
C574 H587 0.961 . S
C574 H588 0.961 . S
C575 C572 1.539 . S
C575 H589 0.958 . S
C575 H590 0.961 . S
C575 H591 0.960 . S
H576 C560 0.931 . S
H577 C565 0.929 . S
H578 C566 0.960 . S
H579 C566 0.962 . S
H580 C566 0.960 . S
H581 C567 0.961 . S
H582 C567 0.961 . S
H583 C567 0.961 . S
H584 C568 0.931 . S
H585 C573 0.930 . S
H586 C574 0.956 . S
H587 C574 0.961 . S
H588 C574 0.961 . S
H589 C575 0.958 . S
H590 C575 0.961 . S
H591 C575 0.960 . S
C592 C593 1.391 . S
C592 C594 1.394 . S
C592 H608 0.931 . S
C593 C592 1.391 . S
C593 C597 1.376 . S
C594 C592 1.394 . S
C594 C595 1.369 . S
C594 C598 1.531 . S
C595 C594 1.369 . S
C595 C596 1.410 1_565 S
C595 C603 1.503 1_565 S
C596 C595 1.410 1_545 S
C596 C597 1.392 1_545 S
C596 C599 1.511 . S
C597 C593 1.376 . S
C597 C596 1.392 1_565 S
C597 H609 0.929 1_565 S
C598 C594 1.531 . S
C598 H610 0.960 . S
C598 H611 0.962 . S
C598 H612 0.960 . S
C599 C596 1.511 . S
C599 H613 0.961 . S
C599 H614 0.961 . S
C599 H615 0.961 . S
C600 C601 1.370 . S
C600 C602 1.363 . S
C600 H616 0.931 . S
C601 C600 1.370 . S
C601 C605 1.408 . S
C602 C600 1.363 . S
C602 C603 1.370 . S
C602 C606 1.524 1_545 S
C603 C595 1.503 1_545 S
C603 C602 1.370 . S
C603 C604 1.403 . S
C604 C603 1.403 . S
C604 C605 1.404 . S
C604 C607 1.539 . S
C605 C601 1.408 . S
C605 C604 1.404 . S
C605 H617 0.930 . S
C606 C602 1.524 1_565 S
C606 H618 0.956 . S
C606 H619 0.961 . S
C606 H620 0.961 . S
C607 C604 1.539 . S
C607 H621 0.958 . S
C607 H622 0.961 . S
C607 H623 0.960 . S
H608 C592 0.931 . S
H609 C597 0.929 1_545 S
H610 C598 0.960 . S
H611 C598 0.962 . S
H612 C598 0.960 . S
H613 C599 0.961 . S
H614 C599 0.961 . S
H615 C599 0.961 . S
H616 C600 0.931 . S
H617 C605 0.930 . S
H618 C606 0.956 . S
H619 C606 0.961 . S
H620 C606 0.961 . S
H621 C607 0.958 . S
H622 C607 0.961 . S
H623 C607 0.960 . S
C113 C22 1.440 . S
C121 C8 1.414 . S
C145 C36 1.385 . S
C153 C50 1.419 . S
C177 C64 1.408 . S
C185 C78 1.405 . S
C209 C92 1.392 . S
C217 C106 1.406 . S
C241 C105 1.513 . S
C249 C7 1.502 . S
C273 C91 1.488 . S
C281 C21 1.505 . S
C305 C35 1.491 . S
C313 C77 1.510 . S
C337 C63 1.510 . S
C345 C49 1.501 . S
C369 C83 1.181 . S
C377 C41 1.214 . S
C401 C69 1.197 . S
C409 C55 1.208 . S
C433 C111 1.183 . S
C441 C13 1.241 . S
C465 C27 1.213 . S
C473 C97 1.205 . S
C497 C11 1.355 . S
C505 C39 1.359 . S
C529 C53 1.367 . S
C537 C25 1.364 . S
C561 C95 1.354 . S
C569 C67 1.359 . S
C593 C81 1.346 . S
C601 C109 1.355 . S
