# Generated by pormake.
# Topology soe, (5)-cn, num edge types: 1
# Building blocks:
#     Node 0, Type 0, BuildingBlock: XOMCOT_clean_sbu_1, # of connection points: 5
#     Node 1, Type 0, BuildingBlock: XOMCOT_clean_sbu_1, # of connection points: 5
#     Node 2, Type 0, BuildingBlock: XOMCOT_clean_sbu_1, # of connection points: 5
#     Node 3, Type 0, BuildingBlock: XOMCOT_clean_sbu_1, # of connection points: 5
#     Node 4, Type 0, BuildingBlock: XOMCOT_clean_sbu_1, # of connection points: 5
#     Node 5, Type 0, BuildingBlock: XOMCOT_clean_sbu_1, # of connection points: 5
#     Node 6, Type 0, BuildingBlock: XOMCOT_clean_sbu_1, # of connection points: 5
#     Node 7, Type 0, BuildingBlock: XOMCOT_clean_sbu_1, # of connection points: 5
#     Edge 8, Type (0, 0), BuildingBlock: AJUNOK_clean_linker_0, # of connection points: 2
#     Edge 9, Type (0, 0), BuildingBlock: AJUNOK_clean_linker_0, # of connection points: 2
#     Edge 10, Type (0, 0), BuildingBlock: AJUNOK_clean_linker_0, # of connection points: 2
#     Edge 11, Type (0, 0), BuildingBlock: AJUNOK_clean_linker_0, # of connection points: 2
#     Edge 12, Type (0, 0), BuildingBlock: AJUNOK_clean_linker_0, # of connection points: 2
#     Edge 13, Type (0, 0), BuildingBlock: AJUNOK_clean_linker_0, # of connection points: 2
#     Edge 14, Type (0, 0), BuildingBlock: AJUNOK_clean_linker_0, # of connection points: 2
#     Edge 15, Type (0, 0), BuildingBlock: AJUNOK_clean_linker_0, # of connection points: 2
#     Edge 16, Type (0, 0), BuildingBlock: AJUNOK_clean_linker_0, # of connection points: 2
#     Edge 17, Type (0, 0), BuildingBlock: AJUNOK_clean_linker_0, # of connection points: 2
#     Edge 18, Type (0, 0), BuildingBlock: AJUNOK_clean_linker_0, # of connection points: 2
#     Edge 19, Type (0, 0), BuildingBlock: AJUNOK_clean_linker_0, # of connection points: 2
#     Edge 20, Type (0, 0), BuildingBlock: AJUNOK_clean_linker_0, # of connection points: 2
#     Edge 21, Type (0, 0), BuildingBlock: AJUNOK_clean_linker_0, # of connection points: 2
#     Edge 22, Type (0, 0), BuildingBlock: AJUNOK_clean_linker_0, # of connection points: 2
#     Edge 23, Type (0, 0), BuildingBlock: AJUNOK_clean_linker_0, # of connection points: 2
#     Edge 24, Type (0, 0), BuildingBlock: AJUNOK_clean_linker_0, # of connection points: 2
#     Edge 25, Type (0, 0), BuildingBlock: AJUNOK_clean_linker_0, # of connection points: 2
#     Edge 26, Type (0, 0), BuildingBlock: AJUNOK_clean_linker_0, # of connection points: 2
#     Edge 27, Type (0, 0), BuildingBlock: AJUNOK_clean_linker_0, # of connection points: 2
# Relax obj value: 0.055
# Max RMSD: 0.084
# Mean RMSD: 0.084
data_MOF--net-soe--node1-XOMCOT_clean_sbu_1--edge1-AJUNOK_clean_linker_0
_symmetry_space_group_name_H-M    P1
_symmetry_Int_Tables_number       1
_symmetry_cell_setting            triclinic
loop_
_symmetry_equiv_pos_as_xyz
'x, y, z'
_cell_length_a     41.657351
_cell_length_b     34.812816
_cell_length_c     13.467636
_cell_angle_alpha  90.039985
_cell_angle_beta   89.95612
_cell_angle_gamma 90.097692
loop_
_atom_site_label
_atom_site_type_symbol
_atom_site_fract_x
_atom_site_fract_y
_atom_site_fract_z
_atom_type_partial_charge
C0 C 0.16043 0.15548 0.02961 0.0
C1 C 0.16199 0.1583 0.92757 0.0
N2 N 0.13424 0.14489 0.88968 0.0
N3 N 0.13205 0.13976 0.05563 0.0
C4 C 0.1165 0.13404 0.96874 0.0
H5 H 0.17931 0.16285 0.08138 0.0
Co6 Co 0.1203 0.12458 0.18353 0.0
C7 C 0.08116 0.05388 0.13969 0.0
O8 O 0.09732 0.03393 0.2056 0.0
N9 N 0.10791 0.11035 0.31491 0.0
C10 C 0.07605 0.09931 0.4453 0.0
C11 C 0.07831 0.09869 0.34353 0.0
C12 C 0.12273 0.11903 0.40187 0.0
N13 N 0.10393 0.11264 0.4819 0.0
O14 O 0.08941 0.16529 0.18863 0.0
H15 H 0.05848 0.09291 0.29412 0.0
H16 H 0.14564 0.13333 0.40722 0.0
O17 O 0.08811 0.08933 0.12642 0.0
C18 C 0.10149 0.19245 0.24005 0.0
O19 O 0.13081 0.18855 0.27426 0.0
N20 N 0.1536 0.0878 0.17992 0.0
C21 C 0.21312 0.05094 0.16012 0.0
C22 C 0.1872 0.0412 0.09803 0.0
C23 C 0.1577 0.06029 0.10841 0.0
C24 C 0.17888 0.09817 0.23823 0.0
C25 C 0.20835 0.07956 0.23163 0.0
H26 H 0.13912 0.05482 0.05435 0.0
H27 H 0.17726 0.12325 0.2845 0.0
H28 H 0.09327 0.12035 0.96268 0.0
H29 H 0.1822 0.16857 0.88446 0.0
H30 H 0.05502 0.09194 0.48852 0.0
H31 H 0.19013 0.0206 0.0385 0.0
H32 H 0.2277 0.08871 0.27991 0.0
C33 C 0.40304 0.87321 0.03899 0.0
C34 C 0.40051 0.87082 0.937 0.0
N35 N 0.42199 0.89524 0.89636 0.0
N36 N 0.42584 0.89912 0.06254 0.0
C37 C 0.43692 0.91191 0.97417 0.0
H38 H 0.38848 0.858 0.09268 0.0
Co39 Co 0.43613 0.91555 0.19044 0.0
C40 C 0.47675 0.98581 0.1471 0.0
O41 O 0.46134 1.00714 0.21204 0.0
N42 N 0.44676 0.93133 0.32146 0.0
C43 C 0.47618 0.94414 0.45608 0.0
C44 C 0.476 0.94278 0.354 0.0
C45 C 0.43001 0.92481 0.40616 0.0
N46 N 0.44732 0.93238 0.48844 0.0
O47 O 0.4676 0.87557 0.19985 0.0
H48 H 0.49688 0.94679 0.30752 0.0
H49 H 0.40647 0.91191 0.4088 0.0
O50 O 0.46844 0.95075 0.13492 0.0
C51 C 0.45652 0.84871 0.25436 0.0
O52 O 0.42768 0.85256 0.29246 0.0
N53 N 0.40225 0.95097 0.18249 0.0
C54 C 0.34166 0.98454 0.15922 0.0
C55 C 0.36844 0.99884 0.10723 0.0
C56 C 0.39854 0.98113 0.1185 0.0
C57 C 0.3763 0.93663 0.23171 0.0
C58 C 0.34621 0.95354 0.22367 0.0
H59 H 0.41804 0.99018 0.07119 0.0
H60 H 0.3784 0.91012 0.27243 0.0
H61 H 0.45523 0.93365 0.96624 0.0
H62 H 0.38324 0.85366 0.89658 0.0
H63 H 0.49669 0.95015 0.50296 0.0
H64 H 0.36582 0.02227 0.05503 0.0
H65 H 0.32643 0.94157 0.2658 0.0
C66 C 0.15441 0.38088 0.50047 0.0
C67 C 0.15699 0.37864 0.60249 0.0
N68 N 0.13233 0.39823 0.64262 0.0
N69 N 0.12838 0.40195 0.47686 0.0
C70 C 0.1153 0.41173 0.56521 0.0
H71 H 0.17096 0.36894 0.44684 0.0
Co72 Co 0.11697 0.41742 0.34914 0.0
C73 C 0.07578 0.48674 0.39408 0.0
O74 O 0.0914 0.5083 0.33009 0.0
N75 N 0.10516 0.43211 0.218 0.0
C76 C 0.07487 0.44459 0.08539 0.0
C77 C 0.07584 0.44373 0.18734 0.0
C78 C 0.12108 0.42481 0.13215 0.0
N79 N 0.10339 0.43252 0.0505 0.0
O80 O 0.08655 0.37609 0.34214 0.0
H81 H 0.05539 0.44847 0.2351 0.0
H82 H 0.1439 0.41036 0.12876 0.0
O83 O 0.08404 0.45165 0.40559 0.0
C84 C 0.09891 0.34915 0.29071 0.0
O85 O 0.12798 0.35387 0.25499 0.0
N86 N 0.14989 0.45455 0.35488 0.0
C87 C 0.20938 0.49141 0.37732 0.0
C88 C 0.18284 0.50215 0.43572 0.0
C89 C 0.15332 0.48304 0.42411 0.0
C90 C 0.17575 0.44323 0.30034 0.0
C91 C 0.20524 0.4618 0.30816 0.0
H92 H 0.13417 0.48936 0.47557 0.0
H93 H 0.17443 0.41752 0.25618 0.0
H94 H 0.09453 0.42992 0.57377 0.0
H95 H 0.17563 0.36409 0.6438 0.0
H96 H 0.05417 0.4517 0.04055 0.0
H97 H 0.18523 0.52361 0.49345 0.0
H98 H 0.22503 0.45189 0.26272 0.0
C99 C 0.39426 0.65696 0.51532 0.0
C100 C 0.39297 0.65782 0.61768 0.0
N101 N 0.42036 0.64259 0.65324 0.0
N102 N 0.42234 0.64121 0.48673 0.0
C103 C 0.438 0.63381 0.57235 0.0
H104 H 0.37525 0.66524 0.4651 0.0
Co105 Co 0.4336 0.62568 0.35884 0.0
C106 C 0.47205 0.55427 0.40108 0.0
O107 O 0.45645 0.53463 0.3331 0.0
N108 N 0.44562 0.61059 0.22827 0.0
C109 C 0.4774 0.59917 0.09806 0.0
C110 C 0.47566 0.60073 0.19988 0.0
C111 C 0.4299 0.61598 0.14126 0.0
N112 N 0.44857 0.60894 0.0614 0.0
O113 O 0.46539 0.66552 0.35341 0.0
H114 H 0.49592 0.59782 0.24938 0.0
H115 H 0.40599 0.62751 0.13515 0.0
O116 O 0.46492 0.58954 0.41565 0.0
C117 C 0.4543 0.6922 0.29852 0.0
O118 O 0.42542 0.68817 0.26088 0.0
N119 N 0.39937 0.59025 0.36249 0.0
C120 C 0.33837 0.55704 0.38237 0.0
C121 C 0.36446 0.54348 0.43847 0.0
C122 C 0.39474 0.561 0.42882 0.0
C123 C 0.37407 0.60384 0.30905 0.0
C124 C 0.34383 0.58705 0.31539 0.0
H125 H 0.41357 0.55275 0.47944 0.0
H126 H 0.37661 0.63 0.26708 0.0
H127 H 0.4617 0.62139 0.57568 0.0
H128 H 0.37274 0.66695 0.6623 0.0
H129 H 0.49884 0.59424 0.05443 0.0
H130 H 0.36111 0.52088 0.49275 0.0
H131 H 0.32458 0.5985 0.2703 0.0
C132 C 0.89818 0.87764 1.01464 0.0
C133 C 0.89566 0.87494 0.1166 0.0
N134 N 0.91933 0.89613 0.15715 0.0
N135 N 0.92323 0.90053 0.99143 0.0
C136 C 0.93575 0.91103 0.08 0.0
H137 H 0.88226 0.86465 0.96077 0.0
Co138 Co 0.93416 0.91677 0.86374 0.0
C139 C 0.97492 0.98641 0.91254 0.0
O140 O 0.95864 1.00869 0.85207 0.0
N141 N 0.9454 0.93211 0.73256 0.0
C142 C 0.97455 0.94698 0.5989 0.0
C143 C 0.97382 0.94643 0.70089 0.0
C144 C 0.92992 0.92284 0.64723 0.0
N145 N 0.94688 0.93199 0.56499 0.0
O146 O 0.96474 0.87586 0.85382 0.0
H147 H 0.99405 0.95325 0.74774 0.0
H148 H 0.90811 0.90617 0.6448 0.0
O149 O 0.96719 0.95095 0.92038 0.0
C150 C 0.95154 0.84865 0.80528 0.0
O151 O 0.92168 0.85273 0.77612 0.0
N152 N 0.90111 0.95365 0.87185 0.0
C153 C 0.84182 0.99071 0.89472 0.0
C154 C 0.86815 1.00053 0.95509 0.0
C155 C 0.89755 0.9813 0.94324 0.0
C156 C 0.87544 0.94323 0.81525 0.0
C157 C 0.84606 0.96189 0.82345 0.0
H158 H 0.91654 0.98695 0.99577 0.0
H159 H 0.87681 0.91824 0.76855 0.0
H160 H 0.95559 0.93069 0.08894 0.0
H161 H 0.87774 0.85891 0.15758 0.0
H162 H 0.99463 0.95596 0.55339 0.0
H163 H 0.86564 0.02139 1.01421 0.0
H164 H 0.82641 0.95274 0.77636 0.0
C165 C 0.65851 0.15839 0.02841 0.0
C166 C 0.66001 0.15902 0.13072 0.0
N167 N 0.63268 0.14363 0.16671 0.0
N168 N 0.63037 0.14263 1.00027 0.0
C169 C 0.61486 0.135 0.08611 0.0
H170 H 0.67744 0.16681 0.97787 0.0
Co171 Co 0.61904 0.12722 0.87245 0.0
C172 C 0.58013 0.05604 0.9131 0.0
O173 O 0.59568 0.0368 0.84429 0.0
N174 N 0.60702 0.11229 0.7419 0.0
C175 C 0.57531 0.10114 0.61149 0.0
C176 C 0.57687 0.10295 0.71328 0.0
C177 C 0.623 0.11715 0.65506 0.0
N178 N 0.60436 0.11023 0.57507 0.0
O179 O 0.58757 0.16734 0.86701 0.0
H180 H 0.5565 0.10052 0.76262 0.0
H181 H 0.64711 0.1282 0.64911 0.0
O182 O 0.58739 0.09122 0.92902 0.0
C183 C 0.59911 0.19411 0.81306 0.0
O184 O 0.628 0.18985 0.77559 0.0
N185 N 0.65298 0.09149 0.87625 0.0
C186 C 0.71355 0.05761 0.89723 0.0
C187 C 0.68719 0.04427 0.95266 0.0
C188 C 0.65714 0.06216 0.94256 0.0
C189 C 0.67855 0.10487 0.8234 0.0
C190 C 0.70862 0.08777 0.83042 0.0
H191 H 0.63812 0.05409 0.99288 0.0
H192 H 0.67638 0.13106 0.78142 0.0
H193 H 0.59115 0.12252 0.08976 0.0
H194 H 0.68034 0.1681 0.17498 0.0
H195 H 0.55387 0.09651 0.56764 0.0
H196 H 0.69015 0.02158 1.00684 0.0
H197 H 0.72815 0.09908 0.786 0.0
C198 C 0.8929 0.65779 0.51151 0.0
C199 C 0.89152 0.6587 0.40919 0.0
N200 N 0.91903 0.64386 0.37322 0.0
N201 N 0.92113 0.64241 0.53964 0.0
C202 C 0.93682 0.63526 0.45383 0.0
H203 H 0.87382 0.6657 0.56202 0.0
Co204 Co 0.93237 0.62687 0.66733 0.0
C205 C 0.97147 0.55615 0.62533 0.0
O206 O 0.95554 0.5366 0.69276 0.0
N207 N 0.94433 0.61192 0.79786 0.0
C208 C 0.97608 0.60083 0.92812 0.0
C209 C 0.9744 0.60227 0.82635 0.0
C210 C 0.92857 0.61747 0.88483 0.0
N211 N 0.94721 0.61052 0.96472 0.0
O212 O 0.96342 0.6675 0.67458 0.0
H213 H 0.99472 0.59949 0.77698 0.0
H214 H 0.90468 0.62909 0.89085 0.0
O215 O 0.96445 0.59145 0.61053 0.0
C216 C 0.95076 0.69392 0.72716 0.0
O217 O 0.92129 0.6891 0.75968 0.0
N218 N 0.8988 0.59046 0.66213 0.0
C219 C 0.83904 0.55406 0.64201 0.0
C220 C 0.86532 0.54298 0.58296 0.0
C221 C 0.89495 0.56192 0.59322 0.0
C222 C 0.87313 0.6023 0.71683 0.0
C223 C 0.84348 0.58401 0.71003 0.0
H224 H 0.91387 0.55535 0.54115 0.0
H225 H 0.87479 0.62817 0.76039 0.0
H226 H 0.9606 0.62305 0.45017 0.0
H227 H 0.87117 0.66753 0.36485 0.0
H228 H 0.99751 0.59604 0.97176 0.0
H229 H 0.86264 0.52129 0.52592 0.0
H230 H 0.82384 0.59424 0.75563 0.0
C231 C 0.65299 0.37771 0.53079 0.0
C232 C 0.65554 0.37505 0.42883 0.0
N233 N 0.63162 0.39575 0.38834 0.0
N234 N 0.62769 0.40009 0.55411 0.0
C235 C 0.61505 0.41034 0.46555 0.0
H236 H 0.66911 0.36513 0.58459 0.0
Co237 Co 0.61688 0.41646 0.68187 0.0
C238 C 0.57638 0.4862 0.63409 0.0
O239 O 0.59244 0.50831 0.69574 0.0
N240 N 0.60575 0.43196 0.81308 0.0
C241 C 0.57624 0.44589 0.94663 0.0
C242 C 0.57708 0.44549 0.84464 0.0
C243 C 0.62132 0.42308 0.89845 0.0
N244 N 0.60412 0.43162 0.98064 0.0
O245 O 0.58593 0.37586 0.69199 0.0
H246 H 0.55679 0.45175 0.79761 0.0
H247 H 0.64338 0.40697 0.90096 0.0
O248 O 0.5842 0.45085 0.62522 0.0
C249 C 0.59907 0.34897 0.7415 0.0
O250 O 0.62906 0.3531 0.76959 0.0
N251 N 0.6503 0.45289 0.67385 0.0
C252 C 0.71055 0.48739 0.64815 0.0
C253 C 0.68406 0.49924 0.59131 0.0
C254 C 0.65415 0.48108 0.60404 0.0
C255 C 0.67596 0.4412 0.72859 0.0
C256 C 0.70585 0.45866 0.7192 0.0
H257 H 0.63498 0.48792 0.55322 0.0
H258 H 0.67413 0.41598 0.77428 0.0
H259 H 0.59502 0.42965 0.45668 0.0
H260 H 0.67368 0.35945 0.38779 0.0
H261 H 0.55596 0.4542 0.99205 0.0
H262 H 0.68684 0.52087 0.53419 0.0
H263 H 0.72546 0.44861 0.76504 0.0
C264 C 0.30428 0.04101 0.15268 0.0
C265 C 0.30892 1.00112 0.14644 0.0
C266 C 0.2733 0.05683 0.15347 0.0
C267 C 0.24563 0.03344 0.1483 0.0
H268 H 0.32468 0.06009 0.16081 0.0
H269 H 0.27104 0.08772 0.16002 0.0
S270 S 0.24486 0.92744 0.11941 0.0
N271 N 0.28333 0.93879 0.12425 0.0
N272 N 0.22521 0.96837 0.13005 0.0
C273 C 0.25 0.99364 0.13711 0.0
C274 C 0.28157 0.97754 0.13541 0.0
C275 C 0.26942 0.48531 0.39019 0.0
C276 C 0.24189 0.50891 0.39056 0.0
C277 C 0.3005 0.50096 0.39172 0.0
C278 C 0.30538 0.54088 0.39394 0.0
H279 H 0.26699 0.45436 0.38677 0.0
H280 H 0.32082 0.48165 0.38734 0.0
S281 S 0.24167 0.61527 0.40814 0.0
N282 N 0.2218 0.57431 0.40031 0.0
N283 N 0.28008 0.60365 0.40749 0.0
C284 C 0.27812 0.56477 0.4003 0.0
C285 C 0.24646 0.54883 0.39786 0.0
C286 C 0.75079 1.00109 0.90591 0.0
C287 C 0.74631 0.04105 0.90945 0.0
C288 C 0.78171 0.98512 0.90505 0.0
C289 C 0.80946 1.00844 0.90761 0.0
H290 H 0.73029 0.98203 0.89994 0.0
H291 H 0.78387 0.95417 0.90036 0.0
S292 S 0.81067 0.11467 0.92912 0.0
N293 N 0.77215 0.10347 0.92623 0.0
N294 N 0.83017 0.07354 0.92081 0.0
C295 C 0.80526 0.04835 0.91627 0.0
C296 C 0.77376 0.06461 0.91783 0.0
C297 C 0.77891 0.55968 0.63115 0.0
C298 C 0.80657 0.53628 0.63106 0.0
C299 C 0.74791 0.54376 0.63212 0.0
C300 C 0.74328 0.50379 0.63301 0.0
H301 H 0.7812 0.59067 0.63252 0.0
H302 H 0.72747 0.56291 0.63618 0.0
S303 S 0.80733 0.42978 0.62127 0.0
N304 N 0.827 0.47097 0.62497 0.0
N305 N 0.76886 0.44111 0.62296 0.0
C306 C 0.77063 0.48007 0.627 0.0
C307 C 0.8022 0.49627 0.62671 0.0
C308 C 1.00948 0.04207 0.96572 0.0
C309 C 1.00242 1.0025 0.97057 0.0
C310 C 0.03492 0.05826 1.02007 0.0
C311 C 0.05449 0.0357 0.08219 0.0
H312 H 0.99517 0.06095 0.91976 0.0
H313 H 0.03906 0.08888 1.01362 0.0
S314 S 0.04695 0.93026 0.11961 0.0
N315 N 1.01793 0.9409 0.04105 0.0
N316 N 0.06523 0.97128 0.14392 0.0
C317 C 0.04785 0.99601 0.08743 0.0
C318 C 1.02202 0.97946 0.03157 0.0
C319 C 0.51053 0.04218 0.09423 0.0
C320 C 0.5036 1.00263 0.08761 0.0
C321 C 0.53523 0.05904 0.03801 0.0
C322 C 0.55422 0.03716 0.97241 0.0
H323 H 0.49662 0.06053 0.14285 0.0
H324 H 0.53923 0.08963 0.04571 0.0
S325 S 0.547 0.93196 0.9301 0.0
N326 N 0.51874 0.94173 1.01214 0.0
N327 N 0.56475 0.97335 0.90611 0.0
C328 C 0.54779 0.99747 0.96568 0.0
C329 C 0.52267 0.98025 0.02326 0.0
C330 C 0.0419 0.54291 0.44701 0.0
C331 C 0.04864 0.50331 0.45269 0.0
C332 C 1.01697 0.55958 0.50253 0.0
C333 C 0.99758 0.53747 0.56654 0.0
H334 H 0.05614 0.56145 0.39971 0.0
H335 H 1.01312 0.59021 0.49557 0.0
S336 S 1.00407 0.43205 0.60544 0.0
N337 N 0.03278 0.4421 0.52508 0.0
N338 N 0.98642 0.47337 0.63008 0.0
C339 C 1.00379 0.49772 0.57219 0.0
C340 C 0.02911 0.4807 0.51522 0.0
C341 C 0.51763 0.55838 0.52314 0.0
C342 C 0.4981 0.53587 0.46051 0.0
C343 C 0.54257 0.54205 0.57905 0.0
C344 C 0.54918 0.50239 0.57521 0.0
H345 H 0.51391 0.58909 0.52859 0.0
H346 H 0.55693 0.5609 0.62518 0.0
S347 S 0.5042 0.43016 0.42658 0.0
N348 N 0.48664 0.47137 0.40024 0.0
N349 N 0.53304 0.4407 0.506 0.0
C350 C 0.5295 0.47937 0.5141 0.0
C351 C 0.50416 0.49607 0.45668 0.0
C352 C 0.14994 0.12424 0.72078 0.0
C353 C 0.12662 0.13873 0.78645 0.0
C354 C 0.1424 0.11602 0.62136 0.0
C355 C 0.11128 0.12205 0.58389 0.0
H356 H 0.17397 0.11829 0.74718 0.0
H357 H 0.16086 0.10413 0.57385 0.0
S358 S 0.04289 0.16449 0.72253 0.0
N359 N 0.07203 0.16178 0.80525 0.0
N360 N 0.0579 0.14702 0.61837 0.0
C361 C 0.08807 0.13782 0.6481 0.0
C362 C 0.09573 0.14597 0.74933 0.0
C363 C 0.44336 0.9504 0.66464 0.0
C364 C 0.4392 0.92301 0.58934 0.0
C365 C 0.43709 0.9413 0.7642 0.0
C366 C 0.42698 0.90417 0.79256 0.0
H367 H 0.45143 0.97909 0.64604 0.0
H368 H 0.44015 0.96365 0.81927 0.0
S369 S 0.41538 0.82125 0.62255 0.0
N370 N 0.4257 0.85705 0.54869 0.0
N371 N 0.41485 0.83931 0.736 0.0
C372 C 0.42308 0.87638 0.7174 0.0
C373 C 0.42902 0.88593 0.61581 0.0
C374 C 0.09433 0.40351 0.78218 0.0
C375 C 0.12592 0.40563 0.74599 0.0
C376 C 0.08719 0.41219 0.88145 0.0
C377 C 0.11134 0.42384 0.94833 0.0
H378 H 0.07501 0.39479 0.73328 0.0
H379 H 0.06258 0.40932 0.90605 0.0
S380 S 0.19755 0.43735 0.88714 0.0
N381 N 0.18133 0.4219 0.7826 0.0
N382 N 0.16797 0.43917 0.9687 0.0
C383 C 0.14303 0.42661 0.91237 0.0
C384 C 0.1503 0.4173 0.8114 0.0
C385 C 0.42388 0.64972 0.93215 0.0
C386 C 0.44106 0.61653 0.95888 0.0
C387 C 0.4173 0.6581 0.83225 0.0
C388 C 0.42761 0.6336 0.75548 0.0
H389 H 0.41605 0.66973 0.98875 0.0
H390 H 0.40443 0.68423 0.81479 0.0
S391 S 0.47087 0.54114 0.7879 0.0
N392 N 0.46678 0.55809 0.90175 0.0
N393 N 0.45391 0.57315 0.71445 0.0
C394 C 0.44425 0.59986 0.78173 0.0
C395 C 0.45111 0.59153 0.88328 0.0
C396 C 0.95712 0.90418 0.29628 0.0
C397 C 0.92543 0.9036 0.26069 0.0
C398 C 0.9639 0.91322 0.39554 0.0
C399 C 0.93924 0.92251 0.4631 0.0
H400 H 0.97683 0.89737 0.24685 0.0
H401 H 0.98867 0.91257 0.41956 0.0
S402 S 0.85232 0.92819 0.40413 0.0
N403 N 0.86924 0.91461 0.29889 0.0
N404 N 0.88188 0.93247 0.48507 0.0
C405 C 0.9074 0.92242 0.42792 0.0
C406 C 0.90052 0.91278 0.3269 0.0
C407 C 0.62972 0.15049 0.44569 0.0
C408 C 0.61212 0.11756 0.47256 0.0
C409 C 0.6363 0.15884 0.34575 0.0
C410 C 0.62558 0.13453 0.26904 0.0
H411 H 0.63784 0.17038 0.50223 0.0
H412 H 0.64944 0.18482 0.32821 0.0
S413 S 0.58136 0.04255 0.30188 0.0
N414 N 0.58572 0.05944 0.41569 0.0
N415 N 0.59863 0.07437 0.22825 0.0
C416 C 0.60862 0.10095 0.29544 0.0
C417 C 0.60175 0.09269 0.39706 0.0
C418 C 0.91567 0.65932 0.19433 0.0
C419 C 0.92623 0.63492 0.27088 0.0
C420 C 0.92222 0.65099 0.09433 0.0
C421 C 0.93962 0.61799 0.06729 0.0
H422 H 0.90265 0.68533 0.21205 0.0
H423 H 0.91418 0.67091 0.03791 0.0
S424 S 0.96998 0.54283 0.23763 0.0
N425 N 0.9529 0.57471 0.3114 0.0
N426 N 0.96571 0.55975 0.1239 0.0
C427 C 0.94987 0.59307 0.14268 0.0
C428 C 0.94304 0.60133 0.24432 0.0
C429 C 0.59392 0.40287 0.24869 0.0
C430 C 0.62555 0.40319 0.2848 0.0
C431 C 0.58716 0.41186 0.14941 0.0
C432 C 0.61175 0.42205 0.08244 0.0
H433 H 0.57426 0.3954 0.29772 0.0
H434 H 0.56245 0.4105 0.12494 0.0
S435 S 0.69845 0.43008 0.14289 0.0
N436 N 0.68159 0.41585 0.24764 0.0
N437 N 0.66896 0.43367 0.06154 0.0
C438 C 0.64353 0.42279 0.11812 0.0
C439 C 0.65041 0.41317 0.21911 0.0
C440 C 0.08292 0.2545 0.17199 0.0
C441 C 0.08578 0.22986 0.25389 0.0
C442 C 0.08252 0.2945 0.18536 0.0
C443 C 0.08433 0.31083 0.28089 0.0
H444 H 0.08498 0.24317 0.09729 0.0
H445 H 0.08417 0.31274 0.12035 0.0
S446 S 0.08635 0.25806 0.51918 0.0
N447 N 0.08613 0.22407 0.43347 0.0
N448 N 0.08457 0.29925 0.45847 0.0
C449 C 0.08308 0.28634 0.36333 0.0
C450 C 0.08404 0.2457 0.34975 0.0
C451 C 0.474 0.79383 0.35673 0.0
C452 C 0.4716 0.81069 0.262 0.0
C453 C 0.47364 0.75376 0.36845 0.0
C454 C 0.47022 0.7296 0.28566 0.0
H455 H 0.47268 0.81169 0.42256 0.0
H456 H 0.47193 0.74202 0.44278 0.0
S457 S 0.46812 0.75934 1.02166 0.0
N458 N 0.47036 0.80016 0.08402 0.0
N459 N 0.46888 0.72486 0.10588 0.0
C460 C 0.47154 0.746 0.19039 0.0
C461 C 0.47246 0.7867 0.17849 0.0
C462 C 0.96885 0.79744 0.69048 0.0
C463 C 0.96678 0.81115 0.78867 0.0
C464 C 0.96893 0.75786 0.67003 0.0
C465 C 0.96634 0.73103 0.74734 0.0
H466 H 0.96696 0.81733 0.6289 0.0
H467 H 0.96698 0.74851 0.5935 0.0
S468 S 0.96492 0.75216 1.01694 0.0
N469 N 0.96633 0.79488 0.96368 0.0
N470 N 0.96578 0.72052 0.92545 0.0
C471 C 0.9678 0.74435 0.84578 0.0
C472 C 0.96819 0.78455 0.86653 0.0
C473 C 0.58045 0.24585 0.70233 0.0
C474 C 0.5835 0.23159 0.79969 0.0
C475 C 0.58017 0.28552 0.68353 0.0
C476 C 0.58347 0.3119 0.76166 0.0
H477 H 0.58181 0.22632 0.63974 0.0
H478 H 0.58144 0.2953 0.60725 0.0
S479 S 0.58721 0.28932 0.03013 0.0
N480 N 0.58537 0.24688 0.9753 0.0
N481 N 0.58556 0.32145 0.94004 0.0
C482 C 0.58285 0.29805 0.85963 0.0
C483 C 0.58266 0.25774 0.87878 0.0
loop_
_geom_bond_atom_site_label_1
_geom_bond_atom_site_label_2
_geom_bond_distance
_geom_bond_site_symmetry_2
_ccdc_geom_bond_type
C0 C1 1.351 . S
C0 N3 1.368 . S
C0 H5 0.931 . S
C1 C0 1.351 . S
C1 N2 1.373 . S
C1 H29 0.930 . S
N2 C1 1.373 . S
N2 C4 1.340 . S
N3 C0 1.368 . S
N3 C4 1.321 . S
N3 Co6 2.135 1_556 S
C4 N2 1.340 . S
C4 N3 1.321 . S
C4 H28 0.930 . S
H5 C0 0.931 . S
Co6 N3 2.135 1_554 S
Co6 N9 2.121 . S
Co6 O14 2.055 . S
Co6 O17 2.039 . S
Co6 N20 2.140 . S
C7 O8 1.227 . S
C7 O17 1.265 . S
O8 C7 1.227 . S
N9 Co6 2.121 . S
N9 C11 1.375 . S
N9 C12 1.313 . S
C10 C11 1.338 . S
C10 N13 1.377 . S
C10 H30 0.930 . S
C11 N9 1.375 . S
C11 C10 1.338 . S
C11 H15 0.931 . S
C12 N9 1.313 . S
C12 N13 1.344 . S
C12 H16 0.930 . S
N13 C10 1.377 . S
N13 C12 1.344 . S
O14 Co6 2.055 . S
O14 C18 1.253 . S
H15 C11 0.931 . S
H16 C12 0.930 . S
O17 Co6 2.039 . S
O17 C7 1.265 . S
C18 O14 1.253 . S
C18 O19 1.227 . S
O19 C18 1.227 . S
N20 Co6 2.140 . S
N20 C23 1.346 . S
N20 C24 1.345 . S
C21 C22 1.387 . S
C21 C25 1.391 . S
C22 C21 1.387 . S
C22 C23 1.369 . S
C22 H31 0.929 1_554 S
C23 N20 1.346 . S
C23 C22 1.369 . S
C23 H26 0.928 1_554 S
C24 N20 1.345 . S
C24 C25 1.371 . S
C24 H27 0.931 . S
C25 C21 1.391 . S
C25 C24 1.371 . S
C25 H32 0.930 . S
H26 C23 0.928 1_556 S
H27 C24 0.931 . S
H28 C4 0.930 . S
H29 C1 0.930 . S
H30 C10 0.930 . S
H31 C22 0.929 1_556 S
H32 C25 0.930 . S
C33 C34 1.351 . S
C33 N36 1.368 . S
C33 H38 0.931 . S
C34 C33 1.351 . S
C34 N35 1.373 . S
C34 H62 0.930 . S
N35 C34 1.373 . S
N35 C37 1.340 . S
N36 C33 1.368 . S
N36 C37 1.321 . S
N36 Co39 2.135 1_556 S
C37 N35 1.340 . S
C37 N36 1.321 . S
C37 H61 0.930 . S
H38 C33 0.931 . S
Co39 N36 2.135 1_554 S
Co39 N42 2.121 . S
Co39 O47 2.055 . S
Co39 O50 2.039 . S
Co39 N53 2.140 . S
C40 O41 1.227 . S
C40 O50 1.265 . S
O41 C40 1.227 . S
N42 Co39 2.121 . S
N42 C44 1.375 . S
N42 C45 1.313 . S
C43 C44 1.338 . S
C43 N46 1.377 . S
C43 H63 0.930 . S
C44 N42 1.375 . S
C44 C43 1.338 . S
C44 H48 0.931 . S
C45 N42 1.313 . S
C45 N46 1.344 . S
C45 H49 0.930 . S
N46 C43 1.377 . S
N46 C45 1.344 . S
O47 Co39 2.055 . S
O47 C51 1.253 . S
H48 C44 0.931 . S
H49 C45 0.930 . S
O50 Co39 2.039 . S
O50 C40 1.265 . S
C51 O47 1.253 . S
C51 O52 1.227 . S
O52 C51 1.227 . S
N53 Co39 2.140 . S
N53 C56 1.346 . S
N53 C57 1.345 . S
C54 C55 1.387 . S
C54 C58 1.391 . S
C55 C54 1.387 . S
C55 C56 1.369 . S
C55 H64 0.929 1_554 S
C56 N53 1.346 . S
C56 C55 1.369 . S
C56 H59 0.928 1_554 S
C57 N53 1.345 . S
C57 C58 1.371 . S
C57 H60 0.931 . S
C58 C54 1.391 . S
C58 C57 1.371 . S
C58 H65 0.930 . S
H59 C56 0.928 1_556 S
H60 C57 0.931 . S
H61 C37 0.930 . S
H62 C34 0.930 . S
H63 C43 0.930 . S
H64 C55 0.929 1_556 S
H65 C58 0.930 . S
C66 C67 1.351 . S
C66 N69 1.368 . S
C66 H71 0.931 . S
C67 C66 1.351 . S
C67 N68 1.373 . S
C67 H95 0.930 . S
N68 C67 1.373 . S
N68 C70 1.340 . S
N69 C66 1.368 . S
N69 C70 1.321 . S
N69 Co72 2.135 . S
C70 N68 1.340 . S
C70 N69 1.321 . S
C70 H94 0.930 . S
H71 C66 0.931 . S
Co72 N69 2.135 . S
Co72 N75 2.121 . S
Co72 O80 2.055 . S
Co72 O83 2.039 . S
Co72 N86 2.140 . S
C73 O74 1.227 . S
C73 O83 1.265 . S
O74 C73 1.227 . S
N75 Co72 2.121 . S
N75 C77 1.375 . S
N75 C78 1.313 . S
C76 C77 1.338 . S
C76 N79 1.377 . S
C76 H96 0.930 . S
C77 N75 1.375 . S
C77 C76 1.338 . S
C77 H81 0.931 . S
C78 N75 1.313 . S
C78 N79 1.344 . S
C78 H82 0.930 . S
N79 C76 1.377 . S
N79 C78 1.344 . S
O80 Co72 2.055 . S
O80 C84 1.253 . S
H81 C77 0.931 . S
H82 C78 0.930 . S
O83 Co72 2.039 . S
O83 C73 1.265 . S
C84 O80 1.253 . S
C84 O85 1.227 . S
O85 C84 1.227 . S
N86 Co72 2.140 . S
N86 C89 1.346 . S
N86 C90 1.345 . S
C87 C88 1.387 . S
C87 C91 1.391 . S
C88 C87 1.387 . S
C88 C89 1.369 . S
C88 H97 0.929 . S
C89 N86 1.346 . S
C89 C88 1.369 . S
C89 H92 0.928 . S
C90 N86 1.345 . S
C90 C91 1.371 . S
C90 H93 0.931 . S
C91 C87 1.391 . S
C91 C90 1.371 . S
C91 H98 0.930 . S
H92 C89 0.928 . S
H93 C90 0.931 . S
H94 C70 0.930 . S
H95 C67 0.930 . S
H96 C76 0.930 . S
H97 C88 0.929 . S
H98 C91 0.930 . S
C99 C100 1.351 . S
C99 N102 1.368 . S
C99 H104 0.931 . S
C100 C99 1.351 . S
C100 N101 1.373 . S
C100 H128 0.930 . S
N101 C100 1.373 . S
N101 C103 1.340 . S
N102 C99 1.368 . S
N102 C103 1.321 . S
N102 Co105 2.135 . S
C103 N101 1.340 . S
C103 N102 1.321 . S
C103 H127 0.930 . S
H104 C99 0.931 . S
Co105 N102 2.135 . S
Co105 N108 2.121 . S
Co105 O113 2.055 . S
Co105 O116 2.039 . S
Co105 N119 2.140 . S
C106 O107 1.227 . S
C106 O116 1.265 . S
O107 C106 1.227 . S
N108 Co105 2.121 . S
N108 C110 1.375 . S
N108 C111 1.313 . S
C109 C110 1.338 . S
C109 N112 1.377 . S
C109 H129 0.930 . S
C110 N108 1.375 . S
C110 C109 1.338 . S
C110 H114 0.931 . S
C111 N108 1.313 . S
C111 N112 1.344 . S
C111 H115 0.930 . S
N112 C109 1.377 . S
N112 C111 1.344 . S
O113 Co105 2.055 . S
O113 C117 1.253 . S
H114 C110 0.931 . S
H115 C111 0.930 . S
O116 Co105 2.039 . S
O116 C106 1.265 . S
C117 O113 1.253 . S
C117 O118 1.227 . S
O118 C117 1.227 . S
N119 Co105 2.140 . S
N119 C122 1.346 . S
N119 C123 1.345 . S
C120 C121 1.387 . S
C120 C124 1.391 . S
C121 C120 1.387 . S
C121 C122 1.369 . S
C121 H130 0.929 . S
C122 N119 1.346 . S
C122 C121 1.369 . S
C122 H125 0.928 . S
C123 N119 1.345 . S
C123 C124 1.371 . S
C123 H126 0.931 . S
C124 C120 1.391 . S
C124 C123 1.371 . S
C124 H131 0.930 . S
H125 C122 0.928 . S
H126 C123 0.931 . S
H127 C103 0.930 . S
H128 C100 0.930 . S
H129 C109 0.930 . S
H130 C121 0.929 . S
H131 C124 0.930 . S
C132 C133 1.351 . S
C132 N135 1.368 . S
C132 H137 0.931 . S
C133 C132 1.351 . S
C133 N134 1.373 . S
C133 H161 0.930 . S
N134 C133 1.373 . S
N134 C136 1.340 . S
N135 C132 1.368 . S
N135 C136 1.321 . S
N135 Co138 2.135 1_554 S
C136 N134 1.340 . S
C136 N135 1.321 . S
C136 H160 0.930 . S
H137 C132 0.931 . S
Co138 N135 2.135 1_556 S
Co138 N141 2.121 . S
Co138 O146 2.055 . S
Co138 O149 2.039 . S
Co138 N152 2.140 . S
C139 O140 1.227 . S
C139 O149 1.265 . S
O140 C139 1.227 . S
N141 Co138 2.121 . S
N141 C143 1.375 . S
N141 C144 1.313 . S
C142 C143 1.338 . S
C142 N145 1.377 . S
C142 H162 0.930 . S
C143 N141 1.375 . S
C143 C142 1.338 . S
C143 H147 0.931 . S
C144 N141 1.313 . S
C144 N145 1.344 . S
C144 H148 0.930 . S
N145 C142 1.377 . S
N145 C144 1.344 . S
O146 Co138 2.055 . S
O146 C150 1.253 . S
H147 C143 0.931 . S
H148 C144 0.930 . S
O149 Co138 2.039 . S
O149 C139 1.265 . S
C150 O146 1.253 . S
C150 O151 1.227 . S
O151 C150 1.227 . S
N152 Co138 2.140 . S
N152 C155 1.346 . S
N152 C156 1.345 . S
C153 C154 1.387 . S
C153 C157 1.391 . S
C154 C153 1.387 . S
C154 C155 1.369 . S
C154 H163 0.929 1_556 S
C155 N152 1.346 . S
C155 C154 1.369 . S
C155 H158 0.928 1_556 S
C156 N152 1.345 . S
C156 C157 1.371 . S
C156 H159 0.931 . S
C157 C153 1.391 . S
C157 C156 1.371 . S
C157 H164 0.930 . S
H158 C155 0.928 1_554 S
H159 C156 0.931 . S
H160 C136 0.930 . S
H161 C133 0.930 . S
H162 C142 0.930 . S
H163 C154 0.929 1_554 S
H164 C157 0.930 . S
C165 C166 1.351 . S
C165 N168 1.368 . S
C165 H170 0.931 . S
C166 C165 1.351 . S
C166 N167 1.373 . S
C166 H194 0.930 . S
N167 C166 1.373 . S
N167 C169 1.340 . S
N168 C165 1.368 . S
N168 C169 1.321 . S
N168 Co171 2.135 1_554 S
C169 N167 1.340 . S
C169 N168 1.321 . S
C169 H193 0.930 . S
H170 C165 0.931 . S
Co171 N168 2.135 1_556 S
Co171 N174 2.121 . S
Co171 O179 2.055 . S
Co171 O182 2.039 . S
Co171 N185 2.140 . S
C172 O173 1.227 . S
C172 O182 1.265 . S
O173 C172 1.227 . S
N174 Co171 2.121 . S
N174 C176 1.375 . S
N174 C177 1.313 . S
C175 C176 1.338 . S
C175 N178 1.377 . S
C175 H195 0.930 . S
C176 N174 1.375 . S
C176 C175 1.338 . S
C176 H180 0.931 . S
C177 N174 1.313 . S
C177 N178 1.344 . S
C177 H181 0.930 . S
N178 C175 1.377 . S
N178 C177 1.344 . S
O179 Co171 2.055 . S
O179 C183 1.253 . S
H180 C176 0.931 . S
H181 C177 0.930 . S
O182 Co171 2.039 . S
O182 C172 1.265 . S
C183 O179 1.253 . S
C183 O184 1.227 . S
O184 C183 1.227 . S
N185 Co171 2.140 . S
N185 C188 1.346 . S
N185 C189 1.345 . S
C186 C187 1.387 . S
C186 C190 1.391 . S
C187 C186 1.387 . S
C187 C188 1.369 . S
C187 H196 0.929 1_556 S
C188 N185 1.346 . S
C188 C187 1.369 . S
C188 H191 0.928 1_556 S
C189 N185 1.345 . S
C189 C190 1.371 . S
C189 H192 0.931 . S
C190 C186 1.391 . S
C190 C189 1.371 . S
C190 H197 0.930 . S
H191 C188 0.928 1_554 S
H192 C189 0.931 . S
H193 C169 0.930 . S
H194 C166 0.930 . S
H195 C175 0.930 . S
H196 C187 0.929 1_554 S
H197 C190 0.930 . S
C198 C199 1.351 . S
C198 N201 1.368 . S
C198 H203 0.931 . S
C199 C198 1.351 . S
C199 N200 1.373 . S
C199 H227 0.930 . S
N200 C199 1.373 . S
N200 C202 1.340 . S
N201 C198 1.368 . S
N201 C202 1.321 . S
N201 Co204 2.135 . S
C202 N200 1.340 . S
C202 N201 1.321 . S
C202 H226 0.930 . S
H203 C198 0.931 . S
Co204 N201 2.135 . S
Co204 N207 2.121 . S
Co204 O212 2.055 . S
Co204 O215 2.039 . S
Co204 N218 2.140 . S
C205 O206 1.227 . S
C205 O215 1.265 . S
O206 C205 1.227 . S
N207 Co204 2.121 . S
N207 C209 1.375 . S
N207 C210 1.313 . S
C208 C209 1.338 . S
C208 N211 1.377 . S
C208 H228 0.930 . S
C209 N207 1.375 . S
C209 C208 1.338 . S
C209 H213 0.931 . S
C210 N207 1.313 . S
C210 N211 1.344 . S
C210 H214 0.930 . S
N211 C208 1.377 . S
N211 C210 1.344 . S
O212 Co204 2.055 . S
O212 C216 1.253 . S
H213 C209 0.931 . S
H214 C210 0.930 . S
O215 Co204 2.039 . S
O215 C205 1.265 . S
C216 O212 1.253 . S
C216 O217 1.227 . S
O217 C216 1.227 . S
N218 Co204 2.140 . S
N218 C221 1.346 . S
N218 C222 1.345 . S
C219 C220 1.387 . S
C219 C223 1.391 . S
C220 C219 1.387 . S
C220 C221 1.369 . S
C220 H229 0.929 . S
C221 N218 1.346 . S
C221 C220 1.369 . S
C221 H224 0.928 . S
C222 N218 1.345 . S
C222 C223 1.371 . S
C222 H225 0.931 . S
C223 C219 1.391 . S
C223 C222 1.371 . S
C223 H230 0.930 . S
H224 C221 0.928 . S
H225 C222 0.931 . S
H226 C202 0.930 . S
H227 C199 0.930 . S
H228 C208 0.930 . S
H229 C220 0.929 . S
H230 C223 0.930 . S
C231 C232 1.351 . S
C231 N234 1.368 . S
C231 H236 0.931 . S
C232 C231 1.351 . S
C232 N233 1.373 . S
C232 H260 0.930 . S
N233 C232 1.373 . S
N233 C235 1.340 . S
N234 C231 1.368 . S
N234 C235 1.321 . S
N234 Co237 2.135 . S
C235 N233 1.340 . S
C235 N234 1.321 . S
C235 H259 0.930 . S
H236 C231 0.931 . S
Co237 N234 2.135 . S
Co237 N240 2.121 . S
Co237 O245 2.055 . S
Co237 O248 2.039 . S
Co237 N251 2.140 . S
C238 O239 1.227 . S
C238 O248 1.265 . S
O239 C238 1.227 . S
N240 Co237 2.121 . S
N240 C242 1.375 . S
N240 C243 1.313 . S
C241 C242 1.338 . S
C241 N244 1.377 . S
C241 H261 0.930 . S
C242 N240 1.375 . S
C242 C241 1.338 . S
C242 H246 0.931 . S
C243 N240 1.313 . S
C243 N244 1.344 . S
C243 H247 0.930 . S
N244 C241 1.377 . S
N244 C243 1.344 . S
O245 Co237 2.055 . S
O245 C249 1.253 . S
H246 C242 0.931 . S
H247 C243 0.930 . S
O248 Co237 2.039 . S
O248 C238 1.265 . S
C249 O245 1.253 . S
C249 O250 1.227 . S
O250 C249 1.227 . S
N251 Co237 2.140 . S
N251 C254 1.346 . S
N251 C255 1.345 . S
C252 C253 1.387 . S
C252 C256 1.391 . S
C253 C252 1.387 . S
C253 C254 1.369 . S
C253 H262 0.929 . S
C254 N251 1.346 . S
C254 C253 1.369 . S
C254 H257 0.928 . S
C255 N251 1.345 . S
C255 C256 1.371 . S
C255 H258 0.931 . S
C256 C252 1.391 . S
C256 C255 1.371 . S
C256 H263 0.930 . S
H257 C254 0.928 . S
H258 C255 0.931 . S
H259 C235 0.930 . S
H260 C232 0.930 . S
H261 C241 0.930 . S
H262 C253 0.929 . S
H263 C256 0.930 . S
C264 C265 1.369 1_545 S
C264 C266 1.419 . S
C264 H268 0.930 . S
C265 C264 1.369 1_565 S
C265 C274 1.429 . S
C266 C264 1.419 . S
C266 C267 1.363 . S
C266 H269 0.929 . S
C267 C266 1.363 . S
C267 C273 1.428 1_545 S
H268 C264 0.930 . S
H269 C266 0.929 . S
S270 N271 1.613 . S
S270 N272 1.610 . S
N271 S270 1.613 . S
N271 C274 1.350 . S
N272 S270 1.610 . S
N272 C273 1.351 . S
C273 C267 1.428 1_565 S
C273 N272 1.351 . S
C273 C274 1.434 . S
C274 C265 1.429 . S
C274 N271 1.350 . S
C274 C273 1.434 . S
C275 C276 1.369 . S
C275 C277 1.419 . S
C275 H279 0.930 . S
C276 C275 1.369 . S
C276 C285 1.429 . S
C277 C275 1.419 . S
C277 C278 1.363 . S
C277 H280 0.929 . S
C278 C277 1.363 . S
C278 C284 1.428 . S
H279 C275 0.930 . S
H280 C277 0.929 . S
S281 N282 1.613 . S
S281 N283 1.610 . S
N282 S281 1.613 . S
N282 C285 1.350 . S
N283 S281 1.610 . S
N283 C284 1.351 . S
C284 C278 1.428 . S
C284 N283 1.351 . S
C284 C285 1.434 . S
C285 C276 1.429 . S
C285 N282 1.350 . S
C285 C284 1.434 . S
C286 C287 1.369 1_565 S
C286 C288 1.419 . S
C286 H290 0.930 . S
C287 C286 1.369 1_545 S
C287 C296 1.429 . S
C288 C286 1.419 . S
C288 C289 1.363 . S
C288 H291 0.929 . S
C289 C288 1.363 . S
C289 C295 1.428 1_565 S
H290 C286 0.930 . S
H291 C288 0.929 . S
S292 N293 1.613 . S
S292 N294 1.610 . S
N293 S292 1.613 . S
N293 C296 1.350 . S
N294 S292 1.610 . S
N294 C295 1.351 . S
C295 C289 1.428 1_545 S
C295 N294 1.351 . S
C295 C296 1.434 . S
C296 C287 1.429 . S
C296 N293 1.350 . S
C296 C295 1.434 . S
C297 C298 1.369 . S
C297 C299 1.419 . S
C297 H301 0.930 . S
C298 C297 1.369 . S
C298 C307 1.429 . S
C299 C297 1.419 . S
C299 C300 1.363 . S
C299 H302 0.929 . S
C300 C299 1.363 . S
C300 C306 1.428 . S
H301 C297 0.930 . S
H302 C299 0.929 . S
S303 N304 1.613 . S
S303 N305 1.610 . S
N304 S303 1.613 . S
N304 C307 1.350 . S
N305 S303 1.610 . S
N305 C306 1.351 . S
C306 C300 1.428 . S
C306 N305 1.351 . S
C306 C307 1.434 . S
C307 C298 1.429 . S
C307 N304 1.350 . S
C307 C306 1.434 . S
C308 C309 1.369 1_554 S
C308 C310 1.419 1_665 S
C308 H312 0.930 . S
C309 C308 1.369 1_556 S
C309 C318 1.429 . S
C310 C308 1.419 1_445 S
C310 C311 1.363 . S
C310 H313 0.929 . S
C311 C310 1.363 . S
C311 C317 1.428 1_554 S
H312 C308 0.930 . S
H313 C310 0.929 . S
S314 N315 1.613 1_545 S
S314 N316 1.610 . S
N315 S314 1.613 1_565 S
N315 C318 1.350 1_455 S
N316 S314 1.610 . S
N316 C317 1.351 . S
C317 C311 1.428 1_556 S
C317 N316 1.351 . S
C317 C318 1.434 1_445 S
C318 C309 1.429 . S
C318 N315 1.350 1_655 S
C318 C317 1.434 1_665 S
C319 C320 1.384 1_556 S
C319 C321 1.405 1_565 S
C319 H323 0.930 . S
C320 C319 1.384 1_554 S
C320 C329 1.429 . S
C321 C319 1.405 1_545 S
C321 C322 1.363 . S
C321 H324 0.929 . S
C322 C321 1.363 . S
C322 C328 1.436 1_556 S
H323 C319 0.930 . S
H324 C321 0.929 . S
S325 N326 1.613 . S
S325 N327 1.610 . S
N326 S325 1.613 . S
N326 C329 1.350 . S
N327 S325 1.610 . S
N327 C328 1.351 1_565 S
C328 C322 1.436 1_554 S
C328 N327 1.351 1_545 S
C328 C329 1.427 1_545 S
C329 C320 1.429 . S
C329 N326 1.350 . S
C329 C328 1.427 1_565 S
C330 C331 1.369 . S
C330 C332 1.419 . S
C330 H334 0.930 . S
C331 C330 1.369 . S
C331 C340 1.429 1_455 S
C332 C330 1.419 . S
C332 C333 1.363 1_455 S
C332 H335 0.929 . S
C333 C332 1.363 1_655 S
C333 C339 1.428 . S
H334 C330 0.930 . S
H335 C332 0.929 . S
S336 N337 1.613 . S
S336 N338 1.610 . S
N337 S336 1.613 . S
N337 C340 1.350 . S
N338 S336 1.610 . S
N338 C339 1.351 . S
C339 C333 1.428 . S
C339 N338 1.351 . S
C339 C340 1.434 . S
C340 C331 1.429 1_655 S
C340 N337 1.350 . S
C340 C339 1.434 . S
C341 C342 1.369 . S
C341 C343 1.419 . S
C341 H345 0.930 . S
C342 C341 1.369 . S
C342 C351 1.429 . S
C343 C341 1.419 . S
C343 C344 1.363 . S
C343 H346 0.929 . S
C344 C343 1.363 . S
C344 C350 1.428 . S
H345 C341 0.930 . S
H346 C343 0.929 . S
S347 N348 1.613 . S
S347 N349 1.610 . S
N348 S347 1.613 . S
N348 C351 1.350 . S
N349 S347 1.610 . S
N349 C350 1.351 . S
C350 C344 1.428 . S
C350 N349 1.351 . S
C350 C351 1.434 . S
C351 C342 1.429 . S
C351 N348 1.350 . S
C351 C350 1.434 . S
C352 C353 1.369 . S
C352 C354 1.419 . S
C352 H356 0.930 . S
C353 C352 1.369 . S
C353 C362 1.429 . S
C354 C352 1.419 . S
C354 C355 1.363 . S
C354 H357 0.929 . S
C355 C354 1.363 . S
C355 C361 1.428 . S
H356 C352 0.930 . S
H357 C354 0.929 . S
S358 N359 1.613 . S
S358 N360 1.610 . S
N359 S358 1.613 . S
N359 C362 1.350 . S
N360 S358 1.610 . S
N360 C361 1.351 . S
C361 C355 1.428 . S
C361 N360 1.351 . S
C361 C362 1.434 . S
C362 C353 1.429 . S
C362 N359 1.350 . S
C362 C361 1.434 . S
C363 C364 1.369 . S
C363 C365 1.419 . S
C363 H367 0.930 . S
C364 C363 1.369 . S
C364 C373 1.429 . S
C365 C363 1.419 . S
C365 C366 1.363 . S
C365 H368 0.929 . S
C366 C365 1.363 . S
C366 C372 1.428 . S
H367 C363 0.930 . S
H368 C365 0.929 . S
S369 N370 1.613 . S
S369 N371 1.610 . S
N370 S369 1.613 . S
N370 C373 1.350 . S
N371 S369 1.610 . S
N371 C372 1.351 . S
C372 C366 1.428 . S
C372 N371 1.351 . S
C372 C373 1.434 . S
C373 C364 1.429 . S
C373 N370 1.350 . S
C373 C372 1.434 . S
C374 C375 1.369 . S
C374 C376 1.419 . S
C374 H378 0.930 . S
C375 C374 1.369 . S
C375 C384 1.429 . S
C376 C374 1.419 . S
C376 C377 1.363 . S
C376 H379 0.929 . S
C377 C376 1.363 . S
C377 C383 1.428 . S
H378 C374 0.930 . S
H379 C376 0.929 . S
S380 N381 1.613 . S
S380 N382 1.610 . S
N381 S380 1.613 . S
N381 C384 1.350 . S
N382 S380 1.610 . S
N382 C383 1.351 . S
C383 C377 1.428 . S
C383 N382 1.351 . S
C383 C384 1.434 . S
C384 C375 1.429 . S
C384 N381 1.350 . S
C384 C383 1.434 . S
C385 C386 1.369 . S
C385 C387 1.419 . S
C385 H389 0.930 . S
C386 C385 1.369 . S
C386 C395 1.429 . S
C387 C385 1.419 . S
C387 C388 1.363 . S
C387 H390 0.929 . S
C388 C387 1.363 . S
C388 C394 1.428 . S
H389 C385 0.930 . S
H390 C387 0.929 . S
S391 N392 1.613 . S
S391 N393 1.610 . S
N392 S391 1.613 . S
N392 C395 1.350 . S
N393 S391 1.610 . S
N393 C394 1.351 . S
C394 C388 1.428 . S
C394 N393 1.351 . S
C394 C395 1.434 . S
C395 C386 1.429 . S
C395 N392 1.350 . S
C395 C394 1.434 . S
C396 C397 1.369 . S
C396 C398 1.419 . S
C396 H400 0.930 . S
C397 C396 1.369 . S
C397 C406 1.429 . S
C398 C396 1.419 . S
C398 C399 1.363 . S
C398 H401 0.929 . S
C399 C398 1.363 . S
C399 C405 1.428 . S
H400 C396 0.930 . S
H401 C398 0.929 . S
S402 N403 1.613 . S
S402 N404 1.610 . S
N403 S402 1.613 . S
N403 C406 1.350 . S
N404 S402 1.610 . S
N404 C405 1.351 . S
C405 C399 1.428 . S
C405 N404 1.351 . S
C405 C406 1.434 . S
C406 C397 1.429 . S
C406 N403 1.350 . S
C406 C405 1.434 . S
C407 C408 1.369 . S
C407 C409 1.419 . S
C407 H411 0.930 . S
C408 C407 1.369 . S
C408 C417 1.429 . S
C409 C407 1.419 . S
C409 C410 1.363 . S
C409 H412 0.929 . S
C410 C409 1.363 . S
C410 C416 1.428 . S
H411 C407 0.930 . S
H412 C409 0.929 . S
S413 N414 1.613 . S
S413 N415 1.610 . S
N414 S413 1.613 . S
N414 C417 1.350 . S
N415 S413 1.610 . S
N415 C416 1.351 . S
C416 C410 1.428 . S
C416 N415 1.351 . S
C416 C417 1.434 . S
C417 C408 1.429 . S
C417 N414 1.350 . S
C417 C416 1.434 . S
C418 C419 1.369 . S
C418 C420 1.419 . S
C418 H422 0.930 . S
C419 C418 1.369 . S
C419 C428 1.429 . S
C420 C418 1.419 . S
C420 C421 1.363 . S
C420 H423 0.929 . S
C421 C420 1.363 . S
C421 C427 1.428 . S
H422 C418 0.930 . S
H423 C420 0.929 . S
S424 N425 1.613 . S
S424 N426 1.610 . S
N425 S424 1.613 . S
N425 C428 1.350 . S
N426 S424 1.610 . S
N426 C427 1.351 . S
C427 C421 1.428 . S
C427 N426 1.351 . S
C427 C428 1.434 . S
C428 C419 1.429 . S
C428 N425 1.350 . S
C428 C427 1.434 . S
C429 C430 1.369 . S
C429 C431 1.419 . S
C429 H433 0.930 . S
C430 C429 1.369 . S
C430 C439 1.429 . S
C431 C429 1.419 . S
C431 C432 1.363 . S
C431 H434 0.929 . S
C432 C431 1.363 . S
C432 C438 1.428 . S
H433 C429 0.930 . S
H434 C431 0.929 . S
S435 N436 1.613 . S
S435 N437 1.610 . S
N436 S435 1.613 . S
N436 C439 1.350 . S
N437 S435 1.610 . S
N437 C438 1.351 . S
C438 C432 1.428 . S
C438 N437 1.351 . S
C438 C439 1.434 . S
C439 C430 1.429 . S
C439 N436 1.350 . S
C439 C438 1.434 . S
C440 C441 1.369 . S
C440 C442 1.419 . S
C440 H444 0.930 . S
C441 C440 1.369 . S
C441 C450 1.429 . S
C442 C440 1.419 . S
C442 C443 1.363 . S
C442 H445 0.929 . S
C443 C442 1.363 . S
C443 C449 1.428 . S
H444 C440 0.930 . S
H445 C442 0.929 . S
S446 N447 1.613 . S
S446 N448 1.610 . S
N447 S446 1.613 . S
N447 C450 1.350 . S
N448 S446 1.610 . S
N448 C449 1.351 . S
C449 C443 1.428 . S
C449 N448 1.351 . S
C449 C450 1.434 . S
C450 C441 1.429 . S
C450 N447 1.350 . S
C450 C449 1.434 . S
C451 C452 1.369 . S
C451 C453 1.419 . S
C451 H455 0.930 . S
C452 C451 1.369 . S
C452 C461 1.429 . S
C453 C451 1.419 . S
C453 C454 1.363 . S
C453 H456 0.929 . S
C454 C453 1.363 . S
C454 C460 1.428 . S
H455 C451 0.930 . S
H456 C453 0.929 . S
S457 N458 1.613 . S
S457 N459 1.610 . S
N458 S457 1.613 . S
N458 C461 1.350 . S
N459 S457 1.610 . S
N459 C460 1.351 . S
C460 C454 1.428 . S
C460 N459 1.351 . S
C460 C461 1.434 . S
C461 C452 1.429 . S
C461 N458 1.350 . S
C461 C460 1.434 . S
C462 C463 1.369 . S
C462 C464 1.419 . S
C462 H466 0.930 . S
C463 C462 1.369 . S
C463 C472 1.429 . S
C464 C462 1.419 . S
C464 C465 1.363 . S
C464 H467 0.929 . S
C465 C464 1.363 . S
C465 C471 1.428 . S
H466 C462 0.930 . S
H467 C464 0.929 . S
S468 N469 1.613 . S
S468 N470 1.610 . S
N469 S468 1.613 . S
N469 C472 1.350 . S
N470 S468 1.610 . S
N470 C471 1.351 . S
C471 C465 1.428 . S
C471 N470 1.351 . S
C471 C472 1.434 . S
C472 C463 1.429 . S
C472 N469 1.350 . S
C472 C471 1.434 . S
C473 C474 1.369 . S
C473 C475 1.419 . S
C473 H477 0.930 . S
C474 C473 1.369 . S
C474 C483 1.429 . S
C475 C473 1.419 . S
C475 C476 1.363 . S
C475 H478 0.929 . S
C476 C475 1.363 . S
C476 C482 1.428 . S
H477 C473 0.930 . S
H478 C475 0.929 . S
S479 N480 1.613 . S
S479 N481 1.610 . S
N480 S479 1.613 . S
N480 C483 1.350 . S
N481 S479 1.610 . S
N481 C482 1.351 . S
C482 C476 1.428 . S
C482 N481 1.351 . S
C482 C483 1.434 . S
C483 C474 1.429 . S
C483 N480 1.350 . S
C483 C482 1.434 . S
C265 C54 1.510 . S
C267 C21 1.511 . S
C276 C87 1.511 . S
C278 C120 1.510 . S
C287 C186 1.510 . S
C289 C153 1.511 . S
C298 C219 1.511 . S
C300 C252 1.511 . S
C309 C139 1.520 . S
C311 C7 1.514 . S
C320 C40 1.520 . S
C322 C172 1.514 . S
C331 C73 1.519 . S
C333 C205 1.515 . S
C342 C106 1.513 . S
C344 C238 1.519 . S
C353 N2 1.390 . S
C355 N13 1.395 . S
C364 N46 1.395 . S
C366 N35 1.391 . S
C375 N68 1.392 . S
C377 N79 1.393 1_556 S
C386 N112 1.391 1_556 S
C388 N101 1.393 . S
C397 N134 1.393 . S
C399 N145 1.392 . S
C408 N178 1.392 . S
C410 N167 1.393 . S
C419 N200 1.394 . S
C421 N211 1.392 1_554 S
C430 N233 1.393 . S
C432 N244 1.393 1_554 S
C441 C18 1.541 . S
C443 C84 1.542 . S
C452 C51 1.541 . S
C454 C117 1.541 . S
C463 C150 1.544 . S
C465 C216 1.540 . S
C474 C183 1.544 . S
C476 C249 1.540 . S
