# Generated by pormake.
# Topology vmr, (7)-cn, num edge types: 1
# Building blocks:
#     Node 0, Type 0, BuildingBlock: HICVOG_clean_sbu_0, # of connection points: 7
#     Node 1, Type 0, BuildingBlock: HICVOG_clean_sbu_0, # of connection points: 7
#     Node 2, Type 0, BuildingBlock: HICVOG_clean_sbu_0, # of connection points: 7
#     Node 3, Type 0, BuildingBlock: HICVOG_clean_sbu_0, # of connection points: 7
#     Edge 4, Type (0, 0), BuildingBlock: CIFDUS_clean_linker_0, # of connection points: 2
#     Edge 5, Type (0, 0), BuildingBlock: CIFDUS_clean_linker_0, # of connection points: 2
#     Edge 6, Type (0, 0), BuildingBlock: CIFDUS_clean_linker_0, # of connection points: 2
#     Edge 7, Type (0, 0), BuildingBlock: CIFDUS_clean_linker_0, # of connection points: 2
#     Edge 8, Type (0, 0), BuildingBlock: CIFDUS_clean_linker_0, # of connection points: 2
#     Edge 9, Type (0, 0), BuildingBlock: CIFDUS_clean_linker_0, # of connection points: 2
#     Edge 10, Type (0, 0), BuildingBlock: CIFDUS_clean_linker_0, # of connection points: 2
#     Edge 11, Type (0, 0), BuildingBlock: CIFDUS_clean_linker_0, # of connection points: 2
#     Edge 12, Type (0, 0), BuildingBlock: CIFDUS_clean_linker_0, # of connection points: 2
#     Edge 13, Type (0, 0), BuildingBlock: CIFDUS_clean_linker_0, # of connection points: 2
#     Edge 14, Type (0, 0), BuildingBlock: CIFDUS_clean_linker_0, # of connection points: 2
#     Edge 15, Type (0, 0), BuildingBlock: CIFDUS_clean_linker_0, # of connection points: 2
#     Edge 16, Type (0, 0), BuildingBlock: CIFDUS_clean_linker_0, # of connection points: 2
#     Edge 17, Type (0, 0), BuildingBlock: CIFDUS_clean_linker_0, # of connection points: 2
# Relax obj value: 0.078
# Max RMSD: 0.176
# Mean RMSD: 0.176
data_MOF--net-vmr--node1-HICVOG_clean_sbu_0--edge1-CIFDUS_clean_linker_0
_symmetry_space_group_name_H-M    P1
_symmetry_Int_Tables_number       1
_symmetry_cell_setting            triclinic
loop_
_symmetry_equiv_pos_as_xyz
'x, y, z'
_cell_length_a     22.73126
_cell_length_b     18.993645
_cell_length_c     32.23396
_cell_angle_alpha  90.019874
_cell_angle_beta   122.40717
_cell_angle_gamma 89.37144
loop_
_atom_site_label
_atom_site_type_symbol
_atom_site_fract_x
_atom_site_fract_y
_atom_site_fract_z
_atom_type_partial_charge
Zn0 Zn 0.22981 0.37319 0.14666 0.0
C1 C 0.08134 0.37042 0.1777 0.0
N2 N 0.04677 0.41154 0.1375 0.0
C3 C 0.08512 0.40521 0.11734 0.0
N4 N 0.14247 0.36434 0.14492 0.0
N5 N 0.13887 0.34107 0.1823 0.0
C6 C 0.20913 0.30508 0.31537 0.0
O7 O 0.23826 0.35818 0.3072 0.0
O8 O 0.21905 0.35645 0.08027 0.0
Zn9 Zn 0.18216 0.25563 0.2208 0.0
N10 N 0.26677 0.46789 0.16929 0.0
C11 C 0.25722 0.57737 0.20121 0.0
C12 C 0.23266 0.51027 0.18389 0.0
C13 C 0.32598 0.49001 0.17225 0.0
N14 N 0.31589 0.59931 0.20424 0.0
C15 C 0.35203 0.55797 0.1906 0.0
O16 O 0.28038 0.23541 0.23808 0.0
C17 C 0.32198 0.25704 0.22594 0.0
O18 O 0.30464 0.30549 0.19405 0.0
H19 H 0.18697 0.49213 0.18265 0.0
H20 H 0.35181 0.45493 0.16037 0.0
C21 C 0.10102 0.12859 0.19969 0.0
C22 C 0.05481 0.07653 0.16849 0.0
C23 C 0.0601 0.12391 0.10252 0.0
C24 C 0.10557 0.17569 0.13346 0.0
N25 N 0.12457 0.1776 0.18124 0.0
N26 N 0.03514 0.07615 0.12051 0.0
H27 H 0.11604 0.13163 0.23768 0.0
C28 C 0.23523 0.2965 0.07121 0.0
O29 O 0.25414 0.24549 0.10362 0.0
O30 O 0.18214 0.25623 0.28381 0.0
H31 H 0.12475 0.21489 0.11937 0.0
H32 H 0.23031 0.61165 0.21274 0.0
H33 H 0.04395 0.1223 0.06428 0.0
Zn34 Zn 0.8373 0.76573 0.2736 0.0
C35 C 0.93698 0.91198 0.37835 0.0
N36 N 0.98528 0.90288 0.36692 0.0
C37 C 0.95261 0.86367 0.32611 0.0
N38 N 0.88727 0.8477 0.31369 0.0
N39 N 0.87652 0.8799 0.34562 0.0
C40 C 0.81548 0.85851 0.4306 0.0
O41 O 0.84505 0.80358 0.42392 0.0
O42 O 0.84248 0.76121 0.21313 0.0
Zn43 Zn 0.78474 0.8985 0.33414 0.0
N44 N 0.88703 0.68267 0.31169 0.0
C45 C 0.90298 0.59155 0.36767 0.0
C46 C 0.87258 0.65566 0.34425 0.0
C47 C 0.93181 0.64901 0.30239 0.0
N48 N 0.9461 0.55676 0.35724 0.0
C49 C 0.96187 0.58413 0.32539 0.0
O50 O 0.71175 0.82704 0.29411 0.0
C51 C 0.69471 0.77557 0.26481 0.0
O52 O 0.73622 0.75048 0.2533 0.0
H53 H 0.83651 0.68291 0.35103 0.0
H54 H 0.94149 0.6711 0.27568 0.0
C55 C 0.69907 1.02383 0.29765 0.0
C56 C 0.67354 0.08656 0.2698 0.0
C57 C 0.75315 0.06988 0.244 0.0
C58 C 0.77727 1.00758 0.27099 0.0
N59 N 0.74996 0.98589 0.29732 0.0
N60 N 0.70205 0.10752 0.24393 0.0
H61 H 0.67979 1.00507 0.31978 0.0
C62 C 0.80646 0.79711 0.17391 0.0
O63 O 0.76152 0.84427 0.17081 0.0
O64 O 0.78753 0.90594 0.39754 0.0
H65 H 0.81749 0.97678 0.271 0.0
H66 H 0.89133 0.56897 0.39324 0.0
H67 H 0.77448 0.08804 0.22296 0.0
Zn68 Zn 0.84792 0.79621 0.77573 0.0
C69 C 0.94888 0.65979 0.88741 0.0
N70 N 0.99262 0.65591 0.87155 0.0
C71 C 0.95826 0.69161 0.82891 0.0
N72 N 0.89588 0.7162 0.81892 0.0
N73 N 0.88907 0.69478 0.85526 0.0
C74 C 0.80306 0.77392 0.9253 0.0
O75 O 0.78976 0.82344 0.89285 0.0
O76 O 0.85031 0.78706 0.71415 0.0
Zn77 Zn 0.80023 0.68734 0.85122 0.0
N78 N 0.90005 0.87905 0.81103 0.0
C79 C 0.9691 0.94023 0.88648 0.0
C80 C 0.93014 0.88161 0.86055 0.0
C81 C 0.90618 0.93351 0.78631 0.0
N82 N 0.97619 0.99413 0.86184 0.0
C83 C 0.945 0.99277 0.81215 0.0
O84 O 0.72229 0.75183 0.80163 0.0
C85 C 0.70585 0.79773 0.76825 0.0
O86 O 0.74857 0.81606 0.75636 0.0
H87 H 0.9243 0.83831 0.87978 0.0
H88 H 0.88275 0.92995 0.74709 0.0
C89 C 0.70397 0.57191 0.82493 0.0
C90 C 0.68176 0.50171 0.81197 0.0
C91 C 0.78908 0.47352 0.81913 0.0
C92 C 0.80993 0.54292 0.83083 0.0
N93 N 0.76773 0.59074 0.83421 0.0
N94 N 0.72588 0.4548 0.80989 0.0
H95 H 0.6708 0.6117 0.82644 0.0
C96 C 0.81173 0.82501 0.67629 0.0
O97 O 0.76776 0.87009 0.67667 0.0
O98 O 0.81143 0.71072 0.91615 0.0
H99 H 0.85918 0.55826 0.83656 0.0
H100 H 0.99391 0.94265 0.92595 0.0
H101 H 0.82241 0.43489 0.81668 0.0
Zn102 Zn 0.18695 0.30512 0.71661 0.0
C103 C 0.08785 0.15318 0.6159 0.0
N104 N 0.04397 0.15826 0.63161 0.0
C105 C 0.07922 0.19779 0.67226 0.0
N106 N 0.14133 0.21803 0.68027 0.0
N107 N 0.14796 0.18755 0.64591 0.0
C108 C 0.21512 0.2274 0.56161 0.0
O109 O 0.21533 0.28608 0.58329 0.0
O110 O 0.18803 0.31289 0.78013 0.0
Zn111 Zn 0.23625 0.17169 0.65129 0.0
N112 N 0.12581 0.38164 0.67556 0.0
C113 C 0.05202 0.43149 0.59576 0.0
C114 C 0.10175 0.38139 0.62683 0.0
C115 C 0.10307 0.43098 0.6947 0.0
N116 N 0.0278 0.47943 0.61459 0.0
C117 C 0.05239 0.48101 0.66347 0.0
O118 O 0.30403 0.24737 0.68816 0.0
C119 C 0.3228 0.30048 0.71618 0.0
O120 O 0.28466 0.3258 0.73068 0.0
H121 H 0.11988 0.34154 0.61211 0.0
H122 H 0.12189 0.4294 0.73344 0.0
C123 C 0.32905 0.04571 0.68846 0.0
C124 C 0.35631 0.98425 0.71801 0.0
C125 C 0.28213 1.00586 0.7479 0.0
C126 C 0.256 0.06627 0.71911 0.0
N127 N 0.27922 0.08506 0.68967 0.0
N128 N 0.33128 0.96669 0.74668 0.0
H129 H 0.34625 0.06181 0.6645 0.0
C130 C 0.2346 0.28977 0.82246 0.0
O131 O 0.28831 0.25441 0.82785 0.0
O132 O 0.22294 0.16908 0.58357 0.0
H133 H 0.21725 0.09798 0.72027 0.0
H134 H 0.03179 0.43139 0.55679 0.0
H135 H 0.26377 0.99026 0.77129 0.0
H136 H 0.43251 0.30262 0.22308 0.0
H137 H 0.36335 0.12808 0.27142 0.0
H138 H 0.46802 0.06081 0.29212 0.0
H139 H 0.57284 0.04771 0.2889 0.0
H140 H 0.64283 0.22402 0.24208 0.0
H141 H 0.54333 0.29377 0.22783 0.0
C142 C 0.4406 0.25013 0.23866 0.0
C143 C 0.38973 0.22026 0.2452 0.0
C144 C 0.50061 0.21159 0.2502 0.0
C145 C 0.40158 0.15247 0.26597 0.0
C146 C 0.46129 0.11375 0.27755 0.0
C147 C 0.5679 0.10179 0.27679 0.0
C148 C 0.61606 0.12997 0.26657 0.0
C149 C 0.51044 0.14222 0.26881 0.0
C150 C 0.60665 0.20017 0.24984 0.0
C151 C 0.5497 0.24044 0.24174 0.0
H152 H 0.38968 0.69466 0.20081 0.0
H153 H 0.46459 0.48644 0.1964 0.0
H154 H 0.57426 0.53615 0.21419 0.0
H155 H 0.65332 0.63865 0.23752 0.0
H156 H 0.57834 0.84403 0.24705 0.0
H157 H 0.46512 0.79529 0.22111 0.0
C158 C 0.4296 0.65962 0.20352 0.0
C159 C 0.41771 0.58655 0.19701 0.0
C160 C 0.49339 0.68822 0.21514 0.0
C161 C 0.4707 0.54288 0.20036 0.0
C162 C 0.53417 0.57131 0.21105 0.0
C163 C 0.6118 0.67272 0.23323 0.0
C164 C 0.62451 0.74498 0.24436 0.0
C165 C 0.54662 0.64387 0.21931 0.0
C166 C 0.57031 0.78827 0.23911 0.0
C167 C 0.50541 0.76044 0.22424 0.0
H168 H 0.45788 1.01641 0.69792 0.0
H169 H 0.38101 0.84649 0.74468 0.0
H170 H 0.479 0.77257 0.76106 0.0
H171 H 0.59169 0.75842 0.76904 0.0
H172 H 0.66865 0.92551 0.72069 0.0
H173 H 0.56504 0.99696 0.69714 0.0
C174 C 0.46139 0.96281 0.71058 0.0
C175 C 0.41175 0.9379 0.72044 0.0
C176 C 0.51844 0.91971 0.72003 0.0
C177 C 0.41853 0.86805 0.73739 0.0
C178 C 0.47471 0.82531 0.74677 0.0
C179 C 0.5855 0.81013 0.75278 0.0
C180 C 0.6384 0.83661 0.74716 0.0
C181 C 0.52586 0.85107 0.73939 0.0
C182 C 0.6289 0.90356 0.72551 0.0
C183 C 0.56971 0.94474 0.71225 0.0
H184 H 0.61421 0.38987 0.75595 0.0
H185 H 0.59063 0.55616 0.83754 0.0
H186 H 0.47733 0.50947 0.81497 0.0
H187 H 0.38502 0.4189 0.77263 0.0
H188 H 0.41501 0.25306 0.69343 0.0
H189 H 0.5257 0.30185 0.71532 0.0
C190 C 0.58484 0.41618 0.76922 0.0
C191 C 0.61152 0.47679 0.79833 0.0
C192 C 0.52048 0.38874 0.7567 0.0
C193 C 0.57156 0.5101 0.81444 0.0
C194 C 0.50673 0.48301 0.80184 0.0
C195 C 0.41588 0.39348 0.76028 0.0
C196 C 0.39106 0.33216 0.73135 0.0
C197 C 0.48065 0.42203 0.77305 0.0
C198 C 0.43204 0.30016 0.71565 0.0
C199 C 0.49572 0.32804 0.72811 0.0
H200 H 0.1215 0.98181 0.2437 0.0
H201 H 0.91749 0.05734 0.13106 0.0
H202 H 0.86406 0.98369 0.1642 0.0
H203 H 0.87833 0.9143 0.23355 0.0
H204 H 0.08124 0.83472 0.34436 0.0
H205 H 0.13245 0.89213 0.30324 0.0
C206 C 0.06533 0.98125 0.2262 0.0
C207 C 0.0234 1.02596 0.18585 0.0
C208 C 0.03495 0.93776 0.24493 0.0
C209 C 0.95065 1.0239 0.16261 0.0
C210 C 0.92015 0.98178 0.18148 0.0
C211 C 0.93281 0.90543 0.24678 0.0
C212 C 0.97561 0.86882 0.29125 0.0
C213 C 0.96197 0.94009 0.22351 0.0
C214 C 0.04707 0.86139 0.3096 0.0
C215 C 0.07652 0.89532 0.28656 0.0
H216 H 0.13533 0.47726 0.23901 0.0
H217 H 1.00379 0.29751 0.20493 0.0
H218 H 0.96281 0.34426 0.25646 0.0
H219 H 0.9494 0.44706 0.29837 0.0
H220 H 0.07214 0.632 0.32301 0.0
H221 H 0.13235 0.57277 0.28855 0.0
C222 C 0.09957 0.44728 0.24445 0.0
C223 C 0.07312 0.38386 0.21914 0.0
C224 C 0.07375 0.47643 0.27158 0.0
C225 C 0.02552 0.34589 0.22499 0.0
C226 C 1.00163 0.37311 0.2539 0.0
C227 C 0.99051 0.4735 0.29715 0.0
C228 C 1.00591 0.54394 0.31253 0.0
C229 C 0.02298 0.43995 0.27547 0.0
C230 C 0.05891 0.57811 0.31069 0.0
C231 C 0.0933 0.54427 0.29106 0.0
H232 H 0.06644 0.05639 0.84015 0.0
H233 H 0.84808 0.05786 0.72623 0.0
H234 H 0.86973 0.13933 0.67728 0.0
H235 H 0.95318 0.19299 0.66107 0.0
H236 H 0.17278 0.17204 0.76872 0.0
H237 H 0.1488 0.11995 0.82705 0.0
C238 C 0.0235 0.07601 0.80512 0.0
C239 C 0.95605 0.05055 0.7864 0.0
C240 C 0.03682 0.12053 0.77635 0.0
C241 C 0.9007 0.07587 0.7409 0.0
C242 C 0.91303 0.12257 0.71301 0.0
C243 C 0.99551 0.17955 0.69807 0.0
C244 C 0.06469 0.18959 0.71143 0.0
C245 C 0.98125 0.14298 0.7295 0.0
C246 C 0.11923 0.16951 0.75874 0.0
C247 C 0.10542 0.13737 0.79155 0.0
H248 H 0.12067 0.57206 0.73958 0.0
H249 H 0.91541 0.50212 0.6289 0.0
H250 H 0.86441 0.57349 0.66551 0.0
H251 H 0.88084 0.6426 0.73589 0.0
H252 H 0.08604 0.71385 0.84548 0.0
H253 H 0.1343 0.65738 0.80174 0.0
C254 C 0.06472 0.57336 0.72322 0.0
C255 C 0.02184 0.53107 0.68229 0.0
C256 C 0.03577 0.6153 0.74404 0.0
C257 C 0.94935 0.53395 0.66071 0.0
C258 C 0.92024 0.57461 0.68167 0.0
C259 C 0.93545 0.64864 0.74878 0.0
C260 C 0.97971 0.68335 0.79335 0.0
C261 C 0.96314 0.61411 0.72412 0.0
C262 C 0.05085 0.68858 0.81068 0.0
C263 C 0.07863 0.65531 0.78611 0.0
H264 H 0.99507 0.52645 0.90954 0.0
H265 H 0.94344 0.70704 0.96523 0.0
H266 H 0.98256 0.64392 0.04236 0.0
H267 H 0.0358 0.53843 0.09472 0.0
H268 H 0.08825 0.35847 0.03892 0.0
H269 H 0.04769 0.42121 0.96153 0.0
C270 C 0.99148 0.55145 0.93841 0.0
C271 C 0.96341 0.61998 0.93116 0.0
C272 C 0.01667 0.51582 0.98302 0.0
C273 C 0.96067 0.65279 0.969 0.0
C274 C 0.9847 0.61729 0.01344 0.0
C275 C 0.03898 0.51343 0.0657 0.0
C276 C 0.06772 0.44516 0.07297 0.0
C277 C 0.01337 0.54904 0.02095 0.0
C278 C 0.07026 0.41248 0.03501 0.0
C279 C 0.04551 0.44773 0.99047 0.0
H280 H 0.05944 0.92724 0.46302 0.0
H281 H 0.84809 1.00556 0.38459 0.0
H282 H 0.87637 0.08631 0.45148 0.0
H283 H 0.96323 0.13726 0.53185 0.0
H284 H 0.17551 0.06206 0.60759 0.0
H285 H 0.14624 0.97984 0.54163 0.0
C286 C 0.01934 0.96167 0.46068 0.0
C287 C 0.95071 0.95817 0.41957 0.0
C288 C 0.03706 1.01003 0.49838 0.0
C289 C 0.89999 1.00417 0.4167 0.0
C290 C 0.91673 0.05152 0.45467 0.0
C291 C 1.00315 0.10319 0.53363 0.0
C292 C 0.07226 0.10725 0.57419 0.0
C293 C 0.98528 0.05514 0.49558 0.0
C294 C 0.12301 0.06218 0.57632 0.0
C295 C 0.10582 1.01423 0.53875 0.0
H296 H 0.29184 0.2111 0.90599 0.0
H297 H 0.15743 0.39089 0.83318 0.0
H298 H 0.14524 0.40943 0.90339 0.0
H299 H 0.17481 0.37556 0.98664 0.0
H300 H 0.30424 0.19151 0.05665 0.0
H301 H 0.31609 0.17372 0.98662 0.0
C302 C 0.26008 0.25448 0.90557 0.0
C303 C 0.22631 0.29999 0.86469 0.0
C304 C 0.25227 0.26405 0.94565 0.0
C305 C 0.1842 0.35517 0.8643 0.0
C306 C 0.17726 0.36587 0.90447 0.0
C307 C 0.20541 0.33151 0.98644 0.0
C308 C 0.23879 0.28518 0.02702 0.0
C309 C 0.21134 0.32083 0.94552 0.0
C310 C 0.27778 0.22796 0.02596 0.0
C311 C 0.28484 0.21777 0.98593 0.0
H312 H 0.76227 0.9184 0.60059 0.0
H313 H 0.87835 0.72356 0.6559 0.0
H314 H 0.89117 0.71709 0.58552 0.0
H315 H 0.86805 0.76637 0.50754 0.0
H316 H 0.75389 0.96285 0.45322 0.0
H317 H 0.74213 0.96934 0.52402 0.0
C318 C 0.79015 0.87438 0.59717 0.0
C319 C 0.81894 0.82118 0.63334 0.0
C320 C 0.79788 0.87149 0.55679 0.0
C321 C 0.85566 0.76503 0.6286 0.0
C322 C 0.86299 0.76136 0.58831 0.0
C323 C 0.84077 0.81072 0.51123 0.0
C324 C 0.81155 0.86376 0.4749 0.0
C325 C 0.83421 0.81426 0.55212 0.0
C326 C 0.77668 0.92107 0.48047 0.0
C327 C 0.76981 0.92484 0.52095 0.0
H328 H 0.85144 0.69218 0.00694 0.0
H329 H 0.75614 0.89439 0.94482 0.0
H330 H 0.74991 0.92021 0.01657 0.0
H331 H 0.76705 0.88337 0.09555 0.0
H332 H 0.86614 0.68292 0.15889 0.0
H333 H 0.8757 0.65874 0.08834 0.0
C334 C 0.82958 0.742 0.0092 0.0
C335 C 0.80377 0.79097 0.97038 0.0
C336 C 0.82656 0.7568 0.05074 0.0
C337 C 0.7763 0.85565 0.97414 0.0
C338 C 0.77251 0.87044 0.01511 0.0
C339 C 0.79069 0.83442 0.09386 0.0
C340 C 0.81494 0.78468 0.13207 0.0
C341 C 0.79668 0.82106 0.05337 0.0
C342 C 0.8467 0.72203 0.12983 0.0
C343 C 0.85211 0.70803 0.08946 0.0
H344 H 0.22342 0.34254 0.51518 0.0
H345 H 0.19166 0.11811 0.49916 0.0
H346 H 0.1837 0.12276 0.4204 0.0
H347 H 0.18943 0.19032 0.35723 0.0
H348 H 0.22537 0.41401 0.37543 0.0
H349 H 0.22754 0.40994 0.45197 0.0
C350 C 0.21445 0.29459 0.49442 0.0
C351 C 0.20838 0.23002 0.5132 0.0
C352 C 0.21083 0.29754 0.44954 0.0
C353 C 0.19699 0.16845 0.48577 0.0
C354 C 0.19232 0.1711 0.44067 0.0
C355 C 0.19742 0.2382 0.37786 0.0
C356 C 0.20773 0.30232 0.3608 0.0
C357 C 0.19972 0.23528 0.42237 0.0
C358 C 0.21813 0.36386 0.388 0.0
C359 C 0.21922 0.36161 0.43174 0.0
loop_
_geom_bond_atom_site_label_1
_geom_bond_atom_site_label_2
_geom_bond_distance
_geom_bond_site_symmetry_2
_ccdc_geom_bond_type
Zn0 N4 2.020 . S
Zn0 O8 2.019 . S
Zn0 N10 2.119 . S
Zn0 O18 1.975 . S
C1 N2 1.334 . S
C1 N5 1.336 . S
N2 C1 1.334 . S
N2 C3 1.334 . S
C3 N2 1.334 . S
C3 N4 1.336 . S
N4 Zn0 2.020 . S
N4 C3 1.336 . S
N4 N5 1.354 . S
N5 C1 1.336 . S
N5 N4 1.354 . S
N5 Zn9 2.020 . S
C6 O7 1.244 . S
C6 O30 1.257 . S
O7 C6 1.244 . S
O8 Zn0 2.019 . S
O8 C28 1.257 . S
Zn9 N5 2.020 . S
Zn9 O16 1.975 . S
Zn9 N25 2.119 . S
Zn9 O30 2.019 . S
N10 Zn0 2.119 . S
N10 C12 1.334 . S
N10 C13 1.328 . S
C11 C12 1.391 . S
C11 N14 1.329 . S
C11 H32 0.930 . S
C12 N10 1.334 . S
C12 C11 1.391 . S
C12 H19 0.930 . S
C13 N10 1.328 . S
C13 C15 1.392 . S
C13 H20 0.930 . S
N14 C11 1.329 . S
N14 C15 1.331 . S
C15 C13 1.392 . S
C15 N14 1.331 . S
O16 Zn9 1.975 . S
O16 C17 1.252 . S
C17 O16 1.252 . S
C17 O18 1.252 . S
O18 Zn0 1.975 . S
O18 C17 1.252 . S
H19 C12 0.930 . S
H20 C13 0.930 . S
C21 C22 1.392 . S
C21 N25 1.328 . S
C21 H27 0.930 . S
C22 C21 1.392 . S
C22 N26 1.331 . S
C23 C24 1.391 . S
C23 N26 1.329 . S
C23 H33 0.930 . S
C24 C23 1.391 . S
C24 N25 1.334 . S
C24 H31 0.930 . S
N25 Zn9 2.119 . S
N25 C21 1.328 . S
N25 C24 1.334 . S
N26 C22 1.331 . S
N26 C23 1.329 . S
H27 C21 0.930 . S
C28 O8 1.257 . S
C28 O29 1.244 . S
O29 C28 1.244 . S
O30 C6 1.257 . S
O30 Zn9 2.019 . S
H31 C24 0.930 . S
H32 C11 0.930 . S
H33 C23 0.930 . S
Zn34 N38 2.020 . S
Zn34 O42 2.019 . S
Zn34 N44 2.119 . S
Zn34 O52 1.975 . S
C35 N36 1.334 . S
C35 N39 1.336 . S
N36 C35 1.334 . S
N36 C37 1.334 . S
C37 N36 1.334 . S
C37 N38 1.336 . S
N38 Zn34 2.020 . S
N38 C37 1.336 . S
N38 N39 1.354 . S
N39 C35 1.336 . S
N39 N38 1.354 . S
N39 Zn43 2.020 . S
C40 O41 1.244 . S
C40 O64 1.257 . S
O41 C40 1.244 . S
O42 Zn34 2.019 . S
O42 C62 1.257 . S
Zn43 N39 2.020 . S
Zn43 O50 1.975 . S
Zn43 N59 2.119 . S
Zn43 O64 2.019 . S
N44 Zn34 2.119 . S
N44 C46 1.334 . S
N44 C47 1.328 . S
C45 C46 1.391 . S
C45 N48 1.329 . S
C45 H66 0.930 . S
C46 N44 1.334 . S
C46 C45 1.391 . S
C46 H53 0.930 . S
C47 N44 1.328 . S
C47 C49 1.392 . S
C47 H54 0.930 . S
N48 C45 1.329 . S
N48 C49 1.331 . S
C49 C47 1.392 . S
C49 N48 1.331 . S
O50 Zn43 1.975 . S
O50 C51 1.252 . S
C51 O50 1.252 . S
C51 O52 1.252 . S
O52 Zn34 1.975 . S
O52 C51 1.252 . S
H53 C46 0.930 . S
H54 C47 0.930 . S
C55 C56 1.392 . S
C55 N59 1.328 . S
C55 H61 0.930 . S
C56 C55 1.392 . S
C56 N60 1.331 . S
C57 C58 1.391 . S
C57 N60 1.329 . S
C57 H67 0.930 . S
C58 C57 1.391 . S
C58 N59 1.334 . S
C58 H65 0.930 . S
N59 Zn43 2.119 . S
N59 C55 1.328 . S
N59 C58 1.334 . S
N60 C56 1.331 . S
N60 C57 1.329 . S
H61 C55 0.930 . S
C62 O42 1.257 . S
C62 O63 1.244 . S
O63 C62 1.244 . S
O64 C40 1.257 . S
O64 Zn43 2.019 . S
H65 C58 0.930 . S
H66 C45 0.930 . S
H67 C57 0.930 . S
Zn68 N72 2.020 . S
Zn68 O76 2.019 . S
Zn68 N78 2.119 . S
Zn68 O86 1.975 . S
C69 N70 1.334 . S
C69 N73 1.336 . S
N70 C69 1.334 . S
N70 C71 1.334 . S
C71 N70 1.334 . S
C71 N72 1.336 . S
N72 Zn68 2.020 . S
N72 C71 1.336 . S
N72 N73 1.354 . S
N73 C69 1.336 . S
N73 N72 1.354 . S
N73 Zn77 2.020 . S
C74 O75 1.244 . S
C74 O98 1.257 . S
O75 C74 1.244 . S
O76 Zn68 2.019 . S
O76 C96 1.257 . S
Zn77 N73 2.020 . S
Zn77 O84 1.975 . S
Zn77 N93 2.119 . S
Zn77 O98 2.019 . S
N78 Zn68 2.119 . S
N78 C80 1.334 . S
N78 C81 1.328 . S
C79 C80 1.391 . S
C79 N82 1.329 . S
C79 H100 0.930 . S
C80 N78 1.334 . S
C80 C79 1.391 . S
C80 H87 0.930 . S
C81 N78 1.328 . S
C81 C83 1.392 . S
C81 H88 0.930 . S
N82 C79 1.329 . S
N82 C83 1.331 . S
C83 C81 1.392 . S
C83 N82 1.331 . S
O84 Zn77 1.975 . S
O84 C85 1.252 . S
C85 O84 1.252 . S
C85 O86 1.252 . S
O86 Zn68 1.975 . S
O86 C85 1.252 . S
H87 C80 0.930 . S
H88 C81 0.930 . S
C89 C90 1.392 . S
C89 N93 1.328 . S
C89 H95 0.930 . S
C90 C89 1.392 . S
C90 N94 1.331 . S
C91 C92 1.391 . S
C91 N94 1.329 . S
C91 H101 0.930 . S
C92 C91 1.391 . S
C92 N93 1.334 . S
C92 H99 0.930 . S
N93 Zn77 2.119 . S
N93 C89 1.328 . S
N93 C92 1.334 . S
N94 C90 1.331 . S
N94 C91 1.329 . S
H95 C89 0.930 . S
C96 O76 1.257 . S
C96 O97 1.244 . S
O97 C96 1.244 . S
O98 C74 1.257 . S
O98 Zn77 2.019 . S
H99 C92 0.930 . S
H100 C79 0.930 . S
H101 C91 0.930 . S
Zn102 N106 2.020 . S
Zn102 O110 2.019 . S
Zn102 N112 2.119 . S
Zn102 O120 1.975 . S
C103 N104 1.334 . S
C103 N107 1.336 . S
N104 C103 1.334 . S
N104 C105 1.334 . S
C105 N104 1.334 . S
C105 N106 1.336 . S
N106 Zn102 2.020 . S
N106 C105 1.336 . S
N106 N107 1.354 . S
N107 C103 1.336 . S
N107 N106 1.354 . S
N107 Zn111 2.020 . S
C108 O109 1.244 . S
C108 O132 1.257 . S
O109 C108 1.244 . S
O110 Zn102 2.019 . S
O110 C130 1.257 . S
Zn111 N107 2.020 . S
Zn111 O118 1.975 . S
Zn111 N127 2.119 . S
Zn111 O132 2.019 . S
N112 Zn102 2.119 . S
N112 C114 1.334 . S
N112 C115 1.328 . S
C113 C114 1.391 . S
C113 N116 1.329 . S
C113 H134 0.930 . S
C114 N112 1.334 . S
C114 C113 1.391 . S
C114 H121 0.930 . S
C115 N112 1.328 . S
C115 C117 1.392 . S
C115 H122 0.930 . S
N116 C113 1.329 . S
N116 C117 1.331 . S
C117 C115 1.392 . S
C117 N116 1.331 . S
O118 Zn111 1.975 . S
O118 C119 1.252 . S
C119 O118 1.252 . S
C119 O120 1.252 . S
O120 Zn102 1.975 . S
O120 C119 1.252 . S
H121 C114 0.930 . S
H122 C115 0.930 . S
C123 C124 1.392 . S
C123 N127 1.328 . S
C123 H129 0.930 . S
C124 C123 1.392 . S
C124 N128 1.331 . S
C125 C126 1.391 . S
C125 N128 1.329 . S
C125 H135 0.930 . S
C126 C125 1.391 . S
C126 N127 1.334 . S
C126 H133 0.930 . S
N127 Zn111 2.119 . S
N127 C123 1.328 . S
N127 C126 1.334 . S
N128 C124 1.331 . S
N128 C125 1.329 . S
H129 C123 0.930 . S
C130 O110 1.257 . S
C130 O131 1.244 . S
O131 C130 1.244 . S
O132 C108 1.257 . S
O132 Zn111 2.019 . S
H133 C126 0.930 . S
H134 C113 0.930 . S
H135 C125 0.930 . S
H136 C142 0.930 . S
H137 C145 0.930 . S
H138 C146 0.930 1_565 S
H139 C147 0.930 . S
H140 C150 0.930 . S
H141 C151 0.930 . S
C142 H136 0.930 . S
C142 C143 1.355 . S
C142 C144 1.415 . S
C143 C142 1.355 . S
C143 C145 1.419 . S
C144 C142 1.415 . S
C144 C149 1.425 . S
C144 C151 1.409 . S
C145 H137 0.930 . S
C145 C143 1.419 . S
C145 C146 1.362 . S
C146 H138 0.930 1_545 S
C146 C145 1.362 . S
C146 C149 1.409 . S
C147 H139 0.930 . S
C147 C148 1.355 . S
C147 C149 1.415 1_565 S
C148 C147 1.355 . S
C148 C150 1.419 1_565 S
C149 C144 1.425 . S
C149 C146 1.409 . S
C149 C147 1.415 1_545 S
C150 H140 0.930 . S
C150 C148 1.419 1_545 S
C150 C151 1.362 . S
C151 H141 0.930 . S
C151 C144 1.409 . S
C151 C150 1.362 . S
H152 C158 0.930 . S
H153 C161 0.930 . S
H154 C162 0.930 . S
H155 C163 0.930 . S
H156 C166 0.930 . S
H157 C167 0.930 . S
C158 H152 0.930 . S
C158 C159 1.355 . S
C158 C160 1.415 . S
C159 C158 1.355 . S
C159 C161 1.419 . S
C160 C158 1.415 . S
C160 C165 1.425 . S
C160 C167 1.409 . S
C161 H153 0.930 . S
C161 C159 1.419 . S
C161 C162 1.362 . S
C162 H154 0.930 . S
C162 C161 1.362 . S
C162 C165 1.409 . S
C163 H155 0.930 . S
C163 C164 1.355 . S
C163 C165 1.415 . S
C164 C163 1.355 . S
C164 C166 1.419 . S
C165 C160 1.425 . S
C165 C162 1.409 . S
C165 C163 1.415 . S
C166 H156 0.930 . S
C166 C164 1.419 . S
C166 C167 1.362 . S
C167 H157 0.930 . S
C167 C160 1.409 . S
C167 C166 1.362 . S
H168 C174 0.930 . S
H169 C177 0.930 . S
H170 C178 0.930 . S
H171 C179 0.930 . S
H172 C182 0.930 . S
H173 C183 0.930 . S
C174 H168 0.930 . S
C174 C175 1.355 . S
C174 C176 1.415 1_545 S
C175 C174 1.355 . S
C175 C177 1.419 1_545 S
C176 C174 1.415 1_565 S
C176 C181 1.425 . S
C176 C183 1.409 . S
C177 H169 0.930 . S
C177 C175 1.419 1_565 S
C177 C178 1.362 . S
C178 H170 0.930 . S
C178 C177 1.362 . S
C178 C181 1.409 . S
C179 H171 0.930 . S
C179 C180 1.355 . S
C179 C181 1.415 . S
C180 C179 1.355 . S
C180 C182 1.419 . S
C181 C176 1.425 . S
C181 C178 1.409 . S
C181 C179 1.415 . S
C182 H172 0.930 . S
C182 C180 1.419 . S
C182 C183 1.362 . S
C183 H173 0.930 . S
C183 C176 1.409 . S
C183 C182 1.362 . S
H184 C190 0.930 . S
H185 C193 0.930 . S
H186 C194 0.930 . S
H187 C195 0.930 . S
H188 C198 0.930 . S
H189 C199 0.930 . S
C190 H184 0.930 . S
C190 C191 1.355 . S
C190 C192 1.415 . S
C191 C190 1.355 . S
C191 C193 1.419 . S
C192 C190 1.415 . S
C192 C197 1.425 . S
C192 C199 1.409 . S
C193 H185 0.930 . S
C193 C191 1.419 . S
C193 C194 1.362 . S
C194 H186 0.930 . S
C194 C193 1.362 . S
C194 C197 1.409 . S
C195 H187 0.930 . S
C195 C196 1.355 . S
C195 C197 1.415 . S
C196 C195 1.355 . S
C196 C198 1.419 . S
C197 C192 1.425 . S
C197 C194 1.409 . S
C197 C195 1.415 . S
C198 H188 0.930 . S
C198 C196 1.419 . S
C198 C199 1.362 . S
C199 H189 0.930 . S
C199 C192 1.409 . S
C199 C198 1.362 . S
H200 C206 0.930 . S
H201 C209 0.930 . S
H202 C210 0.930 . S
H203 C211 0.930 . S
H204 C214 0.930 . S
H205 C215 0.930 . S
C206 H200 0.930 . S
C206 C207 1.355 . S
C206 C208 1.415 1_545 S
C207 C206 1.355 . S
C207 C209 1.419 1_455 S
C208 C206 1.415 1_565 S
C208 C213 1.425 1_455 S
C208 C215 1.409 . S
C209 H201 0.930 . S
C209 C207 1.419 1_655 S
C209 C210 1.362 1_545 S
C210 H202 0.930 . S
C210 C209 1.362 1_565 S
C210 C213 1.409 . S
C211 H203 0.930 . S
C211 C212 1.355 . S
C211 C213 1.415 . S
C212 C211 1.355 . S
C212 C214 1.419 . S
C213 C208 1.425 1_655 S
C213 C210 1.409 . S
C213 C211 1.415 . S
C214 H204 0.930 . S
C214 C212 1.419 . S
C214 C215 1.362 1_655 S
C215 H205 0.930 . S
C215 C208 1.409 . S
C215 C214 1.362 1_455 S
H216 C222 0.930 . S
H217 C225 0.930 1_655 S
H218 C226 0.930 . S
H219 C227 0.930 . S
H220 C230 0.930 . S
H221 C231 0.930 . S
C222 H216 0.930 . S
C222 C223 1.355 . S
C222 C224 1.415 . S
C223 C222 1.355 . S
C223 C225 1.419 . S
C224 C222 1.415 . S
C224 C229 1.425 1_455 S
C224 C231 1.409 . S
C225 H217 0.930 1_455 S
C225 C223 1.419 . S
C225 C226 1.362 1_455 S
C226 H218 0.930 . S
C226 C225 1.362 1_655 S
C226 C229 1.409 . S
C227 H219 0.930 . S
C227 C228 1.355 . S
C227 C229 1.415 . S
C228 C227 1.355 . S
C228 C230 1.419 1_655 S
C229 C224 1.425 1_655 S
C229 C226 1.409 . S
C229 C227 1.415 . S
C230 H220 0.930 . S
C230 C228 1.419 1_455 S
C230 C231 1.362 . S
C231 H221 0.930 . S
C231 C224 1.409 . S
C231 C230 1.362 . S
H232 C238 0.930 . S
H233 C241 0.930 . S
H234 C242 0.930 . S
H235 C243 0.930 . S
H236 C246 0.930 . S
H237 C247 0.939 . S
C238 H232 0.930 . S
C238 C239 1.355 . S
C238 C240 1.415 1_665 S
C239 C238 1.355 . S
C239 C241 1.419 1_565 S
C240 C238 1.415 1_445 S
C240 C245 1.425 . S
C240 C247 1.408 1_545 S
C241 H233 0.930 . S
C241 C239 1.419 1_545 S
C241 C242 1.362 1_655 S
C242 H234 0.930 . S
C242 C241 1.362 1_455 S
C242 C245 1.409 . S
C243 H235 0.930 . S
C243 C244 1.355 . S
C243 C245 1.415 . S
C244 C243 1.355 . S
C244 C246 1.419 . S
C245 C240 1.425 . S
C245 C242 1.409 . S
C245 C243 1.415 . S
C246 H236 0.930 . S
C246 C244 1.419 . S
C246 C247 1.355 1_545 S
C247 H237 0.939 . S
C247 C240 1.408 1_565 S
C247 C246 1.355 1_565 S
H248 C254 0.930 . S
H249 C257 0.930 . S
H250 C258 0.930 . S
H251 C259 0.930 . S
H252 C262 0.931 1_455 S
H253 C263 0.930 . S
C254 H248 0.930 . S
C254 C255 1.355 . S
C254 C256 1.415 . S
C255 C254 1.355 . S
C255 C257 1.419 1_455 S
C256 C254 1.415 . S
C256 C261 1.425 1_455 S
C256 C263 1.409 . S
C257 H249 0.930 . S
C257 C255 1.419 1_655 S
C257 C258 1.362 . S
C258 H250 0.930 . S
C258 C257 1.362 . S
C258 C261 1.409 . S
C259 H251 0.930 . S
C259 C260 1.355 . S
C259 C261 1.415 . S
C260 C259 1.355 . S
C260 C262 1.431 . S
C261 C256 1.425 1_655 S
C261 C258 1.409 . S
C261 C259 1.415 . S
C262 H252 0.931 1_655 S
C262 C260 1.431 . S
C262 C263 1.350 1_655 S
C263 H253 0.930 . S
C263 C256 1.409 . S
C263 C262 1.350 1_455 S
H264 C270 0.930 . S
H265 C273 0.930 . S
H266 C274 0.930 1_554 S
H267 C275 0.930 . S
H268 C278 0.930 . S
H269 C279 0.930 1_556 S
C270 H264 0.930 . S
C270 C271 1.355 . S
C270 C272 1.415 . S
C271 C270 1.355 . S
C271 C273 1.419 . S
C272 C270 1.415 . S
C272 C277 1.425 1_656 S
C272 C279 1.409 1_556 S
C273 H265 0.930 . S
C273 C271 1.419 . S
C273 C274 1.362 1_655 S
C274 H266 0.930 1_556 S
C274 C273 1.362 1_455 S
C274 C277 1.409 1_556 S
C275 H267 0.930 . S
C275 C276 1.355 . S
C275 C277 1.415 . S
C276 C275 1.355 . S
C276 C278 1.419 . S
C277 C272 1.425 1_454 S
C277 C274 1.409 1_554 S
C277 C275 1.415 . S
C278 H268 0.930 . S
C278 C276 1.419 . S
C278 C279 1.362 1_455 S
C279 H269 0.930 1_554 S
C279 C272 1.409 1_554 S
C279 C278 1.362 1_655 S
H280 C286 0.930 . S
H281 C289 0.929 1_545 S
H282 C290 0.930 . S
H283 C291 0.930 . S
H284 C294 0.929 1_565 S
H285 C295 0.930 . S
C286 H280 0.930 . S
C286 C287 1.355 . S
C286 C288 1.415 1_655 S
C287 C286 1.355 . S
C287 C289 1.419 . S
C288 C286 1.415 1_455 S
C288 C293 1.425 1_465 S
C288 C295 1.409 . S
C289 H281 0.929 1_565 S
C289 C287 1.419 . S
C289 C290 1.362 1_565 S
C290 H282 0.930 . S
C290 C289 1.362 1_545 S
C290 C293 1.409 . S
C291 H283 0.930 . S
C291 C292 1.355 . S
C291 C293 1.415 1_455 S
C292 C291 1.355 . S
C292 C294 1.419 . S
C293 C288 1.425 1_645 S
C293 C290 1.409 . S
C293 C291 1.415 1_655 S
C294 H284 0.929 1_545 S
C294 C292 1.419 . S
C294 C295 1.362 1_545 S
C295 H285 0.930 . S
C295 C288 1.409 . S
C295 C294 1.362 1_565 S
H296 C302 0.930 . S
H297 C305 0.930 . S
H298 C306 0.930 . S
H299 C307 0.930 . S
H300 C310 0.930 . S
H301 C311 0.930 . S
C302 H296 0.930 . S
C302 C303 1.355 . S
C302 C304 1.415 . S
C303 C302 1.355 . S
C303 C305 1.419 . S
C304 C302 1.415 . S
C304 C309 1.425 . S
C304 C311 1.409 1_556 S
C305 H297 0.930 . S
C305 C303 1.419 . S
C305 C306 1.362 . S
C306 H298 0.930 . S
C306 C305 1.362 . S
C306 C309 1.409 . S
C307 H299 0.930 . S
C307 C308 1.355 1_556 S
C307 C309 1.415 . S
C308 C307 1.355 1_554 S
C308 C310 1.419 . S
C309 C304 1.425 . S
C309 C306 1.409 . S
C309 C307 1.415 . S
C310 H300 0.930 . S
C310 C308 1.419 . S
C310 C311 1.362 . S
C311 H301 0.930 . S
C311 C304 1.409 1_554 S
C311 C310 1.362 . S
H312 C318 0.930 . S
H313 C321 0.930 . S
H314 C322 0.930 . S
H315 C323 0.930 . S
H316 C326 0.930 . S
H317 C327 0.930 . S
C318 H312 0.930 . S
C318 C319 1.355 . S
C318 C320 1.415 . S
C319 C318 1.355 . S
C319 C321 1.419 . S
C320 C318 1.415 . S
C320 C325 1.425 . S
C320 C327 1.409 . S
C321 H313 0.930 . S
C321 C319 1.419 . S
C321 C322 1.362 . S
C322 H314 0.930 . S
C322 C321 1.362 . S
C322 C325 1.409 . S
C323 H315 0.930 . S
C323 C324 1.355 . S
C323 C325 1.415 . S
C324 C323 1.355 . S
C324 C326 1.419 . S
C325 C320 1.425 . S
C325 C322 1.409 . S
C325 C323 1.415 . S
C326 H316 0.930 . S
C326 C324 1.419 . S
C326 C327 1.362 . S
C327 H317 0.930 . S
C327 C320 1.409 . S
C327 C326 1.362 . S
H328 C334 0.930 . S
H329 C337 0.930 . S
H330 C338 0.930 . S
H331 C339 0.930 . S
H332 C342 0.930 . S
H333 C343 0.930 . S
C334 H328 0.930 . S
C334 C335 1.355 1_554 S
C334 C336 1.415 . S
C335 C334 1.355 1_556 S
C335 C337 1.419 . S
C336 C334 1.415 . S
C336 C341 1.425 . S
C336 C343 1.409 . S
C337 H329 0.930 . S
C337 C335 1.419 . S
C337 C338 1.362 1_556 S
C338 H330 0.930 . S
C338 C337 1.362 1_554 S
C338 C341 1.409 . S
C339 H331 0.930 . S
C339 C340 1.355 . S
C339 C341 1.415 . S
C340 C339 1.355 . S
C340 C342 1.419 . S
C341 C336 1.425 . S
C341 C338 1.409 . S
C341 C339 1.415 . S
C342 H332 0.930 . S
C342 C340 1.419 . S
C342 C343 1.362 . S
C343 H333 0.930 . S
C343 C336 1.409 . S
C343 C342 1.362 . S
H344 C350 0.930 . S
H345 C353 0.930 . S
H346 C354 0.930 . S
H347 C355 0.930 . S
H348 C358 0.930 . S
H349 C359 0.930 . S
C350 H344 0.930 . S
C350 C351 1.355 . S
C350 C352 1.415 . S
C351 C350 1.355 . S
C351 C353 1.419 . S
C352 C350 1.415 . S
C352 C357 1.425 . S
C352 C359 1.409 . S
C353 H345 0.930 . S
C353 C351 1.419 . S
C353 C354 1.362 . S
C354 H346 0.930 . S
C354 C353 1.362 . S
C354 C357 1.409 . S
C355 H347 0.930 . S
C355 C356 1.355 . S
C355 C357 1.415 . S
C356 C355 1.355 . S
C356 C358 1.419 . S
C357 C352 1.425 . S
C357 C354 1.409 . S
C357 C355 1.415 . S
C358 H348 0.930 . S
C358 C356 1.419 . S
C358 C359 1.362 . S
C359 H349 0.930 . S
C359 C352 1.409 . S
C359 C358 1.362 . S
C143 C17 1.615 . S
C148 C56 1.485 . S
C159 C15 1.472 . S
C164 C51 1.610 . S
C175 C124 1.455 . S
C180 C85 1.616 . S
C191 C90 1.536 . S
C196 C119 1.608 . S
C207 C22 1.497 . S
C212 C37 1.368 . S
C223 C1 1.444 . S
C228 C49 1.517 . S
C239 C83 1.496 . S
C244 C105 1.363 . S
C255 C117 1.511 . S
C260 C71 1.426 . S
C271 C69 1.939 . S
C276 C3 1.939 . S
C287 C35 1.985 . S
C292 C103 1.985 . S
C303 C130 1.239 . S
C308 C28 1.264 . S
C319 C96 1.241 . S
C324 C40 1.262 . S
C335 C74 1.274 . S
C340 C62 1.247 . S
C351 C108 1.288 . S
C356 C6 1.291 . S
