# Generated by pormake.
# Topology umw, (4)-cn, num edge types: 1
# Building blocks:
#     Node 0, Type 0, BuildingBlock: TATPOV_clean_sbu_0, # of connection points: 4
#     Node 1, Type 0, BuildingBlock: TATPOV_clean_sbu_0, # of connection points: 4
#     Node 2, Type 0, BuildingBlock: TATPOV_clean_sbu_0, # of connection points: 4
#     Node 3, Type 0, BuildingBlock: TATPOV_clean_sbu_0, # of connection points: 4
#     Node 4, Type 0, BuildingBlock: TATPOV_clean_sbu_0, # of connection points: 4
#     Node 5, Type 0, BuildingBlock: TATPOV_clean_sbu_0, # of connection points: 4
#     Node 6, Type 0, BuildingBlock: TATPOV_clean_sbu_0, # of connection points: 4
#     Node 7, Type 0, BuildingBlock: TATPOV_clean_sbu_0, # of connection points: 4
#     Edge 8, Type (0, 0), BuildingBlock: XUDNAN_clean_linker_2, # of connection points: 2
#     Edge 9, Type (0, 0), BuildingBlock: XUDNAN_clean_linker_2, # of connection points: 2
#     Edge 10, Type (0, 0), BuildingBlock: XUDNAN_clean_linker_2, # of connection points: 2
#     Edge 11, Type (0, 0), BuildingBlock: XUDNAN_clean_linker_2, # of connection points: 2
#     Edge 12, Type (0, 0), BuildingBlock: XUDNAN_clean_linker_2, # of connection points: 2
#     Edge 13, Type (0, 0), BuildingBlock: XUDNAN_clean_linker_2, # of connection points: 2
#     Edge 14, Type (0, 0), BuildingBlock: XUDNAN_clean_linker_2, # of connection points: 2
#     Edge 15, Type (0, 0), BuildingBlock: XUDNAN_clean_linker_2, # of connection points: 2
#     Edge 16, Type (0, 0), BuildingBlock: XUDNAN_clean_linker_2, # of connection points: 2
#     Edge 17, Type (0, 0), BuildingBlock: XUDNAN_clean_linker_2, # of connection points: 2
#     Edge 18, Type (0, 0), BuildingBlock: XUDNAN_clean_linker_2, # of connection points: 2
#     Edge 19, Type (0, 0), BuildingBlock: XUDNAN_clean_linker_2, # of connection points: 2
#     Edge 20, Type (0, 0), BuildingBlock: XUDNAN_clean_linker_2, # of connection points: 2
#     Edge 21, Type (0, 0), BuildingBlock: XUDNAN_clean_linker_2, # of connection points: 2
#     Edge 22, Type (0, 0), BuildingBlock: XUDNAN_clean_linker_2, # of connection points: 2
#     Edge 23, Type (0, 0), BuildingBlock: XUDNAN_clean_linker_2, # of connection points: 2
# Relax obj value: 0.145
# Max RMSD: 0.109
# Mean RMSD: 0.109
data_MOF--net-umw--node1-TATPOV_clean_sbu_0--edge1-XUDNAN_clean_linker_2
_symmetry_space_group_name_H-M    P1
_symmetry_Int_Tables_number       1
_symmetry_cell_setting            triclinic
loop_
_symmetry_equiv_pos_as_xyz
'x, y, z'
_cell_length_a     42.270563
_cell_length_b     41.8803
_cell_length_c     25.824015
_cell_angle_alpha  89.396993
_cell_angle_beta   88.94189
_cell_angle_gamma 88.613859
loop_
_atom_site_label
_atom_site_type_symbol
_atom_site_fract_x
_atom_site_fract_y
_atom_site_fract_z
_atom_type_partial_charge
Zn0 Zn 0.45798 0.15751 0.24941 0.0
Zn1 Zn 0.40582 0.18997 0.24713 0.0
O2 O 0.42447 0.19537 0.17207 0.0
O3 O 0.46466 0.16096 0.17365 0.0
O4 O 0.367 0.21937 0.2511 0.0
O5 O 0.48015 0.18892 0.29184 0.0
O6 O 0.43287 0.21108 0.30268 0.0
C7 C 0.44793 0.18129 0.14926 0.0
C8 C 0.40588 0.11994 0.28198 0.0
O9 O 0.39 0.14433 0.26608 0.0
O10 O 0.4358 0.12046 0.28217 0.0
C11 C 0.35245 0.22278 0.29443 0.0
O12 O 0.36115 0.20477 0.3339 0.0
C13 C 0.46224 0.20976 0.31286 0.0
Zn14 Zn 0.81998 0.47635 0.53711 0.0
Zn15 Zn 0.80679 0.41516 0.52787 0.0
O16 O 0.78865 0.43531 0.46033 0.0
O17 O 0.79738 0.48643 0.47236 0.0
O18 O 0.79146 0.36975 0.53278 0.0
O19 O 0.79595 0.48227 0.60265 0.0
O20 O 0.78673 0.43109 0.59649 0.0
C21 C 0.78613 0.46447 0.44561 0.0
C22 C 0.8759 0.43447 0.53131 0.0
O23 O 0.8559 0.41237 0.52675 0.0
O24 O 0.86631 0.46319 0.53659 0.0
C25 C 0.80517 0.35056 0.56419 0.0
O26 O 0.83123 0.3594 0.58635 0.0
C27 C 0.78343 0.45733 0.62062 0.0
Zn28 Zn 0.54381 0.84602 0.77184 0.0
Zn29 Zn 0.59449 0.8126 0.77786 0.0
O30 O 0.57053 0.79051 0.7185 0.0
O31 O 0.52365 0.81386 0.72776 0.0
O32 O 0.63355 0.78475 0.79153 0.0
O33 O 0.535 0.84663 0.84773 0.0
O34 O 0.57211 0.80892 0.84946 0.0
C35 C 0.54141 0.79303 0.70616 0.0
C36 C 0.59602 0.8825 0.74076 0.0
O37 O 0.61126 0.85818 0.75859 0.0
O38 O 0.56619 0.88214 0.73841 0.0
C39 C 0.65396 0.79517 0.82239 0.0
O40 O 0.65027 0.82433 0.84015 0.0
C41 C 0.55025 0.82521 0.87215 0.0
Zn42 Zn 0.14918 0.55099 0.91531 0.0
Zn43 Zn 0.19718 0.62503 0.96782 0.0
O44 O 0.22009 0.61768 0.89639 0.0
O45 O 0.18193 0.58528 0.9038 0.0
O46 O 0.22359 0.65237 0.01405 0.0
O47 O 0.16659 0.53493 -0.01542 0.0
O48 O 0.19103 0.58024 0.00649 0.0
C49 C 0.20577 0.59432 0.87771 0.0
C50 C 0.13583 0.6243 0.9426 0.0
O51 O 0.15271 0.64653 0.95887 0.0
O52 O 0.15087 0.59885 0.93035 0.0
C53 C 0.21076 0.66501 0.05409 0.0
O54 O 0.18056 0.66051 0.06373 0.0
C55 C 0.18274 0.55128 0.01609 0.0
Zn56 Zn 0.45803 0.85488 0.32125 0.0
Zn57 Zn 0.40643 0.82497 0.30344 0.0
O58 O 0.42339 0.8004 0.36827 0.0
O59 O 0.4712 0.82021 0.37049 0.0
O60 O 0.3668 0.80187 0.28262 0.0
O61 O 0.47377 0.85254 0.24811 0.0
O62 O 0.43522 0.81883 0.23865 0.0
C63 C 0.45123 0.80027 0.38662 0.0
C64 C 0.40487 0.89629 0.33338 0.0
O65 O 0.391 0.87237 0.31455 0.0
O66 O 0.4338 0.89378 0.34481 0.0
C67 C 0.36926 0.77725 0.25411 0.0
O68 O 0.39758 0.76597 0.2414 0.0
C69 C 0.45994 0.83232 0.22116 0.0
Zn70 Zn 0.15106 0.5008 0.47609 0.0
Zn71 Zn 0.17616 0.44073 0.47318 0.0
O72 O 0.19835 0.46094 0.53613 0.0
O73 O 0.18068 0.511 0.53268 0.0
O74 O 0.20029 0.399 0.45685 0.0
O75 O 0.16285 0.51226 0.40286 0.0
O76 O 0.1817 0.46297 0.40208 0.0
C77 C 0.19807 0.48951 0.55302 0.0
C78 C 0.10585 0.44921 0.49566 0.0
O79 O 0.12936 0.42991 0.48868 0.0
O80 O 0.1097 0.47913 0.49272 0.0
C81 C 0.22637 0.40311 0.43242 0.0
O82 O 0.23674 0.43226 0.42656 0.0
C83 C 0.1765 0.48951 0.37893 0.0
Zn84 Zn 0.53666 0.1508 0.71098 0.0
Zn85 Zn 0.5919 0.17994 0.71977 0.0
O86 O 0.56936 0.19241 0.78903 0.0
O87 O 0.52412 0.1677 0.78045 0.0
O88 O 0.63242 0.20477 0.71386 0.0
O89 O 0.52343 0.17716 0.6507 0.0
O90 O 0.56973 0.19963 0.65596 0.0
C91 C 0.54176 0.18548 0.80594 0.0
C92 C 0.59018 0.10704 0.70656 0.0
O93 O 0.60582 0.13201 0.71543 0.0
O94 O 0.56046 0.10903 0.70153 0.0
C95 C 0.66054 0.19327 0.71485 0.0
O96 O 0.66524 0.16292 0.72632 0.0
C97 C 0.54307 0.19733 0.63433 0.0
Zn98 Zn 0.87156 0.52582 0.02074 0.0
Zn99 Zn 0.83872 0.58044 0.00708 0.0
O100 O 0.82446 0.56717 0.08112 0.0
O101 O 0.85511 0.52448 0.09323 0.0
O102 O 0.81432 0.62174 -0.01055 0.0
O103 O 0.84625 0.50265 0.96962 0.0
O104 O 0.8216 0.54868 0.95503 0.0
C105 C 0.83355 0.54358 0.10931 0.0
C106 C 0.91198 0.57664 -0.00628 0.0
O107 O 0.88602 0.59283 -0.00324 0.0
O108 O 0.91202 0.54671 0.00079 0.0
C109 C 0.78767 0.62174 0.96709 0.0
O110 O 0.77445 0.59437 0.95786 0.0
C111 C 0.82537 0.51896 0.94614 0.0
H112 H 0.43399 0.22397 0.40445 0.0
H113 H 0.52038 0.23577 0.31485 0.0
H114 H 0.5479 0.25179 0.39325 0.0
H115 H 0.45326 0.2846 0.51624 0.0
H116 H 0.43594 0.25735 0.56256 0.0
H117 H 0.41951 0.26178 0.49883 0.0
H118 H 0.42567 0.20074 0.48617 0.0
H119 H 0.44251 0.19611 0.54882 0.0
H120 H 0.46421 0.18178 0.4926 0.0
H121 H 0.5698 0.24852 0.47977 0.0
H122 H 0.58376 0.22562 0.56501 0.0
H123 H 0.48433 0.21261 0.6007 0.0
C124 C 0.45811 0.23201 0.4012 0.0
C125 C 0.4751 0.2291 0.35413 0.0
C126 C 0.50702 0.23826 0.35085 0.0
C127 C 0.52275 0.24756 0.39519 0.0
C128 C 0.50623 0.24738 0.44242 0.0
C129 C 0.47432 0.24031 0.44563 0.0
C130 C 0.46395 0.23398 0.50113 0.0
C131 C 0.44186 0.26105 0.52085 0.0
C132 C 0.44823 0.20121 0.50747 0.0
C133 C 0.49561 0.23461 0.52738 0.0
C134 C 0.51942 0.2441 0.49358 0.0
C135 C 0.55126 0.24205 0.50708 0.0
C136 C 0.55904 0.22883 0.55543 0.0
C137 C 0.53505 0.21717 0.58888 0.0
C138 C 0.50303 0.22146 0.5756 0.0
H139 H 0.76166 0.5095 0.67201 0.0
H140 H 0.77589 0.40717 0.6879 0.0
H141 H 0.77178 0.41185 0.78259 0.0
H142 H 0.81106 0.53024 0.75116 0.0
H143 H 0.79129 0.56385 0.7819 0.0
H144 H 0.78005 0.55243 0.71852 0.0
H145 H 0.72196 0.54615 0.74941 0.0
H146 H 0.73283 0.55852 0.81325 0.0
H147 H 0.71306 0.52131 0.80495 0.0
H148 H 0.78763 0.42849 0.8677 0.0
H149 H 0.81536 0.45515 0.93743 0.0
H150 H 0.79099 0.54742 0.86974 0.0
C151 C 0.7621 0.48797 0.69558 0.0
C152 C 0.76949 0.45813 0.67315 0.0
C153 C 0.77015 0.43029 0.7045 0.0
C154 C 0.76776 0.43276 0.75843 0.0
C155 C 0.76403 0.4631 0.77993 0.0
C156 C 0.76002 0.49025 0.74938 0.0
C157 C 0.76311 0.52038 0.78067 0.0
C158 C 0.78787 0.54296 0.75664 0.0
C159 C 0.73081 0.53759 0.78749 0.0
C160 C 0.77397 0.506 0.83137 0.0
C161 C 0.77305 0.47296 0.83095 0.0
C162 C 0.78725 0.4543 0.86944 0.0
C163 C 0.80338 0.46964 0.90848 0.0
C164 C 0.80529 0.50332 0.9086 0.0
C165 C 0.78934 0.52166 0.87082 0.0
H166 H 0.4865 0.87278 0.15139 0.0
H167 H 0.46257 0.77364 0.17592 0.0
H168 H 0.48778 0.75982 0.0913 0.0
H169 H 0.46818 0.87444 0.01708 0.0
H170 H 0.49923 0.90156 -9e-05 0.0
H171 H 0.4815 0.90262 0.06376 0.0
H172 H 0.537 0.89445 0.10371 0.0
H173 H 0.55486 0.89295 0.03988 0.0
H174 H 0.56136 0.86042 0.085 0.0
H175 H 0.51731 0.75714 0.00493 0.0
H176 H 0.54022 0.7671 0.9172 0.0
H177 H 0.53958 0.86868 0.94745 0.0
C178 C 0.48675 0.84815 0.13896 0.0
C179 C 0.47305 0.82414 0.16993 0.0
C180 C 0.47307 0.79227 0.15234 0.0
C181 C 0.48752 0.78422 0.10473 0.0
C182 C 0.50121 0.80848 0.0752 0.0
C183 C 0.50028 0.83991 0.0912 0.0
C184 C 0.51423 0.86197 0.0507 0.0
C185 C 0.48929 0.88658 0.03174 0.0
C186 C 0.54361 0.87841 0.07106 0.0
C187 C 0.5231 0.8381 0.0092 0.0
C188 C 0.51616 0.80726 0.02443 0.0
C189 C 0.5227 0.78119 -0.00751 0.0
C190 C 0.53584 0.78698 0.94307 0.0
C191 C 0.54142 0.81859 0.92617 0.0
C192 C 0.53538 0.84432 0.9598 0.0
H193 H 0.17841 0.54492 0.3218 0.0
H194 H 0.19382 0.4423 0.31101 0.0
H195 H 0.20339 0.44782 0.21686 0.0
H196 H 0.1362 0.5553 0.20972 0.0
H197 H 0.15311 0.59285 0.19077 0.0
H198 H 0.15135 0.58138 0.25802 0.0
H199 H 0.21197 0.58806 0.26434 0.0
H200 H 0.21387 0.59964 0.19694 0.0
H201 H 0.23822 0.56679 0.22022 0.0
H202 H 0.20297 0.46336 0.12332 0.0
H203 H 0.1962 0.48853 0.03707 0.0
H204 H 0.18462 0.58131 0.1089 0.0
C205 C 0.18436 0.52367 0.29978 0.0
C206 C 0.18525 0.49318 0.32363 0.0
C207 C 0.19307 0.46593 0.29354 0.0
C208 C 0.19861 0.46882 0.24006 0.0
C209 C 0.19683 0.49916 0.21755 0.0
C210 C 0.19039 0.52619 0.24654 0.0
C211 C 0.18806 0.55578 0.21252 0.0
C212 C 0.15523 0.57227 0.21809 0.0
C213 C 0.21462 0.57893 0.22421 0.0
C214 C 0.19282 0.54097 0.15969 0.0
C215 C 0.19801 0.50831 0.16344 0.0
C216 C 0.19976 0.489 0.11982 0.0
C217 C 0.19575 0.50344 0.07111 0.0
C218 C 0.1904 0.53682 0.06658 0.0
C219 C 0.18958 0.55584 0.11134 0.0
H220 H 0.31571 0.23554 0.38127 0.0
H221 H 0.33757 0.27132 0.22659 0.0
H222 H 0.30447 0.31946 0.24386 0.0
H223 H 0.23278 0.26725 0.38703 0.0
H224 H 0.23503 0.27669 0.45478 0.0
H225 H 0.25806 0.24362 0.42873 0.0
H226 H 0.30906 0.26805 0.46367 0.0
H227 H 0.28629 0.3013 0.48943 0.0
H228 H 0.31893 0.30828 0.4452 0.0
H229 H 0.27515 0.36633 0.28109 0.0
H230 H 0.24719 0.40745 0.33342 0.0
H231 H 0.24099 0.34097 0.46289 0.0
C232 C 0.31303 0.25319 0.35063 0.0
C233 C 0.32929 0.24958 0.30247 0.0
C234 C 0.32529 0.27339 0.26363 0.0
C235 C 0.30656 0.30088 0.27312 0.0
C236 C 0.29156 0.30406 0.32138 0.0
C237 C 0.29411 0.28068 0.35927 0.0
C238 C 0.27643 0.29066 0.4085 0.0
C239 C 0.24894 0.26822 0.42045 0.0
C240 C 0.29903 0.29216 0.45439 0.0
C241 C 0.26433 0.32372 0.39285 0.0
C242 C 0.27343 0.33087 0.34238 0.0
C243 C 0.26735 0.36078 0.32024 0.0
C244 C 0.25162 0.38402 0.35036 0.0
C245 C 0.24172 0.37721 0.4019 0.0
C246 C 0.24779 0.34652 0.42324 0.0
H247 H 0.7417 0.33852 0.56477 0.0
H248 H 0.83267 0.29775 0.60903 0.0
H249 H 0.80574 0.25232 0.65118 0.0
H250 H 0.70214 0.32039 0.68203 0.0
H251 H 0.66492 0.31154 0.65308 0.0
H252 H 0.69128 0.339 0.62144 0.0
H253 H 0.69152 0.30507 0.53809 0.0
H254 H 0.66477 0.27772 0.56923 0.0
H255 H 0.70182 0.26309 0.54189 0.0
H256 H 0.76854 0.21236 0.69162 0.0
H257 H 0.72403 0.18099 0.7268 0.0
H258 H 0.65749 0.24974 0.6602 0.0
C259 C 0.75599 0.31961 0.58215 0.0
C260 C 0.78932 0.3214 0.583 0.0
C261 C 0.80713 0.29668 0.60755 0.0
C262 C 0.79204 0.27083 0.63166 0.0
C263 C 0.75909 0.27021 0.63133 0.0
C264 C 0.74127 0.29392 0.60712 0.0
C265 C 0.70617 0.28866 0.61503 0.0
C266 C 0.6902 0.31656 0.64466 0.0
C267 C 0.69013 0.28331 0.56296 0.0
C268 C 0.70701 0.2584 0.64769 0.0
C269 C 0.73773 0.24796 0.65632 0.0
C270 C 0.74439 0.22032 0.6851 0.0
C271 C 0.71896 0.20271 0.70505 0.0
C272 C 0.68729 0.213 0.69667 0.0
C273 C 0.68141 0.24139 0.66788 0.0
H274 H 0.73529 0.62887 0.90644 0.0
H275 H 0.80547 0.68313 -0.01387 0.0
H276 H 0.78029 0.73334 0.95437 0.0
H277 H 0.73045 0.68006 0.79325 0.0
H278 H 0.68844 0.67545 0.78655 0.0
H279 H 0.71209 0.64382 0.81523 0.0
H280 H 0.6759 0.64489 0.8973 0.0
H281 H 0.65204 0.67637 0.86879 0.0
H282 H 0.66932 0.68193 0.93125 0.0
H283 H 0.74639 0.77766 0.91601 0.0
H284 H 0.70626 0.81277 0.87466 0.0
H285 H 0.65902 0.72953 0.81796 0.0
C286 C 0.74539 0.65129 0.91737 0.0
C287 C 0.77235 0.65202 0.949 0.0
C288 C 0.78485 0.68192 0.96203 0.0
C289 C 0.77073 0.71057 0.94408 0.0
C290 C 0.74426 0.70894 0.91283 0.0
C291 C 0.73174 0.68006 0.89953 0.0
C292 C 0.70299 0.68486 0.86578 0.0
C293 C 0.70886 0.67018 0.81202 0.0
C294 C 0.67331 0.67121 0.89239 0.0
C295 C 0.70105 0.721 0.8626 0.0
C296 C 0.72511 0.73443 0.88995 0.0
C297 C 0.72759 0.7674 0.8942 0.0
C298 C 0.70466 0.78716 0.87055 0.0
C299 C 0.67959 0.77396 0.84274 0.0
C300 C 0.67812 0.7404 0.83826 0.0
H301 H 0.2755 0.67027 0.0568 0.0
H302 H 0.18837 0.70306 0.13277 0.0
H303 H 0.21921 0.73491 0.19294 0.0
H304 H 0.32115 0.66248 0.17296 0.0
H305 H 0.35721 0.67586 0.14237 0.0
H306 H 0.32825 0.65598 0.10479 0.0
H307 H 0.3259 0.70416 0.04104 0.0
H308 H 0.35492 0.72414 0.07834 0.0
H309 H 0.31732 0.74361 0.06568 0.0
H310 H 0.25975 0.76443 0.24375 0.0
H311 H 0.30691 0.78781 0.28256 0.0
H312 H 0.36736 0.73406 0.17542 0.0
C313 C 0.26288 0.68422 0.08597 0.0
C314 C 0.22947 0.68425 0.08987 0.0
C315 C 0.21393 0.70263 0.12895 0.0
C316 C 0.23125 0.72084 0.16334 0.0
C317 C 0.26414 0.72025 0.15849 0.0
C318 C 0.27981 0.70229 0.12095 0.0
C319 C 0.31533 0.70544 0.12441 0.0
C320 C 0.33143 0.67301 0.13689 0.0
C321 C 0.32917 0.72022 0.0744 0.0
C322 C 0.31718 0.72813 0.16951 0.0
C323 C 0.28742 0.73652 0.18855 0.0
C324 C 0.28319 0.75787 0.22935 0.0
C325 C 0.31011 0.77104 0.25114 0.0
C326 C 0.34085 0.76263 0.23234 0.0
C327 C 0.34424 0.74075 0.19113 0.0
H328 H 0.42355 0.94663 0.38933 0.0
H329 H 0.35295 0.91909 0.2799 0.0
H330 H 0.33712 0.97599 0.26784 0.0
H331 H 0.37997 0.02041 0.44211 0.0
H332 H 0.41679 0.04104 0.44562 0.0
H333 H 0.41606 0.99842 0.45607 0.0
H334 H 0.45891 0.99068 0.38391 0.0
H335 H 0.45959 0.03298 0.37294 0.0
H336 H 0.45172 0.00676 0.32003 0.0
H337 H 0.33709 0.0365 0.25448 0.0
H338 H 0.35357 0.09249 0.24059 0.0
H339 H 0.42525 0.07901 0.35691 0.0
C340 C 0.40387 0.95241 0.36436 0.0
C341 C 0.3894 0.92843 0.33572 0.0
C342 C 0.36408 0.93702 0.30283 0.0
C343 C 0.35498 0.96934 0.2957 0.0
C344 C 0.37112 0.99263 0.32237 0.0
C345 C 0.39476 0.98435 0.35671 0.0
C346 C 0.41184 0.01336 0.37496 0.0
C347 C 0.40579 0.01862 0.43315 0.0
C348 C 0.44759 0.01077 0.36214 0.0
C349 C 0.39562 0.03914 0.34305 0.0
C350 C 0.37153 0.0271 0.31403 0.0
C351 C 0.35539 0.04625 0.27797 0.0
C352 C 0.36481 0.07804 0.27037 0.0
C353 C 0.39056 0.08996 0.29789 0.0
C354 C 0.40528 0.07052 0.33576 0.0
H355 H 0.92275 0.4757 0.5515 0.0
H356 H 0.90753 0.37779 0.50664 0.0
H357 H 0.96569 0.36871 0.49877 0.0
H358 H 0.98468 0.49075 0.46468 0.0
H359 H 0.00586 0.51533 0.5085 0.0
H360 H 0.96358 0.51262 0.51478 0.0
H361 H 0.96914 0.49441 0.61057 0.0
H362 H 0.01152 0.49709 0.60459 0.0
H363 H 0.99411 0.46024 0.62594 0.0
H364 H 0.02672 0.37239 0.49036 0.0
H365 H 0.0827 0.38867 0.48118 0.0
H366 H 0.05526 0.48395 0.53198 0.0
C367 C 0.93147 0.45216 0.54052 0.0
C368 C 0.91051 0.42747 0.5296 0.0
C369 C 0.92313 0.39707 0.51535 0.0
C370 C 0.95613 0.39171 0.51083 0.0
C371 C 0.97609 0.41689 0.52117 0.0
C372 C 0.96403 0.44645 0.53601 0.0
C373 C 0.98988 0.47022 0.54273 0.0
C374 C 0.98574 0.4989 0.50544 0.0
C375 C 0.99124 0.48112 0.59932 0.0
C376 C 0.0185 0.44981 0.52812 0.0
C377 C 0.01039 0.41899 0.5163 0.0
C378 C 0.03325 0.39641 0.49999 0.0
C379 C 0.06499 0.40582 0.49497 0.0
C380 C 0.07339 0.4376 0.50573 0.0
C381 C 0.04974 0.45948 0.5233 0.0
H382 H 0.57767 0.92402 0.66644 0.0
H383 H 0.64736 0.90983 0.78571 0.0
H384 H 0.66184 0.96675 0.77707 0.0
H385 H 0.62035 0.98898 0.58919 0.0
H386 H 0.583 0.00904 0.57685 0.0
H387 H 0.58516 0.96607 0.58206 0.0
H388 H 0.54134 0.96803 0.65354 0.0
H389 H 0.53933 0.01075 0.64922 0.0
H390 H 0.54708 0.9915 0.71061 0.0
H391 H 0.65994 0.02768 0.76816 0.0
H392 H 0.64195 0.08437 0.76026 0.0
H393 H 0.57223 0.05731 0.64912 0.0
C394 C 0.59698 0.93257 0.68911 0.0
C395 C 0.61158 0.91263 0.72642 0.0
C396 C 0.63632 0.92464 0.75618 0.0
C397 C 0.64457 0.95698 0.7516 0.0
C398 C 0.62819 0.97663 0.71648 0.0
C399 C 0.60526 0.96454 0.68507 0.0
C400 C 0.58763 0.99077 0.65611 0.0
C401 C 0.59446 0.98858 0.59758 0.0
C402 C 0.55176 0.99022 0.66816 0.0
C403 C 0.60258 0.01975 0.67865 0.0
C404 C 0.6266 0.01137 0.71223 0.0
C405 C 0.64168 0.03444 0.74104 0.0
C406 C 0.63136 0.06658 0.73635 0.0
C407 C 0.60573 0.07507 0.70408 0.0
C408 C 0.592 0.05144 0.67386 0.0
H409 H 0.96649 0.54774 0.95913 0.0
H410 H 0.92663 0.64026 0.00262 0.0
H411 H 0.97939 0.66412 -0.01088 0.0
H412 H 0.03871 0.55391 0.02138 0.0
H413 H 0.06162 0.53357 -0.02833 0.0
H414 H 0.02047 0.52481 -0.01866 0.0
H415 H 0.00985 0.53851 0.88495 0.0
H416 H 0.05105 0.54724 0.87493 0.0
H417 H 0.02101 0.57684 0.85903 0.0
H418 H 0.03844 0.67627 -0.02221 0.0
H419 H 0.09684 0.67591 0.96641 0.0
H420 H 0.09575 0.57541 0.92774 0.0
C421 C 0.96867 0.57311 0.96544 0.0
C422 C 0.94248 0.59214 -0.01783 0.0
C423 C 0.94638 0.62526 -0.01036 0.0
C424 C 0.97625 0.63897 -0.01788 0.0
C425 C 1.00172 0.61928 0.96641 0.0
C426 C 0.998 0.5871 0.95763 0.0
C427 C 0.02894 0.57068 0.94231 0.0
C428 C 0.03796 0.54419 -0.01848 0.0
C429 C 0.02762 0.55755 0.88701 0.0
C430 C 0.05098 0.59842 0.94493 0.0
C431 C 0.03501 0.62633 0.95877 0.0
C432 C 0.05104 0.65462 0.96626 0.0
C433 C 0.08419 0.65419 0.95978 0.0
C434 C 0.10084 0.62569 0.94585 0.0
C435 C 0.08379 0.59769 0.93779 0.0
H436 H 0.5625 0.17236 0.903 0.0
H437 H 0.49005 0.2238 0.81757 0.0
H438 H 0.45979 0.23375 0.8989 0.0
H439 H 0.51179 0.13096 -0.02065 0.0
H440 H 0.53453 0.13101 0.03771 0.0
H441 H 0.55422 0.13437 -0.0243 0.0
H442 H 0.57956 0.18719 0.0031 0.0
H443 H 0.56049 0.18366 0.06584 0.0
H444 H 0.55465 0.21942 0.02742 0.0
H445 H 0.43381 0.23114 -0.01251 0.0
H446 H 0.41532 0.2173 0.07649 0.0
H447 H 0.50385 0.1652 0.10169 0.0
C448 C 0.5411 0.1871 0.90209 0.0
C449 C 0.52891 0.19822 0.85477 0.0
C450 C 0.49998 0.2159 0.85405 0.0
C451 C 0.48263 0.22155 0.89992 0.0
C452 C 0.49451 0.20909 0.94602 0.0
C453 C 0.52327 0.19248 0.94752 0.0
C454 C 0.52883 0.17809 0.00058 0.0
C455 C 0.53254 0.14145 -0.00186 0.0
C456 C 0.55758 0.19299 0.02573 0.0
C457 C 0.49831 0.18814 0.02794 0.0
C458 C 0.47899 0.20646 -0.00366 0.0
C459 C 0.44895 0.21717 0.01288 0.0
C460 C 0.43854 0.20907 0.06328 0.0
C461 C 0.45798 0.19002 0.09592 0.0
C462 C 0.48825 0.17967 0.07773 0.0
H463 H 0.83737 0.48716 0.16149 0.0
H464 H 0.7914 0.58091 0.16688 0.0
H465 H 0.76357 0.56516 0.24828 0.0
H466 H 0.77006 0.44173 0.21676 0.0
H467 H 0.79636 0.415 0.25148 0.0
H468 H 0.8089 0.43222 0.19041 0.0
H469 H 0.85842 0.45509 0.23346 0.0
H470 H 0.84636 0.43737 0.29396 0.0
H471 H 0.85329 0.47964 0.29008 0.0
H472 H 0.74768 0.54191 0.33445 0.0
H473 H 0.74867 0.51548 0.42027 0.0
H474 H 0.80257 0.43585 0.35546 0.0
C475 C 0.82126 0.50445 0.17937 0.0
C476 C 0.81675 0.53542 0.15814 0.0
C477 C 0.79529 0.55711 0.18267 0.0
C478 C 0.77917 0.54822 0.22851 0.0
C479 C 0.78428 0.51738 0.24833 0.0
C480 C 0.8048 0.49585 0.22432 0.0
C481 C 0.80877 0.46532 0.25549 0.0
C482 C 0.7952 0.43689 0.22681 0.0
C483 C 0.84376 0.45903 0.26907 0.0
C484 C 0.7888 0.47366 0.30273 0.0
C485 C 0.77421 0.5035 0.29735 0.0
C486 C 0.75818 0.51821 0.33857 0.0
C487 C 0.75872 0.50297 0.38708 0.0
C488 C 0.77514 0.4734 0.39379 0.0
C489 C 0.78879 0.45779 0.35063 0.0
H490 H 0.4801 0.7919 0.67653 0.0
H491 H 0.57402 0.7558 0.63481 0.0
H492 H 0.55405 0.73852 0.55064 0.0
H493 H 0.43278 0.73287 0.59514 0.0
H494 H 0.40492 0.76456 0.57915 0.0
H495 H 0.42332 0.76362 0.64164 0.0
H496 H 0.44299 0.82105 0.62568 0.0
H497 H 0.42491 0.82211 0.56357 0.0
H498 H 0.4666 0.82946 0.56847 0.0
H499 H 0.52909 0.73982 0.46533 0.0
H500 H 0.50227 0.76038 0.38745 0.0
H501 H 0.42398 0.79577 0.48222 0.0
C502 C 0.49621 0.77911 0.6506 0.0
C503 C 0.52865 0.77522 0.66221 0.0
C504 C 0.54904 0.75881 0.62699 0.0
C505 C 0.53781 0.74881 0.57909 0.0
C506 C 0.50607 0.75501 0.56738 0.0
C507 C 0.4854 0.7694 0.60261 0.0
C508 C 0.45431 0.779 0.5778 0.0
C509 C 0.42723 0.7588 0.59974 0.0
C510 C 0.44683 0.81501 0.58423 0.0
C511 C 0.46174 0.77061 0.52196 0.0
C512 C 0.49127 0.75564 0.5171 0.0
C513 C 0.50553 0.75036 0.46877 0.0
C514 C 0.49013 0.76208 0.42469 0.0
C515 C 0.46078 0.77881 0.42917 0.0
C516 C 0.44572 0.78176 0.47799 0.0
H517 H 0.18385 0.53832 0.84136 0.0
H518 H 0.25113 0.61238 0.80621 0.0
H519 H 0.26464 0.58612 0.72292 0.0
H520 H 0.229 0.47111 0.77741 0.0
H521 H 0.19311 0.45394 0.75494 0.0
H522 H 0.19282 0.47555 0.81498 0.0
H523 H 0.14766 0.51288 0.78151 0.0
H524 H 0.14764 0.49125 0.72187 0.0
H525 H 0.15298 0.53383 0.72074 0.0
H526 H 0.26356 0.55733 0.63809 0.0
H527 H 0.2474 0.52932 0.5593 0.0
H528 H 0.18285 0.47255 0.65126 0.0
C529 C 0.20194 0.54871 0.81674 0.0
C530 C 0.21646 0.57742 0.83024 0.0
C531 C 0.23983 0.59032 0.79672 0.0
C532 C 0.24773 0.57546 0.74948 0.0
C533 C 0.23244 0.54746 0.73687 0.0
C534 C 0.2102 0.5341 0.76986 0.0
C535 C 0.19475 0.50585 0.74544 0.0
C536 C 0.20292 0.47477 0.77496 0.0
C537 C 0.15864 0.51131 0.74218 0.0
C538 C 0.21056 0.50629 0.69238 0.0
C539 C 0.23265 0.53014 0.68843 0.0
C540 C 0.24719 0.53791 0.64119 0.0
C541 C 0.23805 0.52179 0.5967 0.0
C542 C 0.21491 0.498 0.59992 0.0
C543 C 0.2018 0.48948 0.6485 0.0
loop_
_geom_bond_atom_site_label_1
_geom_bond_atom_site_label_2
_geom_bond_distance
_geom_bond_site_symmetry_2
_ccdc_geom_bond_type
Zn0 O3 2.031 . S
Zn0 O5 2.049 . S
Zn0 O10 2.067 . S
Zn1 O2 1.962 . S
Zn1 O4 1.986 . S
Zn1 O6 1.996 . S
Zn1 O9 1.943 . S
O2 Zn1 1.962 . S
O2 C7 1.254 . S
O3 Zn0 2.031 . S
O3 C7 1.269 . S
O4 Zn1 1.986 . S
O4 C11 1.262 . S
O5 Zn0 2.049 . S
O5 C13 1.260 . S
O6 Zn1 1.996 . S
O6 C13 1.257 . S
C7 O2 1.254 . S
C7 O3 1.269 . S
C8 O9 1.249 . S
C8 O10 1.270 . S
O9 Zn1 1.943 . S
O9 C8 1.249 . S
O10 Zn0 2.067 . S
O10 C8 1.270 . S
C11 O4 1.262 . S
C11 O12 1.232 . S
O12 C11 1.232 . S
C13 O5 1.260 . S
C13 O6 1.257 . S
Zn14 O17 2.031 . S
Zn14 O19 2.049 . S
Zn14 O24 2.067 . S
Zn15 O16 1.962 . S
Zn15 O18 1.986 . S
Zn15 O20 1.996 . S
Zn15 O23 1.943 . S
O16 Zn15 1.962 . S
O16 C21 1.254 . S
O17 Zn14 2.031 . S
O17 C21 1.269 . S
O18 Zn15 1.986 . S
O18 C25 1.262 . S
O19 Zn14 2.049 . S
O19 C27 1.260 . S
O20 Zn15 1.996 . S
O20 C27 1.257 . S
C21 O16 1.254 . S
C21 O17 1.269 . S
C22 O23 1.249 . S
C22 O24 1.270 . S
O23 Zn15 1.943 . S
O23 C22 1.249 . S
O24 Zn14 2.067 . S
O24 C22 1.270 . S
C25 O18 1.262 . S
C25 O26 1.232 . S
O26 C25 1.232 . S
C27 O19 1.260 . S
C27 O20 1.257 . S
Zn28 O31 2.031 . S
Zn28 O33 2.049 . S
Zn28 O38 2.067 . S
Zn29 O30 1.962 . S
Zn29 O32 1.986 . S
Zn29 O34 1.996 . S
Zn29 O37 1.943 . S
O30 Zn29 1.962 . S
O30 C35 1.254 . S
O31 Zn28 2.031 . S
O31 C35 1.269 . S
O32 Zn29 1.986 . S
O32 C39 1.262 . S
O33 Zn28 2.049 . S
O33 C41 1.260 . S
O34 Zn29 1.996 . S
O34 C41 1.257 . S
C35 O30 1.254 . S
C35 O31 1.269 . S
C36 O37 1.249 . S
C36 O38 1.270 . S
O37 Zn29 1.943 . S
O37 C36 1.249 . S
O38 Zn28 2.067 . S
O38 C36 1.270 . S
C39 O32 1.262 . S
C39 O40 1.232 . S
O40 C39 1.232 . S
C41 O33 1.260 . S
C41 O34 1.257 . S
Zn42 O45 2.031 1_554 S
Zn42 O47 2.049 . S
Zn42 O52 2.067 . S
Zn43 O44 1.962 1_554 S
Zn43 O46 1.986 . S
Zn43 O48 1.996 . S
Zn43 O51 1.943 . S
O44 Zn43 1.962 1_556 S
O44 C49 1.254 . S
O45 Zn42 2.031 1_556 S
O45 C49 1.269 . S
O46 Zn43 1.986 . S
O46 C53 1.262 . S
O47 Zn42 2.049 . S
O47 C55 1.260 . S
O48 Zn43 1.996 . S
O48 C55 1.257 . S
C49 O44 1.254 . S
C49 O45 1.269 . S
C50 O51 1.249 . S
C50 O52 1.270 . S
O51 Zn43 1.943 . S
O51 C50 1.249 . S
O52 Zn42 2.067 . S
O52 C50 1.270 . S
C53 O46 1.262 . S
C53 O54 1.232 . S
O54 C53 1.232 . S
C55 O47 1.260 . S
C55 O48 1.257 . S
Zn56 O59 2.031 . S
Zn56 O61 2.049 . S
Zn56 O66 2.067 . S
Zn57 O58 1.962 . S
Zn57 O60 1.986 . S
Zn57 O62 1.996 . S
Zn57 O65 1.943 . S
O58 Zn57 1.962 . S
O58 C63 1.254 . S
O59 Zn56 2.031 . S
O59 C63 1.269 . S
O60 Zn57 1.986 . S
O60 C67 1.262 . S
O61 Zn56 2.049 . S
O61 C69 1.260 . S
O62 Zn57 1.996 . S
O62 C69 1.257 . S
C63 O58 1.254 . S
C63 O59 1.269 . S
C64 O65 1.249 . S
C64 O66 1.270 . S
O65 Zn57 1.943 . S
O65 C64 1.249 . S
O66 Zn56 2.067 . S
O66 C64 1.270 . S
C67 O60 1.262 . S
C67 O68 1.232 . S
O68 C67 1.232 . S
C69 O61 1.260 . S
C69 O62 1.257 . S
Zn70 O73 2.031 . S
Zn70 O75 2.049 . S
Zn70 O80 2.067 . S
Zn71 O72 1.962 . S
Zn71 O74 1.986 . S
Zn71 O76 1.996 . S
Zn71 O79 1.943 . S
O72 Zn71 1.962 . S
O72 C77 1.254 . S
O73 Zn70 2.031 . S
O73 C77 1.269 . S
O74 Zn71 1.986 . S
O74 C81 1.262 . S
O75 Zn70 2.049 . S
O75 C83 1.260 . S
O76 Zn71 1.996 . S
O76 C83 1.257 . S
C77 O72 1.254 . S
C77 O73 1.269 . S
C78 O79 1.249 . S
C78 O80 1.270 . S
O79 Zn71 1.943 . S
O79 C78 1.249 . S
O80 Zn70 2.067 . S
O80 C78 1.270 . S
C81 O74 1.262 . S
C81 O82 1.232 . S
O82 C81 1.232 . S
C83 O75 1.260 . S
C83 O76 1.257 . S
Zn84 O87 2.031 . S
Zn84 O89 2.049 . S
Zn84 O94 2.067 . S
Zn85 O86 1.962 . S
Zn85 O88 1.986 . S
Zn85 O90 1.996 . S
Zn85 O93 1.943 . S
O86 Zn85 1.962 . S
O86 C91 1.254 . S
O87 Zn84 2.031 . S
O87 C91 1.269 . S
O88 Zn85 1.986 . S
O88 C95 1.262 . S
O89 Zn84 2.049 . S
O89 C97 1.260 . S
O90 Zn85 1.996 . S
O90 C97 1.257 . S
C91 O86 1.254 . S
C91 O87 1.269 . S
C92 O93 1.249 . S
C92 O94 1.270 . S
O93 Zn85 1.943 . S
O93 C92 1.249 . S
O94 Zn84 2.067 . S
O94 C92 1.270 . S
C95 O88 1.262 . S
C95 O96 1.232 . S
O96 C95 1.232 . S
C97 O89 1.260 . S
C97 O90 1.257 . S
Zn98 O101 2.031 . S
Zn98 O103 2.049 1_554 S
Zn98 O108 2.067 . S
Zn99 O100 1.962 . S
Zn99 O102 1.986 1_554 S
Zn99 O104 1.996 1_554 S
Zn99 O107 1.943 . S
O100 Zn99 1.962 . S
O100 C105 1.254 . S
O101 Zn98 2.031 . S
O101 C105 1.269 . S
O102 Zn99 1.986 1_556 S
O102 C109 1.262 1_556 S
O103 Zn98 2.049 1_556 S
O103 C111 1.260 . S
O104 Zn99 1.996 1_556 S
O104 C111 1.257 . S
C105 O100 1.254 . S
C105 O101 1.269 . S
C106 O107 1.249 . S
C106 O108 1.270 . S
O107 Zn99 1.943 . S
O107 C106 1.249 . S
O108 Zn98 2.067 . S
O108 C106 1.270 . S
C109 O102 1.262 1_554 S
C109 O110 1.232 . S
O110 C109 1.232 . S
C111 O103 1.260 . S
C111 O104 1.257 . S
H112 C124 0.930 . S
H113 C126 0.930 . S
H114 C127 0.930 . S
H115 C131 0.959 . S
H116 C131 0.959 . S
H117 C131 0.961 . S
H118 C132 0.960 . S
H119 C132 0.961 . S
H120 C132 0.959 . S
H121 C135 0.929 . S
H122 C136 0.931 . S
H123 C138 0.930 . S
C124 H112 0.930 . S
C124 C125 1.399 . S
C124 C129 1.399 . S
C125 C124 1.399 . S
C125 C126 1.376 . S
C126 H113 0.930 . S
C126 C125 1.376 . S
C126 C127 1.388 . S
C127 H114 0.930 . S
C127 C126 1.388 . S
C127 C128 1.390 . S
C128 C127 1.390 . S
C128 C129 1.394 . S
C128 C134 1.465 . S
C129 C124 1.399 . S
C129 C128 1.394 . S
C129 C130 1.516 . S
C130 C129 1.516 . S
C130 C131 1.502 . S
C130 C132 1.561 . S
C130 C133 1.526 . S
C131 H115 0.959 . S
C131 H116 0.959 . S
C131 H117 0.961 . S
C131 C130 1.502 . S
C132 H118 0.960 . S
C132 H119 0.961 . S
C132 H120 0.959 . S
C132 C130 1.561 . S
C133 C130 1.526 . S
C133 C134 1.396 . S
C133 C138 1.390 . S
C134 C128 1.465 . S
C134 C133 1.396 . S
C134 C135 1.399 . S
C135 H121 0.929 . S
C135 C134 1.399 . S
C135 C136 1.385 . S
C136 H122 0.931 . S
C136 C135 1.385 . S
C136 C137 1.389 . S
C137 C136 1.389 . S
C137 C138 1.387 . S
C138 H123 0.930 . S
C138 C133 1.390 . S
C138 C137 1.387 . S
H139 C151 0.930 . S
H140 C153 0.930 . S
H141 C154 0.930 . S
H142 C158 0.959 . S
H143 C158 0.959 . S
H144 C158 0.961 . S
H145 C159 0.960 . S
H146 C159 0.961 . S
H147 C159 0.959 . S
H148 C162 0.929 . S
H149 C163 0.931 . S
H150 C165 0.930 . S
C151 H139 0.930 . S
C151 C152 1.399 . S
C151 C156 1.399 . S
C152 C151 1.399 . S
C152 C153 1.376 . S
C153 H140 0.930 . S
C153 C152 1.376 . S
C153 C154 1.388 . S
C154 H141 0.930 . S
C154 C153 1.388 . S
C154 C155 1.390 . S
C155 C154 1.390 . S
C155 C156 1.394 . S
C155 C161 1.465 . S
C156 C151 1.399 . S
C156 C155 1.394 . S
C156 C157 1.516 . S
C157 C156 1.516 . S
C157 C158 1.502 . S
C157 C159 1.561 . S
C157 C160 1.526 . S
C158 H142 0.959 . S
C158 H143 0.959 . S
C158 H144 0.961 . S
C158 C157 1.502 . S
C159 H145 0.960 . S
C159 H146 0.961 . S
C159 H147 0.959 . S
C159 C157 1.561 . S
C160 C157 1.526 . S
C160 C161 1.396 . S
C160 C165 1.390 . S
C161 C155 1.465 . S
C161 C160 1.396 . S
C161 C162 1.399 . S
C162 H148 0.929 . S
C162 C161 1.399 . S
C162 C163 1.385 . S
C163 H149 0.931 . S
C163 C162 1.385 . S
C163 C164 1.389 . S
C164 C163 1.389 . S
C164 C165 1.387 . S
C165 H150 0.930 . S
C165 C160 1.390 . S
C165 C164 1.387 . S
H166 C178 0.930 . S
H167 C180 0.930 . S
H168 C181 0.930 . S
H169 C185 0.959 . S
H170 C185 0.959 . S
H171 C185 0.961 . S
H172 C186 0.960 . S
H173 C186 0.961 . S
H174 C186 0.959 . S
H175 C189 0.929 . S
H176 C190 0.931 . S
H177 C192 0.930 . S
C178 H166 0.930 . S
C178 C179 1.399 . S
C178 C183 1.399 . S
C179 C178 1.399 . S
C179 C180 1.376 . S
C180 H167 0.930 . S
C180 C179 1.376 . S
C180 C181 1.388 . S
C181 H168 0.930 . S
C181 C180 1.388 . S
C181 C182 1.390 . S
C182 C181 1.390 . S
C182 C183 1.394 . S
C182 C188 1.465 1_554 S
C183 C178 1.399 . S
C183 C182 1.394 . S
C183 C184 1.516 . S
C184 C183 1.516 . S
C184 C185 1.502 . S
C184 C186 1.561 . S
C184 C187 1.526 . S
C185 H169 0.959 . S
C185 H170 0.959 . S
C185 H171 0.961 . S
C185 C184 1.502 . S
C186 H172 0.960 . S
C186 H173 0.961 . S
C186 H174 0.959 . S
C186 C184 1.561 . S
C187 C184 1.526 . S
C187 C188 1.396 1_554 S
C187 C192 1.390 1_554 S
C188 C182 1.465 1_556 S
C188 C187 1.396 1_556 S
C188 C189 1.399 . S
C189 H175 0.929 . S
C189 C188 1.399 . S
C189 C190 1.385 . S
C190 H176 0.931 . S
C190 C189 1.385 . S
C190 C191 1.389 . S
C191 C190 1.389 . S
C191 C192 1.387 . S
C192 H177 0.930 . S
C192 C187 1.390 1_556 S
C192 C191 1.387 . S
H193 C205 0.930 . S
H194 C207 0.930 . S
H195 C208 0.930 . S
H196 C212 0.959 . S
H197 C212 0.959 . S
H198 C212 0.961 . S
H199 C213 0.960 . S
H200 C213 0.961 . S
H201 C213 0.959 . S
H202 C216 0.929 . S
H203 C217 0.931 . S
H204 C219 0.930 . S
C205 H193 0.930 . S
C205 C206 1.399 . S
C205 C210 1.399 . S
C206 C205 1.399 . S
C206 C207 1.376 . S
C207 H194 0.930 . S
C207 C206 1.376 . S
C207 C208 1.388 . S
C208 H195 0.930 . S
C208 C207 1.388 . S
C208 C209 1.390 . S
C209 C208 1.390 . S
C209 C210 1.394 . S
C209 C215 1.465 . S
C210 C205 1.399 . S
C210 C209 1.394 . S
C210 C211 1.516 . S
C211 C210 1.516 . S
C211 C212 1.502 . S
C211 C213 1.561 . S
C211 C214 1.526 . S
C212 H196 0.959 . S
C212 H197 0.959 . S
C212 H198 0.961 . S
C212 C211 1.502 . S
C213 H199 0.960 . S
C213 H200 0.961 . S
C213 H201 0.959 . S
C213 C211 1.561 . S
C214 C211 1.526 . S
C214 C215 1.396 . S
C214 C219 1.390 . S
C215 C209 1.465 . S
C215 C214 1.396 . S
C215 C216 1.399 . S
C216 H202 0.929 . S
C216 C215 1.399 . S
C216 C217 1.385 . S
C217 H203 0.931 . S
C217 C216 1.385 . S
C217 C218 1.389 . S
C218 C217 1.389 . S
C218 C219 1.387 . S
C219 H204 0.930 . S
C219 C214 1.390 . S
C219 C218 1.387 . S
H220 C232 0.930 . S
H221 C234 0.930 . S
H222 C235 0.930 . S
H223 C239 0.959 . S
H224 C239 0.959 . S
H225 C239 0.961 . S
H226 C240 0.960 . S
H227 C240 0.961 . S
H228 C240 0.959 . S
H229 C243 0.929 . S
H230 C244 0.931 . S
H231 C246 0.930 . S
C232 H220 0.930 . S
C232 C233 1.399 . S
C232 C237 1.399 . S
C233 C232 1.399 . S
C233 C234 1.376 . S
C234 H221 0.930 . S
C234 C233 1.376 . S
C234 C235 1.388 . S
C235 H222 0.930 . S
C235 C234 1.388 . S
C235 C236 1.390 . S
C236 C235 1.390 . S
C236 C237 1.394 . S
C236 C242 1.465 . S
C237 C232 1.399 . S
C237 C236 1.394 . S
C237 C238 1.516 . S
C238 C237 1.516 . S
C238 C239 1.502 . S
C238 C240 1.561 . S
C238 C241 1.526 . S
C239 H223 0.959 . S
C239 H224 0.959 . S
C239 H225 0.961 . S
C239 C238 1.502 . S
C240 H226 0.960 . S
C240 H227 0.961 . S
C240 H228 0.959 . S
C240 C238 1.561 . S
C241 C238 1.526 . S
C241 C242 1.396 . S
C241 C246 1.390 . S
C242 C236 1.465 . S
C242 C241 1.396 . S
C242 C243 1.399 . S
C243 H229 0.929 . S
C243 C242 1.399 . S
C243 C244 1.385 . S
C244 H230 0.931 . S
C244 C243 1.385 . S
C244 C245 1.389 . S
C245 C244 1.389 . S
C245 C246 1.387 . S
C246 H231 0.930 . S
C246 C241 1.390 . S
C246 C245 1.387 . S
H247 C259 0.930 . S
H248 C261 0.930 . S
H249 C262 0.930 . S
H250 C266 0.959 . S
H251 C266 0.959 . S
H252 C266 0.961 . S
H253 C267 0.960 . S
H254 C267 0.961 . S
H255 C267 0.959 . S
H256 C270 0.929 . S
H257 C271 0.931 . S
H258 C273 0.930 . S
C259 H247 0.930 . S
C259 C260 1.399 . S
C259 C264 1.399 . S
C260 C259 1.399 . S
C260 C261 1.376 . S
C261 H248 0.930 . S
C261 C260 1.376 . S
C261 C262 1.388 . S
C262 H249 0.930 . S
C262 C261 1.388 . S
C262 C263 1.390 . S
C263 C262 1.390 . S
C263 C264 1.394 . S
C263 C269 1.465 . S
C264 C259 1.399 . S
C264 C263 1.394 . S
C264 C265 1.516 . S
C265 C264 1.516 . S
C265 C266 1.502 . S
C265 C267 1.561 . S
C265 C268 1.526 . S
C266 H250 0.959 . S
C266 H251 0.959 . S
C266 H252 0.961 . S
C266 C265 1.502 . S
C267 H253 0.960 . S
C267 H254 0.961 . S
C267 H255 0.959 . S
C267 C265 1.561 . S
C268 C265 1.526 . S
C268 C269 1.396 . S
C268 C273 1.390 . S
C269 C263 1.465 . S
C269 C268 1.396 . S
C269 C270 1.399 . S
C270 H256 0.929 . S
C270 C269 1.399 . S
C270 C271 1.385 . S
C271 H257 0.931 . S
C271 C270 1.385 . S
C271 C272 1.389 . S
C272 C271 1.389 . S
C272 C273 1.387 . S
C273 H258 0.930 . S
C273 C268 1.390 . S
C273 C272 1.387 . S
H274 C286 0.930 1_554 S
H275 C288 0.930 . S
H276 C289 0.930 . S
H277 C293 0.959 . S
H278 C293 0.959 . S
H279 C293 0.961 1_554 S
H280 C294 0.960 1_554 S
H281 C294 0.961 1_554 S
H282 C294 0.959 . S
H283 C297 0.929 . S
H284 C298 0.931 . S
H285 C300 0.930 . S
C286 H274 0.930 1_556 S
C286 C287 1.399 . S
C286 C291 1.399 . S
C287 C286 1.399 . S
C287 C288 1.376 . S
C288 H275 0.930 . S
C288 C287 1.376 . S
C288 C289 1.388 . S
C289 H276 0.930 . S
C289 C288 1.388 . S
C289 C290 1.390 . S
C290 C289 1.390 . S
C290 C291 1.394 . S
C290 C296 1.465 . S
C291 C286 1.399 . S
C291 C290 1.394 . S
C291 C292 1.516 . S
C292 C291 1.516 . S
C292 C293 1.502 . S
C292 C294 1.561 . S
C292 C295 1.526 . S
C293 H277 0.959 . S
C293 H278 0.959 . S
C293 H279 0.961 1_556 S
C293 C292 1.502 . S
C294 H280 0.960 1_556 S
C294 H281 0.961 1_556 S
C294 H282 0.959 . S
C294 C292 1.561 . S
C295 C292 1.526 . S
C295 C296 1.396 . S
C295 C300 1.390 . S
C296 C290 1.465 . S
C296 C295 1.396 . S
C296 C297 1.399 . S
C297 H283 0.929 . S
C297 C296 1.399 . S
C297 C298 1.385 . S
C298 H284 0.931 . S
C298 C297 1.385 . S
C298 C299 1.389 . S
C299 C298 1.389 . S
C299 C300 1.387 . S
C300 H285 0.930 . S
C300 C295 1.390 . S
C300 C299 1.387 . S
H301 C313 0.930 . S
H302 C315 0.930 . S
H303 C316 0.930 . S
H304 C320 0.959 . S
H305 C320 0.959 . S
H306 C320 0.961 . S
H307 C321 0.960 . S
H308 C321 0.961 . S
H309 C321 0.959 . S
H310 C324 0.929 . S
H311 C325 0.931 . S
H312 C327 0.930 . S
C313 H301 0.930 . S
C313 C314 1.399 . S
C313 C318 1.399 . S
C314 C313 1.399 . S
C314 C315 1.376 . S
C315 H302 0.930 . S
C315 C314 1.376 . S
C315 C316 1.388 . S
C316 H303 0.930 . S
C316 C315 1.388 . S
C316 C317 1.390 . S
C317 C316 1.390 . S
C317 C318 1.394 . S
C317 C323 1.465 . S
C318 C313 1.399 . S
C318 C317 1.394 . S
C318 C319 1.516 . S
C319 C318 1.516 . S
C319 C320 1.502 . S
C319 C321 1.561 . S
C319 C322 1.526 . S
C320 H304 0.959 . S
C320 H305 0.959 . S
C320 H306 0.961 . S
C320 C319 1.502 . S
C321 H307 0.960 . S
C321 H308 0.961 . S
C321 H309 0.959 . S
C321 C319 1.561 . S
C322 C319 1.526 . S
C322 C323 1.396 . S
C322 C327 1.390 . S
C323 C317 1.465 . S
C323 C322 1.396 . S
C323 C324 1.399 . S
C324 H310 0.929 . S
C324 C323 1.399 . S
C324 C325 1.385 . S
C325 H311 0.931 . S
C325 C324 1.385 . S
C325 C326 1.389 . S
C326 C325 1.389 . S
C326 C327 1.387 . S
C327 H312 0.930 . S
C327 C322 1.390 . S
C327 C326 1.387 . S
H328 C340 0.930 . S
H329 C342 0.930 . S
H330 C343 0.930 . S
H331 C347 0.960 . S
H332 C347 0.966 . S
H333 C347 0.953 1_565 S
H334 C348 0.976 . S
H335 C348 0.947 1_545 S
H336 C348 0.957 1_545 S
H337 C351 0.929 . S
H338 C352 0.931 . S
H339 C354 0.930 . S
C340 H328 0.930 . S
C340 C341 1.399 . S
C340 C345 1.399 . S
C341 C340 1.399 . S
C341 C342 1.376 . S
C342 H329 0.930 . S
C342 C341 1.376 . S
C342 C343 1.388 . S
C343 H330 0.930 . S
C343 C342 1.388 . S
C343 C344 1.390 . S
C344 C343 1.390 . S
C344 C345 1.394 . S
C344 C350 1.465 1_565 S
C345 C340 1.399 . S
C345 C344 1.394 . S
C345 C346 1.521 . S
C346 C345 1.521 . S
C346 C347 1.502 1_565 S
C346 C348 1.561 . S
C346 C349 1.521 1_565 S
C347 H331 0.960 . S
C347 H332 0.966 . S
C347 H333 0.953 1_545 S
C347 C346 1.502 1_545 S
C348 H334 0.976 . S
C348 H335 0.947 1_565 S
C348 H336 0.957 1_565 S
C348 C346 1.561 . S
C349 C346 1.521 1_545 S
C349 C350 1.396 . S
C349 C354 1.390 . S
C350 C344 1.465 1_545 S
C350 C349 1.396 . S
C350 C351 1.399 . S
C351 H337 0.929 . S
C351 C350 1.399 . S
C351 C352 1.385 . S
C352 H338 0.931 . S
C352 C351 1.385 . S
C352 C353 1.389 . S
C353 C352 1.389 . S
C353 C354 1.387 . S
C354 H339 0.930 . S
C354 C349 1.390 . S
C354 C353 1.387 . S
H355 C367 0.930 . S
H356 C369 0.930 . S
H357 C370 0.930 . S
H358 C374 0.959 . S
H359 C374 0.959 . S
H360 C374 0.961 1_655 S
H361 C375 0.961 1_655 S
H362 C375 0.960 . S
H363 C375 0.959 . S
H364 C378 0.929 . S
H365 C379 0.931 . S
H366 C381 0.930 . S
C367 H355 0.930 . S
C367 C368 1.399 . S
C367 C372 1.399 . S
C368 C367 1.399 . S
C368 C369 1.376 . S
C369 H356 0.930 . S
C369 C368 1.376 . S
C369 C370 1.388 . S
C370 H357 0.930 . S
C370 C369 1.388 . S
C370 C371 1.390 . S
C371 C370 1.390 . S
C371 C372 1.394 . S
C371 C377 1.465 1_655 S
C372 C367 1.399 . S
C372 C371 1.394 . S
C372 C373 1.511 1_655 S
C373 C372 1.511 1_455 S
C373 C374 1.502 . S
C373 C375 1.561 . S
C373 C376 1.531 . S
C374 H358 0.959 . S
C374 H359 0.959 . S
C374 H360 0.961 1_455 S
C374 C373 1.502 . S
C375 H361 0.961 1_455 S
C375 H362 0.960 . S
C375 H363 0.959 . S
C375 C373 1.561 . S
C376 C373 1.531 . S
C376 C377 1.396 . S
C376 C381 1.390 . S
C377 C371 1.465 1_455 S
C377 C376 1.396 . S
C377 C378 1.399 . S
C378 H364 0.929 . S
C378 C377 1.399 . S
C378 C379 1.385 . S
C379 H365 0.931 . S
C379 C378 1.385 . S
C379 C380 1.389 . S
C380 C379 1.389 . S
C380 C381 1.387 . S
C381 H366 0.930 . S
C381 C376 1.390 . S
C381 C380 1.387 . S
H382 C394 0.930 . S
H383 C396 0.930 . S
H384 C397 0.930 . S
H385 C401 0.960 1_545 S
H386 C401 0.962 1_545 S
H387 C401 0.958 . S
H388 C402 0.969 . S
H389 C402 0.953 1_545 S
H390 C402 0.958 1_545 S
H391 C405 0.929 . S
H392 C406 0.931 . S
H393 C408 0.930 . S
C394 H382 0.930 . S
C394 C395 1.399 . S
C394 C399 1.399 . S
C395 C394 1.399 . S
C395 C396 1.376 . S
C396 H383 0.930 . S
C396 C395 1.376 . S
C396 C397 1.388 . S
C397 H384 0.930 . S
C397 C396 1.388 . S
C397 C398 1.390 . S
C398 C397 1.390 . S
C398 C399 1.394 . S
C398 C404 1.465 1_565 S
C399 C394 1.399 . S
C399 C398 1.394 . S
C399 C400 1.523 . S
C400 C399 1.523 . S
C400 C401 1.502 . S
C400 C402 1.561 . S
C400 C403 1.519 1_565 S
C401 H385 0.960 1_565 S
C401 H386 0.962 1_565 S
C401 H387 0.958 . S
C401 C400 1.502 . S
C402 H388 0.969 . S
C402 H389 0.953 1_565 S
C402 H390 0.958 1_565 S
C402 C400 1.561 . S
C403 C400 1.519 1_545 S
C403 C404 1.396 . S
C403 C408 1.390 . S
C404 C398 1.465 1_545 S
C404 C403 1.396 . S
C404 C405 1.399 . S
C405 H391 0.929 . S
C405 C404 1.399 . S
C405 C406 1.385 . S
C406 H392 0.931 . S
C406 C405 1.385 . S
C406 C407 1.389 . S
C407 C406 1.389 . S
C407 C408 1.387 . S
C408 H393 0.930 . S
C408 C403 1.390 . S
C408 C407 1.387 . S
H409 C421 0.930 . S
H410 C423 0.930 . S
H411 C424 0.930 . S
H412 C428 0.959 . S
H413 C428 0.959 . S
H414 C428 0.961 1_655 S
H415 C429 0.958 . S
H416 C429 0.963 1_455 S
H417 C429 0.959 1_455 S
H418 C432 0.929 . S
H419 C433 0.931 . S
H420 C435 0.930 . S
C421 H409 0.930 . S
C421 C422 1.399 . S
C421 C426 1.399 . S
C422 C421 1.399 . S
C422 C423 1.376 . S
C423 H410 0.930 . S
C423 C422 1.376 . S
C423 C424 1.388 . S
C424 H411 0.930 . S
C424 C423 1.388 . S
C424 C425 1.390 . S
C425 C424 1.390 . S
C425 C426 1.394 . S
C425 C431 1.465 1_655 S
C426 C421 1.399 . S
C426 C425 1.394 . S
C426 C427 1.514 1_655 S
C427 C426 1.514 1_455 S
C427 C428 1.502 1_554 S
C427 C429 1.561 1_455 S
C427 C430 1.528 . S
C428 H412 0.959 . S
C428 H413 0.959 . S
C428 H414 0.961 1_455 S
C428 C427 1.502 1_556 S
C429 H415 0.958 . S
C429 H416 0.963 1_655 S
C429 H417 0.959 1_655 S
C429 C427 1.561 1_655 S
C430 C427 1.528 . S
C430 C431 1.396 . S
C430 C435 1.390 . S
C431 C425 1.465 1_455 S
C431 C430 1.396 . S
C431 C432 1.399 . S
C432 H418 0.929 . S
C432 C431 1.399 . S
C432 C433 1.385 . S
C433 H419 0.931 . S
C433 C432 1.385 . S
C433 C434 1.389 . S
C434 C433 1.389 . S
C434 C435 1.387 . S
C435 H420 0.930 . S
C435 C430 1.390 . S
C435 C434 1.387 . S
H436 C448 0.930 . S
H437 C450 0.930 . S
H438 C451 0.930 . S
H439 C455 0.959 . S
H440 C455 0.959 . S
H441 C455 0.961 . S
H442 C456 0.960 . S
H443 C456 0.961 1_554 S
H444 C456 0.959 . S
H445 C459 0.929 . S
H446 C460 0.931 . S
H447 C462 0.930 . S
C448 H436 0.930 . S
C448 C449 1.399 . S
C448 C453 1.399 . S
C449 C448 1.399 . S
C449 C450 1.376 . S
C450 H437 0.930 . S
C450 C449 1.376 . S
C450 C451 1.388 . S
C451 H438 0.930 . S
C451 C450 1.388 . S
C451 C452 1.390 1_556 S
C452 C451 1.390 1_554 S
C452 C453 1.394 1_554 S
C452 C458 1.465 . S
C453 C448 1.399 . S
C453 C452 1.394 1_556 S
C453 C454 1.516 1_556 S
C454 C453 1.516 1_554 S
C454 C455 1.502 . S
C454 C456 1.561 1_554 S
C454 C457 1.526 . S
C455 H439 0.959 . S
C455 H440 0.959 . S
C455 H441 0.961 . S
C455 C454 1.502 . S
C456 H442 0.960 . S
C456 H443 0.961 1_556 S
C456 H444 0.959 . S
C456 C454 1.561 1_556 S
C457 C454 1.526 . S
C457 C458 1.396 . S
C457 C462 1.390 . S
C458 C452 1.465 . S
C458 C457 1.396 . S
C458 C459 1.399 . S
C459 H445 0.929 . S
C459 C458 1.399 . S
C459 C460 1.385 . S
C460 H446 0.931 . S
C460 C459 1.385 . S
C460 C461 1.389 . S
C461 C460 1.389 . S
C461 C462 1.387 . S
C462 H447 0.930 . S
C462 C457 1.390 . S
C462 C461 1.387 . S
H463 C475 0.930 . S
H464 C477 0.930 . S
H465 C478 0.930 . S
H466 C482 0.959 . S
H467 C482 0.959 . S
H468 C482 0.961 . S
H469 C483 0.960 . S
H470 C483 0.961 . S
H471 C483 0.959 . S
H472 C486 0.929 . S
H473 C487 0.931 . S
H474 C489 0.930 . S
C475 H463 0.930 . S
C475 C476 1.399 . S
C475 C480 1.399 . S
C476 C475 1.399 . S
C476 C477 1.376 . S
C477 H464 0.930 . S
C477 C476 1.376 . S
C477 C478 1.388 . S
C478 H465 0.930 . S
C478 C477 1.388 . S
C478 C479 1.390 . S
C479 C478 1.390 . S
C479 C480 1.394 . S
C479 C485 1.465 . S
C480 C475 1.399 . S
C480 C479 1.394 . S
C480 C481 1.516 . S
C481 C480 1.516 . S
C481 C482 1.502 . S
C481 C483 1.561 . S
C481 C484 1.526 . S
C482 H466 0.959 . S
C482 H467 0.959 . S
C482 H468 0.961 . S
C482 C481 1.502 . S
C483 H469 0.960 . S
C483 H470 0.961 . S
C483 H471 0.959 . S
C483 C481 1.561 . S
C484 C481 1.526 . S
C484 C485 1.396 . S
C484 C489 1.390 . S
C485 C479 1.465 . S
C485 C484 1.396 . S
C485 C486 1.399 . S
C486 H472 0.929 . S
C486 C485 1.399 . S
C486 C487 1.385 . S
C487 H473 0.931 . S
C487 C486 1.385 . S
C487 C488 1.389 . S
C488 C487 1.389 . S
C488 C489 1.387 . S
C489 H474 0.930 . S
C489 C484 1.390 . S
C489 C488 1.387 . S
H490 C502 0.930 . S
H491 C504 0.930 . S
H492 C505 0.930 . S
H493 C509 0.959 . S
H494 C509 0.959 . S
H495 C509 0.961 . S
H496 C510 0.960 . S
H497 C510 0.961 . S
H498 C510 0.959 . S
H499 C513 0.929 . S
H500 C514 0.931 . S
H501 C516 0.930 . S
C502 H490 0.930 . S
C502 C503 1.399 . S
C502 C507 1.399 . S
C503 C502 1.399 . S
C503 C504 1.376 . S
C504 H491 0.930 . S
C504 C503 1.376 . S
C504 C505 1.388 . S
C505 H492 0.930 . S
C505 C504 1.388 . S
C505 C506 1.390 . S
C506 C505 1.390 . S
C506 C507 1.394 . S
C506 C512 1.465 . S
C507 C502 1.399 . S
C507 C506 1.394 . S
C507 C508 1.516 . S
C508 C507 1.516 . S
C508 C509 1.502 . S
C508 C510 1.561 . S
C508 C511 1.526 . S
C509 H493 0.959 . S
C509 H494 0.959 . S
C509 H495 0.961 . S
C509 C508 1.502 . S
C510 H496 0.960 . S
C510 H497 0.961 . S
C510 H498 0.959 . S
C510 C508 1.561 . S
C511 C508 1.526 . S
C511 C512 1.396 . S
C511 C516 1.390 . S
C512 C506 1.465 . S
C512 C511 1.396 . S
C512 C513 1.399 . S
C513 H499 0.929 . S
C513 C512 1.399 . S
C513 C514 1.385 . S
C514 H500 0.931 . S
C514 C513 1.385 . S
C514 C515 1.389 . S
C515 C514 1.389 . S
C515 C516 1.387 . S
C516 H501 0.930 . S
C516 C511 1.390 . S
C516 C515 1.387 . S
H517 C529 0.930 . S
H518 C531 0.930 . S
H519 C532 0.930 . S
H520 C536 0.959 . S
H521 C536 0.959 . S
H522 C536 0.961 . S
H523 C537 0.960 . S
H524 C537 0.961 . S
H525 C537 0.959 . S
H526 C540 0.929 . S
H527 C541 0.931 . S
H528 C543 0.930 . S
C529 H517 0.930 . S
C529 C530 1.399 . S
C529 C534 1.399 . S
C530 C529 1.399 . S
C530 C531 1.376 . S
C531 H518 0.930 . S
C531 C530 1.376 . S
C531 C532 1.388 . S
C532 H519 0.930 . S
C532 C531 1.388 . S
C532 C533 1.390 . S
C533 C532 1.390 . S
C533 C534 1.394 . S
C533 C539 1.465 . S
C534 C529 1.399 . S
C534 C533 1.394 . S
C534 C535 1.516 . S
C535 C534 1.516 . S
C535 C536 1.502 . S
C535 C537 1.561 . S
C535 C538 1.526 . S
C536 H520 0.959 . S
C536 H521 0.959 . S
C536 H522 0.961 . S
C536 C535 1.502 . S
C537 H523 0.960 . S
C537 H524 0.961 . S
C537 H525 0.959 . S
C537 C535 1.561 . S
C538 C535 1.526 . S
C538 C539 1.396 . S
C538 C543 1.390 . S
C539 C533 1.465 . S
C539 C538 1.396 . S
C539 C540 1.399 . S
C540 H526 0.929 . S
C540 C539 1.399 . S
C540 C541 1.385 . S
C541 H527 0.931 . S
C541 C540 1.385 . S
C541 C542 1.389 . S
C542 C541 1.389 . S
C542 C543 1.387 . S
C543 H528 0.930 . S
C543 C538 1.390 . S
C543 C542 1.387 . S
C125 C13 0.832 . S
C137 C97 0.951 . S
C152 C27 0.953 . S
C164 C111 0.817 . S
C179 C69 0.923 . S
C191 C41 0.788 . S
C206 C83 0.948 . S
C218 C55 0.852 . S
C233 C11 1.359 . S
C245 C81 1.390 . S
C260 C25 1.394 . S
C272 C95 1.364 . S
C287 C109 1.371 1_556 S
C299 C39 1.398 . S
C314 C53 1.378 . S
C326 C67 1.356 . S
C341 C64 1.166 . S
C353 C8 1.211 . S
C368 C22 1.211 . S
C380 C78 1.168 . S
C395 C36 1.183 . S
C407 C92 1.252 . S
C422 C106 1.206 . S
C434 C50 1.168 . S
C449 C91 1.601 . S
C461 C7 1.618 . S
C476 C105 1.647 . S
C488 C21 1.600 . S
C503 C35 1.657 . S
C515 C63 1.630 . S
C530 C49 1.658 . S
C542 C77 1.627 . S
