# Generated by pormake.
# Topology zfc, (5)-cn, num edge types: 1
# Building blocks:
#     Node 0, Type 0, BuildingBlock: BEQFEK_clean_sbu_0, # of connection points: 5
#     Node 1, Type 0, BuildingBlock: BEQFEK_clean_sbu_0, # of connection points: 5
#     Node 2, Type 0, BuildingBlock: BEQFEK_clean_sbu_0, # of connection points: 5
#     Node 3, Type 0, BuildingBlock: BEQFEK_clean_sbu_0, # of connection points: 5
#     Node 4, Type 0, BuildingBlock: BEQFEK_clean_sbu_0, # of connection points: 5
#     Node 5, Type 0, BuildingBlock: BEQFEK_clean_sbu_0, # of connection points: 5
#     Node 6, Type 0, BuildingBlock: BEQFEK_clean_sbu_0, # of connection points: 5
#     Node 7, Type 0, BuildingBlock: BEQFEK_clean_sbu_0, # of connection points: 5
#     Node 8, Type 0, BuildingBlock: BEQFEK_clean_sbu_0, # of connection points: 5
#     Node 9, Type 0, BuildingBlock: BEQFEK_clean_sbu_0, # of connection points: 5
#     Node 10, Type 0, BuildingBlock: BEQFEK_clean_sbu_0, # of connection points: 5
#     Node 11, Type 0, BuildingBlock: BEQFEK_clean_sbu_0, # of connection points: 5
#     Node 12, Type 0, BuildingBlock: BEQFEK_clean_sbu_0, # of connection points: 5
#     Node 13, Type 0, BuildingBlock: BEQFEK_clean_sbu_0, # of connection points: 5
#     Node 14, Type 0, BuildingBlock: BEQFEK_clean_sbu_0, # of connection points: 5
#     Node 15, Type 0, BuildingBlock: BEQFEK_clean_sbu_0, # of connection points: 5
#     Edge 16, Type (0, 0), BuildingBlock: UVAHIK_clean_linker_0, # of connection points: 2
#     Edge 17, Type (0, 0), BuildingBlock: UVAHIK_clean_linker_0, # of connection points: 2
#     Edge 18, Type (0, 0), BuildingBlock: UVAHIK_clean_linker_0, # of connection points: 2
#     Edge 19, Type (0, 0), BuildingBlock: UVAHIK_clean_linker_0, # of connection points: 2
#     Edge 20, Type (0, 0), BuildingBlock: UVAHIK_clean_linker_0, # of connection points: 2
#     Edge 21, Type (0, 0), BuildingBlock: UVAHIK_clean_linker_0, # of connection points: 2
#     Edge 22, Type (0, 0), BuildingBlock: UVAHIK_clean_linker_0, # of connection points: 2
#     Edge 23, Type (0, 0), BuildingBlock: UVAHIK_clean_linker_0, # of connection points: 2
#     Edge 24, Type (0, 0), BuildingBlock: UVAHIK_clean_linker_0, # of connection points: 2
#     Edge 25, Type (0, 0), BuildingBlock: UVAHIK_clean_linker_0, # of connection points: 2
#     Edge 26, Type (0, 0), BuildingBlock: UVAHIK_clean_linker_0, # of connection points: 2
#     Edge 27, Type (0, 0), BuildingBlock: UVAHIK_clean_linker_0, # of connection points: 2
#     Edge 28, Type (0, 0), BuildingBlock: UVAHIK_clean_linker_0, # of connection points: 2
#     Edge 29, Type (0, 0), BuildingBlock: UVAHIK_clean_linker_0, # of connection points: 2
#     Edge 30, Type (0, 0), BuildingBlock: UVAHIK_clean_linker_0, # of connection points: 2
#     Edge 31, Type (0, 0), BuildingBlock: UVAHIK_clean_linker_0, # of connection points: 2
#     Edge 32, Type (0, 0), BuildingBlock: UVAHIK_clean_linker_0, # of connection points: 2
#     Edge 33, Type (0, 0), BuildingBlock: UVAHIK_clean_linker_0, # of connection points: 2
#     Edge 34, Type (0, 0), BuildingBlock: UVAHIK_clean_linker_0, # of connection points: 2
#     Edge 35, Type (0, 0), BuildingBlock: UVAHIK_clean_linker_0, # of connection points: 2
#     Edge 36, Type (0, 0), BuildingBlock: UVAHIK_clean_linker_0, # of connection points: 2
#     Edge 37, Type (0, 0), BuildingBlock: UVAHIK_clean_linker_0, # of connection points: 2
#     Edge 38, Type (0, 0), BuildingBlock: UVAHIK_clean_linker_0, # of connection points: 2
#     Edge 39, Type (0, 0), BuildingBlock: UVAHIK_clean_linker_0, # of connection points: 2
#     Edge 40, Type (0, 0), BuildingBlock: UVAHIK_clean_linker_0, # of connection points: 2
#     Edge 41, Type (0, 0), BuildingBlock: UVAHIK_clean_linker_0, # of connection points: 2
#     Edge 42, Type (0, 0), BuildingBlock: UVAHIK_clean_linker_0, # of connection points: 2
#     Edge 43, Type (0, 0), BuildingBlock: UVAHIK_clean_linker_0, # of connection points: 2
#     Edge 44, Type (0, 0), BuildingBlock: UVAHIK_clean_linker_0, # of connection points: 2
#     Edge 45, Type (0, 0), BuildingBlock: UVAHIK_clean_linker_0, # of connection points: 2
#     Edge 46, Type (0, 0), BuildingBlock: UVAHIK_clean_linker_0, # of connection points: 2
#     Edge 47, Type (0, 0), BuildingBlock: UVAHIK_clean_linker_0, # of connection points: 2
#     Edge 48, Type (0, 0), BuildingBlock: UVAHIK_clean_linker_0, # of connection points: 2
#     Edge 49, Type (0, 0), BuildingBlock: UVAHIK_clean_linker_0, # of connection points: 2
#     Edge 50, Type (0, 0), BuildingBlock: UVAHIK_clean_linker_0, # of connection points: 2
#     Edge 51, Type (0, 0), BuildingBlock: UVAHIK_clean_linker_0, # of connection points: 2
#     Edge 52, Type (0, 0), BuildingBlock: UVAHIK_clean_linker_0, # of connection points: 2
#     Edge 53, Type (0, 0), BuildingBlock: UVAHIK_clean_linker_0, # of connection points: 2
#     Edge 54, Type (0, 0), BuildingBlock: UVAHIK_clean_linker_0, # of connection points: 2
#     Edge 55, Type (0, 0), BuildingBlock: UVAHIK_clean_linker_0, # of connection points: 2
# Relax obj value: 0.160
# Max RMSD: 0.191
# Mean RMSD: 0.191
data_MOF--net-zfc--node1-BEQFEK_clean_sbu_0--edge1-UVAHIK_clean_linker_0
_symmetry_space_group_name_H-M    P1
_symmetry_Int_Tables_number       1
_symmetry_cell_setting            triclinic
loop_
_symmetry_equiv_pos_as_xyz
'x, y, z'
_cell_length_a     94.734407
_cell_length_b     94.710436
_cell_length_c     23.075945
_cell_angle_alpha  89.97371
_cell_angle_beta   90.034815
_cell_angle_gamma 90.032399
loop_
_atom_site_label
_atom_site_type_symbol
_atom_site_fract_x
_atom_site_fract_y
_atom_site_fract_z
_atom_type_partial_charge
Co0 Co 0.24811 0.11128 0.13092 0.0
Co1 Co 0.25704 0.11202 0.00133 0.0
C2 C 0.2319 0.1282 0.04435 0.0
O3 O 0.23363 0.12368 0.09585 0.0
O4 O 0.24021 0.12456 0.00359 0.0
C5 C 0.23247 0.10409 0.2374 0.0
O6 O 0.22118 0.10116 0.2066 0.0
C7 C 0.25453 0.10804 0.87621 0.0
C8 C 0.27638 0.10235 0.85207 0.0
C9 C 0.26281 0.10357 0.83026 0.0
N10 N 0.26274 0.10895 0.92347 0.0
N11 N 0.27583 0.10576 0.90863 0.0
C12 C 0.23922 0.11189 0.87571 0.0
H13 H 0.23332 0.1048 0.90536 0.0
H14 H 0.23457 0.11155 0.83171 0.0
H15 H 0.23816 0.1228 0.89216 0.0
C16 C 0.24949 0.08037 0.10998 0.0
N17 N 0.24993 0.0939 0.09182 0.0
N18 N 0.25305 0.0942 0.0363 0.0
C19 C 0.25413 0.08083 0.01682 0.0
C20 C 0.2521 0.07164 0.06297 0.0
C21 C 0.2482 0.07601 0.17212 0.0
H22 H 0.25406 0.08348 0.20017 0.0
H23 H 0.23691 0.07615 0.18479 0.0
H24 H 0.25242 0.06522 0.17927 0.0
O25 O 0.26643 0.1208 0.13233 0.0
O26 O 0.27331 0.12133 0.04065 0.0
H27 H 0.26756 0.07918 0.94265 0.0
H28 H 0.25425 0.06555 0.94675 0.0
C29 C 0.25647 0.07687 0.95475 0.0
H30 H 0.24935 0.08313 0.92678 0.0
H31 H 0.2843 0.10544 0.93762 0.0
O32 O 0.24367 0.10823 0.21252 0.0
C33 C 0.27548 0.12404 0.09395 0.0
Co34 Co 0.88582 0.24834 0.12911 0.0
Co35 Co 0.87923 0.26081 0.0068 0.0
C36 C 0.86558 0.23402 0.05095 0.0
O37 O 0.8722 0.23442 0.09891 0.0
O38 O 0.86733 0.24352 0.01253 0.0
C39 C 0.88681 0.23342 0.23741 0.0
O40 O 0.87563 0.22678 0.21756 0.0
C41 C 0.87906 0.25884 0.8818 0.0
C42 C 0.8788 0.28115 0.85374 0.0
C43 C 0.87941 0.2674 0.83321 0.0
N44 N 0.87828 0.2671 0.92888 0.0
N45 N 0.87793 0.28043 0.91195 0.0
C46 C 0.88118 0.24318 0.88427 0.0
H47 H 0.88547 0.24 0.92707 0.0
H48 H 0.88848 0.23967 0.84955 0.0
H49 H 0.87087 0.23786 0.87776 0.0
C50 C 0.9148 0.24878 0.0831 0.0
N51 N 0.90086 0.25103 0.07727 0.0
N52 N 0.89834 0.25679 0.02643 0.0
C53 C 0.91072 0.25862 -0.00149 0.0
C54 C 0.92151 0.25351 0.03342 0.0
C55 C 0.92152 0.24302 0.13687 0.0
H56 H 0.91918 0.25017 0.17371 0.0
H57 H 0.91684 0.23257 0.14706 0.0
H58 H 0.93312 0.24199 0.13239 0.0
O59 O 0.87624 0.26646 0.14392 0.0
O60 O 0.87151 0.27577 0.05786 0.0
H61 H 0.90607 0.27484 0.93667 0.0
H62 H 0.92333 0.26701 0.92787 0.0
C63 C 0.91217 0.26488 0.93923 0.0
H64 H 0.90787 0.25739 0.90689 0.0
H65 H 0.87761 0.28904 0.9402 0.0
O66 O 0.89302 0.24236 0.20531 0.0
C67 C 0.87117 0.27636 0.11298 0.0
Co68 Co 0.74905 0.88671 0.14019 0.0
Co69 Co 0.73672 0.88075 0.01757 0.0
C70 C 0.76465 0.86885 0.05642 0.0
O71 O 0.76416 0.87516 0.10502 0.0
O72 O 0.75461 0.86989 0.02001 0.0
C73 C 0.76337 0.88608 0.24874 0.0
O74 O 0.76879 0.87432 0.22843 0.0
C75 C 0.738 0.88023 0.89238 0.0
C76 C 0.71555 0.88123 0.86646 0.0
C77 C 0.72918 0.88089 0.84465 0.0
N78 N 0.72998 0.88014 0.94027 0.0
N79 N 0.71656 0.88057 0.92465 0.0
C80 C 0.75376 0.88149 0.89315 0.0
H81 H 0.7573 0.88694 0.93315 0.0
H82 H 0.75764 0.88741 0.85485 0.0
H83 H 0.75845 0.87075 0.89251 0.0
C84 C 0.74506 0.91618 0.10256 0.0
N85 N 0.74447 0.9022 0.09286 0.0
N86 N 0.73957 0.89986 0.04042 0.0
C87 C 0.73709 0.91239 0.01445 0.0
C88 C 0.74047 0.92315 0.05309 0.0
C89 C 0.74893 0.92255 0.1598 0.0
H90 H 0.74312 0.91704 0.19486 0.0
H91 H 0.76039 0.92102 0.16757 0.0
H92 H 0.74638 0.93396 0.16183 0.0
O93 O 0.73203 0.8752 0.15476 0.0
O94 O 0.72257 0.87146 0.06815 0.0
H95 H 0.7215 0.90948 0.94844 0.0
H96 H 0.73223 0.92512 0.93854 0.0
C97 C 0.73226 0.91396 0.95299 0.0
H98 H 0.73945 0.90802 0.92418 0.0
H99 H 0.70813 0.88086 0.95373 0.0
O100 O 0.75522 0.89331 0.21674 0.0
C101 C 0.72234 0.87002 0.12302 0.0
Co102 Co 0.11076 0.74216 0.13103 0.0
Co103 Co 0.11476 0.7346 0.00064 0.0
C104 C 0.12831 0.76023 0.05311 0.0
O105 O 0.12303 0.75762 0.10272 0.0
O106 O 0.12599 0.75218 0.00988 0.0
C107 C 0.10233 0.75771 0.23459 0.0
O108 O 0.10318 0.76942 0.20426 0.0
C109 C 0.1144 0.73789 0.87451 0.0
C110 C 0.10656 0.71699 0.84667 0.0
C111 C 0.10966 0.73043 0.82654 0.0
N112 N 0.11353 0.72944 0.9211 0.0
N113 N 0.10919 0.71685 0.90397 0.0
C114 C 0.12008 0.75261 0.87651 0.0
H115 H 0.13012 0.75258 0.90113 0.0
H116 H 0.11248 0.75955 0.89944 0.0
H117 H 0.12229 0.75684 0.83263 0.0
C118 C 0.08069 0.74 0.09829 0.0
N119 N 0.09453 0.73987 0.08507 0.0
N120 N 0.09608 0.73742 0.02938 0.0
C121 C 0.08319 0.73654 0.00481 0.0
C122 C 0.07301 0.73794 0.04777 0.0
C123 C 0.07507 0.74072 0.15887 0.0
H124 H 0.08179 0.73433 0.18818 0.0
H125 H 0.07531 0.75184 0.17387 0.0
H126 H 0.06409 0.73671 0.16155 0.0
O127 O 0.12122 0.72442 0.13369 0.0
O128 O 0.12421 0.71855 0.04155 0.0
H129 H 0.08207 0.72427 0.92724 0.0
H130 H 0.06971 0.73872 0.9295 0.0
C131 C 0.08058 0.73537 0.94101 0.0
H132 H 0.08809 0.74219 0.91725 0.0
H133 H 0.10727 0.7084 0.93195 0.0
O134 O 0.10524 0.74596 0.21108 0.0
C135 C 0.12585 0.716 0.09535 0.0
Co136 Co 0.24977 0.88615 0.88889 0.0
Co137 Co 0.26137 0.8793 0.0122 0.0
C138 C 0.23441 0.86639 0.96443 0.0
O139 O 0.235 0.87316 0.91686 0.0
O140 O 0.24396 0.86777 0.00288 0.0
C141 C 0.23437 0.8898 0.78164 0.0
O142 O 0.2255 0.88041 0.80234 0.0
C143 C 0.2584 0.88151 0.13703 0.0
C144 C 0.27988 0.87668 0.16867 0.0
C145 C 0.26655 0.88078 0.18684 0.0
N146 N 0.26662 0.87834 0.09146 0.0
N147 N 0.27942 0.87534 0.1106 0.0
C148 C 0.24295 0.88479 0.13265 0.0
H149 H 0.23828 0.87995 0.09354 0.0
H150 H 0.24142 0.89636 0.12927 0.0
H151 H 0.23725 0.88094 0.17158 0.0
C152 C 0.25107 0.91517 0.93447 0.0
N153 N 0.25265 0.90115 0.94088 0.0
N154 N 0.25814 0.89848 0.99209 0.0
C155 C 0.26048 0.91084 0.01959 0.0
C156 C 0.25594 0.92174 0.98419 0.0
C157 C 0.24498 0.92204 0.8817 0.0
H158 H 0.25274 0.9214 0.84582 0.0
H159 H 0.23532 0.91631 0.86806 0.0
H160 H 0.24234 0.93329 0.88974 0.0
O161 O 0.26762 0.87572 0.87669 0.0
O162 O 0.27657 0.87121 0.96365 0.0
H163 H 0.27652 0.90413 0.07952 0.0
H164 H 0.27348 0.92294 0.07827 0.0
C165 C 0.26835 0.91243 0.07553 0.0
H166 H 0.26088 0.91151 0.11225 0.0
H167 H 0.2879 0.87265 0.08392 0.0
O168 O 0.24479 0.89372 0.81227 0.0
C169 C 0.27729 0.87054 0.9086 0.0
Co170 Co 0.10769 0.24838 0.84056 0.0
Co171 Co 0.11237 0.26045 0.96486 0.0
C172 C 0.12768 0.23452 0.91989 0.0
O173 O 0.12152 0.23472 0.87093 0.0
O174 O 0.12511 0.24385 0.95811 0.0
C175 C 0.10533 0.23155 0.7363 0.0
O176 O 0.11353 0.22242 0.76281 0.0
C177 C 0.10922 0.25654 0.08846 0.0
C178 C 0.11482 0.2774 0.12462 0.0
C179 C 0.11059 0.26389 0.14 0.0
N180 N 0.11228 0.26534 0.04457 0.0
N181 N 0.11561 0.27781 0.06633 0.0
C182 C 0.10601 0.24115 0.08095 0.0
H183 H 0.10803 0.23768 0.03595 0.0
H184 H 0.09473 0.23911 0.09046 0.0
H185 H 0.11242 0.2348 0.11166 0.0
C186 C 0.07818 0.2476 0.88079 0.0
N187 N 0.09199 0.25005 0.88983 0.0
N188 N 0.0937 0.25606 0.94073 0.0
C189 C 0.08091 0.25808 0.96498 0.0
C190 C 0.07072 0.25262 0.92806 0.0
C191 C 0.07228 0.24164 0.82584 0.0
H192 H 0.07429 0.24915 0.78989 0.0
H193 H 0.07778 0.23162 0.81536 0.0
H194 H 0.06076 0.23971 0.82904 0.0
O195 O 0.11666 0.2671 0.83034 0.0
O196 O 0.11998 0.2762 0.91803 0.0
H197 H 0.08615 0.2742 0.02687 0.0
H198 H 0.06761 0.26981 0.02424 0.0
C199 C 0.07845 0.26549 0.0214 0.0
H200 H 0.07979 0.25789 0.05743 0.0
H201 H 0.11856 0.28654 0.04143 0.0
O202 O 0.10154 0.2427 0.76253 0.0
C203 C 0.1209 0.27707 0.86306 0.0
Co204 Co 0.74464 0.1087 0.86644 0.0
Co205 Co 0.73258 0.11515 0.98937 0.0
C206 C 0.75952 0.1284 0.94531 0.0
O207 O 0.75894 0.12194 0.89702 0.0
O208 O 0.75003 0.12671 0.98376 0.0
C209 C 0.75986 0.10706 0.75862 0.0
O210 O 0.76722 0.11773 0.7789 0.0
C211 C 0.73487 0.11456 0.11403 0.0
C212 C 0.71272 0.11595 0.14334 0.0
C213 C 0.72647 0.11449 0.16304 0.0
N214 N 0.72652 0.11601 0.06749 0.0
N215 N 0.71329 0.11701 0.08514 0.0
C216 C 0.75039 0.11168 0.1106 0.0
H217 H 0.75323 0.10749 0.06725 0.0
H218 H 0.75363 0.10402 0.14451 0.0
H219 H 0.75624 0.12167 0.11777 0.0
C220 C 0.74302 0.07952 0.91008 0.0
N221 N 0.74155 0.09353 0.91734 0.0
N222 N 0.73623 0.09605 0.96897 0.0
C223 C 0.73417 0.08362 -0.00366 0.0
C224 C 0.73844 0.07282 0.95991 0.0
C225 C 0.74867 0.07278 0.85627 0.0
H226 H 0.74103 0.07437 0.82039 0.0
H227 H 0.75873 0.07797 0.8438 0.0
H228 H 0.7505 0.0613 0.86238 0.0
O229 O 0.72674 0.11871 0.85243 0.0
O230 O 0.71765 0.12329 0.939 0.0
H231 H 0.71802 0.08899 0.05747 0.0
H232 H 0.72399 0.07092 0.0622 0.0
C233 C 0.72735 0.08199 0.05443 0.0
H234 H 0.73498 0.08502 0.08864 0.0
H235 H 0.70463 0.11794 0.0574 0.0
O236 O 0.75036 0.10152 0.79004 0.0
C237 C 0.71699 0.12383 0.88391 0.0
Co238 Co 0.88815 0.74729 0.86579 0.0
Co239 Co 0.88076 0.73548 0.98848 0.0
C240 C 0.86964 0.76351 0.94292 0.0
O241 O 0.8765 0.76291 0.89563 0.0
O242 O 0.87029 0.75356 0.97991 0.0
C243 C 0.89301 0.76323 0.76072 0.0
O244 O 0.8857 0.77328 0.78593 0.0
C245 C 0.88387 0.73883 0.1124 0.0
C246 C 0.87513 0.71901 0.14798 0.0
C247 C 0.88134 0.73171 0.16379 0.0
N248 N 0.87959 0.73066 0.06824 0.0
N249 N 0.87435 0.71881 0.08964 0.0
C250 C 0.88945 0.75355 0.10526 0.0
H251 H 0.90103 0.75363 0.11197 0.0
H252 H 0.88464 0.76066 0.13796 0.0
H253 H 0.88736 0.7576 0.06111 0.0
C254 C 0.9171 0.74354 0.90973 0.0
N255 N 0.90302 0.74302 0.91666 0.0
N256 N 0.90006 0.73742 0.9674 0.0
C257 C 0.91225 0.73391 0.99396 0.0
C258 C 0.9234 0.73781 0.95853 0.0
C259 C 0.92428 0.74952 0.85743 0.0
H260 H 0.92328 0.74192 0.82107 0.0
H261 H 0.91901 0.75948 0.84433 0.0
H262 H 0.93563 0.75159 0.86576 0.0
O263 O 0.87637 0.73026 0.85383 0.0
O264 O 0.87154 0.72094 0.9399 0.0
H265 H 0.90413 0.71841 0.0535 0.0
H266 H 0.92316 0.7192 0.04957 0.0
C267 C 0.91332 0.72556 0.04892 0.0
H268 H 0.91365 0.73286 0.08639 0.0
H269 H 0.87022 0.71065 0.06453 0.0
O270 O 0.89555 0.75189 0.78821 0.0
C271 C 0.87066 0.7207 0.88479 0.0
Co272 Co 0.74739 0.60919 0.63651 0.0
Co273 Co 0.75778 0.6147 0.51027 0.0
C274 C 0.73038 0.62673 0.55849 0.0
O275 O 0.73138 0.62051 0.60726 0.0
O276 O 0.73995 0.62548 0.52009 0.0
C277 C 0.73271 0.60059 0.74353 0.0
O278 O 0.72052 0.60265 0.71765 0.0
C279 C 0.75381 0.61137 0.38589 0.0
C280 C 0.77549 0.61389 0.3521 0.0
C281 C 0.76181 0.61051 0.33572 0.0
N282 N 0.76244 0.61465 0.43012 0.0
N283 N 0.77534 0.61634 0.40957 0.0
C284 C 0.73818 0.60939 0.39204 0.0
H285 H 0.73599 0.59877 0.41019 0.0
H286 H 0.73269 0.61054 0.34985 0.0
H287 H 0.7338 0.6173 0.42229 0.0
C288 C 0.75019 0.57957 0.59872 0.0
N289 N 0.75096 0.59354 0.58864 0.0
N290 N 0.75564 0.59571 0.5357 0.0
C291 C 0.75806 0.58309 0.51047 0.0
C292 C 0.75462 0.57253 0.54949 0.0
C293 C 0.74502 0.57315 0.65402 0.0
H294 H 0.75224 0.57612 0.68985 0.0
H295 H 0.7344 0.5774 0.66416 0.0
H296 H 0.74439 0.56147 0.65119 0.0
O297 O 0.76452 0.62101 0.64273 0.0
O298 O 0.77299 0.62427 0.55418 0.0
H299 H 0.77305 0.58876 0.44482 0.0
H300 H 0.76875 0.5702 0.44681 0.0
C301 C 0.76444 0.58103 0.45176 0.0
H302 H 0.75623 0.58263 0.41817 0.0
H303 H 0.78414 0.61871 0.43509 0.0
O304 O 0.74412 0.60274 0.71615 0.0
C305 C 0.77383 0.62604 0.60876 0.0
Co306 Co 0.38504 0.7487 0.62164 0.0
Co307 Co 0.37782 0.76199 0.50136 0.0
C308 C 0.36522 0.73433 0.54256 0.0
O309 O 0.3722 0.73432 0.58966 0.0
O310 O 0.3663 0.74442 0.50635 0.0
C311 C 0.38531 0.73463 0.73076 0.0
O312 O 0.37355 0.72899 0.71139 0.0
C313 C 0.37734 0.76018 0.37647 0.0
C314 C 0.37666 0.78249 0.34854 0.0
C315 C 0.37744 0.76877 0.32788 0.0
N316 N 0.37655 0.76842 0.42363 0.0
N317 N 0.37595 0.78175 0.40681 0.0
C318 C 0.37968 0.74456 0.37888 0.0
H319 H 0.38469 0.74155 0.42056 0.0
H320 H 0.38644 0.741 0.34244 0.0
H321 H 0.36933 0.73911 0.37573 0.0
C322 C 0.41391 0.75044 0.57512 0.0
N323 N 0.3999 0.75235 0.57007 0.0
N324 N 0.39709 0.75841 0.52007 0.0
C325 C 0.40936 0.7608 0.492 0.0
C326 C 0.42036 0.75575 0.52586 0.0
C327 C 0.42089 0.74437 0.62771 0.0
H328 H 0.41858 0.7512 0.66559 0.0
H329 H 0.4164 0.73377 0.63679 0.0
H330 H 0.4325 0.74355 0.62238 0.0
O331 O 0.37467 0.76635 0.63815 0.0
O332 O 0.36983 0.77649 0.55379 0.0
H333 H 0.40415 0.77737 0.43255 0.0
H334 H 0.4216 0.77008 0.4222 0.0
C335 C 0.41051 0.76756 0.43355 0.0
H336 H 0.40632 0.76022 0.40036 0.0
H337 H 0.37557 0.79033 0.43509 0.0
O338 O 0.39238 0.74267 0.69765 0.0
C339 C 0.3694 0.77645 0.60895 0.0
Co340 Co 0.24829 0.38309 0.64628 0.0
Co341 Co 0.23689 0.38319 0.52017 0.0
C342 C 0.26239 0.36613 0.55615 0.0
O343 O 0.26198 0.37058 0.60809 0.0
O344 O 0.25327 0.37004 0.51896 0.0
C345 C 0.26519 0.38835 0.75223 0.0
O346 O 0.27639 0.39161 0.72146 0.0
C347 C 0.23962 0.38958 0.39703 0.0
C348 C 0.21754 0.38792 0.3667 0.0
C349 C 0.23116 0.39083 0.34824 0.0
N350 N 0.23133 0.3863 0.44231 0.0
N351 N 0.21815 0.38535 0.42398 0.0
C352 C 0.25537 0.39087 0.40036 0.0
H353 H 0.25947 0.38662 0.44165 0.0
H354 H 0.25842 0.40215 0.39814 0.0
H355 H 0.26035 0.3853 0.36334 0.0
C356 C 0.24826 0.41417 0.62658 0.0
N357 N 0.2466 0.40073 0.60858 0.0
N358 N 0.24137 0.40075 0.55571 0.0
C359 C 0.23934 0.41422 0.53874 0.0
C360 C 0.24374 0.42311 0.58288 0.0
C361 C 0.25282 0.41837 0.68621 0.0
H362 H 0.24694 0.4121 0.71884 0.0
H363 H 0.26423 0.41613 0.69128 0.0
H364 H 0.25099 0.42978 0.69423 0.0
O365 O 0.22957 0.37396 0.65021 0.0
O366 O 0.22088 0.37422 0.56105 0.0
H367 H 0.22313 0.41235 0.47433 0.0
H368 H 0.23042 0.42992 0.48051 0.0
C369 C 0.23291 0.4185 0.48207 0.0
H370 H 0.24046 0.41622 0.44673 0.0
H371 H 0.20958 0.38285 0.45053 0.0
O372 O 0.25366 0.38517 0.72749 0.0
C373 C 0.21971 0.37121 0.61456 0.0
Co374 Co 0.6078 0.24623 0.62131 0.0
Co375 Co 0.61343 0.23422 0.49772 0.0
C376 C 0.62751 0.26078 0.54168 0.0
O377 O 0.62124 0.2602 0.59035 0.0
O378 O 0.62545 0.25144 0.50287 0.0
C379 C 0.60675 0.26161 0.72897 0.0
O380 O 0.61754 0.26874 0.70838 0.0
C381 C 0.61297 0.23644 0.37291 0.0
C382 C 0.61284 0.21418 0.34419 0.0
C383 C 0.61232 0.22797 0.32414 0.0
N384 N 0.61383 0.22808 0.41966 0.0
N385 N 0.61393 0.21478 0.40235 0.0
C386 C 0.61108 0.25212 0.37592 0.0
H387 H 0.60691 0.25527 0.41893 0.0
H388 H 0.60377 0.25582 0.3415 0.0
H389 H 0.62145 0.25731 0.36933 0.0
C390 C 0.57849 0.24605 0.57865 0.0
N391 N 0.59238 0.24377 0.57108 0.0
N392 N 0.59451 0.23823 0.51959 0.0
C393 C 0.58194 0.23656 0.49298 0.0
C394 C 0.57142 0.24154 0.52946 0.0
C395 C 0.57216 0.25163 0.63346 0.0
H396 H 0.57466 0.2443 0.66955 0.0
H397 H 0.57698 0.26201 0.64386 0.0
H398 H 0.56054 0.25277 0.63017 0.0
O399 O 0.61751 0.22804 0.6345 0.0
O400 O 0.62141 0.21912 0.54713 0.0
H401 H 0.58595 0.22046 0.42994 0.0
H402 H 0.56877 0.2286 0.4232 0.0
C403 C 0.58003 0.23052 0.43355 0.0
H404 H 0.58428 0.23803 0.40118 0.0
H405 H 0.61429 0.20612 0.43035 0.0
O406 O 0.601 0.25215 0.69795 0.0
C407 C 0.62227 0.21828 0.60209 0.0
Co408 Co 0.74927 0.38634 0.36849 0.0
Co409 Co 0.76001 0.38031 0.49377 0.0
C410 C 0.73374 0.36673 0.44667 0.0
O411 O 0.73491 0.37308 0.39831 0.0
O412 O 0.74273 0.36855 0.48701 0.0
C413 C 0.73319 0.3885 0.26239 0.0
O414 O 0.72503 0.37869 0.28469 0.0
C415 C 0.75776 0.37991 0.61905 0.0
C416 C 0.78004 0.38106 0.64709 0.0
C417 C 0.7663 0.38083 0.66762 0.0
N418 N 0.76606 0.37966 0.57198 0.0
N419 N 0.77938 0.38012 0.58892 0.0
C420 C 0.742 0.38114 0.6166 0.0
H421 H 0.73859 0.38537 0.57403 0.0
H422 H 0.73806 0.38813 0.65159 0.0
H423 H 0.73729 0.37051 0.62256 0.0
C424 C 0.75078 0.4157 0.41007 0.0
N425 N 0.75199 0.40172 0.41883 0.0
N426 N 0.75639 0.39937 0.47199 0.0
C427 C 0.758 0.41187 0.49923 0.0
C428 C 0.7545 0.42264 0.46081 0.0
C429 C 0.74736 0.42217 0.35252 0.0
H430 H 0.75419 0.41742 0.31873 0.0
H431 H 0.73623 0.41975 0.34125 0.0
H432 H 0.74898 0.43376 0.35231 0.0
O433 O 0.76725 0.37635 0.3565 0.0
O434 O 0.77527 0.37215 0.44517 0.0
H435 H 0.77294 0.40874 0.56766 0.0
H436 H 0.76244 0.42458 0.57568 0.0
C437 C 0.76232 0.41342 0.56134 0.0
H438 H 0.75474 0.40767 0.58911 0.0
H439 H 0.78798 0.38034 0.56069 0.0
O440 O 0.74352 0.3932 0.29165 0.0
C441 C 0.7766 0.37135 0.39034 0.0
Co442 Co 0.60748 0.74718 0.35363 0.0
Co443 Co 0.6119 0.75827 0.47939 0.0
C444 C 0.62448 0.73075 0.43664 0.0
O445 O 0.61887 0.73168 0.3867 0.0
O446 O 0.62273 0.74037 0.47447 0.0
C447 C 0.60329 0.73058 0.24922 0.0
O448 O 0.60942 0.72014 0.27704 0.0
C449 C 0.60855 0.75419 0.60209 0.0
C450 C 0.61318 0.77517 0.63946 0.0
C451 C 0.6094 0.76148 0.65392 0.0
N452 N 0.6115 0.76319 0.55889 0.0
N453 N 0.61427 0.77573 0.58126 0.0
C454 C 0.60622 0.73869 0.59309 0.0
H455 H 0.61664 0.73337 0.59101 0.0
H456 H 0.60073 0.73686 0.55128 0.0
H457 H 0.60013 0.73384 0.62879 0.0
C458 C 0.57758 0.74961 0.38775 0.0
N459 N 0.59145 0.75076 0.39932 0.0
N460 N 0.59316 0.75595 0.4517 0.0
C461 C 0.58035 0.75853 0.47487 0.0
C462 C 0.57009 0.75451 0.43518 0.0
C463 C 0.57173 0.74458 0.33113 0.0
H464 H 0.5755 0.75162 0.29594 0.0
H465 H 0.57574 0.7338 0.32208 0.0
H466 H 0.56003 0.7445 0.33096 0.0
O467 O 0.61904 0.76458 0.34608 0.0
O468 O 0.6218 0.7731 0.43498 0.0
H469 H 0.58526 0.77336 0.54212 0.0
H470 H 0.56694 0.76799 0.54043 0.0
C471 C 0.57797 0.7644 0.53429 0.0
H472 H 0.58018 0.75607 0.5668 0.0
H473 H 0.61697 0.78461 0.55689 0.0
O474 O 0.60153 0.74236 0.27444 0.0
C475 C 0.62385 0.77393 0.38054 0.0
Co476 Co 0.24797 0.60539 0.35811 0.0
Co477 Co 0.23399 0.61341 0.47644 0.0
C478 C 0.26156 0.62624 0.43502 0.0
O479 O 0.26202 0.61878 0.3892 0.0
O480 O 0.25129 0.62525 0.4704 0.0
C481 C 0.26108 0.60568 0.24834 0.0
O482 O 0.26565 0.61793 0.26729 0.0
C483 C 0.23533 0.61497 0.60157 0.0
C484 C 0.21291 0.61547 0.62775 0.0
C485 C 0.22655 0.61504 0.64957 0.0
N486 N 0.22728 0.6153 0.5537 0.0
N487 N 0.21388 0.61582 0.56951 0.0
C488 C 0.25099 0.61284 0.60054 0.0
H489 H 0.25426 0.60777 0.55935 0.0
H490 H 0.25446 0.60621 0.63756 0.0
H491 H 0.25629 0.62326 0.60373 0.0
C492 C 0.24661 0.57688 0.40957 0.0
N493 N 0.24437 0.59089 0.41182 0.0
N494 N 0.23806 0.59409 0.46089 0.0
C495 C 0.23582 0.58209 0.49106 0.0
C496 C 0.24124 0.57085 0.45966 0.0
C497 C 0.25311 0.56949 0.35893 0.0
H498 H 0.24645 0.57125 0.32002 0.0
H499 H 0.26364 0.57414 0.34997 0.0
H500 H 0.25417 0.55798 0.36656 0.0
O501 O 0.23027 0.6154 0.33924 0.0
O502 O 0.21954 0.62058 0.4219 0.0
H503 H 0.21901 0.58766 0.54873 0.0
H504 H 0.2265 0.57045 0.56263 0.0
C505 C 0.22891 0.58143 0.54934 0.0
H506 H 0.2361 0.58603 0.58212 0.0
H507 H 0.2054 0.61586 0.54052 0.0
O508 O 0.25415 0.59777 0.28256 0.0
C509 C 0.2199 0.62066 0.36674 0.0
Co510 Co 0.38617 0.24761 0.32947 0.0
Co511 Co 0.38023 0.23427 0.45079 0.0
C512 C 0.36559 0.2608 0.40892 0.0
O513 O 0.37218 0.26098 0.3609 0.0
O514 O 0.36772 0.2511 0.44618 0.0
C515 C 0.38579 0.26193 0.22045 0.0
O516 O 0.37383 0.26717 0.2396 0.0
C517 C 0.38006 0.23591 0.57581 0.0
C518 C 0.38039 0.21355 0.60318 0.0
C519 C 0.38057 0.22727 0.62414 0.0
N520 N 0.37956 0.22772 0.52845 0.0
N521 N 0.37959 0.21436 0.54495 0.0
C522 C 0.38175 0.25163 0.57397 0.0
H523 H 0.38595 0.25503 0.53133 0.0
H524 H 0.38894 0.25526 0.6089 0.0
H525 H 0.3713 0.25664 0.58066 0.0
C526 C 0.41527 0.24777 0.37477 0.0
N527 N 0.40139 0.24519 0.38086 0.0
N528 N 0.39911 0.23907 0.43118 0.0
C529 C 0.41159 0.23732 0.45843 0.0
C530 C 0.42218 0.24285 0.42368 0.0
C531 C 0.42175 0.25386 0.32118 0.0
H532 H 0.41971 0.24665 0.2842 0.0
H533 H 0.41666 0.26412 0.31113 0.0
H534 H 0.43331 0.25537 0.32584 0.0
O535 O 0.37718 0.22921 0.31351 0.0
O536 O 0.37308 0.21924 0.39887 0.0
H537 H 0.40757 0.22036 0.5176 0.0
H538 H 0.42458 0.2287 0.52749 0.0
C539 C 0.41333 0.23054 0.51663 0.0
H540 H 0.4088 0.23755 0.55021 0.0
H541 H 0.37951 0.2058 0.51641 0.0
O542 O 0.39305 0.25406 0.25348 0.0
C543 C 0.37261 0.21894 0.34373 0.0
C544 C 0.24591 0.09202 0.76162 0.0
C545 C 0.25838 0.09973 0.7712 0.0
C546 C 0.24162 0.08876 0.7053 0.0
C547 C 0.25473 0.08527 0.55655 0.0
H548 H 0.21795 0.09902 0.50846 0.0
C549 C 0.24514 0.10542 0.33121 0.0
C550 C 0.23303 0.10136 0.30027 0.0
C551 C 0.24662 0.102 0.38931 0.0
C552 C 0.22808 0.09479 0.52151 0.0
H553 H 0.27665 0.1092 0.73041 0.0
H554 H 0.26926 0.1034 0.63188 0.0
H555 H 0.22403 0.09844 0.61164 0.0
H556 H 0.21271 0.09089 0.30664 0.0
H557 H 0.21527 0.08504 0.41006 0.0
H558 H 0.25906 0.08224 0.46659 0.0
C559 C 0.26271 0.10003 0.66779 0.0
C560 C 0.23158 0.09449 0.58037 0.0
C561 C 0.2669 0.10342 0.72397 0.0
C562 C 0.22217 0.09415 0.32943 0.0
C563 C 0.22363 0.09077 0.3883 0.0
C564 C 0.25123 0.08552 0.498 0.0
C565 C 0.24995 0.09283 0.65793 0.0
C566 C 0.24516 0.09032 0.59797 0.0
C567 C 0.23602 0.09445 0.41821 0.0
C568 C 0.23814 0.09092 0.47986 0.0
H569 H 0.2395 0.08846 0.79761 0.0
H570 H 0.23185 0.08303 0.69874 0.0
H571 H 0.26516 0.08175 0.56925 0.0
H572 H 0.25366 0.11114 0.31042 0.0
H573 H 0.2561 0.10532 0.4118 0.0
C574 C 0.87452 0.25138 0.74966 0.0
C575 C 0.88171 0.26306 0.77267 0.0
C576 C 0.87716 0.24694 0.69306 0.0
C577 C 0.89166 0.25948 0.55381 0.0
H578 H 0.8914 0.21958 0.51565 0.0
C579 C 0.90129 0.24136 0.32178 0.0
C580 C 0.89037 0.23285 0.29969 0.0
C581 C 0.90278 0.24326 0.38139 0.0
C582 C 0.89153 0.23074 0.52582 0.0
H583 H 0.89715 0.27936 0.75501 0.0
H584 H 0.902 0.27148 0.65631 0.0
H585 H 0.88872 0.22698 0.61651 0.0
H586 H 0.87335 0.21858 0.32287 0.0
H587 H 0.87599 0.22192 0.42709 0.0
H588 H 0.89434 0.26326 0.46323 0.0
C589 C 0.89418 0.26584 0.68154 0.0
C590 C 0.88992 0.235 0.58342 0.0
C591 C 0.89142 0.27036 0.73799 0.0
C592 C 0.8818 0.22529 0.33852 0.0
C593 C 0.88334 0.22716 0.39825 0.0
C594 C 0.89339 0.25523 0.49645 0.0
C595 C 0.88709 0.25405 0.65843 0.0
C596 C 0.88974 0.24943 0.59793 0.0
C597 C 0.89346 0.23662 0.42004 0.0
C598 C 0.89316 0.24083 0.48176 0.0
H599 H 0.86674 0.24578 0.77519 0.0
H600 H 0.87126 0.23805 0.67619 0.0
H601 H 0.89134 0.27068 0.56319 0.0
H602 H 0.9082 0.24718 0.29304 0.0
H603 H 0.91084 0.25041 0.39718 0.0
C604 C 0.75686 0.90102 0.33365 0.0
C605 C 0.76424 0.88938 0.31114 0.0
C606 C 0.75507 0.90251 0.39328 0.0
C607 C 0.76628 0.88974 0.53715 0.0
H608 H 0.72644 0.89291 0.57383 0.0
C609 C 0.74422 0.87429 0.76032 0.0
C610 C 0.73334 0.88256 0.78364 0.0
C611 C 0.74876 0.87649 0.70356 0.0
C612 C 0.73763 0.89228 0.56463 0.0
H613 H 0.77674 0.87097 0.33358 0.0
H614 H 0.7736 0.87361 0.43789 0.0
H615 H 0.73422 0.89553 0.47411 0.0
H616 H 0.71846 0.89938 0.76637 0.0
H617 H 0.72653 0.90344 0.66727 0.0
H618 H 0.76968 0.88639 0.62776 0.0
C619 C 0.76915 0.88152 0.40934 0.0
C620 C 0.74209 0.89379 0.50744 0.0
C621 C 0.77089 0.87999 0.34958 0.0
C622 C 0.72683 0.89284 0.74905 0.0
C623 C 0.73146 0.89514 0.6924 0.0
C624 C 0.76183 0.88835 0.59457 0.0
C625 C 0.76072 0.89246 0.43148 0.0
C626 C 0.75642 0.89236 0.49304 0.0
C627 C 0.74254 0.88704 0.66912 0.0
C628 C 0.74742 0.88938 0.6088 0.0
H629 H 0.75177 0.90856 0.30519 0.0
H630 H 0.74873 0.91118 0.40941 0.0
H631 H 0.7774 0.88867 0.52715 0.0
H632 H 0.74919 0.86611 0.78598 0.0
H633 H 0.75705 0.86982 0.68652 0.0
C634 C 0.09723 0.7705 0.32774 0.0
C635 C 0.0982 0.75785 0.29618 0.0
C636 C 0.0945 0.77016 0.38738 0.0
C637 C 0.08337 0.74581 0.50639 0.0
H638 H 0.10979 0.7674 0.59935 0.0
C639 C 0.10725 0.7267 0.7202 0.0
C640 C 0.1062 0.73575 0.76811 0.0
C641 C 0.10333 0.73137 0.66518 0.0
C642 C 0.10219 0.7615 0.57393 0.0
H643 H 0.09627 0.73503 0.30153 0.0
H644 H 0.09191 0.73443 0.40437 0.0
H645 H 0.10735 0.77262 0.49614 0.0
H646 H 0.09906 0.75643 0.79657 0.0
H647 H 0.09318 0.76488 0.69951 0.0
H648 H 0.07912 0.73396 0.58353 0.0
C649 C 0.09302 0.74464 0.38371 0.0
C650 C 0.10071 0.76453 0.515 0.0
C651 C 0.09573 0.74498 0.3246 0.0
C652 C 0.10081 0.74946 0.76014 0.0
C653 C 0.09717 0.75424 0.70488 0.0
C654 C 0.08505 0.74263 0.56494 0.0
C655 C 0.09262 0.75718 0.4161 0.0
C656 C 0.0917 0.75632 0.48014 0.0
C657 C 0.09837 0.7452 0.65716 0.0
C658 C 0.09482 0.75014 0.59852 0.0
H659 H 0.099 0.78058 0.30683 0.0
H660 H 0.09414 0.78001 0.41116 0.0
H661 H 0.07607 0.73954 0.481 0.0
H662 H 0.11113 0.71601 0.72526 0.0
H663 H 0.10437 0.72426 0.62867 0.0
C664 C 0.26812 0.87631 0.29307 0.0
C665 C 0.26242 0.88411 0.24695 0.0
C666 C 0.2642 0.87931 0.35003 0.0
C667 C 0.23587 0.89477 0.43631 0.0
H668 H 0.2644 0.89596 0.55678 0.0
C669 C 0.24353 0.90398 0.69876 0.0
C670 C 0.23399 0.89385 0.7199 0.0
C671 C 0.24542 0.90574 0.63932 0.0
C672 C 0.25632 0.89588 0.52355 0.0
H673 H 0.24903 0.9019 0.22469 0.0
H674 H 0.24182 0.9068 0.32396 0.0
H675 H 0.27152 0.89287 0.4562 0.0
H676 H 0.21795 0.8786 0.6955 0.0
H677 H 0.22134 0.88163 0.59144 0.0
H678 H 0.22065 0.89748 0.50414 0.0
C679 C 0.24905 0.89816 0.31584 0.0
C680 C 0.26039 0.89393 0.46612 0.0
C681 C 0.25307 0.89524 0.25895 0.0
C682 C 0.22545 0.88643 0.6805 0.0
C683 C 0.22735 0.88819 0.6209 0.0
C684 C 0.23177 0.8966 0.49399 0.0
C685 C 0.25454 0.8902 0.36184 0.0
C686 C 0.25021 0.89316 0.4221 0.0
C687 C 0.23779 0.89742 0.59991 0.0
C688 C 0.24196 0.89701 0.53818 0.0
H689 H 0.27544 0.86776 0.28503 0.0
H690 H 0.26854 0.87296 0.38479 0.0
H691 H 0.22782 0.89416 0.40307 0.0
H692 H 0.25009 0.91005 0.72808 0.0
H693 H 0.25333 0.91313 0.62419 0.0
C694 C 0.10958 0.22026 0.63977 0.0
C695 C 0.10235 0.23021 0.67376 0.0
C696 C 0.10864 0.22076 0.57935 0.0
C697 C 0.08939 0.23741 0.45643 0.0
H698 H 0.12627 0.2374 0.38355 0.0
C699 C 0.11837 0.26218 0.24291 0.0
C700 C 0.1087 0.2585 0.19943 0.0
C701 C 0.11689 0.25675 0.29883 0.0
C702 C 0.1159 0.23746 0.4033 0.0
H703 H 0.08753 0.24767 0.67149 0.0
H704 H 0.08605 0.24864 0.5666 0.0
H705 H 0.12405 0.23045 0.48468 0.0
H706 H 0.08935 0.24711 0.18117 0.0
H707 H 0.08698 0.23729 0.27822 0.0
H708 H 0.08136 0.24512 0.37574 0.0
C709 C 0.0924 0.24043 0.58624 0.0
C710 C 0.11459 0.23326 0.46099 0.0
C711 C 0.09335 0.23994 0.64647 0.0
C712 C 0.09728 0.24967 0.21319 0.0
C713 C 0.09579 0.24423 0.26907 0.0
C714 C 0.0907 0.24163 0.39869 0.0
C715 C 0.10042 0.23117 0.55198 0.0
C716 C 0.10137 0.23349 0.48857 0.0
C717 C 0.10563 0.24763 0.3124 0.0
C718 C 0.10403 0.242 0.37195 0.0
H719 H 0.11651 0.21255 0.65958 0.0
H720 H 0.11476 0.21333 0.55401 0.0
H721 H 0.07904 0.23758 0.47637 0.0
H722 H 0.12719 0.26909 0.23345 0.0
H723 H 0.12448 0.25981 0.33162 0.0
C724 C 0.76837 0.11158 0.65764 0.0
C725 C 0.76049 0.10333 0.69656 0.0
C726 C 0.7666 0.10991 0.59792 0.0
C727 C 0.73841 0.10045 0.49958 0.0
H728 H 0.76686 0.10382 0.37975 0.0
C729 C 0.72329 0.10253 0.25823 0.0
C730 C 0.73091 0.11193 0.22327 0.0
C731 C 0.72779 0.09962 0.3146 0.0
C732 C 0.75879 0.10299 0.41277 0.0
H733 H 0.7457 0.08588 0.70355 0.0
H734 H 0.74264 0.08302 0.59944 0.0
H735 H 0.7741 0.10121 0.48091 0.0
H736 H 0.74879 0.12617 0.22006 0.0
H737 H 0.75648 0.12142 0.31895 0.0
H738 H 0.72308 0.10284 0.43255 0.0
C739 C 0.74997 0.09094 0.61511 0.0
C740 C 0.76295 0.10141 0.47053 0.0
C741 C 0.75176 0.09256 0.67469 0.0
C742 C 0.74292 0.11863 0.24583 0.0
C743 C 0.74735 0.11585 0.30238 0.0
C744 C 0.73425 0.10215 0.44208 0.0
C745 C 0.75692 0.09998 0.57628 0.0
C746 C 0.75278 0.10025 0.51448 0.0
C747 C 0.73987 0.10626 0.33738 0.0
C748 C 0.74438 0.1036 0.39802 0.0
H749 H 0.77525 0.1199 0.67315 0.0
H750 H 0.77208 0.11704 0.56889 0.0
H751 H 0.73033 0.09987 0.53272 0.0
H752 H 0.71403 0.09718 0.24152 0.0
H753 H 0.72187 0.09206 0.34008 0.0
C754 C 0.8903 0.77461 0.66337 0.0
C755 C 0.89608 0.76387 0.69801 0.0
C756 C 0.89097 0.7737 0.60299 0.0
C757 C 0.90712 0.75391 0.48053 0.0
H758 H 0.87046 0.75937 0.40907 0.0
C759 C 0.87425 0.73411 0.26732 0.0
C760 C 0.88418 0.73656 0.22342 0.0
C761 C 0.87669 0.73902 0.32349 0.0
C762 C 0.88076 0.75778 0.42842 0.0
H763 H 0.90818 0.74441 0.69674 0.0
H764 H 0.90919 0.74275 0.59184 0.0
H765 H 0.87397 0.76599 0.50994 0.0
H766 H 0.90489 0.74516 0.20461 0.0
H767 H 0.90901 0.75407 0.30219 0.0
H768 H 0.91371 0.7451 0.39955 0.0
C769 C 0.90416 0.7519 0.61101 0.0
C770 C 0.88284 0.76177 0.48597 0.0
C771 C 0.90349 0.7528 0.67125 0.0
C772 C 0.8968 0.7436 0.23702 0.0
C773 C 0.89927 0.7485 0.29317 0.0
C774 C 0.90504 0.74992 0.42288 0.0
C775 C 0.89747 0.76207 0.57621 0.0
C776 C 0.89596 0.75964 0.51302 0.0
C777 C 0.88919 0.74636 0.33691 0.0
C778 C 0.89175 0.75155 0.39661 0.0
H779 H 0.88463 0.78335 0.6827 0.0
H780 H 0.88594 0.78184 0.57724 0.0
H781 H 0.91739 0.75224 0.50005 0.0
H782 H 0.8645 0.72857 0.25802 0.0
H783 H 0.86885 0.73695 0.35656 0.0
C784 C 0.74737 0.59514 0.26984 0.0
C785 C 0.75735 0.60601 0.27727 0.0
C786 C 0.74301 0.59119 0.21435 0.0
C787 C 0.75182 0.58483 0.07315 0.0
H788 H 0.72058 0.60578 0.00662 0.0
C789 C 0.74679 0.59456 0.83113 0.0
C790 C 0.7335 0.59649 0.80521 0.0
C791 C 0.74794 0.5921 0.89035 0.0
C792 C 0.72907 0.59953 0.02476 0.0
H793 H 0.77127 0.62057 0.23274 0.0
H794 H 0.76375 0.61344 0.13536 0.0
H795 H 0.72621 0.60848 0.10936 0.0
H796 H 0.71093 0.59646 0.82057 0.0
H797 H 0.71294 0.59194 0.92474 0.0
H798 H 0.75498 0.57607 0.98879 0.0
C799 C 0.75914 0.60828 0.17277 0.0
C800 C 0.73232 0.60118 0.08338 0.0
C801 C 0.76341 0.61233 0.22821 0.0
C802 C 0.72132 0.59515 0.83943 0.0
C803 C 0.72248 0.59261 0.89904 0.0
C804 C 0.7485 0.58306 0.01466 0.0
C805 C 0.74881 0.59782 0.16571 0.0
C806 C 0.74397 0.59417 0.10724 0.0
C807 C 0.73584 0.59137 0.92531 0.0
C808 C 0.73743 0.59083 0.98927 0.0
H809 H 0.74302 0.58959 0.30674 0.0
H810 H 0.73514 0.58296 0.20936 0.0
H811 H 0.76084 0.57933 0.09122 0.0
H812 H 0.75642 0.59543 0.80607 0.0
H813 H 0.75841 0.59145 0.90902 0.0
C814 C 0.37247 0.75274 0.24433 0.0
C815 C 0.3796 0.76448 0.26715 0.0
C816 C 0.37499 0.74837 0.18751 0.0
C817 C 0.38922 0.76108 0.04768 0.0
H818 H 0.38909 0.7212 0.00932 0.0
C819 C 0.39948 0.74276 0.81585 0.0
C820 C 0.38862 0.73424 0.79334 0.0
C821 C 0.40073 0.74479 0.87552 0.0
C822 C 0.38918 0.73236 0.01954 0.0
H823 H 0.3948 0.78096 0.24888 0.0
H824 H 0.39946 0.7732 0.14991 0.0
H825 H 0.38637 0.72855 0.11019 0.0
H826 H 0.37144 0.72012 0.81594 0.0
H827 H 0.3737 0.72364 0.92021 0.0
H828 H 0.39197 0.76489 0.9571 0.0
C829 C 0.39176 0.76747 0.17539 0.0
C830 C 0.38753 0.73659 0.07716 0.0
C831 C 0.38912 0.77191 0.23204 0.0
C832 C 0.37984 0.72684 0.8319 0.0
C833 C 0.38116 0.7288 0.89166 0.0
C834 C 0.391 0.75685 0.99029 0.0
C835 C 0.38474 0.75562 0.15244 0.0
C836 C 0.38732 0.75102 0.09179 0.0
C837 C 0.39125 0.73825 0.91381 0.0
C838 C 0.39082 0.74247 0.97553 0.0
H839 H 0.36485 0.74702 0.27025 0.0
H840 H 0.36913 0.73943 0.17086 0.0
H841 H 0.38887 0.77228 0.05709 0.0
H842 H 0.40652 0.74851 0.78736 0.0
H843 H 0.40875 0.75195 0.8916 0.0
C844 C 0.22865 0.3862 0.24285 0.0
C845 C 0.23548 0.39344 0.28781 0.0
C846 C 0.23294 0.38807 0.18566 0.0
C847 C 0.26328 0.39764 0.09741 0.0
H848 H 0.23503 0.39943 0.97597 0.0
C849 C 0.27378 0.39887 0.84575 0.0
C850 C 0.26521 0.3892 0.8158 0.0
C851 C 0.27171 0.4011 0.90522 0.0
C852 C 0.24304 0.39899 0.00949 0.0
H853 H 0.25142 0.40919 0.30767 0.0
H854 H 0.25922 0.41212 0.20758 0.0
H855 H 0.22774 0.40093 0.07693 0.0
H856 H 0.24872 0.37343 0.8247 0.0
H857 H 0.24527 0.37721 0.92763 0.0
H858 H 0.27853 0.39525 0.02923 0.0
C859 C 0.25075 0.40478 0.217 0.0
C860 C 0.23887 0.39983 0.06711 0.0
C861 C 0.24637 0.40298 0.27431 0.0
C862 C 0.2553 0.38114 0.84656 0.0
C863 C 0.25327 0.38333 0.90537 0.0
C864 C 0.26748 0.3968 0.03938 0.0
C865 C 0.2441 0.39728 0.17225 0.0
C866 C 0.24888 0.39867 0.11163 0.0
C867 C 0.26107 0.39367 0.93477 0.0
C868 C 0.2573 0.39696 0.99522 0.0
H869 H 0.2202 0.37882 0.25201 0.0
H870 H 0.22772 0.38203 0.152 0.0
H871 H 0.2712 0.39671 0.13108 0.0
H872 H 0.28149 0.4052 0.8228 0.0
H873 H 0.2779 0.40906 0.92736 0.0
C874 C 0.61745 0.24402 0.24098 0.0
C875 C 0.61002 0.23248 0.26383 0.0
C876 C 0.61488 0.24858 0.18448 0.0
C877 C 0.60023 0.23636 0.04524 0.0
H878 H 0.60159 0.27622 0.00653 0.0
C879 C 0.59177 0.25434 0.81266 0.0
C880 C 0.603 0.26248 0.79093 0.0
C881 C 0.58999 0.25267 0.87221 0.0
C882 C 0.60114 0.26507 0.01687 0.0
H883 H 0.59418 0.21658 0.24612 0.0
H884 H 0.58945 0.22467 0.14756 0.0
H885 H 0.60385 0.26882 0.10763 0.0
H886 H 0.6203 0.27636 0.81448 0.0
H887 H 0.61719 0.27338 0.91871 0.0
H888 H 0.59767 0.23259 0.95463 0.0
C889 C 0.59741 0.2301 0.17283 0.0
C890 C 0.60252 0.26082 0.07459 0.0
C891 C 0.60009 0.22546 0.22918 0.0
C892 C 0.61162 0.26994 0.82991 0.0
C893 C 0.60981 0.26828 0.88961 0.0
C894 C 0.59874 0.24062 0.98777 0.0
C895 C 0.60478 0.24173 0.14982 0.0
C896 C 0.6023 0.24639 0.08927 0.0
C897 C 0.59936 0.25914 0.91113 0.0
C898 C 0.59937 0.25499 0.97291 0.0
H899 H 0.62539 0.2494 0.26653 0.0
H900 H 0.621 0.25733 0.16767 0.0
H901 H 0.60026 0.22517 0.05477 0.0
H902 H 0.5848 0.24864 0.78372 0.0
H903 H 0.58168 0.24579 0.88778 0.0
C904 C 0.74067 0.40306 0.17788 0.0
C905 C 0.73222 0.39216 0.20041 0.0
C906 C 0.74224 0.40464 0.11821 0.0
C907 C 0.72941 0.39304 0.97437 0.0
H908 H 0.7693 0.39338 0.9363 0.0
C909 C 0.75049 0.3756 0.75154 0.0
C910 C 0.76186 0.38316 0.72798 0.0
C911 C 0.74594 0.37833 0.80793 0.0
C912 C 0.75811 0.39354 0.94591 0.0
H913 H 0.71771 0.37528 0.17827 0.0
H914 H 0.72057 0.37796 0.07383 0.0
H915 H 0.76196 0.39648 0.0362 0.0
H916 H 0.77752 0.39934 0.74444 0.0
H917 H 0.7695 0.40425 0.84282 0.0
H918 H 0.72562 0.38987 0.88384 0.0
C919 C 0.72596 0.38528 0.10233 0.0
C920 C 0.7539 0.39534 0.00322 0.0
C921 C 0.72436 0.38371 0.16216 0.0
C922 C 0.76877 0.39332 0.76189 0.0
C923 C 0.76416 0.39612 0.81813 0.0
C924 C 0.73364 0.39131 0.91679 0.0
C925 C 0.73541 0.39535 0.07997 0.0
C926 C 0.73953 0.39494 0.01817 0.0
C927 C 0.75268 0.38867 0.84176 0.0
C928 C 0.74805 0.39135 0.9021 0.0
H929 H 0.74667 0.4099 0.20632 0.0
H930 H 0.74935 0.41269 0.10203 0.0
H931 H 0.71827 0.39277 0.98472 0.0
H932 H 0.7452 0.36749 0.7266 0.0
H933 H 0.73728 0.37217 0.82532 0.0
C934 C 0.60542 0.7183 0.15344 0.0
C935 C 0.59998 0.72943 0.18691 0.0
C936 C 0.60413 0.71856 0.09308 0.0
C937 C 0.58652 0.73707 0.97046 0.0
H938 H 0.62256 0.73185 0.89382 0.0
C939 C 0.61737 0.75822 0.7557 0.0
C940 C 0.60715 0.75598 0.71279 0.0
C941 C 0.61545 0.75274 0.81127 0.0
C942 C 0.61242 0.73333 0.91461 0.0
H943 H 0.58793 0.7489 0.18402 0.0
H944 H 0.58584 0.74941 0.07928 0.0
H945 H 0.62006 0.72543 -0.00454 0.0
H946 H 0.58655 0.74712 0.69448 0.0
H947 H 0.58325 0.73727 0.79151 0.0
H948 H 0.57911 0.74567 0.89028 0.0
C949 C 0.59105 0.74047 0.09925 0.0
C950 C 0.61092 0.72946 0.9726 0.0
C951 C 0.59237 0.74025 0.15936 0.0
C952 C 0.59477 0.74858 0.72658 0.0
C953 C 0.59282 0.7431 0.78217 0.0
C954 C 0.58802 0.74094 0.9124 0.0
C955 C 0.59731 0.72988 0.06532 0.0
C956 C 0.59807 0.73164 0.00159 0.0
C957 C 0.60319 0.74504 0.82499 0.0
C958 C 0.60111 0.73947 0.88439 0.0
H959 H 0.61125 0.70977 0.17352 0.0
H960 H 0.60889 0.71015 0.068 0.0
H961 H 0.57644 0.73874 0.99152 0.0
H962 H 0.62692 0.76406 0.74602 0.0
H963 H 0.62348 0.75468 0.84373 0.0
C964 C 0.26835 0.61167 0.14715 0.0
C965 C 0.26107 0.60271 0.18544 0.0
C966 C 0.2661 0.61073 0.08745 0.0
C967 C 0.2378 0.60154 0.98844 0.0
H968 H 0.26611 0.60635 0.86881 0.0
C969 C 0.223 0.60368 0.74597 0.0
C970 C 0.23058 0.61309 0.71082 0.0
C971 C 0.22727 0.60114 0.80299 0.0
C972 C 0.25806 0.60516 0.90175 0.0
H973 H 0.24656 0.58501 0.19082 0.0
H974 H 0.24261 0.58343 0.08655 0.0
H975 H 0.27345 0.60328 0.96951 0.0
H976 H 0.24805 0.62782 0.70824 0.0
H977 H 0.25535 0.62369 0.80818 0.0
H978 H 0.22238 0.60394 0.9216 0.0
C979 C 0.24993 0.59127 0.10288 0.0
C980 C 0.26228 0.6033 0.95931 0.0
C981 C 0.25228 0.59212 0.16254 0.0
C982 C 0.24223 0.62026 0.73411 0.0
C983 C 0.24643 0.61784 0.79128 0.0
C984 C 0.23357 0.60352 0.93107 0.0
C985 C 0.25646 0.60087 0.06497 0.0
C986 C 0.25219 0.60158 0.00326 0.0
C987 C 0.23909 0.60814 0.82629 0.0
C988 C 0.24364 0.60548 0.88704 0.0
H989 H 0.27526 0.61988 0.16342 0.0
H990 H 0.27125 0.61828 0.05926 0.0
H991 H 0.22977 0.6005 0.02157 0.0
H992 H 0.214 0.59797 0.72885 0.0
H993 H 0.22144 0.59349 0.8284 0.0
C994 C 0.40063 0.2547 0.13614 0.0
C995 C 0.38923 0.26255 0.15807 0.0
C996 C 0.40216 0.25274 0.07658 0.0
C997 C 0.39026 0.26436 0.93198 0.0
H998 H 0.39212 0.22444 0.89517 0.0
C999 C 0.37471 0.24292 0.7077 0.0
C1000 C 0.38248 0.2316 0.68493 0.0
C1001 C 0.37699 0.24743 0.76448 0.0
C1002 C 0.39187 0.23564 0.9044 0.0
H1003 H 0.37131 0.27562 0.1346 0.0
H1004 H 0.37405 0.27223 0.03045 0.0
H1005 H 0.39468 0.23209 0.99512 0.0
H1006 H 0.39854 0.21598 0.70323 0.0
H1007 H 0.40278 0.22401 0.80227 0.0
H1008 H 0.38738 0.26791 0.8412 0.0
C1009 C 0.38173 0.26753 0.0594 0.0
C1010 C 0.39334 0.24003 0.96174 0.0
C1011 C 0.38014 0.26942 0.11907 0.0
C1012 C 0.39238 0.2247 0.72007 0.0
C1013 C 0.39478 0.2293 0.77672 0.0
C1014 C 0.38893 0.25998 0.87442 0.0
C1015 C 0.39241 0.25869 0.03783 0.0
C1016 C 0.39236 0.2544 0.9762 0.0
C1017 C 0.38714 0.24076 0.79955 0.0
C1018 C 0.38949 0.24554 0.86008 0.0
H1019 H 0.40793 0.24939 0.16499 0.0
H1020 H 0.41063 0.24607 0.06092 0.0
H1021 H 0.38956 0.27551 0.942 0.0
H1022 H 0.36677 0.24819 0.6818 0.0
H1023 H 0.37066 0.25604 0.78109 0.0
C1024 C 0.29189 0.13203 0.17186 0.0
C1025 C 0.28863 0.13113 0.11252 0.0
C1026 C 0.30381 0.13935 0.19057 0.0
C1027 C 0.32635 0.16863 0.14847 0.0
H1028 H 0.34834 0.15671 0.28168 0.0
C1029 C 0.36706 0.20562 0.25294 0.0
C1030 C 0.36628 0.20669 0.31365 0.0
C1031 C 0.36019 0.1947 0.22376 0.0
C1032 C 0.34227 0.16019 0.24452 0.0
H1033 H 0.29563 0.1368 0.0261 0.0
H1034 H 0.31652 0.14976 0.05911 0.0
H1035 H 0.33165 0.14031 0.23718 0.0
H1036 H 0.35812 0.19676 0.39148 0.0
H1037 H 0.34587 0.17785 0.34045 0.0
H1038 H 0.3365 0.18866 0.157 0.0
C1039 C 0.30975 0.1448 0.09098 0.0
C1040 C 0.33276 0.1508 0.21896 0.0
C1041 C 0.29782 0.13737 0.07212 0.0
C1042 C 0.35891 0.19626 0.3447 0.0
C1043 C 0.35198 0.18536 0.31544 0.0
C1044 C 0.33583 0.17802 0.17406 0.0
C1045 C 0.31275 0.146 0.15048 0.0
C1046 C 0.32443 0.15505 0.17164 0.0
C1047 C 0.35232 0.18462 0.25456 0.0
C1048 C 0.34364 0.17403 0.22327 0.0
H1049 H 0.28511 0.12727 0.20421 0.0
H1050 H 0.3057 0.14024 0.23672 0.0
H1051 H 0.31996 0.17227 0.11252 0.0
H1052 H 0.3728 0.21337 0.22767 0.0
H1053 H 0.36086 0.19429 0.17694 0.0
C1054 C 0.79891 0.35724 0.4004 0.0
C1055 C 0.78897 0.36408 0.36495 0.0
C1056 C 0.80998 0.34955 0.37575 0.0
C1057 C 0.82942 0.34346 0.23833 0.0
H1058 H 0.83492 0.30588 0.30105 0.0
C1059 C 0.86556 0.28999 0.20275 0.0
C1060 C 0.86436 0.28846 0.14234 0.0
C1061 C 0.85829 0.30069 0.23159 0.0
C1062 C 0.83373 0.31643 0.28354 0.0
H1063 H 0.7832 0.36866 0.27576 0.0
H1064 H 0.80233 0.35515 0.2331 0.0
H1065 H 0.81897 0.32212 0.3495 0.0
H1066 H 0.85502 0.29732 0.06456 0.0
H1067 H 0.8421 0.31587 0.11517 0.0
H1068 H 0.84398 0.33759 0.17155 0.0
C1069 C 0.80168 0.35582 0.27988 0.0
C1070 C 0.82458 0.32575 0.3114 0.0
C1071 C 0.79063 0.36347 0.30443 0.0
C1072 C 0.85615 0.2982 0.11113 0.0
C1073 C 0.84881 0.30888 0.14012 0.0
C1074 C 0.8386 0.33412 0.21044 0.0
C1075 C 0.81134 0.34858 0.3152 0.0
C1076 C 0.82216 0.33929 0.28867 0.0
C1077 C 0.84959 0.31006 0.20081 0.0
C1078 C 0.8407 0.32043 0.23233 0.0
H1079 H 0.798 0.35757 0.44717 0.0
H1080 H 0.81737 0.34421 0.4041 0.0
H1081 H 0.8279 0.35389 0.2202 0.0
H1082 H 0.87194 0.28279 0.2281 0.0
H1083 H 0.85935 0.30148 0.27822 0.0
C1084 C 0.63353 0.78746 0.29626 0.0
C1085 C 0.63226 0.78574 0.35657 0.0
C1086 C 0.64202 0.79813 0.2733 0.0
C1087 C 0.67288 0.81958 0.30904 0.0
H1088 H 0.66195 0.8411 0.17318 0.0
C1089 C 0.70949 0.86179 0.21154 0.0
C1090 C 0.71075 0.86201 0.15083 0.0
C1091 C 0.69896 0.85381 0.23827 0.0
C1092 C 0.6652 0.8351 0.21084 0.0
H1093 H 0.63864 0.79416 0.44006 0.0
H1094 H 0.65351 0.8128 0.39975 0.0
H1095 H 0.64509 0.82488 0.21761 0.0
H1096 H 0.70171 0.85422 0.07055 0.0
H1097 H 0.6835 0.84004 0.1173 0.0
H1098 H 0.69307 0.82946 0.30164 0.0
C1099 C 0.64799 0.80579 0.37037 0.0
C1100 C 0.65553 0.82584 0.23635 0.0
C1101 C 0.63943 0.79515 0.39341 0.0
C1102 C 0.70104 0.85429 0.11741 0.0
C1103 C 0.69053 0.84623 0.14422 0.0
C1104 C 0.68256 0.82878 0.28343 0.0
C1105 C 0.64948 0.80729 0.31007 0.0
C1106 C 0.65932 0.81789 0.28538 0.0
C1107 C 0.68947 0.84578 0.20501 0.0
C1108 C 0.67888 0.83655 0.23371 0.0
H1109 H 0.62812 0.78044 0.26659 0.0
H1110 H 0.64307 0.79893 0.22667 0.0
H1111 H 0.67618 0.81344 0.34624 0.0
H1112 H 0.7167 0.86773 0.23864 0.0
H1113 H 0.69828 0.8539 0.28512 0.0
C1114 C 0.20855 0.62705 0.27234 0.0
C1115 C 0.20832 0.62729 0.33331 0.0
C1116 C 0.19817 0.63401 0.24034 0.0
C1117 C 0.16275 0.6503 0.25067 0.0
H1118 H 0.17644 0.6744 0.12685 0.0
C1119 C 0.13312 0.69936 0.1736 0.0
C1120 C 0.13339 0.70316 0.1147 0.0
C1121 C 0.14081 0.68782 0.19354 0.0
C1122 C 0.17237 0.66751 0.1604 0.0
H1123 H 0.1967 0.63467 0.40839 0.0
H1124 H 0.17866 0.64699 0.35245 0.0
H1125 H 0.19267 0.65835 0.17535 0.0
H1126 H 0.14158 0.69747 0.03013 0.0
H1127 H 0.15517 0.6772 0.06533 0.0
H1128 H 0.14254 0.65982 0.23685 0.0
C1129 C 0.18681 0.64127 0.32944 0.0
C1130 C 0.18168 0.65832 0.18831 0.0
C1131 C 0.19721 0.63429 0.36153 0.0
C1132 C 0.14121 0.69485 0.07579 0.0
C1133 C 0.14901 0.68329 0.09594 0.0
C1134 C 0.15344 0.65949 0.22273 0.0
C1135 C 0.18731 0.64138 0.26851 0.0
C1136 C 0.17705 0.64987 0.23471 0.0
C1137 C 0.149 0.67976 0.15518 0.0
C1138 C 0.15824 0.66846 0.17835 0.0
H1139 H 0.21689 0.62165 0.2491 0.0
H1140 H 0.19873 0.63373 0.19347 0.0
H1141 H 0.15881 0.64372 0.28551 0.0
H1142 H 0.12714 0.70546 0.20479 0.0
H1143 H 0.14073 0.68553 0.23954 0.0
C1144 C 0.36361 0.78906 0.70104 0.0
C1145 C 0.3624 0.78813 0.64042 0.0
C1146 C 0.35638 0.79947 0.7317 0.0
C1147 C 0.33702 0.83327 0.71603 0.0
H1148 H 0.31799 0.82057 0.85545 0.0
C1149 C 0.29041 0.86297 0.81982 0.0
C1150 C 0.28927 0.86318 0.88059 0.0
C1151 C 0.30104 0.85522 0.79277 0.0
C1152 C 0.32343 0.82438 0.81724 0.0
H1153 H 0.35297 0.79771 0.5643 0.0
H1154 H 0.34009 0.81576 0.61809 0.0
H1155 H 0.33332 0.80441 0.80327 0.0
H1156 H 0.29881 0.85585 0.96064 0.0
H1157 H 0.31745 0.84232 0.9132 0.0
H1158 H 0.32678 0.85316 0.72948 0.0
C1159 C 0.3468 0.80853 0.64178 0.0
C1160 C 0.33222 0.81511 0.78723 0.0
C1161 C 0.35412 0.79813 0.61097 0.0
C1162 C 0.29933 0.85584 0.91375 0.0
C1163 C 0.30997 0.84804 0.8866 0.0
C1164 C 0.32819 0.84255 0.74605 0.0
C1165 C 0.34768 0.80917 0.70261 0.0
C1166 C 0.339 0.81938 0.73595 0.0
C1167 C 0.3108 0.84748 0.82579 0.0
C1168 C 0.32117 0.83815 0.79661 0.0
H1169 H 0.37005 0.78164 0.7251 0.0
H1170 H 0.35752 0.79984 0.77838 0.0
H1171 H 0.34226 0.83696 0.67716 0.0
H1172 H 0.28288 0.86854 0.79286 0.0
H1173 H 0.3013 0.85488 0.74586 0.0
C1174 C 0.13569 0.299 0.86904 0.0
C1175 C 0.1275 0.2896 0.83606 0.0
C1176 C 0.14306 0.30998 0.84205 0.0
C1177 C 0.1583 0.31876 0.70003 0.0
H1178 H 0.16603 0.35481 0.77298 0.0
C1179 C 0.19645 0.35912 0.59786 0.0
C1180 C 0.20676 0.36426 0.63629 0.0
C1181 C 0.18464 0.35189 0.61894 0.0
C1182 C 0.16394 0.34478 0.75209 0.0
H1183 H 0.11983 0.28492 0.74948 0.0
H1184 H 0.13242 0.30419 0.70279 0.0
H1185 H 0.14886 0.33876 0.81664 0.0
H1186 H 0.21245 0.36633 0.7271 0.0
H1187 H 0.19199 0.35369 0.7635 0.0
H1188 H 0.17358 0.32462 0.63628 0.0
C1189 C 0.13349 0.30287 0.74921 0.0
C1190 C 0.15414 0.33558 0.77714 0.0
C1191 C 0.12624 0.29185 0.77605 0.0
C1192 C 0.20476 0.36244 0.69621 0.0
C1193 C 0.19295 0.35531 0.7172 0.0
C1194 C 0.16803 0.32797 0.67491 0.0
C1195 C 0.14228 0.31184 0.78162 0.0
C1196 C 0.15144 0.32233 0.75204 0.0
C1197 C 0.18287 0.34977 0.67881 0.0
C1198 C 0.17118 0.34093 0.70136 0.0
H1199 H 0.13686 0.29756 0.91537 0.0
H1200 H 0.14984 0.3166 0.86828 0.0
H1201 H 0.15665 0.30855 0.67997 0.0
H1202 H 0.19763 0.36042 0.55147 0.0
H1203 H 0.17697 0.34782 0.58838 0.0
C1204 C 0.69554 0.1394 0.8866 0.0
C1205 C 0.70492 0.13085 0.85516 0.0
C1206 C 0.68488 0.14688 0.85799 0.0
C1207 C 0.67688 0.16146 0.71386 0.0
H1208 H 0.63984 0.1683 0.77941 0.0
C1209 C 0.63594 0.19565 0.59495 0.0
C1210 C 0.62942 0.20605 0.62916 0.0
C1211 C 0.6436 0.18473 0.62089 0.0
C1212 C 0.65016 0.16649 0.76067 0.0
H1213 H 0.70997 0.12283 0.76949 0.0
H1214 H 0.69131 0.13564 0.72007 0.0
H1215 H 0.65614 0.15229 0.82867 0.0
H1216 H 0.62533 0.21275 0.71759 0.0
H1217 H 0.63878 0.19384 0.76252 0.0
H1218 H 0.67106 0.17582 0.64656 0.0
C1219 C 0.69238 0.13687 0.76653 0.0
C1220 C 0.6595 0.15736 0.78891 0.0
C1221 C 0.70306 0.12948 0.79497 0.0
C1222 C 0.63027 0.20497 0.68986 0.0
C1223 C 0.63789 0.19405 0.71572 0.0
C1224 C 0.66756 0.17055 0.68564 0.0
C1225 C 0.68336 0.1459 0.79746 0.0
C1226 C 0.67302 0.15487 0.76612 0.0
C1227 C 0.64485 0.18396 0.68153 0.0
C1228 C 0.65416 0.1733 0.70907 0.0
H1229 H 0.69669 0.14067 0.93301 0.0
H1230 H 0.67817 0.15384 0.88303 0.0
H1231 H 0.68731 0.15998 0.69563 0.0
H1232 H 0.63541 0.19611 0.5481 0.0
H1233 H 0.6487 0.177 0.59344 0.0
C1234 C 0.79534 0.64141 0.59849 0.0
C1235 C 0.78565 0.63423 0.63397 0.0
C1236 C 0.80607 0.6496 0.62315 0.0
C1237 C 0.82556 0.65571 0.76014 0.0
H1238 H 0.83094 0.69345 0.69894 0.0
C1239 C 0.85424 0.69985 0.88703 0.0
C1240 C 0.86266 0.70934 0.8554 0.0
C1241 C 0.8461 0.6897 0.85832 0.0
C1242 C 0.82975 0.68287 0.71606 0.0
H1243 H 0.77988 0.62974 0.72323 0.0
H1244 H 0.79844 0.64404 0.76582 0.0
H1245 H 0.81474 0.67734 0.65056 0.0
H1246 H 0.86958 0.71519 0.76891 0.0
H1247 H 0.85559 0.69742 0.71927 0.0
H1248 H 0.84043 0.66132 0.82614 0.0
C1249 C 0.79785 0.64327 0.71904 0.0
C1250 C 0.82047 0.67363 0.68825 0.0
C1251 C 0.78713 0.63515 0.69451 0.0
C1252 C 0.86309 0.70817 0.79466 0.0
C1253 C 0.85502 0.69801 0.76609 0.0
C1254 C 0.83487 0.66494 0.78791 0.0
C1255 C 0.80737 0.65069 0.68372 0.0
C1256 C 0.81814 0.66002 0.7104 0.0
C1257 C 0.84627 0.6888 0.79745 0.0
C1258 C 0.83695 0.67868 0.76654 0.0
H1259 H 0.79452 0.64088 0.55172 0.0
H1260 H 0.81334 0.65512 0.59484 0.0
H1261 H 0.82412 0.64521 0.77777 0.0
H1262 H 0.85367 0.70048 0.93384 0.0
H1263 H 0.83937 0.68284 0.88373 0.0
C1264 C 0.24338 0.0475 0.08911 0.0
C1265 C 0.25359 0.05611 0.06266 0.0
C1266 C 0.24446 0.0328 0.0857 0.0
C1267 C 0.25672 0.00568 0.99005 0.0
H1268 H 0.2565 0.98045 0.12237 0.0
C1269 C 0.26412 0.946 0.95986 0.0
C1270 C 0.25652 0.93696 -0.00365 0.0
C1271 C 0.26451 0.96047 0.97103 0.0
C1272 C 0.25635 0.98731 0.08486 0.0
H1273 H 0.27329 0.05625 0.01497 0.0
H1274 H 0.27482 0.03055 0.00685 0.0
H1275 H 0.25544 0.00596 0.13762 0.0
H1276 H 0.24347 0.93561 0.07295 0.0
H1277 H 0.24349 0.961 0.09124 0.0
H1278 H 0.25697 0.98729 0.93687 0.0
C1279 C 0.26603 0.03518 0.03009 0.0
C1280 C 0.25583 0.0019 0.09377 0.0
C1281 C 0.2651 0.04982 0.03444 0.0
C1282 C 0.24941 0.94249 0.04441 0.0
C1283 C 0.24954 0.957 0.05502 0.0
C1284 C 0.25695 0.99113 0.98104 0.0
C1285 C 0.25564 0.02657 0.0551 0.0
C1286 C 0.2561 0.01117 0.04639 0.0
C1287 C 0.25705 0.96621 0.0183 0.0
C1288 C 0.25685 0.98173 0.0283 0.0
H1289 H 0.2344 0.05213 0.11102 0.0
H1290 H 0.2363 0.02632 0.10509 0.0
H1291 H 0.25676 0.01267 0.95287 0.0
H1292 H 0.26982 0.94183 0.92296 0.0
H1293 H 0.2707 0.96713 0.94262 0.0
C1294 C 0.04789 0.26538 0.93876 0.0
C1295 C 0.05533 0.25261 0.93618 0.0
C1296 C 0.03331 0.26535 0.94744 0.0
C1297 C 0.0047 0.24351 0.00634 0.0
H1298 H 0.98048 0.26861 0.91829 0.0
C1299 C 0.94403 0.24047 0.01935 0.0
C1300 C 0.93673 0.25332 0.02098 0.0
C1301 C 0.95849 0.24026 0.00772 0.0
C1302 C 0.98712 0.26165 0.94366 0.0
H1303 H 0.05367 0.22986 0.93928 0.0
H1304 H 0.02807 0.22972 0.9543 0.0
H1305 H 0.00583 0.26847 0.89984 0.0
H1306 H 0.93854 0.276 0.01287 0.0
H1307 H 0.9639 0.27572 0.993 0.0
H1308 H 0.98605 0.23678 0.05059 0.0
C1309 C 0.03348 0.23975 0.95038 0.0
C1310 C 0.00163 0.26156 0.93304 0.0
C1311 C 0.04805 0.2398 0.9415 0.0
C1312 C 0.94402 0.26597 0.01111 0.0
C1313 C 0.95848 0.26578 -0.00042 0.0
C1314 C 0.9902 0.24363 0.0171 0.0
C1315 C 0.02597 0.25253 0.95368 0.0
C1316 C 0.01056 0.2525 0.96432 0.0
C1317 C 0.96588 0.25292 -0.00225 0.0
C1318 C 0.98126 0.25271 0.98593 0.0
H1319 H 0.05337 0.27536 0.93419 0.0
H1320 H 0.02782 0.27535 0.95025 0.0
H1321 H 0.01136 0.23656 0.03172 0.0
H1322 H 0.93852 0.23061 0.02669 0.0
H1323 H 0.96384 0.23017 0.00588 0.0
C1324 C 0.72709 0.94458 0.02126 0.0
C1325 C 0.73946 0.93855 0.04395 0.0
C1326 C 0.72622 0.95914 0.01247 0.0
C1327 C 0.73873 0.99251 0.06543 0.0
H1328 H 0.73282 0.00723 0.91051 0.0
C1329 C 0.74604 0.05151 0.01435 0.0
C1330 C 0.7377 0.05756 0.97089 0.0
C1331 C 0.7456 0.03697 0.02404 0.0
C1332 C 0.73418 0.00336 0.95429 0.0
H1333 H 0.76056 0.9429 0.07546 0.0
H1334 H 0.7588 0.96851 0.06243 0.0
H1335 H 0.73282 0.98178 0.92659 0.0
H1336 H 0.72211 0.05363 0.90444 0.0
H1337 H 0.72072 0.02827 0.92291 0.0
H1338 H 0.73963 0.01392 0.09402 0.0
C1339 C 0.74988 0.96192 0.05093 0.0
C1340 C 0.73427 0.98878 0.96326 0.0
C1341 C 0.75086 0.94733 0.05848 0.0
C1342 C 0.72871 0.04903 0.93787 0.0
C1343 C 0.72802 0.03453 0.94828 0.0
C1344 C 0.73834 0.00709 0.05679 0.0
C1345 C 0.73759 0.9679 0.02761 0.0
C1346 C 0.73672 0.98328 0.01873 0.0
C1347 C 0.73656 0.02826 0.99117 0.0
C1348 C 0.73626 0.01273 0.00094 0.0
H1349 H 0.71807 0.93803 0.01068 0.0
H1350 H 0.71662 0.9636 0.99472 0.0
H1351 H 0.74051 0.98843 0.1087 0.0
H1352 H 0.75308 0.05801 0.04005 0.0
H1353 H 0.75254 0.03256 0.0566 0.0
C1354 C 0.94719 0.72871 0.93197 0.0
C1355 C 0.93855 0.73619 0.97039 0.0
C1356 C 0.96165 0.72753 0.94265 0.0
C1357 C 0.98893 0.73317 0.0574 0.0
H1358 H 0.01415 0.73462 0.92514 0.0
C1359 C 0.04858 0.74651 0.0688 0.0
C1360 C 0.05754 0.73679 0.0414 0.0
C1361 C 0.03396 0.74542 0.06245 0.0
C1362 C 0.00719 0.73411 0.96235 0.0
H1363 H 0.9379 0.74821 0.04998 0.0
H1364 H 0.96324 0.74678 0.06763 0.0
H1365 H 0.98872 0.73467 0.90952 0.0
H1366 H 0.05832 0.71816 0.98697 0.0
H1367 H 0.03274 0.71665 0.97371 0.0
H1368 H 0.00761 0.73332 0.11 0.0
C1369 C 0.95894 0.74141 0.03018 0.0
C1370 C 0.99262 0.73403 0.95354 0.0
C1371 C 0.94445 0.74234 0.01997 0.0
C1372 C 0.05165 0.72595 0.00765 0.0
C1373 C 0.03706 0.72502 0.00035 0.0
C1374 C 0.00352 0.73353 0.06616 0.0
C1375 C 0.96776 0.73405 0.99146 0.0
C1376 C 0.98329 0.7336 0.00095 0.0
C1377 C 0.02812 0.73475 0.02771 0.0
C1378 C 0.01273 0.73402 0.01869 0.0
H1379 H 0.94274 0.72374 0.89382 0.0
H1380 H 0.96801 0.7215 0.91259 0.0
H1381 H 0.98211 0.73254 0.09493 0.0
H1382 H 0.05288 0.75506 0.0945 0.0
H1383 H 0.02723 0.75311 0.0835 0.0
C1384 C 0.76706 0.44439 0.49427 0.0
C1385 C 0.75496 0.43802 0.47079 0.0
C1386 C 0.76746 0.45895 0.50345 0.0
C1387 C 0.75401 0.4919 0.44961 0.0
H1388 H 0.76048 0.50703 0.60345 0.0
C1389 C 0.7466 0.55095 0.49818 0.0
C1390 C 0.75525 0.55721 0.54006 0.0
C1391 C 0.74696 0.53637 0.48967 0.0
C1392 C 0.75894 0.50304 0.55997 0.0
H1393 H 0.73385 0.44174 0.43817 0.0
H1394 H 0.73477 0.46738 0.45204 0.0
H1395 H 0.76072 0.48154 0.58836 0.0
H1396 H 0.77129 0.55359 0.60501 0.0
H1397 H 0.77251 0.52814 0.58856 0.0
H1398 H 0.75272 0.51323 0.42028 0.0
C1399 C 0.74384 0.46105 0.46393 0.0
C1400 C 0.75898 0.48844 0.55157 0.0
C1401 C 0.74333 0.44645 0.45594 0.0
C1402 C 0.76446 0.54884 0.57278 0.0
C1403 C 0.76505 0.53428 0.56355 0.0
C1404 C 0.75425 0.5065 0.45768 0.0
C1405 C 0.75589 0.46738 0.48794 0.0
C1406 C 0.75637 0.48279 0.49648 0.0
C1407 C 0.75623 0.52783 0.52212 0.0
C1408 C 0.75655 0.51227 0.51312 0.0
H1409 H 0.77626 0.43811 0.50503 0.0
H1410 H 0.7769 0.46368 0.52161 0.0
H1411 H 0.75212 0.48771 0.4066 0.0
H1412 H 0.73938 0.55731 0.47276 0.0
H1413 H 0.73979 0.53181 0.45828 0.0
C1414 C 0.44259 0.76898 0.50631 0.0
C1415 C 0.43555 0.75606 0.51287 0.0
C1416 C 0.45708 0.76925 0.49526 0.0
C1417 C 0.48619 0.74768 0.43885 0.0
H1418 H 0.50997 0.7727 0.52928 0.0
C1419 C 0.54672 0.74263 0.44043 0.0
C1420 C 0.55467 0.75509 0.44201 0.0
C1421 C 0.53209 0.74311 0.44701 0.0
C1422 C 0.50347 0.7658 0.50303 0.0
H1423 H 0.4378 0.73334 0.51296 0.0
H1424 H 0.46321 0.73373 0.49345 0.0
H1425 H 0.48448 0.77298 0.5437 0.0
H1426 H 0.55385 0.77782 0.45034 0.0
H1427 H 0.52816 0.77877 0.46106 0.0
H1428 H 0.50512 0.74053 0.3979 0.0
C1429 C 0.45756 0.74365 0.49644 0.0
C1430 C 0.48888 0.76595 0.51139 0.0
C1431 C 0.4431 0.7434 0.5079 0.0
C1432 C 0.54784 0.76808 0.44968 0.0
C1433 C 0.53319 0.76859 0.45598 0.0
C1434 C 0.50077 0.74759 0.43019 0.0
C1435 C 0.46471 0.75658 0.49028 0.0
C1436 C 0.48011 0.75681 0.47973 0.0
C1437 C 0.52515 0.75609 0.45488 0.0
C1438 C 0.5096 0.75656 0.46255 0.0
H1439 H 0.43689 0.77885 0.51029 0.0
H1440 H 0.46231 0.77935 0.49028 0.0
H1441 H 0.47965 0.74066 0.41327 0.0
H1442 H 0.55187 0.73251 0.4347 0.0
H1443 H 0.52625 0.73327 0.44686 0.0
C1444 C 0.22998 0.44545 0.57954 0.0
C1445 C 0.24305 0.43861 0.58376 0.0
C1446 C 0.22939 0.4601 0.57363 0.0
C1447 C 0.25048 0.49301 0.58577 0.0
H1448 H 0.22465 0.50628 0.46719 0.0
C1449 C 0.25399 0.54864 0.48411 0.0
C1450 C 0.24122 0.55584 0.47607 0.0
C1451 C 0.25396 0.53451 0.50142 0.0
C1452 C 0.23179 0.50277 0.50091 0.0
H1453 H 0.26566 0.44142 0.5884 0.0
H1454 H 0.26474 0.46711 0.57709 0.0
H1455 H 0.22494 0.48138 0.49297 0.0
H1456 H 0.21846 0.55417 0.47873 0.0
H1457 H 0.21833 0.5294 0.50908 0.0
H1458 H 0.25751 0.51445 0.59261 0.0
C1459 C 0.25493 0.46125 0.57883 0.0
C1460 C 0.23194 0.48851 0.51587 0.0
C1461 C 0.25549 0.44659 0.58504 0.0
C1462 C 0.22841 0.54875 0.48492 0.0
C1463 C 0.22836 0.53461 0.50197 0.0
C1464 C 0.25038 0.5073 0.57061 0.0
C1465 C 0.24187 0.46813 0.57165 0.0
C1466 C 0.24132 0.48344 0.55829 0.0
C1467 C 0.24114 0.52736 0.51052 0.0
C1468 C 0.24107 0.5123 0.52782 0.0
H1469 H 0.22027 0.43941 0.57926 0.0
H1470 H 0.21916 0.4651 0.56949 0.0
H1471 H 0.25772 0.48947 0.6191 0.0
H1472 H 0.26396 0.554 0.47748 0.0
H1473 H 0.26396 0.52913 0.50696 0.0
C1474 C 0.54882 0.2546 0.51788 0.0
C1475 C 0.55612 0.24174 0.51894 0.0
C1476 C 0.5343 0.25483 0.50779 0.0
C1477 C 0.50253 0.23279 0.51698 0.0
H1478 H 0.48689 0.25971 0.40776 0.0
C1479 C 0.44469 0.23001 0.44117 0.0
C1480 C 0.43747 0.24281 0.43476 0.0
C1481 C 0.45919 0.22995 0.4517 0.0
C1482 C 0.49106 0.25225 0.43896 0.0
H1483 H 0.55425 0.21906 0.51132 0.0
H1484 H 0.52876 0.21938 0.49349 0.0
H1485 H 0.51224 0.25952 0.42626 0.0
H1486 H 0.43941 0.26556 0.43407 0.0
H1487 H 0.4648 0.26556 0.45351 0.0
H1488 H 0.48139 0.22559 0.53021 0.0
C1489 C 0.53421 0.22928 0.50056 0.0
C1490 C 0.50558 0.25213 0.44943 0.0
C1491 C 0.54875 0.22909 0.51031 0.0
C1492 C 0.44487 0.25558 0.43876 0.0
C1493 C 0.45938 0.25555 0.44956 0.0
C1494 C 0.48801 0.23295 0.50677 0.0
C1495 C 0.52685 0.24216 0.49908 0.0
C1496 C 0.51145 0.24237 0.48841 0.0
C1497 C 0.4667 0.24272 0.45616 0.0
C1498 C 0.48212 0.24266 0.4675 0.0
H1499 H 0.55439 0.26447 0.5246 0.0
H1500 H 0.52886 0.26488 0.50747 0.0
H1501 H 0.50676 0.22528 0.54786 0.0
H1502 H 0.43911 0.22005 0.43757 0.0
H1503 H 0.46455 0.2199 0.45558 0.0
C1504 C 0.21296 0.14478 0.07789 0.0
C1505 C 0.22032 0.13829 0.03217 0.0
C1506 C 0.20252 0.15482 0.06647 0.0
C1507 C 0.17799 0.16717 0.95434 0.0
H1508 H 0.17936 0.20272 0.03744 0.0
C1509 C 0.14344 0.2147 0.88858 0.0
C1510 C 0.13797 0.22323 0.93301 0.0
C1511 C 0.15327 0.20414 0.90112 0.0
C1512 C 0.17867 0.19278 0.01443 0.0
H1513 H 0.22218 0.13709 0.93863 0.0
H1514 H 0.20389 0.15447 0.91883 0.0
H1515 H 0.19657 0.18436 0.05944 0.0
H1516 H 0.13833 0.22719 0.02562 0.0
H1517 H 0.15516 0.20857 0.04766 0.0
H1518 H 0.16 0.17544 0.90984 0.0
C1519 C 0.20624 0.15178 0.96345 0.0
C1520 C 0.18856 0.18228 0.027 0.0
C1521 C 0.21678 0.14186 0.97485 0.0
C1522 C 0.14244 0.22089 0.99029 0.0
C1523 C 0.15216 0.21025 0.0029 0.0
C1524 C 0.16801 0.17761 0.94214 0.0
C1525 C 0.1991 0.15846 0.00914 0.0
C1526 C 0.18835 0.1694 -0.00309 0.0
C1527 C 0.15775 0.20177 0.95846 0.0
C1528 C 0.16826 0.19057 0.97187 0.0
H1529 H 0.21542 0.1423 0.12259 0.0
H1530 H 0.19709 0.15973 0.10251 0.0
H1531 H 0.17751 0.15727 0.93091 0.0
H1532 H 0.14027 0.21629 0.84395 0.0
H1533 H 0.15752 0.19798 0.86567 0.0
C1534 C 0.85059 0.21965 0.98366 0.0
C1535 C 0.85546 0.22243 0.04008 0.0
C1536 C 0.84084 0.20885 0.97364 0.0
C1537 C 0.81251 0.18937 0.04321 0.0
H1538 H 0.81851 0.16141 0.92301 0.0
C1539 C 0.77423 0.14276 0.01342 0.0
C1540 C 0.77126 0.13831 0.95665 0.0
C1541 C 0.78503 0.15245 0.02409 0.0
C1542 C 0.81655 0.16924 0.9562 0.0
H1543 H 0.8539 0.21606 0.13023 0.0
H1544 H 0.83664 0.19738 0.11267 0.0
H1545 H 0.83629 0.17961 0.93994 0.0
H1546 H 0.7773 0.14053 0.86647 0.0
H1547 H 0.7958 0.15781 0.88472 0.0
H1548 H 0.79262 0.17945 0.05845 0.0
C1549 C 0.84047 0.20352 0.07631 0.0
C1550 C 0.82678 0.17961 0.966 0.0
C1551 C 0.85039 0.21417 0.08624 0.0
C1552 C 0.7794 0.14368 0.91078 0.0
C1553 C 0.79007 0.15354 0.92134 0.0
C1554 C 0.80219 0.17915 0.03288 0.0
C1555 C 0.8356 0.20079 0.01995 0.0
C1556 C 0.82486 0.18973 0.00968 0.0
C1557 C 0.79299 0.15811 0.97814 0.0
C1558 C 0.80408 0.16892 0.98932 0.0
H1559 H 0.8543 0.22581 0.9472 0.0
H1560 H 0.83716 0.20699 0.92983 0.0
H1561 H 0.81071 0.19718 0.07666 0.0
H1562 H 0.76823 0.13873 0.04976 0.0
H1563 H 0.78716 0.15545 0.06851 0.0
C1564 C 0.86071 0.78777 0.91876 0.0
C1565 C 0.86051 0.77584 0.95502 0.0
C1566 C 0.85177 0.7992 0.9297 0.0
C1567 C 0.8289 0.81486 0.04399 0.0
H1568 H 0.81043 0.83283 0.91345 0.0
C1569 C 0.78913 0.86016 0.07711 0.0
C1570 C 0.77695 0.85986 0.04237 0.0
C1571 C 0.80053 0.85128 0.0649 0.0
C1572 C 0.81543 0.82788 0.95044 0.0
H1573 H 0.85083 0.76662 0.03145 0.0
H1574 H 0.83504 0.78629 0.04944 0.0
H1575 H 0.82791 0.81451 0.89624 0.0
H1576 H 0.76725 0.85013 0.96709 0.0
H1577 H 0.78687 0.83439 0.94692 0.0
H1578 H 0.81588 0.82764 0.09826 0.0
C1579 C 0.8423 0.78702 0.01334 0.0
C1580 C 0.82562 0.8175 0.94054 0.0
C1581 C 0.8513 0.77566 0.00273 0.0
C1582 C 0.77649 0.85067 0.99464 0.0
C1583 C 0.78782 0.8417 0.98279 0.0
C1584 C 0.81862 0.82513 0.0539 0.0
C1585 C 0.84237 0.79892 0.97689 0.0
C1586 C 0.83233 0.81071 0.98722 0.0
C1587 C 0.79994 0.8418 0.01802 0.0
C1588 C 0.81161 0.83164 0.00727 0.0
H1589 H 0.86775 0.78828 0.88187 0.0
H1590 H 0.85225 0.80828 0.90122 0.0
H1591 H 0.83403 0.81004 0.08098 0.0
H1592 H 0.78987 0.86722 0.11391 0.0
H1593 H 0.80979 0.85183 0.09235 0.0
C1594 C 0.14421 0.77878 0.09462 0.0
C1595 C 0.13775 0.77255 0.04607 0.0
C1596 C 0.15384 0.78983 0.0877 0.0
C1597 C 0.16547 0.81754 0.98676 0.0
H1598 H 0.20137 0.81405 0.06622 0.0
C1599 C 0.21349 0.85249 0.93006 0.0
C1600 C 0.22251 0.85664 0.97535 0.0
C1601 C 0.20256 0.84289 0.94022 0.0
C1602 C 0.19133 0.81534 0.04444 0.0
H1603 H 0.13585 0.77351 0.95251 0.0
H1604 H 0.15264 0.79279 0.94048 0.0
H1605 H 0.18308 0.7964 0.08209 0.0
H1606 H 0.22684 0.8543 0.06723 0.0
H1607 H 0.20758 0.83789 0.0852 0.0
H1608 H 0.17365 0.83653 0.94933 0.0
C1609 C 0.15029 0.78907 0.98381 0.0
C1610 C 0.18086 0.8052 0.05348 0.0
C1611 C 0.14078 0.77793 0.99068 0.0
C1612 C 0.22017 0.85121 0.03123 0.0
C1613 C 0.20917 0.84173 0.04148 0.0
C1614 C 0.1759 0.82777 0.97808 0.0
C1615 C 0.15707 0.79499 0.03218 0.0
C1616 C 0.16787 0.80615 0.02445 0.0
C1617 C 0.20031 0.83734 -0.00398 0.0
C1618 C 0.189 0.82674 0.00652 0.0
H1619 H 0.14209 0.7749 0.13792 0.0
H1620 H 0.15881 0.79431 0.12578 0.0
H1621 H 0.15549 0.8186 0.96427 0.0
H1622 H 0.21504 0.85643 0.88646 0.0
H1623 H 0.19608 0.8396 0.904 0.0
C1624 C 0.64221 0.71877 0.50016 0.0
C1625 C 0.6335 0.71848 0.45088 0.0
C1626 C 0.65121 0.70749 0.51252 0.0
C1627 C 0.66867 0.67703 0.44217 0.0
H1628 H 0.67832 0.66768 0.60089 0.0
C1629 C 0.71819 0.64487 0.49778 0.0
C1630 C 0.71801 0.63577 0.54589 0.0
C1631 C 0.70676 0.65371 0.48619 0.0
C1632 C 0.67561 0.66997 0.55628 0.0
H1633 H 0.62703 0.70588 0.377 0.0
H1634 H 0.64241 0.686 0.39952 0.0
H1635 H 0.65988 0.68488 0.58176 0.0
H1636 H 0.7055 0.62857 0.61883 0.0
H1637 H 0.68533 0.64373 0.59767 0.0
H1638 H 0.68411 0.66182 0.41665 0.0
C1639 C 0.64259 0.69512 0.4278 0.0
C1640 C 0.66516 0.68002 0.54527 0.0
C1641 C 0.63371 0.70649 0.41501 0.0
C1642 C 0.70601 0.63554 0.58167 0.0
C1643 C 0.69448 0.64429 0.56966 0.0
C1644 C 0.67899 0.66685 0.45316 0.0
C1645 C 0.65159 0.69555 0.47636 0.0
C1646 C 0.66176 0.6839 0.48808 0.0
C1647 C 0.69475 0.65356 0.52196 0.0
C1648 C 0.68282 0.66341 0.51035 0.0
H1649 H 0.64235 0.72786 0.5286 0.0
H1650 H 0.65814 0.70835 0.54966 0.0
H1651 H 0.66645 0.6798 0.39756 0.0
H1652 H 0.72729 0.64538 0.46945 0.0
H1653 H 0.70752 0.66089 0.44981 0.0
C1654 C 0.35528 0.71046 0.56578 0.0
C1655 C 0.35549 0.72248 0.53004 0.0
C1656 C 0.34586 0.69943 0.55481 0.0
C1657 C 0.3224 0.68459 0.44109 0.0
H1658 H 0.30439 0.66636 0.57212 0.0
C1659 C 0.28515 0.63688 0.41201 0.0
C1660 C 0.27301 0.63647 0.44698 0.0
C1661 C 0.29577 0.64679 0.42256 0.0
C1662 C 0.30923 0.67141 0.535 0.0
H1663 H 0.346 0.73229 0.45445 0.0
H1664 H 0.32934 0.71324 0.43626 0.0
H1665 H 0.32159 0.68497 0.58886 0.0
H1666 H 0.26255 0.64613 0.52065 0.0
H1667 H 0.28087 0.66359 0.53806 0.0
H1668 H 0.30959 0.67143 0.38719 0.0
C1669 C 0.33665 0.71219 0.47209 0.0
C1670 C 0.31927 0.68196 0.54462 0.0
C1671 C 0.34615 0.72316 0.48276 0.0
C1672 C 0.27178 0.64611 0.49297 0.0
C1673 C 0.28235 0.65608 0.50322 0.0
C1674 C 0.31229 0.6741 0.43146 0.0
C1675 C 0.33634 0.70021 0.50814 0.0
C1676 C 0.32594 0.68872 0.49779 0.0
C1677 C 0.29446 0.65658 0.46806 0.0
C1678 C 0.30553 0.66743 0.4783 0.0
H1679 H 0.36241 0.70954 0.60231 0.0
H1680 H 0.3461 0.69026 0.58285 0.0
H1681 H 0.32746 0.68943 0.404 0.0
H1682 H 0.28646 0.62954 0.37643 0.0
H1683 H 0.30505 0.64672 0.39521 0.0
C1684 C 0.35017 0.27388 0.47863 0.0
C1685 C 0.35528 0.27208 0.42194 0.0
C1686 C 0.34054 0.2846 0.4912 0.0
C1687 C 0.31316 0.30657 0.42715 0.0
H1688 H 0.31989 0.33105 0.55895 0.0
C1689 C 0.27631 0.35338 0.48014 0.0
C1690 C 0.27353 0.35605 0.53894 0.0
C1691 C 0.28671 0.34368 0.46408 0.0
C1692 C 0.31774 0.3242 0.52245 0.0
H1693 H 0.35412 0.28001 0.33378 0.0
H1694 H 0.33707 0.29862 0.35581 0.0
H1695 H 0.33707 0.31286 0.53455 0.0
H1696 H 0.2794 0.35056 0.62699 0.0
H1697 H 0.29717 0.33337 0.59916 0.0
H1698 H 0.29363 0.31753 0.41593 0.0
C1699 C 0.34063 0.29175 0.39041 0.0
C1700 C 0.32762 0.31383 0.50839 0.0
C1701 C 0.35043 0.28115 0.37794 0.0
C1702 C 0.28136 0.34883 0.5813 0.0
C1703 C 0.29163 0.33902 0.56528 0.0
C1704 C 0.30317 0.31682 0.44163 0.0
C1705 C 0.33567 0.29361 0.44722 0.0
C1706 C 0.32539 0.30488 0.46081 0.0
C1707 C 0.29445 0.33632 0.50647 0.0
C1708 C 0.30529 0.32572 0.48969 0.0
H1709 H 0.35365 0.26707 0.51347 0.0
H1710 H 0.33676 0.28573 0.53525 0.0
H1711 H 0.31114 0.2997 0.39054 0.0
H1712 H 0.27052 0.35885 0.44644 0.0
H1713 H 0.28875 0.34205 0.41841 0.0
C1714 C 0.71843 0.35207 0.51157 0.0
C1715 C 0.72192 0.35677 0.45559 0.0
C1716 C 0.7075 0.34236 0.51976 0.0
C1717 C 0.6888 0.3139 0.4472 0.0
H1718 H 0.65994 0.31985 0.56369 0.0
C1719 C 0.64226 0.27524 0.47385 0.0
C1720 C 0.63759 0.27238 0.53043 0.0
C1721 C 0.65195 0.28606 0.46345 0.0
C1722 C 0.66802 0.31792 0.5315 0.0
H1723 H 0.71665 0.35499 0.36431 0.0
H1724 H 0.69771 0.33785 0.37874 0.0
H1725 H 0.6781 0.33775 0.54862 0.0
H1726 H 0.63951 0.2786 0.62057 0.0
H1727 H 0.65675 0.29712 0.6028 0.0
H1728 H 0.67913 0.2939 0.43118 0.0
C1729 C 0.70342 0.34175 0.41616 0.0
C1730 C 0.67837 0.32821 0.52276 0.0
C1731 C 0.7142 0.35161 0.40801 0.0
C1732 C 0.64281 0.2806 0.57638 0.0
C1733 C 0.65264 0.2913 0.5661 0.0
C1734 C 0.67858 0.30351 0.45644 0.0
C1735 C 0.7 0.33702 0.47208 0.0
C1736 C 0.68885 0.32628 0.48058 0.0
C1737 C 0.65736 0.29416 0.50951 0.0
C1738 C 0.66806 0.30537 0.49879 0.0
H1739 H 0.72415 0.35585 0.5491 0.0
H1740 H 0.70512 0.3388 0.56329 0.0
H1741 H 0.69689 0.31209 0.41487 0.0
H1742 H 0.63837 0.26916 0.43746 0.0
H1743 H 0.65513 0.28812 0.41919 0.0
loop_
_geom_bond_atom_site_label_1
_geom_bond_atom_site_label_2
_geom_bond_distance
_geom_bond_site_symmetry_2
_ccdc_geom_bond_type
Co0 O3 1.970 . S
Co0 N17 1.989 . S
Co0 O25 1.967 . S
Co0 O32 1.920 . S
Co1 O4 1.966 1_556 S
Co1 N10 2.022 . S
Co1 N18 1.993 1_556 S
Co1 O26 1.941 1_556 S
C2 O3 1.258 . S
C2 O4 1.263 . S
O3 Co0 1.970 . S
O3 C2 1.258 . S
O4 Co1 1.966 1_554 S
O4 C2 1.263 . S
C5 O6 1.235 . S
C5 O32 1.289 . S
O6 C5 1.235 . S
C7 C9 1.400 . S
C7 N10 1.351 . S
C7 C12 1.501 . S
C8 C9 1.387 . S
C8 N11 1.341 . S
C9 C7 1.400 . S
C9 C8 1.387 . S
N10 Co1 2.022 . S
N10 C7 1.351 . S
N10 N11 1.365 . S
N11 C8 1.341 . S
N11 N10 1.365 . S
N11 H31 0.862 . S
C12 C7 1.501 . S
C12 H13 0.961 . S
C12 H14 0.961 . S
C12 H15 0.960 . S
H13 C12 0.961 . S
H14 C12 0.961 . S
H15 C12 0.960 . S
C16 N17 1.342 . S
C16 C20 1.401 . S
C16 C21 1.499 . S
N17 Co0 1.989 . S
N17 C16 1.342 . S
N17 N18 1.388 . S
N18 Co1 1.993 1_554 S
N18 N17 1.388 . S
N18 C19 1.346 1_554 S
C19 N18 1.346 1_556 S
C19 C20 1.396 1_556 S
C19 C29 1.510 . S
C20 C16 1.401 . S
C20 C19 1.396 1_554 S
C21 C16 1.499 . S
C21 H22 0.959 . S
C21 H23 0.960 . S
C21 H24 0.961 . S
H22 C21 0.959 . S
H23 C21 0.960 . S
H24 C21 0.961 . S
O25 Co0 1.967 . S
O25 C33 1.258 . S
O26 Co1 1.941 1_554 S
O26 C33 1.266 . S
H27 C29 0.959 . S
H28 C29 0.961 . S
C29 C19 1.510 . S
C29 H27 0.959 . S
C29 H28 0.961 . S
C29 H30 0.960 . S
H30 C29 0.960 . S
H31 N11 0.862 . S
O32 Co0 1.920 . S
O32 C5 1.289 . S
C33 O25 1.258 . S
C33 O26 1.266 . S
Co34 O37 1.970 . S
Co34 N51 1.989 . S
Co34 O59 1.967 . S
Co34 O66 1.920 . S
Co35 O38 1.966 1_556 S
Co35 N44 2.022 . S
Co35 N52 1.993 1_556 S
Co35 O60 1.941 1_556 S
C36 O37 1.258 . S
C36 O38 1.263 . S
O37 Co34 1.970 . S
O37 C36 1.258 . S
O38 Co35 1.966 1_554 S
O38 C36 1.263 . S
C39 O40 1.235 . S
C39 O66 1.289 . S
O40 C39 1.235 . S
C41 C43 1.400 . S
C41 N44 1.351 . S
C41 C46 1.501 . S
C42 C43 1.387 . S
C42 N45 1.341 . S
C43 C41 1.400 . S
C43 C42 1.387 . S
N44 Co35 2.022 . S
N44 C41 1.351 . S
N44 N45 1.365 . S
N45 C42 1.341 . S
N45 N44 1.365 . S
N45 H65 0.862 . S
C46 C41 1.501 . S
C46 H47 0.961 . S
C46 H48 0.961 . S
C46 H49 0.960 . S
H47 C46 0.961 . S
H48 C46 0.961 . S
H49 C46 0.960 . S
C50 N51 1.342 . S
C50 C54 1.401 . S
C50 C55 1.499 . S
N51 Co34 1.989 . S
N51 C50 1.342 . S
N51 N52 1.388 . S
N52 Co35 1.993 1_554 S
N52 N51 1.388 . S
N52 C53 1.346 1_554 S
C53 N52 1.346 1_556 S
C53 C54 1.396 1_556 S
C53 C63 1.510 . S
C54 C50 1.401 . S
C54 C53 1.396 1_554 S
C55 C50 1.499 . S
C55 H56 0.959 . S
C55 H57 0.960 . S
C55 H58 0.961 . S
H56 C55 0.959 . S
H57 C55 0.960 . S
H58 C55 0.961 . S
O59 Co34 1.967 . S
O59 C67 1.258 . S
O60 Co35 1.941 1_554 S
O60 C67 1.266 . S
H61 C63 0.959 . S
H62 C63 0.961 . S
C63 C53 1.510 . S
C63 H61 0.959 . S
C63 H62 0.961 . S
C63 H64 0.960 . S
H64 C63 0.960 . S
H65 N45 0.862 . S
O66 Co34 1.920 . S
O66 C39 1.289 . S
C67 O59 1.258 . S
C67 O60 1.266 . S
Co68 O71 1.970 . S
Co68 N85 1.989 . S
Co68 O93 1.967 . S
Co68 O100 1.920 . S
Co69 O72 1.966 1_556 S
Co69 N78 2.022 . S
Co69 N86 1.993 1_556 S
Co69 O94 1.941 1_556 S
C70 O71 1.258 . S
C70 O72 1.263 . S
O71 Co68 1.970 . S
O71 C70 1.258 . S
O72 Co69 1.966 1_554 S
O72 C70 1.263 . S
C73 O74 1.235 . S
C73 O100 1.289 . S
O74 C73 1.235 . S
C75 C77 1.400 . S
C75 N78 1.351 . S
C75 C80 1.501 . S
C76 C77 1.387 . S
C76 N79 1.341 . S
C77 C75 1.400 . S
C77 C76 1.387 . S
N78 Co69 2.022 . S
N78 C75 1.351 . S
N78 N79 1.365 . S
N79 C76 1.341 . S
N79 N78 1.365 . S
N79 H99 0.862 . S
C80 C75 1.501 . S
C80 H81 0.961 . S
C80 H82 0.961 . S
C80 H83 0.960 . S
H81 C80 0.961 . S
H82 C80 0.961 . S
H83 C80 0.960 . S
C84 N85 1.342 . S
C84 C88 1.401 . S
C84 C89 1.499 . S
N85 Co68 1.989 . S
N85 C84 1.342 . S
N85 N86 1.388 . S
N86 Co69 1.993 1_554 S
N86 N85 1.388 . S
N86 C87 1.346 1_554 S
C87 N86 1.346 1_556 S
C87 C88 1.396 1_556 S
C87 C97 1.510 . S
C88 C84 1.401 . S
C88 C87 1.396 1_554 S
C89 C84 1.499 . S
C89 H90 0.959 . S
C89 H91 0.960 . S
C89 H92 0.961 . S
H90 C89 0.959 . S
H91 C89 0.960 . S
H92 C89 0.961 . S
O93 Co68 1.967 . S
O93 C101 1.258 . S
O94 Co69 1.941 1_554 S
O94 C101 1.266 . S
H95 C97 0.959 . S
H96 C97 0.961 . S
C97 C87 1.510 . S
C97 H95 0.959 . S
C97 H96 0.961 . S
C97 H98 0.960 . S
H98 C97 0.960 . S
H99 N79 0.862 . S
O100 Co68 1.920 . S
O100 C73 1.289 . S
C101 O93 1.258 . S
C101 O94 1.266 . S
Co102 O105 1.970 . S
Co102 N119 1.989 . S
Co102 O127 1.967 . S
Co102 O134 1.920 . S
Co103 O106 1.966 1_556 S
Co103 N112 2.022 . S
Co103 N120 1.993 1_556 S
Co103 O128 1.941 1_556 S
C104 O105 1.258 . S
C104 O106 1.263 . S
O105 Co102 1.970 . S
O105 C104 1.258 . S
O106 Co103 1.966 1_554 S
O106 C104 1.263 . S
C107 O108 1.235 . S
C107 O134 1.289 . S
O108 C107 1.235 . S
C109 C111 1.400 . S
C109 N112 1.351 . S
C109 C114 1.501 . S
C110 C111 1.387 . S
C110 N113 1.341 . S
C111 C109 1.400 . S
C111 C110 1.387 . S
N112 Co103 2.022 . S
N112 C109 1.351 . S
N112 N113 1.365 . S
N113 C110 1.341 . S
N113 N112 1.365 . S
N113 H133 0.862 . S
C114 C109 1.501 . S
C114 H115 0.961 . S
C114 H116 0.961 . S
C114 H117 0.960 . S
H115 C114 0.961 . S
H116 C114 0.961 . S
H117 C114 0.960 . S
C118 N119 1.342 . S
C118 C122 1.401 . S
C118 C123 1.499 . S
N119 Co102 1.989 . S
N119 C118 1.342 . S
N119 N120 1.388 . S
N120 Co103 1.993 1_554 S
N120 N119 1.388 . S
N120 C121 1.346 1_554 S
C121 N120 1.346 1_556 S
C121 C122 1.396 1_556 S
C121 C131 1.510 . S
C122 C118 1.401 . S
C122 C121 1.396 1_554 S
C123 C118 1.499 . S
C123 H124 0.959 . S
C123 H125 0.960 . S
C123 H126 0.961 . S
H124 C123 0.959 . S
H125 C123 0.960 . S
H126 C123 0.961 . S
O127 Co102 1.967 . S
O127 C135 1.258 . S
O128 Co103 1.941 1_554 S
O128 C135 1.266 . S
H129 C131 0.959 . S
H130 C131 0.961 . S
C131 C121 1.510 . S
C131 H129 0.959 . S
C131 H130 0.961 . S
C131 H132 0.960 . S
H132 C131 0.960 . S
H133 N113 0.862 . S
O134 Co102 1.920 . S
O134 C107 1.289 . S
C135 O127 1.258 . S
C135 O128 1.266 . S
Co136 O139 1.970 . S
Co136 N153 1.989 . S
Co136 O161 1.967 . S
Co136 O168 1.920 . S
Co137 O140 1.966 1_554 S
Co137 N146 2.022 . S
Co137 N154 1.993 1_554 S
Co137 O162 1.941 1_554 S
C138 O139 1.258 . S
C138 O140 1.263 . S
O139 Co136 1.970 . S
O139 C138 1.258 . S
O140 Co137 1.966 1_556 S
O140 C138 1.263 . S
C141 O142 1.235 . S
C141 O168 1.289 . S
O142 C141 1.235 . S
C143 C145 1.400 . S
C143 N146 1.351 . S
C143 C148 1.501 . S
C144 C145 1.387 . S
C144 N147 1.341 . S
C145 C143 1.400 . S
C145 C144 1.387 . S
N146 Co137 2.022 . S
N146 C143 1.351 . S
N146 N147 1.365 . S
N147 C144 1.341 . S
N147 N146 1.365 . S
N147 H167 0.862 . S
C148 C143 1.501 . S
C148 H149 0.961 . S
C148 H150 0.961 . S
C148 H151 0.960 . S
H149 C148 0.961 . S
H150 C148 0.961 . S
H151 C148 0.960 . S
C152 N153 1.342 . S
C152 C156 1.401 . S
C152 C157 1.499 . S
N153 Co136 1.989 . S
N153 C152 1.342 . S
N153 N154 1.388 . S
N154 Co137 1.993 1_556 S
N154 N153 1.388 . S
N154 C155 1.346 1_556 S
C155 N154 1.346 1_554 S
C155 C156 1.396 1_554 S
C155 C165 1.510 . S
C156 C152 1.401 . S
C156 C155 1.396 1_556 S
C157 C152 1.499 . S
C157 H158 0.959 . S
C157 H159 0.960 . S
C157 H160 0.961 . S
H158 C157 0.959 . S
H159 C157 0.960 . S
H160 C157 0.961 . S
O161 Co136 1.967 . S
O161 C169 1.258 . S
O162 Co137 1.941 1_556 S
O162 C169 1.266 . S
H163 C165 0.959 . S
H164 C165 0.961 . S
C165 C155 1.510 . S
C165 H163 0.959 . S
C165 H164 0.961 . S
C165 H166 0.960 . S
H166 C165 0.960 . S
H167 N147 0.862 . S
O168 Co136 1.920 . S
O168 C141 1.289 . S
C169 O161 1.258 . S
C169 O162 1.266 . S
Co170 O173 1.970 . S
Co170 N187 1.989 . S
Co170 O195 1.967 . S
Co170 O202 1.920 . S
Co171 O174 1.966 1_554 S
Co171 N180 2.022 . S
Co171 N188 1.993 1_554 S
Co171 O196 1.941 1_554 S
C172 O173 1.258 . S
C172 O174 1.263 . S
O173 Co170 1.970 . S
O173 C172 1.258 . S
O174 Co171 1.966 1_556 S
O174 C172 1.263 . S
C175 O176 1.235 . S
C175 O202 1.289 . S
O176 C175 1.235 . S
C177 C179 1.400 . S
C177 N180 1.351 . S
C177 C182 1.501 . S
C178 C179 1.387 . S
C178 N181 1.341 . S
C179 C177 1.400 . S
C179 C178 1.387 . S
N180 Co171 2.022 . S
N180 C177 1.351 . S
N180 N181 1.365 . S
N181 C178 1.341 . S
N181 N180 1.365 . S
N181 H201 0.862 . S
C182 C177 1.501 . S
C182 H183 0.961 . S
C182 H184 0.961 . S
C182 H185 0.960 . S
H183 C182 0.961 . S
H184 C182 0.961 . S
H185 C182 0.960 . S
C186 N187 1.342 . S
C186 C190 1.401 . S
C186 C191 1.499 . S
N187 Co170 1.989 . S
N187 C186 1.342 . S
N187 N188 1.388 . S
N188 Co171 1.993 1_556 S
N188 N187 1.388 . S
N188 C189 1.346 1_556 S
C189 N188 1.346 1_554 S
C189 C190 1.396 1_554 S
C189 C199 1.510 . S
C190 C186 1.401 . S
C190 C189 1.396 1_556 S
C191 C186 1.499 . S
C191 H192 0.959 . S
C191 H193 0.960 . S
C191 H194 0.961 . S
H192 C191 0.959 . S
H193 C191 0.960 . S
H194 C191 0.961 . S
O195 Co170 1.967 . S
O195 C203 1.258 . S
O196 Co171 1.941 1_556 S
O196 C203 1.266 . S
H197 C199 0.959 . S
H198 C199 0.961 . S
C199 C189 1.510 . S
C199 H197 0.959 . S
C199 H198 0.961 . S
C199 H200 0.960 . S
H200 C199 0.960 . S
H201 N181 0.862 . S
O202 Co170 1.920 . S
O202 C175 1.289 . S
C203 O195 1.258 . S
C203 O196 1.266 . S
Co204 O207 1.970 . S
Co204 N221 1.989 . S
Co204 O229 1.967 . S
Co204 O236 1.920 . S
Co205 O208 1.966 1_554 S
Co205 N214 2.022 . S
Co205 N222 1.993 1_554 S
Co205 O230 1.941 1_554 S
C206 O207 1.258 . S
C206 O208 1.263 . S
O207 Co204 1.970 . S
O207 C206 1.258 . S
O208 Co205 1.966 1_556 S
O208 C206 1.263 . S
C209 O210 1.235 . S
C209 O236 1.289 . S
O210 C209 1.235 . S
C211 C213 1.400 . S
C211 N214 1.351 . S
C211 C216 1.501 . S
C212 C213 1.387 . S
C212 N215 1.341 . S
C213 C211 1.400 . S
C213 C212 1.387 . S
N214 Co205 2.022 . S
N214 C211 1.351 . S
N214 N215 1.365 . S
N215 C212 1.341 . S
N215 N214 1.365 . S
N215 H235 0.862 . S
C216 C211 1.501 . S
C216 H217 0.961 . S
C216 H218 0.961 . S
C216 H219 0.960 . S
H217 C216 0.961 . S
H218 C216 0.961 . S
H219 C216 0.960 . S
C220 N221 1.342 . S
C220 C224 1.401 . S
C220 C225 1.499 . S
N221 Co204 1.989 . S
N221 C220 1.342 . S
N221 N222 1.388 . S
N222 Co205 1.993 1_556 S
N222 N221 1.388 . S
N222 C223 1.346 1_556 S
C223 N222 1.346 1_554 S
C223 C224 1.396 1_554 S
C223 C233 1.510 . S
C224 C220 1.401 . S
C224 C223 1.396 1_556 S
C225 C220 1.499 . S
C225 H226 0.959 . S
C225 H227 0.960 . S
C225 H228 0.961 . S
H226 C225 0.959 . S
H227 C225 0.960 . S
H228 C225 0.961 . S
O229 Co204 1.967 . S
O229 C237 1.258 . S
O230 Co205 1.941 1_556 S
O230 C237 1.266 . S
H231 C233 0.959 . S
H232 C233 0.961 . S
C233 C223 1.510 . S
C233 H231 0.959 . S
C233 H232 0.961 . S
C233 H234 0.960 . S
H234 C233 0.960 . S
H235 N215 0.862 . S
O236 Co204 1.920 . S
O236 C209 1.289 . S
C237 O229 1.258 . S
C237 O230 1.266 . S
Co238 O241 1.970 . S
Co238 N255 1.989 . S
Co238 O263 1.967 . S
Co238 O270 1.920 . S
Co239 O242 1.966 1_554 S
Co239 N248 2.022 . S
Co239 N256 1.993 1_554 S
Co239 O264 1.941 1_554 S
C240 O241 1.258 . S
C240 O242 1.263 . S
O241 Co238 1.970 . S
O241 C240 1.258 . S
O242 Co239 1.966 1_556 S
O242 C240 1.263 . S
C243 O244 1.235 . S
C243 O270 1.289 . S
O244 C243 1.235 . S
C245 C247 1.400 . S
C245 N248 1.351 . S
C245 C250 1.501 . S
C246 C247 1.387 . S
C246 N249 1.341 . S
C247 C245 1.400 . S
C247 C246 1.387 . S
N248 Co239 2.022 . S
N248 C245 1.351 . S
N248 N249 1.365 . S
N249 C246 1.341 . S
N249 N248 1.365 . S
N249 H269 0.862 . S
C250 C245 1.501 . S
C250 H251 0.961 . S
C250 H252 0.961 . S
C250 H253 0.960 . S
H251 C250 0.961 . S
H252 C250 0.961 . S
H253 C250 0.960 . S
C254 N255 1.342 . S
C254 C258 1.401 . S
C254 C259 1.499 . S
N255 Co238 1.989 . S
N255 C254 1.342 . S
N255 N256 1.388 . S
N256 Co239 1.993 1_556 S
N256 N255 1.388 . S
N256 C257 1.346 1_556 S
C257 N256 1.346 1_554 S
C257 C258 1.396 1_554 S
C257 C267 1.510 . S
C258 C254 1.401 . S
C258 C257 1.396 1_556 S
C259 C254 1.499 . S
C259 H260 0.959 . S
C259 H261 0.960 . S
C259 H262 0.961 . S
H260 C259 0.959 . S
H261 C259 0.960 . S
H262 C259 0.961 . S
O263 Co238 1.967 . S
O263 C271 1.258 . S
O264 Co239 1.941 1_556 S
O264 C271 1.266 . S
H265 C267 0.959 . S
H266 C267 0.961 . S
C267 C257 1.510 . S
C267 H265 0.959 . S
C267 H266 0.961 . S
C267 H268 0.960 . S
H268 C267 0.960 . S
H269 N249 0.862 . S
O270 Co238 1.920 . S
O270 C243 1.289 . S
C271 O263 1.258 . S
C271 O264 1.266 . S
Co272 O275 1.970 . S
Co272 N289 1.989 . S
Co272 O297 1.967 . S
Co272 O304 1.920 . S
Co273 O276 1.966 . S
Co273 N282 2.022 . S
Co273 N290 1.993 . S
Co273 O298 1.941 . S
C274 O275 1.258 . S
C274 O276 1.263 . S
O275 Co272 1.970 . S
O275 C274 1.258 . S
O276 Co273 1.966 . S
O276 C274 1.263 . S
C277 O278 1.235 . S
C277 O304 1.289 . S
O278 C277 1.235 . S
C279 C281 1.400 . S
C279 N282 1.351 . S
C279 C284 1.501 . S
C280 C281 1.387 . S
C280 N283 1.341 . S
C281 C279 1.400 . S
C281 C280 1.387 . S
N282 Co273 2.022 . S
N282 C279 1.351 . S
N282 N283 1.365 . S
N283 C280 1.341 . S
N283 N282 1.365 . S
N283 H303 0.862 . S
C284 C279 1.501 . S
C284 H285 0.961 . S
C284 H286 0.961 . S
C284 H287 0.960 . S
H285 C284 0.961 . S
H286 C284 0.961 . S
H287 C284 0.960 . S
C288 N289 1.342 . S
C288 C292 1.401 . S
C288 C293 1.499 . S
N289 Co272 1.989 . S
N289 C288 1.342 . S
N289 N290 1.388 . S
N290 Co273 1.993 . S
N290 N289 1.388 . S
N290 C291 1.346 . S
C291 N290 1.346 . S
C291 C292 1.396 . S
C291 C301 1.510 . S
C292 C288 1.401 . S
C292 C291 1.396 . S
C293 C288 1.499 . S
C293 H294 0.959 . S
C293 H295 0.960 . S
C293 H296 0.961 . S
H294 C293 0.959 . S
H295 C293 0.960 . S
H296 C293 0.961 . S
O297 Co272 1.967 . S
O297 C305 1.258 . S
O298 Co273 1.941 . S
O298 C305 1.266 . S
H299 C301 0.959 . S
H300 C301 0.961 . S
C301 C291 1.510 . S
C301 H299 0.959 . S
C301 H300 0.961 . S
C301 H302 0.960 . S
H302 C301 0.960 . S
H303 N283 0.862 . S
O304 Co272 1.920 . S
O304 C277 1.289 . S
C305 O297 1.258 . S
C305 O298 1.266 . S
Co306 O309 1.970 . S
Co306 N323 1.989 . S
Co306 O331 1.967 . S
Co306 O338 1.920 . S
Co307 O310 1.966 . S
Co307 N316 2.022 . S
Co307 N324 1.993 . S
Co307 O332 1.941 . S
C308 O309 1.258 . S
C308 O310 1.263 . S
O309 Co306 1.970 . S
O309 C308 1.258 . S
O310 Co307 1.966 . S
O310 C308 1.263 . S
C311 O312 1.235 . S
C311 O338 1.289 . S
O312 C311 1.235 . S
C313 C315 1.400 . S
C313 N316 1.351 . S
C313 C318 1.501 . S
C314 C315 1.387 . S
C314 N317 1.341 . S
C315 C313 1.400 . S
C315 C314 1.387 . S
N316 Co307 2.022 . S
N316 C313 1.351 . S
N316 N317 1.365 . S
N317 C314 1.341 . S
N317 N316 1.365 . S
N317 H337 0.862 . S
C318 C313 1.501 . S
C318 H319 0.961 . S
C318 H320 0.961 . S
C318 H321 0.960 . S
H319 C318 0.961 . S
H320 C318 0.961 . S
H321 C318 0.960 . S
C322 N323 1.342 . S
C322 C326 1.401 . S
C322 C327 1.499 . S
N323 Co306 1.989 . S
N323 C322 1.342 . S
N323 N324 1.388 . S
N324 Co307 1.993 . S
N324 N323 1.388 . S
N324 C325 1.346 . S
C325 N324 1.346 . S
C325 C326 1.396 . S
C325 C335 1.510 . S
C326 C322 1.401 . S
C326 C325 1.396 . S
C327 C322 1.499 . S
C327 H328 0.959 . S
C327 H329 0.960 . S
C327 H330 0.961 . S
H328 C327 0.959 . S
H329 C327 0.960 . S
H330 C327 0.961 . S
O331 Co306 1.967 . S
O331 C339 1.258 . S
O332 Co307 1.941 . S
O332 C339 1.266 . S
H333 C335 0.959 . S
H334 C335 0.961 . S
C335 C325 1.510 . S
C335 H333 0.959 . S
C335 H334 0.961 . S
C335 H336 0.960 . S
H336 C335 0.960 . S
H337 N317 0.862 . S
O338 Co306 1.920 . S
O338 C311 1.289 . S
C339 O331 1.258 . S
C339 O332 1.266 . S
Co340 O343 1.970 . S
Co340 N357 1.989 . S
Co340 O365 1.967 . S
Co340 O372 1.920 . S
Co341 O344 1.966 . S
Co341 N350 2.022 . S
Co341 N358 1.993 . S
Co341 O366 1.941 . S
C342 O343 1.258 . S
C342 O344 1.263 . S
O343 Co340 1.970 . S
O343 C342 1.258 . S
O344 Co341 1.966 . S
O344 C342 1.263 . S
C345 O346 1.235 . S
C345 O372 1.289 . S
O346 C345 1.235 . S
C347 C349 1.400 . S
C347 N350 1.351 . S
C347 C352 1.501 . S
C348 C349 1.387 . S
C348 N351 1.341 . S
C349 C347 1.400 . S
C349 C348 1.387 . S
N350 Co341 2.022 . S
N350 C347 1.351 . S
N350 N351 1.365 . S
N351 C348 1.341 . S
N351 N350 1.365 . S
N351 H371 0.862 . S
C352 C347 1.501 . S
C352 H353 0.961 . S
C352 H354 0.961 . S
C352 H355 0.960 . S
H353 C352 0.961 . S
H354 C352 0.961 . S
H355 C352 0.960 . S
C356 N357 1.342 . S
C356 C360 1.401 . S
C356 C361 1.499 . S
N357 Co340 1.989 . S
N357 C356 1.342 . S
N357 N358 1.388 . S
N358 Co341 1.993 . S
N358 N357 1.388 . S
N358 C359 1.346 . S
C359 N358 1.346 . S
C359 C360 1.396 . S
C359 C369 1.510 . S
C360 C356 1.401 . S
C360 C359 1.396 . S
C361 C356 1.499 . S
C361 H362 0.959 . S
C361 H363 0.960 . S
C361 H364 0.961 . S
H362 C361 0.959 . S
H363 C361 0.960 . S
H364 C361 0.961 . S
O365 Co340 1.967 . S
O365 C373 1.258 . S
O366 Co341 1.941 . S
O366 C373 1.266 . S
H367 C369 0.959 . S
H368 C369 0.961 . S
C369 C359 1.510 . S
C369 H367 0.959 . S
C369 H368 0.961 . S
C369 H370 0.960 . S
H370 C369 0.960 . S
H371 N351 0.862 . S
O372 Co340 1.920 . S
O372 C345 1.289 . S
C373 O365 1.258 . S
C373 O366 1.266 . S
Co374 O377 1.970 . S
Co374 N391 1.989 . S
Co374 O399 1.967 . S
Co374 O406 1.920 . S
Co375 O378 1.966 . S
Co375 N384 2.022 . S
Co375 N392 1.993 . S
Co375 O400 1.941 . S
C376 O377 1.258 . S
C376 O378 1.263 . S
O377 Co374 1.970 . S
O377 C376 1.258 . S
O378 Co375 1.966 . S
O378 C376 1.263 . S
C379 O380 1.235 . S
C379 O406 1.289 . S
O380 C379 1.235 . S
C381 C383 1.400 . S
C381 N384 1.351 . S
C381 C386 1.501 . S
C382 C383 1.387 . S
C382 N385 1.341 . S
C383 C381 1.400 . S
C383 C382 1.387 . S
N384 Co375 2.022 . S
N384 C381 1.351 . S
N384 N385 1.365 . S
N385 C382 1.341 . S
N385 N384 1.365 . S
N385 H405 0.862 . S
C386 C381 1.501 . S
C386 H387 0.961 . S
C386 H388 0.961 . S
C386 H389 0.960 . S
H387 C386 0.961 . S
H388 C386 0.961 . S
H389 C386 0.960 . S
C390 N391 1.342 . S
C390 C394 1.401 . S
C390 C395 1.499 . S
N391 Co374 1.989 . S
N391 C390 1.342 . S
N391 N392 1.388 . S
N392 Co375 1.993 . S
N392 N391 1.388 . S
N392 C393 1.346 . S
C393 N392 1.346 . S
C393 C394 1.396 . S
C393 C403 1.510 . S
C394 C390 1.401 . S
C394 C393 1.396 . S
C395 C390 1.499 . S
C395 H396 0.959 . S
C395 H397 0.960 . S
C395 H398 0.961 . S
H396 C395 0.959 . S
H397 C395 0.960 . S
H398 C395 0.961 . S
O399 Co374 1.967 . S
O399 C407 1.258 . S
O400 Co375 1.941 . S
O400 C407 1.266 . S
H401 C403 0.959 . S
H402 C403 0.961 . S
C403 C393 1.510 . S
C403 H401 0.959 . S
C403 H402 0.961 . S
C403 H404 0.960 . S
H404 C403 0.960 . S
H405 N385 0.862 . S
O406 Co374 1.920 . S
O406 C379 1.289 . S
C407 O399 1.258 . S
C407 O400 1.266 . S
Co408 O411 1.970 . S
Co408 N425 1.989 . S
Co408 O433 1.967 . S
Co408 O440 1.920 . S
Co409 O412 1.966 . S
Co409 N418 2.022 . S
Co409 N426 1.993 . S
Co409 O434 1.941 . S
C410 O411 1.258 . S
C410 O412 1.263 . S
O411 Co408 1.970 . S
O411 C410 1.258 . S
O412 Co409 1.966 . S
O412 C410 1.263 . S
C413 O414 1.235 . S
C413 O440 1.289 . S
O414 C413 1.235 . S
C415 C417 1.400 . S
C415 N418 1.351 . S
C415 C420 1.501 . S
C416 C417 1.387 . S
C416 N419 1.341 . S
C417 C415 1.400 . S
C417 C416 1.387 . S
N418 Co409 2.022 . S
N418 C415 1.351 . S
N418 N419 1.365 . S
N419 C416 1.341 . S
N419 N418 1.365 . S
N419 H439 0.862 . S
C420 C415 1.501 . S
C420 H421 0.961 . S
C420 H422 0.961 . S
C420 H423 0.960 . S
H421 C420 0.961 . S
H422 C420 0.961 . S
H423 C420 0.960 . S
C424 N425 1.342 . S
C424 C428 1.401 . S
C424 C429 1.499 . S
N425 Co408 1.989 . S
N425 C424 1.342 . S
N425 N426 1.388 . S
N426 Co409 1.993 . S
N426 N425 1.388 . S
N426 C427 1.346 . S
C427 N426 1.346 . S
C427 C428 1.396 . S
C427 C437 1.510 . S
C428 C424 1.401 . S
C428 C427 1.396 . S
C429 C424 1.499 . S
C429 H430 0.959 . S
C429 H431 0.960 . S
C429 H432 0.961 . S
H430 C429 0.959 . S
H431 C429 0.960 . S
H432 C429 0.961 . S
O433 Co408 1.967 . S
O433 C441 1.258 . S
O434 Co409 1.941 . S
O434 C441 1.266 . S
H435 C437 0.959 . S
H436 C437 0.961 . S
C437 C427 1.510 . S
C437 H435 0.959 . S
C437 H436 0.961 . S
C437 H438 0.960 . S
H438 C437 0.960 . S
H439 N419 0.862 . S
O440 Co408 1.920 . S
O440 C413 1.289 . S
C441 O433 1.258 . S
C441 O434 1.266 . S
Co442 O445 1.970 . S
Co442 N459 1.989 . S
Co442 O467 1.967 . S
Co442 O474 1.920 . S
Co443 O446 1.966 . S
Co443 N452 2.022 . S
Co443 N460 1.993 . S
Co443 O468 1.941 . S
C444 O445 1.258 . S
C444 O446 1.263 . S
O445 Co442 1.970 . S
O445 C444 1.258 . S
O446 Co443 1.966 . S
O446 C444 1.263 . S
C447 O448 1.235 . S
C447 O474 1.289 . S
O448 C447 1.235 . S
C449 C451 1.400 . S
C449 N452 1.351 . S
C449 C454 1.501 . S
C450 C451 1.387 . S
C450 N453 1.341 . S
C451 C449 1.400 . S
C451 C450 1.387 . S
N452 Co443 2.022 . S
N452 C449 1.351 . S
N452 N453 1.365 . S
N453 C450 1.341 . S
N453 N452 1.365 . S
N453 H473 0.862 . S
C454 C449 1.501 . S
C454 H455 0.961 . S
C454 H456 0.961 . S
C454 H457 0.960 . S
H455 C454 0.961 . S
H456 C454 0.961 . S
H457 C454 0.960 . S
C458 N459 1.342 . S
C458 C462 1.401 . S
C458 C463 1.499 . S
N459 Co442 1.989 . S
N459 C458 1.342 . S
N459 N460 1.388 . S
N460 Co443 1.993 . S
N460 N459 1.388 . S
N460 C461 1.346 . S
C461 N460 1.346 . S
C461 C462 1.396 . S
C461 C471 1.510 . S
C462 C458 1.401 . S
C462 C461 1.396 . S
C463 C458 1.499 . S
C463 H464 0.959 . S
C463 H465 0.960 . S
C463 H466 0.961 . S
H464 C463 0.959 . S
H465 C463 0.960 . S
H466 C463 0.961 . S
O467 Co442 1.967 . S
O467 C475 1.258 . S
O468 Co443 1.941 . S
O468 C475 1.266 . S
H469 C471 0.959 . S
H470 C471 0.961 . S
C471 C461 1.510 . S
C471 H469 0.959 . S
C471 H470 0.961 . S
C471 H472 0.960 . S
H472 C471 0.960 . S
H473 N453 0.862 . S
O474 Co442 1.920 . S
O474 C447 1.289 . S
C475 O467 1.258 . S
C475 O468 1.266 . S
Co476 O479 1.970 . S
Co476 N493 1.989 . S
Co476 O501 1.967 . S
Co476 O508 1.920 . S
Co477 O480 1.966 . S
Co477 N486 2.022 . S
Co477 N494 1.993 . S
Co477 O502 1.941 . S
C478 O479 1.258 . S
C478 O480 1.263 . S
O479 Co476 1.970 . S
O479 C478 1.258 . S
O480 Co477 1.966 . S
O480 C478 1.263 . S
C481 O482 1.235 . S
C481 O508 1.289 . S
O482 C481 1.235 . S
C483 C485 1.400 . S
C483 N486 1.351 . S
C483 C488 1.501 . S
C484 C485 1.387 . S
C484 N487 1.341 . S
C485 C483 1.400 . S
C485 C484 1.387 . S
N486 Co477 2.022 . S
N486 C483 1.351 . S
N486 N487 1.365 . S
N487 C484 1.341 . S
N487 N486 1.365 . S
N487 H507 0.862 . S
C488 C483 1.501 . S
C488 H489 0.961 . S
C488 H490 0.961 . S
C488 H491 0.960 . S
H489 C488 0.961 . S
H490 C488 0.961 . S
H491 C488 0.960 . S
C492 N493 1.342 . S
C492 C496 1.401 . S
C492 C497 1.499 . S
N493 Co476 1.989 . S
N493 C492 1.342 . S
N493 N494 1.388 . S
N494 Co477 1.993 . S
N494 N493 1.388 . S
N494 C495 1.346 . S
C495 N494 1.346 . S
C495 C496 1.396 . S
C495 C505 1.510 . S
C496 C492 1.401 . S
C496 C495 1.396 . S
C497 C492 1.499 . S
C497 H498 0.959 . S
C497 H499 0.960 . S
C497 H500 0.961 . S
H498 C497 0.959 . S
H499 C497 0.960 . S
H500 C497 0.961 . S
O501 Co476 1.967 . S
O501 C509 1.258 . S
O502 Co477 1.941 . S
O502 C509 1.266 . S
H503 C505 0.959 . S
H504 C505 0.961 . S
C505 C495 1.510 . S
C505 H503 0.959 . S
C505 H504 0.961 . S
C505 H506 0.960 . S
H506 C505 0.960 . S
H507 N487 0.862 . S
O508 Co476 1.920 . S
O508 C481 1.289 . S
C509 O501 1.258 . S
C509 O502 1.266 . S
Co510 O513 1.970 . S
Co510 N527 1.989 . S
Co510 O535 1.967 . S
Co510 O542 1.920 . S
Co511 O514 1.966 . S
Co511 N520 2.022 . S
Co511 N528 1.993 . S
Co511 O536 1.941 . S
C512 O513 1.258 . S
C512 O514 1.263 . S
O513 Co510 1.970 . S
O513 C512 1.258 . S
O514 Co511 1.966 . S
O514 C512 1.263 . S
C515 O516 1.235 . S
C515 O542 1.289 . S
O516 C515 1.235 . S
C517 C519 1.400 . S
C517 N520 1.351 . S
C517 C522 1.501 . S
C518 C519 1.387 . S
C518 N521 1.341 . S
C519 C517 1.400 . S
C519 C518 1.387 . S
N520 Co511 2.022 . S
N520 C517 1.351 . S
N520 N521 1.365 . S
N521 C518 1.341 . S
N521 N520 1.365 . S
N521 H541 0.862 . S
C522 C517 1.501 . S
C522 H523 0.961 . S
C522 H524 0.961 . S
C522 H525 0.960 . S
H523 C522 0.961 . S
H524 C522 0.961 . S
H525 C522 0.960 . S
C526 N527 1.342 . S
C526 C530 1.401 . S
C526 C531 1.499 . S
N527 Co510 1.989 . S
N527 C526 1.342 . S
N527 N528 1.388 . S
N528 Co511 1.993 . S
N528 N527 1.388 . S
N528 C529 1.346 . S
C529 N528 1.346 . S
C529 C530 1.396 . S
C529 C539 1.510 . S
C530 C526 1.401 . S
C530 C529 1.396 . S
C531 C526 1.499 . S
C531 H532 0.959 . S
C531 H533 0.960 . S
C531 H534 0.961 . S
H532 C531 0.959 . S
H533 C531 0.960 . S
H534 C531 0.961 . S
O535 Co510 1.967 . S
O535 C543 1.258 . S
O536 Co511 1.941 . S
O536 C543 1.266 . S
H537 C539 0.959 . S
H538 C539 0.961 . S
C539 C529 1.510 . S
C539 H537 0.959 . S
C539 H538 0.961 . S
C539 H540 0.960 . S
H540 C539 0.960 . S
H541 N521 0.862 . S
O542 Co510 1.920 . S
O542 C515 1.289 . S
C543 O535 1.258 . S
C543 O536 1.266 . S
C544 C545 1.349 . S
C544 C546 1.327 . S
C544 H569 0.950 . S
C545 C544 1.349 . S
C545 C561 1.349 . S
C546 C544 1.327 . S
C546 C565 1.429 . S
C546 H570 0.950 . S
C547 C564 1.574 . S
C547 C566 1.368 . S
C547 H571 0.949 . S
H548 C552 0.949 . S
C549 C550 1.349 . S
C549 C551 1.327 . S
C549 H572 0.950 . S
C550 C549 1.349 . S
C550 C562 1.349 . S
C551 C549 1.327 . S
C551 C567 1.429 . S
C551 H573 0.950 . S
C552 H548 0.949 . S
C552 C560 1.574 . S
C552 C568 1.368 . S
H553 C561 0.950 . S
H554 C559 0.950 . S
H555 C560 0.949 . S
H556 C562 0.950 . S
H557 C563 0.950 . S
H558 C564 0.949 . S
C559 H554 0.950 . S
C559 C561 1.327 . S
C559 C565 1.429 . S
C560 C552 1.574 . S
C560 H555 0.949 . S
C560 C566 1.368 . S
C561 C545 1.349 . S
C561 H553 0.950 . S
C561 C559 1.327 . S
C562 C550 1.349 . S
C562 H556 0.950 . S
C562 C563 1.327 . S
C563 H557 0.950 . S
C563 C562 1.327 . S
C563 C567 1.429 . S
C564 C547 1.574 . S
C564 H558 0.949 . S
C564 C568 1.368 . S
C565 C546 1.429 . S
C565 C559 1.429 . S
C565 C566 1.523 . S
C566 C547 1.368 . S
C566 C560 1.368 . S
C566 C565 1.523 . S
C567 C551 1.429 . S
C567 C563 1.429 . S
C567 C568 1.523 . S
C568 C552 1.368 . S
C568 C564 1.368 . S
C568 C567 1.523 . S
H569 C544 0.950 . S
H570 C546 0.950 . S
H571 C547 0.949 . S
H572 C549 0.950 . S
H573 C551 0.950 . S
C574 C575 1.349 . S
C574 C576 1.327 . S
C574 H599 0.950 . S
C575 C574 1.349 . S
C575 C591 1.349 . S
C576 C574 1.327 . S
C576 C595 1.429 . S
C576 H600 0.950 . S
C577 C594 1.574 . S
C577 C596 1.368 . S
C577 H601 0.949 . S
H578 C582 0.949 . S
C579 C580 1.349 . S
C579 C581 1.327 . S
C579 H602 0.950 . S
C580 C579 1.349 . S
C580 C592 1.349 . S
C581 C579 1.327 . S
C581 C597 1.429 . S
C581 H603 0.950 . S
C582 H578 0.949 . S
C582 C590 1.574 . S
C582 C598 1.368 . S
H583 C591 0.950 . S
H584 C589 0.950 . S
H585 C590 0.949 . S
H586 C592 0.950 . S
H587 C593 0.950 . S
H588 C594 0.949 . S
C589 H584 0.950 . S
C589 C591 1.327 . S
C589 C595 1.429 . S
C590 C582 1.574 . S
C590 H585 0.949 . S
C590 C596 1.368 . S
C591 C575 1.349 . S
C591 H583 0.950 . S
C591 C589 1.327 . S
C592 C580 1.349 . S
C592 H586 0.950 . S
C592 C593 1.327 . S
C593 H587 0.950 . S
C593 C592 1.327 . S
C593 C597 1.429 . S
C594 C577 1.574 . S
C594 H588 0.949 . S
C594 C598 1.368 . S
C595 C576 1.429 . S
C595 C589 1.429 . S
C595 C596 1.523 . S
C596 C577 1.368 . S
C596 C590 1.368 . S
C596 C595 1.523 . S
C597 C581 1.429 . S
C597 C593 1.429 . S
C597 C598 1.523 . S
C598 C582 1.368 . S
C598 C594 1.368 . S
C598 C597 1.523 . S
H599 C574 0.950 . S
H600 C576 0.950 . S
H601 C577 0.949 . S
H602 C579 0.950 . S
H603 C581 0.950 . S
C604 C605 1.349 . S
C604 C606 1.327 . S
C604 H629 0.950 . S
C605 C604 1.349 . S
C605 C621 1.349 . S
C606 C604 1.327 . S
C606 C625 1.429 . S
C606 H630 0.950 . S
C607 C624 1.574 . S
C607 C626 1.368 . S
C607 H631 0.949 . S
H608 C612 0.949 . S
C609 C610 1.349 . S
C609 C611 1.327 . S
C609 H632 0.950 . S
C610 C609 1.349 . S
C610 C622 1.349 . S
C611 C609 1.327 . S
C611 C627 1.429 . S
C611 H633 0.950 . S
C612 H608 0.949 . S
C612 C620 1.574 . S
C612 C628 1.368 . S
H613 C621 0.950 . S
H614 C619 0.950 . S
H615 C620 0.949 . S
H616 C622 0.950 . S
H617 C623 0.950 . S
H618 C624 0.949 . S
C619 H614 0.950 . S
C619 C621 1.327 . S
C619 C625 1.429 . S
C620 C612 1.574 . S
C620 H615 0.949 . S
C620 C626 1.368 . S
C621 C605 1.349 . S
C621 H613 0.950 . S
C621 C619 1.327 . S
C622 C610 1.349 . S
C622 H616 0.950 . S
C622 C623 1.327 . S
C623 H617 0.950 . S
C623 C622 1.327 . S
C623 C627 1.429 . S
C624 C607 1.574 . S
C624 H618 0.949 . S
C624 C628 1.368 . S
C625 C606 1.429 . S
C625 C619 1.429 . S
C625 C626 1.523 . S
C626 C607 1.368 . S
C626 C620 1.368 . S
C626 C625 1.523 . S
C627 C611 1.429 . S
C627 C623 1.429 . S
C627 C628 1.523 . S
C628 C612 1.368 . S
C628 C624 1.368 . S
C628 C627 1.523 . S
H629 C604 0.950 . S
H630 C606 0.950 . S
H631 C607 0.949 . S
H632 C609 0.950 . S
H633 C611 0.950 . S
C634 C635 1.349 . S
C634 C636 1.327 . S
C634 H659 0.950 . S
C635 C634 1.349 . S
C635 C651 1.349 . S
C636 C634 1.327 . S
C636 C655 1.429 . S
C636 H660 0.950 . S
C637 C654 1.574 . S
C637 C656 1.368 . S
C637 H661 0.949 . S
H638 C642 0.949 . S
C639 C640 1.349 . S
C639 C641 1.327 . S
C639 H662 0.950 . S
C640 C639 1.349 . S
C640 C652 1.349 . S
C641 C639 1.327 . S
C641 C657 1.429 . S
C641 H663 0.950 . S
C642 H638 0.949 . S
C642 C650 1.574 . S
C642 C658 1.368 . S
H643 C651 0.950 . S
H644 C649 0.950 . S
H645 C650 0.949 . S
H646 C652 0.950 . S
H647 C653 0.950 . S
H648 C654 0.949 . S
C649 H644 0.950 . S
C649 C651 1.327 . S
C649 C655 1.429 . S
C650 C642 1.574 . S
C650 H645 0.949 . S
C650 C656 1.368 . S
C651 C635 1.349 . S
C651 H643 0.950 . S
C651 C649 1.327 . S
C652 C640 1.349 . S
C652 H646 0.950 . S
C652 C653 1.327 . S
C653 H647 0.950 . S
C653 C652 1.327 . S
C653 C657 1.429 . S
C654 C637 1.574 . S
C654 H648 0.949 . S
C654 C658 1.368 . S
C655 C636 1.429 . S
C655 C649 1.429 . S
C655 C656 1.523 . S
C656 C637 1.368 . S
C656 C650 1.368 . S
C656 C655 1.523 . S
C657 C641 1.429 . S
C657 C653 1.429 . S
C657 C658 1.523 . S
C658 C642 1.368 . S
C658 C654 1.368 . S
C658 C657 1.523 . S
H659 C634 0.950 . S
H660 C636 0.950 . S
H661 C637 0.949 . S
H662 C639 0.950 . S
H663 C641 0.950 . S
C664 C665 1.349 . S
C664 C666 1.327 . S
C664 H689 0.950 . S
C665 C664 1.349 . S
C665 C681 1.349 . S
C666 C664 1.327 . S
C666 C685 1.429 . S
C666 H690 0.950 . S
C667 C684 1.574 . S
C667 C686 1.368 . S
C667 H691 0.949 . S
H668 C672 0.949 . S
C669 C670 1.349 . S
C669 C671 1.327 . S
C669 H692 0.950 . S
C670 C669 1.349 . S
C670 C682 1.349 . S
C671 C669 1.327 . S
C671 C687 1.429 . S
C671 H693 0.950 . S
C672 H668 0.949 . S
C672 C680 1.574 . S
C672 C688 1.368 . S
H673 C681 0.950 . S
H674 C679 0.950 . S
H675 C680 0.949 . S
H676 C682 0.950 . S
H677 C683 0.950 . S
H678 C684 0.949 . S
C679 H674 0.950 . S
C679 C681 1.327 . S
C679 C685 1.429 . S
C680 C672 1.574 . S
C680 H675 0.949 . S
C680 C686 1.368 . S
C681 C665 1.349 . S
C681 H673 0.950 . S
C681 C679 1.327 . S
C682 C670 1.349 . S
C682 H676 0.950 . S
C682 C683 1.327 . S
C683 H677 0.950 . S
C683 C682 1.327 . S
C683 C687 1.429 . S
C684 C667 1.574 . S
C684 H678 0.949 . S
C684 C688 1.368 . S
C685 C666 1.429 . S
C685 C679 1.429 . S
C685 C686 1.523 . S
C686 C667 1.368 . S
C686 C680 1.368 . S
C686 C685 1.523 . S
C687 C671 1.429 . S
C687 C683 1.429 . S
C687 C688 1.523 . S
C688 C672 1.368 . S
C688 C684 1.368 . S
C688 C687 1.523 . S
H689 C664 0.950 . S
H690 C666 0.950 . S
H691 C667 0.949 . S
H692 C669 0.950 . S
H693 C671 0.950 . S
C694 C695 1.349 . S
C694 C696 1.327 . S
C694 H719 0.950 . S
C695 C694 1.349 . S
C695 C711 1.349 . S
C696 C694 1.327 . S
C696 C715 1.429 . S
C696 H720 0.950 . S
C697 C714 1.574 . S
C697 C716 1.368 . S
C697 H721 0.949 . S
H698 C702 0.949 . S
C699 C700 1.349 . S
C699 C701 1.327 . S
C699 H722 0.950 . S
C700 C699 1.349 . S
C700 C712 1.349 . S
C701 C699 1.327 . S
C701 C717 1.429 . S
C701 H723 0.950 . S
C702 H698 0.949 . S
C702 C710 1.574 . S
C702 C718 1.368 . S
H703 C711 0.950 . S
H704 C709 0.950 . S
H705 C710 0.949 . S
H706 C712 0.950 . S
H707 C713 0.950 . S
H708 C714 0.949 . S
C709 H704 0.950 . S
C709 C711 1.327 . S
C709 C715 1.429 . S
C710 C702 1.574 . S
C710 H705 0.949 . S
C710 C716 1.368 . S
C711 C695 1.349 . S
C711 H703 0.950 . S
C711 C709 1.327 . S
C712 C700 1.349 . S
C712 H706 0.950 . S
C712 C713 1.327 . S
C713 H707 0.950 . S
C713 C712 1.327 . S
C713 C717 1.429 . S
C714 C697 1.574 . S
C714 H708 0.949 . S
C714 C718 1.368 . S
C715 C696 1.429 . S
C715 C709 1.429 . S
C715 C716 1.523 . S
C716 C697 1.368 . S
C716 C710 1.368 . S
C716 C715 1.523 . S
C717 C701 1.429 . S
C717 C713 1.429 . S
C717 C718 1.523 . S
C718 C702 1.368 . S
C718 C714 1.368 . S
C718 C717 1.523 . S
H719 C694 0.950 . S
H720 C696 0.950 . S
H721 C697 0.949 . S
H722 C699 0.950 . S
H723 C701 0.950 . S
C724 C725 1.349 . S
C724 C726 1.327 . S
C724 H749 0.950 . S
C725 C724 1.349 . S
C725 C741 1.349 . S
C726 C724 1.327 . S
C726 C745 1.429 . S
C726 H750 0.950 . S
C727 C744 1.574 . S
C727 C746 1.368 . S
C727 H751 0.949 . S
H728 C732 0.949 . S
C729 C730 1.349 . S
C729 C731 1.327 . S
C729 H752 0.950 . S
C730 C729 1.349 . S
C730 C742 1.349 . S
C731 C729 1.327 . S
C731 C747 1.429 . S
C731 H753 0.950 . S
C732 H728 0.949 . S
C732 C740 1.574 . S
C732 C748 1.368 . S
H733 C741 0.950 . S
H734 C739 0.950 . S
H735 C740 0.949 . S
H736 C742 0.950 . S
H737 C743 0.950 . S
H738 C744 0.949 . S
C739 H734 0.950 . S
C739 C741 1.327 . S
C739 C745 1.429 . S
C740 C732 1.574 . S
C740 H735 0.949 . S
C740 C746 1.368 . S
C741 C725 1.349 . S
C741 H733 0.950 . S
C741 C739 1.327 . S
C742 C730 1.349 . S
C742 H736 0.950 . S
C742 C743 1.327 . S
C743 H737 0.950 . S
C743 C742 1.327 . S
C743 C747 1.429 . S
C744 C727 1.574 . S
C744 H738 0.949 . S
C744 C748 1.368 . S
C745 C726 1.429 . S
C745 C739 1.429 . S
C745 C746 1.523 . S
C746 C727 1.368 . S
C746 C740 1.368 . S
C746 C745 1.523 . S
C747 C731 1.429 . S
C747 C743 1.429 . S
C747 C748 1.523 . S
C748 C732 1.368 . S
C748 C744 1.368 . S
C748 C747 1.523 . S
H749 C724 0.950 . S
H750 C726 0.950 . S
H751 C727 0.949 . S
H752 C729 0.950 . S
H753 C731 0.950 . S
C754 C755 1.349 . S
C754 C756 1.327 . S
C754 H779 0.950 . S
C755 C754 1.349 . S
C755 C771 1.349 . S
C756 C754 1.327 . S
C756 C775 1.429 . S
C756 H780 0.950 . S
C757 C774 1.574 . S
C757 C776 1.368 . S
C757 H781 0.949 . S
H758 C762 0.949 . S
C759 C760 1.349 . S
C759 C761 1.327 . S
C759 H782 0.950 . S
C760 C759 1.349 . S
C760 C772 1.349 . S
C761 C759 1.327 . S
C761 C777 1.429 . S
C761 H783 0.950 . S
C762 H758 0.949 . S
C762 C770 1.574 . S
C762 C778 1.368 . S
H763 C771 0.950 . S
H764 C769 0.950 . S
H765 C770 0.949 . S
H766 C772 0.950 . S
H767 C773 0.950 . S
H768 C774 0.949 . S
C769 H764 0.950 . S
C769 C771 1.327 . S
C769 C775 1.429 . S
C770 C762 1.574 . S
C770 H765 0.949 . S
C770 C776 1.368 . S
C771 C755 1.349 . S
C771 H763 0.950 . S
C771 C769 1.327 . S
C772 C760 1.349 . S
C772 H766 0.950 . S
C772 C773 1.327 . S
C773 H767 0.950 . S
C773 C772 1.327 . S
C773 C777 1.429 . S
C774 C757 1.574 . S
C774 H768 0.949 . S
C774 C778 1.368 . S
C775 C756 1.429 . S
C775 C769 1.429 . S
C775 C776 1.523 . S
C776 C757 1.368 . S
C776 C770 1.368 . S
C776 C775 1.523 . S
C777 C761 1.429 . S
C777 C773 1.429 . S
C777 C778 1.523 . S
C778 C762 1.368 . S
C778 C774 1.368 . S
C778 C777 1.523 . S
H779 C754 0.950 . S
H780 C756 0.950 . S
H781 C757 0.949 . S
H782 C759 0.950 . S
H783 C761 0.950 . S
C784 C785 1.349 . S
C784 C786 1.327 . S
C784 H809 0.950 . S
C785 C784 1.349 . S
C785 C801 1.349 . S
C786 C784 1.327 . S
C786 C805 1.429 . S
C786 H810 0.950 . S
C787 C804 1.574 1_554 S
C787 C806 1.368 . S
C787 H811 0.949 . S
H788 C792 0.949 . S
C789 C790 1.349 . S
C789 C791 1.327 . S
C789 H812 0.950 . S
C790 C789 1.349 . S
C790 C802 1.349 . S
C791 C789 1.327 . S
C791 C807 1.429 . S
C791 H813 0.950 . S
C792 H788 0.949 . S
C792 C800 1.574 1_556 S
C792 C808 1.368 . S
H793 C801 0.950 . S
H794 C799 0.950 . S
H795 C800 0.949 . S
H796 C802 0.950 . S
H797 C803 0.950 . S
H798 C804 0.949 . S
C799 H794 0.950 . S
C799 C801 1.327 . S
C799 C805 1.429 . S
C800 C792 1.574 1_554 S
C800 H795 0.949 . S
C800 C806 1.368 . S
C801 C785 1.349 . S
C801 H793 0.950 . S
C801 C799 1.327 . S
C802 C790 1.349 . S
C802 H796 0.950 . S
C802 C803 1.327 . S
C803 H797 0.950 . S
C803 C802 1.327 . S
C803 C807 1.429 . S
C804 C787 1.574 1_556 S
C804 H798 0.949 . S
C804 C808 1.368 . S
C805 C786 1.429 . S
C805 C799 1.429 . S
C805 C806 1.523 . S
C806 C787 1.368 . S
C806 C800 1.368 . S
C806 C805 1.523 . S
C807 C791 1.429 . S
C807 C803 1.429 . S
C807 C808 1.523 . S
C808 C792 1.368 . S
C808 C804 1.368 . S
C808 C807 1.523 . S
H809 C784 0.950 . S
H810 C786 0.950 . S
H811 C787 0.949 . S
H812 C789 0.950 . S
H813 C791 0.950 . S
C814 C815 1.349 . S
C814 C816 1.327 . S
C814 H839 0.950 . S
C815 C814 1.349 . S
C815 C831 1.349 . S
C816 C814 1.327 . S
C816 C835 1.429 . S
C816 H840 0.950 . S
C817 C834 1.574 1_554 S
C817 C836 1.368 . S
C817 H841 0.949 . S
H818 C822 0.949 . S
C819 C820 1.349 . S
C819 C821 1.327 . S
C819 H842 0.950 . S
C820 C819 1.349 . S
C820 C832 1.349 . S
C821 C819 1.327 . S
C821 C837 1.429 . S
C821 H843 0.950 . S
C822 H818 0.949 . S
C822 C830 1.574 1_556 S
C822 C838 1.368 . S
H823 C831 0.950 . S
H824 C829 0.950 . S
H825 C830 0.949 . S
H826 C832 0.950 . S
H827 C833 0.950 . S
H828 C834 0.949 . S
C829 H824 0.950 . S
C829 C831 1.327 . S
C829 C835 1.429 . S
C830 C822 1.574 1_554 S
C830 H825 0.949 . S
C830 C836 1.368 . S
C831 C815 1.349 . S
C831 H823 0.950 . S
C831 C829 1.327 . S
C832 C820 1.349 . S
C832 H826 0.950 . S
C832 C833 1.327 . S
C833 H827 0.950 . S
C833 C832 1.327 . S
C833 C837 1.429 . S
C834 C817 1.574 1_556 S
C834 H828 0.949 . S
C834 C838 1.368 . S
C835 C816 1.429 . S
C835 C829 1.429 . S
C835 C836 1.523 . S
C836 C817 1.368 . S
C836 C830 1.368 . S
C836 C835 1.523 . S
C837 C821 1.429 . S
C837 C833 1.429 . S
C837 C838 1.523 . S
C838 C822 1.368 . S
C838 C834 1.368 . S
C838 C837 1.523 . S
H839 C814 0.950 . S
H840 C816 0.950 . S
H841 C817 0.949 . S
H842 C819 0.950 . S
H843 C821 0.950 . S
C844 C845 1.349 . S
C844 C846 1.327 . S
C844 H869 0.950 . S
C845 C844 1.349 . S
C845 C861 1.349 . S
C846 C844 1.327 . S
C846 C865 1.429 . S
C846 H870 0.950 . S
C847 C864 1.574 1_554 S
C847 C866 1.368 . S
C847 H871 0.949 . S
H848 C852 0.949 . S
C849 C850 1.349 . S
C849 C851 1.327 . S
C849 H872 0.950 . S
C850 C849 1.349 . S
C850 C862 1.349 . S
C851 C849 1.327 . S
C851 C867 1.429 . S
C851 H873 0.950 . S
C852 H848 0.949 . S
C852 C860 1.574 1_556 S
C852 C868 1.368 . S
H853 C861 0.950 . S
H854 C859 0.950 . S
H855 C860 0.949 . S
H856 C862 0.950 . S
H857 C863 0.950 . S
H858 C864 0.949 . S
C859 H854 0.950 . S
C859 C861 1.327 . S
C859 C865 1.429 . S
C860 C852 1.574 1_554 S
C860 H855 0.949 . S
C860 C866 1.368 . S
C861 C845 1.349 . S
C861 H853 0.950 . S
C861 C859 1.327 . S
C862 C850 1.349 . S
C862 H856 0.950 . S
C862 C863 1.327 . S
C863 H857 0.950 . S
C863 C862 1.327 . S
C863 C867 1.429 . S
C864 C847 1.574 1_556 S
C864 H858 0.949 . S
C864 C868 1.368 . S
C865 C846 1.429 . S
C865 C859 1.429 . S
C865 C866 1.523 . S
C866 C847 1.368 . S
C866 C860 1.368 . S
C866 C865 1.523 . S
C867 C851 1.429 . S
C867 C863 1.429 . S
C867 C868 1.523 . S
C868 C852 1.368 . S
C868 C864 1.368 . S
C868 C867 1.523 . S
H869 C844 0.950 . S
H870 C846 0.950 . S
H871 C847 0.949 . S
H872 C849 0.950 . S
H873 C851 0.950 . S
C874 C875 1.349 . S
C874 C876 1.327 . S
C874 H899 0.950 . S
C875 C874 1.349 . S
C875 C891 1.349 . S
C876 C874 1.327 . S
C876 C895 1.429 . S
C876 H900 0.950 . S
C877 C894 1.574 1_554 S
C877 C896 1.368 . S
C877 H901 0.949 . S
H878 C882 0.949 . S
C879 C880 1.349 . S
C879 C881 1.327 . S
C879 H902 0.950 . S
C880 C879 1.349 . S
C880 C892 1.349 . S
C881 C879 1.327 . S
C881 C897 1.429 . S
C881 H903 0.950 . S
C882 H878 0.949 . S
C882 C890 1.574 1_556 S
C882 C898 1.368 . S
H883 C891 0.950 . S
H884 C889 0.950 . S
H885 C890 0.949 . S
H886 C892 0.950 . S
H887 C893 0.950 . S
H888 C894 0.949 . S
C889 H884 0.950 . S
C889 C891 1.327 . S
C889 C895 1.429 . S
C890 C882 1.574 1_554 S
C890 H885 0.949 . S
C890 C896 1.368 . S
C891 C875 1.349 . S
C891 H883 0.950 . S
C891 C889 1.327 . S
C892 C880 1.349 . S
C892 H886 0.950 . S
C892 C893 1.327 . S
C893 H887 0.950 . S
C893 C892 1.327 . S
C893 C897 1.429 . S
C894 C877 1.574 1_556 S
C894 H888 0.949 . S
C894 C898 1.368 . S
C895 C876 1.429 . S
C895 C889 1.429 . S
C895 C896 1.523 . S
C896 C877 1.368 . S
C896 C890 1.368 . S
C896 C895 1.523 . S
C897 C881 1.429 . S
C897 C893 1.429 . S
C897 C898 1.523 . S
C898 C882 1.368 . S
C898 C894 1.368 . S
C898 C897 1.523 . S
H899 C874 0.950 . S
H900 C876 0.950 . S
H901 C877 0.949 . S
H902 C879 0.950 . S
H903 C881 0.950 . S
C904 C905 1.349 . S
C904 C906 1.327 . S
C904 H929 0.950 . S
C905 C904 1.349 . S
C905 C921 1.349 . S
C906 C904 1.327 . S
C906 C925 1.429 . S
C906 H930 0.950 . S
C907 C924 1.574 1_554 S
C907 C926 1.368 . S
C907 H931 0.949 . S
H908 C912 0.949 . S
C909 C910 1.349 . S
C909 C911 1.327 . S
C909 H932 0.950 . S
C910 C909 1.349 . S
C910 C922 1.349 . S
C911 C909 1.327 . S
C911 C927 1.429 . S
C911 H933 0.950 . S
C912 H908 0.949 . S
C912 C920 1.574 1_556 S
C912 C928 1.368 . S
H913 C921 0.950 . S
H914 C919 0.950 . S
H915 C920 0.949 . S
H916 C922 0.950 . S
H917 C923 0.950 . S
H918 C924 0.949 . S
C919 H914 0.950 . S
C919 C921 1.327 . S
C919 C925 1.429 . S
C920 C912 1.574 1_554 S
C920 H915 0.949 . S
C920 C926 1.368 . S
C921 C905 1.349 . S
C921 H913 0.950 . S
C921 C919 1.327 . S
C922 C910 1.349 . S
C922 H916 0.950 . S
C922 C923 1.327 . S
C923 H917 0.950 . S
C923 C922 1.327 . S
C923 C927 1.429 . S
C924 C907 1.574 1_556 S
C924 H918 0.949 . S
C924 C928 1.368 . S
C925 C906 1.429 . S
C925 C919 1.429 . S
C925 C926 1.523 . S
C926 C907 1.368 . S
C926 C920 1.368 . S
C926 C925 1.523 . S
C927 C911 1.429 . S
C927 C923 1.429 . S
C927 C928 1.523 . S
C928 C912 1.368 . S
C928 C924 1.368 . S
C928 C927 1.523 . S
H929 C904 0.950 . S
H930 C906 0.950 . S
H931 C907 0.949 . S
H932 C909 0.950 . S
H933 C911 0.950 . S
C934 C935 1.349 . S
C934 C936 1.327 . S
C934 H959 0.950 . S
C935 C934 1.349 . S
C935 C951 1.349 . S
C936 C934 1.327 . S
C936 C955 1.429 . S
C936 H960 0.950 . S
C937 C954 1.574 1_554 S
C937 C956 1.368 . S
C937 H961 0.949 . S
H938 C942 0.949 . S
C939 C940 1.349 . S
C939 C941 1.327 . S
C939 H962 0.950 . S
C940 C939 1.349 . S
C940 C952 1.349 . S
C941 C939 1.327 . S
C941 C957 1.429 . S
C941 H963 0.950 . S
C942 H938 0.949 . S
C942 C950 1.574 1_556 S
C942 C958 1.368 . S
H943 C951 0.950 . S
H944 C949 0.950 . S
H945 C950 0.949 . S
H946 C952 0.950 . S
H947 C953 0.950 . S
H948 C954 0.949 . S
C949 H944 0.950 . S
C949 C951 1.327 . S
C949 C955 1.429 . S
C950 C942 1.574 1_554 S
C950 H945 0.949 . S
C950 C956 1.368 . S
C951 C935 1.349 . S
C951 H943 0.950 . S
C951 C949 1.327 . S
C952 C940 1.349 . S
C952 H946 0.950 . S
C952 C953 1.327 . S
C953 H947 0.950 . S
C953 C952 1.327 . S
C953 C957 1.429 . S
C954 C937 1.574 1_556 S
C954 H948 0.949 . S
C954 C958 1.368 . S
C955 C936 1.429 . S
C955 C949 1.429 . S
C955 C956 1.523 . S
C956 C937 1.368 . S
C956 C950 1.368 . S
C956 C955 1.523 . S
C957 C941 1.429 . S
C957 C953 1.429 . S
C957 C958 1.523 . S
C958 C942 1.368 . S
C958 C954 1.368 . S
C958 C957 1.523 . S
H959 C934 0.950 . S
H960 C936 0.950 . S
H961 C937 0.949 . S
H962 C939 0.950 . S
H963 C941 0.950 . S
C964 C965 1.349 . S
C964 C966 1.327 . S
C964 H989 0.950 . S
C965 C964 1.349 . S
C965 C981 1.349 . S
C966 C964 1.327 . S
C966 C985 1.429 . S
C966 H990 0.950 . S
C967 C984 1.574 1_554 S
C967 C986 1.368 . S
C967 H991 0.949 . S
H968 C972 0.949 . S
C969 C970 1.349 . S
C969 C971 1.327 . S
C969 H992 0.950 . S
C970 C969 1.349 . S
C970 C982 1.349 . S
C971 C969 1.327 . S
C971 C987 1.429 . S
C971 H993 0.950 . S
C972 H968 0.949 . S
C972 C980 1.574 1_556 S
C972 C988 1.368 . S
H973 C981 0.950 . S
H974 C979 0.950 . S
H975 C980 0.949 . S
H976 C982 0.950 . S
H977 C983 0.950 . S
H978 C984 0.949 . S
C979 H974 0.950 . S
C979 C981 1.327 . S
C979 C985 1.429 . S
C980 C972 1.574 1_554 S
C980 H975 0.949 . S
C980 C986 1.368 . S
C981 C965 1.349 . S
C981 H973 0.950 . S
C981 C979 1.327 . S
C982 C970 1.349 . S
C982 H976 0.950 . S
C982 C983 1.327 . S
C983 H977 0.950 . S
C983 C982 1.327 . S
C983 C987 1.429 . S
C984 C967 1.574 1_556 S
C984 H978 0.949 . S
C984 C988 1.368 . S
C985 C966 1.429 . S
C985 C979 1.429 . S
C985 C986 1.523 . S
C986 C967 1.368 . S
C986 C980 1.368 . S
C986 C985 1.523 . S
C987 C971 1.429 . S
C987 C983 1.429 . S
C987 C988 1.523 . S
C988 C972 1.368 . S
C988 C984 1.368 . S
C988 C987 1.523 . S
H989 C964 0.950 . S
H990 C966 0.950 . S
H991 C967 0.949 . S
H992 C969 0.950 . S
H993 C971 0.950 . S
C994 C995 1.349 . S
C994 C996 1.327 . S
C994 H1019 0.950 . S
C995 C994 1.349 . S
C995 C1011 1.349 . S
C996 C994 1.327 . S
C996 C1015 1.429 . S
C996 H1020 0.950 . S
C997 C1014 1.574 1_554 S
C997 C1016 1.368 . S
C997 H1021 0.949 . S
H998 C1002 0.949 . S
C999 C1000 1.349 . S
C999 C1001 1.327 . S
C999 H1022 0.950 . S
C1000 C999 1.349 . S
C1000 C1012 1.349 . S
C1001 C999 1.327 . S
C1001 C1017 1.429 . S
C1001 H1023 0.950 . S
C1002 H998 0.949 . S
C1002 C1010 1.574 1_556 S
C1002 C1018 1.368 . S
H1003 C1011 0.950 . S
H1004 C1009 0.950 . S
H1005 C1010 0.949 . S
H1006 C1012 0.950 . S
H1007 C1013 0.950 . S
H1008 C1014 0.949 . S
C1009 H1004 0.950 . S
C1009 C1011 1.327 . S
C1009 C1015 1.429 . S
C1010 C1002 1.574 1_554 S
C1010 H1005 0.949 . S
C1010 C1016 1.368 . S
C1011 C995 1.349 . S
C1011 H1003 0.950 . S
C1011 C1009 1.327 . S
C1012 C1000 1.349 . S
C1012 H1006 0.950 . S
C1012 C1013 1.327 . S
C1013 H1007 0.950 . S
C1013 C1012 1.327 . S
C1013 C1017 1.429 . S
C1014 C997 1.574 1_556 S
C1014 H1008 0.949 . S
C1014 C1018 1.368 . S
C1015 C996 1.429 . S
C1015 C1009 1.429 . S
C1015 C1016 1.523 . S
C1016 C997 1.368 . S
C1016 C1010 1.368 . S
C1016 C1015 1.523 . S
C1017 C1001 1.429 . S
C1017 C1013 1.429 . S
C1017 C1018 1.523 . S
C1018 C1002 1.368 . S
C1018 C1014 1.368 . S
C1018 C1017 1.523 . S
H1019 C994 0.950 . S
H1020 C996 0.950 . S
H1021 C997 0.949 . S
H1022 C999 0.950 . S
H1023 C1001 0.950 . S
C1024 C1025 1.349 . S
C1024 C1026 1.327 . S
C1024 H1049 0.950 . S
C1025 C1024 1.349 . S
C1025 C1041 1.349 . S
C1026 C1024 1.327 . S
C1026 C1045 1.429 . S
C1026 H1050 0.950 . S
C1027 C1044 1.574 . S
C1027 C1046 1.368 . S
C1027 H1051 0.949 . S
H1028 C1032 0.949 . S
C1029 C1030 1.349 . S
C1029 C1031 1.327 . S
C1029 H1052 0.950 . S
C1030 C1029 1.349 . S
C1030 C1042 1.349 . S
C1031 C1029 1.327 . S
C1031 C1047 1.429 . S
C1031 H1053 0.950 . S
C1032 H1028 0.949 . S
C1032 C1040 1.574 . S
C1032 C1048 1.368 . S
H1033 C1041 0.950 . S
H1034 C1039 0.950 . S
H1035 C1040 0.949 . S
H1036 C1042 0.950 . S
H1037 C1043 0.950 . S
H1038 C1044 0.949 . S
C1039 H1034 0.950 . S
C1039 C1041 1.327 . S
C1039 C1045 1.429 . S
C1040 C1032 1.574 . S
C1040 H1035 0.949 . S
C1040 C1046 1.368 . S
C1041 C1025 1.349 . S
C1041 H1033 0.950 . S
C1041 C1039 1.327 . S
C1042 C1030 1.349 . S
C1042 H1036 0.950 . S
C1042 C1043 1.327 . S
C1043 H1037 0.950 . S
C1043 C1042 1.327 . S
C1043 C1047 1.429 . S
C1044 C1027 1.574 . S
C1044 H1038 0.949 . S
C1044 C1048 1.368 . S
C1045 C1026 1.429 . S
C1045 C1039 1.429 . S
C1045 C1046 1.523 . S
C1046 C1027 1.368 . S
C1046 C1040 1.368 . S
C1046 C1045 1.523 . S
C1047 C1031 1.429 . S
C1047 C1043 1.429 . S
C1047 C1048 1.523 . S
C1048 C1032 1.368 . S
C1048 C1044 1.368 . S
C1048 C1047 1.523 . S
H1049 C1024 0.950 . S
H1050 C1026 0.950 . S
H1051 C1027 0.949 . S
H1052 C1029 0.950 . S
H1053 C1031 0.950 . S
C1054 C1055 1.349 . S
C1054 C1056 1.327 . S
C1054 H1079 0.950 . S
C1055 C1054 1.349 . S
C1055 C1071 1.349 . S
C1056 C1054 1.327 . S
C1056 C1075 1.429 . S
C1056 H1080 0.950 . S
C1057 C1074 1.574 . S
C1057 C1076 1.368 . S
C1057 H1081 0.949 . S
H1058 C1062 0.949 . S
C1059 C1060 1.349 . S
C1059 C1061 1.327 . S
C1059 H1082 0.950 . S
C1060 C1059 1.349 . S
C1060 C1072 1.349 . S
C1061 C1059 1.327 . S
C1061 C1077 1.429 . S
C1061 H1083 0.950 . S
C1062 H1058 0.949 . S
C1062 C1070 1.574 . S
C1062 C1078 1.368 . S
H1063 C1071 0.950 . S
H1064 C1069 0.950 . S
H1065 C1070 0.949 . S
H1066 C1072 0.950 . S
H1067 C1073 0.950 . S
H1068 C1074 0.949 . S
C1069 H1064 0.950 . S
C1069 C1071 1.327 . S
C1069 C1075 1.429 . S
C1070 C1062 1.574 . S
C1070 H1065 0.949 . S
C1070 C1076 1.368 . S
C1071 C1055 1.349 . S
C1071 H1063 0.950 . S
C1071 C1069 1.327 . S
C1072 C1060 1.349 . S
C1072 H1066 0.950 . S
C1072 C1073 1.327 . S
C1073 H1067 0.950 . S
C1073 C1072 1.327 . S
C1073 C1077 1.429 . S
C1074 C1057 1.574 . S
C1074 H1068 0.949 . S
C1074 C1078 1.368 . S
C1075 C1056 1.429 . S
C1075 C1069 1.429 . S
C1075 C1076 1.523 . S
C1076 C1057 1.368 . S
C1076 C1070 1.368 . S
C1076 C1075 1.523 . S
C1077 C1061 1.429 . S
C1077 C1073 1.429 . S
C1077 C1078 1.523 . S
C1078 C1062 1.368 . S
C1078 C1074 1.368 . S
C1078 C1077 1.523 . S
H1079 C1054 0.950 . S
H1080 C1056 0.950 . S
H1081 C1057 0.949 . S
H1082 C1059 0.950 . S
H1083 C1061 0.950 . S
C1084 C1085 1.349 . S
C1084 C1086 1.327 . S
C1084 H1109 0.950 . S
C1085 C1084 1.349 . S
C1085 C1101 1.349 . S
C1086 C1084 1.327 . S
C1086 C1105 1.429 . S
C1086 H1110 0.950 . S
C1087 C1104 1.574 . S
C1087 C1106 1.368 . S
C1087 H1111 0.949 . S
H1088 C1092 0.949 . S
C1089 C1090 1.349 . S
C1089 C1091 1.327 . S
C1089 H1112 0.950 . S
C1090 C1089 1.349 . S
C1090 C1102 1.349 . S
C1091 C1089 1.327 . S
C1091 C1107 1.429 . S
C1091 H1113 0.950 . S
C1092 H1088 0.949 . S
C1092 C1100 1.574 . S
C1092 C1108 1.368 . S
H1093 C1101 0.950 . S
H1094 C1099 0.950 . S
H1095 C1100 0.949 . S
H1096 C1102 0.950 . S
H1097 C1103 0.950 . S
H1098 C1104 0.949 . S
C1099 H1094 0.950 . S
C1099 C1101 1.327 . S
C1099 C1105 1.429 . S
C1100 C1092 1.574 . S
C1100 H1095 0.949 . S
C1100 C1106 1.368 . S
C1101 C1085 1.349 . S
C1101 H1093 0.950 . S
C1101 C1099 1.327 . S
C1102 C1090 1.349 . S
C1102 H1096 0.950 . S
C1102 C1103 1.327 . S
C1103 H1097 0.950 . S
C1103 C1102 1.327 . S
C1103 C1107 1.429 . S
C1104 C1087 1.574 . S
C1104 H1098 0.949 . S
C1104 C1108 1.368 . S
C1105 C1086 1.429 . S
C1105 C1099 1.429 . S
C1105 C1106 1.523 . S
C1106 C1087 1.368 . S
C1106 C1100 1.368 . S
C1106 C1105 1.523 . S
C1107 C1091 1.429 . S
C1107 C1103 1.429 . S
C1107 C1108 1.523 . S
C1108 C1092 1.368 . S
C1108 C1104 1.368 . S
C1108 C1107 1.523 . S
H1109 C1084 0.950 . S
H1110 C1086 0.950 . S
H1111 C1087 0.949 . S
H1112 C1089 0.950 . S
H1113 C1091 0.950 . S
C1114 C1115 1.349 . S
C1114 C1116 1.327 . S
C1114 H1139 0.950 . S
C1115 C1114 1.349 . S
C1115 C1131 1.349 . S
C1116 C1114 1.327 . S
C1116 C1135 1.429 . S
C1116 H1140 0.950 . S
C1117 C1134 1.574 . S
C1117 C1136 1.368 . S
C1117 H1141 0.949 . S
H1118 C1122 0.949 . S
C1119 C1120 1.349 . S
C1119 C1121 1.327 . S
C1119 H1142 0.950 . S
C1120 C1119 1.349 . S
C1120 C1132 1.349 . S
C1121 C1119 1.327 . S
C1121 C1137 1.429 . S
C1121 H1143 0.950 . S
C1122 H1118 0.949 . S
C1122 C1130 1.574 . S
C1122 C1138 1.368 . S
H1123 C1131 0.950 . S
H1124 C1129 0.950 . S
H1125 C1130 0.949 . S
H1126 C1132 0.950 . S
H1127 C1133 0.950 . S
H1128 C1134 0.949 . S
C1129 H1124 0.950 . S
C1129 C1131 1.327 . S
C1129 C1135 1.429 . S
C1130 C1122 1.574 . S
C1130 H1125 0.949 . S
C1130 C1136 1.368 . S
C1131 C1115 1.349 . S
C1131 H1123 0.950 . S
C1131 C1129 1.327 . S
C1132 C1120 1.349 . S
C1132 H1126 0.950 . S
C1132 C1133 1.327 . S
C1133 H1127 0.950 . S
C1133 C1132 1.327 . S
C1133 C1137 1.429 . S
C1134 C1117 1.574 . S
C1134 H1128 0.949 . S
C1134 C1138 1.368 . S
C1135 C1116 1.429 . S
C1135 C1129 1.429 . S
C1135 C1136 1.523 . S
C1136 C1117 1.368 . S
C1136 C1130 1.368 . S
C1136 C1135 1.523 . S
C1137 C1121 1.429 . S
C1137 C1133 1.429 . S
C1137 C1138 1.523 . S
C1138 C1122 1.368 . S
C1138 C1134 1.368 . S
C1138 C1137 1.523 . S
H1139 C1114 0.950 . S
H1140 C1116 0.950 . S
H1141 C1117 0.949 . S
H1142 C1119 0.950 . S
H1143 C1121 0.950 . S
C1144 C1145 1.349 . S
C1144 C1146 1.327 . S
C1144 H1169 0.950 . S
C1145 C1144 1.349 . S
C1145 C1161 1.349 . S
C1146 C1144 1.327 . S
C1146 C1165 1.429 . S
C1146 H1170 0.950 . S
C1147 C1164 1.574 . S
C1147 C1166 1.368 . S
C1147 H1171 0.949 . S
H1148 C1152 0.949 . S
C1149 C1150 1.349 . S
C1149 C1151 1.327 . S
C1149 H1172 0.950 . S
C1150 C1149 1.349 . S
C1150 C1162 1.349 . S
C1151 C1149 1.327 . S
C1151 C1167 1.429 . S
C1151 H1173 0.950 . S
C1152 H1148 0.949 . S
C1152 C1160 1.574 . S
C1152 C1168 1.368 . S
H1153 C1161 0.950 . S
H1154 C1159 0.950 . S
H1155 C1160 0.949 . S
H1156 C1162 0.950 . S
H1157 C1163 0.950 . S
H1158 C1164 0.949 . S
C1159 H1154 0.950 . S
C1159 C1161 1.327 . S
C1159 C1165 1.429 . S
C1160 C1152 1.574 . S
C1160 H1155 0.949 . S
C1160 C1166 1.368 . S
C1161 C1145 1.349 . S
C1161 H1153 0.950 . S
C1161 C1159 1.327 . S
C1162 C1150 1.349 . S
C1162 H1156 0.950 . S
C1162 C1163 1.327 . S
C1163 H1157 0.950 . S
C1163 C1162 1.327 . S
C1163 C1167 1.429 . S
C1164 C1147 1.574 . S
C1164 H1158 0.949 . S
C1164 C1168 1.368 . S
C1165 C1146 1.429 . S
C1165 C1159 1.429 . S
C1165 C1166 1.523 . S
C1166 C1147 1.368 . S
C1166 C1160 1.368 . S
C1166 C1165 1.523 . S
C1167 C1151 1.429 . S
C1167 C1163 1.429 . S
C1167 C1168 1.523 . S
C1168 C1152 1.368 . S
C1168 C1164 1.368 . S
C1168 C1167 1.523 . S
H1169 C1144 0.950 . S
H1170 C1146 0.950 . S
H1171 C1147 0.949 . S
H1172 C1149 0.950 . S
H1173 C1151 0.950 . S
C1174 C1175 1.349 . S
C1174 C1176 1.327 . S
C1174 H1199 0.950 . S
C1175 C1174 1.349 . S
C1175 C1191 1.349 . S
C1176 C1174 1.327 . S
C1176 C1195 1.429 . S
C1176 H1200 0.950 . S
C1177 C1194 1.574 . S
C1177 C1196 1.368 . S
C1177 H1201 0.949 . S
H1178 C1182 0.949 . S
C1179 C1180 1.349 . S
C1179 C1181 1.327 . S
C1179 H1202 0.950 . S
C1180 C1179 1.349 . S
C1180 C1192 1.349 . S
C1181 C1179 1.327 . S
C1181 C1197 1.429 . S
C1181 H1203 0.950 . S
C1182 H1178 0.949 . S
C1182 C1190 1.574 . S
C1182 C1198 1.368 . S
H1183 C1191 0.950 . S
H1184 C1189 0.950 . S
H1185 C1190 0.949 . S
H1186 C1192 0.950 . S
H1187 C1193 0.950 . S
H1188 C1194 0.949 . S
C1189 H1184 0.950 . S
C1189 C1191 1.327 . S
C1189 C1195 1.429 . S
C1190 C1182 1.574 . S
C1190 H1185 0.949 . S
C1190 C1196 1.368 . S
C1191 C1175 1.349 . S
C1191 H1183 0.950 . S
C1191 C1189 1.327 . S
C1192 C1180 1.349 . S
C1192 H1186 0.950 . S
C1192 C1193 1.327 . S
C1193 H1187 0.950 . S
C1193 C1192 1.327 . S
C1193 C1197 1.429 . S
C1194 C1177 1.574 . S
C1194 H1188 0.949 . S
C1194 C1198 1.368 . S
C1195 C1176 1.429 . S
C1195 C1189 1.429 . S
C1195 C1196 1.523 . S
C1196 C1177 1.368 . S
C1196 C1190 1.368 . S
C1196 C1195 1.523 . S
C1197 C1181 1.429 . S
C1197 C1193 1.429 . S
C1197 C1198 1.523 . S
C1198 C1182 1.368 . S
C1198 C1194 1.368 . S
C1198 C1197 1.523 . S
H1199 C1174 0.950 . S
H1200 C1176 0.950 . S
H1201 C1177 0.949 . S
H1202 C1179 0.950 . S
H1203 C1181 0.950 . S
C1204 C1205 1.349 . S
C1204 C1206 1.327 . S
C1204 H1229 0.950 . S
C1205 C1204 1.349 . S
C1205 C1221 1.349 . S
C1206 C1204 1.327 . S
C1206 C1225 1.429 . S
C1206 H1230 0.950 . S
C1207 C1224 1.574 . S
C1207 C1226 1.368 . S
C1207 H1231 0.949 . S
H1208 C1212 0.949 . S
C1209 C1210 1.349 . S
C1209 C1211 1.327 . S
C1209 H1232 0.950 . S
C1210 C1209 1.349 . S
C1210 C1222 1.349 . S
C1211 C1209 1.327 . S
C1211 C1227 1.429 . S
C1211 H1233 0.950 . S
C1212 H1208 0.949 . S
C1212 C1220 1.574 . S
C1212 C1228 1.368 . S
H1213 C1221 0.950 . S
H1214 C1219 0.950 . S
H1215 C1220 0.949 . S
H1216 C1222 0.950 . S
H1217 C1223 0.950 . S
H1218 C1224 0.949 . S
C1219 H1214 0.950 . S
C1219 C1221 1.327 . S
C1219 C1225 1.429 . S
C1220 C1212 1.574 . S
C1220 H1215 0.949 . S
C1220 C1226 1.368 . S
C1221 C1205 1.349 . S
C1221 H1213 0.950 . S
C1221 C1219 1.327 . S
C1222 C1210 1.349 . S
C1222 H1216 0.950 . S
C1222 C1223 1.327 . S
C1223 H1217 0.950 . S
C1223 C1222 1.327 . S
C1223 C1227 1.429 . S
C1224 C1207 1.574 . S
C1224 H1218 0.949 . S
C1224 C1228 1.368 . S
C1225 C1206 1.429 . S
C1225 C1219 1.429 . S
C1225 C1226 1.523 . S
C1226 C1207 1.368 . S
C1226 C1220 1.368 . S
C1226 C1225 1.523 . S
C1227 C1211 1.429 . S
C1227 C1223 1.429 . S
C1227 C1228 1.523 . S
C1228 C1212 1.368 . S
C1228 C1224 1.368 . S
C1228 C1227 1.523 . S
H1229 C1204 0.950 . S
H1230 C1206 0.950 . S
H1231 C1207 0.949 . S
H1232 C1209 0.950 . S
H1233 C1211 0.950 . S
C1234 C1235 1.349 . S
C1234 C1236 1.327 . S
C1234 H1259 0.950 . S
C1235 C1234 1.349 . S
C1235 C1251 1.349 . S
C1236 C1234 1.327 . S
C1236 C1255 1.429 . S
C1236 H1260 0.950 . S
C1237 C1254 1.574 . S
C1237 C1256 1.368 . S
C1237 H1261 0.949 . S
H1238 C1242 0.949 . S
C1239 C1240 1.349 . S
C1239 C1241 1.327 . S
C1239 H1262 0.950 . S
C1240 C1239 1.349 . S
C1240 C1252 1.349 . S
C1241 C1239 1.327 . S
C1241 C1257 1.429 . S
C1241 H1263 0.950 . S
C1242 H1238 0.949 . S
C1242 C1250 1.574 . S
C1242 C1258 1.368 . S
H1243 C1251 0.950 . S
H1244 C1249 0.950 . S
H1245 C1250 0.949 . S
H1246 C1252 0.950 . S
H1247 C1253 0.950 . S
H1248 C1254 0.949 . S
C1249 H1244 0.950 . S
C1249 C1251 1.327 . S
C1249 C1255 1.429 . S
C1250 C1242 1.574 . S
C1250 H1245 0.949 . S
C1250 C1256 1.368 . S
C1251 C1235 1.349 . S
C1251 H1243 0.950 . S
C1251 C1249 1.327 . S
C1252 C1240 1.349 . S
C1252 H1246 0.950 . S
C1252 C1253 1.327 . S
C1253 H1247 0.950 . S
C1253 C1252 1.327 . S
C1253 C1257 1.429 . S
C1254 C1237 1.574 . S
C1254 H1248 0.949 . S
C1254 C1258 1.368 . S
C1255 C1236 1.429 . S
C1255 C1249 1.429 . S
C1255 C1256 1.523 . S
C1256 C1237 1.368 . S
C1256 C1250 1.368 . S
C1256 C1255 1.523 . S
C1257 C1241 1.429 . S
C1257 C1253 1.429 . S
C1257 C1258 1.523 . S
C1258 C1242 1.368 . S
C1258 C1254 1.368 . S
C1258 C1257 1.523 . S
H1259 C1234 0.950 . S
H1260 C1236 0.950 . S
H1261 C1237 0.949 . S
H1262 C1239 0.950 . S
H1263 C1241 0.950 . S
C1264 C1265 1.349 . S
C1264 C1266 1.327 . S
C1264 H1289 0.950 . S
C1265 C1264 1.349 . S
C1265 C1281 1.349 1_554 S
C1266 C1264 1.327 . S
C1266 C1285 1.429 . S
C1266 H1290 0.950 . S
C1267 C1284 1.574 1_545 S
C1267 C1286 1.368 1_556 S
C1267 H1291 0.949 . S
H1268 C1272 0.949 . S
C1269 C1270 1.349 . S
C1269 C1271 1.327 . S
C1269 H1292 0.950 . S
C1270 C1269 1.349 . S
C1270 C1282 1.349 1_556 S
C1271 C1269 1.327 . S
C1271 C1287 1.429 . S
C1271 H1293 0.950 . S
C1272 H1268 0.949 . S
C1272 C1280 1.574 1_565 S
C1272 C1288 1.368 1_554 S
H1273 C1281 0.950 . S
H1274 C1279 0.950 . S
H1275 C1280 0.949 . S
H1276 C1282 0.950 . S
H1277 C1283 0.950 . S
H1278 C1284 0.949 . S
C1279 H1274 0.950 . S
C1279 C1281 1.327 . S
C1279 C1285 1.429 1_556 S
C1280 C1272 1.574 1_545 S
C1280 H1275 0.949 . S
C1280 C1286 1.368 . S
C1281 C1265 1.349 1_556 S
C1281 H1273 0.950 . S
C1281 C1279 1.327 . S
C1282 C1270 1.349 1_554 S
C1282 H1276 0.950 . S
C1282 C1283 1.327 . S
C1283 H1277 0.950 . S
C1283 C1282 1.327 . S
C1283 C1287 1.429 1_554 S
C1284 C1267 1.574 1_565 S
C1284 H1278 0.949 . S
C1284 C1288 1.368 . S
C1285 C1266 1.429 . S
C1285 C1279 1.429 1_554 S
C1285 C1286 1.523 . S
C1286 C1267 1.368 1_554 S
C1286 C1280 1.368 . S
C1286 C1285 1.523 . S
C1287 C1271 1.429 . S
C1287 C1283 1.429 1_556 S
C1287 C1288 1.523 . S
C1288 C1272 1.368 1_556 S
C1288 C1284 1.368 . S
C1288 C1287 1.523 . S
H1289 C1264 0.950 . S
H1290 C1266 0.950 . S
H1291 C1267 0.949 . S
H1292 C1269 0.950 . S
H1293 C1271 0.950 . S
C1294 C1295 1.349 . S
C1294 C1296 1.327 . S
C1294 H1319 0.950 . S
C1295 C1294 1.349 . S
C1295 C1311 1.350 1_556 S
C1296 C1294 1.327 . S
C1296 C1315 1.429 . S
C1296 H1320 0.950 . S
C1297 C1314 1.574 1_455 S
C1297 C1316 1.368 1_554 S
C1297 H1321 0.949 . S
H1298 C1302 0.949 . S
C1299 C1300 1.349 . S
C1299 C1301 1.327 . S
C1299 H1322 0.950 . S
C1300 C1299 1.349 . S
C1300 C1312 1.350 1_554 S
C1301 C1299 1.327 . S
C1301 C1317 1.429 . S
C1301 H1323 0.950 . S
C1302 H1298 0.949 . S
C1302 C1310 1.574 1_655 S
C1302 C1318 1.368 1_556 S
H1303 C1311 0.949 . S
H1304 C1309 0.950 . S
H1305 C1310 0.949 . S
H1306 C1312 0.949 . S
H1307 C1313 0.950 . S
H1308 C1314 0.949 . S
C1309 H1304 0.950 . S
C1309 C1311 1.327 . S
C1309 C1315 1.429 1_554 S
C1310 C1302 1.574 1_455 S
C1310 H1305 0.949 . S
C1310 C1316 1.368 . S
C1311 C1295 1.350 1_554 S
C1311 H1303 0.949 . S
C1311 C1309 1.327 . S
C1312 C1300 1.350 1_556 S
C1312 H1306 0.949 . S
C1312 C1313 1.327 . S
C1313 H1307 0.950 . S
C1313 C1312 1.327 . S
C1313 C1317 1.429 1_556 S
C1314 C1297 1.574 1_655 S
C1314 H1308 0.949 . S
C1314 C1318 1.368 . S
C1315 C1296 1.429 . S
C1315 C1309 1.429 1_556 S
C1315 C1316 1.523 . S
C1316 C1297 1.368 1_556 S
C1316 C1310 1.368 . S
C1316 C1315 1.523 . S
C1317 C1301 1.429 . S
C1317 C1313 1.429 1_554 S
C1317 C1318 1.523 . S
C1318 C1302 1.368 1_554 S
C1318 C1314 1.368 . S
C1318 C1317 1.523 . S
H1319 C1294 0.950 . S
H1320 C1296 0.950 . S
H1321 C1297 0.949 . S
H1322 C1299 0.950 . S
H1323 C1301 0.950 . S
C1324 C1325 1.349 1_556 S
C1324 C1326 1.327 . S
C1324 H1349 0.950 . S
C1325 C1324 1.349 1_554 S
C1325 C1341 1.349 . S
C1326 C1324 1.327 . S
C1326 C1345 1.429 1_556 S
C1326 H1350 0.950 . S
C1327 C1344 1.574 1_565 S
C1327 C1346 1.368 . S
C1327 H1351 0.949 . S
H1328 C1332 0.949 . S
C1329 C1330 1.349 1_554 S
C1329 C1331 1.327 . S
C1329 H1352 0.950 . S
C1330 C1329 1.349 1_556 S
C1330 C1342 1.349 . S
C1331 C1329 1.327 . S
C1331 C1347 1.429 1_554 S
C1331 H1353 0.950 . S
C1332 H1328 0.949 . S
C1332 C1340 1.574 1_545 S
C1332 C1348 1.368 . S
H1333 C1341 0.950 . S
H1334 C1339 0.950 . S
H1335 C1340 0.949 . S
H1336 C1342 0.950 . S
H1337 C1343 0.950 . S
H1338 C1344 0.949 . S
C1339 H1334 0.950 . S
C1339 C1341 1.327 . S
C1339 C1345 1.429 . S
C1340 C1332 1.574 1_565 S
C1340 H1335 0.949 . S
C1340 C1346 1.368 1_556 S
C1341 C1325 1.349 . S
C1341 H1333 0.950 . S
C1341 C1339 1.327 . S
C1342 C1330 1.349 . S
C1342 H1336 0.950 . S
C1342 C1343 1.327 . S
C1343 H1337 0.950 . S
C1343 C1342 1.327 . S
C1343 C1347 1.429 . S
C1344 C1327 1.574 1_545 S
C1344 H1338 0.949 . S
C1344 C1348 1.368 1_554 S
C1345 C1326 1.429 1_554 S
C1345 C1339 1.429 . S
C1345 C1346 1.523 . S
C1346 C1327 1.368 . S
C1346 C1340 1.368 1_554 S
C1346 C1345 1.523 . S
C1347 C1331 1.429 1_556 S
C1347 C1343 1.429 . S
C1347 C1348 1.523 . S
C1348 C1332 1.368 . S
C1348 C1344 1.368 1_556 S
C1348 C1347 1.523 . S
H1349 C1324 0.950 . S
H1350 C1326 0.950 . S
H1351 C1327 0.949 . S
H1352 C1329 0.950 . S
H1353 C1331 0.950 . S
C1354 C1355 1.349 . S
C1354 C1356 1.327 . S
C1354 H1379 0.950 . S
C1355 C1354 1.349 . S
C1355 C1371 1.350 1_556 S
C1356 C1354 1.327 . S
C1356 C1375 1.429 . S
C1356 H1380 0.950 . S
C1357 C1374 1.574 1_655 S
C1357 C1376 1.368 1_554 S
C1357 H1381 0.949 . S
H1358 C1362 0.949 . S
C1359 C1360 1.349 . S
C1359 C1361 1.327 . S
C1359 H1382 0.950 . S
C1360 C1359 1.349 . S
C1360 C1372 1.350 1_554 S
C1361 C1359 1.327 . S
C1361 C1377 1.429 . S
C1361 H1383 0.950 . S
C1362 H1358 0.949 . S
C1362 C1370 1.574 1_455 S
C1362 C1378 1.368 1_556 S
H1363 C1371 0.949 . S
H1364 C1369 0.950 . S
H1365 C1370 0.949 . S
H1366 C1372 0.949 . S
H1367 C1373 0.950 . S
H1368 C1374 0.949 . S
C1369 H1364 0.950 . S
C1369 C1371 1.327 . S
C1369 C1375 1.429 1_554 S
C1370 C1362 1.574 1_655 S
C1370 H1365 0.949 . S
C1370 C1376 1.368 . S
C1371 C1355 1.350 1_554 S
C1371 H1363 0.949 . S
C1371 C1369 1.327 . S
C1372 C1360 1.350 1_556 S
C1372 H1366 0.949 . S
C1372 C1373 1.327 . S
C1373 H1367 0.950 . S
C1373 C1372 1.327 . S
C1373 C1377 1.429 1_556 S
C1374 C1357 1.574 1_455 S
C1374 H1368 0.949 . S
C1374 C1378 1.368 . S
C1375 C1356 1.429 . S
C1375 C1369 1.429 1_556 S
C1375 C1376 1.523 . S
C1376 C1357 1.368 1_556 S
C1376 C1370 1.368 . S
C1376 C1375 1.523 . S
C1377 C1361 1.429 . S
C1377 C1373 1.429 1_554 S
C1377 C1378 1.523 . S
C1378 C1362 1.368 1_554 S
C1378 C1374 1.368 . S
C1378 C1377 1.523 . S
H1379 C1354 0.950 . S
H1380 C1356 0.950 . S
H1381 C1357 0.949 . S
H1382 C1359 0.950 . S
H1383 C1361 0.950 . S
C1384 C1385 1.349 . S
C1384 C1386 1.327 . S
C1384 H1409 0.950 . S
C1385 C1384 1.349 . S
C1385 C1401 1.349 . S
C1386 C1384 1.327 . S
C1386 C1405 1.429 . S
C1386 H1410 0.950 . S
C1387 C1404 1.574 . S
C1387 C1406 1.368 . S
C1387 H1411 0.949 . S
H1388 C1392 0.949 . S
C1389 C1390 1.349 . S
C1389 C1391 1.327 . S
C1389 H1412 0.950 . S
C1390 C1389 1.349 . S
C1390 C1402 1.349 . S
C1391 C1389 1.327 . S
C1391 C1407 1.429 . S
C1391 H1413 0.950 . S
C1392 H1388 0.949 . S
C1392 C1400 1.574 . S
C1392 C1408 1.368 . S
H1393 C1401 0.950 . S
H1394 C1399 0.950 . S
H1395 C1400 0.949 . S
H1396 C1402 0.950 . S
H1397 C1403 0.950 . S
H1398 C1404 0.949 . S
C1399 H1394 0.950 . S
C1399 C1401 1.327 . S
C1399 C1405 1.429 . S
C1400 C1392 1.574 . S
C1400 H1395 0.949 . S
C1400 C1406 1.368 . S
C1401 C1385 1.349 . S
C1401 H1393 0.950 . S
C1401 C1399 1.327 . S
C1402 C1390 1.349 . S
C1402 H1396 0.950 . S
C1402 C1403 1.327 . S
C1403 H1397 0.950 . S
C1403 C1402 1.327 . S
C1403 C1407 1.429 . S
C1404 C1387 1.574 . S
C1404 H1398 0.949 . S
C1404 C1408 1.368 . S
C1405 C1386 1.429 . S
C1405 C1399 1.429 . S
C1405 C1406 1.523 . S
C1406 C1387 1.368 . S
C1406 C1400 1.368 . S
C1406 C1405 1.523 . S
C1407 C1391 1.429 . S
C1407 C1403 1.429 . S
C1407 C1408 1.523 . S
C1408 C1392 1.368 . S
C1408 C1404 1.368 . S
C1408 C1407 1.523 . S
H1409 C1384 0.950 . S
H1410 C1386 0.950 . S
H1411 C1387 0.949 . S
H1412 C1389 0.950 . S
H1413 C1391 0.950 . S
C1414 C1415 1.349 . S
C1414 C1416 1.327 . S
C1414 H1439 0.950 . S
C1415 C1414 1.349 . S
C1415 C1431 1.349 . S
C1416 C1414 1.327 . S
C1416 C1435 1.429 . S
C1416 H1440 0.950 . S
C1417 C1434 1.574 . S
C1417 C1436 1.368 . S
C1417 H1441 0.949 . S
H1418 C1422 0.949 . S
C1419 C1420 1.349 . S
C1419 C1421 1.327 . S
C1419 H1442 0.950 . S
C1420 C1419 1.349 . S
C1420 C1432 1.349 . S
C1421 C1419 1.327 . S
C1421 C1437 1.429 . S
C1421 H1443 0.950 . S
C1422 H1418 0.949 . S
C1422 C1430 1.574 . S
C1422 C1438 1.368 . S
H1423 C1431 0.950 . S
H1424 C1429 0.950 . S
H1425 C1430 0.949 . S
H1426 C1432 0.950 . S
H1427 C1433 0.950 . S
H1428 C1434 0.949 . S
C1429 H1424 0.950 . S
C1429 C1431 1.327 . S
C1429 C1435 1.429 . S
C1430 C1422 1.574 . S
C1430 H1425 0.949 . S
C1430 C1436 1.368 . S
C1431 C1415 1.349 . S
C1431 H1423 0.950 . S
C1431 C1429 1.327 . S
C1432 C1420 1.349 . S
C1432 H1426 0.950 . S
C1432 C1433 1.327 . S
C1433 H1427 0.950 . S
C1433 C1432 1.327 . S
C1433 C1437 1.429 . S
C1434 C1417 1.574 . S
C1434 H1428 0.949 . S
C1434 C1438 1.368 . S
C1435 C1416 1.429 . S
C1435 C1429 1.429 . S
C1435 C1436 1.523 . S
C1436 C1417 1.368 . S
C1436 C1430 1.368 . S
C1436 C1435 1.523 . S
C1437 C1421 1.429 . S
C1437 C1433 1.429 . S
C1437 C1438 1.523 . S
C1438 C1422 1.368 . S
C1438 C1434 1.368 . S
C1438 C1437 1.523 . S
H1439 C1414 0.950 . S
H1440 C1416 0.950 . S
H1441 C1417 0.949 . S
H1442 C1419 0.950 . S
H1443 C1421 0.950 . S
C1444 C1445 1.349 . S
C1444 C1446 1.327 . S
C1444 H1469 0.950 . S
C1445 C1444 1.349 . S
C1445 C1461 1.349 . S
C1446 C1444 1.327 . S
C1446 C1465 1.429 . S
C1446 H1470 0.950 . S
C1447 C1464 1.574 . S
C1447 C1466 1.368 . S
C1447 H1471 0.949 . S
H1448 C1452 0.949 . S
C1449 C1450 1.349 . S
C1449 C1451 1.327 . S
C1449 H1472 0.950 . S
C1450 C1449 1.349 . S
C1450 C1462 1.349 . S
C1451 C1449 1.327 . S
C1451 C1467 1.429 . S
C1451 H1473 0.950 . S
C1452 H1448 0.949 . S
C1452 C1460 1.574 . S
C1452 C1468 1.368 . S
H1453 C1461 0.950 . S
H1454 C1459 0.950 . S
H1455 C1460 0.949 . S
H1456 C1462 0.950 . S
H1457 C1463 0.950 . S
H1458 C1464 0.949 . S
C1459 H1454 0.950 . S
C1459 C1461 1.327 . S
C1459 C1465 1.429 . S
C1460 C1452 1.574 . S
C1460 H1455 0.949 . S
C1460 C1466 1.368 . S
C1461 C1445 1.349 . S
C1461 H1453 0.950 . S
C1461 C1459 1.327 . S
C1462 C1450 1.349 . S
C1462 H1456 0.950 . S
C1462 C1463 1.327 . S
C1463 H1457 0.950 . S
C1463 C1462 1.327 . S
C1463 C1467 1.429 . S
C1464 C1447 1.574 . S
C1464 H1458 0.949 . S
C1464 C1468 1.368 . S
C1465 C1446 1.429 . S
C1465 C1459 1.429 . S
C1465 C1466 1.523 . S
C1466 C1447 1.368 . S
C1466 C1460 1.368 . S
C1466 C1465 1.523 . S
C1467 C1451 1.429 . S
C1467 C1463 1.429 . S
C1467 C1468 1.523 . S
C1468 C1452 1.368 . S
C1468 C1464 1.368 . S
C1468 C1467 1.523 . S
H1469 C1444 0.950 . S
H1470 C1446 0.950 . S
H1471 C1447 0.949 . S
H1472 C1449 0.950 . S
H1473 C1451 0.950 . S
C1474 C1475 1.349 . S
C1474 C1476 1.327 . S
C1474 H1499 0.950 . S
C1475 C1474 1.349 . S
C1475 C1491 1.349 . S
C1476 C1474 1.327 . S
C1476 C1495 1.429 . S
C1476 H1500 0.950 . S
C1477 C1494 1.574 . S
C1477 C1496 1.368 . S
C1477 H1501 0.949 . S
H1478 C1482 0.949 . S
C1479 C1480 1.349 . S
C1479 C1481 1.327 . S
C1479 H1502 0.950 . S
C1480 C1479 1.349 . S
C1480 C1492 1.349 . S
C1481 C1479 1.327 . S
C1481 C1497 1.429 . S
C1481 H1503 0.950 . S
C1482 H1478 0.949 . S
C1482 C1490 1.574 . S
C1482 C1498 1.368 . S
H1483 C1491 0.950 . S
H1484 C1489 0.950 . S
H1485 C1490 0.949 . S
H1486 C1492 0.950 . S
H1487 C1493 0.950 . S
H1488 C1494 0.949 . S
C1489 H1484 0.950 . S
C1489 C1491 1.327 . S
C1489 C1495 1.429 . S
C1490 C1482 1.574 . S
C1490 H1485 0.949 . S
C1490 C1496 1.368 . S
C1491 C1475 1.349 . S
C1491 H1483 0.950 . S
C1491 C1489 1.327 . S
C1492 C1480 1.349 . S
C1492 H1486 0.950 . S
C1492 C1493 1.327 . S
C1493 H1487 0.950 . S
C1493 C1492 1.327 . S
C1493 C1497 1.429 . S
C1494 C1477 1.574 . S
C1494 H1488 0.949 . S
C1494 C1498 1.368 . S
C1495 C1476 1.429 . S
C1495 C1489 1.429 . S
C1495 C1496 1.523 . S
C1496 C1477 1.368 . S
C1496 C1490 1.368 . S
C1496 C1495 1.523 . S
C1497 C1481 1.429 . S
C1497 C1493 1.429 . S
C1497 C1498 1.523 . S
C1498 C1482 1.368 . S
C1498 C1494 1.368 . S
C1498 C1497 1.523 . S
H1499 C1474 0.950 . S
H1500 C1476 0.950 . S
H1501 C1477 0.949 . S
H1502 C1479 0.950 . S
H1503 C1481 0.950 . S
C1504 C1505 1.349 . S
C1504 C1506 1.327 . S
C1504 H1529 0.950 . S
C1505 C1504 1.349 . S
C1505 C1521 1.349 1_554 S
C1506 C1504 1.327 . S
C1506 C1525 1.429 . S
C1506 H1530 0.950 . S
C1507 C1524 1.574 . S
C1507 C1526 1.368 1_556 S
C1507 H1531 0.949 . S
H1508 C1512 0.949 . S
C1509 C1510 1.349 . S
C1509 C1511 1.327 . S
C1509 H1532 0.950 . S
C1510 C1509 1.349 . S
C1510 C1522 1.349 1_556 S
C1511 C1509 1.327 . S
C1511 C1527 1.429 . S
C1511 H1533 0.950 . S
C1512 H1508 0.949 . S
C1512 C1520 1.574 . S
C1512 C1528 1.368 1_554 S
H1513 C1521 0.950 . S
H1514 C1519 0.950 . S
H1515 C1520 0.949 . S
H1516 C1522 0.950 . S
H1517 C1523 0.950 . S
H1518 C1524 0.949 . S
C1519 H1514 0.950 . S
C1519 C1521 1.327 . S
C1519 C1525 1.429 1_556 S
C1520 C1512 1.574 . S
C1520 H1515 0.949 . S
C1520 C1526 1.368 . S
C1521 C1505 1.349 1_556 S
C1521 H1513 0.950 . S
C1521 C1519 1.327 . S
C1522 C1510 1.349 1_554 S
C1522 H1516 0.950 . S
C1522 C1523 1.327 . S
C1523 H1517 0.950 . S
C1523 C1522 1.327 . S
C1523 C1527 1.429 1_554 S
C1524 C1507 1.574 . S
C1524 H1518 0.949 . S
C1524 C1528 1.368 . S
C1525 C1506 1.429 . S
C1525 C1519 1.429 1_554 S
C1525 C1526 1.523 . S
C1526 C1507 1.368 1_554 S
C1526 C1520 1.368 . S
C1526 C1525 1.523 . S
C1527 C1511 1.429 . S
C1527 C1523 1.429 1_556 S
C1527 C1528 1.523 . S
C1528 C1512 1.368 1_556 S
C1528 C1524 1.368 . S
C1528 C1527 1.523 . S
H1529 C1504 0.950 . S
H1530 C1506 0.950 . S
H1531 C1507 0.949 . S
H1532 C1509 0.950 . S
H1533 C1511 0.950 . S
C1534 C1535 1.349 1_556 S
C1534 C1536 1.327 . S
C1534 H1559 0.950 . S
C1535 C1534 1.349 1_554 S
C1535 C1551 1.349 . S
C1536 C1534 1.327 . S
C1536 C1555 1.429 1_556 S
C1536 H1560 0.950 . S
C1537 C1554 1.574 . S
C1537 C1556 1.368 . S
C1537 H1561 0.949 . S
H1538 C1542 0.949 . S
C1539 C1540 1.349 1_554 S
C1539 C1541 1.327 . S
C1539 H1562 0.950 . S
C1540 C1539 1.349 1_556 S
C1540 C1552 1.349 . S
C1541 C1539 1.327 . S
C1541 C1557 1.429 1_554 S
C1541 H1563 0.950 . S
C1542 H1538 0.949 . S
C1542 C1550 1.574 . S
C1542 C1558 1.368 . S
H1543 C1551 0.950 . S
H1544 C1549 0.950 . S
H1545 C1550 0.949 . S
H1546 C1552 0.950 . S
H1547 C1553 0.950 . S
H1548 C1554 0.949 . S
C1549 H1544 0.950 . S
C1549 C1551 1.327 . S
C1549 C1555 1.429 . S
C1550 C1542 1.574 . S
C1550 H1545 0.949 . S
C1550 C1556 1.368 1_556 S
C1551 C1535 1.349 . S
C1551 H1543 0.950 . S
C1551 C1549 1.327 . S
C1552 C1540 1.349 . S
C1552 H1546 0.950 . S
C1552 C1553 1.327 . S
C1553 H1547 0.950 . S
C1553 C1552 1.327 . S
C1553 C1557 1.429 . S
C1554 C1537 1.574 . S
C1554 H1548 0.949 . S
C1554 C1558 1.368 1_554 S
C1555 C1536 1.429 1_554 S
C1555 C1549 1.429 . S
C1555 C1556 1.523 . S
C1556 C1537 1.368 . S
C1556 C1550 1.368 1_554 S
C1556 C1555 1.523 . S
C1557 C1541 1.429 1_556 S
C1557 C1553 1.429 . S
C1557 C1558 1.523 . S
C1558 C1542 1.368 . S
C1558 C1554 1.368 1_556 S
C1558 C1557 1.523 . S
H1559 C1534 0.950 . S
H1560 C1536 0.950 . S
H1561 C1537 0.949 . S
H1562 C1539 0.950 . S
H1563 C1541 0.950 . S
C1564 C1565 1.349 . S
C1564 C1566 1.327 . S
C1564 H1589 0.950 . S
C1565 C1564 1.349 . S
C1565 C1581 1.349 1_556 S
C1566 C1564 1.327 . S
C1566 C1585 1.429 . S
C1566 H1590 0.950 . S
C1567 C1584 1.574 . S
C1567 C1586 1.368 1_554 S
C1567 H1591 0.949 . S
H1568 C1572 0.949 . S
C1569 C1570 1.349 . S
C1569 C1571 1.327 . S
C1569 H1592 0.950 . S
C1570 C1569 1.349 . S
C1570 C1582 1.349 1_554 S
C1571 C1569 1.327 . S
C1571 C1587 1.429 . S
C1571 H1593 0.950 . S
C1572 H1568 0.949 . S
C1572 C1580 1.574 . S
C1572 C1588 1.368 1_556 S
H1573 C1581 0.950 . S
H1574 C1579 0.950 . S
H1575 C1580 0.949 . S
H1576 C1582 0.950 . S
H1577 C1583 0.950 . S
H1578 C1584 0.949 . S
C1579 H1574 0.950 . S
C1579 C1581 1.327 . S
C1579 C1585 1.429 1_554 S
C1580 C1572 1.574 . S
C1580 H1575 0.949 . S
C1580 C1586 1.368 . S
C1581 C1565 1.349 1_554 S
C1581 H1573 0.950 . S
C1581 C1579 1.327 . S
C1582 C1570 1.349 1_556 S
C1582 H1576 0.950 . S
C1582 C1583 1.327 . S
C1583 H1577 0.950 . S
C1583 C1582 1.327 . S
C1583 C1587 1.429 1_556 S
C1584 C1567 1.574 . S
C1584 H1578 0.949 . S
C1584 C1588 1.368 . S
C1585 C1566 1.429 . S
C1585 C1579 1.429 1_556 S
C1585 C1586 1.523 . S
C1586 C1567 1.368 1_556 S
C1586 C1580 1.368 . S
C1586 C1585 1.523 . S
C1587 C1571 1.429 . S
C1587 C1583 1.429 1_554 S
C1587 C1588 1.523 . S
C1588 C1572 1.368 1_554 S
C1588 C1584 1.368 . S
C1588 C1587 1.523 . S
H1589 C1564 0.950 . S
H1590 C1566 0.950 . S
H1591 C1567 0.949 . S
H1592 C1569 0.950 . S
H1593 C1571 0.950 . S
C1594 C1595 1.349 . S
C1594 C1596 1.327 . S
C1594 H1619 0.950 . S
C1595 C1594 1.349 . S
C1595 C1611 1.349 1_554 S
C1596 C1594 1.327 . S
C1596 C1615 1.429 . S
C1596 H1620 0.950 . S
C1597 C1614 1.574 . S
C1597 C1616 1.368 1_556 S
C1597 H1621 0.949 . S
H1598 C1602 0.949 . S
C1599 C1600 1.349 . S
C1599 C1601 1.327 . S
C1599 H1622 0.950 . S
C1600 C1599 1.349 . S
C1600 C1612 1.349 1_556 S
C1601 C1599 1.327 . S
C1601 C1617 1.429 . S
C1601 H1623 0.950 . S
C1602 H1598 0.949 . S
C1602 C1610 1.574 . S
C1602 C1618 1.368 1_554 S
H1603 C1611 0.950 . S
H1604 C1609 0.950 . S
H1605 C1610 0.949 . S
H1606 C1612 0.950 . S
H1607 C1613 0.950 . S
H1608 C1614 0.949 . S
C1609 H1604 0.950 . S
C1609 C1611 1.327 . S
C1609 C1615 1.429 1_556 S
C1610 C1602 1.574 . S
C1610 H1605 0.949 . S
C1610 C1616 1.368 . S
C1611 C1595 1.349 1_556 S
C1611 H1603 0.950 . S
C1611 C1609 1.327 . S
C1612 C1600 1.349 1_554 S
C1612 H1606 0.950 . S
C1612 C1613 1.327 . S
C1613 H1607 0.950 . S
C1613 C1612 1.327 . S
C1613 C1617 1.429 1_554 S
C1614 C1597 1.574 . S
C1614 H1608 0.949 . S
C1614 C1618 1.368 . S
C1615 C1596 1.429 . S
C1615 C1609 1.429 1_554 S
C1615 C1616 1.523 . S
C1616 C1597 1.368 1_554 S
C1616 C1610 1.368 . S
C1616 C1615 1.523 . S
C1617 C1601 1.429 . S
C1617 C1613 1.429 1_556 S
C1617 C1618 1.523 . S
C1618 C1602 1.368 1_556 S
C1618 C1614 1.368 . S
C1618 C1617 1.523 . S
H1619 C1594 0.950 . S
H1620 C1596 0.950 . S
H1621 C1597 0.949 . S
H1622 C1599 0.950 . S
H1623 C1601 0.950 . S
C1624 C1625 1.349 . S
C1624 C1626 1.327 . S
C1624 H1649 0.950 . S
C1625 C1624 1.349 . S
C1625 C1641 1.349 . S
C1626 C1624 1.327 . S
C1626 C1645 1.429 . S
C1626 H1650 0.950 . S
C1627 C1644 1.574 . S
C1627 C1646 1.368 . S
C1627 H1651 0.949 . S
H1628 C1632 0.949 . S
C1629 C1630 1.349 . S
C1629 C1631 1.327 . S
C1629 H1652 0.950 . S
C1630 C1629 1.349 . S
C1630 C1642 1.349 . S
C1631 C1629 1.327 . S
C1631 C1647 1.429 . S
C1631 H1653 0.950 . S
C1632 H1628 0.949 . S
C1632 C1640 1.574 . S
C1632 C1648 1.368 . S
H1633 C1641 0.950 . S
H1634 C1639 0.950 . S
H1635 C1640 0.949 . S
H1636 C1642 0.950 . S
H1637 C1643 0.950 . S
H1638 C1644 0.949 . S
C1639 H1634 0.950 . S
C1639 C1641 1.327 . S
C1639 C1645 1.429 . S
C1640 C1632 1.574 . S
C1640 H1635 0.949 . S
C1640 C1646 1.368 . S
C1641 C1625 1.349 . S
C1641 H1633 0.950 . S
C1641 C1639 1.327 . S
C1642 C1630 1.349 . S
C1642 H1636 0.950 . S
C1642 C1643 1.327 . S
C1643 H1637 0.950 . S
C1643 C1642 1.327 . S
C1643 C1647 1.429 . S
C1644 C1627 1.574 . S
C1644 H1638 0.949 . S
C1644 C1648 1.368 . S
C1645 C1626 1.429 . S
C1645 C1639 1.429 . S
C1645 C1646 1.523 . S
C1646 C1627 1.368 . S
C1646 C1640 1.368 . S
C1646 C1645 1.523 . S
C1647 C1631 1.429 . S
C1647 C1643 1.429 . S
C1647 C1648 1.523 . S
C1648 C1632 1.368 . S
C1648 C1644 1.368 . S
C1648 C1647 1.523 . S
H1649 C1624 0.950 . S
H1650 C1626 0.950 . S
H1651 C1627 0.949 . S
H1652 C1629 0.950 . S
H1653 C1631 0.950 . S
C1654 C1655 1.349 . S
C1654 C1656 1.327 . S
C1654 H1679 0.950 . S
C1655 C1654 1.349 . S
C1655 C1671 1.349 . S
C1656 C1654 1.327 . S
C1656 C1675 1.429 . S
C1656 H1680 0.950 . S
C1657 C1674 1.574 . S
C1657 C1676 1.368 . S
C1657 H1681 0.949 . S
H1658 C1662 0.949 . S
C1659 C1660 1.349 . S
C1659 C1661 1.327 . S
C1659 H1682 0.950 . S
C1660 C1659 1.349 . S
C1660 C1672 1.349 . S
C1661 C1659 1.327 . S
C1661 C1677 1.429 . S
C1661 H1683 0.950 . S
C1662 H1658 0.949 . S
C1662 C1670 1.574 . S
C1662 C1678 1.368 . S
H1663 C1671 0.950 . S
H1664 C1669 0.950 . S
H1665 C1670 0.949 . S
H1666 C1672 0.950 . S
H1667 C1673 0.950 . S
H1668 C1674 0.949 . S
C1669 H1664 0.950 . S
C1669 C1671 1.327 . S
C1669 C1675 1.429 . S
C1670 C1662 1.574 . S
C1670 H1665 0.949 . S
C1670 C1676 1.368 . S
C1671 C1655 1.349 . S
C1671 H1663 0.950 . S
C1671 C1669 1.327 . S
C1672 C1660 1.349 . S
C1672 H1666 0.950 . S
C1672 C1673 1.327 . S
C1673 H1667 0.950 . S
C1673 C1672 1.327 . S
C1673 C1677 1.429 . S
C1674 C1657 1.574 . S
C1674 H1668 0.949 . S
C1674 C1678 1.368 . S
C1675 C1656 1.429 . S
C1675 C1669 1.429 . S
C1675 C1676 1.523 . S
C1676 C1657 1.368 . S
C1676 C1670 1.368 . S
C1676 C1675 1.523 . S
C1677 C1661 1.429 . S
C1677 C1673 1.429 . S
C1677 C1678 1.523 . S
C1678 C1662 1.368 . S
C1678 C1674 1.368 . S
C1678 C1677 1.523 . S
H1679 C1654 0.950 . S
H1680 C1656 0.950 . S
H1681 C1657 0.949 . S
H1682 C1659 0.950 . S
H1683 C1661 0.950 . S
C1684 C1685 1.349 . S
C1684 C1686 1.327 . S
C1684 H1709 0.950 . S
C1685 C1684 1.349 . S
C1685 C1701 1.349 . S
C1686 C1684 1.327 . S
C1686 C1705 1.429 . S
C1686 H1710 0.950 . S
C1687 C1704 1.574 . S
C1687 C1706 1.368 . S
C1687 H1711 0.949 . S
H1688 C1692 0.949 . S
C1689 C1690 1.349 . S
C1689 C1691 1.327 . S
C1689 H1712 0.950 . S
C1690 C1689 1.349 . S
C1690 C1702 1.349 . S
C1691 C1689 1.327 . S
C1691 C1707 1.429 . S
C1691 H1713 0.950 . S
C1692 H1688 0.949 . S
C1692 C1700 1.574 . S
C1692 C1708 1.368 . S
H1693 C1701 0.950 . S
H1694 C1699 0.950 . S
H1695 C1700 0.949 . S
H1696 C1702 0.950 . S
H1697 C1703 0.950 . S
H1698 C1704 0.949 . S
C1699 H1694 0.950 . S
C1699 C1701 1.327 . S
C1699 C1705 1.429 . S
C1700 C1692 1.574 . S
C1700 H1695 0.949 . S
C1700 C1706 1.368 . S
C1701 C1685 1.349 . S
C1701 H1693 0.950 . S
C1701 C1699 1.327 . S
C1702 C1690 1.349 . S
C1702 H1696 0.950 . S
C1702 C1703 1.327 . S
C1703 H1697 0.950 . S
C1703 C1702 1.327 . S
C1703 C1707 1.429 . S
C1704 C1687 1.574 . S
C1704 H1698 0.949 . S
C1704 C1708 1.368 . S
C1705 C1686 1.429 . S
C1705 C1699 1.429 . S
C1705 C1706 1.523 . S
C1706 C1687 1.368 . S
C1706 C1700 1.368 . S
C1706 C1705 1.523 . S
C1707 C1691 1.429 . S
C1707 C1703 1.429 . S
C1707 C1708 1.523 . S
C1708 C1692 1.368 . S
C1708 C1704 1.368 . S
C1708 C1707 1.523 . S
H1709 C1684 0.950 . S
H1710 C1686 0.950 . S
H1711 C1687 0.949 . S
H1712 C1689 0.950 . S
H1713 C1691 0.950 . S
C1714 C1715 1.349 . S
C1714 C1716 1.327 . S
C1714 H1739 0.950 . S
C1715 C1714 1.349 . S
C1715 C1731 1.349 . S
C1716 C1714 1.327 . S
C1716 C1735 1.429 . S
C1716 H1740 0.950 . S
C1717 C1734 1.574 . S
C1717 C1736 1.368 . S
C1717 H1741 0.949 . S
H1718 C1722 0.949 . S
C1719 C1720 1.349 . S
C1719 C1721 1.327 . S
C1719 H1742 0.950 . S
C1720 C1719 1.349 . S
C1720 C1732 1.349 . S
C1721 C1719 1.327 . S
C1721 C1737 1.429 . S
C1721 H1743 0.950 . S
C1722 H1718 0.949 . S
C1722 C1730 1.574 . S
C1722 C1738 1.368 . S
H1723 C1731 0.950 . S
H1724 C1729 0.950 . S
H1725 C1730 0.949 . S
H1726 C1732 0.950 . S
H1727 C1733 0.950 . S
H1728 C1734 0.949 . S
C1729 H1724 0.950 . S
C1729 C1731 1.327 . S
C1729 C1735 1.429 . S
C1730 C1722 1.574 . S
C1730 H1725 0.949 . S
C1730 C1736 1.368 . S
C1731 C1715 1.349 . S
C1731 H1723 0.950 . S
C1731 C1729 1.327 . S
C1732 C1720 1.349 . S
C1732 H1726 0.950 . S
C1732 C1733 1.327 . S
C1733 H1727 0.950 . S
C1733 C1732 1.327 . S
C1733 C1737 1.429 . S
C1734 C1717 1.574 . S
C1734 H1728 0.949 . S
C1734 C1738 1.368 . S
C1735 C1716 1.429 . S
C1735 C1729 1.429 . S
C1735 C1736 1.523 . S
C1736 C1717 1.368 . S
C1736 C1730 1.368 . S
C1736 C1735 1.523 . S
C1737 C1721 1.429 . S
C1737 C1733 1.429 . S
C1737 C1738 1.523 . S
C1738 C1722 1.368 . S
C1738 C1734 1.368 . S
C1738 C1737 1.523 . S
H1739 C1714 0.950 . S
H1740 C1716 0.950 . S
H1741 C1717 0.949 . S
H1742 C1719 0.950 . S
H1743 C1721 0.950 . S
C545 C9 1.043 . S
C550 C5 1.061 . S
C575 C43 1.043 . S
C580 C39 1.061 . S
C605 C73 1.061 . S
C610 C77 1.043 . S
C635 C107 1.061 . S
C640 C111 1.043 . S
C665 C145 1.043 . S
C670 C141 1.061 . S
C695 C175 1.061 . S
C700 C179 1.043 . S
C725 C209 1.061 . S
C730 C213 1.043 . S
C755 C243 1.061 . S
C760 C247 1.043 . S
C785 C281 1.043 . S
C790 C277 1.061 . S
C815 C315 1.043 . S
C820 C311 1.061 . S
C845 C349 1.043 . S
C850 C345 1.061 . S
C875 C383 1.043 . S
C880 C379 1.061 . S
C905 C413 1.061 . S
C910 C417 1.043 . S
C935 C447 1.061 . S
C940 C451 1.043 . S
C965 C481 1.061 . S
C970 C485 1.043 . S
C995 C515 1.061 . S
C1000 C519 1.043 . S
C1025 C33 1.300 . S
C1030 C543 1.300 . S
C1055 C441 1.300 . S
C1060 C67 1.300 . S
C1085 C475 1.300 . S
C1090 C101 1.300 . S
C1115 C509 1.300 . S
C1120 C135 1.300 . S
C1145 C339 1.300 . S
C1150 C169 1.300 . S
C1175 C203 1.300 . S
C1180 C373 1.300 . S
C1205 C237 1.300 . S
C1210 C407 1.300 . S
C1235 C305 1.300 . S
C1240 C271 1.300 . S
C1265 C20 1.558 . S
C1270 C156 1.558 . S
C1295 C190 1.558 . S
C1300 C54 1.558 . S
C1325 C88 1.558 . S
C1330 C224 1.558 . S
C1355 C258 1.558 . S
C1360 C122 1.558 . S
C1385 C428 1.558 . S
C1390 C292 1.558 . S
C1415 C326 1.558 . S
C1420 C462 1.558 . S
C1445 C360 1.558 . S
C1450 C496 1.558 . S
C1475 C394 1.558 . S
C1480 C530 1.558 . S
C1505 C2 1.797 . S
C1510 C172 1.797 . S
C1535 C36 1.797 . S
C1540 C206 1.797 . S
C1565 C240 1.797 . S
C1570 C70 1.797 . S
C1595 C104 1.797 . S
C1600 C138 1.797 . S
C1625 C444 1.797 . S
C1630 C274 1.797 . S
C1655 C308 1.797 . S
C1660 C478 1.797 . S
C1685 C512 1.797 . S
C1690 C342 1.797 . S
C1715 C410 1.797 . S
C1720 C376 1.797 . S
