# Generated by pormake.
# Topology ict, (4)-cn, num edge types: 1
# Building blocks:
#     Node 0, Type 0, BuildingBlock: AZAVOO_clean_sbu_0, # of connection points: 4
#     Node 1, Type 0, BuildingBlock: AZAVOO_clean_sbu_0, # of connection points: 4
#     Node 2, Type 0, BuildingBlock: AZAVOO_clean_sbu_0, # of connection points: 4
#     Node 3, Type 0, BuildingBlock: AZAVOO_clean_sbu_0, # of connection points: 4
#     Node 4, Type 0, BuildingBlock: AZAVOO_clean_sbu_0, # of connection points: 4
#     Node 5, Type 0, BuildingBlock: AZAVOO_clean_sbu_0, # of connection points: 4
#     Node 6, Type 0, BuildingBlock: AZAVOO_clean_sbu_0, # of connection points: 4
#     Node 7, Type 0, BuildingBlock: AZAVOO_clean_sbu_0, # of connection points: 4
#     Node 8, Type 0, BuildingBlock: AZAVOO_clean_sbu_0, # of connection points: 4
#     Node 9, Type 0, BuildingBlock: AZAVOO_clean_sbu_0, # of connection points: 4
#     Node 10, Type 0, BuildingBlock: AZAVOO_clean_sbu_0, # of connection points: 4
#     Node 11, Type 0, BuildingBlock: AZAVOO_clean_sbu_0, # of connection points: 4
#     Node 12, Type 0, BuildingBlock: AZAVOO_clean_sbu_0, # of connection points: 4
#     Node 13, Type 0, BuildingBlock: AZAVOO_clean_sbu_0, # of connection points: 4
#     Node 14, Type 0, BuildingBlock: AZAVOO_clean_sbu_0, # of connection points: 4
#     Node 15, Type 0, BuildingBlock: AZAVOO_clean_sbu_0, # of connection points: 4
#     Node 16, Type 0, BuildingBlock: AZAVOO_clean_sbu_0, # of connection points: 4
#     Node 17, Type 0, BuildingBlock: AZAVOO_clean_sbu_0, # of connection points: 4
#     Node 18, Type 0, BuildingBlock: AZAVOO_clean_sbu_0, # of connection points: 4
#     Node 19, Type 0, BuildingBlock: AZAVOO_clean_sbu_0, # of connection points: 4
#     Node 20, Type 0, BuildingBlock: AZAVOO_clean_sbu_0, # of connection points: 4
#     Node 21, Type 0, BuildingBlock: AZAVOO_clean_sbu_0, # of connection points: 4
#     Node 22, Type 0, BuildingBlock: AZAVOO_clean_sbu_0, # of connection points: 4
#     Node 23, Type 0, BuildingBlock: AZAVOO_clean_sbu_0, # of connection points: 4
#     Node 24, Type 0, BuildingBlock: AZAVOO_clean_sbu_0, # of connection points: 4
#     Node 25, Type 0, BuildingBlock: AZAVOO_clean_sbu_0, # of connection points: 4
#     Node 26, Type 0, BuildingBlock: AZAVOO_clean_sbu_0, # of connection points: 4
#     Node 27, Type 0, BuildingBlock: AZAVOO_clean_sbu_0, # of connection points: 4
#     Node 28, Type 0, BuildingBlock: AZAVOO_clean_sbu_0, # of connection points: 4
#     Node 29, Type 0, BuildingBlock: AZAVOO_clean_sbu_0, # of connection points: 4
#     Node 30, Type 0, BuildingBlock: AZAVOO_clean_sbu_0, # of connection points: 4
#     Node 31, Type 0, BuildingBlock: AZAVOO_clean_sbu_0, # of connection points: 4
#     Node 32, Type 0, BuildingBlock: AZAVOO_clean_sbu_0, # of connection points: 4
#     Node 33, Type 0, BuildingBlock: AZAVOO_clean_sbu_0, # of connection points: 4
#     Node 34, Type 0, BuildingBlock: AZAVOO_clean_sbu_0, # of connection points: 4
#     Node 35, Type 0, BuildingBlock: AZAVOO_clean_sbu_0, # of connection points: 4
#     Edge 36, Type (0, 0), BuildingBlock: OJICUG_clean_linker_0, # of connection points: 2
#     Edge 37, Type (0, 0), BuildingBlock: OJICUG_clean_linker_0, # of connection points: 2
#     Edge 38, Type (0, 0), BuildingBlock: OJICUG_clean_linker_0, # of connection points: 2
#     Edge 39, Type (0, 0), BuildingBlock: OJICUG_clean_linker_0, # of connection points: 2
#     Edge 40, Type (0, 0), BuildingBlock: OJICUG_clean_linker_0, # of connection points: 2
#     Edge 41, Type (0, 0), BuildingBlock: OJICUG_clean_linker_0, # of connection points: 2
#     Edge 42, Type (0, 0), BuildingBlock: OJICUG_clean_linker_0, # of connection points: 2
#     Edge 43, Type (0, 0), BuildingBlock: OJICUG_clean_linker_0, # of connection points: 2
#     Edge 44, Type (0, 0), BuildingBlock: OJICUG_clean_linker_0, # of connection points: 2
#     Edge 45, Type (0, 0), BuildingBlock: OJICUG_clean_linker_0, # of connection points: 2
#     Edge 46, Type (0, 0), BuildingBlock: OJICUG_clean_linker_0, # of connection points: 2
#     Edge 47, Type (0, 0), BuildingBlock: OJICUG_clean_linker_0, # of connection points: 2
#     Edge 48, Type (0, 0), BuildingBlock: OJICUG_clean_linker_0, # of connection points: 2
#     Edge 49, Type (0, 0), BuildingBlock: OJICUG_clean_linker_0, # of connection points: 2
#     Edge 50, Type (0, 0), BuildingBlock: OJICUG_clean_linker_0, # of connection points: 2
#     Edge 51, Type (0, 0), BuildingBlock: OJICUG_clean_linker_0, # of connection points: 2
#     Edge 52, Type (0, 0), BuildingBlock: OJICUG_clean_linker_0, # of connection points: 2
#     Edge 53, Type (0, 0), BuildingBlock: OJICUG_clean_linker_0, # of connection points: 2
#     Edge 54, Type (0, 0), BuildingBlock: OJICUG_clean_linker_0, # of connection points: 2
#     Edge 55, Type (0, 0), BuildingBlock: OJICUG_clean_linker_0, # of connection points: 2
#     Edge 56, Type (0, 0), BuildingBlock: OJICUG_clean_linker_0, # of connection points: 2
#     Edge 57, Type (0, 0), BuildingBlock: OJICUG_clean_linker_0, # of connection points: 2
#     Edge 58, Type (0, 0), BuildingBlock: OJICUG_clean_linker_0, # of connection points: 2
#     Edge 59, Type (0, 0), BuildingBlock: OJICUG_clean_linker_0, # of connection points: 2
#     Edge 60, Type (0, 0), BuildingBlock: OJICUG_clean_linker_0, # of connection points: 2
#     Edge 61, Type (0, 0), BuildingBlock: OJICUG_clean_linker_0, # of connection points: 2
#     Edge 62, Type (0, 0), BuildingBlock: OJICUG_clean_linker_0, # of connection points: 2
#     Edge 63, Type (0, 0), BuildingBlock: OJICUG_clean_linker_0, # of connection points: 2
#     Edge 64, Type (0, 0), BuildingBlock: OJICUG_clean_linker_0, # of connection points: 2
#     Edge 65, Type (0, 0), BuildingBlock: OJICUG_clean_linker_0, # of connection points: 2
#     Edge 66, Type (0, 0), BuildingBlock: OJICUG_clean_linker_0, # of connection points: 2
#     Edge 67, Type (0, 0), BuildingBlock: OJICUG_clean_linker_0, # of connection points: 2
#     Edge 68, Type (0, 0), BuildingBlock: OJICUG_clean_linker_0, # of connection points: 2
#     Edge 69, Type (0, 0), BuildingBlock: OJICUG_clean_linker_0, # of connection points: 2
#     Edge 70, Type (0, 0), BuildingBlock: OJICUG_clean_linker_0, # of connection points: 2
#     Edge 71, Type (0, 0), BuildingBlock: OJICUG_clean_linker_0, # of connection points: 2
#     Edge 72, Type (0, 0), BuildingBlock: OJICUG_clean_linker_0, # of connection points: 2
#     Edge 73, Type (0, 0), BuildingBlock: OJICUG_clean_linker_0, # of connection points: 2
#     Edge 74, Type (0, 0), BuildingBlock: OJICUG_clean_linker_0, # of connection points: 2
#     Edge 75, Type (0, 0), BuildingBlock: OJICUG_clean_linker_0, # of connection points: 2
#     Edge 76, Type (0, 0), BuildingBlock: OJICUG_clean_linker_0, # of connection points: 2
#     Edge 77, Type (0, 0), BuildingBlock: OJICUG_clean_linker_0, # of connection points: 2
#     Edge 78, Type (0, 0), BuildingBlock: OJICUG_clean_linker_0, # of connection points: 2
#     Edge 79, Type (0, 0), BuildingBlock: OJICUG_clean_linker_0, # of connection points: 2
#     Edge 80, Type (0, 0), BuildingBlock: OJICUG_clean_linker_0, # of connection points: 2
#     Edge 81, Type (0, 0), BuildingBlock: OJICUG_clean_linker_0, # of connection points: 2
#     Edge 82, Type (0, 0), BuildingBlock: OJICUG_clean_linker_0, # of connection points: 2
#     Edge 83, Type (0, 0), BuildingBlock: OJICUG_clean_linker_0, # of connection points: 2
#     Edge 84, Type (0, 0), BuildingBlock: OJICUG_clean_linker_0, # of connection points: 2
#     Edge 85, Type (0, 0), BuildingBlock: OJICUG_clean_linker_0, # of connection points: 2
#     Edge 86, Type (0, 0), BuildingBlock: OJICUG_clean_linker_0, # of connection points: 2
#     Edge 87, Type (0, 0), BuildingBlock: OJICUG_clean_linker_0, # of connection points: 2
#     Edge 88, Type (0, 0), BuildingBlock: OJICUG_clean_linker_0, # of connection points: 2
#     Edge 89, Type (0, 0), BuildingBlock: OJICUG_clean_linker_0, # of connection points: 2
#     Edge 90, Type (0, 0), BuildingBlock: OJICUG_clean_linker_0, # of connection points: 2
#     Edge 91, Type (0, 0), BuildingBlock: OJICUG_clean_linker_0, # of connection points: 2
#     Edge 92, Type (0, 0), BuildingBlock: OJICUG_clean_linker_0, # of connection points: 2
#     Edge 93, Type (0, 0), BuildingBlock: OJICUG_clean_linker_0, # of connection points: 2
#     Edge 94, Type (0, 0), BuildingBlock: OJICUG_clean_linker_0, # of connection points: 2
#     Edge 95, Type (0, 0), BuildingBlock: OJICUG_clean_linker_0, # of connection points: 2
#     Edge 96, Type (0, 0), BuildingBlock: OJICUG_clean_linker_0, # of connection points: 2
#     Edge 97, Type (0, 0), BuildingBlock: OJICUG_clean_linker_0, # of connection points: 2
#     Edge 98, Type (0, 0), BuildingBlock: OJICUG_clean_linker_0, # of connection points: 2
#     Edge 99, Type (0, 0), BuildingBlock: OJICUG_clean_linker_0, # of connection points: 2
#     Edge 100, Type (0, 0), BuildingBlock: OJICUG_clean_linker_0, # of connection points: 2
#     Edge 101, Type (0, 0), BuildingBlock: OJICUG_clean_linker_0, # of connection points: 2
#     Edge 102, Type (0, 0), BuildingBlock: OJICUG_clean_linker_0, # of connection points: 2
#     Edge 103, Type (0, 0), BuildingBlock: OJICUG_clean_linker_0, # of connection points: 2
#     Edge 104, Type (0, 0), BuildingBlock: OJICUG_clean_linker_0, # of connection points: 2
#     Edge 105, Type (0, 0), BuildingBlock: OJICUG_clean_linker_0, # of connection points: 2
#     Edge 106, Type (0, 0), BuildingBlock: OJICUG_clean_linker_0, # of connection points: 2
#     Edge 107, Type (0, 0), BuildingBlock: OJICUG_clean_linker_0, # of connection points: 2
# Relax obj value: 0.149
# Max RMSD: 0.170
# Mean RMSD: 0.155
data_MOF--net-ict--node1-AZAVOO_clean_sbu_0--edge1-OJICUG_clean_linker_0
_symmetry_space_group_name_H-M    P1
_symmetry_Int_Tables_number       1
_symmetry_cell_setting            triclinic
loop_
_symmetry_equiv_pos_as_xyz
'x, y, z'
_cell_length_a     48.003128
_cell_length_b     47.669476
_cell_length_c     26.225146
_cell_angle_alpha  90.718747
_cell_angle_beta   89.970124
_cell_angle_gamma 120.06359
loop_
_atom_site_label
_atom_site_type_symbol
_atom_site_fract_x
_atom_site_fract_y
_atom_site_fract_z
_atom_type_partial_charge
Mg0 Mg 0.23083 0.23731 0.07471 0.0
O1 O 0.2353 0.19154 0.07466 0.0
O2 O 0.20116 0.15846 0.13308 0.0
Mg3 Mg 0.17518 0.18201 0.17158 0.0
C4 C 0.22239 0.16495 0.09885 0.0
C5 C 0.29088 0.27466 0.00633 0.0
O6 O 0.30191 0.28865 0.051 0.0
O7 O 0.18173 0.21009 0.03239 0.0
O8 O 0.15043 0.18132 0.0971 0.0
O9 O 0.26667 0.26054 0.14005 0.0
O10 O 0.21437 0.22927 0.14946 0.0
C11 C 0.15388 0.191 0.05113 0.0
C12 C 0.24222 0.24604 0.16994 0.0
O13 O 0.26134 0.25289 0.00211 0.0
Mg14 Mg 0.75782 0.99439 0.01685 0.0
O15 O 0.80978 0.03896 0.02351 0.0
O16 O 0.8356 0.02538 0.08018 0.0
Mg17 Mg 0.80252 0.9745 0.10968 0.0
C18 C 0.83507 0.04555 0.04919 0.0
C19 C 0.74605 0.04277 0.95694 0.0
O20 O 0.7541 0.05643 0.00243 0.0
O21 O 0.77641 0.96627 0.96882 0.0
O22 O 0.80067 0.95351 0.02978 0.0
O23 O 0.74002 0.01108 0.08382 0.0
O24 O 0.761 0.97932 0.08971 0.0
C25 C 0.79166 0.95209 0.9835 0.0
C26 C 0.74906 0.99499 0.11198 0.0
O27 O 0.74688 0.01682 0.94852 0.0
Mg28 Mg 0.99334 0.82193 0.00748 0.0
O29 O 0.00252 0.80912 0.08696 0.0
O30 O 0.9626 0.75992 0.10669 0.0
Mg31 Mg 0.92608 0.74309 0.04112 0.0
C32 C 0.98941 0.78526 0.11718 0.0
C33 C 0.05311 0.88755 0.98152 0.0
O34 O 0.0318 0.88993 0.9533 0.0
O35 O 0.00608 0.78659 0.96915 0.0
O36 O 0.96246 0.73949 0.98889 0.0
O37 O 0.96614 0.84452 0.03958 0.0
O38 O 0.94407 0.7932 0.01505 0.0
C39 C 0.9896 0.75571 0.96681 0.0
C40 C 0.94051 0.81643 0.03318 0.0
O41 O 0.04457 0.86212 0.00703 0.0
Mg42 Mg 0.2013 0.22876 0.49672 0.0
O43 O 0.21584 0.23781 0.41271 0.0
O44 O 0.22019 0.28501 0.39136 0.0
Mg45 Mg 0.20628 0.30457 0.46063 0.0
C46 C 0.22251 0.26012 0.38052 0.0
C47 C 0.19565 0.16509 0.52626 0.0
O48 O 0.1729 0.16579 0.55314 0.0
O49 O 0.25221 0.26637 0.52091 0.0
O50 O 0.25233 0.31167 0.49939 0.0
O51 O 0.14966 0.20331 0.47593 0.0
O52 O 0.17805 0.25584 0.49395 0.0
C53 C 0.26631 0.29716 0.51783 0.0
C54 C 0.15088 0.23095 0.48102 0.0
O55 O 0.21309 0.18874 0.49761 0.0
Mg56 Mg 0.76883 0.00961 0.42738 0.0
O57 O 0.77813 0.96647 0.43269 0.0
O58 O 0.81659 0.97606 0.37625 0.0
Mg59 Mg 0.83077 0.02214 0.33253 0.0
C60 C 0.79718 0.95869 0.41095 0.0
C61 C 0.7113 0.9669 0.49873 0.0
O62 O 0.70179 0.95064 0.45537 0.0
O63 O 0.81709 0.04413 0.46879 0.0
O64 O 0.85094 0.05249 0.40448 0.0
O65 O 0.73301 0.9866 0.36151 0.0
O66 O 0.78496 0.0188 0.35215 0.0
C67 C 0.84543 0.05875 0.44957 0.0
C68 C 0.75727 0.00158 0.3313 0.0
O69 O 0.73876 0.99267 0.5008 0.0
Mg70 Mg 0.01611 0.7973 0.42117 0.0
O71 O 0.06266 0.84649 0.43115 0.0
O72 O 0.05853 0.88067 0.37852 0.0
Mg73 Mg 0.01193 0.85427 0.33202 0.0
C74 C 0.0738 0.87469 0.41254 0.0
C75 C 0.03715 0.75736 0.4859 0.0
O76 O 0.03343 0.7439 0.44053 0.0
O77 O 0.98665 0.81612 0.46488 0.0
O78 O 0.98205 0.84588 0.40361 0.0
O79 O 0.03583 0.78174 0.35456 0.0
O80 O 0.00963 0.80842 0.34747 0.0
C81 C 0.97486 0.8331 0.44766 0.0
C82 C 0.02436 0.79544 0.32582 0.0
O83 O 0.03035 0.7798 0.49196 0.0
Mg84 Mg 0.76307 0.77763 0.90714 0.0
O85 O 0.80559 0.79209 0.96031 0.0
O86 O 0.80833 0.82422 0.02503 0.0
Mg87 Mg 0.76105 0.82461 0.01749 0.0
C88 C 0.8194 0.8088 0.00024 0.0
C89 C 0.76882 0.72589 0.82918 0.0
O90 O 0.77614 0.70291 0.82356 0.0
O91 O 0.73168 0.73899 0.96354 0.0
O92 O 0.73425 0.76952 0.03083 0.0
O93 O 0.79043 0.82601 0.86745 0.0
O94 O 0.75879 0.81672 0.93379 0.0
C95 C 0.72539 0.74193 0.00985 0.0
C96 C 0.77818 0.83672 0.90107 0.0
O97 O 0.77474 0.74078 0.87181 0.0
Mg98 Mg 0.24854 0.00759 0.96743 0.0
O99 O 0.25032 0.05314 0.00515 0.0
O100 O 0.22587 0.0339 0.07982 0.0
Mg101 Mg 0.20846 0.9807 0.09033 0.0
C102 C 0.24006 0.05702 0.04839 0.0
C103 C 0.28149 0.00993 0.87521 0.0
O104 O 0.26813 0.98088 0.89507 0.0
O105 O 0.28836 0.01162 0.01908 0.0
O106 O 0.2606 0.9916 0.09088 0.0
O107 O 0.20118 0.99323 0.93187 0.0
O108 O 0.20762 0.97745 0.00755 0.0
C109 C 0.28656 0.00274 0.06524 0.0
C110 C 0.18851 0.97729 0.97308 0.0
O111 O 0.28211 0.03282 0.90175 0.0
Mg112 Mg 0.01408 0.2242 0.95621 0.0
O113 O 0.96671 0.17865 0.98265 0.0
O114 O 0.9772 0.1727 0.06363 0.0
Mg115 Mg 0.0291 0.20894 0.08659 0.0
C116 C 0.95805 0.16394 0.02534 0.0
C117 C 0.01111 0.25772 0.86295 0.0
O118 O 0.04064 0.27511 0.88069 0.0
O119 O 0.00384 0.25769 0.00504 0.0
O120 O 0.01949 0.25167 0.08234 0.0
O121 O 0.03636 0.19534 0.92635 0.0
O122 O 0.04072 0.2134 0.00541 0.0
C123 C 0.00995 0.26597 0.05196 0.0
C124 C 0.04771 0.198 0.97199 0.0
O125 O 0.99112 0.2328 0.88738 0.0
Mg126 Mg 0.79587 0.78709 0.5461 0.0
O127 O 0.79555 0.83156 0.51029 0.0
O128 O 0.8125 0.83217 0.43053 0.0
Mg129 Mg 0.8253 0.79297 0.41534 0.0
C130 C 0.80256 0.84379 0.4656 0.0
C131 C 0.74749 0.75681 0.63187 0.0
O132 O 0.73871 0.73257 0.59941 0.0
O133 O 0.75104 0.75179 0.49994 0.0
O134 O 0.77206 0.75378 0.42304 0.0
O135 O 0.84742 0.81671 0.57312 0.0
O136 O 0.83226 0.7931 0.49742 0.0
C137 C 0.74829 0.7419 0.45374 0.0
C138 C 0.85518 0.81083 0.52869 0.0
O139 O 0.76741 0.78523 0.61694 0.0
Mg140 Mg 0.25183 0.02956 0.56679 0.0
O141 O 0.20688 0.98648 0.52594 0.0
O142 O 0.20721 0.00782 0.45018 0.0
Mg143 Mg 0.24792 0.05904 0.44037 0.0
C144 C 0.19473 0.98441 0.48142 0.0
C145 C 0.28018 0.02375 0.65906 0.0
O146 O 0.29816 0.05216 0.63812 0.0
O147 O 0.28609 0.01978 0.52091 0.0
O148 O 0.28348 0.04053 0.44626 0.0
O149 O 0.22205 0.05007 0.59635 0.0
O150 O 0.24745 0.06266 0.5228 0.0
C151 C 0.29466 0.02688 0.47472 0.0
C152 C 0.22893 0.06615 0.55439 0.0
O153 O 0.25532 0.00258 0.63472 0.0
Mg154 Mg 0.97736 0.24221 0.54865 0.0
O155 O 0.02165 0.23831 0.52419 0.0
O156 O 0.01258 0.2198 0.44341 0.0
Mg157 Mg 0.96438 0.21257 0.41656 0.0
C158 C 0.03018 0.22958 0.48346 0.0
C159 C 0.97982 0.26453 0.65475 0.0
O160 O 0.94953 0.24984 0.64001 0.0
O161 O 0.99634 0.28829 0.50268 0.0
O162 O 0.98491 0.26785 0.42334 0.0
O163 O 0.95023 0.19093 0.57513 0.0
O164 O 0.94898 0.20616 0.49631 0.0
C165 C 0.99587 0.29193 0.45459 0.0
C166 C 0.94009 0.18312 0.52865 0.0
O167 O 1.00112 0.26906 0.62191 0.0
Mg168 Mg 0.87906 0.57688 0.39782 0.0
O169 O 0.87855 0.52845 0.39575 0.0
O170 O 0.83998 0.49463 0.44797 0.0
Mg171 Mg 0.81607 0.52119 0.4842 0.0
C172 C 0.86244 0.50075 0.41624 0.0
C173 C 0.94057 0.59428 0.33815 0.0
O174 O 0.94509 0.5832 0.38112 0.0
O175 O 0.83321 0.55486 0.34785 0.0
O176 O 0.79664 0.52419 0.4058 0.0
O177 O 0.91173 0.59452 0.46634 0.0
O178 O 0.85876 0.56859 0.47053 0.0
C179 C 0.80396 0.5358 0.36092 0.0
C180 C 0.88603 0.58261 0.49389 0.0
O181 O 0.9141 0.59385 0.3311 0.0
Mg182 Mg 0.43138 0.3336 0.35946 0.0
O183 O 0.48146 0.38029 0.36534 0.0
O184 O 0.51043 0.37044 0.42123 0.0
Mg185 Mg 0.48009 0.3191 0.45136 0.0
C186 C 0.50758 0.38924 0.39013 0.0
C187 C 0.38916 0.34056 0.27854 0.0
O188 O 0.36885 0.31252 0.29863 0.0
O189 O 0.45211 0.30766 0.3107 0.0
O190 O 0.47832 0.29775 0.37199 0.0
O191 O 0.41235 0.34873 0.42647 0.0
O192 O 0.43571 0.31916 0.43205 0.0
C193 C 0.46874 0.29503 0.32578 0.0
C194 C 0.42214 0.33322 0.45461 0.0
O195 O 0.41849 0.35486 0.2926 0.0
Mg196 Mg 0.6667 0.1345 0.31657 0.0
O197 O 0.67334 0.13027 0.40178 0.0
O198 O 0.63055 0.08498 0.42904 0.0
Mg199 Mg 0.59546 0.06246 0.36232 0.0
C200 C 0.65801 0.11008 0.43678 0.0
C201 C 0.72288 0.19801 0.28704 0.0
O202 O 0.69836 0.19664 0.26252 0.0
O203 O 0.67771 0.09421 0.29758 0.0
O204 O 0.63189 0.05152 0.32382 0.0
O205 O 0.64237 0.16244 0.33324 0.0
O206 O 0.6166 0.10915 0.32225 0.0
C207 C 0.65976 0.06373 0.30366 0.0
C208 C 0.6155 0.13518 0.33186 0.0
O209 O 0.71851 0.17379 0.31284 0.0
Mg210 Mg 0.91787 0.57802 0.81742 0.0
O211 O 0.90839 0.58812 0.73702 0.0
O212 O 0.87569 0.60856 0.73624 0.0
Mg213 Mg 0.86893 0.61708 0.82066 0.0
C214 C 0.89217 0.59817 0.71305 0.0
C215 C 0.96129 0.55003 0.76322 0.0
O216 O 0.98771 0.55681 0.7385 0.0
O217 O 0.95443 0.63097 0.83341 0.0
O218 O 0.92289 0.65307 0.83267 0.0
O219 O 0.86948 0.53094 0.81406 0.0
O220 O 0.87657 0.57715 0.84519 0.0
C221 C 0.95054 0.65549 0.83693 0.0
C222 C 0.8573 0.54732 0.83421 0.0
O223 O 0.95823 0.57335 0.78025 0.0
Mg224 Mg 0.43687 0.34083 0.7663 0.0
O225 O 0.43384 0.29088 0.76243 0.0
O226 O 0.46602 0.29314 0.69891 0.0
Mg227 Mg 0.48941 0.3427 0.66202 0.0
C228 C 0.44663 0.278 0.73508 0.0
C229 C 0.37896 0.30487 0.83743 0.0
O230 O 0.36797 0.29002 0.79328 0.0
O231 O 0.48677 0.36168 0.80494 0.0
O232 O 0.51607 0.3639 0.73701 0.0
O233 O 0.39848 0.32705 0.7053 0.0
O234 O 0.45042 0.34903 0.69049 0.0
C235 C 0.51381 0.36908 0.78432 0.0
C236 C 0.42173 0.3369 0.67297 0.0
O237 O 0.40835 0.32715 0.84087 0.0
Mg238 Mg 0.67853 0.13512 0.74222 0.0
O239 O 0.72267 0.18645 0.7502 0.0
O240 O 0.71485 0.21688 0.69426 0.0
Mg241 Mg 0.66907 0.18644 0.64772 0.0
C242 C 0.73133 0.21376 0.72965 0.0
C243 C 0.69349 0.09222 0.80696 0.0
O244 O 0.68296 0.07668 0.76318 0.0
O245 O 0.6472 0.15239 0.78366 0.0
O246 O 0.63979 0.17877 0.71973 0.0
O247 O 0.70065 0.12031 0.67884 0.0
O248 O 0.67152 0.14365 0.66732 0.0
C249 C 0.63394 0.16762 0.7649 0.0
C250 C 0.68803 0.13186 0.64801 0.0
O251 O 0.69353 0.11875 0.81369 0.0
Mg252 Mg 0.42992 0.11649 0.25883 0.0
O253 O 0.47892 0.12527 0.28675 0.0
O254 O 0.49363 0.15771 0.35585 0.0
Mg255 Mg 0.4544 0.17013 0.37213 0.0
C256 C 0.49861 0.14067 0.32316 0.0
C257 C 0.41567 0.06236 0.16831 0.0
O258 O 0.40793 0.03254 0.15576 0.0
O259 O 0.4068 0.08342 0.32521 0.0
O260 O 0.42028 0.11674 0.3928 0.0
O261 O 0.45236 0.16229 0.21059 0.0
O262 O 0.43952 0.16025 0.29149 0.0
C263 C 0.40571 0.08829 0.37282 0.0
C264 C 0.4518 0.17723 0.25167 0.0
O265 O 0.42144 0.07116 0.21481 0.0
Mg266 Mg 0.90567 0.35601 0.27528 0.0
O267 O 0.89612 0.39434 0.31543 0.0
O268 O 0.87391 0.37177 0.38983 0.0
Mg269 Mg 0.86937 0.32241 0.39856 0.0
C270 C 0.88377 0.39504 0.35847 0.0
C271 C 0.94637 0.37505 0.18241 0.0
O272 O 0.9513 0.35304 0.20354 0.0
O273 O 0.94982 0.36998 0.32535 0.0
O274 O 0.92422 0.34561 0.39692 0.0
O275 O 0.85649 0.33054 0.24175 0.0
O276 O 0.86927 0.3184 0.31579 0.0
C277 C 0.95009 0.36174 0.37147 0.0
C278 C 0.84768 0.31272 0.28189 0.0
O279 O 0.93306 0.38763 0.20882 0.0
Mg280 Mg 0.66826 0.57362 0.27469 0.0
O281 O 0.62675 0.52803 0.31265 0.0
O282 O 0.64652 0.52162 0.38585 0.0
Mg283 Mg 0.6997 0.56002 0.39417 0.0
C284 C 0.62338 0.5127 0.35401 0.0
C285 C 0.63034 0.5813 0.17671 0.0
O286 O 0.60945 0.58877 0.15839 0.0
O287 O 0.66562 0.60824 0.33304 0.0
O288 O 0.68844 0.60134 0.40241 0.0
O289 O 0.6873 0.54364 0.23478 0.0
O290 O 0.70207 0.56582 0.31114 0.0
C291 C 0.67622 0.61592 0.37873 0.0
C292 C 0.7043 0.54853 0.27554 0.0
O293 O 0.63221 0.5792 0.22475 0.0
Mg294 Mg 0.45855 0.11814 0.87849 0.0
O295 O 0.4499 0.15576 0.83684 0.0
O296 O 0.46282 0.1532 0.75562 0.0
Mg297 Mg 0.48231 0.11872 0.74551 0.0
C298 C 0.45247 0.16463 0.79035 0.0
C299 C 0.44465 0.13405 0.98689 0.0
O300 O 0.47444 0.15774 0.98159 0.0
O301 O 0.41424 0.07568 0.84107 0.0
O302 O 0.43251 0.07537 0.76273 0.0
O303 O 0.51032 0.15447 0.89778 0.0
O304 O 0.49374 0.12514 0.82691 0.0
C305 C 0.41066 0.06294 0.79668 0.0
C306 C 0.51709 0.14665 0.85405 0.0
O307 O 0.4299 0.11664 0.94812 0.0
Mg308 Mg 0.91315 0.37666 0.86079 0.0
O309 O 0.86392 0.33495 0.83005 0.0
O310 O 0.86689 0.34396 0.74598 0.0
Mg311 Mg 0.9136 0.38761 0.7225 0.0
C312 C 0.85187 0.32758 0.78491 0.0
C313 C 0.93537 0.36635 0.96316 0.0
O314 O 0.96178 0.3797 0.93589 0.0
O315 O 0.93864 0.35024 0.83036 0.0
O316 O 0.94048 0.36179 0.74768 0.0
O317 O 0.89528 0.41198 0.86985 0.0
O318 O 0.91701 0.40564 0.80006 0.0
C319 C 0.94744 0.34916 0.78472 0.0
C320 C 0.90485 0.42072 0.82365 0.0
O321 O 0.90852 0.35757 0.94119 0.0
Mg322 Mg 0.66707 0.52455 0.89837 0.0
O323 O 0.71336 0.52231 0.88141 0.0
O324 O 0.70933 0.50655 0.79958 0.0
Mg325 Mg 0.66072 0.49549 0.76637 0.0
C326 C 0.72469 0.51543 0.84192 0.0
C327 C 0.68022 0.53939 0.01407 0.0
O328 O 0.67097 0.50837 0.01289 0.0
O329 O 0.68491 0.56997 0.85058 0.0
O330 O 0.67439 0.54931 0.77132 0.0
O331 O 0.63769 0.47263 0.92351 0.0
O332 O 0.64239 0.48892 0.84421 0.0
C333 C 0.68303 0.57311 0.80259 0.0
C334 C 0.62972 0.46561 0.87602 0.0
O335 O 0.68566 0.55427 0.97208 0.0
Mg336 Mg 0.57195 0.87909 0.74851 0.0
O337 O 0.5745 0.83187 0.74337 0.0
O338 O 0.54078 0.79922 0.8026 0.0
Mg339 Mg 0.51846 0.82419 0.84804 0.0
C340 C 0.56088 0.80491 0.76676 0.0
C341 C 0.62713 0.92226 0.6747 0.0
O342 O 0.63698 0.93835 0.71815 0.0
O343 O 0.52095 0.85498 0.71168 0.0
O344 O 0.49166 0.82784 0.77914 0.0
O345 O 0.61007 0.90136 0.81138 0.0
O346 O 0.55822 0.87063 0.82462 0.0
C347 C 0.49372 0.83832 0.73393 0.0
C348 C 0.58658 0.88739 0.84317 0.0
O349 O 0.59986 0.89625 0.67312 0.0
Mg350 Mg 0.09838 0.6746 0.72513 0.0
O351 O 0.15114 0.71721 0.73284 0.0
O352 O 0.17247 0.70555 0.79931 0.0
Mg353 Mg 0.13551 0.65794 0.83489 0.0
C354 C 0.17487 0.72397 0.76262 0.0
C355 C 0.09014 0.71938 0.65187 0.0
O356 O 0.09586 0.73473 0.69595 0.0
O357 O 0.11688 0.64232 0.69051 0.0
O358 O 0.13548 0.63179 0.76179 0.0
O359 O 0.07964 0.69664 0.78322 0.0
O360 O 0.09701 0.66291 0.80101 0.0
C361 C 0.12937 0.62779 0.714 0.0
C362 C 0.08561 0.68062 0.81659 0.0
O363 O 0.09187 0.69362 0.64908 0.0
Mg364 Mg 0.33023 0.46181 0.66252 0.0
O365 O 0.33449 0.45545 0.74737 0.0
O366 O 0.29086 0.41031 0.7726 0.0
Mg367 Mg 0.25695 0.39001 0.70392 0.0
C368 C 0.31846 0.43494 0.78153 0.0
C369 C 0.3923 0.52677 0.64688 0.0
O370 O 0.37119 0.53303 0.62588 0.0
O371 O 0.33998 0.42077 0.64292 0.0
O372 O 0.29304 0.37841 0.66616 0.0
O373 O 0.30608 0.49028 0.67878 0.0
O374 O 0.28008 0.43723 0.66494 0.0
C375 C 0.32122 0.39028 0.64731 0.0
C376 C 0.27908 0.4632 0.67511 0.0
O377 O 0.38299 0.49875 0.66425 0.0
Mg378 Mg 0.55109 0.8909 0.17033 0.0
O379 O 0.56374 0.89369 0.08563 0.0
O380 O 0.56453 0.93724 0.05391 0.0
Mg381 Mg 0.54844 0.95938 0.117 0.0
C382 C 0.56867 0.91294 0.04904 0.0
C383 C 0.54959 0.83105 0.20983 0.0
O384 O 0.5265 0.83178 0.2357 0.0
O385 O 0.60101 0.93318 0.18927 0.0
O386 O 0.59591 0.97397 0.15868 0.0
O387 O 0.49923 0.86048 0.15294 0.0
O388 O 0.52411 0.91394 0.16111 0.0
C389 C 0.61228 0.96332 0.18135 0.0
C390 C 0.4978 0.88687 0.15306 0.0
O391 O 0.56647 0.85395 0.1796 0.0
Mg392 Mg 0.1013 0.67231 0.12582 0.0
O393 O 0.10304 0.62479 0.11693 0.0
O394 O 0.13831 0.63309 0.05525 0.0
Mg395 Mg 0.15851 0.68397 0.02363 0.0
C396 C 0.11854 0.61511 0.08913 0.0
C397 C 0.04486 0.65532 0.19387 0.0
O398 O 0.04193 0.67102 0.15532 0.0
O399 O 0.15029 0.69643 0.16802 0.0
O400 O 0.18207 0.70489 0.10054 0.0
O401 O 0.06496 0.65921 0.06169 0.0
O402 O 0.11749 0.68686 0.05244 0.0
C403 C 0.1783 0.70807 0.14807 0.0
C404 C 0.08949 0.67495 0.0323 0.0
O405 O 0.06972 0.65229 0.19624 0.0
Mg406 Mg 0.34139 0.45709 0.0863 0.0
O407 O 0.38906 0.50524 0.099 0.0
O408 O 0.38601 0.54031 0.04699 0.0
Mg409 Mg 0.34086 0.5156 0.997 0.0
C410 C 0.40066 0.53378 0.08137 0.0
C411 C 0.34084 0.4053 0.15202 0.0
O412 O 0.32159 0.38917 0.11366 0.0
O413 O 0.31259 0.47699 0.12873 0.0
O414 O 0.30918 0.50692 0.06652 0.0
O415 O 0.36106 0.44029 0.02224 0.0
O416 O 0.33734 0.46927 0.01241 0.0
C417 C 0.30121 0.49407 0.11045 0.0
C418 C 0.35118 0.45487 0.99222 0.0
O419 O 0.352 0.43574 0.15548 0.0
Mg420 Mg 0.09201 0.44946 0.62029 0.0
O421 O 0.1411 0.45439 0.64044 0.0
O422 O 0.153 0.47478 0.72012 0.0
Mg423 Mg 0.11299 0.48258 0.7503 0.0
C424 C 0.15969 0.46432 0.6796 0.0
C425 C 0.06753 0.42408 0.5168 0.0
O426 O 0.05335 0.44012 0.5323 0.0
O427 O 0.06711 0.4048 0.6698 0.0
O428 O 0.07768 0.42744 0.74765 0.0
O429 O 0.11461 0.49995 0.5907 0.0
O430 O 0.10123 0.48659 0.6711 0.0
C431 C 0.06382 0.40251 0.71816 0.0
C432 C 0.11388 0.50881 0.63723 0.0
O433 O 0.08574 0.42044 0.54796 0.0
Mg434 Mg 0.58795 0.64769 0.63336 0.0
O435 O 0.58917 0.69289 0.67196 0.0
O436 O 0.56638 0.67362 0.7475 0.0
Mg437 Mg 0.55122 0.6207 0.75808 0.0
C438 C 0.57918 0.69662 0.71555 0.0
C439 C 0.6138 0.65105 0.53376 0.0
O440 O 0.5984 0.62105 0.54999 0.0
O441 O 0.62961 0.65222 0.68172 0.0
O442 O 0.60375 0.6321 0.75493 0.0
O443 O 0.53988 0.63279 0.60121 0.0
O444 O 0.54784 0.61617 0.67517 0.0
C445 C 0.62905 0.64321 0.72757 0.0
C446 C 0.52804 0.61623 0.64215 0.0
O447 O 0.61871 0.67373 0.56518 0.0
Mg448 Mg 0.36025 0.88809 0.65411 0.0
O449 O 0.31249 0.84482 0.68379 0.0
O450 O 0.3234 0.84054 0.76531 0.0
Mg451 Mg 0.37616 0.87568 0.78521 0.0
C452 C 0.3038 0.83163 0.72759 0.0
C453 C 0.35765 0.91775 0.55671 0.0
O454 O 0.38774 0.93399 0.57238 0.0
O455 O 0.35133 0.92319 0.70073 0.0
O456 O 0.36684 0.91873 0.779 0.0
O457 O 0.37988 0.85685 0.62548 0.0
O458 O 0.3868 0.87708 0.70358 0.0
C459 C 0.35716 0.93229 0.74734 0.0
C460 C 0.3921 0.86008 0.67059 0.0
O461 O 0.33698 0.8954 0.58466 0.0
Mg462 Mg 0.12068 0.44181 0.20571 0.0
O463 O 0.11663 0.48476 0.17187 0.0
O464 O 0.13253 0.48726 0.09101 0.0
Mg465 Mg 0.14888 0.45077 0.07421 0.0
C466 C 0.12198 0.49734 0.12743 0.0
C467 C 0.08828 0.41422 0.30388 0.0
O468 O 0.1002 0.39619 0.28777 0.0
O469 O 0.07657 0.40473 0.16107 0.0
O470 O 0.09703 0.40842 0.08324 0.0
O471 O 0.17176 0.47405 0.23233 0.0
O472 O 0.15749 0.45097 0.15606 0.0
C473 C 0.07383 0.39496 0.11483 0.0
C474 C 0.18004 0.46941 0.18746 0.0
O475 O 0.09092 0.43689 0.27554 0.0
Mg476 Mg 0.58798 0.681 0.2252 0.0
O477 O 0.53869 0.64097 0.18998 0.0
O478 O 0.53621 0.66427 0.11783 0.0
Mg479 Mg 0.57894 0.71388 0.10481 0.0
C480 C 0.52418 0.6406 0.14861 0.0
C481 C 0.61342 0.6734 0.31891 0.0
O482 O 0.63003 0.70313 0.30183 0.0
O483 O 0.6162 0.66755 0.16983 0.0
O484 O 0.61071 0.69097 0.10011 0.0
O485 O 0.56477 0.70613 0.26379 0.0
O486 O 0.58545 0.7171 0.18669 0.0
C487 C 0.62187 0.67514 0.1229 0.0
C488 C 0.57102 0.723 0.22282 0.0
O489 O 0.59107 0.65196 0.29063 0.0
Mg490 Mg 0.31925 0.88146 0.2449 0.0
O491 O 0.364 0.88019 0.21507 0.0
O492 O 0.35196 0.85946 0.1356 0.0
Mg493 Mg 0.30127 0.8479 0.11499 0.0
C494 C 0.37144 0.8714 0.17328 0.0
C495 C 0.32467 0.91146 0.34603 0.0
O496 O 0.29433 0.89781 0.33183 0.0
O497 O 0.33337 0.92538 0.19628 0.0
O498 O 0.319 0.90269 0.11852 0.0
O499 O 0.29544 0.8309 0.27505 0.0
O500 O 0.29025 0.84379 0.19634 0.0
C501 C 0.33027 0.92746 0.14838 0.0
C502 C 0.28336 0.82177 0.22977 0.0
O503 O 0.34494 0.91176 0.3145 0.0
C504 C 0.32404 0.27303 0.87562 0.0
C505 C 0.35667 0.29697 0.88105 0.0
H506 H 0.27767 0.24736 0.91053 0.0
C507 C 0.36733 0.31381 0.92779 0.0
H508 H 0.31495 0.25964 0.84008 0.0
C509 C 0.34585 0.3068 0.96817 0.0
C510 C 0.31323 0.28281 0.96274 0.0
H511 H 0.39224 0.33249 0.93318 0.0
H512 H 0.35492 0.32017 0.00373 0.0
C513 C 0.30257 0.26605 0.91596 0.0
C514 C 0.70784 0.05113 0.83582 0.0
C515 C 0.70681 0.07969 0.84577 0.0
H516 H 0.72125 0.01727 0.86263 0.0
C517 C 0.71943 0.09635 0.89216 0.0
H518 H 0.69844 0.0377 0.80039 0.0
C519 C 0.73262 0.08461 0.92786 0.0
C520 C 0.73355 0.05599 0.91793 0.0
H521 H 0.71915 0.11847 0.90091 0.0
H522 H 0.74195 0.09793 0.9634 0.0
C523 C 0.72109 0.03945 0.87142 0.0
C524 C 0.99119 0.74171 0.8771 0.0
C525 C 0.99715 0.73803 0.92827 0.0
H526 H 0.97108 0.71705 0.80612 0.0
C527 C 0.99791 0.71016 0.94255 0.0
H528 H 0.99019 0.76292 0.86546 0.0
C529 C 0.98807 0.68431 0.90797 0.0
C530 C 0.97618 0.68579 0.85975 0.0
H531 H 0.00219 0.70678 0.98197 0.0
H532 H 0.98511 0.66163 0.9217 0.0
C533 C 0.98018 0.71544 0.84313 0.0
C534 C 0.3334 0.3741 0.56509 0.0
C535 C 0.32727 0.36765 0.61723 0.0
H536 H 0.3175 0.35491 0.48979 0.0
C537 C 0.31296 0.33537 0.63337 0.0
H538 H 0.34509 0.39879 0.55161 0.0
C539 C 0.29756 0.31009 0.59776 0.0
C540 C 0.29639 0.31736 0.54639 0.0
H541 H 0.30868 0.32983 0.67355 0.0
H542 H 0.28205 0.28579 0.61163 0.0
C543 C 0.31742 0.34891 0.52954 0.0
C544 C 0.639 0.91637 0.5829 0.0
C545 C 0.6483 0.93385 0.62925 0.0
H546 H 0.65153 0.91297 0.50563 0.0
C547 C 0.67856 0.96238 0.63229 0.0
H548 H 0.61593 0.89429 0.57921 0.0
C549 C 0.69906 0.97309 0.59013 0.0
C550 C 0.68981 0.95555 0.54383 0.0
H551 H 0.68657 0.97648 0.66739 0.0
H552 H 0.72215 0.99513 0.59389 0.0
C553 C 0.6595 0.92709 0.54072 0.0
C554 C 0.059 0.76483 0.57492 0.0
C555 C 0.05083 0.74771 0.52827 0.0
H556 H 0.07826 0.76967 0.65005 0.0
C557 C 0.05672 0.72177 0.52193 0.0
H558 H 0.05501 0.78507 0.58095 0.0
C559 C 0.07013 0.71292 0.56158 0.0
C560 C 0.07807 0.72991 0.60837 0.0
H561 H 0.05081 0.70813 0.48637 0.0
H562 H 0.07396 0.69257 0.55572 0.0
C563 C 0.07254 0.7561 0.61444 0.0
C564 C 0.67928 0.69336 0.12125 0.0
C565 C 0.64906 0.675 0.09767 0.0
H566 H 0.72822 0.73059 0.11054 0.0
C567 C 0.64747 0.67034 0.0445 0.0
H568 H 0.68117 0.69712 0.16224 0.0
C569 C 0.67456 0.68921 0.01482 0.0
C570 C 0.70308 0.71292 0.03841 0.0
H571 H 0.62437 0.65605 0.02559 0.0
H572 H 0.67178 0.68848 0.97374 0.0
C573 C 0.70615 0.71289 0.09164 0.0
C574 C 0.3262 0.97712 0.16012 0.0
C575 C 0.33319 0.95756 0.12821 0.0
H576 H 0.30583 0.00802 0.16421 0.0
C577 C 0.33496 0.96246 0.0753 0.0
H578 H 0.32521 0.97434 0.20113 0.0
C579 C 0.32453 0.9824 0.05423 0.0
C580 C 0.31168 0.99699 0.08594 0.0
H581 H 0.341 0.94822 0.04991 0.0
H582 H 0.32244 0.98267 0.01313 0.0
C583 C 0.31515 0.9965 0.13902 0.0
C584 C 0.03893 0.35471 0.04839 0.0
C585 C 0.04628 0.36299 0.10018 0.0
H586 H 0.02006 0.31672 0.99224 0.0
C587 C 0.03282 0.33831 0.13654 0.0
H588 H 0.04855 0.3733 0.01962 0.0
C589 C 0.01701 0.30578 0.12086 0.0
C590 C 0.01388 0.29755 0.06869 0.0
H591 H 0.03779 0.34393 0.17682 0.0
H592 H 0.01011 0.28728 0.14947 0.0
C593 C 0.02248 0.3222 0.03276 0.0
C594 C 0.68754 0.65355 0.45293 0.0
C595 C 0.6826 0.64745 0.40018 0.0
H596 H 0.71152 0.68915 0.51193 0.0
C597 C 0.69219 0.67377 0.36732 0.0
H598 H 0.68012 0.6337 0.47918 0.0
C599 C 0.7108 0.70551 0.38591 0.0
C600 C 0.71932 0.7114 0.43778 0.0
H601 H 0.68862 0.66991 0.32648 0.0
H602 H 0.72093 0.72522 0.35904 0.0
C603 C 0.70545 0.68536 0.4717 0.0
C604 C 0.35256 0.04763 0.4835 0.0
C605 C 0.32387 0.02762 0.45672 0.0
H606 H 0.40231 0.08355 0.47683 0.0
C607 C 0.32526 0.01966 0.40553 0.0
H608 H 0.352 0.05394 0.52319 0.0
C609 C 0.35415 0.03621 0.37909 0.0
C610 C 0.38148 0.06142 0.40355 0.0
H611 H 0.30334 0.00403 0.38438 0.0
H612 H 0.35369 0.03239 0.33822 0.0
C613 C 0.38132 0.06487 0.4568 0.0
C614 C 0.99303 0.34828 0.36071 0.0
C615 C 0.97864 0.36162 0.39175 0.0
H616 H 0.01036 0.31478 0.35718 0.0
C617 C 0.98227 0.36166 0.44492 0.0
H618 H 0.99111 0.34837 0.31955 0.0
C619 C 0.99354 0.34257 0.4666 0.0
C620 C 1.00085 0.32309 0.43509 0.0
H621 H 0.97195 0.37239 0.46969 0.0
H622 H 0.99192 0.33954 0.50756 0.0
C623 C 0.00376 0.3287 0.38231 0.0
C624 C 0.99002 0.64107 0.2245 0.0
C625 C 0.01847 0.63984 0.23131 0.0
H626 H 0.94305 0.62741 0.25235 0.0
C627 C 0.02084 0.62298 0.27307 0.0
H628 H 0.98731 0.65375 0.19261 0.0
C629 C 0.99536 0.60786 0.30742 0.0
C630 C 0.96692 0.60913 0.30055 0.0
H631 H 0.04235 0.62147 0.27928 0.0
H632 H 0.99801 0.59522 0.33942 0.0
C633 C 0.96451 0.62581 0.25861 0.0
C634 C 0.39397 0.39102 0.24204 0.0
C635 C 0.37716 0.35704 0.24524 0.0
H636 H 0.39516 0.43301 0.21128 0.0
C637 C 0.34787 0.33913 0.21873 0.0
H638 H 0.41643 0.40547 0.26255 0.0
C639 C 0.3359 0.35489 0.18889 0.0
C640 C 0.35254 0.38888 0.18608 0.0
H641 H 0.33434 0.31292 0.22067 0.0
H642 H 0.31361 0.34044 0.16797 0.0
C643 C 0.3816 0.40681 0.21319 0.0
C644 C 0.64254 0.98299 0.26215 0.0
C645 C 0.64102 0.98744 0.20963 0.0
H646 H 0.65102 0.00572 0.33579 0.0
C647 C 0.65908 0.0188 0.18996 0.0
H648 H 0.62927 0.959 0.27828 0.0
C649 C 0.67226 0.04564 0.22303 0.0
C650 C 0.66663 0.04099 0.27559 0.0
H651 H 0.65877 0.02275 0.1494 0.0
H652 H 0.68156 0.0695 0.20692 0.0
C653 C 0.65505 0.00981 0.29522 0.0
C654 C 0.36426 0.97363 0.81393 0.0
C655 C 0.35887 0.96319 0.76264 0.0
H656 H 0.38399 0.01426 0.86553 0.0
C657 C 0.36164 0.98525 0.72505 0.0
H658 H 0.36167 0.95709 0.84394 0.0
C659 C 0.37475 0.01809 0.7374 0.0
C660 C 0.38468 0.02921 0.7876 0.0
H661 H 0.35709 0.97797 0.68524 0.0
H662 H 0.38014 0.03515 0.70689 0.0
C663 C 0.37681 0.00641 0.82639 0.0
C664 C 0.01122 0.35171 0.70696 0.0
C665 C 0.03678 0.37257 0.73944 0.0
H666 H 0.96009 0.32529 0.69782 0.0
C667 C 0.03124 0.37082 0.79232 0.0
H668 H 0.01477 0.35121 0.66624 0.0
C669 C 0.9997 0.3555 0.81053 0.0
C670 C 0.97391 0.34244 0.77563 0.0
H671 H 0.05069 0.38548 0.81872 0.0
H672 H 0.99594 0.35932 0.85016 0.0
C673 C 0.97972 0.33658 0.72516 0.0
C674 C 0.67368 0.61953 0.81767 0.0
C675 C 0.68249 0.60212 0.78403 0.0
H676 H 0.64959 0.64689 0.82562 0.0
C677 C 0.68234 0.60722 0.73132 0.0
H678 H 0.67387 0.61656 0.85853 0.0
C679 C 0.66891 0.62521 0.71249 0.0
C680 C 0.65506 0.63788 0.74614 0.0
H681 H 0.68947 0.59459 0.70441 0.0
H682 H 0.66592 0.62575 0.67164 0.0
C683 C 0.65968 0.63694 0.79884 0.0
C684 C 0.24718 0.11165 0.0256 0.0
C685 C 0.24129 0.08794 0.06207 0.0
H686 H 0.24594 0.15505 0.00871 0.0
C687 C 0.2327 0.09208 0.11178 0.0
H688 H 0.25385 0.10922 0.98703 0.0
C689 C 0.22771 0.11772 0.12379 0.0
C690 C 0.23164 0.14033 0.08675 0.0
H691 H 0.22847 0.07469 0.14126 0.0
H692 H 0.21997 0.11937 0.16198 0.0
C693 C 0.24254 0.13779 0.03797 0.0
C694 C 0.91839 0.11646 0.07587 0.0
C695 C 0.92548 0.13481 0.03118 0.0
H696 H 0.88475 0.07456 0.11639 0.0
C697 C 0.9016 0.12438 0.99292 0.0
H698 H 0.93593 0.12357 0.10641 0.0
C699 C 0.87164 0.09594 -0.00096 0.0
C700 C 0.86522 0.0772 0.04321 0.0
H701 H 0.90615 0.13795 0.95811 0.0
H702 H 0.85392 0.08815 0.96866 0.0
C703 C 0.88888 0.08812 0.08165 0.0
C704 C 0.85228 0.78229 0.00883 0.0
C705 C 0.84884 0.80948 0.01789 0.0
H706 H 0.88366 0.76278 0.0086 0.0
C707 C 0.87442 0.83743 0.04031 0.0
H708 H 0.83267 0.76019 0.9925 0.0
C709 C 0.90398 0.83907 0.04921 0.0
C710 C 0.90807 0.81258 0.0365 0.0
H711 H 0.87221 0.85862 0.04797 0.0
H712 H 0.92405 0.86163 0.06327 0.0
C713 C 0.88146 0.78371 0.01848 0.0
C714 C 0.11772 0.25554 0.50766 0.0
C715 C 0.12121 0.23284 0.47772 0.0
H716 H 0.08573 0.27173 0.53417 0.0
C717 C 0.09485 0.20963 0.44904 0.0
H718 H 0.13759 0.27345 0.53064 0.0
C719 C 0.06544 0.20894 0.45052 0.0
C720 C 0.06155 0.23088 0.48181 0.0
H721 H 0.09687 0.19175 0.42588 0.0
H722 H 0.04548 0.19066 0.42812 0.0
C723 C 0.08799 0.2543 0.51021 0.0
C724 C 0.78458 0.88462 0.48472 0.0
C725 C 0.80029 0.87292 0.45298 0.0
H726 H 0.77079 0.92081 0.49621 0.0
C727 C 0.81422 0.8894 0.40757 0.0
H728 H 0.77351 0.87246 0.51988 0.0
C729 C 0.81283 0.91684 0.3943 0.0
C730 C 0.79727 0.92874 0.42574 0.0
H731 H 0.82662 0.88133 0.38205 0.0
H732 H 0.82405 0.92874 0.35903 0.0
C733 C 0.7829 0.9122 0.47104 0.0
C734 C 0.11968 0.90012 0.47657 0.0
C735 C 0.10537 0.90161 0.4305 0.0
H736 H 0.15917 0.92521 0.52954 0.0
C737 C 0.12118 0.92979 0.40146 0.0
H738 H 0.10803 0.87868 0.49987 0.0
C739 C 0.1502 0.95596 0.41804 0.0
C740 C 0.16441 0.95509 0.46455 0.0
H741 H 0.11112 0.93178 0.36564 0.0
H742 H 0.16121 0.9772 0.39424 0.0
C743 C 0.1489 0.92674 0.49364 0.0
C744 C 0.81738 0.9193 0.96043 0.0
C745 C 0.79459 0.92876 0.94918 0.0
H746 H 0.83032 0.88242 0.95243 0.0
C747 C 0.77067 0.9109 0.91238 0.0
H748 H 0.83615 0.9326 0.98855 0.0
C749 C 0.76736 0.88207 0.89195 0.0
C750 C 0.78835 0.8712 0.90705 0.0
H751 H 0.75261 0.91736 0.90322 0.0
H752 H 0.74683 0.86696 0.86764 0.0
C753 C 0.81425 0.89071 0.93956 0.0
C754 C 0.14054 0.93568 0.01895 0.0
C755 C 0.15342 0.9578 0.97896 0.0
H756 H 0.09862 0.8961 0.05096 0.0
C757 C 0.13262 0.95867 0.94213 0.0
H758 H 0.15593 0.93438 0.04786 0.0
C759 C 0.0996 0.93666 0.94398 0.0
C760 C 0.08707 0.91331 0.98235 0.0
H761 H 0.14195 0.97559 0.91096 0.0
H762 H 0.08415 0.93707 0.91425 0.0
C763 C 0.1077 0.91357 0.02051 0.0
C764 C 0.09475 0.17068 0.04997 0.0
C765 C 0.1242 0.18466 0.02346 0.0
H766 H 0.04737 0.16432 0.05437 0.0
C767 C 0.12552 0.19712 0.97463 0.0
H768 H 0.09251 0.16046 0.08743 0.0
C769 C 0.09891 0.19827 0.95507 0.0
C770 C 0.071 0.18762 0.98452 0.0
H771 H 0.14767 0.20793 0.95309 0.0
H772 H 0.10123 0.21013 0.91905 0.0
C773 C 0.06869 0.17272 0.03113 0.0
C774 C 0.92901 0.84378 0.44781 0.0
C775 C 0.94793 0.83373 0.47454 0.0
H776 H 0.88453 0.84396 0.44407 0.0
C777 C 0.93799 0.82049 0.52329 0.0
H778 H 0.93579 0.85422 0.41027 0.0
C779 C 0.90873 0.81551 0.54319 0.0
C780 C 0.88881 0.82301 0.51409 0.0
H781 H 0.95195 0.81256 0.54489 0.0
H782 H 0.90062 0.80368 0.5796 0.0
C783 C 0.89954 0.83795 0.46701 0.0
C784 C 0.22316 0.13517 0.49737 0.0
C785 C 0.20183 0.13792 0.5309 0.0
H786 H 0.24814 0.11005 0.47824 0.0
C787 C 0.18739 0.11518 0.56988 0.0
H788 H 0.23445 0.15219 0.46671 0.0
C789 C 0.19529 0.09098 0.57657 0.0
C790 C 0.21749 0.08897 0.54406 0.0
H791 H 0.17074 0.11665 0.59618 0.0
H792 H 0.18463 0.07437 0.6079 0.0
C793 C 0.23082 0.11086 0.50378 0.0
C794 C 0.92324 0.13787 0.46641 0.0
C795 C 0.91864 0.14916 0.51325 0.0
H796 H 0.9046 0.09994 0.41083 0.0
C797 C 0.8918 0.12869 0.54296 0.0
H798 H 0.94402 0.15306 0.44328 0.0
C799 C 0.86844 0.09818 0.52395 0.0
C800 C 0.87214 0.08755 0.47551 0.0
H801 H 0.88789 0.13706 0.57941 0.0
H802 H 0.84698 0.08366 0.54609 0.0
C803 C 0.90056 0.10725 0.4481 0.0
C804 C 0.85567 0.44587 0.42998 0.0
C805 C 0.86923 0.47454 0.40185 0.0
H806 H 0.84969 0.39881 0.43864 0.0
C807 C 0.88836 0.4773 0.3593 0.0
H808 H 0.84091 0.44286 0.46301 0.0
C809 C 0.89329 0.45165 0.34483 0.0
C810 C 0.87947 0.4229 0.37298 0.0
H811 H 0.89913 0.49906 0.33667 0.0
H812 H 0.90785 0.45434 0.31168 0.0
C813 C 0.86081 0.42053 0.41592 0.0
C814 C 0.56586 0.47078 0.33123 0.0
C815 C 0.59251 0.48241 0.36452 0.0
H816 H 0.51799 0.43239 0.31323 0.0
C817 C 0.59006 0.46386 0.40739 0.0
H818 H 0.56683 0.4844 0.29788 0.0
C819 C 0.56232 0.43413 0.41593 0.0
C820 C 0.53597 0.42202 0.38211 0.0
H821 H 0.60992 0.47191 0.43408 0.0
H822 H 0.56174 0.42044 0.44896 0.0
C823 C 0.53783 0.44096 0.34006 0.0
C824 C 0.55525 0.16283 0.35356 0.0
C825 C 0.52794 0.13824 0.3283 0.0
H826 H 0.60454 0.18108 0.37456 0.0
C827 C 0.52888 0.11128 0.30813 0.0
H828 H 0.55517 0.18383 0.36965 0.0
C829 C 0.55688 0.10934 0.31208 0.0
C830 C 0.58462 0.13464 0.33529 0.0
H831 H 0.50803 0.09176 0.28904 0.0
H832 H 0.55721 0.08868 0.29502 0.0
C833 C 0.58345 0.16121 0.35654 0.0
C834 C 0.81174 0.54739 0.87901 0.0
C835 C 0.82236 0.53449 0.84006 0.0
H836 H 0.77262 0.55108 0.91077 0.0
C837 C 0.79994 0.51271 0.80447 0.0
H838 H 0.82857 0.56422 0.90708 0.0
C839 C 0.76783 0.5056 0.80605 0.0
C840 C 0.75752 0.51969 0.84381 0.0
H841 H 0.80755 0.50261 0.7739 0.0
H842 H 0.75128 0.48974 0.77685 0.0
C843 C 0.77966 0.53985 0.88119 0.0
C844 C 0.43803 0.20751 0.81259 0.0
C845 C 0.44563 0.19063 0.77588 0.0
H846 H 0.43182 0.24838 0.82829 0.0
C847 C 0.44909 0.20042 0.72475 0.0
H848 H 0.43498 0.20051 0.85222 0.0
C849 C 0.44742 0.2277 0.71123 0.0
C850 C 0.44191 0.24582 0.7483 0.0
H851 H 0.45447 0.18781 0.69516 0.0
H852 H 0.45168 0.23534 0.67188 0.0
C853 C 0.43605 0.23483 0.79884 0.0
C854 C 0.77324 0.27172 0.71886 0.0
C855 C 0.76142 0.24305 0.74672 0.0
H856 H 0.81056 0.32067 0.7097 0.0
C857 C 0.77861 0.24301 0.79028 0.0
H858 H 0.76068 0.27285 0.68534 0.0
C859 C 0.80744 0.27097 0.80474 0.0
C860 C 0.81963 0.29913 0.77544 0.0
H861 H 0.76999 0.22137 0.81284 0.0
H862 H 0.82072 0.27016 0.83753 0.0
C863 C 0.80193 0.29926 0.7329 0.0
C864 C 0.44652 0.22543 0.23374 0.0
C865 C 0.4644 0.21235 0.25471 0.0
H866 H 0.43415 0.26282 0.2395 0.0
C867 C 0.48872 0.23072 0.29032 0.0
H868 H 0.42726 0.21133 0.20673 0.0
C869 C 0.49293 0.26019 0.3087 0.0
C870 C 0.47227 0.27145 0.29278 0.0
H871 H 0.50259 0.22092 0.30726 0.0
H872 H 0.51035 0.27254 0.33903 0.0
C873 C 0.45043 0.25488 0.25265 0.0
C874 C 0.79079 0.28073 0.25156 0.0
C875 C 0.81484 0.28501 0.28641 0.0
H876 H 0.74274 0.24969 0.22441 0.0
C877 C 0.80816 0.2609 0.3224 0.0
H878 H 0.79534 0.2989 0.22331 0.0
C879 C 0.77829 0.23252 0.32247 0.0
C880 C 0.75444 0.22794 0.28695 0.0
H881 H 0.82634 0.26345 0.3495 0.0
H882 H 0.77394 0.21414 0.35024 0.0
C883 C 0.76076 0.2525 0.25203 0.0
C884 C 0.78273 0.55069 0.28429 0.0
C885 C 0.77707 0.53104 0.32705 0.0
H886 H 0.7629 0.5709 0.23277 0.0
C887 C 0.74505 0.51094 0.34294 0.0
H888 H 0.807 0.56637 0.27087 0.0
C889 C 0.72002 0.51373 0.32129 0.0
C890 C 0.72634 0.53596 0.28246 0.0
H891 H 0.73962 0.49512 0.37526 0.0
H892 H 0.69625 0.50064 0.33797 0.0
C893 C 0.75746 0.55313 0.26216 0.0
C894 C 0.60065 0.15943 0.84367 0.0
C895 C 0.60761 0.16882 0.79252 0.0
H896 H 0.56629 0.14611 0.90423 0.0
C897 C 0.5867 0.17602 0.76524 0.0
H898 H 0.61629 0.15387 0.86573 0.0
C899 C 0.55809 0.17098 0.78682 0.0
C900 C 0.55026 0.15971 0.83663 0.0
H901 H 0.59123 0.18346 0.72582 0.0
H902 H 0.54132 0.1744 0.76373 0.0
C903 C 0.57224 0.15524 0.86578 0.0
C904 C 0.92202 0.50665 0.82032 0.0
C905 C 0.9374 0.51596 0.77295 0.0
H906 H 0.89866 0.46812 0.87372 0.0
C907 C 0.93459 0.49206 0.73826 0.0
H908 H 0.9239 0.52473 0.84771 0.0
C909 C 0.92002 0.45978 0.75282 0.0
C910 C 0.90844 0.45095 0.80264 0.0
H911 H 0.94583 0.49864 0.70114 0.0
H912 H 0.92055 0.44242 0.72649 0.0
C913 C 0.90758 0.47422 0.83515 0.0
C914 C 0.60259 0.42236 0.81056 0.0
C915 C 0.60256 0.43417 0.85962 0.0
H916 H 0.5747 0.39171 0.74894 0.0
C917 C 0.5738 0.42016 0.88758 0.0
H918 H 0.6245 0.43276 0.78839 0.0
C919 C 0.54478 0.39712 0.86453 0.0
C920 C 0.54435 0.38749 0.81352 0.0
H921 H 0.57322 0.4292 0.92545 0.0
H922 H 0.52257 0.38852 0.88547 0.0
C923 C 0.57387 0.39896 0.78796 0.0
C924 C 0.56882 0.73028 0.77794 0.0
C925 C 0.57902 0.72702 0.72899 0.0
H926 H 0.55509 0.7569 0.82771 0.0
C927 C 0.58569 0.75129 0.69308 0.0
H928 H 0.56376 0.71243 0.80702 0.0
C929 C 0.58086 0.77738 0.70543 0.0
C930 C 0.56892 0.77937 0.75363 0.0
H931 H 0.59354 0.74957 0.65504 0.0
H932 H 0.58532 0.79528 0.67673 0.0
C933 C 0.56366 0.75585 0.7899 0.0
C934 C 0.23074 0.76367 0.79178 0.0
C935 C 0.20688 0.75308 0.75367 0.0
H936 H 0.27937 0.79625 0.81357 0.0
C937 C 0.2148 0.7693 0.70677 0.0
H938 H 0.22559 0.75198 0.82848 0.0
C939 C 0.24617 0.79494 0.69791 0.0
C940 C 0.27015 0.805 0.73592 0.0
H941 H 0.19702 0.76168 0.67651 0.0
H942 H 0.25168 0.80666 0.66123 0.0
C943 C 0.26178 0.78921 0.78312 0.0
C944 C 0.2459 0.48687 0.70566 0.0
C945 C 0.24809 0.46242 0.67885 0.0
H946 H 0.2159 0.50634 0.7273 0.0
C947 C 0.22094 0.4384 0.65239 0.0
H948 H 0.26652 0.50571 0.72618 0.0
C949 C 0.19228 0.43929 0.65174 0.0
C950 C 0.19007 0.4637 0.67871 0.0
H951 H 0.22213 0.41944 0.63098 0.0
H952 H 0.17177 0.4207 0.63068 0.0
C953 C 0.217 0.48725 0.70618 0.0
C954 C 0.43083 0.9027 0.18984 0.0
C955 C 0.40404 0.87607 0.16698 0.0
H956 H 0.48195 0.92777 0.2014 0.0
C957 C 0.40874 0.85447 0.13616 0.0
H958 H 0.4279 0.91995 0.21317 0.0
C959 C 0.4395 0.85868 0.12996 0.0
C960 C 0.46626 0.88512 0.15319 0.0
H961 H 0.38848 0.83382 0.11788 0.0
H962 H 0.44231 0.841 0.10761 0.0
C963 C 0.46176 0.90743 0.18243 0.0
C964 C 0.10546 0.56738 0.14532 0.0
C965 C 0.11548 0.58296 0.09803 0.0
H966 H 0.09984 0.5282 0.19221 0.0
C967 C 0.12528 0.56882 0.06002 0.0
H968 H 0.09787 0.57773 0.1755 0.0
C969 C 0.12624 0.54059 0.0694 0.0
C970 C 0.11772 0.52568 0.11733 0.0
H971 H 0.1329 0.57996 0.02304 0.0
H972 H 0.13459 0.53101 0.03913 0.0
C973 C 0.10674 0.53908 0.15498 0.0
C974 C 0.47898 0.58225 0.15755 0.0
C975 C 0.49213 0.61271 0.13438 0.0
H976 H 0.43968 0.53301 0.15882 0.0
C977 C 0.47461 0.61671 0.09492 0.0
H978 H 0.49184 0.57834 0.18798 0.0
C979 C 0.44519 0.59116 0.07841 0.0
C980 C 0.43206 0.56052 0.10063 0.0
H981 H 0.48361 0.63979 0.07625 0.0
H982 H 0.43285 0.59558 0.0477 0.0
C983 C 0.44919 0.5563 0.14067 0.0
C984 C 0.12044 0.59083 0.63872 0.0
C985 C 0.13272 0.60185 0.68814 0.0
H986 H 0.10538 0.55235 0.58323 0.0
C987 C 0.14405 0.58455 0.71633 0.0
H988 H 0.11173 0.60365 0.61589 0.0
C989 C 0.1398 0.5551 0.69814 0.0
C990 C 0.12499 0.54277 0.65085 0.0
H991 H 0.15426 0.59254 0.75415 0.0
H992 H 0.14684 0.54131 0.72206 0.0
C993 C 0.11684 0.56152 0.62002 0.0
C994 C 0.44744 0.54809 0.68282 0.0
C995 C 0.4266 0.55165 0.64937 0.0
H996 H 0.49603 0.56639 0.70763 0.0
C997 C 0.43903 0.57856 0.61729 0.0
H998 H 0.4384 0.52777 0.70845 0.0
C999 C 0.47204 0.60052 0.61656 0.0
C1000 C 0.49303 0.59618 0.6485 0.0
H1001 H 0.42345 0.58197 0.59135 0.0
H1002 H 0.48122 0.62036 0.58996 0.0
C1003 C 0.48037 0.57033 0.68267 0.0
C1004 C 0.41387 0.83578 0.73077 0.0
C1005 C 0.41408 0.84781 0.68236 0.0
H1006 H 0.4379 0.82175 0.78397 0.0
C1007 C 0.43822 0.85208 0.64764 0.0
H1008 H 0.39544 0.83217 0.75806 0.0
C1009 C 0.46342 0.84706 0.66283 0.0
C1010 C 0.46428 0.83681 0.71253 0.0
H1011 H 0.43891 0.86155 0.61004 0.0
H1012 H 0.48292 0.85271 0.63661 0.0
C1013 C 0.43831 0.82976 0.74537 0.0
C1014 C 0.22421 0.49618 0.12522 0.0
C1015 C 0.2139 0.48266 0.17333 0.0
H1016 H 0.26052 0.51175 0.06863 0.0
C1017 C 0.23461 0.47728 0.2043 0.0
H1018 H 0.20859 0.50055 0.10084 0.0
C1019 C 0.26424 0.48277 0.1854 0.0
C1020 C 0.27378 0.49449 0.13577 0.0
H1021 H 0.22687 0.46657 0.24153 0.0
H1022 H 0.27886 0.47639 0.20856 0.0
C1023 C 0.25406 0.50258 0.10697 0.0
C1024 C 0.53973 0.78008 0.25183 0.0
C1025 C 0.55442 0.80299 0.21313 0.0
H1026 H 0.53344 0.73649 0.2853 0.0
C1027 C 0.57329 0.79853 0.17665 0.0
H1028 H 0.52495 0.78288 0.28035 0.0
C1029 C 0.57769 0.77186 0.17903 0.0
C1030 C 0.5636 0.74928 0.21824 0.0
H1031 H 0.58468 0.81562 0.14612 0.0
H1032 H 0.59284 0.76945 0.15075 0.0
C1033 C 0.54448 0.75351 0.25457 0.0
C1034 C 0.23755 0.74581 0.15232 0.0
C1035 C 0.20758 0.73098 0.17731 0.0
H1036 H 0.2852 0.78685 0.14944 0.0
C1037 C 0.20549 0.74284 0.22567 0.0
H1038 H 0.24038 0.73707 0.11545 0.0
C1039 C 0.23184 0.77104 0.24577 0.0
C1040 C 0.26021 0.78783 0.21733 0.0
H1041 H 0.18291 0.73195 0.24605 0.0
H1042 H 0.22899 0.7813 0.28114 0.0
C1043 C 0.26339 0.77432 0.17168 0.0
C1044 C 0.25665 0.28091 0.24734 0.0
C1045 C 0.24476 0.24997 0.22557 0.0
H1046 H 0.25848 0.3084 0.31375 0.0
C1047 C 0.22867 0.22259 0.25635 0.0
H1048 H 0.26851 0.30228 0.22396 0.0
C1049 C 0.22296 0.22597 0.30767 0.0
C1050 C 0.23255 0.25679 0.32859 0.0
H1051 H 0.21916 0.19848 0.2401 0.0
H1052 H 0.20938 0.20435 0.33007 0.0
C1053 C 0.25039 0.28431 0.29842 0.0
C1054 C 0.78008 0.01439 0.19203 0.0
C1055 C 0.75015 0.99802 0.16767 0.0
H1056 H 0.80564 0.02942 0.26211 0.0
C1057 C 0.72197 0.98285 0.1969 0.0
H1058 H 0.80204 0.02636 0.17002 0.0
C1059 C 0.72396 0.98341 0.25036 0.0
C1060 C 0.75416 -0.0004 0.27495 0.0
H1061 H 0.69859 0.96995 0.17844 0.0
H1062 H 0.70201 0.97132 0.27231 0.0
C1063 C 0.78205 0.01565 0.24499 0.0
C1064 C 0.00801 0.76299 0.2457 0.0
C1065 C 0.02422 0.79348 0.26996 0.0
H1066 H 0.98365 0.73635 0.17789 0.0
C1067 C 0.03272 0.82138 0.24169 0.0
H1068 H 1.00073 0.74112 0.26715 0.0
C1069 C 0.02335 0.81876 0.19065 0.0
C1070 C 0.00446 0.7881 0.16757 0.0
H1071 H 0.04497 0.8451 0.25993 0.0
H1072 H 0.02892 0.84065 0.17049 0.0
C1073 C 0.99786 0.76027 0.19495 0.0
C1074 C 0.76768 0.76681 0.77211 0.0
C1075 C 0.75543 0.73434 0.7854 0.0
H1076 H 0.77427 0.79981 0.71241 0.0
C1077 C 0.73481 0.70976 0.75133 0.0
H1078 H 0.78419 0.7861 0.79736 0.0
C1079 C 0.72878 0.7174 0.70294 0.0
C1080 C 0.7442 0.74983 0.68715 0.0
H1081 H 0.72522 0.68455 0.76082 0.0
H1082 H 0.71449 0.69771 0.67645 0.0
C1083 C 0.76212 0.77457 0.72323 0.0
C1084 C 0.30356 0.04697 0.7447 0.0
C1085 C 0.28553 0.0195 0.71316 0.0
H1086 H 0.31635 0.06557 0.8212 0.0
C1087 C 0.2704 0.98871 0.73495 0.0
H1088 H 0.31575 0.0711 0.72897 0.0
C1089 C 0.27148 0.98558 0.78769 0.0
C1090 C 0.287 0.01325 0.81966 0.0
H1091 H 0.25671 0.96715 0.71151 0.0
H1092 H 0.25829 0.96152 0.80355 0.0
C1093 C 0.30397 0.0439 0.79756 0.0
C1094 C 0.96314 0.25208 0.74552 0.0
C1095 C 0.98774 0.26836 0.70969 0.0
H1096 H 0.95128 0.23569 0.82232 0.0
C1097 C 0.0199 0.28482 0.72642 0.0
H1098 H 0.93806 0.23938 0.73394 0.0
C1099 C 0.02739 0.28312 0.77733 0.0
C1100 C 0.00287 0.26438 0.81206 0.0
H1101 H 0.03932 0.2979 0.69979 0.0
H1102 H 0.05248 0.29492 0.78866 0.0
C1103 C 0.97065 0.24984 0.79615 0.0
C1104 C 0.86165 0.58476 0.57691 0.0
C1105 C 0.88766 0.58615 0.55 0.0
H1106 H 0.84305 0.58842 0.64948 0.0
C1107 C 0.91551 0.59249 0.57693 0.0
H1108 H 0.83998 0.58024 0.55703 0.0
C1109 C 0.91707 0.59673 0.62993 0.0
C1110 C 0.89114 0.59558 0.6568 0.0
H1111 H 0.93595 0.59384 0.55712 0.0
H1112 H 0.93865 0.60105 0.64991 0.0
C1113 C 0.86352 0.58981 0.62972 0.0
C1114 C 0.40496 0.34806 0.53665 0.0
C1115 C 0.41884 0.33207 0.51071 0.0
H1116 H 0.3942 0.36143 0.60965 0.0
C1117 C 0.42956 0.31439 0.53895 0.0
H1118 H 0.39596 0.36141 0.51586 0.0
C1119 C 0.42849 0.31444 0.59193 0.0
C1120 C 0.41621 0.33167 0.61788 0.0
H1121 H 0.43942 0.30094 0.52033 0.0
H1122 H 0.43806 0.30162 0.61275 0.0
C1123 C 0.40357 0.34777 0.59009 0.0
C1124 C 0.69414 0.15392 0.56091 0.0
C1125 C 0.68841 0.12807 0.59254 0.0
H1126 H 0.68972 0.16847 0.48575 0.0
C1127 C 0.67625 0.09692 0.57133 0.0
H1128 H 0.70328 0.17808 0.57676 0.0
C1129 C 0.6674 0.0912 0.51987 0.0
C1130 C 0.67154 0.11676 0.48875 0.0
H1131 H 0.67117 0.07658 0.59534 0.0
H1132 H 0.65626 0.06664 0.50481 0.0
C1133 C 0.6863 0.1484 0.50907 0.0
C1134 C 0.39677 0.07364 0.08741 0.0
C1135 C 0.41881 0.08484 0.12807 0.0
H1136 H 0.38691 0.08129 0.01108 0.0
C1137 C 0.44658 0.1154 0.12535 0.0
H1138 H 0.3753 0.05004 0.08879 0.0
C1139 C 0.45346 0.13345 0.0808 0.0
C1140 C 0.43281 0.12085 0.03815 0.0
H1141 H 0.46432 0.124 0.15578 0.0
H1142 H 0.47625 0.15587 0.07838 0.0
C1143 C 0.40349 0.09162 0.043 0.0
C1144 C 0.96685 0.37014 0.09697 0.0
C1145 C 0.94578 0.37614 0.12619 0.0
H1146 H 0.98011 0.36246 0.0221 0.0
C1147 C 0.921 0.37831 0.10139 0.0
H1148 H 0.98584 0.36788 0.11526 0.0
C1149 C 0.91689 0.37385 0.04859 0.0
C1150 C 0.93798 0.36794 0.01934 0.0
H1151 H 0.90397 0.38224 0.123 0.0
H1152 H 0.89752 0.37558 0.03055 0.0
C1153 C 0.96332 0.36664 0.04389 0.0
C1154 C 0.65021 0.54525 0.14465 0.0
C1155 C 0.64983 0.57434 0.14108 0.0
H1156 H 0.66115 0.51171 0.10772 0.0
C1157 C 0.66375 0.59409 0.09862 0.0
H1158 H 0.63853 0.52915 0.17622 0.0
C1159 C 0.67647 0.58411 0.05904 0.0
C1160 C 0.67492 0.55386 0.06085 0.0
H1161 H 0.66342 0.61654 0.09494 0.0
H1162 H 0.68553 0.59913 0.02561 0.0
C1163 C 0.66288 0.53519 0.10509 0.0
C1164 C 0.59748 0.93221 0.96604 0.0
C1165 C 0.57867 0.90653 -0.00103 0.0
H1166 H 0.61629 0.94602 0.89055 0.0
C1167 C 0.56791 0.87457 0.98238 0.0
H1168 H 0.60644 0.95711 0.97814 0.0
C1169 C 0.57326 0.86829 0.9322 0.0
C1170 C 0.59032 0.89388 0.89838 0.0
H1171 H 0.55352 0.85433 0.00705 0.0
H1172 H 0.56254 0.84337 0.91898 0.0
C1173 C 0.6036 0.92593 0.91627 0.0
C1174 C 0.05706 0.6614 0.9511 0.0
C1175 C 0.08645 0.67927 0.9774 0.0
H1176 H 0.03364 0.6485 0.87774 0.0
C1177 C 0.11392 0.7016 0.95052 0.0
H1178 H 0.03548 0.64432 0.97097 0.0
C1179 C 0.11267 0.70435 0.89796 0.0
C1180 C 0.08392 0.68508 0.87136 0.0
H1181 H 0.13679 0.71629 0.96981 0.0
H1182 H 0.13465 0.72012 0.87768 0.0
C1183 C 0.05589 0.66413 0.89811 0.0
C1184 C 0.33597 0.41958 0.91536 0.0
C1185 C 0.35045 0.45093 0.93668 0.0
H1186 H 0.31356 0.3898 0.84913 0.0
C1187 C 0.35744 0.47729 0.90543 0.0
H1188 H 0.32988 0.39886 0.93911 0.0
C1189 C 0.34868 0.47221 0.85394 0.0
C1190 C 0.33179 0.44058 0.83358 0.0
H1191 H 0.36835 0.50162 0.92136 0.0
H1192 H 0.35331 0.49281 0.83092 0.0
C1193 C 0.32624 0.41437 0.86426 0.0
C1194 C 0.05733 0.43121 0.42591 0.0
C1195 C 0.06741 0.41651 0.46202 0.0
H1196 H 0.05603 0.44203 0.34724 0.0
C1197 C 0.08037 0.39745 0.44497 0.0
H1198 H 0.04695 0.44582 0.43781 0.0
C1199 C 0.08515 0.39495 0.39296 0.0
C1200 C 0.07754 0.41189 0.3572 0.0
H1201 H 0.08794 0.3855 0.47189 0.0
H1202 H 0.09644 0.38116 0.38114 0.0
C1203 C 0.06257 0.42912 0.37399 0.0
C1204 C 0.63392 0.69353 0.40706 0.0
C1205 C 0.61736 0.66722 0.37278 0.0
H1206 H 0.64597 0.70916 0.48494 0.0
C1207 C 0.6029 0.63561 0.39142 0.0
H1208 H 0.64559 0.71828 0.39387 0.0
C1209 C 0.60363 0.63045 0.44363 0.0
C1210 C 0.61833 0.65682 0.4783 0.0
H1211 H 0.59031 0.61491 0.3659 0.0
H1212 H 0.59132 0.60573 0.45695 0.0
C1213 C 0.63421 0.6884 0.45932 0.0
C1214 C 0.3091 0.90681 0.43757 0.0
C1215 C 0.33335 0.91918 0.40039 0.0
H1216 H 0.2978 0.89646 0.51655 0.0
C1217 C 0.36572 0.93521 0.41601 0.0
H1218 H 0.28389 0.89449 0.42677 0.0
C1219 C 0.37364 0.93671 0.46757 0.0
C1220 C 0.34931 0.92171 0.50422 0.0
H1221 H 0.38489 0.94526 0.38823 0.0
H1222 H 0.39881 0.94788 0.47823 0.0
C1223 C 0.31701 0.9078 0.48901 0.0
loop_
_geom_bond_atom_site_label_1
_geom_bond_atom_site_label_2
_geom_bond_distance
_geom_bond_site_symmetry_2
_ccdc_geom_bond_type
Mg0 O1 2.028 . S
Mg0 O7 1.986 . S
Mg0 O9 2.114 . S
Mg0 O10 2.251 . S
Mg0 O13 2.010 . S
O1 Mg0 2.028 . S
O1 C4 1.250 . S
O2 Mg3 2.028 . S
O2 C4 1.248 . S
Mg3 O2 2.028 . S
Mg3 O8 2.032 . S
Mg3 O10 2.079 . S
C4 O1 1.250 . S
C4 O2 1.248 . S
C5 O6 1.264 . S
C5 O13 1.249 . S
O6 C5 1.264 . S
O7 Mg0 1.986 . S
O7 C11 1.246 . S
O8 Mg3 2.032 . S
O8 C11 1.259 . S
O9 Mg0 2.114 . S
O9 C12 1.252 . S
O10 Mg0 2.251 . S
O10 Mg3 2.079 . S
O10 C12 1.273 . S
C11 O7 1.246 . S
C11 O8 1.259 . S
C12 O9 1.252 . S
C12 O10 1.273 . S
O13 Mg0 2.010 . S
O13 C5 1.249 . S
Mg14 O15 2.028 . S
Mg14 O21 1.986 1_545 S
Mg14 O23 2.114 . S
Mg14 O24 2.251 . S
Mg14 O27 2.010 . S
O15 Mg14 2.028 . S
O15 C18 1.250 . S
O16 Mg17 2.028 . S
O16 C18 1.248 . S
Mg17 O16 2.028 . S
Mg17 O22 2.032 1_545 S
Mg17 O24 2.079 . S
C18 O15 1.250 . S
C18 O16 1.248 . S
C19 O20 1.264 . S
C19 O27 1.249 1_556 S
O20 C19 1.264 . S
O21 Mg14 1.986 1_565 S
O21 C25 1.246 . S
O22 Mg17 2.032 1_565 S
O22 C25 1.259 . S
O23 Mg14 2.114 . S
O23 C26 1.252 . S
O24 Mg14 2.251 . S
O24 Mg17 2.079 . S
O24 C26 1.273 . S
C25 O21 1.246 . S
C25 O22 1.259 . S
C26 O23 1.252 . S
C26 O24 1.273 . S
O27 Mg14 2.010 . S
O27 C19 1.249 1_554 S
Mg28 O29 2.039 . S
Mg28 O35 1.986 1_554 S
Mg28 O37 2.114 . S
Mg28 O38 2.251 . S
Mg28 O41 2.010 1_654 S
O29 Mg28 2.039 . S
O29 C32 1.260 . S
O30 Mg31 2.028 . S
O30 C32 1.248 . S
Mg31 O30 2.028 . S
Mg31 O36 2.032 . S
Mg31 O38 2.079 . S
C32 O29 1.260 . S
C32 O30 1.248 . S
C33 O34 1.264 . S
C33 O41 1.249 . S
O34 C33 1.264 . S
O35 Mg28 1.986 1_556 S
O35 C39 1.246 . S
O36 Mg31 2.032 . S
O36 C39 1.259 1_554 S
O37 Mg28 2.114 . S
O37 C40 1.252 . S
O38 Mg28 2.251 . S
O38 Mg31 2.079 . S
O38 C40 1.273 . S
C39 O35 1.246 . S
C39 O36 1.259 1_556 S
C40 O37 1.252 . S
C40 O38 1.273 . S
O41 Mg28 2.010 1_456 S
O41 C33 1.249 . S
Mg42 O43 2.028 . S
Mg42 O49 1.986 . S
Mg42 O51 2.114 . S
Mg42 O52 2.251 . S
Mg42 O55 2.010 . S
O43 Mg42 2.028 . S
O43 C46 1.250 . S
O44 Mg45 2.028 . S
O44 C46 1.248 . S
Mg45 O44 2.028 . S
Mg45 O50 2.032 . S
Mg45 O52 2.079 . S
C46 O43 1.250 . S
C46 O44 1.248 . S
C47 O48 1.264 . S
C47 O55 1.249 . S
O48 C47 1.264 . S
O49 Mg42 1.986 . S
O49 C53 1.246 . S
O50 Mg45 2.032 . S
O50 C53 1.259 . S
O51 Mg42 2.114 . S
O51 C54 1.252 . S
O52 Mg42 2.251 . S
O52 Mg45 2.079 . S
O52 C54 1.273 . S
C53 O49 1.246 . S
C53 O50 1.259 . S
C54 O51 1.252 . S
C54 O52 1.273 . S
O55 Mg42 2.010 . S
O55 C47 1.249 . S
Mg56 O57 2.036 . S
Mg56 O63 1.983 1_565 S
Mg56 O65 2.115 . S
Mg56 O66 2.253 1_565 S
Mg56 O69 2.008 . S
O57 Mg56 2.036 . S
O57 C60 1.250 . S
O58 Mg59 2.028 1_565 S
O58 C60 1.248 . S
Mg59 O58 2.028 1_545 S
Mg59 O64 2.032 . S
Mg59 O66 2.079 . S
C60 O57 1.250 . S
C60 O58 1.248 . S
C61 O62 1.264 . S
C61 O69 1.249 . S
O62 C61 1.264 . S
O63 Mg56 1.983 1_545 S
O63 C67 1.246 . S
O64 Mg59 2.032 . S
O64 C67 1.259 . S
O65 Mg56 2.115 . S
O65 C68 1.252 . S
O66 Mg56 2.253 1_545 S
O66 Mg59 2.079 . S
O66 C68 1.273 1_545 S
C67 O63 1.246 . S
C67 O64 1.259 . S
C68 O65 1.252 . S
C68 O66 1.273 1_565 S
O69 Mg56 2.008 . S
O69 C61 1.249 . S
Mg70 O71 2.028 . S
Mg70 O77 1.986 1_455 S
Mg70 O79 2.114 . S
Mg70 O80 2.251 . S
Mg70 O83 2.010 . S
O71 Mg70 2.028 . S
O71 C74 1.250 . S
O72 Mg73 2.028 . S
O72 C74 1.248 . S
Mg73 O72 2.028 . S
Mg73 O78 2.032 1_455 S
Mg73 O80 2.079 . S
C74 O71 1.250 . S
C74 O72 1.248 . S
C75 O76 1.264 . S
C75 O83 1.249 . S
O76 C75 1.264 . S
O77 Mg70 1.986 1_655 S
O77 C81 1.246 . S
O78 Mg73 2.032 1_655 S
O78 C81 1.259 . S
O79 Mg70 2.114 . S
O79 C82 1.252 . S
O80 Mg70 2.251 . S
O80 Mg73 2.079 . S
O80 C82 1.273 . S
C81 O77 1.246 . S
C81 O78 1.259 . S
C82 O79 1.252 . S
C82 O80 1.273 . S
O83 Mg70 2.010 . S
O83 C75 1.249 . S
Mg84 O85 2.028 . S
Mg84 O91 1.986 . S
Mg84 O93 2.114 . S
Mg84 O94 2.251 1_556 S
Mg84 O97 2.010 . S
O85 Mg84 2.028 . S
O85 C88 1.250 1_556 S
O86 Mg87 2.028 . S
O86 C88 1.248 . S
Mg87 O86 2.028 . S
Mg87 O92 2.032 . S
Mg87 O94 2.079 . S
C88 O85 1.250 1_554 S
C88 O86 1.248 . S
C89 O90 1.264 . S
C89 O97 1.249 . S
O90 C89 1.264 . S
O91 Mg84 1.986 . S
O91 C95 1.246 1_556 S
O92 Mg87 2.032 . S
O92 C95 1.259 . S
O93 Mg84 2.114 . S
O93 C96 1.252 . S
O94 Mg84 2.251 1_554 S
O94 Mg87 2.079 . S
O94 C96 1.273 1_554 S
C95 O91 1.246 1_554 S
C95 O92 1.259 . S
C96 O93 1.252 . S
C96 O94 1.273 1_556 S
O97 Mg84 2.010 . S
O97 C89 1.249 . S
Mg98 O99 2.028 1_565 S
Mg98 O105 1.986 . S
Mg98 O107 2.114 . S
Mg98 O108 2.251 1_556 S
Mg98 O111 2.010 . S
O99 Mg98 2.028 1_545 S
O99 C102 1.250 1_556 S
O100 Mg101 2.028 1_545 S
O100 C102 1.248 . S
Mg101 O100 2.028 1_565 S
Mg101 O106 2.032 . S
Mg101 O108 2.079 . S
C102 O99 1.250 1_554 S
C102 O100 1.248 . S
C103 O104 1.264 . S
C103 O111 1.249 . S
O104 C103 1.264 . S
O105 Mg98 1.986 . S
O105 C109 1.246 1_556 S
O106 Mg101 2.032 . S
O106 C109 1.259 . S
O107 Mg98 2.114 . S
O107 C110 1.252 . S
O108 Mg98 2.251 1_554 S
O108 Mg101 2.079 . S
O108 C110 1.273 1_554 S
C109 O105 1.246 1_554 S
C109 O106 1.259 . S
C110 O107 1.252 . S
C110 O108 1.273 1_556 S
O111 Mg98 2.010 . S
O111 C103 1.249 . S
Mg112 O113 2.028 1_455 S
Mg112 O119 1.986 . S
Mg112 O121 2.114 . S
Mg112 O122 2.251 1_556 S
Mg112 O125 2.010 . S
O113 Mg112 2.028 1_655 S
O113 C116 1.250 1_556 S
O114 Mg115 2.028 1_655 S
O114 C116 1.248 . S
Mg115 O114 2.028 1_455 S
Mg115 O120 2.032 . S
Mg115 O122 2.079 . S
C116 O113 1.250 1_554 S
C116 O114 1.248 . S
C117 O118 1.264 . S
C117 O125 1.249 . S
O118 C117 1.264 . S
O119 Mg112 1.986 . S
O119 C123 1.246 1_556 S
O120 Mg115 2.032 . S
O120 C123 1.259 . S
O121 Mg112 2.114 . S
O121 C124 1.252 . S
O122 Mg112 2.251 1_554 S
O122 Mg115 2.079 . S
O122 C124 1.273 1_554 S
C123 O119 1.246 1_554 S
C123 O120 1.259 . S
C124 O121 1.252 . S
C124 O122 1.273 1_556 S
O125 Mg112 2.010 . S
O125 C117 1.249 . S
Mg126 O127 2.028 . S
Mg126 O133 1.986 . S
Mg126 O135 2.114 . S
Mg126 O136 2.251 . S
Mg126 O139 2.010 . S
O127 Mg126 2.028 . S
O127 C130 1.250 . S
O128 Mg129 2.028 . S
O128 C130 1.248 . S
Mg129 O128 2.028 . S
Mg129 O134 2.032 . S
Mg129 O136 2.079 . S
C130 O127 1.250 . S
C130 O128 1.248 . S
C131 O132 1.264 . S
C131 O139 1.249 . S
O132 C131 1.264 . S
O133 Mg126 1.986 . S
O133 C137 1.246 . S
O134 Mg129 2.032 . S
O134 C137 1.259 . S
O135 Mg126 2.114 . S
O135 C138 1.252 . S
O136 Mg126 2.251 . S
O136 Mg129 2.079 . S
O136 C138 1.273 . S
C137 O133 1.246 . S
C137 O134 1.259 . S
C138 O135 1.252 . S
C138 O136 1.273 . S
O139 Mg126 2.010 . S
O139 C131 1.249 . S
Mg140 O141 2.028 1_545 S
Mg140 O147 1.986 . S
Mg140 O149 2.114 . S
Mg140 O150 2.251 . S
Mg140 O153 2.010 . S
O141 Mg140 2.028 1_565 S
O141 C144 1.250 . S
O142 Mg143 2.028 1_565 S
O142 C144 1.248 . S
Mg143 O142 2.028 1_545 S
Mg143 O148 2.032 . S
Mg143 O150 2.079 . S
C144 O141 1.250 . S
C144 O142 1.248 . S
C145 O146 1.264 . S
C145 O153 1.249 . S
O146 C145 1.264 . S
O147 Mg140 1.986 . S
O147 C151 1.246 . S
O148 Mg143 2.032 . S
O148 C151 1.259 . S
O149 Mg140 2.114 . S
O149 C152 1.252 . S
O150 Mg140 2.251 . S
O150 Mg143 2.079 . S
O150 C152 1.273 . S
C151 O147 1.246 . S
C151 O148 1.259 . S
C152 O149 1.252 . S
C152 O150 1.273 . S
O153 Mg140 2.010 . S
O153 C145 1.249 . S
Mg154 O155 2.028 1_655 S
Mg154 O161 1.986 . S
Mg154 O163 2.114 . S
Mg154 O164 2.251 . S
Mg154 O167 2.010 . S
O155 Mg154 2.028 1_455 S
O155 C158 1.250 . S
O156 Mg157 2.028 1_455 S
O156 C158 1.248 . S
Mg157 O156 2.028 1_655 S
Mg157 O162 2.032 . S
Mg157 O164 2.079 . S
C158 O155 1.250 . S
C158 O156 1.248 . S
C159 O160 1.264 . S
C159 O167 1.249 . S
O160 C159 1.264 . S
O161 Mg154 1.986 . S
O161 C165 1.246 . S
O162 Mg157 2.032 . S
O162 C165 1.259 . S
O163 Mg154 2.114 . S
O163 C166 1.252 . S
O164 Mg154 2.251 . S
O164 Mg157 2.079 . S
O164 C166 1.273 . S
C165 O161 1.246 . S
C165 O162 1.259 . S
C166 O163 1.252 . S
C166 O164 1.273 . S
O167 Mg154 2.010 . S
O167 C159 1.249 . S
Mg168 O169 2.028 . S
Mg168 O175 1.986 . S
Mg168 O177 2.114 . S
Mg168 O178 2.251 . S
Mg168 O181 2.010 . S
O169 Mg168 2.028 . S
O169 C172 1.250 . S
O170 Mg171 2.028 . S
O170 C172 1.248 . S
Mg171 O170 2.028 . S
Mg171 O176 2.032 . S
Mg171 O178 2.079 . S
C172 O169 1.250 . S
C172 O170 1.248 . S
C173 O174 1.264 . S
C173 O181 1.249 . S
O174 C173 1.264 . S
O175 Mg168 1.986 . S
O175 C179 1.246 . S
O176 Mg171 2.032 . S
O176 C179 1.259 . S
O177 Mg168 2.114 . S
O177 C180 1.252 . S
O178 Mg168 2.251 . S
O178 Mg171 2.079 . S
O178 C180 1.273 . S
C179 O175 1.246 . S
C179 O176 1.259 . S
C180 O177 1.252 . S
C180 O178 1.273 . S
O181 Mg168 2.010 . S
O181 C173 1.249 . S
Mg182 O183 2.028 . S
Mg182 O189 1.986 . S
Mg182 O191 2.114 . S
Mg182 O192 2.251 . S
Mg182 O195 2.010 . S
O183 Mg182 2.028 . S
O183 C186 1.250 . S
O184 Mg185 2.028 . S
O184 C186 1.248 . S
Mg185 O184 2.028 . S
Mg185 O190 2.032 . S
Mg185 O192 2.079 . S
C186 O183 1.250 . S
C186 O184 1.248 . S
C187 O188 1.264 . S
C187 O195 1.249 . S
O188 C187 1.264 . S
O189 Mg182 1.986 . S
O189 C193 1.246 . S
O190 Mg185 2.032 . S
O190 C193 1.259 . S
O191 Mg182 2.114 . S
O191 C194 1.252 . S
O192 Mg182 2.251 . S
O192 Mg185 2.079 . S
O192 C194 1.273 . S
C193 O189 1.246 . S
C193 O190 1.259 . S
C194 O191 1.252 . S
C194 O192 1.273 . S
O195 Mg182 2.010 . S
O195 C187 1.249 . S
Mg196 O197 2.028 . S
Mg196 O203 1.986 . S
Mg196 O205 2.114 . S
Mg196 O206 2.251 . S
Mg196 O209 2.010 . S
O197 Mg196 2.028 . S
O197 C200 1.250 . S
O198 Mg199 2.028 . S
O198 C200 1.248 . S
Mg199 O198 2.028 . S
Mg199 O204 2.032 . S
Mg199 O206 2.079 . S
C200 O197 1.250 . S
C200 O198 1.248 . S
C201 O202 1.264 . S
C201 O209 1.249 . S
O202 C201 1.264 . S
O203 Mg196 1.986 . S
O203 C207 1.246 . S
O204 Mg199 2.032 . S
O204 C207 1.259 . S
O205 Mg196 2.114 . S
O205 C208 1.252 . S
O206 Mg196 2.251 . S
O206 Mg199 2.079 . S
O206 C208 1.273 . S
C207 O203 1.246 . S
C207 O204 1.259 . S
C208 O205 1.252 . S
C208 O206 1.273 . S
O209 Mg196 2.010 . S
O209 C201 1.249 . S
Mg210 O211 2.028 . S
Mg210 O217 1.986 . S
Mg210 O219 2.114 . S
Mg210 O220 2.251 . S
Mg210 O223 2.010 . S
O211 Mg210 2.028 . S
O211 C214 1.250 . S
O212 Mg213 2.028 . S
O212 C214 1.248 . S
Mg213 O212 2.028 . S
Mg213 O218 2.032 . S
Mg213 O220 2.079 . S
C214 O211 1.250 . S
C214 O212 1.248 . S
C215 O216 1.264 . S
C215 O223 1.249 . S
O216 C215 1.264 . S
O217 Mg210 1.986 . S
O217 C221 1.246 . S
O218 Mg213 2.032 . S
O218 C221 1.259 . S
O219 Mg210 2.114 . S
O219 C222 1.252 . S
O220 Mg210 2.251 . S
O220 Mg213 2.079 . S
O220 C222 1.273 . S
C221 O217 1.246 . S
C221 O218 1.259 . S
C222 O219 1.252 . S
C222 O220 1.273 . S
O223 Mg210 2.010 . S
O223 C215 1.249 . S
Mg224 O225 2.028 . S
Mg224 O231 1.986 . S
Mg224 O233 2.114 . S
Mg224 O234 2.251 . S
Mg224 O237 2.010 . S
O225 Mg224 2.028 . S
O225 C228 1.250 . S
O226 Mg227 2.028 . S
O226 C228 1.248 . S
Mg227 O226 2.028 . S
Mg227 O232 2.032 . S
Mg227 O234 2.079 . S
C228 O225 1.250 . S
C228 O226 1.248 . S
C229 O230 1.264 . S
C229 O237 1.249 . S
O230 C229 1.264 . S
O231 Mg224 1.986 . S
O231 C235 1.246 . S
O232 Mg227 2.032 . S
O232 C235 1.259 . S
O233 Mg224 2.114 . S
O233 C236 1.252 . S
O234 Mg224 2.251 . S
O234 Mg227 2.079 . S
O234 C236 1.273 . S
C235 O231 1.246 . S
C235 O232 1.259 . S
C236 O233 1.252 . S
C236 O234 1.273 . S
O237 Mg224 2.010 . S
O237 C229 1.249 . S
Mg238 O239 2.028 . S
Mg238 O245 1.986 . S
Mg238 O247 2.114 . S
Mg238 O248 2.251 . S
Mg238 O251 2.010 . S
O239 Mg238 2.028 . S
O239 C242 1.250 . S
O240 Mg241 2.028 . S
O240 C242 1.248 . S
Mg241 O240 2.028 . S
Mg241 O246 2.032 . S
Mg241 O248 2.079 . S
C242 O239 1.250 . S
C242 O240 1.248 . S
C243 O244 1.264 . S
C243 O251 1.249 . S
O244 C243 1.264 . S
O245 Mg238 1.986 . S
O245 C249 1.246 . S
O246 Mg241 2.032 . S
O246 C249 1.259 . S
O247 Mg238 2.114 . S
O247 C250 1.252 . S
O248 Mg238 2.251 . S
O248 Mg241 2.079 . S
O248 C250 1.273 . S
C249 O245 1.246 . S
C249 O246 1.259 . S
C250 O247 1.252 . S
C250 O248 1.273 . S
O251 Mg238 2.010 . S
O251 C243 1.249 . S
Mg252 O253 2.028 . S
Mg252 O259 1.986 . S
Mg252 O261 2.114 . S
Mg252 O262 2.251 . S
Mg252 O265 2.010 . S
O253 Mg252 2.028 . S
O253 C256 1.250 . S
O254 Mg255 2.028 . S
O254 C256 1.248 . S
Mg255 O254 2.028 . S
Mg255 O260 2.032 . S
Mg255 O262 2.079 . S
C256 O253 1.250 . S
C256 O254 1.248 . S
C257 O258 1.264 . S
C257 O265 1.249 . S
O258 C257 1.264 . S
O259 Mg252 1.986 . S
O259 C263 1.246 . S
O260 Mg255 2.032 . S
O260 C263 1.259 . S
O261 Mg252 2.114 . S
O261 C264 1.252 . S
O262 Mg252 2.251 . S
O262 Mg255 2.079 . S
O262 C264 1.273 . S
C263 O259 1.246 . S
C263 O260 1.259 . S
C264 O261 1.252 . S
C264 O262 1.273 . S
O265 Mg252 2.010 . S
O265 C257 1.249 . S
Mg266 O267 2.028 . S
Mg266 O273 1.986 . S
Mg266 O275 2.114 . S
Mg266 O276 2.251 . S
Mg266 O279 2.010 . S
O267 Mg266 2.028 . S
O267 C270 1.250 . S
O268 Mg269 2.028 . S
O268 C270 1.248 . S
Mg269 O268 2.028 . S
Mg269 O274 2.032 . S
Mg269 O276 2.079 . S
C270 O267 1.250 . S
C270 O268 1.248 . S
C271 O272 1.264 . S
C271 O279 1.249 . S
O272 C271 1.264 . S
O273 Mg266 1.986 . S
O273 C277 1.246 . S
O274 Mg269 2.032 . S
O274 C277 1.259 . S
O275 Mg266 2.114 . S
O275 C278 1.252 . S
O276 Mg266 2.251 . S
O276 Mg269 2.079 . S
O276 C278 1.273 . S
C277 O273 1.246 . S
C277 O274 1.259 . S
C278 O275 1.252 . S
C278 O276 1.273 . S
O279 Mg266 2.010 . S
O279 C271 1.249 . S
Mg280 O281 2.028 . S
Mg280 O287 1.986 . S
Mg280 O289 2.114 . S
Mg280 O290 2.251 . S
Mg280 O293 2.010 . S
O281 Mg280 2.028 . S
O281 C284 1.250 . S
O282 Mg283 2.028 . S
O282 C284 1.248 . S
Mg283 O282 2.028 . S
Mg283 O288 2.032 . S
Mg283 O290 2.079 . S
C284 O281 1.250 . S
C284 O282 1.248 . S
C285 O286 1.264 . S
C285 O293 1.249 . S
O286 C285 1.264 . S
O287 Mg280 1.986 . S
O287 C291 1.246 . S
O288 Mg283 2.032 . S
O288 C291 1.259 . S
O289 Mg280 2.114 . S
O289 C292 1.252 . S
O290 Mg280 2.251 . S
O290 Mg283 2.079 . S
O290 C292 1.273 . S
C291 O287 1.246 . S
C291 O288 1.259 . S
C292 O289 1.252 . S
C292 O290 1.273 . S
O293 Mg280 2.010 . S
O293 C285 1.249 . S
Mg294 O295 2.028 . S
Mg294 O301 1.986 . S
Mg294 O303 2.114 . S
Mg294 O304 2.251 . S
Mg294 O307 2.010 . S
O295 Mg294 2.028 . S
O295 C298 1.250 . S
O296 Mg297 2.028 . S
O296 C298 1.248 . S
Mg297 O296 2.028 . S
Mg297 O302 2.032 . S
Mg297 O304 2.079 . S
C298 O295 1.250 . S
C298 O296 1.248 . S
C299 O300 1.264 1_556 S
C299 O307 1.249 . S
O300 C299 1.264 1_554 S
O301 Mg294 1.986 . S
O301 C305 1.246 . S
O302 Mg297 2.032 . S
O302 C305 1.259 . S
O303 Mg294 2.114 . S
O303 C306 1.252 . S
O304 Mg294 2.251 . S
O304 Mg297 2.079 . S
O304 C306 1.273 . S
C305 O301 1.246 . S
C305 O302 1.259 . S
C306 O303 1.252 . S
C306 O304 1.273 . S
O307 Mg294 2.010 . S
O307 C299 1.249 . S
Mg308 O309 2.028 . S
Mg308 O315 1.986 . S
Mg308 O317 2.114 . S
Mg308 O318 2.251 . S
Mg308 O321 2.010 . S
O309 Mg308 2.028 . S
O309 C312 1.250 . S
O310 Mg311 2.028 . S
O310 C312 1.248 . S
Mg311 O310 2.028 . S
Mg311 O316 2.032 . S
Mg311 O318 2.079 . S
C312 O309 1.250 . S
C312 O310 1.248 . S
C313 O314 1.264 1_556 S
C313 O321 1.249 . S
O314 C313 1.264 1_554 S
O315 Mg308 1.986 . S
O315 C319 1.246 . S
O316 Mg311 2.032 . S
O316 C319 1.259 . S
O317 Mg308 2.114 . S
O317 C320 1.252 . S
O318 Mg308 2.251 . S
O318 Mg311 2.079 . S
O318 C320 1.273 . S
C319 O315 1.246 . S
C319 O316 1.259 . S
C320 O317 1.252 . S
C320 O318 1.273 . S
O321 Mg308 2.010 . S
O321 C313 1.249 . S
Mg322 O323 2.028 . S
Mg322 O329 1.986 . S
Mg322 O331 2.114 . S
Mg322 O332 2.251 . S
Mg322 O335 2.010 . S
O323 Mg322 2.028 . S
O323 C326 1.250 . S
O324 Mg325 2.028 . S
O324 C326 1.248 . S
Mg325 O324 2.028 . S
Mg325 O330 2.032 . S
Mg325 O332 2.079 . S
C326 O323 1.250 . S
C326 O324 1.248 . S
C327 O328 1.264 . S
C327 O335 1.249 1_554 S
O328 C327 1.264 . S
O329 Mg322 1.986 . S
O329 C333 1.246 . S
O330 Mg325 2.032 . S
O330 C333 1.259 . S
O331 Mg322 2.114 . S
O331 C334 1.252 . S
O332 Mg322 2.251 . S
O332 Mg325 2.079 . S
O332 C334 1.273 . S
C333 O329 1.246 . S
C333 O330 1.259 . S
C334 O331 1.252 . S
C334 O332 1.273 . S
O335 Mg322 2.010 . S
O335 C327 1.249 1_556 S
Mg336 O337 2.028 . S
Mg336 O343 1.986 . S
Mg336 O345 2.114 . S
Mg336 O346 2.251 . S
Mg336 O349 2.010 . S
O337 Mg336 2.028 . S
O337 C340 1.250 . S
O338 Mg339 2.028 . S
O338 C340 1.248 . S
Mg339 O338 2.028 . S
Mg339 O344 2.032 . S
Mg339 O346 2.079 . S
C340 O337 1.250 . S
C340 O338 1.248 . S
C341 O342 1.264 . S
C341 O349 1.249 . S
O342 C341 1.264 . S
O343 Mg336 1.986 . S
O343 C347 1.246 . S
O344 Mg339 2.032 . S
O344 C347 1.259 . S
O345 Mg336 2.114 . S
O345 C348 1.252 . S
O346 Mg336 2.251 . S
O346 Mg339 2.079 . S
O346 C348 1.273 . S
C347 O343 1.246 . S
C347 O344 1.259 . S
C348 O345 1.252 . S
C348 O346 1.273 . S
O349 Mg336 2.010 . S
O349 C341 1.249 . S
Mg350 O351 2.028 . S
Mg350 O357 1.986 . S
Mg350 O359 2.114 . S
Mg350 O360 2.251 . S
Mg350 O363 2.010 . S
O351 Mg350 2.028 . S
O351 C354 1.250 . S
O352 Mg353 2.028 . S
O352 C354 1.248 . S
Mg353 O352 2.028 . S
Mg353 O358 2.032 . S
Mg353 O360 2.079 . S
C354 O351 1.250 . S
C354 O352 1.248 . S
C355 O356 1.264 . S
C355 O363 1.249 . S
O356 C355 1.264 . S
O357 Mg350 1.986 . S
O357 C361 1.246 . S
O358 Mg353 2.032 . S
O358 C361 1.259 . S
O359 Mg350 2.114 . S
O359 C362 1.252 . S
O360 Mg350 2.251 . S
O360 Mg353 2.079 . S
O360 C362 1.273 . S
C361 O357 1.246 . S
C361 O358 1.259 . S
C362 O359 1.252 . S
C362 O360 1.273 . S
O363 Mg350 2.010 . S
O363 C355 1.249 . S
Mg364 O365 2.028 . S
Mg364 O371 1.986 . S
Mg364 O373 2.114 . S
Mg364 O374 2.251 . S
Mg364 O377 2.010 . S
O365 Mg364 2.028 . S
O365 C368 1.250 . S
O366 Mg367 2.028 . S
O366 C368 1.248 . S
Mg367 O366 2.028 . S
Mg367 O372 2.032 . S
Mg367 O374 2.079 . S
C368 O365 1.250 . S
C368 O366 1.248 . S
C369 O370 1.264 . S
C369 O377 1.249 . S
O370 C369 1.264 . S
O371 Mg364 1.986 . S
O371 C375 1.246 . S
O372 Mg367 2.032 . S
O372 C375 1.259 . S
O373 Mg364 2.114 . S
O373 C376 1.252 . S
O374 Mg364 2.251 . S
O374 Mg367 2.079 . S
O374 C376 1.273 . S
C375 O371 1.246 . S
C375 O372 1.259 . S
C376 O373 1.252 . S
C376 O374 1.273 . S
O377 Mg364 2.010 . S
O377 C369 1.249 . S
Mg378 O379 2.028 . S
Mg378 O385 1.986 . S
Mg378 O387 2.114 . S
Mg378 O388 2.251 . S
Mg378 O391 2.010 . S
O379 Mg378 2.028 . S
O379 C382 1.250 . S
O380 Mg381 2.028 . S
O380 C382 1.248 . S
Mg381 O380 2.028 . S
Mg381 O386 2.032 . S
Mg381 O388 2.079 . S
C382 O379 1.250 . S
C382 O380 1.248 . S
C383 O384 1.264 . S
C383 O391 1.249 . S
O384 C383 1.264 . S
O385 Mg378 1.986 . S
O385 C389 1.246 . S
O386 Mg381 2.032 . S
O386 C389 1.259 . S
O387 Mg378 2.114 . S
O387 C390 1.252 . S
O388 Mg378 2.251 . S
O388 Mg381 2.079 . S
O388 C390 1.273 . S
C389 O385 1.246 . S
C389 O386 1.259 . S
C390 O387 1.252 . S
C390 O388 1.273 . S
O391 Mg378 2.010 . S
O391 C383 1.249 . S
Mg392 O393 2.028 . S
Mg392 O399 1.986 . S
Mg392 O401 2.114 . S
Mg392 O402 2.251 . S
Mg392 O405 2.010 . S
O393 Mg392 2.028 . S
O393 C396 1.250 . S
O394 Mg395 2.028 . S
O394 C396 1.248 . S
Mg395 O394 2.028 . S
Mg395 O400 2.032 . S
Mg395 O402 2.079 . S
C396 O393 1.250 . S
C396 O394 1.248 . S
C397 O398 1.264 . S
C397 O405 1.249 . S
O398 C397 1.264 . S
O399 Mg392 1.986 . S
O399 C403 1.246 . S
O400 Mg395 2.032 . S
O400 C403 1.259 . S
O401 Mg392 2.114 . S
O401 C404 1.252 . S
O402 Mg392 2.251 . S
O402 Mg395 2.079 . S
O402 C404 1.273 . S
C403 O399 1.246 . S
C403 O400 1.259 . S
C404 O401 1.252 . S
C404 O402 1.273 . S
O405 Mg392 2.010 . S
O405 C397 1.249 . S
Mg406 O407 2.028 . S
Mg406 O413 1.986 . S
Mg406 O415 2.114 . S
Mg406 O416 2.251 . S
Mg406 O419 2.010 . S
O407 Mg406 2.028 . S
O407 C410 1.250 . S
O408 Mg409 2.028 . S
O408 C410 1.248 . S
Mg409 O408 2.028 . S
Mg409 O414 2.032 . S
Mg409 O416 2.079 . S
C410 O407 1.250 . S
C410 O408 1.248 . S
C411 O412 1.264 . S
C411 O419 1.249 . S
O412 C411 1.264 . S
O413 Mg406 1.986 . S
O413 C417 1.246 . S
O414 Mg409 2.032 . S
O414 C417 1.259 . S
O415 Mg406 2.114 . S
O415 C418 1.252 . S
O416 Mg406 2.251 . S
O416 Mg409 2.079 . S
O416 C418 1.273 . S
C417 O413 1.246 . S
C417 O414 1.259 . S
C418 O415 1.252 . S
C418 O416 1.273 . S
O419 Mg406 2.010 . S
O419 C411 1.249 . S
Mg420 O421 2.028 . S
Mg420 O427 1.986 . S
Mg420 O429 2.114 . S
Mg420 O430 2.251 . S
Mg420 O433 2.010 . S
O421 Mg420 2.028 . S
O421 C424 1.250 . S
O422 Mg423 2.028 . S
O422 C424 1.248 . S
Mg423 O422 2.028 . S
Mg423 O428 2.032 . S
Mg423 O430 2.079 . S
C424 O421 1.250 . S
C424 O422 1.248 . S
C425 O426 1.264 . S
C425 O433 1.249 . S
O426 C425 1.264 . S
O427 Mg420 1.986 . S
O427 C431 1.246 . S
O428 Mg423 2.032 . S
O428 C431 1.259 . S
O429 Mg420 2.114 . S
O429 C432 1.252 . S
O430 Mg420 2.251 . S
O430 Mg423 2.079 . S
O430 C432 1.273 . S
C431 O427 1.246 . S
C431 O428 1.259 . S
C432 O429 1.252 . S
C432 O430 1.273 . S
O433 Mg420 2.010 . S
O433 C425 1.249 . S
Mg434 O435 2.028 . S
Mg434 O441 1.986 . S
Mg434 O443 2.114 . S
Mg434 O444 2.251 . S
Mg434 O447 2.010 . S
O435 Mg434 2.028 . S
O435 C438 1.250 . S
O436 Mg437 2.028 . S
O436 C438 1.248 . S
Mg437 O436 2.028 . S
Mg437 O442 2.032 . S
Mg437 O444 2.079 . S
C438 O435 1.250 . S
C438 O436 1.248 . S
C439 O440 1.264 . S
C439 O447 1.249 . S
O440 C439 1.264 . S
O441 Mg434 1.986 . S
O441 C445 1.246 . S
O442 Mg437 2.032 . S
O442 C445 1.259 . S
O443 Mg434 2.114 . S
O443 C446 1.252 . S
O444 Mg434 2.251 . S
O444 Mg437 2.079 . S
O444 C446 1.273 . S
C445 O441 1.246 . S
C445 O442 1.259 . S
C446 O443 1.252 . S
C446 O444 1.273 . S
O447 Mg434 2.010 . S
O447 C439 1.249 . S
Mg448 O449 2.028 . S
Mg448 O455 1.986 . S
Mg448 O457 2.114 . S
Mg448 O458 2.251 . S
Mg448 O461 2.010 . S
O449 Mg448 2.028 . S
O449 C452 1.250 . S
O450 Mg451 2.028 . S
O450 C452 1.248 . S
Mg451 O450 2.028 . S
Mg451 O456 2.032 . S
Mg451 O458 2.079 . S
C452 O449 1.250 . S
C452 O450 1.248 . S
C453 O454 1.264 . S
C453 O461 1.249 . S
O454 C453 1.264 . S
O455 Mg448 1.986 . S
O455 C459 1.246 . S
O456 Mg451 2.032 . S
O456 C459 1.259 . S
O457 Mg448 2.114 . S
O457 C460 1.252 . S
O458 Mg448 2.251 . S
O458 Mg451 2.079 . S
O458 C460 1.273 . S
C459 O455 1.246 . S
C459 O456 1.259 . S
C460 O457 1.252 . S
C460 O458 1.273 . S
O461 Mg448 2.010 . S
O461 C453 1.249 . S
Mg462 O463 2.028 . S
Mg462 O469 1.986 . S
Mg462 O471 2.114 . S
Mg462 O472 2.251 . S
Mg462 O475 2.010 . S
O463 Mg462 2.028 . S
O463 C466 1.250 . S
O464 Mg465 2.028 . S
O464 C466 1.248 . S
Mg465 O464 2.028 . S
Mg465 O470 2.032 . S
Mg465 O472 2.079 . S
C466 O463 1.250 . S
C466 O464 1.248 . S
C467 O468 1.264 . S
C467 O475 1.249 . S
O468 C467 1.264 . S
O469 Mg462 1.986 . S
O469 C473 1.246 . S
O470 Mg465 2.032 . S
O470 C473 1.259 . S
O471 Mg462 2.114 . S
O471 C474 1.252 . S
O472 Mg462 2.251 . S
O472 Mg465 2.079 . S
O472 C474 1.273 . S
C473 O469 1.246 . S
C473 O470 1.259 . S
C474 O471 1.252 . S
C474 O472 1.273 . S
O475 Mg462 2.010 . S
O475 C467 1.249 . S
Mg476 O477 2.028 . S
Mg476 O483 1.986 . S
Mg476 O485 2.114 . S
Mg476 O486 2.251 . S
Mg476 O489 2.010 . S
O477 Mg476 2.028 . S
O477 C480 1.250 . S
O478 Mg479 2.028 . S
O478 C480 1.248 . S
Mg479 O478 2.028 . S
Mg479 O484 2.032 . S
Mg479 O486 2.079 . S
C480 O477 1.250 . S
C480 O478 1.248 . S
C481 O482 1.264 . S
C481 O489 1.249 . S
O482 C481 1.264 . S
O483 Mg476 1.986 . S
O483 C487 1.246 . S
O484 Mg479 2.032 . S
O484 C487 1.259 . S
O485 Mg476 2.114 . S
O485 C488 1.252 . S
O486 Mg476 2.251 . S
O486 Mg479 2.079 . S
O486 C488 1.273 . S
C487 O483 1.246 . S
C487 O484 1.259 . S
C488 O485 1.252 . S
C488 O486 1.273 . S
O489 Mg476 2.010 . S
O489 C481 1.249 . S
Mg490 O491 2.028 . S
Mg490 O497 1.986 . S
Mg490 O499 2.114 . S
Mg490 O500 2.251 . S
Mg490 O503 2.010 . S
O491 Mg490 2.028 . S
O491 C494 1.250 . S
O492 Mg493 2.028 . S
O492 C494 1.248 . S
Mg493 O492 2.028 . S
Mg493 O498 2.032 . S
Mg493 O500 2.079 . S
C494 O491 1.250 . S
C494 O492 1.248 . S
C495 O496 1.264 . S
C495 O503 1.249 . S
O496 C495 1.264 . S
O497 Mg490 1.986 . S
O497 C501 1.246 . S
O498 Mg493 2.032 . S
O498 C501 1.259 . S
O499 Mg490 2.114 . S
O499 C502 1.252 . S
O500 Mg490 2.251 . S
O500 Mg493 2.079 . S
O500 C502 1.273 . S
C501 O497 1.246 . S
C501 O498 1.259 . S
C502 O499 1.252 . S
C502 O500 1.273 . S
O503 Mg490 2.010 . S
O503 C495 1.249 . S
C504 C505 1.387 . S
C504 H508 0.950 . S
C504 C513 1.390 . S
C505 C504 1.387 . S
C505 C507 1.387 . S
H506 C513 0.950 . S
C507 C505 1.387 . S
C507 C509 1.390 . S
C507 H511 0.950 . S
H508 C504 0.950 . S
C509 C507 1.390 . S
C509 C510 1.387 . S
C509 H512 0.950 . S
C510 C509 1.387 . S
C510 C513 1.387 . S
H511 C507 0.950 . S
H512 C509 0.950 . S
C513 C504 1.390 . S
C513 H506 0.950 . S
C513 C510 1.387 . S
C514 C515 1.387 . S
C514 H518 0.950 . S
C514 C523 1.390 . S
C515 C514 1.387 . S
C515 C517 1.387 . S
H516 C523 0.950 . S
C517 C515 1.387 . S
C517 C519 1.390 . S
C517 H521 0.950 . S
H518 C514 0.950 . S
C519 C517 1.390 . S
C519 C520 1.387 . S
C519 H522 0.950 . S
C520 C519 1.387 . S
C520 C523 1.387 . S
H521 C517 0.950 . S
H522 C519 0.950 . S
C523 C514 1.390 . S
C523 H516 0.950 . S
C523 C520 1.387 . S
C524 C525 1.387 . S
C524 H528 0.950 . S
C524 C533 1.390 . S
C525 C524 1.387 . S
C525 C527 1.387 . S
H526 C533 0.950 . S
C527 C525 1.387 . S
C527 C529 1.390 . S
C527 H531 0.940 1_655 S
H528 C524 0.950 . S
C529 C527 1.390 . S
C529 C530 1.387 . S
C529 H532 0.950 . S
C530 C529 1.387 . S
C530 C533 1.387 . S
H531 C527 0.940 1_455 S
H532 C529 0.950 . S
C533 C524 1.390 . S
C533 H526 0.950 . S
C533 C530 1.387 . S
C534 C535 1.387 . S
C534 H538 0.950 . S
C534 C543 1.390 . S
C535 C534 1.387 . S
C535 C537 1.387 . S
H536 C543 0.950 . S
C537 C535 1.387 . S
C537 C539 1.390 . S
C537 H541 0.950 . S
H538 C534 0.950 . S
C539 C537 1.390 . S
C539 C540 1.387 . S
C539 H542 0.950 . S
C540 C539 1.387 . S
C540 C543 1.387 . S
H541 C537 0.950 . S
H542 C539 0.950 . S
C543 C534 1.390 . S
C543 H536 0.950 . S
C543 C540 1.387 . S
C544 C545 1.387 . S
C544 H548 0.950 . S
C544 C553 1.390 . S
C545 C544 1.387 . S
C545 C547 1.387 . S
H546 C553 0.950 . S
C547 C545 1.387 . S
C547 C549 1.390 . S
C547 H551 0.950 . S
H548 C544 0.950 . S
C549 C547 1.390 . S
C549 C550 1.387 . S
C549 H552 0.950 1_565 S
C550 C549 1.387 . S
C550 C553 1.387 . S
H551 C547 0.950 . S
H552 C549 0.950 1_545 S
C553 C544 1.390 . S
C553 H546 0.950 . S
C553 C550 1.387 . S
C554 C555 1.387 . S
C554 H558 0.950 . S
C554 C563 1.390 . S
C555 C554 1.387 . S
C555 C557 1.387 . S
H556 C563 0.950 . S
C557 C555 1.387 . S
C557 C559 1.390 . S
C557 H561 0.950 . S
H558 C554 0.950 . S
C559 C557 1.390 . S
C559 C560 1.387 . S
C559 H562 0.950 . S
C560 C559 1.387 . S
C560 C563 1.387 . S
H561 C557 0.950 . S
H562 C559 0.950 . S
C563 C554 1.390 . S
C563 H556 0.950 . S
C563 C560 1.387 . S
C564 C565 1.387 . S
C564 H568 0.950 . S
C564 C573 1.390 . S
C565 C564 1.387 . S
C565 C567 1.387 . S
H566 C573 0.950 . S
C567 C565 1.387 . S
C567 C569 1.390 . S
C567 H571 0.950 . S
H568 C564 0.950 . S
C569 C567 1.390 . S
C569 C570 1.387 . S
C569 H572 0.950 . S
C570 C569 1.387 . S
C570 C573 1.387 . S
H571 C567 0.950 . S
H572 C569 0.950 . S
C573 C564 1.390 . S
C573 H566 0.950 . S
C573 C570 1.387 . S
C574 C575 1.387 . S
C574 H578 0.950 . S
C574 C583 1.390 . S
C575 C574 1.387 . S
C575 C577 1.387 . S
H576 C583 0.950 1_545 S
C577 C575 1.387 . S
C577 C579 1.390 . S
C577 H581 0.950 . S
H578 C574 0.950 . S
C579 C577 1.390 . S
C579 C580 1.387 . S
C579 H582 0.950 . S
C580 C579 1.387 . S
C580 C583 1.387 . S
H581 C577 0.950 . S
H582 C579 0.950 . S
C583 C574 1.390 . S
C583 H576 0.950 1_565 S
C583 C580 1.387 . S
C584 C585 1.387 . S
C584 H588 0.950 . S
C584 C593 1.390 . S
C585 C584 1.387 . S
C585 C587 1.387 . S
H586 C593 0.982 . S
C587 C585 1.387 . S
C587 C589 1.390 . S
C587 H591 0.950 . S
H588 C584 0.950 . S
C589 C587 1.390 . S
C589 C590 1.387 . S
C589 H592 0.950 . S
C590 C589 1.387 . S
C590 C593 1.387 . S
H591 C587 0.950 . S
H592 C589 0.950 . S
C593 C584 1.390 . S
C593 H586 0.982 . S
C593 C590 1.387 . S
C594 C595 1.387 . S
C594 H598 0.950 . S
C594 C603 1.390 . S
C595 C594 1.387 . S
C595 C597 1.387 . S
H596 C603 0.950 . S
C597 C595 1.387 . S
C597 C599 1.390 . S
C597 H601 0.950 . S
H598 C594 0.950 . S
C599 C597 1.390 . S
C599 C600 1.387 . S
C599 H602 0.950 . S
C600 C599 1.387 . S
C600 C603 1.387 . S
H601 C597 0.950 . S
H602 C599 0.950 . S
C603 C594 1.390 . S
C603 H596 0.950 . S
C603 C600 1.387 . S
C604 C605 1.387 . S
C604 H608 0.950 . S
C604 C613 1.390 . S
C605 C604 1.387 . S
C605 C607 1.387 . S
H606 C613 0.950 . S
C607 C605 1.387 . S
C607 C609 1.390 . S
C607 H611 0.977 . S
H608 C604 0.950 . S
C609 C607 1.390 . S
C609 C610 1.387 . S
C609 H612 0.950 . S
C610 C609 1.387 . S
C610 C613 1.387 . S
H611 C607 0.977 . S
H612 C609 0.950 . S
C613 C604 1.390 . S
C613 H606 0.950 . S
C613 C610 1.387 . S
C614 C615 1.387 . S
C614 H618 0.950 . S
C614 C623 1.390 . S
C615 C614 1.387 . S
C615 C617 1.387 . S
H616 C623 0.950 . S
C617 C615 1.387 . S
C617 C619 1.390 . S
C617 H621 0.950 . S
H618 C614 0.950 . S
C619 C617 1.390 . S
C619 C620 1.387 . S
C619 H622 0.950 . S
C620 C619 1.387 . S
C620 C623 1.387 . S
H621 C617 0.950 . S
H622 C619 0.950 . S
C623 C614 1.390 . S
C623 H616 0.950 . S
C623 C620 1.387 . S
C624 C625 1.387 1_655 S
C624 H628 0.950 . S
C624 C633 1.390 . S
C625 C624 1.387 1_455 S
C625 C627 1.387 . S
H626 C633 0.950 . S
C627 C625 1.387 . S
C627 C629 1.390 . S
C627 H631 0.950 . S
H628 C624 0.950 . S
C629 C627 1.390 . S
C629 C630 1.387 1_455 S
C629 H632 0.950 . S
C630 C629 1.387 1_655 S
C630 C633 1.387 . S
H631 C627 0.950 . S
H632 C629 0.950 . S
C633 C624 1.390 . S
C633 H626 0.950 . S
C633 C630 1.387 . S
C634 C635 1.387 . S
C634 H638 0.950 . S
C634 C643 1.390 . S
C635 C634 1.387 . S
C635 C637 1.387 . S
H636 C643 0.950 . S
C637 C635 1.387 . S
C637 C639 1.390 . S
C637 H641 0.950 . S
H638 C634 0.950 . S
C639 C637 1.390 . S
C639 C640 1.387 . S
C639 H642 0.950 . S
C640 C639 1.387 . S
C640 C643 1.387 . S
H641 C637 0.950 . S
H642 C639 0.950 . S
C643 C634 1.390 . S
C643 H636 0.950 . S
C643 C640 1.387 . S
C644 C645 1.387 . S
C644 H648 0.950 . S
C644 C653 1.390 1_565 S
C645 C644 1.387 . S
C645 C647 1.387 . S
H646 C653 0.950 . S
C647 C645 1.387 . S
C647 C649 1.390 1_565 S
C647 H651 0.950 . S
H648 C644 0.950 . S
C649 C647 1.390 1_545 S
C649 C650 1.387 . S
C649 H652 0.950 . S
C650 C649 1.387 . S
C650 C653 1.387 . S
H651 C647 0.950 . S
H652 C649 0.950 . S
C653 C644 1.390 1_545 S
C653 H646 0.950 . S
C653 C650 1.387 . S
C654 C655 1.387 . S
C654 H658 0.950 . S
C654 C663 1.390 1_565 S
C655 C654 1.387 . S
C655 C657 1.387 . S
H656 C663 0.950 . S
C657 C655 1.387 . S
C657 C659 1.390 1_565 S
C657 H661 0.950 . S
H658 C654 0.950 . S
C659 C657 1.390 1_545 S
C659 C660 1.387 . S
C659 H662 0.950 . S
C660 C659 1.387 . S
C660 C663 1.387 . S
H661 C657 0.950 . S
H662 C659 0.950 . S
C663 C654 1.390 1_545 S
C663 H656 0.950 . S
C663 C660 1.387 . S
C664 C665 1.387 . S
C664 H668 0.950 . S
C664 C673 1.390 1_455 S
C665 C664 1.387 . S
C665 C667 1.387 . S
H666 C673 0.950 . S
C667 C665 1.387 . S
C667 C669 1.390 . S
C667 H671 0.950 . S
H668 C664 0.950 . S
C669 C667 1.390 . S
C669 C670 1.387 1_455 S
C669 H672 0.950 . S
C670 C669 1.387 1_655 S
C670 C673 1.387 . S
H671 C667 0.950 . S
H672 C669 0.950 . S
C673 C664 1.390 1_655 S
C673 H666 0.950 . S
C673 C670 1.387 . S
C674 C675 1.387 . S
C674 H678 0.950 . S
C674 C683 1.390 . S
C675 C674 1.387 . S
C675 C677 1.387 . S
H676 C683 0.950 . S
C677 C675 1.387 . S
C677 C679 1.390 . S
C677 H681 0.950 . S
H678 C674 0.950 . S
C679 C677 1.390 . S
C679 C680 1.387 . S
C679 H682 0.950 . S
C680 C679 1.387 . S
C680 C683 1.387 . S
H681 C677 0.950 . S
H682 C679 0.950 . S
C683 C674 1.390 . S
C683 H676 0.950 . S
C683 C680 1.387 . S
C684 C685 1.387 1_556 S
C684 H688 0.950 . S
C684 C693 1.390 . S
C685 C684 1.387 1_554 S
C685 C687 1.387 . S
H686 C693 0.950 . S
C687 C685 1.387 . S
C687 C689 1.390 . S
C687 H691 0.950 . S
H688 C684 0.950 . S
C689 C687 1.390 . S
C689 C690 1.387 . S
C689 H692 0.950 . S
C690 C689 1.387 . S
C690 C693 1.387 1_554 S
H691 C687 0.950 . S
H692 C689 0.950 . S
C693 C684 1.390 . S
C693 H686 0.950 . S
C693 C690 1.387 1_556 S
C694 C695 1.387 . S
C694 H698 0.950 . S
C694 C703 1.390 . S
C695 C694 1.387 . S
C695 C697 1.387 1_554 S
H696 C703 0.950 . S
C697 C695 1.387 1_556 S
C697 C699 1.390 . S
C697 H701 0.950 . S
H698 C694 0.950 . S
C699 C697 1.390 . S
C699 C700 1.387 1_556 S
C699 H702 0.950 . S
C700 C699 1.387 1_554 S
C700 C703 1.387 . S
H701 C697 0.950 . S
H702 C699 0.950 . S
C703 C694 1.390 . S
C703 H696 0.950 . S
C703 C700 1.387 . S
C704 C705 1.387 . S
C704 H708 0.950 . S
C704 C713 1.390 . S
C705 C704 1.387 . S
C705 C707 1.387 1_554 S
H706 C713 0.950 . S
C707 C705 1.387 1_556 S
C707 C709 1.393 . S
C707 H711 0.950 . S
H708 C704 0.950 . S
C709 C707 1.393 . S
C709 C710 1.381 1_556 S
C709 H712 0.954 . S
C710 C709 1.381 1_554 S
C710 C713 1.387 . S
H711 C707 0.950 . S
H712 C709 0.954 . S
C713 C704 1.390 . S
C713 H706 0.950 . S
C713 C710 1.387 . S
C714 C715 1.387 . S
C714 H718 0.950 . S
C714 C723 1.390 . S
C715 C714 1.387 . S
C715 C717 1.387 . S
H716 C723 0.950 . S
C717 C715 1.387 . S
C717 C719 1.390 . S
C717 H721 0.950 . S
H718 C714 0.950 . S
C719 C717 1.390 . S
C719 C720 1.387 . S
C719 H722 0.950 . S
C720 C719 1.387 . S
C720 C723 1.387 . S
H721 C717 0.950 . S
H722 C719 0.950 . S
C723 C714 1.390 . S
C723 H716 0.950 . S
C723 C720 1.387 . S
C724 C725 1.387 . S
C724 H728 0.950 . S
C724 C733 1.390 . S
C725 C724 1.387 . S
C725 C727 1.387 . S
H726 C733 0.950 . S
C727 C725 1.387 . S
C727 C729 1.390 . S
C727 H731 0.950 . S
H728 C724 0.950 . S
C729 C727 1.390 . S
C729 C730 1.387 . S
C729 H732 0.950 . S
C730 C729 1.387 . S
C730 C733 1.387 . S
H731 C727 0.950 . S
H732 C729 0.950 . S
C733 C724 1.390 . S
C733 H726 0.950 . S
C733 C730 1.387 . S
C734 C735 1.387 . S
C734 H738 0.950 . S
C734 C743 1.390 . S
C735 C734 1.387 . S
C735 C737 1.387 . S
H736 C743 0.950 . S
C737 C735 1.387 . S
C737 C739 1.390 . S
C737 H741 0.950 . S
H738 C734 0.950 . S
C739 C737 1.390 . S
C739 C740 1.387 . S
C739 H742 0.950 . S
C740 C739 1.387 . S
C740 C743 1.387 . S
H741 C737 0.950 . S
H742 C739 0.950 . S
C743 C734 1.390 . S
C743 H736 0.950 . S
C743 C740 1.387 . S
C744 C745 1.405 . S
C744 H748 0.950 . S
C744 C753 1.390 . S
C745 C744 1.405 . S
C745 C747 1.369 1_554 S
H746 C753 0.950 . S
C747 C745 1.369 1_556 S
C747 C749 1.390 . S
C747 H751 0.950 . S
H748 C744 0.950 . S
C749 C747 1.390 . S
C749 C750 1.387 . S
C749 H752 0.950 . S
C750 C749 1.387 . S
C750 C753 1.387 1_556 S
H751 C747 0.950 . S
H752 C749 0.950 . S
C753 C744 1.390 . S
C753 H746 0.950 . S
C753 C750 1.387 1_554 S
C754 C755 1.387 1_554 S
C754 H758 0.950 . S
C754 C763 1.390 . S
C755 C754 1.387 1_556 S
C755 C757 1.387 . S
H756 C763 0.950 . S
C757 C755 1.387 . S
C757 C759 1.390 . S
C757 H761 0.950 . S
H758 C754 0.950 . S
C759 C757 1.390 . S
C759 C760 1.387 1_556 S
C759 H762 0.950 . S
C760 C759 1.387 1_554 S
C760 C763 1.387 . S
H761 C757 0.950 . S
H762 C759 0.950 . S
C763 C754 1.390 . S
C763 H756 0.950 . S
C763 C760 1.387 . S
C764 C765 1.387 . S
C764 H768 0.950 . S
C764 C773 1.390 . S
C765 C764 1.387 . S
C765 C767 1.387 1_554 S
H766 C773 0.950 . S
C767 C765 1.387 1_556 S
C767 C769 1.390 . S
C767 H771 0.950 . S
H768 C764 0.950 . S
C769 C767 1.390 . S
C769 C770 1.387 1_556 S
C769 H772 0.950 . S
C770 C769 1.387 1_554 S
C770 C773 1.387 . S
H771 C767 0.950 . S
H772 C769 0.950 . S
C773 C764 1.390 . S
C773 H766 0.950 . S
C773 C770 1.387 . S
C774 C775 1.387 . S
C774 H778 0.950 . S
C774 C783 1.390 . S
C775 C774 1.387 . S
C775 C777 1.387 . S
H776 C783 0.950 . S
C777 C775 1.387 . S
C777 C779 1.390 . S
C777 H781 0.950 . S
H778 C774 0.950 . S
C779 C777 1.390 . S
C779 C780 1.387 . S
C779 H782 0.950 . S
C780 C779 1.387 . S
C780 C783 1.387 . S
H781 C777 0.950 . S
H782 C779 0.950 . S
C783 C774 1.390 . S
C783 H776 0.950 . S
C783 C780 1.387 . S
C784 C785 1.387 . S
C784 H788 0.950 . S
C784 C793 1.390 . S
C785 C784 1.387 . S
C785 C787 1.387 . S
H786 C793 0.950 . S
C787 C785 1.387 . S
C787 C789 1.390 . S
C787 H791 0.950 . S
H788 C784 0.950 . S
C789 C787 1.390 . S
C789 C790 1.387 . S
C789 H792 0.950 . S
C790 C789 1.387 . S
C790 C793 1.387 . S
H791 C787 0.950 . S
H792 C789 0.950 . S
C793 C784 1.390 . S
C793 H786 0.950 . S
C793 C790 1.387 . S
C794 C795 1.387 . S
C794 H798 0.950 . S
C794 C803 1.390 . S
C795 C794 1.387 . S
C795 C797 1.387 . S
H796 C803 0.950 . S
C797 C795 1.387 . S
C797 C799 1.390 . S
C797 H801 0.950 . S
H798 C794 0.950 . S
C799 C797 1.390 . S
C799 C800 1.387 . S
C799 H802 0.950 . S
C800 C799 1.387 . S
C800 C803 1.387 . S
H801 C797 0.950 . S
H802 C799 0.950 . S
C803 C794 1.390 . S
C803 H796 0.950 . S
C803 C800 1.387 . S
C804 C805 1.387 . S
C804 H808 0.950 . S
C804 C813 1.390 . S
C805 C804 1.387 . S
C805 C807 1.387 . S
H806 C813 0.950 . S
C807 C805 1.387 . S
C807 C809 1.390 . S
C807 H811 0.950 . S
H808 C804 0.950 . S
C809 C807 1.390 . S
C809 C810 1.387 . S
C809 H812 0.950 . S
C810 C809 1.387 . S
C810 C813 1.387 . S
H811 C807 0.950 . S
H812 C809 0.950 . S
C813 C804 1.390 . S
C813 H806 0.950 . S
C813 C810 1.387 . S
C814 C815 1.387 . S
C814 H818 0.950 . S
C814 C823 1.390 . S
C815 C814 1.387 . S
C815 C817 1.387 . S
H816 C823 0.950 . S
C817 C815 1.387 . S
C817 C819 1.390 . S
C817 H821 0.950 . S
H818 C814 0.950 . S
C819 C817 1.390 . S
C819 C820 1.387 . S
C819 H822 0.950 . S
C820 C819 1.387 . S
C820 C823 1.387 . S
H821 C817 0.950 . S
H822 C819 0.950 . S
C823 C814 1.390 . S
C823 H816 0.950 . S
C823 C820 1.387 . S
C824 C825 1.387 . S
C824 H828 0.950 . S
C824 C833 1.390 . S
C825 C824 1.387 . S
C825 C827 1.387 . S
H826 C833 0.950 . S
C827 C825 1.387 . S
C827 C829 1.390 . S
C827 H831 0.950 . S
H828 C824 0.950 . S
C829 C827 1.390 . S
C829 C830 1.387 . S
C829 H832 0.950 . S
C830 C829 1.387 . S
C830 C833 1.387 . S
H831 C827 0.950 . S
H832 C829 0.950 . S
C833 C824 1.390 . S
C833 H826 0.950 . S
C833 C830 1.387 . S
C834 C835 1.387 . S
C834 H838 0.950 . S
C834 C843 1.390 . S
C835 C834 1.387 . S
C835 C837 1.387 . S
H836 C843 0.950 . S
C837 C835 1.387 . S
C837 C839 1.390 . S
C837 H841 0.950 . S
H838 C834 0.950 . S
C839 C837 1.390 . S
C839 C840 1.387 . S
C839 H842 0.950 . S
C840 C839 1.387 . S
C840 C843 1.387 . S
H841 C837 0.950 . S
H842 C839 0.950 . S
C843 C834 1.390 . S
C843 H836 0.950 . S
C843 C840 1.387 . S
C844 C845 1.387 . S
C844 H848 0.950 . S
C844 C853 1.390 . S
C845 C844 1.387 . S
C845 C847 1.387 . S
H846 C853 0.950 . S
C847 C845 1.387 . S
C847 C849 1.390 . S
C847 H851 0.950 . S
H848 C844 0.950 . S
C849 C847 1.390 . S
C849 C850 1.387 . S
C849 H852 0.950 . S
C850 C849 1.387 . S
C850 C853 1.387 . S
H851 C847 0.950 . S
H852 C849 0.950 . S
C853 C844 1.390 . S
C853 H846 0.950 . S
C853 C850 1.387 . S
C854 C855 1.387 . S
C854 H858 0.950 . S
C854 C863 1.390 . S
C855 C854 1.387 . S
C855 C857 1.387 . S
H856 C863 0.950 . S
C857 C855 1.387 . S
C857 C859 1.390 . S
C857 H861 0.950 . S
H858 C854 0.950 . S
C859 C857 1.390 . S
C859 C860 1.387 . S
C859 H862 0.950 . S
C860 C859 1.387 . S
C860 C863 1.387 . S
H861 C857 0.950 . S
H862 C859 0.950 . S
C863 C854 1.390 . S
C863 H856 0.950 . S
C863 C860 1.387 . S
C864 C865 1.387 . S
C864 H868 0.950 . S
C864 C873 1.390 . S
C865 C864 1.387 . S
C865 C867 1.387 . S
H866 C873 0.950 . S
C867 C865 1.387 . S
C867 C869 1.390 . S
C867 H871 0.950 . S
H868 C864 0.950 . S
C869 C867 1.390 . S
C869 C870 1.387 . S
C869 H872 0.950 . S
C870 C869 1.387 . S
C870 C873 1.387 . S
H871 C867 0.950 . S
H872 C869 0.950 . S
C873 C864 1.390 . S
C873 H866 0.950 . S
C873 C870 1.387 . S
C874 C875 1.387 . S
C874 H878 0.950 . S
C874 C883 1.390 . S
C875 C874 1.387 . S
C875 C877 1.387 . S
H876 C883 0.950 . S
C877 C875 1.387 . S
C877 C879 1.390 . S
C877 H881 0.950 . S
H878 C874 0.950 . S
C879 C877 1.390 . S
C879 C880 1.387 . S
C879 H882 0.950 . S
C880 C879 1.387 . S
C880 C883 1.387 . S
H881 C877 0.950 . S
H882 C879 0.950 . S
C883 C874 1.390 . S
C883 H876 0.950 . S
C883 C880 1.387 . S
C884 C885 1.387 . S
C884 H888 0.950 . S
C884 C893 1.390 . S
C885 C884 1.387 . S
C885 C887 1.387 . S
H886 C893 0.950 . S
C887 C885 1.387 . S
C887 C889 1.390 . S
C887 H891 0.950 . S
H888 C884 0.950 . S
C889 C887 1.390 . S
C889 C890 1.387 . S
C889 H892 0.950 . S
C890 C889 1.387 . S
C890 C893 1.387 . S
H891 C887 0.950 . S
H892 C889 0.950 . S
C893 C884 1.390 . S
C893 H886 0.950 . S
C893 C890 1.387 . S
C894 C895 1.387 . S
C894 H898 0.950 . S
C894 C903 1.390 . S
C895 C894 1.387 . S
C895 C897 1.387 . S
H896 C903 0.950 . S
C897 C895 1.387 . S
C897 C899 1.390 . S
C897 H901 0.950 . S
H898 C894 0.950 . S
C899 C897 1.390 . S
C899 C900 1.387 . S
C899 H902 0.950 . S
C900 C899 1.387 . S
C900 C903 1.387 . S
H901 C897 0.950 . S
H902 C899 0.950 . S
C903 C894 1.390 . S
C903 H896 0.950 . S
C903 C900 1.387 . S
C904 C905 1.387 . S
C904 H908 0.950 . S
C904 C913 1.390 . S
C905 C904 1.387 . S
C905 C907 1.387 . S
H906 C913 0.950 . S
C907 C905 1.387 . S
C907 C909 1.390 . S
C907 H911 0.950 . S
H908 C904 0.950 . S
C909 C907 1.390 . S
C909 C910 1.387 . S
C909 H912 0.950 . S
C910 C909 1.387 . S
C910 C913 1.387 . S
H911 C907 0.950 . S
H912 C909 0.950 . S
C913 C904 1.390 . S
C913 H906 0.950 . S
C913 C910 1.387 . S
C914 C915 1.387 . S
C914 H918 0.950 . S
C914 C923 1.390 . S
C915 C914 1.387 . S
C915 C917 1.387 . S
H916 C923 0.950 . S
C917 C915 1.387 . S
C917 C919 1.390 . S
C917 H921 0.950 . S
H918 C914 0.950 . S
C919 C917 1.390 . S
C919 C920 1.387 . S
C919 H922 0.950 . S
C920 C919 1.387 . S
C920 C923 1.387 . S
H921 C917 0.950 . S
H922 C919 0.950 . S
C923 C914 1.390 . S
C923 H916 0.950 . S
C923 C920 1.387 . S
C924 C925 1.387 . S
C924 H928 0.950 . S
C924 C933 1.390 . S
C925 C924 1.387 . S
C925 C927 1.387 . S
H926 C933 0.950 . S
C927 C925 1.387 . S
C927 C929 1.390 . S
C927 H931 0.950 . S
H928 C924 0.950 . S
C929 C927 1.390 . S
C929 C930 1.387 . S
C929 H932 0.950 . S
C930 C929 1.387 . S
C930 C933 1.387 . S
H931 C927 0.950 . S
H932 C929 0.950 . S
C933 C924 1.390 . S
C933 H926 0.950 . S
C933 C930 1.387 . S
C934 C935 1.387 . S
C934 H938 0.950 . S
C934 C943 1.390 . S
C935 C934 1.387 . S
C935 C937 1.387 . S
H936 C943 0.950 . S
C937 C935 1.387 . S
C937 C939 1.390 . S
C937 H941 0.950 . S
H938 C934 0.950 . S
C939 C937 1.390 . S
C939 C940 1.387 . S
C939 H942 0.950 . S
C940 C939 1.387 . S
C940 C943 1.387 . S
H941 C937 0.950 . S
H942 C939 0.950 . S
C943 C934 1.390 . S
C943 H936 0.950 . S
C943 C940 1.387 . S
C944 C945 1.387 . S
C944 H948 0.950 . S
C944 C953 1.390 . S
C945 C944 1.387 . S
C945 C947 1.387 . S
H946 C953 0.950 . S
C947 C945 1.387 . S
C947 C949 1.390 . S
C947 H951 0.950 . S
H948 C944 0.950 . S
C949 C947 1.390 . S
C949 C950 1.387 . S
C949 H952 0.950 . S
C950 C949 1.387 . S
C950 C953 1.387 . S
H951 C947 0.950 . S
H952 C949 0.950 . S
C953 C944 1.390 . S
C953 H946 0.950 . S
C953 C950 1.387 . S
C954 C955 1.387 . S
C954 H958 0.950 . S
C954 C963 1.390 . S
C955 C954 1.387 . S
C955 C957 1.387 . S
H956 C963 0.950 . S
C957 C955 1.387 . S
C957 C959 1.390 . S
C957 H961 0.950 . S
H958 C954 0.950 . S
C959 C957 1.390 . S
C959 C960 1.387 . S
C959 H962 0.950 . S
C960 C959 1.387 . S
C960 C963 1.387 . S
H961 C957 0.950 . S
H962 C959 0.950 . S
C963 C954 1.390 . S
C963 H956 0.950 . S
C963 C960 1.387 . S
C964 C965 1.387 . S
C964 H968 0.950 . S
C964 C973 1.390 . S
C965 C964 1.387 . S
C965 C967 1.387 . S
H966 C973 0.950 . S
C967 C965 1.387 . S
C967 C969 1.390 . S
C967 H971 0.950 . S
H968 C964 0.950 . S
C969 C967 1.390 . S
C969 C970 1.387 . S
C969 H972 0.950 . S
C970 C969 1.387 . S
C970 C973 1.387 . S
H971 C967 0.950 . S
H972 C969 0.950 . S
C973 C964 1.390 . S
C973 H966 0.950 . S
C973 C970 1.387 . S
C974 C975 1.387 . S
C974 H978 0.950 . S
C974 C983 1.390 . S
C975 C974 1.387 . S
C975 C977 1.387 . S
H976 C983 0.950 . S
C977 C975 1.387 . S
C977 C979 1.390 . S
C977 H981 0.950 . S
H978 C974 0.950 . S
C979 C977 1.390 . S
C979 C980 1.387 . S
C979 H982 0.950 . S
C980 C979 1.387 . S
C980 C983 1.387 . S
H981 C977 0.950 . S
H982 C979 0.950 . S
C983 C974 1.390 . S
C983 H976 0.950 . S
C983 C980 1.387 . S
C984 C985 1.387 . S
C984 H988 0.950 . S
C984 C993 1.390 . S
C985 C984 1.387 . S
C985 C987 1.387 . S
H986 C993 0.950 . S
C987 C985 1.387 . S
C987 C989 1.390 . S
C987 H991 0.950 . S
H988 C984 0.950 . S
C989 C987 1.390 . S
C989 C990 1.387 . S
C989 H992 0.950 . S
C990 C989 1.387 . S
C990 C993 1.387 . S
H991 C987 0.950 . S
H992 C989 0.950 . S
C993 C984 1.390 . S
C993 H986 0.950 . S
C993 C990 1.387 . S
C994 C995 1.387 . S
C994 H998 0.950 . S
C994 C1003 1.390 . S
C995 C994 1.387 . S
C995 C997 1.387 . S
H996 C1003 0.950 . S
C997 C995 1.387 . S
C997 C999 1.390 . S
C997 H1001 0.950 . S
H998 C994 0.950 . S
C999 C997 1.390 . S
C999 C1000 1.387 . S
C999 H1002 0.950 . S
C1000 C999 1.387 . S
C1000 C1003 1.387 . S
H1001 C997 0.950 . S
H1002 C999 0.950 . S
C1003 C994 1.390 . S
C1003 H996 0.950 . S
C1003 C1000 1.387 . S
C1004 C1005 1.387 . S
C1004 H1008 0.950 . S
C1004 C1013 1.390 . S
C1005 C1004 1.387 . S
C1005 C1007 1.387 . S
H1006 C1013 0.950 . S
C1007 C1005 1.387 . S
C1007 C1009 1.390 . S
C1007 H1011 0.950 . S
H1008 C1004 0.950 . S
C1009 C1007 1.390 . S
C1009 C1010 1.387 . S
C1009 H1012 0.950 . S
C1010 C1009 1.387 . S
C1010 C1013 1.387 . S
H1011 C1007 0.950 . S
H1012 C1009 0.950 . S
C1013 C1004 1.390 . S
C1013 H1006 0.950 . S
C1013 C1010 1.387 . S
C1014 C1015 1.387 . S
C1014 H1018 0.950 . S
C1014 C1023 1.390 . S
C1015 C1014 1.387 . S
C1015 C1017 1.387 . S
H1016 C1023 0.950 . S
C1017 C1015 1.387 . S
C1017 C1019 1.390 . S
C1017 H1021 0.950 . S
H1018 C1014 0.950 . S
C1019 C1017 1.390 . S
C1019 C1020 1.387 . S
C1019 H1022 0.950 . S
C1020 C1019 1.387 . S
C1020 C1023 1.387 . S
H1021 C1017 0.950 . S
H1022 C1019 0.950 . S
C1023 C1014 1.390 . S
C1023 H1016 0.950 . S
C1023 C1020 1.387 . S
C1024 C1025 1.387 . S
C1024 H1028 0.950 . S
C1024 C1033 1.390 . S
C1025 C1024 1.387 . S
C1025 C1027 1.387 . S
H1026 C1033 0.950 . S
C1027 C1025 1.387 . S
C1027 C1029 1.390 . S
C1027 H1031 0.950 . S
H1028 C1024 0.950 . S
C1029 C1027 1.390 . S
C1029 C1030 1.387 . S
C1029 H1032 0.950 . S
C1030 C1029 1.387 . S
C1030 C1033 1.387 . S
H1031 C1027 0.950 . S
H1032 C1029 0.950 . S
C1033 C1024 1.390 . S
C1033 H1026 0.950 . S
C1033 C1030 1.387 . S
C1034 C1035 1.387 . S
C1034 H1038 0.950 . S
C1034 C1043 1.390 . S
C1035 C1034 1.387 . S
C1035 C1037 1.387 . S
H1036 C1043 0.950 . S
C1037 C1035 1.387 . S
C1037 C1039 1.390 . S
C1037 H1041 0.950 . S
H1038 C1034 0.950 . S
C1039 C1037 1.390 . S
C1039 C1040 1.387 . S
C1039 H1042 0.950 . S
C1040 C1039 1.387 . S
C1040 C1043 1.387 . S
H1041 C1037 0.950 . S
H1042 C1039 0.950 . S
C1043 C1034 1.390 . S
C1043 H1036 0.950 . S
C1043 C1040 1.387 . S
C1044 C1045 1.387 . S
C1044 H1048 0.950 . S
C1044 C1053 1.390 . S
C1045 C1044 1.387 . S
C1045 C1047 1.387 . S
H1046 C1053 0.950 . S
C1047 C1045 1.387 . S
C1047 C1049 1.390 . S
C1047 H1051 0.950 . S
H1048 C1044 0.950 . S
C1049 C1047 1.390 . S
C1049 C1050 1.387 . S
C1049 H1052 0.950 . S
C1050 C1049 1.387 . S
C1050 C1053 1.387 . S
H1051 C1047 0.950 . S
H1052 C1049 0.950 . S
C1053 C1044 1.390 . S
C1053 H1046 0.950 . S
C1053 C1050 1.387 . S
C1054 C1055 1.387 . S
C1054 H1058 0.950 . S
C1054 C1063 1.390 . S
C1055 C1054 1.387 . S
C1055 C1057 1.387 . S
H1056 C1063 0.958 . S
C1057 C1055 1.387 . S
C1057 C1059 1.390 . S
C1057 H1061 0.950 . S
H1058 C1054 0.950 . S
C1059 C1057 1.390 . S
C1059 C1060 1.387 1_545 S
C1059 H1062 0.946 . S
C1060 C1059 1.387 1_565 S
C1060 C1063 1.387 1_565 S
H1061 C1057 0.950 . S
H1062 C1059 0.946 . S
C1063 C1054 1.390 . S
C1063 H1056 0.958 . S
C1063 C1060 1.387 1_545 S
C1064 C1065 1.390 . S
C1064 H1068 0.956 1_455 S
C1064 C1073 1.383 1_455 S
C1065 C1064 1.390 . S
C1065 C1067 1.387 . S
H1066 C1073 0.950 . S
C1067 C1065 1.387 . S
C1067 C1069 1.390 . S
C1067 H1071 0.950 . S
H1068 C1064 0.956 1_655 S
C1069 C1067 1.390 . S
C1069 C1070 1.387 1_455 S
C1069 H1072 0.950 . S
C1070 C1069 1.387 1_655 S
C1070 C1073 1.387 . S
H1071 C1067 0.950 . S
H1072 C1069 0.950 . S
C1073 C1064 1.383 1_655 S
C1073 H1066 0.950 . S
C1073 C1070 1.387 . S
C1074 C1075 1.387 . S
C1074 H1078 0.950 . S
C1074 C1083 1.390 . S
C1075 C1074 1.387 . S
C1075 C1077 1.387 . S
H1076 C1083 0.950 . S
C1077 C1075 1.387 . S
C1077 C1079 1.390 . S
C1077 H1081 0.950 . S
H1078 C1074 0.950 . S
C1079 C1077 1.390 . S
C1079 C1080 1.387 . S
C1079 H1082 0.950 . S
C1080 C1079 1.387 . S
C1080 C1083 1.387 . S
H1081 C1077 0.950 . S
H1082 C1079 0.950 . S
C1083 C1074 1.390 . S
C1083 H1076 0.950 . S
C1083 C1080 1.387 . S
C1084 C1085 1.387 . S
C1084 H1088 0.950 . S
C1084 C1093 1.390 . S
C1085 C1084 1.387 . S
C1085 C1087 1.392 1_545 S
H1086 C1093 0.950 . S
C1087 C1085 1.392 1_565 S
C1087 C1089 1.389 1_565 S
C1087 H1091 0.947 . S
H1088 C1084 0.950 . S
C1089 C1087 1.389 1_545 S
C1089 C1090 1.387 . S
C1089 H1092 0.950 1_545 S
C1090 C1089 1.387 . S
C1090 C1093 1.387 . S
H1091 C1087 0.947 . S
H1092 C1089 0.950 1_565 S
C1093 C1084 1.390 . S
C1093 H1086 0.950 . S
C1093 C1090 1.387 . S
C1094 C1095 1.387 1_655 S
C1094 H1098 0.950 . S
C1094 C1103 1.390 . S
C1095 C1094 1.387 1_455 S
C1095 C1097 1.387 . S
H1096 C1103 0.950 . S
C1097 C1095 1.387 . S
C1097 C1099 1.390 . S
C1097 H1101 0.950 . S
H1098 C1094 0.950 . S
C1099 C1097 1.390 . S
C1099 C1100 1.387 . S
C1099 H1102 0.950 . S
C1100 C1099 1.387 . S
C1100 C1103 1.387 1_455 S
H1101 C1097 0.950 . S
H1102 C1099 0.950 . S
C1103 C1094 1.390 . S
C1103 H1096 0.950 . S
C1103 C1100 1.387 1_655 S
C1104 C1105 1.387 . S
C1104 H1108 0.950 . S
C1104 C1113 1.390 . S
C1105 C1104 1.387 . S
C1105 C1107 1.387 . S
H1106 C1113 0.950 . S
C1107 C1105 1.387 . S
C1107 C1109 1.390 . S
C1107 H1111 0.950 . S
H1108 C1104 0.950 . S
C1109 C1107 1.390 . S
C1109 C1110 1.387 . S
C1109 H1112 0.950 . S
C1110 C1109 1.387 . S
C1110 C1113 1.387 . S
H1111 C1107 0.950 . S
H1112 C1109 0.950 . S
C1113 C1104 1.390 . S
C1113 H1106 0.950 . S
C1113 C1110 1.387 . S
C1114 C1115 1.387 . S
C1114 H1118 0.950 . S
C1114 C1123 1.390 . S
C1115 C1114 1.387 . S
C1115 C1117 1.387 . S
H1116 C1123 0.950 . S
C1117 C1115 1.387 . S
C1117 C1119 1.390 . S
C1117 H1121 0.950 . S
H1118 C1114 0.950 . S
C1119 C1117 1.390 . S
C1119 C1120 1.387 . S
C1119 H1122 0.950 . S
C1120 C1119 1.387 . S
C1120 C1123 1.387 . S
H1121 C1117 0.950 . S
H1122 C1119 0.950 . S
C1123 C1114 1.390 . S
C1123 H1116 0.950 . S
C1123 C1120 1.387 . S
C1124 C1125 1.387 . S
C1124 H1128 0.950 . S
C1124 C1133 1.390 . S
C1125 C1124 1.387 . S
C1125 C1127 1.387 . S
H1126 C1133 0.950 . S
C1127 C1125 1.387 . S
C1127 C1129 1.390 . S
C1127 H1131 0.950 . S
H1128 C1124 0.950 . S
C1129 C1127 1.390 . S
C1129 C1130 1.387 . S
C1129 H1132 0.950 . S
C1130 C1129 1.387 . S
C1130 C1133 1.387 . S
H1131 C1127 0.950 . S
H1132 C1129 0.950 . S
C1133 C1124 1.390 . S
C1133 H1126 0.950 . S
C1133 C1130 1.387 . S
C1134 C1135 1.387 . S
C1134 H1138 0.950 . S
C1134 C1143 1.390 . S
C1135 C1134 1.387 . S
C1135 C1137 1.387 . S
H1136 C1143 0.950 . S
C1137 C1135 1.387 . S
C1137 C1139 1.390 . S
C1137 H1141 0.950 . S
H1138 C1134 0.950 . S
C1139 C1137 1.390 . S
C1139 C1140 1.387 . S
C1139 H1142 0.950 . S
C1140 C1139 1.387 . S
C1140 C1143 1.387 . S
H1141 C1137 0.950 . S
H1142 C1139 0.950 . S
C1143 C1134 1.390 . S
C1143 H1136 0.950 . S
C1143 C1140 1.387 . S
C1144 C1145 1.387 . S
C1144 H1148 0.950 . S
C1144 C1153 1.390 . S
C1145 C1144 1.387 . S
C1145 C1147 1.387 . S
H1146 C1153 0.950 . S
C1147 C1145 1.387 . S
C1147 C1149 1.390 . S
C1147 H1151 0.950 . S
H1148 C1144 0.950 . S
C1149 C1147 1.390 . S
C1149 C1150 1.387 . S
C1149 H1152 0.950 . S
C1150 C1149 1.387 . S
C1150 C1153 1.387 . S
H1151 C1147 0.950 . S
H1152 C1149 0.950 . S
C1153 C1144 1.390 . S
C1153 H1146 0.950 . S
C1153 C1150 1.387 . S
C1154 C1155 1.387 . S
C1154 H1158 0.950 . S
C1154 C1163 1.390 . S
C1155 C1154 1.387 . S
C1155 C1157 1.387 . S
H1156 C1163 0.950 . S
C1157 C1155 1.387 . S
C1157 C1159 1.390 . S
C1157 H1161 0.950 . S
H1158 C1154 0.950 . S
C1159 C1157 1.390 . S
C1159 C1160 1.387 . S
C1159 H1162 0.950 . S
C1160 C1159 1.387 . S
C1160 C1163 1.387 . S
H1161 C1157 0.950 . S
H1162 C1159 0.950 . S
C1163 C1154 1.390 . S
C1163 H1156 0.950 . S
C1163 C1160 1.387 . S
C1164 C1165 1.387 . S
C1164 H1168 0.950 . S
C1164 C1173 1.390 . S
C1165 C1164 1.387 . S
C1165 C1167 1.387 . S
H1166 C1173 0.950 . S
C1167 C1165 1.387 . S
C1167 C1169 1.390 . S
C1167 H1171 0.955 . S
H1168 C1164 0.950 . S
C1169 C1167 1.390 . S
C1169 C1170 1.387 . S
C1169 H1172 0.950 . S
C1170 C1169 1.387 . S
C1170 C1173 1.387 . S
H1171 C1167 0.955 . S
H1172 C1169 0.950 . S
C1173 C1164 1.390 . S
C1173 H1166 0.950 . S
C1173 C1170 1.387 . S
C1174 C1175 1.387 . S
C1174 H1178 0.950 . S
C1174 C1183 1.390 . S
C1175 C1174 1.387 . S
C1175 C1177 1.387 . S
H1176 C1183 0.950 . S
C1177 C1175 1.387 . S
C1177 C1179 1.390 . S
C1177 H1181 0.950 . S
H1178 C1174 0.950 . S
C1179 C1177 1.390 . S
C1179 C1180 1.387 . S
C1179 H1182 0.950 . S
C1180 C1179 1.387 . S
C1180 C1183 1.387 . S
H1181 C1177 0.950 . S
H1182 C1179 0.950 . S
C1183 C1174 1.390 . S
C1183 H1176 0.950 . S
C1183 C1180 1.387 . S
C1184 C1185 1.387 . S
C1184 H1188 0.950 . S
C1184 C1193 1.390 . S
C1185 C1184 1.387 . S
C1185 C1187 1.387 . S
H1186 C1193 0.950 . S
C1187 C1185 1.387 . S
C1187 C1189 1.390 . S
C1187 H1191 0.950 . S
H1188 C1184 0.950 . S
C1189 C1187 1.390 . S
C1189 C1190 1.387 . S
C1189 H1192 0.950 . S
C1190 C1189 1.387 . S
C1190 C1193 1.387 . S
H1191 C1187 0.950 . S
H1192 C1189 0.950 . S
C1193 C1184 1.390 . S
C1193 H1186 0.950 . S
C1193 C1190 1.387 . S
C1194 C1195 1.387 . S
C1194 H1198 0.950 . S
C1194 C1203 1.390 . S
C1195 C1194 1.387 . S
C1195 C1197 1.387 . S
H1196 C1203 0.950 . S
C1197 C1195 1.387 . S
C1197 C1199 1.390 . S
C1197 H1201 0.950 . S
H1198 C1194 0.950 . S
C1199 C1197 1.390 . S
C1199 C1200 1.387 . S
C1199 H1202 0.950 . S
C1200 C1199 1.387 . S
C1200 C1203 1.387 . S
H1201 C1197 0.950 . S
H1202 C1199 0.950 . S
C1203 C1194 1.390 . S
C1203 H1196 0.950 . S
C1203 C1200 1.387 . S
C1204 C1205 1.387 . S
C1204 H1208 0.950 . S
C1204 C1213 1.390 . S
C1205 C1204 1.387 . S
C1205 C1207 1.387 . S
H1206 C1213 0.950 . S
C1207 C1205 1.387 . S
C1207 C1209 1.390 . S
C1207 H1211 0.950 . S
H1208 C1204 0.950 . S
C1209 C1207 1.390 . S
C1209 C1210 1.387 . S
C1209 H1212 0.950 . S
C1210 C1209 1.387 . S
C1210 C1213 1.387 . S
H1211 C1207 0.950 . S
H1212 C1209 0.950 . S
C1213 C1204 1.390 . S
C1213 H1206 0.950 . S
C1213 C1210 1.387 . S
C1214 C1215 1.387 . S
C1214 H1218 0.950 . S
C1214 C1223 1.390 . S
C1215 C1214 1.387 . S
C1215 C1217 1.387 . S
H1216 C1223 0.950 . S
C1217 C1215 1.387 . S
C1217 C1219 1.390 . S
C1217 H1221 0.950 . S
H1218 C1214 0.950 . S
C1219 C1217 1.390 . S
C1219 C1220 1.387 . S
C1219 H1222 0.950 . S
C1220 C1219 1.387 . S
C1220 C1223 1.387 . S
H1221 C1217 0.950 . S
H1222 C1219 0.950 . S
C1223 C1214 1.390 . S
C1223 H1216 0.950 . S
C1223 C1220 1.387 . S
C505 C229 1.382 . S
C510 C5 1.394 1_556 S
C515 C243 1.390 . S
C520 C19 1.386 . S
C525 C39 1.533 . S
C530 C221 1.533 . S
C535 C375 1.532 . S
C540 C53 1.532 . S
C545 C341 1.393 . S
C550 C61 1.382 . S
C555 C75 1.394 . S
C560 C355 1.382 . S
C565 C487 1.315 . S
C570 C95 1.324 . S
C575 C501 1.324 . S
C580 C109 1.316 . S
C585 C473 1.324 . S
C590 C123 1.324 . S
C595 C291 1.322 . S
C600 C137 1.322 . S
C605 C151 1.315 . S
C610 C263 1.323 . S
C615 C277 1.315 . S
C620 C165 1.324 . S
C625 C397 1.381 . S
C630 C173 1.395 . S
C635 C187 1.383 . S
C640 C411 1.393 . S
C645 C389 1.533 . S
C650 C207 1.533 . S
C655 C459 1.322 . S
C660 C305 1.322 . S
C665 C431 1.324 . S
C670 C319 1.319 . S
C675 C333 1.324 . S
C680 C445 1.319 . S
C685 C102 1.504 . S
C690 C4 1.537 . S
C695 C116 1.481 . S
C700 C18 1.492 . S
C705 C88 1.405 . S
C710 C40 1.422 . S
C715 C54 1.422 . S
C720 C158 1.405 . S
C725 C130 1.481 . S
C730 C60 1.492 . S
C735 C74 1.533 . S
C740 C144 1.503 . S
C745 C25 1.213 . S
C750 C96 1.248 . S
C755 C110 1.229 . S
C760 C33 1.099 1_554 S
C765 C11 1.305 . S
C770 C124 1.341 1_554 S
C775 C81 1.305 . S
C780 C138 1.341 . S
C785 C47 1.101 . S
C790 C152 1.229 . S
C795 C166 1.248 . S
C800 C67 1.206 . S
C805 C172 1.533 . S
C810 C270 1.502 . S
C815 C284 1.483 . S
C820 C186 1.492 . S
C825 C256 1.407 . S
C830 C208 1.423 . S
C835 C222 1.422 . S
C840 C326 1.405 . S
C845 C298 1.483 . S
C850 C228 1.491 . S
C855 C242 1.533 . S
C860 C312 1.502 . S
C865 C264 1.250 . S
C870 C193 1.209 . S
C875 C278 1.231 . S
C880 C201 1.103 . S
C885 C179 1.303 . S
C890 C292 1.341 . S
C895 C249 1.303 . S
C900 C306 1.341 . S
C905 C215 1.099 . S
C910 C320 1.231 . S
C915 C334 1.248 . S
C920 C235 1.206 . S
C925 C438 1.502 . S
C930 C340 1.533 . S
C935 C354 1.492 . S
C940 C452 1.482 . S
C945 C376 1.422 . S
C950 C424 1.405 . S
C955 C494 1.405 . S
C960 C390 1.422 . S
C965 C396 1.492 . S
C970 C466 1.483 . S
C975 C480 1.504 . S
C980 C410 1.533 . S
C985 C361 1.209 . S
C990 C432 1.250 . S
C995 C369 1.101 . S
C1000 C446 1.229 . S
C1005 C460 1.341 . S
C1010 C347 1.304 . S
C1015 C474 1.340 . S
C1020 C417 1.304 . S
C1025 C383 1.103 . S
C1030 C488 1.231 . S
C1035 C403 1.206 . S
C1040 C502 1.248 . S
C1045 C12 1.472 . S
C1050 C46 1.479 . S
C1055 C26 1.398 . S
C1060 C68 1.398 . S
C1065 C82 1.472 . S
C1070 C32 1.479 . S
C1075 C89 1.080 . S
C1080 C131 1.068 . S
C1085 C145 1.130 . S
C1090 C103 1.134 1_545 S
C1095 C159 1.086 1_455 S
C1100 C117 1.074 . S
C1105 C180 1.471 . S
C1110 C214 1.480 . S
C1115 C194 1.399 . S
C1120 C236 1.399 . S
C1125 C250 1.471 . S
C1130 C200 1.480 . S
C1135 C257 1.081 . S
C1140 C299 1.070 1_554 S
C1145 C271 1.131 . S
C1150 C313 1.131 1_554 S
C1155 C285 1.072 . S
C1160 C327 1.083 . S
C1165 C382 1.479 1_556 S
C1170 C348 1.472 . S
C1175 C404 1.399 1_556 S
C1180 C362 1.399 . S
C1185 C418 1.472 1_556 S
C1190 C368 1.479 . S
C1195 C425 1.086 . S
C1200 C467 1.074 . S
C1205 C481 1.123 . S
C1210 C439 1.124 . S
C1215 C495 1.086 . S
C1220 C453 1.074 . S
