# Generated by pormake.
# Topology unp, (4)-cn, num edge types: 1
# Building blocks:
#     Node 0, Type 0, BuildingBlock: CEKHIL_clean_sbu_0, # of connection points: 4
#     Node 1, Type 0, BuildingBlock: CEKHIL_clean_sbu_0, # of connection points: 4
#     Node 2, Type 0, BuildingBlock: CEKHIL_clean_sbu_0, # of connection points: 4
#     Node 3, Type 0, BuildingBlock: CEKHIL_clean_sbu_0, # of connection points: 4
#     Node 4, Type 0, BuildingBlock: CEKHIL_clean_sbu_0, # of connection points: 4
#     Node 5, Type 0, BuildingBlock: CEKHIL_clean_sbu_0, # of connection points: 4
#     Node 6, Type 0, BuildingBlock: CEKHIL_clean_sbu_0, # of connection points: 4
#     Node 7, Type 0, BuildingBlock: CEKHIL_clean_sbu_0, # of connection points: 4
#     Node 8, Type 0, BuildingBlock: CEKHIL_clean_sbu_0, # of connection points: 4
#     Node 9, Type 0, BuildingBlock: CEKHIL_clean_sbu_0, # of connection points: 4
#     Node 10, Type 0, BuildingBlock: CEKHIL_clean_sbu_0, # of connection points: 4
#     Node 11, Type 0, BuildingBlock: CEKHIL_clean_sbu_0, # of connection points: 4
#     Node 12, Type 0, BuildingBlock: CEKHIL_clean_sbu_0, # of connection points: 4
#     Node 13, Type 0, BuildingBlock: CEKHIL_clean_sbu_0, # of connection points: 4
#     Node 14, Type 0, BuildingBlock: CEKHIL_clean_sbu_0, # of connection points: 4
#     Node 15, Type 0, BuildingBlock: CEKHIL_clean_sbu_0, # of connection points: 4
#     Node 16, Type 0, BuildingBlock: CEKHIL_clean_sbu_0, # of connection points: 4
#     Node 17, Type 0, BuildingBlock: CEKHIL_clean_sbu_0, # of connection points: 4
#     Edge 18, Type (0, 0), BuildingBlock: TEMPAE_clean_linker_10, # of connection points: 2
#     Edge 19, Type (0, 0), BuildingBlock: TEMPAE_clean_linker_10, # of connection points: 2
#     Edge 20, Type (0, 0), BuildingBlock: TEMPAE_clean_linker_10, # of connection points: 2
#     Edge 21, Type (0, 0), BuildingBlock: TEMPAE_clean_linker_10, # of connection points: 2
#     Edge 22, Type (0, 0), BuildingBlock: TEMPAE_clean_linker_10, # of connection points: 2
#     Edge 23, Type (0, 0), BuildingBlock: TEMPAE_clean_linker_10, # of connection points: 2
#     Edge 24, Type (0, 0), BuildingBlock: TEMPAE_clean_linker_10, # of connection points: 2
#     Edge 25, Type (0, 0), BuildingBlock: TEMPAE_clean_linker_10, # of connection points: 2
#     Edge 26, Type (0, 0), BuildingBlock: TEMPAE_clean_linker_10, # of connection points: 2
#     Edge 27, Type (0, 0), BuildingBlock: TEMPAE_clean_linker_10, # of connection points: 2
#     Edge 28, Type (0, 0), BuildingBlock: TEMPAE_clean_linker_10, # of connection points: 2
#     Edge 29, Type (0, 0), BuildingBlock: TEMPAE_clean_linker_10, # of connection points: 2
#     Edge 30, Type (0, 0), BuildingBlock: TEMPAE_clean_linker_10, # of connection points: 2
#     Edge 31, Type (0, 0), BuildingBlock: TEMPAE_clean_linker_10, # of connection points: 2
#     Edge 32, Type (0, 0), BuildingBlock: TEMPAE_clean_linker_10, # of connection points: 2
#     Edge 33, Type (0, 0), BuildingBlock: TEMPAE_clean_linker_10, # of connection points: 2
#     Edge 34, Type (0, 0), BuildingBlock: TEMPAE_clean_linker_10, # of connection points: 2
#     Edge 35, Type (0, 0), BuildingBlock: TEMPAE_clean_linker_10, # of connection points: 2
#     Edge 36, Type (0, 0), BuildingBlock: TEMPAE_clean_linker_10, # of connection points: 2
#     Edge 37, Type (0, 0), BuildingBlock: TEMPAE_clean_linker_10, # of connection points: 2
#     Edge 38, Type (0, 0), BuildingBlock: TEMPAE_clean_linker_10, # of connection points: 2
#     Edge 39, Type (0, 0), BuildingBlock: TEMPAE_clean_linker_10, # of connection points: 2
#     Edge 40, Type (0, 0), BuildingBlock: TEMPAE_clean_linker_10, # of connection points: 2
#     Edge 41, Type (0, 0), BuildingBlock: TEMPAE_clean_linker_10, # of connection points: 2
#     Edge 42, Type (0, 0), BuildingBlock: TEMPAE_clean_linker_10, # of connection points: 2
#     Edge 43, Type (0, 0), BuildingBlock: TEMPAE_clean_linker_10, # of connection points: 2
#     Edge 44, Type (0, 0), BuildingBlock: TEMPAE_clean_linker_10, # of connection points: 2
#     Edge 45, Type (0, 0), BuildingBlock: TEMPAE_clean_linker_10, # of connection points: 2
#     Edge 46, Type (0, 0), BuildingBlock: TEMPAE_clean_linker_10, # of connection points: 2
#     Edge 47, Type (0, 0), BuildingBlock: TEMPAE_clean_linker_10, # of connection points: 2
#     Edge 48, Type (0, 0), BuildingBlock: TEMPAE_clean_linker_10, # of connection points: 2
#     Edge 49, Type (0, 0), BuildingBlock: TEMPAE_clean_linker_10, # of connection points: 2
#     Edge 50, Type (0, 0), BuildingBlock: TEMPAE_clean_linker_10, # of connection points: 2
#     Edge 51, Type (0, 0), BuildingBlock: TEMPAE_clean_linker_10, # of connection points: 2
#     Edge 52, Type (0, 0), BuildingBlock: TEMPAE_clean_linker_10, # of connection points: 2
#     Edge 53, Type (0, 0), BuildingBlock: TEMPAE_clean_linker_10, # of connection points: 2
# Relax obj value: 0.423
# Max RMSD: 0.186
# Mean RMSD: 0.186
data_MOF--net-unp--node1-CEKHIL_clean_sbu_0--edge1-TEMPAE_clean_linker_10
_symmetry_space_group_name_H-M    P1
_symmetry_Int_Tables_number       1
_symmetry_cell_setting            triclinic
loop_
_symmetry_equiv_pos_as_xyz
'x, y, z'
_cell_length_a     48.945199
_cell_length_b     48.862522
_cell_length_c     54.451204
_cell_angle_alpha  89.995134
_cell_angle_beta   89.987078
_cell_angle_gamma 119.96509
loop_
_atom_site_label
_atom_site_type_symbol
_atom_site_fract_x
_atom_site_fract_y
_atom_site_fract_z
_atom_type_partial_charge
Co0 Co 0.18048 0.14742 0.14775 0.0
O1 O 0.22519 0.17125 0.15091 0.0
O2 O 0.19245 0.18929 0.15937 0.0
C3 C 0.17254 0.10226 0.16538 0.0
O4 O 0.13325 0.1294 0.14803 0.0
Co5 Co 0.14883 0.08645 0.11596 0.0
O6 O 0.1095 0.08083 0.13135 0.0
C7 C 0.18439 0.14851 0.09224 0.0
C8 C 0.2211 0.19435 0.15792 0.0
C9 C 0.10856 0.10283 0.14321 0.0
O10 O 0.18419 0.16209 0.11247 0.0
O11 O 0.17466 0.11891 0.09073 0.0
O12 O 0.17596 0.12559 0.17912 0.0
O13 O 0.17793 0.10867 0.14236 0.0
Co14 Co 0.85201 0.03012 0.14014 0.0
O15 O 0.83005 0.05304 0.13951 0.0
O16 O 0.80844 0.0021 0.14909 0.0
C17 C 0.89525 0.06586 0.16043 0.0
O18 O 0.86793 -0.0009 0.14344 0.0
Co19 Co 0.91641 0.05771 0.11297 0.0
O20 O 0.91804 0.02263 0.12994 0.0
C21 C 0.85764 0.03124 0.08458 0.0
C22 C 0.80514 0.0266 0.14541 0.0
C23 C 0.89436 -0.00016 0.14051 0.0
O24 O 0.84144 0.01956 0.10431 0.0
O25 O 0.88756 0.0496 0.08456 0.0
O26 O 0.87 0.04666 0.17268 0.0
O27 O 0.89193 0.06528 0.13696 0.0
Co28 Co 0.96778 0.8173 0.13229 0.0
O29 O 0.94479 0.77243 0.12953 0.0
O30 O 0.99454 0.80049 0.14212 0.0
C31 C 0.93015 0.82308 0.15149 0.0
O32 O -0.00143 0.86396 0.13833 0.0
Co33 Co 0.94285 0.85696 0.10573 0.0
O34 O 0.97605 0.8918 0.12543 0.0
C35 C 0.97164 0.82684 0.07699 0.0
C36 C 0.97026 0.77308 0.13704 0.0
C37 C -0.00206 0.8899 0.13656 0.0
O38 O 0.98144 0.82012 0.09682 0.0
O39 O 0.95355 0.83875 0.07698 0.0
O40 O 0.94835 0.81608 0.16418 0.0
O41 O 0.93303 0.82261 0.12802 0.0
Co42 Co 0.12986 0.18109 0.87279 0.0
O43 O 0.14907 0.226 0.87382 0.0
O44 O 0.17351 0.19994 0.86292 0.0
C45 C 0.08501 0.17073 0.8535 0.0
O46 O 0.11715 0.13493 0.86825 0.0
Co47 Co 0.06666 0.1392 0.90036 0.0
O48 O 0.06726 0.10476 0.88154 0.0
C49 C 0.12566 0.17367 0.92841 0.0
C50 C 0.1748 0.22686 0.86668 0.0
C51 C 0.09166 0.1081 0.87043 0.0
O52 O 0.14185 0.18105 0.90839 0.0
O53 O 0.09552 0.15961 0.92879 0.0
O54 O 0.11047 0.179 0.84077 0.0
O55 O 0.08875 0.17292 0.87696 0.0
Co56 Co 0.80528 0.95035 0.86592 0.0
O57 O 0.76058 0.92547 0.86384 0.0
O58 O 0.78848 0.97669 0.85515 0.0
C59 C 0.81733 0.91675 0.84725 0.0
O60 O 0.85181 0.98315 0.86493 0.0
Co61 Co 0.8424 0.92582 0.8964 0.0
O62 O 0.87959 0.96191 0.88065 0.0
C63 C 0.80306 0.94699 0.92132 0.0
C64 C 0.76106 0.95123 0.85716 0.0
C65 C 0.878 0.98388 0.86925 0.0
O66 O 0.80135 0.96009 0.90133 0.0
O67 O 0.81535 0.92926 0.92236 0.0
O68 O 0.81082 0.93499 0.83407 0.0
O69 O 0.81216 0.91664 0.87043 0.0
Co70 Co 0.03712 0.85572 0.85558 0.0
O71 O 0.06014 0.83467 0.84814 0.0
O72 O 0.00801 0.81319 0.84513 0.0
C73 C 0.06908 0.90187 0.83657 0.0
O74 O 0.0053 0.87018 0.85971 0.0
Co75 Co 0.06592 0.91667 0.88724 0.0
O76 O 0.02902 0.91941 0.87504 0.0
C77 C 0.04698 0.85551 0.91059 0.0
C78 C 0.03288 0.81034 0.84295 0.0
C79 C 0.00561 0.89596 0.86483 0.0
O80 O 0.03211 0.84101 0.89095 0.0
O81 O 0.06462 0.88555 0.91174 0.0
O82 O 0.0485 0.87779 0.82383 0.0
O83 O 0.0719 0.89594 0.85917 0.0
Co84 Co 0.84597 0.47677 0.46952 0.0
O85 O 0.89078 0.49645 0.46934 0.0
O86 O 0.86397 0.52093 0.47792 0.0
C87 C 0.8361 0.43312 0.49076 0.0
O88 O 0.79965 0.46376 0.47228 0.0
Co89 Co 0.80617 0.4119 0.44355 0.0
O90 O 0.77063 0.41347 0.45968 0.0
C91 C 0.84079 0.46972 0.41398 0.0
C92 C 0.89105 0.52237 0.47505 0.0
C93 C 0.77301 0.43824 0.46947 0.0
O94 O 0.84676 0.48683 0.43342 0.0
O95 O 0.8277 0.43959 0.41465 0.0
O96 O 0.84313 0.45903 0.50246 0.0
O97 O 0.83876 0.43569 0.46725 0.0
Co98 Co 0.51991 0.37881 0.45014 0.0
O99 O 0.49839 0.4022 0.44728 0.0
O100 O 0.47722 0.35339 0.46192 0.0
C101 C 0.56504 0.41716 0.46677 0.0
O102 O 0.53537 0.34793 0.45704 0.0
Co103 Co 0.58185 0.39952 0.42101 0.0
O104 O 0.58471 0.36808 0.44235 0.0
C105 C 0.52099 0.37043 0.39503 0.0
C106 C 0.474 0.37754 0.45641 0.0
C107 C 0.56144 0.3477 0.45496 0.0
O108 O 0.50624 0.36209 0.41569 0.0
O109 O 0.55096 0.38808 0.3935 0.0
O110 O 0.54055 0.40073 0.48067 0.0
O111 O 0.55996 0.41249 0.44352 0.0
Co112 Co 0.61689 0.15324 0.47013 0.0
O113 O 0.59009 0.10856 0.46951 0.0
O114 O 0.64041 0.13331 0.48087 0.0
C115 C 0.583 0.1655 0.48826 0.0
O116 O 0.65132 0.19893 0.47404 0.0
Co117 Co 0.59744 0.19568 0.44091 0.0
O118 O 0.63419 0.2302 0.45817 0.0
C119 C 0.6203 0.15855 0.41447 0.0
C120 C 0.61444 0.10685 0.47683 0.0
C121 C 0.65435 0.22623 0.47008 0.0
O122 O 0.62924 0.15205 0.43483 0.0
O123 O 0.60431 0.17272 0.41348 0.0
O124 O 0.59945 0.15698 0.50172 0.0
O125 O 0.58498 0.16261 0.46496 0.0
Co126 Co 0.7996 0.51604 0.19476 0.0
O127 O 0.81766 0.56077 0.1929 0.0
O128 O 0.84319 0.53494 0.18478 0.0
C129 C 0.7541 0.50228 0.17516 0.0
O130 O 0.78814 0.46997 0.1935 0.0
Co131 Co 0.73742 0.47582 0.2239 0.0
O132 O 0.73883 0.43994 0.20801 0.0
C133 C 0.79663 0.51539 0.25047 0.0
C134 C 0.8437 0.56175 0.18653 0.0
C135 C 0.76336 0.44298 0.19726 0.0
O136 O 0.81233 0.51985 0.23046 0.0
O137 O 0.76648 0.50128 0.2511 0.0
O138 O 0.77953 0.51012 0.16252 0.0
O139 O 0.75819 0.50703 0.19847 0.0
Co140 Co 0.47804 0.27179 0.18226 0.0
O141 O 0.43365 0.24613 0.17725 0.0
O142 O 0.46128 0.29822 0.17214 0.0
C143 C 0.49354 0.24112 0.1629 0.0
O144 O 0.52388 0.30593 0.18403 0.0
Co145 Co 0.51498 0.24733 0.21288 0.0
O146 O 0.55247 0.28589 0.20002 0.0
C147 C 0.47392 0.26621 0.23804 0.0
C148 C 0.43415 0.27228 0.17175 0.0
C149 C 0.55037 0.30794 0.18928 0.0
O150 O 0.47071 0.27817 0.2179 0.0
O151 O 0.48789 0.25002 0.23908 0.0
O152 O 0.4873 0.25991 0.15018 0.0
O153 O 0.48624 0.23873 0.18583 0.0
Co154 Co 0.71789 0.19299 0.19913 0.0
O155 O 0.74304 0.17319 0.19949 0.0
O156 O 0.6927 0.14991 0.18828 0.0
C157 C 0.7526 0.23886 0.18115 0.0
O158 O 0.68491 0.20605 0.19507 0.0
Co159 Co 0.73836 0.2545 0.22877 0.0
O160 O 0.70352 0.25494 0.21033 0.0
C161 C 0.71607 0.19435 0.25464 0.0
C162 C 0.71785 0.14787 0.19206 0.0
C163 C 0.68318 0.23119 0.19814 0.0
O164 O 0.70517 0.17936 0.23431 0.0
O165 O 0.73302 0.22446 0.25577 0.0
O166 O 0.73586 0.21394 0.16769 0.0
O167 O 0.75074 0.2339 0.20448 0.0
Co168 Co 0.51491 0.80615 0.7959 0.0
O169 O 0.55973 0.82986 0.79368 0.0
O170 O 0.52931 0.84941 0.80524 0.0
C171 C 0.51027 0.76336 0.81543 0.0
O172 O 0.46799 0.78844 0.80121 0.0
Co173 Co 0.47806 0.74176 0.76881 0.0
O174 O 0.44131 0.73866 0.78682 0.0
C175 C 0.50971 0.80082 0.74071 0.0
C176 C 0.55737 0.85408 0.80046 0.0
C177 C 0.44241 0.76185 0.79843 0.0
O178 O 0.51226 0.81648 0.7604 0.0
O179 O 0.49988 0.77115 0.74075 0.0
O180 O 0.51647 0.7885 0.82796 0.0
O181 O 0.51129 0.76674 0.79192 0.0
Co182 Co 0.18599 0.70316 0.81348 0.0
O183 O 0.16794 0.72913 0.8199 0.0
O184 O 0.14385 0.67719 0.82616 0.0
C185 C 0.23359 0.73506 0.8302 0.0
O186 O 0.19791 0.66915 0.81084 0.0
Co187 Co 0.24452 0.72647 0.77954 0.0
O188 O 0.24629 0.69003 0.79414 0.0
C189 C 0.18262 0.70849 0.75823 0.0
C190 C 0.14312 0.7034 0.82715 0.0
C191 C 0.22291 0.66801 0.80563 0.0
O192 O 0.16906 0.69549 0.77867 0.0
O193 O 0.2126 0.72495 0.7558 0.0
O194 O 0.21002 0.71652 0.84428 0.0
O195 O 0.22656 0.73609 0.80756 0.0
Co196 Co 0.29513 0.48445 0.81051 0.0
O197 O 0.27039 0.4397 0.80736 0.0
O198 O 0.32001 0.46558 0.82044 0.0
C199 C 0.25804 0.49164 0.82919 0.0
O200 O 0.32768 0.5305 0.81695 0.0
Co201 Co 0.27368 0.52751 0.78467 0.0
O202 O 0.30695 0.56048 0.8056 0.0
C203 C 0.3011 0.49616 0.75555 0.0
C204 C 0.29503 0.43882 0.81505 0.0
C205 C 0.32834 0.55714 0.81615 0.0
O206 O 0.3092 0.48728 0.77519 0.0
O207 O 0.28458 0.50982 0.75573 0.0
O208 O 0.27539 0.48381 0.84219 0.0
O209 O 0.26172 0.49175 0.80583 0.0
Co210 Co 0.46532 0.84624 0.52023 0.0
O211 O 0.48526 0.89099 0.52307 0.0
O212 O 0.50951 0.86472 0.51199 0.0
C213 C 0.42199 0.83879 0.49976 0.0
O214 O 0.45208 0.80014 0.51461 0.0
Co215 Co 0.40021 0.80428 0.54506 0.0
O216 O 0.40159 0.77025 0.52623 0.0
C217 C 0.45744 0.83617 0.57538 0.0
C218 C 0.51118 0.89155 0.517 0.0
C219 C 0.42642 0.77337 0.51608 0.0
O220 O 0.47484 0.84374 0.55601 0.0
O221 O 0.42738 0.82317 0.57458 0.0
O222 O 0.44781 0.84651 0.48769 0.0
O223 O 0.42449 0.83919 0.52326 0.0
Co224 Co 0.14626 0.62557 0.53784 0.0
O225 O 0.10147 0.59999 0.54033 0.0
O226 O 0.12697 0.64966 0.52722 0.0
C227 C 0.15572 0.5896 0.5198 0.0
O228 O 0.1918 0.65883 0.53146 0.0
Co229 Co 0.19053 0.60686 0.565 0.0
O230 O 0.22365 0.64101 0.54468 0.0
C231 C 0.15713 0.63294 0.59301 0.0
C232 C 0.10031 0.62438 0.53216 0.0
C233 C 0.21898 0.66099 0.53312 0.0
O234 O 0.14807 0.64007 0.57298 0.0
O235 O 0.17167 0.61728 0.59346 0.0
O236 O 0.14686 0.60591 0.5065 0.0
O237 O 0.15498 0.59309 0.54317 0.0
Co238 Co 0.37058 0.52117 0.53268 0.0
O239 O 0.3946 0.50028 0.53194 0.0
O240 O 0.34413 0.47824 0.52138 0.0
C241 C 0.40634 0.56651 0.51457 0.0
O242 O 0.33878 0.53635 0.53024 0.0
Co243 Co 0.39508 0.58288 0.56315 0.0
O244 O 0.36044 0.58535 0.54614 0.0
C245 C 0.37271 0.52195 0.58787 0.0
C246 C 0.36907 0.47554 0.52436 0.0
C247 C 0.33857 0.56221 0.53433 0.0
O248 O 0.35895 0.50744 0.56796 0.0
O249 O 0.39121 0.55187 0.58893 0.0
O250 O 0.38824 0.54203 0.50113 0.0
O251 O 0.40466 0.56128 0.53786 0.0
C252 C 0.37786 0.24402 0.16032 0.0
C253 C 0.40463 0.2723 0.16695 0.0
C254 C 0.34844 0.24194 0.15872 0.0
C255 C 0.3457 0.26889 0.16412 0.0
C256 C 0.37299 0.29807 0.16954 0.0
C257 C 0.40232 0.29944 0.17088 0.0
C258 C 0.32011 0.21035 0.15228 0.0
C259 C 0.37128 0.32739 0.17523 0.0
C260 C 0.26527 0.2435 0.14221 0.0
C261 C 0.24861 0.2252 0.16249 0.0
C262 C 0.29792 0.2638 0.14365 0.0
C263 C 0.31366 0.26478 0.16569 0.0
C264 C 0.29594 0.25109 0.18731 0.0
C265 C 0.26331 0.23091 0.18538 0.0
C266 C 0.31594 0.27954 0.12056 0.0
C267 C 0.31185 0.25306 0.21148 0.0
H268 H 0.37976 0.22316 0.15696 0.0
H269 H 0.42312 0.32139 0.17607 0.0
H270 H 0.3034 0.20148 0.16796 0.0
H271 H 0.30751 0.21286 0.13628 0.0
H272 H 0.3267 0.19223 0.14772 0.0
H273 H 0.39358 0.34903 0.17007 0.0
H274 H 0.35136 0.32754 0.16565 0.0
H275 H 0.36788 0.32842 0.19528 0.0
H276 H 0.25358 0.23905 0.12453 0.0
H277 H 0.25013 0.21672 0.20104 0.0
H278 H 0.32329 0.26391 0.11147 0.0
H279 H 0.3375 0.3023 0.12478 0.0
H280 H 0.3011 0.28386 0.10745 0.0
H281 H 0.3203 0.23579 0.21151 0.0
H282 H 0.29535 0.24747 0.22716 0.0
H283 H 0.33255 0.27696 0.2142 0.0
C284 C 0.76886 0.04472 0.13238 0.0
C285 C 0.7749 0.02561 0.14795 0.0
C286 C 0.74699 0.05379 0.13899 0.0
C287 C 0.73141 0.04372 0.16188 0.0
C288 C 0.73302 0.01967 0.17517 0.0
C289 C 0.75525 0.01095 0.16814 0.0
C290 C 0.74464 0.07815 0.12348 0.0
C291 C 0.71455 0.00643 0.19854 0.0
C292 C 0.74533 0.11709 0.19434 0.0
C293 C 0.71832 0.11834 0.18797 0.0
C294 C 0.74849 0.09118 0.18792 0.0
C295 C 0.7238 0.06569 0.17488 0.0
C296 C 0.69514 0.06538 0.17057 0.0
C297 C 0.69279 0.09197 0.17703 0.0
C298 C 0.77946 0.09251 0.19336 0.0
C299 C 0.66761 0.03813 0.15789 0.0
H300 H 0.78343 0.05503 0.11622 0.0
H301 H 0.75941 0.99542 0.1798 0.0
H302 H 0.7197 0.07207 0.12152 0.0
H303 H 0.75765 0.10158 0.13256 0.0
H304 H 0.75479 0.08017 0.10486 0.0
H305 H 0.71052 0.98234 0.20224 0.0
H306 H 0.72799 0.0218 0.2142 0.0
H307 H 0.69146 0.00556 0.19759 0.0
H308 H 0.76476 0.13706 0.20344 0.0
H309 H 0.67147 0.09251 0.17262 0.0
H310 H 0.79166 0.09352 0.17592 0.0
H311 H 0.77524 0.07103 0.2034 0.0
H312 H 0.79554 0.11343 0.20458 0.0
H313 H 0.66718 0.04426 0.13833 0.0
H314 H 0.64506 0.0337 0.16627 0.0
H315 H 0.66882 0.01607 0.15875 0.0
C316 C 0.9001 0.59399 0.17278 0.0
C317 C 0.8722 0.59227 0.18126 0.0
C318 C 0.92609 0.62314 0.16582 0.0
C319 C 0.92383 0.65085 0.16741 0.0
C320 C 0.89629 0.64928 0.17731 0.0
C321 C 0.87095 0.62007 0.18413 0.0
C322 C 0.95558 0.62421 0.15633 0.0
C323 C 0.89269 0.67821 0.17943 0.0
C324 C 0.98046 0.73734 0.16309 0.0
C325 C 0.96994 0.74324 0.14089 0.0
C326 C 0.96944 0.7061 0.17078 0.0
C327 C 0.94758 0.68089 0.15585 0.0
C328 C 0.94154 0.68714 0.13167 0.0
C329 C 0.95262 0.71842 0.12457 0.0
C330 C 0.97754 0.70027 0.19623 0.0
C331 C 0.91913 0.66102 0.11479 0.0
H332 H 0.90134 0.57254 0.171 0.0
H333 H 0.84966 0.61898 0.19106 0.0
H334 H 0.96249 0.63632 0.13829 0.0
H335 H 0.97532 0.63804 0.16922 0.0
H336 H 0.95263 0.60024 0.15439 0.0
H337 H 0.87023 0.67297 0.18846 0.0
H338 H 0.91246 0.69686 0.19019 0.0
H339 H 0.89328 0.68792 0.16089 0.0
H340 H 0.99425 0.75672 0.17556 0.0
H341 H 0.94517 0.72327 0.10712 0.0
H342 H 0.97863 0.67815 0.19691 0.0
H343 H 0.95899 0.69779 0.20926 0.0
H344 H 0.00045 0.72026 0.20252 0.0
H345 H 0.92278 0.64041 0.11577 0.0
H346 H 0.92195 0.66912 0.09541 0.0
H347 H 0.8945 0.65303 0.12053 0.0
C348 C 0.30843 0.40312 0.83848 0.0
C349 C 0.29318 0.40816 0.8187 0.0
C350 C 0.29893 0.37221 0.84629 0.0
C351 C 0.27365 0.34642 0.83407 0.0
C352 C 0.26191 0.35158 0.81184 0.0
C353 C 0.27176 0.38252 0.8045 0.0
C354 C 0.31335 0.36739 0.86916 0.0
C355 C 0.23577 0.32471 0.79765 0.0
C356 C 0.22962 0.25937 0.84981 0.0
C357 C 0.2036 0.25742 0.86226 0.0
C358 C 0.2548 0.28883 0.84247 0.0
C359 C 0.25342 0.31655 0.84745 0.0
C360 C 0.22851 0.31471 0.86195 0.0
C361 C 0.20403 0.28519 0.86922 0.0
C362 C 0.28155 0.28978 0.82802 0.0
C363 C 0.22612 0.34365 0.86804 0.0
H364 H 0.32555 0.42307 0.84918 0.0
H365 H 0.26076 0.38658 0.7887 0.0
H366 H 0.29875 0.36569 0.88531 0.0
H367 H 0.31422 0.34515 0.86807 0.0
H368 H 0.33757 0.38749 0.87222 0.0
H369 H 0.23237 0.33232 0.77923 0.0
H370 H 0.24086 0.30517 0.79528 0.0
H371 H 0.21333 0.31533 0.80803 0.0
H372 H 0.22968 0.23794 0.84479 0.0
H373 H 0.18436 0.28384 0.87941 0.0
H374 H 0.30354 0.31295 0.82965 0.0
H375 H 0.27489 0.28546 0.80834 0.0
H376 H 0.28628 0.27089 0.83426 0.0
H377 H 0.24826 0.36203 0.87664 0.0
H378 H 0.20629 0.33826 0.88075 0.0
H379 H 0.22248 0.35377 0.85093 0.0
C380 C 0.703 0.92405 0.85868 0.0
C381 C 0.73133 0.95065 0.85176 0.0
C382 C 0.67417 0.91951 0.85022 0.0
C383 C 0.67366 0.94243 0.83454 0.0
C384 C 0.70188 0.97117 0.82993 0.0
C385 C 0.73065 0.9749 0.83849 0.0
C386 C 0.64469 0.88859 0.85618 0.0
C387 C 0.70232 0.99713 0.81468 0.0
C388 C 0.61288 0.8912 0.79017 0.0
C389 C 0.58595 0.88496 0.8035 0.0
C390 C 0.64265 0.91495 0.79767 0.0
C391 C 0.64521 0.9323 0.8192 0.0
C392 C 0.61777 0.93012 0.82975 0.0
C393 C 0.58807 0.90598 0.82189 0.0
C394 C 0.67135 0.91786 0.78486 0.0
C395 C 0.6198 0.9504 0.85129 0.0
H396 H 0.70341 0.90577 0.8697 0.0
H397 H 0.75255 0.99597 0.83367 0.0
H398 H 0.62641 0.89304 0.8641 0.0
H399 H 0.63492 0.87454 0.83916 0.0
H400 H 0.64923 0.87407 0.86947 0.0
H401 H 0.71887 0.02053 0.8228 0.0
H402 H 0.71112 0.99669 0.79598 0.0
H403 H 0.67865 0.99481 0.8131 0.0
H404 H 0.61097 0.87572 0.77518 0.0
H405 H 0.56703 0.90182 0.83167 0.0
H406 H 0.68229 0.90728 0.7965 0.0
H407 H 0.68912 0.94305 0.78189 0.0
H408 H 0.66537 0.90564 0.7668 0.0
H409 H 0.62042 0.93874 0.8686 0.0
H410 H 0.59891 0.95365 0.85199 0.0
H411 H 0.64156 0.97389 0.85037 0.0
C412 C 0.08545 0.6837 0.82514 0.0
C413 C 0.11515 0.70453 0.83501 0.0
C414 C 0.06077 0.69045 0.82703 0.0
C415 C 0.06636 0.71841 0.83915 0.0
C416 C 0.09517 0.73707 0.85181 0.0
C417 C 0.11937 0.73005 0.84928 0.0
C418 C 0.03014 0.6694 0.81396 0.0
C419 C 0.10192 0.76661 0.86567 0.0
C420 C 0.04845 0.77939 0.81696 0.0
C421 C 0.0308 0.78033 0.83671 0.0
C422 C 0.05587 0.75532 0.81522 0.0
C423 C 0.04635 0.73265 0.83432 0.0
C424 C 0.02482 0.73108 0.85237 0.0
C425 C 0.01719 0.75519 0.85337 0.0
C426 C 0.07775 0.75703 0.79497 0.0
C427 C 0.01326 0.7066 0.87248 0.0
H428 H 0.0823 0.6638 0.81417 0.0
H429 H 0.14235 0.74576 0.85719 0.0
H430 H 0.01008 0.67034 0.82257 0.0
H431 H 0.03208 0.67724 0.7946 0.0
H432 H 0.02497 0.64452 0.81381 0.0
H433 H 0.12379 0.77607 0.87683 0.0
H434 H 0.10478 0.78517 0.85247 0.0
H435 H 0.08205 0.76183 0.87807 0.0
H436 H 0.05857 0.79886 0.80401 0.0
H437 H 0.00338 0.75608 0.86861 0.0
H438 H 0.07038 0.73314 0.7877 0.0
H439 H 0.10201 0.76702 0.80239 0.0
H440 H 0.07842 0.77226 0.77956 0.0
H441 H 0.01043 0.68389 0.86574 0.0
H442 H 0.99041 0.70242 0.88007 0.0
H443 H 0.03073 0.7151 0.88765 0.0
C444 C 0.92427 0.57409 0.49625 0.0
C445 C 0.92129 0.55146 0.47902 0.0
C446 C 0.95426 0.59704 0.50462 0.0
C447 C 0.98125 0.59674 0.49562 0.0
C448 C 0.97828 0.57683 0.47568 0.0
C449 C 0.94823 0.55433 0.46769 0.0
C450 C 0.95672 0.61929 0.52479 0.0
C451 C 0.0065 0.57641 0.46485 0.0
C452 C 0.06735 0.64406 0.51204 0.0
C453 C 0.06972 0.62229 0.5274 0.0
C454 C 0.03778 0.63819 0.50359 0.0
C455 C 0.01041 0.60983 0.51053 0.0
C456 C 0.0126 0.58983 0.5283 0.0
C457 C 0.04228 0.59636 0.53651 0.0
C458 C 0.03635 0.66099 0.48569 0.0
C459 C 0.98398 0.55959 0.53668 0.0
H460 H 0.90335 0.57231 0.50462 0.0
H461 H 0.94582 0.53743 0.45372 0.0
H462 H 0.95592 0.60846 0.54288 0.0
H463 H 0.97924 0.64207 0.52362 0.0
H464 H 0.93673 0.62396 0.52401 0.0
H465 H 0.00045 0.56211 0.44777 0.0
H466 H 0.02552 0.60074 0.4606 0.0
H467 H 0.01592 0.56623 0.47839 0.0
H468 H 0.08857 0.66458 0.50537 0.0
H469 H 0.04402 0.58001 0.54899 0.0
H470 H 0.0131 0.65979 0.48613 0.0
H471 H 0.04037 0.6552 0.46681 0.0
H472 H 0.05513 0.68559 0.48969 0.0
H473 H 0.96499 0.56422 0.54259 0.0
H474 H 0.98944 0.54829 0.55217 0.0
H475 H 0.97473 0.54256 0.5212 0.0
C476 C 0.34928 0.42514 0.50075 0.0
C477 C 0.36975 0.44659 0.51827 0.0
C478 C 0.35556 0.40244 0.49051 0.0
C479 C 0.38306 0.40192 0.49782 0.0
C480 C 0.40104 0.42061 0.51793 0.0
C481 C 0.39407 0.4427 0.52792 0.0
C482 C 0.33457 0.38132 0.47032 0.0
C483 C 0.43009 0.42027 0.52692 0.0
C484 C 0.42156 0.35584 0.47728 0.0
C485 C 0.44498 0.37841 0.46191 0.0
C486 C 0.39776 0.36088 0.48684 0.0
C487 C 0.39811 0.38933 0.48119 0.0
C488 C 0.41935 0.41005 0.46325 0.0
C489 C 0.44244 0.4042 0.45376 0.0
C490 C 0.37424 0.33718 0.50463 0.0
C491 C 0.42027 0.44043 0.4562 0.0
H492 H 0.3299 0.42759 0.4937 0.0
H493 H 0.40922 0.45859 0.54214 0.0
H494 H 0.34288 0.39351 0.4524 0.0
H495 H 0.33492 0.3588 0.46947 0.0
H496 H 0.30988 0.37599 0.47297 0.0
H497 H 0.43967 0.43414 0.54408 0.0
H498 H 0.42468 0.39572 0.53042 0.0
H499 H 0.44875 0.43046 0.51263 0.0
H500 H 0.42292 0.33534 0.48312 0.0
H501 H 0.45991 0.42116 0.44122 0.0
H502 H 0.35209 0.33818 0.50516 0.0
H503 H 0.38457 0.34215 0.52335 0.0
H504 H 0.36855 0.31284 0.49967 0.0
H505 H 0.3964 0.43577 0.45114 0.0
H506 H 0.43641 0.45245 0.44052 0.0
H507 H 0.42842 0.45685 0.4721 0.0
C508 C 0.6337 0.07211 0.49459 0.0
C509 C 0.61194 0.07582 0.4803 0.0
C510 C 0.62801 0.04177 0.5008 0.0
C511 C 0.59986 0.01498 0.49267 0.0
C512 C 0.57967 0.01884 0.47615 0.0
C513 C 0.58604 0.04921 0.47018 0.0
C514 C 0.651 0.03874 0.51742 0.0
C515 C 0.54959 0.99102 0.46656 0.0
C516 C 0.5639 0.92745 0.4982 0.0
C517 C 0.54074 0.9219 0.51572 0.0
C518 C 0.58752 0.95854 0.49278 0.0
C519 C 0.58726 0.98398 0.50502 0.0
C520 C 0.56696 0.97787 0.52533 0.0
C521 C 0.54377 0.9468 0.53033 0.0
C522 C 0.61034 0.96423 0.47219 0.0
C523 C 0.56669 0.00424 0.53962 0.0
H524 H 0.65422 0.09274 0.50198 0.0
H525 H 0.56973 0.05205 0.45845 0.0
H526 H 0.6461 0.04201 0.53677 0.0
H527 H 0.64929 0.01531 0.51573 0.0
H528 H 0.67556 0.05744 0.51323 0.0
H529 H 0.53776 0.99813 0.45261 0.0
H530 H 0.55458 0.97333 0.45814 0.0
H531 H 0.53289 0.97934 0.48197 0.0
H532 H 0.56205 0.908 0.48734 0.0
H533 H 0.52648 0.94223 0.54456 0.0
H534 H 0.6333 0.98601 0.47545 0.0
H535 H 0.6005 0.96722 0.4547 0.0
H536 H 0.61434 0.94389 0.47002 0.0
H537 H 0.591 0.02243 0.54474 0.0
H538 H 0.55232 0.99552 0.55663 0.0
H539 H 0.55668 0.01577 0.52801 0.0
C540 C 0.07595 0.11366 0.1727 0.0
C541 C 0.0778 0.09764 0.15193 0.0
C542 C 0.04687 0.10959 0.18069 0.0
C543 C 0.01925 0.08958 0.16726 0.0
C544 C 0.02096 0.07249 0.14684 0.0
C545 C 0.05018 0.07661 0.13952 0.0
C546 C 0.04578 0.12723 0.20307 0.0
C547 C 0.99206 0.05062 0.13217 0.0
C548 C 0.93421 0.05929 0.18527 0.0
C549 C 0.92724 0.0783 0.17028 0.0
C550 C 0.96512 0.0644 0.18648 0.0
C551 C 0.9892 0.0891 0.17242 0.0
C552 C 0.98277 0.11053 0.15972 0.0
C553 C 0.9518 0.10486 0.15886 0.0
C554 C 0.971 0.04128 0.20061 0.0
C555 C 0.00766 0.13722 0.14452 0.0
H556 H 0.09726 0.12945 0.18269 0.0
H557 H 0.05151 0.06411 0.12353 0.0
H558 H 0.04023 0.14574 0.19747 0.0
H559 H 0.02679 0.11091 0.2157 0.0
H560 H 0.06853 0.13869 0.21319 0.0
H561 H -0.00278 0.03829 0.1173 0.0
H562 H 0.97413 0.03261 0.14453 0.0
H563 H 0.9818 0.0642 0.12383 0.0
H564 H 0.91515 0.0385 0.19391 0.0
H565 H 0.94628 0.1195 0.14726 0.0
H566 H 0.99534 0.05274 0.20806 0.0
H567 H 0.96785 0.02193 0.18816 0.0
H568 H 0.95398 0.03052 0.21599 0.0
H569 H 0.02987 0.15056 0.15506 0.0
H570 H -0.0001 0.15394 0.13835 0.0
H571 H 0.01295 0.12732 0.12802 0.0
C572 C 0.87798 0.95266 0.16773 0.0
C573 C 0.89745 0.97285 0.14909 0.0
C574 C 0.88042 0.92639 0.17517 0.0
C575 C 0.90234 0.91997 0.1633 0.0
C576 C 0.92275 0.94103 0.14514 0.0
C577 C 0.92008 0.96715 0.13833 0.0
C578 C 0.85908 0.90513 0.1952 0.0
C579 C 0.94664 0.93535 0.13207 0.0
C580 C 0.93131 0.8638 0.17971 0.0
C581 C 0.91556 0.84057 0.16177 0.0
C582 C 0.92466 0.88848 0.18268 0.0
C583 C 0.9019 0.88965 0.1673 0.0
C584 C 0.88324 0.86394 0.15153 0.0
C585 C 0.89034 0.83968 0.14899 0.0
C586 C 0.94457 0.91499 0.20017 0.0
C587 C 0.85866 0.86403 0.13482 0.0
H588 H 0.86079 0.95732 0.17642 0.0
H589 H 0.9351 0.98255 0.12385 0.0
H590 H 0.84073 0.88253 0.1871 0.0
H591 H 0.87268 0.89942 0.20851 0.0
H592 H 0.84716 0.91605 0.20523 0.0
H593 H 0.96156 0.95467 0.11909 0.0
H594 H 0.96227 0.9332 0.14569 0.0
H595 H 0.93431 0.91287 0.12163 0.0
H596 H 0.95096 0.86461 0.18955 0.0
H597 H 0.87809 0.82154 0.13521 0.0
H598 H 0.9311 0.9257 0.20794 0.0
H599 H 0.96523 0.93371 0.19017 0.0
H600 H 0.95353 0.90659 0.21546 0.0
H601 H 0.8438 0.87149 0.14491 0.0
H602 H 0.8431 0.84042 0.12659 0.0
H603 H 0.87059 0.88119 0.1197 0.0
C604 C 0.15597 0.04625 0.15861 0.0
C605 C 0.15344 0.06885 0.17272 0.0
C606 C 0.13153 0.01479 0.15802 0.0
C607 C 0.10404 0.00565 0.17219 0.0
C608 C 0.10314 0.02751 0.18885 0.0
C609 C 0.12793 0.05908 0.18885 0.0
C610 C 0.13359 0.9925 0.13988 0.0
C611 C 0.07463 0.01859 0.2047 0.0
C612 C 0.02998 0.94849 0.13802 0.0
C613 C 0.02399 0.91924 0.14718 0.0
C614 C 0.05504 0.97674 0.14691 0.0
C615 C 0.07467 0.97591 0.16567 0.0
C616 C 0.06792 0.94653 0.17587 0.0
C617 C 0.04281 0.91842 0.1663 0.0
C618 C 0.06132 0.00738 0.1353 0.0
C619 C 0.08759 0.94479 0.19648 0.0
H620 H 0.17581 0.05382 0.14621 0.0
H621 H 0.12578 0.07652 0.1997 0.0
H622 H 0.12564 0.96909 0.14835 0.0
H623 H 0.11783 0.98891 0.12407 0.0
H624 H 0.15795 0.00183 0.1328 0.0
H625 H 0.08084 0.0343 0.22098 0.0
H626 H 0.05676 0.02104 0.19388 0.0
H627 H 0.06373 0.99372 0.21101 0.0
H628 H 0.01562 0.94936 0.12321 0.0
H629 H 0.03793 0.89585 0.17377 0.0
H630 H 0.08405 0.018 0.12522 0.0
H631 H 0.06327 0.02429 0.14968 0.0
H632 H 0.04249 0.00413 0.12224 0.0
H633 H 0.11127 0.95102 0.18944 0.0
H634 H 0.07665 0.92081 0.20472 0.0
H635 H 0.09102 0.96209 0.21106 0.0
C636 C 0.06041 0.94257 0.81589 0.0
C637 C 0.07985 0.93489 0.82964 0.0
C638 C 0.06454 0.9732 0.81695 0.0
C639 C 0.08844 0.99623 0.83223 0.0
C640 C 0.11021 0.98936 0.84381 0.0
C641 C 0.10574 0.95881 0.84221 0.0
C642 C 0.04123 0.9797 0.80384 0.0
C643 C 0.1359 0.01298 0.86043 0.0
C644 C 0.10819 0.08171 0.83896 0.0
C645 C 0.09029 0.07967 0.85974 0.0
C646 C 0.10657 0.05447 0.82879 0.0
C647 C 0.08723 0.02479 0.84006 0.0
C648 C 0.06867 0.02272 0.86071 0.0
C649 C 0.07027 0.05009 0.87016 0.0
C650 C 0.12579 0.05743 0.80624 0.0
C651 C 0.04792 0.99172 0.8735 0.0
H652 H 0.04022 0.92409 0.80627 0.0
H653 H 0.12086 0.95286 0.85275 0.0
H654 H 0.02194 0.97565 0.81667 0.0
H655 H 0.05254 0.00455 0.79742 0.0
H656 H 0.03052 0.9637 0.78786 0.0
H657 H 0.15326 0.00553 0.86535 0.0
H658 H 0.14864 0.03656 0.85163 0.0
H659 H 0.12515 0.01547 0.87762 0.0
H660 H 0.12324 0.10454 0.83056 0.0
H661 H 0.05641 0.0484 0.88622 0.0
H662 H 0.1107 0.03994 0.79218 0.0
H663 H 0.14473 0.05221 0.81104 0.0
H664 H 0.1368 0.08147 0.79809 0.0
H665 H 0.03342 0.9938 0.8883 0.0
H666 H 0.06282 0.9829 0.8817 0.0
H667 H 0.03188 0.97396 0.86005 0.0
C668 C 0.04781 0.12503 0.82784 0.0
C669 C 0.0532 0.14973 0.84379 0.0
C670 C 0.01774 0.09798 0.82624 0.0
C671 C 0.99284 0.09601 0.84086 0.0
C672 C -0.00248 0.12261 0.8546 0.0
C673 C 0.02771 0.14917 0.85588 0.0
C674 C 0.01375 0.07041 0.81103 0.0
C675 C 0.97171 0.12168 0.87043 0.0
C676 C 0.90772 0.0294 0.84054 0.0
C677 C 0.90761 0.01137 0.86066 0.0
C678 C 0.93577 0.05602 0.83271 0.0
C679 C 0.96409 0.06504 0.84563 0.0
C680 C 0.9642 0.04614 0.86533 0.0
C681 C 0.93601 0.01954 0.87254 0.0
C682 C 0.93502 0.07488 0.81104 0.0
C683 C 0.99391 0.05457 0.87941 0.0
H684 H 0.0676 0.12528 0.81866 0.0
H685 H 0.03199 0.16835 0.86821 0.0
H686 H 0.01868 0.0547 0.82263 0.0
H687 H 0.98939 0.05634 0.8038 0.0
H688 H 0.0306 0.07854 0.7954 0.0
H689 H 0.97792 0.14547 0.87739 0.0
H690 H 0.94929 0.11191 0.86005 0.0
H691 H 0.96755 0.10598 0.88643 0.0
H692 H 0.88587 0.02273 0.83094 0.0
H693 H 0.93606 0.00565 0.88805 0.0
H694 H 0.95424 0.07938 0.79798 0.0
H695 H 0.93905 0.09818 0.81738 0.0
H696 H 0.91212 0.06265 0.80116 0.0
H697 H 0.01223 0.0562 0.86658 0.0
H698 H 0.99015 0.03692 0.89382 0.0
H699 H 0.00298 0.07798 0.88828 0.0
C700 C 0.97039 0.91883 0.87021 0.0
C701 C 0.97806 0.89868 0.85754 0.0
C702 C 0.94387 0.921 0.86359 0.0
C703 C 0.92469 0.90265 0.84376 0.0
C704 C 0.9331 0.88327 0.83026 0.0
C705 C 0.95957 0.88132 0.83743 0.0
C706 C 0.9358 0.94213 0.87834 0.0
C707 C 0.91373 0.8641 0.80861 0.0
C708 C 0.84017 0.88225 0.85195 0.0
C709 C 0.83977 0.9069 0.83919 0.0
C710 C 0.86711 0.87923 0.85211 0.0
C711 C 0.8942 0.90136 0.83903 0.0
C712 C 0.89278 0.9243 0.824 0.0
C713 C 0.86538 0.92678 0.82421 0.0
C714 C 0.86756 0.85437 0.86834 0.0
C715 C 0.92105 0.94819 0.8096 0.0
H716 H 0.98465 0.93229 0.88572 0.0
H717 H 0.96585 0.8662 0.82723 0.0
H718 H 0.93275 0.95834 0.8659 0.0
H719 H 0.91312 0.92757 0.8881 0.0
H720 H 0.95426 0.95647 0.89207 0.0
H721 H 0.92514 0.85264 0.7986 0.0
H722 H 0.89018 0.84545 0.81502 0.0
H723 H 0.9099 0.87937 0.79563 0.0
H724 H 0.82032 0.86695 0.86357 0.0
H725 H 0.86528 0.94617 0.8146 0.0
H726 H 0.88312 0.86596 0.88437 0.0
H727 H 0.87724 0.84138 0.85826 0.0
H728 H 0.84368 0.83706 0.87524 0.0
H729 H 0.93698 0.96776 0.82197 0.0
H730 H 0.91397 0.95845 0.79435 0.0
H731 H 0.93457 0.9375 0.80192 0.0
C732 C 0.74439 0.46306 0.48968 0.0
C733 C 0.7436 0.43774 0.47685 0.0
C734 C 0.71648 0.4637 0.49453 0.0
C735 C 0.68731 0.43864 0.48608 0.0
C736 C 0.68625 0.41213 0.47462 0.0
C737 C 0.71432 0.41207 0.4701 0.0
C738 C 0.71843 0.49187 0.50756 0.0
C739 C 0.65575 0.38476 0.46528 0.0
C740 C 0.60415 0.42132 0.49832 0.0
C741 C 0.59764 0.43119 0.476 0.0
C742 C 0.63463 0.42667 0.50334 0.0
C743 C 0.65865 0.44178 0.48545 0.0
C744 C 0.65284 0.45481 0.46422 0.0
C745 C 0.62245 0.44958 0.45989 0.0
C746 C 0.64015 0.41332 0.52657 0.0
C747 C 0.67767 0.47106 0.4446 0.0
H748 H 0.76684 0.48279 0.49537 0.0
H749 H 0.71327 0.39239 0.46016 0.0
H750 H 0.71665 0.50776 0.49391 0.0
H751 H 0.69863 0.48438 0.52071 0.0
H752 H 0.74107 0.50555 0.5176 0.0
H753 H 0.65835 0.3642 0.46004 0.0
H754 H 0.63692 0.3769 0.47934 0.0
H755 H 0.64792 0.39245 0.44886 0.0
H756 H 0.58506 0.4072 0.51092 0.0
H757 H 0.61752 0.45763 0.44277 0.0
H758 H 0.66435 0.42878 0.53372 0.0
H759 H 0.6375 0.38983 0.5226 0.0
H760 H 0.62283 0.41022 0.54104 0.0
H761 H 0.70036 0.48891 0.45285 0.0
H762 H 0.67054 0.48292 0.43067 0.0
H763 H 0.68178 0.45335 0.43508 0.0
C764 C 0.585 0.31296 0.45735 0.0
C765 C 0.56436 0.3222 0.46702 0.0
C766 C 0.58683 0.28757 0.46741 0.0
C767 C 0.56783 0.27119 0.48792 0.0
C768 C 0.54844 0.28171 0.49879 0.0
C769 C 0.54656 0.30686 0.48798 0.0
C770 C 0.60817 0.27752 0.45534 0.0
C771 C 0.52913 0.26589 0.5214 0.0
C772 C 0.54663 0.18607 0.4844 0.0
C773 C 0.572 0.18686 0.49686 0.0
C774 C 0.54308 0.21272 0.48344 0.0
C775 C 0.56538 0.24077 0.49548 0.0
C776 C 0.58861 0.24032 0.51078 0.0
C777 C 0.59172 0.21321 0.51126 0.0
C778 C 0.51801 0.21199 0.46681 0.0
C779 C 0.61235 0.26933 0.52451 0.0
H780 H 0.59897 0.32487 0.44126 0.0
H781 H 0.5311 0.31444 0.49588 0.0
H782 H 0.6257 0.27879 0.46884 0.0
H783 H 0.5941 0.2527 0.44897 0.0
H784 H 0.62113 0.2926 0.43936 0.0
H785 H 0.5192 0.27979 0.52976 0.0
H786 H 0.50934 0.24218 0.51655 0.0
H787 H 0.54377 0.2625 0.5353 0.0
H788 H 0.53146 0.16562 0.47325 0.0
H789 H 0.61159 0.21399 0.52073 0.0
H790 H 0.52931 0.22588 0.44997 0.0
H791 H 0.50552 0.22287 0.47593 0.0
H792 H 0.50034 0.18754 0.46126 0.0
H793 H 0.63318 0.28338 0.51261 0.0
H794 H 0.62067 0.26273 0.54128 0.0
H795 H 0.60241 0.28451 0.52985 0.0
C796 C 0.82015 0.37676 0.49247 0.0
C797 C 0.8164 0.40154 0.50137 0.0
C798 C 0.79526 0.34549 0.49342 0.0
C799 C 0.76581 0.33915 0.5031 0.0
C800 C 0.76327 0.36364 0.51493 0.0
C801 C 0.78885 0.39471 0.51409 0.0
C802 C 0.79923 0.32019 0.48081 0.0
C803 C 0.73242 0.35796 0.52561 0.0
C804 C 0.69505 0.28243 0.46535 0.0
C805 C 0.68282 0.25457 0.479 0.0
C806 C 0.72206 0.30981 0.47305 0.0
C807 C 0.7368 0.30978 0.49545 0.0
C808 C 0.72429 0.28177 0.5096 0.0
C809 C 0.69755 0.25424 0.50102 0.0
C810 C 0.73437 0.33897 0.45731 0.0
C811 C 0.73894 0.28103 0.53378 0.0
H812 H 0.84154 0.38217 0.4826 0.0
H813 H 0.78584 0.41395 0.52078 0.0
H814 H 0.78683 0.29752 0.49097 0.0
H815 H 0.7888 0.31612 0.46214 0.0
H816 H 0.8245 0.32717 0.47894 0.0
H817 H 0.73615 0.3764 0.53927 0.0
H818 H 0.71741 0.35869 0.51065 0.0
H819 H 0.71941 0.33441 0.53449 0.0
H820 H 0.68369 0.28269 0.44832 0.0
H821 H 0.6878 0.23269 0.51174 0.0
H822 H 0.76003 0.34945 0.45392 0.0
H823 H 0.73062 0.3565 0.4673 0.0
H824 H 0.72212 0.33423 0.43932 0.0
H825 H 0.76405 0.28797 0.53108 0.0
H826 H 0.7265 0.25732 0.5425 0.0
H827 H 0.73844 0.29845 0.54657 0.0
C828 C 0.74436 0.27654 0.15569 0.0
C829 C 0.76281 0.27112 0.17251 0.0
C830 C 0.74643 0.30628 0.15439 0.0
C831 C 0.76745 0.33082 0.17025 0.0
C832 C 0.78853 0.32625 0.18517 0.0
C833 C 0.78596 0.29644 0.18605 0.0
C834 C 0.72379 0.31018 0.13796 0.0
C835 C 0.8113 0.35166 0.2024 0.0
C836 C 0.78332 0.4153 0.17008 0.0
C837 C 0.76324 0.41411 0.18899 0.0
C838 C 0.7837 0.38794 0.16264 0.0
C839 C 0.76396 0.35897 0.17469 0.0
C840 C 0.74292 0.35755 0.19319 0.0
C841 C 0.7428 0.38507 0.20006 0.0
C842 C 0.80564 0.39012 0.1423 0.0
C843 C 0.7213 0.32717 0.20644 0.0
H844 H 0.72617 0.2569 0.14537 0.0
H845 H 0.80022 0.29217 0.19905 0.0
H846 H 0.70241 0.305 0.14862 0.0
H847 H 0.73442 0.33467 0.13083 0.0
H848 H 0.71624 0.29353 0.1222 0.0
H849 H 0.82863 0.34578 0.21038 0.0
H850 H 0.82435 0.37467 0.19279 0.0
H851 H 0.79793 0.35456 0.21767 0.0
H852 H 0.79877 0.43762 0.16113 0.0
H853 H 0.72728 0.38398 0.21471 0.0
H854 H 0.79262 0.37131 0.12849 0.0
H855 H 0.82454 0.38637 0.1499 0.0
H856 H 0.81679 0.41344 0.13294 0.0
H857 H 0.70692 0.3085 0.19295 0.0
H858 H 0.7051 0.32966 0.21936 0.0
H859 H 0.73555 0.31928 0.21695 0.0
C860 C 0.71815 0.45451 0.15085 0.0
C861 C 0.72243 0.47934 0.16622 0.0
C862 C 0.68875 0.42658 0.14964 0.0
C863 C 0.66338 0.42383 0.16405 0.0
C864 C 0.66686 0.45026 0.17737 0.0
C865 C 0.69641 0.47772 0.17827 0.0
C866 C 0.68596 0.39908 0.135 0.0
C867 C 0.64045 0.44844 0.19292 0.0
C868 C 0.57967 0.35469 0.16182 0.0
C869 C 0.57959 0.33678 0.182 0.0
C870 C 0.60725 0.38235 0.15484 0.0
C871 C 0.63515 0.39245 0.16862 0.0
C872 C 0.63534 0.3739 0.18856 0.0
C873 C 0.60756 0.34631 0.195 0.0
C874 C 0.60641 0.40108 0.1331 0.0
C875 C 0.66467 0.3837 0.20361 0.0
H876 H 0.73836 0.45557 0.14173 0.0
H877 H 0.69982 0.497 0.19015 0.0
H878 H 0.68989 0.38329 0.14735 0.0
H879 H 0.66215 0.38502 0.1268 0.0
H880 H 0.70388 0.40715 0.12013 0.0
H881 H 0.64565 0.47207 0.19955 0.0
H882 H 0.61803 0.43766 0.18245 0.0
H883 H 0.63681 0.43321 0.20913 0.0
H884 H 0.55816 0.34705 0.15142 0.0
H885 H 0.60754 0.3326 0.21066 0.0
H886 H 0.62607 0.40618 0.12033 0.0
H887 H 0.60969 0.4241 0.13943 0.0
H888 H 0.58378 0.38845 0.12289 0.0
H889 H 0.68441 0.38766 0.19138 0.0
H890 H 0.6614 0.36571 0.21757 0.0
H891 H 0.67152 0.40629 0.21315 0.0
C892 C 0.51764 0.20767 0.16722 0.0
C893 C 0.51759 0.2331 0.15543 0.0
C894 C 0.54531 0.20605 0.16907 0.0
C895 C 0.57354 0.23038 0.15864 0.0
C896 C 0.57269 0.25403 0.1441 0.0
C897 C 0.54455 0.25513 0.14266 0.0
C898 C 0.54501 0.18039 0.18475 0.0
C899 C 0.60205 0.28011 0.13226 0.0
C900 C 0.64496 0.2506 0.19794 0.0
C901 C 0.65656 0.23264 0.1869 0.0
C902 C 0.61881 0.25115 0.18819 0.0
C903 C 0.60412 0.23369 0.16663 0.0
C904 C 0.61682 0.21688 0.15463 0.0
C905 C 0.64272 0.21621 0.16509 0.0
C906 C 0.60623 0.26953 0.20155 0.0
C907 C 0.60265 0.19909 0.1311 0.0
H908 H 0.49673 0.19065 0.17708 0.0
H909 H 0.54469 0.27503 0.13372 0.0
H910 H 0.55768 0.16979 0.17549 0.0
H911 H 0.55737 0.19079 0.20232 0.0
H912 H 0.52065 0.16131 0.18903 0.0
H913 H 0.5961 0.28996 0.11606 0.0
H914 H 0.61464 0.29958 0.14566 0.0
H915 H 0.61834 0.27172 0.12643 0.0
H916 H 0.65571 0.26342 0.21472 0.0
H917 H 0.65217 0.20285 0.1562 0.0
H918 H 0.58213 0.25306 0.20844 0.0
H919 H 0.60474 0.28624 0.18866 0.0
H920 H 0.62127 0.28314 0.21733 0.0
H921 H 0.57902 0.17847 0.13486 0.0
H922 H 0.61754 0.19047 0.1225 0.0
H923 H 0.59939 0.21444 0.11779 0.0
C924 C 0.27432 0.72682 0.85106 0.0
C925 C 0.26663 0.74556 0.83638 0.0
C926 C 0.30471 0.73054 0.85008 0.0
C927 C 0.32748 0.75334 0.83399 0.0
C928 C 0.32055 0.7743 0.82112 0.0
C929 C 0.29023 0.77023 0.82261 0.0
C930 C 0.31131 0.70808 0.86446 0.0
C931 C 0.34397 0.79883 0.80363 0.0
C932 C 0.41358 0.77612 0.82919 0.0
C933 C 0.41287 0.75806 0.80891 0.0
C934 C 0.38563 0.77332 0.83875 0.0
C935 C 0.3565 0.75246 0.82743 0.0
C936 C 0.35559 0.73332 0.80755 0.0
C937 C 0.38378 0.73633 0.79857 0.0
C938 C 0.38735 0.7933 0.86047 0.0
C939 C 0.32498 0.71066 0.79498 0.0
H940 H 0.256 0.7075 0.86155 0.0
H941 H 0.2842 0.78473 0.8113 0.0
H942 H 0.30712 0.68792 0.85255 0.0
H943 H 0.33618 0.7198 0.87077 0.0
H944 H 0.2955 0.69844 0.88067 0.0
H945 H 0.33607 0.81527 0.79701 0.0
H946 H 0.36731 0.81286 0.81254 0.0
H947 H 0.34714 0.78685 0.78747 0.0
H948 H 0.43599 0.79254 0.83754 0.0
H949 H 0.3831 0.72224 0.78296 0.0
H950 H 0.36949 0.77858 0.87445 0.0
H951 H 0.38193 0.81176 0.85447 0.0
H952 H 0.41104 0.80508 0.86918 0.0
H953 H 0.31498 0.72411 0.78599 0.0
H954 H 0.3075 0.69465 0.80864 0.0
H955 H 0.3281 0.69604 0.78085 0.0
C956 C 0.21656 0.50573 0.82748 0.0
C957 C 0.24387 0.50969 0.83897 0.0
C958 C 0.20973 0.53032 0.82687 0.0
C959 C 0.23094 0.55958 0.83794 0.0
C960 C 0.25636 0.56226 0.85225 0.0
C961 C 0.2624 0.53699 0.85279 0.0
C962 C 0.18226 0.52629 0.81153 0.0
C963 C 0.27937 0.59293 0.86454 0.0
C964 C 0.24417 0.63138 0.80157 0.0
C965 C 0.22497 0.6404 0.81404 0.0
C966 C 0.24644 0.60529 0.80936 0.0
C967 C 0.2298 0.58831 0.83059 0.0
C968 C 0.21096 0.59781 0.84365 0.0
C969 C 0.20848 0.62359 0.83505 0.0
C970 C 0.26685 0.5961 0.79485 0.0
C971 C 0.19342 0.58072 0.86659 0.0
H972 H 0.20235 0.48458 0.81671 0.0
H973 H 0.28375 0.54019 0.86146 0.0
H974 H 0.16952 0.53683 0.82079 0.0
H975 H 0.19122 0.53871 0.79374 0.0
H976 H 0.1653 0.50101 0.80767 0.0
H977 H 0.29282 0.58917 0.8793 0.0
H978 H 0.29648 0.6091 0.85071 0.0
H979 H 0.26708 0.60479 0.87246 0.0
H980 H 0.25707 0.64445 0.78543 0.0
H981 H 0.19402 0.6309 0.84501 0.0
H982 H 0.25373 0.57056 0.79031 0.0
H983 H 0.28738 0.60064 0.80623 0.0
H984 H 0.27569 0.60977 0.77752 0.0
H985 H 0.17591 0.55583 0.86215 0.0
H986 H 0.1809 0.59195 0.87523 0.0
H987 H 0.2101 0.58024 0.88014 0.0
C988 C 0.47772 0.72537 0.84866 0.0
C989 C 0.49309 0.73122 0.82592 0.0
C990 C 0.45353 0.69474 0.85477 0.0
C991 C 0.44416 0.67008 0.83737 0.0
C992 C 0.46232 0.6753 0.81584 0.0
C993 C 0.48693 0.70573 0.81063 0.0
C994 C 0.43595 0.6896 0.87862 0.0
C995 C 0.45349 0.64976 0.79676 0.0
C996 C 0.37999 0.58419 0.8391 0.0
C997 C 0.35593 0.58579 0.82627 0.0
C998 C 0.40799 0.6119 0.84556 0.0
C999 C 0.41219 0.64163 0.83843 0.0
C1000 C 0.38678 0.64329 0.82755 0.0
C1001 C 0.35907 0.61545 0.82173 0.0
C1002 C 0.43364 0.60906 0.85861 0.0
C1003 C 0.38976 0.67415 0.81929 0.0
H1004 H 0.48274 0.74493 0.86079 0.0
H1005 H 0.49939 0.71006 0.79332 0.0
H1006 H 0.41479 0.69188 0.87545 0.0
H1007 H 0.42794 0.66557 0.88598 0.0
H1008 H 0.45087 0.70739 0.89259 0.0
H1009 H 0.4713 0.65713 0.78186 0.0
H1010 H 0.45085 0.62802 0.80536 0.0
H1011 H 0.43047 0.64375 0.7884 0.0
H1012 H 0.37751 0.56138 0.84334 0.0
H1013 H 0.34062 0.61715 0.81213 0.0
H1014 H 0.44869 0.63029 0.86988 0.0
H1015 H 0.44883 0.60633 0.84487 0.0
H1016 H 0.42342 0.58787 0.87066 0.0
H1017 H 0.40257 0.6932 0.83289 0.0
H1018 H 0.36634 0.67196 0.81599 0.0
H1019 H 0.40316 0.68131 0.80181 0.0
C1020 C 0.4517 0.74611 0.49449 0.0
C1021 C 0.42578 0.74452 0.50688 0.0
C1022 C 0.45237 0.71846 0.48852 0.0
C1023 C 0.42687 0.68876 0.49562 0.0
C1024 C 0.39968 0.68699 0.50635 0.0
C1025 C 0.39944 0.71483 0.51169 0.0
C1026 C 0.48112 0.7212 0.47597 0.0
C1027 C 0.37185 0.65588 0.51432 0.0
C1028 C 0.41046 0.6059 0.48313 0.0
C1029 C 0.41984 0.59922 0.50561 0.0
C1030 C 0.41596 0.63648 0.47809 0.0
C1031 C 0.43033 0.66028 0.49624 0.0
C1032 C 0.44281 0.65432 0.51771 0.0
C1033 C 0.43784 0.62397 0.5219 0.0
C1034 C 0.4038 0.6424 0.45441 0.0
C1035 C 0.45815 0.67886 0.53769 0.0
H1036 H 0.47191 0.76892 0.49015 0.0
H1037 H 0.37907 0.71319 0.52089 0.0
H1038 H 0.49718 0.72039 0.48995 0.0
H1039 H 0.47455 0.70134 0.46302 0.0
H1040 H 0.49429 0.74385 0.4658 0.0
H1041 H 0.35135 0.65833 0.51995 0.0
H1042 H 0.3642 0.63821 0.49934 0.0
H1043 H 0.37888 0.64646 0.53015 0.0
H1044 H 0.39691 0.58692 0.47028 0.0
H1045 H 0.44576 0.61902 0.53907 0.0
H1046 H 0.41921 0.66696 0.44787 0.0
H1047 H 0.37985 0.63892 0.45744 0.0
H1048 H 0.40212 0.62572 0.43983 0.0
H1049 H 0.47671 0.70154 0.5299 0.0
H1050 H 0.4689 0.6713 0.55222 0.0
H1051 H 0.44018 0.68328 0.54637 0.0
C1052 C 0.27519 0.7022 0.53442 0.0
C1053 C 0.24638 0.68848 0.52211 0.0
C1054 C 0.30157 0.7289 0.52502 0.0
C1055 C 0.29964 0.74135 0.50193 0.0
C1056 C 0.27057 0.72719 0.48913 0.0
C1057 C 0.24403 0.70111 0.4996 0.0
C1058 C 0.33135 0.74299 0.54011 0.0
C1059 C 0.26756 0.73955 0.46448 0.0
C1060 C 0.36644 0.82489 0.49852 0.0
C1061 C 0.39032 0.82005 0.48914 0.0
C1062 C 0.33521 0.79998 0.49981 0.0
C1063 C 0.32808 0.76951 0.4919 0.0
C1064 C 0.35132 0.7657 0.4793 0.0
C1065 C 0.38226 0.79137 0.47766 0.0
C1066 C 0.31126 0.80525 0.51325 0.0
C1067 C 0.34468 0.73364 0.47061 0.0
H1068 H 0.27696 0.69247 0.55187 0.0
H1069 H 0.22165 0.69022 0.48999 0.0
H1070 H 0.34405 0.73016 0.53575 0.0
H1071 H 0.34703 0.7685 0.53658 0.0
H1072 H 0.32589 0.73985 0.56007 0.0
H1073 H 0.24326 0.726 0.45697 0.0
H1074 H 0.27417 0.76475 0.46604 0.0
H1075 H 0.2841 0.73831 0.4512 0.0
H1076 H 0.37279 0.84713 0.50746 0.0
H1077 H 0.40081 0.78761 0.4705 0.0
H1078 H 0.30933 0.79694 0.53249 0.0
H1079 H 0.28763 0.79167 0.50469 0.0
H1080 H 0.31824 0.83066 0.51363 0.0
H1081 H 0.34368 0.71924 0.48671 0.0
H1082 H 0.36326 0.73537 0.45791 0.0
H1083 H 0.32149 0.72099 0.46122 0.0
C1084 C 0.29187 0.5458 0.50663 0.0
C1085 C 0.31154 0.56518 0.52552 0.0
C1086 C 0.26553 0.54787 0.49894 0.0
C1087 C 0.25835 0.56926 0.51083 0.0
C1088 C 0.2789 0.58976 0.52918 0.0
C1089 C 0.30526 0.58757 0.53619 0.0
C1090 C 0.24494 0.52665 0.47858 0.0
C1091 C 0.27238 0.61319 0.54223 0.0
C1092 C 0.19933 0.59445 0.49312 0.0
C1093 C 0.17548 0.57713 0.51027 0.0
C1094 C 0.22552 0.59 0.49111 0.0
C1095 C 0.22761 0.56783 0.50667 0.0
C1096 C 0.20172 0.54785 0.52184 0.0
C1097 C 0.17595 0.55275 0.5234 0.0
C1098 C 0.25221 0.61134 0.47426 0.0
C1099 C 0.2028 0.52391 0.53876 0.0
H1100 H 0.29697 0.5289 0.49792 0.0
H1101 H 0.32045 0.60281 0.55065 0.0
H1102 H 0.22199 0.50839 0.48623 0.0
H1103 H 0.23994 0.54051 0.46498 0.0
H1104 H 0.25602 0.51459 0.46896 0.0
H1105 H 0.29089 0.62763 0.5559 0.0
H1106 H 0.27097 0.62939 0.52869 0.0
H1107 H 0.24934 0.60051 0.55185 0.0
H1108 H 0.19917 0.61356 0.48312 0.0
H1109 H 0.15744 0.53939 0.53665 0.0
H1110 H 0.26477 0.59937 0.46708 0.0
H1111 H 0.26943 0.63262 0.48456 0.0
H1112 H 0.24351 0.61935 0.45853 0.0
H1113 H 0.21107 0.5096 0.52883 0.0
H1114 H 0.17939 0.5077 0.547 0.0
H1115 H 0.21975 0.53645 0.55386 0.0
C1116 C 0.19918 0.15375 0.04813 0.0
C1117 C 0.19215 0.16621 0.06882 0.0
C1118 C 0.1969 0.16349 0.02444 0.0
C1119 C 0.18759 0.18643 0.02143 0.0
C1120 C 0.18528 0.2025 0.04228 0.0
C1121 C 0.18744 0.19207 0.0659 0.0
C1122 C 0.2 0.14589 0.00279 0.0
C1123 C 0.17669 0.22802 0.03979 0.0
C1124 C 0.17422 0.20133 0.95499 0.0
C1125 C 0.14194 0.17949 0.95237 0.0
C1126 C 0.18944 0.20534 0.97776 0.0
C1127 C 0.17199 0.18663 0.99807 0.0
C1128 C 0.13927 0.16515 0.99556 0.0
C1129 C 0.12471 0.16209 0.97289 0.0
C1130 C 0.22405 0.22931 0.98007 0.0
C1131 C 0.11969 0.14427 0.01657 0.0
H1132 H 0.20385 0.13439 0.05033 0.0
H1133 H 0.18263 0.20229 0.08183 0.0
H1134 H 0.17611 0.1281 0.99631 0.0
H1135 H 0.21238 0.16213 0.98729 0.0
H1136 H 0.21294 0.13337 0.00773 0.0
H1137 H 0.18393 0.2435 0.05626 0.0
H1138 H 0.18782 0.24274 0.02328 0.0
H1139 H 0.15075 0.21696 0.03775 0.0
H1140 H 0.18756 0.21518 0.93927 0.0
H1141 H 0.0998 0.14508 0.97109 0.0
H1142 H 0.23728 0.21795 0.98702 0.0
H1143 H 0.22726 0.24761 0.99365 0.0
H1144 H 0.23453 0.24108 0.96231 0.0
H1145 H 0.12901 0.12873 0.02242 0.0
H1146 H 0.09447 0.1291 0.01156 0.0
H1147 H 0.12108 0.15891 0.03259 0.0
C1148 C 0.79494 0.98441 0.94759 0.0
C1149 C 0.79442 0.95562 0.9449 0.0
C1150 C 0.79614 0.99689 0.97106 0.0
C1151 C 0.79715 0.98022 0.99199 0.0
C1152 C 0.79198 0.94917 0.98933 0.0
C1153 C 0.79055 0.9372 0.96576 0.0
C1154 C 0.80027 0.02952 0.97321 0.0
C1155 C 0.79258 0.93032 0.0111 0.0
C1156 C 0.8597 0.02457 0.03957 0.0
C1157 C 0.84171 0.02137 0.06051 0.0
C1158 C 0.84537 0.01262 0.0169 0.0
C1159 C 0.81212 0.99757 0.01494 0.0
C1160 C 0.79386 0.9961 0.03558 0.0
C1161 C 0.80888 0.00768 0.05832 0.0
C1162 C 0.86588 0.01457 0.99541 0.0
C1163 C 0.75852 0.98145 0.03382 0.0
H1164 H 0.79723 -0.00149 0.93152 0.0
H1165 H 0.78908 0.91442 0.96375 0.0
H1166 H 0.78937 0.03201 0.9903 0.0
H1167 H 0.82581 0.04722 0.97376 0.0
H1168 H 0.78981 0.03506 0.95719 0.0
H1169 H 0.78273 0.90496 0.00648 0.0
H1170 H 0.81735 0.9399 0.01722 0.0
H1171 H 0.77911 0.93215 0.02674 0.0
H1172 H 0.88509 0.03519 0.04105 0.0
H1173 H 0.79491 0.00568 0.07439 0.0
H1174 H 0.86177 0.02636 0.9796 0.0
H1175 H 0.8597 0.99042 0.98947 0.0
H1176 H 0.89141 0.0278 -5e-05 0.0
H1177 H 0.75216 0.99089 0.01762 0.0
H1178 H 0.74834 0.98592 0.05056 0.0
H1179 H 0.74748 0.95556 0.03127 0.0
C1180 C 0.01147 0.8106 0.93821 0.0
C1181 C 0.04051 0.83807 0.93408 0.0
C1182 C 0.0011 0.80011 0.96228 0.0
C1183 C 0.02016 0.81774 0.98239 0.0
C1184 C 0.05133 0.8425 0.97805 0.0
C1185 C 0.06116 0.85227 0.95391 0.0
C1186 C 0.96819 0.77277 0.96612 0.0
C1187 C 0.07269 0.86186 0.99883 0.0
C1188 C 0.98046 0.83869 0.03241 0.0
C1189 C 0.98272 0.8224 0.05279 0.0
C1190 C 0.99168 0.8364 0.00937 0.0
C1191 C 0.00523 0.81691 0.00636 0.0
C1192 C 0.00665 0.79942 0.02659 0.0
C1193 C 0.99561 0.8026 0.04973 0.0
C1194 C 0.98992 0.85584 0.98844 0.0
C1195 C 0.02002 0.77766 0.02382 0.0
H1196 H 0.99559 0.79907 0.92294 0.0
H1197 H 0.08407 0.87296 0.95076 0.0
H1198 H 0.96684 0.75919 0.98285 0.0
H1199 H 0.95169 0.78194 0.96852 0.0
H1200 H 0.96017 0.75659 0.95006 0.0
H1201 H 0.09772 0.87559 0.99289 0.0
H1202 H 0.06538 0.87876 0.00538 0.0
H1203 H 0.07096 0.84669 0.01456 0.0
H1204 H 0.97063 0.85411 0.03453 0.0
H1205 H -0.00298 0.78961 0.06535 0.0
H1206 H 0.97652 0.84027 0.97288 0.0
H1207 H 0.01401 0.87268 0.98173 0.0
H1208 H 0.97837 0.86954 0.99389 0.0
H1209 H 0.00721 0.76012 0.00914 0.0
H1210 H 0.0184 0.76486 0.04111 0.0
H1211 H 0.04511 0.79131 0.01817 0.0
C1212 C 0.79669 0.52139 0.29587 0.0
C1213 C 0.81335 0.52338 0.27435 0.0
C1214 C 0.8088 0.52078 0.31898 0.0
C1215 C 0.83853 0.52264 0.32063 0.0
C1216 C 0.85723 0.52884 0.29928 0.0
C1217 C 0.84431 0.52893 0.27624 0.0
C1218 C 0.78815 0.51453 0.3413 0.0
C1219 C 0.88966 0.53245 0.30049 0.0
C1220 C 0.85961 0.51758 0.38683 0.0
C1221 C 0.84621 0.48476 0.38945 0.0
C1222 C 0.86007 0.53098 0.36386 0.0
C1223 C 0.84614 0.51097 0.34333 0.0
C1224 C 0.83475 0.47815 0.34556 0.0
C1225 C 0.83526 0.46557 0.36847 0.0
C1226 C 0.87368 0.56624 0.36202 0.0
C1227 C 0.81955 0.45579 0.3242 0.0
H1228 H 0.77311 0.51807 0.29464 0.0
H1229 H 0.85768 0.53117 0.25974 0.0
H1230 H 0.77952 0.49004 0.34785 0.0
H1231 H 0.80176 0.53079 0.35646 0.0
H1232 H 0.76739 0.51727 0.3373 0.0
H1233 H 0.90395 0.54496 0.28407 0.0
H1234 H 0.90238 0.54557 0.31724 0.0
H1235 H 0.88746 0.50875 0.30126 0.0
H1236 H 0.86868 0.53273 0.40282 0.0
H1237 H 0.82532 0.44024 0.3701 0.0
H1238 H 0.8546 0.57193 0.36469 0.0
H1239 H 0.88442 0.57528 0.34372 0.0
H1240 H 0.89178 0.57885 0.37641 0.0
H1241 H 0.79756 0.45555 0.31881 0.0
H1242 H 0.81352 0.43122 0.32868 0.0
H1243 H 0.83548 0.46379 0.30806 0.0
C1244 C 0.45336 0.2957 0.26278 0.0
C1245 C 0.46525 0.27484 0.26175 0.0
C1246 C 0.45235 0.30953 0.28517 0.0
C1247 C 0.46437 0.30301 0.30667 0.0
C1248 C 0.473 0.27936 0.30614 0.0
C1249 C 0.47286 0.26526 0.28378 0.0
C1250 C 0.4409 0.33301 0.28531 0.0
C1251 C 0.48587 0.27144 0.3286 0.0
C1252 C 0.51951 0.3673 0.34936 0.0
C1253 C 0.50343 0.35723 0.3718 0.0
C1254 C 0.50577 0.35141 0.32748 0.0
C1255 C 0.47484 0.32505 0.3279 0.0
C1256 C 0.4571 0.31699 0.34993 0.0
C1257 C 0.47174 0.33299 0.37177 0.0
C1258 C 0.52558 0.36115 0.30438 0.0
C1259 C 0.42348 0.29015 0.35088 0.0
H1260 H 0.44654 0.30263 0.24599 0.0
H1261 H 0.48123 0.24848 0.2834 0.0
H1262 H 0.43031 0.33323 0.30329 0.0
H1263 H 0.46107 0.35705 0.28189 0.0
H1264 H 0.42319 0.32763 0.2706 0.0
H1265 H 0.48918 0.2508 0.32556 0.0
H1266 H 0.50903 0.29205 0.3336 0.0
H1267 H 0.46983 0.26624 0.34446 0.0
H1268 H 0.54368 0.3866 0.34899 0.0
H1269 H 0.45879 0.32547 0.38892 0.0
H1270 H 0.51274 0.36476 0.28912 0.0
H1271 H 0.53041 0.34213 0.29879 0.0
H1272 H 0.5485 0.38328 0.30689 0.0
H1273 H 0.41108 0.28767 0.33324 0.0
H1274 H 0.4102 0.29365 0.36593 0.0
H1275 H 0.42329 0.26772 0.35448 0.0
C1276 C 0.6274 0.16582 0.36928 0.0
C1277 C 0.63119 0.15231 0.39082 0.0
C1278 C 0.64121 0.16457 0.3472 0.0
C1279 C 0.65877 0.14873 0.34635 0.0
C1280 C 0.66058 0.13275 0.36744 0.0
C1281 C 0.6471 0.13509 0.38962 0.0
C1282 C 0.63876 0.1822 0.32523 0.0
C1283 C 0.67789 0.11446 0.36692 0.0
C1284 C 0.67833 0.14758 0.27985 0.0
C1285 C 0.706 0.17706 0.27822 0.0
C1286 C 0.66441 0.13531 0.30279 0.0
C1287 C 0.67839 0.15321 0.32428 0.0
C1288 C 0.70846 0.18072 0.32287 0.0
C1289 C 0.72195 0.19223 0.29983 0.0
C1290 C 0.63305 0.1051 0.30368 0.0
C1291 C 0.7245 0.20046 0.3453 0.0
H1292 H 0.61493 0.17893 0.36983 0.0
H1293 H 0.6497 0.12412 0.40608 0.0
H1294 H 0.66255 0.2017 0.32014 0.0
H1295 H 0.62917 0.16619 0.30919 0.0
H1296 H 0.62337 0.19246 0.32882 0.0
H1297 H 0.67082 0.09754 0.38247 0.0
H1298 H 0.6735 0.10127 0.34941 0.0
H1299 H 0.70363 0.13106 0.36829 0.0
H1300 H 0.66619 0.1353 0.26324 0.0
H1301 H 0.74392 0.21451 0.29874 0.0
H1302 H 0.61378 0.11081 0.30338 0.0
H1303 H 0.63062 0.09169 0.32078 0.0
H1304 H 0.62996 0.08983 0.28759 0.0
H1305 H 0.71223 0.21339 0.35092 0.0
H1306 H 0.74965 0.21803 0.34173 0.0
H1307 H 0.72328 0.18535 0.36092 0.0
C1308 C 0.50487 0.85823 0.60317 0.0
C1309 C 0.47208 0.84034 0.59989 0.0
C1310 C 0.51849 0.85978 0.62625 0.0
C1311 C 0.49884 0.84239 0.64616 0.0
C1312 C 0.4657 0.8254 0.64312 0.0
C1313 C 0.45279 0.82484 0.62015 0.0
C1314 C 0.55386 0.87887 0.62893 0.0
C1315 C 0.44378 0.80624 0.66378 0.0
C1316 C 0.51789 0.80135 0.69557 0.0
C1317 C 0.51541 0.81661 0.71656 0.0
C1318 C 0.51626 0.8119 0.67204 0.0
C1319 C 0.51214 0.83841 0.66947 0.0
C1320 C 0.51361 0.85622 0.69044 0.0
C1321 C 0.51512 0.84502 0.71388 0.0
C1322 C 0.51533 0.79248 0.65014 0.0
C1323 C 0.51049 0.88532 0.68829 0.0
H1324 H 0.51993 0.87061 0.58768 0.0
H1325 H 0.42743 0.81101 0.61792 0.0
H1326 H 0.56072 0.89001 0.64734 0.0
H1327 H 0.56393 0.8631 0.62676 0.0
H1328 H 0.56456 0.89761 0.61469 0.0
H1329 H 0.41852 0.79534 0.65858 0.0
H1330 H 0.4485 0.7871 0.66921 0.0
H1331 H 0.44794 0.82137 0.68013 0.0
H1332 H 0.51915 0.77992 0.69748 0.0
H1333 H 0.51388 0.85736 0.73001 0.0
H1334 H 0.53033 0.80796 0.63508 0.0
H1335 H 0.4908 0.77893 0.64312 0.0
H1336 H 0.52336 0.7755 0.65485 0.0
H1337 H 0.52364 0.89963 0.67209 0.0
H1338 H 0.51923 0.90025 0.70503 0.0
H1339 H 0.48528 0.87812 0.68577 0.0
C1340 C 0.12958 0.65362 0.62013 0.0
C1341 C 0.15232 0.64443 0.6169 0.0
C1342 C 0.1257 0.66458 0.6431 0.0
C1343 C 0.14523 0.66658 0.66304 0.0
C1344 C 0.16807 0.65717 0.65976 0.0
C1345 C 0.17117 0.64615 0.63688 0.0
C1346 C 0.10054 0.67357 0.64606 0.0
C1347 C 0.1899 0.65934 0.6803 0.0
C1348 C 0.17566 0.72244 0.71578 0.0
C1349 C 0.16395 0.701 0.73539 0.0
C1350 C 0.16584 0.71245 0.69166 0.0
C1351 C 0.14403 0.68021 0.68717 0.0
C1352 C 0.12846 0.65979 0.70722 0.0
C1353 C 0.13868 0.67045 0.73128 0.0
C1354 C 0.18242 0.73533 0.67091 0.0
C1355 C 0.10418 0.62556 0.70318 0.0
H1356 H 0.1147 0.65201 0.60482 0.0
H1357 H 0.18901 0.63938 0.63457 0.0
H1358 H 0.0808 0.65515 0.65702 0.0
H1359 H 0.10974 0.6962 0.65616 0.0
H1360 H 0.09106 0.67572 0.62808 0.0
H1361 H 0.20626 0.65092 0.67463 0.0
H1362 H 0.20422 0.68419 0.68655 0.0
H1363 H 0.17598 0.64502 0.69623 0.0
H1364 H 0.19466 0.74636 0.71902 0.0
H1365 H 0.1292 0.6539 0.74644 0.0
H1366 H 0.16591 0.73149 0.65562 0.0
H1367 H 0.20145 0.7315 0.66364 0.0
H1368 H 0.19324 0.76025 0.67714 0.0
H1369 H 0.08887 0.62289 0.68728 0.0
H1370 H 0.08921 0.61507 0.71971 0.0
H1371 H 0.11634 0.61203 0.69913 0.0
C1372 C 0.3868 0.51611 0.63055 0.0
C1373 C 0.36481 0.50457 0.61135 0.0
C1374 C 0.3775 0.5063 0.65477 0.0
C1375 C 0.34537 0.48481 0.6598 0.0
C1376 C 0.32417 0.46969 0.6401 0.0
C1377 C 0.33418 0.47979 0.61593 0.0
C1378 C 0.40114 0.52233 0.67514 0.0
C1379 C 0.28996 0.44589 0.64473 0.0
C1380 C 0.32084 0.46908 0.72715 0.0
C1381 C 0.31228 0.49213 0.73134 0.0
C1382 C 0.33102 0.46558 0.70374 0.0
C1383 C 0.33283 0.48582 0.68439 0.0
C1384 C 0.32419 0.50908 0.68869 0.0
C1385 C 0.31397 0.51182 0.71198 0.0
C1386 C 0.33931 0.44005 0.6997 0.0
C1387 C 0.32624 0.53166 0.66877 0.0
H1388 H 0.4108 0.53464 0.62691 0.0
H1389 H 0.31724 0.47041 0.60104 0.0
H1390 H 0.39793 0.54147 0.68307 0.0
H1391 H 0.39758 0.50545 0.69009 0.0
H1392 H 0.42577 0.53295 0.66834 0.0
H1393 H 0.27857 0.43131 0.62818 0.0
H1394 H 0.28752 0.43011 0.66024 0.0
H1395 H 0.27716 0.45851 0.64971 0.0
H1396 H 0.31923 0.45358 0.74202 0.0
H1397 H 0.30772 0.52992 0.7151 0.0
H1398 H 0.36146 0.44911 0.68901 0.0
H1399 H 0.32029 0.42063 0.6889 0.0
H1400 H 0.34193 0.4301 0.7173 0.0
H1401 H 0.35092 0.54582 0.66218 0.0
H1402 H 0.31838 0.5482 0.67521 0.0
H1403 H 0.31142 0.51828 0.65287 0.0
loop_
_geom_bond_atom_site_label_1
_geom_bond_atom_site_label_2
_geom_bond_distance
_geom_bond_site_symmetry_2
_ccdc_geom_bond_type
Co0 O1 2.216 . S
Co0 O2 2.091 . S
Co0 O4 2.004 . S
Co0 O10 2.021 . S
Co0 O12 2.137 . S
Co0 O13 2.244 . S
O1 Co0 2.216 . S
O1 C8 1.247 . S
O2 Co0 2.091 . S
O2 C8 1.261 . S
C3 O12 1.247 . S
C3 O13 1.272 . S
O4 Co0 2.004 . S
O4 C9 1.259 . S
Co5 O6 2.061 . S
Co5 O11 2.052 . S
Co5 O13 2.135 . S
O6 Co5 2.061 . S
O6 C9 1.235 . S
C7 O10 1.238 . S
C7 O11 1.241 . S
C8 O1 1.247 . S
C8 O2 1.261 . S
C9 O4 1.259 . S
C9 O6 1.235 . S
O10 Co0 2.021 . S
O10 C7 1.238 . S
O11 Co5 2.052 . S
O11 C7 1.241 . S
O12 Co0 2.137 . S
O12 C3 1.247 . S
O13 Co0 2.244 . S
O13 C3 1.272 . S
O13 Co5 2.135 . S
Co14 O15 2.216 . S
Co14 O16 2.092 . S
Co14 O18 2.004 1_545 S
Co14 O24 2.021 1_545 S
Co14 O26 2.137 . S
Co14 O27 2.244 . S
O15 Co14 2.216 . S
O15 C22 1.247 . S
O16 Co14 2.092 . S
O16 C22 1.259 . S
C17 O26 1.247 . S
C17 O27 1.272 . S
O18 Co14 2.004 1_565 S
O18 C23 1.259 . S
Co19 O20 2.061 1_545 S
Co19 O25 2.052 . S
Co19 O27 2.135 . S
O20 Co19 2.061 1_565 S
O20 C23 1.235 . S
C21 O24 1.238 . S
C21 O25 1.241 1_565 S
C22 O15 1.247 . S
C22 O16 1.259 . S
C23 O18 1.259 . S
C23 O20 1.235 . S
O24 Co14 2.021 1_565 S
O24 C21 1.238 . S
O25 Co19 2.052 . S
O25 C21 1.241 1_545 S
O26 Co14 2.137 . S
O26 C17 1.247 . S
O27 Co14 2.244 . S
O27 C17 1.272 . S
O27 Co19 2.135 . S
Co28 O29 2.216 . S
Co28 O30 2.083 1_655 S
Co28 O32 2.004 1_655 S
Co28 O38 2.021 1_655 S
Co28 O40 2.137 . S
Co28 O41 2.244 . S
O29 Co28 2.216 . S
O29 C36 1.247 . S
O30 Co28 2.083 1_455 S
O30 C36 1.252 1_455 S
C31 O40 1.247 . S
C31 O41 1.272 . S
O32 Co28 2.004 1_455 S
O32 C37 1.259 . S
Co33 O34 2.061 1_655 S
Co33 O39 2.052 . S
Co33 O41 2.135 . S
O34 Co33 2.061 1_455 S
O34 C37 1.235 . S
C35 O38 1.238 . S
C35 O39 1.241 1_455 S
C36 O29 1.247 . S
C36 O30 1.252 1_655 S
C37 O32 1.259 . S
C37 O34 1.235 . S
O38 Co28 2.021 1_455 S
O38 C35 1.238 . S
O39 Co33 2.052 . S
O39 C35 1.241 1_655 S
O40 Co28 2.137 . S
O40 C31 1.247 . S
O41 Co28 2.244 . S
O41 C31 1.272 . S
O41 Co33 2.135 . S
Co42 O43 2.216 . S
Co42 O44 2.091 . S
Co42 O46 2.004 . S
Co42 O52 2.021 . S
Co42 O54 2.137 . S
Co42 O55 2.244 . S
O43 Co42 2.216 . S
O43 C50 1.247 . S
O44 Co42 2.091 . S
O44 C50 1.261 . S
C45 O54 1.247 . S
C45 O55 1.272 . S
O46 Co42 2.004 . S
O46 C51 1.259 . S
Co47 O48 2.061 . S
Co47 O53 2.052 . S
Co47 O55 2.135 . S
O48 Co47 2.061 . S
O48 C51 1.235 . S
C49 O52 1.238 . S
C49 O53 1.241 . S
C50 O43 1.247 . S
C50 O44 1.261 . S
C51 O46 1.259 . S
C51 O48 1.235 . S
O52 Co42 2.021 . S
O52 C49 1.238 . S
O53 Co47 2.052 . S
O53 C49 1.241 . S
O54 Co42 2.137 . S
O54 C45 1.247 . S
O55 Co42 2.244 . S
O55 C45 1.272 . S
O55 Co47 2.135 . S
Co56 O57 2.216 . S
Co56 O58 2.078 1_565 S
Co56 O60 2.004 1_565 S
Co56 O66 2.021 1_565 S
Co56 O68 2.137 . S
Co56 O69 2.244 . S
O57 Co56 2.216 . S
O57 C64 1.247 . S
O58 Co56 2.078 1_545 S
O58 C64 1.245 1_545 S
C59 O68 1.247 . S
C59 O69 1.272 . S
O60 Co56 2.004 1_545 S
O60 C65 1.259 . S
Co61 O62 2.061 1_565 S
Co61 O67 2.069 . S
Co61 O69 2.135 . S
O62 Co61 2.061 1_545 S
O62 C65 1.235 . S
C63 O66 1.238 . S
C63 O67 1.215 1_545 S
C64 O57 1.247 . S
C64 O58 1.245 1_565 S
C65 O60 1.259 . S
C65 O62 1.235 . S
O66 Co56 2.021 1_545 S
O66 C63 1.238 . S
O67 Co61 2.069 . S
O67 C63 1.215 1_565 S
O68 Co56 2.137 . S
O68 C59 1.247 . S
O69 Co56 2.244 . S
O69 C59 1.272 . S
O69 Co61 2.135 . S
Co70 O71 2.216 . S
Co70 O72 2.092 1_455 S
Co70 O74 2.004 1_455 S
Co70 O80 2.021 1_455 S
Co70 O82 2.137 . S
Co70 O83 2.244 . S
O71 Co70 2.216 . S
O71 C78 1.247 . S
O72 Co70 2.092 1_655 S
O72 C78 1.259 1_655 S
C73 O82 1.247 . S
C73 O83 1.272 . S
O74 Co70 2.004 1_655 S
O74 C79 1.259 . S
Co75 O76 2.061 1_455 S
Co75 O81 2.052 . S
Co75 O83 2.135 . S
O76 Co75 2.061 1_655 S
O76 C79 1.235 . S
C77 O80 1.238 . S
C77 O81 1.241 1_655 S
C78 O71 1.247 . S
C78 O72 1.259 1_455 S
C79 O74 1.259 . S
C79 O76 1.235 . S
O80 Co70 2.021 1_655 S
O80 C77 1.238 . S
O81 Co75 2.052 . S
O81 C77 1.241 1_455 S
O82 Co70 2.137 . S
O82 C73 1.247 . S
O83 Co70 2.244 . S
O83 C73 1.272 . S
O83 Co75 2.135 . S
Co84 O85 2.216 . S
Co84 O86 2.091 . S
Co84 O88 2.004 . S
Co84 O94 2.021 . S
Co84 O96 2.137 . S
Co84 O97 2.244 . S
O85 Co84 2.216 . S
O85 C92 1.247 . S
O86 Co84 2.091 . S
O86 C92 1.261 . S
C87 O96 1.247 . S
C87 O97 1.272 . S
O88 Co84 2.004 . S
O88 C93 1.259 . S
Co89 O90 2.061 . S
Co89 O95 2.052 . S
Co89 O97 2.135 . S
O90 Co89 2.061 . S
O90 C93 1.235 . S
C91 O94 1.238 . S
C91 O95 1.241 . S
C92 O85 1.247 . S
C92 O86 1.261 . S
C93 O88 1.259 . S
C93 O90 1.235 . S
O94 Co84 2.021 . S
O94 C91 1.238 . S
O95 Co89 2.052 . S
O95 C91 1.241 . S
O96 Co84 2.137 . S
O96 C87 1.247 . S
O97 Co84 2.244 . S
O97 C87 1.272 . S
O97 Co89 2.135 . S
Co98 O99 2.216 . S
Co98 O100 2.091 . S
Co98 O102 2.004 . S
Co98 O108 2.021 . S
Co98 O110 2.137 . S
Co98 O111 2.244 . S
O99 Co98 2.216 . S
O99 C106 1.247 . S
O100 Co98 2.091 . S
O100 C106 1.261 . S
C101 O110 1.247 . S
C101 O111 1.272 . S
O102 Co98 2.004 . S
O102 C107 1.259 . S
Co103 O104 2.061 . S
Co103 O109 2.052 . S
Co103 O111 2.135 . S
O104 Co103 2.061 . S
O104 C107 1.235 . S
C105 O108 1.238 . S
C105 O109 1.241 . S
C106 O99 1.247 . S
C106 O100 1.261 . S
C107 O102 1.259 . S
C107 O104 1.235 . S
O108 Co98 2.021 . S
O108 C105 1.238 . S
O109 Co103 2.052 . S
O109 C105 1.241 . S
O110 Co98 2.137 . S
O110 C101 1.247 . S
O111 Co98 2.244 . S
O111 C101 1.272 . S
O111 Co103 2.135 . S
Co112 O113 2.216 . S
Co112 O114 2.091 . S
Co112 O116 2.004 . S
Co112 O122 2.021 . S
Co112 O124 2.137 . S
Co112 O125 2.244 . S
O113 Co112 2.216 . S
O113 C120 1.247 . S
O114 Co112 2.091 . S
O114 C120 1.261 . S
C115 O124 1.247 . S
C115 O125 1.272 . S
O116 Co112 2.004 . S
O116 C121 1.259 . S
Co117 O118 2.061 . S
Co117 O123 2.052 . S
Co117 O125 2.135 . S
O118 Co117 2.061 . S
O118 C121 1.235 . S
C119 O122 1.238 . S
C119 O123 1.241 . S
C120 O113 1.247 . S
C120 O114 1.261 . S
C121 O116 1.259 . S
C121 O118 1.235 . S
O122 Co112 2.021 . S
O122 C119 1.238 . S
O123 Co117 2.052 . S
O123 C119 1.241 . S
O124 Co112 2.137 . S
O124 C115 1.247 . S
O125 Co112 2.244 . S
O125 C115 1.272 . S
O125 Co117 2.135 . S
Co126 O127 2.216 . S
Co126 O128 2.091 . S
Co126 O130 2.004 . S
Co126 O136 2.021 . S
Co126 O138 2.137 . S
Co126 O139 2.244 . S
O127 Co126 2.216 . S
O127 C134 1.247 . S
O128 Co126 2.091 . S
O128 C134 1.261 . S
C129 O138 1.247 . S
C129 O139 1.272 . S
O130 Co126 2.004 . S
O130 C135 1.259 . S
Co131 O132 2.061 . S
Co131 O137 2.052 . S
Co131 O139 2.135 . S
O132 Co131 2.061 . S
O132 C135 1.235 . S
C133 O136 1.238 . S
C133 O137 1.241 . S
C134 O127 1.247 . S
C134 O128 1.261 . S
C135 O130 1.259 . S
C135 O132 1.235 . S
O136 Co126 2.021 . S
O136 C133 1.238 . S
O137 Co131 2.052 . S
O137 C133 1.241 . S
O138 Co126 2.137 . S
O138 C129 1.247 . S
O139 Co126 2.244 . S
O139 C129 1.272 . S
O139 Co131 2.135 . S
Co140 O141 2.216 . S
Co140 O142 2.091 . S
Co140 O144 2.004 . S
Co140 O150 2.021 . S
Co140 O152 2.137 . S
Co140 O153 2.244 . S
O141 Co140 2.216 . S
O141 C148 1.247 . S
O142 Co140 2.091 . S
O142 C148 1.261 . S
C143 O152 1.247 . S
C143 O153 1.272 . S
O144 Co140 2.004 . S
O144 C149 1.259 . S
Co145 O146 2.061 . S
Co145 O151 2.052 . S
Co145 O153 2.135 . S
O146 Co145 2.061 . S
O146 C149 1.235 . S
C147 O150 1.238 . S
C147 O151 1.241 . S
C148 O141 1.247 . S
C148 O142 1.261 . S
C149 O144 1.259 . S
C149 O146 1.235 . S
O150 Co140 2.021 . S
O150 C147 1.238 . S
O151 Co145 2.052 . S
O151 C147 1.241 . S
O152 Co140 2.137 . S
O152 C143 1.247 . S
O153 Co140 2.244 . S
O153 C143 1.272 . S
O153 Co145 2.135 . S
Co154 O155 2.216 . S
Co154 O156 2.091 . S
Co154 O158 2.004 . S
Co154 O164 2.021 . S
Co154 O166 2.137 . S
Co154 O167 2.244 . S
O155 Co154 2.216 . S
O155 C162 1.247 . S
O156 Co154 2.091 . S
O156 C162 1.261 . S
C157 O166 1.247 . S
C157 O167 1.272 . S
O158 Co154 2.004 . S
O158 C163 1.259 . S
Co159 O160 2.061 . S
Co159 O165 2.052 . S
Co159 O167 2.135 . S
O160 Co159 2.061 . S
O160 C163 1.235 . S
C161 O164 1.238 . S
C161 O165 1.241 . S
C162 O155 1.247 . S
C162 O156 1.261 . S
C163 O158 1.259 . S
C163 O160 1.235 . S
O164 Co154 2.021 . S
O164 C161 1.238 . S
O165 Co159 2.052 . S
O165 C161 1.241 . S
O166 Co154 2.137 . S
O166 C157 1.247 . S
O167 Co154 2.244 . S
O167 C157 1.272 . S
O167 Co159 2.135 . S
Co168 O169 2.216 . S
Co168 O170 2.091 . S
Co168 O172 2.004 . S
Co168 O178 2.021 . S
Co168 O180 2.137 . S
Co168 O181 2.244 . S
O169 Co168 2.216 . S
O169 C176 1.247 . S
O170 Co168 2.091 . S
O170 C176 1.261 . S
C171 O180 1.247 . S
C171 O181 1.272 . S
O172 Co168 2.004 . S
O172 C177 1.259 . S
Co173 O174 2.061 . S
Co173 O179 2.052 . S
Co173 O181 2.135 . S
O174 Co173 2.061 . S
O174 C177 1.235 . S
C175 O178 1.238 . S
C175 O179 1.241 . S
C176 O169 1.247 . S
C176 O170 1.261 . S
C177 O172 1.259 . S
C177 O174 1.235 . S
O178 Co168 2.021 . S
O178 C175 1.238 . S
O179 Co173 2.052 . S
O179 C175 1.241 . S
O180 Co168 2.137 . S
O180 C171 1.247 . S
O181 Co168 2.244 . S
O181 C171 1.272 . S
O181 Co173 2.135 . S
Co182 O183 2.216 . S
Co182 O184 2.091 . S
Co182 O186 2.004 . S
Co182 O192 2.021 . S
Co182 O194 2.137 . S
Co182 O195 2.244 . S
O183 Co182 2.216 . S
O183 C190 1.247 . S
O184 Co182 2.091 . S
O184 C190 1.261 . S
C185 O194 1.247 . S
C185 O195 1.272 . S
O186 Co182 2.004 . S
O186 C191 1.259 . S
Co187 O188 2.061 . S
Co187 O193 2.052 . S
Co187 O195 2.135 . S
O188 Co187 2.061 . S
O188 C191 1.235 . S
C189 O192 1.238 . S
C189 O193 1.241 . S
C190 O183 1.247 . S
C190 O184 1.261 . S
C191 O186 1.259 . S
C191 O188 1.235 . S
O192 Co182 2.021 . S
O192 C189 1.238 . S
O193 Co187 2.052 . S
O193 C189 1.241 . S
O194 Co182 2.137 . S
O194 C185 1.247 . S
O195 Co182 2.244 . S
O195 C185 1.272 . S
O195 Co187 2.135 . S
Co196 O197 2.216 . S
Co196 O198 2.091 . S
Co196 O200 2.004 . S
Co196 O206 2.021 . S
Co196 O208 2.137 . S
Co196 O209 2.244 . S
O197 Co196 2.216 . S
O197 C204 1.247 . S
O198 Co196 2.091 . S
O198 C204 1.261 . S
C199 O208 1.247 . S
C199 O209 1.272 . S
O200 Co196 2.004 . S
O200 C205 1.259 . S
Co201 O202 2.061 . S
Co201 O207 2.052 . S
Co201 O209 2.135 . S
O202 Co201 2.061 . S
O202 C205 1.235 . S
C203 O206 1.238 . S
C203 O207 1.241 . S
C204 O197 1.247 . S
C204 O198 1.261 . S
C205 O200 1.259 . S
C205 O202 1.235 . S
O206 Co196 2.021 . S
O206 C203 1.238 . S
O207 Co201 2.052 . S
O207 C203 1.241 . S
O208 Co196 2.137 . S
O208 C199 1.247 . S
O209 Co196 2.244 . S
O209 C199 1.272 . S
O209 Co201 2.135 . S
Co210 O211 2.216 . S
Co210 O212 2.091 . S
Co210 O214 2.004 . S
Co210 O220 2.021 . S
Co210 O222 2.137 . S
Co210 O223 2.244 . S
O211 Co210 2.216 . S
O211 C218 1.247 . S
O212 Co210 2.091 . S
O212 C218 1.261 . S
C213 O222 1.247 . S
C213 O223 1.272 . S
O214 Co210 2.004 . S
O214 C219 1.259 . S
Co215 O216 2.061 . S
Co215 O221 2.052 . S
Co215 O223 2.135 . S
O216 Co215 2.061 . S
O216 C219 1.235 . S
C217 O220 1.238 . S
C217 O221 1.241 . S
C218 O211 1.247 . S
C218 O212 1.261 . S
C219 O214 1.259 . S
C219 O216 1.235 . S
O220 Co210 2.021 . S
O220 C217 1.238 . S
O221 Co215 2.052 . S
O221 C217 1.241 . S
O222 Co210 2.137 . S
O222 C213 1.247 . S
O223 Co210 2.244 . S
O223 C213 1.272 . S
O223 Co215 2.135 . S
Co224 O225 2.216 . S
Co224 O226 2.091 . S
Co224 O228 2.004 . S
Co224 O234 2.021 . S
Co224 O236 2.137 . S
Co224 O237 2.244 . S
O225 Co224 2.216 . S
O225 C232 1.247 . S
O226 Co224 2.091 . S
O226 C232 1.261 . S
C227 O236 1.247 . S
C227 O237 1.272 . S
O228 Co224 2.004 . S
O228 C233 1.259 . S
Co229 O230 2.061 . S
Co229 O235 2.052 . S
Co229 O237 2.135 . S
O230 Co229 2.061 . S
O230 C233 1.235 . S
C231 O234 1.238 . S
C231 O235 1.241 . S
C232 O225 1.247 . S
C232 O226 1.261 . S
C233 O228 1.259 . S
C233 O230 1.235 . S
O234 Co224 2.021 . S
O234 C231 1.238 . S
O235 Co229 2.052 . S
O235 C231 1.241 . S
O236 Co224 2.137 . S
O236 C227 1.247 . S
O237 Co224 2.244 . S
O237 C227 1.272 . S
O237 Co229 2.135 . S
Co238 O239 2.216 . S
Co238 O240 2.091 . S
Co238 O242 2.004 . S
Co238 O248 2.021 . S
Co238 O250 2.137 . S
Co238 O251 2.244 . S
O239 Co238 2.216 . S
O239 C246 1.247 . S
O240 Co238 2.091 . S
O240 C246 1.261 . S
C241 O250 1.247 . S
C241 O251 1.272 . S
O242 Co238 2.004 . S
O242 C247 1.259 . S
Co243 O244 2.061 . S
Co243 O249 2.052 . S
Co243 O251 2.135 . S
O244 Co243 2.061 . S
O244 C247 1.235 . S
C245 O248 1.238 . S
C245 O249 1.241 . S
C246 O239 1.247 . S
C246 O240 1.261 . S
C247 O242 1.259 . S
C247 O244 1.235 . S
O248 Co238 2.021 . S
O248 C245 1.238 . S
O249 Co243 2.052 . S
O249 C245 1.241 . S
O250 Co238 2.137 . S
O250 C241 1.247 . S
O251 Co238 2.244 . S
O251 C241 1.272 . S
O251 Co243 2.135 . S
C252 C253 1.391 . S
C252 C254 1.394 . S
C252 H268 0.931 . S
C253 C252 1.391 . S
C253 C257 1.376 . S
C254 C252 1.394 . S
C254 C255 1.369 . S
C254 C258 1.531 . S
C255 C254 1.369 . S
C255 C256 1.410 . S
C255 C263 1.503 . S
C256 C255 1.410 . S
C256 C257 1.392 . S
C256 C259 1.511 . S
C257 C253 1.376 . S
C257 C256 1.392 . S
C257 H269 0.929 . S
C258 C254 1.531 . S
C258 H270 0.960 . S
C258 H271 0.962 . S
C258 H272 0.960 . S
C259 C256 1.511 . S
C259 H273 0.961 . S
C259 H274 0.961 . S
C259 H275 0.961 . S
C260 C261 1.370 . S
C260 C262 1.363 . S
C260 H276 0.931 . S
C261 C260 1.370 . S
C261 C265 1.408 . S
C262 C260 1.363 . S
C262 C263 1.370 . S
C262 C266 1.524 . S
C263 C255 1.503 . S
C263 C262 1.370 . S
C263 C264 1.403 . S
C264 C263 1.403 . S
C264 C265 1.404 . S
C264 C267 1.539 . S
C265 C261 1.408 . S
C265 C264 1.404 . S
C265 H277 0.930 . S
C266 C262 1.524 . S
C266 H278 0.956 . S
C266 H279 0.961 . S
C266 H280 0.961 . S
C267 C264 1.539 . S
C267 H281 0.958 . S
C267 H282 0.961 . S
C267 H283 0.960 . S
H268 C252 0.931 . S
H269 C257 0.929 . S
H270 C258 0.960 . S
H271 C258 0.962 . S
H272 C258 0.960 . S
H273 C259 0.961 . S
H274 C259 0.961 . S
H275 C259 0.961 . S
H276 C260 0.931 . S
H277 C265 0.930 . S
H278 C266 0.956 . S
H279 C266 0.961 . S
H280 C266 0.961 . S
H281 C267 0.958 . S
H282 C267 0.961 . S
H283 C267 0.960 . S
C284 C285 1.391 . S
C284 C286 1.394 . S
C284 H300 0.931 . S
C285 C284 1.391 . S
C285 C289 1.376 . S
C286 C284 1.394 . S
C286 C287 1.369 . S
C286 C290 1.531 . S
C287 C286 1.369 . S
C287 C288 1.410 . S
C287 C295 1.503 . S
C288 C287 1.410 . S
C288 C289 1.392 . S
C288 C291 1.511 . S
C289 C285 1.376 . S
C289 C288 1.392 . S
C289 H301 0.933 . S
C290 C286 1.531 . S
C290 H302 0.960 . S
C290 H303 0.962 . S
C290 H304 0.960 . S
C291 C288 1.511 . S
C291 H305 0.961 . S
C291 H306 0.961 . S
C291 H307 0.961 . S
C292 C293 1.370 . S
C292 C294 1.363 . S
C292 H308 0.931 . S
C293 C292 1.370 . S
C293 C297 1.408 . S
C294 C292 1.363 . S
C294 C295 1.370 . S
C294 C298 1.524 . S
C295 C287 1.503 . S
C295 C294 1.370 . S
C295 C296 1.403 . S
C296 C295 1.403 . S
C296 C297 1.404 . S
C296 C299 1.539 . S
C297 C293 1.408 . S
C297 C296 1.404 . S
C297 H309 0.930 . S
C298 C294 1.524 . S
C298 H310 0.956 . S
C298 H311 0.961 . S
C298 H312 0.961 . S
C299 C296 1.539 . S
C299 H313 0.958 . S
C299 H314 0.961 . S
C299 H315 0.960 . S
H300 C284 0.931 . S
H301 C289 0.933 . S
H302 C290 0.960 . S
H303 C290 0.962 . S
H304 C290 0.960 . S
H305 C291 0.961 . S
H306 C291 0.961 . S
H307 C291 0.961 . S
H308 C292 0.931 . S
H309 C297 0.930 . S
H310 C298 0.956 . S
H311 C298 0.961 . S
H312 C298 0.961 . S
H313 C299 0.958 . S
H314 C299 0.961 . S
H315 C299 0.960 . S
C316 C317 1.391 . S
C316 C318 1.394 . S
C316 H332 0.931 . S
C317 C316 1.391 . S
C317 C321 1.376 . S
C318 C316 1.394 . S
C318 C319 1.369 . S
C318 C322 1.531 . S
C319 C318 1.369 . S
C319 C320 1.410 . S
C319 C327 1.503 . S
C320 C319 1.410 . S
C320 C321 1.392 . S
C320 C323 1.511 . S
C321 C317 1.376 . S
C321 C320 1.392 . S
C321 H333 0.929 . S
C322 C318 1.531 . S
C322 H334 0.960 . S
C322 H335 0.962 . S
C322 H336 0.960 . S
C323 C320 1.511 . S
C323 H337 0.961 . S
C323 H338 0.961 . S
C323 H339 0.961 . S
C324 C325 1.370 . S
C324 C326 1.363 . S
C324 H340 0.931 . S
C325 C324 1.370 . S
C325 C329 1.408 . S
C326 C324 1.363 . S
C326 C327 1.370 . S
C326 C330 1.524 . S
C327 C319 1.503 . S
C327 C326 1.370 . S
C327 C328 1.403 . S
C328 C327 1.403 . S
C328 C329 1.404 . S
C328 C331 1.539 . S
C329 C325 1.408 . S
C329 C328 1.404 . S
C329 H341 0.930 . S
C330 C326 1.524 . S
C330 H342 0.956 . S
C330 H343 0.961 . S
C330 H344 0.961 . S
C331 C328 1.539 . S
C331 H345 0.958 . S
C331 H346 0.961 . S
C331 H347 0.960 . S
H332 C316 0.931 . S
H333 C321 0.929 . S
H334 C322 0.960 . S
H335 C322 0.962 . S
H336 C322 0.960 . S
H337 C323 0.961 . S
H338 C323 0.961 . S
H339 C323 0.961 . S
H340 C324 0.931 . S
H341 C329 0.930 . S
H342 C330 0.956 . S
H343 C330 0.961 . S
H344 C330 0.961 . S
H345 C331 0.958 . S
H346 C331 0.961 . S
H347 C331 0.960 . S
C348 C349 1.391 . S
C348 C350 1.394 . S
C348 H364 0.931 . S
C349 C348 1.391 . S
C349 C353 1.376 . S
C350 C348 1.394 . S
C350 C351 1.369 . S
C350 C354 1.531 . S
C351 C350 1.369 . S
C351 C352 1.410 . S
C351 C359 1.503 . S
C352 C351 1.410 . S
C352 C353 1.392 . S
C352 C355 1.511 . S
C353 C349 1.376 . S
C353 C352 1.392 . S
C353 H365 0.929 . S
C354 C350 1.531 . S
C354 H366 0.960 . S
C354 H367 0.962 . S
C354 H368 0.960 . S
C355 C352 1.511 . S
C355 H369 0.961 . S
C355 H370 0.961 . S
C355 H371 0.961 . S
C356 C357 1.370 . S
C356 C358 1.363 . S
C356 H372 0.931 . S
C357 C356 1.370 . S
C357 C361 1.408 . S
C358 C356 1.363 . S
C358 C359 1.370 . S
C358 C362 1.524 . S
C359 C351 1.503 . S
C359 C358 1.370 . S
C359 C360 1.403 . S
C360 C359 1.403 . S
C360 C361 1.404 . S
C360 C363 1.539 . S
C361 C357 1.408 . S
C361 C360 1.404 . S
C361 H373 0.930 . S
C362 C358 1.524 . S
C362 H374 0.956 . S
C362 H375 0.961 . S
C362 H376 0.961 . S
C363 C360 1.539 . S
C363 H377 0.958 . S
C363 H378 0.961 . S
C363 H379 0.960 . S
H364 C348 0.931 . S
H365 C353 0.929 . S
H366 C354 0.960 . S
H367 C354 0.962 . S
H368 C354 0.960 . S
H369 C355 0.961 . S
H370 C355 0.961 . S
H371 C355 0.961 . S
H372 C356 0.931 . S
H373 C361 0.930 . S
H374 C362 0.956 . S
H375 C362 0.961 . S
H376 C362 0.961 . S
H377 C363 0.958 . S
H378 C363 0.961 . S
H379 C363 0.960 . S
C380 C381 1.391 . S
C380 C382 1.394 . S
C380 H396 0.931 . S
C381 C380 1.391 . S
C381 C385 1.376 . S
C382 C380 1.394 . S
C382 C383 1.369 . S
C382 C386 1.531 . S
C383 C382 1.369 . S
C383 C384 1.410 . S
C383 C391 1.503 . S
C384 C383 1.410 . S
C384 C385 1.392 . S
C384 C387 1.511 . S
C385 C381 1.376 . S
C385 C384 1.392 . S
C385 H397 0.894 1_565 S
C386 C382 1.531 . S
C386 H398 0.960 . S
C386 H399 0.962 . S
C386 H400 0.960 . S
C387 C384 1.511 . S
C387 H401 0.962 1_565 S
C387 H402 0.961 . S
C387 H403 0.961 . S
C388 C389 1.370 . S
C388 C390 1.363 . S
C388 H404 0.931 . S
C389 C388 1.370 . S
C389 C393 1.408 . S
C390 C388 1.363 . S
C390 C391 1.370 . S
C390 C394 1.524 . S
C391 C383 1.503 . S
C391 C390 1.370 . S
C391 C392 1.403 . S
C392 C391 1.403 . S
C392 C393 1.404 . S
C392 C395 1.539 . S
C393 C389 1.408 . S
C393 C392 1.404 . S
C393 H405 0.930 . S
C394 C390 1.524 . S
C394 H406 0.956 . S
C394 H407 0.961 . S
C394 H408 0.961 . S
C395 C392 1.539 . S
C395 H409 0.958 . S
C395 H410 0.961 . S
C395 H411 0.960 . S
H396 C380 0.931 . S
H397 C385 0.894 1_545 S
H398 C386 0.960 . S
H399 C386 0.962 . S
H400 C386 0.960 . S
H401 C387 0.962 1_545 S
H402 C387 0.961 . S
H403 C387 0.961 . S
H404 C388 0.931 . S
H405 C393 0.930 . S
H406 C394 0.956 . S
H407 C394 0.961 . S
H408 C394 0.961 . S
H409 C395 0.958 . S
H410 C395 0.961 . S
H411 C395 0.960 . S
C412 C413 1.391 . S
C412 C414 1.394 . S
C412 H428 0.931 . S
C413 C412 1.391 . S
C413 C417 1.376 . S
C414 C412 1.394 . S
C414 C415 1.369 . S
C414 C418 1.531 . S
C415 C414 1.369 . S
C415 C416 1.410 . S
C415 C423 1.503 . S
C416 C415 1.410 . S
C416 C417 1.392 . S
C416 C419 1.511 . S
C417 C413 1.376 . S
C417 C416 1.392 . S
C417 H429 0.929 . S
C418 C414 1.531 . S
C418 H430 0.960 . S
C418 H431 0.962 . S
C418 H432 0.960 . S
C419 C416 1.511 . S
C419 H433 0.961 . S
C419 H434 0.961 . S
C419 H435 0.961 . S
C420 C421 1.370 . S
C420 C422 1.363 . S
C420 H436 0.931 . S
C421 C420 1.370 . S
C421 C425 1.408 . S
C422 C420 1.363 . S
C422 C423 1.370 . S
C422 C426 1.524 . S
C423 C415 1.503 . S
C423 C422 1.370 . S
C423 C424 1.403 . S
C424 C423 1.403 . S
C424 C425 1.404 . S
C424 C427 1.539 . S
C425 C421 1.408 . S
C425 C424 1.404 . S
C425 H437 0.930 . S
C426 C422 1.524 . S
C426 H438 0.956 . S
C426 H439 0.961 . S
C426 H440 0.961 . S
C427 C424 1.539 . S
C427 H441 0.958 . S
C427 H442 0.961 . S
C427 H443 0.960 . S
H428 C412 0.931 . S
H429 C417 0.929 . S
H430 C418 0.960 . S
H431 C418 0.962 . S
H432 C418 0.960 . S
H433 C419 0.961 . S
H434 C419 0.961 . S
H435 C419 0.961 . S
H436 C420 0.931 . S
H437 C425 0.930 . S
H438 C426 0.956 . S
H439 C426 0.961 . S
H440 C426 0.961 . S
H441 C427 0.958 . S
H442 C427 0.961 . S
H443 C427 0.960 . S
C444 C445 1.391 . S
C444 C446 1.394 . S
C444 H460 0.931 . S
C445 C444 1.391 . S
C445 C449 1.376 . S
C446 C444 1.394 . S
C446 C447 1.369 . S
C446 C450 1.531 . S
C447 C446 1.369 . S
C447 C448 1.410 . S
C447 C455 1.503 1_655 S
C448 C447 1.410 . S
C448 C449 1.392 . S
C448 C451 1.511 . S
C449 C445 1.376 . S
C449 C448 1.392 . S
C449 H461 0.929 . S
C450 C446 1.531 . S
C450 H462 0.960 . S
C450 H463 0.962 . S
C450 H464 0.960 . S
C451 C448 1.511 . S
C451 H465 0.961 . S
C451 H466 0.961 1_655 S
C451 H467 0.961 . S
C452 C453 1.370 . S
C452 C454 1.363 . S
C452 H468 0.931 . S
C453 C452 1.370 . S
C453 C457 1.408 . S
C454 C452 1.363 . S
C454 C455 1.370 . S
C454 C458 1.524 . S
C455 C447 1.503 1_455 S
C455 C454 1.370 . S
C455 C456 1.403 . S
C456 C455 1.403 . S
C456 C457 1.404 . S
C456 C459 1.539 . S
C457 C453 1.408 . S
C457 C456 1.404 . S
C457 H469 0.930 . S
C458 C454 1.524 . S
C458 H470 0.956 . S
C458 H471 0.976 . S
C458 H472 0.961 . S
C459 C456 1.539 . S
C459 H473 0.958 . S
C459 H474 0.961 . S
C459 H475 0.944 1_455 S
H460 C444 0.931 . S
H461 C449 0.929 . S
H462 C450 0.960 . S
H463 C450 0.962 . S
H464 C450 0.960 . S
H465 C451 0.961 . S
H466 C451 0.961 1_455 S
H467 C451 0.961 . S
H468 C452 0.931 . S
H469 C457 0.930 . S
H470 C458 0.956 . S
H471 C458 0.976 . S
H472 C458 0.961 . S
H473 C459 0.958 . S
H474 C459 0.961 . S
H475 C459 0.944 1_655 S
C476 C477 1.391 . S
C476 C478 1.394 . S
C476 H492 0.931 . S
C477 C476 1.391 . S
C477 C481 1.376 . S
C478 C476 1.394 . S
C478 C479 1.369 . S
C478 C482 1.531 . S
C479 C478 1.369 . S
C479 C480 1.410 . S
C479 C487 1.503 . S
C480 C479 1.410 . S
C480 C481 1.392 . S
C480 C483 1.511 . S
C481 C477 1.376 . S
C481 C480 1.392 . S
C481 H493 0.929 . S
C482 C478 1.531 . S
C482 H494 0.960 . S
C482 H495 0.962 . S
C482 H496 0.960 . S
C483 C480 1.511 . S
C483 H497 0.961 . S
C483 H498 0.961 . S
C483 H499 0.961 . S
C484 C485 1.370 . S
C484 C486 1.363 . S
C484 H500 0.931 . S
C485 C484 1.370 . S
C485 C489 1.408 . S
C486 C484 1.363 . S
C486 C487 1.370 . S
C486 C490 1.524 . S
C487 C479 1.503 . S
C487 C486 1.370 . S
C487 C488 1.403 . S
C488 C487 1.403 . S
C488 C489 1.404 . S
C488 C491 1.539 . S
C489 C485 1.408 . S
C489 C488 1.404 . S
C489 H501 0.930 . S
C490 C486 1.524 . S
C490 H502 0.956 . S
C490 H503 0.961 . S
C490 H504 0.961 . S
C491 C488 1.539 . S
C491 H505 0.958 . S
C491 H506 0.961 . S
C491 H507 0.960 . S
H492 C476 0.931 . S
H493 C481 0.929 . S
H494 C482 0.960 . S
H495 C482 0.962 . S
H496 C482 0.960 . S
H497 C483 0.961 . S
H498 C483 0.961 . S
H499 C483 0.961 . S
H500 C484 0.931 . S
H501 C489 0.930 . S
H502 C490 0.956 . S
H503 C490 0.961 . S
H504 C490 0.961 . S
H505 C491 0.958 . S
H506 C491 0.961 . S
H507 C491 0.960 . S
C508 C509 1.391 . S
C508 C510 1.394 . S
C508 H524 0.931 . S
C509 C508 1.391 . S
C509 C513 1.376 . S
C510 C508 1.394 . S
C510 C511 1.369 . S
C510 C514 1.531 . S
C511 C510 1.369 . S
C511 C512 1.410 . S
C511 C519 1.503 1_545 S
C512 C511 1.410 . S
C512 C513 1.392 . S
C512 C515 1.511 . S
C513 C509 1.376 . S
C513 C512 1.392 . S
C513 H525 0.929 . S
C514 C510 1.531 . S
C514 H526 0.963 . S
C514 H527 0.962 . S
C514 H528 0.960 . S
C515 C512 1.511 . S
C515 H529 0.961 . S
C515 H530 0.961 1_545 S
C515 H531 0.961 . S
C516 C517 1.370 . S
C516 C518 1.363 . S
C516 H532 0.931 . S
C517 C516 1.370 . S
C517 C521 1.408 . S
C518 C516 1.363 . S
C518 C519 1.370 . S
C518 C522 1.524 . S
C519 C511 1.503 1_565 S
C519 C518 1.370 . S
C519 C520 1.403 . S
C520 C519 1.403 . S
C520 C521 1.404 . S
C520 C523 1.539 . S
C521 C517 1.408 . S
C521 C520 1.404 . S
C521 H533 0.930 . S
C522 C518 1.524 . S
C522 H534 0.956 . S
C522 H535 0.961 . S
C522 H536 0.961 . S
C523 C520 1.539 . S
C523 H537 0.958 . S
C523 H538 0.961 . S
C523 H539 0.960 1_565 S
H524 C508 0.931 . S
H525 C513 0.929 . S
H526 C514 0.963 . S
H527 C514 0.962 . S
H528 C514 0.960 . S
H529 C515 0.961 . S
H530 C515 0.961 1_565 S
H531 C515 0.961 . S
H532 C516 0.931 . S
H533 C521 0.930 . S
H534 C522 0.956 . S
H535 C522 0.961 . S
H536 C522 0.961 . S
H537 C523 0.958 . S
H538 C523 0.961 . S
H539 C523 0.960 1_545 S
C540 C541 1.391 . S
C540 C542 1.394 . S
C540 H556 0.931 . S
C541 C540 1.391 . S
C541 C545 1.376 . S
C542 C540 1.394 . S
C542 C543 1.369 . S
C542 C546 1.531 . S
C543 C542 1.369 . S
C543 C544 1.410 . S
C543 C551 1.503 1_455 S
C544 C543 1.410 . S
C544 C545 1.392 . S
C544 C547 1.511 . S
C545 C541 1.376 . S
C545 C544 1.392 . S
C545 H557 0.929 . S
C546 C542 1.531 . S
C546 H558 0.958 . S
C546 H559 0.962 . S
C546 H560 0.960 . S
C547 C544 1.511 . S
C547 H561 0.961 . S
C547 H562 0.961 1_455 S
C547 H563 0.961 . S
C548 C549 1.370 . S
C548 C550 1.363 . S
C548 H564 0.931 . S
C549 C548 1.370 . S
C549 C553 1.408 . S
C550 C548 1.363 . S
C550 C551 1.370 . S
C550 C554 1.524 . S
C551 C543 1.503 1_655 S
C551 C550 1.370 . S
C551 C552 1.403 . S
C552 C551 1.403 . S
C552 C553 1.404 . S
C552 C555 1.539 . S
C553 C549 1.408 . S
C553 C552 1.404 . S
C553 H565 0.930 . S
C554 C550 1.524 . S
C554 H566 0.956 1_655 S
C554 H567 0.961 1_655 S
C554 H568 0.961 . S
C555 C552 1.539 . S
C555 H569 0.958 . S
C555 H570 0.961 . S
C555 H571 0.960 . S
H556 C540 0.931 . S
H557 C545 0.929 . S
H558 C546 0.958 . S
H559 C546 0.962 . S
H560 C546 0.960 . S
H561 C547 0.961 . S
H562 C547 0.961 1_655 S
H563 C547 0.961 . S
H564 C548 0.931 . S
H565 C553 0.930 . S
H566 C554 0.956 1_455 S
H567 C554 0.961 1_455 S
H568 C554 0.961 . S
H569 C555 0.958 . S
H570 C555 0.961 . S
H571 C555 0.960 . S
C572 C573 1.391 . S
C572 C574 1.394 . S
C572 H588 0.931 . S
C573 C572 1.391 . S
C573 C577 1.376 . S
C574 C572 1.394 . S
C574 C575 1.369 . S
C574 C578 1.531 . S
C575 C574 1.369 . S
C575 C576 1.410 . S
C575 C583 1.503 . S
C576 C575 1.410 . S
C576 C577 1.392 . S
C576 C579 1.511 . S
C577 C573 1.376 . S
C577 C576 1.392 . S
C577 H589 0.929 . S
C578 C574 1.531 . S
C578 H590 0.960 . S
C578 H591 0.962 . S
C578 H592 0.960 . S
C579 C576 1.511 . S
C579 H593 0.961 . S
C579 H594 0.961 . S
C579 H595 0.961 . S
C580 C581 1.370 . S
C580 C582 1.363 . S
C580 H596 0.931 . S
C581 C580 1.370 . S
C581 C585 1.408 . S
C582 C580 1.363 . S
C582 C583 1.370 . S
C582 C586 1.524 . S
C583 C575 1.503 . S
C583 C582 1.370 . S
C583 C584 1.403 . S
C584 C583 1.403 . S
C584 C585 1.404 . S
C584 C587 1.539 . S
C585 C581 1.408 . S
C585 C584 1.404 . S
C585 H597 0.930 . S
C586 C582 1.524 . S
C586 H598 0.956 . S
C586 H599 0.961 . S
C586 H600 0.961 . S
C587 C584 1.539 . S
C587 H601 0.958 . S
C587 H602 0.961 . S
C587 H603 0.960 . S
H588 C572 0.931 . S
H589 C577 0.929 . S
H590 C578 0.960 . S
H591 C578 0.962 . S
H592 C578 0.960 . S
H593 C579 0.961 . S
H594 C579 0.961 . S
H595 C579 0.961 . S
H596 C580 0.931 . S
H597 C585 0.930 . S
H598 C586 0.956 . S
H599 C586 0.961 . S
H600 C586 0.961 . S
H601 C587 0.958 . S
H602 C587 0.961 . S
H603 C587 0.960 . S
C604 C605 1.391 . S
C604 C606 1.394 . S
C604 H620 0.931 . S
C605 C604 1.391 . S
C605 C609 1.376 . S
C606 C604 1.394 . S
C606 C607 1.369 . S
C606 C610 1.531 . S
C607 C606 1.369 . S
C607 C608 1.410 . S
C607 C615 1.503 1_545 S
C608 C607 1.410 . S
C608 C609 1.392 . S
C608 C611 1.511 . S
C609 C605 1.376 . S
C609 C608 1.392 . S
C609 H621 0.929 . S
C610 C606 1.531 . S
C610 H622 0.960 1_545 S
C610 H623 0.962 . S
C610 H624 0.960 . S
C611 C608 1.511 . S
C611 H625 0.961 . S
C611 H626 0.961 1_545 S
C611 H627 0.961 . S
C612 C613 1.370 . S
C612 C614 1.363 . S
C612 H628 0.931 . S
C613 C612 1.370 . S
C613 C617 1.408 . S
C614 C612 1.363 . S
C614 C615 1.370 . S
C614 C618 1.524 . S
C615 C607 1.503 1_565 S
C615 C614 1.370 . S
C615 C616 1.403 . S
C616 C615 1.403 . S
C616 C617 1.404 . S
C616 C619 1.539 . S
C617 C613 1.408 . S
C617 C616 1.404 . S
C617 H629 0.930 . S
C618 C614 1.524 . S
C618 H630 0.956 . S
C618 H631 0.961 . S
C618 H632 0.961 . S
C619 C616 1.539 . S
C619 H633 0.958 . S
C619 H634 0.961 . S
C619 H635 0.960 1_565 S
H620 C604 0.931 . S
H621 C609 0.929 . S
H622 C610 0.960 1_565 S
H623 C610 0.962 . S
H624 C610 0.960 . S
H625 C611 0.961 . S
H626 C611 0.961 1_565 S
H627 C611 0.961 . S
H628 C612 0.931 . S
H629 C617 0.930 . S
H630 C618 0.956 . S
H631 C618 0.961 . S
H632 C618 0.961 . S
H633 C619 0.958 . S
H634 C619 0.961 . S
H635 C619 0.960 1_545 S
C636 C637 1.391 . S
C636 C638 1.394 . S
C636 H652 0.931 . S
C637 C636 1.391 . S
C637 C641 1.376 . S
C638 C636 1.394 . S
C638 C639 1.369 . S
C638 C642 1.531 . S
C639 C638 1.369 . S
C639 C640 1.410 . S
C639 C647 1.503 1_565 S
C640 C639 1.410 . S
C640 C641 1.392 . S
C640 C643 1.511 . S
C641 C637 1.376 . S
C641 C640 1.392 . S
C641 H653 0.929 . S
C642 C638 1.531 . S
C642 H654 0.960 1_565 S
C642 H655 0.962 . S
C642 H656 0.960 . S
C643 C640 1.511 . S
C643 H657 0.961 . S
C643 H658 0.961 . S
C643 H659 0.961 . S
C644 C645 1.370 . S
C644 C646 1.363 . S
C644 H660 0.931 . S
C645 C644 1.370 . S
C645 C649 1.408 . S
C646 C644 1.363 . S
C646 C647 1.370 . S
C646 C650 1.524 . S
C647 C639 1.503 1_545 S
C647 C646 1.370 . S
C647 C648 1.403 . S
C648 C647 1.403 . S
C648 C649 1.404 . S
C648 C651 1.539 . S
C649 C645 1.408 . S
C649 C648 1.404 . S
C649 H661 0.930 . S
C650 C646 1.524 . S
C650 H662 0.956 . S
C650 H663 0.961 1_545 S
C650 H664 0.961 . S
C651 C648 1.539 . S
C651 H665 0.958 . S
C651 H666 0.961 . S
C651 H667 0.960 . S
H652 C636 0.931 . S
H653 C641 0.929 . S
H654 C642 0.960 1_545 S
H655 C642 0.962 . S
H656 C642 0.960 . S
H657 C643 0.961 . S
H658 C643 0.961 . S
H659 C643 0.961 . S
H660 C644 0.931 . S
H661 C649 0.930 . S
H662 C650 0.956 . S
H663 C650 0.961 1_565 S
H664 C650 0.961 . S
H665 C651 0.958 . S
H666 C651 0.961 . S
H667 C651 0.960 . S
C668 C669 1.391 . S
C668 C670 1.394 . S
C668 H684 0.931 . S
C669 C668 1.391 . S
C669 C673 1.376 . S
C670 C668 1.394 . S
C670 C671 1.369 . S
C670 C674 1.531 . S
C671 C670 1.369 . S
C671 C672 1.410 . S
C671 C679 1.503 1_455 S
C672 C671 1.410 . S
C672 C673 1.392 . S
C672 C675 1.511 . S
C673 C669 1.376 . S
C673 C672 1.392 . S
C673 H685 0.929 . S
C674 C670 1.531 . S
C674 H686 0.960 1_455 S
C674 H687 0.962 . S
C674 H688 0.960 . S
C675 C672 1.511 . S
C675 H689 0.961 . S
C675 H690 0.961 . S
C675 H691 0.961 . S
C676 C677 1.370 . S
C676 C678 1.363 . S
C676 H692 0.931 . S
C677 C676 1.370 . S
C677 C681 1.408 . S
C678 C676 1.363 . S
C678 C679 1.370 . S
C678 C682 1.524 . S
C679 C671 1.503 1_655 S
C679 C678 1.370 . S
C679 C680 1.403 . S
C680 C679 1.403 . S
C680 C681 1.404 . S
C680 C683 1.539 . S
C681 C677 1.408 . S
C681 C680 1.404 . S
C681 H693 0.930 . S
C682 C678 1.524 . S
C682 H694 0.956 . S
C682 H695 0.961 1_655 S
C682 H696 0.961 . S
C683 C680 1.539 . S
C683 H697 0.958 . S
C683 H698 0.961 . S
C683 H699 0.956 1_655 S
H684 C668 0.931 . S
H685 C673 0.929 . S
H686 C674 0.960 1_655 S
H687 C674 0.962 . S
H688 C674 0.960 . S
H689 C675 0.961 . S
H690 C675 0.961 . S
H691 C675 0.961 . S
H692 C676 0.931 . S
H693 C681 0.930 . S
H694 C682 0.956 . S
H695 C682 0.961 1_455 S
H696 C682 0.961 . S
H697 C683 0.958 . S
H698 C683 0.961 . S
H699 C683 0.956 1_455 S
C700 C701 1.391 . S
C700 C702 1.394 . S
C700 H716 0.931 . S
C701 C700 1.391 . S
C701 C705 1.376 . S
C702 C700 1.394 . S
C702 C703 1.369 . S
C702 C706 1.531 . S
C703 C702 1.369 . S
C703 C704 1.410 . S
C703 C711 1.503 . S
C704 C703 1.410 . S
C704 C705 1.392 . S
C704 C707 1.511 . S
C705 C701 1.376 . S
C705 C704 1.392 . S
C705 H717 0.929 . S
C706 C702 1.531 . S
C706 H718 0.960 . S
C706 H719 0.962 . S
C706 H720 0.960 . S
C707 C704 1.511 . S
C707 H721 0.961 . S
C707 H722 0.961 . S
C707 H723 0.961 . S
C708 C709 1.370 . S
C708 C710 1.363 . S
C708 H724 0.931 . S
C709 C708 1.370 . S
C709 C713 1.408 . S
C710 C708 1.363 . S
C710 C711 1.370 . S
C710 C714 1.524 . S
C711 C703 1.503 . S
C711 C710 1.370 . S
C711 C712 1.403 . S
C712 C711 1.403 . S
C712 C713 1.404 . S
C712 C715 1.539 . S
C713 C709 1.408 . S
C713 C712 1.404 . S
C713 H725 0.930 . S
C714 C710 1.524 . S
C714 H726 0.956 . S
C714 H727 0.961 . S
C714 H728 0.961 . S
C715 C712 1.539 . S
C715 H729 0.958 . S
C715 H730 0.961 . S
C715 H731 0.960 . S
H716 C700 0.931 . S
H717 C705 0.929 . S
H718 C706 0.960 . S
H719 C706 0.962 . S
H720 C706 0.960 . S
H721 C707 0.961 . S
H722 C707 0.961 . S
H723 C707 0.961 . S
H724 C708 0.931 . S
H725 C713 0.930 . S
H726 C714 0.956 . S
H727 C714 0.961 . S
H728 C714 0.961 . S
H729 C715 0.958 . S
H730 C715 0.961 . S
H731 C715 0.960 . S
C732 C733 1.391 . S
C732 C734 1.394 . S
C732 H748 0.931 . S
C733 C732 1.391 . S
C733 C737 1.376 . S
C734 C732 1.394 . S
C734 C735 1.369 . S
C734 C738 1.531 . S
C735 C734 1.369 . S
C735 C736 1.410 . S
C735 C743 1.503 . S
C736 C735 1.410 . S
C736 C737 1.392 . S
C736 C739 1.511 . S
C737 C733 1.376 . S
C737 C736 1.392 . S
C737 H749 0.929 . S
C738 C734 1.531 . S
C738 H750 0.960 . S
C738 H751 0.962 . S
C738 H752 0.960 . S
C739 C736 1.511 . S
C739 H753 0.961 . S
C739 H754 0.961 . S
C739 H755 0.961 . S
C740 C741 1.370 . S
C740 C742 1.363 . S
C740 H756 0.931 . S
C741 C740 1.370 . S
C741 C745 1.408 . S
C742 C740 1.363 . S
C742 C743 1.370 . S
C742 C746 1.524 . S
C743 C735 1.503 . S
C743 C742 1.370 . S
C743 C744 1.403 . S
C744 C743 1.403 . S
C744 C745 1.404 . S
C744 C747 1.539 . S
C745 C741 1.408 . S
C745 C744 1.404 . S
C745 H757 0.930 . S
C746 C742 1.524 . S
C746 H758 0.956 . S
C746 H759 0.961 . S
C746 H760 0.961 . S
C747 C744 1.539 . S
C747 H761 0.958 . S
C747 H762 0.961 . S
C747 H763 0.960 . S
H748 C732 0.931 . S
H749 C737 0.929 . S
H750 C738 0.960 . S
H751 C738 0.962 . S
H752 C738 0.960 . S
H753 C739 0.961 . S
H754 C739 0.961 . S
H755 C739 0.961 . S
H756 C740 0.931 . S
H757 C745 0.930 . S
H758 C746 0.956 . S
H759 C746 0.961 . S
H760 C746 0.961 . S
H761 C747 0.958 . S
H762 C747 0.961 . S
H763 C747 0.960 . S
C764 C765 1.391 . S
C764 C766 1.394 . S
C764 H780 0.931 . S
C765 C764 1.391 . S
C765 C769 1.376 . S
C766 C764 1.394 . S
C766 C767 1.369 . S
C766 C770 1.531 . S
C767 C766 1.369 . S
C767 C768 1.410 . S
C767 C775 1.503 . S
C768 C767 1.410 . S
C768 C769 1.392 . S
C768 C771 1.511 . S
C769 C765 1.376 . S
C769 C768 1.392 . S
C769 H781 0.929 . S
C770 C766 1.531 . S
C770 H782 0.960 . S
C770 H783 0.962 . S
C770 H784 0.960 . S
C771 C768 1.511 . S
C771 H785 0.961 . S
C771 H786 0.961 . S
C771 H787 0.961 . S
C772 C773 1.370 . S
C772 C774 1.363 . S
C772 H788 0.931 . S
C773 C772 1.370 . S
C773 C777 1.408 . S
C774 C772 1.363 . S
C774 C775 1.370 . S
C774 C778 1.524 . S
C775 C767 1.503 . S
C775 C774 1.370 . S
C775 C776 1.403 . S
C776 C775 1.403 . S
C776 C777 1.404 . S
C776 C779 1.539 . S
C777 C773 1.408 . S
C777 C776 1.404 . S
C777 H789 0.930 . S
C778 C774 1.524 . S
C778 H790 0.956 . S
C778 H791 0.961 . S
C778 H792 0.961 . S
C779 C776 1.539 . S
C779 H793 0.958 . S
C779 H794 0.961 . S
C779 H795 0.960 . S
H780 C764 0.931 . S
H781 C769 0.929 . S
H782 C770 0.960 . S
H783 C770 0.962 . S
H784 C770 0.960 . S
H785 C771 0.961 . S
H786 C771 0.961 . S
H787 C771 0.961 . S
H788 C772 0.931 . S
H789 C777 0.930 . S
H790 C778 0.956 . S
H791 C778 0.961 . S
H792 C778 0.961 . S
H793 C779 0.958 . S
H794 C779 0.961 . S
H795 C779 0.960 . S
C796 C797 1.391 . S
C796 C798 1.394 . S
C796 H812 0.931 . S
C797 C796 1.391 . S
C797 C801 1.376 . S
C798 C796 1.394 . S
C798 C799 1.369 . S
C798 C802 1.531 . S
C799 C798 1.369 . S
C799 C800 1.410 . S
C799 C807 1.503 . S
C800 C799 1.410 . S
C800 C801 1.392 . S
C800 C803 1.511 . S
C801 C797 1.376 . S
C801 C800 1.392 . S
C801 H813 0.929 . S
C802 C798 1.531 . S
C802 H814 0.960 . S
C802 H815 0.962 . S
C802 H816 0.960 . S
C803 C800 1.511 . S
C803 H817 0.961 . S
C803 H818 0.961 . S
C803 H819 0.961 . S
C804 C805 1.370 . S
C804 C806 1.363 . S
C804 H820 0.931 . S
C805 C804 1.370 . S
C805 C809 1.408 . S
C806 C804 1.363 . S
C806 C807 1.370 . S
C806 C810 1.524 . S
C807 C799 1.503 . S
C807 C806 1.370 . S
C807 C808 1.403 . S
C808 C807 1.403 . S
C808 C809 1.404 . S
C808 C811 1.539 . S
C809 C805 1.408 . S
C809 C808 1.404 . S
C809 H821 0.930 . S
C810 C806 1.524 . S
C810 H822 0.956 . S
C810 H823 0.961 . S
C810 H824 0.961 . S
C811 C808 1.539 . S
C811 H825 0.958 . S
C811 H826 0.961 . S
C811 H827 0.960 . S
H812 C796 0.931 . S
H813 C801 0.929 . S
H814 C802 0.960 . S
H815 C802 0.962 . S
H816 C802 0.960 . S
H817 C803 0.961 . S
H818 C803 0.961 . S
H819 C803 0.961 . S
H820 C804 0.931 . S
H821 C809 0.930 . S
H822 C810 0.956 . S
H823 C810 0.961 . S
H824 C810 0.961 . S
H825 C811 0.958 . S
H826 C811 0.961 . S
H827 C811 0.960 . S
C828 C829 1.391 . S
C828 C830 1.394 . S
C828 H844 0.931 . S
C829 C828 1.391 . S
C829 C833 1.376 . S
C830 C828 1.394 . S
C830 C831 1.369 . S
C830 C834 1.531 . S
C831 C830 1.369 . S
C831 C832 1.410 . S
C831 C839 1.503 . S
C832 C831 1.410 . S
C832 C833 1.392 . S
C832 C835 1.511 . S
C833 C829 1.376 . S
C833 C832 1.392 . S
C833 H845 0.929 . S
C834 C830 1.531 . S
C834 H846 0.960 . S
C834 H847 0.962 . S
C834 H848 0.960 . S
C835 C832 1.511 . S
C835 H849 0.961 . S
C835 H850 0.961 . S
C835 H851 0.961 . S
C836 C837 1.370 . S
C836 C838 1.363 . S
C836 H852 0.931 . S
C837 C836 1.370 . S
C837 C841 1.408 . S
C838 C836 1.363 . S
C838 C839 1.370 . S
C838 C842 1.524 . S
C839 C831 1.503 . S
C839 C838 1.370 . S
C839 C840 1.403 . S
C840 C839 1.403 . S
C840 C841 1.404 . S
C840 C843 1.539 . S
C841 C837 1.408 . S
C841 C840 1.404 . S
C841 H853 0.930 . S
C842 C838 1.524 . S
C842 H854 0.956 . S
C842 H855 0.961 . S
C842 H856 0.961 . S
C843 C840 1.539 . S
C843 H857 0.958 . S
C843 H858 0.961 . S
C843 H859 0.960 . S
H844 C828 0.931 . S
H845 C833 0.929 . S
H846 C834 0.960 . S
H847 C834 0.962 . S
H848 C834 0.960 . S
H849 C835 0.961 . S
H850 C835 0.961 . S
H851 C835 0.961 . S
H852 C836 0.931 . S
H853 C841 0.930 . S
H854 C842 0.956 . S
H855 C842 0.961 . S
H856 C842 0.961 . S
H857 C843 0.958 . S
H858 C843 0.961 . S
H859 C843 0.960 . S
C860 C861 1.391 . S
C860 C862 1.394 . S
C860 H876 0.931 . S
C861 C860 1.391 . S
C861 C865 1.376 . S
C862 C860 1.394 . S
C862 C863 1.369 . S
C862 C866 1.531 . S
C863 C862 1.369 . S
C863 C864 1.410 . S
C863 C871 1.503 . S
C864 C863 1.410 . S
C864 C865 1.392 . S
C864 C867 1.511 . S
C865 C861 1.376 . S
C865 C864 1.392 . S
C865 H877 0.929 . S
C866 C862 1.531 . S
C866 H878 0.960 . S
C866 H879 0.962 . S
C866 H880 0.960 . S
C867 C864 1.511 . S
C867 H881 0.961 . S
C867 H882 0.961 . S
C867 H883 0.961 . S
C868 C869 1.370 . S
C868 C870 1.363 . S
C868 H884 0.931 . S
C869 C868 1.370 . S
C869 C873 1.408 . S
C870 C868 1.363 . S
C870 C871 1.370 . S
C870 C874 1.524 . S
C871 C863 1.503 . S
C871 C870 1.370 . S
C871 C872 1.403 . S
C872 C871 1.403 . S
C872 C873 1.404 . S
C872 C875 1.539 . S
C873 C869 1.408 . S
C873 C872 1.404 . S
C873 H885 0.930 . S
C874 C870 1.524 . S
C874 H886 0.956 . S
C874 H887 0.961 . S
C874 H888 0.961 . S
C875 C872 1.539 . S
C875 H889 0.958 . S
C875 H890 0.961 . S
C875 H891 0.960 . S
H876 C860 0.931 . S
H877 C865 0.929 . S
H878 C866 0.960 . S
H879 C866 0.962 . S
H880 C866 0.960 . S
H881 C867 0.961 . S
H882 C867 0.961 . S
H883 C867 0.961 . S
H884 C868 0.931 . S
H885 C873 0.930 . S
H886 C874 0.956 . S
H887 C874 0.961 . S
H888 C874 0.961 . S
H889 C875 0.958 . S
H890 C875 0.961 . S
H891 C875 0.960 . S
C892 C893 1.391 . S
C892 C894 1.394 . S
C892 H908 0.931 . S
C893 C892 1.391 . S
C893 C897 1.376 . S
C894 C892 1.394 . S
C894 C895 1.369 . S
C894 C898 1.531 . S
C895 C894 1.369 . S
C895 C896 1.410 . S
C895 C903 1.503 . S
C896 C895 1.410 . S
C896 C897 1.392 . S
C896 C899 1.511 . S
C897 C893 1.376 . S
C897 C896 1.392 . S
C897 H909 0.929 . S
C898 C894 1.531 . S
C898 H910 0.960 . S
C898 H911 0.962 . S
C898 H912 0.960 . S
C899 C896 1.511 . S
C899 H913 0.961 . S
C899 H914 0.961 . S
C899 H915 0.961 . S
C900 C901 1.370 . S
C900 C902 1.363 . S
C900 H916 0.931 . S
C901 C900 1.370 . S
C901 C905 1.408 . S
C902 C900 1.363 . S
C902 C903 1.370 . S
C902 C906 1.524 . S
C903 C895 1.503 . S
C903 C902 1.370 . S
C903 C904 1.403 . S
C904 C903 1.403 . S
C904 C905 1.404 . S
C904 C907 1.539 . S
C905 C901 1.408 . S
C905 C904 1.404 . S
C905 H917 0.930 . S
C906 C902 1.524 . S
C906 H918 0.956 . S
C906 H919 0.961 . S
C906 H920 0.961 . S
C907 C904 1.539 . S
C907 H921 0.958 . S
C907 H922 0.961 . S
C907 H923 0.960 . S
H908 C892 0.931 . S
H909 C897 0.929 . S
H910 C898 0.960 . S
H911 C898 0.962 . S
H912 C898 0.960 . S
H913 C899 0.961 . S
H914 C899 0.961 . S
H915 C899 0.961 . S
H916 C900 0.931 . S
H917 C905 0.930 . S
H918 C906 0.956 . S
H919 C906 0.961 . S
H920 C906 0.961 . S
H921 C907 0.958 . S
H922 C907 0.961 . S
H923 C907 0.960 . S
C924 C925 1.391 . S
C924 C926 1.394 . S
C924 H940 0.931 . S
C925 C924 1.391 . S
C925 C929 1.376 . S
C926 C924 1.394 . S
C926 C927 1.369 . S
C926 C930 1.531 . S
C927 C926 1.369 . S
C927 C928 1.410 . S
C927 C935 1.503 . S
C928 C927 1.410 . S
C928 C929 1.392 . S
C928 C931 1.511 . S
C929 C925 1.376 . S
C929 C928 1.392 . S
C929 H941 0.929 . S
C930 C926 1.531 . S
C930 H942 0.960 . S
C930 H943 0.962 . S
C930 H944 0.960 . S
C931 C928 1.511 . S
C931 H945 0.961 . S
C931 H946 0.961 . S
C931 H947 0.961 . S
C932 C933 1.370 . S
C932 C934 1.363 . S
C932 H948 0.931 . S
C933 C932 1.370 . S
C933 C937 1.408 . S
C934 C932 1.363 . S
C934 C935 1.370 . S
C934 C938 1.524 . S
C935 C927 1.503 . S
C935 C934 1.370 . S
C935 C936 1.403 . S
C936 C935 1.403 . S
C936 C937 1.404 . S
C936 C939 1.539 . S
C937 C933 1.408 . S
C937 C936 1.404 . S
C937 H949 0.930 . S
C938 C934 1.524 . S
C938 H950 0.956 . S
C938 H951 0.961 . S
C938 H952 0.961 . S
C939 C936 1.539 . S
C939 H953 0.958 . S
C939 H954 0.961 . S
C939 H955 0.960 . S
H940 C924 0.931 . S
H941 C929 0.929 . S
H942 C930 0.960 . S
H943 C930 0.962 . S
H944 C930 0.960 . S
H945 C931 0.961 . S
H946 C931 0.961 . S
H947 C931 0.961 . S
H948 C932 0.931 . S
H949 C937 0.930 . S
H950 C938 0.956 . S
H951 C938 0.961 . S
H952 C938 0.961 . S
H953 C939 0.958 . S
H954 C939 0.961 . S
H955 C939 0.960 . S
C956 C957 1.391 . S
C956 C958 1.394 . S
C956 H972 0.931 . S
C957 C956 1.391 . S
C957 C961 1.376 . S
C958 C956 1.394 . S
C958 C959 1.369 . S
C958 C962 1.531 . S
C959 C958 1.369 . S
C959 C960 1.410 . S
C959 C967 1.503 . S
C960 C959 1.410 . S
C960 C961 1.392 . S
C960 C963 1.511 . S
C961 C957 1.376 . S
C961 C960 1.392 . S
C961 H973 0.929 . S
C962 C958 1.531 . S
C962 H974 0.960 . S
C962 H975 0.962 . S
C962 H976 0.960 . S
C963 C960 1.511 . S
C963 H977 0.961 . S
C963 H978 0.961 . S
C963 H979 0.961 . S
C964 C965 1.370 . S
C964 C966 1.363 . S
C964 H980 0.931 . S
C965 C964 1.370 . S
C965 C969 1.408 . S
C966 C964 1.363 . S
C966 C967 1.370 . S
C966 C970 1.524 . S
C967 C959 1.503 . S
C967 C966 1.370 . S
C967 C968 1.403 . S
C968 C967 1.403 . S
C968 C969 1.404 . S
C968 C971 1.539 . S
C969 C965 1.408 . S
C969 C968 1.404 . S
C969 H981 0.930 . S
C970 C966 1.524 . S
C970 H982 0.956 . S
C970 H983 0.961 . S
C970 H984 0.961 . S
C971 C968 1.539 . S
C971 H985 0.958 . S
C971 H986 0.961 . S
C971 H987 0.960 . S
H972 C956 0.931 . S
H973 C961 0.929 . S
H974 C962 0.960 . S
H975 C962 0.962 . S
H976 C962 0.960 . S
H977 C963 0.961 . S
H978 C963 0.961 . S
H979 C963 0.961 . S
H980 C964 0.931 . S
H981 C969 0.930 . S
H982 C970 0.956 . S
H983 C970 0.961 . S
H984 C970 0.961 . S
H985 C971 0.958 . S
H986 C971 0.961 . S
H987 C971 0.960 . S
C988 C989 1.391 . S
C988 C990 1.394 . S
C988 H1004 0.931 . S
C989 C988 1.391 . S
C989 C993 1.376 . S
C990 C988 1.394 . S
C990 C991 1.369 . S
C990 C994 1.531 . S
C991 C990 1.369 . S
C991 C992 1.410 . S
C991 C999 1.503 . S
C992 C991 1.410 . S
C992 C993 1.392 . S
C992 C995 1.511 . S
C993 C989 1.376 . S
C993 C992 1.392 . S
C993 H1005 0.929 . S
C994 C990 1.531 . S
C994 H1006 0.960 . S
C994 H1007 0.962 . S
C994 H1008 0.960 . S
C995 C992 1.511 . S
C995 H1009 0.961 . S
C995 H1010 0.961 . S
C995 H1011 0.961 . S
C996 C997 1.370 . S
C996 C998 1.363 . S
C996 H1012 0.931 . S
C997 C996 1.370 . S
C997 C1001 1.408 . S
C998 C996 1.363 . S
C998 C999 1.370 . S
C998 C1002 1.524 . S
C999 C991 1.503 . S
C999 C998 1.370 . S
C999 C1000 1.403 . S
C1000 C999 1.403 . S
C1000 C1001 1.404 . S
C1000 C1003 1.539 . S
C1001 C997 1.408 . S
C1001 C1000 1.404 . S
C1001 H1013 0.930 . S
C1002 C998 1.524 . S
C1002 H1014 0.956 . S
C1002 H1015 0.961 . S
C1002 H1016 0.961 . S
C1003 C1000 1.539 . S
C1003 H1017 0.958 . S
C1003 H1018 0.961 . S
C1003 H1019 0.960 . S
H1004 C988 0.931 . S
H1005 C993 0.929 . S
H1006 C994 0.960 . S
H1007 C994 0.962 . S
H1008 C994 0.960 . S
H1009 C995 0.961 . S
H1010 C995 0.961 . S
H1011 C995 0.961 . S
H1012 C996 0.931 . S
H1013 C1001 0.930 . S
H1014 C1002 0.956 . S
H1015 C1002 0.961 . S
H1016 C1002 0.961 . S
H1017 C1003 0.958 . S
H1018 C1003 0.961 . S
H1019 C1003 0.960 . S
C1020 C1021 1.391 . S
C1020 C1022 1.394 . S
C1020 H1036 0.931 . S
C1021 C1020 1.391 . S
C1021 C1025 1.376 . S
C1022 C1020 1.394 . S
C1022 C1023 1.369 . S
C1022 C1026 1.531 . S
C1023 C1022 1.369 . S
C1023 C1024 1.410 . S
C1023 C1031 1.503 . S
C1024 C1023 1.410 . S
C1024 C1025 1.392 . S
C1024 C1027 1.511 . S
C1025 C1021 1.376 . S
C1025 C1024 1.392 . S
C1025 H1037 0.929 . S
C1026 C1022 1.531 . S
C1026 H1038 0.960 . S
C1026 H1039 0.962 . S
C1026 H1040 0.960 . S
C1027 C1024 1.511 . S
C1027 H1041 0.961 . S
C1027 H1042 0.961 . S
C1027 H1043 0.961 . S
C1028 C1029 1.370 . S
C1028 C1030 1.363 . S
C1028 H1044 0.931 . S
C1029 C1028 1.370 . S
C1029 C1033 1.408 . S
C1030 C1028 1.363 . S
C1030 C1031 1.370 . S
C1030 C1034 1.524 . S
C1031 C1023 1.503 . S
C1031 C1030 1.370 . S
C1031 C1032 1.403 . S
C1032 C1031 1.403 . S
C1032 C1033 1.404 . S
C1032 C1035 1.539 . S
C1033 C1029 1.408 . S
C1033 C1032 1.404 . S
C1033 H1045 0.930 . S
C1034 C1030 1.524 . S
C1034 H1046 0.956 . S
C1034 H1047 0.961 . S
C1034 H1048 0.961 . S
C1035 C1032 1.539 . S
C1035 H1049 0.958 . S
C1035 H1050 0.961 . S
C1035 H1051 0.960 . S
H1036 C1020 0.931 . S
H1037 C1025 0.929 . S
H1038 C1026 0.960 . S
H1039 C1026 0.962 . S
H1040 C1026 0.960 . S
H1041 C1027 0.961 . S
H1042 C1027 0.961 . S
H1043 C1027 0.961 . S
H1044 C1028 0.931 . S
H1045 C1033 0.930 . S
H1046 C1034 0.956 . S
H1047 C1034 0.961 . S
H1048 C1034 0.961 . S
H1049 C1035 0.958 . S
H1050 C1035 0.961 . S
H1051 C1035 0.960 . S
C1052 C1053 1.391 . S
C1052 C1054 1.394 . S
C1052 H1068 0.931 . S
C1053 C1052 1.391 . S
C1053 C1057 1.376 . S
C1054 C1052 1.394 . S
C1054 C1055 1.369 . S
C1054 C1058 1.531 . S
C1055 C1054 1.369 . S
C1055 C1056 1.410 . S
C1055 C1063 1.503 . S
C1056 C1055 1.410 . S
C1056 C1057 1.392 . S
C1056 C1059 1.511 . S
C1057 C1053 1.376 . S
C1057 C1056 1.392 . S
C1057 H1069 0.929 . S
C1058 C1054 1.531 . S
C1058 H1070 0.960 . S
C1058 H1071 0.962 . S
C1058 H1072 0.960 . S
C1059 C1056 1.511 . S
C1059 H1073 0.961 . S
C1059 H1074 0.961 . S
C1059 H1075 0.961 . S
C1060 C1061 1.370 . S
C1060 C1062 1.363 . S
C1060 H1076 0.931 . S
C1061 C1060 1.370 . S
C1061 C1065 1.408 . S
C1062 C1060 1.363 . S
C1062 C1063 1.370 . S
C1062 C1066 1.524 . S
C1063 C1055 1.503 . S
C1063 C1062 1.370 . S
C1063 C1064 1.403 . S
C1064 C1063 1.403 . S
C1064 C1065 1.404 . S
C1064 C1067 1.539 . S
C1065 C1061 1.408 . S
C1065 C1064 1.404 . S
C1065 H1077 0.930 . S
C1066 C1062 1.524 . S
C1066 H1078 0.956 . S
C1066 H1079 0.961 . S
C1066 H1080 0.961 . S
C1067 C1064 1.539 . S
C1067 H1081 0.958 . S
C1067 H1082 0.961 . S
C1067 H1083 0.960 . S
H1068 C1052 0.931 . S
H1069 C1057 0.929 . S
H1070 C1058 0.960 . S
H1071 C1058 0.962 . S
H1072 C1058 0.960 . S
H1073 C1059 0.961 . S
H1074 C1059 0.961 . S
H1075 C1059 0.961 . S
H1076 C1060 0.931 . S
H1077 C1065 0.930 . S
H1078 C1066 0.956 . S
H1079 C1066 0.961 . S
H1080 C1066 0.961 . S
H1081 C1067 0.958 . S
H1082 C1067 0.961 . S
H1083 C1067 0.960 . S
C1084 C1085 1.391 . S
C1084 C1086 1.394 . S
C1084 H1100 0.931 . S
C1085 C1084 1.391 . S
C1085 C1089 1.376 . S
C1086 C1084 1.394 . S
C1086 C1087 1.369 . S
C1086 C1090 1.531 . S
C1087 C1086 1.369 . S
C1087 C1088 1.410 . S
C1087 C1095 1.503 . S
C1088 C1087 1.410 . S
C1088 C1089 1.392 . S
C1088 C1091 1.511 . S
C1089 C1085 1.376 . S
C1089 C1088 1.392 . S
C1089 H1101 0.929 . S
C1090 C1086 1.531 . S
C1090 H1102 0.960 . S
C1090 H1103 0.962 . S
C1090 H1104 0.960 . S
C1091 C1088 1.511 . S
C1091 H1105 0.961 . S
C1091 H1106 0.961 . S
C1091 H1107 0.961 . S
C1092 C1093 1.370 . S
C1092 C1094 1.363 . S
C1092 H1108 0.931 . S
C1093 C1092 1.370 . S
C1093 C1097 1.408 . S
C1094 C1092 1.363 . S
C1094 C1095 1.370 . S
C1094 C1098 1.524 . S
C1095 C1087 1.503 . S
C1095 C1094 1.370 . S
C1095 C1096 1.403 . S
C1096 C1095 1.403 . S
C1096 C1097 1.404 . S
C1096 C1099 1.539 . S
C1097 C1093 1.408 . S
C1097 C1096 1.404 . S
C1097 H1109 0.930 . S
C1098 C1094 1.524 . S
C1098 H1110 0.956 . S
C1098 H1111 0.961 . S
C1098 H1112 0.961 . S
C1099 C1096 1.539 . S
C1099 H1113 0.958 . S
C1099 H1114 0.961 . S
C1099 H1115 0.960 . S
H1100 C1084 0.931 . S
H1101 C1089 0.929 . S
H1102 C1090 0.960 . S
H1103 C1090 0.962 . S
H1104 C1090 0.960 . S
H1105 C1091 0.961 . S
H1106 C1091 0.961 . S
H1107 C1091 0.961 . S
H1108 C1092 0.931 . S
H1109 C1097 0.930 . S
H1110 C1098 0.956 . S
H1111 C1098 0.961 . S
H1112 C1098 0.961 . S
H1113 C1099 0.958 . S
H1114 C1099 0.961 . S
H1115 C1099 0.960 . S
C1116 C1117 1.391 . S
C1116 C1118 1.394 . S
C1116 H1132 0.931 . S
C1117 C1116 1.391 . S
C1117 C1121 1.376 . S
C1118 C1116 1.394 . S
C1118 C1119 1.369 . S
C1118 C1122 1.531 . S
C1119 C1118 1.369 . S
C1119 C1120 1.410 . S
C1119 C1127 1.503 1_554 S
C1120 C1119 1.410 . S
C1120 C1121 1.392 . S
C1120 C1123 1.511 . S
C1121 C1117 1.376 . S
C1121 C1120 1.392 . S
C1121 H1133 0.929 . S
C1122 C1118 1.531 . S
C1122 H1134 0.960 . S
C1122 H1135 0.962 . S
C1122 H1136 0.960 . S
C1123 C1120 1.511 . S
C1123 H1137 0.961 . S
C1123 H1138 0.961 1_554 S
C1123 H1139 0.961 . S
C1124 C1125 1.370 . S
C1124 C1126 1.363 . S
C1124 H1140 0.931 . S
C1125 C1124 1.370 . S
C1125 C1129 1.408 . S
C1126 C1124 1.363 . S
C1126 C1127 1.370 . S
C1126 C1130 1.524 . S
C1127 C1119 1.503 1_556 S
C1127 C1126 1.370 . S
C1127 C1128 1.403 . S
C1128 C1127 1.403 . S
C1128 C1129 1.404 . S
C1128 C1131 1.539 . S
C1129 C1125 1.408 . S
C1129 C1128 1.404 . S
C1129 H1141 0.930 . S
C1130 C1126 1.524 . S
C1130 H1142 0.942 1_556 S
C1130 H1143 0.959 . S
C1130 H1144 0.961 . S
C1131 C1128 1.539 . S
C1131 H1145 0.958 . S
C1131 H1146 0.961 . S
C1131 H1147 0.960 . S
H1132 C1116 0.931 . S
H1133 C1121 0.929 . S
H1134 C1122 0.960 . S
H1135 C1122 0.962 . S
H1136 C1122 0.960 . S
H1137 C1123 0.961 . S
H1138 C1123 0.961 1_556 S
H1139 C1123 0.961 . S
H1140 C1124 0.931 . S
H1141 C1129 0.930 . S
H1142 C1130 0.942 1_554 S
H1143 C1130 0.959 . S
H1144 C1130 0.961 . S
H1145 C1131 0.958 . S
H1146 C1131 0.961 . S
H1147 C1131 0.960 . S
C1148 C1149 1.391 . S
C1148 C1150 1.394 . S
C1148 H1164 0.931 . S
C1149 C1148 1.391 . S
C1149 C1153 1.376 1_545 S
C1150 C1148 1.394 . S
C1150 C1151 1.369 . S
C1150 C1154 1.531 . S
C1151 C1150 1.369 . S
C1151 C1152 1.410 1_545 S
C1151 C1159 1.503 1_556 S
C1152 C1151 1.410 1_565 S
C1152 C1153 1.392 . S
C1152 C1155 1.511 . S
C1153 C1149 1.376 1_565 S
C1153 C1152 1.392 . S
C1153 H1165 0.929 . S
C1154 C1150 1.531 . S
C1154 H1166 0.960 1_556 S
C1154 H1167 0.962 . S
C1154 H1168 0.960 . S
C1155 C1152 1.511 . S
C1155 H1169 0.961 . S
C1155 H1170 0.961 . S
C1155 H1171 0.961 . S
C1156 C1157 1.370 . S
C1156 C1158 1.363 . S
C1156 H1172 0.931 . S
C1157 C1156 1.370 . S
C1157 C1161 1.408 1_565 S
C1158 C1156 1.363 . S
C1158 C1159 1.370 1_565 S
C1158 C1162 1.524 . S
C1159 C1151 1.503 1_554 S
C1159 C1158 1.370 1_545 S
C1159 C1160 1.403 . S
C1160 C1159 1.403 . S
C1160 C1161 1.404 . S
C1160 C1163 1.539 . S
C1161 C1157 1.408 1_545 S
C1161 C1160 1.404 . S
C1161 H1173 0.930 . S
C1162 C1158 1.524 . S
C1162 H1174 0.949 1_554 S
C1162 H1175 0.961 1_554 S
C1162 H1176 0.961 . S
C1163 C1160 1.539 . S
C1163 H1177 0.958 . S
C1163 H1178 0.961 . S
C1163 H1179 0.960 . S
H1164 C1148 0.931 . S
H1165 C1153 0.929 . S
H1166 C1154 0.960 1_554 S
H1167 C1154 0.962 . S
H1168 C1154 0.960 . S
H1169 C1155 0.961 . S
H1170 C1155 0.961 . S
H1171 C1155 0.961 . S
H1172 C1156 0.931 . S
H1173 C1161 0.930 . S
H1174 C1162 0.949 1_556 S
H1175 C1162 0.961 1_556 S
H1176 C1162 0.961 . S
H1177 C1163 0.958 . S
H1178 C1163 0.961 . S
H1179 C1163 0.960 . S
C1180 C1181 1.391 . S
C1180 C1182 1.394 . S
C1180 H1196 0.931 . S
C1181 C1180 1.391 . S
C1181 C1185 1.376 1_655 S
C1182 C1180 1.394 . S
C1182 C1183 1.385 . S
C1182 C1186 1.531 . S
C1183 C1182 1.385 . S
C1183 C1184 1.396 1_655 S
C1183 C1191 1.502 1_656 S
C1184 C1183 1.396 1_455 S
C1184 C1185 1.392 . S
C1184 C1187 1.511 . S
C1185 C1181 1.376 1_455 S
C1185 C1184 1.392 . S
C1185 H1197 0.929 . S
C1186 C1182 1.531 . S
C1186 H1198 0.960 1_556 S
C1186 H1199 0.962 . S
C1186 H1200 0.960 . S
C1187 C1184 1.511 . S
C1187 H1201 0.961 . S
C1187 H1202 0.961 . S
C1187 H1203 0.961 . S
C1188 C1189 1.395 . S
C1188 C1190 1.362 1_455 S
C1188 H1204 0.908 1_455 S
C1189 C1188 1.395 . S
C1189 C1193 1.408 . S
C1190 C1188 1.362 1_655 S
C1190 C1191 1.370 1_655 S
C1190 C1194 1.524 . S
C1191 C1183 1.502 1_454 S
C1191 C1190 1.370 1_455 S
C1191 C1192 1.403 . S
C1192 C1191 1.403 . S
C1192 C1193 1.404 . S
C1192 C1195 1.539 . S
C1193 C1189 1.408 . S
C1193 C1192 1.404 . S
C1193 H1205 0.930 . S
C1194 C1190 1.524 . S
C1194 H1206 0.956 . S
C1194 H1207 0.961 1_654 S
C1194 H1208 0.961 . S
C1195 C1192 1.539 . S
C1195 H1209 0.944 1_455 S
C1195 H1210 0.961 . S
C1195 H1211 0.960 1_554 S
H1196 C1180 0.931 . S
H1197 C1185 0.929 . S
H1198 C1186 0.960 1_554 S
H1199 C1186 0.962 . S
H1200 C1186 0.960 . S
H1201 C1187 0.961 . S
H1202 C1187 0.961 . S
H1203 C1187 0.961 . S
H1204 C1188 0.908 1_655 S
H1205 C1193 0.930 . S
H1206 C1194 0.956 . S
H1207 C1194 0.961 1_456 S
H1208 C1194 0.961 . S
H1209 C1195 0.944 1_655 S
H1210 C1195 0.961 . S
H1211 C1195 0.960 1_556 S
C1212 C1213 1.391 . S
C1212 C1214 1.394 . S
C1212 H1228 0.931 . S
C1213 C1212 1.391 . S
C1213 C1217 1.376 . S
C1214 C1212 1.394 . S
C1214 C1215 1.369 . S
C1214 C1218 1.531 . S
C1215 C1214 1.369 . S
C1215 C1216 1.410 . S
C1215 C1223 1.503 . S
C1216 C1215 1.410 . S
C1216 C1217 1.392 . S
C1216 C1219 1.511 . S
C1217 C1213 1.376 . S
C1217 C1216 1.392 . S
C1217 H1229 0.929 . S
C1218 C1214 1.531 . S
C1218 H1230 0.960 . S
C1218 H1231 0.962 . S
C1218 H1232 0.960 . S
C1219 C1216 1.511 . S
C1219 H1233 0.961 . S
C1219 H1234 0.961 . S
C1219 H1235 0.961 . S
C1220 C1221 1.370 . S
C1220 C1222 1.363 . S
C1220 H1236 0.931 . S
C1221 C1220 1.370 . S
C1221 C1225 1.408 . S
C1222 C1220 1.363 . S
C1222 C1223 1.370 . S
C1222 C1226 1.524 . S
C1223 C1215 1.503 . S
C1223 C1222 1.370 . S
C1223 C1224 1.403 . S
C1224 C1223 1.403 . S
C1224 C1225 1.404 . S
C1224 C1227 1.539 . S
C1225 C1221 1.408 . S
C1225 C1224 1.404 . S
C1225 H1237 0.930 . S
C1226 C1222 1.524 . S
C1226 H1238 0.956 . S
C1226 H1239 0.961 . S
C1226 H1240 0.961 . S
C1227 C1224 1.539 . S
C1227 H1241 0.958 . S
C1227 H1242 0.961 . S
C1227 H1243 0.960 . S
H1228 C1212 0.931 . S
H1229 C1217 0.929 . S
H1230 C1218 0.960 . S
H1231 C1218 0.962 . S
H1232 C1218 0.960 . S
H1233 C1219 0.961 . S
H1234 C1219 0.961 . S
H1235 C1219 0.961 . S
H1236 C1220 0.931 . S
H1237 C1225 0.930 . S
H1238 C1226 0.956 . S
H1239 C1226 0.961 . S
H1240 C1226 0.961 . S
H1241 C1227 0.958 . S
H1242 C1227 0.961 . S
H1243 C1227 0.960 . S
C1244 C1245 1.391 . S
C1244 C1246 1.394 . S
C1244 H1260 0.931 . S
C1245 C1244 1.391 . S
C1245 C1249 1.376 . S
C1246 C1244 1.394 . S
C1246 C1247 1.369 . S
C1246 C1250 1.531 . S
C1247 C1246 1.369 . S
C1247 C1248 1.410 . S
C1247 C1255 1.503 . S
C1248 C1247 1.410 . S
C1248 C1249 1.392 . S
C1248 C1251 1.511 . S
C1249 C1245 1.376 . S
C1249 C1248 1.392 . S
C1249 H1261 0.929 . S
C1250 C1246 1.531 . S
C1250 H1262 0.960 . S
C1250 H1263 0.962 . S
C1250 H1264 0.960 . S
C1251 C1248 1.511 . S
C1251 H1265 0.961 . S
C1251 H1266 0.961 . S
C1251 H1267 0.961 . S
C1252 C1253 1.370 . S
C1252 C1254 1.363 . S
C1252 H1268 0.931 . S
C1253 C1252 1.370 . S
C1253 C1257 1.408 . S
C1254 C1252 1.363 . S
C1254 C1255 1.370 . S
C1254 C1258 1.524 . S
C1255 C1247 1.503 . S
C1255 C1254 1.370 . S
C1255 C1256 1.403 . S
C1256 C1255 1.403 . S
C1256 C1257 1.404 . S
C1256 C1259 1.539 . S
C1257 C1253 1.408 . S
C1257 C1256 1.404 . S
C1257 H1269 0.930 . S
C1258 C1254 1.524 . S
C1258 H1270 0.956 . S
C1258 H1271 0.961 . S
C1258 H1272 0.961 . S
C1259 C1256 1.539 . S
C1259 H1273 0.958 . S
C1259 H1274 0.961 . S
C1259 H1275 0.960 . S
H1260 C1244 0.931 . S
H1261 C1249 0.929 . S
H1262 C1250 0.960 . S
H1263 C1250 0.962 . S
H1264 C1250 0.960 . S
H1265 C1251 0.961 . S
H1266 C1251 0.961 . S
H1267 C1251 0.961 . S
H1268 C1252 0.931 . S
H1269 C1257 0.930 . S
H1270 C1258 0.956 . S
H1271 C1258 0.961 . S
H1272 C1258 0.961 . S
H1273 C1259 0.958 . S
H1274 C1259 0.961 . S
H1275 C1259 0.960 . S
C1276 C1277 1.391 . S
C1276 C1278 1.394 . S
C1276 H1292 0.931 . S
C1277 C1276 1.391 . S
C1277 C1281 1.376 . S
C1278 C1276 1.394 . S
C1278 C1279 1.369 . S
C1278 C1282 1.531 . S
C1279 C1278 1.369 . S
C1279 C1280 1.410 . S
C1279 C1287 1.503 . S
C1280 C1279 1.410 . S
C1280 C1281 1.392 . S
C1280 C1283 1.511 . S
C1281 C1277 1.376 . S
C1281 C1280 1.392 . S
C1281 H1293 0.929 . S
C1282 C1278 1.531 . S
C1282 H1294 0.960 . S
C1282 H1295 0.962 . S
C1282 H1296 0.960 . S
C1283 C1280 1.511 . S
C1283 H1297 0.961 . S
C1283 H1298 0.961 . S
C1283 H1299 0.961 . S
C1284 C1285 1.370 . S
C1284 C1286 1.363 . S
C1284 H1300 0.931 . S
C1285 C1284 1.370 . S
C1285 C1289 1.408 . S
C1286 C1284 1.363 . S
C1286 C1287 1.370 . S
C1286 C1290 1.524 . S
C1287 C1279 1.503 . S
C1287 C1286 1.370 . S
C1287 C1288 1.403 . S
C1288 C1287 1.403 . S
C1288 C1289 1.404 . S
C1288 C1291 1.539 . S
C1289 C1285 1.408 . S
C1289 C1288 1.404 . S
C1289 H1301 0.930 . S
C1290 C1286 1.524 . S
C1290 H1302 0.956 . S
C1290 H1303 0.961 . S
C1290 H1304 0.961 . S
C1291 C1288 1.539 . S
C1291 H1305 0.958 . S
C1291 H1306 0.961 . S
C1291 H1307 0.960 . S
H1292 C1276 0.931 . S
H1293 C1281 0.929 . S
H1294 C1282 0.960 . S
H1295 C1282 0.962 . S
H1296 C1282 0.960 . S
H1297 C1283 0.961 . S
H1298 C1283 0.961 . S
H1299 C1283 0.961 . S
H1300 C1284 0.931 . S
H1301 C1289 0.930 . S
H1302 C1290 0.956 . S
H1303 C1290 0.961 . S
H1304 C1290 0.961 . S
H1305 C1291 0.958 . S
H1306 C1291 0.961 . S
H1307 C1291 0.960 . S
C1308 C1309 1.391 . S
C1308 C1310 1.394 . S
C1308 H1324 0.931 . S
C1309 C1308 1.391 . S
C1309 C1313 1.376 . S
C1310 C1308 1.394 . S
C1310 C1311 1.369 . S
C1310 C1314 1.531 . S
C1311 C1310 1.369 . S
C1311 C1312 1.410 . S
C1311 C1319 1.503 . S
C1312 C1311 1.410 . S
C1312 C1313 1.392 . S
C1312 C1315 1.511 . S
C1313 C1309 1.376 . S
C1313 C1312 1.392 . S
C1313 H1325 0.929 . S
C1314 C1310 1.531 . S
C1314 H1326 0.960 . S
C1314 H1327 0.962 . S
C1314 H1328 0.960 . S
C1315 C1312 1.511 . S
C1315 H1329 0.961 . S
C1315 H1330 0.961 . S
C1315 H1331 0.961 . S
C1316 C1317 1.370 . S
C1316 C1318 1.363 . S
C1316 H1332 0.931 . S
C1317 C1316 1.370 . S
C1317 C1321 1.408 . S
C1318 C1316 1.363 . S
C1318 C1319 1.370 . S
C1318 C1322 1.524 . S
C1319 C1311 1.503 . S
C1319 C1318 1.370 . S
C1319 C1320 1.403 . S
C1320 C1319 1.403 . S
C1320 C1321 1.404 . S
C1320 C1323 1.539 . S
C1321 C1317 1.408 . S
C1321 C1320 1.404 . S
C1321 H1333 0.930 . S
C1322 C1318 1.524 . S
C1322 H1334 0.956 . S
C1322 H1335 0.961 . S
C1322 H1336 0.961 . S
C1323 C1320 1.539 . S
C1323 H1337 0.958 . S
C1323 H1338 0.961 . S
C1323 H1339 0.960 . S
H1324 C1308 0.931 . S
H1325 C1313 0.929 . S
H1326 C1314 0.960 . S
H1327 C1314 0.962 . S
H1328 C1314 0.960 . S
H1329 C1315 0.961 . S
H1330 C1315 0.961 . S
H1331 C1315 0.961 . S
H1332 C1316 0.931 . S
H1333 C1321 0.930 . S
H1334 C1322 0.956 . S
H1335 C1322 0.961 . S
H1336 C1322 0.961 . S
H1337 C1323 0.958 . S
H1338 C1323 0.961 . S
H1339 C1323 0.960 . S
C1340 C1341 1.391 . S
C1340 C1342 1.394 . S
C1340 H1356 0.931 . S
C1341 C1340 1.391 . S
C1341 C1345 1.376 . S
C1342 C1340 1.394 . S
C1342 C1343 1.369 . S
C1342 C1346 1.531 . S
C1343 C1342 1.369 . S
C1343 C1344 1.410 . S
C1343 C1351 1.503 . S
C1344 C1343 1.410 . S
C1344 C1345 1.392 . S
C1344 C1347 1.511 . S
C1345 C1341 1.376 . S
C1345 C1344 1.392 . S
C1345 H1357 0.929 . S
C1346 C1342 1.531 . S
C1346 H1358 0.960 . S
C1346 H1359 0.962 . S
C1346 H1360 0.960 . S
C1347 C1344 1.511 . S
C1347 H1361 0.961 . S
C1347 H1362 0.961 . S
C1347 H1363 0.961 . S
C1348 C1349 1.370 . S
C1348 C1350 1.363 . S
C1348 H1364 0.931 . S
C1349 C1348 1.370 . S
C1349 C1353 1.408 . S
C1350 C1348 1.363 . S
C1350 C1351 1.370 . S
C1350 C1354 1.524 . S
C1351 C1343 1.503 . S
C1351 C1350 1.370 . S
C1351 C1352 1.403 . S
C1352 C1351 1.403 . S
C1352 C1353 1.404 . S
C1352 C1355 1.539 . S
C1353 C1349 1.408 . S
C1353 C1352 1.404 . S
C1353 H1365 0.930 . S
C1354 C1350 1.524 . S
C1354 H1366 0.956 . S
C1354 H1367 0.961 . S
C1354 H1368 0.961 . S
C1355 C1352 1.539 . S
C1355 H1369 0.958 . S
C1355 H1370 0.961 . S
C1355 H1371 0.960 . S
H1356 C1340 0.931 . S
H1357 C1345 0.929 . S
H1358 C1346 0.960 . S
H1359 C1346 0.962 . S
H1360 C1346 0.960 . S
H1361 C1347 0.961 . S
H1362 C1347 0.961 . S
H1363 C1347 0.961 . S
H1364 C1348 0.931 . S
H1365 C1353 0.930 . S
H1366 C1354 0.956 . S
H1367 C1354 0.961 . S
H1368 C1354 0.961 . S
H1369 C1355 0.958 . S
H1370 C1355 0.961 . S
H1371 C1355 0.960 . S
C1372 C1373 1.391 . S
C1372 C1374 1.394 . S
C1372 H1388 0.931 . S
C1373 C1372 1.391 . S
C1373 C1377 1.376 . S
C1374 C1372 1.394 . S
C1374 C1375 1.369 . S
C1374 C1378 1.531 . S
C1375 C1374 1.369 . S
C1375 C1376 1.410 . S
C1375 C1383 1.503 . S
C1376 C1375 1.410 . S
C1376 C1377 1.392 . S
C1376 C1379 1.511 . S
C1377 C1373 1.376 . S
C1377 C1376 1.392 . S
C1377 H1389 0.929 . S
C1378 C1374 1.531 . S
C1378 H1390 0.960 . S
C1378 H1391 0.962 . S
C1378 H1392 0.960 . S
C1379 C1376 1.511 . S
C1379 H1393 0.961 . S
C1379 H1394 0.961 . S
C1379 H1395 0.961 . S
C1380 C1381 1.370 . S
C1380 C1382 1.363 . S
C1380 H1396 0.931 . S
C1381 C1380 1.370 . S
C1381 C1385 1.408 . S
C1382 C1380 1.363 . S
C1382 C1383 1.370 . S
C1382 C1386 1.524 . S
C1383 C1375 1.503 . S
C1383 C1382 1.370 . S
C1383 C1384 1.403 . S
C1384 C1383 1.403 . S
C1384 C1385 1.404 . S
C1384 C1387 1.539 . S
C1385 C1381 1.408 . S
C1385 C1384 1.404 . S
C1385 H1397 0.930 . S
C1386 C1382 1.524 . S
C1386 H1398 0.956 . S
C1386 H1399 0.961 . S
C1386 H1400 0.961 . S
C1387 C1384 1.539 . S
C1387 H1401 0.958 . S
C1387 H1402 0.961 . S
C1387 H1403 0.960 . S
H1388 C1372 0.931 . S
H1389 C1377 0.929 . S
H1390 C1378 0.960 . S
H1391 C1378 0.962 . S
H1392 C1378 0.960 . S
H1393 C1379 0.961 . S
H1394 C1379 0.961 . S
H1395 C1379 0.961 . S
H1396 C1380 0.931 . S
H1397 C1385 0.930 . S
H1398 C1386 0.956 . S
H1399 C1386 0.961 . S
H1400 C1386 0.961 . S
H1401 C1387 0.958 . S
H1402 C1387 0.961 . S
H1403 C1387 0.960 . S
C253 C148 1.131 . S
C261 C8 1.159 . S
C285 C22 1.137 . S
C293 C162 1.162 . S
C317 C134 1.171 . S
C325 C36 1.150 . S
C349 C204 1.142 . S
C357 C50 1.151 . S
C381 C64 1.137 . S
C389 C176 1.163 . S
C413 C190 1.171 . S
C421 C78 1.148 . S
C445 C92 1.150 . S
C453 C232 1.148 . S
C477 C246 1.155 . S
C485 C106 1.147 . S
C509 C120 1.165 . S
C517 C218 1.146 . S
C541 C9 1.058 . S
C549 C17 1.066 . S
C573 C23 1.031 . S
C581 C31 1.058 . S
C605 C3 1.053 . S
C613 C37 1.014 . S
C637 C73 1.035 . S
C645 C51 0.972 . S
C669 C45 1.032 . S
C677 C65 0.977 . S
C701 C79 1.051 . S
C709 C59 1.072 . S
C733 C93 0.947 . S
C741 C101 1.050 . S
C765 C107 0.939 . S
C773 C115 1.058 . S
C797 C87 1.079 . S
C805 C121 1.000 . S
C829 C157 1.041 . S
C837 C135 1.001 . S
C861 C129 1.041 . S
C869 C149 0.971 . S
C893 C143 1.084 . S
C901 C163 1.023 . S
C925 C185 1.044 . S
C933 C177 0.972 . S
C957 C199 1.083 . S
C965 C191 1.008 . S
C989 C171 1.065 . S
C997 C205 0.984 . S
C1021 C219 0.945 . S
C1029 C241 1.050 . S
C1053 C233 0.934 . S
C1061 C213 1.051 . S
C1085 C247 1.060 . S
C1093 C227 1.067 . S
C1117 C7 1.552 . S
C1125 C49 1.576 . S
C1149 C63 1.623 . S
C1157 C21 1.602 . S
C1181 C77 1.619 . S
C1189 C35 1.607 . S
C1213 C133 1.576 . S
C1221 C91 1.580 . S
C1245 C147 1.577 . S
C1253 C105 1.595 . S
C1277 C119 1.616 . S
C1285 C161 1.597 . S
C1309 C217 1.590 . S
C1317 C175 1.600 . S
C1341 C231 1.572 . S
C1349 C189 1.593 . S
C1373 C245 1.551 . S
C1381 C203 1.576 . S
