# Generated by pormake.
# Topology wla, (5)-cn, num edge types: 1
# Building blocks:
#     Node 0, Type 0, BuildingBlock: BEQFEK_clean_sbu_0, # of connection points: 5
#     Node 1, Type 0, BuildingBlock: BEQFEK_clean_sbu_0, # of connection points: 5
#     Node 2, Type 0, BuildingBlock: BEQFEK_clean_sbu_0, # of connection points: 5
#     Node 3, Type 0, BuildingBlock: BEQFEK_clean_sbu_0, # of connection points: 5
#     Node 4, Type 0, BuildingBlock: BEQFEK_clean_sbu_0, # of connection points: 5
#     Node 5, Type 0, BuildingBlock: BEQFEK_clean_sbu_0, # of connection points: 5
#     Node 6, Type 0, BuildingBlock: BEQFEK_clean_sbu_0, # of connection points: 5
#     Node 7, Type 0, BuildingBlock: BEQFEK_clean_sbu_0, # of connection points: 5
#     Node 8, Type 0, BuildingBlock: BEQFEK_clean_sbu_0, # of connection points: 5
#     Node 9, Type 0, BuildingBlock: BEQFEK_clean_sbu_0, # of connection points: 5
#     Node 10, Type 0, BuildingBlock: BEQFEK_clean_sbu_0, # of connection points: 5
#     Node 11, Type 0, BuildingBlock: BEQFEK_clean_sbu_0, # of connection points: 5
#     Node 12, Type 0, BuildingBlock: BEQFEK_clean_sbu_0, # of connection points: 5
#     Node 13, Type 0, BuildingBlock: BEQFEK_clean_sbu_0, # of connection points: 5
#     Node 14, Type 0, BuildingBlock: BEQFEK_clean_sbu_0, # of connection points: 5
#     Node 15, Type 0, BuildingBlock: BEQFEK_clean_sbu_0, # of connection points: 5
#     Node 16, Type 0, BuildingBlock: BEQFEK_clean_sbu_0, # of connection points: 5
#     Node 17, Type 0, BuildingBlock: BEQFEK_clean_sbu_0, # of connection points: 5
#     Edge 18, Type (0, 0), BuildingBlock: OJICUG_clean_linker_0, # of connection points: 2
#     Edge 19, Type (0, 0), BuildingBlock: OJICUG_clean_linker_0, # of connection points: 2
#     Edge 20, Type (0, 0), BuildingBlock: OJICUG_clean_linker_0, # of connection points: 2
#     Edge 21, Type (0, 0), BuildingBlock: OJICUG_clean_linker_0, # of connection points: 2
#     Edge 22, Type (0, 0), BuildingBlock: OJICUG_clean_linker_0, # of connection points: 2
#     Edge 23, Type (0, 0), BuildingBlock: OJICUG_clean_linker_0, # of connection points: 2
#     Edge 24, Type (0, 0), BuildingBlock: OJICUG_clean_linker_0, # of connection points: 2
#     Edge 25, Type (0, 0), BuildingBlock: OJICUG_clean_linker_0, # of connection points: 2
#     Edge 26, Type (0, 0), BuildingBlock: OJICUG_clean_linker_0, # of connection points: 2
#     Edge 27, Type (0, 0), BuildingBlock: OJICUG_clean_linker_0, # of connection points: 2
#     Edge 28, Type (0, 0), BuildingBlock: OJICUG_clean_linker_0, # of connection points: 2
#     Edge 29, Type (0, 0), BuildingBlock: OJICUG_clean_linker_0, # of connection points: 2
#     Edge 30, Type (0, 0), BuildingBlock: OJICUG_clean_linker_0, # of connection points: 2
#     Edge 31, Type (0, 0), BuildingBlock: OJICUG_clean_linker_0, # of connection points: 2
#     Edge 32, Type (0, 0), BuildingBlock: OJICUG_clean_linker_0, # of connection points: 2
#     Edge 33, Type (0, 0), BuildingBlock: OJICUG_clean_linker_0, # of connection points: 2
#     Edge 34, Type (0, 0), BuildingBlock: OJICUG_clean_linker_0, # of connection points: 2
#     Edge 35, Type (0, 0), BuildingBlock: OJICUG_clean_linker_0, # of connection points: 2
#     Edge 36, Type (0, 0), BuildingBlock: OJICUG_clean_linker_0, # of connection points: 2
#     Edge 37, Type (0, 0), BuildingBlock: OJICUG_clean_linker_0, # of connection points: 2
#     Edge 38, Type (0, 0), BuildingBlock: OJICUG_clean_linker_0, # of connection points: 2
#     Edge 39, Type (0, 0), BuildingBlock: OJICUG_clean_linker_0, # of connection points: 2
#     Edge 40, Type (0, 0), BuildingBlock: OJICUG_clean_linker_0, # of connection points: 2
#     Edge 41, Type (0, 0), BuildingBlock: OJICUG_clean_linker_0, # of connection points: 2
#     Edge 42, Type (0, 0), BuildingBlock: OJICUG_clean_linker_0, # of connection points: 2
#     Edge 43, Type (0, 0), BuildingBlock: OJICUG_clean_linker_0, # of connection points: 2
#     Edge 44, Type (0, 0), BuildingBlock: OJICUG_clean_linker_0, # of connection points: 2
#     Edge 45, Type (0, 0), BuildingBlock: OJICUG_clean_linker_0, # of connection points: 2
#     Edge 46, Type (0, 0), BuildingBlock: OJICUG_clean_linker_0, # of connection points: 2
#     Edge 47, Type (0, 0), BuildingBlock: OJICUG_clean_linker_0, # of connection points: 2
#     Edge 48, Type (0, 0), BuildingBlock: OJICUG_clean_linker_0, # of connection points: 2
#     Edge 49, Type (0, 0), BuildingBlock: OJICUG_clean_linker_0, # of connection points: 2
#     Edge 50, Type (0, 0), BuildingBlock: OJICUG_clean_linker_0, # of connection points: 2
#     Edge 51, Type (0, 0), BuildingBlock: OJICUG_clean_linker_0, # of connection points: 2
#     Edge 52, Type (0, 0), BuildingBlock: OJICUG_clean_linker_0, # of connection points: 2
#     Edge 53, Type (0, 0), BuildingBlock: OJICUG_clean_linker_0, # of connection points: 2
#     Edge 54, Type (0, 0), BuildingBlock: OJICUG_clean_linker_0, # of connection points: 2
#     Edge 55, Type (0, 0), BuildingBlock: OJICUG_clean_linker_0, # of connection points: 2
#     Edge 56, Type (0, 0), BuildingBlock: OJICUG_clean_linker_0, # of connection points: 2
#     Edge 57, Type (0, 0), BuildingBlock: OJICUG_clean_linker_0, # of connection points: 2
#     Edge 58, Type (0, 0), BuildingBlock: OJICUG_clean_linker_0, # of connection points: 2
#     Edge 59, Type (0, 0), BuildingBlock: OJICUG_clean_linker_0, # of connection points: 2
#     Edge 60, Type (0, 0), BuildingBlock: OJICUG_clean_linker_0, # of connection points: 2
#     Edge 61, Type (0, 0), BuildingBlock: OJICUG_clean_linker_0, # of connection points: 2
#     Edge 62, Type (0, 0), BuildingBlock: OJICUG_clean_linker_0, # of connection points: 2
# Relax obj value: 0.265
# Max RMSD: 0.180
# Mean RMSD: 0.180
data_MOF--net-wla--node1-BEQFEK_clean_sbu_0--edge1-OJICUG_clean_linker_0
_symmetry_space_group_name_H-M    P1
_symmetry_Int_Tables_number       1
_symmetry_cell_setting            triclinic
loop_
_symmetry_equiv_pos_as_xyz
'x, y, z'
_cell_length_a     49.568822
_cell_length_b     49.649729
_cell_length_c     22.599508
_cell_angle_alpha  90.069247
_cell_angle_beta   89.96745
_cell_angle_gamma 119.9987
loop_
_atom_site_label
_atom_site_type_symbol
_atom_site_fract_x
_atom_site_fract_y
_atom_site_fract_z
_atom_type_partial_charge
Co0 Co 0.12287 -0.0045 0.28098 0.0
Co1 Co 0.18636 0.05757 0.26914 0.0
C2 C 0.1726 0.01445 0.37194 0.0
O3 O 0.14596 -0.00456 0.35091 0.0
O4 O 0.19091 0.03995 0.34582 0.0
C5 C 0.0655 0.95336 0.32419 0.0
O6 O 0.07698 0.97462 0.36599 0.0
C7 C 0.25227 0.09568 0.23425 0.0
C8 C 0.25549 0.14132 0.22127 0.0
C9 C 0.27219 0.12594 0.21545 0.0
N10 N 0.22488 0.09329 0.24913 0.0
N11 N 0.22714 0.12075 0.242 0.0
C12 C 0.25935 0.06984 0.24078 0.0
H13 H 0.24349 0.05266 0.27377 0.0
H14 H 0.25588 0.05764 0.198 0.0
H15 H 0.28398 0.07926 0.25438 0.0
C16 C 0.13864 0.98515 0.16182 0.0
N17 N 0.1464 0.00135 0.21263 0.0
N18 N 0.17229 0.0281 0.2052 0.0
C19 C 0.18126 0.03008 0.14814 0.0
C20 C 0.16055 0.0027 0.11939 0.0
C21 C 0.10902 0.95503 0.15277 0.0
H22 H 0.08919 0.95946 0.15216 0.0
H23 H 0.10543 0.93914 0.1902 0.0
H24 H 0.10941 0.94377 0.11057 0.0
O25 O 0.11174 0.02868 0.28549 0.0
O26 O 0.15671 0.07288 0.28005 0.0
H27 H 0.20578 0.07999 0.14036 0.0
H28 H 0.19883 0.05968 0.07102 0.0
C29 C 0.20473 0.05956 0.11835 0.0
H30 H 0.22796 0.06153 0.12014 0.0
H31 H 0.20899 0.12525 0.24956 0.0
O32 O 0.08251 0.95624 0.27986 0.0
C33 C 0.12722 0.05826 0.28486 0.0
Co34 Co -0.00057 0.12255 0.277 0.0
Co35 Co 0.93917 0.12779 0.27411 0.0
C36 C 0.98893 0.15819 0.36923 0.0
O37 O 0.00657 0.14948 0.34541 0.0
O38 O 0.96248 0.15101 0.34695 0.0
C39 C 0.05944 0.12491 0.29317 0.0
O40 O 0.06741 0.14796 0.33054 0.0
C41 C 0.90469 0.1601 0.24433 0.0
C42 C 0.85633 0.12068 0.24613 0.0
C43 C 0.87398 0.15212 0.23349 0.0
N44 N 0.90501 0.13431 0.26133 0.0
N45 N 0.87602 0.11097 0.26303 0.0
C46 C 0.93311 0.1917 0.24156 0.0
H47 H 0.95165 0.19268 0.27055 0.0
H48 H 0.94219 0.19681 0.19573 0.0
H49 H 0.92734 0.20974 0.25505 0.0
C50 C 0.00477 0.14428 0.15502 0.0
N51 N 0.99119 0.13848 0.2085 0.0
N52 N 0.96485 0.13882 0.20493 0.0
C53 C 0.96033 0.14379 0.14794 0.0
C54 C 0.9857 0.14784 0.11484 0.0
C55 C 0.03424 0.14399 0.1422 0.0
H56 H 0.02905 0.11954 0.13949 0.0
H57 H 0.05113 0.15561 0.1787 0.0
H58 H 0.04474 0.15589 0.09979 0.0
O59 O 0.96403 0.08065 0.29239 0.0
O60 O 0.92054 0.08272 0.2883 0.0
H61 H 0.91031 0.12218 0.15136 0.0
H62 H 0.92632 0.12877 0.07772 0.0
C63 C 0.93002 0.13849 0.12317 0.0
H64 H 0.93036 0.16092 0.1204 0.0
H65 H 0.8697 0.08816 0.27407 0.0
O66 O 0.03373 0.11366 0.26559 0.0
C67 C 0.9345 0.06735 0.29499 0.0
Co68 Co 0.87563 0.87787 0.29283 0.0
Co69 Co 0.87513 0.8154 0.27479 0.0
C70 C 0.8418 0.82653 0.37683 0.0
O71 O 0.84811 0.85305 0.35706 0.0
O72 O 0.85156 0.81008 0.35098 0.0
C73 C 0.86686 0.93328 0.3076 0.0
O74 O 0.83848 0.91674 0.32863 0.0
C75 C 0.84786 0.74931 0.24107 0.0
C76 C 0.89017 0.74951 0.20957 0.0
C77 C 0.85807 0.73074 0.2136 0.0
N78 N 0.87277 0.7776 0.25068 0.0
N79 N 0.89797 0.77734 0.23265 0.0
C80 C 0.81551 0.74101 0.25864 0.0
H81 H 0.81609 0.75795 0.29135 0.0
H82 H 0.80254 0.74169 0.21923 0.0
H83 H 0.80306 0.71728 0.27789 0.0
C84 C 0.85488 0.86669 0.16869 0.0
N85 N 0.86187 0.85762 0.21969 0.0
N86 N 0.86141 0.83116 0.21137 0.0
C87 C 0.85429 0.82268 0.15415 0.0
C88 C 0.84969 0.84478 0.12557 0.0
C89 C 0.855 0.89666 0.16095 0.0
H90 H 0.84067 0.89893 0.19618 0.0
H91 H 0.84575 0.89797 0.11699 0.0
H92 H 0.87918 0.91632 0.16573 0.0
O93 O 0.91828 0.88681 0.30971 0.0
O94 O 0.92002 0.84415 0.28912 0.0
H95 H 0.87809 0.79729 0.13862 0.0
H96 H 0.8559 0.79797 0.07617 0.0
C97 C 0.85628 0.79661 0.12512 0.0
H98 H 0.83622 0.77415 0.13921 0.0
H99 H 0.92042 0.7966 0.23387 0.0
O100 O 0.8819 0.9201 0.29112 0.0
C101 C 0.93334 0.87243 0.30511 0.0
Co102 Co -0.00119 0.12023 0.69993 0.0
Co103 Co 0.05904 0.18495 0.71595 0.0
C104 C 0.0166 0.17062 0.61114 0.0
O105 O -0.0021 0.14352 0.63082 0.0
O106 O 0.0417 0.18926 0.63843 0.0
C107 C 0.93521 0.06454 0.68178 0.0
O108 O 0.92401 0.08118 0.6586 0.0
C109 C 0.09722 0.25146 0.74911 0.0
C110 C 0.13889 0.25136 0.78346 0.0
C111 C 0.12573 0.27017 0.77758 0.0
N112 N 0.09389 0.22311 0.74072 0.0
N113 N 0.1191 0.22345 0.76047 0.0
C114 C 0.07333 0.25958 0.72967 0.0
H115 H 0.05654 0.24175 0.69865 0.0
H116 H 0.06013 0.26042 0.7686 0.0
H117 H 0.08478 0.28265 0.70769 0.0
C118 C 0.98595 0.13334 0.81982 0.0
N119 N 0.00276 0.14214 0.76969 0.0
N120 N 0.02831 0.16909 0.77795 0.0
C121 C 0.02858 0.17811 0.83448 0.0
C122 C 0.00166 0.15587 0.86251 0.0
C123 C 0.95681 0.10268 0.82778 0.0
H124 H 0.94052 0.0989 0.79092 0.0
H125 H 0.94525 0.10158 0.87051 0.0
H126 H 0.96262 0.08382 0.82615 0.0
O127 O 0.03348 0.11185 0.69496 0.0
O128 O 0.07665 0.15722 0.70466 0.0
H129 H 0.07756 0.2041 0.8524 0.0
H130 H 0.05369 0.20369 0.91285 0.0
C131 C 0.05611 0.20462 0.864 0.0
H132 H 0.05849 0.22683 0.84844 0.0
H133 H 0.1223 0.20421 0.76046 0.0
O134 O 0.96301 0.07766 0.70082 0.0
C135 C 0.06295 0.12798 0.69762 0.0
Co136 Co 0.8762 0.87437 0.70841 0.0
Co137 Co 0.81131 0.87035 0.71509 0.0
C138 C 0.82804 0.83846 0.61883 0.0
O139 O 0.85472 0.84716 0.64111 0.0
O140 O 0.80933 0.84608 0.64225 0.0
C141 C 0.93275 0.87028 0.6878 0.0
O142 O 0.91704 0.84774 0.64975 0.0
C143 C 0.74554 0.84015 0.75208 0.0
C144 C 0.7392 0.88112 0.75677 0.0
C145 C 0.7248 0.84971 0.77 0.0
N146 N 0.77128 0.8651 0.73098 0.0
N147 N 0.76696 0.88928 0.73251 0.0
C148 C 0.74253 0.80886 0.76023 0.0
H149 H 0.76557 0.81039 0.75616 0.0
H150 H 0.73191 0.79889 0.8038 0.0
H151 H 0.72698 0.79295 0.72532 0.0
C152 C 0.86186 0.85428 0.83177 0.0
N153 N 0.85326 0.85953 0.7786 0.0
N154 N 0.82683 0.85961 0.78366 0.0
C155 C 0.81832 0.85534 0.84126 0.0
C156 C 0.83998 0.85138 0.87321 0.0
C157 C 0.8917 0.85451 0.84305 0.0
H158 H 0.9112 0.87892 0.84333 0.0
H159 H 0.896 0.84194 0.807 0.0
H160 H 0.89112 0.84356 0.88618 0.0
O161 O 0.88374 0.9167 0.69334 0.0
O162 O 0.8385 0.91525 0.69917 0.0
H163 H 0.79085 0.87791 0.84057 0.0
H164 H 0.79983 0.86984 0.91336 0.0
C165 C 0.79373 0.86088 0.86742 0.0
H166 H 0.77136 0.83863 0.86916 0.0
H167 H 0.78371 0.9118 0.72024 0.0
O168 O 0.91898 0.88178 0.71693 0.0
C169 C 0.8678 0.93031 0.69154 0.0
Co170 Co 0.1244 -0.00069 0.70705 0.0
Co171 Co 0.12743 0.93805 0.70989 0.0
C172 C 0.15804 0.98646 0.61354 0.0
O173 O 0.14965 0.0044 0.63705 0.0
O174 O 0.15074 0.96015 0.63637 0.0
C175 C 0.12989 0.06075 0.69064 0.0
O176 O 0.15235 0.06792 0.65217 0.0
C177 C 0.15734 0.90197 0.7439 0.0
C178 C 0.11596 0.85498 0.75014 0.0
C179 C 0.14757 0.87177 0.76236 0.0
N180 N 0.13233 0.90297 0.72371 0.0
N181 N 0.1079 0.87463 0.72596 0.0
C182 C 0.18896 0.93006 0.7509 0.0
H183 H 0.1878 0.9517 0.74604 0.0
H184 H 0.19919 0.92978 0.79439 0.0
H185 H 0.20451 0.92975 0.71593 0.0
C186 C 0.14843 0.00571 0.82713 0.0
N187 N 0.14117 0.99138 0.77433 0.0
N188 N 0.1403 0.9645 0.77846 0.0
C189 C 0.14593 0.96047 0.83534 0.0
C190 C 0.15183 0.98669 0.86742 0.0
C191 C 0.14903 0.03559 0.83973 0.0
H192 H 0.12476 0.0311 0.84207 0.0
H193 H 0.16112 0.05231 0.80328 0.0
H194 H 0.16096 0.04589 0.88227 0.0
O195 O 0.0812 0.96502 0.69672 0.0
O196 O 0.08221 0.92096 0.69756 0.0
H197 H 0.12201 0.91038 0.83494 0.0
H198 H 0.13095 0.92768 0.90757 0.0
C199 C 0.1396 0.93013 0.86146 0.0
H200 H 0.16151 0.92932 0.86297 0.0
H201 H 0.08529 0.86907 0.71464 0.0
O202 O 0.11813 0.03506 0.7182 0.0
C203 C 0.06724 0.9355 0.69417 0.0
Co204 Co 0.7888 0.33463 0.61395 0.0
Co205 Co 0.85377 0.395 0.6107 0.0
C206 C 0.83446 0.34712 0.70863 0.0
O207 O 0.80812 0.32935 0.68493 0.0
O208 O 0.85396 0.37314 0.68541 0.0
C209 C 0.73196 0.27329 0.62799 0.0
O210 O 0.74678 0.26485 0.66503 0.0
C211 C 0.92036 0.42956 0.57991 0.0
C212 C 0.92855 0.47758 0.57757 0.0
C213 C 0.9426 0.46001 0.56617 0.0
N214 N 0.89424 0.42927 0.5971 0.0
N215 N 0.89948 0.4581 0.59651 0.0
C216 C 0.92398 0.40138 0.57939 0.0
H217 H 0.90766 0.38393 0.61153 0.0
H218 H 0.91838 0.39053 0.53496 0.0
H219 H 0.94834 0.40786 0.59022 0.0
C220 C 0.80666 0.32665 0.49516 0.0
N221 N 0.81381 0.34146 0.54745 0.0
N222 N 0.84012 0.36805 0.54288 0.0
C223 C 0.84989 0.3715 0.48607 0.0
C224 C 0.82929 0.34509 0.45459 0.0
C225 C 0.77702 0.297 0.48302 0.0
H226 H 0.75757 0.30196 0.47996 0.0
H227 H 0.77197 0.28049 0.52003 0.0
H228 H 0.77845 0.2862 0.44097 0.0
O229 O 0.7809 0.36966 0.62248 0.0
O230 O 0.8265 0.41318 0.62141 0.0
H231 H 0.87735 0.42159 0.48633 0.0
H232 H 0.86712 0.40421 0.41382 0.0
C233 C 0.87404 0.40158 0.4592 0.0
H234 H 0.89641 0.40176 0.45548 0.0
H235 H 0.88284 0.46435 0.60693 0.0
O236 O 0.74638 0.29954 0.60252 0.0
C237 C 0.79698 0.39915 0.62446 0.0
Co238 Co 0.6678 0.46079 0.61669 0.0
Co239 Co 0.6065 0.46409 0.6135 0.0
C240 C 0.65471 0.49414 0.71045 0.0
O241 O 0.67277 0.48585 0.68702 0.0
O242 O 0.62848 0.487 0.68727 0.0
C243 C 0.72859 0.46498 0.63557 0.0
O244 O 0.73459 0.48582 0.677 0.0
C245 C 0.5705 0.49456 0.5827 0.0
C246 C 0.52279 0.454 0.58121 0.0
C247 C 0.53975 0.4856 0.56957 0.0
N248 N 0.57155 0.46918 0.59986 0.0
N249 N 0.54291 0.44515 0.59971 0.0
C250 C 0.59825 0.52666 0.58166 0.0
H251 H 0.61625 0.52829 0.61301 0.0
H252 H 0.60865 0.5321 0.53684 0.0
H253 H 0.59132 0.54409 0.59323 0.0
C254 C 0.67419 0.48487 0.49662 0.0
N255 N 0.65991 0.47777 0.54946 0.0
N256 N 0.63304 0.477 0.5453 0.0
C257 C 0.62888 0.48246 0.4884 0.0
C258 C 0.65505 0.48813 0.45619 0.0
C259 C 0.70419 0.48558 0.48423 0.0
H260 H 0.69971 0.46137 0.48115 0.0
H261 H 0.72076 0.49734 0.52112 0.0
H262 H 0.71472 0.49785 0.44212 0.0
O263 O 0.63321 0.4177 0.62685 0.0
O264 O 0.58925 0.41905 0.62577 0.0
H265 H 0.57868 0.45875 0.48983 0.0
H266 H 0.59555 0.46636 0.41689 0.0
C267 C 0.59833 0.4758 0.46243 0.0
H268 H 0.59752 0.49764 0.45944 0.0
H269 H 0.5372 0.42245 0.61028 0.0
O270 O 0.70369 0.45442 0.60546 0.0
C271 C 0.60365 0.40398 0.62941 0.0
Co272 Co 0.54125 0.21387 0.60768 0.0
Co273 Co 0.53707 0.14911 0.59532 0.0
C274 C 0.50842 0.16435 0.69804 0.0
O275 O 0.5169 0.19126 0.67724 0.0
O276 O 0.51495 0.14546 0.67197 0.0
C277 C 0.5372 0.26985 0.63569 0.0
O278 O 0.51669 0.25434 0.67721 0.0
C279 C 0.50999 0.08219 0.56581 0.0
C280 C 0.55212 0.08324 0.53065 0.0
C281 C 0.52034 0.06378 0.53821 0.0
N282 N 0.53452 0.11106 0.57226 0.0
N283 N 0.55962 0.11131 0.552 0.0
C284 C 0.47789 0.07311 0.5866 0.0
H285 H 0.47879 0.09015 0.61945 0.0
H286 H 0.46364 0.07288 0.54858 0.0
H287 H 0.46658 0.04958 0.6067 0.0
C288 C 0.51521 0.19903 0.48824 0.0
N289 N 0.5235 0.19098 0.53885 0.0
N290 N 0.52217 0.16401 0.53202 0.0
C291 C 0.51317 0.1542 0.47592 0.0
C292 C 0.50833 0.17601 0.44668 0.0
C293 C 0.51652 0.22947 0.47867 0.0
H294 H 0.50496 0.23415 0.51611 0.0
H295 H 0.50503 0.22956 0.43658 0.0
H296 H 0.54124 0.24835 0.4776 0.0
O297 O 0.58444 0.2228 0.61446 0.0
O298 O 0.58228 0.17737 0.60734 0.0
H299 H 0.5362 0.12825 0.45843 0.0
H300 H 0.51119 0.12686 0.39926 0.0
C301 C 0.51385 0.12717 0.44802 0.0
H302 H 0.49455 0.10526 0.4661 0.0
H303 H 0.58176 0.13099 0.5506 0.0
O304 O 0.54722 0.25605 0.60268 0.0
C305 C 0.5978 0.20667 0.61356 0.0
Co306 Co 0.66437 0.4575 0.04233 0.0
Co307 Co 0.72594 0.5216 0.05482 0.0
C308 C 0.68189 0.5072 0.95246 0.0
O309 O 0.66288 0.48044 0.97324 0.0
O310 O 0.70757 0.52554 0.97839 0.0
C311 C 0.60305 0.40214 0.0163 0.0
O312 O 0.59749 0.41805 0.97658 0.0
C313 C 0.76602 0.58833 0.08465 0.0
C314 C 0.80759 0.58749 0.11737 0.0
C315 C 0.79503 0.6068 0.11138 0.0
N316 N 0.76177 0.55957 0.07724 0.0
N317 N 0.78693 0.55945 0.09599 0.0
C318 C 0.74267 0.59725 0.06545 0.0
H319 H 0.72639 0.58036 0.03254 0.0
H320 H 0.72879 0.59705 0.10412 0.0
H321 H 0.7546 0.62093 0.04592 0.0
C322 C 0.65399 0.47255 0.16229 0.0
N323 N 0.67022 0.48042 0.1115 0.0
N324 N 0.69627 0.50706 0.11835 0.0
C325 C 0.6975 0.5168 0.17464 0.0
C326 C 0.67065 0.49534 0.20396 0.0
C327 C 0.62443 0.44245 0.17187 0.0
H328 H 0.6082 0.4382 0.13461 0.0
H329 H 0.61307 0.44257 0.21414 0.0
H330 H 0.62969 0.4232 0.17257 0.0
O331 O 0.69822 0.44801 0.03437 0.0
O332 O 0.74216 0.4928 0.04273 0.0
H333 H 0.7467 0.54199 0.19049 0.0
H334 H 0.72381 0.54295 0.25156 0.0
C335 C 0.72571 0.54324 0.20263 0.0
H336 H 0.72851 0.56551 0.1863 0.0
H337 H 0.78952 0.53985 0.09639 0.0
O338 O 0.62765 0.4155 0.0474 0.0
C339 C 0.72777 0.46354 0.0356 0.0
Co340 Co 0.54018 0.21089 0.03401 0.0
Co341 Co 0.47562 0.20785 0.03719 0.0
C342 C 0.4939 0.17781 0.94004 0.0
O343 O 0.52017 0.1859 0.96364 0.0
O344 O 0.47487 0.18506 0.96316 0.0
C345 C 0.59623 0.20432 0.02155 0.0
O346 O 0.58077 0.18032 0.98635 0.0
C347 C 0.40939 0.1773 0.07086 0.0
C348 C 0.4027 0.21806 0.07499 0.0
C349 C 0.38826 0.18657 0.08779 0.0
N350 N 0.43532 0.20245 0.0509 0.0
N351 N 0.43081 0.22651 0.05205 0.0
C352 C 0.40649 0.14602 0.0786 0.0
H353 H 0.42955 0.14762 0.07439 0.0
H354 H 0.3959 0.1359 0.1221 0.0
H355 H 0.39101 0.13019 0.04354 0.0
C356 C 0.52238 0.18672 0.15393 0.0
N357 N 0.51528 0.19395 0.10116 0.0
N358 N 0.48933 0.19498 0.10548 0.0
C359 C 0.47976 0.18957 0.16245 0.0
C360 C 0.50011 0.18367 0.19451 0.0
C361 C 0.55146 0.18558 0.16605 0.0
H362 H 0.57146 0.20967 0.16886 0.0
H363 H 0.55591 0.17356 0.12917 0.0
H364 H 0.54964 0.17333 0.20821 0.0
O365 O 0.54867 0.25394 0.0241 0.0
O366 O 0.50357 0.25305 0.02533 0.0
H367 H 0.45352 0.21347 0.16153 0.0
H368 H 0.46226 0.20519 0.23435 0.0
C369 C 0.45584 0.19615 0.18852 0.0
H370 H 0.43311 0.17429 0.1907 0.0
H371 H 0.44763 0.24913 0.04046 0.0
O372 O 0.58246 0.21736 0.04528 0.0
C373 C 0.5331 0.26792 0.0218 0.0
Co374 Co 0.78732 0.33291 0.0423 0.0
Co375 Co 0.79128 0.27227 0.05167 0.0
C376 C 0.81995 0.31788 0.95031 0.0
O377 O 0.81178 0.33631 0.97228 0.0
O378 O 0.81316 0.29219 0.97536 0.0
C379 C 0.79352 0.39506 0.0256 0.0
O380 O 0.81869 0.40421 0.99339 0.0
C381 C 0.82222 0.23727 0.08786 0.0
C382 C 0.78101 0.19066 0.10063 0.0
C383 C 0.81295 0.20763 0.1091 0.0
N384 N 0.79667 0.23781 0.06948 0.0
N385 N 0.7723 0.20967 0.07583 0.0
C386 C 0.85405 0.26539 0.09029 0.0
H387 H 0.85278 0.28694 0.08488 0.0
H388 H 0.86578 0.2661 0.13256 0.0
H389 H 0.86828 0.26413 0.05363 0.0
C390 C 0.81381 0.34361 0.16098 0.0
N391 N 0.80537 0.32739 0.1102 0.0
N392 N 0.80519 0.30098 0.11717 0.0
C393 C 0.81256 0.2992 0.17409 0.0
C394 C 0.81876 0.32637 0.20311 0.0
C395 C 0.81447 0.37378 0.17 0.0
H396 H 0.79021 0.36931 0.17269 0.0
H397 H 0.82596 0.38928 0.13165 0.0
H398 H 0.82705 0.38552 0.21121 0.0
O399 O 0.74433 0.29806 0.03501 0.0
O400 O 0.74573 0.25433 0.04096 0.0
H401 H 0.78977 0.24929 0.18027 0.0
H402 H 0.80098 0.26924 0.25037 0.0
C403 C 0.80797 0.27016 0.20341 0.0
H404 H 0.8302 0.26994 0.20288 0.0
H405 H 0.7494 0.20385 0.06651 0.0
O406 O 0.78027 0.36832 0.0493 0.0
C407 C 0.73055 0.26855 0.03551 0.0
Co408 Co 0.45492 0.66624 0.9459 0.0
Co409 Co 0.51987 0.72662 0.94094 0.0
C410 C 0.50108 0.67961 0.04016 0.0
O411 O 0.47467 0.66165 0.01691 0.0
O412 O 0.52046 0.7055 0.01634 0.0
C413 C 0.39821 0.60525 0.96315 0.0
O414 O 0.41323 0.59761 0.00128 0.0
C415 C 0.58666 0.76133 0.9113 0.0
C416 C 0.5944 0.80913 0.9058 0.0
C417 C 0.60886 0.79172 0.89709 0.0
N418 N 0.5602 0.76091 0.92636 0.0
N419 N 0.56515 0.78961 0.92376 0.0
C420 C 0.59063 0.73338 0.91337 0.0
H421 H 0.57371 0.71595 0.94482 0.0
H422 H 0.58618 0.72238 0.86911 0.0
H423 H 0.61478 0.74018 0.9266 0.0
C424 C 0.47235 0.65739 0.82731 0.0
N425 N 0.47966 0.67257 0.87921 0.0
N426 N 0.50609 0.69902 0.8741 0.0
C427 C 0.51584 0.70193 0.81737 0.0
C428 C 0.49502 0.67539 0.78644 0.0
C429 C 0.44251 0.62784 0.81573 0.0
H430 H 0.4232 0.63301 0.81275 0.0
H431 H 0.43745 0.61147 0.85299 0.0
H432 H 0.44367 0.61678 0.77382 0.0
O433 O 0.44693 0.70122 0.95339 0.0
O434 O 0.49249 0.74475 0.95088 0.0
H435 H 0.54321 0.75198 0.81545 0.0
H436 H 0.53438 0.73368 0.74363 0.0
C437 C 0.54042 0.73165 0.79008 0.0
H438 H 0.56287 0.73187 0.78925 0.0
H439 H 0.54824 0.79575 0.93243 0.0
O440 O 0.41249 0.63095 0.93575 0.0
C441 C 0.46299 0.73072 0.95438 0.0
Co442 Co 0.33316 0.79153 0.9463 0.0
Co443 Co 0.27189 0.79486 0.94362 0.0
C444 C 0.32021 0.82484 0.04033 0.0
O445 O 0.33823 0.81654 0.01676 0.0
O446 O 0.29397 0.81773 0.01729 0.0
C447 C 0.39436 0.79636 0.96372 0.0
O448 O 0.40091 0.81799 0.00373 0.0
C449 C 0.23641 0.8257 0.91246 0.0
C450 C 0.18857 0.78538 0.91001 0.0
C451 C 0.20582 0.81696 0.89836 0.0
N452 N 0.2371 0.80019 0.93004 0.0
N453 N 0.20838 0.77631 0.92941 0.0
C454 C 0.26438 0.85766 0.91167 0.0
H455 H 0.28178 0.85931 0.94453 0.0
H456 H 0.27551 0.86266 0.86749 0.0
H457 H 0.25756 0.87537 0.92136 0.0
C458 C 0.33942 0.8157 0.82635 0.0
N459 N 0.32523 0.80857 0.87927 0.0
N460 N 0.29832 0.80771 0.8753 0.0
C461 C 0.29402 0.81311 0.81844 0.0
C462 C 0.32017 0.81887 0.78608 0.0
C463 C 0.36945 0.81651 0.81375 0.0
H464 H 0.36503 0.79233 0.8105 0.0
H465 H 0.38604 0.82826 0.85061 0.0
H466 H 0.37992 0.82884 0.77166 0.0
O467 O 0.29851 0.74845 0.95637 0.0
O468 O 0.25454 0.74981 0.95586 0.0
H469 H 0.24381 0.78909 0.82012 0.0
H470 H 0.26058 0.79678 0.7471 0.0
C471 C 0.26336 0.80623 0.79263 0.0
H472 H 0.26236 0.82797 0.78967 0.0
H473 H 0.20244 0.75355 0.94001 0.0
O474 O 0.36901 0.78513 0.9349 0.0
C475 C 0.26895 0.73473 0.95917 0.0
Co476 Co 0.20714 0.54468 0.94159 0.0
Co477 Co 0.20366 0.4802 0.93162 0.0
C478 C 0.17393 0.49564 0.03237 0.0
O479 O 0.18232 0.52241 0.011 0.0
O480 O 0.18089 0.47685 0.00719 0.0
C481 C 0.20299 0.60067 0.96781 0.0
O482 O 0.18303 0.58548 0.01032 0.0
C483 C 0.17638 0.41333 0.90287 0.0
C484 C 0.21887 0.41336 0.87307 0.0
C485 C 0.18686 0.39449 0.8778 0.0
N486 N 0.20111 0.44194 0.91067 0.0
N487 N 0.22641 0.44159 0.89364 0.0
C488 C 0.14394 0.40479 0.92035 0.0
H489 H 0.14443 0.42148 0.9536 0.0
H490 H 0.13107 0.40575 0.88106 0.0
H491 H 0.13144 0.38087 0.93876 0.0
C492 C 0.18224 0.52922 0.8214 0.0
N493 N 0.19008 0.52141 0.8728 0.0
N494 N 0.18926 0.49463 0.86683 0.0
C495 C 0.18114 0.48475 0.81049 0.0
C496 C 0.17624 0.50625 0.78024 0.0
C497 C 0.18318 0.55941 0.81081 0.0
H498 H 0.1712 0.56404 0.84757 0.0
H499 H 0.17191 0.55917 0.76822 0.0
H500 H 0.2078 0.5785 0.8101 0.0
O501 O 0.2504 0.55392 0.95003 0.0
O502 O 0.24874 0.50867 0.94439 0.0
H503 H 0.20482 0.45906 0.79693 0.0
H504 H 0.18199 0.45849 0.73438 0.0
C505 C 0.18289 0.45812 0.7834 0.0
H506 H 0.16298 0.43596 0.79909 0.0
H507 H 0.24878 0.46097 0.89388 0.0
O508 O 0.21282 0.58669 0.93483 0.0
C509 C 0.264 0.538 0.95022 0.0
Co510 Co 0.33009 0.78849 0.37262 0.0
Co511 Co 0.39118 0.85288 0.38542 0.0
C512 C 0.34744 0.83795 0.2824 0.0
O513 O 0.32856 0.81116 0.30315 0.0
O514 O 0.37297 0.85649 0.30855 0.0
C515 C 0.26803 0.73299 0.34947 0.0
O516 O 0.26063 0.74912 0.3137 0.0
C517 C 0.43013 0.91969 0.41511 0.0
C518 C 0.47205 0.91982 0.44871 0.0
C519 C 0.45892 0.93861 0.44217 0.0
N520 N 0.42651 0.89116 0.40802 0.0
N521 N 0.45185 0.89161 0.42732 0.0
C522 C 0.4064 0.928 0.39537 0.0
H523 H 0.39047 0.91095 0.36228 0.0
H524 H 0.3922 0.92745 0.43378 0.0
H525 H 0.41801 0.95169 0.37593 0.0
C526 C 0.31896 0.80341 0.49211 0.0
N527 N 0.33534 0.8114 0.4415 0.0
N528 N 0.36125 0.83815 0.44852 0.0
C529 C 0.36222 0.84787 0.50474 0.0
C530 C 0.33536 0.82627 0.53383 0.0
C531 C 0.28958 0.77313 0.50155 0.0
H532 H 0.27336 0.76873 0.46422 0.0
H533 H 0.2781 0.77308 0.54377 0.0
H534 H 0.29511 0.75406 0.50226 0.0
O535 O 0.36431 0.77949 0.36588 0.0
O536 O 0.40802 0.82452 0.37421 0.0
H537 H 0.41138 0.87331 0.52106 0.0
H538 H 0.38825 0.87402 0.5819 0.0
C539 C 0.39027 0.87439 0.53299 0.0
H540 H 0.39295 0.89661 0.51669 0.0
H541 H 0.4549 0.87228 0.42805 0.0
O542 O 0.29376 0.74629 0.37718 0.0
C543 C 0.39384 0.79523 0.36747 0.0
Co544 Co 0.20632 0.54191 0.36645 0.0
Co545 Co 0.14171 0.53859 0.37285 0.0
C546 C 0.15905 0.50857 0.27421 0.0
O547 O 0.18555 0.51672 0.29681 0.0
O548 O 0.1402 0.51581 0.29822 0.0
C549 C 0.2626 0.53575 0.3519 0.0
O550 O 0.24697 0.51124 0.31796 0.0
C551 C 0.07596 0.50827 0.40988 0.0
C552 C 0.07004 0.5494 0.41747 0.0
C553 C 0.05556 0.51787 0.42971 0.0
N554 N 0.10166 0.53331 0.38885 0.0
N555 N 0.09754 0.55758 0.39197 0.0
C556 C 0.07274 0.47679 0.4163 0.0
H557 H 0.09557 0.47808 0.41029 0.0
H558 H 0.06271 0.46661 0.46008 0.0
H559 H 0.05655 0.46117 0.38178 0.0
C560 C 0.18991 0.51767 0.48664 0.0
N561 N 0.18228 0.525 0.43452 0.0
N562 N 0.15626 0.52583 0.44015 0.0
C563 C 0.14719 0.52016 0.49737 0.0
C564 C 0.16791 0.51427 0.52816 0.0
C565 C 0.21917 0.51665 0.49726 0.0
H566 H 0.23914 0.54078 0.49972 0.0
H567 H 0.22331 0.50471 0.45981 0.0
H568 H 0.21784 0.50439 0.53914 0.0
O569 O 0.2145 0.58483 0.35659 0.0
O570 O 0.16938 0.58378 0.36055 0.0
H571 H 0.12089 0.54399 0.49893 0.0
H572 H 0.13028 0.53539 0.57086 0.0
C573 C 0.12346 0.52655 0.525 0.0
H574 H 0.10078 0.50466 0.52747 0.0
H575 H 0.11434 0.58018 0.38028 0.0
O576 O 0.24884 0.5488 0.37564 0.0
C577 C 0.19884 0.59873 0.35548 0.0
Co578 Co 0.45386 0.665 0.37403 0.0
Co579 Co 0.4575 0.60416 0.38182 0.0
C580 C 0.48683 0.65063 0.28185 0.0
O581 O 0.47869 0.66901 0.30423 0.0
O582 O 0.47978 0.62474 0.30628 0.0
C583 C 0.45976 0.72694 0.35761 0.0
O584 O 0.48408 0.73552 0.32321 0.0
C585 C 0.48827 0.5691 0.41793 0.0
C586 C 0.44714 0.52219 0.4281 0.0
C587 C 0.47894 0.53929 0.43831 0.0
N588 N 0.46286 0.56959 0.39849 0.0
N589 N 0.43857 0.54129 0.40321 0.0
C590 C 0.51993 0.59736 0.42218 0.0
H591 H 0.51855 0.61884 0.41657 0.0
H592 H 0.53103 0.5979 0.46512 0.0
H593 H 0.53482 0.59651 0.3864 0.0
C594 C 0.47972 0.6746 0.49312 0.0
N595 N 0.47146 0.65879 0.44189 0.0
N596 N 0.471 0.63221 0.44825 0.0
C597 C 0.4779 0.62986 0.50521 0.0
C598 C 0.48419 0.65689 0.5349 0.0
C599 C 0.4807 0.70489 0.50281 0.0
H600 H 0.45653 0.70064 0.50588 0.0
H601 H 0.49222 0.72051 0.46463 0.0
H602 H 0.49341 0.71639 0.54408 0.0
O603 O 0.41086 0.63023 0.36524 0.0
O604 O 0.41209 0.58638 0.37038 0.0
H605 H 0.45486 0.57986 0.50948 0.0
H606 H 0.46482 0.59905 0.58039 0.0
C607 C 0.47267 0.60045 0.53391 0.0
H608 H 0.49486 0.60016 0.53485 0.0
H609 H 0.41575 0.53541 0.39285 0.0
O610 O 0.44695 0.70047 0.38241 0.0
C611 C 0.397 0.6007 0.36495 0.0
C612 C 0.07907 0.06135 0.26924 0.0
C613 C 0.11037 0.07579 0.28697 0.0
H614 H 0.03882 0.06573 0.25606 0.0
C615 C 0.1253 0.10705 0.3054 0.0
H616 H 0.06698 0.03739 0.25434 0.0
C617 C 0.10894 0.1233 0.30721 0.0
C618 C 0.07764 0.10878 0.2892 0.0
H619 H 0.14945 0.11878 0.31925 0.0
H620 H 0.12077 0.14718 0.32251 0.0
C621 C 0.063 0.07772 0.26976 0.0
C622 C 0.91592 0.98405 0.30305 0.0
C623 C 0.88326 0.96761 0.30697 0.0
H624 H 0.95744 0.02795 0.2972 0.0
C625 C 0.86727 0.98428 0.30985 0.0
H626 H 0.92907 0.97199 0.30155 0.0
C627 C 0.88379 0.01689 0.30696 0.0
C628 C 0.9165 0.03317 0.30197 0.0
H629 H 0.84211 0.97218 0.31309 0.0
H630 H 0.87096 0.02927 0.30796 0.0
C631 C 0.93229 0.01631 0.30089 0.0
C632 C 0.98755 0.88438 0.28118 0.0
C633 C 0.96719 0.8899 0.31559 0.0
H634 H 0.03503 0.90059 0.25628 0.0
C635 C 0.97954 0.91442 0.35658 0.0
H636 H 0.97852 0.86566 0.24908 0.0
C637 C 0.01164 0.93391 0.36151 0.0
C638 C 0.03206 0.92973 0.32454 0.0
H639 H 0.96431 0.91902 0.38387 0.0
H640 H 0.02031 0.95316 0.39239 0.0
C641 C 0.0198 0.90441 0.28513 0.0
C642 C 0.12847 0.11027 0.6753 0.0
C643 C 0.11418 0.0793 0.69497 0.0
H644 H 0.12351 0.15043 0.66154 0.0
C645 C 0.08344 0.06502 0.71622 0.0
H646 H 0.15212 0.1218 0.65866 0.0
C647 C 0.06701 0.08095 0.71644 0.0
C648 C 0.08107 0.1118 0.69661 0.0
H649 H 0.07161 0.04113 0.73138 0.0
H650 H 0.04324 0.06906 0.73257 0.0
C651 C 0.11213 0.12658 0.67688 0.0
C652 C 0.8845 0.01365 0.67695 0.0
C653 C 0.91713 0.03019 0.6817 0.0
H654 H 0.84298 0.96876 0.67671 0.0
C655 C 0.93312 0.0136 0.68669 0.0
H656 H 0.87161 0.02588 0.67287 0.0
C657 C 0.91701 0.98129 0.68797 0.0
C658 C 0.88435 0.96456 0.68505 0.0
H659 H 0.95831 0.02557 0.68966 0.0
H660 H 0.93031 0.9695 0.69257 0.0
C661 C 0.86818 0.98102 0.67909 0.0
C662 C 0.01615 0.88729 0.67129 0.0
C663 C 0.03285 0.91814 0.6919 0.0
H664 H 0.97107 0.84782 0.65308 0.0
C665 C 0.01635 0.93248 0.71233 0.0
H666 H 0.02832 0.87565 0.65545 0.0
C667 C 0.98394 0.91647 0.71232 0.0
C668 C 0.9671 0.88585 0.69078 0.0
H669 H 0.02848 0.9561 0.7291 0.0
H670 H 0.97211 0.92844 0.7282 0.0
C671 C 0.98347 0.87138 0.67003 0.0
C672 C 0.73425 0.42006 0.60391 0.0
C673 C 0.74751 0.44967 0.6301 0.0
H674 H 0.73929 0.38092 0.58272 0.0
C675 C 0.77778 0.4631 0.65362 0.0
H676 H 0.71092 0.40891 0.58565 0.0
C677 C 0.79436 0.44705 0.65107 0.0
C678 C 0.78054 0.41705 0.6264 0.0
H679 H 0.78853 0.48587 0.67412 0.0
H680 H 0.81763 0.45777 0.66952 0.0
C681 C 0.75042 0.40385 0.60266 0.0
C682 C 0.59961 0.35294 0.60929 0.0
C683 C 0.58601 0.36969 0.63191 0.0
H684 H 0.59462 0.30854 0.59166 0.0
C685 C 0.55559 0.35337 0.65493 0.0
H686 H 0.62288 0.36483 0.59071 0.0
C687 C 0.53936 0.32075 0.65633 0.0
C688 C 0.55305 0.30412 0.63319 0.0
H689 H 0.54456 0.3658 0.67252 0.0
H690 H 0.51616 0.30859 0.67511 0.0
C691 C 0.58324 0.32061 0.60935 0.0
C692 C 0.64936 0.254 0.59888 0.0
C693 C 0.6321 0.22281 0.61656 0.0
H694 H 0.69414 0.29396 0.58745 0.0
C695 C 0.64795 0.2076 0.63626 0.0
H696 H 0.63785 0.26626 0.58289 0.0
C697 C 0.68057 0.22375 0.63972 0.0
C698 C 0.69772 0.25505 0.62213 0.0
H699 H 0.63514 0.18349 0.65002 0.0
H700 H 0.69232 0.21182 0.65614 0.0
C701 C 0.68171 0.26981 0.60107 0.0
C702 C 0.79323 0.44545 0.01571 0.0
C703 C 0.77768 0.41351 0.02867 0.0
H704 H 0.78966 0.48671 0.00843 0.0
C705 C 0.74587 0.39845 0.04332 0.0
H706 H 0.81772 0.4576 0.00421 0.0
C707 C 0.72984 0.41475 0.04457 0.0
C708 C 0.74526 0.44671 0.03219 0.0
H709 H 0.73306 0.37379 0.05307 0.0
H710 H 0.70533 0.40227 0.05601 0.0
C711 C 0.77719 0.46204 0.0181 0.0
C712 C 0.59726 0.35086 0.0419 0.0
C713 C 0.58397 0.36787 0.01889 0.0
H714 H 0.59186 0.30628 0.0597 0.0
C715 C 0.55342 0.35171 -0.00343 0.0
H716 H 0.62084 0.36251 0.05903 0.0
C717 C 0.53646 0.31908 -0.00223 0.0
C718 C 0.55018 0.30225 0.01983 0.0
H719 H 0.54265 0.36425 0.97848 0.0
H720 H 0.51288 0.30705 0.98071 0.0
C721 C 0.58072 0.31853 0.04181 0.0
C722 C 0.67961 0.26577 0.05088 0.0
C723 C 0.69616 0.25103 0.03306 0.0
H724 H 0.63543 0.26245 0.06237 0.0
C725 C 0.67953 0.21999 0.01351 0.0
H726 H 0.69168 0.28954 0.06682 0.0
C727 C 0.64689 0.20436 0.01017 0.0
C728 C 0.63046 0.21936 0.02763 0.0
H729 H 0.69175 0.20806 -0.00033 0.0
H730 H 0.63456 0.18069 0.99376 0.0
C731 C 0.64724 0.25008 0.04871 0.0
C732 C 0.39989 0.75112 0.93389 0.0
C733 C 0.41333 0.78108 0.95858 0.0
H734 H 0.40485 0.71179 0.91429 0.0
C735 C 0.44385 0.79493 0.98098 0.0
H736 H 0.37638 0.73965 0.91649 0.0
C737 C 0.46049 0.77893 0.97887 0.0
C738 C 0.4465 0.74858 0.95575 0.0
H739 H 0.45476 0.81798 0.0003 0.0
H740 H 0.48395 0.78996 -0.00353 0.0
C741 C 0.41613 0.73499 0.93306 0.0
C742 C 0.26463 0.68369 0.93793 0.0
C743 C 0.25132 0.70047 0.96174 0.0
H744 H 0.25952 0.63926 0.92 0.0
C745 C 0.22125 0.68419 0.98632 0.0
H746 H 0.28761 0.69555 0.9181 0.0
C747 C 0.20514 0.65158 0.98829 0.0
C748 C 0.21857 0.63491 0.96418 0.0
H749 H 0.21047 0.69665 0.00484 0.0
H750 H 0.18226 0.63947 0.00843 0.0
C751 C 0.24834 0.65135 0.93854 0.0
C752 C 0.31434 0.53948 0.97373 0.0
C753 C 0.29831 0.55441 0.95352 0.0
H754 H 0.35887 0.54405 0.99345 0.0
C755 C 0.31539 0.5855 0.93514 0.0
H756 H 0.30167 0.51546 0.98804 0.0
C757 C 0.34776 0.60144 0.9369 0.0
C758 C 0.36394 0.58692 0.95821 0.0
H759 H 0.30374 0.59756 0.91878 0.0
H760 H 0.36006 0.62549 0.92263 0.0
C761 C 0.34697 0.55577 0.97677 0.0
C762 C 0.4127 0.7308 0.37943 0.0
C763 C 0.44404 0.74549 0.36155 0.0
H764 H 0.37242 0.73484 0.39434 0.0
C765 C 0.45913 0.77708 0.34573 0.0
H766 H 0.40024 0.70643 0.39156 0.0
C767 C 0.44306 0.79364 0.3481 0.0
C768 C 0.41152 0.77859 0.36496 0.0
H769 H 0.48326 0.78894 0.33174 0.0
H770 H 0.45512 0.818 0.33593 0.0
C771 C 0.3966 0.74704 0.3806 0.0
C772 C 0.21795 0.68241 0.33363 0.0
C773 C 0.24929 0.69869 0.35162 0.0
H774 H 0.17698 0.63766 0.32141 0.0
C775 C 0.26357 0.68181 0.37022 0.0
H776 H 0.20641 0.69486 0.31898 0.0
C777 C 0.24716 0.64949 0.37032 0.0
C778 C 0.21581 0.63306 0.35288 0.0
H779 H 0.28776 0.69355 0.38391 0.0
H780 H 0.25906 0.63737 0.38493 0.0
C781 C 0.20118 0.64978 0.33495 0.0
C782 C 0.34604 0.55183 0.34412 0.0
C783 C 0.36261 0.58322 0.36175 0.0
H784 H 0.30109 0.51203 0.32643 0.0
C785 C 0.34599 0.59819 0.37746 0.0
H786 H 0.35829 0.5397 0.3319 0.0
C787 C 0.31362 0.58235 0.37551 0.0
C788 C 0.2969 0.5512 0.35681 0.0
H789 H 0.35799 0.62225 0.3918 0.0
H790 H 0.30175 0.59488 0.38768 0.0
C791 C 0.31338 0.53602 0.34103 0.0
C792 C 0.33823 0.13779 0.11427 0.0
C793 C 0.35935 0.16958 0.123 0.0
H794 H 0.29382 0.09883 0.13668 0.0
C795 C 0.35238 0.18598 0.16529 0.0
H796 H 0.34248 0.1247 0.08094 0.0
C797 C 0.32467 0.1712 0.19719 0.0
C798 C 0.30326 0.13963 0.18781 0.0
H799 H 0.36827 0.21046 0.17345 0.0
H800 H 0.31967 0.18469 0.22847 0.0
C801 C 0.31038 0.1229 0.1465 0.0
C802 C 0.86136 0.20464 0.12944 0.0
C803 C 0.83075 0.19671 0.14422 0.0
H804 H 0.89926 0.19654 0.14591 0.0
C805 C 0.81601 0.17656 0.192 0.0
H806 H 0.87305 0.21962 0.09211 0.0
C807 C 0.83103 0.16364 0.22303 0.0
C808 C 0.86115 0.17053 0.20706 0.0
H809 H 0.79252 0.17027 0.20486 0.0
H810 H 0.81864 0.14746 0.25854 0.0
C811 C 0.87646 0.19157 0.16059 0.0
C812 C 0.84228 0.65424 0.14771 0.0
C813 C 0.81025 0.63908 0.13496 0.0
H814 H 0.88179 0.69395 0.18365 0.0
C815 C 0.79357 0.65425 0.14928 0.0
H816 H 0.85608 0.64345 0.13762 0.0
C817 C 0.80868 0.68396 0.1747 0.0
C818 C 0.84063 0.6988 0.18839 0.0
H819 H 0.76881 0.64333 0.1423 0.0
H820 H 0.79507 0.69502 0.18249 0.0
C821 C 0.85713 0.68343 0.17428 0.0
C822 C 0.17155 0.31675 0.82051 0.0
C823 C 0.14024 0.30226 0.80226 0.0
H824 H 0.21001 0.35614 0.86 0.0
C825 C 0.12372 0.31816 0.81126 0.0
H826 H 0.18529 0.30551 0.8148 0.0
C827 C 0.13838 0.34796 0.83638 0.0
C828 C 0.16962 0.36216 0.85483 0.0
H829 H 0.09951 0.30799 0.79979 0.0
H830 H 0.12521 0.35981 0.83976 0.0
C831 C 0.18588 0.34603 0.84665 0.0
C832 C 0.64604 0.7874 0.82721 0.0
C833 C 0.64004 0.80415 0.87042 0.0
H834 H 0.67752 0.7888 0.76047 0.0
C835 C 0.66284 0.83501 0.88243 0.0
H836 H 0.62853 0.76394 0.81547 0.0
C837 C 0.6906 0.84925 0.85066 0.0
C838 C 0.69628 0.83297 0.80611 0.0
H839 H 0.65881 0.8485 0.91534 0.0
H840 H 0.70746 0.87329 0.86039 0.0
C841 C 0.67403 0.80171 0.79534 0.0
C842 C 0.16224 0.8268 0.8797 0.0
C843 C 0.19317 0.83472 0.86854 0.0
H844 H 0.12387 0.83253 0.85509 0.0
C845 C 0.20982 0.85626 0.82352 0.0
H846 H 0.1488 0.81015 0.91389 0.0
C847 C 0.19542 0.86906 0.78942 0.0
C848 C 0.16417 0.86034 0.7997 0.0
H849 H 0.2333 0.86199 0.81235 0.0
H850 H 0.20831 0.88462 0.75352 0.0
C851 C 0.14791 0.83944 0.84569 0.0
C852 C -0.00363 0.50307 0.5484 0.0
C853 C 0.97314 0.47233 0.5368 0.0
H854 H 0.04057 0.54126 0.52387 0.0
C855 C 0.97792 0.45571 0.49148 0.0
H856 H -0.00673 0.51648 0.58287 0.0
C857 C 0.00512 0.47003 0.45727 0.0
C858 C 0.02778 0.50117 0.46775 0.0
H859 H 0.96002 0.43236 0.48005 0.0
H860 H 0.00767 0.45722 0.42101 0.0
C861 C 0.02334 0.51732 0.51429 0.0
C862 C 0.52746 0.5372 0.46257 0.0
C863 C 0.49634 0.5284 0.47473 0.0
H864 H 0.56581 0.53039 0.48292 0.0
C865 C 0.48091 0.50772 0.52148 0.0
H866 H 0.53972 0.55256 0.42603 0.0
C867 C 0.49585 0.4953 0.55426 0.0
C868 C 0.5266 0.50324 0.54115 0.0
H869 H 0.45699 0.50073 0.53232 0.0
H870 H 0.483 0.47875 0.58899 0.0
C871 C 0.54249 0.52465 0.49551 0.0
C872 C 0.45638 0.98564 0.47908 0.0
C873 C 0.47359 0.97098 0.46504 0.0
H874 H 0.45716 0.02641 0.51069 0.0
C875 C 0.5057 0.98685 0.47705 0.0
H876 H 0.43152 0.97411 0.47275 0.0
C877 C 0.52019 0.01637 0.50224 0.0
C878 C 0.5032 0.03132 0.51564 0.0
H879 H 0.51988 0.97644 0.46724 0.0
H880 H 0.54497 0.02752 0.51088 0.0
C881 C 0.47111 0.01567 0.50316 0.0
C882 C 0.19117 0.03255 0.47428 0.0
C883 C 0.17937 0.00848 0.43236 0.0
H884 H 0.19359 0.04426 0.56608 0.0
C885 C 0.16728 0.97764 0.45156 0.0
H886 H 0.20049 0.05649 0.46058 0.0
C887 C 0.1638 0.97065 0.51188 0.0
C888 C 0.17168 0.99437 0.55368 0.0
H889 H 0.15815 0.9587 0.41989 0.0
H890 H 0.15197 0.94646 0.52525 0.0
C891 C 0.18705 0.02551 0.53462 0.0
C892 C 0.98004 0.16624 0.53161 0.0
C893 C 0.01083 0.17786 0.55095 0.0
H894 H 0.94898 0.15198 0.4577 0.0
C895 C 0.03503 0.18978 0.50923 0.0
H896 H 0.96101 0.15697 0.56313 0.0
C897 C 0.0281 0.18628 0.44877 0.0
C898 C -0.00304 0.17146 0.42943 0.0
H899 H 0.05894 0.19872 0.52307 0.0
H900 H 0.0469 0.19286 0.41737 0.0
C901 C 0.97318 0.16345 0.47123 0.0
C902 C 0.80554 0.83249 0.51789 0.0
C903 C 0.82181 0.8247 0.55889 0.0
H904 H 0.79908 0.83891 0.42638 0.0
C905 C 0.8379 0.80983 0.5386 0.0
H906 H 0.7929 0.84392 0.53215 0.0
C907 C 0.84091 0.80638 0.47794 0.0
C908 C 0.82841 0.81837 0.43687 0.0
H909 H 0.85043 0.80334 0.56935 0.0
H910 H 0.85592 0.7976 0.4635 0.0
C911 C 0.80912 0.82966 0.45725 0.0
C912 C 0.85091 0.35565 0.87131 0.0
C913 C 0.83281 0.3246 0.88991 0.0
H914 H 0.8666 0.38716 0.79807 0.0
C915 C 0.82137 0.30075 0.84754 0.0
H916 H 0.86004 0.37443 0.9033 0.0
C917 C 0.82452 0.30806 0.78731 0.0
C918 C 0.83978 0.33927 0.7688 0.0
H919 H 0.80723 0.27665 0.86074 0.0
H920 H 0.81297 0.28938 0.75545 0.0
C921 C 0.85472 0.36292 0.81109 0.0
C922 C 0.70014 0.52662 0.85067 0.0
C923 C 0.67586 0.51412 0.89221 0.0
H924 H 0.71229 0.53 0.75895 0.0
C925 C 0.64499 0.50172 0.87264 0.0
H926 H 0.72413 0.53622 0.86465 0.0
C927 C 0.63824 0.49868 0.81221 0.0
C928 C 0.66224 0.5073 0.77068 0.0
H929 H 0.62589 0.49204 0.90399 0.0
H930 H 0.61406 0.48663 0.79844 0.0
C931 C 0.69335 0.52291 0.7902 0.0
C932 C 0.47731 0.17062 0.77756 0.0
C933 C 0.4954 0.15774 0.7583 0.0
H934 H 0.46164 0.1861 0.85145 0.0
C935 C 0.50671 0.14495 0.80009 0.0
H936 H 0.46827 0.18054 0.74601 0.0
C937 C 0.50352 0.14875 0.8605 0.0
C938 C 0.48836 0.16472 0.87973 0.0
H939 H 0.52083 0.13501 0.78635 0.0
H940 H 0.51503 0.14138 0.89196 0.0
C941 C 0.47346 0.17373 0.83792 0.0
C942 C 0.4889 0.6337 0.17923 0.0
C943 C 0.49978 0.65758 0.22152 0.0
H944 H 0.48082 0.62217 0.08717 0.0
C945 C 0.51736 0.68867 0.20282 0.0
H946 H 0.47519 0.60956 0.19248 0.0
C947 C 0.52112 0.69588 0.14257 0.0
C948 C 0.50666 0.6721 0.10037 0.0
H949 H 0.52608 0.70748 0.23473 0.0
H950 H 0.53253 0.72009 0.12942 0.0
C951 C 0.49199 0.64093 0.11899 0.0
C952 C 0.30381 0.8294 0.14212 0.0
C953 C 0.3278 0.83796 0.10058 0.0
H954 H 0.29148 0.82281 0.23391 0.0
C955 C 0.35891 0.85349 0.12008 0.0
H956 H 0.27963 0.81741 0.12836 0.0
C957 C 0.36571 0.85721 0.18054 0.0
C958 C 0.34143 0.84478 0.22208 0.0
H959 H 0.37784 0.86052 0.08881 0.0
H960 H 0.38969 0.86675 0.19452 0.0
C961 C 0.31057 0.83243 0.20254 0.0
C962 C 0.16747 0.47882 0.19452 0.0
C963 C 0.15311 0.49555 0.21387 0.0
H964 H 0.18439 0.46469 0.12042 0.0
C965 C 0.13911 0.50558 0.17208 0.0
H966 H 0.1783 0.4707 0.22601 0.0
C967 C 0.14316 0.50271 0.11169 0.0
C968 C 0.16058 0.48908 0.09241 0.0
H969 H 0.12795 0.51858 0.18575 0.0
H970 H 0.13486 0.51338 0.08025 0.0
C971 C 0.17085 0.47527 0.13411 0.0
C972 C 0.13238 -0.00446 0.02464 0.0
C973 C 0.15786 -0.00261 0.0552 0.0
H974 H 0.11075 0.99091 0.94028 0.0
C975 C 0.18131 -0.0045 0.02399 0.0
H976 H 0.11425 -0.00272 0.04814 0.0
C977 C 0.17913 0.9915 0.96263 0.0
C978 C 0.15391 0.99022 0.93205 0.0
H979 H 0.20119 -0.00292 0.04711 0.0
H980 H 0.19731 0.98994 0.93893 0.0
C981 C 0.1305 0.99214 0.96332 0.0
C982 C 0.98776 0.17329 0.01856 0.0
C983 C 0.98864 0.14938 0.04995 0.0
H984 H 0.99161 0.19423 0.93351 0.0
C985 C 0.99233 0.12688 0.01919 0.0
H986 H 0.98479 0.19075 0.04171 0.0
C987 C -0.00428 0.12859 0.95784 0.0
C988 C -0.00435 0.15293 0.92658 0.0
H989 H 0.99261 0.108 0.04263 0.0
H990 H -0.00092 0.11131 0.93492 0.0
C991 C 0.99158 0.17524 0.95713 0.0
C992 C 0.86836 0.87302 0.96808 0.0
C993 C 0.84211 0.85008 0.93804 0.0
H994 H 0.891 0.88942 0.05198 0.0
C995 C 0.81774 0.82609 0.97015 0.0
H996 H 0.88721 0.89193 0.94404 0.0
C997 C 0.82002 0.82453 0.03154 0.0
C998 C 0.84638 0.84735 0.06145 0.0
H999 H 0.79726 0.8083 0.94758 0.0
H1000 H 0.80136 0.80548 0.05567 0.0
C1001 C 0.87041 0.87175 0.02951 0.0
C1002 C 0.84748 0.33345 0.2977 0.0
C1003 C 0.82218 0.3321 0.26724 0.0
H1004 H 0.86988 0.33942 0.38199 0.0
C1005 C 0.79957 0.33544 0.2984 0.0
H1006 H 0.86506 0.33081 0.27413 0.0
C1007 C 0.80204 0.33982 0.35948 0.0
C1008 C 0.8273 0.34118 0.39001 0.0
H1009 H 0.77973 0.33415 0.2756 0.0
H1010 H 0.78424 0.34213 0.38296 0.0
C1011 C 0.85024 0.33837 0.35886 0.0
C1012 C 0.66538 0.46874 0.29969 0.0
C1013 C 0.66536 0.49303 0.26818 0.0
H1014 H 0.66217 0.4483 0.38466 0.0
C1015 C 0.66152 0.51555 0.29844 0.0
H1016 H 0.66852 0.45128 0.27692 0.0
C1017 C 0.65768 0.51374 0.35987 0.0
C1018 C 0.65837 0.48979 0.39144 0.0
H1019 H 0.66156 0.53448 0.27457 0.0
H1020 H 0.65472 0.53126 0.38283 0.0
C1021 C 0.66202 0.46719 0.361 0.0
C1022 C 0.47678 0.15821 0.29085 0.0
C1023 C 0.50173 0.18186 0.25924 0.0
H1024 H 0.45961 0.1376 0.37616 0.0
C1025 C 0.52824 0.20407 0.28965 0.0
H1026 H 0.45609 0.14101 0.26793 0.0
C1027 C 0.53003 0.20241 0.35093 0.0
C1028 C 0.50541 0.17841 0.38247 0.0
H1029 H 0.54752 0.22275 0.26599 0.0
H1030 H 0.55085 0.21956 0.37364 0.0
C1031 C 0.47875 0.1563 0.35227 0.0
C1032 C 0.5154 0.66785 0.69072 0.0
C1033 C 0.49279 0.67118 0.72193 0.0
H1034 H 0.52993 0.66004 0.6059 0.0
C1035 C 0.46772 0.67028 0.6915 0.0
H1036 H 0.53489 0.66855 0.71378 0.0
C1037 C 0.46517 0.66596 0.63041 0.0
C1038 C 0.48751 0.66222 0.59914 0.0
H1039 H 0.45017 0.67299 0.71503 0.0
H1040 H 0.44552 0.66511 0.60766 0.0
C1041 C 0.51256 0.663 0.62954 0.0
C1042 C 0.32232 0.84435 0.68987 0.0
C1043 C 0.32337 0.82056 0.72132 0.0
H1044 H 0.32579 0.865 0.60465 0.0
C1045 C 0.32719 0.7981 0.69074 0.0
H1046 H 0.31921 0.86174 0.71296 0.0
C1047 C 0.33041 0.79967 0.6294 0.0
C1048 C 0.33005 0.82382 0.59803 0.0
H1049 H 0.3276 0.77932 0.7143 0.0
H1050 H 0.33373 0.78235 0.60652 0.0
C1051 C 0.326 0.84618 0.62842 0.0
C1052 C 0.19641 0.53421 0.62313 0.0
C1053 C 0.16989 0.512 0.59271 0.0
H1054 H 0.21892 0.54974 0.70723 0.0
C1055 C 0.1451 0.48812 0.62422 0.0
H1056 H 0.21557 0.55305 0.59955 0.0
C1057 C 0.14712 0.4861 0.68559 0.0
C1058 C 0.17364 0.50837 0.71588 0.0
H1059 H 0.12442 0.47091 0.60128 0.0
H1060 H 0.12801 0.46734 0.70944 0.0
C1061 C 0.19821 0.53247 0.68441 0.0
loop_
_geom_bond_atom_site_label_1
_geom_bond_atom_site_label_2
_geom_bond_distance
_geom_bond_site_symmetry_2
_ccdc_geom_bond_type
Co0 O3 1.970 . S
Co0 N17 1.989 . S
Co0 O25 1.967 1_565 S
Co0 O32 1.920 . S
Co1 O4 1.966 . S
Co1 N10 2.022 . S
Co1 N18 1.993 . S
Co1 O26 1.941 . S
C2 O3 1.258 . S
C2 O4 1.263 1_565 S
O3 Co0 1.970 . S
O3 C2 1.258 . S
O4 Co1 1.966 . S
O4 C2 1.263 1_545 S
C5 O6 1.235 . S
C5 O32 1.289 . S
O6 C5 1.235 . S
C7 C9 1.400 . S
C7 N10 1.351 . S
C7 C12 1.501 . S
C8 C9 1.387 . S
C8 N11 1.341 . S
C9 C7 1.400 . S
C9 C8 1.387 . S
N10 Co1 2.022 . S
N10 C7 1.351 . S
N10 N11 1.365 . S
N11 C8 1.341 . S
N11 N10 1.365 . S
N11 H31 0.862 . S
C12 C7 1.501 . S
C12 H13 0.961 . S
C12 H14 0.961 . S
C12 H15 0.960 . S
H13 C12 0.961 . S
H14 C12 0.961 . S
H15 C12 0.960 . S
C16 N17 1.342 . S
C16 C20 1.401 . S
C16 C21 1.499 . S
N17 Co0 1.989 . S
N17 C16 1.342 . S
N17 N18 1.388 1_565 S
N18 Co1 1.993 . S
N18 N17 1.388 1_545 S
N18 C19 1.346 . S
C19 N18 1.346 . S
C19 C20 1.396 1_545 S
C19 C29 1.510 . S
C20 C16 1.401 . S
C20 C19 1.396 1_565 S
C21 C16 1.499 . S
C21 H22 0.959 . S
C21 H23 0.960 . S
C21 H24 0.961 . S
H22 C21 0.959 . S
H23 C21 0.960 . S
H24 C21 0.961 . S
O25 Co0 1.967 1_545 S
O25 C33 1.258 . S
O26 Co1 1.941 . S
O26 C33 1.266 . S
H27 C29 0.959 . S
H28 C29 0.961 . S
C29 C19 1.510 . S
C29 H27 0.959 . S
C29 H28 0.961 . S
C29 H30 0.960 . S
H30 C29 0.960 . S
H31 N11 0.862 . S
O32 Co0 1.920 . S
O32 C5 1.289 . S
C33 O25 1.258 . S
C33 O26 1.266 . S
Co34 O37 1.970 . S
Co34 N51 1.989 . S
Co34 O59 1.967 1_455 S
Co34 O66 1.920 . S
Co35 O38 1.966 . S
Co35 N44 2.022 . S
Co35 N52 1.973 1_655 S
Co35 O60 1.941 . S
C36 O37 1.258 . S
C36 O38 1.263 1_455 S
O37 Co34 1.970 . S
O37 C36 1.258 . S
O38 Co35 1.966 . S
O38 C36 1.263 1_655 S
C39 O40 1.235 . S
C39 O66 1.289 . S
O40 C39 1.235 . S
C41 C43 1.400 . S
C41 N44 1.351 . S
C41 C46 1.501 . S
C42 C43 1.387 . S
C42 N45 1.341 . S
C43 C41 1.400 . S
C43 C42 1.387 . S
N44 Co35 2.022 . S
N44 C41 1.351 . S
N44 N45 1.365 . S
N45 C42 1.341 . S
N45 N44 1.365 . S
N45 H65 0.862 . S
C46 C41 1.501 . S
C46 H47 0.961 . S
C46 H48 0.961 . S
C46 H49 0.960 . S
H47 C46 0.961 . S
H48 C46 0.961 . S
H49 C46 0.960 . S
C50 N51 1.342 . S
C50 C54 1.401 . S
C50 C55 1.499 . S
N51 Co34 1.989 . S
N51 C50 1.342 . S
N51 N52 1.421 . S
N52 Co35 1.973 1_455 S
N52 N51 1.421 . S
N52 C53 1.340 . S
C53 N52 1.340 . S
C53 C54 1.396 . S
C53 C63 1.510 1_455 S
C54 C50 1.401 . S
C54 C53 1.396 . S
C55 C50 1.499 . S
C55 H56 0.959 . S
C55 H57 0.960 . S
C55 H58 0.961 . S
H56 C55 0.959 . S
H57 C55 0.960 . S
H58 C55 0.961 . S
O59 Co34 1.967 1_655 S
O59 C67 1.258 . S
O60 Co35 1.941 . S
O60 C67 1.266 . S
H61 C63 0.959 . S
H62 C63 0.961 . S
C63 C53 1.510 1_655 S
C63 H61 0.959 . S
C63 H62 0.961 . S
C63 H64 0.960 . S
H64 C63 0.960 . S
H65 N45 0.862 . S
O66 Co34 1.920 . S
O66 C39 1.289 . S
C67 O59 1.258 . S
C67 O60 1.266 . S
Co68 O71 1.970 . S
Co68 N85 1.989 . S
Co68 O93 1.967 . S
Co68 O100 1.920 . S
Co69 O72 1.966 . S
Co69 N78 2.022 . S
Co69 N86 1.993 . S
Co69 O94 1.941 . S
C70 O71 1.258 . S
C70 O72 1.263 . S
O71 Co68 1.970 . S
O71 C70 1.258 . S
O72 Co69 1.966 . S
O72 C70 1.263 . S
C73 O74 1.235 . S
C73 O100 1.289 . S
O74 C73 1.235 . S
C75 C77 1.400 . S
C75 N78 1.351 . S
C75 C80 1.501 . S
C76 C77 1.387 . S
C76 N79 1.341 . S
C77 C75 1.400 . S
C77 C76 1.387 . S
N78 Co69 2.022 . S
N78 C75 1.351 . S
N78 N79 1.365 . S
N79 C76 1.341 . S
N79 N78 1.365 . S
N79 H99 0.862 . S
C80 C75 1.501 . S
C80 H81 0.961 . S
C80 H82 0.961 . S
C80 H83 0.960 . S
H81 C80 0.961 . S
H82 C80 0.961 . S
H83 C80 0.960 . S
C84 N85 1.342 . S
C84 C88 1.401 . S
C84 C89 1.499 . S
N85 Co68 1.989 . S
N85 C84 1.342 . S
N85 N86 1.388 . S
N86 Co69 1.993 . S
N86 N85 1.388 . S
N86 C87 1.346 . S
C87 N86 1.346 . S
C87 C88 1.396 . S
C87 C97 1.510 . S
C88 C84 1.401 . S
C88 C87 1.396 . S
C89 C84 1.499 . S
C89 H90 0.959 . S
C89 H91 0.960 . S
C89 H92 0.961 . S
H90 C89 0.959 . S
H91 C89 0.960 . S
H92 C89 0.961 . S
O93 Co68 1.967 . S
O93 C101 1.258 . S
O94 Co69 1.941 . S
O94 C101 1.266 . S
H95 C97 0.959 . S
H96 C97 0.961 . S
C97 C87 1.510 . S
C97 H95 0.959 . S
C97 H96 0.961 . S
C97 H98 0.960 . S
H98 C97 0.960 . S
H99 N79 0.862 . S
O100 Co68 1.920 . S
O100 C73 1.289 . S
C101 O93 1.258 . S
C101 O94 1.266 . S
Co102 O105 1.970 . S
Co102 N119 1.989 . S
Co102 O127 1.967 1_655 S
Co102 O134 1.920 . S
Co103 O106 1.966 . S
Co103 N112 2.022 . S
Co103 N120 1.993 . S
Co103 O128 1.941 . S
C104 O105 1.258 . S
C104 O106 1.263 1_655 S
O105 Co102 1.970 . S
O105 C104 1.258 . S
O106 Co103 1.966 . S
O106 C104 1.263 1_455 S
C107 O108 1.235 . S
C107 O134 1.289 . S
O108 C107 1.235 . S
C109 C111 1.400 . S
C109 N112 1.351 . S
C109 C114 1.501 . S
C110 C111 1.387 . S
C110 N113 1.341 . S
C111 C109 1.400 . S
C111 C110 1.387 . S
N112 Co103 2.022 . S
N112 C109 1.351 . S
N112 N113 1.365 . S
N113 C110 1.341 . S
N113 N112 1.365 . S
N113 H133 0.862 . S
C114 C109 1.501 . S
C114 H115 0.961 . S
C114 H116 0.961 . S
C114 H117 0.960 . S
H115 C114 0.961 . S
H116 C114 0.961 . S
H117 C114 0.960 . S
C118 N119 1.342 . S
C118 C122 1.401 . S
C118 C123 1.499 . S
N119 Co102 1.989 . S
N119 C118 1.342 . S
N119 N120 1.388 1_655 S
N120 Co103 1.993 . S
N120 N119 1.388 1_455 S
N120 C121 1.346 . S
C121 N120 1.346 . S
C121 C122 1.396 1_455 S
C121 C131 1.510 . S
C122 C118 1.401 . S
C122 C121 1.396 1_655 S
C123 C118 1.499 . S
C123 H124 0.959 . S
C123 H125 0.960 . S
C123 H126 0.961 . S
H124 C123 0.959 . S
H125 C123 0.960 . S
H126 C123 0.961 . S
O127 Co102 1.967 1_455 S
O127 C135 1.258 . S
O128 Co103 1.941 . S
O128 C135 1.266 . S
H129 C131 0.959 . S
H130 C131 0.961 . S
C131 C121 1.510 . S
C131 H129 0.959 . S
C131 H130 0.961 . S
C131 H132 0.960 . S
H132 C131 0.960 . S
H133 N113 0.862 . S
O134 Co102 1.920 . S
O134 C107 1.289 . S
C135 O127 1.258 . S
C135 O128 1.266 . S
Co136 O139 1.970 . S
Co136 N153 1.989 . S
Co136 O161 1.967 . S
Co136 O168 1.920 . S
Co137 O140 1.966 . S
Co137 N146 2.022 . S
Co137 N154 1.993 . S
Co137 O162 1.941 . S
C138 O139 1.258 . S
C138 O140 1.263 . S
O139 Co136 1.970 . S
O139 C138 1.258 . S
O140 Co137 1.966 . S
O140 C138 1.263 . S
C141 O142 1.235 . S
C141 O168 1.289 . S
O142 C141 1.235 . S
C143 C145 1.400 . S
C143 N146 1.351 . S
C143 C148 1.501 . S
C144 C145 1.387 . S
C144 N147 1.341 . S
C145 C143 1.400 . S
C145 C144 1.387 . S
N146 Co137 2.022 . S
N146 C143 1.351 . S
N146 N147 1.365 . S
N147 C144 1.341 . S
N147 N146 1.365 . S
N147 H167 0.862 . S
C148 C143 1.501 . S
C148 H149 0.961 . S
C148 H150 0.961 . S
C148 H151 0.960 . S
H149 C148 0.961 . S
H150 C148 0.961 . S
H151 C148 0.960 . S
C152 N153 1.342 . S
C152 C156 1.401 . S
C152 C157 1.499 . S
N153 Co136 1.989 . S
N153 C152 1.342 . S
N153 N154 1.388 . S
N154 Co137 1.993 . S
N154 N153 1.388 . S
N154 C155 1.346 . S
C155 N154 1.346 . S
C155 C156 1.396 . S
C155 C165 1.510 . S
C156 C152 1.401 . S
C156 C155 1.396 . S
C157 C152 1.499 . S
C157 H158 0.959 . S
C157 H159 0.960 . S
C157 H160 0.961 . S
H158 C157 0.959 . S
H159 C157 0.960 . S
H160 C157 0.961 . S
O161 Co136 1.967 . S
O161 C169 1.258 . S
O162 Co137 1.941 . S
O162 C169 1.266 . S
H163 C165 0.959 . S
H164 C165 0.961 . S
C165 C155 1.510 . S
C165 H163 0.959 . S
C165 H164 0.961 . S
C165 H166 0.960 . S
H166 C165 0.960 . S
H167 N147 0.862 . S
O168 Co136 1.920 . S
O168 C141 1.289 . S
C169 O161 1.258 . S
C169 O162 1.266 . S
Co170 O173 1.970 . S
Co170 N187 1.989 . S
Co170 O195 1.967 1_545 S
Co170 O202 1.920 . S
Co171 O174 1.966 . S
Co171 N180 2.022 . S
Co171 N188 1.973 1_565 S
Co171 O196 1.941 . S
C172 O173 1.258 . S
C172 O174 1.263 1_545 S
O173 Co170 1.970 . S
O173 C172 1.258 . S
O174 Co171 1.966 . S
O174 C172 1.263 1_565 S
C175 O176 1.235 . S
C175 O202 1.289 . S
O176 C175 1.235 . S
C177 C179 1.400 . S
C177 N180 1.351 . S
C177 C182 1.501 . S
C178 C179 1.387 . S
C178 N181 1.341 . S
C179 C177 1.400 . S
C179 C178 1.387 . S
N180 Co171 2.022 . S
N180 C177 1.351 . S
N180 N181 1.365 . S
N181 C178 1.341 . S
N181 N180 1.365 . S
N181 H201 0.862 . S
C182 C177 1.501 . S
C182 H183 0.961 . S
C182 H184 0.961 . S
C182 H185 0.960 . S
H183 C182 0.961 . S
H184 C182 0.961 . S
H185 C182 0.960 . S
C186 N187 1.342 . S
C186 C190 1.401 . S
C186 C191 1.499 . S
N187 Co170 1.989 . S
N187 C186 1.342 . S
N187 N188 1.421 . S
N188 Co171 1.973 1_545 S
N188 N187 1.421 . S
N188 C189 1.340 . S
C189 N188 1.340 . S
C189 C190 1.396 . S
C189 C199 1.510 1_545 S
C190 C186 1.401 . S
C190 C189 1.396 . S
C191 C186 1.499 . S
C191 H192 0.959 . S
C191 H193 0.960 . S
C191 H194 0.961 . S
H192 C191 0.959 . S
H193 C191 0.960 . S
H194 C191 0.961 . S
O195 Co170 1.967 1_565 S
O195 C203 1.258 . S
O196 Co171 1.941 . S
O196 C203 1.266 . S
H197 C199 0.959 . S
H198 C199 0.961 . S
C199 C189 1.510 1_565 S
C199 H197 0.959 . S
C199 H198 0.961 . S
C199 H200 0.960 . S
H200 C199 0.960 . S
H201 N181 0.862 . S
O202 Co170 1.920 . S
O202 C175 1.289 . S
C203 O195 1.258 . S
C203 O196 1.266 . S
Co204 O207 1.970 . S
Co204 N221 1.989 . S
Co204 O229 1.967 . S
Co204 O236 1.920 . S
Co205 O208 1.966 . S
Co205 N214 2.022 . S
Co205 N222 1.993 . S
Co205 O230 1.941 . S
C206 O207 1.258 . S
C206 O208 1.263 . S
O207 Co204 1.970 . S
O207 C206 1.258 . S
O208 Co205 1.966 . S
O208 C206 1.263 . S
C209 O210 1.235 . S
C209 O236 1.289 . S
O210 C209 1.235 . S
C211 C213 1.400 . S
C211 N214 1.351 . S
C211 C216 1.501 . S
C212 C213 1.387 . S
C212 N215 1.341 . S
C213 C211 1.400 . S
C213 C212 1.387 . S
N214 Co205 2.022 . S
N214 C211 1.351 . S
N214 N215 1.365 . S
N215 C212 1.341 . S
N215 N214 1.365 . S
N215 H235 0.862 . S
C216 C211 1.501 . S
C216 H217 0.961 . S
C216 H218 0.961 . S
C216 H219 0.960 . S
H217 C216 0.961 . S
H218 C216 0.961 . S
H219 C216 0.960 . S
C220 N221 1.342 . S
C220 C224 1.401 . S
C220 C225 1.499 . S
N221 Co204 1.989 . S
N221 C220 1.342 . S
N221 N222 1.388 . S
N222 Co205 1.993 . S
N222 N221 1.388 . S
N222 C223 1.346 . S
C223 N222 1.346 . S
C223 C224 1.396 . S
C223 C233 1.510 . S
C224 C220 1.401 . S
C224 C223 1.396 . S
C225 C220 1.499 . S
C225 H226 0.959 . S
C225 H227 0.960 . S
C225 H228 0.961 . S
H226 C225 0.959 . S
H227 C225 0.960 . S
H228 C225 0.961 . S
O229 Co204 1.967 . S
O229 C237 1.258 . S
O230 Co205 1.941 . S
O230 C237 1.266 . S
H231 C233 0.959 . S
H232 C233 0.961 . S
C233 C223 1.510 . S
C233 H231 0.959 . S
C233 H232 0.961 . S
C233 H234 0.960 . S
H234 C233 0.960 . S
H235 N215 0.862 . S
O236 Co204 1.920 . S
O236 C209 1.289 . S
C237 O229 1.258 . S
C237 O230 1.266 . S
Co238 O241 1.970 . S
Co238 N255 1.989 . S
Co238 O263 1.967 . S
Co238 O270 1.920 . S
Co239 O242 1.966 . S
Co239 N248 2.022 . S
Co239 N256 1.993 . S
Co239 O264 1.941 . S
C240 O241 1.258 . S
C240 O242 1.263 . S
O241 Co238 1.970 . S
O241 C240 1.258 . S
O242 Co239 1.966 . S
O242 C240 1.263 . S
C243 O244 1.235 . S
C243 O270 1.289 . S
O244 C243 1.235 . S
C245 C247 1.400 . S
C245 N248 1.351 . S
C245 C250 1.501 . S
C246 C247 1.387 . S
C246 N249 1.341 . S
C247 C245 1.400 . S
C247 C246 1.387 . S
N248 Co239 2.022 . S
N248 C245 1.351 . S
N248 N249 1.365 . S
N249 C246 1.341 . S
N249 N248 1.365 . S
N249 H269 0.862 . S
C250 C245 1.501 . S
C250 H251 0.961 . S
C250 H252 0.961 . S
C250 H253 0.960 . S
H251 C250 0.961 . S
H252 C250 0.961 . S
H253 C250 0.960 . S
C254 N255 1.342 . S
C254 C258 1.401 . S
C254 C259 1.499 . S
N255 Co238 1.989 . S
N255 C254 1.342 . S
N255 N256 1.388 . S
N256 Co239 1.993 . S
N256 N255 1.388 . S
N256 C257 1.346 . S
C257 N256 1.346 . S
C257 C258 1.396 . S
C257 C267 1.510 . S
C258 C254 1.401 . S
C258 C257 1.396 . S
C259 C254 1.499 . S
C259 H260 0.959 . S
C259 H261 0.960 . S
C259 H262 0.961 . S
H260 C259 0.959 . S
H261 C259 0.960 . S
H262 C259 0.961 . S
O263 Co238 1.967 . S
O263 C271 1.258 . S
O264 Co239 1.941 . S
O264 C271 1.266 . S
H265 C267 0.959 . S
H266 C267 0.961 . S
C267 C257 1.510 . S
C267 H265 0.959 . S
C267 H266 0.961 . S
C267 H268 0.960 . S
H268 C267 0.960 . S
H269 N249 0.862 . S
O270 Co238 1.920 . S
O270 C243 1.289 . S
C271 O263 1.258 . S
C271 O264 1.266 . S
Co272 O275 1.970 . S
Co272 N289 1.989 . S
Co272 O297 1.967 . S
Co272 O304 1.920 . S
Co273 O276 1.966 . S
Co273 N282 2.022 . S
Co273 N290 1.993 . S
Co273 O298 1.941 . S
C274 O275 1.258 . S
C274 O276 1.263 . S
O275 Co272 1.970 . S
O275 C274 1.258 . S
O276 Co273 1.966 . S
O276 C274 1.263 . S
C277 O278 1.235 . S
C277 O304 1.289 . S
O278 C277 1.235 . S
C279 C281 1.400 . S
C279 N282 1.351 . S
C279 C284 1.501 . S
C280 C281 1.387 . S
C280 N283 1.341 . S
C281 C279 1.400 . S
C281 C280 1.387 . S
N282 Co273 2.022 . S
N282 C279 1.351 . S
N282 N283 1.365 . S
N283 C280 1.341 . S
N283 N282 1.365 . S
N283 H303 0.862 . S
C284 C279 1.501 . S
C284 H285 0.961 . S
C284 H286 0.961 . S
C284 H287 0.960 . S
H285 C284 0.961 . S
H286 C284 0.961 . S
H287 C284 0.960 . S
C288 N289 1.342 . S
C288 C292 1.401 . S
C288 C293 1.499 . S
N289 Co272 1.989 . S
N289 C288 1.342 . S
N289 N290 1.388 . S
N290 Co273 1.993 . S
N290 N289 1.388 . S
N290 C291 1.346 . S
C291 N290 1.346 . S
C291 C292 1.396 . S
C291 C301 1.510 . S
C292 C288 1.401 . S
C292 C291 1.396 . S
C293 C288 1.499 . S
C293 H294 0.959 . S
C293 H295 0.960 . S
C293 H296 0.961 . S
H294 C293 0.959 . S
H295 C293 0.960 . S
H296 C293 0.961 . S
O297 Co272 1.967 . S
O297 C305 1.258 . S
O298 Co273 1.941 . S
O298 C305 1.266 . S
H299 C301 0.959 . S
H300 C301 0.961 . S
C301 C291 1.510 . S
C301 H299 0.959 . S
C301 H300 0.961 . S
C301 H302 0.960 . S
H302 C301 0.960 . S
H303 N283 0.862 . S
O304 Co272 1.920 . S
O304 C277 1.289 . S
C305 O297 1.258 . S
C305 O298 1.266 . S
Co306 O309 1.970 1_554 S
Co306 N323 1.989 . S
Co306 O331 1.967 . S
Co306 O338 1.920 . S
Co307 O310 1.966 1_554 S
Co307 N316 2.022 . S
Co307 N324 1.993 . S
Co307 O332 1.941 . S
C308 O309 1.258 . S
C308 O310 1.263 . S
O309 Co306 1.970 1_556 S
O309 C308 1.258 . S
O310 Co307 1.966 1_556 S
O310 C308 1.263 . S
C311 O312 1.235 . S
C311 O338 1.289 . S
O312 C311 1.235 . S
C313 C315 1.400 . S
C313 N316 1.351 . S
C313 C318 1.501 . S
C314 C315 1.387 . S
C314 N317 1.341 . S
C315 C313 1.400 . S
C315 C314 1.387 . S
N316 Co307 2.022 . S
N316 C313 1.351 . S
N316 N317 1.365 . S
N317 C314 1.341 . S
N317 N316 1.365 . S
N317 H337 0.862 . S
C318 C313 1.501 . S
C318 H319 0.961 1_554 S
C318 H320 0.961 . S
C318 H321 0.960 1_554 S
H319 C318 0.961 1_556 S
H320 C318 0.961 . S
H321 C318 0.960 1_556 S
C322 N323 1.342 . S
C322 C326 1.401 . S
C322 C327 1.499 . S
N323 Co306 1.989 . S
N323 C322 1.342 . S
N323 N324 1.388 . S
N324 Co307 1.993 . S
N324 N323 1.388 . S
N324 C325 1.346 . S
C325 N324 1.346 . S
C325 C326 1.396 . S
C325 C335 1.510 . S
C326 C322 1.401 . S
C326 C325 1.396 . S
C327 C322 1.499 . S
C327 H328 0.959 . S
C327 H329 0.960 . S
C327 H330 0.961 . S
H328 C327 0.959 . S
H329 C327 0.960 . S
H330 C327 0.961 . S
O331 Co306 1.967 . S
O331 C339 1.258 . S
O332 Co307 1.941 . S
O332 C339 1.266 . S
H333 C335 0.959 . S
H334 C335 0.961 . S
C335 C325 1.510 . S
C335 H333 0.959 . S
C335 H334 0.961 . S
C335 H336 0.960 . S
H336 C335 0.960 . S
H337 N317 0.862 . S
O338 Co306 1.920 . S
O338 C311 1.289 . S
C339 O331 1.258 . S
C339 O332 1.266 . S
Co340 O343 1.970 1_554 S
Co340 N357 1.989 . S
Co340 O365 1.967 . S
Co340 O372 1.920 . S
Co341 O344 1.966 1_554 S
Co341 N350 2.022 . S
Co341 N358 1.993 . S
Co341 O366 1.941 . S
C342 O343 1.258 . S
C342 O344 1.263 . S
O343 Co340 1.970 1_556 S
O343 C342 1.258 . S
O344 Co341 1.966 1_556 S
O344 C342 1.263 . S
C345 O346 1.235 . S
C345 O372 1.289 . S
O346 C345 1.235 . S
C347 C349 1.400 . S
C347 N350 1.351 . S
C347 C352 1.501 . S
C348 C349 1.387 . S
C348 N351 1.341 . S
C349 C347 1.400 . S
C349 C348 1.387 . S
N350 Co341 2.022 . S
N350 C347 1.351 . S
N350 N351 1.365 . S
N351 C348 1.341 . S
N351 N350 1.365 . S
N351 H371 0.862 . S
C352 C347 1.501 . S
C352 H353 0.961 1_554 S
C352 H354 0.961 . S
C352 H355 0.960 1_554 S
H353 C352 0.961 1_556 S
H354 C352 0.961 . S
H355 C352 0.960 1_556 S
C356 N357 1.342 . S
C356 C360 1.401 . S
C356 C361 1.499 . S
N357 Co340 1.989 . S
N357 C356 1.342 . S
N357 N358 1.388 . S
N358 Co341 1.993 . S
N358 N357 1.388 . S
N358 C359 1.346 . S
C359 N358 1.346 . S
C359 C360 1.396 . S
C359 C369 1.510 . S
C360 C356 1.401 . S
C360 C359 1.396 . S
C361 C356 1.499 . S
C361 H362 0.959 . S
C361 H363 0.960 . S
C361 H364 0.961 . S
H362 C361 0.959 . S
H363 C361 0.960 . S
H364 C361 0.961 . S
O365 Co340 1.967 . S
O365 C373 1.258 . S
O366 Co341 1.941 . S
O366 C373 1.266 . S
H367 C369 0.959 . S
H368 C369 0.961 . S
C369 C359 1.510 . S
C369 H367 0.959 . S
C369 H368 0.961 . S
C369 H370 0.960 . S
H370 C369 0.960 . S
H371 N351 0.862 . S
O372 Co340 1.920 . S
O372 C345 1.289 . S
C373 O365 1.258 . S
C373 O366 1.266 . S
Co374 O377 1.970 1_554 S
Co374 N391 1.989 . S
Co374 O399 1.967 . S
Co374 O406 1.920 . S
Co375 O378 1.966 1_554 S
Co375 N384 2.022 . S
Co375 N392 1.993 . S
Co375 O400 1.941 . S
C376 O377 1.258 . S
C376 O378 1.263 . S
O377 Co374 1.970 1_556 S
O377 C376 1.258 . S
O378 Co375 1.966 1_556 S
O378 C376 1.263 . S
C379 O380 1.235 . S
C379 O406 1.289 . S
O380 C379 1.235 . S
C381 C383 1.400 . S
C381 N384 1.351 . S
C381 C386 1.501 . S
C382 C383 1.387 . S
C382 N385 1.341 . S
C383 C381 1.400 . S
C383 C382 1.387 . S
N384 Co375 2.022 . S
N384 C381 1.351 . S
N384 N385 1.365 . S
N385 C382 1.341 . S
N385 N384 1.365 . S
N385 H405 0.862 . S
C386 C381 1.501 . S
C386 H387 0.961 1_554 S
C386 H388 0.961 . S
C386 H389 0.960 1_554 S
H387 C386 0.961 1_556 S
H388 C386 0.961 . S
H389 C386 0.960 1_556 S
C390 N391 1.342 . S
C390 C394 1.401 . S
C390 C395 1.499 . S
N391 Co374 1.989 . S
N391 C390 1.342 . S
N391 N392 1.388 . S
N392 Co375 1.993 . S
N392 N391 1.388 . S
N392 C393 1.346 . S
C393 N392 1.346 . S
C393 C394 1.396 . S
C393 C403 1.510 . S
C394 C390 1.401 . S
C394 C393 1.396 . S
C395 C390 1.499 . S
C395 H396 0.959 . S
C395 H397 0.960 . S
C395 H398 0.961 . S
H396 C395 0.959 . S
H397 C395 0.960 . S
H398 C395 0.961 . S
O399 Co374 1.967 . S
O399 C407 1.258 . S
O400 Co375 1.941 . S
O400 C407 1.266 . S
H401 C403 0.959 . S
H402 C403 0.961 . S
C403 C393 1.510 . S
C403 H401 0.959 . S
C403 H402 0.961 . S
C403 H404 0.960 . S
H404 C403 0.960 . S
H405 N385 0.862 . S
O406 Co374 1.920 . S
O406 C379 1.289 . S
C407 O399 1.258 . S
C407 O400 1.266 . S
Co408 O411 1.970 1_556 S
Co408 N425 1.989 . S
Co408 O433 1.967 . S
Co408 O440 1.920 . S
Co409 O412 1.966 1_556 S
Co409 N418 2.022 . S
Co409 N426 1.993 . S
Co409 O434 1.941 . S
C410 O411 1.258 . S
C410 O412 1.263 . S
O411 Co408 1.970 1_554 S
O411 C410 1.258 . S
O412 Co409 1.966 1_554 S
O412 C410 1.263 . S
C413 O414 1.235 . S
C413 O440 1.289 . S
O414 C413 1.235 . S
C415 C417 1.400 . S
C415 N418 1.351 . S
C415 C420 1.501 . S
C416 C417 1.387 . S
C416 N419 1.341 . S
C417 C415 1.400 . S
C417 C416 1.387 . S
N418 Co409 2.022 . S
N418 C415 1.351 . S
N418 N419 1.365 . S
N419 C416 1.341 . S
N419 N418 1.365 . S
N419 H439 0.862 . S
C420 C415 1.501 . S
C420 H421 0.961 1_556 S
C420 H422 0.961 . S
C420 H423 0.960 1_556 S
H421 C420 0.961 1_554 S
H422 C420 0.961 . S
H423 C420 0.960 1_554 S
C424 N425 1.342 . S
C424 C428 1.401 . S
C424 C429 1.499 . S
N425 Co408 1.989 . S
N425 C424 1.342 . S
N425 N426 1.388 . S
N426 Co409 1.993 . S
N426 N425 1.388 . S
N426 C427 1.346 . S
C427 N426 1.346 . S
C427 C428 1.396 . S
C427 C437 1.510 . S
C428 C424 1.401 . S
C428 C427 1.396 . S
C429 C424 1.499 . S
C429 H430 0.959 . S
C429 H431 0.960 . S
C429 H432 0.961 . S
H430 C429 0.959 . S
H431 C429 0.960 . S
H432 C429 0.961 . S
O433 Co408 1.967 . S
O433 C441 1.258 . S
O434 Co409 1.941 . S
O434 C441 1.266 . S
H435 C437 0.959 . S
H436 C437 0.961 . S
C437 C427 1.510 . S
C437 H435 0.959 . S
C437 H436 0.961 . S
C437 H438 0.960 . S
H438 C437 0.960 . S
H439 N419 0.862 . S
O440 Co408 1.920 . S
O440 C413 1.289 . S
C441 O433 1.258 . S
C441 O434 1.266 . S
Co442 O445 1.970 1_556 S
Co442 N459 1.989 . S
Co442 O467 1.967 . S
Co442 O474 1.920 . S
Co443 O446 1.966 1_556 S
Co443 N452 2.022 . S
Co443 N460 1.993 . S
Co443 O468 1.941 . S
C444 O445 1.258 . S
C444 O446 1.263 . S
O445 Co442 1.970 1_554 S
O445 C444 1.258 . S
O446 Co443 1.966 1_554 S
O446 C444 1.263 . S
C447 O448 1.235 . S
C447 O474 1.289 . S
O448 C447 1.235 . S
C449 C451 1.400 . S
C449 N452 1.351 . S
C449 C454 1.501 . S
C450 C451 1.387 . S
C450 N453 1.341 . S
C451 C449 1.400 . S
C451 C450 1.387 . S
N452 Co443 2.022 . S
N452 C449 1.351 . S
N452 N453 1.365 . S
N453 C450 1.341 . S
N453 N452 1.365 . S
N453 H473 0.862 . S
C454 C449 1.501 . S
C454 H455 0.961 1_556 S
C454 H456 0.961 . S
C454 H457 0.960 1_556 S
H455 C454 0.961 1_554 S
H456 C454 0.961 . S
H457 C454 0.960 1_554 S
C458 N459 1.342 . S
C458 C462 1.401 . S
C458 C463 1.499 . S
N459 Co442 1.989 . S
N459 C458 1.342 . S
N459 N460 1.388 . S
N460 Co443 1.993 . S
N460 N459 1.388 . S
N460 C461 1.346 . S
C461 N460 1.346 . S
C461 C462 1.396 . S
C461 C471 1.510 . S
C462 C458 1.401 . S
C462 C461 1.396 . S
C463 C458 1.499 . S
C463 H464 0.959 . S
C463 H465 0.960 . S
C463 H466 0.961 . S
H464 C463 0.959 . S
H465 C463 0.960 . S
H466 C463 0.961 . S
O467 Co442 1.967 . S
O467 C475 1.258 . S
O468 Co443 1.941 . S
O468 C475 1.266 . S
H469 C471 0.959 . S
H470 C471 0.961 . S
C471 C461 1.510 . S
C471 H469 0.959 . S
C471 H470 0.961 . S
C471 H472 0.960 . S
H472 C471 0.960 . S
H473 N453 0.862 . S
O474 Co442 1.920 . S
O474 C447 1.289 . S
C475 O467 1.258 . S
C475 O468 1.266 . S
Co476 O479 1.970 1_556 S
Co476 N493 1.989 . S
Co476 O501 1.967 . S
Co476 O508 1.920 . S
Co477 O480 1.966 1_556 S
Co477 N486 2.022 . S
Co477 N494 1.993 . S
Co477 O502 1.941 . S
C478 O479 1.258 . S
C478 O480 1.263 . S
O479 Co476 1.970 1_554 S
O479 C478 1.258 . S
O480 Co477 1.966 1_554 S
O480 C478 1.263 . S
C481 O482 1.235 . S
C481 O508 1.289 . S
O482 C481 1.235 . S
C483 C485 1.400 . S
C483 N486 1.351 . S
C483 C488 1.501 . S
C484 C485 1.387 . S
C484 N487 1.341 . S
C485 C483 1.400 . S
C485 C484 1.387 . S
N486 Co477 2.022 . S
N486 C483 1.351 . S
N486 N487 1.365 . S
N487 C484 1.341 . S
N487 N486 1.365 . S
N487 H507 0.862 . S
C488 C483 1.501 . S
C488 H489 0.961 1_556 S
C488 H490 0.961 . S
C488 H491 0.960 1_556 S
H489 C488 0.961 1_554 S
H490 C488 0.961 . S
H491 C488 0.960 1_554 S
C492 N493 1.342 . S
C492 C496 1.401 . S
C492 C497 1.499 . S
N493 Co476 1.989 . S
N493 C492 1.342 . S
N493 N494 1.388 . S
N494 Co477 1.993 . S
N494 N493 1.388 . S
N494 C495 1.346 . S
C495 N494 1.346 . S
C495 C496 1.396 . S
C495 C505 1.510 . S
C496 C492 1.401 . S
C496 C495 1.396 . S
C497 C492 1.499 . S
C497 H498 0.959 . S
C497 H499 0.960 . S
C497 H500 0.961 . S
H498 C497 0.959 . S
H499 C497 0.960 . S
H500 C497 0.961 . S
O501 Co476 1.967 . S
O501 C509 1.258 . S
O502 Co477 1.941 . S
O502 C509 1.266 . S
H503 C505 0.959 . S
H504 C505 0.961 . S
C505 C495 1.510 . S
C505 H503 0.959 . S
C505 H504 0.961 . S
C505 H506 0.960 . S
H506 C505 0.960 . S
H507 N487 0.862 . S
O508 Co476 1.920 . S
O508 C481 1.289 . S
C509 O501 1.258 . S
C509 O502 1.266 . S
Co510 O513 1.970 . S
Co510 N527 1.989 . S
Co510 O535 1.967 . S
Co510 O542 1.920 . S
Co511 O514 1.966 . S
Co511 N520 2.022 . S
Co511 N528 1.993 . S
Co511 O536 1.941 . S
C512 O513 1.258 . S
C512 O514 1.263 . S
O513 Co510 1.970 . S
O513 C512 1.258 . S
O514 Co511 1.966 . S
O514 C512 1.263 . S
C515 O516 1.235 . S
C515 O542 1.289 . S
O516 C515 1.235 . S
C517 C519 1.400 . S
C517 N520 1.351 . S
C517 C522 1.501 . S
C518 C519 1.387 . S
C518 N521 1.341 . S
C519 C517 1.400 . S
C519 C518 1.387 . S
N520 Co511 2.022 . S
N520 C517 1.351 . S
N520 N521 1.365 . S
N521 C518 1.341 . S
N521 N520 1.365 . S
N521 H541 0.862 . S
C522 C517 1.501 . S
C522 H523 0.961 . S
C522 H524 0.961 . S
C522 H525 0.960 . S
H523 C522 0.961 . S
H524 C522 0.961 . S
H525 C522 0.960 . S
C526 N527 1.342 . S
C526 C530 1.401 . S
C526 C531 1.499 . S
N527 Co510 1.989 . S
N527 C526 1.342 . S
N527 N528 1.388 . S
N528 Co511 1.993 . S
N528 N527 1.388 . S
N528 C529 1.346 . S
C529 N528 1.346 . S
C529 C530 1.396 . S
C529 C539 1.510 . S
C530 C526 1.401 . S
C530 C529 1.396 . S
C531 C526 1.499 . S
C531 H532 0.959 . S
C531 H533 0.960 . S
C531 H534 0.961 . S
H532 C531 0.959 . S
H533 C531 0.960 . S
H534 C531 0.961 . S
O535 Co510 1.967 . S
O535 C543 1.258 . S
O536 Co511 1.941 . S
O536 C543 1.266 . S
H537 C539 0.959 . S
H538 C539 0.961 . S
C539 C529 1.510 . S
C539 H537 0.959 . S
C539 H538 0.961 . S
C539 H540 0.960 . S
H540 C539 0.960 . S
H541 N521 0.862 . S
O542 Co510 1.920 . S
O542 C515 1.289 . S
C543 O535 1.258 . S
C543 O536 1.266 . S
Co544 O547 1.970 . S
Co544 N561 1.989 . S
Co544 O569 1.967 . S
Co544 O576 1.920 . S
Co545 O548 1.966 . S
Co545 N554 2.022 . S
Co545 N562 1.993 . S
Co545 O570 1.941 . S
C546 O547 1.258 . S
C546 O548 1.263 . S
O547 Co544 1.970 . S
O547 C546 1.258 . S
O548 Co545 1.966 . S
O548 C546 1.263 . S
C549 O550 1.235 . S
C549 O576 1.289 . S
O550 C549 1.235 . S
C551 C553 1.400 . S
C551 N554 1.351 . S
C551 C556 1.501 . S
C552 C553 1.387 . S
C552 N555 1.341 . S
C553 C551 1.400 . S
C553 C552 1.387 . S
N554 Co545 2.022 . S
N554 C551 1.351 . S
N554 N555 1.365 . S
N555 C552 1.341 . S
N555 N554 1.365 . S
N555 H575 0.862 . S
C556 C551 1.501 . S
C556 H557 0.961 . S
C556 H558 0.961 . S
C556 H559 0.960 . S
H557 C556 0.961 . S
H558 C556 0.961 . S
H559 C556 0.960 . S
C560 N561 1.342 . S
C560 C564 1.401 . S
C560 C565 1.499 . S
N561 Co544 1.989 . S
N561 C560 1.342 . S
N561 N562 1.388 . S
N562 Co545 1.993 . S
N562 N561 1.388 . S
N562 C563 1.346 . S
C563 N562 1.346 . S
C563 C564 1.396 . S
C563 C573 1.510 . S
C564 C560 1.401 . S
C564 C563 1.396 . S
C565 C560 1.499 . S
C565 H566 0.959 . S
C565 H567 0.960 . S
C565 H568 0.961 . S
H566 C565 0.959 . S
H567 C565 0.960 . S
H568 C565 0.961 . S
O569 Co544 1.967 . S
O569 C577 1.258 . S
O570 Co545 1.941 . S
O570 C577 1.266 . S
H571 C573 0.959 . S
H572 C573 0.961 . S
C573 C563 1.510 . S
C573 H571 0.959 . S
C573 H572 0.961 . S
C573 H574 0.960 . S
H574 C573 0.960 . S
H575 N555 0.862 . S
O576 Co544 1.920 . S
O576 C549 1.289 . S
C577 O569 1.258 . S
C577 O570 1.266 . S
Co578 O581 1.970 . S
Co578 N595 1.989 . S
Co578 O603 1.967 . S
Co578 O610 1.920 . S
Co579 O582 1.966 . S
Co579 N588 2.022 . S
Co579 N596 1.993 . S
Co579 O604 1.941 . S
C580 O581 1.258 . S
C580 O582 1.263 . S
O581 Co578 1.970 . S
O581 C580 1.258 . S
O582 Co579 1.966 . S
O582 C580 1.263 . S
C583 O584 1.235 . S
C583 O610 1.289 . S
O584 C583 1.235 . S
C585 C587 1.400 . S
C585 N588 1.351 . S
C585 C590 1.501 . S
C586 C587 1.387 . S
C586 N589 1.341 . S
C587 C585 1.400 . S
C587 C586 1.387 . S
N588 Co579 2.022 . S
N588 C585 1.351 . S
N588 N589 1.365 . S
N589 C586 1.341 . S
N589 N588 1.365 . S
N589 H609 0.862 . S
C590 C585 1.501 . S
C590 H591 0.961 . S
C590 H592 0.961 . S
C590 H593 0.960 . S
H591 C590 0.961 . S
H592 C590 0.961 . S
H593 C590 0.960 . S
C594 N595 1.342 . S
C594 C598 1.401 . S
C594 C599 1.499 . S
N595 Co578 1.989 . S
N595 C594 1.342 . S
N595 N596 1.388 . S
N596 Co579 1.993 . S
N596 N595 1.388 . S
N596 C597 1.346 . S
C597 N596 1.346 . S
C597 C598 1.396 . S
C597 C607 1.510 . S
C598 C594 1.401 . S
C598 C597 1.396 . S
C599 C594 1.499 . S
C599 H600 0.959 . S
C599 H601 0.960 . S
C599 H602 0.961 . S
H600 C599 0.959 . S
H601 C599 0.960 . S
H602 C599 0.961 . S
O603 Co578 1.967 . S
O603 C611 1.258 . S
O604 Co579 1.941 . S
O604 C611 1.266 . S
H605 C607 0.959 . S
H606 C607 0.961 . S
C607 C597 1.510 . S
C607 H605 0.959 . S
C607 H606 0.961 . S
C607 H608 0.960 . S
H608 C607 0.960 . S
H609 N589 0.862 . S
O610 Co578 1.920 . S
O610 C583 1.289 . S
C611 O603 1.258 . S
C611 O604 1.266 . S
C612 C613 1.387 . S
C612 H616 0.950 . S
C612 C621 1.390 . S
C613 C612 1.387 . S
C613 C615 1.387 . S
H614 C621 0.950 . S
C615 C613 1.387 . S
C615 C617 1.390 . S
C615 H619 0.950 . S
H616 C612 0.950 . S
C617 C615 1.390 . S
C617 C618 1.387 . S
C617 H620 0.950 . S
C618 C617 1.387 . S
C618 C621 1.387 . S
H619 C615 0.950 . S
H620 C617 0.950 . S
C621 C612 1.390 . S
C621 H614 0.950 . S
C621 C618 1.387 . S
C622 C623 1.388 1_545 S
C622 H626 0.953 1_545 S
C622 C631 1.387 . S
C623 C622 1.388 1_565 S
C623 C625 1.387 1_565 S
H624 C631 0.950 . S
C625 C623 1.387 1_545 S
C625 C627 1.390 . S
C625 H629 0.950 1_545 S
H626 C622 0.953 1_565 S
C627 C625 1.390 . S
C627 C628 1.387 . S
C627 H630 0.950 . S
C628 C627 1.387 . S
C628 C631 1.387 . S
H629 C625 0.950 1_565 S
H630 C627 0.950 . S
C631 C622 1.387 . S
C631 H624 0.950 . S
C631 C628 1.387 . S
C632 C633 1.387 . S
C632 H636 0.950 . S
C632 C641 1.390 1_655 S
C633 C632 1.387 . S
C633 C635 1.387 . S
H634 C641 0.950 . S
C635 C633 1.387 . S
C635 C637 1.390 1_655 S
C635 H639 0.950 . S
H636 C632 0.950 . S
C637 C635 1.390 1_455 S
C637 C638 1.387 . S
C637 H640 0.950 . S
C638 C637 1.387 . S
C638 C641 1.387 . S
H639 C635 0.950 . S
H640 C637 0.950 . S
C641 C632 1.390 1_455 S
C641 H634 0.950 . S
C641 C638 1.387 . S
C642 C643 1.387 . S
C642 H646 0.950 . S
C642 C651 1.390 . S
C643 C642 1.387 . S
C643 C645 1.387 . S
H644 C651 0.950 . S
C645 C643 1.387 . S
C645 C647 1.390 . S
C645 H649 0.950 . S
H646 C642 0.950 . S
C647 C645 1.390 . S
C647 C648 1.387 . S
C647 H650 0.950 . S
C648 C647 1.387 . S
C648 C651 1.387 . S
H649 C645 0.950 . S
H650 C647 0.950 . S
C651 C642 1.390 . S
C651 H644 0.950 . S
C651 C648 1.387 . S
C652 C653 1.387 . S
C652 H656 0.950 . S
C652 C661 1.390 1_545 S
C653 C652 1.387 . S
C653 C655 1.387 . S
H654 C661 0.950 . S
C655 C653 1.387 . S
C655 C657 1.390 1_545 S
C655 H659 0.950 . S
H656 C652 0.950 . S
C657 C655 1.390 1_565 S
C657 C658 1.387 . S
C657 H660 0.950 . S
C658 C657 1.387 . S
C658 C661 1.387 . S
H659 C655 0.950 . S
H660 C657 0.950 . S
C661 C652 1.390 1_565 S
C661 H654 0.950 . S
C661 C658 1.387 . S
C662 C663 1.387 . S
C662 H666 0.950 . S
C662 C671 1.390 . S
C663 C662 1.387 . S
C663 C665 1.387 . S
H664 C671 0.950 1_655 S
C665 C663 1.387 . S
C665 C667 1.390 . S
C665 H669 0.950 . S
H666 C662 0.950 . S
C667 C665 1.390 . S
C667 C668 1.387 1_455 S
C667 H670 0.950 1_455 S
C668 C667 1.387 1_655 S
C668 C671 1.387 1_655 S
H669 C665 0.950 . S
H670 C667 0.950 1_655 S
C671 C662 1.390 . S
C671 H664 0.950 1_455 S
C671 C668 1.387 1_455 S
C672 C673 1.387 . S
C672 H676 0.950 . S
C672 C681 1.390 . S
C673 C672 1.387 . S
C673 C675 1.387 . S
H674 C681 0.950 . S
C675 C673 1.387 . S
C675 C677 1.390 . S
C675 H679 0.950 . S
H676 C672 0.950 . S
C677 C675 1.390 . S
C677 C678 1.387 . S
C677 H680 0.950 . S
C678 C677 1.387 . S
C678 C681 1.387 . S
H679 C675 0.950 . S
H680 C677 0.950 . S
C681 C672 1.390 . S
C681 H674 0.950 . S
C681 C678 1.387 . S
C682 C683 1.387 . S
C682 H686 0.950 . S
C682 C691 1.390 . S
C683 C682 1.387 . S
C683 C685 1.387 . S
H684 C691 0.950 . S
C685 C683 1.387 . S
C685 C687 1.390 . S
C685 H689 0.950 . S
H686 C682 0.950 . S
C687 C685 1.390 . S
C687 C688 1.387 . S
C687 H690 0.950 . S
C688 C687 1.387 . S
C688 C691 1.387 . S
H689 C685 0.950 . S
H690 C687 0.950 . S
C691 C682 1.390 . S
C691 H684 0.950 . S
C691 C688 1.387 . S
C692 C693 1.387 . S
C692 H696 0.950 . S
C692 C701 1.390 . S
C693 C692 1.387 . S
C693 C695 1.387 . S
H694 C701 0.950 . S
C695 C693 1.387 . S
C695 C697 1.390 . S
C695 H699 0.950 . S
H696 C692 0.950 . S
C697 C695 1.390 . S
C697 C698 1.387 . S
C697 H700 0.950 . S
C698 C697 1.387 . S
C698 C701 1.387 . S
H699 C695 0.950 . S
H700 C697 0.950 . S
C701 C692 1.390 . S
C701 H694 0.950 . S
C701 C698 1.387 . S
C702 C703 1.387 . S
C702 H706 0.950 . S
C702 C711 1.390 . S
C703 C702 1.387 . S
C703 C705 1.387 . S
H704 C711 0.950 . S
C705 C703 1.387 . S
C705 C707 1.390 . S
C705 H709 0.950 1_554 S
H706 C702 0.950 . S
C707 C705 1.390 . S
C707 C708 1.387 . S
C707 H710 0.950 1_554 S
C708 C707 1.387 . S
C708 C711 1.387 . S
H709 C705 0.950 1_556 S
H710 C707 0.950 1_556 S
C711 C702 1.390 . S
C711 H704 0.950 . S
C711 C708 1.387 . S
C712 C713 1.387 . S
C712 H716 0.950 . S
C712 C721 1.390 . S
C713 C712 1.387 . S
C713 C715 1.387 . S
H714 C721 0.950 . S
C715 C713 1.387 . S
C715 C717 1.392 . S
C715 H719 0.950 1_554 S
H716 C712 0.950 . S
C717 C715 1.392 . S
C717 C718 1.403 . S
C717 H720 0.933 1_554 S
C718 C717 1.403 . S
C718 C721 1.387 . S
H719 C715 0.950 1_556 S
H720 C717 0.933 1_556 S
C721 C712 1.390 . S
C721 H714 0.950 . S
C721 C718 1.387 . S
C722 C723 1.387 . S
C722 H726 0.950 . S
C722 C731 1.390 . S
C723 C722 1.387 . S
C723 C725 1.397 . S
H724 C731 0.950 . S
C725 C723 1.397 . S
C725 C727 1.391 . S
C725 H729 0.939 1_554 S
H726 C722 0.950 . S
C727 C725 1.391 . S
C727 C728 1.387 . S
C727 H730 0.950 1_554 S
C728 C727 1.387 . S
C728 C731 1.387 . S
H729 C725 0.939 1_556 S
H730 C727 0.950 1_556 S
C731 C722 1.390 . S
C731 H724 0.950 . S
C731 C728 1.387 . S
C732 C733 1.387 . S
C732 H736 0.950 . S
C732 C741 1.390 . S
C733 C732 1.387 . S
C733 C735 1.387 . S
H734 C741 0.950 . S
C735 C733 1.387 . S
C735 C737 1.391 . S
C735 H739 0.950 1_556 S
H736 C732 0.950 . S
C737 C735 1.391 . S
C737 C738 1.398 . S
C737 H740 0.938 1_556 S
C738 C737 1.398 . S
C738 C741 1.387 . S
H739 C735 0.950 1_554 S
H740 C737 0.938 1_554 S
C741 C732 1.390 . S
C741 H734 0.950 . S
C741 C738 1.387 . S
C742 C743 1.387 . S
C742 H746 0.950 . S
C742 C751 1.390 . S
C743 C742 1.387 . S
C743 C745 1.396 . S
H744 C751 0.950 . S
C745 C743 1.396 . S
C745 C747 1.391 . S
C745 H749 0.941 1_556 S
H746 C742 0.950 . S
C747 C745 1.391 . S
C747 C748 1.387 . S
C747 H750 0.950 1_556 S
C748 C747 1.387 . S
C748 C751 1.387 . S
H749 C745 0.941 1_554 S
H750 C747 0.950 1_554 S
C751 C742 1.390 . S
C751 H744 0.950 . S
C751 C748 1.387 . S
C752 C753 1.387 . S
C752 H756 0.950 . S
C752 C761 1.390 . S
C753 C752 1.387 . S
C753 C755 1.387 . S
H754 C761 0.950 . S
C755 C753 1.387 . S
C755 C757 1.390 . S
C755 H759 0.950 1_556 S
H756 C752 0.950 . S
C757 C755 1.390 . S
C757 C758 1.387 . S
C757 H760 0.950 1_556 S
C758 C757 1.387 . S
C758 C761 1.387 . S
H759 C755 0.950 1_554 S
H760 C757 0.950 1_554 S
C761 C752 1.390 . S
C761 H754 0.950 . S
C761 C758 1.387 . S
C762 C763 1.387 . S
C762 H766 0.950 . S
C762 C771 1.390 . S
C763 C762 1.387 . S
C763 C765 1.387 . S
H764 C771 0.950 . S
C765 C763 1.387 . S
C765 C767 1.390 . S
C765 H769 0.950 . S
H766 C762 0.950 . S
C767 C765 1.390 . S
C767 C768 1.387 . S
C767 H770 0.950 . S
C768 C767 1.387 . S
C768 C771 1.387 . S
H769 C765 0.950 . S
H770 C767 0.950 . S
C771 C762 1.390 . S
C771 H764 0.950 . S
C771 C768 1.387 . S
C772 C773 1.387 . S
C772 H776 0.950 . S
C772 C781 1.390 . S
C773 C772 1.387 . S
C773 C775 1.387 . S
H774 C781 0.950 . S
C775 C773 1.387 . S
C775 C777 1.390 . S
C775 H779 0.950 . S
H776 C772 0.950 . S
C777 C775 1.390 . S
C777 C778 1.387 . S
C777 H780 0.950 . S
C778 C777 1.387 . S
C778 C781 1.387 . S
H779 C775 0.950 . S
H780 C777 0.950 . S
C781 C772 1.390 . S
C781 H774 0.950 . S
C781 C778 1.387 . S
C782 C783 1.387 . S
C782 H786 0.950 . S
C782 C791 1.390 . S
C783 C782 1.387 . S
C783 C785 1.387 . S
H784 C791 0.950 . S
C785 C783 1.387 . S
C785 C787 1.390 . S
C785 H789 0.950 . S
H786 C782 0.950 . S
C787 C785 1.390 . S
C787 C788 1.387 . S
C787 H790 0.950 . S
C788 C787 1.387 . S
C788 C791 1.387 . S
H789 C785 0.950 . S
H790 C787 0.950 . S
C791 C782 1.390 . S
C791 H784 0.950 . S
C791 C788 1.387 . S
C792 C793 1.387 . S
C792 H796 0.950 . S
C792 C801 1.390 . S
C793 C792 1.387 . S
C793 C795 1.387 . S
H794 C801 0.950 . S
C795 C793 1.387 . S
C795 C797 1.390 . S
C795 H799 0.950 . S
H796 C792 0.950 . S
C797 C795 1.390 . S
C797 C798 1.387 . S
C797 H800 0.950 . S
C798 C797 1.387 . S
C798 C801 1.387 . S
H799 C795 0.950 . S
H800 C797 0.950 . S
C801 C792 1.390 . S
C801 H794 0.950 . S
C801 C798 1.387 . S
C802 C803 1.387 . S
C802 H806 0.950 . S
C802 C811 1.390 . S
C803 C802 1.387 . S
C803 C805 1.387 . S
H804 C811 0.950 . S
C805 C803 1.387 . S
C805 C807 1.390 . S
C805 H809 0.950 . S
H806 C802 0.950 . S
C807 C805 1.390 . S
C807 C808 1.387 . S
C807 H810 0.950 . S
C808 C807 1.387 . S
C808 C811 1.387 . S
H809 C805 0.950 . S
H810 C807 0.950 . S
C811 C802 1.390 . S
C811 H804 0.950 . S
C811 C808 1.387 . S
C812 C813 1.387 . S
C812 H816 0.950 . S
C812 C821 1.390 . S
C813 C812 1.387 . S
C813 C815 1.387 . S
H814 C821 0.950 . S
C815 C813 1.387 . S
C815 C817 1.390 . S
C815 H819 0.950 . S
H816 C812 0.950 . S
C817 C815 1.390 . S
C817 C818 1.387 . S
C817 H820 0.950 . S
C818 C817 1.387 . S
C818 C821 1.387 . S
H819 C815 0.950 . S
H820 C817 0.950 . S
C821 C812 1.390 . S
C821 H814 0.950 . S
C821 C818 1.387 . S
C822 C823 1.387 . S
C822 H826 0.950 . S
C822 C831 1.390 . S
C823 C822 1.387 . S
C823 C825 1.387 . S
H824 C831 0.950 . S
C825 C823 1.387 . S
C825 C827 1.390 . S
C825 H829 0.950 . S
H826 C822 0.950 . S
C827 C825 1.390 . S
C827 C828 1.387 . S
C827 H830 0.950 . S
C828 C827 1.387 . S
C828 C831 1.387 . S
H829 C825 0.950 . S
H830 C827 0.950 . S
C831 C822 1.390 . S
C831 H824 0.950 . S
C831 C828 1.387 . S
C832 C833 1.387 . S
C832 H836 0.950 . S
C832 C841 1.390 . S
C833 C832 1.387 . S
C833 C835 1.387 . S
H834 C841 0.950 . S
C835 C833 1.387 . S
C835 C837 1.390 . S
C835 H839 0.950 . S
H836 C832 0.950 . S
C837 C835 1.390 . S
C837 C838 1.387 . S
C837 H840 0.950 . S
C838 C837 1.387 . S
C838 C841 1.387 . S
H839 C835 0.950 . S
H840 C837 0.950 . S
C841 C832 1.390 . S
C841 H834 0.950 . S
C841 C838 1.387 . S
C842 C843 1.387 . S
C842 H846 0.950 . S
C842 C851 1.390 . S
C843 C842 1.387 . S
C843 C845 1.387 . S
H844 C851 0.950 . S
C845 C843 1.387 . S
C845 C847 1.390 . S
C845 H849 0.950 . S
H846 C842 0.950 . S
C847 C845 1.390 . S
C847 C848 1.387 . S
C847 H850 0.950 . S
C848 C847 1.387 . S
C848 C851 1.387 . S
H849 C845 0.950 . S
H850 C847 0.950 . S
C851 C842 1.390 . S
C851 H844 0.950 . S
C851 C848 1.387 . S
C852 C853 1.387 1_455 S
C852 H856 0.950 . S
C852 C861 1.390 . S
C853 C852 1.387 1_655 S
C853 C855 1.387 . S
H854 C861 0.950 . S
C855 C853 1.387 . S
C855 C857 1.407 . S
C855 H859 0.950 . S
H856 C852 0.950 . S
C857 C855 1.407 . S
C857 C858 1.369 1_655 S
C857 H860 0.952 . S
C858 C857 1.369 1_455 S
C858 C861 1.387 . S
H859 C855 0.950 . S
H860 C857 0.952 . S
C861 C852 1.390 . S
C861 H854 0.950 . S
C861 C858 1.387 . S
C862 C863 1.387 . S
C862 H866 0.950 . S
C862 C871 1.390 . S
C863 C862 1.387 . S
C863 C865 1.387 . S
H864 C871 0.950 . S
C865 C863 1.387 . S
C865 C867 1.390 . S
C865 H869 0.950 . S
H866 C862 0.950 . S
C867 C865 1.390 . S
C867 C868 1.387 . S
C867 H870 0.950 . S
C868 C867 1.387 . S
C868 C871 1.387 . S
H869 C865 0.950 . S
H870 C867 0.950 . S
C871 C862 1.390 . S
C871 H864 0.950 . S
C871 C868 1.387 . S
C872 C873 1.387 . S
C872 H876 0.950 . S
C872 C881 1.390 1_565 S
C873 C872 1.387 . S
C873 C875 1.387 . S
H874 C881 0.950 . S
C875 C873 1.387 . S
C875 C877 1.390 1_565 S
C875 H879 0.950 . S
H876 C872 0.950 . S
C877 C875 1.390 1_545 S
C877 C878 1.387 . S
C877 H880 0.950 . S
C878 C877 1.387 . S
C878 C881 1.387 . S
H879 C875 0.950 . S
H880 C877 0.950 . S
C881 C872 1.390 1_545 S
C881 H874 0.950 . S
C881 C878 1.387 . S
C882 C883 1.406 . S
C882 H886 0.950 . S
C882 C891 1.390 . S
C883 C882 1.406 . S
C883 C885 1.374 . S
H884 C891 0.950 . S
C885 C883 1.374 . S
C885 C887 1.390 . S
C885 H889 0.929 1_545 S
H886 C882 0.950 . S
C887 C885 1.390 . S
C887 C888 1.387 . S
C887 H890 0.950 . S
C888 C887 1.387 . S
C888 C891 1.387 . S
H889 C885 0.929 1_565 S
H890 C887 0.950 . S
C891 C882 1.390 . S
C891 H884 0.950 . S
C891 C888 1.387 . S
C892 C893 1.373 1_655 S
C892 H896 0.950 . S
C892 C901 1.390 . S
C893 C892 1.373 1_455 S
C893 C895 1.405 . S
H894 C901 0.950 . S
C895 C893 1.405 . S
C895 C897 1.390 . S
C895 H899 0.950 . S
H896 C892 0.950 . S
C897 C895 1.390 . S
C897 C898 1.387 . S
C897 H900 0.950 . S
C898 C897 1.387 . S
C898 C901 1.387 1_455 S
H899 C895 0.950 . S
H900 C897 0.950 . S
C901 C892 1.390 . S
C901 H894 0.950 . S
C901 C898 1.387 1_655 S
C902 C903 1.387 . S
C902 H906 0.950 . S
C902 C911 1.390 . S
C903 C902 1.387 . S
C903 C905 1.387 . S
H904 C911 0.950 . S
C905 C903 1.387 . S
C905 C907 1.390 . S
C905 H909 0.950 . S
H906 C902 0.950 . S
C907 C905 1.390 . S
C907 C908 1.387 . S
C907 H910 0.950 . S
C908 C907 1.387 . S
C908 C911 1.387 . S
H909 C905 0.950 . S
H910 C907 0.950 . S
C911 C902 1.390 . S
C911 H904 0.950 . S
C911 C908 1.387 . S
C912 C913 1.387 . S
C912 H916 0.950 . S
C912 C921 1.390 . S
C913 C912 1.387 . S
C913 C915 1.387 . S
H914 C921 0.950 . S
C915 C913 1.387 . S
C915 C917 1.390 . S
C915 H919 0.950 . S
H916 C912 0.950 . S
C917 C915 1.390 . S
C917 C918 1.387 . S
C917 H920 0.950 . S
C918 C917 1.387 . S
C918 C921 1.387 . S
H919 C915 0.950 . S
H920 C917 0.950 . S
C921 C912 1.390 . S
C921 H914 0.950 . S
C921 C918 1.387 . S
C922 C923 1.387 . S
C922 H926 0.950 . S
C922 C931 1.390 . S
C923 C922 1.387 . S
C923 C925 1.387 . S
H924 C931 0.950 . S
C925 C923 1.387 . S
C925 C927 1.390 . S
C925 H929 0.950 . S
H926 C922 0.950 . S
C927 C925 1.390 . S
C927 C928 1.387 . S
C927 H930 0.950 . S
C928 C927 1.387 . S
C928 C931 1.387 . S
H929 C925 0.950 . S
H930 C927 0.950 . S
C931 C922 1.390 . S
C931 H924 0.950 . S
C931 C928 1.387 . S
C932 C933 1.387 . S
C932 H936 0.950 . S
C932 C941 1.390 . S
C933 C932 1.387 . S
C933 C935 1.387 . S
H934 C941 0.950 . S
C935 C933 1.387 . S
C935 C937 1.390 . S
C935 H939 0.950 . S
H936 C932 0.950 . S
C937 C935 1.390 . S
C937 C938 1.387 . S
C937 H940 0.950 . S
C938 C937 1.387 . S
C938 C941 1.387 . S
H939 C935 0.950 . S
H940 C937 0.950 . S
C941 C932 1.390 . S
C941 H934 0.950 . S
C941 C938 1.387 . S
C942 C943 1.387 . S
C942 H946 0.950 . S
C942 C951 1.390 . S
C943 C942 1.387 . S
C943 C945 1.387 . S
H944 C951 0.950 . S
C945 C943 1.387 . S
C945 C947 1.390 . S
C945 H949 0.950 . S
H946 C942 0.950 . S
C947 C945 1.390 . S
C947 C948 1.387 . S
C947 H950 0.950 . S
C948 C947 1.387 . S
C948 C951 1.387 . S
H949 C945 0.950 . S
H950 C947 0.950 . S
C951 C942 1.390 . S
C951 H944 0.950 . S
C951 C948 1.387 . S
C952 C953 1.387 . S
C952 H956 0.950 . S
C952 C961 1.390 . S
C953 C952 1.387 . S
C953 C955 1.387 . S
H954 C961 0.950 . S
C955 C953 1.387 . S
C955 C957 1.390 . S
C955 H959 0.950 . S
H956 C952 0.950 . S
C957 C955 1.390 . S
C957 C958 1.387 . S
C957 H960 0.950 . S
C958 C957 1.387 . S
C958 C961 1.387 . S
H959 C955 0.950 . S
H960 C957 0.950 . S
C961 C952 1.390 . S
C961 H954 0.950 . S
C961 C958 1.387 . S
C962 C963 1.387 . S
C962 H966 0.950 . S
C962 C971 1.390 . S
C963 C962 1.387 . S
C963 C965 1.387 . S
H964 C971 0.950 . S
C965 C963 1.387 . S
C965 C967 1.390 . S
C965 H969 0.950 . S
H966 C962 0.950 . S
C967 C965 1.390 . S
C967 C968 1.387 . S
C967 H970 0.950 . S
C968 C967 1.387 . S
C968 C971 1.387 . S
H969 C965 0.950 . S
H970 C967 0.950 . S
C971 C962 1.390 . S
C971 H964 0.950 . S
C971 C968 1.387 . S
C972 C973 1.387 . S
C972 H976 0.950 . S
C972 C981 1.390 1_564 S
C973 C972 1.387 . S
C973 C975 1.387 . S
H974 C981 0.950 . S
C975 C973 1.387 . S
C975 C977 1.390 1_564 S
C975 H979 0.950 . S
H976 C972 0.950 . S
C977 C975 1.390 1_546 S
C977 C978 1.387 . S
C977 H980 0.950 . S
C978 C977 1.387 . S
C978 C981 1.387 . S
H979 C975 0.950 . S
H980 C977 0.950 . S
C981 C972 1.390 1_546 S
C981 H974 0.950 . S
C981 C978 1.387 . S
C982 C983 1.387 . S
C982 H986 0.950 . S
C982 C991 1.390 1_554 S
C983 C982 1.387 . S
C983 C985 1.396 . S
H984 C991 0.950 . S
C985 C983 1.396 . S
C985 C987 1.372 1_454 S
C985 H989 0.961 1_455 S
H986 C982 0.950 . S
C987 C985 1.372 1_656 S
C987 C988 1.387 . S
C987 H990 0.950 . S
C988 C987 1.387 . S
C988 C991 1.387 1_655 S
H989 C985 0.961 1_655 S
H990 C987 0.950 . S
C991 C982 1.390 1_556 S
C991 H984 0.950 . S
C991 C988 1.387 1_455 S
C992 C993 1.387 . S
C992 H996 0.950 . S
C992 C1001 1.390 1_556 S
C993 C992 1.387 . S
C993 C995 1.387 . S
H994 C1001 0.950 . S
C995 C993 1.387 . S
C995 C997 1.390 1_556 S
C995 H999 0.950 . S
H996 C992 0.950 . S
C997 C995 1.390 1_554 S
C997 C998 1.387 . S
C997 H1000 0.950 . S
C998 C997 1.387 . S
C998 C1001 1.387 . S
H999 C995 0.950 . S
H1000 C997 0.950 . S
C1001 C992 1.390 1_554 S
C1001 H994 0.950 . S
C1001 C998 1.387 . S
C1002 C1003 1.387 . S
C1002 H1006 0.950 . S
C1002 C1011 1.390 . S
C1003 C1002 1.387 . S
C1003 C1005 1.387 . S
H1004 C1011 0.950 . S
C1005 C1003 1.387 . S
C1005 C1007 1.390 . S
C1005 H1009 0.950 . S
H1006 C1002 0.950 . S
C1007 C1005 1.390 . S
C1007 C1008 1.387 . S
C1007 H1010 0.950 . S
C1008 C1007 1.387 . S
C1008 C1011 1.387 . S
H1009 C1005 0.950 . S
H1010 C1007 0.950 . S
C1011 C1002 1.390 . S
C1011 H1004 0.950 . S
C1011 C1008 1.387 . S
C1012 C1013 1.387 . S
C1012 H1016 0.950 . S
C1012 C1021 1.390 . S
C1013 C1012 1.387 . S
C1013 C1015 1.387 . S
H1014 C1021 0.950 . S
C1015 C1013 1.387 . S
C1015 C1017 1.390 . S
C1015 H1019 0.950 . S
H1016 C1012 0.950 . S
C1017 C1015 1.390 . S
C1017 C1018 1.387 . S
C1017 H1020 0.950 . S
C1018 C1017 1.387 . S
C1018 C1021 1.387 . S
H1019 C1015 0.950 . S
H1020 C1017 0.950 . S
C1021 C1012 1.390 . S
C1021 H1014 0.950 . S
C1021 C1018 1.387 . S
C1022 C1023 1.387 . S
C1022 H1026 0.950 . S
C1022 C1031 1.390 . S
C1023 C1022 1.387 . S
C1023 C1025 1.387 . S
H1024 C1031 0.950 . S
C1025 C1023 1.387 . S
C1025 C1027 1.390 . S
C1025 H1029 0.950 . S
H1026 C1022 0.950 . S
C1027 C1025 1.390 . S
C1027 C1028 1.387 . S
C1027 H1030 0.950 . S
C1028 C1027 1.387 . S
C1028 C1031 1.387 . S
H1029 C1025 0.950 . S
H1030 C1027 0.950 . S
C1031 C1022 1.390 . S
C1031 H1024 0.950 . S
C1031 C1028 1.387 . S
C1032 C1033 1.387 . S
C1032 H1036 0.950 . S
C1032 C1041 1.390 . S
C1033 C1032 1.387 . S
C1033 C1035 1.387 . S
H1034 C1041 0.950 . S
C1035 C1033 1.387 . S
C1035 C1037 1.390 . S
C1035 H1039 0.950 . S
H1036 C1032 0.950 . S
C1037 C1035 1.390 . S
C1037 C1038 1.387 . S
C1037 H1040 0.950 . S
C1038 C1037 1.387 . S
C1038 C1041 1.387 . S
H1039 C1035 0.950 . S
H1040 C1037 0.950 . S
C1041 C1032 1.390 . S
C1041 H1034 0.950 . S
C1041 C1038 1.387 . S
C1042 C1043 1.387 . S
C1042 H1046 0.950 . S
C1042 C1051 1.390 . S
C1043 C1042 1.387 . S
C1043 C1045 1.387 . S
H1044 C1051 0.950 . S
C1045 C1043 1.387 . S
C1045 C1047 1.390 . S
C1045 H1049 0.950 . S
H1046 C1042 0.950 . S
C1047 C1045 1.390 . S
C1047 C1048 1.387 . S
C1047 H1050 0.950 . S
C1048 C1047 1.387 . S
C1048 C1051 1.387 . S
H1049 C1045 0.950 . S
H1050 C1047 0.950 . S
C1051 C1042 1.390 . S
C1051 H1044 0.950 . S
C1051 C1048 1.387 . S
C1052 C1053 1.387 . S
C1052 H1056 0.950 . S
C1052 C1061 1.390 . S
C1053 C1052 1.387 . S
C1053 C1055 1.387 . S
H1054 C1061 0.950 . S
C1055 C1053 1.387 . S
C1055 C1057 1.390 . S
C1055 H1059 0.950 . S
H1056 C1052 0.950 . S
C1057 C1055 1.390 . S
C1057 C1058 1.387 . S
C1057 H1060 0.950 . S
C1058 C1057 1.387 . S
C1058 C1061 1.387 . S
H1059 C1055 0.950 . S
H1060 C1057 0.950 . S
C1061 C1052 1.390 . S
C1061 H1054 0.950 . S
C1061 C1058 1.387 . S
C613 C33 1.305 . S
C618 C39 1.309 . S
C623 C73 1.306 . S
C628 C67 1.303 . S
C633 C101 1.305 . S
C638 C5 1.305 . S
C643 C175 1.306 . S
C648 C135 1.309 . S
C653 C107 1.305 . S
C658 C169 1.305 . S
C663 C203 1.305 . S
C668 C141 1.306 . S
C673 C243 1.305 . S
C678 C237 1.305 . S
C683 C271 1.305 . S
C688 C277 1.305 . S
C693 C305 1.304 . S
C698 C209 1.306 . S
C703 C379 1.305 . S
C708 C339 1.305 . S
C713 C311 1.305 . S
C718 C373 1.305 . S
C723 C407 1.305 . S
C728 C345 1.305 . S
C733 C447 1.305 . S
C738 C441 1.305 . S
C743 C475 1.305 . S
C748 C481 1.305 . S
C753 C509 1.305 . S
C758 C413 1.305 . S
C763 C583 1.306 . S
C768 C543 1.304 . S
C773 C515 1.306 . S
C778 C577 1.304 . S
C783 C611 1.305 . S
C788 C549 1.305 . S
C793 C349 1.634 . S
C798 C9 1.636 . S
C803 C383 1.635 . S
C808 C43 1.633 . S
C813 C315 1.632 . S
C818 C77 1.632 . S
C823 C111 1.632 . S
C828 C485 1.632 . S
C833 C417 1.635 . S
C838 C145 1.633 . S
C843 C451 1.632 . S
C848 C179 1.628 . S
C853 C213 1.632 . S
C858 C553 1.634 . S
C863 C587 1.636 . S
C868 C247 1.635 . S
C873 C519 1.635 . S
C878 C281 1.635 . S
C883 C2 1.613 1_545 S
C888 C172 1.611 . S
C893 C104 1.613 1_455 S
C898 C36 1.612 . S
C903 C138 1.612 . S
C908 C70 1.611 . S
C913 C376 1.612 . S
C918 C206 1.613 . S
C923 C308 1.613 . S
C928 C240 1.612 . S
C933 C274 1.612 . S
C938 C342 1.613 . S
C943 C580 1.611 . S
C948 C410 1.611 . S
C953 C444 1.613 . S
C958 C512 1.612 . S
C963 C546 1.613 . S
C968 C478 1.613 . S
C973 C20 1.229 . S
C978 C190 1.229 . S
C983 C54 1.225 . S
C988 C122 1.224 . S
C993 C156 1.229 . S
C998 C88 1.230 . S
C1003 C394 1.225 . S
C1008 C224 1.225 . S
C1013 C326 1.230 . S
C1018 C258 1.229 . S
C1023 C360 1.226 . S
C1028 C292 1.225 . S
C1033 C428 1.225 . S
C1038 C598 1.225 . S
C1043 C462 1.226 . S
C1048 C530 1.225 . S
C1053 C564 1.229 . S
C1058 C496 1.230 . S
