# Generated by pormake.
# Topology can, (4)-cn, num edge types: 1
# Building blocks:
#     Node 0, Type 0, BuildingBlock: ICAMEG_clean_sbu_1, # of connection points: 4
#     Node 1, Type 0, BuildingBlock: ICAMEG_clean_sbu_1, # of connection points: 4
#     Node 2, Type 0, BuildingBlock: ICAMEG_clean_sbu_1, # of connection points: 4
#     Node 3, Type 0, BuildingBlock: ICAMEG_clean_sbu_1, # of connection points: 4
#     Node 4, Type 0, BuildingBlock: ICAMEG_clean_sbu_1, # of connection points: 4
#     Node 5, Type 0, BuildingBlock: ICAMEG_clean_sbu_1, # of connection points: 4
#     Node 6, Type 0, BuildingBlock: ICAMEG_clean_sbu_1, # of connection points: 4
#     Node 7, Type 0, BuildingBlock: ICAMEG_clean_sbu_1, # of connection points: 4
#     Node 8, Type 0, BuildingBlock: ICAMEG_clean_sbu_1, # of connection points: 4
#     Node 9, Type 0, BuildingBlock: ICAMEG_clean_sbu_1, # of connection points: 4
#     Node 10, Type 0, BuildingBlock: ICAMEG_clean_sbu_1, # of connection points: 4
#     Node 11, Type 0, BuildingBlock: ICAMEG_clean_sbu_1, # of connection points: 4
#     Edge 12, Type (0, 0), BuildingBlock: AJUNOK_clean_linker_0, # of connection points: 2
#     Edge 13, Type (0, 0), BuildingBlock: AJUNOK_clean_linker_0, # of connection points: 2
#     Edge 14, Type (0, 0), BuildingBlock: AJUNOK_clean_linker_0, # of connection points: 2
#     Edge 15, Type (0, 0), BuildingBlock: AJUNOK_clean_linker_0, # of connection points: 2
#     Edge 16, Type (0, 0), BuildingBlock: AJUNOK_clean_linker_0, # of connection points: 2
#     Edge 17, Type (0, 0), BuildingBlock: AJUNOK_clean_linker_0, # of connection points: 2
#     Edge 18, Type (0, 0), BuildingBlock: AJUNOK_clean_linker_0, # of connection points: 2
#     Edge 19, Type (0, 0), BuildingBlock: AJUNOK_clean_linker_0, # of connection points: 2
#     Edge 20, Type (0, 0), BuildingBlock: AJUNOK_clean_linker_0, # of connection points: 2
#     Edge 21, Type (0, 0), BuildingBlock: AJUNOK_clean_linker_0, # of connection points: 2
#     Edge 22, Type (0, 0), BuildingBlock: AJUNOK_clean_linker_0, # of connection points: 2
#     Edge 23, Type (0, 0), BuildingBlock: AJUNOK_clean_linker_0, # of connection points: 2
#     Edge 24, Type (0, 0), BuildingBlock: AJUNOK_clean_linker_0, # of connection points: 2
#     Edge 25, Type (0, 0), BuildingBlock: AJUNOK_clean_linker_0, # of connection points: 2
#     Edge 26, Type (0, 0), BuildingBlock: AJUNOK_clean_linker_0, # of connection points: 2
#     Edge 27, Type (0, 0), BuildingBlock: AJUNOK_clean_linker_0, # of connection points: 2
#     Edge 28, Type (0, 0), BuildingBlock: AJUNOK_clean_linker_0, # of connection points: 2
#     Edge 29, Type (0, 0), BuildingBlock: AJUNOK_clean_linker_0, # of connection points: 2
#     Edge 30, Type (0, 0), BuildingBlock: AJUNOK_clean_linker_0, # of connection points: 2
#     Edge 31, Type (0, 0), BuildingBlock: AJUNOK_clean_linker_0, # of connection points: 2
#     Edge 32, Type (0, 0), BuildingBlock: AJUNOK_clean_linker_0, # of connection points: 2
#     Edge 33, Type (0, 0), BuildingBlock: AJUNOK_clean_linker_0, # of connection points: 2
#     Edge 34, Type (0, 0), BuildingBlock: AJUNOK_clean_linker_0, # of connection points: 2
#     Edge 35, Type (0, 0), BuildingBlock: AJUNOK_clean_linker_0, # of connection points: 2
# Relax obj value: 0.060
# Max RMSD: 0.076
# Mean RMSD: 0.076
data_MOF--net-can--node1-ICAMEG_clean_sbu_1--edge1-AJUNOK_clean_linker_0
_symmetry_space_group_name_H-M    P1
_symmetry_Int_Tables_number       1
_symmetry_cell_setting            triclinic
loop_
_symmetry_equiv_pos_as_xyz
'x, y, z'
_cell_length_a     42.366065
_cell_length_b     42.388484
_cell_length_c     22.588735
_cell_angle_alpha  89.972467
_cell_angle_beta   90.031385
_cell_angle_gamma 120.01354
loop_
_atom_site_label
_atom_site_type_symbol
_atom_site_fract_x
_atom_site_fract_y
_atom_site_fract_z
_atom_type_partial_charge
Co0 Co 0.02492 0.38204 0.25089 0.0
Co1 Co 0.10915 0.44697 0.20332 0.0
O2 O 0.07822 0.40732 0.25786 0.0
C3 C 0.03739 0.40099 0.3769 0.0
O4 O 0.06389 0.43313 0.36071 0.0
C5 C 0.14807 0.40374 0.21988 0.0
O6 O 0.11699 0.37304 0.21547 0.0
O7 O 0.08638 0.41307 0.13461 0.0
O8 O 0.02785 0.38679 0.1624 0.0
H9 H 0.13351 0.52427 0.02163 0.0
H10 H 0.05898 0.3471 0.3184 0.0
O11 O 0.01984 0.37637 0.33859 0.0
H12 H 0.98879 0.26006 0.15978 0.0
H13 H 0.89637 0.28641 0.30247 0.0
H14 H 0.97329 0.39503 0.18112 0.0
H15 H 0.98902 0.31812 0.16906 0.0
H16 H 0.96341 0.31697 0.30871 0.0
O17 O 0.14901 0.43402 0.21154 0.0
H18 H 0.09564 0.47521 0.09173 0.0
H19 H 0.1887 0.50189 0.1972 0.0
H20 H 0.90634 0.36505 0.17292 0.0
H21 H 0.05918 0.2891 0.31125 0.0
H22 H 0.86741 0.31036 0.23398 0.0
H23 H 0.02398 0.24517 0.23135 0.0
O24 O 0.0264 0.42938 0.25902 0.0
H25 H 0.16466 0.48318 0.40642 0.0
H26 H 0.12476 0.5225 0.2301 0.0
H27 H 0.15013 0.56396 0.31539 0.0
H28 H 0.17047 0.54447 0.40431 0.0
H29 H 0.13837 0.44222 0.32062 0.0
H30 H 0.22768 0.55101 0.12791 0.0
H31 H 0.20007 0.56262 0.0395 0.0
O32 O 0.07162 0.46281 0.1959 0.0
C33 C 0.05222 0.39497 0.12277 0.0
C34 C 0.14588 0.51951 0.06001 0.0
C35 C 0.19873 0.53446 0.11957 0.0
N36 N 0.13991 0.48557 0.14854 0.0
C37 C 0.12455 0.49177 0.09994 0.0
C38 C 0.17654 0.50643 0.15852 0.0
C39 C 0.18322 0.54099 0.07002 0.0
C40 C 0.0434 0.32798 0.28379 0.0
N41 N 0.02406 0.33599 0.24418 0.0
C42 C 0.0437 0.29525 0.27984 0.0
C43 C 0.02399 0.27064 0.23495 0.0
C44 C 1.00428 0.27899 0.19474 0.0
C45 C 1.00464 0.312 0.20004 0.0
C46 C 0.91303 0.31016 0.27551 0.0
C47 C 0.95652 0.37109 0.20749 0.0
C48 C 0.95101 0.32761 0.27893 0.0
N49 N 0.97222 0.3576 0.24497 0.0
C50 C 0.91863 0.35429 0.2028 0.0
C51 C 0.89681 0.32362 0.23709 0.0
C52 C 0.04557 0.45843 0.22963 0.0
C53 C 0.15602 0.49204 0.36785 0.0
C54 C 0.13333 0.51366 0.2687 0.0
C55 C 0.14779 0.53735 0.31683 0.0
C56 C 0.15922 0.5264 0.36668 0.0
N57 N 0.13022 0.47995 0.27015 0.0
C58 C 0.14131 0.46903 0.31895 0.0
Co59 Co 0.64889 0.01176 0.76527 0.0
Co60 Co 0.67801 0.09687 0.70816 0.0
O61 O 0.68166 0.06469 0.76686 0.0
C62 C 0.64607 0.03107 0.88929 0.0
O63 O 0.64316 0.05864 0.8697 0.0
C64 C 0.75843 0.13189 0.7424 0.0
O65 O 0.75129 0.10448 0.77747 0.0
O66 O 0.68314 0.06776 0.64273 0.0
O67 O 0.6465 1.01126 0.67653 0.0
H68 H 0.63105 0.12288 0.52093 0.0
H69 H 0.71719 0.04026 0.83417 0.0
O70 O 0.64963 1.01 0.85338 0.0
H71 H 0.72411 0.95985 0.68348 0.0
H72 H 0.60335 0.88249 0.83098 0.0
H73 H 0.58061 0.9626 0.70117 0.0
H74 H 0.67042 0.96774 0.68926 0.0
H75 H 0.64557 0.94889 0.83049 0.0
O76 O 0.73323 0.13138 0.7102 0.0
H77 H 0.63572 0.0839 0.59739 0.0
H78 H 0.71385 0.17749 0.69118 0.0
H79 H 0.5378 0.89632 0.69995 0.0
H80 H 0.77132 0.03288 0.83056 0.0
H81 H 0.54911 0.85577 0.76511 0.0
H82 H 0.77509 0.99253 0.75462 0.0
O83 O 0.60657 0.01943 0.77022 0.0
H84 H 0.70374 0.15974 0.90709 0.0
H85 H 0.62763 0.12564 0.72746 0.0
H86 H 0.61713 0.15883 0.80712 0.0
H87 H 0.6555 0.17641 0.89769 0.0
H88 H 0.71269 0.12579 0.82736 0.0
H89 H 0.71035 0.21748 0.61532 0.0
H90 H 0.66856 0.19021 0.5296 0.0
O91 O 0.62303 0.06504 0.70522 0.0
C92 C 0.66373 0.03333 0.63447 0.0
C93 C 0.64929 0.1351 0.55815 0.0
C94 C 0.69384 0.18819 0.61108 0.0
N95 N 0.67486 0.12837 0.64889 0.0
C96 C 0.65198 0.11316 0.60168 0.0
C97 C 0.69581 0.16539 0.65378 0.0
C98 C 0.67037 0.17287 0.56302 0.0
C99 C 0.71862 0.02266 0.80101 0.0
N100 N 0.69085 1.00487 0.76141 0.0
C101 C 0.74935 0.01859 0.79917 0.0
C102 C 0.75146 0.99597 0.75654 0.0
C103 C 0.72291 0.97769 0.71656 0.0
C104 C 0.69264 0.98247 0.71971 0.0
C105 C 0.59822 0.89985 0.80217 0.0
C106 C 0.5858 0.9451 0.72942 0.0
C107 C 0.62203 0.93746 0.80169 0.0
N108 N 0.61586 0.95951 0.76511 0.0
C109 C 0.56142 0.90761 0.72865 0.0
C110 C 0.56778 0.88488 0.76524 0.0
C111 C 0.59957 0.04025 0.73924 0.0
C112 C 0.68717 0.15269 0.86749 0.0
C113 C 0.64467 0.13325 0.76648 0.0
C114 C 0.63851 0.15207 0.81154 0.0
C115 C 0.66002 0.16191 0.86231 0.0
N116 N 0.67161 0.12451 0.77146 0.0
C117 C 0.6925 0.13379 0.82153 0.0
Co118 Co 0.64614 0.64963 0.26314 0.0
Co119 Co 0.58173 0.66674 0.20544 0.0
O120 O 0.62009 0.67698 0.26371 0.0
C121 C 0.62363 0.64495 0.38723 0.0
O122 O 0.59161 0.63796 0.36768 0.0
C123 C 0.62405 0.7488 0.21997 0.0
O124 O 0.6544 0.74772 0.22374 0.0
O125 O 0.61731 0.67688 0.1397 0.0
O126 O 0.64385 0.64624 0.17432 0.0
H127 H 0.51076 0.61145 0.0188 0.0
H128 H 0.6784 0.71942 0.32822 0.0
O129 O 0.64929 0.65172 0.35121 0.0
H130 H 0.77047 0.7358 0.17934 0.0
H131 H 0.742 0.62022 0.32984 0.0
H132 H 0.63525 0.58347 0.20083 0.0
H133 H 0.71262 0.67764 0.18691 0.0
H134 H 0.71032 0.65571 0.32825 0.0
O135 O 0.59413 0.7196 0.20861 0.0
H136 H 0.55813 0.62456 0.09359 0.0
H137 H 0.52439 0.68766 0.19239 0.0
H138 H 0.66626 0.54734 0.20067 0.0
H139 H 0.73617 0.77796 0.32292 0.0
H140 H 0.7201 0.56572 0.26546 0.0
H141 H 0.78263 0.78648 0.24786 0.0
O142 O 0.59897 0.60348 0.27012 0.0
H143 H 0.54053 0.68982 0.40145 0.0
H144 H 0.50615 0.60628 0.23116 0.0
H145 H 0.46309 0.59118 0.31391 0.0
H146 H 0.48012 0.63315 0.39982 0.0
H147 H 0.58313 0.70352 0.31832 0.0
H148 H 0.47694 0.6757 0.1183 0.0
H149 H 0.46973 0.63712 0.03086 0.0
O150 O 0.56652 0.61342 0.20219 0.0
C151 C 0.63607 0.66109 0.13184 0.0
C152 C 0.51367 0.62838 0.05661 0.0
C153 C 0.49474 0.66449 0.11238 0.0
N154 N 0.54432 0.65722 0.14708 0.0
C155 C 0.54049 0.63594 0.09912 0.0
C156 C 0.52188 0.67146 0.15397 0.0
C157 C 0.49068 0.6428 0.06339 0.0
C158 C 0.69861 0.72284 0.29576 0.0
N159 N 0.69204 0.69517 0.2577 0.0
C160 C 0.73121 0.75609 0.29282 0.0
C161 C 0.75724 0.76087 0.25064 0.0
C162 C 0.75041 0.73248 0.21212 0.0
C163 C 0.71747 0.69964 0.21632 0.0
C164 C 0.71868 0.61204 0.30121 0.0
C165 C 0.65878 0.59174 0.22889 0.0
C166 C 0.70063 0.63202 0.30013 0.0
N167 N 0.67131 0.62198 0.26378 0.0
C168 C 0.67617 0.57112 0.22873 0.0
C169 C 0.70637 0.58144 0.26511 0.0
C170 C 0.57062 0.59259 0.23835 0.0
C171 C 0.53274 0.67139 0.36415 0.0
C172 C 0.51393 0.62463 0.26847 0.0
C173 C 0.48933 0.61597 0.31513 0.0
C174 C 0.49888 0.63955 0.36328 0.0
N175 N 0.5472 0.65586 0.26968 0.0
C176 C 0.55668 0.67913 0.31672 0.0
Co177 Co 1.01512 0.64016 0.75393 0.0
Co178 Co 0.92753 0.58428 0.70649 0.0
O179 O 0.96246 0.62145 0.76111 0.0
C180 C 1.00122 0.62263 0.88057 0.0
O181 O 0.97205 0.59209 0.8654 0.0
C182 C 0.89449 0.63122 0.74219 0.0
O183 O 0.9229 0.65203 0.77513 0.0
O184 O 0.95444 0.61655 0.63778 0.0
O185 O 1.01183 0.6353 0.66561 0.0
H186 H 0.89336 0.5062 0.52407 0.0
H187 H 0.99091 0.68375 0.82226 0.0
O188 O 0.0208 0.64577 0.84155 0.0
H189 H 0.06681 0.76444 0.66097 0.0
H190 H 0.14747 0.72259 0.80487 0.0
H191 H 0.06014 0.61777 0.68497 0.0
H192 H 0.05733 0.70239 0.67088 0.0
H193 H 0.08152 0.70041 0.81109 0.0
O194 O 0.89378 0.60577 0.71064 0.0
H195 H 0.93559 0.55142 0.59587 0.0
H196 H 0.84624 0.5402 0.69761 0.0
H197 H 0.1259 0.63932 0.67685 0.0
H198 H 0.99994 0.74579 0.81441 0.0
H199 H 0.17006 0.69207 0.73716 0.0
H200 H 0.03805 0.78657 0.73316 0.0
O201 O 1.00627 0.58985 0.76217 0.0
H202 H 0.87285 0.5538 0.91173 0.0
H203 H 0.89742 0.50525 0.73025 0.0
H204 H 0.86601 0.46393 0.81356 0.0
H205 H 0.85313 0.48801 0.90504 0.0
H206 H 0.90508 0.59422 0.82828 0.0
H207 H 0.80303 0.49514 0.62651 0.0
H208 H 0.82653 0.47772 0.53914 0.0
O209 O 0.95832 0.56015 0.70166 0.0
C210 C 0.98839 0.63049 0.626 0.0
C211 C 0.88277 0.51348 0.56205 0.0
C212 C 0.83209 0.50734 0.61948 0.0
N213 N 0.89345 0.54835 0.65106 0.0
C214 C 0.90656 0.539 0.60297 0.0
C215 C 0.8567 0.533 0.65946 0.0
C216 C 0.84529 0.49755 0.57049 0.0
C217 C 1.00754 0.70136 0.78683 0.0
N218 N 0.02325 0.68931 0.74675 0.0
C219 C 1.01255 0.73645 0.78259 0.0
C220 C 0.03391 0.7593 0.73698 0.0
C221 C 0.05001 0.74689 0.69641 0.0
C222 C 0.04436 0.71161 0.70203 0.0
C223 C 0.12851 0.69965 0.77823 0.0
C224 C 0.07921 0.64091 0.71103 0.0
C225 C 0.09113 0.68693 0.78163 0.0
N226 N 0.06703 0.658 0.74806 0.0
C227 C 0.11641 0.65292 0.70637 0.0
C228 C 0.14117 0.68251 0.74025 0.0
C229 C 0.98369 0.56138 0.7341 0.0
C230 C 0.87774 0.54283 0.87176 0.0
C231 C 0.89182 0.51608 0.76964 0.0
C232 C 0.87403 0.49246 0.8168 0.0
C233 C 0.86683 0.50597 0.86808 0.0
N234 N 0.90198 0.55219 0.77304 0.0
C235 C 0.89555 0.56564 0.82372 0.0
Co236 Co 0.37922 1.00584 0.2567 0.0
Co237 Co 0.36183 0.92238 0.20865 0.0
O238 O 0.35138 0.95243 0.26261 0.0
C239 C 0.3814 0.99199 0.38353 0.0
O240 O 0.38451 0.9638 0.36869 0.0
C241 C 0.27954 0.8821 0.22327 0.0
O242 O 0.27951 0.91302 0.22066 0.0
O243 O 0.35121 0.94524 0.13953 0.0
O244 O 0.38317 1.0035 0.16845 0.0
H245 H 0.41804 0.90092 0.02842 0.0
H246 H 0.30873 0.97129 0.31983 0.0
O247 O 0.37677 1.01071 0.34418 0.0
H248 H 0.2951 0.04182 0.15819 0.0
H249 H 0.41038 0.13392 0.30762 0.0
H250 H 0.44546 0.05799 0.1909 0.0
H251 H 0.35286 0.04186 0.17182 0.0
H252 H 0.37395 0.06688 0.31264 0.0
O253 O 0.30914 0.88174 0.21437 0.0
H254 H 0.40494 0.93752 0.0983 0.0
H255 H 0.33948 0.84342 0.20205 0.0
H256 H 0.48245 0.12495 0.184 0.0
H257 H 0.25055 0.97082 0.30832 0.0
H258 H 0.46498 0.16339 0.24273 0.0
H259 H 0.24345 1.00619 0.22687 0.0
O260 O 0.42487 1.00444 0.26863 0.0
H261 H 0.33975 0.86455 0.41034 0.0
H262 H 0.42246 0.90829 0.23848 0.0
H263 H 0.43799 0.88306 0.32462 0.0
H264 H 0.39643 0.86082 0.41133 0.0
H265 H 0.32575 0.89095 0.32393 0.0
H266 H 0.35166 0.80573 0.13313 0.0
H267 H 0.39139 0.83451 0.04568 0.0
O268 O 0.41519 0.96075 0.20369 0.0
C269 C 0.36744 0.97944 0.12823 0.0
C270 C 0.40072 0.88805 0.06639 0.0
C271 C 0.3634 0.83463 0.12507 0.0
N272 N 0.37136 0.89264 0.15424 0.0
C273 C 0.39319 0.90865 0.10617 0.0
C274 C 0.35641 0.85608 0.16382 0.0
C275 C 0.38572 0.8508 0.07606 0.0
C276 C 0.30589 0.98695 0.28459 0.0
N277 N 0.33411 1.00652 0.24653 0.0
C278 C 0.27287 0.98649 0.27815 0.0
C279 C 0.26889 1.0063 0.23239 0.0
C280 C 0.29784 0.02626 0.1938 0.0
C281 C 0.33043 0.02604 0.20157 0.0
C282 C 0.41821 0.11748 0.28167 0.0
C283 C 0.43755 0.07455 0.21622 0.0
C284 C 0.39771 0.0795 0.2844 0.0
N285 N 0.40741 0.05856 0.25169 0.0
C286 C 0.45865 0.11244 0.21228 0.0
C287 C 0.44884 0.13399 0.24528 0.0
C288 C 0.43568 0.98584 0.23989 0.0
C289 C 0.35804 0.87408 0.37277 0.0
C290 C 0.40431 0.89896 0.27615 0.0
C291 C 0.41321 0.88453 0.32474 0.0
C292 C 0.38987 0.87204 0.37334 0.0
N293 N 0.37316 0.90114 0.27602 0.0
C294 C 0.35011 0.88883 0.32349 0.0
Co295 Co 0.38759 0.3738 0.76543 0.0
Co296 Co 0.44931 0.35368 0.70622 0.0
O297 O 0.41153 0.34438 0.76518 0.0
C298 C 0.40785 0.37531 0.89045 0.0
O299 O 0.43966 0.38085 0.87238 0.0
C300 C 0.40575 0.27161 0.72281 0.0
O301 O 0.3757 0.27314 0.72796 0.0
O302 O 0.41351 0.34476 0.64128 0.0
O303 O 0.39079 0.37862 0.67672 0.0
H304 H 0.51898 0.40775 0.51813 0.0
H305 H 0.35173 0.30287 0.82734 0.0
O306 O 0.38327 0.37036 0.8533 0.0
H307 H 0.26292 0.2937 0.67734 0.0
H308 H 0.29533 0.40821 0.83208 0.0
H309 H 0.40278 0.44232 0.70626 0.0
H310 H 0.32221 0.35007 0.68769 0.0
H311 H 0.32404 0.36995 0.82935 0.0
O312 O 0.43554 0.30036 0.70904 0.0
H313 H 0.47308 0.39622 0.59474 0.0
H314 H 0.50493 0.33054 0.69051 0.0
H315 H 0.3748 0.48125 0.70734 0.0
H316 H 0.29246 0.24607 0.81923 0.0
H317 H 0.32061 0.4642 0.7705 0.0
H318 H 0.24764 0.24118 0.74359 0.0
O319 O 0.43599 0.41832 0.77462 0.0
H320 H 0.49016 0.32868 0.90114 0.0
H321 H 0.52612 0.41206 0.73033 0.0
H322 H 0.56961 0.42562 0.81195 0.0
H323 H 0.5518 0.38369 0.89811 0.0
H324 H 0.44718 0.31655 0.81915 0.0
H325 H 0.55093 0.34094 0.61467 0.0
H326 H 0.55832 0.37998 0.52773 0.0
O327 O 0.46609 0.40745 0.70373 0.0
C328 C 0.39665 0.36254 0.6339 0.0
C329 C 0.51596 0.39059 0.55568 0.0
C330 C 0.53383 0.35304 0.60978 0.0
N331 N 0.48595 0.3623 0.64684 0.0
C332 C 0.48996 0.38391 0.59923 0.0
C333 C 0.5075 0.34695 0.65241 0.0
C334 C 0.538 0.37499 0.56109 0.0
C335 C 0.33225 0.30103 0.79462 0.0
N336 N 0.34054 0.32971 0.7578 0.0
C337 C 0.29879 0.26876 0.7901 0.0
C338 C 0.27368 0.26601 0.7476 0.0
C339 C 0.28226 0.29544 0.71035 0.0
C340 C 0.316 0.32725 0.71613 0.0
C341 C 0.31882 0.41583 0.80416 0.0
C342 C 0.3791 0.43465 0.73363 0.0
C343 C 0.33519 0.39428 0.80242 0.0
N344 N 0.36471 0.40361 0.76695 0.0
C345 C 0.36343 0.45683 0.73417 0.0
C346 C 0.33304 0.44726 0.76963 0.0
C347 C 0.46387 0.42837 0.74207 0.0
C348 C 0.4983 0.34707 0.86372 0.0
C349 C 0.51801 0.39374 0.76774 0.0
C350 C 0.54285 0.40152 0.81377 0.0
C351 C 0.53285 0.37798 0.86206 0.0
N352 N 0.48407 0.36341 0.7697 0.0
C353 C 0.47413 0.34021 0.81692 0.0
Co354 Co 0.64563 1.00486 0.26261 0.0
Co355 Co 0.58047 0.921 0.31105 0.0
O356 O 0.61989 0.95156 0.2559 0.0
C357 C 0.62555 0.99194 0.13711 0.0
O358 O 0.59356 0.96557 0.15421 0.0
C359 C 0.62317 0.88176 0.2939 0.0
O360 O 0.65396 0.91279 0.29787 0.0
O361 O 0.61491 0.9436 0.37901 0.0
O362 O 0.64147 1.00212 0.35125 0.0
H363 H 0.50499 0.89774 0.49463 0.0
H364 H 0.67977 0.97037 0.19422 0.0
O365 O 0.6506 1.00969 0.17473 0.0
H366 H 0.76797 0.04017 0.35179 0.0
H367 H 0.7415 0.13294 0.20925 0.0
H368 H 0.63374 0.05696 0.33295 0.0
H369 H 0.71003 0.04037 0.34357 0.0
H370 H 0.71043 0.06589 0.20343 0.0
O371 O 0.59297 0.88092 0.30261 0.0
H372 H 0.55362 0.9351 0.42353 0.0
H373 H 0.52482 0.84172 0.31786 0.0
H374 H 0.66425 0.12392 0.34073 0.0
H375 H 0.73762 0.96974 0.20034 0.0
H376 H 0.71851 0.16238 0.2785 0.0
H377 H 0.78213 1.00475 0.2797 0.0
O378 O 0.59847 1.00379 0.25531 0.0
H379 H 0.54227 0.86465 0.10886 0.0
H380 H 0.50498 0.90614 0.2855 0.0
H381 H 0.46281 0.88071 0.20101 0.0
H382 H 0.48128 0.85959 0.11193 0.0
H383 H 0.58396 0.89101 0.19385 0.0
H384 H 0.47609 0.80324 0.38812 0.0
H385 H 0.46577 0.83128 0.47714 0.0
O386 O 0.56511 0.95886 0.31888 0.0
C387 C 0.63334 0.97769 0.39081 0.0
C388 C 0.50918 0.88519 0.45599 0.0
C389 C 0.49303 0.83216 0.39628 0.0
N390 N 0.54215 0.89064 0.36654 0.0
C391 C 0.53667 0.90623 0.41549 0.0
C392 C 0.52082 0.85405 0.35678 0.0
C393 C 0.48722 0.84791 0.44618 0.0
C394 C 0.69915 0.98588 0.22858 0.0
N395 N 0.69154 1.00536 0.26847 0.0
C396 C 0.73179 0.98532 0.23195 0.0
C397 C 0.75673 1.00493 0.27655 0.0
C398 C 0.74878 0.02478 0.31705 0.0
C399 C 0.71585 0.02466 0.31233 0.0
C400 C 0.71795 0.11648 0.23672 0.0
C401 C 0.65751 0.07353 0.30608 0.0
C402 C 0.70021 0.07851 0.23355 0.0
N403 N 0.67048 0.05756 0.26819 0.0
C404 C 0.6746 0.11142 0.31054 0.0
C405 C 0.70503 0.13298 0.27557 0.0
C406 C 0.56952 0.98486 0.285 0.0
C407 C 0.53386 0.87365 0.1475 0.0
C408 C 0.51339 0.89725 0.2468 0.0
C409 C 0.4893 0.88274 0.19915 0.0
C410 C 0.49967 0.87087 0.14921 0.0
N411 N 0.54694 0.89996 0.24482 0.0
C412 C 0.55728 0.8884 0.19594 0.0
Co413 Co 0.6479 0.64307 0.76046 0.0
Co414 Co 0.67685 0.58503 0.80862 0.0
O415 O 0.68058 0.62281 0.7539 0.0
C416 C 0.64484 0.62509 0.63431 0.0
O417 O 0.6444 0.59515 0.65034 0.0
C418 C 0.75735 0.6309 0.77489 0.0
O419 O 0.75053 0.65228 0.74196 0.0
O420 O 0.68291 0.6175 0.87713 0.0
O421 O 0.6461 0.6384 0.84885 0.0
H422 H 0.6307 0.50707 0.991 0.0
H423 H 0.71598 0.68506 0.69194 0.0
O424 O 0.64795 0.64837 0.6727 0.0
H425 H 0.72346 0.76706 0.85291 0.0
H426 H 0.60162 0.72821 0.70763 0.0
H427 H 0.58089 0.62287 0.82922 0.0
H428 H 0.66971 0.70569 0.8433 0.0
H429 H 0.6439 0.70421 0.70218 0.0
O430 O 0.73191 0.60532 0.8054 0.0
H431 H 0.63491 0.5526 0.91869 0.0
H432 H 0.71217 0.53932 0.81811 0.0
H433 H 0.53815 0.64627 0.83658 0.0
H434 H 0.77016 0.7464 0.6995 0.0
H435 H 0.54838 0.69929 0.77541 0.0
H436 H 0.77418 0.78782 0.78059 0.0
O437 O 0.6055 0.59342 0.75224 0.0
H438 H 0.70174 0.55298 0.60492 0.0
H439 H 0.62544 0.50675 0.78374 0.0
H440 H 0.61413 0.4653 0.70013 0.0
H441 H 0.65259 0.48822 0.60992 0.0
H442 H 0.71141 0.5937 0.68856 0.0
H443 H 0.70902 0.49386 0.88961 0.0
H444 H 0.66795 0.47735 0.97669 0.0
O445 O 0.62189 0.56221 0.81288 0.0
C446 C 0.66397 0.63261 0.88865 0.0
C447 C 0.64862 0.51394 0.95314 0.0
C448 C 0.69263 0.50659 0.8963 0.0
N449 N 0.67365 0.54854 0.8641 0.0
C450 C 0.65105 0.53965 0.91195 0.0
C451 C 0.69439 0.53246 0.85607 0.0
C452 C 0.66956 0.49732 0.94513 0.0
C453 C 0.71754 0.70296 0.72728 0.0
N454 N 0.68988 0.69166 0.76743 0.0
C455 C 0.74828 0.73765 0.73137 0.0
C456 C 0.75053 0.76086 0.77689 0.0
C457 C 0.72211 0.74921 0.81753 0.0
C458 C 0.69182 0.71432 0.81208 0.0
C459 C 0.59694 0.70517 0.73465 0.0
C460 C 0.58567 0.64613 0.80282 0.0
C461 C 0.62076 0.69143 0.7317 0.0
N462 N 0.61504 0.66237 0.76577 0.0
C463 C 0.56132 0.65919 0.80703 0.0
C464 C 0.56707 0.68892 0.77267 0.0
C465 C 0.59857 0.56452 0.77988 0.0
C466 C 0.68508 0.54255 0.64427 0.0
C467 C 0.64244 0.51711 0.74483 0.0
C468 C 0.63586 0.4934 0.69754 0.0
C469 C 0.65743 0.50626 0.64699 0.0
N470 N 0.66979 0.55273 0.74215 0.0
C471 C 0.69081 0.5655 0.6924 0.0
Co472 Co 0.02463 0.64898 0.25152 0.0
Co473 Co 0.10621 0.66598 0.30908 0.0
O474 O 0.0781 0.67683 0.25156 0.0
C475 C 0.0438 0.64773 0.12702 0.0
O476 O 0.07067 0.64352 0.14613 0.0
C477 C 0.14586 0.74823 0.29616 0.0
O478 O 0.11438 0.74703 0.29213 0.0
O479 O 0.08034 0.67505 0.37546 0.0
O480 O 0.02328 0.64432 0.34024 0.0
H481 H 0.12178 0.60898 0.49375 0.0
H482 H 0.06179 0.71971 0.18921 0.0
O483 O 0.02355 0.65218 0.16351 0.0
H484 H 0.98486 0.73284 0.33966 0.0
H485 H 0.89898 0.61899 0.18579 0.0
H486 H 0.96975 0.58159 0.31157 0.0
H487 H 0.98521 0.67515 0.32942 0.0
H488 H 0.96615 0.65517 0.18781 0.0
O489 O 0.1466 0.71903 0.30746 0.0
H490 H 0.0875 0.62254 0.41962 0.0
H491 H 0.18456 0.68711 0.32197 0.0
H492 H 0.90261 0.54474 0.31126 0.0
H493 H 0.06192 0.77782 0.19715 0.0
H494 H 0.86676 0.56345 0.2481 0.0
H495 H 0.02336 0.78471 0.27302 0.0
O496 O 0.0264 0.60335 0.24207 0.0
H497 H 0.17171 0.69209 0.11364 0.0
H498 H 0.12161 0.60603 0.28068 0.0
H499 H 0.14964 0.59201 0.19683 0.0
H500 H 0.17505 0.63523 0.11253 0.0
H501 H 0.1425 0.7046 0.19761 0.0
H502 H 0.22003 0.67459 0.39528 0.0
H503 H 0.18856 0.63507 0.48183 0.0
O504 O 0.06819 0.61243 0.31061 0.0
C505 C 0.04572 0.65892 0.38304 0.0
C506 C 0.13583 0.62631 0.45631 0.0
C507 C 0.19097 0.66318 0.40112 0.0
N508 N 0.13407 0.65595 0.36676 0.0
C509 C 0.11656 0.63413 0.4142 0.0
C510 C 0.17081 0.67044 0.35996 0.0
C511 C 0.17329 0.64096 0.44961 0.0
C512 C 0.04474 0.72243 0.22202 0.0
N513 N 0.02367 0.69411 0.25906 0.0
C514 C 0.04502 0.75543 0.22645 0.0
C515 C 0.02343 0.75929 0.26908 0.0
C516 C 1.00188 0.73023 0.30655 0.0
C517 C 1.00235 0.69767 0.30085 0.0
C518 C 0.91428 0.61065 0.2137 0.0
C519 C 0.95431 0.58999 0.28422 0.0
C520 C 0.95232 0.63103 0.21503 0.0
N521 N 0.9718 0.62079 0.25049 0.0
C522 C 0.91631 0.56898 0.28411 0.0
C523 C 0.89622 0.57948 0.24864 0.0
C524 C 0.04404 0.59225 0.27286 0.0
C525 C 0.16084 0.6731 0.15021 0.0
C526 C 0.13232 0.62492 0.24405 0.0
C527 C 0.14835 0.61687 0.19677 0.0
C528 C 0.16263 0.64115 0.14954 0.0
N529 N 0.13031 0.65615 0.2442 0.0
C530 C 0.1445 0.68019 0.19817 0.0
Co531 Co 0.38685 0.01707 0.75444 0.0
Co532 Co 0.44861 0.09902 0.81309 0.0
O533 O 0.41045 0.07042 0.75464 0.0
C534 C 0.40503 0.03641 0.62901 0.0
O535 O 0.43624 0.0639 0.64635 0.0
C536 C 0.40512 0.13769 0.79687 0.0
O537 O 0.37479 0.10626 0.79277 0.0
O538 O 0.41305 0.07214 0.87832 0.0
O539 O 0.39098 0.01564 0.84302 0.0
H540 H 0.51929 0.11501 1.00021 0.0
H541 H 0.34993 0.05173 0.69461 0.0
O542 O 0.38147 0.01589 0.66676 0.0
H543 H 0.26283 0.97136 0.84579 0.0
H544 H 0.29476 0.88996 0.68931 0.0
H545 H 0.40344 0.96434 0.81218 0.0
H546 H 0.32227 0.97486 0.8335 0.0
H547 H 0.32285 0.95686 0.69203 0.0
O548 O 0.43484 0.13853 0.81041 0.0
H549 H 0.47324 0.08042 0.92381 0.0
H550 H 0.50341 0.17801 0.82929 0.0
H551 H 0.37611 0.8975 0.81108 0.0
H552 H 0.29048 0.04869 0.70466 0.0
H553 H 0.3213 0.85984 0.7494 0.0
H554 H 0.24651 1.00838 0.78089 0.0
O555 O 0.43543 0.02155 0.74354 0.0
H556 H 0.48858 0.16421 0.61751 0.0
H557 H 0.52548 0.11787 0.78863 0.0
H558 H 0.56857 0.1474 0.70643 0.0
H559 H 0.55028 0.17095 0.6201 0.0
H560 H 0.44597 0.13365 0.69998 0.0
H561 H 0.5496 0.21376 0.90481 0.0
H562 H 0.5579 0.1822 0.99102 0.0
O563 O 0.46546 0.06201 0.81507 0.0
C564 C 0.3965 0.03752 0.88577 0.0
C565 C 0.51593 0.12909 0.96288 0.0
C566 C 0.53289 0.1845 0.90942 0.0
N567 N 0.48544 0.12718 0.87214 0.0
C568 C 0.48988 0.10964 0.91943 0.0
C569 C 0.50651 0.16415 0.86691 0.0
C570 C 0.53756 0.16678 0.95772 0.0
C571 C 0.33083 0.03394 0.7276 0.0
N572 N 0.33967 0.01365 0.76365 0.0
C573 C 0.29726 0.03242 0.73321 0.0
C574 C 0.27263 1.00984 0.77604 0.0
C575 C 0.28179 0.98912 0.81253 0.0
C576 C 0.31562 0.99138 0.80565 0.0
C577 C 0.31852 0.90606 0.71659 0.0
C578 C 0.37949 0.9481 0.78547 0.0
C579 C 0.33455 0.94395 0.71832 0.0
N580 N 0.36442 0.96442 0.75299 0.0
C581 C 0.36418 0.91028 0.78491 0.0
C582 C 0.33345 0.88917 0.75028 0.0
C583 C 0.46355 0.03957 0.77559 0.0
C584 C 0.49693 0.15419 0.65499 0.0
C585 C 0.51717 0.12786 0.75117 0.0
C586 C 0.54179 0.1447 0.70481 0.0
C587 C 0.53151 0.15791 0.65641 0.0
N588 N 0.48314 0.12405 0.74934 0.0
C589 C 0.47297 0.13706 0.70207 0.0
Co590 Co 0.38211 0.37973 0.26289 0.0
Co591 Co 0.36303 0.44463 0.31148 0.0
O592 O 0.35344 0.40449 0.25711 0.0
C593 C 0.38462 0.39629 0.13609 0.0
O594 O 0.38707 0.4273 0.15111 0.0
C595 C 0.28077 0.40201 0.29412 0.0
O596 O 0.28185 0.37171 0.28946 0.0
O597 O 0.35282 0.41103 0.38028 0.0
O598 O 0.38549 0.3855 0.35129 0.0
H599 H 0.41644 0.52078 0.49414 0.0
H600 H 0.31215 0.34279 0.19817 0.0
O601 O 0.38025 0.37295 0.17529 0.0
H602 H 0.29915 0.2586 0.35933 0.0
H603 H 0.41589 0.28479 0.21111 0.0
H604 H 0.44837 0.39462 0.32952 0.0
H605 H 0.35626 0.31709 0.34711 0.0
H606 H 0.37847 0.31436 0.20609 0.0
O607 O 0.30994 0.43178 0.30645 0.0
H608 H 0.4045 0.47172 0.42356 0.0
H609 H 0.34174 0.50201 0.31613 0.0
H610 H 0.48632 0.36568 0.33642 0.0
H611 H 0.25465 0.2843 0.20823 0.0
H612 H 0.47016 0.31038 0.27684 0.0
H613 H 0.24786 0.24181 0.28945 0.0
O614 O 0.42734 0.42726 0.25188 0.0
H615 H 0.33995 0.47993 0.11009 0.0
H616 H 0.42323 0.51961 0.28134 0.0
H617 H 0.43836 0.56008 0.19495 0.0
H618 H 0.39653 0.54041 0.10855 0.0
H619 H 0.32635 0.43979 0.19671 0.0
H620 H 0.35266 0.55121 0.38578 0.0
H621 H 0.39044 0.56098 0.47546 0.0
O622 O 0.41659 0.46051 0.31676 0.0
C623 C 0.3693 0.39329 0.39146 0.0
C624 C 0.39985 0.51675 0.45532 0.0
C625 C 0.36399 0.53377 0.39459 0.0
N626 N 0.37197 0.48362 0.36612 0.0
C627 C 0.39293 0.48895 0.4152 0.0
C628 C 0.3576 0.50564 0.35554 0.0
C629 C 0.38524 0.53927 0.44484 0.0
C630 C 0.30945 0.3243 0.23333 0.0
N631 N 0.33746 0.3334 0.27209 0.0
C632 C 0.2768 0.29129 0.23894 0.0
C633 C 0.27299 0.26749 0.28457 0.0
C634 C 0.30174 0.27691 0.32384 0.0
C635 C 0.33396 0.31017 0.31689 0.0
C636 C 0.42315 0.30881 0.23742 0.0
C637 C 0.44102 0.3704 0.30382 0.0
C638 C 0.40209 0.3257 0.23471 0.0
N639 N 0.41107 0.35601 0.26788 0.0
C640 C 0.46267 0.3542 0.30777 0.0
C641 C 0.4536 0.32319 0.2743 0.0
C642 C 0.43757 0.45644 0.28096 0.0
C643 C 0.35835 0.48885 0.14755 0.0
C644 C 0.40498 0.5106 0.24378 0.0
C645 C 0.41364 0.53379 0.19507 0.0
C646 C 0.39013 0.52275 0.14665 0.0
N647 N 0.3739 0.4772 0.24421 0.0
C648 C 0.35064 0.46632 0.19697 0.0
Co649 Co 1.01616 0.37884 0.74882 0.0
Co650 Co 0.93097 0.34867 0.80617 0.0
O651 O 0.96336 0.345 0.74778 0.0
C652 C 0.99622 0.37775 0.62386 0.0
O653 O 0.96704 0.37804 0.6422 0.0
C654 C 0.89646 0.26824 0.77288 0.0
O655 O 0.92418 0.27533 0.73858 0.0
O656 O 0.96069 0.34447 0.87171 0.0
O657 O 1.01666 0.38269 0.83743 0.0
H658 H 0.9048 0.39577 0.99297 0.0
H659 H 0.98892 0.30946 0.68393 0.0
O660 O 0.01827 0.37674 0.66085 0.0
H661 H 0.0716 0.30806 0.83622 0.0
H662 H 0.14622 0.42676 0.68484 0.0
H663 H 0.06374 0.4487 0.8099 0.0
H664 H 0.06203 0.36056 0.82684 0.0
H665 H 0.08012 0.38303 0.68575 0.0
O666 O 0.89679 0.29336 0.80493 0.0
H667 H 0.94385 0.39151 0.91618 0.0
H668 H 0.85028 0.31224 0.82364 0.0
H669 H 0.12969 0.49304 0.81063 0.0
H670 H 0.99795 0.25644 0.69113 0.0
H671 H 0.17143 0.48214 0.74787 0.0
H672 H 0.03946 0.25546 0.7679 0.0
O673 O 1.00673 0.41992 0.74071 0.0
H674 H 0.86802 0.32127 0.60717 0.0
H675 H 0.90057 0.39771 0.78611 0.0
H676 H 0.86663 0.40696 0.70612 0.0
H677 H 0.84984 0.36842 0.61589 0.0
H678 H 0.90286 0.31378 0.68719 0.0
H679 H 0.81024 0.31547 0.89965 0.0
H680 H 0.83747 0.35757 0.98496 0.0
O681 O 0.96226 0.40377 0.80791 0.0
C682 C 0.99506 0.36493 0.87971 0.0
C683 C 0.8926 0.37739 0.95593 0.0
C684 C 0.83954 0.33227 0.90361 0.0
N685 N 0.8994 0.35177 0.86534 0.0
C686 C 0.91458 0.37491 0.91224 0.0
C687 C 0.86237 0.33046 0.86082 0.0
C688 C 0.85483 0.35592 0.95145 0.0
C689 C 1.00699 0.30921 0.71746 0.0
N690 N 0.0245 0.33789 0.75552 0.0
C691 C 1.01201 0.27912 0.72132 0.0
C692 C 0.03528 0.27858 0.76441 0.0
C693 C 0.05327 0.30804 0.80281 0.0
C694 C 0.04753 0.33763 0.79764 0.0
C695 C 0.12834 0.43173 0.7126 0.0
C696 C 0.08177 0.4437 0.78268 0.0
C697 C 0.09089 0.40706 0.71331 0.0
N698 N 0.06819 0.41304 0.74859 0.0
C699 C 0.11907 0.46894 0.78317 0.0
C700 C 0.14246 0.46281 0.74794 0.0
C701 C 0.98565 0.42663 0.7715 0.0
C702 C 0.87466 0.33786 0.64666 0.0
C703 C 0.89322 0.38054 0.74732 0.0
C704 C 0.87398 0.38599 0.70205 0.0
C705 C 0.86459 0.3644 0.65146 0.0
N706 N 0.9028 0.35421 0.7427 0.0
C707 C 0.89396 0.33326 0.69281 0.0
C708 C 1.00154 0.36308 0.0484 0.0
C709 C 0.03923 0.38514 0.06019 0.0
C710 C 0.9877 0.35589 0.99037 0.0
C711 C 1.01076 0.37066 0.94101 0.0
H712 H 0.98216 0.35165 0.08438 0.0
H713 H 0.95849 0.33929 0.98444 0.0
S714 S 0.11194 0.42945 0.94696 0.0
N715 N 0.09952 0.42048 0.01692 0.0
N716 N 0.07384 0.40815 0.90845 0.0
C717 C 0.04868 0.39227 0.9521 0.0
C718 C 0.06279 0.39914 0.01131 0.0
C719 C 0.66481 0.02811 0.46562 0.0
C720 C 0.64351 0.99044 0.4534 0.0
C721 C 0.67216 0.04157 0.52385 0.0
C722 C 0.65841 0.0181 0.57296 0.0
H723 H 0.67544 0.04775 0.42987 0.0
H724 H 0.688 0.07079 0.53018 0.0
S725 S 0.60248 0.91677 0.56575 0.0
N726 N 0.61022 0.92973 0.4959 0.0
N727 N 0.62323 0.95467 0.60479 0.0
C728 C 0.63783 0.9802 0.56139 0.0
C729 C 0.63064 0.9665 0.50197 0.0
C730 C 0.6336 0.66701 0.02106 0.0
C731 C 0.64655 0.65654 0.07033 0.0
C732 C 0.64015 0.65992 0.96296 0.0
C733 C 0.66021 0.6422 0.95103 0.0
H734 H 0.61737 0.67999 0.02719 0.0
H735 H 0.62864 0.66792 0.92713 0.0
S736 S 0.70211 0.61074 0.06385 0.0
N737 N 0.68183 0.62848 0.10263 0.0
N738 N 0.69434 0.61576 0.9939 0.0
C739 C 0.67437 0.63261 0.99972 0.0
C740 C 0.66751 0.6396 0.05903 0.0
C741 C 0.05362 0.66449 0.49397 0.0
C742 C 0.03039 0.65399 0.44445 0.0
C743 C 0.03975 0.65746 0.55195 0.0
C744 C 1.00191 0.63987 0.56359 0.0
H745 H 0.08286 0.6775 0.48812 0.0
H746 H 0.05915 0.66546 0.58793 0.0
S747 S 0.92892 0.60784 0.45005 0.0
N748 N 0.96709 0.62549 0.41161 0.0
N749 N 0.94147 0.61321 0.52014 0.0
C750 C 0.97833 0.63012 0.51466 0.0
C751 C 0.99241 0.63691 0.45544 0.0
C752 C 0.39561 0.04475 0.99656 0.0
C753 C 0.38603 0.02174 0.94691 0.0
C754 C 0.38856 0.03069 0.05443 0.0
C755 C 0.37137 0.99284 0.06578 0.0
H756 H 0.40948 0.07405 0.99095 0.0
H757 H 0.39742 0.05 0.09062 0.0
S758 S 0.33906 0.92025 0.95167 0.0
N759 N 0.35721 0.95856 0.91356 0.0
N760 N 0.34365 0.93253 0.02183 0.0
C761 C 0.36062 0.96939 0.01664 0.0
C762 C 0.36803 0.98369 0.95756 0.0
C763 C 0.39052 0.36316 0.46512 0.0
C764 C 0.37281 0.38333 0.45381 0.0
C765 C 0.39704 0.35562 0.52299 0.0
C766 C 0.38641 0.36803 0.57269 0.0
H767 H 0.40022 0.35353 0.42893 0.0
H768 H 0.41141 0.34067 0.52858 0.0
S769 S 0.33754 0.42071 0.56802 0.0
N770 N 0.34336 0.41423 0.49782 0.0
N771 N 0.35588 0.40073 0.60611 0.0
C772 C 0.36782 0.3875 0.56206 0.0
C773 C 0.36096 0.39495 0.50297 0.0
C774 C 0.9866 0.62057 0.98765 0.0
C775 C 1.01267 0.62966 0.94286 0.0
C776 C 0.99713 0.6275 0.04716 0.0
C777 C 0.03397 0.64282 0.06381 0.0
H778 H 0.95796 0.60843 0.97659 0.0
H779 H 0.97614 0.62002 0.08041 0.0
S780 S 0.11247 0.67025 0.96301 0.0
N781 N 0.07673 0.65441 0.91871 0.0
N782 N 0.09641 0.66644 0.03083 0.0
C783 C 0.06022 0.65161 0.01941 0.0
C784 C 0.04959 0.64531 0.95878 0.0
C785 C 0.37216 0.97825 0.49114 0.0
C786 C 0.3866 1.00408 0.44549 0.0
C787 C 0.37757 0.98918 0.55046 0.0
C788 C 0.39848 0.02623 0.56606 0.0
H789 H 0.35642 0.94945 0.48092 0.0
H790 H 0.36599 0.96833 0.58437 0.0
S791 S 0.44317 0.10435 0.46267 0.0
N792 N 0.42284 0.06821 0.41932 0.0
N793 N 0.43394 0.08867 0.53117 0.0
C794 C 0.41337 0.0523 0.52078 0.0
C795 C 0.40714 0.04123 0.46033 0.0
C796 C 0.38021 0.39479 0.96911 0.0
C797 C 0.40162 0.3792 0.95344 0.0
C798 C 0.37492 0.40039 0.02847 0.0
C799 C 0.38996 0.38961 0.07407 0.0
H800 H 0.36812 0.40352 0.93522 0.0
H801 H 0.35875 0.41298 0.03874 0.0
S802 S 0.44792 0.34745 0.0566 0.0
N803 N 0.43817 0.3534 0.98814 0.0
N804 N 0.42727 0.36286 0.10005 0.0
C805 C 0.41103 0.37358 0.05912 0.0
C806 C 0.41714 0.36868 0.99864 0.0
C807 C 0.04272 0.40169 0.54378 0.0
C808 C 1.00578 0.38229 0.56063 0.0
C809 C 0.05278 0.40788 0.48407 0.0
C810 C 0.02628 0.39397 0.43932 0.0
H811 H 0.06403 0.41289 0.577 0.0
H812 H 0.08147 0.42334 0.47285 0.0
S813 S 0.92598 0.3412 0.46005 0.0
N814 N 0.94269 0.34944 0.52796 0.0
N815 N 0.96162 0.36013 0.41544 0.0
C816 C 0.98928 0.37414 0.45547 0.0
C817 C 0.97902 0.36857 0.51628 0.0
C818 C 0.62336 0.9853 0.97037 0.0
C819 C 0.64188 0.02208 0.95271 0.0
C820 C 0.61794 0.97571 0.03032 0.0
C821 C 0.63183 1.00259 0.07445 0.0
H822 H 0.61233 0.96374 0.93759 0.0
H823 H 0.60312 0.94711 0.04221 0.0
S824 S 0.68255 0.10267 0.05141 0.0
N825 N 0.67386 0.08542 0.98387 0.0
N826 N 0.66475 0.06741 0.09688 0.0
C827 C 0.6508 0.03944 0.05746 0.0
C828 C 0.65551 0.0492 0.99641 0.0
C829 C 0.65187 0.62726 0.46761 0.0
C830 C 0.62911 0.64104 0.45054 0.0
C831 C 0.65657 0.6218 0.52733 0.0
C832 C 0.63952 0.63095 0.57188 0.0
H833 H 0.66557 0.61991 0.43452 0.0
H834 H 0.67397 0.61074 0.53873 0.0
S835 S 0.57732 0.66793 0.55058 0.0
N836 N 0.58904 0.66327 0.48279 0.0
N837 N 0.59881 0.65411 0.59539 0.0
C838 C 0.61699 0.64508 0.55553 0.0
C839 C 0.61151 0.64981 0.49468 0.0
C840 C 0.03609 0.53249 0.30734 0.0
C841 C 0.03909 0.55576 0.26063 0.0
C842 C 0.03575 0.49968 0.29641 0.0
C843 C 0.03978 0.48973 0.2386 0.0
H844 H 0.03466 0.54004 0.35267 0.0
H845 H 0.03429 0.48297 0.33378 0.0
S846 S 0.04923 0.54157 0.10125 0.0
N847 N 0.0454 0.56618 0.1544 0.0
N848 N 0.04672 0.50562 0.13431 0.0
C849 C 0.04252 0.51262 0.19159 0.0
C850 C 0.04166 0.54535 0.2025 0.0
C851 C 0.51461 0.0311 0.81202 0.0
C852 C 0.49611 0.03614 0.76465 0.0
C853 C 0.54731 0.03092 0.80276 0.0
C854 C 0.56332 0.0371 0.74615 0.0
H855 H 0.50387 0.02753 0.85657 0.0
H856 H 0.56087 0.02729 0.84066 0.0
S857 S 0.52611 0.05292 0.60787 0.0
N858 N 0.49595 0.04728 0.65916 0.0
N859 N 0.55821 0.04866 0.64224 0.0
C860 C 0.54512 0.04234 0.69851 0.0
C861 C 0.51128 0.04138 0.70764 0.0
C862 C 0.52902 0.54188 0.30541 0.0
C863 C 0.5396 0.55533 0.24744 0.0
C864 C 0.4964 0.50917 0.31615 0.0
C865 C 0.47399 0.48817 0.26917 0.0
H866 H 0.54504 0.55771 0.34294 0.0
H867 H 0.4883 0.5006 0.36149 0.0
S868 S 0.49005 0.51081 0.10937 0.0
N869 N 0.52522 0.54502 0.14269 0.0
N870 N 0.46499 0.48271 0.16261 0.0
C871 C 0.48504 0.50058 0.21097 0.0
C872 C 0.51758 0.5344 0.20016 0.0
C873 C 0.99706 0.52042 0.79624 0.0
C874 C 0.98596 0.52777 0.74151 0.0
C875 C 0.9968 0.48753 0.80615 0.0
C876 C 0.9864 0.46137 0.76114 0.0
H877 H 1.00504 0.53978 0.83229 0.0
H878 H 1.0049 0.48258 0.84909 0.0
S879 S 0.95531 0.46715 0.61014 0.0
N880 N 0.96401 0.50571 0.64211 0.0
N881 N 0.96482 0.44471 0.66017 0.0
C882 C 0.9758 0.46854 0.70613 0.0
C883 C 0.97522 0.50153 0.69645 0.0
C884 C 0.4954 0.99363 0.20608 0.0
C885 C 0.47219 0.99103 0.25254 0.0
C886 C 0.52823 0.99409 0.2175 0.0
C887 C 0.53822 0.99059 0.27557 0.0
H888 H 0.48779 0.99461 0.16061 0.0
H889 H 0.54492 0.99522 0.18032 0.0
S890 S 0.4865 0.98241 0.41243 0.0
N891 N 0.4618 0.98572 0.35879 0.0
N892 N 0.52243 0.98459 0.37986 0.0
C893 C 0.51538 0.98827 0.32235 0.0
C894 C 0.48263 0.98902 0.31092 0.0
C895 C 0.54379 0.50805 0.8179 0.0
C896 C 0.5626 0.5315 0.7705 0.0
C897 C 0.51069 0.47554 0.80861 0.0
C898 C 0.496 0.46482 0.75137 0.0
H899 H 0.55483 0.51479 0.86234 0.0
H900 H 0.4973 0.45791 0.84613 0.0
S901 S 0.53504 0.51598 0.61236 0.0
N902 N 0.56379 0.54182 0.66436 0.0
N903 N 0.50269 0.47988 0.64684 0.0
C904 C 0.51454 0.48789 0.70371 0.0
C905 C 0.54756 0.52148 0.71332 0.0
C906 C 0.18444 0.37176 0.23609 0.0
C907 C 0.182 0.4037 0.23927 0.0
C908 C 0.21598 0.37123 0.25486 0.0
C909 C 0.24649 0.40252 0.27838 0.0
H910 H 0.16193 0.34696 0.21829 0.0
H911 H 0.21652 0.34608 0.25016 0.0
S912 S 0.25293 0.49245 0.30131 0.0
N913 N 0.21254 0.46706 0.27081 0.0
N914 N 0.27085 0.46584 0.30681 0.0
C915 C 0.24392 0.43433 0.28326 0.0
C916 C 0.21205 0.43499 0.26356 0.0
C917 C 0.8429 0.21101 0.81308 0.0
C918 C 0.86174 0.23323 0.76454 0.0
C919 C 0.81005 0.17783 0.80514 0.0
C920 C 0.79411 0.16625 0.74863 0.0
H921 H 0.85382 0.2191 0.85736 0.0
H922 H 0.79655 0.16153 0.84385 0.0
S923 S 0.83175 0.21557 0.60757 0.0
N924 N 0.86191 0.24142 0.65798 0.0
N925 N 0.79938 0.18035 0.64376 0.0
C926 C 0.81232 0.18866 0.70001 0.0
C927 C 0.84632 0.22177 0.7078 0.0
C928 C 0.65541 0.81391 0.25742 0.0
C929 C 0.62372 0.78312 0.23562 0.0
C930 C 0.65509 0.84553 0.27615 0.0
C931 C 0.62299 0.84777 0.27457 0.0
H932 H 0.68072 0.81354 0.2608 0.0
H933 H 0.6802 0.86826 0.29261 0.0
S934 S 0.53304 0.77588 0.21771 0.0
N935 N 0.55969 0.7581 0.21091 0.0
N936 N 0.55896 0.81666 0.24649 0.0
C937 C 0.59127 0.81741 0.252 0.0
C938 C 0.59168 0.78543 0.23247 0.0
C939 C 0.84241 0.638 0.70357 0.0
C940 C 0.86024 0.63226 0.75129 0.0
C941 C 0.80977 0.63865 0.71206 0.0
C942 C 0.79305 0.63231 0.76823 0.0
H943 H 0.85392 0.6423 0.65949 0.0
H944 H 0.797 0.64318 0.67396 0.0
S945 S 0.82816 0.6145 0.9071 0.0
N946 N 0.85881 0.62017 0.8567 0.0
N947 N 0.79666 0.61937 0.87188 0.0
C948 C 0.81035 0.62593 0.81601 0.0
C949 C 0.84414 0.62645 0.80774 0.0
C950 C 0.21138 0.84541 0.24124 0.0
C951 C 0.24577 0.84773 0.24188 0.0
C952 C 0.17952 0.81361 0.25983 0.0
C953 C 0.18051 0.78268 0.28058 0.0
H954 H 0.2089 0.86825 0.22573 0.0
H955 H 0.15381 0.81325 0.25724 0.0
S956 S 0.26408 0.7754 0.29543 0.0
N957 N 0.27881 0.81643 0.26776 0.0
N958 N 0.21966 0.7575 0.30297 0.0
C959 C 0.21489 0.785 0.28264 0.0
C960 C 0.24721 0.81718 0.26326 0.0
C961 C 0.37333 0.20512 0.75378 0.0
C962 C 0.40603 0.23737 0.73968 0.0
C963 C 0.37321 0.17328 0.77266 0.0
C964 C 0.40581 0.17224 0.77911 0.0
H965 H 0.34747 0.20438 0.75039 0.0
H966 H 0.34726 0.1493 0.7825 0.0
S967 S 0.49898 0.24893 0.74695 0.0
N968 N 0.47197 0.26562 0.73311 0.0
N969 N 0.47174 0.20653 0.76817 0.0
C970 C 0.43864 0.20426 0.76496 0.0
C971 C 0.43875 0.2365 0.74539 0.0
loop_
_geom_bond_atom_site_label_1
_geom_bond_atom_site_label_2
_geom_bond_distance
_geom_bond_site_symmetry_2
_ccdc_geom_bond_type
Co0 O2 2.143 1_655 S
Co0 O8 2.074 . S
Co0 O11 2.093 . S
Co0 O24 2.097 1_655 S
Co0 N41 2.151 . S
Co0 N49 2.214 . S
Co1 O2 2.160 . S
Co1 O7 2.058 . S
Co1 O17 2.057 . S
Co1 O32 2.037 . S
Co1 N36 2.145 . S
Co1 N57 2.257 . S
O2 Co0 2.143 1_455 S
O2 Co1 2.160 . S
C3 O4 1.278 . S
C3 O11 1.224 1_455 S
O4 C3 1.278 . S
C5 O6 1.245 . S
C5 O17 1.232 . S
O6 C5 1.245 . S
O7 Co1 2.058 . S
O7 C33 1.269 . S
O8 Co0 2.074 . S
O8 C33 1.257 1_655 S
H9 C34 0.930 . S
H10 C40 0.930 . S
O11 Co0 2.093 . S
O11 C3 1.224 1_655 S
H12 C44 0.929 . S
H13 C46 0.930 . S
H14 C47 0.930 . S
H15 C45 0.929 . S
H16 C48 0.928 . S
O17 Co1 2.057 . S
O17 C5 1.232 . S
H18 C37 0.929 . S
H19 C38 0.929 . S
H20 C50 0.931 . S
H21 C42 0.929 . S
H22 C51 0.930 . S
H23 C43 0.931 . S
O24 Co0 2.097 1_455 S
O24 C52 1.214 . S
H25 C53 0.929 . S
H26 C54 0.929 . S
H27 C55 0.930 . S
H28 C56 0.929 . S
H29 C58 0.930 . S
H30 C35 0.930 . S
H31 C39 0.930 . S
O32 Co1 2.037 . S
O32 C52 1.234 . S
C33 O7 1.269 . S
C33 O8 1.257 1_455 S
C34 H9 0.930 . S
C34 C37 1.388 . S
C34 C39 1.418 . S
C35 H30 0.930 . S
C35 C38 1.404 . S
C35 C39 1.353 . S
N36 Co1 2.145 . S
N36 C37 1.397 . S
N36 C38 1.334 . S
C37 H18 0.929 . S
C37 C34 1.388 . S
C37 N36 1.397 . S
C38 H19 0.929 . S
C38 C35 1.404 . S
C38 N36 1.334 . S
C39 H31 0.930 . S
C39 C34 1.418 . S
C39 C35 1.353 . S
C40 H10 0.930 . S
C40 N41 1.330 . S
C40 C42 1.446 . S
N41 Co0 2.151 . S
N41 C40 1.330 . S
N41 C45 1.418 . S
C42 H21 0.929 . S
C42 C40 1.446 . S
C42 C43 1.332 . S
C43 H23 0.931 . S
C43 C42 1.332 . S
C43 C44 1.267 . S
C44 H12 0.929 . S
C44 C43 1.267 . S
C44 C45 1.251 . S
C45 H15 0.929 . S
C45 N41 1.418 . S
C45 C44 1.251 . S
C46 H13 0.930 . S
C46 C48 1.406 . S
C46 C51 1.261 . S
C47 H14 0.930 . S
C47 N49 1.325 . S
C47 C50 1.357 . S
C48 H16 0.928 . S
C48 C46 1.406 . S
C48 N49 1.261 . S
N49 Co0 2.214 . S
N49 C47 1.325 . S
N49 C48 1.261 . S
C50 H20 0.931 . S
C50 C47 1.357 . S
C50 C51 1.312 . S
C51 H22 0.930 . S
C51 C46 1.261 . S
C51 C50 1.312 . S
C52 O24 1.214 . S
C52 O32 1.234 . S
C53 H25 0.929 . S
C53 C56 1.391 . S
C53 C58 1.391 . S
C54 H26 0.929 . S
C54 C55 1.390 . S
C54 N57 1.391 . S
C55 H27 0.930 . S
C55 C54 1.390 . S
C55 C56 1.392 . S
C56 H28 0.929 . S
C56 C53 1.391 . S
C56 C55 1.392 . S
N57 Co1 2.257 . S
N57 C54 1.391 . S
N57 C58 1.388 . S
C58 H29 0.930 . S
C58 C53 1.391 . S
C58 N57 1.388 . S
Co59 O61 2.143 1_565 S
Co59 O67 2.074 . S
Co59 O70 2.093 . S
Co59 O83 2.097 1_565 S
Co59 N100 2.151 . S
Co59 N108 2.214 . S
Co60 O61 2.160 . S
Co60 O66 2.058 . S
Co60 O76 2.057 . S
Co60 O91 2.037 . S
Co60 N95 2.145 . S
Co60 N116 2.257 . S
O61 Co59 2.143 1_545 S
O61 Co60 2.160 . S
C62 O63 1.278 . S
C62 O70 1.224 1_545 S
O63 C62 1.278 . S
C64 O65 1.245 . S
C64 O76 1.232 . S
O65 C64 1.245 . S
O66 Co60 2.058 . S
O66 C92 1.269 . S
O67 Co59 2.074 . S
O67 C92 1.257 1_565 S
H68 C93 0.930 . S
H69 C99 0.930 . S
O70 Co59 2.093 . S
O70 C62 1.224 1_565 S
H71 C103 0.929 . S
H72 C105 0.930 . S
H73 C106 0.930 . S
H74 C104 0.929 . S
H75 C107 0.928 . S
O76 Co60 2.057 . S
O76 C64 1.232 . S
H77 C96 0.929 . S
H78 C97 0.929 . S
H79 C109 0.931 . S
H80 C101 0.929 . S
H81 C110 0.930 . S
H82 C102 0.931 . S
O83 Co59 2.097 1_545 S
O83 C111 1.214 . S
H84 C112 0.929 . S
H85 C113 0.929 . S
H86 C114 0.930 . S
H87 C115 0.929 . S
H88 C117 0.930 . S
H89 C94 0.930 . S
H90 C98 0.930 . S
O91 Co60 2.037 . S
O91 C111 1.234 . S
C92 O66 1.269 . S
C92 O67 1.257 1_545 S
C93 H68 0.930 . S
C93 C96 1.388 . S
C93 C98 1.418 . S
C94 H89 0.930 . S
C94 C97 1.404 . S
C94 C98 1.353 . S
N95 Co60 2.145 . S
N95 C96 1.397 . S
N95 C97 1.334 . S
C96 H77 0.929 . S
C96 C93 1.388 . S
C96 N95 1.397 . S
C97 H78 0.929 . S
C97 C94 1.404 . S
C97 N95 1.334 . S
C98 H90 0.930 . S
C98 C93 1.418 . S
C98 C94 1.353 . S
C99 H69 0.930 . S
C99 N100 1.330 . S
C99 C101 1.446 . S
N100 Co59 2.151 . S
N100 C99 1.330 . S
N100 C104 1.418 . S
C101 H80 0.929 . S
C101 C99 1.446 . S
C101 C102 1.332 . S
C102 H82 0.931 . S
C102 C101 1.332 . S
C102 C103 1.267 . S
C103 H71 0.929 . S
C103 C102 1.267 . S
C103 C104 1.251 . S
C104 H74 0.929 . S
C104 N100 1.418 . S
C104 C103 1.251 . S
C105 H72 0.930 . S
C105 C107 1.406 . S
C105 C110 1.261 . S
C106 H73 0.930 . S
C106 N108 1.325 . S
C106 C109 1.357 . S
C107 H75 0.928 . S
C107 C105 1.406 . S
C107 N108 1.261 . S
N108 Co59 2.214 . S
N108 C106 1.325 . S
N108 C107 1.261 . S
C109 H79 0.931 . S
C109 C106 1.357 . S
C109 C110 1.312 . S
C110 H81 0.930 . S
C110 C105 1.261 . S
C110 C109 1.312 . S
C111 O83 1.214 . S
C111 O91 1.234 . S
C112 H84 0.929 . S
C112 C115 1.391 . S
C112 C117 1.391 . S
C113 H85 0.929 . S
C113 C114 1.390 . S
C113 N116 1.391 . S
C114 H86 0.930 . S
C114 C113 1.390 . S
C114 C115 1.392 . S
C115 H87 0.929 . S
C115 C112 1.391 . S
C115 C114 1.392 . S
N116 Co60 2.257 . S
N116 C113 1.391 . S
N116 C117 1.388 . S
C117 H88 0.930 . S
C117 C112 1.391 . S
C117 N116 1.388 . S
Co118 O120 2.143 . S
Co118 O126 2.074 . S
Co118 O129 2.093 . S
Co118 O142 2.097 . S
Co118 N159 2.151 . S
Co118 N167 2.214 . S
Co119 O120 2.160 . S
Co119 O125 2.058 . S
Co119 O135 2.057 . S
Co119 O150 2.037 . S
Co119 N154 2.145 . S
Co119 N175 2.257 . S
O120 Co118 2.143 . S
O120 Co119 2.160 . S
C121 O122 1.278 . S
C121 O129 1.224 . S
O122 C121 1.278 . S
C123 O124 1.245 . S
C123 O135 1.232 . S
O124 C123 1.245 . S
O125 Co119 2.058 . S
O125 C151 1.269 . S
O126 Co118 2.074 . S
O126 C151 1.257 . S
H127 C152 0.930 . S
H128 C158 0.930 . S
O129 Co118 2.093 . S
O129 C121 1.224 . S
H130 C162 0.929 . S
H131 C164 0.930 . S
H132 C165 0.930 . S
H133 C163 0.929 . S
H134 C166 0.928 . S
O135 Co119 2.057 . S
O135 C123 1.232 . S
H136 C155 0.929 . S
H137 C156 0.929 . S
H138 C168 0.931 . S
H139 C160 0.929 . S
H140 C169 0.930 . S
H141 C161 0.931 . S
O142 Co118 2.097 . S
O142 C170 1.214 . S
H143 C171 0.929 . S
H144 C172 0.929 . S
H145 C173 0.930 . S
H146 C174 0.929 . S
H147 C176 0.930 . S
H148 C153 0.930 . S
H149 C157 0.930 . S
O150 Co119 2.037 . S
O150 C170 1.234 . S
C151 O125 1.269 . S
C151 O126 1.257 . S
C152 H127 0.930 . S
C152 C155 1.388 . S
C152 C157 1.418 . S
C153 H148 0.930 . S
C153 C156 1.404 . S
C153 C157 1.353 . S
N154 Co119 2.145 . S
N154 C155 1.397 . S
N154 C156 1.334 . S
C155 H136 0.929 . S
C155 C152 1.388 . S
C155 N154 1.397 . S
C156 H137 0.929 . S
C156 C153 1.404 . S
C156 N154 1.334 . S
C157 H149 0.930 . S
C157 C152 1.418 . S
C157 C153 1.353 . S
C158 H128 0.930 . S
C158 N159 1.330 . S
C158 C160 1.446 . S
N159 Co118 2.151 . S
N159 C158 1.330 . S
N159 C163 1.418 . S
C160 H139 0.929 . S
C160 C158 1.446 . S
C160 C161 1.332 . S
C161 H141 0.931 . S
C161 C160 1.332 . S
C161 C162 1.267 . S
C162 H130 0.929 . S
C162 C161 1.267 . S
C162 C163 1.251 . S
C163 H133 0.929 . S
C163 N159 1.418 . S
C163 C162 1.251 . S
C164 H131 0.930 . S
C164 C166 1.406 . S
C164 C169 1.261 . S
C165 H132 0.930 . S
C165 N167 1.325 . S
C165 C168 1.357 . S
C166 H134 0.928 . S
C166 C164 1.406 . S
C166 N167 1.261 . S
N167 Co118 2.214 . S
N167 C165 1.325 . S
N167 C166 1.261 . S
C168 H138 0.931 . S
C168 C165 1.357 . S
C168 C169 1.312 . S
C169 H140 0.930 . S
C169 C164 1.261 . S
C169 C168 1.312 . S
C170 O142 1.214 . S
C170 O150 1.234 . S
C171 H143 0.929 . S
C171 C174 1.391 . S
C171 C176 1.391 . S
C172 H144 0.929 . S
C172 C173 1.390 . S
C172 N175 1.391 . S
C173 H145 0.930 . S
C173 C172 1.390 . S
C173 C174 1.392 . S
C174 H146 0.929 . S
C174 C171 1.391 . S
C174 C173 1.392 . S
N175 Co119 2.257 . S
N175 C172 1.391 . S
N175 C176 1.388 . S
C176 H147 0.930 . S
C176 C171 1.391 . S
C176 N175 1.388 . S
Co177 O179 2.143 1_455 S
Co177 O185 2.074 . S
Co177 O188 2.093 . S
Co177 O201 2.097 1_455 S
Co177 N218 2.151 . S
Co177 N226 2.214 . S
Co178 O179 2.160 . S
Co178 O184 2.058 . S
Co178 O194 2.057 . S
Co178 O209 2.037 . S
Co178 N213 2.145 . S
Co178 N234 2.257 . S
O179 Co177 2.143 1_655 S
O179 Co178 2.160 . S
C180 O181 1.278 . S
C180 O188 1.224 1_655 S
O181 C180 1.278 . S
C182 O183 1.245 . S
C182 O194 1.232 . S
O183 C182 1.245 . S
O184 Co178 2.058 . S
O184 C210 1.269 . S
O185 Co177 2.074 . S
O185 C210 1.257 1_455 S
H186 C211 0.930 . S
H187 C217 0.930 . S
O188 Co177 2.093 . S
O188 C180 1.224 1_455 S
H189 C221 0.929 . S
H190 C223 0.930 . S
H191 C224 0.930 . S
H192 C222 0.929 . S
H193 C225 0.928 . S
O194 Co178 2.057 . S
O194 C182 1.232 . S
H195 C214 0.929 . S
H196 C215 0.929 . S
H197 C227 0.931 . S
H198 C219 0.929 . S
H199 C228 0.930 . S
H200 C220 0.931 . S
O201 Co177 2.097 1_655 S
O201 C229 1.214 . S
H202 C230 0.929 . S
H203 C231 0.929 . S
H204 C232 0.930 . S
H205 C233 0.929 . S
H206 C235 0.930 . S
H207 C212 0.930 . S
H208 C216 0.930 . S
O209 Co178 2.037 . S
O209 C229 1.234 . S
C210 O184 1.269 . S
C210 O185 1.257 1_655 S
C211 H186 0.930 . S
C211 C214 1.388 . S
C211 C216 1.418 . S
C212 H207 0.930 . S
C212 C215 1.404 . S
C212 C216 1.353 . S
N213 Co178 2.145 . S
N213 C214 1.397 . S
N213 C215 1.334 . S
C214 H195 0.929 . S
C214 C211 1.388 . S
C214 N213 1.397 . S
C215 H196 0.929 . S
C215 C212 1.404 . S
C215 N213 1.334 . S
C216 H208 0.930 . S
C216 C211 1.418 . S
C216 C212 1.353 . S
C217 H187 0.930 . S
C217 N218 1.330 . S
C217 C219 1.446 . S
N218 Co177 2.151 . S
N218 C217 1.330 . S
N218 C222 1.418 . S
C219 H198 0.929 . S
C219 C217 1.446 . S
C219 C220 1.332 . S
C220 H200 0.931 . S
C220 C219 1.332 . S
C220 C221 1.267 . S
C221 H189 0.929 . S
C221 C220 1.267 . S
C221 C222 1.251 . S
C222 H192 0.929 . S
C222 N218 1.418 . S
C222 C221 1.251 . S
C223 H190 0.930 . S
C223 C225 1.406 . S
C223 C228 1.261 . S
C224 H191 0.930 . S
C224 N226 1.325 . S
C224 C227 1.357 . S
C225 H193 0.928 . S
C225 C223 1.406 . S
C225 N226 1.261 . S
N226 Co177 2.214 . S
N226 C224 1.325 . S
N226 C225 1.261 . S
C227 H197 0.931 . S
C227 C224 1.357 . S
C227 C228 1.312 . S
C228 H199 0.930 . S
C228 C223 1.261 . S
C228 C227 1.312 . S
C229 O201 1.214 . S
C229 O209 1.234 . S
C230 H202 0.929 . S
C230 C233 1.391 . S
C230 C235 1.391 . S
C231 H203 0.929 . S
C231 C232 1.390 . S
C231 N234 1.391 . S
C232 H204 0.930 . S
C232 C231 1.390 . S
C232 C233 1.392 . S
C233 H205 0.929 . S
C233 C230 1.391 . S
C233 C232 1.392 . S
N234 Co178 2.257 . S
N234 C231 1.391 . S
N234 C235 1.388 . S
C235 H206 0.930 . S
C235 C230 1.391 . S
C235 N234 1.388 . S
Co236 O238 2.143 1_545 S
Co236 O244 2.074 . S
Co236 O247 2.093 . S
Co236 O260 2.097 1_545 S
Co236 N277 2.151 . S
Co236 N285 2.214 . S
Co237 O238 2.160 . S
Co237 O243 2.058 . S
Co237 O253 2.057 . S
Co237 O268 2.037 . S
Co237 N272 2.145 . S
Co237 N293 2.257 . S
O238 Co236 2.143 1_565 S
O238 Co237 2.160 . S
C239 O240 1.278 . S
C239 O247 1.224 1_565 S
O240 C239 1.278 . S
C241 O242 1.245 . S
C241 O253 1.232 . S
O242 C241 1.245 . S
O243 Co237 2.058 . S
O243 C269 1.269 . S
O244 Co236 2.074 . S
O244 C269 1.257 1_545 S
H245 C270 0.930 . S
H246 C276 0.930 . S
O247 Co236 2.093 . S
O247 C239 1.224 1_545 S
H248 C280 0.929 . S
H249 C282 0.930 . S
H250 C283 0.930 . S
H251 C281 0.929 . S
H252 C284 0.928 . S
O253 Co237 2.057 . S
O253 C241 1.232 . S
H254 C273 0.929 . S
H255 C274 0.929 . S
H256 C286 0.931 . S
H257 C278 0.929 . S
H258 C287 0.930 . S
H259 C279 0.931 . S
O260 Co236 2.097 1_565 S
O260 C288 1.214 . S
H261 C289 0.929 . S
H262 C290 0.929 . S
H263 C291 0.930 . S
H264 C292 0.929 . S
H265 C294 0.930 . S
H266 C271 0.930 . S
H267 C275 0.930 . S
O268 Co237 2.037 . S
O268 C288 1.234 . S
C269 O243 1.269 . S
C269 O244 1.257 1_565 S
C270 H245 0.930 . S
C270 C273 1.388 . S
C270 C275 1.418 . S
C271 H266 0.930 . S
C271 C274 1.404 . S
C271 C275 1.353 . S
N272 Co237 2.145 . S
N272 C273 1.397 . S
N272 C274 1.334 . S
C273 H254 0.929 . S
C273 C270 1.388 . S
C273 N272 1.397 . S
C274 H255 0.929 . S
C274 C271 1.404 . S
C274 N272 1.334 . S
C275 H267 0.930 . S
C275 C270 1.418 . S
C275 C271 1.353 . S
C276 H246 0.930 . S
C276 N277 1.330 . S
C276 C278 1.446 . S
N277 Co236 2.151 . S
N277 C276 1.330 . S
N277 C281 1.418 . S
C278 H257 0.929 . S
C278 C276 1.446 . S
C278 C279 1.332 . S
C279 H259 0.931 . S
C279 C278 1.332 . S
C279 C280 1.267 . S
C280 H248 0.929 . S
C280 C279 1.267 . S
C280 C281 1.251 . S
C281 H251 0.929 . S
C281 N277 1.418 . S
C281 C280 1.251 . S
C282 H249 0.930 . S
C282 C284 1.406 . S
C282 C287 1.261 . S
C283 H250 0.930 . S
C283 N285 1.325 . S
C283 C286 1.357 . S
C284 H252 0.928 . S
C284 C282 1.406 . S
C284 N285 1.261 . S
N285 Co236 2.214 . S
N285 C283 1.325 . S
N285 C284 1.261 . S
C286 H256 0.931 . S
C286 C283 1.357 . S
C286 C287 1.312 . S
C287 H258 0.930 . S
C287 C282 1.261 . S
C287 C286 1.312 . S
C288 O260 1.214 . S
C288 O268 1.234 . S
C289 H261 0.929 . S
C289 C292 1.391 . S
C289 C294 1.391 . S
C290 H262 0.929 . S
C290 C291 1.390 . S
C290 N293 1.391 . S
C291 H263 0.930 . S
C291 C290 1.390 . S
C291 C292 1.392 . S
C292 H264 0.929 . S
C292 C289 1.391 . S
C292 C291 1.392 . S
N293 Co237 2.257 . S
N293 C290 1.391 . S
N293 C294 1.388 . S
C294 H265 0.930 . S
C294 C289 1.391 . S
C294 N293 1.388 . S
Co295 O297 2.143 . S
Co295 O303 2.074 . S
Co295 O306 2.093 . S
Co295 O319 2.097 . S
Co295 N336 2.151 . S
Co295 N344 2.214 . S
Co296 O297 2.160 . S
Co296 O302 2.058 . S
Co296 O312 2.057 . S
Co296 O327 2.037 . S
Co296 N331 2.145 . S
Co296 N352 2.257 . S
O297 Co295 2.143 . S
O297 Co296 2.160 . S
C298 O299 1.278 . S
C298 O306 1.224 . S
O299 C298 1.278 . S
C300 O301 1.245 . S
C300 O312 1.232 . S
O301 C300 1.245 . S
O302 Co296 2.058 . S
O302 C328 1.269 . S
O303 Co295 2.074 . S
O303 C328 1.257 . S
H304 C329 0.930 . S
H305 C335 0.930 . S
O306 Co295 2.093 . S
O306 C298 1.224 . S
H307 C339 0.929 . S
H308 C341 0.930 . S
H309 C342 0.930 . S
H310 C340 0.929 . S
H311 C343 0.928 . S
O312 Co296 2.057 . S
O312 C300 1.232 . S
H313 C332 0.929 . S
H314 C333 0.929 . S
H315 C345 0.931 . S
H316 C337 0.929 . S
H317 C346 0.930 . S
H318 C338 0.931 . S
O319 Co295 2.097 . S
O319 C347 1.214 . S
H320 C348 0.929 . S
H321 C349 0.929 . S
H322 C350 0.930 . S
H323 C351 0.929 . S
H324 C353 0.930 . S
H325 C330 0.930 . S
H326 C334 0.930 . S
O327 Co296 2.037 . S
O327 C347 1.234 . S
C328 O302 1.269 . S
C328 O303 1.257 . S
C329 H304 0.930 . S
C329 C332 1.388 . S
C329 C334 1.418 . S
C330 H325 0.930 . S
C330 C333 1.404 . S
C330 C334 1.353 . S
N331 Co296 2.145 . S
N331 C332 1.397 . S
N331 C333 1.334 . S
C332 H313 0.929 . S
C332 C329 1.388 . S
C332 N331 1.397 . S
C333 H314 0.929 . S
C333 C330 1.404 . S
C333 N331 1.334 . S
C334 H326 0.930 . S
C334 C329 1.418 . S
C334 C330 1.353 . S
C335 H305 0.930 . S
C335 N336 1.330 . S
C335 C337 1.446 . S
N336 Co295 2.151 . S
N336 C335 1.330 . S
N336 C340 1.418 . S
C337 H316 0.929 . S
C337 C335 1.446 . S
C337 C338 1.332 . S
C338 H318 0.931 . S
C338 C337 1.332 . S
C338 C339 1.267 . S
C339 H307 0.929 . S
C339 C338 1.267 . S
C339 C340 1.251 . S
C340 H310 0.929 . S
C340 N336 1.418 . S
C340 C339 1.251 . S
C341 H308 0.930 . S
C341 C343 1.406 . S
C341 C346 1.261 . S
C342 H309 0.930 . S
C342 N344 1.325 . S
C342 C345 1.357 . S
C343 H311 0.928 . S
C343 C341 1.406 . S
C343 N344 1.261 . S
N344 Co295 2.214 . S
N344 C342 1.325 . S
N344 C343 1.261 . S
C345 H315 0.931 . S
C345 C342 1.357 . S
C345 C346 1.312 . S
C346 H317 0.930 . S
C346 C341 1.261 . S
C346 C345 1.312 . S
C347 O319 1.214 . S
C347 O327 1.234 . S
C348 H320 0.929 . S
C348 C351 1.391 . S
C348 C353 1.391 . S
C349 H321 0.929 . S
C349 C350 1.390 . S
C349 N352 1.391 . S
C350 H322 0.930 . S
C350 C349 1.390 . S
C350 C351 1.392 . S
C351 H323 0.929 . S
C351 C348 1.391 . S
C351 C350 1.392 . S
N352 Co296 2.257 . S
N352 C349 1.391 . S
N352 C353 1.388 . S
C353 H324 0.930 . S
C353 C348 1.391 . S
C353 N352 1.388 . S
Co354 O356 2.143 1_545 S
Co354 O362 2.074 . S
Co354 O365 2.093 . S
Co354 O378 2.097 1_545 S
Co354 N395 2.151 . S
Co354 N403 2.214 . S
Co355 O356 2.160 . S
Co355 O361 2.058 . S
Co355 O371 2.057 . S
Co355 O386 2.037 . S
Co355 N390 2.145 . S
Co355 N411 2.257 . S
O356 Co354 2.143 1_565 S
O356 Co355 2.160 . S
C357 O358 1.278 . S
C357 O365 1.224 1_565 S
O358 C357 1.278 . S
C359 O360 1.245 . S
C359 O371 1.232 . S
O360 C359 1.245 . S
O361 Co355 2.058 . S
O361 C387 1.269 . S
O362 Co354 2.074 . S
O362 C387 1.257 1_545 S
H363 C388 0.930 . S
H364 C394 0.930 . S
O365 Co354 2.093 . S
O365 C357 1.224 1_545 S
H366 C398 0.929 . S
H367 C400 0.930 . S
H368 C401 0.930 . S
H369 C399 0.929 . S
H370 C402 0.928 . S
O371 Co355 2.057 . S
O371 C359 1.232 . S
H372 C391 0.929 . S
H373 C392 0.929 . S
H374 C404 0.931 . S
H375 C396 0.929 . S
H376 C405 0.930 . S
H377 C397 0.931 . S
O378 Co354 2.097 1_565 S
O378 C406 1.214 . S
H379 C407 0.929 . S
H380 C408 0.929 . S
H381 C409 0.930 . S
H382 C410 0.929 . S
H383 C412 0.930 . S
H384 C389 0.930 . S
H385 C393 0.930 . S
O386 Co355 2.037 . S
O386 C406 1.234 . S
C387 O361 1.269 . S
C387 O362 1.257 1_565 S
C388 H363 0.930 . S
C388 C391 1.388 . S
C388 C393 1.418 . S
C389 H384 0.930 . S
C389 C392 1.404 . S
C389 C393 1.353 . S
N390 Co355 2.145 . S
N390 C391 1.397 . S
N390 C392 1.334 . S
C391 H372 0.929 . S
C391 C388 1.388 . S
C391 N390 1.397 . S
C392 H373 0.929 . S
C392 C389 1.404 . S
C392 N390 1.334 . S
C393 H385 0.930 . S
C393 C388 1.418 . S
C393 C389 1.353 . S
C394 H364 0.930 . S
C394 N395 1.330 . S
C394 C396 1.446 . S
N395 Co354 2.151 . S
N395 C394 1.330 . S
N395 C399 1.418 . S
C396 H375 0.929 . S
C396 C394 1.446 . S
C396 C397 1.332 . S
C397 H377 0.931 . S
C397 C396 1.332 . S
C397 C398 1.267 . S
C398 H366 0.929 . S
C398 C397 1.267 . S
C398 C399 1.251 . S
C399 H369 0.929 . S
C399 N395 1.418 . S
C399 C398 1.251 . S
C400 H367 0.930 . S
C400 C402 1.406 . S
C400 C405 1.261 . S
C401 H368 0.930 . S
C401 N403 1.325 . S
C401 C404 1.357 . S
C402 H370 0.928 . S
C402 C400 1.406 . S
C402 N403 1.261 . S
N403 Co354 2.214 . S
N403 C401 1.325 . S
N403 C402 1.261 . S
C404 H374 0.931 . S
C404 C401 1.357 . S
C404 C405 1.312 . S
C405 H376 0.930 . S
C405 C400 1.261 . S
C405 C404 1.312 . S
C406 O378 1.214 . S
C406 O386 1.234 . S
C407 H379 0.929 . S
C407 C410 1.391 . S
C407 C412 1.391 . S
C408 H380 0.929 . S
C408 C409 1.390 . S
C408 N411 1.391 . S
C409 H381 0.930 . S
C409 C408 1.390 . S
C409 C410 1.392 . S
C410 H382 0.929 . S
C410 C407 1.391 . S
C410 C409 1.392 . S
N411 Co355 2.257 . S
N411 C408 1.391 . S
N411 C412 1.388 . S
C412 H383 0.930 . S
C412 C407 1.391 . S
C412 N411 1.388 . S
Co413 O415 2.143 . S
Co413 O421 2.074 . S
Co413 O424 2.093 . S
Co413 O437 2.097 . S
Co413 N454 2.151 . S
Co413 N462 2.214 . S
Co414 O415 2.160 . S
Co414 O420 2.058 . S
Co414 O430 2.057 . S
Co414 O445 2.037 . S
Co414 N449 2.145 . S
Co414 N470 2.257 . S
O415 Co413 2.143 . S
O415 Co414 2.160 . S
C416 O417 1.278 . S
C416 O424 1.224 . S
O417 C416 1.278 . S
C418 O419 1.245 . S
C418 O430 1.232 . S
O419 C418 1.245 . S
O420 Co414 2.058 . S
O420 C446 1.269 . S
O421 Co413 2.074 . S
O421 C446 1.257 . S
H422 C447 0.930 . S
H423 C453 0.930 . S
O424 Co413 2.093 . S
O424 C416 1.224 . S
H425 C457 0.929 . S
H426 C459 0.930 . S
H427 C460 0.930 . S
H428 C458 0.929 . S
H429 C461 0.928 . S
O430 Co414 2.057 . S
O430 C418 1.232 . S
H431 C450 0.929 . S
H432 C451 0.929 . S
H433 C463 0.931 . S
H434 C455 0.929 . S
H435 C464 0.930 . S
H436 C456 0.931 . S
O437 Co413 2.097 . S
O437 C465 1.214 . S
H438 C466 0.929 . S
H439 C467 0.929 . S
H440 C468 0.930 . S
H441 C469 0.929 . S
H442 C471 0.930 . S
H443 C448 0.930 . S
H444 C452 0.930 . S
O445 Co414 2.037 . S
O445 C465 1.234 . S
C446 O420 1.269 . S
C446 O421 1.257 . S
C447 H422 0.930 . S
C447 C450 1.388 . S
C447 C452 1.418 . S
C448 H443 0.930 . S
C448 C451 1.404 . S
C448 C452 1.353 . S
N449 Co414 2.145 . S
N449 C450 1.397 . S
N449 C451 1.334 . S
C450 H431 0.929 . S
C450 C447 1.388 . S
C450 N449 1.397 . S
C451 H432 0.929 . S
C451 C448 1.404 . S
C451 N449 1.334 . S
C452 H444 0.930 . S
C452 C447 1.418 . S
C452 C448 1.353 . S
C453 H423 0.930 . S
C453 N454 1.330 . S
C453 C455 1.446 . S
N454 Co413 2.151 . S
N454 C453 1.330 . S
N454 C458 1.418 . S
C455 H434 0.929 . S
C455 C453 1.446 . S
C455 C456 1.332 . S
C456 H436 0.931 . S
C456 C455 1.332 . S
C456 C457 1.267 . S
C457 H425 0.929 . S
C457 C456 1.267 . S
C457 C458 1.251 . S
C458 H428 0.929 . S
C458 N454 1.418 . S
C458 C457 1.251 . S
C459 H426 0.930 . S
C459 C461 1.406 . S
C459 C464 1.261 . S
C460 H427 0.930 . S
C460 N462 1.325 . S
C460 C463 1.357 . S
C461 H429 0.928 . S
C461 C459 1.406 . S
C461 N462 1.261 . S
N462 Co413 2.214 . S
N462 C460 1.325 . S
N462 C461 1.261 . S
C463 H433 0.931 . S
C463 C460 1.357 . S
C463 C464 1.312 . S
C464 H435 0.930 . S
C464 C459 1.261 . S
C464 C463 1.312 . S
C465 O437 1.214 . S
C465 O445 1.234 . S
C466 H438 0.929 . S
C466 C469 1.391 . S
C466 C471 1.391 . S
C467 H439 0.929 . S
C467 C468 1.390 . S
C467 N470 1.391 . S
C468 H440 0.930 . S
C468 C467 1.390 . S
C468 C469 1.392 . S
C469 H441 0.929 . S
C469 C466 1.391 . S
C469 C468 1.392 . S
N470 Co414 2.257 . S
N470 C467 1.391 . S
N470 C471 1.388 . S
C471 H442 0.930 . S
C471 C466 1.391 . S
C471 N470 1.388 . S
Co472 O474 2.143 1_655 S
Co472 O480 2.074 . S
Co472 O483 2.093 . S
Co472 O496 2.097 1_655 S
Co472 N513 2.151 . S
Co472 N521 2.214 . S
Co473 O474 2.160 . S
Co473 O479 2.058 . S
Co473 O489 2.057 . S
Co473 O504 2.037 . S
Co473 N508 2.145 . S
Co473 N529 2.257 . S
O474 Co472 2.143 1_455 S
O474 Co473 2.160 . S
C475 O476 1.278 . S
C475 O483 1.224 1_455 S
O476 C475 1.278 . S
C477 O478 1.245 . S
C477 O489 1.232 . S
O478 C477 1.245 . S
O479 Co473 2.058 . S
O479 C505 1.269 . S
O480 Co472 2.074 . S
O480 C505 1.257 1_655 S
H481 C506 0.930 . S
H482 C512 0.930 . S
O483 Co472 2.093 . S
O483 C475 1.224 1_655 S
H484 C516 0.929 . S
H485 C518 0.930 . S
H486 C519 0.930 . S
H487 C517 0.929 . S
H488 C520 0.928 . S
O489 Co473 2.057 . S
O489 C477 1.232 . S
H490 C509 0.929 . S
H491 C510 0.929 . S
H492 C522 0.931 . S
H493 C514 0.929 . S
H494 C523 0.930 . S
H495 C515 0.931 . S
O496 Co472 2.097 1_455 S
O496 C524 1.214 . S
H497 C525 0.929 . S
H498 C526 0.929 . S
H499 C527 0.930 . S
H500 C528 0.929 . S
H501 C530 0.930 . S
H502 C507 0.930 . S
H503 C511 0.930 . S
O504 Co473 2.037 . S
O504 C524 1.234 . S
C505 O479 1.269 . S
C505 O480 1.257 1_455 S
C506 H481 0.930 . S
C506 C509 1.388 . S
C506 C511 1.418 . S
C507 H502 0.930 . S
C507 C510 1.404 . S
C507 C511 1.353 . S
N508 Co473 2.145 . S
N508 C509 1.397 . S
N508 C510 1.334 . S
C509 H490 0.929 . S
C509 C506 1.388 . S
C509 N508 1.397 . S
C510 H491 0.929 . S
C510 C507 1.404 . S
C510 N508 1.334 . S
C511 H503 0.930 . S
C511 C506 1.418 . S
C511 C507 1.353 . S
C512 H482 0.930 . S
C512 N513 1.330 . S
C512 C514 1.446 . S
N513 Co472 2.151 . S
N513 C512 1.330 . S
N513 C517 1.418 . S
C514 H493 0.929 . S
C514 C512 1.446 . S
C514 C515 1.332 . S
C515 H495 0.931 . S
C515 C514 1.332 . S
C515 C516 1.267 . S
C516 H484 0.929 . S
C516 C515 1.267 . S
C516 C517 1.251 . S
C517 H487 0.929 . S
C517 N513 1.418 . S
C517 C516 1.251 . S
C518 H485 0.930 . S
C518 C520 1.406 . S
C518 C523 1.261 . S
C519 H486 0.930 . S
C519 N521 1.325 . S
C519 C522 1.357 . S
C520 H488 0.928 . S
C520 C518 1.406 . S
C520 N521 1.261 . S
N521 Co472 2.214 . S
N521 C519 1.325 . S
N521 C520 1.261 . S
C522 H492 0.931 . S
C522 C519 1.357 . S
C522 C523 1.312 . S
C523 H494 0.930 . S
C523 C518 1.261 . S
C523 C522 1.312 . S
C524 O496 1.214 . S
C524 O504 1.234 . S
C525 H497 0.929 . S
C525 C528 1.391 . S
C525 C530 1.391 . S
C526 H498 0.929 . S
C526 C527 1.390 . S
C526 N529 1.391 . S
C527 H499 0.930 . S
C527 C526 1.390 . S
C527 C528 1.392 . S
C528 H500 0.929 . S
C528 C525 1.391 . S
C528 C527 1.392 . S
N529 Co473 2.257 . S
N529 C526 1.391 . S
N529 C530 1.388 . S
C530 H501 0.930 . S
C530 C525 1.391 . S
C530 N529 1.388 . S
Co531 O533 2.143 1_565 S
Co531 O539 2.074 . S
Co531 O542 2.093 . S
Co531 O555 2.097 1_565 S
Co531 N572 2.151 . S
Co531 N580 2.214 . S
Co532 O533 2.160 . S
Co532 O538 2.058 . S
Co532 O548 2.057 . S
Co532 O563 2.037 . S
Co532 N567 2.145 . S
Co532 N588 2.257 . S
O533 Co531 2.143 1_545 S
O533 Co532 2.160 . S
C534 O535 1.278 . S
C534 O542 1.224 1_545 S
O535 C534 1.278 . S
C536 O537 1.245 . S
C536 O548 1.232 . S
O537 C536 1.245 . S
O538 Co532 2.058 . S
O538 C564 1.269 . S
O539 Co531 2.074 . S
O539 C564 1.257 1_565 S
H540 C565 0.930 . S
H541 C571 0.930 . S
O542 Co531 2.093 . S
O542 C534 1.224 1_565 S
H543 C575 0.929 . S
H544 C577 0.930 . S
H545 C578 0.930 . S
H546 C576 0.929 . S
H547 C579 0.928 . S
O548 Co532 2.057 . S
O548 C536 1.232 . S
H549 C568 0.929 . S
H550 C569 0.929 . S
H551 C581 0.931 . S
H552 C573 0.929 . S
H553 C582 0.930 . S
H554 C574 0.931 . S
O555 Co531 2.097 1_545 S
O555 C583 1.214 . S
H556 C584 0.929 . S
H557 C585 0.929 . S
H558 C586 0.930 . S
H559 C587 0.929 . S
H560 C589 0.930 . S
H561 C566 0.930 . S
H562 C570 0.930 . S
O563 Co532 2.037 . S
O563 C583 1.234 . S
C564 O538 1.269 . S
C564 O539 1.257 1_545 S
C565 H540 0.930 . S
C565 C568 1.388 . S
C565 C570 1.418 . S
C566 H561 0.930 . S
C566 C569 1.404 . S
C566 C570 1.353 . S
N567 Co532 2.145 . S
N567 C568 1.397 . S
N567 C569 1.334 . S
C568 H549 0.929 . S
C568 C565 1.388 . S
C568 N567 1.397 . S
C569 H550 0.929 . S
C569 C566 1.404 . S
C569 N567 1.334 . S
C570 H562 0.930 . S
C570 C565 1.418 . S
C570 C566 1.353 . S
C571 H541 0.930 . S
C571 N572 1.330 . S
C571 C573 1.446 . S
N572 Co531 2.151 . S
N572 C571 1.330 . S
N572 C576 1.418 . S
C573 H552 0.929 . S
C573 C571 1.446 . S
C573 C574 1.332 . S
C574 H554 0.931 . S
C574 C573 1.332 . S
C574 C575 1.267 . S
C575 H543 0.929 . S
C575 C574 1.267 . S
C575 C576 1.251 . S
C576 H546 0.929 . S
C576 N572 1.418 . S
C576 C575 1.251 . S
C577 H544 0.930 . S
C577 C579 1.406 . S
C577 C582 1.261 . S
C578 H545 0.930 . S
C578 N580 1.325 . S
C578 C581 1.357 . S
C579 H547 0.928 . S
C579 C577 1.406 . S
C579 N580 1.261 . S
N580 Co531 2.214 . S
N580 C578 1.325 . S
N580 C579 1.261 . S
C581 H551 0.931 . S
C581 C578 1.357 . S
C581 C582 1.312 . S
C582 H553 0.930 . S
C582 C577 1.261 . S
C582 C581 1.312 . S
C583 O555 1.214 . S
C583 O563 1.234 . S
C584 H556 0.929 . S
C584 C587 1.391 . S
C584 C589 1.391 . S
C585 H557 0.929 . S
C585 C586 1.390 . S
C585 N588 1.391 . S
C586 H558 0.930 . S
C586 C585 1.390 . S
C586 C587 1.392 . S
C587 H559 0.929 . S
C587 C584 1.391 . S
C587 C586 1.392 . S
N588 Co532 2.257 . S
N588 C585 1.391 . S
N588 C589 1.388 . S
C589 H560 0.930 . S
C589 C584 1.391 . S
C589 N588 1.388 . S
Co590 O592 2.143 . S
Co590 O598 2.074 . S
Co590 O601 2.093 . S
Co590 O614 2.097 . S
Co590 N631 2.151 . S
Co590 N639 2.214 . S
Co591 O592 2.160 . S
Co591 O597 2.058 . S
Co591 O607 2.057 . S
Co591 O622 2.037 . S
Co591 N626 2.145 . S
Co591 N647 2.257 . S
O592 Co590 2.143 . S
O592 Co591 2.160 . S
C593 O594 1.278 . S
C593 O601 1.224 . S
O594 C593 1.278 . S
C595 O596 1.245 . S
C595 O607 1.232 . S
O596 C595 1.245 . S
O597 Co591 2.058 . S
O597 C623 1.269 . S
O598 Co590 2.074 . S
O598 C623 1.257 . S
H599 C624 0.930 . S
H600 C630 0.930 . S
O601 Co590 2.093 . S
O601 C593 1.224 . S
H602 C634 0.929 . S
H603 C636 0.930 . S
H604 C637 0.930 . S
H605 C635 0.929 . S
H606 C638 0.928 . S
O607 Co591 2.057 . S
O607 C595 1.232 . S
H608 C627 0.929 . S
H609 C628 0.929 . S
H610 C640 0.931 . S
H611 C632 0.929 . S
H612 C641 0.930 . S
H613 C633 0.931 . S
O614 Co590 2.097 . S
O614 C642 1.214 . S
H615 C643 0.929 . S
H616 C644 0.929 . S
H617 C645 0.930 . S
H618 C646 0.929 . S
H619 C648 0.930 . S
H620 C625 0.930 . S
H621 C629 0.930 . S
O622 Co591 2.037 . S
O622 C642 1.234 . S
C623 O597 1.269 . S
C623 O598 1.257 . S
C624 H599 0.930 . S
C624 C627 1.388 . S
C624 C629 1.418 . S
C625 H620 0.930 . S
C625 C628 1.404 . S
C625 C629 1.353 . S
N626 Co591 2.145 . S
N626 C627 1.397 . S
N626 C628 1.334 . S
C627 H608 0.929 . S
C627 C624 1.388 . S
C627 N626 1.397 . S
C628 H609 0.929 . S
C628 C625 1.404 . S
C628 N626 1.334 . S
C629 H621 0.930 . S
C629 C624 1.418 . S
C629 C625 1.353 . S
C630 H600 0.930 . S
C630 N631 1.330 . S
C630 C632 1.446 . S
N631 Co590 2.151 . S
N631 C630 1.330 . S
N631 C635 1.418 . S
C632 H611 0.929 . S
C632 C630 1.446 . S
C632 C633 1.332 . S
C633 H613 0.931 . S
C633 C632 1.332 . S
C633 C634 1.267 . S
C634 H602 0.929 . S
C634 C633 1.267 . S
C634 C635 1.251 . S
C635 H605 0.929 . S
C635 N631 1.418 . S
C635 C634 1.251 . S
C636 H603 0.930 . S
C636 C638 1.406 . S
C636 C641 1.261 . S
C637 H604 0.930 . S
C637 N639 1.325 . S
C637 C640 1.357 . S
C638 H606 0.928 . S
C638 C636 1.406 . S
C638 N639 1.261 . S
N639 Co590 2.214 . S
N639 C637 1.325 . S
N639 C638 1.261 . S
C640 H610 0.931 . S
C640 C637 1.357 . S
C640 C641 1.312 . S
C641 H612 0.930 . S
C641 C636 1.261 . S
C641 C640 1.312 . S
C642 O614 1.214 . S
C642 O622 1.234 . S
C643 H615 0.929 . S
C643 C646 1.391 . S
C643 C648 1.391 . S
C644 H616 0.929 . S
C644 C645 1.390 . S
C644 N647 1.391 . S
C645 H617 0.930 . S
C645 C644 1.390 . S
C645 C646 1.392 . S
C646 H618 0.929 . S
C646 C643 1.391 . S
C646 C645 1.392 . S
N647 Co591 2.257 . S
N647 C644 1.391 . S
N647 C648 1.388 . S
C648 H619 0.930 . S
C648 C643 1.391 . S
C648 N647 1.388 . S
Co649 O651 2.143 1_455 S
Co649 O657 2.074 . S
Co649 O660 2.093 . S
Co649 O673 2.097 1_455 S
Co649 N690 2.151 . S
Co649 N698 2.214 . S
Co650 O651 2.160 . S
Co650 O656 2.058 . S
Co650 O666 2.057 . S
Co650 O681 2.037 . S
Co650 N685 2.145 . S
Co650 N706 2.257 . S
O651 Co649 2.143 1_655 S
O651 Co650 2.160 . S
C652 O653 1.278 . S
C652 O660 1.224 1_655 S
O653 C652 1.278 . S
C654 O655 1.245 . S
C654 O666 1.232 . S
O655 C654 1.245 . S
O656 Co650 2.058 . S
O656 C682 1.269 . S
O657 Co649 2.074 . S
O657 C682 1.257 1_455 S
H658 C683 0.930 . S
H659 C689 0.930 . S
O660 Co649 2.093 . S
O660 C652 1.224 1_455 S
H661 C693 0.929 . S
H662 C695 0.930 . S
H663 C696 0.930 . S
H664 C694 0.929 . S
H665 C697 0.928 . S
O666 Co650 2.057 . S
O666 C654 1.232 . S
H667 C686 0.929 . S
H668 C687 0.929 . S
H669 C699 0.931 . S
H670 C691 0.929 . S
H671 C700 0.930 . S
H672 C692 0.931 . S
O673 Co649 2.097 1_655 S
O673 C701 1.214 . S
H674 C702 0.929 . S
H675 C703 0.929 . S
H676 C704 0.930 . S
H677 C705 0.929 . S
H678 C707 0.930 . S
H679 C684 0.930 . S
H680 C688 0.930 . S
O681 Co650 2.037 . S
O681 C701 1.234 . S
C682 O656 1.269 . S
C682 O657 1.257 1_655 S
C683 H658 0.930 . S
C683 C686 1.388 . S
C683 C688 1.418 . S
C684 H679 0.930 . S
C684 C687 1.404 . S
C684 C688 1.353 . S
N685 Co650 2.145 . S
N685 C686 1.397 . S
N685 C687 1.334 . S
C686 H667 0.929 . S
C686 C683 1.388 . S
C686 N685 1.397 . S
C687 H668 0.929 . S
C687 C684 1.404 . S
C687 N685 1.334 . S
C688 H680 0.930 . S
C688 C683 1.418 . S
C688 C684 1.353 . S
C689 H659 0.930 . S
C689 N690 1.330 . S
C689 C691 1.446 . S
N690 Co649 2.151 . S
N690 C689 1.330 . S
N690 C694 1.418 . S
C691 H670 0.929 . S
C691 C689 1.446 . S
C691 C692 1.332 . S
C692 H672 0.931 . S
C692 C691 1.332 . S
C692 C693 1.267 . S
C693 H661 0.929 . S
C693 C692 1.267 . S
C693 C694 1.251 . S
C694 H664 0.929 . S
C694 N690 1.418 . S
C694 C693 1.251 . S
C695 H662 0.930 . S
C695 C697 1.406 . S
C695 C700 1.261 . S
C696 H663 0.930 . S
C696 N698 1.325 . S
C696 C699 1.357 . S
C697 H665 0.928 . S
C697 C695 1.406 . S
C697 N698 1.261 . S
N698 Co649 2.214 . S
N698 C696 1.325 . S
N698 C697 1.261 . S
C699 H669 0.931 . S
C699 C696 1.357 . S
C699 C700 1.312 . S
C700 H671 0.930 . S
C700 C695 1.261 . S
C700 C699 1.312 . S
C701 O673 1.214 . S
C701 O681 1.234 . S
C702 H674 0.929 . S
C702 C705 1.391 . S
C702 C707 1.391 . S
C703 H675 0.929 . S
C703 C704 1.390 . S
C703 N706 1.391 . S
C704 H676 0.930 . S
C704 C703 1.390 . S
C704 C705 1.392 . S
C705 H677 0.929 . S
C705 C702 1.391 . S
C705 C704 1.392 . S
N706 Co650 2.257 . S
N706 C703 1.391 . S
N706 C707 1.388 . S
C707 H678 0.930 . S
C707 C702 1.391 . S
C707 N706 1.388 . S
C708 C709 1.369 1_655 S
C708 C710 1.419 1_554 S
C708 H712 0.930 . S
C709 C708 1.369 1_455 S
C709 C718 1.429 . S
C710 C708 1.419 1_556 S
C710 C711 1.363 . S
C710 H713 0.929 . S
C711 C710 1.363 . S
C711 C717 1.428 1_655 S
H712 C708 0.930 . S
H713 C710 0.929 . S
S714 N715 1.613 1_556 S
S714 N716 1.610 . S
N715 S714 1.613 1_554 S
N715 C718 1.350 . S
N716 S714 1.610 . S
N716 C717 1.351 . S
C717 C711 1.428 1_455 S
C717 N716 1.351 . S
C717 C718 1.434 1_556 S
C718 C709 1.429 . S
C718 N715 1.350 . S
C718 C717 1.434 1_554 S
C719 C720 1.369 1_545 S
C719 C721 1.419 . S
C719 H723 0.930 . S
C720 C719 1.369 1_565 S
C720 C729 1.429 . S
C721 C719 1.419 . S
C721 C722 1.363 . S
C721 H724 0.929 . S
C722 C721 1.363 . S
C722 C728 1.428 1_545 S
H723 C719 0.930 . S
H724 C721 0.929 . S
S725 N726 1.613 . S
S725 N727 1.610 . S
N726 S725 1.613 . S
N726 C729 1.350 . S
N727 S725 1.610 . S
N727 C728 1.351 . S
C728 C722 1.428 1_565 S
C728 N727 1.351 . S
C728 C729 1.434 . S
C729 C720 1.429 . S
C729 N726 1.350 . S
C729 C728 1.434 . S
C730 C731 1.369 . S
C730 C732 1.419 1_554 S
C730 H734 0.930 . S
C731 C730 1.369 . S
C731 C740 1.429 . S
C732 C730 1.419 1_556 S
C732 C733 1.363 . S
C732 H735 0.929 . S
C733 C732 1.363 . S
C733 C739 1.428 . S
H734 C730 0.930 . S
H735 C732 0.929 . S
S736 N737 1.613 . S
S736 N738 1.610 1_554 S
N737 S736 1.613 . S
N737 C740 1.350 . S
N738 S736 1.610 1_556 S
N738 C739 1.351 . S
C739 C733 1.428 . S
C739 N738 1.351 . S
C739 C740 1.434 1_556 S
C740 C731 1.429 . S
C740 N737 1.350 . S
C740 C739 1.434 1_554 S
C741 C742 1.369 . S
C741 C743 1.419 . S
C741 H745 0.930 . S
C742 C741 1.369 . S
C742 C751 1.429 1_455 S
C743 C741 1.419 . S
C743 C744 1.363 1_455 S
C743 H746 0.929 . S
C744 C743 1.363 1_655 S
C744 C750 1.428 . S
H745 C741 0.930 . S
H746 C743 0.929 . S
S747 N748 1.613 . S
S747 N749 1.610 . S
N748 S747 1.613 . S
N748 C751 1.350 . S
N749 S747 1.610 . S
N749 C750 1.351 . S
C750 C744 1.428 . S
C750 N749 1.351 . S
C750 C751 1.434 . S
C751 C742 1.429 1_655 S
C751 N748 1.350 . S
C751 C750 1.434 . S
C752 C753 1.369 . S
C752 C754 1.419 1_556 S
C752 H756 0.930 . S
C753 C752 1.369 . S
C753 C762 1.429 1_545 S
C754 C752 1.419 1_554 S
C754 C755 1.363 1_545 S
C754 H757 0.929 . S
C755 C754 1.363 1_565 S
C755 C761 1.428 . S
H756 C752 0.930 . S
H757 C754 0.929 . S
S758 N759 1.613 . S
S758 N760 1.610 1_556 S
N759 S758 1.613 . S
N759 C762 1.350 . S
N760 S758 1.610 1_554 S
N760 C761 1.351 . S
C761 C755 1.428 . S
C761 N760 1.351 . S
C761 C762 1.434 1_554 S
C762 C753 1.429 1_565 S
C762 N759 1.350 . S
C762 C761 1.434 1_556 S
C763 C764 1.369 . S
C763 C765 1.419 . S
C763 H767 0.930 . S
C764 C763 1.369 . S
C764 C773 1.429 . S
C765 C763 1.419 . S
C765 C766 1.363 . S
C765 H768 0.929 . S
C766 C765 1.363 . S
C766 C772 1.428 . S
H767 C763 0.930 . S
H768 C765 0.929 . S
S769 N770 1.613 . S
S769 N771 1.610 . S
N770 S769 1.613 . S
N770 C773 1.350 . S
N771 S769 1.610 . S
N771 C772 1.351 . S
C772 C766 1.428 . S
C772 N771 1.351 . S
C772 C773 1.434 . S
C773 C764 1.429 . S
C773 N770 1.350 . S
C773 C772 1.434 . S
C774 C775 1.369 . S
C774 C776 1.419 1_556 S
C774 H778 0.930 . S
C775 C774 1.369 . S
C775 C784 1.429 1_655 S
C776 C774 1.419 1_554 S
C776 C777 1.363 1_655 S
C776 H779 0.929 . S
C777 C776 1.363 1_455 S
C777 C783 1.428 . S
H778 C774 0.930 . S
H779 C776 0.929 . S
S780 N781 1.613 . S
S780 N782 1.610 1_556 S
N781 S780 1.613 . S
N781 C784 1.350 . S
N782 S780 1.610 1_554 S
N782 C783 1.351 . S
C783 C777 1.428 . S
C783 N782 1.351 . S
C783 C784 1.434 1_554 S
C784 C775 1.429 1_455 S
C784 N781 1.350 . S
C784 C783 1.434 1_556 S
C785 C786 1.369 . S
C785 C787 1.419 . S
C785 H789 0.930 . S
C786 C785 1.369 . S
C786 C795 1.429 1_565 S
C787 C785 1.419 . S
C787 C788 1.363 1_565 S
C787 H790 0.929 . S
C788 C787 1.363 1_545 S
C788 C794 1.428 . S
H789 C785 0.930 . S
H790 C787 0.929 . S
S791 N792 1.613 . S
S791 N793 1.610 . S
N792 S791 1.613 . S
N792 C795 1.350 . S
N793 S791 1.610 . S
N793 C794 1.351 . S
C794 C788 1.428 . S
C794 N793 1.351 . S
C794 C795 1.434 . S
C795 C786 1.429 1_545 S
C795 N792 1.350 . S
C795 C794 1.434 . S
C796 C797 1.369 . S
C796 C798 1.419 1_556 S
C796 H800 0.930 . S
C797 C796 1.369 . S
C797 C806 1.429 . S
C798 C796 1.419 1_554 S
C798 C799 1.363 . S
C798 H801 0.929 . S
C799 C798 1.363 . S
C799 C805 1.428 . S
H800 C796 0.930 . S
H801 C798 0.929 . S
S802 N803 1.613 1_554 S
S802 N804 1.610 . S
N803 S802 1.613 1_556 S
N803 C806 1.350 . S
N804 S802 1.610 . S
N804 C805 1.351 . S
C805 C799 1.428 . S
C805 N804 1.351 . S
C805 C806 1.434 1_554 S
C806 C797 1.429 . S
C806 N803 1.350 . S
C806 C805 1.434 1_556 S
C807 C808 1.369 1_455 S
C807 C809 1.419 . S
C807 H811 0.930 . S
C808 C807 1.369 1_655 S
C808 C817 1.429 . S
C809 C807 1.419 . S
C809 C810 1.363 . S
C809 H812 0.929 . S
C810 C809 1.363 . S
C810 C816 1.428 1_455 S
H811 C807 0.930 . S
H812 C809 0.929 . S
S813 N814 1.613 . S
S813 N815 1.610 . S
N814 S813 1.613 . S
N814 C817 1.350 . S
N815 S813 1.610 . S
N815 C816 1.351 . S
C816 C810 1.428 1_655 S
C816 N815 1.351 . S
C816 C817 1.434 . S
C817 C808 1.429 . S
C817 N814 1.350 . S
C817 C816 1.434 . S
C818 C819 1.369 1_565 S
C818 C820 1.419 1_556 S
C818 H822 0.930 . S
C819 C818 1.369 1_545 S
C819 C828 1.429 . S
C820 C818 1.419 1_554 S
C820 C821 1.363 . S
C820 H823 0.929 . S
C821 C820 1.363 . S
C821 C827 1.428 1_565 S
H822 C818 0.930 . S
H823 C820 0.929 . S
S824 N825 1.613 1_554 S
S824 N826 1.610 . S
N825 S824 1.613 1_556 S
N825 C828 1.350 . S
N826 S824 1.610 . S
N826 C827 1.351 . S
C827 C821 1.428 1_545 S
C827 N826 1.351 . S
C827 C828 1.434 1_554 S
C828 C819 1.429 . S
C828 N825 1.350 . S
C828 C827 1.434 1_556 S
C829 C830 1.369 . S
C829 C831 1.419 . S
C829 H833 0.930 . S
C830 C829 1.369 . S
C830 C839 1.429 . S
C831 C829 1.419 . S
C831 C832 1.363 . S
C831 H834 0.929 . S
C832 C831 1.363 . S
C832 C838 1.428 . S
H833 C829 0.930 . S
H834 C831 0.929 . S
S835 N836 1.613 . S
S835 N837 1.610 . S
N836 S835 1.613 . S
N836 C839 1.350 . S
N837 S835 1.610 . S
N837 C838 1.351 . S
C838 C832 1.428 . S
C838 N837 1.351 . S
C838 C839 1.434 . S
C839 C830 1.429 . S
C839 N836 1.350 . S
C839 C838 1.434 . S
C840 C841 1.369 . S
C840 C842 1.419 . S
C840 H844 0.930 . S
C841 C840 1.369 . S
C841 C850 1.429 . S
C842 C840 1.419 . S
C842 C843 1.363 . S
C842 H845 0.929 . S
C843 C842 1.363 . S
C843 C849 1.428 . S
H844 C840 0.930 . S
H845 C842 0.929 . S
S846 N847 1.613 . S
S846 N848 1.610 . S
N847 S846 1.613 . S
N847 C850 1.350 . S
N848 S846 1.610 . S
N848 C849 1.351 . S
C849 C843 1.428 . S
C849 N848 1.351 . S
C849 C850 1.434 . S
C850 C841 1.429 . S
C850 N847 1.350 . S
C850 C849 1.434 . S
C851 C852 1.369 1_565 S
C851 C853 1.419 . S
C851 H855 0.930 . S
C852 C851 1.369 1_545 S
C852 C861 1.429 . S
C853 C851 1.419 . S
C853 C854 1.363 1_565 S
C853 H856 0.929 . S
C854 C853 1.363 1_545 S
C854 C860 1.428 . S
H855 C851 0.930 . S
H856 C853 0.929 . S
S857 N858 1.613 . S
S857 N859 1.610 . S
N858 S857 1.613 . S
N858 C861 1.350 . S
N859 S857 1.610 . S
N859 C860 1.351 . S
C860 C854 1.428 . S
C860 N859 1.351 . S
C860 C861 1.434 . S
C861 C852 1.429 . S
C861 N858 1.350 . S
C861 C860 1.434 . S
C862 C863 1.369 . S
C862 C864 1.419 . S
C862 H866 0.930 . S
C863 C862 1.369 . S
C863 C872 1.429 . S
C864 C862 1.419 . S
C864 C865 1.363 . S
C864 H867 0.929 . S
C865 C864 1.363 . S
C865 C871 1.428 . S
H866 C862 0.930 . S
H867 C864 0.929 . S
S868 N869 1.613 . S
S868 N870 1.610 . S
N869 S868 1.613 . S
N869 C872 1.350 . S
N870 S868 1.610 . S
N870 C871 1.351 . S
C871 C865 1.428 . S
C871 N870 1.351 . S
C871 C872 1.434 . S
C872 C863 1.429 . S
C872 N869 1.350 . S
C872 C871 1.434 . S
C873 C874 1.369 . S
C873 C875 1.419 . S
C873 H877 0.930 . S
C874 C873 1.369 . S
C874 C883 1.429 . S
C875 C873 1.419 . S
C875 C876 1.363 . S
C875 H878 0.929 . S
C876 C875 1.363 . S
C876 C882 1.428 . S
H877 C873 0.930 . S
H878 C875 0.929 . S
S879 N880 1.613 . S
S879 N881 1.610 . S
N880 S879 1.613 . S
N880 C883 1.350 . S
N881 S879 1.610 . S
N881 C882 1.351 . S
C882 C876 1.428 . S
C882 N881 1.351 . S
C882 C883 1.434 . S
C883 C874 1.429 . S
C883 N880 1.350 . S
C883 C882 1.434 . S
C884 C885 1.369 . S
C884 C886 1.419 . S
C884 H888 0.930 . S
C885 C884 1.369 . S
C885 C894 1.429 . S
C886 C884 1.419 . S
C886 C887 1.363 . S
C886 H889 0.929 . S
C887 C886 1.363 . S
C887 C893 1.428 . S
H888 C884 0.930 . S
H889 C886 0.929 . S
S890 N891 1.613 1_545 S
S890 N892 1.610 1_545 S
N891 S890 1.613 1_565 S
N891 C894 1.350 . S
N892 S890 1.610 1_565 S
N892 C893 1.351 . S
C893 C887 1.428 . S
C893 N892 1.351 . S
C893 C894 1.434 . S
C894 C885 1.429 . S
C894 N891 1.350 . S
C894 C893 1.434 . S
C895 C896 1.369 . S
C895 C897 1.419 . S
C895 H899 0.930 . S
C896 C895 1.369 . S
C896 C905 1.429 . S
C897 C895 1.419 . S
C897 C898 1.363 . S
C897 H900 0.929 . S
C898 C897 1.363 . S
C898 C904 1.428 . S
H899 C895 0.930 . S
H900 C897 0.929 . S
S901 N902 1.613 . S
S901 N903 1.610 . S
N902 S901 1.613 . S
N902 C905 1.350 . S
N903 S901 1.610 . S
N903 C904 1.351 . S
C904 C898 1.428 . S
C904 N903 1.351 . S
C904 C905 1.434 . S
C905 C896 1.429 . S
C905 N902 1.350 . S
C905 C904 1.434 . S
C906 C907 1.369 . S
C906 C908 1.419 . S
C906 H910 0.930 . S
C907 C906 1.369 . S
C907 C916 1.429 . S
C908 C906 1.419 . S
C908 C909 1.363 . S
C908 H911 0.929 . S
C909 C908 1.363 . S
C909 C915 1.428 . S
H910 C906 0.930 . S
H911 C908 0.929 . S
S912 N913 1.613 . S
S912 N914 1.610 . S
N913 S912 1.613 . S
N913 C916 1.350 . S
N914 S912 1.610 . S
N914 C915 1.351 . S
C915 C909 1.428 . S
C915 N914 1.351 . S
C915 C916 1.434 . S
C916 C907 1.429 . S
C916 N913 1.350 . S
C916 C915 1.434 . S
C917 C918 1.369 . S
C917 C919 1.419 . S
C917 H921 0.930 . S
C918 C917 1.369 . S
C918 C927 1.429 . S
C919 C917 1.419 . S
C919 C920 1.363 . S
C919 H922 0.929 . S
C920 C919 1.363 . S
C920 C926 1.428 . S
H921 C917 0.930 . S
H922 C919 0.929 . S
S923 N924 1.613 . S
S923 N925 1.610 . S
N924 S923 1.613 . S
N924 C927 1.350 . S
N925 S923 1.610 . S
N925 C926 1.351 . S
C926 C920 1.428 . S
C926 N925 1.351 . S
C926 C927 1.434 . S
C927 C918 1.429 . S
C927 N924 1.350 . S
C927 C926 1.434 . S
C928 C929 1.369 . S
C928 C930 1.419 . S
C928 H932 0.930 . S
C929 C928 1.369 . S
C929 C938 1.429 . S
C930 C928 1.419 . S
C930 C931 1.363 . S
C930 H933 0.929 . S
C931 C930 1.363 . S
C931 C937 1.428 . S
H932 C928 0.930 . S
H933 C930 0.929 . S
S934 N935 1.613 . S
S934 N936 1.610 . S
N935 S934 1.613 . S
N935 C938 1.350 . S
N936 S934 1.610 . S
N936 C937 1.351 . S
C937 C931 1.428 . S
C937 N936 1.351 . S
C937 C938 1.434 . S
C938 C929 1.429 . S
C938 N935 1.350 . S
C938 C937 1.434 . S
C939 C940 1.369 . S
C939 C941 1.419 . S
C939 H943 0.930 . S
C940 C939 1.369 . S
C940 C949 1.429 . S
C941 C939 1.419 . S
C941 C942 1.363 . S
C941 H944 0.929 . S
C942 C941 1.363 . S
C942 C948 1.428 . S
H943 C939 0.930 . S
H944 C941 0.929 . S
S945 N946 1.613 . S
S945 N947 1.610 . S
N946 S945 1.613 . S
N946 C949 1.350 . S
N947 S945 1.610 . S
N947 C948 1.351 . S
C948 C942 1.428 . S
C948 N947 1.351 . S
C948 C949 1.434 . S
C949 C940 1.429 . S
C949 N946 1.350 . S
C949 C948 1.434 . S
C950 C951 1.369 . S
C950 C952 1.419 . S
C950 H954 0.930 . S
C951 C950 1.369 . S
C951 C960 1.429 . S
C952 C950 1.419 . S
C952 C953 1.363 . S
C952 H955 0.929 . S
C953 C952 1.363 . S
C953 C959 1.428 . S
H954 C950 0.930 . S
H955 C952 0.929 . S
S956 N957 1.613 . S
S956 N958 1.610 . S
N957 S956 1.613 . S
N957 C960 1.350 . S
N958 S956 1.610 . S
N958 C959 1.351 . S
C959 C953 1.428 . S
C959 N958 1.351 . S
C959 C960 1.434 . S
C960 C951 1.429 . S
C960 N957 1.350 . S
C960 C959 1.434 . S
C961 C962 1.369 . S
C961 C963 1.419 . S
C961 H965 0.930 . S
C962 C961 1.369 . S
C962 C971 1.429 . S
C963 C961 1.419 . S
C963 C964 1.363 . S
C963 H966 0.929 . S
C964 C963 1.363 . S
C964 C970 1.428 . S
H965 C961 0.930 . S
H966 C963 0.929 . S
S967 N968 1.613 . S
S967 N969 1.610 . S
N968 S967 1.613 . S
N968 C971 1.350 . S
N969 S967 1.610 . S
N969 C970 1.351 . S
C970 C964 1.428 . S
C970 N969 1.351 . S
C970 C971 1.434 . S
C971 C962 1.429 . S
C971 N968 1.350 . S
C971 C970 1.434 . S
C709 C33 1.694 . S
C711 C682 1.696 . S
C720 C387 1.693 . S
C722 C92 1.695 . S
C731 C151 1.696 . S
C733 C446 1.694 . S
C742 C505 1.695 . S
C744 C210 1.694 . S
C753 C564 1.696 . S
C755 C269 1.694 . S
C764 C623 1.694 . S
C766 C328 1.696 . S
C775 C180 1.179 . S
C777 C475 1.180 . S
C786 C239 1.184 . S
C788 C534 1.181 . S
C797 C298 1.179 . S
C799 C593 1.182 . S
C808 C652 1.187 . S
C810 C3 1.185 . S
C819 C62 1.180 . S
C821 C357 1.184 . S
C830 C121 1.182 . S
C832 C416 1.185 . S
C841 C524 1.781 . S
C843 C52 1.785 . S
C852 C583 1.781 . S
C854 C111 1.783 . S
C863 C170 1.785 . S
C865 C642 1.782 . S
C874 C229 1.784 . S
C876 C701 1.781 . S
C885 C288 1.782 . S
C887 C406 1.785 . S
C896 C465 1.785 . S
C898 C347 1.784 . S
C907 C5 1.725 . S
C909 C595 1.725 . S
C918 C654 1.725 . S
C920 C64 1.726 . S
C929 C123 1.725 . S
C931 C359 1.725 . S
C940 C182 1.725 . S
C942 C418 1.726 . S
C951 C241 1.725 . S
C953 C477 1.725 . S
C962 C300 1.725 . S
C964 C536 1.725 . S
