# Generated by pormake.
# Topology bcs, (6)-cn, num edge types: 1
# Building blocks:
#     Node 0, Type 0, BuildingBlock: CUWYAW_clean_sbu_0, # of connection points: 6
#     Node 1, Type 0, BuildingBlock: CUWYAW_clean_sbu_0, # of connection points: 6
#     Node 2, Type 0, BuildingBlock: CUWYAW_clean_sbu_0, # of connection points: 6
#     Node 3, Type 0, BuildingBlock: CUWYAW_clean_sbu_0, # of connection points: 6
#     Node 4, Type 0, BuildingBlock: CUWYAW_clean_sbu_0, # of connection points: 6
#     Node 5, Type 0, BuildingBlock: CUWYAW_clean_sbu_0, # of connection points: 6
#     Node 6, Type 0, BuildingBlock: CUWYAW_clean_sbu_0, # of connection points: 6
#     Node 7, Type 0, BuildingBlock: CUWYAW_clean_sbu_0, # of connection points: 6
#     Node 8, Type 0, BuildingBlock: CUWYAW_clean_sbu_0, # of connection points: 6
#     Node 9, Type 0, BuildingBlock: CUWYAW_clean_sbu_0, # of connection points: 6
#     Node 10, Type 0, BuildingBlock: CUWYAW_clean_sbu_0, # of connection points: 6
#     Node 11, Type 0, BuildingBlock: CUWYAW_clean_sbu_0, # of connection points: 6
#     Node 12, Type 0, BuildingBlock: CUWYAW_clean_sbu_0, # of connection points: 6
#     Node 13, Type 0, BuildingBlock: CUWYAW_clean_sbu_0, # of connection points: 6
#     Node 14, Type 0, BuildingBlock: CUWYAW_clean_sbu_0, # of connection points: 6
#     Node 15, Type 0, BuildingBlock: CUWYAW_clean_sbu_0, # of connection points: 6
#     Edge 16, Type (0, 0), BuildingBlock: OJICUG_clean_linker_0, # of connection points: 2
#     Edge 17, Type (0, 0), BuildingBlock: OJICUG_clean_linker_0, # of connection points: 2
#     Edge 18, Type (0, 0), BuildingBlock: OJICUG_clean_linker_0, # of connection points: 2
#     Edge 19, Type (0, 0), BuildingBlock: OJICUG_clean_linker_0, # of connection points: 2
#     Edge 20, Type (0, 0), BuildingBlock: OJICUG_clean_linker_0, # of connection points: 2
#     Edge 21, Type (0, 0), BuildingBlock: OJICUG_clean_linker_0, # of connection points: 2
#     Edge 22, Type (0, 0), BuildingBlock: OJICUG_clean_linker_0, # of connection points: 2
#     Edge 23, Type (0, 0), BuildingBlock: OJICUG_clean_linker_0, # of connection points: 2
#     Edge 24, Type (0, 0), BuildingBlock: OJICUG_clean_linker_0, # of connection points: 2
#     Edge 25, Type (0, 0), BuildingBlock: OJICUG_clean_linker_0, # of connection points: 2
#     Edge 26, Type (0, 0), BuildingBlock: OJICUG_clean_linker_0, # of connection points: 2
#     Edge 27, Type (0, 0), BuildingBlock: OJICUG_clean_linker_0, # of connection points: 2
#     Edge 28, Type (0, 0), BuildingBlock: OJICUG_clean_linker_0, # of connection points: 2
#     Edge 29, Type (0, 0), BuildingBlock: OJICUG_clean_linker_0, # of connection points: 2
#     Edge 30, Type (0, 0), BuildingBlock: OJICUG_clean_linker_0, # of connection points: 2
#     Edge 31, Type (0, 0), BuildingBlock: OJICUG_clean_linker_0, # of connection points: 2
#     Edge 32, Type (0, 0), BuildingBlock: OJICUG_clean_linker_0, # of connection points: 2
#     Edge 33, Type (0, 0), BuildingBlock: OJICUG_clean_linker_0, # of connection points: 2
#     Edge 34, Type (0, 0), BuildingBlock: OJICUG_clean_linker_0, # of connection points: 2
#     Edge 35, Type (0, 0), BuildingBlock: OJICUG_clean_linker_0, # of connection points: 2
#     Edge 36, Type (0, 0), BuildingBlock: OJICUG_clean_linker_0, # of connection points: 2
#     Edge 37, Type (0, 0), BuildingBlock: OJICUG_clean_linker_0, # of connection points: 2
#     Edge 38, Type (0, 0), BuildingBlock: OJICUG_clean_linker_0, # of connection points: 2
#     Edge 39, Type (0, 0), BuildingBlock: OJICUG_clean_linker_0, # of connection points: 2
#     Edge 40, Type (0, 0), BuildingBlock: OJICUG_clean_linker_0, # of connection points: 2
#     Edge 41, Type (0, 0), BuildingBlock: OJICUG_clean_linker_0, # of connection points: 2
#     Edge 42, Type (0, 0), BuildingBlock: OJICUG_clean_linker_0, # of connection points: 2
#     Edge 43, Type (0, 0), BuildingBlock: OJICUG_clean_linker_0, # of connection points: 2
#     Edge 44, Type (0, 0), BuildingBlock: OJICUG_clean_linker_0, # of connection points: 2
#     Edge 45, Type (0, 0), BuildingBlock: OJICUG_clean_linker_0, # of connection points: 2
#     Edge 46, Type (0, 0), BuildingBlock: OJICUG_clean_linker_0, # of connection points: 2
#     Edge 47, Type (0, 0), BuildingBlock: OJICUG_clean_linker_0, # of connection points: 2
#     Edge 48, Type (0, 0), BuildingBlock: OJICUG_clean_linker_0, # of connection points: 2
#     Edge 49, Type (0, 0), BuildingBlock: OJICUG_clean_linker_0, # of connection points: 2
#     Edge 50, Type (0, 0), BuildingBlock: OJICUG_clean_linker_0, # of connection points: 2
#     Edge 51, Type (0, 0), BuildingBlock: OJICUG_clean_linker_0, # of connection points: 2
#     Edge 52, Type (0, 0), BuildingBlock: OJICUG_clean_linker_0, # of connection points: 2
#     Edge 53, Type (0, 0), BuildingBlock: OJICUG_clean_linker_0, # of connection points: 2
#     Edge 54, Type (0, 0), BuildingBlock: OJICUG_clean_linker_0, # of connection points: 2
#     Edge 55, Type (0, 0), BuildingBlock: OJICUG_clean_linker_0, # of connection points: 2
#     Edge 56, Type (0, 0), BuildingBlock: OJICUG_clean_linker_0, # of connection points: 2
#     Edge 57, Type (0, 0), BuildingBlock: OJICUG_clean_linker_0, # of connection points: 2
#     Edge 58, Type (0, 0), BuildingBlock: OJICUG_clean_linker_0, # of connection points: 2
#     Edge 59, Type (0, 0), BuildingBlock: OJICUG_clean_linker_0, # of connection points: 2
#     Edge 60, Type (0, 0), BuildingBlock: OJICUG_clean_linker_0, # of connection points: 2
#     Edge 61, Type (0, 0), BuildingBlock: OJICUG_clean_linker_0, # of connection points: 2
#     Edge 62, Type (0, 0), BuildingBlock: OJICUG_clean_linker_0, # of connection points: 2
#     Edge 63, Type (0, 0), BuildingBlock: OJICUG_clean_linker_0, # of connection points: 2
# Relax obj value: 0.372
# Max RMSD: 0.244
# Mean RMSD: 0.175
data_MOF--net-bcs--node1-CUWYAW_clean_sbu_0--edge1-OJICUG_clean_linker_0
_symmetry_space_group_name_H-M    P1
_symmetry_Int_Tables_number       1
_symmetry_cell_setting            triclinic
loop_
_symmetry_equiv_pos_as_xyz
'x, y, z'
_cell_length_a     32.329568
_cell_length_b     31.96603
_cell_length_c     30.999737
_cell_angle_alpha  77.95406
_cell_angle_beta   117.52754
_cell_angle_gamma 109.01456
loop_
_atom_site_label
_atom_site_type_symbol
_atom_site_fract_x
_atom_site_fract_y
_atom_site_fract_z
_atom_type_partial_charge
C0 C 1.07713 0.10942 0.08892 0.0
Eu1 Eu 0.09808 0.05841 0.04365 0.0
C2 C 1.05634 0.12955 0.11656 0.0
C3 C 1.07251 0.17475 0.12884 0.0
C4 C 1.04932 0.19383 0.14798 0.0
C5 C 1.00804 0.16956 0.15766 0.0
C6 C 0.99248 0.12418 0.14603 0.0
C7 C 1.01491 0.10544 0.12584 0.0
C8 C 0.17576 0.10091 0.98427 0.0
C9 C 1.01477 0.07756 0.94076 0.0
C10 C 0.11128 0.96386 0.94574 0.0
Eu11 Eu 1.08877 1.01252 0.99181 0.0
C12 C 0.13353 0.93853 0.92456 0.0
C13 C 0.10896 0.91793 0.87914 0.0
C14 C 0.13206 0.8983 0.86034 0.0
C15 C 0.18187 0.89674 0.8853 0.0
C16 C 0.20594 0.91708 0.93082 0.0
C17 C 0.18317 0.93713 0.94913 0.0
C18 C 1.01176 0.96844 0.05169 0.0
C19 C 0.17134 0.99331 0.095 0.0
O20 O 1.04694 0.08293 0.05425 0.0
O21 O 0.12196 0.10868 0.10048 0.0
O22 O 0.13082 0.09021 0.98289 0.0
O23 O 0.13159 0.08912 0.98512 0.0
O24 O 1.02547 0.07257 0.9874 0.0
O25 O 1.03693 0.0557 0.92925 0.0
O26 O 0.14064 0.9889 0.98192 0.0
O27 O 1.06601 0.96324 0.93414 0.0
O28 O 1.05667 0.98035 0.05289 0.0
O29 O 1.05589 0.9814 0.05067 0.0
O30 O 0.16092 0.99816 0.04845 0.0
O31 O 0.14942 1.01538 0.10648 0.0
H32 H 0.103 0.19643 0.1224 0.0
H33 H 1.06453 0.2285 0.15546 0.0
H34 H 0.96135 0.10254 0.15134 0.0
H35 H 0.99892 0.0711 0.11699 0.0
H36 H 1.07132 0.91745 0.85707 0.0
H37 H 0.10995 0.88385 0.82551 0.0
H38 H 0.24377 0.91851 0.95294 0.0
H39 H 0.20553 0.95211 0.98369 0.0
C40 C 0.41867 0.84707 0.19738 0.0
Eu41 Eu 0.36734 0.79655 0.24121 0.0
C42 C 0.41344 0.88934 0.16909 0.0
C43 C 0.36823 0.89409 0.13281 0.0
C44 C 0.36411 0.93456 0.10595 0.0
C45 C 0.40527 0.97061 0.11454 0.0
C46 C 0.44942 0.96659 0.15412 0.0
C47 C 0.45342 0.92626 0.18088 0.0
C48 C 0.29016 0.72706 0.20307 0.0
C49 C 0.28278 0.85213 0.21445 0.0
C50 C 0.26012 0.71887 0.33674 0.0
Eu51 Eu 0.31258 0.76963 0.29382 0.0
C52 C 0.26403 0.67657 0.36561 0.0
C53 C 0.30918 0.67015 0.40011 0.0
C54 C 0.3121 0.62998 0.42806 0.0
C55 C 0.26987 0.59582 0.4222 0.0
C56 C 0.22523 0.60141 0.38489 0.0
C57 C 0.22242 0.64146 0.35697 0.0
C58 C 0.38598 0.84194 0.32916 0.0
C59 C 0.39821 0.71471 0.31994 0.0
O60 O 0.43181 0.84807 0.24391 0.0
O61 O 0.38431 0.81172 0.17856 0.0
O62 O 0.33351 0.7292 0.2099 0.0
O63 O 0.28952 0.76126 0.21673 0.0
O64 O 0.32049 0.84946 0.20863 0.0
O65 O 0.26961 0.82167 0.24556 0.0
O66 O 0.24818 0.71754 0.29052 0.0
O67 O 0.2947 0.75401 0.35592 0.0
O68 O 0.34224 0.83716 0.32298 0.0
O69 O 0.38956 0.80791 0.31764 0.0
O70 O 0.36069 0.71733 0.32627 0.0
O71 O 0.4107 0.74497 0.28847 0.0
H72 H 0.33632 0.86627 0.12413 0.0
H73 H 0.32966 0.93665 0.076 0.0
H74 H 0.48227 0.99326 0.16188 0.0
H75 H 0.48822 0.92351 0.20973 0.0
H76 H 0.34206 0.69658 0.40662 0.0
H77 H 0.3469 0.62668 0.45641 0.0
H78 H 0.19168 0.57628 0.37971 0.0
H79 H 0.18745 0.64553 0.32976 0.0
C80 C 0.65839 0.09276 0.42146 0.0
Eu81 Eu 0.61067 0.06512 0.47521 0.0
C82 C 0.69393 0.08939 0.40633 0.0
C83 C 0.68094 0.09171 0.35633 0.0
C84 C 0.71309 0.08891 0.33965 0.0
C85 C 0.75937 0.08406 0.37272 0.0
C86 C 0.77314 0.08358 0.42307 0.0
C87 C 0.74058 0.08616 0.4398 0.0
C88 C 0.63895 0.11283 0.55232 0.0
C89 C 0.64952 0.98685 0.56265 0.0
C90 C 0.51125 0.99971 0.58356 0.0
Eu91 Eu 0.5579 1.02683 0.52879 0.0
C92 C 0.46917 0.99525 0.59254 0.0
C93 C 0.45298 0.95601 0.6171 0.0
C94 C 0.42079 0.95381 0.63629 0.0
C95 C 0.40436 0.99094 0.63117 0.0
C96 C 0.41691 1.02866 0.60222 0.0
C97 C 0.44929 1.03087 0.5832 0.0
C98 C 0.53214 0.97671 0.4548 0.0
C99 C 0.5192 0.10609 0.44033 0.0
O100 O 0.61712 0.06242 0.40879 0.0
O101 O 0.6738 0.10687 0.46419 0.0
O102 O 0.62736 0.12924 0.50777 0.0
O103 O 0.63181 0.0715 0.55377 0.0
O104 O 0.64729 1.00631 0.51913 0.0
O105 O 0.6219 0.99595 0.57855 0.0
O106 O 0.54191 0.03873 0.58552 0.0
O107 O 0.50569 0.97605 0.55087 0.0
O108 O 0.54287 0.96193 0.49962 0.0
O109 O 0.53739 1.01809 0.45094 0.0
O110 O 0.51763 0.08294 0.48131 0.0
O111 O 0.55074 0.10103 0.42713 0.0
H112 H 0.64532 0.09486 0.32995 0.0
H113 H 0.70048 0.08827 0.30074 0.0
H114 H 0.80856 0.08011 0.44951 0.0
H115 H 0.75161 0.08505 0.47866 0.0
H116 H 0.46779 0.92804 0.62436 0.0
H117 H 0.41145 0.92424 0.65801 0.0
H118 H 0.40524 0.05804 0.59787 0.0
H119 H 0.4611 0.06136 0.56404 0.0
C120 C 0.26927 0.35944 0.7302 0.0
Eu121 Eu 0.32138 0.30428 0.75091 0.0
C122 C 0.27638 0.39654 0.75583 0.0
C123 C 0.23736 0.40051 0.76139 0.0
C124 C 0.24522 0.42932 0.79401 0.0
C125 C 0.29226 0.45446 0.82153 0.0
C126 C 0.33089 0.45287 0.81345 0.0
C127 C 0.32298 0.42385 0.7808 0.0
C128 C 0.28681 0.23438 0.69456 0.0
C129 C 0.28954 0.22229 0.83774 0.0
C130 C 0.42532 0.19856 0.80583 0.0
Eu131 Eu 0.3769 0.25532 0.79146 0.0
C132 C 0.41215 0.15145 0.79849 0.0
C133 C 0.44818 0.13225 0.8058 0.0
C134 C 0.43565 0.09085 0.78876 0.0
C135 C 0.38671 0.06853 0.76291 0.0
C136 C 0.35064 0.0864 0.75906 0.0
C137 C 0.36334 0.12764 0.77695 0.0
C138 C 0.4136 0.32171 0.85209 0.0
C139 C 0.40846 0.33932 0.70513 0.0
O140 O 0.29955 0.3642 0.71187 0.0
O141 O 0.26205 0.32078 0.75312 0.0
O142 O 0.29212 0.27527 0.67811 0.0
O143 O 0.30063 0.23203 0.73981 0.0
O144 O 0.28405 0.26129 0.8094 0.0
O145 O 0.3249 0.21078 0.83405 0.0
O146 O 0.41838 0.20876 0.84006 0.0
O147 O 0.41058 0.2236 0.76575 0.0
O148 O 0.41007 0.28032 0.86569 0.0
O149 O 0.39742 0.32723 0.80615 0.0
O150 O 0.418 0.3033 0.73778 0.0
O151 O 0.36938 0.34753 0.70434 0.0
H152 H 0.20123 0.37973 0.74234 0.0
H153 H 0.21474 0.43086 0.79904 0.0
H154 H 0.36733 0.47224 0.83411 0.0
H155 H 0.35352 0.42125 0.77674 0.0
H156 H 0.48594 0.1505 0.82187 0.0
H157 H 0.46441 0.07848 0.79177 0.0
H158 H 0.31273 0.06999 0.73936 0.0
H159 H 0.33507 0.14233 0.77085 0.0
C160 C 0.21843 1.00875 0.52448 0.0
Eu161 Eu 0.14056 1.02461 0.51267 0.0
C162 C 0.23593 1.02385 0.48596 0.0
C163 C 0.20254 1.01638 0.43714 0.0
C164 C 0.2091 0.04558 0.39917 0.0
C165 C 0.24984 0.08219 0.40909 0.0
C166 C 0.28668 0.08547 0.45707 0.0
C167 C 0.27956 0.05684 0.49524 0.0
C168 C 1.05343 0.97999 0.44613 0.0
C169 C 0.10496 0.09158 0.42508 0.0
C170 C 0.98304 0.07094 0.49108 0.0
Eu171 Eu 1.05959 0.0519 0.50317 0.0
C172 C 0.96461 0.05802 0.52875 0.0
C173 C 0.99802 0.06078 0.57801 0.0
C174 C 0.98669 1.03274 0.61412 0.0
C175 C 0.941 1.00225 0.6021 0.0
C176 C 0.90536 1.00433 0.55366 0.0
C177 C 0.91737 1.03145 0.51718 0.0
C178 C 0.14616 0.09411 0.57151 0.0
C179 C 1.0915 0.98021 0.58715 0.0
O180 O 0.21948 0.04106 0.54515 0.0
O181 O 0.17752 0.97788 0.51334 0.0
O182 O 1.092 0.9961 0.4387 0.0
O183 O 1.06212 0.98849 0.4878 0.0
O184 O 0.14457 0.08135 0.45767 0.0
O185 O 1.06504 0.07852 0.43189 0.0
O186 O 0.98089 0.03727 0.47164 0.0
O187 O 1.02486 0.10052 0.50256 0.0
O188 O 0.10748 0.07657 0.57845 0.0
O189 O 0.13822 0.08779 0.52921 0.0
O190 O 1.05319 0.99284 0.55464 0.0
O191 O 0.13276 0.99442 0.58267 0.0
H192 H 0.16865 0.99095 0.42836 0.0
H193 H 0.18009 0.04152 0.36281 0.0
H194 H 0.31959 0.11218 0.46579 0.0
H195 H 0.30595 0.06355 0.53227 0.0
H196 H 1.03468 0.08139 0.58841 0.0
H197 H 1.01538 1.03276 0.6506 0.0
H198 H 0.86895 0.98304 0.5431 0.0
H199 H 0.89107 1.02872 0.47953 0.0
C200 C 0.42348 0.73074 0.89574 0.0
Eu201 Eu 0.36049 0.75803 0.81637 0.0
C202 C 0.4627 0.7162 0.89661 0.0
C203 C 0.45509 0.67167 0.89067 0.0
C204 C 0.48446 0.6598 0.87643 0.0
C205 C 0.5221 0.69217 0.86778 0.0
C206 C 0.53183 0.73621 0.87695 0.0
C207 C 0.50265 0.7481 0.89159 0.0
C208 C 0.27883 0.71069 0.74704 0.0
C209 C 0.40534 0.75264 0.73516 0.0
C210 C 0.27118 0.83215 0.64309 0.0
Eu211 Eu 0.33257 0.80944 0.72791 0.0
C212 C 0.22103 0.82945 0.63102 0.0
C213 C 0.19728 0.85877 0.59524 0.0
C214 C 0.15506 0.86372 0.59304 0.0
C215 C 0.13739 0.84037 0.62761 0.0
C216 C 0.15825 0.80769 0.6599 0.0
C217 C 0.19952 0.80171 0.66102 0.0
C218 C 0.41284 0.85752 0.79866 0.0
C219 C 0.28761 0.81436 0.80896 0.0
O220 O 0.42628 0.77281 0.88285 0.0
O221 O 0.3794 0.70558 0.87397 0.0
O222 O 0.28546 0.70956 0.79214 0.0
O223 O 0.31565 0.73641 0.74172 0.0
O224 O 0.40178 0.73851 0.7779 0.0
O225 O 0.38295 0.78415 0.7088 0.0
O226 O 0.28081 0.79378 0.6537 0.0
O227 O 0.30394 0.86127 0.67437 0.0
O228 O 0.40701 0.8596 0.75369 0.0
O229 O 0.37588 0.83098 0.80286 0.0
O230 O 0.28473 0.8226 0.7631 0.0
O231 O 0.3171 0.7892 0.83902 0.0
H232 H 0.42499 0.64629 0.89464 0.0
H233 H 0.47761 0.62501 0.87237 0.0
H234 H 0.56148 0.76152 0.87208 0.0
H235 H 0.50988 0.78281 0.89625 0.0
H236 H 0.21327 0.88021 0.57178 0.0
H237 H 0.13962 0.88965 0.56826 0.0
H238 H 0.14539 0.78982 0.68701 0.0
H239 H 0.21697 0.77811 0.6883 0.0
C240 C 0.56608 0.14607 0.93533 0.0
Eu241 Eu 0.58914 0.07394 0.98183 0.0
C242 C 0.52405 0.15806 0.93176 0.0
C243 C 0.48019 0.12517 0.92337 0.0
C244 C 0.44526 0.13153 0.93405 0.0
C245 C 0.45341 0.17082 0.95362 0.0
C246 C 0.49571 0.20499 0.95862 0.0
C247 C 0.53067 0.19863 0.9478 0.0
C248 C 0.54718 0.99617 0.93574 0.0
C249 C 0.50867 1.03435 0.02266 0.0
C250 C 0.61334 0.92394 0.09491 0.0
Eu251 Eu 0.59609 0.99869 0.04991 0.0
C252 C 0.65387 0.90786 0.10122 0.0
C253 C 0.70074 0.93652 0.11652 0.0
C254 C 0.73658 0.92668 0.11045 0.0
C255 C 0.72584 0.88909 0.08644 0.0
C256 C 0.67978 0.85884 0.07419 0.0
C257 C 0.64432 0.86801 0.08191 0.0
C258 C 0.63868 0.07701 0.09567 0.0
C259 C 0.6789 0.03968 1.01189 0.0
O260 O 0.60051 0.14548 0.97943 0.0
O261 O 0.5565 0.11142 0.91286 0.0
O262 O 0.57545 1.03112 0.92403 0.0
O263 O 0.54291 1.00347 0.97208 0.0
O264 O 0.53642 0.07083 1.01192 0.0
O265 O 0.52093 0.99688 0.03395 0.0
O266 O 0.58177 0.92717 0.04969 0.0
O267 O 0.62443 0.95865 0.11806 0.0
O268 O 0.61096 0.042 0.10813 0.0
O269 O 0.64253 0.06926 0.05934 0.0
O270 O 0.65247 1.00293 0.0242 0.0
O271 O 0.66477 0.07646 0.99812 0.0
H272 H 0.47404 0.09322 0.91154 0.0
H273 H 0.41275 0.10489 0.92886 0.0
H274 H 0.50341 0.23561 0.97397 0.0
H275 H 0.5644 0.22417 0.95536 0.0
H276 H 0.70928 0.96789 0.13092 0.0
H277 H 0.77202 0.94997 0.12233 0.0
H278 H 0.66964 0.82969 0.05528 0.0
H279 H 0.60823 0.84573 0.06904 0.0
C280 C 0.34805 0.33679 0.38267 0.0
Eu281 Eu 0.34522 0.31698 0.30461 0.0
C282 C 0.34494 0.35661 0.41932 0.0
C283 C 0.36942 0.34387 0.46872 0.0
C284 C 0.35946 0.35448 0.50381 0.0
C285 C 0.3253 0.37851 0.48994 0.0
C286 C 0.30334 0.39391 0.44083 0.0
C287 C 0.3128 0.38269 0.40563 0.0
C288 C 0.38789 0.36391 0.24511 0.0
C289 C 0.2581 0.35031 0.2003 0.0
C290 C 0.31062 0.25522 0.13191 0.0
Eu291 Eu 0.31288 0.27302 0.21094 0.0
C292 C 0.31853 0.22845 0.10475 0.0
C293 C 0.29501 0.23237 0.05372 0.0
C294 C 0.30902 0.21577 0.02584 0.0
C295 C 0.34644 0.19454 0.04865 0.0
C296 C 0.36737 0.18747 0.09976 0.0
C297 C 0.35373 0.20467 0.12777 0.0
C298 C 0.26746 0.22701 0.26771 0.0
C299 C 0.39694 0.23691 0.31629 0.0
O300 O 0.30796 0.31742 0.34704 0.0
O301 O 0.38688 0.34828 0.37464 0.0
O302 O 0.41024 0.36474 0.29242 0.0
O303 O 0.34529 0.34078 0.23364 0.0
O304 O 0.28141 0.34988 0.24937 0.0
O305 O 0.26637 0.32458 0.17767 0.0
O306 O 0.34899 0.27958 0.165 0.0
O307 O 0.27352 0.23953 0.14291 0.0
O308 O 0.24721 0.22548 0.22046 0.0
O309 O 0.31066 0.24939 0.28111 0.0
O310 O 0.3757 0.23898 0.26703 0.0
O311 O 0.38783 0.26225 0.33858 0.0
H312 H 0.39416 0.32348 0.47982 0.0
H313 H 0.37697 0.34246 0.54145 0.0
H314 H 0.27657 0.41219 0.42921 0.0
H315 H 0.29336 0.39253 0.36758 0.0
H316 H 0.26785 0.25076 0.0354 0.0
H317 H 0.29234 0.22153 0.98652 0.0
H318 H 0.39658 0.17148 0.11811 0.0
H319 H 0.37239 0.20154 0.16719 0.0
C320 C 0.72432 0.5249 0.03449 0.0
Eu321 Eu 0.64029 0.52173 0.02558 0.0
C322 C 0.74779 0.55927 1.00684 0.0
C323 C 0.75144 0.54706 0.96801 0.0
C324 C 0.75471 0.57819 0.92987 0.0
C325 C 0.7547 0.62217 0.93003 0.0
C326 C 0.75591 0.63524 0.97124 0.0
C327 C 0.75267 0.60422 1.00928 0.0
C328 C 0.55798 0.45687 0.98308 0.0
C329 C 0.59855 0.58173 0.92707 0.0
C330 C 0.46476 0.5491 0.98087 0.0
Eu331 Eu 0.55004 0.54429 1.00246 0.0
C332 C 0.44446 0.5377 1.01703 0.0
C333 C 0.47372 0.55186 0.06461 0.0
C334 C 0.46371 0.52878 0.10374 0.0
C335 C 0.42397 0.49144 0.09597 0.0
C336 C 0.39239 0.4798 0.04779 0.0
C337 C 0.40268 0.50262 1.00881 0.0
C338 C 0.63125 0.59612 0.06851 0.0
C339 C 0.59484 0.49025 0.10156 0.0
O340 O 0.71875 0.53868 0.06804 0.0
O341 O 0.68496 0.49714 1.00692 0.0
O342 O 0.5968 0.4493 0.01963 0.0
O343 O 0.56447 0.49772 0.97121 0.0
O344 O 0.63602 0.56746 0.95886 0.0
O345 O 0.56003 0.57586 0.93484 0.0
O346 O 0.4724 0.51497 0.97133 0.0
O347 O 0.50113 0.58473 0.98729 0.0
O348 O 0.59068 0.58048 0.07214 0.0
O349 O 0.62723 0.5844 0.03007 0.0
O350 O 0.55353 0.4911 0.06365 0.0
O351 O 0.63618 0.50643 0.09757 0.0
H352 H 0.74757 0.51267 0.96507 0.0
H353 H 0.75545 0.5674 0.89941 0.0
H354 H 0.75618 0.66884 0.97285 0.0
H355 H 0.74965 0.61495 0.03838 0.0
H356 H 0.50651 0.57858 0.07236 0.0
H357 H 0.48815 0.53906 0.14026 0.0
H358 H 0.36156 0.45099 0.04044 0.0
H359 H 0.38059 0.49015 0.97293 0.0
C360 C 0.89469 0.20954 0.38572 0.0
Eu361 Eu 0.84905 0.25444 0.30915 0.0
C362 C 0.93822 0.19979 0.39075 0.0
C363 C 0.93577 0.15686 0.38426 0.0
C364 C 0.96988 0.14996 0.37287 0.0
C365 C 1.00694 0.1859 0.36749 0.0
C366 C 1.01104 0.22835 0.37687 0.0
C367 C 0.97731 0.23521 0.38876 0.0
C368 C 0.76962 0.21954 0.22914 0.0
C369 C 0.90432 0.25167 0.23712 0.0
C370 C 0.80487 0.3676 0.16299 0.0
Eu371 Eu 0.84349 0.31629 0.23749 0.0
C372 C 0.77532 0.39484 0.161 0.0
C373 C 0.78876 0.41663 0.20234 0.0
C374 C 0.75367 0.42523 0.21084 0.0
C375 C 0.70468 0.41236 0.17815 0.0
C376 C 0.69252 0.39561 0.13392 0.0
C377 C 0.72752 0.38692 0.12549 0.0
C378 C 0.92283 0.34987 0.31893 0.0
C379 C 0.78643 0.31752 0.30846 0.0
O380 O 0.89874 0.25142 0.38609 0.0
O381 O 0.85428 0.19045 0.35059 0.0
O382 O 0.77037 0.2171 0.27201 0.0
O383 O 0.81029 0.24293 0.22985 0.0
O384 O 0.89619 0.23551 0.27714 0.0
O385 O 0.88644 0.28611 0.21314 0.0
O386 O 0.78487 0.32519 0.16719 0.0
O387 O 0.85079 0.37859 0.19281 0.0
O388 O 0.9231 0.35192 0.2767 0.0
O389 O 0.88136 0.32761 0.31643 0.0
O390 O 0.79878 0.33641 0.27144 0.0
O391 O 0.80053 0.28067 0.32981 0.0
H392 H 0.90599 0.12909 0.38527 0.0
H393 H 0.96706 0.11634 0.3682 0.0
H394 H 1.03968 0.25644 0.37395 0.0
H395 H 0.98034 0.26896 0.39323 0.0
H396 H 0.82558 0.42334 0.23038 0.0
H397 H 0.76487 0.44034 0.24391 0.0
H398 H 0.65573 0.38822 0.10593 0.0
H399 H 0.71643 0.37034 0.09324 0.0
C400 C 1.08698 0.64602 0.46038 0.0
Eu401 Eu 0.09657 0.56813 0.50236 0.0
C402 C 1.05353 0.67016 0.45697 0.0
C403 C 1.00535 0.64754 0.4481 0.0
C404 C 0.97613 0.66819 0.45334 0.0
C405 C 0.99469 0.71162 0.46841 0.0
C406 C 1.04216 0.73495 0.47509 0.0
C407 C 1.07128 0.7144 0.46925 0.0
C408 C 1.05307 0.49066 0.45488 0.0
C409 C 1.01127 0.52949 0.5362 0.0
C410 C 0.11641 0.41717 0.61634 0.0
Eu411 Eu 0.09929 0.4912 0.56936 0.0
C412 C 0.15808 0.40259 0.62311 0.0
C413 C 0.20393 0.43321 0.63652 0.0
C414 C 0.23881 0.42683 0.62583 0.0
C415 C 0.22875 0.38966 0.60168 0.0
C416 C 0.18484 0.35678 0.59303 0.0
C417 C 0.14983 0.36323 0.60367 0.0
C418 C 0.14307 0.56892 0.61552 0.0
C419 C 0.1816 0.52813 0.52973 0.0
O420 O 0.11981 0.64034 0.50433 0.0
O421 O 1.06765 0.61001 0.43693 0.0
O422 O 1.0815 0.52564 0.44328 0.0
O423 O 1.04856 0.49816 0.49094 0.0
O424 O 1.04008 0.566 0.52686 0.0
O425 O 1.02351 0.49177 0.54913 0.0
O426 O 1.08463 0.41936 0.57103 0.0
O427 O 0.12633 0.45209 0.63858 0.0
O428 O 0.1137 0.5349 0.62696 0.0
O429 O 0.14758 0.56048 0.57998 0.0
O430 O 0.15399 0.49243 0.54219 0.0
O431 O 0.17015 0.56605 0.51758 0.0
H432 H 0.99073 0.61323 0.43901 0.0
H433 H 0.93996 0.64913 0.44855 0.0
H434 H 1.05733 0.76851 0.48659 0.0
H435 H 0.10841 0.73232 0.47668 0.0
H436 H 0.21161 0.46401 0.65155 0.0
H437 H 0.27273 0.45221 0.6342 0.0
H438 H 0.1757 0.32777 0.57429 0.0
H439 H 0.11468 0.33939 0.5925 0.0
C440 C 0.76316 0.86125 0.23139 0.0
Eu441 Eu 0.81289 0.80641 0.24419 0.0
C442 C 0.77647 0.9083 0.239 0.0
C443 C 0.74036 0.92785 0.23071 0.0
C444 C 0.75282 0.96952 0.24712 0.0
C445 C 0.80156 0.99121 0.274 0.0
C446 C 0.83792 0.97251 0.28061 0.0
C447 C 0.8254 0.93145 0.26244 0.0
C448 C 0.77828 0.73512 0.1908 0.0
C449 C 0.78468 0.72263 0.33278 0.0
C450 C 0.93123 0.71195 0.30639 0.0
Eu451 Eu 0.87255 0.75986 0.28709 0.0
C452 C 0.94079 0.66865 0.31515 0.0
C453 C 0.98894 0.66768 0.33502 0.0
C454 C 1.00047 0.62952 0.33473 0.0
C455 C 0.96403 0.59129 0.31391 0.0
C456 C 0.91531 0.5918 0.29662 0.0
C457 C 0.90383 0.63022 0.29727 0.0
C458 C 0.90595 0.83355 0.33671 0.0
C459 C 0.90108 0.84353 0.19897 0.0
O460 O 0.76847 0.85098 0.19599 0.0
O461 O 0.77951 0.83667 0.2715 0.0
O462 O 0.77971 0.77548 0.1725 0.0
O463 O 0.79525 0.73372 0.23673 0.0
O464 O 0.77467 0.75883 0.30056 0.0
O465 O 0.82359 0.7146 0.33248 0.0
O466 O 0.92815 0.72722 0.34037 0.0
O467 O 0.90141 0.72225 0.26235 0.0
O468 O 0.90211 0.79366 0.35694 0.0
O469 O 0.89002 0.83251 0.2914 0.0
O470 O 0.91069 0.80702 0.23066 0.0
O471 O 0.86227 0.85163 0.1993 0.0
H472 H 0.70254 0.90992 0.21386 0.0
H473 H 0.72421 0.98292 0.24273 0.0
H474 H 0.87561 0.98827 0.30226 0.0
H475 H 0.8537 0.91626 0.26988 0.0
H476 H 1.01792 0.69731 0.34861 0.0
H477 H 1.03833 0.63137 0.34881 0.0
H478 H 0.88569 0.56395 0.27921 0.0
H479 H 0.86626 0.63074 0.28111 0.0
C480 C 0.91736 0.35036 0.6965 0.0
Eu481 Eu 0.8672 0.29821 0.74071 0.0
C482 C 0.90816 0.39073 0.66545 0.0
C483 C 0.86264 0.39064 0.62651 0.0
C484 C 0.85487 0.42929 0.59695 0.0
C485 C 0.89262 0.46848 0.6056 0.0
C486 C 0.9364 0.46922 0.64785 0.0
C487 C 0.94413 0.43063 0.67712 0.0
C488 C 0.79132 0.22866 0.69971 0.0
C489 C 0.78044 0.35197 0.71213 0.0
C490 C 0.76084 0.21745 0.83379 0.0
Eu491 Eu 0.8118 0.2702 0.79066 0.0
C492 C 0.77043 0.17765 0.86581 0.0
C493 C 0.81678 0.17801 0.90322 0.0
C494 C 0.82516 0.13998 0.93379 0.0
C495 C 0.7872 0.10122 0.92778 0.0
C496 C 0.74218 0.10004 0.88714 0.0
C497 C 0.7339 0.13799 0.8567 0.0
C498 C 0.8841 0.34268 0.82829 0.0
C499 C 0.89933 0.21681 0.81994 0.0
O500 O 0.92916 0.3529 0.74243 0.0
O501 O 0.88639 0.31292 0.67951 0.0
O502 O 0.83551 0.23124 0.70916 0.0
O503 O 0.78917 0.26223 0.71323 0.0
O504 O 0.81923 0.35045 0.70748 0.0
O505 O 0.76685 0.32058 0.74222 0.0
O506 O 0.75057 0.21436 0.78837 0.0
O507 O 0.79078 0.25536 0.8506 0.0
O508 O 0.83968 0.33746 0.82008 0.0
O509 O 0.88888 0.30913 0.81711 0.0
O510 O 0.86126 0.21906 0.82542 0.0
O511 O 0.9118 0.24727 0.78854 0.0
H512 H 0.83342 0.36049 0.61793 0.0
H513 H 0.8207 0.42767 0.56509 0.0
H514 H 0.96674 0.49846 0.65606 0.0
H515 H 0.97891 0.43166 0.70798 0.0
H516 H 0.84623 0.20798 0.90988 0.0
H517 H 0.86017 0.14192 0.96449 0.0
H518 H 0.71166 0.07109 0.88121 0.0
H519 H 0.69838 0.13676 0.82706 0.0
C520 C 0.85644 0.86946 0.86094 0.0
Eu521 Eu 0.85519 0.82685 0.79758 0.0
C522 C 0.85157 0.87256 0.90471 0.0
C523 C 0.83705 0.90899 0.90527 0.0
C524 C 0.82498 0.91152 0.94202 0.0
C525 C 0.82796 0.87791 0.97996 0.0
C526 C 0.84442 0.84191 0.98032 0.0
C527 C 0.85579 0.83906 0.9426 0.0
C528 C 0.90298 0.86098 0.74006 0.0
C529 C 0.77184 0.85717 0.68791 0.0
C530 C 0.8209 0.73518 0.64549 0.0
Eu531 Eu 0.81886 0.77241 0.71148 0.0
C532 C 0.83604 0.74615 0.60541 0.0
C533 C 0.81574 0.71629 0.56913 0.0
C534 C 0.83797 0.71954 0.53863 0.0
C535 C 0.88088 0.75285 0.54388 0.0
C536 C 0.8985 0.78504 0.57736 0.0
C537 C 0.87664 0.78141 0.60816 0.0
C538 C 0.77123 0.74011 0.76939 0.0
C539 C 0.9003 0.74074 0.82164 0.0
O540 O 0.89568 0.86231 0.86452 0.0
O541 O 0.81692 0.8514 0.8242 0.0
O542 O 0.92313 0.86452 0.78686 0.0
O543 O 0.85893 0.84177 0.72681 0.0
O544 O 0.79274 0.85783 0.73668 0.0
O545 O 0.78053 0.82909 0.66844 0.0
O546 O 0.78211 0.74504 0.63938 0.0
O547 O 0.85621 0.74289 0.68886 0.0
O548 O 0.75101 0.73255 0.7234 0.0
O549 O 0.81499 0.75868 0.78143 0.0
O550 O 0.88107 0.74127 0.7728 0.0
O551 O 0.89104 0.76858 0.84094 0.0
H552 H 0.83293 0.93482 0.87585 0.0
H553 H 0.81109 0.93907 0.93903 0.0
H554 H 0.84762 0.8156 1.00909 0.0
H555 H 0.86658 0.81042 0.94234 0.0
H556 H 0.78479 0.68852 0.56673 0.0
H557 H 0.82359 0.69391 0.51364 0.0
H558 H 0.93097 0.81154 0.58185 0.0
H559 H 0.89377 0.80424 0.63655 0.0
C560 C 0.5795 0.61394 0.585 0.0
Eu561 Eu 0.59492 0.55753 0.54013 0.0
C562 C 0.55802 0.63196 0.61361 0.0
C563 C 0.57051 0.67792 0.62174 0.0
C564 C 0.54701 0.69643 0.6409 0.0
C565 C 0.50871 0.6709 0.65463 0.0
C566 C 0.49658 0.62468 0.64705 0.0
C567 C 0.51943 0.60632 0.62681 0.0
C568 C 0.67478 0.59979 0.48221 0.0
C569 C 0.51337 0.57546 0.43796 0.0
C570 C 0.60034 0.45291 0.44664 0.0
Eu571 Eu 0.58808 0.51125 0.492 0.0
C572 C 0.6265 0.4371 0.42145 0.0
C573 C 0.60711 0.39527 0.40016 0.0
C574 C 0.63195 0.37713 0.38238 0.0
C575 C 0.67886 0.39906 0.38352 0.0
C576 C 0.69817 0.44129 0.40443 0.0
C577 C 0.67358 0.4591 0.42308 0.0
C578 C 0.54303 0.45442 0.57707 0.0
C579 C 0.66855 0.4934 0.5941 0.0
O580 O 0.55017 0.59551 0.54418 0.0
O581 O 0.62023 0.60192 0.60261 0.0
O582 O 0.62973 0.58842 0.48069 0.0
O583 O 0.63055 0.58745 0.48285 0.0
O584 O 0.52146 0.56871 0.48391 0.0
O585 O 0.53869 0.55597 0.4279 0.0
O586 O 0.62333 0.46147 0.49235 0.0
O587 O 0.56702 0.47509 0.42503 0.0
O588 O 0.53883 0.48438 0.53803 0.0
O589 O 0.54057 0.48448 0.53809 0.0
O590 O 0.66277 0.50311 0.549 0.0
O591 O 0.64138 0.51085 0.60326 0.0
H592 H 0.59843 0.70069 0.61187 0.0
H593 H 0.55956 0.73176 0.64503 0.0
H594 H 0.46781 0.602 0.65563 0.0
H595 H 0.50599 0.57127 0.62099 0.0
H596 H 0.57207 0.3753 0.39801 0.0
H597 H 0.61345 0.34507 0.36726 0.0
H598 H 0.73369 0.46087 0.40775 0.0
H599 H 0.69229 0.4906 0.43952 0.0
C600 C 0.1632 0.59062 0.94655 0.0
Eu601 Eu 0.10501 0.56244 0.98941 0.0
C602 C 0.2059 0.58362 0.94738 0.0
C603 C 0.21815 0.60222 0.90848 0.0
C604 C 0.25221 0.58908 0.90272 0.0
C605 C 0.27427 0.55692 0.93584 0.0
C606 C 0.26602 0.54244 0.97801 0.0
C607 C 0.23154 0.5554 0.98351 0.0
C608 C 0.12858 0.60802 0.0665 0.0
C609 C 0.1382 0.48236 0.07697 0.0
C610 C 0.9868 0.49793 0.0743 0.0
Eu611 Eu 1.04688 0.52315 0.03361 0.0
C612 C 0.98477 0.48255 0.12128 0.0
C613 C 0.94105 0.47572 0.12403 0.0
C614 C 0.94046 0.47321 0.16917 0.0
C615 C 0.98385 0.47798 0.21206 0.0
C616 C 1.02624 0.47806 0.2094 0.0
C617 C 1.02686 0.48096 0.16407 0.0
C618 C 1.02524 0.47573 0.95883 0.0
C619 C 1.01534 0.60564 0.94707 0.0
O620 O 0.12384 0.55817 0.93176 0.0
O621 O 0.1695 0.6082 0.98409 0.0
O622 O 0.11797 0.62494 0.02225 0.0
O623 O 0.12121 0.56667 0.06732 0.0
O624 O 0.13903 0.50262 0.0348 0.0
O625 O 0.1083 0.49131 0.08993 0.0
O626 O 0.99421 0.47109 0.05393 0.0
O627 O 1.01133 0.53894 0.0706 0.0
O628 O 1.03312 0.45958 1.00275 0.0
O629 O 1.03121 0.51714 0.95628 0.0
O630 O 1.01109 0.58186 0.98651 0.0
O631 O 1.04798 0.59976 0.93619 0.0
H632 H 0.19885 0.62446 0.88062 0.0
H633 H 0.25734 0.60075 0.86968 0.0
H634 H 0.28314 0.51823 1.00453 0.0
H635 H 0.22279 0.54131 1.01418 0.0
H636 H 0.90814 0.47635 0.09113 0.0
H637 H 0.90709 0.47301 0.16961 0.0
H638 H 1.05999 0.48072 0.24194 0.0
H639 H 1.06081 0.48556 0.16237 0.0
C640 C 0.26869 0.1546 0.90949 0.0
C641 C 0.25746 0.19186 0.87311 0.0
H642 H 0.2586 0.10307 0.96627 0.0
C643 C 0.21366 0.19671 0.87404 0.0
H644 H 0.30006 0.14502 0.91508 0.0
C645 C 0.18675 0.16958 0.90503 0.0
C646 C 0.19876 0.13236 0.94185 0.0
H647 H 0.19875 0.22291 0.84953 0.0
H648 H 0.15571 0.17937 0.90006 0.0
C649 C 0.24264 0.12838 0.94087 0.0
C650 C 0.23304 0.94708 0.11555 0.0
C651 C 0.20288 0.96014 0.12946 0.0
H652 H 0.28026 0.9061 0.12897 0.0
C653 C 0.20005 0.93659 0.17294 0.0
H654 H 0.23679 0.9626 0.08252 0.0
C655 C 0.225 0.90242 0.19975 0.0
C656 C 0.25533 0.88965 0.18568 0.0
H657 H 0.1772 0.94357 0.18579 0.0
H658 H 0.22031 0.88581 0.23202 0.0
C659 C 0.25858 0.91377 0.14274 0.0
C660 C 0.45549 0.95455 0.37996 0.0
C661 C 0.49938 0.94641 0.41537 0.0
H662 H 0.38467 0.92706 0.32533 0.0
C663 C 0.50784 0.90521 0.41827 0.0
H664 H 0.44782 0.98577 0.37742 0.0
C665 C 0.4722 0.87198 0.38774 0.0
C666 C 0.4269 0.87894 0.35502 0.0
H667 H 0.5413 0.89808 0.44566 0.0
H668 H 0.47893 0.83997 0.39197 0.0
C669 C 0.4193 0.92085 0.35052 0.0
C670 C 0.34488 0.03799 0.68128 0.0
C671 C 0.3749 1.0334 0.73137 0.0
H672 H 0.32956 1.02625 0.6093 0.0
C673 C 0.40301 1.00297 0.74773 0.0
H674 H 0.32234 0.0608 0.6674 0.0
C675 C 0.40763 0.98383 0.71419 0.0
C676 C 0.38397 0.99468 0.66393 0.0
H677 H 0.42567 0.99801 0.78623 0.0
H678 H 0.43419 0.96506 0.72788 0.0
C679 C 0.34937 1.01863 0.64779 0.0
C680 C 1.05025 0.90244 0.59478 0.0
C681 C 1.08508 0.94002 0.61849 0.0
H682 H 1.04144 0.83757 0.57822 0.0
C683 C 0.12534 0.9344 0.6615 0.0
H684 H 1.01774 0.90588 0.56261 0.0
C685 C 0.13758 0.89443 0.67209 0.0
C686 C 0.10975 0.86101 0.63912 0.0
H687 H 0.15205 0.9629 0.68097 0.0
H688 H 0.17372 0.89394 0.69912 0.0
C689 C 1.06343 0.86297 0.60394 0.0
C690 C 0.48653 0.92405 0.8264 0.0
C691 C 0.44894 0.89164 0.83497 0.0
H692 H 0.54642 0.98183 0.85084 0.0
C693 C 0.44519 0.89306 0.87826 0.0
H694 H 0.49101 0.92407 0.79387 0.0
C695 C 0.47724 0.92621 0.91126 0.0
C696 C 0.51421 0.95916 0.90215 0.0
H697 H 0.41687 0.86879 0.88642 0.0
H698 H 0.47258 0.92637 0.94365 0.0
C699 C 0.51849 0.95725 0.85931 0.0
C700 C 0.41032 0.21549 0.96778 0.0
C701 C 0.42038 0.17482 0.97279 0.0
H702 H 0.37847 0.25332 0.98713 0.0
C703 C 0.40186 0.13902 0.99976 0.0
H704 H 0.42355 0.24341 0.94715 0.0
C705 C 0.37682 0.14479 0.02385 0.0
C706 C 0.36842 0.18609 0.0199 0.0
H707 H 0.4083 0.10704 1.00384 0.0
H708 H 0.36457 0.11725 0.04596 0.0
C709 C 0.3843 0.22103 0.99063 0.0
C710 C 0.27132 0.16335 0.38482 0.0
C711 C 0.25121 0.11932 0.37126 0.0
H712 H 0.29148 0.23177 0.36226 0.0
C713 C 0.23066 0.11171 0.32145 0.0
H714 H 0.28587 0.17087 0.42238 0.0
C715 C 0.232 0.14723 0.28651 0.0
C716 C 0.25448 0.19083 0.3009 0.0
H717 H 0.21489 0.07831 0.30955 0.0
H718 H 0.21807 0.14036 0.2488 0.0
C719 C 0.27344 0.19853 0.35017 0.0
C720 C 0.93184 0.18478 0.22543 0.0
C721 C 0.93195 0.23063 0.21802 0.0
H722 H 0.95147 0.13047 0.21326 0.0
C723 C 0.95809 0.25551 0.18989 0.0
H724 H 0.91286 0.16266 0.24596 0.0
C725 C 0.98245 0.23677 0.17197 0.0
C726 C 0.98181 0.19075 0.17868 0.0
H727 H 0.96036 0.29059 0.18176 0.0
H728 H 1.00139 0.25905 0.15151 0.0
C729 C 0.95471 0.16571 0.20595 0.0
C730 C 0.20834 0.50291 0.47995 0.0
C731 C 0.22069 0.52525 0.52034 0.0
H732 H 0.21857 0.50762 0.41559 0.0
C733 C 0.2645 0.55795 0.53803 0.0
H734 H 0.17495 0.4769 0.46636 0.0
C735 C 0.28949 0.57546 0.50912 0.0
C736 C 0.26933 0.56104 0.46197 0.0
H737 H 0.27498 0.57484 0.56988 0.0
H738 H 0.31842 0.60561 0.51981 0.0
C739 C 0.23336 0.52057 0.45089 0.0
C740 C 0.69233 0.94257 0.64431 0.0
C741 C 0.68186 0.95413 0.59411 0.0
H742 H 0.72749 0.90566 0.71178 0.0
C743 C 0.7018 0.93263 0.57536 0.0
H744 H 0.67848 0.95741 0.66146 0.0
C745 C 0.72966 0.90141 0.60469 0.0
C746 C 0.74036 0.89021 0.65506 0.0
H747 H 0.69534 0.93944 0.53739 0.0
H748 H 0.7434 0.8863 0.58768 0.0
C749 C 0.72096 0.91223 0.67378 0.0
C750 C 0.51386 0.37748 0.96596 0.0
C751 C 0.51859 0.42258 0.95075 0.0
H752 H 0.47736 0.31065 0.94688 0.0
C753 C 0.48708 0.43457 0.90325 0.0
H754 H 0.53764 0.36724 1.00224 0.0
C755 C 0.4526 0.40197 0.87112 0.0
C756 C 0.44827 0.35679 0.88616 0.0
H757 H 0.48999 0.46917 0.89039 0.0
H758 H 0.42993 0.41213 0.83438 0.0
C759 C 0.479 0.34502 0.93415 0.0
C760 C 0.95308 0.87334 0.41375 0.0
C761 C 0.93973 0.87312 0.36375 0.0
H762 H 0.99882 0.90815 0.47881 0.0
C763 C 0.9615 0.90992 0.34042 0.0
H764 H 0.93688 0.8454 0.43263 0.0
C765 C 0.99775 0.94518 0.3671 0.0
C766 C 1.01189 0.94493 0.41729 0.0
H767 H 0.95194 0.91067 0.30189 0.0
H768 H 1.01525 0.97237 0.34865 0.0
C769 C 0.98839 0.90925 0.44014 0.0
C770 C 0.47997 0.7373 0.66615 0.0
C771 C 0.48228 0.69192 0.67563 0.0
H772 H 0.45566 0.79048 0.67398 0.0
C773 C 0.45815 0.66753 0.70582 0.0
H774 H 0.49639 0.75906 0.64328 0.0
C775 C 0.43558 0.68669 0.7256 0.0
C776 C 0.43283 0.73187 0.71557 0.0
H777 H 0.45704 0.63277 0.71514 0.0
H778 H 0.41903 0.66509 0.74848 0.0
C779 C 0.45577 0.756 0.68435 0.0
C780 C 0.72252 1.01222 0.98083 0.0
C781 C 0.72367 0.03971 1.01136 0.0
H782 H 0.74994 1.00948 0.93093 0.0
C783 C 0.76465 0.07466 0.03138 0.0
H784 H 0.69186 0.98392 0.96655 0.0
C785 C 0.79861 0.0882 1.01223 0.0
C786 C 0.78829 0.06919 0.97014 0.0
H787 H 0.76707 0.09498 0.05686 0.0
H788 H 0.82556 0.11949 0.02293 0.0
C789 C 0.7563 1.02649 0.96109 0.0
C790 C 0.19006 0.42818 0.09035 0.0
C791 C 0.16939 0.44889 0.10894 0.0
H792 H 0.23141 0.38211 0.102 0.0
C793 C 0.17847 0.43601 0.15874 0.0
H794 H 0.18478 0.43606 0.05276 0.0
C795 C 0.20672 0.40512 0.18798 0.0
C796 C 0.22671 0.38387 0.16909 0.0
H797 H 0.16397 0.4503 0.1757 0.0
H798 H 0.21245 0.39754 0.22572 0.0
C799 C 0.21715 0.39646 0.11916 0.0
C800 C 0.77971 0.69851 0.89399 0.0
C801 C 0.7526 0.65412 0.88716 0.0
H802 H 0.80486 0.76095 0.86105 0.0
C803 C 0.7243 0.64051 0.8392 0.0
H804 H 0.80197 0.71026 0.93021 0.0
C805 C 0.72608 0.66985 0.79922 0.0
C806 C 0.75608 0.71318 0.80681 0.0
H807 H 0.7019 0.60682 0.83264 0.0
H808 H 0.70668 0.65781 0.76302 0.0
C809 C 0.78119 0.72769 0.85425 0.0
C810 C 0.67546 0.46032 0.20625 0.0
C811 C 0.66652 0.42062 0.18665 0.0
H812 H 0.64783 0.5154 0.19614 0.0
C813 C 0.61794 0.39653 0.16209 0.0
H814 H 0.71172 0.47897 0.22823 0.0
C815 C 0.58179 0.41879 0.14295 0.0
C816 C 0.59625 0.46461 0.14706 0.0
H817 H 0.60904 0.36377 0.15049 0.0
H818 H 0.54682 0.40348 0.11517 0.0
C819 C 0.63826 0.48114 0.18832 0.0
C820 C 1.02994 0.44702 0.38362 0.0
C821 C 1.02113 0.45265 0.4223 0.0
H822 H 1.00722 0.41037 0.32203 0.0
C823 C 0.9808 0.42237 0.42815 0.0
H824 H 1.06049 0.46942 0.37771 0.0
C825 C 0.94969 0.3885 0.39564 0.0
C826 C 0.95805 0.38345 0.35637 0.0
H827 H 0.9726 0.42543 0.45733 0.0
H828 H 0.91848 0.36671 0.40077 0.0
C829 C 0.99925 0.41291 0.35156 0.0
C830 C 0.68168 0.66568 0.3995 0.0
C831 C 0.69702 0.63139 0.43928 0.0
H832 H 0.69003 0.71683 0.34084 0.0
C833 C 0.74285 0.63049 0.44014 0.0
H834 H 0.64853 0.67276 0.39256 0.0
C835 C 0.76803 0.65704 0.40811 0.0
C836 C 0.7535 0.69148 0.36878 0.0
H837 H 0.76119 0.60757 0.46767 0.0
H838 H 0.80145 0.65015 0.41565 0.0
C839 C 0.70757 0.6931 0.3677 0.0
C840 C 0.9155 0.42108 0.85136 0.0
C841 C 0.9241 0.37968 0.85544 0.0
H842 H 0.94202 0.48518 0.87978 0.0
C843 C 0.96936 0.3731 0.88886 0.0
H844 H 0.8809 0.42702 0.82564 0.0
C845 C 1.00385 0.40603 0.92046 0.0
C846 C 0.99432 0.4466 0.918 0.0
H847 H 0.97687 0.34152 0.89281 0.0
H848 H 1.03716 0.39902 0.94839 0.0
C849 C 0.95058 0.45451 0.88194 0.0
C850 C 0.91993 0.91168 0.12699 0.0
C851 C 0.93266 0.87505 0.16365 0.0
H852 H 0.92834 0.96346 0.06978 0.0
C853 C 0.97724 0.87192 0.163 0.0
H854 H 0.88824 0.92028 0.12192 0.0
C855 C 1.00342 0.89989 0.1317 0.0
C856 C 0.98971 0.93632 0.0944 0.0
H857 H 0.99332 0.84647 0.18789 0.0
H858 H 1.03527 0.89144 0.13684 0.0
C859 C 0.94523 0.93871 0.0953 0.0
C860 C 0.95854 0.16747 0.8352 0.0
C861 C 0.92788 0.17985 0.84924 0.0
H862 H 1.00731 0.12724 0.84922 0.0
C863 C 0.92548 0.15582 0.8926 0.0
H864 H 0.96275 0.18395 0.80267 0.0
C865 C 0.95197 0.12309 0.92008 0.0
C866 C 0.9824 0.11039 0.90616 0.0
H867 H 0.90368 0.16313 0.90646 0.0
H868 H 0.94868 0.10767 0.95334 0.0
C869 C 0.98441 0.13387 0.86228 0.0
C870 C 0.75107 0.15394 0.66614 0.0
C871 C 0.74921 0.1973 0.66584 0.0
H872 H 0.71651 0.0925 0.6314 0.0
C873 C 0.70853 0.21125 0.63054 0.0
H874 H 0.78203 0.14241 0.69305 0.0
C875 C 0.67174 0.18318 0.59438 0.0
C876 C 0.67419 0.14018 0.59397 0.0
H877 H 0.70633 0.2446 0.6294 0.0
H878 H 0.64187 0.19539 0.56609 0.0
C879 C 0.71351 0.12536 0.63104 0.0
C880 C 0.7864 0.08849 0.30748 0.0
C881 C 0.7889 0.0723 0.35429 0.0
H882 H 0.78855 0.07448 0.24394 0.0
C883 C 0.81048 0.03729 0.37841 0.0
H884 H 0.7715 0.11638 0.28854 0.0
C885 C 0.82254 1.01487 0.35366 0.0
C886 C 0.81194 1.02641 0.3042 0.0
H887 H 0.81256 1.02358 0.41412 0.0
H888 H 0.83383 0.98487 0.37119 0.0
C889 C 0.79686 0.06505 0.28213 0.0
C890 C 1.03172 0.14275 0.32957 0.0
C891 C 1.04439 0.17744 0.35842 0.0
H892 H 1.05058 0.08596 0.32631 0.0
C893 C 0.09342 0.19402 0.38973 0.0
H894 H 0.99471 0.13035 0.30365 0.0
C895 C 0.12546 0.16845 0.40169 0.0
C896 C 0.10624 0.12548 0.38572 0.0
H897 H 0.10517 0.22194 0.4111 0.0
H898 H 0.1602 0.17692 0.43283 0.0
C899 C 1.0642 0.11765 0.34205 0.0
C900 C 0.69601 0.15346 0.20065 0.0
C901 C 0.73438 0.1852 0.19261 0.0
H902 H 0.6366 0.09521 0.17727 0.0
C903 C 0.73995 0.18177 0.15099 0.0
H904 H 0.69032 0.1546 0.23213 0.0
C905 C 0.70866 0.14747 0.11906 0.0
C906 C 0.67092 0.11525 0.12783 0.0
H907 H 0.76904 0.20526 0.14344 0.0
H908 H 0.71458 0.14575 0.08789 0.0
C909 C 0.66506 0.11913 0.16904 0.0
C910 C 0.81305 0.92079 0.02813 0.0
C911 C 0.81002 0.87959 1.01594 0.0
H912 H 0.78853 0.95632 0.05807 0.0
C913 C 0.78479 0.84081 0.03385 0.0
H914 H 0.83359 0.95144 1.01681 0.0
C915 C 0.76018 0.84352 0.05995 0.0
C916 C 0.75962 0.88505 0.06806 0.0
H917 H 0.78153 0.80838 0.02539 0.0
H918 H 0.73997 0.81304 0.07188 0.0
C919 C 0.78781 0.92354 0.05313 0.0
C920 C 0.95796 0.97099 0.68904 0.0
C921 C 0.93248 0.96577 0.63842 0.0
H922 H 0.9705 0.94122 0.76122 0.0
C923 C 0.90054 0.92417 0.62271 0.0
H924 H 0.98224 1.00249 0.70299 0.0
C925 C 0.89279 0.88972 0.65621 0.0
C926 C 0.91819 0.89503 0.70643 0.0
H927 H 0.8812 0.91786 0.58446 0.0
H928 H 0.86562 0.85919 0.64267 0.0
C929 C 0.95142 0.93578 0.72268 0.0
C930 C 0.21544 0.84725 0.79751 0.0
C931 C 0.25957 0.83483 0.82792 0.0
H932 H 0.15769 0.87415 0.78857 0.0
C933 C 0.27655 0.84294 0.87786 0.0
H934 H 0.19891 0.84144 0.75932 0.0
C935 C 0.25253 0.86233 0.89543 0.0
C936 C 0.20832 0.87499 0.86511 0.0
H937 H 0.3097 0.83467 0.90427 0.0
H938 H 0.26918 0.86689 0.93403 0.0
C939 C 0.19087 0.8661 0.81513 0.0
C940 C 0.92391 0.49676 0.50885 0.0
C941 C 0.96503 0.53035 0.53251 0.0
H942 H 0.8588 0.4536 0.50977 0.0
C943 C 0.96349 0.55765 0.56142 0.0
H944 H 0.92354 0.47685 0.48426 0.0
C945 C 0.92601 0.54402 0.57621 0.0
C946 C 0.89351 0.5018 0.56462 0.0
H947 H 0.99426 0.58506 0.57833 0.0
H948 H 0.92981 0.56045 0.60558 0.0
C949 C 0.88635 0.48404 0.52307 0.0
C950 C 0.47931 0.15337 0.3594 0.0
C951 C 0.48659 0.13874 0.40855 0.0
H952 H 0.44668 0.19287 0.29283 0.0
C953 C 0.46332 0.15731 0.42616 0.0
H954 H 0.4958 0.14087 0.34308 0.0
C955 C 0.43561 0.18869 0.39707 0.0
C956 C 0.42809 0.20308 0.3478 0.0
H957 H 0.4671 0.14815 0.4632 0.0
H958 H 0.4194 0.20146 0.41347 0.0
C959 C 0.45061 0.18385 0.32992 0.0
C960 C 0.7016 0.66379 0.08261 0.0
C961 C 0.67288 0.62894 0.10088 0.0
H962 H 0.75705 0.72546 0.09684 0.0
C963 C 0.68185 0.62739 0.15001 0.0
H964 H 0.69529 0.66582 0.04482 0.0
C965 C 0.7181 0.66059 0.18012 0.0
C966 C 0.74501 0.6968 0.1612 0.0
H967 H 0.66023 0.60079 0.16495 0.0
H968 H 0.72346 0.659 0.21754 0.0
C969 C 0.7368 0.69786 0.11232 0.0
C970 C 0.24378 0.20094 0.61352 0.0
C971 C 0.25529 0.19666 0.66362 0.0
H972 H 0.20092 0.17095 0.54487 0.0
C973 C 0.2342 0.15667 0.68356 0.0
H974 H 0.25974 0.23137 0.5973 0.0
C975 C 0.20007 0.1227 0.65356 0.0
C976 C 0.18731 0.12749 0.60327 0.0
H977 H 0.2425 0.15233 0.72205 0.0
H978 H 0.18272 0.09299 0.66952 0.0
C979 C 0.21044 0.16636 0.58363 0.0
C980 C 0.72165 0.31276 0.34274 0.0
C981 C 0.75843 0.33848 0.32707 0.0
H982 H 0.66926 0.30875 0.3702 0.0
C983 C 0.76855 0.38493 0.33147 0.0
H984 H 0.71138 0.27709 0.34152 0.0
C985 C 0.74414 0.40381 0.3492 0.0
C986 C 0.70655 0.37821 0.36398 0.0
H987 H 0.79703 0.40738 0.32231 0.0
H988 H 0.75506 0.43943 0.35093 0.0
C989 C 0.69658 0.33164 0.35962 0.0
C990 C 0.42338 1.00401 1.00707 0.0
C991 C 0.46709 1.0359 0.02835 0.0
H992 H 0.36264 0.9603 1.0168 0.0
C993 C 0.47438 0.06023 0.0651 0.0
H994 H 0.41666 0.98602 0.97746 0.0
C995 C 0.44298 0.04565 0.08765 0.0
C996 C 0.407 1.00532 0.07504 0.0
H997 H 0.50752 0.08599 0.08092 0.0
H998 H 0.45331 0.05997 0.12109 0.0
C999 C 0.39209 0.98978 0.02949 0.0
C1000 C 0.96185 0.65926 0.93235 0.0
C1001 C 0.98495 0.6398 0.9153 0.0
H1002 H 0.91948 0.70523 0.91889 0.0
C1003 C 0.97958 0.65486 0.86688 0.0
H1004 H 0.96438 0.64976 0.96893 0.0
C1005 C 0.95261 0.68645 0.83738 0.0
C1006 C 0.93013 0.70647 0.85453 0.0
H1007 H 0.99611 0.64175 0.85113 0.0
H1008 H 0.94987 0.69564 0.80069 0.0
C1009 C 0.93586 0.69185 0.9032 0.0
C1010 C 0.45562 0.45086 0.17917 0.0
C1011 C 0.4167 0.4628 0.13764 0.0
H1012 H 0.4773 0.40996 0.24647 0.0
C1013 C 0.36977 0.4444 0.13428 0.0
H1014 H 0.49231 0.4643 0.18263 0.0
C1015 C 0.36144 0.41319 0.1699 0.0
C1016 C 0.39968 0.39967 0.21042 0.0
H1017 H 0.33915 0.45353 0.10352 0.0
H1018 H 0.32455 0.39949 0.16519 0.0
C1019 C 0.44716 0.41963 0.21554 0.0
C1020 C 0.56103 0.60885 0.84343 0.0
C1021 C 0.60307 0.61355 0.88719 0.0
H1022 H 0.49821 0.63252 0.80287 0.0
C1023 C 0.62953 0.65649 0.90212 0.0
H1024 H 0.54167 0.57647 0.82903 0.0
C1025 C 0.6045 0.68888 0.88796 0.0
C1026 C 0.55489 0.6779 0.85654 0.0
H1027 H 0.66408 0.66165 0.93382 0.0
H1028 H 0.62119 0.71808 0.90858 0.0
C1029 C 0.53583 0.64106 0.8286 0.0
C1030 C 0.21119 0.64002 0.63619 0.0
C1031 C 0.17607 0.60666 0.64781 0.0
H1032 H 0.27046 0.69864 0.6577 0.0
C1033 C 0.17388 0.60899 0.69165 0.0
H1034 H 0.21411 0.63951 0.60288 0.0
C1035 C 0.20637 0.64299 0.72329 0.0
C1036 C 0.24204 0.67591 0.71207 0.0
H1037 H 0.14742 0.58404 0.70198 0.0
H1038 H 0.20394 0.64309 0.75696 0.0
C1039 C 0.24356 0.67407 0.66774 0.0
C1040 C 0.48612 0.36569 0.67386 0.0
C1041 C 0.44079 0.36998 0.67033 0.0
H1042 H 0.54749 0.38316 0.65416 0.0
C1043 C 0.4295 0.40588 0.63107 0.0
H1044 H 0.50135 0.34084 0.70088 0.0
C1045 C 0.45798 0.43202 0.60133 0.0
C1046 C 0.50384 0.42752 0.6056 0.0
H1047 H 0.39674 0.41467 0.62229 0.0
H1048 H 0.44293 0.45691 0.57424 0.0
C1049 C 0.51454 0.39189 0.64481 0.0
C1050 C 0.20309 0.70654 0.14322 0.0
C1051 C 0.24642 0.69438 0.17294 0.0
H1052 H 0.13161 0.68844 0.08546 0.0
C1053 C 0.24846 0.65152 0.17138 0.0
H1054 H 0.2006 0.73941 0.14369 0.0
C1055 C 0.20843 0.62184 0.13942 0.0
C1056 C 0.16618 0.63504 0.10745 0.0
H1057 H 0.2814 0.64131 0.19413 0.0
H1058 H 0.2116 0.5896 0.13762 0.0
C1059 C 0.16362 0.67739 0.11011 0.0
C1060 C 0.7591 0.41675 0.64354 0.0
C1061 C 0.75251 0.38926 0.68358 0.0
H1062 H 0.74001 0.46835 0.58593 0.0
C1063 C 0.71847 0.39857 0.69513 0.0
H1064 H 0.7839 0.41198 0.63193 0.0
C1065 C 0.69318 0.43258 0.66867 0.0
C1066 C 0.69948 0.45957 0.62809 0.0
H1067 H 0.71105 0.37929 0.72511 0.0
H1068 H 0.66747 0.43683 0.67948 0.0
C1069 C 0.73335 0.45 0.61667 0.0
C1070 C 0.94328 0.51257 0.29181 0.0
C1071 C 0.97645 0.55466 0.30294 0.0
H1072 H 0.91973 0.45391 0.25439 0.0
C1073 C 1.01869 0.56377 0.29585 0.0
H1074 H 0.91166 0.50276 0.29912 0.0
C1075 C 1.02421 0.53485 0.27237 0.0
C1076 C 0.98719 0.49648 0.25399 0.0
H1077 H 1.04577 0.59517 0.30342 0.0
H1078 H 1.05488 0.54577 0.26335 0.0
C1079 C 0.94818 0.48406 0.26679 0.0
C1080 C 0.91675 0.72438 0.45512 0.0
C1081 C 0.96669 0.72982 0.48315 0.0
H1082 H 0.85068 0.72972 0.45121 0.0
C1083 C 0.98883 0.74787 0.52863 0.0
H1084 H 0.89883 0.71068 0.41988 0.0
C1085 C 0.96115 0.75742 0.54712 0.0
C1086 C 0.91076 0.74997 0.52023 0.0
H1087 H 1.0271 0.75182 0.55147 0.0
H1088 H 0.97902 0.76806 0.58387 0.0
C1089 C 0.88916 0.73486 0.47324 0.0
C1090 C 0.4853 0.63414 0.36164 0.0
C1091 C 0.48104 0.60816 0.40353 0.0
H1092 H 0.46526 0.68627 0.30432 0.0
C1093 C 0.44822 0.61817 0.41626 0.0
H1094 H 0.5101 0.62959 0.34974 0.0
C1095 C 0.42168 0.65093 0.38953 0.0
C1096 C 0.42641 0.67752 0.34825 0.0
H1097 H 0.4431 0.60061 0.44803 0.0
H1098 H 0.39785 0.65605 0.40231 0.0
C1099 C 0.45927 0.66768 0.33529 0.0
C1100 C 0.32247 0.52582 0.86094 0.0
C1101 C 0.30031 0.48009 0.86023 0.0
H1102 H 0.33328 0.5869 0.88782 0.0
C1103 C 0.28051 0.45927 0.89349 0.0
H1104 H 0.3386 0.54234 0.83596 0.0
C1105 C 0.27744 0.48438 0.92289 0.0
C1106 C 0.2941 0.53087 0.91947 0.0
H1107 H 0.26432 0.42379 0.89428 0.0
H1108 H 0.2577 0.46748 0.94461 0.0
C1109 C 0.3194 0.55118 0.89053 0.0
C1110 C 0.2913 0.34489 0.55085 0.0
C1111 C 0.30803 0.38286 0.525 0.0
H1112 H 0.25266 0.3171 0.59501 0.0
C1113 C 0.30336 0.42379 0.52907 0.0
H1114 H 0.29417 0.31282 0.54802 0.0
C1115 C 0.28048 0.42636 0.55681 0.0
C1116 C 0.26071 0.38787 0.58007 0.0
H1117 H 0.31614 0.45356 0.50962 0.0
H1118 H 0.27598 0.45817 0.55772 0.0
C1119 C 0.26743 0.3473 0.57767 0.0
loop_
_geom_bond_atom_site_label_1
_geom_bond_atom_site_label_2
_geom_bond_distance
_geom_bond_site_symmetry_2
_ccdc_geom_bond_type
C0 Eu1 2.835 . S
C0 C2 1.500 1_455 S
C0 O20 1.257 1_455 S
C0 O21 1.260 . S
Eu1 C0 2.835 . S
Eu1 O20 2.473 1_455 S
Eu1 O21 2.480 . S
Eu1 O22 2.430 . S
Eu1 O23 2.670 1_554 S
Eu1 O24 2.394 1_454 S
Eu1 O29 2.355 1_445 S
Eu1 O31 2.374 1_545 S
C2 C0 1.500 1_655 S
C2 C3 1.377 1_655 S
C2 C7 1.377 . S
C3 C2 1.377 1_455 S
C3 C4 1.395 . S
C3 H32 0.931 . S
C4 C3 1.395 . S
C4 C5 1.383 1_455 S
C4 H33 0.931 . S
C5 C4 1.383 1_655 S
C5 C6 1.394 . S
C6 C5 1.394 . S
C6 C7 1.378 . S
C6 H34 0.931 . S
C7 C2 1.377 . S
C7 C6 1.378 . S
C7 H35 0.931 . S
C8 O22 1.259 1_556 S
C8 O23 1.270 . S
C9 O24 1.251 . S
C9 O25 1.251 . S
C10 Eu11 2.851 . S
C10 C12 1.484 1_655 S
C10 O26 1.255 1_655 S
C10 O27 1.278 . S
Eu11 C10 2.851 . S
Eu11 O23 2.355 1_665 S
Eu11 O25 2.374 1_565 S
Eu11 O26 2.473 1_655 S
Eu11 O27 2.480 . S
Eu11 O28 2.430 . S
Eu11 O29 2.670 1_556 S
Eu11 O30 2.394 1_656 S
C12 C10 1.484 1_455 S
C12 C13 1.377 1_455 S
C12 C17 1.377 . S
C13 C12 1.377 1_655 S
C13 C14 1.395 . S
C13 H36 0.931 . S
C14 C13 1.395 . S
C14 C15 1.383 1_655 S
C14 H37 0.931 . S
C15 C14 1.383 1_455 S
C15 C16 1.394 . S
C16 C15 1.394 . S
C16 C17 1.378 . S
C16 H38 0.931 . S
C17 C12 1.377 . S
C17 C16 1.378 . S
C17 H39 0.931 . S
C18 O28 1.259 1_554 S
C18 O29 1.270 . S
C19 O30 1.251 . S
C19 O31 1.251 . S
O20 C0 1.257 1_655 S
O20 Eu1 2.473 1_655 S
O21 C0 1.260 . S
O21 Eu1 2.480 . S
O22 Eu1 2.430 . S
O22 C8 1.259 1_554 S
O23 Eu1 2.670 1_556 S
O23 C8 1.270 . S
O23 Eu11 2.355 1_445 S
O24 Eu1 2.394 1_656 S
O24 C9 1.251 . S
O25 C9 1.251 . S
O25 Eu11 2.374 1_545 S
O26 C10 1.255 1_455 S
O26 Eu11 2.473 1_455 S
O27 C10 1.278 . S
O27 Eu11 2.480 . S
O28 Eu11 2.430 . S
O28 C18 1.259 1_556 S
O29 Eu1 2.355 1_665 S
O29 Eu11 2.670 1_554 S
O29 C18 1.270 . S
O30 Eu11 2.394 1_454 S
O30 C19 1.251 . S
O31 Eu1 2.374 1_565 S
O31 C19 1.251 . S
H32 C3 0.931 . S
H33 C4 0.931 . S
H34 C6 0.931 . S
H35 C7 0.931 . S
H36 C13 0.931 . S
H37 C14 0.931 . S
H38 C16 0.931 . S
H39 C17 0.931 . S
C40 Eu41 2.835 . S
C40 C42 1.500 . S
C40 O60 1.257 . S
C40 O61 1.260 . S
Eu41 C40 2.835 . S
Eu41 O60 2.473 . S
Eu41 O61 2.480 . S
Eu41 O62 2.430 . S
Eu41 O63 2.670 . S
Eu41 O64 2.394 . S
Eu41 O69 2.355 . S
Eu41 O71 2.374 . S
C42 C40 1.500 . S
C42 C43 1.377 . S
C42 C47 1.377 . S
C43 C42 1.377 . S
C43 C44 1.395 . S
C43 H72 0.931 . S
C44 C43 1.395 . S
C44 C45 1.383 . S
C44 H73 0.931 . S
C45 C44 1.383 . S
C45 C46 1.394 . S
C46 C45 1.394 . S
C46 C47 1.378 . S
C46 H74 0.931 . S
C47 C42 1.377 . S
C47 C46 1.378 . S
C47 H75 0.931 . S
C48 O62 1.259 . S
C48 O63 1.270 . S
C49 O64 1.251 . S
C49 O65 1.251 . S
C50 Eu51 2.835 . S
C50 C52 1.500 . S
C50 O66 1.257 . S
C50 O67 1.260 . S
Eu51 C50 2.835 . S
Eu51 O63 2.355 . S
Eu51 O65 2.374 . S
Eu51 O66 2.473 . S
Eu51 O67 2.480 . S
Eu51 O68 2.430 . S
Eu51 O69 2.670 . S
Eu51 O70 2.394 . S
C52 C50 1.500 . S
C52 C53 1.377 . S
C52 C57 1.377 . S
C53 C52 1.377 . S
C53 C54 1.395 . S
C53 H76 0.931 . S
C54 C53 1.395 . S
C54 C55 1.383 . S
C54 H77 0.931 . S
C55 C54 1.383 . S
C55 C56 1.394 . S
C56 C55 1.394 . S
C56 C57 1.378 . S
C56 H78 0.931 . S
C57 C52 1.377 . S
C57 C56 1.378 . S
C57 H79 0.931 . S
C58 O68 1.259 . S
C58 O69 1.270 . S
C59 O70 1.251 . S
C59 O71 1.251 . S
O60 C40 1.257 . S
O60 Eu41 2.473 . S
O61 C40 1.260 . S
O61 Eu41 2.480 . S
O62 Eu41 2.430 . S
O62 C48 1.259 . S
O63 Eu41 2.670 . S
O63 C48 1.270 . S
O63 Eu51 2.355 . S
O64 Eu41 2.394 . S
O64 C49 1.251 . S
O65 C49 1.251 . S
O65 Eu51 2.374 . S
O66 C50 1.257 . S
O66 Eu51 2.473 . S
O67 C50 1.260 . S
O67 Eu51 2.480 . S
O68 Eu51 2.430 . S
O68 C58 1.259 . S
O69 Eu41 2.355 . S
O69 Eu51 2.670 . S
O69 C58 1.270 . S
O70 Eu51 2.394 . S
O70 C59 1.251 . S
O71 Eu41 2.374 . S
O71 C59 1.251 . S
H72 C43 0.931 . S
H73 C44 0.931 . S
H74 C46 0.931 . S
H75 C47 0.931 . S
H76 C53 0.931 . S
H77 C54 0.931 . S
H78 C56 0.931 . S
H79 C57 0.931 . S
C80 Eu81 2.835 1_565 S
C80 C82 1.500 . S
C80 O100 1.257 . S
C80 O101 1.260 1_565 S
Eu81 C80 2.835 1_545 S
Eu81 O100 2.473 1_545 S
Eu81 O101 2.480 . S
Eu81 O102 2.430 . S
Eu81 O103 2.670 . S
Eu81 O104 2.394 1_545 S
Eu81 O109 2.355 1_545 S
Eu81 O111 2.374 . S
C82 C80 1.500 . S
C82 C83 1.377 . S
C82 C87 1.377 . S
C83 C82 1.377 . S
C83 C84 1.395 . S
C83 H112 0.931 1_565 S
C84 C83 1.395 . S
C84 C85 1.383 . S
C84 H113 0.931 . S
C85 C84 1.383 . S
C85 C86 1.394 . S
C86 C85 1.394 . S
C86 C87 1.378 . S
C86 H114 0.931 . S
C87 C82 1.377 . S
C87 C86 1.378 . S
C87 H115 0.931 . S
C88 O102 1.259 . S
C88 O103 1.270 . S
C89 O104 1.251 . S
C89 O105 1.251 . S
C90 Eu91 2.835 1_545 S
C90 C92 1.500 . S
C90 O106 1.257 . S
C90 O107 1.260 1_545 S
Eu91 C90 2.835 1_565 S
Eu91 O103 2.355 1_565 S
Eu91 O105 2.374 . S
Eu91 O106 2.473 1_565 S
Eu91 O107 2.480 . S
Eu91 O108 2.430 . S
Eu91 O109 2.670 . S
Eu91 O110 2.394 1_565 S
C92 C90 1.500 . S
C92 C93 1.377 . S
C92 C97 1.377 . S
C93 C92 1.377 . S
C93 C94 1.395 . S
C93 H116 0.931 1_545 S
C94 C93 1.395 . S
C94 C95 1.383 . S
C94 H117 0.931 . S
C95 C94 1.383 . S
C95 C96 1.394 . S
C96 C95 1.394 . S
C96 C97 1.378 . S
C96 H118 0.931 . S
C97 C92 1.377 . S
C97 C96 1.378 . S
C97 H119 0.931 . S
C98 O108 1.259 . S
C98 O109 1.270 . S
C99 O110 1.251 . S
C99 O111 1.251 . S
O100 C80 1.257 . S
O100 Eu81 2.473 1_565 S
O101 C80 1.260 1_545 S
O101 Eu81 2.480 . S
O102 Eu81 2.430 . S
O102 C88 1.259 . S
O103 Eu81 2.670 . S
O103 C88 1.270 . S
O103 Eu91 2.355 1_545 S
O104 Eu81 2.394 1_565 S
O104 C89 1.251 . S
O105 C89 1.251 . S
O105 Eu91 2.374 . S
O106 C90 1.257 . S
O106 Eu91 2.473 1_545 S
O107 C90 1.260 1_565 S
O107 Eu91 2.480 . S
O108 Eu91 2.430 . S
O108 C98 1.259 . S
O109 Eu81 2.355 1_565 S
O109 Eu91 2.670 . S
O109 C98 1.270 . S
O110 Eu91 2.394 1_545 S
O110 C99 1.251 . S
O111 Eu81 2.374 . S
O111 C99 1.251 . S
H112 C83 0.931 1_545 S
H113 C84 0.931 . S
H114 C86 0.931 . S
H115 C87 0.931 . S
H116 C93 0.931 1_565 S
H117 C94 0.931 . S
H118 C96 0.931 . S
H119 C97 0.931 . S
C120 Eu121 2.835 . S
C120 C122 1.500 . S
C120 O140 1.257 . S
C120 O141 1.260 . S
Eu121 C120 2.835 . S
Eu121 O140 2.473 . S
Eu121 O141 2.480 . S
Eu121 O142 2.430 . S
Eu121 O143 2.670 . S
Eu121 O144 2.394 . S
Eu121 O149 2.355 . S
Eu121 O151 2.374 . S
C122 C120 1.500 . S
C122 C123 1.377 . S
C122 C127 1.377 . S
C123 C122 1.377 . S
C123 C124 1.395 . S
C123 H152 0.931 . S
C124 C123 1.395 . S
C124 C125 1.383 . S
C124 H153 0.931 . S
C125 C124 1.383 . S
C125 C126 1.394 . S
C126 C125 1.394 . S
C126 C127 1.378 . S
C126 H154 0.931 . S
C127 C122 1.377 . S
C127 C126 1.378 . S
C127 H155 0.931 . S
C128 O142 1.259 . S
C128 O143 1.270 . S
C129 O144 1.251 . S
C129 O145 1.251 . S
C130 Eu131 2.835 . S
C130 C132 1.500 . S
C130 O146 1.257 . S
C130 O147 1.260 . S
Eu131 C130 2.835 . S
Eu131 O143 2.355 . S
Eu131 O145 2.374 . S
Eu131 O146 2.473 . S
Eu131 O147 2.480 . S
Eu131 O148 2.430 . S
Eu131 O149 2.670 . S
Eu131 O150 2.394 . S
C132 C130 1.500 . S
C132 C133 1.377 . S
C132 C137 1.377 . S
C133 C132 1.377 . S
C133 C134 1.395 . S
C133 H156 0.931 . S
C134 C133 1.395 . S
C134 C135 1.383 . S
C134 H157 0.931 . S
C135 C134 1.383 . S
C135 C136 1.394 . S
C136 C135 1.394 . S
C136 C137 1.378 . S
C136 H158 0.931 . S
C137 C132 1.377 . S
C137 C136 1.378 . S
C137 H159 0.931 . S
C138 O148 1.259 . S
C138 O149 1.270 . S
C139 O150 1.251 . S
C139 O151 1.251 . S
O140 C120 1.257 . S
O140 Eu121 2.473 . S
O141 C120 1.260 . S
O141 Eu121 2.480 . S
O142 Eu121 2.430 . S
O142 C128 1.259 . S
O143 Eu121 2.670 . S
O143 C128 1.270 . S
O143 Eu131 2.355 . S
O144 Eu121 2.394 . S
O144 C129 1.251 . S
O145 C129 1.251 . S
O145 Eu131 2.374 . S
O146 C130 1.257 . S
O146 Eu131 2.473 . S
O147 C130 1.260 . S
O147 Eu131 2.480 . S
O148 Eu131 2.430 . S
O148 C138 1.259 . S
O149 Eu121 2.355 . S
O149 Eu131 2.670 . S
O149 C138 1.270 . S
O150 Eu131 2.394 . S
O150 C139 1.251 . S
O151 Eu121 2.374 . S
O151 C139 1.251 . S
H152 C123 0.931 . S
H153 C124 0.931 . S
H154 C126 0.931 . S
H155 C127 0.931 . S
H156 C133 0.931 . S
H157 C134 0.931 . S
H158 C136 0.931 . S
H159 C137 0.931 . S
C160 Eu161 2.835 . S
C160 C162 1.500 . S
C160 O180 1.257 . S
C160 O181 1.260 . S
Eu161 C160 2.835 . S
Eu161 O180 2.473 . S
Eu161 O181 2.480 . S
Eu161 O182 2.430 1_445 S
Eu161 O183 2.670 1_445 S
Eu161 O184 2.394 1_455 S
Eu161 O189 2.355 . S
Eu161 O191 2.374 1_545 S
C162 C160 1.500 . S
C162 C163 1.377 . S
C162 C167 1.377 . S
C163 C162 1.377 . S
C163 C164 1.395 . S
C163 H192 0.931 . S
C164 C163 1.395 . S
C164 C165 1.383 . S
C164 H193 0.931 . S
C165 C164 1.383 . S
C165 C166 1.394 . S
C166 C165 1.394 . S
C166 C167 1.378 . S
C166 H194 0.931 . S
C167 C162 1.377 . S
C167 C166 1.378 . S
C167 H195 0.931 . S
C168 O182 1.259 . S
C168 O183 1.270 . S
C169 O184 1.251 . S
C169 O185 1.251 . S
C170 Eu171 2.835 . S
C170 C172 1.500 . S
C170 O186 1.257 . S
C170 O187 1.260 . S
Eu171 C170 2.835 . S
Eu171 O183 2.355 . S
Eu171 O185 2.374 1_565 S
Eu171 O186 2.473 . S
Eu171 O187 2.480 . S
Eu171 O188 2.430 1_665 S
Eu171 O189 2.670 1_665 S
Eu171 O190 2.394 1_655 S
C172 C170 1.500 . S
C172 C173 1.377 . S
C172 C177 1.377 . S
C173 C172 1.377 . S
C173 C174 1.395 . S
C173 H196 0.931 . S
C174 C173 1.395 . S
C174 C175 1.383 . S
C174 H197 0.931 . S
C175 C174 1.383 . S
C175 C176 1.394 . S
C176 C175 1.394 . S
C176 C177 1.378 . S
C176 H198 0.931 . S
C177 C172 1.377 . S
C177 C176 1.378 . S
C177 H199 0.931 . S
C178 O188 1.259 . S
C178 O189 1.270 . S
C179 O190 1.251 . S
C179 O191 1.251 . S
O180 C160 1.257 . S
O180 Eu161 2.473 . S
O181 C160 1.260 . S
O181 Eu161 2.480 . S
O182 Eu161 2.430 1_665 S
O182 C168 1.259 . S
O183 Eu161 2.670 1_665 S
O183 C168 1.270 . S
O183 Eu171 2.355 . S
O184 Eu161 2.394 1_655 S
O184 C169 1.251 . S
O185 C169 1.251 . S
O185 Eu171 2.374 1_545 S
O186 C170 1.257 . S
O186 Eu171 2.473 . S
O187 C170 1.260 . S
O187 Eu171 2.480 . S
O188 Eu171 2.430 1_445 S
O188 C178 1.259 . S
O189 Eu161 2.355 . S
O189 Eu171 2.670 1_445 S
O189 C178 1.270 . S
O190 Eu171 2.394 1_455 S
O190 C179 1.251 . S
O191 Eu161 2.374 1_565 S
O191 C179 1.251 . S
H192 C163 0.931 . S
H193 C164 0.931 . S
H194 C166 0.931 . S
H195 C167 0.931 . S
H196 C173 0.931 . S
H197 C174 0.931 . S
H198 C176 0.931 . S
H199 C177 0.931 . S
C200 Eu201 2.835 . S
C200 C202 1.500 . S
C200 O220 1.257 . S
C200 O221 1.260 . S
Eu201 C200 2.835 . S
Eu201 O220 2.473 . S
Eu201 O221 2.480 . S
Eu201 O222 2.430 . S
Eu201 O223 2.670 . S
Eu201 O224 2.394 . S
Eu201 O229 2.355 . S
Eu201 O231 2.374 . S
C202 C200 1.500 . S
C202 C203 1.377 . S
C202 C207 1.377 . S
C203 C202 1.377 . S
C203 C204 1.395 . S
C203 H232 0.931 . S
C204 C203 1.395 . S
C204 C205 1.383 . S
C204 H233 0.931 . S
C205 C204 1.383 . S
C205 C206 1.394 . S
C206 C205 1.394 . S
C206 C207 1.378 . S
C206 H234 0.931 . S
C207 C202 1.377 . S
C207 C206 1.378 . S
C207 H235 0.931 . S
C208 O222 1.259 . S
C208 O223 1.270 . S
C209 O224 1.251 . S
C209 O225 1.251 . S
C210 Eu211 2.835 . S
C210 C212 1.500 . S
C210 O226 1.257 . S
C210 O227 1.260 . S
Eu211 C210 2.835 . S
Eu211 O223 2.355 . S
Eu211 O225 2.374 . S
Eu211 O226 2.473 . S
Eu211 O227 2.480 . S
Eu211 O228 2.430 . S
Eu211 O229 2.670 . S
Eu211 O230 2.394 . S
C212 C210 1.500 . S
C212 C213 1.377 . S
C212 C217 1.377 . S
C213 C212 1.377 . S
C213 C214 1.395 . S
C213 H236 0.931 . S
C214 C213 1.395 . S
C214 C215 1.383 . S
C214 H237 0.931 . S
C215 C214 1.383 . S
C215 C216 1.394 . S
C216 C215 1.394 . S
C216 C217 1.378 . S
C216 H238 0.931 . S
C217 C212 1.377 . S
C217 C216 1.378 . S
C217 H239 0.931 . S
C218 O228 1.259 . S
C218 O229 1.270 . S
C219 O230 1.251 . S
C219 O231 1.251 . S
O220 C200 1.257 . S
O220 Eu201 2.473 . S
O221 C200 1.260 . S
O221 Eu201 2.480 . S
O222 Eu201 2.430 . S
O222 C208 1.259 . S
O223 Eu201 2.670 . S
O223 C208 1.270 . S
O223 Eu211 2.355 . S
O224 Eu201 2.394 . S
O224 C209 1.251 . S
O225 C209 1.251 . S
O225 Eu211 2.374 . S
O226 C210 1.257 . S
O226 Eu211 2.473 . S
O227 C210 1.260 . S
O227 Eu211 2.480 . S
O228 Eu211 2.430 . S
O228 C218 1.259 . S
O229 Eu201 2.355 . S
O229 Eu211 2.670 . S
O229 C218 1.270 . S
O230 Eu211 2.394 . S
O230 C219 1.251 . S
O231 Eu201 2.374 . S
O231 C219 1.251 . S
H232 C203 0.931 . S
H233 C204 0.931 . S
H234 C206 0.931 . S
H235 C207 0.931 . S
H236 C213 0.931 . S
H237 C214 0.931 . S
H238 C216 0.931 . S
H239 C217 0.931 . S
C240 Eu241 2.835 1_554 S
C240 C242 1.500 . S
C240 O260 1.257 . S
C240 O261 1.260 1_554 S
Eu241 C240 2.835 1_556 S
Eu241 O260 2.473 1_556 S
Eu241 O261 2.480 . S
Eu241 O262 2.430 1_545 S
Eu241 O263 2.670 1_545 S
Eu241 O264 2.394 1_546 S
Eu241 O269 2.355 1_556 S
Eu241 O271 2.374 . S
C242 C240 1.500 . S
C242 C243 1.377 . S
C242 C247 1.377 . S
C243 C242 1.377 . S
C243 C244 1.395 . S
C243 H272 0.931 1_554 S
C244 C243 1.395 . S
C244 C245 1.383 . S
C244 H273 0.931 1_554 S
C245 C244 1.383 . S
C245 C246 1.394 . S
C246 C245 1.394 . S
C246 C247 1.378 . S
C246 H274 0.931 . S
C247 C242 1.377 . S
C247 C246 1.378 . S
C247 H275 0.931 . S
C248 O262 1.259 . S
C248 O263 1.270 . S
C249 O264 1.251 . S
C249 O265 1.251 . S
C250 Eu251 2.835 1_556 S
C250 C252 1.500 . S
C250 O266 1.257 . S
C250 O267 1.260 1_556 S
Eu251 C250 2.835 1_554 S
Eu251 O263 2.355 1_554 S
Eu251 O265 2.374 . S
Eu251 O266 2.473 1_554 S
Eu251 O267 2.480 . S
Eu251 O268 2.430 1_565 S
Eu251 O269 2.670 1_565 S
Eu251 O270 2.394 1_564 S
C252 C250 1.500 . S
C252 C253 1.377 . S
C252 C257 1.377 . S
C253 C252 1.377 . S
C253 C254 1.395 . S
C253 H276 0.931 1_556 S
C254 C253 1.395 . S
C254 C255 1.383 . S
C254 H277 0.931 1_556 S
C255 C254 1.383 . S
C255 C256 1.394 . S
C256 C255 1.394 . S
C256 C257 1.378 . S
C256 H278 0.931 . S
C257 C252 1.377 . S
C257 C256 1.378 . S
C257 H279 0.931 . S
C258 O268 1.259 . S
C258 O269 1.270 . S
C259 O270 1.251 . S
C259 O271 1.251 . S
O260 C240 1.257 . S
O260 Eu241 2.473 1_554 S
O261 C240 1.260 1_556 S
O261 Eu241 2.480 . S
O262 Eu241 2.430 1_565 S
O262 C248 1.259 . S
O263 Eu241 2.670 1_565 S
O263 C248 1.270 . S
O263 Eu251 2.355 1_556 S
O264 Eu241 2.394 1_564 S
O264 C249 1.251 . S
O265 C249 1.251 . S
O265 Eu251 2.374 . S
O266 C250 1.257 . S
O266 Eu251 2.473 1_556 S
O267 C250 1.260 1_554 S
O267 Eu251 2.480 . S
O268 Eu251 2.430 1_545 S
O268 C258 1.259 . S
O269 Eu241 2.355 1_554 S
O269 Eu251 2.670 1_545 S
O269 C258 1.270 . S
O270 Eu251 2.394 1_546 S
O270 C259 1.251 . S
O271 Eu241 2.374 . S
O271 C259 1.251 . S
H272 C243 0.931 1_556 S
H273 C244 0.931 1_556 S
H274 C246 0.931 . S
H275 C247 0.931 . S
H276 C253 0.931 1_554 S
H277 C254 0.931 1_554 S
H278 C256 0.931 . S
H279 C257 0.931 . S
C280 Eu281 2.835 . S
C280 C282 1.500 . S
C280 O300 1.257 . S
C280 O301 1.260 . S
Eu281 C280 2.835 . S
Eu281 O300 2.473 . S
Eu281 O301 2.480 . S
Eu281 O302 2.430 . S
Eu281 O303 2.670 . S
Eu281 O304 2.394 . S
Eu281 O309 2.355 . S
Eu281 O311 2.374 . S
C282 C280 1.500 . S
C282 C283 1.377 . S
C282 C287 1.377 . S
C283 C282 1.377 . S
C283 C284 1.395 . S
C283 H312 0.931 . S
C284 C283 1.395 . S
C284 C285 1.383 . S
C284 H313 0.931 . S
C285 C284 1.383 . S
C285 C286 1.394 . S
C286 C285 1.394 . S
C286 C287 1.378 . S
C286 H314 0.931 . S
C287 C282 1.377 . S
C287 C286 1.378 . S
C287 H315 0.931 . S
C288 O302 1.259 . S
C288 O303 1.270 . S
C289 O304 1.251 . S
C289 O305 1.251 . S
C290 Eu291 2.835 . S
C290 C292 1.500 . S
C290 O306 1.257 . S
C290 O307 1.260 . S
Eu291 C290 2.835 . S
Eu291 O303 2.355 . S
Eu291 O305 2.374 . S
Eu291 O306 2.473 . S
Eu291 O307 2.480 . S
Eu291 O308 2.430 . S
Eu291 O309 2.670 . S
Eu291 O310 2.394 . S
C292 C290 1.500 . S
C292 C293 1.377 . S
C292 C297 1.377 . S
C293 C292 1.377 . S
C293 C294 1.395 . S
C293 H316 0.931 . S
C294 C293 1.395 . S
C294 C295 1.383 . S
C294 H317 0.931 . S
C295 C294 1.383 . S
C295 C296 1.394 . S
C296 C295 1.394 . S
C296 C297 1.378 . S
C296 H318 0.931 . S
C297 C292 1.377 . S
C297 C296 1.378 . S
C297 H319 0.931 . S
C298 O308 1.259 . S
C298 O309 1.270 . S
C299 O310 1.251 . S
C299 O311 1.251 . S
O300 C280 1.257 . S
O300 Eu281 2.473 . S
O301 C280 1.260 . S
O301 Eu281 2.480 . S
O302 Eu281 2.430 . S
O302 C288 1.259 . S
O303 Eu281 2.670 . S
O303 C288 1.270 . S
O303 Eu291 2.355 . S
O304 Eu281 2.394 . S
O304 C289 1.251 . S
O305 C289 1.251 . S
O305 Eu291 2.374 . S
O306 C290 1.257 . S
O306 Eu291 2.473 . S
O307 C290 1.260 . S
O307 Eu291 2.480 . S
O308 Eu291 2.430 . S
O308 C298 1.259 . S
O309 Eu281 2.355 . S
O309 Eu291 2.670 . S
O309 C298 1.270 . S
O310 Eu291 2.394 . S
O310 C299 1.251 . S
O311 Eu281 2.374 . S
O311 C299 1.251 . S
H312 C283 0.931 . S
H313 C284 0.931 . S
H314 C286 0.931 . S
H315 C287 0.931 . S
H316 C293 0.931 . S
H317 C294 0.931 . S
H318 C296 0.931 . S
H319 C297 0.931 . S
C320 Eu321 2.835 . S
C320 C322 1.500 . S
C320 O340 1.257 . S
C320 O341 1.260 . S
Eu321 C320 2.835 . S
Eu321 O340 2.473 . S
Eu321 O341 2.480 . S
Eu321 O342 2.430 . S
Eu321 O343 2.670 . S
Eu321 O344 2.394 . S
Eu321 O349 2.355 1_556 S
Eu321 O351 2.374 1_556 S
C322 C320 1.500 . S
C322 C323 1.377 . S
C322 C327 1.377 . S
C323 C322 1.377 . S
C323 C324 1.395 . S
C323 H352 0.931 . S
C324 C323 1.395 . S
C324 C325 1.383 . S
C324 H353 0.931 . S
C325 C324 1.383 . S
C325 C326 1.394 . S
C326 C325 1.394 . S
C326 C327 1.378 . S
C326 H354 0.931 . S
C327 C322 1.377 . S
C327 C326 1.378 . S
C327 H355 0.931 . S
C328 O342 1.259 . S
C328 O343 1.270 . S
C329 O344 1.251 . S
C329 O345 1.251 . S
C330 Eu331 2.835 . S
C330 C332 1.500 . S
C330 O346 1.257 . S
C330 O347 1.260 . S
Eu331 C330 2.835 . S
Eu331 O343 2.355 1_554 S
Eu331 O345 2.374 1_554 S
Eu331 O346 2.473 . S
Eu331 O347 2.480 . S
Eu331 O348 2.430 . S
Eu331 O349 2.670 . S
Eu331 O350 2.394 . S
C332 C330 1.500 . S
C332 C333 1.377 . S
C332 C337 1.377 . S
C333 C332 1.377 . S
C333 C334 1.395 . S
C333 H356 0.931 . S
C334 C333 1.395 . S
C334 C335 1.383 . S
C334 H357 0.931 . S
C335 C334 1.383 . S
C335 C336 1.394 . S
C336 C335 1.394 . S
C336 C337 1.378 . S
C336 H358 0.931 . S
C337 C332 1.377 . S
C337 C336 1.378 . S
C337 H359 0.931 . S
C338 O348 1.259 . S
C338 O349 1.270 . S
C339 O350 1.251 . S
C339 O351 1.251 . S
O340 C320 1.257 . S
O340 Eu321 2.473 . S
O341 C320 1.260 . S
O341 Eu321 2.480 . S
O342 Eu321 2.430 . S
O342 C328 1.259 . S
O343 Eu321 2.670 . S
O343 C328 1.270 . S
O343 Eu331 2.355 1_556 S
O344 Eu321 2.394 . S
O344 C329 1.251 . S
O345 C329 1.251 . S
O345 Eu331 2.374 1_556 S
O346 C330 1.257 . S
O346 Eu331 2.473 . S
O347 C330 1.260 . S
O347 Eu331 2.480 . S
O348 Eu331 2.430 . S
O348 C338 1.259 . S
O349 Eu321 2.355 1_554 S
O349 Eu331 2.670 . S
O349 C338 1.270 . S
O350 Eu331 2.394 . S
O350 C339 1.251 . S
O351 Eu321 2.374 1_554 S
O351 C339 1.251 . S
H352 C323 0.931 . S
H353 C324 0.931 . S
H354 C326 0.931 . S
H355 C327 0.931 . S
H356 C333 0.931 . S
H357 C334 0.931 . S
H358 C336 0.931 . S
H359 C337 0.931 . S
C360 Eu361 2.835 . S
C360 C362 1.500 . S
C360 O380 1.257 . S
C360 O381 1.260 . S
Eu361 C360 2.835 . S
Eu361 O380 2.473 . S
Eu361 O381 2.480 . S
Eu361 O382 2.430 . S
Eu361 O383 2.670 . S
Eu361 O384 2.394 . S
Eu361 O389 2.355 . S
Eu361 O391 2.374 . S
C362 C360 1.500 . S
C362 C363 1.377 . S
C362 C367 1.377 . S
C363 C362 1.377 . S
C363 C364 1.395 . S
C363 H392 0.931 . S
C364 C363 1.395 . S
C364 C365 1.383 . S
C364 H393 0.931 . S
C365 C364 1.383 . S
C365 C366 1.394 . S
C366 C365 1.394 . S
C366 C367 1.378 . S
C366 H394 0.931 . S
C367 C362 1.377 . S
C367 C366 1.378 . S
C367 H395 0.931 . S
C368 O382 1.259 . S
C368 O383 1.270 . S
C369 O384 1.251 . S
C369 O385 1.251 . S
C370 Eu371 2.835 . S
C370 C372 1.500 . S
C370 O386 1.257 . S
C370 O387 1.260 . S
Eu371 C370 2.835 . S
Eu371 O383 2.355 . S
Eu371 O385 2.374 . S
Eu371 O386 2.473 . S
Eu371 O387 2.480 . S
Eu371 O388 2.430 . S
Eu371 O389 2.670 . S
Eu371 O390 2.394 . S
C372 C370 1.500 . S
C372 C373 1.377 . S
C372 C377 1.377 . S
C373 C372 1.377 . S
C373 C374 1.395 . S
C373 H396 0.931 . S
C374 C373 1.395 . S
C374 C375 1.383 . S
C374 H397 0.931 . S
C375 C374 1.383 . S
C375 C376 1.394 . S
C376 C375 1.394 . S
C376 C377 1.378 . S
C376 H398 0.931 . S
C377 C372 1.377 . S
C377 C376 1.378 . S
C377 H399 0.931 . S
C378 O388 1.259 . S
C378 O389 1.270 . S
C379 O390 1.251 . S
C379 O391 1.251 . S
O380 C360 1.257 . S
O380 Eu361 2.473 . S
O381 C360 1.260 . S
O381 Eu361 2.480 . S
O382 Eu361 2.430 . S
O382 C368 1.259 . S
O383 Eu361 2.670 . S
O383 C368 1.270 . S
O383 Eu371 2.355 . S
O384 Eu361 2.394 . S
O384 C369 1.251 . S
O385 C369 1.251 . S
O385 Eu371 2.374 . S
O386 C370 1.257 . S
O386 Eu371 2.473 . S
O387 C370 1.260 . S
O387 Eu371 2.480 . S
O388 Eu371 2.430 . S
O388 C378 1.259 . S
O389 Eu361 2.355 . S
O389 Eu371 2.670 . S
O389 C378 1.270 . S
O390 Eu371 2.394 . S
O390 C379 1.251 . S
O391 Eu361 2.374 . S
O391 C379 1.251 . S
H392 C363 0.931 . S
H393 C364 0.931 . S
H394 C366 0.931 . S
H395 C367 0.931 . S
H396 C373 0.931 . S
H397 C374 0.931 . S
H398 C376 0.931 . S
H399 C377 0.931 . S
C400 Eu401 2.835 . S
C400 C402 1.500 . S
C400 O420 1.257 . S
C400 O421 1.260 . S
Eu401 C400 2.835 . S
Eu401 O420 2.473 . S
Eu401 O421 2.480 . S
Eu401 O422 2.430 . S
Eu401 O423 2.670 . S
Eu401 O424 2.394 . S
Eu401 O429 2.355 1_655 S
Eu401 O431 2.374 1_655 S
C402 C400 1.500 . S
C402 C403 1.377 . S
C402 C407 1.377 . S
C403 C402 1.377 . S
C403 C404 1.395 . S
C403 H432 0.931 . S
C404 C403 1.395 . S
C404 C405 1.383 . S
C404 H433 0.931 . S
C405 C404 1.383 . S
C405 C406 1.394 . S
C406 C405 1.394 . S
C406 C407 1.378 . S
C406 H434 0.931 . S
C407 C402 1.377 . S
C407 C406 1.378 . S
C407 H435 0.931 . S
C408 O422 1.259 . S
C408 O423 1.270 . S
C409 O424 1.251 . S
C409 O425 1.251 . S
C410 Eu411 2.835 . S
C410 C412 1.500 . S
C410 O426 1.257 . S
C410 O427 1.260 . S
Eu411 C410 2.835 . S
Eu411 O423 2.355 1_455 S
Eu411 O425 2.374 1_455 S
Eu411 O426 2.473 . S
Eu411 O427 2.480 . S
Eu411 O428 2.430 . S
Eu411 O429 2.670 . S
Eu411 O430 2.394 . S
C412 C410 1.500 . S
C412 C413 1.377 . S
C412 C417 1.377 . S
C413 C412 1.377 . S
C413 C414 1.395 . S
C413 H436 0.931 . S
C414 C413 1.395 . S
C414 C415 1.383 . S
C414 H437 0.931 . S
C415 C414 1.383 . S
C415 C416 1.394 . S
C416 C415 1.394 . S
C416 C417 1.378 . S
C416 H438 0.931 . S
C417 C412 1.377 . S
C417 C416 1.378 . S
C417 H439 0.931 . S
C418 O428 1.259 . S
C418 O429 1.270 . S
C419 O430 1.251 . S
C419 O431 1.251 . S
O420 C400 1.257 . S
O420 Eu401 2.473 . S
O421 C400 1.260 . S
O421 Eu401 2.480 . S
O422 Eu401 2.430 . S
O422 C408 1.259 . S
O423 Eu401 2.670 . S
O423 C408 1.270 . S
O423 Eu411 2.355 1_655 S
O424 Eu401 2.394 . S
O424 C409 1.251 . S
O425 C409 1.251 . S
O425 Eu411 2.374 1_655 S
O426 C410 1.257 . S
O426 Eu411 2.473 . S
O427 C410 1.260 . S
O427 Eu411 2.480 . S
O428 Eu411 2.430 . S
O428 C418 1.259 . S
O429 Eu401 2.355 1_455 S
O429 Eu411 2.670 . S
O429 C418 1.270 . S
O430 Eu411 2.394 . S
O430 C419 1.251 . S
O431 Eu401 2.374 1_455 S
O431 C419 1.251 . S
H432 C403 0.931 . S
H433 C404 0.931 . S
H434 C406 0.931 . S
H435 C407 0.931 . S
H436 C413 0.931 . S
H437 C414 0.931 . S
H438 C416 0.931 . S
H439 C417 0.931 . S
C440 Eu441 2.835 . S
C440 C442 1.500 . S
C440 O460 1.257 . S
C440 O461 1.260 . S
Eu441 C440 2.835 . S
Eu441 O460 2.473 . S
Eu441 O461 2.480 . S
Eu441 O462 2.430 . S
Eu441 O463 2.670 . S
Eu441 O464 2.394 . S
Eu441 O469 2.355 . S
Eu441 O471 2.374 . S
C442 C440 1.500 . S
C442 C443 1.377 . S
C442 C447 1.377 . S
C443 C442 1.377 . S
C443 C444 1.395 . S
C443 H472 0.931 . S
C444 C443 1.395 . S
C444 C445 1.383 . S
C444 H473 0.931 . S
C445 C444 1.383 . S
C445 C446 1.394 . S
C446 C445 1.394 . S
C446 C447 1.378 . S
C446 H474 0.931 . S
C447 C442 1.377 . S
C447 C446 1.378 . S
C447 H475 0.931 . S
C448 O462 1.259 . S
C448 O463 1.270 . S
C449 O464 1.251 . S
C449 O465 1.251 . S
C450 Eu451 2.835 . S
C450 C452 1.500 . S
C450 O466 1.257 . S
C450 O467 1.260 . S
Eu451 C450 2.835 . S
Eu451 O463 2.355 . S
Eu451 O465 2.374 . S
Eu451 O466 2.473 . S
Eu451 O467 2.480 . S
Eu451 O468 2.430 . S
Eu451 O469 2.670 . S
Eu451 O470 2.394 . S
C452 C450 1.500 . S
C452 C453 1.377 . S
C452 C457 1.377 . S
C453 C452 1.377 . S
C453 C454 1.395 . S
C453 H476 0.931 . S
C454 C453 1.395 . S
C454 C455 1.383 . S
C454 H477 0.931 . S
C455 C454 1.383 . S
C455 C456 1.394 . S
C456 C455 1.394 . S
C456 C457 1.378 . S
C456 H478 0.931 . S
C457 C452 1.377 . S
C457 C456 1.378 . S
C457 H479 0.931 . S
C458 O468 1.259 . S
C458 O469 1.270 . S
C459 O470 1.251 . S
C459 O471 1.251 . S
O460 C440 1.257 . S
O460 Eu441 2.473 . S
O461 C440 1.260 . S
O461 Eu441 2.480 . S
O462 Eu441 2.430 . S
O462 C448 1.259 . S
O463 Eu441 2.670 . S
O463 C448 1.270 . S
O463 Eu451 2.355 . S
O464 Eu441 2.394 . S
O464 C449 1.251 . S
O465 C449 1.251 . S
O465 Eu451 2.374 . S
O466 C450 1.257 . S
O466 Eu451 2.473 . S
O467 C450 1.260 . S
O467 Eu451 2.480 . S
O468 Eu451 2.430 . S
O468 C458 1.259 . S
O469 Eu441 2.355 . S
O469 Eu451 2.670 . S
O469 C458 1.270 . S
O470 Eu451 2.394 . S
O470 C459 1.251 . S
O471 Eu441 2.374 . S
O471 C459 1.251 . S
H472 C443 0.931 . S
H473 C444 0.931 . S
H474 C446 0.931 . S
H475 C447 0.931 . S
H476 C453 0.931 . S
H477 C454 0.931 . S
H478 C456 0.931 . S
H479 C457 0.931 . S
C480 Eu481 2.835 . S
C480 C482 1.500 . S
C480 O500 1.257 . S
C480 O501 1.260 . S
Eu481 C480 2.835 . S
Eu481 O500 2.473 . S
Eu481 O501 2.480 . S
Eu481 O502 2.430 . S
Eu481 O503 2.670 . S
Eu481 O504 2.394 . S
Eu481 O509 2.355 . S
Eu481 O511 2.374 . S
C482 C480 1.500 . S
C482 C483 1.377 . S
C482 C487 1.377 . S
C483 C482 1.377 . S
C483 C484 1.395 . S
C483 H512 0.931 . S
C484 C483 1.395 . S
C484 C485 1.383 . S
C484 H513 0.931 . S
C485 C484 1.383 . S
C485 C486 1.394 . S
C486 C485 1.394 . S
C486 C487 1.378 . S
C486 H514 0.931 . S
C487 C482 1.377 . S
C487 C486 1.378 . S
C487 H515 0.931 . S
C488 O502 1.259 . S
C488 O503 1.270 . S
C489 O504 1.251 . S
C489 O505 1.251 . S
C490 Eu491 2.835 . S
C490 C492 1.500 . S
C490 O506 1.257 . S
C490 O507 1.260 . S
Eu491 C490 2.835 . S
Eu491 O503 2.355 . S
Eu491 O505 2.374 . S
Eu491 O506 2.473 . S
Eu491 O507 2.480 . S
Eu491 O508 2.430 . S
Eu491 O509 2.670 . S
Eu491 O510 2.394 . S
C492 C490 1.500 . S
C492 C493 1.377 . S
C492 C497 1.377 . S
C493 C492 1.377 . S
C493 C494 1.395 . S
C493 H516 0.931 . S
C494 C493 1.395 . S
C494 C495 1.383 . S
C494 H517 0.931 . S
C495 C494 1.383 . S
C495 C496 1.394 . S
C496 C495 1.394 . S
C496 C497 1.378 . S
C496 H518 0.931 . S
C497 C492 1.377 . S
C497 C496 1.378 . S
C497 H519 0.931 . S
C498 O508 1.259 . S
C498 O509 1.270 . S
C499 O510 1.251 . S
C499 O511 1.251 . S
O500 C480 1.257 . S
O500 Eu481 2.473 . S
O501 C480 1.260 . S
O501 Eu481 2.480 . S
O502 Eu481 2.430 . S
O502 C488 1.259 . S
O503 Eu481 2.670 . S
O503 C488 1.270 . S
O503 Eu491 2.355 . S
O504 Eu481 2.394 . S
O504 C489 1.251 . S
O505 C489 1.251 . S
O505 Eu491 2.374 . S
O506 C490 1.257 . S
O506 Eu491 2.473 . S
O507 C490 1.260 . S
O507 Eu491 2.480 . S
O508 Eu491 2.430 . S
O508 C498 1.259 . S
O509 Eu481 2.355 . S
O509 Eu491 2.670 . S
O509 C498 1.270 . S
O510 Eu491 2.394 . S
O510 C499 1.251 . S
O511 Eu481 2.374 . S
O511 C499 1.251 . S
H512 C483 0.931 . S
H513 C484 0.931 . S
H514 C486 0.931 . S
H515 C487 0.931 . S
H516 C493 0.931 . S
H517 C494 0.931 . S
H518 C496 0.931 . S
H519 C497 0.931 . S
C520 Eu521 2.835 . S
C520 C522 1.500 . S
C520 O540 1.257 . S
C520 O541 1.260 . S
Eu521 C520 2.835 . S
Eu521 O540 2.473 . S
Eu521 O541 2.480 . S
Eu521 O542 2.430 . S
Eu521 O543 2.670 . S
Eu521 O544 2.394 . S
Eu521 O549 2.355 . S
Eu521 O551 2.374 . S
C522 C520 1.500 . S
C522 C523 1.377 . S
C522 C527 1.377 . S
C523 C522 1.377 . S
C523 C524 1.395 . S
C523 H552 0.931 . S
C524 C523 1.395 . S
C524 C525 1.383 . S
C524 H553 0.931 . S
C525 C524 1.383 . S
C525 C526 1.394 . S
C526 C525 1.394 . S
C526 C527 1.378 . S
C526 H554 0.931 . S
C527 C522 1.377 . S
C527 C526 1.378 . S
C527 H555 0.931 . S
C528 O542 1.259 . S
C528 O543 1.270 . S
C529 O544 1.251 . S
C529 O545 1.251 . S
C530 Eu531 2.835 . S
C530 C532 1.500 . S
C530 O546 1.257 . S
C530 O547 1.260 . S
Eu531 C530 2.835 . S
Eu531 O543 2.355 . S
Eu531 O545 2.374 . S
Eu531 O546 2.473 . S
Eu531 O547 2.480 . S
Eu531 O548 2.430 . S
Eu531 O549 2.670 . S
Eu531 O550 2.394 . S
C532 C530 1.500 . S
C532 C533 1.377 . S
C532 C537 1.377 . S
C533 C532 1.377 . S
C533 C534 1.395 . S
C533 H556 0.931 . S
C534 C533 1.395 . S
C534 C535 1.383 . S
C534 H557 0.931 . S
C535 C534 1.383 . S
C535 C536 1.394 . S
C536 C535 1.394 . S
C536 C537 1.378 . S
C536 H558 0.931 . S
C537 C532 1.377 . S
C537 C536 1.378 . S
C537 H559 0.931 . S
C538 O548 1.259 . S
C538 O549 1.270 . S
C539 O550 1.251 . S
C539 O551 1.251 . S
O540 C520 1.257 . S
O540 Eu521 2.473 . S
O541 C520 1.260 . S
O541 Eu521 2.480 . S
O542 Eu521 2.430 . S
O542 C528 1.259 . S
O543 Eu521 2.670 . S
O543 C528 1.270 . S
O543 Eu531 2.355 . S
O544 Eu521 2.394 . S
O544 C529 1.251 . S
O545 C529 1.251 . S
O545 Eu531 2.374 . S
O546 C530 1.257 . S
O546 Eu531 2.473 . S
O547 C530 1.260 . S
O547 Eu531 2.480 . S
O548 Eu531 2.430 . S
O548 C538 1.259 . S
O549 Eu521 2.355 . S
O549 Eu531 2.670 . S
O549 C538 1.270 . S
O550 Eu531 2.394 . S
O550 C539 1.251 . S
O551 Eu521 2.374 . S
O551 C539 1.251 . S
H552 C523 0.931 . S
H553 C524 0.931 . S
H554 C526 0.931 . S
H555 C527 0.931 . S
H556 C533 0.931 . S
H557 C534 0.931 . S
H558 C536 0.931 . S
H559 C537 0.931 . S
C560 Eu561 2.835 . S
C560 C562 1.500 . S
C560 O580 1.257 . S
C560 O581 1.260 . S
Eu561 C560 2.835 . S
Eu561 O580 2.473 . S
Eu561 O581 2.480 . S
Eu561 O582 2.430 . S
Eu561 O583 2.670 . S
Eu561 O584 2.394 . S
Eu561 O589 2.355 . S
Eu561 O591 2.374 . S
C562 C560 1.500 . S
C562 C563 1.377 . S
C562 C567 1.377 . S
C563 C562 1.377 . S
C563 C564 1.395 . S
C563 H592 0.931 . S
C564 C563 1.395 . S
C564 C565 1.383 . S
C564 H593 0.931 . S
C565 C564 1.383 . S
C565 C566 1.394 . S
C566 C565 1.394 . S
C566 C567 1.378 . S
C566 H594 0.931 . S
C567 C562 1.377 . S
C567 C566 1.378 . S
C567 H595 0.931 . S
C568 O582 1.259 . S
C568 O583 1.270 . S
C569 O584 1.251 . S
C569 O585 1.251 . S
C570 Eu571 2.835 . S
C570 C572 1.500 . S
C570 O586 1.257 . S
C570 O587 1.260 . S
Eu571 C570 2.835 . S
Eu571 O583 2.355 . S
Eu571 O585 2.374 . S
Eu571 O586 2.473 . S
Eu571 O587 2.480 . S
Eu571 O588 2.430 . S
Eu571 O589 2.670 . S
Eu571 O590 2.394 . S
C572 C570 1.500 . S
C572 C573 1.377 . S
C572 C577 1.377 . S
C573 C572 1.377 . S
C573 C574 1.395 . S
C573 H596 0.931 . S
C574 C573 1.395 . S
C574 C575 1.383 . S
C574 H597 0.931 . S
C575 C574 1.383 . S
C575 C576 1.394 . S
C576 C575 1.394 . S
C576 C577 1.378 . S
C576 H598 0.931 . S
C577 C572 1.377 . S
C577 C576 1.378 . S
C577 H599 0.931 . S
C578 O588 1.259 . S
C578 O589 1.270 . S
C579 O590 1.251 . S
C579 O591 1.251 . S
O580 C560 1.257 . S
O580 Eu561 2.473 . S
O581 C560 1.260 . S
O581 Eu561 2.480 . S
O582 Eu561 2.430 . S
O582 C568 1.259 . S
O583 Eu561 2.670 . S
O583 C568 1.270 . S
O583 Eu571 2.355 . S
O584 Eu561 2.394 . S
O584 C569 1.251 . S
O585 C569 1.251 . S
O585 Eu571 2.374 . S
O586 C570 1.257 . S
O586 Eu571 2.473 . S
O587 C570 1.260 . S
O587 Eu571 2.480 . S
O588 Eu571 2.430 . S
O588 C578 1.259 . S
O589 Eu561 2.355 . S
O589 Eu571 2.670 . S
O589 C578 1.270 . S
O590 Eu571 2.394 . S
O590 C579 1.251 . S
O591 Eu561 2.374 . S
O591 C579 1.251 . S
H592 C563 0.931 . S
H593 C564 0.931 . S
H594 C566 0.931 . S
H595 C567 0.931 . S
H596 C573 0.931 . S
H597 C574 0.931 . S
H598 C576 0.931 . S
H599 C577 0.931 . S
C600 Eu601 2.835 . S
C600 C602 1.500 . S
C600 O620 1.257 . S
C600 O621 1.260 . S
Eu601 C600 2.835 . S
Eu601 O620 2.473 . S
Eu601 O621 2.480 . S
Eu601 O622 2.430 1_556 S
Eu601 O623 2.670 1_556 S
Eu601 O624 2.394 1_556 S
Eu601 O629 2.355 1_455 S
Eu601 O631 2.374 1_455 S
C602 C600 1.500 . S
C602 C603 1.377 . S
C602 C607 1.377 . S
C603 C602 1.377 . S
C603 C604 1.395 . S
C603 H632 0.931 . S
C604 C603 1.395 . S
C604 C605 1.383 . S
C604 H633 0.931 . S
C605 C604 1.383 . S
C605 C606 1.394 . S
C606 C605 1.394 . S
C606 C607 1.378 . S
C606 H634 0.931 . S
C607 C602 1.377 . S
C607 C606 1.378 . S
C607 H635 0.931 . S
C608 O622 1.259 . S
C608 O623 1.270 . S
C609 O624 1.251 . S
C609 O625 1.251 . S
C610 Eu611 2.835 . S
C610 C612 1.500 . S
C610 O626 1.257 . S
C610 O627 1.260 . S
Eu611 C610 2.835 . S
Eu611 O623 2.355 1_655 S
Eu611 O625 2.374 1_655 S
Eu611 O626 2.473 . S
Eu611 O627 2.480 . S
Eu611 O628 2.430 1_554 S
Eu611 O629 2.670 1_554 S
Eu611 O630 2.394 1_554 S
C612 C610 1.500 . S
C612 C613 1.377 . S
C612 C617 1.377 . S
C613 C612 1.377 . S
C613 C614 1.395 . S
C613 H636 0.931 . S
C614 C613 1.395 . S
C614 C615 1.383 . S
C614 H637 0.931 . S
C615 C614 1.383 . S
C615 C616 1.394 . S
C616 C615 1.394 . S
C616 C617 1.378 . S
C616 H638 0.931 . S
C617 C612 1.377 . S
C617 C616 1.378 . S
C617 H639 0.931 . S
C618 O628 1.259 . S
C618 O629 1.270 . S
C619 O630 1.251 . S
C619 O631 1.251 . S
O620 C600 1.257 . S
O620 Eu601 2.473 . S
O621 C600 1.260 . S
O621 Eu601 2.480 . S
O622 Eu601 2.430 1_554 S
O622 C608 1.259 . S
O623 Eu601 2.670 1_554 S
O623 C608 1.270 . S
O623 Eu611 2.355 1_455 S
O624 Eu601 2.394 1_554 S
O624 C609 1.251 . S
O625 C609 1.251 . S
O625 Eu611 2.374 1_455 S
O626 C610 1.257 . S
O626 Eu611 2.473 . S
O627 C610 1.260 . S
O627 Eu611 2.480 . S
O628 Eu611 2.430 1_556 S
O628 C618 1.259 . S
O629 Eu601 2.355 1_655 S
O629 Eu611 2.670 1_556 S
O629 C618 1.270 . S
O630 Eu611 2.394 1_556 S
O630 C619 1.251 . S
O631 Eu601 2.374 1_655 S
O631 C619 1.251 . S
H632 C603 0.931 . S
H633 C604 0.931 . S
H634 C606 0.931 . S
H635 C607 0.931 . S
H636 C613 0.931 . S
H637 C614 0.931 . S
H638 C616 0.931 . S
H639 C617 0.931 . S
C640 C641 1.387 . S
C640 H644 0.950 . S
C640 C649 1.390 . S
C641 C640 1.387 . S
C641 C643 1.387 . S
H642 C649 0.950 . S
C643 C641 1.387 . S
C643 C645 1.390 . S
C643 H647 0.950 . S
H644 C640 0.950 . S
C645 C643 1.390 . S
C645 C646 1.387 . S
C645 H648 0.950 . S
C646 C645 1.387 . S
C646 C649 1.387 . S
H647 C643 0.950 . S
H648 C645 0.950 . S
C649 C640 1.390 . S
C649 H642 0.950 . S
C649 C646 1.387 . S
C650 C651 1.387 . S
C650 H654 0.950 . S
C650 C659 1.390 . S
C651 C650 1.387 . S
C651 C653 1.387 . S
H652 C659 0.950 . S
C653 C651 1.387 . S
C653 C655 1.390 . S
C653 H657 0.950 . S
H654 C650 0.950 . S
C655 C653 1.390 . S
C655 C656 1.387 . S
C655 H658 0.950 . S
C656 C655 1.387 . S
C656 C659 1.387 . S
H657 C653 0.950 . S
H658 C655 0.950 . S
C659 C650 1.390 . S
C659 H652 0.950 . S
C659 C656 1.387 . S
C660 C661 1.387 . S
C660 H664 0.950 . S
C660 C669 1.390 . S
C661 C660 1.387 . S
C661 C663 1.387 . S
H662 C669 0.950 . S
C663 C661 1.387 . S
C663 C665 1.390 . S
C663 H667 0.950 . S
H664 C660 0.950 . S
C665 C663 1.390 . S
C665 C666 1.387 . S
C665 H668 0.950 . S
C666 C665 1.387 . S
C666 C669 1.387 . S
H667 C663 0.950 . S
H668 C665 0.950 . S
C669 C660 1.390 . S
C669 H662 0.950 . S
C669 C666 1.387 . S
C670 C671 1.387 . S
C670 H674 0.950 . S
C670 C679 1.390 . S
C671 C670 1.387 . S
C671 C673 1.387 . S
H672 C679 0.950 . S
C673 C671 1.387 . S
C673 C675 1.390 . S
C673 H677 0.950 . S
H674 C670 0.950 . S
C675 C673 1.390 . S
C675 C676 1.387 . S
C675 H678 0.950 . S
C676 C675 1.387 . S
C676 C679 1.387 . S
H677 C673 0.950 . S
H678 C675 0.950 . S
C679 C670 1.390 . S
C679 H672 0.950 . S
C679 C676 1.387 . S
C680 C681 1.387 . S
C680 H684 0.950 . S
C680 C689 1.390 . S
C681 C680 1.387 . S
C681 C683 1.387 . S
H682 C689 0.950 . S
C683 C681 1.387 . S
C683 C685 1.390 . S
C683 H687 0.950 . S
H684 C680 0.950 . S
C685 C683 1.390 . S
C685 C686 1.387 . S
C685 H688 0.950 . S
C686 C685 1.387 . S
C686 C689 1.387 . S
H687 C683 0.950 . S
H688 C685 0.950 . S
C689 C680 1.390 . S
C689 H682 0.950 . S
C689 C686 1.387 . S
C690 C691 1.387 . S
C690 H694 0.950 . S
C690 C699 1.390 . S
C691 C690 1.387 . S
C691 C693 1.387 . S
H692 C699 0.950 . S
C693 C691 1.387 . S
C693 C695 1.390 . S
C693 H697 0.950 . S
H694 C690 0.950 . S
C695 C693 1.390 . S
C695 C696 1.387 . S
C695 H698 0.950 . S
C696 C695 1.387 . S
C696 C699 1.387 . S
H697 C693 0.950 . S
H698 C695 0.950 . S
C699 C690 1.390 . S
C699 H692 0.950 . S
C699 C696 1.387 . S
C700 C701 1.387 . S
C700 H704 0.950 . S
C700 C709 1.390 . S
C701 C700 1.387 . S
C701 C703 1.387 . S
H702 C709 0.950 . S
C703 C701 1.387 . S
C703 C705 1.390 . S
C703 H707 0.950 . S
H704 C700 0.950 . S
C705 C703 1.390 . S
C705 C706 1.387 . S
C705 H708 0.950 . S
C706 C705 1.387 . S
C706 C709 1.387 . S
H707 C703 0.950 . S
H708 C705 0.950 . S
C709 C700 1.390 . S
C709 H702 0.950 . S
C709 C706 1.387 . S
C710 C711 1.387 . S
C710 H714 0.950 . S
C710 C719 1.390 . S
C711 C710 1.387 . S
C711 C713 1.387 . S
H712 C719 0.950 . S
C713 C711 1.387 . S
C713 C715 1.390 . S
C713 H717 0.950 . S
H714 C710 0.950 . S
C715 C713 1.390 . S
C715 C716 1.387 . S
C715 H718 0.950 . S
C716 C715 1.387 . S
C716 C719 1.387 . S
H717 C713 0.950 . S
H718 C715 0.950 . S
C719 C710 1.390 . S
C719 H712 0.950 . S
C719 C716 1.387 . S
C720 C721 1.387 . S
C720 H724 0.950 . S
C720 C729 1.390 . S
C721 C720 1.387 . S
C721 C723 1.387 . S
H722 C729 0.950 . S
C723 C721 1.387 . S
C723 C725 1.390 . S
C723 H727 0.950 . S
H724 C720 0.950 . S
C725 C723 1.390 . S
C725 C726 1.387 . S
C725 H728 0.950 . S
C726 C725 1.387 . S
C726 C729 1.387 . S
H727 C723 0.950 . S
H728 C725 0.950 . S
C729 C720 1.390 . S
C729 H722 0.950 . S
C729 C726 1.387 . S
C730 C731 1.387 . S
C730 H734 0.950 . S
C730 C739 1.390 . S
C731 C730 1.387 . S
C731 C733 1.387 . S
H732 C739 0.950 . S
C733 C731 1.387 . S
C733 C735 1.390 . S
C733 H737 0.950 . S
H734 C730 0.950 . S
C735 C733 1.390 . S
C735 C736 1.387 . S
C735 H738 0.950 . S
C736 C735 1.387 . S
C736 C739 1.387 . S
H737 C733 0.950 . S
H738 C735 0.950 . S
C739 C730 1.390 . S
C739 H732 0.950 . S
C739 C736 1.387 . S
C740 C741 1.387 . S
C740 H744 0.950 . S
C740 C749 1.390 . S
C741 C740 1.387 . S
C741 C743 1.387 . S
H742 C749 0.950 . S
C743 C741 1.387 . S
C743 C745 1.390 . S
C743 H747 0.950 . S
H744 C740 0.950 . S
C745 C743 1.390 . S
C745 C746 1.387 . S
C745 H748 0.950 . S
C746 C745 1.387 . S
C746 C749 1.387 . S
H747 C743 0.950 . S
H748 C745 0.950 . S
C749 C740 1.390 . S
C749 H742 0.950 . S
C749 C746 1.387 . S
C750 C751 1.387 . S
C750 H754 0.950 . S
C750 C759 1.390 . S
C751 C750 1.387 . S
C751 C753 1.387 . S
H752 C759 0.950 . S
C753 C751 1.387 . S
C753 C755 1.390 . S
C753 H757 0.950 . S
H754 C750 0.950 . S
C755 C753 1.390 . S
C755 C756 1.387 . S
C755 H758 0.950 . S
C756 C755 1.387 . S
C756 C759 1.387 . S
H757 C753 0.950 . S
H758 C755 0.950 . S
C759 C750 1.390 . S
C759 H752 0.950 . S
C759 C756 1.387 . S
C760 C761 1.387 . S
C760 H764 0.950 . S
C760 C769 1.390 . S
C761 C760 1.387 . S
C761 C763 1.387 . S
H762 C769 0.950 . S
C763 C761 1.387 . S
C763 C765 1.390 . S
C763 H767 0.950 . S
H764 C760 0.950 . S
C765 C763 1.390 . S
C765 C766 1.387 . S
C765 H768 0.950 . S
C766 C765 1.387 . S
C766 C769 1.387 . S
H767 C763 0.950 . S
H768 C765 0.950 . S
C769 C760 1.390 . S
C769 H762 0.950 . S
C769 C766 1.387 . S
C770 C771 1.387 . S
C770 H774 0.950 . S
C770 C779 1.390 . S
C771 C770 1.387 . S
C771 C773 1.387 . S
H772 C779 0.950 . S
C773 C771 1.387 . S
C773 C775 1.390 . S
C773 H777 0.950 . S
H774 C770 0.950 . S
C775 C773 1.390 . S
C775 C776 1.387 . S
C775 H778 0.950 . S
C776 C775 1.387 . S
C776 C779 1.387 . S
H777 C773 0.950 . S
H778 C775 0.950 . S
C779 C770 1.390 . S
C779 H772 0.950 . S
C779 C776 1.387 . S
C780 C781 1.387 . S
C780 H784 0.950 1_545 S
C780 C789 1.390 . S
C781 C780 1.387 . S
C781 C783 1.387 . S
H782 C789 0.950 . S
C783 C781 1.387 . S
C783 C785 1.390 . S
C783 H787 0.950 . S
H784 C780 0.950 1_565 S
C785 C783 1.390 . S
C785 C786 1.387 . S
C785 H788 0.950 . S
C786 C785 1.387 . S
C786 C789 1.387 . S
H787 C783 0.950 . S
H788 C785 0.950 . S
C789 C780 1.390 . S
C789 H782 0.950 . S
C789 C786 1.387 . S
C790 C791 1.387 . S
C790 H794 0.950 . S
C790 C799 1.390 . S
C791 C790 1.387 . S
C791 C793 1.387 . S
H792 C799 0.950 . S
C793 C791 1.387 . S
C793 C795 1.390 . S
C793 H797 0.950 . S
H794 C790 0.950 . S
C795 C793 1.390 . S
C795 C796 1.387 . S
C795 H798 0.950 . S
C796 C795 1.387 . S
C796 C799 1.387 . S
H797 C793 0.950 . S
H798 C795 0.950 . S
C799 C790 1.390 . S
C799 H792 0.950 . S
C799 C796 1.387 . S
C800 C801 1.387 . S
C800 H804 0.950 . S
C800 C809 1.390 . S
C801 C800 1.387 . S
C801 C803 1.387 . S
H802 C809 0.950 . S
C803 C801 1.387 . S
C803 C805 1.390 . S
C803 H807 0.950 . S
H804 C800 0.950 . S
C805 C803 1.390 . S
C805 C806 1.387 . S
C805 H808 0.950 . S
C806 C805 1.387 . S
C806 C809 1.387 . S
H807 C803 0.950 . S
H808 C805 0.950 . S
C809 C800 1.390 . S
C809 H802 0.950 . S
C809 C806 1.387 . S
C810 C811 1.387 . S
C810 H814 0.950 . S
C810 C819 1.390 . S
C811 C810 1.387 . S
C811 C813 1.387 . S
H812 C819 0.950 . S
C813 C811 1.387 . S
C813 C815 1.390 . S
C813 H817 0.950 . S
H814 C810 0.950 . S
C815 C813 1.390 . S
C815 C816 1.387 . S
C815 H818 0.950 . S
C816 C815 1.387 . S
C816 C819 1.387 . S
H817 C813 0.950 . S
H818 C815 0.950 . S
C819 C810 1.390 . S
C819 H812 0.950 . S
C819 C816 1.387 . S
C820 C821 1.387 . S
C820 H824 0.950 . S
C820 C829 1.390 . S
C821 C820 1.387 . S
C821 C823 1.387 . S
H822 C829 0.950 . S
C823 C821 1.387 . S
C823 C825 1.390 . S
C823 H827 0.950 . S
H824 C820 0.950 . S
C825 C823 1.390 . S
C825 C826 1.387 . S
C825 H828 0.950 . S
C826 C825 1.387 . S
C826 C829 1.387 . S
H827 C823 0.950 . S
H828 C825 0.950 . S
C829 C820 1.390 . S
C829 H822 0.950 . S
C829 C826 1.387 . S
C830 C831 1.387 . S
C830 H834 0.950 . S
C830 C839 1.390 . S
C831 C830 1.387 . S
C831 C833 1.387 . S
H832 C839 0.950 . S
C833 C831 1.387 . S
C833 C835 1.390 . S
C833 H837 0.950 . S
H834 C830 0.950 . S
C835 C833 1.390 . S
C835 C836 1.387 . S
C835 H838 0.950 . S
C836 C835 1.387 . S
C836 C839 1.387 . S
H837 C833 0.950 . S
H838 C835 0.950 . S
C839 C830 1.390 . S
C839 H832 0.950 . S
C839 C836 1.387 . S
C840 C841 1.387 . S
C840 H844 0.950 . S
C840 C849 1.390 . S
C841 C840 1.387 . S
C841 C843 1.387 . S
H842 C849 0.950 . S
C843 C841 1.387 . S
C843 C845 1.390 . S
C843 H847 0.950 . S
H844 C840 0.950 . S
C845 C843 1.390 . S
C845 C846 1.387 . S
C845 H848 0.950 . S
C846 C845 1.387 . S
C846 C849 1.387 . S
H847 C843 0.950 . S
H848 C845 0.950 . S
C849 C840 1.390 . S
C849 H842 0.950 . S
C849 C846 1.387 . S
C850 C851 1.387 . S
C850 H854 0.950 . S
C850 C859 1.390 . S
C851 C850 1.387 . S
C851 C853 1.387 . S
H852 C859 0.950 . S
C853 C851 1.387 . S
C853 C855 1.390 . S
C853 H857 0.950 . S
H854 C850 0.950 . S
C855 C853 1.390 . S
C855 C856 1.387 . S
C855 H858 0.950 . S
C856 C855 1.387 . S
C856 C859 1.387 . S
H857 C853 0.950 . S
H858 C855 0.950 . S
C859 C850 1.390 . S
C859 H852 0.950 . S
C859 C856 1.387 . S
C860 C861 1.387 . S
C860 H864 0.950 . S
C860 C869 1.390 . S
C861 C860 1.387 . S
C861 C863 1.387 . S
H862 C869 0.950 . S
C863 C861 1.387 . S
C863 C865 1.390 . S
C863 H867 0.950 . S
H864 C860 0.950 . S
C865 C863 1.390 . S
C865 C866 1.387 . S
C865 H868 0.950 . S
C866 C865 1.387 . S
C866 C869 1.387 . S
H867 C863 0.950 . S
H868 C865 0.950 . S
C869 C860 1.390 . S
C869 H862 0.950 . S
C869 C866 1.387 . S
C870 C871 1.387 . S
C870 H874 0.950 . S
C870 C879 1.390 . S
C871 C870 1.387 . S
C871 C873 1.387 . S
H872 C879 0.950 . S
C873 C871 1.387 . S
C873 C875 1.390 . S
C873 H877 0.950 . S
H874 C870 0.950 . S
C875 C873 1.390 . S
C875 C876 1.387 . S
C875 H878 0.950 . S
C876 C875 1.387 . S
C876 C879 1.387 . S
H877 C873 0.950 . S
H878 C875 0.950 . S
C879 C870 1.390 . S
C879 H872 0.950 . S
C879 C876 1.387 . S
C880 C881 1.387 . S
C880 H884 0.950 . S
C880 C889 1.390 . S
C881 C880 1.387 . S
C881 C883 1.387 . S
H882 C889 0.950 . S
C883 C881 1.387 . S
C883 C885 1.390 . S
C883 H887 0.950 . S
H884 C880 0.950 . S
C885 C883 1.390 . S
C885 C886 1.387 . S
C885 H888 0.950 . S
C886 C885 1.387 . S
C886 C889 1.387 . S
H887 C883 0.950 . S
H888 C885 0.950 . S
C889 C880 1.390 . S
C889 H882 0.950 . S
C889 C886 1.387 . S
C890 C891 1.387 . S
C890 H894 0.950 . S
C890 C899 1.390 . S
C891 C890 1.387 . S
C891 C893 1.387 . S
H892 C899 0.950 . S
C893 C891 1.387 . S
C893 C895 1.390 . S
C893 H897 0.950 . S
H894 C890 0.950 . S
C895 C893 1.390 . S
C895 C896 1.387 . S
C895 H898 0.950 . S
C896 C895 1.387 . S
C896 C899 1.387 . S
H897 C893 0.950 . S
H898 C895 0.950 . S
C899 C890 1.390 . S
C899 H892 0.950 . S
C899 C896 1.387 . S
C900 C901 1.387 . S
C900 H904 0.950 . S
C900 C909 1.390 . S
C901 C900 1.387 . S
C901 C903 1.387 . S
H902 C909 0.950 . S
C903 C901 1.387 . S
C903 C905 1.390 . S
C903 H907 0.950 . S
H904 C900 0.950 . S
C905 C903 1.390 . S
C905 C906 1.387 . S
C905 H908 0.950 . S
C906 C905 1.387 . S
C906 C909 1.387 . S
H907 C903 0.950 . S
H908 C905 0.950 . S
C909 C900 1.390 . S
C909 H902 0.950 . S
C909 C906 1.387 . S
C910 C911 1.387 . S
C910 H914 0.950 . S
C910 C919 1.390 . S
C911 C910 1.387 . S
C911 C913 1.387 . S
H912 C919 0.950 . S
C913 C911 1.387 . S
C913 C915 1.390 . S
C913 H917 0.950 . S
H914 C910 0.950 . S
C915 C913 1.390 . S
C915 C916 1.387 . S
C915 H918 0.950 . S
C916 C915 1.387 . S
C916 C919 1.387 . S
H917 C913 0.950 . S
H918 C915 0.950 . S
C919 C910 1.390 . S
C919 H912 0.950 . S
C919 C916 1.387 . S
C920 C921 1.387 . S
C920 H924 0.950 . S
C920 C929 1.390 . S
C921 C920 1.387 . S
C921 C923 1.387 . S
H922 C929 0.950 . S
C923 C921 1.387 . S
C923 C925 1.390 . S
C923 H927 0.950 . S
H924 C920 0.950 . S
C925 C923 1.390 . S
C925 C926 1.387 . S
C925 H928 0.950 . S
C926 C925 1.387 . S
C926 C929 1.387 . S
H927 C923 0.950 . S
H928 C925 0.950 . S
C929 C920 1.390 . S
C929 H922 0.950 . S
C929 C926 1.387 . S
C930 C931 1.387 . S
C930 H934 0.950 . S
C930 C939 1.390 . S
C931 C930 1.387 . S
C931 C933 1.387 . S
H932 C939 0.950 . S
C933 C931 1.387 . S
C933 C935 1.390 . S
C933 H937 0.950 . S
H934 C930 0.950 . S
C935 C933 1.390 . S
C935 C936 1.387 . S
C935 H938 0.950 . S
C936 C935 1.387 . S
C936 C939 1.387 . S
H937 C933 0.950 . S
H938 C935 0.950 . S
C939 C930 1.390 . S
C939 H932 0.950 . S
C939 C936 1.387 . S
C940 C941 1.387 . S
C940 H944 0.950 . S
C940 C949 1.390 . S
C941 C940 1.387 . S
C941 C943 1.387 . S
H942 C949 0.950 . S
C943 C941 1.387 . S
C943 C945 1.390 . S
C943 H947 0.950 . S
H944 C940 0.950 . S
C945 C943 1.390 . S
C945 C946 1.387 . S
C945 H948 0.950 . S
C946 C945 1.387 . S
C946 C949 1.387 . S
H947 C943 0.950 . S
H948 C945 0.950 . S
C949 C940 1.390 . S
C949 H942 0.950 . S
C949 C946 1.387 . S
C950 C951 1.387 . S
C950 H954 0.950 . S
C950 C959 1.390 . S
C951 C950 1.387 . S
C951 C953 1.387 . S
H952 C959 0.950 . S
C953 C951 1.387 . S
C953 C955 1.390 . S
C953 H957 0.950 . S
H954 C950 0.950 . S
C955 C953 1.390 . S
C955 C956 1.387 . S
C955 H958 0.950 . S
C956 C955 1.387 . S
C956 C959 1.387 . S
H957 C953 0.950 . S
H958 C955 0.950 . S
C959 C950 1.390 . S
C959 H952 0.950 . S
C959 C956 1.387 . S
C960 C961 1.387 . S
C960 H964 0.950 . S
C960 C969 1.390 . S
C961 C960 1.387 . S
C961 C963 1.387 . S
H962 C969 0.950 . S
C963 C961 1.387 . S
C963 C965 1.390 . S
C963 H967 0.950 . S
H964 C960 0.950 . S
C965 C963 1.390 . S
C965 C966 1.387 . S
C965 H968 0.950 . S
C966 C965 1.387 . S
C966 C969 1.387 . S
H967 C963 0.950 . S
H968 C965 0.950 . S
C969 C960 1.390 . S
C969 H962 0.950 . S
C969 C966 1.387 . S
C970 C971 1.387 . S
C970 H974 0.950 . S
C970 C979 1.390 . S
C971 C970 1.387 . S
C971 C973 1.387 . S
H972 C979 0.950 . S
C973 C971 1.387 . S
C973 C975 1.390 . S
C973 H977 0.950 . S
H974 C970 0.950 . S
C975 C973 1.390 . S
C975 C976 1.387 . S
C975 H978 0.950 . S
C976 C975 1.387 . S
C976 C979 1.387 . S
H977 C973 0.950 . S
H978 C975 0.950 . S
C979 C970 1.390 . S
C979 H972 0.950 . S
C979 C976 1.387 . S
C980 C981 1.387 . S
C980 H984 0.950 . S
C980 C989 1.390 . S
C981 C980 1.387 . S
C981 C983 1.387 . S
H982 C989 0.950 . S
C983 C981 1.387 . S
C983 C985 1.390 . S
C983 H987 0.950 . S
H984 C980 0.950 . S
C985 C983 1.390 . S
C985 C986 1.387 . S
C985 H988 0.950 . S
C986 C985 1.387 . S
C986 C989 1.387 . S
H987 C983 0.950 . S
H988 C985 0.950 . S
C989 C980 1.390 . S
C989 H982 0.950 . S
C989 C986 1.387 . S
C990 C991 1.387 . S
C990 H994 0.950 . S
C990 C999 1.390 . S
C991 C990 1.387 . S
C991 C993 1.387 . S
H992 C999 0.950 . S
C993 C991 1.387 . S
C993 C995 1.390 . S
C993 H997 0.950 1_565 S
H994 C990 0.950 . S
C995 C993 1.390 . S
C995 C996 1.387 . S
C995 H998 0.950 . S
C996 C995 1.387 . S
C996 C999 1.387 . S
H997 C993 0.950 1_545 S
H998 C995 0.950 . S
C999 C990 1.390 . S
C999 H992 0.950 . S
C999 C996 1.387 . S
C1000 C1001 1.387 . S
C1000 H1004 0.950 . S
C1000 C1009 1.390 . S
C1001 C1000 1.387 . S
C1001 C1003 1.387 . S
H1002 C1009 0.950 . S
C1003 C1001 1.387 . S
C1003 C1005 1.390 . S
C1003 H1007 0.950 . S
H1004 C1000 0.950 . S
C1005 C1003 1.390 . S
C1005 C1006 1.387 . S
C1005 H1008 0.950 . S
C1006 C1005 1.387 . S
C1006 C1009 1.387 . S
H1007 C1003 0.950 . S
H1008 C1005 0.950 . S
C1009 C1000 1.390 . S
C1009 H1002 0.950 . S
C1009 C1006 1.387 . S
C1010 C1011 1.387 . S
C1010 H1014 0.950 . S
C1010 C1019 1.390 . S
C1011 C1010 1.387 . S
C1011 C1013 1.387 . S
H1012 C1019 0.950 . S
C1013 C1011 1.387 . S
C1013 C1015 1.390 . S
C1013 H1017 0.950 . S
H1014 C1010 0.950 . S
C1015 C1013 1.390 . S
C1015 C1016 1.387 . S
C1015 H1018 0.950 . S
C1016 C1015 1.387 . S
C1016 C1019 1.387 . S
H1017 C1013 0.950 . S
H1018 C1015 0.950 . S
C1019 C1010 1.390 . S
C1019 H1012 0.950 . S
C1019 C1016 1.387 . S
C1020 C1021 1.387 . S
C1020 H1024 0.950 . S
C1020 C1029 1.390 . S
C1021 C1020 1.387 . S
C1021 C1023 1.387 . S
H1022 C1029 0.950 . S
C1023 C1021 1.387 . S
C1023 C1025 1.390 . S
C1023 H1027 0.950 . S
H1024 C1020 0.950 . S
C1025 C1023 1.390 . S
C1025 C1026 1.387 . S
C1025 H1028 0.950 . S
C1026 C1025 1.387 . S
C1026 C1029 1.387 . S
H1027 C1023 0.950 . S
H1028 C1025 0.950 . S
C1029 C1020 1.390 . S
C1029 H1022 0.950 . S
C1029 C1026 1.387 . S
C1030 C1031 1.387 . S
C1030 H1034 0.950 . S
C1030 C1039 1.390 . S
C1031 C1030 1.387 . S
C1031 C1033 1.387 . S
H1032 C1039 0.950 . S
C1033 C1031 1.387 . S
C1033 C1035 1.390 . S
C1033 H1037 0.950 . S
H1034 C1030 0.950 . S
C1035 C1033 1.390 . S
C1035 C1036 1.387 . S
C1035 H1038 0.950 . S
C1036 C1035 1.387 . S
C1036 C1039 1.387 . S
H1037 C1033 0.950 . S
H1038 C1035 0.950 . S
C1039 C1030 1.390 . S
C1039 H1032 0.950 . S
C1039 C1036 1.387 . S
C1040 C1041 1.387 . S
C1040 H1044 0.950 . S
C1040 C1049 1.390 . S
C1041 C1040 1.387 . S
C1041 C1043 1.387 . S
H1042 C1049 0.950 . S
C1043 C1041 1.387 . S
C1043 C1045 1.390 . S
C1043 H1047 0.950 . S
H1044 C1040 0.950 . S
C1045 C1043 1.390 . S
C1045 C1046 1.387 . S
C1045 H1048 0.950 . S
C1046 C1045 1.387 . S
C1046 C1049 1.387 . S
H1047 C1043 0.950 . S
H1048 C1045 0.950 . S
C1049 C1040 1.390 . S
C1049 H1042 0.950 . S
C1049 C1046 1.387 . S
C1050 C1051 1.387 . S
C1050 H1054 0.950 . S
C1050 C1059 1.390 . S
C1051 C1050 1.387 . S
C1051 C1053 1.387 . S
H1052 C1059 0.950 . S
C1053 C1051 1.387 . S
C1053 C1055 1.390 . S
C1053 H1057 0.950 . S
H1054 C1050 0.950 . S
C1055 C1053 1.390 . S
C1055 C1056 1.387 . S
C1055 H1058 0.950 . S
C1056 C1055 1.387 . S
C1056 C1059 1.387 . S
H1057 C1053 0.950 . S
H1058 C1055 0.950 . S
C1059 C1050 1.390 . S
C1059 H1052 0.950 . S
C1059 C1056 1.387 . S
C1060 C1061 1.387 . S
C1060 H1064 0.950 . S
C1060 C1069 1.390 . S
C1061 C1060 1.387 . S
C1061 C1063 1.387 . S
H1062 C1069 0.950 . S
C1063 C1061 1.387 . S
C1063 C1065 1.390 . S
C1063 H1067 0.950 . S
H1064 C1060 0.950 . S
C1065 C1063 1.390 . S
C1065 C1066 1.387 . S
C1065 H1068 0.950 . S
C1066 C1065 1.387 . S
C1066 C1069 1.387 . S
H1067 C1063 0.950 . S
H1068 C1065 0.950 . S
C1069 C1060 1.390 . S
C1069 H1062 0.950 . S
C1069 C1066 1.387 . S
C1070 C1071 1.387 . S
C1070 H1074 0.950 . S
C1070 C1079 1.390 . S
C1071 C1070 1.387 . S
C1071 C1073 1.387 . S
H1072 C1079 0.950 . S
C1073 C1071 1.387 . S
C1073 C1075 1.390 . S
C1073 H1077 0.950 . S
H1074 C1070 0.950 . S
C1075 C1073 1.390 . S
C1075 C1076 1.387 . S
C1075 H1078 0.950 . S
C1076 C1075 1.387 . S
C1076 C1079 1.387 . S
H1077 C1073 0.950 . S
H1078 C1075 0.950 . S
C1079 C1070 1.390 . S
C1079 H1072 0.950 . S
C1079 C1076 1.387 . S
C1080 C1081 1.387 . S
C1080 H1084 0.950 . S
C1080 C1089 1.390 . S
C1081 C1080 1.387 . S
C1081 C1083 1.387 . S
H1082 C1089 0.950 . S
C1083 C1081 1.387 . S
C1083 C1085 1.390 . S
C1083 H1087 0.950 . S
H1084 C1080 0.950 . S
C1085 C1083 1.390 . S
C1085 C1086 1.387 . S
C1085 H1088 0.950 . S
C1086 C1085 1.387 . S
C1086 C1089 1.387 . S
H1087 C1083 0.950 . S
H1088 C1085 0.950 . S
C1089 C1080 1.390 . S
C1089 H1082 0.950 . S
C1089 C1086 1.387 . S
C1090 C1091 1.387 . S
C1090 H1094 0.950 . S
C1090 C1099 1.390 . S
C1091 C1090 1.387 . S
C1091 C1093 1.387 . S
H1092 C1099 0.950 . S
C1093 C1091 1.387 . S
C1093 C1095 1.390 . S
C1093 H1097 0.950 . S
H1094 C1090 0.950 . S
C1095 C1093 1.390 . S
C1095 C1096 1.387 . S
C1095 H1098 0.950 . S
C1096 C1095 1.387 . S
C1096 C1099 1.387 . S
H1097 C1093 0.950 . S
H1098 C1095 0.950 . S
C1099 C1090 1.390 . S
C1099 H1092 0.950 . S
C1099 C1096 1.387 . S
C1100 C1101 1.387 . S
C1100 H1104 0.950 . S
C1100 C1109 1.390 . S
C1101 C1100 1.387 . S
C1101 C1103 1.387 . S
H1102 C1109 0.950 . S
C1103 C1101 1.387 . S
C1103 C1105 1.390 . S
C1103 H1107 0.950 . S
H1104 C1100 0.950 . S
C1105 C1103 1.390 . S
C1105 C1106 1.387 . S
C1105 H1108 0.950 . S
C1106 C1105 1.387 . S
C1106 C1109 1.387 . S
H1107 C1103 0.950 . S
H1108 C1105 0.950 . S
C1109 C1100 1.390 . S
C1109 H1102 0.950 . S
C1109 C1106 1.387 . S
C1110 C1111 1.387 . S
C1110 H1114 0.950 . S
C1110 C1119 1.390 . S
C1111 C1110 1.387 . S
C1111 C1113 1.387 . S
H1112 C1119 0.950 . S
C1113 C1111 1.387 . S
C1113 C1115 1.390 . S
C1113 H1117 0.950 . S
H1114 C1110 0.950 . S
C1115 C1113 1.390 . S
C1115 C1116 1.387 . S
C1115 H1118 0.950 . S
C1116 C1115 1.387 . S
C1116 C1119 1.387 . S
H1117 C1113 0.950 . S
H1118 C1115 0.950 . S
C1119 C1110 1.390 . S
C1119 H1112 0.950 . S
C1119 C1116 1.387 . S
C641 C129 3.665 . S
C646 C8 3.681 . S
C651 C19 3.057 . S
C656 C49 3.080 . S
C661 C98 1.298 . S
C666 C58 1.255 . S
C671 C135 0.935 . S
C676 C95 0.944 . S
C681 C179 0.526 . S
C686 C215 0.438 . S
C691 C218 1.324 . S
C696 C248 1.410 . S
C701 C245 0.708 . S
C706 C295 0.718 . S
C711 C165 1.016 . S
C716 C298 1.054 . S
C721 C369 3.378 . S
C726 C5 3.333 . S
C731 C419 0.919 . S
C736 C55 0.914 . S
C741 C89 3.068 . S
C746 C529 3.012 . S
C751 C328 1.269 . S
C756 C138 1.326 . S
C761 C458 1.326 . S
C766 C168 1.269 . S
C771 C565 3.334 . S
C776 C209 3.377 . S
C781 C259 0.919 . S
C786 C495 0.914 . S
C791 C609 3.069 . S
C796 C289 3.011 . S
C801 C325 1.015 . S
C806 C538 1.051 . S
C811 C375 0.433 . S
C816 C339 0.518 . S
C821 C408 1.409 . S
C826 C378 1.325 . S
C831 C568 3.681 . S
C836 C449 3.665 . S
C841 C498 1.255 . S
C846 C618 1.299 . S
C851 C459 3.665 . S
C856 C18 3.681 . S
C861 C499 3.080 . S
C866 C9 3.057 . S
C871 C488 1.253 . S
C876 C88 1.298 . S
C881 C85 0.945 . S
C886 C445 0.936 . S
C891 C365 0.438 . S
C896 C169 0.526 . S
C901 C368 1.321 . S
C906 C258 1.410 . S
C911 C525 0.716 . S
C916 C255 0.707 . S
C921 C175 1.016 . S
C926 C528 1.054 . S
C931 C219 3.378 . S
C936 C15 3.334 . S
C941 C409 0.919 . S
C946 C485 0.914 . S
C951 C99 3.068 . S
C956 C299 3.011 . S
C961 C338 1.272 . S
C966 C448 1.325 . S
C971 C128 1.325 . S
C976 C178 1.272 . S
C981 C379 3.378 . S
C986 C575 3.333 . S
C991 C249 0.919 . S
C996 C45 0.914 . S
C1001 C619 3.068 . S
C1006 C539 3.012 . S
C1011 C335 1.016 . S
C1016 C288 1.052 . S
C1021 C329 0.527 . S
C1026 C205 0.439 . S
C1031 C418 1.409 . S
C1036 C208 1.325 . S
C1041 C139 3.665 . S
C1046 C578 3.681 . S
C1051 C48 1.255 . S
C1056 C608 1.298 . S
C1061 C489 3.080 . S
C1066 C579 3.057 . S
C1071 C455 0.940 . S
C1076 C615 0.949 . S
C1081 C405 0.714 . S
C1086 C535 0.724 . S
C1091 C569 3.057 . S
C1096 C59 3.080 . S
C1101 C125 0.938 . S
C1106 C605 0.948 . S
C1111 C285 0.716 . S
C1116 C415 0.709 . S
