# Generated by pormake.
# Topology fcn, (5)-cn, num edge types: 1
# Building blocks:
#     Node 0, Type 0, BuildingBlock: BEQFEK_clean_sbu_0, # of connection points: 5
#     Node 1, Type 0, BuildingBlock: BEQFEK_clean_sbu_0, # of connection points: 5
#     Node 2, Type 0, BuildingBlock: BEQFEK_clean_sbu_0, # of connection points: 5
#     Node 3, Type 0, BuildingBlock: BEQFEK_clean_sbu_0, # of connection points: 5
#     Node 4, Type 0, BuildingBlock: BEQFEK_clean_sbu_0, # of connection points: 5
#     Node 5, Type 0, BuildingBlock: BEQFEK_clean_sbu_0, # of connection points: 5
#     Node 6, Type 0, BuildingBlock: BEQFEK_clean_sbu_0, # of connection points: 5
#     Node 7, Type 0, BuildingBlock: BEQFEK_clean_sbu_0, # of connection points: 5
#     Node 8, Type 0, BuildingBlock: BEQFEK_clean_sbu_0, # of connection points: 5
#     Node 9, Type 0, BuildingBlock: BEQFEK_clean_sbu_0, # of connection points: 5
#     Node 10, Type 0, BuildingBlock: BEQFEK_clean_sbu_0, # of connection points: 5
#     Node 11, Type 0, BuildingBlock: BEQFEK_clean_sbu_0, # of connection points: 5
#     Node 12, Type 0, BuildingBlock: BEQFEK_clean_sbu_0, # of connection points: 5
#     Node 13, Type 0, BuildingBlock: BEQFEK_clean_sbu_0, # of connection points: 5
#     Node 14, Type 0, BuildingBlock: BEQFEK_clean_sbu_0, # of connection points: 5
#     Node 15, Type 0, BuildingBlock: BEQFEK_clean_sbu_0, # of connection points: 5
#     Node 16, Type 0, BuildingBlock: BEQFEK_clean_sbu_0, # of connection points: 5
#     Node 17, Type 0, BuildingBlock: BEQFEK_clean_sbu_0, # of connection points: 5
#     Node 18, Type 0, BuildingBlock: BEQFEK_clean_sbu_0, # of connection points: 5
#     Node 19, Type 0, BuildingBlock: BEQFEK_clean_sbu_0, # of connection points: 5
#     Node 20, Type 0, BuildingBlock: BEQFEK_clean_sbu_0, # of connection points: 5
#     Node 21, Type 0, BuildingBlock: BEQFEK_clean_sbu_0, # of connection points: 5
#     Node 22, Type 0, BuildingBlock: BEQFEK_clean_sbu_0, # of connection points: 5
#     Node 23, Type 0, BuildingBlock: BEQFEK_clean_sbu_0, # of connection points: 5
#     Node 24, Type 0, BuildingBlock: BEQFEK_clean_sbu_0, # of connection points: 5
#     Node 25, Type 0, BuildingBlock: BEQFEK_clean_sbu_0, # of connection points: 5
#     Node 26, Type 0, BuildingBlock: BEQFEK_clean_sbu_0, # of connection points: 5
#     Node 27, Type 0, BuildingBlock: BEQFEK_clean_sbu_0, # of connection points: 5
#     Node 28, Type 0, BuildingBlock: BEQFEK_clean_sbu_0, # of connection points: 5
#     Node 29, Type 0, BuildingBlock: BEQFEK_clean_sbu_0, # of connection points: 5
#     Node 30, Type 0, BuildingBlock: BEQFEK_clean_sbu_0, # of connection points: 5
#     Node 31, Type 0, BuildingBlock: BEQFEK_clean_sbu_0, # of connection points: 5
#     Node 32, Type 0, BuildingBlock: BEQFEK_clean_sbu_0, # of connection points: 5
#     Node 33, Type 0, BuildingBlock: BEQFEK_clean_sbu_0, # of connection points: 5
#     Node 34, Type 0, BuildingBlock: BEQFEK_clean_sbu_0, # of connection points: 5
#     Node 35, Type 0, BuildingBlock: BEQFEK_clean_sbu_0, # of connection points: 5
#     Node 36, Type 0, BuildingBlock: BEQFEK_clean_sbu_0, # of connection points: 5
#     Node 37, Type 0, BuildingBlock: BEQFEK_clean_sbu_0, # of connection points: 5
#     Node 38, Type 0, BuildingBlock: BEQFEK_clean_sbu_0, # of connection points: 5
#     Node 39, Type 0, BuildingBlock: BEQFEK_clean_sbu_0, # of connection points: 5
#     Node 40, Type 0, BuildingBlock: BEQFEK_clean_sbu_0, # of connection points: 5
#     Node 41, Type 0, BuildingBlock: BEQFEK_clean_sbu_0, # of connection points: 5
#     Node 42, Type 0, BuildingBlock: BEQFEK_clean_sbu_0, # of connection points: 5
#     Node 43, Type 0, BuildingBlock: BEQFEK_clean_sbu_0, # of connection points: 5
#     Node 44, Type 0, BuildingBlock: BEQFEK_clean_sbu_0, # of connection points: 5
#     Node 45, Type 0, BuildingBlock: BEQFEK_clean_sbu_0, # of connection points: 5
#     Node 46, Type 0, BuildingBlock: BEQFEK_clean_sbu_0, # of connection points: 5
#     Node 47, Type 0, BuildingBlock: BEQFEK_clean_sbu_0, # of connection points: 5
#     Edge 48, Type (0, 0), BuildingBlock: OJICUG_clean_linker_0, # of connection points: 2
#     Edge 49, Type (0, 0), BuildingBlock: OJICUG_clean_linker_0, # of connection points: 2
#     Edge 50, Type (0, 0), BuildingBlock: OJICUG_clean_linker_0, # of connection points: 2
#     Edge 51, Type (0, 0), BuildingBlock: OJICUG_clean_linker_0, # of connection points: 2
#     Edge 52, Type (0, 0), BuildingBlock: OJICUG_clean_linker_0, # of connection points: 2
#     Edge 53, Type (0, 0), BuildingBlock: OJICUG_clean_linker_0, # of connection points: 2
#     Edge 54, Type (0, 0), BuildingBlock: OJICUG_clean_linker_0, # of connection points: 2
#     Edge 55, Type (0, 0), BuildingBlock: OJICUG_clean_linker_0, # of connection points: 2
#     Edge 56, Type (0, 0), BuildingBlock: OJICUG_clean_linker_0, # of connection points: 2
#     Edge 57, Type (0, 0), BuildingBlock: OJICUG_clean_linker_0, # of connection points: 2
#     Edge 58, Type (0, 0), BuildingBlock: OJICUG_clean_linker_0, # of connection points: 2
#     Edge 59, Type (0, 0), BuildingBlock: OJICUG_clean_linker_0, # of connection points: 2
#     Edge 60, Type (0, 0), BuildingBlock: OJICUG_clean_linker_0, # of connection points: 2
#     Edge 61, Type (0, 0), BuildingBlock: OJICUG_clean_linker_0, # of connection points: 2
#     Edge 62, Type (0, 0), BuildingBlock: OJICUG_clean_linker_0, # of connection points: 2
#     Edge 63, Type (0, 0), BuildingBlock: OJICUG_clean_linker_0, # of connection points: 2
#     Edge 64, Type (0, 0), BuildingBlock: OJICUG_clean_linker_0, # of connection points: 2
#     Edge 65, Type (0, 0), BuildingBlock: OJICUG_clean_linker_0, # of connection points: 2
#     Edge 66, Type (0, 0), BuildingBlock: OJICUG_clean_linker_0, # of connection points: 2
#     Edge 67, Type (0, 0), BuildingBlock: OJICUG_clean_linker_0, # of connection points: 2
#     Edge 68, Type (0, 0), BuildingBlock: OJICUG_clean_linker_0, # of connection points: 2
#     Edge 69, Type (0, 0), BuildingBlock: OJICUG_clean_linker_0, # of connection points: 2
#     Edge 70, Type (0, 0), BuildingBlock: OJICUG_clean_linker_0, # of connection points: 2
#     Edge 71, Type (0, 0), BuildingBlock: OJICUG_clean_linker_0, # of connection points: 2
#     Edge 72, Type (0, 0), BuildingBlock: OJICUG_clean_linker_0, # of connection points: 2
#     Edge 73, Type (0, 0), BuildingBlock: OJICUG_clean_linker_0, # of connection points: 2
#     Edge 74, Type (0, 0), BuildingBlock: OJICUG_clean_linker_0, # of connection points: 2
#     Edge 75, Type (0, 0), BuildingBlock: OJICUG_clean_linker_0, # of connection points: 2
#     Edge 76, Type (0, 0), BuildingBlock: OJICUG_clean_linker_0, # of connection points: 2
#     Edge 77, Type (0, 0), BuildingBlock: OJICUG_clean_linker_0, # of connection points: 2
#     Edge 78, Type (0, 0), BuildingBlock: OJICUG_clean_linker_0, # of connection points: 2
#     Edge 79, Type (0, 0), BuildingBlock: OJICUG_clean_linker_0, # of connection points: 2
#     Edge 80, Type (0, 0), BuildingBlock: OJICUG_clean_linker_0, # of connection points: 2
#     Edge 81, Type (0, 0), BuildingBlock: OJICUG_clean_linker_0, # of connection points: 2
#     Edge 82, Type (0, 0), BuildingBlock: OJICUG_clean_linker_0, # of connection points: 2
#     Edge 83, Type (0, 0), BuildingBlock: OJICUG_clean_linker_0, # of connection points: 2
#     Edge 84, Type (0, 0), BuildingBlock: OJICUG_clean_linker_0, # of connection points: 2
#     Edge 85, Type (0, 0), BuildingBlock: OJICUG_clean_linker_0, # of connection points: 2
#     Edge 86, Type (0, 0), BuildingBlock: OJICUG_clean_linker_0, # of connection points: 2
#     Edge 87, Type (0, 0), BuildingBlock: OJICUG_clean_linker_0, # of connection points: 2
#     Edge 88, Type (0, 0), BuildingBlock: OJICUG_clean_linker_0, # of connection points: 2
#     Edge 89, Type (0, 0), BuildingBlock: OJICUG_clean_linker_0, # of connection points: 2
#     Edge 90, Type (0, 0), BuildingBlock: OJICUG_clean_linker_0, # of connection points: 2
#     Edge 91, Type (0, 0), BuildingBlock: OJICUG_clean_linker_0, # of connection points: 2
#     Edge 92, Type (0, 0), BuildingBlock: OJICUG_clean_linker_0, # of connection points: 2
#     Edge 93, Type (0, 0), BuildingBlock: OJICUG_clean_linker_0, # of connection points: 2
#     Edge 94, Type (0, 0), BuildingBlock: OJICUG_clean_linker_0, # of connection points: 2
#     Edge 95, Type (0, 0), BuildingBlock: OJICUG_clean_linker_0, # of connection points: 2
#     Edge 96, Type (0, 0), BuildingBlock: OJICUG_clean_linker_0, # of connection points: 2
#     Edge 97, Type (0, 0), BuildingBlock: OJICUG_clean_linker_0, # of connection points: 2
#     Edge 98, Type (0, 0), BuildingBlock: OJICUG_clean_linker_0, # of connection points: 2
#     Edge 99, Type (0, 0), BuildingBlock: OJICUG_clean_linker_0, # of connection points: 2
#     Edge 100, Type (0, 0), BuildingBlock: OJICUG_clean_linker_0, # of connection points: 2
#     Edge 101, Type (0, 0), BuildingBlock: OJICUG_clean_linker_0, # of connection points: 2
#     Edge 102, Type (0, 0), BuildingBlock: OJICUG_clean_linker_0, # of connection points: 2
#     Edge 103, Type (0, 0), BuildingBlock: OJICUG_clean_linker_0, # of connection points: 2
#     Edge 104, Type (0, 0), BuildingBlock: OJICUG_clean_linker_0, # of connection points: 2
#     Edge 105, Type (0, 0), BuildingBlock: OJICUG_clean_linker_0, # of connection points: 2
#     Edge 106, Type (0, 0), BuildingBlock: OJICUG_clean_linker_0, # of connection points: 2
#     Edge 107, Type (0, 0), BuildingBlock: OJICUG_clean_linker_0, # of connection points: 2
#     Edge 108, Type (0, 0), BuildingBlock: OJICUG_clean_linker_0, # of connection points: 2
#     Edge 109, Type (0, 0), BuildingBlock: OJICUG_clean_linker_0, # of connection points: 2
#     Edge 110, Type (0, 0), BuildingBlock: OJICUG_clean_linker_0, # of connection points: 2
#     Edge 111, Type (0, 0), BuildingBlock: OJICUG_clean_linker_0, # of connection points: 2
#     Edge 112, Type (0, 0), BuildingBlock: OJICUG_clean_linker_0, # of connection points: 2
#     Edge 113, Type (0, 0), BuildingBlock: OJICUG_clean_linker_0, # of connection points: 2
#     Edge 114, Type (0, 0), BuildingBlock: OJICUG_clean_linker_0, # of connection points: 2
#     Edge 115, Type (0, 0), BuildingBlock: OJICUG_clean_linker_0, # of connection points: 2
#     Edge 116, Type (0, 0), BuildingBlock: OJICUG_clean_linker_0, # of connection points: 2
#     Edge 117, Type (0, 0), BuildingBlock: OJICUG_clean_linker_0, # of connection points: 2
#     Edge 118, Type (0, 0), BuildingBlock: OJICUG_clean_linker_0, # of connection points: 2
#     Edge 119, Type (0, 0), BuildingBlock: OJICUG_clean_linker_0, # of connection points: 2
#     Edge 120, Type (0, 0), BuildingBlock: OJICUG_clean_linker_0, # of connection points: 2
#     Edge 121, Type (0, 0), BuildingBlock: OJICUG_clean_linker_0, # of connection points: 2
#     Edge 122, Type (0, 0), BuildingBlock: OJICUG_clean_linker_0, # of connection points: 2
#     Edge 123, Type (0, 0), BuildingBlock: OJICUG_clean_linker_0, # of connection points: 2
#     Edge 124, Type (0, 0), BuildingBlock: OJICUG_clean_linker_0, # of connection points: 2
#     Edge 125, Type (0, 0), BuildingBlock: OJICUG_clean_linker_0, # of connection points: 2
#     Edge 126, Type (0, 0), BuildingBlock: OJICUG_clean_linker_0, # of connection points: 2
#     Edge 127, Type (0, 0), BuildingBlock: OJICUG_clean_linker_0, # of connection points: 2
#     Edge 128, Type (0, 0), BuildingBlock: OJICUG_clean_linker_0, # of connection points: 2
#     Edge 129, Type (0, 0), BuildingBlock: OJICUG_clean_linker_0, # of connection points: 2
#     Edge 130, Type (0, 0), BuildingBlock: OJICUG_clean_linker_0, # of connection points: 2
#     Edge 131, Type (0, 0), BuildingBlock: OJICUG_clean_linker_0, # of connection points: 2
#     Edge 132, Type (0, 0), BuildingBlock: OJICUG_clean_linker_0, # of connection points: 2
#     Edge 133, Type (0, 0), BuildingBlock: OJICUG_clean_linker_0, # of connection points: 2
#     Edge 134, Type (0, 0), BuildingBlock: OJICUG_clean_linker_0, # of connection points: 2
#     Edge 135, Type (0, 0), BuildingBlock: OJICUG_clean_linker_0, # of connection points: 2
#     Edge 136, Type (0, 0), BuildingBlock: OJICUG_clean_linker_0, # of connection points: 2
#     Edge 137, Type (0, 0), BuildingBlock: OJICUG_clean_linker_0, # of connection points: 2
#     Edge 138, Type (0, 0), BuildingBlock: OJICUG_clean_linker_0, # of connection points: 2
#     Edge 139, Type (0, 0), BuildingBlock: OJICUG_clean_linker_0, # of connection points: 2
#     Edge 140, Type (0, 0), BuildingBlock: OJICUG_clean_linker_0, # of connection points: 2
#     Edge 141, Type (0, 0), BuildingBlock: OJICUG_clean_linker_0, # of connection points: 2
#     Edge 142, Type (0, 0), BuildingBlock: OJICUG_clean_linker_0, # of connection points: 2
#     Edge 143, Type (0, 0), BuildingBlock: OJICUG_clean_linker_0, # of connection points: 2
#     Edge 144, Type (0, 0), BuildingBlock: OJICUG_clean_linker_0, # of connection points: 2
#     Edge 145, Type (0, 0), BuildingBlock: OJICUG_clean_linker_0, # of connection points: 2
#     Edge 146, Type (0, 0), BuildingBlock: OJICUG_clean_linker_0, # of connection points: 2
#     Edge 147, Type (0, 0), BuildingBlock: OJICUG_clean_linker_0, # of connection points: 2
#     Edge 148, Type (0, 0), BuildingBlock: OJICUG_clean_linker_0, # of connection points: 2
#     Edge 149, Type (0, 0), BuildingBlock: OJICUG_clean_linker_0, # of connection points: 2
#     Edge 150, Type (0, 0), BuildingBlock: OJICUG_clean_linker_0, # of connection points: 2
#     Edge 151, Type (0, 0), BuildingBlock: OJICUG_clean_linker_0, # of connection points: 2
#     Edge 152, Type (0, 0), BuildingBlock: OJICUG_clean_linker_0, # of connection points: 2
#     Edge 153, Type (0, 0), BuildingBlock: OJICUG_clean_linker_0, # of connection points: 2
#     Edge 154, Type (0, 0), BuildingBlock: OJICUG_clean_linker_0, # of connection points: 2
#     Edge 155, Type (0, 0), BuildingBlock: OJICUG_clean_linker_0, # of connection points: 2
#     Edge 156, Type (0, 0), BuildingBlock: OJICUG_clean_linker_0, # of connection points: 2
#     Edge 157, Type (0, 0), BuildingBlock: OJICUG_clean_linker_0, # of connection points: 2
#     Edge 158, Type (0, 0), BuildingBlock: OJICUG_clean_linker_0, # of connection points: 2
#     Edge 159, Type (0, 0), BuildingBlock: OJICUG_clean_linker_0, # of connection points: 2
#     Edge 160, Type (0, 0), BuildingBlock: OJICUG_clean_linker_0, # of connection points: 2
#     Edge 161, Type (0, 0), BuildingBlock: OJICUG_clean_linker_0, # of connection points: 2
#     Edge 162, Type (0, 0), BuildingBlock: OJICUG_clean_linker_0, # of connection points: 2
#     Edge 163, Type (0, 0), BuildingBlock: OJICUG_clean_linker_0, # of connection points: 2
#     Edge 164, Type (0, 0), BuildingBlock: OJICUG_clean_linker_0, # of connection points: 2
#     Edge 165, Type (0, 0), BuildingBlock: OJICUG_clean_linker_0, # of connection points: 2
#     Edge 166, Type (0, 0), BuildingBlock: OJICUG_clean_linker_0, # of connection points: 2
#     Edge 167, Type (0, 0), BuildingBlock: OJICUG_clean_linker_0, # of connection points: 2
# Relax obj value: 0.525
# Max RMSD: 0.188
# Mean RMSD: 0.188
data_MOF--net-fcn--node1-BEQFEK_clean_sbu_0--edge1-OJICUG_clean_linker_0
_symmetry_space_group_name_H-M    P1
_symmetry_Int_Tables_number       1
_symmetry_cell_setting            triclinic
loop_
_symmetry_equiv_pos_as_xyz
'x, y, z'
_cell_length_a     55.525797
_cell_length_b     55.549076
_cell_length_c     55.526736
_cell_angle_alpha  90.001207
_cell_angle_beta   89.99795
_cell_angle_gamma 90.044545
loop_
_atom_site_label
_atom_site_type_symbol
_atom_site_fract_x
_atom_site_fract_y
_atom_site_fract_z
_atom_type_partial_charge
Co0 Co 0.06827 0.18013 0.31031 0.0
Co1 Co 0.0994 0.14214 0.28237 0.0
C2 C 0.10272 0.14768 0.33619 0.0
O3 O 0.08639 0.16381 0.33775 0.0
O4 O 0.10834 0.13837 0.31612 0.0
C5 C 0.02896 0.20547 0.33279 0.0
O6 O 0.02155 0.18358 0.33786 0.0
C7 C 0.14606 0.12398 0.26648 0.0
C8 C 0.13597 0.09555 0.24061 0.0
C9 C 0.15577 0.10691 0.25089 0.0
N10 N 0.1219 0.1227 0.26524 0.0
N11 N 0.11597 0.10547 0.24999 0.0
C12 C 0.15908 0.14241 0.28124 0.0
H13 H 0.14654 0.15659 0.28756 0.0
H14 H 0.1738 0.15076 0.27059 0.0
H15 H 0.16702 0.13357 0.29729 0.0
C16 C 0.09217 0.21259 0.2751 0.0
N17 N 0.09011 0.19107 0.28615 0.0
N18 N 0.1024 0.17495 0.27384 0.0
C19 C 0.11253 0.18562 0.25458 0.0
C20 C 0.10662 0.20988 0.25486 0.0
C21 C 0.07834 0.23456 0.28218 0.0
H22 H 0.08045 0.23775 0.30179 0.0
H23 H 0.08459 0.25066 0.27212 0.0
H24 H 0.05893 0.23158 0.27846 0.0
O25 O 0.04428 0.15941 0.29298 0.0
O26 O 0.06612 0.13145 0.27446 0.0
H27 H 0.12274 0.1824 0.21696 0.0
H28 H 0.14297 0.16872 0.23817 0.0
C29 C 0.12374 0.17212 0.23406 0.0
H30 H 0.11452 0.15461 0.2315 0.0
H31 H 0.09828 0.10076 0.2457 0.0
O32 O 0.04918 0.2082 0.3223 0.0
C33 C 0.04585 0.14106 0.27927 0.0
Co34 Co 0.07644 0.81878 0.56256 0.0
Co35 Co 0.10961 0.85578 0.53571 0.0
C36 C 0.10742 0.85357 0.58985 0.0
O37 O 0.09241 0.83613 0.5908 0.0
O38 O 0.11516 0.86148 0.56989 0.0
C39 C 0.03383 0.79859 0.58828 0.0
O40 O 0.03123 0.81955 0.59893 0.0
C41 C 0.12391 0.90477 0.52208 0.0
C42 C 0.15283 0.8979 0.49565 0.0
C43 C 0.14029 0.91622 0.50704 0.0
N44 N 0.12655 0.88085 0.51948 0.0
N45 N 0.14398 0.87686 0.50378 0.0
C46 C 0.1069 0.9162 0.5396 0.0
H47 H 0.10195 0.90334 0.55403 0.0
H48 H 0.09012 0.92148 0.53019 0.0
H49 H 0.11508 0.93263 0.54754 0.0
C50 C 0.04061 0.84127 0.52894 0.0
N51 N 0.06217 0.84128 0.54024 0.0
N52 N 0.07645 0.85666 0.52912 0.0
C53 C 0.06472 0.86657 0.51041 0.0
C54 C 0.04147 0.85747 0.50987 0.0
C55 C 0.02069 0.82391 0.53422 0.0
H56 H 0.0139 0.82722 0.55268 0.0
H57 H 0.00546 0.82597 0.52145 0.0
H58 H 0.02765 0.80522 0.53331 0.0
O59 O 0.09901 0.7979 0.54324 0.0
O60 O 0.12138 0.82457 0.52352 0.0
H61 H 0.09498 0.87132 0.48673 0.0
H62 H 0.06667 0.87903 0.47324 0.0
C63 C 0.07716 0.87957 0.49021 0.0
H64 H 0.0798 0.89867 0.49526 0.0
H65 H 0.14979 0.85977 0.49858 0.0
O66 O 0.0513 0.79546 0.5738 0.0
C67 C 0.11513 0.80288 0.52764 0.0
Co68 Co 0.43869 0.82552 0.81206 0.0
Co69 Co 0.40645 0.86302 0.78459 0.0
C70 C 0.40514 0.85806 0.83869 0.0
O71 O 0.42124 0.84169 0.83993 0.0
O72 O 0.39909 0.86727 0.81871 0.0
C73 C 0.47871 0.8005 0.83391 0.0
O74 O 0.48613 0.82242 0.83884 0.0
C75 C 0.35834 0.87762 0.76982 0.0
C76 C 0.36518 0.90804 0.74518 0.0
C77 C 0.34685 0.8943 0.75518 0.0
N78 N 0.38225 0.88114 0.76826 0.0
N79 N 0.38625 0.89949 0.75365 0.0
C80 C 0.3469 0.85923 0.78593 0.0
H81 H 0.34312 0.84262 0.77554 0.0
H82 H 0.32965 0.86612 0.79331 0.0
H83 H 0.35916 0.85429 0.80083 0.0
C84 C 0.41485 0.79273 0.77715 0.0
N85 N 0.41646 0.81417 0.78845 0.0
N86 N 0.40388 0.83016 0.77628 0.0
C87 C 0.39419 0.81956 0.75676 0.0
C88 C 0.40049 0.79541 0.75685 0.0
C89 C 0.42923 0.77101 0.78391 0.0
H90 H 0.42739 0.76762 0.80351 0.0
H91 H 0.42323 0.75487 0.77376 0.0
H92 H 0.44853 0.77445 0.78 0.0
O93 O 0.4618 0.84684 0.79416 0.0
O94 O 0.43928 0.87431 0.77556 0.0
H95 H 0.3865 0.82335 0.71861 0.0
H96 H 0.36425 0.83562 0.73852 0.0
C97 C 0.38386 0.83316 0.73581 0.0
H98 H 0.39251 0.85106 0.73424 0.0
H99 H 0.40333 0.90606 0.74935 0.0
O100 O 0.45839 0.79769 0.82367 0.0
C101 C 0.45977 0.86507 0.7803 0.0
Co102 Co 0.42961 0.19015 0.06279 0.0
Co103 Co 0.39651 0.15299 0.03621 0.0
C104 C 0.39953 0.15475 0.09036 0.0
O105 O 0.4143 0.1724 0.09121 0.0
O106 O 0.39163 0.14688 0.07045 0.0
C107 C 0.47192 0.21064 0.08853 0.0
O108 O 0.47437 0.18976 0.09938 0.0
C109 C 0.38296 0.10388 0.02261 0.0
C110 C 0.35336 0.11018 0.9968 0.0
C111 C 0.36653 0.0921 0.00787 0.0
N112 N 0.37975 0.12774 0.02012 0.0
N113 N 0.36192 0.13139 0.0048 0.0
C114 C 0.4006 0.09281 0.03974 0.0
H115 H 0.40564 0.10577 0.05403 0.0
H116 H 0.41727 0.08787 0.02994 0.0
H117 H 0.39294 0.07623 0.04788 0.0
C118 C 0.46519 0.16852 0.02829 0.0
N119 N 0.44382 0.1681 0.03995 0.0
N120 N 0.42955 0.15267 0.02891 0.0
C121 C 0.44111 0.14311 0.00988 0.0
C122 C 0.46423 0.15251 0.00904 0.0
C123 C 0.48499 0.18602 0.03353 0.0
H124 H 0.4918 0.18283 0.05201 0.0
H125 H 0.50021 0.18405 0.02073 0.0
H126 H 0.47789 0.20466 0.03259 0.0
O127 O 0.40645 0.2109 0.04406 0.0
O128 O 0.38395 0.18416 0.02462 0.0
H129 H 0.43873 0.13095 0.97266 0.0
H130 H 0.42638 0.11085 0.99473 0.0
C131 C 0.42855 0.13005 0.98981 0.0
H132 H 0.4105 0.13796 0.98674 0.0
H133 H 0.35563 0.14836 0.99977 0.0
O134 O 0.45463 0.21366 0.07382 0.0
C135 C 0.39003 0.20589 0.02879 0.0
Co136 Co 0.06953 0.82641 0.19648 0.0
Co137 Co 0.10653 0.85945 0.22356 0.0
C138 C 0.10439 0.85743 0.16943 0.0
O139 O 0.08696 0.84242 0.16837 0.0
O140 O 0.11224 0.86514 0.18942 0.0
C141 C 0.04919 0.78405 0.17046 0.0
O142 O 0.07017 0.78137 0.15986 0.0
C143 C 0.15552 0.87402 0.23715 0.0
C144 C 0.14847 0.90276 0.26371 0.0
C145 C 0.16688 0.89047 0.25218 0.0
N146 N 0.13156 0.87639 0.23989 0.0
N147 N 0.12748 0.8937 0.25568 0.0
C148 C 0.16703 0.8572 0.21949 0.0
H149 H 0.15413 0.85214 0.20514 0.0
H150 H 0.17257 0.84046 0.22883 0.0
H151 H 0.18331 0.86559 0.21147 0.0
C152 C 0.09186 0.7905 0.23005 0.0
N153 N 0.09198 0.81206 0.21878 0.0
N154 N 0.10742 0.82626 0.22993 0.0
C155 C 0.11729 0.81446 0.24861 0.0
C156 C 0.10806 0.79127 0.24913 0.0
C157 C 0.07436 0.77071 0.22476 0.0
H158 H 0.05571 0.77779 0.22571 0.0
H159 H 0.07758 0.76395 0.20627 0.0
H160 H 0.07634 0.75545 0.2375 0.0
O161 O 0.04864 0.84889 0.21583 0.0
O162 O 0.07527 0.87107 0.23582 0.0
H163 H 0.12202 0.84453 0.27249 0.0
H164 H 0.13013 0.81619 0.28568 0.0
C165 C 0.13039 0.82682 0.26879 0.0
H166 H 0.14942 0.8297 0.26356 0.0
H167 H 0.11035 0.89933 0.26097 0.0
O168 O 0.04614 0.80142 0.18507 0.0
C169 C 0.05359 0.86487 0.23158 0.0
Co170 Co 0.43054 0.81779 0.44907 0.0
Co171 Co 0.39628 0.85411 0.47524 0.0
C172 C 0.40078 0.85333 0.42131 0.0
O173 O 0.41578 0.8359 0.42059 0.0
O174 O 0.39222 0.86074 0.4411 0.0
C175 C 0.47409 0.79943 0.42425 0.0
O176 O 0.47658 0.82101 0.41489 0.0
C177 C 0.38155 0.90273 0.48892 0.0
C178 C 0.35165 0.89567 0.5142 0.0
C179 C 0.36464 0.91408 0.50342 0.0
N180 N 0.37877 0.8788 0.49126 0.0
N181 N 0.36077 0.87469 0.50626 0.0
C182 C 0.39933 0.91422 0.47219 0.0
H183 H 0.40466 0.90155 0.45776 0.0
H184 H 0.41584 0.9191 0.48228 0.0
H185 H 0.39167 0.93085 0.46418 0.0
C186 C 0.46474 0.839 0.48523 0.0
N187 N 0.44382 0.83952 0.47277 0.0
N188 N 0.42907 0.85465 0.48357 0.0
C189 C 0.43986 0.86395 0.50317 0.0
C190 C 0.46296 0.85464 0.50472 0.0
C191 C 0.4849 0.82185 0.48031 0.0
H192 H 0.49262 0.82585 0.46235 0.0
H193 H 0.49946 0.8234 0.4939 0.0
H194 H 0.47789 0.80314 0.48012 0.0
O195 O 0.40717 0.79637 0.46688 0.0
O196 O 0.38375 0.82268 0.48579 0.0
H197 H 0.4086 0.86838 0.52552 0.0
H198 H 0.43629 0.87608 0.54031 0.0
C199 C 0.42654 0.87673 0.5229 0.0
H200 H 0.42403 0.89586 0.51788 0.0
H201 H 0.35473 0.85756 0.51109 0.0
O202 O 0.45624 0.79512 0.43794 0.0
C203 C 0.39021 0.80107 0.48166 0.0
Co204 Co 0.43736 0.1843 0.69549 0.0
Co205 Co 0.40094 0.15021 0.72196 0.0
C206 C 0.40277 0.15255 0.66819 0.0
O207 O 0.41994 0.1679 0.66746 0.0
O208 O 0.39493 0.14442 0.688 0.0
C209 C 0.47913 0.20778 0.67491 0.0
O210 O 0.48666 0.18559 0.67172 0.0
C211 C 0.35356 0.13097 0.7349 0.0
C212 C 0.36205 0.10851 0.76662 0.0
C213 C 0.34321 0.11618 0.75218 0.0
N214 N 0.37735 0.13223 0.73919 0.0
N215 N 0.38237 0.11851 0.75797 0.0
C216 C 0.34151 0.14296 0.71398 0.0
H217 H 0.34529 0.16257 0.71437 0.0
H218 H 0.32182 0.13971 0.71371 0.0
H219 H 0.34925 0.13574 0.69706 0.0
C220 C 0.41654 0.21792 0.73157 0.0
N221 N 0.41501 0.19751 0.71846 0.0
N222 N 0.39878 0.18334 0.7284 0.0
C223 C 0.38911 0.19447 0.7476 0.0
C224 C 0.40033 0.21658 0.75061 0.0
C225 C 0.43646 0.23587 0.72888 0.0
H226 H 0.45408 0.22655 0.73023 0.0
H227 H 0.43528 0.24421 0.71078 0.0
H228 H 0.43542 0.25021 0.74277 0.0
O229 O 0.45948 0.16256 0.71415 0.0
O230 O 0.43295 0.13995 0.7338 0.0
H231 H 0.38289 0.16723 0.77417 0.0
H232 H 0.3669 0.19501 0.77974 0.0
C233 C 0.37306 0.18233 0.76558 0.0
H234 H 0.35698 0.17505 0.75633 0.0
H235 H 0.39961 0.11628 0.76511 0.0
O236 O 0.45816 0.21125 0.6835 0.0
C237 C 0.45459 0.14646 0.72978 0.0
Co238 Co 0.07573 0.18779 0.94688 0.0
Co239 Co 0.11057 0.15266 0.97373 0.0
C240 C 0.10718 0.15347 0.91967 0.0
O241 O 0.09163 0.17038 0.9187 0.0
O242 O 0.1156 0.14629 0.93961 0.0
C243 C 0.05224 0.22915 0.92577 0.0
O244 O 0.07441 0.23642 0.92183 0.0
C245 C 0.12587 0.10441 0.98742 0.0
C246 C 0.15552 0.11166 0.01293 0.0
C247 C 0.14279 0.09317 1.00197 0.0
N248 N 0.12838 0.12834 0.98989 0.0
N249 N 0.14624 0.13259 0.00503 0.0
C250 C 0.10831 0.09283 0.97052 0.0
H251 H 0.09168 0.08799 0.98044 0.0
H252 H 0.11607 0.07618 0.96265 0.0
H253 H 0.10314 0.10543 0.95598 0.0
C254 C 0.04162 0.16566 0.98208 0.0
N255 N 0.06279 0.16552 0.97011 0.0
N256 N 0.0777 0.15094 0.98137 0.0
C257 C 0.06677 0.14169 1.00093 0.0
C258 C 0.0434 0.15046 1.00191 0.0
C259 C 0.02128 0.18237 0.97645 0.0
H260 H 0.01664 0.18087 0.95708 0.0
H261 H 0.00513 0.1782 0.98747 0.0
H262 H 0.02705 0.20118 0.97999 0.0
O263 O 0.09782 0.21011 0.96525 0.0
O264 O 0.12161 0.1845 0.98477 0.0
H265 H 0.07013 0.13059 0.03841 0.0
H266 H 0.08305 0.11049 0.01664 0.0
C267 C 0.0801 0.12968 0.02115 0.0
H268 H 0.09785 0.13844 0.02375 0.0
H269 H 0.15205 0.14976 0.00997 0.0
O270 O 0.04879 0.20852 0.93512 0.0
C271 C 0.11452 0.20588 0.98047 0.0
Co272 Co 0.31014 0.06897 0.18282 0.0
Co273 Co 0.28424 0.1065 0.14977 0.0
C274 C 0.33789 0.10513 0.15299 0.0
O275 O 0.33838 0.08745 0.16774 0.0
O276 O 0.31819 0.11312 0.14476 0.0
C277 C 0.33205 0.05204 0.22812 0.0
O278 O 0.33681 0.07479 0.23255 0.0
C279 C 0.27193 0.15418 0.13114 0.0
C280 C 0.24015 0.14642 0.10849 0.0
C281 C 0.25495 0.16493 0.11632 0.0
N282 N 0.26718 0.13048 0.13221 0.0
N283 N 0.24834 0.1259 0.11841 0.0
C284 C 0.29322 0.16567 0.14306 0.0
H285 H 0.30981 0.15941 0.13388 0.0
H286 H 0.29431 0.15976 0.16212 0.0
H287 H 0.29275 0.18557 0.14197 0.0
C288 C 0.27154 0.08705 0.21578 0.0
N289 N 0.28604 0.09004 0.19643 0.0
N290 N 0.27701 0.1073 0.18288 0.0
C291 C 0.25733 0.11645 0.19361 0.0
C292 C 0.25283 0.10366 0.21455 0.0
C293 C 0.27246 0.06554 0.23202 0.0
H294 H 0.27677 0.04917 0.22143 0.0
H295 H 0.28685 0.06828 0.24559 0.0
H296 H 0.25518 0.06282 0.24169 0.0
O297 O 0.29268 0.04759 0.15963 0.0
O298 O 0.27294 0.07474 0.13795 0.0
H299 H 0.23151 0.12531 0.16641 0.0
H300 H 0.22663 0.14046 0.19477 0.0
C301 C 0.24054 0.13403 0.18194 0.0
H302 H 0.25085 0.14978 0.1754 0.0
H303 H 0.24091 0.1088 0.116 0.0
O304 O 0.32197 0.0464 0.20834 0.0
C305 C 0.27722 0.0529 0.14353 0.0
Co306 Co 0.18871 0.06171 0.43156 0.0
Co307 Co 0.15303 0.03445 0.39726 0.0
C308 C 0.15529 0.08853 0.39889 0.0
O309 O 0.172 0.08964 0.41466 0.0
O310 O 0.14768 0.06854 0.39099 0.0
C311 C 0.23024 0.08285 0.45541 0.0
O312 O 0.2381 0.0863 0.43336 0.0
C313 C 0.10448 0.02108 0.38177 0.0
C314 C 0.11171 0.994 0.35357 0.0
C315 C 0.09321 0.00586 0.36544 0.0
N316 N 0.12843 0.01812 0.37978 0.0
N317 N 0.13265 1.00204 0.36276 0.0
C318 C 0.09289 0.03903 0.39823 0.0
H319 H 0.08788 0.03013 0.41538 0.0
H320 H 0.07631 0.04648 0.38991 0.0
H321 H 0.10556 0.05381 0.40258 0.0
C322 C 0.16488 0.02886 0.46676 0.0
N323 N 0.16558 0.03968 0.44501 0.0
N324 N 0.15082 0.02822 0.4304 0.0
C325 C 0.14064 0.00962 0.44213 0.0
C326 C 0.14894 0.00956 0.46571 0.0
C327 C 0.18149 0.03484 0.48709 0.0
H328 H 0.18044 0.0544 0.49095 0.0
H329 H 0.17682 0.02459 0.50361 0.0
H330 H 0.20027 0.03059 0.48174 0.0
O331 O 0.21073 0.04219 0.41009 0.0
O332 O 0.18477 0.02235 0.38689 0.0
H333 H 0.13696 0.98549 0.41209 0.0
H334 H 0.12841 0.97238 0.44038 0.0
C335 C 0.12813 0.98917 0.42961 0.0
H336 H 0.1091 0.99409 0.42626 0.0
H337 H 0.14981 0.99651 0.35749 0.0
O338 O 0.2094 0.0738 0.45851 0.0
C339 C 0.20625 0.02654 0.39383 0.0
Co340 Co 0.19712 0.93788 0.68308 0.0
Co341 Co 0.22374 0.90266 0.64797 0.0
C342 C 0.16969 0.90364 0.65167 0.0
O343 O 0.16882 0.92055 0.66724 0.0
O344 O 0.18956 0.89641 0.64317 0.0
C345 C 0.17576 0.979 0.70723 0.0
O346 O 0.17143 0.98647 0.6852 0.0
C347 C 0.23725 0.85413 0.63337 0.0
C348 C 0.26214 0.86068 0.60304 0.0
C349 C 0.2515 0.84249 0.61646 0.0
N350 N 0.2396 0.87801 0.63022 0.0
N351 N 0.25436 0.88184 0.61195 0.0
C352 C 0.22072 0.84294 0.65152 0.0
H353 H 0.23096 0.83855 0.66808 0.0
H354 H 0.21279 0.82606 0.64432 0.0
H355 H 0.20623 0.85562 0.65663 0.0
C356 C 0.23239 0.91562 0.71692 0.0
N357 N 0.22031 0.9155 0.69582 0.0
N358 N 0.23153 0.90099 0.68079 0.0
C359 C 0.25119 0.89182 0.69155 0.0
C360 C 0.25226 0.9005 0.71495 0.0
C361 C 0.22687 0.93227 0.73734 0.0
H362 H 0.20754 0.93069 0.74212 0.0
H363 H 0.23801 0.92811 0.7534 0.0
H364 H 0.23032 0.9511 0.7316 0.0
O365 O 0.21554 0.96013 0.66091 0.0
O366 O 0.23489 0.93452 0.63692 0.0
H367 H 0.28888 0.88165 0.68769 0.0
H368 H 0.26744 0.86078 0.67546 0.0
C369 C 0.27148 0.88014 0.67803 0.0
H370 H 0.27358 0.88868 0.66012 0.0
H371 H 0.25914 0.89887 0.60561 0.0
O372 O 0.18548 0.95848 0.71028 0.0
C373 C 0.23068 0.95591 0.64411 0.0
Co374 Co 0.32001 0.94574 0.9331 0.0
Co375 Co 0.3553 0.97327 0.89873 0.0
C376 C 0.35377 0.91917 0.90054 0.0
O377 O 0.33693 0.91796 0.91618 0.0
O378 O 0.36123 0.93922 0.89262 0.0
C379 C 0.27881 0.92402 0.95675 0.0
O380 O 0.27124 0.92032 0.93464 0.0
C381 C 0.40343 0.98769 0.88278 0.0
C382 C 0.39525 0.01458 0.85466 0.0
C383 C 0.41414 1.00318 0.86633 0.0
N384 N 0.3794 0.99006 0.88103 0.0
N385 N 0.37461 0.00602 0.86407 0.0
C386 C 0.41562 0.97002 0.89911 0.0
H387 H 0.40328 0.95507 0.90376 0.0
H388 H 0.4208 0.97909 0.91612 0.0
H389 H 0.43217 0.96282 0.89051 0.0
C390 C 0.34352 0.97891 0.96821 0.0
N391 N 0.34295 0.968 0.9465 0.0
N392 N 0.35754 0.9796 0.93183 0.0
C393 C 0.36747 0.99839 0.94348 0.0
C394 C 0.35918 0.99842 0.96706 0.0
C395 C 0.32696 0.9728 0.98855 0.0
H396 H 0.32818 0.95325 0.99243 0.0
H397 H 0.33155 0.9831 0.00506 0.0
H398 H 0.30815 0.97688 0.98321 0.0
O399 O 0.29769 0.96511 0.91186 0.0
O400 O 0.32343 0.98506 0.88855 0.0
H401 H 0.37911 0.03582 0.94157 0.0
H402 H 0.39869 0.01437 0.92743 0.0
C403 C 0.3796 0.019 0.93085 0.0
H404 H 0.37064 0.0225 0.91337 0.0
H405 H 0.35726 0.01114 0.85898 0.0
O406 O 0.29946 0.93343 0.96001 0.0
C407 C 0.30202 0.9808 0.89563 0.0
Co408 Co 0.31262 0.93902 0.32805 0.0
Co409 Co 0.28557 0.90256 0.36161 0.0
C410 C 0.33967 0.90436 0.35943 0.0
O411 O 0.3407 0.92172 0.34434 0.0
O412 O 0.31969 0.89659 0.36724 0.0
C413 C 0.33107 0.98219 0.30554 0.0
O414 O 0.33225 0.98992 0.32787 0.0
C415 C 0.27169 0.85395 0.37653 0.0
C416 C 0.24487 0.86128 0.40497 0.0
C417 C 0.25644 0.84276 0.39288 0.0
N418 N 0.26903 0.87791 0.37875 0.0
N419 N 0.2531 0.88218 0.39589 0.0
C420 C 0.28942 0.8423 0.35988 0.0
H421 H 0.28024 0.83696 0.34298 0.0
H422 H 0.29718 0.82592 0.36829 0.0
H423 H 0.30398 0.85504 0.35504 0.0
C424 C 0.27947 0.91606 0.29243 0.0
N425 N 0.29038 0.91633 0.31415 0.0
N426 N 0.27899 0.90125 0.32849 0.0
C427 C 0.26039 0.89124 0.31661 0.0
C428 C 0.26025 0.90001 0.2932 0.0
C429 C 0.28538 0.93308 0.27241 0.0
H430 H 0.30495 0.9322 0.26852 0.0
H431 H 0.27512 0.9287 0.25582 0.0
H432 H 0.28107 0.95173 0.27814 0.0
O433 O 0.29321 0.96051 0.35014 0.0
O434 O 0.27379 0.93402 0.373 0.0
H435 H 0.22321 0.8788 0.3182 0.0
H436 H 0.24508 0.85925 0.33173 0.0
C437 C 0.24006 0.87833 0.32889 0.0
H438 H 0.2364 0.88668 0.34664 0.0
H439 H 0.24782 0.89936 0.40135 0.0
O440 O 0.32447 0.96058 0.30163 0.0
C441 C 0.27778 0.95565 0.36648 0.0
Co442 Co 0.31737 0.0618 0.57746 0.0
Co443 Co 0.35413 0.0353 0.61099 0.0
C444 C 0.35284 0.08931 0.60752 0.0
O445 O 0.33517 0.09016 0.59277 0.0
O446 O 0.36057 0.06943 0.61558 0.0
C447 C 0.29802 0.08723 0.53453 0.0
O448 O 0.31922 0.09749 0.53216 0.0
C449 C 0.40287 0.02085 0.62488 0.0
C450 C 0.39586 0.99601 0.65516 0.0
C451 C 0.4142 0.00625 0.64167 0.0
N452 N 0.37895 0.01911 0.62817 0.0
N453 N 0.37488 0.00438 0.64641 0.0
C454 C 0.41449 0.03726 0.6069 0.0
H455 H 0.4017 0.05136 0.60095 0.0
H456 H 0.42002 0.02684 0.59081 0.0
H457 H 0.43085 0.04566 0.61475 0.0
C458 C 0.33939 0.02727 0.54217 0.0
N459 N 0.33952 0.03891 0.56354 0.0
N460 N 0.35467 0.02778 0.57804 0.0
C461 C 0.36424 0.00868 0.56666 0.0
C462 C 0.35525 0.00795 0.5434 0.0
C463 C 0.32234 0.03265 0.52201 0.0
H464 H 0.30356 0.03213 0.52879 0.0
H465 H 0.32606 0.05097 0.51507 0.0
H466 H 0.32433 0.0197 0.50694 0.0
O467 O 0.29624 0.04305 0.6004 0.0
O468 O 0.32288 0.02396 0.62329 0.0
H469 H 0.36901 0.98591 0.59763 0.0
H470 H 0.3751 0.97114 0.56958 0.0
C471 C 0.37678 0.98842 0.57944 0.0
H472 H 0.39618 0.99267 0.5812 0.0
H473 H 0.35777 0.99999 0.65283 0.0
O474 O 0.29436 0.07296 0.55208 0.0
C475 C 0.3012 0.02791 0.61695 0.0
Co476 Co 0.19685 0.06736 0.8284 0.0
Co477 Co 0.22354 0.10488 0.86103 0.0
C478 C 0.16947 0.10301 0.85835 0.0
O479 O 0.16859 0.08522 0.84376 0.0
O480 O 0.18939 0.11101 0.8661 0.0
C481 C 0.17135 0.04735 0.78585 0.0
O482 O 0.16116 0.06853 0.78318 0.0
C483 C 0.23735 0.15394 0.87483 0.0
C484 C 0.26368 0.14724 0.90389 0.0
C485 C 0.25236 0.16548 0.89117 0.0
N486 N 0.2399 0.13003 0.87767 0.0
N487 N 0.25554 0.12615 0.89517 0.0
C488 C 0.21989 0.1653 0.8577 0.0
H489 H 0.20568 0.15232 0.85246 0.0
H490 H 0.22943 0.17089 0.84109 0.0
H491 H 0.21167 0.18155 0.86594 0.0
C492 C 0.23109 0.08885 0.79247 0.0
N493 N 0.21958 0.08934 0.81391 0.0
N494 N 0.23055 0.10505 0.82794 0.0
C495 C 0.24931 0.11481 0.81609 0.0
C496 C 0.25006 0.10518 0.79309 0.0
C497 C 0.22609 0.07099 0.77292 0.0
H498 H 0.20792 0.07446 0.76543 0.0
H499 H 0.23937 0.07235 0.75806 0.0
H500 H 0.22638 0.05251 0.78046 0.0
O501 O 0.21568 0.04671 0.85158 0.0
O502 O 0.23514 0.07378 0.87367 0.0
H503 H 0.27299 0.12048 0.84617 0.0
H504 H 0.28616 0.1282 0.81765 0.0
C505 C 0.26925 0.12843 0.82826 0.0
H506 H 0.26376 0.14743 0.83071 0.0
H507 H 0.26067 0.1091 0.90115 0.0
O508 O 0.18557 0.04391 0.80347 0.0
C509 C 0.23101 0.05198 0.86787 0.0
Co510 Co 0.19028 0.94652 0.07726 0.0
Co511 Co 0.15354 0.9737 0.1102 0.0
C512 C 0.15502 0.91963 0.10797 0.0
O513 O 0.17259 0.91849 0.09314 0.0
O514 O 0.14729 0.93966 0.11566 0.0
C515 C 0.21004 0.92029 0.03495 0.0
O516 O 0.18892 0.90989 0.0325 0.0
C517 C 0.10474 0.9881 0.1237 0.0
C518 C 0.11149 0.01359 0.1535 0.0
C519 C 0.09327 1.00293 0.14018 0.0
N520 N 0.12864 0.9901 0.127 0.0
N521 N 0.13256 0.00523 0.14494 0.0
C522 C 0.09328 0.97124 0.10604 0.0
H523 H 0.10623 0.95719 0.10029 0.0
H524 H 0.08758 0.98132 0.0898 0.0
H525 H 0.07705 0.96278 0.11408 0.0
C526 C 0.16825 0.98024 0.04124 0.0
N527 N 0.16808 0.969 0.06283 0.0
N528 N 0.15288 0.98037 0.07708 0.0
C529 C 0.14329 0.99922 0.06533 0.0
C530 C 0.15234 0.99954 0.04208 0.0
C531 C 0.18548 0.97463 0.02131 0.0
H532 H 0.18192 0.95617 0.01465 0.0
H533 H 0.18352 0.98733 0.00601 0.0
H534 H 0.20421 0.97536 0.02821 0.0
O535 O 0.21132 0.96582 0.09975 0.0
O536 O 0.18473 0.98563 0.12208 0.0
H537 H 0.13863 0.02267 0.09581 0.0
H538 H 0.13231 0.0368 0.06749 0.0
C539 C 0.13076 0.01973 0.07772 0.0
H540 H 0.11138 0.01545 0.0797 0.0
H541 H 0.14962 0.00989 0.15131 0.0
O542 O 0.21343 0.9349 0.05226 0.0
C543 C 0.20639 0.98146 0.11582 0.0
Co544 Co 0.18074 0.31192 0.06711 0.0
Co545 Co 0.14765 0.28499 0.10394 0.0
C546 C 0.15043 0.33897 0.10279 0.0
O547 O 0.16513 0.33998 0.08508 0.0
O548 O 0.14261 0.31901 0.11059 0.0
C549 C 0.22347 0.33774 0.0478 0.0
O550 O 0.22602 0.3477 0.06911 0.0
C551 C 0.13316 0.26977 0.15238 0.0
C552 C 0.1039 0.244 0.1444 0.0
C553 C 0.11661 0.25448 0.16314 0.0
N554 N 0.1305 0.26819 0.12837 0.0
N555 N 0.11286 0.2529 0.12372 0.0
C556 C 0.15028 0.28664 0.16463 0.0
H557 H 0.15657 0.30074 0.15197 0.0
H558 H 0.16625 0.2766 0.1711 0.0
H559 H 0.14148 0.29504 0.18049 0.0
C560 C 0.21642 0.27755 0.08879 0.0
N561 N 0.19497 0.28903 0.08908 0.0
N562 N 0.18071 0.27789 0.10447 0.0
C563 C 0.19239 0.25902 0.11416 0.0
C564 C 0.21555 0.25842 0.1049 0.0
C565 C 0.23623 0.28275 0.07128 0.0
H566 H 0.24361 0.30091 0.075 0.0
H567 H 0.2511 0.2695 0.07274 0.0
H568 H 0.22897 0.28258 0.05266 0.0
O569 O 0.15799 0.29318 0.04589 0.0
O570 O 0.13549 0.27377 0.07262 0.0
H571 H 0.19042 0.22183 0.12643 0.0
H572 H 0.1777 0.24376 0.14638 0.0
C573 C 0.18001 0.23883 0.12721 0.0
H574 H 0.16205 0.23548 0.11919 0.0
H575 H 0.10701 0.24846 0.10642 0.0
O576 O 0.2059 0.32351 0.04409 0.0
C577 C 0.14162 0.27786 0.05092 0.0
Co578 Co 0.68162 0.19788 0.93813 0.0
Co579 Co 0.64356 0.22562 0.90701 0.0
C580 C 0.64888 0.17162 0.9044 0.0
O581 O 0.66556 0.17022 0.92017 0.0
O582 O 0.63937 0.19162 0.89898 0.0
C583 C 0.70652 0.17476 0.97723 0.0
O584 O 0.68454 0.16922 0.98406 0.0
C585 C 0.62847 0.2409 0.85937 0.0
C586 C 0.59795 0.26527 0.86667 0.0
C587 C 0.61162 0.25554 0.84814 0.0
N588 N 0.6251 0.24219 0.8833 0.0
N589 N 0.60671 0.25663 0.88759 0.0
C590 C 0.64695 0.22508 0.84768 0.0
H591 H 0.65205 0.21007 0.85972 0.0
H592 H 0.6635 0.23565 0.84406 0.0
H593 H 0.64008 0.21785 0.83035 0.0
C594 C 0.71374 0.23422 0.91546 0.0
N595 N 0.69259 0.2223 0.91657 0.0
N596 N 0.67632 0.23446 0.90434 0.0
C597 C 0.68647 0.25456 0.89533 0.0
C598 C 0.7106 0.25494 0.90177 0.0
C599 C 0.73557 0.22756 0.92974 0.0
H600 H 0.73941 0.20811 0.92737 0.0
H601 H 0.7515 0.23825 0.92411 0.0
H602 H 0.73198 0.23083 0.94913 0.0
O603 O 0.66039 0.21497 0.96185 0.0
O604 O 0.63255 0.23392 0.9401 0.0
H605 H 0.65461 0.27657 0.89457 0.0
H606 H 0.68194 0.29273 0.88814 0.0
C607 C 0.67235 0.2754 0.88552 0.0
H608 H 0.66947 0.27284 0.86594 0.0
H609 H 0.60024 0.2607 0.90476 0.0
O610 O 0.7095 0.18594 0.95744 0.0
C611 C 0.64208 0.22877 0.96036 0.0
Co612 Co 0.06327 0.43481 0.18693 0.0
Co613 Co 0.03573 0.39709 0.15499 0.0
C614 C 0.08986 0.40135 0.15412 0.0
O615 O 0.0911 0.41796 0.16999 0.0
O616 O 0.06986 0.39224 0.14796 0.0
C617 C 0.08481 0.45988 0.22696 0.0
O618 O 0.08941 0.43793 0.23446 0.0
C619 C 0.02073 0.3811 0.10729 0.0
C620 C 0.99497 0.3519 0.11534 0.0
C621 C 0.00542 0.36454 0.09648 0.0
N622 N 0.01909 0.37857 0.13132 0.0
N623 N 1.00382 0.36094 0.13603 0.0
C624 C 0.03744 0.39847 0.09514 0.0
H625 H 0.02772 0.41543 0.09116 0.0
H626 H 0.04422 0.39086 0.07795 0.0
H627 H 0.05276 0.40302 0.10704 0.0
C628 C 0.02902 0.46756 0.16228 0.0
N629 N 0.04011 0.44606 0.16423 0.0
N630 N 0.02792 0.43002 0.1517 0.0
C631 C 0.00859 0.44066 0.14171 0.0
C632 C 0.00882 0.46489 0.14776 0.0
C633 C 0.03572 0.48933 0.17664 0.0
H634 H 0.05536 0.49263 0.17504 0.0
H635 H 0.02573 0.50548 0.17044 0.0
H636 H 0.03154 0.48602 0.19591 0.0
O637 O 0.04474 0.41423 0.21023 0.0
O638 O 0.02622 0.38657 0.18788 0.0
H639 H 0.97051 0.4372 0.13332 0.0
H640 H 0.9907 0.42381 0.11197 0.0
C641 C 0.9876 0.42706 0.13141 0.0
H642 H 0.98553 0.40952 0.14067 0.0
H643 H 0.99929 0.35525 0.15336 0.0
O644 O 0.07496 0.46274 0.20645 0.0
C645 C 0.03072 0.39612 0.20828 0.0
Co646 Co 0.82771 0.81096 0.44034 0.0
Co647 Co 0.86078 0.78437 0.40309 0.0
C648 C 0.85793 0.83842 0.40495 0.0
O649 O 0.8431 0.83934 0.42255 0.0
O650 O 0.86584 0.81851 0.39717 0.0
C651 C 0.78495 0.83639 0.46009 0.0
O652 O 0.78253 0.84662 0.43889 0.0
C653 C 0.87433 0.77134 0.35386 0.0
C654 C 0.90395 0.7455 0.35985 0.0
C655 C 0.89082 0.75685 0.3419 0.0
N656 N 0.87748 0.76847 0.3777 0.0
N657 N 0.89531 0.75313 0.38117 0.0
C658 C 0.8567 0.78861 0.343 0.0
H659 H 0.84009 0.77886 0.33778 0.0
H660 H 0.86443 0.79709 0.32662 0.0
H661 H 0.85155 0.80263 0.3562 0.0
C662 C 0.79207 0.77666 0.41847 0.0
N663 N 0.81347 0.78828 0.41816 0.0
N664 N 0.82772 0.77731 0.40266 0.0
C665 C 0.81612 0.75839 0.39295 0.0
C666 C 0.79301 0.75755 0.40233 0.0
C667 C 0.77225 0.78177 0.43598 0.0
H668 H 0.76506 0.80004 0.43248 0.0
H669 H 0.75724 0.76869 0.43425 0.0
H670 H 0.77942 0.78126 0.45461 0.0
O671 O 0.85081 0.79196 0.46108 0.0
O672 O 0.87315 0.77253 0.43419 0.0
H673 H 0.84663 0.73517 0.3878 0.0
H674 H 0.81839 0.72127 0.38048 0.0
C675 C 0.82865 0.73838 0.37979 0.0
H676 H 0.83096 0.74346 0.36064 0.0
H677 H 0.90159 0.74788 0.39808 0.0
O678 O 0.80251 0.82214 0.46368 0.0
C679 C 0.8671 0.77659 0.45595 0.0
Co680 Co 0.9445 0.07355 0.18664 0.0
Co681 Co 0.97176 0.11181 0.15498 0.0
C682 C 0.91765 0.10644 0.15368 0.0
O683 O 0.91652 0.08978 0.16949 0.0
O684 O 0.93756 0.11592 0.14775 0.0
C685 C 0.92123 0.04772 0.2255 0.0
O686 O 0.91387 0.06926 0.23191 0.0
C687 C 0.98672 0.12717 0.10708 0.0
C688 C 0.01149 0.15737 0.11449 0.0
C689 C 1.00159 0.14389 0.09591 0.0
N690 N 0.98807 0.1304 0.13105 0.0
N691 N 1.00274 0.14863 0.13538 0.0
C692 C 0.97065 0.10897 0.09528 0.0
H693 H 0.98089 0.09219 0.09189 0.0
H694 H 0.96384 0.11588 0.07781 0.0
H695 H 0.95534 0.10432 0.10717 0.0
C696 C 0.97959 0.04144 0.16232 0.0
N697 N 0.96813 0.06276 0.1642 0.0
N698 N 0.98023 0.07904 0.15189 0.0
C699 C 0.99989 0.06874 0.14216 0.0
C700 C 0.99995 0.0445 0.14812 0.0
C701 C 0.97301 0.01949 0.17645 0.0
H702 H 0.97715 0.02264 0.19575 0.0
H703 H 0.9534 0.01605 0.17478 0.0
H704 H 0.98314 1.00348 0.17011 0.0
O705 O 0.96227 0.09462 0.21004 0.0
O706 O 0.98079 0.12256 0.18802 0.0
H707 H 0.02222 0.10044 0.14123 0.0
H708 H 0.03808 0.07298 0.13482 0.0
C709 C 0.02082 0.08269 0.13224 0.0
H710 H 0.01824 0.08552 0.11266 0.0
H711 H 0.00696 0.15494 0.15257 0.0
O712 O 0.93331 0.04542 0.20615 0.0
C713 C 0.97606 0.11293 0.20834 0.0
Co714 Co 0.32468 0.69486 0.5702 0.0
Co715 Co 0.3594 0.72222 0.60529 0.0
C716 C 0.35661 0.66817 0.60444 0.0
O717 O 0.34116 0.667 0.58743 0.0
O718 O 0.36473 0.6882 0.61175 0.0
C719 C 0.30089 0.6734 0.529 0.0
O720 O 0.32299 0.6696 0.52145 0.0
C721 C 0.37437 0.73727 0.65341 0.0
C722 C 0.40425 0.76236 0.64562 0.0
C723 C 0.3912 0.75216 0.6643 0.0
N724 N 0.37719 0.73881 0.62942 0.0
N725 N 0.3952 0.75369 0.62487 0.0
C726 C 0.35674 0.72081 0.6655 0.0
H727 H 0.34038 0.73101 0.6706 0.0
H728 H 0.3647 0.71314 0.68216 0.0
H729 H 0.35119 0.70615 0.65316 0.0
C730 C 0.29004 0.72881 0.59323 0.0
N731 N 0.31158 0.71758 0.59282 0.0
N732 N 0.32645 0.72924 0.60718 0.0
C733 C 0.31513 0.74841 0.61671 0.0
C734 C 0.29153 0.74857 0.60853 0.0
C735 C 0.26954 0.7227 0.57687 0.0
H736 H 0.26549 0.7032 0.57831 0.0
H737 H 0.25317 0.7332 0.58143 0.0
H738 H 0.27482 0.72655 0.55798 0.0
O739 O 0.34626 0.71378 0.54781 0.0
O740 O 0.37001 0.73347 0.57337 0.0
H741 H 0.31804 0.78633 0.62618 0.0
H742 H 0.3304 0.76566 0.64767 0.0
C743 C 0.32808 0.7692 0.62818 0.0
H744 H 0.34604 0.77158 0.61984 0.0
H745 H 0.40124 0.75799 0.6076 0.0
O746 O 0.29766 0.68277 0.54966 0.0
C747 C 0.36282 0.72917 0.55201 0.0
Co748 Co 0.0606 0.57953 0.31684 0.0
Co749 Co 0.03373 0.61203 0.35422 0.0
C750 C 0.08784 0.60923 0.35272 0.0
O751 O 0.08888 0.59465 0.33494 0.0
O752 O 0.06786 0.61705 0.36045 0.0
C753 C 0.0868 0.53771 0.29625 0.0
O754 O 0.09759 0.53535 0.31718 0.0
C755 C 0.02049 0.62511 0.40348 0.0
C756 C 0.99476 0.65484 0.39765 0.0
C757 C 0.00605 0.64157 0.41552 0.0
N758 N 0.01767 0.62843 0.37966 0.0
N759 N 1.00237 0.64632 0.37628 0.0
C760 C 0.03774 0.60739 0.41423 0.0
H761 H 0.0279 0.59089 0.41964 0.0
H762 H 0.04645 0.61512 0.43048 0.0
H763 H 0.05157 0.60203 0.40091 0.0
C764 C 0.02651 0.54341 0.33828 0.0
N765 N 0.03788 0.56493 0.33873 0.0
N766 N 0.02673 0.57896 0.35429 0.0
C767 C 0.00793 0.5671 0.36392 0.0
C768 C 0.00736 0.54403 0.35441 0.0
C769 C 0.03199 0.52373 0.32073 0.0
H770 H 0.05053 0.51712 0.32395 0.0
H771 H 0.01934 0.50837 0.32264 0.0
H772 H 0.03103 0.53089 0.3021 0.0
O773 O 0.04169 0.60276 0.29625 0.0
O774 O 0.022 0.62475 0.32322 0.0
H775 H 0.98453 0.59738 0.36958 0.0
H776 H 0.97077 0.56893 0.37634 0.0
C777 C 0.98782 0.57928 0.37726 0.0
H778 H 0.99285 0.58126 0.39645 0.0
H779 H 0.99719 0.65274 0.3594 0.0
O780 O 0.0719 0.55481 0.2932 0.0
C781 C 0.02622 0.61893 0.30143 0.0
Co782 Co 0.44752 0.43279 0.82003 0.0
Co783 Co 0.47415 0.39878 0.85613 0.0
C784 C 0.4204 0.40157 0.85514 0.0
O785 O 0.41962 0.41675 0.83787 0.0
O786 O 0.44024 0.3934 0.86283 0.0
C787 C 0.4252 0.45604 0.77915 0.0
O788 O 0.42115 0.43383 0.77209 0.0
C789 C 0.48718 0.38119 0.90374 0.0
C790 C 0.51724 0.35634 0.896 0.0
C791 C 0.5036 0.36587 0.9146 0.0
N792 N 0.49111 0.38091 0.87988 0.0
N793 N 0.50889 0.3658 0.8753 0.0
C794 C 0.46728 0.39513 0.91543 0.0
H795 H 0.46649 0.41356 0.90776 0.0
H796 H 0.46925 0.39594 0.93527 0.0
H797 H 0.44992 0.38616 0.91126 0.0
C798 C 0.485 0.46585 0.83911 0.0
N799 N 0.47125 0.44593 0.84163 0.0
N800 N 0.48131 0.43181 0.8578 0.0
C801 C 0.50127 0.44247 0.86645 0.0
C802 C 0.50463 0.46419 0.8546 0.0
C803 C 0.48221 0.48335 0.81884 0.0
H804 H 0.48259 0.47352 0.80144 0.0
H805 H 0.46445 0.49233 0.82042 0.0
H806 H 0.49661 0.49722 0.81898 0.0
O807 O 0.46544 0.41078 0.7977 0.0
O808 O 0.48532 0.38806 0.82399 0.0
H809 H 0.52689 0.41435 0.87273 0.0
H810 H 0.53422 0.44243 0.88749 0.0
C811 C 0.51933 0.43016 0.88228 0.0
H812 H 0.51038 0.4239 0.89895 0.0
H813 H 0.51554 0.36221 0.85809 0.0
O814 O 0.43513 0.45961 0.7995 0.0
C815 C 0.48098 0.39455 0.80239 0.0
Co816 Co 0.56755 0.67979 0.81162 0.0
Co817 Co 0.60456 0.64656 0.78509 0.0
C818 C 0.60157 0.64829 0.83919 0.0
O819 O 0.58447 0.66365 0.84 0.0
O820 O 0.60962 0.64052 0.8193 0.0
C821 C 0.54734 0.72216 0.8375 0.0
O822 O 0.56817 0.72447 0.84847 0.0
C823 C 0.65348 0.63144 0.77232 0.0
C824 C 0.64651 0.60345 0.74493 0.0
C825 C 0.66487 0.61519 0.75711 0.0
N826 N 0.62956 0.62949 0.76904 0.0
N827 N 0.6255 0.61261 0.75278 0.0
C828 C 0.66489 0.64776 0.79052 0.0
H829 H 0.67004 0.66494 0.78177 0.0
H830 H 0.68137 0.63937 0.79812 0.0
H831 H 0.65206 0.65204 0.80517 0.0
C832 C 0.5902 0.71545 0.77795 0.0
N833 N 0.59029 0.69402 0.78948 0.0
N834 N 0.60585 0.67976 0.77863 0.0
C835 C 0.61588 0.69142 0.75991 0.0
C836 C 0.60655 0.71456 0.75899 0.0
C837 C 0.57259 0.73521 0.7829 0.0
H838 H 0.55397 0.72807 0.7817 0.0
H839 H 0.57552 0.74206 0.80141 0.0
H840 H 0.57474 0.75042 0.77012 0.0
O841 O 0.54669 0.65739 0.79213 0.0
O842 O 0.57343 0.63515 0.77241 0.0
H843 H 0.62058 0.66146 0.73593 0.0
H844 H 0.62995 0.6897 0.72328 0.0
C845 C 0.62932 0.67892 0.74007 0.0
H846 H 0.64805 0.67544 0.74594 0.0
H847 H 0.6084 0.60738 0.747 0.0
O848 O 0.54428 0.70494 0.82272 0.0
C849 C 0.55174 0.6414 0.77644 0.0
Co850 Co 0.57499 0.31964 0.0635 0.0
Co851 Co 0.61265 0.35121 0.03548 0.0
C852 C 0.60795 0.35354 0.08953 0.0
O853 O 0.59162 0.33738 0.09103 0.0
O854 O 0.61704 0.35941 0.06942 0.0
C855 C 0.54994 0.27979 0.08546 0.0
O856 O 0.57191 0.27229 0.09001 0.0
C857 C 0.62779 0.39851 0.0186 0.0
C858 C 0.65814 0.39012 0.99432 0.0
C859 C 0.64456 0.40901 1.00335 0.0
N860 N 0.63109 0.37454 0.01832 0.0
N861 N 0.6494 0.36963 1.00395 0.0
C862 C 0.60961 0.41104 0.0341 0.0
H863 H 0.60435 0.39953 0.04951 0.0
H864 H 0.59316 0.41485 0.02348 0.0
H865 H 0.61692 0.42843 0.04073 0.0
C866 C 0.54229 0.343 0.02824 0.0
N867 N 0.56372 0.34158 0.0396 0.0
N868 N 0.57979 0.35384 0.02716 0.0
C869 C 0.56925 0.36309 0.0074 0.0
C870 C 0.54506 0.35692 0.00765 0.0
C871 C 0.52055 0.32867 0.03512 0.0
H872 H 0.51701 0.33087 0.05466 0.0
H873 H 0.50447 0.33439 0.02472 0.0
H874 H 0.52407 0.30932 0.03161 0.0
O875 O 0.59581 0.29609 0.04567 0.0
O876 O 0.62356 0.31821 0.02698 0.0
H877 H 0.60077 0.36392 0.98481 0.0
H878 H 0.57307 0.36941 0.96901 0.0
C879 C 0.58289 0.37264 0.9861 0.0
H880 H 0.58538 0.39233 0.98806 0.0
H881 H 0.65577 0.35229 1.00052 0.0
O882 O 0.54707 0.30022 0.07548 0.0
C883 C 0.61405 0.29786 0.03179 0.0
Co884 Co 0.94067 0.3268 0.31038 0.0
Co885 Co 0.90727 0.36337 0.28315 0.0
C886 C 0.90644 0.35831 0.33735 0.0
O887 O 0.92294 0.34231 0.33852 0.0
O888 O 0.90012 0.36743 0.3174 0.0
C889 C 0.96022 0.28371 0.33626 0.0
O890 O 0.93992 0.28202 0.3483 0.0
C891 C 0.85883 0.37772 0.2687 0.0
C892 C 0.86567 0.40766 0.24346 0.0
C893 C 0.84733 0.39424 0.25386 0.0
N894 N 0.88275 0.38107 0.26687 0.0
N895 N 0.88673 0.39911 0.25189 0.0
C896 C 0.84744 0.35969 0.28524 0.0
H897 H 0.84319 0.34303 0.27511 0.0
H898 H 0.83047 0.36693 0.29291 0.0
H899 H 0.85995 0.35471 0.29992 0.0
C900 C 0.91699 0.29313 0.2758 0.0
N901 N 0.91854 0.31467 0.28694 0.0
N902 N 0.9054 0.33038 0.27496 0.0
C903 C 0.89538 0.31948 0.25577 0.0
C904 C 0.90204 0.29543 0.25588 0.0
C905 C 0.93163 0.27154 0.28243 0.0
H906 H 0.9279 0.26667 0.30142 0.0
H907 H 0.92735 0.25587 0.27079 0.0
H908 H 0.95106 0.27592 0.28079 0.0
O909 O 0.96276 0.34891 0.29231 0.0
O910 O 0.93957 0.3756 0.27357 0.0
H911 H 0.89263 0.35069 0.23298 0.0
H912 H 0.88626 0.32277 0.21789 0.0
C913 C 0.88418 0.33274 0.23507 0.0
H914 H 0.86467 0.33509 0.23847 0.0
H915 H 0.90382 0.40549 0.24733 0.0
O916 O 0.96293 0.30059 0.32103 0.0
C917 C 0.96029 0.36692 0.27829 0.0
Co918 Co 0.93238 0.68786 0.56222 0.0
Co919 Co 0.89833 0.65205 0.53474 0.0
C920 C 0.90027 0.65368 0.58887 0.0
O921 O 0.91564 0.67077 0.59007 0.0
O922 O 0.89246 0.64612 0.56881 0.0
C923 C 0.95581 0.72948 0.58367 0.0
O924 O 0.93366 0.73694 0.58732 0.0
C925 C 0.8836 0.60348 0.52061 0.0
C926 C 0.85457 0.61066 0.49438 0.0
C927 C 0.86712 0.59219 0.50555 0.0
N928 N 0.88102 0.62743 0.51823 0.0
N929 N 0.86353 0.63161 0.50266 0.0
C930 C 0.90067 0.59187 0.53795 0.0
H931 H 0.90559 0.60454 0.55255 0.0
H932 H 0.91747 0.58681 0.52845 0.0
H933 H 0.89258 0.5753 0.54568 0.0
C934 C 0.96771 0.66461 0.52914 0.0
N935 N 0.94598 0.66501 0.54002 0.0
N936 N 0.93144 0.6503 0.5284 0.0
C937 C 0.94316 0.6405 0.50961 0.0
C938 C 0.96669 0.64894 0.50963 0.0
C939 C 0.98793 0.68132 0.53524 0.0
H940 H 0.99177 0.6802 0.55481 0.0
H941 H 0.00449 0.67682 0.52498 0.0
H942 H 0.98247 0.70008 0.53106 0.0
O943 O 0.91081 0.70979 0.54273 0.0
O944 O 0.88769 0.68379 0.52285 0.0
H945 H 0.91284 0.63688 0.4858 0.0
H946 H 0.9411 0.62966 0.47196 0.0
C947 C 0.93062 0.62843 0.48891 0.0
H948 H 0.92791 0.60913 0.49314 0.0
H949 H 0.85775 0.64876 0.49764 0.0
O950 O 0.95916 0.70879 0.57439 0.0
C951 C 0.89459 0.70528 0.52706 0.0
Co952 Co 0.56858 0.32827 0.69776 0.0
Co953 Co 0.60512 0.36219 0.72404 0.0
C954 C 0.60431 0.35788 0.67005 0.0
O955 O 0.58669 0.34308 0.66927 0.0
O956 O 0.61183 0.36625 0.68989 0.0
C957 C 0.549 0.2852 0.67263 0.0
O958 O 0.57029 0.28242 0.66267 0.0
C959 C 0.65389 0.37569 0.73835 0.0
C960 C 0.64743 0.40676 0.76233 0.0
C961 C 0.66552 0.39267 0.7525 0.0
N962 N 0.63004 0.37945 0.73997 0.0
N963 N 0.62628 0.39816 0.75418 0.0
C964 C 0.66514 0.357 0.72251 0.0
H965 H 0.66959 0.34083 0.73332 0.0
H966 H 0.68207 0.36398 0.71447 0.0
H967 H 0.65249 0.35141 0.70813 0.0
C968 C 0.58947 0.29384 0.73375 0.0
N969 N 0.5903 0.31474 0.72129 0.0
N970 N 0.60537 0.32942 0.7323 0.0
C971 C 0.6142 0.31867 0.75212 0.0
C972 C 0.60476 0.29561 0.75352 0.0
C973 C 0.57223 0.27378 0.7286 0.0
H974 H 0.57592 0.26655 0.71038 0.0
H975 H 0.574 0.25891 0.74182 0.0
H976 H 0.55352 0.28077 0.72891 0.0
O977 O 0.54743 0.35151 0.71596 0.0
O978 O 0.57386 0.37476 0.73498 0.0
H979 H 0.61851 0.35033 0.77399 0.0
H980 H 0.62425 0.3228 0.78981 0.0
C981 C 0.62631 0.33207 0.77225 0.0
H982 H 0.6458 0.33373 0.76836 0.0
H983 H 0.60929 0.405 0.75835 0.0
O984 O 0.54544 0.30291 0.6867 0.0
C985 C 0.55224 0.36826 0.73094 0.0
Co986 Co 0.93175 0.31831 0.94761 0.0
Co987 Co 0.8976 0.35484 0.97357 0.0
C988 C 0.9013 0.35276 0.91956 0.0
O989 O 0.91661 0.33561 0.919 0.0
O990 O 0.89287 0.36049 0.93929 0.0
C991 C 0.97481 0.29875 0.92258 0.0
O992 O 0.97748 0.31987 0.91227 0.0
C993 C 0.88246 0.40362 0.98642 0.0
C994 C 0.85312 0.39669 0.01238 0.0
C995 C 0.86567 0.41505 1.00099 0.0
N996 N 0.88006 0.37971 0.9893 0.0
N997 N 0.86238 0.37567 0.0047 0.0
C998 C 0.89978 0.41501 0.96914 0.0
H999 H 0.90465 0.40227 0.95461 0.0
H1000 H 0.91658 0.41988 0.97876 0.0
H1001 H 0.89195 0.43163 0.96129 0.0
C1002 C 0.96619 0.34021 0.98298 0.0
N1003 N 0.9452 0.34057 0.97068 0.0
N1004 N 0.93053 0.35587 0.98134 0.0
C1005 C 0.94147 0.36545 1.00072 0.0
C1006 C 0.96457 0.35611 1.00228 0.0
C1007 C 0.98623 0.32286 0.97824 0.0
H1008 H 0.99354 0.32617 0.95997 0.0
H1009 H 1.00107 0.32486 0.99146 0.0
H1010 H 0.97918 0.30417 0.97888 0.0
O1011 O 0.90872 0.29716 0.96595 0.0
O1012 O 0.88564 0.32354 0.9852 0.0
H1013 H 0.9105 0.36989 0.02345 0.0
H1014 H 0.93827 0.37845 0.03762 0.0
C1015 C 0.92825 0.37849 0.02036 0.0
H1016 H 0.92529 0.39743 0.0149 0.0
H1017 H 0.85666 0.35857 0.01 0.0
O1018 O 0.95719 0.29531 0.9368 0.0
C1019 C 0.89212 0.30194 0.98108 0.0
Co1020 Co 0.9374 0.68357 0.19489 0.0
Co1021 Co 0.90181 0.6493 0.22226 0.0
C1022 C 0.90339 0.65131 0.16813 0.0
O1023 O 0.92038 0.6668 0.16696 0.0
O1024 O 0.8959 0.64341 0.18817 0.0
C1025 C 0.9791 0.70687 0.17376 0.0
O1026 O 0.98643 0.68467 0.17017 0.0
C1027 C 0.8534 0.63401 0.23635 0.0
C1028 C 0.86095 0.60501 0.2625 0.0
C1029 C 0.84233 0.61735 0.25135 0.0
N1030 N 0.87739 0.63173 0.23874 0.0
N1031 N 0.8818 0.61425 0.25426 0.0
C1032 C 0.84157 0.65097 0.21905 0.0
H1033 H 0.83633 0.66769 0.22859 0.0
H1034 H 0.82508 0.64271 0.21133 0.0
H1035 H 0.85417 0.65605 0.20445 0.0
C1036 C 0.91407 0.71865 0.22819 0.0
N1037 N 0.9145 0.69701 0.21716 0.0
N1038 N 0.89982 0.68237 0.2287 0.0
C1039 C 0.88999 0.69395 0.24756 0.0
C1040 C 0.8984 0.71748 0.2477 0.0
C1041 C 0.93079 0.73891 0.22224 0.0
H1042 H 0.92974 0.74285 0.20269 0.0
H1043 H 0.92625 0.7554 0.23258 0.0
H1044 H 0.94955 0.73344 0.22645 0.0
O1045 O 0.95946 0.66213 0.21434 0.0
O1046 O 0.93359 0.63886 0.23419 0.0
H1047 H 0.88657 0.66358 0.27132 0.0
H1048 H 0.87891 0.69173 0.28514 0.0
C1049 C 0.87792 0.68127 0.26818 0.0
H1050 H 0.85869 0.67832 0.26381 0.0
H1051 H 0.89903 0.60867 0.25926 0.0
O1052 O 0.95834 0.71036 0.18285 0.0
C1053 C 0.95504 0.6459 0.23001 0.0
Co1054 Co 0.57679 0.68939 0.44661 0.0
Co1055 Co 0.61067 0.65334 0.47382 0.0
C1056 C 0.60827 0.65485 0.41972 0.0
O1057 O 0.59306 0.67207 0.41861 0.0
O1058 O 0.61622 0.6473 0.43973 0.0
C1059 C 0.55321 0.73163 0.4267 0.0
O1060 O 0.5753 0.73972 0.4241 0.0
C1061 C 0.62554 0.60476 0.48763 0.0
C1062 C 0.65408 0.61195 0.51439 0.0
C1063 C 0.64188 0.59348 0.50282 0.0
N1064 N 0.62787 0.62871 0.49033 0.0
N1065 N 0.64506 0.6329 0.50623 0.0
C1066 C 0.60879 0.59321 0.46992 0.0
H1067 H 0.60381 0.60604 0.45551 0.0
H1068 H 0.59196 0.58776 0.47916 0.0
H1069 H 0.61717 0.57691 0.46196 0.0
C1070 C 0.54129 0.66596 0.47952 0.0
N1071 N 0.56312 0.66662 0.46885 0.0
N1072 N 0.57759 0.65178 0.48037 0.0
C1073 C 0.56569 0.64161 0.49886 0.0
C1074 C 0.54215 0.64995 0.49875 0.0
C1075 C 0.521 0.68252 0.47335 0.0
H1076 H 0.51729 0.68141 0.45375 0.0
H1077 H 0.5044 0.67785 0.48348 0.0
H1078 H 0.5263 0.70131 0.47761 0.0
O1079 O 0.59878 0.71121 0.46588 0.0
O1080 O 0.62181 0.68497 0.48544 0.0
H1081 H 0.56727 0.62962 0.53616 0.0
H1082 H 0.58074 0.60977 0.51453 0.0
C1083 C 0.57797 0.62892 0.51933 0.0
H1084 H 0.59573 0.63729 0.5229 0.0
H1085 H 0.65061 0.65005 0.51154 0.0
O1086 O 0.55001 0.71039 0.43472 0.0
C1087 C 0.61517 0.70653 0.48132 0.0
Co1088 Co 0.81118 0.56803 0.6813 0.0
Co1089 Co 0.784 0.60529 0.64884 0.0
C1090 C 0.83813 0.60333 0.65073 0.0
O1091 O 0.83924 0.58571 0.66548 0.0
O1092 O 0.8181 0.61123 0.64318 0.0
C1093 C 0.83773 0.54749 0.72303 0.0
O1094 O 0.84853 0.5684 0.72545 0.0
C1095 C 0.77045 0.65434 0.6349 0.0
C1096 C 0.744 0.64766 0.60593 0.0
C1097 C 0.75555 0.6659 0.61848 0.0
N1098 N 0.76763 0.63044 0.63225 0.0
N1099 N 0.75191 0.62656 0.61481 0.0
C1100 C 0.78808 0.66563 0.65191 0.0
H1101 H 0.77864 0.67137 0.66853 0.0
H1102 H 0.79645 0.68176 0.64357 0.0
H1103 H 0.80216 0.65255 0.65718 0.0
C1104 C 0.77769 0.58988 0.71765 0.0
N1105 N 0.78883 0.5902 0.69602 0.0
N1106 N 0.77762 0.60577 0.68204 0.0
C1107 C 0.75902 0.61554 0.69408 0.0
C1108 C 0.75863 0.6061 0.71719 0.0
C1109 C 0.78314 0.57223 0.73725 0.0
H1110 H 0.80173 0.57534 0.74382 0.0
H1111 H 0.77057 0.57414 0.75267 0.0
H1112 H 0.78205 0.55364 0.73003 0.0
O1113 O 0.79195 0.54733 0.65853 0.0
O1114 O 0.77191 0.57416 0.63671 0.0
H1115 H 0.73506 0.62081 0.66416 0.0
H1116 H 0.722 0.62848 0.6927 0.0
C1117 C 0.73885 0.62888 0.68201 0.0
H1118 H 0.74413 0.64793 0.67943 0.0
H1119 H 0.74662 0.60952 0.60895 0.0
O1120 O 0.82273 0.54451 0.70598 0.0
C1121 C 0.77624 0.55242 0.64258 0.0
Co1122 Co 0.68816 0.55955 0.93119 0.0
Co1123 Co 0.65777 0.53207 0.89227 0.0
C1124 C 0.65366 0.58572 0.89895 0.0
O1125 O 0.66974 0.58714 0.91536 0.0
O1126 O 0.64844 0.56578 0.88916 0.0
C1127 C 0.72667 0.58281 0.95689 0.0
O1128 O 0.73352 0.58883 0.93505 0.0
C1129 C 0.61115 0.51641 0.87416 0.0
C1130 C 0.62084 0.49204 0.84432 0.0
C1131 C 0.60118 0.50164 0.85649 0.0
N1132 N 0.63528 0.51538 0.87242 0.0
N1133 N 0.64098 0.50103 0.85436 0.0
C1134 C 0.59842 0.53025 0.89348 0.0
H1135 H 0.61123 0.5362 0.90758 0.0
H1136 H 0.58408 0.51907 0.90179 0.0
H1137 H 0.59007 0.54653 0.88548 0.0
C1138 C 0.6656 0.52233 0.96237 0.0
N1139 N 0.66691 0.5345 0.94139 0.0
N1140 N 0.65491 0.52247 0.92482 0.0
C1141 C 0.64568 0.50233 0.93465 0.0
C1142 C 0.65194 0.50165 0.95883 0.0
C1143 C 0.67951 0.52887 0.98448 0.0
H1144 H 0.67685 0.54824 0.98856 0.0
H1145 H 0.6738 0.5179 1.00019 0.0
H1146 H 0.69898 0.52591 0.9811 0.0
O1147 O 0.71249 0.54317 0.91018 0.0
O1148 O 0.69123 0.52481 0.88158 0.0
H1149 H 0.64453 0.48051 0.90271 0.0
H1150 H 0.63663 0.46459 0.92984 0.0
C1151 C 0.63516 0.48205 0.92026 0.0
H1152 H 0.61583 0.48572 0.91689 0.0
H1153 H 0.6586 0.49712 0.84913 0.0
O1154 O 0.707 0.57133 0.95957 0.0
C1155 C 0.71133 0.52978 0.89154 0.0
Co1156 Co 0.69763 0.43896 0.18191 0.0
Co1157 Co 0.72364 0.40255 0.14764 0.0
C1158 C 0.66962 0.40465 0.15109 0.0
O1159 O 0.66904 0.42174 0.16648 0.0
O1160 O 0.68936 0.3969 0.14272 0.0
C1161 C 0.67256 0.45801 0.22517 0.0
O1162 O 0.6625 0.43674 0.22767 0.0
C1163 C 0.73664 0.35383 0.13244 0.0
C1164 C 0.76261 0.36087 0.10313 0.0
C1165 C 0.7513 0.34247 0.11567 0.0
N1166 N 0.73941 0.37775 0.13003 0.0
N1167 N 0.75481 0.38185 0.11236 0.0
C1168 C 0.71941 0.34236 0.14974 0.0
H1169 H 0.72901 0.33767 0.1666 0.0
H1170 H 0.71172 0.32563 0.14195 0.0
H1171 H 0.70475 0.355 0.1545 0.0
C1172 C 0.733 0.41698 0.21627 0.0
N1173 N 0.72062 0.41659 0.19531 0.0
N1174 N 0.73131 0.40135 0.18058 0.0
C1175 C 0.75078 0.39189 0.19143 0.0
C1176 C 0.75238 0.40121 0.21454 0.0
C1177 C 0.72829 0.43435 0.23632 0.0
H1178 H 0.71009 0.43093 0.24374 0.0
H1179 H 0.74159 0.43242 0.2511 0.0
H1180 H 0.72881 0.45302 0.22927 0.0
O1181 O 0.71621 0.46022 0.15912 0.0
O1182 O 0.73543 0.43389 0.13595 0.0
H1183 H 0.77347 0.38789 0.16037 0.0
H1184 H 0.78782 0.37931 0.188 0.0
C1185 C 0.77052 0.37914 0.17806 0.0
H1186 H 0.76524 0.36016 0.17499 0.0
H1187 H 0.76005 0.39898 0.10666 0.0
O1188 O 0.68667 0.46177 0.20752 0.0
C1189 C 0.73141 0.45547 0.14256 0.0
Co1190 Co 0.81957 0.44535 0.43088 0.0
Co1191 Co 0.8551 0.4726 0.39641 0.0
C1192 C 0.85396 0.41855 0.39899 0.0
O1193 O 0.83696 0.41741 0.41448 0.0
O1194 O 0.86133 0.43855 0.39089 0.0
C1195 C 0.77798 0.42436 0.4547 0.0
O1196 O 0.77027 0.42085 0.43261 0.0
C1197 C 0.90333 0.48698 0.38072 0.0
C1198 C 0.89534 0.51362 0.35229 0.0
C1199 C 0.91416 0.50235 0.36423 0.0
N1200 N 0.87931 0.4893 0.37874 0.0
N1201 N 0.87464 0.50511 0.3616 0.0
C1202 C 0.91541 0.46949 0.39731 0.0
H1203 H 0.90305 0.45458 0.40203 0.0
H1204 H 0.92045 0.47872 0.41427 0.0
H1205 H 0.93202 0.46221 0.38891 0.0
C1206 C 0.84264 0.47919 0.46573 0.0
N1207 N 0.84222 0.46802 0.44414 0.0
N1208 N 0.85692 0.47947 0.42944 0.0
C1209 C 0.86678 0.49837 0.44095 0.0
C1210 C 0.85835 0.49866 0.46447 0.0
C1211 C 0.82602 0.47328 0.48607 0.0
H1212 H 0.82732 0.4538 0.49024 0.0
H1213 H 0.83044 0.48385 0.50245 0.0
H1214 H 0.8072 0.47717 0.48056 0.0
O1215 O 0.79735 0.46428 0.40909 0.0
O1216 O 0.82324 0.48387 0.38564 0.0
H1217 H 0.87037 0.52215 0.41064 0.0
H1218 H 0.87863 0.5357 0.4388 0.0
C1219 C 0.87914 0.51878 0.42823 0.0
H1220 H 0.89824 0.51403 0.42505 0.0
H1221 H 0.85733 0.51015 0.35632 0.0
O1222 O 0.79883 0.43336 0.45789 0.0
C1223 C 0.80177 0.47967 0.39258 0.0
Co1224 Co 0.81391 0.43782 0.82527 0.0
Co1225 Co 0.7858 0.40628 0.86291 0.0
C1226 C 0.83992 0.40411 0.85818 0.0
O1227 O 0.84145 0.42022 0.84183 0.0
O1228 O 0.8198 0.39828 0.86728 0.0
C1229 C 0.83572 0.4778 0.80046 0.0
O1230 O 0.84025 0.48519 0.82247 0.0
C1231 C 0.76935 0.35873 0.87776 0.0
C1232 C 0.74534 0.3666 0.90846 0.0
C1233 C 0.75443 0.34791 0.89463 0.0
N1234 N 0.76885 0.38268 0.88126 0.0
N1235 N 0.75462 0.38728 0.89977 0.0
C1236 C 0.78481 0.34654 0.85932 0.0
H1237 H 0.77406 0.34274 0.84294 0.0
H1238 H 0.79172 0.32918 0.86641 0.0
H1239 H 0.80003 0.35829 0.85399 0.0
C1240 C 0.779 0.4141 0.79245 0.0
N1241 N 0.79015 0.41575 0.81397 0.0
N1242 N 0.77761 0.40358 0.83002 0.0
C1243 C 0.75794 0.39421 0.81938 0.0
C1244 C 0.75838 0.40019 0.79514 0.0
C1245 C 0.78618 0.42814 0.77062 0.0
H1246 H 0.80581 0.42615 0.76753 0.0
H1247 H 0.7762 0.42199 0.75442 0.0
H1248 H 0.78234 0.4475 0.77373 0.0
O1249 O 0.79603 0.46131 0.84611 0.0
O1250 O 0.77713 0.43932 0.8738 0.0
H1251 H 0.71949 0.38832 0.82322 0.0
H1252 H 0.73828 0.36498 0.83516 0.0
C1253 C 0.73656 0.38473 0.83296 0.0
H1254 H 0.73541 0.39323 0.85096 0.0
H1255 H 0.7511 0.40452 0.90634 0.0
O1256 O 0.82582 0.45734 0.79745 0.0
C1257 C 0.78204 0.45963 0.86427 0.0
Co1258 Co 0.81786 0.56155 0.07618 0.0
Co1259 Co 0.85506 0.53483 0.10904 0.0
C1260 C 0.85307 0.58893 0.10651 0.0
O1261 O 0.83541 0.58988 0.09176 0.0
O1262 O 0.86099 0.56898 0.11423 0.0
C1263 C 0.79634 0.58754 0.03433 0.0
O1264 O 0.81667 0.59941 0.03194 0.0
C1265 C 0.90406 0.52098 0.1226 0.0
C1266 C 0.89748 0.49558 0.15252 0.0
C1267 C 0.91564 0.50637 0.13921 0.0
N1268 N 0.88017 0.51873 0.12584 0.0
N1269 N 0.87635 0.50365 0.14384 0.0
C1270 C 0.91538 0.53788 0.1049 0.0
H1271 H 0.90236 0.55189 0.09923 0.0
H1272 H 0.92101 0.52782 0.08862 0.0
H1273 H 0.93163 0.54639 0.11286 0.0
C1274 C 0.84004 0.52792 0.04018 0.0
N1275 N 0.84018 0.53916 0.06176 0.0
N1276 N 0.85556 0.52796 0.07596 0.0
C1277 C 0.86529 0.50919 0.06417 0.0
C1278 C 0.85613 0.50876 0.04095 0.0
C1279 C 0.82275 0.53347 0.02029 0.0
H1280 H 0.80402 0.53181 0.02706 0.0
H1281 H 0.8256 0.55226 0.01423 0.0
H1282 H 0.82528 0.52128 0.00466 0.0
O1283 O 0.79721 0.54241 0.09907 0.0
O1284 O 0.82404 0.52282 0.1213 0.0
H1285 H 0.87051 0.48592 0.09467 0.0
H1286 H 0.8768 0.47179 0.06633 0.0
C1287 C 0.87819 0.4889 0.07651 0.0
H1288 H 0.89752 0.49347 0.07834 0.0
H1289 H 0.85932 0.49886 0.1502 0.0
O1290 O 0.79413 0.57235 0.05132 0.0
C1291 C 0.80232 0.52693 0.11524 0.0
Co1292 Co 0.69632 0.56852 0.327 0.0
Co1293 Co 0.72353 0.60424 0.36118 0.0
C1294 C 0.66947 0.60316 0.35843 0.0
O1295 O 0.66833 0.58599 0.34316 0.0
O1296 O 0.68948 0.61055 0.36653 0.0
C1297 C 0.67557 0.52673 0.30349 0.0
O1298 O 0.67221 0.51906 0.32562 0.0
C1299 C 0.73767 0.65259 0.37635 0.0
C1300 C 0.76414 0.64509 0.40508 0.0
C1301 C 0.75284 0.66369 0.39284 0.0
N1302 N 0.74012 0.62863 0.37862 0.0
N1303 N 0.75584 0.62424 0.39593 0.0
C1304 C 0.7202 0.66436 0.3595 0.0
H1305 H 0.70564 0.65171 0.35446 0.0
H1306 H 0.72961 0.66966 0.34272 0.0
H1307 H 0.71244 0.68078 0.36784 0.0
C1308 C 0.72987 0.59162 0.29186 0.0
N1309 N 0.71891 0.5911 0.31356 0.0
N1310 N 0.73041 0.60583 0.32816 0.0
C1311 C 0.74915 0.61582 0.3165 0.0
C1312 C 0.74925 0.60745 0.29296 0.0
C1313 C 0.7238 0.57506 0.27151 0.0
H1314 H 0.70425 0.5763 0.26758 0.0
H1315 H 0.73417 0.57961 0.25504 0.0
H1316 H 0.72784 0.55625 0.2769 0.0
O1317 O 0.71526 0.54647 0.34897 0.0
O1318 O 0.73477 0.57251 0.3723 0.0
H1319 H 0.77295 0.61988 0.34676 0.0
H1320 H 0.78651 0.62759 0.31845 0.0
C1321 C 0.76959 0.62834 0.32901 0.0
H1322 H 0.76489 0.64751 0.33184 0.0
H1323 H 0.76094 0.60703 0.40145 0.0
O1324 O 0.68438 0.54763 0.30018 0.0
C1325 C 0.73061 0.551 0.36549 0.0
Co1326 Co 0.68971 0.44588 0.57612 0.0
Co1327 Co 0.65279 0.47237 0.60953 0.0
C1328 C 0.65508 0.41833 0.60717 0.0
O1329 O 0.6724 0.4175 0.59202 0.0
O1330 O 0.64721 0.43821 0.61508 0.0
C1331 C 0.70934 0.42049 0.53318 0.0
O1332 O 0.68816 0.41026 0.53059 0.0
C1333 C 0.60397 0.48557 0.62456 0.0
C1334 C 0.61112 0.51249 0.65297 0.0
C1335 C 0.59268 0.50071 0.64094 0.0
N1336 N 0.62792 0.48851 0.62671 0.0
N1337 N 0.63208 0.50448 0.64384 0.0
C1338 C 0.59243 0.46775 0.60792 0.0
H1339 H 0.58718 0.47686 0.59096 0.0
H1340 H 0.576 0.45999 0.61627 0.0
H1341 H 0.60522 0.45321 0.60322 0.0
C1342 C 0.66739 0.48006 0.54073 0.0
N1343 N 0.6672 0.46833 0.56205 0.0
N1344 N 0.6517 0.47915 0.57641 0.0
C1345 C 0.64182 0.49804 0.56494 0.0
C1346 C 0.65115 0.49908 0.5418 0.0
C1347 C 0.68501 0.47526 0.52092 0.0
H1348 H 0.70361 0.47586 0.52817 0.0
H1349 H 0.68168 0.45703 0.51355 0.0
H1350 H 0.68324 0.48846 0.50603 0.0
O1351 O 0.71071 0.46514 0.59868 0.0
O1352 O 0.68399 0.48463 0.62114 0.0
H1353 H 0.6373 0.52168 0.5952 0.0
H1354 H 0.62834 0.53485 0.5671 0.0
C1355 C 0.62861 0.51791 0.57764 0.0
H1356 H 0.60976 0.5123 0.58091 0.0
H1357 H 0.64923 0.50996 0.64925 0.0
O1358 O 0.71286 0.43469 0.55081 0.0
C1359 C 0.70567 0.48067 0.61483 0.0
Co1360 Co 0.68172 0.81218 0.56982 0.0
Co1361 Co 0.64732 0.7852 0.60576 0.0
C1362 C 0.64982 0.83927 0.60401 0.0
O1363 O 0.66524 0.84023 0.58694 0.0
O1364 O 0.64178 0.81933 0.61166 0.0
C1365 C 0.70581 0.83281 0.52804 0.0
O1366 O 0.6838 0.83631 0.52011 0.0
C1367 C 0.63191 0.77103 0.65422 0.0
C1368 C 0.60375 0.74401 0.64649 0.0
C1369 C 0.61568 0.75547 0.6652 0.0
N1370 N 0.6298 0.76861 0.6302 0.0
N1371 N 0.61281 0.75257 0.6257 0.0
C1372 C 0.64839 0.78875 0.66613 0.0
H1373 H 0.65282 0.8037 0.65371 0.0
H1374 H 0.6655 0.77975 0.67105 0.0
H1375 H 0.64004 0.79596 0.6828 0.0
C1376 C 0.71669 0.77887 0.59335 0.0
N1377 N 0.69502 0.78986 0.59274 0.0
N1378 N 0.68037 0.77848 0.60754 0.0
C1379 C 0.69199 0.75978 0.61763 0.0
C1380 C 0.71553 0.75958 0.60927 0.0
C1381 C 0.73704 0.78474 0.57672 0.0
H1382 H 0.74109 0.80427 0.57786 0.0
H1383 H 0.75347 0.77434 0.58131 0.0
H1384 H 0.73161 0.78061 0.55794 0.0
O1385 O 0.65984 0.79299 0.54784 0.0
O1386 O 0.63646 0.77362 0.57398 0.0
H1387 H 0.66175 0.7359 0.62143 0.0
H1388 H 0.68997 0.72249 0.62963 0.0
C1389 C 0.67937 0.73938 0.63012 0.0
H1390 H 0.67627 0.7442 0.64922 0.0
H1391 H 0.6075 0.74737 0.60844 0.0
O1392 O 0.70879 0.82398 0.54899 0.0
C1393 C 0.64332 0.77765 0.55244 0.0
Co1394 Co 0.18047 0.69633 0.44036 0.0
Co1395 Co 0.14771 0.72359 0.40357 0.0
C1396 C 0.14962 0.66949 0.40514 0.0
O1397 O 0.16461 0.66828 0.42257 0.0
O1398 O 0.14189 0.68955 0.39756 0.0
C1399 C 0.22277 0.67011 0.46009 0.0
O1400 O 0.22529 0.65987 0.43891 0.0
C1401 C 0.13337 0.73702 0.3547 0.0
C1402 C 0.1048 0.76383 0.3615 0.0
C1403 C 0.11705 0.75206 0.34321 0.0
N1404 N 0.13097 0.73999 0.37861 0.0
N1405 N 0.11376 0.75592 0.38257 0.0
C1406 C 0.15015 0.71921 0.34339 0.0
H1407 H 0.15523 0.70504 0.35645 0.0
H1408 H 0.16693 0.72844 0.33774 0.0
H1409 H 0.14174 0.71097 0.32723 0.0
C1410 C 0.21662 0.73002 0.41836 0.0
N1411 N 0.19503 0.71877 0.41815 0.0
N1412 N 0.1809 0.72997 0.40272 0.0
C1413 C 0.19279 0.74864 0.39289 0.0
C1414 C 0.21596 0.74912 0.40217 0.0
C1415 C 0.23638 0.72465 0.43587 0.0
H1416 H 0.24329 0.70627 0.43242 0.0
H1417 H 0.25156 0.73752 0.43412 0.0
H1418 H 0.2292 0.72529 0.45451 0.0
O1419 O 0.15798 0.71564 0.46141 0.0
O1420 O 0.13598 0.73574 0.43476 0.0
H1421 H 0.16288 0.77268 0.38811 0.0
H1422 H 0.19131 0.78561 0.3798 0.0
C1423 C 0.18054 0.76881 0.3797 0.0
H1424 H 0.17755 0.76346 0.36072 0.0
H1425 H 0.10813 0.76136 0.39965 0.0
O1426 O 0.20542 0.68464 0.46354 0.0
C1427 C 0.14209 0.73145 0.45644 0.0
Co1428 Co 0.56204 0.93374 0.68898 0.0
Co1429 Co 0.53446 0.89588 0.65721 0.0
C1430 C 0.58854 0.90075 0.6556 0.0
O1431 O 0.58984 0.91726 0.67158 0.0
O1432 O 0.56854 0.89149 0.64968 0.0
C1433 C 0.5836 0.95924 0.72889 0.0
O1434 O 0.58833 0.9374 0.73663 0.0
C1435 C 0.5191 0.88004 0.60961 0.0
C1436 C 0.49394 0.85032 0.6177 0.0
C1437 C 0.50399 0.86327 0.59883 0.0
N1438 N 0.51775 0.87731 0.63363 0.0
N1439 N 0.50283 0.85939 0.63837 0.0
C1440 C 0.53541 0.89776 0.59743 0.0
H1441 H 0.52531 0.91448 0.59337 0.0
H1442 H 0.5424 0.89025 0.58027 0.0
H1443 H 0.5506 0.90273 0.60934 0.0
C1444 C 0.52725 0.96629 0.66474 0.0
N1445 N 0.53845 0.94484 0.66662 0.0
N1446 N 0.52623 0.92872 0.65422 0.0
C1447 C 0.50674 0.93927 0.6444 0.0
C1448 C 0.50693 0.9635 0.65041 0.0
C1449 C 0.5341 0.98817 0.67885 0.0
H1450 H 0.55372 0.99146 0.677 0.0
H1451 H 0.52404 0.00428 0.67263 0.0
H1452 H 0.53013 0.98502 0.69818 0.0
O1453 O 0.54405 0.91281 0.71242 0.0
O1454 O 0.52555 0.88506 0.69016 0.0
H1455 H 0.46861 0.93555 0.63652 0.0
H1456 H 0.4886 0.92263 0.6147 0.0
C1457 C 0.48576 0.92559 0.63423 0.0
H1458 H 0.48399 0.9079 0.64328 0.0
H1459 H 0.49859 0.85348 0.6557 0.0
O1460 O 0.57367 0.96183 0.70839 0.0
C1461 C 0.53021 0.89454 0.71055 0.0
Co1462 Co 0.32645 0.3122 0.93893 0.0
Co1463 Co 0.36155 0.28475 0.90439 0.0
C1464 C 0.35885 0.33876 0.90486 0.0
O1465 O 0.34333 0.33998 0.92182 0.0
O1466 O 0.36693 0.3187 0.89763 0.0
C1467 C 0.30222 0.33392 0.97964 0.0
O1468 O 0.32426 0.33762 0.98741 0.0
C1469 C 0.37887 0.26971 0.85694 0.0
C1470 C 0.40775 0.24416 0.86648 0.0
C1471 C 0.39614 0.25449 0.84686 0.0
N1472 N 0.38031 0.2681 0.88106 0.0
N1473 N 0.39779 0.25304 0.88666 0.0
C1474 C 0.36046 0.2849 0.84442 0.0
H1475 H 0.34697 0.29181 0.85743 0.0
H1476 H 0.35118 0.2743 0.83025 0.0
H1477 H 0.36949 0.30056 0.83593 0.0
C1478 C 0.29193 0.27847 0.91524 0.0
N1479 N 0.31359 0.28947 0.91611 0.0
N1480 N 0.32855 0.27785 0.90183 0.0
C1481 C 0.31709 0.25905 0.89171 0.0
C1482 C 0.29338 0.25895 0.89962 0.0
C1483 C 0.27127 0.2846 0.93138 0.0
H1484 H 0.26732 0.30411 0.92992 0.0
H1485 H 0.2549 0.27416 0.92661 0.0
H1486 H 0.27632 0.28072 0.95032 0.0
O1487 O 0.34741 0.29325 0.96183 0.0
O1488 O 0.37141 0.27355 0.9366 0.0
H1489 H 0.31941 0.22171 0.88006 0.0
H1490 H 0.33271 0.24346 0.86015 0.0
C1491 C 0.32985 0.23872 0.87933 0.0
H1492 H 0.3476 0.23556 0.88786 0.0
H1493 H 0.40274 0.24863 0.90424 0.0
O1494 O 0.29916 0.32449 0.95897 0.0
C1495 C 0.3639 0.27777 0.95786 0.0
Co1496 Co 0.4461 0.5755 0.689 0.0
Co1497 Co 0.47276 0.60865 0.65202 0.0
C1498 C 0.41867 0.60623 0.65434 0.0
O1499 O 0.41781 0.59123 0.67177 0.0
O1500 O 0.43857 0.61408 0.64639 0.0
C1501 C 0.42032 0.53312 0.7093 0.0
O1502 O 0.40965 0.53037 0.68836 0.0
C1503 C 0.48608 0.62339 0.60312 0.0
C1504 C 0.51237 0.65241 0.61017 0.0
C1505 C 0.5009 0.64002 0.59178 0.0
N1506 N 0.48887 0.62575 0.62706 0.0
N1507 N 0.50449 0.64323 0.63116 0.0
C1508 C 0.46856 0.60641 0.59161 0.0
H1509 H 0.45427 0.6012 0.60452 0.0
H1510 H 0.47803 0.58976 0.58603 0.0
H1511 H 0.46044 0.61473 0.57535 0.0
C1512 C 0.47981 0.53977 0.66656 0.0
N1513 N 0.46844 0.56127 0.66651 0.0
N1514 N 0.47947 0.57554 0.65107 0.0
C1515 C 0.49818 0.56384 0.64112 0.0
C1516 C 0.49885 0.54065 0.6503 0.0
C1517 C 0.47461 0.5199 0.684 0.0
H1518 H 0.45613 0.5131 0.6808 0.0
H1519 H 0.48737 0.50469 0.68192 0.0
H1520 H 0.4756 0.52693 0.70268 0.0
O1521 O 0.46527 0.59814 0.70988 0.0
O1522 O 0.48495 0.62048 0.68319 0.0
H1523 H 0.53518 0.56579 0.62814 0.0
H1524 H 0.5129 0.57907 0.60888 0.0
C1525 C 0.51822 0.5763 0.6279 0.0
H1526 H 0.52183 0.59408 0.63619 0.0
H1527 H 0.50976 0.64889 0.64828 0.0
O1528 O 0.4349 0.55052 0.71231 0.0
C1529 C 0.48082 0.61428 0.70488 0.0
Co1530 Co 0.82606 0.19575 0.06771 0.0
Co1531 Co 0.85945 0.22241 0.10443 0.0
C1532 C 0.85664 0.16836 0.10261 0.0
O1533 O 0.8417 0.16746 0.08511 0.0
O1534 O 0.86456 0.18826 0.11049 0.0
C1535 C 0.78385 0.1698 0.04688 0.0
O1536 O 0.78139 0.15826 0.06739 0.0
C1537 C 0.87437 0.23697 0.15295 0.0
C1538 C 0.90378 0.2626 0.14503 0.0
C1539 C 0.89118 0.25197 0.16376 0.0
N1540 N 0.87683 0.23885 0.12894 0.0
N1541 N 0.89455 0.25406 0.12433 0.0
C1542 C 0.85721 0.22008 0.1651 0.0
H1543 H 0.85147 0.20565 0.15256 0.0
H1544 H 0.84091 0.23002 0.17088 0.0
H1545 H 0.86568 0.21211 0.18136 0.0
C1546 C 0.79047 0.22959 0.09016 0.0
N1547 N 0.81199 0.21826 0.09013 0.0
N1548 N 0.82639 0.22943 0.10535 0.0
C1549 C 0.81477 0.24827 0.11517 0.0
C1550 C 0.79148 0.24879 0.1062 0.0
C1551 C 0.77041 0.22409 0.07304 0.0
H1552 H 0.76418 0.20538 0.07607 0.0
H1553 H 0.75491 0.23642 0.07559 0.0
H1554 H 0.77705 0.22553 0.05425 0.0
O1555 O 0.84867 0.21471 0.04663 0.0
O1556 O 0.87127 0.2342 0.07322 0.0
H1557 H 0.81707 0.28559 0.12698 0.0
H1558 H 0.82961 0.26378 0.14721 0.0
C1559 C 0.82732 0.26851 0.12798 0.0
H1560 H 0.84531 0.27162 0.11993 0.0
H1561 H 0.90029 0.25866 0.10704 0.0
O1562 O 0.80097 0.1848 0.04439 0.0
C1563 C 0.86495 0.23012 0.05157 0.0
Co1564 Co 0.55987 0.08019 0.81729 0.0
Co1565 Co 0.53305 0.11316 0.8545 0.0
C1566 C 0.58719 0.11087 0.85231 0.0
O1567 O 0.5881 0.09592 0.83483 0.0
O1568 O 0.56727 0.11864 0.86026 0.0
C1569 C 0.58606 0.03806 0.79711 0.0
O1570 O 0.59699 0.03597 0.81799 0.0
C1571 C 0.51946 0.1276 0.90354 0.0
C1572 C 0.49246 0.15594 0.89654 0.0
C1573 C 0.50417 0.14379 0.91494 0.0
N1574 N 0.51667 0.12997 0.87958 0.0
N1575 N 0.50063 0.14706 0.87553 0.0
C1576 C 0.53733 0.11099 0.91501 0.0
H1577 H 0.55186 0.10635 0.90217 0.0
H1578 H 0.52825 0.09402 0.92029 0.0
H1579 H 0.5451 0.11934 0.93143 0.0
C1580 C 0.52619 0.04426 0.83957 0.0
N1581 N 0.53745 0.06584 0.83965 0.0
N1582 N 0.52638 0.08 0.85517 0.0
C1583 C 0.50776 0.06812 0.86514 0.0
C1584 C 0.50721 0.04495 0.85589 0.0
C1585 C 0.53154 0.02444 0.82213 0.0
H1586 H 0.55009 0.01783 0.82529 0.0
H1587 H 0.5189 0.0091 0.82425 0.0
H1588 H 0.53045 0.03144 0.80345 0.0
O1589 O 0.54077 0.10297 0.7965 0.0
O1590 O 0.52104 0.12516 0.82328 0.0
H1591 H 0.48386 0.09807 0.87034 0.0
H1592 H 0.47091 0.06961 0.87854 0.0
C1593 C 0.48775 0.08033 0.87859 0.0
H1594 H 0.49326 0.08316 0.89754 0.0
H1595 H 0.49522 0.15262 0.85842 0.0
O1596 O 0.57113 0.05513 0.79394 0.0
C1597 C 0.52523 0.11911 0.80155 0.0
Co1598 Co 0.94678 0.93006 0.31814 0.0
Co1599 Co 0.97374 0.89749 0.35537 0.0
C1600 C 0.91957 0.89963 0.35343 0.0
O1601 O 0.91851 0.91442 0.33582 0.0
O1602 O 0.93957 0.89194 0.36125 0.0
C1603 C 0.91965 0.97101 0.29612 0.0
O1604 O 0.9069 0.97271 0.31598 0.0
C1605 C 0.98715 0.8833 0.40437 0.0
C1606 C 0.01371 0.8545 0.39758 0.0
C1607 C 1.00207 0.86688 0.41587 0.0
N1608 N 0.99004 0.8808 0.38045 0.0
N1609 N 0.00583 0.86347 0.37651 0.0
C1610 C 0.96946 0.90021 0.41567 0.0
H1611 H 0.95535 0.90541 0.40258 0.0
H1612 H 0.97883 0.91689 0.42135 0.0
H1613 H 0.96113 0.89186 0.43181 0.0
C1614 C 0.98027 0.96626 0.34013 0.0
N1615 N 0.96907 0.94467 0.34043 0.0
N1616 N 0.98025 0.93065 0.35597 0.0
C1617 C 0.99891 0.9426 0.36575 0.0
C1618 C 0.99939 0.96572 0.35632 0.0
C1619 C 0.97478 0.98588 0.32252 0.0
H1620 H 0.95578 0.99154 0.32476 0.0
H1621 H 0.98662 1.00175 0.32524 0.0
H1622 H 0.97707 0.97897 0.30391 0.0
O1623 O 0.96612 0.90735 0.29747 0.0
O1624 O 0.98602 0.88547 0.32433 0.0
H1625 H 0.0359 0.94112 0.37881 0.0
H1626 H 0.01367 0.92775 0.39811 0.0
C1627 C 0.01903 0.93045 0.37909 0.0
H1628 H 0.0228 0.91264 0.37093 0.0
H1629 H 0.0112 0.85775 0.35944 0.0
O1630 O 0.93573 0.95481 0.29443 0.0
C1631 C 0.98186 0.89145 0.30259 0.0
C1632 C 0.01967 0.10938 0.26047 0.0
C1633 C 0.02465 0.13376 0.26483 0.0
H1634 H 0.99943 0.08379 0.23977 0.0
C1635 C 0.0115 0.15138 0.25223 0.0
H1636 H 0.02975 0.09548 0.26971 0.0
C1637 C 0.99485 0.14473 0.23443 0.0
C1638 C 0.99034 0.12035 0.22963 0.0
H1639 H 0.01531 0.17032 0.25494 0.0
H1640 H 0.98606 0.15862 0.22393 0.0
C1641 C 1.0023 0.10274 0.24338 0.0
C1642 C 0.13139 0.74216 0.4996 0.0
C1643 C 0.13433 0.74875 0.47529 0.0
H1644 H 0.12245 0.7541 0.53548 0.0
C1645 C 0.13177 0.77309 0.46891 0.0
H1646 H 0.13352 0.72357 0.50506 0.0
C1647 C 0.1266 0.79046 0.48625 0.0
C1648 C 0.12313 0.78402 0.51046 0.0
H1649 H 0.13434 0.7789 0.45045 0.0
H1650 H 0.12468 0.809 0.48047 0.0
C1651 C 0.12528 0.75961 0.51698 0.0
C1652 C 0.51184 0.86251 0.73658 0.0
C1653 C 0.51575 0.88698 0.73163 0.0
H1654 H 0.49166 0.83652 0.75683 0.0
C1655 C 0.50286 0.90435 0.74482 0.0
H1656 H 0.52133 0.8488 0.72647 0.0
C1657 C 0.48524 0.89736 0.7615 0.0
C1658 C 0.48089 0.87288 0.76601 0.0
H1659 H 0.50526 0.92334 0.74105 0.0
H1660 H 0.47452 0.91104 0.77034 0.0
C1661 C 0.49492 0.85554 0.75397 0.0
C1662 C 0.37571 0.2183 0.98824 0.0
C1663 C 0.38139 0.22487 0.01201 0.0
H1664 H 0.36663 0.22989 0.95275 0.0
C1665 C 0.38117 0.24949 0.01819 0.0
H1666 H 0.37601 0.1996 0.98267 0.0
C1667 C 0.3752 0.26706 1.00087 0.0
C1668 C 0.37045 0.26028 0.97692 0.0
H1669 H 0.38566 0.25511 0.03632 0.0
H1670 H 0.37486 0.28587 0.006 0.0
C1671 C 0.37067 0.23573 0.97094 0.0
C1672 C 0.01032 0.87512 0.2421 0.0
C1673 C 0.03467 0.87267 0.24877 0.0
H1674 H 0.97426 0.88351 0.25387 0.0
C1675 C 0.04096 0.87563 0.27309 0.0
H1676 H 0.00493 0.87266 0.22351 0.0
C1677 C 0.02349 0.88066 0.29038 0.0
C1678 C 0.99922 0.88358 0.28385 0.0
H1679 H 0.05944 0.87345 0.27896 0.0
H1680 H 0.02918 0.88289 0.30892 0.0
C1681 C 0.99279 0.88108 0.25945 0.0
C1682 C 0.37536 0.73976 0.50931 0.0
C1683 C 0.36969 0.7466 0.53304 0.0
H1684 H 0.38687 0.7517 0.47417 0.0
C1685 C 0.36933 0.77116 0.5389 0.0
H1686 H 0.37548 0.72092 0.5043 0.0
C1687 C 0.37471 0.78857 0.5217 0.0
C1688 C 0.38131 0.78198 0.49817 0.0
H1689 H 0.36458 0.77703 0.55691 0.0
H1690 H 0.37454 0.80729 0.5272 0.0
C1691 C 0.38166 0.75734 0.4921 0.0
C1692 C 0.49759 0.1355 0.74067 0.0
C1693 C 0.47334 0.1389 0.74722 0.0
H1694 H 0.53328 0.12602 0.75273 0.0
C1695 C 0.4669 0.13679 0.7716 0.0
H1696 H 0.50308 0.1373 0.72205 0.0
C1697 C 0.48412 0.13149 0.78905 0.0
C1698 C 0.50826 0.12744 0.78265 0.0
H1699 H 0.44848 0.13975 0.77734 0.0
H1700 H 0.47829 0.12987 0.80761 0.0
C1701 C 0.51485 0.12927 0.75821 0.0
C1702 C 0.12502 0.24926 0.9905 0.0
C1703 C 0.12206 0.22506 0.99744 0.0
H1704 H 0.13414 0.28526 1.00198 0.0
C1705 C 0.12459 0.219 0.02186 0.0
H1706 H 0.12289 0.25444 0.97182 0.0
C1707 C 0.12983 0.23652 0.03898 0.0
C1708 C 0.13342 0.26062 0.03222 0.0
H1709 H 0.12198 0.20063 0.02791 0.0
H1710 H 0.13177 0.23094 0.05759 0.0
C1711 C 0.13123 0.26685 0.00773 0.0
C1712 C 0.23602 0.04054 0.13137 0.0
C1713 C 0.26021 0.03414 0.13498 0.0
H1714 H 0.20029 0.02889 0.12345 0.0
C1715 C 0.2668 0.00975 0.13276 0.0
H1716 H 0.23019 0.05905 0.13335 0.0
C1717 C 0.24948 0.99227 0.12655 0.0
C1718 C 0.22518 0.99881 0.12356 0.0
H1719 H 0.28528 0.00427 0.13572 0.0
H1720 H 0.25498 0.97369 0.12443 0.0
C1721 C 0.21875 0.02313 0.12608 0.0
C1722 C 0.21912 0.98498 0.384 0.0
C1723 C 0.22529 0.00938 0.38633 0.0
H1724 H 0.23087 0.94918 0.37682 0.0
C1725 C 0.24948 0.01624 0.38295 0.0
H1726 H 0.20075 0.97901 0.38688 0.0
C1727 C 0.26694 0.99894 0.37656 0.0
C1728 C 0.26059 0.97446 0.37458 0.0
H1729 H 0.25476 0.03491 0.38486 0.0
H1730 H 0.28532 0.00463 0.37337 0.0
C1731 C 0.23651 0.96778 0.37856 0.0
C1732 C 0.25796 0.01684 0.62719 0.0
C1733 C 0.28248 0.01066 0.62517 0.0
H1734 H 0.22202 0.0044 0.6354 0.0
C1735 C 0.28926 0.9866 0.62897 0.0
H1736 H 0.25219 0.03521 0.62412 0.0
C1737 C 0.27213 0.96907 0.63424 0.0
C1738 C 0.24769 0.97508 0.63657 0.0
H1739 H 0.30789 0.98106 0.62718 0.0
H1740 H 0.27818 0.95073 0.637 0.0
C1741 C 0.24073 0.99924 0.63342 0.0
C1742 C 0.24167 0.00861 0.87774 0.0
C1743 C 0.24788 0.0332 0.87673 0.0
H1744 H 0.25384 0.97244 0.88512 0.0
C1745 C 0.27171 0.03992 0.88199 0.0
H1746 H 0.22349 1.00288 0.87358 0.0
C1747 C 0.28903 0.02264 0.88747 0.0
C1748 C 0.28299 0.99812 0.88854 0.0
H1749 H 0.2773 0.05859 0.88108 0.0
H1750 H 0.30724 0.02861 0.89121 0.0
C1751 C 0.25901 0.99122 0.88414 0.0
C1752 C 0.60366 0.26372 0.00454 0.0
C1753 C 0.62132 0.27678 0.01722 0.0
H1754 H 0.59638 0.2385 0.97607 0.0
C1755 C 0.6457 0.27182 0.01286 0.0
H1756 H 0.58472 0.26753 0.00727 0.0
C1757 C 0.65231 0.25456 0.99567 0.0
C1758 C 0.63468 0.24271 0.98183 0.0
H1759 H 0.65962 0.28184 0.02217 0.0
H1760 H 0.67127 0.25172 0.99204 0.0
C1761 C 0.61029 0.24719 0.98666 0.0
C1762 C 0.01259 0.36441 0.23481 0.0
C1763 C 0.01599 0.3888 0.22924 0.0
H1764 H 0.99289 0.33853 0.25565 0.0
C1765 C 1.00254 0.40623 0.24177 0.0
H1766 H 0.02252 0.35065 0.2252 0.0
C1767 C 0.98493 0.39931 0.25851 0.0
C1768 C 0.98117 0.37487 0.26372 0.0
H1769 H 0.00456 0.42516 0.23749 0.0
H1770 H 0.97383 0.41298 0.26688 0.0
C1771 C 0.99569 0.35754 0.25226 0.0
C1772 C 0.88359 0.74842 0.51662 0.0
C1773 C 0.88721 0.72429 0.5098 0.0
H1774 H 0.8738 0.78416 0.50494 0.0
C1775 C 0.8853 0.71815 0.48534 0.0
H1776 H 0.88522 0.75369 0.53533 0.0
C1777 C 0.87991 0.73552 0.46807 0.0
C1778 C 0.87558 0.75953 0.47473 0.0
H1779 H 0.88841 0.69982 0.4794 0.0
H1780 H 0.87841 0.72988 0.44945 0.0
C1781 C 0.87727 0.76584 0.49926 0.0
C1782 C 0.01556 0.62885 0.25806 0.0
C1783 C 0.00923 0.62748 0.2826 0.0
H1784 H 1.00344 0.63636 0.22187 0.0
C1785 C 0.98524 0.63204 0.2892 0.0
H1786 H 0.03387 0.62521 0.25241 0.0
C1787 C 0.96789 0.63726 0.27186 0.0
C1788 C 0.97404 0.63878 0.24738 0.0
H1789 H 0.97958 0.63079 0.30784 0.0
H1790 H 0.94957 0.64052 0.27775 0.0
C1791 C 0.99817 0.63501 0.24061 0.0
C1792 C 0.49139 0.38349 0.75929 0.0
C1793 C 0.49823 0.38711 0.78343 0.0
H1794 H 0.50315 0.37412 0.72345 0.0
C1795 C 0.52272 0.38562 0.78952 0.0
H1796 H 0.47265 0.38486 0.75407 0.0
C1797 C 0.54002 0.38069 0.77207 0.0
C1798 C 0.53337 0.37641 0.74803 0.0
H1799 H 0.52866 0.3888 0.80784 0.0
H1800 H 0.55869 0.37951 0.77766 0.0
C1801 C 0.50881 0.3776 0.74179 0.0
C1802 C 0.49134 0.62457 0.74812 0.0
C1803 C 0.49795 0.62235 0.72374 0.0
H1804 H 0.50316 0.63288 0.78419 0.0
C1805 C 0.52218 0.62579 0.71734 0.0
H1806 H 0.47282 0.62176 0.75359 0.0
C1807 C 0.53947 0.63099 0.73476 0.0
C1808 C 0.533 0.63361 0.75907 0.0
H1809 H 0.528 0.62382 0.69882 0.0
H1810 H 0.55795 0.63355 0.72902 0.0
C1811 C 0.50867 0.6307 0.76561 0.0
C1812 C 0.87595 0.24101 0.00859 0.0
C1813 C 0.87271 0.24751 0.03287 0.0
H1814 H 0.8852 0.25317 0.97286 0.0
C1815 C 0.87494 0.27184 0.03938 0.0
H1816 H 0.87405 0.22241 1.00305 0.0
C1817 C 0.88011 0.28932 0.02218 0.0
C1818 C 0.88392 0.28297 0.998 0.0
H1819 H 0.8721 0.27754 0.05783 0.0
H1820 H 0.88181 0.30785 0.02805 0.0
C1821 C 0.88208 0.25858 0.99134 0.0
C1822 C 0.62594 0.74979 0.49183 0.0
C1823 C 0.62318 0.72546 0.49844 0.0
H1824 H 0.63516 0.78567 0.50368 0.0
C1825 C 0.6265 0.71902 0.52267 0.0
H1826 H 0.62328 0.75529 0.47331 0.0
C1827 C 0.63217 0.73628 0.53994 0.0
C1828 C 0.63539 0.76052 0.5335 0.0
H1829 H 0.62414 0.70054 0.5285 0.0
H1830 H 0.63458 0.73045 0.55841 0.0
C1831 C 0.63257 0.76714 0.50918 0.0
C1832 C 0.71778 0.52231 0.62555 0.0
C1833 C 0.72437 0.49806 0.62272 0.0
H1834 H 0.72903 0.55825 0.63306 0.0
C1835 C 0.74873 0.49166 0.62557 0.0
H1836 H 0.69927 0.52796 0.62306 0.0
C1837 C 0.76597 0.50921 0.63187 0.0
C1838 C 0.75922 0.53353 0.63432 0.0
H1839 H 0.75435 0.47315 0.62323 0.0
H1840 H 0.78451 0.50384 0.63463 0.0
C1841 C 0.73496 0.53979 0.63092 0.0
C1842 C 0.75586 0.49459 0.85374 0.0
C1843 C 0.76766 0.48088 0.8715 0.0
H1844 H 0.72825 0.52064 0.84612 0.0
C1845 C 0.76272 0.48556 0.89584 0.0
H1846 H 0.75905 0.49106 0.83482 0.0
C1847 C 0.74581 0.50314 0.90227 0.0
C1848 C 0.7328 0.51566 0.88447 0.0
H1849 H 0.77136 0.47507 0.90984 0.0
H1850 H 0.74167 0.50571 0.92116 0.0
C1851 C 0.73822 0.51146 0.86015 0.0
C1852 C 0.77278 0.46802 0.13141 0.0
C1853 C 0.74852 0.47437 0.13461 0.0
H1854 H 0.80857 0.47968 0.12378 0.0
C1855 C 0.74189 0.49872 0.13222 0.0
H1856 H 0.77862 0.44952 0.13356 0.0
C1857 C 0.75923 0.51619 0.12605 0.0
C1858 C 0.78358 0.50968 0.12331 0.0
H1859 H 0.72334 0.50414 0.13486 0.0
H1860 H 0.7537 0.53473 0.12366 0.0
C1861 C 0.79007 0.48542 0.1262 0.0
C1862 C 0.75852 0.49016 0.38179 0.0
C1863 C 0.78278 0.49685 0.38501 0.0
H1864 H 0.7227 0.50203 0.37241 0.0
C1865 C 0.78911 0.5212 0.38255 0.0
H1866 H 0.75312 0.47153 0.38381 0.0
C1867 C 0.77182 0.5385 0.37718 0.0
C1868 C 0.74767 0.532 0.37339 0.0
H1869 H 0.80753 0.52707 0.38532 0.0
H1870 H 0.7776 0.55706 0.37537 0.0
C1871 C 0.74115 0.50757 0.37545 0.0
C1872 C 0.09114 0.24366 0.19841 0.0
C1873 C 0.11412 0.24784 0.18872 0.0
H1874 H 0.07078 0.22879 0.22766 0.0
C1875 C 0.13458 0.2424 0.20256 0.0
H1876 H 0.07513 0.24755 0.18797 0.0
C1877 C 0.13207 0.23164 0.22516 0.0
C1878 C 0.10911 0.22636 0.23425 0.0
H1879 H 0.15249 0.24471 0.19528 0.0
H1880 H 0.14804 0.22609 0.23489 0.0
C1881 C 0.08864 0.23314 0.22112 0.0
C1882 C 0.01339 0.84099 0.45074 0.0
C1883 C 0.00701 0.8638 0.44185 0.0
H1884 H 0.02894 0.82101 0.47985 0.0
C1885 C 0.00853 0.88384 0.45724 0.0
H1886 H 0.01247 0.82526 0.43924 0.0
C1887 C 0.01763 0.88131 0.48054 0.0
C1888 C 0.02544 0.85877 0.48877 0.0
H1889 H 0.00457 0.90176 0.45081 0.0
H1890 H 0.0203 0.89724 0.49148 0.0
C1891 C 0.02251 0.83848 0.47404 0.0
C1892 C 0.41653 0.76284 0.69981 0.0
C1893 C 0.39361 0.75865 0.68996 0.0
H1894 H 0.43668 0.77728 0.72944 0.0
C1895 C 0.37309 0.76367 0.70387 0.0
H1896 H 0.43261 0.75928 0.68935 0.0
C1897 C 0.37544 0.77392 0.7267 0.0
C1898 C 0.39831 0.77916 0.73601 0.0
H1899 H 0.3552 0.76137 0.69651 0.0
H1900 H 0.35938 0.77915 0.73647 0.0
C1901 C 0.41888 0.77288 0.72277 0.0
C1902 C 0.48808 0.12893 0.97943 0.0
C1903 C 0.48011 0.15138 0.98777 0.0
H1904 H 0.50157 0.10873 0.94969 0.0
C1905 C 0.48295 0.17175 0.97312 0.0
H1906 H 0.4855 0.11293 0.9903 0.0
C1907 C 0.49221 0.16941 0.94984 0.0
C1908 C 0.49889 0.1467 0.9409 0.0
H1909 H 0.4764 0.18915 0.97901 0.0
H1910 H 0.49308 0.18521 0.93842 0.0
C1911 C 0.49738 0.12659 0.95617 0.0
C1912 C 0.13408 0.75823 0.30184 0.0
C1913 C 0.11402 0.75697 0.31722 0.0
H1914 H 0.14761 0.76972 0.26755 0.0
C1915 C 0.09126 0.76356 0.30832 0.0
H1916 H 0.15196 0.75413 0.30827 0.0
C1917 C 0.08885 0.77261 0.28499 0.0
C1918 C 0.10918 0.77527 0.27025 0.0
H1919 H 0.07552 0.76285 0.31982 0.0
H1920 H 0.07145 0.77921 0.27915 0.0
C1921 C 0.13164 0.76725 0.2785 0.0
C1922 C 0.48176 0.83551 0.54075 0.0
C1923 C 0.47834 0.85597 0.52634 0.0
H1924 H 0.49281 0.82188 0.57512 0.0
C1925 C 0.4856 0.87854 0.53498 0.0
H1926 H 0.47572 0.81799 0.53464 0.0
C1927 C 0.49499 0.88085 0.55818 0.0
C1928 C 0.4975 0.86057 0.5731 0.0
H1929 H 0.48254 0.8946 0.52433 0.0
H1930 H 0.49868 0.89875 0.56483 0.0
C1931 C 0.49124 0.8378 0.56397 0.0
C1932 C 0.39215 0.26092 0.80159 0.0
C1933 C 0.39998 0.24704 0.82137 0.0
H1934 H 0.38603 0.26201 0.7633 0.0
C1935 C 0.41107 0.22474 0.81679 0.0
H1936 H 0.38489 0.27875 0.80396 0.0
C1937 C 0.41253 0.21573 0.79346 0.0
C1938 C 0.40277 0.22865 0.77413 0.0
H1939 H 0.41777 0.21362 0.83133 0.0
H1940 H 0.42025 0.19803 0.79064 0.0
C1941 C 0.39328 0.25164 0.77814 0.0
C1942 C 0.02351 0.17027 0.03702 0.0
C1943 C 0.02776 0.14942 0.0234 0.0
H1944 H 0.01173 0.18477 0.07082 0.0
C1945 C 0.02105 0.12697 0.03278 0.0
H1946 H 0.02906 0.18774 0.03034 0.0
C1947 C 0.01143 0.12521 0.05595 0.0
C1948 C 0.0082 0.14592 0.07013 0.0
H1949 H 0.0247 0.11064 0.02275 0.0
H1950 H 0.00815 0.10746 0.06321 0.0
C1951 C 0.01388 0.16852 0.06024 0.0
C1952 C 0.20933 0.09404 0.21104 0.0
C1953 C 0.22873 0.10123 0.22553 0.0
H1954 H 0.17126 0.09048 0.20766 0.0
C1955 C 0.22449 0.10787 0.24948 0.0
H1956 H 0.2123 0.08845 0.19258 0.0
C1957 C 0.20086 0.10876 0.25835 0.0
C1958 C 0.18118 0.10339 0.24322 0.0
H1959 H 0.23932 0.11308 0.26104 0.0
H1960 H 0.19817 0.11388 0.27691 0.0
C1961 C 0.18584 0.09516 0.21975 0.0
C1962 C 0.16577 0.95141 0.49566 0.0
C1963 C 0.14297 0.94214 0.50157 0.0
H1964 H 0.18559 0.98066 0.48011 0.0
C1965 C 0.12263 0.95696 0.49901 0.0
H1966 H 0.18172 0.94032 0.49737 0.0
C1967 C 0.1249 0.98006 0.48931 0.0
C1968 C 0.14751 0.98867 0.48204 0.0
H1969 H 0.10475 0.95018 0.50265 0.0
H1970 H 0.10881 0.99053 0.48587 0.0
C1971 C 0.16804 0.97455 0.48606 0.0
C1972 C 0.31086 0.9188 0.74372 0.0
C1973 C 0.32096 0.89622 0.74905 0.0
H1974 H 0.28061 0.93792 0.72917 0.0
C1975 C 0.30682 0.87544 0.74597 0.0
H1976 H 0.32139 0.93509 0.74578 0.0
C1977 C 0.28347 0.87713 0.73681 0.0
C1978 C 0.27388 0.89956 0.73039 0.0
H1979 H 0.31422 0.85772 0.74898 0.0
H1980 H 0.27347 0.86076 0.73321 0.0
C1981 C 0.28746 0.92047 0.73453 0.0
C1982 C 0.34157 0.05643 0.99681 0.0
C1983 C 0.36425 0.06613 1.00249 0.0
H1984 H 0.32212 0.02678 0.98157 0.0
C1985 C 0.38481 0.05162 0.99986 0.0
H1986 H 0.32544 0.06726 0.99858 0.0
C1987 C 0.38285 0.02841 0.99037 0.0
C1988 C 0.36034 0.01939 0.9833 0.0
H1989 H 0.40261 0.05871 1.00328 0.0
H1990 H 0.39909 0.01819 0.98687 0.0
C1991 C 0.33961 0.0332 0.98737 0.0
C1992 C 0.22498 0.91887 0.27305 0.0
C1993 C 0.23942 0.89852 0.27678 0.0
H1994 H 0.19047 0.93215 0.26209 0.0
C1995 C 0.23112 0.87589 0.26926 0.0
H1996 H 0.23086 0.93643 0.27918 0.0
C1997 C 0.20799 0.87337 0.25968 0.0
C1998 C 0.19282 0.89349 0.25746 0.0
H1999 H 0.24184 0.85992 0.27249 0.0
H2000 H 0.20145 0.85543 0.2559 0.0
C2001 C 0.20181 0.91636 0.26354 0.0
C2002 C 0.3794 0.97833 0.52032 0.0
C2003 C 0.35672 0.9868 0.52745 0.0
H2004 H 0.39988 0.94849 0.5077 0.0
C2005 C 0.33634 0.97233 0.52384 0.0
H2006 H 0.39539 0.98906 0.52353 0.0
C2007 C 0.33884 0.94908 0.51461 0.0
C2008 C 0.36173 0.93999 0.5088 0.0
H2009 H 0.31875 0.97832 0.52978 0.0
H2010 H 0.32299 0.93779 0.51309 0.0
C2011 C 0.38191 0.95508 0.51114 0.0
C2012 C 0.28655 0.08662 0.77497 0.0
C2013 C 0.27112 0.10649 0.777 0.0
H2014 H 0.3218 0.07423 0.76523 0.0
C2015 C 0.27846 0.12891 0.76801 0.0
H2016 H 0.28142 0.06931 0.78237 0.0
C2017 C 0.30152 0.13177 0.75838 0.0
C2018 C 0.31751 0.1122 0.75756 0.0
H2019 H 0.26699 0.14455 0.77001 0.0
H2020 H 0.30738 0.14965 0.75327 0.0
C2021 C 0.30965 0.08949 0.76541 0.0
C2022 C 0.17131 0.03506 0.02249 0.0
C2023 C 0.15098 0.02046 0.02586 0.0
H2024 H 0.18454 0.06973 0.01198 0.0
C2025 C 0.12834 0.02876 0.01844 0.0
H2026 H 0.18886 0.0292 0.02866 0.0
C2027 C 0.12577 0.05201 0.0093 0.0
C2028 C 0.14586 0.06727 0.00726 0.0
H2029 H 0.11239 0.01793 0.02148 0.0
H2030 H 0.10778 0.05848 0.0057 0.0
C2031 C 0.16876 0.05832 0.01327 0.0
C2032 C 0.24914 0.20663 0.13195 0.0
C2033 C 0.25022 0.19073 0.11231 0.0
H2034 H 0.23766 0.24121 0.14465 0.0
C2035 C 0.24313 0.19881 0.08943 0.0
H2036 H 0.25361 0.20058 0.14994 0.0
C2037 C 0.234 0.22206 0.08645 0.0
C2038 C 0.23164 0.2374 0.10637 0.0
H2039 H 0.24351 0.18674 0.07411 0.0
H2040 H 0.22708 0.22736 0.06899 0.0
C2041 C 0.23996 0.22982 0.12897 0.0
C2042 C 0.73137 0.28621 0.87743 0.0
C2043 C 0.72644 0.2762 0.90008 0.0
H2044 H 0.74381 0.31689 0.85791 0.0
C2045 C 0.73289 0.28891 0.92093 0.0
H2046 H 0.72601 0.27687 0.86115 0.0
C2047 C 0.743 0.31192 0.91913 0.0
C2048 C 0.74709 0.32237 0.89645 0.0
H2049 H 0.72873 0.28172 0.93859 0.0
H2050 H 0.74687 0.32187 0.93545 0.0
C2051 C 0.74166 0.30908 0.87561 0.0
C2052 C 0.97844 0.48631 0.12293 0.0
C2053 C 0.98792 0.48107 0.14573 0.0
H2054 H 0.9479 0.49835 0.10293 0.0
C2055 C 0.97471 0.48708 0.1664 0.0
H2056 H 0.9882 0.48129 0.1068 0.0
C2057 C 0.95159 0.49671 0.16423 0.0
C2058 C 0.94151 0.50073 0.14139 0.0
H2059 H 0.98153 0.48268 0.18415 0.0
H2060 H 0.94115 0.49997 0.18039 0.0
C2061 C 0.95541 0.49615 0.12076 0.0
C2062 C 0.76495 0.69832 0.41877 0.0
C2063 C 0.75833 0.68956 0.39596 0.0
H2064 H 0.78077 0.72731 0.43877 0.0
C2065 C 0.75995 0.70496 0.37594 0.0
H2066 H 0.764 0.6868 0.43449 0.0
C2067 C 0.76919 0.72819 0.3785 0.0
C2068 C 0.7771 0.73635 0.40103 0.0
H2069 H 0.75587 0.69862 0.35801 0.0
H2070 H 0.77183 0.73917 0.36258 0.0
C2071 C 0.77424 0.72156 0.4213 0.0
C2072 C 0.03402 0.02237 0.16692 0.0
C2073 C 0.02105 0.02857 0.14617 0.0
H2074 H 0.0674 0.00924 0.18115 0.0
C2075 C 0.03082 0.02363 0.12342 0.0
H2076 H 0.02699 0.02655 0.18463 0.0
C2077 C 0.05384 0.01375 0.12141 0.0
C2078 C 0.06746 0.00886 0.14215 0.0
H2079 H 0.02124 0.02882 0.10723 0.0
H2080 H 0.06156 0.01171 0.10365 0.0
C2081 C 0.05716 0.01272 0.16492 0.0
C2082 C 0.26902 0.77876 0.63248 0.0
C2083 C 0.27543 0.7696 0.60986 0.0
H2084 H 0.25696 0.80919 0.65246 0.0
C2085 C 0.27108 0.78341 0.58917 0.0
H2086 H 0.2728 0.76855 0.64868 0.0
C2087 C 0.26193 0.80676 0.59127 0.0
C2088 C 0.25686 0.81653 0.61406 0.0
H2089 H 0.27643 0.77688 0.57158 0.0
H2090 H 0.25989 0.81757 0.57517 0.0
C2091 C 0.25986 0.80205 0.6346 0.0
C2092 C 0.9554 0.51003 0.38095 0.0
C2093 C 0.93995 0.50819 0.36099 0.0
H2094 H 0.98945 0.52251 0.39422 0.0
C2095 C 0.94852 0.51497 0.33816 0.0
H2096 H 0.94918 0.50579 0.3989 0.0
C2097 C 0.97161 0.52465 0.33555 0.0
C2098 C 0.98642 0.52777 0.35577 0.0
H2099 H 0.93695 0.51386 0.32249 0.0
H2100 H 0.97721 0.53127 0.31807 0.0
C2101 C 0.97847 0.5197 0.37834 0.0
C2102 C 0.54755 0.46224 0.84234 0.0
C2103 C 0.52832 0.47584 0.85144 0.0
H2104 H 0.58549 0.45966 0.83712 0.0
C2105 C 0.53255 0.49932 0.85956 0.0
H2106 H 0.54457 0.44416 0.83562 0.0
C2107 C 0.55608 0.50847 0.86009 0.0
C2108 C 0.57572 0.49403 0.853 0.0
H2109 H 0.51783 0.51021 0.86626 0.0
H2110 H 0.5587 0.52666 0.86637 0.0
C2111 C 0.57098 0.47118 0.84319 0.0
C2112 C 0.63021 0.73873 0.72964 0.0
C2113 C 0.60778 0.73039 0.73769 0.0
H2114 H 0.65052 0.75276 0.70021 0.0
C2115 C 0.58751 0.73302 0.72286 0.0
H2116 H 0.64614 0.73631 0.74065 0.0
C2117 C 0.58994 0.74255 0.6997 0.0
C2118 C 0.61264 0.74968 0.69104 0.0
H2119 H 0.57013 0.7262 0.72853 0.0
H2120 H 0.57423 0.74333 0.68815 0.0
C2121 C 0.63265 0.74826 0.70648 0.0
C2122 C 0.52335 0.33814 0.97327 0.0
C2123 C 0.52888 0.35877 0.98675 0.0
H2124 H 0.51089 0.32435 0.93937 0.0
C2125 C 0.52334 0.38157 0.97748 0.0
H2126 H 0.52808 0.32042 0.97991 0.0
C2127 C 0.51352 0.38381 0.95446 0.0
C2128 C 0.50923 0.36326 0.94037 0.0
H2129 H 0.52806 0.39768 0.98743 0.0
H2130 H 0.5109 0.40166 0.94706 0.0
C2131 C 0.51376 0.34039 0.9501 0.0
C2132 C 0.87656 0.27326 0.22656 0.0
C2133 C 0.89958 0.27899 0.23522 0.0
H2134 H 0.85578 0.26022 0.19693 0.0
C2135 C 0.9199 0.27299 0.22151 0.0
H2136 H 0.86068 0.27825 0.23673 0.0
C2137 C 0.91715 0.26279 0.19869 0.0
C2138 C 0.89406 0.2582 0.18942 0.0
H2139 H 0.93779 0.27776 0.22768 0.0
H2140 H 0.93302 0.2595 0.18783 0.0
C2141 C 0.87381 0.26285 0.20384 0.0
C2142 C 0.98677 0.66857 0.47476 0.0
C2143 C 0.98292 0.64786 0.48867 0.0
H2144 H 0.99735 0.6827 0.44047 0.0
C2145 C 0.98988 0.62536 0.4796 0.0
H2146 H 0.98103 0.68605 0.48124 0.0
C2147 C 0.99892 0.62337 0.45622 0.0
C2148 C 1.00124 0.64389 0.44161 0.0
H2149 H 0.98653 0.60914 0.4899 0.0
H2150 H 1.00216 0.60556 0.44911 0.0
C2151 C 0.9958 0.66659 0.45136 0.0
C2152 C 0.58678 0.26756 0.81255 0.0
C2153 C 0.60942 0.26182 0.82231 0.0
H2154 H 0.56745 0.28243 0.78258 0.0
C2155 C 0.63003 0.26452 0.80785 0.0
H2156 H 0.57061 0.26583 0.82333 0.0
C2157 C 0.62813 0.27353 0.78448 0.0
C2158 C 0.60567 0.28031 0.77521 0.0
H2159 H 0.64783 0.2613 0.81496 0.0
H2160 H 0.64441 0.27676 0.7742 0.0
C2161 C 0.58491 0.27672 0.78916 0.0
C2162 C 0.98301 0.3369 0.03843 0.0
C2163 C 0.97991 0.35735 0.02394 0.0
H2164 H 0.99377 0.32323 0.07288 0.0
C2165 C 0.98748 0.37985 0.0325 0.0
H2166 H 0.97674 0.31944 0.03237 0.0
C2167 C 0.99687 0.38211 0.05572 0.0
C2168 C 0.99903 0.36184 0.07073 0.0
H2169 H 0.98468 0.39591 0.02179 0.0
H2170 H 1.00082 0.39997 0.06232 0.0
C2171 C 0.99246 0.33914 0.06166 0.0
C2172 C 0.87475 0.74058 0.27779 0.0
C2173 C 0.89727 0.7336 0.26876 0.0
H2174 H 0.85488 0.75295 0.30821 0.0
C2175 C 0.91796 0.73739 0.28274 0.0
H2176 H 0.85854 0.73726 0.26743 0.0
C2177 C 0.91593 0.74643 0.30613 0.0
C2178 C 0.89321 0.75195 0.31582 0.0
H2179 H 0.93545 0.73164 0.27631 0.0
H2180 H 0.93201 0.74796 0.31708 0.0
C2181 C 0.87271 0.74965 0.30115 0.0
C2182 C 0.52138 0.6686 0.53373 0.0
C2183 C 0.52556 0.64825 0.51939 0.0
H2184 H 0.51003 0.68181 0.56814 0.0
C2185 C 0.51839 0.62552 0.5277 0.0
H2186 H 0.52725 0.68625 0.52783 0.0
C2187 C 0.50874 0.62292 0.55078 0.0
C2188 C 0.50611 0.64306 0.56586 0.0
H2189 H 0.52197 0.60957 0.51705 0.0
H2190 H 0.50525 0.60494 0.55736 0.0
C2191 C 0.51181 0.66601 0.55684 0.0
C2192 C 0.70634 0.63203 0.75103 0.0
C2193 C 0.69084 0.61205 0.75215 0.0
H2194 H 0.74061 0.64551 0.73938 0.0
C2195 C 0.69956 0.58933 0.74523 0.0
H2196 H 0.70002 0.64989 0.75544 0.0
C2197 C 0.72281 0.5869 0.73597 0.0
C2198 C 0.73764 0.60717 0.73339 0.0
H2199 H 0.68796 0.57365 0.74582 0.0
H2200 H 0.7285 0.56954 0.72913 0.0
C2201 C 0.72958 0.62958 0.74175 0.0
C2202 C 0.67096 0.46763 0.98106 0.0
C2203 C 0.65012 0.48029 0.97448 0.0
H2204 H 0.68542 0.43484 0.99544 0.0
C2205 C 0.62745 0.47035 0.97943 0.0
H2206 H 0.68863 0.4748 0.97691 0.0
C2207 C 0.62559 0.4476 0.98999 0.0
C2208 C 0.64641 0.43439 0.99563 0.0
H2209 H 0.6112 0.47967 0.97401 0.0
H2210 H 0.60788 0.43983 0.99225 0.0
C2211 C 0.66911 0.44475 0.99142 0.0
C2212 C 0.81184 0.41907 0.24172 0.0
C2213 C 0.82139 0.39649 0.248 0.0
H2214 H 0.78203 0.43833 0.22652 0.0
C2215 C 0.80665 0.376 0.24602 0.0
H2216 H 0.82281 0.43516 0.24292 0.0
C2217 C 0.78324 0.37792 0.23704 0.0
C2218 C 0.77421 0.40029 0.22967 0.0
H2219 H 0.81358 0.35822 0.24974 0.0
H2220 H 0.77273 0.36169 0.23433 0.0
C2221 C 0.78843 0.42096 0.23265 0.0
C2222 C 0.8847 0.55144 0.49741 0.0
C2223 C 0.86439 0.56631 0.49993 0.0
H2224 H 0.89846 0.51778 0.48446 0.0
C2225 C 0.84157 0.55705 0.49404 0.0
H2226 H 0.90259 0.5582 0.501 0.0
C2227 C 0.83926 0.53386 0.48456 0.0
C2228 C 0.85977 0.51967 0.48065 0.0
H2229 H 0.82563 0.56817 0.49571 0.0
H2230 H 0.8217 0.52773 0.47865 0.0
C2231 C 0.88238 0.5283 0.48785 0.0
C2232 C 0.70189 0.41716 0.76219 0.0
C2233 C 0.69131 0.39445 0.75865 0.0
H2234 H 0.73215 0.43676 0.77606 0.0
C2235 C 0.70464 0.37366 0.76405 0.0
H2236 H 0.69189 0.43345 0.75831 0.0
C2237 C 0.72759 0.37558 0.77411 0.0
C2238 C 0.73758 0.39828 0.77881 0.0
H2239 H 0.69674 0.35596 0.76226 0.0
H2240 H 0.7369 0.35938 0.7797 0.0
C2241 C 0.72495 0.41907 0.77207 0.0
C2242 C 0.83972 0.44994 0.01214 0.0
C2243 C 0.8626 0.441 0.00606 0.0
H2244 H 0.81964 0.47905 0.02757 0.0
C2245 C 0.8827 0.45627 0.00802 0.0
H2246 H 0.82394 0.43852 0.0109 0.0
C2247 C 0.88014 0.47951 0.01723 0.0
C2248 C 0.85752 0.4878 0.02474 0.0
H2249 H 0.90066 0.44979 0.0043 0.0
H2250 H 0.8961 0.49035 0.02023 0.0
C2251 C 0.83718 0.4732 0.02137 0.0
C2252 C 0.78437 0.58879 0.27238 0.0
C2253 C 0.77003 0.60913 0.27654 0.0
H2254 H 0.81875 0.57557 0.26092 0.0
C2255 C 0.77839 0.63186 0.26942 0.0
H2256 H 0.77844 0.57114 0.27822 0.0
C2257 C 0.80144 0.63446 0.25972 0.0
C2258 C 0.81649 0.61431 0.25698 0.0
H2259 H 0.76775 0.64781 0.273 0.0
H2260 H 0.80802 0.65243 0.2562 0.0
C2261 C 0.80748 0.59138 0.26276 0.0
C2262 C 0.62751 0.52867 0.51807 0.0
C2263 C 0.64997 0.5205 0.52617 0.0
H2264 H 0.6071 0.55834 0.5049 0.0
C2265 C 0.67021 0.53541 0.52379 0.0
H2266 H 0.61159 0.51759 0.52034 0.0
C2267 C 0.66773 0.55876 0.5148 0.0
C2268 C 0.64498 0.56753 0.508 0.0
H2269 H 0.68761 0.52964 0.53046 0.0
H2270 H 0.68342 0.57035 0.51422 0.0
C2271 C 0.625 0.55203 0.50913 0.0
C2272 C 0.74821 0.70688 0.63587 0.0
C2273 C 0.75052 0.69187 0.61563 0.0
H2274 H 0.73558 0.74073 0.64947 0.0
C2275 C 0.74482 0.70108 0.59276 0.0
H2276 H 0.7517 0.70017 0.6538 0.0
C2277 C 0.73558 0.72434 0.59034 0.0
C2278 C 0.73175 0.73865 0.61078 0.0
H2279 H 0.74636 0.68986 0.57688 0.0
H2280 H 0.72972 0.73041 0.57275 0.0
C2281 C 0.7389 0.73011 0.63344 0.0
C2282 C 0.23486 0.78495 0.42125 0.0
C2283 C 0.2321 0.77015 0.40098 0.0
H2284 H 0.24505 0.8197 0.43447 0.0
C2285 C 0.24029 0.77822 0.37851 0.0
H2286 H 0.22813 0.77926 0.43866 0.0
C2287 C 0.24965 0.80142 0.376 0.0
C2288 C 0.25107 0.81686 0.396 0.0
H2289 H 0.23776 0.76722 0.36258 0.0
H2290 H 0.25394 0.80772 0.3581 0.0
C2291 C 0.24424 0.80815 0.41877 0.0
C2292 C 0.47308 0.98629 0.66887 0.0
C2293 C 0.48608 0.97973 0.64824 0.0
H2294 H 0.43982 1.0 0.68282 0.0
C2295 C 0.47651 0.98468 0.62541 0.0
H2296 H 0.47996 0.98214 0.68665 0.0
C2297 C 0.45363 0.99485 0.62319 0.0
C2298 C 0.43995 1.00008 0.64381 0.0
H2299 H 0.48611 0.97924 0.60931 0.0
H2300 H 0.44605 0.99685 0.60537 0.0
C2301 C 0.4501 0.99626 0.66667 0.0
C2302 C 0.27031 0.22917 0.87546 0.0
C2303 C 0.27714 0.23801 0.89811 0.0
H2304 H 0.25738 0.19907 0.85538 0.0
C2305 C 0.27279 0.22407 0.91871 0.0
H2306 H 0.27403 0.2395 0.85933 0.0
C2307 C 0.26327 0.20089 0.9165 0.0
C2308 C 0.25778 0.1914 0.89369 0.0
H2309 H 0.2784 0.23037 0.9363 0.0
H2310 H 0.2613 0.18994 0.93253 0.0
C2311 C 0.26068 0.20603 0.87325 0.0
C2312 C 0.55136 0.50739 0.62401 0.0
C2313 C 0.56676 0.5059 0.64404 0.0
H2314 H 0.51716 0.51926 0.61058 0.0
C2315 C 0.55798 0.51256 0.66682 0.0
H2316 H 0.55772 0.50321 0.6061 0.0
C2317 C 0.53475 0.52185 0.66931 0.0
C2318 C 0.51999 0.52468 0.64902 0.0
H2319 H 0.56951 0.5117 0.68254 0.0
H2320 H 0.529 0.52843 0.68675 0.0
C2321 C 0.52813 0.51667 0.62651 0.0
C2322 C 0.76261 0.30757 0.0898 0.0
C2323 C 0.75654 0.31655 0.11267 0.0
H2324 H 0.77806 0.27845 0.06973 0.0
C2325 C 0.75863 0.30136 0.1328 0.0
H2326 H 0.76127 0.31893 0.07399 0.0
C2327 C 0.76794 0.27816 0.13028 0.0
C2328 C 0.77538 0.26982 0.10764 0.0
H2329 H 0.75492 0.30788 0.15075 0.0
H2330 H 0.771 0.26737 0.14625 0.0
C2331 C 0.77192 0.28435 0.08729 0.0
C2332 C 0.45551 0.01078 0.88276 0.0
C2333 C 0.4399 0.00901 0.86292 0.0
H2334 H 0.48966 0.02326 0.8958 0.0
C2335 C 0.44827 0.01591 0.84005 0.0
H2336 H 0.44944 0.00642 0.90073 0.0
C2337 C 0.47131 0.02563 0.83729 0.0
C2338 C 0.48628 0.02869 0.8574 0.0
H2339 H 0.43657 0.01485 0.82447 0.0
H2340 H 0.47675 0.03233 0.81979 0.0
C2341 C 0.47854 0.02051 0.88 0.0
C2342 C 0.02859 0.99004 0.37989 0.0
C2343 C 0.02043 0.98188 0.35744 0.0
H2344 H 0.05821 1.00358 0.40024 0.0
C2345 C 0.03519 0.98463 0.33713 0.0
H2346 H 0.01762 0.98753 0.39584 0.0
C2347 C 0.05846 0.99389 0.33957 0.0
C2348 C 0.06727 1.00065 0.36232 0.0
H2349 H 0.02942 0.97796 0.31972 0.0
H2350 H 0.07 0.99465 0.32385 0.0
C2351 C 0.05184 0.99932 0.38235 0.0
C2352 C 0.11836 0.11274 0.392 0.0
C2353 C 0.14346 0.11022 0.38915 0.0
H2354 H 0.08552 0.12748 0.37771 0.0
C2355 C 0.15522 0.12407 0.37167 0.0
H2356 H 0.10885 0.10179 0.40506 0.0
C2357 C 0.14182 0.13838 0.35581 0.0
C2358 C 0.11651 0.13934 0.35738 0.0
H2359 H 0.17439 0.12199 0.3687 0.0
H2360 H 0.15109 0.14726 0.3411 0.0
C2361 C 0.10499 0.1274 0.37638 0.0
C2362 C 0.13125 0.90377 0.62836 0.0
C2363 C 0.14786 0.89132 0.64267 0.0
H2364 H 0.10485 0.90107 0.6003 0.0
C2365 C 0.1471 0.86595 0.64306 0.0
H2366 H 0.13178 0.92324 0.62735 0.0
C2367 C 0.13148 0.85321 0.62783 0.0
C2368 C 0.11669 0.86569 0.61167 0.0
H2369 H 0.15999 0.85595 0.65374 0.0
H2370 H 0.13277 0.83377 0.62699 0.0
C2371 C 0.11593 0.89103 0.61283 0.0
C2372 C 0.40433 0.88087 0.87738 0.0
C2373 C 0.39224 0.86694 0.86018 0.0
H2374 H 0.4011 0.90844 0.90421 0.0
C2375 C 0.36686 0.86677 0.86013 0.0
H2376 H 0.42383 0.8817 0.87745 0.0
C2377 C 0.3538 0.8818 0.87563 0.0
C2378 C 0.36599 0.89752 0.89114 0.0
H2379 H 0.35715 0.8564 0.84675 0.0
H2380 H 0.33441 0.88283 0.87379 0.0
C2381 C 0.39129 0.8962 0.89261 0.0
C2382 C 0.39066 0.11702 0.11283 0.0
C2383 C 0.39064 0.1424 0.11226 0.0
H2384 H 0.37437 0.08498 0.12715 0.0
C2385 C 0.37701 0.15491 0.12941 0.0
H2386 H 0.4009 0.10695 0.09963 0.0
C2387 C 0.36166 0.14226 0.14501 0.0
C2388 C 0.36 0.11695 0.14397 0.0
H2389 H 0.37633 0.17439 0.12911 0.0
H2390 H 0.34955 0.15237 0.15649 0.0
C2391 C 0.37561 0.10438 0.12868 0.0
C2392 C 0.14192 0.86571 0.14648 0.0
C2393 C 0.11657 0.86673 0.14768 0.0
H2394 H 0.17428 0.88134 0.13205 0.0
C2395 C 0.10422 0.88182 0.13171 0.0
H2396 H 0.15185 0.85439 0.15887 0.0
C2397 C 0.1171 0.89746 0.11666 0.0
C2398 C 0.14249 0.89795 0.11702 0.0
H2399 H 0.08479 0.8833 0.1326 0.0
H2400 H 0.10721 0.91055 0.10611 0.0
C2401 C 0.15479 0.88105 0.13109 0.0
C2402 C 0.36241 0.86668 0.36749 0.0
C2403 C 0.36144 0.89202 0.36853 0.0
H2404 H 0.37661 0.83422 0.38304 0.0
C2405 C 0.37773 0.90423 0.38341 0.0
H2406 H 0.3498 0.85685 0.35631 0.0
C2407 C 0.39287 0.89123 0.39888 0.0
C2408 C 0.39223 0.86585 0.39943 0.0
H2409 H 0.37705 0.92367 0.3849 0.0
H2410 H 0.40364 0.90104 0.41187 0.0
C2411 C 0.37783 0.85368 0.38268 0.0
C2412 C 0.35304 0.12882 0.62917 0.0
C2413 C 0.36543 0.11117 0.6161 0.0
H2414 H 0.35573 0.15648 0.65601 0.0
C2415 C 0.39082 0.11132 0.61635 0.0
H2416 H 0.33354 0.12885 0.62963 0.0
C2417 C 0.40356 0.1273 0.63116 0.0
C2418 C 0.39106 0.14317 0.64622 0.0
H2419 H 0.40079 0.09771 0.60655 0.0
H2420 H 0.42293 0.1255 0.63266 0.0
C2421 C 0.36578 0.14457 0.64428 0.0
C2422 C 0.11565 0.11579 0.89709 0.0
C2423 C 0.11631 0.14115 0.89792 0.0
H2424 H 0.13164 0.08349 0.88298 0.0
C2425 C 0.13104 0.15349 0.8816 0.0
H2426 H 0.10464 0.10586 0.90977 0.0
C2427 C 0.14671 0.14066 0.86654 0.0
C2428 C 0.1476 0.1153 0.86727 0.0
H2429 H 0.13226 0.17295 0.88221 0.0
H2430 H 0.15954 0.15061 0.85571 0.0
C2431 C 0.13102 0.10294 0.88172 0.0
C2432 C 0.12729 0.37753 0.10317 0.0
C2433 C 0.14163 0.36073 0.11533 0.0
H2434 H 0.09949 0.40414 0.10644 0.0
C2435 C 0.14241 0.36135 0.14069 0.0
H2436 H 0.12598 0.37711 0.0837 0.0
C2437 C 0.12755 0.37702 0.15373 0.0
C2438 C 0.1114 0.39208 0.14157 0.0
H2439 H 0.15311 0.34831 0.15048 0.0
H2440 H 0.12698 0.37563 0.17318 0.0
C2441 C 0.11211 0.39293 0.11622 0.0
C2442 C 0.61053 0.11799 0.88983 0.0
C2443 C 0.60905 0.11987 0.86455 0.0
H2444 H 0.62525 0.13258 0.92254 0.0
C2445 C 0.62479 0.13553 0.85256 0.0
H2446 H 0.59829 0.10627 0.8995 0.0
C2447 C 0.63995 0.15078 0.8658 0.0
C2448 C 0.63992 0.15033 0.89118 0.0
H2449 H 0.62364 0.1377 0.83321 0.0
H2450 H 0.65031 0.16429 0.85626 0.0
C2451 C 0.626 0.13296 0.90304 0.0
C2452 C 0.88111 0.87622 0.35395 0.0
C2453 C 0.89783 0.89072 0.36603 0.0
H2454 H 0.85472 0.84823 0.35732 0.0
C2455 C 0.89719 0.89161 0.39141 0.0
H2456 H 0.8815 0.87486 0.33449 0.0
C2457 C 0.88168 0.87659 0.40453 0.0
C2458 C 0.86683 0.86019 0.39245 0.0
H2459 H 0.91009 0.90253 0.40115 0.0
H2460 H 0.88313 0.87609 0.42398 0.0
C2461 C 0.86586 0.86093 0.36707 0.0
C2462 C 0.8804 0.13024 0.10264 0.0
C2463 C 0.86554 0.14651 0.11488 0.0
H2464 H 0.90873 0.1042 0.10585 0.0
C2465 C 0.8644 0.14545 0.14021 0.0
H2466 H 0.88199 0.13104 0.08321 0.0
C2467 C 0.87942 0.12988 0.15319 0.0
C2468 C 0.89608 0.11542 0.141 0.0
H2469 H 0.85329 0.15811 0.15006 0.0
H2470 H 0.87969 0.13096 0.17267 0.0
C2471 C 0.89573 0.11496 0.11563 0.0
C2472 C 0.36564 0.64599 0.6422 0.0
C2473 C 0.36581 0.64652 0.61682 0.0
H2474 H 0.38191 0.63183 0.67433 0.0
C2475 C 0.37985 0.62973 0.60434 0.0
H2476 H 0.35513 0.65902 0.65222 0.0
C2477 C 0.3954 0.61444 0.61703 0.0
C2478 C 0.39679 0.61541 0.64236 0.0
H2479 H 0.38064 0.63009 0.58485 0.0
H2480 H 0.40778 0.60322 0.60696 0.0
C2481 C 0.38086 0.63039 0.6549 0.0
C2482 C 0.14184 0.64721 0.3671 0.0
C2483 C 0.14055 0.6479 0.39246 0.0
H2484 H 0.12646 0.63354 0.33429 0.0
C2485 C 0.12535 0.63165 0.40432 0.0
H2486 H 0.15328 0.65979 0.35754 0.0
C2487 C 0.10985 0.61684 0.39097 0.0
C2488 C 0.10955 0.6178 0.36558 0.0
H2489 H 0.12367 0.63212 0.42375 0.0
H2490 H 0.09671 0.60605 0.40052 0.0
C2491 C 0.12659 0.63213 0.35375 0.0
C2492 C 0.3812 0.37788 0.90478 0.0
C2493 C 0.36799 0.36038 0.8923 0.0
H2494 H 0.4083 0.40533 0.90224 0.0
C2495 C 0.3684 0.36046 0.86693 0.0
H2496 H 0.38153 0.37792 0.92429 0.0
C2497 C 0.38335 0.37637 0.85428 0.0
C2498 C 0.39847 0.39216 0.86686 0.0
H2499 H 0.35854 0.3469 0.85692 0.0
H2500 H 0.3849 0.37459 0.83491 0.0
C2501 C 0.39651 0.39351 0.89213 0.0
C2502 C 0.61458 0.60532 0.88934 0.0
C2503 C 0.63988 0.60694 0.89062 0.0
H2504 H 0.58217 0.61811 0.87254 0.0
C2505 C 0.65149 0.62596 0.87877 0.0
H2506 H 0.60526 0.59058 0.8981 0.0
C2507 C 0.63825 0.64154 0.86392 0.0
C2508 C 0.61318 0.63864 0.86109 0.0
H2509 H 0.67095 0.62733 0.87905 0.0
H2510 H 0.64787 0.65458 0.85306 0.0
C2511 C 0.60131 0.62114 0.87485 0.0
C2512 C 0.64555 0.36761 0.14395 0.0
C2513 C 0.64758 0.39283 0.142 0.0
H2514 H 0.63048 0.33513 0.12917 0.0
C2515 C 0.63252 0.40503 0.12587 0.0
H2516 H 0.65735 0.35776 0.15596 0.0
C2517 C 0.6175 0.39203 0.11029 0.0
C2518 C 0.61697 0.36667 0.11087 0.0
H2519 H 0.63415 0.42433 0.1236 0.0
H2520 H 0.60769 0.4017 0.09648 0.0
C2521 C 0.63018 0.35462 0.12866 0.0
C2522 C 0.86795 0.3663 0.35874 0.0
C2523 C 0.89333 0.36685 0.35889 0.0
H2524 H 0.8352 0.38187 0.37225 0.0
C2525 C 0.90512 0.38083 0.37625 0.0
H2526 H 0.85845 0.35584 0.34528 0.0
C2527 C 0.89177 0.39589 0.3915 0.0
C2528 C 0.86645 0.39691 0.38988 0.0
H2529 H 0.9246 0.38196 0.37643 0.0
H2530 H 0.90134 0.40823 0.4032 0.0
C2531 C 0.85459 0.38108 0.37424 0.0
C2532 C 0.87628 0.60323 0.62695 0.0
C2533 C 0.85985 0.61564 0.64149 0.0
H2534 H 0.90249 0.60606 0.59873 0.0
C2535 C 0.86074 0.641 0.64212 0.0
H2536 H 0.87566 0.58377 0.62579 0.0
C2537 C 0.87631 0.6538 0.6269 0.0
C2538 C 0.8909 0.64139 0.61053 0.0
H2539 H 0.84803 0.65097 0.65304 0.0
H2540 H 0.87515 0.67325 0.62628 0.0
C2541 C 0.89153 0.61603 0.61142 0.0
C2542 C 0.61775 0.39491 0.61513 0.0
C2543 C 0.64306 0.39646 0.61649 0.0
H2544 H 0.58532 0.38056 0.63072 0.0
C2545 C 0.65535 0.38103 0.63218 0.0
H2546 H 0.60784 0.40693 0.60339 0.0
C2547 C 0.64241 0.36622 0.64802 0.0
C2548 C 0.61701 0.36632 0.64818 0.0
H2549 H 0.67475 0.38223 0.63396 0.0
H2550 H 0.65225 0.35616 0.66153 0.0
C2551 C 0.60481 0.37979 0.63071 0.0
C2552 C 0.89438 0.38984 0.89558 0.0
C2553 C 0.89233 0.36462 0.89753 0.0
H2554 H 0.87966 0.42239 0.88068 0.0
C2555 C 0.87614 0.35249 0.88247 0.0
H2556 H 0.90644 0.39962 0.90739 0.0
C2557 C 0.86057 0.36557 0.86753 0.0
C2558 C 0.86122 0.39092 0.86712 0.0
H2559 H 0.8738 0.33319 0.88405 0.0
H2560 H 0.84671 0.35595 0.85771 0.0
C2561 C 0.87909 0.4029 0.88031 0.0
C2562 C 0.89076 0.61154 0.11505 0.0
C2563 C 0.86538 0.61072 0.11559 0.0
H2564 H 0.92302 0.62593 0.13092 0.0
C2565 C 0.85298 0.62728 0.12999 0.0
H2566 H 0.90074 0.59869 0.10428 0.0
C2567 C 0.86578 0.64259 0.14546 0.0
C2568 C 0.89114 0.6419 0.14645 0.0
H2569 H 0.83351 0.62672 0.13109 0.0
H2570 H 0.8558 0.65364 0.15806 0.0
C2571 C 0.90356 0.62716 0.13021 0.0
C2572 C 0.63199 0.65433 0.38155 0.0
C2573 C 0.61721 0.64228 0.39805 0.0
H2574 H 0.66019 0.65085 0.35542 0.0
C2575 C 0.61613 0.61693 0.39735 0.0
H2576 H 0.63348 0.67377 0.38202 0.0
C2577 C 0.6312 0.60377 0.38197 0.0
C2578 C 0.64783 0.6158 0.36734 0.0
H2579 H 0.605 0.60724 0.41011 0.0
H2580 H 0.63153 0.58432 0.38334 0.0
C2581 C 0.64731 0.64116 0.36643 0.0
C2582 C 0.62522 0.87684 0.60412 0.0
C2583 C 0.6407 0.86106 0.61623 0.0
H2584 H 0.59648 0.90236 0.60758 0.0
C2585 C 0.64229 0.86243 0.64153 0.0
H2586 H 0.62328 0.87578 0.58473 0.0
C2587 C 0.62717 0.87782 0.65464 0.0
C2588 C 0.60998 0.8918 0.64262 0.0
H2589 H 0.65387 0.85014 0.65129 0.0
H2590 H 0.62732 0.87699 0.67413 0.0
C2591 C 0.60984 0.89195 0.61724 0.0
C2592 C 1.00134 0.26763 0.32672 0.0
C2593 C 0.9788 0.26454 0.33789 0.0
H2594 H 0.03494 0.25168 0.31668 0.0
C2595 C 0.97374 0.24243 0.34912 0.0
H2596 H 0.00591 0.28447 0.31799 0.0
C2597 C 0.9904 0.2235 0.34822 0.0
C2598 C 0.01257 0.22632 0.33626 0.0
H2599 H 0.95657 0.23942 0.35788 0.0
H2600 H 0.98561 0.20644 0.35638 0.0
C2601 C 0.01806 0.24881 0.32601 0.0
C2602 C 0.01835 0.75693 0.57999 0.0
C2603 C 0.01467 0.77995 0.58989 0.0
H2604 H 1.00292 0.7229 0.57059 0.0
C2605 C 0.99192 0.78548 0.59954 0.0
H2606 H 0.03567 0.75201 0.57247 0.0
C2607 C 0.97301 0.76878 0.59828 0.0
C2608 C 0.97647 0.7461 0.58753 0.0
H2609 H 0.98842 0.80303 0.60727 0.0
H2610 H 0.9555 0.77392 0.60517 0.0
C2611 C 0.99954 0.74019 0.57893 0.0
C2612 C 0.506 0.7381 0.82854 0.0
C2613 C 0.52875 0.74132 0.83926 0.0
H2614 H 0.4723 0.75402 0.81875 0.0
C2615 C 0.53407 0.76363 0.84997 0.0
H2616 H 0.50124 0.72112 0.8202 0.0
C2617 C 0.51748 0.78261 0.84899 0.0
C2618 C 0.49511 0.77965 0.83744 0.0
H2619 H 0.5514 0.76676 0.85836 0.0
H2620 H 0.52248 0.79979 0.85673 0.0
C2621 C 0.48936 0.75699 0.82773 0.0
C2622 C 0.50643 0.26895 0.07922 0.0
C2623 C 0.52912 0.2633 0.08892 0.0
H2624 H 0.47064 0.25685 0.07152 0.0
C2625 C 0.53218 0.24087 0.10032 0.0
H2626 H 0.50339 0.28603 0.07034 0.0
C2627 C 0.5133 0.22414 0.10115 0.0
C2628 C 0.49097 0.22937 0.09042 0.0
H2629 H 0.54939 0.23595 0.10806 0.0
H2630 H 0.51651 0.20679 0.10942 0.0
C2631 C 0.48763 0.25216 0.07987 0.0
C2632 C 0.01873 0.72373 0.15962 0.0
C2633 C 0.99598 0.72736 0.1702 0.0
H2634 H 0.05325 0.73879 0.15109 0.0
C2635 C 0.99027 0.75041 0.17898 0.0
H2636 H 0.02371 0.70624 0.15261 0.0
C2637 C 0.00726 0.76901 0.17826 0.0
C2638 C 0.03034 0.76513 0.16853 0.0
H2639 H 0.97294 0.75391 0.1872 0.0
H2640 H 1.00249 0.7863 0.1859 0.0
C2641 C 0.03567 0.74243 0.15869 0.0
C2642 C 0.50918 0.7412 0.4309 0.0
C2643 C 0.53235 0.74806 0.4233 0.0
H2644 H 0.4727 0.75195 0.43714 0.0
C2645 C 0.53567 0.77143 0.41408 0.0
H2646 H 0.5059 0.72336 0.43804 0.0
C2647 C 0.51651 0.78782 0.41337 0.0
C2648 C 0.49363 0.78129 0.42207 0.0
H2649 H 0.55325 0.7773 0.40799 0.0
H2650 H 0.51988 0.80588 0.40683 0.0
C2651 C 0.49011 0.75764 0.43041 0.0
C2652 C 0.50695 0.27007 0.67953 0.0
C2653 C 0.53029 0.26617 0.67048 0.0
H2654 H 0.47244 0.25497 0.68764 0.0
C2655 C 0.53596 0.24339 0.66102 0.0
H2656 H 0.50191 0.28743 0.68685 0.0
C2657 C 0.51905 0.22465 0.66167 0.0
C2658 C 0.49601 0.22831 0.67157 0.0
H2659 H 0.55375 0.23974 0.65392 0.0
H2660 H 0.52428 0.20711 0.65496 0.0
C2661 C 0.48999 0.25143 0.67995 0.0
C2662 C 0.00867 0.24006 0.93089 0.0
C2663 C 0.03173 0.24596 0.92226 0.0
H2664 H 0.97268 0.252 0.9377 0.0
C2665 C 0.03534 0.26878 0.91185 0.0
H2666 H 0.00518 0.22266 0.93896 0.0
C2667 C 0.01658 0.28563 0.91097 0.0
C2668 C 0.99385 0.28008 0.92066 0.0
H2669 H 0.05285 0.27391 0.90495 0.0
H2670 H 0.02018 0.30328 0.9035 0.0
C2671 C 0.99 0.25693 0.9302 0.0
C2672 C 0.34129 0.04027 0.27086 0.0
C2673 C 0.33477 0.03358 0.24733 0.0
H2674 H 0.34537 0.02934 0.30763 0.0
C2675 C 0.32904 0.00932 0.24277 0.0
H2676 H 0.34583 0.05877 0.27505 0.0
C2677 C 0.32886 0.99239 0.26146 0.0
C2678 C 0.33427 0.99932 0.28521 0.0
H2679 H 0.32401 1.00348 0.22485 0.0
H2680 H 0.32366 0.97405 0.25738 0.0
C2681 C 0.34099 0.02336 0.28958 0.0
C2682 C 0.26947 0.09706 0.47313 0.0
C2683 C 0.24656 0.08668 0.4763 0.0
H2684 H 0.30358 0.1057 0.48904 0.0
C2685 C 0.24009 0.07841 0.49935 0.0
H2686 H 0.27503 0.10369 0.45565 0.0
C2687 C 0.25651 0.07942 0.51844 0.0
C2688 C 0.27975 0.08894 0.51505 0.0
H2689 H 0.22261 0.07038 0.50252 0.0
H2690 H 0.25116 0.07216 0.53574 0.0
C2691 C 0.28584 0.09827 0.49231 0.0
C2692 C 0.16111 0.01806 0.72485 0.0
C2693 C 0.17201 0.99542 0.72804 0.0
H2694 H 0.15204 0.0521 0.74061 0.0
C2695 C 0.18079 0.98934 0.751 0.0
H2696 H 0.15407 0.02333 0.70744 0.0
C2697 C 0.17973 0.00588 0.76998 0.0
C2698 C 0.16969 0.02888 0.76655 0.0
H2699 H 0.18924 0.97207 0.75417 0.0
H2700 H 0.18738 1.00084 0.7872 0.0
C2701 C 0.15988 0.03456 0.74391 0.0
C2702 C 0.26843 0.92876 1.00051 0.0
C2703 C 0.26229 0.92023 0.97748 0.0
H2704 H 0.25684 0.9354 0.03666 0.0
C2705 C 0.23947 0.90969 0.97411 0.0
H2706 H 0.28583 0.93691 1.00382 0.0
C2707 C 0.22284 0.90864 0.99308 0.0
C2708 C 0.22859 0.9183 0.01578 0.0
H2709 H 0.23417 0.90285 0.95663 0.0
H2710 H 0.20517 0.90113 0.98966 0.0
C2711 C 0.25176 0.92791 0.01938 0.0
C2712 C 0.28458 0.34819 0.01885 0.0
C2713 C 0.28136 0.33774 0.99598 0.0
H2714 H 0.26881 0.35671 0.05304 0.0
C2715 C 0.25834 0.32929 0.98964 0.0
H2716 H 0.30204 0.35496 0.02431 0.0
C2717 C 0.23934 0.33017 0.00617 0.0
C2718 C 0.2428 0.3397 0.02939 0.0
H2719 H 0.25514 0.32119 0.9722 0.0
H2720 H 0.22207 0.32275 1.00093 0.0
C2721 C 0.26549 0.34925 0.03533 0.0
C2722 C 0.74267 0.15732 0.03265 0.0
C2723 C 0.76498 0.16835 0.02797 0.0
H2724 H 0.70672 0.15063 0.0203 0.0
C2725 C 0.76847 0.17969 0.00558 0.0
H2726 H 0.73935 0.14844 0.0497 0.0
C2727 C 0.74983 0.18085 0.98868 0.0
C2728 C 0.72714 0.17084 0.99381 0.0
H2729 H 0.78547 0.18827 1.00131 0.0
H2730 H 0.75299 0.19034 0.97194 0.0
C2731 C 0.72393 0.15863 0.01579 0.0
C2732 C 0.09929 0.47766 0.266 0.0
C2733 C 0.08803 0.48068 0.2435 0.0
H2734 H 0.10802 0.49332 0.30019 0.0
C2735 C 0.07821 0.50329 0.2378 0.0
H2736 H 0.10711 0.46051 0.27097 0.0
C2737 C 0.07859 0.52205 0.25463 0.0
C2738 C 0.089 0.51874 0.2775 0.0
H2739 H 0.06943 0.50631 0.22065 0.0
H2740 H 0.07016 0.53898 0.2499 0.0
C2741 C 0.09986 0.4965 0.28277 0.0
C2742 C 0.7497 0.82775 0.51808 0.0
C2743 C 0.72676 0.83634 0.51169 0.0
H2744 H 0.786 0.82105 0.5069 0.0
C2745 C 0.72369 0.8468 0.48881 0.0
H2746 H 0.75279 0.81963 0.53553 0.0
C2747 C 0.74286 0.84782 0.47241 0.0
C2748 C 0.7655 0.83819 0.47842 0.0
H2749 H 0.7063 0.85369 0.4833 0.0
H2750 H 0.73966 0.85535 0.45471 0.0
C2751 C 0.76879 0.82855 0.50162 0.0
C2752 C 0.93107 0.00547 0.23819 0.0
C2753 C 0.9184 0.027 0.24221 0.0
H2754 H 0.9414 0.97103 0.25194 0.0
C2755 C 0.90452 0.02915 0.26331 0.0
H2756 H 0.94192 1.00314 0.22215 0.0
C2757 C 0.9041 0.01059 0.28042 0.0
C2758 C 0.9177 0.98954 0.2769 0.0
H2759 H 0.89445 0.04544 0.26694 0.0
H2760 H 0.89375 0.01311 0.29676 0.0
C2761 C 0.9308 0.98703 0.25535 0.0
C2762 C 0.25716 0.67835 0.51855 0.0
C2763 C 0.28017 0.66975 0.51243 0.0
H2764 H 0.22106 0.68514 0.50692 0.0
C2765 C 0.28353 0.65927 0.4896 0.0
H2766 H 0.25386 0.68647 0.53596 0.0
C2767 C 0.26458 0.65833 0.47294 0.0
C2768 C 0.24192 0.66804 0.47867 0.0
H2769 H 0.30098 0.65237 0.48431 0.0
H2770 H 0.268 0.65085 0.45526 0.0
C2771 C 0.23832 0.67761 0.50185 0.0
C2772 C 0.41038 0.47268 0.73971 0.0
C2773 C 0.42113 0.47646 0.76236 0.0
H2774 H 0.40138 0.48765 0.70527 0.0
C2775 C 0.42958 0.49963 0.76806 0.0
H2776 H 0.40358 0.45509 0.73475 0.0
C2777 C 0.42845 0.51822 0.75112 0.0
C2778 C 0.41863 0.5142 0.72812 0.0
H2779 H 0.43787 0.50326 0.78533 0.0
H2780 H 0.43587 0.53563 0.75588 0.0
C2781 C 0.40905 0.49137 0.72281 0.0
C2782 C 0.82973 0.50575 0.73839 0.0
C2783 C 0.84 0.52865 0.74189 0.0
H2784 H 0.82066 0.47164 0.75389 0.0
C2785 C 0.85074 0.53385 0.76422 0.0
H2786 H 0.8214 0.50107 0.72138 0.0
C2787 C 0.85017 0.51698 0.78297 0.0
C2788 C 0.83902 0.49444 0.77976 0.0
H2789 H 0.85879 0.5513 0.76755 0.0
H2790 H 0.85788 0.52189 0.8002 0.0
C2791 C 0.82935 0.48882 0.75705 0.0
C2792 C 0.75524 0.57693 0.01871 0.0
C2793 C 0.77735 0.58892 0.01551 0.0
H2794 H 0.72182 0.56586 1.00297 0.0
C2795 C 0.78172 0.60061 0.99348 0.0
H2796 H 0.7512 0.56781 0.03548 0.0
C2797 C 0.76486 0.59938 0.97474 0.0
C2798 C 0.74317 0.58657 0.97764 0.0
H2799 H 0.79854 0.61 0.99037 0.0
H2800 H 0.76916 0.60793 0.95774 0.0
C2801 C 0.73833 0.57585 1.00005 0.0
C2802 C 0.66205 0.48709 0.2862 0.0
C2803 C 0.67206 0.51012 0.28279 0.0
H2804 H 0.65404 0.45266 0.27067 0.0
C2805 C 0.68034 0.51644 0.2597 0.0
H2806 H 0.65542 0.48165 0.30372 0.0
C2807 C 0.6797 0.49978 0.24082 0.0
C2808 C 0.67056 0.47643 0.24446 0.0
H2809 H 0.6881 0.53401 0.25635 0.0
H2810 H 0.68695 0.50504 0.22349 0.0
C2811 C 0.6612 0.47047 0.26723 0.0
C2812 C 0.76765 0.42919 0.49852 0.0
C2813 C 0.76145 0.4207 0.47547 0.0
H2814 H 0.75617 0.43574 0.53473 0.0
C2815 C 0.73859 0.41026 0.47215 0.0
H2816 H 0.78508 0.43729 0.50179 0.0
C2817 C 0.72201 0.40919 0.49116 0.0
C2818 C 0.72783 0.41872 0.51389 0.0
H2819 H 0.73323 0.40346 0.45467 0.0
H2820 H 0.70432 0.40169 0.48776 0.0
C2821 C 0.75102 0.42832 0.51744 0.0
C2822 C 0.59829 0.97756 0.76762 0.0
C2823 C 0.58687 0.98026 0.74515 0.0
H2824 H 0.60728 0.9937 0.80152 0.0
C2825 C 0.57701 1.0028 0.73922 0.0
H2826 H 0.60615 0.96048 0.77277 0.0
C2827 C 0.57751 0.0218 0.75578 0.0
C2828 C 0.58809 0.01882 0.77861 0.0
H2829 H 0.56811 0.00557 0.72209 0.0
H2830 H 0.56905 0.03866 0.75087 0.0
C2831 C 0.59898 0.99665 0.78412 0.0
loop_
_geom_bond_atom_site_label_1
_geom_bond_atom_site_label_2
_geom_bond_distance
_geom_bond_site_symmetry_2
_ccdc_geom_bond_type
Co0 O3 1.970 . S
Co0 N17 1.989 . S
Co0 O25 1.967 . S
Co0 O32 1.920 . S
Co1 O4 1.966 . S
Co1 N10 2.022 . S
Co1 N18 1.993 . S
Co1 O26 1.941 . S
C2 O3 1.258 . S
C2 O4 1.263 . S
O3 Co0 1.970 . S
O3 C2 1.258 . S
O4 Co1 1.966 . S
O4 C2 1.263 . S
C5 O6 1.235 . S
C5 O32 1.289 . S
O6 C5 1.235 . S
C7 C9 1.400 . S
C7 N10 1.351 . S
C7 C12 1.501 . S
C8 C9 1.387 . S
C8 N11 1.341 . S
C9 C7 1.400 . S
C9 C8 1.387 . S
N10 Co1 2.022 . S
N10 C7 1.351 . S
N10 N11 1.365 . S
N11 C8 1.341 . S
N11 N10 1.365 . S
N11 H31 0.862 . S
C12 C7 1.501 . S
C12 H13 0.961 . S
C12 H14 0.961 . S
C12 H15 0.960 . S
H13 C12 0.961 . S
H14 C12 0.961 . S
H15 C12 0.960 . S
C16 N17 1.342 . S
C16 C20 1.401 . S
C16 C21 1.499 . S
N17 Co0 1.989 . S
N17 C16 1.342 . S
N17 N18 1.388 . S
N18 Co1 1.993 . S
N18 N17 1.388 . S
N18 C19 1.346 . S
C19 N18 1.346 . S
C19 C20 1.396 . S
C19 C29 1.510 . S
C20 C16 1.401 . S
C20 C19 1.396 . S
C21 C16 1.499 . S
C21 H22 0.959 . S
C21 H23 0.960 . S
C21 H24 0.961 . S
H22 C21 0.959 . S
H23 C21 0.960 . S
H24 C21 0.961 . S
O25 Co0 1.967 . S
O25 C33 1.258 . S
O26 Co1 1.941 . S
O26 C33 1.266 . S
H27 C29 0.959 . S
H28 C29 0.961 . S
C29 C19 1.510 . S
C29 H27 0.959 . S
C29 H28 0.961 . S
C29 H30 0.960 . S
H30 C29 0.960 . S
H31 N11 0.862 . S
O32 Co0 1.920 . S
O32 C5 1.289 . S
C33 O25 1.258 . S
C33 O26 1.266 . S
Co34 O37 1.970 . S
Co34 N51 1.989 . S
Co34 O59 1.967 . S
Co34 O66 1.920 . S
Co35 O38 1.966 . S
Co35 N44 2.022 . S
Co35 N52 1.993 . S
Co35 O60 1.941 . S
C36 O37 1.258 . S
C36 O38 1.263 . S
O37 Co34 1.970 . S
O37 C36 1.258 . S
O38 Co35 1.966 . S
O38 C36 1.263 . S
C39 O40 1.235 . S
C39 O66 1.289 . S
O40 C39 1.235 . S
C41 C43 1.400 . S
C41 N44 1.351 . S
C41 C46 1.501 . S
C42 C43 1.387 . S
C42 N45 1.341 . S
C43 C41 1.400 . S
C43 C42 1.387 . S
N44 Co35 2.022 . S
N44 C41 1.351 . S
N44 N45 1.365 . S
N45 C42 1.341 . S
N45 N44 1.365 . S
N45 H65 0.862 . S
C46 C41 1.501 . S
C46 H47 0.961 . S
C46 H48 0.961 . S
C46 H49 0.960 . S
H47 C46 0.961 . S
H48 C46 0.961 . S
H49 C46 0.960 . S
C50 N51 1.342 . S
C50 C54 1.401 . S
C50 C55 1.499 . S
N51 Co34 1.989 . S
N51 C50 1.342 . S
N51 N52 1.388 . S
N52 Co35 1.993 . S
N52 N51 1.388 . S
N52 C53 1.346 . S
C53 N52 1.346 . S
C53 C54 1.396 . S
C53 C63 1.510 . S
C54 C50 1.401 . S
C54 C53 1.396 . S
C55 C50 1.499 . S
C55 H56 0.959 . S
C55 H57 0.960 1_455 S
C55 H58 0.961 1_455 S
H56 C55 0.959 . S
H57 C55 0.960 1_655 S
H58 C55 0.961 1_655 S
O59 Co34 1.967 . S
O59 C67 1.258 . S
O60 Co35 1.941 . S
O60 C67 1.266 . S
H61 C63 0.959 . S
H62 C63 0.961 . S
C63 C53 1.510 . S
C63 H61 0.959 . S
C63 H62 0.961 . S
C63 H64 0.960 . S
H64 C63 0.960 . S
H65 N45 0.862 . S
O66 Co34 1.920 . S
O66 C39 1.289 . S
C67 O59 1.258 . S
C67 O60 1.266 . S
Co68 O71 1.970 . S
Co68 N85 1.989 . S
Co68 O93 1.967 . S
Co68 O100 1.920 . S
Co69 O72 1.966 . S
Co69 N78 2.022 . S
Co69 N86 1.993 . S
Co69 O94 1.941 . S
C70 O71 1.258 . S
C70 O72 1.263 . S
O71 Co68 1.970 . S
O71 C70 1.258 . S
O72 Co69 1.966 . S
O72 C70 1.263 . S
C73 O74 1.235 . S
C73 O100 1.289 . S
O74 C73 1.235 . S
C75 C77 1.400 . S
C75 N78 1.351 . S
C75 C80 1.501 . S
C76 C77 1.387 . S
C76 N79 1.341 . S
C77 C75 1.400 . S
C77 C76 1.387 . S
N78 Co69 2.022 . S
N78 C75 1.351 . S
N78 N79 1.365 . S
N79 C76 1.341 . S
N79 N78 1.365 . S
N79 H99 0.862 . S
C80 C75 1.501 . S
C80 H81 0.961 . S
C80 H82 0.961 . S
C80 H83 0.960 . S
H81 C80 0.961 . S
H82 C80 0.961 . S
H83 C80 0.960 . S
C84 N85 1.342 . S
C84 C88 1.401 . S
C84 C89 1.499 . S
N85 Co68 1.989 . S
N85 C84 1.342 . S
N85 N86 1.388 . S
N86 Co69 1.993 . S
N86 N85 1.388 . S
N86 C87 1.346 . S
C87 N86 1.346 . S
C87 C88 1.396 . S
C87 C97 1.510 . S
C88 C84 1.401 . S
C88 C87 1.396 . S
C89 C84 1.499 . S
C89 H90 0.959 . S
C89 H91 0.960 . S
C89 H92 0.961 . S
H90 C89 0.959 . S
H91 C89 0.960 . S
H92 C89 0.961 . S
O93 Co68 1.967 . S
O93 C101 1.258 . S
O94 Co69 1.941 . S
O94 C101 1.266 . S
H95 C97 0.959 . S
H96 C97 0.961 . S
C97 C87 1.510 . S
C97 H95 0.959 . S
C97 H96 0.961 . S
C97 H98 0.960 . S
H98 C97 0.960 . S
H99 N79 0.862 . S
O100 Co68 1.920 . S
O100 C73 1.289 . S
C101 O93 1.258 . S
C101 O94 1.266 . S
Co102 O105 1.970 . S
Co102 N119 1.989 . S
Co102 O127 1.967 . S
Co102 O134 1.920 . S
Co103 O106 1.966 . S
Co103 N112 2.022 . S
Co103 N120 1.993 . S
Co103 O128 1.941 . S
C104 O105 1.258 . S
C104 O106 1.263 . S
O105 Co102 1.970 . S
O105 C104 1.258 . S
O106 Co103 1.966 . S
O106 C104 1.263 . S
C107 O108 1.235 . S
C107 O134 1.289 . S
O108 C107 1.235 . S
C109 C111 1.400 . S
C109 N112 1.351 . S
C109 C114 1.501 . S
C110 C111 1.387 1_556 S
C110 N113 1.347 . S
C111 C109 1.400 . S
C111 C110 1.387 1_554 S
N112 Co103 2.022 . S
N112 C109 1.351 . S
N112 N113 1.330 1_554 S
N113 C110 1.347 . S
N113 N112 1.330 1_556 S
N113 H133 0.889 . S
C114 C109 1.501 . S
C114 H115 0.961 . S
C114 H116 0.961 . S
C114 H117 0.960 . S
H115 C114 0.961 . S
H116 C114 0.961 . S
H117 C114 0.960 . S
C118 N119 1.342 . S
C118 C122 1.401 . S
C118 C123 1.499 . S
N119 Co102 1.989 . S
N119 C118 1.342 . S
N119 N120 1.388 . S
N120 Co103 1.993 . S
N120 N119 1.388 . S
N120 C121 1.346 . S
C121 N120 1.346 . S
C121 C122 1.396 . S
C121 C131 1.510 . S
C122 C118 1.401 . S
C122 C121 1.396 . S
C123 C118 1.499 . S
C123 H124 0.959 . S
C123 H125 0.960 . S
C123 H126 0.961 . S
H124 C123 0.959 . S
H125 C123 0.960 . S
H126 C123 0.961 . S
O127 Co102 1.967 . S
O127 C135 1.258 . S
O128 Co103 1.941 . S
O128 C135 1.266 . S
H129 C131 0.959 1_556 S
H130 C131 0.961 . S
C131 C121 1.510 . S
C131 H129 0.959 1_554 S
C131 H130 0.961 . S
C131 H132 0.960 . S
H132 C131 0.960 . S
H133 N113 0.889 . S
O134 Co102 1.920 . S
O134 C107 1.289 . S
C135 O127 1.258 . S
C135 O128 1.266 . S
Co136 O139 1.970 . S
Co136 N153 1.989 . S
Co136 O161 1.967 . S
Co136 O168 1.920 . S
Co137 O140 1.966 . S
Co137 N146 2.022 . S
Co137 N154 1.993 . S
Co137 O162 1.941 . S
C138 O139 1.258 . S
C138 O140 1.263 . S
O139 Co136 1.970 . S
O139 C138 1.258 . S
O140 Co137 1.966 . S
O140 C138 1.263 . S
C141 O142 1.235 . S
C141 O168 1.289 . S
O142 C141 1.235 . S
C143 C145 1.400 . S
C143 N146 1.351 . S
C143 C148 1.501 . S
C144 C145 1.387 . S
C144 N147 1.341 . S
C145 C143 1.400 . S
C145 C144 1.387 . S
N146 Co137 2.022 . S
N146 C143 1.351 . S
N146 N147 1.365 . S
N147 C144 1.341 . S
N147 N146 1.365 . S
N147 H167 0.862 . S
C148 C143 1.501 . S
C148 H149 0.961 . S
C148 H150 0.961 . S
C148 H151 0.960 . S
H149 C148 0.961 . S
H150 C148 0.961 . S
H151 C148 0.960 . S
C152 N153 1.342 . S
C152 C156 1.401 . S
C152 C157 1.499 . S
N153 Co136 1.989 . S
N153 C152 1.342 . S
N153 N154 1.388 . S
N154 Co137 1.993 . S
N154 N153 1.388 . S
N154 C155 1.346 . S
C155 N154 1.346 . S
C155 C156 1.396 . S
C155 C165 1.510 . S
C156 C152 1.401 . S
C156 C155 1.396 . S
C157 C152 1.499 . S
C157 H158 0.959 . S
C157 H159 0.960 . S
C157 H160 0.961 . S
H158 C157 0.959 . S
H159 C157 0.960 . S
H160 C157 0.961 . S
O161 Co136 1.967 . S
O161 C169 1.258 . S
O162 Co137 1.941 . S
O162 C169 1.266 . S
H163 C165 0.959 . S
H164 C165 0.961 . S
C165 C155 1.510 . S
C165 H163 0.959 . S
C165 H164 0.961 . S
C165 H166 0.960 . S
H166 C165 0.960 . S
H167 N147 0.862 . S
O168 Co136 1.920 . S
O168 C141 1.289 . S
C169 O161 1.258 . S
C169 O162 1.266 . S
Co170 O173 1.970 . S
Co170 N187 1.989 . S
Co170 O195 1.967 . S
Co170 O202 1.920 . S
Co171 O174 1.966 . S
Co171 N180 2.022 . S
Co171 N188 1.993 . S
Co171 O196 1.941 . S
C172 O173 1.258 . S
C172 O174 1.263 . S
O173 Co170 1.970 . S
O173 C172 1.258 . S
O174 Co171 1.966 . S
O174 C172 1.263 . S
C175 O176 1.235 . S
C175 O202 1.289 . S
O176 C175 1.235 . S
C177 C179 1.400 . S
C177 N180 1.351 . S
C177 C182 1.501 . S
C178 C179 1.387 . S
C178 N181 1.341 . S
C179 C177 1.400 . S
C179 C178 1.387 . S
N180 Co171 2.022 . S
N180 C177 1.351 . S
N180 N181 1.365 . S
N181 C178 1.341 . S
N181 N180 1.365 . S
N181 H201 0.862 . S
C182 C177 1.501 . S
C182 H183 0.961 . S
C182 H184 0.961 . S
C182 H185 0.960 . S
H183 C182 0.961 . S
H184 C182 0.961 . S
H185 C182 0.960 . S
C186 N187 1.342 . S
C186 C190 1.401 . S
C186 C191 1.499 . S
N187 Co170 1.989 . S
N187 C186 1.342 . S
N187 N188 1.388 . S
N188 Co171 1.993 . S
N188 N187 1.388 . S
N188 C189 1.346 . S
C189 N188 1.346 . S
C189 C190 1.396 . S
C189 C199 1.510 . S
C190 C186 1.401 . S
C190 C189 1.396 . S
C191 C186 1.499 . S
C191 H192 0.959 . S
C191 H193 0.960 . S
C191 H194 0.961 . S
H192 C191 0.959 . S
H193 C191 0.960 . S
H194 C191 0.961 . S
O195 Co170 1.967 . S
O195 C203 1.258 . S
O196 Co171 1.941 . S
O196 C203 1.266 . S
H197 C199 0.959 . S
H198 C199 0.961 . S
C199 C189 1.510 . S
C199 H197 0.959 . S
C199 H198 0.961 . S
C199 H200 0.960 . S
H200 C199 0.960 . S
H201 N181 0.862 . S
O202 Co170 1.920 . S
O202 C175 1.289 . S
C203 O195 1.258 . S
C203 O196 1.266 . S
Co204 O207 1.970 . S
Co204 N221 1.989 . S
Co204 O229 1.967 . S
Co204 O236 1.920 . S
Co205 O208 1.966 . S
Co205 N214 2.022 . S
Co205 N222 1.993 . S
Co205 O230 1.941 . S
C206 O207 1.258 . S
C206 O208 1.263 . S
O207 Co204 1.970 . S
O207 C206 1.258 . S
O208 Co205 1.966 . S
O208 C206 1.263 . S
C209 O210 1.235 . S
C209 O236 1.289 . S
O210 C209 1.235 . S
C211 C213 1.400 . S
C211 N214 1.351 . S
C211 C216 1.501 . S
C212 C213 1.387 . S
C212 N215 1.341 . S
C213 C211 1.400 . S
C213 C212 1.387 . S
N214 Co205 2.022 . S
N214 C211 1.351 . S
N214 N215 1.365 . S
N215 C212 1.341 . S
N215 N214 1.365 . S
N215 H235 0.862 . S
C216 C211 1.501 . S
C216 H217 0.961 . S
C216 H218 0.961 . S
C216 H219 0.960 . S
H217 C216 0.961 . S
H218 C216 0.961 . S
H219 C216 0.960 . S
C220 N221 1.342 . S
C220 C224 1.401 . S
C220 C225 1.499 . S
N221 Co204 1.989 . S
N221 C220 1.342 . S
N221 N222 1.388 . S
N222 Co205 1.993 . S
N222 N221 1.388 . S
N222 C223 1.346 . S
C223 N222 1.346 . S
C223 C224 1.396 . S
C223 C233 1.510 . S
C224 C220 1.401 . S
C224 C223 1.396 . S
C225 C220 1.499 . S
C225 H226 0.959 . S
C225 H227 0.960 . S
C225 H228 0.961 . S
H226 C225 0.959 . S
H227 C225 0.960 . S
H228 C225 0.961 . S
O229 Co204 1.967 . S
O229 C237 1.258 . S
O230 Co205 1.941 . S
O230 C237 1.266 . S
H231 C233 0.959 . S
H232 C233 0.961 . S
C233 C223 1.510 . S
C233 H231 0.959 . S
C233 H232 0.961 . S
C233 H234 0.960 . S
H234 C233 0.960 . S
H235 N215 0.862 . S
O236 Co204 1.920 . S
O236 C209 1.289 . S
C237 O229 1.258 . S
C237 O230 1.266 . S
Co238 O241 1.970 . S
Co238 N255 1.989 . S
Co238 O263 1.967 . S
Co238 O270 1.920 . S
Co239 O242 1.966 . S
Co239 N248 2.022 . S
Co239 N256 1.993 . S
Co239 O264 1.941 . S
C240 O241 1.258 . S
C240 O242 1.263 . S
O241 Co238 1.970 . S
O241 C240 1.258 . S
O242 Co239 1.966 . S
O242 C240 1.263 . S
C243 O244 1.235 . S
C243 O270 1.289 . S
O244 C243 1.235 . S
C245 C247 1.400 . S
C245 N248 1.351 . S
C245 C250 1.501 . S
C246 C247 1.387 1_554 S
C246 N249 1.347 . S
C247 C245 1.400 . S
C247 C246 1.387 1_556 S
N248 Co239 2.022 . S
N248 C245 1.351 . S
N248 N249 1.330 1_556 S
N249 C246 1.347 . S
N249 N248 1.330 1_554 S
N249 H269 0.889 . S
C250 C245 1.501 . S
C250 H251 0.961 . S
C250 H252 0.961 . S
C250 H253 0.960 . S
H251 C250 0.961 . S
H252 C250 0.961 . S
H253 C250 0.960 . S
C254 N255 1.342 . S
C254 C258 1.401 . S
C254 C259 1.499 . S
N255 Co238 1.989 . S
N255 C254 1.342 . S
N255 N256 1.388 . S
N256 Co239 1.993 . S
N256 N255 1.388 . S
N256 C257 1.346 . S
C257 N256 1.346 . S
C257 C258 1.396 . S
C257 C267 1.510 . S
C258 C254 1.401 . S
C258 C257 1.396 . S
C259 C254 1.499 . S
C259 H260 0.959 . S
C259 H261 0.960 1_455 S
C259 H262 0.961 1_455 S
H260 C259 0.959 . S
H261 C259 0.960 1_655 S
H262 C259 0.961 1_655 S
O263 Co238 1.967 . S
O263 C271 1.258 . S
O264 Co239 1.941 . S
O264 C271 1.266 . S
H265 C267 0.959 1_554 S
H266 C267 0.961 . S
C267 C257 1.510 . S
C267 H265 0.959 1_556 S
C267 H266 0.961 . S
C267 H268 0.960 . S
H268 C267 0.960 . S
H269 N249 0.889 . S
O270 Co238 1.920 . S
O270 C243 1.289 . S
C271 O263 1.258 . S
C271 O264 1.266 . S
Co272 O275 1.970 . S
Co272 N289 1.989 . S
Co272 O297 1.967 . S
Co272 O304 1.920 . S
Co273 O276 1.966 . S
Co273 N282 2.022 . S
Co273 N290 1.993 . S
Co273 O298 1.941 . S
C274 O275 1.258 . S
C274 O276 1.263 . S
O275 Co272 1.970 . S
O275 C274 1.258 . S
O276 Co273 1.966 . S
O276 C274 1.263 . S
C277 O278 1.235 . S
C277 O304 1.289 . S
O278 C277 1.235 . S
C279 C281 1.400 . S
C279 N282 1.351 . S
C279 C284 1.501 . S
C280 C281 1.387 . S
C280 N283 1.341 . S
C281 C279 1.400 . S
C281 C280 1.387 . S
N282 Co273 2.022 . S
N282 C279 1.351 . S
N282 N283 1.365 . S
N283 C280 1.341 . S
N283 N282 1.365 . S
N283 H303 0.862 . S
C284 C279 1.501 . S
C284 H285 0.961 . S
C284 H286 0.961 . S
C284 H287 0.960 . S
H285 C284 0.961 . S
H286 C284 0.961 . S
H287 C284 0.960 . S
C288 N289 1.342 . S
C288 C292 1.401 . S
C288 C293 1.499 . S
N289 Co272 1.989 . S
N289 C288 1.342 . S
N289 N290 1.388 . S
N290 Co273 1.993 . S
N290 N289 1.388 . S
N290 C291 1.346 . S
C291 N290 1.346 . S
C291 C292 1.396 . S
C291 C301 1.510 . S
C292 C288 1.401 . S
C292 C291 1.396 . S
C293 C288 1.499 . S
C293 H294 0.959 . S
C293 H295 0.960 . S
C293 H296 0.961 . S
H294 C293 0.959 . S
H295 C293 0.960 . S
H296 C293 0.961 . S
O297 Co272 1.967 . S
O297 C305 1.258 . S
O298 Co273 1.941 . S
O298 C305 1.266 . S
H299 C301 0.959 . S
H300 C301 0.961 . S
C301 C291 1.510 . S
C301 H299 0.959 . S
C301 H300 0.961 . S
C301 H302 0.960 . S
H302 C301 0.960 . S
H303 N283 0.862 . S
O304 Co272 1.920 . S
O304 C277 1.289 . S
C305 O297 1.258 . S
C305 O298 1.266 . S
Co306 O309 1.970 . S
Co306 N323 1.989 . S
Co306 O331 1.967 . S
Co306 O338 1.920 . S
Co307 O310 1.966 . S
Co307 N316 2.022 . S
Co307 N324 1.993 . S
Co307 O332 1.941 . S
C308 O309 1.258 . S
C308 O310 1.263 . S
O309 Co306 1.970 . S
O309 C308 1.258 . S
O310 Co307 1.966 . S
O310 C308 1.263 . S
C311 O312 1.235 . S
C311 O338 1.289 . S
O312 C311 1.235 . S
C313 C315 1.400 . S
C313 N316 1.351 . S
C313 C318 1.501 . S
C314 C315 1.387 1_565 S
C314 N317 1.347 . S
C315 C313 1.400 . S
C315 C314 1.387 1_545 S
N316 Co307 2.022 . S
N316 C313 1.351 . S
N316 N317 1.330 1_545 S
N317 C314 1.347 . S
N317 N316 1.330 1_565 S
N317 H337 0.889 . S
C318 C313 1.501 . S
C318 H319 0.961 . S
C318 H320 0.961 . S
C318 H321 0.960 . S
H319 C318 0.961 . S
H320 C318 0.961 . S
H321 C318 0.960 . S
C322 N323 1.342 . S
C322 C326 1.401 . S
C322 C327 1.499 . S
N323 Co306 1.989 . S
N323 C322 1.342 . S
N323 N324 1.388 . S
N324 Co307 1.993 . S
N324 N323 1.388 . S
N324 C325 1.346 . S
C325 N324 1.346 . S
C325 C326 1.396 . S
C325 C335 1.510 . S
C326 C322 1.401 . S
C326 C325 1.396 . S
C327 C322 1.499 . S
C327 H328 0.959 . S
C327 H329 0.960 . S
C327 H330 0.961 . S
H328 C327 0.959 . S
H329 C327 0.960 . S
H330 C327 0.961 . S
O331 Co306 1.967 . S
O331 C339 1.258 . S
O332 Co307 1.941 . S
O332 C339 1.266 . S
H333 C335 0.959 1_565 S
H334 C335 0.961 . S
C335 C325 1.510 . S
C335 H333 0.959 1_545 S
C335 H334 0.961 . S
C335 H336 0.960 . S
H336 C335 0.960 . S
H337 N317 0.889 . S
O338 Co306 1.920 . S
O338 C311 1.289 . S
C339 O331 1.258 . S
C339 O332 1.266 . S
Co340 O343 1.970 . S
Co340 N357 1.989 . S
Co340 O365 1.967 . S
Co340 O372 1.920 . S
Co341 O344 1.966 . S
Co341 N350 2.022 . S
Co341 N358 1.993 . S
Co341 O366 1.941 . S
C342 O343 1.258 . S
C342 O344 1.263 . S
O343 Co340 1.970 . S
O343 C342 1.258 . S
O344 Co341 1.966 . S
O344 C342 1.263 . S
C345 O346 1.235 . S
C345 O372 1.289 . S
O346 C345 1.235 . S
C347 C349 1.400 . S
C347 N350 1.351 . S
C347 C352 1.501 . S
C348 C349 1.387 . S
C348 N351 1.341 . S
C349 C347 1.400 . S
C349 C348 1.387 . S
N350 Co341 2.022 . S
N350 C347 1.351 . S
N350 N351 1.365 . S
N351 C348 1.341 . S
N351 N350 1.365 . S
N351 H371 0.862 . S
C352 C347 1.501 . S
C352 H353 0.961 . S
C352 H354 0.961 . S
C352 H355 0.960 . S
H353 C352 0.961 . S
H354 C352 0.961 . S
H355 C352 0.960 . S
C356 N357 1.342 . S
C356 C360 1.401 . S
C356 C361 1.499 . S
N357 Co340 1.989 . S
N357 C356 1.342 . S
N357 N358 1.388 . S
N358 Co341 1.993 . S
N358 N357 1.388 . S
N358 C359 1.346 . S
C359 N358 1.346 . S
C359 C360 1.396 . S
C359 C369 1.510 . S
C360 C356 1.401 . S
C360 C359 1.396 . S
C361 C356 1.499 . S
C361 H362 0.959 . S
C361 H363 0.960 . S
C361 H364 0.961 . S
H362 C361 0.959 . S
H363 C361 0.960 . S
H364 C361 0.961 . S
O365 Co340 1.967 . S
O365 C373 1.258 . S
O366 Co341 1.941 . S
O366 C373 1.266 . S
H367 C369 0.959 . S
H368 C369 0.961 . S
C369 C359 1.510 . S
C369 H367 0.959 . S
C369 H368 0.961 . S
C369 H370 0.960 . S
H370 C369 0.960 . S
H371 N351 0.862 . S
O372 Co340 1.920 . S
O372 C345 1.289 . S
C373 O365 1.258 . S
C373 O366 1.266 . S
Co374 O377 1.970 . S
Co374 N391 1.989 . S
Co374 O399 1.967 . S
Co374 O406 1.920 . S
Co375 O378 1.966 . S
Co375 N384 2.022 . S
Co375 N392 1.993 . S
Co375 O400 1.941 . S
C376 O377 1.258 . S
C376 O378 1.263 . S
O377 Co374 1.970 . S
O377 C376 1.258 . S
O378 Co375 1.966 . S
O378 C376 1.263 . S
C379 O380 1.235 . S
C379 O406 1.289 . S
O380 C379 1.235 . S
C381 C383 1.400 . S
C381 N384 1.351 . S
C381 C386 1.501 . S
C382 C383 1.387 1_545 S
C382 N385 1.347 . S
C383 C381 1.400 . S
C383 C382 1.387 1_565 S
N384 Co375 2.022 . S
N384 C381 1.351 . S
N384 N385 1.330 1_565 S
N385 C382 1.347 . S
N385 N384 1.330 1_545 S
N385 H405 0.889 . S
C386 C381 1.501 . S
C386 H387 0.961 . S
C386 H388 0.961 . S
C386 H389 0.960 . S
H387 C386 0.961 . S
H388 C386 0.961 . S
H389 C386 0.960 . S
C390 N391 1.342 . S
C390 C394 1.401 . S
C390 C395 1.499 . S
N391 Co374 1.989 . S
N391 C390 1.342 . S
N391 N392 1.388 . S
N392 Co375 1.993 . S
N392 N391 1.388 . S
N392 C393 1.346 . S
C393 N392 1.346 . S
C393 C394 1.396 . S
C393 C403 1.510 . S
C394 C390 1.401 . S
C394 C393 1.396 . S
C395 C390 1.499 . S
C395 H396 0.959 . S
C395 H397 0.960 1_556 S
C395 H398 0.961 1_556 S
H396 C395 0.959 . S
H397 C395 0.960 1_554 S
H398 C395 0.961 1_554 S
O399 Co374 1.967 . S
O399 C407 1.258 . S
O400 Co375 1.941 . S
O400 C407 1.266 . S
H401 C403 0.959 1_545 S
H402 C403 0.961 . S
C403 C393 1.510 . S
C403 H401 0.959 1_565 S
C403 H402 0.961 . S
C403 H404 0.960 . S
H404 C403 0.960 . S
H405 N385 0.889 . S
O406 Co374 1.920 . S
O406 C379 1.289 . S
C407 O399 1.258 . S
C407 O400 1.266 . S
Co408 O411 1.970 . S
Co408 N425 1.989 . S
Co408 O433 1.967 . S
Co408 O440 1.920 . S
Co409 O412 1.966 . S
Co409 N418 2.022 . S
Co409 N426 1.993 . S
Co409 O434 1.941 . S
C410 O411 1.258 . S
C410 O412 1.263 . S
O411 Co408 1.970 . S
O411 C410 1.258 . S
O412 Co409 1.966 . S
O412 C410 1.263 . S
C413 O414 1.235 . S
C413 O440 1.289 . S
O414 C413 1.235 . S
C415 C417 1.400 . S
C415 N418 1.351 . S
C415 C420 1.501 . S
C416 C417 1.387 . S
C416 N419 1.341 . S
C417 C415 1.400 . S
C417 C416 1.387 . S
N418 Co409 2.022 . S
N418 C415 1.351 . S
N418 N419 1.365 . S
N419 C416 1.341 . S
N419 N418 1.365 . S
N419 H439 0.862 . S
C420 C415 1.501 . S
C420 H421 0.961 . S
C420 H422 0.961 . S
C420 H423 0.960 . S
H421 C420 0.961 . S
H422 C420 0.961 . S
H423 C420 0.960 . S
C424 N425 1.342 . S
C424 C428 1.401 . S
C424 C429 1.499 . S
N425 Co408 1.989 . S
N425 C424 1.342 . S
N425 N426 1.388 . S
N426 Co409 1.993 . S
N426 N425 1.388 . S
N426 C427 1.346 . S
C427 N426 1.346 . S
C427 C428 1.396 . S
C427 C437 1.510 . S
C428 C424 1.401 . S
C428 C427 1.396 . S
C429 C424 1.499 . S
C429 H430 0.959 . S
C429 H431 0.960 . S
C429 H432 0.961 . S
H430 C429 0.959 . S
H431 C429 0.960 . S
H432 C429 0.961 . S
O433 Co408 1.967 . S
O433 C441 1.258 . S
O434 Co409 1.941 . S
O434 C441 1.266 . S
H435 C437 0.959 . S
H436 C437 0.961 . S
C437 C427 1.510 . S
C437 H435 0.959 . S
C437 H436 0.961 . S
C437 H438 0.960 . S
H438 C437 0.960 . S
H439 N419 0.862 . S
O440 Co408 1.920 . S
O440 C413 1.289 . S
C441 O433 1.258 . S
C441 O434 1.266 . S
Co442 O445 1.970 . S
Co442 N459 1.989 . S
Co442 O467 1.967 . S
Co442 O474 1.920 . S
Co443 O446 1.966 . S
Co443 N452 2.022 . S
Co443 N460 1.993 . S
Co443 O468 1.941 . S
C444 O445 1.258 . S
C444 O446 1.263 . S
O445 Co442 1.970 . S
O445 C444 1.258 . S
O446 Co443 1.966 . S
O446 C444 1.263 . S
C447 O448 1.235 . S
C447 O474 1.289 . S
O448 C447 1.235 . S
C449 C451 1.400 . S
C449 N452 1.351 . S
C449 C454 1.501 . S
C450 C451 1.387 1_565 S
C450 N453 1.347 . S
C451 C449 1.400 . S
C451 C450 1.387 1_545 S
N452 Co443 2.022 . S
N452 C449 1.351 . S
N452 N453 1.330 1_545 S
N453 C450 1.347 . S
N453 N452 1.330 1_565 S
N453 H473 0.889 . S
C454 C449 1.501 . S
C454 H455 0.961 . S
C454 H456 0.961 . S
C454 H457 0.960 . S
H455 C454 0.961 . S
H456 C454 0.961 . S
H457 C454 0.960 . S
C458 N459 1.342 . S
C458 C462 1.401 . S
C458 C463 1.499 . S
N459 Co442 1.989 . S
N459 C458 1.342 . S
N459 N460 1.388 . S
N460 Co443 1.993 . S
N460 N459 1.388 . S
N460 C461 1.346 . S
C461 N460 1.346 . S
C461 C462 1.396 . S
C461 C471 1.510 . S
C462 C458 1.401 . S
C462 C461 1.396 . S
C463 C458 1.499 . S
C463 H464 0.959 . S
C463 H465 0.960 . S
C463 H466 0.961 . S
H464 C463 0.959 . S
H465 C463 0.960 . S
H466 C463 0.961 . S
O467 Co442 1.967 . S
O467 C475 1.258 . S
O468 Co443 1.941 . S
O468 C475 1.266 . S
H469 C471 0.959 1_565 S
H470 C471 0.961 . S
C471 C461 1.510 . S
C471 H469 0.959 1_545 S
C471 H470 0.961 . S
C471 H472 0.960 . S
H472 C471 0.960 . S
H473 N453 0.889 . S
O474 Co442 1.920 . S
O474 C447 1.289 . S
C475 O467 1.258 . S
C475 O468 1.266 . S
Co476 O479 1.970 . S
Co476 N493 1.989 . S
Co476 O501 1.967 . S
Co476 O508 1.920 . S
Co477 O480 1.966 . S
Co477 N486 2.022 . S
Co477 N494 1.993 . S
Co477 O502 1.941 . S
C478 O479 1.258 . S
C478 O480 1.263 . S
O479 Co476 1.970 . S
O479 C478 1.258 . S
O480 Co477 1.966 . S
O480 C478 1.263 . S
C481 O482 1.235 . S
C481 O508 1.289 . S
O482 C481 1.235 . S
C483 C485 1.400 . S
C483 N486 1.351 . S
C483 C488 1.501 . S
C484 C485 1.387 . S
C484 N487 1.341 . S
C485 C483 1.400 . S
C485 C484 1.387 . S
N486 Co477 2.022 . S
N486 C483 1.351 . S
N486 N487 1.365 . S
N487 C484 1.341 . S
N487 N486 1.365 . S
N487 H507 0.862 . S
C488 C483 1.501 . S
C488 H489 0.961 . S
C488 H490 0.961 . S
C488 H491 0.960 . S
H489 C488 0.961 . S
H490 C488 0.961 . S
H491 C488 0.960 . S
C492 N493 1.342 . S
C492 C496 1.401 . S
C492 C497 1.499 . S
N493 Co476 1.989 . S
N493 C492 1.342 . S
N493 N494 1.388 . S
N494 Co477 1.993 . S
N494 N493 1.388 . S
N494 C495 1.346 . S
C495 N494 1.346 . S
C495 C496 1.396 . S
C495 C505 1.510 . S
C496 C492 1.401 . S
C496 C495 1.396 . S
C497 C492 1.499 . S
C497 H498 0.959 . S
C497 H499 0.960 . S
C497 H500 0.961 . S
H498 C497 0.959 . S
H499 C497 0.960 . S
H500 C497 0.961 . S
O501 Co476 1.967 . S
O501 C509 1.258 . S
O502 Co477 1.941 . S
O502 C509 1.266 . S
H503 C505 0.959 . S
H504 C505 0.961 . S
C505 C495 1.510 . S
C505 H503 0.959 . S
C505 H504 0.961 . S
C505 H506 0.960 . S
H506 C505 0.960 . S
H507 N487 0.862 . S
O508 Co476 1.920 . S
O508 C481 1.289 . S
C509 O501 1.258 . S
C509 O502 1.266 . S
Co510 O513 1.970 . S
Co510 N527 1.989 . S
Co510 O535 1.967 . S
Co510 O542 1.920 . S
Co511 O514 1.966 . S
Co511 N520 2.022 . S
Co511 N528 1.993 . S
Co511 O536 1.941 . S
C512 O513 1.258 . S
C512 O514 1.263 . S
O513 Co510 1.970 . S
O513 C512 1.258 . S
O514 Co511 1.966 . S
O514 C512 1.263 . S
C515 O516 1.235 . S
C515 O542 1.289 . S
O516 C515 1.235 . S
C517 C519 1.400 . S
C517 N520 1.351 . S
C517 C522 1.501 . S
C518 C519 1.387 1_545 S
C518 N521 1.347 . S
C519 C517 1.400 . S
C519 C518 1.387 1_565 S
N520 Co511 2.022 . S
N520 C517 1.351 . S
N520 N521 1.330 1_565 S
N521 C518 1.347 . S
N521 N520 1.330 1_545 S
N521 H541 0.889 . S
C522 C517 1.501 . S
C522 H523 0.961 . S
C522 H524 0.961 . S
C522 H525 0.960 . S
H523 C522 0.961 . S
H524 C522 0.961 . S
H525 C522 0.960 . S
C526 N527 1.342 . S
C526 C530 1.401 . S
C526 C531 1.499 . S
N527 Co510 1.989 . S
N527 C526 1.342 . S
N527 N528 1.388 . S
N528 Co511 1.993 . S
N528 N527 1.388 . S
N528 C529 1.346 . S
C529 N528 1.346 . S
C529 C530 1.396 . S
C529 C539 1.510 . S
C530 C526 1.401 . S
C530 C529 1.396 . S
C531 C526 1.499 . S
C531 H532 0.959 . S
C531 H533 0.960 1_554 S
C531 H534 0.961 1_554 S
H532 C531 0.959 . S
H533 C531 0.960 1_556 S
H534 C531 0.961 1_556 S
O535 Co510 1.967 . S
O535 C543 1.258 . S
O536 Co511 1.941 . S
O536 C543 1.266 . S
H537 C539 0.959 1_545 S
H538 C539 0.961 . S
C539 C529 1.510 . S
C539 H537 0.959 1_565 S
C539 H538 0.961 . S
C539 H540 0.960 . S
H540 C539 0.960 . S
H541 N521 0.889 . S
O542 Co510 1.920 . S
O542 C515 1.289 . S
C543 O535 1.258 . S
C543 O536 1.266 . S
Co544 O547 1.970 . S
Co544 N561 1.989 . S
Co544 O569 1.967 . S
Co544 O576 1.920 . S
Co545 O548 1.966 . S
Co545 N554 2.022 . S
Co545 N562 1.993 . S
Co545 O570 1.941 . S
C546 O547 1.258 . S
C546 O548 1.263 . S
O547 Co544 1.970 . S
O547 C546 1.258 . S
O548 Co545 1.966 . S
O548 C546 1.263 . S
C549 O550 1.235 . S
C549 O576 1.289 . S
O550 C549 1.235 . S
C551 C553 1.400 . S
C551 N554 1.351 . S
C551 C556 1.501 . S
C552 C553 1.387 . S
C552 N555 1.341 . S
C553 C551 1.400 . S
C553 C552 1.387 . S
N554 Co545 2.022 . S
N554 C551 1.351 . S
N554 N555 1.365 . S
N555 C552 1.341 . S
N555 N554 1.365 . S
N555 H575 0.862 . S
C556 C551 1.501 . S
C556 H557 0.961 . S
C556 H558 0.961 . S
C556 H559 0.960 . S
H557 C556 0.961 . S
H558 C556 0.961 . S
H559 C556 0.960 . S
C560 N561 1.342 . S
C560 C564 1.401 . S
C560 C565 1.499 . S
N561 Co544 1.989 . S
N561 C560 1.342 . S
N561 N562 1.388 . S
N562 Co545 1.993 . S
N562 N561 1.388 . S
N562 C563 1.346 . S
C563 N562 1.346 . S
C563 C564 1.396 . S
C563 C573 1.510 . S
C564 C560 1.401 . S
C564 C563 1.396 . S
C565 C560 1.499 . S
C565 H566 0.959 . S
C565 H567 0.960 . S
C565 H568 0.961 . S
H566 C565 0.959 . S
H567 C565 0.960 . S
H568 C565 0.961 . S
O569 Co544 1.967 . S
O569 C577 1.258 . S
O570 Co545 1.941 . S
O570 C577 1.266 . S
H571 C573 0.959 . S
H572 C573 0.961 . S
C573 C563 1.510 . S
C573 H571 0.959 . S
C573 H572 0.961 . S
C573 H574 0.960 . S
H574 C573 0.960 . S
H575 N555 0.862 . S
O576 Co544 1.920 . S
O576 C549 1.289 . S
C577 O569 1.258 . S
C577 O570 1.266 . S
Co578 O581 1.970 . S
Co578 N595 1.989 . S
Co578 O603 1.967 . S
Co578 O610 1.920 . S
Co579 O582 1.966 . S
Co579 N588 2.022 . S
Co579 N596 1.993 . S
Co579 O604 1.941 . S
C580 O581 1.258 . S
C580 O582 1.263 . S
O581 Co578 1.970 . S
O581 C580 1.258 . S
O582 Co579 1.966 . S
O582 C580 1.263 . S
C583 O584 1.235 . S
C583 O610 1.289 . S
O584 C583 1.235 . S
C585 C587 1.400 . S
C585 N588 1.351 . S
C585 C590 1.501 . S
C586 C587 1.387 . S
C586 N589 1.341 . S
C587 C585 1.400 . S
C587 C586 1.387 . S
N588 Co579 2.022 . S
N588 C585 1.351 . S
N588 N589 1.365 . S
N589 C586 1.341 . S
N589 N588 1.365 . S
N589 H609 0.862 . S
C590 C585 1.501 . S
C590 H591 0.961 . S
C590 H592 0.961 . S
C590 H593 0.960 . S
H591 C590 0.961 . S
H592 C590 0.961 . S
H593 C590 0.960 . S
C594 N595 1.342 . S
C594 C598 1.401 . S
C594 C599 1.499 . S
N595 Co578 1.989 . S
N595 C594 1.342 . S
N595 N596 1.388 . S
N596 Co579 1.993 . S
N596 N595 1.388 . S
N596 C597 1.346 . S
C597 N596 1.346 . S
C597 C598 1.396 . S
C597 C607 1.510 . S
C598 C594 1.401 . S
C598 C597 1.396 . S
C599 C594 1.499 . S
C599 H600 0.959 . S
C599 H601 0.960 . S
C599 H602 0.961 . S
H600 C599 0.959 . S
H601 C599 0.960 . S
H602 C599 0.961 . S
O603 Co578 1.967 . S
O603 C611 1.258 . S
O604 Co579 1.941 . S
O604 C611 1.266 . S
H605 C607 0.959 . S
H606 C607 0.961 . S
C607 C597 1.510 . S
C607 H605 0.959 . S
C607 H606 0.961 . S
C607 H608 0.960 . S
H608 C607 0.960 . S
H609 N589 0.862 . S
O610 Co578 1.920 . S
O610 C583 1.289 . S
C611 O603 1.258 . S
C611 O604 1.266 . S
Co612 O615 1.970 . S
Co612 N629 1.989 . S
Co612 O637 1.967 . S
Co612 O644 1.920 . S
Co613 O616 1.966 . S
Co613 N622 2.022 . S
Co613 N630 1.993 . S
Co613 O638 1.941 . S
C614 O615 1.258 . S
C614 O616 1.263 . S
O615 Co612 1.970 . S
O615 C614 1.258 . S
O616 Co613 1.966 . S
O616 C614 1.263 . S
C617 O618 1.235 . S
C617 O644 1.289 . S
O618 C617 1.235 . S
C619 C621 1.400 . S
C619 N622 1.351 . S
C619 C624 1.501 . S
C620 C621 1.387 1_655 S
C620 N623 1.347 . S
C621 C619 1.400 . S
C621 C620 1.387 1_455 S
N622 Co613 2.022 . S
N622 C619 1.351 . S
N622 N623 1.330 1_455 S
N623 C620 1.347 . S
N623 N622 1.330 1_655 S
N623 H643 0.889 . S
C624 C619 1.501 . S
C624 H625 0.961 . S
C624 H626 0.961 . S
C624 H627 0.960 . S
H625 C624 0.961 . S
H626 C624 0.961 . S
H627 C624 0.960 . S
C628 N629 1.342 . S
C628 C632 1.401 . S
C628 C633 1.499 . S
N629 Co612 1.989 . S
N629 C628 1.342 . S
N629 N630 1.388 . S
N630 Co613 1.993 . S
N630 N629 1.388 . S
N630 C631 1.346 . S
C631 N630 1.346 . S
C631 C632 1.396 . S
C631 C641 1.510 . S
C632 C628 1.401 . S
C632 C631 1.396 . S
C633 C628 1.499 . S
C633 H634 0.959 . S
C633 H635 0.960 . S
C633 H636 0.961 . S
H634 C633 0.959 . S
H635 C633 0.960 . S
H636 C633 0.961 . S
O637 Co612 1.967 . S
O637 C645 1.258 . S
O638 Co613 1.941 . S
O638 C645 1.266 . S
H639 C641 0.959 1_655 S
H640 C641 0.961 . S
C641 C631 1.510 . S
C641 H639 0.959 1_455 S
C641 H640 0.961 . S
C641 H642 0.960 . S
H642 C641 0.960 . S
H643 N623 0.889 . S
O644 Co612 1.920 . S
O644 C617 1.289 . S
C645 O637 1.258 . S
C645 O638 1.266 . S
Co646 O649 1.970 . S
Co646 N663 1.989 . S
Co646 O671 1.967 . S
Co646 O678 1.920 . S
Co647 O650 1.966 . S
Co647 N656 2.022 . S
Co647 N664 1.993 . S
Co647 O672 1.941 . S
C648 O649 1.258 . S
C648 O650 1.263 . S
O649 Co646 1.970 . S
O649 C648 1.258 . S
O650 Co647 1.966 . S
O650 C648 1.263 . S
C651 O652 1.235 . S
C651 O678 1.289 . S
O652 C651 1.235 . S
C653 C655 1.400 . S
C653 N656 1.351 . S
C653 C658 1.501 . S
C654 C655 1.387 . S
C654 N657 1.341 . S
C655 C653 1.400 . S
C655 C654 1.387 . S
N656 Co647 2.022 . S
N656 C653 1.351 . S
N656 N657 1.365 . S
N657 C654 1.341 . S
N657 N656 1.365 . S
N657 H677 0.862 . S
C658 C653 1.501 . S
C658 H659 0.961 . S
C658 H660 0.961 . S
C658 H661 0.960 . S
H659 C658 0.961 . S
H660 C658 0.961 . S
H661 C658 0.960 . S
C662 N663 1.342 . S
C662 C666 1.401 . S
C662 C667 1.499 . S
N663 Co646 1.989 . S
N663 C662 1.342 . S
N663 N664 1.388 . S
N664 Co647 1.993 . S
N664 N663 1.388 . S
N664 C665 1.346 . S
C665 N664 1.346 . S
C665 C666 1.396 . S
C665 C675 1.510 . S
C666 C662 1.401 . S
C666 C665 1.396 . S
C667 C662 1.499 . S
C667 H668 0.959 . S
C667 H669 0.960 . S
C667 H670 0.961 . S
H668 C667 0.959 . S
H669 C667 0.960 . S
H670 C667 0.961 . S
O671 Co646 1.967 . S
O671 C679 1.258 . S
O672 Co647 1.941 . S
O672 C679 1.266 . S
H673 C675 0.959 . S
H674 C675 0.961 . S
C675 C665 1.510 . S
C675 H673 0.959 . S
C675 H674 0.961 . S
C675 H676 0.960 . S
H676 C675 0.960 . S
H677 N657 0.862 . S
O678 Co646 1.920 . S
O678 C651 1.289 . S
C679 O671 1.258 . S
C679 O672 1.266 . S
Co680 O683 1.970 . S
Co680 N697 1.989 . S
Co680 O705 1.967 . S
Co680 O712 1.920 . S
Co681 O684 1.966 . S
Co681 N690 2.022 . S
Co681 N698 1.993 . S
Co681 O706 1.941 . S
C682 O683 1.258 . S
C682 O684 1.263 . S
O683 Co680 1.970 . S
O683 C682 1.258 . S
O684 Co681 1.966 . S
O684 C682 1.263 . S
C685 O686 1.235 . S
C685 O712 1.289 . S
O686 C685 1.235 . S
C687 C689 1.400 . S
C687 N690 1.351 . S
C687 C692 1.501 . S
C688 C689 1.387 1_455 S
C688 N691 1.347 . S
C689 C687 1.400 . S
C689 C688 1.387 1_655 S
N690 Co681 2.022 . S
N690 C687 1.351 . S
N690 N691 1.330 1_655 S
N691 C688 1.347 . S
N691 N690 1.330 1_455 S
N691 H711 0.889 . S
C692 C687 1.501 . S
C692 H693 0.961 . S
C692 H694 0.961 . S
C692 H695 0.960 . S
H693 C692 0.961 . S
H694 C692 0.961 . S
H695 C692 0.960 . S
C696 N697 1.342 . S
C696 C700 1.401 . S
C696 C701 1.499 . S
N697 Co680 1.989 . S
N697 C696 1.342 . S
N697 N698 1.388 . S
N698 Co681 1.993 . S
N698 N697 1.388 . S
N698 C699 1.346 . S
C699 N698 1.346 . S
C699 C700 1.396 . S
C699 C709 1.510 . S
C700 C696 1.401 . S
C700 C699 1.396 . S
C701 C696 1.499 . S
C701 H702 0.959 . S
C701 H703 0.960 1_545 S
C701 H704 0.961 1_545 S
H702 C701 0.959 . S
H703 C701 0.960 1_565 S
H704 C701 0.961 1_565 S
O705 Co680 1.967 . S
O705 C713 1.258 . S
O706 Co681 1.941 . S
O706 C713 1.266 . S
H707 C709 0.959 1_455 S
H708 C709 0.961 . S
C709 C699 1.510 . S
C709 H707 0.959 1_655 S
C709 H708 0.961 . S
C709 H710 0.960 . S
H710 C709 0.960 . S
H711 N691 0.889 . S
O712 Co680 1.920 . S
O712 C685 1.289 . S
C713 O705 1.258 . S
C713 O706 1.266 . S
Co714 O717 1.970 . S
Co714 N731 1.989 . S
Co714 O739 1.967 . S
Co714 O746 1.920 . S
Co715 O718 1.966 . S
Co715 N724 2.022 . S
Co715 N732 1.993 . S
Co715 O740 1.941 . S
C716 O717 1.258 . S
C716 O718 1.263 . S
O717 Co714 1.970 . S
O717 C716 1.258 . S
O718 Co715 1.966 . S
O718 C716 1.263 . S
C719 O720 1.235 . S
C719 O746 1.289 . S
O720 C719 1.235 . S
C721 C723 1.400 . S
C721 N724 1.351 . S
C721 C726 1.501 . S
C722 C723 1.387 . S
C722 N725 1.341 . S
C723 C721 1.400 . S
C723 C722 1.387 . S
N724 Co715 2.022 . S
N724 C721 1.351 . S
N724 N725 1.365 . S
N725 C722 1.341 . S
N725 N724 1.365 . S
N725 H745 0.862 . S
C726 C721 1.501 . S
C726 H727 0.961 . S
C726 H728 0.961 . S
C726 H729 0.960 . S
H727 C726 0.961 . S
H728 C726 0.961 . S
H729 C726 0.960 . S
C730 N731 1.342 . S
C730 C734 1.401 . S
C730 C735 1.499 . S
N731 Co714 1.989 . S
N731 C730 1.342 . S
N731 N732 1.388 . S
N732 Co715 1.993 . S
N732 N731 1.388 . S
N732 C733 1.346 . S
C733 N732 1.346 . S
C733 C734 1.396 . S
C733 C743 1.510 . S
C734 C730 1.401 . S
C734 C733 1.396 . S
C735 C730 1.499 . S
C735 H736 0.959 . S
C735 H737 0.960 . S
C735 H738 0.961 . S
H736 C735 0.959 . S
H737 C735 0.960 . S
H738 C735 0.961 . S
O739 Co714 1.967 . S
O739 C747 1.258 . S
O740 Co715 1.941 . S
O740 C747 1.266 . S
H741 C743 0.959 . S
H742 C743 0.961 . S
C743 C733 1.510 . S
C743 H741 0.959 . S
C743 H742 0.961 . S
C743 H744 0.960 . S
H744 C743 0.960 . S
H745 N725 0.862 . S
O746 Co714 1.920 . S
O746 C719 1.289 . S
C747 O739 1.258 . S
C747 O740 1.266 . S
Co748 O751 1.970 . S
Co748 N765 1.989 . S
Co748 O773 1.967 . S
Co748 O780 1.920 . S
Co749 O752 1.966 . S
Co749 N758 2.022 . S
Co749 N766 1.993 . S
Co749 O774 1.941 . S
C750 O751 1.258 . S
C750 O752 1.263 . S
O751 Co748 1.970 . S
O751 C750 1.258 . S
O752 Co749 1.966 . S
O752 C750 1.263 . S
C753 O754 1.235 . S
C753 O780 1.289 . S
O754 C753 1.235 . S
C755 C757 1.400 . S
C755 N758 1.351 . S
C755 C760 1.501 . S
C756 C757 1.387 1_655 S
C756 N759 1.347 . S
C757 C755 1.400 . S
C757 C756 1.387 1_455 S
N758 Co749 2.022 . S
N758 C755 1.351 . S
N758 N759 1.330 1_455 S
N759 C756 1.347 . S
N759 N758 1.330 1_655 S
N759 H779 0.889 . S
C760 C755 1.501 . S
C760 H761 0.961 . S
C760 H762 0.961 . S
C760 H763 0.960 . S
H761 C760 0.961 . S
H762 C760 0.961 . S
H763 C760 0.960 . S
C764 N765 1.342 . S
C764 C768 1.401 . S
C764 C769 1.499 . S
N765 Co748 1.989 . S
N765 C764 1.342 . S
N765 N766 1.388 . S
N766 Co749 1.993 . S
N766 N765 1.388 . S
N766 C767 1.346 . S
C767 N766 1.346 . S
C767 C768 1.396 . S
C767 C777 1.510 . S
C768 C764 1.401 . S
C768 C767 1.396 . S
C769 C764 1.499 . S
C769 H770 0.959 . S
C769 H771 0.960 . S
C769 H772 0.961 . S
H770 C769 0.959 . S
H771 C769 0.960 . S
H772 C769 0.961 . S
O773 Co748 1.967 . S
O773 C781 1.258 . S
O774 Co749 1.941 . S
O774 C781 1.266 . S
H775 C777 0.959 1_655 S
H776 C777 0.961 . S
C777 C767 1.510 . S
C777 H775 0.959 1_455 S
C777 H776 0.961 . S
C777 H778 0.960 . S
H778 C777 0.960 . S
H779 N759 0.889 . S
O780 Co748 1.920 . S
O780 C753 1.289 . S
C781 O773 1.258 . S
C781 O774 1.266 . S
Co782 O785 1.970 . S
Co782 N799 1.989 . S
Co782 O807 1.967 . S
Co782 O814 1.920 . S
Co783 O786 1.966 . S
Co783 N792 2.022 . S
Co783 N800 1.993 . S
Co783 O808 1.941 . S
C784 O785 1.258 . S
C784 O786 1.263 . S
O785 Co782 1.970 . S
O785 C784 1.258 . S
O786 Co783 1.966 . S
O786 C784 1.263 . S
C787 O788 1.235 . S
C787 O814 1.289 . S
O788 C787 1.235 . S
C789 C791 1.400 . S
C789 N792 1.351 . S
C789 C794 1.501 . S
C790 C791 1.387 . S
C790 N793 1.341 . S
C791 C789 1.400 . S
C791 C790 1.387 . S
N792 Co783 2.022 . S
N792 C789 1.351 . S
N792 N793 1.365 . S
N793 C790 1.341 . S
N793 N792 1.365 . S
N793 H813 0.862 . S
C794 C789 1.501 . S
C794 H795 0.961 . S
C794 H796 0.961 . S
C794 H797 0.960 . S
H795 C794 0.961 . S
H796 C794 0.961 . S
H797 C794 0.960 . S
C798 N799 1.342 . S
C798 C802 1.401 . S
C798 C803 1.499 . S
N799 Co782 1.989 . S
N799 C798 1.342 . S
N799 N800 1.388 . S
N800 Co783 1.993 . S
N800 N799 1.388 . S
N800 C801 1.346 . S
C801 N800 1.346 . S
C801 C802 1.396 . S
C801 C811 1.510 . S
C802 C798 1.401 . S
C802 C801 1.396 . S
C803 C798 1.499 . S
C803 H804 0.959 . S
C803 H805 0.960 . S
C803 H806 0.961 . S
H804 C803 0.959 . S
H805 C803 0.960 . S
H806 C803 0.961 . S
O807 Co782 1.967 . S
O807 C815 1.258 . S
O808 Co783 1.941 . S
O808 C815 1.266 . S
H809 C811 0.959 . S
H810 C811 0.961 . S
C811 C801 1.510 . S
C811 H809 0.959 . S
C811 H810 0.961 . S
C811 H812 0.960 . S
H812 C811 0.960 . S
H813 N793 0.862 . S
O814 Co782 1.920 . S
O814 C787 1.289 . S
C815 O807 1.258 . S
C815 O808 1.266 . S
Co816 O819 1.970 . S
Co816 N833 1.989 . S
Co816 O841 1.967 . S
Co816 O848 1.920 . S
Co817 O820 1.966 . S
Co817 N826 2.022 . S
Co817 N834 1.993 . S
Co817 O842 1.941 . S
C818 O819 1.258 . S
C818 O820 1.263 . S
O819 Co816 1.970 . S
O819 C818 1.258 . S
O820 Co817 1.966 . S
O820 C818 1.263 . S
C821 O822 1.235 . S
C821 O848 1.289 . S
O822 C821 1.235 . S
C823 C825 1.400 . S
C823 N826 1.351 . S
C823 C828 1.501 . S
C824 C825 1.387 . S
C824 N827 1.341 . S
C825 C823 1.400 . S
C825 C824 1.387 . S
N826 Co817 2.022 . S
N826 C823 1.351 . S
N826 N827 1.365 . S
N827 C824 1.341 . S
N827 N826 1.365 . S
N827 H847 0.862 . S
C828 C823 1.501 . S
C828 H829 0.961 . S
C828 H830 0.961 . S
C828 H831 0.960 . S
H829 C828 0.961 . S
H830 C828 0.961 . S
H831 C828 0.960 . S
C832 N833 1.342 . S
C832 C836 1.401 . S
C832 C837 1.499 . S
N833 Co816 1.989 . S
N833 C832 1.342 . S
N833 N834 1.388 . S
N834 Co817 1.993 . S
N834 N833 1.388 . S
N834 C835 1.346 . S
C835 N834 1.346 . S
C835 C836 1.396 . S
C835 C845 1.510 . S
C836 C832 1.401 . S
C836 C835 1.396 . S
C837 C832 1.499 . S
C837 H838 0.959 . S
C837 H839 0.960 . S
C837 H840 0.961 . S
H838 C837 0.959 . S
H839 C837 0.960 . S
H840 C837 0.961 . S
O841 Co816 1.967 . S
O841 C849 1.258 . S
O842 Co817 1.941 . S
O842 C849 1.266 . S
H843 C845 0.959 . S
H844 C845 0.961 . S
C845 C835 1.510 . S
C845 H843 0.959 . S
C845 H844 0.961 . S
C845 H846 0.960 . S
H846 C845 0.960 . S
H847 N827 0.862 . S
O848 Co816 1.920 . S
O848 C821 1.289 . S
C849 O841 1.258 . S
C849 O842 1.266 . S
Co850 O853 1.970 . S
Co850 N867 1.989 . S
Co850 O875 1.967 . S
Co850 O882 1.920 . S
Co851 O854 1.966 . S
Co851 N860 2.022 . S
Co851 N868 1.993 . S
Co851 O876 1.941 . S
C852 O853 1.258 . S
C852 O854 1.263 . S
O853 Co850 1.970 . S
O853 C852 1.258 . S
O854 Co851 1.966 . S
O854 C852 1.263 . S
C855 O856 1.235 . S
C855 O882 1.289 . S
O856 C855 1.235 . S
C857 C859 1.400 . S
C857 N860 1.351 . S
C857 C862 1.501 . S
C858 C859 1.387 1_556 S
C858 N861 1.347 . S
C859 C857 1.400 . S
C859 C858 1.387 1_554 S
N860 Co851 2.022 . S
N860 C857 1.351 . S
N860 N861 1.330 1_554 S
N861 C858 1.347 . S
N861 N860 1.330 1_556 S
N861 H881 0.889 . S
C862 C857 1.501 . S
C862 H863 0.961 . S
C862 H864 0.961 . S
C862 H865 0.960 . S
H863 C862 0.961 . S
H864 C862 0.961 . S
H865 C862 0.960 . S
C866 N867 1.342 . S
C866 C870 1.401 . S
C866 C871 1.499 . S
N867 Co850 1.989 . S
N867 C866 1.342 . S
N867 N868 1.388 . S
N868 Co851 1.993 . S
N868 N867 1.388 . S
N868 C869 1.346 . S
C869 N868 1.346 . S
C869 C870 1.396 . S
C869 C879 1.510 . S
C870 C866 1.401 . S
C870 C869 1.396 . S
C871 C866 1.499 . S
C871 H872 0.959 . S
C871 H873 0.960 . S
C871 H874 0.961 . S
H872 C871 0.959 . S
H873 C871 0.960 . S
H874 C871 0.961 . S
O875 Co850 1.967 . S
O875 C883 1.258 . S
O876 Co851 1.941 . S
O876 C883 1.266 . S
H877 C879 0.959 1_556 S
H878 C879 0.961 . S
C879 C869 1.510 . S
C879 H877 0.959 1_554 S
C879 H878 0.961 . S
C879 H880 0.960 . S
H880 C879 0.960 . S
H881 N861 0.889 . S
O882 Co850 1.920 . S
O882 C855 1.289 . S
C883 O875 1.258 . S
C883 O876 1.266 . S
Co884 O887 1.970 . S
Co884 N901 1.989 . S
Co884 O909 1.967 . S
Co884 O916 1.920 . S
Co885 O888 1.966 . S
Co885 N894 2.022 . S
Co885 N902 1.993 . S
Co885 O910 1.941 . S
C886 O887 1.258 . S
C886 O888 1.263 . S
O887 Co884 1.970 . S
O887 C886 1.258 . S
O888 Co885 1.966 . S
O888 C886 1.263 . S
C889 O890 1.235 . S
C889 O916 1.289 . S
O890 C889 1.235 . S
C891 C893 1.400 . S
C891 N894 1.351 . S
C891 C896 1.501 . S
C892 C893 1.387 . S
C892 N895 1.341 . S
C893 C891 1.400 . S
C893 C892 1.387 . S
N894 Co885 2.022 . S
N894 C891 1.351 . S
N894 N895 1.365 . S
N895 C892 1.341 . S
N895 N894 1.365 . S
N895 H915 0.862 . S
C896 C891 1.501 . S
C896 H897 0.961 . S
C896 H898 0.961 . S
C896 H899 0.960 . S
H897 C896 0.961 . S
H898 C896 0.961 . S
H899 C896 0.960 . S
C900 N901 1.342 . S
C900 C904 1.401 . S
C900 C905 1.499 . S
N901 Co884 1.989 . S
N901 C900 1.342 . S
N901 N902 1.388 . S
N902 Co885 1.993 . S
N902 N901 1.388 . S
N902 C903 1.346 . S
C903 N902 1.346 . S
C903 C904 1.396 . S
C903 C913 1.510 . S
C904 C900 1.401 . S
C904 C903 1.396 . S
C905 C900 1.499 . S
C905 H906 0.959 . S
C905 H907 0.960 . S
C905 H908 0.961 . S
H906 C905 0.959 . S
H907 C905 0.960 . S
H908 C905 0.961 . S
O909 Co884 1.967 . S
O909 C917 1.258 . S
O910 Co885 1.941 . S
O910 C917 1.266 . S
H911 C913 0.959 . S
H912 C913 0.961 . S
C913 C903 1.510 . S
C913 H911 0.959 . S
C913 H912 0.961 . S
C913 H914 0.960 . S
H914 C913 0.960 . S
H915 N895 0.862 . S
O916 Co884 1.920 . S
O916 C889 1.289 . S
C917 O909 1.258 . S
C917 O910 1.266 . S
Co918 O921 1.970 . S
Co918 N935 1.989 . S
Co918 O943 1.967 . S
Co918 O950 1.920 . S
Co919 O922 1.966 . S
Co919 N928 2.022 . S
Co919 N936 1.993 . S
Co919 O944 1.941 . S
C920 O921 1.258 . S
C920 O922 1.263 . S
O921 Co918 1.970 . S
O921 C920 1.258 . S
O922 Co919 1.966 . S
O922 C920 1.263 . S
C923 O924 1.235 . S
C923 O950 1.289 . S
O924 C923 1.235 . S
C925 C927 1.400 . S
C925 N928 1.351 . S
C925 C930 1.501 . S
C926 C927 1.387 . S
C926 N929 1.341 . S
C927 C925 1.400 . S
C927 C926 1.387 . S
N928 Co919 2.022 . S
N928 C925 1.351 . S
N928 N929 1.365 . S
N929 C926 1.341 . S
N929 N928 1.365 . S
N929 H949 0.862 . S
C930 C925 1.501 . S
C930 H931 0.961 . S
C930 H932 0.961 . S
C930 H933 0.960 . S
H931 C930 0.961 . S
H932 C930 0.961 . S
H933 C930 0.960 . S
C934 N935 1.342 . S
C934 C938 1.401 . S
C934 C939 1.499 . S
N935 Co918 1.989 . S
N935 C934 1.342 . S
N935 N936 1.388 . S
N936 Co919 1.993 . S
N936 N935 1.388 . S
N936 C937 1.346 . S
C937 N936 1.346 . S
C937 C938 1.396 . S
C937 C947 1.510 . S
C938 C934 1.401 . S
C938 C937 1.396 . S
C939 C934 1.499 . S
C939 H940 0.959 . S
C939 H941 0.960 1_655 S
C939 H942 0.961 1_655 S
H940 C939 0.959 . S
H941 C939 0.960 1_455 S
H942 C939 0.961 1_455 S
O943 Co918 1.967 . S
O943 C951 1.258 . S
O944 Co919 1.941 . S
O944 C951 1.266 . S
H945 C947 0.959 . S
H946 C947 0.961 . S
C947 C937 1.510 . S
C947 H945 0.959 . S
C947 H946 0.961 . S
C947 H948 0.960 . S
H948 C947 0.960 . S
H949 N929 0.862 . S
O950 Co918 1.920 . S
O950 C923 1.289 . S
C951 O943 1.258 . S
C951 O944 1.266 . S
Co952 O955 1.970 . S
Co952 N969 1.989 . S
Co952 O977 1.967 . S
Co952 O984 1.920 . S
Co953 O956 1.966 . S
Co953 N962 2.022 . S
Co953 N970 1.993 . S
Co953 O978 1.941 . S
C954 O955 1.258 . S
C954 O956 1.263 . S
O955 Co952 1.970 . S
O955 C954 1.258 . S
O956 Co953 1.966 . S
O956 C954 1.263 . S
C957 O958 1.235 . S
C957 O984 1.289 . S
O958 C957 1.235 . S
C959 C961 1.400 . S
C959 N962 1.351 . S
C959 C964 1.501 . S
C960 C961 1.387 . S
C960 N963 1.341 . S
C961 C959 1.400 . S
C961 C960 1.387 . S
N962 Co953 2.022 . S
N962 C959 1.351 . S
N962 N963 1.365 . S
N963 C960 1.341 . S
N963 N962 1.365 . S
N963 H983 0.862 . S
C964 C959 1.501 . S
C964 H965 0.961 . S
C964 H966 0.961 . S
C964 H967 0.960 . S
H965 C964 0.961 . S
H966 C964 0.961 . S
H967 C964 0.960 . S
C968 N969 1.342 . S
C968 C972 1.401 . S
C968 C973 1.499 . S
N969 Co952 1.989 . S
N969 C968 1.342 . S
N969 N970 1.388 . S
N970 Co953 1.993 . S
N970 N969 1.388 . S
N970 C971 1.346 . S
C971 N970 1.346 . S
C971 C972 1.396 . S
C971 C981 1.510 . S
C972 C968 1.401 . S
C972 C971 1.396 . S
C973 C968 1.499 . S
C973 H974 0.959 . S
C973 H975 0.960 . S
C973 H976 0.961 . S
H974 C973 0.959 . S
H975 C973 0.960 . S
H976 C973 0.961 . S
O977 Co952 1.967 . S
O977 C985 1.258 . S
O978 Co953 1.941 . S
O978 C985 1.266 . S
H979 C981 0.959 . S
H980 C981 0.961 . S
C981 C971 1.510 . S
C981 H979 0.959 . S
C981 H980 0.961 . S
C981 H982 0.960 . S
H982 C981 0.960 . S
H983 N963 0.862 . S
O984 Co952 1.920 . S
O984 C957 1.289 . S
C985 O977 1.258 . S
C985 O978 1.266 . S
Co986 O989 1.970 . S
Co986 N1003 1.989 . S
Co986 O1011 1.967 . S
Co986 O1018 1.920 . S
Co987 O990 1.966 . S
Co987 N996 2.022 . S
Co987 N1004 1.993 . S
Co987 O1012 1.941 . S
C988 O989 1.258 . S
C988 O990 1.263 . S
O989 Co986 1.970 . S
O989 C988 1.258 . S
O990 Co987 1.966 . S
O990 C988 1.263 . S
C991 O992 1.235 . S
C991 O1018 1.289 . S
O992 C991 1.235 . S
C993 C995 1.400 . S
C993 N996 1.351 . S
C993 C998 1.501 . S
C994 C995 1.387 1_554 S
C994 N997 1.347 . S
C995 C993 1.400 . S
C995 C994 1.387 1_556 S
N996 Co987 2.022 . S
N996 C993 1.351 . S
N996 N997 1.330 1_556 S
N997 C994 1.347 . S
N997 N996 1.330 1_554 S
N997 H1017 0.889 . S
C998 C993 1.501 . S
C998 H999 0.961 . S
C998 H1000 0.961 . S
C998 H1001 0.960 . S
H999 C998 0.961 . S
H1000 C998 0.961 . S
H1001 C998 0.960 . S
C1002 N1003 1.342 . S
C1002 C1006 1.401 . S
C1002 C1007 1.499 . S
N1003 Co986 1.989 . S
N1003 C1002 1.342 . S
N1003 N1004 1.388 . S
N1004 Co987 1.993 . S
N1004 N1003 1.388 . S
N1004 C1005 1.346 . S
C1005 N1004 1.346 . S
C1005 C1006 1.396 . S
C1005 C1015 1.510 . S
C1006 C1002 1.401 . S
C1006 C1005 1.396 . S
C1007 C1002 1.499 . S
C1007 H1008 0.959 . S
C1007 H1009 0.960 1_655 S
C1007 H1010 0.961 1_655 S
H1008 C1007 0.959 . S
H1009 C1007 0.960 1_455 S
H1010 C1007 0.961 1_455 S
O1011 Co986 1.967 . S
O1011 C1019 1.258 . S
O1012 Co987 1.941 . S
O1012 C1019 1.266 . S
H1013 C1015 0.959 1_554 S
H1014 C1015 0.961 . S
C1015 C1005 1.510 . S
C1015 H1013 0.959 1_556 S
C1015 H1014 0.961 . S
C1015 H1016 0.960 . S
H1016 C1015 0.960 . S
H1017 N997 0.889 . S
O1018 Co986 1.920 . S
O1018 C991 1.289 . S
C1019 O1011 1.258 . S
C1019 O1012 1.266 . S
Co1020 O1023 1.970 . S
Co1020 N1037 1.989 . S
Co1020 O1045 1.967 . S
Co1020 O1052 1.920 . S
Co1021 O1024 1.966 . S
Co1021 N1030 2.022 . S
Co1021 N1038 1.993 . S
Co1021 O1046 1.941 . S
C1022 O1023 1.258 . S
C1022 O1024 1.263 . S
O1023 Co1020 1.970 . S
O1023 C1022 1.258 . S
O1024 Co1021 1.966 . S
O1024 C1022 1.263 . S
C1025 O1026 1.235 . S
C1025 O1052 1.289 . S
O1026 C1025 1.235 . S
C1027 C1029 1.400 . S
C1027 N1030 1.351 . S
C1027 C1032 1.501 . S
C1028 C1029 1.387 . S
C1028 N1031 1.341 . S
C1029 C1027 1.400 . S
C1029 C1028 1.387 . S
N1030 Co1021 2.022 . S
N1030 C1027 1.351 . S
N1030 N1031 1.365 . S
N1031 C1028 1.341 . S
N1031 N1030 1.365 . S
N1031 H1051 0.862 . S
C1032 C1027 1.501 . S
C1032 H1033 0.961 . S
C1032 H1034 0.961 . S
C1032 H1035 0.960 . S
H1033 C1032 0.961 . S
H1034 C1032 0.961 . S
H1035 C1032 0.960 . S
C1036 N1037 1.342 . S
C1036 C1040 1.401 . S
C1036 C1041 1.499 . S
N1037 Co1020 1.989 . S
N1037 C1036 1.342 . S
N1037 N1038 1.388 . S
N1038 Co1021 1.993 . S
N1038 N1037 1.388 . S
N1038 C1039 1.346 . S
C1039 N1038 1.346 . S
C1039 C1040 1.396 . S
C1039 C1049 1.510 . S
C1040 C1036 1.401 . S
C1040 C1039 1.396 . S
C1041 C1036 1.499 . S
C1041 H1042 0.959 . S
C1041 H1043 0.960 . S
C1041 H1044 0.961 . S
H1042 C1041 0.959 . S
H1043 C1041 0.960 . S
H1044 C1041 0.961 . S
O1045 Co1020 1.967 . S
O1045 C1053 1.258 . S
O1046 Co1021 1.941 . S
O1046 C1053 1.266 . S
H1047 C1049 0.959 . S
H1048 C1049 0.961 . S
C1049 C1039 1.510 . S
C1049 H1047 0.959 . S
C1049 H1048 0.961 . S
C1049 H1050 0.960 . S
H1050 C1049 0.960 . S
H1051 N1031 0.862 . S
O1052 Co1020 1.920 . S
O1052 C1025 1.289 . S
C1053 O1045 1.258 . S
C1053 O1046 1.266 . S
Co1054 O1057 1.970 . S
Co1054 N1071 1.989 . S
Co1054 O1079 1.967 . S
Co1054 O1086 1.920 . S
Co1055 O1058 1.966 . S
Co1055 N1064 2.022 . S
Co1055 N1072 1.993 . S
Co1055 O1080 1.941 . S
C1056 O1057 1.258 . S
C1056 O1058 1.263 . S
O1057 Co1054 1.970 . S
O1057 C1056 1.258 . S
O1058 Co1055 1.966 . S
O1058 C1056 1.263 . S
C1059 O1060 1.235 . S
C1059 O1086 1.289 . S
O1060 C1059 1.235 . S
C1061 C1063 1.400 . S
C1061 N1064 1.351 . S
C1061 C1066 1.501 . S
C1062 C1063 1.387 . S
C1062 N1065 1.341 . S
C1063 C1061 1.400 . S
C1063 C1062 1.387 . S
N1064 Co1055 2.022 . S
N1064 C1061 1.351 . S
N1064 N1065 1.365 . S
N1065 C1062 1.341 . S
N1065 N1064 1.365 . S
N1065 H1085 0.862 . S
C1066 C1061 1.501 . S
C1066 H1067 0.961 . S
C1066 H1068 0.961 . S
C1066 H1069 0.960 . S
H1067 C1066 0.961 . S
H1068 C1066 0.961 . S
H1069 C1066 0.960 . S
C1070 N1071 1.342 . S
C1070 C1074 1.401 . S
C1070 C1075 1.499 . S
N1071 Co1054 1.989 . S
N1071 C1070 1.342 . S
N1071 N1072 1.388 . S
N1072 Co1055 1.993 . S
N1072 N1071 1.388 . S
N1072 C1073 1.346 . S
C1073 N1072 1.346 . S
C1073 C1074 1.396 . S
C1073 C1083 1.510 . S
C1074 C1070 1.401 . S
C1074 C1073 1.396 . S
C1075 C1070 1.499 . S
C1075 H1076 0.959 . S
C1075 H1077 0.960 . S
C1075 H1078 0.961 . S
H1076 C1075 0.959 . S
H1077 C1075 0.960 . S
H1078 C1075 0.961 . S
O1079 Co1054 1.967 . S
O1079 C1087 1.258 . S
O1080 Co1055 1.941 . S
O1080 C1087 1.266 . S
H1081 C1083 0.959 . S
H1082 C1083 0.961 . S
C1083 C1073 1.510 . S
C1083 H1081 0.959 . S
C1083 H1082 0.961 . S
C1083 H1084 0.960 . S
H1084 C1083 0.960 . S
H1085 N1065 0.862 . S
O1086 Co1054 1.920 . S
O1086 C1059 1.289 . S
C1087 O1079 1.258 . S
C1087 O1080 1.266 . S
Co1088 O1091 1.970 . S
Co1088 N1105 1.989 . S
Co1088 O1113 1.967 . S
Co1088 O1120 1.920 . S
Co1089 O1092 1.966 . S
Co1089 N1098 2.022 . S
Co1089 N1106 1.993 . S
Co1089 O1114 1.941 . S
C1090 O1091 1.258 . S
C1090 O1092 1.263 . S
O1091 Co1088 1.970 . S
O1091 C1090 1.258 . S
O1092 Co1089 1.966 . S
O1092 C1090 1.263 . S
C1093 O1094 1.235 . S
C1093 O1120 1.289 . S
O1094 C1093 1.235 . S
C1095 C1097 1.400 . S
C1095 N1098 1.351 . S
C1095 C1100 1.501 . S
C1096 C1097 1.387 . S
C1096 N1099 1.341 . S
C1097 C1095 1.400 . S
C1097 C1096 1.387 . S
N1098 Co1089 2.022 . S
N1098 C1095 1.351 . S
N1098 N1099 1.365 . S
N1099 C1096 1.341 . S
N1099 N1098 1.365 . S
N1099 H1119 0.862 . S
C1100 C1095 1.501 . S
C1100 H1101 0.961 . S
C1100 H1102 0.961 . S
C1100 H1103 0.960 . S
H1101 C1100 0.961 . S
H1102 C1100 0.961 . S
H1103 C1100 0.960 . S
C1104 N1105 1.342 . S
C1104 C1108 1.401 . S
C1104 C1109 1.499 . S
N1105 Co1088 1.989 . S
N1105 C1104 1.342 . S
N1105 N1106 1.388 . S
N1106 Co1089 1.993 . S
N1106 N1105 1.388 . S
N1106 C1107 1.346 . S
C1107 N1106 1.346 . S
C1107 C1108 1.396 . S
C1107 C1117 1.510 . S
C1108 C1104 1.401 . S
C1108 C1107 1.396 . S
C1109 C1104 1.499 . S
C1109 H1110 0.959 . S
C1109 H1111 0.960 . S
C1109 H1112 0.961 . S
H1110 C1109 0.959 . S
H1111 C1109 0.960 . S
H1112 C1109 0.961 . S
O1113 Co1088 1.967 . S
O1113 C1121 1.258 . S
O1114 Co1089 1.941 . S
O1114 C1121 1.266 . S
H1115 C1117 0.959 . S
H1116 C1117 0.961 . S
C1117 C1107 1.510 . S
C1117 H1115 0.959 . S
C1117 H1116 0.961 . S
C1117 H1118 0.960 . S
H1118 C1117 0.960 . S
H1119 N1099 0.862 . S
O1120 Co1088 1.920 . S
O1120 C1093 1.289 . S
C1121 O1113 1.258 . S
C1121 O1114 1.266 . S
Co1122 O1125 1.970 . S
Co1122 N1139 1.989 . S
Co1122 O1147 1.967 . S
Co1122 O1154 1.920 . S
Co1123 O1126 1.966 . S
Co1123 N1132 2.022 . S
Co1123 N1140 1.993 . S
Co1123 O1148 1.941 . S
C1124 O1125 1.258 . S
C1124 O1126 1.263 . S
O1125 Co1122 1.970 . S
O1125 C1124 1.258 . S
O1126 Co1123 1.966 . S
O1126 C1124 1.263 . S
C1127 O1128 1.235 . S
C1127 O1154 1.289 . S
O1128 C1127 1.235 . S
C1129 C1131 1.400 . S
C1129 N1132 1.351 . S
C1129 C1134 1.501 . S
C1130 C1131 1.387 . S
C1130 N1133 1.341 . S
C1131 C1129 1.400 . S
C1131 C1130 1.387 . S
N1132 Co1123 2.022 . S
N1132 C1129 1.351 . S
N1132 N1133 1.365 . S
N1133 C1130 1.341 . S
N1133 N1132 1.365 . S
N1133 H1153 0.862 . S
C1134 C1129 1.501 . S
C1134 H1135 0.961 . S
C1134 H1136 0.961 . S
C1134 H1137 0.960 . S
H1135 C1134 0.961 . S
H1136 C1134 0.961 . S
H1137 C1134 0.960 . S
C1138 N1139 1.342 . S
C1138 C1142 1.401 . S
C1138 C1143 1.499 . S
N1139 Co1122 1.989 . S
N1139 C1138 1.342 . S
N1139 N1140 1.388 . S
N1140 Co1123 1.993 . S
N1140 N1139 1.388 . S
N1140 C1141 1.346 . S
C1141 N1140 1.346 . S
C1141 C1142 1.396 . S
C1141 C1151 1.510 . S
C1142 C1138 1.401 . S
C1142 C1141 1.396 . S
C1143 C1138 1.499 . S
C1143 H1144 0.959 . S
C1143 H1145 0.960 1_556 S
C1143 H1146 0.961 1_556 S
H1144 C1143 0.959 . S
H1145 C1143 0.960 1_554 S
H1146 C1143 0.961 1_554 S
O1147 Co1122 1.967 . S
O1147 C1155 1.258 . S
O1148 Co1123 1.941 . S
O1148 C1155 1.266 . S
H1149 C1151 0.959 . S
H1150 C1151 0.961 . S
C1151 C1141 1.510 . S
C1151 H1149 0.959 . S
C1151 H1150 0.961 . S
C1151 H1152 0.960 . S
H1152 C1151 0.960 . S
H1153 N1133 0.862 . S
O1154 Co1122 1.920 . S
O1154 C1127 1.289 . S
C1155 O1147 1.258 . S
C1155 O1148 1.266 . S
Co1156 O1159 1.970 . S
Co1156 N1173 1.989 . S
Co1156 O1181 1.967 . S
Co1156 O1188 1.920 . S
Co1157 O1160 1.966 . S
Co1157 N1166 2.022 . S
Co1157 N1174 1.993 . S
Co1157 O1182 1.941 . S
C1158 O1159 1.258 . S
C1158 O1160 1.263 . S
O1159 Co1156 1.970 . S
O1159 C1158 1.258 . S
O1160 Co1157 1.966 . S
O1160 C1158 1.263 . S
C1161 O1162 1.235 . S
C1161 O1188 1.289 . S
O1162 C1161 1.235 . S
C1163 C1165 1.400 . S
C1163 N1166 1.351 . S
C1163 C1168 1.501 . S
C1164 C1165 1.387 . S
C1164 N1167 1.341 . S
C1165 C1163 1.400 . S
C1165 C1164 1.387 . S
N1166 Co1157 2.022 . S
N1166 C1163 1.351 . S
N1166 N1167 1.365 . S
N1167 C1164 1.341 . S
N1167 N1166 1.365 . S
N1167 H1187 0.862 . S
C1168 C1163 1.501 . S
C1168 H1169 0.961 . S
C1168 H1170 0.961 . S
C1168 H1171 0.960 . S
H1169 C1168 0.961 . S
H1170 C1168 0.961 . S
H1171 C1168 0.960 . S
C1172 N1173 1.342 . S
C1172 C1176 1.401 . S
C1172 C1177 1.499 . S
N1173 Co1156 1.989 . S
N1173 C1172 1.342 . S
N1173 N1174 1.388 . S
N1174 Co1157 1.993 . S
N1174 N1173 1.388 . S
N1174 C1175 1.346 . S
C1175 N1174 1.346 . S
C1175 C1176 1.396 . S
C1175 C1185 1.510 . S
C1176 C1172 1.401 . S
C1176 C1175 1.396 . S
C1177 C1172 1.499 . S
C1177 H1178 0.959 . S
C1177 H1179 0.960 . S
C1177 H1180 0.961 . S
H1178 C1177 0.959 . S
H1179 C1177 0.960 . S
H1180 C1177 0.961 . S
O1181 Co1156 1.967 . S
O1181 C1189 1.258 . S
O1182 Co1157 1.941 . S
O1182 C1189 1.266 . S
H1183 C1185 0.959 . S
H1184 C1185 0.961 . S
C1185 C1175 1.510 . S
C1185 H1183 0.959 . S
C1185 H1184 0.961 . S
C1185 H1186 0.960 . S
H1186 C1185 0.960 . S
H1187 N1167 0.862 . S
O1188 Co1156 1.920 . S
O1188 C1161 1.289 . S
C1189 O1181 1.258 . S
C1189 O1182 1.266 . S
Co1190 O1193 1.970 . S
Co1190 N1207 1.989 . S
Co1190 O1215 1.967 . S
Co1190 O1222 1.920 . S
Co1191 O1194 1.966 . S
Co1191 N1200 2.022 . S
Co1191 N1208 1.993 . S
Co1191 O1216 1.941 . S
C1192 O1193 1.258 . S
C1192 O1194 1.263 . S
O1193 Co1190 1.970 . S
O1193 C1192 1.258 . S
O1194 Co1191 1.966 . S
O1194 C1192 1.263 . S
C1195 O1196 1.235 . S
C1195 O1222 1.289 . S
O1196 C1195 1.235 . S
C1197 C1199 1.400 . S
C1197 N1200 1.351 . S
C1197 C1202 1.501 . S
C1198 C1199 1.387 . S
C1198 N1201 1.341 . S
C1199 C1197 1.400 . S
C1199 C1198 1.387 . S
N1200 Co1191 2.022 . S
N1200 C1197 1.351 . S
N1200 N1201 1.365 . S
N1201 C1198 1.341 . S
N1201 N1200 1.365 . S
N1201 H1221 0.862 . S
C1202 C1197 1.501 . S
C1202 H1203 0.961 . S
C1202 H1204 0.961 . S
C1202 H1205 0.960 . S
H1203 C1202 0.961 . S
H1204 C1202 0.961 . S
H1205 C1202 0.960 . S
C1206 N1207 1.342 . S
C1206 C1210 1.401 . S
C1206 C1211 1.499 . S
N1207 Co1190 1.989 . S
N1207 C1206 1.342 . S
N1207 N1208 1.388 . S
N1208 Co1191 1.993 . S
N1208 N1207 1.388 . S
N1208 C1209 1.346 . S
C1209 N1208 1.346 . S
C1209 C1210 1.396 . S
C1209 C1219 1.510 . S
C1210 C1206 1.401 . S
C1210 C1209 1.396 . S
C1211 C1206 1.499 . S
C1211 H1212 0.959 . S
C1211 H1213 0.960 . S
C1211 H1214 0.961 . S
H1212 C1211 0.959 . S
H1213 C1211 0.960 . S
H1214 C1211 0.961 . S
O1215 Co1190 1.967 . S
O1215 C1223 1.258 . S
O1216 Co1191 1.941 . S
O1216 C1223 1.266 . S
H1217 C1219 0.959 . S
H1218 C1219 0.961 . S
C1219 C1209 1.510 . S
C1219 H1217 0.959 . S
C1219 H1218 0.961 . S
C1219 H1220 0.960 . S
H1220 C1219 0.960 . S
H1221 N1201 0.862 . S
O1222 Co1190 1.920 . S
O1222 C1195 1.289 . S
C1223 O1215 1.258 . S
C1223 O1216 1.266 . S
Co1224 O1227 1.970 . S
Co1224 N1241 1.989 . S
Co1224 O1249 1.967 . S
Co1224 O1256 1.920 . S
Co1225 O1228 1.966 . S
Co1225 N1234 2.022 . S
Co1225 N1242 1.993 . S
Co1225 O1250 1.941 . S
C1226 O1227 1.258 . S
C1226 O1228 1.263 . S
O1227 Co1224 1.970 . S
O1227 C1226 1.258 . S
O1228 Co1225 1.966 . S
O1228 C1226 1.263 . S
C1229 O1230 1.235 . S
C1229 O1256 1.289 . S
O1230 C1229 1.235 . S
C1231 C1233 1.400 . S
C1231 N1234 1.351 . S
C1231 C1236 1.501 . S
C1232 C1233 1.387 . S
C1232 N1235 1.341 . S
C1233 C1231 1.400 . S
C1233 C1232 1.387 . S
N1234 Co1225 2.022 . S
N1234 C1231 1.351 . S
N1234 N1235 1.365 . S
N1235 C1232 1.341 . S
N1235 N1234 1.365 . S
N1235 H1255 0.862 . S
C1236 C1231 1.501 . S
C1236 H1237 0.961 . S
C1236 H1238 0.961 . S
C1236 H1239 0.960 . S
H1237 C1236 0.961 . S
H1238 C1236 0.961 . S
H1239 C1236 0.960 . S
C1240 N1241 1.342 . S
C1240 C1244 1.401 . S
C1240 C1245 1.499 . S
N1241 Co1224 1.989 . S
N1241 C1240 1.342 . S
N1241 N1242 1.388 . S
N1242 Co1225 1.993 . S
N1242 N1241 1.388 . S
N1242 C1243 1.346 . S
C1243 N1242 1.346 . S
C1243 C1244 1.396 . S
C1243 C1253 1.510 . S
C1244 C1240 1.401 . S
C1244 C1243 1.396 . S
C1245 C1240 1.499 . S
C1245 H1246 0.959 . S
C1245 H1247 0.960 . S
C1245 H1248 0.961 . S
H1246 C1245 0.959 . S
H1247 C1245 0.960 . S
H1248 C1245 0.961 . S
O1249 Co1224 1.967 . S
O1249 C1257 1.258 . S
O1250 Co1225 1.941 . S
O1250 C1257 1.266 . S
H1251 C1253 0.959 . S
H1252 C1253 0.961 . S
C1253 C1243 1.510 . S
C1253 H1251 0.959 . S
C1253 H1252 0.961 . S
C1253 H1254 0.960 . S
H1254 C1253 0.960 . S
H1255 N1235 0.862 . S
O1256 Co1224 1.920 . S
O1256 C1229 1.289 . S
C1257 O1249 1.258 . S
C1257 O1250 1.266 . S
Co1258 O1261 1.970 . S
Co1258 N1275 1.989 . S
Co1258 O1283 1.967 . S
Co1258 O1290 1.920 . S
Co1259 O1262 1.966 . S
Co1259 N1268 2.022 . S
Co1259 N1276 1.993 . S
Co1259 O1284 1.941 . S
C1260 O1261 1.258 . S
C1260 O1262 1.263 . S
O1261 Co1258 1.970 . S
O1261 C1260 1.258 . S
O1262 Co1259 1.966 . S
O1262 C1260 1.263 . S
C1263 O1264 1.235 . S
C1263 O1290 1.289 . S
O1264 C1263 1.235 . S
C1265 C1267 1.400 . S
C1265 N1268 1.351 . S
C1265 C1270 1.501 . S
C1266 C1267 1.387 . S
C1266 N1269 1.341 . S
C1267 C1265 1.400 . S
C1267 C1266 1.387 . S
N1268 Co1259 2.022 . S
N1268 C1265 1.351 . S
N1268 N1269 1.365 . S
N1269 C1266 1.341 . S
N1269 N1268 1.365 . S
N1269 H1289 0.862 . S
C1270 C1265 1.501 . S
C1270 H1271 0.961 . S
C1270 H1272 0.961 . S
C1270 H1273 0.960 . S
H1271 C1270 0.961 . S
H1272 C1270 0.961 . S
H1273 C1270 0.960 . S
C1274 N1275 1.342 . S
C1274 C1278 1.401 . S
C1274 C1279 1.499 . S
N1275 Co1258 1.989 . S
N1275 C1274 1.342 . S
N1275 N1276 1.388 . S
N1276 Co1259 1.993 . S
N1276 N1275 1.388 . S
N1276 C1277 1.346 . S
C1277 N1276 1.346 . S
C1277 C1278 1.396 . S
C1277 C1287 1.510 . S
C1278 C1274 1.401 . S
C1278 C1277 1.396 . S
C1279 C1274 1.499 . S
C1279 H1280 0.959 . S
C1279 H1281 0.960 1_554 S
C1279 H1282 0.961 1_554 S
H1280 C1279 0.959 . S
H1281 C1279 0.960 1_556 S
H1282 C1279 0.961 1_556 S
O1283 Co1258 1.967 . S
O1283 C1291 1.258 . S
O1284 Co1259 1.941 . S
O1284 C1291 1.266 . S
H1285 C1287 0.959 . S
H1286 C1287 0.961 . S
C1287 C1277 1.510 . S
C1287 H1285 0.959 . S
C1287 H1286 0.961 . S
C1287 H1288 0.960 . S
H1288 C1287 0.960 . S
H1289 N1269 0.862 . S
O1290 Co1258 1.920 . S
O1290 C1263 1.289 . S
C1291 O1283 1.258 . S
C1291 O1284 1.266 . S
Co1292 O1295 1.970 . S
Co1292 N1309 1.989 . S
Co1292 O1317 1.967 . S
Co1292 O1324 1.920 . S
Co1293 O1296 1.966 . S
Co1293 N1302 2.022 . S
Co1293 N1310 1.993 . S
Co1293 O1318 1.941 . S
C1294 O1295 1.258 . S
C1294 O1296 1.263 . S
O1295 Co1292 1.970 . S
O1295 C1294 1.258 . S
O1296 Co1293 1.966 . S
O1296 C1294 1.263 . S
C1297 O1298 1.235 . S
C1297 O1324 1.289 . S
O1298 C1297 1.235 . S
C1299 C1301 1.400 . S
C1299 N1302 1.351 . S
C1299 C1304 1.501 . S
C1300 C1301 1.387 . S
C1300 N1303 1.341 . S
C1301 C1299 1.400 . S
C1301 C1300 1.387 . S
N1302 Co1293 2.022 . S
N1302 C1299 1.351 . S
N1302 N1303 1.365 . S
N1303 C1300 1.341 . S
N1303 N1302 1.365 . S
N1303 H1323 0.862 . S
C1304 C1299 1.501 . S
C1304 H1305 0.961 . S
C1304 H1306 0.961 . S
C1304 H1307 0.960 . S
H1305 C1304 0.961 . S
H1306 C1304 0.961 . S
H1307 C1304 0.960 . S
C1308 N1309 1.342 . S
C1308 C1312 1.401 . S
C1308 C1313 1.499 . S
N1309 Co1292 1.989 . S
N1309 C1308 1.342 . S
N1309 N1310 1.388 . S
N1310 Co1293 1.993 . S
N1310 N1309 1.388 . S
N1310 C1311 1.346 . S
C1311 N1310 1.346 . S
C1311 C1312 1.396 . S
C1311 C1321 1.510 . S
C1312 C1308 1.401 . S
C1312 C1311 1.396 . S
C1313 C1308 1.499 . S
C1313 H1314 0.959 . S
C1313 H1315 0.960 . S
C1313 H1316 0.961 . S
H1314 C1313 0.959 . S
H1315 C1313 0.960 . S
H1316 C1313 0.961 . S
O1317 Co1292 1.967 . S
O1317 C1325 1.258 . S
O1318 Co1293 1.941 . S
O1318 C1325 1.266 . S
H1319 C1321 0.959 . S
H1320 C1321 0.961 . S
C1321 C1311 1.510 . S
C1321 H1319 0.959 . S
C1321 H1320 0.961 . S
C1321 H1322 0.960 . S
H1322 C1321 0.960 . S
H1323 N1303 0.862 . S
O1324 Co1292 1.920 . S
O1324 C1297 1.289 . S
C1325 O1317 1.258 . S
C1325 O1318 1.266 . S
Co1326 O1329 1.970 . S
Co1326 N1343 1.989 . S
Co1326 O1351 1.967 . S
Co1326 O1358 1.920 . S
Co1327 O1330 1.966 . S
Co1327 N1336 2.022 . S
Co1327 N1344 1.993 . S
Co1327 O1352 1.941 . S
C1328 O1329 1.258 . S
C1328 O1330 1.263 . S
O1329 Co1326 1.970 . S
O1329 C1328 1.258 . S
O1330 Co1327 1.966 . S
O1330 C1328 1.263 . S
C1331 O1332 1.235 . S
C1331 O1358 1.289 . S
O1332 C1331 1.235 . S
C1333 C1335 1.400 . S
C1333 N1336 1.351 . S
C1333 C1338 1.501 . S
C1334 C1335 1.387 . S
C1334 N1337 1.341 . S
C1335 C1333 1.400 . S
C1335 C1334 1.387 . S
N1336 Co1327 2.022 . S
N1336 C1333 1.351 . S
N1336 N1337 1.365 . S
N1337 C1334 1.341 . S
N1337 N1336 1.365 . S
N1337 H1357 0.862 . S
C1338 C1333 1.501 . S
C1338 H1339 0.961 . S
C1338 H1340 0.961 . S
C1338 H1341 0.960 . S
H1339 C1338 0.961 . S
H1340 C1338 0.961 . S
H1341 C1338 0.960 . S
C1342 N1343 1.342 . S
C1342 C1346 1.401 . S
C1342 C1347 1.499 . S
N1343 Co1326 1.989 . S
N1343 C1342 1.342 . S
N1343 N1344 1.388 . S
N1344 Co1327 1.993 . S
N1344 N1343 1.388 . S
N1344 C1345 1.346 . S
C1345 N1344 1.346 . S
C1345 C1346 1.396 . S
C1345 C1355 1.510 . S
C1346 C1342 1.401 . S
C1346 C1345 1.396 . S
C1347 C1342 1.499 . S
C1347 H1348 0.959 . S
C1347 H1349 0.960 . S
C1347 H1350 0.961 . S
H1348 C1347 0.959 . S
H1349 C1347 0.960 . S
H1350 C1347 0.961 . S
O1351 Co1326 1.967 . S
O1351 C1359 1.258 . S
O1352 Co1327 1.941 . S
O1352 C1359 1.266 . S
H1353 C1355 0.959 . S
H1354 C1355 0.961 . S
C1355 C1345 1.510 . S
C1355 H1353 0.959 . S
C1355 H1354 0.961 . S
C1355 H1356 0.960 . S
H1356 C1355 0.960 . S
H1357 N1337 0.862 . S
O1358 Co1326 1.920 . S
O1358 C1331 1.289 . S
C1359 O1351 1.258 . S
C1359 O1352 1.266 . S
Co1360 O1363 1.970 . S
Co1360 N1377 1.989 . S
Co1360 O1385 1.967 . S
Co1360 O1392 1.920 . S
Co1361 O1364 1.966 . S
Co1361 N1370 2.022 . S
Co1361 N1378 1.993 . S
Co1361 O1386 1.941 . S
C1362 O1363 1.258 . S
C1362 O1364 1.263 . S
O1363 Co1360 1.970 . S
O1363 C1362 1.258 . S
O1364 Co1361 1.966 . S
O1364 C1362 1.263 . S
C1365 O1366 1.235 . S
C1365 O1392 1.289 . S
O1366 C1365 1.235 . S
C1367 C1369 1.400 . S
C1367 N1370 1.351 . S
C1367 C1372 1.501 . S
C1368 C1369 1.387 . S
C1368 N1371 1.341 . S
C1369 C1367 1.400 . S
C1369 C1368 1.387 . S
N1370 Co1361 2.022 . S
N1370 C1367 1.351 . S
N1370 N1371 1.365 . S
N1371 C1368 1.341 . S
N1371 N1370 1.365 . S
N1371 H1391 0.862 . S
C1372 C1367 1.501 . S
C1372 H1373 0.961 . S
C1372 H1374 0.961 . S
C1372 H1375 0.960 . S
H1373 C1372 0.961 . S
H1374 C1372 0.961 . S
H1375 C1372 0.960 . S
C1376 N1377 1.342 . S
C1376 C1380 1.401 . S
C1376 C1381 1.499 . S
N1377 Co1360 1.989 . S
N1377 C1376 1.342 . S
N1377 N1378 1.388 . S
N1378 Co1361 1.993 . S
N1378 N1377 1.388 . S
N1378 C1379 1.346 . S
C1379 N1378 1.346 . S
C1379 C1380 1.396 . S
C1379 C1389 1.510 . S
C1380 C1376 1.401 . S
C1380 C1379 1.396 . S
C1381 C1376 1.499 . S
C1381 H1382 0.959 . S
C1381 H1383 0.960 . S
C1381 H1384 0.961 . S
H1382 C1381 0.959 . S
H1383 C1381 0.960 . S
H1384 C1381 0.961 . S
O1385 Co1360 1.967 . S
O1385 C1393 1.258 . S
O1386 Co1361 1.941 . S
O1386 C1393 1.266 . S
H1387 C1389 0.959 . S
H1388 C1389 0.961 . S
C1389 C1379 1.510 . S
C1389 H1387 0.959 . S
C1389 H1388 0.961 . S
C1389 H1390 0.960 . S
H1390 C1389 0.960 . S
H1391 N1371 0.862 . S
O1392 Co1360 1.920 . S
O1392 C1365 1.289 . S
C1393 O1385 1.258 . S
C1393 O1386 1.266 . S
Co1394 O1397 1.970 . S
Co1394 N1411 1.989 . S
Co1394 O1419 1.967 . S
Co1394 O1426 1.920 . S
Co1395 O1398 1.966 . S
Co1395 N1404 2.022 . S
Co1395 N1412 1.993 . S
Co1395 O1420 1.941 . S
C1396 O1397 1.258 . S
C1396 O1398 1.263 . S
O1397 Co1394 1.970 . S
O1397 C1396 1.258 . S
O1398 Co1395 1.966 . S
O1398 C1396 1.263 . S
C1399 O1400 1.235 . S
C1399 O1426 1.289 . S
O1400 C1399 1.235 . S
C1401 C1403 1.400 . S
C1401 N1404 1.351 . S
C1401 C1406 1.501 . S
C1402 C1403 1.387 . S
C1402 N1405 1.341 . S
C1403 C1401 1.400 . S
C1403 C1402 1.387 . S
N1404 Co1395 2.022 . S
N1404 C1401 1.351 . S
N1404 N1405 1.365 . S
N1405 C1402 1.341 . S
N1405 N1404 1.365 . S
N1405 H1425 0.862 . S
C1406 C1401 1.501 . S
C1406 H1407 0.961 . S
C1406 H1408 0.961 . S
C1406 H1409 0.960 . S
H1407 C1406 0.961 . S
H1408 C1406 0.961 . S
H1409 C1406 0.960 . S
C1410 N1411 1.342 . S
C1410 C1414 1.401 . S
C1410 C1415 1.499 . S
N1411 Co1394 1.989 . S
N1411 C1410 1.342 . S
N1411 N1412 1.388 . S
N1412 Co1395 1.993 . S
N1412 N1411 1.388 . S
N1412 C1413 1.346 . S
C1413 N1412 1.346 . S
C1413 C1414 1.396 . S
C1413 C1423 1.510 . S
C1414 C1410 1.401 . S
C1414 C1413 1.396 . S
C1415 C1410 1.499 . S
C1415 H1416 0.959 . S
C1415 H1417 0.960 . S
C1415 H1418 0.961 . S
H1416 C1415 0.959 . S
H1417 C1415 0.960 . S
H1418 C1415 0.961 . S
O1419 Co1394 1.967 . S
O1419 C1427 1.258 . S
O1420 Co1395 1.941 . S
O1420 C1427 1.266 . S
H1421 C1423 0.959 . S
H1422 C1423 0.961 . S
C1423 C1413 1.510 . S
C1423 H1421 0.959 . S
C1423 H1422 0.961 . S
C1423 H1424 0.960 . S
H1424 C1423 0.960 . S
H1425 N1405 0.862 . S
O1426 Co1394 1.920 . S
O1426 C1399 1.289 . S
C1427 O1419 1.258 . S
C1427 O1420 1.266 . S
Co1428 O1431 1.970 . S
Co1428 N1445 1.989 . S
Co1428 O1453 1.967 . S
Co1428 O1460 1.920 . S
Co1429 O1432 1.966 . S
Co1429 N1438 2.022 . S
Co1429 N1446 1.993 . S
Co1429 O1454 1.941 . S
C1430 O1431 1.258 . S
C1430 O1432 1.263 . S
O1431 Co1428 1.970 . S
O1431 C1430 1.258 . S
O1432 Co1429 1.966 . S
O1432 C1430 1.263 . S
C1433 O1434 1.235 . S
C1433 O1460 1.289 . S
O1434 C1433 1.235 . S
C1435 C1437 1.400 . S
C1435 N1438 1.351 . S
C1435 C1440 1.501 . S
C1436 C1437 1.387 . S
C1436 N1439 1.341 . S
C1437 C1435 1.400 . S
C1437 C1436 1.387 . S
N1438 Co1429 2.022 . S
N1438 C1435 1.351 . S
N1438 N1439 1.365 . S
N1439 C1436 1.341 . S
N1439 N1438 1.365 . S
N1439 H1459 0.862 . S
C1440 C1435 1.501 . S
C1440 H1441 0.961 . S
C1440 H1442 0.961 . S
C1440 H1443 0.960 . S
H1441 C1440 0.961 . S
H1442 C1440 0.961 . S
H1443 C1440 0.960 . S
C1444 N1445 1.342 . S
C1444 C1448 1.401 . S
C1444 C1449 1.499 . S
N1445 Co1428 1.989 . S
N1445 C1444 1.342 . S
N1445 N1446 1.388 . S
N1446 Co1429 1.993 . S
N1446 N1445 1.388 . S
N1446 C1447 1.346 . S
C1447 N1446 1.346 . S
C1447 C1448 1.396 . S
C1447 C1457 1.510 . S
C1448 C1444 1.401 . S
C1448 C1447 1.396 . S
C1449 C1444 1.499 . S
C1449 H1450 0.959 . S
C1449 H1451 0.960 1_565 S
C1449 H1452 0.961 1_565 S
H1450 C1449 0.959 . S
H1451 C1449 0.960 1_545 S
H1452 C1449 0.961 1_545 S
O1453 Co1428 1.967 . S
O1453 C1461 1.258 . S
O1454 Co1429 1.941 . S
O1454 C1461 1.266 . S
H1455 C1457 0.959 . S
H1456 C1457 0.961 . S
C1457 C1447 1.510 . S
C1457 H1455 0.959 . S
C1457 H1456 0.961 . S
C1457 H1458 0.960 . S
H1458 C1457 0.960 . S
H1459 N1439 0.862 . S
O1460 Co1428 1.920 . S
O1460 C1433 1.289 . S
C1461 O1453 1.258 . S
C1461 O1454 1.266 . S
Co1462 O1465 1.970 . S
Co1462 N1479 1.989 . S
Co1462 O1487 1.967 . S
Co1462 O1494 1.920 . S
Co1463 O1466 1.966 . S
Co1463 N1472 2.022 . S
Co1463 N1480 1.993 . S
Co1463 O1488 1.941 . S
C1464 O1465 1.258 . S
C1464 O1466 1.263 . S
O1465 Co1462 1.970 . S
O1465 C1464 1.258 . S
O1466 Co1463 1.966 . S
O1466 C1464 1.263 . S
C1467 O1468 1.235 . S
C1467 O1494 1.289 . S
O1468 C1467 1.235 . S
C1469 C1471 1.400 . S
C1469 N1472 1.351 . S
C1469 C1474 1.501 . S
C1470 C1471 1.387 . S
C1470 N1473 1.341 . S
C1471 C1469 1.400 . S
C1471 C1470 1.387 . S
N1472 Co1463 2.022 . S
N1472 C1469 1.351 . S
N1472 N1473 1.365 . S
N1473 C1470 1.341 . S
N1473 N1472 1.365 . S
N1473 H1493 0.862 . S
C1474 C1469 1.501 . S
C1474 H1475 0.961 . S
C1474 H1476 0.961 . S
C1474 H1477 0.960 . S
H1475 C1474 0.961 . S
H1476 C1474 0.961 . S
H1477 C1474 0.960 . S
C1478 N1479 1.342 . S
C1478 C1482 1.401 . S
C1478 C1483 1.499 . S
N1479 Co1462 1.989 . S
N1479 C1478 1.342 . S
N1479 N1480 1.388 . S
N1480 Co1463 1.993 . S
N1480 N1479 1.388 . S
N1480 C1481 1.346 . S
C1481 N1480 1.346 . S
C1481 C1482 1.396 . S
C1481 C1491 1.510 . S
C1482 C1478 1.401 . S
C1482 C1481 1.396 . S
C1483 C1478 1.499 . S
C1483 H1484 0.959 . S
C1483 H1485 0.960 . S
C1483 H1486 0.961 . S
H1484 C1483 0.959 . S
H1485 C1483 0.960 . S
H1486 C1483 0.961 . S
O1487 Co1462 1.967 . S
O1487 C1495 1.258 . S
O1488 Co1463 1.941 . S
O1488 C1495 1.266 . S
H1489 C1491 0.959 . S
H1490 C1491 0.961 . S
C1491 C1481 1.510 . S
C1491 H1489 0.959 . S
C1491 H1490 0.961 . S
C1491 H1492 0.960 . S
H1492 C1491 0.960 . S
H1493 N1473 0.862 . S
O1494 Co1462 1.920 . S
O1494 C1467 1.289 . S
C1495 O1487 1.258 . S
C1495 O1488 1.266 . S
Co1496 O1499 1.970 . S
Co1496 N1513 1.989 . S
Co1496 O1521 1.967 . S
Co1496 O1528 1.920 . S
Co1497 O1500 1.966 . S
Co1497 N1506 2.022 . S
Co1497 N1514 1.993 . S
Co1497 O1522 1.941 . S
C1498 O1499 1.258 . S
C1498 O1500 1.263 . S
O1499 Co1496 1.970 . S
O1499 C1498 1.258 . S
O1500 Co1497 1.966 . S
O1500 C1498 1.263 . S
C1501 O1502 1.235 . S
C1501 O1528 1.289 . S
O1502 C1501 1.235 . S
C1503 C1505 1.400 . S
C1503 N1506 1.351 . S
C1503 C1508 1.501 . S
C1504 C1505 1.387 . S
C1504 N1507 1.341 . S
C1505 C1503 1.400 . S
C1505 C1504 1.387 . S
N1506 Co1497 2.022 . S
N1506 C1503 1.351 . S
N1506 N1507 1.365 . S
N1507 C1504 1.341 . S
N1507 N1506 1.365 . S
N1507 H1527 0.862 . S
C1508 C1503 1.501 . S
C1508 H1509 0.961 . S
C1508 H1510 0.961 . S
C1508 H1511 0.960 . S
H1509 C1508 0.961 . S
H1510 C1508 0.961 . S
H1511 C1508 0.960 . S
C1512 N1513 1.342 . S
C1512 C1516 1.401 . S
C1512 C1517 1.499 . S
N1513 Co1496 1.989 . S
N1513 C1512 1.342 . S
N1513 N1514 1.388 . S
N1514 Co1497 1.993 . S
N1514 N1513 1.388 . S
N1514 C1515 1.346 . S
C1515 N1514 1.346 . S
C1515 C1516 1.396 . S
C1515 C1525 1.510 . S
C1516 C1512 1.401 . S
C1516 C1515 1.396 . S
C1517 C1512 1.499 . S
C1517 H1518 0.959 . S
C1517 H1519 0.960 . S
C1517 H1520 0.961 . S
H1518 C1517 0.959 . S
H1519 C1517 0.960 . S
H1520 C1517 0.961 . S
O1521 Co1496 1.967 . S
O1521 C1529 1.258 . S
O1522 Co1497 1.941 . S
O1522 C1529 1.266 . S
H1523 C1525 0.959 . S
H1524 C1525 0.961 . S
C1525 C1515 1.510 . S
C1525 H1523 0.959 . S
C1525 H1524 0.961 . S
C1525 H1526 0.960 . S
H1526 C1525 0.960 . S
H1527 N1507 0.862 . S
O1528 Co1496 1.920 . S
O1528 C1501 1.289 . S
C1529 O1521 1.258 . S
C1529 O1522 1.266 . S
Co1530 O1533 1.970 . S
Co1530 N1547 1.989 . S
Co1530 O1555 1.967 . S
Co1530 O1562 1.920 . S
Co1531 O1534 1.966 . S
Co1531 N1540 2.022 . S
Co1531 N1548 1.993 . S
Co1531 O1556 1.941 . S
C1532 O1533 1.258 . S
C1532 O1534 1.263 . S
O1533 Co1530 1.970 . S
O1533 C1532 1.258 . S
O1534 Co1531 1.966 . S
O1534 C1532 1.263 . S
C1535 O1536 1.235 . S
C1535 O1562 1.289 . S
O1536 C1535 1.235 . S
C1537 C1539 1.400 . S
C1537 N1540 1.351 . S
C1537 C1542 1.501 . S
C1538 C1539 1.387 . S
C1538 N1541 1.341 . S
C1539 C1537 1.400 . S
C1539 C1538 1.387 . S
N1540 Co1531 2.022 . S
N1540 C1537 1.351 . S
N1540 N1541 1.365 . S
N1541 C1538 1.341 . S
N1541 N1540 1.365 . S
N1541 H1561 0.862 . S
C1542 C1537 1.501 . S
C1542 H1543 0.961 . S
C1542 H1544 0.961 . S
C1542 H1545 0.960 . S
H1543 C1542 0.961 . S
H1544 C1542 0.961 . S
H1545 C1542 0.960 . S
C1546 N1547 1.342 . S
C1546 C1550 1.401 . S
C1546 C1551 1.499 . S
N1547 Co1530 1.989 . S
N1547 C1546 1.342 . S
N1547 N1548 1.388 . S
N1548 Co1531 1.993 . S
N1548 N1547 1.388 . S
N1548 C1549 1.346 . S
C1549 N1548 1.346 . S
C1549 C1550 1.396 . S
C1549 C1559 1.510 . S
C1550 C1546 1.401 . S
C1550 C1549 1.396 . S
C1551 C1546 1.499 . S
C1551 H1552 0.959 . S
C1551 H1553 0.960 . S
C1551 H1554 0.961 . S
H1552 C1551 0.959 . S
H1553 C1551 0.960 . S
H1554 C1551 0.961 . S
O1555 Co1530 1.967 . S
O1555 C1563 1.258 . S
O1556 Co1531 1.941 . S
O1556 C1563 1.266 . S
H1557 C1559 0.959 . S
H1558 C1559 0.961 . S
C1559 C1549 1.510 . S
C1559 H1557 0.959 . S
C1559 H1558 0.961 . S
C1559 H1560 0.960 . S
H1560 C1559 0.960 . S
H1561 N1541 0.862 . S
O1562 Co1530 1.920 . S
O1562 C1535 1.289 . S
C1563 O1555 1.258 . S
C1563 O1556 1.266 . S
Co1564 O1567 1.970 . S
Co1564 N1581 1.989 . S
Co1564 O1589 1.967 . S
Co1564 O1596 1.920 . S
Co1565 O1568 1.966 . S
Co1565 N1574 2.022 . S
Co1565 N1582 1.993 . S
Co1565 O1590 1.941 . S
C1566 O1567 1.258 . S
C1566 O1568 1.263 . S
O1567 Co1564 1.970 . S
O1567 C1566 1.258 . S
O1568 Co1565 1.966 . S
O1568 C1566 1.263 . S
C1569 O1570 1.235 . S
C1569 O1596 1.289 . S
O1570 C1569 1.235 . S
C1571 C1573 1.400 . S
C1571 N1574 1.351 . S
C1571 C1576 1.501 . S
C1572 C1573 1.387 . S
C1572 N1575 1.341 . S
C1573 C1571 1.400 . S
C1573 C1572 1.387 . S
N1574 Co1565 2.022 . S
N1574 C1571 1.351 . S
N1574 N1575 1.365 . S
N1575 C1572 1.341 . S
N1575 N1574 1.365 . S
N1575 H1595 0.862 . S
C1576 C1571 1.501 . S
C1576 H1577 0.961 . S
C1576 H1578 0.961 . S
C1576 H1579 0.960 . S
H1577 C1576 0.961 . S
H1578 C1576 0.961 . S
H1579 C1576 0.960 . S
C1580 N1581 1.342 . S
C1580 C1584 1.401 . S
C1580 C1585 1.499 . S
N1581 Co1564 1.989 . S
N1581 C1580 1.342 . S
N1581 N1582 1.388 . S
N1582 Co1565 1.993 . S
N1582 N1581 1.388 . S
N1582 C1583 1.346 . S
C1583 N1582 1.346 . S
C1583 C1584 1.396 . S
C1583 C1593 1.510 . S
C1584 C1580 1.401 . S
C1584 C1583 1.396 . S
C1585 C1580 1.499 . S
C1585 H1586 0.959 . S
C1585 H1587 0.960 1_545 S
C1585 H1588 0.961 1_545 S
H1586 C1585 0.959 . S
H1587 C1585 0.960 1_565 S
H1588 C1585 0.961 1_565 S
O1589 Co1564 1.967 . S
O1589 C1597 1.258 . S
O1590 Co1565 1.941 . S
O1590 C1597 1.266 . S
H1591 C1593 0.959 . S
H1592 C1593 0.961 . S
C1593 C1583 1.510 . S
C1593 H1591 0.959 . S
C1593 H1592 0.961 . S
C1593 H1594 0.960 . S
H1594 C1593 0.960 . S
H1595 N1575 0.862 . S
O1596 Co1564 1.920 . S
O1596 C1569 1.289 . S
C1597 O1589 1.258 . S
C1597 O1590 1.266 . S
Co1598 O1601 1.970 . S
Co1598 N1615 1.989 . S
Co1598 O1623 1.967 . S
Co1598 O1630 1.920 . S
Co1599 O1602 1.966 . S
Co1599 N1608 2.022 . S
Co1599 N1616 1.993 . S
Co1599 O1624 1.941 . S
C1600 O1601 1.258 . S
C1600 O1602 1.263 . S
O1601 Co1598 1.970 . S
O1601 C1600 1.258 . S
O1602 Co1599 1.966 . S
O1602 C1600 1.263 . S
C1603 O1604 1.235 . S
C1603 O1630 1.289 . S
O1604 C1603 1.235 . S
C1605 C1607 1.400 . S
C1605 N1608 1.351 . S
C1605 C1610 1.501 . S
C1606 C1607 1.387 1_455 S
C1606 N1609 1.347 . S
C1607 C1605 1.400 . S
C1607 C1606 1.387 1_655 S
N1608 Co1599 2.022 . S
N1608 C1605 1.351 . S
N1608 N1609 1.330 1_655 S
N1609 C1606 1.347 . S
N1609 N1608 1.330 1_455 S
N1609 H1629 0.889 . S
C1610 C1605 1.501 . S
C1610 H1611 0.961 . S
C1610 H1612 0.961 . S
C1610 H1613 0.960 . S
H1611 C1610 0.961 . S
H1612 C1610 0.961 . S
H1613 C1610 0.960 . S
C1614 N1615 1.342 . S
C1614 C1618 1.401 . S
C1614 C1619 1.499 . S
N1615 Co1598 1.989 . S
N1615 C1614 1.342 . S
N1615 N1616 1.388 . S
N1616 Co1599 1.993 . S
N1616 N1615 1.388 . S
N1616 C1617 1.346 . S
C1617 N1616 1.346 . S
C1617 C1618 1.396 . S
C1617 C1627 1.510 . S
C1618 C1614 1.401 . S
C1618 C1617 1.396 . S
C1619 C1614 1.499 . S
C1619 H1620 0.959 . S
C1619 H1621 0.960 1_565 S
C1619 H1622 0.961 1_565 S
H1620 C1619 0.959 . S
H1621 C1619 0.960 1_545 S
H1622 C1619 0.961 1_545 S
O1623 Co1598 1.967 . S
O1623 C1631 1.258 . S
O1624 Co1599 1.941 . S
O1624 C1631 1.266 . S
H1625 C1627 0.959 1_455 S
H1626 C1627 0.961 . S
C1627 C1617 1.510 . S
C1627 H1625 0.959 1_655 S
C1627 H1626 0.961 . S
C1627 H1628 0.960 . S
H1628 C1627 0.960 . S
H1629 N1609 0.889 . S
O1630 Co1598 1.920 . S
O1630 C1603 1.289 . S
C1631 O1623 1.258 . S
C1631 O1624 1.266 . S
C1632 C1633 1.387 . S
C1632 H1636 0.950 . S
C1632 C1641 1.390 . S
C1633 C1632 1.387 . S
C1633 C1635 1.387 . S
H1634 C1641 0.950 . S
C1635 C1633 1.387 . S
C1635 C1637 1.390 . S
C1635 H1639 0.950 . S
H1636 C1632 0.950 . S
C1637 C1635 1.390 . S
C1637 C1638 1.398 . S
C1637 H1640 0.949 1_455 S
C1638 C1637 1.398 . S
C1638 C1641 1.404 . S
H1639 C1635 0.950 . S
H1640 C1637 0.949 1_655 S
C1641 C1632 1.390 . S
C1641 H1634 0.950 . S
C1641 C1638 1.404 . S
C1642 C1643 1.387 . S
C1642 H1646 0.950 . S
C1642 C1651 1.390 . S
C1643 C1642 1.387 . S
C1643 C1645 1.387 . S
H1644 C1651 0.950 . S
C1645 C1643 1.387 . S
C1645 C1647 1.390 . S
C1645 H1649 0.950 . S
H1646 C1642 0.950 . S
C1647 C1645 1.390 . S
C1647 C1648 1.387 . S
C1647 H1650 0.950 . S
C1648 C1647 1.387 . S
C1648 C1651 1.387 . S
H1649 C1645 0.950 . S
H1650 C1647 0.950 . S
C1651 C1642 1.390 . S
C1651 H1644 0.950 . S
C1651 C1648 1.387 . S
C1652 C1653 1.387 . S
C1652 H1656 0.950 . S
C1652 C1661 1.390 . S
C1653 C1652 1.387 . S
C1653 C1655 1.387 . S
H1654 C1661 0.950 . S
C1655 C1653 1.387 . S
C1655 C1657 1.390 . S
C1655 H1659 0.950 . S
H1656 C1652 0.950 . S
C1657 C1655 1.390 . S
C1657 C1658 1.387 . S
C1657 H1660 0.950 . S
C1658 C1657 1.387 . S
C1658 C1661 1.387 . S
H1659 C1655 0.950 . S
H1660 C1657 0.950 . S
C1661 C1652 1.390 . S
C1661 H1654 0.950 . S
C1661 C1658 1.387 . S
C1662 C1663 1.416 . S
C1662 H1666 0.950 . S
C1662 C1671 1.390 . S
C1663 C1662 1.416 . S
C1663 C1665 1.392 . S
H1664 C1671 0.950 . S
C1665 C1663 1.392 . S
C1665 C1667 1.390 . S
C1665 H1669 0.950 1_556 S
H1666 C1662 0.950 . S
C1667 C1665 1.390 . S
C1667 C1668 1.387 . S
C1667 H1670 0.950 . S
C1668 C1667 1.387 . S
C1668 C1671 1.387 . S
H1669 C1665 0.950 1_554 S
H1670 C1667 0.950 . S
C1671 C1662 1.390 . S
C1671 H1664 0.950 . S
C1671 C1668 1.387 . S
C1672 C1673 1.387 . S
C1672 H1676 0.950 . S
C1672 C1681 1.390 . S
C1673 C1672 1.387 . S
C1673 C1675 1.387 . S
H1674 C1681 0.950 . S
C1675 C1673 1.387 . S
C1675 C1677 1.390 . S
C1675 H1679 0.950 . S
H1676 C1672 0.950 . S
C1677 C1675 1.390 . S
C1677 C1678 1.400 . S
C1677 H1680 0.950 . S
C1678 C1677 1.400 . S
C1678 C1681 1.402 . S
H1679 C1675 0.950 . S
H1680 C1677 0.950 . S
C1681 C1672 1.390 . S
C1681 H1674 0.950 . S
C1681 C1678 1.402 . S
C1682 C1683 1.387 . S
C1682 H1686 0.950 . S
C1682 C1691 1.390 . S
C1683 C1682 1.387 . S
C1683 C1685 1.387 . S
H1684 C1691 0.950 . S
C1685 C1683 1.387 . S
C1685 C1687 1.390 . S
C1685 H1689 0.950 . S
H1686 C1682 0.950 . S
C1687 C1685 1.390 . S
C1687 C1688 1.387 . S
C1687 H1690 0.950 . S
C1688 C1687 1.387 . S
C1688 C1691 1.387 . S
H1689 C1685 0.950 . S
H1690 C1687 0.950 . S
C1691 C1682 1.390 . S
C1691 H1684 0.950 . S
C1691 C1688 1.387 . S
C1692 C1693 1.387 . S
C1692 H1696 0.950 . S
C1692 C1701 1.390 . S
C1693 C1692 1.387 . S
C1693 C1695 1.387 . S
H1694 C1701 0.950 . S
C1695 C1693 1.387 . S
C1695 C1697 1.390 . S
C1695 H1699 0.950 . S
H1696 C1692 0.950 . S
C1697 C1695 1.390 . S
C1697 C1698 1.387 . S
C1697 H1700 0.950 . S
C1698 C1697 1.387 . S
C1698 C1701 1.387 . S
H1699 C1695 0.950 . S
H1700 C1697 0.950 . S
C1701 C1692 1.390 . S
C1701 H1694 0.950 . S
C1701 C1698 1.387 . S
C1702 C1703 1.394 . S
C1702 H1706 0.950 1_554 S
C1702 C1711 1.390 . S
C1703 C1702 1.394 . S
C1703 C1705 1.408 . S
H1704 C1711 0.950 . S
C1705 C1703 1.408 . S
C1705 C1707 1.390 . S
C1705 H1709 0.950 . S
H1706 C1702 0.950 1_556 S
C1707 C1705 1.390 . S
C1707 C1708 1.387 . S
C1707 H1710 0.950 . S
C1708 C1707 1.387 . S
C1708 C1711 1.387 . S
H1709 C1705 0.950 . S
H1710 C1707 0.950 . S
C1711 C1702 1.390 . S
C1711 H1704 0.950 . S
C1711 C1708 1.387 . S
C1712 C1713 1.387 . S
C1712 H1716 0.950 . S
C1712 C1721 1.390 . S
C1713 C1712 1.387 . S
C1713 C1715 1.387 . S
H1714 C1721 0.950 . S
C1715 C1713 1.387 . S
C1715 C1717 1.390 1_545 S
C1715 H1719 0.950 . S
H1716 C1712 0.950 . S
C1717 C1715 1.390 1_565 S
C1717 C1718 1.381 1_565 S
C1717 H1720 0.950 . S
C1718 C1717 1.381 1_545 S
C1718 C1721 1.421 . S
H1719 C1715 0.950 . S
H1720 C1717 0.950 . S
C1721 C1712 1.390 . S
C1721 H1714 0.950 . S
C1721 C1718 1.421 . S
C1722 C1723 1.414 . S
C1722 H1726 0.950 . S
C1722 C1731 1.390 . S
C1723 C1722 1.414 . S
C1723 C1725 1.387 . S
H1724 C1731 0.950 . S
C1725 C1723 1.387 . S
C1725 C1727 1.422 . S
C1725 H1729 0.919 1_565 S
H1726 C1722 0.950 . S
C1727 C1725 1.422 . S
C1727 C1728 1.387 . S
C1727 H1730 0.950 . S
C1728 C1727 1.387 . S
C1728 C1731 1.387 . S
H1729 C1725 0.919 1_545 S
H1730 C1727 0.950 . S
C1731 C1722 1.390 . S
C1731 H1724 0.950 . S
C1731 C1728 1.387 . S
C1732 C1733 1.387 . S
C1732 H1736 0.921 1_565 S
C1732 C1741 1.420 . S
C1733 C1732 1.387 . S
C1733 C1735 1.419 . S
H1734 C1741 0.950 . S
C1735 C1733 1.419 . S
C1735 C1737 1.390 . S
C1735 H1739 0.950 . S
H1736 C1732 0.921 1_545 S
C1737 C1735 1.390 . S
C1737 C1738 1.387 . S
C1737 H1740 0.950 . S
C1738 C1737 1.387 . S
C1738 C1741 1.387 . S
H1739 C1735 0.950 . S
H1740 C1737 0.950 . S
C1741 C1732 1.420 . S
C1741 H1734 0.950 . S
C1741 C1738 1.387 . S
C1742 C1743 1.387 . S
C1742 H1746 0.950 . S
C1742 C1751 1.390 . S
C1743 C1742 1.387 . S
C1743 C1745 1.387 . S
H1744 C1751 0.950 1_565 S
C1745 C1743 1.387 . S
C1745 C1747 1.390 . S
C1745 H1749 0.950 . S
H1746 C1742 0.950 . S
C1747 C1745 1.390 . S
C1747 C1748 1.416 . S
C1747 H1750 0.950 . S
C1748 C1747 1.416 . S
C1748 C1751 1.392 . S
H1749 C1745 0.950 . S
H1750 C1747 0.950 . S
C1751 C1742 1.390 . S
C1751 H1744 0.950 1_545 S
C1751 C1748 1.392 . S
C1752 C1753 1.407 . S
C1752 H1756 0.950 . S
C1752 C1761 1.390 . S
C1753 C1752 1.407 . S
C1753 C1755 1.395 . S
H1754 C1761 0.950 . S
C1755 C1753 1.395 . S
C1755 C1757 1.390 . S
C1755 H1759 0.950 1_556 S
H1756 C1752 0.950 . S
C1757 C1755 1.390 . S
C1757 C1758 1.387 . S
C1757 H1760 0.950 . S
C1758 C1757 1.387 . S
C1758 C1761 1.387 . S
H1759 C1755 0.950 1_554 S
H1760 C1757 0.950 . S
C1761 C1752 1.390 . S
C1761 H1754 0.950 . S
C1761 C1758 1.387 . S
C1762 C1763 1.398 . S
C1762 H1766 0.950 1_655 S
C1762 C1771 1.390 . S
C1763 C1762 1.398 . S
C1763 C1765 1.410 . S
H1764 C1771 0.950 . S
C1765 C1763 1.410 . S
C1765 C1767 1.390 . S
C1765 H1769 0.950 . S
H1766 C1762 0.950 1_455 S
C1767 C1765 1.390 . S
C1767 C1768 1.387 . S
C1767 H1770 0.950 . S
C1768 C1767 1.387 . S
C1768 C1771 1.387 . S
H1769 C1765 0.950 . S
H1770 C1767 0.950 . S
C1771 C1762 1.390 . S
C1771 H1764 0.950 . S
C1771 C1768 1.387 . S
C1772 C1773 1.387 . S
C1772 H1776 0.950 . S
C1772 C1781 1.390 . S
C1773 C1772 1.387 . S
C1773 C1775 1.387 . S
H1774 C1781 0.950 . S
C1775 C1773 1.387 . S
C1775 C1777 1.390 . S
C1775 H1779 0.950 . S
H1776 C1772 0.950 . S
C1777 C1775 1.390 . S
C1777 C1778 1.387 . S
C1777 H1780 0.950 . S
C1778 C1777 1.387 . S
C1778 C1781 1.387 . S
H1779 C1775 0.950 . S
H1780 C1777 0.950 . S
C1781 C1772 1.390 . S
C1781 H1774 0.950 . S
C1781 C1778 1.387 . S
C1782 C1783 1.400 . S
C1782 H1786 0.950 . S
C1782 C1791 1.390 . S
C1783 C1782 1.400 . S
C1783 C1785 1.402 . S
H1784 C1791 0.950 . S
C1785 C1783 1.402 . S
C1785 C1787 1.390 . S
C1785 H1789 0.950 . S
H1786 C1782 0.950 . S
C1787 C1785 1.390 . S
C1787 C1788 1.387 . S
C1787 H1790 0.950 . S
C1788 C1787 1.387 . S
C1788 C1791 1.387 . S
H1789 C1785 0.950 . S
H1790 C1787 0.950 . S
C1791 C1782 1.390 . S
C1791 H1784 0.950 . S
C1791 C1788 1.387 . S
C1792 C1793 1.387 . S
C1792 H1796 0.950 . S
C1792 C1801 1.390 . S
C1793 C1792 1.387 . S
C1793 C1795 1.387 . S
H1794 C1801 0.950 . S
C1795 C1793 1.387 . S
C1795 C1797 1.390 . S
C1795 H1799 0.950 . S
H1796 C1792 0.950 . S
C1797 C1795 1.390 . S
C1797 C1798 1.387 . S
C1797 H1800 0.950 . S
C1798 C1797 1.387 . S
C1798 C1801 1.387 . S
H1799 C1795 0.950 . S
H1800 C1797 0.950 . S
C1801 C1792 1.390 . S
C1801 H1794 0.950 . S
C1801 C1798 1.387 . S
C1802 C1803 1.387 . S
C1802 H1806 0.950 . S
C1802 C1811 1.390 . S
C1803 C1802 1.387 . S
C1803 C1805 1.387 . S
H1804 C1811 0.950 . S
C1805 C1803 1.387 . S
C1805 C1807 1.390 . S
C1805 H1809 0.950 . S
H1806 C1802 0.950 . S
C1807 C1805 1.390 . S
C1807 C1808 1.387 . S
C1807 H1810 0.950 . S
C1808 C1807 1.387 . S
C1808 C1811 1.387 . S
H1809 C1805 0.950 . S
H1810 C1807 0.950 . S
C1811 C1802 1.390 . S
C1811 H1804 0.950 . S
C1811 C1808 1.387 . S
C1812 C1813 1.387 . S
C1812 H1816 0.950 . S
C1812 C1821 1.390 1_554 S
C1813 C1812 1.387 . S
C1813 C1815 1.387 . S
H1814 C1821 0.950 . S
C1815 C1813 1.387 . S
C1815 C1817 1.390 . S
C1815 H1819 0.950 . S
H1816 C1812 0.950 . S
C1817 C1815 1.390 . S
C1817 C1818 1.428 . S
C1817 H1820 0.950 . S
C1818 C1817 1.428 . S
C1818 C1821 1.378 1_554 S
H1819 C1815 0.950 . S
H1820 C1817 0.950 . S
C1821 C1812 1.390 1_556 S
C1821 H1814 0.950 . S
C1821 C1818 1.378 1_556 S
C1822 C1823 1.387 . S
C1822 H1826 0.950 . S
C1822 C1831 1.390 . S
C1823 C1822 1.387 . S
C1823 C1825 1.387 . S
H1824 C1831 0.950 . S
C1825 C1823 1.387 . S
C1825 C1827 1.390 . S
C1825 H1829 0.950 . S
H1826 C1822 0.950 . S
C1827 C1825 1.390 . S
C1827 C1828 1.387 . S
C1827 H1830 0.950 . S
C1828 C1827 1.387 . S
C1828 C1831 1.387 . S
H1829 C1825 0.950 . S
H1830 C1827 0.950 . S
C1831 C1822 1.390 . S
C1831 H1824 0.950 . S
C1831 C1828 1.387 . S
C1832 C1833 1.387 . S
C1832 H1836 0.950 . S
C1832 C1841 1.390 . S
C1833 C1832 1.387 . S
C1833 C1835 1.387 . S
H1834 C1841 0.950 . S
C1835 C1833 1.387 . S
C1835 C1837 1.390 . S
C1835 H1839 0.950 . S
H1836 C1832 0.950 . S
C1837 C1835 1.390 . S
C1837 C1838 1.387 . S
C1837 H1840 0.950 . S
C1838 C1837 1.387 . S
C1838 C1841 1.387 . S
H1839 C1835 0.950 . S
H1840 C1837 0.950 . S
C1841 C1832 1.390 . S
C1841 H1834 0.950 . S
C1841 C1838 1.387 . S
C1842 C1843 1.387 . S
C1842 H1846 0.950 . S
C1842 C1851 1.390 . S
C1843 C1842 1.387 . S
C1843 C1845 1.387 . S
H1844 C1851 0.950 . S
C1845 C1843 1.387 . S
C1845 C1847 1.390 . S
C1845 H1849 0.950 . S
H1846 C1842 0.950 . S
C1847 C1845 1.390 . S
C1847 C1848 1.387 . S
C1847 H1850 0.950 . S
C1848 C1847 1.387 . S
C1848 C1851 1.387 . S
H1849 C1845 0.950 . S
H1850 C1847 0.950 . S
C1851 C1842 1.390 . S
C1851 H1844 0.950 . S
C1851 C1848 1.387 . S
C1852 C1853 1.387 . S
C1852 H1856 0.950 . S
C1852 C1861 1.390 . S
C1853 C1852 1.387 . S
C1853 C1855 1.387 . S
H1854 C1861 0.950 . S
C1855 C1853 1.387 . S
C1855 C1857 1.390 . S
C1855 H1859 0.950 . S
H1856 C1852 0.950 . S
C1857 C1855 1.390 . S
C1857 C1858 1.387 . S
C1857 H1860 0.950 . S
C1858 C1857 1.387 . S
C1858 C1861 1.387 . S
H1859 C1855 0.950 . S
H1860 C1857 0.950 . S
C1861 C1852 1.390 . S
C1861 H1854 0.950 . S
C1861 C1858 1.387 . S
C1862 C1863 1.387 . S
C1862 H1866 0.950 . S
C1862 C1871 1.390 . S
C1863 C1862 1.387 . S
C1863 C1865 1.387 . S
H1864 C1871 0.950 . S
C1865 C1863 1.387 . S
C1865 C1867 1.390 . S
C1865 H1869 0.950 . S
H1866 C1862 0.950 . S
C1867 C1865 1.390 . S
C1867 C1868 1.387 . S
C1867 H1870 0.950 . S
C1868 C1867 1.387 . S
C1868 C1871 1.387 . S
H1869 C1865 0.950 . S
H1870 C1867 0.950 . S
C1871 C1862 1.390 . S
C1871 H1864 0.950 . S
C1871 C1868 1.387 . S
C1872 C1873 1.387 . S
C1872 H1876 0.950 . S
C1872 C1881 1.390 . S
C1873 C1872 1.387 . S
C1873 C1875 1.387 . S
H1874 C1881 0.950 . S
C1875 C1873 1.387 . S
C1875 C1877 1.390 . S
C1875 H1879 0.950 . S
H1876 C1872 0.950 . S
C1877 C1875 1.390 . S
C1877 C1878 1.387 . S
C1877 H1880 0.950 . S
C1878 C1877 1.387 . S
C1878 C1881 1.387 . S
H1879 C1875 0.950 . S
H1880 C1877 0.950 . S
C1881 C1872 1.390 . S
C1881 H1874 0.950 . S
C1881 C1878 1.387 . S
C1882 C1883 1.387 . S
C1882 H1886 0.950 . S
C1882 C1891 1.390 1_655 S
C1883 C1882 1.387 . S
C1883 C1885 1.387 . S
H1884 C1891 0.950 . S
C1885 C1883 1.387 . S
C1885 C1887 1.390 . S
C1885 H1889 0.950 . S
H1886 C1882 0.950 . S
C1887 C1885 1.390 . S
C1887 C1888 1.387 1_655 S
C1887 H1890 0.950 1_655 S
C1888 C1887 1.387 1_455 S
C1888 C1891 1.387 . S
H1889 C1885 0.950 . S
H1890 C1887 0.950 1_455 S
C1891 C1882 1.390 1_455 S
C1891 H1884 0.950 . S
C1891 C1888 1.387 . S
C1892 C1893 1.387 . S
C1892 H1896 0.950 . S
C1892 C1901 1.390 . S
C1893 C1892 1.387 . S
C1893 C1895 1.387 . S
H1894 C1901 0.950 . S
C1895 C1893 1.387 . S
C1895 C1897 1.390 . S
C1895 H1899 0.950 . S
H1896 C1892 0.950 . S
C1897 C1895 1.390 . S
C1897 C1898 1.387 . S
C1897 H1900 0.950 . S
C1898 C1897 1.387 . S
C1898 C1901 1.387 . S
H1899 C1895 0.950 . S
H1900 C1897 0.950 . S
C1901 C1892 1.390 . S
C1901 H1894 0.950 . S
C1901 C1898 1.387 . S
C1902 C1903 1.387 . S
C1902 H1906 0.950 . S
C1902 C1911 1.390 . S
C1903 C1902 1.387 . S
C1903 C1905 1.387 . S
H1904 C1911 0.950 . S
C1905 C1903 1.387 . S
C1905 C1907 1.390 . S
C1905 H1909 0.950 . S
H1906 C1902 0.950 . S
C1907 C1905 1.390 . S
C1907 C1908 1.387 . S
C1907 H1910 0.950 . S
C1908 C1907 1.387 . S
C1908 C1911 1.387 . S
H1909 C1905 0.950 . S
H1910 C1907 0.950 . S
C1911 C1902 1.390 . S
C1911 H1904 0.950 . S
C1911 C1908 1.387 . S
C1912 C1913 1.387 . S
C1912 H1916 0.950 . S
C1912 C1921 1.390 . S
C1913 C1912 1.387 . S
C1913 C1915 1.387 . S
H1914 C1921 0.950 . S
C1915 C1913 1.387 . S
C1915 C1917 1.390 . S
C1915 H1919 0.950 . S
H1916 C1912 0.950 . S
C1917 C1915 1.390 . S
C1917 C1918 1.387 . S
C1917 H1920 0.950 . S
C1918 C1917 1.387 . S
C1918 C1921 1.387 . S
H1919 C1915 0.950 . S
H1920 C1917 0.950 . S
C1921 C1912 1.390 . S
C1921 H1914 0.950 . S
C1921 C1918 1.387 . S
C1922 C1923 1.387 . S
C1922 H1926 0.950 . S
C1922 C1931 1.390 . S
C1923 C1922 1.387 . S
C1923 C1925 1.387 . S
H1924 C1931 0.950 . S
C1925 C1923 1.387 . S
C1925 C1927 1.390 . S
C1925 H1929 0.950 . S
H1926 C1922 0.950 . S
C1927 C1925 1.390 . S
C1927 C1928 1.387 . S
C1927 H1930 0.950 . S
C1928 C1927 1.387 . S
C1928 C1931 1.387 . S
H1929 C1925 0.950 . S
H1930 C1927 0.950 . S
C1931 C1922 1.390 . S
C1931 H1924 0.950 . S
C1931 C1928 1.387 . S
C1932 C1933 1.387 . S
C1932 H1936 0.950 . S
C1932 C1941 1.390 . S
C1933 C1932 1.387 . S
C1933 C1935 1.387 . S
H1934 C1941 0.950 . S
C1935 C1933 1.387 . S
C1935 C1937 1.390 . S
C1935 H1939 0.950 . S
H1936 C1932 0.950 . S
C1937 C1935 1.390 . S
C1937 C1938 1.387 . S
C1937 H1940 0.950 . S
C1938 C1937 1.387 . S
C1938 C1941 1.387 . S
H1939 C1935 0.950 . S
H1940 C1937 0.950 . S
C1941 C1932 1.390 . S
C1941 H1934 0.950 . S
C1941 C1938 1.387 . S
C1942 C1943 1.387 1_655 S
C1942 H1946 0.950 . S
C1942 C1951 1.390 . S
C1943 C1942 1.387 1_455 S
C1943 C1945 1.387 . S
H1944 C1951 0.950 . S
C1945 C1943 1.387 . S
C1945 C1947 1.390 1_455 S
C1945 H1949 0.950 . S
H1946 C1942 0.950 . S
C1947 C1945 1.390 1_655 S
C1947 C1948 1.387 . S
C1947 H1950 0.950 . S
C1948 C1947 1.387 . S
C1948 C1951 1.387 . S
H1949 C1945 0.950 . S
H1950 C1947 0.950 . S
C1951 C1942 1.390 . S
C1951 H1944 0.950 . S
C1951 C1948 1.387 . S
C1952 C1953 1.387 . S
C1952 H1956 0.950 . S
C1952 C1961 1.390 . S
C1953 C1952 1.387 . S
C1953 C1955 1.387 . S
H1954 C1961 0.950 . S
C1955 C1953 1.387 . S
C1955 C1957 1.390 . S
C1955 H1959 0.950 . S
H1956 C1952 0.950 . S
C1957 C1955 1.390 . S
C1957 C1958 1.387 . S
C1957 H1960 0.950 . S
C1958 C1957 1.387 . S
C1958 C1961 1.387 . S
H1959 C1955 0.950 . S
H1960 C1957 0.950 . S
C1961 C1952 1.390 . S
C1961 H1954 0.950 . S
C1961 C1958 1.387 . S
C1962 C1963 1.387 . S
C1962 H1966 0.950 . S
C1962 C1971 1.390 . S
C1963 C1962 1.387 . S
C1963 C1965 1.387 . S
H1964 C1971 0.950 . S
C1965 C1963 1.387 . S
C1965 C1967 1.390 . S
C1965 H1969 0.950 . S
H1966 C1962 0.950 . S
C1967 C1965 1.390 . S
C1967 C1968 1.387 . S
C1967 H1970 0.950 1_565 S
C1968 C1967 1.387 . S
C1968 C1971 1.387 . S
H1969 C1965 0.950 . S
H1970 C1967 0.950 1_545 S
C1971 C1962 1.390 . S
C1971 H1964 0.950 . S
C1971 C1968 1.387 . S
C1972 C1973 1.387 . S
C1972 H1976 0.950 . S
C1972 C1981 1.390 . S
C1973 C1972 1.387 . S
C1973 C1975 1.387 . S
H1974 C1981 0.950 . S
C1975 C1973 1.387 . S
C1975 C1977 1.390 . S
C1975 H1979 0.950 . S
H1976 C1972 0.950 . S
C1977 C1975 1.390 . S
C1977 C1978 1.387 . S
C1977 H1980 0.950 . S
C1978 C1977 1.387 . S
C1978 C1981 1.387 . S
H1979 C1975 0.950 . S
H1980 C1977 0.950 . S
C1981 C1972 1.390 . S
C1981 H1974 0.950 . S
C1981 C1978 1.387 . S
C1982 C1983 1.387 . S
C1982 H1986 0.950 . S
C1982 C1991 1.390 . S
C1983 C1982 1.387 . S
C1983 C1985 1.387 . S
H1984 C1991 0.950 . S
C1985 C1983 1.387 . S
C1985 C1987 1.390 1_554 S
C1985 H1989 0.950 . S
H1986 C1982 0.950 . S
C1987 C1985 1.390 1_556 S
C1987 C1988 1.387 . S
C1987 H1990 0.950 . S
C1988 C1987 1.387 . S
C1988 C1991 1.387 1_556 S
H1989 C1985 0.950 . S
H1990 C1987 0.950 . S
C1991 C1982 1.390 . S
C1991 H1984 0.950 . S
C1991 C1988 1.387 1_554 S
C1992 C1993 1.387 . S
C1992 H1996 0.950 . S
C1992 C2001 1.390 . S
C1993 C1992 1.387 . S
C1993 C1995 1.387 . S
H1994 C2001 0.950 . S
C1995 C1993 1.387 . S
C1995 C1997 1.390 . S
C1995 H1999 0.950 . S
H1996 C1992 0.950 . S
C1997 C1995 1.390 . S
C1997 C1998 1.387 . S
C1997 H2000 0.950 . S
C1998 C1997 1.387 . S
C1998 C2001 1.387 . S
H1999 C1995 0.950 . S
H2000 C1997 0.950 . S
C2001 C1992 1.390 . S
C2001 H1994 0.950 . S
C2001 C1998 1.387 . S
C2002 C2003 1.387 . S
C2002 H2006 0.950 1_565 S
C2002 C2011 1.390 . S
C2003 C2002 1.387 . S
C2003 C2005 1.387 . S
H2004 C2011 0.950 . S
C2005 C2003 1.387 . S
C2005 C2007 1.390 . S
C2005 H2009 0.950 . S
H2006 C2002 0.950 1_545 S
C2007 C2005 1.390 . S
C2007 C2008 1.387 . S
C2007 H2010 0.950 . S
C2008 C2007 1.387 . S
C2008 C2011 1.387 . S
H2009 C2005 0.950 . S
H2010 C2007 0.950 . S
C2011 C2002 1.390 . S
C2011 H2004 0.950 . S
C2011 C2008 1.387 . S
C2012 C2013 1.387 . S
C2012 H2016 0.950 . S
C2012 C2021 1.390 . S
C2013 C2012 1.387 . S
C2013 C2015 1.387 . S
H2014 C2021 0.950 . S
C2015 C2013 1.387 . S
C2015 C2017 1.390 . S
C2015 H2019 0.950 . S
H2016 C2012 0.950 . S
C2017 C2015 1.390 . S
C2017 C2018 1.387 . S
C2017 H2020 0.950 . S
C2018 C2017 1.387 . S
C2018 C2021 1.387 . S
H2019 C2015 0.950 . S
H2020 C2017 0.950 . S
C2021 C2012 1.390 . S
C2021 H2014 0.950 . S
C2021 C2018 1.387 . S
C2022 C2023 1.387 1_556 S
C2022 H2026 0.950 . S
C2022 C2031 1.390 . S
C2023 C2022 1.387 1_554 S
C2023 C2025 1.387 . S
H2024 C2031 0.950 . S
C2025 C2023 1.387 . S
C2025 C2027 1.390 1_554 S
C2025 H2029 0.950 . S
H2026 C2022 0.950 . S
C2027 C2025 1.390 1_556 S
C2027 C2028 1.387 . S
C2027 H2030 0.950 . S
C2028 C2027 1.387 . S
C2028 C2031 1.387 . S
H2029 C2025 0.950 . S
H2030 C2027 0.950 . S
C2031 C2022 1.390 . S
C2031 H2024 0.950 . S
C2031 C2028 1.387 . S
C2032 C2033 1.387 . S
C2032 H2036 0.950 . S
C2032 C2041 1.390 . S
C2033 C2032 1.387 . S
C2033 C2035 1.387 . S
H2034 C2041 0.950 . S
C2035 C2033 1.387 . S
C2035 C2037 1.390 . S
C2035 H2039 0.950 . S
H2036 C2032 0.950 . S
C2037 C2035 1.390 . S
C2037 C2038 1.387 . S
C2037 H2040 0.950 . S
C2038 C2037 1.387 . S
C2038 C2041 1.387 . S
H2039 C2035 0.950 . S
H2040 C2037 0.950 . S
C2041 C2032 1.390 . S
C2041 H2034 0.950 . S
C2041 C2038 1.387 . S
C2042 C2043 1.387 . S
C2042 H2046 0.950 . S
C2042 C2051 1.390 . S
C2043 C2042 1.387 . S
C2043 C2045 1.387 . S
H2044 C2051 0.950 . S
C2045 C2043 1.387 . S
C2045 C2047 1.390 . S
C2045 H2049 0.950 . S
H2046 C2042 0.950 . S
C2047 C2045 1.390 . S
C2047 C2048 1.387 . S
C2047 H2050 0.950 . S
C2048 C2047 1.387 . S
C2048 C2051 1.387 . S
H2049 C2045 0.950 . S
H2050 C2047 0.950 . S
C2051 C2042 1.390 . S
C2051 H2044 0.950 . S
C2051 C2048 1.387 . S
C2052 C2053 1.387 . S
C2052 H2056 0.950 . S
C2052 C2061 1.390 . S
C2053 C2052 1.387 . S
C2053 C2055 1.387 . S
H2054 C2061 0.950 . S
C2055 C2053 1.387 . S
C2055 C2057 1.390 . S
C2055 H2059 0.950 . S
H2056 C2052 0.950 . S
C2057 C2055 1.390 . S
C2057 C2058 1.387 . S
C2057 H2060 0.950 . S
C2058 C2057 1.387 . S
C2058 C2061 1.387 . S
H2059 C2055 0.950 . S
H2060 C2057 0.950 . S
C2061 C2052 1.390 . S
C2061 H2054 0.950 . S
C2061 C2058 1.387 . S
C2062 C2063 1.387 . S
C2062 H2066 0.950 . S
C2062 C2071 1.390 . S
C2063 C2062 1.387 . S
C2063 C2065 1.387 . S
H2064 C2071 0.950 . S
C2065 C2063 1.387 . S
C2065 C2067 1.390 . S
C2065 H2069 0.950 . S
H2066 C2062 0.950 . S
C2067 C2065 1.390 . S
C2067 C2068 1.387 . S
C2067 H2070 0.950 . S
C2068 C2067 1.387 . S
C2068 C2071 1.387 . S
H2069 C2065 0.950 . S
H2070 C2067 0.950 . S
C2071 C2062 1.390 . S
C2071 H2064 0.950 . S
C2071 C2068 1.387 . S
C2072 C2073 1.387 . S
C2072 H2076 0.950 . S
C2072 C2081 1.390 . S
C2073 C2072 1.387 . S
C2073 C2075 1.387 1_545 S
H2074 C2081 0.950 . S
C2075 C2073 1.387 1_565 S
C2075 C2077 1.390 . S
C2075 H2079 0.950 1_455 S
H2076 C2072 0.950 . S
C2077 C2075 1.390 . S
C2077 C2078 1.387 . S
C2077 H2080 0.950 . S
C2078 C2077 1.387 . S
C2078 C2081 1.387 1_565 S
H2079 C2075 0.950 1_655 S
H2080 C2077 0.950 . S
C2081 C2072 1.390 . S
C2081 H2074 0.950 . S
C2081 C2078 1.387 1_545 S
C2082 C2083 1.387 . S
C2082 H2086 0.950 . S
C2082 C2091 1.390 . S
C2083 C2082 1.387 . S
C2083 C2085 1.387 . S
H2084 C2091 0.950 . S
C2085 C2083 1.387 . S
C2085 C2087 1.390 . S
C2085 H2089 0.950 . S
H2086 C2082 0.950 . S
C2087 C2085 1.390 . S
C2087 C2088 1.387 . S
C2087 H2090 0.950 . S
C2088 C2087 1.387 . S
C2088 C2091 1.387 . S
H2089 C2085 0.950 . S
H2090 C2087 0.950 . S
C2091 C2082 1.390 . S
C2091 H2084 0.950 . S
C2091 C2088 1.387 . S
C2092 C2093 1.387 . S
C2092 H2096 0.950 . S
C2092 C2101 1.390 . S
C2093 C2092 1.387 . S
C2093 C2095 1.387 . S
H2094 C2101 0.950 1_455 S
C2095 C2093 1.387 . S
C2095 C2097 1.390 . S
C2095 H2099 0.950 . S
H2096 C2092 0.950 . S
C2097 C2095 1.390 . S
C2097 C2098 1.387 . S
C2097 H2100 0.950 . S
C2098 C2097 1.387 . S
C2098 C2101 1.387 . S
H2099 C2095 0.950 . S
H2100 C2097 0.950 . S
C2101 C2092 1.390 . S
C2101 H2094 0.950 1_655 S
C2101 C2098 1.387 . S
C2102 C2103 1.387 . S
C2102 H2106 0.950 . S
C2102 C2111 1.390 . S
C2103 C2102 1.387 . S
C2103 C2105 1.387 . S
H2104 C2111 0.950 . S
C2105 C2103 1.387 . S
C2105 C2107 1.390 . S
C2105 H2109 0.950 . S
H2106 C2102 0.950 . S
C2107 C2105 1.390 . S
C2107 C2108 1.387 . S
C2107 H2110 0.950 . S
C2108 C2107 1.387 . S
C2108 C2111 1.387 . S
H2109 C2105 0.950 . S
H2110 C2107 0.950 . S
C2111 C2102 1.390 . S
C2111 H2104 0.950 . S
C2111 C2108 1.387 . S
C2112 C2113 1.387 . S
C2112 H2116 0.950 . S
C2112 C2121 1.390 . S
C2113 C2112 1.387 . S
C2113 C2115 1.387 . S
H2114 C2121 0.950 . S
C2115 C2113 1.387 . S
C2115 C2117 1.390 . S
C2115 H2119 0.950 . S
H2116 C2112 0.950 . S
C2117 C2115 1.390 . S
C2117 C2118 1.387 . S
C2117 H2120 0.950 . S
C2118 C2117 1.387 . S
C2118 C2121 1.387 . S
H2119 C2115 0.950 . S
H2120 C2117 0.950 . S
C2121 C2112 1.390 . S
C2121 H2114 0.950 . S
C2121 C2118 1.387 . S
C2122 C2123 1.387 . S
C2122 H2126 0.950 . S
C2122 C2131 1.390 . S
C2123 C2122 1.387 . S
C2123 C2125 1.387 . S
H2124 C2131 0.950 . S
C2125 C2123 1.387 . S
C2125 C2127 1.390 . S
C2125 H2129 0.950 1_556 S
H2126 C2122 0.950 . S
C2127 C2125 1.390 . S
C2127 C2128 1.387 . S
C2127 H2130 0.950 . S
C2128 C2127 1.387 . S
C2128 C2131 1.387 . S
H2129 C2125 0.950 1_554 S
H2130 C2127 0.950 . S
C2131 C2122 1.390 . S
C2131 H2124 0.950 . S
C2131 C2128 1.387 . S
C2132 C2133 1.387 . S
C2132 H2136 0.950 . S
C2132 C2141 1.390 . S
C2133 C2132 1.387 . S
C2133 C2135 1.387 . S
H2134 C2141 0.950 . S
C2135 C2133 1.387 . S
C2135 C2137 1.390 . S
C2135 H2139 0.950 . S
H2136 C2132 0.950 . S
C2137 C2135 1.390 . S
C2137 C2138 1.387 . S
C2137 H2140 0.950 . S
C2138 C2137 1.387 . S
C2138 C2141 1.387 . S
H2139 C2135 0.950 . S
H2140 C2137 0.950 . S
C2141 C2132 1.390 . S
C2141 H2134 0.950 . S
C2141 C2138 1.387 . S
C2142 C2143 1.387 . S
C2142 H2146 0.950 . S
C2142 C2151 1.390 1_655 S
C2143 C2142 1.387 . S
C2143 C2145 1.381 1_655 S
H2144 C2151 0.950 . S
C2145 C2143 1.381 1_455 S
C2145 C2147 1.401 . S
C2145 H2149 0.945 1_455 S
H2146 C2142 0.950 . S
C2147 C2145 1.401 . S
C2147 C2148 1.387 . S
C2147 H2150 0.950 . S
C2148 C2147 1.387 . S
C2148 C2151 1.387 . S
H2149 C2145 0.945 1_655 S
H2150 C2147 0.950 . S
C2151 C2142 1.390 1_455 S
C2151 H2144 0.950 . S
C2151 C2148 1.387 . S
C2152 C2153 1.387 . S
C2152 H2156 0.950 . S
C2152 C2161 1.390 . S
C2153 C2152 1.387 . S
C2153 C2155 1.387 . S
H2154 C2161 0.950 . S
C2155 C2153 1.387 . S
C2155 C2157 1.390 . S
C2155 H2159 0.950 . S
H2156 C2152 0.950 . S
C2157 C2155 1.390 . S
C2157 C2158 1.387 . S
C2157 H2160 0.950 . S
C2158 C2157 1.387 . S
C2158 C2161 1.387 . S
H2159 C2155 0.950 . S
H2160 C2157 0.950 . S
C2161 C2152 1.390 . S
C2161 H2154 0.950 . S
C2161 C2158 1.387 . S
C2162 C2163 1.387 1_455 S
C2162 H2166 0.947 1_455 S
C2162 C2171 1.390 . S
C2163 C2162 1.387 1_655 S
C2163 C2165 1.387 . S
H2164 C2171 0.950 . S
C2165 C2163 1.387 . S
C2165 C2167 1.390 1_655 S
C2165 H2169 0.950 . S
H2166 C2162 0.947 1_655 S
C2167 C2165 1.390 1_455 S
C2167 C2168 1.387 . S
C2167 H2170 0.950 . S
C2168 C2167 1.387 . S
C2168 C2171 1.387 . S
H2169 C2165 0.950 . S
H2170 C2167 0.950 . S
C2171 C2162 1.390 . S
C2171 H2164 0.950 . S
C2171 C2168 1.387 . S
C2172 C2173 1.387 . S
C2172 H2176 0.950 . S
C2172 C2181 1.390 . S
C2173 C2172 1.387 . S
C2173 C2175 1.387 . S
H2174 C2181 0.950 . S
C2175 C2173 1.387 . S
C2175 C2177 1.390 . S
C2175 H2179 0.950 . S
H2176 C2172 0.950 . S
C2177 C2175 1.390 . S
C2177 C2178 1.387 . S
C2177 H2180 0.950 . S
C2178 C2177 1.387 . S
C2178 C2181 1.387 . S
H2179 C2175 0.950 . S
H2180 C2177 0.950 . S
C2181 C2172 1.390 . S
C2181 H2174 0.950 . S
C2181 C2178 1.387 . S
C2182 C2183 1.387 . S
C2182 H2186 0.950 . S
C2182 C2191 1.390 . S
C2183 C2182 1.387 . S
C2183 C2185 1.387 . S
H2184 C2191 0.950 . S
C2185 C2183 1.387 . S
C2185 C2187 1.390 . S
C2185 H2189 0.950 . S
H2186 C2182 0.950 . S
C2187 C2185 1.390 . S
C2187 C2188 1.387 . S
C2187 H2190 0.950 . S
C2188 C2187 1.387 . S
C2188 C2191 1.387 . S
H2189 C2185 0.950 . S
H2190 C2187 0.950 . S
C2191 C2182 1.390 . S
C2191 H2184 0.950 . S
C2191 C2188 1.387 . S
C2192 C2193 1.387 . S
C2192 H2196 0.950 . S
C2192 C2201 1.390 . S
C2193 C2192 1.387 . S
C2193 C2195 1.387 . S
H2194 C2201 0.950 . S
C2195 C2193 1.387 . S
C2195 C2197 1.390 . S
C2195 H2199 0.950 . S
H2196 C2192 0.950 . S
C2197 C2195 1.390 . S
C2197 C2198 1.387 . S
C2197 H2200 0.950 . S
C2198 C2197 1.387 . S
C2198 C2201 1.387 . S
H2199 C2195 0.950 . S
H2200 C2197 0.950 . S
C2201 C2192 1.390 . S
C2201 H2194 0.950 . S
C2201 C2198 1.387 . S
C2202 C2203 1.387 . S
C2202 H2206 0.950 . S
C2202 C2211 1.372 1_556 S
C2203 C2202 1.387 . S
C2203 C2205 1.387 1_556 S
H2204 C2211 0.943 1_556 S
C2205 C2203 1.387 1_554 S
C2205 C2207 1.390 . S
C2205 H2209 0.950 . S
H2206 C2202 0.950 . S
C2207 C2205 1.390 . S
C2207 C2208 1.387 . S
C2207 H2210 0.950 . S
C2208 C2207 1.387 . S
C2208 C2211 1.414 . S
H2209 C2205 0.950 . S
H2210 C2207 0.950 . S
C2211 C2202 1.372 1_554 S
C2211 H2204 0.943 1_554 S
C2211 C2208 1.414 . S
C2212 C2213 1.387 . S
C2212 H2216 0.950 . S
C2212 C2221 1.390 . S
C2213 C2212 1.387 . S
C2213 C2215 1.387 . S
H2214 C2221 0.950 . S
C2215 C2213 1.387 . S
C2215 C2217 1.390 . S
C2215 H2219 0.950 . S
H2216 C2212 0.950 . S
C2217 C2215 1.390 . S
C2217 C2218 1.387 . S
C2217 H2220 0.950 . S
C2218 C2217 1.387 . S
C2218 C2221 1.387 . S
H2219 C2215 0.950 . S
H2220 C2217 0.950 . S
C2221 C2212 1.390 . S
C2221 H2214 0.950 . S
C2221 C2218 1.387 . S
C2222 C2223 1.387 . S
C2222 H2226 0.950 . S
C2222 C2231 1.390 . S
C2223 C2222 1.387 . S
C2223 C2225 1.387 . S
H2224 C2231 0.950 . S
C2225 C2223 1.387 . S
C2225 C2227 1.390 . S
C2225 H2229 0.950 . S
H2226 C2222 0.950 . S
C2227 C2225 1.390 . S
C2227 C2228 1.387 . S
C2227 H2230 0.950 . S
C2228 C2227 1.387 . S
C2228 C2231 1.387 . S
H2229 C2225 0.950 . S
H2230 C2227 0.950 . S
C2231 C2222 1.390 . S
C2231 H2224 0.950 . S
C2231 C2228 1.387 . S
C2232 C2233 1.387 . S
C2232 H2236 0.950 . S
C2232 C2241 1.390 . S
C2233 C2232 1.387 . S
C2233 C2235 1.387 . S
H2234 C2241 0.950 . S
C2235 C2233 1.387 . S
C2235 C2237 1.390 . S
C2235 H2239 0.950 . S
H2236 C2232 0.950 . S
C2237 C2235 1.390 . S
C2237 C2238 1.387 . S
C2237 H2240 0.950 . S
C2238 C2237 1.387 . S
C2238 C2241 1.387 . S
H2239 C2235 0.950 . S
H2240 C2237 0.950 . S
C2241 C2232 1.390 . S
C2241 H2234 0.950 . S
C2241 C2238 1.387 . S
C2242 C2243 1.387 1_554 S
C2242 H2246 0.950 . S
C2242 C2251 1.390 . S
C2243 C2242 1.387 1_556 S
C2243 C2245 1.387 . S
H2244 C2251 0.950 . S
C2245 C2243 1.387 . S
C2245 C2247 1.390 . S
C2245 H2249 0.950 . S
H2246 C2242 0.950 . S
C2247 C2245 1.390 . S
C2247 C2248 1.387 1_556 S
C2247 H2250 0.950 . S
C2248 C2247 1.387 1_554 S
C2248 C2251 1.387 . S
H2249 C2245 0.950 . S
H2250 C2247 0.950 . S
C2251 C2242 1.390 . S
C2251 H2244 0.950 . S
C2251 C2248 1.387 . S
C2252 C2253 1.387 . S
C2252 H2256 0.950 . S
C2252 C2261 1.390 . S
C2253 C2252 1.387 . S
C2253 C2255 1.387 . S
H2254 C2261 0.950 . S
C2255 C2253 1.387 . S
C2255 C2257 1.390 . S
C2255 H2259 0.950 . S
H2256 C2252 0.950 . S
C2257 C2255 1.390 . S
C2257 C2258 1.387 . S
C2257 H2260 0.950 . S
C2258 C2257 1.387 . S
C2258 C2261 1.387 . S
H2259 C2255 0.950 . S
H2260 C2257 0.950 . S
C2261 C2252 1.390 . S
C2261 H2254 0.950 . S
C2261 C2258 1.387 . S
C2262 C2263 1.387 . S
C2262 H2266 0.950 . S
C2262 C2271 1.390 . S
C2263 C2262 1.387 . S
C2263 C2265 1.387 . S
H2264 C2271 0.950 . S
C2265 C2263 1.387 . S
C2265 C2267 1.390 . S
C2265 H2269 0.950 . S
H2266 C2262 0.950 . S
C2267 C2265 1.390 . S
C2267 C2268 1.387 . S
C2267 H2270 0.950 . S
C2268 C2267 1.387 . S
C2268 C2271 1.387 . S
H2269 C2265 0.950 . S
H2270 C2267 0.950 . S
C2271 C2262 1.390 . S
C2271 H2264 0.950 . S
C2271 C2268 1.387 . S
C2272 C2273 1.387 . S
C2272 H2276 0.950 . S
C2272 C2281 1.390 . S
C2273 C2272 1.387 . S
C2273 C2275 1.387 . S
H2274 C2281 0.950 . S
C2275 C2273 1.387 . S
C2275 C2277 1.390 . S
C2275 H2279 0.950 . S
H2276 C2272 0.950 . S
C2277 C2275 1.390 . S
C2277 C2278 1.387 . S
C2277 H2280 0.950 . S
C2278 C2277 1.387 . S
C2278 C2281 1.387 . S
H2279 C2275 0.950 . S
H2280 C2277 0.950 . S
C2281 C2272 1.390 . S
C2281 H2274 0.950 . S
C2281 C2278 1.387 . S
C2282 C2283 1.387 . S
C2282 H2286 0.950 . S
C2282 C2291 1.390 . S
C2283 C2282 1.387 . S
C2283 C2285 1.387 . S
H2284 C2291 0.950 . S
C2285 C2283 1.387 . S
C2285 C2287 1.390 . S
C2285 H2289 0.950 . S
H2286 C2282 0.950 . S
C2287 C2285 1.390 . S
C2287 C2288 1.387 . S
C2287 H2290 0.950 . S
C2288 C2287 1.387 . S
C2288 C2291 1.387 . S
H2289 C2285 0.950 . S
H2290 C2287 0.950 . S
C2291 C2282 1.390 . S
C2291 H2284 0.950 . S
C2291 C2288 1.387 . S
C2292 C2293 1.387 1_545 S
C2292 H2296 0.950 . S
C2292 C2301 1.390 . S
C2293 C2292 1.387 1_565 S
C2293 C2295 1.387 . S
H2294 C2301 0.950 . S
C2295 C2293 1.387 . S
C2295 C2297 1.390 1_565 S
C2295 H2299 0.950 . S
H2296 C2292 0.950 . S
C2297 C2295 1.390 1_545 S
C2297 C2298 1.387 . S
C2297 H2300 0.950 . S
C2298 C2297 1.387 . S
C2298 C2301 1.387 . S
H2299 C2295 0.950 . S
H2300 C2297 0.950 . S
C2301 C2292 1.390 . S
C2301 H2294 0.950 . S
C2301 C2298 1.387 . S
C2302 C2303 1.387 . S
C2302 H2306 0.950 . S
C2302 C2311 1.390 . S
C2303 C2302 1.387 . S
C2303 C2305 1.387 . S
H2304 C2311 0.950 . S
C2305 C2303 1.387 . S
C2305 C2307 1.390 . S
C2305 H2309 0.950 . S
H2306 C2302 0.950 . S
C2307 C2305 1.390 . S
C2307 C2308 1.387 . S
C2307 H2310 0.950 . S
C2308 C2307 1.387 . S
C2308 C2311 1.387 . S
H2309 C2305 0.950 . S
H2310 C2307 0.950 . S
C2311 C2302 1.390 . S
C2311 H2304 0.950 . S
C2311 C2308 1.387 . S
C2312 C2313 1.387 . S
C2312 H2316 0.950 . S
C2312 C2321 1.390 . S
C2313 C2312 1.387 . S
C2313 C2315 1.387 . S
H2314 C2321 0.950 . S
C2315 C2313 1.387 . S
C2315 C2317 1.390 . S
C2315 H2319 0.950 . S
H2316 C2312 0.950 . S
C2317 C2315 1.390 . S
C2317 C2318 1.387 . S
C2317 H2320 0.950 . S
C2318 C2317 1.387 . S
C2318 C2321 1.387 . S
H2319 C2315 0.950 . S
H2320 C2317 0.950 . S
C2321 C2312 1.390 . S
C2321 H2314 0.950 . S
C2321 C2318 1.387 . S
C2322 C2323 1.387 . S
C2322 H2326 0.950 . S
C2322 C2331 1.390 . S
C2323 C2322 1.387 . S
C2323 C2325 1.387 . S
H2324 C2331 0.950 . S
C2325 C2323 1.387 . S
C2325 C2327 1.390 . S
C2325 H2329 0.950 . S
H2326 C2322 0.950 . S
C2327 C2325 1.390 . S
C2327 C2328 1.387 . S
C2327 H2330 0.950 . S
C2328 C2327 1.387 . S
C2328 C2331 1.387 . S
H2329 C2325 0.950 . S
H2330 C2327 0.950 . S
C2331 C2322 1.390 . S
C2331 H2324 0.950 . S
C2331 C2328 1.387 . S
C2332 C2333 1.387 . S
C2332 H2336 0.950 . S
C2332 C2341 1.384 1_565 S
C2333 C2332 1.387 . S
C2333 C2335 1.387 . S
H2334 C2341 0.953 . S
C2335 C2333 1.387 . S
C2335 C2337 1.386 1_565 S
C2335 H2339 0.950 . S
H2336 C2332 0.950 . S
C2337 C2335 1.386 1_545 S
C2337 C2338 1.390 . S
C2337 H2340 0.952 . S
C2338 C2337 1.390 . S
C2338 C2341 1.390 . S
H2339 C2335 0.950 . S
H2340 C2337 0.952 . S
C2341 C2332 1.384 1_545 S
C2341 H2334 0.953 . S
C2341 C2338 1.390 . S
C2342 C2343 1.387 . S
C2342 H2346 0.950 . S
C2342 C2351 1.390 1_565 S
C2343 C2342 1.387 . S
C2343 C2345 1.387 1_565 S
H2344 C2351 0.950 . S
C2345 C2343 1.387 1_545 S
C2345 C2347 1.390 . S
C2345 H2349 0.950 . S
H2346 C2342 0.950 . S
C2347 C2345 1.390 . S
C2347 C2348 1.387 . S
C2347 H2350 0.950 . S
C2348 C2347 1.387 . S
C2348 C2351 1.387 . S
H2349 C2345 0.950 . S
H2350 C2347 0.950 . S
C2351 C2342 1.390 1_545 S
C2351 H2344 0.950 . S
C2351 C2348 1.387 . S
C2352 C2353 1.387 . S
C2352 H2356 0.950 . S
C2352 C2361 1.390 . S
C2353 C2352 1.387 . S
C2353 C2355 1.387 . S
H2354 C2361 0.950 . S
C2355 C2353 1.387 . S
C2355 C2357 1.390 . S
C2355 H2359 0.950 . S
H2356 C2352 0.950 . S
C2357 C2355 1.390 . S
C2357 C2358 1.387 . S
C2357 H2360 0.950 . S
C2358 C2357 1.387 . S
C2358 C2361 1.387 . S
H2359 C2355 0.950 . S
H2360 C2357 0.950 . S
C2361 C2352 1.390 . S
C2361 H2354 0.950 . S
C2361 C2358 1.387 . S
C2362 C2363 1.387 . S
C2362 H2366 0.950 . S
C2362 C2371 1.390 . S
C2363 C2362 1.387 . S
C2363 C2365 1.387 . S
H2364 C2371 0.950 . S
C2365 C2363 1.387 . S
C2365 C2367 1.390 . S
C2365 H2369 0.950 . S
H2366 C2362 0.950 . S
C2367 C2365 1.390 . S
C2367 C2368 1.387 . S
C2367 H2370 0.950 . S
C2368 C2367 1.387 . S
C2368 C2371 1.387 . S
H2369 C2365 0.950 . S
H2370 C2367 0.950 . S
C2371 C2362 1.390 . S
C2371 H2364 0.950 . S
C2371 C2368 1.387 . S
C2372 C2373 1.387 . S
C2372 H2376 0.950 . S
C2372 C2381 1.390 . S
C2373 C2372 1.387 . S
C2373 C2375 1.387 . S
H2374 C2381 0.950 . S
C2375 C2373 1.387 . S
C2375 C2377 1.390 . S
C2375 H2379 0.950 . S
H2376 C2372 0.950 . S
C2377 C2375 1.390 . S
C2377 C2378 1.387 . S
C2377 H2380 0.950 . S
C2378 C2377 1.387 . S
C2378 C2381 1.387 . S
H2379 C2375 0.950 . S
H2380 C2377 0.950 . S
C2381 C2372 1.390 . S
C2381 H2374 0.950 . S
C2381 C2378 1.387 . S
C2382 C2383 1.387 . S
C2382 H2386 0.950 . S
C2382 C2391 1.390 . S
C2383 C2382 1.387 . S
C2383 C2385 1.387 . S
H2384 C2391 0.950 . S
C2385 C2383 1.387 . S
C2385 C2387 1.390 . S
C2385 H2389 0.950 . S
H2386 C2382 0.950 . S
C2387 C2385 1.390 . S
C2387 C2388 1.387 . S
C2387 H2390 0.950 . S
C2388 C2387 1.387 . S
C2388 C2391 1.387 . S
H2389 C2385 0.950 . S
H2390 C2387 0.950 . S
C2391 C2382 1.390 . S
C2391 H2384 0.950 . S
C2391 C2388 1.387 . S
C2392 C2393 1.387 . S
C2392 H2396 0.950 . S
C2392 C2401 1.390 . S
C2393 C2392 1.387 . S
C2393 C2395 1.387 . S
H2394 C2401 0.950 . S
C2395 C2393 1.387 . S
C2395 C2397 1.390 . S
C2395 H2399 0.950 . S
H2396 C2392 0.950 . S
C2397 C2395 1.390 . S
C2397 C2398 1.387 . S
C2397 H2400 0.950 . S
C2398 C2397 1.387 . S
C2398 C2401 1.387 . S
H2399 C2395 0.950 . S
H2400 C2397 0.950 . S
C2401 C2392 1.390 . S
C2401 H2394 0.950 . S
C2401 C2398 1.387 . S
C2402 C2403 1.387 . S
C2402 H2406 0.950 . S
C2402 C2411 1.390 . S
C2403 C2402 1.387 . S
C2403 C2405 1.387 . S
H2404 C2411 0.950 . S
C2405 C2403 1.387 . S
C2405 C2407 1.390 . S
C2405 H2409 0.950 . S
H2406 C2402 0.950 . S
C2407 C2405 1.390 . S
C2407 C2408 1.387 . S
C2407 H2410 0.950 . S
C2408 C2407 1.387 . S
C2408 C2411 1.387 . S
H2409 C2405 0.950 . S
H2410 C2407 0.950 . S
C2411 C2402 1.390 . S
C2411 H2404 0.950 . S
C2411 C2408 1.387 . S
C2412 C2413 1.387 . S
C2412 H2416 0.950 . S
C2412 C2421 1.390 . S
C2413 C2412 1.387 . S
C2413 C2415 1.387 . S
H2414 C2421 0.950 . S
C2415 C2413 1.387 . S
C2415 C2417 1.390 . S
C2415 H2419 0.950 . S
H2416 C2412 0.950 . S
C2417 C2415 1.390 . S
C2417 C2418 1.387 . S
C2417 H2420 0.950 . S
C2418 C2417 1.387 . S
C2418 C2421 1.387 . S
H2419 C2415 0.950 . S
H2420 C2417 0.950 . S
C2421 C2412 1.390 . S
C2421 H2414 0.950 . S
C2421 C2418 1.387 . S
C2422 C2423 1.387 . S
C2422 H2426 0.950 . S
C2422 C2431 1.390 . S
C2423 C2422 1.387 . S
C2423 C2425 1.387 . S
H2424 C2431 0.950 . S
C2425 C2423 1.387 . S
C2425 C2427 1.390 . S
C2425 H2429 0.950 . S
H2426 C2422 0.950 . S
C2427 C2425 1.390 . S
C2427 C2428 1.387 . S
C2427 H2430 0.950 . S
C2428 C2427 1.387 . S
C2428 C2431 1.387 . S
H2429 C2425 0.950 . S
H2430 C2427 0.950 . S
C2431 C2422 1.390 . S
C2431 H2424 0.950 . S
C2431 C2428 1.387 . S
C2432 C2433 1.387 . S
C2432 H2436 0.950 . S
C2432 C2441 1.390 . S
C2433 C2432 1.387 . S
C2433 C2435 1.387 . S
H2434 C2441 0.950 . S
C2435 C2433 1.387 . S
C2435 C2437 1.390 . S
C2435 H2439 0.950 . S
H2436 C2432 0.950 . S
C2437 C2435 1.390 . S
C2437 C2438 1.387 . S
C2437 H2440 0.950 . S
C2438 C2437 1.387 . S
C2438 C2441 1.387 . S
H2439 C2435 0.950 . S
H2440 C2437 0.950 . S
C2441 C2432 1.390 . S
C2441 H2434 0.950 . S
C2441 C2438 1.387 . S
C2442 C2443 1.387 . S
C2442 H2446 0.950 . S
C2442 C2451 1.390 . S
C2443 C2442 1.387 . S
C2443 C2445 1.387 . S
H2444 C2451 0.950 . S
C2445 C2443 1.387 . S
C2445 C2447 1.390 . S
C2445 H2449 0.950 . S
H2446 C2442 0.950 . S
C2447 C2445 1.390 . S
C2447 C2448 1.387 . S
C2447 H2450 0.950 . S
C2448 C2447 1.387 . S
C2448 C2451 1.387 . S
H2449 C2445 0.950 . S
H2450 C2447 0.950 . S
C2451 C2442 1.390 . S
C2451 H2444 0.950 . S
C2451 C2448 1.387 . S
C2452 C2453 1.387 . S
C2452 H2456 0.950 . S
C2452 C2461 1.390 . S
C2453 C2452 1.387 . S
C2453 C2455 1.387 . S
H2454 C2461 0.950 . S
C2455 C2453 1.387 . S
C2455 C2457 1.390 . S
C2455 H2459 0.950 . S
H2456 C2452 0.950 . S
C2457 C2455 1.390 . S
C2457 C2458 1.387 . S
C2457 H2460 0.950 . S
C2458 C2457 1.387 . S
C2458 C2461 1.387 . S
H2459 C2455 0.950 . S
H2460 C2457 0.950 . S
C2461 C2452 1.390 . S
C2461 H2454 0.950 . S
C2461 C2458 1.387 . S
C2462 C2463 1.387 . S
C2462 H2466 0.950 . S
C2462 C2471 1.390 . S
C2463 C2462 1.387 . S
C2463 C2465 1.387 . S
H2464 C2471 0.950 . S
C2465 C2463 1.387 . S
C2465 C2467 1.390 . S
C2465 H2469 0.950 . S
H2466 C2462 0.950 . S
C2467 C2465 1.390 . S
C2467 C2468 1.387 . S
C2467 H2470 0.950 . S
C2468 C2467 1.387 . S
C2468 C2471 1.387 . S
H2469 C2465 0.950 . S
H2470 C2467 0.950 . S
C2471 C2462 1.390 . S
C2471 H2464 0.950 . S
C2471 C2468 1.387 . S
C2472 C2473 1.387 . S
C2472 H2476 0.950 . S
C2472 C2481 1.390 . S
C2473 C2472 1.387 . S
C2473 C2475 1.387 . S
H2474 C2481 0.950 . S
C2475 C2473 1.387 . S
C2475 C2477 1.390 . S
C2475 H2479 0.950 . S
H2476 C2472 0.950 . S
C2477 C2475 1.390 . S
C2477 C2478 1.387 . S
C2477 H2480 0.950 . S
C2478 C2477 1.387 . S
C2478 C2481 1.387 . S
H2479 C2475 0.950 . S
H2480 C2477 0.950 . S
C2481 C2472 1.390 . S
C2481 H2474 0.950 . S
C2481 C2478 1.387 . S
C2482 C2483 1.387 . S
C2482 H2486 0.950 . S
C2482 C2491 1.390 . S
C2483 C2482 1.387 . S
C2483 C2485 1.387 . S
H2484 C2491 0.950 . S
C2485 C2483 1.387 . S
C2485 C2487 1.390 . S
C2485 H2489 0.950 . S
H2486 C2482 0.950 . S
C2487 C2485 1.390 . S
C2487 C2488 1.387 . S
C2487 H2490 0.950 . S
C2488 C2487 1.387 . S
C2488 C2491 1.387 . S
H2489 C2485 0.950 . S
H2490 C2487 0.950 . S
C2491 C2482 1.390 . S
C2491 H2484 0.950 . S
C2491 C2488 1.387 . S
C2492 C2493 1.387 . S
C2492 H2496 0.950 . S
C2492 C2501 1.390 . S
C2493 C2492 1.387 . S
C2493 C2495 1.387 . S
H2494 C2501 0.950 . S
C2495 C2493 1.387 . S
C2495 C2497 1.390 . S
C2495 H2499 0.950 . S
H2496 C2492 0.950 . S
C2497 C2495 1.390 . S
C2497 C2498 1.387 . S
C2497 H2500 0.950 . S
C2498 C2497 1.387 . S
C2498 C2501 1.387 . S
H2499 C2495 0.950 . S
H2500 C2497 0.950 . S
C2501 C2492 1.390 . S
C2501 H2494 0.950 . S
C2501 C2498 1.387 . S
C2502 C2503 1.387 . S
C2502 H2506 0.950 . S
C2502 C2511 1.390 . S
C2503 C2502 1.387 . S
C2503 C2505 1.387 . S
H2504 C2511 0.950 . S
C2505 C2503 1.387 . S
C2505 C2507 1.390 . S
C2505 H2509 0.950 . S
H2506 C2502 0.950 . S
C2507 C2505 1.390 . S
C2507 C2508 1.387 . S
C2507 H2510 0.950 . S
C2508 C2507 1.387 . S
C2508 C2511 1.387 . S
H2509 C2505 0.950 . S
H2510 C2507 0.950 . S
C2511 C2502 1.390 . S
C2511 H2504 0.950 . S
C2511 C2508 1.387 . S
C2512 C2513 1.387 . S
C2512 H2516 0.950 . S
C2512 C2521 1.390 . S
C2513 C2512 1.387 . S
C2513 C2515 1.387 . S
H2514 C2521 0.950 . S
C2515 C2513 1.387 . S
C2515 C2517 1.390 . S
C2515 H2519 0.950 . S
H2516 C2512 0.950 . S
C2517 C2515 1.390 . S
C2517 C2518 1.387 . S
C2517 H2520 0.950 . S
C2518 C2517 1.387 . S
C2518 C2521 1.387 . S
H2519 C2515 0.950 . S
H2520 C2517 0.950 . S
C2521 C2512 1.390 . S
C2521 H2514 0.950 . S
C2521 C2518 1.387 . S
C2522 C2523 1.387 . S
C2522 H2526 0.950 . S
C2522 C2531 1.390 . S
C2523 C2522 1.387 . S
C2523 C2525 1.387 . S
H2524 C2531 0.950 . S
C2525 C2523 1.387 . S
C2525 C2527 1.390 . S
C2525 H2529 0.950 . S
H2526 C2522 0.950 . S
C2527 C2525 1.390 . S
C2527 C2528 1.387 . S
C2527 H2530 0.950 . S
C2528 C2527 1.387 . S
C2528 C2531 1.387 . S
H2529 C2525 0.950 . S
H2530 C2527 0.950 . S
C2531 C2522 1.390 . S
C2531 H2524 0.950 . S
C2531 C2528 1.387 . S
C2532 C2533 1.387 . S
C2532 H2536 0.950 . S
C2532 C2541 1.390 . S
C2533 C2532 1.387 . S
C2533 C2535 1.387 . S
H2534 C2541 0.950 . S
C2535 C2533 1.387 . S
C2535 C2537 1.390 . S
C2535 H2539 0.950 . S
H2536 C2532 0.950 . S
C2537 C2535 1.390 . S
C2537 C2538 1.387 . S
C2537 H2540 0.950 . S
C2538 C2537 1.387 . S
C2538 C2541 1.387 . S
H2539 C2535 0.950 . S
H2540 C2537 0.950 . S
C2541 C2532 1.390 . S
C2541 H2534 0.950 . S
C2541 C2538 1.387 . S
C2542 C2543 1.387 . S
C2542 H2546 0.950 . S
C2542 C2551 1.390 . S
C2543 C2542 1.387 . S
C2543 C2545 1.387 . S
H2544 C2551 0.950 . S
C2545 C2543 1.387 . S
C2545 C2547 1.390 . S
C2545 H2549 0.950 . S
H2546 C2542 0.950 . S
C2547 C2545 1.390 . S
C2547 C2548 1.387 . S
C2547 H2550 0.950 . S
C2548 C2547 1.387 . S
C2548 C2551 1.387 . S
H2549 C2545 0.950 . S
H2550 C2547 0.950 . S
C2551 C2542 1.390 . S
C2551 H2544 0.950 . S
C2551 C2548 1.387 . S
C2552 C2553 1.387 . S
C2552 H2556 0.950 . S
C2552 C2561 1.390 . S
C2553 C2552 1.387 . S
C2553 C2555 1.387 . S
H2554 C2561 0.950 . S
C2555 C2553 1.387 . S
C2555 C2557 1.390 . S
C2555 H2559 0.950 . S
H2556 C2552 0.950 . S
C2557 C2555 1.390 . S
C2557 C2558 1.387 . S
C2557 H2560 0.950 . S
C2558 C2557 1.387 . S
C2558 C2561 1.387 . S
H2559 C2555 0.950 . S
H2560 C2557 0.950 . S
C2561 C2552 1.390 . S
C2561 H2554 0.950 . S
C2561 C2558 1.387 . S
C2562 C2563 1.387 . S
C2562 H2566 0.950 . S
C2562 C2571 1.390 . S
C2563 C2562 1.387 . S
C2563 C2565 1.387 . S
H2564 C2571 0.950 . S
C2565 C2563 1.387 . S
C2565 C2567 1.390 . S
C2565 H2569 0.950 . S
H2566 C2562 0.950 . S
C2567 C2565 1.390 . S
C2567 C2568 1.387 . S
C2567 H2570 0.950 . S
C2568 C2567 1.387 . S
C2568 C2571 1.387 . S
H2569 C2565 0.950 . S
H2570 C2567 0.950 . S
C2571 C2562 1.390 . S
C2571 H2564 0.950 . S
C2571 C2568 1.387 . S
C2572 C2573 1.387 . S
C2572 H2576 0.950 . S
C2572 C2581 1.390 . S
C2573 C2572 1.387 . S
C2573 C2575 1.387 . S
H2574 C2581 0.950 . S
C2575 C2573 1.387 . S
C2575 C2577 1.390 . S
C2575 H2579 0.950 . S
H2576 C2572 0.950 . S
C2577 C2575 1.390 . S
C2577 C2578 1.387 . S
C2577 H2580 0.950 . S
C2578 C2577 1.387 . S
C2578 C2581 1.387 . S
H2579 C2575 0.950 . S
H2580 C2577 0.950 . S
C2581 C2572 1.390 . S
C2581 H2574 0.950 . S
C2581 C2578 1.387 . S
C2582 C2583 1.387 . S
C2582 H2586 0.950 . S
C2582 C2591 1.390 . S
C2583 C2582 1.387 . S
C2583 C2585 1.387 . S
H2584 C2591 0.950 . S
C2585 C2583 1.387 . S
C2585 C2587 1.390 . S
C2585 H2589 0.950 . S
H2586 C2582 0.950 . S
C2587 C2585 1.390 . S
C2587 C2588 1.387 . S
C2587 H2590 0.950 . S
C2588 C2587 1.387 . S
C2588 C2591 1.387 . S
H2589 C2585 0.950 . S
H2590 C2587 0.950 . S
C2591 C2582 1.390 . S
C2591 H2584 0.950 . S
C2591 C2588 1.387 . S
C2592 C2593 1.387 . S
C2592 H2596 0.950 . S
C2592 C2601 1.390 1_655 S
C2593 C2592 1.387 . S
C2593 C2595 1.387 . S
H2594 C2601 0.950 . S
C2595 C2593 1.387 . S
C2595 C2597 1.390 1_655 S
C2595 H2599 0.950 . S
H2596 C2592 0.950 . S
C2597 C2595 1.390 1_455 S
C2597 C2598 1.387 . S
C2597 H2600 0.950 . S
C2598 C2597 1.387 . S
C2598 C2601 1.387 . S
H2599 C2595 0.950 . S
H2600 C2597 0.950 . S
C2601 C2592 1.390 1_455 S
C2601 H2594 0.950 . S
C2601 C2598 1.387 . S
C2602 C2603 1.387 . S
C2602 H2606 0.950 . S
C2602 C2611 1.390 1_455 S
C2603 C2602 1.387 . S
C2603 C2605 1.387 . S
H2604 C2611 0.950 . S
C2605 C2603 1.387 . S
C2605 C2607 1.390 1_455 S
C2605 H2609 0.950 . S
H2606 C2602 0.950 . S
C2607 C2605 1.390 1_655 S
C2607 C2608 1.387 . S
C2607 H2610 0.950 . S
C2608 C2607 1.387 . S
C2608 C2611 1.387 . S
H2609 C2605 0.950 . S
H2610 C2607 0.950 . S
C2611 C2602 1.390 1_655 S
C2611 H2604 0.950 . S
C2611 C2608 1.387 . S
C2612 C2613 1.387 . S
C2612 H2616 0.950 . S
C2612 C2621 1.390 . S
C2613 C2612 1.387 . S
C2613 C2615 1.387 . S
H2614 C2621 0.950 . S
C2615 C2613 1.387 . S
C2615 C2617 1.390 . S
C2615 H2619 0.950 . S
H2616 C2612 0.950 . S
C2617 C2615 1.390 . S
C2617 C2618 1.387 . S
C2617 H2620 0.950 . S
C2618 C2617 1.387 . S
C2618 C2621 1.387 . S
H2619 C2615 0.950 . S
H2620 C2617 0.950 . S
C2621 C2612 1.390 . S
C2621 H2614 0.950 . S
C2621 C2618 1.387 . S
C2622 C2623 1.387 . S
C2622 H2626 0.950 . S
C2622 C2631 1.390 . S
C2623 C2622 1.387 . S
C2623 C2625 1.387 . S
H2624 C2631 0.950 . S
C2625 C2623 1.387 . S
C2625 C2627 1.390 . S
C2625 H2629 0.950 . S
H2626 C2622 0.950 . S
C2627 C2625 1.390 . S
C2627 C2628 1.387 . S
C2627 H2630 0.950 . S
C2628 C2627 1.387 . S
C2628 C2631 1.387 . S
H2629 C2625 0.950 . S
H2630 C2627 0.950 . S
C2631 C2622 1.390 . S
C2631 H2624 0.950 . S
C2631 C2628 1.387 . S
C2632 C2633 1.387 . S
C2632 H2636 0.950 . S
C2632 C2641 1.390 1_655 S
C2633 C2632 1.387 . S
C2633 C2635 1.387 . S
H2634 C2641 0.950 . S
C2635 C2633 1.387 . S
C2635 C2637 1.390 1_655 S
C2635 H2639 0.950 . S
H2636 C2632 0.950 . S
C2637 C2635 1.390 1_455 S
C2637 C2638 1.387 . S
C2637 H2640 0.950 . S
C2638 C2637 1.387 . S
C2638 C2641 1.387 . S
H2639 C2635 0.950 . S
H2640 C2637 0.950 . S
C2641 C2632 1.390 1_455 S
C2641 H2634 0.950 . S
C2641 C2638 1.387 . S
C2642 C2643 1.387 . S
C2642 H2646 0.950 . S
C2642 C2651 1.390 . S
C2643 C2642 1.387 . S
C2643 C2645 1.387 . S
H2644 C2651 0.950 . S
C2645 C2643 1.387 . S
C2645 C2647 1.390 . S
C2645 H2649 0.950 . S
H2646 C2642 0.950 . S
C2647 C2645 1.390 . S
C2647 C2648 1.387 . S
C2647 H2650 0.950 . S
C2648 C2647 1.387 . S
C2648 C2651 1.387 . S
H2649 C2645 0.950 . S
H2650 C2647 0.950 . S
C2651 C2642 1.390 . S
C2651 H2644 0.950 . S
C2651 C2648 1.387 . S
C2652 C2653 1.387 . S
C2652 H2656 0.950 . S
C2652 C2661 1.390 . S
C2653 C2652 1.387 . S
C2653 C2655 1.387 . S
H2654 C2661 0.950 . S
C2655 C2653 1.387 . S
C2655 C2657 1.390 . S
C2655 H2659 0.950 . S
H2656 C2652 0.950 . S
C2657 C2655 1.390 . S
C2657 C2658 1.387 . S
C2657 H2660 0.950 . S
C2658 C2657 1.387 . S
C2658 C2661 1.387 . S
H2659 C2655 0.950 . S
H2660 C2657 0.950 . S
C2661 C2652 1.390 . S
C2661 H2654 0.950 . S
C2661 C2658 1.387 . S
C2662 C2663 1.387 . S
C2662 H2666 0.950 . S
C2662 C2671 1.390 1_455 S
C2663 C2662 1.387 . S
C2663 C2665 1.387 . S
H2664 C2671 0.950 . S
C2665 C2663 1.387 . S
C2665 C2667 1.390 1_455 S
C2665 H2669 0.950 . S
H2666 C2662 0.950 . S
C2667 C2665 1.390 1_655 S
C2667 C2668 1.387 . S
C2667 H2670 0.950 . S
C2668 C2667 1.387 . S
C2668 C2671 1.387 . S
H2669 C2665 0.950 . S
H2670 C2667 0.950 . S
C2671 C2662 1.390 1_655 S
C2671 H2664 0.950 . S
C2671 C2668 1.387 . S
C2672 C2673 1.387 . S
C2672 H2676 0.950 . S
C2672 C2681 1.390 1_545 S
C2673 C2672 1.387 . S
C2673 C2675 1.387 . S
H2674 C2681 0.950 . S
C2675 C2673 1.387 . S
C2675 C2677 1.390 1_545 S
C2675 H2679 0.950 . S
H2676 C2672 0.950 . S
C2677 C2675 1.390 1_565 S
C2677 C2678 1.387 . S
C2677 H2680 0.950 . S
C2678 C2677 1.387 . S
C2678 C2681 1.387 . S
H2679 C2675 0.950 . S
H2680 C2677 0.950 . S
C2681 C2672 1.390 1_565 S
C2681 H2674 0.950 . S
C2681 C2678 1.387 . S
C2682 C2683 1.387 . S
C2682 H2686 0.950 . S
C2682 C2691 1.390 . S
C2683 C2682 1.387 . S
C2683 C2685 1.387 . S
H2684 C2691 0.950 . S
C2685 C2683 1.387 . S
C2685 C2687 1.390 . S
C2685 H2689 0.950 . S
H2686 C2682 0.950 . S
C2687 C2685 1.390 . S
C2687 C2688 1.387 . S
C2687 H2690 0.950 . S
C2688 C2687 1.387 . S
C2688 C2691 1.387 . S
H2689 C2685 0.950 . S
H2690 C2687 0.950 . S
C2691 C2682 1.390 . S
C2691 H2684 0.950 . S
C2691 C2688 1.387 . S
C2692 C2693 1.387 . S
C2692 H2696 0.950 . S
C2692 C2701 1.390 1_565 S
C2693 C2692 1.387 . S
C2693 C2695 1.387 . S
H2694 C2701 0.950 . S
C2695 C2693 1.387 . S
C2695 C2697 1.390 1_565 S
C2695 H2699 0.950 . S
H2696 C2692 0.950 . S
C2697 C2695 1.390 1_545 S
C2697 C2698 1.387 . S
C2697 H2700 0.950 . S
C2698 C2697 1.387 . S
C2698 C2701 1.387 . S
H2699 C2695 0.950 . S
H2700 C2697 0.950 . S
C2701 C2692 1.390 1_545 S
C2701 H2694 0.950 . S
C2701 C2698 1.387 . S
C2702 C2703 1.387 . S
C2702 H2706 0.950 . S
C2702 C2711 1.390 1_556 S
C2703 C2702 1.387 . S
C2703 C2705 1.387 . S
H2704 C2711 0.950 . S
C2705 C2703 1.387 . S
C2705 C2707 1.390 1_556 S
C2705 H2709 0.950 . S
H2706 C2702 0.950 . S
C2707 C2705 1.390 1_554 S
C2707 C2708 1.387 . S
C2707 H2710 0.950 . S
C2708 C2707 1.387 . S
C2708 C2711 1.387 . S
H2709 C2705 0.950 . S
H2710 C2707 0.950 . S
C2711 C2702 1.390 1_554 S
C2711 H2704 0.950 . S
C2711 C2708 1.387 . S
C2712 C2713 1.387 . S
C2712 H2716 0.950 . S
C2712 C2721 1.390 1_556 S
C2713 C2712 1.387 . S
C2713 C2715 1.387 . S
H2714 C2721 0.950 . S
C2715 C2713 1.387 . S
C2715 C2717 1.390 1_556 S
C2715 H2719 0.950 . S
H2716 C2712 0.950 . S
C2717 C2715 1.390 1_554 S
C2717 C2718 1.387 . S
C2717 H2720 0.950 . S
C2718 C2717 1.387 . S
C2718 C2721 1.387 . S
H2719 C2715 0.950 . S
H2720 C2717 0.950 . S
C2721 C2712 1.390 1_554 S
C2721 H2714 0.950 . S
C2721 C2718 1.387 . S
C2722 C2723 1.387 . S
C2722 H2726 0.950 . S
C2722 C2731 1.390 1_554 S
C2723 C2722 1.387 . S
C2723 C2725 1.387 . S
H2724 C2731 0.950 . S
C2725 C2723 1.387 . S
C2725 C2727 1.390 1_554 S
C2725 H2729 0.950 . S
H2726 C2722 0.950 . S
C2727 C2725 1.390 1_556 S
C2727 C2728 1.387 . S
C2727 H2730 0.950 . S
C2728 C2727 1.387 . S
C2728 C2731 1.387 . S
H2729 C2725 0.950 . S
H2730 C2727 0.950 . S
C2731 C2722 1.390 1_556 S
C2731 H2724 0.950 . S
C2731 C2728 1.387 . S
C2732 C2733 1.387 . S
C2732 H2736 0.950 . S
C2732 C2741 1.390 . S
C2733 C2732 1.387 . S
C2733 C2735 1.387 . S
H2734 C2741 0.950 . S
C2735 C2733 1.387 . S
C2735 C2737 1.390 . S
C2735 H2739 0.950 . S
H2736 C2732 0.950 . S
C2737 C2735 1.390 . S
C2737 C2738 1.387 . S
C2737 H2740 0.950 . S
C2738 C2737 1.387 . S
C2738 C2741 1.387 . S
H2739 C2735 0.950 . S
H2740 C2737 0.950 . S
C2741 C2732 1.390 . S
C2741 H2734 0.950 . S
C2741 C2738 1.387 . S
C2742 C2743 1.387 . S
C2742 H2746 0.950 . S
C2742 C2751 1.390 . S
C2743 C2742 1.387 . S
C2743 C2745 1.387 . S
H2744 C2751 0.950 . S
C2745 C2743 1.387 . S
C2745 C2747 1.390 . S
C2745 H2749 0.950 . S
H2746 C2742 0.950 . S
C2747 C2745 1.390 . S
C2747 C2748 1.387 . S
C2747 H2750 0.950 . S
C2748 C2747 1.387 . S
C2748 C2751 1.387 . S
H2749 C2745 0.950 . S
H2750 C2747 0.950 . S
C2751 C2742 1.390 . S
C2751 H2744 0.950 . S
C2751 C2748 1.387 . S
C2752 C2753 1.387 . S
C2752 H2756 0.950 . S
C2752 C2761 1.390 1_545 S
C2753 C2752 1.387 . S
C2753 C2755 1.387 . S
H2754 C2761 0.950 . S
C2755 C2753 1.387 . S
C2755 C2757 1.390 1_545 S
C2755 H2759 0.950 . S
H2756 C2752 0.950 . S
C2757 C2755 1.390 1_565 S
C2757 C2758 1.387 . S
C2757 H2760 0.950 . S
C2758 C2757 1.387 . S
C2758 C2761 1.387 . S
H2759 C2755 0.950 . S
H2760 C2757 0.950 . S
C2761 C2752 1.390 1_565 S
C2761 H2754 0.950 . S
C2761 C2758 1.387 . S
C2762 C2763 1.387 . S
C2762 H2766 0.950 . S
C2762 C2771 1.390 . S
C2763 C2762 1.387 . S
C2763 C2765 1.387 . S
H2764 C2771 0.950 . S
C2765 C2763 1.387 . S
C2765 C2767 1.390 . S
C2765 H2769 0.950 . S
H2766 C2762 0.950 . S
C2767 C2765 1.390 . S
C2767 C2768 1.387 . S
C2767 H2770 0.950 . S
C2768 C2767 1.387 . S
C2768 C2771 1.387 . S
H2769 C2765 0.950 . S
H2770 C2767 0.950 . S
C2771 C2762 1.390 . S
C2771 H2764 0.950 . S
C2771 C2768 1.387 . S
C2772 C2773 1.387 . S
C2772 H2776 0.950 . S
C2772 C2781 1.390 . S
C2773 C2772 1.387 . S
C2773 C2775 1.387 . S
H2774 C2781 0.950 . S
C2775 C2773 1.387 . S
C2775 C2777 1.390 . S
C2775 H2779 0.950 . S
H2776 C2772 0.950 . S
C2777 C2775 1.390 . S
C2777 C2778 1.387 . S
C2777 H2780 0.950 . S
C2778 C2777 1.387 . S
C2778 C2781 1.387 . S
H2779 C2775 0.950 . S
H2780 C2777 0.950 . S
C2781 C2772 1.390 . S
C2781 H2774 0.950 . S
C2781 C2778 1.387 . S
C2782 C2783 1.387 . S
C2782 H2786 0.950 . S
C2782 C2791 1.390 . S
C2783 C2782 1.387 . S
C2783 C2785 1.387 . S
H2784 C2791 0.950 . S
C2785 C2783 1.387 . S
C2785 C2787 1.390 . S
C2785 H2789 0.950 . S
H2786 C2782 0.950 . S
C2787 C2785 1.390 . S
C2787 C2788 1.387 . S
C2787 H2790 0.950 . S
C2788 C2787 1.387 . S
C2788 C2791 1.387 . S
H2789 C2785 0.950 . S
H2790 C2787 0.950 . S
C2791 C2782 1.390 . S
C2791 H2784 0.950 . S
C2791 C2788 1.387 . S
C2792 C2793 1.387 . S
C2792 H2796 0.950 . S
C2792 C2801 1.390 1_554 S
C2793 C2792 1.387 . S
C2793 C2795 1.387 . S
H2794 C2801 0.950 . S
C2795 C2793 1.387 . S
C2795 C2797 1.390 1_554 S
C2795 H2799 0.950 . S
H2796 C2792 0.950 . S
C2797 C2795 1.390 1_556 S
C2797 C2798 1.387 . S
C2797 H2800 0.950 . S
C2798 C2797 1.387 . S
C2798 C2801 1.387 . S
H2799 C2795 0.950 . S
H2800 C2797 0.950 . S
C2801 C2792 1.390 1_556 S
C2801 H2794 0.950 . S
C2801 C2798 1.387 . S
C2802 C2803 1.387 . S
C2802 H2806 0.950 . S
C2802 C2811 1.390 . S
C2803 C2802 1.387 . S
C2803 C2805 1.387 . S
H2804 C2811 0.950 . S
C2805 C2803 1.387 . S
C2805 C2807 1.390 . S
C2805 H2809 0.950 . S
H2806 C2802 0.950 . S
C2807 C2805 1.390 . S
C2807 C2808 1.387 . S
C2807 H2810 0.950 . S
C2808 C2807 1.387 . S
C2808 C2811 1.387 . S
H2809 C2805 0.950 . S
H2810 C2807 0.950 . S
C2811 C2802 1.390 . S
C2811 H2804 0.950 . S
C2811 C2808 1.387 . S
C2812 C2813 1.387 . S
C2812 H2816 0.950 . S
C2812 C2821 1.390 . S
C2813 C2812 1.387 . S
C2813 C2815 1.387 . S
H2814 C2821 0.950 . S
C2815 C2813 1.387 . S
C2815 C2817 1.390 . S
C2815 H2819 0.950 . S
H2816 C2812 0.950 . S
C2817 C2815 1.390 . S
C2817 C2818 1.387 . S
C2817 H2820 0.950 . S
C2818 C2817 1.387 . S
C2818 C2821 1.387 . S
H2819 C2815 0.950 . S
H2820 C2817 0.950 . S
C2821 C2812 1.390 . S
C2821 H2814 0.950 . S
C2821 C2818 1.387 . S
C2822 C2823 1.387 . S
C2822 H2826 0.950 . S
C2822 C2831 1.390 1_565 S
C2823 C2822 1.387 . S
C2823 C2825 1.387 . S
H2824 C2831 0.950 . S
C2825 C2823 1.387 . S
C2825 C2827 1.390 1_565 S
C2825 H2829 0.950 . S
H2826 C2822 0.950 . S
C2827 C2825 1.390 1_545 S
C2827 C2828 1.387 . S
C2827 H2830 0.950 . S
C2828 C2827 1.387 . S
C2828 C2831 1.387 . S
H2829 C2825 0.950 . S
H2830 C2827 0.950 . S
C2831 C2822 1.390 1_545 S
C2831 H2824 0.950 . S
C2831 C2828 1.387 . S
C1633 C33 2.500 . S
C1638 C713 2.478 1_455 S
C1643 C1427 2.501 . S
C1648 C67 2.500 . S
C1653 C1461 2.500 . S
C1658 C101 2.501 . S
C1663 C135 2.472 1_556 S
C1668 C1495 2.500 . S
C1673 C169 2.500 . S
C1678 C1631 2.478 1_455 S
C1683 C747 2.500 . S
C1688 C203 2.501 . S
C1693 C237 2.500 . S
C1698 C1597 2.501 . S
C1703 C271 2.478 1_554 S
C1708 C577 2.500 . S
C1713 C305 2.500 . S
C1718 C543 2.476 1_545 S
C1723 C339 2.477 1_565 S
C1728 C441 2.500 . S
C1733 C475 2.472 1_565 S
C1738 C373 2.501 . S
C1743 C509 2.501 . S
C1748 C407 2.472 1_545 S
C1753 C883 2.478 1_556 S
C1758 C611 2.500 . S
C1763 C645 2.472 1_655 S
C1768 C917 2.501 . S
C1773 C951 2.501 . S
C1778 C679 2.501 . S
C1783 C781 2.478 1_655 S
C1788 C1053 2.500 . S
C1793 C815 2.501 . S
C1798 C985 2.500 . S
C1803 C1529 2.501 . S
C1808 C849 2.501 . S
C1813 C1563 2.501 . S
C1818 C1019 2.474 1_554 S
C1823 C1087 2.501 . S
C1828 C1393 2.500 . S
C1833 C1359 2.500 . S
C1838 C1121 2.500 . S
C1843 C1257 2.501 . S
C1848 C1155 2.500 . S
C1853 C1189 2.500 . S
C1858 C1291 2.500 . S
C1863 C1223 2.500 . S
C1868 C1325 2.501 . S
C1873 C553 1.097 . S
C1878 C20 1.148 . S
C1883 C1607 1.098 . S
C1888 C54 1.148 . S
C1893 C723 1.098 . S
C1898 C88 1.148 . S
C1903 C122 1.150 1_556 S
C1908 C1573 1.093 . S
C1913 C1403 1.094 . S
C1918 C156 1.149 . S
C1923 C190 1.148 . S
C1928 C1437 1.098 . S
C1933 C1471 1.097 . S
C1938 C224 1.148 . S
C1943 C258 1.148 1_554 S
C1948 C689 1.098 . S
C1953 C292 1.150 . S
C1958 C9 1.095 . S
C1963 C43 1.096 . S
C1968 C326 1.149 1_565 S
C1973 C77 1.098 . S
C1978 C360 1.148 . S
C1983 C111 1.098 . S
C1988 C394 1.148 1_545 S
C1993 C428 1.148 . S
C1998 C145 1.098 . S
C2003 C462 1.149 1_565 S
C2008 C179 1.095 . S
C2013 C496 1.148 . S
C2018 C213 1.097 . S
C2023 C530 1.148 1_545 S
C2028 C247 1.098 . S
C2033 C281 1.093 . S
C2038 C564 1.150 . S
C2043 C598 1.150 . S
C2048 C1233 1.093 . S
C2053 C632 1.151 1_655 S
C2058 C1267 1.093 . S
C2063 C1301 1.098 . S
C2068 C666 1.148 . S
C2073 C700 1.149 1_455 S
C2078 C519 1.096 . S
C2083 C734 1.151 . S
C2088 C349 1.093 . S
C2093 C1199 1.093 . S
C2098 C768 1.150 1_655 S
C2103 C802 1.150 . S
C2108 C1131 1.094 . S
C2113 C836 1.149 . S
C2118 C1369 1.094 . S
C2123 C870 1.148 1_556 S
C2128 C791 1.098 . S
C2133 C904 1.150 . S
C2138 C1539 1.094 . S
C2143 C938 1.148 . S
C2148 C757 1.098 . S
C2153 C587 1.098 . S
C2158 C972 1.148 . S
C2163 C1006 1.148 1_554 S
C2168 C621 1.098 . S
C2173 C1040 1.150 . S
C2178 C655 1.093 . S
C2183 C1074 1.148 . S
C2188 C1505 1.098 . S
C2193 C825 1.093 . S
C2198 C1108 1.150 . S
C2203 C1142 1.149 . S
C2208 C859 1.097 . S
C2213 C893 1.097 . S
C2218 C1176 1.148 . S
C2223 C927 1.093 . S
C2228 C1210 1.150 . S
C2233 C961 1.098 . S
C2238 C1244 1.148 . S
C2243 C995 1.096 . S
C2248 C1278 1.150 . S
C2253 C1312 1.148 . S
C2258 C1029 1.097 . S
C2263 C1346 1.148 . S
C2268 C1063 1.095 . S
C2273 C1097 1.093 . S
C2278 C1380 1.150 . S
C2283 C1414 1.148 . S
C2288 C417 1.098 . S
C2293 C1448 1.148 . S
C2298 C451 1.098 . S
C2303 C1482 1.150 . S
C2308 C485 1.093 . S
C2313 C1335 1.093 . S
C2318 C1516 1.151 . S
C2323 C1165 1.098 . S
C2328 C1550 1.148 . S
C2333 C383 1.093 . S
C2338 C1584 1.150 . S
C2343 C1618 1.151 1_455 S
C2348 C315 1.093 . S
C2353 C308 1.897 . S
C2358 C2 1.897 . S
C2363 C342 1.899 . S
C2368 C36 1.898 . S
C2373 C70 1.899 . S
C2378 C376 1.898 . S
C2383 C104 1.897 . S
C2388 C274 1.899 . S
C2393 C138 1.898 . S
C2398 C512 1.899 . S
C2403 C410 1.897 . S
C2408 C172 1.898 . S
C2413 C444 1.898 . S
C2418 C206 1.897 . S
C2423 C240 1.897 . S
C2428 C478 1.897 . S
C2433 C546 1.898 . S
C2438 C614 1.897 . S
C2443 C1566 1.897 . S
C2448 C580 1.899 . S
C2453 C1600 1.898 . S
C2458 C648 1.897 . S
C2463 C1532 1.898 . S
C2468 C682 1.897 . S
C2473 C716 1.897 . S
C2478 C1498 1.898 . S
C2483 C1396 1.897 . S
C2488 C750 1.898 . S
C2493 C1464 1.898 . S
C2498 C784 1.897 . S
C2503 C1124 1.898 . S
C2508 C818 1.899 . S
C2513 C1158 1.897 . S
C2518 C852 1.898 . S
C2523 C886 1.897 . S
C2528 C1192 1.898 . S
C2533 C1090 1.899 . S
C2538 C920 1.897 . S
C2543 C1328 1.897 . S
C2548 C954 1.897 . S
C2553 C988 1.898 . S
C2558 C1226 1.899 . S
C2563 C1260 1.898 . S
C2568 C1022 1.899 . S
C2573 C1056 1.899 . S
C2578 C1294 1.897 . S
C2583 C1362 1.899 . S
C2588 C1430 1.897 . S
C2593 C889 1.458 . S
C2598 C5 1.458 . S
C2603 C39 1.458 . S
C2608 C923 1.458 . S
C2613 C821 1.458 . S
C2618 C73 1.458 . S
C2623 C855 1.458 . S
C2628 C107 1.458 . S
C2633 C1025 1.458 . S
C2638 C141 1.458 . S
C2643 C1059 1.458 . S
C2648 C175 1.458 . S
C2653 C957 1.458 . S
C2658 C209 1.458 . S
C2663 C243 1.458 . S
C2668 C991 1.458 . S
C2673 C277 1.458 . S
C2678 C413 1.458 . S
C2683 C311 1.458 . S
C2688 C447 1.458 . S
C2693 C345 1.458 . S
C2698 C481 1.458 . S
C2703 C379 1.458 . S
C2708 C515 1.458 . S
C2713 C1467 1.458 . S
C2718 C549 1.458 . S
C2723 C1535 1.458 . S
C2728 C583 1.458 . S
C2733 C617 1.458 . S
C2738 C753 1.458 . S
C2743 C1365 1.458 . S
C2748 C651 1.458 . S
C2753 C685 1.458 . S
C2758 C1603 1.458 . S
C2763 C719 1.458 . S
C2768 C1399 1.458 . S
C2773 C787 1.458 . S
C2778 C1501 1.458 . S
C2783 C1093 1.458 . S
C2788 C1229 1.458 . S
C2793 C1263 1.458 . S
C2798 C1127 1.458 . S
C2803 C1297 1.458 . S
C2808 C1161 1.458 . S
C2813 C1195 1.458 . S
C2818 C1331 1.458 . S
C2823 C1433 1.458 . S
C2828 C1569 1.458 . S
