# Generated by pormake.
# Topology kag, (6)-cn, num edge types: 1
# Building blocks:
#     Node 0, Type 0, BuildingBlock: CUWYAW_clean_sbu_0, # of connection points: 6
#     Node 1, Type 0, BuildingBlock: CUWYAW_clean_sbu_0, # of connection points: 6
#     Node 2, Type 0, BuildingBlock: CUWYAW_clean_sbu_0, # of connection points: 6
#     Edge 3, Type (0, 0), BuildingBlock: ZUJKAS_clean_linker_0, # of connection points: 2
#     Edge 4, Type (0, 0), BuildingBlock: ZUJKAS_clean_linker_0, # of connection points: 2
#     Edge 5, Type (0, 0), BuildingBlock: ZUJKAS_clean_linker_0, # of connection points: 2
#     Edge 6, Type (0, 0), BuildingBlock: ZUJKAS_clean_linker_0, # of connection points: 2
#     Edge 7, Type (0, 0), BuildingBlock: ZUJKAS_clean_linker_0, # of connection points: 2
#     Edge 8, Type (0, 0), BuildingBlock: ZUJKAS_clean_linker_0, # of connection points: 2
#     Edge 9, Type (0, 0), BuildingBlock: ZUJKAS_clean_linker_0, # of connection points: 2
#     Edge 10, Type (0, 0), BuildingBlock: ZUJKAS_clean_linker_0, # of connection points: 2
#     Edge 11, Type (0, 0), BuildingBlock: ZUJKAS_clean_linker_0, # of connection points: 2
# Relax obj value: 0.011
# Max RMSD: 0.070
# Mean RMSD: 0.056
data_MOF--net-kag--node1-CUWYAW_clean_sbu_0--edge1-ZUJKAS_clean_linker_0
_symmetry_space_group_name_H-M    P1
_symmetry_Int_Tables_number       1
_symmetry_cell_setting            triclinic
loop_
_symmetry_equiv_pos_as_xyz
'x, y, z'
_cell_length_a     50.103846
_cell_length_b     50.123597
_cell_length_c     18.939836
_cell_angle_alpha  93.271341
_cell_angle_beta   91.651366
_cell_angle_gamma 119.92322
loop_
_atom_site_label
_atom_site_type_symbol
_atom_site_fract_x
_atom_site_fract_y
_atom_site_fract_z
_atom_type_partial_charge
C0 C 0.07812 0.60454 0.94871 0.0
Eu1 Eu 0.04336 0.55057 0.99593 0.0
C2 C 0.11039 0.63004 0.95245 0.0
C3 C 0.12985 0.63836 0.01437 0.0
C4 C 0.15969 0.66409 0.01778 0.0
C5 C 0.17062 0.68192 0.95929 0.0
C6 C 0.15125 0.67284 0.89681 0.0
C7 C 0.12146 0.64722 0.89355 0.0
C8 C 0.0343 0.53888 0.13434 0.0
C9 C 0.08176 0.51438 0.01879 0.0
C10 C 0.97342 0.42872 0.0659 0.0
Eu11 Eu 1.00885 0.48293 0.02047 0.0
C12 C 0.94095 0.40322 0.05925 0.0
C13 C 0.92597 0.38817 0.99304 0.0
C14 C 0.89601 0.36268 0.98879 0.0
C15 C 0.88032 0.3518 0.05053 0.0
C16 C 0.89514 0.36735 0.11652 0.0
C17 C 0.92515 0.3927 0.12078 0.0
C18 C 1.01789 0.49483 0.88202 0.0
C19 C 0.9705 0.51925 0.99854 0.0
O20 O 0.07198 0.57853 0.91427 0.0
O21 O 0.06322 0.60046 1.00634 0.0
O22 O 0.03397 0.56183 0.10691 0.0
O23 O 0.04144 0.52447 0.08915 0.0
O24 O 0.08096 0.53762 0.99094 0.0
O25 O 0.05709 0.49213 0.04516 0.0
O26 O 0.97917 0.45462 0.10034 0.0
O27 O 0.98965 0.43311 0.01041 0.0
O28 O 1.01832 0.4719 0.90922 0.0
O29 O 1.01062 0.509 0.9275 0.0
O30 O 0.97131 0.49596 0.02606 0.0
O31 O 0.99513 0.5415 0.97213 0.0
H32 H 0.12179 0.62534 0.06047 0.0
H33 H 0.17386 0.6705 0.06688 0.0
H34 H 0.15906 0.68561 0.8503 0.0
H35 H 0.10686 0.64107 0.84516 0.0
H36 H 0.9375 0.3958 0.94457 0.0
H37 H 0.8851 0.35146 0.9371 0.0
H38 H 0.88387 0.35939 0.16513 0.0
H39 H 0.93627 0.40379 0.17244 0.0
C40 C 0.48972 0.06818 0.94002 0.0
Eu41 Eu 0.50922 0.03329 0.99188 0.0
C42 C 0.49614 0.10031 0.94756 0.0
C43 C 0.50898 0.11893 0.01135 0.0
C44 C 0.51295 0.14871 0.01847 0.0
C45 C 0.5042 0.16041 0.96187 0.0
C46 C 0.49214 0.14185 0.89754 0.0
C47 C 0.48812 0.11212 0.89059 0.0
C48 C 0.5126 0.02459 0.13147 0.0
C49 C 0.58406 0.07219 0.02641 0.0
C50 C 0.56175 0.96369 0.07531 0.0
Eu51 Eu 0.54286 0.99937 0.02538 0.0
C52 C 0.55498 0.93138 0.06498 0.0
C53 C 0.55377 0.91753 0.99737 0.0
C54 C 0.54933 0.88761 0.98956 0.0
C55 C 0.5458 0.87083 0.04907 0.0
C56 C 0.54628 0.88449 0.11642 0.0
C57 C 0.55092 0.91448 0.12425 0.0
C58 C 0.53925 1.00803 0.8857 0.0
C59 C 0.46799 0.96056 0.99187 0.0
O60 O 0.51053 0.06338 0.91117 0.0
O61 O 0.47804 0.05169 0.99377 0.0
O62 O 0.48915 0.02406 0.09934 0.0
O63 O 0.53403 0.03183 0.09023 0.0
O64 O 0.55973 0.07103 0.99392 0.0
O65 O 0.58197 0.04776 0.05457 0.0
O66 O 0.54087 0.96832 0.10438 0.0
O67 O 0.57441 0.9814 0.02389 0.0
O68 O 0.56276 1.00861 0.91758 0.0
O69 O 0.51794 1.00069 0.92724 0.0
O70 O 0.49231 0.96183 0.02468 0.0
O71 O 0.47015 0.98486 0.96297 0.0
H72 H 0.51541 0.11025 0.05599 0.0
H73 H 0.5221 0.16223 0.0689 0.0
H74 H 0.48573 0.15027 0.8524 0.0
H75 H 0.47834 0.09816 0.84082 0.0
H76 H 0.55661 0.92991 0.95056 0.0
H77 H 0.54868 0.8776 0.93687 0.0
H78 H 0.54394 0.87234 0.1634 0.0
H79 H 0.55187 0.9247 0.17691 0.0
C80 C 0.61403 0.55118 0.95014 0.0
Eu81 Eu 0.55967 0.53251 0.99814 0.0
C82 C 0.63963 0.54469 0.95461 0.0
C83 C 0.64603 0.53346 0.01527 0.0
C84 C 0.6717 0.52934 0.01974 0.0
C85 C 0.69139 0.53632 0.96357 0.0
C86 C 0.68428 0.54678 0.90226 0.0
C87 C 0.65871 0.55095 0.89796 0.0
C88 C 0.54725 0.5302 0.13719 0.0
C89 C 0.52298 0.45784 0.01096 0.0
C90 C 0.43742 0.48096 0.07124 0.0
Eu91 Eu 0.49184 0.49962 0.0235 0.0
C92 C 0.41195 0.48764 0.067 0.0
C93 C 0.40617 0.49981 1.00726 0.0
C94 C 0.38055 0.50401 1.0027 0.0
C95 C 0.3603 0.49618 0.05786 0.0
C96 C 0.36681 0.48482 0.11837 0.0
C97 C 0.39233 0.48057 0.12276 0.0
C98 C 0.50443 0.50195 0.88444 0.0
C99 C 0.52849 0.57423 0.01034 0.0
O100 O 0.58832 0.53008 0.91591 0.0
O101 O 0.60936 0.56358 1.00766 0.0
O102 O 0.57051 0.55335 0.11198 0.0
O103 O 0.53298 0.5086 0.0893 0.0
O104 O 0.54639 0.48176 0.98503 0.0
O105 O 0.50069 0.46049 0.04016 0.0
O106 O 0.46313 0.50183 0.10587 0.0
O107 O 0.44211 0.46876 0.01341 0.0
O108 O 0.48117 0.47877 0.90953 0.0
O109 O 0.5185 0.52352 0.93244 0.0
O110 O 0.50519 0.55041 0.03686 0.0
O111 O 0.55063 0.57147 0.98076 0.0
H112 H 0.63151 0.52839 0.0596 0.0
H113 H 0.67656 0.52147 0.06794 0.0
H114 H 0.6985 0.55179 0.85743 0.0
H115 H 0.65404 0.55947 0.85054 0.0
H116 H 0.42111 0.50551 0.96364 0.0
H117 H 0.37616 0.51259 0.95512 0.0
H118 H 0.35213 0.47913 0.16245 0.0
H119 H 0.39652 0.47132 0.16946 0.0
H120 H 1.01231 0.5388 0.81419 0.0
H121 H 1.01462 0.54598 0.68686 0.0
H122 H 0.03137 0.47002 0.65057 0.0
H123 H 0.02876 0.46256 0.77733 0.0
H124 H 0.06238 0.55858 0.59742 0.0
H125 H 0.95837 0.44633 0.50927 0.0
H126 H 0.96698 0.46192 0.60065 0.0
H127 H 0.98644 0.44302 0.56332 0.0
C128 C 1.01641 0.52361 0.77896 0.0
C129 C 1.02009 0.49995 0.8056 0.0
C130 C 1.01775 0.52774 0.70626 0.0
C131 C 1.02259 0.50817 0.65885 0.0
C132 C 0.02689 0.48494 0.68574 0.0
H133 H 0.03952 0.49484 0.20268 0.0
H134 H 0.03708 0.4878 0.33005 0.0
C135 C 0.02557 0.48082 0.7583 0.0
C136 C 1.02366 0.51232 0.58151 0.0
H137 H 0.98944 0.47543 0.41912 0.0
C138 C 0.04633 0.54047 0.55846 0.0
C139 C 1.00277 0.48864 0.53057 0.0
C140 C 0.97707 0.45837 0.55204 0.0
C141 C 0.04906 0.54538 0.48597 0.0
C142 C 0.02817 0.5217 0.43502 0.0
C143 C 1.00549 0.49355 0.45808 0.0
C144 C 0.02932 0.52578 0.35764 0.0
C145 C 0.07477 0.57565 0.46451 0.0
C146 C 1.02518 0.54906 0.33048 0.0
C147 C 0.02659 0.55311 0.25788 0.0
C148 C 0.03199 0.53386 0.21081 0.0
C149 C 0.03549 0.51013 0.23773 0.0
C150 C 0.03407 0.50608 0.31045 0.0
H151 H 0.09346 0.58768 0.50731 0.0
H152 H 0.08488 0.57208 0.41594 0.0
H153 H 0.06542 0.591 0.45317 0.0
H154 H 1.02076 0.56408 0.36546 0.0
H155 H 1.02354 0.57142 0.23864 0.0
H156 H 0.46967 1.0142 0.22728 0.0
H157 H 0.47464 1.01179 0.35538 0.0
H158 H 0.56663 0.02665 0.33787 0.0
H159 H 0.56193 0.02951 0.20953 0.0
H160 H 0.48557 0.97192 0.43078 0.0
H161 H 0.5796 0.09325 0.49215 0.0
H162 H 0.55744 0.07978 0.40796 0.0
H163 H 0.58796 0.07167 0.42639 0.0
C164 C 0.491 0.01703 0.25075 0.0
C165 C 0.51552 0.02232 0.20855 0.0
C166 C 0.49378 1.01561 0.32395 0.0
C167 C 0.52118 0.01955 0.35649 0.0
C168 C 0.54552 0.02422 0.3142 0.0
H169 H 0.582 0.0185 0.78947 0.0
H170 H 0.57682 0.02087 0.66143 0.0
C171 C 0.54276 0.02568 0.24086 0.0
C172 C 0.52399 0.01837 0.43452 0.0
H173 H 0.56574 0.06064 0.58648 0.0
C174 C 0.50302 0.99135 0.46489 0.0
C175 C 0.54675 0.04376 0.47901 0.0
C176 C 0.56907 0.07387 0.45 0.0
C177 C 0.50455 0.9888 0.53827 0.0
C178 C 0.52733 1.01418 0.58275 0.0
C179 C 0.54828 0.04121 0.55238 0.0
C180 C 0.53023 1.01297 0.66075 0.0
C181 C 0.48225 0.95868 0.56727 0.0
C182 C 0.50593 1.00822 0.70328 0.0
C183 C 0.50882 1.00678 0.77659 0.0
C184 C 0.53614 1.01024 0.80864 0.0
C185 C 0.56062 1.01559 0.7662 0.0
C186 C 0.5577 0.017 0.69304 0.0
H187 H 0.47169 0.93932 0.5251 0.0
H188 H 0.4939 0.95276 0.60922 0.0
H189 H 0.46338 0.96089 0.59098 0.0
H190 H 0.48476 1.00574 0.67981 0.0
H191 H 0.48968 1.00289 0.80811 0.0
H192 H 0.54932 0.55118 0.8223 0.0
H193 H 0.55693 0.55625 0.69535 0.0
H194 H 0.47901 0.46457 0.64754 0.0
H195 H 0.47159 0.45922 0.77431 0.0
H196 H 0.52958 0.47545 0.57166 0.0
H197 H 0.50381 0.57048 0.5518 0.0
H198 H 0.53374 0.57836 0.61807 0.0
H199 H 0.49493 0.54795 0.62765 0.0
C200 C 0.53383 0.53213 0.78465 0.0
C201 C 0.50972 0.50489 0.8081 0.0
C202 C 0.53807 0.53512 0.71213 0.0
C203 C 0.51818 0.511 0.66178 0.0
C204 C 0.49451 0.48355 0.68534 0.0
H205 H 0.50236 0.4811 0.19962 0.0
H206 H 0.49487 0.47613 0.32663 0.0
C207 C 0.49028 0.48054 0.75777 0.0
C208 C 0.52216 0.51415 0.58458 0.0
H209 H 0.52239 0.55694 0.45012 0.0
C210 C 0.52789 0.49319 0.545 0.0
C211 C 0.51994 0.53731 0.54982 0.0
C212 C 0.51249 0.55966 0.58875 0.0
C213 C 0.53203 0.49508 0.47196 0.0
C214 C 0.52981 0.51823 0.4372 0.0
C215 C 0.52408 0.53921 0.47678 0.0
C216 C 0.53373 0.52133 0.35998 0.0
C217 C 0.53946 0.47272 0.43302 0.0
C218 C 0.55742 0.54874 0.33628 0.0
C219 C 0.56158 0.55169 0.2638 0.0
C220 C 0.54205 0.52733 0.21358 0.0
C221 C 0.51792 0.50015 0.23718 0.0
C222 C 0.51374 0.49722 0.30974 0.0
H223 H 0.54815 0.46189 0.46995 0.0
H224 H 0.51821 0.45402 0.40371 0.0
H225 H 0.55702 0.48442 0.3941 0.0
H226 H 0.57298 0.56772 0.37399 0.0
H227 H 0.58029 0.57297 0.24715 0.0
H228 H 0.09261 0.47107 0.07401 0.0
H229 H 0.14083 0.46991 0.07879 0.0
H230 H 0.18544 0.55458 0.97527 0.0
H231 H 0.13744 0.5562 0.97099 0.0
H232 H 0.17472 0.46785 0.96617 0.0
H233 H 0.24476 0.5733 0.14821 0.0
H234 H 0.20324 0.55466 0.13679 0.0
H235 H 0.22681 0.57891 0.07142 0.0
C236 C 0.11269 0.48958 0.05257 0.0
C237 C 0.11112 0.51381 0.02239 0.0
C238 C 0.14025 0.48884 0.05529 0.0
C239 C 0.16687 0.51237 0.02829 0.0
C240 C 0.16538 0.5365 0.99774 0.0
H241 H 0.3538 0.5424 1.00273 0.0
H242 H 0.30698 0.54621 0.99177 0.0
C243 C 0.13782 0.53728 0.995 0.0
C244 C 0.19589 0.51108 0.03043 0.0
H245 H 0.27097 0.54936 0.09732 0.0
C246 C 0.19575 0.48564 0.99496 0.0
C247 C 0.22337 0.53441 0.06766 0.0
C248 C 0.22465 0.56176 0.10874 0.0
C249 C 0.22236 0.48295 0.99533 0.0
C250 C 0.24973 0.50604 0.03339 0.0
C251 C 0.24999 0.53169 0.06816 0.0
C252 C 0.27807 0.50358 0.03932 0.0
C253 C 0.22101 0.45561 0.95398 0.0
C254 C 0.27749 0.47857 0.07041 0.0
C255 C 0.3041 0.4762 0.07625 0.0
C256 C 0.33205 0.49898 0.05175 0.0
C257 C 0.33263 0.52423 0.02128 0.0
C258 C 0.30593 0.52655 0.0154 0.0
H259 H 0.20185 0.44523 0.91201 0.0
H260 H 0.24302 0.4623 0.92889 0.0
H261 H 0.21699 0.43762 0.99052 0.0
H262 H 0.25643 0.46087 0.0905 0.0
H263 H 0.30263 0.45627 0.0993 0.0
H264 H 0.64055 0.08232 0.07621 0.0
H265 H 0.6901 0.13045 0.0813 0.0
H266 H 0.64515 0.17685 0.99506 0.0
H267 H 0.59561 0.1287 0.98833 0.0
H268 H 0.69716 0.19017 0.9296 0.0
H269 H 0.72218 0.20571 0.22069 0.0
H270 H 0.71513 0.16902 0.18229 0.0
H271 H 0.68467 0.17816 0.17927 0.0
C272 C 0.64112 0.1028 0.0588 0.0
C273 C 0.61402 0.10162 0.0321 0.0
C274 C 0.6695 0.13038 0.06212 0.0
C275 C 0.67133 0.15744 0.03966 0.0
C276 C 0.64431 0.15631 0.01297 0.0
H277 H 0.83038 0.34275 0.12358 0.0
H278 H 0.7794 0.29619 0.11903 0.0
C279 C 0.61597 0.12873 0.00926 0.0
C280 C 0.7015 0.18667 0.04168 0.0
H281 H 0.76341 0.23835 0.15181 0.0
C282 C 0.71158 0.20078 0.97827 0.0
C283 C 0.72015 0.20078 0.10532 0.0
C284 C 0.70989 0.18784 0.17588 0.0
C285 C 0.73997 0.22827 0.9765 0.0
C286 C 0.75917 0.24171 0.03964 0.0
C287 C 0.74885 0.2279 0.10328 0.0
C288 C 0.78998 0.27015 0.041 0.0
C289 C 0.74883 0.2429 0.90717 0.0
C290 C 0.81302 0.27099 0.99908 0.0
C291 C 0.84214 0.29761 1.00141 0.0
C292 C 0.84899 0.32386 0.04641 0.0
C293 C 0.82594 0.32287 0.08873 0.0
C294 C 0.79676 0.2963 0.08605 0.0
H295 H 0.7283 0.23512 0.86991 0.0
H296 H 0.76109 0.26849 0.91557 0.0
H297 H 0.76444 0.23607 0.88168 0.0
H298 H 0.80866 0.25086 0.96531 0.0
H299 H 0.85954 0.29737 0.96916 0.0
H300 H 0.50632 0.81923 0.1142 0.0
H301 H 0.50278 0.76855 0.10494 0.0
H302 H 0.57411 0.80095 0.95687 0.0
H303 H 0.57811 0.85176 0.96652 0.0
H304 H 0.49073 0.72717 0.97756 0.0
H305 H 0.60514 0.76716 0.11703 0.0
H306 H 0.58557 0.78916 0.12318 0.0
H307 H 0.60501 0.78902 0.04511 0.0
C308 C 0.52135 0.8156 0.07991 0.0
C309 C 0.54259 0.83959 0.04132 0.0
C310 C 0.51918 0.7866 0.0744 0.0
C311 C 0.53843 0.78112 0.03088 0.0
C312 C 0.55929 0.80481 0.99141 0.0
H313 H 0.56972 0.62676 0.95103 0.0
H314 H 0.57093 0.67616 0.95368 0.0
C315 C 0.56135 0.83375 0.99652 0.0
C316 C 0.5368 0.75067 0.02699 0.0
H317 H 0.57815 0.71554 0.06685 0.0
C318 C 0.50977 0.72454 0.99723 0.0
C319 C 0.56174 0.7474 0.05246 0.0
C320 C 0.59097 0.77457 0.08679 0.0
C321 C 0.5072 0.69524 0.99115 0.0
C322 C 0.53207 0.69188 0.01717 0.0
C323 C 0.5591 0.71809 0.0469 0.0
C324 C 0.53062 0.66145 0.01424 0.0
C325 C 0.47818 0.66833 0.9553 0.0
C326 C 0.50772 0.63673 0.04793 0.0
C327 C 0.50686 0.60835 0.04623 0.0
C328 C 0.52912 0.60419 0.01144 0.0
C329 C 0.55219 0.62908 0.97824 0.0
C330 C 0.55293 0.65739 0.97972 0.0
H331 H 0.46556 0.67617 0.92078 0.0
H332 H 0.48345 0.65261 0.92268 0.0
H333 H 0.4626 0.655 0.99626 0.0
H334 H 0.4907 0.63949 0.07641 0.0
H335 H 0.4889 0.58979 0.0728 0.0
H336 H 0.91511 0.47798 0.04859 0.0
H337 H 0.86684 0.47915 0.04258 0.0
H338 H 0.91111 0.56305 0.9362 0.0
H339 H 0.95935 0.56198 0.94126 0.0
H340 H 0.85516 0.52539 0.09828 0.0
H341 H 0.83374 0.50701 0.80578 0.0
H342 H 0.86113 0.49969 0.85214 0.0
H343 H 0.87127 0.5385 0.83569 0.0
C344 C 0.91459 0.49663 0.02359 0.0
C345 C 0.94113 0.5198 0.99503 0.0
C346 C 0.88696 0.49727 0.02034 0.0
C347 C 0.88523 0.52092 0.98801 0.0
C348 C 0.91173 0.54423 0.96012 0.0
H349 H 0.74858 0.5753 0.91832 0.0
H350 H 0.79467 0.57042 0.92608 0.0
C351 C 0.93937 0.54366 0.96342 0.0
C352 C 0.85592 0.52162 0.98466 0.0
H353 H 0.80218 0.52161 0.86942 0.0
C354 C 0.84342 0.52432 0.04828 0.0
C355 C 0.84064 0.52022 0.91936 0.0
C356 C 0.85217 0.51591 0.8493 0.0
C357 C 0.81652 0.52654 0.04836 0.0
C358 C 0.80147 0.52552 0.98303 0.0
C359 C 0.81379 0.52247 0.91945 0.0
C360 C 0.77328 0.52826 0.97932 0.0
C361 C 0.80496 0.5309 0.11833 0.0
C362 C 0.74578 0.506 1.00612 0.0
C363 C 0.71922 0.50859 1.00132 0.0
C364 C 0.71959 0.53343 0.96923 0.0
C365 C 0.74724 0.55562 0.94237 0.0
C366 C 0.77371 0.55298 0.94711 0.0
H367 H 0.82289 0.5384 0.1626 0.0
H368 H 0.79741 0.54825 0.11617 0.0
H369 H 0.78481 0.50866 0.13018 0.0
H370 H 0.74474 0.4864 0.02994 0.0
H371 H 0.69826 0.49084 0.02162 0.0
H372 H 0.22495 0.69113 0.02291 0.0
H373 H 0.27565 0.73827 0.03088 0.0
H374 H 0.23757 0.78369 0.91175 0.0
H375 H 0.18675 0.73724 0.90568 0.0
H376 H 0.31181 0.76999 0.9219 0.0
H377 H 0.28077 0.84489 0.08428 0.0
H378 H 0.25661 0.80339 0.07377 0.0
H379 H 0.25602 0.82655 1.00527 0.0
C380 C 0.22727 0.71127 0.99917 0.0
C381 C 0.20168 0.71035 0.96378 0.0
C382 C 0.25631 0.73813 1.00338 0.0
C383 C 0.26032 0.76466 0.97281 0.0
C384 C 0.23494 0.76372 0.93689 0.0
H385 H 0.4131 0.94853 0.92666 0.0
H386 H 0.36342 0.90045 0.92105 0.0
C387 C 0.20594 0.73694 0.93269 0.0
C388 C 0.29113 0.79315 0.97701 0.0
H389 H 0.32934 0.86993 0.0333 0.0
C390 C 0.31573 0.79181 0.94669 0.0
C391 C 0.29619 0.82161 0.00928 0.0
C392 C 0.27109 0.82425 0.04561 0.0
C393 C 0.34504 0.81831 0.94619 0.0
C394 C 0.35001 0.84682 0.97793 0.0
C395 C 0.32547 0.8481 0.0087 0.0
C396 C 0.38047 0.87565 0.9799 0.0
C397 C 0.37018 0.81572 0.91001 0.0
C398 C 0.40656 0.87778 0.01527 0.0
C399 C 0.43503 0.90521 0.01845 0.0
C400 C 0.43796 0.9312 0.98674 0.0
C401 C 0.41174 0.92899 0.9515 0.0
C402 C 0.38329 0.90152 0.94831 0.0
H403 H 0.36065 0.79463 0.87276 0.0
H404 H 0.38412 0.83622 0.8803 0.0
H405 H 0.38579 0.81438 0.95064 0.0
H406 H 0.40482 0.85834 0.04133 0.0
H407 H 0.45465 0.90611 0.04645 0.0
H408 H 0.56579 0.44414 0.96002 0.0
H409 H 0.56387 0.39434 0.95463 0.0
H410 H 0.47667 0.35363 0.05117 0.0
H411 H 0.47851 0.40341 0.05764 0.0
H412 H 0.51773 0.33699 0.10921 0.0
H413 H 0.50774 0.31986 0.81534 0.0
H414 H 0.54035 0.35567 0.85129 0.0
H415 H 0.50195 0.34864 0.86277 0.0
C416 C 0.54616 0.42462 0.98012 0.0
C417 C 0.5222 0.42779 0.00888 0.0
C418 C 0.54505 0.39611 0.97668 0.0
C419 C 0.51989 0.37013 1.00148 0.0
C420 C 0.49624 0.37334 0.03143 0.0
H421 H 0.46342 0.17728 0.91133 0.0
H422 H 0.46799 0.22819 0.92302 0.0
C423 C 0.49733 0.40184 0.03496 0.0
C424 C 0.51815 0.33959 0.99615 0.0
H425 H 0.5144 0.28366 0.87747 0.0
C426 C 0.51702 0.32531 0.05858 0.0
C427 C 0.51684 0.32422 0.92997 0.0
C428 C 0.5165 0.33768 0.86091 0.0
C429 C 0.51491 0.29623 0.05663 0.0
C430 C 0.5143 0.28119 0.99054 0.0
C431 C 0.51516 0.29535 0.92813 0.0
C432 C 0.51174 0.25029 0.98463 0.0
C433 C 0.51266 0.28151 0.12517 0.0
C434 C 0.53497 0.24579 0.01492 0.0
C435 C 0.53255 0.21667 1.0079 0.0
C436 C 0.50691 0.19148 0.97007 0.0
C437 C 0.48373 0.19618 0.93982 0.0
C438 C 0.4862 0.22526 0.9468 0.0
H439 H 0.50617 0.2925 0.16882 0.0
H440 H 0.49541 0.25645 0.11871 0.0
H441 H 0.53539 0.28413 0.14097 0.0
H442 H 0.55519 0.26491 0.0432 0.0
H443 H 0.55104 0.21403 0.03101 0.0
loop_
_geom_bond_atom_site_label_1
_geom_bond_atom_site_label_2
_geom_bond_distance
_geom_bond_site_symmetry_2
_ccdc_geom_bond_type
C0 Eu1 2.835 . S
C0 C2 1.500 1_554 S
C0 O20 1.257 1_554 S
C0 O21 1.260 . S
Eu1 C0 2.835 . S
Eu1 O20 2.473 1_554 S
Eu1 O21 2.480 . S
Eu1 O22 2.430 . S
Eu1 O23 2.670 1_455 S
Eu1 O24 2.394 . S
Eu1 O29 2.355 1_554 S
Eu1 O31 2.374 1_455 S
C2 C0 1.500 1_556 S
C2 C3 1.373 1_556 S
C2 C7 1.382 . S
C3 C2 1.373 1_554 S
C3 C4 1.395 . S
C3 H32 0.931 . S
C4 C3 1.395 . S
C4 C5 1.383 1_554 S
C4 H33 0.931 . S
C5 C4 1.383 1_556 S
C5 C6 1.394 . S
C6 C5 1.394 . S
C6 C7 1.378 . S
C6 H34 0.931 . S
C7 C2 1.382 . S
C7 C6 1.378 . S
C7 H35 0.931 . S
C8 O22 1.259 . S
C8 O23 1.270 1_455 S
C9 O24 1.251 . S
C9 O25 1.251 1_554 S
C10 Eu11 2.835 . S
C10 C12 1.499 1_556 S
C10 O26 1.257 1_556 S
C10 O27 1.260 . S
Eu11 C10 2.835 . S
Eu11 O23 2.355 1_556 S
Eu11 O25 2.374 1_655 S
Eu11 O26 2.473 1_556 S
Eu11 O27 2.480 . S
Eu11 O28 2.430 . S
Eu11 O29 2.670 1_655 S
Eu11 O30 2.394 . S
C12 C10 1.499 1_554 S
C12 C13 1.371 1_554 S
C12 C17 1.385 . S
C13 C12 1.371 1_556 S
C13 C14 1.395 . S
C13 H36 0.931 . S
C14 C13 1.395 . S
C14 C15 1.383 1_556 S
C14 H37 0.931 . S
C15 C14 1.383 1_554 S
C15 C16 1.394 . S
C16 C15 1.394 . S
C16 C17 1.378 . S
C16 H38 0.931 . S
C17 C12 1.385 . S
C17 C16 1.378 . S
C17 H39 0.931 . S
C18 O28 1.259 . S
C18 O29 1.270 1_655 S
C19 O30 1.251 . S
C19 O31 1.250 1_556 S
O20 C0 1.257 1_556 S
O20 Eu1 2.473 1_556 S
O21 C0 1.260 . S
O21 Eu1 2.480 . S
O22 Eu1 2.430 . S
O22 C8 1.259 . S
O23 Eu1 2.670 1_655 S
O23 C8 1.270 1_655 S
O23 Eu11 2.355 1_554 S
O24 Eu1 2.394 . S
O24 C9 1.251 . S
O25 C9 1.251 1_556 S
O25 Eu11 2.374 1_455 S
O26 C10 1.257 1_554 S
O26 Eu11 2.473 1_554 S
O27 C10 1.260 . S
O27 Eu11 2.480 . S
O28 Eu11 2.430 . S
O28 C18 1.259 . S
O29 Eu1 2.355 1_556 S
O29 Eu11 2.670 1_455 S
O29 C18 1.270 1_455 S
O30 Eu11 2.394 . S
O30 C19 1.251 . S
O31 Eu1 2.374 1_655 S
O31 C19 1.250 1_554 S
H32 C3 0.931 . S
H33 C4 0.931 . S
H34 C6 0.931 . S
H35 C7 0.931 . S
H36 C13 0.931 . S
H37 C14 0.931 . S
H38 C16 0.931 . S
H39 C17 0.931 . S
C40 Eu41 2.834 1_556 S
C40 C42 1.501 . S
C40 O60 1.263 . S
C40 O61 1.253 1_556 S
Eu41 C40 2.834 1_554 S
Eu41 O60 2.473 1_554 S
Eu41 O61 2.480 . S
Eu41 O62 2.430 . S
Eu41 O63 2.670 1_545 S
Eu41 O64 2.394 . S
Eu41 O69 2.355 1_554 S
Eu41 O71 2.374 1_544 S
C42 C40 1.501 . S
C42 C43 1.377 1_556 S
C42 C47 1.377 . S
C43 C42 1.377 1_554 S
C43 C44 1.395 . S
C43 H72 0.931 . S
C44 C43 1.395 . S
C44 C45 1.383 1_554 S
C44 H73 0.931 . S
C45 C44 1.383 1_556 S
C45 C46 1.394 . S
C46 C45 1.394 . S
C46 C47 1.378 . S
C46 H74 0.931 . S
C47 C42 1.377 . S
C47 C46 1.378 . S
C47 H75 0.931 . S
C48 O62 1.259 . S
C48 O63 1.270 1_545 S
C49 O64 1.251 . S
C49 O65 1.251 . S
C50 Eu51 2.833 1_554 S
C50 C52 1.502 . S
C50 O66 1.266 . S
C50 O67 1.250 1_554 S
Eu51 C50 2.833 1_556 S
Eu51 O63 2.355 1_556 S
Eu51 O65 2.374 1_566 S
Eu51 O66 2.473 1_556 S
Eu51 O67 2.480 . S
Eu51 O68 2.430 . S
Eu51 O69 2.670 1_565 S
Eu51 O70 2.394 . S
C52 C50 1.502 . S
C52 C53 1.377 1_554 S
C52 C57 1.377 . S
C53 C52 1.377 1_556 S
C53 C54 1.395 . S
C53 H76 0.931 . S
C54 C53 1.395 . S
C54 C55 1.383 1_556 S
C54 H77 0.931 . S
C55 C54 1.383 1_554 S
C55 C56 1.394 . S
C56 C55 1.394 . S
C56 C57 1.378 . S
C56 H78 0.931 . S
C57 C52 1.377 . S
C57 C56 1.378 . S
C57 H79 0.931 . S
C58 O68 1.259 . S
C58 O69 1.270 1_565 S
C59 O70 1.251 . S
C59 O71 1.251 . S
O60 C40 1.263 . S
O60 Eu41 2.473 1_556 S
O61 C40 1.253 1_554 S
O61 Eu41 2.480 . S
O62 Eu41 2.430 . S
O62 C48 1.259 . S
O63 Eu41 2.670 1_565 S
O63 C48 1.270 1_565 S
O63 Eu51 2.355 1_554 S
O64 Eu41 2.394 . S
O64 C49 1.251 . S
O65 C49 1.251 . S
O65 Eu51 2.374 1_544 S
O66 C50 1.266 . S
O66 Eu51 2.473 1_554 S
O67 C50 1.250 1_556 S
O67 Eu51 2.480 . S
O68 Eu51 2.430 . S
O68 C58 1.259 . S
O69 Eu41 2.355 1_556 S
O69 Eu51 2.670 1_545 S
O69 C58 1.270 1_545 S
O70 Eu51 2.394 . S
O70 C59 1.251 . S
O71 Eu41 2.374 1_566 S
O71 C59 1.251 . S
H72 C43 0.931 . S
H73 C44 0.931 . S
H74 C46 0.931 . S
H75 C47 0.931 . S
H76 C53 0.931 . S
H77 C54 0.931 . S
H78 C56 0.931 . S
H79 C57 0.931 . S
C80 Eu81 2.835 . S
C80 C82 1.500 1_554 S
C80 O100 1.257 1_554 S
C80 O101 1.260 . S
Eu81 C80 2.835 . S
Eu81 O100 2.473 1_554 S
Eu81 O101 2.480 . S
Eu81 O102 2.430 . S
Eu81 O103 2.670 . S
Eu81 O104 2.394 . S
Eu81 O109 2.355 1_554 S
Eu81 O111 2.374 . S
C82 C80 1.500 1_556 S
C82 C83 1.377 1_556 S
C82 C87 1.377 . S
C83 C82 1.377 1_554 S
C83 C84 1.395 . S
C83 H112 0.931 . S
C84 C83 1.395 . S
C84 C85 1.383 1_554 S
C84 H113 0.931 . S
C85 C84 1.383 1_556 S
C85 C86 1.394 . S
C86 C85 1.394 . S
C86 C87 1.378 . S
C86 H114 0.931 . S
C87 C82 1.377 . S
C87 C86 1.378 . S
C87 H115 0.931 . S
C88 O102 1.259 . S
C88 O103 1.270 . S
C89 O104 1.251 . S
C89 O105 1.251 1_554 S
C90 Eu91 2.835 . S
C90 C92 1.500 1_556 S
C90 O106 1.257 1_556 S
C90 O107 1.260 . S
Eu91 C90 2.835 . S
Eu91 O103 2.355 1_556 S
Eu91 O105 2.374 . S
Eu91 O106 2.473 1_556 S
Eu91 O107 2.480 . S
Eu91 O108 2.430 . S
Eu91 O109 2.670 . S
Eu91 O110 2.394 . S
C92 C90 1.500 1_554 S
C92 C93 1.377 1_554 S
C92 C97 1.377 . S
C93 C92 1.377 1_556 S
C93 C94 1.395 . S
C93 H116 0.931 . S
C94 C93 1.395 . S
C94 C95 1.383 1_556 S
C94 H117 0.931 . S
C95 C94 1.383 1_554 S
C95 C96 1.394 . S
C96 C95 1.394 . S
C96 C97 1.378 . S
C96 H118 0.931 . S
C97 C92 1.377 . S
C97 C96 1.378 . S
C97 H119 0.931 . S
C98 O108 1.259 . S
C98 O109 1.270 . S
C99 O110 1.251 . S
C99 O111 1.251 1_556 S
O100 C80 1.257 1_556 S
O100 Eu81 2.473 1_556 S
O101 C80 1.260 . S
O101 Eu81 2.480 . S
O102 Eu81 2.430 . S
O102 C88 1.259 . S
O103 Eu81 2.670 . S
O103 C88 1.270 . S
O103 Eu91 2.355 1_554 S
O104 Eu81 2.394 . S
O104 C89 1.251 . S
O105 C89 1.251 1_556 S
O105 Eu91 2.374 . S
O106 C90 1.257 1_554 S
O106 Eu91 2.473 1_554 S
O107 C90 1.260 . S
O107 Eu91 2.480 . S
O108 Eu91 2.430 . S
O108 C98 1.259 . S
O109 Eu81 2.355 1_556 S
O109 Eu91 2.670 . S
O109 C98 1.270 . S
O110 Eu91 2.394 . S
O110 C99 1.251 . S
O111 Eu81 2.374 . S
O111 C99 1.251 1_554 S
H112 C83 0.931 . S
H113 C84 0.931 . S
H114 C86 0.931 . S
H115 C87 0.931 . S
H116 C93 0.931 . S
H117 C94 0.931 . S
H118 C96 0.931 . S
H119 C97 0.931 . S
H120 C128 0.930 . S
H121 C130 0.918 . S
H122 C132 0.916 . S
H123 C135 0.936 . S
H124 C138 0.930 . S
H125 C140 0.960 . S
H126 C140 0.960 . S
H127 C140 0.960 . S
C128 H120 0.930 . S
C128 C129 1.385 . S
C128 C130 1.383 . S
C129 C128 1.385 . S
C129 C135 1.400 1_455 S
C130 H121 0.918 . S
C130 C128 1.383 . S
C130 C131 1.384 . S
C131 C130 1.384 . S
C131 C132 1.415 1_455 S
C131 C136 1.490 . S
C132 H122 0.916 . S
C132 C131 1.415 1_655 S
C132 C135 1.386 . S
H133 C149 0.930 . S
H134 C150 0.931 . S
C135 H123 0.936 . S
C135 C129 1.400 1_655 S
C135 C132 1.386 . S
C136 C131 1.490 . S
C136 C138 1.395 . S
C136 C139 1.403 1_455 S
H137 C143 0.930 . S
C138 H124 0.930 . S
C138 C136 1.395 . S
C138 C141 1.403 . S
C139 C136 1.403 1_655 S
C139 C140 1.524 . S
C139 C143 1.400 . S
C140 H125 0.960 . S
C140 H126 0.960 . S
C140 H127 0.960 . S
C140 C139 1.524 . S
C141 C138 1.403 . S
C141 C142 1.392 . S
C141 C145 1.495 . S
C142 C141 1.392 . S
C142 C143 1.385 1_455 S
C142 C144 1.478 . S
C143 H137 0.930 . S
C143 C139 1.400 . S
C143 C142 1.385 1_655 S
C144 C142 1.478 . S
C144 C146 1.381 . S
C144 C150 1.383 . S
C145 C141 1.495 . S
C145 H151 0.959 . S
C145 H152 0.961 . S
C145 H153 0.960 . S
C146 C144 1.381 . S
C146 C147 1.395 . S
C146 H154 0.930 . S
C147 C146 1.395 . S
C147 C148 1.404 . S
C147 H155 0.910 1_455 S
C148 C147 1.404 . S
C148 C149 1.377 . S
C149 H133 0.930 . S
C149 C148 1.377 . S
C149 C150 1.379 . S
C150 H134 0.931 . S
C150 C144 1.383 . S
C150 C149 1.379 . S
H151 C145 0.959 . S
H152 C145 0.961 . S
H153 C145 0.960 . S
H154 C146 0.930 . S
H155 C147 0.910 1_655 S
H156 C164 0.929 . S
H157 C166 0.930 . S
H158 C168 0.930 . S
H159 C171 0.929 . S
H160 C174 0.930 . S
H161 C176 0.960 . S
H162 C176 0.960 . S
H163 C176 0.960 . S
C164 H156 0.929 . S
C164 C165 1.377 . S
C164 C166 1.384 . S
C165 C164 1.377 . S
C165 C171 1.390 1_545 S
C166 H157 0.930 . S
C166 C164 1.384 . S
C166 C167 1.372 . S
C167 C166 1.372 . S
C167 C168 1.400 1_545 S
C167 C172 1.490 . S
C168 H158 0.930 . S
C168 C167 1.400 1_565 S
C168 C171 1.386 . S
H169 C185 0.930 . S
H170 C186 0.931 . S
C171 H159 0.929 . S
C171 C165 1.390 1_565 S
C171 C168 1.386 . S
C172 C167 1.490 . S
C172 C174 1.395 1_545 S
C172 C175 1.403 . S
H173 C179 0.930 . S
C174 H160 0.930 . S
C174 C172 1.395 1_565 S
C174 C177 1.403 . S
C175 C172 1.403 . S
C175 C176 1.524 . S
C175 C179 1.400 . S
C176 H161 0.960 . S
C176 H162 0.960 . S
C176 H163 0.960 . S
C176 C175 1.524 . S
C177 C174 1.403 . S
C177 C178 1.392 . S
C177 C181 1.495 . S
C178 C177 1.392 . S
C178 C179 1.385 1_565 S
C178 C180 1.478 . S
C179 H173 0.930 . S
C179 C175 1.400 . S
C179 C178 1.385 1_545 S
C180 C178 1.478 . S
C180 C182 1.381 1_565 S
C180 C186 1.383 . S
C181 C177 1.495 . S
C181 H187 0.959 . S
C181 H188 0.961 . S
C181 H189 0.960 . S
C182 C180 1.381 1_545 S
C182 C183 1.394 . S
C182 H190 0.930 . S
C183 C182 1.394 . S
C183 C184 1.383 1_545 S
C183 H191 0.929 . S
C184 C183 1.383 1_565 S
C184 C185 1.377 . S
C185 H169 0.930 . S
C185 C184 1.377 . S
C185 C186 1.379 . S
C186 H170 0.931 . S
C186 C180 1.383 . S
C186 C185 1.379 . S
H187 C181 0.959 . S
H188 C181 0.961 . S
H189 C181 0.960 . S
H190 C182 0.930 . S
H191 C183 0.929 . S
H192 C200 0.929 . S
H193 C202 0.930 . S
H194 C204 0.930 . S
H195 C207 0.929 . S
H196 C210 0.930 . S
H197 C212 0.960 . S
H198 C212 0.960 . S
H199 C212 0.960 . S
C200 H192 0.929 . S
C200 C201 1.377 . S
C200 C202 1.384 . S
C201 C200 1.377 . S
C201 C207 1.390 . S
C202 H193 0.930 . S
C202 C200 1.384 . S
C202 C203 1.372 . S
C203 C202 1.372 . S
C203 C204 1.400 . S
C203 C208 1.490 . S
C204 H194 0.930 . S
C204 C203 1.400 . S
C204 C207 1.386 . S
H205 C221 0.930 . S
H206 C222 0.931 . S
C207 H195 0.929 . S
C207 C201 1.390 . S
C207 C204 1.386 . S
C208 C203 1.490 . S
C208 C210 1.395 . S
C208 C211 1.403 . S
H209 C215 0.930 . S
C210 H196 0.930 . S
C210 C208 1.395 . S
C210 C213 1.403 . S
C211 C208 1.403 . S
C211 C212 1.524 . S
C211 C215 1.400 . S
C212 H197 0.960 . S
C212 H198 0.960 . S
C212 H199 0.960 . S
C212 C211 1.524 . S
C213 C210 1.403 . S
C213 C214 1.392 . S
C213 C217 1.495 . S
C214 C213 1.392 . S
C214 C215 1.385 . S
C214 C216 1.478 . S
C215 H209 0.930 . S
C215 C211 1.400 . S
C215 C214 1.385 . S
C216 C214 1.478 . S
C216 C218 1.381 . S
C216 C222 1.383 . S
C217 C213 1.495 . S
C217 H223 0.959 . S
C217 H224 0.961 . S
C217 H225 0.960 . S
C218 C216 1.381 . S
C218 C219 1.394 . S
C218 H226 0.930 . S
C219 C218 1.394 . S
C219 C220 1.383 . S
C219 H227 0.929 . S
C220 C219 1.383 . S
C220 C221 1.377 . S
C221 H205 0.930 . S
C221 C220 1.377 . S
C221 C222 1.379 . S
C222 H206 0.931 . S
C222 C216 1.383 . S
C222 C221 1.379 . S
H223 C217 0.959 . S
H224 C217 0.961 . S
H225 C217 0.960 . S
H226 C218 0.930 . S
H227 C219 0.929 . S
H228 C236 0.929 . S
H229 C238 0.930 . S
H230 C240 0.930 . S
H231 C243 0.929 . S
H232 C246 0.930 . S
H233 C248 0.960 . S
H234 C248 0.960 . S
H235 C248 0.960 . S
C236 H228 0.929 . S
C236 C237 1.377 . S
C236 C238 1.384 . S
C237 C236 1.377 . S
C237 C243 1.390 1_554 S
C238 H229 0.930 . S
C238 C236 1.384 . S
C238 C239 1.372 . S
C239 C238 1.372 . S
C239 C240 1.400 1_554 S
C239 C244 1.490 . S
C240 H230 0.930 . S
C240 C239 1.400 1_556 S
C240 C243 1.386 . S
H241 C257 0.930 . S
H242 C258 0.931 . S
C243 H231 0.929 . S
C243 C237 1.390 1_556 S
C243 C240 1.386 . S
C244 C239 1.490 . S
C244 C246 1.395 1_554 S
C244 C247 1.403 . S
H245 C251 0.930 . S
C246 H232 0.930 . S
C246 C244 1.395 1_556 S
C246 C249 1.403 . S
C247 C244 1.403 . S
C247 C248 1.524 . S
C247 C251 1.400 . S
C248 H233 0.960 . S
C248 H234 0.960 . S
C248 H235 0.960 . S
C248 C247 1.524 . S
C249 C246 1.403 . S
C249 C250 1.392 1_556 S
C249 C253 1.495 . S
C250 C249 1.392 1_554 S
C250 C251 1.385 . S
C250 C252 1.478 . S
C251 H245 0.930 . S
C251 C247 1.400 . S
C251 C250 1.385 . S
C252 C250 1.478 . S
C252 C254 1.381 . S
C252 C258 1.383 1_554 S
C253 C249 1.495 . S
C253 H259 0.959 . S
C253 H260 0.961 . S
C253 H261 0.960 . S
C254 C252 1.381 . S
C254 C255 1.394 . S
C254 H262 0.930 . S
C255 C254 1.394 . S
C255 C256 1.383 . S
C255 H263 0.929 . S
C256 C255 1.383 . S
C256 C257 1.377 1_554 S
C257 H241 0.930 . S
C257 C256 1.377 1_556 S
C257 C258 1.379 . S
C258 H242 0.931 . S
C258 C252 1.383 1_556 S
C258 C257 1.379 . S
H259 C253 0.959 . S
H260 C253 0.961 . S
H261 C253 0.960 . S
H262 C254 0.930 . S
H263 C255 0.929 . S
H264 C272 0.929 . S
H265 C274 0.930 . S
H266 C276 0.930 . S
H267 C279 0.929 . S
H268 C282 0.930 . S
H269 C284 0.960 . S
H270 C284 0.960 . S
H271 C284 0.960 . S
C272 H264 0.929 . S
C272 C273 1.377 1_556 S
C272 C274 1.384 . S
C273 C272 1.377 1_554 S
C273 C279 1.390 . S
C274 H265 0.930 . S
C274 C272 1.384 . S
C274 C275 1.372 1_556 S
C275 C274 1.372 1_554 S
C275 C276 1.400 . S
C275 C280 1.490 . S
C276 H266 0.930 . S
C276 C275 1.400 . S
C276 C279 1.386 . S
H277 C293 0.930 . S
H278 C294 0.931 . S
C279 H267 0.929 . S
C279 C273 1.390 . S
C279 C276 1.386 . S
C280 C275 1.490 . S
C280 C282 1.395 1_554 S
C280 C283 1.403 . S
H281 C287 0.930 . S
C282 H268 0.930 . S
C282 C280 1.395 1_556 S
C282 C285 1.403 . S
C283 C280 1.403 . S
C283 C284 1.524 . S
C283 C287 1.400 . S
C284 H269 0.960 . S
C284 H270 0.960 . S
C284 H271 0.960 . S
C284 C283 1.524 . S
C285 C282 1.403 . S
C285 C286 1.392 1_556 S
C285 C289 1.495 . S
C286 C285 1.392 1_554 S
C286 C287 1.385 . S
C286 C288 1.478 . S
C287 H281 0.930 . S
C287 C283 1.400 . S
C287 C286 1.385 . S
C288 C286 1.478 . S
C288 C290 1.381 1_554 S
C288 C294 1.383 . S
C289 C285 1.495 . S
C289 H295 0.959 . S
C289 H296 0.961 . S
C289 H297 0.960 . S
C290 C288 1.381 1_556 S
C290 C291 1.394 . S
C290 H298 0.930 . S
C291 C290 1.394 . S
C291 C292 1.383 1_556 S
C291 H299 0.929 . S
C292 C291 1.383 1_554 S
C292 C293 1.377 . S
C293 H277 0.930 . S
C293 C292 1.377 . S
C293 C294 1.379 . S
C294 H278 0.931 . S
C294 C288 1.383 . S
C294 C293 1.379 . S
H295 C289 0.959 . S
H296 C289 0.961 . S
H297 C289 0.960 . S
H298 C290 0.930 . S
H299 C291 0.929 . S
H300 C308 0.929 . S
H301 C310 0.930 . S
H302 C312 0.930 . S
H303 C315 0.929 . S
H304 C318 0.930 . S
H305 C320 0.960 . S
H306 C320 0.960 . S
H307 C320 0.960 1_556 S
C308 H300 0.929 . S
C308 C309 1.377 . S
C308 C310 1.384 . S
C309 C308 1.377 . S
C309 C315 1.390 1_554 S
C310 H301 0.930 . S
C310 C308 1.384 . S
C310 C311 1.372 . S
C311 C310 1.372 . S
C311 C312 1.400 1_554 S
C311 C316 1.490 . S
C312 H302 0.930 . S
C312 C311 1.400 1_556 S
C312 C315 1.386 . S
H313 C329 0.930 . S
H314 C330 0.931 . S
C315 H303 0.929 . S
C315 C309 1.390 1_556 S
C315 C312 1.386 . S
C316 C311 1.490 . S
C316 C318 1.395 . S
C316 C319 1.403 . S
H317 C323 0.930 . S
C318 H304 0.930 . S
C318 C316 1.395 . S
C318 C321 1.403 . S
C319 C316 1.403 . S
C319 C320 1.524 . S
C319 C323 1.400 . S
C320 H305 0.960 . S
C320 H306 0.960 . S
C320 H307 0.960 1_554 S
C320 C319 1.524 . S
C321 C318 1.403 . S
C321 C322 1.392 . S
C321 C325 1.495 . S
C322 C321 1.392 . S
C322 C323 1.385 . S
C322 C324 1.478 . S
C323 H317 0.930 . S
C323 C319 1.400 . S
C323 C322 1.385 . S
C324 C322 1.478 . S
C324 C326 1.381 . S
C324 C330 1.383 1_554 S
C325 C321 1.495 . S
C325 H331 0.959 . S
C325 H332 0.961 1_554 S
C325 H333 0.960 . S
C326 C324 1.381 . S
C326 C327 1.394 . S
C326 H334 0.930 . S
C327 C326 1.394 . S
C327 C328 1.383 . S
C327 H335 0.929 . S
C328 C327 1.383 . S
C328 C329 1.377 1_554 S
C329 H313 0.930 . S
C329 C328 1.377 1_556 S
C329 C330 1.379 . S
C330 H314 0.931 . S
C330 C324 1.383 1_556 S
C330 C329 1.379 . S
H331 C325 0.959 . S
H332 C325 0.961 1_556 S
H333 C325 0.960 . S
H334 C326 0.930 . S
H335 C327 0.929 . S
H336 C344 0.929 . S
H337 C346 0.930 . S
H338 C348 0.930 . S
H339 C351 0.929 . S
H340 C354 0.930 . S
H341 C356 0.960 . S
H342 C356 0.960 . S
H343 C356 0.960 . S
C344 H336 0.929 . S
C344 C345 1.377 1_554 S
C344 C346 1.384 . S
C345 C344 1.377 1_556 S
C345 C351 1.390 . S
C346 H337 0.930 . S
C346 C344 1.384 . S
C346 C347 1.372 1_554 S
C347 C346 1.372 1_556 S
C347 C348 1.400 . S
C347 C352 1.490 . S
C348 H338 0.930 . S
C348 C347 1.400 . S
C348 C351 1.386 . S
H349 C365 0.930 . S
H350 C366 0.931 . S
C351 H339 0.929 . S
C351 C345 1.390 . S
C351 C348 1.386 . S
C352 C347 1.490 . S
C352 C354 1.395 1_556 S
C352 C355 1.403 . S
H353 C359 0.930 . S
C354 H340 0.930 . S
C354 C352 1.395 1_554 S
C354 C357 1.403 . S
C355 C352 1.403 . S
C355 C356 1.524 . S
C355 C359 1.400 . S
C356 H341 0.960 . S
C356 H342 0.960 . S
C356 H343 0.960 . S
C356 C355 1.524 . S
C357 C354 1.403 . S
C357 C358 1.392 1_554 S
C357 C361 1.495 . S
C358 C357 1.392 1_556 S
C358 C359 1.385 . S
C358 C360 1.478 . S
C359 H353 0.930 . S
C359 C355 1.400 . S
C359 C358 1.385 . S
C360 C358 1.478 . S
C360 C362 1.381 1_556 S
C360 C366 1.383 . S
C361 C357 1.495 . S
C361 H367 0.959 . S
C361 H368 0.961 . S
C361 H369 0.960 . S
C362 C360 1.381 1_554 S
C362 C363 1.394 . S
C362 H370 0.930 . S
C363 C362 1.394 . S
C363 C364 1.383 1_554 S
C363 H371 0.929 . S
C364 C363 1.383 1_556 S
C364 C365 1.377 . S
C365 H349 0.930 . S
C365 C364 1.377 . S
C365 C366 1.379 . S
C366 H350 0.931 . S
C366 C360 1.383 . S
C366 C365 1.379 . S
H367 C361 0.959 . S
H368 C361 0.961 . S
H369 C361 0.960 . S
H370 C362 0.930 . S
H371 C363 0.929 . S
H372 C380 0.929 . S
H373 C382 0.930 . S
H374 C384 0.930 . S
H375 C387 0.929 . S
H376 C390 0.930 . S
H377 C392 0.960 . S
H378 C392 0.960 . S
H379 C392 0.960 . S
C380 H372 0.929 . S
C380 C381 1.377 1_554 S
C380 C382 1.384 . S
C381 C380 1.377 1_556 S
C381 C387 1.390 . S
C382 H373 0.930 . S
C382 C380 1.384 . S
C382 C383 1.372 1_554 S
C383 C382 1.372 1_556 S
C383 C384 1.400 . S
C383 C388 1.490 . S
C384 H374 0.930 . S
C384 C383 1.400 . S
C384 C387 1.386 . S
H385 C401 0.930 . S
H386 C402 0.931 . S
C387 H375 0.929 . S
C387 C381 1.390 . S
C387 C384 1.386 . S
C388 C383 1.490 . S
C388 C390 1.395 . S
C388 C391 1.403 1_556 S
H389 C395 0.930 . S
C390 H376 0.930 . S
C390 C388 1.395 . S
C390 C393 1.403 . S
C391 C388 1.403 1_554 S
C391 C392 1.524 . S
C391 C395 1.400 . S
C392 H377 0.960 . S
C392 H378 0.960 . S
C392 H379 0.960 . S
C392 C391 1.524 . S
C393 C390 1.403 . S
C393 C394 1.392 . S
C393 C397 1.495 . S
C394 C393 1.392 . S
C394 C395 1.385 1_556 S
C394 C396 1.478 . S
C395 H389 0.930 . S
C395 C391 1.400 . S
C395 C394 1.385 1_554 S
C396 C394 1.478 . S
C396 C398 1.381 1_556 S
C396 C402 1.383 . S
C397 C393 1.495 . S
C397 H403 0.959 . S
C397 H404 0.961 . S
C397 H405 0.960 . S
C398 C396 1.381 1_554 S
C398 C399 1.394 . S
C398 H406 0.930 . S
C399 C398 1.394 . S
C399 C400 1.383 1_554 S
C399 H407 0.929 . S
C400 C399 1.383 1_556 S
C400 C401 1.377 . S
C401 H385 0.930 . S
C401 C400 1.377 . S
C401 C402 1.379 . S
C402 H386 0.931 . S
C402 C396 1.383 . S
C402 C401 1.379 . S
H403 C397 0.959 . S
H404 C397 0.961 . S
H405 C397 0.960 . S
H406 C398 0.930 . S
H407 C399 0.929 . S
H408 C416 0.929 . S
H409 C418 0.930 . S
H410 C420 0.930 . S
H411 C423 0.929 . S
H412 C426 0.930 . S
H413 C428 0.960 . S
H414 C428 0.960 . S
H415 C428 0.960 . S
C416 H408 0.929 . S
C416 C417 1.377 1_554 S
C416 C418 1.384 . S
C417 C416 1.377 1_556 S
C417 C423 1.390 . S
C418 H409 0.930 . S
C418 C416 1.384 . S
C418 C419 1.372 1_554 S
C419 C418 1.372 1_556 S
C419 C420 1.400 . S
C419 C424 1.490 . S
C420 H410 0.930 . S
C420 C419 1.400 . S
C420 C423 1.386 . S
H421 C437 0.930 . S
H422 C438 0.931 . S
C423 H411 0.929 . S
C423 C417 1.390 . S
C423 C420 1.386 . S
C424 C419 1.490 . S
C424 C426 1.395 1_556 S
C424 C427 1.403 . S
H425 C431 0.930 . S
C426 H412 0.930 . S
C426 C424 1.395 1_554 S
C426 C429 1.403 . S
C427 C424 1.403 . S
C427 C428 1.524 . S
C427 C431 1.400 . S
C428 H413 0.960 . S
C428 H414 0.960 . S
C428 H415 0.960 . S
C428 C427 1.524 . S
C429 C426 1.403 . S
C429 C430 1.392 1_554 S
C429 C433 1.495 . S
C430 C429 1.392 1_556 S
C430 C431 1.385 . S
C430 C432 1.478 . S
C431 H425 0.930 . S
C431 C427 1.400 . S
C431 C430 1.385 . S
C432 C430 1.478 . S
C432 C434 1.381 1_556 S
C432 C438 1.383 . S
C433 C429 1.495 . S
C433 H439 0.959 . S
C433 H440 0.961 . S
C433 H441 0.960 . S
C434 C432 1.381 1_554 S
C434 C435 1.394 . S
C434 H442 0.930 . S
C435 C434 1.394 . S
C435 C436 1.383 1_554 S
C435 H443 0.929 . S
C436 C435 1.383 1_556 S
C436 C437 1.377 . S
C437 H421 0.930 . S
C437 C436 1.377 . S
C437 C438 1.379 . S
C438 H422 0.931 . S
C438 C432 1.383 . S
C438 C437 1.379 . S
H439 C433 0.959 . S
H440 C433 0.961 . S
H441 C433 0.960 . S
H442 C434 0.930 . S
H443 C435 0.929 . S
C129 C18 1.447 1_455 S
C148 C8 1.425 . S
C165 C48 1.443 . S
C184 C58 1.463 . S
C201 C98 1.453 . S
C220 C88 1.457 . S
C237 C9 1.600 . S
C256 C95 1.602 . S
C273 C49 1.603 . S
C292 C15 1.603 . S
C309 C55 1.616 . S
C328 C99 1.612 1_554 S
C345 C19 1.604 . S
C364 C85 1.601 . S
C381 C5 1.609 . S
C400 C59 1.602 . S
C417 C89 1.613 1_556 S
C436 C45 1.604 . S
