# Generated by pormake.
# Topology wna, (6)-cn, num edge types: 1
# Building blocks:
#     Node 0, Type 0, BuildingBlock: INOVEN_clean_sbu_0, # of connection points: 6
#     Node 1, Type 0, BuildingBlock: INOVEN_clean_sbu_0, # of connection points: 6
#     Node 2, Type 0, BuildingBlock: INOVEN_clean_sbu_0, # of connection points: 6
#     Node 3, Type 0, BuildingBlock: INOVEN_clean_sbu_0, # of connection points: 6
#     Node 4, Type 0, BuildingBlock: INOVEN_clean_sbu_0, # of connection points: 6
#     Node 5, Type 0, BuildingBlock: INOVEN_clean_sbu_0, # of connection points: 6
#     Node 6, Type 0, BuildingBlock: INOVEN_clean_sbu_0, # of connection points: 6
#     Node 7, Type 0, BuildingBlock: INOVEN_clean_sbu_0, # of connection points: 6
#     Node 8, Type 0, BuildingBlock: INOVEN_clean_sbu_0, # of connection points: 6
#     Node 9, Type 0, BuildingBlock: INOVEN_clean_sbu_0, # of connection points: 6
#     Node 10, Type 0, BuildingBlock: INOVEN_clean_sbu_0, # of connection points: 6
#     Node 11, Type 0, BuildingBlock: INOVEN_clean_sbu_0, # of connection points: 6
#     Node 12, Type 0, BuildingBlock: INOVEN_clean_sbu_0, # of connection points: 6
#     Node 13, Type 0, BuildingBlock: INOVEN_clean_sbu_0, # of connection points: 6
#     Node 14, Type 0, BuildingBlock: INOVEN_clean_sbu_0, # of connection points: 6
#     Node 15, Type 0, BuildingBlock: INOVEN_clean_sbu_0, # of connection points: 6
#     Node 16, Type 0, BuildingBlock: INOVEN_clean_sbu_0, # of connection points: 6
#     Node 17, Type 0, BuildingBlock: INOVEN_clean_sbu_0, # of connection points: 6
#     Node 18, Type 0, BuildingBlock: INOVEN_clean_sbu_0, # of connection points: 6
#     Node 19, Type 0, BuildingBlock: INOVEN_clean_sbu_0, # of connection points: 6
#     Node 20, Type 0, BuildingBlock: INOVEN_clean_sbu_0, # of connection points: 6
#     Node 21, Type 0, BuildingBlock: INOVEN_clean_sbu_0, # of connection points: 6
#     Node 22, Type 0, BuildingBlock: INOVEN_clean_sbu_0, # of connection points: 6
#     Node 23, Type 0, BuildingBlock: INOVEN_clean_sbu_0, # of connection points: 6
#     Node 24, Type 0, BuildingBlock: INOVEN_clean_sbu_0, # of connection points: 6
#     Node 25, Type 0, BuildingBlock: INOVEN_clean_sbu_0, # of connection points: 6
#     Node 26, Type 0, BuildingBlock: INOVEN_clean_sbu_0, # of connection points: 6
#     Node 27, Type 0, BuildingBlock: INOVEN_clean_sbu_0, # of connection points: 6
#     Node 28, Type 0, BuildingBlock: INOVEN_clean_sbu_0, # of connection points: 6
#     Node 29, Type 0, BuildingBlock: INOVEN_clean_sbu_0, # of connection points: 6
#     Node 30, Type 0, BuildingBlock: INOVEN_clean_sbu_0, # of connection points: 6
#     Node 31, Type 0, BuildingBlock: INOVEN_clean_sbu_0, # of connection points: 6
#     Node 32, Type 0, BuildingBlock: INOVEN_clean_sbu_0, # of connection points: 6
#     Node 33, Type 0, BuildingBlock: INOVEN_clean_sbu_0, # of connection points: 6
#     Node 34, Type 0, BuildingBlock: INOVEN_clean_sbu_0, # of connection points: 6
#     Node 35, Type 0, BuildingBlock: INOVEN_clean_sbu_0, # of connection points: 6
#     Edge 36, Type (0, 0), BuildingBlock: OJICUG_clean_linker_0, # of connection points: 2
#     Edge 37, Type (0, 0), BuildingBlock: OJICUG_clean_linker_0, # of connection points: 2
#     Edge 38, Type (0, 0), BuildingBlock: OJICUG_clean_linker_0, # of connection points: 2
#     Edge 39, Type (0, 0), BuildingBlock: OJICUG_clean_linker_0, # of connection points: 2
#     Edge 40, Type (0, 0), BuildingBlock: OJICUG_clean_linker_0, # of connection points: 2
#     Edge 41, Type (0, 0), BuildingBlock: OJICUG_clean_linker_0, # of connection points: 2
#     Edge 42, Type (0, 0), BuildingBlock: OJICUG_clean_linker_0, # of connection points: 2
#     Edge 43, Type (0, 0), BuildingBlock: OJICUG_clean_linker_0, # of connection points: 2
#     Edge 44, Type (0, 0), BuildingBlock: OJICUG_clean_linker_0, # of connection points: 2
#     Edge 45, Type (0, 0), BuildingBlock: OJICUG_clean_linker_0, # of connection points: 2
#     Edge 46, Type (0, 0), BuildingBlock: OJICUG_clean_linker_0, # of connection points: 2
#     Edge 47, Type (0, 0), BuildingBlock: OJICUG_clean_linker_0, # of connection points: 2
#     Edge 48, Type (0, 0), BuildingBlock: OJICUG_clean_linker_0, # of connection points: 2
#     Edge 49, Type (0, 0), BuildingBlock: OJICUG_clean_linker_0, # of connection points: 2
#     Edge 50, Type (0, 0), BuildingBlock: OJICUG_clean_linker_0, # of connection points: 2
#     Edge 51, Type (0, 0), BuildingBlock: OJICUG_clean_linker_0, # of connection points: 2
#     Edge 52, Type (0, 0), BuildingBlock: OJICUG_clean_linker_0, # of connection points: 2
#     Edge 53, Type (0, 0), BuildingBlock: OJICUG_clean_linker_0, # of connection points: 2
#     Edge 54, Type (0, 0), BuildingBlock: OJICUG_clean_linker_0, # of connection points: 2
#     Edge 55, Type (0, 0), BuildingBlock: OJICUG_clean_linker_0, # of connection points: 2
#     Edge 56, Type (0, 0), BuildingBlock: OJICUG_clean_linker_0, # of connection points: 2
#     Edge 57, Type (0, 0), BuildingBlock: OJICUG_clean_linker_0, # of connection points: 2
#     Edge 58, Type (0, 0), BuildingBlock: OJICUG_clean_linker_0, # of connection points: 2
#     Edge 59, Type (0, 0), BuildingBlock: OJICUG_clean_linker_0, # of connection points: 2
#     Edge 60, Type (0, 0), BuildingBlock: OJICUG_clean_linker_0, # of connection points: 2
#     Edge 61, Type (0, 0), BuildingBlock: OJICUG_clean_linker_0, # of connection points: 2
#     Edge 62, Type (0, 0), BuildingBlock: OJICUG_clean_linker_0, # of connection points: 2
#     Edge 63, Type (0, 0), BuildingBlock: OJICUG_clean_linker_0, # of connection points: 2
#     Edge 64, Type (0, 0), BuildingBlock: OJICUG_clean_linker_0, # of connection points: 2
#     Edge 65, Type (0, 0), BuildingBlock: OJICUG_clean_linker_0, # of connection points: 2
#     Edge 66, Type (0, 0), BuildingBlock: OJICUG_clean_linker_0, # of connection points: 2
#     Edge 67, Type (0, 0), BuildingBlock: OJICUG_clean_linker_0, # of connection points: 2
#     Edge 68, Type (0, 0), BuildingBlock: OJICUG_clean_linker_0, # of connection points: 2
#     Edge 69, Type (0, 0), BuildingBlock: OJICUG_clean_linker_0, # of connection points: 2
#     Edge 70, Type (0, 0), BuildingBlock: OJICUG_clean_linker_0, # of connection points: 2
#     Edge 71, Type (0, 0), BuildingBlock: OJICUG_clean_linker_0, # of connection points: 2
#     Edge 72, Type (0, 0), BuildingBlock: OJICUG_clean_linker_0, # of connection points: 2
#     Edge 73, Type (0, 0), BuildingBlock: OJICUG_clean_linker_0, # of connection points: 2
#     Edge 74, Type (0, 0), BuildingBlock: OJICUG_clean_linker_0, # of connection points: 2
#     Edge 75, Type (0, 0), BuildingBlock: OJICUG_clean_linker_0, # of connection points: 2
#     Edge 76, Type (0, 0), BuildingBlock: OJICUG_clean_linker_0, # of connection points: 2
#     Edge 77, Type (0, 0), BuildingBlock: OJICUG_clean_linker_0, # of connection points: 2
#     Edge 78, Type (0, 0), BuildingBlock: OJICUG_clean_linker_0, # of connection points: 2
#     Edge 79, Type (0, 0), BuildingBlock: OJICUG_clean_linker_0, # of connection points: 2
#     Edge 80, Type (0, 0), BuildingBlock: OJICUG_clean_linker_0, # of connection points: 2
#     Edge 81, Type (0, 0), BuildingBlock: OJICUG_clean_linker_0, # of connection points: 2
#     Edge 82, Type (0, 0), BuildingBlock: OJICUG_clean_linker_0, # of connection points: 2
#     Edge 83, Type (0, 0), BuildingBlock: OJICUG_clean_linker_0, # of connection points: 2
#     Edge 84, Type (0, 0), BuildingBlock: OJICUG_clean_linker_0, # of connection points: 2
#     Edge 85, Type (0, 0), BuildingBlock: OJICUG_clean_linker_0, # of connection points: 2
#     Edge 86, Type (0, 0), BuildingBlock: OJICUG_clean_linker_0, # of connection points: 2
#     Edge 87, Type (0, 0), BuildingBlock: OJICUG_clean_linker_0, # of connection points: 2
#     Edge 88, Type (0, 0), BuildingBlock: OJICUG_clean_linker_0, # of connection points: 2
#     Edge 89, Type (0, 0), BuildingBlock: OJICUG_clean_linker_0, # of connection points: 2
#     Edge 90, Type (0, 0), BuildingBlock: OJICUG_clean_linker_0, # of connection points: 2
#     Edge 91, Type (0, 0), BuildingBlock: OJICUG_clean_linker_0, # of connection points: 2
#     Edge 92, Type (0, 0), BuildingBlock: OJICUG_clean_linker_0, # of connection points: 2
#     Edge 93, Type (0, 0), BuildingBlock: OJICUG_clean_linker_0, # of connection points: 2
#     Edge 94, Type (0, 0), BuildingBlock: OJICUG_clean_linker_0, # of connection points: 2
#     Edge 95, Type (0, 0), BuildingBlock: OJICUG_clean_linker_0, # of connection points: 2
#     Edge 96, Type (0, 0), BuildingBlock: OJICUG_clean_linker_0, # of connection points: 2
#     Edge 97, Type (0, 0), BuildingBlock: OJICUG_clean_linker_0, # of connection points: 2
#     Edge 98, Type (0, 0), BuildingBlock: OJICUG_clean_linker_0, # of connection points: 2
#     Edge 99, Type (0, 0), BuildingBlock: OJICUG_clean_linker_0, # of connection points: 2
#     Edge 100, Type (0, 0), BuildingBlock: OJICUG_clean_linker_0, # of connection points: 2
#     Edge 101, Type (0, 0), BuildingBlock: OJICUG_clean_linker_0, # of connection points: 2
#     Edge 102, Type (0, 0), BuildingBlock: OJICUG_clean_linker_0, # of connection points: 2
#     Edge 103, Type (0, 0), BuildingBlock: OJICUG_clean_linker_0, # of connection points: 2
#     Edge 104, Type (0, 0), BuildingBlock: OJICUG_clean_linker_0, # of connection points: 2
#     Edge 105, Type (0, 0), BuildingBlock: OJICUG_clean_linker_0, # of connection points: 2
#     Edge 106, Type (0, 0), BuildingBlock: OJICUG_clean_linker_0, # of connection points: 2
#     Edge 107, Type (0, 0), BuildingBlock: OJICUG_clean_linker_0, # of connection points: 2
#     Edge 108, Type (0, 0), BuildingBlock: OJICUG_clean_linker_0, # of connection points: 2
#     Edge 109, Type (0, 0), BuildingBlock: OJICUG_clean_linker_0, # of connection points: 2
#     Edge 110, Type (0, 0), BuildingBlock: OJICUG_clean_linker_0, # of connection points: 2
#     Edge 111, Type (0, 0), BuildingBlock: OJICUG_clean_linker_0, # of connection points: 2
#     Edge 112, Type (0, 0), BuildingBlock: OJICUG_clean_linker_0, # of connection points: 2
#     Edge 113, Type (0, 0), BuildingBlock: OJICUG_clean_linker_0, # of connection points: 2
#     Edge 114, Type (0, 0), BuildingBlock: OJICUG_clean_linker_0, # of connection points: 2
#     Edge 115, Type (0, 0), BuildingBlock: OJICUG_clean_linker_0, # of connection points: 2
#     Edge 116, Type (0, 0), BuildingBlock: OJICUG_clean_linker_0, # of connection points: 2
#     Edge 117, Type (0, 0), BuildingBlock: OJICUG_clean_linker_0, # of connection points: 2
#     Edge 118, Type (0, 0), BuildingBlock: OJICUG_clean_linker_0, # of connection points: 2
#     Edge 119, Type (0, 0), BuildingBlock: OJICUG_clean_linker_0, # of connection points: 2
#     Edge 120, Type (0, 0), BuildingBlock: OJICUG_clean_linker_0, # of connection points: 2
#     Edge 121, Type (0, 0), BuildingBlock: OJICUG_clean_linker_0, # of connection points: 2
#     Edge 122, Type (0, 0), BuildingBlock: OJICUG_clean_linker_0, # of connection points: 2
#     Edge 123, Type (0, 0), BuildingBlock: OJICUG_clean_linker_0, # of connection points: 2
#     Edge 124, Type (0, 0), BuildingBlock: OJICUG_clean_linker_0, # of connection points: 2
#     Edge 125, Type (0, 0), BuildingBlock: OJICUG_clean_linker_0, # of connection points: 2
#     Edge 126, Type (0, 0), BuildingBlock: OJICUG_clean_linker_0, # of connection points: 2
#     Edge 127, Type (0, 0), BuildingBlock: OJICUG_clean_linker_0, # of connection points: 2
#     Edge 128, Type (0, 0), BuildingBlock: OJICUG_clean_linker_0, # of connection points: 2
#     Edge 129, Type (0, 0), BuildingBlock: OJICUG_clean_linker_0, # of connection points: 2
#     Edge 130, Type (0, 0), BuildingBlock: OJICUG_clean_linker_0, # of connection points: 2
#     Edge 131, Type (0, 0), BuildingBlock: OJICUG_clean_linker_0, # of connection points: 2
#     Edge 132, Type (0, 0), BuildingBlock: OJICUG_clean_linker_0, # of connection points: 2
#     Edge 133, Type (0, 0), BuildingBlock: OJICUG_clean_linker_0, # of connection points: 2
#     Edge 134, Type (0, 0), BuildingBlock: OJICUG_clean_linker_0, # of connection points: 2
#     Edge 135, Type (0, 0), BuildingBlock: OJICUG_clean_linker_0, # of connection points: 2
#     Edge 136, Type (0, 0), BuildingBlock: OJICUG_clean_linker_0, # of connection points: 2
#     Edge 137, Type (0, 0), BuildingBlock: OJICUG_clean_linker_0, # of connection points: 2
#     Edge 138, Type (0, 0), BuildingBlock: OJICUG_clean_linker_0, # of connection points: 2
#     Edge 139, Type (0, 0), BuildingBlock: OJICUG_clean_linker_0, # of connection points: 2
#     Edge 140, Type (0, 0), BuildingBlock: OJICUG_clean_linker_0, # of connection points: 2
#     Edge 141, Type (0, 0), BuildingBlock: OJICUG_clean_linker_0, # of connection points: 2
#     Edge 142, Type (0, 0), BuildingBlock: OJICUG_clean_linker_0, # of connection points: 2
#     Edge 143, Type (0, 0), BuildingBlock: OJICUG_clean_linker_0, # of connection points: 2
# Relax obj value: 0.148
# Max RMSD: 0.232
# Mean RMSD: 0.213
data_MOF--net-wna--node1-INOVEN_clean_sbu_0--edge1-OJICUG_clean_linker_0
_symmetry_space_group_name_H-M    P1
_symmetry_Int_Tables_number       1
_symmetry_cell_setting            triclinic
loop_
_symmetry_equiv_pos_as_xyz
'x, y, z'
_cell_length_a     29.529731
_cell_length_b     29.493346
_cell_length_c     128.6182
_cell_angle_alpha  90.045272
_cell_angle_beta   90.025895
_cell_angle_gamma 120.00831
loop_
_atom_site_label
_atom_site_type_symbol
_atom_site_fract_x
_atom_site_fract_y
_atom_site_fract_z
_atom_type_partial_charge
Gd0 Gd 0.14438 0.273 0.17273 0.0
Gd1 Gd 0.15088 0.25738 0.19817 0.0
C2 C 0.25697 0.33245 0.18442 0.0
C3 C 0.13156 0.30698 0.15512 0.0
C4 C 0.15232 0.31919 0.14441 0.0
C5 C 0.16633 0.2867 0.13897 0.0
C6 C 0.15411 0.36193 0.13927 0.0
C7 C 0.18029 0.33782 0.12316 0.0
C8 C 0.168 0.37124 0.12878 0.0
C9 C 0.18007 0.29587 0.12843 0.0
C10 C 0.17563 0.20254 0.17747 0.0
C11 C 0.04493 0.18186 0.18505 0.0
C12 C 0.1559 0.2254 0.21665 0.0
C13 C 0.12935 0.21535 0.22688 0.0
C14 C 0.11689 0.25101 0.23148 0.0
C15 C 0.11624 0.16875 0.23217 0.0
C16 C 0.07889 0.19345 0.24653 0.0
C17 C 0.09129 0.15786 0.24185 0.0
C18 C 0.0921 0.24025 0.24122 0.0
C19 C 0.11372 0.32383 0.19306 0.0
O20 O 0.22799 0.33172 0.17644 0.0
O21 O 0.23654 0.30431 0.19306 0.0
O22 O 0.10648 0.25738 0.15778 0.0
O23 O 0.16082 0.33842 0.16259 0.0
O24 O 0.17108 0.21519 0.16797 0.0
O25 O 0.16478 0.22938 0.18347 0.0
O26 O 0.07341 0.18776 0.19348 0.0
O27 O 0.06155 0.21549 0.1772 0.0
O28 O 0.18482 0.2743 0.21364 0.0
O29 O 0.12854 0.19371 0.20908 0.0
O30 O 0.12071 0.31337 0.20253 0.0
O31 O 0.12767 0.29886 0.1873 0.0
H32 H 0.16544 0.25351 0.14277 0.0
H33 H 0.14313 0.38727 0.14331 0.0
H34 H 0.16707 0.40348 0.12496 0.0
H35 H 0.18994 0.26977 0.12438 0.0
H36 H 0.12619 0.28712 0.22755 0.0
H37 H 0.12553 0.14068 0.2288 0.0
H38 H 0.08247 0.12181 0.24574 0.0
H39 H 0.08267 0.2683 0.24452 0.0
Gd40 Gd 0.78858 0.87989 0.173 0.0
Gd41 Gd 0.80113 0.90413 0.19753 0.0
C42 C 0.72614 0.93396 0.18362 0.0
C43 C 0.75549 0.83899 0.15479 0.0
C44 C 0.74658 0.85118 0.14404 0.0
C45 C 0.78454 0.86217 0.13635 0.0
C46 C 0.69866 0.84666 0.14107 0.0
C47 C 0.72616 0.86152 0.12288 0.0
C48 C 0.68862 0.85193 0.13061 0.0
C49 C 0.77455 0.8674 0.12593 0.0
C50 C 0.86704 0.97624 0.17819 0.0
C51 C 0.87435 0.86826 0.18562 0.0
C52 C 0.8326 0.94327 0.21593 0.0
C53 C 0.84234 0.9285 0.22637 0.0
C54 C 0.80672 0.88102 0.23116 0.0
C55 C 0.8882 0.96332 0.23172 0.0
C56 C 0.86255 0.90407 0.2466 0.0
C57 C 0.89827 0.9513 0.24168 0.0
C58 C 0.81668 0.86899 0.24117 0.0
C59 C 0.73602 0.799 0.19328 0.0
O60 O 0.73302 0.91074 0.17539 0.0
O61 O 0.7501 0.93848 0.19267 0.0
O62 O 0.80418 0.85971 0.15783 0.0
O63 O 0.72406 0.83687 0.16223 0.0
O64 O 0.86482 0.9525 0.16953 0.0
O65 O 0.8241 0.95102 0.18298 0.0
O66 O 0.87169 0.89762 0.19312 0.0
O67 O 0.83746 0.84588 0.17845 0.0
O68 O 0.78383 0.9226 0.21282 0.0
O69 O 0.86449 0.94665 0.20849 0.0
O70 O 0.74588 0.81861 0.20258 0.0
O71 O 0.76068 0.83664 0.18726 0.0
H72 H 0.82154 0.865 0.13832 0.0
H73 H 0.66834 0.83772 0.14677 0.0
H74 H 0.65111 0.84767 0.12856 0.0
H75 H 0.80407 0.8738 0.12022 0.0
H76 H 0.77102 0.85333 0.22722 0.0
H77 H 0.91639 1.0001 0.22818 0.0
H78 H 0.93445 0.97896 0.24548 0.0
H79 H 0.78793 0.83252 0.2447 0.0
Gd80 Gd 0.17742 0.91976 0.17284 0.0
Gd81 Gd 0.15505 0.90865 0.19738 0.0
C82 C 0.12432 0.8033 0.18349 0.0
C83 C 0.21666 0.92657 0.15452 0.0
C84 C 0.20375 0.90492 0.14383 0.0
C85 C 0.17115 0.91458 0.13733 0.0
C86 C 0.22919 0.87962 0.13964 0.0
C87 C 0.19309 0.87781 0.12248 0.0
C88 C 0.22373 0.86597 0.12909 0.0
C89 C 0.16596 0.90123 0.12678 0.0
C90 C 0.08122 0.90144 0.17831 0.0
C91 C 0.19119 1.01803 0.18546 0.0
C92 C 0.11862 0.90221 0.216 0.0
C93 C 0.13546 0.92646 0.22651 0.0
C94 C 0.16413 0.91264 0.23326 0.0
C95 C 0.11989 0.96159 0.23014 0.0
C96 C 0.16081 0.96825 0.24704 0.0
C97 C 0.1325 0.98231 0.24023 0.0
C98 C 0.17673 0.93334 0.24337 0.0
C99 C 0.25974 0.94789 0.19297 0.0
O100 O 0.14733 0.83341 0.17527 0.0
O101 O 0.12 0.82289 0.19255 0.0
O102 O 0.19657 0.95503 0.15764 0.0
O103 O 0.21909 0.89723 0.16192 0.0
O104 O 0.10419 0.92296 0.16961 0.0
O105 O 0.10711 0.88412 0.18298 0.0
O106 O 0.16131 0.98583 0.19288 0.0
O107 O 0.2131 1.00291 0.17831 0.0
O108 O 0.13672 0.87227 0.21262 0.0
O109 O 0.11531 0.93123 0.20865 0.0
O110 O 0.24047 0.9382 0.20228 0.0
O111 O 0.22198 0.93519 0.18698 0.0
H112 H 0.15098 0.93408 0.14028 0.0
H113 H 0.25501 0.87223 0.14443 0.0
H114 H 0.24559 0.84845 0.12602 0.0
H115 H 0.14156 0.9103 0.12192 0.0
H116 H 0.17627 0.8852 0.23081 0.0
H117 H 0.09737 0.97276 0.2252 0.0
H118 H 0.12015 1.00959 0.24267 0.0
H119 H 0.19794 0.92095 0.24839 0.0
Gd120 Gd 0.27822 0.125 0.36174 0.0
Gd121 Gd 0.27012 0.13443 0.33855 0.0
C122 C 0.34305 0.24064 0.35129 0.0
C123 C 0.30874 0.11943 0.38033 0.0
C124 C 0.32545 0.14477 0.39065 0.0
C125 C 0.29182 0.15394 0.39692 0.0
C126 C 0.37275 0.15289 0.39488 0.0
C127 C 0.3503 0.17385 0.41176 0.0
C128 C 0.38516 0.16743 0.4053 0.0
C129 C 0.30413 0.1683 0.40737 0.0
C130 C 0.2019 0.14556 0.3563 0.0
C131 C 0.19152 0.02506 0.35018 0.0
C132 C 0.24354 0.13227 0.31915 0.0
C133 C 0.23283 0.10242 0.30921 0.0
C134 C 0.27136 0.11947 0.30142 0.0
C135 C 0.18267 0.06025 0.30693 0.0
C136 C 0.20953 0.05403 0.28924 0.0
C137 C 0.17124 0.03633 0.2971 0.0
C138 C 0.25996 0.09552 0.2916 0.0
C139 C 0.34167 0.10668 0.34478 0.0
O140 O 0.34058 0.20961 0.35898 0.0
O141 O 0.31338 0.2208 0.34289 0.0
O142 O 0.25978 0.10083 0.37771 0.0
O143 O 0.34114 0.13913 0.37248 0.0
O144 O 0.20137 0.12086 0.36466 0.0
O145 O 0.24577 0.16435 0.35186 0.0
O146 O 0.19755 0.05655 0.34232 0.0
O147 O 0.22647 0.0406 0.3577 0.0
O148 O 0.29184 0.15815 0.32247 0.0
O149 O 0.20987 0.11128 0.32673 0.0
O150 O 0.34787 0.13637 0.33689 0.0
O151 O 0.29689 0.09062 0.34846 0.0
H152 H 0.25499 0.14798 0.39391 0.0
H153 H 0.39904 0.14549 0.39025 0.0
H154 H 0.42077 0.17082 0.40843 0.0
H155 H 0.2768 0.17367 0.41209 0.0
H156 H 0.31012 0.15242 0.30281 0.0
H157 H 0.15177 0.04634 0.31268 0.0
H158 H 0.13215 1.0041 0.29565 0.0
H159 H 0.29034 0.11086 0.28574 0.0
Gd160 Gd 0.92923 0.17039 0.36192 0.0
Gd161 Gd 0.91985 0.14521 0.33661 0.0
C162 C 0.81536 0.11479 0.35082 0.0
C163 C 0.94387 0.21838 0.37947 0.0
C164 C 0.92553 0.20936 0.39042 0.0
C165 C 0.95148 0.19603 0.39794 0.0
C166 C 0.88535 0.21856 0.39367 0.0
C167 C 0.89883 0.20303 0.41175 0.0
C168 C 0.87205 0.21527 0.4042 0.0
C169 C 0.93822 0.19277 0.40844 0.0
C170 C 0.89844 0.06825 0.35765 0.0
C171 C 1.02721 0.17755 0.34932 0.0
C172 C 0.91224 0.10551 0.31828 0.0
C173 C 0.93606 0.12026 0.30779 0.0
C174 C 0.94959 0.16864 0.3032 0.0
C175 C 0.94556 0.08483 0.30226 0.0
C176 C 0.98133 0.14542 0.28762 0.0
C177 C 0.96794 0.09719 0.29233 0.0
C178 C 0.9719 0.18104 0.29322 0.0
C179 C 0.9562 0.24928 0.34134 0.0
O180 O 0.84514 0.14458 0.35858 0.0
O181 O 0.83493 0.10606 0.34217 0.0
O182 O 0.97102 0.1966 0.37643 0.0
O183 O 0.91217 0.21813 0.37226 0.0
O184 O 0.90424 0.08685 0.36706 0.0
O185 O 0.90806 0.10495 0.35147 0.0
O186 O 0.99765 0.15341 0.3411 0.0
O187 O 1.01164 0.19623 0.35706 0.0
O188 O 0.883 0.12491 0.32141 0.0
O189 O 0.942 0.10384 0.32566 0.0
O190 O 0.94872 0.23097 0.33193 0.0
O191 O 0.94331 0.21097 0.3472 0.0
H192 H 0.98321 0.18953 0.39575 0.0
H193 H 0.86492 0.22945 0.3881 0.0
H194 H 0.84117 0.22294 0.40645 0.0
H195 H 0.96037 0.18417 0.41402 0.0
H196 H 0.94284 0.19681 0.3073 0.0
H197 H 0.93575 0.04739 0.30566 0.0
H198 H 0.97537 0.06906 0.28841 0.0
H199 H 0.9811 0.21831 0.28985 0.0
Gd200 Gd 0.88762 0.77283 0.36203 0.0
Gd201 Gd 0.91182 0.79223 0.33665 0.0
C202 C 0.94189 0.71524 0.35007 0.0
C203 C 0.83737 0.73651 0.37923 0.0
C204 C 0.84113 0.72157 0.39 0.0
C205 C 0.88726 0.74883 0.39587 0.0
C206 C 0.79576 0.68248 0.3948 0.0
C207 C 0.84088 0.70119 0.41147 0.0
C208 C 0.79559 0.67234 0.40541 0.0
C209 C 0.88717 0.73858 0.40653 0.0
C210 C 0.98955 0.84318 0.35767 0.0
C211 C 0.88119 0.86675 0.3501 0.0
C212 C 0.95089 0.82613 0.31838 0.0
C213 C 0.93558 0.83602 0.30801 0.0
C214 C 0.88709 0.80132 0.30344 0.0
C215 C 0.97057 0.88148 0.30258 0.0
C216 C 0.90924 0.85753 0.2881 0.0
C217 C 0.95761 0.89218 0.29277 0.0
C218 C 0.87415 0.81189 0.29357 0.0
C219 C 0.8082 0.72443 0.34143 0.0
O220 O 0.91305 0.71444 0.35809 0.0
O221 O 0.95049 0.74521 0.34168 0.0
O222 O 0.864 0.78661 0.37699 0.0
O223 O 0.8364 0.70606 0.37167 0.0
O224 O 0.97194 0.82921 0.36711 0.0
O225 O 0.95212 0.81771 0.35154 0.0
O226 O 0.90425 0.86155 0.34168 0.0
O227 O 0.86393 0.83234 0.35784 0.0
O228 O 0.93177 0.77719 0.3213 0.0
O229 O 0.95275 0.85688 0.32594 0.0
O230 O 0.82599 0.73606 0.332 0.0
O231 O 0.84673 0.74933 0.34727 0.0
H232 H 0.92277 0.77926 0.39232 0.0
H233 H 0.75978 0.66101 0.39041 0.0
H234 H 0.75955 0.64267 0.40894 0.0
H235 H 0.92263 0.76159 0.41098 0.0
H236 H 0.85918 0.76613 0.30749 0.0
H237 H 1.00824 0.90879 0.30594 0.0
H238 H 0.98594 0.9273 0.28876 0.0
H239 H 0.83635 0.78462 0.29029 0.0
Gd240 Gd 0.92534 0.79262 0.83812 0.0
Gd241 Gd 0.93272 0.77665 0.86347 0.0
C242 C 1.03289 0.86574 0.85099 0.0
C243 C 0.91797 0.82419 0.81974 0.0
C244 C 0.94084 0.83153 0.80921 0.0
C245 C 0.95756 0.79811 0.80514 0.0
C246 C 0.94631 0.87341 0.80312 0.0
C247 C 0.98489 0.84868 0.789 0.0
C248 C 0.96803 0.88192 0.79315 0.0
C249 C 0.9792 0.8065 0.79512 0.0
C250 C 0.96006 0.72394 0.84295 0.0
C251 C 0.81952 0.71909 0.85212 0.0
C252 C 0.94615 0.74431 0.88122 0.0
C253 C 0.92737 0.73624 0.89212 0.0
C254 C 0.9599 0.77087 0.89986 0.0
C255 C 0.87936 0.69281 0.89506 0.0
C256 C 0.89769 0.71835 0.91332 0.0
C257 C 0.86468 0.68399 0.90556 0.0
C258 C 0.9452 0.76218 0.91031 0.0
C259 C 0.90344 0.8488 0.85887 0.0
O260 O 1.00368 0.86156 0.84277 0.0
O261 O 1.0159 0.83111 0.85867 0.0
O262 O 0.88777 0.77595 0.823 0.0
O263 O 0.94892 0.85567 0.827 0.0
O264 O 0.95367 0.73543 0.83353 0.0
O265 O 0.94683 0.74913 0.84882 0.0
O266 O 0.84856 0.71883 0.85999 0.0
O267 O 0.84 0.74732 0.84349 0.0
O268 O 0.9738 0.79307 0.87809 0.0
O269 O 0.91466 0.71244 0.87401 0.0
O270 O 0.90808 0.836 0.86834 0.0
O271 O 0.91362 0.82162 0.85285 0.0
H272 H 0.95409 0.7657 0.80972 0.0
H273 H 0.93363 0.89965 0.80609 0.0
H274 H 0.97099 0.91429 0.78864 0.0
H275 H 0.99224 0.78043 0.79223 0.0
H276 H 0.99748 0.80422 0.89786 0.0
H277 H 0.85348 0.66516 0.8893 0.0
H278 H 0.82766 0.65003 0.9076 0.0
H279 H 0.97207 0.78891 0.91607 0.0
Gd280 Gd 0.27358 0.14749 0.83902 0.0
Gd281 Gd 0.28723 0.16706 0.86351 0.0
C282 C 0.19401 0.17432 0.85187 0.0
C283 C 0.24271 0.11689 0.82008 0.0
C284 C 0.23357 0.13354 0.8098 0.0
C285 C 0.27153 0.17939 0.80484 0.0
C286 C 0.1867 0.10067 0.80454 0.0
C287 C 0.21648 0.15772 0.78934 0.0
C288 C 0.17818 0.11259 0.79446 0.0
C289 C 0.26302 0.1914 0.79472 0.0
C290 C 0.34625 0.24661 0.84526 0.0
C291 C 0.34674 0.11457 0.852 0.0
C292 C 0.32052 0.21179 0.88135 0.0
C293 C 0.33411 0.20296 0.89192 0.0
C294 C 0.30302 0.15573 0.89725 0.0
C295 C 0.37598 0.24452 0.89714 0.0
C296 C 0.35318 0.19349 0.91314 0.0
C297 C 0.38553 0.23987 0.90763 0.0
C298 C 0.31241 0.1511 0.90777 0.0
C299 C 0.21965 0.06398 0.85908 0.0
O300 O 0.20364 0.15662 0.84312 0.0
O301 O 0.22488 0.18714 0.86011 0.0
O302 O 0.2911 0.13585 0.8232 0.0
O303 O 0.21087 0.11194 0.82763 0.0
O304 O 0.34893 0.22486 0.8367 0.0
O305 O 0.30313 0.21655 0.84953 0.0
O306 O 0.3498 0.1475 0.85937 0.0
O307 O 0.31427 0.10269 0.84398 0.0
O308 O 0.27092 0.18526 0.87877 0.0
O309 O 0.35225 0.21698 0.8737 0.0
O310 O 0.23174 0.08215 0.86851 0.0
O311 O 0.24562 0.10143 0.85303 0.0
H312 H 0.30813 0.20546 0.8087 0.0
H313 H 0.15683 0.06508 0.80819 0.0
H314 H 0.14148 0.08624 0.79067 0.0
H315 H 0.29353 0.22631 0.79102 0.0
H316 H 0.27052 0.12296 0.89339 0.0
H317 H 0.4002 0.28141 0.8932 0.0
H318 H 0.41686 0.27351 0.91153 0.0
H319 H 0.2872 0.11463 0.91175 0.0
Gd320 Gd 0.91669 0.13796 0.83778 0.0
Gd321 Gd 0.89155 0.12943 0.86303 0.0
C322 C 0.88394 0.03079 0.85058 0.0
C323 C 0.9565 0.14654 0.81947 0.0
C324 C 0.94091 0.12505 0.80883 0.0
C325 C 0.89183 0.11167 0.80464 0.0
C326 C 0.97621 0.11783 0.80275 0.0
C327 C 0.9142 0.08497 0.7883 0.0
C328 C 0.96308 0.09802 0.79262 0.0
C329 C 0.87863 0.09189 0.79447 0.0
C330 C 0.81265 0.10154 0.84237 0.0
C331 C 0.94723 0.24322 0.85181 0.0
C332 C 0.84411 0.11572 0.88057 0.0
C333 C 0.85443 0.13401 0.8915 0.0
C334 C 0.88747 0.12459 0.89791 0.0
C335 C 0.82742 0.15732 0.89585 0.0
C336 C 0.86363 0.15848 0.91294 0.0
C337 C 0.83214 0.16967 0.90644 0.0
C338 C 0.8919 0.13659 0.90852 0.0
C339 C 0.99326 0.15889 0.85882 0.0
O340 O 0.90956 0.06074 0.84249 0.0
O341 O 0.86435 0.04656 0.85811 0.0
O342 O 0.93964 0.17745 0.8229 0.0
O343 O 0.95566 0.11423 0.82657 0.0
O344 O 0.83105 0.10816 0.83298 0.0
O345 O 0.85093 0.11554 0.84829 0.0
O346 O 0.91777 0.21374 0.85962 0.0
O347 O 0.95577 0.22318 0.84321 0.0
O348 O 0.86376 0.08685 0.87739 0.0
O349 O 0.84582 0.14866 0.87349 0.0
O350 O 0.97471 0.15346 0.86822 0.0
O351 O 0.95676 0.14958 0.85263 0.0
H352 H 0.86379 0.11669 0.80919 0.0
H353 H 1.01415 0.12754 0.80585 0.0
H354 H 0.99113 0.09235 0.78823 0.0
H355 H 0.84084 0.08273 0.7914 0.0
H356 H 0.90896 0.10673 0.89481 0.0
H357 H 0.80137 0.16458 0.8911 0.0
H358 H 0.8094 0.18599 0.90963 0.0
H359 H 0.91693 0.12805 0.9133 0.0
Gd360 Gd 0.79897 0.91631 0.69761 0.0
Gd361 Gd 0.78672 0.92187 0.6732 0.0
C362 C 0.87853 1.02328 0.6849 0.0
C363 C 0.82895 0.91826 0.71668 0.0
C364 C 0.84127 0.94804 0.72659 0.0
C365 C 0.80479 0.95775 0.73167 0.0
C366 C 0.88966 0.9641 0.7314 0.0
C367 C 0.8646 0.9977 0.74635 0.0
C368 C 0.90126 0.98868 0.74113 0.0
C369 C 0.81633 0.98227 0.74145 0.0
C370 C 0.72632 0.94208 0.69105 0.0
C371 C 0.72645 0.80991 0.68464 0.0
C372 C 0.75547 0.93364 0.65518 0.0
C373 C 0.74464 0.91226 0.64446 0.0
C374 C 0.7829 0.93692 0.63672 0.0
C375 C 0.69516 0.87083 0.64159 0.0
C376 C 0.72205 0.8808 0.62339 0.0
C377 C 0.68403 0.85518 0.63116 0.0
C378 C 0.77183 0.92134 0.62635 0.0
C379 C 0.85395 0.8862 0.67768 0.0
O380 O 0.86821 0.99642 0.69372 0.0
O381 O 0.84863 1.00444 0.67655 0.0
O382 O 0.78003 0.89195 0.71369 0.0
O383 O 0.86145 0.9402 0.70895 0.0
O384 O 0.72258 0.91674 0.69954 0.0
O385 O 0.77001 0.95583 0.68698 0.0
O386 O 0.72356 0.83993 0.6773 0.0
O387 O 0.75847 0.83052 0.69273 0.0
O388 O 0.80458 0.95819 0.65812 0.0
O389 O 0.72294 0.90598 0.66265 0.0
O390 O 0.84167 0.89203 0.66826 0.0
O391 O 0.82848 0.89819 0.68378 0.0
H392 H 0.7671 0.94585 0.72817 0.0
H393 H 0.91827 0.95661 0.72771 0.0
H394 H 0.93849 0.99924 0.7447 0.0
H395 H 0.7874 0.98913 0.74516 0.0
H396 H 0.82114 0.96958 0.63862 0.0
H397 H 0.66462 0.8513 0.64733 0.0
H398 H 0.6454 0.82352 0.62917 0.0
H399 H 0.80177 0.9427 0.62058 0.0
Gd400 Gd 0.14552 0.89816 0.69779 0.0
Gd401 Gd 0.13877 0.87707 0.67336 0.0
C402 C 0.0383 0.86964 0.68503 0.0
C403 C 0.14458 0.92868 0.71671 0.0
C404 C 0.11683 0.91207 0.72683 0.0
C405 C 0.11053 0.86779 0.73222 0.0
C406 C 0.09942 0.94358 0.73153 0.0
C407 C 0.07179 0.88834 0.74701 0.0
C408 C 0.07711 0.93187 0.74146 0.0
C409 C 0.08818 0.85602 0.74219 0.0
C410 C 0.11983 0.79906 0.69169 0.0
C411 C 0.25128 0.93134 0.68468 0.0
C412 C 0.12638 0.83162 0.65556 0.0
C413 C 0.14698 0.84064 0.64478 0.0
C414 C 0.12602 0.85914 0.63716 0.0
C415 C 0.18338 0.82574 0.64171 0.0
C416 C 0.17545 0.84542 0.62358 0.0
C417 C 0.19761 0.82829 0.63124 0.0
C418 C 0.14012 0.8616 0.62673 0.0
C419 C 0.17395 0.9803 0.67741 0.0
O420 O 0.06571 0.88757 0.69377 0.0
O421 O 0.05643 0.85695 0.67679 0.0
O422 O 0.17265 0.90789 0.71375 0.0
O423 O 0.12005 0.93599 0.70899 0.0
O424 O 0.14472 0.82124 0.70019 0.0
O425 O 0.10614 0.82864 0.68743 0.0
O426 O 0.22125 0.89752 0.67744 0.0
O427 O 0.2308 0.94335 0.69271 0.0
O428 O 0.10156 0.85614 0.65836 0.0
O429 O 0.15476 0.82817 0.66307 0.0
O430 O 0.1676 0.96123 0.66806 0.0
O431 O 0.16266 0.94353 0.68365 0.0
H432 H 0.12373 0.84279 0.72883 0.0
H433 H 0.10391 0.97801 0.72756 0.0
H434 H 0.06413 0.95715 0.7448 0.0
H435 H 0.08514 0.82243 0.74623 0.0
H436 H 0.0972 0.87014 0.63919 0.0
H437 H 0.19986 0.81079 0.64735 0.0
H438 H 0.22536 0.81604 0.62912 0.0
H439 H 0.12146 0.87409 0.62106 0.0
Gd440 Gd 0.16278 0.25966 0.69784 0.0
Gd441 Gd 0.182 0.27542 0.67334 0.0
C442 C 0.18909 0.18084 0.6846 0.0
C443 C 0.1326 0.22798 0.71673 0.0
C444 C 0.14957 0.21758 0.72685 0.0
C445 C 0.19825 0.25261 0.73131 0.0
C446 C 0.11468 0.17266 0.73242 0.0
C447 C 0.17598 0.19829 0.74693 0.0
C448 C 0.12765 0.16307 0.74232 0.0
C449 C 0.21128 0.24308 0.74126 0.0
C450 C 0.26131 0.33255 0.69155 0.0
C451 C 0.12985 0.33398 0.68529 0.0
C452 C 0.22917 0.31062 0.65582 0.0
C453 C 0.22536 0.32785 0.64526 0.0
C454 C 0.17948 0.30114 0.63929 0.0
C455 C 0.27074 0.36788 0.64064 0.0
C456 C 0.22644 0.35057 0.6239 0.0
C457 C 0.27131 0.3792 0.63008 0.0
C458 C 0.18 0.31254 0.62869 0.0
C459 C 0.07908 0.20813 0.67765 0.0
O460 O 0.1726 0.19044 0.6935 0.0
O461 O 0.20062 0.21162 0.67636 0.0
O462 O 0.15283 0.27682 0.71378 0.0
O463 O 0.12612 0.19621 0.70904 0.0
O464 O 0.24017 0.33522 0.70019 0.0
O465 O 0.23108 0.28955 0.68726 0.0
O466 O 0.16251 0.33787 0.6778 0.0
O467 O 0.11793 0.30037 0.6931 0.0
O468 O 0.19949 0.26063 0.6579 0.0
O469 O 0.23479 0.34149 0.66369 0.0
O470 O 0.09719 0.2214 0.66824 0.0
O471 O 0.11651 0.2329 0.6838 0.0
H472 H 0.22596 0.28757 0.72718 0.0
H473 H 0.07675 0.1453 0.72918 0.0
H474 H 0.09911 0.12862 0.74648 0.0
H475 H 0.24907 0.27073 0.7445 0.0
H476 H 0.14394 0.26999 0.64269 0.0
H477 H 0.30654 0.38892 0.6451 0.0
H478 H 0.30744 0.40936 0.62667 0.0
H479 H 0.14485 0.28969 0.62414 0.0
Gd480 Gd 0.80525 0.60674 0.50586 0.0
Gd481 Gd 0.81323 0.58968 0.53119 0.0
C482 C 0.9189 0.6642 0.51724 0.0
C483 C 0.79048 0.64273 0.48869 0.0
C484 C 0.80872 0.65738 0.47789 0.0
C485 C 0.82872 0.63088 0.4721 0.0
C486 C 0.80106 0.69543 0.473 0.0
C487 C 0.82852 0.67723 0.45641 0.0
C488 C 0.81086 0.70531 0.46238 0.0
C489 C 0.83872 0.64088 0.46144 0.0
C490 C 0.83582 0.53531 0.51012 0.0
C491 C 0.70639 0.51483 0.51819 0.0
C492 C 0.81889 0.55663 0.54953 0.0
C493 C 0.79397 0.54761 0.55991 0.0
C494 C 0.77954 0.58227 0.56427 0.0
C495 C 0.78415 0.50288 0.56554 0.0
C496 C 0.74606 0.5274 0.5798 0.0
C497 C 0.76049 0.49284 0.57535 0.0
C498 C 0.75601 0.57236 0.57413 0.0
C499 C 0.77681 0.65726 0.52648 0.0
O500 O 0.88973 0.664 0.50933 0.0
O501 O 0.89863 0.63604 0.52589 0.0
O502 O 0.76706 0.59267 0.49097 0.0
O503 O 0.82039 0.67332 0.49619 0.0
O504 O 0.83052 0.54838 0.5007 0.0
O505 O 0.8259 0.56223 0.51631 0.0
O506 O 0.73581 0.52 0.52643 0.0
O507 O 0.72251 0.54925 0.51048 0.0
O508 O 0.84892 0.60532 0.54649 0.0
O509 O 0.78962 0.52558 0.54205 0.0
O510 O 0.78428 0.64648 0.53588 0.0
O511 O 0.78978 0.63186 0.52062 0.0
H512 H 0.83487 0.60126 0.47573 0.0
H513 H 0.78568 0.71631 0.47733 0.0
H514 H 0.80348 0.7342 0.45878 0.0
H515 H 0.85214 0.61848 0.45705 0.0
H516 H 0.78627 0.61689 0.56006 0.0
H517 H 0.79496 0.4756 0.56235 0.0
H518 H 0.75421 0.45825 0.57951 0.0
H519 H 0.74493 0.59955 0.57725 0.0
Gd520 Gd 0.45304 0.21109 0.50584 0.0
Gd521 Gd 0.46911 0.23474 0.53118 0.0
C522 C 0.3943 0.26566 0.51726 0.0
C523 C 0.42054 0.16482 0.48811 0.0
C524 C 0.41165 0.17505 0.47722 0.0
C525 C 0.44633 0.17798 0.46942 0.0
C526 C 0.3674 0.1783 0.47433 0.0
C527 C 0.3923 0.18587 0.45604 0.0
C528 C 0.35786 0.18368 0.46385 0.0
C529 C 0.43692 0.1835 0.45899 0.0
C530 C 0.52385 0.31304 0.51036 0.0
C531 C 0.54426 0.20315 0.51827 0.0
C532 C 0.5011 0.27398 0.54954 0.0
C533 C 0.50987 0.25936 0.56007 0.0
C534 C 0.47281 0.2131 0.56504 0.0
C535 C 0.5565 0.29313 0.56531 0.0
C536 C 0.52891 0.23527 0.58043 0.0
C537 C 0.56599 0.28127 0.57534 0.0
C538 C 0.48221 0.20122 0.57511 0.0
C539 C 0.40183 0.13071 0.52634 0.0
O540 O 0.39457 0.2367 0.50936 0.0
O541 O 0.42266 0.27373 0.52588 0.0
O542 O 0.46943 0.18674 0.49117 0.0
O543 O 0.38874 0.16393 0.49537 0.0
O544 O 0.51109 0.29521 0.50091 0.0
O545 O 0.49713 0.27575 0.51643 0.0
O546 O 0.53903 0.22732 0.52652 0.0
O547 O 0.50987 0.18498 0.51054 0.0
O548 O 0.4526 0.25508 0.54637 0.0
O549 O 0.5325 0.27532 0.54219 0.0
O550 O 0.41303 0.14885 0.53576 0.0
O551 O 0.42663 0.16922 0.52047 0.0
H552 H 0.48033 0.17477 0.47137 0.0
H553 H 0.33967 0.17585 0.48013 0.0
H554 H 0.32331 0.18575 0.46186 0.0
H555 H 0.46378 0.18405 0.45319 0.0
H556 H 0.4365 0.18624 0.56118 0.0
H557 H 0.58579 0.32894 0.56164 0.0
H558 H 0.6028 0.30805 0.57904 0.0
H559 H 0.45246 0.16573 0.57878 0.0
Gd560 Gd 0.84713 0.25156 0.50604 0.0
Gd561 Gd 0.82459 0.24697 0.53135 0.0
C562 C 0.7943 0.13974 0.51799 0.0
C563 C 0.89408 0.26413 0.48846 0.0
C564 C 0.88489 0.24465 0.47763 0.0
C565 C 0.84669 0.24618 0.47134 0.0
C566 C 0.91818 0.2288 0.47321 0.0
C567 C 0.87792 0.21994 0.45622 0.0
C568 C 0.91464 0.21638 0.46263 0.0
C569 C 0.84336 0.23407 0.46074 0.0
C570 C 0.74534 0.22059 0.51055 0.0
C571 C 0.85386 0.35169 0.51796 0.0
C572 C 0.78703 0.24102 0.54981 0.0
C573 C 0.80343 0.26378 0.56042 0.0
C574 C 0.8334 0.25058 0.56693 0.0
C575 C 0.78626 0.29712 0.56435 0.0
C576 C 0.82816 0.30325 0.58109 0.0
C577 C 0.79857 0.31671 0.57451 0.0
C578 C 0.84568 0.27014 0.57712 0.0
C579 C 0.92838 0.28348 0.52646 0.0
O580 O 0.82269 0.16792 0.50995 0.0
O581 O 0.78585 0.1611 0.5264 0.0
O582 O 0.8723 0.2915 0.49136 0.0
O583 O 0.89404 0.23296 0.49576 0.0
O584 O 0.76286 0.22455 0.50109 0.0
O585 O 0.78279 0.2319 0.51663 0.0
O586 O 0.83023 0.32305 0.5263 0.0
O587 O 0.87207 0.33493 0.51032 0.0
O588 O 0.8029 0.2092 0.54643 0.0
O589 O 0.78679 0.2721 0.54254 0.0
O590 O 0.91062 0.27748 0.53589 0.0
O591 O 0.88965 0.26904 0.52063 0.0
H592 H 0.82031 0.25811 0.47452 0.0
H593 H 0.94819 0.2277 0.47787 0.0
H594 H 0.94222 0.20618 0.45939 0.0
H595 H 0.81422 0.23655 0.45604 0.0
H596 H 0.84689 0.22458 0.56422 0.0
H597 H 0.76278 0.30775 0.55957 0.0
H598 H 0.78502 0.34269 0.57719 0.0
H599 H 0.86796 0.25831 0.58196 0.0
Gd600 Gd 0.94793 0.45933 0.69575 0.0
Gd601 Gd 0.93755 0.46668 0.67265 0.0
C602 C 1.01274 0.57382 0.68479 0.0
C603 C 0.97986 0.45464 0.71427 0.0
C604 C 0.99678 0.48028 0.72455 0.0
C605 C 0.96367 0.49059 0.73074 0.0
C606 C 0.04358 0.48745 0.72886 0.0
C607 C 1.02149 0.50962 0.74566 0.0
C608 C 0.05592 0.50212 0.73928 0.0
C609 C 0.97589 0.50506 0.74118 0.0
C610 C 0.87192 0.48084 0.69061 0.0
C611 C 0.85844 0.3589 0.68457 0.0
C612 C 0.91007 0.46417 0.65332 0.0
C613 C 0.89963 0.43456 0.64338 0.0
C614 C 0.9376 0.45316 0.63547 0.0
C615 C 0.85018 0.39099 0.64123 0.0
C616 C 0.87656 0.38646 0.62341 0.0
C617 C 0.83885 0.3672 0.63139 0.0
C618 C 0.92632 0.42936 0.62565 0.0
C619 C 1.00904 0.43833 0.67868 0.0
O620 O 1.0111 0.54366 0.69259 0.0
O621 O 0.98134 0.55313 0.67666 0.0
O622 O 0.93072 0.43551 0.71175 0.0
O623 O 1.01175 0.47443 0.70634 0.0
O624 O 0.87216 0.45689 0.69902 0.0
O625 O 0.91512 0.49858 0.68594 0.0
O626 O 0.8646 0.38988 0.67662 0.0
O627 O 0.89367 0.37462 0.69206 0.0
O628 O 0.95845 0.49066 0.65658 0.0
O629 O 0.87672 0.44265 0.66094 0.0
O630 O 1.01477 0.4677 0.67076 0.0
O631 O 0.9647 0.42295 0.68254 0.0
H632 H 0.92723 0.4854 0.72765 0.0
H633 H 0.06947 0.47918 0.7243 0.0
H634 H 0.09109 0.50475 0.74248 0.0
H635 H 0.94891 0.51129 0.74583 0.0
H636 H 0.97575 0.48719 0.63678 0.0
H637 H 0.81972 0.37586 0.64708 0.0
H638 H 0.80031 0.33388 0.63002 0.0
H639 H 0.95615 0.44588 0.61969 0.0
Gd640 Gd 0.59732 0.50541 0.69585 0.0
Gd641 Gd 0.59173 0.48291 0.6705 0.0
C642 C 0.48546 0.45303 0.68403 0.0
C643 C 0.6106 0.55152 0.71359 0.0
C644 C 0.59152 0.54108 0.72449 0.0
C645 C 0.62004 0.53169 0.7321 0.0
C646 C 0.54772 0.54461 0.7276 0.0
C647 C 0.56248 0.53108 0.74573 0.0
C648 C 0.53331 0.53957 0.7381 0.0
C649 C 0.60563 0.52658 0.74256 0.0
C650 C 0.56581 0.40333 0.69133 0.0
C651 C 0.6969 0.51257 0.68369 0.0
C652 C 0.58509 0.44433 0.65209 0.0
C653 C 0.60924 0.45897 0.64162 0.0
C654 C 0.61955 0.50566 0.63666 0.0
C655 C 0.62148 0.42468 0.63639 0.0
C656 C 0.65319 0.48281 0.62133 0.0
C657 C 0.64322 0.4364 0.6264 0.0
C658 C 0.64124 0.51741 0.62663 0.0
C659 C 0.62843 0.5868 0.67552 0.0
O660 O 0.51401 0.48174 0.69201 0.0
O661 O 0.50629 0.4443 0.67558 0.0
O662 O 0.63809 0.53022 0.71049 0.0
O663 O 0.57941 0.55198 0.70635 0.0
O664 O 0.57014 0.42115 0.70077 0.0
O665 O 0.57701 0.44072 0.68521 0.0
O666 O 0.6686 0.49001 0.67525 0.0
O667 O 0.68025 0.52994 0.69148 0.0
O668 O 0.55611 0.46407 0.65519 0.0
O669 O 0.61415 0.4418 0.65952 0.0
O670 O 0.62197 0.56918 0.66606 0.0
O671 O 0.61442 0.54794 0.68129 0.0
H672 H 0.65451 0.52964 0.73001 0.0
H673 H 0.52514 0.55231 0.72196 0.0
H674 H 0.49961 0.54284 0.74025 0.0
H675 H 0.62964 0.52108 0.74822 0.0
H676 H 0.61058 0.53292 0.6405 0.0
H677 H 0.61408 0.38852 0.64005 0.0
H678 H 0.65268 0.40917 0.62271 0.0
H679 H 0.6478 0.55324 0.62297 0.0
Gd680 Gd 0.55341 0.10708 0.696 0.0
Gd681 Gd 0.57761 0.12558 0.67067 0.0
C682 C 0.60758 0.0488 0.68418 0.0
C683 C 0.50272 0.07087 0.71316 0.0
C684 C 0.50647 0.05557 0.72389 0.0
C685 C 0.5529 0.08206 0.7297 0.0
C686 C 0.46095 1.01692 0.72872 0.0
C687 C 0.50661 0.0346 0.74531 0.0
C688 C 0.46098 1.00648 0.73931 0.0
C689 C 0.55299 0.07153 0.74033 0.0
C690 C 0.65557 0.17701 0.69174 0.0
C691 C 0.54791 0.20131 0.68395 0.0
C692 C 0.61661 0.15876 0.65237 0.0
C693 C 0.60129 0.16848 0.64199 0.0
C694 C 0.552 0.13477 0.63761 0.0
C695 C 0.63708 0.21276 0.63636 0.0
C696 C 0.57492 0.18958 0.62205 0.0
C697 C 0.62411 0.22325 0.62652 0.0
C698 C 0.53903 0.14513 0.62773 0.0
C699 C 0.47368 0.05836 0.67548 0.0
O700 O 0.57903 0.04859 0.69221 0.0
O701 O 0.61597 0.07832 0.67573 0.0
O702 O 0.52988 0.12099 0.71096 0.0
O703 O 0.50133 0.04038 0.70556 0.0
O704 O 0.63749 0.16321 0.70117 0.0
O705 O 0.61837 0.15152 0.68554 0.0
O706 O 0.57066 0.19549 0.67554 0.0
O707 O 0.53062 0.16724 0.69175 0.0
O708 O 0.59707 0.10984 0.65534 0.0
O709 O 0.61889 0.18987 0.65989 0.0
O710 O 0.49156 0.0693 0.66605 0.0
O711 O 0.51231 0.08358 0.68128 0.0
H712 H 0.58853 0.11212 0.72612 0.0
H713 H 0.42476 0.99603 0.72438 0.0
H714 H 0.42485 0.97716 0.74287 0.0
H715 H 0.58872 0.09397 0.74474 0.0
H716 H 0.52349 0.10053 0.64182 0.0
H717 H 0.67537 0.23929 0.63956 0.0
H718 H 0.65305 0.25741 0.62235 0.0
H719 H 0.5006 0.11866 0.62459 0.0
Gd720 Gd 0.58892 0.12412 0.17089 0.0
Gd721 Gd 0.59747 0.1063 0.19615 0.0
C722 C 0.69614 0.1985 0.1838 0.0
C723 C 0.58017 0.15642 0.15271 0.0
C724 C 0.60133 0.16239 0.14207 0.0
C725 C 0.61527 0.12706 0.13788 0.0
C726 C 0.60816 0.20488 0.13602 0.0
C727 C 0.64201 0.17658 0.12162 0.0
C728 C 0.62829 0.21198 0.12594 0.0
C729 C 0.63534 0.13405 0.12775 0.0
C730 C 0.62461 0.05585 0.1753 0.0
C731 C 0.4836 0.04962 0.18496 0.0
C732 C 0.6126 0.0699 0.21322 0.0
C733 C 0.59453 0.05565 0.22402 0.0
C734 C 0.57494 0.08261 0.22977 0.0
C735 C 0.60167 1.01733 0.22893 0.0
C736 C 0.57454 0.03618 0.24548 0.0
C737 C 0.59176 1.00762 0.23954 0.0
C738 C 0.56487 0.07282 0.24043 0.0
C739 C 0.56753 0.17825 0.19199 0.0
O740 O 0.66644 0.19388 0.17564 0.0
O741 O 0.68017 0.16357 0.19143 0.0
O742 O 0.54893 0.10858 0.15607 0.0
O743 O 0.61299 0.18735 0.15981 0.0
O744 O 0.61771 0.06764 0.16594 0.0
O745 O 0.61145 0.08064 0.18128 0.0
O746 O 0.51274 0.04954 0.19284 0.0
O747 O 0.50385 0.07795 0.17634 0.0
O748 O 0.63665 0.11996 0.21092 0.0
O749 O 0.58198 0.03952 0.20577 0.0
O750 O 0.57268 0.16503 0.20142 0.0
O751 O 0.5773 0.1513 0.18583 0.0
H752 H 0.61059 0.09408 0.14243 0.0
H753 H 0.59805 0.23284 0.13913 0.0
H754 H 0.63377 0.24574 0.12157 0.0
H755 H 0.64501 0.10574 0.12469 0.0
H756 H 0.56915 0.11241 0.22611 0.0
H757 H 0.61668 0.99607 0.22462 0.0
H758 H 0.59871 0.9785 0.24316 0.0
H759 H 0.5518 0.09557 0.24479 0.0
Gd760 Gd 0.93622 0.47521 0.1704 0.0
Gd761 Gd 0.95374 0.50079 0.19567 0.0
C762 C 0.862 0.5078 0.18337 0.0
C763 C 0.90433 0.43502 0.15211 0.0
C764 C 0.89813 0.4504 0.14148 0.0
C765 C 0.93366 0.4995 0.13726 0.0
C766 C 0.85546 0.41491 0.13544 0.0
C767 C 0.88406 0.47679 0.12099 0.0
C768 C 0.84843 0.42788 0.12533 0.0
C769 C 0.92673 0.51253 0.12712 0.0
C770 C 1.00385 0.57941 0.17497 0.0
C771 C 1.01139 0.44488 0.18438 0.0
C772 C 0.98947 0.55123 0.21288 0.0
C773 C 1.00255 0.54572 0.22367 0.0
C774 C 0.97625 0.49778 0.22899 0.0
C775 C 0.03913 0.59066 0.22901 0.0
C776 C 1.01986 0.54115 0.24512 0.0
C777 C 0.04776 0.58845 0.23962 0.0
C778 C 0.98498 0.49548 0.23965 0.0
C779 C 0.8817 0.39881 0.19144 0.0
O780 O 0.86625 0.48236 0.17523 0.0
O781 O 0.89737 0.52722 0.19091 0.0
O782 O 0.95216 0.45188 0.15549 0.0
O783 O 0.87319 0.43613 0.15925 0.0
O784 O 0.99206 0.56091 0.16558 0.0
O785 O 0.97946 0.54113 0.18089 0.0
O786 O 1.01126 0.47406 0.19225 0.0
O787 O 0.98283 0.43646 0.17578 0.0
O788 O 0.93964 0.5261 0.21042 0.0
O789 O 1.02004 0.55096 0.20549 0.0
O790 O 0.89502 0.41724 0.20086 0.0
O791 O 0.90871 0.43551 0.18527 0.0
H792 H 0.96684 0.52769 0.14179 0.0
H793 H 0.82736 0.37695 0.13856 0.0
H794 H 0.81457 0.39969 0.12097 0.0
H795 H 0.95524 0.55035 0.12403 0.0
H796 H 0.9478 0.46259 0.22499 0.0
H797 H 0.05988 0.62796 0.22502 0.0
H798 H 0.07556 0.6241 0.24357 0.0
H799 H 0.96282 0.45853 0.24368 0.0
Gd800 Gd 0.58366 0.46925 0.17109 0.0
Gd801 Gd 0.5605 0.46158 0.19644 0.0
C802 C 0.55106 0.36224 0.18397 0.0
C803 C 0.62285 0.47751 0.15271 0.0
C804 C 0.60725 0.45619 0.14207 0.0
C805 C 0.55635 0.43769 0.13828 0.0
C806 C 0.64432 0.45405 0.1356 0.0
C807 C 0.58027 0.4158 0.12157 0.0
C808 C 0.63107 0.43411 0.12548 0.0
C809 C 0.543 0.41774 0.12813 0.0
C810 C 0.48022 0.43358 0.17597 0.0
C811 C 0.61505 0.57487 0.18515 0.0
C812 C 0.5143 0.44778 0.21414 0.0
C813 C 0.52431 0.46698 0.22502 0.0
C814 C 0.53106 0.43718 0.23274 0.0
C815 C 0.52308 0.51227 0.22799 0.0
C816 C 0.5335 0.49639 0.24621 0.0
C817 C 0.5277 0.52684 0.23848 0.0
C818 C 0.53578 0.45177 0.24319 0.0
C819 C 0.66193 0.49126 0.19179 0.0
O820 O 0.57607 0.39175 0.1758 0.0
O821 O 0.53245 0.37855 0.19159 0.0
O822 O 0.60602 0.50841 0.15616 0.0
O823 O 0.62181 0.44503 0.15978 0.0
O824 O 0.49799 0.44024 0.16653 0.0
O825 O 0.51873 0.44701 0.18181 0.0
O826 O 0.58621 0.54566 0.19304 0.0
O827 O 0.62299 0.5546 0.17651 0.0
O828 O 0.53638 0.42089 0.21109 0.0
O829 O 0.51332 0.47868 0.20688 0.0
O830 O 0.64455 0.48641 0.20127 0.0
O831 O 0.62458 0.48133 0.1858 0.0
H832 H 0.52699 0.43877 0.14316 0.0
H833 H 0.68372 0.46774 0.13838 0.0
H834 H 0.66058 0.43239 0.12078 0.0
H835 H 0.50366 0.40447 0.12538 0.0
H836 H 0.5313 0.4016 0.23074 0.0
H837 H 0.51752 0.53591 0.22225 0.0
H838 H 0.52615 0.56165 0.24053 0.0
H839 H 0.53918 0.42681 0.24893 0.0
Gd840 Gd 0.46564 0.2467 0.03086 0.0
Gd841 Gd 0.45345 0.25505 1.00765 0.0
C842 C 0.54305 0.35497 0.01891 0.0
C843 C 0.49526 0.24845 0.04998 0.0
C844 C 0.50745 0.27857 0.05985 0.0
C845 C 0.46911 0.28359 0.0654 0.0
C846 C 0.55754 0.29927 0.06423 0.0
C847 C 0.5305 0.32804 0.07965 0.0
C848 C 0.56899 0.3238 0.07398 0.0
C849 C 0.48052 0.30801 0.07518 0.0
C850 C 0.39361 0.27449 0.02522 0.0
C851 C 0.38981 0.14053 0.01851 0.0
C852 C 0.42011 0.26039 0.9893 0.0
C853 C 0.40295 0.23483 0.97904 0.0
C854 C 0.43145 0.21586 0.97363 0.0
C855 C 0.36148 0.23603 0.97399 0.0
C856 C 0.38049 0.20485 0.95793 0.0
C857 C 0.35025 0.22112 0.96356 0.0
C858 C 0.42034 0.20107 0.96317 0.0
C859 C 0.53028 0.2343 1.01247 0.0
O860 O 0.53735 0.32421 0.02686 0.0
O861 O 0.50772 0.33945 1.01144 0.0
O862 O 0.44648 0.22247 0.04693 0.0
O863 O 0.52793 0.26983 0.04224 0.0
O864 O 0.38881 0.2459 0.03322 0.0
O865 O 0.4375 0.28991 0.02116 0.0
O866 O 0.3908 0.17087 1.01082 0.0
O867 O 0.42168 0.16075 0.02659 0.0
O868 O 0.46946 0.27973 0.99167 0.0
O869 O 0.38876 0.23992 0.99729 0.0
O870 O 0.52918 0.25807 1.00409 0.0
O871 O 0.48724 0.21606 1.01721 0.0
H872 H 0.43004 0.26799 0.06227 0.0
H873 H 0.58766 0.2954 0.06021 0.0
H874 H 0.60768 0.33803 0.0772 0.0
H875 H 0.45009 0.31111 0.07925 0.0
H876 H 0.46365 0.21445 0.97734 0.0
H877 H 0.33931 0.25099 0.97798 0.0
H878 H 0.31967 0.22509 0.95977 0.0
H879 H 0.44386 0.18797 0.95911 0.0
Gd880 Gd 0.81284 0.23148 0.03155 0.0
Gd881 Gd 0.80846 0.21183 1.0071 0.0
C882 C 0.70766 0.20548 0.01851 0.0
C883 C 0.81134 0.26163 0.05044 0.0
C884 C 0.78192 0.24416 0.06035 0.0
C885 C 0.77166 0.19745 0.06529 0.0
C886 C 0.76626 0.27665 0.06524 0.0
C887 C 0.73173 0.21696 0.07999 0.0
C888 C 0.74139 0.26322 0.07492 0.0
C889 C 0.74691 0.18406 0.07502 0.0
C890 C 0.78725 0.13285 0.02531 0.0
C891 C 0.91887 0.26221 0.01898 0.0
C892 C 0.79647 0.16678 0.98927 0.0
C893 C 0.81758 0.17578 0.97853 0.0
C894 C 0.7998 0.1978 0.971 0.0
C895 C 0.85102 0.15723 0.97542 0.0
C896 C 0.84603 0.17992 0.95737 0.0
C897 C 0.86528 0.15949 0.96496 0.0
C898 C 0.81388 0.1999 0.96057 0.0
C899 C 0.84526 0.31525 1.0113 0.0
O900 O 0.73352 0.22098 0.02744 0.0
O901 O 0.72657 0.19413 1.01021 0.0
O902 O 0.83864 0.23987 0.04757 0.0
O903 O 0.78829 0.27044 0.04265 0.0
O904 O 0.81139 0.15433 0.03391 0.0
O905 O 0.77403 0.16274 0.02102 0.0
O906 O 0.88942 0.22901 1.01162 0.0
O907 O 0.89805 0.27548 0.02674 0.0
O908 O 0.77197 0.19166 0.99203 0.0
O909 O 0.8243 0.16281 0.99683 0.0
O910 O 0.84001 0.29669 1.00193 0.0
O911 O 0.8324 0.27796 1.0175 0.0
H912 H 0.78321 0.17154 0.06171 0.0
H913 H 0.77413 0.31308 0.06163 0.0
H914 H 0.73098 0.28988 0.07856 0.0
H915 H 0.73957 0.14787 0.07864 0.0
H916 H 0.77336 0.2118 0.97306 0.0
H917 H 0.86498 0.13956 0.98101 0.0
H918 H 0.89062 0.14431 0.96281 0.0
H919 H 0.79753 0.2151 0.95495 0.0
Gd920 Gd 0.82898 0.59276 0.03048 0.0
Gd921 Gd 0.84817 0.60448 1.0073 0.0
C922 C 0.86053 0.51573 0.01846 0.0
C923 C 0.80162 0.56306 0.04961 0.0
C924 C 0.81915 0.55011 0.05942 0.0
C925 C 0.86562 0.58629 0.06449 0.0
C926 C 0.78656 0.5017 0.06421 0.0
C927 C 0.84547 0.52628 0.07912 0.0
C928 C 0.79956 0.48985 0.07391 0.0
C929 C 0.87858 0.5745 0.07423 0.0
C930 C 0.92856 0.66513 0.02473 0.0
C931 C 0.79791 0.66856 0.01831 0.0
C932 C 0.8854 0.63742 0.98888 0.0
C933 C 0.87611 0.65414 0.97865 0.0
C934 C 0.83218 0.62098 0.97257 0.0
C935 C 0.91553 0.70089 0.97429 0.0
C936 C 0.8701 0.67858 0.95762 0.0
C937 C 0.91253 0.7131 0.9639 0.0
C938 C 0.82927 0.63308 0.96216 0.0
C939 C 0.75061 0.52807 1.01231 0.0
O940 O 0.83514 0.52106 0.02641 0.0
O941 O 0.87959 0.55112 1.011 0.0
O942 O 0.82531 0.61199 0.04662 0.0
O943 O 0.78958 0.53038 0.04184 0.0
O944 O 0.90496 0.66992 0.03276 0.0
O945 O 0.9 0.62108 0.02068 0.0
O946 O 0.82685 0.6674 1.01056 0.0
O947 O 0.78682 0.63685 0.0264 0.0
O948 O 0.85619 0.588 0.99132 0.0
O949 O 0.89659 0.66904 0.99685 0.0
O950 O 0.77485 0.52853 1.00388 0.0
O951 O 0.77608 0.57125 1.01699 0.0
H952 H 0.8916 0.62399 0.06101 0.0
H953 H 0.75025 0.47333 0.06054 0.0
H954 H 0.77271 0.45265 0.07747 0.0
H955 H 0.91455 0.60324 0.07794 0.0
H956 H 0.80107 0.58462 0.97572 0.0
H957 H 0.95002 0.7268 0.97877 0.0
H958 H 0.94493 0.7482 0.96064 0.0
H959 H 0.79572 0.60605 0.95758 0.0
Gd960 Gd 0.47494 0.9407 0.83969 0.0
Gd961 Gd 0.48416 0.92427 0.865 0.0
C962 C 0.58902 0.99877 0.8508 0.0
C963 C 0.45895 0.97587 0.82255 0.0
C964 C 0.4767 0.99033 0.81172 0.0
C965 C 0.49587 0.96335 0.80585 0.0
C966 C 0.46949 0.02884 0.80691 0.0
C967 C 0.49574 1.01017 0.79022 0.0
C968 C 0.47892 0.03871 0.79628 0.0
C969 C 0.50548 0.97332 0.79518 0.0
C970 C 0.50589 0.8695 0.84393 0.0
C971 C 0.3766 0.8493 0.85227 0.0
C972 C 0.49271 0.89285 0.88331 0.0
C973 C 0.47085 0.88632 0.89394 0.0
C974 C 0.45788 0.92214 0.89825 0.0
C975 C 0.4629 0.8431 0.89988 0.0
C976 C 0.42996 0.87169 0.91442 0.0
C977 C 0.44269 0.8358 0.90998 0.0
C978 C 0.43772 0.91493 0.90839 0.0
C979 C 0.44749 0.9917 0.8604 0.0
O980 O 0.5595 0.9983 0.84295 0.0
O981 O 0.56918 0.97073 0.85947 0.0
O982 O 0.43592 0.92589 0.82488 0.0
O983 O 0.4891 1.00681 0.82999 0.0
O984 O 0.50028 0.88233 0.8345 0.0
O985 O 0.49595 0.89639 0.8501 0.0
O986 O 0.40653 0.85426 0.86041 0.0
O987 O 0.39244 0.88377 0.84456 0.0
O988 O 0.52322 0.94084 0.87995 0.0
O989 O 0.4609 0.86134 0.87615 0.0
O990 O 0.45514 0.98085 0.86979 0.0
O991 O 0.46057 0.96657 0.8545 0.0
H992 H 0.50169 0.93339 0.80942 0.0
H993 H 0.45477 0.05011 0.8113 0.0
H994 H 0.47192 0.06798 0.79274 0.0
H995 H 0.51824 0.95057 0.79073 0.0
H996 H 0.46348 0.95576 0.89382 0.0
H997 H 0.47232 0.81478 0.8967 0.0
H998 H 0.43644 0.80152 0.91426 0.0
H999 H 0.42892 0.9437 0.91154 0.0
Gd1000 Gd 0.12029 0.54763 0.83998 0.0
Gd1001 Gd 0.13564 0.57075 0.86534 0.0
C1002 C 0.06089 0.60137 0.85135 0.0
C1003 C 0.08861 0.50142 0.82221 0.0
C1004 C 0.08031 0.51155 0.81128 0.0
C1005 C 0.11493 0.51353 0.80356 0.0
C1006 C 0.03666 0.5156 0.80827 0.0
C1007 C 0.06199 0.52208 0.79002 0.0
C1008 C 1.02763 0.52083 0.79775 0.0
C1009 C 0.10603 0.51891 0.79309 0.0
C1010 C 0.19121 0.64942 0.8446 0.0
C1011 C 0.21184 0.54083 0.85245 0.0
C1012 C 0.16562 0.60965 0.88378 0.0
C1013 C 0.17168 0.59389 0.89439 0.0
C1014 C 0.13647 0.54441 0.8985 0.0
C1015 C 0.21381 0.6295 0.90053 0.0
C1016 C 0.18527 0.56698 0.91488 0.0
C1017 C 0.22061 0.61627 0.91063 0.0
C1018 C 0.14317 0.53111 0.90864 0.0
C1019 C 0.06879 0.46688 0.86042 0.0
O1020 O 0.06139 0.57257 0.84344 0.0
O1021 O 0.08921 0.60956 0.85997 0.0
O1022 O 0.13732 0.52323 0.82538 0.0
O1023 O 0.0565 0.50069 0.82938 0.0
O1024 O 0.17852 0.63181 0.83513 0.0
O1025 O 0.16412 0.6121 0.85064 0.0
O1026 O 0.20622 0.5644 0.86075 0.0
O1027 O 0.17742 0.52217 0.84473 0.0
O1028 O 0.11783 0.59196 0.8803 0.0
O1029 O 0.1977 0.61004 0.87669 0.0
O1030 O 0.07982 0.48478 0.86985 0.0
O1031 O 0.09349 0.5055 0.85458 0.0
H1032 H 0.14846 0.5097 0.80561 0.0
H1033 H 1.009 0.51389 0.814 0.0
H1034 H 0.99353 0.52354 0.79566 0.0
H1035 H 0.1328 0.51872 0.78736 0.0
H1036 H 0.1037 0.51613 0.8939 0.0
H1037 H 0.24166 0.66776 0.8975 0.0
H1038 H 0.25405 0.64458 0.91507 0.0
H1039 H 0.1149 0.49299 0.91164 0.0
Gd1040 Gd 0.51391 0.58716 0.84007 0.0
Gd1041 Gd 0.49089 0.57979 0.86459 0.0
C1042 C 0.46179 0.47262 0.85149 0.0
C1043 C 0.55568 0.59299 0.82208 0.0
C1044 C 0.5453 0.57037 0.8115 0.0
C1045 C 0.50452 0.56743 0.80534 0.0
C1046 C 0.5807 0.55743 0.80703 0.0
C1047 C 0.53779 0.54359 0.79019 0.0
C1048 C 0.57693 0.54402 0.79651 0.0
C1049 C 0.50089 0.55426 0.79479 0.0
C1050 C 0.41733 0.56879 0.84515 0.0
C1051 C 0.52466 0.68669 0.85197 0.0
C1052 C 0.45286 0.57374 0.88301 0.0
C1053 C 0.46892 0.59832 0.89342 0.0
C1054 C 0.51783 0.61203 0.89776 0.0
C1055 C 0.43395 0.60737 0.8992 0.0
C1056 C 0.49595 0.64272 0.91363 0.0
C1057 C 0.44725 0.62932 0.90917 0.0
C1058 C 0.53113 0.63385 0.90777 0.0
C1059 C 0.59586 0.61963 0.86031 0.0
O1060 O 0.48457 0.50112 0.84307 0.0
O1061 O 0.45688 0.49373 0.86029 0.0
O1062 O 0.53323 0.62001 0.82468 0.0
O1063 O 0.55832 0.56516 0.82976 0.0
O1064 O 0.44023 0.58851 0.83633 0.0
O1065 O 0.44341 0.55271 0.85015 0.0
O1066 O 0.4957 0.65551 0.8596 0.0
O1067 O 0.54674 0.67115 0.84493 0.0
O1068 O 0.47209 0.54439 0.87988 0.0
O1069 O 0.45021 0.60276 0.87558 0.0
O1070 O 0.57661 0.61123 0.86962 0.0
O1071 O 0.55796 0.6056 0.8543 0.0
H1072 H 0.47652 0.57709 0.80857 0.0
H1073 H 0.61273 0.55988 0.81159 0.0
H1074 H 0.60633 0.53657 0.79321 0.0
H1075 H 0.46986 0.55358 0.79018 0.0
H1076 H 0.54572 0.60576 0.89344 0.0
H1077 H 0.39596 0.59699 0.89603 0.0
H1078 H 0.41885 0.63487 0.91347 0.0
H1079 H 0.5692 0.64426 0.91088 0.0
Gd1080 Gd 0.61761 0.79443 0.02842 0.0
Gd1081 Gd 0.6075 0.8025 1.00522 0.0
C1082 C 0.68299 0.90888 1.01756 0.0
C1083 C 0.64888 0.78971 0.04701 0.0
C1084 C 0.66327 0.81521 0.05736 0.0
C1085 C 0.62639 0.81941 0.0636 0.0
C1086 C 0.71215 0.82876 0.06165 0.0
C1087 C 0.68524 0.8452 0.0785 0.0
C1088 C 0.72315 0.84382 0.07209 0.0
C1089 C 0.63725 0.83416 0.07406 0.0
C1090 C 0.54194 0.81641 0.02328 0.0
C1091 C 0.52875 0.69421 1.01705 0.0
C1092 C 0.57959 0.80189 0.98601 0.0
C1093 C 0.56667 0.77297 0.97599 0.0
C1094 C 0.60257 0.76294 0.97075 0.0
C1095 C 0.51883 0.75905 0.97114 0.0
C1096 C 0.54368 0.72773 0.95579 0.0
C1097 C 0.5074 0.73665 0.9612 0.0
C1098 C 0.59114 0.74049 0.96077 0.0
C1099 C 0.67903 0.77429 1.01124 0.0
O1100 O 0.68123 0.87841 0.0253 0.0
O1101 O 0.65167 0.88866 1.00941 0.0
O1102 O 0.59977 0.76797 0.04427 0.0
O1103 O 0.68128 0.81158 0.03923 0.0
O1104 O 0.54223 0.79275 0.03173 0.0
O1105 O 0.58513 0.83392 0.01862 0.0
O1106 O 0.53521 0.7249 1.00903 0.0
O1107 O 0.56352 0.70994 0.02463 0.0
O1108 O 0.62824 0.82583 0.98915 0.0
O1109 O 0.54628 0.78097 0.99365 0.0
O1110 O 0.68452 0.80318 1.00324 0.0
O1111 O 0.63472 0.75893 1.01512 0.0
H1112 H 0.58826 0.80925 0.06055 0.0
H1113 H 0.74104 0.82531 0.05706 0.0
H1114 H 0.76032 0.8516 0.07528 0.0
H1115 H 0.6075 0.83554 0.07874 0.0
H1116 H 0.63995 0.77348 0.97424 0.0
H1117 H 0.49055 0.76656 0.97497 0.0
H1118 H 0.47008 0.72653 0.95774 0.0
H1119 H 0.62025 0.73466 0.95684 0.0
Gd1120 Gd 0.26667 0.83647 0.02822 0.0
Gd1121 Gd 0.25851 0.81735 1.00495 0.0
C1122 C 0.15229 0.78638 1.0173 0.0
C1123 C 0.27172 0.87305 0.04679 0.0
C1124 C 0.24684 0.86194 0.05722 0.0
C1125 C 0.262 0.83819 0.06489 0.0
C1126 C 0.21347 0.88103 0.06005 0.0
C1127 C 0.21402 0.85609 0.07815 0.0
C1128 C 0.19704 0.87792 0.07038 0.0
C1129 C 0.24578 0.83525 0.0752 0.0
C1130 C 0.24523 0.73887 0.02318 0.0
C1131 C 0.36691 0.84812 1.01685 0.0
C1132 C 0.26026 0.79033 0.98576 0.0
C1133 C 0.29091 0.8075 0.97595 0.0
C1134 C 0.30223 0.85434 0.97091 0.0
C1135 C 0.3058 0.77421 0.97113 0.0
C1136 C 0.34124 0.83319 0.95626 0.0
C1137 C 0.33072 0.78688 0.96144 0.0
C1138 C 0.32707 0.86699 0.96118 0.0
C1139 C 0.2858 0.91682 1.01093 0.0
O1140 O 0.18261 0.81546 0.02503 0.0
O1141 O 0.17257 0.7752 1.00916 0.0
O1142 O 0.29393 0.8461 0.04404 0.0
O1143 O 0.24924 0.88284 0.039 0.0
O1144 O 0.26868 0.76303 0.03164 0.0
O1145 O 0.22761 0.76428 0.01846 0.0
O1146 O 0.33627 0.82345 1.00885 0.0
O1147 O 0.35108 0.86723 0.0244 0.0
O1148 O 0.23618 0.81507 0.98881 0.0
O1149 O 0.28 0.77711 0.99349 0.0
O1150 O 0.25716 0.8934 1.0029 0.0
O1151 O 0.30145 0.88816 1.01483 0.0
H1152 H 0.28838 0.82381 0.06306 0.0
H1153 H 0.20149 0.90004 0.05436 0.0
H1154 H 0.17201 0.89375 0.07233 0.0
H1155 H 0.26046 0.81896 0.08094 0.0
H1156 H 0.29125 0.88088 0.97441 0.0
H1157 H 0.29705 0.73759 0.97477 0.0
H1158 H 0.34031 0.75949 0.95786 0.0
H1159 H 0.33511 0.90329 0.95751 0.0
Gd1160 Gd 0.22429 0.44314 0.02872 0.0
Gd1161 Gd 0.24207 0.4527 1.00547 0.0
C1162 C 0.27333 0.37782 0.01785 0.0
C1163 C 0.18682 0.41122 0.04718 0.0
C1164 C 0.19405 0.39282 0.0574 0.0
C1165 C 0.24125 0.42005 0.06296 0.0
C1166 C 0.15053 0.3515 0.06228 0.0
C1167 C 0.19946 0.36818 0.07846 0.0
C1168 C 0.15317 0.3392 0.07268 0.0
C1169 C 0.2439 0.40784 0.07339 0.0
C1170 C 0.32162 0.51913 0.02348 0.0
C1171 C 0.21268 0.53161 1.01727 0.0
C1172 C 0.26776 0.48005 0.98619 0.0
C1173 C 0.24992 0.49303 0.97641 0.0
C1174 C 0.20397 0.45642 0.97125 0.0
C1175 C 0.28182 0.5419 0.97172 0.0
C1176 C 0.22332 0.51692 0.95674 0.0
C1177 C 0.26869 0.55378 0.96204 0.0
C1178 C 0.19087 0.46823 0.96153 0.0
C1179 C 0.14277 0.38155 1.01164 0.0
O1180 O 0.24509 0.37985 0.02564 0.0
O1181 O 0.28405 0.40875 1.00966 0.0
O1182 O 0.2188 0.46023 0.0448 0.0
O1183 O 0.17366 0.37954 0.03918 0.0
O1184 O 0.2977 0.51906 0.03193 0.0
O1185 O 0.29604 0.47567 0.01886 0.0
O1186 O 0.23648 0.52481 1.00923 0.0
O1187 O 0.19428 0.49745 0.02496 0.0
O1188 O 0.24308 0.43141 0.98936 0.0
O1189 O 0.28176 0.51358 0.99385 0.0
O1190 O 0.16585 0.37532 1.00367 0.0
O1191 O 0.17187 0.4261 1.01542 0.0
H1192 H 0.2755 0.45213 0.05938 0.0
H1193 H 0.11358 0.33031 0.05819 0.0
H1194 H 0.11801 0.30882 0.07634 0.0
H1195 H 0.28039 0.4304 0.07755 0.0
H1196 H 0.17852 0.41832 0.97463 0.0
H1197 H 0.31777 0.57064 0.97545 0.0
H1198 H 0.29506 0.59136 0.95856 0.0
H1199 H 0.15531 0.43913 0.95775 0.0
Gd1200 Gd 0.25808 0.45698 0.50409 0.0
Gd1201 Gd 0.26529 0.44015 0.52943 0.0
C1202 C 0.36522 0.53084 0.5171 0.0
C1203 C 0.25345 0.48992 0.48568 0.0
C1204 C 0.2793 0.4993 0.47532 0.0
C1205 C 0.26389 0.45876 0.46799 0.0
C1206 C 0.31794 0.5502 0.47246 0.0
C1207 C 0.32503 0.52001 0.45516 0.0
C1208 C 0.34061 0.56037 0.46255 0.0
C1209 C 0.28655 0.46895 0.45805 0.0
C1210 C 0.29391 0.38902 0.50889 0.0
C1211 C 0.1519 0.38295 0.51797 0.0
C1212 C 0.27942 0.40451 0.5467 0.0
C1213 C 0.2609 0.39076 0.55748 0.0
C1214 C 0.24078 0.41777 0.56306 0.0
C1215 C 0.26833 0.35305 0.56259 0.0
C1216 C 0.24051 0.37271 0.57897 0.0
C1217 C 0.25823 0.34406 0.57321 0.0
C1218 C 0.23049 0.40868 0.57373 0.0
C1219 C 0.23535 0.51195 0.52501 0.0
O1220 O 0.33614 0.52602 0.50883 0.0
O1221 O 0.34836 0.49661 0.52486 0.0
O1222 O 0.22305 0.44125 0.4887 0.0
O1223 O 0.28153 0.52099 0.49328 0.0
O1224 O 0.28686 0.40006 0.49948 0.0
O1225 O 0.28072 0.4143 0.51474 0.0
O1226 O 0.18088 0.38303 0.5259 0.0
O1227 O 0.17244 0.41099 0.50932 0.0
O1228 O 0.30355 0.45447 0.54431 0.0
O1229 O 0.24923 0.37378 0.53923 0.0
O1230 O 0.24009 0.49879 0.53446 0.0
O1231 O 0.24563 0.48509 0.5189 0.0
H1232 H 0.23376 0.41919 0.46985 0.0
H1233 H 0.33045 0.58252 0.47786 0.0
H1234 H 0.37056 0.60003 0.4607 0.0
H1235 H 0.27294 0.43695 0.45255 0.0
H1236 H 0.2348 0.44712 0.55926 0.0
H1237 H 0.28376 0.33177 0.55842 0.0
H1238 H 0.26546 0.31545 0.57698 0.0
H1239 H 0.21701 0.43146 0.57796 0.0
Gd1240 Gd 0.60514 0.81493 0.50494 0.0
Gd1241 Gd 0.61787 0.83342 0.52936 0.0
C1242 C 0.52527 0.84156 0.51769 0.0
C1243 C 0.57475 0.78597 0.48592 0.0
C1244 C 0.56281 0.80293 0.47592 0.0
C1245 C 0.60118 0.84569 0.47025 0.0
C1246 C 0.51269 0.77305 0.47159 0.0
C1247 C 0.53979 0.82684 0.45592 0.0
C1248 C 0.50125 0.78489 0.46175 0.0
C1249 C 0.58975 0.85754 0.46037 0.0
C1250 C 0.67743 0.91383 0.5114 0.0
C1251 C 0.67807 0.78173 0.51783 0.0
C1252 C 0.65026 0.87706 0.54729 0.0
C1253 C 0.66197 0.86652 0.5579 0.0
C1254 C 0.6231 0.82697 0.56412 0.0
C1255 C 0.7112 0.90005 0.56228 0.0
C1256 C 0.68126 0.85761 0.57912 0.0
C1257 C 0.72086 0.89552 0.57277 0.0
C1258 C 0.63264 0.82269 0.57462 0.0
C1259 C 0.55081 0.73034 0.52492 0.0
O1260 O 0.53551 0.8248 0.50889 0.0
O1261 O 0.55548 0.85337 0.52601 0.0
O1262 O 0.62365 0.80795 0.48891 0.0
O1263 O 0.54246 0.77662 0.49364 0.0
O1264 O 0.68104 0.89223 0.5029 0.0
O1265 O 0.63396 0.88364 0.51553 0.0
O1266 O 0.68095 0.81458 0.5252 0.0
O1267 O 0.64582 0.77003 0.50978 0.0
O1268 O 0.60097 0.85257 0.54446 0.0
O1269 O 0.68243 0.88174 0.53976 0.0
O1270 O 0.5629 0.74856 0.53434 0.0
O1271 O 0.57637 0.7678 0.51883 0.0
H1272 H 0.64031 0.86937 0.47334 0.0
H1273 H 0.48244 0.73973 0.47576 0.0
H1274 H 0.4621 0.7609 0.45869 0.0
H1275 H 0.62058 0.88985 0.45609 0.0
H1276 H 0.58473 0.80035 0.56098 0.0
H1277 H 0.74164 0.93109 0.55768 0.0
H1278 H 0.75857 0.92336 0.57601 0.0
H1279 H 0.60157 0.7927 0.57929 0.0
Gd1280 Gd 0.24619 0.80066 0.50399 0.0
Gd1281 Gd 0.22225 0.79322 0.5293 0.0
C1282 C 0.2153 0.69425 0.51702 0.0
C1283 C 0.28413 0.80723 0.48554 0.0
C1284 C 0.2678 0.78464 0.47491 0.0
C1285 C 0.23816 0.79819 0.46838 0.0
C1286 C 0.28457 0.75095 0.471 0.0
C1287 C 0.24272 0.74496 0.45426 0.0
C1288 C 0.27209 0.73125 0.46085 0.0
C1289 C 0.22571 0.77853 0.4582 0.0
C1290 C 0.14235 0.76453 0.50877 0.0
C1291 C 0.27802 0.90673 0.5179 0.0
C1292 C 0.17533 0.78016 0.54689 0.0
C1293 C 0.18545 0.79929 0.55776 0.0
C1294 C 0.22091 0.79332 0.56412 0.0
C1295 C 0.15581 0.81967 0.56213 0.0
C1296 C 0.19424 0.82455 0.57917 0.0
C1297 C 0.16029 0.83239 0.57271 0.0
C1298 C 0.22513 0.8057 0.57471 0.0
C1299 C 0.32389 0.82351 0.5249 0.0
O1300 O 0.23972 0.72376 0.50881 0.0
O1301 O 0.19633 0.71022 0.52464 0.0
O1302 O 0.26826 0.83899 0.48896 0.0
O1303 O 0.28428 0.77598 0.49278 0.0
O1304 O 0.16043 0.77125 0.49936 0.0
O1305 O 0.1808 0.77815 0.51463 0.0
O1306 O 0.24881 0.87759 0.52577 0.0
O1307 O 0.28591 0.88624 0.50929 0.0
O1308 O 0.19599 0.752 0.54383 0.0
O1309 O 0.17593 0.81207 0.53969 0.0
O1310 O 0.30591 0.81853 0.53434 0.0
O1311 O 0.2869 0.81325 0.51877 0.0
H1312 H 0.22501 0.82448 0.47108 0.0
H1313 H 0.3078 0.74005 0.47579 0.0
H1314 H 0.28526 0.70494 0.45819 0.0
H1315 H 0.20364 0.79057 0.45335 0.0
H1316 H 0.24447 0.77782 0.56099 0.0
H1317 H 0.1279 0.82423 0.55743 0.0
H1318 H 0.13553 0.8463 0.57591 0.0
H1319 H 0.25208 0.7998 0.57945 0.0
Gd1320 Gd 0.13073 0.57885 0.36291 0.0
Gd1321 Gd 0.12287 0.58793 0.3398 0.0
C1322 C 0.21071 0.68786 0.35127 0.0
C1323 C 0.15703 0.58063 0.3823 0.0
C1324 C 0.16821 0.61074 0.3922 0.0
C1325 C 0.13047 0.593 0.40014 0.0
C1326 C 0.21803 0.65394 0.39427 0.0
C1327 C 0.19242 0.65982 0.41208 0.0
C1328 C 0.22991 0.67821 0.40406 0.0
C1329 C 0.14231 0.61728 0.40992 0.0
C1330 C 0.06038 0.6083 0.35671 0.0
C1331 C 0.05687 0.47244 0.35027 0.0
C1332 C 0.09202 0.5944 0.32132 0.0
C1333 C 0.07155 0.56994 0.31109 0.0
C1334 C 0.09812 0.55166 0.30482 0.0
C1335 C 1.02911 0.57256 0.30688 0.0
C1336 C 0.04427 0.5457 0.28994 0.0
C1337 C 1.01553 0.56049 0.29643 0.0
C1338 C 0.08446 0.53947 0.29434 0.0
C1339 C 0.19844 0.56627 0.34531 0.0
O1340 O 0.20389 0.65653 0.35921 0.0
O1341 O 0.17636 0.67226 0.34364 0.0
O1342 O 0.10869 0.55552 0.37898 0.0
O1343 O 0.19079 0.60101 0.37471 0.0
O1344 O 0.05365 0.57823 0.36456 0.0
O1345 O 0.10497 0.62358 0.35297 0.0
O1346 O 0.0599 0.50349 0.34254 0.0
O1347 O 0.08642 0.49228 0.35868 0.0
O1348 O 0.14033 0.60794 0.32362 0.0
O1349 O 0.06054 0.57831 0.32936 0.0
O1350 O 0.19965 0.59148 0.33697 0.0
O1351 O 0.15441 0.54786 0.34968 0.0
H1352 H 0.09203 0.55928 0.3989 0.0
H1353 H 0.24833 0.66843 0.38839 0.0
H1354 H 0.26871 0.71123 0.40536 0.0
H1355 H 0.1126 0.60141 0.41591 0.0
H1356 H 0.13113 0.54936 0.30786 0.0
H1357 H 1.00817 0.58673 0.31154 0.0
H1358 H 0.9838 0.5648 0.29332 0.0
H1359 H 0.10743 0.52831 0.28954 0.0
Gd1360 Gd 0.48115 0.56859 0.36448 0.0
Gd1361 Gd 0.4689 0.54347 0.33994 0.0
C1362 C 0.37155 0.53215 0.35252 0.0
C1363 C 0.48723 0.60651 0.38293 0.0
C1364 C 0.4612 0.5902 0.39327 0.0
C1365 C 0.47658 0.56518 0.40063 0.0
C1366 C 0.42253 0.60242 0.39612 0.0
C1367 C 0.41535 0.56522 0.41343 0.0
C1368 C 0.39982 0.58996 0.40603 0.0
C1369 C 0.45385 0.55272 0.41055 0.0
C1370 C 0.44238 0.4636 0.36019 0.0
C1371 C 0.58589 0.59946 0.35046 0.0
C1372 C 0.46191 0.50074 0.32202 0.0
C1373 C 0.48568 0.51105 0.31156 0.0
C1374 C 0.49155 0.55333 0.3055 0.0
C1375 C 0.49738 0.47464 0.30714 0.0
C1376 C 0.51594 0.51975 0.29048 0.0
C1377 C 0.51252 0.47899 0.29672 0.0
C1378 C 0.50643 0.55754 0.29505 0.0
C1379 C 0.48661 0.63991 0.34504 0.0
O1380 O 0.40357 0.56125 0.36006 0.0
O1381 O 0.38603 0.51001 0.34529 0.0
O1382 O 0.51615 0.58668 0.37986 0.0
O1383 O 0.46001 0.61101 0.37534 0.0
O1384 O 0.45282 0.48311 0.36949 0.0
O1385 O 0.45373 0.50124 0.35428 0.0
O1386 O 0.55559 0.57576 0.34228 0.0
O1387 O 0.56659 0.60396 0.35953 0.0
O1388 O 0.43634 0.52486 0.3245 0.0
O1389 O 0.48838 0.49659 0.32979 0.0
O1390 O 0.46489 0.61594 0.3364 0.0
O1391 O 0.50443 0.61472 0.34983 0.0
H1392 H 0.50676 0.55582 0.39879 0.0
H1393 H 0.41004 0.62215 0.39071 0.0
H1394 H 0.36986 0.59964 0.40787 0.0
H1395 H 0.46745 0.5344 0.41606 0.0
H1396 H 0.48296 0.58216 0.3087 0.0
H1397 H 0.49276 0.44153 0.31164 0.0
H1398 H 0.519 0.4489 0.29343 0.0
H1399 H 0.50937 0.58976 0.29049 0.0
Gd1400 Gd 0.48973 0.92371 0.36512 0.0
Gd1401 Gd 0.51368 0.94175 0.33973 0.0
C1402 C 0.51788 0.84715 0.35186 0.0
C1403 C 0.44982 0.89237 0.38341 0.0
C1404 C 0.46487 0.8845 0.39392 0.0
C1405 C 0.51584 0.91572 0.3978 0.0
C1406 C 0.42728 0.84447 0.40018 0.0
C1407 C 0.49113 0.86675 0.41412 0.0
C1408 C 0.44018 0.83565 0.41016 0.0
C1409 C 0.52879 0.90704 0.40782 0.0
C1410 C 0.5934 0.9903 0.36022 0.0
C1411 C 0.46051 1.00063 0.35147 0.0
C1412 C 0.5647 0.97713 0.32259 0.0
C1413 C 0.56129 0.99225 0.31183 0.0
C1414 C 0.51511 0.9655 0.30596 0.0
C1415 C 0.60691 0.03101 0.30705 0.0
C1416 C 0.56191 1.01286 0.29039 0.0
C1417 C 0.60726 0.04128 0.29645 0.0
C1418 C 0.51539 0.97585 0.29531 0.0
C1419 C 0.41171 0.87195 0.34413 0.0
O1420 O 0.49594 0.85338 0.36035 0.0
O1421 O 0.53541 0.88105 0.34403 0.0
O1422 O 0.46908 0.94085 0.38018 0.0
O1423 O 0.4487 0.86059 0.37614 0.0
O1424 O 0.57587 0.97953 0.36968 0.0
O1425 O 0.55467 0.96527 0.35445 0.0
O1426 O 0.48896 1.00079 0.34344 0.0
O1427 O 0.45185 0.97101 0.3599 0.0
O1428 O 0.53716 0.92709 0.32484 0.0
O1429 O 0.56625 1.00798 0.33013 0.0
O1430 O 0.42936 0.88567 0.33467 0.0
O1431 O 0.44909 0.89766 0.35026 0.0
H1432 H 0.54563 0.94663 0.39307 0.0
H1433 H 0.38772 0.81994 0.39735 0.0
H1434 H 0.40996 0.80478 0.41482 0.0
H1435 H 0.56852 0.93135 0.41056 0.0
H1436 H 0.4794 0.93536 0.30951 0.0
H1437 H 0.64291 0.0521 0.31145 0.0
H1438 H 0.64347 0.07067 0.29293 0.0
H1439 H 0.47989 0.95318 0.29085 0.0
C1440 C 0.209 0.14233 0.17294 0.0
C1441 C 0.18626 0.16005 0.1803 0.0
H1442 H 0.22969 0.08472 0.16888 0.0
C1443 C 0.16984 0.13372 0.18985 0.0
H1444 H 0.22209 0.1619 0.16551 0.0
C1445 C 0.17357 0.08883 0.19177 0.0
C1446 C 0.19446 0.06981 0.18422 0.0
H1447 H 0.1517 0.14616 0.1956 0.0
H1448 H 0.15842 0.06806 0.19903 0.0
C1449 C 0.21349 0.09808 0.1749 0.0
C1450 C 0.97881 0.11283 0.17348 0.0
C1451 C 0.99497 0.13207 0.1836 0.0
H1452 H 0.92648 0.0485 0.16393 0.0
C1453 C 0.96581 0.10093 0.19207 0.0
H1454 H 1.00049 0.13544 0.16677 0.0
C1455 C 0.92203 0.05106 0.19039 0.0
C1456 C 0.90813 0.03095 0.18026 0.0
H1457 H 0.97731 0.11473 0.19997 0.0
H1458 H 0.90052 0.0276 0.197 0.0
C1459 C 0.93648 0.06273 0.17184 0.0
C1460 C 0.99222 0.87778 0.17216 0.0
C1461 C 1.02623 0.88616 0.1805 0.0
H1462 H 0.917 0.86358 0.16729 0.0
C1463 C 1.00796 0.88311 0.1907 0.0
H1464 H 1.00513 0.87957 0.16421 0.0
C1465 C 0.95762 0.87532 0.19248 0.0
C1466 C 0.92414 0.86838 0.18409 0.0
H1467 H 1.03328 0.88913 0.19725 0.0
H1468 H 0.9453 0.87586 0.20039 0.0
C1469 C 0.94152 0.86818 0.17393 0.0
C1470 C 0.14692 0.1642 0.34401 0.0
C1471 C 0.16239 0.1611 0.35419 0.0
H1472 H 0.09099 0.17108 0.3344 0.0
C1473 C 0.13651 0.16861 0.36258 0.0
H1474 H 0.16629 0.15844 0.33743 0.0
C1475 C 0.0949 0.17743 0.36088 0.0
C1476 C 0.07702 0.1774 0.35074 0.0
H1477 H 0.14778 0.16659 0.37051 0.0
H1478 H 0.07495 0.18142 0.36758 0.0
C1479 C 0.10391 0.17141 0.34229 0.0
C1480 C 0.89456 0.95325 0.34343 0.0
C1481 C 0.87876 0.91572 0.35143 0.0
H1482 H 0.91247 0.03077 0.33907 0.0
C1483 C 0.8652 0.92766 0.36112 0.0
H1484 H 0.9053 0.94553 0.33586 0.0
C1485 C 0.86994 0.97661 0.36294 0.0
C1486 C 0.88766 1.01473 0.35509 0.0
H1487 H 0.85291 0.90003 0.3675 0.0
H1488 H 0.86099 0.9851 0.37062 0.0
C1489 C 0.89863 1.00214 0.34524 0.0
C1490 C 0.05411 0.91123 0.3454 0.0
C1491 C 0.04304 0.88505 0.35499 0.0
H1492 H 0.10988 0.97628 0.33629 0.0
C1493 C 0.08276 0.90209 0.36249 0.0
H1494 H 1.02412 0.89911 0.33953 0.0
C1495 C 0.13193 0.94569 0.36063 0.0
C1496 C 0.14239 0.97392 0.35127 0.0
H1497 H 0.07538 0.88252 0.36994 0.0
H1498 H 0.16095 0.95855 0.36676 0.0
C1499 C 0.10325 0.9555 0.34357 0.0
C1500 C 0.87099 0.90945 0.86353 0.0
C1501 C 0.89219 0.89082 0.85604 0.0
H1502 H 0.85045 0.96701 0.86762 0.0
C1503 C 0.90596 0.9154 0.84629 0.0
H1504 H 0.85982 0.89113 0.87111 0.0
C1505 C 0.9012 0.95963 0.84427 0.0
C1506 C 0.88188 0.97964 0.85194 0.0
H1507 H 0.92266 0.90202 0.8404 0.0
H1508 H 0.91428 0.97909 0.83683 0.0
C1509 C 0.86548 0.95298 0.86149 0.0
C1510 C 0.15212 1.00066 0.8465 0.0
C1511 C 0.17645 1.01115 0.8563 0.0
H1512 H 0.08741 0.94645 0.83707 0.0
C1513 C 0.15626 0.97174 0.86388 0.0
H1514 H 0.16684 0.03042 0.84053 0.0
C1515 C 0.11145 0.92357 0.86189 0.0
C1516 C 0.08503 0.91375 0.85231 0.0
H1517 H 0.17433 0.97866 0.87148 0.0
H1518 H 0.09634 0.89492 0.86809 0.0
C1519 C 0.10658 0.95254 0.84454 0.0
C1520 C 0.08456 0.18764 0.86415 0.0
C1521 C 0.04646 0.16902 0.8563 0.0
H1522 H 0.16083 0.2051 0.86885 0.0
C1523 C 0.0588 0.15657 0.84655 0.0
H1524 H 0.07629 0.1978 0.87173 0.0
C1525 C 0.10758 0.16018 0.84487 0.0
C1526 C 0.14503 0.17686 0.85291 0.0
H1527 H 1.03005 0.14193 0.84038 0.0
H1528 H 0.1152 0.14827 0.83741 0.0
C1529 C 0.13322 0.19185 0.86246 0.0
C1530 C 0.92132 0.8885 0.6901 0.0
C1531 C 0.89634 0.87523 0.68035 0.0
H1532 H 0.98608 0.89732 0.6993 0.0
C1533 C 0.91526 0.8553 0.67266 0.0
H1534 H 0.9076 0.90409 0.69616 0.0
C1535 C 0.95951 0.85085 0.67445 0.0
C1536 C 0.98666 0.86687 0.68397 0.0
H1537 H 0.89665 0.84448 0.66509 0.0
H1538 H 0.97352 0.83668 0.66816 0.0
C1539 C 0.96629 0.88462 0.69188 0.0
C1540 C 0.17702 0.09514 0.69151 0.0
C1541 C 0.19189 0.13205 0.68342 0.0
H1542 H 0.16035 1.01807 0.69602 0.0
C1543 C 0.20537 0.11989 0.67373 0.0
H1544 H 0.16641 0.10309 0.69908 0.0
C1545 C 0.20136 0.07129 0.67199 0.0
C1546 C 0.18436 0.03365 0.67991 0.0
H1547 H 0.21724 0.14716 0.6673 0.0
H1548 H 0.21024 0.06263 0.66432 0.0
C1549 C 0.17355 0.04643 0.68978 0.0
C1550 C 0.96519 0.0957 0.6918 0.0
C1551 C 0.92723 0.07509 0.68386 0.0
H1552 H 0.0432 0.15471 0.69611 0.0
C1553 C 0.93841 0.10212 0.67433 0.0
H1554 H 0.95805 0.07601 0.69923 0.0
C1555 C 0.98706 0.14647 0.67255 0.0
C1556 C 1.02577 0.16557 0.68027 0.0
H1557 H 0.91031 0.08794 0.66803 0.0
H1558 H 0.99489 0.16498 0.66499 0.0
C1559 C 1.01399 0.14075 0.69003 0.0
C1560 C 0.83962 0.42454 0.52449 0.0
C1561 C 0.85581 0.40282 0.51655 0.0
H1562 H 0.82137 0.48404 0.52873 0.0
C1563 C 0.86942 0.42809 0.50683 0.0
H1564 H 0.82882 0.40625 0.53207 0.0
C1565 C 0.86444 0.47208 0.50493 0.0
C1566 C 0.84647 0.49255 0.51272 0.0
H1567 H 0.88197 0.41272 0.5005 0.0
H1568 H 0.8735 0.48937 0.49724 0.0
C1569 C 0.83536 0.46918 0.5226 0.0
C1570 C 0.59068 0.37798 0.52283 0.0
C1571 C 0.5659 0.36651 0.51309 0.0
H1572 H 0.65469 0.4339 0.53217 0.0
C1573 C 0.58451 0.40581 0.50548 0.0
H1574 H 0.57731 0.34835 0.52881 0.0
C1575 C 0.62825 0.45488 0.50739 0.0
C1576 C 0.65512 0.46576 0.51693 0.0
H1577 H 0.56603 0.39816 0.49791 0.0
H1578 H 0.64222 0.48346 0.50118 0.0
C1579 C 0.6351 0.42704 0.52473 0.0
C1580 C 0.63194 0.21927 0.52484 0.0
C1581 C 0.59322 0.2007 0.51703 0.0
H1582 H 0.7104 0.23948 0.52898 0.0
C1583 C 0.60394 0.18446 0.50751 0.0
H1584 H 0.6252 0.23217 0.53227 0.0
C1585 C 0.6528 0.18932 0.50563 0.0
C1586 C 0.69208 0.2098 0.51325 0.0
H1587 H 0.57538 0.16995 0.50129 0.0
H1588 H 0.66028 0.17826 0.49806 0.0
C1589 C 0.6808 0.22344 0.52298 0.0
C1590 C 0.81742 0.50056 0.6784 0.0
C1591 C 0.83225 0.49628 0.68857 0.0
H1592 H 0.76205 0.50841 0.6688 0.0
C1593 C 0.80562 0.50256 0.69697 0.0
H1594 H 0.83735 0.49577 0.67179 0.0
C1595 C 0.76391 0.51129 0.6953 0.0
C1596 C 0.74673 0.51247 0.68516 0.0
H1597 H 0.81636 0.49962 0.7049 0.0
H1598 H 0.74339 0.51431 0.70201 0.0
C1599 C 0.77439 0.50777 0.6767 0.0
C1600 C 0.56323 0.28855 0.67723 0.0
C1601 C 0.54573 0.25051 0.68516 0.0
H1602 H 0.58269 0.36662 0.67289 0.0
C1603 C 0.53056 0.26209 0.69472 0.0
H1604 H 0.57525 0.28115 0.66976 0.0
C1605 C 0.53537 0.31111 0.69648 0.0
C1606 C 0.55483 0.34975 0.68873 0.0
H1607 H 0.51688 0.23408 0.70103 0.0
H1608 H 0.52512 0.31925 0.70407 0.0
C1609 C 0.56744 0.33758 0.67898 0.0
C1610 C 0.7707 0.28884 0.67781 0.0
C1611 C 0.80903 0.30793 0.68568 0.0
H1612 H 0.6921 0.23184 0.6735 0.0
C1613 C 0.79756 0.28038 0.69513 0.0
H1614 H 0.77812 0.30905 0.67043 0.0
C1615 C 0.74823 0.23674 0.69688 0.0
C1616 C 0.70931 0.21897 0.68919 0.0
H1617 H 0.82591 0.29379 0.70139 0.0
H1618 H 0.74009 0.21768 0.7044 0.0
C1619 C 0.7214 0.24455 0.67953 0.0
C1620 C 0.56973 0.24491 0.17949 0.0
C1621 C 0.55714 0.221 0.18932 0.0
H1622 H 0.57787 0.30847 0.17001 0.0
C1623 C 0.53793 0.24088 0.19697 0.0
H1624 H 0.58479 0.23049 0.17348 0.0
C1625 C 0.53319 0.28491 0.19499 0.0
C1626 C 0.54839 0.31081 0.18534 0.0
H1627 H 0.52772 0.22312 0.20461 0.0
H1628 H 0.51967 0.29986 0.20122 0.0
C1629 C 0.56578 0.28964 0.17753 0.0
C1630 C 0.81378 0.33424 0.17906 0.0
C1631 C 0.83846 0.34568 0.18882 0.0
H1632 H 0.74929 0.27881 0.16975 0.0
C1633 C 0.81877 0.30679 0.19652 0.0
H1634 H 0.82798 0.36357 0.17302 0.0
C1635 C 0.77431 0.25814 0.19465 0.0
C1636 C 0.74773 0.24729 0.18507 0.0
H1637 H 0.83706 0.31441 0.20411 0.0
H1638 H 0.75963 0.22987 0.20092 0.0
C1639 C 0.76862 0.28566 0.17722 0.0
C1640 C 0.77376 0.49137 0.17712 0.0
C1641 C 0.81317 0.51027 0.18478 0.0
H1642 H 0.69503 0.47115 0.17328 0.0
C1643 C 0.80337 0.52697 0.19435 0.0
H1644 H 0.77979 0.47808 0.16967 0.0
C1645 C 0.75475 0.52229 0.19642 0.0
C1646 C 0.71485 0.50163 0.18893 0.0
H1647 H 0.83248 0.54171 0.20047 0.0
H1648 H 0.74797 0.53372 0.20401 0.0
C1649 C 0.72518 0.48746 0.17916 0.0
C1650 C 0.62927 0.20772 0.02588 0.0
C1651 C 0.65759 0.20538 1.01728 0.0
H1652 H 0.56508 0.21706 0.0311 0.0
C1653 C 0.6403 0.20789 1.00723 0.0
H1654 H 0.64157 0.2059 0.03373 0.0
C1655 C 0.59786 0.21555 1.00578 0.0
C1656 C 0.57061 0.2196 1.01432 0.0
H1657 H 0.66106 0.20648 1.0004 0.0
H1658 H 0.58703 0.21943 0.99791 0.0
C1659 C 0.58555 0.21404 0.02439 0.0
C1660 C 0.87601 0.40751 1.00613 0.0
C1661 C 0.85603 0.3687 1.01385 0.0
H1662 H 0.8942 0.48449 1.0016 0.0
C1663 C 0.84229 0.38036 0.02353 0.0
H1664 H 0.88706 0.39966 0.9986 0.0
C1665 C 0.84573 0.42903 0.02525 0.0
C1666 C 0.8637 0.46717 1.01735 0.0
H1667 H 0.82666 0.35111 0.0296 0.0
H1668 H 0.83275 0.43608 0.03264 0.0
C1669 C 0.88018 0.45625 1.00788 0.0
C1670 C 0.62567 0.4311 0.02603 0.0
C1671 C 0.59313 0.40445 1.01753 0.0
H1672 H 0.70096 0.49299 0.03104 0.0
C1673 C 0.6115 0.42202 1.00742 0.0
H1674 H 0.61254 0.41829 0.03391 0.0
C1675 C 0.66229 0.46319 1.00581 0.0
C1676 C 0.69536 0.48885 1.01426 0.0
H1677 H 0.58768 0.40207 1.00069 0.0
H1678 H 0.67608 0.47429 0.9979 0.0
C1679 C 0.67616 0.4737 0.02441 0.0
C1680 C 0.50482 0.80326 0.8564 0.0
C1681 C 0.51702 0.82712 0.84657 0.0
H1682 H 0.49755 0.74005 0.86586 0.0
C1683 C 0.53645 0.80744 0.8389 0.0
H1684 H 0.4896 0.81745 0.86243 0.0
C1685 C 0.54183 0.76369 0.84087 0.0
C1686 C 0.52701 0.73792 0.85053 0.0
H1687 H 0.54632 0.82513 0.83125 0.0
H1688 H 0.55535 0.74869 0.83464 0.0
C1689 C 0.50934 0.75885 0.85834 0.0
C1690 C 0.25975 0.71306 0.857 0.0
C1691 C 0.23399 0.70248 0.84736 0.0
H1692 H 0.32528 0.76781 0.86618 0.0
C1693 C 0.2525 0.74212 0.83983 0.0
H1694 H 0.2465 0.68308 0.86291 0.0
C1695 C 0.29701 0.79066 0.8417 0.0
C1696 C 0.32483 0.80067 0.85111 0.0
H1697 H 0.23332 0.73513 0.83234 0.0
H1698 H 0.31076 0.81952 0.83554 0.0
C1699 C 0.30498 0.76161 0.85884 0.0
C1700 C 0.33017 0.5509 0.83902 0.0
C1701 C 0.36292 0.55572 0.84736 0.0
H1702 H 0.25672 0.54089 0.8341 0.0
C1703 C 0.34396 0.5511 0.85756 0.0
H1704 H 0.3435 0.55395 0.83107 0.0
C1705 C 0.29416 0.54493 0.85934 0.0
C1706 C 0.26192 0.5413 0.85094 0.0
H1707 H 0.36823 0.55424 0.86412 0.0
H1708 H 0.28121 0.54374 0.86727 0.0
C1709 C 0.28015 0.54305 0.84077 0.0
C1710 C 0.47808 0.84125 0.02974 0.0
C1711 C 0.5027 0.83245 0.02128 0.0
H1712 H 0.41721 0.85488 0.03493 0.0
C1713 C 0.48587 0.83429 1.01116 0.0
H1714 H 0.49041 0.8402 0.03763 0.0
C1715 C 0.4427 0.84136 1.00959 0.0
C1716 C 0.41698 0.84845 0.01812 0.0
H1717 H 0.50421 0.82754 1.00452 0.0
H1718 H 0.42865 0.83994 1.00175 0.0
C1719 C 0.43627 0.84995 0.02818 0.0
C1720 C 0.22007 0.65051 0.02986 0.0
C1721 C 0.22894 0.68346 0.02132 0.0
H1722 H 0.20622 0.57619 0.03523 0.0
C1723 C 0.22681 0.66419 1.01124 0.0
H1724 H 0.22129 0.66439 0.03772 0.0
C1725 C 0.21946 0.61374 1.00979 0.0
C1726 C 0.21244 0.58144 0.01841 0.0
H1727 H 0.23356 0.68896 1.00455 0.0
H1728 H 0.22067 0.60059 1.00199 0.0
C1729 C 0.21115 0.59983 0.02842 0.0
C1730 C 0.39554 0.57532 1.01135 0.0
C1731 C 0.37688 0.55853 0.02148 0.0
H1732 H 0.45846 0.63246 1.00194 0.0
C1733 C 0.41035 0.58328 0.02993 0.0
H1734 H 0.37042 0.55691 1.00472 0.0
C1735 C 0.46089 0.62509 0.02837 0.0
C1736 C 0.47873 0.64427 0.01831 0.0
H1737 H 0.39701 0.57103 0.03782 0.0
H1738 H 0.48492 0.64417 0.03512 0.0
C1739 C 0.44583 0.61849 1.00978 0.0
C1740 C 0.23693 0.5786 0.51253 0.0
C1741 C 0.2242 0.55427 0.52231 0.0
H1742 H 0.24425 0.64201 0.5031 0.0
C1743 C 0.20404 0.57336 0.52994 0.0
H1744 H 0.25276 0.5649 0.50653 0.0
C1745 C 0.19847 0.61696 0.52798 0.0
C1746 C 0.21369 0.64324 0.51838 0.0
H1747 H 0.1937 0.55531 0.53755 0.0
H1748 H 0.18421 0.63126 0.5342 0.0
C1749 C 0.23208 0.62287 0.51059 0.0
C1750 C 0.4835 0.66614 0.51242 0.0
C1751 C 0.50804 0.6772 0.5222 0.0
H1752 H 0.41889 0.61118 0.50308 0.0
C1753 C 0.48835 0.63804 0.52983 0.0
H1754 H 0.49781 0.69569 0.50641 0.0
C1755 C 0.44378 0.58957 0.52793 0.0
C1756 C 0.41714 0.57919 0.51836 0.0
H1757 H 0.5066 0.64539 0.53743 0.0
H1758 H 0.42903 0.56112 0.53416 0.0
C1759 C 0.43823 0.61771 0.51054 0.0
C1760 C 0.46479 0.85961 0.52824 0.0
C1761 C 0.47626 0.84397 0.51872 0.0
H1762 H 0.40788 0.86528 0.53756 0.0
C1763 C 0.43831 0.82611 0.51077 0.0
H1764 H 0.49286 0.87388 0.53455 0.0
C1765 C 0.38926 0.82174 0.51252 0.0
C1766 C 0.37725 0.83464 0.52226 0.0
H1767 H 0.44568 0.81366 0.50335 0.0
H1768 H 0.36007 0.80605 0.50644 0.0
C1769 C 0.4159 0.85467 0.53 0.0
C1770 C 0.25317 0.54767 0.35766 0.0
C1771 C 0.23731 0.54984 0.34746 0.0
H1772 H 0.30914 0.54113 0.36732 0.0
C1773 C 0.2623 0.54064 0.33913 0.0
H1774 H 0.23455 0.55474 0.36421 0.0
C1775 C 0.30344 0.53104 0.34089 0.0
C1776 C 0.32173 0.53213 0.35103 0.0
H1777 H 0.25075 0.54199 0.33119 0.0
H1778 H 0.3229 0.52585 0.33424 0.0
C1779 C 0.29573 0.53984 0.35943 0.0
C1780 C 0.50297 0.7262 0.33863 0.0
C1781 C 0.50059 0.69481 0.34705 0.0
H1782 H 0.51188 0.79909 0.33356 0.0
C1783 C 0.50866 0.71565 0.35715 0.0
H1784 H 0.4973 0.71142 0.33074 0.0
C1785 C 0.51573 0.76593 0.35882 0.0
C1786 C 0.51684 0.79676 0.35036 0.0
H1787 H 0.50755 0.6925 0.36375 0.0
H1788 H 0.51956 0.78035 0.3667 0.0
C1789 C 0.51172 0.77672 0.34025 0.0
C1790 C 0.26994 0.76816 0.34102 0.0
C1791 C 0.2597 0.73928 0.35029 0.0
H1792 H 0.32594 0.83247 0.33188 0.0
C1793 C 0.29877 0.75766 0.35801 0.0
H1794 H 0.24097 0.75543 0.33489 0.0
C1795 C 0.34762 0.8026 0.35628 0.0
C1796 C 0.35843 0.82949 0.34678 0.0
H1797 H 0.29232 0.7364 0.36523 0.0
H1798 H 0.37763 0.81469 0.36216 0.0
C1799 C 0.31876 0.81241 0.33927 0.0
C1800 C 0.33582 0.38623 0.17327 0.0
C1801 C 0.31512 0.3628 0.18297 0.0
H1802 H 0.40331 0.42624 0.16357 0.0
C1803 C 0.35037 0.36588 0.19073 0.0
H1804 H 0.31051 0.38499 0.16705 0.0
C1805 C 0.40456 0.39057 0.1887 0.0
C1806 C 0.42435 0.41197 0.17884 0.0
H1807 H 0.33607 0.34829 0.19828 0.0
H1808 H 0.43064 0.3913 0.19471 0.0
C1809 C 0.38936 0.41 0.17123 0.0
C1810 C 0.65015 0.99014 0.17022 0.0
C1811 C 0.64633 1.02145 0.178 0.0
H1812 H 0.67684 0.93758 0.16591 0.0
C1813 C 0.66586 1.02126 0.18797 0.0
H1814 H 0.63537 0.9893 0.16247 0.0
C1815 C 0.6903 0.99157 0.18998 0.0
C1816 C 0.6954 0.96124 0.18207 0.0
H1817 H 0.66388 0.04539 0.1941 0.0
H1818 H 0.70638 0.9935 0.19764 0.0
C1819 C 0.674 0.96031 0.17223 0.0
C1820 C 0.06731 0.70943 0.1898 0.0
C1821 C 0.09719 0.74516 0.1819 0.0
H1822 H 1.01434 0.62884 0.19387 0.0
C1823 C 0.098 0.72487 0.17203 0.0
H1824 H 0.06548 0.7234 0.19749 0.0
C1825 C 0.06857 0.67114 0.16998 0.0
C1826 C 0.03775 0.63566 0.17774 0.0
H1827 H 0.12038 0.75062 0.16571 0.0
H1828 H 0.06939 0.65743 0.1622 0.0
C1829 C 0.03803 0.6552 0.18774 0.0
C1830 C 0.37645 0.33413 0.34531 0.0
C1831 C 0.37315 0.29859 0.35301 0.0
H1832 H 0.40137 0.41436 0.34147 0.0
C1833 C 0.3957 0.31876 0.3628 0.0
H1834 H 0.35951 0.32016 0.33769 0.0
C1835 C 0.41897 0.37234 0.36496 0.0
C1836 C 0.4211 0.4076 0.35739 0.0
H1837 H 0.39404 0.29295 0.36896 0.0
H1838 H 0.43462 0.38609 0.37268 0.0
C1839 C 0.40045 0.38813 0.34746 0.0
C1840 C 0.66786 1.02278 0.34727 0.0
C1841 C 0.64892 0.02498 0.35719 0.0
H1842 H 0.73531 0.0492 0.3374 0.0
C1843 C 0.68439 0.05907 0.36462 0.0
H1844 H 0.64144 0.99646 0.34141 0.0
C1845 C 0.73764 0.08949 0.36234 0.0
C1846 C 0.75746 0.08629 0.35256 0.0
H1847 H 0.67105 0.06175 0.37232 0.0
H1848 H 0.76346 0.11445 0.36842 0.0
C1849 C 0.72168 0.05293 0.34499 0.0
C1850 C 1.01113 0.6935 0.34447 0.0
C1851 C 0.96921 0.68421 0.35105 0.0
H1852 H 0.07286 0.67708 0.34111 0.0
C1853 C 0.956 0.64739 0.35912 0.0
H1854 H 1.0227 0.72162 0.3382 0.0
C1855 C 0.98463 0.62177 0.36075 0.0
C1856 C 1.02761 0.63249 0.35442 0.0
H1857 H 0.92395 0.6389 0.36434 0.0
H1858 H 0.97382 0.59444 0.36715 0.0
C1859 C 0.04008 0.6681 0.34616 0.0
C1860 C 0.67204 0.66096 0.84769 0.0
C1861 C 0.65206 0.64155 0.85766 0.0
H1862 H 0.7406 0.70101 0.83806 0.0
C1863 C 0.687 0.64532 0.86546 0.0
H1864 H 0.64603 0.65873 0.84152 0.0
C1865 C 0.74061 0.66866 0.86348 0.0
C1866 C 0.76139 0.68981 0.85364 0.0
H1867 H 0.67293 0.6307 0.87321 0.0
H1868 H 0.76591 0.6713 0.86983 0.0
C1869 C 0.72623 0.68521 0.84572 0.0
C1870 C 0.40093 0.08979 0.86316 0.0
C1871 C 0.37655 0.08627 0.85354 0.0
H1872 H 0.44174 0.06271 0.87278 0.0
C1873 C 0.37832 0.05299 0.84586 0.0
H1874 H 0.40042 0.11462 0.86931 0.0
C1875 C 0.40296 1.02342 0.84786 0.0
C1876 C 0.42561 0.02595 0.85762 0.0
H1877 H 0.35992 0.04909 0.83837 0.0
H1878 H 0.40271 0.99733 0.8419 0.0
C1879 C 0.42465 0.05983 0.86518 0.0
C1880 C 0.97291 0.3219 0.86313 0.0
C1881 C 0.9752 0.30139 0.85337 0.0
H1882 H 1.00051 0.38938 0.87289 0.0
C1883 C 1.00683 0.33688 0.84559 0.0
H1884 H 0.9493 0.29636 0.86936 0.0
C1885 C 0.03612 0.39115 0.84765 0.0
C1886 C 1.03486 0.41081 0.85755 0.0
H1887 H 1.00973 0.32272 0.83799 0.0
H1888 H 0.06095 0.4174 0.84161 0.0
C1889 C 1.00249 0.37555 0.86519 0.0
C1890 C 0.67071 0.66214 0.68839 0.0
C1891 C 0.64954 0.64267 0.67849 0.0
H1892 H 0.71207 0.73028 0.69816 0.0
C1893 C 0.65119 0.67801 0.67098 0.0
H1894 H 0.67026 0.63588 0.69433 0.0
C1895 C 0.67417 0.73152 0.67319 0.0
C1896 C 0.6972 0.7518 0.68294 0.0
H1897 H 0.63521 0.66435 0.66329 0.0
H1898 H 0.67525 0.75721 0.66706 0.0
C1899 C 0.69473 0.71625 0.69057 0.0
C1900 C 0.39847 0.0253 0.6883 0.0
C1901 C 0.41799 1.02312 0.67844 0.0
H1902 H 0.33052 0.99839 0.69805 0.0
C1903 C 0.3829 0.98853 0.671 0.0
H1904 H 0.42449 0.05193 0.69417 0.0
C1905 C 0.32955 0.95749 0.67323 0.0
C1906 C 0.30924 0.96066 0.68294 0.0
H1907 H 0.39663 0.98587 0.66333 0.0
H1908 H 0.30396 0.93214 0.66716 0.0
C1909 C 0.34458 0.99469 0.6905 0.0
C1910 C 1.03021 0.3791 0.68914 0.0
C1911 C 0.04237 0.41477 0.68092 0.0
H1912 H 0.04832 0.32609 0.69706 0.0
C1913 C 0.08556 0.42617 0.67459 0.0
H1914 H 0.9973 0.36964 0.69419 0.0
C1915 C 0.11481 0.40118 0.67621 0.0
C1916 C 0.10187 0.36428 0.68425 0.0
H1917 H 0.09611 0.45359 0.66821 0.0
H1918 H 0.14704 0.41013 0.671 0.0
C1919 C 0.05964 0.35425 0.6908 0.0
C1920 C 0.99771 0.71647 0.50595 0.0
C1921 C 0.97706 0.69401 0.51572 0.0
H1922 H 0.06519 0.75565 0.49621 0.0
C1923 C 1.01238 0.69774 0.52353 0.0
H1924 H 0.97233 0.71465 0.49969 0.0
C1925 C 0.06657 0.72225 0.5215 0.0
C1926 C 0.08636 0.74284 0.51159 0.0
H1927 H 0.99814 0.68091 0.53113 0.0
H1928 H 0.09267 0.72357 0.52756 0.0
C1929 C 0.05128 0.74008 0.50392 0.0
C1930 C 0.36139 0.32616 0.52356 0.0
C1931 C 0.36423 0.29384 0.51579 0.0
H1932 H 0.33646 0.38139 0.52758 0.0
C1933 C 0.34077 0.29128 0.5061 0.0
H1934 H 0.37903 0.32936 0.53111 0.0
C1935 C 0.31712 0.32129 0.50409 0.0
C1936 C 0.31533 0.35441 0.51172 0.0
H1937 H 0.34187 0.26713 0.49987 0.0
H1938 H 0.30082 0.3191 0.49643 0.0
C1939 C 0.3369 0.35592 0.52156 0.0
C1940 C 0.75167 1.00364 0.50717 0.0
C1941 C 0.71027 0.97082 0.51379 0.0
H1942 H 0.81053 0.08185 0.50331 0.0
C1943 C 0.69903 0.99361 0.5223 0.0
H1944 H 0.76156 0.98746 0.50057 0.0
C1945 C 0.72743 0.04814 0.52394 0.0
C1946 C 0.76763 0.08128 0.51706 0.0
H1947 H 0.66745 0.96941 0.52757 0.0
H1948 H 0.71674 0.0644 0.5304 0.0
C1949 C 0.7798 0.05798 0.50876 0.0
C1950 C 0.10388 0.7092 0.69617 0.0
C1951 C 0.09658 0.74221 0.68934 0.0
H1952 H 0.0836 0.63063 0.70011 0.0
C1953 C 0.06442 0.71979 0.68058 0.0
H1954 H 0.12848 0.72519 0.70298 0.0
C1955 C 0.03882 0.66544 0.67888 0.0
C1956 C 0.04447 0.63206 0.68594 0.0
H1957 H 0.05806 0.74413 0.67515 0.0
H1958 H 1.01334 0.6495 0.67219 0.0
C1959 C 0.07807 0.65487 0.69451 0.0
C1960 C 0.35052 0.40837 0.69545 0.0
C1961 C 0.31763 0.36651 0.68892 0.0
H1962 H 0.42855 0.46855 0.69902 0.0
C1963 C 0.33978 0.35585 0.68022 0.0
H1964 H 0.33475 0.41779 0.70219 0.0
C1965 C 0.39392 0.38523 0.67835 0.0
C1966 C 0.42723 0.42583 0.68515 0.0
H1967 H 0.31547 0.3239 0.67502 0.0
H1968 H 0.4098 0.37489 0.67176 0.0
C1969 C 0.40449 0.43752 0.69361 0.0
C1970 C 0.65136 0.95664 0.69518 0.0
C1971 C 0.69306 0.96563 0.6886 0.0
H1972 H 0.59181 0.97514 0.69894 0.0
C1973 C 0.70413 0.99947 0.68007 0.0
H1974 H 0.6416 0.93072 0.7018 0.0
C1975 C 0.67526 0.02499 0.67837 0.0
C1976 C 0.63473 1.01753 0.6852 0.0
H1977 H 0.73594 1.00717 0.67484 0.0
H1978 H 0.68584 0.05182 0.67189 0.0
C1979 C 0.62276 0.98228 0.69352 0.0
C1980 C 0.33618 0.99104 0.18045 0.0
C1981 C 0.316 0.97029 0.19033 0.0
H1982 H 0.40496 0.03267 0.17094 0.0
C1983 C 0.3508 0.97331 0.1981 0.0
H1984 H 0.31027 0.9894 0.17431 0.0
C1985 C 0.4045 0.99729 0.19617 0.0
C1986 C 0.42546 1.01978 0.18643 0.0
H1987 H 0.33656 0.95763 0.20578 0.0
H1988 H 0.4297 0.99932 0.20249 0.0
C1989 C 0.39044 1.01586 0.17853 0.0
C1990 C 0.04497 0.38475 0.17819 0.0
C1991 C 0.04178 0.41711 0.1859 0.0
H1992 H 0.07085 0.3301 0.17428 0.0
C1993 C 0.0655 0.42039 0.1956 0.0
H1994 H 1.0272 0.38107 0.17064 0.0
C1995 C 0.08969 0.39101 0.19767 0.0
C1996 C 0.09182 0.35782 0.19011 0.0
H1997 H 0.0642 0.44464 0.20178 0.0
H1998 H 0.10614 0.39374 0.20534 0.0
C1999 C 0.07007 0.35562 0.18025 0.0
C2000 C 0.67383 0.66826 0.17878 0.0
C2001 C 0.64307 0.63304 0.18666 0.0
H2002 H 0.72702 0.74866 0.1746 0.0
C2003 C 0.64162 0.65385 0.19644 0.0
H2004 H 0.67607 0.65387 0.17116 0.0
C2005 C 0.67109 0.70762 0.19841 0.0
C2006 C 0.70251 0.74261 0.19065 0.0
H2007 H 0.61869 0.62849 0.20276 0.0
H2008 H 0.66973 0.72176 0.20611 0.0
C2009 C 0.70301 0.72257 0.18073 0.0
C2010 C 0.34106 0.99525 0.02209 0.0
C2011 C 0.3083 0.97322 1.0134 0.0
H2012 H 0.39181 0.06497 0.03062 0.0
C2013 C 0.29932 1.00605 1.00687 0.0
H2014 H 0.34848 0.97087 0.02731 0.0
C2015 C 0.32432 0.06013 1.00873 0.0
C2016 C 0.35859 0.08258 1.01722 0.0
H2017 H 0.27412 0.99019 1.00013 0.0
H2018 H 0.31769 0.08447 1.00335 0.0
C2019 C 0.36576 0.04924 0.024 0.0
C2020 C 0.0539 0.30458 1.00791 0.0
C2021 C 0.08631 0.34823 1.0141 0.0
H2022 H 0.976 0.24308 1.00461 0.0
C2023 C 0.0638 0.36109 0.0224 0.0
H2024 H 0.07009 0.29355 1.00148 0.0
C2025 C 1.00977 0.332 0.02425 0.0
C2026 C 0.9769 0.28943 1.01781 0.0
H2027 H 0.08782 0.39438 0.02735 0.0
H2028 H 0.99365 0.34391 0.03055 0.0
C2029 C 0.99988 0.27563 1.00972 0.0
C2030 C 0.78285 0.73448 1.0087 0.0
C2031 C 0.77107 0.69983 1.01712 0.0
H2032 H 0.76351 0.78544 1.00031 0.0
C2033 C 0.73062 0.69251 0.02394 0.0
H2034 H 0.81372 0.74125 1.0033 0.0
C2035 C 0.70154 0.71758 0.02216 0.0
C2036 C 0.71239 0.75091 1.01356 0.0
H2037 H 0.72027 0.66615 0.03049 0.0
H2038 H 0.66988 0.7101 0.02741 0.0
C2039 C 0.75403 0.75985 1.00697 0.0
C2040 C 0.72112 0.0748 0.83738 0.0
C2041 C 0.75647 0.0789 0.84512 0.0
H2042 H 0.64189 0.04775 0.8331 0.0
C2043 C 0.73689 0.05892 0.85508 0.0
H2044 H 0.73488 0.08984 0.82964 0.0
C2045 C 0.68268 0.03383 0.8571 0.0
C2046 C 0.64712 0.02888 0.84923 0.0
H2047 H 0.7632 0.06128 0.86119 0.0
H2048 H 0.66863 1.01761 0.86475 0.0
C2049 C 0.66749 0.05059 0.83941 0.0
C2050 C 0.98391 0.65686 0.83812 0.0
C2051 C 0.98156 0.6895 0.84578 0.0
H2052 H 1.00925 0.60323 0.83388 0.0
C2053 C 1.00257 0.69066 0.85567 0.0
H2054 H 0.96799 0.65495 0.83043 0.0
C2055 C 1.02721 0.66107 0.85767 0.0
C2056 C 1.03067 0.62928 0.84986 0.0
H2057 H 1.00155 0.71569 0.86171 0.0
H2058 H 0.04445 0.66399 0.86525 0.0
C2059 C 1.00766 0.62699 0.84013 0.0
C2060 C 0.41806 0.33677 0.84044 0.0
C2061 C 0.37909 0.30373 0.8475 0.0
H2062 H 0.47454 0.41531 0.83616 0.0
C2063 C 0.37008 0.32638 0.85632 0.0
H2064 H 0.42615 0.32069 0.83358 0.0
C2065 C 0.3983 0.38095 0.85786 0.0
C2066 C 0.43588 0.41426 0.85057 0.0
H2067 H 0.3404 0.30203 0.86191 0.0
H2068 H 0.38936 0.39709 0.8646 0.0
C2069 C 0.44583 0.3912 0.84193 0.0
C2070 C 0.70871 1.00066 1.01192 0.0
C2071 C 0.71445 0.96694 0.01886 0.0
H2072 H 0.72712 0.07938 1.0085 0.0
C2073 C 0.74749 0.98914 0.02753 0.0
H2074 H 0.68362 0.98514 1.00516 0.0
C2075 C 0.77254 0.04322 0.02941 0.0
C2076 C 0.76499 0.07649 0.02271 0.0
H2077 H 0.75307 0.9646 0.03304 0.0
H2078 H 0.79665 0.05874 0.03629 0.0
C2079 C 0.73357 0.05475 1.01383 0.0
C2080 C 1.00721 0.68933 1.01359 0.0
C2081 C 0.985 0.69934 0.02233 0.0
H2082 H 0.07698 0.70924 1.00504 0.0
C2083 C 1.01767 0.74084 0.02897 0.0
H2084 H 0.98302 0.65779 1.00829 0.0
C2085 C 0.07171 0.7703 0.02715 0.0
C2086 C 0.09432 0.75925 0.01858 0.0
H2087 H 1.0017 0.74964 0.03576 0.0
H2088 H 0.09589 0.80099 0.0326 0.0
C2089 C 0.06115 0.71902 1.01171 0.0
C2090 C 0.28912 0.31312 0.0277 0.0
C2091 C 0.30011 0.34668 0.01912 0.0
H2092 H 0.30967 0.26363 0.03631 0.0
C2093 C 0.33995 0.35333 1.01221 0.0
H2094 H 0.25868 0.30692 0.03317 0.0
C2095 C 0.36942 0.32886 1.01408 0.0
C2096 C 0.35952 0.29679 0.02284 0.0
H2097 H 0.34963 0.37885 1.00553 0.0
H2098 H 0.40072 0.33592 1.00876 0.0
C2099 C 0.31835 0.28829 0.02951 0.0
C2100 C 0.05836 0.34949 0.51165 0.0
C2101 C 0.09368 0.35337 0.51948 0.0
H2102 H 0.97805 0.3237 0.5076 0.0
C2103 C 0.07298 0.33122 0.52926 0.0
H2104 H 0.07263 0.36607 0.50403 0.0
C2105 C 1.01943 0.30781 0.5313 0.0
C2106 C 0.98434 0.30489 0.52361 0.0
H2107 H 0.09831 0.33315 0.53554 0.0
H2108 H 1.00554 0.29253 0.53902 0.0
C2109 C 1.00415 0.32514 0.51368 0.0
C2110 C 0.7092 0.71968 0.51177 0.0
C2111 C 0.70763 0.75322 0.51941 0.0
H2112 H 0.73287 0.66336 0.5079 0.0
C2113 C 0.73178 0.75663 0.52905 0.0
H2114 H 0.69097 0.71584 0.50426 0.0
C2115 C 0.75497 0.72623 0.53115 0.0
C2116 C 0.75565 0.69204 0.52363 0.0
H2117 H 0.73141 0.78165 0.53518 0.0
H2118 H 0.77184 0.72901 0.53877 0.0
C2119 C 0.73332 0.68968 0.51383 0.0
C2120 C 0.3383 1.00024 0.5116 0.0
C2121 C 0.30659 0.96502 0.51941 0.0
H2122 H 0.39297 0.08053 0.50755 0.0
C2123 C 0.30487 0.98591 0.52917 0.0
H2124 H 0.34083 0.98581 0.50401 0.0
C2125 C 0.33499 0.03959 0.53119 0.0
C2126 C 0.3674 0.07458 0.52352 0.0
H2127 H 0.28126 0.96063 0.53543 0.0
H2128 H 0.33337 0.05366 0.53889 0.0
C2129 C 0.36814 0.05454 0.51362 0.0
C2130 C 1.02259 0.37872 0.3563 0.0
C2131 C 1.02636 0.41443 0.34858 0.0
H2132 H 0.99702 0.2983 0.36014 0.0
C2133 C 1.00393 0.39433 0.33878 0.0
H2134 H 0.03947 0.39263 0.36392 0.0
C2135 C 0.98037 0.34073 0.33662 0.0
C2136 C 0.97772 0.30528 0.34421 0.0
H2137 H 1.00592 0.42021 0.33261 0.0
H2138 H 0.96485 0.3271 0.32889 0.0
C2139 C 0.99823 0.32464 0.35415 0.0
C2140 C 0.73347 0.68916 0.35436 0.0
C2141 C 0.75256 0.68924 0.34434 0.0
H2142 H 0.66586 0.66079 0.36425 0.0
C2143 C 0.71713 0.65701 0.33669 0.0
H2144 H 0.75983 0.71397 0.3604 0.0
C2145 C 0.66375 0.62643 0.33887 0.0
C2146 C 0.64383 0.62751 0.34876 0.0
H2147 H 0.73057 0.65603 0.3289 0.0
H2148 H 0.63793 0.60301 0.33264 0.0
C2149 C 0.67958 0.65872 0.35655 0.0
C2150 C 0.36295 0.04818 0.35544 0.0
C2151 C 0.37486 0.0831 0.34709 0.0
H2152 H 0.3808 0.9953 0.36349 0.0
C2153 C 0.41745 0.09348 0.34067 0.0
H2154 H 0.33049 0.03955 0.36056 0.0
C2155 C 0.44617 0.06799 0.3423 0.0
C2156 C 0.4334 0.03175 0.35046 0.0
H2157 H 0.42778 0.12032 0.33419 0.0
H2158 H 0.47787 0.07607 0.33701 0.0
C2159 C 0.39198 1.02296 0.35714 0.0
C2160 C 0.22398 0.4029 0.0967 0.0
C2161 C 0.19973 0.35983 0.0899 0.0
H2162 H 0.23755 0.42979 0.11248 0.0
C2163 C 0.17244 0.30919 0.09417 0.0
H2164 H 0.24489 0.44249 0.09371 0.0
C2165 C 0.16781 0.30195 0.10496 0.0
C2166 C 0.19021 0.34518 0.11175 0.0
H2167 H 0.15375 0.27511 0.08917 0.0
H2168 H 0.14486 0.26253 0.10796 0.0
C2169 C 0.21924 0.39566 0.10748 0.0
C2170 C 0.74306 0.89148 0.09388 0.0
C2171 C 0.69415 0.85369 0.08992 0.0
H2172 H 0.79108 0.92478 0.10737 0.0
C2173 C 0.65467 0.82134 0.09696 0.0
H2174 H 0.77407 0.91749 0.08868 0.0
C2175 C 0.66447 0.82521 0.10766 0.0
C2176 C 0.71398 0.86168 0.11161 0.0
H2177 H 0.61678 0.79129 0.09417 0.0
H2178 H 0.63385 0.79792 0.11278 0.0
C2179 C 0.75279 0.89555 0.10459 0.0
C2180 C 0.1987 0.90887 0.1041 0.0
C2181 C 0.19277 0.86948 0.11105 0.0
H2182 H 0.2107 0.93596 0.08839 0.0
C2183 C 0.18986 0.8238 0.107 0.0
H2184 H 0.20184 0.94488 0.10696 0.0
C2185 C 0.19444 0.81839 0.0963 0.0
C2186 C 0.20253 0.85874 0.08937 0.0
H2187 H 0.18459 0.79242 0.11214 0.0
H2188 H 0.1924 0.78283 0.09347 0.0
C2189 C 0.20364 0.90365 0.09341 0.0
C2190 C 0.3295 0.15637 0.44097 0.0
C2191 C 0.3806 0.18755 0.44481 0.0
H2192 H 0.28 0.12732 0.42758 0.0
C2193 C 0.42097 0.21753 0.43772 0.0
H2194 H 0.29757 0.13223 0.44617 0.0
C2195 C 0.41089 0.21467 0.42704 0.0
C2196 C 0.36016 0.18186 0.42317 0.0
H2197 H 0.46062 0.24271 0.44043 0.0
H2198 H 0.44301 0.23762 0.42179 0.0
C2199 C 0.31941 0.15357 0.43028 0.0
C2200 C 0.87971 0.24336 0.42716 0.0
C2201 C 0.88825 0.20404 0.42306 0.0
H2202 H 0.87011 0.27936 0.44079 0.0
C2203 C 0.88986 0.16779 0.42994 0.0
H2204 H 0.87904 0.27245 0.42213 0.0
C2205 C 0.88502 0.17197 0.44067 0.0
C2206 C 0.87816 0.21231 0.44478 0.0
H2207 H 0.89544 0.13644 0.42705 0.0
H2208 H 0.88712 0.14386 0.44577 0.0
C2209 C 0.87464 0.24738 0.43788 0.0
C2210 C 0.87844 0.69271 0.42855 0.0
C2211 C 0.83843 0.69466 0.42298 0.0
H2212 H 0.90674 0.68543 0.4435 0.0
C2213 C 0.79571 0.6911 0.4285 0.0
H2214 H 0.91178 0.69518 0.42451 0.0
C2215 C 0.79289 0.68566 0.4393 0.0
C2216 C 0.83266 0.68352 0.4449 0.0
H2217 H 0.76455 0.69319 0.42448 0.0
H2218 H 0.75908 0.68254 0.44326 0.0
C2219 C 0.8754 0.6868 0.4394 0.0
C2220 C 0.86387 0.65615 0.92845 0.0
C2221 C 0.88459 0.70728 0.92456 0.0
H2222 H 0.84343 0.60713 0.9419 0.0
C2223 C 0.89621 0.74823 0.9316 0.0
H2224 H 0.85512 0.62379 0.92328 0.0
C2225 C 0.88956 0.73868 0.9423 0.0
C2226 C 0.87099 0.68792 0.94622 0.0
H2227 H 0.91133 0.78792 0.92885 0.0
H2228 H 0.89982 0.77124 0.94752 0.0
C2229 C 0.85715 0.6466 0.93915 0.0
C2230 C 0.41024 0.21381 0.92901 0.0
C2231 C 0.36001 0.19097 0.92458 0.0
H2232 H 0.45608 0.23606 0.94294 0.0
C2233 C 0.31635 0.16889 0.93123 0.0
H2234 H 0.44469 0.23067 0.92412 0.0
C2235 C 0.32285 0.17159 0.94204 0.0
C2236 C 0.37315 0.19625 0.94647 0.0
H2237 H 0.2771 0.15136 0.9281 0.0
H2238 H 0.28842 0.15523 0.94693 0.0
C2239 C 0.41674 0.21635 0.93981 0.0
C2240 C 0.85948 0.12735 0.93126 0.0
C2241 C 0.86423 0.1665 0.92437 0.0
H2242 H 0.84931 0.10046 0.94697 0.0
C2243 C 0.86662 0.21181 0.92848 0.0
H2244 H 0.85681 0.09164 0.92833 0.0
C2245 C 0.8628 0.21715 0.93921 0.0
C2246 C 0.85606 0.1771 0.94608 0.0
H2247 H 0.871 0.24298 0.92339 0.0
H2248 H 0.8645 0.25245 0.94211 0.0
C2249 C 0.85532 0.13251 0.94197 0.0
C2250 C 0.65119 0.85358 0.59751 0.0
C2251 C 0.68952 0.85733 0.59052 0.0
H2252 H 0.63153 0.8586 0.6133 0.0
C2253 C 0.73695 0.86444 0.5945 0.0
H2254 H 0.61449 0.8488 0.59468 0.0
C2255 C 0.74661 0.86967 0.6052 0.0
C2256 C 0.70922 0.86833 0.61217 0.0
H2257 H 0.76693 0.86672 0.58932 0.0
H2258 H 0.78383 0.87571 0.60801 0.0
C2259 C 0.66095 0.85911 0.6082 0.0
C2260 C 0.19344 0.87642 0.59465 0.0
C2261 C 0.19479 0.83284 0.5906 0.0
H2262 H 0.188 0.91553 0.60821 0.0
C2263 C 0.19361 0.79547 0.59754 0.0
H2264 H 0.19508 0.90629 0.58951 0.0
C2265 C 0.18915 0.8005 0.60826 0.0
C2266 C 0.18601 0.84317 0.6123 0.0
H2267 H 0.1939 0.76108 0.59467 0.0
H2268 H 0.18593 0.76968 0.61331 0.0
C2269 C 0.18931 0.88163 0.60537 0.0
C2270 C 0.27594 0.366 0.59622 0.0
C2271 C 0.23616 0.36744 0.59049 0.0
H2272 H 0.30384 0.35934 0.61114 0.0
C2273 C 0.19313 0.36424 0.59585 0.0
H2274 H 0.30996 0.3691 0.59236 0.0
C2275 C 0.18972 0.35888 0.60671 0.0
C2276 C 0.22966 0.35741 0.61241 0.0
H2277 H 0.1618 0.36511 0.59164 0.0
H2278 H 0.15608 0.35625 0.61065 0.0
C2279 C 0.27276 0.3611 0.60702 0.0
C2280 C 0.08188 0.54984 0.76099 0.0
C2281 C 1.0311 0.51775 0.75707 0.0
H2282 H 0.13129 0.57744 0.77443 0.0
C2283 C 0.98997 0.49029 0.76416 0.0
H2284 H 0.11431 0.57215 0.75576 0.0
C2285 C 0.9997 0.49319 0.77486 0.0
C2286 C 0.05081 0.52365 0.77875 0.0
H2287 H 0.95049 0.4646 0.76142 0.0
H2288 H 0.96743 0.46967 0.78004 0.0
C2289 C 0.0916 0.55281 0.77169 0.0
C2290 C 0.55568 0.49592 0.76387 0.0
C2291 C 0.55031 0.53011 0.75701 0.0
H2292 H 0.55507 0.47266 0.77967 0.0
C2293 C 0.53668 0.56587 0.76113 0.0
H2294 H 0.5652 0.46724 0.76095 0.0
C2295 C 0.53066 0.5688 0.77185 0.0
C2296 C 0.53821 0.53611 0.77874 0.0
H2297 H 0.53292 0.59328 0.75611 0.0
H2298 H 0.52242 0.59836 0.77478 0.0
C2299 C 0.54981 0.49896 0.7746 0.0
C2300 C 0.46231 0.02499 0.76243 0.0
C2301 C 0.50449 0.02788 0.75681 0.0
H2302 H 0.42645 1.01683 0.77726 0.0
C2303 C 0.54433 0.02513 0.76228 0.0
H2304 H 0.43132 0.0277 0.75849 0.0
C2305 C 0.54165 1.01913 0.77313 0.0
C2306 C 0.49947 1.01652 0.77872 0.0
H2307 H 0.57725 0.02707 0.75817 0.0
H2308 H 0.57286 1.01717 0.77715 0.0
C2309 C 0.45985 1.01943 0.77322 0.0
C2310 C 0.60985 0.02752 0.2626 0.0
C2311 C 0.57035 0.03008 0.25698 0.0
H2312 H 0.63789 1.01978 0.27742 0.0
C2313 C 0.52785 0.02743 0.26246 0.0
H2314 H 0.64348 0.03017 0.25865 0.0
C2315 C 0.52476 1.02174 0.27331 0.0
C2316 C 0.56449 1.01933 0.27889 0.0
H2317 H 0.49673 0.02914 0.25834 0.0
H2318 H 0.49162 1.01975 0.27733 0.0
C2319 C 0.60698 1.02225 0.27339 0.0
C2320 C 1.03022 0.58132 0.27338 0.0
C2321 C 0.03589 0.54235 0.2785 0.0
H2322 H 1.02047 0.61118 0.25895 0.0
C2323 C 1.03566 0.50218 0.27255 0.0
H2324 H 1.03105 0.61327 0.2777 0.0
C2325 C 1.02982 0.50114 0.2617 0.0
C2326 C 1.02494 0.5407 0.25662 0.0
H2327 H 0.03985 0.47157 0.27627 0.0
H2328 H 1.0301 0.47 0.25729 0.0
C2329 C 1.02487 0.58053 0.2626 0.0
C2330 C 0.56602 0.50157 0.26452 0.0
C2331 C 0.53373 0.50872 0.25745 0.0
H2332 H 0.58647 0.50036 0.28046 0.0
C2333 C 0.4988 0.52396 0.26132 0.0
H2334 H 0.59404 0.49076 0.26179 0.0
C2335 C 0.49463 0.52964 0.27202 0.0
C2336 C 0.52523 0.52014 0.2791 0.0
H2337 H 0.47284 0.52912 0.25613 0.0
H2338 H 0.46561 0.53905 0.27475 0.0
C2339 C 0.56175 0.50712 0.27522 0.0
C2340 C 0.98945 0.11919 0.26929 0.0
C2341 C 1.00521 0.15831 0.27697 0.0
H2342 H 0.99943 0.09952 0.25374 0.0
C2343 C 0.04457 0.20952 0.27442 0.0
H2344 H 0.95859 0.07953 0.27083 0.0
C2345 C 0.06789 0.22107 0.26455 0.0
C2346 C 0.05269 0.18172 0.25694 0.0
H2347 H 0.0584 0.2406 0.28014 0.0
H2348 H 0.09882 0.26065 0.26296 0.0
C2349 C 1.01289 0.13069 0.25944 0.0
C2350 C 0.87061 0.82909 0.27011 0.0
C2351 C 0.89586 0.86904 0.27756 0.0
H2352 H 0.8413 0.80864 0.25456 0.0
C2353 C 0.90909 0.92039 0.2748 0.0
H2354 H 0.86043 0.78923 0.27191 0.0
C2355 C 0.89788 0.93154 0.26485 0.0
C2356 C 0.87327 0.89174 0.25733 0.0
H2357 H 0.92773 0.95206 0.28037 0.0
H2358 H 0.90813 0.97147 0.2631 0.0
C2359 C 0.85957 0.84028 0.26014 0.0
C2360 C 0.23302 1.02354 0.27273 0.0
C2361 C 0.19659 0.03068 0.27853 0.0
H2362 H 0.25083 0.99901 0.25836 0.0
C2363 C 0.14806 1.01647 0.27389 0.0
H2364 H 0.27059 0.03345 0.27604 0.0
C2365 C 0.13651 0.9962 0.26375 0.0
C2366 C 0.17308 0.98942 0.25792 0.0
H2367 H 0.11915 1.02187 0.27801 0.0
H2368 H 0.09858 0.98547 0.26052 0.0
C2369 C 0.22143 1.00318 0.26259 0.0
C2370 C 0.04231 0.90971 0.77489 0.0
C2371 C 1.00829 0.85834 0.77834 0.0
H2372 H 0.08953 0.95931 0.76253 0.0
C2373 C 0.99621 0.81665 0.77145 0.0
H2374 H 0.05343 0.94279 0.78001 0.0
C2375 C 1.01691 0.82617 0.76135 0.0
C2376 C 0.05032 0.87765 0.75785 0.0
H2377 H 0.96972 0.77662 0.77378 0.0
H2378 H 1.00577 0.79317 0.7562 0.0
C2379 C 0.06302 0.91921 0.76481 0.0
C2380 C 0.174 0.13746 0.76092 0.0
C2381 C 0.18869 0.18854 0.75767 0.0
H2382 H 0.17192 0.0879 0.77327 0.0
C2383 C 0.21409 0.22978 0.76486 0.0
H2384 H 0.1553 0.10481 0.75557 0.0
C2385 C 0.22362 0.22003 0.77508 0.0
C2386 C 0.20797 0.16877 0.77837 0.0
H2387 H 0.22539 0.26952 0.76269 0.0
H2388 H 0.24209 0.25255 0.78046 0.0
C2389 C 0.1835 0.12773 0.77111 0.0
C2390 C 0.9388 0.08353 0.76955 0.0
C2391 C 0.90064 0.06409 0.77743 0.0
H2392 H 0.95734 0.07881 0.75363 0.0
C2393 C 0.84987 1.02388 0.77487 0.0
H2394 H 0.97803 0.11518 0.77113 0.0
C2395 C 0.83793 1.00307 0.76478 0.0
C2396 C 0.87643 1.02182 0.75696 0.0
H2397 H 0.81958 1.0074 0.78074 0.0
H2398 H 0.79883 0.97119 0.76319 0.0
C2399 C 0.9269 0.06268 0.75947 0.0
C2400 C 0.71271 0.54623 0.6076 0.0
C2401 C 0.67589 0.49473 0.61057 0.0
H2402 H 0.76393 0.59687 0.59571 0.0
C2403 C 0.66143 0.45442 0.6032 0.0
H2404 H 0.72545 0.57827 0.61307 0.0
C2405 C 0.6837 0.4651 0.59325 0.0
C2406 C 0.72103 0.51647 0.59033 0.0
H2407 H 0.63244 0.41442 0.60507 0.0
H2408 H 0.67126 0.43301 0.5878 0.0
C2409 C 0.73489 0.55695 0.59762 0.0
C2410 C 0.53443 0.16046 0.60421 0.0
C2411 C 0.56152 0.20088 0.61149 0.0
H2412 H 0.50381 0.1394 0.58875 0.0
C2413 C 0.57662 0.25247 0.60854 0.0
H2414 H 0.52275 0.12036 0.60616 0.0
C2415 C 0.56554 0.26342 0.59856 0.0
C2416 C 0.53918 0.22314 0.5912 0.0
H2417 H 0.59669 0.28454 0.61398 0.0
H2418 H 0.57733 0.30359 0.59666 0.0
C2419 C 0.52351 0.17143 0.59421 0.0
C2420 C 0.90076 0.35826 0.60672 0.0
C2421 C 0.8636 0.36335 0.6127 0.0
H2422 H 0.9192 0.33605 0.59215 0.0
C2423 C 0.81437 0.34758 0.60823 0.0
H2424 H 0.93888 0.36942 0.60991 0.0
C2425 C 0.80287 0.32789 0.59806 0.0
C2426 C 0.84022 0.32334 0.59203 0.0
H2427 H 0.78488 0.35138 0.61251 0.0
H2428 H 0.76444 0.31597 0.59494 0.0
C2429 C 0.88923 0.33852 0.59654 0.0
C2430 C 0.66573 0.21298 0.09292 0.0
C2431 C 0.70705 0.204 0.09051 0.0
H2432 H 0.61218 0.21037 0.10442 0.0
C2433 C 0.72565 0.18416 0.09834 0.0
H2434 H 0.64978 0.22738 0.08704 0.0
C2435 C 0.70421 0.17462 0.10837 0.0
C2436 C 0.6635 0.18452 0.11083 0.0
H2437 H 0.75786 0.1774 0.09682 0.0
H2438 H 0.72059 0.16082 0.11427 0.0
C2439 C 0.6442 0.20329 0.10291 0.0
C2440 C 0.85717 0.45193 0.10226 0.0
C2441 C 0.87632 0.49024 0.11014 0.0
H2442 H 0.83334 0.43325 0.08636 0.0
C2443 C 0.88695 0.54107 0.10761 0.0
H2444 H 0.84951 0.41264 0.10382 0.0
C2445 C 0.87784 0.55297 0.09754 0.0
C2446 C 0.85776 0.51436 0.08972 0.0
H2447 H 0.90104 0.57147 0.11348 0.0
H2448 H 0.8852 0.59215 0.09597 0.0
C2449 C 0.84796 0.46379 0.09221 0.0
C2450 C 0.51742 0.3507 0.10845 0.0
C2451 C 0.56649 0.39455 0.11073 0.0
H2452 H 0.46781 0.29515 0.09699 0.0
C2453 C 0.60287 0.41729 0.10258 0.0
H2454 H 0.48861 0.33162 0.11452 0.0
C2455 C 0.59096 0.39626 0.09252 0.0
C2456 C 0.54224 0.35192 0.09028 0.0
H2457 H 0.64066 0.45169 0.10394 0.0
H2458 H 0.61996 0.415 0.08646 0.0
C2459 C 0.50545 0.32973 0.09837 0.0
C2460 C 0.42659 0.84332 0.93309 0.0
C2461 C 0.40849 0.86367 0.92525 0.0
H2462 H 0.42055 0.81866 0.94895 0.0
C2463 C 0.3691 0.87538 0.92782 0.0
H2464 H 0.45754 0.83473 0.93151 0.0
C2465 C 0.34797 0.86633 0.93788 0.0
C2466 C 0.3655 0.84518 0.94566 0.0
H2467 H 0.35353 0.89036 0.92199 0.0
H2468 H 0.31682 0.87461 0.93947 0.0
C2469 C 0.40538 0.83415 0.94313 0.0
C2470 C 0.19185 0.49061 0.93825 0.0
C2471 C 0.21102 0.52888 0.94614 0.0
H2472 H 0.16952 0.47254 0.92226 0.0
C2473 C 0.21998 0.57924 0.94372 0.0
H2474 H 0.18515 0.45162 0.93977 0.0
C2475 C 0.21091 0.59124 0.93367 0.0
C2476 C 0.19274 0.5533 0.92572 0.0
H2477 H 0.23385 0.6095 0.94962 0.0
H2478 H 0.21795 0.63035 0.93216 0.0
C2479 C 0.18287 0.50265 0.92818 0.0
C2480 C 0.53581 0.65001 0.9314 0.0
C2481 C 0.50953 0.66542 0.92435 0.0
H2482 H 0.56634 0.65656 0.9468 0.0
C2483 C 0.49541 0.7021 0.92771 0.0
H2484 H 0.54672 0.62137 0.92915 0.0
C2485 C 0.50669 0.72232 0.93783 0.0
C2486 C 0.53238 0.70644 0.94493 0.0
H2487 H 0.47602 0.7157 0.92247 0.0
H2488 H 0.49576 0.75099 0.94005 0.0
C2489 C 0.54706 0.67021 0.94154 0.0
C2490 C 0.35941 0.57799 0.4393 0.0
C2491 C 0.34818 0.5314 0.44446 0.0
H2492 H 0.38973 0.62545 0.42568 0.0
C2493 C 0.35921 0.49595 0.43928 0.0
H2494 H 0.35094 0.60603 0.44295 0.0
C2495 C 0.38091 0.50681 0.42927 0.0
C2496 C 0.39213 0.55341 0.42412 0.0
H2497 H 0.35165 0.45992 0.44301 0.0
H2498 H 0.38836 0.47831 0.42551 0.0
C2499 C 0.38108 0.58884 0.4293 0.0
C2500 C 0.53668 0.89858 0.43145 0.0
C2501 C 0.50465 0.85686 0.42477 0.0
H2502 H 0.5721 0.92209 0.44651 0.0
C2503 C 0.48497 0.80535 0.42838 0.0
H2504 H 0.55201 0.93874 0.42899 0.0
C2505 C 0.49656 0.7958 0.43841 0.0
C2506 C 0.52809 0.83745 0.44516 0.0
H2507 H 0.46101 0.77222 0.4234 0.0
H2508 H 0.48127 0.75557 0.44083 0.0
C2509 C 0.54821 0.88901 0.44152 0.0
C2510 C 0.18127 0.70971 0.43885 0.0
C2511 C 0.23025 0.7245 0.44334 0.0
H2512 H 0.13119 0.67863 0.42555 0.0
C2513 C 0.26712 0.7191 0.43732 0.0
H2514 H 0.15166 0.71283 0.44324 0.0
C2515 C 0.25514 0.69891 0.42719 0.0
C2516 C 0.20592 0.68348 0.42275 0.0
H2517 H 0.30552 0.73069 0.44041 0.0
H2518 H 0.28426 0.69443 0.42291 0.0
C2519 C 0.16928 0.68948 0.42872 0.0
loop_
_geom_bond_atom_site_label_1
_geom_bond_atom_site_label_2
_geom_bond_distance
_geom_bond_site_symmetry_2
_ccdc_geom_bond_type
Gd0 C3 2.818 . S
Gd0 O20 2.377 . S
Gd0 O22 2.448 . S
Gd0 O23 2.506 . S
Gd0 O24 2.435 . S
Gd0 O25 2.717 . S
Gd0 O27 2.395 . S
Gd0 O31 2.327 . S
Gd1 C12 2.818 . S
Gd1 O21 2.395 . S
Gd1 O25 2.327 . S
Gd1 O26 2.377 . S
Gd1 O28 2.448 . S
Gd1 O29 2.506 . S
Gd1 O30 2.435 . S
Gd1 O31 2.717 . S
C2 O20 1.240 . S
C2 O21 1.240 . S
C3 Gd0 2.818 . S
C3 C4 1.510 . S
C3 O22 1.249 . S
C3 O23 1.252 . S
C4 C3 1.510 . S
C4 C5 1.404 . S
C4 C6 1.352 . S
C5 C4 1.404 . S
C5 C9 1.389 . S
C5 H32 0.930 . S
C6 C4 1.352 . S
C6 C8 1.374 . S
C6 H33 0.931 . S
C7 C8 1.359 . S
C7 C9 1.364 . S
C8 C6 1.374 . S
C8 C7 1.359 . S
C8 H34 0.931 . S
C9 C5 1.389 . S
C9 C7 1.364 . S
C9 H35 0.931 . S
C10 O24 1.256 . S
C10 O25 1.257 . S
C11 O26 1.240 . S
C11 O27 1.240 . S
C12 Gd1 2.818 . S
C12 C13 1.510 . S
C12 O28 1.249 . S
C12 O29 1.252 . S
C13 C12 1.510 . S
C13 C14 1.404 . S
C13 C15 1.352 . S
C14 C13 1.404 . S
C14 C18 1.389 . S
C14 H36 0.930 . S
C15 C13 1.352 . S
C15 C17 1.374 . S
C15 H37 0.931 . S
C16 C17 1.359 . S
C16 C18 1.364 . S
C17 C15 1.374 . S
C17 C16 1.359 . S
C17 H38 0.931 . S
C18 C14 1.389 . S
C18 C16 1.364 . S
C18 H39 0.931 . S
C19 O30 1.256 . S
C19 O31 1.257 . S
O20 Gd0 2.377 . S
O20 C2 1.240 . S
O21 Gd1 2.395 . S
O21 C2 1.240 . S
O22 Gd0 2.448 . S
O22 C3 1.249 . S
O23 Gd0 2.506 . S
O23 C3 1.252 . S
O24 Gd0 2.435 . S
O24 C10 1.256 . S
O25 Gd0 2.717 . S
O25 Gd1 2.327 . S
O25 C10 1.257 . S
O26 Gd1 2.377 . S
O26 C11 1.240 . S
O27 Gd0 2.395 . S
O27 C11 1.240 . S
O28 Gd1 2.448 . S
O28 C12 1.249 . S
O29 Gd1 2.506 . S
O29 C12 1.252 . S
O30 Gd1 2.435 . S
O30 C19 1.256 . S
O31 Gd0 2.327 . S
O31 Gd1 2.717 . S
O31 C19 1.257 . S
H32 C5 0.930 . S
H33 C6 0.931 . S
H34 C8 0.931 . S
H35 C9 0.931 . S
H36 C14 0.930 . S
H37 C15 0.931 . S
H38 C17 0.931 . S
H39 C18 0.931 . S
Gd40 C43 2.818 . S
Gd40 O60 2.377 . S
Gd40 O62 2.448 . S
Gd40 O63 2.506 . S
Gd40 O64 2.435 . S
Gd40 O65 2.717 . S
Gd40 O67 2.395 . S
Gd40 O71 2.327 . S
Gd41 C52 2.818 . S
Gd41 O61 2.395 . S
Gd41 O65 2.327 . S
Gd41 O66 2.377 . S
Gd41 O68 2.448 . S
Gd41 O69 2.506 . S
Gd41 O70 2.435 . S
Gd41 O71 2.717 . S
C42 O60 1.240 . S
C42 O61 1.240 . S
C43 Gd40 2.818 . S
C43 C44 1.510 . S
C43 O62 1.249 . S
C43 O63 1.252 . S
C44 C43 1.510 . S
C44 C45 1.404 . S
C44 C46 1.352 . S
C45 C44 1.404 . S
C45 C49 1.389 . S
C45 H72 0.930 . S
C46 C44 1.352 . S
C46 C48 1.374 . S
C46 H73 0.931 . S
C47 C48 1.359 . S
C47 C49 1.364 . S
C48 C46 1.374 . S
C48 C47 1.359 . S
C48 H74 0.931 . S
C49 C45 1.389 . S
C49 C47 1.364 . S
C49 H75 0.931 . S
C50 O64 1.256 . S
C50 O65 1.257 . S
C51 O66 1.240 . S
C51 O67 1.240 . S
C52 Gd41 2.818 . S
C52 C53 1.510 . S
C52 O68 1.249 . S
C52 O69 1.252 . S
C53 C52 1.510 . S
C53 C54 1.404 . S
C53 C55 1.352 . S
C54 C53 1.404 . S
C54 C58 1.389 . S
C54 H76 0.930 . S
C55 C53 1.352 . S
C55 C57 1.374 . S
C55 H77 0.931 . S
C56 C57 1.359 . S
C56 C58 1.364 . S
C57 C55 1.374 . S
C57 C56 1.359 . S
C57 H78 0.931 . S
C58 C54 1.389 . S
C58 C56 1.364 . S
C58 H79 0.931 . S
C59 O70 1.256 . S
C59 O71 1.257 . S
O60 Gd40 2.377 . S
O60 C42 1.240 . S
O61 Gd41 2.395 . S
O61 C42 1.240 . S
O62 Gd40 2.448 . S
O62 C43 1.249 . S
O63 Gd40 2.506 . S
O63 C43 1.252 . S
O64 Gd40 2.435 . S
O64 C50 1.256 . S
O65 Gd40 2.717 . S
O65 Gd41 2.327 . S
O65 C50 1.257 . S
O66 Gd41 2.377 . S
O66 C51 1.240 . S
O67 Gd40 2.395 . S
O67 C51 1.240 . S
O68 Gd41 2.448 . S
O68 C52 1.249 . S
O69 Gd41 2.506 . S
O69 C52 1.252 . S
O70 Gd41 2.435 . S
O70 C59 1.256 . S
O71 Gd40 2.327 . S
O71 Gd41 2.717 . S
O71 C59 1.257 . S
H72 C45 0.930 . S
H73 C46 0.931 . S
H74 C48 0.931 . S
H75 C49 0.931 . S
H76 C54 0.930 . S
H77 C55 0.931 . S
H78 C57 0.931 . S
H79 C58 0.931 . S
Gd80 C83 2.818 . S
Gd80 O100 2.377 . S
Gd80 O102 2.448 . S
Gd80 O103 2.506 . S
Gd80 O104 2.435 . S
Gd80 O105 2.717 . S
Gd80 O107 2.395 . S
Gd80 O111 2.327 . S
Gd81 C92 2.818 . S
Gd81 O101 2.395 . S
Gd81 O105 2.327 . S
Gd81 O106 2.377 . S
Gd81 O108 2.448 . S
Gd81 O109 2.506 . S
Gd81 O110 2.435 . S
Gd81 O111 2.717 . S
C82 O100 1.240 . S
C82 O101 1.240 . S
C83 Gd80 2.818 . S
C83 C84 1.510 . S
C83 O102 1.249 . S
C83 O103 1.252 . S
C84 C83 1.510 . S
C84 C85 1.404 . S
C84 C86 1.352 . S
C85 C84 1.404 . S
C85 C89 1.389 . S
C85 H112 0.930 . S
C86 C84 1.352 . S
C86 C88 1.374 . S
C86 H113 0.931 . S
C87 C88 1.359 . S
C87 C89 1.364 . S
C88 C86 1.374 . S
C88 C87 1.359 . S
C88 H114 0.931 . S
C89 C85 1.389 . S
C89 C87 1.364 . S
C89 H115 0.931 . S
C90 O104 1.256 . S
C90 O105 1.257 . S
C91 O106 1.240 . S
C91 O107 1.240 . S
C92 Gd81 2.818 . S
C92 C93 1.510 . S
C92 O108 1.249 . S
C92 O109 1.252 . S
C93 C92 1.510 . S
C93 C94 1.404 . S
C93 C95 1.352 . S
C94 C93 1.404 . S
C94 C98 1.389 . S
C94 H116 0.930 . S
C95 C93 1.352 . S
C95 C97 1.374 . S
C95 H117 0.931 . S
C96 C97 1.359 . S
C96 C98 1.364 . S
C97 C95 1.374 . S
C97 C96 1.359 . S
C97 H118 0.931 . S
C98 C94 1.389 . S
C98 C96 1.364 . S
C98 H119 0.931 . S
C99 O110 1.256 . S
C99 O111 1.257 . S
O100 Gd80 2.377 . S
O100 C82 1.240 . S
O101 Gd81 2.395 . S
O101 C82 1.240 . S
O102 Gd80 2.448 . S
O102 C83 1.249 . S
O103 Gd80 2.506 . S
O103 C83 1.252 . S
O104 Gd80 2.435 . S
O104 C90 1.256 . S
O105 Gd80 2.717 . S
O105 Gd81 2.327 . S
O105 C90 1.257 . S
O106 Gd81 2.377 . S
O106 C91 1.240 . S
O107 Gd80 2.395 . S
O107 C91 1.240 . S
O108 Gd81 2.448 . S
O108 C92 1.249 . S
O109 Gd81 2.506 . S
O109 C92 1.252 . S
O110 Gd81 2.435 . S
O110 C99 1.256 . S
O111 Gd80 2.327 . S
O111 Gd81 2.717 . S
O111 C99 1.257 . S
H112 C85 0.930 . S
H113 C86 0.931 . S
H114 C88 0.931 . S
H115 C89 0.931 . S
H116 C94 0.930 . S
H117 C95 0.931 . S
H118 C97 0.931 . S
H119 C98 0.931 . S
Gd120 C123 2.818 . S
Gd120 O140 2.377 . S
Gd120 O142 2.448 . S
Gd120 O143 2.506 . S
Gd120 O144 2.435 . S
Gd120 O145 2.717 . S
Gd120 O147 2.395 . S
Gd120 O151 2.327 . S
Gd121 C132 2.818 . S
Gd121 O141 2.395 . S
Gd121 O145 2.327 . S
Gd121 O146 2.377 . S
Gd121 O148 2.448 . S
Gd121 O149 2.506 . S
Gd121 O150 2.435 . S
Gd121 O151 2.717 . S
C122 O140 1.240 . S
C122 O141 1.240 . S
C123 Gd120 2.818 . S
C123 C124 1.510 . S
C123 O142 1.249 . S
C123 O143 1.252 . S
C124 C123 1.510 . S
C124 C125 1.404 . S
C124 C126 1.352 . S
C125 C124 1.404 . S
C125 C129 1.389 . S
C125 H152 0.930 . S
C126 C124 1.352 . S
C126 C128 1.374 . S
C126 H153 0.931 . S
C127 C128 1.359 . S
C127 C129 1.364 . S
C128 C126 1.374 . S
C128 C127 1.359 . S
C128 H154 0.931 . S
C129 C125 1.389 . S
C129 C127 1.364 . S
C129 H155 0.931 . S
C130 O144 1.256 . S
C130 O145 1.257 . S
C131 O146 1.240 . S
C131 O147 1.240 . S
C132 Gd121 2.818 . S
C132 C133 1.510 . S
C132 O148 1.249 . S
C132 O149 1.252 . S
C133 C132 1.510 . S
C133 C134 1.404 . S
C133 C135 1.352 . S
C134 C133 1.404 . S
C134 C138 1.389 . S
C134 H156 0.930 . S
C135 C133 1.352 . S
C135 C137 1.374 . S
C135 H157 0.931 . S
C136 C137 1.359 . S
C136 C138 1.364 . S
C137 C135 1.374 . S
C137 C136 1.359 . S
C137 H158 0.931 . S
C138 C134 1.389 . S
C138 C136 1.364 . S
C138 H159 0.931 . S
C139 O150 1.256 . S
C139 O151 1.257 . S
O140 Gd120 2.377 . S
O140 C122 1.240 . S
O141 Gd121 2.395 . S
O141 C122 1.240 . S
O142 Gd120 2.448 . S
O142 C123 1.249 . S
O143 Gd120 2.506 . S
O143 C123 1.252 . S
O144 Gd120 2.435 . S
O144 C130 1.256 . S
O145 Gd120 2.717 . S
O145 Gd121 2.327 . S
O145 C130 1.257 . S
O146 Gd121 2.377 . S
O146 C131 1.240 . S
O147 Gd120 2.395 . S
O147 C131 1.240 . S
O148 Gd121 2.448 . S
O148 C132 1.249 . S
O149 Gd121 2.506 . S
O149 C132 1.252 . S
O150 Gd121 2.435 . S
O150 C139 1.256 . S
O151 Gd120 2.327 . S
O151 Gd121 2.717 . S
O151 C139 1.257 . S
H152 C125 0.930 . S
H153 C126 0.931 . S
H154 C128 0.931 . S
H155 C129 0.931 . S
H156 C134 0.930 . S
H157 C135 0.931 . S
H158 C137 0.931 . S
H159 C138 0.931 . S
Gd160 C163 2.818 . S
Gd160 O180 2.377 . S
Gd160 O182 2.448 . S
Gd160 O183 2.506 . S
Gd160 O184 2.435 . S
Gd160 O185 2.717 . S
Gd160 O187 2.395 . S
Gd160 O191 2.327 . S
Gd161 C172 2.818 . S
Gd161 O181 2.395 . S
Gd161 O185 2.327 . S
Gd161 O186 2.377 . S
Gd161 O188 2.448 . S
Gd161 O189 2.506 . S
Gd161 O190 2.435 . S
Gd161 O191 2.717 . S
C162 O180 1.240 . S
C162 O181 1.240 . S
C163 Gd160 2.818 . S
C163 C164 1.510 . S
C163 O182 1.249 . S
C163 O183 1.252 . S
C164 C163 1.510 . S
C164 C165 1.404 . S
C164 C166 1.352 . S
C165 C164 1.404 . S
C165 C169 1.389 . S
C165 H192 0.930 . S
C166 C164 1.352 . S
C166 C168 1.374 . S
C166 H193 0.931 . S
C167 C168 1.359 . S
C167 C169 1.364 . S
C168 C166 1.374 . S
C168 C167 1.359 . S
C168 H194 0.931 . S
C169 C165 1.389 . S
C169 C167 1.364 . S
C169 H195 0.931 . S
C170 O184 1.256 . S
C170 O185 1.257 . S
C171 O186 1.240 . S
C171 O187 1.240 . S
C172 Gd161 2.818 . S
C172 C173 1.510 . S
C172 O188 1.249 . S
C172 O189 1.252 . S
C173 C172 1.510 . S
C173 C174 1.404 . S
C173 C175 1.352 . S
C174 C173 1.404 . S
C174 C178 1.389 . S
C174 H196 0.930 . S
C175 C173 1.352 . S
C175 C177 1.374 . S
C175 H197 0.931 . S
C176 C177 1.359 . S
C176 C178 1.364 . S
C177 C175 1.374 . S
C177 C176 1.359 . S
C177 H198 0.931 . S
C178 C174 1.389 . S
C178 C176 1.364 . S
C178 H199 0.931 . S
C179 O190 1.256 . S
C179 O191 1.257 . S
O180 Gd160 2.377 . S
O180 C162 1.240 . S
O181 Gd161 2.395 . S
O181 C162 1.240 . S
O182 Gd160 2.448 . S
O182 C163 1.249 . S
O183 Gd160 2.506 . S
O183 C163 1.252 . S
O184 Gd160 2.435 . S
O184 C170 1.256 . S
O185 Gd160 2.717 . S
O185 Gd161 2.327 . S
O185 C170 1.257 . S
O186 Gd161 2.377 . S
O186 C171 1.240 . S
O187 Gd160 2.395 . S
O187 C171 1.240 . S
O188 Gd161 2.448 . S
O188 C172 1.249 . S
O189 Gd161 2.506 . S
O189 C172 1.252 . S
O190 Gd161 2.435 . S
O190 C179 1.256 . S
O191 Gd160 2.327 . S
O191 Gd161 2.717 . S
O191 C179 1.257 . S
H192 C165 0.930 . S
H193 C166 0.931 . S
H194 C168 0.931 . S
H195 C169 0.931 . S
H196 C174 0.930 . S
H197 C175 0.931 . S
H198 C177 0.931 . S
H199 C178 0.931 . S
Gd200 C203 2.818 . S
Gd200 O220 2.377 . S
Gd200 O222 2.448 . S
Gd200 O223 2.506 . S
Gd200 O224 2.435 . S
Gd200 O225 2.717 . S
Gd200 O227 2.395 . S
Gd200 O231 2.327 . S
Gd201 C212 2.818 . S
Gd201 O221 2.395 . S
Gd201 O225 2.327 . S
Gd201 O226 2.377 . S
Gd201 O228 2.448 . S
Gd201 O229 2.506 . S
Gd201 O230 2.435 . S
Gd201 O231 2.717 . S
C202 O220 1.240 . S
C202 O221 1.240 . S
C203 Gd200 2.818 . S
C203 C204 1.510 . S
C203 O222 1.249 . S
C203 O223 1.252 . S
C204 C203 1.510 . S
C204 C205 1.404 . S
C204 C206 1.352 . S
C205 C204 1.404 . S
C205 C209 1.389 . S
C205 H232 0.930 . S
C206 C204 1.352 . S
C206 C208 1.374 . S
C206 H233 0.931 . S
C207 C208 1.359 . S
C207 C209 1.364 . S
C208 C206 1.374 . S
C208 C207 1.359 . S
C208 H234 0.931 . S
C209 C205 1.389 . S
C209 C207 1.364 . S
C209 H235 0.931 . S
C210 O224 1.256 . S
C210 O225 1.257 . S
C211 O226 1.240 . S
C211 O227 1.240 . S
C212 Gd201 2.818 . S
C212 C213 1.510 . S
C212 O228 1.249 . S
C212 O229 1.252 . S
C213 C212 1.510 . S
C213 C214 1.404 . S
C213 C215 1.352 . S
C214 C213 1.404 . S
C214 C218 1.389 . S
C214 H236 0.930 . S
C215 C213 1.352 . S
C215 C217 1.374 . S
C215 H237 0.931 . S
C216 C217 1.359 . S
C216 C218 1.364 . S
C217 C215 1.374 . S
C217 C216 1.359 . S
C217 H238 0.931 . S
C218 C214 1.389 . S
C218 C216 1.364 . S
C218 H239 0.931 . S
C219 O230 1.256 . S
C219 O231 1.257 . S
O220 Gd200 2.377 . S
O220 C202 1.240 . S
O221 Gd201 2.395 . S
O221 C202 1.240 . S
O222 Gd200 2.448 . S
O222 C203 1.249 . S
O223 Gd200 2.506 . S
O223 C203 1.252 . S
O224 Gd200 2.435 . S
O224 C210 1.256 . S
O225 Gd200 2.717 . S
O225 Gd201 2.327 . S
O225 C210 1.257 . S
O226 Gd201 2.377 . S
O226 C211 1.240 . S
O227 Gd200 2.395 . S
O227 C211 1.240 . S
O228 Gd201 2.448 . S
O228 C212 1.249 . S
O229 Gd201 2.506 . S
O229 C212 1.252 . S
O230 Gd201 2.435 . S
O230 C219 1.256 . S
O231 Gd200 2.327 . S
O231 Gd201 2.717 . S
O231 C219 1.257 . S
H232 C205 0.930 . S
H233 C206 0.931 . S
H234 C208 0.931 . S
H235 C209 0.931 . S
H236 C214 0.930 . S
H237 C215 0.931 . S
H238 C217 0.931 . S
H239 C218 0.931 . S
Gd240 C243 2.818 . S
Gd240 O260 2.377 . S
Gd240 O262 2.448 . S
Gd240 O263 2.506 . S
Gd240 O264 2.435 . S
Gd240 O265 2.717 . S
Gd240 O267 2.395 . S
Gd240 O271 2.327 . S
Gd241 C252 2.818 . S
Gd241 O261 2.395 . S
Gd241 O265 2.327 . S
Gd241 O266 2.377 . S
Gd241 O268 2.448 . S
Gd241 O269 2.506 . S
Gd241 O270 2.435 . S
Gd241 O271 2.717 . S
C242 O260 1.240 . S
C242 O261 1.240 . S
C243 Gd240 2.818 . S
C243 C244 1.510 . S
C243 O262 1.249 . S
C243 O263 1.252 . S
C244 C243 1.510 . S
C244 C245 1.404 . S
C244 C246 1.352 . S
C245 C244 1.404 . S
C245 C249 1.389 . S
C245 H272 0.930 . S
C246 C244 1.352 . S
C246 C248 1.374 . S
C246 H273 0.931 . S
C247 C248 1.359 . S
C247 C249 1.364 . S
C248 C246 1.374 . S
C248 C247 1.359 . S
C248 H274 0.931 . S
C249 C245 1.389 . S
C249 C247 1.364 . S
C249 H275 0.931 . S
C250 O264 1.256 . S
C250 O265 1.257 . S
C251 O266 1.240 . S
C251 O267 1.240 . S
C252 Gd241 2.818 . S
C252 C253 1.510 . S
C252 O268 1.249 . S
C252 O269 1.252 . S
C253 C252 1.510 . S
C253 C254 1.404 . S
C253 C255 1.352 . S
C254 C253 1.404 . S
C254 C258 1.389 . S
C254 H276 0.930 . S
C255 C253 1.352 . S
C255 C257 1.374 . S
C255 H277 0.931 . S
C256 C257 1.359 . S
C256 C258 1.364 . S
C257 C255 1.374 . S
C257 C256 1.359 . S
C257 H278 0.931 . S
C258 C254 1.389 . S
C258 C256 1.364 . S
C258 H279 0.931 . S
C259 O270 1.256 . S
C259 O271 1.257 . S
O260 Gd240 2.377 . S
O260 C242 1.240 . S
O261 Gd241 2.395 . S
O261 C242 1.240 . S
O262 Gd240 2.448 . S
O262 C243 1.249 . S
O263 Gd240 2.506 . S
O263 C243 1.252 . S
O264 Gd240 2.435 . S
O264 C250 1.256 . S
O265 Gd240 2.717 . S
O265 Gd241 2.327 . S
O265 C250 1.257 . S
O266 Gd241 2.377 . S
O266 C251 1.240 . S
O267 Gd240 2.395 . S
O267 C251 1.240 . S
O268 Gd241 2.448 . S
O268 C252 1.249 . S
O269 Gd241 2.506 . S
O269 C252 1.252 . S
O270 Gd241 2.435 . S
O270 C259 1.256 . S
O271 Gd240 2.327 . S
O271 Gd241 2.717 . S
O271 C259 1.257 . S
H272 C245 0.930 . S
H273 C246 0.931 . S
H274 C248 0.931 . S
H275 C249 0.931 . S
H276 C254 0.930 . S
H277 C255 0.931 . S
H278 C257 0.931 . S
H279 C258 0.931 . S
Gd280 C283 2.818 . S
Gd280 O300 2.377 . S
Gd280 O302 2.448 . S
Gd280 O303 2.506 . S
Gd280 O304 2.435 . S
Gd280 O305 2.717 . S
Gd280 O307 2.395 . S
Gd280 O311 2.327 . S
Gd281 C292 2.818 . S
Gd281 O301 2.395 . S
Gd281 O305 2.327 . S
Gd281 O306 2.377 . S
Gd281 O308 2.448 . S
Gd281 O309 2.506 . S
Gd281 O310 2.435 . S
Gd281 O311 2.717 . S
C282 O300 1.240 . S
C282 O301 1.240 . S
C283 Gd280 2.818 . S
C283 C284 1.510 . S
C283 O302 1.249 . S
C283 O303 1.252 . S
C284 C283 1.510 . S
C284 C285 1.404 . S
C284 C286 1.352 . S
C285 C284 1.404 . S
C285 C289 1.389 . S
C285 H312 0.930 . S
C286 C284 1.352 . S
C286 C288 1.374 . S
C286 H313 0.931 . S
C287 C288 1.359 . S
C287 C289 1.364 . S
C288 C286 1.374 . S
C288 C287 1.359 . S
C288 H314 0.931 . S
C289 C285 1.389 . S
C289 C287 1.364 . S
C289 H315 0.931 . S
C290 O304 1.256 . S
C290 O305 1.257 . S
C291 O306 1.240 . S
C291 O307 1.240 . S
C292 Gd281 2.818 . S
C292 C293 1.510 . S
C292 O308 1.249 . S
C292 O309 1.252 . S
C293 C292 1.510 . S
C293 C294 1.404 . S
C293 C295 1.352 . S
C294 C293 1.404 . S
C294 C298 1.389 . S
C294 H316 0.930 . S
C295 C293 1.352 . S
C295 C297 1.374 . S
C295 H317 0.931 . S
C296 C297 1.359 . S
C296 C298 1.364 . S
C297 C295 1.374 . S
C297 C296 1.359 . S
C297 H318 0.931 . S
C298 C294 1.389 . S
C298 C296 1.364 . S
C298 H319 0.931 . S
C299 O310 1.256 . S
C299 O311 1.257 . S
O300 Gd280 2.377 . S
O300 C282 1.240 . S
O301 Gd281 2.395 . S
O301 C282 1.240 . S
O302 Gd280 2.448 . S
O302 C283 1.249 . S
O303 Gd280 2.506 . S
O303 C283 1.252 . S
O304 Gd280 2.435 . S
O304 C290 1.256 . S
O305 Gd280 2.717 . S
O305 Gd281 2.327 . S
O305 C290 1.257 . S
O306 Gd281 2.377 . S
O306 C291 1.240 . S
O307 Gd280 2.395 . S
O307 C291 1.240 . S
O308 Gd281 2.448 . S
O308 C292 1.249 . S
O309 Gd281 2.506 . S
O309 C292 1.252 . S
O310 Gd281 2.435 . S
O310 C299 1.256 . S
O311 Gd280 2.327 . S
O311 Gd281 2.717 . S
O311 C299 1.257 . S
H312 C285 0.930 . S
H313 C286 0.931 . S
H314 C288 0.931 . S
H315 C289 0.931 . S
H316 C294 0.930 . S
H317 C295 0.931 . S
H318 C297 0.931 . S
H319 C298 0.931 . S
Gd320 C323 2.818 . S
Gd320 O340 2.377 . S
Gd320 O342 2.448 . S
Gd320 O343 2.506 . S
Gd320 O344 2.435 . S
Gd320 O345 2.717 . S
Gd320 O347 2.395 . S
Gd320 O351 2.327 . S
Gd321 C332 2.818 . S
Gd321 O341 2.395 . S
Gd321 O345 2.327 . S
Gd321 O346 2.377 . S
Gd321 O348 2.448 . S
Gd321 O349 2.506 . S
Gd321 O350 2.435 . S
Gd321 O351 2.717 . S
C322 O340 1.240 . S
C322 O341 1.240 . S
C323 Gd320 2.818 . S
C323 C324 1.510 . S
C323 O342 1.249 . S
C323 O343 1.252 . S
C324 C323 1.510 . S
C324 C325 1.404 . S
C324 C326 1.352 . S
C325 C324 1.404 . S
C325 C329 1.389 . S
C325 H352 0.930 . S
C326 C324 1.352 . S
C326 C328 1.374 . S
C326 H353 0.931 . S
C327 C328 1.359 . S
C327 C329 1.364 . S
C328 C326 1.374 . S
C328 C327 1.359 . S
C328 H354 0.931 . S
C329 C325 1.389 . S
C329 C327 1.364 . S
C329 H355 0.931 . S
C330 O344 1.256 . S
C330 O345 1.257 . S
C331 O346 1.240 . S
C331 O347 1.240 . S
C332 Gd321 2.818 . S
C332 C333 1.510 . S
C332 O348 1.249 . S
C332 O349 1.252 . S
C333 C332 1.510 . S
C333 C334 1.404 . S
C333 C335 1.352 . S
C334 C333 1.404 . S
C334 C338 1.389 . S
C334 H356 0.930 . S
C335 C333 1.352 . S
C335 C337 1.374 . S
C335 H357 0.931 . S
C336 C337 1.359 . S
C336 C338 1.364 . S
C337 C335 1.374 . S
C337 C336 1.359 . S
C337 H358 0.931 . S
C338 C334 1.389 . S
C338 C336 1.364 . S
C338 H359 0.931 . S
C339 O350 1.256 . S
C339 O351 1.257 . S
O340 Gd320 2.377 . S
O340 C322 1.240 . S
O341 Gd321 2.395 . S
O341 C322 1.240 . S
O342 Gd320 2.448 . S
O342 C323 1.249 . S
O343 Gd320 2.506 . S
O343 C323 1.252 . S
O344 Gd320 2.435 . S
O344 C330 1.256 . S
O345 Gd320 2.717 . S
O345 Gd321 2.327 . S
O345 C330 1.257 . S
O346 Gd321 2.377 . S
O346 C331 1.240 . S
O347 Gd320 2.395 . S
O347 C331 1.240 . S
O348 Gd321 2.448 . S
O348 C332 1.249 . S
O349 Gd321 2.506 . S
O349 C332 1.252 . S
O350 Gd321 2.435 . S
O350 C339 1.256 . S
O351 Gd320 2.327 . S
O351 Gd321 2.717 . S
O351 C339 1.257 . S
H352 C325 0.930 . S
H353 C326 0.931 . S
H354 C328 0.931 . S
H355 C329 0.931 . S
H356 C334 0.930 . S
H357 C335 0.931 . S
H358 C337 0.931 . S
H359 C338 0.931 . S
Gd360 C363 2.818 . S
Gd360 O380 2.377 . S
Gd360 O382 2.448 . S
Gd360 O383 2.506 . S
Gd360 O384 2.435 . S
Gd360 O385 2.717 . S
Gd360 O387 2.395 . S
Gd360 O391 2.327 . S
Gd361 C372 2.818 . S
Gd361 O381 2.395 . S
Gd361 O385 2.327 . S
Gd361 O386 2.377 . S
Gd361 O388 2.448 . S
Gd361 O389 2.506 . S
Gd361 O390 2.435 . S
Gd361 O391 2.717 . S
C362 O380 1.240 . S
C362 O381 1.240 . S
C363 Gd360 2.818 . S
C363 C364 1.510 . S
C363 O382 1.249 . S
C363 O383 1.252 . S
C364 C363 1.510 . S
C364 C365 1.404 . S
C364 C366 1.352 . S
C365 C364 1.404 . S
C365 C369 1.389 . S
C365 H392 0.930 . S
C366 C364 1.352 . S
C366 C368 1.374 . S
C366 H393 0.931 . S
C367 C368 1.359 . S
C367 C369 1.364 . S
C368 C366 1.374 . S
C368 C367 1.359 . S
C368 H394 0.931 . S
C369 C365 1.389 . S
C369 C367 1.364 . S
C369 H395 0.931 . S
C370 O384 1.256 . S
C370 O385 1.257 . S
C371 O386 1.240 . S
C371 O387 1.240 . S
C372 Gd361 2.818 . S
C372 C373 1.510 . S
C372 O388 1.249 . S
C372 O389 1.252 . S
C373 C372 1.510 . S
C373 C374 1.404 . S
C373 C375 1.352 . S
C374 C373 1.404 . S
C374 C378 1.389 . S
C374 H396 0.930 . S
C375 C373 1.352 . S
C375 C377 1.374 . S
C375 H397 0.931 . S
C376 C377 1.359 . S
C376 C378 1.364 . S
C377 C375 1.374 . S
C377 C376 1.359 . S
C377 H398 0.931 . S
C378 C374 1.389 . S
C378 C376 1.364 . S
C378 H399 0.931 . S
C379 O390 1.256 . S
C379 O391 1.257 . S
O380 Gd360 2.377 . S
O380 C362 1.240 . S
O381 Gd361 2.395 . S
O381 C362 1.240 . S
O382 Gd360 2.448 . S
O382 C363 1.249 . S
O383 Gd360 2.506 . S
O383 C363 1.252 . S
O384 Gd360 2.435 . S
O384 C370 1.256 . S
O385 Gd360 2.717 . S
O385 Gd361 2.327 . S
O385 C370 1.257 . S
O386 Gd361 2.377 . S
O386 C371 1.240 . S
O387 Gd360 2.395 . S
O387 C371 1.240 . S
O388 Gd361 2.448 . S
O388 C372 1.249 . S
O389 Gd361 2.506 . S
O389 C372 1.252 . S
O390 Gd361 2.435 . S
O390 C379 1.256 . S
O391 Gd360 2.327 . S
O391 Gd361 2.717 . S
O391 C379 1.257 . S
H392 C365 0.930 . S
H393 C366 0.931 . S
H394 C368 0.931 . S
H395 C369 0.931 . S
H396 C374 0.930 . S
H397 C375 0.931 . S
H398 C377 0.931 . S
H399 C378 0.931 . S
Gd400 C403 2.818 . S
Gd400 O420 2.377 . S
Gd400 O422 2.448 . S
Gd400 O423 2.506 . S
Gd400 O424 2.435 . S
Gd400 O425 2.717 . S
Gd400 O427 2.395 . S
Gd400 O431 2.327 . S
Gd401 C412 2.818 . S
Gd401 O421 2.395 . S
Gd401 O425 2.327 . S
Gd401 O426 2.377 . S
Gd401 O428 2.448 . S
Gd401 O429 2.506 . S
Gd401 O430 2.435 . S
Gd401 O431 2.717 . S
C402 O420 1.240 . S
C402 O421 1.240 . S
C403 Gd400 2.818 . S
C403 C404 1.510 . S
C403 O422 1.249 . S
C403 O423 1.252 . S
C404 C403 1.510 . S
C404 C405 1.404 . S
C404 C406 1.352 . S
C405 C404 1.404 . S
C405 C409 1.389 . S
C405 H432 0.930 . S
C406 C404 1.352 . S
C406 C408 1.374 . S
C406 H433 0.931 . S
C407 C408 1.359 . S
C407 C409 1.364 . S
C408 C406 1.374 . S
C408 C407 1.359 . S
C408 H434 0.931 . S
C409 C405 1.389 . S
C409 C407 1.364 . S
C409 H435 0.931 . S
C410 O424 1.256 . S
C410 O425 1.257 . S
C411 O426 1.240 . S
C411 O427 1.240 . S
C412 Gd401 2.818 . S
C412 C413 1.510 . S
C412 O428 1.249 . S
C412 O429 1.252 . S
C413 C412 1.510 . S
C413 C414 1.404 . S
C413 C415 1.352 . S
C414 C413 1.404 . S
C414 C418 1.389 . S
C414 H436 0.930 . S
C415 C413 1.352 . S
C415 C417 1.374 . S
C415 H437 0.931 . S
C416 C417 1.359 . S
C416 C418 1.364 . S
C417 C415 1.374 . S
C417 C416 1.359 . S
C417 H438 0.931 . S
C418 C414 1.389 . S
C418 C416 1.364 . S
C418 H439 0.931 . S
C419 O430 1.256 . S
C419 O431 1.257 . S
O420 Gd400 2.377 . S
O420 C402 1.240 . S
O421 Gd401 2.395 . S
O421 C402 1.240 . S
O422 Gd400 2.448 . S
O422 C403 1.249 . S
O423 Gd400 2.506 . S
O423 C403 1.252 . S
O424 Gd400 2.435 . S
O424 C410 1.256 . S
O425 Gd400 2.717 . S
O425 Gd401 2.327 . S
O425 C410 1.257 . S
O426 Gd401 2.377 . S
O426 C411 1.240 . S
O427 Gd400 2.395 . S
O427 C411 1.240 . S
O428 Gd401 2.448 . S
O428 C412 1.249 . S
O429 Gd401 2.506 . S
O429 C412 1.252 . S
O430 Gd401 2.435 . S
O430 C419 1.256 . S
O431 Gd400 2.327 . S
O431 Gd401 2.717 . S
O431 C419 1.257 . S
H432 C405 0.930 . S
H433 C406 0.931 . S
H434 C408 0.931 . S
H435 C409 0.931 . S
H436 C414 0.930 . S
H437 C415 0.931 . S
H438 C417 0.931 . S
H439 C418 0.931 . S
Gd440 C443 2.818 . S
Gd440 O460 2.377 . S
Gd440 O462 2.448 . S
Gd440 O463 2.506 . S
Gd440 O464 2.435 . S
Gd440 O465 2.717 . S
Gd440 O467 2.395 . S
Gd440 O471 2.327 . S
Gd441 C452 2.818 . S
Gd441 O461 2.395 . S
Gd441 O465 2.327 . S
Gd441 O466 2.377 . S
Gd441 O468 2.448 . S
Gd441 O469 2.506 . S
Gd441 O470 2.435 . S
Gd441 O471 2.717 . S
C442 O460 1.240 . S
C442 O461 1.240 . S
C443 Gd440 2.818 . S
C443 C444 1.510 . S
C443 O462 1.249 . S
C443 O463 1.252 . S
C444 C443 1.510 . S
C444 C445 1.404 . S
C444 C446 1.352 . S
C445 C444 1.404 . S
C445 C449 1.389 . S
C445 H472 0.930 . S
C446 C444 1.352 . S
C446 C448 1.374 . S
C446 H473 0.931 . S
C447 C448 1.359 . S
C447 C449 1.364 . S
C448 C446 1.374 . S
C448 C447 1.359 . S
C448 H474 0.931 . S
C449 C445 1.389 . S
C449 C447 1.364 . S
C449 H475 0.931 . S
C450 O464 1.256 . S
C450 O465 1.257 . S
C451 O466 1.240 . S
C451 O467 1.240 . S
C452 Gd441 2.818 . S
C452 C453 1.510 . S
C452 O468 1.249 . S
C452 O469 1.252 . S
C453 C452 1.510 . S
C453 C454 1.404 . S
C453 C455 1.352 . S
C454 C453 1.404 . S
C454 C458 1.389 . S
C454 H476 0.930 . S
C455 C453 1.352 . S
C455 C457 1.374 . S
C455 H477 0.931 . S
C456 C457 1.359 . S
C456 C458 1.364 . S
C457 C455 1.374 . S
C457 C456 1.359 . S
C457 H478 0.931 . S
C458 C454 1.389 . S
C458 C456 1.364 . S
C458 H479 0.931 . S
C459 O470 1.256 . S
C459 O471 1.257 . S
O460 Gd440 2.377 . S
O460 C442 1.240 . S
O461 Gd441 2.395 . S
O461 C442 1.240 . S
O462 Gd440 2.448 . S
O462 C443 1.249 . S
O463 Gd440 2.506 . S
O463 C443 1.252 . S
O464 Gd440 2.435 . S
O464 C450 1.256 . S
O465 Gd440 2.717 . S
O465 Gd441 2.327 . S
O465 C450 1.257 . S
O466 Gd441 2.377 . S
O466 C451 1.240 . S
O467 Gd440 2.395 . S
O467 C451 1.240 . S
O468 Gd441 2.448 . S
O468 C452 1.249 . S
O469 Gd441 2.506 . S
O469 C452 1.252 . S
O470 Gd441 2.435 . S
O470 C459 1.256 . S
O471 Gd440 2.327 . S
O471 Gd441 2.717 . S
O471 C459 1.257 . S
H472 C445 0.930 . S
H473 C446 0.931 . S
H474 C448 0.931 . S
H475 C449 0.931 . S
H476 C454 0.930 . S
H477 C455 0.931 . S
H478 C457 0.931 . S
H479 C458 0.931 . S
Gd480 C483 2.818 . S
Gd480 O500 2.377 . S
Gd480 O502 2.448 . S
Gd480 O503 2.506 . S
Gd480 O504 2.435 . S
Gd480 O505 2.717 . S
Gd480 O507 2.395 . S
Gd480 O511 2.327 . S
Gd481 C492 2.818 . S
Gd481 O501 2.395 . S
Gd481 O505 2.327 . S
Gd481 O506 2.377 . S
Gd481 O508 2.448 . S
Gd481 O509 2.506 . S
Gd481 O510 2.435 . S
Gd481 O511 2.717 . S
C482 O500 1.240 . S
C482 O501 1.240 . S
C483 Gd480 2.818 . S
C483 C484 1.510 . S
C483 O502 1.249 . S
C483 O503 1.252 . S
C484 C483 1.510 . S
C484 C485 1.404 . S
C484 C486 1.352 . S
C485 C484 1.404 . S
C485 C489 1.389 . S
C485 H512 0.930 . S
C486 C484 1.352 . S
C486 C488 1.374 . S
C486 H513 0.931 . S
C487 C488 1.359 . S
C487 C489 1.364 . S
C488 C486 1.374 . S
C488 C487 1.359 . S
C488 H514 0.931 . S
C489 C485 1.389 . S
C489 C487 1.364 . S
C489 H515 0.931 . S
C490 O504 1.256 . S
C490 O505 1.257 . S
C491 O506 1.240 . S
C491 O507 1.240 . S
C492 Gd481 2.818 . S
C492 C493 1.510 . S
C492 O508 1.249 . S
C492 O509 1.252 . S
C493 C492 1.510 . S
C493 C494 1.404 . S
C493 C495 1.352 . S
C494 C493 1.404 . S
C494 C498 1.389 . S
C494 H516 0.930 . S
C495 C493 1.352 . S
C495 C497 1.374 . S
C495 H517 0.931 . S
C496 C497 1.359 . S
C496 C498 1.364 . S
C497 C495 1.374 . S
C497 C496 1.359 . S
C497 H518 0.931 . S
C498 C494 1.389 . S
C498 C496 1.364 . S
C498 H519 0.931 . S
C499 O510 1.256 . S
C499 O511 1.257 . S
O500 Gd480 2.377 . S
O500 C482 1.240 . S
O501 Gd481 2.395 . S
O501 C482 1.240 . S
O502 Gd480 2.448 . S
O502 C483 1.249 . S
O503 Gd480 2.506 . S
O503 C483 1.252 . S
O504 Gd480 2.435 . S
O504 C490 1.256 . S
O505 Gd480 2.717 . S
O505 Gd481 2.327 . S
O505 C490 1.257 . S
O506 Gd481 2.377 . S
O506 C491 1.240 . S
O507 Gd480 2.395 . S
O507 C491 1.240 . S
O508 Gd481 2.448 . S
O508 C492 1.249 . S
O509 Gd481 2.506 . S
O509 C492 1.252 . S
O510 Gd481 2.435 . S
O510 C499 1.256 . S
O511 Gd480 2.327 . S
O511 Gd481 2.717 . S
O511 C499 1.257 . S
H512 C485 0.930 . S
H513 C486 0.931 . S
H514 C488 0.931 . S
H515 C489 0.931 . S
H516 C494 0.930 . S
H517 C495 0.931 . S
H518 C497 0.931 . S
H519 C498 0.931 . S
Gd520 C523 2.818 . S
Gd520 O540 2.377 . S
Gd520 O542 2.448 . S
Gd520 O543 2.506 . S
Gd520 O544 2.435 . S
Gd520 O545 2.717 . S
Gd520 O547 2.395 . S
Gd520 O551 2.327 . S
Gd521 C532 2.818 . S
Gd521 O541 2.395 . S
Gd521 O545 2.327 . S
Gd521 O546 2.377 . S
Gd521 O548 2.448 . S
Gd521 O549 2.506 . S
Gd521 O550 2.435 . S
Gd521 O551 2.717 . S
C522 O540 1.240 . S
C522 O541 1.240 . S
C523 Gd520 2.818 . S
C523 C524 1.510 . S
C523 O542 1.249 . S
C523 O543 1.252 . S
C524 C523 1.510 . S
C524 C525 1.404 . S
C524 C526 1.352 . S
C525 C524 1.404 . S
C525 C529 1.389 . S
C525 H552 0.930 . S
C526 C524 1.352 . S
C526 C528 1.374 . S
C526 H553 0.931 . S
C527 C528 1.359 . S
C527 C529 1.364 . S
C528 C526 1.374 . S
C528 C527 1.359 . S
C528 H554 0.931 . S
C529 C525 1.389 . S
C529 C527 1.364 . S
C529 H555 0.931 . S
C530 O544 1.256 . S
C530 O545 1.257 . S
C531 O546 1.240 . S
C531 O547 1.240 . S
C532 Gd521 2.818 . S
C532 C533 1.510 . S
C532 O548 1.249 . S
C532 O549 1.252 . S
C533 C532 1.510 . S
C533 C534 1.404 . S
C533 C535 1.352 . S
C534 C533 1.404 . S
C534 C538 1.389 . S
C534 H556 0.930 . S
C535 C533 1.352 . S
C535 C537 1.374 . S
C535 H557 0.931 . S
C536 C537 1.359 . S
C536 C538 1.364 . S
C537 C535 1.374 . S
C537 C536 1.359 . S
C537 H558 0.931 . S
C538 C534 1.389 . S
C538 C536 1.364 . S
C538 H559 0.931 . S
C539 O550 1.256 . S
C539 O551 1.257 . S
O540 Gd520 2.377 . S
O540 C522 1.240 . S
O541 Gd521 2.395 . S
O541 C522 1.240 . S
O542 Gd520 2.448 . S
O542 C523 1.249 . S
O543 Gd520 2.506 . S
O543 C523 1.252 . S
O544 Gd520 2.435 . S
O544 C530 1.256 . S
O545 Gd520 2.717 . S
O545 Gd521 2.327 . S
O545 C530 1.257 . S
O546 Gd521 2.377 . S
O546 C531 1.240 . S
O547 Gd520 2.395 . S
O547 C531 1.240 . S
O548 Gd521 2.448 . S
O548 C532 1.249 . S
O549 Gd521 2.506 . S
O549 C532 1.252 . S
O550 Gd521 2.435 . S
O550 C539 1.256 . S
O551 Gd520 2.327 . S
O551 Gd521 2.717 . S
O551 C539 1.257 . S
H552 C525 0.930 . S
H553 C526 0.931 . S
H554 C528 0.931 . S
H555 C529 0.931 . S
H556 C534 0.930 . S
H557 C535 0.931 . S
H558 C537 0.931 . S
H559 C538 0.931 . S
Gd560 C563 2.818 . S
Gd560 O580 2.377 . S
Gd560 O582 2.448 . S
Gd560 O583 2.506 . S
Gd560 O584 2.435 . S
Gd560 O585 2.717 . S
Gd560 O587 2.395 . S
Gd560 O591 2.327 . S
Gd561 C572 2.818 . S
Gd561 O581 2.395 . S
Gd561 O585 2.327 . S
Gd561 O586 2.377 . S
Gd561 O588 2.448 . S
Gd561 O589 2.506 . S
Gd561 O590 2.435 . S
Gd561 O591 2.717 . S
C562 O580 1.240 . S
C562 O581 1.240 . S
C563 Gd560 2.818 . S
C563 C564 1.510 . S
C563 O582 1.249 . S
C563 O583 1.252 . S
C564 C563 1.510 . S
C564 C565 1.404 . S
C564 C566 1.352 . S
C565 C564 1.404 . S
C565 C569 1.389 . S
C565 H592 0.930 . S
C566 C564 1.352 . S
C566 C568 1.374 . S
C566 H593 0.931 . S
C567 C568 1.359 . S
C567 C569 1.364 . S
C568 C566 1.374 . S
C568 C567 1.359 . S
C568 H594 0.931 . S
C569 C565 1.389 . S
C569 C567 1.364 . S
C569 H595 0.931 . S
C570 O584 1.256 . S
C570 O585 1.257 . S
C571 O586 1.240 . S
C571 O587 1.240 . S
C572 Gd561 2.818 . S
C572 C573 1.510 . S
C572 O588 1.249 . S
C572 O589 1.252 . S
C573 C572 1.510 . S
C573 C574 1.404 . S
C573 C575 1.352 . S
C574 C573 1.404 . S
C574 C578 1.389 . S
C574 H596 0.930 . S
C575 C573 1.352 . S
C575 C577 1.374 . S
C575 H597 0.931 . S
C576 C577 1.359 . S
C576 C578 1.364 . S
C577 C575 1.374 . S
C577 C576 1.359 . S
C577 H598 0.931 . S
C578 C574 1.389 . S
C578 C576 1.364 . S
C578 H599 0.931 . S
C579 O590 1.256 . S
C579 O591 1.257 . S
O580 Gd560 2.377 . S
O580 C562 1.240 . S
O581 Gd561 2.395 . S
O581 C562 1.240 . S
O582 Gd560 2.448 . S
O582 C563 1.249 . S
O583 Gd560 2.506 . S
O583 C563 1.252 . S
O584 Gd560 2.435 . S
O584 C570 1.256 . S
O585 Gd560 2.717 . S
O585 Gd561 2.327 . S
O585 C570 1.257 . S
O586 Gd561 2.377 . S
O586 C571 1.240 . S
O587 Gd560 2.395 . S
O587 C571 1.240 . S
O588 Gd561 2.448 . S
O588 C572 1.249 . S
O589 Gd561 2.506 . S
O589 C572 1.252 . S
O590 Gd561 2.435 . S
O590 C579 1.256 . S
O591 Gd560 2.327 . S
O591 Gd561 2.717 . S
O591 C579 1.257 . S
H592 C565 0.930 . S
H593 C566 0.931 . S
H594 C568 0.931 . S
H595 C569 0.931 . S
H596 C574 0.930 . S
H597 C575 0.931 . S
H598 C577 0.931 . S
H599 C578 0.931 . S
Gd600 C603 2.818 . S
Gd600 O620 2.377 . S
Gd600 O622 2.448 . S
Gd600 O623 2.506 . S
Gd600 O624 2.435 . S
Gd600 O625 2.717 . S
Gd600 O627 2.395 . S
Gd600 O631 2.327 . S
Gd601 C612 2.818 . S
Gd601 O621 2.395 . S
Gd601 O625 2.327 . S
Gd601 O626 2.377 . S
Gd601 O628 2.448 . S
Gd601 O629 2.506 . S
Gd601 O630 2.435 . S
Gd601 O631 2.717 . S
C602 O620 1.240 . S
C602 O621 1.240 . S
C603 Gd600 2.818 . S
C603 C604 1.510 . S
C603 O622 1.249 . S
C603 O623 1.252 . S
C604 C603 1.510 . S
C604 C605 1.404 . S
C604 C606 1.352 1_655 S
C605 C604 1.404 . S
C605 C609 1.389 . S
C605 H632 0.930 . S
C606 C604 1.352 1_455 S
C606 C608 1.374 . S
C606 H633 0.931 . S
C607 C608 1.359 . S
C607 C609 1.364 1_455 S
C608 C606 1.374 . S
C608 C607 1.359 . S
C608 H634 0.931 . S
C609 C605 1.389 . S
C609 C607 1.364 1_655 S
C609 H635 0.931 . S
C610 O624 1.256 . S
C610 O625 1.257 . S
C611 O626 1.240 . S
C611 O627 1.240 . S
C612 Gd601 2.818 . S
C612 C613 1.510 . S
C612 O628 1.249 . S
C612 O629 1.252 . S
C613 C612 1.510 . S
C613 C614 1.404 . S
C613 C615 1.352 . S
C614 C613 1.404 . S
C614 C618 1.389 . S
C614 H636 0.930 . S
C615 C613 1.352 . S
C615 C617 1.374 . S
C615 H637 0.931 . S
C616 C617 1.359 . S
C616 C618 1.364 . S
C617 C615 1.374 . S
C617 C616 1.359 . S
C617 H638 0.931 . S
C618 C614 1.389 . S
C618 C616 1.364 . S
C618 H639 0.931 . S
C619 O630 1.256 . S
C619 O631 1.257 . S
O620 Gd600 2.377 . S
O620 C602 1.240 . S
O621 Gd601 2.395 . S
O621 C602 1.240 . S
O622 Gd600 2.448 . S
O622 C603 1.249 . S
O623 Gd600 2.506 . S
O623 C603 1.252 . S
O624 Gd600 2.435 . S
O624 C610 1.256 . S
O625 Gd600 2.717 . S
O625 Gd601 2.327 . S
O625 C610 1.257 . S
O626 Gd601 2.377 . S
O626 C611 1.240 . S
O627 Gd600 2.395 . S
O627 C611 1.240 . S
O628 Gd601 2.448 . S
O628 C612 1.249 . S
O629 Gd601 2.506 . S
O629 C612 1.252 . S
O630 Gd601 2.435 . S
O630 C619 1.256 . S
O631 Gd600 2.327 . S
O631 Gd601 2.717 . S
O631 C619 1.257 . S
H632 C605 0.930 . S
H633 C606 0.931 . S
H634 C608 0.931 . S
H635 C609 0.931 . S
H636 C614 0.930 . S
H637 C615 0.931 . S
H638 C617 0.931 . S
H639 C618 0.931 . S
Gd640 C643 2.818 . S
Gd640 O660 2.377 . S
Gd640 O662 2.448 . S
Gd640 O663 2.506 . S
Gd640 O664 2.435 . S
Gd640 O665 2.717 . S
Gd640 O667 2.395 . S
Gd640 O671 2.327 . S
Gd641 C652 2.818 . S
Gd641 O661 2.395 . S
Gd641 O665 2.327 . S
Gd641 O666 2.377 . S
Gd641 O668 2.448 . S
Gd641 O669 2.506 . S
Gd641 O670 2.435 . S
Gd641 O671 2.717 . S
C642 O660 1.240 . S
C642 O661 1.240 . S
C643 Gd640 2.818 . S
C643 C644 1.510 . S
C643 O662 1.249 . S
C643 O663 1.252 . S
C644 C643 1.510 . S
C644 C645 1.404 . S
C644 C646 1.352 . S
C645 C644 1.404 . S
C645 C649 1.389 . S
C645 H672 0.930 . S
C646 C644 1.352 . S
C646 C648 1.374 . S
C646 H673 0.931 . S
C647 C648 1.359 . S
C647 C649 1.364 . S
C648 C646 1.374 . S
C648 C647 1.359 . S
C648 H674 0.931 . S
C649 C645 1.389 . S
C649 C647 1.364 . S
C649 H675 0.931 . S
C650 O664 1.256 . S
C650 O665 1.257 . S
C651 O666 1.240 . S
C651 O667 1.240 . S
C652 Gd641 2.818 . S
C652 C653 1.510 . S
C652 O668 1.249 . S
C652 O669 1.252 . S
C653 C652 1.510 . S
C653 C654 1.404 . S
C653 C655 1.352 . S
C654 C653 1.404 . S
C654 C658 1.389 . S
C654 H676 0.930 . S
C655 C653 1.352 . S
C655 C657 1.374 . S
C655 H677 0.931 . S
C656 C657 1.359 . S
C656 C658 1.364 . S
C657 C655 1.374 . S
C657 C656 1.359 . S
C657 H678 0.931 . S
C658 C654 1.389 . S
C658 C656 1.364 . S
C658 H679 0.931 . S
C659 O670 1.256 . S
C659 O671 1.257 . S
O660 Gd640 2.377 . S
O660 C642 1.240 . S
O661 Gd641 2.395 . S
O661 C642 1.240 . S
O662 Gd640 2.448 . S
O662 C643 1.249 . S
O663 Gd640 2.506 . S
O663 C643 1.252 . S
O664 Gd640 2.435 . S
O664 C650 1.256 . S
O665 Gd640 2.717 . S
O665 Gd641 2.327 . S
O665 C650 1.257 . S
O666 Gd641 2.377 . S
O666 C651 1.240 . S
O667 Gd640 2.395 . S
O667 C651 1.240 . S
O668 Gd641 2.448 . S
O668 C652 1.249 . S
O669 Gd641 2.506 . S
O669 C652 1.252 . S
O670 Gd641 2.435 . S
O670 C659 1.256 . S
O671 Gd640 2.327 . S
O671 Gd641 2.717 . S
O671 C659 1.257 . S
H672 C645 0.930 . S
H673 C646 0.931 . S
H674 C648 0.931 . S
H675 C649 0.931 . S
H676 C654 0.930 . S
H677 C655 0.931 . S
H678 C657 0.931 . S
H679 C658 0.931 . S
Gd680 C683 2.818 . S
Gd680 O700 2.377 . S
Gd680 O702 2.448 . S
Gd680 O703 2.506 . S
Gd680 O704 2.435 . S
Gd680 O705 2.717 . S
Gd680 O707 2.395 . S
Gd680 O711 2.327 . S
Gd681 C692 2.818 . S
Gd681 O701 2.395 . S
Gd681 O705 2.327 . S
Gd681 O706 2.377 . S
Gd681 O708 2.448 . S
Gd681 O709 2.506 . S
Gd681 O710 2.435 . S
Gd681 O711 2.717 . S
C682 O700 1.240 . S
C682 O701 1.240 . S
C683 Gd680 2.818 . S
C683 C684 1.510 . S
C683 O702 1.249 . S
C683 O703 1.252 . S
C684 C683 1.510 . S
C684 C685 1.404 . S
C684 C686 1.352 1_545 S
C685 C684 1.404 . S
C685 C689 1.389 . S
C685 H712 0.930 . S
C686 C684 1.352 1_565 S
C686 C688 1.374 . S
C686 H713 0.931 . S
C687 C688 1.359 . S
C687 C689 1.364 1_565 S
C688 C686 1.374 . S
C688 C687 1.359 . S
C688 H714 0.931 . S
C689 C685 1.389 . S
C689 C687 1.364 1_545 S
C689 H715 0.931 . S
C690 O704 1.256 . S
C690 O705 1.257 . S
C691 O706 1.240 . S
C691 O707 1.240 . S
C692 Gd681 2.818 . S
C692 C693 1.510 . S
C692 O708 1.249 . S
C692 O709 1.252 . S
C693 C692 1.510 . S
C693 C694 1.404 . S
C693 C695 1.352 . S
C694 C693 1.404 . S
C694 C698 1.389 . S
C694 H716 0.930 . S
C695 C693 1.352 . S
C695 C697 1.374 . S
C695 H717 0.931 . S
C696 C697 1.359 . S
C696 C698 1.364 . S
C697 C695 1.374 . S
C697 C696 1.359 . S
C697 H718 0.931 . S
C698 C694 1.389 . S
C698 C696 1.364 . S
C698 H719 0.931 . S
C699 O710 1.256 . S
C699 O711 1.257 . S
O700 Gd680 2.377 . S
O700 C682 1.240 . S
O701 Gd681 2.395 . S
O701 C682 1.240 . S
O702 Gd680 2.448 . S
O702 C683 1.249 . S
O703 Gd680 2.506 . S
O703 C683 1.252 . S
O704 Gd680 2.435 . S
O704 C690 1.256 . S
O705 Gd680 2.717 . S
O705 Gd681 2.327 . S
O705 C690 1.257 . S
O706 Gd681 2.377 . S
O706 C691 1.240 . S
O707 Gd680 2.395 . S
O707 C691 1.240 . S
O708 Gd681 2.448 . S
O708 C692 1.249 . S
O709 Gd681 2.506 . S
O709 C692 1.252 . S
O710 Gd681 2.435 . S
O710 C699 1.256 . S
O711 Gd680 2.327 . S
O711 Gd681 2.717 . S
O711 C699 1.257 . S
H712 C685 0.930 . S
H713 C686 0.931 . S
H714 C688 0.931 . S
H715 C689 0.931 . S
H716 C694 0.930 . S
H717 C695 0.931 . S
H718 C697 0.931 . S
H719 C698 0.931 . S
Gd720 C723 2.818 . S
Gd720 O740 2.377 . S
Gd720 O742 2.448 . S
Gd720 O743 2.506 . S
Gd720 O744 2.435 . S
Gd720 O745 2.717 . S
Gd720 O747 2.395 . S
Gd720 O751 2.327 . S
Gd721 C732 2.818 . S
Gd721 O741 2.395 . S
Gd721 O745 2.327 . S
Gd721 O746 2.377 . S
Gd721 O748 2.448 . S
Gd721 O749 2.506 . S
Gd721 O750 2.435 . S
Gd721 O751 2.717 . S
C722 O740 1.240 . S
C722 O741 1.240 . S
C723 Gd720 2.818 . S
C723 C724 1.510 . S
C723 O742 1.249 . S
C723 O743 1.252 . S
C724 C723 1.510 . S
C724 C725 1.404 . S
C724 C726 1.352 . S
C725 C724 1.404 . S
C725 C729 1.389 . S
C725 H752 0.930 . S
C726 C724 1.352 . S
C726 C728 1.374 . S
C726 H753 0.931 . S
C727 C728 1.359 . S
C727 C729 1.364 . S
C728 C726 1.374 . S
C728 C727 1.359 . S
C728 H754 0.931 . S
C729 C725 1.389 . S
C729 C727 1.364 . S
C729 H755 0.931 . S
C730 O744 1.256 . S
C730 O745 1.257 . S
C731 O746 1.240 . S
C731 O747 1.240 . S
C732 Gd721 2.818 . S
C732 C733 1.510 . S
C732 O748 1.249 . S
C732 O749 1.252 . S
C733 C732 1.510 . S
C733 C734 1.404 . S
C733 C735 1.352 1_545 S
C734 C733 1.404 . S
C734 C738 1.389 . S
C734 H756 0.930 . S
C735 C733 1.352 1_565 S
C735 C737 1.374 . S
C735 H757 0.931 . S
C736 C737 1.359 . S
C736 C738 1.364 1_565 S
C737 C735 1.374 . S
C737 C736 1.359 . S
C737 H758 0.931 . S
C738 C734 1.389 . S
C738 C736 1.364 1_545 S
C738 H759 0.931 . S
C739 O750 1.256 . S
C739 O751 1.257 . S
O740 Gd720 2.377 . S
O740 C722 1.240 . S
O741 Gd721 2.395 . S
O741 C722 1.240 . S
O742 Gd720 2.448 . S
O742 C723 1.249 . S
O743 Gd720 2.506 . S
O743 C723 1.252 . S
O744 Gd720 2.435 . S
O744 C730 1.256 . S
O745 Gd720 2.717 . S
O745 Gd721 2.327 . S
O745 C730 1.257 . S
O746 Gd721 2.377 . S
O746 C731 1.240 . S
O747 Gd720 2.395 . S
O747 C731 1.240 . S
O748 Gd721 2.448 . S
O748 C732 1.249 . S
O749 Gd721 2.506 . S
O749 C732 1.252 . S
O750 Gd721 2.435 . S
O750 C739 1.256 . S
O751 Gd720 2.327 . S
O751 Gd721 2.717 . S
O751 C739 1.257 . S
H752 C725 0.930 . S
H753 C726 0.931 . S
H754 C728 0.931 . S
H755 C729 0.931 . S
H756 C734 0.930 . S
H757 C735 0.931 . S
H758 C737 0.931 . S
H759 C738 0.931 . S
Gd760 C763 2.818 . S
Gd760 O780 2.377 . S
Gd760 O782 2.448 . S
Gd760 O783 2.506 . S
Gd760 O784 2.435 . S
Gd760 O785 2.717 . S
Gd760 O787 2.395 . S
Gd760 O791 2.327 . S
Gd761 C772 2.818 . S
Gd761 O781 2.395 . S
Gd761 O785 2.327 . S
Gd761 O786 2.377 . S
Gd761 O788 2.448 . S
Gd761 O789 2.506 . S
Gd761 O790 2.435 . S
Gd761 O791 2.717 . S
C762 O780 1.240 . S
C762 O781 1.240 . S
C763 Gd760 2.818 . S
C763 C764 1.510 . S
C763 O782 1.249 . S
C763 O783 1.252 . S
C764 C763 1.510 . S
C764 C765 1.404 . S
C764 C766 1.352 . S
C765 C764 1.404 . S
C765 C769 1.389 . S
C765 H792 0.930 . S
C766 C764 1.352 . S
C766 C768 1.374 . S
C766 H793 0.931 . S
C767 C768 1.359 . S
C767 C769 1.364 . S
C768 C766 1.374 . S
C768 C767 1.359 . S
C768 H794 0.931 . S
C769 C765 1.389 . S
C769 C767 1.364 . S
C769 H795 0.931 . S
C770 O784 1.256 . S
C770 O785 1.257 . S
C771 O786 1.240 . S
C771 O787 1.240 . S
C772 Gd761 2.818 . S
C772 C773 1.510 . S
C772 O788 1.249 . S
C772 O789 1.252 . S
C773 C772 1.510 . S
C773 C774 1.404 . S
C773 C775 1.352 1_655 S
C774 C773 1.404 . S
C774 C778 1.389 . S
C774 H796 0.930 . S
C775 C773 1.352 1_455 S
C775 C777 1.374 . S
C775 H797 0.931 . S
C776 C777 1.359 . S
C776 C778 1.364 1_455 S
C777 C775 1.374 . S
C777 C776 1.359 . S
C777 H798 0.931 . S
C778 C774 1.389 . S
C778 C776 1.364 1_655 S
C778 H799 0.931 . S
C779 O790 1.256 . S
C779 O791 1.257 . S
O780 Gd760 2.377 . S
O780 C762 1.240 . S
O781 Gd761 2.395 . S
O781 C762 1.240 . S
O782 Gd760 2.448 . S
O782 C763 1.249 . S
O783 Gd760 2.506 . S
O783 C763 1.252 . S
O784 Gd760 2.435 . S
O784 C770 1.256 . S
O785 Gd760 2.717 . S
O785 Gd761 2.327 . S
O785 C770 1.257 . S
O786 Gd761 2.377 . S
O786 C771 1.240 . S
O787 Gd760 2.395 . S
O787 C771 1.240 . S
O788 Gd761 2.448 . S
O788 C772 1.249 . S
O789 Gd761 2.506 . S
O789 C772 1.252 . S
O790 Gd761 2.435 . S
O790 C779 1.256 . S
O791 Gd760 2.327 . S
O791 Gd761 2.717 . S
O791 C779 1.257 . S
H792 C765 0.930 . S
H793 C766 0.931 . S
H794 C768 0.931 . S
H795 C769 0.931 . S
H796 C774 0.930 . S
H797 C775 0.931 . S
H798 C777 0.931 . S
H799 C778 0.931 . S
Gd800 C803 2.818 . S
Gd800 O820 2.377 . S
Gd800 O822 2.448 . S
Gd800 O823 2.506 . S
Gd800 O824 2.435 . S
Gd800 O825 2.717 . S
Gd800 O827 2.395 . S
Gd800 O831 2.327 . S
Gd801 C812 2.818 . S
Gd801 O821 2.395 . S
Gd801 O825 2.327 . S
Gd801 O826 2.377 . S
Gd801 O828 2.448 . S
Gd801 O829 2.506 . S
Gd801 O830 2.435 . S
Gd801 O831 2.717 . S
C802 O820 1.240 . S
C802 O821 1.240 . S
C803 Gd800 2.818 . S
C803 C804 1.510 . S
C803 O822 1.249 . S
C803 O823 1.252 . S
C804 C803 1.510 . S
C804 C805 1.404 . S
C804 C806 1.352 . S
C805 C804 1.404 . S
C805 C809 1.389 . S
C805 H832 0.930 . S
C806 C804 1.352 . S
C806 C808 1.374 . S
C806 H833 0.931 . S
C807 C808 1.359 . S
C807 C809 1.364 . S
C808 C806 1.374 . S
C808 C807 1.359 . S
C808 H834 0.931 . S
C809 C805 1.389 . S
C809 C807 1.364 . S
C809 H835 0.931 . S
C810 O824 1.256 . S
C810 O825 1.257 . S
C811 O826 1.240 . S
C811 O827 1.240 . S
C812 Gd801 2.818 . S
C812 C813 1.510 . S
C812 O828 1.249 . S
C812 O829 1.252 . S
C813 C812 1.510 . S
C813 C814 1.404 . S
C813 C815 1.352 . S
C814 C813 1.404 . S
C814 C818 1.389 . S
C814 H836 0.930 . S
C815 C813 1.352 . S
C815 C817 1.374 . S
C815 H837 0.931 . S
C816 C817 1.359 . S
C816 C818 1.364 . S
C817 C815 1.374 . S
C817 C816 1.359 . S
C817 H838 0.931 . S
C818 C814 1.389 . S
C818 C816 1.364 . S
C818 H839 0.931 . S
C819 O830 1.256 . S
C819 O831 1.257 . S
O820 Gd800 2.377 . S
O820 C802 1.240 . S
O821 Gd801 2.395 . S
O821 C802 1.240 . S
O822 Gd800 2.448 . S
O822 C803 1.249 . S
O823 Gd800 2.506 . S
O823 C803 1.252 . S
O824 Gd800 2.435 . S
O824 C810 1.256 . S
O825 Gd800 2.717 . S
O825 Gd801 2.327 . S
O825 C810 1.257 . S
O826 Gd801 2.377 . S
O826 C811 1.240 . S
O827 Gd800 2.395 . S
O827 C811 1.240 . S
O828 Gd801 2.448 . S
O828 C812 1.249 . S
O829 Gd801 2.506 . S
O829 C812 1.252 . S
O830 Gd801 2.435 . S
O830 C819 1.256 . S
O831 Gd800 2.327 . S
O831 Gd801 2.717 . S
O831 C819 1.257 . S
H832 C805 0.930 . S
H833 C806 0.931 . S
H834 C808 0.931 . S
H835 C809 0.931 . S
H836 C814 0.930 . S
H837 C815 0.931 . S
H838 C817 0.931 . S
H839 C818 0.931 . S
Gd840 C843 2.818 . S
Gd840 O860 2.377 . S
Gd840 O862 2.448 . S
Gd840 O863 2.506 . S
Gd840 O864 2.435 . S
Gd840 O865 2.717 1_554 S
Gd840 O867 2.395 . S
Gd840 O871 2.327 . S
Gd841 C852 2.818 . S
Gd841 O861 2.395 . S
Gd841 O865 2.327 . S
Gd841 O866 2.377 . S
Gd841 O868 2.448 . S
Gd841 O869 2.506 . S
Gd841 O870 2.435 . S
Gd841 O871 2.717 1_556 S
C842 O860 1.240 . S
C842 O861 1.240 1_554 S
C843 Gd840 2.818 . S
C843 C844 1.510 . S
C843 O862 1.249 . S
C843 O863 1.252 . S
C844 C843 1.510 . S
C844 C845 1.404 . S
C844 C846 1.352 . S
C845 C844 1.404 . S
C845 C849 1.389 . S
C845 H872 0.930 . S
C846 C844 1.352 . S
C846 C848 1.374 . S
C846 H873 0.931 . S
C847 C848 1.359 . S
C847 C849 1.364 . S
C848 C846 1.374 . S
C848 C847 1.359 . S
C848 H874 0.931 . S
C849 C845 1.389 . S
C849 C847 1.364 . S
C849 H875 0.931 . S
C850 O864 1.256 . S
C850 O865 1.257 1_554 S
C851 O866 1.240 . S
C851 O867 1.240 1_556 S
C852 Gd841 2.818 . S
C852 C853 1.510 . S
C852 O868 1.249 . S
C852 O869 1.252 . S
C853 C852 1.510 . S
C853 C854 1.404 . S
C853 C855 1.352 . S
C854 C853 1.404 . S
C854 C858 1.389 . S
C854 H876 0.930 . S
C855 C853 1.352 . S
C855 C857 1.374 . S
C855 H877 0.931 . S
C856 C857 1.359 . S
C856 C858 1.364 . S
C857 C855 1.374 . S
C857 C856 1.359 . S
C857 H878 0.931 . S
C858 C854 1.389 . S
C858 C856 1.364 . S
C858 H879 0.931 . S
C859 O870 1.256 . S
C859 O871 1.257 1_556 S
O860 Gd840 2.377 . S
O860 C842 1.240 . S
O861 Gd841 2.395 . S
O861 C842 1.240 1_556 S
O862 Gd840 2.448 . S
O862 C843 1.249 . S
O863 Gd840 2.506 . S
O863 C843 1.252 . S
O864 Gd840 2.435 . S
O864 C850 1.256 . S
O865 Gd840 2.717 1_556 S
O865 Gd841 2.327 . S
O865 C850 1.257 1_556 S
O866 Gd841 2.377 . S
O866 C851 1.240 . S
O867 Gd840 2.395 . S
O867 C851 1.240 1_554 S
O868 Gd841 2.448 . S
O868 C852 1.249 . S
O869 Gd841 2.506 . S
O869 C852 1.252 . S
O870 Gd841 2.435 . S
O870 C859 1.256 . S
O871 Gd840 2.327 . S
O871 Gd841 2.717 1_554 S
O871 C859 1.257 1_554 S
H872 C845 0.930 . S
H873 C846 0.931 . S
H874 C848 0.931 . S
H875 C849 0.931 . S
H876 C854 0.930 . S
H877 C855 0.931 . S
H878 C857 0.931 . S
H879 C858 0.931 . S
Gd880 C883 2.818 . S
Gd880 O900 2.377 . S
Gd880 O902 2.448 . S
Gd880 O903 2.506 . S
Gd880 O904 2.435 . S
Gd880 O905 2.717 1_554 S
Gd880 O907 2.395 . S
Gd880 O911 2.327 . S
Gd881 C892 2.818 . S
Gd881 O901 2.395 . S
Gd881 O905 2.327 . S
Gd881 O906 2.377 . S
Gd881 O908 2.448 . S
Gd881 O909 2.506 . S
Gd881 O910 2.435 . S
Gd881 O911 2.717 1_556 S
C882 O900 1.240 . S
C882 O901 1.240 1_554 S
C883 Gd880 2.818 . S
C883 C884 1.510 . S
C883 O902 1.249 . S
C883 O903 1.252 . S
C884 C883 1.510 . S
C884 C885 1.404 . S
C884 C886 1.352 . S
C885 C884 1.404 . S
C885 C889 1.389 . S
C885 H912 0.930 . S
C886 C884 1.352 . S
C886 C888 1.374 . S
C886 H913 0.931 . S
C887 C888 1.359 . S
C887 C889 1.364 . S
C888 C886 1.374 . S
C888 C887 1.359 . S
C888 H914 0.931 . S
C889 C885 1.389 . S
C889 C887 1.364 . S
C889 H915 0.931 . S
C890 O904 1.256 . S
C890 O905 1.257 1_554 S
C891 O906 1.240 . S
C891 O907 1.240 1_556 S
C892 Gd881 2.818 . S
C892 C893 1.510 . S
C892 O908 1.249 . S
C892 O909 1.252 . S
C893 C892 1.510 . S
C893 C894 1.404 . S
C893 C895 1.352 . S
C894 C893 1.404 . S
C894 C898 1.389 . S
C894 H916 0.930 . S
C895 C893 1.352 . S
C895 C897 1.374 . S
C895 H917 0.931 . S
C896 C897 1.359 . S
C896 C898 1.364 . S
C897 C895 1.374 . S
C897 C896 1.359 . S
C897 H918 0.931 . S
C898 C894 1.389 . S
C898 C896 1.364 . S
C898 H919 0.931 . S
C899 O910 1.256 . S
C899 O911 1.257 1_556 S
O900 Gd880 2.377 . S
O900 C882 1.240 . S
O901 Gd881 2.395 . S
O901 C882 1.240 1_556 S
O902 Gd880 2.448 . S
O902 C883 1.249 . S
O903 Gd880 2.506 . S
O903 C883 1.252 . S
O904 Gd880 2.435 . S
O904 C890 1.256 . S
O905 Gd880 2.717 1_556 S
O905 Gd881 2.327 . S
O905 C890 1.257 1_556 S
O906 Gd881 2.377 . S
O906 C891 1.240 . S
O907 Gd880 2.395 . S
O907 C891 1.240 1_554 S
O908 Gd881 2.448 . S
O908 C892 1.249 . S
O909 Gd881 2.506 . S
O909 C892 1.252 . S
O910 Gd881 2.435 . S
O910 C899 1.256 . S
O911 Gd880 2.327 . S
O911 Gd881 2.717 1_554 S
O911 C899 1.257 1_554 S
H912 C885 0.930 . S
H913 C886 0.931 . S
H914 C888 0.931 . S
H915 C889 0.931 . S
H916 C894 0.930 . S
H917 C895 0.931 . S
H918 C897 0.931 . S
H919 C898 0.931 . S
Gd920 C923 2.818 . S
Gd920 O940 2.377 . S
Gd920 O942 2.448 . S
Gd920 O943 2.506 . S
Gd920 O944 2.435 . S
Gd920 O945 2.717 1_554 S
Gd920 O947 2.395 . S
Gd920 O951 2.327 . S
Gd921 C932 2.818 . S
Gd921 O941 2.395 . S
Gd921 O945 2.327 . S
Gd921 O946 2.377 . S
Gd921 O948 2.448 . S
Gd921 O949 2.506 . S
Gd921 O950 2.435 . S
Gd921 O951 2.717 1_556 S
C922 O940 1.240 . S
C922 O941 1.240 1_554 S
C923 Gd920 2.818 . S
C923 C924 1.510 . S
C923 O942 1.249 . S
C923 O943 1.252 . S
C924 C923 1.510 . S
C924 C925 1.404 . S
C924 C926 1.352 . S
C925 C924 1.404 . S
C925 C929 1.389 . S
C925 H952 0.930 . S
C926 C924 1.352 . S
C926 C928 1.374 . S
C926 H953 0.931 . S
C927 C928 1.359 . S
C927 C929 1.364 . S
C928 C926 1.374 . S
C928 C927 1.359 . S
C928 H954 0.931 . S
C929 C925 1.389 . S
C929 C927 1.364 . S
C929 H955 0.931 . S
C930 O944 1.256 . S
C930 O945 1.257 1_554 S
C931 O946 1.240 . S
C931 O947 1.240 1_556 S
C932 Gd921 2.818 . S
C932 C933 1.510 . S
C932 O948 1.249 . S
C932 O949 1.252 . S
C933 C932 1.510 . S
C933 C934 1.404 . S
C933 C935 1.352 . S
C934 C933 1.404 . S
C934 C938 1.389 . S
C934 H956 0.930 . S
C935 C933 1.352 . S
C935 C937 1.374 . S
C935 H957 0.931 . S
C936 C937 1.359 . S
C936 C938 1.364 . S
C937 C935 1.374 . S
C937 C936 1.359 . S
C937 H958 0.931 . S
C938 C934 1.389 . S
C938 C936 1.364 . S
C938 H959 0.931 . S
C939 O950 1.256 . S
C939 O951 1.257 1_556 S
O940 Gd920 2.377 . S
O940 C922 1.240 . S
O941 Gd921 2.395 . S
O941 C922 1.240 1_556 S
O942 Gd920 2.448 . S
O942 C923 1.249 . S
O943 Gd920 2.506 . S
O943 C923 1.252 . S
O944 Gd920 2.435 . S
O944 C930 1.256 . S
O945 Gd920 2.717 1_556 S
O945 Gd921 2.327 . S
O945 C930 1.257 1_556 S
O946 Gd921 2.377 . S
O946 C931 1.240 . S
O947 Gd920 2.395 . S
O947 C931 1.240 1_554 S
O948 Gd921 2.448 . S
O948 C932 1.249 . S
O949 Gd921 2.506 . S
O949 C932 1.252 . S
O950 Gd921 2.435 . S
O950 C939 1.256 . S
O951 Gd920 2.327 . S
O951 Gd921 2.717 1_554 S
O951 C939 1.257 1_554 S
H952 C925 0.930 . S
H953 C926 0.931 . S
H954 C928 0.931 . S
H955 C929 0.931 . S
H956 C934 0.930 . S
H957 C935 0.931 . S
H958 C937 0.931 . S
H959 C938 0.931 . S
Gd960 C963 2.818 . S
Gd960 O980 2.377 . S
Gd960 O982 2.448 . S
Gd960 O983 2.506 . S
Gd960 O984 2.435 . S
Gd960 O985 2.717 . S
Gd960 O987 2.395 . S
Gd960 O991 2.327 . S
Gd961 C972 2.818 . S
Gd961 O981 2.395 . S
Gd961 O985 2.327 . S
Gd961 O986 2.377 . S
Gd961 O988 2.448 . S
Gd961 O989 2.506 . S
Gd961 O990 2.435 . S
Gd961 O991 2.717 . S
C962 O980 1.240 . S
C962 O981 1.240 . S
C963 Gd960 2.818 . S
C963 C964 1.510 . S
C963 O982 1.249 . S
C963 O983 1.252 . S
C964 C963 1.510 . S
C964 C965 1.404 . S
C964 C966 1.352 1_565 S
C965 C964 1.404 . S
C965 C969 1.389 . S
C965 H992 0.930 . S
C966 C964 1.352 1_545 S
C966 C968 1.374 . S
C966 H993 0.931 . S
C967 C968 1.359 . S
C967 C969 1.364 1_545 S
C968 C966 1.374 . S
C968 C967 1.359 . S
C968 H994 0.931 . S
C969 C965 1.389 . S
C969 C967 1.364 1_565 S
C969 H995 0.931 . S
C970 O984 1.256 . S
C970 O985 1.257 . S
C971 O986 1.240 . S
C971 O987 1.240 . S
C972 Gd961 2.818 . S
C972 C973 1.510 . S
C972 O988 1.249 . S
C972 O989 1.252 . S
C973 C972 1.510 . S
C973 C974 1.404 . S
C973 C975 1.352 . S
C974 C973 1.404 . S
C974 C978 1.389 . S
C974 H996 0.930 . S
C975 C973 1.352 . S
C975 C977 1.374 . S
C975 H997 0.931 . S
C976 C977 1.359 . S
C976 C978 1.364 . S
C977 C975 1.374 . S
C977 C976 1.359 . S
C977 H998 0.931 . S
C978 C974 1.389 . S
C978 C976 1.364 . S
C978 H999 0.931 . S
C979 O990 1.256 . S
C979 O991 1.257 . S
O980 Gd960 2.377 . S
O980 C962 1.240 . S
O981 Gd961 2.395 . S
O981 C962 1.240 . S
O982 Gd960 2.448 . S
O982 C963 1.249 . S
O983 Gd960 2.506 . S
O983 C963 1.252 . S
O984 Gd960 2.435 . S
O984 C970 1.256 . S
O985 Gd960 2.717 . S
O985 Gd961 2.327 . S
O985 C970 1.257 . S
O986 Gd961 2.377 . S
O986 C971 1.240 . S
O987 Gd960 2.395 . S
O987 C971 1.240 . S
O988 Gd961 2.448 . S
O988 C972 1.249 . S
O989 Gd961 2.506 . S
O989 C972 1.252 . S
O990 Gd961 2.435 . S
O990 C979 1.256 . S
O991 Gd960 2.327 . S
O991 Gd961 2.717 . S
O991 C979 1.257 . S
H992 C965 0.930 . S
H993 C966 0.931 . S
H994 C968 0.931 . S
H995 C969 0.931 . S
H996 C974 0.930 . S
H997 C975 0.931 . S
H998 C977 0.931 . S
H999 C978 0.931 . S
Gd1000 C1003 2.818 . S
Gd1000 O1020 2.377 . S
Gd1000 O1022 2.448 . S
Gd1000 O1023 2.506 . S
Gd1000 O1024 2.435 . S
Gd1000 O1025 2.717 . S
Gd1000 O1027 2.395 . S
Gd1000 O1031 2.327 . S
Gd1001 C1012 2.818 . S
Gd1001 O1021 2.395 . S
Gd1001 O1025 2.327 . S
Gd1001 O1026 2.377 . S
Gd1001 O1028 2.448 . S
Gd1001 O1029 2.506 . S
Gd1001 O1030 2.435 . S
Gd1001 O1031 2.717 . S
C1002 O1020 1.240 . S
C1002 O1021 1.240 . S
C1003 Gd1000 2.818 . S
C1003 C1004 1.510 . S
C1003 O1022 1.249 . S
C1003 O1023 1.252 . S
C1004 C1003 1.510 . S
C1004 C1005 1.404 . S
C1004 C1006 1.352 1_455 S
C1005 C1004 1.404 . S
C1005 C1009 1.389 . S
C1005 H1032 0.930 . S
C1006 C1004 1.352 1_655 S
C1006 C1008 1.374 . S
C1006 H1033 0.931 . S
C1007 C1008 1.359 . S
C1007 C1009 1.364 1_655 S
C1008 C1006 1.374 . S
C1008 C1007 1.359 . S
C1008 H1034 0.931 . S
C1009 C1005 1.389 . S
C1009 C1007 1.364 1_455 S
C1009 H1035 0.931 . S
C1010 O1024 1.256 . S
C1010 O1025 1.257 . S
C1011 O1026 1.240 . S
C1011 O1027 1.240 . S
C1012 Gd1001 2.818 . S
C1012 C1013 1.510 . S
C1012 O1028 1.249 . S
C1012 O1029 1.252 . S
C1013 C1012 1.510 . S
C1013 C1014 1.404 . S
C1013 C1015 1.352 . S
C1014 C1013 1.404 . S
C1014 C1018 1.389 . S
C1014 H1036 0.930 . S
C1015 C1013 1.352 . S
C1015 C1017 1.374 . S
C1015 H1037 0.931 . S
C1016 C1017 1.359 . S
C1016 C1018 1.364 . S
C1017 C1015 1.374 . S
C1017 C1016 1.359 . S
C1017 H1038 0.931 . S
C1018 C1014 1.389 . S
C1018 C1016 1.364 . S
C1018 H1039 0.931 . S
C1019 O1030 1.256 . S
C1019 O1031 1.257 . S
O1020 Gd1000 2.377 . S
O1020 C1002 1.240 . S
O1021 Gd1001 2.395 . S
O1021 C1002 1.240 . S
O1022 Gd1000 2.448 . S
O1022 C1003 1.249 . S
O1023 Gd1000 2.506 . S
O1023 C1003 1.252 . S
O1024 Gd1000 2.435 . S
O1024 C1010 1.256 . S
O1025 Gd1000 2.717 . S
O1025 Gd1001 2.327 . S
O1025 C1010 1.257 . S
O1026 Gd1001 2.377 . S
O1026 C1011 1.240 . S
O1027 Gd1000 2.395 . S
O1027 C1011 1.240 . S
O1028 Gd1001 2.448 . S
O1028 C1012 1.249 . S
O1029 Gd1001 2.506 . S
O1029 C1012 1.252 . S
O1030 Gd1001 2.435 . S
O1030 C1019 1.256 . S
O1031 Gd1000 2.327 . S
O1031 Gd1001 2.717 . S
O1031 C1019 1.257 . S
H1032 C1005 0.930 . S
H1033 C1006 0.931 . S
H1034 C1008 0.931 . S
H1035 C1009 0.931 . S
H1036 C1014 0.930 . S
H1037 C1015 0.931 . S
H1038 C1017 0.931 . S
H1039 C1018 0.931 . S
Gd1040 C1043 2.818 . S
Gd1040 O1060 2.377 . S
Gd1040 O1062 2.448 . S
Gd1040 O1063 2.506 . S
Gd1040 O1064 2.435 . S
Gd1040 O1065 2.717 . S
Gd1040 O1067 2.395 . S
Gd1040 O1071 2.327 . S
Gd1041 C1052 2.818 . S
Gd1041 O1061 2.395 . S
Gd1041 O1065 2.327 . S
Gd1041 O1066 2.377 . S
Gd1041 O1068 2.448 . S
Gd1041 O1069 2.506 . S
Gd1041 O1070 2.435 . S
Gd1041 O1071 2.717 . S
C1042 O1060 1.240 . S
C1042 O1061 1.240 . S
C1043 Gd1040 2.818 . S
C1043 C1044 1.510 . S
C1043 O1062 1.249 . S
C1043 O1063 1.252 . S
C1044 C1043 1.510 . S
C1044 C1045 1.404 . S
C1044 C1046 1.352 . S
C1045 C1044 1.404 . S
C1045 C1049 1.389 . S
C1045 H1072 0.930 . S
C1046 C1044 1.352 . S
C1046 C1048 1.374 . S
C1046 H1073 0.931 . S
C1047 C1048 1.359 . S
C1047 C1049 1.364 . S
C1048 C1046 1.374 . S
C1048 C1047 1.359 . S
C1048 H1074 0.931 . S
C1049 C1045 1.389 . S
C1049 C1047 1.364 . S
C1049 H1075 0.931 . S
C1050 O1064 1.256 . S
C1050 O1065 1.257 . S
C1051 O1066 1.240 . S
C1051 O1067 1.240 . S
C1052 Gd1041 2.818 . S
C1052 C1053 1.510 . S
C1052 O1068 1.249 . S
C1052 O1069 1.252 . S
C1053 C1052 1.510 . S
C1053 C1054 1.404 . S
C1053 C1055 1.352 . S
C1054 C1053 1.404 . S
C1054 C1058 1.389 . S
C1054 H1076 0.930 . S
C1055 C1053 1.352 . S
C1055 C1057 1.374 . S
C1055 H1077 0.931 . S
C1056 C1057 1.359 . S
C1056 C1058 1.364 . S
C1057 C1055 1.374 . S
C1057 C1056 1.359 . S
C1057 H1078 0.931 . S
C1058 C1054 1.389 . S
C1058 C1056 1.364 . S
C1058 H1079 0.931 . S
C1059 O1070 1.256 . S
C1059 O1071 1.257 . S
O1060 Gd1040 2.377 . S
O1060 C1042 1.240 . S
O1061 Gd1041 2.395 . S
O1061 C1042 1.240 . S
O1062 Gd1040 2.448 . S
O1062 C1043 1.249 . S
O1063 Gd1040 2.506 . S
O1063 C1043 1.252 . S
O1064 Gd1040 2.435 . S
O1064 C1050 1.256 . S
O1065 Gd1040 2.717 . S
O1065 Gd1041 2.327 . S
O1065 C1050 1.257 . S
O1066 Gd1041 2.377 . S
O1066 C1051 1.240 . S
O1067 Gd1040 2.395 . S
O1067 C1051 1.240 . S
O1068 Gd1041 2.448 . S
O1068 C1052 1.249 . S
O1069 Gd1041 2.506 . S
O1069 C1052 1.252 . S
O1070 Gd1041 2.435 . S
O1070 C1059 1.256 . S
O1071 Gd1040 2.327 . S
O1071 Gd1041 2.717 . S
O1071 C1059 1.257 . S
H1072 C1045 0.930 . S
H1073 C1046 0.931 . S
H1074 C1048 0.931 . S
H1075 C1049 0.931 . S
H1076 C1054 0.930 . S
H1077 C1055 0.931 . S
H1078 C1057 0.931 . S
H1079 C1058 0.931 . S
Gd1080 C1083 2.818 . S
Gd1080 O1100 2.377 . S
Gd1080 O1102 2.448 . S
Gd1080 O1103 2.506 . S
Gd1080 O1104 2.435 . S
Gd1080 O1105 2.717 1_554 S
Gd1080 O1107 2.395 . S
Gd1080 O1111 2.327 . S
Gd1081 C1092 2.818 . S
Gd1081 O1101 2.395 . S
Gd1081 O1105 2.327 . S
Gd1081 O1106 2.377 . S
Gd1081 O1108 2.448 . S
Gd1081 O1109 2.506 . S
Gd1081 O1110 2.435 . S
Gd1081 O1111 2.717 1_556 S
C1082 O1100 1.240 . S
C1082 O1101 1.240 1_554 S
C1083 Gd1080 2.818 . S
C1083 C1084 1.510 . S
C1083 O1102 1.249 . S
C1083 O1103 1.252 . S
C1084 C1083 1.510 . S
C1084 C1085 1.404 . S
C1084 C1086 1.352 . S
C1085 C1084 1.404 . S
C1085 C1089 1.389 . S
C1085 H1112 0.930 . S
C1086 C1084 1.352 . S
C1086 C1088 1.374 . S
C1086 H1113 0.931 . S
C1087 C1088 1.359 . S
C1087 C1089 1.364 . S
C1088 C1086 1.374 . S
C1088 C1087 1.359 . S
C1088 H1114 0.931 . S
C1089 C1085 1.389 . S
C1089 C1087 1.364 . S
C1089 H1115 0.931 . S
C1090 O1104 1.256 . S
C1090 O1105 1.257 1_554 S
C1091 O1106 1.240 . S
C1091 O1107 1.240 1_556 S
C1092 Gd1081 2.818 . S
C1092 C1093 1.510 . S
C1092 O1108 1.249 . S
C1092 O1109 1.252 . S
C1093 C1092 1.510 . S
C1093 C1094 1.404 . S
C1093 C1095 1.352 . S
C1094 C1093 1.404 . S
C1094 C1098 1.389 . S
C1094 H1116 0.930 . S
C1095 C1093 1.352 . S
C1095 C1097 1.374 . S
C1095 H1117 0.931 . S
C1096 C1097 1.359 . S
C1096 C1098 1.364 . S
C1097 C1095 1.374 . S
C1097 C1096 1.359 . S
C1097 H1118 0.931 . S
C1098 C1094 1.389 . S
C1098 C1096 1.364 . S
C1098 H1119 0.931 . S
C1099 O1110 1.256 . S
C1099 O1111 1.257 1_556 S
O1100 Gd1080 2.377 . S
O1100 C1082 1.240 . S
O1101 Gd1081 2.395 . S
O1101 C1082 1.240 1_556 S
O1102 Gd1080 2.448 . S
O1102 C1083 1.249 . S
O1103 Gd1080 2.506 . S
O1103 C1083 1.252 . S
O1104 Gd1080 2.435 . S
O1104 C1090 1.256 . S
O1105 Gd1080 2.717 1_556 S
O1105 Gd1081 2.327 . S
O1105 C1090 1.257 1_556 S
O1106 Gd1081 2.377 . S
O1106 C1091 1.240 . S
O1107 Gd1080 2.395 . S
O1107 C1091 1.240 1_554 S
O1108 Gd1081 2.448 . S
O1108 C1092 1.249 . S
O1109 Gd1081 2.506 . S
O1109 C1092 1.252 . S
O1110 Gd1081 2.435 . S
O1110 C1099 1.256 . S
O1111 Gd1080 2.327 . S
O1111 Gd1081 2.717 1_554 S
O1111 C1099 1.257 1_554 S
H1112 C1085 0.930 . S
H1113 C1086 0.931 . S
H1114 C1088 0.931 . S
H1115 C1089 0.931 . S
H1116 C1094 0.930 . S
H1117 C1095 0.931 . S
H1118 C1097 0.931 . S
H1119 C1098 0.931 . S
Gd1120 C1123 2.818 . S
Gd1120 O1140 2.377 . S
Gd1120 O1142 2.448 . S
Gd1120 O1143 2.506 . S
Gd1120 O1144 2.435 . S
Gd1120 O1145 2.717 1_554 S
Gd1120 O1147 2.395 . S
Gd1120 O1151 2.327 . S
Gd1121 C1132 2.818 . S
Gd1121 O1141 2.395 . S
Gd1121 O1145 2.327 . S
Gd1121 O1146 2.377 . S
Gd1121 O1148 2.448 . S
Gd1121 O1149 2.506 . S
Gd1121 O1150 2.435 . S
Gd1121 O1151 2.717 1_556 S
C1122 O1140 1.240 . S
C1122 O1141 1.240 1_554 S
C1123 Gd1120 2.818 . S
C1123 C1124 1.510 . S
C1123 O1142 1.249 . S
C1123 O1143 1.252 . S
C1124 C1123 1.510 . S
C1124 C1125 1.404 . S
C1124 C1126 1.352 . S
C1125 C1124 1.404 . S
C1125 C1129 1.389 . S
C1125 H1152 0.930 . S
C1126 C1124 1.352 . S
C1126 C1128 1.374 . S
C1126 H1153 0.931 . S
C1127 C1128 1.359 . S
C1127 C1129 1.364 . S
C1128 C1126 1.374 . S
C1128 C1127 1.359 . S
C1128 H1154 0.931 . S
C1129 C1125 1.389 . S
C1129 C1127 1.364 . S
C1129 H1155 0.931 . S
C1130 O1144 1.256 . S
C1130 O1145 1.257 1_554 S
C1131 O1146 1.240 . S
C1131 O1147 1.240 1_556 S
C1132 Gd1121 2.818 . S
C1132 C1133 1.510 . S
C1132 O1148 1.249 . S
C1132 O1149 1.252 . S
C1133 C1132 1.510 . S
C1133 C1134 1.404 . S
C1133 C1135 1.352 . S
C1134 C1133 1.404 . S
C1134 C1138 1.389 . S
C1134 H1156 0.930 . S
C1135 C1133 1.352 . S
C1135 C1137 1.374 . S
C1135 H1157 0.931 . S
C1136 C1137 1.359 . S
C1136 C1138 1.364 . S
C1137 C1135 1.374 . S
C1137 C1136 1.359 . S
C1137 H1158 0.931 . S
C1138 C1134 1.389 . S
C1138 C1136 1.364 . S
C1138 H1159 0.931 . S
C1139 O1150 1.256 . S
C1139 O1151 1.257 1_556 S
O1140 Gd1120 2.377 . S
O1140 C1122 1.240 . S
O1141 Gd1121 2.395 . S
O1141 C1122 1.240 1_556 S
O1142 Gd1120 2.448 . S
O1142 C1123 1.249 . S
O1143 Gd1120 2.506 . S
O1143 C1123 1.252 . S
O1144 Gd1120 2.435 . S
O1144 C1130 1.256 . S
O1145 Gd1120 2.717 1_556 S
O1145 Gd1121 2.327 . S
O1145 C1130 1.257 1_556 S
O1146 Gd1121 2.377 . S
O1146 C1131 1.240 . S
O1147 Gd1120 2.395 . S
O1147 C1131 1.240 1_554 S
O1148 Gd1121 2.448 . S
O1148 C1132 1.249 . S
O1149 Gd1121 2.506 . S
O1149 C1132 1.252 . S
O1150 Gd1121 2.435 . S
O1150 C1139 1.256 . S
O1151 Gd1120 2.327 . S
O1151 Gd1121 2.717 1_554 S
O1151 C1139 1.257 1_554 S
H1152 C1125 0.930 . S
H1153 C1126 0.931 . S
H1154 C1128 0.931 . S
H1155 C1129 0.931 . S
H1156 C1134 0.930 . S
H1157 C1135 0.931 . S
H1158 C1137 0.931 . S
H1159 C1138 0.931 . S
Gd1160 C1163 2.818 . S
Gd1160 O1180 2.377 . S
Gd1160 O1182 2.448 . S
Gd1160 O1183 2.506 . S
Gd1160 O1184 2.435 . S
Gd1160 O1185 2.717 1_554 S
Gd1160 O1187 2.395 . S
Gd1160 O1191 2.327 . S
Gd1161 C1172 2.818 . S
Gd1161 O1181 2.395 . S
Gd1161 O1185 2.327 . S
Gd1161 O1186 2.377 . S
Gd1161 O1188 2.448 . S
Gd1161 O1189 2.506 . S
Gd1161 O1190 2.435 . S
Gd1161 O1191 2.717 1_556 S
C1162 O1180 1.240 . S
C1162 O1181 1.240 1_554 S
C1163 Gd1160 2.818 . S
C1163 C1164 1.510 . S
C1163 O1182 1.249 . S
C1163 O1183 1.252 . S
C1164 C1163 1.510 . S
C1164 C1165 1.404 . S
C1164 C1166 1.352 . S
C1165 C1164 1.404 . S
C1165 C1169 1.389 . S
C1165 H1192 0.930 . S
C1166 C1164 1.352 . S
C1166 C1168 1.374 . S
C1166 H1193 0.931 . S
C1167 C1168 1.359 . S
C1167 C1169 1.364 . S
C1168 C1166 1.374 . S
C1168 C1167 1.359 . S
C1168 H1194 0.931 . S
C1169 C1165 1.389 . S
C1169 C1167 1.364 . S
C1169 H1195 0.931 . S
C1170 O1184 1.256 . S
C1170 O1185 1.257 1_554 S
C1171 O1186 1.240 . S
C1171 O1187 1.240 1_556 S
C1172 Gd1161 2.818 . S
C1172 C1173 1.510 . S
C1172 O1188 1.249 . S
C1172 O1189 1.252 . S
C1173 C1172 1.510 . S
C1173 C1174 1.404 . S
C1173 C1175 1.352 . S
C1174 C1173 1.404 . S
C1174 C1178 1.389 . S
C1174 H1196 0.930 . S
C1175 C1173 1.352 . S
C1175 C1177 1.374 . S
C1175 H1197 0.931 . S
C1176 C1177 1.359 . S
C1176 C1178 1.364 . S
C1177 C1175 1.374 . S
C1177 C1176 1.359 . S
C1177 H1198 0.931 . S
C1178 C1174 1.389 . S
C1178 C1176 1.364 . S
C1178 H1199 0.931 . S
C1179 O1190 1.256 . S
C1179 O1191 1.257 1_556 S
O1180 Gd1160 2.377 . S
O1180 C1162 1.240 . S
O1181 Gd1161 2.395 . S
O1181 C1162 1.240 1_556 S
O1182 Gd1160 2.448 . S
O1182 C1163 1.249 . S
O1183 Gd1160 2.506 . S
O1183 C1163 1.252 . S
O1184 Gd1160 2.435 . S
O1184 C1170 1.256 . S
O1185 Gd1160 2.717 1_556 S
O1185 Gd1161 2.327 . S
O1185 C1170 1.257 1_556 S
O1186 Gd1161 2.377 . S
O1186 C1171 1.240 . S
O1187 Gd1160 2.395 . S
O1187 C1171 1.240 1_554 S
O1188 Gd1161 2.448 . S
O1188 C1172 1.249 . S
O1189 Gd1161 2.506 . S
O1189 C1172 1.252 . S
O1190 Gd1161 2.435 . S
O1190 C1179 1.256 . S
O1191 Gd1160 2.327 . S
O1191 Gd1161 2.717 1_554 S
O1191 C1179 1.257 1_554 S
H1192 C1165 0.930 . S
H1193 C1166 0.931 . S
H1194 C1168 0.931 . S
H1195 C1169 0.931 . S
H1196 C1174 0.930 . S
H1197 C1175 0.931 . S
H1198 C1177 0.931 . S
H1199 C1178 0.931 . S
Gd1200 C1203 2.818 . S
Gd1200 O1220 2.377 . S
Gd1200 O1222 2.448 . S
Gd1200 O1223 2.506 . S
Gd1200 O1224 2.435 . S
Gd1200 O1225 2.717 . S
Gd1200 O1227 2.395 . S
Gd1200 O1231 2.327 . S
Gd1201 C1212 2.818 . S
Gd1201 O1221 2.395 . S
Gd1201 O1225 2.327 . S
Gd1201 O1226 2.377 . S
Gd1201 O1228 2.448 . S
Gd1201 O1229 2.506 . S
Gd1201 O1230 2.435 . S
Gd1201 O1231 2.717 . S
C1202 O1220 1.240 . S
C1202 O1221 1.240 . S
C1203 Gd1200 2.818 . S
C1203 C1204 1.510 . S
C1203 O1222 1.249 . S
C1203 O1223 1.252 . S
C1204 C1203 1.510 . S
C1204 C1205 1.404 . S
C1204 C1206 1.352 . S
C1205 C1204 1.404 . S
C1205 C1209 1.389 . S
C1205 H1232 0.930 . S
C1206 C1204 1.352 . S
C1206 C1208 1.374 . S
C1206 H1233 0.931 . S
C1207 C1208 1.359 . S
C1207 C1209 1.364 . S
C1208 C1206 1.374 . S
C1208 C1207 1.359 . S
C1208 H1234 0.931 . S
C1209 C1205 1.389 . S
C1209 C1207 1.364 . S
C1209 H1235 0.931 . S
C1210 O1224 1.256 . S
C1210 O1225 1.257 . S
C1211 O1226 1.240 . S
C1211 O1227 1.240 . S
C1212 Gd1201 2.818 . S
C1212 C1213 1.510 . S
C1212 O1228 1.249 . S
C1212 O1229 1.252 . S
C1213 C1212 1.510 . S
C1213 C1214 1.404 . S
C1213 C1215 1.352 . S
C1214 C1213 1.404 . S
C1214 C1218 1.389 . S
C1214 H1236 0.930 . S
C1215 C1213 1.352 . S
C1215 C1217 1.374 . S
C1215 H1237 0.931 . S
C1216 C1217 1.359 . S
C1216 C1218 1.364 . S
C1217 C1215 1.374 . S
C1217 C1216 1.359 . S
C1217 H1238 0.931 . S
C1218 C1214 1.389 . S
C1218 C1216 1.364 . S
C1218 H1239 0.931 . S
C1219 O1230 1.256 . S
C1219 O1231 1.257 . S
O1220 Gd1200 2.377 . S
O1220 C1202 1.240 . S
O1221 Gd1201 2.395 . S
O1221 C1202 1.240 . S
O1222 Gd1200 2.448 . S
O1222 C1203 1.249 . S
O1223 Gd1200 2.506 . S
O1223 C1203 1.252 . S
O1224 Gd1200 2.435 . S
O1224 C1210 1.256 . S
O1225 Gd1200 2.717 . S
O1225 Gd1201 2.327 . S
O1225 C1210 1.257 . S
O1226 Gd1201 2.377 . S
O1226 C1211 1.240 . S
O1227 Gd1200 2.395 . S
O1227 C1211 1.240 . S
O1228 Gd1201 2.448 . S
O1228 C1212 1.249 . S
O1229 Gd1201 2.506 . S
O1229 C1212 1.252 . S
O1230 Gd1201 2.435 . S
O1230 C1219 1.256 . S
O1231 Gd1200 2.327 . S
O1231 Gd1201 2.717 . S
O1231 C1219 1.257 . S
H1232 C1205 0.930 . S
H1233 C1206 0.931 . S
H1234 C1208 0.931 . S
H1235 C1209 0.931 . S
H1236 C1214 0.930 . S
H1237 C1215 0.931 . S
H1238 C1217 0.931 . S
H1239 C1218 0.931 . S
Gd1240 C1243 2.818 . S
Gd1240 O1260 2.377 . S
Gd1240 O1262 2.448 . S
Gd1240 O1263 2.506 . S
Gd1240 O1264 2.435 . S
Gd1240 O1265 2.717 . S
Gd1240 O1267 2.395 . S
Gd1240 O1271 2.327 . S
Gd1241 C1252 2.818 . S
Gd1241 O1261 2.395 . S
Gd1241 O1265 2.327 . S
Gd1241 O1266 2.377 . S
Gd1241 O1268 2.448 . S
Gd1241 O1269 2.506 . S
Gd1241 O1270 2.435 . S
Gd1241 O1271 2.717 . S
C1242 O1260 1.240 . S
C1242 O1261 1.240 . S
C1243 Gd1240 2.818 . S
C1243 C1244 1.510 . S
C1243 O1262 1.249 . S
C1243 O1263 1.252 . S
C1244 C1243 1.510 . S
C1244 C1245 1.404 . S
C1244 C1246 1.352 . S
C1245 C1244 1.404 . S
C1245 C1249 1.389 . S
C1245 H1272 0.930 . S
C1246 C1244 1.352 . S
C1246 C1248 1.374 . S
C1246 H1273 0.931 . S
C1247 C1248 1.359 . S
C1247 C1249 1.364 . S
C1248 C1246 1.374 . S
C1248 C1247 1.359 . S
C1248 H1274 0.931 . S
C1249 C1245 1.389 . S
C1249 C1247 1.364 . S
C1249 H1275 0.931 . S
C1250 O1264 1.256 . S
C1250 O1265 1.257 . S
C1251 O1266 1.240 . S
C1251 O1267 1.240 . S
C1252 Gd1241 2.818 . S
C1252 C1253 1.510 . S
C1252 O1268 1.249 . S
C1252 O1269 1.252 . S
C1253 C1252 1.510 . S
C1253 C1254 1.404 . S
C1253 C1255 1.352 . S
C1254 C1253 1.404 . S
C1254 C1258 1.389 . S
C1254 H1276 0.930 . S
C1255 C1253 1.352 . S
C1255 C1257 1.374 . S
C1255 H1277 0.931 . S
C1256 C1257 1.359 . S
C1256 C1258 1.364 . S
C1257 C1255 1.374 . S
C1257 C1256 1.359 . S
C1257 H1278 0.931 . S
C1258 C1254 1.389 . S
C1258 C1256 1.364 . S
C1258 H1279 0.931 . S
C1259 O1270 1.256 . S
C1259 O1271 1.257 . S
O1260 Gd1240 2.377 . S
O1260 C1242 1.240 . S
O1261 Gd1241 2.395 . S
O1261 C1242 1.240 . S
O1262 Gd1240 2.448 . S
O1262 C1243 1.249 . S
O1263 Gd1240 2.506 . S
O1263 C1243 1.252 . S
O1264 Gd1240 2.435 . S
O1264 C1250 1.256 . S
O1265 Gd1240 2.717 . S
O1265 Gd1241 2.327 . S
O1265 C1250 1.257 . S
O1266 Gd1241 2.377 . S
O1266 C1251 1.240 . S
O1267 Gd1240 2.395 . S
O1267 C1251 1.240 . S
O1268 Gd1241 2.448 . S
O1268 C1252 1.249 . S
O1269 Gd1241 2.506 . S
O1269 C1252 1.252 . S
O1270 Gd1241 2.435 . S
O1270 C1259 1.256 . S
O1271 Gd1240 2.327 . S
O1271 Gd1241 2.717 . S
O1271 C1259 1.257 . S
H1272 C1245 0.930 . S
H1273 C1246 0.931 . S
H1274 C1248 0.931 . S
H1275 C1249 0.931 . S
H1276 C1254 0.930 . S
H1277 C1255 0.931 . S
H1278 C1257 0.931 . S
H1279 C1258 0.931 . S
Gd1280 C1283 2.818 . S
Gd1280 O1300 2.377 . S
Gd1280 O1302 2.448 . S
Gd1280 O1303 2.506 . S
Gd1280 O1304 2.435 . S
Gd1280 O1305 2.717 . S
Gd1280 O1307 2.395 . S
Gd1280 O1311 2.327 . S
Gd1281 C1292 2.818 . S
Gd1281 O1301 2.395 . S
Gd1281 O1305 2.327 . S
Gd1281 O1306 2.377 . S
Gd1281 O1308 2.448 . S
Gd1281 O1309 2.506 . S
Gd1281 O1310 2.435 . S
Gd1281 O1311 2.717 . S
C1282 O1300 1.240 . S
C1282 O1301 1.240 . S
C1283 Gd1280 2.818 . S
C1283 C1284 1.510 . S
C1283 O1302 1.249 . S
C1283 O1303 1.252 . S
C1284 C1283 1.510 . S
C1284 C1285 1.404 . S
C1284 C1286 1.352 . S
C1285 C1284 1.404 . S
C1285 C1289 1.389 . S
C1285 H1312 0.930 . S
C1286 C1284 1.352 . S
C1286 C1288 1.374 . S
C1286 H1313 0.931 . S
C1287 C1288 1.359 . S
C1287 C1289 1.364 . S
C1288 C1286 1.374 . S
C1288 C1287 1.359 . S
C1288 H1314 0.931 . S
C1289 C1285 1.389 . S
C1289 C1287 1.364 . S
C1289 H1315 0.931 . S
C1290 O1304 1.256 . S
C1290 O1305 1.257 . S
C1291 O1306 1.240 . S
C1291 O1307 1.240 . S
C1292 Gd1281 2.818 . S
C1292 C1293 1.510 . S
C1292 O1308 1.249 . S
C1292 O1309 1.252 . S
C1293 C1292 1.510 . S
C1293 C1294 1.404 . S
C1293 C1295 1.352 . S
C1294 C1293 1.404 . S
C1294 C1298 1.389 . S
C1294 H1316 0.930 . S
C1295 C1293 1.352 . S
C1295 C1297 1.374 . S
C1295 H1317 0.931 . S
C1296 C1297 1.359 . S
C1296 C1298 1.364 . S
C1297 C1295 1.374 . S
C1297 C1296 1.359 . S
C1297 H1318 0.931 . S
C1298 C1294 1.389 . S
C1298 C1296 1.364 . S
C1298 H1319 0.931 . S
C1299 O1310 1.256 . S
C1299 O1311 1.257 . S
O1300 Gd1280 2.377 . S
O1300 C1282 1.240 . S
O1301 Gd1281 2.395 . S
O1301 C1282 1.240 . S
O1302 Gd1280 2.448 . S
O1302 C1283 1.249 . S
O1303 Gd1280 2.506 . S
O1303 C1283 1.252 . S
O1304 Gd1280 2.435 . S
O1304 C1290 1.256 . S
O1305 Gd1280 2.717 . S
O1305 Gd1281 2.327 . S
O1305 C1290 1.257 . S
O1306 Gd1281 2.377 . S
O1306 C1291 1.240 . S
O1307 Gd1280 2.395 . S
O1307 C1291 1.240 . S
O1308 Gd1281 2.448 . S
O1308 C1292 1.249 . S
O1309 Gd1281 2.506 . S
O1309 C1292 1.252 . S
O1310 Gd1281 2.435 . S
O1310 C1299 1.256 . S
O1311 Gd1280 2.327 . S
O1311 Gd1281 2.717 . S
O1311 C1299 1.257 . S
H1312 C1285 0.930 . S
H1313 C1286 0.931 . S
H1314 C1288 0.931 . S
H1315 C1289 0.931 . S
H1316 C1294 0.930 . S
H1317 C1295 0.931 . S
H1318 C1297 0.931 . S
H1319 C1298 0.931 . S
Gd1320 C1323 2.818 . S
Gd1320 O1340 2.377 . S
Gd1320 O1342 2.448 . S
Gd1320 O1343 2.506 . S
Gd1320 O1344 2.435 . S
Gd1320 O1345 2.717 . S
Gd1320 O1347 2.395 . S
Gd1320 O1351 2.327 . S
Gd1321 C1332 2.818 . S
Gd1321 O1341 2.395 . S
Gd1321 O1345 2.327 . S
Gd1321 O1346 2.377 . S
Gd1321 O1348 2.448 . S
Gd1321 O1349 2.506 . S
Gd1321 O1350 2.435 . S
Gd1321 O1351 2.717 . S
C1322 O1340 1.240 . S
C1322 O1341 1.240 . S
C1323 Gd1320 2.818 . S
C1323 C1324 1.510 . S
C1323 O1342 1.249 . S
C1323 O1343 1.252 . S
C1324 C1323 1.510 . S
C1324 C1325 1.404 . S
C1324 C1326 1.352 . S
C1325 C1324 1.404 . S
C1325 C1329 1.389 . S
C1325 H1352 0.930 . S
C1326 C1324 1.352 . S
C1326 C1328 1.374 . S
C1326 H1353 0.931 . S
C1327 C1328 1.359 . S
C1327 C1329 1.364 . S
C1328 C1326 1.374 . S
C1328 C1327 1.359 . S
C1328 H1354 0.931 . S
C1329 C1325 1.389 . S
C1329 C1327 1.364 . S
C1329 H1355 0.931 . S
C1330 O1344 1.256 . S
C1330 O1345 1.257 . S
C1331 O1346 1.240 . S
C1331 O1347 1.240 . S
C1332 Gd1321 2.818 . S
C1332 C1333 1.510 . S
C1332 O1348 1.249 . S
C1332 O1349 1.252 . S
C1333 C1332 1.510 . S
C1333 C1334 1.404 . S
C1333 C1335 1.352 1_455 S
C1334 C1333 1.404 . S
C1334 C1338 1.389 . S
C1334 H1356 0.930 . S
C1335 C1333 1.352 1_655 S
C1335 C1337 1.374 . S
C1335 H1357 0.931 . S
C1336 C1337 1.359 . S
C1336 C1338 1.364 1_655 S
C1337 C1335 1.374 . S
C1337 C1336 1.359 . S
C1337 H1358 0.931 . S
C1338 C1334 1.389 . S
C1338 C1336 1.364 1_455 S
C1338 H1359 0.931 . S
C1339 O1350 1.256 . S
C1339 O1351 1.257 . S
O1340 Gd1320 2.377 . S
O1340 C1322 1.240 . S
O1341 Gd1321 2.395 . S
O1341 C1322 1.240 . S
O1342 Gd1320 2.448 . S
O1342 C1323 1.249 . S
O1343 Gd1320 2.506 . S
O1343 C1323 1.252 . S
O1344 Gd1320 2.435 . S
O1344 C1330 1.256 . S
O1345 Gd1320 2.717 . S
O1345 Gd1321 2.327 . S
O1345 C1330 1.257 . S
O1346 Gd1321 2.377 . S
O1346 C1331 1.240 . S
O1347 Gd1320 2.395 . S
O1347 C1331 1.240 . S
O1348 Gd1321 2.448 . S
O1348 C1332 1.249 . S
O1349 Gd1321 2.506 . S
O1349 C1332 1.252 . S
O1350 Gd1321 2.435 . S
O1350 C1339 1.256 . S
O1351 Gd1320 2.327 . S
O1351 Gd1321 2.717 . S
O1351 C1339 1.257 . S
H1352 C1325 0.930 . S
H1353 C1326 0.931 . S
H1354 C1328 0.931 . S
H1355 C1329 0.931 . S
H1356 C1334 0.930 . S
H1357 C1335 0.931 . S
H1358 C1337 0.931 . S
H1359 C1338 0.931 . S
Gd1360 C1363 2.818 . S
Gd1360 O1380 2.377 . S
Gd1360 O1382 2.448 . S
Gd1360 O1383 2.506 . S
Gd1360 O1384 2.435 . S
Gd1360 O1385 2.717 . S
Gd1360 O1387 2.395 . S
Gd1360 O1391 2.327 . S
Gd1361 C1372 2.818 . S
Gd1361 O1381 2.395 . S
Gd1361 O1385 2.327 . S
Gd1361 O1386 2.377 . S
Gd1361 O1388 2.448 . S
Gd1361 O1389 2.506 . S
Gd1361 O1390 2.435 . S
Gd1361 O1391 2.717 . S
C1362 O1380 1.240 . S
C1362 O1381 1.240 . S
C1363 Gd1360 2.818 . S
C1363 C1364 1.510 . S
C1363 O1382 1.249 . S
C1363 O1383 1.252 . S
C1364 C1363 1.510 . S
C1364 C1365 1.404 . S
C1364 C1366 1.352 . S
C1365 C1364 1.404 . S
C1365 C1369 1.389 . S
C1365 H1392 0.930 . S
C1366 C1364 1.352 . S
C1366 C1368 1.374 . S
C1366 H1393 0.931 . S
C1367 C1368 1.359 . S
C1367 C1369 1.364 . S
C1368 C1366 1.374 . S
C1368 C1367 1.359 . S
C1368 H1394 0.931 . S
C1369 C1365 1.389 . S
C1369 C1367 1.364 . S
C1369 H1395 0.931 . S
C1370 O1384 1.256 . S
C1370 O1385 1.257 . S
C1371 O1386 1.240 . S
C1371 O1387 1.240 . S
C1372 Gd1361 2.818 . S
C1372 C1373 1.510 . S
C1372 O1388 1.249 . S
C1372 O1389 1.252 . S
C1373 C1372 1.510 . S
C1373 C1374 1.404 . S
C1373 C1375 1.352 . S
C1374 C1373 1.404 . S
C1374 C1378 1.389 . S
C1374 H1396 0.930 . S
C1375 C1373 1.352 . S
C1375 C1377 1.374 . S
C1375 H1397 0.931 . S
C1376 C1377 1.359 . S
C1376 C1378 1.364 . S
C1377 C1375 1.374 . S
C1377 C1376 1.359 . S
C1377 H1398 0.931 . S
C1378 C1374 1.389 . S
C1378 C1376 1.364 . S
C1378 H1399 0.931 . S
C1379 O1390 1.256 . S
C1379 O1391 1.257 . S
O1380 Gd1360 2.377 . S
O1380 C1362 1.240 . S
O1381 Gd1361 2.395 . S
O1381 C1362 1.240 . S
O1382 Gd1360 2.448 . S
O1382 C1363 1.249 . S
O1383 Gd1360 2.506 . S
O1383 C1363 1.252 . S
O1384 Gd1360 2.435 . S
O1384 C1370 1.256 . S
O1385 Gd1360 2.717 . S
O1385 Gd1361 2.327 . S
O1385 C1370 1.257 . S
O1386 Gd1361 2.377 . S
O1386 C1371 1.240 . S
O1387 Gd1360 2.395 . S
O1387 C1371 1.240 . S
O1388 Gd1361 2.448 . S
O1388 C1372 1.249 . S
O1389 Gd1361 2.506 . S
O1389 C1372 1.252 . S
O1390 Gd1361 2.435 . S
O1390 C1379 1.256 . S
O1391 Gd1360 2.327 . S
O1391 Gd1361 2.717 . S
O1391 C1379 1.257 . S
H1392 C1365 0.930 . S
H1393 C1366 0.931 . S
H1394 C1368 0.931 . S
H1395 C1369 0.931 . S
H1396 C1374 0.930 . S
H1397 C1375 0.931 . S
H1398 C1377 0.931 . S
H1399 C1378 0.931 . S
Gd1400 C1403 2.818 . S
Gd1400 O1420 2.377 . S
Gd1400 O1422 2.448 . S
Gd1400 O1423 2.506 . S
Gd1400 O1424 2.435 . S
Gd1400 O1425 2.717 . S
Gd1400 O1427 2.395 . S
Gd1400 O1431 2.327 . S
Gd1401 C1412 2.818 . S
Gd1401 O1421 2.395 . S
Gd1401 O1425 2.327 . S
Gd1401 O1426 2.377 . S
Gd1401 O1428 2.448 . S
Gd1401 O1429 2.506 . S
Gd1401 O1430 2.435 . S
Gd1401 O1431 2.717 . S
C1402 O1420 1.240 . S
C1402 O1421 1.240 . S
C1403 Gd1400 2.818 . S
C1403 C1404 1.510 . S
C1403 O1422 1.249 . S
C1403 O1423 1.252 . S
C1404 C1403 1.510 . S
C1404 C1405 1.404 . S
C1404 C1406 1.352 . S
C1405 C1404 1.404 . S
C1405 C1409 1.389 . S
C1405 H1432 0.930 . S
C1406 C1404 1.352 . S
C1406 C1408 1.374 . S
C1406 H1433 0.931 . S
C1407 C1408 1.359 . S
C1407 C1409 1.364 . S
C1408 C1406 1.374 . S
C1408 C1407 1.359 . S
C1408 H1434 0.931 . S
C1409 C1405 1.389 . S
C1409 C1407 1.364 . S
C1409 H1435 0.931 . S
C1410 O1424 1.256 . S
C1410 O1425 1.257 . S
C1411 O1426 1.240 . S
C1411 O1427 1.240 . S
C1412 Gd1401 2.818 . S
C1412 C1413 1.510 . S
C1412 O1428 1.249 . S
C1412 O1429 1.252 . S
C1413 C1412 1.510 . S
C1413 C1414 1.404 . S
C1413 C1415 1.352 1_565 S
C1414 C1413 1.404 . S
C1414 C1418 1.389 . S
C1414 H1436 0.930 . S
C1415 C1413 1.352 1_545 S
C1415 C1417 1.374 . S
C1415 H1437 0.931 . S
C1416 C1417 1.359 . S
C1416 C1418 1.364 1_545 S
C1417 C1415 1.374 . S
C1417 C1416 1.359 . S
C1417 H1438 0.931 . S
C1418 C1414 1.389 . S
C1418 C1416 1.364 1_565 S
C1418 H1439 0.931 . S
C1419 O1430 1.256 . S
C1419 O1431 1.257 . S
O1420 Gd1400 2.377 . S
O1420 C1402 1.240 . S
O1421 Gd1401 2.395 . S
O1421 C1402 1.240 . S
O1422 Gd1400 2.448 . S
O1422 C1403 1.249 . S
O1423 Gd1400 2.506 . S
O1423 C1403 1.252 . S
O1424 Gd1400 2.435 . S
O1424 C1410 1.256 . S
O1425 Gd1400 2.717 . S
O1425 Gd1401 2.327 . S
O1425 C1410 1.257 . S
O1426 Gd1401 2.377 . S
O1426 C1411 1.240 . S
O1427 Gd1400 2.395 . S
O1427 C1411 1.240 . S
O1428 Gd1401 2.448 . S
O1428 C1412 1.249 . S
O1429 Gd1401 2.506 . S
O1429 C1412 1.252 . S
O1430 Gd1401 2.435 . S
O1430 C1419 1.256 . S
O1431 Gd1400 2.327 . S
O1431 Gd1401 2.717 . S
O1431 C1419 1.257 . S
H1432 C1405 0.930 . S
H1433 C1406 0.931 . S
H1434 C1408 0.931 . S
H1435 C1409 0.931 . S
H1436 C1414 0.930 . S
H1437 C1415 0.931 . S
H1438 C1417 0.931 . S
H1439 C1418 0.931 . S
C1440 C1441 1.387 . S
C1440 H1444 0.950 . S
C1440 C1449 1.390 . S
C1441 C1440 1.387 . S
C1441 C1443 1.387 . S
H1442 C1449 0.950 . S
C1443 C1441 1.387 . S
C1443 C1445 1.390 . S
C1443 H1447 0.950 . S
H1444 C1440 0.950 . S
C1445 C1443 1.390 . S
C1445 C1446 1.387 . S
C1445 H1448 0.950 . S
C1446 C1445 1.387 . S
C1446 C1449 1.387 . S
H1447 C1443 0.950 . S
H1448 C1445 0.950 . S
C1449 C1440 1.390 . S
C1449 H1442 0.950 . S
C1449 C1446 1.387 . S
C1450 C1451 1.387 . S
C1450 H1454 0.950 . S
C1450 C1459 1.390 . S
C1451 C1450 1.387 . S
C1451 C1453 1.387 . S
H1452 C1459 0.950 . S
C1453 C1451 1.387 . S
C1453 C1455 1.390 . S
C1453 H1457 0.950 . S
H1454 C1450 0.950 . S
C1455 C1453 1.390 . S
C1455 C1456 1.387 . S
C1455 H1458 0.950 . S
C1456 C1455 1.387 . S
C1456 C1459 1.387 . S
H1457 C1453 0.950 . S
H1458 C1455 0.950 . S
C1459 C1450 1.390 . S
C1459 H1452 0.950 . S
C1459 C1456 1.387 . S
C1460 C1461 1.387 . S
C1460 H1464 0.950 . S
C1460 C1469 1.390 . S
C1461 C1460 1.387 . S
C1461 C1463 1.387 . S
H1462 C1469 0.950 . S
C1463 C1461 1.387 . S
C1463 C1465 1.390 . S
C1463 H1467 0.950 . S
H1464 C1460 0.950 . S
C1465 C1463 1.390 . S
C1465 C1466 1.387 . S
C1465 H1468 0.950 . S
C1466 C1465 1.387 . S
C1466 C1469 1.387 . S
H1467 C1463 0.950 . S
H1468 C1465 0.950 . S
C1469 C1460 1.390 . S
C1469 H1462 0.950 . S
C1469 C1466 1.387 . S
C1470 C1471 1.387 . S
C1470 H1474 0.950 . S
C1470 C1479 1.390 . S
C1471 C1470 1.387 . S
C1471 C1473 1.387 . S
H1472 C1479 0.950 . S
C1473 C1471 1.387 . S
C1473 C1475 1.390 . S
C1473 H1477 0.950 . S
H1474 C1470 0.950 . S
C1475 C1473 1.390 . S
C1475 C1476 1.387 . S
C1475 H1478 0.950 . S
C1476 C1475 1.387 . S
C1476 C1479 1.387 . S
H1477 C1473 0.950 . S
H1478 C1475 0.950 . S
C1479 C1470 1.390 . S
C1479 H1472 0.950 . S
C1479 C1476 1.387 . S
C1480 C1481 1.387 . S
C1480 H1484 0.950 . S
C1480 C1489 1.390 . S
C1481 C1480 1.387 . S
C1481 C1483 1.387 . S
H1482 C1489 0.950 . S
C1483 C1481 1.387 . S
C1483 C1485 1.390 . S
C1483 H1487 0.950 . S
H1484 C1480 0.950 . S
C1485 C1483 1.390 . S
C1485 C1486 1.387 . S
C1485 H1488 0.950 . S
C1486 C1485 1.387 . S
C1486 C1489 1.387 . S
H1487 C1483 0.950 . S
H1488 C1485 0.950 . S
C1489 C1480 1.390 . S
C1489 H1482 0.950 . S
C1489 C1486 1.387 . S
C1490 C1491 1.387 . S
C1490 H1494 0.950 . S
C1490 C1499 1.390 . S
C1491 C1490 1.387 . S
C1491 C1493 1.387 . S
H1492 C1499 0.950 . S
C1493 C1491 1.387 . S
C1493 C1495 1.390 . S
C1493 H1497 0.950 . S
H1494 C1490 0.950 . S
C1495 C1493 1.390 . S
C1495 C1496 1.387 . S
C1495 H1498 0.950 . S
C1496 C1495 1.387 . S
C1496 C1499 1.387 . S
H1497 C1493 0.950 . S
H1498 C1495 0.950 . S
C1499 C1490 1.390 . S
C1499 H1492 0.950 . S
C1499 C1496 1.387 . S
C1500 C1501 1.387 . S
C1500 H1504 0.950 . S
C1500 C1509 1.390 . S
C1501 C1500 1.387 . S
C1501 C1503 1.387 . S
H1502 C1509 0.950 . S
C1503 C1501 1.387 . S
C1503 C1505 1.390 . S
C1503 H1507 0.950 . S
H1504 C1500 0.950 . S
C1505 C1503 1.390 . S
C1505 C1506 1.387 . S
C1505 H1508 0.950 . S
C1506 C1505 1.387 . S
C1506 C1509 1.387 . S
H1507 C1503 0.950 . S
H1508 C1505 0.950 . S
C1509 C1500 1.390 . S
C1509 H1502 0.950 . S
C1509 C1506 1.387 . S
C1510 C1511 1.387 . S
C1510 H1514 0.950 . S
C1510 C1519 1.390 . S
C1511 C1510 1.387 . S
C1511 C1513 1.387 . S
H1512 C1519 0.950 . S
C1513 C1511 1.387 . S
C1513 C1515 1.390 . S
C1513 H1517 0.950 . S
H1514 C1510 0.950 . S
C1515 C1513 1.390 . S
C1515 C1516 1.387 . S
C1515 H1518 0.950 . S
C1516 C1515 1.387 . S
C1516 C1519 1.387 . S
H1517 C1513 0.950 . S
H1518 C1515 0.950 . S
C1519 C1510 1.390 . S
C1519 H1512 0.950 . S
C1519 C1516 1.387 . S
C1520 C1521 1.387 . S
C1520 H1524 0.950 . S
C1520 C1529 1.390 . S
C1521 C1520 1.387 . S
C1521 C1523 1.387 . S
H1522 C1529 0.950 . S
C1523 C1521 1.387 . S
C1523 C1525 1.390 . S
C1523 H1527 0.950 . S
H1524 C1520 0.950 . S
C1525 C1523 1.390 . S
C1525 C1526 1.387 . S
C1525 H1528 0.950 . S
C1526 C1525 1.387 . S
C1526 C1529 1.387 . S
H1527 C1523 0.950 . S
H1528 C1525 0.950 . S
C1529 C1520 1.390 . S
C1529 H1522 0.950 . S
C1529 C1526 1.387 . S
C1530 C1531 1.387 . S
C1530 H1534 0.950 . S
C1530 C1539 1.390 . S
C1531 C1530 1.387 . S
C1531 C1533 1.387 . S
H1532 C1539 0.950 . S
C1533 C1531 1.387 . S
C1533 C1535 1.390 . S
C1533 H1537 0.950 . S
H1534 C1530 0.950 . S
C1535 C1533 1.390 . S
C1535 C1536 1.387 . S
C1535 H1538 0.950 . S
C1536 C1535 1.387 . S
C1536 C1539 1.387 . S
H1537 C1533 0.950 . S
H1538 C1535 0.950 . S
C1539 C1530 1.390 . S
C1539 H1532 0.950 . S
C1539 C1536 1.387 . S
C1540 C1541 1.387 . S
C1540 H1544 0.950 . S
C1540 C1549 1.390 . S
C1541 C1540 1.387 . S
C1541 C1543 1.387 . S
H1542 C1549 0.950 . S
C1543 C1541 1.387 . S
C1543 C1545 1.390 . S
C1543 H1547 0.950 . S
H1544 C1540 0.950 . S
C1545 C1543 1.390 . S
C1545 C1546 1.387 . S
C1545 H1548 0.950 . S
C1546 C1545 1.387 . S
C1546 C1549 1.387 . S
H1547 C1543 0.950 . S
H1548 C1545 0.950 . S
C1549 C1540 1.390 . S
C1549 H1542 0.950 . S
C1549 C1546 1.387 . S
C1550 C1551 1.387 . S
C1550 H1554 0.950 . S
C1550 C1559 1.390 . S
C1551 C1550 1.387 . S
C1551 C1553 1.387 . S
H1552 C1559 0.950 . S
C1553 C1551 1.387 . S
C1553 C1555 1.390 . S
C1553 H1557 0.950 . S
H1554 C1550 0.950 . S
C1555 C1553 1.390 . S
C1555 C1556 1.387 . S
C1555 H1558 0.950 . S
C1556 C1555 1.387 . S
C1556 C1559 1.387 . S
H1557 C1553 0.950 . S
H1558 C1555 0.950 . S
C1559 C1550 1.390 . S
C1559 H1552 0.950 . S
C1559 C1556 1.387 . S
C1560 C1561 1.387 . S
C1560 H1564 0.950 . S
C1560 C1569 1.390 . S
C1561 C1560 1.387 . S
C1561 C1563 1.387 . S
H1562 C1569 0.950 . S
C1563 C1561 1.387 . S
C1563 C1565 1.390 . S
C1563 H1567 0.950 . S
H1564 C1560 0.950 . S
C1565 C1563 1.390 . S
C1565 C1566 1.387 . S
C1565 H1568 0.950 . S
C1566 C1565 1.387 . S
C1566 C1569 1.387 . S
H1567 C1563 0.950 . S
H1568 C1565 0.950 . S
C1569 C1560 1.390 . S
C1569 H1562 0.950 . S
C1569 C1566 1.387 . S
C1570 C1571 1.387 . S
C1570 H1574 0.950 . S
C1570 C1579 1.390 . S
C1571 C1570 1.387 . S
C1571 C1573 1.387 . S
H1572 C1579 0.950 . S
C1573 C1571 1.387 . S
C1573 C1575 1.390 . S
C1573 H1577 0.950 . S
H1574 C1570 0.950 . S
C1575 C1573 1.390 . S
C1575 C1576 1.387 . S
C1575 H1578 0.950 . S
C1576 C1575 1.387 . S
C1576 C1579 1.387 . S
H1577 C1573 0.950 . S
H1578 C1575 0.950 . S
C1579 C1570 1.390 . S
C1579 H1572 0.950 . S
C1579 C1576 1.387 . S
C1580 C1581 1.387 . S
C1580 H1584 0.950 . S
C1580 C1589 1.390 . S
C1581 C1580 1.387 . S
C1581 C1583 1.387 . S
H1582 C1589 0.950 . S
C1583 C1581 1.387 . S
C1583 C1585 1.390 . S
C1583 H1587 0.950 . S
H1584 C1580 0.950 . S
C1585 C1583 1.390 . S
C1585 C1586 1.387 . S
C1585 H1588 0.950 . S
C1586 C1585 1.387 . S
C1586 C1589 1.387 . S
H1587 C1583 0.950 . S
H1588 C1585 0.950 . S
C1589 C1580 1.390 . S
C1589 H1582 0.950 . S
C1589 C1586 1.387 . S
C1590 C1591 1.387 . S
C1590 H1594 0.950 . S
C1590 C1599 1.390 . S
C1591 C1590 1.387 . S
C1591 C1593 1.387 . S
H1592 C1599 0.950 . S
C1593 C1591 1.387 . S
C1593 C1595 1.390 . S
C1593 H1597 0.950 . S
H1594 C1590 0.950 . S
C1595 C1593 1.390 . S
C1595 C1596 1.387 . S
C1595 H1598 0.950 . S
C1596 C1595 1.387 . S
C1596 C1599 1.387 . S
H1597 C1593 0.950 . S
H1598 C1595 0.950 . S
C1599 C1590 1.390 . S
C1599 H1592 0.950 . S
C1599 C1596 1.387 . S
C1600 C1601 1.387 . S
C1600 H1604 0.950 . S
C1600 C1609 1.390 . S
C1601 C1600 1.387 . S
C1601 C1603 1.387 . S
H1602 C1609 0.950 . S
C1603 C1601 1.387 . S
C1603 C1605 1.390 . S
C1603 H1607 0.950 . S
H1604 C1600 0.950 . S
C1605 C1603 1.390 . S
C1605 C1606 1.387 . S
C1605 H1608 0.950 . S
C1606 C1605 1.387 . S
C1606 C1609 1.387 . S
H1607 C1603 0.950 . S
H1608 C1605 0.950 . S
C1609 C1600 1.390 . S
C1609 H1602 0.950 . S
C1609 C1606 1.387 . S
C1610 C1611 1.387 . S
C1610 H1614 0.950 . S
C1610 C1619 1.390 . S
C1611 C1610 1.387 . S
C1611 C1613 1.387 . S
H1612 C1619 0.950 . S
C1613 C1611 1.387 . S
C1613 C1615 1.390 . S
C1613 H1617 0.950 . S
H1614 C1610 0.950 . S
C1615 C1613 1.390 . S
C1615 C1616 1.387 . S
C1615 H1618 0.950 . S
C1616 C1615 1.387 . S
C1616 C1619 1.387 . S
H1617 C1613 0.950 . S
H1618 C1615 0.950 . S
C1619 C1610 1.390 . S
C1619 H1612 0.950 . S
C1619 C1616 1.387 . S
C1620 C1621 1.387 . S
C1620 H1624 0.950 . S
C1620 C1629 1.390 . S
C1621 C1620 1.387 . S
C1621 C1623 1.387 . S
H1622 C1629 0.950 . S
C1623 C1621 1.387 . S
C1623 C1625 1.390 . S
C1623 H1627 0.950 . S
H1624 C1620 0.950 . S
C1625 C1623 1.390 . S
C1625 C1626 1.387 . S
C1625 H1628 0.950 . S
C1626 C1625 1.387 . S
C1626 C1629 1.387 . S
H1627 C1623 0.950 . S
H1628 C1625 0.950 . S
C1629 C1620 1.390 . S
C1629 H1622 0.950 . S
C1629 C1626 1.387 . S
C1630 C1631 1.387 . S
C1630 H1634 0.950 . S
C1630 C1639 1.390 . S
C1631 C1630 1.387 . S
C1631 C1633 1.387 . S
H1632 C1639 0.950 . S
C1633 C1631 1.387 . S
C1633 C1635 1.390 . S
C1633 H1637 0.950 . S
H1634 C1630 0.950 . S
C1635 C1633 1.390 . S
C1635 C1636 1.387 . S
C1635 H1638 0.950 . S
C1636 C1635 1.387 . S
C1636 C1639 1.387 . S
H1637 C1633 0.950 . S
H1638 C1635 0.950 . S
C1639 C1630 1.390 . S
C1639 H1632 0.950 . S
C1639 C1636 1.387 . S
C1640 C1641 1.387 . S
C1640 H1644 0.950 . S
C1640 C1649 1.390 . S
C1641 C1640 1.387 . S
C1641 C1643 1.387 . S
H1642 C1649 0.950 . S
C1643 C1641 1.387 . S
C1643 C1645 1.390 . S
C1643 H1647 0.950 . S
H1644 C1640 0.950 . S
C1645 C1643 1.390 . S
C1645 C1646 1.387 . S
C1645 H1648 0.950 . S
C1646 C1645 1.387 . S
C1646 C1649 1.387 . S
H1647 C1643 0.950 . S
H1648 C1645 0.950 . S
C1649 C1640 1.390 . S
C1649 H1642 0.950 . S
C1649 C1646 1.387 . S
C1650 C1651 1.387 . S
C1650 H1654 0.950 . S
C1650 C1659 1.390 . S
C1651 C1650 1.387 . S
C1651 C1653 1.387 . S
H1652 C1659 0.950 . S
C1653 C1651 1.387 . S
C1653 C1655 1.407 . S
C1653 H1657 0.950 . S
H1654 C1650 0.950 . S
C1655 C1653 1.407 . S
C1655 C1656 1.402 . S
C1655 H1658 0.933 1_554 S
C1656 C1655 1.402 . S
C1656 C1659 1.387 . S
H1657 C1653 0.950 . S
H1658 C1655 0.933 1_556 S
C1659 C1650 1.390 . S
C1659 H1652 0.950 . S
C1659 C1656 1.387 . S
C1660 C1661 1.387 1_556 S
C1660 H1664 0.950 . S
C1660 C1669 1.390 . S
C1661 C1660 1.387 1_554 S
C1661 C1663 1.387 . S
H1662 C1669 0.950 . S
C1663 C1661 1.387 . S
C1663 C1665 1.390 . S
C1663 H1667 0.950 . S
H1664 C1660 0.950 . S
C1665 C1663 1.390 . S
C1665 C1666 1.387 . S
C1665 H1668 0.950 . S
C1666 C1665 1.387 . S
C1666 C1669 1.387 1_554 S
H1667 C1663 0.950 . S
H1668 C1665 0.950 . S
C1669 C1660 1.390 . S
C1669 H1662 0.950 . S
C1669 C1666 1.387 1_556 S
C1670 C1671 1.387 . S
C1670 H1674 0.950 . S
C1670 C1679 1.390 . S
C1671 C1670 1.387 . S
C1671 C1673 1.387 1_554 S
H1672 C1679 0.950 . S
C1673 C1671 1.387 1_556 S
C1673 C1675 1.390 . S
C1673 H1677 0.950 . S
H1674 C1670 0.950 . S
C1675 C1673 1.390 . S
C1675 C1676 1.387 1_556 S
C1675 H1678 0.950 . S
C1676 C1675 1.387 1_554 S
C1676 C1679 1.387 . S
H1677 C1673 0.950 . S
H1678 C1675 0.950 . S
C1679 C1670 1.390 . S
C1679 H1672 0.950 . S
C1679 C1676 1.387 . S
C1680 C1681 1.387 . S
C1680 H1684 0.950 . S
C1680 C1689 1.390 . S
C1681 C1680 1.387 . S
C1681 C1683 1.387 . S
H1682 C1689 0.950 . S
C1683 C1681 1.387 . S
C1683 C1685 1.390 . S
C1683 H1687 0.950 . S
H1684 C1680 0.950 . S
C1685 C1683 1.390 . S
C1685 C1686 1.387 . S
C1685 H1688 0.950 . S
C1686 C1685 1.387 . S
C1686 C1689 1.387 . S
H1687 C1683 0.950 . S
H1688 C1685 0.950 . S
C1689 C1680 1.390 . S
C1689 H1682 0.950 . S
C1689 C1686 1.387 . S
C1690 C1691 1.387 . S
C1690 H1694 0.950 . S
C1690 C1699 1.390 . S
C1691 C1690 1.387 . S
C1691 C1693 1.387 . S
H1692 C1699 0.950 . S
C1693 C1691 1.387 . S
C1693 C1695 1.390 . S
C1693 H1697 0.950 . S
H1694 C1690 0.950 . S
C1695 C1693 1.390 . S
C1695 C1696 1.387 . S
C1695 H1698 0.950 . S
C1696 C1695 1.387 . S
C1696 C1699 1.387 . S
H1697 C1693 0.950 . S
H1698 C1695 0.950 . S
C1699 C1690 1.390 . S
C1699 H1692 0.950 . S
C1699 C1696 1.387 . S
C1700 C1701 1.387 . S
C1700 H1704 0.950 . S
C1700 C1709 1.390 . S
C1701 C1700 1.387 . S
C1701 C1703 1.387 . S
H1702 C1709 0.950 . S
C1703 C1701 1.387 . S
C1703 C1705 1.390 . S
C1703 H1707 0.950 . S
H1704 C1700 0.950 . S
C1705 C1703 1.390 . S
C1705 C1706 1.387 . S
C1705 H1708 0.950 . S
C1706 C1705 1.387 . S
C1706 C1709 1.387 . S
H1707 C1703 0.950 . S
H1708 C1705 0.950 . S
C1709 C1700 1.390 . S
C1709 H1702 0.950 . S
C1709 C1706 1.387 . S
C1710 C1711 1.387 1_554 S
C1710 H1714 0.950 . S
C1710 C1719 1.390 . S
C1711 C1710 1.387 1_556 S
C1711 C1713 1.387 . S
H1712 C1719 0.950 . S
C1713 C1711 1.387 . S
C1713 C1715 1.390 . S
C1713 H1717 0.950 . S
H1714 C1710 0.950 . S
C1715 C1713 1.390 . S
C1715 C1716 1.387 . S
C1715 H1718 0.950 . S
C1716 C1715 1.387 . S
C1716 C1719 1.387 1_556 S
H1717 C1713 0.950 . S
H1718 C1715 0.950 . S
C1719 C1710 1.390 . S
C1719 H1712 0.950 . S
C1719 C1716 1.387 1_554 S
C1720 C1721 1.387 1_554 S
C1720 H1724 0.950 . S
C1720 C1729 1.390 . S
C1721 C1720 1.387 1_556 S
C1721 C1723 1.387 . S
H1722 C1729 0.950 . S
C1723 C1721 1.387 . S
C1723 C1725 1.390 . S
C1723 H1727 0.950 . S
H1724 C1720 0.950 . S
C1725 C1723 1.390 . S
C1725 C1726 1.387 . S
C1725 H1728 0.950 . S
C1726 C1725 1.387 . S
C1726 C1729 1.387 1_556 S
H1727 C1723 0.950 . S
H1728 C1725 0.950 . S
C1729 C1720 1.390 . S
C1729 H1722 0.950 . S
C1729 C1726 1.387 1_554 S
C1730 C1731 1.387 . S
C1730 H1734 0.950 . S
C1730 C1739 1.390 . S
C1731 C1730 1.387 . S
C1731 C1733 1.387 1_556 S
H1732 C1739 0.950 . S
C1733 C1731 1.387 1_554 S
C1733 C1735 1.390 . S
C1733 H1737 0.950 . S
H1734 C1730 0.950 . S
C1735 C1733 1.390 . S
C1735 C1736 1.387 1_554 S
C1735 H1738 0.950 . S
C1736 C1735 1.387 1_556 S
C1736 C1739 1.387 . S
H1737 C1733 0.950 . S
H1738 C1735 0.950 . S
C1739 C1730 1.390 . S
C1739 H1732 0.950 . S
C1739 C1736 1.387 . S
C1740 C1741 1.387 . S
C1740 H1744 0.950 . S
C1740 C1749 1.390 . S
C1741 C1740 1.387 . S
C1741 C1743 1.387 . S
H1742 C1749 0.950 . S
C1743 C1741 1.387 . S
C1743 C1745 1.390 . S
C1743 H1747 0.950 . S
H1744 C1740 0.950 . S
C1745 C1743 1.390 . S
C1745 C1746 1.387 . S
C1745 H1748 0.950 . S
C1746 C1745 1.387 . S
C1746 C1749 1.387 . S
H1747 C1743 0.950 . S
H1748 C1745 0.950 . S
C1749 C1740 1.390 . S
C1749 H1742 0.950 . S
C1749 C1746 1.387 . S
C1750 C1751 1.387 . S
C1750 H1754 0.950 . S
C1750 C1759 1.390 . S
C1751 C1750 1.387 . S
C1751 C1753 1.387 . S
H1752 C1759 0.950 . S
C1753 C1751 1.387 . S
C1753 C1755 1.390 . S
C1753 H1757 0.950 . S
H1754 C1750 0.950 . S
C1755 C1753 1.390 . S
C1755 C1756 1.387 . S
C1755 H1758 0.950 . S
C1756 C1755 1.387 . S
C1756 C1759 1.387 . S
H1757 C1753 0.950 . S
H1758 C1755 0.950 . S
C1759 C1750 1.390 . S
C1759 H1752 0.950 . S
C1759 C1756 1.387 . S
C1760 C1761 1.387 . S
C1760 H1764 0.950 . S
C1760 C1769 1.390 . S
C1761 C1760 1.387 . S
C1761 C1763 1.387 . S
H1762 C1769 0.950 . S
C1763 C1761 1.387 . S
C1763 C1765 1.390 . S
C1763 H1767 0.950 . S
H1764 C1760 0.950 . S
C1765 C1763 1.390 . S
C1765 C1766 1.387 . S
C1765 H1768 0.950 . S
C1766 C1765 1.387 . S
C1766 C1769 1.387 . S
H1767 C1763 0.950 . S
H1768 C1765 0.950 . S
C1769 C1760 1.390 . S
C1769 H1762 0.950 . S
C1769 C1766 1.387 . S
C1770 C1771 1.387 . S
C1770 H1774 0.950 . S
C1770 C1779 1.390 . S
C1771 C1770 1.387 . S
C1771 C1773 1.387 . S
H1772 C1779 0.950 . S
C1773 C1771 1.387 . S
C1773 C1775 1.390 . S
C1773 H1777 0.950 . S
H1774 C1770 0.950 . S
C1775 C1773 1.390 . S
C1775 C1776 1.387 . S
C1775 H1778 0.950 . S
C1776 C1775 1.387 . S
C1776 C1779 1.387 . S
H1777 C1773 0.950 . S
H1778 C1775 0.950 . S
C1779 C1770 1.390 . S
C1779 H1772 0.950 . S
C1779 C1776 1.387 . S
C1780 C1781 1.387 . S
C1780 H1784 0.950 . S
C1780 C1789 1.390 . S
C1781 C1780 1.387 . S
C1781 C1783 1.387 . S
H1782 C1789 0.950 . S
C1783 C1781 1.387 . S
C1783 C1785 1.390 . S
C1783 H1787 0.950 . S
H1784 C1780 0.950 . S
C1785 C1783 1.390 . S
C1785 C1786 1.387 . S
C1785 H1788 0.950 . S
C1786 C1785 1.387 . S
C1786 C1789 1.387 . S
H1787 C1783 0.950 . S
H1788 C1785 0.950 . S
C1789 C1780 1.390 . S
C1789 H1782 0.950 . S
C1789 C1786 1.387 . S
C1790 C1791 1.387 . S
C1790 H1794 0.950 . S
C1790 C1799 1.390 . S
C1791 C1790 1.387 . S
C1791 C1793 1.387 . S
H1792 C1799 0.950 . S
C1793 C1791 1.387 . S
C1793 C1795 1.390 . S
C1793 H1797 0.950 . S
H1794 C1790 0.950 . S
C1795 C1793 1.390 . S
C1795 C1796 1.387 . S
C1795 H1798 0.950 . S
C1796 C1795 1.387 . S
C1796 C1799 1.387 . S
H1797 C1793 0.950 . S
H1798 C1795 0.950 . S
C1799 C1790 1.390 . S
C1799 H1792 0.950 . S
C1799 C1796 1.387 . S
C1800 C1801 1.387 . S
C1800 H1804 0.950 . S
C1800 C1809 1.390 . S
C1801 C1800 1.387 . S
C1801 C1803 1.387 . S
H1802 C1809 0.950 . S
C1803 C1801 1.387 . S
C1803 C1805 1.390 . S
C1803 H1807 0.950 . S
H1804 C1800 0.950 . S
C1805 C1803 1.390 . S
C1805 C1806 1.387 . S
C1805 H1808 0.950 . S
C1806 C1805 1.387 . S
C1806 C1809 1.387 . S
H1807 C1803 0.950 . S
H1808 C1805 0.950 . S
C1809 C1800 1.390 . S
C1809 H1802 0.950 . S
C1809 C1806 1.387 . S
C1810 C1811 1.387 . S
C1810 H1814 0.950 . S
C1810 C1819 1.390 . S
C1811 C1810 1.387 . S
C1811 C1813 1.387 . S
H1812 C1819 0.950 . S
C1813 C1811 1.387 . S
C1813 C1815 1.390 . S
C1813 H1817 0.950 1_565 S
H1814 C1810 0.950 . S
C1815 C1813 1.390 . S
C1815 C1816 1.387 . S
C1815 H1818 0.950 . S
C1816 C1815 1.387 . S
C1816 C1819 1.387 . S
H1817 C1813 0.950 1_545 S
H1818 C1815 0.950 . S
C1819 C1810 1.390 . S
C1819 H1812 0.950 . S
C1819 C1816 1.387 . S
C1820 C1821 1.387 . S
C1820 H1824 0.950 . S
C1820 C1829 1.390 . S
C1821 C1820 1.387 . S
C1821 C1823 1.387 . S
H1822 C1829 0.950 . S
C1823 C1821 1.387 . S
C1823 C1825 1.390 . S
C1823 H1827 0.950 . S
H1824 C1820 0.950 . S
C1825 C1823 1.390 . S
C1825 C1826 1.387 . S
C1825 H1828 0.950 . S
C1826 C1825 1.387 . S
C1826 C1829 1.387 . S
H1827 C1823 0.950 . S
H1828 C1825 0.950 . S
C1829 C1820 1.390 . S
C1829 H1822 0.950 . S
C1829 C1826 1.387 . S
C1830 C1831 1.387 . S
C1830 H1834 0.950 . S
C1830 C1839 1.390 . S
C1831 C1830 1.387 . S
C1831 C1833 1.387 . S
H1832 C1839 0.950 . S
C1833 C1831 1.387 . S
C1833 C1835 1.390 . S
C1833 H1837 0.950 . S
H1834 C1830 0.950 . S
C1835 C1833 1.390 . S
C1835 C1836 1.387 . S
C1835 H1838 0.950 . S
C1836 C1835 1.387 . S
C1836 C1839 1.387 . S
H1837 C1833 0.950 . S
H1838 C1835 0.950 . S
C1839 C1830 1.390 . S
C1839 H1832 0.950 . S
C1839 C1836 1.387 . S
C1840 C1841 1.387 . S
C1840 H1844 0.950 . S
C1840 C1849 1.390 . S
C1841 C1840 1.387 . S
C1841 C1843 1.387 . S
H1842 C1849 0.950 . S
C1843 C1841 1.387 . S
C1843 C1845 1.390 . S
C1843 H1847 0.950 . S
H1844 C1840 0.950 . S
C1845 C1843 1.390 . S
C1845 C1846 1.387 . S
C1845 H1848 0.950 . S
C1846 C1845 1.387 . S
C1846 C1849 1.387 . S
H1847 C1843 0.950 . S
H1848 C1845 0.950 . S
C1849 C1840 1.390 . S
C1849 H1842 0.950 . S
C1849 C1846 1.387 . S
C1850 C1851 1.387 . S
C1850 H1854 0.950 . S
C1850 C1859 1.390 . S
C1851 C1850 1.387 . S
C1851 C1853 1.387 . S
H1852 C1859 0.950 . S
C1853 C1851 1.387 . S
C1853 C1855 1.390 . S
C1853 H1857 0.950 . S
H1854 C1850 0.950 . S
C1855 C1853 1.390 . S
C1855 C1856 1.387 . S
C1855 H1858 0.950 . S
C1856 C1855 1.387 . S
C1856 C1859 1.387 . S
H1857 C1853 0.950 . S
H1858 C1855 0.950 . S
C1859 C1850 1.390 . S
C1859 H1852 0.950 . S
C1859 C1856 1.387 . S
C1860 C1861 1.387 . S
C1860 H1864 0.950 . S
C1860 C1869 1.390 . S
C1861 C1860 1.387 . S
C1861 C1863 1.387 . S
H1862 C1869 0.950 . S
C1863 C1861 1.387 . S
C1863 C1865 1.390 . S
C1863 H1867 0.950 . S
H1864 C1860 0.950 . S
C1865 C1863 1.390 . S
C1865 C1866 1.387 . S
C1865 H1868 0.950 . S
C1866 C1865 1.387 . S
C1866 C1869 1.387 . S
H1867 C1863 0.950 . S
H1868 C1865 0.950 . S
C1869 C1860 1.390 . S
C1869 H1862 0.950 . S
C1869 C1866 1.387 . S
C1870 C1871 1.387 . S
C1870 H1874 0.950 . S
C1870 C1879 1.390 . S
C1871 C1870 1.387 . S
C1871 C1873 1.387 . S
H1872 C1879 0.950 . S
C1873 C1871 1.387 . S
C1873 C1875 1.390 . S
C1873 H1877 0.950 . S
H1874 C1870 0.950 . S
C1875 C1873 1.390 . S
C1875 C1876 1.387 . S
C1875 H1878 0.950 1_545 S
C1876 C1875 1.387 . S
C1876 C1879 1.387 . S
H1877 C1873 0.950 . S
H1878 C1875 0.950 1_565 S
C1879 C1870 1.390 . S
C1879 H1872 0.950 . S
C1879 C1876 1.387 . S
C1880 C1881 1.387 . S
C1880 H1884 0.950 . S
C1880 C1889 1.390 . S
C1881 C1880 1.387 . S
C1881 C1883 1.387 . S
H1882 C1889 0.950 . S
C1883 C1881 1.387 . S
C1883 C1885 1.390 . S
C1883 H1887 0.950 . S
H1884 C1880 0.950 . S
C1885 C1883 1.390 . S
C1885 C1886 1.387 . S
C1885 H1888 0.950 . S
C1886 C1885 1.387 . S
C1886 C1889 1.387 . S
H1887 C1883 0.950 . S
H1888 C1885 0.950 . S
C1889 C1880 1.390 . S
C1889 H1882 0.950 . S
C1889 C1886 1.387 . S
C1890 C1891 1.387 . S
C1890 H1894 0.950 . S
C1890 C1899 1.390 . S
C1891 C1890 1.387 . S
C1891 C1893 1.387 . S
H1892 C1899 0.950 . S
C1893 C1891 1.387 . S
C1893 C1895 1.390 . S
C1893 H1897 0.950 . S
H1894 C1890 0.950 . S
C1895 C1893 1.390 . S
C1895 C1896 1.387 . S
C1895 H1898 0.950 . S
C1896 C1895 1.387 . S
C1896 C1899 1.387 . S
H1897 C1893 0.950 . S
H1898 C1895 0.950 . S
C1899 C1890 1.390 . S
C1899 H1892 0.950 . S
C1899 C1896 1.387 . S
C1900 C1901 1.387 . S
C1900 H1904 0.950 . S
C1900 C1909 1.390 . S
C1901 C1900 1.387 . S
C1901 C1903 1.387 . S
H1902 C1909 0.950 . S
C1903 C1901 1.387 . S
C1903 C1905 1.390 . S
C1903 H1907 0.950 . S
H1904 C1900 0.950 . S
C1905 C1903 1.390 . S
C1905 C1906 1.387 . S
C1905 H1908 0.950 . S
C1906 C1905 1.387 . S
C1906 C1909 1.387 . S
H1907 C1903 0.950 . S
H1908 C1905 0.950 . S
C1909 C1900 1.390 . S
C1909 H1902 0.950 . S
C1909 C1906 1.387 . S
C1910 C1911 1.387 . S
C1910 H1914 0.950 . S
C1910 C1919 1.390 . S
C1911 C1910 1.387 . S
C1911 C1913 1.387 . S
H1912 C1919 0.950 . S
C1913 C1911 1.387 . S
C1913 C1915 1.390 . S
C1913 H1917 0.950 . S
H1914 C1910 0.950 . S
C1915 C1913 1.390 . S
C1915 C1916 1.387 . S
C1915 H1918 0.950 . S
C1916 C1915 1.387 . S
C1916 C1919 1.387 . S
H1917 C1913 0.950 . S
H1918 C1915 0.950 . S
C1919 C1910 1.390 . S
C1919 H1912 0.950 . S
C1919 C1916 1.387 . S
C1920 C1921 1.387 1_455 S
C1920 H1924 0.950 1_455 S
C1920 C1929 1.390 . S
C1921 C1920 1.387 1_655 S
C1921 C1923 1.387 1_655 S
H1922 C1929 0.950 . S
C1923 C1921 1.387 1_455 S
C1923 C1925 1.390 . S
C1923 H1927 0.950 1_455 S
H1924 C1920 0.950 1_655 S
C1925 C1923 1.390 . S
C1925 C1926 1.387 . S
C1925 H1928 0.950 . S
C1926 C1925 1.387 . S
C1926 C1929 1.387 . S
H1927 C1923 0.950 1_655 S
H1928 C1925 0.950 . S
C1929 C1920 1.390 . S
C1929 H1922 0.950 . S
C1929 C1926 1.387 . S
C1930 C1931 1.387 . S
C1930 H1934 0.950 . S
C1930 C1939 1.390 . S
C1931 C1930 1.387 . S
C1931 C1933 1.387 . S
H1932 C1939 0.950 . S
C1933 C1931 1.387 . S
C1933 C1935 1.390 . S
C1933 H1937 0.950 . S
H1934 C1930 0.950 . S
C1935 C1933 1.390 . S
C1935 C1936 1.387 . S
C1935 H1938 0.950 . S
C1936 C1935 1.387 . S
C1936 C1939 1.387 . S
H1937 C1933 0.950 . S
H1938 C1935 0.950 . S
C1939 C1930 1.390 . S
C1939 H1932 0.950 . S
C1939 C1936 1.387 . S
C1940 C1941 1.387 . S
C1940 H1944 0.950 . S
C1940 C1949 1.390 . S
C1941 C1940 1.387 . S
C1941 C1943 1.387 . S
H1942 C1949 0.950 1_545 S
C1943 C1941 1.387 . S
C1943 C1945 1.390 . S
C1943 H1947 0.950 . S
H1944 C1940 0.950 . S
C1945 C1943 1.390 . S
C1945 C1946 1.387 1_565 S
C1945 H1948 0.950 1_565 S
C1946 C1945 1.387 1_545 S
C1946 C1949 1.387 1_545 S
H1947 C1943 0.950 . S
H1948 C1945 0.950 1_545 S
C1949 C1940 1.390 . S
C1949 H1942 0.950 1_565 S
C1949 C1946 1.387 1_565 S
C1950 C1951 1.387 . S
C1950 H1954 0.950 . S
C1950 C1959 1.390 . S
C1951 C1950 1.387 . S
C1951 C1953 1.387 . S
H1952 C1959 0.950 . S
C1953 C1951 1.387 . S
C1953 C1955 1.390 . S
C1953 H1957 0.950 . S
H1954 C1950 0.950 . S
C1955 C1953 1.390 . S
C1955 C1956 1.387 . S
C1955 H1958 0.950 . S
C1956 C1955 1.387 . S
C1956 C1959 1.387 . S
H1957 C1953 0.950 . S
H1958 C1955 0.950 . S
C1959 C1950 1.390 . S
C1959 H1952 0.950 . S
C1959 C1956 1.387 . S
C1960 C1961 1.387 . S
C1960 H1964 0.950 . S
C1960 C1969 1.390 . S
C1961 C1960 1.387 . S
C1961 C1963 1.387 . S
H1962 C1969 0.950 . S
C1963 C1961 1.387 . S
C1963 C1965 1.390 . S
C1963 H1967 0.950 . S
H1964 C1960 0.950 . S
C1965 C1963 1.390 . S
C1965 C1966 1.387 . S
C1965 H1968 0.950 . S
C1966 C1965 1.387 . S
C1966 C1969 1.387 . S
H1967 C1963 0.950 . S
H1968 C1965 0.950 . S
C1969 C1960 1.390 . S
C1969 H1962 0.950 . S
C1969 C1966 1.387 . S
C1970 C1971 1.387 . S
C1970 H1974 0.950 . S
C1970 C1979 1.390 . S
C1971 C1970 1.387 . S
C1971 C1973 1.387 . S
H1972 C1979 0.950 . S
C1973 C1971 1.387 . S
C1973 C1975 1.390 . S
C1973 H1977 0.950 . S
H1974 C1970 0.950 . S
C1975 C1973 1.390 . S
C1975 C1976 1.387 . S
C1975 H1978 0.950 . S
C1976 C1975 1.387 . S
C1976 C1979 1.387 . S
H1977 C1973 0.950 . S
H1978 C1975 0.950 . S
C1979 C1970 1.390 . S
C1979 H1972 0.950 . S
C1979 C1976 1.387 . S
C1980 C1981 1.387 . S
C1980 H1984 0.950 . S
C1980 C1989 1.390 . S
C1981 C1980 1.387 . S
C1981 C1983 1.387 . S
H1982 C1989 0.950 . S
C1983 C1981 1.387 . S
C1983 C1985 1.390 . S
C1983 H1987 0.950 . S
H1984 C1980 0.950 . S
C1985 C1983 1.390 . S
C1985 C1986 1.387 . S
C1985 H1988 0.950 . S
C1986 C1985 1.387 . S
C1986 C1989 1.387 . S
H1987 C1983 0.950 . S
H1988 C1985 0.950 . S
C1989 C1980 1.390 . S
C1989 H1982 0.950 . S
C1989 C1986 1.387 . S
C1990 C1991 1.387 . S
C1990 H1994 0.950 . S
C1990 C1999 1.390 . S
C1991 C1990 1.387 . S
C1991 C1993 1.387 . S
H1992 C1999 0.950 . S
C1993 C1991 1.387 . S
C1993 C1995 1.390 . S
C1993 H1997 0.950 . S
H1994 C1990 0.950 . S
C1995 C1993 1.390 . S
C1995 C1996 1.387 . S
C1995 H1998 0.950 . S
C1996 C1995 1.387 . S
C1996 C1999 1.387 . S
H1997 C1993 0.950 . S
H1998 C1995 0.950 . S
C1999 C1990 1.390 . S
C1999 H1992 0.950 . S
C1999 C1996 1.387 . S
C2000 C2001 1.387 . S
C2000 H2004 0.950 . S
C2000 C2009 1.390 . S
C2001 C2000 1.387 . S
C2001 C2003 1.387 . S
H2002 C2009 0.950 . S
C2003 C2001 1.387 . S
C2003 C2005 1.390 . S
C2003 H2007 0.950 . S
H2004 C2000 0.950 . S
C2005 C2003 1.390 . S
C2005 C2006 1.387 . S
C2005 H2008 0.950 . S
C2006 C2005 1.387 . S
C2006 C2009 1.387 . S
H2007 C2003 0.950 . S
H2008 C2005 0.950 . S
C2009 C2000 1.390 . S
C2009 H2002 0.950 . S
C2009 C2006 1.387 . S
C2010 C2011 1.371 1_554 S
C2010 H2014 0.950 . S
C2010 C2019 1.390 1_565 S
C2011 C2010 1.371 1_556 S
C2011 C2013 1.409 . S
H2012 C2019 0.950 . S
C2013 C2011 1.409 . S
C2013 C2015 1.390 . S
C2013 H2017 0.950 . S
H2014 C2010 0.950 . S
C2015 C2013 1.390 . S
C2015 C2016 1.387 1_565 S
C2015 H2018 0.950 1_565 S
C2016 C2015 1.387 1_545 S
C2016 C2019 1.387 1_556 S
H2017 C2013 0.950 . S
H2018 C2015 0.950 1_545 S
C2019 C2010 1.390 1_545 S
C2019 H2012 0.950 . S
C2019 C2016 1.387 1_554 S
C2020 C2021 1.407 . S
C2020 H2024 0.950 . S
C2020 C2029 1.390 . S
C2021 C2020 1.407 . S
C2021 C2023 1.371 1_556 S
H2022 C2029 0.950 1_655 S
C2023 C2021 1.371 1_554 S
C2023 C2025 1.390 1_455 S
C2023 H2027 0.950 . S
H2024 C2020 0.950 . S
C2025 C2023 1.390 1_655 S
C2025 C2026 1.387 1_554 S
C2025 H2028 0.950 . S
C2026 C2025 1.387 1_556 S
C2026 C2029 1.387 1_655 S
H2027 C2023 0.950 . S
H2028 C2025 0.950 . S
C2029 C2020 1.390 . S
C2029 H2022 0.950 1_455 S
C2029 C2026 1.387 1_455 S
C2030 C2031 1.387 . S
C2030 H2034 0.950 . S
C2030 C2039 1.390 . S
C2031 C2030 1.387 . S
C2031 C2033 1.387 1_556 S
H2032 C2039 0.950 . S
C2033 C2031 1.387 1_554 S
C2033 C2035 1.390 . S
C2033 H2037 0.950 . S
H2034 C2030 0.950 . S
C2035 C2033 1.390 . S
C2035 C2036 1.348 1_554 S
C2035 H2038 0.950 . S
C2036 C2035 1.348 1_556 S
C2036 C2039 1.435 . S
H2037 C2033 0.950 . S
H2038 C2035 0.950 . S
C2039 C2030 1.390 . S
C2039 H2032 0.950 . S
C2039 C2036 1.435 . S
C2040 C2041 1.387 . S
C2040 H2044 0.950 . S
C2040 C2049 1.390 . S
C2041 C2040 1.387 . S
C2041 C2043 1.387 . S
H2042 C2049 0.950 . S
C2043 C2041 1.387 . S
C2043 C2045 1.390 . S
C2043 H2047 0.950 . S
H2044 C2040 0.950 . S
C2045 C2043 1.390 . S
C2045 C2046 1.387 . S
C2045 H2048 0.950 . S
C2046 C2045 1.387 . S
C2046 C2049 1.387 . S
H2047 C2043 0.950 . S
H2048 C2045 0.950 . S
C2049 C2040 1.390 . S
C2049 H2042 0.950 . S
C2049 C2046 1.387 . S
C2050 C2051 1.387 . S
C2050 H2054 0.950 . S
C2050 C2059 1.390 . S
C2051 C2050 1.387 . S
C2051 C2053 1.387 . S
H2052 C2059 0.950 . S
C2053 C2051 1.387 . S
C2053 C2055 1.390 . S
C2053 H2057 0.950 . S
H2054 C2050 0.950 . S
C2055 C2053 1.390 . S
C2055 C2056 1.387 . S
C2055 H2058 0.950 . S
C2056 C2055 1.387 . S
C2056 C2059 1.387 . S
H2057 C2053 0.950 . S
H2058 C2055 0.950 . S
C2059 C2050 1.390 . S
C2059 H2052 0.950 . S
C2059 C2056 1.387 . S
C2060 C2061 1.387 . S
C2060 H2064 0.950 . S
C2060 C2069 1.390 . S
C2061 C2060 1.387 . S
C2061 C2063 1.387 . S
H2062 C2069 0.950 . S
C2063 C2061 1.387 . S
C2063 C2065 1.390 . S
C2063 H2067 0.950 . S
H2064 C2060 0.950 . S
C2065 C2063 1.390 . S
C2065 C2066 1.387 . S
C2065 H2068 0.950 . S
C2066 C2065 1.387 . S
C2066 C2069 1.387 . S
H2067 C2063 0.950 . S
H2068 C2065 0.950 . S
C2069 C2060 1.390 . S
C2069 H2062 0.950 . S
C2069 C2066 1.387 . S
C2070 C2071 1.387 1_556 S
C2070 H2074 0.950 . S
C2070 C2079 1.390 1_565 S
C2071 C2070 1.387 1_554 S
C2071 C2073 1.387 1_565 S
H2072 C2079 0.950 . S
C2073 C2071 1.387 1_545 S
C2073 C2075 1.390 . S
C2073 H2077 0.950 1_545 S
H2074 C2070 0.950 . S
C2075 C2073 1.390 . S
C2075 C2076 1.426 . S
C2075 H2078 0.950 . S
C2076 C2075 1.426 . S
C2076 C2079 1.357 1_554 S
H2077 C2073 0.950 1_565 S
H2078 C2075 0.950 . S
C2079 C2070 1.390 1_545 S
C2079 H2072 0.950 . S
C2079 C2076 1.357 1_556 S
C2080 C2081 1.373 1_556 S
C2080 H2084 0.950 . S
C2080 C2089 1.390 1_655 S
C2081 C2080 1.373 1_554 S
C2081 C2083 1.405 . S
H2082 C2089 0.950 . S
C2083 C2081 1.405 . S
C2083 C2085 1.390 . S
C2083 H2087 0.950 . S
H2084 C2080 0.950 . S
C2085 C2083 1.390 . S
C2085 C2086 1.387 1_655 S
C2085 H2088 0.950 1_655 S
C2086 C2085 1.387 1_455 S
C2086 C2089 1.387 1_554 S
H2087 C2083 0.950 . S
H2088 C2085 0.950 1_455 S
C2089 C2080 1.390 1_455 S
C2089 H2082 0.950 . S
C2089 C2086 1.387 1_556 S
C2090 C2091 1.387 . S
C2090 H2094 0.950 . S
C2090 C2099 1.390 . S
C2091 C2090 1.387 . S
C2091 C2093 1.387 1_554 S
H2092 C2099 0.950 . S
C2093 C2091 1.387 1_556 S
C2093 C2095 1.390 . S
C2093 H2097 0.950 . S
H2094 C2090 0.950 . S
C2095 C2093 1.390 . S
C2095 C2096 1.351 1_556 S
C2095 H2098 0.950 . S
C2096 C2095 1.351 1_554 S
C2096 C2099 1.433 . S
H2097 C2093 0.950 . S
H2098 C2095 0.950 . S
C2099 C2090 1.390 . S
C2099 H2092 0.950 . S
C2099 C2096 1.433 . S
C2100 C2101 1.387 1_655 S
C2100 H2104 0.950 1_655 S
C2100 C2109 1.390 . S
C2101 C2100 1.387 1_455 S
C2101 C2103 1.388 1_455 S
H2102 C2109 0.950 . S
C2103 C2101 1.388 1_655 S
C2103 C2105 1.390 . S
C2103 H2107 0.950 1_655 S
H2104 C2100 0.950 1_455 S
C2105 C2103 1.390 . S
C2105 C2106 1.387 . S
C2105 H2108 0.950 . S
C2106 C2105 1.387 . S
C2106 C2109 1.387 . S
H2107 C2103 0.950 1_455 S
H2108 C2105 0.950 . S
C2109 C2100 1.390 . S
C2109 H2102 0.950 . S
C2109 C2106 1.387 . S
C2110 C2111 1.387 . S
C2110 H2114 0.950 . S
C2110 C2119 1.390 . S
C2111 C2110 1.387 . S
C2111 C2113 1.387 . S
H2112 C2119 0.950 . S
C2113 C2111 1.387 . S
C2113 C2115 1.390 . S
C2113 H2117 0.950 . S
H2114 C2110 0.950 . S
C2115 C2113 1.390 . S
C2115 C2116 1.387 . S
C2115 H2118 0.950 . S
C2116 C2115 1.387 . S
C2116 C2119 1.387 . S
H2117 C2113 0.950 . S
H2118 C2115 0.950 . S
C2119 C2110 1.390 . S
C2119 H2112 0.950 . S
C2119 C2116 1.387 . S
C2120 C2121 1.387 1_545 S
C2120 H2124 0.950 1_545 S
C2120 C2129 1.390 . S
C2121 C2120 1.387 1_565 S
C2121 C2123 1.387 1_565 S
H2122 C2129 0.950 . S
C2123 C2121 1.387 1_545 S
C2123 C2125 1.390 . S
C2123 H2127 0.950 1_545 S
H2124 C2120 0.950 1_565 S
C2125 C2123 1.390 . S
C2125 C2126 1.387 . S
C2125 H2128 0.950 . S
C2126 C2125 1.387 . S
C2126 C2129 1.387 . S
H2127 C2123 0.950 1_565 S
H2128 C2125 0.950 . S
C2129 C2120 1.390 . S
C2129 H2122 0.950 . S
C2129 C2126 1.387 . S
C2130 C2131 1.387 . S
C2130 H2134 0.950 . S
C2130 C2139 1.390 . S
C2131 C2130 1.387 . S
C2131 C2133 1.387 . S
H2132 C2139 0.950 . S
C2133 C2131 1.387 . S
C2133 C2135 1.390 . S
C2133 H2137 0.950 . S
H2134 C2130 0.950 . S
C2135 C2133 1.390 . S
C2135 C2136 1.387 . S
C2135 H2138 0.950 . S
C2136 C2135 1.387 . S
C2136 C2139 1.387 . S
H2137 C2133 0.950 . S
H2138 C2135 0.950 . S
C2139 C2130 1.390 . S
C2139 H2132 0.950 . S
C2139 C2136 1.387 . S
C2140 C2141 1.387 . S
C2140 H2144 0.950 . S
C2140 C2149 1.390 . S
C2141 C2140 1.387 . S
C2141 C2143 1.387 . S
H2142 C2149 0.950 . S
C2143 C2141 1.387 . S
C2143 C2145 1.390 . S
C2143 H2147 0.950 . S
H2144 C2140 0.950 . S
C2145 C2143 1.390 . S
C2145 C2146 1.387 . S
C2145 H2148 0.950 . S
C2146 C2145 1.387 . S
C2146 C2149 1.387 . S
H2147 C2143 0.950 . S
H2148 C2145 0.950 . S
C2149 C2140 1.390 . S
C2149 H2142 0.950 . S
C2149 C2146 1.387 . S
C2150 C2151 1.387 . S
C2150 H2154 0.950 . S
C2150 C2159 1.390 . S
C2151 C2150 1.387 . S
C2151 C2153 1.387 . S
H2152 C2159 0.950 . S
C2153 C2151 1.387 . S
C2153 C2155 1.390 . S
C2153 H2157 0.950 . S
H2154 C2150 0.950 . S
C2155 C2153 1.390 . S
C2155 C2156 1.387 . S
C2155 H2158 0.950 . S
C2156 C2155 1.387 . S
C2156 C2159 1.387 . S
H2157 C2153 0.950 . S
H2158 C2155 0.950 . S
C2159 C2150 1.390 . S
C2159 H2152 0.950 . S
C2159 C2156 1.387 . S
C2160 C2161 1.387 . S
C2160 H2164 0.950 . S
C2160 C2169 1.390 . S
C2161 C2160 1.387 . S
C2161 C2163 1.387 . S
H2162 C2169 0.950 . S
C2163 C2161 1.387 . S
C2163 C2165 1.390 . S
C2163 H2167 0.950 . S
H2164 C2160 0.950 . S
C2165 C2163 1.390 . S
C2165 C2166 1.387 . S
C2165 H2168 0.950 . S
C2166 C2165 1.387 . S
C2166 C2169 1.387 . S
H2167 C2163 0.950 . S
H2168 C2165 0.950 . S
C2169 C2160 1.390 . S
C2169 H2162 0.950 . S
C2169 C2166 1.387 . S
C2170 C2171 1.387 . S
C2170 H2174 0.950 1_565 S
C2170 C2179 1.390 . S
C2171 C2170 1.387 . S
C2171 C2173 1.387 . S
H2172 C2179 0.950 1_545 S
C2173 C2171 1.387 . S
C2173 C2175 1.390 . S
C2173 H2177 0.950 . S
H2174 C2170 0.950 1_545 S
C2175 C2173 1.390 . S
C2175 C2176 1.387 . S
C2175 H2178 0.950 . S
C2176 C2175 1.387 . S
C2176 C2179 1.387 . S
H2177 C2173 0.950 . S
H2178 C2175 0.950 . S
C2179 C2170 1.390 . S
C2179 H2172 0.950 1_565 S
C2179 C2176 1.387 . S
C2180 C2181 1.387 . S
C2180 H2184 0.950 . S
C2180 C2189 1.390 . S
C2181 C2180 1.387 . S
C2181 C2183 1.387 . S
H2182 C2189 0.950 . S
C2183 C2181 1.387 . S
C2183 C2185 1.390 . S
C2183 H2187 0.950 . S
H2184 C2180 0.950 . S
C2185 C2183 1.390 . S
C2185 C2186 1.387 . S
C2185 H2188 0.950 . S
C2186 C2185 1.387 . S
C2186 C2189 1.387 . S
H2187 C2183 0.950 . S
H2188 C2185 0.950 . S
C2189 C2180 1.390 . S
C2189 H2182 0.950 . S
C2189 C2186 1.387 . S
C2190 C2191 1.387 . S
C2190 H2194 0.950 . S
C2190 C2199 1.390 . S
C2191 C2190 1.387 . S
C2191 C2193 1.387 . S
H2192 C2199 0.950 . S
C2193 C2191 1.387 . S
C2193 C2195 1.390 . S
C2193 H2197 0.950 . S
H2194 C2190 0.950 . S
C2195 C2193 1.390 . S
C2195 C2196 1.387 . S
C2195 H2198 0.950 . S
C2196 C2195 1.387 . S
C2196 C2199 1.387 . S
H2197 C2193 0.950 . S
H2198 C2195 0.950 . S
C2199 C2190 1.390 . S
C2199 H2192 0.950 . S
C2199 C2196 1.387 . S
C2200 C2201 1.387 . S
C2200 H2204 0.950 . S
C2200 C2209 1.390 . S
C2201 C2200 1.387 . S
C2201 C2203 1.387 . S
H2202 C2209 0.950 . S
C2203 C2201 1.387 . S
C2203 C2205 1.390 . S
C2203 H2207 0.950 1_545 S
H2204 C2200 0.950 . S
C2205 C2203 1.390 . S
C2205 C2206 1.387 . S
C2205 H2208 0.950 1_545 S
C2206 C2205 1.387 . S
C2206 C2209 1.387 . S
H2207 C2203 0.950 1_565 S
H2208 C2205 0.950 1_565 S
C2209 C2200 1.390 . S
C2209 H2202 0.950 . S
C2209 C2206 1.387 . S
C2210 C2211 1.387 . S
C2210 H2214 0.950 . S
C2210 C2219 1.390 . S
C2211 C2210 1.387 . S
C2211 C2213 1.387 . S
H2212 C2219 0.950 1_455 S
C2213 C2211 1.387 . S
C2213 C2215 1.390 . S
C2213 H2217 0.950 . S
H2214 C2210 0.950 . S
C2215 C2213 1.390 . S
C2215 C2216 1.387 . S
C2215 H2218 0.950 . S
C2216 C2215 1.387 . S
C2216 C2219 1.387 . S
H2217 C2213 0.950 . S
H2218 C2215 0.950 . S
C2219 C2210 1.390 . S
C2219 H2212 0.950 1_655 S
C2219 C2216 1.387 . S
C2220 C2221 1.387 . S
C2220 H2224 0.950 . S
C2220 C2229 1.390 . S
C2221 C2220 1.387 . S
C2221 C2223 1.387 . S
H2222 C2229 0.950 . S
C2223 C2221 1.387 . S
C2223 C2225 1.390 . S
C2223 H2227 0.950 . S
H2224 C2220 0.950 . S
C2225 C2223 1.390 . S
C2225 C2226 1.387 . S
C2225 H2228 0.950 . S
C2226 C2225 1.387 . S
C2226 C2229 1.387 . S
H2227 C2223 0.950 . S
H2228 C2225 0.950 . S
C2229 C2220 1.390 . S
C2229 H2222 0.950 . S
C2229 C2226 1.387 . S
C2230 C2231 1.387 . S
C2230 H2234 0.950 . S
C2230 C2239 1.390 . S
C2231 C2230 1.387 . S
C2231 C2233 1.387 . S
H2232 C2239 0.950 . S
C2233 C2231 1.387 . S
C2233 C2235 1.390 . S
C2233 H2237 0.950 . S
H2234 C2230 0.950 . S
C2235 C2233 1.390 . S
C2235 C2236 1.387 . S
C2235 H2238 0.950 . S
C2236 C2235 1.387 . S
C2236 C2239 1.387 . S
H2237 C2233 0.950 . S
H2238 C2235 0.950 . S
C2239 C2230 1.390 . S
C2239 H2232 0.950 . S
C2239 C2236 1.387 . S
C2240 C2241 1.387 . S
C2240 H2244 0.950 . S
C2240 C2249 1.390 . S
C2241 C2240 1.387 . S
C2241 C2243 1.387 . S
H2242 C2249 0.950 . S
C2243 C2241 1.387 . S
C2243 C2245 1.390 . S
C2243 H2247 0.950 . S
H2244 C2240 0.950 . S
C2245 C2243 1.390 . S
C2245 C2246 1.387 . S
C2245 H2248 0.950 1_655 S
C2246 C2245 1.387 . S
C2246 C2249 1.387 . S
H2247 C2243 0.950 . S
H2248 C2245 0.950 1_455 S
C2249 C2240 1.390 . S
C2249 H2242 0.950 . S
C2249 C2246 1.387 . S
C2250 C2251 1.387 . S
C2250 H2254 0.950 . S
C2250 C2259 1.390 . S
C2251 C2250 1.387 . S
C2251 C2253 1.387 . S
H2252 C2259 0.950 . S
C2253 C2251 1.387 . S
C2253 C2255 1.390 . S
C2253 H2257 0.950 . S
H2254 C2250 0.950 . S
C2255 C2253 1.390 . S
C2255 C2256 1.387 . S
C2255 H2258 0.950 . S
C2256 C2255 1.387 . S
C2256 C2259 1.387 . S
H2257 C2253 0.950 . S
H2258 C2255 0.950 . S
C2259 C2250 1.390 . S
C2259 H2252 0.950 . S
C2259 C2256 1.387 . S
C2260 C2261 1.387 . S
C2260 H2264 0.950 1_565 S
C2260 C2269 1.390 . S
C2261 C2260 1.387 . S
C2261 C2263 1.387 . S
H2262 C2269 0.950 1_545 S
C2263 C2261 1.387 . S
C2263 C2265 1.390 . S
C2263 H2267 0.950 . S
H2264 C2260 0.950 1_545 S
C2265 C2263 1.390 . S
C2265 C2266 1.387 . S
C2265 H2268 0.950 . S
C2266 C2265 1.387 . S
C2266 C2269 1.387 . S
H2267 C2263 0.950 . S
H2268 C2265 0.950 . S
C2269 C2260 1.390 . S
C2269 H2262 0.950 1_565 S
C2269 C2266 1.387 . S
C2270 C2271 1.387 . S
C2270 H2274 0.950 . S
C2270 C2279 1.390 . S
C2271 C2270 1.387 . S
C2271 C2273 1.387 . S
H2272 C2279 0.950 . S
C2273 C2271 1.387 . S
C2273 C2275 1.390 . S
C2273 H2277 0.950 1_455 S
H2274 C2270 0.950 . S
C2275 C2273 1.390 . S
C2275 C2276 1.387 . S
C2275 H2278 0.950 . S
C2276 C2275 1.387 . S
C2276 C2279 1.387 . S
H2277 C2273 0.950 1_655 S
H2278 C2275 0.950 . S
C2279 C2270 1.390 . S
C2279 H2272 0.950 . S
C2279 C2276 1.387 . S
C2280 C2281 1.387 . S
C2280 H2284 0.950 . S
C2280 C2289 1.390 . S
C2281 C2280 1.387 . S
C2281 C2283 1.387 1_455 S
H2282 C2289 0.950 . S
C2283 C2281 1.387 1_655 S
C2283 C2285 1.390 . S
C2283 H2287 0.950 . S
H2284 C2280 0.950 . S
C2285 C2283 1.390 . S
C2285 C2286 1.387 . S
C2285 H2288 0.950 . S
C2286 C2285 1.387 . S
C2286 C2289 1.387 1_655 S
H2287 C2283 0.950 . S
H2288 C2285 0.950 . S
C2289 C2280 1.390 . S
C2289 H2282 0.950 . S
C2289 C2286 1.387 1_455 S
C2290 C2291 1.387 . S
C2290 H2294 0.950 . S
C2290 C2299 1.390 . S
C2291 C2290 1.387 . S
C2291 C2293 1.387 . S
H2292 C2299 0.950 . S
C2293 C2291 1.387 . S
C2293 C2295 1.390 . S
C2293 H2297 0.950 . S
H2294 C2290 0.950 . S
C2295 C2293 1.390 . S
C2295 C2296 1.387 . S
C2295 H2298 0.950 . S
C2296 C2295 1.387 . S
C2296 C2299 1.387 . S
H2297 C2293 0.950 . S
H2298 C2295 0.950 . S
C2299 C2290 1.390 . S
C2299 H2292 0.950 . S
C2299 C2296 1.387 . S
C2300 C2301 1.387 . S
C2300 H2304 0.950 . S
C2300 C2309 1.390 1_565 S
C2301 C2300 1.387 . S
C2301 C2303 1.387 . S
H2302 C2309 0.949 . S
C2303 C2301 1.387 . S
C2303 C2305 1.390 . S
C2303 H2307 0.950 . S
H2304 C2300 0.950 . S
C2305 C2303 1.390 . S
C2305 C2306 1.387 1_565 S
C2305 H2308 0.954 1_565 S
C2306 C2305 1.387 1_545 S
C2306 C2309 1.388 . S
H2307 C2303 0.950 . S
H2308 C2305 0.954 1_545 S
C2309 C2300 1.390 1_545 S
C2309 H2302 0.949 . S
C2309 C2306 1.388 . S
C2310 C2311 1.385 . S
C2310 H2314 0.953 . S
C2310 C2319 1.389 1_565 S
C2311 C2310 1.385 . S
C2311 C2313 1.387 1_565 S
H2312 C2319 0.950 . S
C2313 C2311 1.387 1_545 S
C2313 C2315 1.390 . S
C2313 H2317 0.950 1_545 S
H2314 C2310 0.953 . S
C2315 C2313 1.390 . S
C2315 C2316 1.387 . S
C2315 H2318 0.950 . S
C2316 C2315 1.387 . S
C2316 C2319 1.387 . S
H2317 C2313 0.950 1_565 S
H2318 C2315 0.950 . S
C2319 C2310 1.389 1_545 S
C2319 H2312 0.950 . S
C2319 C2316 1.387 . S
C2320 C2321 1.387 1_455 S
C2320 H2324 0.950 . S
C2320 C2329 1.390 . S
C2321 C2320 1.387 1_655 S
C2321 C2323 1.387 . S
H2322 C2329 0.950 . S
C2323 C2321 1.387 . S
C2323 C2325 1.390 . S
C2323 H2327 0.950 . S
H2324 C2320 0.950 . S
C2325 C2323 1.390 . S
C2325 C2326 1.387 1_655 S
C2325 H2328 0.950 . S
C2326 C2325 1.387 1_455 S
C2326 C2329 1.387 . S
H2327 C2323 0.950 . S
H2328 C2325 0.950 . S
C2329 C2320 1.390 . S
C2329 H2322 0.950 . S
C2329 C2326 1.387 . S
C2330 C2331 1.387 . S
C2330 H2334 0.950 . S
C2330 C2339 1.390 . S
C2331 C2330 1.387 . S
C2331 C2333 1.387 . S
H2332 C2339 0.950 . S
C2333 C2331 1.387 . S
C2333 C2335 1.390 . S
C2333 H2337 0.950 . S
H2334 C2330 0.950 . S
C2335 C2333 1.390 . S
C2335 C2336 1.387 . S
C2335 H2338 0.950 . S
C2336 C2335 1.387 . S
C2336 C2339 1.387 . S
H2337 C2333 0.950 . S
H2338 C2335 0.950 . S
C2339 C2330 1.390 . S
C2339 H2332 0.950 . S
C2339 C2336 1.387 . S
C2340 C2341 1.387 . S
C2340 H2344 0.950 . S
C2340 C2349 1.390 . S
C2341 C2340 1.387 . S
C2341 C2343 1.387 1_655 S
H2342 C2349 0.950 . S
C2343 C2341 1.387 1_455 S
C2343 C2345 1.390 . S
C2343 H2347 0.950 . S
H2344 C2340 0.950 . S
C2345 C2343 1.390 . S
C2345 C2346 1.387 . S
C2345 H2348 0.950 . S
C2346 C2345 1.387 . S
C2346 C2349 1.387 1_455 S
H2347 C2343 0.950 . S
H2348 C2345 0.950 . S
C2349 C2340 1.390 . S
C2349 H2342 0.950 . S
C2349 C2346 1.387 1_655 S
C2350 C2351 1.387 . S
C2350 H2354 0.950 . S
C2350 C2359 1.390 . S
C2351 C2350 1.387 . S
C2351 C2353 1.387 . S
H2352 C2359 0.950 . S
C2353 C2351 1.387 . S
C2353 C2355 1.390 . S
C2353 H2357 0.950 . S
H2354 C2350 0.950 . S
C2355 C2353 1.390 . S
C2355 C2356 1.387 . S
C2355 H2358 0.950 . S
C2356 C2355 1.387 . S
C2356 C2359 1.387 . S
H2357 C2353 0.950 . S
H2358 C2355 0.950 . S
C2359 C2350 1.390 . S
C2359 H2352 0.950 . S
C2359 C2356 1.387 . S
C2360 C2361 1.387 . S
C2360 H2364 0.950 . S
C2360 C2369 1.390 1_545 S
C2361 C2360 1.387 . S
C2361 C2363 1.387 . S
H2362 C2369 0.950 . S
C2363 C2361 1.387 . S
C2363 C2365 1.390 1_545 S
C2363 H2367 0.950 . S
H2364 C2360 0.950 . S
C2365 C2363 1.390 1_565 S
C2365 C2366 1.387 . S
C2365 H2368 0.950 . S
C2366 C2365 1.387 . S
C2366 C2369 1.387 . S
H2367 C2363 0.950 . S
H2368 C2365 0.950 . S
C2369 C2360 1.390 1_565 S
C2369 H2362 0.950 . S
C2369 C2366 1.387 . S
C2370 C2371 1.387 1_455 S
C2370 H2374 0.950 . S
C2370 C2379 1.390 . S
C2371 C2370 1.387 1_655 S
C2371 C2373 1.387 . S
H2372 C2379 0.950 . S
C2373 C2371 1.387 . S
C2373 C2375 1.390 . S
C2373 H2377 0.950 . S
H2374 C2370 0.950 . S
C2375 C2373 1.390 . S
C2375 C2376 1.387 1_655 S
C2375 H2378 0.950 . S
C2376 C2375 1.387 1_455 S
C2376 C2379 1.387 . S
H2377 C2373 0.950 . S
H2378 C2375 0.950 . S
C2379 C2370 1.390 . S
C2379 H2372 0.950 . S
C2379 C2376 1.387 . S
C2380 C2381 1.387 . S
C2380 H2384 0.950 . S
C2380 C2389 1.390 . S
C2381 C2380 1.387 . S
C2381 C2383 1.387 . S
H2382 C2389 0.950 . S
C2383 C2381 1.387 . S
C2383 C2385 1.390 . S
C2383 H2387 0.950 . S
H2384 C2380 0.950 . S
C2385 C2383 1.390 . S
C2385 C2386 1.387 . S
C2385 H2388 0.950 . S
C2386 C2385 1.387 . S
C2386 C2389 1.387 . S
H2387 C2383 0.950 . S
H2388 C2385 0.950 . S
C2389 C2380 1.390 . S
C2389 H2382 0.950 . S
C2389 C2386 1.387 . S
C2390 C2391 1.387 . S
C2390 H2394 0.950 . S
C2390 C2399 1.390 1_545 S
C2391 C2390 1.387 . S
C2391 C2393 1.387 . S
H2392 C2399 0.950 . S
C2393 C2391 1.387 . S
C2393 C2395 1.390 1_545 S
C2393 H2397 0.950 . S
H2394 C2390 0.950 . S
C2395 C2393 1.390 1_565 S
C2395 C2396 1.387 . S
C2395 H2398 0.950 . S
C2396 C2395 1.387 . S
C2396 C2399 1.387 . S
H2397 C2393 0.950 . S
H2398 C2395 0.950 . S
C2399 C2390 1.390 1_565 S
C2399 H2392 0.950 . S
C2399 C2396 1.387 . S
C2400 C2401 1.387 . S
C2400 H2404 0.950 . S
C2400 C2409 1.390 . S
C2401 C2400 1.387 . S
C2401 C2403 1.387 . S
H2402 C2409 0.950 . S
C2403 C2401 1.387 . S
C2403 C2405 1.390 . S
C2403 H2407 0.950 . S
H2404 C2400 0.950 . S
C2405 C2403 1.390 . S
C2405 C2406 1.387 . S
C2405 H2408 0.950 . S
C2406 C2405 1.387 . S
C2406 C2409 1.387 . S
H2407 C2403 0.950 . S
H2408 C2405 0.950 . S
C2409 C2400 1.390 . S
C2409 H2402 0.950 . S
C2409 C2406 1.387 . S
C2410 C2411 1.387 . S
C2410 H2414 0.950 . S
C2410 C2419 1.390 . S
C2411 C2410 1.387 . S
C2411 C2413 1.387 . S
H2412 C2419 0.950 . S
C2413 C2411 1.387 . S
C2413 C2415 1.390 . S
C2413 H2417 0.950 . S
H2414 C2410 0.950 . S
C2415 C2413 1.390 . S
C2415 C2416 1.387 . S
C2415 H2418 0.950 . S
C2416 C2415 1.387 . S
C2416 C2419 1.387 . S
H2417 C2413 0.950 . S
H2418 C2415 0.950 . S
C2419 C2410 1.390 . S
C2419 H2412 0.950 . S
C2419 C2416 1.387 . S
C2420 C2421 1.387 . S
C2420 H2424 0.950 . S
C2420 C2429 1.390 . S
C2421 C2420 1.387 . S
C2421 C2423 1.387 . S
H2422 C2429 0.950 . S
C2423 C2421 1.387 . S
C2423 C2425 1.390 . S
C2423 H2427 0.950 . S
H2424 C2420 0.950 . S
C2425 C2423 1.390 . S
C2425 C2426 1.387 . S
C2425 H2428 0.950 . S
C2426 C2425 1.387 . S
C2426 C2429 1.387 . S
H2427 C2423 0.950 . S
H2428 C2425 0.950 . S
C2429 C2420 1.390 . S
C2429 H2422 0.950 . S
C2429 C2426 1.387 . S
C2430 C2431 1.387 . S
C2430 H2434 0.950 . S
C2430 C2439 1.390 . S
C2431 C2430 1.387 . S
C2431 C2433 1.387 . S
H2432 C2439 0.950 . S
C2433 C2431 1.387 . S
C2433 C2435 1.390 . S
C2433 H2437 0.950 . S
H2434 C2430 0.950 . S
C2435 C2433 1.390 . S
C2435 C2436 1.387 . S
C2435 H2438 0.950 . S
C2436 C2435 1.387 . S
C2436 C2439 1.387 . S
H2437 C2433 0.950 . S
H2438 C2435 0.950 . S
C2439 C2430 1.390 . S
C2439 H2432 0.950 . S
C2439 C2436 1.387 . S
C2440 C2441 1.387 . S
C2440 H2444 0.950 . S
C2440 C2449 1.390 . S
C2441 C2440 1.387 . S
C2441 C2443 1.387 . S
H2442 C2449 0.950 . S
C2443 C2441 1.387 . S
C2443 C2445 1.390 . S
C2443 H2447 0.950 . S
H2444 C2440 0.950 . S
C2445 C2443 1.390 . S
C2445 C2446 1.387 . S
C2445 H2448 0.950 . S
C2446 C2445 1.387 . S
C2446 C2449 1.387 . S
H2447 C2443 0.950 . S
H2448 C2445 0.950 . S
C2449 C2440 1.390 . S
C2449 H2442 0.950 . S
C2449 C2446 1.387 . S
C2450 C2451 1.387 . S
C2450 H2454 0.950 . S
C2450 C2459 1.390 . S
C2451 C2450 1.387 . S
C2451 C2453 1.387 . S
H2452 C2459 0.950 . S
C2453 C2451 1.387 . S
C2453 C2455 1.390 . S
C2453 H2457 0.950 . S
H2454 C2450 0.950 . S
C2455 C2453 1.390 . S
C2455 C2456 1.387 . S
C2455 H2458 0.950 . S
C2456 C2455 1.387 . S
C2456 C2459 1.387 . S
H2457 C2453 0.950 . S
H2458 C2455 0.950 . S
C2459 C2450 1.390 . S
C2459 H2452 0.950 . S
C2459 C2456 1.387 . S
C2460 C2461 1.387 . S
C2460 H2464 0.950 . S
C2460 C2469 1.390 . S
C2461 C2460 1.387 . S
C2461 C2463 1.387 . S
H2462 C2469 0.950 . S
C2463 C2461 1.387 . S
C2463 C2465 1.390 . S
C2463 H2467 0.950 . S
H2464 C2460 0.950 . S
C2465 C2463 1.390 . S
C2465 C2466 1.387 . S
C2465 H2468 0.950 . S
C2466 C2465 1.387 . S
C2466 C2469 1.387 . S
H2467 C2463 0.950 . S
H2468 C2465 0.950 . S
C2469 C2460 1.390 . S
C2469 H2462 0.950 . S
C2469 C2466 1.387 . S
C2470 C2471 1.387 . S
C2470 H2474 0.950 . S
C2470 C2479 1.390 . S
C2471 C2470 1.387 . S
C2471 C2473 1.387 . S
H2472 C2479 0.950 . S
C2473 C2471 1.387 . S
C2473 C2475 1.390 . S
C2473 H2477 0.950 . S
H2474 C2470 0.950 . S
C2475 C2473 1.390 . S
C2475 C2476 1.387 . S
C2475 H2478 0.950 . S
C2476 C2475 1.387 . S
C2476 C2479 1.387 . S
H2477 C2473 0.950 . S
H2478 C2475 0.950 . S
C2479 C2470 1.390 . S
C2479 H2472 0.950 . S
C2479 C2476 1.387 . S
C2480 C2481 1.387 . S
C2480 H2484 0.950 . S
C2480 C2489 1.390 . S
C2481 C2480 1.387 . S
C2481 C2483 1.387 . S
H2482 C2489 0.950 . S
C2483 C2481 1.387 . S
C2483 C2485 1.390 . S
C2483 H2487 0.950 . S
H2484 C2480 0.950 . S
C2485 C2483 1.390 . S
C2485 C2486 1.387 . S
C2485 H2488 0.950 . S
C2486 C2485 1.387 . S
C2486 C2489 1.387 . S
H2487 C2483 0.950 . S
H2488 C2485 0.950 . S
C2489 C2480 1.390 . S
C2489 H2482 0.950 . S
C2489 C2486 1.387 . S
C2490 C2491 1.387 . S
C2490 H2494 0.950 . S
C2490 C2499 1.390 . S
C2491 C2490 1.387 . S
C2491 C2493 1.387 . S
H2492 C2499 0.950 . S
C2493 C2491 1.387 . S
C2493 C2495 1.390 . S
C2493 H2497 0.950 . S
H2494 C2490 0.950 . S
C2495 C2493 1.390 . S
C2495 C2496 1.387 . S
C2495 H2498 0.950 . S
C2496 C2495 1.387 . S
C2496 C2499 1.387 . S
H2497 C2493 0.950 . S
H2498 C2495 0.950 . S
C2499 C2490 1.390 . S
C2499 H2492 0.950 . S
C2499 C2496 1.387 . S
C2500 C2501 1.387 . S
C2500 H2504 0.950 . S
C2500 C2509 1.390 . S
C2501 C2500 1.387 . S
C2501 C2503 1.387 . S
H2502 C2509 0.950 . S
C2503 C2501 1.387 . S
C2503 C2505 1.390 . S
C2503 H2507 0.950 . S
H2504 C2500 0.950 . S
C2505 C2503 1.390 . S
C2505 C2506 1.387 . S
C2505 H2508 0.950 . S
C2506 C2505 1.387 . S
C2506 C2509 1.387 . S
H2507 C2503 0.950 . S
H2508 C2505 0.950 . S
C2509 C2500 1.390 . S
C2509 H2502 0.950 . S
C2509 C2506 1.387 . S
C2510 C2511 1.387 . S
C2510 H2514 0.950 . S
C2510 C2519 1.390 . S
C2511 C2510 1.387 . S
C2511 C2513 1.387 . S
H2512 C2519 0.950 . S
C2513 C2511 1.387 . S
C2513 C2515 1.390 . S
C2513 H2517 0.950 . S
H2514 C2510 0.950 . S
C2515 C2513 1.390 . S
C2515 C2516 1.387 . S
C2515 H2518 0.950 . S
C2516 C2515 1.387 . S
C2516 C2519 1.387 . S
H2517 C2513 0.950 . S
H2518 C2515 0.950 . S
C2519 C2510 1.390 . S
C2519 H2512 0.950 . S
C2519 C2516 1.387 . S
C1441 C10 1.790 . S
C1446 C91 1.850 1_545 S
C1451 C11 1.849 1_655 S
C1456 C50 1.792 1_545 S
C1461 C90 1.792 1_655 S
C1466 C51 1.850 . S
C1471 C130 1.860 . S
C1476 C171 1.918 1_455 S
C1481 C211 1.918 . S
C1486 C170 1.861 1_565 S
C1491 C210 1.860 1_455 S
C1496 C131 1.917 1_565 S
C1501 C259 1.793 . S
C1506 C322 1.851 1_565 S
C1511 C299 1.791 1_565 S
C1516 C242 1.850 1_455 S
C1521 C339 1.793 1_455 S
C1526 C282 1.851 . S
C1531 C379 1.859 . S
C1536 C402 1.917 1_655 S
C1541 C442 1.917 . S
C1546 C419 1.858 1_545 S
C1551 C362 1.916 1_545 S
C1556 C459 1.858 1_655 S
C1561 C571 1.908 . S
C1566 C490 1.850 . S
C1571 C530 1.850 . S
C1576 C491 1.908 . S
C1581 C531 1.908 . S
C1586 C570 1.850 . S
C1591 C610 1.876 . S
C1596 C651 1.932 . S
C1601 C691 1.933 . S
C1606 C650 1.876 . S
C1611 C611 1.932 . S
C1616 C690 1.877 . S
C1621 C739 1.818 . S
C1626 C802 1.876 . S
C1631 C779 1.818 . S
C1636 C722 1.876 . S
C1641 C762 1.876 . S
C1646 C819 1.818 . S
C1651 C882 1.769 . S
C1656 C859 1.726 1_554 S
C1661 C899 1.726 1_554 S
C1666 C922 1.770 . S
C1671 C842 1.770 . S
C1676 C939 1.724 1_554 S
C1681 C970 1.820 . S
C1686 C1051 1.877 . S
C1691 C1010 1.820 . S
C1696 C971 1.877 . S
C1701 C1050 1.819 . S
C1706 C1011 1.876 . S
C1711 C1090 1.725 1_556 S
C1716 C1131 1.769 . S
C1721 C1130 1.724 1_556 S
C1726 C1171 1.769 . S
C1731 C1170 1.727 1_556 S
C1736 C1091 1.771 . S
C1741 C1219 1.847 . S
C1746 C1282 1.907 . S
C1751 C1259 1.848 . S
C1756 C1202 1.908 . S
C1761 C1242 1.908 . S
C1766 C1299 1.849 . S
C1771 C1339 1.874 . S
C1776 C1362 1.931 . S
C1781 C1379 1.876 . S
C1786 C1402 1.931 . S
C1791 C1322 1.933 . S
C1796 C1419 1.877 . S
C1801 C2 1.906 . S
C1806 C810 1.855 . S
C1811 C730 1.855 1_565 S
C1816 C42 1.905 . S
C1821 C82 1.906 . S
C1826 C770 1.852 1_455 S
C1831 C122 1.821 . S
C1836 C1370 1.758 . S
C1841 C1410 1.757 1_545 S
C1846 C162 1.820 . S
C1851 C202 1.821 . S
C1856 C1330 1.758 1_655 S
C1861 C1059 1.855 . S
C1866 C251 1.906 . S
C1871 C291 1.906 . S
C1876 C979 1.852 1_545 S
C1881 C331 1.906 . S
C1886 C1019 1.853 1_655 S
C1891 C659 1.760 . S
C1896 C371 1.821 . S
C1901 C699 1.759 1_565 S
C1906 C411 1.819 . S
C1911 C619 1.760 1_455 S
C1916 C451 1.820 . S
C1921 C482 1.864 . S
C1926 C1290 1.808 . S
C1931 C522 1.865 . S
C1936 C1210 1.806 . S
C1941 C1250 1.807 . S
C1946 C562 1.863 . S
C1951 C410 1.798 . S
C1956 C602 1.856 1_455 S
C1961 C450 1.797 . S
C1966 C642 1.855 . S
C1971 C370 1.798 . S
C1976 C682 1.855 1_565 S
C1981 C99 1.852 . S
C1986 C731 1.900 1_565 S
C1991 C771 1.901 1_455 S
C1996 C19 1.853 . S
C2001 C811 1.900 . S
C2006 C59 1.852 . S
C2011 C1139 1.818 . S
C2016 C851 1.887 . S
C2021 C1179 1.817 . S
C2026 C891 1.889 . S
C2031 C931 1.890 . S
C2036 C1099 1.818 . S
C2041 C330 1.852 . S
C2046 C962 1.901 1_545 S
C2051 C250 1.852 . S
C2056 C1002 1.900 1_655 S
C2061 C290 1.853 . S
C2066 C1042 1.901 . S
C2071 C1082 1.890 . S
C2076 C890 1.818 . S
C2081 C930 1.817 . S
C2086 C1122 1.889 . S
C2091 C1162 1.888 . S
C2096 C850 1.819 . S
C2101 C1211 1.864 . S
C2106 C579 1.809 . S
C2111 C1251 1.864 . S
C2116 C499 1.808 . S
C2121 C1291 1.863 . S
C2126 C539 1.807 . S
C2131 C1331 1.856 1_655 S
C2136 C179 1.798 . S
C2141 C219 1.797 . S
C2146 C1371 1.855 . S
C2151 C139 1.798 . S
C2156 C1411 1.855 1_545 S
C2161 C1167 2.306 . S
C2166 C7 2.296 . S
C2171 C1087 2.306 . S
C2176 C47 2.298 . S
C2181 C87 2.309 . S
C2186 C1127 2.291 . S
C2191 C527 2.476 . S
C2196 C127 2.474 . S
C2201 C167 2.474 . S
C2206 C567 2.477 . S
C2211 C207 2.476 . S
C2216 C487 2.478 . S
C2221 C256 2.311 . S
C2226 C936 2.293 . S
C2231 C296 2.311 . S
C2236 C856 2.292 . S
C2241 C336 2.311 . S
C2246 C896 2.293 . S
C2251 C1256 2.478 . S
C2256 C376 2.476 . S
C2261 C1296 2.477 . S
C2266 C416 2.474 . S
C2271 C1216 2.478 . S
C2276 C456 2.476 . S
C2281 C607 2.508 . S
C2286 C1007 2.513 . S
C2291 C647 2.509 . S
C2296 C1047 2.513 . S
C2301 C687 2.507 . S
C2306 C967 2.511 . S
C2311 C736 2.513 . S
C2316 C1416 2.508 . S
C2321 C1336 2.508 . S
C2326 C776 2.513 . S
C2331 C816 2.511 . S
C2336 C1376 2.508 . S
C2341 C176 1.223 . S
C2346 C16 1.223 . S
C2351 C216 1.222 . S
C2356 C56 1.223 . S
C2361 C136 1.221 . S
C2366 C96 1.223 . S
C2371 C247 1.223 . S
C2376 C407 1.221 . S
C2381 C447 1.222 . S
C2386 C287 1.223 . S
C2391 C327 1.223 . S
C2396 C367 1.221 . S
C2401 C656 1.291 . S
C2406 C496 1.292 . S
C2411 C696 1.291 . S
C2416 C536 1.291 . S
C2421 C616 1.290 . S
C2426 C576 1.291 . S
C2431 C887 1.525 . S
C2436 C727 1.553 . S
C2441 C767 1.540 . S
C2446 C927 1.537 . S
C2451 C807 1.541 . S
C2456 C847 1.537 . S
C2461 C976 1.542 . S
C2466 C1136 1.538 . S
C2471 C1176 1.525 . S
C2476 C1016 1.553 . S
C2481 C1056 1.541 . S
C2486 C1096 1.537 . S
C2491 C1207 1.291 . S
C2496 C1367 1.291 . S
C2501 C1407 1.291 . S
C2506 C1247 1.292 . S
C2511 C1287 1.292 . S
C2516 C1327 1.292 . S
