# Generated by pormake.
# Topology npo, (4)-cn, num edge types: 1
# Building blocks:
#     Node 0, Type 0, BuildingBlock: GALJAG_clean_sbu_0, # of connection points: 4
#     Node 1, Type 0, BuildingBlock: GALJAG_clean_sbu_0, # of connection points: 4
#     Node 2, Type 0, BuildingBlock: GALJAG_clean_sbu_0, # of connection points: 4
#     Node 3, Type 0, BuildingBlock: GALJAG_clean_sbu_0, # of connection points: 4
#     Node 4, Type 0, BuildingBlock: GALJAG_clean_sbu_0, # of connection points: 4
#     Node 5, Type 0, BuildingBlock: GALJAG_clean_sbu_0, # of connection points: 4
#     Edge 6, Type (0, 0), BuildingBlock: XUDNAN_clean_linker_2, # of connection points: 2
#     Edge 7, Type (0, 0), BuildingBlock: XUDNAN_clean_linker_2, # of connection points: 2
#     Edge 8, Type (0, 0), BuildingBlock: XUDNAN_clean_linker_2, # of connection points: 2
#     Edge 9, Type (0, 0), BuildingBlock: XUDNAN_clean_linker_2, # of connection points: 2
#     Edge 10, Type (0, 0), BuildingBlock: XUDNAN_clean_linker_2, # of connection points: 2
#     Edge 11, Type (0, 0), BuildingBlock: XUDNAN_clean_linker_2, # of connection points: 2
#     Edge 12, Type (0, 0), BuildingBlock: XUDNAN_clean_linker_2, # of connection points: 2
#     Edge 13, Type (0, 0), BuildingBlock: XUDNAN_clean_linker_2, # of connection points: 2
#     Edge 14, Type (0, 0), BuildingBlock: XUDNAN_clean_linker_2, # of connection points: 2
#     Edge 15, Type (0, 0), BuildingBlock: XUDNAN_clean_linker_2, # of connection points: 2
#     Edge 16, Type (0, 0), BuildingBlock: XUDNAN_clean_linker_2, # of connection points: 2
#     Edge 17, Type (0, 0), BuildingBlock: XUDNAN_clean_linker_2, # of connection points: 2
# Relax obj value: 0.168
# Max RMSD: 0.203
# Mean RMSD: 0.203
data_MOF--net-npo--node1-GALJAG_clean_sbu_0--edge1-XUDNAN_clean_linker_2
_symmetry_space_group_name_H-M    P1
_symmetry_Int_Tables_number       1
_symmetry_cell_setting            triclinic
loop_
_symmetry_equiv_pos_as_xyz
'x, y, z'
_cell_length_a     46.809673
_cell_length_b     47.045462
_cell_length_c     21.690294
_cell_angle_alpha  89.604894
_cell_angle_beta   90.010119
_cell_angle_gamma 119.921
loop_
_atom_site_label
_atom_site_type_symbol
_atom_site_fract_x
_atom_site_fract_y
_atom_site_fract_z
_atom_type_partial_charge
In0 In 0.56114 0.12313 0.21244 0.0
O1 O 0.53124 0.09255 0.13048 0.0
O2 O 0.5733 0.08956 0.15771 0.0
C3 C 0.53822 0.16507 0.19747 0.0
C4 C 0.53021 0.07935 0.30394 0.0
C5 C 0.62528 0.16848 0.22671 0.0
O6 O 0.55298 0.15934 0.1549 0.0
O7 O 0.53475 0.14943 0.2469 0.0
O8 O 0.60509 0.15876 0.27119 0.0
O9 O 0.61322 0.15478 0.17608 0.0
C10 C 0.54928 0.08008 0.1214 0.0
O11 O 0.56075 0.09171 0.29408 0.0
O12 O 0.51578 0.08936 0.26833 0.0
In13 In 0.42792 0.54893 0.68129 0.0
O14 O 0.42162 0.51278 0.60488 0.0
O15 O 0.45028 0.56376 0.58574 0.0
C16 C 0.36586 0.52377 0.72482 0.0
C17 C 0.4639 0.52884 0.74545 0.0
C18 C 0.44709 0.61286 0.6939 0.0
O19 O 0.3722 0.52643 0.66779 0.0
O20 O 0.39056 0.53291 0.75921 0.0
O21 O 0.4572 0.59833 0.72922 0.0
O22 O 0.42742 0.59514 0.65259 0.0
C23 C 0.43946 0.53499 0.56671 0.0
O24 O 0.47675 0.5561 0.71756 0.0
O25 O 0.43295 0.51181 0.74107 0.0
In26 In 0.86979 0.43661 0.34497 0.0
O27 O 0.91249 0.48344 0.30539 0.0
O28 O 0.90685 0.43798 0.2751 0.0
C29 C 0.82629 0.37517 0.30912 0.0
C30 C 0.901 0.44019 0.45188 0.0
C31 C 0.82906 0.4616 0.33458 0.0
O32 O 0.84793 0.39605 0.27325 0.0
O33 O 0.82686 0.38518 0.36316 0.0
O34 O 0.85161 0.46758 0.29625 0.0
O35 O 0.82736 0.44354 0.37929 0.0
C36 C 0.92315 0.46892 0.27181 0.0
O37 O 0.8917 0.41665 0.41506 0.0
O38 O 0.89379 0.46163 0.43575 0.0
In39 In 0.43129 0.86528 0.71671 0.0
O40 O 0.43228 0.89701 0.79702 0.0
O41 O 0.47741 0.90057 0.76807 0.0
C42 C 0.36684 0.82092 0.73228 0.0
C43 C 0.44302 0.90749 0.62281 0.0
C44 C 0.45337 0.82236 0.71043 0.0
O45 O 0.38685 0.83112 0.7767 0.0
O46 O 0.3792 0.83361 0.68072 0.0
O47 O 0.44055 0.82846 0.66469 0.0
O48 O 0.45552 0.83828 0.75832 0.0
C49 C 0.46306 0.91019 0.80449 0.0
O50 O 0.46055 0.8944 0.63184 0.0
O51 O 0.41952 0.89887 0.66036 0.0
In52 In 0.56659 0.43787 0.18127 0.0
O53 O 0.58239 0.46069 0.08558 0.0
O54 O 0.53111 0.43408 0.10563 0.0
C55 C 0.62819 0.46091 0.22596 0.0
C56 C 0.54076 0.46602 0.25347 0.0
C57 C 0.54263 0.37269 0.1751 0.0
O58 O 0.6222 0.47244 0.17829 0.0
O59 O 0.60305 0.43807 0.25195 0.0
O60 O 0.53069 0.38535 0.21035 0.0
O61 O 0.56644 0.39291 0.1421 0.0
C62 C 0.55347 0.45109 0.06707 0.0
O63 O 0.53235 0.43614 0.25804 0.0
O64 O 0.56269 0.48184 0.21357 0.0
In65 In 0.12402 0.54987 0.84239 0.0
O66 O 0.0949 0.52089 0.92729 0.0
O67 O 0.1058 0.57023 0.9185 0.0
C68 C 0.16715 0.52782 0.83333 0.0
C69 C 0.07193 0.51641 0.76734 0.0
C70 C 0.1664 0.61302 0.81297 0.0
O71 O 0.15673 0.53157 0.88459 0.0
O72 O 0.15542 0.5347 0.78697 0.0
O73 O 0.14314 0.59412 0.77802 0.0
O74 O 0.168 0.60017 0.86322 0.0
C75 C 0.09196 0.54399 0.94951 0.0
O76 O 0.08363 0.54645 0.77872 0.0
O77 O 0.08663 0.50334 0.79346 0.0
H78 H 0.56275 0.21742 0.11852 0.0
H79 H 0.49214 0.16957 0.26667 0.0
H80 H 0.47988 0.21492 0.26656 0.0
H81 H 0.59699 0.29504 0.17829 0.0
H82 H 0.60405 0.31638 0.10562 0.0
H83 H 0.60273 0.27755 0.1089 0.0
H84 H 0.55659 0.2543 0.02656 0.0
H85 H 0.55787 0.29322 0.02277 0.0
H86 H 0.51954 0.25625 0.03918 0.0
H87 H 0.48005 0.26783 0.25895 0.0
H88 H 0.49426 0.32565 0.24754 0.0
H89 H 0.56638 0.34019 0.10695 0.0
C90 C 0.54395 0.21605 0.14949 0.0
C91 C 0.52802 0.18992 0.19204 0.0
C92 C 0.50438 0.18935 0.23342 0.0
C93 C 0.49717 0.21489 0.23348 0.0
C94 C 0.51393 0.24081 0.19204 0.0
C95 C 0.53685 0.24161 0.15078 0.0
C96 C 0.5543 0.27404 0.11638 0.0
C97 C 0.59172 0.29178 0.12804 0.0
C98 C 0.54661 0.26915 0.04711 0.0
C99 C 0.53843 0.29174 0.14625 0.0
C100 C 0.51473 0.2719 0.18884 0.0
C101 C 0.49818 0.28346 0.22508 0.0
C102 C 0.50647 0.31634 0.21836 0.0
C103 C 0.53133 0.3373 0.17626 0.0
C104 C 0.54702 0.32461 0.13901 0.0
H105 H 0.31354 0.52115 0.66354 0.0
H106 H 0.3449 0.50683 0.84359 0.0
H107 H 0.29325 0.49923 0.88938 0.0
H108 H 0.28263 0.56961 0.71286 0.0
H109 H 0.24815 0.55398 0.66078 0.0
H110 H 0.28446 0.5523 0.64006 0.0
H111 H 0.24922 0.48949 0.62445 0.0
H112 H 0.21265 0.491 0.6447 0.0
H113 H 0.22289 0.46393 0.68605 0.0
H114 H 0.24224 0.50069 0.91775 0.0
H115 H 0.19541 0.51083 0.92631 0.0
H116 H 0.19751 0.5248 0.72807 0.0
C117 C 0.309 0.51531 0.7122 0.0
C118 C 0.33298 0.51423 0.74998 0.0
C119 C 0.32668 0.50752 0.81381 0.0
C120 C 0.29739 0.5031 0.84019 0.0
C121 C 0.27465 0.50538 0.80207 0.0
C122 C 0.28 0.51112 0.73935 0.0
C123 C 0.25336 0.51588 0.70976 0.0
C124 C 0.26804 0.54996 0.6791 0.0
C125 C 0.23334 0.48843 0.66351 0.0
C126 C 0.2329 0.51308 0.76593 0.0
C127 C 0.24529 0.50654 0.81859 0.0
C128 C 0.23193 0.50522 0.8767 0.0
C129 C 0.20542 0.5111 0.88115 0.0
C130 C 0.19276 0.51839 0.82784 0.0
C131 C 0.20639 0.51883 0.76952 0.0
H132 H 0.65462 0.2085 0.32574 0.0
H133 H 0.67302 0.19023 0.13809 0.0
H134 H 0.72858 0.23903 0.1418 0.0
H135 H 0.69218 0.29353 0.31106 0.0
H136 H 0.70957 0.30261 0.38739 0.0
H137 H 0.67275 0.26419 0.37284 0.0
H138 H 0.70093 0.23264 0.41516 0.0
H139 H 0.73785 0.27102 0.4302 0.0
H140 H 0.73977 0.24068 0.38287 0.0
H141 H 0.77973 0.29249 0.16202 0.0
H142 H 0.82354 0.34643 0.19854 0.0
H143 H 0.77213 0.32978 0.37317 0.0
C144 C 0.67063 0.21437 0.28597 0.0
C145 C 0.65963 0.19552 0.23176 0.0
C146 C 0.68104 0.20428 0.18021 0.0
C147 C 0.71265 0.23192 0.18188 0.0
C148 C 0.72252 0.25043 0.23554 0.0
C149 C 0.70226 0.24194 0.28682 0.0
C150 C 0.71803 0.26714 0.33728 0.0
C151 C 0.69688 0.28279 0.35302 0.0
C152 C 0.72453 0.25196 0.39478 0.0
C153 C 0.74993 0.29149 0.30577 0.0
C154 C 0.75215 0.28128 0.24729 0.0
C155 C 0.77852 0.30054 0.20807 0.0
C156 C 0.80322 0.33115 0.22911 0.0
C157 C 0.80129 0.34212 0.28875 0.0
C158 C 0.77445 0.32183 0.32764 0.0
H159 H 0.43382 0.7721 0.62885 0.0
H160 H 0.49203 0.81373 0.79369 0.0
H161 H 0.50149 0.76666 0.8016 0.0
H162 H 0.39244 0.69208 0.68263 0.0
H163 H 0.39117 0.67316 0.60992 0.0
H164 H 0.39329 0.71238 0.61129 0.0
H165 H 0.44591 0.73744 0.54318 0.0
H166 H 0.44381 0.69814 0.54113 0.0
H167 H 0.4808 0.73378 0.56735 0.0
H168 H 0.49978 0.71264 0.79779 0.0
H169 H 0.48674 0.65535 0.78259 0.0
H170 H 0.42847 0.64854 0.62187 0.0
C171 C 0.44936 0.77174 0.66551 0.0
C172 C 0.4625 0.7966 0.71031 0.0
C173 C 0.48193 0.79494 0.7587 0.0
C174 C 0.48749 0.76838 0.76348 0.0
C175 C 0.47341 0.74374 0.71954 0.0
C176 C 0.45484 0.74523 0.67133 0.0
C177 C 0.43987 0.71416 0.63369 0.0
C178 C 0.40196 0.69694 0.63448 0.0
C179 C 0.45342 0.72132 0.56741 0.0
C180 C 0.45222 0.69465 0.66918 0.0
C181 C 0.47188 0.71228 0.71804 0.0
C182 C 0.48477 0.69873 0.75921 0.0
C183 C 0.47717 0.66619 0.75033 0.0
C184 C 0.45668 0.64763 0.70105 0.0
C185 C 0.44439 0.66224 0.65973 0.0
H186 H 0.64762 0.43223 0.31416 0.0
H187 H 0.68522 0.51257 0.18194 0.0
H188 H 0.74212 0.52623 0.20666 0.0
H189 H 0.71665 0.47211 0.42753 0.0
H190 H 0.7158 0.43405 0.44358 0.0
H191 H 0.67838 0.43379 0.42275 0.0
H192 H 0.66941 0.39394 0.33334 0.0
H193 H 0.70675 0.39416 0.35368 0.0
H194 H 0.70148 0.40523 0.27652 0.0
H195 H 0.79369 0.52608 0.23375 0.0
H196 H 0.83666 0.5127 0.26303 0.0
H197 H 0.7662 0.43335 0.37965 0.0
C198 C 0.66788 0.45327 0.29174 0.0
C199 C 0.66209 0.4715 0.24643 0.0
C200 C 0.68916 0.49839 0.21701 0.0
C201 C 0.72155 0.5064 0.2309 0.0
C202 C 0.72644 0.48741 0.2746 0.0
C203 C 0.70038 0.46154 0.30499 0.0
C204 C 0.71216 0.44312 0.34559 0.0
C205 C 0.70535 0.44595 0.41392 0.0
C206 C 0.69653 0.40699 0.32608 0.0
C207 C 0.74876 0.46197 0.33157 0.0
C208 C 0.7565 0.48763 0.29099 0.0
C209 C 0.78811 0.50656 0.2666 0.0
C210 C 0.81231 0.49875 0.28332 0.0
C211 C 0.80477 0.47234 0.32419 0.0
C212 C 0.77279 0.45422 0.3496 0.0
H213 H 0.33886 0.77849 0.82958 0.0
H214 H 0.3175 0.80258 0.64826 0.0
H215 H 0.26143 0.75443 0.65377 0.0
H216 H 0.30014 0.69424 0.80676 0.0
H217 H 0.28438 0.6827 0.8842 0.0
H218 H 0.3211 0.72141 0.87001 0.0
H219 H 0.2944 0.7518 0.92272 0.0
H220 H 0.25758 0.71309 0.93742 0.0
H221 H 0.25505 0.74512 0.89608 0.0
H222 H 0.20995 0.70111 0.67445 0.0
H223 H 0.16671 0.64604 0.70864 0.0
H224 H 0.22183 0.65614 0.87587 0.0
C225 C 0.32207 0.77408 0.79177 0.0
C226 C 0.33232 0.79436 0.73874 0.0
C227 C 0.31 0.7874 0.68946 0.0
C228 C 0.27811 0.76017 0.69223 0.0
C229 C 0.26897 0.74019 0.74459 0.0
C230 C 0.29024 0.74683 0.79358 0.0
C231 C 0.27534 0.71998 0.84213 0.0
C232 C 0.2965 0.70362 0.85126 0.0
C233 C 0.27029 0.7333 0.9032 0.0
C234 C 0.2427 0.69687 0.81213 0.0
C235 C 0.23936 0.70915 0.75622 0.0
C236 C 0.21208 0.69141 0.71852 0.0
C237 C 0.18769 0.66015 0.73825 0.0
C238 C 0.19087 0.64694 0.79499 0.0
C239 C 0.21856 0.66577 0.8326 0.0
H240 H 0.44119 0.94444 0.87281 0.0
H241 H 0.52615 0.93239 0.84175 0.0
H242 H 0.55748 0.9748 0.91928 0.0
H243 H 0.48705 0.03206 0.89031 0.0
H244 H 0.46035 0.03275 0.94943 0.0
H245 H 0.44415 0.00079 0.89258 0.0
H246 H 0.42319 0.95675 0.97938 0.0
H247 H 0.43923 0.98857 0.0365 0.0
H248 H 0.45174 0.95802 0.0366 0.0
H249 H 0.57924 0.01752 0.00084 0.0
H250 H 0.59071 0.05941 0.07982 0.0
H251 H 0.49253 0.04549 0.05503 0.0
C252 C 0.46633 0.95065 0.88263 0.0
C253 C 0.48127 0.93512 0.85163 0.0
C254 C 0.51429 0.94405 0.8651 0.0
C255 C 0.53226 0.96806 0.90903 0.0
C256 C 0.51692 0.98304 0.93861 0.0
C257 C 0.48478 0.97485 0.92589 0.0
C258 C 0.4744 -0.00479 0.96347 0.0
C259 C 0.466 0.01646 0.92142 0.0
C260 C 0.44543 0.97332 0.00654 0.0
C261 C 0.50569 0.01599 -0.00058 0.0
C262 C 0.52983 0.00844 0.98456 0.0
C263 C 0.56062 0.0238 0.0127 0.0
C264 C 0.56689 0.0475 0.05746 0.0
C265 C 0.54257 0.05573 0.07311 0.0
C266 C 0.51167 0.03987 0.04345 0.0
H267 H 0.49641 0.43789 0.34809 0.0
H268 H 0.55088 0.52819 0.24266 0.0
H269 H 0.52559 0.55367 0.30484 0.0
H270 H 0.42109 0.44256 0.37004 0.0
H271 H 0.41474 0.4265 0.44762 0.0
H272 H 0.43495 0.41435 0.39158 0.0
H273 H 0.48523 0.43374 0.4641 0.0
H274 H 0.46507 0.44567 0.52041 0.0
H275 H 0.50556 0.47518 0.49251 0.0
H276 H 0.49755 0.57043 0.38209 0.0
H277 H 0.47095 0.57848 0.47324 0.0
H278 H 0.43438 0.47727 0.52859 0.0
C279 C 0.50275 0.46292 0.33774 0.0
C280 C 0.52551 0.4811 0.29055 0.0
C281 C 0.53348 0.51387 0.27867 0.0
C282 C 0.5191 0.52846 0.31345 0.0
C283 C 0.49677 0.5099 0.35972 0.0
C284 C 0.48869 0.47789 0.37211 0.0
C285 C 0.46565 0.46406 0.427 0.0
C286 C 0.43212 0.43516 0.40789 0.0
C287 C 0.48132 0.45409 0.47907 0.0
C288 C 0.46269 0.49359 0.44448 0.0
C289 C 0.4805 0.51961 0.40454 0.0
C290 C 0.4832 0.55014 0.41327 0.0
C291 C 0.468 0.55446 0.46512 0.0
C292 C 0.45045 0.52842 0.50757 0.0
C293 C 0.44713 0.49741 0.49624 0.0
H294 H 0.05143 0.4871 0.01181 0.0
H295 H 0.08654 0.59166 0.01068 0.0
H296 H 0.04943 0.58422 0.09792 0.0
H297 H 0.96835 0.46196 0.03923 0.0
H298 H 0.96048 0.42778 0.08849 0.0
H299 H 0.99215 0.44169 0.03036 0.0
H300 H 0.03513 0.44938 0.11358 0.0
H301 H 0.00351 0.43529 0.17204 0.0
H302 H 0.04045 0.47458 0.17966 0.0
H303 H 0.00608 0.56493 0.18058 0.0
H304 H 0.95929 0.5351 0.25247 0.0
H305 H 0.95177 0.44301 0.19803 0.0
C306 C 0.05176 0.50851 0.03069 0.0
C307 C 0.07198 0.53999 0.0049 0.0
C308 C 0.07132 0.56734 0.03007 0.0
C309 C 0.05037 0.56337 0.07961 0.0
C310 C 0.0303 0.5319 0.10332 0.0
C311 C 0.03087 0.50495 0.07983 0.0
C312 C 0.00546 0.47355 0.11116 0.0
C313 C 0.98012 0.44986 0.06452 0.0
C314 C 0.02214 0.45725 0.1462 0.0
C315 C 0.99008 0.48697 0.15512 0.0
C316 C 0.00497 0.52071 0.15033 0.0
C317 C 0.99439 0.53854 0.18511 0.0
C318 C 0.96779 0.52139 0.22571 0.0
C319 C 0.95197 0.48679 0.23079 0.0
C320 C 0.96347 0.46948 0.19525 0.0
H321 H 0.55166 0.04387 0.37101 0.0
H322 H 0.46791 0.05848 0.34485 0.0
H323 H 0.43646 0.01568 0.42285 0.0
H324 H 0.50438 0.95624 0.38862 0.0
H325 H 0.531 0.95426 0.44648 0.0
H326 H 0.54753 0.98679 0.38982 0.0
H327 H 0.56975 0.02999 0.47683 0.0
H328 H 0.55344 -0.00241 0.53375 0.0
H329 H 0.54183 0.0288 0.53539 0.0
H330 H 0.41429 0.97207 0.50371 0.0
H331 H 0.40233 0.92937 0.58236 0.0
H332 H 0.49947 0.94121 0.55379 0.0
C333 C 0.52679 0.03817 0.3821 0.0
C334 C 0.51221 0.05452 0.3522 0.0
C335 C 0.47952 0.04622 0.36731 0.0
C336 C 0.46146 0.02197 0.4115 0.0
C337 C 0.47639 0.0061 0.43978 0.0
C338 C 0.50825 0.01374 0.42573 0.0
C339 C 0.51816 0.99247 0.46225 0.0
C340 C 0.52571 0.97118 0.41921 0.0
C341 C 0.54753 0.01347 0.50457 0.0
C342 C 0.48691 0.9718 0.49911 0.0
C343 C 0.46321 0.9802 0.48554 0.0
C344 C 0.43256 0.96514 0.5146 0.0
C345 C 0.42601 0.94095 0.55915 0.0
C346 C 0.44991 0.93193 0.57377 0.0
C347 C 0.48064 0.94741 0.54299 0.0
H348 H 0.44088 0.47895 0.82978 0.0
H349 H 0.53079 0.55517 0.74489 0.0
H350 H 0.56352 0.53897 0.81073 0.0
H351 H 0.47137 0.4915 0.97967 0.0
H352 H 0.44933 0.44885 0.00216 0.0
H353 H 0.43296 0.46358 0.94294 0.0
H354 H 0.43089 0.42 0.86772 0.0
H355 H 0.44735 0.40515 0.92683 0.0
H356 H 0.4678 0.41808 0.85313 0.0
H357 H 0.58646 0.51719 0.89085 0.0
H358 H 0.59814 0.49389 0.98345 0.0
H359 H 0.49316 0.43307 0.01769 0.0
C360 C 0.46742 0.4918 0.82422 0.0
C361 C 0.48338 0.51811 0.78204 0.0
C362 C 0.51815 0.53485 0.77689 0.0
C363 C 0.5369 0.52571 0.81381 0.0
C364 C 0.52042 0.49988 0.85557 0.0
C365 C 0.48646 0.48323 0.8611 0.0
C366 C 0.47493 0.45839 0.91325 0.0
C367 C 0.45605 0.46606 0.9624 0.0
C368 C 0.45401 0.42333 0.88875 0.0
C369 C 0.50774 0.46424 0.93726 0.0
C370 C 0.53366 0.48784 0.90271 0.0
C371 C 0.56637 0.49845 0.91786 0.0
C372 C 0.57275 0.48507 0.97048 0.0
C373 C 0.54654 0.46166 0.00754 0.0
C374 C 0.51367 0.45073 0.98991 0.0
H375 H 0.03759 0.54002 0.7036 0.0
H376 H 0.04235 0.45148 0.73796 0.0
H377 H -0.00421 0.42106 0.66674 0.0
H378 H 0.94788 0.50043 0.69059 0.0
H379 H 0.94979 0.52756 0.62961 0.0
H380 H 0.98206 0.54184 0.68639 0.0
H381 H 0.02564 0.55799 0.59956 0.0
H382 H 0.99356 0.54388 0.54261 0.0
H383 H 0.02119 0.52759 0.54433 0.0
H384 H 0.95143 0.40132 0.58683 0.0
H385 H 0.91267 0.39377 0.50281 0.0
H386 H 0.93621 0.49493 0.52194 0.0
C387 C 0.0286 0.51415 0.69662 0.0
C388 C 0.04348 0.49804 0.72631 0.0
C389 C 0.03124 0.46425 0.71569 0.0
C390 C 0.00476 0.44676 0.6755 0.0
C391 C 0.99076 0.46341 0.64665 0.0
C392 C 0.0022 0.49633 0.65675 0.0
C393 C 0.98384 0.5088 0.61781 0.0
C394 C 0.96476 0.52033 0.65855 0.0
C395 C 0.00747 0.53617 0.57345 0.0
C396 C 0.96067 0.47788 0.58341 0.0
C397 C 0.96492 0.45193 0.60097 0.0
C398 C 0.94758 0.42133 0.57321 0.0
C399 C 0.92566 0.41728 0.52557 0.0
C400 C 0.92129 0.44368 0.50636 0.0
C401 C 0.93866 0.47417 0.53641 0.0
loop_
_geom_bond_atom_site_label_1
_geom_bond_atom_site_label_2
_geom_bond_distance
_geom_bond_site_symmetry_2
_ccdc_geom_bond_type
In0 O1 2.294 . S
In0 O2 2.326 . S
In0 O6 2.266 . S
In0 O7 2.326 . S
In0 O8 2.266 . S
In0 O9 2.326 . S
In0 O11 2.294 . S
In0 O12 2.326 . S
O1 In0 2.294 . S
O1 C10 1.240 . S
O2 In0 2.326 . S
O2 C10 1.252 . S
C3 O6 1.252 . S
C3 O7 1.260 . S
C4 O11 1.240 . S
C4 O12 1.252 . S
C5 O8 1.252 . S
C5 O9 1.260 . S
O6 In0 2.266 . S
O6 C3 1.252 . S
O7 In0 2.326 . S
O7 C3 1.260 . S
O8 In0 2.266 . S
O8 C5 1.252 . S
O9 In0 2.326 . S
O9 C5 1.260 . S
C10 O1 1.240 . S
C10 O2 1.252 . S
O11 In0 2.294 . S
O11 C4 1.240 . S
O12 In0 2.326 . S
O12 C4 1.252 . S
In13 O14 2.294 . S
In13 O15 2.326 . S
In13 O19 2.266 . S
In13 O20 2.326 . S
In13 O21 2.266 . S
In13 O22 2.326 . S
In13 O24 2.294 . S
In13 O25 2.326 . S
O14 In13 2.294 . S
O14 C23 1.240 . S
O15 In13 2.326 . S
O15 C23 1.252 . S
C16 O19 1.252 . S
C16 O20 1.260 . S
C17 O24 1.240 . S
C17 O25 1.252 . S
C18 O21 1.252 . S
C18 O22 1.260 . S
O19 In13 2.266 . S
O19 C16 1.252 . S
O20 In13 2.326 . S
O20 C16 1.260 . S
O21 In13 2.266 . S
O21 C18 1.252 . S
O22 In13 2.326 . S
O22 C18 1.260 . S
C23 O14 1.240 . S
C23 O15 1.252 . S
O24 In13 2.294 . S
O24 C17 1.240 . S
O25 In13 2.326 . S
O25 C17 1.252 . S
In26 O27 2.294 . S
In26 O28 2.326 . S
In26 O32 2.266 . S
In26 O33 2.326 . S
In26 O34 2.266 . S
In26 O35 2.326 . S
In26 O37 2.294 . S
In26 O38 2.326 . S
O27 In26 2.294 . S
O27 C36 1.240 . S
O28 In26 2.326 . S
O28 C36 1.252 . S
C29 O32 1.252 . S
C29 O33 1.260 . S
C30 O37 1.240 . S
C30 O38 1.252 . S
C31 O34 1.252 . S
C31 O35 1.260 . S
O32 In26 2.266 . S
O32 C29 1.252 . S
O33 In26 2.326 . S
O33 C29 1.260 . S
O34 In26 2.266 . S
O34 C31 1.252 . S
O35 In26 2.326 . S
O35 C31 1.260 . S
C36 O27 1.240 . S
C36 O28 1.252 . S
O37 In26 2.294 . S
O37 C30 1.240 . S
O38 In26 2.326 . S
O38 C30 1.252 . S
In39 O40 2.294 . S
In39 O41 2.326 . S
In39 O45 2.266 . S
In39 O46 2.326 . S
In39 O47 2.266 . S
In39 O48 2.326 . S
In39 O50 2.294 . S
In39 O51 2.326 . S
O40 In39 2.294 . S
O40 C49 1.240 . S
O41 In39 2.326 . S
O41 C49 1.252 . S
C42 O45 1.252 . S
C42 O46 1.260 . S
C43 O50 1.240 . S
C43 O51 1.252 . S
C44 O47 1.252 . S
C44 O48 1.260 . S
O45 In39 2.266 . S
O45 C42 1.252 . S
O46 In39 2.326 . S
O46 C42 1.260 . S
O47 In39 2.266 . S
O47 C44 1.252 . S
O48 In39 2.326 . S
O48 C44 1.260 . S
C49 O40 1.240 . S
C49 O41 1.252 . S
O50 In39 2.294 . S
O50 C43 1.240 . S
O51 In39 2.326 . S
O51 C43 1.252 . S
In52 O53 2.294 . S
In52 O54 2.326 . S
In52 O58 2.266 . S
In52 O59 2.326 . S
In52 O60 2.266 . S
In52 O61 2.326 . S
In52 O63 2.294 . S
In52 O64 2.326 . S
O53 In52 2.294 . S
O53 C62 1.240 . S
O54 In52 2.326 . S
O54 C62 1.252 . S
C55 O58 1.252 . S
C55 O59 1.260 . S
C56 O63 1.240 . S
C56 O64 1.252 . S
C57 O60 1.252 . S
C57 O61 1.260 . S
O58 In52 2.266 . S
O58 C55 1.252 . S
O59 In52 2.326 . S
O59 C55 1.260 . S
O60 In52 2.266 . S
O60 C57 1.252 . S
O61 In52 2.326 . S
O61 C57 1.260 . S
C62 O53 1.240 . S
C62 O54 1.252 . S
O63 In52 2.294 . S
O63 C56 1.240 . S
O64 In52 2.326 . S
O64 C56 1.252 . S
In65 O66 2.294 . S
In65 O67 2.326 . S
In65 O71 2.266 . S
In65 O72 2.326 . S
In65 O73 2.266 . S
In65 O74 2.326 . S
In65 O76 2.294 . S
In65 O77 2.326 . S
O66 In65 2.294 . S
O66 C75 1.240 . S
O67 In65 2.326 . S
O67 C75 1.252 . S
C68 O71 1.252 . S
C68 O72 1.260 . S
C69 O76 1.240 . S
C69 O77 1.252 . S
C70 O73 1.252 . S
C70 O74 1.260 . S
O71 In65 2.266 . S
O71 C68 1.252 . S
O72 In65 2.326 . S
O72 C68 1.260 . S
O73 In65 2.266 . S
O73 C70 1.252 . S
O74 In65 2.326 . S
O74 C70 1.260 . S
C75 O66 1.240 . S
C75 O67 1.252 . S
O76 In65 2.294 . S
O76 C69 1.240 . S
O77 In65 2.326 . S
O77 C69 1.252 . S
H78 C90 0.930 . S
H79 C92 0.930 . S
H80 C93 0.930 . S
H81 C97 0.959 . S
H82 C97 0.959 . S
H83 C97 0.961 . S
H84 C98 0.960 . S
H85 C98 0.961 . S
H86 C98 0.959 . S
H87 C101 0.929 . S
H88 C102 0.931 . S
H89 C104 0.930 . S
C90 H78 0.930 . S
C90 C91 1.399 . S
C90 C95 1.399 . S
C91 C90 1.399 . S
C91 C92 1.376 . S
C92 H79 0.930 . S
C92 C91 1.376 . S
C92 C93 1.388 . S
C93 H80 0.930 . S
C93 C92 1.388 . S
C93 C94 1.390 . S
C94 C93 1.390 . S
C94 C95 1.394 . S
C94 C100 1.465 . S
C95 C90 1.399 . S
C95 C94 1.394 . S
C95 C96 1.516 . S
C96 C95 1.516 . S
C96 C97 1.502 . S
C96 C98 1.561 . S
C96 C99 1.526 . S
C97 H81 0.959 . S
C97 H82 0.959 . S
C97 H83 0.961 . S
C97 C96 1.502 . S
C98 H84 0.960 . S
C98 H85 0.961 . S
C98 H86 0.959 . S
C98 C96 1.561 . S
C99 C96 1.526 . S
C99 C100 1.396 . S
C99 C104 1.390 . S
C100 C94 1.465 . S
C100 C99 1.396 . S
C100 C101 1.399 . S
C101 H87 0.929 . S
C101 C100 1.399 . S
C101 C102 1.385 . S
C102 H88 0.931 . S
C102 C101 1.385 . S
C102 C103 1.389 . S
C103 C102 1.389 . S
C103 C104 1.387 . S
C104 H89 0.930 . S
C104 C99 1.390 . S
C104 C103 1.387 . S
H105 C117 0.930 . S
H106 C119 0.930 . S
H107 C120 0.930 . S
H108 C124 0.959 . S
H109 C124 0.959 . S
H110 C124 0.961 . S
H111 C125 0.960 . S
H112 C125 0.961 . S
H113 C125 0.959 . S
H114 C128 0.929 . S
H115 C129 0.931 . S
H116 C131 0.930 . S
C117 H105 0.930 . S
C117 C118 1.399 . S
C117 C122 1.399 . S
C118 C117 1.399 . S
C118 C119 1.376 . S
C119 H106 0.930 . S
C119 C118 1.376 . S
C119 C120 1.388 . S
C120 H107 0.930 . S
C120 C119 1.388 . S
C120 C121 1.390 . S
C121 C120 1.390 . S
C121 C122 1.394 . S
C121 C127 1.465 . S
C122 C117 1.399 . S
C122 C121 1.394 . S
C122 C123 1.516 . S
C123 C122 1.516 . S
C123 C124 1.502 . S
C123 C125 1.561 . S
C123 C126 1.526 . S
C124 H108 0.959 . S
C124 H109 0.959 . S
C124 H110 0.961 . S
C124 C123 1.502 . S
C125 H111 0.960 . S
C125 H112 0.961 . S
C125 H113 0.959 . S
C125 C123 1.561 . S
C126 C123 1.526 . S
C126 C127 1.396 . S
C126 C131 1.390 . S
C127 C121 1.465 . S
C127 C126 1.396 . S
C127 C128 1.399 . S
C128 H114 0.929 . S
C128 C127 1.399 . S
C128 C129 1.385 . S
C129 H115 0.931 . S
C129 C128 1.385 . S
C129 C130 1.389 . S
C130 C129 1.389 . S
C130 C131 1.387 . S
C131 H116 0.930 . S
C131 C126 1.390 . S
C131 C130 1.387 . S
H132 C144 0.930 . S
H133 C146 0.930 . S
H134 C147 0.930 . S
H135 C151 0.959 . S
H136 C151 0.959 . S
H137 C151 0.961 . S
H138 C152 0.960 . S
H139 C152 0.961 . S
H140 C152 0.959 . S
H141 C155 0.929 . S
H142 C156 0.931 . S
H143 C158 0.930 . S
C144 H132 0.930 . S
C144 C145 1.399 . S
C144 C149 1.399 . S
C145 C144 1.399 . S
C145 C146 1.376 . S
C146 H133 0.930 . S
C146 C145 1.376 . S
C146 C147 1.388 . S
C147 H134 0.930 . S
C147 C146 1.388 . S
C147 C148 1.390 . S
C148 C147 1.390 . S
C148 C149 1.394 . S
C148 C154 1.465 . S
C149 C144 1.399 . S
C149 C148 1.394 . S
C149 C150 1.516 . S
C150 C149 1.516 . S
C150 C151 1.502 . S
C150 C152 1.561 . S
C150 C153 1.526 . S
C151 H135 0.959 . S
C151 H136 0.959 . S
C151 H137 0.961 . S
C151 C150 1.502 . S
C152 H138 0.960 . S
C152 H139 0.961 . S
C152 H140 0.959 . S
C152 C150 1.561 . S
C153 C150 1.526 . S
C153 C154 1.396 . S
C153 C158 1.390 . S
C154 C148 1.465 . S
C154 C153 1.396 . S
C154 C155 1.399 . S
C155 H141 0.929 . S
C155 C154 1.399 . S
C155 C156 1.385 . S
C156 H142 0.931 . S
C156 C155 1.385 . S
C156 C157 1.389 . S
C157 C156 1.389 . S
C157 C158 1.387 . S
C158 H143 0.930 . S
C158 C153 1.390 . S
C158 C157 1.387 . S
H159 C171 0.930 . S
H160 C173 0.930 . S
H161 C174 0.930 . S
H162 C178 0.959 . S
H163 C178 0.959 . S
H164 C178 0.961 . S
H165 C179 0.960 . S
H166 C179 0.961 . S
H167 C179 0.959 . S
H168 C182 0.929 . S
H169 C183 0.931 . S
H170 C185 0.930 . S
C171 H159 0.930 . S
C171 C172 1.399 . S
C171 C176 1.399 . S
C172 C171 1.399 . S
C172 C173 1.376 . S
C173 H160 0.930 . S
C173 C172 1.376 . S
C173 C174 1.388 . S
C174 H161 0.930 . S
C174 C173 1.388 . S
C174 C175 1.390 . S
C175 C174 1.390 . S
C175 C176 1.394 . S
C175 C181 1.465 . S
C176 C171 1.399 . S
C176 C175 1.394 . S
C176 C177 1.516 . S
C177 C176 1.516 . S
C177 C178 1.502 . S
C177 C179 1.561 . S
C177 C180 1.526 . S
C178 H162 0.959 . S
C178 H163 0.959 . S
C178 H164 0.961 . S
C178 C177 1.502 . S
C179 H165 0.960 . S
C179 H166 0.961 . S
C179 H167 0.959 . S
C179 C177 1.561 . S
C180 C177 1.526 . S
C180 C181 1.396 . S
C180 C185 1.390 . S
C181 C175 1.465 . S
C181 C180 1.396 . S
C181 C182 1.399 . S
C182 H168 0.929 . S
C182 C181 1.399 . S
C182 C183 1.385 . S
C183 H169 0.931 . S
C183 C182 1.385 . S
C183 C184 1.389 . S
C184 C183 1.389 . S
C184 C185 1.387 . S
C185 H170 0.930 . S
C185 C180 1.390 . S
C185 C184 1.387 . S
H186 C198 0.930 . S
H187 C200 0.930 . S
H188 C201 0.930 . S
H189 C205 0.959 . S
H190 C205 0.959 . S
H191 C205 0.961 . S
H192 C206 0.960 . S
H193 C206 0.961 . S
H194 C206 0.959 . S
H195 C209 0.929 . S
H196 C210 0.931 . S
H197 C212 0.930 . S
C198 H186 0.930 . S
C198 C199 1.399 . S
C198 C203 1.399 . S
C199 C198 1.399 . S
C199 C200 1.376 . S
C200 H187 0.930 . S
C200 C199 1.376 . S
C200 C201 1.388 . S
C201 H188 0.930 . S
C201 C200 1.388 . S
C201 C202 1.390 . S
C202 C201 1.390 . S
C202 C203 1.394 . S
C202 C208 1.465 . S
C203 C198 1.399 . S
C203 C202 1.394 . S
C203 C204 1.516 . S
C204 C203 1.516 . S
C204 C205 1.502 . S
C204 C206 1.561 . S
C204 C207 1.526 . S
C205 H189 0.959 . S
C205 H190 0.959 . S
C205 H191 0.961 . S
C205 C204 1.502 . S
C206 H192 0.960 . S
C206 H193 0.961 . S
C206 H194 0.959 . S
C206 C204 1.561 . S
C207 C204 1.526 . S
C207 C208 1.396 . S
C207 C212 1.390 . S
C208 C202 1.465 . S
C208 C207 1.396 . S
C208 C209 1.399 . S
C209 H195 0.929 . S
C209 C208 1.399 . S
C209 C210 1.385 . S
C210 H196 0.931 . S
C210 C209 1.385 . S
C210 C211 1.389 . S
C211 C210 1.389 . S
C211 C212 1.387 . S
C212 H197 0.930 . S
C212 C207 1.390 . S
C212 C211 1.387 . S
H213 C225 0.930 . S
H214 C227 0.930 . S
H215 C228 0.930 . S
H216 C232 0.959 . S
H217 C232 0.959 . S
H218 C232 0.961 . S
H219 C233 0.960 . S
H220 C233 0.961 . S
H221 C233 0.959 . S
H222 C236 0.929 . S
H223 C237 0.931 . S
H224 C239 0.930 . S
C225 H213 0.930 . S
C225 C226 1.399 . S
C225 C230 1.399 . S
C226 C225 1.399 . S
C226 C227 1.376 . S
C227 H214 0.930 . S
C227 C226 1.376 . S
C227 C228 1.388 . S
C228 H215 0.930 . S
C228 C227 1.388 . S
C228 C229 1.390 . S
C229 C228 1.390 . S
C229 C230 1.394 . S
C229 C235 1.465 . S
C230 C225 1.399 . S
C230 C229 1.394 . S
C230 C231 1.516 . S
C231 C230 1.516 . S
C231 C232 1.502 . S
C231 C233 1.561 . S
C231 C234 1.526 . S
C232 H216 0.959 . S
C232 H217 0.959 . S
C232 H218 0.961 . S
C232 C231 1.502 . S
C233 H219 0.960 . S
C233 H220 0.961 . S
C233 H221 0.959 . S
C233 C231 1.561 . S
C234 C231 1.526 . S
C234 C235 1.396 . S
C234 C239 1.390 . S
C235 C229 1.465 . S
C235 C234 1.396 . S
C235 C236 1.399 . S
C236 H222 0.929 . S
C236 C235 1.399 . S
C236 C237 1.385 . S
C237 H223 0.931 . S
C237 C236 1.385 . S
C237 C238 1.389 . S
C238 C237 1.389 . S
C238 C239 1.387 . S
C239 H224 0.930 . S
C239 C234 1.390 . S
C239 C238 1.387 . S
H240 C252 0.930 . S
H241 C254 0.930 . S
H242 C255 0.930 1_545 S
H243 C259 0.959 . S
H244 C259 0.959 . S
H245 C259 0.961 . S
H246 C260 0.960 . S
H247 C260 0.961 . S
H248 C260 0.959 . S
H249 C263 0.929 1_556 S
H250 C264 0.931 . S
H251 C266 0.930 . S
C252 H240 0.930 . S
C252 C253 1.399 . S
C252 C257 1.399 . S
C253 C252 1.399 . S
C253 C254 1.376 . S
C254 H241 0.930 . S
C254 C253 1.376 . S
C254 C255 1.388 . S
C255 H242 0.930 1_565 S
C255 C254 1.388 . S
C255 C256 1.390 . S
C256 C255 1.390 . S
C256 C257 1.394 . S
C256 C262 1.465 1_566 S
C257 C252 1.399 . S
C257 C256 1.394 . S
C257 C258 1.516 1_556 S
C258 C257 1.516 1_554 S
C258 C259 1.502 . S
C258 C260 1.561 . S
C258 C261 1.526 1_565 S
C259 H243 0.959 . S
C259 H244 0.959 . S
C259 H245 0.961 . S
C259 C258 1.502 . S
C260 H246 0.960 . S
C260 H247 0.961 . S
C260 H248 0.959 . S
C260 C258 1.561 . S
C261 C258 1.526 1_545 S
C261 C262 1.396 . S
C261 C266 1.390 . S
C262 C256 1.465 1_544 S
C262 C261 1.396 . S
C262 C263 1.399 . S
C263 H249 0.929 1_554 S
C263 C262 1.399 . S
C263 C264 1.385 . S
C264 H250 0.931 . S
C264 C263 1.385 . S
C264 C265 1.389 . S
C265 C264 1.389 . S
C265 C266 1.387 . S
C266 H251 0.930 . S
C266 C261 1.390 . S
C266 C265 1.387 . S
H267 C279 0.930 . S
H268 C281 0.930 . S
H269 C282 0.930 . S
H270 C286 0.959 . S
H271 C286 0.959 . S
H272 C286 0.961 . S
H273 C287 0.960 . S
H274 C287 0.961 . S
H275 C287 0.959 . S
H276 C290 0.929 . S
H277 C291 0.931 . S
H278 C293 0.930 . S
C279 H267 0.930 . S
C279 C280 1.399 . S
C279 C284 1.399 . S
C280 C279 1.399 . S
C280 C281 1.376 . S
C281 H268 0.930 . S
C281 C280 1.376 . S
C281 C282 1.388 . S
C282 H269 0.930 . S
C282 C281 1.388 . S
C282 C283 1.390 . S
C283 C282 1.390 . S
C283 C284 1.394 . S
C283 C289 1.465 . S
C284 C279 1.399 . S
C284 C283 1.394 . S
C284 C285 1.516 . S
C285 C284 1.516 . S
C285 C286 1.502 . S
C285 C287 1.561 . S
C285 C288 1.526 . S
C286 H270 0.959 . S
C286 H271 0.959 . S
C286 H272 0.961 . S
C286 C285 1.502 . S
C287 H273 0.960 . S
C287 H274 0.961 . S
C287 H275 0.959 . S
C287 C285 1.561 . S
C288 C285 1.526 . S
C288 C289 1.396 . S
C288 C293 1.390 . S
C289 C283 1.465 . S
C289 C288 1.396 . S
C289 C290 1.399 . S
C290 H276 0.929 . S
C290 C289 1.399 . S
C290 C291 1.385 . S
C291 H277 0.931 . S
C291 C290 1.385 . S
C291 C292 1.389 . S
C292 C291 1.389 . S
C292 C293 1.387 . S
C293 H278 0.930 . S
C293 C288 1.390 . S
C293 C292 1.387 . S
H294 C306 0.930 . S
H295 C308 0.930 . S
H296 C309 0.930 . S
H297 C313 0.959 . S
H298 C313 0.959 . S
H299 C313 0.961 . S
H300 C314 0.960 . S
H301 C314 0.961 . S
H302 C314 0.959 . S
H303 C317 0.929 1_556 S
H304 C318 0.931 . S
H305 C320 0.930 . S
C306 H294 0.930 . S
C306 C307 1.399 . S
C306 C311 1.399 . S
C307 C306 1.399 . S
C307 C308 1.376 . S
C308 H295 0.930 . S
C308 C307 1.376 . S
C308 C309 1.388 1_455 S
C309 H296 0.930 . S
C309 C308 1.388 1_655 S
C309 C310 1.390 1_655 S
C310 C309 1.390 1_455 S
C310 C311 1.394 . S
C310 C316 1.465 1_456 S
C311 C306 1.399 . S
C311 C310 1.394 . S
C311 C312 1.516 1_556 S
C312 C311 1.516 1_554 S
C312 C313 1.502 . S
C312 C314 1.561 . S
C312 C315 1.526 1_455 S
C313 H297 0.959 . S
C313 H298 0.959 . S
C313 H299 0.961 . S
C313 C312 1.502 . S
C314 H300 0.960 . S
C314 H301 0.961 . S
C314 H302 0.959 . S
C314 C312 1.561 . S
C315 C312 1.526 1_655 S
C315 C316 1.396 . S
C315 C320 1.390 . S
C316 C310 1.465 1_654 S
C316 C315 1.396 . S
C316 C317 1.399 . S
C317 H303 0.929 1_554 S
C317 C316 1.399 . S
C317 C318 1.385 . S
C318 H304 0.931 . S
C318 C317 1.385 . S
C318 C319 1.389 . S
C319 C318 1.389 . S
C319 C320 1.387 . S
C320 H305 0.930 . S
C320 C315 1.390 . S
C320 C319 1.387 . S
H321 C333 0.930 . S
H322 C335 0.930 . S
H323 C336 0.930 . S
H324 C340 0.959 . S
H325 C340 0.959 . S
H326 C340 0.961 . S
H327 C341 0.960 . S
H328 C341 0.961 . S
H329 C341 0.959 . S
H330 C344 0.929 . S
H331 C345 0.931 . S
H332 C347 0.930 . S
C333 H321 0.930 . S
C333 C334 1.399 . S
C333 C338 1.399 . S
C334 C333 1.399 . S
C334 C335 1.376 . S
C335 H322 0.930 . S
C335 C334 1.376 . S
C335 C336 1.388 . S
C336 H323 0.930 . S
C336 C335 1.388 . S
C336 C337 1.390 . S
C337 C336 1.390 . S
C337 C338 1.394 . S
C337 C343 1.465 1_545 S
C338 C333 1.399 . S
C338 C337 1.394 . S
C338 C339 1.516 1_545 S
C339 C338 1.516 1_565 S
C339 C340 1.502 . S
C339 C341 1.561 1_565 S
C339 C342 1.526 . S
C340 H324 0.959 . S
C340 H325 0.959 . S
C340 H326 0.961 . S
C340 C339 1.502 . S
C341 H327 0.960 . S
C341 H328 0.961 . S
C341 H329 0.959 . S
C341 C339 1.561 1_545 S
C342 C339 1.526 . S
C342 C343 1.396 . S
C342 C347 1.390 . S
C343 C337 1.465 1_565 S
C343 C342 1.396 . S
C343 C344 1.399 . S
C344 H330 0.929 . S
C344 C343 1.399 . S
C344 C345 1.385 . S
C345 H331 0.931 . S
C345 C344 1.385 . S
C345 C346 1.389 . S
C346 C345 1.389 . S
C346 C347 1.387 . S
C347 H332 0.930 . S
C347 C342 1.390 . S
C347 C346 1.387 . S
H348 C360 0.930 . S
H349 C362 0.930 . S
H350 C363 0.930 . S
H351 C367 0.959 . S
H352 C367 0.959 . S
H353 C367 0.961 1_556 S
H354 C368 0.960 . S
H355 C368 0.961 . S
H356 C368 0.959 . S
H357 C371 0.929 . S
H358 C372 0.931 . S
H359 C374 0.930 . S
C360 H348 0.930 . S
C360 C361 1.399 . S
C360 C365 1.399 . S
C361 C360 1.399 . S
C361 C362 1.376 . S
C362 H349 0.930 . S
C362 C361 1.376 . S
C362 C363 1.388 . S
C363 H350 0.930 . S
C363 C362 1.388 . S
C363 C364 1.390 . S
C364 C363 1.390 . S
C364 C365 1.394 . S
C364 C370 1.465 1_556 S
C365 C360 1.399 . S
C365 C364 1.394 . S
C365 C366 1.516 . S
C366 C365 1.516 . S
C366 C367 1.502 1_556 S
C366 C368 1.561 . S
C366 C369 1.526 1_556 S
C367 H351 0.959 . S
C367 H352 0.959 . S
C367 H353 0.961 1_554 S
C367 C366 1.502 1_554 S
C368 H354 0.960 . S
C368 H355 0.961 . S
C368 H356 0.959 . S
C368 C366 1.561 . S
C369 C366 1.526 1_554 S
C369 C370 1.396 . S
C369 C374 1.390 . S
C370 C364 1.465 1_554 S
C370 C369 1.396 . S
C370 C371 1.399 . S
C371 H357 0.929 . S
C371 C370 1.399 . S
C371 C372 1.385 . S
C372 H358 0.931 . S
C372 C371 1.385 . S
C372 C373 1.389 . S
C373 C372 1.389 . S
C373 C374 1.387 . S
C374 H359 0.930 . S
C374 C369 1.390 . S
C374 C373 1.387 . S
H375 C387 0.930 . S
H376 C389 0.930 . S
H377 C390 0.930 . S
H378 C394 0.959 . S
H379 C394 0.959 . S
H380 C394 0.961 . S
H381 C395 0.960 . S
H382 C395 0.961 . S
H383 C395 0.959 . S
H384 C398 0.929 . S
H385 C399 0.931 . S
H386 C401 0.930 . S
C387 H375 0.930 . S
C387 C388 1.399 . S
C387 C392 1.399 . S
C388 C387 1.399 . S
C388 C389 1.376 . S
C389 H376 0.930 . S
C389 C388 1.376 . S
C389 C390 1.388 1_455 S
C390 H377 0.930 . S
C390 C389 1.388 1_655 S
C390 C391 1.391 . S
C391 C390 1.391 . S
C391 C392 1.388 1_655 S
C391 C397 1.469 . S
C392 C387 1.399 . S
C392 C391 1.388 1_455 S
C392 C393 1.516 . S
C393 C392 1.516 . S
C393 C394 1.502 . S
C393 C395 1.561 . S
C393 C396 1.526 1_455 S
C394 H378 0.959 . S
C394 H379 0.959 . S
C394 H380 0.961 . S
C394 C393 1.502 . S
C395 H381 0.960 . S
C395 H382 0.961 . S
C395 H383 0.959 . S
C395 C393 1.561 . S
C396 C393 1.526 1_655 S
C396 C397 1.396 . S
C396 C401 1.390 . S
C397 C391 1.469 . S
C397 C396 1.396 . S
C397 C398 1.399 . S
C398 H384 0.929 . S
C398 C397 1.399 . S
C398 C399 1.385 . S
C399 H385 0.931 . S
C399 C398 1.385 . S
C399 C400 1.389 . S
C400 C399 1.389 . S
C400 C401 1.387 . S
C401 H386 0.930 . S
C401 C396 1.390 . S
C401 C400 1.387 . S
C91 C3 1.190 . S
C103 C57 1.158 . S
C118 C16 1.157 . S
C130 C68 1.124 . S
C145 C5 1.192 . S
C157 C29 1.135 . S
C172 C44 1.193 . S
C184 C18 1.141 . S
C199 C55 1.158 . S
C211 C31 1.189 . S
C226 C42 1.193 . S
C238 C70 1.145 . S
C253 C49 1.437 . S
C265 C10 1.435 . S
C280 C56 1.439 . S
C292 C23 1.439 . S
C307 C75 1.436 . S
C319 C36 1.433 . S
C334 C4 1.437 . S
C346 C43 1.439 . S
C361 C17 1.418 . S
C373 C62 1.418 . S
C388 C69 1.430 . S
C400 C30 1.427 . S
