# Generated by pormake.
# Topology sra, (4)-cn, num edge types: 1
# Building blocks:
#     Node 0, Type 0, BuildingBlock: AZAVOO_clean_sbu_0, # of connection points: 4
#     Node 1, Type 0, BuildingBlock: AZAVOO_clean_sbu_0, # of connection points: 4
#     Node 2, Type 0, BuildingBlock: AZAVOO_clean_sbu_0, # of connection points: 4
#     Node 3, Type 0, BuildingBlock: AZAVOO_clean_sbu_0, # of connection points: 4
#     Node 4, Type 0, BuildingBlock: AZAVOO_clean_sbu_0, # of connection points: 4
#     Node 5, Type 0, BuildingBlock: AZAVOO_clean_sbu_0, # of connection points: 4
#     Node 6, Type 0, BuildingBlock: AZAVOO_clean_sbu_0, # of connection points: 4
#     Node 7, Type 0, BuildingBlock: AZAVOO_clean_sbu_0, # of connection points: 4
#     Edge 8, Type (0, 0), BuildingBlock: XUDNAN_clean_linker_2, # of connection points: 2
#     Edge 9, Type (0, 0), BuildingBlock: XUDNAN_clean_linker_2, # of connection points: 2
#     Edge 10, Type (0, 0), BuildingBlock: XUDNAN_clean_linker_2, # of connection points: 2
#     Edge 11, Type (0, 0), BuildingBlock: XUDNAN_clean_linker_2, # of connection points: 2
#     Edge 12, Type (0, 0), BuildingBlock: XUDNAN_clean_linker_2, # of connection points: 2
#     Edge 13, Type (0, 0), BuildingBlock: XUDNAN_clean_linker_2, # of connection points: 2
#     Edge 14, Type (0, 0), BuildingBlock: XUDNAN_clean_linker_2, # of connection points: 2
#     Edge 15, Type (0, 0), BuildingBlock: XUDNAN_clean_linker_2, # of connection points: 2
#     Edge 16, Type (0, 0), BuildingBlock: XUDNAN_clean_linker_2, # of connection points: 2
#     Edge 17, Type (0, 0), BuildingBlock: XUDNAN_clean_linker_2, # of connection points: 2
#     Edge 18, Type (0, 0), BuildingBlock: XUDNAN_clean_linker_2, # of connection points: 2
#     Edge 19, Type (0, 0), BuildingBlock: XUDNAN_clean_linker_2, # of connection points: 2
#     Edge 20, Type (0, 0), BuildingBlock: XUDNAN_clean_linker_2, # of connection points: 2
#     Edge 21, Type (0, 0), BuildingBlock: XUDNAN_clean_linker_2, # of connection points: 2
#     Edge 22, Type (0, 0), BuildingBlock: XUDNAN_clean_linker_2, # of connection points: 2
#     Edge 23, Type (0, 0), BuildingBlock: XUDNAN_clean_linker_2, # of connection points: 2
# Relax obj value: 0.077
# Max RMSD: 0.074
# Mean RMSD: 0.074
data_MOF--net-sra--node1-AZAVOO_clean_sbu_0--edge1-XUDNAN_clean_linker_2
_symmetry_space_group_name_H-M    P1
_symmetry_Int_Tables_number       1
_symmetry_cell_setting            triclinic
loop_
_symmetry_equiv_pos_as_xyz
'x, y, z'
_cell_length_a     26.903485
_cell_length_b     39.102663
_cell_length_c     44.748872
_cell_angle_alpha  90.144641
_cell_angle_beta   90.230952
_cell_angle_gamma 89.925862
loop_
_atom_site_label
_atom_site_type_symbol
_atom_site_fract_x
_atom_site_fract_y
_atom_site_fract_z
_atom_type_partial_charge
Mg0 Mg 0.98715 0.04678 0.16578 0.0
O1 O 0.00676 0.10212 0.15148 0.0
O2 O 0.08601 0.09878 0.13653 0.0
Mg3 Mg 0.11598 0.04449 0.13987 0.0
C4 C 0.04653 0.11602 0.14155 0.0
C5 C 0.88332 0.02877 0.17688 0.0
O6 O 0.9104 0.00079 0.17591 0.0
O7 O 0.97939 0.03038 0.11679 0.0
O8 O 0.05972 0.026 0.10475 0.0
O9 O 0.01515 0.05858 0.21146 0.0
O10 O 0.06194 0.03759 0.17541 0.0
C11 C 0.01368 0.02255 0.09835 0.0
C12 C 0.05888 0.05039 0.20188 0.0
O13 O 0.90414 0.057 0.17049 0.0
Mg14 Mg 0.04834 0.44593 0.16303 0.0
O15 O 0.04502 0.38805 0.15425 0.0
O16 O 0.96796 0.37495 0.13914 0.0
Mg17 Mg 0.92247 0.42428 0.13709 0.0
C18 C 0.01242 0.36631 0.14575 0.0
C19 C 0.1577 0.47067 0.16288 0.0
O20 O 0.13476 0.49686 0.15068 0.0
O21 O 0.05247 0.45582 0.1125 0.0
O22 O 0.9731 0.44544 0.10048 0.0
O23 O 0.02072 0.43884 0.20965 0.0
O24 O 0.97168 0.44694 0.17072 0.0
C25 C 0.01687 0.45518 0.09349 0.0
C26 C 0.97614 0.441 0.19885 0.0
O27 O 0.13273 0.44404 0.16897 0.0
Mg28 Mg 0.05158 0.94346 0.82253 0.0
O29 O 0.05284 0.88461 0.82546 0.0
O30 O 0.12117 0.86982 0.85109 0.0
Mg31 Mg 0.15949 0.91805 0.86789 0.0
C32 C 0.08208 0.86205 0.83636 0.0
C33 C 0.97008 0.95812 0.77712 0.0
O34 O 0.00872 0.97535 0.76753 0.0
O35 O 0.02153 0.94697 0.87048 0.0
O36 O 0.09074 0.93236 0.89509 0.0
O37 O 0.1026 0.94176 0.78293 0.0
O38 O 0.12873 0.94553 0.82953 0.0
C39 C 0.04523 0.94173 0.89488 0.0
C40 C 0.13933 0.94258 0.80165 0.0
O41 O 0.9741 0.94152 0.80143 0.0
Mg42 Mg 0.97132 0.54194 0.81769 0.0
O43 O 0.98039 0.59955 0.82054 0.0
O44 O 0.91971 0.62402 0.8467 0.0
Mg45 Mg 0.86962 0.57952 0.86111 0.0
C46 C 0.9597 0.62597 0.8316 0.0
C47 C 0.06368 0.52357 0.7768 0.0
O48 O 0.03323 0.50079 0.76531 0.0
O49 O -0.00127 0.53668 0.86616 0.0
O50 O 0.93203 0.55702 0.89001 0.0
O51 O 0.92209 0.54666 0.77732 0.0
O52 O 0.8944 0.54671 0.82366 0.0
C53 C 0.97512 0.54321 0.89026 0.0
C54 C 0.88499 0.54912 0.79554 0.0
O55 O 0.04978 0.54145 0.799 0.0
Mg56 Mg 0.48934 0.54616 0.65851 0.0
O57 O 0.51219 0.60283 0.652 0.0
O58 O 0.59251 0.60242 0.63916 0.0
Mg59 Mg 0.61923 0.54755 0.63439 0.0
C60 C 0.55248 0.61844 0.64541 0.0
C61 C 0.37695 0.53664 0.66646 0.0
O62 O 0.39209 0.50504 0.66225 0.0
O63 O 0.48261 0.53895 0.60793 0.0
O64 O 0.56319 0.53955 0.59618 0.0
O65 O 0.51597 0.54887 0.70535 0.0
O66 O 0.56365 0.53337 0.66763 0.0
C67 C 0.51743 0.53708 0.5887 0.0
C68 C 0.55976 0.54131 0.6955 0.0
O69 O 0.40808 0.56084 0.66366 0.0
Mg70 Mg 0.53179 0.94925 0.6632 0.0
O71 O 0.53223 0.89109 0.65679 0.0
O72 O 0.4565 0.87453 0.64208 0.0
Mg73 Mg 0.40753 0.9224 0.63883 0.0
C74 C 0.50151 0.86778 0.64907 0.0
C75 C 0.63658 0.93432 0.68914 0.0
O76 O 0.60835 0.91683 0.70746 0.0
O77 O 0.53385 0.95681 0.61259 0.0
O78 O 0.45533 0.94375 0.60057 0.0
O79 O 0.50637 0.94339 0.71022 0.0
O80 O 0.45538 0.94817 0.67172 0.0
C81 C 0.49863 0.95441 0.59347 0.0
C82 C 0.46133 0.94344 0.69996 0.0
O83 O 0.61641 0.94977 0.66723 0.0
Mg84 Mg 0.55883 0.45375 0.31147 0.0
O85 O 0.5579 0.39541 0.31949 0.0
O86 O 0.62381 0.38414 0.34862 0.0
Mg87 Mg 0.66402 0.43333 0.36112 0.0
C88 C 0.58596 0.37445 0.33357 0.0
C89 C 0.47889 0.47549 0.26872 0.0
O90 O 0.51685 0.4961 0.26481 0.0
O91 O 0.52638 0.46373 0.35834 0.0
O92 O 0.59581 0.45451 0.3848 0.0
O93 O 0.61199 0.44708 0.2731 0.0
O94 O 0.63574 0.45528 0.31966 0.0
C95 C 0.55043 0.46386 0.38304 0.0
C96 C 0.64777 0.44931 0.2924 0.0
O97 O 0.48235 0.45255 0.28874 0.0
Mg98 Mg 0.46868 0.05368 0.31972 0.0
O99 O 0.48644 0.11069 0.32432 0.0
O100 O 0.42589 0.13627 0.35017 0.0
Mg101 Mg 0.36925 0.09505 0.36272 0.0
C102 C 0.46691 0.13732 0.33596 0.0
C103 C 0.56827 0.06211 0.28338 0.0
O104 O 0.54723 0.09117 0.27582 0.0
O105 O 0.49239 0.04502 0.3684 0.0
O106 O 0.4266 0.06718 0.39201 0.0
O107 O 0.4232 0.06247 0.27844 0.0
O108 O 0.39314 0.06447 0.32422 0.0
C109 C 0.46807 0.05119 0.3923 0.0
C110 C 0.38581 0.06778 0.29596 0.0
O111 O 0.54637 0.0424 0.30169 0.0
H112 H 0.95154 0.31013 0.14855 0.0
H113 H 0.1056 0.34029 0.13737 0.0
H114 H 0.12962 0.27959 0.13233 0.0
H115 H 0.97755 0.23659 0.19364 0.0
H116 H 0.92808 0.21114 0.17791 0.0
H117 H 0.92249 0.25702 0.17905 0.0
H118 H 0.90729 0.25789 0.12184 0.0
H119 H 0.9131 0.212 0.12051 0.0
H120 H 0.95209 0.23826 0.09731 0.0
H121 H 0.13696 0.21639 0.12817 0.0
H122 H 0.12924 0.15391 0.12969 0.0
H123 H 0.97066 0.16374 0.14604 0.0
C124 C 0.99028 0.30395 0.14482 0.0
C125 C 0.02672 0.32992 0.14313 0.0
C126 C 0.07712 0.32081 0.13876 0.0
C127 C 0.09106 0.28644 0.13572 0.0
C128 C 0.05424 0.26151 0.13741 0.0
C129 C 0.00497 0.26972 0.1422 0.0
C130 C 0.97327 0.23779 0.14469 0.0
C131 C 0.94893 0.23551 0.17567 0.0
C132 C 0.93412 0.23642 0.11958 0.0
C133 C 0.0125 0.21034 0.1406 0.0
C134 C 0.05877 0.22471 0.13606 0.0
C135 C 0.10097 0.20481 0.13174 0.0
C136 C 0.09604 0.16923 0.13258 0.0
C137 C 0.04927 0.1537 0.13803 0.0
C138 C 0.00689 0.17471 0.1418 0.0
H139 H 0.99173 0.82964 0.8389 0.0
H140 H 0.14884 0.81229 0.82356 0.0
H141 H 0.13303 0.75048 0.81732 0.0
H142 H 0.97468 0.7558 0.88373 0.0
H143 H 0.91299 0.74646 0.87015 0.0
H144 H 0.93537 0.78983 0.8702 0.0
H145 H 0.91701 0.7944 0.81347 0.0
H146 H 0.89446 0.75102 0.81326 0.0
H147 H 0.94353 0.76342 0.78822 0.0
H148 H 0.10124 0.69116 0.81373 0.0
H149 H 0.05666 0.63645 0.81706 0.0
H150 H 0.92038 0.69083 0.8385 0.0
C151 C 0.02251 0.81278 0.83372 0.0
C152 C 0.07142 0.82556 0.83135 0.0
C153 C 0.11113 0.80284 0.82535 0.0
C154 C 0.10248 0.7678 0.82166 0.0
C155 C 0.05399 0.75587 0.82446 0.0
C156 C 0.01467 0.77751 0.83065 0.0
C157 C 0.96693 0.75752 0.83494 0.0
C158 C 0.9463 0.76272 0.86664 0.0
C159 C 0.9282 0.76717 0.81104 0.0
C160 C 0.98576 0.7213 0.83044 0.0
C161 C 0.03592 0.72111 0.82391 0.0
C162 C 0.06195 0.69092 0.81881 0.0
C163 C 0.03619 0.65996 0.82071 0.0
C164 C 0.98501 0.65931 0.82812 0.0
C165 C 0.9595 0.69049 0.83291 0.0
H166 H 0.47367 0.66388 0.6456 0.0
H167 H 0.63503 0.65887 0.64606 0.0
H168 H 0.63913 0.72169 0.64703 0.0
H169 H 0.46443 0.7375 0.59726 0.0
H170 H 0.41194 0.75562 0.61658 0.0
H171 H 0.42124 0.70999 0.61632 0.0
H172 H 0.4199 0.70941 0.67421 0.0
H173 H 0.41059 0.75503 0.67465 0.0
H174 H 0.46218 0.73652 0.69474 0.0
H175 H 0.62649 0.78475 0.64914 0.0
H176 H 0.59749 0.84458 0.65017 0.0
H177 H 0.44443 0.80943 0.64663 0.0
C178 C 0.50984 0.676 0.64595 0.0
C179 C 0.554 0.65633 0.64576 0.0
C180 C 0.60061 0.67327 0.64605 0.0
C181 C 0.60341 0.709 0.64668 0.0
C182 C 0.55931 0.72758 0.64682 0.0
C183 C 0.51338 0.71178 0.64629 0.0
C184 C 0.47177 0.73797 0.6461 0.0
C185 C 0.44051 0.73509 0.61735 0.0
C186 C 0.4392 0.73452 0.6741 0.0
C187 C 0.50159 0.77085 0.64674 0.0
C188 C 0.552 0.76421 0.64731 0.0
C189 C 0.58709 0.79034 0.64856 0.0
C190 C 0.57022 0.82425 0.64919 0.0
C191 C 0.5187 0.83178 0.64834 0.0
C192 C 0.48407 0.80458 0.64704 0.0
H193 H 0.49598 0.34111 0.33423 0.0
H194 H 0.65509 0.32444 0.32848 0.0
H195 H 0.64141 0.26209 0.32606 0.0
H196 H 0.47341 0.27075 0.38306 0.0
H197 H 0.41421 0.25968 0.36673 0.0
H198 H 0.43587 0.3032 0.36539 0.0
H199 H 0.42624 0.30311 0.30775 0.0
H200 H 0.40445 0.25958 0.30892 0.0
H201 H 0.45701 0.27054 0.28602 0.0
H202 H 0.61105 0.20197 0.3242 0.0
H203 H 0.56619 0.14709 0.32732 0.0
H204 H 0.42704 0.20201 0.33827 0.0
C205 C 0.52774 0.32425 0.33208 0.0
C206 C 0.57655 0.33742 0.3313 0.0
C207 C 0.61742 0.31472 0.32912 0.0
C208 C 0.61003 0.27934 0.3276 0.0
C209 C 0.56155 0.26704 0.32873 0.0
C210 C 0.52108 0.28869 0.33124 0.0
C211 C 0.4732 0.26857 0.33407 0.0
C212 C 0.44769 0.276 0.3641 0.0
C213 C 0.43816 0.27589 0.30761 0.0
C214 C 0.49321 0.23233 0.33285 0.0
C215 C 0.54419 0.2321 0.32928 0.0
C216 C 0.57114 0.20176 0.32711 0.0
C217 C 0.54533 0.17074 0.32885 0.0
C218 C 0.49323 0.17031 0.33325 0.0
C219 C 0.46695 0.20157 0.33521 0.0
H220 H 0.34781 0.04847 0.24193 0.0
H221 H 0.31017 0.10227 0.32364 0.0
H222 H 0.22309 0.10661 0.30694 0.0
H223 H 0.25944 0.09451 0.19203 0.0
H224 H 0.24508 0.05625 0.17119 0.0
H225 H 0.30577 0.06152 0.18776 0.0
H226 H 0.29517 0.00399 0.21564 0.0
H227 H 0.23432 -0.00127 0.19947 0.0
H228 H 0.24207 0.99793 0.2395 0.0
H229 H 0.13897 0.10037 0.28373 0.0
H230 H 0.0638 0.08551 0.25472 0.0
H231 H 0.15571 0.03402 0.18892 0.0
C232 C 0.32151 0.06204 0.25588 0.0
C233 C 0.33574 0.07511 0.28407 0.0
C234 C 0.30008 0.0919 0.30208 0.0
C235 C 0.25051 0.09463 0.2927 0.0
C236 C 0.23726 0.0804 0.26527 0.0
C237 C 0.27173 0.06464 0.24699 0.0
C238 C 0.24707 0.04909 0.21969 0.0
C239 C 0.26543 0.06639 0.19097 0.0
C240 C 0.25514 0.01013 0.21853 0.0
C241 C 0.19329 0.05792 0.22586 0.0
C242 C 0.1885 0.0763 0.25209 0.0
C243 C 0.14227 0.08633 0.26297 0.0
C244 C 0.09979 0.07759 0.24642 0.0
C245 C 0.10387 0.05884 0.21941 0.0
C246 C 0.15132 0.04883 0.20917 0.0
H247 H 0.68638 0.44257 0.23589 0.0
H248 H 0.72913 0.4464 0.32947 0.0
H249 H 0.81646 0.43884 0.31572 0.0
H250 H 0.78139 0.38167 0.21071 0.0
H251 H 0.79216 0.40413 0.17622 0.0
H252 H 0.73173 0.4056 0.19342 0.0
H253 H 0.73486 0.47186 0.19376 0.0
H254 H 0.79512 0.47057 0.1765 0.0
H255 H 0.78677 0.4932 0.21126 0.0
H256 H 0.8999 0.43314 0.29208 0.0
H257 H 0.97397 0.43473 0.2597 0.0
H258 H 0.87803 0.43943 0.18155 0.0
C259 C 0.714 0.4412 0.25351 0.0
C260 C 0.70038 0.44403 0.28388 0.0
C261 C 0.73796 0.44319 0.30616 0.0
C262 C 0.788 0.43903 0.29856 0.0
C263 C 0.80015 0.43629 0.2685 0.0
C264 C 0.76438 0.43772 0.24627 0.0
C265 C 0.78795 0.43732 0.2156 0.0
C266 C 0.77237 0.40527 0.19795 0.0
C267 C 0.77544 0.4702 0.19827 0.0
C268 C 0.84245 0.43593 0.22417 0.0
C269 C 0.84863 0.43473 0.25478 0.0
C270 C 0.89558 0.43393 0.26804 0.0
C271 C 0.93742 0.43482 0.24947 0.0
C272 C 0.93194 0.43699 0.21805 0.0
C273 C 0.88371 0.43731 0.20538 0.0
H274 H 0.17423 0.93918 0.74404 0.0
H275 H 0.22303 0.9396 0.83664 0.0
H276 H 0.30978 0.93457 0.82046 0.0
H277 H 0.26929 0.8809 0.7149 0.0
H278 H 0.2769 0.90467 0.68076 0.0
H279 H 0.21772 0.9046 0.6995 0.0
H280 H 0.21877 0.97085 0.70149 0.0
H281 H 0.2778 0.97111 0.68272 0.0
H282 H 0.27114 0.99243 0.71824 0.0
H283 H 0.39153 0.93186 0.79463 0.0
H284 H 0.46321 0.93569 0.7606 0.0
H285 H 0.36226 0.9407 0.68476 0.0
C286 C 0.20309 0.93768 0.76092 0.0
C287 C 0.19148 0.93888 0.79169 0.0
C288 C 0.23053 0.93775 0.81301 0.0
C289 C 0.28015 0.93502 0.80403 0.0
C290 C 0.29031 0.93387 0.77361 0.0
C291 C 0.25301 0.93546 0.75233 0.0
C292 C 0.27442 0.93646 0.72107 0.0
C293 C 0.25864 0.90477 0.703 0.0
C294 C 0.25966 0.96969 0.70494 0.0
C295 C 0.3295 0.93566 0.72822 0.0
C296 C 0.3378 0.93365 0.75863 0.0
C297 C 0.38557 0.93328 0.77074 0.0
C298 C 0.42604 0.93547 0.75122 0.0
C299 C 0.41844 0.93835 0.71999 0.0
C300 C 0.36944 0.93815 0.70844 0.0
H301 H 0.65804 0.5295 0.68141 0.0
H302 H 0.56156 0.56192 0.75377 0.0
H303 H 0.63477 0.57004 0.78625 0.0
H304 H 0.74529 0.48352 0.72597 0.0
H305 H 0.79871 0.49659 0.70468 0.0
H306 H 0.73873 0.49371 0.68688 0.0
H307 H 0.74608 0.55679 0.66984 0.0
H308 H 0.80606 0.55991 0.68771 0.0
H309 H 0.75747 0.58973 0.69728 0.0
H310 H 0.71707 0.57241 0.8114 0.0
H311 H 0.80387 0.56902 0.82801 0.0
H312 H 0.84866 0.53816 0.73883 0.0
C313 C 0.65224 0.53862 0.70395 0.0
C314 C 0.60397 0.5453 0.71494 0.0
C315 C 0.59812 0.55666 0.7448 0.0
C316 C 0.63948 0.56147 0.76342 0.0
C317 C 0.68649 0.55501 0.75179 0.0
C318 C 0.6932 0.54388 0.72278 0.0
C319 C 0.74784 0.53841 0.71604 0.0
C320 C 0.75824 0.50082 0.70792 0.0
C321 C 0.76539 0.56266 0.69125 0.0
C322 C 0.77067 0.54782 0.74596 0.0
C323 C 0.73449 0.5573 0.76619 0.0
C324 C 0.74586 0.56545 0.79569 0.0
C325 C 0.79552 0.56351 0.80491 0.0
C326 C 0.83342 0.55383 0.78468 0.0
C327 C 0.82071 0.54628 0.7547 0.0
H328 H 0.68884 0.90963 0.73728 0.0
H329 H 0.7054 0.96953 0.65633 0.0
H330 H 0.79308 0.98071 0.66956 0.0
H331 H 0.76103 0.96291 0.78409 0.0
H332 H 0.78864 0.92848 0.80513 0.0
H333 H 0.72816 0.92309 0.78843 0.0
H334 H 0.75907 0.86917 0.76027 0.0
H335 H 0.8196 0.87423 0.77709 0.0
H336 H 0.81345 0.87199 0.737 0.0
H337 H 0.87717 0.98804 0.69283 0.0
H338 H 0.95321 0.98953 0.72363 0.0
H339 H 0.8822 0.92489 0.78968 0.0
C340 C 0.71102 0.92473 0.72209 0.0
C341 C 0.69021 0.93868 0.69571 0.0
C342 C 0.7205 0.95852 0.67662 0.0
C343 C 0.77034 0.96503 0.68395 0.0
C344 C 0.78936 0.95144 0.7104 0.0
C345 C 0.76079 0.93151 0.72909 0.0
C346 C 0.78987 0.92082 0.75663 0.0
C347 C 0.76546 0.93466 0.78525 0.0
C348 C 0.79585 0.88173 0.7578 0.0
C349 C 0.83907 0.93827 0.7507 0.0
C350 C 0.83797 0.95568 0.72386 0.0
C351 C 0.87859 0.97432 0.7138 0.0
C352 C 0.9216 0.97507 0.73154 0.0
C353 C 0.92377 0.95732 0.75911 0.0
C354 C 0.88179 0.93869 0.76873 0.0
H355 H 0.29938 0.49168 0.6723 0.0
H356 H 0.34386 0.59606 0.69206 0.0
H357 H 0.26749 0.6042 0.72155 0.0
H358 H 0.16452 0.50985 0.66637 0.0
H359 H 0.14791 0.46965 0.6832 0.0
H360 H 0.20414 0.47302 0.66168 0.0
H361 H 0.25469 0.45033 0.70688 0.0
H362 H 0.19881 0.44741 0.72871 0.0
H363 H 0.25064 0.4722 0.74231 0.0
H364 H 0.192 0.59888 0.75358 0.0
H365 H 0.11601 0.58309 0.78085 0.0
H366 H 0.1178 0.48307 0.7385 0.0
C367 C 0.29259 0.51648 0.68231 0.0
C368 C 0.32767 0.54322 0.6799 0.0
C369 C 0.31746 0.57524 0.69345 0.0
C370 C 0.27428 0.58008 0.71037 0.0
C371 C 0.24133 0.55283 0.71315 0.0
C372 C 0.24937 0.52188 0.699 0.0
C373 C 0.20846 0.49656 0.70608 0.0
C374 C 0.17954 0.4867 0.67764 0.0
C375 C 0.22943 0.46476 0.72194 0.0
C376 C 0.17683 0.51786 0.72699 0.0
C377 C 0.19667 0.55016 0.73087 0.0
C378 C 0.17567 0.57386 0.75037 0.0
C379 C 0.13273 0.56452 0.76594 0.0
C380 C 0.11091 0.53188 0.7617 0.0
C381 C 0.13341 0.50829 0.74198 0.0
H382 H 0.63577 0.10161 0.25303 0.0
H383 H 0.60502 0.99715 0.27991 0.0
H384 H 0.67922 0.97745 0.25264 0.0
H385 H 0.6823 0.08269 0.17925 0.0
H386 H 0.73064 0.11454 0.18066 0.0
H387 H 0.67419 0.12075 0.20153 0.0
H388 H 0.72527 0.12815 0.25032 0.0
H389 H 0.78185 0.12233 0.22955 0.0
H390 H 0.76887 0.09535 0.26117 0.0
H391 H 0.75486 0.96871 0.222 0.0
H392 H 0.83367 0.97182 0.19462 0.0
H393 H 0.81887 0.08229 0.18897 0.0
C394 C 0.64469 0.0746 0.25315 0.0
C395 C 0.61448 0.05087 0.26849 0.0
C396 C 0.62765 0.01579 0.2684 0.0
C397 C 0.66953 0.00432 0.25281 0.0
C398 C 0.69815 0.02827 0.23765 0.0
C399 C 0.68685 0.06273 0.23801 0.0
C400 C 0.72533 0.08319 0.22098 0.0
C401 C 0.70169 0.10136 0.19401 0.0
C402 C 0.75191 0.10876 0.24175 0.0
C403 C 0.76006 0.05479 0.21107 0.0
C404 C 0.74313 0.02332 0.22063 0.0
C405 C 0.76863 0.99319 0.21447 0.0
C406 C 0.8134 0.99528 0.1988 0.0
C407 C 0.83267 0.02732 0.18969 0.0
C408 C 0.80507 0.05742 0.19551 0.0
H409 H 0.20917 0.43002 0.20264 0.0
H410 H 0.2242 0.51957 0.14623 0.0
H411 H 0.3086 0.5291 0.16623 0.0
H412 H 0.26904 0.46514 0.26601 0.0
H413 H 0.29982 0.42617 0.27705 0.0
H414 H 0.24211 0.42429 0.2566 0.0
H415 H 0.28361 0.38667 0.216 0.0
H416 H 0.34138 0.38816 0.23648 0.0
H417 H 0.33934 0.40153 0.19797 0.0
H418 H 0.38883 0.53099 0.19394 0.0
H419 H 0.46149 0.52463 0.22696 0.0
H420 H 0.39516 0.43432 0.26661 0.0
C421 C 0.23059 0.45124 0.19407 0.0
C422 C 0.21014 0.47397 0.1727 0.0
C423 C 0.23907 0.50179 0.1625 0.0
C424 C 0.28707 0.50742 0.17373 0.0
C425 C 0.30567 0.48503 0.19521 0.0
C426 C 0.27856 0.4574 0.20523 0.0
C427 C 0.30664 0.43818 0.22946 0.0
C428 C 0.27767 0.43848 0.25903 0.0
C429 C 0.31844 0.40146 0.21937 0.0
C430 C 0.35348 0.45961 0.23172 0.0
C431 C 0.3521 0.48637 0.2116 0.0
C432 C 0.3905 0.51003 0.20965 0.0
C433 C 0.43164 0.50619 0.22861 0.0
C434 C 0.43419 0.47895 0.24943 0.0
C435 C 0.39438 0.4554 0.25097 0.0
H436 H 0.06702 0.97615 0.06722 0.0
H437 H 0.93257 0.03706 0.06255 0.0
H438 H 0.91872 0.01711 0.01037 0.0
H439 H 0.11019 0.9929 -0.00298 0.0
H440 H 0.13479 0.95069 -0.0097 0.0
H441 H 0.12957 0.96642 0.02789 0.0
H442 H 0.07652 0.91358 0.04209 0.0
H443 H 0.08161 0.89763 0.0044 0.0
H444 H 0.02122 0.90381 0.02086 0.0
H445 H 0.92755 0.99607 0.95594 0.0
H446 H 0.95671 0.9755 0.90652 0.0
H447 H 0.08277 0.92671 0.94973 0.0
C448 C 0.03415 0.98487 0.05542 0.0
C449 C 0.00098 0.00824 0.06872 0.0
C450 C 0.95828 0.01898 0.05268 0.0
C451 C 0.95019 0.00777 0.0231 0.0
C452 C 0.98454 0.98526 0.01035 0.0
C453 C 0.02523 0.97357 0.02634 0.0
C454 C 0.05851 0.95122 0.00752 0.0
C455 C 0.11134 0.96622 0.00557 0.0
C456 C 0.05949 0.91438 0.01943 0.0
C457 C 0.03161 0.95326 0.97794 0.0
C458 C 0.98873 0.97264 0.97982 0.0
C459 C 0.96052 0.98029 0.95441 0.0
C460 C 0.9773 0.96847 0.92642 0.0
C461 C 0.02203 0.94944 0.92417 0.0
C462 C 0.0483 0.94102 0.95052 0.0
H463 H 0.92291 0.53447 0.94132 0.0
H464 H 0.07168 0.52467 0.90519 0.0
H465 H 0.10124 0.50263 0.95422 0.0
H466 H 0.95607 0.55986 0.01609 0.0
H467 H 0.90664 0.53522 0.03247 0.0
H468 H 0.89948 0.55234 -0.00461 0.0
H469 H 0.88072 0.49148 0.97509 0.0
H470 H 0.88809 0.47415 0.01204 0.0
H471 H 0.92478 0.45751 0.98167 0.0
H472 H 0.11291 0.48098 0.00886 0.0
H473 H 0.10405 0.45937 0.06083 0.0
H474 H 0.94611 0.48138 0.05709 0.0
C475 C 0.96198 0.52828 0.94364 0.0
C476 C -0.00487 0.53174 0.91949 0.0
C477 C 0.04567 0.52245 0.92348 0.0
C478 C 0.06273 0.50996 0.95124 0.0
C479 C 0.02862 0.50661 0.97452 0.0
C480 C 0.97922 0.51539 0.97072 0.0
C481 C 0.94883 0.5078 -0.00186 0.0
C482 C 0.92646 0.54077 0.0113 0.0
C483 C 0.90824 0.48115 -0.00869 0.0
C484 C 0.98866 0.4933 0.01821 0.0
C485 C 0.03469 0.49303 0.0046 0.0
C486 C 0.07691 0.48099 0.01957 0.0
C487 C 0.07162 0.4688 0.04904 0.0
C488 C 0.02431 0.46829 0.06284 0.0
C489 C 0.98269 0.48088 0.04707 0.0
H490 H 0.59746 0.50399 0.42257 0.0
H491 H 0.45497 0.45624 0.40538 0.0
H492 H 0.42553 0.4757 0.45536 0.0
H493 H 0.60983 0.47995 0.49537 0.0
H494 H 0.6393 0.51886 0.50781 0.0
H495 H 0.64519 0.50548 0.46958 0.0
H496 H 0.60954 0.56366 0.45172 0.0
H497 H 0.60379 0.57737 0.49003 0.0
H498 H 0.55033 0.57813 0.46563 0.0
H499 H 0.41731 0.4949 0.51074 0.0
H500 H 0.43054 0.51188 0.56368 0.0
H501 H 0.57878 0.54692 0.5416 0.0
C502 C 0.55966 0.49811 0.42906 0.0
C503 C 0.52847 0.47852 0.41037 0.0
C504 C 0.47925 0.47144 0.41946 0.0
C505 C 0.46239 0.48237 0.44775 0.0
C506 C 0.49501 0.50084 0.46612 0.0
C507 C 0.54243 0.50899 0.45674 0.0
C508 C 0.57206 0.52689 0.48077 0.0
C509 C 0.61934 0.50656 0.48885 0.0
C510 C 0.58465 0.5637 0.47148 0.0
C511 C 0.53485 0.52643 0.50583 0.0
C512 C 0.49028 0.5118 0.49712 0.0
C513 C 0.45182 0.50685 0.51754 0.0
C514 C 0.45963 0.51658 0.54756 0.0
C515 C 0.50576 0.53065 0.55679 0.0
C516 C 0.54309 0.53623 0.53535 0.0
H517 H 0.42762 0.97638 0.5547 0.0
H518 H 0.5869 0.96145 0.56279 0.0
H519 H 0.59788 0.98425 0.5115 0.0
H520 H 0.41493 0.95471 0.47707 0.0
H521 H 0.36867 0.98721 0.47035 0.0
H522 H 0.37425 0.96816 0.50679 0.0
H523 H 0.3855 0.02837 0.53032 0.0
H524 H 0.38027 0.04758 0.49393 0.0
H525 H 0.43418 0.0559 0.51686 0.0
H526 H 0.58964 0.00813 0.45789 0.0
H527 H 0.5636 0.03351 0.40942 0.0
H528 H 0.41084 0.03546 0.44003 0.0
C529 C 0.46486 0.97745 0.54565 0.0
C530 C 0.50636 0.96674 0.56258 0.0
C531 C 0.55454 0.96938 0.5501 0.0
C532 C 0.56109 0.98225 0.52101 0.0
C533 C 0.51915 0.99279 0.505 0.0
C534 C 0.47206 0.99071 0.51711 0.0
C535 C 0.43303 0.00492 0.49623 0.0
C536 C 0.39553 0.97709 0.48707 0.0
C537 C 0.40672 0.03604 0.51017 0.0
C538 C 0.4653 0.01528 0.47029 0.0
C539 C 0.51482 0.00785 0.47541 0.0
C540 C 0.55098 0.01429 0.45382 0.0
C541 C 0.53592 0.02867 0.42639 0.0
C542 C 0.48534 0.0369 0.42113 0.0
C543 C 0.44995 0.03011 0.44352 0.0
loop_
_geom_bond_atom_site_label_1
_geom_bond_atom_site_label_2
_geom_bond_distance
_geom_bond_site_symmetry_2
_ccdc_geom_bond_type
Mg0 O1 2.028 . S
Mg0 O7 1.986 . S
Mg0 O9 2.114 . S
Mg0 O10 2.251 . S
Mg0 O13 2.010 1_455 S
O1 Mg0 2.028 . S
O1 C4 1.250 . S
O2 Mg3 2.028 . S
O2 C4 1.248 . S
Mg3 O2 2.028 . S
Mg3 O8 2.032 . S
Mg3 O10 2.079 . S
C4 O1 1.250 . S
C4 O2 1.248 . S
C5 O6 1.264 . S
C5 O13 1.249 . S
O6 C5 1.264 . S
O7 Mg0 1.986 . S
O7 C11 1.246 . S
O8 Mg3 2.032 . S
O8 C11 1.259 . S
O9 Mg0 2.114 . S
O9 C12 1.252 . S
O10 Mg0 2.251 . S
O10 Mg3 2.079 . S
O10 C12 1.273 . S
C11 O7 1.246 . S
C11 O8 1.259 . S
C12 O9 1.252 . S
C12 O10 1.273 . S
O13 Mg0 2.010 1_655 S
O13 C5 1.249 . S
Mg14 O15 2.028 . S
Mg14 O21 1.986 . S
Mg14 O23 2.114 1_455 S
Mg14 O24 2.251 1_455 S
Mg14 O27 2.010 . S
O15 Mg14 2.028 . S
O15 C18 1.250 . S
O16 Mg17 2.028 . S
O16 C18 1.248 1_655 S
Mg17 O16 2.028 . S
Mg17 O22 2.032 . S
Mg17 O24 2.079 . S
C18 O15 1.250 . S
C18 O16 1.248 1_455 S
C19 O20 1.264 . S
C19 O27 1.249 . S
O20 C19 1.264 . S
O21 Mg14 1.986 . S
O21 C25 1.246 . S
O22 Mg17 2.032 . S
O22 C25 1.259 1_655 S
O23 Mg14 2.114 1_655 S
O23 C26 1.252 . S
O24 Mg14 2.251 1_655 S
O24 Mg17 2.079 . S
O24 C26 1.273 . S
C25 O21 1.246 . S
C25 O22 1.259 1_455 S
C26 O23 1.252 . S
C26 O24 1.273 . S
O27 Mg14 2.010 . S
O27 C19 1.249 . S
Mg28 O29 2.028 . S
Mg28 O35 1.986 . S
Mg28 O37 2.114 . S
Mg28 O38 2.251 . S
Mg28 O41 2.010 1_455 S
O29 Mg28 2.028 . S
O29 C32 1.250 . S
O30 Mg31 2.028 . S
O30 C32 1.248 . S
Mg31 O30 2.028 . S
Mg31 O36 2.032 . S
Mg31 O38 2.079 . S
C32 O29 1.250 . S
C32 O30 1.248 . S
C33 O34 1.264 . S
C33 O41 1.249 . S
O34 C33 1.264 . S
O35 Mg28 1.986 . S
O35 C39 1.246 . S
O36 Mg31 2.032 . S
O36 C39 1.259 . S
O37 Mg28 2.114 . S
O37 C40 1.252 . S
O38 Mg28 2.251 . S
O38 Mg31 2.079 . S
O38 C40 1.273 . S
C39 O35 1.246 . S
C39 O36 1.259 . S
C40 O37 1.252 . S
C40 O38 1.273 . S
O41 Mg28 2.010 1_655 S
O41 C33 1.249 . S
Mg42 O43 2.028 . S
Mg42 O49 1.986 . S
Mg42 O51 2.114 1_455 S
Mg42 O52 2.251 1_455 S
Mg42 O55 2.010 . S
O43 Mg42 2.028 . S
O43 C46 1.250 . S
O44 Mg45 2.028 . S
O44 C46 1.248 1_655 S
Mg45 O44 2.028 . S
Mg45 O50 2.032 . S
Mg45 O52 2.079 . S
C46 O43 1.250 . S
C46 O44 1.248 1_455 S
C47 O48 1.264 . S
C47 O55 1.249 . S
O48 C47 1.264 . S
O49 Mg42 1.986 . S
O49 C53 1.246 . S
O50 Mg45 2.032 . S
O50 C53 1.259 1_655 S
O51 Mg42 2.114 1_655 S
O51 C54 1.252 . S
O52 Mg42 2.251 1_655 S
O52 Mg45 2.079 . S
O52 C54 1.273 . S
C53 O49 1.246 . S
C53 O50 1.259 1_455 S
C54 O51 1.252 . S
C54 O52 1.273 . S
O55 Mg42 2.010 . S
O55 C47 1.249 . S
Mg56 O57 2.028 . S
Mg56 O63 1.986 . S
Mg56 O65 2.114 . S
Mg56 O66 2.251 . S
Mg56 O69 2.010 . S
O57 Mg56 2.028 . S
O57 C60 1.250 . S
O58 Mg59 2.028 . S
O58 C60 1.248 . S
Mg59 O58 2.028 . S
Mg59 O64 2.032 . S
Mg59 O66 2.079 . S
C60 O57 1.250 . S
C60 O58 1.248 . S
C61 O62 1.264 . S
C61 O69 1.249 . S
O62 C61 1.264 . S
O63 Mg56 1.986 . S
O63 C67 1.246 . S
O64 Mg59 2.032 . S
O64 C67 1.259 . S
O65 Mg56 2.114 . S
O65 C68 1.252 . S
O66 Mg56 2.251 . S
O66 Mg59 2.079 . S
O66 C68 1.273 . S
C67 O63 1.246 . S
C67 O64 1.259 . S
C68 O65 1.252 . S
C68 O66 1.273 . S
O69 Mg56 2.010 . S
O69 C61 1.249 . S
Mg70 O71 2.028 . S
Mg70 O77 1.986 . S
Mg70 O79 2.114 . S
Mg70 O80 2.251 . S
Mg70 O83 2.010 . S
O71 Mg70 2.028 . S
O71 C74 1.250 . S
O72 Mg73 2.028 . S
O72 C74 1.248 . S
Mg73 O72 2.028 . S
Mg73 O78 2.032 . S
Mg73 O80 2.079 . S
C74 O71 1.250 . S
C74 O72 1.248 . S
C75 O76 1.264 . S
C75 O83 1.249 . S
O76 C75 1.264 . S
O77 Mg70 1.986 . S
O77 C81 1.246 . S
O78 Mg73 2.032 . S
O78 C81 1.259 . S
O79 Mg70 2.114 . S
O79 C82 1.252 . S
O80 Mg70 2.251 . S
O80 Mg73 2.079 . S
O80 C82 1.273 . S
C81 O77 1.246 . S
C81 O78 1.259 . S
C82 O79 1.252 . S
C82 O80 1.273 . S
O83 Mg70 2.010 . S
O83 C75 1.249 . S
Mg84 O85 2.028 . S
Mg84 O91 1.986 . S
Mg84 O93 2.114 . S
Mg84 O94 2.251 . S
Mg84 O97 2.010 . S
O85 Mg84 2.028 . S
O85 C88 1.250 . S
O86 Mg87 2.028 . S
O86 C88 1.248 . S
Mg87 O86 2.028 . S
Mg87 O92 2.032 . S
Mg87 O94 2.079 . S
C88 O85 1.250 . S
C88 O86 1.248 . S
C89 O90 1.264 . S
C89 O97 1.249 . S
O90 C89 1.264 . S
O91 Mg84 1.986 . S
O91 C95 1.246 . S
O92 Mg87 2.032 . S
O92 C95 1.259 . S
O93 Mg84 2.114 . S
O93 C96 1.252 . S
O94 Mg84 2.251 . S
O94 Mg87 2.079 . S
O94 C96 1.273 . S
C95 O91 1.246 . S
C95 O92 1.259 . S
C96 O93 1.252 . S
C96 O94 1.273 . S
O97 Mg84 2.010 . S
O97 C89 1.249 . S
Mg98 O99 2.028 . S
Mg98 O105 1.986 . S
Mg98 O107 2.114 . S
Mg98 O108 2.251 . S
Mg98 O111 2.010 . S
O99 Mg98 2.028 . S
O99 C102 1.250 . S
O100 Mg101 2.028 . S
O100 C102 1.248 . S
Mg101 O100 2.028 . S
Mg101 O106 2.032 . S
Mg101 O108 2.079 . S
C102 O99 1.250 . S
C102 O100 1.248 . S
C103 O104 1.264 . S
C103 O111 1.249 . S
O104 C103 1.264 . S
O105 Mg98 1.986 . S
O105 C109 1.246 . S
O106 Mg101 2.032 . S
O106 C109 1.259 . S
O107 Mg98 2.114 . S
O107 C110 1.252 . S
O108 Mg98 2.251 . S
O108 Mg101 2.079 . S
O108 C110 1.273 . S
C109 O105 1.246 . S
C109 O106 1.259 . S
C110 O107 1.252 . S
C110 O108 1.273 . S
O111 Mg98 2.010 . S
O111 C103 1.249 . S
H112 C124 0.930 . S
H113 C126 0.930 . S
H114 C127 0.930 . S
H115 C131 0.959 . S
H116 C131 0.959 . S
H117 C131 0.961 . S
H118 C132 0.960 . S
H119 C132 0.961 . S
H120 C132 0.959 . S
H121 C135 0.929 . S
H122 C136 0.931 . S
H123 C138 0.930 . S
C124 H112 0.930 . S
C124 C125 1.399 1_655 S
C124 C129 1.399 . S
C125 C124 1.399 1_455 S
C125 C126 1.376 . S
C126 H113 0.930 . S
C126 C125 1.376 . S
C126 C127 1.388 . S
C127 H114 0.930 . S
C127 C126 1.388 . S
C127 C128 1.390 . S
C128 C127 1.390 . S
C128 C129 1.394 1_455 S
C128 C134 1.465 . S
C129 C124 1.399 . S
C129 C128 1.394 1_655 S
C129 C130 1.516 . S
C130 C129 1.516 . S
C130 C131 1.502 . S
C130 C132 1.561 . S
C130 C133 1.526 1_655 S
C131 H115 0.959 . S
C131 H116 0.959 . S
C131 H117 0.961 . S
C131 C130 1.502 . S
C132 H118 0.960 . S
C132 H119 0.961 . S
C132 H120 0.959 . S
C132 C130 1.561 . S
C133 C130 1.526 1_455 S
C133 C134 1.396 . S
C133 C138 1.390 1_455 S
C134 C128 1.465 . S
C134 C133 1.396 . S
C134 C135 1.399 . S
C135 H121 0.929 . S
C135 C134 1.399 . S
C135 C136 1.385 . S
C136 H122 0.931 . S
C136 C135 1.385 . S
C136 C137 1.389 . S
C137 C136 1.389 . S
C137 C138 1.387 1_455 S
C138 H123 0.930 . S
C138 C133 1.390 1_655 S
C138 C137 1.387 1_655 S
H139 C151 0.923 1_655 S
H140 C153 0.930 . S
H141 C154 0.930 . S
H142 C158 0.959 . S
H143 C158 0.959 . S
H144 C158 0.961 . S
H145 C159 0.960 . S
H146 C159 0.961 . S
H147 C159 0.959 . S
H148 C162 0.929 . S
H149 C163 0.931 . S
H150 C165 0.930 1_655 S
C151 H139 0.923 1_455 S
C151 C152 1.399 . S
C151 C156 1.399 . S
C152 C151 1.399 . S
C152 C153 1.376 . S
C153 H140 0.930 . S
C153 C152 1.376 . S
C153 C154 1.388 . S
C154 H141 0.930 . S
C154 C153 1.388 . S
C154 C155 1.390 . S
C155 C154 1.390 . S
C155 C156 1.394 . S
C155 C161 1.465 . S
C156 C151 1.399 . S
C156 C155 1.394 . S
C156 C157 1.516 . S
C157 C156 1.516 . S
C157 C158 1.502 1_455 S
C157 C159 1.561 . S
C157 C160 1.526 . S
C158 H142 0.959 . S
C158 H143 0.959 . S
C158 H144 0.961 . S
C158 C157 1.502 1_655 S
C159 H145 0.960 . S
C159 H146 0.961 . S
C159 H147 0.959 . S
C159 C157 1.561 . S
C160 C157 1.526 . S
C160 C161 1.396 . S
C160 C165 1.390 . S
C161 C155 1.465 . S
C161 C160 1.396 . S
C161 C162 1.399 . S
C162 H148 0.929 . S
C162 C161 1.399 . S
C162 C163 1.385 . S
C163 H149 0.931 . S
C163 C162 1.385 . S
C163 C164 1.389 . S
C164 C163 1.389 . S
C164 C165 1.387 . S
C165 H150 0.930 1_455 S
C165 C160 1.390 . S
C165 C164 1.387 . S
H166 C178 0.930 . S
H167 C180 0.930 . S
H168 C181 0.930 . S
H169 C185 0.959 . S
H170 C185 0.959 . S
H171 C185 0.961 . S
H172 C186 0.960 . S
H173 C186 0.961 . S
H174 C186 0.959 . S
H175 C189 0.929 . S
H176 C190 0.931 . S
H177 C192 0.930 . S
C178 H166 0.930 . S
C178 C179 1.399 . S
C178 C183 1.399 . S
C179 C178 1.399 . S
C179 C180 1.376 . S
C180 H167 0.930 . S
C180 C179 1.376 . S
C180 C181 1.388 . S
C181 H168 0.930 . S
C181 C180 1.388 . S
C181 C182 1.390 . S
C182 C181 1.390 . S
C182 C183 1.394 . S
C182 C188 1.465 . S
C183 C178 1.399 . S
C183 C182 1.394 . S
C183 C184 1.516 . S
C184 C183 1.516 . S
C184 C185 1.502 . S
C184 C186 1.561 . S
C184 C187 1.526 . S
C185 H169 0.959 . S
C185 H170 0.959 . S
C185 H171 0.961 . S
C185 C184 1.502 . S
C186 H172 0.960 . S
C186 H173 0.961 . S
C186 H174 0.959 . S
C186 C184 1.561 . S
C187 C184 1.526 . S
C187 C188 1.396 . S
C187 C192 1.390 . S
C188 C182 1.465 . S
C188 C187 1.396 . S
C188 C189 1.399 . S
C189 H175 0.929 . S
C189 C188 1.399 . S
C189 C190 1.385 . S
C190 H176 0.931 . S
C190 C189 1.385 . S
C190 C191 1.389 . S
C191 C190 1.389 . S
C191 C192 1.387 . S
C192 H177 0.930 . S
C192 C187 1.390 . S
C192 C191 1.387 . S
H193 C205 0.930 . S
H194 C207 0.930 . S
H195 C208 0.930 . S
H196 C212 0.959 . S
H197 C212 0.959 . S
H198 C212 0.961 . S
H199 C213 0.960 . S
H200 C213 0.961 . S
H201 C213 0.959 . S
H202 C216 0.929 . S
H203 C217 0.931 . S
H204 C219 0.930 . S
C205 H193 0.930 . S
C205 C206 1.399 . S
C205 C210 1.399 . S
C206 C205 1.399 . S
C206 C207 1.376 . S
C207 H194 0.930 . S
C207 C206 1.376 . S
C207 C208 1.388 . S
C208 H195 0.930 . S
C208 C207 1.388 . S
C208 C209 1.390 . S
C209 C208 1.390 . S
C209 C210 1.394 . S
C209 C215 1.465 . S
C210 C205 1.399 . S
C210 C209 1.394 . S
C210 C211 1.516 . S
C211 C210 1.516 . S
C211 C212 1.502 . S
C211 C213 1.561 . S
C211 C214 1.526 . S
C212 H196 0.959 . S
C212 H197 0.959 . S
C212 H198 0.961 . S
C212 C211 1.502 . S
C213 H199 0.960 . S
C213 H200 0.961 . S
C213 H201 0.959 . S
C213 C211 1.561 . S
C214 C211 1.526 . S
C214 C215 1.396 . S
C214 C219 1.390 . S
C215 C209 1.465 . S
C215 C214 1.396 . S
C215 C216 1.399 . S
C216 H202 0.929 . S
C216 C215 1.399 . S
C216 C217 1.385 . S
C217 H203 0.931 . S
C217 C216 1.385 . S
C217 C218 1.389 . S
C218 C217 1.389 . S
C218 C219 1.387 . S
C219 H204 0.930 . S
C219 C214 1.390 . S
C219 C218 1.387 . S
H220 C232 0.930 . S
H221 C234 0.930 . S
H222 C235 0.930 . S
H223 C239 0.959 . S
H224 C239 0.959 . S
H225 C239 0.961 . S
H226 C240 0.960 . S
H227 C240 0.961 . S
H228 C240 0.959 . S
H229 C243 0.929 . S
H230 C244 0.931 . S
H231 C246 0.930 . S
C232 H220 0.930 . S
C232 C233 1.399 . S
C232 C237 1.399 . S
C233 C232 1.399 . S
C233 C234 1.376 . S
C234 H221 0.930 . S
C234 C233 1.376 . S
C234 C235 1.388 . S
C235 H222 0.930 . S
C235 C234 1.388 . S
C235 C236 1.390 . S
C236 C235 1.390 . S
C236 C237 1.394 . S
C236 C242 1.465 . S
C237 C232 1.399 . S
C237 C236 1.394 . S
C237 C238 1.516 . S
C238 C237 1.516 . S
C238 C239 1.502 . S
C238 C240 1.561 1_545 S
C238 C241 1.526 . S
C239 H223 0.959 . S
C239 H224 0.959 . S
C239 H225 0.961 . S
C239 C238 1.502 . S
C240 H226 0.960 . S
C240 H227 0.961 . S
C240 H228 0.959 . S
C240 C238 1.561 1_565 S
C241 C238 1.526 . S
C241 C242 1.396 . S
C241 C246 1.390 . S
C242 C236 1.465 . S
C242 C241 1.396 . S
C242 C243 1.399 . S
C243 H229 0.929 . S
C243 C242 1.399 . S
C243 C244 1.385 . S
C244 H230 0.931 . S
C244 C243 1.385 . S
C244 C245 1.389 . S
C245 C244 1.389 . S
C245 C246 1.387 . S
C246 H231 0.930 . S
C246 C241 1.390 . S
C246 C245 1.387 . S
H247 C259 0.930 . S
H248 C261 0.930 . S
H249 C262 0.930 . S
H250 C266 0.959 . S
H251 C266 0.959 . S
H252 C266 0.961 . S
H253 C267 0.960 . S
H254 C267 0.961 . S
H255 C267 0.959 . S
H256 C270 0.929 . S
H257 C271 0.931 . S
H258 C273 0.930 . S
C259 H247 0.930 . S
C259 C260 1.399 . S
C259 C264 1.399 . S
C260 C259 1.399 . S
C260 C261 1.376 . S
C261 H248 0.930 . S
C261 C260 1.376 . S
C261 C262 1.388 . S
C262 H249 0.930 . S
C262 C261 1.388 . S
C262 C263 1.390 . S
C263 C262 1.390 . S
C263 C264 1.394 . S
C263 C269 1.465 . S
C264 C259 1.399 . S
C264 C263 1.394 . S
C264 C265 1.516 . S
C265 C264 1.516 . S
C265 C266 1.502 . S
C265 C267 1.561 . S
C265 C268 1.526 . S
C266 H250 0.959 . S
C266 H251 0.959 . S
C266 H252 0.961 . S
C266 C265 1.502 . S
C267 H253 0.960 . S
C267 H254 0.961 . S
C267 H255 0.959 . S
C267 C265 1.561 . S
C268 C265 1.526 . S
C268 C269 1.396 . S
C268 C273 1.390 . S
C269 C263 1.465 . S
C269 C268 1.396 . S
C269 C270 1.399 . S
C270 H256 0.929 . S
C270 C269 1.399 . S
C270 C271 1.385 . S
C271 H257 0.931 . S
C271 C270 1.385 . S
C271 C272 1.389 . S
C272 C271 1.389 . S
C272 C273 1.387 . S
C273 H258 0.930 . S
C273 C268 1.390 . S
C273 C272 1.387 . S
H274 C286 0.930 . S
H275 C288 0.930 . S
H276 C289 0.930 . S
H277 C293 0.959 1_565 S
H278 C293 0.959 . S
H279 C293 0.961 . S
H280 C294 0.960 . S
H281 C294 0.961 . S
H282 C294 0.959 . S
H283 C297 0.929 . S
H284 C298 0.931 . S
H285 C300 0.930 . S
C286 H274 0.930 . S
C286 C287 1.399 . S
C286 C291 1.399 . S
C287 C286 1.399 . S
C287 C288 1.376 . S
C288 H275 0.930 . S
C288 C287 1.376 . S
C288 C289 1.388 . S
C289 H276 0.930 . S
C289 C288 1.388 . S
C289 C290 1.390 . S
C290 C289 1.390 . S
C290 C291 1.394 . S
C290 C296 1.465 . S
C291 C286 1.399 . S
C291 C290 1.394 . S
C291 C292 1.516 . S
C292 C291 1.516 . S
C292 C293 1.502 1_565 S
C292 C294 1.561 1_565 S
C292 C295 1.526 . S
C293 H277 0.959 1_545 S
C293 H278 0.959 . S
C293 H279 0.961 . S
C293 C292 1.502 1_545 S
C294 H280 0.960 . S
C294 H281 0.961 . S
C294 H282 0.959 . S
C294 C292 1.561 1_545 S
C295 C292 1.526 . S
C295 C296 1.396 . S
C295 C300 1.390 . S
C296 C290 1.465 . S
C296 C295 1.396 . S
C296 C297 1.399 . S
C297 H283 0.929 . S
C297 C296 1.399 . S
C297 C298 1.385 . S
C298 H284 0.931 . S
C298 C297 1.385 . S
C298 C299 1.389 . S
C299 C298 1.389 . S
C299 C300 1.387 . S
C300 H285 0.930 . S
C300 C295 1.390 . S
C300 C299 1.387 . S
H301 C313 0.930 . S
H302 C315 0.930 . S
H303 C316 0.930 . S
H304 C320 0.959 . S
H305 C320 0.959 . S
H306 C320 0.961 . S
H307 C321 0.960 . S
H308 C321 0.961 . S
H309 C321 0.959 . S
H310 C324 0.929 . S
H311 C325 0.931 . S
H312 C327 0.930 . S
C313 H301 0.930 . S
C313 C314 1.399 . S
C313 C318 1.399 . S
C314 C313 1.399 . S
C314 C315 1.376 . S
C315 H302 0.930 . S
C315 C314 1.376 . S
C315 C316 1.388 . S
C316 H303 0.930 . S
C316 C315 1.388 . S
C316 C317 1.390 . S
C317 C316 1.390 . S
C317 C318 1.394 . S
C317 C323 1.465 . S
C318 C313 1.399 . S
C318 C317 1.394 . S
C318 C319 1.516 . S
C319 C318 1.516 . S
C319 C320 1.502 . S
C319 C321 1.561 . S
C319 C322 1.526 . S
C320 H304 0.959 . S
C320 H305 0.959 . S
C320 H306 0.961 . S
C320 C319 1.502 . S
C321 H307 0.960 . S
C321 H308 0.961 . S
C321 H309 0.959 . S
C321 C319 1.561 . S
C322 C319 1.526 . S
C322 C323 1.396 . S
C322 C327 1.390 . S
C323 C317 1.465 . S
C323 C322 1.396 . S
C323 C324 1.399 . S
C324 H310 0.929 . S
C324 C323 1.399 . S
C324 C325 1.385 . S
C325 H311 0.931 . S
C325 C324 1.385 . S
C325 C326 1.389 . S
C326 C325 1.389 . S
C326 C327 1.387 . S
C327 H312 0.930 . S
C327 C322 1.390 . S
C327 C326 1.387 . S
H328 C340 0.930 . S
H329 C342 0.930 1_545 S
H330 C343 0.930 1_545 S
H331 C347 0.959 . S
H332 C347 0.959 . S
H333 C347 0.961 . S
H334 C348 0.960 . S
H335 C348 0.961 . S
H336 C348 0.959 . S
H337 C351 0.929 1_545 S
H338 C352 0.931 1_545 S
H339 C354 0.930 . S
C340 H328 0.930 . S
C340 C341 1.399 . S
C340 C345 1.399 . S
C341 C340 1.399 . S
C341 C342 1.376 . S
C342 H329 0.930 1_565 S
C342 C341 1.376 . S
C342 C343 1.388 . S
C343 H330 0.930 1_565 S
C343 C342 1.388 . S
C343 C344 1.390 . S
C344 C343 1.390 . S
C344 C345 1.394 . S
C344 C350 1.465 . S
C345 C340 1.399 . S
C345 C344 1.394 . S
C345 C346 1.516 . S
C346 C345 1.516 . S
C346 C347 1.502 . S
C346 C348 1.561 . S
C346 C349 1.526 . S
C347 H331 0.959 . S
C347 H332 0.959 . S
C347 H333 0.961 . S
C347 C346 1.502 . S
C348 H334 0.960 . S
C348 H335 0.961 . S
C348 H336 0.959 . S
C348 C346 1.561 . S
C349 C346 1.526 . S
C349 C350 1.396 . S
C349 C354 1.390 . S
C350 C344 1.465 . S
C350 C349 1.396 . S
C350 C351 1.399 . S
C351 H337 0.929 1_565 S
C351 C350 1.399 . S
C351 C352 1.385 . S
C352 H338 0.931 1_565 S
C352 C351 1.385 . S
C352 C353 1.389 . S
C353 C352 1.389 . S
C353 C354 1.387 . S
C354 H339 0.930 . S
C354 C349 1.390 . S
C354 C353 1.387 . S
H355 C367 0.930 . S
H356 C369 0.930 . S
H357 C370 0.930 . S
H358 C374 0.959 . S
H359 C374 0.959 . S
H360 C374 0.961 . S
H361 C375 0.960 . S
H362 C375 0.961 . S
H363 C375 0.959 . S
H364 C378 0.929 . S
H365 C379 0.931 . S
H366 C381 0.930 . S
C367 H355 0.930 . S
C367 C368 1.399 . S
C367 C372 1.399 . S
C368 C367 1.399 . S
C368 C369 1.376 . S
C369 H356 0.930 . S
C369 C368 1.376 . S
C369 C370 1.388 . S
C370 H357 0.930 . S
C370 C369 1.388 . S
C370 C371 1.390 . S
C371 C370 1.390 . S
C371 C372 1.394 . S
C371 C377 1.465 . S
C372 C367 1.399 . S
C372 C371 1.394 . S
C372 C373 1.516 . S
C373 C372 1.516 . S
C373 C374 1.502 . S
C373 C375 1.561 . S
C373 C376 1.526 . S
C374 H358 0.959 . S
C374 H359 0.959 . S
C374 H360 0.961 . S
C374 C373 1.502 . S
C375 H361 0.960 . S
C375 H362 0.961 . S
C375 H363 0.959 . S
C375 C373 1.561 . S
C376 C373 1.526 . S
C376 C377 1.396 . S
C376 C381 1.390 . S
C377 C371 1.465 . S
C377 C376 1.396 . S
C377 C378 1.399 . S
C378 H364 0.929 . S
C378 C377 1.399 . S
C378 C379 1.385 . S
C379 H365 0.931 . S
C379 C378 1.385 . S
C379 C380 1.389 . S
C380 C379 1.389 . S
C380 C381 1.387 . S
C381 H366 0.930 . S
C381 C376 1.390 . S
C381 C380 1.387 . S
H382 C394 0.930 . S
H383 C396 0.930 . S
H384 C397 0.930 . S
H385 C401 0.959 . S
H386 C401 0.959 . S
H387 C401 0.961 . S
H388 C402 0.960 . S
H389 C402 0.961 . S
H390 C402 0.959 . S
H391 C405 0.929 . S
H392 C406 0.931 . S
H393 C408 0.930 . S
C394 H382 0.930 . S
C394 C395 1.399 . S
C394 C399 1.399 . S
C395 C394 1.399 . S
C395 C396 1.376 . S
C396 H383 0.930 . S
C396 C395 1.376 . S
C396 C397 1.388 . S
C397 H384 0.930 . S
C397 C396 1.388 . S
C397 C398 1.390 . S
C398 C397 1.390 . S
C398 C399 1.394 . S
C398 C404 1.465 . S
C399 C394 1.399 . S
C399 C398 1.394 . S
C399 C400 1.516 . S
C400 C399 1.516 . S
C400 C401 1.502 . S
C400 C402 1.561 . S
C400 C403 1.526 . S
C401 H385 0.959 . S
C401 H386 0.959 . S
C401 H387 0.961 . S
C401 C400 1.502 . S
C402 H388 0.960 . S
C402 H389 0.961 . S
C402 H390 0.959 . S
C402 C400 1.561 . S
C403 C400 1.526 . S
C403 C404 1.396 . S
C403 C408 1.390 . S
C404 C398 1.465 . S
C404 C403 1.396 . S
C404 C405 1.399 . S
C405 H391 0.929 . S
C405 C404 1.399 . S
C405 C406 1.385 . S
C406 H392 0.931 . S
C406 C405 1.385 . S
C406 C407 1.389 . S
C407 C406 1.389 . S
C407 C408 1.387 . S
C408 H393 0.930 . S
C408 C403 1.390 . S
C408 C407 1.387 . S
H409 C421 0.930 . S
H410 C423 0.930 . S
H411 C424 0.930 . S
H412 C428 0.959 . S
H413 C428 0.959 . S
H414 C428 0.961 . S
H415 C429 0.960 . S
H416 C429 0.961 . S
H417 C429 0.959 . S
H418 C432 0.929 . S
H419 C433 0.931 . S
H420 C435 0.930 . S
C421 H409 0.930 . S
C421 C422 1.399 . S
C421 C426 1.399 . S
C422 C421 1.399 . S
C422 C423 1.376 . S
C423 H410 0.930 . S
C423 C422 1.376 . S
C423 C424 1.388 . S
C424 H411 0.930 . S
C424 C423 1.388 . S
C424 C425 1.390 . S
C425 C424 1.390 . S
C425 C426 1.394 . S
C425 C431 1.465 . S
C426 C421 1.399 . S
C426 C425 1.394 . S
C426 C427 1.516 . S
C427 C426 1.516 . S
C427 C428 1.502 . S
C427 C429 1.561 . S
C427 C430 1.526 . S
C428 H412 0.959 . S
C428 H413 0.959 . S
C428 H414 0.961 . S
C428 C427 1.502 . S
C429 H415 0.960 . S
C429 H416 0.961 . S
C429 H417 0.959 . S
C429 C427 1.561 . S
C430 C427 1.526 . S
C430 C431 1.396 . S
C430 C435 1.390 . S
C431 C425 1.465 . S
C431 C430 1.396 . S
C431 C432 1.399 . S
C432 H418 0.929 . S
C432 C431 1.399 . S
C432 C433 1.385 . S
C433 H419 0.931 . S
C433 C432 1.385 . S
C433 C434 1.389 . S
C434 C433 1.389 . S
C434 C435 1.387 . S
C435 H420 0.930 . S
C435 C430 1.390 . S
C435 C434 1.387 . S
H436 C448 0.930 . S
H437 C450 0.926 1_655 S
H438 C451 0.930 . S
H439 C455 0.959 . S
H440 C455 0.959 1_556 S
H441 C455 0.961 . S
H442 C456 0.960 . S
H443 C456 0.961 . S
H444 C456 0.959 1_655 S
H445 C459 0.929 . S
H446 C460 0.931 1_655 S
H447 C462 0.930 . S
C448 H436 0.930 . S
C448 C449 1.399 1_565 S
C448 C453 1.399 . S
C449 C448 1.399 1_545 S
C449 C450 1.382 . S
C450 H437 0.926 1_455 S
C450 C449 1.382 . S
C450 C451 1.387 1_455 S
C451 H438 0.930 . S
C451 C450 1.387 1_655 S
C451 C452 1.390 1_655 S
C452 C451 1.390 1_455 S
C452 C453 1.394 1_545 S
C452 C458 1.465 1_554 S
C453 C448 1.399 . S
C453 C452 1.394 1_565 S
C453 C454 1.516 . S
C454 C453 1.516 . S
C454 C455 1.502 . S
C454 C456 1.561 . S
C454 C457 1.526 1_554 S
C455 H439 0.959 . S
C455 H440 0.959 1_554 S
C455 H441 0.961 . S
C455 C454 1.502 . S
C456 H442 0.960 . S
C456 H443 0.961 . S
C456 H444 0.959 1_455 S
C456 C454 1.561 . S
C457 C454 1.526 1_556 S
C457 C458 1.396 1_565 S
C457 C462 1.390 . S
C458 C452 1.465 1_556 S
C458 C457 1.396 1_545 S
C458 C459 1.399 1_455 S
C459 H445 0.929 . S
C459 C458 1.399 1_655 S
C459 C460 1.385 1_655 S
C460 H446 0.931 1_455 S
C460 C459 1.385 1_455 S
C460 C461 1.389 1_545 S
C461 C460 1.389 1_565 S
C461 C462 1.387 . S
C462 H447 0.930 . S
C462 C457 1.390 . S
C462 C461 1.387 . S
H463 C475 0.930 . S
H464 C477 0.930 . S
H465 C478 0.930 . S
H466 C482 0.959 . S
H467 C482 0.959 . S
H468 C482 0.980 . S
H469 C483 0.960 . S
H470 C483 0.961 . S
H471 C483 0.959 . S
H472 C486 0.929 . S
H473 C487 0.931 . S
H474 C489 0.930 . S
C475 H463 0.930 . S
C475 C476 1.399 . S
C475 C480 1.399 . S
C476 C475 1.399 . S
C476 C477 1.376 1_455 S
C477 H464 0.930 . S
C477 C476 1.376 1_655 S
C477 C478 1.388 . S
C478 H465 0.930 . S
C478 C477 1.388 . S
C478 C479 1.390 . S
C479 C478 1.390 . S
C479 C480 1.394 1_655 S
C479 C485 1.465 1_556 S
C480 C475 1.399 . S
C480 C479 1.394 1_455 S
C480 C481 1.516 1_556 S
C481 C480 1.516 1_554 S
C481 C482 1.502 . S
C481 C483 1.561 1_455 S
C481 C484 1.526 . S
C482 H466 0.959 . S
C482 H467 0.959 . S
C482 H468 0.980 . S
C482 C481 1.502 . S
C483 H469 0.960 . S
C483 H470 0.961 . S
C483 H471 0.959 . S
C483 C481 1.561 1_655 S
C484 C481 1.526 . S
C484 C485 1.396 1_455 S
C484 C489 1.390 . S
C485 C479 1.465 1_554 S
C485 C484 1.396 1_655 S
C485 C486 1.399 . S
C486 H472 0.929 . S
C486 C485 1.399 . S
C486 C487 1.385 . S
C487 H473 0.931 . S
C487 C486 1.385 . S
C487 C488 1.389 1_655 S
C488 C487 1.389 1_455 S
C488 C489 1.387 . S
C489 H474 0.930 . S
C489 C484 1.390 . S
C489 C488 1.387 . S
H490 C502 0.930 . S
H491 C504 0.930 . S
H492 C505 0.930 . S
H493 C509 0.959 . S
H494 C509 0.959 . S
H495 C509 0.961 . S
H496 C510 0.960 . S
H497 C510 0.961 . S
H498 C510 0.959 . S
H499 C513 0.929 . S
H500 C514 0.931 . S
H501 C516 0.930 . S
C502 H490 0.930 . S
C502 C503 1.399 . S
C502 C507 1.399 . S
C503 C502 1.399 . S
C503 C504 1.376 . S
C504 H491 0.930 . S
C504 C503 1.376 . S
C504 C505 1.388 . S
C505 H492 0.930 . S
C505 C504 1.388 . S
C505 C506 1.390 . S
C506 C505 1.390 . S
C506 C507 1.394 . S
C506 C512 1.465 . S
C507 C502 1.399 . S
C507 C506 1.394 . S
C507 C508 1.516 . S
C508 C507 1.516 . S
C508 C509 1.502 . S
C508 C510 1.561 . S
C508 C511 1.526 . S
C509 H493 0.959 . S
C509 H494 0.959 . S
C509 H495 0.961 . S
C509 C508 1.502 . S
C510 H496 0.960 . S
C510 H497 0.961 . S
C510 H498 0.959 . S
C510 C508 1.561 . S
C511 C508 1.526 . S
C511 C512 1.396 . S
C511 C516 1.390 . S
C512 C506 1.465 . S
C512 C511 1.396 . S
C512 C513 1.399 . S
C513 H499 0.929 . S
C513 C512 1.399 . S
C513 C514 1.385 . S
C514 H500 0.931 . S
C514 C513 1.385 . S
C514 C515 1.389 . S
C515 C514 1.389 . S
C515 C516 1.387 . S
C516 H501 0.930 . S
C516 C511 1.390 . S
C516 C515 1.387 . S
H517 C529 0.930 . S
H518 C531 0.930 . S
H519 C532 0.930 . S
H520 C536 0.959 . S
H521 C536 0.959 . S
H522 C536 0.961 . S
H523 C537 0.960 . S
H524 C537 0.961 . S
H525 C537 0.959 . S
H526 C540 0.929 . S
H527 C541 0.931 . S
H528 C543 0.930 . S
C529 H517 0.930 . S
C529 C530 1.399 . S
C529 C534 1.399 . S
C530 C529 1.399 . S
C530 C531 1.376 1_565 S
C531 H518 0.930 . S
C531 C530 1.376 1_545 S
C531 C532 1.388 . S
C532 H519 0.930 . S
C532 C531 1.388 . S
C532 C533 1.390 . S
C533 C532 1.390 . S
C533 C534 1.394 1_545 S
C533 C539 1.465 . S
C534 C529 1.399 . S
C534 C533 1.394 1_565 S
C534 C535 1.516 . S
C535 C534 1.516 . S
C535 C536 1.502 . S
C535 C537 1.561 . S
C535 C538 1.526 . S
C536 H520 0.959 . S
C536 H521 0.959 . S
C536 H522 0.961 . S
C536 C535 1.502 . S
C537 H523 0.960 . S
C537 H524 0.961 . S
C537 H525 0.959 . S
C537 C535 1.561 . S
C538 C535 1.526 . S
C538 C539 1.396 1_565 S
C538 C543 1.390 . S
C539 C533 1.465 . S
C539 C538 1.396 1_545 S
C539 C540 1.399 . S
C540 H526 0.929 . S
C540 C539 1.399 . S
C540 C541 1.385 . S
C541 H527 0.931 . S
C541 C540 1.385 . S
C541 C542 1.389 . S
C542 C541 1.389 . S
C542 C543 1.387 1_545 S
C543 H528 0.930 . S
C543 C538 1.390 . S
C543 C542 1.387 1_565 S
C125 C18 1.491 . S
C137 C4 1.442 . S
C152 C32 1.441 . S
C164 C46 1.472 . S
C179 C60 1.480 . S
C191 C74 1.474 . S
C206 C88 1.441 . S
C218 C102 1.471 . S
C233 C110 1.477 . S
C245 C12 1.470 . S
C260 C96 1.492 . S
C272 C26 1.489 . S
C287 C40 1.469 . S
C299 C82 1.465 . S
C314 C68 1.465 . S
C326 C54 1.465 . S
C341 C75 1.185 . S
C353 C33 1.165 . S
C368 C61 1.278 . S
C380 C47 1.298 . S
C395 C103 1.222 . S
C407 C5 1.187 . S
C422 C19 1.164 . S
C434 C89 1.163 . S
C449 C11 1.333 . S
C461 C39 1.363 . S
C476 C53 1.334 . S
C488 C25 1.298 . S
C503 C95 1.296 . S
C515 C67 1.319 . S
C530 C81 1.329 . S
C542 C109 1.296 . S
