# Generated by pormake.
# Topology wiv, (6)-cn, num edge types: 1
# Building blocks:
#     Node 0, Type 0, BuildingBlock: MIFKUJ_clean_sbu_0, # of connection points: 6
#     Node 1, Type 0, BuildingBlock: MIFKUJ_clean_sbu_0, # of connection points: 6
#     Node 2, Type 0, BuildingBlock: MIFKUJ_clean_sbu_0, # of connection points: 6
#     Node 3, Type 0, BuildingBlock: MIFKUJ_clean_sbu_0, # of connection points: 6
#     Node 4, Type 0, BuildingBlock: MIFKUJ_clean_sbu_0, # of connection points: 6
#     Node 5, Type 0, BuildingBlock: MIFKUJ_clean_sbu_0, # of connection points: 6
#     Node 6, Type 0, BuildingBlock: MIFKUJ_clean_sbu_0, # of connection points: 6
#     Node 7, Type 0, BuildingBlock: MIFKUJ_clean_sbu_0, # of connection points: 6
#     Node 8, Type 0, BuildingBlock: MIFKUJ_clean_sbu_0, # of connection points: 6
#     Node 9, Type 0, BuildingBlock: MIFKUJ_clean_sbu_0, # of connection points: 6
#     Node 10, Type 0, BuildingBlock: MIFKUJ_clean_sbu_0, # of connection points: 6
#     Node 11, Type 0, BuildingBlock: MIFKUJ_clean_sbu_0, # of connection points: 6
#     Node 12, Type 0, BuildingBlock: MIFKUJ_clean_sbu_0, # of connection points: 6
#     Node 13, Type 0, BuildingBlock: MIFKUJ_clean_sbu_0, # of connection points: 6
#     Node 14, Type 0, BuildingBlock: MIFKUJ_clean_sbu_0, # of connection points: 6
#     Node 15, Type 0, BuildingBlock: MIFKUJ_clean_sbu_0, # of connection points: 6
#     Edge 16, Type (0, 0), BuildingBlock: XIVTED_clean_linker_0, # of connection points: 2
#     Edge 17, Type (0, 0), BuildingBlock: XIVTED_clean_linker_0, # of connection points: 2
#     Edge 18, Type (0, 0), BuildingBlock: XIVTED_clean_linker_0, # of connection points: 2
#     Edge 19, Type (0, 0), BuildingBlock: XIVTED_clean_linker_0, # of connection points: 2
#     Edge 20, Type (0, 0), BuildingBlock: XIVTED_clean_linker_0, # of connection points: 2
#     Edge 21, Type (0, 0), BuildingBlock: XIVTED_clean_linker_0, # of connection points: 2
#     Edge 22, Type (0, 0), BuildingBlock: XIVTED_clean_linker_0, # of connection points: 2
#     Edge 23, Type (0, 0), BuildingBlock: XIVTED_clean_linker_0, # of connection points: 2
#     Edge 24, Type (0, 0), BuildingBlock: XIVTED_clean_linker_0, # of connection points: 2
#     Edge 25, Type (0, 0), BuildingBlock: XIVTED_clean_linker_0, # of connection points: 2
#     Edge 26, Type (0, 0), BuildingBlock: XIVTED_clean_linker_0, # of connection points: 2
#     Edge 27, Type (0, 0), BuildingBlock: XIVTED_clean_linker_0, # of connection points: 2
#     Edge 28, Type (0, 0), BuildingBlock: XIVTED_clean_linker_0, # of connection points: 2
#     Edge 29, Type (0, 0), BuildingBlock: XIVTED_clean_linker_0, # of connection points: 2
#     Edge 30, Type (0, 0), BuildingBlock: XIVTED_clean_linker_0, # of connection points: 2
#     Edge 31, Type (0, 0), BuildingBlock: XIVTED_clean_linker_0, # of connection points: 2
#     Edge 32, Type (0, 0), BuildingBlock: XIVTED_clean_linker_0, # of connection points: 2
#     Edge 33, Type (0, 0), BuildingBlock: XIVTED_clean_linker_0, # of connection points: 2
#     Edge 34, Type (0, 0), BuildingBlock: XIVTED_clean_linker_0, # of connection points: 2
#     Edge 35, Type (0, 0), BuildingBlock: XIVTED_clean_linker_0, # of connection points: 2
#     Edge 36, Type (0, 0), BuildingBlock: XIVTED_clean_linker_0, # of connection points: 2
#     Edge 37, Type (0, 0), BuildingBlock: XIVTED_clean_linker_0, # of connection points: 2
#     Edge 38, Type (0, 0), BuildingBlock: XIVTED_clean_linker_0, # of connection points: 2
#     Edge 39, Type (0, 0), BuildingBlock: XIVTED_clean_linker_0, # of connection points: 2
#     Edge 40, Type (0, 0), BuildingBlock: XIVTED_clean_linker_0, # of connection points: 2
#     Edge 41, Type (0, 0), BuildingBlock: XIVTED_clean_linker_0, # of connection points: 2
#     Edge 42, Type (0, 0), BuildingBlock: XIVTED_clean_linker_0, # of connection points: 2
#     Edge 43, Type (0, 0), BuildingBlock: XIVTED_clean_linker_0, # of connection points: 2
#     Edge 44, Type (0, 0), BuildingBlock: XIVTED_clean_linker_0, # of connection points: 2
#     Edge 45, Type (0, 0), BuildingBlock: XIVTED_clean_linker_0, # of connection points: 2
#     Edge 46, Type (0, 0), BuildingBlock: XIVTED_clean_linker_0, # of connection points: 2
#     Edge 47, Type (0, 0), BuildingBlock: XIVTED_clean_linker_0, # of connection points: 2
#     Edge 48, Type (0, 0), BuildingBlock: XIVTED_clean_linker_0, # of connection points: 2
#     Edge 49, Type (0, 0), BuildingBlock: XIVTED_clean_linker_0, # of connection points: 2
#     Edge 50, Type (0, 0), BuildingBlock: XIVTED_clean_linker_0, # of connection points: 2
#     Edge 51, Type (0, 0), BuildingBlock: XIVTED_clean_linker_0, # of connection points: 2
#     Edge 52, Type (0, 0), BuildingBlock: XIVTED_clean_linker_0, # of connection points: 2
#     Edge 53, Type (0, 0), BuildingBlock: XIVTED_clean_linker_0, # of connection points: 2
#     Edge 54, Type (0, 0), BuildingBlock: XIVTED_clean_linker_0, # of connection points: 2
#     Edge 55, Type (0, 0), BuildingBlock: XIVTED_clean_linker_0, # of connection points: 2
#     Edge 56, Type (0, 0), BuildingBlock: XIVTED_clean_linker_0, # of connection points: 2
#     Edge 57, Type (0, 0), BuildingBlock: XIVTED_clean_linker_0, # of connection points: 2
#     Edge 58, Type (0, 0), BuildingBlock: XIVTED_clean_linker_0, # of connection points: 2
#     Edge 59, Type (0, 0), BuildingBlock: XIVTED_clean_linker_0, # of connection points: 2
#     Edge 60, Type (0, 0), BuildingBlock: XIVTED_clean_linker_0, # of connection points: 2
#     Edge 61, Type (0, 0), BuildingBlock: XIVTED_clean_linker_0, # of connection points: 2
#     Edge 62, Type (0, 0), BuildingBlock: XIVTED_clean_linker_0, # of connection points: 2
#     Edge 63, Type (0, 0), BuildingBlock: XIVTED_clean_linker_0, # of connection points: 2
# Relax obj value: 0.041
# Max RMSD: 0.118
# Mean RMSD: 0.118
data_MOF--net-wiv--node1-MIFKUJ_clean_sbu_0--edge1-XIVTED_clean_linker_0
_symmetry_space_group_name_H-M    P1
_symmetry_Int_Tables_number       1
_symmetry_cell_setting            triclinic
loop_
_symmetry_equiv_pos_as_xyz
'x, y, z'
_cell_length_a     59.349644
_cell_length_b     59.328223
_cell_length_c     18.398731
_cell_angle_alpha  90.013463
_cell_angle_beta   89.933451
_cell_angle_gamma 89.999779
loop_
_atom_site_label
_atom_site_type_symbol
_atom_site_fract_x
_atom_site_fract_y
_atom_site_fract_z
_atom_type_partial_charge
Zn0 Zn 0.36909 0.11625 0.10239 0.0
Zn1 Zn 0.36328 0.12102 0.26707 0.0
C2 C 0.3271 0.09935 0.05385 0.0
O3 O 0.34016 0.08211 0.03841 0.0
C4 C 0.40699 0.13733 0.29572 0.0
O5 O 0.39459 0.15145 0.33355 0.0
O6 O 0.37983 0.11422 -0.0013 0.0
O7 O 0.37781 0.14711 0.1386 0.0
O8 O 0.35081 0.14878 0.22039 0.0
C9 C 0.37171 0.12916 0.95658 0.0
O10 O 0.35933 0.14533 0.98469 0.0
O11 O 0.33538 0.11593 0.08854 0.0
C12 C 0.36805 0.10916 0.41534 0.0
O13 O 0.38045 0.0934 0.38494 0.0
O14 O 0.35763 0.12305 0.37484 0.0
O15 O 0.35144 0.09108 0.23431 0.0
O16 O 0.3789 0.08789 0.15494 0.0
O17 O 0.39728 0.12212 0.25839 0.0
C18 C 0.36377 0.15859 0.17545 0.0
C19 C 0.36491 0.07879 0.19826 0.0
Zn20 Zn 0.13632 0.63236 0.7369 0.0
Zn21 Zn 0.13062 0.62948 0.90334 0.0
C22 C 0.15176 0.58643 0.73311 0.0
O23 O 0.17039 0.5959 0.70947 0.0
C24 C 0.1119 0.67114 0.94405 0.0
O25 O 0.09486 0.65755 0.9566 0.0
O26 O 0.13971 0.63565 0.62903 0.0
O27 O 0.10598 0.64462 0.76245 0.0
O28 O 0.1023 0.61981 0.85074 0.0
C29 C 0.12574 0.62497 0.58959 0.0
O30 O 0.10954 0.61344 0.62105 0.0
O31 O 0.1353 0.59881 0.75198 0.0
C32 C 0.14362 0.6269 0.04818 0.0
O33 O 0.15972 0.63922 0.01938 0.0
O34 O 0.12832 0.61907 0.00695 0.0
O35 O 0.16179 0.62043 0.87043 0.0
O36 O 0.16376 0.64583 0.78406 0.0
O37 O 0.12967 0.66319 0.91516 0.0
C38 C 0.09353 0.63243 0.80256 0.0
C39 C 0.17335 0.63421 0.83299 0.0
Zn40 Zn 0.62862 0.88024 0.09604 0.0
Zn41 Zn 0.63446 0.87255 0.25695 0.0
C42 C 0.67085 0.89821 0.05736 0.0
O43 O 0.6576 0.91548 0.04434 0.0
C44 C 0.58884 0.85724 0.26607 0.0
O45 O 0.59896 0.83906 0.29039 0.0
O46 O 0.61891 0.88369 0.99121 0.0
O47 O 0.61884 0.84873 0.12615 0.0
O48 O 0.6462 0.84482 0.20545 0.0
C49 C 0.62695 0.86861 0.94931 0.0
O50 O 0.63874 0.85212 0.97803 0.0
O51 O 0.66245 0.88053 0.08558 0.0
C52 C 0.62874 0.8832 0.40538 0.0
O53 O 0.61755 0.89973 0.3745 0.0
O54 O 0.6387 0.86885 0.36516 0.0
O55 O 0.64739 0.90274 0.2303 0.0
O56 O 0.61957 0.90829 0.15368 0.0
O57 O 0.60066 0.87397 0.24585 0.0
C58 C 0.63267 0.83614 0.15989 0.0
C59 C 0.63389 0.91613 0.19861 0.0
Zn60 Zn 0.87141 0.38268 0.76068 0.0
Zn61 Zn 0.87877 0.36042 0.9444 0.0
C62 C 0.84772 0.42457 0.76421 0.0
O63 O 0.83356 0.41261 0.72517 0.0
C64 C 0.89074 0.31698 0.99254 0.0
O65 O 0.90957 0.32825 0.0019 0.0
O66 O 0.86872 0.38246 0.65209 0.0
O67 O 0.90394 0.37586 0.77751 0.0
O68 O 0.90859 0.36444 0.89102 0.0
C69 C 0.87723 0.39856 0.61563 0.0
O70 O 0.8873 0.41516 0.64993 0.0
O71 O 0.86491 0.41485 0.79103 0.0
C72 C 0.88017 0.39071 0.07259 0.0
O73 O 0.8742 0.40747 0.03013 0.0
O74 O 0.88336 0.37126 0.04581 0.0
O75 O 0.84909 0.37442 0.91092 0.0
O76 O 0.84783 0.36119 0.7993 0.0
O77 O 0.87415 0.32693 0.96267 0.0
C78 C 0.91663 0.36965 0.82915 0.0
C79 C 0.83783 0.36728 0.85696 0.0
Zn80 Zn 0.35882 0.37033 0.20709 0.0
Zn81 Zn 0.37708 0.3649 0.01486 0.0
C82 C 0.32103 0.3915 0.27953 0.0
O83 O 0.33554 0.40807 0.28685 0.0
C84 C 0.42276 0.35859 0.99626 0.0
O85 O 0.41332 0.34199 0.96011 0.0
O86 O 0.37742 0.37069 0.29697 0.0
O87 O 0.36065 0.33876 0.16517 0.0
O88 O 0.37008 0.3343 0.04973 0.0
C89 C 0.37714 0.35338 0.3374 0.0
O90 O 0.36629 0.33533 0.31547 0.0
O91 O 0.3269 0.37394 0.2446 0.0
C92 C 0.38372 0.37796 0.86802 0.0
O93 O 0.39249 0.39593 0.89875 0.0
O94 O 0.37495 0.36278 0.90749 0.0
O95 O 0.35508 0.38902 0.04205 0.0
O96 O 0.36742 0.39838 0.15043 0.0
O97 O 0.41022 0.37184 0.03288 0.0
C98 C 0.36431 0.32617 0.11054 0.0
C99 C 0.36136 0.40391 0.08679 0.0
Zn100 Zn 0.37755 0.61305 -0.00011 0.0
Zn101 Zn 0.38309 0.64551 0.80724 0.0
C102 C 0.36223 0.5679 0.96618 0.0
O103 O 0.34255 0.57761 0.95711 0.0
C104 C 0.3927 0.67848 0.69406 0.0
O105 O 0.39931 0.66073 0.65713 0.0
O106 O 0.37334 0.61462 0.10822 0.0
O107 O 0.4078 0.62682 0.97871 0.0
O108 O 0.41048 0.64362 0.87115 0.0
C109 C 0.38711 0.60468 0.15032 0.0
O110 O 0.40458 0.59419 0.12228 0.0
O111 O 0.37939 0.57996 0.97978 0.0
C112 C 0.36699 0.6217 0.68511 0.0
O113 O 0.34878 0.63272 0.70486 0.0
O114 O 0.38433 0.62279 0.72554 0.0
O115 O 0.35231 0.64443 0.85254 0.0
O116 O 0.34922 0.62616 0.95728 0.0
O117 O 0.38541 0.67609 0.75871 0.0
C118 C 0.41912 0.63741 0.93106 0.0
C119 C 0.34054 0.6373 0.90541 0.0
Zn120 Zn 0.62622 0.6249 0.1465 0.0
Zn121 Zn 0.63195 0.63212 0.98569 0.0
C122 C 0.6682 0.60667 0.18716 0.0
O123 O 0.65489 0.5894 0.19953 0.0
C124 C 0.58695 0.64759 0.97048 0.0
O125 O 0.59779 0.66324 0.93399 0.0
O126 O 0.61607 0.62187 0.2511 0.0
O127 O 0.61718 0.65662 0.11488 0.0
O128 O 0.6447 0.65953 0.03548 0.0
C129 C 0.62424 0.63682 0.29317 0.0
O130 O 0.63637 0.65312 0.26471 0.0
O131 O 0.65998 0.62435 0.15854 0.0
C132 C 0.62561 0.62135 0.8369 0.0
O133 O 0.61414 0.605 0.8678 0.0
O134 O 0.63583 0.6355 0.87708 0.0
O135 O 0.64476 0.60195 0.01216 0.0
O136 O 0.61733 0.59642 0.09032 0.0
O137 O 0.59817 0.63187 0.00044 0.0
C138 C 0.63136 0.66873 0.08069 0.0
C139 C 0.63175 0.58852 0.04572 0.0
Zn140 Zn 0.63266 0.37473 0.98205 0.0
Zn141 Zn 0.62679 0.37355 0.81307 0.0
C142 C 0.64742 0.42121 0.98083 0.0
O143 O 0.666 0.41214 0.0063 0.0
C144 C 0.60997 0.33124 0.76714 0.0
O145 O 0.59259 0.34448 0.7555 0.0
O146 O 0.63694 0.37296 0.08967 0.0
O147 O 0.60227 0.36162 0.96318 0.0
O148 O 0.5974 0.38194 0.86423 0.0
C149 C 0.6231 0.38377 0.12921 0.0
O150 O 0.60653 0.39484 0.0981 0.0
O151 O 0.63123 0.4084 0.96224 0.0
C152 C 0.64048 0.37858 0.66955 0.0
O153 O 0.65717 0.36694 0.69763 0.0
O154 O 0.62448 0.38487 0.71081 0.0
O155 O 0.65755 0.38458 0.84778 0.0
O156 O 0.65973 0.35992 0.93603 0.0
O157 O 0.62741 0.33953 0.79725 0.0
C158 C 0.58928 0.37167 0.91911 0.0
C159 C 0.66933 0.37169 0.8876 0.0
Zn160 Zn 0.84722 0.62649 0.558 0.0
Zn161 Zn 0.88099 0.63337 0.74694 0.0
C162 C 0.812 0.60892 0.46974 0.0
O163 O 0.82602 0.5918 0.46695 0.0
C164 C 0.92616 0.64641 0.76339 0.0
O165 O 0.91601 0.6603 0.8084 0.0
O166 O 0.86866 0.62421 0.47342 0.0
O167 O 0.84956 0.65739 0.60309 0.0
O168 O 0.86742 0.66204 0.70793 0.0
C169 C 0.86736 0.64083 0.43001 0.0
O170 O 0.85481 0.65815 0.44852 0.0
O171 O 0.81704 0.62593 0.50849 0.0
C172 C 0.88811 0.62133 0.89662 0.0
O173 O 0.89854 0.60409 0.86701 0.0
O174 O 0.87877 0.63587 0.85579 0.0
O175 O 0.86719 0.60325 0.72353 0.0
O176 O 0.84827 0.59854 0.62064 0.0
O177 O 0.91432 0.63301 0.7253 0.0
C178 C 0.85631 0.66991 0.65466 0.0
C179 C 0.85583 0.59096 0.68048 0.0
Zn180 Zn 0.61935 0.12712 0.2761 0.0
Zn181 Zn 0.61381 0.13785 0.45951 0.0
C182 C 0.63883 0.0828 0.28693 0.0
O183 O 0.65628 0.09324 0.25865 0.0
C184 C 0.60172 0.17907 0.52672 0.0
O185 O 0.58347 0.16688 0.53636 0.0
O186 O 0.62469 0.12647 0.16932 0.0
O187 O 0.58768 0.13695 0.28842 0.0
O188 O 0.58349 0.13577 0.40806 0.0
C189 C 0.61216 0.11385 0.13095 0.0
O190 O 0.59584 0.10248 0.16241 0.0
O191 O 0.62157 0.09425 0.3049 0.0
C192 C 0.62809 0.12327 0.59467 0.0
O193 O 0.64609 0.13353 0.5694 0.0
O194 O 0.61078 0.12182 0.55439 0.0
O195 O 0.64316 0.12598 0.41656 0.0
O196 O 0.64365 0.14667 0.3182 0.0
O197 O 0.61803 0.17058 0.49092 0.0
C198 C 0.57522 0.13718 0.34442 0.0
C199 C 0.65408 0.13731 0.36992 0.0
Zn200 Zn 0.12721 0.38359 0.56913 0.0
Zn201 Zn 0.12924 0.37747 0.73506 0.0
C202 C 0.17019 0.40085 0.5261 0.0
O203 O 0.15761 0.41855 0.51221 0.0
C204 C 0.08458 0.36207 0.75683 0.0
O205 O 0.09634 0.34685 0.7922 0.0
O206 O 0.11654 0.38627 0.46619 0.0
O207 O 0.11791 0.35224 0.60161 0.0
O208 O 0.14281 0.35026 0.6894 0.0
C209 C 0.124 0.37102 0.42405 0.0
O210 O 0.13616 0.35461 0.45169 0.0
O211 O 0.16117 0.38374 0.55608 0.0
C212 C 0.12328 0.38864 0.88291 0.0
O213 O 0.11155 0.40489 0.85254 0.0
O214 O 0.13352 0.37459 0.84256 0.0
O215 O 0.14298 0.40693 0.70769 0.0
O216 O 0.11769 0.41214 0.6225 0.0
O217 O 0.0951 0.37743 0.7223 0.0
C218 C 0.1314 0.34067 0.64011 0.0
C219 C 0.13128 0.42017 0.66915 0.0
Zn220 Zn 0.37844 0.8656 0.24706 0.0
Zn221 Zn 0.38454 0.87149 0.41031 0.0
C222 C 0.36133 0.9107 0.23981 0.0
O223 O 0.34347 0.90014 0.21493 0.0
C224 C 0.40203 0.83115 0.46562 0.0
O225 O 0.41615 0.846 0.49262 0.0
O226 O 0.37556 0.86141 0.13883 0.0
O227 O 0.40865 0.85375 0.27702 0.0
O228 O 0.41222 0.88171 0.35461 0.0
C229 C 0.38905 0.87248 0.0986 0.0
O230 O 0.40474 0.88485 0.12932 0.0
O231 O 0.37836 0.89932 0.25977 0.0
C232 C 0.3717 0.87416 0.55619 0.0
O233 O 0.35594 0.86126 0.52814 0.0
O234 O 0.38654 0.8825 0.51408 0.0
O235 O 0.35289 0.87886 0.37811 0.0
O236 O 0.35113 0.8523 0.29514 0.0
O237 O 0.38679 0.8378 0.42211 0.0
C238 C 0.42111 0.86745 0.3116 0.0
C239 C 0.34151 0.86435 0.34303 0.0
Zn240 Zn 0.85234 0.88136 0.69883 0.0
Zn241 Zn 0.88577 0.87317 0.51016 0.0
C242 C 0.81682 0.89991 0.78557 0.0
O243 O 0.83081 0.91706 0.78837 0.0
C244 C 0.92905 0.85477 0.50978 0.0
O245 O 0.91737 0.83924 0.47554 0.0
O246 O 0.8737 0.88304 0.78382 0.0
O247 O 0.85347 0.85037 0.65419 0.0
O248 O 0.87069 0.84513 0.54844 0.0
C249 C 0.87177 0.8665 0.82733 0.0
O250 O 0.85862 0.84963 0.80887 0.0
O251 O 0.82205 0.88277 0.74773 0.0
C252 C 0.89484 0.88423 0.36049 0.0
O253 O 0.90544 0.90137 0.39006 0.0
O254 O 0.88484 0.87011 0.4013 0.0
O255 O 0.8728 0.90395 0.53118 0.0
O256 O 0.85422 0.90902 0.63484 0.0
O257 O 0.91876 0.87189 0.53493 0.0
C258 C 0.85949 0.83765 0.60216 0.0
C259 C 0.86178 0.91645 0.5747 0.0
Zn260 Zn 0.85888 0.12688 0.46383 0.0
Zn261 Zn 0.86412 0.12557 0.29455 0.0
C262 C 0.84241 0.08202 0.47983 0.0
O263 O 0.82682 0.09329 0.5153 0.0
C264 C 0.88197 0.16623 0.24063 0.0
O265 O 0.89846 0.15194 0.22848 0.0
O266 O 0.85509 0.13017 0.57141 0.0
O267 O 0.88948 0.13853 0.44176 0.0
O268 O 0.8936 0.11728 0.34436 0.0
C269 C 0.86859 0.11922 0.6117 0.0
O270 O 0.88479 0.10739 0.58133 0.0
O271 O 0.85794 0.09296 0.44764 0.0
C272 C 0.84992 0.11966 0.15195 0.0
O273 O 0.83364 0.13207 0.17929 0.0
O274 O 0.8656 0.11299 0.19368 0.0
O275 O 0.83337 0.1162 0.33349 0.0
O276 O 0.83277 0.14252 0.41696 0.0
O277 O 0.86453 0.15929 0.27428 0.0
C278 C 0.90209 0.12826 0.39709 0.0
C279 C 0.82239 0.13021 0.37185 0.0
Zn280 Zn 0.15209 0.13106 0.67058 0.0
Zn281 Zn 0.1138 0.13573 0.48583 0.0
C282 C 0.18715 0.11138 0.75238 0.0
O283 O 0.17246 0.09482 0.7508 0.0
C284 C 0.06839 0.14702 0.46 0.0
O285 O 0.07868 0.16135 0.41682 0.0
O286 O 0.13135 0.12873 0.75661 0.0
O287 O 0.14856 0.16196 0.62688 0.0
O288 O 0.12641 0.16392 0.52978 0.0
C289 C 0.13352 0.14493 0.80131 0.0
O290 O 0.14649 0.162 0.78335 0.0
O291 O 0.18274 0.12946 0.71805 0.0
C292 C 0.10984 0.12483 0.33434 0.0
O293 O 0.09924 0.10715 0.36054 0.0
O294 O 0.11809 0.13922 0.37804 0.0
O295 O 0.12801 0.10607 0.50933 0.0
O296 O 0.14952 0.10348 0.60768 0.0
O297 O 0.08013 0.13429 0.50071 0.0
C298 C 0.13874 0.17325 0.57749 0.0
C299 C 0.14074 0.09484 0.55124 0.0
Zn300 Zn 0.13839 0.88445 0.50551 0.0
Zn301 Zn 0.13141 0.8493 0.31892 0.0
C302 C 0.15562 0.92819 0.502 0.0
O303 O 0.17187 0.9173 0.5354 0.0
C304 C 0.1131 0.81412 0.23146 0.0
O305 O 0.09615 0.82832 0.22823 0.0
O306 O 0.14208 0.88344 0.61408 0.0
O307 O 0.1081 0.87097 0.4847 0.0
O308 O 0.10381 0.8514 0.38265 0.0
C309 C 0.12804 0.89288 0.65653 0.0
O310 O 0.11037 0.9031 0.62897 0.0
O311 O 0.13859 0.91721 0.47973 0.0
C312 C 0.14585 0.86887 0.18971 0.0
O313 O 0.16295 0.85592 0.20744 0.0
O314 O 0.12945 0.87061 0.23392 0.0
O315 O 0.16238 0.85104 0.36257 0.0
O316 O 0.16631 0.87026 0.46512 0.0
O317 O 0.1301 0.81903 0.27029 0.0
C318 C 0.09603 0.85936 0.44174 0.0
C319 C 0.17453 0.85848 0.41399 0.0
H320 H 0.39862 0.93769 0.24459 0.0
H321 H 0.33044 0.05321 0.25168 0.0
H322 H 0.32601 0.94018 0.23379 0.0
H323 H 0.39785 0.04821 0.16481 0.0
H324 H 0.3296 0.01219 0.26572 0.0
H325 H 0.3997 0.97888 0.23651 0.0
C326 C 0.38291 0.94692 0.24117 0.0
C327 C 0.36218 0.93554 0.23964 0.0
C328 C 0.34455 0.02011 0.24358 0.0
C329 C 0.36334 0.98251 0.23077 0.0
C330 C 0.34509 0.04348 0.23577 0.0
C331 C 0.36423 0.05408 0.20686 0.0
C332 C 0.36344 0.00731 0.22358 0.0
C333 C 0.38271 0.04067 0.18691 0.0
C334 C 0.38356 0.97037 0.23611 0.0
C335 C 0.34234 0.94831 0.23475 0.0
N336 N 0.38191 0.01795 0.19606 0.0
N337 N 0.3434 0.97115 0.23075 0.0
H338 H 0.95443 0.63183 0.65477 0.0
H339 H 0.06192 0.6242 0.90682 0.0
H340 H 0.95404 0.65638 0.87559 0.0
H341 H 0.06905 0.64302 0.68138 0.0
H342 H 0.02096 0.62755 0.89487 0.0
H343 H 0.99572 0.62799 0.66182 0.0
C344 C 0.96303 0.63642 0.70451 0.0
C345 C 0.95092 0.64456 0.76455 0.0
C346 C 0.03154 0.63088 0.84809 0.0
C347 C 0.99759 0.63968 0.7734 0.0
C348 C 0.05484 0.62888 0.85472 0.0
C349 C 0.06882 0.6335 0.7951 0.0
C350 C 0.02217 0.63696 0.78096 0.0
C351 C 0.0588 0.63953 0.72879 0.0
C352 C 0.98647 0.63428 0.70839 0.0
C353 C 0.96279 0.65025 0.82784 0.0
N354 N 0.03599 0.64094 0.72325 0.0
N355 N 0.98545 0.64747 0.8309 0.0
H356 H 0.66874 0.93984 0.2583 0.0
H357 H 0.60133 0.05589 0.28891 0.0
H358 H 0.60106 0.948 0.17705 0.0
H359 H 0.67392 0.05297 0.27897 0.0
H360 H 0.59989 0.01501 0.27039 0.0
H361 H 0.66987 0.98015 0.28669 0.0
C362 C 0.65409 0.9501 0.24656 0.0
C363 C 0.63479 0.94056 0.21499 0.0
C364 C 0.61612 0.02333 0.27281 0.0
C365 C 0.6359 0.98661 0.24838 0.0
C366 C 0.61698 0.04662 0.28405 0.0
C367 C 0.6378 0.05786 0.28542 0.0
C368 C 0.63622 0.01115 0.26405 0.0
C369 C 0.65752 0.04499 0.27804 0.0
C370 C 0.65479 0.9731 0.26266 0.0
C371 C 0.61633 0.95469 0.20086 0.0
N372 N 0.65625 0.02231 0.26777 0.0
N373 N 0.61729 0.97699 0.21804 0.0
H374 H 0.94074 0.38725 0.71521 0.0
H375 H 0.05846 0.33583 0.84487 0.0
H376 H 0.94896 0.34944 0.91388 0.0
H377 H 0.05383 0.3889 0.68512 0.0
H378 H 0.01773 0.33746 0.86136 0.0
H379 H 0.98143 0.38511 0.69489 0.0
C380 C 0.95106 0.37846 0.75457 0.0
C381 C 0.94134 0.36852 0.8165 0.0
C382 C 0.02559 0.34874 0.82261 0.0
C383 C 0.988 0.36591 0.79305 0.0
C384 C 0.04888 0.34776 0.81281 0.0
C385 C 0.05966 0.36229 0.76352 0.0
C386 C 0.01279 0.36422 0.78241 0.0
C387 C 0.04626 0.37741 0.72378 0.0
C388 C 0.97432 0.37731 0.74294 0.0
C389 C 0.95565 0.35742 0.86558 0.0
N390 N 0.02352 0.37796 0.734 0.0
N391 N 0.97821 0.35634 0.85262 0.0
H392 H 0.3392 0.42342 0.97273 0.0
H393 H 0.39674 0.54349 0.0245 0.0
H394 H 0.38471 0.4386 0.14899 0.0
H395 H 0.3312 0.53605 0.92557 0.0
H396 H 0.3972 0.50309 0.04969 0.0
H397 H 0.34038 0.46311 0.93601 0.0
C398 C 0.34947 0.43509 0.0036 0.0
C399 C 0.36179 0.42777 0.06428 0.0
C400 C 0.38281 0.51031 0.02203 0.0
C401 C 0.36347 0.4729 0.02179 0.0
C402 C 0.38258 0.53332 0.00709 0.0
C403 C 0.36382 0.54317 0.97318 0.0
C404 C 0.36432 0.49699 0.00203 0.0
C405 C 0.34593 0.52915 0.95217 0.0
C406 C 0.35008 0.45768 0.98266 0.0
C407 C 0.37482 0.44358 0.10227 0.0
N408 N 0.3466 0.50671 0.96699 0.0
N409 N 0.37541 0.4654 0.08014 0.0
H410 H 0.55893 0.61966 0.04794 0.0
H411 H 0.44762 0.66464 0.85349 0.0
H412 H 0.55823 0.67563 0.89802 0.0
H413 H 0.44617 0.61915 0.03668 0.0
H414 H 0.48823 0.66874 0.86907 0.0
H415 H 0.51769 0.61893 0.04477 0.0
C416 C 0.55011 0.63186 0.01466 0.0
C417 C 0.56205 0.64765 0.97285 0.0
C418 C 0.47901 0.65799 0.90623 0.0
C419 C 0.51493 0.64683 0.96868 0.0
C420 C 0.4558 0.65561 0.89728 0.0
C421 C 0.44344 0.64143 0.94358 0.0
C422 C 0.49006 0.64592 0.96136 0.0
C423 C 0.455 0.63025 -0.00037 0.0
C424 C 0.52658 0.63147 0.013 0.0
C425 C 0.54975 0.66311 0.93097 0.0
N426 N 0.47769 0.63257 0.00652 0.0
N427 N 0.52689 0.6622 0.92953 0.0
H428 H 0.66758 0.56583 0.98829 0.0
H429 H 0.60797 0.44528 0.98155 0.0
H430 H 0.60085 0.55516 0.07506 0.0
H431 H 0.68019 0.45356 0.98528 0.0
H432 H 0.60367 0.48619 0.9956 0.0
H433 H 0.6711 0.52527 0.96771 0.0
C434 C 0.65362 0.55496 0.00284 0.0
C435 C 0.63389 0.56391 0.03362 0.0
C436 C 0.62043 0.47901 0.993 0.0
C437 C 0.63776 0.51744 0.00935 0.0
C438 C 0.62291 0.45572 0.98438 0.0
C439 C 0.64449 0.446 0.98228 0.0
C440 C 0.63965 0.49272 0.99826 0.0
C441 C 0.66325 0.46032 0.98689 0.0
C442 C 0.65569 0.53181 0.99124 0.0
C443 C 0.6164 0.54896 0.05161 0.0
N444 N 0.66041 0.48295 0.99442 0.0
N445 N 0.61869 0.52646 0.03881 0.0
H446 H 0.44699 0.35102 0.87431 0.0
H447 H 0.56727 0.36596 0.04868 0.0
H448 H 0.45366 0.37591 0.0935 0.0
H449 H 0.55533 0.37758 0.82044 0.0
H450 H 0.5264 0.36531 0.06928 0.0
H451 H 0.48738 0.3563 0.85601 0.0
C452 C 0.45701 0.3576 0.9187 0.0
C453 C 0.44704 0.36293 0.9857 0.0
C454 C 0.53279 0.36815 0.01488 0.0
C455 C 0.49336 0.36875 0.96524 0.0
C456 C 0.55606 0.36837 0.00292 0.0
C457 C 0.56469 0.37173 0.9326 0.0
C458 C 0.51809 0.37077 0.95586 0.0
C459 C 0.5494 0.37495 0.87546 0.0
C460 C 0.48003 0.36073 0.908 0.0
C461 C 0.46076 0.37163 0.04105 0.0
N462 N 0.52684 0.37411 0.88819 0.0
N463 N 0.48337 0.37399 0.02997 0.0
H464 H 0.87406 0.45497 0.83809 0.0
H465 H 0.82845 0.56023 0.61217 0.0
H466 H 0.81784 0.45107 0.68998 0.0
H467 H 0.87467 0.56675 0.79207 0.0
H468 H 0.82409 0.52026 0.64088 0.0
H469 H 0.87408 0.496 0.82437 0.0
C470 C 0.86154 0.46274 0.80341 0.0
C471 C 0.84602 0.4495 0.76478 0.0
C472 C 0.83506 0.53047 0.67441 0.0
C473 C 0.84616 0.49646 0.748 0.0
C474 C 0.83762 0.55331 0.65789 0.0
C475 C 0.85206 0.56693 0.69946 0.0
C476 C 0.84719 0.52103 0.73248 0.0
C477 C 0.86339 0.55696 0.75834 0.0
C478 C 0.86158 0.48618 0.7955 0.0
C479 C 0.83017 0.46055 0.72069 0.0
N480 N 0.86086 0.53461 0.77267 0.0
N481 N 0.83081 0.48332 0.71289 0.0
H482 H 0.55094 0.12831 0.22143 0.0
H483 H 0.43211 0.16032 0.39515 0.0
H484 H 0.54314 0.14846 0.44558 0.0
H485 H 0.43839 0.11677 0.20821 0.0
H486 H 0.47311 0.16111 0.40592 0.0
H487 H 0.50998 0.12897 0.20752 0.0
C488 C 0.54064 0.13301 0.26763 0.0
C489 C 0.55049 0.13832 0.33488 0.0
C490 C 0.46551 0.15141 0.36253 0.0
C491 C 0.50364 0.13918 0.319 0.0
C492 C 0.44212 0.15102 0.35606 0.0
C493 C 0.43182 0.13842 0.30071 0.0
C494 C 0.47876 0.13937 0.31271 0.0
C495 C 0.44565 0.12663 0.25184 0.0
C496 C 0.51726 0.13326 0.25966 0.0
C497 C 0.53627 0.14416 0.39289 0.0
N498 N 0.46845 0.12745 0.25882 0.0
N499 N 0.51355 0.14453 0.38353 0.0
H500 H 0.18473 0.55431 0.7281 0.0
H501 H 0.10176 0.45365 0.6305 0.0
H502 H 0.11247 0.56251 0.72824 0.0
H503 H 0.16675 0.44253 0.72926 0.0
H504 H 0.10654 0.49433 0.64954 0.0
H505 H 0.17962 0.51357 0.71339 0.0
C506 C 0.16781 0.54751 0.72542 0.0
C507 C 0.149 0.56175 0.72961 0.0
C508 C 0.11969 0.48292 0.6671 0.0
C509 C 0.14307 0.5154 0.71142 0.0
C510 C 0.11703 0.45978 0.65591 0.0
C511 C 0.13385 0.44474 0.67855 0.0
C512 C 0.13948 0.49102 0.69978 0.0
C513 C 0.1533 0.45353 0.71141 0.0
C514 C 0.16491 0.52432 0.71711 0.0
C515 C 0.12743 0.5521 0.72577 0.0
N516 N 0.15565 0.47611 0.72061 0.0
N517 N 0.12504 0.52952 0.71616 0.0
H518 H 0.55869 0.82253 0.26949 0.0
H519 H 0.45212 0.90003 0.34493 0.0
H520 H 0.56263 0.89516 0.26447 0.0
H521 H 0.44625 0.83286 0.2567 0.0
H522 H 0.49308 0.89791 0.32903 0.0
H523 H 0.51761 0.82525 0.2773 0.0
C524 C 0.55089 0.83904 0.2698 0.0
C525 C 0.56403 0.85865 0.26641 0.0
C526 C 0.48277 0.8837 0.31292 0.0
C527 C 0.51719 0.86187 0.27631 0.0
C528 C 0.45945 0.88485 0.32232 0.0
C529 C 0.4458 0.86659 0.30213 0.0
C530 C 0.49249 0.86401 0.28442 0.0
C531 C 0.45616 0.84736 0.27276 0.0
C532 C 0.52748 0.84057 0.27404 0.0
C533 C 0.55308 0.87962 0.2667 0.0
N534 N 0.47891 0.84649 0.26533 0.0
N535 N 0.53027 0.88069 0.27235 0.0
H536 H 0.88077 0.94064 0.46292 0.0
H537 H 0.8147 0.05451 0.55864 0.0
H538 H 0.83409 0.94713 0.64193 0.0
H539 H 0.8724 0.05266 0.41566 0.0
H540 H 0.81839 0.014 0.57761 0.0
H541 H 0.87493 0.98047 0.434 0.0
C542 C 0.86923 0.95037 0.49602 0.0
C543 C 0.85798 0.94046 0.55523 0.0
C544 C 0.83019 0.02241 0.54181 0.0
C545 C 0.85114 0.9861 0.52196 0.0
C546 C 0.82805 0.04557 0.53062 0.0
C547 C 0.84334 0.05709 0.48569 0.0
C548 C 0.84768 0.01052 0.50757 0.0
C549 C 0.86027 0.04451 0.45092 0.0
C550 C 0.86595 0.97314 0.47949 0.0
C551 C 0.84323 0.954 0.59606 0.0
N552 N 0.86203 0.02192 0.46274 0.0
N553 N 0.84024 0.97608 0.57862 0.0
H554 H 0.03919 0.12978 0.56161 0.0
H555 H 0.93469 0.12421 0.29271 0.0
H556 H 0.04182 0.1569 0.34413 0.0
H557 H 0.92548 0.13488 0.52289 0.0
H558 H 0.9755 0.12825 0.30931 0.0
H559 H 0.99837 0.12406 0.54722 0.0
C560 C 0.03118 0.13453 0.51101 0.0
C561 C 0.0438 0.14397 0.45417 0.0
C562 C 0.96448 0.12962 0.35607 0.0
C563 C 0.99759 0.13701 0.4369 0.0
C564 C 0.94128 0.12721 0.34674 0.0
C565 C 0.92674 0.12937 0.40645 0.0
C566 C 0.97319 0.13368 0.42579 0.0
C567 C 0.93613 0.13331 0.47534 0.0
C568 C 0.00798 0.1313 0.50292 0.0
C569 C 0.03266 0.1498 0.38959 0.0
N570 N 0.95881 0.13523 0.48326 0.0
N571 N 0.01021 0.14604 0.38246 0.0
H572 H 0.18667 0.95676 0.5612 0.0
H573 H 0.11993 0.06847 0.44906 0.0
H574 H 0.12538 0.95624 0.43495 0.0
H575 H 0.17097 0.06632 0.61618 0.0
H576 H 0.12555 0.02822 0.42785 0.0
H577 H 0.18501 0.99783 0.56543 0.0
C578 C 0.17297 0.96528 0.53372 0.0
C579 C 0.15601 0.95304 0.49823 0.0
C580 C 0.13557 0.03661 0.46892 0.0
C581 C 0.15401 1.00005 0.5031 0.0
C582 C 0.13242 0.0596 0.48102 0.0
C583 C 0.14486 0.07078 0.53501 0.0
C584 C 0.15138 0.02473 0.51068 0.0
C585 C 0.16084 0.05838 0.57451 0.0
C586 C 0.17201 0.98873 0.53642 0.0
C587 C 0.13872 0.96501 0.46339 0.0
N588 N 0.1636 0.03601 0.56167 0.0
N589 N 0.1381 0.98787 0.46702 0.0
H590 H 0.06568 0.83133 0.37491 0.0
H591 H 0.95891 0.88319 0.5777 0.0
H592 H 0.0712 0.88021 0.54804 0.0
H593 H 0.9559 0.82353 0.44362 0.0
H594 H 1.00006 0.88247 0.56836 0.0
H595 H 0.02535 0.82832 0.3994 0.0
C596 C 0.05846 0.84134 0.41833 0.0
C597 C 0.07187 0.85614 0.45917 0.0
C598 C 0.99038 0.86943 0.54158 0.0
C599 C 0.02562 0.85288 0.48716 0.0
C600 C 0.96689 0.86984 0.54687 0.0
C601 C 0.95393 0.85349 0.511 0.0
C602 C 0.00093 0.85269 0.49951 0.0
C603 C 0.96519 0.83654 0.47196 0.0
C604 C 0.03542 0.83957 0.43242 0.0
C605 C 0.06155 0.8686 0.51504 0.0
N606 N 0.98801 0.83671 0.46668 0.0
N607 N 0.03901 0.86684 0.52693 0.0
H608 H 0.34128 0.18938 0.25978 0.0
H609 H 0.37774 0.29411 0.0132 0.0
H610 H 0.38411 0.18403 0.07065 0.0
H611 H 0.34749 0.30176 0.22545 0.0
H612 H 0.37676 0.25337 0.02837 0.0
H613 H 0.34026 0.23032 0.24344 0.0
C614 C 0.35043 0.1968 0.21478 0.0
C615 C 0.36284 0.18329 0.16657 0.0
C616 C 0.37032 0.26394 0.07165 0.0
C617 C 0.36165 0.22998 0.14749 0.0
C618 C 0.37078 0.28724 0.06294 0.0
C619 C 0.36277 0.30142 0.11832 0.0
C620 C 0.36167 0.25466 0.13604 0.0
C621 C 0.35399 0.29149 0.18158 0.0
C622 C 0.34987 0.22015 0.20562 0.0
C623 C 0.37441 0.19379 0.10932 0.0
N624 N 0.35368 0.26869 0.18874 0.0
N625 N 0.37349 0.2165 0.10131 0.0
H626 H 0.30889 0.62021 -0.00071 0.0
H627 H 0.20401 0.65953 0.75678 0.0
H628 H 0.31545 0.65994 0.80367 0.0
H629 H 0.19853 0.61415 0.93942 0.0
H630 H 0.24448 0.66265 0.77924 0.0
H631 H 0.26801 0.62107 0.98521 0.0
C632 C 0.30177 0.62933 0.95379 0.0
C633 C 0.31571 0.63989 0.90232 0.0
C634 C 0.23441 0.65205 0.81448 0.0
C635 C 0.26882 0.64076 0.8856 0.0
C636 C 0.21129 0.65024 0.80166 0.0
C637 C 0.19785 0.63645 0.84601 0.0
C638 C 0.24417 0.64004 0.87222 0.0
C639 C 0.20824 0.62487 0.90352 0.0
C640 C 0.27839 0.62972 0.94562 0.0
C641 C 0.30542 0.65144 0.84452 0.0
N642 N 0.23076 0.62691 0.91486 0.0
N643 N 0.28263 0.65146 0.83753 0.0
H644 H 0.59703 0.81013 0.11754 0.0
H645 H 0.66693 0.69748 0.06188 0.0
H646 H 0.66726 0.80605 0.17621 0.0
H647 H 0.59692 0.69612 0.12509 0.0
H648 H 0.66741 0.73839 0.08223 0.0
H649 H 0.59662 0.76917 0.09875 0.0
C650 C 0.61238 0.80062 0.12618 0.0
C651 C 0.63221 0.81145 0.14854 0.0
C652 C 0.65198 0.72908 0.09166 0.0
C653 C 0.63191 0.7648 0.1261 0.0
C654 C 0.65165 0.70581 0.07974 0.0
C655 C 0.63187 0.69342 0.092 0.0
C656 C 0.63224 0.74009 0.11421 0.0
C657 C 0.61256 0.70503 0.11544 0.0
C658 C 0.61209 0.77729 0.1158 0.0
C659 C 0.65159 0.79831 0.15936 0.0
N660 N 0.61317 0.72776 0.12516 0.0
N661 N 0.65103 0.77568 0.14735 0.0
H662 H 0.80843 0.33685 0.79879 0.0
H663 H 0.69731 0.40709 0.85834 0.0
H664 H 0.81081 0.39911 0.91953 0.0
H665 H 0.69756 0.33566 0.90149 0.0
H666 H 0.73871 0.40628 0.85018 0.0
H667 H 0.76701 0.3378 0.80541 0.0
C668 C 0.80021 0.35075 0.82626 0.0
C669 C 0.81295 0.36785 0.85909 0.0
C670 C 0.72961 0.39083 0.86122 0.0
C671 C 0.76592 0.36929 0.86512 0.0
C672 C 0.70609 0.39124 0.86551 0.0
C673 C 0.69412 0.37141 0.88078 0.0
C674 C 0.74108 0.37032 0.86988 0.0
C675 C 0.70624 0.35131 0.89008 0.0
C676 C 0.77668 0.35122 0.83024 0.0
C677 C 0.80154 0.3855 0.89417 0.0
N678 N 0.72909 0.35121 0.88366 0.0
N679 N 0.77861 0.38591 0.89561 0.0
H680 H 0.86023 0.70164 0.76253 0.0
H681 H 0.86195 0.80582 0.49405 0.0
H682 H 0.84493 0.69464 0.53429 0.0
H683 H 0.84739 0.81334 0.72274 0.0
H684 H 0.85805 0.76493 0.50715 0.0
H685 H 0.85787 0.74265 0.74942 0.0
C686 C 0.85621 0.70869 0.7098 0.0
C687 C 0.85288 0.69463 0.64935 0.0
C688 C 0.85549 0.77559 0.55424 0.0
C689 C 0.8505 0.74154 0.63386 0.0
C690 C 0.85777 0.79892 0.54687 0.0
C691 C 0.85509 0.81308 0.60744 0.0
C692 C 0.85095 0.7663 0.62292 0.0
C693 C 0.84962 0.80314 0.67453 0.0
C694 C 0.85482 0.73209 0.70243 0.0
C695 C 0.84766 0.70476 0.58239 0.0
N696 N 0.84803 0.78036 0.68066 0.0
N697 N 0.84692 0.72759 0.57623 0.0
H698 H 0.79341 0.09559 0.34324 0.0
H699 H 0.68297 0.16964 0.32072 0.0
H700 H 0.79519 0.16663 0.39296 0.0
H701 H 0.68147 0.10324 0.41617 0.0
H702 H 0.72436 0.16804 0.31959 0.0
H703 H 0.75202 0.09721 0.34216 0.0
C704 C 0.78507 0.11154 0.35329 0.0
C705 C 0.79761 0.13101 0.36836 0.0
C706 C 0.71488 0.15387 0.34073 0.0
C707 C 0.75066 0.133 0.36599 0.0
C708 C 0.69138 0.15473 0.34119 0.0
C709 C 0.6789 0.13661 0.36898 0.0
C710 C 0.72585 0.13449 0.36625 0.0
C711 C 0.69053 0.11766 0.39496 0.0
C712 C 0.76156 0.1124 0.35309 0.0
C713 C 0.78606 0.15124 0.38155 0.0
N714 N 0.71341 0.11698 0.3923 0.0
N715 N 0.76318 0.15177 0.37941 0.0
H716 H 0.15738 0.31094 0.71653 0.0
H717 H 0.11837 0.20352 0.48604 0.0
H718 H 0.11105 0.31455 0.53608 0.0
H719 H 0.16191 0.19987 0.67374 0.0
H720 H 0.11782 0.24448 0.49749 0.0
H721 H 0.16115 0.27051 0.69639 0.0
C722 C 0.14799 0.30324 0.67261 0.0
C723 C 0.13377 0.31615 0.62816 0.0
C724 C 0.12759 0.23472 0.5359 0.0
C725 C 0.13809 0.26979 0.60467 0.0
C726 C 0.12798 0.2113 0.52931 0.0
C727 C 0.14009 0.19815 0.57933 0.0
C728 C 0.13937 0.24511 0.59292 0.0
C729 C 0.15225 0.20926 0.6341 0.0
C730 C 0.15019 0.28013 0.66109 0.0
C731 C 0.1221 0.30524 0.57194 0.0
N732 N 0.15147 0.23207 0.63964 0.0
N733 N 0.12449 0.28267 0.56189 0.0
H734 H 0.31665 0.88461 0.44973 0.0
H735 H 0.19904 0.83514 0.31202 0.0
H736 H 0.31081 0.83832 0.26957 0.0
H737 H 0.20659 0.87569 0.50555 0.0
H738 H 0.23997 0.83472 0.29803 0.0
H739 H 0.27637 0.88066 0.47238 0.0
C740 C 0.3069 0.8736 0.41487 0.0
C741 C 0.31712 0.86187 0.35738 0.0
C742 C 0.23267 0.84353 0.3439 0.0
C743 C 0.27089 0.85723 0.38318 0.0
C744 C 0.20928 0.84375 0.35205 0.0
C745 C 0.19929 0.85562 0.40978 0.0
C746 C 0.24618 0.85538 0.39354 0.0
C747 C 0.21347 0.8664 0.46 0.0
C748 C 0.28388 0.87128 0.42804 0.0
C749 C 0.30363 0.84774 0.31436 0.0
N750 N 0.23615 0.86617 0.45033 0.0
N751 N 0.28118 0.8459 0.32791 0.0
H752 H 0.20485 0.07321 0.8122 0.0
H753 H 0.30152 0.1373 0.03324 0.0
H754 H 0.21587 0.14496 0.79693 0.0
H755 H 0.30199 0.06559 0.99377 0.0
H756 H 0.26694 0.14041 0.96141 0.0
H757 H 0.2377 0.07018 0.89148 0.0
C758 C 0.21421 0.08834 0.82537 0.0
C759 C 0.20765 0.10937 0.79763 0.0
C760 C 0.27455 0.12399 0.96894 0.0
C761 C 0.24514 0.10603 0.88921 0.0
C762 C 0.29416 0.12216 0.01048 0.0
C763 C 0.30467 0.10113 0.01943 0.0
C764 C 0.26525 0.10464 0.93681 0.0
C765 C 0.29449 0.08213 0.98808 0.0
C766 C 0.23297 0.08658 0.87067 0.0
C767 C 0.22042 0.12839 0.81666 0.0
N768 N 0.27538 0.08433 0.94813 0.0
N769 N 0.23851 0.12629 0.86157 0.0
H770 H 0.07536 0.69562 0.98738 0.0
H771 H 0.14864 0.78629 0.20068 0.0
H772 H 0.14789 0.69862 0.9728 0.0
H773 H 0.07763 0.79516 0.15884 0.0
H774 H 0.14846 0.75288 0.12293 0.0
H775 H 0.07555 0.73134 0.05367 0.0
C776 C 0.09131 0.70395 0.99738 0.0
C777 C 0.11164 0.69413 0.97472 0.0
C778 C 0.13294 0.76218 0.1306 0.0
C779 C 0.112 0.73475 0.05164 0.0
C780 C 0.13298 0.78116 0.17541 0.0
C781 C 0.11308 0.79348 0.18648 0.0
C782 C 0.1128 0.75531 0.09731 0.0
C783 C 0.09334 0.78615 0.15184 0.0
C784 C 0.0914 0.72431 0.03526 0.0
C785 C 0.13181 0.70564 0.98905 0.0
N786 N 0.09367 0.76745 0.10914 0.0
N787 N 0.13151 0.72522 0.0274 0.0
H788 H 0.6986 0.86202 0.03346 0.0
H789 H 0.79712 0.93568 0.85485 0.0
H790 H 0.69584 0.93449 0.01477 0.0
H791 H 0.78908 0.86432 0.81686 0.0
H792 H 0.76287 0.93528 0.92899 0.0
H793 H 0.73511 0.86235 0.97127 0.0
C794 C 0.70583 0.87803 0.0173 0.0
C795 C 0.69413 0.89826 0.02897 0.0
C796 C 0.76862 0.91973 0.90439 0.0
C797 C 0.73574 0.89873 0.95755 0.0
C798 C 0.78816 0.91993 0.86207 0.0
C799 C 0.79589 0.90003 0.82925 0.0
C800 C 0.75688 0.89942 0.91469 0.0
C801 C 0.78362 0.8801 0.84064 0.0
C802 C 0.72656 0.87818 0.98131 0.0
C803 C 0.70422 0.91849 0.00645 0.0
N804 N 0.76476 0.88029 0.88257 0.0
N805 N 0.72442 0.91821 0.97167 0.0
H806 H 0.85208 0.29248 0.01913 0.0
H807 H 0.91914 0.188 0.1898 0.0
H808 H 0.92445 0.28939 0.03918 0.0
H809 H 0.84737 0.19635 0.21629 0.0
H810 H 0.92081 0.22412 0.12714 0.0
H811 H 0.84937 0.25599 0.08184 0.0
C812 C 0.86739 0.28405 0.03596 0.0
C813 C 0.88853 0.29403 0.02387 0.0
C814 C 0.90468 0.21817 0.1469 0.0
C815 C 0.88554 0.25244 0.0959 0.0
C816 C 0.90371 0.19751 0.18285 0.0
C817 C 0.88309 0.18912 0.20854 0.0
C818 C 0.88484 0.23059 0.13559 0.0
C819 C 0.86366 0.20225 0.19783 0.0
C820 C 0.86582 0.26332 0.07224 0.0
C821 C 0.90779 0.28241 0.04743 0.0
N822 N 0.86498 0.22229 0.16172 0.0
N823 N 0.90582 0.26231 0.08214 0.0
H824 H 0.29081 0.35723 0.30283 0.0
H825 H 0.19677 0.43588 0.48188 0.0
H826 H 0.30056 0.42838 0.34018 0.0
H827 H 0.19655 0.36346 0.50357 0.0
H828 H 0.23371 0.43367 0.42329 0.0
H829 H 0.25483 0.35936 0.36775 0.0
C830 C 0.28534 0.37333 0.32429 0.0
C831 C 0.29874 0.39267 0.31589 0.0
C832 C 0.22567 0.41828 0.44138 0.0
C833 C 0.25756 0.3952 0.39037 0.0
C834 C 0.20458 0.41952 0.4749 0.0
C835 C 0.19355 0.39983 0.49776 0.0
C836 C 0.23571 0.39715 0.42952 0.0
C837 C 0.20449 0.37909 0.48721 0.0
C838 C 0.26487 0.37449 0.36178 0.0
C839 C 0.29083 0.41304 0.34536 0.0
N840 N 0.22487 0.37827 0.45323 0.0
N841 N 0.27074 0.41379 0.38095 0.0
H842 H 0.39507 0.71941 0.76197 0.0
H843 H 0.38304 0.79339 0.40509 0.0
H844 H 0.39288 0.68866 0.54946 0.0
H845 H 0.41978 0.81645 0.5933 0.0
H846 H 0.38074 0.75569 0.46001 0.0
H847 H 0.39792 0.75652 0.70409 0.0
C848 C 0.39508 0.72049 0.7032 0.0
C849 C 0.39384 0.70099 0.66035 0.0
C850 C 0.38941 0.76904 0.48881 0.0
C851 C 0.39683 0.74321 0.59416 0.0
C852 C 0.39072 0.79048 0.45764 0.0
C853 C 0.40172 0.80798 0.49457 0.0
C854 C 0.39869 0.76534 0.55796 0.0
C855 C 0.41132 0.80338 0.56266 0.0
C856 C 0.39682 0.74161 0.6703 0.0
C857 C 0.39398 0.70331 0.5844 0.0
N858 N 0.40938 0.78256 0.59253 0.0
N859 N 0.3953 0.72409 0.5536 0.0
H860 H 0.69326 0.5704 0.22909 0.0
H861 H 0.78411 0.64447 0.43926 0.0
H862 H 0.69527 0.643 0.21594 0.0
H863 H 0.79295 0.5734 0.39768 0.0
H864 H 0.75044 0.64412 0.36269 0.0
H865 H 0.72916 0.57094 0.29401 0.0
C866 C 0.7014 0.58644 0.23914 0.0
C867 C 0.69126 0.60669 0.21726 0.0
C868 C 0.7598 0.62863 0.37015 0.0
C869 C 0.73212 0.60746 0.29261 0.0
C870 C 0.77893 0.62877 0.41425 0.0
C871 C 0.79131 0.6089 0.42511 0.0
C872 C 0.75285 0.60842 0.33736 0.0
C873 C 0.78391 0.5891 0.39086 0.0
C874 C 0.72188 0.58674 0.27624 0.0
C875 C 0.70254 0.62699 0.23161 0.0
N876 N 0.76509 0.58933 0.34888 0.0
N877 N 0.72226 0.62688 0.26917 0.0
H878 H 0.56759 0.20398 0.58461 0.0
H879 H 0.64583 0.30273 0.74119 0.0
H880 H 0.63942 0.20557 0.54833 0.0
H881 H 0.57342 0.30672 0.72531 0.0
H882 H 0.64451 0.26553 0.68225 0.0
H883 H 0.57009 0.24018 0.64649 0.0
C884 C 0.58393 0.21198 0.58944 0.0
C885 C 0.60332 0.20169 0.56094 0.0
C886 C 0.62894 0.27456 0.69201 0.0
C887 C 0.60635 0.24332 0.63284 0.0
C888 C 0.62966 0.29569 0.72614 0.0
C889 C 0.6097 0.30788 0.73824 0.0
C890 C 0.60809 0.26547 0.67062 0.0
C891 C 0.58924 0.29801 0.71696 0.0
C892 C 0.58534 0.23271 0.62489 0.0
C893 C 0.62401 0.21294 0.56904 0.0
N894 N 0.58898 0.27746 0.68438 0.0
N895 N 0.62501 0.23312 0.60456 0.0
H896 H 0.34759 0.14225 0.49575 0.0
H897 H 0.39256 0.09572 0.8779 0.0
H898 H 0.38893 0.08274 0.51693 0.0
H899 H 0.35437 0.15718 0.85315 0.0
H900 H 0.39189 0.09075 0.74584 0.0
H901 H 0.34969 0.1477 0.62711 0.0
C902 C 0.35701 0.13025 0.52804 0.0
C903 C 0.36807 0.11199 0.49523 0.0
C904 C 0.38377 0.10538 0.76934 0.0
C905 C 0.3707 0.11822 0.64579 0.0
C906 C 0.38422 0.10827 0.84472 0.0
C907 C 0.37346 0.12687 0.87671 0.0
C908 C 0.37242 0.12116 0.72571 0.0
C909 C 0.36286 0.14256 0.83099 0.0
C910 C 0.35829 0.13343 0.60308 0.0
C911 C 0.38011 0.09704 0.53987 0.0
N912 N 0.36252 0.13929 0.75796 0.0
N913 N 0.38111 0.10049 0.61283 0.0
H914 H 0.09843 0.60437 0.48992 0.0
H915 H 0.17345 0.64218 0.14955 0.0
H916 H 0.15892 0.64444 0.50727 0.0
H917 H 0.11049 0.60629 0.12866 0.0
H918 H 0.16949 0.64095 0.28128 0.0
H919 H 0.10339 0.60318 0.35814 0.0
C920 C 0.11274 0.61296 0.46604 0.0
C921 C 0.12826 0.62459 0.5097 0.0
C922 C 0.15657 0.63325 0.24799 0.0
C923 C 0.13409 0.62317 0.35892 0.0
C924 C 0.15884 0.63389 0.17266 0.0
C925 C 0.14221 0.62441 0.12794 0.0
C926 C 0.13751 0.62308 0.27909 0.0
C927 C 0.1237 0.61385 0.16106 0.0
C928 C 0.11557 0.61223 0.39078 0.0
C929 C 0.1465 0.63535 0.47575 0.0
N930 N 0.12179 0.61355 0.23472 0.0
N931 N 0.1489 0.63437 0.40241 0.0
H932 H 0.64756 0.8496 0.48795 0.0
H933 H 0.60731 0.9023 0.86824 0.0
H934 H 0.60939 0.91131 0.50553 0.0
H935 H 0.64294 0.83918 0.84765 0.0
H936 H 0.60735 0.90583 0.73552 0.0
H937 H 0.64601 0.84563 0.62009 0.0
C938 C 0.63892 0.86236 0.51957 0.0
C939 C 0.62863 0.88083 0.48552 0.0
C940 C 0.61507 0.89116 0.76013 0.0
C941 C 0.62668 0.87635 0.637 0.0
C942 C 0.61498 0.88911 0.83589 0.0
C943 C 0.62517 0.87044 0.86922 0.0
C944 C 0.62547 0.87445 0.71746 0.0
C945 C 0.63492 0.8539 0.8245 0.0
C946 C 0.63797 0.86005 0.59507 0.0
C947 C 0.61759 0.89679 0.52937 0.0
N948 N 0.6349 0.85634 0.75112 0.0
N949 N 0.61691 0.89419 0.60275 0.0
H950 H 0.87744 0.42973 0.15357 0.0
H951 H 0.86656 0.36307 0.52789 0.0
H952 H 0.88402 0.35747 0.17356 0.0
H953 H 0.88678 0.43296 0.52113 0.0
H954 H 0.86745 0.36203 0.39542 0.0
H955 H 0.87631 0.43253 0.28691 0.0
C956 C 0.87874 0.41452 0.18583 0.0
C957 C 0.8808 0.39335 0.15238 0.0
C958 C 0.8717 0.3776 0.42293 0.0
C959 C 0.87916 0.39641 0.3038 0.0
C960 C 0.87108 0.37824 0.49852 0.0
C961 C 0.87673 0.39809 0.53551 0.0
C962 C 0.87775 0.39702 0.38392 0.0
C963 C 0.88246 0.41725 0.49461 0.0
C964 C 0.8781 0.41613 0.26169 0.0
C965 C 0.88243 0.37417 0.19677 0.0
N966 N 0.88279 0.41627 0.42078 0.0
N967 N 0.88141 0.37616 0.27002 0.0
H968 H 0.37679 0.32048 0.44102 0.0
H969 H 0.40011 0.40703 0.76488 0.0
H970 H 0.39444 0.39032 0.40695 0.0
H971 H 0.37293 0.34003 0.7924 0.0
H972 H 0.40393 0.39976 0.63443 0.0
H973 H 0.38235 0.32563 0.57113 0.0
C974 C 0.38217 0.33682 0.46078 0.0
C975 C 0.38473 0.35511 0.41332 0.0
C976 C 0.39722 0.38666 0.66923 0.0
C977 C 0.39082 0.3612 0.56211 0.0
C978 C 0.39495 0.39083 0.74351 0.0
C979 C 0.38594 0.37421 0.7893 0.0
C980 C 0.39053 0.36571 0.64097 0.0
C981 C 0.37971 0.35343 0.75899 0.0
C982 C 0.38524 0.33978 0.53512 0.0
C983 C 0.39199 0.37583 0.44181 0.0
N984 N 0.38207 0.34981 0.68671 0.0
N985 N 0.39448 0.37841 0.51464 0.0
H986 H 0.34974 0.61903 0.22414 0.0
H987 H 0.40411 0.60373 0.61682 0.0
H988 H 0.41552 0.58976 0.25747 0.0
H989 H 0.33435 0.62101 0.58068 0.0
H990 H 0.40839 0.59669 0.48648 0.0
H991 H 0.34374 0.61899 0.3553 0.0
C992 C 0.36294 0.61259 0.25905 0.0
C993 C 0.38323 0.60453 0.22976 0.0
C994 C 0.39207 0.60173 0.50728 0.0
C995 C 0.37645 0.6044 0.38031 0.0
C996 C 0.38959 0.60565 0.58177 0.0
C997 C 0.36889 0.61321 0.6097 0.0
C998 C 0.37379 0.60556 0.46044 0.0
C999 C 0.35067 0.6154 0.56162 0.0
C1000 C 0.35945 0.61246 0.33401 0.0
C1001 C 0.39965 0.59621 0.2777 0.0
N1002 N 0.35363 0.61188 0.48933 0.0
N1003 N 0.39596 0.59651 0.35068 0.0
H1004 H 0.64503 0.65469 0.75466 0.0
H1005 H 0.60397 0.60334 0.3737 0.0
H1006 H 0.6057 0.59374 0.73644 0.0
H1007 H 0.6406 0.66584 0.39532 0.0
H1008 H 0.60389 0.59958 0.50637 0.0
H1009 H 0.64356 0.65889 0.62263 0.0
C1010 C 0.63614 0.64215 0.72292 0.0
C1011 C 0.6255 0.62382 0.75677 0.0
C1012 C 0.61185 0.61416 0.482 0.0
C1013 C 0.62366 0.62857 0.60536 0.0
C1014 C 0.61183 0.61635 0.40627 0.0
C1015 C 0.62234 0.63491 0.37324 0.0
C1016 C 0.6225 0.63063 0.52494 0.0
C1017 C 0.63233 0.65121 0.41823 0.0
C1018 C 0.63525 0.64459 0.64748 0.0
C1019 C 0.61417 0.60814 0.71276 0.0
N1020 N 0.63223 0.64865 0.49157 0.0
N1021 N 0.61355 0.61086 0.63941 0.0
H1022 H 0.67146 0.36613 0.56754 0.0
H1023 H 0.59551 0.40369 0.22974 0.0
H1024 H 0.60673 0.3986 0.59069 0.0
H1025 H 0.65711 0.36542 0.21014 0.0
H1026 H 0.60053 0.40455 0.36153 0.0
H1027 H 0.66789 0.36875 0.43593 0.0
C1028 C 0.65655 0.37397 0.54497 0.0
C1029 C 0.63929 0.38204 0.59021 0.0
C1030 C 0.61295 0.39599 0.32835 0.0
C1031 C 0.63504 0.38496 0.4393 0.0
C1032 C 0.61009 0.39548 0.25312 0.0
C1033 C 0.62587 0.38438 0.2089 0.0
C1034 C 0.63175 0.3854 0.35954 0.0
C1035 C 0.64447 0.37408 0.24214 0.0
C1036 C 0.65449 0.3754 0.46972 0.0
C1037 C 0.62041 0.3921 0.55783 0.0
N1038 N 0.64688 0.37483 0.31546 0.0
N1039 N 0.61872 0.39318 0.48425 0.0
H1040 H 0.90212 0.59154 0.00133 0.0
H1041 H 0.86875 0.67408 0.32811 0.0
H1042 H 0.87397 0.65809 0.97359 0.0
H1043 H 0.88509 0.60386 0.35996 0.0
H1044 H 0.87677 0.66993 0.19899 0.0
H1045 H 0.9012 0.597 0.13333 0.0
C1046 C 0.8958 0.60731 0.02294 0.0
C1047 C 0.88793 0.62432 0.97638 0.0
C1048 C 0.8788 0.65545 0.23421 0.0
C1049 C 0.88706 0.63072 0.12701 0.0
C1050 C 0.87431 0.65783 0.30811 0.0
C1051 C 0.87599 0.63922 0.35481 0.0
C1052 C 0.88496 0.63429 0.20648 0.0
C1053 C 0.88348 0.61863 0.32583 0.0
C1054 C 0.89531 0.61041 0.09823 0.0
C1055 C 0.88002 0.64443 0.00735 0.0
N1056 N 0.88747 0.61665 0.25325 0.0
N1057 N 0.87976 0.64705 0.08063 0.0
H1058 H 0.59261 0.10443 0.66856 0.0
H1059 H 0.64827 0.12903 0.05329 0.0
H1060 H 0.66113 0.12731 0.69661 0.0
H1061 H 0.58475 0.09436 0.02923 0.0
H1062 H 0.65366 0.12718 0.92214 0.0
H1063 H 0.58984 0.09866 0.79988 0.0
C1064 C 0.60716 0.10796 0.70219 0.0
C1065 C 0.62703 0.11665 0.67178 0.0
C1066 C 0.6386 0.11983 0.94548 0.0
C1067 C 0.62391 0.11031 0.82171 0.0
C1068 C 0.63546 0.12099 0.02036 0.0
C1069 C 0.61592 0.11204 0.05203 0.0
C1070 C 0.62196 0.10986 0.9018 0.0
C1071 C 0.6 0.10158 0.0069 0.0
C1072 C 0.60556 0.10469 0.77711 0.0
C1073 C 0.6454 0.12081 0.71778 0.0
N1074 N 0.60327 0.10097 0.93384 0.0
N1075 N 0.6433 0.11785 0.79053 0.0
H1076 H 0.10302 0.40448 0.34641 0.0
H1077 H 0.14299 0.35507 0.96248 0.0
H1078 H 0.13946 0.34199 0.32038 0.0
H1079 H 0.10323 0.41564 0.98486 0.0
H1080 H 0.14164 0.35006 0.09396 0.0
H1081 H 0.1021 0.40863 0.21414 0.0
C1082 C 0.11065 0.39154 0.31291 0.0
C1083 C 0.12141 0.37291 0.34449 0.0
C1084 C 0.1332 0.36446 0.07018 0.0
C1085 C 0.12062 0.37765 0.19338 0.0
C1086 C 0.13404 0.36737 0.99507 0.0
C1087 C 0.12326 0.38584 0.96264 0.0
C1088 C 0.12154 0.38014 0.11332 0.0
C1089 C 0.11182 0.40118 0.00758 0.0
C1090 C 0.11019 0.39395 0.23744 0.0
C1091 C 0.13104 0.35667 0.29847 0.0
N1092 N 0.11128 0.398 0.08069 0.0
N1093 N 0.13051 0.35949 0.22532 0.0
H1094 H 0.35638 0.85171 0.01734 0.0
H1095 H 0.40459 0.89559 0.63557 0.0
H1096 H 0.41534 0.89391 0.99765 0.0
H1097 H 0.34325 0.85714 0.65903 0.0
H1098 H 0.40874 0.89569 0.768 0.0
H1099 H 0.35152 0.85345 0.88566 0.0
C1100 C 0.36836 0.86127 0.98533 0.0
C1101 C 0.38632 0.87265 0.01865 0.0
C1102 C 0.39431 0.88734 0.74411 0.0
C1103 C 0.38079 0.87481 0.86768 0.0
C1104 C 0.39189 0.88736 0.66852 0.0
C1105 C 0.37357 0.8763 0.63609 0.0
C1106 C 0.37833 0.87613 0.78749 0.0
C1107 C 0.35768 0.86584 0.68152 0.0
C1108 C 0.36553 0.86233 0.9101 0.0
C1109 C 0.40126 0.88486 0.97434 0.0
N1110 N 0.36049 0.86592 0.75474 0.0
N1111 N 0.39817 0.8856 0.90118 0.0
H1112 H 0.90961 0.91367 0.2557 0.0
H1113 H 0.87216 0.83306 0.92869 0.0
H1114 H 0.87972 0.84788 0.28339 0.0
H1115 H 0.89098 0.90269 0.89757 0.0
H1116 H 0.88083 0.83661 0.05749 0.0
H1117 H 0.90806 0.90852 0.12365 0.0
C1118 C 0.90281 0.89811 0.23408 0.0
C1119 C 0.89461 0.88125 0.28067 0.0
C1120 C 0.88326 0.85109 0.02251 0.0
C1121 C 0.89296 0.87521 0.12989 0.0
C1122 C 0.87839 0.84906 0.94877 0.0
C1123 C 0.8806 0.86769 0.90236 0.0
C1124 C 0.89034 0.87193 0.05041 0.0
C1125 C 0.88894 0.88791 0.93146 0.0
C1126 C 0.90194 0.8952 0.15873 0.0
C1127 C 0.88605 0.86142 0.24963 0.0
N1128 N 0.8933 0.88958 0.00389 0.0
N1129 N 0.88541 0.85899 0.1763 0.0
H1130 H 0.88326 0.09831 0.07474 0.0
H1131 H 0.83466 0.13856 0.69081 0.0
H1132 H 0.82043 0.13407 0.04822 0.0
H1133 H 0.8949 0.09836 0.71357 0.0
H1134 H 0.82907 0.13663 0.82202 0.0
H1135 H 0.88739 0.09704 0.94254 0.0
C1136 C 0.87022 0.10568 0.04115 0.0
C1137 C 0.85153 0.11642 0.07257 0.0
C1138 C 0.8435 0.1282 0.79836 0.0
C1139 C 0.85628 0.11525 0.9215 0.0
C1140 C 0.84676 0.12938 0.72343 0.0
C1141 C 0.86532 0.11867 0.69121 0.0
C1142 C 0.85896 0.11629 0.84153 0.0
C1143 C 0.88037 0.10691 0.73615 0.0
C1144 C 0.87263 0.10501 0.9657 0.0
C1145 C 0.83517 0.1257 0.02642 0.0
N1146 N 0.87689 0.10607 0.80908 0.0
N1147 N 0.83801 0.12503 0.95327 0.0
H1148 H 0.11286 0.10872 0.86662 0.0
H1149 H 0.12596 0.16191 0.26326 0.0
H1150 H 0.13568 0.17659 0.9084 0.0
H1151 H 0.09677 0.09632 0.22481 0.0
H1152 H 0.12826 0.16784 0.13246 0.0
H1153 H 0.1047 0.10432 0.99635 0.0
C1154 C 0.11583 0.12281 0.90282 0.0
C1155 C 0.12517 0.14299 0.87673 0.0
C1156 C 0.12127 0.15216 0.15248 0.0
C1157 C 0.11616 0.13797 0.02507 0.0
C1158 C 0.12005 0.14872 0.22728 0.0
C1159 C 0.11129 0.12852 0.25505 0.0
C1160 C 0.11382 0.13523 0.10482 0.0
C1161 C 0.10372 0.11212 0.20574 0.0
C1162 C 0.11126 0.12025 0.97691 0.0
C1163 C 0.12869 0.16066 0.92612 0.0
N1164 N 0.10528 0.11578 0.13295 0.0
N1165 N 0.12438 0.15767 0.99789 0.0
H1166 H 0.16531 0.87823 0.72957 0.0
H1167 H 0.10958 0.8891 0.12324 0.0
H1168 H 0.09907 0.90627 0.76469 0.0
H1169 H 0.17827 0.86829 0.08472 0.0
H1170 H 0.10587 0.89794 0.99372 0.0
H1171 H 0.17069 0.87627 0.86064 0.0
C1172 C 0.15188 0.88401 0.76487 0.0
C1173 C 0.13163 0.89227 0.73605 0.0
C1174 C 0.12182 0.89169 0.01387 0.0
C1175 C 0.13769 0.89006 0.8867 0.0
C1176 C 0.12398 0.88673 0.08785 0.0
C1177 C 0.1442 0.87772 0.11476 0.0
C1178 C 0.13998 0.88751 0.96661 0.0
C1179 C 0.16229 0.87498 0.06637 0.0
C1180 C 0.155 0.88297 0.83985 0.0
C1181 C 0.11492 0.8997 0.78456 0.0
N1182 N 0.15968 0.87964 0.99468 0.0
N1183 N 0.11825 0.89827 0.85757 0.0
loop_
_geom_bond_atom_site_label_1
_geom_bond_atom_site_label_2
_geom_bond_distance
_geom_bond_site_symmetry_2
_ccdc_geom_bond_type
Zn0 O6 1.969 1_554 S
Zn0 O7 1.965 . S
Zn0 O11 2.024 . S
Zn0 O16 1.969 . S
Zn1 O8 1.969 . S
Zn1 O14 1.969 . S
Zn1 O15 1.965 . S
Zn1 O17 2.024 . S
C2 O3 1.229 1_554 S
C2 O11 1.058 . S
O3 C2 1.229 1_556 S
C4 O5 1.229 . S
C4 O17 1.058 . S
O5 C4 1.229 . S
O6 Zn0 1.969 1_556 S
O6 C9 1.267 . S
O7 Zn0 1.965 . S
O7 C18 1.260 . S
O8 Zn1 1.969 . S
O8 C18 1.258 . S
C9 O6 1.267 . S
C9 O10 1.228 . S
O10 C9 1.228 . S
O11 Zn0 2.024 . S
O11 C2 1.058 . S
C12 O13 1.228 . S
C12 O14 1.267 . S
O13 C12 1.228 . S
O14 Zn1 1.969 . S
O14 C12 1.267 . S
O15 Zn1 1.965 . S
O15 C19 1.260 . S
O16 Zn0 1.969 . S
O16 C19 1.258 . S
O17 Zn1 2.024 . S
O17 C4 1.058 . S
C18 O7 1.260 . S
C18 O8 1.258 . S
C19 O15 1.260 . S
C19 O16 1.258 . S
Zn20 O26 1.969 . S
Zn20 O27 1.965 . S
Zn20 O31 2.024 . S
Zn20 O36 1.969 . S
Zn21 O28 1.969 . S
Zn21 O34 1.969 1_556 S
Zn21 O35 1.965 . S
Zn21 O37 2.024 . S
C22 O23 1.229 . S
C22 O31 1.058 . S
O23 C22 1.229 . S
C24 O25 1.229 1_556 S
C24 O37 1.058 . S
O25 C24 1.229 1_554 S
O26 Zn20 1.969 . S
O26 C29 1.267 . S
O27 Zn20 1.965 . S
O27 C38 1.260 . S
O28 Zn21 1.969 . S
O28 C38 1.258 . S
C29 O26 1.267 . S
C29 O30 1.228 . S
O30 C29 1.228 . S
O31 Zn20 2.024 . S
O31 C22 1.058 . S
C32 O33 1.228 . S
C32 O34 1.267 . S
O33 C32 1.228 . S
O34 Zn21 1.969 1_554 S
O34 C32 1.267 . S
O35 Zn21 1.965 . S
O35 C39 1.260 . S
O36 Zn20 1.969 . S
O36 C39 1.258 . S
O37 Zn21 2.024 . S
O37 C24 1.058 . S
C38 O27 1.260 . S
C38 O28 1.258 . S
C39 O35 1.260 . S
C39 O36 1.258 . S
Zn40 O46 1.969 1_554 S
Zn40 O47 1.965 . S
Zn40 O51 2.024 . S
Zn40 O56 1.969 . S
Zn41 O48 1.969 . S
Zn41 O54 1.969 . S
Zn41 O55 1.965 . S
Zn41 O57 2.024 . S
C42 O43 1.229 1_554 S
C42 O51 1.058 . S
O43 C42 1.229 1_556 S
C44 O45 1.229 . S
C44 O57 1.058 . S
O45 C44 1.229 . S
O46 Zn40 1.969 1_556 S
O46 C49 1.267 . S
O47 Zn40 1.965 . S
O47 C58 1.260 . S
O48 Zn41 1.969 . S
O48 C58 1.258 . S
C49 O46 1.267 . S
C49 O50 1.228 . S
O50 C49 1.228 . S
O51 Zn40 2.024 . S
O51 C42 1.058 . S
C52 O53 1.228 . S
C52 O54 1.267 . S
O53 C52 1.228 . S
O54 Zn41 1.969 . S
O54 C52 1.267 . S
O55 Zn41 1.965 . S
O55 C59 1.260 . S
O56 Zn40 1.969 . S
O56 C59 1.258 . S
O57 Zn41 2.024 . S
O57 C44 1.058 . S
C58 O47 1.260 . S
C58 O48 1.258 . S
C59 O55 1.260 . S
C59 O56 1.258 . S
Zn60 O66 1.969 . S
Zn60 O67 1.965 . S
Zn60 O71 2.024 . S
Zn60 O76 1.969 . S
Zn61 O68 1.969 . S
Zn61 O74 1.969 1_556 S
Zn61 O75 1.965 . S
Zn61 O77 2.024 . S
C62 O63 1.229 . S
C62 O71 1.058 . S
O63 C62 1.229 . S
C64 O65 1.229 1_556 S
C64 O77 1.058 . S
O65 C64 1.229 1_554 S
O66 Zn60 1.969 . S
O66 C69 1.267 . S
O67 Zn60 1.965 . S
O67 C78 1.260 . S
O68 Zn61 1.969 . S
O68 C78 1.258 . S
C69 O66 1.267 . S
C69 O70 1.228 . S
O70 C69 1.228 . S
O71 Zn60 2.024 . S
O71 C62 1.058 . S
C72 O73 1.228 . S
C72 O74 1.267 . S
O73 C72 1.228 . S
O74 Zn61 1.969 1_554 S
O74 C72 1.267 . S
O75 Zn61 1.965 . S
O75 C79 1.260 . S
O76 Zn60 1.969 . S
O76 C79 1.258 . S
O77 Zn61 2.024 . S
O77 C64 1.058 . S
C78 O67 1.260 . S
C78 O68 1.258 . S
C79 O75 1.260 . S
C79 O76 1.258 . S
Zn80 O86 1.969 . S
Zn80 O87 1.965 . S
Zn80 O91 2.024 . S
Zn80 O96 1.969 . S
Zn81 O88 1.969 . S
Zn81 O94 1.969 1_554 S
Zn81 O95 1.965 . S
Zn81 O97 2.024 . S
C82 O83 1.229 . S
C82 O91 1.058 . S
O83 C82 1.229 . S
C84 O85 1.229 1_554 S
C84 O97 1.058 . S
O85 C84 1.229 1_556 S
O86 Zn80 1.969 . S
O86 C89 1.267 . S
O87 Zn80 1.965 . S
O87 C98 1.260 . S
O88 Zn81 1.969 . S
O88 C98 1.258 . S
C89 O86 1.267 . S
C89 O90 1.228 . S
O90 C89 1.228 . S
O91 Zn80 2.024 . S
O91 C82 1.058 . S
C92 O93 1.228 . S
C92 O94 1.267 . S
O93 C92 1.228 . S
O94 Zn81 1.969 1_556 S
O94 C92 1.267 . S
O95 Zn81 1.965 . S
O95 C99 1.260 . S
O96 Zn80 1.969 . S
O96 C99 1.258 . S
O97 Zn81 2.024 . S
O97 C84 1.058 . S
C98 O87 1.260 . S
C98 O88 1.258 . S
C99 O95 1.260 . S
C99 O96 1.258 . S
Zn100 O106 1.969 1_556 S
Zn100 O107 1.965 . S
Zn100 O111 2.024 . S
Zn100 O116 1.969 . S
Zn101 O108 1.969 . S
Zn101 O114 1.969 . S
Zn101 O115 1.965 . S
Zn101 O117 2.024 . S
C102 O103 1.229 1_556 S
C102 O111 1.058 . S
O103 C102 1.229 1_554 S
C104 O105 1.229 . S
C104 O117 1.058 . S
O105 C104 1.229 . S
O106 Zn100 1.969 1_554 S
O106 C109 1.267 . S
O107 Zn100 1.965 . S
O107 C118 1.260 . S
O108 Zn101 1.969 . S
O108 C118 1.258 . S
C109 O106 1.267 . S
C109 O110 1.228 . S
O110 C109 1.228 . S
O111 Zn100 2.024 . S
O111 C102 1.058 . S
C112 O113 1.228 . S
C112 O114 1.267 . S
O113 C112 1.228 . S
O114 Zn101 1.969 . S
O114 C112 1.267 . S
O115 Zn101 1.965 . S
O115 C119 1.260 . S
O116 Zn100 1.969 . S
O116 C119 1.258 . S
O117 Zn101 2.024 . S
O117 C104 1.058 . S
C118 O107 1.260 . S
C118 O108 1.258 . S
C119 O115 1.260 . S
C119 O116 1.258 . S
Zn120 O126 1.969 . S
Zn120 O127 1.965 . S
Zn120 O131 2.024 . S
Zn120 O136 1.969 . S
Zn121 O128 1.969 . S
Zn121 O134 1.969 1_554 S
Zn121 O135 1.965 . S
Zn121 O137 2.024 . S
C122 O123 1.229 . S
C122 O131 1.058 . S
O123 C122 1.229 . S
C124 O125 1.229 1_554 S
C124 O137 1.058 . S
O125 C124 1.229 1_556 S
O126 Zn120 1.969 . S
O126 C129 1.267 . S
O127 Zn120 1.965 . S
O127 C138 1.260 . S
O128 Zn121 1.969 . S
O128 C138 1.258 . S
C129 O126 1.267 . S
C129 O130 1.228 . S
O130 C129 1.228 . S
O131 Zn120 2.024 . S
O131 C122 1.058 . S
C132 O133 1.228 . S
C132 O134 1.267 . S
O133 C132 1.228 . S
O134 Zn121 1.969 1_556 S
O134 C132 1.267 . S
O135 Zn121 1.965 . S
O135 C139 1.260 . S
O136 Zn120 1.969 . S
O136 C139 1.258 . S
O137 Zn121 2.024 . S
O137 C124 1.058 . S
C138 O127 1.260 . S
C138 O128 1.258 . S
C139 O135 1.260 . S
C139 O136 1.258 . S
Zn140 O146 1.969 1_556 S
Zn140 O147 1.965 . S
Zn140 O151 2.024 . S
Zn140 O156 1.969 . S
Zn141 O148 1.969 . S
Zn141 O154 1.969 . S
Zn141 O155 1.965 . S
Zn141 O157 2.024 . S
C142 O143 1.229 1_556 S
C142 O151 1.058 . S
O143 C142 1.229 1_554 S
C144 O145 1.229 . S
C144 O157 1.058 . S
O145 C144 1.229 . S
O146 Zn140 1.969 1_554 S
O146 C149 1.267 . S
O147 Zn140 1.965 . S
O147 C158 1.260 . S
O148 Zn141 1.969 . S
O148 C158 1.258 . S
C149 O146 1.267 . S
C149 O150 1.228 . S
O150 C149 1.228 . S
O151 Zn140 2.024 . S
O151 C142 1.058 . S
C152 O153 1.228 . S
C152 O154 1.267 . S
O153 C152 1.228 . S
O154 Zn141 1.969 . S
O154 C152 1.267 . S
O155 Zn141 1.965 . S
O155 C159 1.260 . S
O156 Zn140 1.969 . S
O156 C159 1.258 . S
O157 Zn141 2.024 . S
O157 C144 1.058 . S
C158 O147 1.260 . S
C158 O148 1.258 . S
C159 O155 1.260 . S
C159 O156 1.258 . S
Zn160 O166 1.969 . S
Zn160 O167 1.965 . S
Zn160 O171 2.024 . S
Zn160 O176 1.969 . S
Zn161 O168 1.969 . S
Zn161 O174 1.969 . S
Zn161 O175 1.965 . S
Zn161 O177 2.024 . S
C162 O163 1.229 . S
C162 O171 1.058 . S
O163 C162 1.229 . S
C164 O165 1.229 . S
C164 O177 1.058 . S
O165 C164 1.229 . S
O166 Zn160 1.969 . S
O166 C169 1.267 . S
O167 Zn160 1.965 . S
O167 C178 1.260 . S
O168 Zn161 1.969 . S
O168 C178 1.258 . S
C169 O166 1.267 . S
C169 O170 1.228 . S
O170 C169 1.228 . S
O171 Zn160 2.024 . S
O171 C162 1.058 . S
C172 O173 1.228 . S
C172 O174 1.267 . S
O173 C172 1.228 . S
O174 Zn161 1.969 . S
O174 C172 1.267 . S
O175 Zn161 1.965 . S
O175 C179 1.260 . S
O176 Zn160 1.969 . S
O176 C179 1.258 . S
O177 Zn161 2.024 . S
O177 C164 1.058 . S
C178 O167 1.260 . S
C178 O168 1.258 . S
C179 O175 1.260 . S
C179 O176 1.258 . S
Zn180 O186 1.969 . S
Zn180 O187 1.965 . S
Zn180 O191 2.024 . S
Zn180 O196 1.969 . S
Zn181 O188 1.969 . S
Zn181 O194 1.969 . S
Zn181 O195 1.965 . S
Zn181 O197 2.024 . S
C182 O183 1.229 . S
C182 O191 1.058 . S
O183 C182 1.229 . S
C184 O185 1.229 . S
C184 O197 1.058 . S
O185 C184 1.229 . S
O186 Zn180 1.969 . S
O186 C189 1.267 . S
O187 Zn180 1.965 . S
O187 C198 1.260 . S
O188 Zn181 1.969 . S
O188 C198 1.258 . S
C189 O186 1.267 . S
C189 O190 1.228 . S
O190 C189 1.228 . S
O191 Zn180 2.024 . S
O191 C182 1.058 . S
C192 O193 1.228 . S
C192 O194 1.267 . S
O193 C192 1.228 . S
O194 Zn181 1.969 . S
O194 C192 1.267 . S
O195 Zn181 1.965 . S
O195 C199 1.260 . S
O196 Zn180 1.969 . S
O196 C199 1.258 . S
O197 Zn181 2.024 . S
O197 C184 1.058 . S
C198 O187 1.260 . S
C198 O188 1.258 . S
C199 O195 1.260 . S
C199 O196 1.258 . S
Zn200 O206 1.969 . S
Zn200 O207 1.965 . S
Zn200 O211 2.024 . S
Zn200 O216 1.969 . S
Zn201 O208 1.969 . S
Zn201 O214 1.969 . S
Zn201 O215 1.965 . S
Zn201 O217 2.024 . S
C202 O203 1.229 . S
C202 O211 1.058 . S
O203 C202 1.229 . S
C204 O205 1.229 . S
C204 O217 1.058 . S
O205 C204 1.229 . S
O206 Zn200 1.969 . S
O206 C209 1.267 . S
O207 Zn200 1.965 . S
O207 C218 1.260 . S
O208 Zn201 1.969 . S
O208 C218 1.258 . S
C209 O206 1.267 . S
C209 O210 1.228 . S
O210 C209 1.228 . S
O211 Zn200 2.024 . S
O211 C202 1.058 . S
C212 O213 1.228 . S
C212 O214 1.267 . S
O213 C212 1.228 . S
O214 Zn201 1.969 . S
O214 C212 1.267 . S
O215 Zn201 1.965 . S
O215 C219 1.260 . S
O216 Zn200 1.969 . S
O216 C219 1.258 . S
O217 Zn201 2.024 . S
O217 C204 1.058 . S
C218 O207 1.260 . S
C218 O208 1.258 . S
C219 O215 1.260 . S
C219 O216 1.258 . S
Zn220 O226 1.969 . S
Zn220 O227 1.965 . S
Zn220 O231 2.024 . S
Zn220 O236 1.969 . S
Zn221 O228 1.969 . S
Zn221 O234 1.969 . S
Zn221 O235 1.965 . S
Zn221 O237 2.024 . S
C222 O223 1.229 . S
C222 O231 1.058 . S
O223 C222 1.229 . S
C224 O225 1.229 . S
C224 O237 1.058 . S
O225 C224 1.229 . S
O226 Zn220 1.969 . S
O226 C229 1.267 . S
O227 Zn220 1.965 . S
O227 C238 1.260 . S
O228 Zn221 1.969 . S
O228 C238 1.258 . S
C229 O226 1.267 . S
C229 O230 1.228 . S
O230 C229 1.228 . S
O231 Zn220 2.024 . S
O231 C222 1.058 . S
C232 O233 1.228 . S
C232 O234 1.267 . S
O233 C232 1.228 . S
O234 Zn221 1.969 . S
O234 C232 1.267 . S
O235 Zn221 1.965 . S
O235 C239 1.260 . S
O236 Zn220 1.969 . S
O236 C239 1.258 . S
O237 Zn221 2.024 . S
O237 C224 1.058 . S
C238 O227 1.260 . S
C238 O228 1.258 . S
C239 O235 1.260 . S
C239 O236 1.258 . S
Zn240 O246 1.969 . S
Zn240 O247 1.965 . S
Zn240 O251 2.024 . S
Zn240 O256 1.969 . S
Zn241 O248 1.969 . S
Zn241 O254 1.969 . S
Zn241 O255 1.965 . S
Zn241 O257 2.024 . S
C242 O243 1.229 . S
C242 O251 1.058 . S
O243 C242 1.229 . S
C244 O245 1.229 . S
C244 O257 1.058 . S
O245 C244 1.229 . S
O246 Zn240 1.969 . S
O246 C249 1.267 . S
O247 Zn240 1.965 . S
O247 C258 1.260 . S
O248 Zn241 1.969 . S
O248 C258 1.258 . S
C249 O246 1.267 . S
C249 O250 1.228 . S
O250 C249 1.228 . S
O251 Zn240 2.024 . S
O251 C242 1.058 . S
C252 O253 1.228 . S
C252 O254 1.267 . S
O253 C252 1.228 . S
O254 Zn241 1.969 . S
O254 C252 1.267 . S
O255 Zn241 1.965 . S
O255 C259 1.260 . S
O256 Zn240 1.969 . S
O256 C259 1.258 . S
O257 Zn241 2.024 . S
O257 C244 1.058 . S
C258 O247 1.260 . S
C258 O248 1.258 . S
C259 O255 1.260 . S
C259 O256 1.258 . S
Zn260 O266 1.969 . S
Zn260 O267 1.965 . S
Zn260 O271 2.024 . S
Zn260 O276 1.969 . S
Zn261 O268 1.969 . S
Zn261 O274 1.969 . S
Zn261 O275 1.965 . S
Zn261 O277 2.024 . S
C262 O263 1.229 . S
C262 O271 1.058 . S
O263 C262 1.229 . S
C264 O265 1.229 . S
C264 O277 1.058 . S
O265 C264 1.229 . S
O266 Zn260 1.969 . S
O266 C269 1.267 . S
O267 Zn260 1.965 . S
O267 C278 1.260 . S
O268 Zn261 1.969 . S
O268 C278 1.258 . S
C269 O266 1.267 . S
C269 O270 1.228 . S
O270 C269 1.228 . S
O271 Zn260 2.024 . S
O271 C262 1.058 . S
C272 O273 1.228 . S
C272 O274 1.267 . S
O273 C272 1.228 . S
O274 Zn261 1.969 . S
O274 C272 1.267 . S
O275 Zn261 1.965 . S
O275 C279 1.260 . S
O276 Zn260 1.969 . S
O276 C279 1.258 . S
O277 Zn261 2.024 . S
O277 C264 1.058 . S
C278 O267 1.260 . S
C278 O268 1.258 . S
C279 O275 1.260 . S
C279 O276 1.258 . S
Zn280 O286 1.969 . S
Zn280 O287 1.965 . S
Zn280 O291 2.024 . S
Zn280 O296 1.969 . S
Zn281 O288 1.969 . S
Zn281 O294 1.969 . S
Zn281 O295 1.965 . S
Zn281 O297 2.024 . S
C282 O283 1.229 . S
C282 O291 1.058 . S
O283 C282 1.229 . S
C284 O285 1.229 . S
C284 O297 1.058 . S
O285 C284 1.229 . S
O286 Zn280 1.969 . S
O286 C289 1.267 . S
O287 Zn280 1.965 . S
O287 C298 1.260 . S
O288 Zn281 1.969 . S
O288 C298 1.258 . S
C289 O286 1.267 . S
C289 O290 1.228 . S
O290 C289 1.228 . S
O291 Zn280 2.024 . S
O291 C282 1.058 . S
C292 O293 1.228 . S
C292 O294 1.267 . S
O293 C292 1.228 . S
O294 Zn281 1.969 . S
O294 C292 1.267 . S
O295 Zn281 1.965 . S
O295 C299 1.260 . S
O296 Zn280 1.969 . S
O296 C299 1.258 . S
O297 Zn281 2.024 . S
O297 C284 1.058 . S
C298 O287 1.260 . S
C298 O288 1.258 . S
C299 O295 1.260 . S
C299 O296 1.258 . S
Zn300 O306 1.969 . S
Zn300 O307 1.965 . S
Zn300 O311 2.024 . S
Zn300 O316 1.969 . S
Zn301 O308 1.969 . S
Zn301 O314 1.969 . S
Zn301 O315 1.965 . S
Zn301 O317 2.024 . S
C302 O303 1.229 . S
C302 O311 1.058 . S
O303 C302 1.229 . S
C304 O305 1.229 . S
C304 O317 1.058 . S
O305 C304 1.229 . S
O306 Zn300 1.969 . S
O306 C309 1.267 . S
O307 Zn300 1.965 . S
O307 C318 1.260 . S
O308 Zn301 1.969 . S
O308 C318 1.258 . S
C309 O306 1.267 . S
C309 O310 1.228 . S
O310 C309 1.228 . S
O311 Zn300 2.024 . S
O311 C302 1.058 . S
C312 O313 1.228 . S
C312 O314 1.267 . S
O313 C312 1.228 . S
O314 Zn301 1.969 . S
O314 C312 1.267 . S
O315 Zn301 1.965 . S
O315 C319 1.260 . S
O316 Zn300 1.969 . S
O316 C319 1.258 . S
O317 Zn301 2.024 . S
O317 C304 1.058 . S
C318 O307 1.260 . S
C318 O308 1.258 . S
C319 O315 1.260 . S
C319 O316 1.258 . S
H320 C326 0.930 . S
H321 C330 0.930 . S
H322 C335 0.929 . S
H323 C333 0.929 . S
H324 C328 0.929 . S
H325 C334 0.929 1_545 S
C326 H320 0.930 . S
C326 C327 1.367 . S
C326 C334 1.378 . S
C327 C326 1.367 . S
C327 C335 1.433 . S
C328 H324 0.929 . S
C328 C330 1.378 . S
C328 C332 1.350 . S
C329 C332 1.463 . S
C329 C334 1.350 1_545 S
C329 N337 1.427 1_545 S
C330 H321 0.930 . S
C330 C328 1.378 . S
C330 C331 1.367 . S
C331 C330 1.367 . S
C331 C333 1.433 . S
C332 C328 1.350 . S
C332 C329 1.463 . S
C332 N336 1.427 . S
C333 H323 0.929 . S
C333 C331 1.433 . S
C333 N336 1.384 . S
C334 H325 0.929 1_565 S
C334 C326 1.378 . S
C334 C329 1.350 1_565 S
C335 H322 0.929 . S
C335 C327 1.433 . S
C335 N337 1.384 . S
N336 C332 1.427 . S
N336 C333 1.384 . S
N337 C329 1.427 1_565 S
N337 C335 1.384 . S
H338 C344 0.930 . S
H339 C348 0.930 . S
H340 C353 0.929 . S
H341 C351 0.929 . S
H342 C346 0.929 . S
H343 C352 0.929 1_455 S
C344 H338 0.930 . S
C344 C345 1.367 . S
C344 C352 1.378 . S
C345 C344 1.367 . S
C345 C353 1.433 . S
C346 H342 0.929 . S
C346 C348 1.378 . S
C346 C350 1.350 . S
C347 C350 1.463 . S
C347 C352 1.350 1_455 S
C347 N355 1.427 1_455 S
C348 H339 0.930 . S
C348 C346 1.378 . S
C348 C349 1.367 . S
C349 C348 1.367 . S
C349 C351 1.433 . S
C350 C346 1.350 . S
C350 C347 1.463 . S
C350 N354 1.427 . S
C351 H341 0.929 . S
C351 C349 1.433 . S
C351 N354 1.384 . S
C352 H343 0.929 1_655 S
C352 C344 1.378 . S
C352 C347 1.350 1_655 S
C353 H340 0.929 . S
C353 C345 1.433 . S
C353 N355 1.384 . S
N354 C350 1.427 . S
N354 C351 1.384 . S
N355 C347 1.427 1_655 S
N355 C353 1.384 . S
H356 C362 0.930 . S
H357 C366 0.930 . S
H358 C371 0.929 . S
H359 C369 0.929 . S
H360 C364 0.929 . S
H361 C370 0.929 . S
C362 H356 0.930 . S
C362 C363 1.367 . S
C362 C370 1.378 . S
C363 C362 1.367 . S
C363 C371 1.433 . S
C364 H360 0.929 . S
C364 C366 1.378 . S
C364 C368 1.350 1_545 S
C365 C368 1.463 . S
C365 C370 1.350 . S
C365 N373 1.427 . S
C366 H357 0.930 . S
C366 C364 1.378 . S
C366 C367 1.367 . S
C367 C366 1.367 . S
C367 C369 1.433 . S
C368 C364 1.350 1_565 S
C368 C365 1.463 . S
C368 N372 1.428 1_565 S
C369 H359 0.929 . S
C369 C367 1.433 . S
C369 N372 1.382 . S
C370 H361 0.929 . S
C370 C362 1.378 . S
C370 C365 1.350 . S
C371 H358 0.929 . S
C371 C363 1.433 . S
C371 N373 1.384 . S
N372 C368 1.428 1_545 S
N372 C369 1.382 . S
N373 C365 1.427 . S
N373 C371 1.384 . S
H374 C380 0.930 . S
H375 C384 0.930 . S
H376 C389 0.929 . S
H377 C387 0.929 . S
H378 C382 0.929 . S
H379 C388 0.929 . S
C380 H374 0.930 . S
C380 C381 1.367 . S
C380 C388 1.378 . S
C381 C380 1.367 . S
C381 C389 1.433 . S
C382 H378 0.929 . S
C382 C384 1.378 . S
C382 C386 1.350 1_455 S
C383 C386 1.463 . S
C383 C388 1.350 . S
C383 N391 1.427 . S
C384 H375 0.930 . S
C384 C382 1.378 . S
C384 C385 1.367 . S
C385 C384 1.367 . S
C385 C387 1.433 . S
C386 C382 1.350 1_655 S
C386 C383 1.463 . S
C386 N390 1.427 1_655 S
C387 H377 0.929 . S
C387 C385 1.433 . S
C387 N390 1.384 . S
C388 H379 0.929 . S
C388 C380 1.378 . S
C388 C383 1.350 . S
C389 H376 0.929 . S
C389 C381 1.433 . S
C389 N391 1.384 . S
N390 C386 1.427 1_455 S
N390 C387 1.384 . S
N391 C383 1.427 . S
N391 C389 1.384 . S
H392 C398 0.930 . S
H393 C402 0.930 . S
H394 C407 0.929 . S
H395 C405 0.929 . S
H396 C400 0.929 . S
H397 C406 0.929 . S
C398 H392 0.930 . S
C398 C399 1.367 . S
C398 C406 1.378 . S
C399 C398 1.367 . S
C399 C407 1.433 . S
C400 H396 0.929 . S
C400 C402 1.378 . S
C400 C404 1.350 . S
C401 C404 1.463 . S
C401 C406 1.350 . S
C401 N409 1.427 . S
C402 H393 0.930 . S
C402 C400 1.378 . S
C402 C403 1.367 1_554 S
C403 C402 1.367 1_556 S
C403 C405 1.433 . S
C404 C400 1.350 . S
C404 C401 1.463 . S
C404 N408 1.427 1_554 S
C405 H395 0.929 . S
C405 C403 1.433 . S
C405 N408 1.384 . S
C406 H397 0.929 . S
C406 C398 1.378 . S
C406 C401 1.350 . S
C407 H394 0.929 . S
C407 C399 1.433 . S
C407 N409 1.384 . S
N408 C404 1.427 1_556 S
N408 C405 1.384 . S
N409 C401 1.427 . S
N409 C407 1.384 . S
H410 C416 0.930 . S
H411 C420 0.930 . S
H412 C425 0.929 . S
H413 C423 0.929 . S
H414 C418 0.929 . S
H415 C424 0.929 . S
C416 H410 0.930 . S
C416 C417 1.367 . S
C416 C424 1.378 . S
C417 C416 1.367 . S
C417 C425 1.433 1_554 S
C418 H414 0.929 . S
C418 C420 1.378 . S
C418 C422 1.350 . S
C419 C422 1.463 . S
C419 C424 1.350 1_556 S
C419 N427 1.427 . S
C420 H411 0.930 . S
C420 C418 1.378 . S
C420 C421 1.367 . S
C421 C420 1.367 . S
C421 C423 1.433 . S
C422 C418 1.350 . S
C422 C419 1.463 . S
C422 N426 1.427 . S
C423 H413 0.929 . S
C423 C421 1.433 . S
C423 N426 1.384 . S
C424 H415 0.929 . S
C424 C416 1.378 . S
C424 C419 1.350 1_554 S
C425 H412 0.929 . S
C425 C417 1.433 1_556 S
C425 N427 1.384 . S
N426 C422 1.427 . S
N426 C423 1.384 . S
N427 C419 1.427 . S
N427 C425 1.384 . S
H428 C434 0.930 . S
H429 C438 0.930 . S
H430 C443 0.929 . S
H431 C441 0.929 . S
H432 C436 0.929 . S
H433 C442 0.929 . S
C434 H428 0.930 . S
C434 C435 1.367 . S
C434 C442 1.378 . S
C435 C434 1.367 . S
C435 C443 1.433 . S
C436 H432 0.929 . S
C436 C438 1.378 . S
C436 C440 1.350 . S
C437 C440 1.463 . S
C437 C442 1.350 . S
C437 N445 1.427 . S
C438 H429 0.930 . S
C438 C436 1.378 . S
C438 C439 1.367 1_554 S
C439 C438 1.367 1_556 S
C439 C441 1.433 . S
C440 C436 1.350 . S
C440 C437 1.463 . S
C440 N444 1.427 . S
C441 H431 0.929 . S
C441 C439 1.433 . S
C441 N444 1.384 1_556 S
C442 H433 0.929 . S
C442 C434 1.378 . S
C442 C437 1.350 . S
C443 H430 0.929 . S
C443 C435 1.433 . S
C443 N445 1.384 . S
N444 C440 1.427 . S
N444 C441 1.384 1_554 S
N445 C437 1.427 . S
N445 C443 1.384 . S
H446 C452 0.930 . S
H447 C456 0.930 . S
H448 C461 0.929 . S
H449 C459 0.929 . S
H450 C454 0.929 1_554 S
H451 C460 0.929 . S
C452 H446 0.930 . S
C452 C453 1.367 1_556 S
C452 C460 1.378 . S
C453 C452 1.367 1_554 S
C453 C461 1.433 . S
C454 H450 0.929 1_556 S
C454 C456 1.378 . S
C454 C458 1.350 . S
C455 C458 1.463 . S
C455 C460 1.350 . S
C455 N463 1.427 1_556 S
C456 H447 0.930 . S
C456 C454 1.378 . S
C456 C457 1.367 . S
C457 C456 1.367 . S
C457 C459 1.433 . S
C458 C454 1.350 . S
C458 C455 1.463 . S
C458 N462 1.427 . S
C459 H449 0.929 . S
C459 C457 1.433 . S
C459 N462 1.384 . S
C460 H451 0.929 . S
C460 C452 1.378 . S
C460 C455 1.350 . S
C461 H448 0.929 . S
C461 C453 1.433 . S
C461 N463 1.384 . S
N462 C458 1.427 . S
N462 C459 1.384 . S
N463 C455 1.427 1_554 S
N463 C461 1.384 . S
H464 C470 0.930 . S
H465 C474 0.930 . S
H466 C479 0.929 . S
H467 C477 0.929 . S
H468 C472 0.929 . S
H469 C478 0.929 . S
C470 H464 0.930 . S
C470 C471 1.367 . S
C470 C478 1.378 . S
C471 C470 1.367 . S
C471 C479 1.433 . S
C472 H468 0.929 . S
C472 C474 1.378 . S
C472 C476 1.350 . S
C473 C476 1.463 . S
C473 C478 1.350 . S
C473 N481 1.427 . S
C474 H465 0.930 . S
C474 C472 1.378 . S
C474 C475 1.367 . S
C475 C474 1.367 . S
C475 C477 1.433 . S
C476 C472 1.350 . S
C476 C473 1.463 . S
C476 N480 1.427 . S
C477 H467 0.929 . S
C477 C475 1.433 . S
C477 N480 1.384 . S
C478 H469 0.929 . S
C478 C470 1.378 . S
C478 C473 1.350 . S
C479 H466 0.929 . S
C479 C471 1.433 . S
C479 N481 1.384 . S
N480 C476 1.427 . S
N480 C477 1.384 . S
N481 C473 1.427 . S
N481 C479 1.384 . S
H482 C488 0.930 . S
H483 C492 0.930 . S
H484 C497 0.929 . S
H485 C495 0.929 . S
H486 C490 0.929 . S
H487 C496 0.929 . S
C488 H482 0.930 . S
C488 C489 1.367 . S
C488 C496 1.378 . S
C489 C488 1.367 . S
C489 C497 1.433 . S
C490 H486 0.929 . S
C490 C492 1.378 . S
C490 C494 1.350 . S
C491 C494 1.463 . S
C491 C496 1.350 . S
C491 N499 1.427 . S
C492 H483 0.930 . S
C492 C490 1.378 . S
C492 C493 1.367 . S
C493 C492 1.367 . S
C493 C495 1.433 . S
C494 C490 1.350 . S
C494 C491 1.463 . S
C494 N498 1.427 . S
C495 H485 0.929 . S
C495 C493 1.433 . S
C495 N498 1.384 . S
C496 H487 0.929 . S
C496 C488 1.378 . S
C496 C491 1.350 . S
C497 H484 0.929 . S
C497 C489 1.433 . S
C497 N499 1.384 . S
N498 C494 1.427 . S
N498 C495 1.384 . S
N499 C491 1.427 . S
N499 C497 1.384 . S
H500 C506 0.930 . S
H501 C510 0.930 . S
H502 C515 0.929 . S
H503 C513 0.929 . S
H504 C508 0.929 . S
H505 C514 0.929 . S
C506 H500 0.930 . S
C506 C507 1.367 . S
C506 C514 1.378 . S
C507 C506 1.367 . S
C507 C515 1.433 . S
C508 H504 0.929 . S
C508 C510 1.378 . S
C508 C512 1.350 . S
C509 C512 1.463 . S
C509 C514 1.350 . S
C509 N517 1.427 . S
C510 H501 0.930 . S
C510 C508 1.378 . S
C510 C511 1.367 . S
C511 C510 1.367 . S
C511 C513 1.433 . S
C512 C508 1.350 . S
C512 C509 1.463 . S
C512 N516 1.427 . S
C513 H503 0.929 . S
C513 C511 1.433 . S
C513 N516 1.384 . S
C514 H505 0.929 . S
C514 C506 1.378 . S
C514 C509 1.350 . S
C515 H502 0.929 . S
C515 C507 1.433 . S
C515 N517 1.384 . S
N516 C512 1.427 . S
N516 C513 1.384 . S
N517 C509 1.427 . S
N517 C515 1.384 . S
H518 C524 0.930 . S
H519 C528 0.930 . S
H520 C533 0.929 . S
H521 C531 0.929 . S
H522 C526 0.929 . S
H523 C532 0.929 . S
C524 H518 0.930 . S
C524 C525 1.367 . S
C524 C532 1.378 . S
C525 C524 1.367 . S
C525 C533 1.433 . S
C526 H522 0.929 . S
C526 C528 1.378 . S
C526 C530 1.350 . S
C527 C530 1.463 . S
C527 C532 1.350 . S
C527 N535 1.427 . S
C528 H519 0.930 . S
C528 C526 1.378 . S
C528 C529 1.367 . S
C529 C528 1.367 . S
C529 C531 1.433 . S
C530 C526 1.350 . S
C530 C527 1.463 . S
C530 N534 1.427 . S
C531 H521 0.929 . S
C531 C529 1.433 . S
C531 N534 1.384 . S
C532 H523 0.929 . S
C532 C524 1.378 . S
C532 C527 1.350 . S
C533 H520 0.929 . S
C533 C525 1.433 . S
C533 N535 1.384 . S
N534 C530 1.427 . S
N534 C531 1.384 . S
N535 C527 1.427 . S
N535 C533 1.384 . S
H536 C542 0.930 . S
H537 C546 0.930 . S
H538 C551 0.929 . S
H539 C549 0.929 . S
H540 C544 0.929 . S
H541 C550 0.929 . S
C542 H536 0.930 . S
C542 C543 1.367 . S
C542 C550 1.378 . S
C543 C542 1.367 . S
C543 C551 1.433 . S
C544 H540 0.929 . S
C544 C546 1.378 . S
C544 C548 1.350 1_545 S
C545 C548 1.463 . S
C545 C550 1.350 . S
C545 N553 1.427 . S
C546 H537 0.930 . S
C546 C544 1.378 . S
C546 C547 1.367 . S
C547 C546 1.367 . S
C547 C549 1.433 . S
C548 C544 1.350 1_565 S
C548 C545 1.463 . S
C548 N552 1.426 1_565 S
C549 H539 0.929 . S
C549 C547 1.433 . S
C549 N552 1.387 . S
C550 H541 0.929 . S
C550 C542 1.378 . S
C550 C545 1.350 . S
C551 H538 0.929 . S
C551 C543 1.433 . S
C551 N553 1.384 . S
N552 C548 1.426 1_545 S
N552 C549 1.387 . S
N553 C545 1.427 . S
N553 C551 1.384 . S
H554 C560 0.930 . S
H555 C564 0.930 . S
H556 C569 0.929 . S
H557 C567 0.929 . S
H558 C562 0.929 . S
H559 C568 0.929 1_655 S
C560 H554 0.930 . S
C560 C561 1.367 . S
C560 C568 1.377 . S
C561 C560 1.367 . S
C561 C569 1.433 . S
C562 H558 0.929 . S
C562 C564 1.378 . S
C562 C566 1.350 . S
C563 C566 1.463 . S
C563 C568 1.350 1_655 S
C563 N571 1.427 1_655 S
C564 H555 0.930 . S
C564 C562 1.378 . S
C564 C565 1.367 . S
C565 C564 1.367 . S
C565 C567 1.433 . S
C566 C562 1.350 . S
C566 C563 1.463 . S
C566 N570 1.427 . S
C567 H557 0.929 . S
C567 C565 1.433 . S
C567 N570 1.384 . S
C568 H559 0.929 1_455 S
C568 C560 1.377 . S
C568 C563 1.350 1_455 S
C569 H556 0.929 . S
C569 C561 1.433 . S
C569 N571 1.384 . S
N570 C566 1.427 . S
N570 C567 1.384 . S
N571 C563 1.427 1_455 S
N571 C569 1.384 . S
H572 C578 0.930 . S
H573 C582 0.930 . S
H574 C587 0.929 . S
H575 C585 0.929 . S
H576 C580 0.929 . S
H577 C586 0.907 1_545 S
C578 H572 0.930 . S
C578 C579 1.367 . S
C578 C586 1.378 . S
C579 C578 1.367 . S
C579 C587 1.433 . S
C580 H576 0.929 . S
C580 C582 1.378 . S
C580 C584 1.350 . S
C581 C584 1.463 . S
C581 C586 1.350 1_545 S
C581 N589 1.427 1_545 S
C582 H573 0.930 . S
C582 C580 1.378 . S
C582 C583 1.367 . S
C583 C582 1.367 . S
C583 C585 1.433 . S
C584 C580 1.350 . S
C584 C581 1.463 . S
C584 N588 1.427 . S
C585 H575 0.929 . S
C585 C583 1.433 . S
C585 N588 1.384 . S
C586 H577 0.907 1_565 S
C586 C578 1.378 . S
C586 C581 1.350 1_565 S
C587 H574 0.929 . S
C587 C579 1.433 . S
C587 N589 1.384 . S
N588 C584 1.427 . S
N588 C585 1.384 . S
N589 C581 1.427 1_565 S
N589 C587 1.384 . S
H590 C596 0.930 . S
H591 C600 0.930 . S
H592 C605 0.929 . S
H593 C603 0.929 . S
H594 C598 0.929 1_455 S
H595 C604 0.929 . S
C596 H590 0.930 . S
C596 C597 1.367 . S
C596 C604 1.378 . S
C597 C596 1.367 . S
C597 C605 1.433 . S
C598 H594 0.929 1_655 S
C598 C600 1.378 . S
C598 C602 1.350 1_655 S
C599 C602 1.463 . S
C599 C604 1.350 . S
C599 N607 1.427 . S
C600 H591 0.930 . S
C600 C598 1.378 . S
C600 C601 1.367 . S
C601 C600 1.367 . S
C601 C603 1.433 . S
C602 C598 1.350 1_455 S
C602 C599 1.463 . S
C602 N606 1.427 1_455 S
C603 H593 0.929 . S
C603 C601 1.433 . S
C603 N606 1.384 . S
C604 H595 0.929 . S
C604 C596 1.378 . S
C604 C599 1.350 . S
C605 H592 0.929 . S
C605 C597 1.433 . S
C605 N607 1.384 . S
N606 C602 1.427 1_655 S
N606 C603 1.384 . S
N607 C599 1.427 . S
N607 C605 1.384 . S
H608 C614 0.930 . S
H609 C618 0.930 . S
H610 C623 0.929 . S
H611 C621 0.929 . S
H612 C616 0.929 . S
H613 C622 0.929 . S
C614 H608 0.930 . S
C614 C615 1.367 . S
C614 C622 1.378 . S
C615 C614 1.367 . S
C615 C623 1.433 . S
C616 H612 0.929 . S
C616 C618 1.378 . S
C616 C620 1.350 . S
C617 C620 1.463 . S
C617 C622 1.350 . S
C617 N625 1.427 . S
C618 H609 0.930 . S
C618 C616 1.378 . S
C618 C619 1.367 . S
C619 C618 1.367 . S
C619 C621 1.433 . S
C620 C616 1.350 . S
C620 C617 1.463 . S
C620 N624 1.427 . S
C621 H611 0.929 . S
C621 C619 1.433 . S
C621 N624 1.384 . S
C622 H613 0.929 . S
C622 C614 1.378 . S
C622 C617 1.350 . S
C623 H610 0.929 . S
C623 C615 1.433 . S
C623 N625 1.384 . S
N624 C620 1.427 . S
N624 C621 1.384 . S
N625 C617 1.427 . S
N625 C623 1.384 . S
H626 C632 0.930 . S
H627 C636 0.930 . S
H628 C641 0.929 . S
H629 C639 0.928 . S
H630 C634 0.929 . S
H631 C640 0.929 . S
C632 H626 0.930 . S
C632 C633 1.367 . S
C632 C640 1.378 . S
C633 C632 1.367 . S
C633 C641 1.433 . S
C634 H630 0.929 . S
C634 C636 1.378 . S
C634 C638 1.350 . S
C635 C638 1.463 . S
C635 C640 1.350 . S
C635 N643 1.427 . S
C636 H627 0.930 . S
C636 C634 1.378 . S
C636 C637 1.367 . S
C637 C636 1.367 . S
C637 C639 1.433 . S
C638 C634 1.350 . S
C638 C635 1.463 . S
C638 N642 1.427 . S
C639 H629 0.928 . S
C639 C637 1.433 . S
C639 N642 1.384 . S
C640 H631 0.929 . S
C640 C632 1.378 . S
C640 C635 1.350 . S
C641 H628 0.929 . S
C641 C633 1.433 . S
C641 N643 1.384 . S
N642 C638 1.427 . S
N642 C639 1.384 . S
N643 C635 1.427 . S
N643 C641 1.384 . S
H644 C650 0.930 . S
H645 C654 0.930 . S
H646 C659 0.929 . S
H647 C657 0.929 . S
H648 C652 0.929 . S
H649 C658 0.929 . S
C650 H644 0.930 . S
C650 C651 1.367 . S
C650 C658 1.378 . S
C651 C650 1.367 . S
C651 C659 1.433 . S
C652 H648 0.929 . S
C652 C654 1.378 . S
C652 C656 1.350 . S
C653 C656 1.463 . S
C653 C658 1.350 . S
C653 N661 1.427 . S
C654 H645 0.930 . S
C654 C652 1.378 . S
C654 C655 1.367 . S
C655 C654 1.367 . S
C655 C657 1.433 . S
C656 C652 1.350 . S
C656 C653 1.463 . S
C656 N660 1.427 . S
C657 H647 0.929 . S
C657 C655 1.433 . S
C657 N660 1.384 . S
C658 H649 0.929 . S
C658 C650 1.378 . S
C658 C653 1.350 . S
C659 H646 0.929 . S
C659 C651 1.433 . S
C659 N661 1.384 . S
N660 C656 1.427 . S
N660 C657 1.384 . S
N661 C653 1.427 . S
N661 C659 1.384 . S
H662 C668 0.930 . S
H663 C672 0.930 . S
H664 C677 0.929 . S
H665 C675 0.929 . S
H666 C670 0.929 . S
H667 C676 0.929 . S
C668 H662 0.930 . S
C668 C669 1.367 . S
C668 C676 1.378 . S
C669 C668 1.367 . S
C669 C677 1.433 . S
C670 H666 0.929 . S
C670 C672 1.378 . S
C670 C674 1.350 . S
C671 C674 1.463 . S
C671 C676 1.350 . S
C671 N679 1.427 . S
C672 H663 0.930 . S
C672 C670 1.378 . S
C672 C673 1.367 . S
C673 C672 1.367 . S
C673 C675 1.433 . S
C674 C670 1.350 . S
C674 C671 1.463 . S
C674 N678 1.427 . S
C675 H665 0.929 . S
C675 C673 1.433 . S
C675 N678 1.384 . S
C676 H667 0.929 . S
C676 C668 1.378 . S
C676 C671 1.350 . S
C677 H664 0.929 . S
C677 C669 1.433 . S
C677 N679 1.384 . S
N678 C674 1.427 . S
N678 C675 1.384 . S
N679 C671 1.427 . S
N679 C677 1.384 . S
H680 C686 0.930 . S
H681 C690 0.930 . S
H682 C695 0.929 . S
H683 C693 0.929 . S
H684 C688 0.929 . S
H685 C694 0.929 . S
C686 H680 0.930 . S
C686 C687 1.367 . S
C686 C694 1.378 . S
C687 C686 1.367 . S
C687 C695 1.433 . S
C688 H684 0.929 . S
C688 C690 1.378 . S
C688 C692 1.350 . S
C689 C692 1.463 . S
C689 C694 1.350 . S
C689 N697 1.427 . S
C690 H681 0.930 . S
C690 C688 1.378 . S
C690 C691 1.367 . S
C691 C690 1.367 . S
C691 C693 1.433 . S
C692 C688 1.350 . S
C692 C689 1.463 . S
C692 N696 1.427 . S
C693 H683 0.929 . S
C693 C691 1.433 . S
C693 N696 1.384 . S
C694 H685 0.929 . S
C694 C686 1.378 . S
C694 C689 1.350 . S
C695 H682 0.929 . S
C695 C687 1.433 . S
C695 N697 1.384 . S
N696 C692 1.427 . S
N696 C693 1.384 . S
N697 C689 1.427 . S
N697 C695 1.384 . S
H698 C704 0.930 . S
H699 C708 0.930 . S
H700 C713 0.929 . S
H701 C711 0.929 . S
H702 C706 0.929 . S
H703 C712 0.929 . S
C704 H698 0.930 . S
C704 C705 1.367 . S
C704 C712 1.378 . S
C705 C704 1.367 . S
C705 C713 1.433 . S
C706 H702 0.929 . S
C706 C708 1.378 . S
C706 C710 1.350 . S
C707 C710 1.463 . S
C707 C712 1.350 . S
C707 N715 1.427 . S
C708 H699 0.930 . S
C708 C706 1.378 . S
C708 C709 1.367 . S
C709 C708 1.367 . S
C709 C711 1.433 . S
C710 C706 1.350 . S
C710 C707 1.463 . S
C710 N714 1.427 . S
C711 H701 0.929 . S
C711 C709 1.433 . S
C711 N714 1.384 . S
C712 H703 0.929 . S
C712 C704 1.378 . S
C712 C707 1.350 . S
C713 H700 0.929 . S
C713 C705 1.433 . S
C713 N715 1.384 . S
N714 C710 1.427 . S
N714 C711 1.384 . S
N715 C707 1.427 . S
N715 C713 1.384 . S
H716 C722 0.930 . S
H717 C726 0.930 . S
H718 C731 0.929 . S
H719 C729 0.929 . S
H720 C724 0.929 . S
H721 C730 0.929 . S
C722 H716 0.930 . S
C722 C723 1.367 . S
C722 C730 1.378 . S
C723 C722 1.367 . S
C723 C731 1.433 . S
C724 H720 0.929 . S
C724 C726 1.378 . S
C724 C728 1.350 . S
C725 C728 1.463 . S
C725 C730 1.350 . S
C725 N733 1.427 . S
C726 H717 0.930 . S
C726 C724 1.378 . S
C726 C727 1.367 . S
C727 C726 1.367 . S
C727 C729 1.433 . S
C728 C724 1.350 . S
C728 C725 1.463 . S
C728 N732 1.427 . S
C729 H719 0.929 . S
C729 C727 1.433 . S
C729 N732 1.384 . S
C730 H721 0.929 . S
C730 C722 1.378 . S
C730 C725 1.350 . S
C731 H718 0.929 . S
C731 C723 1.433 . S
C731 N733 1.384 . S
N732 C728 1.427 . S
N732 C729 1.384 . S
N733 C725 1.427 . S
N733 C731 1.384 . S
H734 C740 0.930 . S
H735 C744 0.930 . S
H736 C749 0.929 . S
H737 C747 0.929 . S
H738 C742 0.929 . S
H739 C748 0.929 . S
C740 H734 0.930 . S
C740 C741 1.367 . S
C740 C748 1.378 . S
C741 C740 1.367 . S
C741 C749 1.433 . S
C742 H738 0.929 . S
C742 C744 1.378 . S
C742 C746 1.350 . S
C743 C746 1.463 . S
C743 C748 1.350 . S
C743 N751 1.427 . S
C744 H735 0.930 . S
C744 C742 1.378 . S
C744 C745 1.367 . S
C745 C744 1.367 . S
C745 C747 1.433 . S
C746 C742 1.350 . S
C746 C743 1.463 . S
C746 N750 1.427 . S
C747 H737 0.929 . S
C747 C745 1.433 . S
C747 N750 1.384 . S
C748 H739 0.929 . S
C748 C740 1.378 . S
C748 C743 1.350 . S
C749 H736 0.929 . S
C749 C741 1.433 . S
C749 N751 1.384 . S
N750 C746 1.427 . S
N750 C747 1.384 . S
N751 C743 1.427 . S
N751 C749 1.384 . S
H752 C758 0.930 . S
H753 C762 0.930 1_554 S
H754 C767 0.929 . S
H755 C765 0.929 . S
H756 C760 0.929 . S
H757 C766 0.929 . S
C758 H752 0.930 . S
C758 C759 1.367 . S
C758 C766 1.378 . S
C759 C758 1.367 . S
C759 C767 1.433 . S
C760 H756 0.929 . S
C760 C762 1.378 . S
C760 C764 1.350 . S
C761 C764 1.463 . S
C761 C766 1.350 . S
C761 N769 1.427 . S
C762 H753 0.930 1_556 S
C762 C760 1.378 . S
C762 C763 1.367 . S
C763 C762 1.367 . S
C763 C765 1.433 . S
C764 C760 1.350 . S
C764 C761 1.463 . S
C764 N768 1.427 . S
C765 H755 0.929 . S
C765 C763 1.433 . S
C765 N768 1.384 . S
C766 H757 0.929 . S
C766 C758 1.378 . S
C766 C761 1.350 . S
C767 H754 0.929 . S
C767 C759 1.433 . S
C767 N769 1.384 . S
N768 C764 1.427 . S
N768 C765 1.384 . S
N769 C761 1.427 . S
N769 C767 1.384 . S
H770 C776 0.930 . S
H771 C780 0.930 . S
H772 C785 0.929 . S
H773 C783 0.929 . S
H774 C778 0.929 . S
H775 C784 0.929 . S
C776 H770 0.930 . S
C776 C777 1.367 1_556 S
C776 C784 1.378 1_556 S
C777 C776 1.367 1_554 S
C777 C785 1.433 . S
C778 H774 0.929 . S
C778 C780 1.378 . S
C778 C782 1.350 . S
C779 C782 1.463 . S
C779 C784 1.350 . S
C779 N787 1.427 . S
C780 H771 0.930 . S
C780 C778 1.378 . S
C780 C781 1.367 . S
C781 C780 1.367 . S
C781 C783 1.433 . S
C782 C778 1.350 . S
C782 C779 1.463 . S
C782 N786 1.427 . S
C783 H773 0.929 . S
C783 C781 1.433 . S
C783 N786 1.384 . S
C784 H775 0.929 . S
C784 C776 1.378 1_554 S
C784 C779 1.350 . S
C785 H772 0.929 . S
C785 C777 1.433 . S
C785 N787 1.384 . S
N786 C782 1.427 . S
N786 C783 1.384 . S
N787 C779 1.427 . S
N787 C785 1.384 . S
H788 C794 0.930 . S
H789 C798 0.930 . S
H790 C803 0.929 . S
H791 C801 0.929 . S
H792 C796 0.929 . S
H793 C802 0.929 . S
C794 H788 0.930 . S
C794 C795 1.367 . S
C794 C802 1.378 . S
C795 C794 1.367 . S
C795 C803 1.433 1_556 S
C796 H792 0.929 . S
C796 C798 1.378 . S
C796 C800 1.350 . S
C797 C800 1.463 . S
C797 C802 1.350 . S
C797 N805 1.427 . S
C798 H789 0.930 . S
C798 C796 1.378 . S
C798 C799 1.367 . S
C799 C798 1.367 . S
C799 C801 1.433 . S
C800 C796 1.350 . S
C800 C797 1.463 . S
C800 N804 1.427 . S
C801 H791 0.929 . S
C801 C799 1.433 . S
C801 N804 1.384 . S
C802 H793 0.929 . S
C802 C794 1.378 . S
C802 C797 1.350 . S
C803 H790 0.929 . S
C803 C795 1.433 1_554 S
C803 N805 1.384 1_554 S
N804 C800 1.427 . S
N804 C801 1.384 . S
N805 C797 1.427 . S
N805 C803 1.384 1_556 S
H806 C812 0.930 . S
H807 C816 0.930 . S
H808 C821 0.929 . S
H809 C819 0.929 . S
H810 C814 0.929 . S
H811 C820 0.929 . S
C812 H806 0.930 . S
C812 C813 1.367 . S
C812 C820 1.378 . S
C813 C812 1.367 . S
C813 C821 1.433 1_554 S
C814 H810 0.929 . S
C814 C816 1.378 . S
C814 C818 1.350 . S
C815 C818 1.463 . S
C815 C820 1.350 . S
C815 N823 1.427 . S
C816 H807 0.930 . S
C816 C814 1.378 . S
C816 C817 1.367 . S
C817 C816 1.367 . S
C817 C819 1.433 . S
C818 C814 1.350 . S
C818 C815 1.463 . S
C818 N822 1.427 . S
C819 H809 0.929 . S
C819 C817 1.433 . S
C819 N822 1.384 . S
C820 H811 0.929 . S
C820 C812 1.378 . S
C820 C815 1.350 . S
C821 H808 0.929 . S
C821 C813 1.433 1_556 S
C821 N823 1.384 1_556 S
N822 C818 1.427 . S
N822 C819 1.384 . S
N823 C815 1.427 . S
N823 C821 1.384 1_554 S
H824 C830 0.930 . S
H825 C834 0.930 . S
H826 C839 0.929 . S
H827 C837 0.929 . S
H828 C832 0.929 . S
H829 C838 0.929 . S
C830 H824 0.930 . S
C830 C831 1.367 . S
C830 C838 1.378 . S
C831 C830 1.367 . S
C831 C839 1.433 . S
C832 H828 0.929 . S
C832 C834 1.378 . S
C832 C836 1.350 . S
C833 C836 1.463 . S
C833 C838 1.350 . S
C833 N841 1.427 . S
C834 H825 0.930 . S
C834 C832 1.378 . S
C834 C835 1.367 . S
C835 C834 1.367 . S
C835 C837 1.433 . S
C836 C832 1.350 . S
C836 C833 1.463 . S
C836 N840 1.427 . S
C837 H827 0.929 . S
C837 C835 1.433 . S
C837 N840 1.384 . S
C838 H829 0.929 . S
C838 C830 1.378 . S
C838 C833 1.350 . S
C839 H826 0.929 . S
C839 C831 1.433 . S
C839 N841 1.384 . S
N840 C836 1.427 . S
N840 C837 1.384 . S
N841 C833 1.427 . S
N841 C839 1.384 . S
H842 C848 0.930 . S
H843 C852 0.930 . S
H844 C857 0.929 . S
H845 C855 0.929 . S
H846 C850 0.929 . S
H847 C856 0.929 . S
C848 H842 0.930 . S
C848 C849 1.367 . S
C848 C856 1.378 . S
C849 C848 1.367 . S
C849 C857 1.433 . S
C850 H846 0.929 . S
C850 C852 1.378 . S
C850 C854 1.350 . S
C851 C854 1.463 . S
C851 C856 1.350 . S
C851 N859 1.427 . S
C852 H843 0.930 . S
C852 C850 1.378 . S
C852 C853 1.367 . S
C853 C852 1.367 . S
C853 C855 1.433 . S
C854 C850 1.350 . S
C854 C851 1.463 . S
C854 N858 1.427 . S
C855 H845 0.929 . S
C855 C853 1.433 . S
C855 N858 1.384 . S
C856 H847 0.929 . S
C856 C848 1.378 . S
C856 C851 1.350 . S
C857 H844 0.929 . S
C857 C849 1.433 . S
C857 N859 1.384 . S
N858 C854 1.427 . S
N858 C855 1.384 . S
N859 C851 1.427 . S
N859 C857 1.384 . S
H860 C866 0.930 . S
H861 C870 0.930 . S
H862 C875 0.929 . S
H863 C873 0.929 . S
H864 C868 0.929 . S
H865 C874 0.929 . S
C866 H860 0.930 . S
C866 C867 1.367 . S
C866 C874 1.378 . S
C867 C866 1.367 . S
C867 C875 1.433 . S
C868 H864 0.929 . S
C868 C870 1.378 . S
C868 C872 1.350 . S
C869 C872 1.463 . S
C869 C874 1.350 . S
C869 N877 1.427 . S
C870 H861 0.930 . S
C870 C868 1.378 . S
C870 C871 1.367 . S
C871 C870 1.367 . S
C871 C873 1.433 . S
C872 C868 1.350 . S
C872 C869 1.463 . S
C872 N876 1.427 . S
C873 H863 0.929 . S
C873 C871 1.433 . S
C873 N876 1.384 . S
C874 H865 0.929 . S
C874 C866 1.378 . S
C874 C869 1.350 . S
C875 H862 0.929 . S
C875 C867 1.433 . S
C875 N877 1.384 . S
N876 C872 1.427 . S
N876 C873 1.384 . S
N877 C869 1.427 . S
N877 C875 1.384 . S
H878 C884 0.930 . S
H879 C888 0.930 . S
H880 C893 0.929 . S
H881 C891 0.929 . S
H882 C886 0.929 . S
H883 C892 0.929 . S
C884 H878 0.930 . S
C884 C885 1.367 . S
C884 C892 1.378 . S
C885 C884 1.367 . S
C885 C893 1.433 . S
C886 H882 0.929 . S
C886 C888 1.378 . S
C886 C890 1.350 . S
C887 C890 1.463 . S
C887 C892 1.350 . S
C887 N895 1.427 . S
C888 H879 0.930 . S
C888 C886 1.378 . S
C888 C889 1.367 . S
C889 C888 1.367 . S
C889 C891 1.433 . S
C890 C886 1.350 . S
C890 C887 1.463 . S
C890 N894 1.427 . S
C891 H881 0.929 . S
C891 C889 1.433 . S
C891 N894 1.384 . S
C892 H883 0.929 . S
C892 C884 1.378 . S
C892 C887 1.350 . S
C893 H880 0.929 . S
C893 C885 1.433 . S
C893 N895 1.384 . S
N894 C890 1.427 . S
N894 C891 1.384 . S
N895 C887 1.427 . S
N895 C893 1.384 . S
H896 C902 0.930 . S
H897 C906 0.930 . S
H898 C911 0.929 . S
H899 C909 0.929 . S
H900 C904 0.929 . S
H901 C910 0.929 . S
C902 H896 0.930 . S
C902 C903 1.367 . S
C902 C910 1.378 . S
C903 C902 1.367 . S
C903 C911 1.433 . S
C904 H900 0.929 . S
C904 C906 1.378 . S
C904 C908 1.350 . S
C905 C908 1.463 . S
C905 C910 1.350 . S
C905 N913 1.427 . S
C906 H897 0.930 . S
C906 C904 1.378 . S
C906 C907 1.367 . S
C907 C906 1.367 . S
C907 C909 1.433 . S
C908 C904 1.350 . S
C908 C905 1.463 . S
C908 N912 1.427 . S
C909 H899 0.929 . S
C909 C907 1.433 . S
C909 N912 1.384 . S
C910 H901 0.929 . S
C910 C902 1.378 . S
C910 C905 1.350 . S
C911 H898 0.929 . S
C911 C903 1.433 . S
C911 N913 1.384 . S
N912 C908 1.427 . S
N912 C909 1.384 . S
N913 C905 1.427 . S
N913 C911 1.384 . S
H914 C920 0.930 . S
H915 C924 0.930 . S
H916 C929 0.929 . S
H917 C927 0.929 . S
H918 C922 0.929 . S
H919 C928 0.929 . S
C920 H914 0.930 . S
C920 C921 1.367 . S
C920 C928 1.378 . S
C921 C920 1.367 . S
C921 C929 1.433 . S
C922 H918 0.929 . S
C922 C924 1.378 . S
C922 C926 1.350 . S
C923 C926 1.463 . S
C923 C928 1.350 . S
C923 N931 1.427 . S
C924 H915 0.930 . S
C924 C922 1.378 . S
C924 C925 1.367 . S
C925 C924 1.367 . S
C925 C927 1.433 . S
C926 C922 1.350 . S
C926 C923 1.463 . S
C926 N930 1.427 . S
C927 H917 0.929 . S
C927 C925 1.433 . S
C927 N930 1.384 . S
C928 H919 0.929 . S
C928 C920 1.378 . S
C928 C923 1.350 . S
C929 H916 0.929 . S
C929 C921 1.433 . S
C929 N931 1.384 . S
N930 C926 1.427 . S
N930 C927 1.384 . S
N931 C923 1.427 . S
N931 C929 1.384 . S
H932 C938 0.930 . S
H933 C942 0.930 . S
H934 C947 0.929 . S
H935 C945 0.929 . S
H936 C940 0.929 . S
H937 C946 0.929 . S
C938 H932 0.930 . S
C938 C939 1.367 . S
C938 C946 1.378 . S
C939 C938 1.367 . S
C939 C947 1.433 . S
C940 H936 0.929 . S
C940 C942 1.378 . S
C940 C944 1.350 . S
C941 C944 1.463 . S
C941 C946 1.350 . S
C941 N949 1.427 . S
C942 H933 0.930 . S
C942 C940 1.378 . S
C942 C943 1.367 . S
C943 C942 1.367 . S
C943 C945 1.433 . S
C944 C940 1.350 . S
C944 C941 1.463 . S
C944 N948 1.427 . S
C945 H935 0.929 . S
C945 C943 1.433 . S
C945 N948 1.384 . S
C946 H937 0.929 . S
C946 C938 1.378 . S
C946 C941 1.350 . S
C947 H934 0.929 . S
C947 C939 1.433 . S
C947 N949 1.384 . S
N948 C944 1.427 . S
N948 C945 1.384 . S
N949 C941 1.427 . S
N949 C947 1.384 . S
H950 C956 0.930 . S
H951 C960 0.930 . S
H952 C965 0.929 . S
H953 C963 0.929 . S
H954 C958 0.929 . S
H955 C964 0.929 . S
C956 H950 0.930 . S
C956 C957 1.367 . S
C956 C964 1.378 . S
C957 C956 1.367 . S
C957 C965 1.433 . S
C958 H954 0.929 . S
C958 C960 1.378 . S
C958 C962 1.350 . S
C959 C962 1.463 . S
C959 C964 1.350 . S
C959 N967 1.427 . S
C960 H951 0.930 . S
C960 C958 1.378 . S
C960 C961 1.367 . S
C961 C960 1.367 . S
C961 C963 1.433 . S
C962 C958 1.350 . S
C962 C959 1.463 . S
C962 N966 1.427 . S
C963 H953 0.929 . S
C963 C961 1.433 . S
C963 N966 1.384 . S
C964 H955 0.929 . S
C964 C956 1.378 . S
C964 C959 1.350 . S
C965 H952 0.929 . S
C965 C957 1.433 . S
C965 N967 1.384 . S
N966 C962 1.427 . S
N966 C963 1.384 . S
N967 C959 1.427 . S
N967 C965 1.384 . S
H968 C974 0.930 . S
H969 C978 0.930 . S
H970 C983 0.929 . S
H971 C981 0.929 . S
H972 C976 0.929 . S
H973 C982 0.929 . S
C974 H968 0.930 . S
C974 C975 1.367 . S
C974 C982 1.378 . S
C975 C974 1.367 . S
C975 C983 1.433 . S
C976 H972 0.929 . S
C976 C978 1.378 . S
C976 C980 1.350 . S
C977 C980 1.463 . S
C977 C982 1.350 . S
C977 N985 1.427 . S
C978 H969 0.930 . S
C978 C976 1.378 . S
C978 C979 1.367 . S
C979 C978 1.367 . S
C979 C981 1.433 . S
C980 C976 1.350 . S
C980 C977 1.463 . S
C980 N984 1.427 . S
C981 H971 0.929 . S
C981 C979 1.433 . S
C981 N984 1.384 . S
C982 H973 0.929 . S
C982 C974 1.378 . S
C982 C977 1.350 . S
C983 H970 0.929 . S
C983 C975 1.433 . S
C983 N985 1.384 . S
N984 C980 1.427 . S
N984 C981 1.384 . S
N985 C977 1.427 . S
N985 C983 1.384 . S
H986 C992 0.930 . S
H987 C996 0.930 . S
H988 C1001 0.929 . S
H989 C999 0.929 . S
H990 C994 0.929 . S
H991 C1000 0.929 . S
C992 H986 0.930 . S
C992 C993 1.367 . S
C992 C1000 1.378 . S
C993 C992 1.367 . S
C993 C1001 1.433 . S
C994 H990 0.929 . S
C994 C996 1.378 . S
C994 C998 1.350 . S
C995 C998 1.463 . S
C995 C1000 1.350 . S
C995 N1003 1.427 . S
C996 H987 0.930 . S
C996 C994 1.378 . S
C996 C997 1.367 . S
C997 C996 1.367 . S
C997 C999 1.433 . S
C998 C994 1.350 . S
C998 C995 1.463 . S
C998 N1002 1.427 . S
C999 H989 0.929 . S
C999 C997 1.433 . S
C999 N1002 1.384 . S
C1000 H991 0.929 . S
C1000 C992 1.378 . S
C1000 C995 1.350 . S
C1001 H988 0.929 . S
C1001 C993 1.433 . S
C1001 N1003 1.384 . S
N1002 C998 1.427 . S
N1002 C999 1.384 . S
N1003 C995 1.427 . S
N1003 C1001 1.384 . S
H1004 C1010 0.930 . S
H1005 C1014 0.930 . S
H1006 C1019 0.929 . S
H1007 C1017 0.929 . S
H1008 C1012 0.929 . S
H1009 C1018 0.929 . S
C1010 H1004 0.930 . S
C1010 C1011 1.367 . S
C1010 C1018 1.378 . S
C1011 C1010 1.367 . S
C1011 C1019 1.433 . S
C1012 H1008 0.929 . S
C1012 C1014 1.378 . S
C1012 C1016 1.350 . S
C1013 C1016 1.463 . S
C1013 C1018 1.350 . S
C1013 N1021 1.427 . S
C1014 H1005 0.930 . S
C1014 C1012 1.378 . S
C1014 C1015 1.367 . S
C1015 C1014 1.367 . S
C1015 C1017 1.433 . S
C1016 C1012 1.350 . S
C1016 C1013 1.463 . S
C1016 N1020 1.427 . S
C1017 H1007 0.929 . S
C1017 C1015 1.433 . S
C1017 N1020 1.384 . S
C1018 H1009 0.929 . S
C1018 C1010 1.378 . S
C1018 C1013 1.350 . S
C1019 H1006 0.929 . S
C1019 C1011 1.433 . S
C1019 N1021 1.384 . S
N1020 C1016 1.427 . S
N1020 C1017 1.384 . S
N1021 C1013 1.427 . S
N1021 C1019 1.384 . S
H1022 C1028 0.930 . S
H1023 C1032 0.930 . S
H1024 C1037 0.929 . S
H1025 C1035 0.929 . S
H1026 C1030 0.929 . S
H1027 C1036 0.929 . S
C1028 H1022 0.930 . S
C1028 C1029 1.367 . S
C1028 C1036 1.378 . S
C1029 C1028 1.367 . S
C1029 C1037 1.433 . S
C1030 H1026 0.929 . S
C1030 C1032 1.378 . S
C1030 C1034 1.350 . S
C1031 C1034 1.463 . S
C1031 C1036 1.350 . S
C1031 N1039 1.427 . S
C1032 H1023 0.930 . S
C1032 C1030 1.378 . S
C1032 C1033 1.367 . S
C1033 C1032 1.367 . S
C1033 C1035 1.433 . S
C1034 C1030 1.350 . S
C1034 C1031 1.463 . S
C1034 N1038 1.427 . S
C1035 H1025 0.929 . S
C1035 C1033 1.433 . S
C1035 N1038 1.384 . S
C1036 H1027 0.929 . S
C1036 C1028 1.378 . S
C1036 C1031 1.350 . S
C1037 H1024 0.929 . S
C1037 C1029 1.433 . S
C1037 N1039 1.384 . S
N1038 C1034 1.427 . S
N1038 C1035 1.384 . S
N1039 C1031 1.427 . S
N1039 C1037 1.384 . S
H1040 C1046 0.930 . S
H1041 C1050 0.930 . S
H1042 C1055 0.929 . S
H1043 C1053 0.929 . S
H1044 C1048 0.929 . S
H1045 C1054 0.929 . S
C1046 H1040 0.930 . S
C1046 C1047 1.367 . S
C1046 C1054 1.378 1_556 S
C1047 C1046 1.367 . S
C1047 C1055 1.433 . S
C1048 H1044 0.929 . S
C1048 C1050 1.378 . S
C1048 C1052 1.350 . S
C1049 C1052 1.463 . S
C1049 C1054 1.350 . S
C1049 N1057 1.427 . S
C1050 H1041 0.930 . S
C1050 C1048 1.378 . S
C1050 C1051 1.367 . S
C1051 C1050 1.367 . S
C1051 C1053 1.433 . S
C1052 C1048 1.350 . S
C1052 C1049 1.463 . S
C1052 N1056 1.427 . S
C1053 H1043 0.929 . S
C1053 C1051 1.433 . S
C1053 N1056 1.384 . S
C1054 H1045 0.929 . S
C1054 C1046 1.378 1_554 S
C1054 C1049 1.350 . S
C1055 H1042 0.929 . S
C1055 C1047 1.433 . S
C1055 N1057 1.384 1_556 S
N1056 C1052 1.427 . S
N1056 C1053 1.384 . S
N1057 C1049 1.427 . S
N1057 C1055 1.384 1_554 S
H1058 C1064 0.930 . S
H1059 C1068 0.930 . S
H1060 C1073 0.929 . S
H1061 C1071 0.929 . S
H1062 C1066 0.929 . S
H1063 C1072 0.929 . S
C1064 H1058 0.930 . S
C1064 C1065 1.367 . S
C1064 C1072 1.378 . S
C1065 C1064 1.367 . S
C1065 C1073 1.433 . S
C1066 H1062 0.929 . S
C1066 C1068 1.378 1_556 S
C1066 C1070 1.350 . S
C1067 C1070 1.463 . S
C1067 C1072 1.350 . S
C1067 N1075 1.427 . S
C1068 H1059 0.930 . S
C1068 C1066 1.378 1_554 S
C1068 C1069 1.367 . S
C1069 C1068 1.367 . S
C1069 C1071 1.433 . S
C1070 C1066 1.350 . S
C1070 C1067 1.463 . S
C1070 N1074 1.427 . S
C1071 H1061 0.929 . S
C1071 C1069 1.433 . S
C1071 N1074 1.384 1_554 S
C1072 H1063 0.929 . S
C1072 C1064 1.378 . S
C1072 C1067 1.350 . S
C1073 H1060 0.929 . S
C1073 C1065 1.433 . S
C1073 N1075 1.384 . S
N1074 C1070 1.427 . S
N1074 C1071 1.384 1_556 S
N1075 C1067 1.427 . S
N1075 C1073 1.384 . S
H1076 C1082 0.930 . S
H1077 C1086 0.930 . S
H1078 C1091 0.929 . S
H1079 C1089 0.929 . S
H1080 C1084 0.929 . S
H1081 C1090 0.929 . S
C1082 H1076 0.930 . S
C1082 C1083 1.367 . S
C1082 C1090 1.378 . S
C1083 C1082 1.367 . S
C1083 C1091 1.433 . S
C1084 H1080 0.929 . S
C1084 C1086 1.378 1_554 S
C1084 C1088 1.350 . S
C1085 C1088 1.463 . S
C1085 C1090 1.350 . S
C1085 N1093 1.427 . S
C1086 H1077 0.930 . S
C1086 C1084 1.378 1_556 S
C1086 C1087 1.367 . S
C1087 C1086 1.367 . S
C1087 C1089 1.433 . S
C1088 C1084 1.350 . S
C1088 C1085 1.463 . S
C1088 N1092 1.427 . S
C1089 H1079 0.929 . S
C1089 C1087 1.433 . S
C1089 N1092 1.384 1_556 S
C1090 H1081 0.929 . S
C1090 C1082 1.378 . S
C1090 C1085 1.350 . S
C1091 H1078 0.929 . S
C1091 C1083 1.433 . S
C1091 N1093 1.384 . S
N1092 C1088 1.427 . S
N1092 C1089 1.384 1_554 S
N1093 C1085 1.427 . S
N1093 C1091 1.384 . S
H1094 C1100 0.930 . S
H1095 C1104 0.930 . S
H1096 C1109 0.929 . S
H1097 C1107 0.929 . S
H1098 C1102 0.929 . S
H1099 C1108 0.929 . S
C1100 H1094 0.930 . S
C1100 C1101 1.367 . S
C1100 C1108 1.378 1_554 S
C1101 C1100 1.367 . S
C1101 C1109 1.433 . S
C1102 H1098 0.929 . S
C1102 C1104 1.378 . S
C1102 C1106 1.350 . S
C1103 C1106 1.463 . S
C1103 C1108 1.350 . S
C1103 N1111 1.427 . S
C1104 H1095 0.930 . S
C1104 C1102 1.378 . S
C1104 C1105 1.367 . S
C1105 C1104 1.367 . S
C1105 C1107 1.433 . S
C1106 C1102 1.350 . S
C1106 C1103 1.463 . S
C1106 N1110 1.427 . S
C1107 H1097 0.929 . S
C1107 C1105 1.433 . S
C1107 N1110 1.384 . S
C1108 H1099 0.929 . S
C1108 C1100 1.378 1_556 S
C1108 C1103 1.350 . S
C1109 H1096 0.929 . S
C1109 C1101 1.433 . S
C1109 N1111 1.384 1_554 S
N1110 C1106 1.427 . S
N1110 C1107 1.384 . S
N1111 C1103 1.427 . S
N1111 C1109 1.384 1_556 S
H1112 C1118 0.930 . S
H1113 C1122 0.930 . S
H1114 C1127 0.929 . S
H1115 C1125 0.929 . S
H1116 C1120 0.929 . S
H1117 C1126 0.929 . S
C1118 H1112 0.930 . S
C1118 C1119 1.367 . S
C1118 C1126 1.378 . S
C1119 C1118 1.367 . S
C1119 C1127 1.433 . S
C1120 H1116 0.929 . S
C1120 C1122 1.378 1_554 S
C1120 C1124 1.350 . S
C1121 C1124 1.463 . S
C1121 C1126 1.350 . S
C1121 N1129 1.427 . S
C1122 H1113 0.930 . S
C1122 C1120 1.378 1_556 S
C1122 C1123 1.367 . S
C1123 C1122 1.367 . S
C1123 C1125 1.433 . S
C1124 C1120 1.350 . S
C1124 C1121 1.463 . S
C1124 N1128 1.427 . S
C1125 H1115 0.929 . S
C1125 C1123 1.433 . S
C1125 N1128 1.384 1_556 S
C1126 H1117 0.929 . S
C1126 C1118 1.378 . S
C1126 C1121 1.350 . S
C1127 H1114 0.929 . S
C1127 C1119 1.433 . S
C1127 N1129 1.384 . S
N1128 C1124 1.427 . S
N1128 C1125 1.384 1_554 S
N1129 C1121 1.427 . S
N1129 C1127 1.384 . S
H1130 C1136 0.930 . S
H1131 C1140 0.930 . S
H1132 C1145 0.929 . S
H1133 C1143 0.929 . S
H1134 C1138 0.929 . S
H1135 C1144 0.929 . S
C1136 H1130 0.930 . S
C1136 C1137 1.367 . S
C1136 C1144 1.378 1_554 S
C1137 C1136 1.367 . S
C1137 C1145 1.433 . S
C1138 H1134 0.929 . S
C1138 C1140 1.378 . S
C1138 C1142 1.350 . S
C1139 C1142 1.463 . S
C1139 C1144 1.350 . S
C1139 N1147 1.427 . S
C1140 H1131 0.930 . S
C1140 C1138 1.378 . S
C1140 C1141 1.367 . S
C1141 C1140 1.367 . S
C1141 C1143 1.433 . S
C1142 C1138 1.350 . S
C1142 C1139 1.463 . S
C1142 N1146 1.427 . S
C1143 H1133 0.929 . S
C1143 C1141 1.433 . S
C1143 N1146 1.384 . S
C1144 H1135 0.929 . S
C1144 C1136 1.378 1_556 S
C1144 C1139 1.350 . S
C1145 H1132 0.929 . S
C1145 C1137 1.433 . S
C1145 N1147 1.384 1_554 S
N1146 C1142 1.427 . S
N1146 C1143 1.384 . S
N1147 C1139 1.427 . S
N1147 C1145 1.384 1_556 S
H1148 C1154 0.930 . S
H1149 C1158 0.930 . S
H1150 C1163 0.929 . S
H1151 C1161 0.929 . S
H1152 C1156 0.929 . S
H1153 C1162 0.929 . S
C1154 H1148 0.930 . S
C1154 C1155 1.367 . S
C1154 C1162 1.378 1_556 S
C1155 C1154 1.367 . S
C1155 C1163 1.433 . S
C1156 H1152 0.929 . S
C1156 C1158 1.378 . S
C1156 C1160 1.350 . S
C1157 C1160 1.463 . S
C1157 C1162 1.350 . S
C1157 N1165 1.427 . S
C1158 H1149 0.930 . S
C1158 C1156 1.378 . S
C1158 C1159 1.367 . S
C1159 C1158 1.367 . S
C1159 C1161 1.433 . S
C1160 C1156 1.350 . S
C1160 C1157 1.463 . S
C1160 N1164 1.427 . S
C1161 H1151 0.929 . S
C1161 C1159 1.433 . S
C1161 N1164 1.384 . S
C1162 H1153 0.929 . S
C1162 C1154 1.378 1_554 S
C1162 C1157 1.350 . S
C1163 H1150 0.929 . S
C1163 C1155 1.433 . S
C1163 N1165 1.384 1_556 S
N1164 C1160 1.427 . S
N1164 C1161 1.384 . S
N1165 C1157 1.427 . S
N1165 C1163 1.384 1_554 S
H1166 C1172 0.930 . S
H1167 C1176 0.930 . S
H1168 C1181 0.929 . S
H1169 C1179 0.929 . S
H1170 C1174 0.929 . S
H1171 C1180 0.929 . S
C1172 H1166 0.930 . S
C1172 C1173 1.367 . S
C1172 C1180 1.378 . S
C1173 C1172 1.367 . S
C1173 C1181 1.433 . S
C1174 H1170 0.929 . S
C1174 C1176 1.378 1_556 S
C1174 C1178 1.350 . S
C1175 C1178 1.463 . S
C1175 C1180 1.350 . S
C1175 N1183 1.427 . S
C1176 H1167 0.930 . S
C1176 C1174 1.378 1_554 S
C1176 C1177 1.367 . S
C1177 C1176 1.367 . S
C1177 C1179 1.433 . S
C1178 C1174 1.350 . S
C1178 C1175 1.463 . S
C1178 N1182 1.427 . S
C1179 H1169 0.929 . S
C1179 C1177 1.433 . S
C1179 N1182 1.384 1_554 S
C1180 H1171 0.929 . S
C1180 C1172 1.378 . S
C1180 C1175 1.350 . S
C1181 H1168 0.929 . S
C1181 C1173 1.433 . S
C1181 N1183 1.384 . S
N1182 C1178 1.427 . S
N1182 C1179 1.384 1_556 S
N1183 C1175 1.427 . S
N1183 C1181 1.384 . S
C327 C222 1.546 . S
C331 C19 1.565 . S
C345 C164 1.549 . S
C349 C38 1.566 . S
C363 C59 1.567 . S
C367 C182 1.540 . S
C381 C78 1.572 . S
C385 C204 1.538 . S
C399 C99 1.566 . S
C403 C102 1.543 . S
C417 C124 1.548 . S
C421 C118 1.566 . S
C435 C139 1.565 . S
C439 C142 1.544 . S
C453 C84 1.539 . S
C457 C158 1.573 . S
C471 C62 1.547 . S
C475 C179 1.565 . S
C489 C198 1.574 . S
C493 C4 1.540 . S
C507 C22 1.545 . S
C511 C219 1.573 . S
C525 C44 1.541 . S
C529 C238 1.574 . S
C543 C259 1.571 . S
C547 C262 1.537 . S
C561 C284 1.550 . S
C565 C278 1.568 . S
C579 C302 1.540 . S
C583 C299 1.573 . S
C597 C318 1.565 . S
C601 C244 1.547 . S
C615 C18 1.475 . S
C619 C98 1.480 . S
C633 C119 1.477 . S
C637 C39 1.476 . S
C651 C58 1.476 . S
C655 C138 1.482 . S
C669 C79 1.486 . S
C673 C159 1.480 . S
C687 C178 1.477 . S
C691 C258 1.484 . S
C705 C279 1.476 . S
C709 C199 1.483 . S
C723 C218 1.479 . S
C727 C298 1.475 . S
C741 C239 1.487 . S
C745 C319 1.481 . S
C759 C282 1.521 . S
C763 C2 1.525 1_556 S
C777 C24 1.528 1_554 S
C781 C304 1.530 . S
C795 C42 1.515 1_556 S
C799 C242 1.512 . S
C813 C64 1.510 1_554 S
C817 C264 1.509 . S
C831 C82 1.519 . S
C835 C202 1.515 . S
C849 C104 1.530 . S
C853 C224 1.531 . S
C867 C122 1.526 . S
C871 C162 1.529 . S
C885 C184 1.526 . S
C889 C144 1.529 . S
C903 C12 1.326 . S
C907 C9 1.326 . S
C921 C29 1.318 . S
C925 C32 1.318 . S
C939 C52 1.323 . S
C943 C49 1.323 . S
C957 C72 1.328 . S
C961 C69 1.328 . S
C975 C89 1.323 . S
C979 C92 1.323 . S
C993 C109 1.329 . S
C997 C112 1.329 . S
C1011 C132 1.327 . S
C1015 C129 1.327 . S
C1029 C152 1.317 . S
C1033 C149 1.317 . S
C1047 C172 1.320 . S
C1051 C169 1.320 . S
C1065 C192 1.319 . S
C1069 C189 1.319 . S
C1083 C209 1.329 . S
C1087 C212 1.329 . S
C1101 C229 1.318 . S
C1105 C232 1.318 . S
C1119 C252 1.316 . S
C1123 C249 1.316 . S
C1137 C272 1.319 . S
C1141 C269 1.319 . S
C1155 C289 1.324 . S
C1159 C292 1.324 . S
C1173 C309 1.329 . S
C1177 C312 1.329 . S
