# Generated by pormake.
# Topology una, (4)-cn, num edge types: 1
# Building blocks:
#     Node 0, Type 0, BuildingBlock: UXUYUI_clean_sbu_0, # of connection points: 4
#     Node 1, Type 0, BuildingBlock: UXUYUI_clean_sbu_0, # of connection points: 4
#     Node 2, Type 0, BuildingBlock: UXUYUI_clean_sbu_0, # of connection points: 4
#     Node 3, Type 0, BuildingBlock: UXUYUI_clean_sbu_0, # of connection points: 4
#     Node 4, Type 0, BuildingBlock: UXUYUI_clean_sbu_0, # of connection points: 4
#     Node 5, Type 0, BuildingBlock: UXUYUI_clean_sbu_0, # of connection points: 4
#     Node 6, Type 0, BuildingBlock: UXUYUI_clean_sbu_0, # of connection points: 4
#     Node 7, Type 0, BuildingBlock: UXUYUI_clean_sbu_0, # of connection points: 4
#     Node 8, Type 0, BuildingBlock: UXUYUI_clean_sbu_0, # of connection points: 4
#     Node 9, Type 0, BuildingBlock: UXUYUI_clean_sbu_0, # of connection points: 4
#     Node 10, Type 0, BuildingBlock: UXUYUI_clean_sbu_0, # of connection points: 4
#     Node 11, Type 0, BuildingBlock: UXUYUI_clean_sbu_0, # of connection points: 4
#     Edge 12, Type (0, 0), BuildingBlock: ZUJKAS_clean_linker_0, # of connection points: 2
#     Edge 13, Type (0, 0), BuildingBlock: ZUJKAS_clean_linker_0, # of connection points: 2
#     Edge 14, Type (0, 0), BuildingBlock: ZUJKAS_clean_linker_0, # of connection points: 2
#     Edge 15, Type (0, 0), BuildingBlock: ZUJKAS_clean_linker_0, # of connection points: 2
#     Edge 16, Type (0, 0), BuildingBlock: ZUJKAS_clean_linker_0, # of connection points: 2
#     Edge 17, Type (0, 0), BuildingBlock: ZUJKAS_clean_linker_0, # of connection points: 2
#     Edge 18, Type (0, 0), BuildingBlock: ZUJKAS_clean_linker_0, # of connection points: 2
#     Edge 19, Type (0, 0), BuildingBlock: ZUJKAS_clean_linker_0, # of connection points: 2
#     Edge 20, Type (0, 0), BuildingBlock: ZUJKAS_clean_linker_0, # of connection points: 2
#     Edge 21, Type (0, 0), BuildingBlock: ZUJKAS_clean_linker_0, # of connection points: 2
#     Edge 22, Type (0, 0), BuildingBlock: ZUJKAS_clean_linker_0, # of connection points: 2
#     Edge 23, Type (0, 0), BuildingBlock: ZUJKAS_clean_linker_0, # of connection points: 2
#     Edge 24, Type (0, 0), BuildingBlock: ZUJKAS_clean_linker_0, # of connection points: 2
#     Edge 25, Type (0, 0), BuildingBlock: ZUJKAS_clean_linker_0, # of connection points: 2
#     Edge 26, Type (0, 0), BuildingBlock: ZUJKAS_clean_linker_0, # of connection points: 2
#     Edge 27, Type (0, 0), BuildingBlock: ZUJKAS_clean_linker_0, # of connection points: 2
#     Edge 28, Type (0, 0), BuildingBlock: ZUJKAS_clean_linker_0, # of connection points: 2
#     Edge 29, Type (0, 0), BuildingBlock: ZUJKAS_clean_linker_0, # of connection points: 2
#     Edge 30, Type (0, 0), BuildingBlock: ZUJKAS_clean_linker_0, # of connection points: 2
#     Edge 31, Type (0, 0), BuildingBlock: ZUJKAS_clean_linker_0, # of connection points: 2
#     Edge 32, Type (0, 0), BuildingBlock: ZUJKAS_clean_linker_0, # of connection points: 2
#     Edge 33, Type (0, 0), BuildingBlock: ZUJKAS_clean_linker_0, # of connection points: 2
#     Edge 34, Type (0, 0), BuildingBlock: ZUJKAS_clean_linker_0, # of connection points: 2
#     Edge 35, Type (0, 0), BuildingBlock: ZUJKAS_clean_linker_0, # of connection points: 2
# Relax obj value: 0.208
# Max RMSD: 0.213
# Mean RMSD: 0.213
data_MOF--net-una--node1-UXUYUI_clean_sbu_0--edge1-ZUJKAS_clean_linker_0
_symmetry_space_group_name_H-M    P1
_symmetry_Int_Tables_number       1
_symmetry_cell_setting            triclinic
loop_
_symmetry_equiv_pos_as_xyz
'x, y, z'
_cell_length_a     99.393646
_cell_length_b     99.408148
_cell_length_c     38.673942
_cell_angle_alpha  90.009923
_cell_angle_beta   89.996682
_cell_angle_gamma 119.98232
loop_
_atom_site_label
_atom_site_type_symbol
_atom_site_fract_x
_atom_site_fract_y
_atom_site_fract_z
_atom_type_partial_charge
Li0 Li 0.12804 0.44567 0.0562 0.0
Li1 Li 0.13179 0.42497 0.07342 0.0
Li2 Li 0.13894 0.43492 0.01627 0.0
Li3 Li 0.11145 0.41964 0.0338 0.0
C4 C 0.16014 0.46053 0.05219 0.0
N5 N 0.18443 0.48982 0.03683 0.0
C6 C 0.17403 0.46669 0.07078 0.0
C7 C 0.15861 0.46926 0.02573 0.0
C8 C 0.18617 0.48153 0.06264 0.0
C9 C 0.17102 0.48404 0.01837 0.0
C10 C 0.11258 0.43084 0.11591 0.0
C11 C 0.09809 0.43018 0.16653 0.0
N12 N 0.11164 0.4393 0.18355 0.0
C13 C 0.12637 0.44021 0.13391 0.0
C14 C 0.09832 0.42579 0.13231 0.0
C15 C 0.12565 0.44436 0.16809 0.0
C16 C 0.11733 0.46684 0.05449 0.0
N17 N 0.12818 0.46417 0.06922 0.0
C18 C 0.13917 0.48828 0.09968 0.0
C19 C 0.13892 0.47446 0.09169 0.0
C20 C 0.12827 0.49151 0.08436 0.0
C21 C 0.11718 0.48052 0.06167 0.0
H22 H 0.10886 0.45836 0.03698 0.0
H23 H 0.14742 0.47205 0.10311 0.0
C24 C 0.15299 0.4187 0.10418 0.0
N25 N 0.13848 0.41647 0.10888 0.0
C26 C 0.15906 0.41241 0.12735 0.0
C27 C 0.13521 0.40181 0.16027 0.0
C28 C 0.12948 0.40813 0.13606 0.0
C29 C 0.15015 0.40389 0.15586 0.0
H30 H 0.15978 0.42528 0.0821 0.0
H31 H 0.11784 0.40626 0.13877 0.0
C32 C 0.1167 0.43703 0.97419 0.0
N33 N 0.10552 0.43141 0.9072 0.0
C34 C 0.11584 0.42457 0.95552 0.0
C35 C 0.11186 0.44661 0.95877 0.0
C36 C 0.11016 0.42192 0.9217 0.0
C37 C 0.10627 0.44359 0.92486 0.0
C38 C 0.12528 0.39916 0.0413 0.0
C39 C 0.1364 0.39499 0.03309 0.0
C40 C 0.11269 0.38944 0.06235 0.0
C41 C 0.13482 0.38121 0.04641 0.0
C42 C 0.11151 0.37575 0.07512 0.0
N43 N 0.12252 0.37196 0.06699 0.0
C44 C 0.16436 0.43481 0.98728 0.0
C45 C 0.15419 0.44677 0.95092 0.0
C46 C 0.17539 0.43688 0.96243 0.0
N47 N 0.15382 0.43939 0.98081 0.0
C48 C 0.16495 0.44898 0.92519 0.0
C49 C 0.1756 0.44378 0.93057 0.0
H50 H 0.16413 0.42949 0.01182 0.0
H51 H 0.14608 0.45085 0.94681 0.0
C52 C 0.08076 0.41053 0.01664 0.0
N53 N 0.09145 0.40582 0.01637 0.0
C54 C 0.06681 0.40206 -0.00132 0.0
C55 C 0.07494 0.38377 0.98176 0.0
C56 C 0.08877 0.39265 -0.00021 0.0
C57 C 0.06392 0.38866 0.9804 0.0
H58 H 0.0834 0.42124 0.02951 0.0
H59 H 0.09769 0.38947 -0.001 0.0
O60 O 0.14822 0.44599 0.06007 0.0
O61 O 0.11288 0.42663 0.08234 0.0
O62 O 0.12181 0.43963 0.0077 0.0
O63 O 0.12683 0.41283 0.0294 0.0
H64 H 0.17539 0.46006 0.09132 0.0
H65 H 0.14799 0.46475 0.01103 0.0
H66 H 0.19698 0.48644 0.07685 0.0
H67 H 0.16999 0.49093 0.99799 0.0
H68 H 0.08713 0.42635 0.17954 0.0
H69 H 0.13753 0.44421 0.1218 0.0
H70 H 0.08754 0.41854 0.1187 0.0
H71 H 0.13623 0.45159 0.18231 0.0
H72 H 0.14801 0.49649 0.11705 0.0
H73 H 0.10842 0.48243 0.04973 0.0
H74 H 0.17072 0.41443 0.12337 0.0
H75 H 0.12801 0.39524 0.18193 0.0
H76 H 0.11953 0.41702 0.96695 0.0
H77 H 0.11241 0.45628 0.97286 0.0
H78 H 0.10942 0.41232 0.90699 0.0
H79 H 0.10248 0.45092 0.91261 0.0
H80 H 0.14617 0.40231 0.0167 0.0
H81 H 0.10404 0.39257 0.06918 0.0
H82 H 0.14338 0.37787 0.04039 0.0
H83 H 0.10189 0.36817 0.09164 0.0
H84 H 0.18365 0.4331 0.96812 0.0
H85 H 0.16465 0.45434 0.90106 0.0
H86 H 0.05856 0.40616 0.99829 0.0
H87 H 0.07326 0.37367 0.96748 0.0
Li88 Li 0.67913 0.12917 0.21691 0.0
Li89 Li 0.70399 0.13224 0.23627 0.0
Li90 Li 0.70117 0.13998 0.17591 0.0
Li91 Li 0.68976 0.11282 0.19299 0.0
C92 C 0.69857 0.16172 0.22777 0.0
N93 N 0.69671 0.18803 0.2416 0.0
C94 C 0.70273 0.16874 0.26033 0.0
C95 C 0.69373 0.16826 0.20209 0.0
C96 C 0.70164 0.18198 0.26687 0.0
C97 C 0.6928 0.18151 0.20962 0.0
C98 C 0.68208 0.1089 0.2744 0.0
C99 C 0.6883 0.09582 0.31874 0.0
N100 N 0.68075 0.09978 0.3424 0.0
C101 C 0.67423 0.11268 0.29906 0.0
C102 C 0.68903 0.10026 0.2842 0.0
C103 C 0.67374 0.10802 0.33334 0.0
C104 C 0.64723 0.1185 0.21448 0.0
N105 N 0.66064 0.12913 0.22999 0.0
C106 C 0.64713 0.13922 0.26226 0.0
C107 C 0.6608 0.13924 0.25391 0.0
C108 C 0.63314 0.12855 0.24617 0.0
C109 C 0.63327 0.11801 0.22218 0.0
H110 H 0.64741 0.11048 0.19583 0.0
H111 H 0.67148 0.14722 0.26679 0.0
C112 C 0.73249 0.14054 0.26849 0.0
N113 N 0.71797 0.13817 0.27415 0.0
C114 C 0.74361 0.14648 0.29471 0.0
C115 C 0.72452 0.14714 0.33233 0.0
C116 C 0.7138 0.14123 0.30535 0.0
C117 C 0.73974 0.15009 0.32698 0.0
H118 H 0.73562 0.13831 0.24327 0.0
H119 H 0.70233 0.13969 0.3089 0.0
C120 C 0.67285 0.12497 0.13948 0.0
N121 N 0.65907 0.12908 0.08142 0.0
C122 C 0.67115 0.11643 0.10943 0.0
C123 C 0.66725 0.13536 0.14016 0.0
C124 C 0.66424 0.11875 0.0803 0.0
C125 C 0.66039 0.13734 0.11052 0.0
C126 C 0.71965 0.12163 0.18038 0.0
C127 C 0.7265 0.12502 0.1476 0.0
C128 C 0.72057 0.11059 0.20106 0.0
C129 C 0.73388 0.11707 0.1358 0.0
C130 C 0.72804 0.10288 0.18833 0.0
N131 N 0.73447 0.10624 0.15621 0.0
C132 C 0.72101 0.16942 0.14623 0.0
C133 C 0.70992 0.14844 0.1066 0.0
C134 C 0.72938 0.17976 0.11969 0.0
N135 N 0.71146 0.15411 0.13921 0.0
C136 C 0.71814 0.15833 0.07932 0.0
C137 C 0.72811 0.17423 0.0857 0.0
H138 H 0.72237 0.17356 0.17254 0.0
H139 H 0.70275 0.13613 0.10196 0.0
C140 C 0.67577 0.07993 0.19371 0.0
N141 N 0.68449 0.09308 0.17506 0.0
C142 C 0.67129 0.06541 0.17919 0.0
C143 C 0.68516 0.07836 0.12705 0.0
C144 C 0.6892 0.09255 0.14238 0.0
C145 C 0.67595 0.06455 0.14536 0.0
H146 H 0.67206 0.08071 0.21955 0.0
H147 H 0.69587 0.10318 0.12794 0.0
O148 O 0.69954 0.14871 0.22101 0.0
O149 O 0.68274 0.11343 0.24075 0.0
O150 O 0.67957 0.1228 0.16829 0.0
O151 O 0.71217 0.12914 0.1922 0.0
H152 H 0.70668 0.16398 0.28042 0.0
H153 H 0.69096 0.16331 0.17645 0.0
H154 H 0.70472 0.18746 0.29203 0.0
H155 H 0.68904 0.18666 0.18997 0.0
H156 H 0.69371 0.08921 0.32672 0.0
H157 H 0.66868 0.11926 0.29191 0.0
H158 H 0.6949 0.09698 0.26537 0.0
H159 H 0.6678 0.11097 0.35274 0.0
H160 H 0.64747 0.14733 0.28142 0.0
H161 H 0.62275 0.10965 0.20905 0.0
H162 H 0.7552 0.14853 0.28957 0.0
H163 H 0.72114 0.15005 0.35658 0.0
H164 H 0.67518 0.10816 0.10851 0.0
H165 H 0.66799 0.1417 0.16342 0.0
H166 H 0.66297 0.1123 0.05681 0.0
H167 H 0.65605 0.14538 0.11071 0.0
H168 H 0.72606 0.13365 0.13139 0.0
H169 H 0.71552 0.10798 0.22662 0.0
H170 H 0.73914 0.11951 0.1104 0.0
H171 H 0.72874 0.09423 0.20399 0.0
H172 H 0.73684 0.19192 0.12581 0.0
H173 H 0.71709 0.15346 0.05375 0.0
H174 H 0.66418 0.055 0.1941 0.0
H175 H 0.68873 0.07818 0.10067 0.0
Li176 Li 0.56932 0.70604 0.40285 0.0
Li177 Li 0.54892 0.68167 0.38401 0.0
Li178 Li 0.57641 0.69184 0.36278 0.0
Li179 Li 0.55985 0.70309 0.34446 0.0
C180 C 0.5746 0.68651 0.44146 0.0
N181 N 0.58831 0.68849 0.50483 0.0
C182 C 0.56716 0.68677 0.47194 0.0
C183 C 0.58897 0.68718 0.44321 0.0
C184 C 0.57431 0.68781 0.50371 0.0
C185 C 0.59571 0.68818 0.4755 0.0
C186 C 0.53401 0.69586 0.40075 0.0
C187 C 0.50621 0.68316 0.3934 0.0
N188 N 0.50452 0.68391 0.42812 0.0
C189 C 0.53198 0.69652 0.43638 0.0
C190 C 0.52102 0.68917 0.37906 0.0
C191 C 0.51699 0.69042 0.4497 0.0
C192 C 0.56995 0.72957 0.4428 0.0
N193 N 0.57723 0.72116 0.43928 0.0
C194 C 0.59478 0.73545 0.48513 0.0
C195 C 0.58973 0.72418 0.45918 0.0
C196 C 0.58702 0.74385 0.49021 0.0
C197 C 0.57462 0.74095 0.46823 0.0
H198 H 0.56052 0.72749 0.42565 0.0
H199 H 0.59587 0.71793 0.45489 0.0
C200 C 0.52224 0.65267 0.37051 0.0
N201 N 0.53035 0.66298 0.39601 0.0
C202 C 0.50834 0.63912 0.378 0.0
C203 C 0.5115 0.6469 0.438 0.0
C204 C 0.52539 0.66024 0.42937 0.0
C205 C 0.50273 0.63613 0.41212 0.0
H206 H 0.52656 0.65494 0.34432 0.0
H207 H 0.53208 0.66851 0.44924 0.0
C208 C 0.59274 0.72828 0.36835 0.0
N209 N 0.61447 0.75792 0.38897 0.0
C210 C 0.5897 0.74048 0.36436 0.0
C211 C 0.60685 0.73114 0.3826 0.0
C212 C 0.60083 0.75539 0.37502 0.0
C213 C 0.61768 0.74622 0.39291 0.0
C214 C 0.55291 0.67964 0.3018 0.0
C215 C 0.56371 0.67997 0.27817 0.0
C216 C 0.53866 0.67741 0.28984 0.0
C217 C 0.56015 0.67825 0.24292 0.0
C218 C 0.53554 0.67576 0.2544 0.0
N219 N 0.54627 0.67622 0.23186 0.0
C220 C 0.5884 0.67204 0.34948 0.0
C221 C 0.6035 0.69773 0.32812 0.0
C222 C 0.59801 0.66757 0.33282 0.0
N223 N 0.5912 0.68683 0.34639 0.0
C224 C 0.61341 0.69379 0.31108 0.0
C225 C 0.61051 0.67844 0.31266 0.0
H226 H 0.57833 0.66358 0.36372 0.0
H227 H 0.60523 0.70932 0.32559 0.0
C228 C 0.54564 0.7176 0.30826 0.0
N229 N 0.5566 0.71327 0.30675 0.0
C230 C 0.54356 0.72529 0.28036 0.0
C231 C 0.5642 0.72401 0.25017 0.0
C232 C 0.56595 0.71648 0.27872 0.0
C233 C 0.55291 0.72858 0.25076 0.0
H234 H 0.53865 0.71527 0.33127 0.0
H235 H 0.57478 0.71315 0.27858 0.0
O236 O 0.56774 0.6853 0.41009 0.0
O237 O 0.54859 0.70159 0.38723 0.0
O238 O 0.58181 0.71354 0.35897 0.0
O239 O 0.55628 0.68154 0.3364 0.0
H240 H 0.55616 0.68647 0.47107 0.0
H241 H 0.59487 0.68697 0.41989 0.0
H242 H 0.56874 0.68814 0.52749 0.0
H243 H 0.60684 0.68874 0.47725 0.0
H244 H 0.49606 0.67788 0.37691 0.0
H245 H 0.54185 0.70144 0.45368 0.0
H246 H 0.52233 0.68849 0.35149 0.0
H247 H 0.51526 0.69078 0.47722 0.0
H248 H 0.60446 0.73738 0.50135 0.0
H249 H 0.56861 0.74749 0.47048 0.0
H250 H 0.50216 0.631 0.35732 0.0
H251 H 0.50757 0.64518 0.46459 0.0
H252 H 0.57878 0.73841 0.35352 0.0
H253 H 0.60929 0.72177 0.38616 0.0
H254 H 0.59861 0.76494 0.3723 0.0
H255 H 0.62861 0.7486 0.40421 0.0
H256 H 0.57477 0.68162 0.28684 0.0
H257 H 0.53015 0.67711 0.3077 0.0
H258 H 0.56844 0.67855 0.22436 0.0
H259 H 0.52461 0.67414 0.2448 0.0
H260 H 0.59523 0.65558 0.33433 0.0
H261 H 0.62299 0.70255 0.2961 0.0
H262 H 0.53494 0.72889 0.28227 0.0
H263 H 0.57156 0.72615 0.22782 0.0
Li264 Li 0.86697 0.55126 0.55618 0.0
Li265 Li 0.86286 0.5719 0.57218 0.0
Li266 Li 0.85532 0.56103 0.51581 0.0
Li267 Li 0.88287 0.57692 0.53153 0.0
C268 C 0.83476 0.53581 0.55386 0.0
N269 N 0.81062 0.50611 0.5411 0.0
C270 C 0.82093 0.52992 0.57255 0.0
C271 C 0.83632 0.52659 0.52864 0.0
C272 C 0.80885 0.51488 0.56573 0.0
C273 C 0.82398 0.51162 0.52258 0.0
C274 C 0.88295 0.5673 0.61451 0.0
C275 C 0.89818 0.56914 0.6647 0.0
N276 N 0.88488 0.5602 0.68276 0.0
C277 C 0.86943 0.55814 0.63357 0.0
C278 C 0.89744 0.57285 0.63017 0.0
C279 C 0.87066 0.55468 0.66803 0.0
C280 C 0.87802 0.53037 0.55515 0.0
N281 N 0.86739 0.5332 0.57051 0.0
C282 C 0.85731 0.50974 0.60322 0.0
C283 C 0.85721 0.52331 0.59437 0.0
C284 C 0.86797 0.50633 0.58728 0.0
C285 C 0.87849 0.51693 0.56311 0.0
H286 H 0.88599 0.53849 0.53636 0.0
H287 H 0.84889 0.52585 0.6063 0.0
C288 C 0.84131 0.5775 0.60331 0.0
N289 N 0.85617 0.58062 0.60718 0.0
C290 C 0.83501 0.58357 0.62645 0.0
C291 C 0.85943 0.59597 0.65739 0.0
C292 C 0.86533 0.58973 0.63336 0.0
C293 C 0.84408 0.59291 0.65397 0.0
H294 H 0.83439 0.57031 0.58201 0.0
H295 H 0.87722 0.59225 0.63544 0.0
C296 C 0.87708 0.55874 0.47315 0.0
N297 N 0.88695 0.56351 0.40516 0.0
C298 C 0.877 0.57058 0.45378 0.0
C299 C 0.88216 0.54932 0.4579 0.0
C300 C 0.88204 0.5728 0.41947 0.0
C301 C 0.8871 0.55191 0.42349 0.0
C302 C 0.86963 0.59748 0.53877 0.0
C303 C 0.85889 0.60224 0.53135 0.0
C304 C 0.88276 0.60703 0.55864 0.0
C305 C 0.86141 0.61647 0.54413 0.0
C306 C 0.88486 0.62118 0.57091 0.0
N307 N 0.87423 0.62556 0.56349 0.0
C308 C 0.83073 0.56191 0.48392 0.0
C309 C 0.83893 0.54665 0.45314 0.0
C310 C 0.81995 0.5596 0.45819 0.0
N311 N 0.84021 0.55582 0.48051 0.0
C312 C 0.82828 0.54401 0.42679 0.0
C313 C 0.81884 0.55078 0.42884 0.0
H314 H 0.83164 0.56866 0.50659 0.0
H315 H 0.84631 0.54158 0.45144 0.0
C316 C 0.91376 0.58659 0.51439 0.0
N317 N 0.90261 0.59065 0.51254 0.0
C318 C 0.92759 0.59497 0.49592 0.0
C319 C 0.91834 0.61182 0.47499 0.0
C320 C 0.90468 0.60308 0.49369 0.0
C321 C 0.92988 0.60759 0.47531 0.0
H322 H 0.9116 0.57641 0.52899 0.0
H323 H 0.89546 0.60582 0.49195 0.0
O324 O 0.84662 0.55054 0.56046 0.0
O325 O 0.88215 0.57085 0.58065 0.0
O326 O 0.87254 0.55651 0.50708 0.0
O327 O 0.86717 0.58337 0.52748 0.0
H328 H 0.81955 0.53691 0.59216 0.0
H329 H 0.84692 0.53088 0.51394 0.0
H330 H 0.79808 0.51017 0.58002 0.0
H331 H 0.82504 0.50436 0.50317 0.0
H332 H 0.90933 0.57335 0.67714 0.0
H333 H 0.8581 0.55376 0.62203 0.0
H334 H 0.90801 0.57995 0.61574 0.0
H335 H 0.86029 0.54761 0.68307 0.0
H336 H 0.84915 0.50204 0.62236 0.0
H337 H 0.88678 0.5147 0.54985 0.0
H338 H 0.82305 0.58074 0.62318 0.0
H339 H 0.8668 0.60319 0.67817 0.0
H340 H 0.87309 0.57799 0.46504 0.0
H341 H 0.88231 0.54011 0.47251 0.0
H342 H 0.88206 0.58194 0.40422 0.0
H343 H 0.89108 0.54471 0.41138 0.0
H344 H 0.8487 0.59507 0.51594 0.0
H345 H 0.8911 0.60345 0.56497 0.0
H346 H 0.85316 0.62028 0.53868 0.0
H347 H 0.89492 0.62863 0.58648 0.0
H348 H 0.81263 0.56472 0.46117 0.0
H349 H 0.82779 0.53713 0.40459 0.0
H350 H 0.93605 0.59114 0.4965 0.0
H351 H 0.91968 0.62156 0.45976 0.0
Li352 Li 0.2913 0.86448 0.73694 0.0
Li353 Li 0.31729 0.8689 0.71946 0.0
Li354 Li 0.30627 0.88462 0.69512 0.0
Li355 Li 0.29553 0.85801 0.68099 0.0
C356 C 0.31726 0.88549 0.77763 0.0
N357 N 0.32801 0.88922 0.84481 0.0
C358 C 0.31497 0.87261 0.79687 0.0
C359 C 0.32502 0.90026 0.79253 0.0
C360 C 0.3205 0.87474 0.83079 0.0
C361 C 0.33036 0.90191 0.82655 0.0
C362 C 0.29432 0.83459 0.71463 0.0
C363 C 0.30206 0.81752 0.68822 0.0
N364 N 0.28731 0.80545 0.69181 0.0
C365 C 0.27926 0.82201 0.7182 0.0
C366 C 0.30583 0.83234 0.69958 0.0
C367 C 0.27594 0.80737 0.70643 0.0
C368 C 0.26203 0.84547 0.7615 0.0
N369 N 0.2758 0.85765 0.77184 0.0
C370 C 0.26557 0.8569 0.82818 0.0
C371 C 0.27764 0.8638 0.80409 0.0
C372 C 0.25149 0.84371 0.81871 0.0
C373 C 0.24967 0.83828 0.78457 0.0
H374 H 0.26074 0.84121 0.73528 0.0
H375 H 0.28847 0.87387 0.81141 0.0
C376 C 0.3495 0.88114 0.7198 0.0
N377 N 0.33597 0.86962 0.73307 0.0
C378 C 0.36354 0.88183 0.72766 0.0
C379 C 0.34945 0.85895 0.76325 0.0
C380 C 0.33568 0.85869 0.75464 0.0
C381 C 0.36362 0.87056 0.74947 0.0
H382 H 0.34933 0.88965 0.70263 0.0
H383 H 0.32473 0.84965 0.76481 0.0
C384 C 0.27562 0.87594 0.7005 0.0
N385 N 0.25871 0.89042 0.71551 0.0
C386 C 0.26223 0.87232 0.68163 0.0
C387 C 0.28041 0.88698 0.72701 0.0
C388 C 0.25385 0.87975 0.6896 0.0
C389 C 0.2717 0.89414 0.7342 0.0
C390 C 0.31991 0.87423 0.63741 0.0
C391 C 0.31141 0.87671 0.61196 0.0
C392 C 0.33145 0.87085 0.62779 0.0
C393 C 0.31455 0.87569 0.57716 0.0
C394 C 0.33426 0.86995 0.5927 0.0
N395 N 0.32582 0.87235 0.56833 0.0
C396 C 0.32528 0.91699 0.68794 0.0
C397 C 0.30282 0.90559 0.65244 0.0
C398 C 0.33042 0.93143 0.67241 0.0
N399 N 0.31181 0.90444 0.67741 0.0
C400 C 0.30748 0.91978 0.63632 0.0
C401 C 0.32158 0.93288 0.64582 0.0
H402 H 0.33223 0.91565 0.70771 0.0
H403 H 0.29229 0.89537 0.64417 0.0
C404 C 0.27011 0.83841 0.64062 0.0
N405 N 0.28539 0.84315 0.64501 0.0
C406 C 0.26155 0.82776 0.61482 0.0
C407 C 0.28452 0.82669 0.59895 0.0
C408 C 0.29266 0.83743 0.62505 0.0
C409 C 0.26875 0.82178 0.59345 0.0
H410 H 0.26456 0.84294 0.65719 0.0
H411 H 0.30474 0.84113 0.6294 0.0
O412 O 0.3122 0.88379 0.74417 0.0
O413 O 0.29776 0.84907 0.72547 0.0
O414 O 0.28389 0.86869 0.69279 0.0
O415 O 0.31694 0.87504 0.67161 0.0
H416 H 0.30886 0.86107 0.78592 0.0
H417 H 0.32691 0.91035 0.77793 0.0
H418 H 0.31878 0.86487 0.84599 0.0
H419 H 0.33638 0.91328 0.83843 0.0
H420 H 0.31083 0.81564 0.67631 0.0
H421 H 0.27021 0.8235 0.72986 0.0
H422 H 0.31748 0.84198 0.69599 0.0
H423 H 0.26432 0.79755 0.70893 0.0
H424 H 0.26746 0.8615 0.85422 0.0
H425 H 0.23889 0.82842 0.77588 0.0
H426 H 0.37415 0.89088 0.7161 0.0
H427 H 0.34899 0.85016 0.78052 0.0
H428 H 0.25837 0.86388 0.66092 0.0
H429 H 0.29071 0.89002 0.74196 0.0
H430 H 0.24347 0.87705 0.67517 0.0
H431 H 0.27528 0.90268 0.75465 0.0
H432 H 0.30231 0.87914 0.61901 0.0
H433 H 0.33809 0.86884 0.64722 0.0
H434 H 0.308 0.87749 0.55717 0.0
H435 H 0.34313 0.86729 0.58484 0.0
H436 H 0.34131 0.94128 0.68067 0.0
H437 H 0.30044 0.92031 0.61557 0.0
H438 H 0.24948 0.82446 0.61131 0.0
H439 H 0.29047 0.8222 0.58346 0.0
Li440 Li 0.44573 0.31711 0.8859 0.0
Li441 Li 0.42399 0.29157 0.90444 0.0
Li442 Li 0.43513 0.29473 0.84909 0.0
Li443 Li 0.41931 0.3059 0.86018 0.0
C444 C 0.45733 0.2945 0.88485 0.0
N445 N 0.4802 0.2881 0.86446 0.0
C446 C 0.45557 0.27985 0.89093 0.0
C447 C 0.47075 0.30591 0.86848 0.0
C448 C 0.46725 0.27683 0.88038 0.0
C449 C 0.48217 0.30246 0.85839 0.0
C450 C 0.42888 0.31811 0.94223 0.0
C451 C 0.42581 0.33236 0.9891 0.0
N452 N 0.43556 0.32968 0.00884 0.0
C453 C 0.43886 0.3155 0.96298 0.0
C454 C 0.42229 0.32661 0.95536 0.0
C455 C 0.4421 0.32144 0.99658 0.0
C456 C 0.4659 0.34923 0.88366 0.0
N457 N 0.46361 0.33594 0.8989 0.0
C458 C 0.4875 0.34984 0.92991 0.0
C459 C 0.47398 0.33598 0.92187 0.0
C460 C 0.49035 0.36373 0.91403 0.0
C461 C 0.47928 0.36333 0.89082 0.0
H462 H 0.45739 0.34881 0.86558 0.0
H463 H 0.47189 0.3252 0.93345 0.0
C464 C 0.41406 0.26308 0.93348 0.0
N465 N 0.41476 0.27679 0.94054 0.0
C466 C 0.40796 0.2511 0.95764 0.0
C467 C 0.40271 0.2673 0.99548 0.0
C468 C 0.40889 0.27899 0.97041 0.0
C469 C 0.40238 0.25319 0.98936 0.0
H470 H 0.41835 0.26151 0.90901 0.0
H471 H 0.40899 0.28976 0.97491 0.0
C472 C 0.44352 0.31865 0.80317 0.0
N473 N 0.45135 0.32385 0.734 0.0
C474 C 0.43267 0.30966 0.77793 0.0
C475 C 0.45835 0.3303 0.79329 0.0
C476 C 0.43686 0.31246 0.74308 0.0
C477 C 0.46208 0.33275 0.75817 0.0
C478 C 0.39715 0.27535 0.86704 0.0
C479 C 0.38762 0.26154 0.8493 0.0
C480 C 0.3906 0.28071 0.89164 0.0
C481 C 0.37173 0.25329 0.8565 0.0
C482 C 0.37466 0.27212 0.89812 0.0
N483 N 0.36563 0.2587 0.88057 0.0
C484 C 0.42956 0.26854 0.81207 0.0
C485 C 0.45267 0.29098 0.79408 0.0
C486 C 0.4314 0.25964 0.78668 0.0
N487 N 0.43995 0.28395 0.81488 0.0
C488 C 0.45498 0.28252 0.76829 0.0
C489 C 0.44412 0.26668 0.76402 0.0
H490 H 0.41975 0.26317 0.82946 0.0
H491 H 0.46093 0.30319 0.79715 0.0
C492 C 0.4058 0.32463 0.85035 0.0
N493 N 0.40521 0.31124 0.84044 0.0
C494 C 0.39651 0.32953 0.83385 0.0
C495 C 0.38596 0.30657 0.79791 0.0
C496 C 0.39542 0.3021 0.81513 0.0
C497 C 0.3866 0.32058 0.80682 0.0
H498 H 0.41377 0.33167 0.8705 0.0
H499 H 0.39528 0.29157 0.80758 0.0
O500 O 0.4459 0.29761 0.8944 0.0
O501 O 0.42564 0.31259 0.90909 0.0
O502 O 0.43974 0.31602 0.83744 0.0
O503 O 0.41275 0.28349 0.8601 0.0
H504 H 0.44531 0.27088 0.90364 0.0
H505 H 0.47219 0.31722 0.86295 0.0
H506 H 0.46602 0.26553 0.88485 0.0
H507 H 0.49256 0.31115 0.84549 0.0
H508 H 0.42079 0.33896 -0.0004 0.0
H509 H 0.44398 0.30885 0.95343 0.0
H510 H 0.41455 0.32875 0.9396 0.0
H511 H 0.44979 0.31949 0.01292 0.0
H512 H 0.4958 0.3496 0.94767 0.0
H513 H 0.48093 0.37381 0.87837 0.0
H514 H 0.40807 0.24049 0.9519 0.0
H515 H 0.39828 0.26927 0.01937 0.0
H516 H 0.42125 0.30043 0.78518 0.0
H517 H 0.46691 0.33729 0.81256 0.0
H518 H 0.42861 0.30553 0.72325 0.0
H519 H 0.47352 0.34169 0.75012 0.0
H520 H 0.39245 0.25724 0.83006 0.0
H521 H 0.39768 0.29136 0.90564 0.0
H522 H 0.36423 0.24258 0.84294 0.0
H523 H 0.36947 0.27613 0.9171 0.0
H524 H 0.42293 0.24739 0.78473 0.0
H525 H 0.46493 0.2884 0.7513 0.0
H526 H 0.39723 0.34032 0.84182 0.0
H527 H 0.37869 0.29942 0.77692 0.0
Li528 Li 0.5769 0.88518 0.86759 0.0
Li529 Li 0.561 0.85762 0.88256 0.0
Li530 Li 0.57197 0.86547 0.8262 0.0
Li531 Li 0.55129 0.86948 0.84272 0.0
C532 C 0.59763 0.87229 0.86032 0.0
N533 N 0.62617 0.87761 0.83706 0.0
C534 C 0.6028 0.86196 0.86877 0.0
C535 C 0.60701 0.88537 0.84016 0.0
C536 C 0.61726 0.86485 0.85673 0.0
C537 C 0.62139 0.88784 0.82864 0.0
C538 C 0.55868 0.87908 0.92604 0.0
C539 C 0.55185 0.88881 0.97622 0.0
N540 N 0.56337 0.88843 0.99441 0.0
C541 C 0.57045 0.87877 0.94525 0.0
C542 C 0.54931 0.88413 0.94163 0.0
C543 C 0.57263 0.88355 0.97977 0.0
C544 C 0.58693 0.91612 0.88488 0.0
N545 N 0.59073 0.90479 0.88698 0.0
C546 C 0.61193 0.92029 0.9247 0.0
C547 C 0.60301 0.90663 0.9061 0.0
C548 C 0.608 0.93203 0.92395 0.0
C549 C 0.59547 0.92994 0.90328 0.0
H550 H 0.57691 0.91417 0.86993 0.0
H551 H 0.60548 0.89724 0.90819 0.0
C552 C 0.56215 0.83306 0.91342 0.0
N553 N 0.55585 0.84233 0.9173 0.0
C554 C 0.5599 0.82212 0.93864 0.0
C555 C 0.54396 0.82988 0.97054 0.0
C556 C 0.54656 0.84071 0.94467 0.0
C557 C 0.55093 0.82062 0.96798 0.0
H558 H 0.56903 0.83427 0.89077 0.0
H559 H 0.54135 0.84796 0.94675 0.0
C560 C 0.56736 0.88577 0.78474 0.0
N561 N 0.5603 0.88807 0.71666 0.0
C562 C 0.55812 0.87236 0.76542 0.0
C563 C 0.57301 0.90035 0.76943 0.0
C564 C 0.55468 0.87377 0.73105 0.0
C565 C 0.56931 0.90127 0.73497 0.0
C566 C 0.53586 0.83724 0.84402 0.0
C567 C 0.53003 0.82351 0.82495 0.0
C568 C 0.52659 0.83862 0.86937 0.0
C569 C 0.51499 0.81137 0.83152 0.0
C570 C 0.51161 0.82623 0.87516 0.0
N571 N 0.50617 0.81297 0.85628 0.0
C572 C 0.57858 0.84448 0.79597 0.0
C573 C 0.58941 0.86802 0.76418 0.0
C574 C 0.58488 0.83835 0.77296 0.0
N575 N 0.58088 0.85901 0.79116 0.0
C576 C 0.59574 0.86223 0.74011 0.0
C577 C 0.5935 0.84722 0.7445 0.0
H578 H 0.57187 0.8377 0.81792 0.0
H579 H 0.59135 0.87968 0.7614 0.0
C580 C 0.53054 0.88071 0.84405 0.0
N581 N 0.53325 0.87002 0.82862 0.0
C582 C 0.51715 0.88132 0.83617 0.0
C583 C 0.50974 0.86008 0.79611 0.0
C584 C 0.52327 0.85987 0.80482 0.0
C585 C 0.50647 0.87083 0.81207 0.0
H586 H 0.53872 0.88866 0.86281 0.0
H587 H 0.52572 0.85151 0.79281 0.0
O588 O 0.5833 0.86945 0.87087 0.0
O589 O 0.55647 0.87476 0.89197 0.0
O590 O 0.57089 0.88479 0.81852 0.0
O591 O 0.55059 0.84916 0.83769 0.0
H592 H 0.59576 0.85182 0.88442 0.0
H593 H 0.60311 0.8934 0.83307 0.0
H594 H 0.62139 0.85693 0.86299 0.0
H595 H 0.62872 0.89786 0.81286 0.0
H596 H 0.54468 0.89275 0.9886 0.0
H597 H 0.57783 0.87489 0.93373 0.0
H598 H 0.54016 0.88446 0.92713 0.0
H599 H 0.5817 0.88338 0.99491 0.0
H600 H 0.62132 0.92133 0.9408 0.0
H601 H 0.59213 0.93877 0.90192 0.0
H602 H 0.56517 0.81494 0.93529 0.0
H603 H 0.53697 0.82909 0.99275 0.0
H604 H 0.55369 0.86098 0.77668 0.0
H605 H 0.58017 0.91084 0.78406 0.0
H606 H 0.54756 0.86349 0.71581 0.0
H607 H 0.5736 0.91248 0.7228 0.0
H608 H 0.53708 0.82226 0.80525 0.0
H609 H 0.53083 0.84914 0.88437 0.0
H610 H 0.51034 0.80068 0.81693 0.0
H611 H 0.50431 0.82715 0.89467 0.0
H612 H 0.58273 0.82666 0.77696 0.0
H613 H 0.60239 0.86941 0.71851 0.0
H614 H 0.51503 0.88968 0.84941 0.0
H615 H 0.50196 0.85193 0.77703 0.0
Li616 Li 0.70114 0.55954 0.05204 0.0
Li617 Li 0.69082 0.57664 0.04233 0.0
Li618 Li 0.67903 0.55018 0.01275 0.0
Li619 Li 0.70531 0.57237 0.99667 0.0
C620 C 0.67611 0.54656 0.09155 0.0
N621 N 0.66941 0.52874 0.15061 0.0
C622 C 0.6763 0.55299 0.1238 0.0
C623 C 0.67241 0.53105 0.08924 0.0
C624 C 0.67291 0.54378 0.15339 0.0
C625 C 0.66909 0.52224 0.11944 0.0
C626 C 0.72214 0.59776 0.04456 0.0
C627 C 0.73077 0.62334 0.02154 0.0
N628 N 0.74071 0.62965 0.04866 0.0
C629 C 0.73249 0.60449 0.07213 0.0
C630 C 0.7213 0.60724 0.01902 0.0
C631 C 0.74175 0.62064 0.07377 0.0
C632 C 0.71373 0.54241 0.08834 0.0
N633 N 0.71054 0.55422 0.08863 0.0
C634 C 0.72157 0.56196 0.14502 0.0
C635 C 0.71416 0.5638 0.11636 0.0
C636 C 0.72555 0.55024 0.14505 0.0
C637 C 0.72136 0.54027 0.11632 0.0
H638 H 0.71056 0.53472 0.06649 0.0
H639 H 0.71125 0.57293 0.11615 0.0
C640 C 0.67545 0.59395 0.05132 0.0
N641 N 0.68622 0.59075 0.06445 0.0
C642 C 0.67139 0.60353 0.06957 0.0
C643 C 0.68977 0.60645 0.11406 0.0
C644 C 0.69344 0.59682 0.09503 0.0
C645 C 0.67845 0.60974 0.10163 0.0
H646 H 0.66973 0.58873 0.02717 0.0
H647 H 0.7018 0.59387 0.105 0.0
C648 C 0.7046 0.54065 0.00184 0.0
N649 N 0.71683 0.52123 0.99454 0.0
C650 C 0.72048 0.54687 0.99574 0.0
C651 C 0.69493 0.52456 0.00414 0.0
C652 C 0.72644 0.53686 0.99215 0.0
C653 C 0.70134 0.51493 0.00041 0.0
C654 C 0.68171 0.57565 0.96188 0.0
C655 C 0.67486 0.56482 0.9352 0.0
C656 C 0.68527 0.59099 0.95665 0.0
C657 C 0.67203 0.56962 0.90342 0.0
C658 C 0.68227 0.59534 0.92449 0.0
N659 N 0.67578 0.58466 0.89874 0.0
C660 C 0.64734 0.52891 0.01726 0.0
C661 C 0.65992 0.5237 0.9714 0.0
C662 C 0.63332 0.51555 0.00956 0.0
N663 N 0.66027 0.53262 0.9984 0.0
C664 C 0.6461 0.51026 0.96266 0.0
C665 C 0.6326 0.50596 0.98211 0.0
H666 H 0.648 0.53624 0.03862 0.0
H667 H 0.67043 0.52692 0.95699 0.0
C668 C 0.73542 0.58939 0.97001 0.0
N669 N 0.72024 0.58142 0.96035 0.0
C670 C 0.74716 0.59524 0.9452 0.0
C671 C 0.7275 0.58463 0.90068 0.0
C672 C 0.71611 0.57895 0.92643 0.0
C673 C 0.74327 0.59272 0.91 0.0
H674 H 0.73848 0.59078 0.9971 0.0
H675 H 0.70406 0.5721 0.91928 0.0
O676 O 0.67973 0.55546 0.06237 0.0
O677 O 0.7128 0.58197 0.04286 0.0
O678 O 0.69849 0.55022 0.00492 0.0
O679 O 0.68437 0.57109 0.99334 0.0
H680 H 0.67915 0.56498 0.12597 0.0
H681 H 0.67226 0.52594 0.06444 0.0
H682 H 0.67308 0.54861 0.17856 0.0
H683 H 0.66628 0.51025 0.11809 0.0
H684 H 0.73024 0.63081 0.00191 0.0
H685 H 0.73333 0.59732 0.09209 0.0
H686 H 0.71351 0.6022 0.99736 0.0
H687 H 0.74978 0.62601 0.09501 0.0
H688 H 0.72416 0.56968 0.16688 0.0
H689 H 0.72427 0.53113 0.11501 0.0
H690 H 0.66244 0.60558 0.05928 0.0
H691 H 0.69561 0.61112 0.13846 0.0
H692 H 0.72812 0.55929 0.99397 0.0
H693 H 0.68263 0.51955 0.00905 0.0
H694 H 0.73871 0.54151 0.98747 0.0
H695 H 0.69401 0.50246 0.00224 0.0
H696 H 0.67194 0.55289 0.93882 0.0
H697 H 0.69017 0.59945 0.97724 0.0
H698 H 0.66687 0.56139 0.88246 0.0
H699 H 0.68502 0.60719 0.92005 0.0
H700 H 0.62314 0.51276 0.02492 0.0
H701 H 0.64609 0.5031 0.94152 0.0
H702 H 0.75917 0.60143 0.95353 0.0
H703 H 0.72399 0.58213 0.87385 0.0
Li704 Li 0.13937 0.70158 0.22338 0.0
Li705 Li 0.11144 0.68968 0.20392 0.0
Li706 Li 0.12935 0.68002 0.1824 0.0
Li707 Li 0.13272 0.70451 0.16505 0.0
C708 C 0.12171 0.67561 0.26366 0.0
N709 N 0.12144 0.66697 0.3317 0.0
C710 C 0.11132 0.67613 0.28728 0.0
C711 C 0.13182 0.67052 0.27458 0.0
C712 C 0.1114 0.67176 0.32158 0.0
C713 C 0.13155 0.66626 0.3091 0.0
C714 C 0.13088 0.72625 0.19964 0.0
C715 C 0.12364 0.74374 0.17349 0.0
N716 N 0.13833 0.75572 0.17853 0.0
C717 C 0.14588 0.73874 0.20476 0.0
C718 C 0.11963 0.72875 0.18401 0.0
C719 C 0.14943 0.75355 0.19383 0.0
C720 C 0.16867 0.71982 0.25427 0.0
N721 N 0.15315 0.71179 0.26074 0.0
C722 C 0.15746 0.71975 0.31989 0.0
C723 C 0.14741 0.71182 0.29261 0.0
C724 C 0.17355 0.72802 0.31404 0.0
C725 C 0.17914 0.72803 0.2807 0.0
H726 H 0.17291 0.72007 0.22842 0.0
H727 H 0.13502 0.70599 0.29672 0.0
C728 C 0.08024 0.66838 0.21807 0.0
N729 N 0.09128 0.68364 0.21961 0.0
C730 C 0.06592 0.66315 0.23431 0.0
C731 C 0.07449 0.68954 0.25215 0.0
C732 C 0.08865 0.69424 0.23576 0.0
C733 C 0.06303 0.67374 0.25227 0.0
H734 H 0.08283 0.66021 0.20555 0.0
H735 H 0.09779 0.70625 0.23713 0.0
C736 C 0.16025 0.69642 0.1736 0.0
N737 N 0.18274 0.68855 0.16 0.0
C738 C 0.16669 0.69861 0.14052 0.0
C739 C 0.16533 0.69035 0.19979 0.0
C740 C 0.17803 0.69453 0.13415 0.0
C741 C 0.17668 0.6864 0.1924 0.0
C742 C 0.11006 0.68409 0.12312 0.0
C743 C 0.11986 0.68498 0.09622 0.0
C744 C 0.09604 0.68354 0.11559 0.0
C745 C 0.11553 0.68547 0.06209 0.0
C746 C 0.09211 0.68401 0.0811 0.0
N747 N 0.10186 0.68498 0.0553 0.0
C748 C 0.12305 0.64946 0.19248 0.0
C749 C 0.13648 0.66075 0.14035 0.0
C750 C 0.12331 0.63582 0.18557 0.0
N751 N 0.12976 0.66165 0.17022 0.0
C752 C 0.13706 0.64734 0.13243 0.0
C753 C 0.13049 0.63467 0.1553 0.0
H754 H 0.11742 0.65029 0.21561 0.0
H755 H 0.14148 0.67044 0.12269 0.0
C756 C 0.15558 0.72899 0.12779 0.0
N757 N 0.13989 0.71981 0.12916 0.0
C758 C 0.16239 0.74119 0.10429 0.0
C759 C 0.13679 0.73444 0.0839 0.0
C760 C 0.13043 0.72241 0.10815 0.0
C761 C 0.15298 0.74404 0.08194 0.0
H762 H 0.16282 0.727 0.14547 0.0
H763 H 0.11798 0.7154 0.11063 0.0
O764 O 0.12176 0.67979 0.22991 0.0
O765 O 0.12732 0.7116 0.20922 0.0
O766 O 0.14907 0.70027 0.18028 0.0
O767 O 0.11404 0.68355 0.15668 0.0
H768 H 0.10339 0.68001 0.27939 0.0
H769 H 0.13972 0.66975 0.25657 0.0
H770 H 0.1035 0.6722 0.34017 0.0
H771 H 0.13934 0.66233 0.3179 0.0
H772 H 0.1151 0.74584 0.16112 0.0
H773 H 0.15473 0.73697 0.21666 0.0
H774 H 0.10802 0.71917 0.17949 0.0
H775 H 0.16102 0.76331 0.19739 0.0
H776 H 0.15268 0.71977 0.34505 0.0
H777 H 0.19147 0.73433 0.27513 0.0
H778 H 0.05754 0.65084 0.23417 0.0
H779 H 0.07269 0.69813 0.26531 0.0
H780 H 0.16284 0.70324 0.11988 0.0
H781 H 0.16061 0.68876 0.22559 0.0
H782 H 0.18306 0.69608 0.10864 0.0
H783 H 0.1807 0.68165 0.21244 0.0
H784 H 0.13081 0.68557 0.10168 0.0
H785 H 0.08833 0.6828 0.13619 0.0
H786 H 0.12305 0.68628 0.041 0.0
H787 H 0.08132 0.68364 0.07485 0.0
H788 H 0.11778 0.62622 0.20355 0.0
H789 H 0.14278 0.647 0.10888 0.0
H790 H 0.17493 0.74823 0.1034 0.0
H791 H 0.12914 0.73641 0.06736 0.0
Li792 Li 0.4362 0.13979 0.39 0.0
Li793 Li 0.41964 0.11319 0.37179 0.0
Li794 Li 0.44602 0.12944 0.34799 0.0
Li795 Li 0.42576 0.13463 0.33087 0.0
C796 C 0.44477 0.12413 0.42928 0.0
N797 N 0.45466 0.12905 0.49726 0.0
C798 C 0.43413 0.11674 0.45605 0.0
C799 C 0.46047 0.13386 0.43707 0.0
C800 C 0.43935 0.11941 0.49025 0.0
C801 C 0.46524 0.13625 0.4716 0.0
C802 C 0.39874 0.12421 0.36856 0.0
C803 C 0.37537 0.10709 0.33712 0.0
N804 N 0.36775 0.11328 0.35413 0.0
C805 C 0.39069 0.13041 0.3857 0.0
C806 C 0.39104 0.11246 0.34405 0.0
C807 C 0.37502 0.12472 0.37806 0.0
C808 C 0.45315 0.16707 0.43114 0.0
N809 N 0.44017 0.15286 0.42882 0.0
C810 C 0.43072 0.15667 0.48252 0.0
C811 C 0.42904 0.14754 0.4537 0.0
C812 C 0.44391 0.1715 0.48554 0.0
C813 C 0.45529 0.17663 0.45951 0.0
H814 H 0.46168 0.17112 0.41072 0.0
H815 H 0.41878 0.13622 0.45095 0.0
C816 C 0.4066 0.08095 0.37996 0.0
N817 N 0.40495 0.0933 0.38854 0.0
C818 C 0.39749 0.06663 0.39612 0.0
C819 C 0.38487 0.07794 0.42886 0.0
C820 C 0.39423 0.09203 0.41213 0.0
C821 C 0.38669 0.06511 0.42151 0.0
H822 H 0.41546 0.08242 0.36167 0.0
H823 H 0.39351 0.10215 0.41933 0.0
C824 C 0.4611 0.16025 0.33345 0.0
N825 N 0.48989 0.18102 0.30636 0.0
C826 C 0.46225 0.16679 0.30081 0.0
C827 C 0.47459 0.16441 0.35244 0.0
C828 C 0.47691 0.17724 0.28754 0.0
C829 C 0.48903 0.17488 0.33826 0.0
C830 C 0.42993 0.11223 0.29024 0.0
C831 C 0.43713 0.12417 0.26601 0.0
C832 C 0.42644 0.09719 0.28146 0.0
C833 C 0.44077 0.12089 0.23335 0.0
C834 C 0.43026 0.09436 0.24851 0.0
N835 N 0.43729 0.10617 0.22534 0.0
C836 C 0.46855 0.12051 0.35359 0.0
C837 C 0.47195 0.13589 0.304 0.0
C838 C 0.48192 0.11988 0.34557 0.0
N839 N 0.46396 0.12861 0.33316 0.0
C840 C 0.48546 0.13568 0.29516 0.0
C841 C 0.49065 0.1277 0.31623 0.0
H842 H 0.46191 0.11465 0.37639 0.0
H843 H 0.46802 0.14207 0.28779 0.0
C844 C 0.42111 0.15712 0.30125 0.0
N845 N 0.4176 0.14217 0.29671 0.0
C846 C 0.41638 0.16426 0.27704 0.0
C847 C 0.40385 0.14024 0.24459 0.0
C848 C 0.40887 0.13355 0.26952 0.0
C849 C 0.40787 0.15589 0.24793 0.0
H850 H 0.42786 0.16356 0.32349 0.0
H851 H 0.40604 0.12158 0.26691 0.0
O852 O 0.43983 0.12193 0.39566 0.0
O853 O 0.41411 0.12977 0.3757 0.0
O854 O 0.44683 0.14999 0.34686 0.0
O855 O 0.42627 0.11518 0.3224 0.0
H856 H 0.42195 0.10916 0.45054 0.0
H857 H 0.46889 0.13952 0.41669 0.0
H858 H 0.43122 0.11386 0.51123 0.0
H859 H 0.47734 0.14382 0.47799 0.0
H860 H 0.36927 0.09801 0.31822 0.0
H861 H 0.3965 0.13952 0.40472 0.0
H862 H 0.39706 0.10751 0.33051 0.0
H863 H 0.36864 0.1294 0.39115 0.0
H864 H 0.42175 0.15218 0.50215 0.0
H865 H 0.46551 0.18807 0.46053 0.0
H866 H 0.3992 0.057 0.38958 0.0
H867 H 0.37692 0.07737 0.44873 0.0
H868 H 0.45197 0.16381 0.28577 0.0
H869 H 0.47394 0.15948 0.37769 0.0
H870 H 0.47797 0.18233 0.26226 0.0
H871 H 0.49956 0.1781 0.35258 0.0
H872 H 0.43999 0.13588 0.27241 0.0
H873 H 0.42082 0.08779 0.29985 0.0
H874 H 0.4464 0.13005 0.2144 0.0
H875 H 0.42762 0.08277 0.24136 0.0
H876 H 0.48557 0.11365 0.36259 0.0
H877 H 0.49174 0.14166 0.27202 0.0
H878 H 0.41947 0.17626 0.28091 0.0
H879 H 0.39733 0.13342 0.22247 0.0
Li880 Li 0.29438 0.43642 0.55427 0.0
Li881 Li 0.30588 0.42025 0.53484 0.0
Li882 Li 0.3158 0.44781 0.51509 0.0
Li883 Li 0.29152 0.4275 0.49563 0.0
C884 C 0.31707 0.44281 0.59725 0.0
N885 N 0.31862 0.448 0.66776 0.0
C886 C 0.31602 0.43149 0.62028 0.0
C887 C 0.31906 0.45684 0.61013 0.0
C888 C 0.31681 0.43432 0.65582 0.0
C889 C 0.31976 0.45922 0.64584 0.0
C890 C 0.26951 0.40346 0.52949 0.0
C891 C 0.25196 0.37839 0.50494 0.0
N892 N 0.24004 0.38129 0.50888 0.0
C893 C 0.25709 0.40617 0.5335 0.0
C894 C 0.26695 0.38946 0.51524 0.0
C895 C 0.24227 0.39482 0.52284 0.0
C896 C 0.28149 0.45131 0.59414 0.0
N897 N 0.28395 0.43906 0.59237 0.0
C898 C 0.2709 0.42915 0.64611 0.0
C899 C 0.27879 0.42802 0.61745 0.0
C900 C 0.26829 0.44174 0.64884 0.0
C901 C 0.27372 0.45295 0.62246 0.0
H902 H 0.28542 0.45972 0.57346 0.0
H903 H 0.28083 0.41834 0.61512 0.0
C904 C 0.32617 0.40879 0.54528 0.0
N905 N 0.31132 0.40561 0.54989 0.0
C906 C 0.33131 0.39958 0.56116 0.0
C907 C 0.30559 0.3837 0.58518 0.0
C908 C 0.30095 0.3932 0.56875 0.0
C909 C 0.32107 0.38709 0.58223 0.0
H910 H 0.33417 0.41887 0.53039 0.0
H911 H 0.28931 0.3912 0.57258 0.0
C912 C 0.30184 0.46263 0.4981 0.0
N913 N 0.31446 0.492 0.46966 0.0
C914 C 0.30109 0.46445 0.46242 0.0
C915 C 0.30902 0.47578 0.51928 0.0
C916 C 0.30751 0.47939 0.44856 0.0
C917 C 0.31535 0.49052 0.50442 0.0
C918 C 0.31102 0.42259 0.45625 0.0
C919 C 0.3106 0.43011 0.42606 0.0
C920 C 0.31039 0.40825 0.45398 0.0
C921 C 0.30945 0.42308 0.39406 0.0
C922 C 0.30927 0.40162 0.42148 0.0
N923 N 0.30882 0.40911 0.39245 0.0
C924 C 0.34434 0.47482 0.52975 0.0
C925 C 0.33773 0.4713 0.4703 0.0
C926 C 0.35788 0.4888 0.52275 0.0
N927 N 0.33451 0.46648 0.5037 0.0
C928 C 0.35111 0.48523 0.46211 0.0
C929 C 0.36138 0.49422 0.48855 0.0
H930 H 0.34169 0.47063 0.55599 0.0
H931 H 0.3298 0.46445 0.45003 0.0
C932 C 0.26779 0.42684 0.45636 0.0
N933 N 0.27631 0.41966 0.45941 0.0
C934 C 0.25629 0.42214 0.43122 0.0
C935 C 0.26188 0.40211 0.4137 0.0
C936 C 0.27328 0.4072 0.43936 0.0
C937 C 0.25337 0.40978 0.40908 0.0
H938 H 0.26988 0.43623 0.47368 0.0
H939 H 0.2796 0.40112 0.44332 0.0
O940 O 0.31597 0.44011 0.56235 0.0
O941 O 0.28416 0.41459 0.53891 0.0
O942 O 0.29583 0.4481 0.51214 0.0
O943 O 0.31232 0.42932 0.48784 0.0
H944 H 0.31454 0.42059 0.61093 0.0
H945 H 0.3198 0.46571 0.59277 0.0
H946 H 0.31595 0.42563 0.67391 0.0
H947 H 0.32115 0.46996 0.65613 0.0
H948 H 0.24981 0.36754 0.49364 0.0
H949 H 0.25893 0.417 0.54436 0.0
H950 H 0.27649 0.38726 0.5117 0.0
H951 H 0.23256 0.39678 0.52557 0.0
H952 H 0.26699 0.42032 0.66603 0.0
H953 H 0.27171 0.46269 0.62336 0.0
H954 H 0.34329 0.40248 0.55789 0.0
H955 H 0.29739 0.37436 0.60158 0.0
H956 H 0.29583 0.45448 0.44547 0.0
H957 H 0.30995 0.47465 0.54684 0.0
H958 H 0.30706 0.48095 0.42099 0.0
H959 H 0.32103 0.50078 0.5205 0.0
H960 H 0.31086 0.44109 0.42731 0.0
H961 H 0.31069 0.40226 0.47705 0.0
H962 H 0.30899 0.42871 0.37051 0.0
H963 H 0.30874 0.39052 0.41935 0.0
H964 H 0.36561 0.49519 0.54386 0.0
H965 H 0.35326 0.48903 0.43542 0.0
H966 H 0.24967 0.42807 0.4293 0.0
H967 H 0.25993 0.39246 0.39735 0.0
Li968 Li 0.88682 0.30922 0.70131 0.0
Li969 Li 0.86048 0.29802 0.7207 0.0
Li970 Li 0.86545 0.29305 0.6631 0.0
Li971 Li 0.87003 0.31927 0.68006 0.0
C972 C 0.8755 0.28091 0.73367 0.0
N973 N 0.88427 0.2693 0.78878 0.0
C974 C 0.87886 0.28838 0.76574 0.0
C975 C 0.87664 0.26754 0.72963 0.0
C976 C 0.88326 0.28233 0.79329 0.0
C977 C 0.88108 0.26185 0.7578 0.0
C978 C 0.87688 0.32801 0.75447 0.0
C979 C 0.86693 0.34323 0.78111 0.0
N980 N 0.87599 0.34541 0.80927 0.0
C981 C 0.88618 0.33051 0.7836 0.0
C982 C 0.86724 0.33451 0.75312 0.0
C983 C 0.88552 0.33928 0.81107 0.0
C984 C 0.91565 0.33029 0.72796 0.0
N985 N 0.90739 0.31565 0.71521 0.0
C986 C 0.92753 0.31033 0.73068 0.0
C987 C 0.91314 0.30579 0.71544 0.0
C988 C 0.93599 0.32514 0.74573 0.0
C989 C 0.93003 0.3353 0.74351 0.0
H990 H 0.91076 0.33786 0.72731 0.0
H991 H 0.90637 0.29423 0.70484 0.0
C992 C 0.83882 0.27182 0.75633 0.0
N993 N 0.84642 0.28759 0.75821 0.0
C994 C 0.82831 0.26284 0.78202 0.0
C995 C 0.83366 0.28645 0.81142 0.0
C996 C 0.84397 0.29499 0.78497 0.0
C997 C 0.8257 0.27017 0.81012 0.0
H998 H 0.84095 0.26621 0.73476 0.0
H999 H 0.84992 0.30746 0.78602 0.0
C1000 C 0.89422 0.31251 0.63144 0.0
N1001 N 0.91502 0.30972 0.58889 0.0
C1002 C 0.90312 0.32422 0.6077 0.0
C1003 C 0.89589 0.29938 0.63356 0.0
C1004 C 0.91358 0.32259 0.5864 0.0
C1005 C 0.90647 0.29819 0.61182 0.0
C1006 C 0.83509 0.29183 0.68718 0.0
C1007 C 0.82567 0.27596 0.68059 0.0
C1008 C 0.82894 0.29986 0.70461 0.0
C1009 C 0.81029 0.26832 0.6921 0.0
C1010 C 0.81351 0.2918 0.71573 0.0
N1011 N 0.80459 0.27633 0.70934 0.0
C1012 C 0.8537 0.26314 0.63698 0.0
C1013 C 0.85634 0.2817 0.59501 0.0
C1014 C 0.8467 0.25118 0.61284 0.0
N1015 N 0.85815 0.27797 0.62779 0.0
C1016 C 0.84934 0.27008 0.56998 0.0
C1017 C 0.84414 0.25453 0.579 0.0
H1018 H 0.85513 0.26054 0.66339 0.0
H1019 H 0.85988 0.29361 0.58866 0.0
C1020 C 0.88235 0.35132 0.67454 0.0
N1021 N 0.86992 0.33739 0.66594 0.0
C1022 C 0.88238 0.36505 0.66699 0.0
C1023 C 0.857 0.34983 0.64099 0.0
C1024 C 0.85741 0.33637 0.64927 0.0
C1025 C 0.86954 0.36444 0.65017 0.0
H1026 H 0.89206 0.3517 0.68808 0.0
H1027 H 0.84769 0.32508 0.64283 0.0
O1028 O 0.87142 0.28674 0.70607 0.0
O1029 O 0.87761 0.31967 0.72706 0.0
O1030 O 0.88397 0.31399 0.65247 0.0
O1031 O 0.85029 0.29941 0.67698 0.0
H1032 H 0.87805 0.2987 0.76938 0.0
H1033 H 0.87425 0.26169 0.70491 0.0
H1034 H 0.88587 0.288 0.81824 0.0
H1035 H 0.88204 0.25153 0.755 0.0
H1036 H 0.85947 0.34826 0.78045 0.0
H1037 H 0.89386 0.32575 0.78502 0.0
H1038 H 0.85995 0.33272 0.73093 0.0
H1039 H 0.89261 0.34126 0.8338 0.0
H1040 H 0.9318 0.30222 0.73135 0.0
H1041 H 0.93602 0.34674 0.75512 0.0
H1042 H 0.82251 0.2503 0.78023 0.0
H1043 H 0.83183 0.29253 0.83252 0.0
H1044 H 0.90196 0.33446 0.60579 0.0
H1045 H 0.88912 0.2902 0.65177 0.0
H1046 H 0.92055 0.33157 0.56789 0.0
H1047 H 0.90788 0.28809 0.6132 0.0
H1048 H 0.83025 0.26957 0.66712 0.0
H1049 H 0.83603 0.31215 0.70972 0.0
H1050 H 0.80291 0.25602 0.68744 0.0
H1051 H 0.80863 0.29784 0.72949 0.0
H1052 H 0.84302 0.2394 0.62079 0.0
H1053 H 0.84741 0.27316 0.54434 0.0
H1054 H 0.8922 0.376 0.67507 0.0
H1055 H 0.84696 0.34879 0.62759 0.0
H1056 H 0.16493 0.38749 0.14354 0.0
H1057 H 0.17949 0.38112 0.18514 0.0
H1058 H 0.1658 0.40129 0.26708 0.0
H1059 H 0.15093 0.40725 0.22578 0.0
H1060 H 0.20383 0.40209 0.21786 0.0
H1061 H 0.16184 0.36412 0.31617 0.0
H1062 H 0.15576 0.36761 0.27474 0.0
H1063 H 0.16016 0.38108 0.30995 0.0
C1064 C 0.16477 0.39022 0.17061 0.0
C1065 C 0.15688 0.3979 0.18153 0.0
C1066 C 0.17303 0.38654 0.19433 0.0
C1067 C 0.17361 0.39056 0.22933 0.0
C1068 C 0.16518 0.39765 0.24045 0.0
H1069 H 0.2485 0.42892 0.36707 0.0
H1070 H 0.22895 0.4217 0.32206 0.0
C1071 C 0.15676 0.40116 0.2168 0.0
C1072 C 0.18473 0.38947 0.2531 0.0
H1073 H 0.18868 0.37988 0.33573 0.0
C1074 C 0.20043 0.3969 0.24334 0.0
C1075 C 0.18034 0.3825 0.28615 0.0
C1076 C 0.16357 0.37323 0.29717 0.0
C1077 C 0.21195 0.3985 0.26653 0.0
C1078 C 0.20771 0.39288 0.30066 0.0
C1079 C 0.19193 0.38445 0.3097 0.0
C1080 C 0.21953 0.39694 0.32799 0.0
C1081 C 0.22863 0.40657 0.25448 0.0
C1082 C 0.22041 0.38538 0.34696 0.0
C1083 C 0.23148 0.38948 0.37322 0.0
C1084 C 0.24171 0.40521 0.38103 0.0
C1085 C 0.2407 0.4167 0.36198 0.0
C1086 C 0.22966 0.4126 0.33591 0.0
H1087 H 0.22937 0.4053 0.22611 0.0
H1088 H 0.23413 0.41917 0.26024 0.0
H1089 H 0.23535 0.40193 0.26777 0.0
H1090 H 0.21257 0.37321 0.34143 0.0
H1091 H 0.23186 0.38036 0.38774 0.0
H1092 H 0.81813 0.22671 0.59208 0.0
H1093 H 0.80199 0.20648 0.5507 0.0
H1094 H 0.83282 0.23352 0.46806 0.0
H1095 H 0.84936 0.25367 0.50956 0.0
H1096 H 0.78728 0.21168 0.49535 0.0
H1097 H 0.82566 0.18961 0.44985 0.0
H1098 H 0.82931 0.20068 0.48925 0.0
H1099 H 0.83419 0.21035 0.44808 0.0
C1100 C 0.82173 0.2282 0.56526 0.0
C1101 C 0.83507 0.24179 0.55412 0.0
C1102 C 0.81243 0.21666 0.54163 0.0
C1103 C 0.81631 0.21843 0.50644 0.0
C1104 C 0.82978 0.23181 0.49524 0.0
H1105 H 0.76945 0.17387 0.31813 0.0
H1106 H 0.78827 0.18911 0.36299 0.0
C1107 C 0.83911 0.24339 0.51889 0.0
C1108 C 0.80547 0.20698 0.48118 0.0
H1109 H 0.80233 0.18158 0.418 0.0
C1110 C 0.7905 0.20498 0.47866 0.0
C1111 C 0.80979 0.19835 0.45938 0.0
C1112 C 0.82557 0.19971 0.46187 0.0
C1113 C 0.77981 0.19484 0.45431 0.0
C1114 C 0.78412 0.18624 0.43238 0.0
C1115 C 0.79906 0.18814 0.43502 0.0
C1116 C 0.77345 0.17578 0.40549 0.0
C1117 C 0.76417 0.19382 0.45148 0.0
C1118 C 0.75909 0.16293 0.41459 0.0
C1119 C 0.7483 0.1542 0.38902 0.0
C1120 C 0.75177 0.15809 0.35393 0.0
C1121 C 0.76649 0.17048 0.34489 0.0
C1122 C 0.77724 0.17924 0.37048 0.0
H1123 H 0.76405 0.20372 0.46455 0.0
H1124 H 0.76085 0.19359 0.42398 0.0
H1125 H 0.75523 0.18294 0.46393 0.0
H1126 H 0.75609 0.15992 0.44151 0.0
H1127 H 0.73715 0.14456 0.39671 0.0
H1128 H 0.61642 0.7653 0.51189 0.0
H1129 H 0.6235 0.78445 0.55849 0.0
H1130 H 0.57498 0.76795 0.57782 0.0
H1131 H 0.56783 0.74852 0.53256 0.0
H1132 H 0.617 0.80827 0.5645 0.0
H1133 H 0.59113 0.7675 0.67376 0.0
H1134 H 0.59445 0.76149 0.63208 0.0
H1135 H 0.57729 0.76287 0.63962 0.0
C1136 C 0.60728 0.76561 0.52648 0.0
C1137 C 0.59156 0.75539 0.51855 0.0
C1138 C 0.61135 0.7766 0.5529 0.0
C1139 C 0.59976 0.77743 0.57195 0.0
C1140 C 0.5841 0.76729 0.56394 0.0
H1141 H 0.59022 0.84657 0.67456 0.0
H1142 H 0.59589 0.8315 0.6332 0.0
C1143 C 0.58004 0.75632 0.53772 0.0
C1144 C 0.6038 0.78922 0.59937 0.0
H1145 H 0.59448 0.79309 0.6821 0.0
C1146 C 0.61236 0.805 0.59046 0.0
C1147 C 0.59807 0.78496 0.63343 0.0
C1148 C 0.58988 0.76828 0.64539 0.0
C1149 C 0.61436 0.8166 0.61407 0.0
C1150 C 0.6073 0.81221 0.64704 0.0
C1151 C 0.59972 0.79649 0.65667 0.0
C1152 C 0.60635 0.82338 0.67092 0.0
C1153 C 0.62379 0.83338 0.6032 0.0
C1154 C 0.6103 0.82386 0.70593 0.0
C1155 C 0.6068 0.83224 0.72969 0.0
C1156 C 0.59935 0.84036 0.7188 0.0
C1157 C 0.59615 0.84057 0.68352 0.0
C1158 C 0.59948 0.83203 0.65983 0.0
H1159 H 0.6329 0.83504 0.58426 0.0
H1160 H 0.61605 0.83692 0.5904 0.0
H1161 H 0.62944 0.84112 0.6257 0.0
H1162 H 0.61555 0.81724 0.7151 0.0
H1163 H 0.60948 0.832 0.75675 0.0
H1164 H 0.82616 0.60608 0.64135 0.0
H1165 H 0.81164 0.61218 0.68357 0.0
H1166 H 0.83151 0.59868 0.76639 0.0
H1167 H 0.8461 0.59264 0.72434 0.0
H1168 H 0.78984 0.59009 0.72515 0.0
H1169 H 0.83402 0.63776 0.80561 0.0
H1170 H 0.83849 0.63283 0.76384 0.0
H1171 H 0.83756 0.62181 0.80159 0.0
C1172 C 0.82761 0.60466 0.66862 0.0
C1173 C 0.83717 0.59879 0.67958 0.0
C1174 C 0.81938 0.60822 0.69268 0.0
C1175 C 0.82061 0.60603 0.72812 0.0
C1176 C 0.83067 0.60082 0.73923 0.0
H1177 H 0.76908 0.58977 0.91286 0.0
H1178 H 0.78826 0.59551 0.86746 0.0
C1179 C 0.83896 0.59732 0.71517 0.0
C1180 C 0.80991 0.60719 0.75298 0.0
H1181 H 0.80847 0.62287 0.83046 0.0
C1182 C 0.79389 0.59748 0.74786 0.0
C1183 C 0.81524 0.6168 0.7826 0.0
C1184 C 0.83227 0.628 0.7886 0.0
C1185 C 0.78307 0.5965 0.77242 0.0
C1186 C 0.78843 0.60571 0.80264 0.0
C1187 C 0.80442 0.61583 0.80724 0.0
C1188 C 0.77768 0.60394 0.83101 0.0
C1189 C 0.76607 0.58501 0.76667 0.0
C1190 C 0.76558 0.60713 0.82579 0.0
C1191 C 0.75454 0.60383 0.85172 0.0
C1192 C 0.75556 0.59743 0.88338 0.0
C1193 C 0.76807 0.59485 0.88893 0.0
C1194 C 0.77903 0.59809 0.86299 0.0
H1195 H 0.76424 0.57667 0.74559 0.0
H1196 H 0.76064 0.57835 0.79065 0.0
H1197 H 0.75997 0.59138 0.75943 0.0
H1198 H 0.7645 0.6119 0.80144 0.0
H1199 H 0.74516 0.60614 0.84691 0.0
H1200 H 0.23418 0.81233 0.82612 0.0
H1201 H 0.21511 0.79772 0.87079 0.0
H1202 H 0.22226 0.84045 0.91605 0.0
H1203 H 0.24119 0.85528 0.87062 0.0
H1204 H 0.22324 0.8021 0.94258 0.0
H1205 H 0.17373 0.81135 0.91164 0.0
H1206 H 0.18816 0.81387 0.8799 0.0
H1207 H 0.19285 0.82824 0.91285 0.0
C1208 C 0.23145 0.81866 0.84502 0.0
C1209 C 0.23917 0.83498 0.84473 0.0
C1210 C 0.22061 0.81028 0.87064 0.0
C1211 C 0.2172 0.81801 0.89645 0.0
C1212 C 0.2246 0.83428 0.896 0.0
H1213 H 0.17658 0.77366 0.09256 0.0
H1214 H 0.19133 0.79326 0.04852 0.0
C1215 C 0.23551 0.84272 0.8703 0.0
C1216 C 0.20696 0.80896 0.92536 0.0
H1217 H 0.17133 0.79657 0.96162 0.0
C1218 C 0.21193 0.80096 0.94691 0.0
C1219 C 0.19221 0.80747 0.93062 0.0
C1220 C 0.18628 0.81558 0.90748 0.0
C1221 C 0.20246 0.79132 0.97346 0.0
C1222 C 0.1877 0.78983 0.97888 0.0
C1223 C 0.18272 0.79789 0.95748 0.0
C1224 C 0.17717 0.77933 0.00582 0.0
C1225 C 0.20813 0.78245 0.99491 0.0
C1226 C 0.16395 0.76534 0.9964 0.0
C1227 C 0.15551 0.75411 0.02148 0.0
C1228 C 0.16024 0.75675 0.05626 0.0
C1229 C 0.17287 0.77122 0.06583 0.0
C1230 C 0.18125 0.78243 0.0408 0.0
H1231 H 0.21837 0.78255 0.98308 0.0
H1232 H 0.21155 0.78783 0.02092 0.0
H1233 H 0.19878 0.7702 0.99832 0.0
H1234 H 0.16067 0.76277 0.96946 0.0
H1235 H 0.14584 0.74305 0.01339 0.0
H1236 H 0.42667 0.18453 0.22073 0.0
H1237 H 0.42047 0.19784 0.17588 0.0
H1238 H 0.37421 0.15842 0.16747 0.0
H1239 H 0.38027 0.14501 0.21304 0.0
H1240 H 0.40926 0.18521 0.10596 0.0
H1241 H 0.36938 0.19832 0.18144 0.0
H1242 H 0.38329 0.19434 0.20229 0.0
H1243 H 0.36632 0.17885 0.18241 0.0
C1244 C 0.4151 0.17875 0.20969 0.0
C1245 C 0.40391 0.16378 0.22059 0.0
C1246 C 0.41162 0.18632 0.18395 0.0
C1247 C 0.39687 0.17914 0.1687 0.0
C1248 C 0.38562 0.16418 0.17928 0.0
H1249 H 0.38459 0.22164 0.98153 0.0
H1250 H 0.38007 0.20173 0.02455 0.0
C1251 C 0.38913 0.15652 0.20505 0.0
C1252 C 0.39365 0.18737 0.14104 0.0
H1253 H 0.37608 0.20876 0.12528 0.0
C1254 C 0.40181 0.19015 0.10985 0.0
C1255 C 0.38401 0.19385 0.14655 0.0
C1256 C 0.37525 0.19131 0.17998 0.0
C1257 C 0.401 0.19972 0.08434 0.0
C1258 C 0.39165 0.20654 0.09015 0.0
C1259 C 0.38312 0.20339 0.12093 0.0
C1260 C 0.39191 0.21813 0.06586 0.0
C1261 C 0.41076 0.20312 0.05212 0.0
C1262 C 0.39948 0.23383 0.07539 0.0
C1263 C 0.40215 0.24523 0.05091 0.0
C1264 C 0.39727 0.24107 0.0165 0.0
C1265 C 0.38876 0.22522 0.00768 0.0
C1266 C 0.3861 0.21384 0.03219 0.0
H1267 H 0.41916 0.19886 0.05414 0.0
H1268 H 0.40306 0.19733 0.02965 0.0
H1269 H 0.4173 0.2158 0.0469 0.0
H1270 H 0.40406 0.23734 0.1013 0.0
H1271 H 0.40882 0.25732 0.05848 0.0
H1272 H 0.13291 0.50635 0.1466 0.0
H1273 H 0.13356 0.53089 0.15818 0.0
H1274 H 0.12518 0.53475 0.05021 0.0
H1275 H 0.12458 0.5103 0.03837 0.0
H1276 H 0.15327 0.56042 0.12969 0.0
H1277 H 0.09139 0.53986 0.09906 0.0
H1278 H 0.09869 0.5267 0.10619 0.0
H1279 H 0.10184 0.53652 0.06542 0.0
C1280 C 0.13127 0.51246 0.1253 0.0
C1281 C 0.1286 0.50633 0.0916 0.0
C1282 C 0.13159 0.52643 0.13198 0.0
C1283 C 0.12918 0.53449 0.10514 0.0
C1284 C 0.12671 0.52852 0.07142 0.0
H1285 H 0.12618 0.62007 0.09281 0.0
H1286 H 0.12679 0.59624 0.08049 0.0
C1287 C 0.12636 0.51455 0.06472 0.0
C1288 C 0.12953 0.54929 0.11231 0.0
H1289 H 0.10759 0.56688 0.10854 0.0
C1290 C 0.14328 0.56184 0.12522 0.0
C1291 C 0.11647 0.55107 0.10635 0.0
C1292 C 0.10121 0.5378 0.09378 0.0
C1293 C 0.1444 0.57625 0.13182 0.0
C1294 C 0.13134 0.57803 0.12589 0.0
C1295 C 0.1176 0.56548 0.11295 0.0
C1296 C 0.13158 0.59276 0.13328 0.0
C1297 C 0.15966 0.58952 0.14441 0.0
C1298 C 0.13399 0.59864 0.16708 0.0
C1299 C 0.13377 0.6123 0.17417 0.0
C1300 C 0.13101 0.62029 0.14761 0.0
C1301 C 0.12856 0.61433 0.11376 0.0
C1302 C 0.1288 0.60067 0.10671 0.0
H1303 H 0.16949 0.58753 0.13882 0.0
H1304 H 0.1621 0.60065 0.13229 0.0
H1305 H 0.15907 0.59069 0.17283 0.0
H1306 H 0.13588 0.59256 0.18808 0.0
H1307 H 0.13584 0.61665 0.20045 0.0
H1308 H 0.62884 0.15352 0.25247 0.0
H1309 H 0.6046 0.15335 0.26515 0.0
H1310 H 0.58018 0.10333 0.27004 0.0
H1311 H 0.60439 0.10339 0.25782 0.0
H1312 H 0.57576 0.13695 0.22492 0.0
H1313 H 0.56913 0.11789 0.36213 0.0
H1314 H 0.5875 0.12633 0.33961 0.0
H1315 H 0.57289 0.10653 0.33155 0.0
C1316 C 0.61834 0.1425 0.25663 0.0
C1317 C 0.61851 0.12847 0.25425 0.0
C1318 C 0.60451 0.14242 0.26367 0.0
C1319 C 0.59068 0.12834 0.26883 0.0
C1320 C 0.59079 0.11432 0.26651 0.0
H1321 H 0.49586 0.10317 0.31776 0.0
H1322 H 0.52013 0.10344 0.30514 0.0
C1323 C 0.60459 0.11437 0.25925 0.0
C1324 C 0.57603 0.12829 0.27574 0.0
H1325 H 0.54825 0.1195 0.33725 0.0
C1326 C 0.56974 0.1332 0.24949 0.0
C1327 C 0.56825 0.12331 0.30777 0.0
C1328 C 0.57479 0.11831 0.33707 0.0
C1329 C 0.55564 0.133 0.2542 0.0
C1330 C 0.54788 0.12812 0.28636 0.0
C1331 C 0.55422 0.12323 0.31262 0.0
C1332 C 0.53316 0.12799 0.29335 0.0
C1333 C 0.54903 0.13766 0.22441 0.0
C1334 C 0.53248 0.14174 0.29123 0.0
C1335 C 0.51862 0.14159 0.29825 0.0
C1336 C 0.50525 0.12774 0.30801 0.0
C1337 C 0.506 0.11403 0.3105 0.0
C1338 C 0.51984 0.11416 0.30322 0.0
H1339 H 0.5539 0.13674 0.19924 0.0
H1340 H 0.53618 0.13033 0.22335 0.0
H1341 H 0.55202 0.14993 0.2278 0.0
H1342 H 0.54272 0.15262 0.28458 0.0
H1343 H 0.51846 0.15239 0.29675 0.0
H1344 H 0.38115 0.50076 0.43372 0.0
H1345 H 0.40482 0.52523 0.421 0.0
H1346 H 0.39797 0.54565 0.51291 0.0
H1347 H 0.37394 0.52142 0.52513 0.0
H1348 H 0.40611 0.56499 0.45615 0.0
H1349 H 0.44603 0.54154 0.47177 0.0
H1350 H 0.43077 0.53105 0.44101 0.0
H1351 H 0.42606 0.53112 0.48589 0.0
C1352 C 0.38459 0.5105 0.45106 0.0
C1353 C 0.3757 0.50911 0.48056 0.0
C1354 C 0.39821 0.52441 0.44396 0.0
C1355 C 0.40328 0.53714 0.46636 0.0
C1356 C 0.39431 0.53591 0.49546 0.0
H1357 H 0.49596 0.61762 0.46941 0.0
H1358 H 0.47149 0.59422 0.48343 0.0
C1359 C 0.38066 0.52201 0.50254 0.0
C1360 C 0.41789 0.5518 0.45934 0.0
H1361 H 0.4569 0.56698 0.44842 0.0
C1362 C 0.41724 0.56546 0.45457 0.0
C1363 C 0.4324 0.5524 0.45783 0.0
C1364 C 0.43394 0.53828 0.46472 0.0
C1365 C 0.4307 0.57969 0.44773 0.0
C1366 C 0.44513 0.58016 0.44492 0.0
C1367 C 0.4458 0.56655 0.45026 0.0
C1368 C 0.45972 0.59468 0.43676 0.0
C1369 C 0.42937 0.5941 0.44418 0.0
C1370 C 0.46124 0.60265 0.40577 0.0
C1371 C 0.47514 0.61616 0.39789 0.0
C1372 C 0.48787 0.62185 0.42066 0.0
C1373 C 0.48632 0.61373 0.45156 0.0
C1374 C 0.47239 0.60028 0.4595 0.0
H1375 H 0.41864 0.59262 0.45663 0.0
H1376 H 0.43955 0.60433 0.45585 0.0
H1377 H 0.42889 0.59653 0.41635 0.0
H1378 H 0.45172 0.59836 0.38751 0.0
H1379 H 0.47587 0.6222 0.37404 0.0
H1380 H 0.89299 0.50201 0.59464 0.0
H1381 H 0.89275 0.47762 0.60482 0.0
H1382 H 0.84271 0.45321 0.60964 0.0
H1383 H 0.84279 0.47739 0.59788 0.0
H1384 H 0.88139 0.45748 0.65956 0.0
H1385 H 0.85069 0.42793 0.53875 0.0
H1386 H 0.85867 0.44848 0.54561 0.0
H1387 H 0.84034 0.43477 0.56463 0.0
C1388 C 0.88192 0.49143 0.59742 0.0
C1389 C 0.8679 0.49165 0.59514 0.0
C1390 C 0.88181 0.47752 0.6035 0.0
C1391 C 0.8677 0.46357 0.60736 0.0
C1392 C 0.85371 0.46379 0.60598 0.0
H1393 H 0.84463 0.36908 0.65505 0.0
H1394 H 0.84416 0.39312 0.64456 0.0
C1395 C 0.8538 0.47768 0.59974 0.0
C1396 C 0.86768 0.44882 0.6132 0.0
H1397 H 0.85454 0.41249 0.5801 0.0
C1398 C 0.87558 0.44767 0.64212 0.0
C1399 C 0.8601 0.43605 0.59035 0.0
C1400 C 0.85209 0.43687 0.55791 0.0
C1401 C 0.87594 0.43399 0.64903 0.0
C1402 C 0.86829 0.42123 0.6263 0.0
C1403 C 0.86034 0.42233 0.59748 0.0
C1404 C 0.86856 0.40667 0.63187 0.0
C1405 C 0.88431 0.43317 0.68079 0.0
C1406 C 0.8824 0.40634 0.62758 0.0
C1407 C 0.88268 0.3926 0.63307 0.0
C1408 C 0.86912 0.37893 0.64306 0.0
C1409 C 0.85523 0.37931 0.64692 0.0
C1410 C 0.85495 0.39305 0.6412 0.0
H1411 H 0.88713 0.44288 0.69899 0.0
H1412 H 0.87718 0.422 0.69456 0.0
H1413 H 0.89534 0.43378 0.6729 0.0
H1414 H 0.89297 0.41672 0.61986 0.0
H1415 H 0.89351 0.39267 0.62925 0.0
H1416 H 0.36834 0.84573 0.75311 0.0
H1417 H 0.39266 0.84602 0.76482 0.0
H1418 H 0.41666 0.89595 0.77302 0.0
H1419 H 0.3923 0.89575 0.7626 0.0
H1420 H 0.41992 0.86054 0.72673 0.0
H1421 H 0.42996 0.88317 0.86111 0.0
H1422 H 0.41148 0.87573 0.83958 0.0
H1423 H 0.42705 0.89502 0.83043 0.0
C1424 C 0.37873 0.85676 0.75802 0.0
C1425 C 0.37835 0.87072 0.75712 0.0
C1426 C 0.39264 0.85691 0.76443 0.0
C1427 C 0.40641 0.87098 0.77023 0.0
C1428 C 0.40611 0.88494 0.76924 0.0
H1429 H 0.50246 0.89601 0.80405 0.0
H1430 H 0.4782 0.89598 0.79303 0.0
C1431 C 0.3922 0.88481 0.76288 0.0
C1432 C 0.42117 0.87107 0.77618 0.0
H1433 H 0.45062 0.88155 0.83433 0.0
C1434 C 0.42661 0.86507 0.75031 0.0
C1435 C 0.42986 0.87701 0.80696 0.0
C1436 C 0.42425 0.88297 0.83627 0.0
C1437 C 0.44063 0.86505 0.75417 0.0
C1438 C 0.44933 0.87102 0.7849 0.0
C1439 C 0.44392 0.87704 0.81075 0.0
C1440 C 0.464 0.87096 0.79092 0.0
C1441 C 0.44619 0.85891 0.72512 0.0
C1442 C 0.46398 0.85689 0.79365 0.0
C1443 C 0.47779 0.85685 0.80018 0.0
C1444 C 0.49187 0.8709 0.80423 0.0
C1445 C 0.49181 0.88498 0.80146 0.0
C1446 C 0.47798 0.885 0.79499 0.0
H1447 H 0.4402 0.85824 0.70038 0.0
H1448 H 0.45891 0.86635 0.72125 0.0
H1449 H 0.44376 0.84704 0.73174 0.0
H1450 H 0.45324 0.84592 0.79126 0.0
H1451 H 0.47736 0.8458 0.80281 0.0
H1452 H 0.50897 0.38597 0.86743 0.0
H1453 H 0.53327 0.41008 0.87875 0.0
H1454 H 0.52902 0.39902 0.98746 0.0
H1455 H 0.50471 0.37486 0.97635 0.0
H1456 H 0.53881 0.43491 0.92036 0.0
H1457 H 0.57274 0.40776 0.96547 0.0
H1458 H 0.55435 0.39691 0.94348 0.0
H1459 H 0.55493 0.40141 0.98868 0.0
C1460 C 0.51316 0.38872 0.89379 0.0
C1461 C 0.50495 0.37849 0.921 0.0
C1462 C 0.52707 0.40245 0.90017 0.0
C1463 C 0.53307 0.40621 0.93384 0.0
C1464 C 0.52479 0.39616 0.96116 0.0
H1465 H 0.61244 0.4845 0.02811 0.0
H1466 H 0.58816 0.46054 0.01555 0.0
C1467 C 0.5109 0.38238 0.95479 0.0
C1468 C 0.54784 0.42079 0.9404 0.0
H1469 H 0.58444 0.43508 0.97287 0.0
C1470 C 0.54882 0.43495 0.93165 0.0
C1471 C 0.56089 0.42079 0.95509 0.0
C1472 C 0.56078 0.40591 0.96344 0.0
C1473 C 0.56241 0.44916 0.93785 0.0
C1474 C 0.57538 0.44915 0.95282 0.0
C1475 C 0.57443 0.435 0.96146 0.0
C1476 C 0.59 0.46373 0.96009 0.0
C1477 C 0.5627 0.46409 0.92906 0.0
C1478 C 0.59911 0.47336 0.93299 0.0
C1479 C 0.61297 0.48708 0.94006 0.0
C1480 C 0.61793 0.49139 0.97439 0.0
C1481 C 0.6088 0.48163 0.00144 0.0
C1482 C 0.595 0.46789 0.99432 0.0
H1483 H 0.55084 0.46223 0.92463 0.0
H1484 H 0.56832 0.47277 0.95006 0.0
H1485 H 0.56956 0.46903 0.90509 0.0
H1486 H 0.59553 0.47022 0.90636 0.0
H1487 H 0.61971 0.49439 0.91871 0.0
H1488 H 0.27533 0.46759 0.6871 0.0
H1489 H 0.26069 0.46956 0.73603 0.0
H1490 H 0.22721 0.42078 0.72678 0.0
H1491 H 0.24164 0.41873 0.67771 0.0
H1492 H 0.21508 0.44273 0.7312 0.0
H1493 H 0.25689 0.44966 0.83512 0.0
H1494 H 0.2646 0.46175 0.79737 0.0
H1495 H 0.2566 0.44116 0.79362 0.0
C1496 C 0.26482 0.4573 0.69546 0.0
C1497 C 0.25963 0.44299 0.67869 0.0
C1498 C 0.25656 0.45843 0.72349 0.0
C1499 C 0.24298 0.44528 0.73503 0.0
C1500 C 0.23772 0.43102 0.71825 0.0
H1501 H 0.18445 0.42265 0.9132 0.0
H1502 H 0.20163 0.42429 0.86623 0.0
C1503 C 0.24601 0.42985 0.69041 0.0
C1504 C 0.23404 0.44639 0.76425 0.0
H1505 H 0.23455 0.4506 0.85191 0.0
C1506 C 0.21934 0.44454 0.75758 0.0
C1507 C 0.23967 0.44866 0.79853 0.0
C1508 C 0.25526 0.45034 0.80688 0.0
C1509 C 0.21005 0.44485 0.7845 0.0
C1510 C 0.21567 0.4471 0.81878 0.0
C1511 C 0.23038 0.449 0.82546 0.0
C1512 C 0.20603 0.44671 0.84819 0.0
C1513 C 0.19413 0.44241 0.77633 0.0
C1514 C 0.20307 0.45892 0.85376 0.0
C1515 C 0.19341 0.45814 0.88087 0.0
C1516 C 0.18651 0.44508 0.90275 0.0
C1517 C 0.18974 0.43298 0.89725 0.0
C1518 C 0.19948 0.43384 0.87031 0.0
H1519 H 0.19072 0.4388 0.74906 0.0
H1520 H 0.18531 0.43342 0.79366 0.0
H1521 H 0.19404 0.45338 0.78089 0.0
H1522 H 0.20818 0.46901 0.83702 0.0
H1523 H 0.19137 0.46776 0.8847 0.0
H1524 H 0.71959 0.17439 0.0183 0.0
H1525 H 0.7359 0.19076 0.97103 0.0
H1526 H 0.77418 0.21478 0.04184 0.0
H1527 H 0.75827 0.198 0.08883 0.0
H1528 H 0.75094 0.2223 0.96223 0.0
H1529 H 0.79343 0.20163 0.96631 0.0
H1530 H 0.77513 0.19188 0.98899 0.0
H1531 H 0.79132 0.20901 0.00705 0.0
C1532 C 0.73154 0.18304 0.02376 0.0
C1533 C 0.73765 0.18479 0.05734 0.0
C1534 C 0.74079 0.19246 0.99677 0.0
C1535 C 0.75632 0.20377 0.00282 0.0
C1536 C 0.76232 0.20588 0.03646 0.0
H1537 H 0.8305 0.2745 0.87967 0.0
H1538 H 0.81307 0.25853 0.92617 0.0
C1539 C 0.75312 0.19641 0.06341 0.0
C1540 C 0.76624 0.21342 0.97399 0.0
H1541 H 0.80013 0.22381 0.93131 0.0
C1542 C 0.76164 0.22257 0.95531 0.0
C1543 C 0.78016 0.21367 0.96493 0.0
C1544 C 0.78525 0.20341 0.98263 0.0
C1545 C 0.7708 0.23222 0.92828 0.0
C1546 C 0.78483 0.23267 0.91978 0.0
C1547 C 0.78939 0.22347 0.93821 0.0
C1548 C 0.79497 0.24259 0.89169 0.0
C1549 C 0.7656 0.2421 0.90933 0.0
C1550 C 0.79049 0.23881 0.85706 0.0
C1551 C 0.80043 0.24785 0.8305 0.0
C1552 C 0.81495 0.26084 0.83822 0.0
C1553 C 0.81931 0.26466 0.873 0.0
C1554 C 0.80942 0.25554 0.89952 0.0
H1555 H 0.75572 0.24222 0.92248 0.0
H1556 H 0.77537 0.25422 0.90698 0.0
H1557 H 0.76188 0.23746 0.8828 0.0
H1558 H 0.77941 0.22876 0.85063 0.0
H1559 H 0.79674 0.24472 0.80392 0.0
H1560 H 0.52596 0.7254 0.2235 0.0
H1561 H 0.52328 0.73948 0.17443 0.0
H1562 H 0.57299 0.76454 0.16115 0.0
H1563 H 0.57587 0.75095 0.21064 0.0
H1564 H 0.53904 0.77405 0.16682 0.0
H1565 H 0.55378 0.74437 0.06431 0.0
H1566 H 0.54704 0.73605 0.1067 0.0
H1567 H 0.56676 0.75129 0.10072 0.0
C1568 C 0.53634 0.73401 0.21036 0.0
C1569 C 0.55113 0.73698 0.22093 0.0
C1570 C 0.53476 0.74195 0.18224 0.0
C1571 C 0.54792 0.75285 0.16405 0.0
C1572 C 0.56268 0.75595 0.1746 0.0
H1573 H 0.57365 0.81618 0.99546 0.0
H1574 H 0.5714 0.79892 0.04278 0.0
C1575 C 0.56429 0.74811 0.20279 0.0
C1576 C 0.54638 0.76133 0.13441 0.0
H1577 H 0.55301 0.76697 0.0477 0.0
C1578 C 0.54189 0.77242 0.14065 0.0
C1579 C 0.55016 0.75911 0.10048 0.0
C1580 C 0.55459 0.74698 0.09242 0.0
C1581 C 0.54172 0.78188 0.11392 0.0
C1582 C 0.54583 0.77989 0.08004 0.0
C1583 C 0.54989 0.76847 0.07371 0.0
C1584 C 0.54686 0.79011 0.05113 0.0
C1585 C 0.53782 0.79436 0.12244 0.0
C1586 C 0.53376 0.79073 0.0399 0.0
C1587 C 0.53502 0.80061 0.0128 0.0
C1588 C 0.54937 0.80988 0.99629 0.0
C1589 C 0.5624 0.80904 0.00735 0.0
C1590 C 0.56115 0.79924 0.03447 0.0
H1591 H 0.53841 0.79664 0.15068 0.0
H1592 H 0.54585 0.80538 0.10901 0.0
H1593 H 0.52583 0.7906 0.11361 0.0
H1594 H 0.52256 0.78353 0.05196 0.0
H1595 H 0.52474 0.80087 0.00452 0.0
H1596 H 0.79975 0.5247 0.3912 0.0
H1597 H 0.78327 0.52267 0.34192 0.0
H1598 H 0.79771 0.57122 0.35228 0.0
H1599 H 0.81434 0.57342 0.40102 0.0
H1600 H 0.7585 0.53125 0.34032 0.0
H1601 H 0.80733 0.5651 0.24956 0.0
H1602 H 0.80948 0.55618 0.2883 0.0
H1603 H 0.80898 0.57396 0.29104 0.0
C1604 C 0.79945 0.53494 0.38285 0.0
C1605 C 0.80835 0.54923 0.39993 0.0
C1606 C 0.78999 0.53374 0.35488 0.0
C1607 C 0.78945 0.54684 0.34338 0.0
C1608 C 0.79813 0.56103 0.36064 0.0
H1609 H 0.74869 0.57365 0.1828 0.0
H1610 H 0.76314 0.57145 0.23115 0.0
C1611 C 0.8075 0.56223 0.38865 0.0
C1612 C 0.77986 0.54581 0.31324 0.0
H1613 H 0.78232 0.55972 0.23154 0.0
C1614 C 0.76364 0.53733 0.31635 0.0
C1615 C 0.78669 0.55377 0.28219 0.0
C1616 C 0.80408 0.56268 0.27729 0.0
C1617 C 0.75401 0.53714 0.28954 0.0
C1618 C 0.76086 0.54535 0.25862 0.0
C1619 C 0.7771 0.55347 0.25529 0.0
C1620 C 0.75151 0.54634 0.22992 0.0
C1621 C 0.73667 0.5287 0.29518 0.0
C1622 C 0.74017 0.53295 0.21305 0.0
C1623 C 0.73161 0.53414 0.18572 0.0
C1624 C 0.7344 0.54878 0.17445 0.0
C1625 C 0.74594 0.56216 0.19121 0.0
C1626 C 0.75435 0.56094 0.21868 0.0
H1627 H 0.73364 0.52648 0.32305 0.0
H1628 H 0.73144 0.53541 0.28447 0.0
H1629 H 0.73136 0.51731 0.2818 0.0
H1630 H 0.73802 0.52157 0.22079 0.0
H1631 H 0.72275 0.52359 0.17361 0.0
H1632 H 0.17342 0.71871 0.38052 0.0
H1633 H 0.19067 0.73411 0.42792 0.0
H1634 H 0.21524 0.77294 0.35881 0.0
H1635 H 0.19803 0.75767 0.31132 0.0
H1636 H 0.22681 0.75199 0.42711 0.0
H1637 H 0.19784 0.78715 0.44537 0.0
H1638 H 0.18814 0.76821 0.42525 0.0
H1639 H 0.20271 0.78462 0.4019 0.0
C1640 C 0.18251 0.73053 0.37547 0.0
C1641 C 0.18438 0.73702 0.34231 0.0
C1642 C 0.19237 0.73925 0.40244 0.0
C1643 C 0.20412 0.75461 0.39671 0.0
C1644 C 0.20619 0.76107 0.36359 0.0
H1645 H 0.27868 0.82083 0.52786 0.0
H1646 H 0.26342 0.80365 0.48041 0.0
C1647 C 0.19642 0.75233 0.33654 0.0
C1648 C 0.21391 0.76408 0.42569 0.0
H1649 H 0.21977 0.79357 0.47997 0.0
C1650 C 0.22533 0.76111 0.43872 0.0
C1651 C 0.21178 0.77584 0.44071 0.0
C1652 C 0.19941 0.77918 0.42787 0.0
C1653 C 0.23485 0.76977 0.46643 0.0
C1654 C 0.23281 0.78161 0.48124 0.0
C1655 C 0.22129 0.78448 0.46836 0.0
C1656 C 0.24238 0.79111 0.51047 0.0
C1657 C 0.24689 0.76611 0.48005 0.0
C1658 C 0.23555 0.78963 0.54297 0.0
C1659 C 0.24424 0.7993 0.57019 0.0
C1660 C 0.25987 0.81075 0.56523 0.0
C1661 C 0.26674 0.81199 0.53269 0.0
C1662 C 0.25805 0.80224 0.50552 0.0
H1663 H 0.24534 0.75504 0.46943 0.0
H1664 H 0.25863 0.77561 0.47278 0.0
H1665 H 0.24636 0.76537 0.50871 0.0
H1666 H 0.22345 0.78107 0.54717 0.0
H1667 H 0.23867 0.79785 0.59505 0.0
H1668 H 0.47048 0.26705 0.74159 0.0
H1669 H 0.47281 0.25229 0.69337 0.0
H1670 H 0.42361 0.23101 0.67425 0.0
H1671 H 0.42123 0.24591 0.72165 0.0
H1672 H 0.45669 0.21908 0.68455 0.0
H1673 H 0.44379 0.24891 0.57941 0.0
H1674 H 0.44942 0.25698 0.62233 0.0
H1675 H 0.42978 0.24198 0.61381 0.0
C1676 C 0.4602 0.25932 0.72688 0.0
C1677 C 0.44567 0.25764 0.73537 0.0
C1678 C 0.46154 0.25086 0.69953 0.0
C1679 C 0.44842 0.24075 0.68007 0.0
C1680 C 0.43391 0.23894 0.68868 0.0
H1681 H 0.42123 0.17571 0.51444 0.0
H1682 H 0.42369 0.1928 0.56232 0.0
C1683 C 0.43255 0.24734 0.716 0.0
C1684 C 0.4497 0.23179 0.65105 0.0
H1685 H 0.4428 0.22515 0.5646 0.0
C1686 C 0.45386 0.2205 0.65821 0.0
C1687 C 0.44601 0.23374 0.61681 0.0
C1688 C 0.44214 0.24616 0.60747 0.0
C1689 C 0.45373 0.2106 0.63217 0.0
C1690 C 0.44959 0.21226 0.5981 0.0
C1691 C 0.4459 0.22387 0.59081 0.0
C1692 C 0.44827 0.20164 0.56988 0.0
C1693 C 0.45739 0.19804 0.64154 0.0
C1694 C 0.46131 0.201 0.55824 0.0
C1695 C 0.45991 0.19112 0.53103 0.0
C1696 C 0.44546 0.18178 0.51494 0.0
C1697 C 0.43246 0.18253 0.52667 0.0
C1698 C 0.43387 0.19238 0.55383 0.0
H1699 H 0.45709 0.19623 0.66994 0.0
H1700 H 0.44904 0.18687 0.62908 0.0
H1701 H 0.46921 0.2014 0.63216 0.0
H1702 H 0.47258 0.20825 0.56996 0.0
H1703 H 0.47012 0.19074 0.52271 0.0
H1704 H 0.04423 0.35735 0.97366 0.0
H1705 H 0.0227 0.34416 0.93246 0.0
H1706 H 0.03137 0.38854 0.89426 0.0
H1707 H 0.0529 0.40178 0.93505 0.0
H1708 H 0.99539 0.3499 0.92405 0.0
H1709 H 0.03291 0.36243 0.80807 0.0
H1710 H 0.03965 0.36229 0.8514 0.0
H1711 H 0.03787 0.37848 0.83686 0.0
C1712 C 0.0415 0.36426 0.95651 0.0
C1713 C 0.05019 0.38058 0.95757 0.0
C1714 C 0.02922 0.35674 0.93311 0.0
C1715 C 0.02565 0.36543 0.91021 0.0
C1716 C 0.03411 0.38168 0.91161 0.0
H1717 H 0.96263 0.3535 0.74796 0.0
H1718 H 0.98451 0.36176 0.78761 0.0
C1719 C 0.04628 0.38921 0.93513 0.0
C1720 C 0.01302 0.3576 0.88478 0.0
H1721 H 0.00599 0.35233 0.7981 0.0
C1722 C 0.99763 0.35023 0.89652 0.0
C1723 C 0.01612 0.35816 0.84901 0.0
C1724 C 0.03252 0.36566 0.83541 0.0
C1725 C 0.98517 0.34392 0.87317 0.0
C1726 C 0.98826 0.34469 0.83724 0.0
C1727 C 0.00368 0.35173 0.82563 0.0
C1728 C 0.97567 0.33917 0.81128 0.0
C1729 C 0.96886 0.33713 0.8871 0.0
C1730 C 0.96373 0.32361 0.81068 0.0
C1731 C 0.9511 0.31889 0.78838 0.0
C1732 C 0.9503 0.32964 0.76601 0.0
C1733 C 0.96275 0.34501 0.76533 0.0
C1734 C 0.97531 0.34973 0.78779 0.0
H1735 H 0.96876 0.34072 0.91426 0.0
H1736 H 0.96192 0.34071 0.87106 0.0
H1737 H 0.96308 0.32427 0.88651 0.0
H1738 H 0.96397 0.31521 0.82811 0.0
H1739 H 0.94168 0.30699 0.78974 0.0
H1740 H 0.59531 0.94518 0.96465 0.0
H1741 H 0.6088 0.96721 0.00414 0.0
H1742 H 0.65273 0.97177 0.97468 0.0
H1743 H 0.63933 0.94982 0.93472 0.0
H1744 H 0.63026 0.96918 0.06084 0.0
H1745 H 0.65715 0.01608 0.96197 0.0
H1746 H 0.64036 0.99741 0.95266 0.0
H1747 H 0.65918 -0.00079 0.95611 0.0
C1748 C 0.60786 0.95102 0.96617 0.0
C1749 C 0.61629 0.94586 0.94644 0.0
C1750 C 0.61552 0.96349 0.98893 0.0
C1751 C 0.63172 0.97109 0.9921 0.0
C1752 C 0.64021 0.96607 0.97233 0.0
H1753 H 0.69292 0.05542 0.10645 0.0
H1754 H 0.68315 0.03164 0.07213 0.0
C1755 C 0.63255 0.95353 0.94969 0.0
C1756 C 0.63966 0.98414 0.01654 0.0
H1757 H 0.6625 0.02352 0.02029 0.0
C1758 C 0.63738 0.98107 0.0521 0.0
C1759 C 0.649 -0.00044 0.00487 0.0
C1760 C 0.65157 0.00339 0.96684 0.0
C1761 C 0.64416 0.99311 0.07647 0.0
C1762 C 0.6531 0.00862 0.06479 0.0
C1763 C 0.65565 0.01162 0.02919 0.0
C1764 C 0.65929 0.02203 0.08873 0.0
C1765 C 0.64176 0.98908 0.11442 0.0
C1766 C 0.64914 0.0244 0.10976 0.0
C1767 C 0.65471 0.03791 0.1295 0.0
C1768 C 0.67048 0.04939 0.12812 0.0
C1769 C 0.68069 0.0468 0.10778 0.0
C1770 C 0.67514 0.03323 0.08826 0.0
H1771 H 0.63924 0.97701 0.11906 0.0
H1772 H 0.6521 0.99716 0.12985 0.0
H1773 H 0.63165 0.98991 0.12383 0.0
H1774 H 0.63681 0.01612 0.10983 0.0
H1775 H 0.64654 0.03972 0.14449 0.0
H1776 H 0.67183 0.63208 0.08 0.0
H1777 H 0.66249 0.64624 0.11526 0.0
H1778 H 0.66428 0.62209 0.20621 0.0
H1779 H 0.67345 0.60784 0.1713 0.0
H1780 H 0.63535 0.63308 0.15477 0.0
H1781 H 0.68708 0.66752 0.23733 0.0
H1782 H 0.68787 0.65829 0.19775 0.0
H1783 H 0.68064 0.64713 0.23682 0.0
C1784 C 0.67027 0.62982 0.10752 0.0
C1785 C 0.67347 0.61891 0.12289 0.0
C1786 C 0.66502 0.63797 0.12762 0.0
C1787 C 0.66298 0.6354 0.1634 0.0
C1788 C 0.66619 0.62455 0.17879 0.0
H1789 H 0.62137 0.65892 0.33085 0.0
H1790 H 0.6347 0.64928 0.29368 0.0
C1791 C 0.67142 0.61641 0.15877 0.0
C1792 C 0.65652 0.64327 0.18441 0.0
H1793 H 0.66346 0.66615 0.2556 0.0
C1794 C 0.64155 0.64047 0.17657 0.0
C1795 C 0.66464 0.65283 0.21289 0.0
C1796 C 0.68101 0.65676 0.22157 0.0
C1797 C 0.63427 0.64658 0.19715 0.0
C1798 C 0.6423 0.65593 0.22595 0.0
C1799 C 0.65735 0.65893 0.23352 0.0
C1800 C 0.63509 0.66247 0.24882 0.0
C1801 C 0.61787 0.64258 0.18856 0.0
C1802 C 0.63123 0.67329 0.236 0.0
C1803 C 0.62357 0.67874 0.25703 0.0
C1804 C 0.61971 0.67352 0.29135 0.0
C1805 C 0.62402 0.66301 0.30441 0.0
C1806 C 0.63171 0.65758 0.28332 0.0
H1807 H 0.61217 0.63257 0.17052 0.0
H1808 H 0.61072 0.63978 0.21238 0.0
H1809 H 0.61808 0.65273 0.17605 0.0
H1810 H 0.63394 0.67734 0.20953 0.0
H1811 H 0.62026 0.68669 0.24604 0.0
H1812 H 0.03339 0.651 0.23574 0.0
H1813 H 0.01022 0.64066 0.27233 0.0
H1814 H 0.03693 0.67347 0.35226 0.0
H1815 H 0.06018 0.68365 0.31638 0.0
H1816 H 0.00764 0.62775 0.34022 0.0
H1817 H 0.99784 0.6781 0.34057 0.0
H1818 H 0.00954 0.67561 0.30825 0.0
H1819 H 0.01733 0.68265 0.35057 0.0
C1820 C 0.03433 0.65604 0.26108 0.0
C1821 C 0.04864 0.66819 0.27305 0.0
C1822 C 0.02108 0.65017 0.28184 0.0
C1823 C 0.02187 0.65644 0.31476 0.0
C1824 C 0.03603 0.66869 0.32663 0.0
H1825 H 0.96002 0.61567 0.48986 0.0
H1826 H 0.98237 0.62759 0.45072 0.0
C1827 C 0.0493 0.67452 0.306 0.0
C1828 C 0.00811 0.64961 0.33758 0.0
H1829 H 0.98309 0.65783 0.38057 0.0
C1830 C 0.00221 0.63427 0.34895 0.0
C1831 C 0.00106 0.65818 0.34869 0.0
C1832 C 0.00665 0.67451 0.33622 0.0
C1833 C 0.98955 0.62734 0.37171 0.0
C1834 C 0.98276 0.63604 0.38355 0.0
C1835 C 0.98847 0.65128 0.37168 0.0
C1836 C 0.96945 0.62935 0.40765 0.0
C1837 C 0.98343 0.61071 0.38266 0.0
C1838 C 0.95493 0.62673 0.3965 0.0
C1839 C 0.94215 0.61987 0.41866 0.0
C1840 C 0.9437 0.61563 0.45252 0.0
C1841 C 0.95839 0.6186 0.46381 0.0
C1842 C 0.97116 0.62542 0.44155 0.0
H1843 H 0.9878 0.60468 0.36579 0.0
H1844 H 0.98722 0.6105 0.40954 0.0
H1845 H 0.97053 0.60415 0.38219 0.0
H1846 H 0.95341 0.62969 0.37038 0.0
H1847 H 0.93096 0.61751 0.4089 0.0
H1848 H 0.35629 0.0501 0.44279 0.0
H1849 H 0.34371 0.028 0.48262 0.0
H1850 H 0.38585 0.0257 0.4875 0.0
H1851 H 0.3986 0.0479 0.44847 0.0
H1852 H 0.33999 0.99707 0.4769 0.0
H1853 H 0.37565 0.03033 0.58975 0.0
H1854 H 0.37397 0.03962 0.55115 0.0
H1855 H 0.38663 0.03157 0.55177 0.0
C1856 C 0.36285 0.04486 0.45233 0.0
C1857 C 0.37845 0.05077 0.44258 0.0
C1858 C 0.35564 0.03223 0.47494 0.0
C1859 C 0.36396 0.02544 0.48834 0.0
C1860 C 0.37933 0.03096 0.47777 0.0
H1861 H 0.35117 0.952 0.62312 0.0
H1862 H 0.36046 0.97493 0.58635 0.0
C1863 C 0.38653 0.04353 0.45514 0.0
C1864 C 0.35672 0.01269 0.51377 0.0
H1865 H 0.36049 0.00292 0.59632 0.0
C1866 C 0.34432 0.99834 0.50314 0.0
C1867 C 0.36243 0.01449 0.54793 0.0
C1868 C 0.37531 0.02987 0.56104 0.0
C1869 C 0.33787 0.98549 0.52546 0.0
C1870 C 0.34383 0.9872 0.5594 0.0
C1871 C 0.35597 0.00167 0.57026 0.0
C1872 C 0.33822 0.97389 0.58343 0.0
C1873 C 0.32517 0.97006 0.5121 0.0
C1874 C 0.32274 0.966 0.5947 0.0
C1875 C 0.3174 0.95291 0.61584 0.0
C1876 C 0.3275 0.94759 0.62625 0.0
C1877 C 0.34314 0.9559 0.61591 0.0
C1878 C 0.34845 0.96894 0.59473 0.0
H1879 H 0.32427 0.96993 0.48345 0.0
H1880 H 0.32721 0.96051 0.5202 0.0
H1881 H 0.31386 0.96769 0.523 0.0
H1882 H 0.31476 0.96986 0.58687 0.0
H1883 H 0.30534 0.94688 0.62383 0.0
H1884 H 0.30665 0.35581 0.59584 0.0
H1885 H 0.31538 0.34251 0.63566 0.0
H1886 H 0.3572 0.38589 0.65627 0.0
H1887 H 0.34843 0.39931 0.61754 0.0
H1888 H 0.3433 0.34089 0.63533 0.0
H1889 H 0.33827 0.37006 0.7528 0.0
H1890 H 0.32922 0.36997 0.71224 0.0
H1891 H 0.34957 0.3833 0.71901 0.0
C1892 C 0.31769 0.3625 0.60892 0.0
C1893 C 0.32683 0.37862 0.6036 0.0
C1894 C 0.32267 0.35489 0.63151 0.0
C1895 C 0.33678 0.3633 0.64931 0.0
C1896 C 0.34614 0.37926 0.64321 0.0
H1897 H 0.39642 0.35025 0.78541 0.0
H1898 H 0.38263 0.35931 0.7485 0.0
C1899 C 0.3412 0.38687 0.62069 0.0
C1900 C 0.34183 0.35551 0.67441 0.0
H1901 H 0.35261 0.35678 0.75866 0.0
C1902 C 0.34515 0.34417 0.6624 0.0
C1903 C 0.34412 0.35981 0.7097 0.0
C1904 C 0.33997 0.37134 0.72435 0.0
C1905 C 0.35145 0.33755 0.68451 0.0
C1906 C 0.35427 0.34228 0.71951 0.0
C1907 C 0.35048 0.35324 0.73174 0.0
C1908 C 0.36205 0.33671 0.74334 0.0
C1909 C 0.35567 0.32604 0.67001 0.0
C1910 C 0.35484 0.32107 0.75326 0.0
C1911 C 0.36264 0.31586 0.77465 0.0
C1912 C 0.37775 0.32624 0.78649 0.0
C1913 C 0.38472 0.34199 0.77718 0.0
C1914 C 0.37691 0.34717 0.75589 0.0
H1915 H 0.35528 0.3257 0.6413 0.0
H1916 H 0.36748 0.32893 0.67856 0.0
H1917 H 0.34734 0.31426 0.67979 0.0
H1918 H 0.34325 0.31289 0.74428 0.0
H1919 H 0.35686 0.3037 0.78179 0.0
loop_
_geom_bond_atom_site_label_1
_geom_bond_atom_site_label_2
_geom_bond_distance
_geom_bond_site_symmetry_2
_ccdc_geom_bond_type
Li0 N17 1.990 . S
Li0 O60 1.956 . S
Li0 O61 1.970 . S
Li0 O62 1.961 1_554 S
Li1 N25 1.990 . S
Li1 O60 1.970 . S
Li1 O61 1.956 . S
Li1 O63 1.961 . S
Li2 N47 1.990 . S
Li2 O60 1.961 1_556 S
Li2 O62 1.956 . S
Li2 O63 1.970 1_556 S
Li3 N53 1.990 . S
Li3 O61 1.961 . S
Li3 O62 1.970 1_554 S
Li3 O63 1.956 . S
C4 C6 1.348 . S
C4 C7 1.356 . S
C4 O60 1.325 . S
N5 C8 1.314 . S
N5 C9 1.279 . S
C6 C4 1.348 . S
C6 C8 1.353 . S
C6 H64 0.929 . S
C7 C4 1.356 . S
C7 C9 1.358 . S
C7 H65 0.930 . S
C8 N5 1.314 . S
C8 C6 1.353 . S
C8 H66 0.930 . S
C9 N5 1.279 . S
C9 C7 1.358 . S
C9 H67 0.930 . S
C10 C13 1.348 . S
C10 C14 1.356 . S
C10 O61 1.325 . S
C11 N12 1.279 . S
C11 C14 1.358 . S
C11 H68 0.930 . S
N12 C11 1.279 . S
N12 C15 1.314 . S
C13 C10 1.348 . S
C13 C15 1.353 . S
C13 H69 0.929 . S
C14 C10 1.356 . S
C14 C11 1.358 . S
C14 H70 0.930 . S
C15 N12 1.314 . S
C15 C13 1.353 . S
C15 H71 0.930 . S
C16 N17 1.314 . S
C16 C21 1.353 . S
C16 H22 0.930 . S
N17 Li0 1.990 . S
N17 C16 1.314 . S
N17 C19 1.279 . S
C18 C19 1.358 . S
C18 C20 1.356 . S
C18 H72 0.930 . S
C19 N17 1.279 . S
C19 C18 1.358 . S
C19 H23 0.930 . S
C20 C18 1.356 . S
C20 C21 1.348 . S
C21 C16 1.353 . S
C21 C20 1.348 . S
C21 H73 0.929 . S
H22 C16 0.930 . S
H23 C19 0.930 . S
C24 N25 1.314 . S
C24 C26 1.353 . S
C24 H30 0.930 . S
N25 Li1 1.990 . S
N25 C24 1.314 . S
N25 C28 1.279 . S
C26 C24 1.353 . S
C26 C29 1.348 . S
C26 H74 0.929 . S
C27 C28 1.358 . S
C27 C29 1.356 . S
C27 H75 0.930 . S
C28 N25 1.279 . S
C28 C27 1.358 . S
C28 H31 0.930 . S
C29 C26 1.348 . S
C29 C27 1.356 . S
H30 C24 0.930 . S
H31 C28 0.930 . S
C32 C34 1.348 . S
C32 C35 1.356 . S
C32 O62 1.325 . S
N33 C36 1.314 . S
N33 C37 1.279 . S
C34 C32 1.348 . S
C34 C36 1.353 . S
C34 H76 0.929 . S
C35 C32 1.356 . S
C35 C37 1.358 . S
C35 H77 0.930 . S
C36 N33 1.314 . S
C36 C34 1.353 . S
C36 H78 0.930 . S
C37 N33 1.279 . S
C37 C35 1.358 . S
C37 H79 0.930 . S
C38 C39 1.348 1_554 S
C38 C40 1.356 . S
C38 O63 1.325 . S
C39 C38 1.348 1_556 S
C39 C41 1.353 . S
C39 H80 0.929 . S
C40 C38 1.356 . S
C40 C42 1.358 . S
C40 H81 0.930 . S
C41 C39 1.353 . S
C41 N43 1.314 1_556 S
C41 H82 0.930 . S
C42 C40 1.358 . S
C42 N43 1.279 . S
C42 H83 0.930 . S
N43 C41 1.314 1_554 S
N43 C42 1.279 . S
C44 C46 1.353 . S
C44 N47 1.314 . S
C44 H50 0.930 . S
C45 N47 1.279 . S
C45 C48 1.358 . S
C45 H51 0.930 . S
C46 C44 1.353 . S
C46 C49 1.348 . S
C46 H84 0.929 . S
N47 Li2 1.990 . S
N47 C44 1.314 . S
N47 C45 1.279 . S
C48 C45 1.358 . S
C48 C49 1.356 . S
C48 H85 0.930 . S
C49 C46 1.348 . S
C49 C48 1.356 . S
H50 C44 0.930 . S
H51 C45 0.930 . S
C52 N53 1.314 . S
C52 C54 1.353 . S
C52 H58 0.930 . S
N53 Li3 1.990 . S
N53 C52 1.314 . S
N53 C56 1.279 1_554 S
C54 C52 1.353 . S
C54 C57 1.348 1_554 S
C54 H86 0.929 . S
C55 C56 1.358 . S
C55 C57 1.356 . S
C55 H87 0.930 . S
C56 N53 1.279 1_556 S
C56 C55 1.358 . S
C56 H59 0.930 . S
C57 C54 1.348 1_556 S
C57 C55 1.356 . S
H58 C52 0.930 . S
H59 C56 0.930 . S
O60 Li0 1.956 . S
O60 Li1 1.970 . S
O60 Li2 1.961 1_554 S
O60 C4 1.325 . S
O61 Li0 1.970 . S
O61 Li1 1.956 . S
O61 Li3 1.961 . S
O61 C10 1.325 . S
O62 Li0 1.961 1_556 S
O62 Li2 1.956 . S
O62 Li3 1.970 1_556 S
O62 C32 1.325 . S
O63 Li1 1.961 . S
O63 Li2 1.970 1_554 S
O63 Li3 1.956 . S
O63 C38 1.325 . S
H64 C6 0.929 . S
H65 C7 0.930 . S
H66 C8 0.930 . S
H67 C9 0.930 . S
H68 C11 0.930 . S
H69 C13 0.929 . S
H70 C14 0.930 . S
H71 C15 0.930 . S
H72 C18 0.930 . S
H73 C21 0.929 . S
H74 C26 0.929 . S
H75 C27 0.930 . S
H76 C34 0.929 . S
H77 C35 0.930 . S
H78 C36 0.930 . S
H79 C37 0.930 . S
H80 C39 0.929 . S
H81 C40 0.930 . S
H82 C41 0.930 . S
H83 C42 0.930 . S
H84 C46 0.929 . S
H85 C48 0.930 . S
H86 C54 0.929 . S
H87 C55 0.930 . S
Li88 N105 1.990 . S
Li88 O148 1.956 . S
Li88 O149 1.970 . S
Li88 O150 1.961 . S
Li89 N113 1.990 . S
Li89 O148 1.970 . S
Li89 O149 1.956 . S
Li89 O151 1.961 . S
Li90 N135 1.990 . S
Li90 O148 1.961 . S
Li90 O150 1.956 . S
Li90 O151 1.970 . S
Li91 N141 1.990 . S
Li91 O149 1.961 . S
Li91 O150 1.970 . S
Li91 O151 1.956 . S
C92 C94 1.348 . S
C92 C95 1.356 . S
C92 O148 1.325 . S
N93 C96 1.314 . S
N93 C97 1.279 . S
C94 C92 1.348 . S
C94 C96 1.353 . S
C94 H152 0.929 . S
C95 C92 1.356 . S
C95 C97 1.358 . S
C95 H153 0.930 . S
C96 N93 1.314 . S
C96 C94 1.353 . S
C96 H154 0.930 . S
C97 N93 1.279 . S
C97 C95 1.358 . S
C97 H155 0.930 . S
C98 C101 1.348 . S
C98 C102 1.356 . S
C98 O149 1.325 . S
C99 N100 1.279 . S
C99 C102 1.358 . S
C99 H156 0.930 . S
N100 C99 1.279 . S
N100 C103 1.314 . S
C101 C98 1.348 . S
C101 C103 1.353 . S
C101 H157 0.929 . S
C102 C98 1.356 . S
C102 C99 1.358 . S
C102 H158 0.930 . S
C103 N100 1.314 . S
C103 C101 1.353 . S
C103 H159 0.930 . S
C104 N105 1.314 . S
C104 C109 1.353 . S
C104 H110 0.930 . S
N105 Li88 1.990 . S
N105 C104 1.314 . S
N105 C107 1.279 . S
C106 C107 1.358 . S
C106 C108 1.356 . S
C106 H160 0.930 . S
C107 N105 1.279 . S
C107 C106 1.358 . S
C107 H111 0.930 . S
C108 C106 1.356 . S
C108 C109 1.348 . S
C109 C104 1.353 . S
C109 C108 1.348 . S
C109 H161 0.929 . S
H110 C104 0.930 . S
H111 C107 0.930 . S
C112 N113 1.314 . S
C112 C114 1.353 . S
C112 H118 0.930 . S
N113 Li89 1.990 . S
N113 C112 1.314 . S
N113 C116 1.279 . S
C114 C112 1.353 . S
C114 C117 1.348 . S
C114 H162 0.929 . S
C115 C116 1.358 . S
C115 C117 1.356 . S
C115 H163 0.930 . S
C116 N113 1.279 . S
C116 C115 1.358 . S
C116 H119 0.930 . S
C117 C114 1.348 . S
C117 C115 1.356 . S
H118 C112 0.930 . S
H119 C116 0.930 . S
C120 C122 1.348 . S
C120 C123 1.356 . S
C120 O150 1.325 . S
N121 C124 1.314 . S
N121 C125 1.279 . S
C122 C120 1.348 . S
C122 C124 1.353 . S
C122 H164 0.929 . S
C123 C120 1.356 . S
C123 C125 1.358 . S
C123 H165 0.930 . S
C124 N121 1.314 . S
C124 C122 1.353 . S
C124 H166 0.930 . S
C125 N121 1.279 . S
C125 C123 1.358 . S
C125 H167 0.930 . S
C126 C127 1.348 . S
C126 C128 1.356 . S
C126 O151 1.325 . S
C127 C126 1.348 . S
C127 C129 1.353 . S
C127 H168 0.929 . S
C128 C126 1.356 . S
C128 C130 1.358 . S
C128 H169 0.930 . S
C129 C127 1.353 . S
C129 N131 1.314 . S
C129 H170 0.930 . S
C130 C128 1.358 . S
C130 N131 1.279 . S
C130 H171 0.930 . S
N131 C129 1.314 . S
N131 C130 1.279 . S
C132 C134 1.353 . S
C132 N135 1.314 . S
C132 H138 0.930 . S
C133 N135 1.279 . S
C133 C136 1.358 . S
C133 H139 0.930 . S
C134 C132 1.353 . S
C134 C137 1.348 . S
C134 H172 0.929 . S
N135 Li90 1.990 . S
N135 C132 1.314 . S
N135 C133 1.279 . S
C136 C133 1.358 . S
C136 C137 1.356 . S
C136 H173 0.930 . S
C137 C134 1.348 . S
C137 C136 1.356 . S
H138 C132 0.930 . S
H139 C133 0.930 . S
C140 N141 1.314 . S
C140 C142 1.353 . S
C140 H146 0.930 . S
N141 Li91 1.990 . S
N141 C140 1.314 . S
N141 C144 1.279 . S
C142 C140 1.353 . S
C142 C145 1.348 . S
C142 H174 0.929 . S
C143 C144 1.358 . S
C143 C145 1.356 . S
C143 H175 0.930 . S
C144 N141 1.279 . S
C144 C143 1.358 . S
C144 H147 0.930 . S
C145 C142 1.348 . S
C145 C143 1.356 . S
H146 C140 0.930 . S
H147 C144 0.930 . S
O148 Li88 1.956 . S
O148 Li89 1.970 . S
O148 Li90 1.961 . S
O148 C92 1.325 . S
O149 Li88 1.970 . S
O149 Li89 1.956 . S
O149 Li91 1.961 . S
O149 C98 1.325 . S
O150 Li88 1.961 . S
O150 Li90 1.956 . S
O150 Li91 1.970 . S
O150 C120 1.325 . S
O151 Li89 1.961 . S
O151 Li90 1.970 . S
O151 Li91 1.956 . S
O151 C126 1.325 . S
H152 C94 0.929 . S
H153 C95 0.930 . S
H154 C96 0.930 . S
H155 C97 0.930 . S
H156 C99 0.930 . S
H157 C101 0.929 . S
H158 C102 0.930 . S
H159 C103 0.930 . S
H160 C106 0.930 . S
H161 C109 0.929 . S
H162 C114 0.929 . S
H163 C115 0.930 . S
H164 C122 0.929 . S
H165 C123 0.930 . S
H166 C124 0.930 . S
H167 C125 0.930 . S
H168 C127 0.929 . S
H169 C128 0.930 . S
H170 C129 0.930 . S
H171 C130 0.930 . S
H172 C134 0.929 . S
H173 C136 0.930 . S
H174 C142 0.929 . S
H175 C143 0.930 . S
Li176 N193 1.990 . S
Li176 O236 1.956 . S
Li176 O237 1.970 . S
Li176 O238 1.961 . S
Li177 N201 1.990 . S
Li177 O236 1.970 . S
Li177 O237 1.956 . S
Li177 O239 1.961 . S
Li178 N223 1.990 . S
Li178 O236 1.961 . S
Li178 O238 1.956 . S
Li178 O239 1.970 . S
Li179 N229 1.990 . S
Li179 O237 1.961 . S
Li179 O238 1.970 . S
Li179 O239 1.956 . S
C180 C182 1.348 . S
C180 C183 1.356 . S
C180 O236 1.325 . S
N181 C184 1.314 . S
N181 C185 1.279 . S
C182 C180 1.348 . S
C182 C184 1.353 . S
C182 H240 0.929 . S
C183 C180 1.356 . S
C183 C185 1.358 . S
C183 H241 0.930 . S
C184 N181 1.314 . S
C184 C182 1.353 . S
C184 H242 0.930 . S
C185 N181 1.279 . S
C185 C183 1.358 . S
C185 H243 0.930 . S
C186 C189 1.348 . S
C186 C190 1.356 . S
C186 O237 1.325 . S
C187 N188 1.279 . S
C187 C190 1.358 . S
C187 H244 0.930 . S
N188 C187 1.279 . S
N188 C191 1.314 . S
C189 C186 1.348 . S
C189 C191 1.353 . S
C189 H245 0.929 . S
C190 C186 1.356 . S
C190 C187 1.358 . S
C190 H246 0.930 . S
C191 N188 1.314 . S
C191 C189 1.353 . S
C191 H247 0.930 . S
C192 N193 1.314 . S
C192 C197 1.353 . S
C192 H198 0.930 . S
N193 Li176 1.990 . S
N193 C192 1.314 . S
N193 C195 1.279 . S
C194 C195 1.358 . S
C194 C196 1.356 . S
C194 H248 0.930 . S
C195 N193 1.279 . S
C195 C194 1.358 . S
C195 H199 0.930 . S
C196 C194 1.356 . S
C196 C197 1.348 . S
C197 C192 1.353 . S
C197 C196 1.348 . S
C197 H249 0.929 . S
H198 C192 0.930 . S
H199 C195 0.930 . S
C200 N201 1.314 . S
C200 C202 1.353 . S
C200 H206 0.930 . S
N201 Li177 1.990 . S
N201 C200 1.314 . S
N201 C204 1.279 . S
C202 C200 1.353 . S
C202 C205 1.348 . S
C202 H250 0.929 . S
C203 C204 1.358 . S
C203 C205 1.356 . S
C203 H251 0.930 . S
C204 N201 1.279 . S
C204 C203 1.358 . S
C204 H207 0.930 . S
C205 C202 1.348 . S
C205 C203 1.356 . S
H206 C200 0.930 . S
H207 C204 0.930 . S
C208 C210 1.348 . S
C208 C211 1.356 . S
C208 O238 1.325 . S
N209 C212 1.314 . S
N209 C213 1.279 . S
C210 C208 1.348 . S
C210 C212 1.353 . S
C210 H252 0.929 . S
C211 C208 1.356 . S
C211 C213 1.358 . S
C211 H253 0.930 . S
C212 N209 1.314 . S
C212 C210 1.353 . S
C212 H254 0.930 . S
C213 N209 1.279 . S
C213 C211 1.358 . S
C213 H255 0.930 . S
C214 C215 1.348 . S
C214 C216 1.356 . S
C214 O239 1.325 . S
C215 C214 1.348 . S
C215 C217 1.353 . S
C215 H256 0.929 . S
C216 C214 1.356 . S
C216 C218 1.358 . S
C216 H257 0.930 . S
C217 C215 1.353 . S
C217 N219 1.314 . S
C217 H258 0.930 . S
C218 C216 1.358 . S
C218 N219 1.279 . S
C218 H259 0.930 . S
N219 C217 1.314 . S
N219 C218 1.279 . S
C220 C222 1.353 . S
C220 N223 1.314 . S
C220 H226 0.930 . S
C221 N223 1.279 . S
C221 C224 1.358 . S
C221 H227 0.930 . S
C222 C220 1.353 . S
C222 C225 1.348 . S
C222 H260 0.929 . S
N223 Li178 1.990 . S
N223 C220 1.314 . S
N223 C221 1.279 . S
C224 C221 1.358 . S
C224 C225 1.356 . S
C224 H261 0.930 . S
C225 C222 1.348 . S
C225 C224 1.356 . S
H226 C220 0.930 . S
H227 C221 0.930 . S
C228 N229 1.314 . S
C228 C230 1.353 . S
C228 H234 0.930 . S
N229 Li179 1.990 . S
N229 C228 1.314 . S
N229 C232 1.279 . S
C230 C228 1.353 . S
C230 C233 1.348 . S
C230 H262 0.929 . S
C231 C232 1.358 . S
C231 C233 1.356 . S
C231 H263 0.930 . S
C232 N229 1.279 . S
C232 C231 1.358 . S
C232 H235 0.930 . S
C233 C230 1.348 . S
C233 C231 1.356 . S
H234 C228 0.930 . S
H235 C232 0.930 . S
O236 Li176 1.956 . S
O236 Li177 1.970 . S
O236 Li178 1.961 . S
O236 C180 1.325 . S
O237 Li176 1.970 . S
O237 Li177 1.956 . S
O237 Li179 1.961 . S
O237 C186 1.325 . S
O238 Li176 1.961 . S
O238 Li178 1.956 . S
O238 Li179 1.970 . S
O238 C208 1.325 . S
O239 Li177 1.961 . S
O239 Li178 1.970 . S
O239 Li179 1.956 . S
O239 C214 1.325 . S
H240 C182 0.929 . S
H241 C183 0.930 . S
H242 C184 0.930 . S
H243 C185 0.930 . S
H244 C187 0.930 . S
H245 C189 0.929 . S
H246 C190 0.930 . S
H247 C191 0.930 . S
H248 C194 0.930 . S
H249 C197 0.929 . S
H250 C202 0.929 . S
H251 C203 0.930 . S
H252 C210 0.929 . S
H253 C211 0.930 . S
H254 C212 0.930 . S
H255 C213 0.930 . S
H256 C215 0.929 . S
H257 C216 0.930 . S
H258 C217 0.930 . S
H259 C218 0.930 . S
H260 C222 0.929 . S
H261 C224 0.930 . S
H262 C230 0.929 . S
H263 C231 0.930 . S
Li264 N281 1.990 . S
Li264 O324 1.956 . S
Li264 O325 1.970 . S
Li264 O326 1.961 . S
Li265 N289 1.990 . S
Li265 O324 1.970 . S
Li265 O325 1.956 . S
Li265 O327 1.961 . S
Li266 N311 1.990 . S
Li266 O324 1.961 . S
Li266 O326 1.956 . S
Li266 O327 1.970 . S
Li267 N317 1.990 . S
Li267 O325 1.961 . S
Li267 O326 1.970 . S
Li267 O327 1.956 . S
C268 C270 1.348 . S
C268 C271 1.356 . S
C268 O324 1.325 . S
N269 C272 1.314 . S
N269 C273 1.279 . S
C270 C268 1.348 . S
C270 C272 1.353 . S
C270 H328 0.929 . S
C271 C268 1.356 . S
C271 C273 1.358 . S
C271 H329 0.930 . S
C272 N269 1.314 . S
C272 C270 1.353 . S
C272 H330 0.930 . S
C273 N269 1.279 . S
C273 C271 1.358 . S
C273 H331 0.930 . S
C274 C277 1.348 . S
C274 C278 1.356 . S
C274 O325 1.325 . S
C275 N276 1.279 . S
C275 C278 1.358 . S
C275 H332 0.930 . S
N276 C275 1.279 . S
N276 C279 1.314 . S
C277 C274 1.348 . S
C277 C279 1.353 . S
C277 H333 0.929 . S
C278 C274 1.356 . S
C278 C275 1.358 . S
C278 H334 0.930 . S
C279 N276 1.314 . S
C279 C277 1.353 . S
C279 H335 0.930 . S
C280 N281 1.314 . S
C280 C285 1.353 . S
C280 H286 0.930 . S
N281 Li264 1.990 . S
N281 C280 1.314 . S
N281 C283 1.279 . S
C282 C283 1.358 . S
C282 C284 1.356 . S
C282 H336 0.930 . S
C283 N281 1.279 . S
C283 C282 1.358 . S
C283 H287 0.930 . S
C284 C282 1.356 . S
C284 C285 1.348 . S
C285 C280 1.353 . S
C285 C284 1.348 . S
C285 H337 0.929 . S
H286 C280 0.930 . S
H287 C283 0.930 . S
C288 N289 1.314 . S
C288 C290 1.353 . S
C288 H294 0.930 . S
N289 Li265 1.990 . S
N289 C288 1.314 . S
N289 C292 1.279 . S
C290 C288 1.353 . S
C290 C293 1.348 . S
C290 H338 0.929 . S
C291 C292 1.358 . S
C291 C293 1.356 . S
C291 H339 0.930 . S
C292 N289 1.279 . S
C292 C291 1.358 . S
C292 H295 0.930 . S
C293 C290 1.348 . S
C293 C291 1.356 . S
H294 C288 0.930 . S
H295 C292 0.930 . S
C296 C298 1.348 . S
C296 C299 1.356 . S
C296 O326 1.325 . S
N297 C300 1.314 . S
N297 C301 1.279 . S
C298 C296 1.348 . S
C298 C300 1.353 . S
C298 H340 0.929 . S
C299 C296 1.356 . S
C299 C301 1.358 . S
C299 H341 0.930 . S
C300 N297 1.314 . S
C300 C298 1.353 . S
C300 H342 0.930 . S
C301 N297 1.279 . S
C301 C299 1.358 . S
C301 H343 0.930 . S
C302 C303 1.348 . S
C302 C304 1.356 . S
C302 O327 1.325 . S
C303 C302 1.348 . S
C303 C305 1.353 . S
C303 H344 0.929 . S
C304 C302 1.356 . S
C304 C306 1.358 . S
C304 H345 0.930 . S
C305 C303 1.353 . S
C305 N307 1.314 . S
C305 H346 0.930 . S
C306 C304 1.358 . S
C306 N307 1.279 . S
C306 H347 0.930 . S
N307 C305 1.314 . S
N307 C306 1.279 . S
C308 C310 1.353 . S
C308 N311 1.314 . S
C308 H314 0.930 . S
C309 N311 1.279 . S
C309 C312 1.358 . S
C309 H315 0.930 . S
C310 C308 1.353 . S
C310 C313 1.348 . S
C310 H348 0.929 . S
N311 Li266 1.990 . S
N311 C308 1.314 . S
N311 C309 1.279 . S
C312 C309 1.358 . S
C312 C313 1.356 . S
C312 H349 0.930 . S
C313 C310 1.348 . S
C313 C312 1.356 . S
H314 C308 0.930 . S
H315 C309 0.930 . S
C316 N317 1.314 . S
C316 C318 1.353 . S
C316 H322 0.930 . S
N317 Li267 1.990 . S
N317 C316 1.314 . S
N317 C320 1.279 . S
C318 C316 1.353 . S
C318 C321 1.348 . S
C318 H350 0.929 . S
C319 C320 1.358 . S
C319 C321 1.356 . S
C319 H351 0.930 . S
C320 N317 1.279 . S
C320 C319 1.358 . S
C320 H323 0.930 . S
C321 C318 1.348 . S
C321 C319 1.356 . S
H322 C316 0.930 . S
H323 C320 0.930 . S
O324 Li264 1.956 . S
O324 Li265 1.970 . S
O324 Li266 1.961 . S
O324 C268 1.325 . S
O325 Li264 1.970 . S
O325 Li265 1.956 . S
O325 Li267 1.961 . S
O325 C274 1.325 . S
O326 Li264 1.961 . S
O326 Li266 1.956 . S
O326 Li267 1.970 . S
O326 C296 1.325 . S
O327 Li265 1.961 . S
O327 Li266 1.970 . S
O327 Li267 1.956 . S
O327 C302 1.325 . S
H328 C270 0.929 . S
H329 C271 0.930 . S
H330 C272 0.930 . S
H331 C273 0.930 . S
H332 C275 0.930 . S
H333 C277 0.929 . S
H334 C278 0.930 . S
H335 C279 0.930 . S
H336 C282 0.930 . S
H337 C285 0.929 . S
H338 C290 0.929 . S
H339 C291 0.930 . S
H340 C298 0.929 . S
H341 C299 0.930 . S
H342 C300 0.930 . S
H343 C301 0.930 . S
H344 C303 0.929 . S
H345 C304 0.930 . S
H346 C305 0.930 . S
H347 C306 0.930 . S
H348 C310 0.929 . S
H349 C312 0.930 . S
H350 C318 0.929 . S
H351 C319 0.930 . S
Li352 N369 1.990 . S
Li352 O412 1.956 . S
Li352 O413 1.970 . S
Li352 O414 1.961 . S
Li353 N377 1.990 . S
Li353 O412 1.970 . S
Li353 O413 1.956 . S
Li353 O415 1.961 . S
Li354 N399 1.990 . S
Li354 O412 1.961 . S
Li354 O414 1.956 . S
Li354 O415 1.970 . S
Li355 N405 1.990 . S
Li355 O413 1.961 . S
Li355 O414 1.970 . S
Li355 O415 1.956 . S
C356 C358 1.348 . S
C356 C359 1.356 . S
C356 O412 1.325 . S
N357 C360 1.314 . S
N357 C361 1.279 . S
C358 C356 1.348 . S
C358 C360 1.353 . S
C358 H416 0.929 . S
C359 C356 1.356 . S
C359 C361 1.358 . S
C359 H417 0.930 . S
C360 N357 1.314 . S
C360 C358 1.353 . S
C360 H418 0.930 . S
C361 N357 1.279 . S
C361 C359 1.358 . S
C361 H419 0.930 . S
C362 C365 1.348 . S
C362 C366 1.356 . S
C362 O413 1.325 . S
C363 N364 1.279 . S
C363 C366 1.358 . S
C363 H420 0.930 . S
N364 C363 1.279 . S
N364 C367 1.314 . S
C365 C362 1.348 . S
C365 C367 1.353 . S
C365 H421 0.929 . S
C366 C362 1.356 . S
C366 C363 1.358 . S
C366 H422 0.930 . S
C367 N364 1.314 . S
C367 C365 1.353 . S
C367 H423 0.930 . S
C368 N369 1.314 . S
C368 C373 1.353 . S
C368 H374 0.930 . S
N369 Li352 1.990 . S
N369 C368 1.314 . S
N369 C371 1.279 . S
C370 C371 1.358 . S
C370 C372 1.356 . S
C370 H424 0.930 . S
C371 N369 1.279 . S
C371 C370 1.358 . S
C371 H375 0.930 . S
C372 C370 1.356 . S
C372 C373 1.348 . S
C373 C368 1.353 . S
C373 C372 1.348 . S
C373 H425 0.929 . S
H374 C368 0.930 . S
H375 C371 0.930 . S
C376 N377 1.314 . S
C376 C378 1.353 . S
C376 H382 0.930 . S
N377 Li353 1.990 . S
N377 C376 1.314 . S
N377 C380 1.279 . S
C378 C376 1.353 . S
C378 C381 1.348 . S
C378 H426 0.929 . S
C379 C380 1.358 . S
C379 C381 1.356 . S
C379 H427 0.930 . S
C380 N377 1.279 . S
C380 C379 1.358 . S
C380 H383 0.930 . S
C381 C378 1.348 . S
C381 C379 1.356 . S
H382 C376 0.930 . S
H383 C380 0.930 . S
C384 C386 1.348 . S
C384 C387 1.356 . S
C384 O414 1.325 . S
N385 C388 1.314 . S
N385 C389 1.279 . S
C386 C384 1.348 . S
C386 C388 1.353 . S
C386 H428 0.929 . S
C387 C384 1.356 . S
C387 C389 1.358 . S
C387 H429 0.930 . S
C388 N385 1.314 . S
C388 C386 1.353 . S
C388 H430 0.930 . S
C389 N385 1.279 . S
C389 C387 1.358 . S
C389 H431 0.930 . S
C390 C391 1.348 . S
C390 C392 1.356 . S
C390 O415 1.325 . S
C391 C390 1.348 . S
C391 C393 1.353 . S
C391 H432 0.929 . S
C392 C390 1.356 . S
C392 C394 1.358 . S
C392 H433 0.930 . S
C393 C391 1.353 . S
C393 N395 1.314 . S
C393 H434 0.930 . S
C394 C392 1.358 . S
C394 N395 1.279 . S
C394 H435 0.930 . S
N395 C393 1.314 . S
N395 C394 1.279 . S
C396 C398 1.353 . S
C396 N399 1.314 . S
C396 H402 0.930 . S
C397 N399 1.279 . S
C397 C400 1.358 . S
C397 H403 0.930 . S
C398 C396 1.353 . S
C398 C401 1.348 . S
C398 H436 0.929 . S
N399 Li354 1.990 . S
N399 C396 1.314 . S
N399 C397 1.279 . S
C400 C397 1.358 . S
C400 C401 1.356 . S
C400 H437 0.930 . S
C401 C398 1.348 . S
C401 C400 1.356 . S
H402 C396 0.930 . S
H403 C397 0.930 . S
C404 N405 1.314 . S
C404 C406 1.353 . S
C404 H410 0.930 . S
N405 Li355 1.990 . S
N405 C404 1.314 . S
N405 C408 1.279 . S
C406 C404 1.353 . S
C406 C409 1.348 . S
C406 H438 0.929 . S
C407 C408 1.358 . S
C407 C409 1.356 . S
C407 H439 0.930 . S
C408 N405 1.279 . S
C408 C407 1.358 . S
C408 H411 0.930 . S
C409 C406 1.348 . S
C409 C407 1.356 . S
H410 C404 0.930 . S
H411 C408 0.930 . S
O412 Li352 1.956 . S
O412 Li353 1.970 . S
O412 Li354 1.961 . S
O412 C356 1.325 . S
O413 Li352 1.970 . S
O413 Li353 1.956 . S
O413 Li355 1.961 . S
O413 C362 1.325 . S
O414 Li352 1.961 . S
O414 Li354 1.956 . S
O414 Li355 1.970 . S
O414 C384 1.325 . S
O415 Li353 1.961 . S
O415 Li354 1.970 . S
O415 Li355 1.956 . S
O415 C390 1.325 . S
H416 C358 0.929 . S
H417 C359 0.930 . S
H418 C360 0.930 . S
H419 C361 0.930 . S
H420 C363 0.930 . S
H421 C365 0.929 . S
H422 C366 0.930 . S
H423 C367 0.930 . S
H424 C370 0.930 . S
H425 C373 0.929 . S
H426 C378 0.929 . S
H427 C379 0.930 . S
H428 C386 0.929 . S
H429 C387 0.930 . S
H430 C388 0.930 . S
H431 C389 0.930 . S
H432 C391 0.929 . S
H433 C392 0.930 . S
H434 C393 0.930 . S
H435 C394 0.930 . S
H436 C398 0.929 . S
H437 C400 0.930 . S
H438 C406 0.929 . S
H439 C407 0.930 . S
Li440 N457 1.990 . S
Li440 O500 1.956 . S
Li440 O501 1.970 . S
Li440 O502 1.961 . S
Li441 N465 1.990 . S
Li441 O500 1.970 . S
Li441 O501 1.956 . S
Li441 O503 1.961 . S
Li442 N487 1.990 . S
Li442 O500 1.961 . S
Li442 O502 1.956 . S
Li442 O503 1.970 . S
Li443 N493 1.990 . S
Li443 O501 1.961 . S
Li443 O502 1.970 . S
Li443 O503 1.956 . S
C444 C446 1.348 . S
C444 C447 1.356 . S
C444 O500 1.325 . S
N445 C448 1.314 . S
N445 C449 1.279 . S
C446 C444 1.348 . S
C446 C448 1.353 . S
C446 H504 0.929 . S
C447 C444 1.356 . S
C447 C449 1.358 . S
C447 H505 0.930 . S
C448 N445 1.314 . S
C448 C446 1.353 . S
C448 H506 0.930 . S
C449 N445 1.279 . S
C449 C447 1.358 . S
C449 H507 0.930 . S
C450 C453 1.348 . S
C450 C454 1.356 . S
C450 O501 1.325 . S
C451 N452 1.279 . S
C451 C454 1.358 . S
C451 H508 0.930 . S
N452 C451 1.279 . S
N452 C455 1.314 . S
C453 C450 1.348 . S
C453 C455 1.353 . S
C453 H509 0.929 . S
C454 C450 1.356 . S
C454 C451 1.358 . S
C454 H510 0.930 . S
C455 N452 1.314 . S
C455 C453 1.353 . S
C455 H511 0.930 . S
C456 N457 1.314 . S
C456 C461 1.353 . S
C456 H462 0.930 . S
N457 Li440 1.990 . S
N457 C456 1.314 . S
N457 C459 1.279 . S
C458 C459 1.358 . S
C458 C460 1.356 . S
C458 H512 0.930 . S
C459 N457 1.279 . S
C459 C458 1.358 . S
C459 H463 0.930 . S
C460 C458 1.356 . S
C460 C461 1.348 . S
C461 C456 1.353 . S
C461 C460 1.348 . S
C461 H513 0.929 . S
H462 C456 0.930 . S
H463 C459 0.930 . S
C464 N465 1.314 . S
C464 C466 1.353 . S
C464 H470 0.930 . S
N465 Li441 1.990 . S
N465 C464 1.314 . S
N465 C468 1.279 . S
C466 C464 1.353 . S
C466 C469 1.345 1_556 S
C466 H514 0.929 . S
C467 C468 1.358 1_554 S
C467 C469 1.356 . S
C467 H515 0.930 . S
C468 N465 1.279 . S
C468 C467 1.358 1_556 S
C468 H471 0.930 . S
C469 C466 1.345 1_554 S
C469 C467 1.356 . S
H470 C464 0.930 . S
H471 C468 0.930 . S
C472 C474 1.348 . S
C472 C475 1.356 . S
C472 O502 1.325 . S
N473 C476 1.314 . S
N473 C477 1.279 . S
C474 C472 1.348 . S
C474 C476 1.353 . S
C474 H516 0.929 . S
C475 C472 1.356 . S
C475 C477 1.358 . S
C475 H517 0.930 . S
C476 N473 1.314 . S
C476 C474 1.353 . S
C476 H518 0.930 . S
C477 N473 1.279 . S
C477 C475 1.358 . S
C477 H519 0.930 . S
C478 C479 1.348 . S
C478 C480 1.356 . S
C478 O503 1.325 . S
C479 C478 1.348 . S
C479 C481 1.353 . S
C479 H520 0.929 . S
C480 C478 1.356 . S
C480 C482 1.358 . S
C480 H521 0.930 . S
C481 C479 1.353 . S
C481 N483 1.314 . S
C481 H522 0.930 . S
C482 C480 1.358 . S
C482 N483 1.279 . S
C482 H523 0.930 . S
N483 C481 1.314 . S
N483 C482 1.279 . S
C484 C486 1.353 . S
C484 N487 1.314 . S
C484 H490 0.930 . S
C485 N487 1.279 . S
C485 C488 1.358 . S
C485 H491 0.930 . S
C486 C484 1.353 . S
C486 C489 1.348 . S
C486 H524 0.929 . S
N487 Li442 1.990 . S
N487 C484 1.314 . S
N487 C485 1.279 . S
C488 C485 1.358 . S
C488 C489 1.356 . S
C488 H525 0.930 . S
C489 C486 1.348 . S
C489 C488 1.356 . S
H490 C484 0.930 . S
H491 C485 0.930 . S
C492 N493 1.314 . S
C492 C494 1.353 . S
C492 H498 0.930 . S
N493 Li443 1.990 . S
N493 C492 1.314 . S
N493 C496 1.279 . S
C494 C492 1.353 . S
C494 C497 1.348 . S
C494 H526 0.929 . S
C495 C496 1.358 . S
C495 C497 1.356 . S
C495 H527 0.930 . S
C496 N493 1.279 . S
C496 C495 1.358 . S
C496 H499 0.930 . S
C497 C494 1.348 . S
C497 C495 1.356 . S
H498 C492 0.930 . S
H499 C496 0.930 . S
O500 Li440 1.956 . S
O500 Li441 1.970 . S
O500 Li442 1.961 . S
O500 C444 1.325 . S
O501 Li440 1.970 . S
O501 Li441 1.956 . S
O501 Li443 1.961 . S
O501 C450 1.325 . S
O502 Li440 1.961 . S
O502 Li442 1.956 . S
O502 Li443 1.970 . S
O502 C472 1.325 . S
O503 Li441 1.961 . S
O503 Li442 1.970 . S
O503 Li443 1.956 . S
O503 C478 1.325 . S
H504 C446 0.929 . S
H505 C447 0.930 . S
H506 C448 0.930 . S
H507 C449 0.930 . S
H508 C451 0.930 . S
H509 C453 0.929 . S
H510 C454 0.930 . S
H511 C455 0.930 . S
H512 C458 0.930 . S
H513 C461 0.929 . S
H514 C466 0.929 . S
H515 C467 0.930 . S
H516 C474 0.929 . S
H517 C475 0.930 . S
H518 C476 0.930 . S
H519 C477 0.930 . S
H520 C479 0.929 . S
H521 C480 0.930 . S
H522 C481 0.930 . S
H523 C482 0.930 . S
H524 C486 0.929 . S
H525 C488 0.930 . S
H526 C494 0.929 . S
H527 C495 0.930 . S
Li528 N545 1.990 . S
Li528 O588 1.956 . S
Li528 O589 1.970 . S
Li528 O590 1.961 . S
Li529 N553 1.990 . S
Li529 O588 1.970 . S
Li529 O589 1.956 . S
Li529 O591 1.961 . S
Li530 N575 1.990 . S
Li530 O588 1.961 . S
Li530 O590 1.956 . S
Li530 O591 1.970 . S
Li531 N581 1.990 . S
Li531 O589 1.961 . S
Li531 O590 1.970 . S
Li531 O591 1.956 . S
C532 C534 1.348 . S
C532 C535 1.356 . S
C532 O588 1.325 . S
N533 C536 1.314 . S
N533 C537 1.279 . S
C534 C532 1.348 . S
C534 C536 1.353 . S
C534 H592 0.929 . S
C535 C532 1.356 . S
C535 C537 1.358 . S
C535 H593 0.930 . S
C536 N533 1.314 . S
C536 C534 1.353 . S
C536 H594 0.930 . S
C537 N533 1.279 . S
C537 C535 1.358 . S
C537 H595 0.930 . S
C538 C541 1.348 . S
C538 C542 1.356 . S
C538 O589 1.325 . S
C539 N540 1.261 1_556 S
C539 C542 1.358 . S
C539 H596 0.930 . S
N540 C539 1.261 1_554 S
N540 C543 1.303 1_554 S
C541 C538 1.348 . S
C541 C543 1.353 . S
C541 H597 0.929 . S
C542 C538 1.356 . S
C542 C539 1.358 . S
C542 H598 0.930 . S
C543 N540 1.303 1_556 S
C543 C541 1.353 . S
C543 H599 0.930 1_556 S
C544 N545 1.314 . S
C544 C549 1.353 . S
C544 H550 0.930 . S
N545 Li528 1.990 . S
N545 C544 1.314 . S
N545 C547 1.279 . S
C546 C547 1.358 . S
C546 C548 1.356 . S
C546 H600 0.930 . S
C547 N545 1.279 . S
C547 C546 1.358 . S
C547 H551 0.930 . S
C548 C546 1.356 . S
C548 C549 1.348 . S
C549 C544 1.353 . S
C549 C548 1.348 . S
C549 H601 0.929 . S
H550 C544 0.930 . S
H551 C547 0.930 . S
C552 N553 1.314 . S
C552 C554 1.353 . S
C552 H558 0.930 . S
N553 Li529 1.990 . S
N553 C552 1.314 . S
N553 C556 1.279 . S
C554 C552 1.353 . S
C554 C557 1.317 1_556 S
C554 H602 0.929 . S
C555 C556 1.358 1_554 S
C555 C557 1.361 . S
C555 H603 0.930 . S
C556 N553 1.279 . S
C556 C555 1.358 1_556 S
C556 H559 0.930 . S
C557 C554 1.317 1_554 S
C557 C555 1.361 . S
H558 C552 0.930 . S
H559 C556 0.930 . S
C560 C562 1.348 . S
C560 C563 1.356 . S
C560 O590 1.325 . S
N561 C564 1.314 . S
N561 C565 1.279 . S
C562 C560 1.348 . S
C562 C564 1.353 . S
C562 H604 0.929 . S
C563 C560 1.356 . S
C563 C565 1.358 . S
C563 H605 0.930 . S
C564 N561 1.314 . S
C564 C562 1.353 . S
C564 H606 0.930 . S
C565 N561 1.279 . S
C565 C563 1.358 . S
C565 H607 0.930 . S
C566 C567 1.348 . S
C566 C568 1.356 . S
C566 O591 1.325 . S
C567 C566 1.348 . S
C567 C569 1.353 . S
C567 H608 0.929 . S
C568 C566 1.356 . S
C568 C570 1.358 . S
C568 H609 0.930 . S
C569 C567 1.353 . S
C569 N571 1.314 . S
C569 H610 0.930 . S
C570 C568 1.358 . S
C570 N571 1.279 . S
C570 H611 0.930 . S
N571 C569 1.314 . S
N571 C570 1.279 . S
C572 C574 1.353 . S
C572 N575 1.314 . S
C572 H578 0.930 . S
C573 N575 1.279 . S
C573 C576 1.358 . S
C573 H579 0.930 . S
C574 C572 1.353 . S
C574 C577 1.348 . S
C574 H612 0.929 . S
N575 Li530 1.990 . S
N575 C572 1.314 . S
N575 C573 1.279 . S
C576 C573 1.358 . S
C576 C577 1.356 . S
C576 H613 0.930 . S
C577 C574 1.348 . S
C577 C576 1.356 . S
H578 C572 0.930 . S
H579 C573 0.930 . S
C580 N581 1.314 . S
C580 C582 1.353 . S
C580 H586 0.930 . S
N581 Li531 1.990 . S
N581 C580 1.314 . S
N581 C584 1.279 . S
C582 C580 1.353 . S
C582 C585 1.348 . S
C582 H614 0.929 . S
C583 C584 1.358 . S
C583 C585 1.356 . S
C583 H615 0.930 . S
C584 N581 1.279 . S
C584 C583 1.358 . S
C584 H587 0.930 . S
C585 C582 1.348 . S
C585 C583 1.356 . S
H586 C580 0.930 . S
H587 C584 0.930 . S
O588 Li528 1.956 . S
O588 Li529 1.970 . S
O588 Li530 1.961 . S
O588 C532 1.325 . S
O589 Li528 1.970 . S
O589 Li529 1.956 . S
O589 Li531 1.961 . S
O589 C538 1.325 . S
O590 Li528 1.961 . S
O590 Li530 1.956 . S
O590 Li531 1.970 . S
O590 C560 1.325 . S
O591 Li529 1.961 . S
O591 Li530 1.970 . S
O591 Li531 1.956 . S
O591 C566 1.325 . S
H592 C534 0.929 . S
H593 C535 0.930 . S
H594 C536 0.930 . S
H595 C537 0.930 . S
H596 C539 0.930 . S
H597 C541 0.929 . S
H598 C542 0.930 . S
H599 C543 0.930 1_554 S
H600 C546 0.930 . S
H601 C549 0.929 . S
H602 C554 0.929 . S
H603 C555 0.930 . S
H604 C562 0.929 . S
H605 C563 0.930 . S
H606 C564 0.930 . S
H607 C565 0.930 . S
H608 C567 0.929 . S
H609 C568 0.930 . S
H610 C569 0.930 . S
H611 C570 0.930 . S
H612 C574 0.929 . S
H613 C576 0.930 . S
H614 C582 0.929 . S
H615 C583 0.930 . S
Li616 N633 1.990 . S
Li616 O676 1.956 . S
Li616 O677 1.970 . S
Li616 O678 1.961 . S
Li617 N641 1.990 . S
Li617 O676 1.970 . S
Li617 O677 1.956 . S
Li617 O679 1.961 . S
Li618 N663 1.990 . S
Li618 O676 1.961 . S
Li618 O678 1.956 . S
Li618 O679 1.970 . S
Li619 N669 1.990 1_554 S
Li619 O677 1.961 . S
Li619 O678 1.970 . S
Li619 O679 1.956 . S
C620 C622 1.348 . S
C620 C623 1.356 . S
C620 O676 1.325 . S
N621 C624 1.314 . S
N621 C625 1.279 . S
C622 C620 1.348 . S
C622 C624 1.353 . S
C622 H680 0.929 . S
C623 C620 1.356 . S
C623 C625 1.358 . S
C623 H681 0.930 . S
C624 N621 1.314 . S
C624 C622 1.353 . S
C624 H682 0.930 . S
C625 N621 1.279 . S
C625 C623 1.358 . S
C625 H683 0.930 . S
C626 C629 1.348 . S
C626 C630 1.356 . S
C626 O677 1.325 . S
C627 N628 1.279 . S
C627 C630 1.358 . S
C627 H684 0.930 . S
N628 C627 1.279 . S
N628 C631 1.314 . S
C629 C626 1.348 . S
C629 C631 1.353 . S
C629 H685 0.929 . S
C630 C626 1.356 . S
C630 C627 1.358 . S
C630 H686 0.930 . S
C631 N628 1.314 . S
C631 C629 1.353 . S
C631 H687 0.930 . S
C632 N633 1.314 . S
C632 C637 1.353 . S
C632 H638 0.930 . S
N633 Li616 1.990 . S
N633 C632 1.314 . S
N633 C635 1.279 . S
C634 C635 1.358 . S
C634 C636 1.356 . S
C634 H688 0.930 . S
C635 N633 1.279 . S
C635 C634 1.358 . S
C635 H639 0.930 . S
C636 C634 1.356 . S
C636 C637 1.348 . S
C637 C632 1.353 . S
C637 C636 1.348 . S
C637 H689 0.929 . S
H638 C632 0.930 . S
H639 C635 0.930 . S
C640 N641 1.314 . S
C640 C642 1.353 . S
C640 H646 0.930 . S
N641 Li617 1.990 . S
N641 C640 1.314 . S
N641 C644 1.279 . S
C642 C640 1.353 . S
C642 C645 1.348 . S
C642 H690 0.929 . S
C643 C644 1.358 . S
C643 C645 1.356 . S
C643 H691 0.930 . S
C644 N641 1.279 . S
C644 C643 1.358 . S
C644 H647 0.930 . S
C645 C642 1.348 . S
C645 C643 1.356 . S
H646 C640 0.930 . S
H647 C644 0.930 . S
C648 C650 1.348 1_554 S
C648 C651 1.356 . S
C648 O678 1.325 . S
N649 C652 1.314 1_554 S
N649 C653 1.279 . S
C650 C648 1.348 1_556 S
C650 C652 1.353 . S
C650 H692 0.929 . S
C651 C648 1.356 . S
C651 C653 1.358 . S
C651 H693 0.930 . S
C652 N649 1.314 1_556 S
C652 C650 1.353 . S
C652 H694 0.930 . S
C653 N649 1.279 . S
C653 C651 1.358 . S
C653 H695 0.930 . S
C654 C655 1.348 . S
C654 C656 1.356 . S
C654 O679 1.325 1_556 S
C655 C654 1.348 . S
C655 C657 1.353 . S
C655 H696 0.929 . S
C656 C654 1.356 . S
C656 C658 1.358 . S
C656 H697 0.930 . S
C657 C655 1.353 . S
C657 N659 1.314 . S
C657 H698 0.930 . S
C658 C656 1.358 . S
C658 N659 1.279 . S
C658 H699 0.930 . S
N659 C657 1.314 . S
N659 C658 1.279 . S
C660 C662 1.353 . S
C660 N663 1.314 . S
C660 H666 0.930 . S
C661 N663 1.279 . S
C661 C664 1.358 . S
C661 H667 0.930 . S
C662 C660 1.353 . S
C662 C665 1.348 . S
C662 H700 0.929 . S
N663 Li618 1.990 . S
N663 C660 1.314 . S
N663 C661 1.279 . S
C664 C661 1.358 . S
C664 C665 1.356 . S
C664 H701 0.930 1_554 S
C665 C662 1.348 . S
C665 C664 1.356 . S
H666 C660 0.930 . S
H667 C661 0.930 . S
C668 N669 1.314 . S
C668 C670 1.353 . S
C668 H674 0.930 . S
N669 Li619 1.990 1_556 S
N669 C668 1.314 . S
N669 C672 1.279 . S
C670 C668 1.353 . S
C670 C673 1.348 . S
C670 H702 0.929 . S
C671 C672 1.358 . S
C671 C673 1.356 . S
C671 H703 0.930 . S
C672 N669 1.279 . S
C672 C671 1.358 . S
C672 H675 0.930 . S
C673 C670 1.348 . S
C673 C671 1.356 . S
H674 C668 0.930 . S
H675 C672 0.930 . S
O676 Li616 1.956 . S
O676 Li617 1.970 . S
O676 Li618 1.961 . S
O676 C620 1.325 . S
O677 Li616 1.970 . S
O677 Li617 1.956 . S
O677 Li619 1.961 . S
O677 C626 1.325 . S
O678 Li616 1.961 . S
O678 Li618 1.956 . S
O678 Li619 1.970 . S
O678 C648 1.325 . S
O679 Li617 1.961 . S
O679 Li618 1.970 . S
O679 Li619 1.956 . S
O679 C654 1.325 1_554 S
H680 C622 0.929 . S
H681 C623 0.930 . S
H682 C624 0.930 . S
H683 C625 0.930 . S
H684 C627 0.930 . S
H685 C629 0.929 . S
H686 C630 0.930 . S
H687 C631 0.930 . S
H688 C634 0.930 . S
H689 C637 0.929 . S
H690 C642 0.929 . S
H691 C643 0.930 . S
H692 C650 0.929 . S
H693 C651 0.930 . S
H694 C652 0.930 . S
H695 C653 0.930 . S
H696 C655 0.929 . S
H697 C656 0.930 . S
H698 C657 0.930 . S
H699 C658 0.930 . S
H700 C662 0.929 . S
H701 C664 0.930 1_556 S
H702 C670 0.929 . S
H703 C671 0.930 . S
Li704 N721 1.990 . S
Li704 O764 1.956 . S
Li704 O765 1.970 . S
Li704 O766 1.961 . S
Li705 N729 1.990 . S
Li705 O764 1.970 . S
Li705 O765 1.956 . S
Li705 O767 1.961 . S
Li706 N751 1.990 . S
Li706 O764 1.961 . S
Li706 O766 1.956 . S
Li706 O767 1.970 . S
Li707 N757 1.990 . S
Li707 O765 1.961 . S
Li707 O766 1.970 . S
Li707 O767 1.956 . S
C708 C710 1.348 . S
C708 C711 1.356 . S
C708 O764 1.325 . S
N709 C712 1.314 . S
N709 C713 1.279 . S
C710 C708 1.348 . S
C710 C712 1.353 . S
C710 H768 0.929 . S
C711 C708 1.356 . S
C711 C713 1.358 . S
C711 H769 0.930 . S
C712 N709 1.314 . S
C712 C710 1.353 . S
C712 H770 0.930 . S
C713 N709 1.279 . S
C713 C711 1.358 . S
C713 H771 0.930 . S
C714 C717 1.348 . S
C714 C718 1.356 . S
C714 O765 1.325 . S
C715 N716 1.279 . S
C715 C718 1.358 . S
C715 H772 0.930 . S
N716 C715 1.279 . S
N716 C719 1.314 . S
C717 C714 1.348 . S
C717 C719 1.353 . S
C717 H773 0.929 . S
C718 C714 1.356 . S
C718 C715 1.358 . S
C718 H774 0.930 . S
C719 N716 1.314 . S
C719 C717 1.353 . S
C719 H775 0.930 . S
C720 N721 1.314 . S
C720 C725 1.353 . S
C720 H726 0.930 . S
N721 Li704 1.990 . S
N721 C720 1.314 . S
N721 C723 1.279 . S
C722 C723 1.358 . S
C722 C724 1.356 . S
C722 H776 0.930 . S
C723 N721 1.279 . S
C723 C722 1.358 . S
C723 H727 0.930 . S
C724 C722 1.356 . S
C724 C725 1.348 . S
C725 C720 1.353 . S
C725 C724 1.348 . S
C725 H777 0.929 . S
H726 C720 0.930 . S
H727 C723 0.930 . S
C728 N729 1.314 . S
C728 C730 1.353 . S
C728 H734 0.930 . S
N729 Li705 1.990 . S
N729 C728 1.314 . S
N729 C732 1.279 . S
C730 C728 1.353 . S
C730 C733 1.348 . S
C730 H778 0.929 . S
C731 C732 1.358 . S
C731 C733 1.356 . S
C731 H779 0.930 . S
C732 N729 1.279 . S
C732 C731 1.358 . S
C732 H735 0.930 . S
C733 C730 1.348 . S
C733 C731 1.356 . S
H734 C728 0.930 . S
H735 C732 0.930 . S
C736 C738 1.348 . S
C736 C739 1.356 . S
C736 O766 1.325 . S
N737 C740 1.314 . S
N737 C741 1.279 . S
C738 C736 1.348 . S
C738 C740 1.353 . S
C738 H780 0.929 . S
C739 C736 1.356 . S
C739 C741 1.358 . S
C739 H781 0.930 . S
C740 N737 1.314 . S
C740 C738 1.353 . S
C740 H782 0.930 . S
C741 N737 1.279 . S
C741 C739 1.358 . S
C741 H783 0.930 . S
C742 C743 1.348 . S
C742 C744 1.356 . S
C742 O767 1.325 . S
C743 C742 1.348 . S
C743 C745 1.353 . S
C743 H784 0.929 . S
C744 C742 1.356 . S
C744 C746 1.358 . S
C744 H785 0.930 . S
C745 C743 1.353 . S
C745 N747 1.314 . S
C745 H786 0.930 . S
C746 C744 1.358 . S
C746 N747 1.279 . S
C746 H787 0.930 . S
N747 C745 1.314 . S
N747 C746 1.279 . S
C748 C750 1.353 . S
C748 N751 1.314 . S
C748 H754 0.930 . S
C749 N751 1.279 . S
C749 C752 1.358 . S
C749 H755 0.930 . S
C750 C748 1.353 . S
C750 C753 1.348 . S
C750 H788 0.929 . S
N751 Li706 1.990 . S
N751 C748 1.314 . S
N751 C749 1.279 . S
C752 C749 1.358 . S
C752 C753 1.356 . S
C752 H789 0.930 . S
C753 C750 1.348 . S
C753 C752 1.356 . S
H754 C748 0.930 . S
H755 C749 0.930 . S
C756 N757 1.314 . S
C756 C758 1.353 . S
C756 H762 0.930 . S
N757 Li707 1.990 . S
N757 C756 1.314 . S
N757 C760 1.279 . S
C758 C756 1.353 . S
C758 C761 1.348 . S
C758 H790 0.929 . S
C759 C760 1.358 . S
C759 C761 1.356 . S
C759 H791 0.930 . S
C760 N757 1.279 . S
C760 C759 1.358 . S
C760 H763 0.930 . S
C761 C758 1.348 . S
C761 C759 1.356 . S
H762 C756 0.930 . S
H763 C760 0.930 . S
O764 Li704 1.956 . S
O764 Li705 1.970 . S
O764 Li706 1.961 . S
O764 C708 1.325 . S
O765 Li704 1.970 . S
O765 Li705 1.956 . S
O765 Li707 1.961 . S
O765 C714 1.325 . S
O766 Li704 1.961 . S
O766 Li706 1.956 . S
O766 Li707 1.970 . S
O766 C736 1.325 . S
O767 Li705 1.961 . S
O767 Li706 1.970 . S
O767 Li707 1.956 . S
O767 C742 1.325 . S
H768 C710 0.929 . S
H769 C711 0.930 . S
H770 C712 0.930 . S
H771 C713 0.930 . S
H772 C715 0.930 . S
H773 C717 0.929 . S
H774 C718 0.930 . S
H775 C719 0.930 . S
H776 C722 0.930 . S
H777 C725 0.929 . S
H778 C730 0.929 . S
H779 C731 0.930 . S
H780 C738 0.929 . S
H781 C739 0.930 . S
H782 C740 0.930 . S
H783 C741 0.930 . S
H784 C743 0.929 . S
H785 C744 0.930 . S
H786 C745 0.930 . S
H787 C746 0.930 . S
H788 C750 0.929 . S
H789 C752 0.930 . S
H790 C758 0.929 . S
H791 C759 0.930 . S
Li792 N809 1.990 . S
Li792 O852 1.956 . S
Li792 O853 1.970 . S
Li792 O854 1.961 . S
Li793 N817 1.990 . S
Li793 O852 1.970 . S
Li793 O853 1.956 . S
Li793 O855 1.961 . S
Li794 N839 1.990 . S
Li794 O852 1.961 . S
Li794 O854 1.956 . S
Li794 O855 1.970 . S
Li795 N845 1.990 . S
Li795 O853 1.961 . S
Li795 O854 1.970 . S
Li795 O855 1.956 . S
C796 C798 1.348 . S
C796 C799 1.356 . S
C796 O852 1.325 . S
N797 C800 1.314 . S
N797 C801 1.279 . S
C798 C796 1.348 . S
C798 C800 1.353 . S
C798 H856 0.929 . S
C799 C796 1.356 . S
C799 C801 1.358 . S
C799 H857 0.930 . S
C800 N797 1.314 . S
C800 C798 1.353 . S
C800 H858 0.930 . S
C801 N797 1.279 . S
C801 C799 1.358 . S
C801 H859 0.930 . S
C802 C805 1.348 . S
C802 C806 1.356 . S
C802 O853 1.325 . S
C803 N804 1.279 . S
C803 C806 1.358 . S
C803 H860 0.930 . S
N804 C803 1.279 . S
N804 C807 1.314 . S
C805 C802 1.348 . S
C805 C807 1.353 . S
C805 H861 0.929 . S
C806 C802 1.356 . S
C806 C803 1.358 . S
C806 H862 0.930 . S
C807 N804 1.314 . S
C807 C805 1.353 . S
C807 H863 0.930 . S
C808 N809 1.314 . S
C808 C813 1.353 . S
C808 H814 0.930 . S
N809 Li792 1.990 . S
N809 C808 1.314 . S
N809 C811 1.279 . S
C810 C811 1.358 . S
C810 C812 1.356 . S
C810 H864 0.930 . S
C811 N809 1.279 . S
C811 C810 1.358 . S
C811 H815 0.930 . S
C812 C810 1.356 . S
C812 C813 1.348 . S
C813 C808 1.353 . S
C813 C812 1.348 . S
C813 H865 0.929 . S
H814 C808 0.930 . S
H815 C811 0.930 . S
C816 N817 1.314 . S
C816 C818 1.353 . S
C816 H822 0.930 . S
N817 Li793 1.990 . S
N817 C816 1.314 . S
N817 C820 1.279 . S
C818 C816 1.353 . S
C818 C821 1.348 . S
C818 H866 0.929 . S
C819 C820 1.358 . S
C819 C821 1.356 . S
C819 H867 0.930 . S
C820 N817 1.279 . S
C820 C819 1.358 . S
C820 H823 0.930 . S
C821 C818 1.348 . S
C821 C819 1.356 . S
H822 C816 0.930 . S
H823 C820 0.930 . S
C824 C826 1.348 . S
C824 C827 1.356 . S
C824 O854 1.325 . S
N825 C828 1.314 . S
N825 C829 1.279 . S
C826 C824 1.348 . S
C826 C828 1.353 . S
C826 H868 0.929 . S
C827 C824 1.356 . S
C827 C829 1.358 . S
C827 H869 0.930 . S
C828 N825 1.314 . S
C828 C826 1.353 . S
C828 H870 0.930 . S
C829 N825 1.279 . S
C829 C827 1.358 . S
C829 H871 0.930 . S
C830 C831 1.348 . S
C830 C832 1.356 . S
C830 O855 1.325 . S
C831 C830 1.348 . S
C831 C833 1.353 . S
C831 H872 0.929 . S
C832 C830 1.356 . S
C832 C834 1.358 . S
C832 H873 0.930 . S
C833 C831 1.353 . S
C833 N835 1.314 . S
C833 H874 0.930 . S
C834 C832 1.358 . S
C834 N835 1.279 . S
C834 H875 0.930 . S
N835 C833 1.314 . S
N835 C834 1.279 . S
C836 C838 1.353 . S
C836 N839 1.314 . S
C836 H842 0.930 . S
C837 N839 1.279 . S
C837 C840 1.358 . S
C837 H843 0.930 . S
C838 C836 1.353 . S
C838 C841 1.348 . S
C838 H876 0.929 . S
N839 Li794 1.990 . S
N839 C836 1.314 . S
N839 C837 1.279 . S
C840 C837 1.358 . S
C840 C841 1.356 . S
C840 H877 0.930 . S
C841 C838 1.348 . S
C841 C840 1.356 . S
H842 C836 0.930 . S
H843 C837 0.930 . S
C844 N845 1.314 . S
C844 C846 1.353 . S
C844 H850 0.930 . S
N845 Li795 1.990 . S
N845 C844 1.314 . S
N845 C848 1.279 . S
C846 C844 1.353 . S
C846 C849 1.348 . S
C846 H878 0.929 . S
C847 C848 1.358 . S
C847 C849 1.356 . S
C847 H879 0.930 . S
C848 N845 1.279 . S
C848 C847 1.358 . S
C848 H851 0.930 . S
C849 C846 1.348 . S
C849 C847 1.356 . S
H850 C844 0.930 . S
H851 C848 0.930 . S
O852 Li792 1.956 . S
O852 Li793 1.970 . S
O852 Li794 1.961 . S
O852 C796 1.325 . S
O853 Li792 1.970 . S
O853 Li793 1.956 . S
O853 Li795 1.961 . S
O853 C802 1.325 . S
O854 Li792 1.961 . S
O854 Li794 1.956 . S
O854 Li795 1.970 . S
O854 C824 1.325 . S
O855 Li793 1.961 . S
O855 Li794 1.970 . S
O855 Li795 1.956 . S
O855 C830 1.325 . S
H856 C798 0.929 . S
H857 C799 0.930 . S
H858 C800 0.930 . S
H859 C801 0.930 . S
H860 C803 0.930 . S
H861 C805 0.929 . S
H862 C806 0.930 . S
H863 C807 0.930 . S
H864 C810 0.930 . S
H865 C813 0.929 . S
H866 C818 0.929 . S
H867 C819 0.930 . S
H868 C826 0.929 . S
H869 C827 0.930 . S
H870 C828 0.930 . S
H871 C829 0.930 . S
H872 C831 0.929 . S
H873 C832 0.930 . S
H874 C833 0.930 . S
H875 C834 0.930 . S
H876 C838 0.929 . S
H877 C840 0.930 . S
H878 C846 0.929 . S
H879 C847 0.930 . S
Li880 N897 1.990 . S
Li880 O940 1.956 . S
Li880 O941 1.970 . S
Li880 O942 1.961 . S
Li881 N905 1.990 . S
Li881 O940 1.970 . S
Li881 O941 1.956 . S
Li881 O943 1.961 . S
Li882 N927 1.990 . S
Li882 O940 1.961 . S
Li882 O942 1.956 . S
Li882 O943 1.970 . S
Li883 N933 1.990 . S
Li883 O941 1.961 . S
Li883 O942 1.970 . S
Li883 O943 1.956 . S
C884 C886 1.348 . S
C884 C887 1.356 . S
C884 O940 1.325 . S
N885 C888 1.314 . S
N885 C889 1.279 . S
C886 C884 1.348 . S
C886 C888 1.353 . S
C886 H944 0.929 . S
C887 C884 1.356 . S
C887 C889 1.358 . S
C887 H945 0.930 . S
C888 N885 1.314 . S
C888 C886 1.353 . S
C888 H946 0.930 . S
C889 N885 1.279 . S
C889 C887 1.358 . S
C889 H947 0.930 . S
C890 C893 1.348 . S
C890 C894 1.356 . S
C890 O941 1.325 . S
C891 N892 1.279 . S
C891 C894 1.358 . S
C891 H948 0.930 . S
N892 C891 1.279 . S
N892 C895 1.314 . S
C893 C890 1.348 . S
C893 C895 1.353 . S
C893 H949 0.929 . S
C894 C890 1.356 . S
C894 C891 1.358 . S
C894 H950 0.930 . S
C895 N892 1.314 . S
C895 C893 1.353 . S
C895 H951 0.930 . S
C896 N897 1.314 . S
C896 C901 1.353 . S
C896 H902 0.930 . S
N897 Li880 1.990 . S
N897 C896 1.314 . S
N897 C899 1.279 . S
C898 C899 1.358 . S
C898 C900 1.356 . S
C898 H952 0.930 . S
C899 N897 1.279 . S
C899 C898 1.358 . S
C899 H903 0.930 . S
C900 C898 1.356 . S
C900 C901 1.348 . S
C901 C896 1.353 . S
C901 C900 1.348 . S
C901 H953 0.929 . S
H902 C896 0.930 . S
H903 C899 0.930 . S
C904 N905 1.314 . S
C904 C906 1.353 . S
C904 H910 0.930 . S
N905 Li881 1.990 . S
N905 C904 1.314 . S
N905 C908 1.279 . S
C906 C904 1.353 . S
C906 C909 1.348 . S
C906 H954 0.929 . S
C907 C908 1.358 . S
C907 C909 1.356 . S
C907 H955 0.930 . S
C908 N905 1.279 . S
C908 C907 1.358 . S
C908 H911 0.930 . S
C909 C906 1.348 . S
C909 C907 1.356 . S
H910 C904 0.930 . S
H911 C908 0.930 . S
C912 C914 1.348 . S
C912 C915 1.356 . S
C912 O942 1.325 . S
N913 C916 1.314 . S
N913 C917 1.279 . S
C914 C912 1.348 . S
C914 C916 1.353 . S
C914 H956 0.929 . S
C915 C912 1.356 . S
C915 C917 1.358 . S
C915 H957 0.930 . S
C916 N913 1.314 . S
C916 C914 1.353 . S
C916 H958 0.930 . S
C917 N913 1.279 . S
C917 C915 1.358 . S
C917 H959 0.930 . S
C918 C919 1.348 . S
C918 C920 1.356 . S
C918 O943 1.325 . S
C919 C918 1.348 . S
C919 C921 1.353 . S
C919 H960 0.929 . S
C920 C918 1.356 . S
C920 C922 1.358 . S
C920 H961 0.930 . S
C921 C919 1.353 . S
C921 N923 1.314 . S
C921 H962 0.930 . S
C922 C920 1.358 . S
C922 N923 1.279 . S
C922 H963 0.930 . S
N923 C921 1.314 . S
N923 C922 1.279 . S
C924 C926 1.353 . S
C924 N927 1.314 . S
C924 H930 0.930 . S
C925 N927 1.279 . S
C925 C928 1.358 . S
C925 H931 0.930 . S
C926 C924 1.353 . S
C926 C929 1.348 . S
C926 H964 0.929 . S
N927 Li882 1.990 . S
N927 C924 1.314 . S
N927 C925 1.279 . S
C928 C925 1.358 . S
C928 C929 1.356 . S
C928 H965 0.930 . S
C929 C926 1.348 . S
C929 C928 1.356 . S
H930 C924 0.930 . S
H931 C925 0.930 . S
C932 N933 1.314 . S
C932 C934 1.353 . S
C932 H938 0.930 . S
N933 Li883 1.990 . S
N933 C932 1.314 . S
N933 C936 1.279 . S
C934 C932 1.353 . S
C934 C937 1.348 . S
C934 H966 0.929 . S
C935 C936 1.358 . S
C935 C937 1.356 . S
C935 H967 0.930 . S
C936 N933 1.279 . S
C936 C935 1.358 . S
C936 H939 0.930 . S
C937 C934 1.348 . S
C937 C935 1.356 . S
H938 C932 0.930 . S
H939 C936 0.930 . S
O940 Li880 1.956 . S
O940 Li881 1.970 . S
O940 Li882 1.961 . S
O940 C884 1.325 . S
O941 Li880 1.970 . S
O941 Li881 1.956 . S
O941 Li883 1.961 . S
O941 C890 1.325 . S
O942 Li880 1.961 . S
O942 Li882 1.956 . S
O942 Li883 1.970 . S
O942 C912 1.325 . S
O943 Li881 1.961 . S
O943 Li882 1.970 . S
O943 Li883 1.956 . S
O943 C918 1.325 . S
H944 C886 0.929 . S
H945 C887 0.930 . S
H946 C888 0.930 . S
H947 C889 0.930 . S
H948 C891 0.930 . S
H949 C893 0.929 . S
H950 C894 0.930 . S
H951 C895 0.930 . S
H952 C898 0.930 . S
H953 C901 0.929 . S
H954 C906 0.929 . S
H955 C907 0.930 . S
H956 C914 0.929 . S
H957 C915 0.930 . S
H958 C916 0.930 . S
H959 C917 0.930 . S
H960 C919 0.929 . S
H961 C920 0.930 . S
H962 C921 0.930 . S
H963 C922 0.930 . S
H964 C926 0.929 . S
H965 C928 0.930 . S
H966 C934 0.929 . S
H967 C935 0.930 . S
Li968 N985 1.990 . S
Li968 O1028 1.956 . S
Li968 O1029 1.970 . S
Li968 O1030 1.961 . S
Li969 N993 1.990 . S
Li969 O1028 1.970 . S
Li969 O1029 1.956 . S
Li969 O1031 1.961 . S
Li970 N1015 1.990 . S
Li970 O1028 1.961 . S
Li970 O1030 1.956 . S
Li970 O1031 1.970 . S
Li971 N1021 1.990 . S
Li971 O1029 1.961 . S
Li971 O1030 1.970 . S
Li971 O1031 1.956 . S
C972 C974 1.348 . S
C972 C975 1.356 . S
C972 O1028 1.325 . S
N973 C976 1.314 . S
N973 C977 1.279 . S
C974 C972 1.348 . S
C974 C976 1.353 . S
C974 H1032 0.929 . S
C975 C972 1.356 . S
C975 C977 1.358 . S
C975 H1033 0.930 . S
C976 N973 1.314 . S
C976 C974 1.353 . S
C976 H1034 0.930 . S
C977 N973 1.279 . S
C977 C975 1.358 . S
C977 H1035 0.930 . S
C978 C981 1.348 . S
C978 C982 1.356 . S
C978 O1029 1.325 . S
C979 N980 1.279 . S
C979 C982 1.358 . S
C979 H1036 0.930 . S
N980 C979 1.279 . S
N980 C983 1.314 . S
C981 C978 1.348 . S
C981 C983 1.353 . S
C981 H1037 0.929 . S
C982 C978 1.356 . S
C982 C979 1.358 . S
C982 H1038 0.930 . S
C983 N980 1.314 . S
C983 C981 1.353 . S
C983 H1039 0.930 . S
C984 N985 1.314 . S
C984 C989 1.353 . S
C984 H990 0.930 . S
N985 Li968 1.990 . S
N985 C984 1.314 . S
N985 C987 1.279 . S
C986 C987 1.358 . S
C986 C988 1.356 . S
C986 H1040 0.930 . S
C987 N985 1.279 . S
C987 C986 1.358 . S
C987 H991 0.930 . S
C988 C986 1.356 . S
C988 C989 1.348 . S
C989 C984 1.353 . S
C989 C988 1.348 . S
C989 H1041 0.929 . S
H990 C984 0.930 . S
H991 C987 0.930 . S
C992 N993 1.314 . S
C992 C994 1.353 . S
C992 H998 0.930 . S
N993 Li969 1.990 . S
N993 C992 1.314 . S
N993 C996 1.279 . S
C994 C992 1.353 . S
C994 C997 1.348 . S
C994 H1042 0.929 . S
C995 C996 1.358 . S
C995 C997 1.356 . S
C995 H1043 0.930 . S
C996 N993 1.279 . S
C996 C995 1.358 . S
C996 H999 0.930 . S
C997 C994 1.348 . S
C997 C995 1.356 . S
H998 C992 0.930 . S
H999 C996 0.930 . S
C1000 C1002 1.348 . S
C1000 C1003 1.356 . S
C1000 O1030 1.325 . S
N1001 C1004 1.314 . S
N1001 C1005 1.279 . S
C1002 C1000 1.348 . S
C1002 C1004 1.353 . S
C1002 H1044 0.929 . S
C1003 C1000 1.356 . S
C1003 C1005 1.358 . S
C1003 H1045 0.930 . S
C1004 N1001 1.314 . S
C1004 C1002 1.353 . S
C1004 H1046 0.930 . S
C1005 N1001 1.279 . S
C1005 C1003 1.358 . S
C1005 H1047 0.930 . S
C1006 C1007 1.348 . S
C1006 C1008 1.356 . S
C1006 O1031 1.325 . S
C1007 C1006 1.348 . S
C1007 C1009 1.353 . S
C1007 H1048 0.929 . S
C1008 C1006 1.356 . S
C1008 C1010 1.358 . S
C1008 H1049 0.930 . S
C1009 C1007 1.353 . S
C1009 N1011 1.314 . S
C1009 H1050 0.930 . S
C1010 C1008 1.358 . S
C1010 N1011 1.279 . S
C1010 H1051 0.930 . S
N1011 C1009 1.314 . S
N1011 C1010 1.279 . S
C1012 C1014 1.353 . S
C1012 N1015 1.314 . S
C1012 H1018 0.930 . S
C1013 N1015 1.279 . S
C1013 C1016 1.358 . S
C1013 H1019 0.930 . S
C1014 C1012 1.353 . S
C1014 C1017 1.348 . S
C1014 H1052 0.929 . S
N1015 Li970 1.990 . S
N1015 C1012 1.314 . S
N1015 C1013 1.279 . S
C1016 C1013 1.358 . S
C1016 C1017 1.356 . S
C1016 H1053 0.930 . S
C1017 C1014 1.348 . S
C1017 C1016 1.356 . S
H1018 C1012 0.930 . S
H1019 C1013 0.930 . S
C1020 N1021 1.314 . S
C1020 C1022 1.353 . S
C1020 H1026 0.930 . S
N1021 Li971 1.990 . S
N1021 C1020 1.314 . S
N1021 C1024 1.279 . S
C1022 C1020 1.353 . S
C1022 C1025 1.348 . S
C1022 H1054 0.929 . S
C1023 C1024 1.358 . S
C1023 C1025 1.356 . S
C1023 H1055 0.930 . S
C1024 N1021 1.279 . S
C1024 C1023 1.358 . S
C1024 H1027 0.930 . S
C1025 C1022 1.348 . S
C1025 C1023 1.356 . S
H1026 C1020 0.930 . S
H1027 C1024 0.930 . S
O1028 Li968 1.956 . S
O1028 Li969 1.970 . S
O1028 Li970 1.961 . S
O1028 C972 1.325 . S
O1029 Li968 1.970 . S
O1029 Li969 1.956 . S
O1029 Li971 1.961 . S
O1029 C978 1.325 . S
O1030 Li968 1.961 . S
O1030 Li970 1.956 . S
O1030 Li971 1.970 . S
O1030 C1000 1.325 . S
O1031 Li969 1.961 . S
O1031 Li970 1.970 . S
O1031 Li971 1.956 . S
O1031 C1006 1.325 . S
H1032 C974 0.929 . S
H1033 C975 0.930 . S
H1034 C976 0.930 . S
H1035 C977 0.930 . S
H1036 C979 0.930 . S
H1037 C981 0.929 . S
H1038 C982 0.930 . S
H1039 C983 0.930 . S
H1040 C986 0.930 . S
H1041 C989 0.929 . S
H1042 C994 0.929 . S
H1043 C995 0.930 . S
H1044 C1002 0.929 . S
H1045 C1003 0.930 . S
H1046 C1004 0.930 . S
H1047 C1005 0.930 . S
H1048 C1007 0.929 . S
H1049 C1008 0.930 . S
H1050 C1009 0.930 . S
H1051 C1010 0.930 . S
H1052 C1014 0.929 . S
H1053 C1016 0.930 . S
H1054 C1022 0.929 . S
H1055 C1023 0.930 . S
H1056 C1064 0.929 . S
H1057 C1066 0.930 . S
H1058 C1068 0.930 . S
H1059 C1071 0.929 . S
H1060 C1074 0.930 . S
H1061 C1076 0.960 . S
H1062 C1076 0.960 . S
H1063 C1076 0.960 . S
C1064 H1056 0.929 . S
C1064 C1065 1.377 . S
C1064 C1066 1.384 . S
C1065 C1064 1.377 . S
C1065 C1071 1.390 . S
C1066 H1057 0.930 . S
C1066 C1064 1.384 . S
C1066 C1067 1.372 . S
C1067 C1066 1.372 . S
C1067 C1068 1.400 . S
C1067 C1072 1.490 . S
C1068 H1058 0.930 . S
C1068 C1067 1.400 . S
C1068 C1071 1.386 . S
H1069 C1085 0.930 . S
H1070 C1086 0.931 . S
C1071 H1059 0.929 . S
C1071 C1065 1.390 . S
C1071 C1068 1.386 . S
C1072 C1067 1.490 . S
C1072 C1074 1.395 . S
C1072 C1075 1.403 . S
H1073 C1079 0.930 . S
C1074 H1060 0.930 . S
C1074 C1072 1.395 . S
C1074 C1077 1.403 . S
C1075 C1072 1.403 . S
C1075 C1076 1.524 . S
C1075 C1079 1.400 . S
C1076 H1061 0.960 . S
C1076 H1062 0.960 . S
C1076 H1063 0.960 . S
C1076 C1075 1.524 . S
C1077 C1074 1.403 . S
C1077 C1078 1.392 . S
C1077 C1081 1.495 . S
C1078 C1077 1.392 . S
C1078 C1079 1.385 . S
C1078 C1080 1.478 . S
C1079 H1073 0.930 . S
C1079 C1075 1.400 . S
C1079 C1078 1.385 . S
C1080 C1078 1.478 . S
C1080 C1082 1.381 . S
C1080 C1086 1.383 . S
C1081 C1077 1.495 . S
C1081 H1087 0.959 . S
C1081 H1088 0.961 . S
C1081 H1089 0.960 . S
C1082 C1080 1.381 . S
C1082 C1083 1.394 . S
C1082 H1090 0.930 . S
C1083 C1082 1.394 . S
C1083 C1084 1.383 . S
C1083 H1091 0.929 . S
C1084 C1083 1.383 . S
C1084 C1085 1.377 . S
C1085 H1069 0.930 . S
C1085 C1084 1.377 . S
C1085 C1086 1.379 . S
C1086 H1070 0.931 . S
C1086 C1080 1.383 . S
C1086 C1085 1.379 . S
H1087 C1081 0.959 . S
H1088 C1081 0.961 . S
H1089 C1081 0.960 . S
H1090 C1082 0.930 . S
H1091 C1083 0.929 . S
H1092 C1100 0.929 . S
H1093 C1102 0.930 . S
H1094 C1104 0.930 . S
H1095 C1107 0.929 . S
H1096 C1110 0.930 . S
H1097 C1112 0.960 . S
H1098 C1112 0.960 . S
H1099 C1112 0.960 . S
C1100 H1092 0.929 . S
C1100 C1101 1.377 . S
C1100 C1102 1.384 . S
C1101 C1100 1.377 . S
C1101 C1107 1.390 . S
C1102 H1093 0.930 . S
C1102 C1100 1.384 . S
C1102 C1103 1.372 . S
C1103 C1102 1.372 . S
C1103 C1104 1.400 . S
C1103 C1108 1.490 . S
C1104 H1094 0.930 . S
C1104 C1103 1.400 . S
C1104 C1107 1.386 . S
H1105 C1121 0.930 . S
H1106 C1122 0.931 . S
C1107 H1095 0.929 . S
C1107 C1101 1.390 . S
C1107 C1104 1.386 . S
C1108 C1103 1.490 . S
C1108 C1110 1.395 . S
C1108 C1111 1.403 . S
H1109 C1115 0.930 . S
C1110 H1096 0.930 . S
C1110 C1108 1.395 . S
C1110 C1113 1.403 . S
C1111 C1108 1.403 . S
C1111 C1112 1.524 . S
C1111 C1115 1.400 . S
C1112 H1097 0.960 . S
C1112 H1098 0.960 . S
C1112 H1099 0.960 . S
C1112 C1111 1.524 . S
C1113 C1110 1.403 . S
C1113 C1114 1.392 . S
C1113 C1117 1.495 . S
C1114 C1113 1.392 . S
C1114 C1115 1.385 . S
C1114 C1116 1.478 . S
C1115 H1109 0.930 . S
C1115 C1111 1.400 . S
C1115 C1114 1.385 . S
C1116 C1114 1.478 . S
C1116 C1118 1.381 . S
C1116 C1122 1.383 . S
C1117 C1113 1.495 . S
C1117 H1123 0.959 . S
C1117 H1124 0.961 . S
C1117 H1125 0.960 . S
C1118 C1116 1.381 . S
C1118 C1119 1.394 . S
C1118 H1126 0.930 . S
C1119 C1118 1.394 . S
C1119 C1120 1.383 . S
C1119 H1127 0.929 . S
C1120 C1119 1.383 . S
C1120 C1121 1.377 . S
C1121 H1105 0.930 . S
C1121 C1120 1.377 . S
C1121 C1122 1.379 . S
C1122 H1106 0.931 . S
C1122 C1116 1.383 . S
C1122 C1121 1.379 . S
H1123 C1117 0.959 . S
H1124 C1117 0.961 . S
H1125 C1117 0.960 . S
H1126 C1118 0.930 . S
H1127 C1119 0.929 . S
H1128 C1136 0.929 . S
H1129 C1138 0.930 . S
H1130 C1140 0.930 . S
H1131 C1143 0.929 . S
H1132 C1146 0.930 . S
H1133 C1148 0.960 . S
H1134 C1148 0.960 . S
H1135 C1148 0.960 . S
C1136 H1128 0.929 . S
C1136 C1137 1.377 . S
C1136 C1138 1.384 . S
C1137 C1136 1.377 . S
C1137 C1143 1.390 . S
C1138 H1129 0.930 . S
C1138 C1136 1.384 . S
C1138 C1139 1.372 . S
C1139 C1138 1.372 . S
C1139 C1140 1.400 . S
C1139 C1144 1.490 . S
C1140 H1130 0.930 . S
C1140 C1139 1.400 . S
C1140 C1143 1.386 . S
H1141 C1157 0.930 . S
H1142 C1158 0.931 . S
C1143 H1131 0.929 . S
C1143 C1137 1.390 . S
C1143 C1140 1.386 . S
C1144 C1139 1.490 . S
C1144 C1146 1.395 . S
C1144 C1147 1.403 . S
H1145 C1151 0.930 . S
C1146 H1132 0.930 . S
C1146 C1144 1.395 . S
C1146 C1149 1.403 . S
C1147 C1144 1.403 . S
C1147 C1148 1.524 . S
C1147 C1151 1.400 . S
C1148 H1133 0.960 . S
C1148 H1134 0.960 . S
C1148 H1135 0.960 . S
C1148 C1147 1.524 . S
C1149 C1146 1.403 . S
C1149 C1150 1.392 . S
C1149 C1153 1.495 . S
C1150 C1149 1.392 . S
C1150 C1151 1.385 . S
C1150 C1152 1.478 . S
C1151 H1145 0.930 . S
C1151 C1147 1.400 . S
C1151 C1150 1.385 . S
C1152 C1150 1.478 . S
C1152 C1154 1.381 . S
C1152 C1158 1.383 . S
C1153 C1149 1.495 . S
C1153 H1159 0.959 . S
C1153 H1160 0.961 . S
C1153 H1161 0.960 . S
C1154 C1152 1.381 . S
C1154 C1155 1.394 . S
C1154 H1162 0.930 . S
C1155 C1154 1.394 . S
C1155 C1156 1.383 . S
C1155 H1163 0.929 . S
C1156 C1155 1.383 . S
C1156 C1157 1.377 . S
C1157 H1141 0.930 . S
C1157 C1156 1.377 . S
C1157 C1158 1.379 . S
C1158 H1142 0.931 . S
C1158 C1152 1.383 . S
C1158 C1157 1.379 . S
H1159 C1153 0.959 . S
H1160 C1153 0.961 . S
H1161 C1153 0.960 . S
H1162 C1154 0.930 . S
H1163 C1155 0.929 . S
H1164 C1172 0.929 . S
H1165 C1174 0.930 . S
H1166 C1176 0.930 . S
H1167 C1179 0.929 . S
H1168 C1182 0.930 . S
H1169 C1184 0.960 . S
H1170 C1184 0.960 . S
H1171 C1184 0.960 . S
C1172 H1164 0.929 . S
C1172 C1173 1.377 . S
C1172 C1174 1.384 . S
C1173 C1172 1.377 . S
C1173 C1179 1.390 . S
C1174 H1165 0.930 . S
C1174 C1172 1.384 . S
C1174 C1175 1.372 . S
C1175 C1174 1.372 . S
C1175 C1176 1.400 . S
C1175 C1180 1.490 . S
C1176 H1166 0.930 . S
C1176 C1175 1.400 . S
C1176 C1179 1.386 . S
H1177 C1193 0.930 . S
H1178 C1194 0.931 . S
C1179 H1167 0.929 . S
C1179 C1173 1.390 . S
C1179 C1176 1.386 . S
C1180 C1175 1.490 . S
C1180 C1182 1.395 . S
C1180 C1183 1.403 . S
H1181 C1187 0.930 . S
C1182 H1168 0.930 . S
C1182 C1180 1.395 . S
C1182 C1185 1.403 . S
C1183 C1180 1.403 . S
C1183 C1184 1.524 . S
C1183 C1187 1.400 . S
C1184 H1169 0.960 . S
C1184 H1170 0.960 . S
C1184 H1171 0.960 . S
C1184 C1183 1.524 . S
C1185 C1182 1.403 . S
C1185 C1186 1.392 . S
C1185 C1189 1.495 . S
C1186 C1185 1.392 . S
C1186 C1187 1.385 . S
C1186 C1188 1.478 . S
C1187 H1181 0.930 . S
C1187 C1183 1.400 . S
C1187 C1186 1.385 . S
C1188 C1186 1.478 . S
C1188 C1190 1.381 . S
C1188 C1194 1.383 . S
C1189 C1185 1.495 . S
C1189 H1195 0.959 . S
C1189 H1196 0.961 . S
C1189 H1197 0.960 . S
C1190 C1188 1.381 . S
C1190 C1191 1.394 . S
C1190 H1198 0.930 . S
C1191 C1190 1.394 . S
C1191 C1192 1.383 . S
C1191 H1199 0.929 . S
C1192 C1191 1.383 . S
C1192 C1193 1.377 . S
C1193 H1177 0.930 . S
C1193 C1192 1.377 . S
C1193 C1194 1.379 . S
C1194 H1178 0.931 . S
C1194 C1188 1.383 . S
C1194 C1193 1.379 . S
H1195 C1189 0.959 . S
H1196 C1189 0.961 . S
H1197 C1189 0.960 . S
H1198 C1190 0.930 . S
H1199 C1191 0.929 . S
H1200 C1208 0.929 . S
H1201 C1210 0.930 . S
H1202 C1212 0.930 . S
H1203 C1215 0.929 . S
H1204 C1218 0.930 . S
H1205 C1220 0.960 . S
H1206 C1220 0.960 . S
H1207 C1220 0.960 . S
C1208 H1200 0.929 . S
C1208 C1209 1.377 . S
C1208 C1210 1.384 . S
C1209 C1208 1.377 . S
C1209 C1215 1.390 . S
C1210 H1201 0.930 . S
C1210 C1208 1.384 . S
C1210 C1211 1.372 . S
C1211 C1210 1.372 . S
C1211 C1212 1.400 . S
C1211 C1216 1.490 . S
C1212 H1202 0.930 . S
C1212 C1211 1.400 . S
C1212 C1215 1.386 . S
H1213 C1229 0.930 . S
H1214 C1230 0.931 . S
C1215 H1203 0.929 . S
C1215 C1209 1.390 . S
C1215 C1212 1.386 . S
C1216 C1211 1.490 . S
C1216 C1218 1.395 . S
C1216 C1219 1.403 . S
H1217 C1223 0.930 . S
C1218 H1204 0.930 . S
C1218 C1216 1.395 . S
C1218 C1221 1.403 . S
C1219 C1216 1.403 . S
C1219 C1220 1.524 . S
C1219 C1223 1.400 . S
C1220 H1205 0.960 . S
C1220 H1206 0.960 . S
C1220 H1207 0.960 . S
C1220 C1219 1.524 . S
C1221 C1218 1.403 . S
C1221 C1222 1.392 . S
C1221 C1225 1.489 1_556 S
C1222 C1221 1.392 . S
C1222 C1223 1.385 . S
C1222 C1224 1.478 1_556 S
C1223 H1217 0.930 . S
C1223 C1219 1.400 . S
C1223 C1222 1.385 . S
C1224 C1222 1.478 1_554 S
C1224 C1226 1.381 . S
C1224 C1230 1.383 . S
C1225 C1221 1.489 1_554 S
C1225 H1231 0.957 1_554 S
C1225 H1232 0.970 . S
C1225 H1233 0.959 1_554 S
C1226 C1224 1.381 . S
C1226 C1227 1.394 . S
C1226 H1234 0.930 1_554 S
C1227 C1226 1.394 . S
C1227 C1228 1.383 . S
C1227 H1235 0.929 . S
C1228 C1227 1.383 . S
C1228 C1229 1.377 . S
C1229 H1213 0.930 . S
C1229 C1228 1.377 . S
C1229 C1230 1.379 . S
C1230 H1214 0.931 . S
C1230 C1224 1.383 . S
C1230 C1229 1.379 . S
H1231 C1225 0.957 1_556 S
H1232 C1225 0.970 . S
H1233 C1225 0.959 1_556 S
H1234 C1226 0.930 1_556 S
H1235 C1227 0.929 . S
H1236 C1244 0.929 . S
H1237 C1246 0.930 . S
H1238 C1248 0.930 . S
H1239 C1251 0.929 . S
H1240 C1254 0.930 . S
H1241 C1256 0.960 . S
H1242 C1256 0.960 . S
H1243 C1256 0.960 . S
C1244 H1236 0.929 . S
C1244 C1245 1.377 . S
C1244 C1246 1.384 . S
C1245 C1244 1.377 . S
C1245 C1251 1.390 . S
C1246 H1237 0.930 . S
C1246 C1244 1.384 . S
C1246 C1247 1.372 . S
C1247 C1246 1.372 . S
C1247 C1248 1.400 . S
C1247 C1252 1.490 . S
C1248 H1238 0.930 . S
C1248 C1247 1.400 . S
C1248 C1251 1.386 . S
H1249 C1265 0.930 1_556 S
H1250 C1266 0.931 . S
C1251 H1239 0.929 . S
C1251 C1245 1.390 . S
C1251 C1248 1.386 . S
C1252 C1247 1.490 . S
C1252 C1254 1.395 . S
C1252 C1255 1.403 . S
H1253 C1259 0.930 . S
C1254 H1240 0.930 . S
C1254 C1252 1.395 . S
C1254 C1257 1.403 . S
C1255 C1252 1.403 . S
C1255 C1256 1.524 . S
C1255 C1259 1.400 . S
C1256 H1241 0.960 . S
C1256 H1242 0.960 . S
C1256 H1243 0.960 . S
C1256 C1255 1.524 . S
C1257 C1254 1.403 . S
C1257 C1258 1.392 . S
C1257 C1261 1.495 . S
C1258 C1257 1.392 . S
C1258 C1259 1.385 . S
C1258 C1260 1.478 . S
C1259 H1253 0.930 . S
C1259 C1255 1.400 . S
C1259 C1258 1.385 . S
C1260 C1258 1.478 . S
C1260 C1262 1.381 . S
C1260 C1266 1.383 . S
C1261 C1257 1.495 . S
C1261 H1267 0.959 . S
C1261 H1268 0.961 . S
C1261 H1269 0.960 . S
C1262 C1260 1.381 . S
C1262 C1263 1.394 . S
C1262 H1270 0.930 . S
C1263 C1262 1.394 . S
C1263 C1264 1.383 . S
C1263 H1271 0.929 . S
C1264 C1263 1.383 . S
C1264 C1265 1.377 . S
C1265 H1249 0.930 1_554 S
C1265 C1264 1.377 . S
C1265 C1266 1.379 . S
C1266 H1250 0.931 . S
C1266 C1260 1.383 . S
C1266 C1265 1.379 . S
H1267 C1261 0.959 . S
H1268 C1261 0.961 . S
H1269 C1261 0.960 . S
H1270 C1262 0.930 . S
H1271 C1263 0.929 . S
H1272 C1280 0.929 . S
H1273 C1282 0.930 . S
H1274 C1284 0.930 . S
H1275 C1287 0.929 . S
H1276 C1290 0.930 . S
H1277 C1292 0.960 . S
H1278 C1292 0.960 . S
H1279 C1292 0.960 . S
C1280 H1272 0.929 . S
C1280 C1281 1.377 . S
C1280 C1282 1.384 . S
C1281 C1280 1.377 . S
C1281 C1287 1.390 . S
C1282 H1273 0.930 . S
C1282 C1280 1.384 . S
C1282 C1283 1.372 . S
C1283 C1282 1.372 . S
C1283 C1284 1.400 . S
C1283 C1288 1.490 . S
C1284 H1274 0.930 . S
C1284 C1283 1.400 . S
C1284 C1287 1.386 . S
H1285 C1301 0.930 . S
H1286 C1302 0.931 . S
C1287 H1275 0.929 . S
C1287 C1281 1.390 . S
C1287 C1284 1.386 . S
C1288 C1283 1.490 . S
C1288 C1290 1.395 . S
C1288 C1291 1.403 . S
H1289 C1295 0.930 . S
C1290 H1276 0.930 . S
C1290 C1288 1.395 . S
C1290 C1293 1.403 . S
C1291 C1288 1.403 . S
C1291 C1292 1.524 . S
C1291 C1295 1.400 . S
C1292 H1277 0.960 . S
C1292 H1278 0.960 . S
C1292 H1279 0.960 . S
C1292 C1291 1.524 . S
C1293 C1290 1.403 . S
C1293 C1294 1.392 . S
C1293 C1297 1.495 . S
C1294 C1293 1.392 . S
C1294 C1295 1.385 . S
C1294 C1296 1.478 . S
C1295 H1289 0.930 . S
C1295 C1291 1.400 . S
C1295 C1294 1.385 . S
C1296 C1294 1.478 . S
C1296 C1298 1.381 . S
C1296 C1302 1.383 . S
C1297 C1293 1.495 . S
C1297 H1303 0.959 . S
C1297 H1304 0.961 . S
C1297 H1305 0.960 . S
C1298 C1296 1.381 . S
C1298 C1299 1.394 . S
C1298 H1306 0.930 . S
C1299 C1298 1.394 . S
C1299 C1300 1.383 . S
C1299 H1307 0.929 . S
C1300 C1299 1.383 . S
C1300 C1301 1.377 . S
C1301 H1285 0.930 . S
C1301 C1300 1.377 . S
C1301 C1302 1.379 . S
C1302 H1286 0.931 . S
C1302 C1296 1.383 . S
C1302 C1301 1.379 . S
H1303 C1297 0.959 . S
H1304 C1297 0.961 . S
H1305 C1297 0.960 . S
H1306 C1298 0.930 . S
H1307 C1299 0.929 . S
H1308 C1316 0.929 . S
H1309 C1318 0.930 . S
H1310 C1320 0.930 . S
H1311 C1323 0.929 . S
H1312 C1326 0.930 . S
H1313 C1328 0.960 . S
H1314 C1328 0.960 . S
H1315 C1328 0.960 . S
C1316 H1308 0.929 . S
C1316 C1317 1.377 . S
C1316 C1318 1.384 . S
C1317 C1316 1.377 . S
C1317 C1323 1.390 . S
C1318 H1309 0.930 . S
C1318 C1316 1.384 . S
C1318 C1319 1.372 . S
C1319 C1318 1.372 . S
C1319 C1320 1.400 . S
C1319 C1324 1.490 . S
C1320 H1310 0.930 . S
C1320 C1319 1.400 . S
C1320 C1323 1.386 . S
H1321 C1337 0.930 . S
H1322 C1338 0.931 . S
C1323 H1311 0.929 . S
C1323 C1317 1.390 . S
C1323 C1320 1.386 . S
C1324 C1319 1.490 . S
C1324 C1326 1.395 . S
C1324 C1327 1.403 . S
H1325 C1331 0.930 . S
C1326 H1312 0.930 . S
C1326 C1324 1.395 . S
C1326 C1329 1.403 . S
C1327 C1324 1.403 . S
C1327 C1328 1.524 . S
C1327 C1331 1.400 . S
C1328 H1313 0.960 . S
C1328 H1314 0.960 . S
C1328 H1315 0.960 . S
C1328 C1327 1.524 . S
C1329 C1326 1.403 . S
C1329 C1330 1.392 . S
C1329 C1333 1.495 . S
C1330 C1329 1.392 . S
C1330 C1331 1.385 . S
C1330 C1332 1.478 . S
C1331 H1325 0.930 . S
C1331 C1327 1.400 . S
C1331 C1330 1.385 . S
C1332 C1330 1.478 . S
C1332 C1334 1.381 . S
C1332 C1338 1.383 . S
C1333 C1329 1.495 . S
C1333 H1339 0.959 . S
C1333 H1340 0.961 . S
C1333 H1341 0.960 . S
C1334 C1332 1.381 . S
C1334 C1335 1.394 . S
C1334 H1342 0.930 . S
C1335 C1334 1.394 . S
C1335 C1336 1.383 . S
C1335 H1343 0.929 . S
C1336 C1335 1.383 . S
C1336 C1337 1.377 . S
C1337 H1321 0.930 . S
C1337 C1336 1.377 . S
C1337 C1338 1.379 . S
C1338 H1322 0.931 . S
C1338 C1332 1.383 . S
C1338 C1337 1.379 . S
H1339 C1333 0.959 . S
H1340 C1333 0.961 . S
H1341 C1333 0.960 . S
H1342 C1334 0.930 . S
H1343 C1335 0.929 . S
H1344 C1352 0.929 . S
H1345 C1354 0.930 . S
H1346 C1356 0.930 . S
H1347 C1359 0.929 . S
H1348 C1362 0.930 . S
H1349 C1364 0.960 . S
H1350 C1364 0.960 . S
H1351 C1364 0.960 . S
C1352 H1344 0.929 . S
C1352 C1353 1.377 . S
C1352 C1354 1.384 . S
C1353 C1352 1.377 . S
C1353 C1359 1.390 . S
C1354 H1345 0.930 . S
C1354 C1352 1.384 . S
C1354 C1355 1.372 . S
C1355 C1354 1.372 . S
C1355 C1356 1.400 . S
C1355 C1360 1.490 . S
C1356 H1346 0.930 . S
C1356 C1355 1.400 . S
C1356 C1359 1.386 . S
H1357 C1373 0.930 . S
H1358 C1374 0.931 . S
C1359 H1347 0.929 . S
C1359 C1353 1.390 . S
C1359 C1356 1.386 . S
C1360 C1355 1.490 . S
C1360 C1362 1.395 . S
C1360 C1363 1.403 . S
H1361 C1367 0.930 . S
C1362 H1348 0.930 . S
C1362 C1360 1.395 . S
C1362 C1365 1.403 . S
C1363 C1360 1.403 . S
C1363 C1364 1.524 . S
C1363 C1367 1.400 . S
C1364 H1349 0.960 . S
C1364 H1350 0.960 . S
C1364 H1351 0.960 . S
C1364 C1363 1.524 . S
C1365 C1362 1.403 . S
C1365 C1366 1.392 . S
C1365 C1369 1.495 . S
C1366 C1365 1.392 . S
C1366 C1367 1.385 . S
C1366 C1368 1.478 . S
C1367 H1361 0.930 . S
C1367 C1363 1.400 . S
C1367 C1366 1.385 . S
C1368 C1366 1.478 . S
C1368 C1370 1.381 . S
C1368 C1374 1.383 . S
C1369 C1365 1.495 . S
C1369 H1375 0.959 . S
C1369 H1376 0.961 . S
C1369 H1377 0.960 . S
C1370 C1368 1.381 . S
C1370 C1371 1.394 . S
C1370 H1378 0.930 . S
C1371 C1370 1.394 . S
C1371 C1372 1.383 . S
C1371 H1379 0.929 . S
C1372 C1371 1.383 . S
C1372 C1373 1.377 . S
C1373 H1357 0.930 . S
C1373 C1372 1.377 . S
C1373 C1374 1.379 . S
C1374 H1358 0.931 . S
C1374 C1368 1.383 . S
C1374 C1373 1.379 . S
H1375 C1369 0.959 . S
H1376 C1369 0.961 . S
H1377 C1369 0.960 . S
H1378 C1370 0.930 . S
H1379 C1371 0.929 . S
H1380 C1388 0.929 . S
H1381 C1390 0.930 . S
H1382 C1392 0.930 . S
H1383 C1395 0.929 . S
H1384 C1398 0.930 . S
H1385 C1400 0.960 . S
H1386 C1400 0.960 . S
H1387 C1400 0.960 . S
C1388 H1380 0.929 . S
C1388 C1389 1.377 . S
C1388 C1390 1.384 . S
C1389 C1388 1.377 . S
C1389 C1395 1.390 . S
C1390 H1381 0.930 . S
C1390 C1388 1.384 . S
C1390 C1391 1.372 . S
C1391 C1390 1.372 . S
C1391 C1392 1.400 . S
C1391 C1396 1.490 . S
C1392 H1382 0.930 . S
C1392 C1391 1.400 . S
C1392 C1395 1.386 . S
H1393 C1409 0.930 . S
H1394 C1410 0.931 . S
C1395 H1383 0.929 . S
C1395 C1389 1.390 . S
C1395 C1392 1.386 . S
C1396 C1391 1.490 . S
C1396 C1398 1.395 . S
C1396 C1399 1.403 . S
H1397 C1403 0.930 . S
C1398 H1384 0.930 . S
C1398 C1396 1.395 . S
C1398 C1401 1.403 . S
C1399 C1396 1.403 . S
C1399 C1400 1.524 . S
C1399 C1403 1.400 . S
C1400 H1385 0.960 . S
C1400 H1386 0.960 . S
C1400 H1387 0.960 . S
C1400 C1399 1.524 . S
C1401 C1398 1.403 . S
C1401 C1402 1.392 . S
C1401 C1405 1.495 . S
C1402 C1401 1.392 . S
C1402 C1403 1.385 . S
C1402 C1404 1.478 . S
C1403 H1397 0.930 . S
C1403 C1399 1.400 . S
C1403 C1402 1.385 . S
C1404 C1402 1.478 . S
C1404 C1406 1.381 . S
C1404 C1410 1.383 . S
C1405 C1401 1.495 . S
C1405 H1411 0.959 . S
C1405 H1412 0.961 . S
C1405 H1413 0.960 . S
C1406 C1404 1.381 . S
C1406 C1407 1.394 . S
C1406 H1414 0.930 . S
C1407 C1406 1.394 . S
C1407 C1408 1.383 . S
C1407 H1415 0.929 . S
C1408 C1407 1.383 . S
C1408 C1409 1.377 . S
C1409 H1393 0.930 . S
C1409 C1408 1.377 . S
C1409 C1410 1.379 . S
C1410 H1394 0.931 . S
C1410 C1404 1.383 . S
C1410 C1409 1.379 . S
H1411 C1405 0.959 . S
H1412 C1405 0.961 . S
H1413 C1405 0.960 . S
H1414 C1406 0.930 . S
H1415 C1407 0.929 . S
H1416 C1424 0.929 . S
H1417 C1426 0.930 . S
H1418 C1428 0.930 . S
H1419 C1431 0.929 . S
H1420 C1434 0.930 . S
H1421 C1436 0.960 . S
H1422 C1436 0.960 . S
H1423 C1436 0.960 . S
C1424 H1416 0.929 . S
C1424 C1425 1.377 . S
C1424 C1426 1.384 . S
C1425 C1424 1.377 . S
C1425 C1431 1.390 . S
C1426 H1417 0.930 . S
C1426 C1424 1.384 . S
C1426 C1427 1.372 . S
C1427 C1426 1.372 . S
C1427 C1428 1.400 . S
C1427 C1432 1.490 . S
C1428 H1418 0.930 . S
C1428 C1427 1.400 . S
C1428 C1431 1.386 . S
H1429 C1445 0.930 . S
H1430 C1446 0.931 . S
C1431 H1419 0.929 . S
C1431 C1425 1.390 . S
C1431 C1428 1.386 . S
C1432 C1427 1.490 . S
C1432 C1434 1.395 . S
C1432 C1435 1.403 . S
H1433 C1439 0.930 . S
C1434 H1420 0.930 . S
C1434 C1432 1.395 . S
C1434 C1437 1.403 . S
C1435 C1432 1.403 . S
C1435 C1436 1.524 . S
C1435 C1439 1.400 . S
C1436 H1421 0.960 . S
C1436 H1422 0.960 . S
C1436 H1423 0.960 . S
C1436 C1435 1.524 . S
C1437 C1434 1.403 . S
C1437 C1438 1.392 . S
C1437 C1441 1.495 . S
C1438 C1437 1.392 . S
C1438 C1439 1.385 . S
C1438 C1440 1.478 . S
C1439 H1433 0.930 . S
C1439 C1435 1.400 . S
C1439 C1438 1.385 . S
C1440 C1438 1.478 . S
C1440 C1442 1.381 . S
C1440 C1446 1.383 . S
C1441 C1437 1.495 . S
C1441 H1447 0.959 . S
C1441 H1448 0.961 . S
C1441 H1449 0.960 . S
C1442 C1440 1.381 . S
C1442 C1443 1.394 . S
C1442 H1450 0.930 . S
C1443 C1442 1.394 . S
C1443 C1444 1.383 . S
C1443 H1451 0.929 . S
C1444 C1443 1.383 . S
C1444 C1445 1.377 . S
C1445 H1429 0.930 . S
C1445 C1444 1.377 . S
C1445 C1446 1.379 . S
C1446 H1430 0.931 . S
C1446 C1440 1.383 . S
C1446 C1445 1.379 . S
H1447 C1441 0.959 . S
H1448 C1441 0.961 . S
H1449 C1441 0.960 . S
H1450 C1442 0.930 . S
H1451 C1443 0.929 . S
H1452 C1460 0.929 . S
H1453 C1462 0.930 . S
H1454 C1464 0.930 . S
H1455 C1467 0.929 . S
H1456 C1470 0.930 . S
H1457 C1472 0.960 . S
H1458 C1472 0.960 . S
H1459 C1472 0.960 . S
C1460 H1452 0.929 . S
C1460 C1461 1.377 . S
C1460 C1462 1.384 . S
C1461 C1460 1.377 . S
C1461 C1467 1.390 . S
C1462 H1453 0.930 . S
C1462 C1460 1.384 . S
C1462 C1463 1.372 . S
C1463 C1462 1.372 . S
C1463 C1464 1.400 . S
C1463 C1468 1.490 . S
C1464 H1454 0.930 . S
C1464 C1463 1.400 . S
C1464 C1467 1.386 . S
H1465 C1481 0.930 . S
H1466 C1482 0.931 . S
C1467 H1455 0.929 . S
C1467 C1461 1.390 . S
C1467 C1464 1.386 . S
C1468 C1463 1.490 . S
C1468 C1470 1.395 . S
C1468 C1471 1.403 . S
H1469 C1475 0.930 . S
C1470 H1456 0.930 . S
C1470 C1468 1.395 . S
C1470 C1473 1.403 . S
C1471 C1468 1.403 . S
C1471 C1472 1.524 . S
C1471 C1475 1.400 . S
C1472 H1457 0.960 . S
C1472 H1458 0.960 . S
C1472 H1459 0.960 . S
C1472 C1471 1.524 . S
C1473 C1470 1.403 . S
C1473 C1474 1.392 . S
C1473 C1477 1.495 . S
C1474 C1473 1.392 . S
C1474 C1475 1.385 . S
C1474 C1476 1.478 . S
C1475 H1469 0.930 . S
C1475 C1471 1.400 . S
C1475 C1474 1.385 . S
C1476 C1474 1.478 . S
C1476 C1478 1.381 . S
C1476 C1482 1.383 1_556 S
C1477 C1473 1.495 . S
C1477 H1483 0.959 . S
C1477 H1484 0.961 . S
C1477 H1485 0.960 . S
C1478 C1476 1.381 . S
C1478 C1479 1.394 . S
C1478 H1486 0.930 . S
C1479 C1478 1.394 . S
C1479 C1480 1.375 1_556 S
C1479 H1487 0.929 . S
C1480 C1479 1.375 1_554 S
C1480 C1481 1.382 . S
C1481 H1465 0.930 . S
C1481 C1480 1.382 . S
C1481 C1482 1.379 . S
C1482 H1466 0.931 . S
C1482 C1476 1.383 1_554 S
C1482 C1481 1.379 . S
H1483 C1477 0.959 . S
H1484 C1477 0.961 . S
H1485 C1477 0.960 . S
H1486 C1478 0.930 . S
H1487 C1479 0.929 . S
H1488 C1496 0.929 . S
H1489 C1498 0.930 . S
H1490 C1500 0.930 . S
H1491 C1503 0.929 . S
H1492 C1506 0.930 . S
H1493 C1508 0.960 . S
H1494 C1508 0.960 . S
H1495 C1508 0.960 . S
C1496 H1488 0.929 . S
C1496 C1497 1.377 . S
C1496 C1498 1.384 . S
C1497 C1496 1.377 . S
C1497 C1503 1.390 . S
C1498 H1489 0.930 . S
C1498 C1496 1.384 . S
C1498 C1499 1.372 . S
C1499 C1498 1.372 . S
C1499 C1500 1.400 . S
C1499 C1504 1.490 . S
C1500 H1490 0.930 . S
C1500 C1499 1.400 . S
C1500 C1503 1.386 . S
H1501 C1517 0.930 . S
H1502 C1518 0.931 . S
C1503 H1491 0.929 . S
C1503 C1497 1.390 . S
C1503 C1500 1.386 . S
C1504 C1499 1.490 . S
C1504 C1506 1.395 . S
C1504 C1507 1.403 . S
H1505 C1511 0.930 . S
C1506 H1492 0.930 . S
C1506 C1504 1.395 . S
C1506 C1509 1.403 . S
C1507 C1504 1.403 . S
C1507 C1508 1.524 . S
C1507 C1511 1.400 . S
C1508 H1493 0.960 . S
C1508 H1494 0.960 . S
C1508 H1495 0.960 . S
C1508 C1507 1.524 . S
C1509 C1506 1.403 . S
C1509 C1510 1.392 . S
C1509 C1513 1.495 . S
C1510 C1509 1.392 . S
C1510 C1511 1.385 . S
C1510 C1512 1.478 . S
C1511 H1505 0.930 . S
C1511 C1507 1.400 . S
C1511 C1510 1.385 . S
C1512 C1510 1.478 . S
C1512 C1514 1.381 . S
C1512 C1518 1.383 . S
C1513 C1509 1.495 . S
C1513 H1519 0.959 . S
C1513 H1520 0.961 . S
C1513 H1521 0.960 . S
C1514 C1512 1.381 . S
C1514 C1515 1.394 . S
C1514 H1522 0.930 . S
C1515 C1514 1.394 . S
C1515 C1516 1.383 . S
C1515 H1523 0.929 . S
C1516 C1515 1.383 . S
C1516 C1517 1.377 . S
C1517 H1501 0.930 . S
C1517 C1516 1.377 . S
C1517 C1518 1.379 . S
C1518 H1502 0.931 . S
C1518 C1512 1.383 . S
C1518 C1517 1.379 . S
H1519 C1513 0.959 . S
H1520 C1513 0.961 . S
H1521 C1513 0.960 . S
H1522 C1514 0.930 . S
H1523 C1515 0.929 . S
H1524 C1532 0.929 . S
H1525 C1534 0.930 1_556 S
H1526 C1536 0.930 . S
H1527 C1539 0.929 . S
H1528 C1542 0.930 . S
H1529 C1544 0.960 . S
H1530 C1544 0.960 . S
H1531 C1544 0.960 . S
C1532 H1524 0.929 . S
C1532 C1533 1.377 . S
C1532 C1534 1.384 . S
C1533 C1532 1.377 . S
C1533 C1539 1.390 . S
C1534 H1525 0.930 1_554 S
C1534 C1532 1.384 . S
C1534 C1535 1.372 . S
C1535 C1534 1.372 . S
C1535 C1536 1.400 . S
C1535 C1540 1.490 1_554 S
C1536 H1526 0.930 . S
C1536 C1535 1.400 . S
C1536 C1539 1.386 . S
H1537 C1553 0.930 . S
H1538 C1554 0.931 . S
C1539 H1527 0.929 . S
C1539 C1533 1.390 . S
C1539 C1536 1.386 . S
C1540 C1535 1.490 1_556 S
C1540 C1542 1.395 . S
C1540 C1543 1.403 . S
H1541 C1547 0.930 . S
C1542 H1528 0.930 . S
C1542 C1540 1.395 . S
C1542 C1545 1.403 . S
C1543 C1540 1.403 . S
C1543 C1544 1.524 . S
C1543 C1547 1.400 . S
C1544 H1529 0.960 . S
C1544 H1530 0.960 . S
C1544 H1531 0.960 . S
C1544 C1543 1.524 . S
C1545 C1542 1.403 . S
C1545 C1546 1.392 . S
C1545 C1549 1.495 . S
C1546 C1545 1.392 . S
C1546 C1547 1.385 . S
C1546 C1548 1.478 . S
C1547 H1541 0.930 . S
C1547 C1543 1.400 . S
C1547 C1546 1.385 . S
C1548 C1546 1.478 . S
C1548 C1550 1.381 . S
C1548 C1554 1.383 . S
C1549 C1545 1.495 . S
C1549 H1555 0.959 . S
C1549 H1556 0.961 . S
C1549 H1557 0.960 . S
C1550 C1548 1.381 . S
C1550 C1551 1.394 . S
C1550 H1558 0.930 . S
C1551 C1550 1.394 . S
C1551 C1552 1.383 . S
C1551 H1559 0.929 . S
C1552 C1551 1.383 . S
C1552 C1553 1.377 . S
C1553 H1537 0.930 . S
C1553 C1552 1.377 . S
C1553 C1554 1.379 . S
C1554 H1538 0.931 . S
C1554 C1548 1.383 . S
C1554 C1553 1.379 . S
H1555 C1549 0.959 . S
H1556 C1549 0.961 . S
H1557 C1549 0.960 . S
H1558 C1550 0.930 . S
H1559 C1551 0.929 . S
H1560 C1568 0.929 . S
H1561 C1570 0.930 . S
H1562 C1572 0.930 . S
H1563 C1575 0.929 . S
H1564 C1578 0.930 . S
H1565 C1580 0.960 . S
H1566 C1580 0.960 . S
H1567 C1580 0.960 . S
C1568 H1560 0.929 . S
C1568 C1569 1.377 . S
C1568 C1570 1.384 . S
C1569 C1568 1.377 . S
C1569 C1575 1.390 . S
C1570 H1561 0.930 . S
C1570 C1568 1.384 . S
C1570 C1571 1.372 . S
C1571 C1570 1.372 . S
C1571 C1572 1.400 . S
C1571 C1576 1.490 . S
C1572 H1562 0.930 . S
C1572 C1571 1.400 . S
C1572 C1575 1.386 . S
H1573 C1589 0.930 . S
H1574 C1590 0.931 . S
C1575 H1563 0.929 . S
C1575 C1569 1.390 . S
C1575 C1572 1.386 . S
C1576 C1571 1.490 . S
C1576 C1578 1.395 . S
C1576 C1579 1.403 . S
H1577 C1583 0.930 . S
C1578 H1564 0.930 . S
C1578 C1576 1.395 . S
C1578 C1581 1.403 . S
C1579 C1576 1.403 . S
C1579 C1580 1.524 . S
C1579 C1583 1.400 . S
C1580 H1565 0.960 . S
C1580 H1566 0.960 . S
C1580 H1567 0.960 . S
C1580 C1579 1.524 . S
C1581 C1578 1.403 . S
C1581 C1582 1.392 . S
C1581 C1585 1.495 . S
C1582 C1581 1.392 . S
C1582 C1583 1.385 . S
C1582 C1584 1.478 . S
C1583 H1577 0.930 . S
C1583 C1579 1.400 . S
C1583 C1582 1.385 . S
C1584 C1582 1.478 . S
C1584 C1586 1.381 . S
C1584 C1590 1.383 . S
C1585 C1581 1.495 . S
C1585 H1591 0.959 . S
C1585 H1592 0.961 . S
C1585 H1593 0.960 . S
C1586 C1584 1.381 . S
C1586 C1587 1.394 . S
C1586 H1594 0.930 . S
C1587 C1586 1.394 . S
C1587 C1588 1.383 . S
C1587 H1595 0.929 . S
C1588 C1587 1.383 . S
C1588 C1589 1.377 . S
C1589 H1573 0.930 . S
C1589 C1588 1.377 . S
C1589 C1590 1.379 . S
C1590 H1574 0.931 . S
C1590 C1584 1.383 . S
C1590 C1589 1.379 . S
H1591 C1585 0.959 . S
H1592 C1585 0.961 . S
H1593 C1585 0.960 . S
H1594 C1586 0.930 . S
H1595 C1587 0.929 . S
H1596 C1604 0.929 . S
H1597 C1606 0.930 . S
H1598 C1608 0.930 . S
H1599 C1611 0.929 . S
H1600 C1614 0.930 . S
H1601 C1616 0.960 . S
H1602 C1616 0.960 . S
H1603 C1616 0.960 . S
C1604 H1596 0.929 . S
C1604 C1605 1.377 . S
C1604 C1606 1.384 . S
C1605 C1604 1.377 . S
C1605 C1611 1.390 . S
C1606 H1597 0.930 . S
C1606 C1604 1.384 . S
C1606 C1607 1.372 . S
C1607 C1606 1.372 . S
C1607 C1608 1.400 . S
C1607 C1612 1.490 . S
C1608 H1598 0.930 . S
C1608 C1607 1.400 . S
C1608 C1611 1.386 . S
H1609 C1625 0.930 . S
H1610 C1626 0.931 . S
C1611 H1599 0.929 . S
C1611 C1605 1.390 . S
C1611 C1608 1.386 . S
C1612 C1607 1.490 . S
C1612 C1614 1.395 . S
C1612 C1615 1.403 . S
H1613 C1619 0.930 . S
C1614 H1600 0.930 . S
C1614 C1612 1.395 . S
C1614 C1617 1.403 . S
C1615 C1612 1.403 . S
C1615 C1616 1.524 . S
C1615 C1619 1.400 . S
C1616 H1601 0.960 . S
C1616 H1602 0.960 . S
C1616 H1603 0.960 . S
C1616 C1615 1.524 . S
C1617 C1614 1.403 . S
C1617 C1618 1.392 . S
C1617 C1621 1.495 . S
C1618 C1617 1.392 . S
C1618 C1619 1.385 . S
C1618 C1620 1.478 . S
C1619 H1613 0.930 . S
C1619 C1615 1.400 . S
C1619 C1618 1.385 . S
C1620 C1618 1.478 . S
C1620 C1622 1.381 . S
C1620 C1626 1.383 . S
C1621 C1617 1.495 . S
C1621 H1627 0.959 . S
C1621 H1628 0.961 . S
C1621 H1629 0.960 . S
C1622 C1620 1.381 . S
C1622 C1623 1.394 . S
C1622 H1630 0.930 . S
C1623 C1622 1.394 . S
C1623 C1624 1.383 . S
C1623 H1631 0.929 . S
C1624 C1623 1.383 . S
C1624 C1625 1.377 . S
C1625 H1609 0.930 . S
C1625 C1624 1.377 . S
C1625 C1626 1.379 . S
C1626 H1610 0.931 . S
C1626 C1620 1.383 . S
C1626 C1625 1.379 . S
H1627 C1621 0.959 . S
H1628 C1621 0.961 . S
H1629 C1621 0.960 . S
H1630 C1622 0.930 . S
H1631 C1623 0.929 . S
H1632 C1640 0.929 . S
H1633 C1642 0.930 . S
H1634 C1644 0.930 . S
H1635 C1647 0.929 . S
H1636 C1650 0.930 . S
H1637 C1652 0.960 . S
H1638 C1652 0.960 . S
H1639 C1652 0.960 . S
C1640 H1632 0.929 . S
C1640 C1641 1.377 . S
C1640 C1642 1.384 . S
C1641 C1640 1.377 . S
C1641 C1647 1.390 . S
C1642 H1633 0.930 . S
C1642 C1640 1.384 . S
C1642 C1643 1.372 . S
C1643 C1642 1.372 . S
C1643 C1644 1.400 . S
C1643 C1648 1.490 . S
C1644 H1634 0.930 . S
C1644 C1643 1.400 . S
C1644 C1647 1.386 . S
H1645 C1661 0.930 . S
H1646 C1662 0.931 . S
C1647 H1635 0.929 . S
C1647 C1641 1.390 . S
C1647 C1644 1.386 . S
C1648 C1643 1.490 . S
C1648 C1650 1.395 . S
C1648 C1651 1.403 . S
H1649 C1655 0.930 . S
C1650 H1636 0.930 . S
C1650 C1648 1.395 . S
C1650 C1653 1.403 . S
C1651 C1648 1.403 . S
C1651 C1652 1.524 . S
C1651 C1655 1.400 . S
C1652 H1637 0.960 . S
C1652 H1638 0.960 . S
C1652 H1639 0.960 . S
C1652 C1651 1.524 . S
C1653 C1650 1.403 . S
C1653 C1654 1.392 . S
C1653 C1657 1.495 . S
C1654 C1653 1.392 . S
C1654 C1655 1.385 . S
C1654 C1656 1.478 . S
C1655 H1649 0.930 . S
C1655 C1651 1.400 . S
C1655 C1654 1.385 . S
C1656 C1654 1.478 . S
C1656 C1658 1.381 . S
C1656 C1662 1.383 . S
C1657 C1653 1.495 . S
C1657 H1663 0.959 . S
C1657 H1664 0.961 . S
C1657 H1665 0.960 . S
C1658 C1656 1.381 . S
C1658 C1659 1.394 . S
C1658 H1666 0.930 . S
C1659 C1658 1.394 . S
C1659 C1660 1.383 . S
C1659 H1667 0.929 . S
C1660 C1659 1.383 . S
C1660 C1661 1.377 . S
C1661 H1645 0.930 . S
C1661 C1660 1.377 . S
C1661 C1662 1.379 . S
C1662 H1646 0.931 . S
C1662 C1656 1.383 . S
C1662 C1661 1.379 . S
H1663 C1657 0.959 . S
H1664 C1657 0.961 . S
H1665 C1657 0.960 . S
H1666 C1658 0.930 . S
H1667 C1659 0.929 . S
H1668 C1676 0.929 . S
H1669 C1678 0.930 . S
H1670 C1680 0.930 . S
H1671 C1683 0.929 . S
H1672 C1686 0.930 . S
H1673 C1688 0.960 . S
H1674 C1688 0.960 . S
H1675 C1688 0.960 . S
C1676 H1668 0.929 . S
C1676 C1677 1.377 . S
C1676 C1678 1.384 . S
C1677 C1676 1.377 . S
C1677 C1683 1.390 . S
C1678 H1669 0.930 . S
C1678 C1676 1.384 . S
C1678 C1679 1.372 . S
C1679 C1678 1.372 . S
C1679 C1680 1.400 . S
C1679 C1684 1.490 . S
C1680 H1670 0.930 . S
C1680 C1679 1.400 . S
C1680 C1683 1.386 . S
H1681 C1697 0.930 . S
H1682 C1698 0.931 . S
C1683 H1671 0.929 . S
C1683 C1677 1.390 . S
C1683 C1680 1.386 . S
C1684 C1679 1.490 . S
C1684 C1686 1.395 . S
C1684 C1687 1.403 . S
H1685 C1691 0.930 . S
C1686 H1672 0.930 . S
C1686 C1684 1.395 . S
C1686 C1689 1.403 . S
C1687 C1684 1.403 . S
C1687 C1688 1.524 . S
C1687 C1691 1.400 . S
C1688 H1673 0.960 . S
C1688 H1674 0.960 . S
C1688 H1675 0.960 . S
C1688 C1687 1.524 . S
C1689 C1686 1.403 . S
C1689 C1690 1.392 . S
C1689 C1693 1.495 . S
C1690 C1689 1.392 . S
C1690 C1691 1.385 . S
C1690 C1692 1.478 . S
C1691 H1685 0.930 . S
C1691 C1687 1.400 . S
C1691 C1690 1.385 . S
C1692 C1690 1.478 . S
C1692 C1694 1.381 . S
C1692 C1698 1.383 . S
C1693 C1689 1.495 . S
C1693 H1699 0.959 . S
C1693 H1700 0.961 . S
C1693 H1701 0.960 . S
C1694 C1692 1.381 . S
C1694 C1695 1.394 . S
C1694 H1702 0.930 . S
C1695 C1694 1.394 . S
C1695 C1696 1.383 . S
C1695 H1703 0.929 . S
C1696 C1695 1.383 . S
C1696 C1697 1.377 . S
C1697 H1681 0.930 . S
C1697 C1696 1.377 . S
C1697 C1698 1.379 . S
C1698 H1682 0.931 . S
C1698 C1692 1.383 . S
C1698 C1697 1.379 . S
H1699 C1693 0.959 . S
H1700 C1693 0.961 . S
H1701 C1693 0.960 . S
H1702 C1694 0.930 . S
H1703 C1695 0.929 . S
H1704 C1712 0.929 . S
H1705 C1714 0.930 . S
H1706 C1716 0.930 . S
H1707 C1719 0.929 . S
H1708 C1722 0.930 . S
H1709 C1724 0.960 . S
H1710 C1724 0.960 . S
H1711 C1724 0.960 . S
C1712 H1704 0.929 . S
C1712 C1713 1.377 . S
C1712 C1714 1.384 . S
C1713 C1712 1.377 . S
C1713 C1719 1.390 . S
C1714 H1705 0.930 . S
C1714 C1712 1.384 . S
C1714 C1715 1.372 . S
C1715 C1714 1.372 . S
C1715 C1716 1.400 . S
C1715 C1720 1.490 . S
C1716 H1706 0.930 . S
C1716 C1715 1.400 . S
C1716 C1719 1.386 . S
H1717 C1733 0.930 . S
H1718 C1734 0.931 . S
C1719 H1707 0.929 . S
C1719 C1713 1.390 . S
C1719 C1716 1.386 . S
C1720 C1715 1.490 . S
C1720 C1722 1.395 1_455 S
C1720 C1723 1.403 . S
H1721 C1727 0.951 . S
C1722 H1708 0.930 . S
C1722 C1720 1.395 1_655 S
C1722 C1725 1.403 . S
C1723 C1720 1.403 . S
C1723 C1724 1.524 . S
C1723 C1727 1.462 . S
C1724 H1709 0.960 . S
C1724 H1710 0.960 . S
C1724 H1711 0.960 . S
C1724 C1723 1.524 . S
C1725 C1722 1.403 . S
C1725 C1726 1.392 . S
C1725 C1729 1.495 . S
C1726 C1725 1.392 . S
C1726 C1727 1.309 1_655 S
C1726 C1728 1.478 . S
C1727 H1721 0.951 . S
C1727 C1723 1.462 . S
C1727 C1726 1.309 1_455 S
C1728 C1726 1.478 . S
C1728 C1730 1.381 . S
C1728 C1734 1.383 . S
C1729 C1725 1.495 . S
C1729 H1735 0.959 . S
C1729 H1736 0.961 . S
C1729 H1737 0.960 . S
C1730 C1728 1.381 . S
C1730 C1731 1.394 . S
C1730 H1738 0.930 . S
C1731 C1730 1.394 . S
C1731 C1732 1.383 . S
C1731 H1739 0.929 . S
C1732 C1731 1.383 . S
C1732 C1733 1.377 . S
C1733 H1717 0.930 . S
C1733 C1732 1.377 . S
C1733 C1734 1.379 . S
C1734 H1718 0.931 . S
C1734 C1728 1.383 . S
C1734 C1733 1.379 . S
H1735 C1729 0.959 . S
H1736 C1729 0.961 . S
H1737 C1729 0.960 . S
H1738 C1730 0.930 . S
H1739 C1731 0.929 . S
H1740 C1748 0.929 . S
H1741 C1750 0.930 . S
H1742 C1752 0.930 . S
H1743 C1755 0.929 . S
H1744 C1758 0.930 . S
H1745 C1760 0.960 . S
H1746 C1760 0.960 . S
H1747 C1760 0.960 . S
C1748 H1740 0.929 . S
C1748 C1749 1.377 . S
C1748 C1750 1.384 . S
C1749 C1748 1.377 . S
C1749 C1755 1.390 . S
C1750 H1741 0.930 . S
C1750 C1748 1.384 . S
C1750 C1751 1.372 . S
C1751 C1750 1.372 . S
C1751 C1752 1.400 . S
C1751 C1756 1.490 1_556 S
C1752 H1742 0.930 . S
C1752 C1751 1.400 . S
C1752 C1755 1.386 . S
H1753 C1769 0.930 . S
H1754 C1770 0.931 . S
C1755 H1743 0.929 . S
C1755 C1749 1.390 . S
C1755 C1752 1.386 . S
C1756 C1751 1.490 1_554 S
C1756 C1758 1.395 . S
C1756 C1759 1.403 1_565 S
H1757 C1763 0.930 . S
C1758 H1744 0.930 . S
C1758 C1756 1.395 . S
C1758 C1761 1.403 . S
C1759 C1756 1.403 1_545 S
C1759 C1760 1.524 1_554 S
C1759 C1763 1.400 . S
C1760 H1745 0.960 . S
C1760 H1746 0.960 . S
C1760 H1747 0.960 . S
C1760 C1759 1.524 1_556 S
C1761 C1758 1.403 . S
C1761 C1762 1.392 1_565 S
C1761 C1765 1.495 . S
C1762 C1761 1.392 1_545 S
C1762 C1763 1.385 . S
C1762 C1764 1.478 . S
C1763 H1757 0.930 . S
C1763 C1759 1.400 . S
C1763 C1762 1.385 . S
C1764 C1762 1.478 . S
C1764 C1766 1.381 . S
C1764 C1770 1.383 . S
C1765 C1761 1.495 . S
C1765 H1771 0.959 . S
C1765 H1772 0.961 . S
C1765 H1773 0.960 . S
C1766 C1764 1.381 . S
C1766 C1767 1.394 . S
C1766 H1774 0.930 . S
C1767 C1766 1.394 . S
C1767 C1768 1.383 . S
C1767 H1775 0.929 . S
C1768 C1767 1.383 . S
C1768 C1769 1.377 . S
C1769 H1753 0.930 . S
C1769 C1768 1.377 . S
C1769 C1770 1.379 . S
C1770 H1754 0.931 . S
C1770 C1764 1.383 . S
C1770 C1769 1.379 . S
H1771 C1765 0.959 . S
H1772 C1765 0.961 . S
H1773 C1765 0.960 . S
H1774 C1766 0.930 . S
H1775 C1767 0.929 . S
H1776 C1784 0.929 . S
H1777 C1786 0.930 . S
H1778 C1788 0.930 . S
H1779 C1791 0.929 . S
H1780 C1794 0.930 . S
H1781 C1796 0.960 . S
H1782 C1796 0.960 . S
H1783 C1796 0.960 . S
C1784 H1776 0.929 . S
C1784 C1785 1.377 . S
C1784 C1786 1.384 . S
C1785 C1784 1.377 . S
C1785 C1791 1.390 . S
C1786 H1777 0.930 . S
C1786 C1784 1.384 . S
C1786 C1787 1.372 . S
C1787 C1786 1.372 . S
C1787 C1788 1.400 . S
C1787 C1792 1.490 . S
C1788 H1778 0.930 . S
C1788 C1787 1.400 . S
C1788 C1791 1.386 . S
H1789 C1805 0.930 . S
H1790 C1806 0.931 . S
C1791 H1779 0.929 . S
C1791 C1785 1.390 . S
C1791 C1788 1.386 . S
C1792 C1787 1.490 . S
C1792 C1794 1.395 . S
C1792 C1795 1.403 . S
H1793 C1799 0.930 . S
C1794 H1780 0.930 . S
C1794 C1792 1.395 . S
C1794 C1797 1.403 . S
C1795 C1792 1.403 . S
C1795 C1796 1.524 . S
C1795 C1799 1.400 . S
C1796 H1781 0.960 . S
C1796 H1782 0.960 . S
C1796 H1783 0.960 . S
C1796 C1795 1.524 . S
C1797 C1794 1.403 . S
C1797 C1798 1.392 . S
C1797 C1801 1.495 . S
C1798 C1797 1.392 . S
C1798 C1799 1.385 . S
C1798 C1800 1.478 . S
C1799 H1793 0.930 . S
C1799 C1795 1.400 . S
C1799 C1798 1.385 . S
C1800 C1798 1.478 . S
C1800 C1802 1.381 . S
C1800 C1806 1.383 . S
C1801 C1797 1.495 . S
C1801 H1807 0.959 . S
C1801 H1808 0.961 . S
C1801 H1809 0.960 . S
C1802 C1800 1.381 . S
C1802 C1803 1.394 . S
C1802 H1810 0.930 . S
C1803 C1802 1.394 . S
C1803 C1804 1.383 . S
C1803 H1811 0.929 . S
C1804 C1803 1.383 . S
C1804 C1805 1.377 . S
C1805 H1789 0.930 . S
C1805 C1804 1.377 . S
C1805 C1806 1.379 . S
C1806 H1790 0.931 . S
C1806 C1800 1.383 . S
C1806 C1805 1.379 . S
H1807 C1801 0.959 . S
H1808 C1801 0.961 . S
H1809 C1801 0.960 . S
H1810 C1802 0.930 . S
H1811 C1803 0.929 . S
H1812 C1820 0.929 . S
H1813 C1822 0.930 . S
H1814 C1824 0.930 . S
H1815 C1827 0.929 . S
H1816 C1830 0.930 . S
H1817 C1832 0.960 . S
H1818 C1832 0.960 . S
H1819 C1832 0.960 . S
C1820 H1812 0.929 . S
C1820 C1821 1.377 . S
C1820 C1822 1.384 . S
C1821 C1820 1.377 . S
C1821 C1827 1.390 . S
C1822 H1813 0.930 . S
C1822 C1820 1.384 . S
C1822 C1823 1.372 . S
C1823 C1822 1.372 . S
C1823 C1824 1.400 . S
C1823 C1828 1.490 . S
C1824 H1814 0.930 . S
C1824 C1823 1.400 . S
C1824 C1827 1.386 . S
H1825 C1841 0.930 . S
H1826 C1842 0.931 . S
C1827 H1815 0.929 . S
C1827 C1821 1.390 . S
C1827 C1824 1.386 . S
C1828 C1823 1.490 . S
C1828 C1830 1.395 . S
C1828 C1831 1.403 . S
H1829 C1835 0.930 . S
C1830 H1816 0.930 . S
C1830 C1828 1.395 . S
C1830 C1833 1.403 1_455 S
C1831 C1828 1.403 . S
C1831 C1832 1.524 . S
C1831 C1835 1.400 1_455 S
C1832 H1817 0.960 . S
C1832 H1818 0.960 . S
C1832 H1819 0.960 . S
C1832 C1831 1.524 . S
C1833 C1830 1.403 1_655 S
C1833 C1834 1.392 . S
C1833 C1837 1.495 . S
C1834 C1833 1.392 . S
C1834 C1835 1.385 . S
C1834 C1836 1.478 . S
C1835 H1829 0.930 . S
C1835 C1831 1.400 1_655 S
C1835 C1834 1.385 . S
C1836 C1834 1.478 . S
C1836 C1838 1.381 . S
C1836 C1842 1.383 . S
C1837 C1833 1.495 . S
C1837 H1843 0.959 . S
C1837 H1844 0.961 . S
C1837 H1845 0.960 . S
C1838 C1836 1.381 . S
C1838 C1839 1.394 . S
C1838 H1846 0.930 . S
C1839 C1838 1.394 . S
C1839 C1840 1.383 . S
C1839 H1847 0.929 . S
C1840 C1839 1.383 . S
C1840 C1841 1.377 . S
C1841 H1825 0.930 . S
C1841 C1840 1.377 . S
C1841 C1842 1.379 . S
C1842 H1826 0.931 . S
C1842 C1836 1.383 . S
C1842 C1841 1.379 . S
H1843 C1837 0.959 . S
H1844 C1837 0.961 . S
H1845 C1837 0.960 . S
H1846 C1838 0.930 . S
H1847 C1839 0.929 . S
H1848 C1856 0.929 . S
H1849 C1858 0.930 . S
H1850 C1860 0.930 . S
H1851 C1863 0.929 . S
H1852 C1866 0.930 . S
H1853 C1868 0.960 . S
H1854 C1868 0.960 . S
H1855 C1868 0.960 . S
C1856 H1848 0.929 . S
C1856 C1857 1.377 . S
C1856 C1858 1.384 . S
C1857 C1856 1.377 . S
C1857 C1863 1.390 . S
C1858 H1849 0.930 . S
C1858 C1856 1.384 . S
C1858 C1859 1.372 . S
C1859 C1858 1.372 . S
C1859 C1860 1.400 . S
C1859 C1864 1.490 . S
C1860 H1850 0.930 . S
C1860 C1859 1.400 . S
C1860 C1863 1.386 . S
H1861 C1877 0.930 . S
H1862 C1878 0.931 . S
C1863 H1851 0.929 . S
C1863 C1857 1.390 . S
C1863 C1860 1.386 . S
C1864 C1859 1.490 . S
C1864 C1866 1.395 1_545 S
C1864 C1867 1.403 . S
H1865 C1871 0.928 . S
C1866 H1852 0.930 . S
C1866 C1864 1.395 1_565 S
C1866 C1869 1.403 . S
C1867 C1864 1.403 . S
C1867 C1868 1.524 . S
C1867 C1871 1.409 . S
C1868 H1853 0.960 . S
C1868 H1854 0.960 . S
C1868 H1855 0.960 . S
C1868 C1867 1.524 . S
C1869 C1866 1.403 . S
C1869 C1870 1.392 . S
C1869 C1873 1.495 . S
C1870 C1869 1.392 . S
C1870 C1871 1.378 1_565 S
C1870 C1872 1.478 . S
C1871 H1865 0.928 . S
C1871 C1867 1.409 . S
C1871 C1870 1.378 1_545 S
C1872 C1870 1.478 . S
C1872 C1874 1.381 . S
C1872 C1878 1.383 . S
C1873 C1869 1.495 . S
C1873 H1879 0.959 . S
C1873 H1880 0.961 . S
C1873 H1881 0.960 . S
C1874 C1872 1.381 . S
C1874 C1875 1.394 . S
C1874 H1882 0.930 . S
C1875 C1874 1.394 . S
C1875 C1876 1.383 . S
C1875 H1883 0.929 . S
C1876 C1875 1.383 . S
C1876 C1877 1.377 . S
C1877 H1861 0.930 . S
C1877 C1876 1.377 . S
C1877 C1878 1.379 . S
C1878 H1862 0.931 . S
C1878 C1872 1.383 . S
C1878 C1877 1.379 . S
H1879 C1873 0.959 . S
H1880 C1873 0.961 . S
H1881 C1873 0.960 . S
H1882 C1874 0.930 . S
H1883 C1875 0.929 . S
H1884 C1892 0.929 . S
H1885 C1894 0.930 . S
H1886 C1896 0.930 . S
H1887 C1899 0.929 . S
H1888 C1902 0.930 . S
H1889 C1904 0.960 . S
H1890 C1904 0.960 . S
H1891 C1904 0.960 . S
C1892 H1884 0.929 . S
C1892 C1893 1.377 . S
C1892 C1894 1.384 . S
C1893 C1892 1.377 . S
C1893 C1899 1.390 . S
C1894 H1885 0.930 . S
C1894 C1892 1.384 . S
C1894 C1895 1.372 . S
C1895 C1894 1.372 . S
C1895 C1896 1.400 . S
C1895 C1900 1.490 . S
C1896 H1886 0.930 . S
C1896 C1895 1.400 . S
C1896 C1899 1.386 . S
H1897 C1913 0.930 . S
H1898 C1914 0.931 . S
C1899 H1887 0.929 . S
C1899 C1893 1.390 . S
C1899 C1896 1.386 . S
C1900 C1895 1.490 . S
C1900 C1902 1.395 . S
C1900 C1903 1.403 . S
H1901 C1907 0.930 . S
C1902 H1888 0.930 . S
C1902 C1900 1.395 . S
C1902 C1905 1.403 . S
C1903 C1900 1.403 . S
C1903 C1904 1.524 . S
C1903 C1907 1.400 . S
C1904 H1889 0.960 . S
C1904 H1890 0.960 . S
C1904 H1891 0.960 . S
C1904 C1903 1.524 . S
C1905 C1902 1.403 . S
C1905 C1906 1.392 . S
C1905 C1909 1.495 . S
C1906 C1905 1.392 . S
C1906 C1907 1.385 . S
C1906 C1908 1.478 . S
C1907 H1901 0.930 . S
C1907 C1903 1.400 . S
C1907 C1906 1.385 . S
C1908 C1906 1.478 . S
C1908 C1910 1.381 . S
C1908 C1914 1.383 . S
C1909 C1905 1.495 . S
C1909 H1915 0.959 . S
C1909 H1916 0.961 . S
C1909 H1917 0.960 . S
C1910 C1908 1.381 . S
C1910 C1911 1.394 . S
C1910 H1918 0.930 . S
C1911 C1910 1.394 . S
C1911 C1912 1.383 . S
C1911 H1919 0.929 . S
C1912 C1911 1.383 . S
C1912 C1913 1.377 . S
C1913 H1897 0.930 . S
C1913 C1912 1.377 . S
C1913 C1914 1.379 . S
C1914 H1898 0.931 . S
C1914 C1908 1.383 . S
C1914 C1913 1.379 . S
H1915 C1909 0.959 . S
H1916 C1909 0.961 . S
H1917 C1909 0.960 . S
H1918 C1910 0.930 . S
H1919 C1911 0.929 . S
C1065 C29 1.134 . S
C1084 C937 1.129 . S
C1101 C1017 1.131 . S
C1120 C117 1.117 . S
C1137 C196 1.134 . S
C1156 C577 1.152 . S
C1173 C293 1.133 . S
C1192 C673 1.125 . S
C1209 C372 1.127 . S
C1228 C761 1.103 . S
C1245 C849 1.128 . S
C1264 C469 1.107 . S
C1281 C20 1.653 . S
C1300 C753 1.655 . S
C1317 C108 1.653 . S
C1336 C841 1.646 . S
C1353 C929 1.653 . S
C1372 C205 1.654 . S
C1389 C284 1.654 . S
C1408 C1025 1.657 . S
C1425 C381 1.653 . S
C1444 C585 1.644 . S
C1461 C460 1.655 . S
C1480 C665 1.652 . S
C1497 C900 0.378 . S
C1516 C49 0.381 . S
C1533 C137 0.376 . S
C1552 C997 0.393 . S
C1569 C233 0.378 . S
C1588 C557 0.412 . S
C1605 C313 0.376 . S
C1624 C636 0.391 . S
C1641 C724 0.376 . S
C1660 C409 0.393 . S
C1677 C489 0.377 . S
C1696 C812 0.387 . S
C1713 C57 1.606 . S
C1732 C988 1.578 . S
C1749 C548 1.608 . S
C1768 C145 1.620 . S
C1785 C645 1.609 . S
C1804 C225 1.584 . S
C1821 C733 1.610 . S
C1840 C321 1.596 . S
C1857 C821 1.602 . S
C1876 C401 1.586 . S
C1893 C909 1.605 . S
C1912 C497 1.578 . S
