# Generated by pormake.
# Topology unp, (4)-cn, num edge types: 1
# Building blocks:
#     Node 0, Type 0, BuildingBlock: NAHDIM_clean_sbu_0, # of connection points: 4
#     Node 1, Type 0, BuildingBlock: NAHDIM_clean_sbu_0, # of connection points: 4
#     Node 2, Type 0, BuildingBlock: NAHDIM_clean_sbu_0, # of connection points: 4
#     Node 3, Type 0, BuildingBlock: NAHDIM_clean_sbu_0, # of connection points: 4
#     Node 4, Type 0, BuildingBlock: NAHDIM_clean_sbu_0, # of connection points: 4
#     Node 5, Type 0, BuildingBlock: NAHDIM_clean_sbu_0, # of connection points: 4
#     Node 6, Type 0, BuildingBlock: NAHDIM_clean_sbu_0, # of connection points: 4
#     Node 7, Type 0, BuildingBlock: NAHDIM_clean_sbu_0, # of connection points: 4
#     Node 8, Type 0, BuildingBlock: NAHDIM_clean_sbu_0, # of connection points: 4
#     Node 9, Type 0, BuildingBlock: NAHDIM_clean_sbu_0, # of connection points: 4
#     Node 10, Type 0, BuildingBlock: NAHDIM_clean_sbu_0, # of connection points: 4
#     Node 11, Type 0, BuildingBlock: NAHDIM_clean_sbu_0, # of connection points: 4
#     Node 12, Type 0, BuildingBlock: NAHDIM_clean_sbu_0, # of connection points: 4
#     Node 13, Type 0, BuildingBlock: NAHDIM_clean_sbu_0, # of connection points: 4
#     Node 14, Type 0, BuildingBlock: NAHDIM_clean_sbu_0, # of connection points: 4
#     Node 15, Type 0, BuildingBlock: NAHDIM_clean_sbu_0, # of connection points: 4
#     Node 16, Type 0, BuildingBlock: NAHDIM_clean_sbu_0, # of connection points: 4
#     Node 17, Type 0, BuildingBlock: NAHDIM_clean_sbu_0, # of connection points: 4
#     Edge 18, Type (0, 0), BuildingBlock: UVAHIK_clean_linker_0, # of connection points: 2
#     Edge 19, Type (0, 0), BuildingBlock: UVAHIK_clean_linker_0, # of connection points: 2
#     Edge 20, Type (0, 0), BuildingBlock: UVAHIK_clean_linker_0, # of connection points: 2
#     Edge 21, Type (0, 0), BuildingBlock: UVAHIK_clean_linker_0, # of connection points: 2
#     Edge 22, Type (0, 0), BuildingBlock: UVAHIK_clean_linker_0, # of connection points: 2
#     Edge 23, Type (0, 0), BuildingBlock: UVAHIK_clean_linker_0, # of connection points: 2
#     Edge 24, Type (0, 0), BuildingBlock: UVAHIK_clean_linker_0, # of connection points: 2
#     Edge 25, Type (0, 0), BuildingBlock: UVAHIK_clean_linker_0, # of connection points: 2
#     Edge 26, Type (0, 0), BuildingBlock: UVAHIK_clean_linker_0, # of connection points: 2
#     Edge 27, Type (0, 0), BuildingBlock: UVAHIK_clean_linker_0, # of connection points: 2
#     Edge 28, Type (0, 0), BuildingBlock: UVAHIK_clean_linker_0, # of connection points: 2
#     Edge 29, Type (0, 0), BuildingBlock: UVAHIK_clean_linker_0, # of connection points: 2
#     Edge 30, Type (0, 0), BuildingBlock: UVAHIK_clean_linker_0, # of connection points: 2
#     Edge 31, Type (0, 0), BuildingBlock: UVAHIK_clean_linker_0, # of connection points: 2
#     Edge 32, Type (0, 0), BuildingBlock: UVAHIK_clean_linker_0, # of connection points: 2
#     Edge 33, Type (0, 0), BuildingBlock: UVAHIK_clean_linker_0, # of connection points: 2
#     Edge 34, Type (0, 0), BuildingBlock: UVAHIK_clean_linker_0, # of connection points: 2
#     Edge 35, Type (0, 0), BuildingBlock: UVAHIK_clean_linker_0, # of connection points: 2
#     Edge 36, Type (0, 0), BuildingBlock: UVAHIK_clean_linker_0, # of connection points: 2
#     Edge 37, Type (0, 0), BuildingBlock: UVAHIK_clean_linker_0, # of connection points: 2
#     Edge 38, Type (0, 0), BuildingBlock: UVAHIK_clean_linker_0, # of connection points: 2
#     Edge 39, Type (0, 0), BuildingBlock: UVAHIK_clean_linker_0, # of connection points: 2
#     Edge 40, Type (0, 0), BuildingBlock: UVAHIK_clean_linker_0, # of connection points: 2
#     Edge 41, Type (0, 0), BuildingBlock: UVAHIK_clean_linker_0, # of connection points: 2
#     Edge 42, Type (0, 0), BuildingBlock: UVAHIK_clean_linker_0, # of connection points: 2
#     Edge 43, Type (0, 0), BuildingBlock: UVAHIK_clean_linker_0, # of connection points: 2
#     Edge 44, Type (0, 0), BuildingBlock: UVAHIK_clean_linker_0, # of connection points: 2
#     Edge 45, Type (0, 0), BuildingBlock: UVAHIK_clean_linker_0, # of connection points: 2
#     Edge 46, Type (0, 0), BuildingBlock: UVAHIK_clean_linker_0, # of connection points: 2
#     Edge 47, Type (0, 0), BuildingBlock: UVAHIK_clean_linker_0, # of connection points: 2
#     Edge 48, Type (0, 0), BuildingBlock: UVAHIK_clean_linker_0, # of connection points: 2
#     Edge 49, Type (0, 0), BuildingBlock: UVAHIK_clean_linker_0, # of connection points: 2
#     Edge 50, Type (0, 0), BuildingBlock: UVAHIK_clean_linker_0, # of connection points: 2
#     Edge 51, Type (0, 0), BuildingBlock: UVAHIK_clean_linker_0, # of connection points: 2
#     Edge 52, Type (0, 0), BuildingBlock: UVAHIK_clean_linker_0, # of connection points: 2
#     Edge 53, Type (0, 0), BuildingBlock: UVAHIK_clean_linker_0, # of connection points: 2
# Relax obj value: 0.396
# Max RMSD: 0.204
# Mean RMSD: 0.202
data_MOF--net-unp--node1-NAHDIM_clean_sbu_0--edge1-UVAHIK_clean_linker_0
_symmetry_space_group_name_H-M    P1
_symmetry_Int_Tables_number       1
_symmetry_cell_setting            triclinic
loop_
_symmetry_equiv_pos_as_xyz
'x, y, z'
_cell_length_a     59.413939
_cell_length_b     59.428481
_cell_length_c     80.35382
_cell_angle_alpha  90.160844
_cell_angle_beta   89.846163
_cell_angle_gamma 120.23553
loop_
_atom_site_label
_atom_site_type_symbol
_atom_site_fract_x
_atom_site_fract_y
_atom_site_fract_z
_atom_type_partial_charge
C0 C 0.21108 0.24403 0.12445 0.0
O1 O 0.21298 0.24177 0.10831 0.0
O2 O 0.15992 0.16428 0.12824 0.0
Zn3 Zn 0.16132 0.19694 0.12004 0.0
O4 O 0.16713 0.19859 0.09529 0.0
C5 C 0.11315 0.18095 0.13703 0.0
O6 O 0.12379 0.17273 0.14796 0.0
O7 O 0.19037 0.22765 0.13193 0.0
C8 C 0.15048 0.17922 0.08687 0.0
O9 O 0.13055 0.16009 0.09463 0.0
C10 C 0.1753 0.15699 0.12273 0.0
O11 O 0.19319 0.17157 0.11178 0.0
O12 O 0.12629 0.19339 0.12433 0.0
C13 C 0.75507 0.96966 0.11577 0.0
O14 O 0.75893 0.96973 0.09967 0.0
O15 O 0.8338 0.99633 0.12445 0.0
Zn16 Zn 0.80078 0.96467 0.11681 0.0
O17 O 0.80127 0.96533 0.0918 0.0
C18 C 0.81401 0.93364 0.13739 0.0
O19 O 0.8237 0.95455 0.14682 0.0
O20 O 0.77001 0.96666 0.12569 0.0
C21 C 0.82037 0.96634 0.08399 0.0
O22 O 0.83906 0.96596 0.09246 0.0
C23 C 0.84206 0.0183 0.1175 0.0
O24 O 0.82823 0.02047 0.10554 0.0
O25 O 0.80165 0.93279 0.12429 0.0
C26 C 0.02999 0.79167 0.12323 0.0
O27 O 0.0319 0.79435 0.10699 0.0
O28 O 0.99654 0.8401 0.13008 0.0
Zn29 Zn 0.02804 0.83926 0.12165 0.0
O30 O 0.02456 0.83531 0.09678 0.0
C31 C 0.0603 0.88632 0.13983 0.0
O32 O 0.04059 0.87559 0.15027 0.0
O33 O 0.02897 0.80895 0.13203 0.0
C34 C 0.02205 0.85209 0.0885 0.0
O35 O 0.02251 0.8717 0.09642 0.0
C36 C 0.97391 0.82429 0.12458 0.0
O37 O 0.97104 0.80654 0.11366 0.0
O38 O 0.05993 0.87368 0.12695 0.0
C39 C 0.24787 0.20603 0.87506 0.0
O40 O 0.24923 0.20347 0.8912 0.0
O41 O 0.16454 0.15738 0.87049 0.0
Zn42 Zn 0.19748 0.15925 0.8786 0.0
O43 O 0.19895 0.16473 0.90337 0.0
C44 C 0.18294 0.11205 0.8609 0.0
O45 O 0.17475 0.12291 0.85012 0.0
O46 O 0.22805 0.18901 0.86714 0.0
C47 C 0.17982 0.14791 0.91188 0.0
O48 O 0.16084 0.12772 0.90422 0.0
C49 C 0.15689 0.17231 0.8763 0.0
O50 O 0.17127 0.18996 0.88742 0.0
O51 O 0.19479 0.1247 0.87389 0.0
C52 C 0.78818 0.02461 0.87246 0.0
O53 O 0.78704 0.02025 0.88854 0.0
O54 O 0.83858 0.99569 0.86698 0.0
Zn55 Zn 0.83797 0.0273 0.87541 0.0
O56 O 0.83342 0.02343 0.90024 0.0
C57 C 0.88576 0.05918 0.85784 0.0
O58 O 0.87499 0.03972 0.84723 0.0
O59 O 0.80844 0.02897 0.86442 0.0
C60 C 0.84996 0.02013 0.90823 0.0
O61 O 0.86924 0.02034 0.90005 0.0
C62 C 0.82285 0.97309 0.87256 0.0
O63 O 0.80517 0.97026 0.88354 0.0
O64 O 0.87287 0.05886 0.87057 0.0
C65 C 0.9764 0.77113 0.85586 0.0
O66 O 0.98437 0.79216 0.84677 0.0
O67 O 0.99926 0.8344 0.8715 0.0
Zn68 Zn 0.96734 0.80185 0.8795 0.0
O69 O 0.96949 0.8017 0.90443 0.0
C70 C 0.93604 0.81626 0.86018 0.0
O71 O 0.95646 0.82567 0.85032 0.0
O72 O 0.96717 0.77033 0.87026 0.0
C73 C 0.97173 0.82133 0.91227 0.0
O74 O 0.97168 0.84021 0.90383 0.0
C75 C 0.0216 0.84159 0.87759 0.0
O76 O 0.02397 0.82702 0.88891 0.0
O77 O 0.93561 0.80382 0.87313 0.0
C78 C 0.86791 0.55391 0.48026 0.0
O79 O 0.85552 0.53205 0.48868 0.0
O80 O 0.83015 0.49052 0.46387 0.0
Zn81 Zn 0.83179 0.52278 0.45463 0.0
O82 O 0.84003 0.52377 0.43031 0.0
C83 C 0.78294 0.50802 0.47024 0.0
O84 O 0.79309 0.5005 0.48196 0.0
O85 O 0.86043 0.55481 0.46561 0.0
C86 C 0.8341 0.53521 0.41932 0.0
O87 O 0.82192 0.54759 0.4238 0.0
C88 C 0.84598 0.48341 0.45895 0.0
O89 O 0.86435 0.49807 0.44829 0.0
O90 O 0.79653 0.51938 0.45744 0.0
C91 C 0.42601 0.3158 0.45574 0.0
O92 O 0.43574 0.32593 0.44113 0.0
O93 O 0.49991 0.33486 0.46025 0.0
Zn94 Zn 0.46618 0.30347 0.45307 0.0
O95 O 0.46403 0.30531 0.42821 0.0
C96 C 0.4805 0.27157 0.47165 0.0
O97 O 0.49011 0.29182 0.48166 0.0
O98 O 0.4358 0.30434 0.46372 0.0
C99 C 0.48023 0.30372 0.41866 0.0
O100 O 0.4979 0.29926 0.42513 0.0
C101 C 0.50946 0.35649 0.45264 0.0
O102 O 0.49642 0.35885 0.44025 0.0
O103 O 0.46782 0.27138 0.45889 0.0
C104 C 0.67662 0.12767 0.47923 0.0
O105 O 0.66816 0.14128 0.48725 0.0
O106 O 0.65717 0.16922 0.46174 0.0
Zn107 Zn 0.68757 0.16585 0.45388 0.0
O108 O 0.68292 0.15896 0.42928 0.0
C109 C 0.72192 0.21218 0.47174 0.0
O110 O 0.70261 0.20168 0.48248 0.0
O111 O 0.68686 0.13525 0.46495 0.0
C112 C 0.70112 0.16858 0.41856 0.0
O113 O 0.72519 0.18419 0.42348 0.0
C114 C 0.63429 0.15417 0.4563 0.0
O115 O 0.63036 0.13564 0.44573 0.0
O116 O 0.72053 0.19969 0.45855 0.0
C117 C 0.90157 0.55258 0.20663 0.0
O118 O 0.89662 0.55496 0.22227 0.0
O119 O 0.82316 0.50145 0.20265 0.0
Zn120 Zn 0.85565 0.50233 0.21062 0.0
O121 O 0.85738 0.50853 0.23532 0.0
C122 C 0.83985 0.4547 0.19312 0.0
O123 O 0.83155 0.46565 0.18248 0.0
O124 O 0.8869 0.53135 0.19902 0.0
C125 C 0.86823 0.50097 0.24572 0.0
O126 O 0.87952 0.48813 0.2404 0.0
C127 C 0.81736 0.51821 0.20768 0.0
O128 O 0.83352 0.53699 0.21763 0.0
O129 O 0.85195 0.4673 0.20606 0.0
C130 C 0.44905 0.34772 0.20944 0.0
O131 O 0.44785 0.33532 0.22322 0.0
O132 O 0.49991 0.32552 0.20302 0.0
Zn133 Zn 0.50187 0.35888 0.21045 0.0
O134 O 0.50295 0.35905 0.23553 0.0
C135 C 0.54683 0.41129 0.20772 0.0
O136 O 0.53488 0.41711 0.21925 0.0
O137 O 0.4706 0.35991 0.20169 0.0
C138 C 0.49536 0.37054 0.24547 0.0
O139 O 0.48595 0.38469 0.23952 0.0
C140 C 0.4875 0.30472 0.21148 0.0
O141 O 0.47474 0.30478 0.22483 0.0
O142 O 0.53578 0.3883 0.20184 0.0
C143 C 0.63644 0.1048 0.18374 0.0
O144 O 0.63226 0.1203 0.17427 0.0
O145 O 0.66965 0.17301 0.20071 0.0
Zn146 Zn 0.64001 0.13991 0.21007 0.0
O147 O 0.64735 0.13999 0.23445 0.0
C148 C 0.60453 0.15274 0.19461 0.0
O149 O 0.62332 0.16276 0.1835 0.0
O150 O 0.63941 0.10908 0.1993 0.0
C151 C 0.63033 0.12699 0.24545 0.0
O152 O 0.60591 0.11202 0.24099 0.0
C153 C 0.69284 0.18133 0.20562 0.0
O154 O 0.69742 0.16734 0.21624 0.0
O155 O 0.60669 0.14067 0.20699 0.0
C156 C 0.54692 0.8952 0.79089 0.0
O157 O 0.54802 0.88389 0.7771 0.0
O158 O 0.49612 0.8219 0.79881 0.0
Zn159 Zn 0.49434 0.85272 0.79014 0.0
O160 O 0.49416 0.85032 0.76507 0.0
C161 C 0.44812 0.85821 0.79089 0.0
O162 O 0.45954 0.8747 0.77862 0.0
O163 O 0.52546 0.88566 0.79877 0.0
C164 C 0.50111 0.8688 0.75472 0.0
O165 O 0.50915 0.89252 0.76017 0.0
C166 C 0.51 0.81399 0.79167 0.0
O167 O 0.52431 0.82691 0.7788 0.0
O168 O 0.45998 0.84803 0.79791 0.0
C169 C 0.11034 0.64005 0.81388 0.0
O170 O 0.13235 0.64942 0.82212 0.0
O171 O 0.17235 0.66262 0.79611 0.0
Zn172 Zn 0.13939 0.63002 0.78938 0.0
O173 O 0.13706 0.63124 0.76452 0.0
C174 C 0.15608 0.60004 0.80812 0.0
O175 O 0.16598 0.6208 0.81769 0.0
O176 O 0.10839 0.62967 0.79972 0.0
C177 C 0.15577 0.63261 0.75602 0.0
O178 O 0.17492 0.63204 0.76378 0.0
C179 C 0.17794 0.68462 0.79014 0.0
O180 O 0.16142 0.68603 0.77996 0.0
O181 O 0.14252 0.59892 0.7956 0.0
C182 C 0.3563 0.4463 0.79253 0.0
O183 O 0.34608 0.44454 0.77777 0.0
O184 O 0.33449 0.49971 0.79877 0.0
Zn185 Zn 0.36558 0.49833 0.79003 0.0
O186 O 0.36183 0.49471 0.76515 0.0
C187 C 0.39877 0.54491 0.80842 0.0
O188 O 0.37943 0.53413 0.81913 0.0
O189 O 0.36653 0.46793 0.80024 0.0
C190 C 0.35947 0.51193 0.75728 0.0
O191 O 0.36059 0.53153 0.76561 0.0
C192 C 0.31181 0.48498 0.79293 0.0
O193 O 0.30847 0.46771 0.7815 0.0
O194 O 0.39777 0.53248 0.79528 0.0
C195 C 0.55324 0.85978 0.52147 0.0
O196 O 0.53095 0.84487 0.51393 0.0
O197 O 0.49362 0.81987 0.54089 0.0
Zn198 Zn 0.52763 0.82277 0.54757 0.0
O199 O 0.53147 0.82972 0.57216 0.0
C200 C 0.51283 0.77561 0.52992 0.0
O201 O 0.50375 0.78619 0.51957 0.0
O202 O 0.55694 0.85327 0.53581 0.0
C203 C 0.51662 0.81195 0.58225 0.0
O204 O 0.49989 0.78876 0.57641 0.0
C205 C 0.48649 0.83512 0.54688 0.0
O206 O 0.50183 0.85336 0.55741 0.0
O207 O 0.5255 0.7885 0.54263 0.0
C208 C 0.13044 0.69227 0.52416 0.0
O209 O 0.14363 0.6846 0.51493 0.0
O210 O 0.16815 0.66634 0.53955 0.0
Zn211 Zn 0.1684 0.69827 0.54829 0.0
O212 O 0.1647 0.69441 0.57311 0.0
C213 C 0.21578 0.72947 0.53018 0.0
O214 O 0.20457 0.70979 0.51976 0.0
O215 O 0.13816 0.70021 0.53887 0.0
C216 C 0.1811 0.69055 0.58082 0.0
O217 O 0.19986 0.6902 0.57234 0.0
C218 C 0.15207 0.64375 0.54498 0.0
O219 O 0.13455 0.6411 0.55602 0.0
O220 O 0.20323 0.72964 0.54298 0.0
C221 C 0.29372 0.43415 0.52385 0.0
O222 O 0.29567 0.45275 0.51408 0.0
O223 O 0.32519 0.49967 0.54125 0.0
Zn224 Zn 0.29272 0.4677 0.54928 0.0
O225 O 0.29531 0.46666 0.57414 0.0
C226 C 0.26268 0.48493 0.53104 0.0
O227 O 0.28342 0.49498 0.52144 0.0
O228 O 0.29123 0.43592 0.53943 0.0
C229 C 0.29846 0.48623 0.58249 0.0
O230 O 0.29895 0.50583 0.57463 0.0
C231 C 0.34741 0.50633 0.54733 0.0
O232 O 0.34933 0.49152 0.55869 0.0
O233 O 0.26159 0.47117 0.54344 0.0
C234 C 0.42394 0.35138 0.18562 0.0
C235 C 0.42506 0.34548 0.20241 0.0
C236 C 0.40031 0.34612 0.17854 0.0
C237 C 0.33006 0.30205 0.18485 0.0
H238 H 0.32349 0.34116 0.14851 0.0
C239 C 0.23259 0.26408 0.15157 0.0
C240 C 0.23402 0.263 0.13415 0.0
C241 C 0.25507 0.27913 0.16094 0.0
C242 C 0.32505 0.33007 0.15866 0.0
H243 H 0.40279 0.33133 0.22526 0.0
H244 H 0.36178 0.32281 0.21304 0.0
H245 H 0.36489 0.35884 0.16337 0.0
H246 H 0.2599 0.27828 0.11284 0.0
H247 H 0.29914 0.30429 0.12922 0.0
H248 H 0.29059 0.27304 0.17997 0.0
C249 C 0.37892 0.33072 0.20519 0.0
C250 C 0.34875 0.34015 0.16714 0.0
C251 C 0.40246 0.33571 0.21221 0.0
C252 C 0.25814 0.27858 0.12624 0.0
C253 C 0.28064 0.29363 0.13563 0.0
C254 C 0.30643 0.29207 0.17645 0.0
C255 C 0.37737 0.33509 0.18815 0.0
C256 C 0.35165 0.32603 0.18016 0.0
C257 C 0.27945 0.29342 0.15311 0.0
C258 C 0.30376 0.30574 0.16309 0.0
H259 H 0.44106 0.35895 0.17776 0.0
H260 H 0.39981 0.34953 0.16535 0.0
H261 H 0.33167 0.29034 0.19456 0.0
H262 H 0.21426 0.25254 0.15804 0.0
H263 H 0.25348 0.27894 0.17438 0.0
C264 C 0.73253 0.97797 0.13942 0.0
C265 C 0.73567 0.97616 0.12221 0.0
C266 C 0.71639 0.98702 0.14538 0.0
C267 C 0.69196 0.02981 0.13274 0.0
H268 H 0.64878 0.00334 0.17221 0.0
C269 C 0.63858 0.08027 0.15895 0.0
C270 C 0.64068 0.08447 0.17623 0.0
C271 C 0.64537 0.0631 0.15169 0.0
C272 C 0.66084 0.01101 0.16121 0.0
H273 H 0.72326 0.98116 0.09779 0.0
H274 H 0.69513 0.9969 0.10822 0.0
H275 H 0.6696 0.98015 0.16079 0.0
H276 H 0.65042 0.07303 0.19953 0.0
H277 H 0.6627 0.04356 0.18687 0.0
H278 H 0.6841 0.06113 0.13341 0.0
C279 C 0.70539 0.99161 0.11708 0.0
C280 C 0.67272 0.99772 0.15467 0.0
C281 C 0.72143 0.98248 0.11112 0.0
C282 C 0.64861 0.07029 0.18617 0.0
C283 C 0.6555 0.05322 0.17891 0.0
C284 C 0.68021 0.04314 0.1393 0.0
C285 C 0.70314 0.99453 0.13425 0.0
C286 C 0.68867 0.00717 0.14048 0.0
C287 C 0.6545 0.04984 0.16155 0.0
C288 C 0.6648 0.03413 0.15375 0.0
H289 H 0.74318 0.9732 0.14829 0.0
H290 H 0.7152 0.98924 0.15868 0.0
H291 H 0.70448 0.03784 0.12195 0.0
H292 H 0.63233 0.09073 0.15095 0.0
H293 H 0.64393 0.06059 0.1383 0.0
C294 C 0.92699 0.57343 0.18063 0.0
C295 C 0.92231 0.57524 0.1976 0.0
C296 C 0.94467 0.5956 0.17176 0.0
C297 C 0.99679 0.66512 0.17666 0.0
H298 H 0.97012 0.67352 0.13457 0.0
C299 C 0.0239 0.76445 0.14842 0.0
C300 C 0.02584 0.76734 0.13103 0.0
C301 C 0.01681 0.74045 0.15569 0.0
C302 C 0.97817 0.67133 0.14613 0.0
H303 H 0.93347 0.60148 0.21875 0.0
H304 H 0.96376 0.64008 0.20326 0.0
H305 H 0.9475 0.63191 0.14888 0.0
H306 H 0.02325 0.74771 0.10769 0.0
H307 H 0.01077 0.70578 0.12043 0.0
H308 H 0.0268 0.70507 0.17418 0.0
C309 C 0.95412 0.62155 0.1968 0.0
C310 C 0.9652 0.64743 0.15434 0.0
C311 C 0.93654 0.59941 0.20567 0.0
C312 C 0.02179 0.74609 0.12112 0.0
C313 C 0.01454 0.72204 0.1284 0.0
C314 C 0.00969 0.6891 0.16847 0.0
C315 C 0.95798 0.62004 0.17966 0.0
C316 C 0.97398 0.64422 0.16991 0.0
C317 C 0.01139 0.71883 0.14572 0.0
C318 C 0.00014 0.69261 0.15331 0.0
H319 H 0.9165 0.55504 0.17408 0.0
H320 H 0.9475 0.59369 0.15862 0.0
H321 H 0.00433 0.66315 0.18848 0.0
H322 H 0.02701 0.78047 0.15641 0.0
H323 H 0.01432 0.73854 0.16906 0.0
C324 C 0.36334 0.42413 0.81681 0.0
C325 C 0.3538 0.42283 0.80063 0.0
C326 C 0.35871 0.40147 0.82501 0.0
C327 C 0.33579 0.33107 0.8186 0.0
H328 H 0.30946 0.32437 0.8636 0.0
C329 C 0.26571 0.23289 0.84929 0.0
C330 C 0.26747 0.23001 0.86651 0.0
C331 C 0.28211 0.25666 0.84153 0.0
C332 C 0.31727 0.32605 0.85118 0.0
H333 H 0.33295 0.39686 0.78011 0.0
H334 H 0.32452 0.35742 0.79446 0.0
H335 H 0.32781 0.36604 0.84944 0.0
H336 H 0.28886 0.24939 0.88892 0.0
H337 H 0.31753 0.29091 0.87531 0.0
H338 H 0.3242 0.29068 0.82019 0.0
C339 C 0.33585 0.37592 0.80078 0.0
C340 C 0.32782 0.34998 0.84304 0.0
C341 C 0.34051 0.39855 0.79258 0.0
C342 C 0.28688 0.25101 0.87565 0.0
C343 C 0.30323 0.27483 0.86788 0.0
C344 C 0.32517 0.3071 0.82674 0.0
C345 C 0.34444 0.37704 0.81721 0.0
C346 C 0.33663 0.35262 0.82652 0.0
C347 C 0.3006 0.27808 0.85081 0.0
C348 C 0.31523 0.30418 0.84298 0.0
H349 H 0.37383 0.44257 0.82332 0.0
H350 H 0.36591 0.40302 0.83758 0.0
H351 H 0.34284 0.33259 0.80598 0.0
H352 H 0.25104 0.21707 0.84187 0.0
H353 H 0.27939 0.25858 0.82839 0.0
C354 C 0.74124 0.01245 0.87192 0.0
C355 C 0.76492 0.02106 0.86345 0.0
C356 C 0.71841 0.00558 0.8631 0.0
C357 C 0.69052 0.98004 0.82224 0.0
H358 H 0.63351 0.98875 0.8378 0.0
C359 C 0.59331 0.9303 0.78784 0.0
C360 C 0.57106 0.91699 0.7979 0.0
C361 C 0.61716 0.94852 0.79477 0.0
C362 C 0.64924 0.9861 0.83333 0.0
H363 H 0.78359 0.03105 0.83921 0.0
H364 H 0.74381 0.01925 0.82387 0.0
H365 H 0.67556 0.01135 0.85206 0.0
H366 H 0.55595 0.91336 0.82294 0.0
H367 H 0.59778 0.94465 0.83518 0.0
H368 H 0.66424 0.95408 0.80399 0.0
C369 C 0.7428 0.01735 0.83729 0.0
C370 C 0.67331 0.99907 0.84147 0.0
C371 C 0.76561 0.02419 0.8461 0.0
C372 C 0.5728 0.92331 0.81488 0.0
C373 C 0.59677 0.94136 0.82188 0.0
C374 C 0.66653 0.96704 0.81417 0.0
C375 C 0.71883 0.00721 0.84565 0.0
C376 C 0.69409 0.99589 0.83614 0.0
C377 C 0.61938 0.95361 0.81197 0.0
C378 C 0.64547 0.96961 0.81972 0.0
H379 H 0.74006 0.00993 0.8853 0.0
H380 H 0.70023 0.99767 0.8699 0.0
H381 H 0.70593 0.97672 0.81801 0.0
H382 H 0.59248 0.92613 0.77465 0.0
H383 H 0.63404 0.95808 0.78671 0.0
C384 C 0.09369 0.66064 0.83386 0.0
C385 C 0.08948 0.6447 0.81991 0.0
C386 C 0.0755 0.66791 0.8383 0.0
C387 C 0.03043 0.6747 0.84885 0.0
H388 H 0.00363 0.69608 0.81193 0.0
C389 C 0.97341 0.72795 0.86021 0.0
C390 C 0.98134 0.75022 0.85036 0.0
C391 C 0.98093 0.70981 0.85607 0.0
C392 C 0.01093 0.6902 0.82239 0.0
H393 H 0.06209 0.62252 0.80031 0.0
H394 H 0.03009 0.63481 0.80827 0.0
H395 H 0.02785 0.67386 0.80644 0.0
H396 H 0.00231 0.77027 0.828 0.0
H397 H 0.01584 0.73906 0.82097 0.0
H398 H 0.01496 0.69252 0.86475 0.0
C399 C 0.04775 0.6422 0.81554 0.0
C400 C 0.02454 0.67712 0.81925 0.0
C401 C 0.06603 0.63504 0.81104 0.0
C402 C 0.99587 0.75333 0.83586 0.0
C403 C 0.0035 0.73529 0.83177 0.0
C404 C 0.01696 0.68792 0.85198 0.0
C405 C 0.05258 0.65926 0.82897 0.0
C406 C 0.03503 0.66981 0.83243 0.0
C407 C 0.99662 0.71362 0.84202 0.0
C408 C 0.00763 0.69642 0.83876 0.0
H409 H 0.11155 0.66844 0.84096 0.0
H410 H 0.08006 0.68133 0.84858 0.0
H411 H 0.03788 0.66897 0.85931 0.0
H412 H 0.962 0.72486 0.87139 0.0
H413 H 0.97491 0.6931 0.86407 0.0
C414 C 0.90422 0.57271 0.50096 0.0
C415 C 0.89249 0.57591 0.48671 0.0
C416 C 0.92921 0.592 0.50568 0.0
C417 C 0.98895 0.6448 0.48687 0.0
H418 H 0.01332 0.65439 0.53244 0.0
C419 C 0.09048 0.69575 0.52839 0.0
C420 C 0.10495 0.68806 0.51845 0.0
C421 C 0.06493 0.68855 0.5241 0.0
C422 C 0.00689 0.65244 0.51965 0.0
H423 H 0.89695 0.60267 0.46696 0.0
H424 H 0.94034 0.63661 0.47544 0.0
H425 H 0.96681 0.63049 0.52683 0.0
H426 H 0.10446 0.66803 0.49572 0.0
H427 H 0.05991 0.65499 0.48846 0.0
H428 H 0.02903 0.66674 0.47969 0.0
C429 C 0.93053 0.61889 0.4827 0.0
C430 C 0.98017 0.63839 0.51643 0.0
C431 C 0.9056 0.59949 0.47789 0.0
C432 C 0.09385 0.67425 0.50367 0.0
C433 C 0.06828 0.66691 0.49944 0.0
C434 C 0.01565 0.65903 0.4901 0.0
C435 C 0.94296 0.61505 0.49636 0.0
C436 C 0.9709 0.63364 0.49997 0.0
C437 C 0.05327 0.67339 0.50982 0.0
C438 C 0.02499 0.66226 0.5065 0.0
H439 H 0.89466 0.55479 0.50803 0.0
H440 H 0.93823 0.58817 0.51615 0.0
H441 H 0.98259 0.64144 0.47403 0.0
H442 H 0.09858 0.70664 0.53978 0.0
H443 H 0.05409 0.69428 0.53221 0.0
C444 C 0.29913 0.39535 0.52789 0.0
C445 C 0.29787 0.41332 0.51714 0.0
C446 C 0.30648 0.37791 0.52187 0.0
C447 C 0.31723 0.35001 0.48329 0.0
H448 H 0.37307 0.35077 0.50864 0.0
C449 C 0.39439 0.33165 0.45379 0.0
C450 C 0.4051 0.31931 0.46306 0.0
C451 C 0.3762 0.33703 0.46094 0.0
C452 C 0.35711 0.3498 0.50156 0.0
H453 H 0.30184 0.42599 0.49147 0.0
H454 H 0.31483 0.39573 0.481 0.0
H455 H 0.34961 0.37096 0.52018 0.0
H456 H 0.40429 0.30191 0.48691 0.0
H457 H 0.37231 0.31126 0.49942 0.0
H458 H 0.32537 0.32959 0.46443 0.0
C459 C 0.31 0.395 0.49407 0.0
C460 C 0.34365 0.36141 0.50818 0.0
C461 C 0.30271 0.41248 0.50009 0.0
C462 C 0.39649 0.31157 0.47947 0.0
C463 C 0.37826 0.31701 0.48665 0.0
C464 C 0.33066 0.33835 0.47668 0.0
C465 C 0.31262 0.37799 0.50496 0.0
C466 C 0.32405 0.36227 0.49893 0.0
C467 C 0.36824 0.33019 0.47754 0.0
C468 C 0.35126 0.33878 0.48554 0.0
H469 H 0.29534 0.39535 0.54108 0.0
H470 H 0.30799 0.36478 0.53052 0.0
H471 H 0.30193 0.35 0.47599 0.0
H472 H 0.40052 0.3378 0.44109 0.0
H473 H 0.36919 0.34753 0.45363 0.0
C474 C 0.67955 0.08716 0.47693 0.0
C475 C 0.67059 0.10184 0.48547 0.0
C476 C 0.67073 0.0613 0.48139 0.0
C477 C 0.61293 0.00628 0.49868 0.0
H478 H 0.65451 0.97293 0.50227 0.0
C479 C 0.59493 0.90262 0.52329 0.0
C480 C 0.57161 0.88596 0.51485 0.0
C481 C 0.61007 0.92875 0.51864 0.0
C482 C 0.64274 0.98205 0.50127 0.0
H483 H 0.64665 0.10144 0.50605 0.0
H484 H 0.63115 0.05629 0.5137 0.0
H485 H 0.67605 0.02017 0.49773 0.0
H486 H 0.54693 0.8832 0.49415 0.0
H487 H 0.57329 0.92879 0.48615 0.0
H488 H 0.57967 0.96843 0.50212 0.0
C489 C 0.64483 0.06475 0.50349 0.0
C490 C 0.655 0.00897 0.49865 0.0
C491 C 0.6538 0.09063 0.49914 0.0
C492 C 0.56465 0.89553 0.50101 0.0
C493 C 0.57967 0.92166 0.49646 0.0
C494 C 0.60071 0.97945 0.50106 0.0
C495 C 0.65265 0.04965 0.49437 0.0
C496 C 0.64017 0.02131 0.49744 0.0
C497 C 0.60206 0.93869 0.50555 0.0
C498 C 0.61545 0.96706 0.5024 0.0
H499 H 0.69262 0.0953 0.4664 0.0
H500 H 0.67701 0.05005 0.47413 0.0
H501 H 0.601 0.01524 0.49758 0.0
H502 H 0.6009 0.89579 0.53395 0.0
H503 H 0.62723 0.94149 0.52587 0.0
C504 C 0.0733 0.18019 0.12607 0.0
C505 C 0.08503 0.17216 0.13802 0.0
C506 C 0.04622 0.16888 0.12552 0.0
C507 C 0.98475 0.12531 0.14861 0.0
H508 H 0.9562 0.10472 0.10418 0.0
C509 C 0.8824 0.03839 0.13499 0.0
C510 C 0.86799 0.0405 0.12185 0.0
C511 C 0.90778 0.05844 0.1382 0.0
C512 C 0.96378 0.1107 0.11666 0.0
H513 H 0.07759 0.14705 0.15936 0.0
H514 H 0.03049 0.127 0.15818 0.0
H515 H 0.00283 0.13329 0.10774 0.0
H516 H 0.86857 0.06576 0.10221 0.0
H517 H 0.91296 0.10074 0.10781 0.0
H518 H 0.94562 0.10167 0.15748 0.0
C519 C 0.04213 0.14225 0.14935 0.0
C520 C 0.99056 0.12716 0.11871 0.0
C521 C 0.0692 0.15367 0.14997 0.0
C522 C 0.87918 0.06347 0.11237 0.0
C523 C 0.90464 0.08347 0.11553 0.0
C524 C 0.95794 0.10869 0.14655 0.0
C525 C 0.03026 0.14919 0.13684 0.0
C526 C 0.00146 0.1343 0.13472 0.0
C527 C 0.91935 0.08098 0.12831 0.0
C528 C 0.94725 0.10084 0.13055 0.0
H529 H 0.08496 0.19458 0.11678 0.0
H530 H 0.03775 0.17508 0.11593 0.0
H531 H 0.99243 0.13075 0.1611 0.0
H532 H 0.87433 0.02097 0.14255 0.0
H533 H 0.9187 0.05581 0.14802 0.0
C534 C 0.84074 0.91807 0.15202 0.0
C535 C 0.82158 0.91373 0.14019 0.0
C536 C 0.85136 0.9018 0.1527 0.0
C537 C 0.86271 0.8594 0.1248 0.0
H538 H 0.89259 0.84788 0.16445 0.0
C539 C 0.92755 0.81323 0.12099 0.0
C540 C 0.95157 0.82752 0.12921 0.0
C541 C 0.90733 0.81824 0.12414 0.0
C542 C 0.8843 0.85091 0.15328 0.0
H543 H 0.79695 0.88758 0.12075 0.0
H544 H 0.81501 0.85879 0.12222 0.0
H545 H 0.86363 0.86576 0.16703 0.0
H546 H 0.97274 0.85736 0.14781 0.0
H547 H 0.93751 0.86612 0.15326 0.0
H548 H 0.8838 0.84513 0.11103 0.0
C549 C 0.8224 0.87524 0.13065 0.0
C550 C 0.86775 0.86119 0.15474 0.0
C551 C 0.81191 0.89165 0.12988 0.0
C552 C 0.95452 0.84607 0.14121 0.0
C553 C 0.93425 0.85096 0.14443 0.0
C554 C 0.87908 0.84898 0.12336 0.0
C555 C 0.84291 0.88066 0.14166 0.0
C556 C 0.85728 0.86618 0.14048 0.0
C557 C 0.91064 0.83751 0.13567 0.0
C558 C 0.89056 0.84522 0.13754 0.0
H559 H 0.8486 0.93488 0.16018 0.0
H560 H 0.86726 0.90676 0.16125 0.0
H561 H 0.85543 0.86337 0.11351 0.0
H562 H 0.92459 0.79872 0.11172 0.0
H563 H 0.88925 0.80738 0.11732 0.0
C564 C 0.18467 0.1206 0.11898 0.0
C565 C 0.17142 0.13122 0.12745 0.0
C566 C 0.17897 0.09518 0.12228 0.0
C567 C 0.14668 0.04071 0.15227 0.0
H568 H 0.13026 0.99725 0.11297 0.0
C569 C 0.07727 0.92986 0.15336 0.0
C570 C 0.08042 0.91413 0.14159 0.0
C571 C 0.09391 0.95684 0.15334 0.0
C572 C 0.13532 0.00909 0.12412 0.0
H573 H 0.14278 0.12396 0.14664 0.0
H574 H 0.13288 0.07967 0.15238 0.0
H575 H 0.1497 0.04405 0.1099 0.0
H576 H 0.10474 0.91414 0.1214 0.0
H577 H 0.13419 0.96115 0.12165 0.0
H578 H 0.13178 0.00564 0.16649 0.0
C579 C 0.14771 0.091 0.14322 0.0
C580 C 0.14644 0.03598 0.12233 0.0
C581 C 0.15325 0.11632 0.13984 0.0
C582 C 0.10161 0.92576 0.13052 0.0
C583 C 0.1184 0.95273 0.13059 0.0
C584 C 0.13572 0.01379 0.15407 0.0
C585 C 0.16009 0.07995 0.13423 0.0
C586 C 0.15165 0.052 0.13636 0.0
C587 C 0.11425 0.9687 0.14165 0.0
C588 C 0.12929 0.99756 0.13999 0.0
H589 H 0.19884 0.13161 0.10941 0.0
H590 H 0.18899 0.08725 0.11527 0.0
H591 H 0.15082 0.05264 0.16331 0.0
H592 H 0.06116 0.92154 0.16208 0.0
H593 H 0.08991 0.96846 0.16194 0.0
C594 C 0.04184 0.88221 0.86039 0.0
C595 C 0.04408 0.86725 0.8731 0.0
C596 C 0.06216 0.90746 0.85721 0.0
C597 C 0.11534 0.96227 0.87883 0.0
H598 H 0.13426 0.99249 0.83472 0.0
C599 C 0.18327 0.07229 0.87089 0.0
C600 C 0.17476 0.08414 0.85936 0.0
C601 C 0.17252 0.04526 0.87094 0.0
C602 C 0.12915 0.98437 0.84713 0.0
H603 H 0.06987 0.86666 0.89195 0.0
H604 H 0.1053 0.91087 0.88643 0.0
H605 H 0.10529 0.94556 0.83778 0.0
H606 H 0.14939 0.07704 0.83821 0.0
H607 H 0.13022 0.03005 0.83855 0.0
H608 H 0.138 0.00097 0.88826 0.0
C609 C 0.08774 0.90306 0.87901 0.0
C610 C 0.11261 0.9575 0.84886 0.0
C611 C 0.06748 0.87772 0.88212 0.0
C612 C 0.15637 0.06855 0.84729 0.0
C613 C 0.14547 0.04153 0.84742 0.0
C614 C 0.13169 0.98912 0.87711 0.0
C615 C 0.0851 0.91836 0.86672 0.0
C616 C 0.10512 0.94625 0.86474 0.0
C617 C 0.15287 0.02947 0.85955 0.0
C618 C 0.13837 0.0006 0.86123 0.0
H619 H 0.02411 0.87468 0.85317 0.0
H620 H 0.05944 0.91885 0.84777 0.0
H621 H 0.10965 0.95424 0.89124 0.0
H622 H 0.19762 0.08379 0.88025 0.0
H623 H 0.17908 0.03668 0.88023 0.0
C624 C 0.12013 0.18102 0.8804 0.0
C625 C 0.13098 0.16819 0.87169 0.0
C626 C 0.09466 0.17521 0.87713 0.0
C627 C 0.04062 0.1438 0.8468 0.0
H628 H 0.99658 0.12648 0.88587 0.0
C629 C 0.92952 0.07569 0.84472 0.0
C630 C 0.91377 0.07888 0.85645 0.0
C631 C 0.95656 0.09188 0.84502 0.0
C632 C 0.0086 0.13178 0.8748 0.0
H633 H 0.12404 0.14011 0.85218 0.0
H634 H 0.07965 0.13001 0.84649 0.0
H635 H 0.04332 0.14548 0.88919 0.0
H636 H 0.91389 0.1028 0.87693 0.0
H637 H 0.96103 0.13146 0.8772 0.0
H638 H 0.0058 0.12964 0.83239 0.0
C639 C 0.09085 0.14461 0.85581 0.0
C640 C 0.03544 0.14264 0.87672 0.0
C641 C 0.11623 0.15027 0.85916 0.0
C642 C 0.92551 0.09965 0.86783 0.0
C643 C 0.95256 0.11598 0.86805 0.0
C644 C 0.01376 0.1331 0.84486 0.0
C645 C 0.0796 0.15663 0.86499 0.0
C646 C 0.05167 0.14821 0.86276 0.0
C647 C 0.96848 0.11179 0.85699 0.0
C648 C 0.99733 0.12638 0.85885 0.0
H649 H 0.13101 0.195 0.8901 0.0
H650 H 0.08657 0.18495 0.88429 0.0
H651 H 0.05272 0.14823 0.8358 0.0
H652 H 0.92112 0.05989 0.83578 0.0
H653 H 0.96816 0.08785 0.83641 0.0
C654 C 0.91968 0.84252 0.84582 0.0
C655 C 0.916 0.82378 0.8578 0.0
C656 C 0.90312 0.85281 0.84528 0.0
C657 C 0.86095 0.86419 0.8734 0.0
H658 H 0.84702 0.89159 0.83345 0.0
C659 C 0.81261 0.92709 0.87667 0.0
C660 C 0.82631 0.95085 0.86809 0.0
C661 C 0.81803 0.9071 0.87373 0.0
C662 C 0.85072 0.88398 0.8447 0.0
H663 H 0.89085 0.79967 0.87777 0.0
H664 H 0.86157 0.81718 0.87657 0.0
H665 H 0.86582 0.86341 0.83112 0.0
H666 H 0.85545 0.97173 0.84906 0.0
H667 H 0.86489 0.93689 0.84395 0.0
H668 H 0.8464 0.8852 0.88699 0.0
C669 C 0.87769 0.82446 0.86788 0.0
C670 C 0.86153 0.86789 0.84339 0.0
C671 C 0.89438 0.8143 0.8685 0.0
C672 C 0.84462 0.95371 0.85593 0.0
C673 C 0.84991 0.93367 0.85291 0.0
C674 C 0.84998 0.8801 0.8747 0.0
C675 C 0.88236 0.84446 0.85663 0.0
C676 C 0.8674 0.85834 0.85775 0.0
C677 C 0.8371 0.91038 0.86205 0.0
C678 C 0.84534 0.89069 0.8604 0.0
H679 H 0.93612 0.85023 0.83736 0.0
H680 H 0.90751 0.86834 0.83655 0.0
H681 H 0.86557 0.85761 0.88475 0.0
H682 H 0.79831 0.92422 0.88607 0.0
H683 H 0.80768 0.88926 0.88084 0.0
C684 C 0.74388 0.50771 0.45822 0.0
C685 C 0.75499 0.50005 0.47081 0.0
C686 C 0.71693 0.49744 0.45759 0.0
C687 C 0.65523 0.45859 0.48158 0.0
H688 H 0.62533 0.43557 0.43767 0.0
C689 C 0.5499 0.37549 0.47002 0.0
C690 C 0.53607 0.37781 0.4566 0.0
C691 C 0.57589 0.39446 0.47281 0.0
C692 C 0.63333 0.44226 0.44999 0.0
H693 H 0.74664 0.4766 0.49309 0.0
H694 H 0.69975 0.4583 0.4918 0.0
H695 H 0.67232 0.46195 0.4407 0.0
H696 H 0.53838 0.40242 0.436 0.0
H697 H 0.58379 0.43548 0.44087 0.0
H698 H 0.61607 0.43785 0.49086 0.0
C699 C 0.71178 0.47251 0.48252 0.0
C700 C 0.66032 0.45746 0.45174 0.0
C701 C 0.73872 0.48291 0.48321 0.0
C702 C 0.5485 0.39998 0.44641 0.0
C703 C 0.57455 0.41888 0.44914 0.0
C704 C 0.6282 0.44322 0.47983 0.0
C705 C 0.70048 0.47916 0.46948 0.0
C706 C 0.67166 0.46546 0.46758 0.0
C707 C 0.58864 0.41608 0.4622 0.0
C708 C 0.617 0.43455 0.46403 0.0
H709 H 0.75591 0.52108 0.44855 0.0
H710 H 0.70894 0.50338 0.44756 0.0
H711 H 0.66327 0.46477 0.49394 0.0
H712 H 0.54088 0.35867 0.47813 0.0
H713 H 0.5863 0.39162 0.48288 0.0
C714 C 0.47847 0.23012 0.46272 0.0
C715 C 0.48812 0.25153 0.47361 0.0
C716 C 0.48869 0.21345 0.46293 0.0
C717 C 0.53251 0.19686 0.48662 0.0
H718 H 0.54848 0.18167 0.44264 0.0
C719 C 0.61664 0.17766 0.47285 0.0
C720 C 0.61286 0.15893 0.46076 0.0
C721 C 0.59724 0.18383 0.47603 0.0
C722 C 0.54378 0.1853 0.45502 0.0
H723 H 0.51499 0.27133 0.49392 0.0
H724 H 0.53319 0.24279 0.49402 0.0
H725 H 0.52136 0.20132 0.44546 0.0
H726 H 0.58531 0.13123 0.44301 0.0
H727 H 0.5515 0.14217 0.44852 0.0
H728 H 0.55608 0.18188 0.49606 0.0
C729 C 0.51748 0.23852 0.48547 0.0
C730 C 0.52814 0.19653 0.45666 0.0
C731 C 0.50713 0.25504 0.48534 0.0
C732 C 0.58889 0.14583 0.45235 0.0
C733 C 0.56955 0.15215 0.45545 0.0
C734 C 0.54833 0.1858 0.48496 0.0
C735 C 0.50891 0.21795 0.47395 0.0
C736 C 0.52272 0.20294 0.47246 0.0
C737 C 0.5737 0.17151 0.46713 0.0
C738 C 0.55453 0.18037 0.46912 0.0
H739 H 0.46365 0.22672 0.45364 0.0
H740 H 0.48124 0.19747 0.45413 0.0
H741 H 0.52836 0.20111 0.49899 0.0
H742 H 0.63485 0.18804 0.47959 0.0
H743 H 0.60112 0.19902 0.48498 0.0
C744 C 0.82318 0.44252 0.47581 0.0
C745 C 0.84177 0.45752 0.46365 0.0
C746 C 0.81695 0.41689 0.47886 0.0
C747 C 0.81385 0.36203 0.45686 0.0
H748 H 0.79773 0.3294 0.50033 0.0
C749 C 0.76394 0.25091 0.46255 0.0
C750 C 0.74291 0.2396 0.47375 0.0
C751 C 0.78176 0.27766 0.46308 0.0
C752 C 0.80205 0.33818 0.48809 0.0
H753 H 0.86936 0.45782 0.44578 0.0
H754 H 0.85826 0.41293 0.45103 0.0
H755 H 0.81855 0.37673 0.4982 0.0
H756 H 0.72491 0.24726 0.49487 0.0
H757 H 0.75536 0.2938 0.49549 0.0
H758 H 0.79618 0.3237 0.44664 0.0
C759 C 0.84846 0.42103 0.45813 0.0
C760 C 0.81406 0.36528 0.48689 0.0
C761 C 0.85487 0.44675 0.45517 0.0
C762 C 0.74088 0.25534 0.48604 0.0
C763 C 0.75851 0.2821 0.48647 0.0
C764 C 0.80164 0.33496 0.45804 0.0
C765 C 0.82904 0.40567 0.46975 0.0
C766 C 0.81958 0.37742 0.47125 0.0
C767 C 0.77879 0.29373 0.47472 0.0
C768 C 0.79503 0.32262 0.47366 0.0
H769 H 0.81283 0.4503 0.48261 0.0
H770 H 0.80175 0.40547 0.48779 0.0
H771 H 0.81754 0.37079 0.44462 0.0
H772 H 0.76621 0.23924 0.45304 0.0
H773 H 0.79746 0.28585 0.45407 0.0
C774 C 0.70912 0.22244 0.18922 0.0
C775 C 0.71376 0.2078 0.20099 0.0
C776 C 0.7278 0.24846 0.18624 0.0
C777 C 0.77957 0.30419 0.20794 0.0
H778 H 0.79438 0.33715 0.16458 0.0
C779 C 0.84186 0.41539 0.20211 0.0
C780 C 0.83216 0.42697 0.19123 0.0
C781 C 0.83217 0.38854 0.20159 0.0
C782 C 0.79036 0.32827 0.17679 0.0
H783 H 0.74215 0.20862 0.21829 0.0
H784 H 0.77467 0.25413 0.21315 0.0
H785 H 0.76826 0.28975 0.16664 0.0
H786 H 0.80555 0.41962 0.17078 0.0
H787 H 0.78817 0.37288 0.17018 0.0
H788 H 0.80042 0.34249 0.21823 0.0
C789 C 0.75651 0.24547 0.2063 0.0
C790 C 0.77547 0.30113 0.17794 0.0
C791 C 0.73792 0.21939 0.20919 0.0
C792 C 0.81346 0.41133 0.17933 0.0
C793 C 0.8036 0.38446 0.17892 0.0
C794 C 0.79422 0.33129 0.20681 0.0
C795 C 0.75142 0.26042 0.19505 0.0
C796 C 0.76957 0.28886 0.19355 0.0
C797 C 0.81239 0.37263 0.1903 0.0
C798 C 0.79942 0.34373 0.19124 0.0
H799 H 0.69073 0.21406 0.18265 0.0
H800 H 0.72323 0.25954 0.1776 0.0
H801 H 0.77502 0.29532 0.22016 0.0
H802 H 0.85647 0.42696 0.21132 0.0
H803 H 0.83979 0.38017 0.2103 0.0
C804 C 0.77416 0.49461 0.19331 0.0
C805 C 0.79152 0.51489 0.20381 0.0
C806 C 0.74877 0.48966 0.19106 0.0
C807 C 0.69893 0.4966 0.21327 0.0
H808 H 0.66078 0.47134 0.17188 0.0
C809 C 0.58812 0.45407 0.21156 0.0
C810 C 0.57436 0.42987 0.20343 0.0
C811 C 0.61502 0.46987 0.20929 0.0
C812 C 0.67116 0.47835 0.18354 0.0
H813 H 0.7962 0.54671 0.21954 0.0
H814 H 0.7518 0.53804 0.21559 0.0
H815 H 0.70789 0.48933 0.17211 0.0
H816 H 0.57778 0.40409 0.18574 0.0
H817 H 0.62452 0.43133 0.18201 0.0
H818 H 0.66223 0.48467 0.22487 0.0
C819 C 0.75781 0.52582 0.20923 0.0
C820 C 0.69813 0.48866 0.18366 0.0
C821 C 0.78327 0.53084 0.21144 0.0
C822 C 0.58778 0.42256 0.19225 0.0
C823 C 0.61463 0.43831 0.19001 0.0
C824 C 0.67198 0.48623 0.21316 0.0
C825 C 0.74012 0.50484 0.19929 0.0
C826 C 0.71221 0.49731 0.19861 0.0
C827 C 0.6287 0.46182 0.19886 0.0
C828 C 0.65767 0.47637 0.19838 0.0
H829 H 0.77991 0.482 0.18721 0.0
H830 H 0.73556 0.47318 0.18346 0.0
H831 H 0.70913 0.50278 0.22504 0.0
H832 H 0.57834 0.46039 0.22016 0.0
H833 H 0.62522 0.48808 0.21608 0.0
C834 C 0.5043 0.28187 0.19348 0.0
C835 C 0.48997 0.28173 0.20746 0.0
C836 C 0.50927 0.26154 0.19078 0.0
C837 C 0.51764 0.21409 0.21452 0.0
H838 H 0.52266 0.18889 0.1709 0.0
C839 C 0.56448 0.15058 0.2067 0.0
C840 C 0.58324 0.1588 0.19397 0.0
C841 C 0.54676 0.15953 0.20728 0.0
C842 C 0.52138 0.19575 0.18317 0.0
H843 H 0.46834 0.25937 0.22906 0.0
H844 H 0.47706 0.2239 0.22433 0.0
H845 H 0.50288 0.21614 0.17379 0.0
H846 H 0.59699 0.18152 0.17128 0.0
H847 H 0.56658 0.19744 0.17246 0.0
H848 H 0.53716 0.19486 0.22386 0.0
C849 C 0.48468 0.2399 0.21556 0.0
C850 C 0.51003 0.21132 0.18481 0.0
C851 C 0.47962 0.26019 0.21823 0.0
C852 C 0.58288 0.17488 0.18131 0.0
C853 C 0.56526 0.18388 0.18192 0.0
C854 C 0.52909 0.19865 0.21287 0.0
C855 C 0.50007 0.24065 0.20203 0.0
C856 C 0.50862 0.22118 0.20046 0.0
C857 C 0.54746 0.17691 0.19516 0.0
C858 C 0.5317 0.18984 0.19712 0.0
H859 H 0.51247 0.29813 0.1849 0.0
H860 H 0.5214 0.26283 0.18032 0.0
H861 H 0.51717 0.22164 0.22672 0.0
H862 H 0.56408 0.13801 0.21657 0.0
H863 H 0.533 0.15341 0.2175 0.0
C864 C 0.22126 0.70633 0.80443 0.0
C865 C 0.20372 0.70782 0.79341 0.0
C866 C 0.24647 0.72746 0.80639 0.0
C867 C 0.29588 0.78349 0.7832 0.0
H868 H 0.33295 0.80145 0.82521 0.0
C869 C 0.40579 0.85668 0.78551 0.0
C870 C 0.42026 0.84823 0.79468 0.0
C871 C 0.37872 0.84435 0.78733 0.0
C872 C 0.32289 0.79665 0.81338 0.0
H873 H 0.19858 0.73308 0.77632 0.0
H874 H 0.24265 0.76998 0.77975 0.0
H875 H 0.28616 0.77046 0.82473 0.0
H876 H 0.41782 0.8213 0.81376 0.0
H877 H 0.3708 0.79962 0.81673 0.0
H878 H 0.33261 0.80872 0.77172 0.0
C879 C 0.23692 0.75235 0.78676 0.0
C880 C 0.2961 0.77891 0.81311 0.0
C881 C 0.21164 0.73125 0.78486 0.0
C882 C 0.40728 0.82825 0.80644 0.0
C883 C 0.38026 0.8159 0.80823 0.0
C884 C 0.32266 0.80112 0.78345 0.0
C885 C 0.25475 0.75053 0.79733 0.0
C886 C 0.28242 0.77171 0.79797 0.0
C887 C 0.36556 0.8233 0.79836 0.0
C888 C 0.33661 0.80747 0.79849 0.0
H889 H 0.21576 0.68858 0.81124 0.0
H890 H 0.25981 0.72532 0.81449 0.0
H891 H 0.28599 0.7781 0.7713 0.0
H892 H 0.4152 0.87216 0.77644 0.0
H893 H 0.36802 0.85083 0.77975 0.0
C894 C 0.2937 0.50768 0.80987 0.0
C895 C 0.2901 0.48917 0.79766 0.0
C896 C 0.27415 0.5136 0.81314 0.0
C897 C 0.22026 0.51447 0.79213 0.0
H898 H 0.20552 0.53126 0.83601 0.0
C899 C 0.15427 0.55849 0.79973 0.0
C900 C 0.16412 0.58035 0.81025 0.0
C901 C 0.16473 0.54205 0.80008 0.0
C902 C 0.20947 0.52671 0.82367 0.0
H903 H 0.26266 0.46148 0.77986 0.0
H904 H 0.22854 0.47188 0.78558 0.0
H905 H 0.23334 0.51211 0.83316 0.0
H906 H 0.19163 0.60119 0.83008 0.0
H907 H 0.21021 0.57295 0.83044 0.0
H908 H 0.19746 0.53002 0.78251 0.0
C909 C 0.2466 0.48195 0.79251 0.0
C910 C 0.22536 0.51571 0.82205 0.0
C911 C 0.26611 0.47594 0.78929 0.0
C912 C 0.18361 0.58454 0.82178 0.0
C913 C 0.19418 0.56821 0.82206 0.0
C914 C 0.20451 0.52558 0.79373 0.0
C915 C 0.25061 0.50121 0.80424 0.0
C916 C 0.23133 0.50995 0.80623 0.0
C917 C 0.18538 0.54718 0.81089 0.0
C918 C 0.19933 0.53233 0.80949 0.0
H919 H 0.31193 0.51818 0.81658 0.0
H920 H 0.27794 0.52871 0.82214 0.0
H921 H 0.22479 0.51061 0.77975 0.0
H922 H 0.13908 0.55456 0.79081 0.0
H923 H 0.15712 0.52571 0.79154 0.0
C924 C 0.49139 0.77442 0.80984 0.0
C925 C 0.50768 0.78892 0.79657 0.0
C926 C 0.48672 0.74937 0.8132 0.0
C927 C 0.48386 0.6943 0.79119 0.0
H928 H 0.47253 0.66402 0.83526 0.0
C929 C 0.43985 0.58426 0.79879 0.0
C930 C 0.41917 0.5726 0.81023 0.0
C931 C 0.45677 0.6112 0.79892 0.0
C932 C 0.47558 0.67218 0.82287 0.0
H933 H 0.53309 0.7891 0.77706 0.0
H934 H 0.52492 0.74536 0.78295 0.0
H935 H 0.4913 0.71104 0.83226 0.0
H936 H 0.40104 0.57987 0.83144 0.0
H937 H 0.43006 0.62678 0.83142 0.0
H938 H 0.46712 0.65558 0.78174 0.0
C939 C 0.51552 0.75328 0.79061 0.0
C940 C 0.48636 0.69909 0.82116 0.0
C941 C 0.52026 0.77837 0.78729 0.0
C942 C 0.41674 0.58824 0.82243 0.0
C943 C 0.43353 0.61519 0.82248 0.0
C944 C 0.47299 0.66744 0.79289 0.0
C945 C 0.4982 0.73826 0.80334 0.0
C946 C 0.49009 0.71036 0.8053 0.0
C947 C 0.45326 0.62709 0.8104 0.0
C948 C 0.46817 0.65595 0.80875 0.0
H949 H 0.48148 0.78202 0.81729 0.0
H950 H 0.47309 0.73823 0.82299 0.0
H951 H 0.4861 0.70229 0.7788 0.0
H952 H 0.44244 0.57272 0.78935 0.0
H953 H 0.47211 0.61967 0.78967 0.0
C954 C 0.486 0.73213 0.51635 0.0
C955 C 0.50452 0.74766 0.52838 0.0
C956 C 0.47481 0.70508 0.51655 0.0
C957 C 0.46028 0.65276 0.54643 0.0
H958 H 0.43293 0.60896 0.50727 0.0
C959 C 0.39367 0.54165 0.55182 0.0
C960 C 0.37032 0.53167 0.5428 0.0
C961 C 0.41439 0.56673 0.54865 0.0
C962 C 0.44051 0.62096 0.51831 0.0
H963 H 0.52733 0.74713 0.54925 0.0
H964 H 0.50825 0.69994 0.54935 0.0
H965 H 0.46278 0.65569 0.50403 0.0
H966 H 0.35088 0.5397 0.52282 0.0
H967 H 0.387 0.58341 0.51731 0.0
H968 H 0.43761 0.61815 0.56069 0.0
C969 C 0.50184 0.70862 0.54004 0.0
C970 C 0.45756 0.64773 0.51647 0.0
C971 C 0.51291 0.73569 0.53991 0.0
C972 C 0.36856 0.54684 0.53004 0.0
C973 C 0.38934 0.57183 0.52679 0.0
C974 C 0.44342 0.62601 0.54826 0.0
C975 C 0.48203 0.69291 0.5287 0.0
C976 C 0.46712 0.66406 0.53051 0.0
C977 C 0.41226 0.58225 0.5363 0.0
C978 C 0.43284 0.60992 0.53423 0.0
H979 H 0.47912 0.7407 0.50726 0.0
H980 H 0.45946 0.69368 0.50772 0.0
H981 H 0.46686 0.66471 0.55754 0.0
H982 H 0.39569 0.53042 0.5617 0.0
H983 H 0.43192 0.57418 0.55607 0.0
C984 C 0.25631 0.7693 0.54004 0.0
C985 C 0.24392 0.74864 0.52863 0.0
C986 C 0.28345 0.78489 0.54018 0.0
C987 C 0.34392 0.79999 0.51676 0.0
H988 H 0.37361 0.81097 0.561 0.0
C989 C 0.44512 0.81338 0.53042 0.0
C990 C 0.46051 0.83127 0.5428 0.0
C991 C 0.41989 0.80839 0.52734 0.0
C992 C 0.36571 0.8085 0.54856 0.0
H993 H 0.25023 0.72918 0.50779 0.0
H994 H 0.2974 0.75586 0.50828 0.0
H995 H 0.32707 0.79363 0.55782 0.0
H996 H 0.46178 0.85857 0.56129 0.0
H997 H 0.41757 0.84964 0.55597 0.0
H998 H 0.38261 0.8138 0.50758 0.0
C999 C 0.28626 0.76035 0.51698 0.0
C1000 C 0.33899 0.79861 0.54672 0.0
C1001 C 0.25914 0.7449 0.51676 0.0
C1002 C 0.4504 0.84462 0.5517 0.0
C1003 C 0.42506 0.83945 0.5487 0.0
C1004 C 0.37065 0.8097 0.51861 0.0
C1005 C 0.29881 0.78007 0.529 0.0
C1006 C 0.32765 0.79373 0.5308 0.0
C1007 C 0.40943 0.82103 0.53664 0.0
C1008 C 0.38173 0.81359 0.53454 0.0
H1009 H 0.24512 0.77286 0.54925 0.0
H1010 H 0.29244 0.80027 0.54938 0.0
H1011 H 0.33593 0.79691 0.50431 0.0
H1012 H 0.45238 0.80284 0.52331 0.0
H1013 H 0.40822 0.79388 0.51809 0.0
C1014 C 0.22124 0.48327 0.53962 0.0
C1015 C 0.24289 0.49285 0.52894 0.0
C1016 C 0.20467 0.4936 0.53916 0.0
C1017 C 0.18886 0.53756 0.51499 0.0
H1018 H 0.17378 0.55453 0.5587 0.0
C1019 C 0.17315 0.62397 0.52806 0.0
C1020 C 0.155 0.62126 0.54029 0.0
C1021 C 0.17804 0.6037 0.52488 0.0
C1022 C 0.17734 0.54953 0.54639 0.0
H1023 H 0.26323 0.51971 0.50872 0.0
H1024 H 0.23484 0.53807 0.50817 0.0
H1025 H 0.19263 0.52667 0.55629 0.0
H1026 H 0.1268 0.59468 0.5582 0.0
H1027 H 0.13547 0.55932 0.55268 0.0
H1028 H 0.17466 0.56161 0.50521 0.0
C1029 C 0.23032 0.52235 0.51677 0.0
C1030 C 0.18812 0.53347 0.54498 0.0
C1031 C 0.24676 0.51192 0.51716 0.0
C1032 C 0.141 0.59744 0.54875 0.0
C1033 C 0.14602 0.57721 0.54565 0.0
C1034 C 0.17822 0.55379 0.51641 0.0
C1035 C 0.20949 0.51383 0.52807 0.0
C1036 C 0.1946 0.52777 0.52929 0.0
C1037 C 0.16498 0.58033 0.53392 0.0
C1038 C 0.17289 0.5604 0.53215 0.0
H1039 H 0.21756 0.4684 0.54874 0.0
H1040 H 0.18851 0.48623 0.54782 0.0
H1041 H 0.19316 0.53319 0.5027 0.0
H1042 H 0.18419 0.64204 0.52126 0.0
H1043 H 0.19295 0.60681 0.51589 0.0
C1044 C 0.13524 0.15607 0.05962 0.0
C1045 C 0.15387 0.1776 0.06875 0.0
C1046 C 0.1386 0.15403 0.04259 0.0
C1047 C 0.18881 0.17707 0.00985 0.0
H1048 H 0.1294 0.15134 0.98027 0.0
C1049 C 0.1976 0.17391 0.93811 0.0
C1050 C 0.17813 0.15164 0.92995 0.0
C1051 C 0.1953 0.17784 0.95506 0.0
C1052 C 0.14614 0.1583 0.98839 0.0
H1053 H 0.19062 0.21401 0.06714 0.0
H1054 H 0.19639 0.21052 0.03731 0.0
H1055 H 0.12404 0.15726 0.00973 0.0
H1056 H 0.14124 0.11581 0.93326 0.0
H1057 H 0.1374 0.12254 0.96278 0.0
H1058 H 0.21087 0.17797 0.98848 0.0
C1059 C 0.1793 0.19509 0.0434 0.0
C1060 C 0.14307 0.16172 0.00527 0.0
C1061 C 0.17591 0.19716 0.06045 0.0
C1062 C 0.15653 0.13323 0.93914 0.0
C1063 C 0.15423 0.13717 0.95605 0.0
C1064 C 0.19189 0.17365 0.99295 0.0
C1065 C 0.16069 0.17347 0.03429 0.0
C1066 C 0.16431 0.17093 0.01622 0.0
C1067 C 0.17347 0.15961 0.96417 0.0
C1068 C 0.17052 0.16401 0.98205 0.0
H1069 H 0.11808 0.14061 0.06563 0.0
H1070 H 0.12409 0.13695 0.03599 0.0
H1071 H 0.20549 0.18391 0.01801 0.0
H1072 H 0.21446 0.1885 0.93138 0.0
H1073 H 0.21035 0.19543 0.96093 0.0
C1074 C 0.82544 0.01289 0.93499 0.0
C1075 C 0.84697 0.01492 0.92633 0.0
C1076 C 0.8223 0.00715 0.95199 0.0
C1077 C 0.85867 0.0088 0.98955 0.0
H1078 H 0.79033 0.95891 0.00669 0.0
C1079 C 0.84375 0.9714 0.05705 0.0
C1080 C 0.82235 0.96966 0.06571 0.0
C1081 C 0.84633 0.97595 0.03991 0.0
C1082 C 0.80949 0.97307 0.00212 0.0
H1083 H 0.88213 0.01263 0.92873 0.0
H1084 H 0.87656 0.00251 0.95832 0.0
H1085 H 0.79581 0.96942 0.97709 0.0
H1086 H 0.78663 0.97087 0.06311 0.0
H1087 H 0.79128 0.97905 0.03326 0.0
H1088 H 0.87235 0.01258 0.01457 0.0
C1089 C 0.86225 0.0056 0.95203 0.0
C1090 C 0.81262 0.97911 0.98517 0.0
C1091 C 0.86537 0.01129 0.93504 0.0
C1092 C 0.80333 0.97206 0.05681 0.0
C1093 C 0.80593 0.97662 0.03968 0.0
C1094 C 0.85554 0.0028 0.0065 0.0
C1095 C 0.84064 0.00338 0.96068 0.0
C1096 C 0.83725 0.99705 0.9787 0.0
C1097 C 0.82758 0.97887 0.03106 0.0
C1098 C 0.83091 0.98487 0.01298 0.0
H1099 H 0.81092 0.0156 0.92864 0.0
H1100 H 0.8056 0.00587 0.95836 0.0
H1101 H 0.87782 0.02299 0.98499 0.0
H1102 H 0.85869 0.96953 0.06352 0.0
H1103 H 0.86304 0.97717 0.03359 0.0
C1104 C 0.97815 0.84532 0.93909 0.0
C1105 C 0.97564 0.82354 0.93051 0.0
C1106 C 0.98273 0.84792 0.95622 0.0
C1107 C 0.00855 0.82605 0.99022 0.0
H1108 H 0.97299 0.85129 0.01853 0.0
C1109 C 0.01548 0.82724 0.06198 0.0
C1110 C 0.01758 0.84903 0.07033 0.0
C1111 C 0.01044 0.82397 0.04491 0.0
C1112 C 0.98331 0.84451 0.01077 0.0
H1113 H 0.9757 0.78725 0.93321 0.0
H1114 H 0.98353 0.79174 0.96315 0.0
H1115 H 0.96353 0.84553 0.98882 0.0
H1116 H 0.01641 0.88468 0.06724 0.0
H1117 H 0.00794 0.87914 0.03744 0.0
H1118 H 0.02843 0.82513 0.01216 0.0
C1119 C 0.98223 0.80693 0.95658 0.0
C1120 C 0.97786 0.84118 0.99375 0.0
C1121 C 0.97758 0.80429 0.93945 0.0
C1122 C 0.0148 0.86762 0.06121 0.0
C1123 C 0.00978 0.86436 0.04413 0.0
C1124 C 0.01404 0.82941 0.00724 0.0
C1125 C 0.98497 0.82883 0.96514 0.0
C1126 C 0.99045 0.83196 0.98328 0.0
C1127 C 0.00739 0.84243 0.0358 0.0
C1128 C 0.00152 0.83874 0.01771 0.0
H1129 H 0.97682 0.86053 0.93257 0.0
H1130 H 0.98504 0.86517 0.96242 0.0
H1131 H 0.01886 0.81927 0.98244 0.0
H1132 H 0.01745 0.81251 0.06866 0.0
H1133 H 0.00843 0.80672 0.0389 0.0
C1134 C 0.85605 0.52068 0.26909 0.0
C1135 C 0.86759 0.50629 0.26366 0.0
C1136 C 0.85469 0.52519 0.28601 0.0
C1137 C 0.85499 0.49889 0.32727 0.0
H1138 H 0.86627 0.56562 0.34289 0.0
C1139 C 0.85359 0.52079 0.39704 0.0
C1140 C 0.84024 0.5338 0.40162 0.0
C1141 C 0.8587 0.51862 0.38033 0.0
C1142 C 0.86284 0.54681 0.3387 0.0
H1143 H 0.88711 0.48571 0.27177 0.0
H1144 H 0.88483 0.49372 0.30139 0.0
H1145 H 0.87242 0.55976 0.31348 0.0
H1146 H 0.82211 0.55506 0.39224 0.0
H1147 H 0.83081 0.55103 0.36302 0.0
H1148 H 0.84512 0.48582 0.35242 0.0
C1149 C 0.8766 0.50127 0.29251 0.0
C1150 C 0.86639 0.54346 0.32186 0.0
C1151 C 0.87802 0.49679 0.27555 0.0
C1152 C 0.83246 0.54494 0.38913 0.0
C1153 C 0.83757 0.54275 0.37239 0.0
C1154 C 0.85143 0.50223 0.3441 0.0
C1155 C 0.8648 0.51542 0.29793 0.0
C1156 C 0.86232 0.5194 0.31594 0.0
C1157 C 0.85059 0.5294 0.36779 0.0
C1158 C 0.85515 0.52617 0.34999 0.0
H1159 H 0.84781 0.52829 0.26027 0.0
H1160 H 0.84516 0.53586 0.28977 0.0
H1161 H 0.85131 0.48 0.32307 0.0
H1162 H 0.86 0.5121 0.40635 0.0
H1163 H 0.86912 0.50856 0.37723 0.0
C1164 C 0.50848 0.35385 0.2699 0.0
C1165 C 0.49538 0.36616 0.26357 0.0
C1166 C 0.50732 0.34817 0.28682 0.0
C1167 C 0.46627 0.3351 0.32356 0.0
H1168 H 0.52793 0.34764 0.34777 0.0
C1169 C 0.4652 0.31907 0.39444 0.0
C1170 C 0.48062 0.30925 0.4007 0.0
C1171 C 0.46679 0.326 0.37771 0.0
C1172 C 0.51045 0.34365 0.34114 0.0
H1173 H 0.47112 0.38254 0.27008 0.0
H1174 H 0.46898 0.37243 0.29974 0.0
H1175 H 0.53176 0.3609 0.31873 0.0
H1176 H 0.50926 0.29828 0.39421 0.0
H1177 H 0.51155 0.30973 0.36489 0.0
H1178 H 0.44484 0.3174 0.3458 0.0
C1179 C 0.48007 0.36714 0.29153 0.0
C1180 C 0.51269 0.35138 0.32453 0.0
C1181 C 0.48144 0.37307 0.27459 0.0
C1182 C 0.49723 0.30593 0.38978 0.0
C1183 C 0.49868 0.31269 0.37301 0.0
C1184 C 0.46399 0.32718 0.34013 0.0
C1185 C 0.49286 0.35448 0.29778 0.0
C1186 C 0.49063 0.34715 0.31557 0.0
C1187 C 0.48371 0.32309 0.3668 0.0
C1188 C 0.48605 0.33132 0.34912 0.0
H1189 H 0.51942 0.34829 0.26174 0.0
H1190 H 0.51718 0.3382 0.29126 0.0
H1191 H 0.44888 0.33124 0.31687 0.0
H1192 H 0.4523 0.32202 0.40254 0.0
H1193 H 0.45523 0.33425 0.37343 0.0
C1194 C 0.71445 0.1744 0.38851 0.0
C1195 C 0.69491 0.16271 0.40069 0.0
C1196 C 0.70825 0.16941 0.37162 0.0
C1197 C 0.65748 0.12297 0.34278 0.0
H1198 H 0.68756 0.18138 0.31227 0.0
C1199 C 0.61949 0.11635 0.27567 0.0
C1200 C 0.63811 0.12944 0.26315 0.0
C1201 C 0.62694 0.11944 0.2924 0.0
C1202 C 0.67924 0.16479 0.32057 0.0
H1203 H 0.65357 0.13632 0.40469 0.0
H1204 H 0.64279 0.12783 0.3753 0.0
H1205 H 0.70002 0.18844 0.3415 0.0
H1206 H 0.67927 0.15563 0.25835 0.0
H1207 H 0.69222 0.16077 0.28743 0.0
H1208 H 0.63655 0.09936 0.32185 0.0
C1209 C 0.66294 0.14063 0.37878 0.0
C1210 C 0.68641 0.16885 0.33733 0.0
C1211 C 0.66912 0.14565 0.39564 0.0
C1212 C 0.66437 0.14537 0.26768 0.0
C1213 C 0.67181 0.14845 0.28437 0.0
C1214 C 0.65032 0.11891 0.32601 0.0
C1215 C 0.68239 0.15258 0.36657 0.0
C1216 C 0.67552 0.14802 0.34864 0.0
C1217 C 0.65317 0.13569 0.29694 0.0
C1218 C 0.66105 0.1398 0.31472 0.0
H1219 H 0.73452 0.18757 0.39199 0.0
H1220 H 0.72372 0.17868 0.36251 0.0
H1221 H 0.64901 0.10646 0.35115 0.0
H1222 H 0.5991 0.10395 0.2726 0.0
H1223 H 0.61207 0.10955 0.30181 0.0
C1224 C 0.53059 0.8438 0.60584 0.0
C1225 C 0.51667 0.81793 0.60013 0.0
C1226 C 0.52921 0.84965 0.62253 0.0
C1227 C 0.48771 0.82245 0.65995 0.0
H1228 H 0.54811 0.87672 0.68294 0.0
C1229 C 0.49046 0.8379 0.73091 0.0
C1230 C 0.50171 0.86365 0.73676 0.0
C1231 C 0.49195 0.83285 0.7141 0.0
C1232 C 0.53102 0.86171 0.67661 0.0
H1233 H 0.49106 0.77782 0.60756 0.0
H1234 H 0.48917 0.78794 0.63675 0.0
H1235 H 0.55218 0.86643 0.65407 0.0
H1236 H 0.52313 0.90431 0.72949 0.0
H1237 H 0.5258 0.89541 0.70003 0.0
H1238 H 0.4667 0.81749 0.68261 0.0
C1239 C 0.50064 0.8038 0.62826 0.0
C1240 C 0.53333 0.8558 0.66007 0.0
C1241 C 0.50187 0.79797 0.61154 0.0
C1242 C 0.51424 0.88426 0.72537 0.0
C1243 C 0.51592 0.87919 0.70854 0.0
C1244 C 0.48547 0.82824 0.67651 0.0
C1245 C 0.51402 0.82975 0.63392 0.0
C1246 C 0.5117 0.83605 0.65154 0.0
C1247 C 0.50486 0.85342 0.70276 0.0
C1248 C 0.5071 0.84788 0.68502 0.0
H1249 H 0.54207 0.85965 0.59734 0.0
H1250 H 0.53951 0.86986 0.62639 0.0
H1251 H 0.47052 0.80751 0.65367 0.0
H1252 H 0.48067 0.82157 0.73936 0.0
H1253 H 0.48346 0.81281 0.71004 0.0
C1254 C 0.15747 0.68393 0.60789 0.0
C1255 C 0.17846 0.68529 0.59891 0.0
C1256 C 0.15461 0.6781 0.62488 0.0
C1257 C 0.19131 0.67817 0.66186 0.0
H1258 H 0.123 0.62923 0.67949 0.0
C1259 C 0.17775 0.63819 0.7285 0.0
C1260 C 0.15696 0.63662 0.73781 0.0
C1261 C 0.17977 0.64347 0.71147 0.0
C1262 C 0.14215 0.64314 0.67479 0.0
H1263 H 0.21297 0.68172 0.60075 0.0
H1264 H 0.20789 0.67146 0.63032 0.0
H1265 H 0.1279 0.64043 0.64999 0.0
H1266 H 0.1217 0.63892 0.73647 0.0
H1267 H 0.12537 0.64839 0.70675 0.0
H1268 H 0.20559 0.68097 0.68662 0.0
C1269 C 0.19379 0.67515 0.62428 0.0
C1270 C 0.14495 0.64956 0.6579 0.0
C1271 C 0.19662 0.68092 0.6073 0.0
C1272 C 0.13793 0.63994 0.72964 0.0
C1273 C 0.13998 0.64526 0.7126 0.0
C1274 C 0.1885 0.67178 0.67874 0.0
C1275 C 0.17271 0.67358 0.63325 0.0
C1276 C 0.16958 0.66709 0.65124 0.0
C1277 C 0.16107 0.64736 0.70335 0.0
C1278 C 0.16392 0.65412 0.68539 0.0
H1279 H 0.14314 0.68721 0.60179 0.0
H1280 H 0.13833 0.67733 0.63149 0.0
H1281 H 0.21047 0.69206 0.65716 0.0
H1282 H 0.19267 0.63559 0.73439 0.0
H1283 H 0.19602 0.64451 0.70465 0.0
C1284 C 0.30456 0.4676 0.60891 0.0
C1285 C 0.30304 0.48762 0.60065 0.0
C1286 C 0.31006 0.46952 0.62593 0.0
C1287 C 0.30937 0.50354 0.66428 0.0
H1288 H 0.35947 0.48491 0.68006 0.0
C1289 C 0.35142 0.52835 0.73062 0.0
C1290 C 0.35402 0.50922 0.73921 0.0
C1291 C 0.34518 0.52536 0.71371 0.0
C1292 C 0.34522 0.4899 0.67589 0.0
H1293 H 0.30578 0.52519 0.60383 0.0
H1294 H 0.31547 0.52856 0.63347 0.0
H1295 H 0.34786 0.47986 0.65064 0.0
H1296 H 0.35236 0.47205 0.73674 0.0
H1297 H 0.34125 0.46673 0.70724 0.0
H1298 H 0.30671 0.5136 0.6895 0.0
C1299 C 0.31219 0.51128 0.62683 0.0
C1300 C 0.33856 0.487 0.65903 0.0
C1301 C 0.30676 0.5094 0.60982 0.0
C1302 C 0.35058 0.48719 0.73047 0.0
C1303 C 0.34432 0.48419 0.71355 0.0
C1304 C 0.316 0.50641 0.68112 0.0
C1305 C 0.31408 0.49145 0.63506 0.0
C1306 C 0.32064 0.49389 0.65303 0.0
C1307 C 0.34137 0.50316 0.705 0.0
C1308 C 0.33409 0.49974 0.68711 0.0
H1309 H 0.30175 0.45054 0.60222 0.0
H1310 H 0.31106 0.45377 0.63196 0.0
H1311 H 0.2952 0.50864 0.66009 0.0
H1312 H 0.35405 0.54561 0.73696 0.0
H1313 H 0.34348 0.54054 0.70743 0.0
loop_
_geom_bond_atom_site_label_1
_geom_bond_atom_site_label_2
_geom_bond_distance
_geom_bond_site_symmetry_2
_ccdc_geom_bond_type
C0 O1 1.160 . S
C0 O7 1.185 . S
O1 C0 1.160 . S
O2 Zn3 1.899 . S
O2 C10 1.284 . S
Zn3 O2 1.899 . S
Zn3 O4 2.032 . S
Zn3 O7 2.086 . S
Zn3 O12 1.977 . S
O4 Zn3 2.032 . S
O4 C8 1.278 . S
C5 O6 1.203 . S
C5 O12 1.267 . S
O6 C5 1.203 . S
O7 C0 1.185 . S
O7 Zn3 2.086 . S
C8 O4 1.278 . S
C8 O9 1.211 . S
O9 C8 1.211 . S
C10 O2 1.284 . S
C10 O11 1.273 . S
O11 C10 1.273 . S
O12 Zn3 1.977 . S
O12 C5 1.267 . S
C13 O14 1.160 . S
C13 O20 1.185 1_545 S
O14 C13 1.160 . S
O15 Zn16 1.888 1_545 S
O15 C23 1.284 . S
Zn16 O15 1.888 1_565 S
Zn16 O17 2.019 1_565 S
Zn16 O20 2.069 . S
Zn16 O25 2.019 . S
O17 Zn16 2.019 1_545 S
O17 C21 1.278 1_545 S
C18 O19 1.203 . S
C18 O25 1.267 . S
O19 C18 1.203 . S
O20 C13 1.185 1_565 S
O20 Zn16 2.069 . S
C21 O17 1.278 1_565 S
C21 O22 1.211 . S
O22 C21 1.211 . S
C23 O15 1.284 . S
C23 O24 1.273 . S
O24 C23 1.273 . S
O25 Zn16 2.019 . S
O25 C18 1.267 . S
C26 O27 1.160 . S
C26 O33 1.185 1_655 S
O27 C26 1.160 . S
O28 Zn29 1.861 1_655 S
O28 C36 1.284 . S
Zn29 O28 1.861 1_455 S
Zn29 O30 2.038 1_455 S
Zn29 O33 2.106 . S
Zn29 O38 2.006 . S
O30 Zn29 2.038 1_655 S
O30 C34 1.278 1_655 S
C31 O32 1.203 . S
C31 O38 1.267 . S
O32 C31 1.203 . S
O33 C26 1.185 1_455 S
O33 Zn29 2.106 . S
C34 O30 1.278 1_455 S
C34 O35 1.211 . S
O35 C34 1.211 . S
C36 O28 1.284 . S
C36 O37 1.273 . S
O37 C36 1.273 . S
O38 Zn29 2.006 . S
O38 C31 1.267 . S
C39 O40 1.160 . S
C39 O46 1.185 . S
O40 C39 1.160 . S
O41 Zn42 1.899 . S
O41 C49 1.284 . S
Zn42 O41 1.899 . S
Zn42 O43 2.032 . S
Zn42 O46 2.086 . S
Zn42 O51 1.977 . S
O43 Zn42 2.032 . S
O43 C47 1.278 . S
C44 O45 1.203 . S
C44 O51 1.267 . S
O45 C44 1.203 . S
O46 C39 1.185 . S
O46 Zn42 2.086 . S
C47 O43 1.278 . S
C47 O48 1.211 . S
O48 C47 1.211 . S
C49 O41 1.284 . S
C49 O50 1.273 . S
O50 C49 1.273 . S
O51 Zn42 1.977 . S
O51 C44 1.267 . S
C52 O53 1.160 . S
C52 O59 1.185 1_565 S
O53 C52 1.160 . S
O54 Zn55 1.861 1_565 S
O54 C62 1.284 . S
Zn55 O54 1.861 1_545 S
Zn55 O56 2.038 1_545 S
Zn55 O59 2.106 . S
Zn55 O64 2.006 . S
O56 Zn55 2.038 1_565 S
O56 C60 1.278 1_565 S
C57 O58 1.203 . S
C57 O64 1.267 . S
O58 C57 1.203 . S
O59 C52 1.185 1_545 S
O59 Zn55 2.106 . S
C60 O56 1.278 1_545 S
C60 O61 1.211 . S
O61 C60 1.211 . S
C62 O54 1.284 . S
C62 O63 1.273 . S
O63 C62 1.273 . S
O64 Zn55 2.006 . S
O64 C57 1.267 . S
C65 O66 1.160 . S
C65 O72 1.185 1_455 S
O66 C65 1.160 . S
O67 Zn68 1.888 1_455 S
O67 C75 1.284 . S
Zn68 O67 1.888 1_655 S
Zn68 O69 2.019 1_655 S
Zn68 O72 2.069 . S
Zn68 O77 2.019 . S
O69 Zn68 2.019 1_455 S
O69 C73 1.278 1_455 S
C70 O71 1.203 . S
C70 O77 1.267 . S
O71 C70 1.203 . S
O72 C65 1.185 1_655 S
O72 Zn68 2.069 . S
C73 O69 1.278 1_655 S
C73 O74 1.211 . S
O74 C73 1.211 . S
C75 O67 1.284 . S
C75 O76 1.273 . S
O76 C75 1.273 . S
O77 Zn68 2.019 . S
O77 C70 1.267 . S
C78 O79 1.160 . S
C78 O85 1.185 . S
O79 C78 1.160 . S
O80 Zn81 1.899 . S
O80 C88 1.284 . S
Zn81 O80 1.899 . S
Zn81 O82 2.032 . S
Zn81 O85 2.086 . S
Zn81 O90 1.977 . S
O82 Zn81 2.032 . S
O82 C86 1.278 . S
C83 O84 1.203 . S
C83 O90 1.267 . S
O84 C83 1.203 . S
O85 C78 1.185 . S
O85 Zn81 2.086 . S
C86 O82 1.278 . S
C86 O87 1.211 . S
O87 C86 1.211 . S
C88 O80 1.284 . S
C88 O89 1.273 . S
O89 C88 1.273 . S
O90 Zn81 1.977 . S
O90 C83 1.267 . S
C91 O92 1.160 . S
C91 O98 1.185 . S
O92 C91 1.160 . S
O93 Zn94 1.899 . S
O93 C101 1.284 . S
Zn94 O93 1.899 . S
Zn94 O95 2.032 . S
Zn94 O98 2.086 . S
Zn94 O103 1.977 . S
O95 Zn94 2.032 . S
O95 C99 1.278 . S
C96 O97 1.203 . S
C96 O103 1.267 . S
O97 C96 1.203 . S
O98 C91 1.185 . S
O98 Zn94 2.086 . S
C99 O95 1.278 . S
C99 O100 1.211 . S
O100 C99 1.211 . S
C101 O93 1.284 . S
C101 O102 1.273 . S
O102 C101 1.273 . S
O103 Zn94 1.977 . S
O103 C96 1.267 . S
C104 O105 1.160 . S
C104 O111 1.185 . S
O105 C104 1.160 . S
O106 Zn107 1.899 . S
O106 C114 1.284 . S
Zn107 O106 1.899 . S
Zn107 O108 2.032 . S
Zn107 O111 2.086 . S
Zn107 O116 1.977 . S
O108 Zn107 2.032 . S
O108 C112 1.278 . S
C109 O110 1.203 . S
C109 O116 1.267 . S
O110 C109 1.203 . S
O111 C104 1.185 . S
O111 Zn107 2.086 . S
C112 O108 1.278 . S
C112 O113 1.211 . S
O113 C112 1.211 . S
C114 O106 1.284 . S
C114 O115 1.273 . S
O115 C114 1.273 . S
O116 Zn107 1.977 . S
O116 C109 1.267 . S
C117 O118 1.160 . S
C117 O124 1.185 . S
O118 C117 1.160 . S
O119 Zn120 1.899 . S
O119 C127 1.284 . S
Zn120 O119 1.899 . S
Zn120 O121 2.032 . S
Zn120 O124 2.086 . S
Zn120 O129 1.977 . S
O121 Zn120 2.032 . S
O121 C125 1.278 . S
C122 O123 1.203 . S
C122 O129 1.267 . S
O123 C122 1.203 . S
O124 C117 1.185 . S
O124 Zn120 2.086 . S
C125 O121 1.278 . S
C125 O126 1.211 . S
O126 C125 1.211 . S
C127 O119 1.284 . S
C127 O128 1.273 . S
O128 C127 1.273 . S
O129 Zn120 1.977 . S
O129 C122 1.267 . S
C130 O131 1.160 . S
C130 O137 1.185 . S
O131 C130 1.160 . S
O132 Zn133 1.899 . S
O132 C140 1.284 . S
Zn133 O132 1.899 . S
Zn133 O134 2.032 . S
Zn133 O137 2.086 . S
Zn133 O142 1.977 . S
O134 Zn133 2.032 . S
O134 C138 1.278 . S
C135 O136 1.203 . S
C135 O142 1.267 . S
O136 C135 1.203 . S
O137 C130 1.185 . S
O137 Zn133 2.086 . S
C138 O134 1.278 . S
C138 O139 1.211 . S
O139 C138 1.211 . S
C140 O132 1.284 . S
C140 O141 1.273 . S
O141 C140 1.273 . S
O142 Zn133 1.977 . S
O142 C135 1.267 . S
C143 O144 1.160 . S
C143 O150 1.185 . S
O144 C143 1.160 . S
O145 Zn146 1.899 . S
O145 C153 1.284 . S
Zn146 O145 1.899 . S
Zn146 O147 2.032 . S
Zn146 O150 2.086 . S
Zn146 O155 1.977 . S
O147 Zn146 2.032 . S
O147 C151 1.278 . S
C148 O149 1.203 . S
C148 O155 1.267 . S
O149 C148 1.203 . S
O150 C143 1.185 . S
O150 Zn146 2.086 . S
C151 O147 1.278 . S
C151 O152 1.211 . S
O152 C151 1.211 . S
C153 O145 1.284 . S
C153 O154 1.273 . S
O154 C153 1.273 . S
O155 Zn146 1.977 . S
O155 C148 1.267 . S
C156 O157 1.160 . S
C156 O163 1.185 . S
O157 C156 1.160 . S
O158 Zn159 1.899 . S
O158 C166 1.284 . S
Zn159 O158 1.899 . S
Zn159 O160 2.032 . S
Zn159 O163 2.086 . S
Zn159 O168 1.977 . S
O160 Zn159 2.032 . S
O160 C164 1.278 . S
C161 O162 1.203 . S
C161 O168 1.267 . S
O162 C161 1.203 . S
O163 C156 1.185 . S
O163 Zn159 2.086 . S
C164 O160 1.278 . S
C164 O165 1.211 . S
O165 C164 1.211 . S
C166 O158 1.284 . S
C166 O167 1.273 . S
O167 C166 1.273 . S
O168 Zn159 1.977 . S
O168 C161 1.267 . S
C169 O170 1.160 . S
C169 O176 1.185 . S
O170 C169 1.160 . S
O171 Zn172 1.899 . S
O171 C179 1.284 . S
Zn172 O171 1.899 . S
Zn172 O173 2.032 . S
Zn172 O176 2.086 . S
Zn172 O181 1.977 . S
O173 Zn172 2.032 . S
O173 C177 1.278 . S
C174 O175 1.203 . S
C174 O181 1.267 . S
O175 C174 1.203 . S
O176 C169 1.185 . S
O176 Zn172 2.086 . S
C177 O173 1.278 . S
C177 O178 1.211 . S
O178 C177 1.211 . S
C179 O171 1.284 . S
C179 O180 1.273 . S
O180 C179 1.273 . S
O181 Zn172 1.977 . S
O181 C174 1.267 . S
C182 O183 1.160 . S
C182 O189 1.185 . S
O183 C182 1.160 . S
O184 Zn185 1.899 . S
O184 C192 1.284 . S
Zn185 O184 1.899 . S
Zn185 O186 2.032 . S
Zn185 O189 2.086 . S
Zn185 O194 1.977 . S
O186 Zn185 2.032 . S
O186 C190 1.278 . S
C187 O188 1.203 . S
C187 O194 1.267 . S
O188 C187 1.203 . S
O189 C182 1.185 . S
O189 Zn185 2.086 . S
C190 O186 1.278 . S
C190 O191 1.211 . S
O191 C190 1.211 . S
C192 O184 1.284 . S
C192 O193 1.273 . S
O193 C192 1.273 . S
O194 Zn185 1.977 . S
O194 C187 1.267 . S
C195 O196 1.160 . S
C195 O202 1.185 . S
O196 C195 1.160 . S
O197 Zn198 1.899 . S
O197 C205 1.284 . S
Zn198 O197 1.899 . S
Zn198 O199 2.032 . S
Zn198 O202 2.086 . S
Zn198 O207 1.977 . S
O199 Zn198 2.032 . S
O199 C203 1.278 . S
C200 O201 1.203 . S
C200 O207 1.267 . S
O201 C200 1.203 . S
O202 C195 1.185 . S
O202 Zn198 2.086 . S
C203 O199 1.278 . S
C203 O204 1.211 . S
O204 C203 1.211 . S
C205 O197 1.284 . S
C205 O206 1.273 . S
O206 C205 1.273 . S
O207 Zn198 1.977 . S
O207 C200 1.267 . S
C208 O209 1.160 . S
C208 O215 1.185 . S
O209 C208 1.160 . S
O210 Zn211 1.899 . S
O210 C218 1.284 . S
Zn211 O210 1.899 . S
Zn211 O212 2.032 . S
Zn211 O215 2.086 . S
Zn211 O220 1.977 . S
O212 Zn211 2.032 . S
O212 C216 1.278 . S
C213 O214 1.203 . S
C213 O220 1.267 . S
O214 C213 1.203 . S
O215 C208 1.185 . S
O215 Zn211 2.086 . S
C216 O212 1.278 . S
C216 O217 1.211 . S
O217 C216 1.211 . S
C218 O210 1.284 . S
C218 O219 1.273 . S
O219 C218 1.273 . S
O220 Zn211 1.977 . S
O220 C213 1.267 . S
C221 O222 1.160 . S
C221 O228 1.185 . S
O222 C221 1.160 . S
O223 Zn224 1.899 . S
O223 C231 1.284 . S
Zn224 O223 1.899 . S
Zn224 O225 2.032 . S
Zn224 O228 2.086 . S
Zn224 O233 1.977 . S
O225 Zn224 2.032 . S
O225 C229 1.278 . S
C226 O227 1.203 . S
C226 O233 1.267 . S
O227 C226 1.203 . S
O228 C221 1.185 . S
O228 Zn224 2.086 . S
C229 O225 1.278 . S
C229 O230 1.211 . S
O230 C229 1.211 . S
C231 O223 1.284 . S
C231 O232 1.273 . S
O232 C231 1.273 . S
O233 Zn224 1.977 . S
O233 C226 1.267 . S
C234 C235 1.349 . S
C234 C236 1.327 . S
C234 H259 0.950 . S
C235 C234 1.349 . S
C235 C251 1.349 . S
C236 C234 1.327 . S
C236 C255 1.429 . S
C236 H260 0.950 . S
C237 C254 1.574 . S
C237 C256 1.368 . S
C237 H261 0.949 . S
H238 C242 0.949 . S
C239 C240 1.349 . S
C239 C241 1.327 . S
C239 H262 0.950 . S
C240 C239 1.349 . S
C240 C252 1.349 . S
C241 C239 1.327 . S
C241 C257 1.429 . S
C241 H263 0.950 . S
C242 H238 0.949 . S
C242 C250 1.574 . S
C242 C258 1.368 . S
H243 C251 0.950 . S
H244 C249 0.950 . S
H245 C250 0.949 . S
H246 C252 0.950 . S
H247 C253 0.950 . S
H248 C254 0.949 . S
C249 H244 0.950 . S
C249 C251 1.327 . S
C249 C255 1.429 . S
C250 C242 1.574 . S
C250 H245 0.949 . S
C250 C256 1.368 . S
C251 C235 1.349 . S
C251 H243 0.950 . S
C251 C249 1.327 . S
C252 C240 1.349 . S
C252 H246 0.950 . S
C252 C253 1.327 . S
C253 H247 0.950 . S
C253 C252 1.327 . S
C253 C257 1.429 . S
C254 C237 1.574 . S
C254 H248 0.949 . S
C254 C258 1.368 . S
C255 C236 1.429 . S
C255 C249 1.429 . S
C255 C256 1.523 . S
C256 C237 1.368 . S
C256 C250 1.368 . S
C256 C255 1.523 . S
C257 C241 1.429 . S
C257 C253 1.429 . S
C257 C258 1.523 . S
C258 C242 1.368 . S
C258 C254 1.368 . S
C258 C257 1.523 . S
H259 C234 0.950 . S
H260 C236 0.950 . S
H261 C237 0.949 . S
H262 C239 0.950 . S
H263 C241 0.950 . S
C264 C265 1.349 . S
C264 C266 1.327 . S
C264 H289 0.950 1_545 S
C265 C264 1.349 . S
C265 C281 1.349 . S
C266 C264 1.327 . S
C266 C285 1.429 . S
C266 H290 0.950 . S
C267 C284 1.574 . S
C267 C286 1.368 . S
C267 H291 0.949 . S
H268 C272 0.949 . S
C269 C270 1.349 . S
C269 C271 1.327 . S
C269 H292 0.950 . S
C270 C269 1.349 . S
C270 C282 1.349 . S
C271 C269 1.327 . S
C271 C287 1.429 . S
C271 H293 0.950 . S
C272 H268 0.949 . S
C272 C280 1.574 . S
C272 C288 1.368 . S
H273 C281 0.950 . S
H274 C279 0.950 . S
H275 C280 0.949 . S
H276 C282 0.950 . S
H277 C283 0.950 . S
H278 C284 0.949 . S
C279 H274 0.950 . S
C279 C281 1.327 . S
C279 C285 1.429 . S
C280 C272 1.574 . S
C280 H275 0.949 . S
C280 C286 1.368 . S
C281 C265 1.349 . S
C281 H273 0.950 . S
C281 C279 1.327 . S
C282 C270 1.349 . S
C282 H276 0.950 . S
C282 C283 1.327 . S
C283 H277 0.950 . S
C283 C282 1.327 . S
C283 C287 1.429 . S
C284 C267 1.574 . S
C284 H278 0.949 . S
C284 C288 1.368 . S
C285 C266 1.429 . S
C285 C279 1.429 . S
C285 C286 1.523 . S
C286 C267 1.368 . S
C286 C280 1.368 . S
C286 C285 1.523 . S
C287 C271 1.429 . S
C287 C283 1.429 . S
C287 C288 1.523 . S
C288 C272 1.368 . S
C288 C284 1.368 . S
C288 C287 1.523 . S
H289 C264 0.950 1_565 S
H290 C266 0.950 . S
H291 C267 0.949 . S
H292 C269 0.950 . S
H293 C271 0.950 . S
C294 C295 1.349 . S
C294 C296 1.327 . S
C294 H319 0.950 . S
C295 C294 1.349 . S
C295 C311 1.349 . S
C296 C294 1.327 . S
C296 C315 1.429 . S
C296 H320 0.950 . S
C297 C314 1.574 . S
C297 C316 1.368 . S
C297 H321 0.949 . S
H298 C302 0.949 . S
C299 C300 1.349 . S
C299 C301 1.327 . S
C299 H322 0.950 1_655 S
C300 C299 1.349 . S
C300 C312 1.349 . S
C301 C299 1.327 . S
C301 C317 1.429 . S
C301 H323 0.950 . S
C302 H298 0.949 . S
C302 C310 1.574 . S
C302 C318 1.368 . S
H303 C311 0.950 . S
H304 C309 0.950 . S
H305 C310 0.949 . S
H306 C312 0.950 . S
H307 C313 0.950 . S
H308 C314 0.949 . S
C309 H304 0.950 . S
C309 C311 1.327 . S
C309 C315 1.429 . S
C310 C302 1.574 . S
C310 H305 0.949 . S
C310 C316 1.368 . S
C311 C295 1.349 . S
C311 H303 0.950 . S
C311 C309 1.327 . S
C312 C300 1.349 . S
C312 H306 0.950 . S
C312 C313 1.327 . S
C313 H307 0.950 . S
C313 C312 1.327 . S
C313 C317 1.429 . S
C314 C297 1.574 . S
C314 H308 0.949 . S
C314 C318 1.368 . S
C315 C296 1.429 . S
C315 C309 1.429 . S
C315 C316 1.523 . S
C316 C297 1.368 . S
C316 C310 1.368 . S
C316 C315 1.523 . S
C317 C301 1.429 . S
C317 C313 1.429 . S
C317 C318 1.523 . S
C318 C302 1.368 . S
C318 C314 1.368 . S
C318 C317 1.523 . S
H319 C294 0.950 . S
H320 C296 0.950 . S
H321 C297 0.949 . S
H322 C299 0.950 1_455 S
H323 C301 0.950 . S
C324 C325 1.349 . S
C324 C326 1.327 . S
C324 H349 0.950 . S
C325 C324 1.349 . S
C325 C341 1.349 . S
C326 C324 1.327 . S
C326 C345 1.429 . S
C326 H350 0.950 . S
C327 C344 1.574 . S
C327 C346 1.368 . S
C327 H351 0.949 . S
H328 C332 0.949 . S
C329 C330 1.349 . S
C329 C331 1.327 . S
C329 H352 0.950 . S
C330 C329 1.349 . S
C330 C342 1.349 . S
C331 C329 1.327 . S
C331 C347 1.429 . S
C331 H353 0.950 . S
C332 H328 0.949 . S
C332 C340 1.574 . S
C332 C348 1.368 . S
H333 C341 0.950 . S
H334 C339 0.950 . S
H335 C340 0.949 . S
H336 C342 0.950 . S
H337 C343 0.950 . S
H338 C344 0.949 . S
C339 H334 0.950 . S
C339 C341 1.327 . S
C339 C345 1.429 . S
C340 C332 1.574 . S
C340 H335 0.949 . S
C340 C346 1.368 . S
C341 C325 1.349 . S
C341 H333 0.950 . S
C341 C339 1.327 . S
C342 C330 1.349 . S
C342 H336 0.950 . S
C342 C343 1.327 . S
C343 H337 0.950 . S
C343 C342 1.327 . S
C343 C347 1.429 . S
C344 C327 1.574 . S
C344 H338 0.949 . S
C344 C348 1.368 . S
C345 C326 1.429 . S
C345 C339 1.429 . S
C345 C346 1.523 . S
C346 C327 1.368 . S
C346 C340 1.368 . S
C346 C345 1.523 . S
C347 C331 1.429 . S
C347 C343 1.429 . S
C347 C348 1.523 . S
C348 C332 1.368 . S
C348 C344 1.368 . S
C348 C347 1.523 . S
H349 C324 0.950 . S
H350 C326 0.950 . S
H351 C327 0.949 . S
H352 C329 0.950 . S
H353 C331 0.950 . S
C354 C355 1.349 . S
C354 C356 1.327 . S
C354 H379 0.950 . S
C355 C354 1.349 . S
C355 C371 1.349 . S
C356 C354 1.327 . S
C356 C375 1.429 . S
C356 H380 0.950 . S
C357 C374 1.574 . S
C357 C376 1.368 . S
C357 H381 0.949 . S
H358 C362 0.949 . S
C359 C360 1.349 . S
C359 C361 1.327 . S
C359 H382 0.950 . S
C360 C359 1.349 . S
C360 C372 1.349 . S
C361 C359 1.327 . S
C361 C377 1.429 . S
C361 H383 0.950 . S
C362 H358 0.949 . S
C362 C370 1.574 . S
C362 C378 1.368 . S
H363 C371 0.950 . S
H364 C369 0.950 . S
H365 C370 0.949 . S
H366 C372 0.950 . S
H367 C373 0.950 . S
H368 C374 0.949 . S
C369 H364 0.950 . S
C369 C371 1.327 . S
C369 C375 1.429 . S
C370 C362 1.574 . S
C370 H365 0.949 . S
C370 C376 1.368 . S
C371 C355 1.349 . S
C371 H363 0.950 . S
C371 C369 1.327 . S
C372 C360 1.349 . S
C372 H366 0.950 . S
C372 C373 1.327 . S
C373 H367 0.950 . S
C373 C372 1.327 . S
C373 C377 1.429 . S
C374 C357 1.574 . S
C374 H368 0.949 . S
C374 C378 1.368 . S
C375 C356 1.429 . S
C375 C369 1.429 . S
C375 C376 1.523 . S
C376 C357 1.368 . S
C376 C370 1.368 . S
C376 C375 1.523 . S
C377 C361 1.429 . S
C377 C373 1.429 . S
C377 C378 1.523 . S
C378 C362 1.368 . S
C378 C374 1.368 . S
C378 C377 1.523 . S
H379 C354 0.950 . S
H380 C356 0.950 . S
H381 C357 0.949 . S
H382 C359 0.950 . S
H383 C361 0.950 . S
C384 C385 1.349 . S
C384 C386 1.327 . S
C384 H409 0.950 . S
C385 C384 1.349 . S
C385 C401 1.349 . S
C386 C384 1.327 . S
C386 C405 1.429 . S
C386 H410 0.950 . S
C387 C404 1.574 . S
C387 C406 1.368 . S
C387 H411 0.949 . S
H388 C392 0.949 . S
C389 C390 1.349 . S
C389 C391 1.327 . S
C389 H412 0.950 1_455 S
C390 C389 1.349 . S
C390 C402 1.349 . S
C391 C389 1.327 . S
C391 C407 1.429 . S
C391 H413 0.950 . S
C392 H388 0.949 . S
C392 C400 1.574 . S
C392 C408 1.368 . S
H393 C401 0.950 . S
H394 C399 0.950 . S
H395 C400 0.949 . S
H396 C402 0.950 . S
H397 C403 0.950 . S
H398 C404 0.949 . S
C399 H394 0.950 . S
C399 C401 1.327 . S
C399 C405 1.429 . S
C400 C392 1.574 . S
C400 H395 0.949 . S
C400 C406 1.368 . S
C401 C385 1.349 . S
C401 H393 0.950 . S
C401 C399 1.327 . S
C402 C390 1.349 . S
C402 H396 0.950 . S
C402 C403 1.327 . S
C403 H397 0.950 . S
C403 C402 1.327 . S
C403 C407 1.429 . S
C404 C387 1.574 . S
C404 H398 0.949 . S
C404 C408 1.368 . S
C405 C386 1.429 . S
C405 C399 1.429 . S
C405 C406 1.523 . S
C406 C387 1.368 . S
C406 C400 1.368 . S
C406 C405 1.523 . S
C407 C391 1.429 . S
C407 C403 1.429 . S
C407 C408 1.523 . S
C408 C392 1.368 . S
C408 C404 1.368 . S
C408 C407 1.523 . S
H409 C384 0.950 . S
H410 C386 0.950 . S
H411 C387 0.949 . S
H412 C389 0.950 1_655 S
H413 C391 0.950 . S
C414 C415 1.349 . S
C414 C416 1.327 . S
C414 H439 0.950 . S
C415 C414 1.349 . S
C415 C431 1.349 . S
C416 C414 1.327 . S
C416 C435 1.429 . S
C416 H440 0.950 . S
C417 C434 1.574 1_655 S
C417 C436 1.368 . S
C417 H441 0.949 . S
H418 C422 0.949 . S
C419 C420 1.349 . S
C419 C421 1.327 . S
C419 H442 0.950 . S
C420 C419 1.349 . S
C420 C432 1.349 . S
C421 C419 1.327 . S
C421 C437 1.429 . S
C421 H443 0.950 . S
C422 H418 0.949 . S
C422 C430 1.574 1_455 S
C422 C438 1.368 . S
H423 C431 0.950 . S
H424 C429 0.950 . S
H425 C430 0.949 . S
H426 C432 0.950 . S
H427 C433 0.950 . S
H428 C434 0.949 . S
C429 H424 0.950 . S
C429 C431 1.327 . S
C429 C435 1.429 . S
C430 C422 1.574 1_655 S
C430 H425 0.949 . S
C430 C436 1.368 . S
C431 C415 1.349 . S
C431 H423 0.950 . S
C431 C429 1.327 . S
C432 C420 1.349 . S
C432 H426 0.950 . S
C432 C433 1.327 . S
C433 H427 0.950 . S
C433 C432 1.327 . S
C433 C437 1.429 . S
C434 C417 1.574 1_455 S
C434 H428 0.949 . S
C434 C438 1.368 . S
C435 C416 1.429 . S
C435 C429 1.429 . S
C435 C436 1.523 . S
C436 C417 1.368 . S
C436 C430 1.368 . S
C436 C435 1.523 . S
C437 C421 1.429 . S
C437 C433 1.429 . S
C437 C438 1.523 . S
C438 C422 1.368 . S
C438 C434 1.368 . S
C438 C437 1.523 . S
H439 C414 0.950 . S
H440 C416 0.950 . S
H441 C417 0.949 . S
H442 C419 0.950 . S
H443 C421 0.950 . S
C444 C445 1.349 . S
C444 C446 1.327 . S
C444 H469 0.950 . S
C445 C444 1.349 . S
C445 C461 1.349 . S
C446 C444 1.327 . S
C446 C465 1.429 . S
C446 H470 0.950 . S
C447 C464 1.574 . S
C447 C466 1.368 . S
C447 H471 0.949 . S
H448 C452 0.949 . S
C449 C450 1.349 . S
C449 C451 1.327 . S
C449 H472 0.950 . S
C450 C449 1.349 . S
C450 C462 1.349 . S
C451 C449 1.327 . S
C451 C467 1.429 . S
C451 H473 0.950 . S
C452 H448 0.949 . S
C452 C460 1.574 . S
C452 C468 1.368 . S
H453 C461 0.950 . S
H454 C459 0.950 . S
H455 C460 0.949 . S
H456 C462 0.950 . S
H457 C463 0.950 . S
H458 C464 0.949 . S
C459 H454 0.950 . S
C459 C461 1.327 . S
C459 C465 1.429 . S
C460 C452 1.574 . S
C460 H455 0.949 . S
C460 C466 1.368 . S
C461 C445 1.349 . S
C461 H453 0.950 . S
C461 C459 1.327 . S
C462 C450 1.349 . S
C462 H456 0.950 . S
C462 C463 1.327 . S
C463 H457 0.950 . S
C463 C462 1.327 . S
C463 C467 1.429 . S
C464 C447 1.574 . S
C464 H458 0.949 . S
C464 C468 1.368 . S
C465 C446 1.429 . S
C465 C459 1.429 . S
C465 C466 1.523 . S
C466 C447 1.368 . S
C466 C460 1.368 . S
C466 C465 1.523 . S
C467 C451 1.429 . S
C467 C463 1.429 . S
C467 C468 1.523 . S
C468 C452 1.368 . S
C468 C464 1.368 . S
C468 C467 1.523 . S
H469 C444 0.950 . S
H470 C446 0.950 . S
H471 C447 0.949 . S
H472 C449 0.950 . S
H473 C451 0.950 . S
C474 C475 1.349 . S
C474 C476 1.327 . S
C474 H499 0.950 . S
C475 C474 1.349 . S
C475 C491 1.349 . S
C476 C474 1.327 . S
C476 C495 1.429 . S
C476 H500 0.950 . S
C477 C494 1.574 1_545 S
C477 C496 1.368 . S
C477 H501 0.949 . S
H478 C482 0.949 . S
C479 C480 1.349 . S
C479 C481 1.327 . S
C479 H502 0.950 . S
C480 C479 1.349 . S
C480 C492 1.349 . S
C481 C479 1.327 . S
C481 C497 1.429 . S
C481 H503 0.950 . S
C482 H478 0.949 . S
C482 C490 1.574 1_565 S
C482 C498 1.368 . S
H483 C491 0.950 . S
H484 C489 0.950 . S
H485 C490 0.949 . S
H486 C492 0.950 . S
H487 C493 0.950 . S
H488 C494 0.949 . S
C489 H484 0.950 . S
C489 C491 1.327 . S
C489 C495 1.429 . S
C490 C482 1.574 1_545 S
C490 H485 0.949 . S
C490 C496 1.368 . S
C491 C475 1.349 . S
C491 H483 0.950 . S
C491 C489 1.327 . S
C492 C480 1.349 . S
C492 H486 0.950 . S
C492 C493 1.327 . S
C493 H487 0.950 . S
C493 C492 1.327 . S
C493 C497 1.429 . S
C494 C477 1.574 1_565 S
C494 H488 0.949 . S
C494 C498 1.368 . S
C495 C476 1.429 . S
C495 C489 1.429 . S
C495 C496 1.523 . S
C496 C477 1.368 . S
C496 C490 1.368 . S
C496 C495 1.523 . S
C497 C481 1.429 . S
C497 C493 1.429 . S
C497 C498 1.523 . S
C498 C482 1.368 . S
C498 C494 1.368 . S
C498 C497 1.523 . S
H499 C474 0.950 . S
H500 C476 0.950 . S
H501 C477 0.949 . S
H502 C479 0.950 . S
H503 C481 0.950 . S
C504 C505 1.349 . S
C504 C506 1.327 . S
C504 H529 0.950 . S
C505 C504 1.349 . S
C505 C521 1.349 . S
C506 C504 1.327 . S
C506 C525 1.429 . S
C506 H530 0.950 . S
C507 C524 1.574 1_455 S
C507 C526 1.368 . S
C507 H531 0.949 . S
H508 C512 0.949 . S
C509 C510 1.349 . S
C509 C511 1.327 . S
C509 H532 0.950 . S
C510 C509 1.349 . S
C510 C522 1.349 . S
C511 C509 1.327 . S
C511 C527 1.429 . S
C511 H533 0.950 . S
C512 H508 0.949 . S
C512 C520 1.574 1_655 S
C512 C528 1.368 . S
H513 C521 0.950 . S
H514 C519 0.950 . S
H515 C520 0.949 . S
H516 C522 0.950 . S
H517 C523 0.950 . S
H518 C524 0.949 . S
C519 H514 0.950 . S
C519 C521 1.327 . S
C519 C525 1.429 . S
C520 C512 1.574 1_455 S
C520 H515 0.949 . S
C520 C526 1.368 . S
C521 C505 1.349 . S
C521 H513 0.950 . S
C521 C519 1.327 . S
C522 C510 1.349 . S
C522 H516 0.950 . S
C522 C523 1.327 . S
C523 H517 0.950 . S
C523 C522 1.327 . S
C523 C527 1.429 . S
C524 C507 1.574 1_655 S
C524 H518 0.949 . S
C524 C528 1.368 . S
C525 C506 1.429 . S
C525 C519 1.429 . S
C525 C526 1.523 . S
C526 C507 1.368 . S
C526 C520 1.368 . S
C526 C525 1.523 . S
C527 C511 1.429 . S
C527 C523 1.429 . S
C527 C528 1.523 . S
C528 C512 1.368 . S
C528 C524 1.368 . S
C528 C527 1.523 . S
H529 C504 0.950 . S
H530 C506 0.950 . S
H531 C507 0.949 . S
H532 C509 0.950 . S
H533 C511 0.950 . S
C534 C535 1.349 . S
C534 C536 1.327 . S
C534 H559 0.950 . S
C535 C534 1.349 . S
C535 C551 1.349 . S
C536 C534 1.327 . S
C536 C555 1.429 . S
C536 H560 0.950 . S
C537 C554 1.574 . S
C537 C556 1.368 . S
C537 H561 0.949 . S
H538 C542 0.949 . S
C539 C540 1.349 . S
C539 C541 1.327 . S
C539 H562 0.950 . S
C540 C539 1.349 . S
C540 C552 1.349 . S
C541 C539 1.327 . S
C541 C557 1.429 . S
C541 H563 0.950 . S
C542 H538 0.949 . S
C542 C550 1.574 . S
C542 C558 1.368 . S
H543 C551 0.950 . S
H544 C549 0.950 . S
H545 C550 0.949 . S
H546 C552 0.950 . S
H547 C553 0.950 . S
H548 C554 0.949 . S
C549 H544 0.950 . S
C549 C551 1.327 . S
C549 C555 1.429 . S
C550 C542 1.574 . S
C550 H545 0.949 . S
C550 C556 1.368 . S
C551 C535 1.349 . S
C551 H543 0.950 . S
C551 C549 1.327 . S
C552 C540 1.349 . S
C552 H546 0.950 . S
C552 C553 1.327 . S
C553 H547 0.950 . S
C553 C552 1.327 . S
C553 C557 1.429 . S
C554 C537 1.574 . S
C554 H548 0.949 . S
C554 C558 1.368 . S
C555 C536 1.429 . S
C555 C549 1.429 . S
C555 C556 1.523 . S
C556 C537 1.368 . S
C556 C550 1.368 . S
C556 C555 1.523 . S
C557 C541 1.429 . S
C557 C553 1.429 . S
C557 C558 1.523 . S
C558 C542 1.368 . S
C558 C554 1.368 . S
C558 C557 1.523 . S
H559 C534 0.950 . S
H560 C536 0.950 . S
H561 C537 0.949 . S
H562 C539 0.950 . S
H563 C541 0.950 . S
C564 C565 1.349 . S
C564 C566 1.327 . S
C564 H589 0.950 . S
C565 C564 1.349 . S
C565 C581 1.349 . S
C566 C564 1.327 . S
C566 C585 1.429 . S
C566 H590 0.950 . S
C567 C584 1.574 1_545 S
C567 C586 1.368 . S
C567 H591 0.949 . S
H568 C572 0.949 . S
C569 C570 1.349 . S
C569 C571 1.327 . S
C569 H592 0.950 . S
C570 C569 1.349 . S
C570 C582 1.349 . S
C571 C569 1.327 . S
C571 C587 1.429 . S
C571 H593 0.950 . S
C572 H568 0.949 . S
C572 C580 1.574 1_565 S
C572 C588 1.368 . S
H573 C581 0.950 . S
H574 C579 0.950 . S
H575 C580 0.949 . S
H576 C582 0.950 . S
H577 C583 0.950 . S
H578 C584 0.949 . S
C579 H574 0.950 . S
C579 C581 1.327 . S
C579 C585 1.429 . S
C580 C572 1.574 1_545 S
C580 H575 0.949 . S
C580 C586 1.368 . S
C581 C565 1.349 . S
C581 H573 0.950 . S
C581 C579 1.327 . S
C582 C570 1.349 . S
C582 H576 0.950 . S
C582 C583 1.327 . S
C583 H577 0.950 . S
C583 C582 1.327 . S
C583 C587 1.429 . S
C584 C567 1.574 1_565 S
C584 H578 0.949 . S
C584 C588 1.368 . S
C585 C566 1.429 . S
C585 C579 1.429 . S
C585 C586 1.523 . S
C586 C567 1.368 . S
C586 C580 1.368 . S
C586 C585 1.523 . S
C587 C571 1.429 . S
C587 C583 1.429 . S
C587 C588 1.523 . S
C588 C572 1.368 . S
C588 C584 1.368 . S
C588 C587 1.523 . S
H589 C564 0.950 . S
H590 C566 0.950 . S
H591 C567 0.949 . S
H592 C569 0.950 . S
H593 C571 0.950 . S
C594 C595 1.349 . S
C594 C596 1.327 . S
C594 H619 0.950 . S
C595 C594 1.349 . S
C595 C611 1.349 . S
C596 C594 1.327 . S
C596 C615 1.429 . S
C596 H620 0.950 . S
C597 C614 1.574 1_565 S
C597 C616 1.368 . S
C597 H621 0.949 . S
H598 C602 0.949 . S
C599 C600 1.349 . S
C599 C601 1.327 . S
C599 H622 0.950 . S
C600 C599 1.349 . S
C600 C612 1.349 . S
C601 C599 1.327 . S
C601 C617 1.429 . S
C601 H623 0.950 . S
C602 H598 0.949 . S
C602 C610 1.574 1_545 S
C602 C618 1.368 . S
H603 C611 0.950 . S
H604 C609 0.950 . S
H605 C610 0.949 . S
H606 C612 0.950 . S
H607 C613 0.950 . S
H608 C614 0.949 . S
C609 H604 0.950 . S
C609 C611 1.327 . S
C609 C615 1.429 . S
C610 C602 1.574 1_565 S
C610 H605 0.949 . S
C610 C616 1.368 . S
C611 C595 1.349 . S
C611 H603 0.950 . S
C611 C609 1.327 . S
C612 C600 1.349 . S
C612 H606 0.950 . S
C612 C613 1.327 . S
C613 H607 0.950 . S
C613 C612 1.327 . S
C613 C617 1.429 . S
C614 C597 1.574 1_545 S
C614 H608 0.949 . S
C614 C618 1.368 . S
C615 C596 1.429 . S
C615 C609 1.429 . S
C615 C616 1.523 . S
C616 C597 1.368 . S
C616 C610 1.368 . S
C616 C615 1.523 . S
C617 C601 1.429 . S
C617 C613 1.429 . S
C617 C618 1.523 . S
C618 C602 1.368 . S
C618 C614 1.368 . S
C618 C617 1.523 . S
H619 C594 0.950 . S
H620 C596 0.950 . S
H621 C597 0.949 . S
H622 C599 0.950 . S
H623 C601 0.950 . S
C624 C625 1.349 . S
C624 C626 1.327 . S
C624 H649 0.950 . S
C625 C624 1.349 . S
C625 C641 1.349 . S
C626 C624 1.327 . S
C626 C645 1.429 . S
C626 H650 0.950 . S
C627 C644 1.574 1_455 S
C627 C646 1.368 . S
C627 H651 0.949 . S
H628 C632 0.949 . S
C629 C630 1.349 . S
C629 C631 1.327 . S
C629 H652 0.950 . S
C630 C629 1.349 . S
C630 C642 1.349 . S
C631 C629 1.327 . S
C631 C647 1.429 . S
C631 H653 0.950 . S
C632 H628 0.949 . S
C632 C640 1.574 1_655 S
C632 C648 1.368 . S
H633 C641 0.950 . S
H634 C639 0.950 . S
H635 C640 0.949 . S
H636 C642 0.950 . S
H637 C643 0.950 . S
H638 C644 0.949 . S
C639 H634 0.950 . S
C639 C641 1.327 . S
C639 C645 1.429 . S
C640 C632 1.574 1_455 S
C640 H635 0.949 . S
C640 C646 1.368 . S
C641 C625 1.349 . S
C641 H633 0.950 . S
C641 C639 1.327 . S
C642 C630 1.349 . S
C642 H636 0.950 . S
C642 C643 1.327 . S
C643 H637 0.950 . S
C643 C642 1.327 . S
C643 C647 1.429 . S
C644 C627 1.574 1_655 S
C644 H638 0.949 . S
C644 C648 1.368 . S
C645 C626 1.429 . S
C645 C639 1.429 . S
C645 C646 1.523 . S
C646 C627 1.368 . S
C646 C640 1.368 . S
C646 C645 1.523 . S
C647 C631 1.429 . S
C647 C643 1.429 . S
C647 C648 1.523 . S
C648 C632 1.368 . S
C648 C644 1.368 . S
C648 C647 1.523 . S
H649 C624 0.950 . S
H650 C626 0.950 . S
H651 C627 0.949 . S
H652 C629 0.950 . S
H653 C631 0.950 . S
C654 C655 1.349 . S
C654 C656 1.327 . S
C654 H679 0.950 . S
C655 C654 1.349 . S
C655 C671 1.349 . S
C656 C654 1.327 . S
C656 C675 1.429 . S
C656 H680 0.950 . S
C657 C674 1.574 . S
C657 C676 1.368 . S
C657 H681 0.949 . S
H658 C662 0.949 . S
C659 C660 1.349 . S
C659 C661 1.327 . S
C659 H682 0.950 . S
C660 C659 1.349 . S
C660 C672 1.349 . S
C661 C659 1.327 . S
C661 C677 1.429 . S
C661 H683 0.950 . S
C662 H658 0.949 . S
C662 C670 1.574 . S
C662 C678 1.368 . S
H663 C671 0.950 . S
H664 C669 0.950 . S
H665 C670 0.949 . S
H666 C672 0.950 . S
H667 C673 0.950 . S
H668 C674 0.949 . S
C669 H664 0.950 . S
C669 C671 1.327 . S
C669 C675 1.429 . S
C670 C662 1.574 . S
C670 H665 0.949 . S
C670 C676 1.368 . S
C671 C655 1.349 . S
C671 H663 0.950 . S
C671 C669 1.327 . S
C672 C660 1.349 . S
C672 H666 0.950 . S
C672 C673 1.327 . S
C673 H667 0.950 . S
C673 C672 1.327 . S
C673 C677 1.429 . S
C674 C657 1.574 . S
C674 H668 0.949 . S
C674 C678 1.368 . S
C675 C656 1.429 . S
C675 C669 1.429 . S
C675 C676 1.523 . S
C676 C657 1.368 . S
C676 C670 1.368 . S
C676 C675 1.523 . S
C677 C661 1.429 . S
C677 C673 1.429 . S
C677 C678 1.523 . S
C678 C662 1.368 . S
C678 C674 1.368 . S
C678 C677 1.523 . S
H679 C654 0.950 . S
H680 C656 0.950 . S
H681 C657 0.949 . S
H682 C659 0.950 . S
H683 C661 0.950 . S
C684 C685 1.349 . S
C684 C686 1.327 . S
C684 H709 0.950 . S
C685 C684 1.349 . S
C685 C701 1.349 . S
C686 C684 1.327 . S
C686 C705 1.429 . S
C686 H710 0.950 . S
C687 C704 1.574 . S
C687 C706 1.368 . S
C687 H711 0.949 . S
H688 C692 0.949 . S
C689 C690 1.349 . S
C689 C691 1.327 . S
C689 H712 0.950 . S
C690 C689 1.349 . S
C690 C702 1.349 . S
C691 C689 1.327 . S
C691 C707 1.429 . S
C691 H713 0.950 . S
C692 H688 0.949 . S
C692 C700 1.574 . S
C692 C708 1.368 . S
H693 C701 0.950 . S
H694 C699 0.950 . S
H695 C700 0.949 . S
H696 C702 0.950 . S
H697 C703 0.950 . S
H698 C704 0.949 . S
C699 H694 0.950 . S
C699 C701 1.327 . S
C699 C705 1.429 . S
C700 C692 1.574 . S
C700 H695 0.949 . S
C700 C706 1.368 . S
C701 C685 1.349 . S
C701 H693 0.950 . S
C701 C699 1.327 . S
C702 C690 1.349 . S
C702 H696 0.950 . S
C702 C703 1.327 . S
C703 H697 0.950 . S
C703 C702 1.327 . S
C703 C707 1.429 . S
C704 C687 1.574 . S
C704 H698 0.949 . S
C704 C708 1.368 . S
C705 C686 1.429 . S
C705 C699 1.429 . S
C705 C706 1.523 . S
C706 C687 1.368 . S
C706 C700 1.368 . S
C706 C705 1.523 . S
C707 C691 1.429 . S
C707 C703 1.429 . S
C707 C708 1.523 . S
C708 C692 1.368 . S
C708 C704 1.368 . S
C708 C707 1.523 . S
H709 C684 0.950 . S
H710 C686 0.950 . S
H711 C687 0.949 . S
H712 C689 0.950 . S
H713 C691 0.950 . S
C714 C715 1.349 . S
C714 C716 1.327 . S
C714 H739 0.950 . S
C715 C714 1.349 . S
C715 C731 1.349 . S
C716 C714 1.327 . S
C716 C735 1.429 . S
C716 H740 0.950 . S
C717 C734 1.574 . S
C717 C736 1.368 . S
C717 H741 0.949 . S
H718 C722 0.949 . S
C719 C720 1.349 . S
C719 C721 1.327 . S
C719 H742 0.950 . S
C720 C719 1.349 . S
C720 C732 1.349 . S
C721 C719 1.327 . S
C721 C737 1.429 . S
C721 H743 0.950 . S
C722 H718 0.949 . S
C722 C730 1.574 . S
C722 C738 1.368 . S
H723 C731 0.950 . S
H724 C729 0.950 . S
H725 C730 0.949 . S
H726 C732 0.950 . S
H727 C733 0.950 . S
H728 C734 0.949 . S
C729 H724 0.950 . S
C729 C731 1.327 . S
C729 C735 1.429 . S
C730 C722 1.574 . S
C730 H725 0.949 . S
C730 C736 1.368 . S
C731 C715 1.349 . S
C731 H723 0.950 . S
C731 C729 1.327 . S
C732 C720 1.349 . S
C732 H726 0.950 . S
C732 C733 1.327 . S
C733 H727 0.950 . S
C733 C732 1.327 . S
C733 C737 1.429 . S
C734 C717 1.574 . S
C734 H728 0.949 . S
C734 C738 1.368 . S
C735 C716 1.429 . S
C735 C729 1.429 . S
C735 C736 1.523 . S
C736 C717 1.368 . S
C736 C730 1.368 . S
C736 C735 1.523 . S
C737 C721 1.429 . S
C737 C733 1.429 . S
C737 C738 1.523 . S
C738 C722 1.368 . S
C738 C734 1.368 . S
C738 C737 1.523 . S
H739 C714 0.950 . S
H740 C716 0.950 . S
H741 C717 0.949 . S
H742 C719 0.950 . S
H743 C721 0.950 . S
C744 C745 1.349 . S
C744 C746 1.327 . S
C744 H769 0.950 . S
C745 C744 1.349 . S
C745 C761 1.349 . S
C746 C744 1.327 . S
C746 C765 1.429 . S
C746 H770 0.950 . S
C747 C764 1.574 . S
C747 C766 1.368 . S
C747 H771 0.949 . S
H748 C752 0.949 . S
C749 C750 1.349 . S
C749 C751 1.327 . S
C749 H772 0.950 . S
C750 C749 1.349 . S
C750 C762 1.349 . S
C751 C749 1.327 . S
C751 C767 1.429 . S
C751 H773 0.950 . S
C752 H748 0.949 . S
C752 C760 1.574 . S
C752 C768 1.368 . S
H753 C761 0.950 . S
H754 C759 0.950 . S
H755 C760 0.949 . S
H756 C762 0.950 . S
H757 C763 0.950 . S
H758 C764 0.949 . S
C759 H754 0.950 . S
C759 C761 1.327 . S
C759 C765 1.429 . S
C760 C752 1.574 . S
C760 H755 0.949 . S
C760 C766 1.368 . S
C761 C745 1.349 . S
C761 H753 0.950 . S
C761 C759 1.327 . S
C762 C750 1.349 . S
C762 H756 0.950 . S
C762 C763 1.327 . S
C763 H757 0.950 . S
C763 C762 1.327 . S
C763 C767 1.429 . S
C764 C747 1.574 . S
C764 H758 0.949 . S
C764 C768 1.368 . S
C765 C746 1.429 . S
C765 C759 1.429 . S
C765 C766 1.523 . S
C766 C747 1.368 . S
C766 C760 1.368 . S
C766 C765 1.523 . S
C767 C751 1.429 . S
C767 C763 1.429 . S
C767 C768 1.523 . S
C768 C752 1.368 . S
C768 C764 1.368 . S
C768 C767 1.523 . S
H769 C744 0.950 . S
H770 C746 0.950 . S
H771 C747 0.949 . S
H772 C749 0.950 . S
H773 C751 0.950 . S
C774 C775 1.349 . S
C774 C776 1.327 . S
C774 H799 0.950 . S
C775 C774 1.349 . S
C775 C791 1.349 . S
C776 C774 1.327 . S
C776 C795 1.429 . S
C776 H800 0.950 . S
C777 C794 1.574 . S
C777 C796 1.368 . S
C777 H801 0.949 . S
H778 C782 0.949 . S
C779 C780 1.349 . S
C779 C781 1.327 . S
C779 H802 0.950 . S
C780 C779 1.349 . S
C780 C792 1.349 . S
C781 C779 1.327 . S
C781 C797 1.429 . S
C781 H803 0.950 . S
C782 H778 0.949 . S
C782 C790 1.574 . S
C782 C798 1.368 . S
H783 C791 0.950 . S
H784 C789 0.950 . S
H785 C790 0.949 . S
H786 C792 0.950 . S
H787 C793 0.950 . S
H788 C794 0.949 . S
C789 H784 0.950 . S
C789 C791 1.327 . S
C789 C795 1.429 . S
C790 C782 1.574 . S
C790 H785 0.949 . S
C790 C796 1.368 . S
C791 C775 1.349 . S
C791 H783 0.950 . S
C791 C789 1.327 . S
C792 C780 1.349 . S
C792 H786 0.950 . S
C792 C793 1.327 . S
C793 H787 0.950 . S
C793 C792 1.327 . S
C793 C797 1.429 . S
C794 C777 1.574 . S
C794 H788 0.949 . S
C794 C798 1.368 . S
C795 C776 1.429 . S
C795 C789 1.429 . S
C795 C796 1.523 . S
C796 C777 1.368 . S
C796 C790 1.368 . S
C796 C795 1.523 . S
C797 C781 1.429 . S
C797 C793 1.429 . S
C797 C798 1.523 . S
C798 C782 1.368 . S
C798 C794 1.368 . S
C798 C797 1.523 . S
H799 C774 0.950 . S
H800 C776 0.950 . S
H801 C777 0.949 . S
H802 C779 0.950 . S
H803 C781 0.950 . S
C804 C805 1.349 . S
C804 C806 1.327 . S
C804 H829 0.950 . S
C805 C804 1.349 . S
C805 C821 1.349 . S
C806 C804 1.327 . S
C806 C825 1.429 . S
C806 H830 0.950 . S
C807 C824 1.574 . S
C807 C826 1.368 . S
C807 H831 0.949 . S
H808 C812 0.949 . S
C809 C810 1.349 . S
C809 C811 1.327 . S
C809 H832 0.950 . S
C810 C809 1.349 . S
C810 C822 1.349 . S
C811 C809 1.327 . S
C811 C827 1.429 . S
C811 H833 0.950 . S
C812 H808 0.949 . S
C812 C820 1.574 . S
C812 C828 1.368 . S
H813 C821 0.950 . S
H814 C819 0.950 . S
H815 C820 0.949 . S
H816 C822 0.950 . S
H817 C823 0.950 . S
H818 C824 0.949 . S
C819 H814 0.950 . S
C819 C821 1.327 . S
C819 C825 1.429 . S
C820 C812 1.574 . S
C820 H815 0.949 . S
C820 C826 1.368 . S
C821 C805 1.349 . S
C821 H813 0.950 . S
C821 C819 1.327 . S
C822 C810 1.349 . S
C822 H816 0.950 . S
C822 C823 1.327 . S
C823 H817 0.950 . S
C823 C822 1.327 . S
C823 C827 1.429 . S
C824 C807 1.574 . S
C824 H818 0.949 . S
C824 C828 1.368 . S
C825 C806 1.429 . S
C825 C819 1.429 . S
C825 C826 1.523 . S
C826 C807 1.368 . S
C826 C820 1.368 . S
C826 C825 1.523 . S
C827 C811 1.429 . S
C827 C823 1.429 . S
C827 C828 1.523 . S
C828 C812 1.368 . S
C828 C824 1.368 . S
C828 C827 1.523 . S
H829 C804 0.950 . S
H830 C806 0.950 . S
H831 C807 0.949 . S
H832 C809 0.950 . S
H833 C811 0.950 . S
C834 C835 1.349 . S
C834 C836 1.327 . S
C834 H859 0.950 . S
C835 C834 1.349 . S
C835 C851 1.349 . S
C836 C834 1.327 . S
C836 C855 1.429 . S
C836 H860 0.950 . S
C837 C854 1.574 . S
C837 C856 1.368 . S
C837 H861 0.949 . S
H838 C842 0.949 . S
C839 C840 1.349 . S
C839 C841 1.327 . S
C839 H862 0.950 . S
C840 C839 1.349 . S
C840 C852 1.349 . S
C841 C839 1.327 . S
C841 C857 1.429 . S
C841 H863 0.950 . S
C842 H838 0.949 . S
C842 C850 1.574 . S
C842 C858 1.368 . S
H843 C851 0.950 . S
H844 C849 0.950 . S
H845 C850 0.949 . S
H846 C852 0.950 . S
H847 C853 0.950 . S
H848 C854 0.949 . S
C849 H844 0.950 . S
C849 C851 1.327 . S
C849 C855 1.429 . S
C850 C842 1.574 . S
C850 H845 0.949 . S
C850 C856 1.368 . S
C851 C835 1.349 . S
C851 H843 0.950 . S
C851 C849 1.327 . S
C852 C840 1.349 . S
C852 H846 0.950 . S
C852 C853 1.327 . S
C853 H847 0.950 . S
C853 C852 1.327 . S
C853 C857 1.429 . S
C854 C837 1.574 . S
C854 H848 0.949 . S
C854 C858 1.368 . S
C855 C836 1.429 . S
C855 C849 1.429 . S
C855 C856 1.523 . S
C856 C837 1.368 . S
C856 C850 1.368 . S
C856 C855 1.523 . S
C857 C841 1.429 . S
C857 C853 1.429 . S
C857 C858 1.523 . S
C858 C842 1.368 . S
C858 C854 1.368 . S
C858 C857 1.523 . S
H859 C834 0.950 . S
H860 C836 0.950 . S
H861 C837 0.949 . S
H862 C839 0.950 . S
H863 C841 0.950 . S
C864 C865 1.349 . S
C864 C866 1.327 . S
C864 H889 0.950 . S
C865 C864 1.349 . S
C865 C881 1.349 . S
C866 C864 1.327 . S
C866 C885 1.429 . S
C866 H890 0.950 . S
C867 C884 1.574 . S
C867 C886 1.368 . S
C867 H891 0.949 . S
H868 C872 0.949 . S
C869 C870 1.349 . S
C869 C871 1.327 . S
C869 H892 0.950 . S
C870 C869 1.349 . S
C870 C882 1.349 . S
C871 C869 1.327 . S
C871 C887 1.429 . S
C871 H893 0.950 . S
C872 H868 0.949 . S
C872 C880 1.574 . S
C872 C888 1.368 . S
H873 C881 0.950 . S
H874 C879 0.950 . S
H875 C880 0.949 . S
H876 C882 0.950 . S
H877 C883 0.950 . S
H878 C884 0.949 . S
C879 H874 0.950 . S
C879 C881 1.327 . S
C879 C885 1.429 . S
C880 C872 1.574 . S
C880 H875 0.949 . S
C880 C886 1.368 . S
C881 C865 1.349 . S
C881 H873 0.950 . S
C881 C879 1.327 . S
C882 C870 1.349 . S
C882 H876 0.950 . S
C882 C883 1.327 . S
C883 H877 0.950 . S
C883 C882 1.327 . S
C883 C887 1.429 . S
C884 C867 1.574 . S
C884 H878 0.949 . S
C884 C888 1.368 . S
C885 C866 1.429 . S
C885 C879 1.429 . S
C885 C886 1.523 . S
C886 C867 1.368 . S
C886 C880 1.368 . S
C886 C885 1.523 . S
C887 C871 1.429 . S
C887 C883 1.429 . S
C887 C888 1.523 . S
C888 C872 1.368 . S
C888 C884 1.368 . S
C888 C887 1.523 . S
H889 C864 0.950 . S
H890 C866 0.950 . S
H891 C867 0.949 . S
H892 C869 0.950 . S
H893 C871 0.950 . S
C894 C895 1.349 . S
C894 C896 1.327 . S
C894 H919 0.950 . S
C895 C894 1.349 . S
C895 C911 1.349 . S
C896 C894 1.327 . S
C896 C915 1.429 . S
C896 H920 0.950 . S
C897 C914 1.574 . S
C897 C916 1.368 . S
C897 H921 0.949 . S
H898 C902 0.949 . S
C899 C900 1.349 . S
C899 C901 1.327 . S
C899 H922 0.950 . S
C900 C899 1.349 . S
C900 C912 1.349 . S
C901 C899 1.327 . S
C901 C917 1.429 . S
C901 H923 0.950 . S
C902 H898 0.949 . S
C902 C910 1.574 . S
C902 C918 1.368 . S
H903 C911 0.950 . S
H904 C909 0.950 . S
H905 C910 0.949 . S
H906 C912 0.950 . S
H907 C913 0.950 . S
H908 C914 0.949 . S
C909 H904 0.950 . S
C909 C911 1.327 . S
C909 C915 1.429 . S
C910 C902 1.574 . S
C910 H905 0.949 . S
C910 C916 1.368 . S
C911 C895 1.349 . S
C911 H903 0.950 . S
C911 C909 1.327 . S
C912 C900 1.349 . S
C912 H906 0.950 . S
C912 C913 1.327 . S
C913 H907 0.950 . S
C913 C912 1.327 . S
C913 C917 1.429 . S
C914 C897 1.574 . S
C914 H908 0.949 . S
C914 C918 1.368 . S
C915 C896 1.429 . S
C915 C909 1.429 . S
C915 C916 1.523 . S
C916 C897 1.368 . S
C916 C910 1.368 . S
C916 C915 1.523 . S
C917 C901 1.429 . S
C917 C913 1.429 . S
C917 C918 1.523 . S
C918 C902 1.368 . S
C918 C914 1.368 . S
C918 C917 1.523 . S
H919 C894 0.950 . S
H920 C896 0.950 . S
H921 C897 0.949 . S
H922 C899 0.950 . S
H923 C901 0.950 . S
C924 C925 1.349 . S
C924 C926 1.327 . S
C924 H949 0.950 . S
C925 C924 1.349 . S
C925 C941 1.349 . S
C926 C924 1.327 . S
C926 C945 1.429 . S
C926 H950 0.950 . S
C927 C944 1.574 . S
C927 C946 1.368 . S
C927 H951 0.949 . S
H928 C932 0.949 . S
C929 C930 1.349 . S
C929 C931 1.327 . S
C929 H952 0.950 . S
C930 C929 1.349 . S
C930 C942 1.349 . S
C931 C929 1.327 . S
C931 C947 1.429 . S
C931 H953 0.950 . S
C932 H928 0.949 . S
C932 C940 1.574 . S
C932 C948 1.368 . S
H933 C941 0.950 . S
H934 C939 0.950 . S
H935 C940 0.949 . S
H936 C942 0.950 . S
H937 C943 0.950 . S
H938 C944 0.949 . S
C939 H934 0.950 . S
C939 C941 1.327 . S
C939 C945 1.429 . S
C940 C932 1.574 . S
C940 H935 0.949 . S
C940 C946 1.368 . S
C941 C925 1.349 . S
C941 H933 0.950 . S
C941 C939 1.327 . S
C942 C930 1.349 . S
C942 H936 0.950 . S
C942 C943 1.327 . S
C943 H937 0.950 . S
C943 C942 1.327 . S
C943 C947 1.429 . S
C944 C927 1.574 . S
C944 H938 0.949 . S
C944 C948 1.368 . S
C945 C926 1.429 . S
C945 C939 1.429 . S
C945 C946 1.523 . S
C946 C927 1.368 . S
C946 C940 1.368 . S
C946 C945 1.523 . S
C947 C931 1.429 . S
C947 C943 1.429 . S
C947 C948 1.523 . S
C948 C932 1.368 . S
C948 C944 1.368 . S
C948 C947 1.523 . S
H949 C924 0.950 . S
H950 C926 0.950 . S
H951 C927 0.949 . S
H952 C929 0.950 . S
H953 C931 0.950 . S
C954 C955 1.349 . S
C954 C956 1.327 . S
C954 H979 0.950 . S
C955 C954 1.349 . S
C955 C971 1.349 . S
C956 C954 1.327 . S
C956 C975 1.429 . S
C956 H980 0.950 . S
C957 C974 1.574 . S
C957 C976 1.368 . S
C957 H981 0.949 . S
H958 C962 0.949 . S
C959 C960 1.349 . S
C959 C961 1.327 . S
C959 H982 0.950 . S
C960 C959 1.349 . S
C960 C972 1.349 . S
C961 C959 1.327 . S
C961 C977 1.429 . S
C961 H983 0.950 . S
C962 H958 0.949 . S
C962 C970 1.574 . S
C962 C978 1.368 . S
H963 C971 0.950 . S
H964 C969 0.950 . S
H965 C970 0.949 . S
H966 C972 0.950 . S
H967 C973 0.950 . S
H968 C974 0.949 . S
C969 H964 0.950 . S
C969 C971 1.327 . S
C969 C975 1.429 . S
C970 C962 1.574 . S
C970 H965 0.949 . S
C970 C976 1.368 . S
C971 C955 1.349 . S
C971 H963 0.950 . S
C971 C969 1.327 . S
C972 C960 1.349 . S
C972 H966 0.950 . S
C972 C973 1.327 . S
C973 H967 0.950 . S
C973 C972 1.327 . S
C973 C977 1.429 . S
C974 C957 1.574 . S
C974 H968 0.949 . S
C974 C978 1.368 . S
C975 C956 1.429 . S
C975 C969 1.429 . S
C975 C976 1.523 . S
C976 C957 1.368 . S
C976 C970 1.368 . S
C976 C975 1.523 . S
C977 C961 1.429 . S
C977 C973 1.429 . S
C977 C978 1.523 . S
C978 C962 1.368 . S
C978 C974 1.368 . S
C978 C977 1.523 . S
H979 C954 0.950 . S
H980 C956 0.950 . S
H981 C957 0.949 . S
H982 C959 0.950 . S
H983 C961 0.950 . S
C984 C985 1.349 . S
C984 C986 1.327 . S
C984 H1009 0.950 . S
C985 C984 1.349 . S
C985 C1001 1.349 . S
C986 C984 1.327 . S
C986 C1005 1.429 . S
C986 H1010 0.950 . S
C987 C1004 1.574 . S
C987 C1006 1.368 . S
C987 H1011 0.949 . S
H988 C992 0.949 . S
C989 C990 1.349 . S
C989 C991 1.327 . S
C989 H1012 0.950 . S
C990 C989 1.349 . S
C990 C1002 1.349 . S
C991 C989 1.327 . S
C991 C1007 1.429 . S
C991 H1013 0.950 . S
C992 H988 0.949 . S
C992 C1000 1.574 . S
C992 C1008 1.368 . S
H993 C1001 0.950 . S
H994 C999 0.950 . S
H995 C1000 0.949 . S
H996 C1002 0.950 . S
H997 C1003 0.950 . S
H998 C1004 0.949 . S
C999 H994 0.950 . S
C999 C1001 1.327 . S
C999 C1005 1.429 . S
C1000 C992 1.574 . S
C1000 H995 0.949 . S
C1000 C1006 1.368 . S
C1001 C985 1.349 . S
C1001 H993 0.950 . S
C1001 C999 1.327 . S
C1002 C990 1.349 . S
C1002 H996 0.950 . S
C1002 C1003 1.327 . S
C1003 H997 0.950 . S
C1003 C1002 1.327 . S
C1003 C1007 1.429 . S
C1004 C987 1.574 . S
C1004 H998 0.949 . S
C1004 C1008 1.368 . S
C1005 C986 1.429 . S
C1005 C999 1.429 . S
C1005 C1006 1.523 . S
C1006 C987 1.368 . S
C1006 C1000 1.368 . S
C1006 C1005 1.523 . S
C1007 C991 1.429 . S
C1007 C1003 1.429 . S
C1007 C1008 1.523 . S
C1008 C992 1.368 . S
C1008 C1004 1.368 . S
C1008 C1007 1.523 . S
H1009 C984 0.950 . S
H1010 C986 0.950 . S
H1011 C987 0.949 . S
H1012 C989 0.950 . S
H1013 C991 0.950 . S
C1014 C1015 1.349 . S
C1014 C1016 1.327 . S
C1014 H1039 0.950 . S
C1015 C1014 1.349 . S
C1015 C1031 1.349 . S
C1016 C1014 1.327 . S
C1016 C1035 1.429 . S
C1016 H1040 0.950 . S
C1017 C1034 1.574 . S
C1017 C1036 1.368 . S
C1017 H1041 0.949 . S
H1018 C1022 0.949 . S
C1019 C1020 1.349 . S
C1019 C1021 1.327 . S
C1019 H1042 0.950 . S
C1020 C1019 1.349 . S
C1020 C1032 1.349 . S
C1021 C1019 1.327 . S
C1021 C1037 1.429 . S
C1021 H1043 0.950 . S
C1022 H1018 0.949 . S
C1022 C1030 1.574 . S
C1022 C1038 1.368 . S
H1023 C1031 0.950 . S
H1024 C1029 0.950 . S
H1025 C1030 0.949 . S
H1026 C1032 0.950 . S
H1027 C1033 0.950 . S
H1028 C1034 0.949 . S
C1029 H1024 0.950 . S
C1029 C1031 1.327 . S
C1029 C1035 1.429 . S
C1030 C1022 1.574 . S
C1030 H1025 0.949 . S
C1030 C1036 1.368 . S
C1031 C1015 1.349 . S
C1031 H1023 0.950 . S
C1031 C1029 1.327 . S
C1032 C1020 1.349 . S
C1032 H1026 0.950 . S
C1032 C1033 1.327 . S
C1033 H1027 0.950 . S
C1033 C1032 1.327 . S
C1033 C1037 1.429 . S
C1034 C1017 1.574 . S
C1034 H1028 0.949 . S
C1034 C1038 1.368 . S
C1035 C1016 1.429 . S
C1035 C1029 1.429 . S
C1035 C1036 1.523 . S
C1036 C1017 1.368 . S
C1036 C1030 1.368 . S
C1036 C1035 1.523 . S
C1037 C1021 1.429 . S
C1037 C1033 1.429 . S
C1037 C1038 1.523 . S
C1038 C1022 1.368 . S
C1038 C1034 1.368 . S
C1038 C1037 1.523 . S
H1039 C1014 0.950 . S
H1040 C1016 0.950 . S
H1041 C1017 0.949 . S
H1042 C1019 0.950 . S
H1043 C1021 0.950 . S
C1044 C1045 1.349 . S
C1044 C1046 1.327 . S
C1044 H1069 0.950 . S
C1045 C1044 1.349 . S
C1045 C1061 1.349 . S
C1046 C1044 1.327 . S
C1046 C1065 1.429 . S
C1046 H1070 0.950 . S
C1047 C1064 1.574 1_554 S
C1047 C1066 1.368 . S
C1047 H1071 0.949 . S
H1048 C1052 0.949 . S
C1049 C1050 1.349 . S
C1049 C1051 1.327 . S
C1049 H1072 0.950 . S
C1050 C1049 1.349 . S
C1050 C1062 1.349 . S
C1051 C1049 1.327 . S
C1051 C1067 1.429 . S
C1051 H1073 0.950 . S
C1052 H1048 0.949 . S
C1052 C1060 1.574 1_556 S
C1052 C1068 1.368 . S
H1053 C1061 0.950 . S
H1054 C1059 0.950 . S
H1055 C1060 0.949 . S
H1056 C1062 0.950 . S
H1057 C1063 0.950 . S
H1058 C1064 0.949 . S
C1059 H1054 0.950 . S
C1059 C1061 1.327 . S
C1059 C1065 1.429 . S
C1060 C1052 1.574 1_554 S
C1060 H1055 0.949 . S
C1060 C1066 1.368 . S
C1061 C1045 1.349 . S
C1061 H1053 0.950 . S
C1061 C1059 1.327 . S
C1062 C1050 1.349 . S
C1062 H1056 0.950 . S
C1062 C1063 1.327 . S
C1063 H1057 0.950 . S
C1063 C1062 1.327 . S
C1063 C1067 1.429 . S
C1064 C1047 1.574 1_556 S
C1064 H1058 0.949 . S
C1064 C1068 1.368 . S
C1065 C1046 1.429 . S
C1065 C1059 1.429 . S
C1065 C1066 1.523 . S
C1066 C1047 1.368 . S
C1066 C1060 1.368 . S
C1066 C1065 1.523 . S
C1067 C1051 1.429 . S
C1067 C1063 1.429 . S
C1067 C1068 1.523 . S
C1068 C1052 1.368 . S
C1068 C1064 1.368 . S
C1068 C1067 1.523 . S
H1069 C1044 0.950 . S
H1070 C1046 0.950 . S
H1071 C1047 0.949 . S
H1072 C1049 0.950 . S
H1073 C1051 0.950 . S
C1074 C1075 1.349 . S
C1074 C1076 1.327 . S
C1074 H1099 0.950 . S
C1075 C1074 1.349 . S
C1075 C1091 1.349 1_545 S
C1076 C1074 1.327 . S
C1076 C1095 1.429 . S
C1076 H1100 0.950 . S
C1077 C1094 1.574 1_556 S
C1077 C1096 1.331 1_565 S
C1077 H1101 0.949 . S
H1078 C1082 0.949 . S
C1079 C1080 1.349 . S
C1079 C1081 1.327 . S
C1079 H1102 0.950 . S
C1080 C1079 1.349 . S
C1080 C1092 1.349 1_565 S
C1081 C1079 1.327 . S
C1081 C1097 1.429 . S
C1081 H1103 0.950 . S
C1082 H1078 0.949 . S
C1082 C1090 1.574 1_554 S
C1082 C1098 1.321 1_545 S
H1083 C1091 0.950 . S
H1084 C1089 0.950 . S
H1085 C1090 0.949 . S
H1086 C1092 0.950 . S
H1087 C1093 0.950 . S
H1088 C1094 0.949 . S
C1089 H1084 0.950 . S
C1089 C1091 1.327 . S
C1089 C1095 1.429 1_565 S
C1090 C1082 1.574 1_556 S
C1090 H1085 0.949 . S
C1090 C1096 1.405 . S
C1091 C1075 1.349 1_565 S
C1091 H1083 0.950 . S
C1091 C1089 1.327 . S
C1092 C1080 1.349 1_545 S
C1092 H1086 0.950 . S
C1092 C1093 1.327 . S
C1093 H1087 0.950 . S
C1093 C1092 1.327 . S
C1093 C1097 1.429 1_545 S
C1094 C1077 1.574 1_554 S
C1094 H1088 0.949 . S
C1094 C1098 1.415 . S
C1095 C1076 1.429 . S
C1095 C1089 1.429 1_545 S
C1095 C1096 1.524 . S
C1096 C1077 1.331 1_545 S
C1096 C1090 1.405 . S
C1096 C1095 1.524 . S
C1097 C1081 1.429 . S
C1097 C1093 1.429 1_565 S
C1097 C1098 1.525 . S
C1098 C1082 1.321 1_565 S
C1098 C1094 1.415 . S
C1098 C1097 1.525 . S
H1099 C1074 0.950 . S
H1100 C1076 0.950 . S
H1101 C1077 0.949 . S
H1102 C1079 0.950 . S
H1103 C1081 0.950 . S
C1104 C1105 1.349 . S
C1104 C1106 1.327 . S
C1104 H1129 0.950 . S
C1105 C1104 1.349 . S
C1105 C1121 1.375 . S
C1106 C1104 1.327 . S
C1106 C1125 1.429 . S
C1106 H1130 0.950 . S
C1107 C1124 1.574 1_556 S
C1107 C1126 1.347 1_455 S
C1107 H1131 0.949 . S
H1108 C1112 0.949 . S
C1109 C1110 1.349 . S
C1109 C1111 1.327 . S
C1109 H1132 0.950 . S
C1110 C1109 1.349 . S
C1110 C1122 1.349 . S
C1111 C1109 1.327 . S
C1111 C1127 1.429 . S
C1111 H1133 0.950 . S
C1112 H1108 0.949 . S
C1112 C1120 1.574 1_554 S
C1112 C1128 1.341 1_655 S
H1113 C1121 0.921 1_455 S
H1114 C1119 0.953 1_455 S
H1115 C1120 0.949 . S
H1116 C1122 0.950 1_655 S
H1117 C1123 0.946 1_655 S
H1118 C1124 0.949 . S
C1119 H1114 0.953 1_655 S
C1119 C1121 1.326 . S
C1119 C1125 1.426 . S
C1120 C1112 1.574 1_556 S
C1120 H1115 0.949 . S
C1120 C1126 1.390 . S
C1121 C1105 1.375 . S
C1121 H1113 0.921 1_655 S
C1121 C1119 1.326 . S
C1122 C1110 1.349 . S
C1122 H1116 0.950 1_455 S
C1122 C1123 1.327 . S
C1123 H1117 0.946 1_455 S
C1123 C1122 1.327 . S
C1123 C1127 1.432 . S
C1124 C1107 1.574 1_554 S
C1124 H1118 0.949 . S
C1124 C1128 1.396 . S
C1125 C1106 1.429 . S
C1125 C1119 1.426 . S
C1125 C1126 1.524 . S
C1126 C1107 1.347 1_655 S
C1126 C1120 1.390 . S
C1126 C1125 1.524 . S
C1127 C1111 1.429 . S
C1127 C1123 1.432 . S
C1127 C1128 1.525 . S
C1128 C1112 1.341 1_455 S
C1128 C1124 1.396 . S
C1128 C1127 1.525 . S
H1129 C1104 0.950 . S
H1130 C1106 0.950 . S
H1131 C1107 0.949 . S
H1132 C1109 0.950 . S
H1133 C1111 0.950 . S
C1134 C1135 1.349 . S
C1134 C1136 1.327 . S
C1134 H1159 0.950 . S
C1135 C1134 1.349 . S
C1135 C1151 1.349 . S
C1136 C1134 1.327 . S
C1136 C1155 1.429 . S
C1136 H1160 0.950 . S
C1137 C1154 1.574 . S
C1137 C1156 1.368 . S
C1137 H1161 0.949 . S
H1138 C1142 0.949 . S
C1139 C1140 1.349 . S
C1139 C1141 1.327 . S
C1139 H1162 0.950 . S
C1140 C1139 1.349 . S
C1140 C1152 1.349 . S
C1141 C1139 1.327 . S
C1141 C1157 1.429 . S
C1141 H1163 0.950 . S
C1142 H1138 0.949 . S
C1142 C1150 1.574 . S
C1142 C1158 1.368 . S
H1143 C1151 0.950 . S
H1144 C1149 0.950 . S
H1145 C1150 0.949 . S
H1146 C1152 0.950 . S
H1147 C1153 0.950 . S
H1148 C1154 0.949 . S
C1149 H1144 0.950 . S
C1149 C1151 1.327 . S
C1149 C1155 1.429 . S
C1150 C1142 1.574 . S
C1150 H1145 0.949 . S
C1150 C1156 1.368 . S
C1151 C1135 1.349 . S
C1151 H1143 0.950 . S
C1151 C1149 1.327 . S
C1152 C1140 1.349 . S
C1152 H1146 0.950 . S
C1152 C1153 1.327 . S
C1153 H1147 0.950 . S
C1153 C1152 1.327 . S
C1153 C1157 1.429 . S
C1154 C1137 1.574 . S
C1154 H1148 0.949 . S
C1154 C1158 1.368 . S
C1155 C1136 1.429 . S
C1155 C1149 1.429 . S
C1155 C1156 1.523 . S
C1156 C1137 1.368 . S
C1156 C1150 1.368 . S
C1156 C1155 1.523 . S
C1157 C1141 1.429 . S
C1157 C1153 1.429 . S
C1157 C1158 1.523 . S
C1158 C1142 1.368 . S
C1158 C1154 1.368 . S
C1158 C1157 1.523 . S
H1159 C1134 0.950 . S
H1160 C1136 0.950 . S
H1161 C1137 0.949 . S
H1162 C1139 0.950 . S
H1163 C1141 0.950 . S
C1164 C1165 1.349 . S
C1164 C1166 1.327 . S
C1164 H1189 0.950 . S
C1165 C1164 1.349 . S
C1165 C1181 1.349 . S
C1166 C1164 1.327 . S
C1166 C1185 1.429 . S
C1166 H1190 0.950 . S
C1167 C1184 1.574 . S
C1167 C1186 1.368 . S
C1167 H1191 0.949 . S
H1168 C1172 0.949 . S
C1169 C1170 1.349 . S
C1169 C1171 1.327 . S
C1169 H1192 0.950 . S
C1170 C1169 1.349 . S
C1170 C1182 1.349 . S
C1171 C1169 1.327 . S
C1171 C1187 1.429 . S
C1171 H1193 0.950 . S
C1172 H1168 0.949 . S
C1172 C1180 1.574 . S
C1172 C1188 1.368 . S
H1173 C1181 0.950 . S
H1174 C1179 0.950 . S
H1175 C1180 0.949 . S
H1176 C1182 0.950 . S
H1177 C1183 0.950 . S
H1178 C1184 0.949 . S
C1179 H1174 0.950 . S
C1179 C1181 1.327 . S
C1179 C1185 1.429 . S
C1180 C1172 1.574 . S
C1180 H1175 0.949 . S
C1180 C1186 1.368 . S
C1181 C1165 1.349 . S
C1181 H1173 0.950 . S
C1181 C1179 1.327 . S
C1182 C1170 1.349 . S
C1182 H1176 0.950 . S
C1182 C1183 1.327 . S
C1183 H1177 0.950 . S
C1183 C1182 1.327 . S
C1183 C1187 1.429 . S
C1184 C1167 1.574 . S
C1184 H1178 0.949 . S
C1184 C1188 1.368 . S
C1185 C1166 1.429 . S
C1185 C1179 1.429 . S
C1185 C1186 1.523 . S
C1186 C1167 1.368 . S
C1186 C1180 1.368 . S
C1186 C1185 1.523 . S
C1187 C1171 1.429 . S
C1187 C1183 1.429 . S
C1187 C1188 1.523 . S
C1188 C1172 1.368 . S
C1188 C1184 1.368 . S
C1188 C1187 1.523 . S
H1189 C1164 0.950 . S
H1190 C1166 0.950 . S
H1191 C1167 0.949 . S
H1192 C1169 0.950 . S
H1193 C1171 0.950 . S
C1194 C1195 1.349 . S
C1194 C1196 1.327 . S
C1194 H1219 0.950 . S
C1195 C1194 1.349 . S
C1195 C1211 1.349 . S
C1196 C1194 1.327 . S
C1196 C1215 1.429 . S
C1196 H1220 0.950 . S
C1197 C1214 1.574 . S
C1197 C1216 1.368 . S
C1197 H1221 0.949 . S
H1198 C1202 0.949 . S
C1199 C1200 1.349 . S
C1199 C1201 1.327 . S
C1199 H1222 0.950 . S
C1200 C1199 1.349 . S
C1200 C1212 1.349 . S
C1201 C1199 1.327 . S
C1201 C1217 1.429 . S
C1201 H1223 0.950 . S
C1202 H1198 0.949 . S
C1202 C1210 1.574 . S
C1202 C1218 1.368 . S
H1203 C1211 0.950 . S
H1204 C1209 0.950 . S
H1205 C1210 0.949 . S
H1206 C1212 0.950 . S
H1207 C1213 0.950 . S
H1208 C1214 0.949 . S
C1209 H1204 0.950 . S
C1209 C1211 1.327 . S
C1209 C1215 1.429 . S
C1210 C1202 1.574 . S
C1210 H1205 0.949 . S
C1210 C1216 1.368 . S
C1211 C1195 1.349 . S
C1211 H1203 0.950 . S
C1211 C1209 1.327 . S
C1212 C1200 1.349 . S
C1212 H1206 0.950 . S
C1212 C1213 1.327 . S
C1213 H1207 0.950 . S
C1213 C1212 1.327 . S
C1213 C1217 1.429 . S
C1214 C1197 1.574 . S
C1214 H1208 0.949 . S
C1214 C1218 1.368 . S
C1215 C1196 1.429 . S
C1215 C1209 1.429 . S
C1215 C1216 1.523 . S
C1216 C1197 1.368 . S
C1216 C1210 1.368 . S
C1216 C1215 1.523 . S
C1217 C1201 1.429 . S
C1217 C1213 1.429 . S
C1217 C1218 1.523 . S
C1218 C1202 1.368 . S
C1218 C1214 1.368 . S
C1218 C1217 1.523 . S
H1219 C1194 0.950 . S
H1220 C1196 0.950 . S
H1221 C1197 0.949 . S
H1222 C1199 0.950 . S
H1223 C1201 0.950 . S
C1224 C1225 1.349 . S
C1224 C1226 1.327 . S
C1224 H1249 0.950 . S
C1225 C1224 1.349 . S
C1225 C1241 1.349 . S
C1226 C1224 1.327 . S
C1226 C1245 1.429 . S
C1226 H1250 0.950 . S
C1227 C1244 1.574 . S
C1227 C1246 1.368 . S
C1227 H1251 0.949 . S
H1228 C1232 0.949 . S
C1229 C1230 1.349 . S
C1229 C1231 1.327 . S
C1229 H1252 0.950 . S
C1230 C1229 1.349 . S
C1230 C1242 1.349 . S
C1231 C1229 1.327 . S
C1231 C1247 1.429 . S
C1231 H1253 0.950 . S
C1232 H1228 0.949 . S
C1232 C1240 1.574 . S
C1232 C1248 1.368 . S
H1233 C1241 0.950 . S
H1234 C1239 0.950 . S
H1235 C1240 0.949 . S
H1236 C1242 0.950 . S
H1237 C1243 0.950 . S
H1238 C1244 0.949 . S
C1239 H1234 0.950 . S
C1239 C1241 1.327 . S
C1239 C1245 1.429 . S
C1240 C1232 1.574 . S
C1240 H1235 0.949 . S
C1240 C1246 1.368 . S
C1241 C1225 1.349 . S
C1241 H1233 0.950 . S
C1241 C1239 1.327 . S
C1242 C1230 1.349 . S
C1242 H1236 0.950 . S
C1242 C1243 1.327 . S
C1243 H1237 0.950 . S
C1243 C1242 1.327 . S
C1243 C1247 1.429 . S
C1244 C1227 1.574 . S
C1244 H1238 0.949 . S
C1244 C1248 1.368 . S
C1245 C1226 1.429 . S
C1245 C1239 1.429 . S
C1245 C1246 1.523 . S
C1246 C1227 1.368 . S
C1246 C1240 1.368 . S
C1246 C1245 1.523 . S
C1247 C1231 1.429 . S
C1247 C1243 1.429 . S
C1247 C1248 1.523 . S
C1248 C1232 1.368 . S
C1248 C1244 1.368 . S
C1248 C1247 1.523 . S
H1249 C1224 0.950 . S
H1250 C1226 0.950 . S
H1251 C1227 0.949 . S
H1252 C1229 0.950 . S
H1253 C1231 0.950 . S
C1254 C1255 1.349 . S
C1254 C1256 1.327 . S
C1254 H1279 0.950 . S
C1255 C1254 1.349 . S
C1255 C1271 1.349 . S
C1256 C1254 1.327 . S
C1256 C1275 1.429 . S
C1256 H1280 0.950 . S
C1257 C1274 1.574 . S
C1257 C1276 1.368 . S
C1257 H1281 0.949 . S
H1258 C1262 0.949 . S
C1259 C1260 1.349 . S
C1259 C1261 1.327 . S
C1259 H1282 0.950 . S
C1260 C1259 1.349 . S
C1260 C1272 1.349 . S
C1261 C1259 1.327 . S
C1261 C1277 1.429 . S
C1261 H1283 0.950 . S
C1262 H1258 0.949 . S
C1262 C1270 1.574 . S
C1262 C1278 1.368 . S
H1263 C1271 0.950 . S
H1264 C1269 0.950 . S
H1265 C1270 0.949 . S
H1266 C1272 0.950 . S
H1267 C1273 0.950 . S
H1268 C1274 0.949 . S
C1269 H1264 0.950 . S
C1269 C1271 1.327 . S
C1269 C1275 1.429 . S
C1270 C1262 1.574 . S
C1270 H1265 0.949 . S
C1270 C1276 1.368 . S
C1271 C1255 1.349 . S
C1271 H1263 0.950 . S
C1271 C1269 1.327 . S
C1272 C1260 1.349 . S
C1272 H1266 0.950 . S
C1272 C1273 1.327 . S
C1273 H1267 0.950 . S
C1273 C1272 1.327 . S
C1273 C1277 1.429 . S
C1274 C1257 1.574 . S
C1274 H1268 0.949 . S
C1274 C1278 1.368 . S
C1275 C1256 1.429 . S
C1275 C1269 1.429 . S
C1275 C1276 1.523 . S
C1276 C1257 1.368 . S
C1276 C1270 1.368 . S
C1276 C1275 1.523 . S
C1277 C1261 1.429 . S
C1277 C1273 1.429 . S
C1277 C1278 1.523 . S
C1278 C1262 1.368 . S
C1278 C1274 1.368 . S
C1278 C1277 1.523 . S
H1279 C1254 0.950 . S
H1280 C1256 0.950 . S
H1281 C1257 0.949 . S
H1282 C1259 0.950 . S
H1283 C1261 0.950 . S
C1284 C1285 1.349 . S
C1284 C1286 1.327 . S
C1284 H1309 0.950 . S
C1285 C1284 1.349 . S
C1285 C1301 1.349 . S
C1286 C1284 1.327 . S
C1286 C1305 1.429 . S
C1286 H1310 0.950 . S
C1287 C1304 1.574 . S
C1287 C1306 1.368 . S
C1287 H1311 0.949 . S
H1288 C1292 0.949 . S
C1289 C1290 1.349 . S
C1289 C1291 1.327 . S
C1289 H1312 0.950 . S
C1290 C1289 1.349 . S
C1290 C1302 1.349 . S
C1291 C1289 1.327 . S
C1291 C1307 1.429 . S
C1291 H1313 0.950 . S
C1292 H1288 0.949 . S
C1292 C1300 1.574 . S
C1292 C1308 1.368 . S
H1293 C1301 0.950 . S
H1294 C1299 0.950 . S
H1295 C1300 0.949 . S
H1296 C1302 0.950 . S
H1297 C1303 0.950 . S
H1298 C1304 0.949 . S
C1299 H1294 0.950 . S
C1299 C1301 1.327 . S
C1299 C1305 1.429 . S
C1300 C1292 1.574 . S
C1300 H1295 0.949 . S
C1300 C1306 1.368 . S
C1301 C1285 1.349 . S
C1301 H1293 0.950 . S
C1301 C1299 1.327 . S
C1302 C1290 1.349 . S
C1302 H1296 0.950 . S
C1302 C1303 1.327 . S
C1303 H1297 0.950 . S
C1303 C1302 1.327 . S
C1303 C1307 1.429 . S
C1304 C1287 1.574 . S
C1304 H1298 0.949 . S
C1304 C1308 1.368 . S
C1305 C1286 1.429 . S
C1305 C1299 1.429 . S
C1305 C1306 1.523 . S
C1306 C1287 1.368 . S
C1306 C1300 1.368 . S
C1306 C1305 1.523 . S
C1307 C1291 1.429 . S
C1307 C1303 1.429 . S
C1307 C1308 1.523 . S
C1308 C1292 1.368 . S
C1308 C1304 1.368 . S
C1308 C1307 1.523 . S
H1309 C1284 0.950 . S
H1310 C1286 0.950 . S
H1311 C1287 0.949 . S
H1312 C1289 0.950 . S
H1313 C1291 0.950 . S
C235 C130 0.921 . S
C240 C0 0.920 . S
C265 C13 0.913 . S
C270 C143 0.906 . S
C295 C117 0.911 . S
C300 C26 0.917 . S
C325 C182 0.921 . S
C330 C39 0.920 . S
C355 C52 0.915 . S
C360 C156 0.909 . S
C385 C169 0.911 . S
C390 C65 0.911 . S
C415 C78 0.937 . S
C420 C208 0.938 . S
C445 C221 0.928 . S
C450 C91 0.928 . S
C475 C104 0.938 . S
C480 C195 0.937 . S
C505 C5 0.734 . S
C510 C23 0.717 . S
C535 C18 0.732 . S
C540 C36 0.715 . S
C565 C10 0.745 . S
C570 C31 0.752 . S
C595 C75 0.718 . S
C600 C44 0.738 . S
C625 C49 0.745 . S
C630 C57 0.752 . S
C655 C70 0.732 . S
C660 C62 0.715 . S
C685 C83 0.748 . S
C690 C101 0.746 . S
C715 C96 0.741 . S
C720 C114 0.732 . S
C745 C88 0.737 . S
C750 C109 0.743 . S
C775 C153 0.751 . S
C780 C122 0.750 . S
C805 C127 0.726 . S
C810 C135 0.737 . S
C835 C140 0.728 . S
C840 C148 0.739 . S
C865 C179 0.751 . S
C870 C161 0.750 . S
C895 C192 0.728 . S
C900 C174 0.739 . S
C925 C166 0.726 . S
C930 C187 0.737 . S
C955 C200 0.748 . S
C960 C231 0.746 . S
C985 C213 0.743 . S
C990 C205 0.738 . S
C1015 C226 0.741 . S
C1020 C218 0.732 . S
C1045 C8 1.467 . S
C1050 C47 1.467 . S
C1075 C60 1.454 . S
C1080 C21 1.449 . S
C1105 C73 1.452 . S
C1110 C34 1.454 . S
C1135 C125 1.469 . S
C1140 C86 1.469 . S
C1165 C138 1.459 . S
C1170 C99 1.460 . S
C1195 C112 1.470 . S
C1200 C151 1.471 . S
C1225 C203 1.469 . S
C1230 C164 1.468 . S
C1255 C216 1.470 . S
C1260 C177 1.471 . S
C1285 C229 1.460 . S
C1290 C190 1.459 . S
