# Generated by pormake.
# Topology vby, (6)-cn, num edge types: 1
# Building blocks:
#     Node 0, Type 0, BuildingBlock: KUMBUR_clean_sbu_0, # of connection points: 6
#     Node 1, Type 0, BuildingBlock: KUMBUR_clean_sbu_0, # of connection points: 6
#     Node 2, Type 0, BuildingBlock: KUMBUR_clean_sbu_0, # of connection points: 6
#     Node 3, Type 0, BuildingBlock: KUMBUR_clean_sbu_0, # of connection points: 6
#     Node 4, Type 0, BuildingBlock: KUMBUR_clean_sbu_0, # of connection points: 6
#     Node 5, Type 0, BuildingBlock: KUMBUR_clean_sbu_0, # of connection points: 6
#     Node 6, Type 0, BuildingBlock: KUMBUR_clean_sbu_0, # of connection points: 6
#     Node 7, Type 0, BuildingBlock: KUMBUR_clean_sbu_0, # of connection points: 6
#     Edge 8, Type (0, 0), BuildingBlock: XUDNAN_clean_linker_2, # of connection points: 2
#     Edge 9, Type (0, 0), BuildingBlock: XUDNAN_clean_linker_2, # of connection points: 2
#     Edge 10, Type (0, 0), BuildingBlock: XUDNAN_clean_linker_2, # of connection points: 2
#     Edge 11, Type (0, 0), BuildingBlock: XUDNAN_clean_linker_2, # of connection points: 2
#     Edge 12, Type (0, 0), BuildingBlock: XUDNAN_clean_linker_2, # of connection points: 2
#     Edge 13, Type (0, 0), BuildingBlock: XUDNAN_clean_linker_2, # of connection points: 2
#     Edge 14, Type (0, 0), BuildingBlock: XUDNAN_clean_linker_2, # of connection points: 2
#     Edge 15, Type (0, 0), BuildingBlock: XUDNAN_clean_linker_2, # of connection points: 2
#     Edge 16, Type (0, 0), BuildingBlock: XUDNAN_clean_linker_2, # of connection points: 2
#     Edge 17, Type (0, 0), BuildingBlock: XUDNAN_clean_linker_2, # of connection points: 2
#     Edge 18, Type (0, 0), BuildingBlock: XUDNAN_clean_linker_2, # of connection points: 2
#     Edge 19, Type (0, 0), BuildingBlock: XUDNAN_clean_linker_2, # of connection points: 2
#     Edge 20, Type (0, 0), BuildingBlock: XUDNAN_clean_linker_2, # of connection points: 2
#     Edge 21, Type (0, 0), BuildingBlock: XUDNAN_clean_linker_2, # of connection points: 2
#     Edge 22, Type (0, 0), BuildingBlock: XUDNAN_clean_linker_2, # of connection points: 2
#     Edge 23, Type (0, 0), BuildingBlock: XUDNAN_clean_linker_2, # of connection points: 2
#     Edge 24, Type (0, 0), BuildingBlock: XUDNAN_clean_linker_2, # of connection points: 2
#     Edge 25, Type (0, 0), BuildingBlock: XUDNAN_clean_linker_2, # of connection points: 2
#     Edge 26, Type (0, 0), BuildingBlock: XUDNAN_clean_linker_2, # of connection points: 2
#     Edge 27, Type (0, 0), BuildingBlock: XUDNAN_clean_linker_2, # of connection points: 2
#     Edge 28, Type (0, 0), BuildingBlock: XUDNAN_clean_linker_2, # of connection points: 2
#     Edge 29, Type (0, 0), BuildingBlock: XUDNAN_clean_linker_2, # of connection points: 2
#     Edge 30, Type (0, 0), BuildingBlock: XUDNAN_clean_linker_2, # of connection points: 2
#     Edge 31, Type (0, 0), BuildingBlock: XUDNAN_clean_linker_2, # of connection points: 2
# Relax obj value: 0.109
# Max RMSD: 0.196
# Mean RMSD: 0.196
data_MOF--net-vby--node1-KUMBUR_clean_sbu_0--edge1-XUDNAN_clean_linker_2
_symmetry_space_group_name_H-M    P1
_symmetry_Int_Tables_number       1
_symmetry_cell_setting            triclinic
loop_
_symmetry_equiv_pos_as_xyz
'x, y, z'
_cell_length_a     14.705484
_cell_length_b     98.477371
_cell_length_c     30.114923
_cell_angle_alpha  114.70864
_cell_angle_beta   90.077747
_cell_angle_gamma 89.765554
loop_
_atom_site_label
_atom_site_type_symbol
_atom_site_fract_x
_atom_site_fract_y
_atom_site_fract_z
_atom_type_partial_charge
Tb0 Tb 0.12623 0.40356 0.02872 0.0
C1 C 0.96023 0.34473 0.90509 0.0
C2 C 0.8275 0.34485 0.95268 0.0
C3 C 0.82422 0.33136 0.8642 0.0
C4 C 0.91725 0.34941 0.94979 0.0
C5 C 0.91544 0.33519 0.86192 0.0
C6 C 0.78027 0.3362 0.90954 0.0
C7 C 0.05764 0.33239 0.81871 0.0
N8 N 0.04907 0.34835 0.90461 0.0
C9 C 0.0994 0.34173 0.86262 0.0
C10 C 0.96492 0.32929 0.8182 0.0
Tb11 Tb 0.11099 0.36356 0.97867 0.0
N12 N 0.96554 0.35761 0.99066 0.0
C13 C 0.92957 0.36087 0.03586 0.0
C14 C 0.78914 0.34869 -0.00115 0.0
C15 C 0.84094 0.35653 0.04062 0.0
H16 H 0.17117 0.3441 0.86291 0.0
H17 H 0.81244 0.35933 0.07651 0.0
H18 H 0.71081 0.33277 0.91097 0.0
H19 H 0.09703 0.32756 0.78535 0.0
H20 H 0.96842 0.36694 0.06848 0.0
H21 H 0.35487 0.4029 0.88543 0.0
H22 H 0.72058 0.34533 0.00261 0.0
H23 H 0.15862 0.4174 0.15295 0.0
H24 H 0.21968 0.39599 0.91612 0.0
H25 H 0.28002 0.42894 0.2102 0.0
H26 H 0.78813 0.32423 0.83136 0.0
H27 H 0.47698 0.41698 0.94182 0.0
H28 H 0.53569 0.42935 0.02676 0.0
H29 H 0.93296 0.32194 0.78422 0.0
H30 H 0.51585 0.43612 0.11426 0.0
N31 N 0.25836 0.4063 0.99177 0.0
C32 C 0.26905 0.40237 0.94259 0.0
C33 C 0.41625 0.41406 0.95617 0.0
C34 C 0.40631 0.41799 0.00611 0.0
C35 C 0.34746 0.40616 0.92432 0.0
C36 C 0.32599 0.41385 0.02316 0.0
H37 H 0.42502 0.43499 0.18194 0.0
N38 N 0.23748 0.41339 0.08824 0.0
C39 C 0.29185 0.42547 0.1715 0.0
C40 C 0.31583 0.41729 0.07253 0.0
C41 C 0.2236 0.4182 0.13778 0.0
C42 C 0.37314 0.42898 0.15549 0.0
C43 C 0.385 0.42531 0.10584 0.0
O44 O 0.09428 0.42533 0.07987 0.0
O45 O 0.0358 0.38446 0.00618 0.0
O46 O 0.07069 0.37009 0.92019 0.0
O47 O 0.08286 0.39617 0.95195 0.0
O48 O 0.97605 0.4046 0.03996 0.0
O49 O 0.10605 0.42035 0.00323 0.0
O50 O 0.19824 0.34467 0.95303 0.0
O51 O 0.2071 0.38265 0.00867 0.0
O52 O 0.0944 0.39804 0.09061 0.0
O53 O 0.13063 0.37271 0.05754 0.0
O54 O 0.24243 0.36435 0.946 0.0
O55 O 0.11354 0.34943 0.01547 0.0
C56 C 0.95693 0.39057 0.01913 0.0
C57 C 1.01912 0.44199 0.05246 0.0
C58 C 0.97659 0.46604 0.05139 0.0
C59 C 0.03997 0.4543 0.04169 0.0
C60 C 0.89147 0.46508 0.07103 0.0
C61 C 0.93337 0.44133 0.07183 0.0
C62 C 0.86996 0.45278 0.08076 0.0
C63 C 0.06538 0.38293 0.91592 0.0
C64 C 0.09032 0.43069 0.04692 0.0
C65 C 0.46304 0.42981 0.08902 0.0
C66 C 0.4742 0.42601 0.03925 0.0
C67 C 0.27266 0.37689 0.978 0.0
C68 C 0.14974 0.32389 0.96824 0.0
C69 C 0.20213 0.31444 0.98325 0.0
C70 C 0.17894 0.29914 0.96775 0.0
C71 C 0.10371 0.29355 0.93654 0.0
C72 C 0.07488 0.31784 0.93763 0.0
C73 C 0.0523 0.30283 0.92178 0.0
C74 C 0.11286 0.38551 0.09503 0.0
C75 C 0.17153 0.34005 0.98557 0.0
H76 H 0.10647 0.45498 0.02726 0.0
H77 H 0.84106 0.47382 0.07848 0.0
H78 H 0.91576 0.43214 0.0809 0.0
H79 H 0.80406 0.4522 0.09582 0.0
H80 H 0.25952 0.31903 0.00745 0.0
H81 H 0.08499 0.28187 0.92285 0.0
H82 H 1.03332 0.32465 0.92592 0.0
H83 H 0.99449 0.29835 0.89785 0.0
Tb84 Tb 0.97368 0.65622 0.04986 0.0
C85 C 0.88025 0.59787 0.87403 0.0
C86 C 0.72019 0.59361 0.88137 0.0
C87 C 0.79182 0.58355 0.80125 0.0
C88 C 0.80383 0.60003 0.90271 0.0
C89 C 0.87573 0.58939 0.82308 0.0
C90 C 0.71408 0.58568 0.83036 0.0
C91 C 0.03805 0.59254 0.81953 0.0
N92 N 0.95988 0.60378 0.89651 0.0
C93 C 0.03895 0.60101 0.87015 0.0
C94 C 0.95603 0.58676 0.79585 0.0
Tb95 Tb 0.9555 0.61636 0.98001 0.0
N96 N 0.81305 0.60753 0.95184 0.0
C97 C 0.74354 0.60752 0.98193 0.0
C98 C 0.64643 0.5948 0.91209 0.0
C99 C 0.65873 0.60153 0.96266 0.0
H100 H 0.10266 0.6055 0.88791 0.0
H101 H 0.60313 0.60205 0.98685 0.0
H102 H 0.65027 0.58077 0.81323 0.0
H103 H 0.10057 0.59052 0.79879 0.0
H104 H 0.75296 0.61241 0.02113 0.0
H105 H 0.30705 0.6731 0.01692 0.0
H106 H 0.58094 0.59006 0.8972 0.0
H107 H 0.85807 0.6657 0.15419 0.0
H108 H 0.15546 0.66206 0.9945 0.0
H109 H 0.88613 0.6791 0.24215 0.0
H110 H 0.78673 0.5771 0.76208 0.0
H111 H 0.35493 0.68436 0.10351 0.0
H112 H 0.31514 0.69159 0.19166 0.0
H113 H 0.95558 0.58018 0.75664 0.0
H114 H 0.19957 0.69354 0.25319 0.0
N115 N 0.11749 0.66614 0.06734 0.0
C116 C 0.17492 0.6667 0.03244 0.0
C117 C 0.28839 0.67929 0.09382 0.0
C118 C 0.22778 0.67944 0.12973 0.0
C119 C 0.26141 0.67303 0.04499 0.0
C120 C 0.14168 0.67278 0.1151 0.0
H121 H 0.03817 0.6895 0.27225 0.0
N122 N 0.99406 0.66795 0.13335 0.0
C123 C 0.94066 0.67767 0.21645 0.0
C124 C 0.07737 0.67385 0.14947 0.0
C125 C 0.92509 0.67006 0.16621 0.0
C126 C 1.02663 0.68347 0.23332 0.0
C127 C 0.09635 0.68162 0.19975 0.0
O128 O 0.877 0.67362 0.06783 0.0
O129 O 0.88046 0.63765 0.00838 0.0
O130 O 0.94334 0.62646 0.92724 0.0
O131 O 1.01274 0.6493 0.97295 0.0
O132 O 0.83056 0.65429 0.06912 0.0
O133 O 0.98745 0.67211 0.02008 0.0
O134 O 1.03209 0.59672 0.96478 0.0
O135 O 0.04654 0.63528 0.0143 0.0
O136 O 1.00974 0.64516 0.09719 0.0
O137 O 0.92252 0.62394 0.05822 0.0
O138 O 0.10642 0.6155 0.97695 0.0
O139 O 0.9123 0.60154 0.00966 0.0
C140 C 0.80736 0.64198 0.03378 0.0
C141 C 0.93143 0.6964 0.069 0.0
C142 C 0.91719 0.72165 0.07222 0.0
C143 C 0.90233 0.70608 0.04775 0.0
C144 C 0.96074 0.72738 0.11785 0.0
C145 C 0.97369 0.70253 0.11494 0.0
C146 C 0.9883 0.71788 0.1391 0.0
C147 C 0.98204 0.63904 0.93093 0.0
C148 C 0.91785 0.68001 0.04339 0.0
C149 C 0.18329 0.68767 0.21472 0.0
C150 C 0.24907 0.68655 0.17972 0.0
C151 C 0.1256 0.62923 0.00334 0.0
C152 C 1.02314 0.58617 0.02276 0.0
C153 C 1.01174 0.57099 0.01358 0.0
C154 C 0.04831 0.56526 0.04577 0.0
C155 C 0.0961 0.57503 0.08727 0.0
C156 C 0.07342 0.59551 0.0636 0.0
C157 C 0.10891 0.58999 0.09586 0.0
C158 C 0.96894 0.63316 0.09671 0.0
C159 C 0.97914 0.5922 0.99059 0.0
H160 H 0.86944 0.70152 0.01231 0.0
H161 H 0.97304 0.73927 0.13721 0.0
H162 H 0.99523 0.69547 0.13233 0.0
H163 H 1.02126 0.72244 0.17447 0.0
H164 H 0.97323 0.56371 0.98189 0.0
H165 H 0.12537 0.571 0.11259 0.0
H166 H 0.08458 0.6071 0.07071 0.0
H167 H 0.1467 0.59733 0.12766 0.0
Tb168 Tb 0.08435 0.61581 0.49509 0.0
C169 C 0.94099 0.67544 0.60452 0.0
C170 C 0.79837 0.67383 0.56273 0.0
C171 C 0.80968 0.68947 0.64982 0.0
C172 C 0.88985 0.66944 0.56253 0.0
C173 C 0.90287 0.6861 0.64817 0.0
C174 C 0.75747 0.68336 0.60703 0.0
C175 C 0.05467 0.69171 0.68137 0.0
N176 N 1.03143 0.67243 0.60054 0.0
C177 C 0.08926 0.68122 0.63694 0.0
C178 C 0.96079 0.69387 0.68749 0.0
Tb179 Tb 0.08183 0.65463 0.52666 0.0
N180 N 0.93306 0.66074 0.52038 0.0
C181 C 0.89072 0.65714 0.47647 0.0
C182 C 0.75285 0.66931 0.51806 0.0
C183 C 0.80011 0.66131 0.47466 0.0
H184 H 0.16197 0.67955 0.63244 0.0
H185 H 0.76651 0.65817 0.43978 0.0
H186 H 0.687 0.68673 0.60808 0.0
H187 H 0.10044 0.69814 0.71077 0.0
H188 H 0.92617 0.65091 0.44269 0.0
H189 H 0.28764 0.60713 0.63376 0.0
H190 H 0.68262 0.67246 0.51657 0.0
H191 H 0.12655 0.60244 0.37371 0.0
H192 H 0.1478 0.61096 0.59793 0.0
H193 H 0.256 0.59383 0.31917 0.0
H194 H 0.77868 0.69745 0.6832 0.0
H195 H 0.43048 0.60138 0.58649 0.0
H196 H 0.50786 0.59512 0.50671 0.0
H197 H 0.93425 0.70216 0.72166 0.0
H198 H 0.49855 0.59097 0.42061 0.0
N199 N 0.21021 0.61046 0.53253 0.0
C200 C 0.2095 0.60984 0.5774 0.0
C201 C 0.36916 0.60372 0.57087 0.0
C202 C 0.36773 0.60242 0.52296 0.0
C203 C 0.289 0.60707 0.59774 0.0
C204 C 0.28608 0.6057 0.50436 0.0
H205 H 0.40547 0.59044 0.35059 0.0
N206 N 0.20161 0.60657 0.43918 0.0
C207 C 0.2649 0.59684 0.35783 0.0
C208 C 0.28122 0.60351 0.45608 0.0
C209 C 0.19152 0.60235 0.38988 0.0
C210 C 0.34876 0.5948 0.37556 0.0
C211 C 0.35729 0.59777 0.42492 0.0
O212 O 1.02284 0.5972 0.4392 0.0
O213 O 0.99457 0.63465 0.50366 0.0
O214 O 0.06666 0.65238 0.59596 0.0
O215 O 0.07133 0.62677 0.57455 0.0
O216 O 0.95046 0.62033 0.53163 0.0
O217 O 0.05752 0.59657 0.50728 0.0
O218 O 0.1786 0.67164 0.53731 0.0
O219 O 0.17063 0.63471 0.50109 0.0
O220 O 1.03214 0.61941 0.43224 0.0
O221 O 0.09372 0.64246 0.44676 0.0
O222 O 0.21537 0.65361 0.55794 0.0
O223 O 0.07421 0.66724 0.48457 0.0
C224 C 0.92569 0.63194 0.52509 0.0
C225 C 0.06178 0.57331 0.43722 0.0
C226 C 0.0823 0.54808 0.43368 0.0
C227 C 0.05865 0.5633 0.45994 0.0
C228 C 0.11064 0.54306 0.3849 0.0
C229 C 0.09105 0.56791 0.38836 0.0
C230 C 0.11569 0.55294 0.36265 0.0
C231 C 0.06654 0.64077 0.60718 0.0
C232 C 1.02773 0.58892 0.46331 0.0
C233 C 0.43926 0.5951 0.4438 0.0
C234 C 0.44462 0.5975 0.49282 0.0
C235 C 0.23924 0.64018 0.52944 0.0
C236 C 0.12567 0.69229 0.52268 0.0
C237 C 0.17608 0.70071 0.50292 0.0
C238 C 0.16032 0.7163 0.51906 0.0
C239 C 0.094 0.7232 0.5552 0.0
C240 C 0.05835 0.69959 0.55753 0.0
C241 C 0.0434 0.71489 0.57402 0.0
C242 C 0.05677 0.62968 0.417 0.0
C243 C 0.14144 0.67595 0.50626 0.0
H244 H 1.03531 0.56721 0.4974 0.0
H245 H 0.12942 0.53145 0.36403 0.0
H246 H 0.09347 0.57516 0.36956 0.0
H247 H 0.13776 0.54892 0.325 0.0
H248 H 0.22706 0.69517 0.4752 0.0
H249 H 0.07891 0.73501 0.56787 0.0
H250 H 1.01613 0.69348 0.57172 0.0
H251 H 0.99121 0.72031 0.60106 0.0
Tb252 Tb 0.97111 0.36223 0.47488 0.0
C253 C 0.7785 0.41675 0.58775 0.0
C254 C 0.66772 0.41785 0.52977 0.0
C255 C 0.63066 0.42846 0.61606 0.0
C256 C 0.75387 0.41342 0.54013 0.0
C257 C 0.71757 0.42464 0.62642 0.0
C258 C 0.60601 0.42515 0.56782 0.0
C259 C 0.83932 0.42784 0.68326 0.0
N260 N 0.86608 0.41423 0.59659 0.0
C261 C 0.89815 0.42077 0.64385 0.0
C262 C 0.74802 0.42954 0.67455 0.0
Tb263 Tb 0.95834 0.4023 0.52853 0.0
N264 N 0.81701 0.40706 0.50446 0.0
C265 C 0.79801 0.40528 0.45772 0.0
C266 C 0.64746 0.41547 0.48179 0.0
C267 C 0.71334 0.40931 0.44573 0.0
H268 H 0.96987 0.42058 0.65161 0.0
H269 H 0.69902 0.40763 0.40853 0.0
H270 H 0.53979 0.42863 0.56046 0.0
H271 H 0.86518 0.4324 0.7203 0.0
H272 H 0.84639 0.40062 0.42864 0.0
H273 H 0.27033 0.35571 0.56906 0.0
H274 H 0.58207 0.41867 0.47243 0.0
H275 H 0.90921 0.34303 0.35896 0.0
H276 H 0.11385 0.36358 0.56292 0.0
H277 H 0.98338 0.32732 0.28036 0.0
H278 H 0.58321 0.4345 0.64525 0.0
H279 H 0.36301 0.34304 0.4944 0.0
H280 H 0.37305 0.33198 0.40281 0.0
H281 H 0.70312 0.43551 0.7051 0.0
H282 H 0.29473 0.32427 0.32375 0.0
N283 N 0.11695 0.35573 0.48534 0.0
C284 C 0.15284 0.35807 0.52991 0.0
C285 C 0.29424 0.34654 0.49146 0.0
C286 C 0.25585 0.34353 0.44582 0.0
C287 C 0.24191 0.3536 0.53362 0.0
C288 C 0.16562 0.34816 0.44394 0.0
H289 H 0.14854 0.32213 0.27777 0.0
N290 N 1.03213 0.3472 0.40002 0.0
C291 C 1.02318 0.33195 0.31359 0.0
C292 C 0.12174 0.34379 0.39959 0.0
C293 C 0.98136 0.34078 0.35813 0.0
C294 C 0.11652 0.32911 0.31224 0.0
C295 C 0.1666 0.33473 0.35574 0.0
O296 O 0.88469 0.34333 0.44709 0.0
O297 O 0.87607 0.38153 0.5066 0.0
O298 O 0.98016 0.39608 0.58975 0.0
O299 O 0.95637 0.37041 0.55379 0.0
O300 O 0.83893 0.36359 0.4436 0.0
O301 O 0.96604 0.34781 0.51054 0.0
O302 O 1.0075 0.4241 0.57029 0.0
O303 O 0.04867 0.38299 0.499 0.0
O304 O 1.00853 0.36887 0.41665 0.0
O305 O 0.98535 0.39467 0.44944 0.0
O306 O 0.10169 0.40162 0.55148 0.0
O307 O 0.99294 0.41612 0.49302 0.0
C308 C 0.80986 0.37616 0.47606 0.0
C309 C 0.93452 0.3223 0.46089 0.0
C310 C 0.9025 0.29666 0.4508 0.0
C311 C 0.87738 0.31196 0.46889 0.0
C312 C 0.98477 0.29196 0.42526 0.0
C313 C 1.01688 0.31715 0.43605 0.0
C314 C 0.0416 0.30214 0.41823 0.0
C315 C 0.96765 0.38318 0.59232 0.0
C316 C 0.9101 0.33844 0.47926 0.0
C317 C 0.25859 0.33103 0.3571 0.0
C318 C 0.30317 0.33542 0.40212 0.0
C319 C 0.12314 0.38808 0.52235 0.0
C320 C 0.96845 0.44207 0.53958 0.0
C321 C 1.01217 0.45201 0.52349 0.0
C322 C 0.96807 0.46535 0.52799 0.0
C323 C 0.88048 0.46852 0.54826 0.0
C324 C 0.88243 0.44597 0.56141 0.0
C325 C 0.83841 0.45895 0.56517 0.0
C326 C 1.00494 0.38172 0.41258 0.0
C327 C 1.01149 0.42766 0.53334 0.0
H328 H 0.8139 0.31572 0.48853 0.0
H329 H 1.00564 0.28034 0.41115 0.0
H330 H 0.0629 0.3247 0.43068 0.0
H331 H 0.10543 0.29841 0.399 0.0
H332 H 0.07951 0.44939 0.50751 0.0
H333 H 0.8455 0.47868 0.55224 0.0
H334 H 0.84923 0.43909 0.57611 0.0
H335 H 0.77167 0.46168 0.58176 0.0
Tb336 Tb 0.60485 0.90163 0.02622 0.0
C337 C 0.46768 0.84042 0.89066 0.0
C338 C 0.31519 0.84037 0.92015 0.0
C339 C 0.34979 0.8261 0.83406 0.0
C340 C 0.40574 0.84549 0.9282 0.0
C341 C 0.4415 0.83029 0.84338 0.0
C342 C 0.28661 0.83113 0.87249 0.0
C343 C 0.60012 0.82758 0.82043 0.0
N344 N 0.55566 0.84441 0.90177 0.0
C345 C 0.62258 0.83753 0.86816 0.0
C346 C 0.50896 0.82415 0.80771 0.0
Tb347 Tb 0.58637 0.86147 0.98006 0.0
N348 N 0.43719 0.85402 0.9737 0.0
C349 C 0.38363 0.85649 0.0135 0.0
C350 C 0.25793 0.84396 0.96057 0.0
C351 C 0.29306 0.85172 0.00753 0.0
H352 H 0.69315 0.84023 0.87774 0.0
H353 H 0.25038 0.85413 0.03918 0.0
H354 H 0.21695 0.82727 0.86537 0.0
H355 H 0.65312 0.82257 0.79354 0.0
H356 H 0.40927 0.86256 0.05008 0.0
H357 H 0.92586 0.91256 0.96093 0.0
H358 H 0.18787 0.84026 0.95606 0.0
H359 H 0.51079 0.91593 0.13704 0.0
H360 H 0.77294 0.90167 0.95282 0.0
H361 H 0.55619 0.93269 0.22108 0.0
H362 H 0.3279 0.81848 0.79783 0.0
H363 H 0.98828 0.92805 0.04283 0.0
H364 H 0.96571 0.94012 0.13396 0.0
H365 H 0.49176 0.81633 0.77088 0.0
H366 H 0.8651 0.94564 0.20476 0.0
N367 N 0.74975 0.91035 0.02958 0.0
C368 C 0.79939 0.9083 0.98888 0.0
C369 C 0.92133 0.92317 0.03957 0.0
C370 C 0.86863 0.9258 0.08103 0.0
C371 C 0.8862 0.91449 0.99327 0.0
C372 C 0.78175 0.91925 0.07469 0.0
H373 H 0.71186 0.94306 0.23753 0.0
N374 N 0.6407 0.91634 0.10623 0.0
C375 C 0.60448 0.92984 0.19142 0.0
C376 C 0.72522 0.92242 0.1144 0.0
C377 C 0.57901 0.92032 0.14373 0.0
C378 C 0.69249 0.93565 0.20057 0.0
C379 C 0.75378 0.93212 0.16176 0.0
O380 O 0.50962 0.9191 0.04267 0.0
O381 O 0.51162 0.88244 0.99581 0.0
O382 O 0.57794 0.86639 0.91582 0.0
O383 O 0.61733 0.89179 0.9458 0.0
O384 O 0.46377 0.90107 0.05138 0.0
O385 O 0.61608 0.91623 0.99097 0.0
O386 O 0.67049 0.84287 0.96917 0.0
O387 O 0.67791 0.88057 0.00062 0.0
O388 O 0.65175 0.89421 0.08158 0.0
O389 O 0.56178 0.87329 0.05906 0.0
O390 O 0.7353 0.86033 0.967 0.0
O391 O 0.57387 0.85082 0.02772 0.0
C392 C 0.43947 0.88792 0.02102 0.0
C393 C 0.56841 0.94124 0.04009 0.0
C394 C 0.58065 0.96587 0.03757 0.0
C395 C 0.56388 0.95026 0.01374 0.0
C396 C 0.60173 0.97217 0.08773 0.0
C397 C 0.58801 0.94812 0.09029 0.0
C398 C 0.6053 0.96336 0.11368 0.0
C399 C 0.59863 0.8786 0.90976 0.0
C400 C 0.55014 0.92486 0.0161 0.0
C401 C 0.84157 0.93823 0.16861 0.0
C402 C 0.89886 0.93509 0.1283 0.0
C403 C 0.75599 0.87423 0.98754 0.0
C404 C 0.60616 0.82476 0.9925 0.0
C405 C 0.66398 0.81512 0.00385 0.0
C406 C 0.63745 0.80023 0.99313 0.0
C407 C 0.55279 0.79523 0.97041 0.0
C408 C 0.52221 0.81934 0.97016 0.0
C409 C 0.49594 0.80471 0.95916 0.0
C410 C 0.61191 0.88385 0.09169 0.0
C411 C 0.63308 0.84041 0.00422 0.0
H412 H 0.54753 0.94519 0.97513 0.0
H413 H 0.61314 0.98406 0.10746 0.0
H414 H 0.58839 0.94185 0.11206 0.0
H415 H 0.62017 0.96843 0.15244 0.0
H416 H 0.72863 0.81927 0.0215 0.0
H417 H 0.53078 0.78385 0.96049 0.0
H418 H 0.47654 0.82638 0.96123 0.0
H419 H 0.43109 0.80067 0.94164 0.0
Tb420 Tb 0.45334 0.155 0.03831 0.0
C421 C 0.24359 0.10293 0.94065 0.0
C422 C 0.15169 0.10297 0.00764 0.0
C423 C 0.08742 0.09375 0.92622 0.0
C424 C 0.23486 0.10595 0.98981 0.0
C425 C 0.16961 0.09669 0.90842 0.0
C426 C 0.07858 0.09684 0.97563 0.0
C427 C 0.26393 0.09577 0.8421 0.0
N428 N 0.32354 0.10612 0.92437 0.0
C429 C 0.33559 0.10169 0.87493 0.0
C430 C 0.18017 0.09345 0.85897 0.0
Tb431 Tb 0.43757 0.11491 0.98247 0.0
N432 N 0.30551 0.11251 0.02057 0.0
C433 C 0.29497 0.1166 0.06985 0.0
C434 C 0.14316 0.10659 0.05744 0.0
C435 C 0.2147 0.11359 0.08868 0.0
H436 H 0.40101 0.10199 0.85926 0.0
H437 H 0.20779 0.11684 0.12759 0.0
H438 H 1.01442 0.09459 0.98887 0.0
H439 H 0.27425 0.09263 0.80345 0.0
H440 H 0.3459 0.12255 0.09605 0.0
H441 H 0.76813 0.16677 0.9694 0.0
H442 H 0.08086 0.10437 0.07233 0.0
H443 H 0.36855 0.16772 0.1511 0.0
H444 H 0.61439 0.15626 0.96292 0.0
H445 H 0.42169 0.18292 0.23523 0.0
H446 H 1.03017 0.08906 0.90198 0.0
H447 H 0.83811 0.1806 0.05063 0.0
H448 H 0.823 0.1913 0.14215 0.0
H449 H 0.12497 0.08872 0.83328 0.0
H450 H 0.72862 0.19579 0.21447 0.0
N451 N 0.59774 0.16369 0.03977 0.0
C452 C 0.64385 0.16226 -0.00135 0.0
C453 C 0.77051 0.17599 0.04805 0.0
C454 C 0.72116 0.17807 0.0901 0.0
C455 C 0.73115 0.16823 0.00215 0.0
C456 C 0.63357 0.17181 0.08466 0.0
H457 H 0.57863 0.19278 0.24952 0.0
N458 N 0.49558 0.16847 0.11819 0.0
C459 C 0.46716 0.18053 0.20463 0.0
C460 C 0.58053 0.17441 0.12528 0.0
C461 C 0.43726 0.17193 0.15695 0.0
C462 C 0.55584 0.18609 0.21254 0.0
C463 C 0.61337 0.18323 0.1726 0.0
O464 O 0.35927 0.17286 0.06174 0.0
O465 O 0.36004 0.13599 0.00249 0.0
O466 O 0.4681 0.12117 0.92192 0.0
O467 O 0.45623 0.14725 0.95886 0.0
O468 O 0.31552 0.1533 0.06458 0.0
O469 O 0.45912 0.17077 0.00753 0.0
O470 O 0.47811 0.09423 0.92705 0.0
O471 O 0.52776 0.13414 0.00523 0.0
O472 O 0.50598 0.14674 0.09095 0.0
O473 O 0.48162 0.1209 0.05829 0.0
O474 O 0.58835 0.114 0.97863 0.0
O475 O 0.44531 0.09619 -0.00072 0.0
C476 C 0.28964 0.14099 0.02979 0.0
C477 C 0.41219 0.19545 0.05989 0.0
C478 C 0.41321 0.22039 0.05963 0.0
C479 C 0.3947 0.20489 0.0359 0.0
C480 C 0.44908 0.22627 0.10716 0.0
C481 C 0.4457 0.20185 0.10793 0.0
C482 C 0.4646 0.21707 0.13114 0.0
C483 C 0.46443 0.13436 0.91998 0.0
C484 C 0.39463 0.17909 0.03521 0.0
C485 C 0.70178 0.18907 0.17839 0.0
C486 C 0.75555 0.18651 0.13721 0.0
C487 C 0.60713 0.12801 -0.00277 0.0
C488 C 0.54676 0.07657 0.95252 0.0
C489 C 0.52636 0.06363 0.95982 0.0
C490 C 0.59504 0.05312 0.9564 0.0
C491 C 0.68436 0.05587 0.94564 0.0
C492 C 0.6364 0.07883 0.9412 0.0
C493 C 0.70459 0.06859 0.93812 0.0
C494 C 0.50745 0.1337 0.094 0.0
C495 C 0.47311 0.08728 0.9556 0.0
H496 H 0.36766 0.20021 -0.00094 0.0
H497 H 0.4638 0.23809 0.12609 0.0
H498 H 0.45656 0.19518 0.12802 0.0
H499 H 0.49093 0.22179 0.16809 0.0
H500 H 0.45718 0.06179 0.96837 0.0
H501 H 0.73863 0.048 0.94196 0.0
H502 H 0.65405 0.0884 0.93418 0.0
H503 H 0.77349 0.07043 0.92934 0.0
Tb504 Tb 0.61412 0.11448 0.48186 0.0
C505 C 0.45824 0.1744 0.6098 0.0
C506 C 0.32439 0.17537 0.56429 0.0
C507 C 0.32549 0.18855 0.65289 0.0
C508 C 0.41346 0.1702 0.56568 0.0
C509 C 0.41574 0.18395 0.65382 0.0
C510 C 0.27985 0.18425 0.6082 0.0
C511 C 0.55748 0.18481 0.69572 0.0
N512 N 0.54556 0.16978 0.60924 0.0
C513 C 0.59698 0.17542 0.65112 0.0
C514 C 0.46613 0.18893 0.69719 0.0
Tb515 Tb 0.603 0.15454 0.5339 0.0
N516 N 0.45885 0.16168 0.52398 0.0
C517 C 0.42113 0.15883 0.47941 0.0
C518 C 0.28388 0.17187 0.51878 0.0
C519 C 0.33309 0.16378 0.47617 0.0
H520 H 0.66769 0.17226 0.6501 0.0
H521 H 0.303 0.16124 0.44078 0.0
H522 H 0.21104 0.18819 0.6079 0.0
H523 H 0.59753 0.18889 0.72889 0.0
H524 H 0.45782 0.15251 0.44612 0.0
H525 H 0.87391 0.10937 0.60216 0.0
H526 H 0.21566 0.17566 0.51616 0.0
H527 H 0.6026 0.09584 0.35883 0.0
H528 H 0.72561 0.11597 0.58181 0.0
H529 H 0.70757 0.08402 0.29026 0.0
H530 H 0.29124 0.19574 0.68638 0.0
H531 H 0.99167 0.0987 0.53853 0.0
H532 H 1.03433 0.08884 0.45057 0.0
H533 H 0.43587 0.19627 0.73177 0.0
H534 H 0.99065 0.08274 0.36567 0.0
N535 N 0.7555 0.10978 0.50611 0.0
C536 C 0.77447 0.11153 0.55285 0.0
C537 C 0.92595 0.10175 0.52907 0.0
C538 C 0.90565 0.09933 0.48105 0.0
C539 C 0.85962 0.10771 0.56497 0.0
C540 C 0.81906 0.10357 0.47055 0.0
H541 H 0.87005 0.08129 0.30561 0.0
N542 N 0.7064 0.10243 0.41389 0.0
C543 C 0.7334 0.0887 0.3273 0.0
C544 C 0.79427 0.10011 0.42285 0.0
C545 C 0.67438 0.09574 0.36665 0.0
C546 C 0.82495 0.08721 0.33611 0.0
C547 C 0.8555 0.09229 0.38427 0.0
O548 O 0.56424 0.09269 0.44051 0.0
O549 O 0.52482 0.13393 0.51023 0.0
O550 O 0.55762 0.14803 0.59122 0.0
O551 O 0.58845 0.12252 0.56143 0.0
O552 O 0.47016 0.11517 0.45954 0.0
O553 O 0.57967 0.10072 0.51768 0.0
O554 O 0.69415 0.17273 0.55979 0.0
O555 O 0.69741 0.13514 0.50282 0.0
O556 O 0.59258 0.12049 0.42007 0.0
O557 O 0.61775 0.14614 0.45482 0.0
O558 O 0.73384 0.15306 0.56608 0.0
O559 O 0.60518 0.16944 0.4997 0.0
C560 C 0.44977 0.12886 0.4876 0.0
C561 C 0.60254 0.07467 0.47114 0.0
C562 C 0.59894 0.05068 0.47825 0.0
C563 C 0.55589 0.06422 0.48387 0.0
C564 C 0.68831 0.04783 0.46046 0.0
C565 C 0.69068 0.07113 0.45192 0.0
C566 C 0.73354 0.05796 0.44718 0.0
C567 C 0.56447 0.13549 0.59706 0.0
C568 C 0.56022 0.08917 0.47754 0.0
C569 C 0.94293 0.08871 0.39479 0.0
C570 C 0.96774 0.09215 0.4431 0.0
C571 C 0.76318 0.1405 0.53369 0.0
C572 C 0.64825 0.19457 0.54955 0.0
C573 C 0.68037 0.2032 0.52516 0.0
C574 C 0.66587 0.21891 0.54526 0.0
C575 C 0.6172 0.22565 0.58936 0.0
C576 C 0.60103 0.20184 0.59372 0.0
C577 C 0.58527 0.21718 0.61323 0.0
C578 C 0.606 0.13327 0.41674 0.0
C579 C 0.66583 0.17815 0.5294 0.0
H580 H 0.48696 0.06655 0.49776 0.0
H581 H 0.72246 0.03754 0.45576 0.0
H582 H 0.72643 0.07842 0.43991 0.0
H583 H 0.80188 0.05551 0.43256 0.0
H584 H 0.71779 0.19775 0.49127 0.0
H585 H 0.60265 0.23753 0.60531 0.0
H586 H 0.57652 0.19579 0.61366 0.0
H587 H 0.54814 0.22256 0.64721 0.0
Tb588 Tb 0.49537 0.85999 0.46527 0.0
C589 C 0.29622 0.91442 0.58866 0.0
C590 C 0.18637 0.91528 0.52985 0.0
C591 C 0.14507 0.92482 0.61557 0.0
C592 C 0.27333 0.91137 0.54091 0.0
C593 C 0.2328 0.9215 0.62669 0.0
C594 C 0.12201 0.92177 0.56725 0.0
C595 C 0.35061 0.92338 0.68463 0.0
N596 N 0.38195 0.91122 0.59821 0.0
C597 C 0.41129 0.91665 0.64581 0.0
C598 C 0.26038 0.92556 0.67499 0.0
Tb599 Tb 0.47614 0.90028 0.53125 0.0
N600 N 0.33628 0.9047 0.50532 0.0
C601 C 0.31658 0.90204 0.45788 0.0
C602 C 0.16676 0.91267 0.48157 0.0
C603 C 0.23208 0.906 0.44545 0.0
H604 H 0.48227 0.91589 0.65403 0.0
H605 H 0.21735 0.90385 0.40788 0.0
H606 H 0.0546 0.92463 0.55927 0.0
H607 H 0.37406 0.92716 0.72197 0.0
H608 H 0.36474 0.89683 0.4289 0.0
H609 H 0.83173 0.84423 0.49973 0.0
H610 H 0.1017 0.91583 0.47184 0.0
H611 H 0.37582 0.84629 0.36176 0.0
H612 H 0.67932 0.85512 0.52127 0.0
H613 H 0.4041 0.83221 0.2738 0.0
H614 H 0.09533 0.93011 0.64423 0.0
H615 H 0.88078 0.83284 0.41337 0.0
H616 H 0.84232 0.82543 0.32502 0.0
H617 H 0.2137 0.93099 0.70514 0.0
H618 H 0.72478 0.82204 0.26297 0.0
N619 N 0.64216 0.85102 0.44838 0.0
C620 C 0.69935 0.85049 0.48349 0.0
C621 C 0.81425 0.838 0.42275 0.0
C622 C 0.75389 0.83771 0.3865 0.0
C623 C 0.78641 0.84427 0.47142 0.0
C624 C 0.66691 0.84417 0.40065 0.0
H625 H 0.56019 0.82412 0.24361 0.0
N626 N 0.51537 0.84677 0.38203 0.0
C627 C 0.46015 0.8349 0.29935 0.0
C628 C 0.60062 0.84179 0.36603 0.0
C629 C 0.44445 0.8429 0.34947 0.0
C630 C 0.54838 0.83041 0.28242 0.0
C631 C 0.61973 0.83358 0.31595 0.0
O632 O 0.40414 0.84182 0.44732 0.0
O633 O 0.40287 0.87894 0.5055 0.0
O634 O 0.48321 0.89132 0.58714 0.0
O635 O 0.53231 0.86677 0.54213 0.0
O636 O 0.35068 0.86161 0.44744 0.0
O637 O 0.51084 0.845 0.49846 0.0
O638 O 0.53811 0.92057 0.57706 0.0
O639 O 0.5687 0.88126 0.49838 0.0
O640 O 0.52122 0.86882 0.41087 0.0
O641 O 0.51225 0.89479 0.45476 0.0
O642 O 0.62175 0.90043 0.54939 0.0
O643 O 0.48697 0.91735 0.50628 0.0
C644 C 0.32875 0.87428 0.48146 0.0
C645 C 0.46768 0.81993 0.45021 0.0
C646 C 0.43615 0.79371 0.43385 0.0
C647 C 0.41325 0.80912 0.45733 0.0
C648 C 0.51443 0.78943 0.40436 0.0
C649 C 0.54505 0.8151 0.42049 0.0
C650 C 0.56826 0.80003 0.39787 0.0
C651 C 0.51425 0.8783 0.58408 0.0
C652 C 0.44566 0.83619 0.47391 0.0
C653 C 0.70839 0.82825 0.3013 0.0
C654 C 0.77537 0.83024 0.3366 0.0
C655 C 0.64479 0.88716 0.5188 0.0
C656 C 0.4854 0.94238 0.56818 0.0
C657 C 0.49804 0.95187 0.54394 0.0
C658 C 0.46961 0.96703 0.56605 0.0
C659 C 0.42656 0.97239 0.61183 0.0
C660 C 0.44199 0.94822 0.61395 0.0
C661 C 0.41236 0.96303 0.6353 0.0
C662 C 0.52518 0.88257 0.414 0.0
C663 C 0.52249 0.92683 0.54713 0.0
H664 H 0.3532 0.81263 0.48021 0.0
H665 H 0.53455 0.77778 0.38642 0.0
H666 H 0.58841 0.82295 0.41492 0.0
H667 H 0.6285 0.79656 0.37519 0.0
H668 H 0.53209 0.94763 0.50882 0.0
H669 H 0.40324 0.98388 0.62941 0.0
H670 H 0.43206 0.94148 0.63391 0.0
H671 H 0.3791 0.96733 0.6706 0.0
H672 H 0.40349 0.38717 0.05835 0.0
H673 H 0.3811 0.37194 0.90131 0.0
H674 H 0.54739 0.37251 0.89467 0.0
H675 H 0.61124 0.41198 0.07832 0.0
H676 H 0.65572 0.40613 0.12305 0.0
H677 H 0.53468 0.40607 0.11398 0.0
H678 H 0.54059 0.37819 0.10083 0.0
H679 H 0.66307 0.37841 0.10442 0.0
H680 H 0.60664 0.36505 0.05094 0.0
H681 H 0.72046 0.37378 0.90266 0.0
H682 H 0.88198 0.37786 0.92685 0.0
H683 H 0.80465 0.3929 0.07841 0.0
C684 C 0.43336 0.38438 0.02277 0.0
C685 C 0.37597 0.37995 0.98029 0.0
C686 C 0.42087 0.3757 0.9346 0.0
C687 C 0.51645 0.37591 0.93032 0.0
C688 C 0.57056 0.38017 0.97205 0.0
C689 C 0.531 0.38449 0.01769 0.0
C690 C 0.60752 0.38789 0.05599 0.0
C691 C 0.60157 0.40399 0.09518 0.0
C692 C 0.60428 0.37673 0.07945 0.0
C693 C 0.69447 0.3856 0.02511 0.0
C694 C 0.67111 0.38074 0.97654 0.0
C695 C 0.73879 0.3776 0.94078 0.0
C696 C 0.83163 0.37981 0.95478 0.0
C697 C 0.85901 0.38518 0.00432 0.0
C698 C 0.78781 0.38832 0.03992 0.0
H699 H 0.25993 0.63713 0.07768 0.0
H700 H 0.21732 0.63171 0.92905 0.0
H701 H 0.38288 0.63393 0.9194 0.0
H702 H 0.45616 0.66434 0.10639 0.0
H703 H 0.51126 0.65618 0.14281 0.0
H704 H 0.38902 0.65573 0.1376 0.0
H705 H 0.39888 0.62685 0.10845 0.0
H706 H 0.5213 0.62756 0.11097 0.0
H707 H 0.46486 0.61594 0.05479 0.0
H708 H 0.5612 0.63455 0.92329 0.0
H709 H 0.7259 0.63629 0.94382 0.0
H710 H 0.65754 0.64243 0.09081 0.0
C711 C 0.28495 0.63704 0.04378 0.0
C712 C 0.2227 0.63493 0.0048 0.0
C713 C 0.26119 0.63395 0.96025 0.0
C714 C 0.35622 0.63503 0.95422 0.0
C715 C 0.41542 0.63696 0.99287 0.0
C716 C 0.38087 0.63823 0.03722 0.0
C717 C 0.45996 0.63989 0.07249 0.0
C718 C 0.45362 0.65493 0.11751 0.0
C719 C 0.46128 0.62678 0.08758 0.0
C720 C 0.54377 0.63938 0.04134 0.0
C721 C 0.51668 0.63748 0.99519 0.0
C722 C 0.58223 0.63618 0.95961 0.0
C723 C 0.67652 0.63709 0.97146 0.0
C724 C 0.70679 0.63933 0.01881 0.0
C725 C 0.63801 0.64058 0.05406 0.0
H726 H 0.78134 0.64085 0.59179 0.0
H727 H 0.83695 0.62478 0.43711 0.0
H728 H 0.67167 0.62505 0.42083 0.0
H729 H 0.57957 0.6186 0.57736 0.0
H730 H 0.51845 0.63249 0.62785 0.0
H731 H 0.64101 0.63212 0.62843 0.0
H732 H 0.64784 0.65968 0.63938 0.0
H733 H 0.52529 0.66019 0.64121 0.0
H734 H 0.58496 0.66505 0.59775 0.0
H735 H 0.49321 0.62816 0.42212 0.0
H736 H 0.32768 0.63144 0.44001 0.0
H737 H 0.38413 0.64358 0.5929 0.0
C738 C 0.75892 0.63769 0.55454 0.0
C739 C 0.82448 0.63359 0.51602 0.0
C740 C 0.79015 0.62869 0.46767 0.0
C741 C 0.69547 0.6287 0.45804 0.0
C742 C 0.63313 0.63321 0.49685 0.0
C743 C 0.66384 0.63747 0.54421 0.0
C744 C 0.58251 0.64107 0.57918 0.0
C745 C 0.58028 0.63044 0.60473 0.0
C746 C 0.58539 0.65747 0.61663 0.0
C747 C 0.50135 0.6383 0.54449 0.0
C748 C 0.53196 0.63391 0.49709 0.0
C749 C 0.46947 0.63135 0.45913 0.0
C750 C 0.37468 0.63313 0.46955 0.0
C751 C 0.34064 0.63708 0.5175 0.0
C752 C 0.4064 0.63999 0.55543 0.0
H753 H 0.67964 0.38445 0.5564 0.0
H754 H 0.70003 0.37319 0.40142 0.0
H755 H 0.53344 0.37411 0.39587 0.0
H756 H 0.47841 0.36153 0.54145 0.0
H757 H 0.42138 0.37349 0.59715 0.0
H758 H 0.54383 0.37348 0.59365 0.0
H759 H 0.54922 0.40209 0.61616 0.0
H760 H 0.42873 0.40169 0.62612 0.0
H761 H 0.4695 0.40954 0.58596 0.0
H762 H 0.35948 0.37541 0.40477 0.0
H763 H 0.19769 0.37863 0.42979 0.0
H764 H 0.2785 0.38951 0.57893 0.0
C765 C 0.64927 0.38263 0.52163 0.0
C766 C 0.70626 0.37931 0.47947 0.0
C767 C 0.66062 0.37617 0.43457 0.0
C768 C 0.56485 0.3766 0.43093 0.0
C769 C 0.51115 0.37989 0.47239 0.0
C770 C 0.55145 0.38294 0.51719 0.0
C771 C 0.47552 0.38519 0.55506 0.0
C772 C 0.48 0.37268 0.5729 0.0
C773 C 0.48148 0.40056 0.59838 0.0
C774 C 0.38795 0.38392 0.52533 0.0
C775 C 0.41046 0.38041 0.47731 0.0
C776 C 0.34187 0.37822 0.44248 0.0
C777 C 0.24903 0.37997 0.45693 0.0
C778 C 0.22268 0.38402 0.50613 0.0
C779 C 0.29471 0.38617 0.54074 0.0
H780 H 0.88654 0.88714 0.06428 0.0
H781 H 0.85488 0.87041 0.90748 0.0
H782 H 1.02107 0.87181 0.89835 0.0
H783 H 0.08322 0.91309 0.07652 0.0
H784 H 0.13663 0.90882 0.12297 0.0
H785 H 1.01468 0.9078 0.11637 0.0
H786 H 1.02377 0.88062 0.10843 0.0
H787 H 0.14615 0.88141 0.112 0.0
H788 H 0.0912 0.86704 0.06023 0.0
H789 H 0.19827 0.87301 0.90498 0.0
H790 H 0.36161 0.87623 0.92805 0.0
H791 H 0.28528 0.89309 0.0806 0.0
C792 C 0.91408 0.88437 0.0282 0.0
C793 C 0.85445 0.87929 0.98665 0.0
C794 C 0.89647 0.8749 0.94015 0.0
C795 C 0.99195 0.87552 0.93452 0.0
C796 C 0.04845 0.8804 0.97568 0.0
C797 C 1.01082 0.88498 0.02187 0.0
C798 C 0.08798 0.88923 0.05982 0.0
C799 C 0.08006 0.90572 0.09608 0.0
C800 C 0.08721 0.87897 0.08673 0.0
C801 C 0.17399 0.88651 0.02807 0.0
C802 C 0.14959 0.88119 0.97944 0.0
C803 C 0.21719 0.87732 0.94314 0.0
C804 C 0.31079 0.8791 0.95655 0.0
C805 C 0.33868 0.88477 0.00618 0.0
C806 C 0.26777 0.88864 0.04221 0.0
H807 H 0.1367 0.14428 0.08926 0.0
H808 H 0.20951 0.13301 0.93867 0.0
H809 H 0.046 0.13034 0.91638 0.0
H810 H 0.94224 0.11843 0.06285 0.0
H811 H 0.87632 0.13114 0.11369 0.0
H812 H 0.99874 0.1318 0.11642 0.0
H813 H 0.98948 0.15993 0.13511 0.0
H814 H 0.86726 0.15901 0.12993 0.0
H815 H 0.93299 0.16564 0.09254 0.0
H816 H 0.86932 0.12861 0.90996 0.0
H817 H 0.70335 0.12668 0.91891 0.0
H818 H 0.73835 0.13885 0.07351 0.0
C819 C 0.11837 0.14114 0.05143 0.0
C820 C 0.18839 0.13849 0.01554 0.0
C821 C 0.15938 0.13474 0.96685 0.0
C822 C 0.0657 0.1333 0.95391 0.0
C823 C 0.99903 0.13578 0.9899 0.0
C824 C 1.02433 0.13953 0.03777 0.0
C825 C 0.9388 0.1414 0.0693 0.0
C826 C 0.93912 0.13002 0.09192 0.0
C827 C 0.93172 0.15745 0.1091 0.0
C828 C 0.86137 0.13813 0.03196 0.0
C829 C 0.89802 0.13501 0.98638 0.0
C830 C 0.84087 0.13124 0.94575 0.0
C831 C 0.74562 0.13031 0.9513 0.0
C832 C 0.70481 0.13334 -0.00272 0.0
C833 C 0.76509 0.13721 0.03817 0.0
H834 H 0.29468 0.12735 0.43085 0.0
H835 H 0.37569 0.13936 0.58067 0.0
H836 H 0.21404 0.14262 0.60565 0.0
H837 H 0.09629 0.15558 0.46825 0.0
H838 H 1.02935 0.14371 0.41652 0.0
H839 H 0.15173 0.14348 0.41224 0.0
H840 H 0.14594 0.11545 0.38401 0.0
H841 H 1.0254 0.11489 0.3935 0.0
H842 H 0.10506 0.10758 0.42411 0.0
H843 H 0.04004 0.14333 0.61425 0.0
H844 H 0.87336 0.14382 0.60848 0.0
H845 H 0.8935 0.1323 0.4533 0.0
C846 C 0.27854 0.13096 0.46918 0.0
C847 C 0.35063 0.13331 0.50389 0.0
C848 C 0.32441 0.1378 0.55333 0.0
C849 C 0.23158 0.13958 0.5678 0.0
C850 C 0.16292 0.13708 0.53279 0.0
C851 C 0.18534 0.13335 0.48463 0.0
C852 C 0.09765 0.13193 0.45483 0.0
C853 C 0.09354 0.14441 0.43688 0.0
C854 C 0.09291 0.11653 0.41156 0.0
C855 C 1.02184 0.13417 0.49274 0.0
C856 C 0.06222 0.13746 0.53767 0.0
C857 C 1.00858 0.1407 0.57912 0.0
C858 C 0.91275 0.14088 0.57534 0.0
C859 C 0.86701 0.13755 0.53033 0.0
C860 C 0.92397 0.13427 0.48818 0.0
H861 H 0.77653 0.87832 0.44154 0.0
H862 H 0.74383 0.88655 0.59353 0.0
H863 H 0.91017 0.88503 0.60166 0.0
H864 H 0.98226 0.85181 0.41488 0.0
H865 H 1.02876 0.85947 0.37519 0.0
H866 H 0.90729 0.85923 0.38274 0.0
H867 H 0.91304 0.8876 0.40463 0.0
H868 H 1.03559 0.88809 0.4043 0.0
H869 H 0.97318 0.89981 0.45853 0.0
H870 H 0.08703 0.88457 0.59582 0.0
H871 H 0.25064 0.88222 0.57328 0.0
H872 H 0.17593 0.87307 0.42441 0.0
C873 C 0.80397 0.87916 0.47597 0.0
C874 C 0.74403 0.88197 0.51652 0.0
C875 C 0.78577 0.88389 0.56139 0.0
C876 C 0.88131 0.88317 0.56652 0.0
C877 C 0.93813 0.8806 0.52654 0.0
C878 C 0.90082 0.87829 0.48166 0.0
C879 C 0.9784 0.87621 0.44506 0.0
C880 C 0.97366 0.86076 0.40189 0.0
C881 C 0.97497 0.88867 0.42703 0.0
C882 C 0.06418 0.87751 0.47602 0.0
C883 C 0.03928 0.88029 0.52322 0.0
C884 C 0.10643 0.88226 0.55871 0.0
C885 C 0.20016 0.88102 0.54568 0.0
C886 C 0.22858 0.87775 0.49724 0.0
C887 C 0.15807 0.87584 0.46207 0.0
H888 H 0.99598 0.55335 0.1099 0.0
H889 H 0.0805 0.54067 0.95992 0.0
H890 H 0.07554 0.51398 0.94524 0.0
H891 H 0.12041 0.52526 0.13107 0.0
H892 H 1.03218 0.52206 0.16704 0.0
H893 H 0.04245 0.5401 0.16564 0.0
H894 H 0.87503 0.53864 0.13722 0.0
H895 H 0.86404 0.52065 0.13888 0.0
H896 H 0.83819 0.52272 0.08352 0.0
H897 H 0.06875 0.48845 0.94858 0.0
H898 H 0.04407 0.46642 0.96694 0.0
H899 H 0.95653 0.49577 0.11337 0.0
C900 C 1.01332 0.54495 0.07393 0.0
C901 C 0.03895 0.54913 0.03605 0.0
C902 C 0.06007 0.53776 0.98937 0.0
C903 C 0.05803 0.52256 0.98082 0.0
C904 C 1.0336 0.51884 0.01913 0.0
C905 C 1.01027 0.52973 0.06458 0.0
C906 C 0.98392 0.52278 0.09922 0.0
C907 C 0.04861 0.52785 0.14335 0.0
C908 C 0.88438 0.52641 0.11566 0.0
C909 C 0.9965 0.5063 0.06636 0.0
C910 C 1.02626 0.50424 0.02045 0.0
C911 C 0.0448 0.48997 0.98432 0.0
C912 C 1.03116 0.47751 0.99512 0.0
C913 C 0.99801 0.47934 0.04144 0.0
C914 C 0.98113 0.49399 0.07746 0.0
H915 H 0.91677 0.47377 0.45584 0.0
H916 H 0.11286 0.48313 0.57219 0.0
H917 H 0.16381 0.50561 0.56164 0.0
H918 H 0.06191 0.48619 0.37903 0.0
H919 H 0.96614 0.4937 0.35913 0.0
H920 H 0.951 0.47795 0.37412 0.0
H921 H 0.82518 0.49255 0.43599 0.0
H922 H 0.84119 0.50845 0.42199 0.0
H923 H 0.8509 0.51056 0.48422 0.0
H924 H 0.17995 0.52881 0.54411 0.0
H925 H 0.17711 0.54843 0.51252 0.0
H926 H 0.97721 0.52295 0.40429 0.0
C927 C 0.97239 0.48032 0.47799 0.0
C928 C 1.01211 0.47662 0.51431 0.0
C929 C 0.08313 0.48562 0.54349 0.0
C930 C 0.1117 0.49848 0.53804 0.0
C931 C 0.06929 0.50208 0.50279 0.0
C932 C 1.00267 0.49303 0.47244 0.0
C933 C 0.96735 0.49938 0.43764 0.0
C934 C 0.98786 0.48867 0.38432 0.0
C935 C 0.8651 0.50294 0.44545 0.0
C936 C 1.02315 0.51355 0.45363 0.0
C937 C 0.08091 0.51503 0.49164 0.0
C938 C 0.13591 0.52763 0.5139 0.0
C939 C 0.13337 0.53877 0.49608 0.0
C940 C 0.07714 0.53717 0.45603 0.0
C941 C 1.02113 0.52441 0.43485 0.0
H942 H 0.69621 0.98853 0.04528 0.0
H943 H 0.44693 0.9668 0.97446 0.0
H944 H 0.42294 0.98652 0.94458 0.0
H945 H 0.61432 0.02538 0.08834 0.0
H946 H 0.71952 0.03317 0.07909 0.0
H947 H 0.72115 0.01663 0.09053 0.0
H948 H 0.81129 1.00237 0.01038 0.0
H949 H 0.81103 0.01893 -0.00101 0.0
H950 H 0.76712 1.00164 0.95355 0.0
H951 H 0.42094 0.01032 0.92862 0.0
H952 H 0.44811 0.03421 0.92191 0.0
H953 H 0.69684 0.04026 0.00552 0.0
C954 C 0.63705 0.98778 0.02292 0.0
C955 C 0.57336 0.97607 0.01227 0.0
C956 C 0.49726 0.97551 0.98263 0.0
C957 C 0.48272 0.98676 0.96589 0.0
C958 C 0.5452 0.99846 0.97881 0.0
C959 C 0.62152 0.99888 0.00615 0.0
C960 C 0.67723 0.0128 0.01661 0.0
C961 C 0.68337 0.02257 0.07192 0.0
C962 C 0.77229 1.00869 0.99349 0.0
C963 C 0.62021 0.02029 0.99127 0.0
C964 C 0.54416 0.01192 0.96969 0.0
C965 C 0.48069 0.01687 0.94516 0.0
C966 C 0.49625 0.03055 0.9419 0.0
C967 C 0.57485 0.03916 0.96294 0.0
C968 C 0.63678 0.0339 0.98831 0.0
H969 H 0.61925 0.04414 0.5576 0.0
H970 H 0.4829 0.02956 0.41794 0.0
H971 H 0.43634 1.00619 0.42384 0.0
H972 H 0.70725 0.00944 0.54195 0.0
H973 H 0.68997 0.01182 0.60403 0.0
H974 H 0.7058 0.02792 0.59106 0.0
H975 H 0.5533 0.03922 0.63367 0.0
H976 H 0.53795 0.02331 0.64781 0.0
H977 H 0.45095 0.02826 0.61493 0.0
H978 H 0.41955 0.98302 0.44152 0.0
H979 H 0.41356 0.96393 0.47527 0.0
H980 H 0.55494 0.9942 0.60502 0.0
C981 C 0.57673 0.03625 0.52921 0.0
C982 C 0.5525 0.03879 0.48786 0.0
C983 C 0.49978 0.02799 0.4505 0.0
C984 C 0.47403 0.01461 0.45334 0.0
C985 C 0.5011 0.01223 0.494 0.0
C986 C 0.54952 0.02292 0.53183 0.0
C987 C 0.57136 0.01758 0.57117 0.0
C988 C 0.67473 0.01664 0.57739 0.0
C989 C 0.52564 0.02769 0.61977 0.0
C990 C 0.52896 1.00214 0.54938 0.0
C991 C 0.48956 0.99916 0.50459 0.0
C992 C 0.44926 0.98534 0.47684 0.0
C993 C 0.44691 0.9745 0.496 0.0
C994 C 0.48369 0.97757 0.54268 0.0
C995 C 0.52597 0.99155 0.56927 0.0
H996 H 0.11356 0.27713 0.9931 0.0
H997 H 0.36511 0.29723 0.97544 0.0
H998 H 0.4524 0.27837 0.99244 0.0
H999 H 0.18981 0.26777 0.09078 0.0
H1000 H 0.12766 0.25045 0.06877 0.0
H1001 H 0.08632 0.26577 0.05648 0.0
H1002 H 0.08482 0.24853 0.9638 0.0
H1003 H 0.12745 0.23321 0.97576 0.0
H1004 H 0.18771 0.23898 0.93451 0.0
H1005 H 0.51217 0.25695 0.01071 0.0
H1006 H 0.53916 0.23604 0.03447 0.0
H1007 H 0.24875 0.22933 0.03708 0.0
C1008 C 0.18708 0.27758 0.99262 0.0
C1009 C 0.23231 0.28871 0.98261 0.0
C1010 C 0.32866 0.28898 0.98342 0.0
C1011 C 0.37883 0.2782 0.99258 0.0
C1012 C 0.33187 0.26718 0.00097 0.0
C1013 C 0.23805 0.2669 0.0015 0.0
C1014 C 0.20369 0.25401 0.01204 0.0
C1015 C 0.14864 0.25985 0.05986 0.0
C1016 C 0.1476 0.24303 0.96895 0.0
C1017 C 0.29283 0.24701 0.01728 0.0
C1018 C 0.36602 0.25477 0.01068 0.0
C1019 C 0.4553 0.25076 0.01554 0.0
C1020 C 0.47007 0.23881 0.02869 0.0
C1021 C 0.39618 0.23088 0.03647 0.0
C1022 C 0.30647 0.23492 0.02994 0.0
H1023 H 0.58644 0.77938 0.02744 0.0
H1024 H 0.82364 0.79678 0.98328 0.0
H1025 H 0.91966 0.7779 0.99532 0.0
H1026 H 0.69757 0.77097 0.11997 0.0
H1027 H 0.63291 0.75419 0.10631 0.0
H1028 H 0.58423 0.76933 0.09542 0.0
H1029 H 0.55468 0.7512 0.00517 0.0
H1030 H 0.60427 0.73603 0.01563 0.0
H1031 H 0.64805 0.74063 0.96775 0.0
H1032 H 0.98986 0.75676 0.01152 0.0
H1033 H 1.02925 0.73615 0.03501 0.0
H1034 H 0.74578 0.73192 0.06559 0.0
C1035 C 0.65856 0.77923 0.02005 0.0
C1036 C 0.69715 0.78963 0.00415 0.0
C1037 C 0.79227 0.78912 0.99596 0.0
C1038 C 0.8473 0.77832 0.00228 0.0
C1039 C 0.80651 0.76806 0.01688 0.0
C1040 C 0.71433 0.76851 0.02602 0.0
C1041 C 0.68716 0.75631 0.04177 0.0
C1042 C 0.64818 0.76311 0.09397 0.0
C1043 C 0.61954 0.7454 0.0054 0.0
C1044 C 0.77841 0.74883 0.03989 0.0
C1045 C 0.84644 0.75579 0.02543 0.0
C1046 C 0.93695 0.75118 0.02248 0.0
C1047 C 0.95869 0.73942 0.03557 0.0
C1048 C 0.89033 0.73226 0.05096 0.0
C1049 C 0.79892 0.73695 0.05265 0.0
H1050 H 0.23282 0.74459 0.56646 0.0
H1051 H 0.19162 0.70909 0.42192 0.0
H1052 H 0.24991 0.72557 0.38504 0.0
H1053 H 0.16441 0.77492 0.53854 0.0
H1054 H 0.24912 0.78774 0.57635 0.0
H1055 H 0.20763 0.77307 0.59179 0.0
H1056 H 0.37197 0.76343 0.59098 0.0
H1057 H 0.4141 0.77823 0.57641 0.0
H1058 H 0.44203 0.75905 0.53764 0.0
H1059 H 0.305 0.74637 0.36388 0.0
H1060 H 0.37146 0.76873 0.35943 0.0
H1061 H 0.37938 0.79096 0.51769 0.0
C1062 C 0.23668 0.74023 0.52701 0.0
C1063 C 0.20744 0.72548 0.49706 0.0
C1064 C 0.2145 0.72022 0.44565 0.0
C1065 C 0.24664 0.72958 0.42439 0.0
C1066 C 0.27224 0.74418 0.45497 0.0
C1067 C 0.26911 0.7494 0.5052 0.0
C1068 C 0.30201 0.76549 0.5298 0.0
C1069 C 0.22626 0.77592 0.56096 0.0
C1070 C 0.38762 0.76661 0.56052 0.0
C1071 C 0.32367 0.76857 0.48555 0.0
C1072 C 0.30524 0.75612 0.44279 0.0
C1073 C 0.32006 0.75612 0.39713 0.0
C1074 C 0.35752 0.76891 0.39499 0.0
C1075 C 0.38054 0.78163 0.43815 0.0
C1076 C 0.36135 0.78153 0.48409 0.0
H1077 H 0.86445 0.29364 0.53577 0.0
H1078 H 0.82041 0.27293 0.37932 0.0
H1079 H 0.75439 0.25076 0.38585 0.0
H1080 H 0.9351 0.26103 0.54638 0.0
H1081 H 0.88069 0.26523 0.60427 0.0
H1082 H 0.91509 0.28019 0.58852 0.0
H1083 H 0.75074 0.29069 0.60208 0.0
H1084 H 0.71612 0.27591 0.61875 0.0
H1085 H 0.65798 0.27861 0.5703 0.0
H1086 H 0.70483 0.22981 0.40869 0.0
H1087 H 0.66312 0.21286 0.44718 0.0
H1088 H 0.74281 0.24694 0.58853 0.0
C1089 C 0.83783 0.28465 0.50327 0.0
C1090 C 0.84551 0.28513 0.45714 0.0
C1091 C 0.81333 0.27289 0.41507 0.0
C1092 C 0.77638 0.26021 0.41841 0.0
C1093 C 0.77227 0.25985 0.46416 0.0
C1094 C 0.80107 0.27183 0.50597 0.0
C1095 C 0.79296 0.26829 0.55029 0.0
C1096 C 0.88653 0.26871 0.57373 0.0
C1097 C 0.72542 0.27901 0.58755 0.0
C1098 C 0.75595 0.25247 0.52686 0.0
C1099 C 0.74458 0.24777 0.47714 0.0
C1100 C 0.71289 0.23344 0.4477 0.0
C1101 C 0.6902 0.2238 0.4698 0.0
C1102 C 0.699 0.22851 0.52096 0.0
C1103 C 0.73375 0.24301 0.54944 0.0
H1104 H 1.01686 0.40279 0.18041 0.0
H1105 H 0.21648 0.3671 0.11968 0.0
H1106 H 0.21413 0.36348 0.19532 0.0
H1107 H 0.10404 0.41752 0.30868 0.0
H1108 H 0.9919 0.4215 0.33524 0.0
H1109 H 1.01347 0.42242 0.27762 0.0
H1110 H 0.88314 0.40362 0.23795 0.0
H1111 H 0.86168 0.40255 0.29527 0.0
H1112 H 0.88523 0.38576 0.24123 0.0
H1113 H 0.18203 0.36165 0.27194 0.0
H1114 H 0.12901 0.36296 0.35059 0.0
H1115 H 0.95267 0.40029 0.36774 0.0
C1116 C 0.06137 0.39447 0.18365 0.0
C1117 C 0.11664 0.38519 0.14388 0.0
C1118 C 0.17296 0.37426 0.14928 0.0
C1119 C 0.17243 0.37213 0.19226 0.0
C1120 C 0.11565 0.38106 0.2301 0.0
C1121 C 0.06179 0.39215 0.22687 0.0
C1122 C 1.0048 0.39968 0.27309 0.0
C1123 C 1.03008 0.41627 0.30027 0.0
C1124 C 0.90265 0.39779 0.26115 0.0
C1125 C 1.03402 0.39083 0.30188 0.0
C1126 C 0.09803 0.38017 0.27597 0.0
C1127 C 0.13259 0.37005 0.29289 0.0
C1128 C 0.10118 0.37079 0.33758 0.0
C1129 C 0.03603 0.38161 0.36547 0.0
C1130 C 1.00276 0.39192 0.34751 0.0
H1131 H 0.07429 0.64702 0.17958 0.0
H1132 H 0.8701 0.61255 0.11513 0.0
H1133 H 0.87489 0.60731 0.18828 0.0
H1134 H 0.20363 0.62708 0.2376 0.0
H1135 H 0.23093 0.64387 0.29081 0.0
H1136 H 0.21363 0.64463 0.23263 0.0
H1137 H 0.09526 0.66501 0.27258 0.0
H1138 H 0.10337 0.66408 0.33069 0.0
H1139 H 0.99477 0.66143 0.30032 0.0
H1140 H 0.89967 0.606 0.26928 0.0
H1141 H 0.94005 0.60924 0.35274 0.0
H1142 H 0.12652 0.64473 0.36548 0.0
C1143 C 1.03014 0.63843 0.18089 0.0
C1144 C 0.97127 0.63028 0.14148 0.0
C1145 C 0.9156 0.619 0.14468 0.0
C1146 C 0.91794 0.6159 0.18613 0.0
C1147 C 0.97646 0.62413 0.22428 0.0
C1148 C 1.0317 0.63516 0.22206 0.0
C1149 C 0.08833 0.64237 0.26823 0.0
C1150 C 0.19017 0.6393 0.25662 0.0
C1151 C 0.06901 0.65922 0.29453 0.0
C1152 C 0.05368 0.63409 0.29744 0.0
C1153 C 0.99036 0.62344 0.27107 0.0
C1154 C 0.94924 0.61431 0.29023 0.0
C1155 C 0.97278 0.61622 0.3377 0.0
C1156 C 0.03624 0.62727 0.36585 0.0
C1157 C 0.07739 0.63624 0.3451 0.0
H1158 H 0.94154 0.62082 0.83313 0.0
H1159 H 0.05802 0.6638 0.92715 0.0
H1160 H 0.08804 0.66891 0.85571 0.0
H1161 H 0.10485 0.61269 0.73485 0.0
H1162 H 1.02419 0.60396 0.68607 0.0
H1163 H 1.00716 0.60321 0.74403 0.0
H1164 H 0.84791 0.61501 0.75251 0.0
H1165 H 0.86217 0.61558 0.69388 0.0
H1166 H 0.83491 0.63245 0.74691 0.0
H1167 H 0.11118 0.66941 0.77444 0.0
H1168 H 0.12461 0.66498 0.68795 0.0
H1169 H 0.99217 0.62209 0.6446 0.0
C1170 C 0.97387 0.63124 0.83872 0.0
C1171 C 0.99779 0.6418 0.88632 0.0
C1172 C 0.03899 0.65541 0.89156 0.0
C1173 C 0.05653 0.65848 0.851 0.0
C1174 C 1.03303 0.64785 0.80486 0.0
C1175 C 0.99292 0.63447 0.79826 0.0
C1176 C 0.97617 0.62494 0.74419 0.0
C1177 C 1.03145 0.61034 0.72625 0.0
C1178 C 0.87421 0.62182 0.73377 0.0
C1179 C 1.0122 0.63514 0.72189 0.0
C1180 C 0.04496 0.64828 0.75764 0.0
C1181 C 0.08449 0.65925 0.74614 0.0
C1182 C 0.09082 0.65673 0.69681 0.0
C1183 C 0.05734 0.64342 0.65937 0.0
C1184 C 1.01781 0.63247 0.67233 0.0
H1185 H 0.04668 0.40227 0.68068 0.0
H1186 H 0.88194 0.36228 0.61314 0.0
H1187 H 0.88257 0.3592 0.68979 0.0
H1188 H 0.18698 0.38871 0.74941 0.0
H1189 H 0.19386 0.40611 0.80318 0.0
H1190 H 0.17575 0.40622 0.74416 0.0
H1191 H 1.02969 0.4221 0.77615 0.0
H1192 H 0.04774 0.42214 0.83544 0.0
H1193 H 0.94158 0.41557 0.80388 0.0
H1194 H 0.908 0.35898 0.76962 0.0
H1195 H 0.95505 0.36197 0.85103 0.0
H1196 H 0.1021 0.40231 0.87192 0.0
C1197 C 1.00939 0.39305 0.68245 0.0
C1198 C 0.96424 0.38252 0.64068 0.0
C1199 C 0.9176 0.37045 0.6443 0.0
C1200 C 0.9171 0.36862 0.68785 0.0
C1201 C 0.96333 0.37896 0.72792 0.0
C1202 C 1.00835 0.391 0.72607 0.0
C1203 C 0.05583 0.39999 0.77452 0.0
C1204 C 0.15924 0.40027 0.76737 0.0
C1205 C 1.01635 0.4159 0.79895 0.0
C1206 C 1.03159 0.39091 0.80318 0.0
C1207 C 0.9779 0.37888 0.77525 0.0
C1208 C 0.94967 0.3684 0.79199 0.0
C1209 C 0.97768 0.37012 0.83834 0.0
C1210 C 1.03344 0.38221 0.86801 0.0
C1211 C 0.05941 0.39293 0.85036 0.0
H1212 H 0.51305 0.86814 0.13219 0.0
H1213 H 0.724 0.90169 0.1658 0.0
H1214 H 0.72394 0.90507 0.25165 0.0
H1215 H 0.3898 0.88503 0.24331 0.0
H1216 H 0.36507 0.86774 0.24784 0.0
H1217 H 0.38171 0.86786 0.18876 0.0
H1218 H 0.51096 0.848 0.16877 0.0
H1219 H 0.48992 0.84758 0.227 0.0
H1220 H 0.60284 0.85129 0.21174 0.0
H1221 H 0.69325 0.90605 0.33521 0.0
H1222 H 0.64545 0.90271 0.40878 0.0
H1223 H 0.46364 0.86716 0.32001 0.0
C1224 C 0.5598 0.87612 0.15745 0.0
C1225 C 0.61694 0.88494 0.14235 0.0
C1226 C 0.67769 0.89512 0.17664 0.0
C1227 C 0.6786 0.89705 0.22551 0.0
C1228 C 0.61989 0.88845 0.23941 0.0
C1229 C 0.56272 0.878 0.20623 0.0
C1230 C 0.50722 0.87005 0.23054 0.0
C1231 C 0.40489 0.87284 0.22742 0.0
C1232 C 0.52917 0.85323 0.20818 0.0
C1233 C 0.54151 0.87775 0.28269 0.0
C1234 C 0.60584 0.88844 0.28707 0.0
C1235 C 0.64389 0.89758 0.3321 0.0
C1236 C 0.61603 0.89567 0.37367 0.0
C1237 C 0.55187 0.88456 0.36983 0.0
C1238 C 0.51435 0.87549 0.32371 0.0
H1239 H 0.45924 0.11553 0.14032 0.0
H1240 H 0.6387 0.15174 0.15204 0.0
H1241 H 0.68864 0.1543 0.23303 0.0
H1242 H 0.38714 0.13126 0.2636 0.0
H1243 H 0.38439 0.11392 0.27037 0.0
H1244 H 0.36753 0.11389 0.21108 0.0
H1245 H 0.50018 0.09501 0.17624 0.0
H1246 H 0.51742 0.09497 0.23548 0.0
H1247 H 0.61035 0.09943 0.20499 0.0
H1248 H 0.71006 0.15462 0.31474 0.0
H1249 H 0.70601 0.1522 0.39272 0.0
H1250 H 0.51594 0.11539 0.33076 0.0
C1251 C 0.50994 0.12384 0.15967 0.0
C1252 C 0.54367 0.13367 0.14009 0.0
C1253 C 0.60998 0.14438 0.16669 0.0
C1254 C 0.63953 0.14582 0.21263 0.0
C1255 C 0.60292 0.13636 0.23165 0.0
C1256 C 0.54018 0.12548 0.20606 0.0
C1257 C 0.50892 0.11729 0.23646 0.0
C1258 C 0.40588 0.11921 0.24593 0.0
C1259 C 0.53583 0.10069 0.21181 0.0
C1260 C 0.56264 0.12549 0.28332 0.0
C1261 C 0.61661 0.13639 0.27933 0.0
C1262 C 0.66896 0.14601 0.31815 0.0
C1263 C 0.66582 0.14459 0.36244 0.0
C1264 C 0.61102 0.13358 0.3679 0.0
C1265 C 0.55958 0.12376 0.32747 0.0
H1266 H 0.55132 0.11587 0.83277 0.0
H1267 H 0.37818 0.1551 0.89875 0.0
H1268 H 0.37985 0.15835 0.82238 0.0
H1269 H 0.69117 0.13068 0.76619 0.0
H1270 H 0.70334 0.11336 0.71249 0.0
H1271 H 0.68451 0.1131 0.77125 0.0
H1272 H 0.54354 0.09627 0.73702 0.0
H1273 H 0.56205 0.09646 0.6781 0.0
H1274 H 0.45392 0.1023 0.7084 0.0
H1275 H 0.40185 0.15833 0.74216 0.0
H1276 H 0.44705 0.15545 0.66067 0.0
H1277 H 0.61098 0.11668 0.64231 0.0
C1278 C 0.51297 0.125 0.8307 0.0
C1279 C 0.46464 0.13525 0.87192 0.0
C1280 C 0.41629 0.14718 0.868 0.0
C1281 C 0.41634 0.14909 0.8246 0.0
C1282 C 0.46537 0.13903 0.78502 0.0
C1283 C 0.51308 0.12722 0.78729 0.0
C1284 C 0.5635 0.11858 0.73935 0.0
C1285 C 0.66676 0.11896 0.74784 0.0
C1286 C 0.52866 0.10244 0.71423 0.0
C1287 C 0.53719 0.12756 0.71045 0.0
C1288 C 0.47991 0.1392 0.73781 0.0
C1289 C 0.44696 0.14929 0.72038 0.0
C1290 C 0.47398 0.14763 0.67397 0.0
C1291 C 0.53429 0.13605 0.64506 0.0
C1292 C 0.56511 0.12569 0.66338 0.0
H1293 H 0.46819 0.89656 0.68096 0.0
H1294 H 0.61033 0.85545 0.59111 0.0
H1295 H 0.65253 0.8521 0.66448 0.0
H1296 H 0.62809 0.9091 0.78287 0.0
H1297 H 0.54074 0.91638 0.82885 0.0
H1298 H 0.52302 0.91604 0.76915 0.0
H1299 H 0.375 0.90097 0.75951 0.0
H1300 H 0.392 0.90126 0.81915 0.0
H1301 H 0.37852 0.88368 0.76665 0.0
H1302 H 0.68003 0.85277 0.74644 0.0
H1303 H 0.68433 0.85699 0.83301 0.0
H1304 H 0.52298 0.89727 0.87215 0.0
C1305 C 0.50944 0.88701 0.67658 0.0
C1306 C 0.53726 0.8765 0.62965 0.0
C1307 C 0.58875 0.86386 0.62613 0.0
C1308 C 0.61337 0.86181 0.66782 0.0
C1309 C 0.58585 0.87243 0.71325 0.0
C1310 C 0.53463 0.88476 0.71811 0.0
C1311 C 0.5116 0.89418 0.77153 0.0
C1312 C 0.55337 0.90985 0.78913 0.0
C1313 C 0.40813 0.89507 0.77967 0.0
C1314 C 0.55744 0.88512 0.79565 0.0
C1315 C 0.60016 0.87266 0.76111 0.0
C1316 C 0.64624 0.86242 0.77379 0.0
C1317 C 0.64743 0.86479 0.82298 0.0
C1318 C 0.6023 0.8772 0.85896 0.0
C1319 C 0.55816 0.88768 0.84526 0.0
loop_
_geom_bond_atom_site_label_1
_geom_bond_atom_site_label_2
_geom_bond_distance
_geom_bond_site_symmetry_2
_ccdc_geom_bond_type
Tb0 N31 2.660 . S
Tb0 N38 2.600 . S
Tb0 O44 2.546 . S
Tb0 O45 2.610 1_455 S
Tb0 O47 2.320 1_554 S
Tb0 O48 2.552 1_455 S
Tb0 O49 2.413 . S
Tb0 O51 2.362 . S
Tb0 O52 2.421 . S
Tb0 C64 2.833 . S
C1 C4 1.432 . S
C1 C5 1.414 . S
C1 N8 1.359 . S
C2 C4 1.417 . S
C2 C6 1.432 . S
C2 C14 1.410 1_556 S
C3 C5 1.444 . S
C3 C6 1.317 . S
C3 H26 0.929 . S
C4 C1 1.432 . S
C4 C2 1.417 . S
C4 N12 1.360 1_556 S
C5 C1 1.414 . S
C5 C3 1.444 . S
C5 C10 1.385 . S
C6 C2 1.432 . S
C6 C3 1.317 . S
C6 H18 0.930 . S
C7 C9 1.392 . S
C7 C10 1.370 . S
C7 H19 0.931 . S
N8 C1 1.359 . S
N8 C9 1.327 . S
N8 Tb11 2.600 1_655 S
C9 C7 1.392 . S
C9 N8 1.327 . S
C9 H16 0.930 1_655 S
C10 C5 1.385 . S
C10 C7 1.370 . S
C10 H29 0.930 . S
Tb11 N8 2.600 1_455 S
Tb11 N12 2.660 1_456 S
Tb11 O45 2.362 1_456 S
Tb11 O46 2.421 . S
Tb11 O50 2.546 . S
Tb11 O51 2.610 1_556 S
Tb11 O53 2.320 1_556 S
Tb11 O54 2.552 . S
Tb11 O55 2.425 . S
Tb11 C75 2.833 . S
N12 C4 1.360 1_554 S
N12 Tb11 2.660 1_654 S
N12 C13 1.305 . S
C13 N12 1.305 . S
C13 C15 1.407 . S
C13 H20 0.930 . S
C14 C2 1.410 1_554 S
C14 C15 1.345 . S
C14 H22 0.930 . S
C15 C13 1.407 . S
C15 C14 1.345 . S
C15 H17 0.930 . S
H16 C9 0.930 1_455 S
H17 C15 0.930 . S
H18 C6 0.930 . S
H19 C7 0.931 . S
H20 C13 0.930 . S
H21 C35 0.930 . S
H22 C14 0.930 . S
H23 C41 0.930 . S
H24 C32 0.930 . S
H25 C39 0.931 . S
H26 C3 0.929 . S
H27 C33 0.930 . S
H28 C66 0.930 . S
H29 C10 0.930 . S
H30 C65 0.929 . S
N31 Tb0 2.660 . S
N31 C32 1.305 1_554 S
N31 C36 1.360 . S
C32 H24 0.930 . S
C32 N31 1.305 1_556 S
C32 C35 1.407 . S
C33 H27 0.930 . S
C33 C34 1.410 1_556 S
C33 C35 1.345 . S
C34 C33 1.410 1_554 S
C34 C36 1.417 . S
C34 C66 1.432 . S
C35 H21 0.930 . S
C35 C32 1.407 . S
C35 C33 1.345 . S
C36 N31 1.360 . S
C36 C34 1.417 . S
C36 C40 1.432 . S
H37 C42 0.930 . S
N38 Tb0 2.600 . S
N38 C40 1.359 . S
N38 C41 1.327 . S
C39 H25 0.931 . S
C39 C41 1.392 . S
C39 C42 1.370 . S
C40 C36 1.432 . S
C40 N38 1.359 . S
C40 C43 1.414 . S
C41 H23 0.930 . S
C41 N38 1.327 . S
C41 C39 1.392 . S
C42 H37 0.930 . S
C42 C39 1.370 . S
C42 C43 1.385 . S
C43 C40 1.414 . S
C43 C42 1.385 . S
C43 C65 1.444 . S
O44 Tb0 2.546 . S
O44 C64 1.251 . S
O45 Tb0 2.610 1_655 S
O45 Tb11 2.362 1_654 S
O45 C56 1.283 . S
O46 Tb11 2.421 . S
O46 C63 1.262 . S
O47 Tb0 2.320 1_556 S
O47 C63 1.260 . S
O48 Tb0 2.552 1_655 S
O48 C56 1.243 . S
O49 Tb0 2.413 . S
O49 C64 1.256 . S
O50 Tb11 2.546 . S
O50 C75 1.251 . S
O51 Tb0 2.362 . S
O51 Tb11 2.610 1_554 S
O51 C67 1.283 . S
O52 Tb0 2.421 . S
O52 C74 1.262 . S
O53 Tb11 2.320 1_554 S
O53 C74 1.260 . S
O54 Tb11 2.552 . S
O54 C67 1.243 1_556 S
O55 Tb11 2.425 . S
O55 C75 1.269 . S
C56 O45 1.283 . S
C56 O48 1.243 . S
C57 C59 1.382 . S
C57 C61 1.393 . S
C57 C64 1.500 1_655 S
C58 C59 1.400 . S
C58 C60 1.384 . S
C59 C57 1.382 . S
C59 C58 1.400 . S
C59 H76 0.930 1_554 S
C60 C58 1.384 . S
C60 C62 1.392 . S
C60 H77 0.931 . S
C61 C57 1.393 . S
C61 C62 1.401 . S
C61 H78 0.930 1_655 S
C62 C60 1.392 . S
C62 C61 1.401 . S
C62 H79 0.930 . S
C63 O46 1.262 . S
C63 O47 1.260 . S
C64 Tb0 2.833 . S
C64 O44 1.251 . S
C64 O49 1.256 . S
C64 C57 1.500 1_455 S
C65 H30 0.929 . S
C65 C43 1.444 . S
C65 C66 1.317 . S
C66 H28 0.930 . S
C66 C34 1.432 . S
C66 C65 1.317 . S
C67 O51 1.283 . S
C67 O54 1.243 1_554 S
C68 C69 1.382 . S
C68 C72 1.393 . S
C68 C75 1.500 . S
C69 C68 1.382 . S
C69 C70 1.400 . S
C69 H80 0.930 1_556 S
C70 C69 1.400 . S
C70 C71 1.384 . S
C71 C70 1.384 . S
C71 C73 1.392 . S
C71 H81 0.931 . S
C72 C68 1.393 . S
C72 C73 1.401 . S
C72 H82 0.930 . S
C73 C71 1.392 . S
C73 C72 1.401 . S
C73 H83 0.930 . S
C74 O52 1.262 . S
C74 O53 1.260 . S
C75 Tb11 2.833 . S
C75 O50 1.251 . S
C75 O55 1.269 . S
C75 C68 1.500 . S
H76 C59 0.930 1_556 S
H77 C60 0.931 . S
H78 C61 0.930 1_455 S
H79 C62 0.930 . S
H80 C69 0.930 1_554 S
H81 C71 0.931 . S
H82 C72 0.930 . S
H83 C73 0.930 . S
Tb84 N115 2.660 1_655 S
Tb84 N122 2.600 1_655 S
Tb84 O128 2.546 . S
Tb84 O129 2.610 . S
Tb84 O131 2.320 1_554 S
Tb84 O132 2.552 . S
Tb84 O133 2.413 . S
Tb84 O135 2.362 1_655 S
Tb84 O136 2.421 . S
Tb84 C148 2.833 . S
C85 C88 1.432 . S
C85 C89 1.414 . S
C85 N92 1.359 . S
C86 C88 1.417 . S
C86 C90 1.432 . S
C86 C98 1.410 1_556 S
C87 C89 1.444 . S
C87 C90 1.317 . S
C87 H110 0.929 . S
C88 C85 1.432 . S
C88 C86 1.417 . S
C88 N96 1.360 1_556 S
C89 C85 1.414 . S
C89 C87 1.444 . S
C89 C94 1.385 . S
C90 C86 1.432 . S
C90 C87 1.317 . S
C90 H102 0.930 . S
C91 C93 1.392 . S
C91 C94 1.370 . S
C91 H103 0.931 . S
N92 C85 1.359 . S
N92 C93 1.327 . S
N92 Tb95 2.600 . S
C93 C91 1.392 . S
C93 N92 1.327 . S
C93 H100 0.930 . S
C94 C89 1.385 . S
C94 C91 1.370 . S
C94 H113 0.930 . S
Tb95 N92 2.600 . S
Tb95 N96 2.660 1_556 S
Tb95 O129 2.362 1_556 S
Tb95 O130 2.421 . S
Tb95 O134 2.546 . S
Tb95 O135 2.610 1_656 S
Tb95 O137 2.320 1_556 S
Tb95 O138 2.552 1_655 S
Tb95 O139 2.413 1_556 S
Tb95 C159 2.833 . S
N96 C88 1.360 1_554 S
N96 Tb95 2.660 1_554 S
N96 C97 1.305 . S
C97 N96 1.305 . S
C97 C99 1.407 . S
C97 H104 0.930 . S
C98 C86 1.410 1_554 S
C98 C99 1.345 . S
C98 H106 0.930 . S
C99 C97 1.407 . S
C99 C98 1.345 . S
C99 H101 0.930 . S
H100 C93 0.930 . S
H101 C99 0.930 . S
H102 C90 0.930 . S
H103 C91 0.931 . S
H104 C97 0.930 . S
H105 C119 0.930 . S
H106 C98 0.930 . S
H107 C125 0.930 1_655 S
H108 C116 0.930 . S
H109 C123 0.931 . S
H110 C87 0.929 . S
H111 C117 0.930 . S
H112 C150 0.930 . S
H113 C94 0.930 . S
H114 C149 0.929 . S
N115 Tb84 2.660 1_455 S
N115 C116 1.305 1_554 S
N115 C120 1.360 . S
C116 H108 0.930 . S
C116 N115 1.305 1_556 S
C116 C119 1.407 . S
C117 H111 0.930 . S
C117 C118 1.410 1_556 S
C117 C119 1.345 . S
C118 C117 1.410 1_554 S
C118 C120 1.417 . S
C118 C150 1.432 . S
C119 H105 0.930 . S
C119 C116 1.407 . S
C119 C117 1.345 . S
C120 N115 1.360 . S
C120 C118 1.417 . S
C120 C124 1.432 . S
H121 C126 0.930 . S
N122 Tb84 2.600 1_455 S
N122 C124 1.359 . S
N122 C125 1.327 . S
C123 H109 0.931 . S
C123 C125 1.392 . S
C123 C126 1.370 . S
C124 C120 1.432 . S
C124 N122 1.359 . S
C124 C127 1.414 . S
C125 H107 0.930 1_455 S
C125 N122 1.327 . S
C125 C123 1.392 . S
C126 H121 0.930 . S
C126 C123 1.370 . S
C126 C127 1.385 . S
C127 C124 1.414 . S
C127 C126 1.385 . S
C127 C149 1.444 . S
O128 Tb84 2.546 . S
O128 C148 1.251 . S
O129 Tb84 2.610 . S
O129 Tb95 2.362 1_554 S
O129 C140 1.283 . S
O130 Tb95 2.421 . S
O130 C147 1.262 . S
O131 Tb84 2.320 1_556 S
O131 C147 1.260 . S
O132 Tb84 2.552 . S
O132 C140 1.243 . S
O133 Tb84 2.413 . S
O133 C148 1.256 . S
O134 Tb95 2.546 . S
O134 C159 1.251 . S
O135 Tb84 2.362 1_455 S
O135 Tb95 2.610 1_454 S
O135 C151 1.283 . S
O136 Tb84 2.421 . S
O136 C158 1.262 . S
O137 Tb95 2.320 1_554 S
O137 C158 1.260 . S
O138 Tb95 2.552 1_455 S
O138 C151 1.243 1_556 S
O139 Tb95 2.413 1_554 S
O139 C159 1.256 1_554 S
C140 O129 1.283 . S
C140 O132 1.243 . S
C141 C143 1.382 . S
C141 C145 1.393 . S
C141 C148 1.500 . S
C142 C143 1.400 . S
C142 C144 1.384 . S
C143 C141 1.382 . S
C143 C142 1.400 . S
C143 H160 0.930 . S
C144 C142 1.384 . S
C144 C146 1.392 . S
C144 H161 0.931 . S
C145 C141 1.393 . S
C145 C146 1.401 . S
C145 H162 0.930 . S
C146 C144 1.392 . S
C146 C145 1.401 . S
C146 H163 0.930 . S
C147 O130 1.262 . S
C147 O131 1.260 . S
C148 Tb84 2.833 . S
C148 O128 1.251 . S
C148 O133 1.256 . S
C148 C141 1.500 . S
C149 H114 0.929 . S
C149 C127 1.444 . S
C149 C150 1.317 . S
C150 H112 0.930 . S
C150 C118 1.432 . S
C150 C149 1.317 . S
C151 O135 1.283 . S
C151 O138 1.243 1_554 S
C152 C153 1.382 . S
C152 C156 1.393 . S
C152 C159 1.500 1_455 S
C153 C152 1.382 . S
C153 C154 1.400 . S
C153 H164 0.930 1_556 S
C154 C153 1.400 . S
C154 C155 1.384 . S
C155 C154 1.384 . S
C155 C157 1.392 . S
C155 H165 0.931 . S
C156 C152 1.393 . S
C156 C157 1.401 . S
C156 H166 0.930 1_455 S
C157 C155 1.392 . S
C157 C156 1.401 . S
C157 H167 0.930 . S
C158 O136 1.262 . S
C158 O137 1.260 . S
C159 Tb95 2.833 . S
C159 O134 1.251 . S
C159 O139 1.256 1_556 S
C159 C152 1.500 1_655 S
H160 C143 0.930 . S
H161 C144 0.931 . S
H162 C145 0.930 . S
H163 C146 0.930 . S
H164 C153 0.930 1_554 S
H165 C155 0.931 . S
H166 C156 0.930 1_655 S
H167 C157 0.930 . S
Tb168 N199 2.660 . S
Tb168 N206 2.600 . S
Tb168 O212 2.546 . S
Tb168 O213 2.610 1_455 S
Tb168 O215 2.320 . S
Tb168 O216 2.552 1_455 S
Tb168 O217 2.413 . S
Tb168 O219 2.362 . S
Tb168 O220 2.421 . S
Tb168 C232 2.833 . S
C169 C172 1.432 . S
C169 C173 1.414 . S
C169 N176 1.359 . S
C170 C172 1.417 . S
C170 C174 1.432 . S
C170 C182 1.410 . S
C171 C173 1.444 . S
C171 C174 1.317 . S
C171 H194 0.929 . S
C172 C169 1.432 . S
C172 C170 1.417 . S
C172 N180 1.360 . S
C173 C169 1.414 . S
C173 C171 1.444 . S
C173 C178 1.385 . S
C174 C170 1.432 . S
C174 C171 1.317 . S
C174 H186 0.930 . S
C175 C177 1.392 . S
C175 C178 1.370 . S
C175 H187 0.931 . S
N176 C169 1.359 . S
N176 C177 1.327 . S
N176 Tb179 2.600 1_655 S
C177 C175 1.392 . S
C177 N176 1.327 . S
C177 H184 0.930 1_655 S
C178 C173 1.385 . S
C178 C175 1.370 . S
C178 H197 0.930 . S
Tb179 N176 2.600 1_455 S
Tb179 N180 2.660 1_455 S
Tb179 O213 2.362 1_455 S
Tb179 O214 2.421 . S
Tb179 O218 2.546 . S
Tb179 O219 2.610 . S
Tb179 O221 2.320 . S
Tb179 O222 2.552 . S
Tb179 O223 2.413 . S
Tb179 C243 2.833 . S
N180 C172 1.360 . S
N180 Tb179 2.660 1_655 S
N180 C181 1.305 . S
C181 N180 1.305 . S
C181 C183 1.407 . S
C181 H188 0.930 . S
C182 C170 1.410 . S
C182 C183 1.345 . S
C182 H190 0.930 . S
C183 C181 1.407 . S
C183 C182 1.345 . S
C183 H185 0.930 . S
H184 C177 0.930 1_455 S
H185 C183 0.930 . S
H186 C174 0.930 . S
H187 C175 0.931 . S
H188 C181 0.930 . S
H189 C203 0.930 . S
H190 C182 0.930 . S
H191 C209 0.930 . S
H192 C200 0.930 . S
H193 C207 0.931 . S
H194 C171 0.929 . S
H195 C201 0.930 . S
H196 C234 0.930 . S
H197 C178 0.930 . S
H198 C233 0.929 . S
N199 Tb168 2.660 . S
N199 C200 1.305 . S
N199 C204 1.360 . S
C200 H192 0.930 . S
C200 N199 1.305 . S
C200 C203 1.407 . S
C201 H195 0.930 . S
C201 C202 1.410 . S
C201 C203 1.345 . S
C202 C201 1.410 . S
C202 C204 1.417 . S
C202 C234 1.432 . S
C203 H189 0.930 . S
C203 C200 1.407 . S
C203 C201 1.345 . S
C204 N199 1.360 . S
C204 C202 1.417 . S
C204 C208 1.432 . S
H205 C210 0.930 . S
N206 Tb168 2.600 . S
N206 C208 1.359 . S
N206 C209 1.327 . S
C207 H193 0.931 . S
C207 C209 1.392 . S
C207 C210 1.370 . S
C208 C204 1.432 . S
C208 N206 1.359 . S
C208 C211 1.414 . S
C209 H191 0.930 . S
C209 N206 1.327 . S
C209 C207 1.392 . S
C210 H205 0.930 . S
C210 C207 1.370 . S
C210 C211 1.385 . S
C211 C208 1.414 . S
C211 C210 1.385 . S
C211 C233 1.444 . S
O212 Tb168 2.546 . S
O212 C232 1.251 . S
O213 Tb168 2.610 1_655 S
O213 Tb179 2.362 1_655 S
O213 C224 1.283 . S
O214 Tb179 2.421 . S
O214 C231 1.262 . S
O215 Tb168 2.320 . S
O215 C231 1.260 . S
O216 Tb168 2.552 1_655 S
O216 C224 1.243 . S
O217 Tb168 2.413 . S
O217 C232 1.256 . S
O218 Tb179 2.546 . S
O218 C243 1.251 . S
O219 Tb168 2.362 . S
O219 Tb179 2.610 . S
O219 C235 1.283 . S
O220 Tb168 2.421 . S
O220 C242 1.262 . S
O221 Tb179 2.320 . S
O221 C242 1.260 . S
O222 Tb179 2.552 . S
O222 C235 1.243 . S
O223 Tb179 2.413 . S
O223 C243 1.256 . S
C224 O213 1.283 . S
C224 O216 1.243 . S
C225 C227 1.382 . S
C225 C229 1.393 . S
C225 C232 1.500 1_655 S
C226 C227 1.400 . S
C226 C228 1.384 . S
C227 C225 1.382 . S
C227 C226 1.400 . S
C227 H244 0.930 . S
C228 C226 1.384 . S
C228 C230 1.392 . S
C228 H245 0.931 . S
C229 C225 1.393 . S
C229 C230 1.401 . S
C229 H246 0.930 1_655 S
C230 C228 1.392 . S
C230 C229 1.401 . S
C230 H247 0.930 . S
C231 O214 1.262 . S
C231 O215 1.260 . S
C232 Tb168 2.833 . S
C232 O212 1.251 . S
C232 O217 1.256 . S
C232 C225 1.500 1_455 S
C233 H198 0.929 . S
C233 C211 1.444 . S
C233 C234 1.317 . S
C234 H196 0.930 . S
C234 C202 1.432 . S
C234 C233 1.317 . S
C235 O219 1.283 . S
C235 O222 1.243 . S
C236 C237 1.382 . S
C236 C240 1.393 . S
C236 C243 1.500 . S
C237 C236 1.382 . S
C237 C238 1.400 . S
C237 H248 0.930 . S
C238 C237 1.400 . S
C238 C239 1.384 . S
C239 C238 1.384 . S
C239 C241 1.392 . S
C239 H249 0.931 . S
C240 C236 1.393 . S
C240 C241 1.401 . S
C240 H250 0.930 . S
C241 C239 1.392 . S
C241 C240 1.401 . S
C241 H251 0.930 . S
C242 O220 1.262 . S
C242 O221 1.260 . S
C243 Tb179 2.833 . S
C243 O218 1.251 . S
C243 O223 1.256 . S
C243 C236 1.500 . S
H244 C227 0.930 . S
H245 C228 0.931 . S
H246 C229 0.930 1_455 S
H247 C230 0.930 . S
H248 C237 0.930 . S
H249 C239 0.931 . S
H250 C240 0.930 . S
H251 C241 0.930 . S
Tb252 N283 2.660 1_655 S
Tb252 N290 2.600 1_655 S
Tb252 O296 2.546 . S
Tb252 O297 2.610 . S
Tb252 O299 2.320 . S
Tb252 O300 2.552 . S
Tb252 O301 2.413 . S
Tb252 O303 2.362 1_655 S
Tb252 O304 2.421 . S
Tb252 C316 2.833 . S
C253 C256 1.432 . S
C253 C257 1.414 . S
C253 N260 1.359 . S
C254 C256 1.417 . S
C254 C258 1.432 . S
C254 C266 1.410 . S
C255 C257 1.444 . S
C255 C258 1.317 . S
C255 H278 0.929 . S
C256 C253 1.432 . S
C256 C254 1.417 . S
C256 N264 1.360 . S
C257 C253 1.414 . S
C257 C255 1.444 . S
C257 C262 1.385 . S
C258 C254 1.432 . S
C258 C255 1.317 . S
C258 H270 0.930 . S
C259 C261 1.392 . S
C259 C262 1.370 . S
C259 H271 0.931 . S
N260 C253 1.359 . S
N260 C261 1.327 . S
N260 Tb263 2.600 . S
C261 C259 1.392 . S
C261 N260 1.327 . S
C261 H268 0.930 . S
C262 C257 1.385 . S
C262 C259 1.370 . S
C262 H281 0.930 . S
Tb263 N260 2.600 . S
Tb263 N264 2.660 . S
Tb263 O297 2.362 . S
Tb263 O298 2.421 . S
Tb263 O302 2.546 . S
Tb263 O303 2.610 1_655 S
Tb263 O305 2.320 . S
Tb263 O306 2.552 1_655 S
Tb263 O307 2.413 . S
Tb263 C327 2.833 . S
N264 C256 1.360 . S
N264 Tb263 2.660 . S
N264 C265 1.305 . S
C265 N264 1.305 . S
C265 C267 1.407 . S
C265 H272 0.930 . S
C266 C254 1.410 . S
C266 C267 1.345 . S
C266 H274 0.930 . S
C267 C265 1.407 . S
C267 C266 1.345 . S
C267 H269 0.930 . S
H268 C261 0.930 . S
H269 C267 0.930 . S
H270 C258 0.930 . S
H271 C259 0.931 . S
H272 C265 0.930 . S
H273 C287 0.930 . S
H274 C266 0.930 . S
H275 C293 0.930 1_655 S
H276 C284 0.930 . S
H277 C291 0.931 . S
H278 C255 0.929 . S
H279 C285 0.930 . S
H280 C318 0.930 . S
H281 C262 0.930 . S
H282 C317 0.929 . S
N283 Tb252 2.660 1_455 S
N283 C284 1.305 . S
N283 C288 1.360 . S
C284 H276 0.930 . S
C284 N283 1.305 . S
C284 C287 1.407 . S
C285 H279 0.930 . S
C285 C286 1.410 . S
C285 C287 1.345 . S
C286 C285 1.410 . S
C286 C288 1.417 . S
C286 C318 1.432 . S
C287 H273 0.930 . S
C287 C284 1.407 . S
C287 C285 1.345 . S
C288 N283 1.360 . S
C288 C286 1.417 . S
C288 C292 1.432 . S
H289 C294 0.930 . S
N290 Tb252 2.600 1_455 S
N290 C292 1.359 . S
N290 C293 1.327 . S
C291 H277 0.931 . S
C291 C293 1.392 . S
C291 C294 1.370 . S
C292 C288 1.432 . S
C292 N290 1.359 . S
C292 C295 1.414 . S
C293 H275 0.930 1_455 S
C293 N290 1.327 . S
C293 C291 1.392 . S
C294 H289 0.930 . S
C294 C291 1.370 . S
C294 C295 1.385 . S
C295 C292 1.414 . S
C295 C294 1.385 . S
C295 C317 1.444 . S
O296 Tb252 2.546 . S
O296 C316 1.251 . S
O297 Tb252 2.610 . S
O297 Tb263 2.362 . S
O297 C308 1.283 . S
O298 Tb263 2.421 . S
O298 C315 1.262 . S
O299 Tb252 2.320 . S
O299 C315 1.260 . S
O300 Tb252 2.552 . S
O300 C308 1.243 . S
O301 Tb252 2.413 . S
O301 C316 1.256 . S
O302 Tb263 2.546 . S
O302 C327 1.251 . S
O303 Tb252 2.362 1_455 S
O303 Tb263 2.610 1_455 S
O303 C319 1.283 . S
O304 Tb252 2.421 . S
O304 C326 1.262 . S
O305 Tb263 2.320 . S
O305 C326 1.260 . S
O306 Tb263 2.552 1_455 S
O306 C319 1.243 . S
O307 Tb263 2.413 . S
O307 C327 1.256 . S
C308 O297 1.283 . S
C308 O300 1.243 . S
C309 C311 1.382 . S
C309 C313 1.393 . S
C309 C316 1.500 . S
C310 C311 1.400 . S
C310 C312 1.384 . S
C311 C309 1.382 . S
C311 C310 1.400 . S
C311 H328 0.930 . S
C312 C310 1.384 . S
C312 C314 1.392 . S
C312 H329 0.931 . S
C313 C309 1.393 . S
C313 C314 1.401 . S
C313 H330 0.930 . S
C314 C312 1.392 . S
C314 C313 1.401 . S
C314 H331 0.930 . S
C315 O298 1.262 . S
C315 O299 1.260 . S
C316 Tb252 2.833 . S
C316 O296 1.251 . S
C316 O301 1.256 . S
C316 C309 1.500 . S
C317 H282 0.929 . S
C317 C295 1.444 . S
C317 C318 1.317 . S
C318 H280 0.930 . S
C318 C286 1.432 . S
C318 C317 1.317 . S
C319 O303 1.283 . S
C319 O306 1.243 . S
C320 C321 1.382 . S
C320 C324 1.393 . S
C320 C327 1.500 1_455 S
C321 C320 1.382 . S
C321 C322 1.400 . S
C321 H332 0.930 . S
C322 C321 1.400 . S
C322 C323 1.384 . S
C323 C322 1.384 . S
C323 C325 1.392 . S
C323 H333 0.931 . S
C324 C320 1.393 . S
C324 C325 1.401 . S
C324 H334 0.930 1_455 S
C325 C323 1.392 . S
C325 C324 1.401 . S
C325 H335 0.930 . S
C326 O304 1.262 . S
C326 O305 1.260 . S
C327 Tb263 2.833 . S
C327 O302 1.251 . S
C327 O307 1.256 . S
C327 C320 1.500 1_655 S
H328 C311 0.930 . S
H329 C312 0.931 . S
H330 C313 0.930 . S
H331 C314 0.930 . S
H332 C321 0.930 . S
H333 C323 0.931 . S
H334 C324 0.930 1_655 S
H335 C325 0.930 . S
Tb336 N367 2.660 . S
Tb336 N374 2.600 . S
Tb336 O380 2.546 . S
Tb336 O381 2.610 . S
Tb336 O383 2.320 1_554 S
Tb336 O384 2.552 . S
Tb336 O385 2.413 . S
Tb336 O387 2.362 . S
Tb336 O388 2.421 . S
Tb336 C400 2.833 . S
C337 C340 1.432 . S
C337 C341 1.414 . S
C337 N344 1.359 . S
C338 C340 1.417 . S
C338 C342 1.432 . S
C338 C350 1.410 1_556 S
C339 C341 1.444 . S
C339 C342 1.317 . S
C339 H362 0.929 . S
C340 C337 1.432 . S
C340 C338 1.417 . S
C340 N348 1.360 1_556 S
C341 C337 1.414 . S
C341 C339 1.444 . S
C341 C346 1.385 . S
C342 C338 1.432 . S
C342 C339 1.317 . S
C342 H354 0.930 . S
C343 C345 1.392 . S
C343 C346 1.370 . S
C343 H355 0.931 . S
N344 C337 1.359 . S
N344 C345 1.327 . S
N344 Tb347 2.600 . S
C345 C343 1.392 . S
C345 N344 1.327 . S
C345 H352 0.930 . S
C346 C341 1.385 . S
C346 C343 1.370 . S
C346 H365 0.930 . S
Tb347 N344 2.600 . S
Tb347 N348 2.660 1_556 S
Tb347 O381 2.362 1_556 S
Tb347 O382 2.421 . S
Tb347 O386 2.546 . S
Tb347 O387 2.610 1_556 S
Tb347 O389 2.320 1_556 S
Tb347 O390 2.552 . S
Tb347 O391 2.425 . S
Tb347 C411 2.833 . S
N348 C340 1.360 1_554 S
N348 Tb347 2.660 1_554 S
N348 C349 1.305 . S
C349 N348 1.305 . S
C349 C351 1.407 . S
C349 H356 0.930 . S
C350 C338 1.410 1_554 S
C350 C351 1.345 . S
C350 H358 0.930 . S
C351 C349 1.407 . S
C351 C350 1.345 . S
C351 H353 0.930 . S
H352 C345 0.930 . S
H353 C351 0.930 . S
H354 C342 0.930 . S
H355 C343 0.931 . S
H356 C349 0.930 . S
H357 C371 0.930 . S
H358 C350 0.930 . S
H359 C377 0.930 . S
H360 C368 0.930 . S
H361 C375 0.931 . S
H362 C339 0.929 . S
H363 C369 0.930 . S
H364 C402 0.930 . S
H365 C346 0.930 . S
H366 C401 0.929 . S
N367 Tb336 2.660 . S
N367 C368 1.305 1_554 S
N367 C372 1.360 . S
C368 H360 0.930 . S
C368 N367 1.305 1_556 S
C368 C371 1.407 . S
C369 H363 0.930 . S
C369 C370 1.410 1_556 S
C369 C371 1.345 . S
C370 C369 1.410 1_554 S
C370 C372 1.417 . S
C370 C402 1.432 . S
C371 H357 0.930 . S
C371 C368 1.407 . S
C371 C369 1.345 . S
C372 N367 1.360 . S
C372 C370 1.417 . S
C372 C376 1.432 . S
H373 C378 0.930 . S
N374 Tb336 2.600 . S
N374 C376 1.359 . S
N374 C377 1.327 . S
C375 H361 0.931 . S
C375 C377 1.392 . S
C375 C378 1.370 . S
C376 C372 1.432 . S
C376 N374 1.359 . S
C376 C379 1.414 . S
C377 H359 0.930 . S
C377 N374 1.327 . S
C377 C375 1.392 . S
C378 H373 0.930 . S
C378 C375 1.370 . S
C378 C379 1.385 . S
C379 C376 1.414 . S
C379 C378 1.385 . S
C379 C401 1.444 . S
O380 Tb336 2.546 . S
O380 C400 1.251 . S
O381 Tb336 2.610 . S
O381 Tb347 2.362 1_554 S
O381 C392 1.283 . S
O382 Tb347 2.421 . S
O382 C399 1.262 . S
O383 Tb336 2.320 1_556 S
O383 C399 1.260 . S
O384 Tb336 2.552 . S
O384 C392 1.243 . S
O385 Tb336 2.413 . S
O385 C400 1.256 . S
O386 Tb347 2.546 . S
O386 C411 1.251 . S
O387 Tb336 2.362 . S
O387 Tb347 2.610 1_554 S
O387 C403 1.283 . S
O388 Tb336 2.421 . S
O388 C410 1.262 . S
O389 Tb347 2.320 1_554 S
O389 C410 1.260 . S
O390 Tb347 2.552 . S
O390 C403 1.243 1_556 S
O391 Tb347 2.425 . S
O391 C411 1.269 . S
C392 O381 1.283 . S
C392 O384 1.243 . S
C393 C395 1.382 . S
C393 C397 1.393 . S
C393 C400 1.500 . S
C394 C395 1.400 . S
C394 C396 1.384 . S
C395 C393 1.382 . S
C395 C394 1.400 . S
C395 H412 0.930 1_554 S
C396 C394 1.384 . S
C396 C398 1.392 . S
C396 H413 0.931 . S
C397 C393 1.393 . S
C397 C398 1.401 . S
C397 H414 0.930 . S
C398 C396 1.392 . S
C398 C397 1.401 . S
C398 H415 0.930 . S
C399 O382 1.262 . S
C399 O383 1.260 . S
C400 Tb336 2.833 . S
C400 O380 1.251 . S
C400 O385 1.256 . S
C400 C393 1.500 . S
C401 H366 0.929 . S
C401 C379 1.444 . S
C401 C402 1.317 . S
C402 H364 0.930 . S
C402 C370 1.432 . S
C402 C401 1.317 . S
C403 O387 1.283 . S
C403 O390 1.243 1_554 S
C404 C405 1.382 . S
C404 C408 1.393 . S
C404 C411 1.500 . S
C405 C404 1.382 . S
C405 C406 1.400 . S
C405 H416 0.930 1_556 S
C406 C405 1.400 . S
C406 C407 1.384 . S
C407 C406 1.384 . S
C407 C409 1.392 . S
C407 H417 0.931 . S
C408 C404 1.393 . S
C408 C409 1.401 . S
C408 H418 0.930 . S
C409 C407 1.392 . S
C409 C408 1.401 . S
C409 H419 0.930 . S
C410 O388 1.262 . S
C410 O389 1.260 . S
C411 Tb347 2.833 . S
C411 O386 1.251 . S
C411 O391 1.269 . S
C411 C404 1.500 . S
H412 C395 0.930 1_556 S
H413 C396 0.931 . S
H414 C397 0.930 . S
H415 C398 0.930 . S
H416 C405 0.930 1_554 S
H417 C407 0.931 . S
H418 C408 0.930 . S
H419 C409 0.930 . S
Tb420 N451 2.660 . S
Tb420 N458 2.600 . S
Tb420 O464 2.546 . S
Tb420 O465 2.610 . S
Tb420 O467 2.320 1_554 S
Tb420 O468 2.552 . S
Tb420 O469 2.413 . S
Tb420 O471 2.362 . S
Tb420 O472 2.421 . S
Tb420 C484 2.833 . S
C421 C424 1.432 . S
C421 C425 1.414 . S
C421 N428 1.359 . S
C422 C424 1.417 . S
C422 C426 1.432 . S
C422 C434 1.410 1_556 S
C423 C425 1.444 . S
C423 C426 1.317 . S
C423 H446 0.929 . S
C424 C421 1.432 . S
C424 C422 1.417 . S
C424 N432 1.360 1_556 S
C425 C421 1.414 . S
C425 C423 1.444 . S
C425 C430 1.385 . S
C426 C422 1.432 . S
C426 C423 1.317 . S
C426 H438 0.930 . S
C427 C429 1.392 . S
C427 C430 1.370 . S
C427 H439 0.931 . S
N428 C421 1.359 . S
N428 C429 1.327 . S
N428 Tb431 2.600 . S
C429 C427 1.392 . S
C429 N428 1.327 . S
C429 H436 0.930 . S
C430 C425 1.385 . S
C430 C427 1.370 . S
C430 H449 0.930 . S
Tb431 N428 2.600 . S
Tb431 N432 2.660 1_556 S
Tb431 O465 2.362 1_556 S
Tb431 O466 2.421 . S
Tb431 O470 2.546 . S
Tb431 O471 2.610 1_556 S
Tb431 O473 2.320 1_556 S
Tb431 O474 2.552 . S
Tb431 O475 2.413 1_556 S
Tb431 C495 2.833 . S
N432 C424 1.360 1_554 S
N432 Tb431 2.660 1_554 S
N432 C433 1.305 . S
C433 N432 1.305 . S
C433 C435 1.407 . S
C433 H440 0.930 . S
C434 C422 1.410 1_554 S
C434 C435 1.345 . S
C434 H442 0.930 . S
C435 C433 1.407 . S
C435 C434 1.345 . S
C435 H437 0.930 . S
H436 C429 0.930 . S
H437 C435 0.930 . S
H438 C426 0.930 . S
H439 C427 0.931 . S
H440 C433 0.930 . S
H441 C455 0.930 . S
H442 C434 0.930 . S
H443 C461 0.930 . S
H444 C452 0.930 . S
H445 C459 0.931 . S
H446 C423 0.929 . S
H447 C453 0.930 . S
H448 C486 0.930 . S
H449 C430 0.930 . S
H450 C485 0.929 . S
N451 Tb420 2.660 . S
N451 C452 1.305 1_554 S
N451 C456 1.360 . S
C452 H444 0.930 . S
C452 N451 1.305 1_556 S
C452 C455 1.407 . S
C453 H447 0.930 . S
C453 C454 1.410 1_556 S
C453 C455 1.345 . S
C454 C453 1.410 1_554 S
C454 C456 1.417 . S
C454 C486 1.432 . S
C455 H441 0.930 . S
C455 C452 1.407 . S
C455 C453 1.345 . S
C456 N451 1.360 . S
C456 C454 1.417 . S
C456 C460 1.432 . S
H457 C462 0.930 . S
N458 Tb420 2.600 . S
N458 C460 1.359 . S
N458 C461 1.327 . S
C459 H445 0.931 . S
C459 C461 1.392 . S
C459 C462 1.370 . S
C460 C456 1.432 . S
C460 N458 1.359 . S
C460 C463 1.414 . S
C461 H443 0.930 . S
C461 N458 1.327 . S
C461 C459 1.392 . S
C462 H457 0.930 . S
C462 C459 1.370 . S
C462 C463 1.385 . S
C463 C460 1.414 . S
C463 C462 1.385 . S
C463 C485 1.444 . S
O464 Tb420 2.546 . S
O464 C484 1.251 . S
O465 Tb420 2.610 . S
O465 Tb431 2.362 1_554 S
O465 C476 1.283 . S
O466 Tb431 2.421 . S
O466 C483 1.262 . S
O467 Tb420 2.320 1_556 S
O467 C483 1.260 . S
O468 Tb420 2.552 . S
O468 C476 1.243 . S
O469 Tb420 2.413 . S
O469 C484 1.256 . S
O470 Tb431 2.546 . S
O470 C495 1.251 . S
O471 Tb420 2.362 . S
O471 Tb431 2.610 1_554 S
O471 C487 1.283 . S
O472 Tb420 2.421 . S
O472 C494 1.262 . S
O473 Tb431 2.320 1_554 S
O473 C494 1.260 . S
O474 Tb431 2.552 . S
O474 C487 1.243 1_556 S
O475 Tb431 2.413 1_554 S
O475 C495 1.256 1_554 S
C476 O465 1.283 . S
C476 O468 1.243 . S
C477 C479 1.382 . S
C477 C481 1.393 . S
C477 C484 1.500 . S
C478 C479 1.400 . S
C478 C480 1.384 . S
C479 C477 1.382 . S
C479 C478 1.400 . S
C479 H496 0.930 . S
C480 C478 1.384 . S
C480 C482 1.392 . S
C480 H497 0.931 . S
C481 C477 1.393 . S
C481 C482 1.401 . S
C481 H498 0.930 . S
C482 C480 1.392 . S
C482 C481 1.401 . S
C482 H499 0.930 . S
C483 O466 1.262 . S
C483 O467 1.260 . S
C484 Tb420 2.833 . S
C484 O464 1.251 . S
C484 O469 1.256 . S
C484 C477 1.500 . S
C485 H450 0.929 . S
C485 C463 1.444 . S
C485 C486 1.317 . S
C486 H448 0.930 . S
C486 C454 1.432 . S
C486 C485 1.317 . S
C487 O471 1.283 . S
C487 O474 1.243 1_554 S
C488 C489 1.382 . S
C488 C492 1.393 . S
C488 C495 1.500 . S
C489 C488 1.382 . S
C489 C490 1.400 . S
C489 H500 0.930 1_556 S
C490 C489 1.400 . S
C490 C491 1.384 . S
C491 C490 1.384 . S
C491 C493 1.392 . S
C491 H501 0.931 . S
C492 C488 1.393 . S
C492 C493 1.401 . S
C492 H502 0.930 . S
C493 C491 1.392 . S
C493 C492 1.401 . S
C493 H503 0.930 . S
C494 O472 1.262 . S
C494 O473 1.260 . S
C495 Tb431 2.833 . S
C495 O470 1.251 . S
C495 O475 1.256 1_556 S
C495 C488 1.500 . S
H496 C479 0.930 . S
H497 C480 0.931 . S
H498 C481 0.930 . S
H499 C482 0.930 . S
H500 C489 0.930 1_554 S
H501 C491 0.931 . S
H502 C492 0.930 . S
H503 C493 0.930 . S
Tb504 N535 2.660 . S
Tb504 N542 2.600 . S
Tb504 O548 2.546 . S
Tb504 O549 2.610 . S
Tb504 O551 2.320 . S
Tb504 O552 2.552 . S
Tb504 O553 2.413 . S
Tb504 O555 2.362 . S
Tb504 O556 2.421 . S
Tb504 C568 2.833 . S
C505 C508 1.432 . S
C505 C509 1.414 . S
C505 N512 1.359 . S
C506 C508 1.417 . S
C506 C510 1.432 . S
C506 C518 1.410 . S
C507 C509 1.444 . S
C507 C510 1.317 . S
C507 H530 0.929 . S
C508 C505 1.432 . S
C508 C506 1.417 . S
C508 N516 1.360 . S
C509 C505 1.414 . S
C509 C507 1.444 . S
C509 C514 1.385 . S
C510 C506 1.432 . S
C510 C507 1.317 . S
C510 H522 0.930 . S
C511 C513 1.392 . S
C511 C514 1.370 . S
C511 H523 0.931 . S
N512 C505 1.359 . S
N512 C513 1.327 . S
N512 Tb515 2.600 . S
C513 C511 1.392 . S
C513 N512 1.327 . S
C513 H520 0.930 . S
C514 C509 1.385 . S
C514 C511 1.370 . S
C514 H533 0.930 . S
Tb515 N512 2.600 . S
Tb515 N516 2.660 . S
Tb515 O549 2.362 . S
Tb515 O550 2.421 . S
Tb515 O554 2.546 . S
Tb515 O555 2.610 . S
Tb515 O557 2.320 . S
Tb515 O558 2.552 . S
Tb515 O559 2.413 . S
Tb515 C579 2.833 . S
N516 C508 1.360 . S
N516 Tb515 2.660 . S
N516 C517 1.305 . S
C517 N516 1.305 . S
C517 C519 1.407 . S
C517 H524 0.930 . S
C518 C506 1.410 . S
C518 C519 1.345 . S
C518 H526 0.930 . S
C519 C517 1.407 . S
C519 C518 1.345 . S
C519 H521 0.930 . S
H520 C513 0.930 . S
H521 C519 0.930 . S
H522 C510 0.930 . S
H523 C511 0.931 . S
H524 C517 0.930 . S
H525 C539 0.930 . S
H526 C518 0.930 . S
H527 C545 0.930 . S
H528 C536 0.930 . S
H529 C543 0.931 . S
H530 C507 0.929 . S
H531 C537 0.930 . S
H532 C570 0.930 . S
H533 C514 0.930 . S
H534 C569 0.929 . S
N535 Tb504 2.660 . S
N535 C536 1.305 . S
N535 C540 1.360 . S
C536 H528 0.930 . S
C536 N535 1.305 . S
C536 C539 1.407 . S
C537 H531 0.930 . S
C537 C538 1.410 . S
C537 C539 1.345 . S
C538 C537 1.410 . S
C538 C540 1.417 . S
C538 C570 1.432 . S
C539 H525 0.930 . S
C539 C536 1.407 . S
C539 C537 1.345 . S
C540 N535 1.360 . S
C540 C538 1.417 . S
C540 C544 1.432 . S
H541 C546 0.930 . S
N542 Tb504 2.600 . S
N542 C544 1.359 . S
N542 C545 1.327 . S
C543 H529 0.931 . S
C543 C545 1.392 . S
C543 C546 1.370 . S
C544 C540 1.432 . S
C544 N542 1.359 . S
C544 C547 1.414 . S
C545 H527 0.930 . S
C545 N542 1.327 . S
C545 C543 1.392 . S
C546 H541 0.930 . S
C546 C543 1.370 . S
C546 C547 1.385 . S
C547 C544 1.414 . S
C547 C546 1.385 . S
C547 C569 1.444 . S
O548 Tb504 2.546 . S
O548 C568 1.251 . S
O549 Tb504 2.610 . S
O549 Tb515 2.362 . S
O549 C560 1.283 . S
O550 Tb515 2.421 . S
O550 C567 1.262 . S
O551 Tb504 2.320 . S
O551 C567 1.260 . S
O552 Tb504 2.552 . S
O552 C560 1.243 . S
O553 Tb504 2.413 . S
O553 C568 1.256 . S
O554 Tb515 2.546 . S
O554 C579 1.251 . S
O555 Tb504 2.362 . S
O555 Tb515 2.610 . S
O555 C571 1.283 . S
O556 Tb504 2.421 . S
O556 C578 1.262 . S
O557 Tb515 2.320 . S
O557 C578 1.260 . S
O558 Tb515 2.552 . S
O558 C571 1.243 . S
O559 Tb515 2.413 . S
O559 C579 1.256 . S
C560 O549 1.283 . S
C560 O552 1.243 . S
C561 C563 1.382 . S
C561 C565 1.393 . S
C561 C568 1.500 . S
C562 C563 1.400 . S
C562 C564 1.384 . S
C563 C561 1.382 . S
C563 C562 1.400 . S
C563 H580 0.930 . S
C564 C562 1.384 . S
C564 C566 1.392 . S
C564 H581 0.931 . S
C565 C561 1.393 . S
C565 C566 1.401 . S
C565 H582 0.930 . S
C566 C564 1.392 . S
C566 C565 1.401 . S
C566 H583 0.930 . S
C567 O550 1.262 . S
C567 O551 1.260 . S
C568 Tb504 2.833 . S
C568 O548 1.251 . S
C568 O553 1.256 . S
C568 C561 1.500 . S
C569 H534 0.929 . S
C569 C547 1.444 . S
C569 C570 1.317 . S
C570 H532 0.930 . S
C570 C538 1.432 . S
C570 C569 1.317 . S
C571 O555 1.283 . S
C571 O558 1.243 . S
C572 C573 1.382 . S
C572 C576 1.393 . S
C572 C579 1.500 . S
C573 C572 1.382 . S
C573 C574 1.400 . S
C573 H584 0.930 . S
C574 C573 1.400 . S
C574 C575 1.384 . S
C575 C574 1.384 . S
C575 C577 1.392 . S
C575 H585 0.931 . S
C576 C572 1.393 . S
C576 C577 1.401 . S
C576 H586 0.930 . S
C577 C575 1.392 . S
C577 C576 1.401 . S
C577 H587 0.930 . S
C578 O556 1.262 . S
C578 O557 1.260 . S
C579 Tb515 2.833 . S
C579 O554 1.251 . S
C579 O559 1.256 . S
C579 C572 1.500 . S
H580 C563 0.930 . S
H581 C564 0.931 . S
H582 C565 0.930 . S
H583 C566 0.930 . S
H584 C573 0.930 . S
H585 C575 0.931 . S
H586 C576 0.930 . S
H587 C577 0.930 . S
Tb588 N619 2.660 . S
Tb588 N626 2.600 . S
Tb588 O632 2.546 . S
Tb588 O633 2.610 . S
Tb588 O635 2.320 . S
Tb588 O636 2.552 . S
Tb588 O637 2.413 . S
Tb588 O639 2.362 . S
Tb588 O640 2.421 . S
Tb588 C652 2.833 . S
C589 C592 1.432 . S
C589 C593 1.414 . S
C589 N596 1.359 . S
C590 C592 1.417 . S
C590 C594 1.432 . S
C590 C602 1.410 . S
C591 C593 1.444 . S
C591 C594 1.317 . S
C591 H614 0.929 . S
C592 C589 1.432 . S
C592 C590 1.417 . S
C592 N600 1.360 . S
C593 C589 1.414 . S
C593 C591 1.444 . S
C593 C598 1.385 . S
C594 C590 1.432 . S
C594 C591 1.317 . S
C594 H606 0.930 . S
C595 C597 1.392 . S
C595 C598 1.370 . S
C595 H607 0.931 . S
N596 C589 1.359 . S
N596 C597 1.327 . S
N596 Tb599 2.600 . S
C597 C595 1.392 . S
C597 N596 1.327 . S
C597 H604 0.930 . S
C598 C593 1.385 . S
C598 C595 1.370 . S
C598 H617 0.930 . S
Tb599 N596 2.600 . S
Tb599 N600 2.660 . S
Tb599 O633 2.362 . S
Tb599 O634 2.421 . S
Tb599 O638 2.546 . S
Tb599 O639 2.610 . S
Tb599 O641 2.320 . S
Tb599 O642 2.552 . S
Tb599 O643 2.413 . S
Tb599 C663 2.833 . S
N600 C592 1.360 . S
N600 Tb599 2.660 . S
N600 C601 1.305 . S
C601 N600 1.305 . S
C601 C603 1.407 . S
C601 H608 0.930 . S
C602 C590 1.410 . S
C602 C603 1.345 . S
C602 H610 0.930 . S
C603 C601 1.407 . S
C603 C602 1.345 . S
C603 H605 0.930 . S
H604 C597 0.930 . S
H605 C603 0.930 . S
H606 C594 0.930 . S
H607 C595 0.931 . S
H608 C601 0.930 . S
H609 C623 0.930 . S
H610 C602 0.930 . S
H611 C629 0.930 . S
H612 C620 0.930 . S
H613 C627 0.931 . S
H614 C591 0.929 . S
H615 C621 0.930 . S
H616 C654 0.930 . S
H617 C598 0.930 . S
H618 C653 0.929 . S
N619 Tb588 2.660 . S
N619 C620 1.305 . S
N619 C624 1.360 . S
C620 H612 0.930 . S
C620 N619 1.305 . S
C620 C623 1.407 . S
C621 H615 0.930 . S
C621 C622 1.410 . S
C621 C623 1.345 . S
C622 C621 1.410 . S
C622 C624 1.417 . S
C622 C654 1.432 . S
C623 H609 0.930 . S
C623 C620 1.407 . S
C623 C621 1.345 . S
C624 N619 1.360 . S
C624 C622 1.417 . S
C624 C628 1.432 . S
H625 C630 0.930 . S
N626 Tb588 2.600 . S
N626 C628 1.359 . S
N626 C629 1.327 . S
C627 H613 0.931 . S
C627 C629 1.392 . S
C627 C630 1.370 . S
C628 C624 1.432 . S
C628 N626 1.359 . S
C628 C631 1.414 . S
C629 H611 0.930 . S
C629 N626 1.327 . S
C629 C627 1.392 . S
C630 H625 0.930 . S
C630 C627 1.370 . S
C630 C631 1.385 . S
C631 C628 1.414 . S
C631 C630 1.385 . S
C631 C653 1.444 . S
O632 Tb588 2.546 . S
O632 C652 1.251 . S
O633 Tb588 2.610 . S
O633 Tb599 2.362 . S
O633 C644 1.283 . S
O634 Tb599 2.421 . S
O634 C651 1.262 . S
O635 Tb588 2.320 . S
O635 C651 1.260 . S
O636 Tb588 2.552 . S
O636 C644 1.243 . S
O637 Tb588 2.413 . S
O637 C652 1.256 . S
O638 Tb599 2.546 . S
O638 C663 1.251 . S
O639 Tb588 2.362 . S
O639 Tb599 2.610 . S
O639 C655 1.283 . S
O640 Tb588 2.421 . S
O640 C662 1.262 . S
O641 Tb599 2.320 . S
O641 C662 1.260 . S
O642 Tb599 2.552 . S
O642 C655 1.243 . S
O643 Tb599 2.413 . S
O643 C663 1.256 . S
C644 O633 1.283 . S
C644 O636 1.243 . S
C645 C647 1.382 . S
C645 C649 1.393 . S
C645 C652 1.500 . S
C646 C647 1.400 . S
C646 C648 1.384 . S
C647 C645 1.382 . S
C647 C646 1.400 . S
C647 H664 0.930 . S
C648 C646 1.384 . S
C648 C650 1.392 . S
C648 H665 0.931 . S
C649 C645 1.393 . S
C649 C650 1.401 . S
C649 H666 0.930 . S
C650 C648 1.392 . S
C650 C649 1.401 . S
C650 H667 0.930 . S
C651 O634 1.262 . S
C651 O635 1.260 . S
C652 Tb588 2.833 . S
C652 O632 1.251 . S
C652 O637 1.256 . S
C652 C645 1.500 . S
C653 H618 0.929 . S
C653 C631 1.444 . S
C653 C654 1.317 . S
C654 H616 0.930 . S
C654 C622 1.432 . S
C654 C653 1.317 . S
C655 O639 1.283 . S
C655 O642 1.243 . S
C656 C657 1.382 . S
C656 C660 1.393 . S
C656 C663 1.500 . S
C657 C656 1.382 . S
C657 C658 1.400 . S
C657 H668 0.930 . S
C658 C657 1.400 . S
C658 C659 1.384 . S
C659 C658 1.384 . S
C659 C661 1.392 . S
C659 H669 0.931 . S
C660 C656 1.393 . S
C660 C661 1.401 . S
C660 H670 0.930 . S
C661 C659 1.392 . S
C661 C660 1.401 . S
C661 H671 0.930 . S
C662 O640 1.262 . S
C662 O641 1.260 . S
C663 Tb599 2.833 . S
C663 O638 1.251 . S
C663 O643 1.256 . S
C663 C656 1.500 . S
H664 C647 0.930 . S
H665 C648 0.931 . S
H666 C649 0.930 . S
H667 C650 0.930 . S
H668 C657 0.930 . S
H669 C659 0.931 . S
H670 C660 0.930 . S
H671 C661 0.930 . S
H672 C684 0.930 . S
H673 C686 0.930 . S
H674 C687 0.930 . S
H675 C691 0.959 . S
H676 C691 0.959 . S
H677 C691 0.961 . S
H678 C692 0.960 . S
H679 C692 0.961 . S
H680 C692 0.959 . S
H681 C695 0.929 . S
H682 C696 0.931 1_556 S
H683 C698 0.930 . S
C684 H672 0.930 . S
C684 C685 1.399 . S
C684 C689 1.399 . S
C685 C684 1.399 . S
C685 C686 1.376 . S
C686 H673 0.930 . S
C686 C685 1.376 . S
C686 C687 1.388 . S
C687 H674 0.930 . S
C687 C686 1.388 . S
C687 C688 1.390 . S
C688 C687 1.390 . S
C688 C689 1.394 . S
C688 C694 1.465 . S
C689 C684 1.399 . S
C689 C688 1.394 . S
C689 C690 1.516 . S
C690 C689 1.516 . S
C690 C691 1.502 1_554 S
C690 C692 1.561 . S
C690 C693 1.526 . S
C691 H675 0.959 . S
C691 H676 0.959 . S
C691 H677 0.961 . S
C691 C690 1.502 1_556 S
C692 H678 0.960 . S
C692 H679 0.961 . S
C692 H680 0.959 . S
C692 C690 1.561 . S
C693 C690 1.526 . S
C693 C694 1.396 . S
C693 C698 1.390 . S
C694 C688 1.465 . S
C694 C693 1.396 . S
C694 C695 1.399 . S
C695 H681 0.929 . S
C695 C694 1.399 . S
C695 C696 1.385 . S
C696 H682 0.931 1_554 S
C696 C695 1.385 . S
C696 C697 1.389 . S
C697 C696 1.389 . S
C697 C698 1.387 . S
C698 H683 0.930 . S
C698 C693 1.390 . S
C698 C697 1.387 . S
H699 C711 0.930 . S
H700 C713 0.930 . S
H701 C714 0.930 . S
H702 C718 0.959 . S
H703 C718 0.959 . S
H704 C718 0.961 . S
H705 C719 0.960 . S
H706 C719 0.961 . S
H707 C719 0.959 . S
H708 C722 0.929 . S
H709 C723 0.931 . S
H710 C725 0.930 . S
C711 H699 0.930 . S
C711 C712 1.399 . S
C711 C716 1.399 . S
C712 C711 1.399 . S
C712 C713 1.376 1_554 S
C713 H700 0.930 . S
C713 C712 1.376 1_556 S
C713 C714 1.388 . S
C714 H701 0.930 . S
C714 C713 1.388 . S
C714 C715 1.390 1_556 S
C715 C714 1.390 1_554 S
C715 C716 1.394 . S
C715 C721 1.465 1_554 S
C716 C711 1.399 . S
C716 C715 1.394 . S
C716 C717 1.516 . S
C717 C716 1.516 . S
C717 C718 1.502 . S
C717 C719 1.561 . S
C717 C720 1.526 . S
C718 H702 0.959 . S
C718 H703 0.959 . S
C718 H704 0.961 . S
C718 C717 1.502 . S
C719 H705 0.960 . S
C719 H706 0.961 . S
C719 H707 0.959 . S
C719 C717 1.561 . S
C720 C717 1.526 . S
C720 C721 1.396 1_554 S
C720 C725 1.390 . S
C721 C715 1.465 1_556 S
C721 C720 1.396 1_556 S
C721 C722 1.399 . S
C722 H708 0.929 . S
C722 C721 1.399 . S
C722 C723 1.385 . S
C723 H709 0.931 . S
C723 C722 1.385 . S
C723 C724 1.389 1_556 S
C724 C723 1.389 1_554 S
C724 C725 1.387 . S
C725 H710 0.930 . S
C725 C720 1.390 . S
C725 C724 1.387 . S
H726 C738 0.930 . S
H727 C740 0.930 . S
H728 C741 0.930 . S
H729 C745 0.959 . S
H730 C745 0.959 . S
H731 C745 0.961 . S
H732 C746 0.960 . S
H733 C746 0.961 . S
H734 C746 0.959 . S
H735 C749 0.929 . S
H736 C750 0.931 . S
H737 C752 0.930 . S
C738 H726 0.930 . S
C738 C739 1.399 . S
C738 C743 1.399 . S
C739 C738 1.399 . S
C739 C740 1.376 . S
C740 H727 0.930 . S
C740 C739 1.376 . S
C740 C741 1.388 . S
C741 H728 0.930 . S
C741 C740 1.388 . S
C741 C742 1.390 . S
C742 C741 1.390 . S
C742 C743 1.394 . S
C742 C748 1.465 . S
C743 C738 1.399 . S
C743 C742 1.394 . S
C743 C744 1.516 . S
C744 C743 1.516 . S
C744 C745 1.502 . S
C744 C746 1.561 . S
C744 C747 1.526 . S
C745 H729 0.959 . S
C745 H730 0.959 . S
C745 H731 0.961 . S
C745 C744 1.502 . S
C746 H732 0.960 . S
C746 H733 0.961 . S
C746 H734 0.959 . S
C746 C744 1.561 . S
C747 C744 1.526 . S
C747 C748 1.396 . S
C747 C752 1.390 . S
C748 C742 1.465 . S
C748 C747 1.396 . S
C748 C749 1.399 . S
C749 H735 0.929 . S
C749 C748 1.399 . S
C749 C750 1.385 . S
C750 H736 0.931 . S
C750 C749 1.385 . S
C750 C751 1.389 . S
C751 C750 1.389 . S
C751 C752 1.387 . S
C752 H737 0.930 . S
C752 C747 1.390 . S
C752 C751 1.387 . S
H753 C765 0.930 . S
H754 C767 0.930 . S
H755 C768 0.930 . S
H756 C772 0.959 . S
H757 C772 0.959 . S
H758 C772 0.961 . S
H759 C773 0.960 . S
H760 C773 0.961 . S
H761 C773 0.959 . S
H762 C776 0.929 . S
H763 C777 0.931 . S
H764 C779 0.930 . S
C765 H753 0.930 . S
C765 C766 1.399 . S
C765 C770 1.399 . S
C766 C765 1.399 . S
C766 C767 1.376 . S
C767 H754 0.930 . S
C767 C766 1.376 . S
C767 C768 1.388 . S
C768 H755 0.930 . S
C768 C767 1.388 . S
C768 C769 1.390 . S
C769 C768 1.390 . S
C769 C770 1.394 . S
C769 C775 1.465 . S
C770 C765 1.399 . S
C770 C769 1.394 . S
C770 C771 1.516 . S
C771 C770 1.516 . S
C771 C772 1.502 . S
C771 C773 1.561 . S
C771 C774 1.526 . S
C772 H756 0.959 . S
C772 H757 0.959 . S
C772 H758 0.961 . S
C772 C771 1.502 . S
C773 H759 0.960 . S
C773 H760 0.961 . S
C773 H761 0.959 . S
C773 C771 1.561 . S
C774 C771 1.526 . S
C774 C775 1.396 . S
C774 C779 1.390 . S
C775 C769 1.465 . S
C775 C774 1.396 . S
C775 C776 1.399 . S
C776 H762 0.929 . S
C776 C775 1.399 . S
C776 C777 1.385 . S
C777 H763 0.931 . S
C777 C776 1.385 . S
C777 C778 1.389 . S
C778 C777 1.389 . S
C778 C779 1.387 . S
C779 H764 0.930 . S
C779 C774 1.390 . S
C779 C778 1.387 . S
H780 C792 0.930 . S
H781 C794 0.930 . S
H782 C795 0.915 1_556 S
H783 C799 0.959 . S
H784 C799 0.959 . S
H785 C799 0.961 . S
H786 C800 0.960 . S
H787 C800 0.961 . S
H788 C800 0.959 . S
H789 C803 0.929 . S
H790 C804 0.931 . S
H791 C806 0.930 . S
C792 H780 0.930 . S
C792 C793 1.399 . S
C792 C797 1.399 . S
C793 C792 1.399 . S
C793 C794 1.376 . S
C794 H781 0.930 . S
C794 C793 1.376 . S
C794 C795 1.395 . S
C795 H782 0.915 1_554 S
C795 C794 1.395 . S
C795 C796 1.399 1_655 S
C796 C795 1.399 1_455 S
C796 C797 1.394 1_455 S
C796 C802 1.466 . S
C797 C792 1.399 . S
C797 C796 1.394 1_655 S
C797 C798 1.516 1_655 S
C798 C797 1.516 1_455 S
C798 C799 1.502 . S
C798 C800 1.561 1_554 S
C798 C801 1.526 . S
C799 H783 0.959 . S
C799 H784 0.959 . S
C799 H785 0.961 . S
C799 C798 1.502 . S
C800 H786 0.960 . S
C800 H787 0.961 . S
C800 H788 0.959 . S
C800 C798 1.561 1_556 S
C801 C798 1.526 . S
C801 C802 1.400 . S
C801 C806 1.390 . S
C802 C796 1.466 . S
C802 C801 1.400 . S
C802 C803 1.395 1_554 S
C803 H789 0.929 . S
C803 C802 1.395 1_556 S
C803 C804 1.385 . S
C804 H790 0.931 . S
C804 C803 1.385 . S
C804 C805 1.394 . S
C805 C804 1.394 . S
C805 C806 1.382 1_556 S
C806 H791 0.930 . S
C806 C801 1.390 . S
C806 C805 1.382 1_554 S
H807 C819 0.930 . S
H808 C821 0.930 . S
H809 C822 0.930 . S
H810 C826 0.959 . S
H811 C826 0.959 . S
H812 C826 0.961 1_455 S
H813 C827 0.960 . S
H814 C827 0.961 . S
H815 C827 0.959 . S
H816 C830 0.929 . S
H817 C831 0.931 . S
H818 C833 0.930 . S
C819 H807 0.930 . S
C819 C820 1.399 . S
C819 C824 1.399 . S
C820 C819 1.399 . S
C820 C821 1.376 1_554 S
C821 H808 0.930 . S
C821 C820 1.376 1_556 S
C821 C822 1.388 . S
C822 H809 0.930 . S
C822 C821 1.388 . S
C822 C823 1.390 1_455 S
C823 C822 1.390 1_655 S
C823 C824 1.394 1_656 S
C823 C829 1.465 . S
C824 C819 1.399 . S
C824 C823 1.394 1_454 S
C824 C825 1.516 1_455 S
C825 C824 1.516 1_655 S
C825 C826 1.502 . S
C825 C827 1.561 . S
C825 C828 1.526 . S
C826 H810 0.959 . S
C826 H811 0.959 . S
C826 H812 0.961 1_655 S
C826 C825 1.502 . S
C827 H813 0.960 . S
C827 H814 0.961 . S
C827 H815 0.959 . S
C827 C825 1.561 . S
C828 C825 1.526 . S
C828 C829 1.396 1_554 S
C828 C833 1.390 . S
C829 C823 1.465 . S
C829 C828 1.396 1_556 S
C829 C830 1.399 . S
C830 H816 0.929 . S
C830 C829 1.399 . S
C830 C831 1.385 . S
C831 H817 0.931 . S
C831 C830 1.385 . S
C831 C832 1.389 1_556 S
C832 C831 1.389 1_554 S
C832 C833 1.387 . S
C833 H818 0.930 . S
C833 C828 1.390 . S
C833 C832 1.387 . S
H834 C846 0.930 . S
H835 C848 0.930 . S
H836 C849 0.930 . S
H837 C853 0.959 . S
H838 C853 0.959 . S
H839 C853 0.961 . S
H840 C854 0.960 . S
H841 C854 0.961 1_655 S
H842 C854 0.959 . S
H843 C857 0.929 . S
H844 C858 0.931 . S
H845 C860 0.930 . S
C846 H834 0.930 . S
C846 C847 1.399 . S
C846 C851 1.399 . S
C847 C846 1.399 . S
C847 C848 1.376 . S
C848 H835 0.930 . S
C848 C847 1.376 . S
C848 C849 1.388 . S
C849 H836 0.930 . S
C849 C848 1.388 . S
C849 C850 1.390 . S
C850 C849 1.390 . S
C850 C851 1.394 . S
C850 C856 1.465 . S
C851 C846 1.399 . S
C851 C850 1.394 . S
C851 C852 1.516 . S
C852 C851 1.516 . S
C852 C853 1.502 . S
C852 C854 1.561 . S
C852 C855 1.526 1_455 S
C853 H837 0.959 . S
C853 H838 0.959 . S
C853 H839 0.961 . S
C853 C852 1.502 . S
C854 H840 0.960 . S
C854 H841 0.961 1_455 S
C854 H842 0.959 . S
C854 C852 1.561 . S
C855 C852 1.526 1_655 S
C855 C856 1.396 1_655 S
C855 C860 1.390 . S
C856 C850 1.465 . S
C856 C855 1.396 1_455 S
C856 C857 1.399 1_455 S
C857 H843 0.929 . S
C857 C856 1.399 1_655 S
C857 C858 1.385 . S
C858 H844 0.931 . S
C858 C857 1.385 . S
C858 C859 1.389 . S
C859 C858 1.389 . S
C859 C860 1.387 . S
C860 H845 0.930 . S
C860 C855 1.390 . S
C860 C859 1.387 . S
H861 C873 0.930 . S
H862 C875 0.930 . S
H863 C876 0.930 . S
H864 C880 0.959 . S
H865 C880 0.959 1_455 S
H866 C880 0.961 . S
H867 C881 0.960 . S
H868 C881 0.961 1_455 S
H869 C881 0.959 . S
H870 C884 0.929 . S
H871 C885 0.931 . S
H872 C887 0.930 . S
C873 H861 0.930 . S
C873 C874 1.399 . S
C873 C878 1.399 . S
C874 C873 1.399 . S
C874 C875 1.376 . S
C875 H862 0.930 . S
C875 C874 1.376 . S
C875 C876 1.388 . S
C876 H863 0.930 . S
C876 C875 1.388 . S
C876 C877 1.390 . S
C877 C876 1.390 . S
C877 C878 1.394 . S
C877 C883 1.465 . S
C878 C873 1.399 . S
C878 C877 1.394 . S
C878 C879 1.516 . S
C879 C878 1.516 . S
C879 C880 1.502 . S
C879 C881 1.561 . S
C879 C882 1.526 1_655 S
C880 H864 0.959 . S
C880 H865 0.959 1_655 S
C880 H866 0.961 . S
C880 C879 1.502 . S
C881 H867 0.960 . S
C881 H868 0.961 1_655 S
C881 H869 0.959 . S
C881 C879 1.561 . S
C882 C879 1.526 1_455 S
C882 C883 1.396 1_455 S
C882 C887 1.390 . S
C883 C877 1.465 . S
C883 C882 1.396 1_655 S
C883 C884 1.399 1_655 S
C884 H870 0.929 . S
C884 C883 1.399 1_455 S
C884 C885 1.385 . S
C885 H871 0.931 . S
C885 C884 1.385 . S
C885 C886 1.389 . S
C886 C885 1.389 . S
C886 C887 1.387 . S
C887 H872 0.930 . S
C887 C882 1.390 . S
C887 C886 1.387 . S
H888 C900 0.930 . S
H889 C902 0.930 . S
H890 C903 0.930 . S
H891 C907 0.959 . S
H892 C907 0.959 . S
H893 C907 0.961 . S
H894 C908 0.960 1_455 S
H895 C908 0.961 . S
H896 C908 0.959 . S
H897 C911 0.929 . S
H898 C912 0.931 . S
H899 C914 0.930 . S
C900 H888 0.930 . S
C900 C901 1.399 . S
C900 C905 1.399 . S
C901 C900 1.399 . S
C901 C902 1.376 1_554 S
C902 H889 0.930 . S
C902 C901 1.376 1_556 S
C902 C903 1.388 1_455 S
C903 H890 0.930 . S
C903 C902 1.388 1_655 S
C903 C904 1.390 . S
C904 C903 1.390 . S
C904 C905 1.394 1_656 S
C904 C910 1.465 . S
C905 C900 1.399 . S
C905 C904 1.394 1_454 S
C905 C906 1.516 . S
C906 C905 1.516 . S
C906 C907 1.502 . S
C906 C908 1.561 1_455 S
C906 C909 1.526 1_455 S
C907 H891 0.959 . S
C907 H892 0.959 . S
C907 H893 0.961 . S
C907 C906 1.502 . S
C908 H894 0.960 1_655 S
C908 H895 0.961 . S
C908 H896 0.959 . S
C908 C906 1.561 1_655 S
C909 C906 1.526 1_655 S
C909 C910 1.396 1_554 S
C909 C914 1.390 . S
C910 C904 1.465 . S
C910 C909 1.396 1_556 S
C910 C911 1.399 . S
C911 H897 0.929 . S
C911 C910 1.399 . S
C911 C912 1.385 . S
C912 H898 0.931 . S
C912 C911 1.385 . S
C912 C913 1.389 1_556 S
C913 C912 1.389 1_554 S
C913 C914 1.387 . S
C914 H899 0.930 . S
C914 C909 1.390 . S
C914 C913 1.387 . S
H915 C927 0.930 . S
H916 C929 0.930 . S
H917 C930 0.930 . S
H918 C934 0.959 1_455 S
H919 C934 0.959 . S
H920 C934 0.961 . S
H921 C935 0.960 . S
H922 C935 0.961 . S
H923 C935 0.959 . S
H924 C938 0.929 . S
H925 C939 0.931 . S
H926 C941 0.930 . S
C927 H915 0.930 . S
C927 C928 1.399 . S
C927 C932 1.399 . S
C928 C927 1.399 . S
C928 C929 1.376 . S
C929 H916 0.930 . S
C929 C928 1.376 . S
C929 C930 1.388 . S
C930 H917 0.930 . S
C930 C929 1.388 . S
C930 C931 1.390 . S
C931 C930 1.390 . S
C931 C932 1.394 . S
C931 C937 1.465 1_455 S
C932 C927 1.399 . S
C932 C931 1.394 . S
C932 C933 1.516 1_455 S
C933 C932 1.516 1_655 S
C933 C934 1.502 . S
C933 C935 1.561 . S
C933 C936 1.526 . S
C934 H918 0.959 1_655 S
C934 H919 0.959 . S
C934 H920 0.961 . S
C934 C933 1.502 . S
C935 H921 0.960 . S
C935 H922 0.961 . S
C935 H923 0.959 . S
C935 C933 1.561 . S
C936 C933 1.526 . S
C936 C937 1.396 . S
C936 C941 1.390 . S
C937 C931 1.465 1_655 S
C937 C936 1.396 . S
C937 C938 1.399 1_655 S
C938 H924 0.929 . S
C938 C937 1.399 1_455 S
C938 C939 1.385 1_455 S
C939 H925 0.931 . S
C939 C938 1.385 1_655 S
C939 C940 1.389 . S
C940 C939 1.389 . S
C940 C941 1.387 . S
C941 H926 0.930 . S
C941 C936 1.390 . S
C941 C940 1.387 . S
H942 C954 0.930 . S
H943 C956 0.930 . S
H944 C957 0.930 . S
H945 C961 0.959 . S
H946 C961 0.959 . S
H947 C961 0.961 . S
H948 C962 0.976 . S
H949 C962 0.961 . S
H950 C962 0.959 . S
H951 C965 0.912 1_565 S
H952 C966 0.931 . S
H953 C968 0.930 . S
C954 H942 0.930 . S
C954 C955 1.399 . S
C954 C959 1.399 . S
C955 C954 1.399 . S
C955 C956 1.376 1_554 S
C956 H943 0.930 . S
C956 C955 1.376 1_556 S
C956 C957 1.388 . S
C957 H944 0.930 . S
C957 C956 1.388 . S
C957 C958 1.390 . S
C958 C957 1.390 . S
C958 C959 1.394 1_556 S
C958 C964 1.465 1_565 S
C959 C954 1.399 . S
C959 C958 1.394 1_554 S
C959 C960 1.516 1_565 S
C960 C959 1.516 1_545 S
C960 C961 1.502 . S
C960 C962 1.561 . S
C960 C963 1.526 . S
C961 H945 0.959 . S
C961 H946 0.959 . S
C961 H947 0.961 . S
C961 C960 1.502 . S
C962 H948 0.976 . S
C962 H949 0.961 . S
C962 H950 0.959 . S
C962 C960 1.561 . S
C963 C960 1.526 . S
C963 C964 1.396 1_554 S
C963 C968 1.390 . S
C964 C958 1.465 1_545 S
C964 C963 1.396 1_556 S
C964 C965 1.399 . S
C965 H951 0.912 1_545 S
C965 C964 1.399 . S
C965 C966 1.385 . S
C966 H952 0.931 . S
C966 C965 1.385 . S
C966 C967 1.389 1_556 S
C967 C966 1.389 1_554 S
C967 C968 1.387 . S
C968 H953 0.930 . S
C968 C963 1.390 . S
C968 C967 1.387 . S
H969 C981 0.930 . S
H970 C983 0.930 . S
H971 C984 0.930 1_565 S
H972 C988 0.959 . S
H973 C988 0.959 . S
H974 C988 0.961 . S
H975 C989 0.960 . S
H976 C989 0.961 . S
H977 C989 0.959 . S
H978 C992 0.929 . S
H979 C993 0.931 . S
H980 C995 0.930 . S
C981 H969 0.930 . S
C981 C982 1.399 . S
C981 C986 1.399 . S
C982 C981 1.399 . S
C982 C983 1.376 . S
C983 H970 0.930 . S
C983 C982 1.376 . S
C983 C984 1.388 . S
C984 H971 0.930 1_545 S
C984 C983 1.388 . S
C984 C985 1.390 . S
C985 C984 1.390 . S
C985 C986 1.394 . S
C985 C991 1.465 1_545 S
C986 C981 1.399 . S
C986 C985 1.394 . S
C986 C987 1.516 . S
C987 C986 1.516 . S
C987 C988 1.502 . S
C987 C989 1.561 . S
C987 C990 1.526 1_545 S
C988 H972 0.959 . S
C988 H973 0.959 . S
C988 H974 0.961 . S
C988 C987 1.502 . S
C989 H975 0.960 . S
C989 H976 0.961 . S
C989 H977 0.959 . S
C989 C987 1.561 . S
C990 C987 1.526 1_565 S
C990 C991 1.396 . S
C990 C995 1.390 . S
C991 C985 1.465 1_565 S
C991 C990 1.396 . S
C991 C992 1.399 . S
C992 H978 0.929 . S
C992 C991 1.399 . S
C992 C993 1.385 . S
C993 H979 0.931 . S
C993 C992 1.385 . S
C993 C994 1.389 . S
C994 C993 1.389 . S
C994 C995 1.387 . S
C995 H980 0.930 . S
C995 C990 1.390 . S
C995 C994 1.387 . S
H996 C1008 0.930 . S
H997 C1010 0.930 . S
H998 C1011 0.930 . S
H999 C1015 0.959 . S
H1000 C1015 0.959 . S
H1001 C1015 0.961 . S
H1002 C1016 0.960 . S
H1003 C1016 0.961 . S
H1004 C1016 0.959 . S
H1005 C1019 0.929 . S
H1006 C1020 0.931 . S
H1007 C1022 0.930 . S
C1008 H996 0.930 . S
C1008 C1009 1.399 1_556 S
C1008 C1013 1.399 . S
C1009 C1008 1.399 1_554 S
C1009 C1010 1.376 . S
C1010 H997 0.930 . S
C1010 C1009 1.376 . S
C1010 C1011 1.388 . S
C1011 H998 0.930 . S
C1011 C1010 1.388 . S
C1011 C1012 1.390 . S
C1012 C1011 1.390 . S
C1012 C1013 1.394 1_554 S
C1012 C1018 1.465 . S
C1013 C1008 1.399 . S
C1013 C1012 1.394 1_556 S
C1013 C1014 1.516 . S
C1014 C1013 1.516 . S
C1014 C1015 1.502 . S
C1014 C1016 1.561 . S
C1014 C1017 1.526 . S
C1015 H999 0.959 . S
C1015 H1000 0.959 . S
C1015 H1001 0.961 . S
C1015 C1014 1.502 . S
C1016 H1002 0.960 . S
C1016 H1003 0.961 . S
C1016 H1004 0.959 . S
C1016 C1014 1.561 . S
C1017 C1014 1.526 . S
C1017 C1018 1.396 1_556 S
C1017 C1022 1.390 . S
C1018 C1012 1.465 . S
C1018 C1017 1.396 1_554 S
C1018 C1019 1.399 . S
C1019 H1005 0.929 . S
C1019 C1018 1.399 . S
C1019 C1020 1.385 . S
C1020 H1006 0.931 . S
C1020 C1019 1.385 . S
C1020 C1021 1.389 . S
C1021 C1020 1.389 . S
C1021 C1022 1.387 1_554 S
C1022 H1007 0.930 . S
C1022 C1017 1.390 . S
C1022 C1021 1.387 1_556 S
H1023 C1035 0.930 . S
H1024 C1037 0.930 . S
H1025 C1038 0.930 . S
H1026 C1042 0.959 . S
H1027 C1042 0.959 . S
H1028 C1042 0.961 . S
H1029 C1043 0.960 . S
H1030 C1043 0.961 . S
H1031 C1043 0.959 . S
H1032 C1046 0.929 . S
H1033 C1047 0.931 . S
H1034 C1049 0.930 . S
C1035 H1023 0.930 . S
C1035 C1036 1.399 1_556 S
C1035 C1040 1.399 . S
C1036 C1035 1.399 1_554 S
C1036 C1037 1.376 . S
C1037 H1024 0.930 . S
C1037 C1036 1.376 . S
C1037 C1038 1.388 . S
C1038 H1025 0.930 . S
C1038 C1037 1.388 . S
C1038 C1039 1.390 . S
C1039 C1038 1.390 . S
C1039 C1040 1.394 1_554 S
C1039 C1045 1.465 . S
C1040 C1035 1.399 . S
C1040 C1039 1.394 1_556 S
C1040 C1041 1.516 . S
C1041 C1040 1.516 . S
C1041 C1042 1.502 . S
C1041 C1043 1.561 . S
C1041 C1044 1.526 . S
C1042 H1026 0.959 . S
C1042 H1027 0.959 . S
C1042 H1028 0.961 . S
C1042 C1041 1.502 . S
C1043 H1029 0.960 . S
C1043 H1030 0.961 . S
C1043 H1031 0.959 . S
C1043 C1041 1.561 . S
C1044 C1041 1.526 . S
C1044 C1045 1.396 1_556 S
C1044 C1049 1.390 . S
C1045 C1039 1.465 . S
C1045 C1044 1.396 1_554 S
C1045 C1046 1.399 . S
C1046 H1032 0.929 . S
C1046 C1045 1.399 . S
C1046 C1047 1.385 . S
C1047 H1033 0.931 . S
C1047 C1046 1.385 . S
C1047 C1048 1.389 . S
C1048 C1047 1.389 . S
C1048 C1049 1.387 1_554 S
C1049 H1034 0.930 . S
C1049 C1044 1.390 . S
C1049 C1048 1.387 1_556 S
H1050 C1062 0.930 . S
H1051 C1064 0.930 . S
H1052 C1065 0.930 . S
H1053 C1069 0.959 . S
H1054 C1069 0.959 . S
H1055 C1069 0.961 . S
H1056 C1070 0.960 . S
H1057 C1070 0.961 . S
H1058 C1070 0.959 . S
H1059 C1073 0.929 . S
H1060 C1074 0.931 . S
H1061 C1076 0.930 . S
C1062 H1050 0.930 . S
C1062 C1063 1.399 . S
C1062 C1067 1.399 . S
C1063 C1062 1.399 . S
C1063 C1064 1.376 . S
C1064 H1051 0.930 . S
C1064 C1063 1.376 . S
C1064 C1065 1.388 . S
C1065 H1052 0.930 . S
C1065 C1064 1.388 . S
C1065 C1066 1.390 . S
C1066 C1065 1.390 . S
C1066 C1067 1.394 . S
C1066 C1072 1.465 . S
C1067 C1062 1.399 . S
C1067 C1066 1.394 . S
C1067 C1068 1.516 . S
C1068 C1067 1.516 . S
C1068 C1069 1.502 . S
C1068 C1070 1.561 . S
C1068 C1071 1.526 . S
C1069 H1053 0.959 . S
C1069 H1054 0.959 . S
C1069 H1055 0.961 . S
C1069 C1068 1.502 . S
C1070 H1056 0.960 . S
C1070 H1057 0.961 . S
C1070 H1058 0.959 . S
C1070 C1068 1.561 . S
C1071 C1068 1.526 . S
C1071 C1072 1.396 . S
C1071 C1076 1.390 . S
C1072 C1066 1.465 . S
C1072 C1071 1.396 . S
C1072 C1073 1.399 . S
C1073 H1059 0.929 . S
C1073 C1072 1.399 . S
C1073 C1074 1.385 . S
C1074 H1060 0.931 . S
C1074 C1073 1.385 . S
C1074 C1075 1.389 . S
C1075 C1074 1.389 . S
C1075 C1076 1.387 . S
C1076 H1061 0.930 . S
C1076 C1071 1.390 . S
C1076 C1075 1.387 . S
H1077 C1089 0.930 . S
H1078 C1091 0.930 . S
H1079 C1092 0.930 . S
H1080 C1096 0.959 . S
H1081 C1096 0.959 . S
H1082 C1096 0.961 . S
H1083 C1097 0.960 . S
H1084 C1097 0.961 . S
H1085 C1097 0.959 . S
H1086 C1100 0.929 . S
H1087 C1101 0.931 . S
H1088 C1103 0.930 . S
C1089 H1077 0.930 . S
C1089 C1090 1.399 . S
C1089 C1094 1.399 . S
C1090 C1089 1.399 . S
C1090 C1091 1.376 . S
C1091 H1078 0.930 . S
C1091 C1090 1.376 . S
C1091 C1092 1.388 . S
C1092 H1079 0.930 . S
C1092 C1091 1.388 . S
C1092 C1093 1.390 . S
C1093 C1092 1.390 . S
C1093 C1094 1.394 . S
C1093 C1099 1.465 . S
C1094 C1089 1.399 . S
C1094 C1093 1.394 . S
C1094 C1095 1.516 . S
C1095 C1094 1.516 . S
C1095 C1096 1.502 . S
C1095 C1097 1.561 . S
C1095 C1098 1.526 . S
C1096 H1080 0.959 . S
C1096 H1081 0.959 . S
C1096 H1082 0.961 . S
C1096 C1095 1.502 . S
C1097 H1083 0.960 . S
C1097 H1084 0.961 . S
C1097 H1085 0.959 . S
C1097 C1095 1.561 . S
C1098 C1095 1.526 . S
C1098 C1099 1.396 . S
C1098 C1103 1.390 . S
C1099 C1093 1.465 . S
C1099 C1098 1.396 . S
C1099 C1100 1.399 . S
C1100 H1086 0.929 . S
C1100 C1099 1.399 . S
C1100 C1101 1.385 . S
C1101 H1087 0.931 . S
C1101 C1100 1.385 . S
C1101 C1102 1.389 . S
C1102 C1101 1.389 . S
C1102 C1103 1.387 . S
C1103 H1088 0.930 . S
C1103 C1098 1.390 . S
C1103 C1102 1.387 . S
H1104 C1116 0.930 . S
H1105 C1118 0.930 . S
H1106 C1119 0.930 . S
H1107 C1123 0.959 . S
H1108 C1123 0.959 . S
H1109 C1123 0.961 . S
H1110 C1124 0.960 . S
H1111 C1124 0.961 . S
H1112 C1124 0.959 . S
H1113 C1127 0.929 . S
H1114 C1128 0.931 . S
H1115 C1130 0.930 . S
C1116 H1104 0.930 . S
C1116 C1117 1.399 . S
C1116 C1121 1.399 . S
C1117 C1116 1.399 . S
C1117 C1118 1.376 . S
C1118 H1105 0.930 . S
C1118 C1117 1.376 . S
C1118 C1119 1.388 . S
C1119 H1106 0.930 . S
C1119 C1118 1.388 . S
C1119 C1120 1.390 . S
C1120 C1119 1.390 . S
C1120 C1121 1.394 . S
C1120 C1126 1.465 . S
C1121 C1116 1.399 . S
C1121 C1120 1.394 . S
C1121 C1122 1.516 1_455 S
C1122 C1121 1.516 1_655 S
C1122 C1123 1.502 1_655 S
C1122 C1124 1.561 . S
C1122 C1125 1.526 . S
C1123 H1107 0.959 . S
C1123 H1108 0.959 . S
C1123 H1109 0.961 . S
C1123 C1122 1.502 1_455 S
C1124 H1110 0.960 . S
C1124 H1111 0.961 . S
C1124 H1112 0.959 . S
C1124 C1122 1.561 . S
C1125 C1122 1.526 . S
C1125 C1126 1.396 1_655 S
C1125 C1130 1.390 . S
C1126 C1120 1.465 . S
C1126 C1125 1.396 1_455 S
C1126 C1127 1.399 . S
C1127 H1113 0.929 . S
C1127 C1126 1.399 . S
C1127 C1128 1.385 1_455 S
C1128 H1114 0.931 . S
C1128 C1127 1.385 1_655 S
C1128 C1129 1.389 . S
C1129 C1128 1.389 . S
C1129 C1130 1.387 . S
C1130 H1115 0.930 . S
C1130 C1125 1.390 . S
C1130 C1129 1.387 . S
H1131 C1143 0.930 . S
H1132 C1145 0.930 . S
H1133 C1146 0.930 . S
H1134 C1150 0.959 . S
H1135 C1150 0.959 . S
H1136 C1150 0.961 . S
H1137 C1151 0.960 . S
H1138 C1151 0.961 . S
H1139 C1151 0.959 . S
H1140 C1154 0.929 . S
H1141 C1155 0.931 . S
H1142 C1157 0.930 . S
C1143 H1131 0.930 . S
C1143 C1144 1.399 1_455 S
C1143 C1148 1.399 . S
C1144 C1143 1.399 1_655 S
C1144 C1145 1.376 . S
C1145 H1132 0.930 . S
C1145 C1144 1.376 . S
C1145 C1146 1.388 . S
C1146 H1133 0.930 . S
C1146 C1145 1.388 . S
C1146 C1147 1.390 . S
C1147 C1146 1.390 . S
C1147 C1148 1.394 1_655 S
C1147 C1153 1.465 . S
C1148 C1143 1.399 . S
C1148 C1147 1.394 1_455 S
C1148 C1149 1.516 . S
C1149 C1148 1.516 . S
C1149 C1150 1.502 . S
C1149 C1151 1.561 . S
C1149 C1152 1.526 . S
C1150 H1134 0.959 . S
C1150 H1135 0.959 . S
C1150 H1136 0.961 . S
C1150 C1149 1.502 . S
C1151 H1137 0.960 . S
C1151 H1138 0.961 . S
C1151 H1139 0.959 . S
C1151 C1149 1.561 . S
C1152 C1149 1.526 . S
C1152 C1153 1.396 1_455 S
C1152 C1157 1.390 . S
C1153 C1147 1.465 . S
C1153 C1152 1.396 1_655 S
C1153 C1154 1.399 . S
C1154 H1140 0.929 . S
C1154 C1153 1.399 . S
C1154 C1155 1.385 . S
C1155 H1141 0.931 . S
C1155 C1154 1.385 . S
C1155 C1156 1.389 1_655 S
C1156 C1155 1.389 1_455 S
C1156 C1157 1.387 . S
C1157 H1142 0.930 . S
C1157 C1152 1.390 . S
C1157 C1156 1.387 . S
H1158 C1170 0.930 . S
H1159 C1172 0.930 . S
H1160 C1173 0.930 . S
H1161 C1177 0.959 . S
H1162 C1177 0.959 . S
H1163 C1177 0.961 . S
H1164 C1178 0.960 . S
H1165 C1178 0.961 . S
H1166 C1178 0.959 . S
H1167 C1181 0.929 . S
H1168 C1182 0.931 . S
H1169 C1184 0.930 . S
C1170 H1158 0.930 . S
C1170 C1171 1.399 . S
C1170 C1175 1.399 . S
C1171 C1170 1.399 . S
C1171 C1172 1.376 . S
C1172 H1159 0.930 . S
C1172 C1171 1.376 . S
C1172 C1173 1.388 . S
C1173 H1160 0.930 . S
C1173 C1172 1.388 . S
C1173 C1174 1.390 . S
C1174 C1173 1.390 . S
C1174 C1175 1.394 . S
C1174 C1180 1.465 . S
C1175 C1170 1.399 . S
C1175 C1174 1.394 . S
C1175 C1176 1.516 . S
C1176 C1175 1.516 . S
C1176 C1177 1.502 1_655 S
C1176 C1178 1.561 . S
C1176 C1179 1.526 . S
C1177 H1161 0.959 . S
C1177 H1162 0.959 . S
C1177 H1163 0.961 . S
C1177 C1176 1.502 1_455 S
C1178 H1164 0.960 . S
C1178 H1165 0.961 . S
C1178 H1166 0.959 . S
C1178 C1176 1.561 . S
C1179 C1176 1.526 . S
C1179 C1180 1.396 . S
C1179 C1184 1.390 1_655 S
C1180 C1174 1.465 . S
C1180 C1179 1.396 . S
C1180 C1181 1.399 . S
C1181 H1167 0.929 . S
C1181 C1180 1.399 . S
C1181 C1182 1.385 1_655 S
C1182 H1168 0.931 . S
C1182 C1181 1.385 1_455 S
C1182 C1183 1.389 . S
C1183 C1182 1.389 . S
C1183 C1184 1.387 . S
C1184 H1169 0.930 . S
C1184 C1179 1.390 1_455 S
C1184 C1183 1.387 . S
H1185 C1197 0.923 1_455 S
H1186 C1199 0.930 . S
H1187 C1200 0.930 . S
H1188 C1204 0.959 . S
H1189 C1204 0.959 . S
H1190 C1204 0.961 . S
H1191 C1205 0.960 . S
H1192 C1205 0.961 1_455 S
H1193 C1205 0.959 . S
H1194 C1208 0.929 . S
H1195 C1209 0.931 . S
H1196 C1211 0.930 . S
C1197 H1185 0.923 1_655 S
C1197 C1198 1.399 . S
C1197 C1202 1.399 . S
C1198 C1197 1.399 . S
C1198 C1199 1.376 . S
C1199 H1186 0.930 . S
C1199 C1198 1.376 . S
C1199 C1200 1.388 . S
C1200 H1187 0.930 . S
C1200 C1199 1.388 . S
C1200 C1201 1.390 . S
C1201 C1200 1.390 . S
C1201 C1202 1.394 . S
C1201 C1207 1.465 . S
C1202 C1197 1.399 . S
C1202 C1201 1.394 . S
C1202 C1203 1.516 1_655 S
C1203 C1202 1.516 1_455 S
C1203 C1204 1.502 . S
C1203 C1205 1.561 1_455 S
C1203 C1206 1.526 . S
C1204 H1188 0.959 . S
C1204 H1189 0.959 . S
C1204 H1190 0.961 . S
C1204 C1203 1.502 . S
C1205 H1191 0.960 . S
C1205 H1192 0.961 1_655 S
C1205 H1193 0.959 . S
C1205 C1203 1.561 1_655 S
C1206 C1203 1.526 . S
C1206 C1207 1.396 1_455 S
C1206 C1211 1.390 . S
C1207 C1201 1.465 . S
C1207 C1206 1.396 1_655 S
C1207 C1208 1.399 . S
C1208 H1194 0.929 . S
C1208 C1207 1.399 . S
C1208 C1209 1.385 . S
C1209 H1195 0.931 . S
C1209 C1208 1.385 . S
C1209 C1210 1.389 1_655 S
C1210 C1209 1.389 1_455 S
C1210 C1211 1.387 . S
C1211 H1196 0.930 . S
C1211 C1206 1.390 . S
C1211 C1210 1.387 . S
H1212 C1224 0.930 . S
H1213 C1226 0.930 . S
H1214 C1227 0.930 . S
H1215 C1231 0.959 . S
H1216 C1231 0.959 . S
H1217 C1231 0.961 . S
H1218 C1232 0.960 . S
H1219 C1232 0.961 . S
H1220 C1232 0.959 . S
H1221 C1235 0.929 . S
H1222 C1236 0.931 . S
H1223 C1238 0.930 . S
C1224 H1212 0.930 . S
C1224 C1225 1.399 . S
C1224 C1229 1.399 . S
C1225 C1224 1.399 . S
C1225 C1226 1.376 . S
C1226 H1213 0.930 . S
C1226 C1225 1.376 . S
C1226 C1227 1.388 . S
C1227 H1214 0.930 . S
C1227 C1226 1.388 . S
C1227 C1228 1.390 . S
C1228 C1227 1.390 . S
C1228 C1229 1.394 . S
C1228 C1234 1.465 . S
C1229 C1224 1.399 . S
C1229 C1228 1.394 . S
C1229 C1230 1.516 . S
C1230 C1229 1.516 . S
C1230 C1231 1.502 . S
C1230 C1232 1.561 . S
C1230 C1233 1.526 . S
C1231 H1215 0.959 . S
C1231 H1216 0.959 . S
C1231 H1217 0.961 . S
C1231 C1230 1.502 . S
C1232 H1218 0.960 . S
C1232 H1219 0.961 . S
C1232 H1220 0.959 . S
C1232 C1230 1.561 . S
C1233 C1230 1.526 . S
C1233 C1234 1.396 . S
C1233 C1238 1.390 . S
C1234 C1228 1.465 . S
C1234 C1233 1.396 . S
C1234 C1235 1.399 . S
C1235 H1221 0.929 . S
C1235 C1234 1.399 . S
C1235 C1236 1.385 . S
C1236 H1222 0.931 . S
C1236 C1235 1.385 . S
C1236 C1237 1.389 . S
C1237 C1236 1.389 . S
C1237 C1238 1.387 . S
C1238 H1223 0.930 . S
C1238 C1233 1.390 . S
C1238 C1237 1.387 . S
H1239 C1251 0.930 . S
H1240 C1253 0.930 . S
H1241 C1254 0.930 . S
H1242 C1258 0.959 . S
H1243 C1258 0.959 . S
H1244 C1258 0.961 . S
H1245 C1259 0.960 . S
H1246 C1259 0.961 . S
H1247 C1259 0.959 . S
H1248 C1262 0.929 . S
H1249 C1263 0.931 . S
H1250 C1265 0.930 . S
C1251 H1239 0.930 . S
C1251 C1252 1.399 . S
C1251 C1256 1.399 . S
C1252 C1251 1.399 . S
C1252 C1253 1.376 . S
C1253 H1240 0.930 . S
C1253 C1252 1.376 . S
C1253 C1254 1.388 . S
C1254 H1241 0.930 . S
C1254 C1253 1.388 . S
C1254 C1255 1.390 . S
C1255 C1254 1.390 . S
C1255 C1256 1.394 . S
C1255 C1261 1.465 . S
C1256 C1251 1.399 . S
C1256 C1255 1.394 . S
C1256 C1257 1.516 . S
C1257 C1256 1.516 . S
C1257 C1258 1.502 . S
C1257 C1259 1.561 . S
C1257 C1260 1.526 . S
C1258 H1242 0.959 . S
C1258 H1243 0.959 . S
C1258 H1244 0.961 . S
C1258 C1257 1.502 . S
C1259 H1245 0.960 . S
C1259 H1246 0.961 . S
C1259 H1247 0.959 . S
C1259 C1257 1.561 . S
C1260 C1257 1.526 . S
C1260 C1261 1.396 . S
C1260 C1265 1.390 . S
C1261 C1255 1.465 . S
C1261 C1260 1.396 . S
C1261 C1262 1.399 . S
C1262 H1248 0.929 . S
C1262 C1261 1.399 . S
C1262 C1263 1.385 . S
C1263 H1249 0.931 . S
C1263 C1262 1.385 . S
C1263 C1264 1.389 . S
C1264 C1263 1.389 . S
C1264 C1265 1.387 . S
C1265 H1250 0.930 . S
C1265 C1260 1.390 . S
C1265 C1264 1.387 . S
H1266 C1278 0.930 . S
H1267 C1280 0.930 . S
H1268 C1281 0.930 . S
H1269 C1285 0.959 . S
H1270 C1285 0.959 . S
H1271 C1285 0.961 . S
H1272 C1286 0.960 . S
H1273 C1286 0.961 . S
H1274 C1286 0.959 . S
H1275 C1289 0.929 . S
H1276 C1290 0.931 . S
H1277 C1292 0.930 . S
C1278 H1266 0.930 . S
C1278 C1279 1.399 . S
C1278 C1283 1.399 . S
C1279 C1278 1.399 . S
C1279 C1280 1.376 . S
C1280 H1267 0.930 . S
C1280 C1279 1.376 . S
C1280 C1281 1.388 . S
C1281 H1268 0.930 . S
C1281 C1280 1.388 . S
C1281 C1282 1.390 . S
C1282 C1281 1.390 . S
C1282 C1283 1.394 . S
C1282 C1288 1.465 . S
C1283 C1278 1.399 . S
C1283 C1282 1.394 . S
C1283 C1284 1.516 . S
C1284 C1283 1.516 . S
C1284 C1285 1.502 . S
C1284 C1286 1.561 . S
C1284 C1287 1.526 . S
C1285 H1269 0.959 . S
C1285 H1270 0.959 . S
C1285 H1271 0.961 . S
C1285 C1284 1.502 . S
C1286 H1272 0.960 . S
C1286 H1273 0.961 . S
C1286 H1274 0.959 . S
C1286 C1284 1.561 . S
C1287 C1284 1.526 . S
C1287 C1288 1.396 . S
C1287 C1292 1.390 . S
C1288 C1282 1.465 . S
C1288 C1287 1.396 . S
C1288 C1289 1.399 . S
C1289 H1275 0.929 . S
C1289 C1288 1.399 . S
C1289 C1290 1.385 . S
C1290 H1276 0.931 . S
C1290 C1289 1.385 . S
C1290 C1291 1.389 . S
C1291 C1290 1.389 . S
C1291 C1292 1.387 . S
C1292 H1277 0.930 . S
C1292 C1287 1.390 . S
C1292 C1291 1.387 . S
H1293 C1305 0.930 . S
H1294 C1307 0.930 . S
H1295 C1308 0.930 . S
H1296 C1312 0.959 . S
H1297 C1312 0.959 . S
H1298 C1312 0.961 . S
H1299 C1313 0.960 . S
H1300 C1313 0.961 . S
H1301 C1313 0.959 . S
H1302 C1316 0.929 . S
H1303 C1317 0.931 . S
H1304 C1319 0.930 . S
C1305 H1293 0.930 . S
C1305 C1306 1.399 . S
C1305 C1310 1.399 . S
C1306 C1305 1.399 . S
C1306 C1307 1.376 . S
C1307 H1294 0.930 . S
C1307 C1306 1.376 . S
C1307 C1308 1.388 . S
C1308 H1295 0.930 . S
C1308 C1307 1.388 . S
C1308 C1309 1.390 . S
C1309 C1308 1.390 . S
C1309 C1310 1.394 . S
C1309 C1315 1.465 . S
C1310 C1305 1.399 . S
C1310 C1309 1.394 . S
C1310 C1311 1.516 . S
C1311 C1310 1.516 . S
C1311 C1312 1.502 . S
C1311 C1313 1.561 . S
C1311 C1314 1.526 . S
C1312 H1296 0.959 . S
C1312 H1297 0.959 . S
C1312 H1298 0.961 . S
C1312 C1311 1.502 . S
C1313 H1299 0.960 . S
C1313 H1300 0.961 . S
C1313 H1301 0.959 . S
C1313 C1311 1.561 . S
C1314 C1311 1.526 . S
C1314 C1315 1.396 . S
C1314 C1319 1.390 . S
C1315 C1309 1.465 . S
C1315 C1314 1.396 . S
C1315 C1316 1.399 . S
C1316 H1302 0.929 . S
C1316 C1315 1.399 . S
C1316 C1317 1.385 . S
C1317 H1303 0.931 . S
C1317 C1316 1.385 . S
C1317 C1318 1.389 . S
C1318 C1317 1.389 . S
C1318 C1319 1.387 . S
C1319 H1304 0.930 . S
C1319 C1314 1.390 . S
C1319 C1318 1.387 . S
C685 C67 2.076 . S
C697 C56 2.081 . S
C712 C151 2.057 . S
C724 C140 2.097 . S
C739 C224 2.058 . S
C751 C235 2.096 . S
C766 C308 2.066 . S
C778 C319 2.090 . S
C793 C403 2.069 . S
C805 C392 2.072 1_556 S
C820 C476 2.097 . S
C832 C487 2.050 . S
C847 C560 2.099 . S
C859 C571 2.049 . S
C874 C655 2.052 . S
C886 C644 2.091 . S
C901 C154 1.732 1_554 S
C913 C58 1.848 . S
C928 C322 1.743 . S
C940 C226 1.822 . S
C955 C394 1.817 . S
C967 C490 1.748 1_554 S
C982 C562 1.781 . S
C994 C658 1.816 . S
C1009 C70 1.455 1_554 S
C1021 C478 1.322 . S
C1036 C406 1.452 1_554 S
C1048 C142 1.321 . S
C1063 C238 1.457 . S
C1075 C646 1.325 . S
C1090 C310 1.355 . S
C1102 C574 1.439 . S
C1117 C74 1.499 . S
C1129 C326 1.582 . S
C1144 C158 1.569 . S
C1156 C242 1.463 . S
C1171 C147 1.530 . S
C1183 C231 1.583 . S
C1198 C315 1.547 . S
C1210 C63 1.594 . S
C1225 C410 1.532 . S
C1237 C662 1.601 . S
C1252 C494 1.606 . S
C1264 C578 1.548 . S
C1279 C483 1.544 . S
C1291 C567 1.591 . S
C1306 C651 1.521 . S
C1318 C399 1.579 . S
