# Generated by pormake.
# Topology nfb, (4)-cn, num edge types: 1
# Building blocks:
#     Node 0, Type 0, BuildingBlock: CEKHIL_clean_sbu_0, # of connection points: 4
#     Node 1, Type 0, BuildingBlock: CEKHIL_clean_sbu_0, # of connection points: 4
#     Node 2, Type 0, BuildingBlock: CEKHIL_clean_sbu_0, # of connection points: 4
#     Node 3, Type 0, BuildingBlock: CEKHIL_clean_sbu_0, # of connection points: 4
#     Node 4, Type 0, BuildingBlock: CEKHIL_clean_sbu_0, # of connection points: 4
#     Node 5, Type 0, BuildingBlock: CEKHIL_clean_sbu_0, # of connection points: 4
#     Node 6, Type 0, BuildingBlock: CEKHIL_clean_sbu_0, # of connection points: 4
#     Node 7, Type 0, BuildingBlock: CEKHIL_clean_sbu_0, # of connection points: 4
#     Node 8, Type 0, BuildingBlock: CEKHIL_clean_sbu_0, # of connection points: 4
#     Node 9, Type 0, BuildingBlock: CEKHIL_clean_sbu_0, # of connection points: 4
#     Node 10, Type 0, BuildingBlock: CEKHIL_clean_sbu_0, # of connection points: 4
#     Node 11, Type 0, BuildingBlock: CEKHIL_clean_sbu_0, # of connection points: 4
#     Node 12, Type 0, BuildingBlock: CEKHIL_clean_sbu_0, # of connection points: 4
#     Node 13, Type 0, BuildingBlock: CEKHIL_clean_sbu_0, # of connection points: 4
#     Node 14, Type 0, BuildingBlock: CEKHIL_clean_sbu_0, # of connection points: 4
#     Node 15, Type 0, BuildingBlock: CEKHIL_clean_sbu_0, # of connection points: 4
#     Node 16, Type 0, BuildingBlock: CEKHIL_clean_sbu_0, # of connection points: 4
#     Node 17, Type 0, BuildingBlock: CEKHIL_clean_sbu_0, # of connection points: 4
#     Node 18, Type 0, BuildingBlock: CEKHIL_clean_sbu_0, # of connection points: 4
#     Node 19, Type 0, BuildingBlock: CEKHIL_clean_sbu_0, # of connection points: 4
#     Node 20, Type 0, BuildingBlock: CEKHIL_clean_sbu_0, # of connection points: 4
#     Node 21, Type 0, BuildingBlock: CEKHIL_clean_sbu_0, # of connection points: 4
#     Node 22, Type 0, BuildingBlock: CEKHIL_clean_sbu_0, # of connection points: 4
#     Node 23, Type 0, BuildingBlock: CEKHIL_clean_sbu_0, # of connection points: 4
#     Node 24, Type 0, BuildingBlock: CEKHIL_clean_sbu_0, # of connection points: 4
#     Node 25, Type 0, BuildingBlock: CEKHIL_clean_sbu_0, # of connection points: 4
#     Node 26, Type 0, BuildingBlock: CEKHIL_clean_sbu_0, # of connection points: 4
#     Node 27, Type 0, BuildingBlock: CEKHIL_clean_sbu_0, # of connection points: 4
#     Node 28, Type 0, BuildingBlock: CEKHIL_clean_sbu_0, # of connection points: 4
#     Node 29, Type 0, BuildingBlock: CEKHIL_clean_sbu_0, # of connection points: 4
#     Node 30, Type 0, BuildingBlock: CEKHIL_clean_sbu_0, # of connection points: 4
#     Node 31, Type 0, BuildingBlock: CEKHIL_clean_sbu_0, # of connection points: 4
#     Node 32, Type 0, BuildingBlock: CEKHIL_clean_sbu_0, # of connection points: 4
#     Node 33, Type 0, BuildingBlock: CEKHIL_clean_sbu_0, # of connection points: 4
#     Node 34, Type 0, BuildingBlock: CEKHIL_clean_sbu_0, # of connection points: 4
#     Node 35, Type 0, BuildingBlock: CEKHIL_clean_sbu_0, # of connection points: 4
#     Node 36, Type 0, BuildingBlock: CEKHIL_clean_sbu_0, # of connection points: 4
#     Node 37, Type 0, BuildingBlock: CEKHIL_clean_sbu_0, # of connection points: 4
#     Node 38, Type 0, BuildingBlock: CEKHIL_clean_sbu_0, # of connection points: 4
#     Node 39, Type 0, BuildingBlock: CEKHIL_clean_sbu_0, # of connection points: 4
#     Node 40, Type 0, BuildingBlock: CEKHIL_clean_sbu_0, # of connection points: 4
#     Node 41, Type 0, BuildingBlock: CEKHIL_clean_sbu_0, # of connection points: 4
#     Node 42, Type 0, BuildingBlock: CEKHIL_clean_sbu_0, # of connection points: 4
#     Node 43, Type 0, BuildingBlock: CEKHIL_clean_sbu_0, # of connection points: 4
#     Node 44, Type 0, BuildingBlock: CEKHIL_clean_sbu_0, # of connection points: 4
#     Node 45, Type 0, BuildingBlock: CEKHIL_clean_sbu_0, # of connection points: 4
#     Node 46, Type 0, BuildingBlock: CEKHIL_clean_sbu_0, # of connection points: 4
#     Node 47, Type 0, BuildingBlock: CEKHIL_clean_sbu_0, # of connection points: 4
#     Edge 48, Type (0, 0), BuildingBlock: CIFDUS_clean_linker_0, # of connection points: 2
#     Edge 49, Type (0, 0), BuildingBlock: CIFDUS_clean_linker_0, # of connection points: 2
#     Edge 50, Type (0, 0), BuildingBlock: CIFDUS_clean_linker_0, # of connection points: 2
#     Edge 51, Type (0, 0), BuildingBlock: CIFDUS_clean_linker_0, # of connection points: 2
#     Edge 52, Type (0, 0), BuildingBlock: CIFDUS_clean_linker_0, # of connection points: 2
#     Edge 53, Type (0, 0), BuildingBlock: CIFDUS_clean_linker_0, # of connection points: 2
#     Edge 54, Type (0, 0), BuildingBlock: CIFDUS_clean_linker_0, # of connection points: 2
#     Edge 55, Type (0, 0), BuildingBlock: CIFDUS_clean_linker_0, # of connection points: 2
#     Edge 56, Type (0, 0), BuildingBlock: CIFDUS_clean_linker_0, # of connection points: 2
#     Edge 57, Type (0, 0), BuildingBlock: CIFDUS_clean_linker_0, # of connection points: 2
#     Edge 58, Type (0, 0), BuildingBlock: CIFDUS_clean_linker_0, # of connection points: 2
#     Edge 59, Type (0, 0), BuildingBlock: CIFDUS_clean_linker_0, # of connection points: 2
#     Edge 60, Type (0, 0), BuildingBlock: CIFDUS_clean_linker_0, # of connection points: 2
#     Edge 61, Type (0, 0), BuildingBlock: CIFDUS_clean_linker_0, # of connection points: 2
#     Edge 62, Type (0, 0), BuildingBlock: CIFDUS_clean_linker_0, # of connection points: 2
#     Edge 63, Type (0, 0), BuildingBlock: CIFDUS_clean_linker_0, # of connection points: 2
#     Edge 64, Type (0, 0), BuildingBlock: CIFDUS_clean_linker_0, # of connection points: 2
#     Edge 65, Type (0, 0), BuildingBlock: CIFDUS_clean_linker_0, # of connection points: 2
#     Edge 66, Type (0, 0), BuildingBlock: CIFDUS_clean_linker_0, # of connection points: 2
#     Edge 67, Type (0, 0), BuildingBlock: CIFDUS_clean_linker_0, # of connection points: 2
#     Edge 68, Type (0, 0), BuildingBlock: CIFDUS_clean_linker_0, # of connection points: 2
#     Edge 69, Type (0, 0), BuildingBlock: CIFDUS_clean_linker_0, # of connection points: 2
#     Edge 70, Type (0, 0), BuildingBlock: CIFDUS_clean_linker_0, # of connection points: 2
#     Edge 71, Type (0, 0), BuildingBlock: CIFDUS_clean_linker_0, # of connection points: 2
#     Edge 72, Type (0, 0), BuildingBlock: CIFDUS_clean_linker_0, # of connection points: 2
#     Edge 73, Type (0, 0), BuildingBlock: CIFDUS_clean_linker_0, # of connection points: 2
#     Edge 74, Type (0, 0), BuildingBlock: CIFDUS_clean_linker_0, # of connection points: 2
#     Edge 75, Type (0, 0), BuildingBlock: CIFDUS_clean_linker_0, # of connection points: 2
#     Edge 76, Type (0, 0), BuildingBlock: CIFDUS_clean_linker_0, # of connection points: 2
#     Edge 77, Type (0, 0), BuildingBlock: CIFDUS_clean_linker_0, # of connection points: 2
#     Edge 78, Type (0, 0), BuildingBlock: CIFDUS_clean_linker_0, # of connection points: 2
#     Edge 79, Type (0, 0), BuildingBlock: CIFDUS_clean_linker_0, # of connection points: 2
#     Edge 80, Type (0, 0), BuildingBlock: CIFDUS_clean_linker_0, # of connection points: 2
#     Edge 81, Type (0, 0), BuildingBlock: CIFDUS_clean_linker_0, # of connection points: 2
#     Edge 82, Type (0, 0), BuildingBlock: CIFDUS_clean_linker_0, # of connection points: 2
#     Edge 83, Type (0, 0), BuildingBlock: CIFDUS_clean_linker_0, # of connection points: 2
#     Edge 84, Type (0, 0), BuildingBlock: CIFDUS_clean_linker_0, # of connection points: 2
#     Edge 85, Type (0, 0), BuildingBlock: CIFDUS_clean_linker_0, # of connection points: 2
#     Edge 86, Type (0, 0), BuildingBlock: CIFDUS_clean_linker_0, # of connection points: 2
#     Edge 87, Type (0, 0), BuildingBlock: CIFDUS_clean_linker_0, # of connection points: 2
#     Edge 88, Type (0, 0), BuildingBlock: CIFDUS_clean_linker_0, # of connection points: 2
#     Edge 89, Type (0, 0), BuildingBlock: CIFDUS_clean_linker_0, # of connection points: 2
#     Edge 90, Type (0, 0), BuildingBlock: CIFDUS_clean_linker_0, # of connection points: 2
#     Edge 91, Type (0, 0), BuildingBlock: CIFDUS_clean_linker_0, # of connection points: 2
#     Edge 92, Type (0, 0), BuildingBlock: CIFDUS_clean_linker_0, # of connection points: 2
#     Edge 93, Type (0, 0), BuildingBlock: CIFDUS_clean_linker_0, # of connection points: 2
#     Edge 94, Type (0, 0), BuildingBlock: CIFDUS_clean_linker_0, # of connection points: 2
#     Edge 95, Type (0, 0), BuildingBlock: CIFDUS_clean_linker_0, # of connection points: 2
#     Edge 96, Type (0, 0), BuildingBlock: CIFDUS_clean_linker_0, # of connection points: 2
#     Edge 97, Type (0, 0), BuildingBlock: CIFDUS_clean_linker_0, # of connection points: 2
#     Edge 98, Type (0, 0), BuildingBlock: CIFDUS_clean_linker_0, # of connection points: 2
#     Edge 99, Type (0, 0), BuildingBlock: CIFDUS_clean_linker_0, # of connection points: 2
#     Edge 100, Type (0, 0), BuildingBlock: CIFDUS_clean_linker_0, # of connection points: 2
#     Edge 101, Type (0, 0), BuildingBlock: CIFDUS_clean_linker_0, # of connection points: 2
#     Edge 102, Type (0, 0), BuildingBlock: CIFDUS_clean_linker_0, # of connection points: 2
#     Edge 103, Type (0, 0), BuildingBlock: CIFDUS_clean_linker_0, # of connection points: 2
#     Edge 104, Type (0, 0), BuildingBlock: CIFDUS_clean_linker_0, # of connection points: 2
#     Edge 105, Type (0, 0), BuildingBlock: CIFDUS_clean_linker_0, # of connection points: 2
#     Edge 106, Type (0, 0), BuildingBlock: CIFDUS_clean_linker_0, # of connection points: 2
#     Edge 107, Type (0, 0), BuildingBlock: CIFDUS_clean_linker_0, # of connection points: 2
#     Edge 108, Type (0, 0), BuildingBlock: CIFDUS_clean_linker_0, # of connection points: 2
#     Edge 109, Type (0, 0), BuildingBlock: CIFDUS_clean_linker_0, # of connection points: 2
#     Edge 110, Type (0, 0), BuildingBlock: CIFDUS_clean_linker_0, # of connection points: 2
#     Edge 111, Type (0, 0), BuildingBlock: CIFDUS_clean_linker_0, # of connection points: 2
#     Edge 112, Type (0, 0), BuildingBlock: CIFDUS_clean_linker_0, # of connection points: 2
#     Edge 113, Type (0, 0), BuildingBlock: CIFDUS_clean_linker_0, # of connection points: 2
#     Edge 114, Type (0, 0), BuildingBlock: CIFDUS_clean_linker_0, # of connection points: 2
#     Edge 115, Type (0, 0), BuildingBlock: CIFDUS_clean_linker_0, # of connection points: 2
#     Edge 116, Type (0, 0), BuildingBlock: CIFDUS_clean_linker_0, # of connection points: 2
#     Edge 117, Type (0, 0), BuildingBlock: CIFDUS_clean_linker_0, # of connection points: 2
#     Edge 118, Type (0, 0), BuildingBlock: CIFDUS_clean_linker_0, # of connection points: 2
#     Edge 119, Type (0, 0), BuildingBlock: CIFDUS_clean_linker_0, # of connection points: 2
#     Edge 120, Type (0, 0), BuildingBlock: CIFDUS_clean_linker_0, # of connection points: 2
#     Edge 121, Type (0, 0), BuildingBlock: CIFDUS_clean_linker_0, # of connection points: 2
#     Edge 122, Type (0, 0), BuildingBlock: CIFDUS_clean_linker_0, # of connection points: 2
#     Edge 123, Type (0, 0), BuildingBlock: CIFDUS_clean_linker_0, # of connection points: 2
#     Edge 124, Type (0, 0), BuildingBlock: CIFDUS_clean_linker_0, # of connection points: 2
#     Edge 125, Type (0, 0), BuildingBlock: CIFDUS_clean_linker_0, # of connection points: 2
#     Edge 126, Type (0, 0), BuildingBlock: CIFDUS_clean_linker_0, # of connection points: 2
#     Edge 127, Type (0, 0), BuildingBlock: CIFDUS_clean_linker_0, # of connection points: 2
#     Edge 128, Type (0, 0), BuildingBlock: CIFDUS_clean_linker_0, # of connection points: 2
#     Edge 129, Type (0, 0), BuildingBlock: CIFDUS_clean_linker_0, # of connection points: 2
#     Edge 130, Type (0, 0), BuildingBlock: CIFDUS_clean_linker_0, # of connection points: 2
#     Edge 131, Type (0, 0), BuildingBlock: CIFDUS_clean_linker_0, # of connection points: 2
#     Edge 132, Type (0, 0), BuildingBlock: CIFDUS_clean_linker_0, # of connection points: 2
#     Edge 133, Type (0, 0), BuildingBlock: CIFDUS_clean_linker_0, # of connection points: 2
#     Edge 134, Type (0, 0), BuildingBlock: CIFDUS_clean_linker_0, # of connection points: 2
#     Edge 135, Type (0, 0), BuildingBlock: CIFDUS_clean_linker_0, # of connection points: 2
#     Edge 136, Type (0, 0), BuildingBlock: CIFDUS_clean_linker_0, # of connection points: 2
#     Edge 137, Type (0, 0), BuildingBlock: CIFDUS_clean_linker_0, # of connection points: 2
#     Edge 138, Type (0, 0), BuildingBlock: CIFDUS_clean_linker_0, # of connection points: 2
#     Edge 139, Type (0, 0), BuildingBlock: CIFDUS_clean_linker_0, # of connection points: 2
#     Edge 140, Type (0, 0), BuildingBlock: CIFDUS_clean_linker_0, # of connection points: 2
#     Edge 141, Type (0, 0), BuildingBlock: CIFDUS_clean_linker_0, # of connection points: 2
#     Edge 142, Type (0, 0), BuildingBlock: CIFDUS_clean_linker_0, # of connection points: 2
#     Edge 143, Type (0, 0), BuildingBlock: CIFDUS_clean_linker_0, # of connection points: 2
# Relax obj value: 0.252
# Max RMSD: 0.068
# Mean RMSD: 0.061
data_MOF--net-nfb--node1-CEKHIL_clean_sbu_0--edge1-CIFDUS_clean_linker_0
_symmetry_space_group_name_H-M    P1
_symmetry_Int_Tables_number       1
_symmetry_cell_setting            triclinic
loop_
_symmetry_equiv_pos_as_xyz
'x, y, z'
_cell_length_a     52.070391
_cell_length_b     52.110219
_cell_length_c     52.126867
_cell_angle_alpha  90.056706
_cell_angle_beta   90.351494
_cell_angle_gamma 90.595158
loop_
_atom_site_label
_atom_site_type_symbol
_atom_site_fract_x
_atom_site_fract_y
_atom_site_fract_z
_atom_type_partial_charge
Co0 Co 0.13492 0.13829 0.41211 0.0
O1 O 0.16881 0.14653 0.42549 0.0
O2 O 0.16209 0.11646 0.39691 0.0
C3 C 0.12622 0.18015 0.40554 0.0
O4 O 0.10039 0.12549 0.39494 0.0
Co5 Co 0.08653 0.16053 0.43853 0.0
O6 O 0.07142 0.15569 0.40407 0.0
C7 C 0.11146 0.11318 0.45879 0.0
C8 C 0.17869 0.12947 0.41077 0.0
C9 C 0.07774 0.13561 0.39196 0.0
O10 O 0.12884 0.11362 0.44129 0.0
O11 O 0.09401 0.13022 0.46092 0.0
O12 O 0.1382 0.16711 0.3882 0.0
O13 O 0.12048 0.16787 0.42618 0.0
Co14 Co 0.39508 0.60774 0.90216 0.0
O15 O 0.39455 0.57077 0.90589 0.0
O16 O 0.40039 0.59012 0.86894 0.0
C17 C 0.42065 0.61422 0.93648 0.0
O18 O 0.39735 0.64697 0.89321 0.0
Co19 Co 0.3721 0.63904 0.94805 0.0
O20 O 0.38471 0.66891 0.92843 0.0
C21 C 0.33736 0.61366 0.91093 0.0
C22 C 0.39869 0.56859 0.88167 0.0
C23 C 0.39318 0.66838 0.90554 0.0
O24 O 0.3565 0.60766 0.89656 0.0
O25 O 0.33994 0.62412 0.93302 0.0
O26 O 0.43104 0.60869 0.91462 0.0
O27 O 0.39602 0.61348 0.93705 0.0
Co28 Co 0.86075 0.8743 0.39771 0.0
O29 O 0.82523 0.86523 0.40461 0.0
O30 O 0.83656 0.89913 0.3824 0.0
C31 C 0.87132 0.83401 0.38643 0.0
O32 O 0.8972 0.88845 0.38751 0.0
Co33 Co 0.90401 0.848 0.42918 0.0
O34 O 0.92528 0.85811 0.39955 0.0
C35 C 0.87652 0.89287 0.45062 0.0
C36 C 0.81797 0.88519 0.39204 0.0
C37 C 0.92014 0.87863 0.38748 0.0
O38 O 0.86237 0.89473 0.43044 0.0
O39 O 0.89337 0.8754 0.45387 0.0
O40 O 0.86158 0.84945 0.36952 0.0
O41 O 0.87304 0.8428 0.40948 0.0
Co42 Co 0.62392 0.39965 0.89555 0.0
O43 O 0.6219 0.43653 0.89922 0.0
O44 O 0.61957 0.41679 0.86199 0.0
C45 C 0.59718 0.39115 0.92814 0.0
O46 O 0.62446 0.36046 0.8865 0.0
Co47 Co 0.64721 0.36999 0.94233 0.0
O48 O 0.63639 0.33937 0.92256 0.0
C49 C 0.68157 0.39786 0.90737 0.0
C50 C 0.6194 0.43841 0.8747 0.0
C51 C 0.62888 0.33936 0.89923 0.0
O52 O 0.66255 0.40237 0.89215 0.0
O53 O 0.67905 0.38705 0.92925 0.0
O54 O 0.58758 0.39621 0.90568 0.0
O55 O 0.62166 0.39374 0.93039 0.0
Co56 Co 0.12026 0.88576 0.60946 0.0
O57 O 0.08333 0.88706 0.60499 0.0
O58 O 0.10212 0.88476 0.64274 0.0
C59 C 0.12834 0.9176 0.58137 0.0
O60 O 0.15927 0.88519 0.61956 0.0
Co61 Co 0.15172 0.87102 0.56074 0.0
O62 O 0.18159 0.87903 0.58294 0.0
C63 C 0.12493 0.83051 0.58959 0.0
C64 C 0.08079 0.88627 0.62954 0.0
C65 C 0.18081 0.88299 0.60706 0.0
O66 O 0.1191 0.84687 0.60718 0.0
O67 O 0.13597 0.83683 0.56863 0.0
O68 O 0.12237 0.92332 0.60481 0.0
O69 O 0.12679 0.89366 0.57549 0.0
Co70 Co 0.64071 0.64361 0.11193 0.0
O71 O 0.64923 0.67917 0.1046 0.0
O72 O 0.61575 0.66743 0.12719 0.0
C73 C 0.68156 0.63415 0.12269 0.0
O74 O 0.62687 0.60731 0.12288 0.0
Co75 Co 0.66734 0.59994 0.08165 0.0
O76 O 0.65657 0.5786 0.111 0.0
C77 C 0.62305 0.62782 0.05886 0.0
C78 C 0.62936 0.68615 0.11738 0.0
C79 C 0.63629 0.58424 0.12314 0.0
O80 O 0.62016 0.64146 0.07919 0.0
O81 O 0.64097 0.6114 0.05608 0.0
O82 O 0.66621 0.64343 0.13983 0.0
O83 O 0.67215 0.63169 0.09994 0.0
Co84 Co 0.90074 0.12486 0.61497 0.0
O85 O 0.93777 0.12694 0.6123 0.0
O86 O 0.91801 0.11745 0.64811 0.0
C87 C 0.89642 0.10037 0.57952 0.0
O88 O 0.86138 0.12091 0.62263 0.0
Co89 Co 0.86996 0.14821 0.56881 0.0
O90 O 0.83981 0.13478 0.58748 0.0
C91 C 0.89608 0.18202 0.60619 0.0
C92 C 0.93973 0.12053 0.63605 0.0
C93 C 0.84009 0.12531 0.61004 0.0
O94 O 0.89934 0.16316 0.62188 0.0
O95 O 0.88789 0.17918 0.58315 0.0
O96 O 0.90151 0.08952 0.60129 0.0
O97 O 0.89617 0.125 0.57974 0.0
Co98 Co 0.37017 0.38552 0.10768 0.0
O99 O 0.3643 0.35007 0.09744 0.0
O100 O 0.395 0.36196 0.12391 0.0
C101 C 0.32824 0.3924 0.11599 0.0
O102 O 0.38048 0.42178 0.12239 0.0
Co103 Co 0.34272 0.42825 0.07563 0.0
O104 O 0.35474 0.45105 0.10332 0.0
C105 C 0.39124 0.40539 0.05712 0.0
C106 C 0.38298 0.34317 0.11215 0.0
C107 C 0.37211 0.44514 0.11946 0.0
O108 O 0.39329 0.39112 0.07717 0.0
O109 O 0.37216 0.42009 0.05274 0.0
O110 O 0.34294 0.38206 0.1332 0.0
O111 O 0.33876 0.39657 0.09407 0.0
Co112 Co 0.39378 0.14566 0.13426 0.0
O113 O 0.4047 0.18106 0.13981 0.0
O114 O 0.37514 0.16973 0.1118 0.0
C115 C 0.39077 0.13738 0.17672 0.0
O116 O 0.3782 0.10969 0.1241 0.0
Co117 Co 0.42606 0.10054 0.15591 0.0
O118 O 0.39328 0.0815 0.15299 0.0
C119 C 0.44071 0.12595 0.10681 0.0
C120 C 0.38837 0.18827 0.12262 0.0
C121 C 0.3782 0.087 0.13461 0.0
O122 O 0.42147 0.1412 0.10789 0.0
O123 O 0.44589 0.10941 0.12423 0.0
O124 O 0.37177 0.14792 0.16456 0.0
O125 O 0.411 0.13325 0.16331 0.0
Co126 Co 0.3908 0.90502 0.63338 0.0
O127 O 0.42773 0.9096 0.63326 0.0
O128 O 0.40881 0.8718 0.63102 0.0
C129 C 0.38395 0.93642 0.60443 0.0
O130 O 0.3517 0.89492 0.6322 0.0
Co131 Co 0.35917 0.95169 0.65257 0.0
O132 O 0.32932 0.93061 0.64198 0.0
C133 C 0.3861 0.91945 0.69003 0.0
C134 C 0.4302 0.88512 0.63137 0.0
C135 C 0.33013 0.90707 0.63545 0.0
O136 O 0.39143 0.90324 0.67219 0.0
O137 O 0.37521 0.94093 0.68573 0.0
O138 O 0.38971 0.91353 0.59668 0.0
O139 O 0.38474 0.93981 0.62888 0.0
Co140 Co 0.61647 0.88362 0.13456 0.0
O141 O 0.60549 0.84835 0.14033 0.0
O142 O 0.63464 0.8594 0.11212 0.0
C143 C 0.62021 0.89163 0.17701 0.0
O144 O 0.63201 0.91938 0.12407 0.0
Co145 Co 0.58576 0.92939 0.15651 0.0
O146 O 0.61902 0.94753 0.15376 0.0
C147 C 0.56905 0.90364 0.10789 0.0
C148 C 0.62164 0.84098 0.12322 0.0
C149 C 0.63302 0.94198 0.13474 0.0
O150 O 0.58816 0.88816 0.10854 0.0
O151 O 0.56476 0.9204 0.12533 0.0
O152 O 0.63904 0.88123 0.16468 0.0
O153 O 0.59985 0.89618 0.16369 0.0
Co154 Co 0.6298 0.09672 0.62904 0.0
O155 O 0.59284 0.0919 0.62714 0.0
O156 O 0.61154 0.12984 0.62689 0.0
C157 C 0.63864 0.06615 0.6 0.0
O158 O 0.66887 0.10703 0.62979 0.0
Co159 Co 0.66109 0.0496 0.64889 0.0
O160 O 0.69097 0.07095 0.63904 0.0
C161 C 0.63355 0.08166 0.68582 0.0
C162 C 0.59022 0.11643 0.62603 0.0
C163 C 0.69036 0.09467 0.63314 0.0
O164 O 0.62812 0.09779 0.66788 0.0
O165 O 0.64467 0.06028 0.6817 0.0
O166 O 0.63245 0.08891 0.59212 0.0
O167 O 0.6366 0.06225 0.62425 0.0
Co168 Co 0.41976 0.87854 0.88369 0.0
O169 O 0.42406 0.91552 0.88373 0.0
O170 O 0.38632 0.8964 0.88414 0.0
C171 C 0.45007 0.87228 0.91427 0.0
O172 O 0.40996 0.83938 0.88448 0.0
Co173 Co 0.46733 0.84745 0.86646 0.0
O174 O 0.44626 0.81743 0.87624 0.0
C175 C 0.43597 0.87317 0.82754 0.0
C176 C 0.39949 0.91787 0.88416 0.0
C177 C 0.42246 0.81796 0.88172 0.0
O178 O 0.4194 0.87861 0.84491 0.0
O179 O 0.45746 0.86253 0.83253 0.0
O180 O 0.42677 0.87794 0.92073 0.0
O181 O 0.45448 0.87285 0.88998 0.0
Co182 Co 0.62055 0.89041 0.37133 0.0
O183 O 0.65544 0.90298 0.36638 0.0
O184 O 0.64456 0.87689 0.39745 0.0
C185 C 0.61657 0.88073 0.32911 0.0
O186 O 0.58507 0.87403 0.38155 0.0
Co187 Co 0.57493 0.91419 0.34179 0.0
O188 O 0.55798 0.88096 0.34871 0.0
C189 C 0.59463 0.93838 0.39018 0.0
C190 C 0.66285 0.88943 0.38566 0.0
C191 C 0.56309 0.8703 0.37 0.0
O192 O 0.61218 0.92131 0.39286 0.0
O193 O 0.57894 0.93889 0.37114 0.0
O194 O 0.6264 0.86434 0.34501 0.0
O195 O 0.60959 0.90219 0.33906 0.0
Co196 Co 0.60482 0.12888 0.87943 0.0
O197 O 0.60035 0.09197 0.88041 0.0
O198 O 0.63811 0.11085 0.88233 0.0
C199 C 0.57426 0.13572 0.90933 0.0
O200 O 0.61475 0.168 0.87955 0.0
Co201 Co 0.55756 0.15972 0.86094 0.0
O202 O 0.57852 0.18991 0.87051 0.0
C203 C 0.58891 0.13277 0.82301 0.0
C204 C 0.6248 0.08948 0.88263 0.0
C205 C 0.60231 0.1894 0.8763 0.0
O206 O 0.60556 0.12754 0.84062 0.0
O207 O 0.56756 0.14373 0.82762 0.0
O208 O 0.59761 0.13063 0.91621 0.0
O209 O 0.56989 0.1345 0.88498 0.0
Co210 Co 0.37462 0.11948 0.36948 0.0
O211 O 0.34035 0.10864 0.35963 0.0
O212 O 0.34798 0.1307 0.39448 0.0
C213 C 0.38327 0.13318 0.32917 0.0
O214 O 0.41001 0.13284 0.3842 0.0
Co215 Co 0.42057 0.09391 0.34247 0.0
O216 O 0.43825 0.12607 0.35256 0.0
C217 C 0.39477 0.06765 0.38594 0.0
C218 C 0.33097 0.11938 0.37964 0.0
C219 C 0.43279 0.13574 0.37419 0.0
O220 O 0.37942 0.08657 0.38865 0.0
O221 O 0.41178 0.06659 0.3683 0.0
O222 O 0.37231 0.14825 0.34555 0.0
O223 O 0.38794 0.11035 0.33741 0.0
Co224 Co 0.13708 0.39743 0.15416 0.0
O225 O 0.14441 0.40774 0.18929 0.0
O226 O 0.11292 0.38153 0.17885 0.0
C227 C 0.17867 0.38899 0.14583 0.0
O228 O 0.12511 0.38314 0.11821 0.0
Co229 Co 0.16256 0.4278 0.10952 0.0
O230 O 0.15514 0.39615 0.08998 0.0
C231 C 0.11533 0.44745 0.13432 0.0
C232 C 0.12569 0.39344 0.19704 0.0
C233 C 0.13554 0.38257 0.09551 0.0
O234 O 0.11422 0.42808 0.14957 0.0
O235 O 0.13328 0.45097 0.11795 0.0
O236 O 0.16408 0.37173 0.15643 0.0
O237 O 0.16814 0.41091 0.14184 0.0
Co238 Co 0.1296 0.60307 0.89069 0.0
O239 O 0.13046 0.59724 0.92734 0.0
O240 O 0.12251 0.63482 0.91029 0.0
C241 C 0.10483 0.5683 0.88255 0.0
O242 O 0.12663 0.61421 0.85216 0.0
Co243 Co 0.1532 0.55988 0.85633 0.0
O244 O 0.13908 0.58044 0.828 0.0
C245 C 0.18725 0.59562 0.88474 0.0
C246 C 0.12474 0.62094 0.93101 0.0
C247 C 0.13032 0.60309 0.83003 0.0
O248 O 0.16807 0.60981 0.89102 0.0
O249 O 0.18475 0.5741 0.87312 0.0
O250 O 0.09408 0.58954 0.88943 0.0
O251 O 0.12949 0.56839 0.88301 0.0
Co252 Co 0.90703 0.63012 0.38447 0.0
O253 O 0.91045 0.63059 0.42146 0.0
O254 O 0.87394 0.62255 0.40178 0.0
C255 C 0.94179 0.60507 0.37922 0.0
O256 O 0.8986 0.62796 0.34506 0.0
Co257 Co 0.95218 0.65489 0.35458 0.0
O258 O 0.93427 0.6412 0.32413 0.0
C259 C 0.91364 0.68811 0.37813 0.0
C260 C 0.88649 0.62482 0.42345 0.0
C261 C 0.91138 0.63236 0.32398 0.0
O262 O 0.9004 0.66825 0.38484 0.0
O263 O 0.93549 0.68688 0.36717 0.0
O264 O 0.91949 0.59487 0.38372 0.0
O265 O 0.94268 0.6298 0.3801 0.0
Co266 Co 0.88833 0.41185 0.88494 0.0
O267 O 0.88982 0.41573 0.92185 0.0
O268 O 0.89303 0.3785 0.90245 0.0
C269 C 0.91485 0.44542 0.87779 0.0
O270 O 0.88838 0.4027 0.84565 0.0
Co271 Co 0.86521 0.45819 0.85465 0.0
O272 O 0.87754 0.43902 0.8246 0.0
C273 C 0.83077 0.42254 0.8819 0.0
C274 C 0.89291 0.39135 0.92398 0.0
C275 C 0.88457 0.41565 0.82453 0.0
O276 O 0.84971 0.40745 0.88652 0.0
O277 O 0.83342 0.44454 0.8713 0.0
O278 O 0.92452 0.42315 0.88303 0.0
O279 O 0.89029 0.44679 0.87921 0.0
Co280 Co 0.12449 0.37383 0.3948 0.0
O281 O 0.11284 0.36707 0.3599 0.0
O282 O 0.13749 0.39979 0.37025 0.0
C283 C 0.13524 0.33232 0.40055 0.0
O284 O 0.13968 0.38593 0.4303 0.0
Co285 Co 0.1002 0.34515 0.44093 0.0
O286 O 0.13333 0.35331 0.45767 0.0
C287 C 0.07429 0.39049 0.41785 0.0
C288 C 0.12554 0.38693 0.35217 0.0
C289 C 0.14351 0.37489 0.45241 0.0
O290 O 0.09256 0.394 0.40165 0.0
O291 O 0.07373 0.37203 0.43409 0.0
O292 O 0.1515 0.34831 0.39031 0.0
O293 O 0.11339 0.3418 0.40671 0.0
Co294 Co 0.88792 0.61195 0.11299 0.0
O295 O 0.88666 0.60871 0.07603 0.0
O296 O 0.8927 0.64555 0.09573 0.0
C297 C 0.91404 0.57819 0.11789 0.0
O298 O 0.89071 0.62022 0.15237 0.0
Co299 Co 0.866 0.56483 0.14368 0.0
O300 O 0.87957 0.58385 0.17356 0.0
C301 C 0.83046 0.6028 0.12186 0.0
C302 C 0.89074 0.63301 0.07408 0.0
C303 C 0.88726 0.60715 0.17351 0.0
O304 O 0.8494 0.6168 0.114 0.0
O305 O 0.83311 0.58093 0.13262 0.0
O306 O 0.92392 0.60051 0.11262 0.0
O307 O 0.88939 0.57688 0.11785 0.0
Co308 Co 0.90167 0.37573 0.63039 0.0
O309 O 0.91018 0.37048 0.66649 0.0
O310 O 0.88057 0.397 0.65298 0.0
C311 C 0.90068 0.33348 0.62085 0.0
O312 O 0.88743 0.38495 0.59371 0.0
Co313 Co 0.93982 0.35692 0.58831 0.0
O314 O 0.91288 0.36667 0.56386 0.0
C315 C 0.95115 0.40421 0.61808 0.0
C316 C 0.89276 0.3869 0.6724 0.0
C317 C 0.89329 0.37963 0.56999 0.0
O318 O 0.92885 0.4036 0.62858 0.0
O319 O 0.95931 0.38664 0.60311 0.0
O320 O 0.88068 0.34428 0.63077 0.0
O321 O 0.92077 0.34789 0.61868 0.0
Co322 Co 0.09795 0.63176 0.62226 0.0
O323 O 0.09375 0.63209 0.58532 0.0
O324 O 0.13127 0.62914 0.60432 0.0
C325 C 0.06657 0.60191 0.62797 0.0
O326 O 0.10801 0.63004 0.66118 0.0
Co327 Co 0.05107 0.64848 0.65483 0.0
O328 O 0.07217 0.63745 0.68421 0.0
C329 C 0.08318 0.68789 0.62965 0.0
C330 C 0.11818 0.62946 0.5829 0.0
C331 C 0.09592 0.63206 0.68295 0.0
O332 O 0.09947 0.67073 0.62272 0.0
O333 O 0.06195 0.68248 0.64073 0.0
O334 O 0.08969 0.59491 0.62244 0.0
O335 O 0.0629 0.62631 0.62791 0.0
Co336 Co 0.8728 0.88243 0.62024 0.0
O337 O 0.83702 0.87529 0.61235 0.0
O338 O 0.85109 0.88329 0.6513 0.0
C339 C 0.87769 0.91106 0.58824 0.0
O340 O 0.9102 0.8904 0.63343 0.0
Co341 Co 0.91157 0.86931 0.57571 0.0
O342 O 0.93673 0.88525 0.59938 0.0
C343 C 0.89099 0.82839 0.60957 0.0
C344 C 0.83155 0.87818 0.63622 0.0
C345 C 0.93287 0.89095 0.6228 0.0
O346 O 0.87931 0.84448 0.62407 0.0
O347 O 0.90253 0.8345 0.58881 0.0
O348 O 0.86835 0.91866 0.60991 0.0
O349 O 0.88133 0.88687 0.58615 0.0
Co350 Co 0.63676 0.39813 0.11855 0.0
O351 O 0.63978 0.43493 0.1151 0.0
O352 O 0.61027 0.41632 0.13867 0.0
C353 C 0.67864 0.39243 0.12692 0.0
O354 O 0.6307 0.35886 0.1254 0.0
Co355 Co 0.66803 0.36681 0.07797 0.0
O356 O 0.66161 0.33902 0.10264 0.0
C357 C 0.61705 0.38757 0.06437 0.0
C358 C 0.62081 0.43763 0.13048 0.0
C359 C 0.64348 0.33838 0.11892 0.0
O360 O 0.61393 0.39675 0.08704 0.0
O361 O 0.63746 0.37635 0.05697 0.0
O362 O 0.6632 0.39861 0.14525 0.0
O363 O 0.6689 0.3927 0.10415 0.0
Co364 Co 0.14635 0.12535 0.62262 0.0
O365 O 0.18166 0.13249 0.61312 0.0
O366 O 0.16941 0.12654 0.65287 0.0
C367 C 0.14095 0.09524 0.59192 0.0
O368 O 0.10986 0.1183 0.63805 0.0
Co369 Co 0.10325 0.13404 0.5815 0.0
O370 O 0.08281 0.112 0.60464 0.0
C371 C 0.12399 0.17777 0.61232 0.0
C372 C 0.1882 0.13107 0.63695 0.0
C373 C 0.08736 0.11213 0.62864 0.0
O374 O 0.13934 0.16313 0.62489 0.0
O375 O 0.10929 0.16999 0.59404 0.0
O376 O 0.1511 0.08892 0.61376 0.0
O377 O 0.13598 0.11918 0.589 0.0
Co378 Co 0.36555 0.63017 0.11808 0.0
O379 O 0.36419 0.59341 0.11324 0.0
O380 O 0.3949 0.61287 0.13503 0.0
C381 C 0.32401 0.63293 0.12899 0.0
O382 O 0.37048 0.66931 0.1261 0.0
Co383 Co 0.32954 0.66157 0.08123 0.0
O384 O 0.33782 0.68925 0.10566 0.0
C385 C 0.38139 0.64618 0.06423 0.0
C386 C 0.38477 0.59131 0.12679 0.0
C387 C 0.35724 0.68979 0.12062 0.0
O388 O 0.38594 0.6346 0.08553 0.0
O389 O 0.36005 0.65691 0.05873 0.0
O390 O 0.34098 0.62692 0.1462 0.0
O391 O 0.33223 0.63442 0.10582 0.0
Co392 Co 0.89074 0.14081 0.38916 0.0
O393 O 0.92753 0.14377 0.39395 0.0
O394 O 0.90957 0.11233 0.37235 0.0
C395 C 0.88609 0.1818 0.3766 0.0
O396 O 0.85148 0.13455 0.38159 0.0
Co397 Co 0.85916 0.17728 0.42533 0.0
O398 O 0.83129 0.16719 0.40164 0.0
C399 C 0.87628 0.12635 0.44375 0.0
C400 C 0.93072 0.12349 0.3804 0.0
C401 C 0.83081 0.1475 0.38713 0.0
O402 O 0.88738 0.12112 0.4224 0.0
O403 O 0.86544 0.1477 0.44867 0.0
O404 O 0.89262 0.16453 0.36009 0.0
O405 O 0.88547 0.17435 0.40011 0.0
Co406 Co 0.39484 0.36077 0.89036 0.0
O407 O 0.38748 0.32502 0.89755 0.0
O408 O 0.39975 0.33885 0.85978 0.0
C409 C 0.41913 0.36664 0.92583 0.0
O410 O 0.40365 0.39816 0.87801 0.0
Co411 Co 0.37473 0.39964 0.93195 0.0
O412 O 0.39301 0.425 0.91057 0.0
C413 C 0.33902 0.37558 0.89467 0.0
C414 C 0.39301 0.31942 0.87419 0.0
C415 C 0.40217 0.42096 0.88834 0.0
O416 O 0.3575 0.366 0.88165 0.0
O417 O 0.34188 0.38736 0.91604 0.0
O418 O 0.42957 0.35725 0.9054 0.0
O419 O 0.39475 0.36986 0.92465 0.0
Co420 Co 0.1057 0.87728 0.40375 0.0
O421 O 0.06879 0.87863 0.40771 0.0
O422 O 0.08938 0.89952 0.37758 0.0
C423 C 0.10661 0.8342 0.40596 0.0
O424 O 0.14507 0.87824 0.39519 0.0
Co425 Co 0.13678 0.85285 0.44898 0.0
O426 O 0.16441 0.85176 0.42351 0.0
C427 C 0.11943 0.90699 0.45196 0.0
C428 C 0.0674 0.89329 0.38795 0.0
C429 C 0.1652 0.86597 0.40367 0.0
O430 O 0.10985 0.90645 0.42914 0.0
O431 O 0.12935 0.88755 0.46311 0.0
O432 O 0.10225 0.84548 0.38426 0.0
O433 O 0.10836 0.84903 0.42568 0.0
Co434 Co 0.62772 0.64666 0.88025 0.0
O435 O 0.63429 0.68238 0.88809 0.0
O436 O 0.61931 0.66915 0.85086 0.0
C437 C 0.6068 0.63795 0.91682 0.0
O438 O 0.61928 0.60929 0.86787 0.0
Co439 Co 0.65501 0.60909 0.91881 0.0
O440 O 0.63711 0.58286 0.8976 0.0
C441 C 0.68479 0.63859 0.88148 0.0
C442 C 0.62666 0.68838 0.86537 0.0
C443 C 0.62417 0.58655 0.8771 0.0
O444 O 0.66434 0.64326 0.86846 0.0
O445 O 0.68467 0.62848 0.90382 0.0
O446 O 0.59426 0.64798 0.89781 0.0
O447 O 0.6312 0.63652 0.91394 0.0
Co448 Co 0.61069 0.88228 0.87994 0.0
O449 O 0.60082 0.8468 0.87409 0.0
O450 O 0.64065 0.86073 0.87195 0.0
C451 C 0.58661 0.88504 0.91592 0.0
O452 O 0.6263 0.91923 0.88446 0.0
Co453 Co 0.56706 0.92274 0.87985 0.0
O454 O 0.59372 0.94536 0.89512 0.0
C455 C 0.58675 0.90193 0.83085 0.0
C456 C 0.62455 0.8414 0.87021 0.0
C457 C 0.61751 0.94149 0.89145 0.0
O458 O 0.60464 0.8899 0.84276 0.0
O459 O 0.56901 0.91429 0.84231 0.0
O460 O 0.60983 0.8763 0.91716 0.0
O461 O 0.57873 0.89059 0.89317 0.0
Co462 Co 0.61925 0.11913 0.37301 0.0
O463 O 0.58216 0.11547 0.37186 0.0
O464 O 0.6021 0.14251 0.39747 0.0
C465 C 0.62333 0.12204 0.33016 0.0
O466 O 0.65883 0.12678 0.37718 0.0
Co467 Co 0.65027 0.07578 0.34512 0.0
O468 O 0.67873 0.10042 0.34925 0.0
C469 C 0.63051 0.06775 0.39788 0.0
C470 C 0.58029 0.1332 0.38889 0.0
C471 C 0.67941 0.11867 0.36548 0.0
O472 O 0.62116 0.09049 0.39912 0.0
O473 O 0.64122 0.05847 0.37794 0.0
O474 O 0.61796 0.14224 0.3435 0.0
O475 O 0.62364 0.10074 0.34263 0.0
Co476 Co 0.41066 0.12568 0.88232 0.0
O477 O 0.41922 0.16141 0.87628 0.0
O478 O 0.37964 0.14668 0.87662 0.0
C479 C 0.43726 0.12297 0.91679 0.0
O480 O 0.39666 0.08824 0.88817 0.0
Co481 Co 0.45673 0.08788 0.87767 0.0
O482 O 0.43128 0.06213 0.88908 0.0
C483 C 0.4338 0.11112 0.8315 0.0
C484 C 0.39516 0.16638 0.87414 0.0
C485 C 0.40719 0.06573 0.89072 0.0
O486 O 0.41443 0.11878 0.84456 0.0
O487 O 0.45372 0.1011 0.84176 0.0
O488 O 0.41408 0.13137 0.91957 0.0
O489 O 0.4436 0.11826 0.89348 0.0
Co490 Co 0.37567 0.87656 0.36961 0.0
O491 O 0.41225 0.87799 0.36369 0.0
O492 O 0.39489 0.85433 0.39385 0.0
C493 C 0.36567 0.87145 0.32794 0.0
O494 O 0.33664 0.87161 0.37884 0.0
Co495 Co 0.3439 0.92036 0.34315 0.0
O496 O 0.3151 0.89727 0.35129 0.0
C497 C 0.37372 0.93067 0.39065 0.0
C498 C 0.4157 0.862 0.38211 0.0
C499 C 0.31532 0.87987 0.36841 0.0
O500 O 0.37934 0.90688 0.39347 0.0
O501 O 0.36148 0.93962 0.37134 0.0
O502 O 0.37172 0.85161 0.34162 0.0
O503 O 0.36823 0.89332 0.3391 0.0
Co504 Co 0.62151 0.1273 0.13635 0.0
O505 O 0.61878 0.09034 0.13822 0.0
O506 O 0.6467 0.11025 0.11377 0.0
C507 C 0.62179 0.13254 0.17914 0.0
O508 O 0.62832 0.1668 0.13181 0.0
Co509 Co 0.57574 0.15775 0.16025 0.0
O510 O 0.60044 0.18637 0.15837 0.0
C511 C 0.57136 0.13572 0.1078 0.0
C512 C 0.63744 0.08851 0.12232 0.0
C513 C 0.61943 0.18726 0.14314 0.0
O514 O 0.59453 0.12743 0.10836 0.0
O515 O 0.5605 0.14677 0.12675 0.0
O516 O 0.6429 0.12754 0.1672 0.0
O517 O 0.60119 0.1319 0.16537 0.0
Co518 Co 0.38184 0.1097 0.62993 0.0
O519 O 0.34612 0.10308 0.63797 0.0
O520 O 0.36133 0.14154 0.62976 0.0
C521 C 0.38356 0.07736 0.60099 0.0
O522 O 0.41945 0.12169 0.62113 0.0
Co523 Co 0.41938 0.06457 0.64215 0.0
O524 O 0.44483 0.08673 0.62502 0.0
C525 C 0.40136 0.09866 0.68364 0.0
C526 C 0.34147 0.12713 0.6354 0.0
C527 C 0.44167 0.11034 0.61971 0.0
O528 O 0.38974 0.11332 0.66761 0.0
O529 O 0.41245 0.07777 0.6774 0.0
O530 O 0.37528 0.09969 0.59406 0.0
O531 O 0.3885 0.07501 0.62506 0.0
Co532 Co 0.38532 0.90045 0.13817 0.0
O533 O 0.38802 0.93723 0.14227 0.0
O534 O 0.36143 0.91884 0.11494 0.0
C535 C 0.38293 0.89211 0.1804 0.0
O536 O 0.37862 0.86124 0.13134 0.0
Co537 Co 0.43056 0.86915 0.16273 0.0
O538 O 0.40579 0.84081 0.15834 0.0
C539 C 0.43671 0.89325 0.11169 0.0
C540 C 0.37034 0.94004 0.12521 0.0
C541 C 0.38715 0.84044 0.14241 0.0
O542 O 0.41356 0.90161 0.1117 0.0
O543 O 0.44699 0.88133 0.13051 0.0
O544 O 0.36248 0.89839 0.16768 0.0
O545 O 0.40416 0.89397 0.16796 0.0
Co546 Co 0.63725 0.89892 0.62949 0.0
O547 O 0.67306 0.90711 0.63637 0.0
O548 O 0.65852 0.86774 0.63154 0.0
C549 C 0.63288 0.92858 0.59829 0.0
O550 O 0.59995 0.88507 0.62236 0.0
Co551 Co 0.59842 0.944 0.63888 0.0
O552 O 0.57345 0.91936 0.62402 0.0
C553 C 0.61854 0.9137 0.6825 0.0
C554 C 0.67818 0.88299 0.63572 0.0
C555 C 0.57735 0.89553 0.62044 0.0
O556 O 0.63022 0.8981 0.66747 0.0
O557 O 0.60708 0.93393 0.67481 0.0
O558 O 0.64225 0.90633 0.59267 0.0
O559 O 0.62894 0.93266 0.62222 0.0
Co560 Co 0.88795 0.62596 0.86569 0.0
O561 O 0.88104 0.61922 0.82992 0.0
O562 O 0.89511 0.65646 0.84402 0.0
C563 C 0.91048 0.58939 0.87115 0.0
O564 O 0.8964 0.63737 0.90336 0.0
Co565 Co 0.86287 0.58569 0.90183 0.0
O566 O 0.88002 0.60616 0.92902 0.0
C567 C 0.83109 0.6231 0.87505 0.0
C568 C 0.88784 0.64232 0.82449 0.0
C569 C 0.89199 0.62737 0.92588 0.0
O570 O 0.85125 0.63646 0.87003 0.0
O571 O 0.83174 0.60063 0.88483 0.0
O572 O 0.92173 0.61003 0.86285 0.0
O573 O 0.88596 0.59111 0.87358 0.0
Co574 Co 0.86809 0.38979 0.11318 0.0
O575 O 0.8668 0.39439 0.07646 0.0
O576 O 0.89818 0.37439 0.09605 0.0
C577 C 0.82684 0.37695 0.11574 0.0
O578 O 0.87288 0.38244 0.15244 0.0
Co579 Co 0.82996 0.42549 0.14349 0.0
O580 O 0.84085 0.40371 0.17232 0.0
C581 C 0.88199 0.44426 0.12945 0.0
C582 C 0.88787 0.38199 0.07446 0.0
C583 C 0.86019 0.38894 0.17299 0.0
O584 O 0.88748 0.42325 0.11785 0.0
O585 O 0.86017 0.44894 0.13948 0.0
O586 O 0.84426 0.36039 0.10987 0.0
O587 O 0.83453 0.4004 0.11718 0.0
Co588 Co 0.13421 0.36912 0.63783 0.0
O589 O 0.1321 0.36761 0.6008 0.0
O590 O 0.15783 0.39424 0.62122 0.0
C591 C 0.13756 0.32621 0.64185 0.0
O592 O 0.13998 0.37353 0.67752 0.0
Co593 Co 0.08991 0.3411 0.6668 0.0
O594 O 0.11347 0.34452 0.69616 0.0
C595 C 0.08193 0.39322 0.64585 0.0
C596 C 0.14931 0.38534 0.59928 0.0
C597 C 0.13142 0.36123 0.69766 0.0
O598 O 0.10525 0.39458 0.63797 0.0
O599 O 0.07215 0.37333 0.65655 0.0
O600 O 0.15785 0.34028 0.63811 0.0
O601 O 0.11603 0.3382 0.6411 0.0
Co602 Co 0.12324 0.61411 0.14018 0.0
O603 O 0.12509 0.60627 0.17634 0.0
O604 O 0.12198 0.64554 0.16138 0.0
C605 C 0.09415 0.58324 0.13085 0.0
O606 O 0.12152 0.62721 0.10231 0.0
Co607 Co 0.14134 0.56934 0.10429 0.0
O608 O 0.12789 0.59231 0.07712 0.0
C609 C 0.1782 0.59812 0.13623 0.0
C610 C 0.12422 0.63046 0.18128 0.0
C611 C 0.12259 0.616 0.07994 0.0
O612 O 0.16168 0.61594 0.13941 0.0
O613 O 0.17294 0.57655 0.12555 0.0
O614 O 0.08617 0.60516 0.1394 0.0
O615 O 0.11858 0.5804 0.13079 0.0
Co616 Co 0.90218 0.62991 0.63059 0.0
O617 O 0.91213 0.63502 0.66605 0.0
O618 O 0.87203 0.63511 0.65278 0.0
C619 C 0.92845 0.59597 0.62552 0.0
O620 O 0.88658 0.62557 0.59367 0.0
Co621 Co 0.94576 0.63564 0.59003 0.0
O622 O 0.91994 0.61999 0.5667 0.0
C623 C 0.92427 0.68134 0.61552 0.0
C624 C 0.88828 0.63743 0.67188 0.0
C625 C 0.89591 0.6206 0.57105 0.0
O626 O 0.90583 0.66774 0.62478 0.0
O627 O 0.94315 0.67176 0.60324 0.0
O628 O 0.90564 0.59254 0.63491 0.0
O629 O 0.9347 0.61948 0.62116 0.0
Co630 Co 0.14944 0.37912 0.90954 0.0
O631 O 0.15252 0.38181 0.9464 0.0
O632 O 0.1214 0.36026 0.92753 0.0
C633 C 0.19091 0.36891 0.90346 0.0
O634 O 0.14318 0.37359 0.87008 0.0
Co635 Co 0.18361 0.4193 0.87984 0.0
O636 O 0.17497 0.39641 0.85091 0.0
C637 C 0.13286 0.43416 0.89985 0.0
C638 C 0.13233 0.36772 0.94895 0.0
C639 C 0.15601 0.38078 0.84973 0.0
O640 O 0.12845 0.41149 0.90855 0.0
O641 O 0.15388 0.44117 0.88923 0.0
O642 O 0.17435 0.35117 0.90935 0.0
O643 O 0.18246 0.39202 0.90444 0.0
Co644 Co 0.1119 0.62989 0.37554 0.0
O645 O 0.1026 0.63455 0.33989 0.0
O646 O 0.1425 0.63167 0.35331 0.0
C647 C 0.08245 0.59846 0.38134 0.0
O648 O 0.12681 0.62566 0.41274 0.0
Co649 Co 0.06942 0.63956 0.41639 0.0
O650 O 0.09266 0.61958 0.43855 0.0
C651 C 0.09768 0.68323 0.39296 0.0
C652 C 0.12658 0.63449 0.33406 0.0
C653 C 0.1168 0.62021 0.43498 0.0
O654 O 0.11217 0.66802 0.38032 0.0
O655 O 0.07916 0.67574 0.40728 0.0
O656 O 0.10486 0.59291 0.37227 0.0
O657 O 0.07837 0.62248 0.3851 0.0
Co658 Co 0.8847 0.37013 0.38407 0.0
O659 O 0.88755 0.36668 0.42086 0.0
O660 O 0.86995 0.39999 0.40232 0.0
C661 C 0.8705 0.32971 0.37825 0.0
O662 O 0.8791 0.37716 0.3448 0.0
Co663 Co 0.92042 0.33294 0.35299 0.0
O664 O 0.89852 0.34424 0.32445 0.0
C665 C 0.94106 0.382 0.37328 0.0
C666 C 0.87625 0.3883 0.42359 0.0
C667 C 0.88488 0.36439 0.32402 0.0
O668 O 0.91924 0.38801 0.38285 0.0
O669 O 0.94551 0.36073 0.36195 0.0
O670 O 0.85433 0.34744 0.38435 0.0
O671 O 0.89429 0.33653 0.37846 0.0
H672 H 0.10384 0.29694 0.42158 0.0
H673 H 0.17429 0.30479 0.37902 0.0
H674 H 0.1766 0.258 0.37478 0.0
H675 H 0.15806 0.21483 0.38294 0.0
H676 H 0.08827 0.2079 0.42665 0.0
H677 H 0.08578 0.25454 0.43004 0.0
C678 C 0.11984 0.28846 0.41152 0.0
C679 C 0.13889 0.30427 0.40066 0.0
C680 C 0.12083 0.26176 0.40891 0.0
C681 C 0.15949 0.29298 0.38773 0.0
C682 C 0.16068 0.26627 0.38509 0.0
C683 C 0.14211 0.22365 0.39278 0.0
C684 C 0.12315 0.20812 0.40423 0.0
C685 C 0.14128 0.25049 0.39537 0.0
C686 C 0.10291 0.21958 0.41751 0.0
C687 C 0.1016 0.24619 0.41961 0.0
H688 H 0.29359 0.63496 0.92877 0.0
H689 H 0.32146 0.58168 0.87208 0.0
H690 H 0.27734 0.57255 0.85831 0.0
H691 H 0.23117 0.57835 0.86359 0.0
H692 H 0.20308 0.63163 0.92013 0.0
H693 H 0.24732 0.64235 0.93262 0.0
C694 C 0.29007 0.6213 0.91341 0.0
C695 C 0.31083 0.60878 0.90166 0.0
C696 C 0.26473 0.61621 0.90557 0.0
C697 C 0.30588 0.59152 0.88149 0.0
C698 C 0.28067 0.58627 0.87364 0.0
C699 C 0.23463 0.59235 0.87866 0.0
C700 C 0.21379 0.60398 0.89113 0.0
C701 C 0.25999 0.5983 0.88575 0.0
C702 C 0.21873 0.6224 0.91025 0.0
C703 C 0.24401 0.62843 0.91746 0.0
H704 H 0.86797 0.79255 0.41683 0.0
H705 H 0.89316 0.81726 0.34213 0.0
H706 H 0.9089 0.77398 0.33304 0.0
H707 H 0.91619 0.72943 0.34696 0.0
H708 H 0.88745 0.70398 0.42017 0.0
H709 H 0.87215 0.74731 0.42932 0.0
C710 C 0.8769 0.78837 0.39856 0.0
C711 C 0.87972 0.80791 0.38022 0.0
C712 C 0.88517 0.76342 0.39328 0.0
C713 C 0.89085 0.80237 0.35645 0.0
C714 C 0.89987 0.77772 0.35132 0.0
C715 C 0.90654 0.73344 0.36489 0.0
C716 C 0.90315 0.71377 0.38303 0.0
C717 C 0.89725 0.75816 0.36967 0.0
C718 C 0.89023 0.71892 0.40598 0.0
C719 C 0.88159 0.74365 0.41122 0.0
H720 H 0.78587 0.44088 0.8631 0.0
H721 H 0.81659 0.38545 0.91632 0.0
H722 H 0.77302 0.37303 0.92883 0.0
H723 H 0.72643 0.37848 0.92516 0.0
H724 H 0.69572 0.43301 0.87102 0.0
H725 H 0.73928 0.44523 0.85832 0.0
C726 C 0.78308 0.4261 0.87748 0.0
C727 C 0.80448 0.41424 0.8889 0.0
C728 C 0.75805 0.41893 0.88441 0.0
C729 C 0.80047 0.39486 0.90721 0.0
C730 C 0.77558 0.38781 0.91442 0.0
C731 C 0.72923 0.39311 0.91063 0.0
C732 C 0.70785 0.40498 0.8992 0.0
C733 C 0.75426 0.39983 0.90325 0.0
C734 C 0.71184 0.42358 0.88011 0.0
C735 C 0.73673 0.43061 0.87288 0.0
H736 H 0.11568 0.70939 0.59448 0.0
H737 H 0.0636 0.72847 0.65557 0.0
H738 H 0.07191 0.77399 0.64882 0.0
H739 H 0.09362 0.80868 0.62545 0.0
H740 H 0.14461 0.78988 0.56333 0.0
H741 H 0.13697 0.74428 0.57058 0.0
C742 C 0.10628 0.72352 0.60638 0.0
C743 C 0.08907 0.71546 0.62547 0.0
C744 C 0.11083 0.74985 0.60218 0.0
C745 C 0.07683 0.73407 0.64059 0.0
C746 C 0.08159 0.76018 0.6368 0.0
C747 C 0.10309 0.79463 0.61352 0.0
C748 C 0.11965 0.80281 0.59391 0.0
C749 C 0.09847 0.76832 0.6176 0.0
C750 C 0.13162 0.78424 0.57852 0.0
C751 C 0.12735 0.75807 0.58268 0.0
H752 H 0.72079 0.64191 0.0905 0.0
H753 H 0.70286 0.61395 0.16617 0.0
H754 H 0.74793 0.60196 0.17268 0.0
H755 H 0.79187 0.59799 0.15586 0.0
H756 H 0.81023 0.62907 0.08146 0.0
H757 H 0.76537 0.64163 0.07537 0.0
C758 C 0.72683 0.63324 0.10845 0.0
C759 C 0.70869 0.62843 0.12775 0.0
C760 C 0.7527 0.62706 0.11218 0.0
C761 C 0.71663 0.61772 0.1511 0.0
C762 C 0.7423 0.61084 0.15475 0.0
C763 C 0.786 0.6076 0.13836 0.0
C764 C 0.80409 0.61234 0.11894 0.0
C765 C 0.7604 0.61518 0.13528 0.0
C766 C 0.79653 0.62523 0.09658 0.0
C767 C 0.77093 0.6323 0.09309 0.0
H768 H 0.91456 0.2216 0.57863 0.0
H769 H 0.88431 0.20234 0.65304 0.0
H770 H 0.88184 0.24809 0.66388 0.0
H771 H 0.88586 0.29372 0.65082 0.0
H772 H 0.91874 0.31225 0.57739 0.0
H773 H 0.92217 0.26656 0.56717 0.0
C774 C 0.90779 0.22744 0.59738 0.0
C775 C 0.89954 0.20874 0.615 0.0
C776 C 0.90638 0.25359 0.60334 0.0
C777 C 0.891 0.21644 0.63929 0.0
C778 C 0.88929 0.24256 0.64533 0.0
C779 C 0.89356 0.2876 0.63254 0.0
C780 C 0.9015 0.30606 0.61454 0.0
C781 C 0.89637 0.26131 0.62726 0.0
C782 C 0.91221 0.2982 0.59126 0.0
C783 C 0.91429 0.27216 0.58552 0.0
H784 H 0.29666 0.36334 0.14506 0.0
H785 H 0.298 0.4289 0.0947 0.0
H786 H 0.25146 0.43336 0.09906 0.0
H787 H 0.21051 0.41841 0.11711 0.0
H788 H 0.20875 0.35104 0.16513 0.0
H789 H 0.25534 0.34713 0.16142 0.0
C790 C 0.28672 0.37874 0.13529 0.0
C791 C 0.30059 0.39602 0.11991 0.0
C792 C 0.25994 0.38059 0.13718 0.0
C793 C 0.28759 0.41552 0.10679 0.0
C794 C 0.26104 0.418 0.1092 0.0
C795 C 0.22032 0.40279 0.12662 0.0
C796 C 0.20629 0.38509 0.14144 0.0
C797 C 0.24702 0.40057 0.12425 0.0
C798 C 0.21916 0.36483 0.15352 0.0
C799 C 0.2458 0.36269 0.15156 0.0
H800 H 0.36743 0.16543 0.21353 0.0
H801 H 0.41507 0.09927 0.20213 0.0
H802 H 0.41807 0.09285 0.24848 0.0
H803 H 0.40713 0.10601 0.2922 0.0
H804 H 0.36146 0.17355 0.30404 0.0
H805 H 0.35824 0.1799 0.25765 0.0
C806 C 0.37818 0.14946 0.22128 0.0
C807 C 0.39065 0.13256 0.20455 0.0
C808 C 0.38057 0.14644 0.24799 0.0
C809 C 0.40511 0.11234 0.21471 0.0
C810 C 0.40695 0.10876 0.24118 0.0
C811 C 0.3967 0.12227 0.28463 0.0
C812 C 0.38451 0.13923 0.30151 0.0
C813 C 0.39488 0.12576 0.258 0.0
C814 C 0.37114 0.16028 0.29144 0.0
C815 C 0.3691 0.1638 0.26491 0.0
H816 H 0.42186 0.88576 0.70765 0.0
H817 H 0.36435 0.93903 0.73307 0.0
H818 H 0.37449 0.92925 0.77767 0.0
H819 H 0.39969 0.90581 0.80956 0.0
H820 H 0.4584 0.85371 0.78449 0.0
H821 H 0.44781 0.86287 0.73977 0.0
C822 C 0.41147 0.89511 0.72296 0.0
C823 C 0.39234 0.91303 0.717 0.0
C824 C 0.41764 0.88969 0.74867 0.0
C825 C 0.37926 0.92523 0.73708 0.0
C826 C 0.38499 0.91963 0.76263 0.0
C827 C 0.41013 0.89639 0.79433 0.0
C828 C 0.42973 0.87904 0.80042 0.0
C829 C 0.40416 0.90193 0.76865 0.0
C830 C 0.44326 0.86723 0.78039 0.0
C831 C 0.43718 0.87239 0.75478 0.0
H832 H 0.64142 0.86002 0.21244 0.0
H833 H 0.59682 0.9288 0.20412 0.0
H834 H 0.59083 0.93082 0.25052 0.0
H835 H 0.59728 0.91252 0.29315 0.0
H836 H 0.64026 0.84272 0.302 0.0
H837 H 0.64733 0.84116 0.25561 0.0
C838 C 0.63082 0.87566 0.22094 0.0
C839 C 0.61991 0.89449 0.20508 0.0
C840 C 0.62667 0.87616 0.24757 0.0
C841 C 0.60559 0.91428 0.21608 0.0
C842 C 0.60201 0.91533 0.24254 0.0
C843 C 0.60804 0.89684 0.28494 0.0
C844 C 0.6182 0.87775 0.30098 0.0
C845 C 0.61217 0.8962 0.25841 0.0
C846 C 0.63207 0.85755 0.29003 0.0
C847 C 0.63632 0.85678 0.26355 0.0
H848 H 0.62261 0.09734 0.80542 0.0
H849 H 0.5678 0.15355 0.77986 0.0
H850 H 0.5768 0.14296 0.73525 0.0
H851 H 0.60023 0.11771 0.70332 0.0
H852 H 0.65383 0.06039 0.7291 0.0
H853 H 0.64523 0.07142 0.77359 0.0
C854 C 0.61273 0.10735 0.79009 0.0
C855 C 0.59465 0.12625 0.79601 0.0
C856 C 0.6177 0.10094 0.76442 0.0
C857 C 0.58177 0.13883 0.77588 0.0
C858 C 0.58692 0.13284 0.75032 0.0
C859 C 0.61005 0.10767 0.71867 0.0
C860 C 0.62767 0.0883 0.71279 0.0
C861 C 0.60484 0.11391 0.74435 0.0
C862 C 0.64006 0.07532 0.73298 0.0
C863 C 0.63523 0.08165 0.7585 0.0
H864 H 0.93337 0.80073 0.60621 0.0
H865 H 0.85464 0.79635 0.63099 0.0
H866 H 0.85879 0.7498 0.63757 0.0
H867 H 0.88376 0.71016 0.63137 0.0
H868 H 0.96229 0.71594 0.60523 0.0
H869 H 0.95925 0.76241 0.60417 0.0
C870 C 0.91715 0.78958 0.61324 0.0
C871 C 0.8936 0.80158 0.61763 0.0
C872 C 0.91962 0.76319 0.6165 0.0
C873 C 0.87289 0.78728 0.62736 0.0
C874 C 0.87526 0.76076 0.63095 0.0
C875 C 0.9003 0.7216 0.62573 0.0
C876 C 0.92307 0.70953 0.6179 0.0
C877 C 0.89835 0.74842 0.62482 0.0
C878 C 0.94439 0.72465 0.61091 0.0
C879 C 0.94272 0.75125 0.61032 0.0
H880 H 0.7956 0.39388 0.15245 0.0
H881 H 0.7977 0.34606 0.08507 0.0
H882 H 0.7506 0.34467 0.08366 0.0
H883 H 0.7096 0.36275 0.0981 0.0
H884 H 0.70797 0.40924 0.16661 0.0
H885 H 0.75445 0.40534 0.17135 0.0
C886 C 0.7857 0.38263 0.13789 0.0
C887 C 0.79973 0.37036 0.11872 0.0
C888 C 0.75891 0.38203 0.13724 0.0
C889 C 0.78699 0.35557 0.10003 0.0
C890 C 0.76018 0.35501 0.09909 0.0
C891 C 0.71942 0.37166 0.11426 0.0
C892 C 0.7057 0.3867 0.13169 0.0
C893 C 0.74602 0.36907 0.11701 0.0
C894 C 0.71835 0.39776 0.15286 0.0
C895 C 0.74486 0.39559 0.15555 0.0
H896 H 0.16183 0.20867 0.63179 0.0
H897 H 0.08178 0.20744 0.60974 0.0
H898 H 0.07827 0.25283 0.6202 0.0
H899 H 0.09848 0.29336 0.63247 0.0
H900 H 0.17928 0.2962 0.65104 0.0
H901 H 0.18194 0.2496 0.64554 0.0
C902 C 0.14363 0.21838 0.6295 0.0
C903 C 0.12218 0.20491 0.6198 0.0
C904 C 0.14188 0.24469 0.63495 0.0
C905 C 0.09867 0.21759 0.61681 0.0
C906 C 0.09659 0.24348 0.6229 0.0
C907 C 0.11658 0.28373 0.63572 0.0
C908 C 0.13864 0.29804 0.64213 0.0
C909 C 0.11815 0.25729 0.63155 0.0
C910 C 0.16204 0.28544 0.64605 0.0
C911 C 0.16359 0.25887 0.6428 0.0
H912 H 0.20469 0.64091 0.12476 0.0
H913 H 0.21155 0.56708 0.1612 0.0
H914 H 0.25788 0.574 0.1667 0.0
H915 H 0.2968 0.59856 0.15586 0.0
H916 H 0.29027 0.66885 0.113 0.0
H917 H 0.24342 0.6663 0.11558 0.0
C918 C 0.21635 0.62665 0.13438 0.0
C919 C 0.20507 0.60361 0.14265 0.0
C920 C 0.24297 0.63018 0.13616 0.0
C921 C 0.22013 0.58493 0.15467 0.0
C922 C 0.2465 0.58888 0.15778 0.0
C923 C 0.285 0.61358 0.14773 0.0
C924 C 0.29661 0.63397 0.13451 0.0
C925 C 0.25821 0.61107 0.14787 0.0
C926 C 0.28148 0.6531 0.12338 0.0
C927 C 0.25478 0.65156 0.12474 0.0
H928 H 0.85327 0.21423 0.3996 0.0
H929 H 0.90657 0.20831 0.33693 0.0
H930 H 0.90307 0.25437 0.32889 0.0
H931 H 0.89005 0.2967 0.34431 0.0
H932 H 0.83566 0.30263 0.40595 0.0
H933 H 0.83363 0.25577 0.40939 0.0
C934 C 0.86372 0.22298 0.38391 0.0
C935 C 0.88057 0.20826 0.3692 0.0
C936 C 0.86135 0.24927 0.37926 0.0
C937 C 0.89367 0.21951 0.34859 0.0
C938 C 0.89171 0.24577 0.34404 0.0
C939 C 0.87719 0.28764 0.35794 0.0
C940 C 0.86329 0.30274 0.3751 0.0
C941 C 0.87635 0.26091 0.35988 0.0
C942 C 0.84645 0.29112 0.39256 0.0
C943 C 0.84554 0.26443 0.3947 0.0
H944 H 0.22471 0.40035 0.87973 0.0
H945 H 0.21674 0.32452 0.91199 0.0
H946 H 0.26282 0.31757 0.90693 0.0
H947 H 0.30601 0.3361 0.90007 0.0
H948 H 0.31365 0.41251 0.86952 0.0
H949 H 0.26693 0.41608 0.86639 0.0
C950 C 0.23299 0.38217 0.88527 0.0
C951 C 0.21761 0.3632 0.89673 0.0
C952 C 0.25939 0.37843 0.88247 0.0
C953 C 0.22839 0.33952 0.90339 0.0
C954 C 0.25469 0.33554 0.90053 0.0
C955 C 0.2973 0.35302 0.89175 0.0
C956 C 0.31284 0.37394 0.88477 0.0
C957 C 0.2705 0.35524 0.89097 0.0
C958 C 0.30175 0.39612 0.87459 0.0
C959 C 0.27513 0.39826 0.87313 0.0
H960 H 0.11493 0.79998 0.36796 0.0
H961 H 0.10047 0.80595 0.44918 0.0
H962 H 0.09706 0.75931 0.45237 0.0
H963 H 0.09533 0.71722 0.43154 0.0
H964 H 0.11193 0.71065 0.35088 0.0
H965 H 0.11748 0.75732 0.3479 0.0
C966 C 0.11124 0.79099 0.38636 0.0
C967 C 0.10761 0.8062 0.40823 0.0
C968 C 0.10953 0.76422 0.38808 0.0
C969 C 0.10325 0.79451 0.43208 0.0
C970 C 0.10119 0.7679 0.4339 0.0
C971 C 0.10022 0.72609 0.41335 0.0
C972 C 0.10281 0.71086 0.39136 0.0
C973 C 0.10378 0.75266 0.41194 0.0
C974 C 0.10974 0.72223 0.36798 0.0
C975 C 0.11285 0.74881 0.36629 0.0
H976 H 0.79204 0.60785 0.84435 0.0
H977 H 0.8144 0.66469 0.90046 0.0
H978 H 0.7698 0.67866 0.90402 0.0
H979 H 0.724 0.66867 0.89702 0.0
H980 H 0.70161 0.6126 0.84021 0.0
H981 H 0.74675 0.60475 0.83027 0.0
C982 C 0.78708 0.62377 0.85675 0.0
C983 C 0.806 0.63511 0.8724 0.0
C984 C 0.76153 0.63171 0.85854 0.0
C985 C 0.79984 0.6558 0.88833 0.0
C986 C 0.77443 0.66367 0.89044 0.0
C987 C 0.72913 0.65557 0.88173 0.0
C988 C 0.70989 0.64113 0.86935 0.0
C989 C 0.75501 0.65098 0.87646 0.0
C990 C 0.71635 0.62404 0.8497 0.0
C991 C 0.7421 0.61932 0.8443 0.0
H992 H 0.62328 0.8823 0.79918 0.0
H993 H 0.55233 0.92478 0.79882 0.0
H994 H 0.55609 0.93148 0.7529 0.0
H995 H 0.58029 0.92752 0.71358 0.0
H996 H 0.65094 0.885 0.71257 0.0
H997 H 0.64644 0.876 0.75856 0.0
C998 C 0.6085 0.89282 0.78904 0.0
C999 C 0.5877 0.90326 0.80257 0.0
C1000 C 0.61082 0.89681 0.76254 0.0
C1001 C 0.56866 0.91668 0.78903 0.0
C1002 C 0.57079 0.92061 0.76275 0.0
C1003 C 0.59484 0.91639 0.7234 0.0
C1004 C 0.61618 0.90735 0.70991 0.0
C1005 C 0.592 0.9112 0.74948 0.0
C1006 C 0.63446 0.89233 0.72269 0.0
C1007 C 0.63187 0.88721 0.74892 0.0
H1008 H 0.65105 0.10878 0.21399 0.0
H1009 H 0.59033 0.16385 0.20612 0.0
H1010 H 0.58747 0.16758 0.25286 0.0
H1011 H 0.60045 0.15288 0.29582 0.0
H1012 H 0.65667 0.09311 0.30301 0.0
H1013 H 0.66334 0.09348 0.25668 0.0
C1014 C 0.63746 0.12183 0.2226 0.0
C1015 C 0.62111 0.13623 0.20694 0.0
C1016 C 0.6351 0.12286 0.24929 0.0
C1017 C 0.60314 0.15267 0.21803 0.0
C1018 C 0.60149 0.15476 0.24466 0.0
C1019 C 0.61434 0.14019 0.28716 0.0
C1020 C 0.62827 0.1232 0.30259 0.0
C1021 C 0.61711 0.13964 0.26046 0.0
C1022 C 0.64585 0.10641 0.29137 0.0
C1023 C 0.64963 0.1066 0.26494 0.0
H1024 H 0.44317 0.09458 0.71297 0.0
H1025 H 0.36501 0.12089 0.71413 0.0
H1026 H 0.3687 0.12933 0.76045 0.0
H1027 H 0.39333 0.12526 0.80097 0.0
H1028 H 0.47187 0.09916 0.79819 0.0
H1029 H 0.46888 0.09489 0.75196 0.0
C1030 C 0.42698 0.10228 0.72339 0.0
C1031 C 0.40373 0.10665 0.71055 0.0
C1032 C 0.4293 0.10705 0.74963 0.0
C1033 C 0.38305 0.11725 0.72388 0.0
C1034 C 0.38515 0.12197 0.75027 0.0
C1035 C 0.40988 0.11893 0.79023 0.0
C1036 C 0.4326 0.11204 0.80318 0.0
C1037 C 0.40805 0.11635 0.76345 0.0
C1038 C 0.45397 0.1042 0.78888 0.0
C1039 C 0.45233 0.10172 0.76238 0.0
H1040 H 0.34362 0.89679 0.2134 0.0
H1041 H 0.41977 0.86577 0.20643 0.0
H1042 H 0.41871 0.85186 0.2511 0.0
H1043 H 0.3981 0.85293 0.2933 0.0
H1044 H 0.32462 0.88907 0.30146 0.0
H1045 H 0.3222 0.89608 0.2551 0.0
C1046 C 0.35984 0.88671 0.22162 0.0
C1047 C 0.38176 0.88238 0.20679 0.0
C1048 C 0.35944 0.8796 0.24749 0.0
C1049 C 0.40274 0.86947 0.21758 0.0
C1050 C 0.40213 0.86145 0.24308 0.0
C1051 C 0.38127 0.86159 0.28466 0.0
C1052 C 0.36136 0.87013 0.30033 0.0
C1053 C 0.38082 0.86694 0.25836 0.0
C1054 C 0.33994 0.88211 0.28945 0.0
C1055 C 0.33869 0.8863 0.26306 0.0
H1056 H 0.09916 0.07645 0.56807 0.0
H1057 H 0.18158 0.07965 0.56435 0.0
H1058 H 0.17969 0.07857 0.51754 0.0
H1059 H 0.15419 0.09189 0.47986 0.0
H1060 H 0.07155 0.09216 0.48476 0.0
H1061 H 0.07371 0.07599 0.5285 0.0
C1062 C 0.11666 0.07525 0.55695 0.0
C1063 C 0.14039 0.07862 0.56932 0.0
C1064 C 0.11527 0.07619 0.53012 0.0
C1065 C 0.16307 0.07704 0.55503 0.0
C1066 C 0.16195 0.07699 0.52822 0.0
C1067 C 0.13668 0.08725 0.49011 0.0
C1068 C 0.11281 0.0941 0.47961 0.0
C1069 C 0.13811 0.0789 0.51572 0.0
C1070 C 0.0902 0.08772 0.49286 0.0
C1071 C 0.09141 0.07855 0.51791 0.0
H1072 H 0.42878 0.65984 0.95821 0.0
H1073 H 0.44107 0.57911 0.96857 0.0
H1074 H 0.4353 0.58358 0.01483 0.0
H1075 H 0.41239 0.60764 0.04842 0.0
H1076 H 0.39445 0.68718 0.0355 0.0
H1077 H 0.41681 0.68637 0.9946 0.0
C1078 C 0.43176 0.64361 0.97089 0.0
C1079 C 0.43478 0.61918 0.96026 0.0
C1080 C 0.42617 0.64604 0.997 0.0
C1081 C 0.43872 0.59815 0.97654 0.0
C1082 C 0.43476 0.60061 1.00293 0.0
C1083 C 0.41432 0.62496 0.03704 0.0
C1084 C 0.40128 0.6472 0.04438 0.0
C1085 C 0.42619 0.62401 0.01291 0.0
C1086 C 0.4039 0.66967 0.02973 0.0
C1087 C 0.41668 0.66923 0.00638 0.0
H1088 H 0.91242 0.91491 0.48093 0.0
H1089 H 0.83061 0.90911 0.46902 0.0
H1090 H 0.82325 0.92483 0.51258 0.0
H1091 H 0.84061 0.92686 0.55657 0.0
H1092 H 0.9224 0.92844 0.56874 0.0
H1093 H 0.92948 0.92915 0.52253 0.0
C1094 C 0.89301 0.918 0.48766 0.0
C1095 C 0.87208 0.9102 0.47236 0.0
C1096 C 0.88903 0.92628 0.51285 0.0
C1097 C 0.84698 0.91473 0.48075 0.0
C1098 C 0.8428 0.92355 0.50569 0.0
C1099 C 0.85988 0.92906 0.54898 0.0
C1100 C 0.88099 0.92729 0.56571 0.0
C1101 C 0.8637 0.92759 0.52241 0.0
C1102 C 0.90593 0.92982 0.55601 0.0
C1103 C 0.90996 0.92969 0.52959 0.0
H1104 H 0.57881 0.42497 0.96162 0.0
H1105 H 0.58474 0.34416 0.9461 0.0
H1106 H 0.58375 0.33486 0.99198 0.0
H1107 H 0.59604 0.35116 0.03444 0.0
H1108 H 0.59514 0.43238 0.04958 0.0
H1109 H 0.57859 0.44034 0.00628 0.0
C1110 C 0.57822 0.40528 0.96838 0.0
C1111 C 0.582 0.38523 0.95085 0.0
C1112 C 0.57941 0.40035 0.9948 0.0
C1113 C 0.58166 0.35978 0.95945 0.0
C1114 C 0.58157 0.35454 0.98569 0.0
C1115 C 0.59099 0.37045 0.02855 0.0
C1116 C 0.59722 0.39124 0.04465 0.0
C1117 C 0.5827 0.37484 1.00337 0.0
C1118 C 0.59055 0.41617 0.03728 0.0
C1119 C 0.5814 0.4207 0.01244 0.0
H1120 H 0.09116 0.94003 0.55435 0.0
H1121 H 0.17323 0.93457 0.5616 0.0
H1122 H 0.17807 0.94243 0.51574 0.0
H1123 H 0.15801 0.93315 0.47424 0.0
H1124 H 0.07571 0.93033 0.46728 0.0
H1125 H 0.0715 0.94474 0.51163 0.0
C1126 C 0.11011 0.94228 0.54602 0.0
C1127 C 0.13182 0.9365 0.56096 0.0
C1128 C 0.11246 0.9446 0.51932 0.0
C1129 C 0.15633 0.93904 0.55029 0.0
C1130 C 0.15902 0.9431 0.52398 0.0
C1131 C 0.13923 0.93734 0.48206 0.0
C1132 C 0.1172 0.92994 0.4681 0.0
C1133 C 0.13712 0.94333 0.50816 0.0
C1134 C 0.09291 0.93563 0.47791 0.0
C1135 C 0.09055 0.94334 0.5035 0.0
H1136 H 0.59104 0.67001 0.95355 0.0
H1137 H 0.59916 0.59006 0.93473 0.0
H1138 H 0.59822 0.57879 0.98019 0.0
H1139 H 0.60692 0.5931 0.02402 0.0
H1140 H 0.60339 0.67354 0.04289 0.0
H1141 H 0.5899 0.68334 0.99896 0.0
C1142 C 0.59126 0.65006 0.95952 0.0
C1143 C 0.59519 0.6308 0.9412 0.0
C1144 C 0.59217 0.64399 0.98571 0.0
C1145 C 0.59603 0.60505 0.94876 0.0
C1146 C 0.59578 0.59868 0.97471 0.0
C1147 C 0.60239 0.61267 0.01866 0.0
C1148 C 0.6068 0.63268 0.03624 0.0
C1149 C 0.59571 0.61818 0.99326 0.0
C1150 C 0.60036 0.65788 0.02948 0.0
C1151 C 0.59288 0.6635 1.00432 0.0
H1152 H 0.91606 0.10185 0.46669 0.0
H1153 H 0.83373 0.10912 0.46708 0.0
H1154 H 0.8319 0.0921 0.51055 0.0
H1155 H 0.85486 0.08885 0.55143 0.0
H1156 H 0.93728 0.0848 0.55243 0.0
H1157 H 0.93816 0.0859 0.50555 0.0
C1158 C 0.89772 0.09846 0.47594 0.0
C1159 C 0.87513 0.10714 0.46423 0.0
C1160 C 0.89695 0.08965 0.50141 0.0
C1161 C 0.85137 0.10282 0.47614 0.0
C1162 C 0.85033 0.09325 0.50102 0.0
C1163 C 0.87281 0.0866 0.54122 0.0
C1164 C 0.89593 0.08691 0.55499 0.0
C1165 C 0.87314 0.08855 0.51444 0.0
C1166 C 0.91924 0.08437 0.54193 0.0
C1167 C 0.91976 0.08548 0.51516 0.0
H1168 H 0.43115 0.41141 0.94788 0.0
H1169 H 0.434 0.32973 0.95885 0.0
H1170 H 0.43205 0.33544 1.00537 0.0
H1171 H 0.41572 0.36283 0.0402 0.0
H1172 H 0.40905 0.44427 0.02768 0.0
H1173 H 0.42698 0.43983 0.98488 0.0
C1174 C 0.43288 0.39505 0.96063 0.0
C1175 C 0.43246 0.37027 0.9503 0.0
C1176 C 0.43024 0.3985 0.98712 0.0
C1177 C 0.4345 0.34902 0.96664 0.0
C1178 C 0.43287 0.35229 0.99321 0.0
C1179 C 0.41929 0.37967 0.02848 0.0
C1180 C 0.41041 0.40369 0.03658 0.0
C1181 C 0.42862 0.3768 1.00341 0.0
C1182 C 0.41522 0.42549 0.02143 0.0
C1183 C 0.42539 0.42296 0.99695 0.0
H1184 H 0.54282 0.16842 0.0802 0.0
H1185 H 0.56073 0.08845 0.08841 0.0
H1186 H 0.51633 0.0767 0.07842 0.0
H1187 H 0.47214 0.09065 0.08604 0.0
H1188 H 0.45437 0.17123 0.08419 0.0
H1189 H 0.49841 0.18139 0.07198 0.0
C1190 C 0.53724 0.14839 0.07811 0.0
C1191 C 0.55438 0.12933 0.08613 0.0
C1192 C 0.51128 0.14204 0.07446 0.0
C1193 C 0.54755 0.10343 0.08282 0.0
C1194 C 0.52198 0.09676 0.07763 0.0
C1195 C 0.47768 0.1103 0.08173 0.0
C1196 C 0.46063 0.13029 0.08727 0.0
C1197 C 0.5034 0.11606 0.07632 0.0
C1198 C 0.46745 0.15558 0.08073 0.0
C1199 C 0.49276 0.16142 0.07402 0.0
H1200 H 0.34594 0.9682 0.5902 0.0
H1201 H 0.42718 0.95545 0.58389 0.0
H1202 H 0.43457 1.00098 0.57526 0.0
H1203 H 0.41876 0.0448 0.58254 0.0
H1204 H 0.33747 0.05758 0.58811 0.0
H1205 H 0.32892 0.01166 0.58311 0.0
C1206 C 0.365 0.97526 0.58544 0.0
C1207 C 0.38603 0.95887 0.58779 0.0
C1208 C 0.36908 1.00151 0.58085 0.0
C1209 C 0.41076 0.96793 0.58194 0.0
C1210 C 0.41502 0.994 0.57737 0.0
C1211 C 0.39918 0.03759 0.58113 0.0
C1212 C 0.37876 0.05418 0.58585 0.0
C1213 C 0.3945 0.01115 0.57862 0.0
C1214 C 0.3534 0.04494 0.5843 0.0
C1215 C 0.34854 0.01866 0.58183 0.0
H1216 H 0.46566 0.86098 0.08443 0.0
H1217 H 0.4479 0.94089 0.09371 0.0
H1218 H 0.49196 0.95277 0.08282 0.0
H1219 H 0.53652 0.93891 0.08849 0.0
H1220 H 0.55436 0.85837 0.08554 0.0
H1221 H 0.50977 0.84815 0.07495 0.0
C1222 C 0.47117 0.88103 0.08246 0.0
C1223 C 0.45418 0.90004 0.09076 0.0
C1224 C 0.49695 0.88746 0.07815 0.0
C1225 C 0.46094 0.92597 0.08776 0.0
C1226 C 0.4863 0.9327 0.08201 0.0
C1227 C 0.53082 0.91925 0.08431 0.0
C1228 C 0.5482 0.89929 0.08906 0.0
C1229 C 0.50484 0.91344 0.07991 0.0
C1230 C 0.5411 0.87401 0.08268 0.0
C1231 C 0.51548 0.86813 0.07692 0.0
H1232 H 0.60338 0.03699 0.57642 0.0
H1233 H 0.68477 0.04606 0.58838 0.0
H1234 H 0.69115 1.00059 0.5791 0.0
H1235 H 0.67185 0.95758 0.58184 0.0
H1236 H 0.58975 0.94845 0.57763 0.0
H1237 H 0.58507 0.99416 0.56854 0.0
C1238 C 0.62259 0.02917 0.57549 0.0
C1239 C 0.64361 0.04453 0.58294 0.0
C1240 C 0.62576 1.0027 0.57202 0.0
C1241 C 0.66843 0.03442 0.58241 0.0
C1242 C 0.67199 0.00836 0.57746 0.0
C1243 C 0.65314 0.96546 0.57737 0.0
C1244 C 0.63117 0.94998 0.58031 0.0
C1245 C 0.65058 0.99206 0.57426 0.0
C1246 C 0.60687 0.96017 0.57518 0.0
C1247 C 0.60421 0.98637 0.57042 0.0
H1248 H 0.48499 0.83699 0.92859 0.0
H1249 H 0.46418 0.9162 0.93751 0.0
H1250 H 0.50861 0.92764 0.94791 0.0
H1251 H 0.5537 0.91655 0.93977 0.0
H1252 H 0.57454 0.8373 0.93157 0.0
H1253 H 0.52985 0.82407 0.93687 0.0
C1254 C 0.49002 0.85643 0.93433 0.0
C1255 C 0.47172 0.87583 0.93199 0.0
C1256 C 0.51568 0.86286 0.94003 0.0
C1257 C 0.47815 0.90102 0.93929 0.0
C1258 C 0.50361 0.90761 0.94493 0.0
C1259 C 0.54863 0.89633 0.94095 0.0
C1260 C 0.56703 0.87793 0.93472 0.0
C1261 C 0.52275 0.88897 0.94332 0.0
C1262 C 0.56053 0.85177 0.93629 0.0
C1263 C 0.53485 0.84422 0.93879 0.0
H1264 H 0.63433 0.9587 0.41792 0.0
H1265 H 0.55369 0.96823 0.40165 0.0
H1266 H 0.55647 0.01309 0.41452 0.0
H1267 H 0.58476 0.0509 0.4144 0.0
H1268 H 0.66603 0.04175 0.42547 0.0
H1269 H 0.66006 0.99583 0.43233 0.0
C1270 C 0.61715 0.97029 0.41833 0.0
C1271 C 0.59417 0.96064 0.4077 0.0
C1272 C 0.61915 0.99644 0.42463 0.0
C1273 C 0.57188 0.97563 0.40885 0.0
C1274 C 0.57344 1.00132 0.41619 0.0
C1275 C 0.60086 0.03906 0.42004 0.0
C1276 C 0.62581 0.04921 0.41848 0.0
C1277 C 0.59744 0.01238 0.42178 0.0
C1278 C 0.64664 0.03403 0.42614 0.0
C1279 C 0.64328 0.00764 0.42948 0.0
H1280 H 0.47139 0.09071 0.93785 0.0
H1281 H 0.45037 0.1702 0.93338 0.0
H1282 H 0.4954 0.18319 0.93653 0.0
H1283 H 0.53965 0.17045 0.92551 0.0
H1284 H 0.56059 0.09091 0.93057 0.0
H1285 H 0.51683 0.07924 0.94281 0.0
C1286 C 0.47663 0.11088 0.93939 0.0
C1287 C 0.45794 0.12949 0.9348 0.0
C1288 C 0.50263 0.11809 0.9404 0.0
C1289 C 0.46463 0.15558 0.93683 0.0
C1290 C 0.49045 0.163 0.93807 0.0
C1291 C 0.53484 0.15083 0.9307 0.0
C1292 C 0.55286 0.13146 0.92687 0.0
C1293 C 0.50958 0.14428 0.93756 0.0
C1294 C 0.54676 0.10603 0.93347 0.0
C1295 C 0.52171 0.09934 0.94023 0.0
H1296 H 0.34796 0.96508 0.41841 0.0
H1297 H 0.4241 0.94027 0.39957 0.0
H1298 H 0.44011 0.98438 0.40277 0.0
H1299 H 0.42862 0.02957 0.39614 0.0
H1300 H 0.35128 0.05402 0.41168 0.0
H1301 H 0.33963 0.01075 0.4251 0.0
C1302 C 0.36834 0.96925 0.41662 0.0
C1303 C 0.38475 0.94993 0.40802 0.0
C1304 C 0.37692 0.99478 0.41684 0.0
C1305 C 0.41115 0.95508 0.40599 0.0
C1306 C 0.42017 0.98039 0.40726 0.0
C1307 C 0.40945 0.02557 0.40322 0.0
C1308 C 0.39053 0.04458 0.4018 0.0
C1309 C 0.40267 1.00047 0.41026 0.0
C1310 C 0.36603 0.03951 0.41193 0.0
C1311 C 0.3593 0.01472 0.41956 0.0
H1312 H 0.0952 0.47625 0.09646 0.0
H1313 H 0.09399 0.46545 0.1784 0.0
H1314 H 0.07609 0.50828 0.184 0.0
H1315 H 0.07445 0.55198 0.16632 0.0
H1316 H 0.0805 0.56339 0.08487 0.0
H1317 H 0.08138 0.5171 0.07799 0.0
C1318 C 0.09013 0.48299 0.11545 0.0
C1319 C 0.09662 0.46827 0.13705 0.0
C1320 C 0.08073 0.50788 0.11851 0.0
C1321 C 0.08947 0.47671 0.16154 0.0
C1322 C 0.07939 0.50127 0.16474 0.0
C1323 C 0.07422 0.54417 0.147 0.0
C1324 C 0.0778 0.5608 0.12613 0.0
C1325 C 0.07678 0.51762 0.1435 0.0
C1326 C 0.07773 0.55078 0.10116 0.0
C1327 C 0.07883 0.52432 0.09731 0.0
H1328 H 0.0885 0.53932 0.92138 0.0
H1329 H 0.09411 0.54208 0.83911 0.0
H1330 H 0.09618 0.49534 0.83725 0.0
H1331 H 0.11086 0.45705 0.85988 0.0
H1332 H 0.11146 0.45525 0.94242 0.0
H1333 H 0.09213 0.49794 0.94372 0.0
C1334 C 0.08855 0.52944 0.90303 0.0
C1335 C 0.09124 0.54378 0.8804 0.0
C1336 C 0.09185 0.50277 0.9024 0.0
C1337 C 0.0918 0.53119 0.85667 0.0
C1338 C 0.0935 0.50452 0.85569 0.0
C1339 C 0.10562 0.46565 0.87807 0.0
C1340 C 0.11279 0.45358 0.90102 0.0
C1341 C 0.09576 0.4905 0.87854 0.0
C1342 C 0.10606 0.46446 0.92459 0.0
C1343 C 0.09526 0.48892 0.92527 0.0
H1344 H 0.0501 0.58409 0.41848 0.0
H1345 H 0.06411 0.57763 0.33751 0.0
H1346 H 0.01803 0.57398 0.32905 0.0
H1347 H 0.97476 0.58608 0.34413 0.0
H1348 H 0.96124 0.5933 0.42522 0.0
H1349 H 1.00597 0.58287 0.43446 0.0
C1350 C 0.04304 0.58024 0.39921 0.0
C1351 C 0.06012 0.58148 0.37861 0.0
C1352 C 0.01654 0.57922 0.39451 0.0
C1353 C 0.0511 0.5766 0.35364 0.0
C1354 C 0.02471 0.57509 0.34876 0.0
C1355 C 0.9815 0.58422 0.36377 0.0
C1356 C 0.96524 0.59069 0.38402 0.0
C1357 C 0.00731 0.57845 0.36889 0.0
C1358 C 0.97377 0.5884 0.40946 0.0
C1359 C 0.9993 0.58257 0.41473 0.0
H1360 H 0.93182 0.55714 0.90595 0.0
H1361 H 0.91284 0.56556 0.82589 0.0
H1362 H 0.91962 0.5198 0.81876 0.0
H1363 H 0.9208 0.47679 0.83768 0.0
H1364 H 0.93943 0.46782 0.91765 0.0
H1365 H 0.94407 0.51435 0.92247 0.0
C1366 C 0.93017 0.54897 0.88685 0.0
C1367 C 0.92167 0.56425 0.86647 0.0
C1368 C 0.93398 0.52259 0.88296 0.0
C1369 C 0.91939 0.55383 0.84175 0.0
C1370 C 0.92316 0.52772 0.83771 0.0
C1371 C 0.92731 0.48505 0.85574 0.0
C1372 C 0.92982 0.46924 0.87726 0.0
C1373 C 0.92911 0.51175 0.85845 0.0
C1374 C 0.9378 0.47984 0.90078 0.0
C1375 C 0.93995 0.50645 0.90363 0.0
H1376 H 0.05425 0.409 0.3739 0.0
H1377 H 0.04048 0.40376 0.45519 0.0
H1378 H 0.99454 0.40934 0.44797 0.0
H1379 H 0.95878 0.40118 0.418 0.0
H1380 H 0.97326 0.39964 0.33678 0.0
H1381 H 0.01803 0.41199 0.34421 0.0
C1382 C 0.04132 0.41032 0.39009 0.0
C1383 C 0.05044 0.40513 0.4149 0.0
C1384 C 0.01482 0.4117 0.38563 0.0
C1385 C 0.03365 0.40712 0.43581 0.0
C1386 C 0.00736 0.41008 0.43168 0.0
C1387 C 0.97154 0.40482 0.40199 0.0
C1388 C 0.9632 0.39915 0.377 0.0
C1389 C 0.99762 0.41015 0.40656 0.0
C1390 C 0.97963 0.4037 0.35622 0.0
C1391 C 1.00523 0.41053 0.36048 0.0
H1392 H 0.91063 0.46787 0.0927 0.0
H1393 H 0.89667 0.46552 0.17406 0.0
H1394 H 0.91635 0.50781 0.17936 0.0
H1395 H 0.9237 0.54924 0.15886 0.0
H1396 H 0.93383 0.55342 0.07721 0.0
H1397 H 0.93079 0.50671 0.0739 0.0
C1398 C 0.91303 0.47624 0.11164 0.0
C1399 C 0.90174 0.46423 0.13287 0.0
C1400 C 0.92344 0.50111 0.11438 0.0
C1401 C 0.90488 0.47493 0.15743 0.0
C1402 C 0.91606 0.49909 0.16046 0.0
C1403 C 0.92692 0.53969 0.14065 0.0
C1404 C 0.92854 0.5544 0.1183 0.0
C1405 C 0.92348 0.51309 0.13882 0.0
C1406 C 0.9326 0.54222 0.09467 0.0
C1407 C 0.93027 0.51553 0.09272 0.0
H1408 H 0.98834 0.42774 0.59053 0.0
H1409 H 0.9586 0.42051 0.66713 0.0
H1410 H 1.00176 0.42551 0.68485 0.0
H1411 H 0.04676 0.41435 0.67683 0.0
H1412 H 0.07622 0.41696 0.59984 0.0
H1413 H 0.03483 0.43204 0.58396 0.0
C1414 C 0.99124 0.42878 0.61115 0.0
C1415 C 0.97074 0.42253 0.62751 0.0
C1416 C 0.01631 0.42992 0.62103 0.0
C1417 C 0.97427 0.42469 0.65415 0.0
C1418 C 0.99907 0.42708 0.66428 0.0
C1419 C 0.04441 0.41957 0.6568 0.0
C1420 C 0.06393 0.41376 0.63931 0.0
C1421 C 0.02023 0.42698 0.64773 0.0
C1422 C 0.0612 0.42098 0.61353 0.0
C1423 C 0.03741 0.42929 0.60441 0.0
H1424 H 0.03418 0.58445 0.6645 0.0
H1425 H 0.04902 0.58288 0.58337 0.0
H1426 H 1.00415 0.57174 0.57463 0.0
H1427 H 0.95983 0.57643 0.58987 0.0
H1428 H 0.94487 0.57772 0.67092 0.0
H1429 H 0.99063 0.57363 0.68017 0.0
C1430 C 0.02777 0.58023 0.64509 0.0
C1431 C 0.04447 0.58468 0.62455 0.0
C1432 C 1.00187 0.57408 0.64024 0.0
C1433 C 0.03627 0.57943 0.59939 0.0
C1434 C 0.01058 0.57332 0.59439 0.0
C1435 C 0.9665 0.57403 0.60948 0.0
C1436 C 0.94933 0.57786 0.62969 0.0
C1437 C 0.99292 0.57251 0.61457 0.0
C1438 C 0.95791 0.57479 0.65508 0.0
C1439 C 0.98416 0.57302 0.66037 0.0
H1440 H 0.96753 0.0913 0.40079 0.0
H1441 H 0.95427 0.14657 0.34096 0.0
H1442 H 1.00048 0.15222 0.33525 0.0
H1443 H 0.04425 0.14807 0.3535 0.0
H1444 H 0.05829 0.09154 0.41187 0.0
H1445 H 0.01279 0.07925 0.41143 0.0
C1446 C 0.97476 0.10355 0.3856 0.0
C1447 C 0.95721 0.11815 0.37098 0.0
C1448 C 1.00174 0.10679 0.38242 0.0
C1449 C 0.96715 0.13463 0.35203 0.0
C1450 C 0.99371 0.13814 0.34899 0.0
C1451 C 0.03765 0.13203 0.36505 0.0
C1452 C 0.05502 0.12052 0.38241 0.0
C1453 C 0.01121 0.1252 0.36484 0.0
C1454 C 0.04574 0.10031 0.39781 0.0
C1455 C 0.01946 0.09361 0.39793 0.0
H1456 H 0.37296 0.45314 0.85969 0.0
H1457 H 0.44881 0.44426 0.89142 0.0
H1458 H 0.45615 0.49063 0.8888 0.0
H1459 H 0.43753 0.53421 0.88586 0.0
H1460 H 0.36153 0.54329 0.8545 0.0
H1461 H 0.35772 0.49674 0.84831 0.0
C1462 C 0.39164 0.4612 0.8646 0.0
C1463 C 0.41058 0.44493 0.8751 0.0
C1464 C 0.39539 0.4882 0.86377 0.0
C1465 C 0.43424 0.45601 0.88247 0.0
C1466 C 0.43822 0.48271 0.88147 0.0
C1467 C 0.42059 0.52607 0.87661 0.0
C1468 C 0.4 0.54236 0.8702 0.0
C1469 C 0.41849 0.49911 0.87333 0.0
C1470 C 0.37788 0.53137 0.85899 0.0
C1471 C 0.3756 0.50464 0.85575 0.0
H1472 H 0.02885 0.9243 0.40492 0.0
H1473 H 0.04724 0.86916 0.34651 0.0
H1474 H 1.00151 0.86253 0.33728 0.0
H1475 H 0.95646 0.86607 0.35215 0.0
H1476 H 0.9378 0.92282 0.40892 0.0
H1477 H 0.98304 0.93573 0.41193 0.0
C1478 C 0.02287 0.91182 0.38928 0.0
C1479 C 0.04162 0.89755 0.37613 0.0
C1480 C 0.9963 0.90814 0.38401 0.0
C1481 C 0.03339 0.88087 0.35647 0.0
C1482 C 0.00712 0.87679 0.35144 0.0
C1483 C 0.96208 0.88225 0.36412 0.0
C1484 C 0.94349 0.89368 0.38002 0.0
C1485 C 0.98836 0.88949 0.36586 0.0
C1486 C 0.95139 0.91411 0.39597 0.0
C1487 C 0.97747 0.92118 0.39806 0.0
H1488 H 0.58321 0.47514 0.88097 0.0
H1489 H 0.65548 0.46089 0.84423 0.0
H1490 H 0.66137 0.50703 0.83669 0.0
H1491 H 0.64958 0.55173 0.84806 0.0
H1492 H 0.57694 0.56576 0.88411 0.0
H1493 H 0.56711 0.51974 0.88368 0.0
C1494 C 0.59973 0.48208 0.87034 0.0
C1495 C 0.61875 0.46448 0.86289 0.0
C1496 C 0.60294 0.50876 0.86609 0.0
C1497 C 0.64031 0.47385 0.84967 0.0
C1498 C 0.6438 0.50034 0.84563 0.0
C1499 C 0.63097 0.54483 0.85446 0.0
C1500 C 0.61374 0.56242 0.86555 0.0
C1501 C 0.62572 0.51808 0.85463 0.0
C1502 C 0.59016 0.55292 0.87472 0.0
C1503 C 0.58479 0.52644 0.87495 0.0
H1504 H 0.96501 0.85835 0.64758 0.0
H1505 H 0.95639 0.93741 0.62573 0.0
H1506 H 1.00284 0.94412 0.6292 0.0
H1507 H 0.04633 0.92513 0.62979 0.0
H1508 H 0.05528 0.84606 0.6515 0.0
H1509 H 0.00867 0.84168 0.65699 0.0
C1510 C 0.97316 0.87742 0.64508 0.0
C1511 C 0.95694 0.89756 0.63707 0.0
C1512 C 1.00021 0.8809 0.64636 0.0
C1513 C 0.96812 0.92183 0.63275 0.0
C1514 C 0.99486 0.92551 0.63421 0.0
C1515 C 0.03815 0.90725 0.63678 0.0
C1516 C 0.0544 0.88603 0.64062 0.0
C1517 C 0.01119 0.90489 0.63976 0.0
C1518 C 0.04338 0.86281 0.64899 0.0
C1519 C 0.01661 0.86026 0.65185 0.0
H1520 H 0.5896 0.47521 0.11094 0.0
H1521 H 0.64412 0.45957 0.17116 0.0
H1522 H 0.65095 0.50553 0.17798 0.0
H1523 H 0.64806 0.54963 0.16054 0.0
H1524 H 0.59232 0.56587 0.10165 0.0
H1525 H 0.57882 0.52072 0.10103 0.0
C1526 C 0.60191 0.48189 0.12646 0.0
C1527 C 0.61597 0.4638 0.14086 0.0
C1528 C 0.60586 0.50865 0.13023 0.0
C1529 C 0.63256 0.47293 0.16027 0.0
C1530 C 0.63677 0.49932 0.16393 0.0
C1531 C 0.63198 0.54356 0.14859 0.0
C1532 C 0.62099 0.56137 0.13143 0.0
C1533 C 0.62442 0.51736 0.14823 0.0
C1534 C 0.60069 0.55288 0.11553 0.0
C1535 C 0.59327 0.52684 0.11483 0.0
H1536 H 0.97887 0.14967 0.65739 0.0
H1537 H 0.95888 0.07297 0.63328 0.0
H1538 H 1.00421 0.06128 0.63333 0.0
H1539 H 0.04969 0.07549 0.63191 0.0
H1540 H 0.07019 0.15147 0.65775 0.0
H1541 H 0.02498 0.16057 0.66611 0.0
C1542 C 0.98438 0.13007 0.6534 0.0
C1543 C 0.96531 0.11208 0.64576 0.0
C1544 C 0.01079 0.12342 0.65347 0.0
C1545 C 0.97298 0.087 0.63982 0.0
C1546 C 0.99903 0.08038 0.63953 0.0
C1547 C 0.04443 0.09353 0.64072 0.0
C1548 C 0.06357 0.11261 0.64451 0.0
C1549 C 0.01818 0.09873 0.64526 0.0
C1550 C 0.05614 0.13616 0.65526 0.0
C1551 C 0.03009 0.14157 0.65957 0.0
H1552 H 0.36751 0.55566 0.16075 0.0
H1553 H 0.42271 0.56739 0.10071 0.0
H1554 H 0.4283 0.5209 0.09686 0.0
H1555 H 0.41059 0.47718 0.10449 0.0
H1556 H 0.35445 0.46566 0.16369 0.0
H1557 H 0.35667 0.51132 0.17458 0.0
C1558 C 0.38171 0.54805 0.14772 0.0
C1559 C 0.39513 0.56513 0.13144 0.0
C1560 C 0.38441 0.52111 0.1453 0.0
C1561 C 0.41271 0.55485 0.11397 0.0
C1562 C 0.41562 0.52815 0.11153 0.0
C1563 C 0.4 0.4844 0.12079 0.0
C1564 C 0.38284 0.46768 0.13369 0.0
C1565 C 0.40074 0.51105 0.12632 0.0
C1566 C 0.3684 0.47773 0.15399 0.0
C1567 C 0.3693 0.50406 0.15987 0.0
H1568 H 0.34438 0.05215 0.15428 0.0
H1569 H 0.38991 0.06835 0.08752 0.0
H1570 H 0.38857 0.02289 0.07558 0.0
H1571 H 0.38218 0.97737 0.08958 0.0
H1572 H 0.33567 0.9619 0.15589 0.0
H1573 H 0.32924 0.00781 0.16227 0.0
C1574 C 0.35278 0.04596 0.13634 0.0
C1575 C 0.36692 0.06389 0.12166 0.0
C1576 C 0.35223 0.01958 0.1298 0.0
C1577 C 0.37833 0.05526 0.09886 0.0
C1578 C 0.378 0.02905 0.09229 0.0
C1579 C 0.36957 0.98403 0.10461 0.0
C1580 C 0.35903 0.96604 0.12199 0.0
C1581 C 0.36608 0.01081 0.10831 0.0
C1582 C 0.3435 0.97517 0.14191 0.0
C1583 C 0.34008 1.00154 0.14576 0.0
H1584 H 0.46292 0.88325 0.59092 0.0
H1585 H 0.45743 0.86563 0.67133 0.0
H1586 H 0.50423 0.86159 0.67409 0.0
H1587 H 0.54695 0.87141 0.6553 0.0
H1588 H 0.55222 0.89006 0.57512 0.0
H1589 H 0.50574 0.88453 0.57029 0.0
C1590 C 0.47192 0.87736 0.60876 0.0
C1591 C 0.45656 0.8742 0.63079 0.0
C1592 C 0.49903 0.87545 0.61023 0.0
C1593 C 0.46864 0.86748 0.65397 0.0
C1594 C 0.49551 0.86549 0.65559 0.0
C1595 C 0.53809 0.87278 0.63647 0.0
C1596 C 0.55335 0.88047 0.61542 0.0
C1597 C 0.51101 0.87043 0.63408 0.0
C1598 C 0.54124 0.88334 0.59142 0.0
C1599 C 0.51448 0.88068 0.58879 0.0
H1600 H 0.62457 0.05036 0.08797 0.0
H1601 H 0.67472 0.06832 0.15158 0.0
H1602 H 0.68231 0.02267 0.15866 0.0
H1603 H 0.66728 0.97787 0.1524 0.0
H1604 H 0.61853 0.95938 0.0879 0.0
H1605 H 0.61841 1.00454 0.07504 0.0
C1606 C 0.63822 0.0443 0.10249 0.0
C1607 C 0.64944 0.0629 0.11894 0.0
C1608 C 0.64244 0.01772 0.10654 0.0
C1609 C 0.66636 0.05456 0.13824 0.0
C1610 C 0.67043 0.02834 0.14253 0.0
C1611 C 0.65782 0.9835 0.13471 0.0
C1612 C 0.64318 0.96503 0.121 0.0
C1613 C 0.65764 0.00971 0.12757 0.0
C1614 C 0.63047 0.97291 0.09849 0.0
C1615 C 0.62999 0.99894 0.0914 0.0
H1616 H 0.55536 0.11486 0.58681 0.0
H1617 H 0.56493 0.13994 0.665 0.0
H1618 H 0.51839 0.14573 0.66865 0.0
H1619 H 0.47449 0.136 0.65183 0.0
H1620 H 0.46525 0.11095 0.57361 0.0
H1621 H 0.51171 0.11367 0.56739 0.0
C1622 C 0.54733 0.12262 0.6043 0.0
C1623 C 0.56377 0.12737 0.62549 0.0
C1624 C 0.52039 0.12582 0.60625 0.0
C1625 C 0.55291 0.13672 0.64823 0.0
C1626 C 0.52618 0.13976 0.65038 0.0
C1627 C 0.48252 0.1326 0.63299 0.0
C1628 C 0.46607 0.12395 0.61298 0.0
C1629 C 0.50959 0.1335 0.6298 0.0
C1630 C 0.47714 0.11847 0.58907 0.0
C1631 C 0.50389 0.11952 0.58568 0.0
H1632 H 0.38682 0.03335 0.8548 0.0
H1633 H 0.39803 0.04237 0.93616 0.0
H1634 H 0.39283 0.99606 0.94217 0.0
H1635 H 0.39395 0.95235 0.92314 0.0
H1636 H 0.38324 0.94321 0.84172 0.0
H1637 H 0.37909 0.98975 0.83683 0.0
C1638 C 0.38663 0.02535 0.874 0.0
C1639 C 0.39213 0.04164 0.8951 0.0
C1640 C 0.38439 0.99836 0.87719 0.0
C1641 C 0.39299 0.0306 0.9197 0.0
C1642 C 0.39053 1.00393 0.92307 0.0
C1643 C 0.38952 0.96049 0.90451 0.0
C1644 C 0.38836 0.94415 0.88288 0.0
C1645 C 0.38744 0.98748 0.90183 0.0
C1646 C 0.38354 0.95516 0.85875 0.0
C1647 C 0.38147 0.9819 0.85592 0.0
H1648 H 0.52776 0.8347 0.35405 0.0
H1649 H 0.54462 0.88753 0.41553 0.0
H1650 H 0.49937 0.88692 0.42812 0.0
H1651 H 0.45364 0.87819 0.41566 0.0
H1652 H 0.43751 0.82459 0.35462 0.0
H1653 H 0.48343 0.81828 0.34818 0.0
C1654 C 0.52178 0.84503 0.37104 0.0
C1655 C 0.53982 0.86091 0.38397 0.0
C1656 C 0.49552 0.84483 0.37796 0.0
C1657 C 0.53147 0.87466 0.40556 0.0
C1658 C 0.50536 0.87469 0.41248 0.0
C1659 C 0.4602 0.86415 0.40187 0.0
C1660 C 0.44197 0.85146 0.38598 0.0
C1661 C 0.48697 0.86078 0.39806 0.0
C1662 C 0.45096 0.83408 0.36754 0.0
C1663 C 0.47733 0.83073 0.36361 0.0
H1664 H 0.64289 0.05092 0.85142 0.0
H1665 H 0.62624 0.06956 0.93002 0.0
H1666 H 0.62729 0.02415 0.94148 0.0
H1667 H 0.62449 0.97892 0.92741 0.0
H1668 H 0.64224 0.95958 0.84928 0.0
H1669 H 0.64996 1.00499 0.83955 0.0
C1670 C 0.64075 0.0451 0.87126 0.0
C1671 C 0.63497 0.06382 0.88996 0.0
C1672 C 0.64124 0.01861 0.87776 0.0
C1673 C 0.63134 0.05574 0.91541 0.0
C1674 C 0.63162 0.02965 0.92192 0.0
C1675 C 0.63138 0.9845 0.9086 0.0
C1676 C 0.63309 0.96563 0.88922 0.0
C1677 C 0.63547 0.01082 0.90307 0.0
C1678 C 0.64138 0.97343 0.86476 0.0
C1679 C 0.64532 0.99958 0.85906 0.0
H1680 H 0.47002 0.1716 0.36418 0.0
H1681 H 0.44957 0.11161 0.41715 0.0
H1682 H 0.4947 0.10718 0.42961 0.0
H1683 H 0.54084 0.11434 0.41851 0.0
H1684 H 0.56092 0.17577 0.36702 0.0
H1685 H 0.51549 0.18591 0.36121 0.0
C1686 C 0.47524 0.15857 0.37951 0.0
C1687 C 0.45611 0.14221 0.38992 0.0
C1688 C 0.50148 0.15594 0.38641 0.0
C1689 C 0.46354 0.12492 0.40925 0.0
C1690 C 0.48957 0.12202 0.41601 0.0
C1691 C 0.53531 0.13073 0.40701 0.0
C1692 C 0.55447 0.14456 0.39355 0.0
C1693 C 0.50887 0.13655 0.4038 0.0
C1694 C 0.54679 0.16523 0.3781 0.0
C1695 C 0.52067 0.17083 0.37451 0.0
H1696 H 0.09687 0.38648 0.98324 0.0
H1697 H 0.15613 0.33019 0.97462 0.0
H1698 H 0.15928 0.3256 0.02113 0.0
H1699 H 0.1516 0.34429 0.06398 0.0
H1700 H 0.09168 0.39966 0.07335 0.0
H1701 H 0.08186 0.39743 0.0274 0.0
C1702 C 0.10948 0.37224 0.99152 0.0
C1703 C 0.12592 0.35831 0.97524 0.0
C1704 C 0.11137 0.36983 0.01866 0.0
C1705 C 0.14283 0.34067 0.98652 0.0
C1706 C 0.14489 0.33829 0.01325 0.0
C1707 C 0.1354 0.35475 0.05624 0.0
C1708 C 0.12212 0.37179 0.07242 0.0
C1709 C 0.1301 0.35361 0.02955 0.0
C1710 C 0.10177 0.38584 0.0617 0.0
C1711 C 0.09648 0.38495 0.03518 0.0
H1712 H 0.1528 0.64642 0.9686 0.0
H1713 H 0.07941 0.61071 0.95299 0.0
H1714 H 0.06963 0.61024 0.99874 0.0
H1715 H 0.08527 0.61264 0.04348 0.0
H1716 H 0.15823 0.64864 0.05989 0.0
H1717 H 0.1646 0.65696 0.01407 0.0
C1718 C 0.13423 0.63962 0.97517 0.0
C1719 C 0.11664 0.62901 0.95721 0.0
C1720 C 0.12876 0.6392 1.00188 0.0
C1721 C 0.09303 0.61947 0.96624 0.0
C1722 C 0.08753 0.61895 0.99252 0.0
C1723 C 0.10194 0.62351 0.03715 0.0
C1724 C 0.12097 0.63049 0.05532 0.0
C1725 C 0.10564 0.62782 0.01061 0.0
C1726 C 0.1429 0.64374 0.04656 0.0
C1727 C 0.14676 0.64807 0.02019 0.0
H1728 H 0.86648 0.65548 0.46123 0.0
H1729 H 0.88781 0.57772 0.44435 0.0
H1730 H 0.88808 0.56747 0.49009 0.0
H1731 H 0.89076 0.58307 0.53489 0.0
H1732 H 0.86813 0.66029 0.55233 0.0
H1733 H 0.85913 0.66811 0.50684 0.0
C1734 C 0.86989 0.63598 0.46753 0.0
C1735 C 0.87662 0.61724 0.44919 0.0
C1736 C 0.87013 0.63021 0.49417 0.0
C1737 C 0.88191 0.5923 0.45786 0.0
C1738 C 0.88241 0.58652 0.48414 0.0
C1739 C 0.88253 0.60116 0.52892 0.0
C1740 C 0.87979 0.62093 0.54725 0.0
C1741 C 0.87765 0.6056 0.50253 0.0
C1742 C 0.8698 0.6445 0.53892 0.0
C1743 C 0.86511 0.64914 0.51272 0.0
H1744 H 0.92459 0.40611 0.96297 0.0
H1745 H 0.86407 0.35219 0.94433 0.0
H1746 H 0.85943 0.34159 0.98998 0.0
H1747 H 0.86831 0.35276 0.03567 0.0
H1748 H 0.92998 0.40541 0.05403 0.0
H1749 H 0.93889 0.41106 0.00823 0.0
C1750 C 0.91095 0.39141 0.96885 0.0
C1751 C 0.89476 0.37985 0.95017 0.0
C1752 C 0.90855 0.38533 0.99519 0.0
C1753 C 0.87702 0.36106 0.95815 0.0
C1754 C 0.87421 0.35521 0.98434 0.0
C1755 C 0.88443 0.3646 0.02964 0.0
C1756 C 0.89882 0.37828 0.04837 0.0
C1757 C 0.88931 0.36783 1.00312 0.0
C1758 C 0.91911 0.39414 0.04018 0.0
C1759 C 0.92393 0.39766 0.0139 0.0
H1760 H 0.13101 0.41787 0.5622 0.0
H1761 H 0.19006 0.3627 0.57758 0.0
H1762 H 0.19741 0.35761 0.53159 0.0
H1763 H 0.1806 0.36217 0.48727 0.0
H1764 H 0.12276 0.41849 0.47142 0.0
H1765 H 0.12191 0.43038 0.51684 0.0
C1766 C 0.14643 0.4058 0.55551 0.0
C1767 C 0.16033 0.39106 0.57352 0.0
C1768 C 0.15048 0.40286 0.52874 0.0
C1769 C 0.17958 0.37478 0.56433 0.0
C1770 C 0.18352 0.37158 0.53791 0.0
C1771 C 0.16883 0.37803 0.49352 0.0
C1772 C 0.15198 0.38959 0.47568 0.0
C1773 C 0.16828 0.38462 0.5199 0.0
C1774 C 0.13639 0.40966 0.4844 0.0
C1775 C 0.13554 0.41613 0.5106 0.0
H1776 H 0.86383 0.65536 0.95931 0.0
H1777 H 0.93862 0.62277 0.94878 0.0
H1778 H 0.94667 0.62508 0.99506 0.0
H1779 H 0.92886 0.6284 0.03901 0.0
H1780 H 0.85402 0.66084 0.04968 0.0
H1781 H 0.84961 0.66693 1.00321 0.0
C1782 C 0.88244 0.6501 0.96701 0.0
C1783 C 0.90088 0.6395 0.95033 0.0
C1784 C 0.88665 0.65092 0.99391 0.0
C1785 C 0.92445 0.63176 0.96089 0.0
C1786 C 0.92885 0.63264 0.98752 0.0
C1787 C 0.91209 0.63788 0.03123 0.0
C1788 C 0.89198 0.64463 0.04795 0.0
C1789 C 0.90963 0.64108 1.00432 0.0
C1790 C 0.87003 0.65611 0.03743 0.0
C1791 C 0.86739 0.65928 0.01074 0.0
H1792 H 0.8469 0.3677 0.46131 0.0
H1793 H 0.9001 0.42948 0.44606 0.0
H1794 H 0.90649 0.43605 0.49228 0.0
H1795 H 0.90337 0.41822 0.5364 0.0
H1796 H 0.85018 0.35638 0.55142 0.0
H1797 H 0.83674 0.35626 0.50633 0.0
C1798 C 0.85897 0.3834 0.46814 0.0
C1799 C 0.87269 0.39838 0.45013 0.0
C1800 C 0.86273 0.38683 0.49487 0.0
C1801 C 0.88882 0.41814 0.45935 0.0
C1802 C 0.89274 0.42163 0.48587 0.0
C1803 C 0.88779 0.40571 0.53008 0.0
C1804 C 0.87738 0.3877 0.54759 0.0
C1805 C 0.88062 0.40537 0.5038 0.0
C1806 C 0.85795 0.37094 0.53874 0.0
C1807 C 0.85062 0.37056 0.51274 0.0
H1808 H 0.14058 0.65917 0.54491 0.0
H1809 H 0.1157 0.58221 0.5628 0.0
H1810 H 0.11822 0.57027 0.5176 0.0
H1811 H 0.11929 0.584 0.47236 0.0
H1812 H 0.14481 0.66045 0.45367 0.0
H1813 H 0.15107 0.67005 0.49932 0.0
C1814 C 0.13685 0.63952 0.53901 0.0
C1815 C 0.12832 0.62148 0.55741 0.0
C1816 C 0.13822 0.63273 0.51261 0.0
C1817 C 0.12279 0.5963 0.54922 0.0
C1818 C 0.12398 0.58952 0.52325 0.0
C1819 C 0.12759 0.60229 0.47819 0.0
C1820 C 0.13193 0.62131 0.45939 0.0
C1821 C 0.13064 0.60782 0.50463 0.0
C1822 C 0.14195 0.64519 0.46749 0.0
C1823 C 0.14501 0.65086 0.49377 0.0
H1824 H 0.3009 0.14039 0.41874 0.0
H1825 H 0.29574 0.09514 0.34948 0.0
H1826 H 0.24939 0.09274 0.35316 0.0
H1827 H 0.20906 0.10455 0.37493 0.0
H1828 H 0.21374 0.14982 0.44411 0.0
H1829 H 0.26041 0.15081 0.44157 0.0
C1830 C 0.28968 0.12993 0.40453 0.0
C1831 C 0.3023 0.11812 0.38381 0.0
C1832 C 0.26241 0.12851 0.40666 0.0
C1833 C 0.287 0.10462 0.36568 0.0
C1834 C 0.26022 0.10315 0.36771 0.0
C1835 C 0.22027 0.11435 0.38962 0.0
C1836 C 0.2075 0.12706 0.40965 0.0
C1837 C 0.24754 0.11513 0.388 0.0
C1838 C 0.22271 0.13983 0.42834 0.0
C1839 C 0.24963 0.1405 0.42693 0.0
H1840 H 0.37044 0.71358 0.91788 0.0
H1841 H 0.42768 0.68218 0.86757 0.0
H1842 H 0.43995 0.72585 0.85437 0.0
H1843 H 0.43708 0.77277 0.86017 0.0
H1844 H 0.38014 0.80418 0.91082 0.0
H1845 H 0.36489 0.76052 0.92065 0.0
C1846 C 0.3855 0.71615 0.9038 0.0
C1847 C 0.39832 0.69433 0.89395 0.0
C1848 C 0.39256 0.74135 0.89651 0.0
C1849 C 0.41744 0.69833 0.87546 0.0
C1850 C 0.42455 0.72338 0.86806 0.0
C1851 C 0.42113 0.77021 0.87324 0.0
C1852 C 0.40998 0.79202 0.88499 0.0
C1853 C 0.41266 0.74502 0.87893 0.0
C1854 C 0.38909 0.78804 0.90147 0.0
C1855 C 0.38051 0.76299 0.9072 0.0
H1856 H 0.70293 0.91641 0.36463 0.0
H1857 H 0.68657 0.8574 0.42036 0.0
H1858 H 0.73274 0.85155 0.42744 0.0
H1859 H 0.77782 0.86184 0.41654 0.0
H1860 H 0.79435 0.92109 0.36114 0.0
H1861 H 0.74815 0.92819 0.35526 0.0
C1862 C 0.70938 0.90237 0.37852 0.0
C1863 C 0.691 0.88731 0.39193 0.0
C1864 C 0.73609 0.89905 0.38243 0.0
C1865 C 0.70001 0.86931 0.40982 0.0
C1866 C 0.7265 0.86589 0.41378 0.0
C1867 C 0.77141 0.87642 0.40319 0.0
C1868 C 0.78982 0.89082 0.38916 0.0
C1869 C 0.74473 0.88043 0.39999 0.0
C1870 C 0.78087 0.9097 0.37217 0.0
C1871 C 0.75436 0.91372 0.3688 0.0
H1872 H 0.58876 0.23383 0.8527 0.0
H1873 H 0.64344 0.20391 0.90723 0.0
H1874 H 0.65789 0.24787 0.91716 0.0
H1875 H 0.65184 0.29471 0.91347 0.0
H1876 H 0.59669 0.32455 0.85933 0.0
H1877 H 0.58572 0.28057 0.84594 0.0
C1878 C 0.60409 0.2368 0.8666 0.0
C1879 C 0.6148 0.21534 0.87942 0.0
C1880 C 0.61203 0.26215 0.87237 0.0
C1881 C 0.63487 0.21979 0.89702 0.0
C1882 C 0.64297 0.24502 0.90282 0.0
C1883 C 0.63756 0.29173 0.8985 0.0
C1884 C 0.62488 0.31319 0.88763 0.0
C1885 C 0.63121 0.26634 0.89111 0.0
C1886 C 0.60678 0.30868 0.86803 0.0
C1887 C 0.60041 0.28344 0.86051 0.0
H1888 H 0.28538 0.91837 0.65943 0.0
H1889 H 0.31628 0.8683 0.60161 0.0
H1890 H 0.27248 0.85468 0.58969 0.0
H1891 H 0.22554 0.86072 0.59255 0.0
H1892 H 0.19468 0.91121 0.65004 0.0
H1893 H 0.23842 0.92076 0.66546 0.0
C1894 C 0.28264 0.90417 0.64441 0.0
C1895 C 0.30433 0.89456 0.63125 0.0
C1896 C 0.25737 0.89671 0.63751 0.0
C1897 C 0.3002 0.87595 0.61214 0.0
C1898 C 0.27507 0.86835 0.6052 0.0
C1899 C 0.22827 0.87361 0.60871 0.0
C1900 C 0.2066 0.88546 0.61994 0.0
C1901 C 0.25352 0.87916 0.61726 0.0
C1902 C 0.21073 0.90176 0.64106 0.0
C1903 C 0.23583 0.90735 0.64973 0.0
H1904 H 0.65372 0.72689 0.09483 0.0
H1905 H 0.59184 0.70887 0.14665 0.0
H1906 H 0.58376 0.75483 0.15236 0.0
H1907 H 0.59498 0.80027 0.14348 0.0
H1908 H 0.65676 0.81809 0.09146 0.0
H1909 H 0.66405 0.77216 0.08494 0.0
C1910 C 0.63838 0.73291 0.10737 0.0
C1911 C 0.62346 0.71417 0.12038 0.0
C1912 C 0.63384 0.75945 0.11052 0.0
C1913 C 0.60364 0.72263 0.1364 0.0
C1914 C 0.59905 0.749 0.13968 0.0
C1915 C 0.61 0.79419 0.13059 0.0
C1916 C 0.62534 0.8129 0.11799 0.0
C1917 C 0.61411 0.76761 0.12697 0.0
C1918 C 0.64463 0.80437 0.10138 0.0
C1919 C 0.64884 0.77801 0.0977 0.0
H1920 H 0.7945 0.14727 0.597 0.0
H1921 H 0.8264 0.09011 0.64751 0.0
H1922 H 0.78281 0.07738 0.66044 0.0
H1923 H 0.7358 0.0801 0.65465 0.0
H1924 H 0.7039 0.13705 0.60391 0.0
H1925 H 0.74747 0.15246 0.59404 0.0
C1926 C 0.79207 0.13209 0.61102 0.0
C1927 C 0.81402 0.11946 0.62103 0.0
C1928 C 0.7669 0.12482 0.61822 0.0
C1929 C 0.81016 0.10019 0.63947 0.0
C1930 C 0.78514 0.09283 0.64673 0.0
C1931 C 0.73823 0.09608 0.64155 0.0
C1932 C 0.71628 0.10721 0.62983 0.0
C1933 C 0.76339 0.10465 0.63583 0.0
C1934 C 0.72013 0.12812 0.61327 0.0
C1935 C 0.74514 0.1368 0.6075 0.0
H1936 H 0.41471 0.22934 0.14316 0.0
H1937 H 0.3545 0.21074 0.08882 0.0
H1938 H 0.34832 0.25655 0.08042 0.0
H1939 H 0.35918 0.30201 0.08922 0.0
H1940 H 0.41916 0.32079 0.14373 0.0
H1941 H 0.42629 0.27492 0.1512 0.0
C1942 C 0.40025 0.23522 0.12937 0.0
C1943 C 0.38504 0.2163 0.11667 0.0
C1944 C 0.39676 0.26174 0.12467 0.0
C1945 C 0.36648 0.22459 0.0989 0.0
C1946 C 0.36294 0.25089 0.09411 0.0
C1947 C 0.37396 0.29617 0.10267 0.0
C1948 C 0.38863 0.31514 0.11589 0.0
C1949 C 0.37785 0.26966 0.10697 0.0
C1950 C 0.4076 0.30688 0.13323 0.0
C1951 C 0.41164 0.28055 0.13754 0.0
H1952 H 0.14832 0.41985 0.23671 0.0
H1953 H 0.09213 0.36027 0.22148 0.0
H1954 H 0.08665 0.35383 0.26777 0.0
H1955 H 0.09909 0.36389 0.31265 0.0
H1956 H 0.15517 0.4236 0.32779 0.0
H1957 H 0.15929 0.43125 0.28157 0.0
C1958 C 0.13471 0.40551 0.24341 0.0
C1959 C 0.12069 0.39049 0.22532 0.0
C1960 C 0.13171 0.40189 0.27017 0.0
C1961 C 0.10316 0.37213 0.23469 0.0
C1962 C 0.10009 0.36841 0.26126 0.0
C1963 C 0.11215 0.37873 0.30594 0.0
C1964 C 0.12689 0.39311 0.32399 0.0
C1965 C 0.11444 0.38299 0.27919 0.0
C1966 C 0.14357 0.41225 0.31462 0.0
C1967 C 0.14597 0.41657 0.28809 0.0
H1968 H 0.08154 0.6508 0.72949 0.0
H1969 H 0.13962 0.60429 0.69409 0.0
H1970 H 0.15668 0.59354 0.73673 0.0
H1971 H 0.15252 0.59419 0.78383 0.0
H1972 H 0.09409 0.64017 0.81927 0.0
H1973 H 0.07993 0.65462 0.77666 0.0
C1974 C 0.09809 0.63841 0.73095 0.0
C1975 C 0.10905 0.62807 0.70834 0.0
C1976 C 0.10763 0.63221 0.75556 0.0
C1977 C 0.13075 0.6125 0.71091 0.0
C1978 C 0.1404 0.60626 0.73536 0.0
C1979 C 0.13681 0.60761 0.78237 0.0
C1980 C 0.1242 0.61585 0.80496 0.0
C1981 C 0.12862 0.61552 0.75779 0.0
C1982 C 0.1042 0.63354 0.80246 0.0
C1983 C 0.09599 0.64162 0.77801 0.0
H1984 H 0.86518 0.59192 0.21829 0.0
H1985 H 0.91916 0.64759 0.18838 0.0
H1986 H 0.92959 0.66128 0.2324 0.0
H1987 H 0.92582 0.655 0.27915 0.0
H1988 H 0.87221 0.59897 0.30903 0.0
H1989 H 0.85899 0.58798 0.265 0.0
C1990 C 0.87919 0.6072 0.22123 0.0
C1991 C 0.89163 0.61848 0.19974 0.0
C1992 C 0.88518 0.61477 0.24661 0.0
C1993 C 0.90929 0.63854 0.20426 0.0
C1994 C 0.91533 0.64624 0.22952 0.0
C1995 C 0.91109 0.64043 0.2762 0.0
C1996 C 0.90025 0.62759 0.29769 0.0
C1997 C 0.90379 0.63411 0.25081 0.0
C1998 C 0.88089 0.60917 0.29315 0.0
C1999 C 0.87347 0.6028 0.26789 0.0
H2000 H 0.86109 0.43128 0.78083 0.0
H2001 H 0.91425 0.37439 0.80814 0.0
H2002 H 0.92116 0.36025 0.76359 0.0
H2003 H 0.9135 0.3658 0.71641 0.0
H2004 H 0.86012 0.42329 0.69065 0.0
H2005 H 0.85217 0.43558 0.73509 0.0
C2006 C 0.87425 0.4157 0.77728 0.0
C2007 C 0.88733 0.40413 0.79815 0.0
C2008 C 0.87823 0.40794 0.75171 0.0
C2009 C 0.90385 0.38368 0.79275 0.0
C2010 C 0.90791 0.37573 0.76716 0.0
C2011 C 0.90007 0.38099 0.7205 0.0
C2012 C 0.88752 0.3937 0.6999 0.0
C2013 C 0.89547 0.38798 0.74641 0.0
C2014 C 0.8701 0.4132 0.70581 0.0
C2015 C 0.86554 0.42024 0.73132 0.0
H2016 H 0.71675 0.90467 0.6643 0.0
H2017 H 0.7015 0.84296 0.61107 0.0
H2018 H 0.74771 0.83469 0.60812 0.0
H2019 H 0.79276 0.84817 0.61714 0.0
H2020 H 0.80797 0.9081 0.67235 0.0
H2021 H 0.76164 0.91369 0.67837 0.0
C2022 C 0.7235 0.88905 0.65243 0.0
C2023 C 0.70554 0.87452 0.63778 0.0
C2024 C 0.75018 0.88423 0.6511 0.0
C2025 C 0.71471 0.85431 0.62265 0.0
C2026 C 0.74122 0.84973 0.62083 0.0
C2027 C 0.78594 0.86208 0.63095 0.0
C2028 C 0.80396 0.87777 0.64425 0.0
C2029 C 0.75918 0.86498 0.63446 0.0
C2030 C 0.79471 0.89562 0.66206 0.0
C2031 C 0.76813 0.89896 0.66531 0.0
H2032 H 0.60065 0.23238 0.1616 0.0
H2033 H 0.65985 0.20294 0.11211 0.0
H2034 H 0.67295 0.24714 0.1019 0.0
H2035 H 0.66639 0.29343 0.10563 0.0
H2036 H 0.60575 0.3229 0.15333 0.0
H2037 H 0.59447 0.27877 0.16579 0.0
C2038 C 0.61659 0.23533 0.14862 0.0
C2039 C 0.62925 0.2139 0.13763 0.0
C2040 C 0.62364 0.26075 0.14251 0.0
C2041 C 0.64975 0.21871 0.1209 0.0
C2042 C 0.65717 0.24405 0.11504 0.0
C2043 C 0.65068 0.29053 0.11889 0.0
C2044 C 0.63689 0.31192 0.12848 0.0
C2045 C 0.64406 0.26515 0.12553 0.0
C2046 C 0.61673 0.30716 0.14563 0.0
C2047 C 0.61027 0.28185 0.15268 0.0
H2048 H 0.22635 0.15864 0.61373 0.0
H2049 H 0.213 0.10586 0.67596 0.0
H2050 H 0.25949 0.10169 0.68234 0.0
H2051 H 0.30392 0.10942 0.66704 0.0
H2052 H 0.31748 0.16399 0.60645 0.0
H2053 H 0.2711 0.1714 0.60283 0.0
C2054 C 0.23361 0.1466 0.62904 0.0
C2055 C 0.21606 0.13243 0.64427 0.0
C2056 C 0.26047 0.14453 0.63276 0.0
C2057 C 0.22589 0.11708 0.66408 0.0
C2058 C 0.25255 0.11455 0.66759 0.0
C2059 C 0.29677 0.12339 0.65342 0.0
C2060 C 0.31429 0.13611 0.63696 0.0
C2061 C 0.27003 0.12766 0.65162 0.0
C2062 C 0.30462 0.15415 0.61949 0.0
C2063 C 0.27801 0.15818 0.61728 0.0
H2064 H 0.40614 0.79486 0.15934 0.0
H2065 H 0.3453 0.82575 0.11215 0.0
H2066 H 0.33029 0.78183 0.10284 0.0
H2067 H 0.33521 0.73529 0.10729 0.0
H2068 H 0.39722 0.70457 0.15306 0.0
H2069 H 0.41088 0.74847 0.16403 0.0
C2070 C 0.38946 0.79232 0.14703 0.0
C2071 C 0.37685 0.81404 0.13647 0.0
C2072 C 0.38118 0.76709 0.14162 0.0
C2073 C 0.35542 0.80974 0.12054 0.0
C2074 C 0.34686 0.78456 0.11526 0.0
C2075 C 0.3517 0.73789 0.11985 0.0
C2076 C 0.36514 0.7162 0.12939 0.0
C2077 C 0.3597 0.76316 0.12561 0.0
C2078 C 0.38643 0.72055 0.1455 0.0
C2079 C 0.39427 0.74572 0.15167 0.0
H2080 H 0.72484 0.09982 0.34791 0.0
H2081 H 0.69477 0.15971 0.39635 0.0
H2082 H 0.7389 0.17401 0.40595 0.0
H2083 H 0.78534 0.16882 0.40141 0.0
H2084 H 0.8155 0.10784 0.3544 0.0
H2085 H 0.77135 0.09469 0.34328 0.0
C2086 C 0.72762 0.11616 0.36054 0.0
C2087 C 0.70602 0.12872 0.37133 0.0
C2088 C 0.75301 0.124 0.36619 0.0
C2089 C 0.71065 0.14967 0.38771 0.0
C2090 C 0.73596 0.1578 0.39319 0.0
C2091 C 0.7826 0.15265 0.38855 0.0
C2092 C 0.80422 0.13939 0.37869 0.0
C2093 C 0.75722 0.14501 0.38264 0.0
C2094 C 0.79961 0.11848 0.36225 0.0
C2095 C 0.77429 0.11097 0.35596 0.0
H2096 H 0.36069 0.28128 0.88993 0.0
H2097 H 0.42571 0.29532 0.84096 0.0
H2098 H 0.43075 0.24891 0.83492 0.0
H2099 H 0.41958 0.20429 0.84762 0.0
H2100 H 0.35318 0.19022 0.89471 0.0
H2101 H 0.34551 0.23657 0.89717 0.0
C2102 C 0.37566 0.2742 0.87748 0.0
C2103 C 0.39293 0.29188 0.866 0.0
C2104 C 0.37826 0.24743 0.87395 0.0
C2105 C 0.41209 0.28231 0.84987 0.0
C2106 C 0.41507 0.2557 0.8466 0.0
C2107 C 0.40307 0.21133 0.85797 0.0
C2108 C 0.387 0.19368 0.87108 0.0
C2109 C 0.39871 0.23807 0.8591 0.0
C2110 C 0.3657 0.2032 0.88429 0.0
C2111 C 0.36147 0.22978 0.88587 0.0
H2112 H 0.21064 0.84662 0.4215 0.0
H2113 H 0.17953 0.8923 0.35972 0.0
H2114 H 0.22302 0.89834 0.34274 0.0
H2115 H 0.2694 0.89229 0.34647 0.0
H2116 H 0.30107 0.84877 0.40951 0.0
H2117 H 0.25728 0.83983 0.42473 0.0
C2118 C 0.2131 0.85785 0.40417 0.0
C2119 C 0.19139 0.86904 0.39194 0.0
C2120 C 0.23822 0.86155 0.39478 0.0
C2121 C 0.19552 0.88348 0.3696 0.0
C2122 C 0.22046 0.88692 0.35992 0.0
C2123 C 0.26704 0.88071 0.36358 0.0
C2124 C 0.28899 0.87134 0.37689 0.0
C2125 C 0.24192 0.87627 0.37251 0.0
C2126 C 0.2849 0.85621 0.39879 0.0
C2127 C 0.25979 0.85125 0.40755 0.0
H2128 H 0.66057 0.72612 0.87859 0.0
H2129 H 0.58999 0.71319 0.83675 0.0
H2130 H 0.58409 0.75975 0.83296 0.0
H2131 H 0.59674 0.80404 0.8458 0.0
H2132 H 0.66851 0.81697 0.88562 0.0
H2133 H 0.67642 0.77061 0.8857 0.0
C2134 C 0.64415 0.7335 0.86814 0.0
C2135 C 0.62565 0.71609 0.85802 0.0
C2136 C 0.64105 0.76033 0.86591 0.0
C2137 C 0.60459 0.72601 0.8445 0.0
C2138 C 0.60113 0.75269 0.84256 0.0
C2139 C 0.61438 0.79676 0.85407 0.0
C2140 C 0.63197 0.81407 0.86586 0.0
C2141 C 0.61888 0.77003 0.85379 0.0
C2142 C 0.65475 0.80424 0.87631 0.0
C2143 C 0.65916 0.77766 0.87652 0.0
H2144 H 0.85347 0.62889 0.78757 0.0
H2145 H 0.92339 0.67239 0.79931 0.0
H2146 H 0.9286 0.67628 0.75265 0.0
H2147 H 0.91581 0.66279 0.70866 0.0
H2148 H 0.84496 0.62076 0.69699 0.0
H2149 H 0.83738 0.62098 0.74343 0.0
C2150 C 0.86955 0.63977 0.77991 0.0
C2151 C 0.88808 0.65033 0.79699 0.0
C2152 C 0.87235 0.64188 0.75306 0.0
C2153 C 0.90875 0.66435 0.78673 0.0
C2154 C 0.91184 0.66631 0.76 0.0
C2155 C 0.89846 0.65406 0.71624 0.0
C2156 C 0.88104 0.64154 0.69928 0.0
C2157 C 0.89417 0.65449 0.743 0.0
C2158 C 0.85859 0.63056 0.70946 0.0
C2159 C 0.85437 0.63056 0.73607 0.0
H2160 H 0.90383 0.34695 0.27869 0.0
H2161 H 0.84916 0.40084 0.30892 0.0
H2162 H 0.83701 0.41254 0.26484 0.0
H2163 H 0.84168 0.40706 0.21837 0.0
H2164 H 0.89681 0.35355 0.18823 0.0
H2165 H 0.90897 0.34194 0.23229 0.0
C2166 C 0.8891 0.36125 0.27594 0.0
C2167 C 0.87724 0.37284 0.29752 0.0
C2168 C 0.88232 0.36782 0.25062 0.0
C2169 C 0.85858 0.39156 0.29301 0.0
C2170 C 0.85163 0.39817 0.26774 0.0
C2171 C 0.85634 0.39269 0.22114 0.0
C2172 C 0.86816 0.381 0.19956 0.0
C2173 C 0.86331 0.38632 0.24647 0.0
C2174 C 0.88728 0.36277 0.20412 0.0
C2175 C 0.89422 0.35619 0.22938 0.0
H2176 H 0.17762 0.3973 0.80496 0.0
H2177 H 0.11788 0.34665 0.83316 0.0
H2178 H 0.1061 0.33591 0.78868 0.0
H2179 H 0.11212 0.34175 0.74235 0.0
H2180 H 0.17087 0.39361 0.71431 0.0
H2181 H 0.18372 0.40302 0.75876 0.0
C2182 C 0.16201 0.38374 0.80171 0.0
C2183 C 0.14869 0.37274 0.82288 0.0
C2184 C 0.15518 0.37798 0.77613 0.0
C2185 C 0.12854 0.35539 0.81762 0.0
C2186 C 0.1218 0.34931 0.79211 0.0
C2187 C 0.12789 0.35509 0.74567 0.0
C2188 C 0.14056 0.36691 0.72454 0.0
C2189 C 0.13491 0.36061 0.77127 0.0
C2190 C 0.16077 0.38418 0.72982 0.0
C2191 C 0.16808 0.38956 0.75532 0.0
H2192 H 0.10395 0.66244 0.29634 0.0
H2193 H 0.16525 0.60902 0.30952 0.0
H2194 H 0.17114 0.60458 0.26303 0.0
H2195 H 0.15544 0.61223 0.2187 0.0
H2196 H 0.09588 0.66751 0.20536 0.0
H2197 H 0.09286 0.67517 0.25176 0.0
C2198 C 0.11899 0.65024 0.28903 0.0
C2199 C 0.13409 0.63595 0.30647 0.0
C2200 C 0.12237 0.64799 0.26223 0.0
C2201 C 0.15353 0.62035 0.29666 0.0
C2202 C 0.15672 0.61765 0.27003 0.0
C2203 C 0.14215 0.62637 0.22593 0.0
C2204 C 0.12577 0.63921 0.20854 0.0
C2205 C 0.14078 0.63083 0.25264 0.0
C2206 C 0.10878 0.65753 0.21821 0.0
C2207 C 0.10694 0.66173 0.2448 0.0
loop_
_geom_bond_atom_site_label_1
_geom_bond_atom_site_label_2
_geom_bond_distance
_geom_bond_site_symmetry_2
_ccdc_geom_bond_type
Co0 O1 2.216 . S
Co0 O2 2.091 . S
Co0 O4 2.004 . S
Co0 O10 2.021 . S
Co0 O12 2.137 . S
Co0 O13 2.244 . S
O1 Co0 2.216 . S
O1 C8 1.247 . S
O2 Co0 2.091 . S
O2 C8 1.261 . S
C3 O12 1.247 . S
C3 O13 1.272 . S
O4 Co0 2.004 . S
O4 C9 1.259 . S
Co5 O6 2.061 . S
Co5 O11 2.052 . S
Co5 O13 2.135 . S
O6 Co5 2.061 . S
O6 C9 1.235 . S
C7 O10 1.238 . S
C7 O11 1.241 . S
C8 O1 1.247 . S
C8 O2 1.261 . S
C9 O4 1.259 . S
C9 O6 1.235 . S
O10 Co0 2.021 . S
O10 C7 1.238 . S
O11 Co5 2.052 . S
O11 C7 1.241 . S
O12 Co0 2.137 . S
O12 C3 1.247 . S
O13 Co0 2.244 . S
O13 C3 1.272 . S
O13 Co5 2.135 . S
Co14 O15 2.216 . S
Co14 O16 2.091 . S
Co14 O18 2.004 . S
Co14 O24 2.021 . S
Co14 O26 2.137 . S
Co14 O27 2.244 . S
O15 Co14 2.216 . S
O15 C22 1.247 . S
O16 Co14 2.091 . S
O16 C22 1.261 . S
C17 O26 1.247 . S
C17 O27 1.272 . S
O18 Co14 2.004 . S
O18 C23 1.259 . S
Co19 O20 2.061 . S
Co19 O25 2.052 . S
Co19 O27 2.135 . S
O20 Co19 2.061 . S
O20 C23 1.235 . S
C21 O24 1.238 . S
C21 O25 1.241 . S
C22 O15 1.247 . S
C22 O16 1.261 . S
C23 O18 1.259 . S
C23 O20 1.235 . S
O24 Co14 2.021 . S
O24 C21 1.238 . S
O25 Co19 2.052 . S
O25 C21 1.241 . S
O26 Co14 2.137 . S
O26 C17 1.247 . S
O27 Co14 2.244 . S
O27 C17 1.272 . S
O27 Co19 2.135 . S
Co28 O29 2.216 . S
Co28 O30 2.091 . S
Co28 O32 2.004 . S
Co28 O38 2.021 . S
Co28 O40 2.137 . S
Co28 O41 2.244 . S
O29 Co28 2.216 . S
O29 C36 1.247 . S
O30 Co28 2.091 . S
O30 C36 1.261 . S
C31 O40 1.247 . S
C31 O41 1.272 . S
O32 Co28 2.004 . S
O32 C37 1.259 . S
Co33 O34 2.061 . S
Co33 O39 2.052 . S
Co33 O41 2.135 . S
O34 Co33 2.061 . S
O34 C37 1.235 . S
C35 O38 1.238 . S
C35 O39 1.241 . S
C36 O29 1.247 . S
C36 O30 1.261 . S
C37 O32 1.259 . S
C37 O34 1.235 . S
O38 Co28 2.021 . S
O38 C35 1.238 . S
O39 Co33 2.052 . S
O39 C35 1.241 . S
O40 Co28 2.137 . S
O40 C31 1.247 . S
O41 Co28 2.244 . S
O41 C31 1.272 . S
O41 Co33 2.135 . S
Co42 O43 2.216 . S
Co42 O44 2.091 . S
Co42 O46 2.004 . S
Co42 O52 2.021 . S
Co42 O54 2.137 . S
Co42 O55 2.244 . S
O43 Co42 2.216 . S
O43 C50 1.247 . S
O44 Co42 2.091 . S
O44 C50 1.261 . S
C45 O54 1.247 . S
C45 O55 1.272 . S
O46 Co42 2.004 . S
O46 C51 1.259 . S
Co47 O48 2.061 . S
Co47 O53 2.052 . S
Co47 O55 2.135 . S
O48 Co47 2.061 . S
O48 C51 1.235 . S
C49 O52 1.238 . S
C49 O53 1.241 . S
C50 O43 1.247 . S
C50 O44 1.261 . S
C51 O46 1.259 . S
C51 O48 1.235 . S
O52 Co42 2.021 . S
O52 C49 1.238 . S
O53 Co47 2.052 . S
O53 C49 1.241 . S
O54 Co42 2.137 . S
O54 C45 1.247 . S
O55 Co42 2.244 . S
O55 C45 1.272 . S
O55 Co47 2.135 . S
Co56 O57 2.216 . S
Co56 O58 2.091 . S
Co56 O60 2.004 . S
Co56 O66 2.021 . S
Co56 O68 2.137 . S
Co56 O69 2.244 . S
O57 Co56 2.216 . S
O57 C64 1.247 . S
O58 Co56 2.091 . S
O58 C64 1.261 . S
C59 O68 1.247 . S
C59 O69 1.272 . S
O60 Co56 2.004 . S
O60 C65 1.259 . S
Co61 O62 2.061 . S
Co61 O67 2.052 . S
Co61 O69 2.135 . S
O62 Co61 2.061 . S
O62 C65 1.235 . S
C63 O66 1.238 . S
C63 O67 1.241 . S
C64 O57 1.247 . S
C64 O58 1.261 . S
C65 O60 1.259 . S
C65 O62 1.235 . S
O66 Co56 2.021 . S
O66 C63 1.238 . S
O67 Co61 2.052 . S
O67 C63 1.241 . S
O68 Co56 2.137 . S
O68 C59 1.247 . S
O69 Co56 2.244 . S
O69 C59 1.272 . S
O69 Co61 2.135 . S
Co70 O71 2.216 . S
Co70 O72 2.091 . S
Co70 O74 2.004 . S
Co70 O80 2.021 . S
Co70 O82 2.137 . S
Co70 O83 2.244 . S
O71 Co70 2.216 . S
O71 C78 1.247 . S
O72 Co70 2.091 . S
O72 C78 1.261 . S
C73 O82 1.247 . S
C73 O83 1.272 . S
O74 Co70 2.004 . S
O74 C79 1.259 . S
Co75 O76 2.061 . S
Co75 O81 2.052 . S
Co75 O83 2.135 . S
O76 Co75 2.061 . S
O76 C79 1.235 . S
C77 O80 1.238 . S
C77 O81 1.241 . S
C78 O71 1.247 . S
C78 O72 1.261 . S
C79 O74 1.259 . S
C79 O76 1.235 . S
O80 Co70 2.021 . S
O80 C77 1.238 . S
O81 Co75 2.052 . S
O81 C77 1.241 . S
O82 Co70 2.137 . S
O82 C73 1.247 . S
O83 Co70 2.244 . S
O83 C73 1.272 . S
O83 Co75 2.135 . S
Co84 O85 2.216 . S
Co84 O86 2.091 . S
Co84 O88 2.004 . S
Co84 O94 2.021 . S
Co84 O96 2.137 . S
Co84 O97 2.244 . S
O85 Co84 2.216 . S
O85 C92 1.247 . S
O86 Co84 2.091 . S
O86 C92 1.261 . S
C87 O96 1.247 . S
C87 O97 1.272 . S
O88 Co84 2.004 . S
O88 C93 1.259 . S
Co89 O90 2.061 . S
Co89 O95 2.052 . S
Co89 O97 2.135 . S
O90 Co89 2.061 . S
O90 C93 1.235 . S
C91 O94 1.238 . S
C91 O95 1.241 . S
C92 O85 1.247 . S
C92 O86 1.261 . S
C93 O88 1.259 . S
C93 O90 1.235 . S
O94 Co84 2.021 . S
O94 C91 1.238 . S
O95 Co89 2.052 . S
O95 C91 1.241 . S
O96 Co84 2.137 . S
O96 C87 1.247 . S
O97 Co84 2.244 . S
O97 C87 1.272 . S
O97 Co89 2.135 . S
Co98 O99 2.216 . S
Co98 O100 2.091 . S
Co98 O102 2.004 . S
Co98 O108 2.021 . S
Co98 O110 2.137 . S
Co98 O111 2.244 . S
O99 Co98 2.216 . S
O99 C106 1.247 . S
O100 Co98 2.091 . S
O100 C106 1.261 . S
C101 O110 1.247 . S
C101 O111 1.272 . S
O102 Co98 2.004 . S
O102 C107 1.259 . S
Co103 O104 2.061 . S
Co103 O109 2.052 . S
Co103 O111 2.135 . S
O104 Co103 2.061 . S
O104 C107 1.235 . S
C105 O108 1.238 . S
C105 O109 1.241 . S
C106 O99 1.247 . S
C106 O100 1.261 . S
C107 O102 1.259 . S
C107 O104 1.235 . S
O108 Co98 2.021 . S
O108 C105 1.238 . S
O109 Co103 2.052 . S
O109 C105 1.241 . S
O110 Co98 2.137 . S
O110 C101 1.247 . S
O111 Co98 2.244 . S
O111 C101 1.272 . S
O111 Co103 2.135 . S
Co112 O113 2.216 . S
Co112 O114 2.091 . S
Co112 O116 2.004 . S
Co112 O122 2.021 . S
Co112 O124 2.137 . S
Co112 O125 2.244 . S
O113 Co112 2.216 . S
O113 C120 1.247 . S
O114 Co112 2.091 . S
O114 C120 1.261 . S
C115 O124 1.247 . S
C115 O125 1.272 . S
O116 Co112 2.004 . S
O116 C121 1.259 . S
Co117 O118 2.061 . S
Co117 O123 2.052 . S
Co117 O125 2.135 . S
O118 Co117 2.061 . S
O118 C121 1.235 . S
C119 O122 1.238 . S
C119 O123 1.241 . S
C120 O113 1.247 . S
C120 O114 1.261 . S
C121 O116 1.259 . S
C121 O118 1.235 . S
O122 Co112 2.021 . S
O122 C119 1.238 . S
O123 Co117 2.052 . S
O123 C119 1.241 . S
O124 Co112 2.137 . S
O124 C115 1.247 . S
O125 Co112 2.244 . S
O125 C115 1.272 . S
O125 Co117 2.135 . S
Co126 O127 2.216 . S
Co126 O128 2.091 . S
Co126 O130 2.004 . S
Co126 O136 2.021 . S
Co126 O138 2.137 . S
Co126 O139 2.244 . S
O127 Co126 2.216 . S
O127 C134 1.247 . S
O128 Co126 2.091 . S
O128 C134 1.261 . S
C129 O138 1.247 . S
C129 O139 1.272 . S
O130 Co126 2.004 . S
O130 C135 1.259 . S
Co131 O132 2.061 . S
Co131 O137 2.052 . S
Co131 O139 2.135 . S
O132 Co131 2.061 . S
O132 C135 1.235 . S
C133 O136 1.238 . S
C133 O137 1.241 . S
C134 O127 1.247 . S
C134 O128 1.261 . S
C135 O130 1.259 . S
C135 O132 1.235 . S
O136 Co126 2.021 . S
O136 C133 1.238 . S
O137 Co131 2.052 . S
O137 C133 1.241 . S
O138 Co126 2.137 . S
O138 C129 1.247 . S
O139 Co126 2.244 . S
O139 C129 1.272 . S
O139 Co131 2.135 . S
Co140 O141 2.216 . S
Co140 O142 2.091 . S
Co140 O144 2.004 . S
Co140 O150 2.021 . S
Co140 O152 2.137 . S
Co140 O153 2.244 . S
O141 Co140 2.216 . S
O141 C148 1.247 . S
O142 Co140 2.091 . S
O142 C148 1.261 . S
C143 O152 1.247 . S
C143 O153 1.272 . S
O144 Co140 2.004 . S
O144 C149 1.259 . S
Co145 O146 2.061 . S
Co145 O151 2.052 . S
Co145 O153 2.135 . S
O146 Co145 2.061 . S
O146 C149 1.235 . S
C147 O150 1.238 . S
C147 O151 1.241 . S
C148 O141 1.247 . S
C148 O142 1.261 . S
C149 O144 1.259 . S
C149 O146 1.235 . S
O150 Co140 2.021 . S
O150 C147 1.238 . S
O151 Co145 2.052 . S
O151 C147 1.241 . S
O152 Co140 2.137 . S
O152 C143 1.247 . S
O153 Co140 2.244 . S
O153 C143 1.272 . S
O153 Co145 2.135 . S
Co154 O155 2.216 . S
Co154 O156 2.091 . S
Co154 O158 2.004 . S
Co154 O164 2.021 . S
Co154 O166 2.137 . S
Co154 O167 2.244 . S
O155 Co154 2.216 . S
O155 C162 1.247 . S
O156 Co154 2.091 . S
O156 C162 1.261 . S
C157 O166 1.247 . S
C157 O167 1.272 . S
O158 Co154 2.004 . S
O158 C163 1.259 . S
Co159 O160 2.061 . S
Co159 O165 2.052 . S
Co159 O167 2.135 . S
O160 Co159 2.061 . S
O160 C163 1.235 . S
C161 O164 1.238 . S
C161 O165 1.241 . S
C162 O155 1.247 . S
C162 O156 1.261 . S
C163 O158 1.259 . S
C163 O160 1.235 . S
O164 Co154 2.021 . S
O164 C161 1.238 . S
O165 Co159 2.052 . S
O165 C161 1.241 . S
O166 Co154 2.137 . S
O166 C157 1.247 . S
O167 Co154 2.244 . S
O167 C157 1.272 . S
O167 Co159 2.135 . S
Co168 O169 2.216 . S
Co168 O170 2.091 . S
Co168 O172 2.004 . S
Co168 O178 2.021 . S
Co168 O180 2.137 . S
Co168 O181 2.244 . S
O169 Co168 2.216 . S
O169 C176 1.247 . S
O170 Co168 2.091 . S
O170 C176 1.261 . S
C171 O180 1.247 . S
C171 O181 1.272 . S
O172 Co168 2.004 . S
O172 C177 1.259 . S
Co173 O174 2.061 . S
Co173 O179 2.052 . S
Co173 O181 2.135 . S
O174 Co173 2.061 . S
O174 C177 1.235 . S
C175 O178 1.238 . S
C175 O179 1.241 . S
C176 O169 1.247 . S
C176 O170 1.261 . S
C177 O172 1.259 . S
C177 O174 1.235 . S
O178 Co168 2.021 . S
O178 C175 1.238 . S
O179 Co173 2.052 . S
O179 C175 1.241 . S
O180 Co168 2.137 . S
O180 C171 1.247 . S
O181 Co168 2.244 . S
O181 C171 1.272 . S
O181 Co173 2.135 . S
Co182 O183 2.216 . S
Co182 O184 2.091 . S
Co182 O186 2.004 . S
Co182 O192 2.021 . S
Co182 O194 2.137 . S
Co182 O195 2.244 . S
O183 Co182 2.216 . S
O183 C190 1.247 . S
O184 Co182 2.091 . S
O184 C190 1.261 . S
C185 O194 1.247 . S
C185 O195 1.272 . S
O186 Co182 2.004 . S
O186 C191 1.259 . S
Co187 O188 2.061 . S
Co187 O193 2.052 . S
Co187 O195 2.135 . S
O188 Co187 2.061 . S
O188 C191 1.235 . S
C189 O192 1.238 . S
C189 O193 1.241 . S
C190 O183 1.247 . S
C190 O184 1.261 . S
C191 O186 1.259 . S
C191 O188 1.235 . S
O192 Co182 2.021 . S
O192 C189 1.238 . S
O193 Co187 2.052 . S
O193 C189 1.241 . S
O194 Co182 2.137 . S
O194 C185 1.247 . S
O195 Co182 2.244 . S
O195 C185 1.272 . S
O195 Co187 2.135 . S
Co196 O197 2.216 . S
Co196 O198 2.091 . S
Co196 O200 2.004 . S
Co196 O206 2.021 . S
Co196 O208 2.137 . S
Co196 O209 2.244 . S
O197 Co196 2.216 . S
O197 C204 1.247 . S
O198 Co196 2.091 . S
O198 C204 1.261 . S
C199 O208 1.247 . S
C199 O209 1.272 . S
O200 Co196 2.004 . S
O200 C205 1.259 . S
Co201 O202 2.061 . S
Co201 O207 2.052 . S
Co201 O209 2.135 . S
O202 Co201 2.061 . S
O202 C205 1.235 . S
C203 O206 1.238 . S
C203 O207 1.241 . S
C204 O197 1.247 . S
C204 O198 1.261 . S
C205 O200 1.259 . S
C205 O202 1.235 . S
O206 Co196 2.021 . S
O206 C203 1.238 . S
O207 Co201 2.052 . S
O207 C203 1.241 . S
O208 Co196 2.137 . S
O208 C199 1.247 . S
O209 Co196 2.244 . S
O209 C199 1.272 . S
O209 Co201 2.135 . S
Co210 O211 2.216 . S
Co210 O212 2.091 . S
Co210 O214 2.004 . S
Co210 O220 2.021 . S
Co210 O222 2.137 . S
Co210 O223 2.244 . S
O211 Co210 2.216 . S
O211 C218 1.247 . S
O212 Co210 2.091 . S
O212 C218 1.261 . S
C213 O222 1.247 . S
C213 O223 1.272 . S
O214 Co210 2.004 . S
O214 C219 1.259 . S
Co215 O216 2.061 . S
Co215 O221 2.052 . S
Co215 O223 2.135 . S
O216 Co215 2.061 . S
O216 C219 1.235 . S
C217 O220 1.238 . S
C217 O221 1.241 . S
C218 O211 1.247 . S
C218 O212 1.261 . S
C219 O214 1.259 . S
C219 O216 1.235 . S
O220 Co210 2.021 . S
O220 C217 1.238 . S
O221 Co215 2.052 . S
O221 C217 1.241 . S
O222 Co210 2.137 . S
O222 C213 1.247 . S
O223 Co210 2.244 . S
O223 C213 1.272 . S
O223 Co215 2.135 . S
Co224 O225 2.216 . S
Co224 O226 2.091 . S
Co224 O228 2.004 . S
Co224 O234 2.021 . S
Co224 O236 2.137 . S
Co224 O237 2.244 . S
O225 Co224 2.216 . S
O225 C232 1.247 . S
O226 Co224 2.091 . S
O226 C232 1.261 . S
C227 O236 1.247 . S
C227 O237 1.272 . S
O228 Co224 2.004 . S
O228 C233 1.259 . S
Co229 O230 2.061 . S
Co229 O235 2.052 . S
Co229 O237 2.135 . S
O230 Co229 2.061 . S
O230 C233 1.235 . S
C231 O234 1.238 . S
C231 O235 1.241 . S
C232 O225 1.247 . S
C232 O226 1.261 . S
C233 O228 1.259 . S
C233 O230 1.235 . S
O234 Co224 2.021 . S
O234 C231 1.238 . S
O235 Co229 2.052 . S
O235 C231 1.241 . S
O236 Co224 2.137 . S
O236 C227 1.247 . S
O237 Co224 2.244 . S
O237 C227 1.272 . S
O237 Co229 2.135 . S
Co238 O239 2.216 . S
Co238 O240 2.091 . S
Co238 O242 2.004 . S
Co238 O248 2.021 . S
Co238 O250 2.137 . S
Co238 O251 2.244 . S
O239 Co238 2.216 . S
O239 C246 1.247 . S
O240 Co238 2.091 . S
O240 C246 1.261 . S
C241 O250 1.247 . S
C241 O251 1.272 . S
O242 Co238 2.004 . S
O242 C247 1.259 . S
Co243 O244 2.061 . S
Co243 O249 2.052 . S
Co243 O251 2.135 . S
O244 Co243 2.061 . S
O244 C247 1.235 . S
C245 O248 1.238 . S
C245 O249 1.241 . S
C246 O239 1.247 . S
C246 O240 1.261 . S
C247 O242 1.259 . S
C247 O244 1.235 . S
O248 Co238 2.021 . S
O248 C245 1.238 . S
O249 Co243 2.052 . S
O249 C245 1.241 . S
O250 Co238 2.137 . S
O250 C241 1.247 . S
O251 Co238 2.244 . S
O251 C241 1.272 . S
O251 Co243 2.135 . S
Co252 O253 2.216 . S
Co252 O254 2.091 . S
Co252 O256 2.004 . S
Co252 O262 2.021 . S
Co252 O264 2.137 . S
Co252 O265 2.244 . S
O253 Co252 2.216 . S
O253 C260 1.247 . S
O254 Co252 2.091 . S
O254 C260 1.261 . S
C255 O264 1.247 . S
C255 O265 1.272 . S
O256 Co252 2.004 . S
O256 C261 1.259 . S
Co257 O258 2.061 . S
Co257 O263 2.052 . S
Co257 O265 2.135 . S
O258 Co257 2.061 . S
O258 C261 1.235 . S
C259 O262 1.238 . S
C259 O263 1.241 . S
C260 O253 1.247 . S
C260 O254 1.261 . S
C261 O256 1.259 . S
C261 O258 1.235 . S
O262 Co252 2.021 . S
O262 C259 1.238 . S
O263 Co257 2.052 . S
O263 C259 1.241 . S
O264 Co252 2.137 . S
O264 C255 1.247 . S
O265 Co252 2.244 . S
O265 C255 1.272 . S
O265 Co257 2.135 . S
Co266 O267 2.216 . S
Co266 O268 2.091 . S
Co266 O270 2.004 . S
Co266 O276 2.021 . S
Co266 O278 2.137 . S
Co266 O279 2.244 . S
O267 Co266 2.216 . S
O267 C274 1.247 . S
O268 Co266 2.091 . S
O268 C274 1.261 . S
C269 O278 1.247 . S
C269 O279 1.272 . S
O270 Co266 2.004 . S
O270 C275 1.259 . S
Co271 O272 2.061 . S
Co271 O277 2.052 . S
Co271 O279 2.135 . S
O272 Co271 2.061 . S
O272 C275 1.235 . S
C273 O276 1.238 . S
C273 O277 1.241 . S
C274 O267 1.247 . S
C274 O268 1.261 . S
C275 O270 1.259 . S
C275 O272 1.235 . S
O276 Co266 2.021 . S
O276 C273 1.238 . S
O277 Co271 2.052 . S
O277 C273 1.241 . S
O278 Co266 2.137 . S
O278 C269 1.247 . S
O279 Co266 2.244 . S
O279 C269 1.272 . S
O279 Co271 2.135 . S
Co280 O281 2.216 . S
Co280 O282 2.091 . S
Co280 O284 2.004 . S
Co280 O290 2.021 . S
Co280 O292 2.137 . S
Co280 O293 2.244 . S
O281 Co280 2.216 . S
O281 C288 1.247 . S
O282 Co280 2.091 . S
O282 C288 1.261 . S
C283 O292 1.247 . S
C283 O293 1.272 . S
O284 Co280 2.004 . S
O284 C289 1.259 . S
Co285 O286 2.061 . S
Co285 O291 2.052 . S
Co285 O293 2.135 . S
O286 Co285 2.061 . S
O286 C289 1.235 . S
C287 O290 1.238 . S
C287 O291 1.241 . S
C288 O281 1.247 . S
C288 O282 1.261 . S
C289 O284 1.259 . S
C289 O286 1.235 . S
O290 Co280 2.021 . S
O290 C287 1.238 . S
O291 Co285 2.052 . S
O291 C287 1.241 . S
O292 Co280 2.137 . S
O292 C283 1.247 . S
O293 Co280 2.244 . S
O293 C283 1.272 . S
O293 Co285 2.135 . S
Co294 O295 2.216 . S
Co294 O296 2.091 . S
Co294 O298 2.004 . S
Co294 O304 2.021 . S
Co294 O306 2.137 . S
Co294 O307 2.244 . S
O295 Co294 2.216 . S
O295 C302 1.247 . S
O296 Co294 2.091 . S
O296 C302 1.261 . S
C297 O306 1.247 . S
C297 O307 1.272 . S
O298 Co294 2.004 . S
O298 C303 1.259 . S
Co299 O300 2.061 . S
Co299 O305 2.052 . S
Co299 O307 2.135 . S
O300 Co299 2.061 . S
O300 C303 1.235 . S
C301 O304 1.238 . S
C301 O305 1.241 . S
C302 O295 1.247 . S
C302 O296 1.261 . S
C303 O298 1.259 . S
C303 O300 1.235 . S
O304 Co294 2.021 . S
O304 C301 1.238 . S
O305 Co299 2.052 . S
O305 C301 1.241 . S
O306 Co294 2.137 . S
O306 C297 1.247 . S
O307 Co294 2.244 . S
O307 C297 1.272 . S
O307 Co299 2.135 . S
Co308 O309 2.216 . S
Co308 O310 2.091 . S
Co308 O312 2.004 . S
Co308 O318 2.021 . S
Co308 O320 2.137 . S
Co308 O321 2.244 . S
O309 Co308 2.216 . S
O309 C316 1.247 . S
O310 Co308 2.091 . S
O310 C316 1.261 . S
C311 O320 1.247 . S
C311 O321 1.272 . S
O312 Co308 2.004 . S
O312 C317 1.259 . S
Co313 O314 2.061 . S
Co313 O319 2.052 . S
Co313 O321 2.135 . S
O314 Co313 2.061 . S
O314 C317 1.235 . S
C315 O318 1.238 . S
C315 O319 1.241 . S
C316 O309 1.247 . S
C316 O310 1.261 . S
C317 O312 1.259 . S
C317 O314 1.235 . S
O318 Co308 2.021 . S
O318 C315 1.238 . S
O319 Co313 2.052 . S
O319 C315 1.241 . S
O320 Co308 2.137 . S
O320 C311 1.247 . S
O321 Co308 2.244 . S
O321 C311 1.272 . S
O321 Co313 2.135 . S
Co322 O323 2.216 . S
Co322 O324 2.091 . S
Co322 O326 2.004 . S
Co322 O332 2.021 . S
Co322 O334 2.137 . S
Co322 O335 2.244 . S
O323 Co322 2.216 . S
O323 C330 1.247 . S
O324 Co322 2.091 . S
O324 C330 1.261 . S
C325 O334 1.247 . S
C325 O335 1.272 . S
O326 Co322 2.004 . S
O326 C331 1.259 . S
Co327 O328 2.061 . S
Co327 O333 2.052 . S
Co327 O335 2.135 . S
O328 Co327 2.061 . S
O328 C331 1.235 . S
C329 O332 1.238 . S
C329 O333 1.241 . S
C330 O323 1.247 . S
C330 O324 1.261 . S
C331 O326 1.259 . S
C331 O328 1.235 . S
O332 Co322 2.021 . S
O332 C329 1.238 . S
O333 Co327 2.052 . S
O333 C329 1.241 . S
O334 Co322 2.137 . S
O334 C325 1.247 . S
O335 Co322 2.244 . S
O335 C325 1.272 . S
O335 Co327 2.135 . S
Co336 O337 2.216 . S
Co336 O338 2.091 . S
Co336 O340 2.004 . S
Co336 O346 2.021 . S
Co336 O348 2.137 . S
Co336 O349 2.244 . S
O337 Co336 2.216 . S
O337 C344 1.247 . S
O338 Co336 2.091 . S
O338 C344 1.261 . S
C339 O348 1.247 . S
C339 O349 1.272 . S
O340 Co336 2.004 . S
O340 C345 1.259 . S
Co341 O342 2.061 . S
Co341 O347 2.052 . S
Co341 O349 2.135 . S
O342 Co341 2.061 . S
O342 C345 1.235 . S
C343 O346 1.238 . S
C343 O347 1.241 . S
C344 O337 1.247 . S
C344 O338 1.261 . S
C345 O340 1.259 . S
C345 O342 1.235 . S
O346 Co336 2.021 . S
O346 C343 1.238 . S
O347 Co341 2.052 . S
O347 C343 1.241 . S
O348 Co336 2.137 . S
O348 C339 1.247 . S
O349 Co336 2.244 . S
O349 C339 1.272 . S
O349 Co341 2.135 . S
Co350 O351 2.216 . S
Co350 O352 2.091 . S
Co350 O354 2.004 . S
Co350 O360 2.021 . S
Co350 O362 2.137 . S
Co350 O363 2.244 . S
O351 Co350 2.216 . S
O351 C358 1.247 . S
O352 Co350 2.091 . S
O352 C358 1.261 . S
C353 O362 1.247 . S
C353 O363 1.272 . S
O354 Co350 2.004 . S
O354 C359 1.259 . S
Co355 O356 2.061 . S
Co355 O361 2.052 . S
Co355 O363 2.135 . S
O356 Co355 2.061 . S
O356 C359 1.235 . S
C357 O360 1.238 . S
C357 O361 1.241 . S
C358 O351 1.247 . S
C358 O352 1.261 . S
C359 O354 1.259 . S
C359 O356 1.235 . S
O360 Co350 2.021 . S
O360 C357 1.238 . S
O361 Co355 2.052 . S
O361 C357 1.241 . S
O362 Co350 2.137 . S
O362 C353 1.247 . S
O363 Co350 2.244 . S
O363 C353 1.272 . S
O363 Co355 2.135 . S
Co364 O365 2.216 . S
Co364 O366 2.091 . S
Co364 O368 2.004 . S
Co364 O374 2.021 . S
Co364 O376 2.137 . S
Co364 O377 2.244 . S
O365 Co364 2.216 . S
O365 C372 1.247 . S
O366 Co364 2.091 . S
O366 C372 1.261 . S
C367 O376 1.247 . S
C367 O377 1.272 . S
O368 Co364 2.004 . S
O368 C373 1.259 . S
Co369 O370 2.061 . S
Co369 O375 2.052 . S
Co369 O377 2.135 . S
O370 Co369 2.061 . S
O370 C373 1.235 . S
C371 O374 1.238 . S
C371 O375 1.241 . S
C372 O365 1.247 . S
C372 O366 1.261 . S
C373 O368 1.259 . S
C373 O370 1.235 . S
O374 Co364 2.021 . S
O374 C371 1.238 . S
O375 Co369 2.052 . S
O375 C371 1.241 . S
O376 Co364 2.137 . S
O376 C367 1.247 . S
O377 Co364 2.244 . S
O377 C367 1.272 . S
O377 Co369 2.135 . S
Co378 O379 2.216 . S
Co378 O380 2.091 . S
Co378 O382 2.004 . S
Co378 O388 2.021 . S
Co378 O390 2.137 . S
Co378 O391 2.244 . S
O379 Co378 2.216 . S
O379 C386 1.247 . S
O380 Co378 2.091 . S
O380 C386 1.261 . S
C381 O390 1.247 . S
C381 O391 1.272 . S
O382 Co378 2.004 . S
O382 C387 1.259 . S
Co383 O384 2.061 . S
Co383 O389 2.052 . S
Co383 O391 2.135 . S
O384 Co383 2.061 . S
O384 C387 1.235 . S
C385 O388 1.238 . S
C385 O389 1.241 . S
C386 O379 1.247 . S
C386 O380 1.261 . S
C387 O382 1.259 . S
C387 O384 1.235 . S
O388 Co378 2.021 . S
O388 C385 1.238 . S
O389 Co383 2.052 . S
O389 C385 1.241 . S
O390 Co378 2.137 . S
O390 C381 1.247 . S
O391 Co378 2.244 . S
O391 C381 1.272 . S
O391 Co383 2.135 . S
Co392 O393 2.216 . S
Co392 O394 2.091 . S
Co392 O396 2.004 . S
Co392 O402 2.021 . S
Co392 O404 2.137 . S
Co392 O405 2.244 . S
O393 Co392 2.216 . S
O393 C400 1.247 . S
O394 Co392 2.091 . S
O394 C400 1.261 . S
C395 O404 1.247 . S
C395 O405 1.272 . S
O396 Co392 2.004 . S
O396 C401 1.259 . S
Co397 O398 2.061 . S
Co397 O403 2.052 . S
Co397 O405 2.135 . S
O398 Co397 2.061 . S
O398 C401 1.235 . S
C399 O402 1.238 . S
C399 O403 1.241 . S
C400 O393 1.247 . S
C400 O394 1.261 . S
C401 O396 1.259 . S
C401 O398 1.235 . S
O402 Co392 2.021 . S
O402 C399 1.238 . S
O403 Co397 2.052 . S
O403 C399 1.241 . S
O404 Co392 2.137 . S
O404 C395 1.247 . S
O405 Co392 2.244 . S
O405 C395 1.272 . S
O405 Co397 2.135 . S
Co406 O407 2.216 . S
Co406 O408 2.091 . S
Co406 O410 2.004 . S
Co406 O416 2.021 . S
Co406 O418 2.137 . S
Co406 O419 2.244 . S
O407 Co406 2.216 . S
O407 C414 1.247 . S
O408 Co406 2.091 . S
O408 C414 1.261 . S
C409 O418 1.247 . S
C409 O419 1.272 . S
O410 Co406 2.004 . S
O410 C415 1.259 . S
Co411 O412 2.061 . S
Co411 O417 2.052 . S
Co411 O419 2.135 . S
O412 Co411 2.061 . S
O412 C415 1.235 . S
C413 O416 1.238 . S
C413 O417 1.241 . S
C414 O407 1.247 . S
C414 O408 1.261 . S
C415 O410 1.259 . S
C415 O412 1.235 . S
O416 Co406 2.021 . S
O416 C413 1.238 . S
O417 Co411 2.052 . S
O417 C413 1.241 . S
O418 Co406 2.137 . S
O418 C409 1.247 . S
O419 Co406 2.244 . S
O419 C409 1.272 . S
O419 Co411 2.135 . S
Co420 O421 2.216 . S
Co420 O422 2.091 . S
Co420 O424 2.004 . S
Co420 O430 2.021 . S
Co420 O432 2.137 . S
Co420 O433 2.244 . S
O421 Co420 2.216 . S
O421 C428 1.247 . S
O422 Co420 2.091 . S
O422 C428 1.261 . S
C423 O432 1.247 . S
C423 O433 1.272 . S
O424 Co420 2.004 . S
O424 C429 1.259 . S
Co425 O426 2.061 . S
Co425 O431 2.052 . S
Co425 O433 2.135 . S
O426 Co425 2.061 . S
O426 C429 1.235 . S
C427 O430 1.238 . S
C427 O431 1.241 . S
C428 O421 1.247 . S
C428 O422 1.261 . S
C429 O424 1.259 . S
C429 O426 1.235 . S
O430 Co420 2.021 . S
O430 C427 1.238 . S
O431 Co425 2.052 . S
O431 C427 1.241 . S
O432 Co420 2.137 . S
O432 C423 1.247 . S
O433 Co420 2.244 . S
O433 C423 1.272 . S
O433 Co425 2.135 . S
Co434 O435 2.216 . S
Co434 O436 2.091 . S
Co434 O438 2.004 . S
Co434 O444 2.021 . S
Co434 O446 2.137 . S
Co434 O447 2.244 . S
O435 Co434 2.216 . S
O435 C442 1.247 . S
O436 Co434 2.091 . S
O436 C442 1.261 . S
C437 O446 1.247 . S
C437 O447 1.272 . S
O438 Co434 2.004 . S
O438 C443 1.259 . S
Co439 O440 2.061 . S
Co439 O445 2.052 . S
Co439 O447 2.135 . S
O440 Co439 2.061 . S
O440 C443 1.235 . S
C441 O444 1.238 . S
C441 O445 1.241 . S
C442 O435 1.247 . S
C442 O436 1.261 . S
C443 O438 1.259 . S
C443 O440 1.235 . S
O444 Co434 2.021 . S
O444 C441 1.238 . S
O445 Co439 2.052 . S
O445 C441 1.241 . S
O446 Co434 2.137 . S
O446 C437 1.247 . S
O447 Co434 2.244 . S
O447 C437 1.272 . S
O447 Co439 2.135 . S
Co448 O449 2.216 . S
Co448 O450 2.091 . S
Co448 O452 2.004 . S
Co448 O458 2.021 . S
Co448 O460 2.137 . S
Co448 O461 2.244 . S
O449 Co448 2.216 . S
O449 C456 1.247 . S
O450 Co448 2.091 . S
O450 C456 1.261 . S
C451 O460 1.247 . S
C451 O461 1.272 . S
O452 Co448 2.004 . S
O452 C457 1.259 . S
Co453 O454 2.061 . S
Co453 O459 2.052 . S
Co453 O461 2.135 . S
O454 Co453 2.061 . S
O454 C457 1.235 . S
C455 O458 1.238 . S
C455 O459 1.241 . S
C456 O449 1.247 . S
C456 O450 1.261 . S
C457 O452 1.259 . S
C457 O454 1.235 . S
O458 Co448 2.021 . S
O458 C455 1.238 . S
O459 Co453 2.052 . S
O459 C455 1.241 . S
O460 Co448 2.137 . S
O460 C451 1.247 . S
O461 Co448 2.244 . S
O461 C451 1.272 . S
O461 Co453 2.135 . S
Co462 O463 2.216 . S
Co462 O464 2.091 . S
Co462 O466 2.004 . S
Co462 O472 2.021 . S
Co462 O474 2.137 . S
Co462 O475 2.244 . S
O463 Co462 2.216 . S
O463 C470 1.247 . S
O464 Co462 2.091 . S
O464 C470 1.261 . S
C465 O474 1.247 . S
C465 O475 1.272 . S
O466 Co462 2.004 . S
O466 C471 1.259 . S
Co467 O468 2.061 . S
Co467 O473 2.052 . S
Co467 O475 2.135 . S
O468 Co467 2.061 . S
O468 C471 1.235 . S
C469 O472 1.238 . S
C469 O473 1.241 . S
C470 O463 1.247 . S
C470 O464 1.261 . S
C471 O466 1.259 . S
C471 O468 1.235 . S
O472 Co462 2.021 . S
O472 C469 1.238 . S
O473 Co467 2.052 . S
O473 C469 1.241 . S
O474 Co462 2.137 . S
O474 C465 1.247 . S
O475 Co462 2.244 . S
O475 C465 1.272 . S
O475 Co467 2.135 . S
Co476 O477 2.216 . S
Co476 O478 2.091 . S
Co476 O480 2.004 . S
Co476 O486 2.021 . S
Co476 O488 2.137 . S
Co476 O489 2.244 . S
O477 Co476 2.216 . S
O477 C484 1.247 . S
O478 Co476 2.091 . S
O478 C484 1.261 . S
C479 O488 1.247 . S
C479 O489 1.272 . S
O480 Co476 2.004 . S
O480 C485 1.259 . S
Co481 O482 2.061 . S
Co481 O487 2.052 . S
Co481 O489 2.135 . S
O482 Co481 2.061 . S
O482 C485 1.235 . S
C483 O486 1.238 . S
C483 O487 1.241 . S
C484 O477 1.247 . S
C484 O478 1.261 . S
C485 O480 1.259 . S
C485 O482 1.235 . S
O486 Co476 2.021 . S
O486 C483 1.238 . S
O487 Co481 2.052 . S
O487 C483 1.241 . S
O488 Co476 2.137 . S
O488 C479 1.247 . S
O489 Co476 2.244 . S
O489 C479 1.272 . S
O489 Co481 2.135 . S
Co490 O491 2.216 . S
Co490 O492 2.091 . S
Co490 O494 2.004 . S
Co490 O500 2.021 . S
Co490 O502 2.137 . S
Co490 O503 2.244 . S
O491 Co490 2.216 . S
O491 C498 1.247 . S
O492 Co490 2.091 . S
O492 C498 1.261 . S
C493 O502 1.247 . S
C493 O503 1.272 . S
O494 Co490 2.004 . S
O494 C499 1.259 . S
Co495 O496 2.061 . S
Co495 O501 2.052 . S
Co495 O503 2.135 . S
O496 Co495 2.061 . S
O496 C499 1.235 . S
C497 O500 1.238 . S
C497 O501 1.241 . S
C498 O491 1.247 . S
C498 O492 1.261 . S
C499 O494 1.259 . S
C499 O496 1.235 . S
O500 Co490 2.021 . S
O500 C497 1.238 . S
O501 Co495 2.052 . S
O501 C497 1.241 . S
O502 Co490 2.137 . S
O502 C493 1.247 . S
O503 Co490 2.244 . S
O503 C493 1.272 . S
O503 Co495 2.135 . S
Co504 O505 2.216 . S
Co504 O506 2.091 . S
Co504 O508 2.004 . S
Co504 O514 2.021 . S
Co504 O516 2.137 . S
Co504 O517 2.244 . S
O505 Co504 2.216 . S
O505 C512 1.247 . S
O506 Co504 2.091 . S
O506 C512 1.261 . S
C507 O516 1.247 . S
C507 O517 1.272 . S
O508 Co504 2.004 . S
O508 C513 1.259 . S
Co509 O510 2.061 . S
Co509 O515 2.052 . S
Co509 O517 2.135 . S
O510 Co509 2.061 . S
O510 C513 1.235 . S
C511 O514 1.238 . S
C511 O515 1.241 . S
C512 O505 1.247 . S
C512 O506 1.261 . S
C513 O508 1.259 . S
C513 O510 1.235 . S
O514 Co504 2.021 . S
O514 C511 1.238 . S
O515 Co509 2.052 . S
O515 C511 1.241 . S
O516 Co504 2.137 . S
O516 C507 1.247 . S
O517 Co504 2.244 . S
O517 C507 1.272 . S
O517 Co509 2.135 . S
Co518 O519 2.216 . S
Co518 O520 2.091 . S
Co518 O522 2.004 . S
Co518 O528 2.021 . S
Co518 O530 2.137 . S
Co518 O531 2.244 . S
O519 Co518 2.216 . S
O519 C526 1.247 . S
O520 Co518 2.091 . S
O520 C526 1.261 . S
C521 O530 1.247 . S
C521 O531 1.272 . S
O522 Co518 2.004 . S
O522 C527 1.259 . S
Co523 O524 2.061 . S
Co523 O529 2.052 . S
Co523 O531 2.135 . S
O524 Co523 2.061 . S
O524 C527 1.235 . S
C525 O528 1.238 . S
C525 O529 1.241 . S
C526 O519 1.247 . S
C526 O520 1.261 . S
C527 O522 1.259 . S
C527 O524 1.235 . S
O528 Co518 2.021 . S
O528 C525 1.238 . S
O529 Co523 2.052 . S
O529 C525 1.241 . S
O530 Co518 2.137 . S
O530 C521 1.247 . S
O531 Co518 2.244 . S
O531 C521 1.272 . S
O531 Co523 2.135 . S
Co532 O533 2.216 . S
Co532 O534 2.091 . S
Co532 O536 2.004 . S
Co532 O542 2.021 . S
Co532 O544 2.137 . S
Co532 O545 2.244 . S
O533 Co532 2.216 . S
O533 C540 1.247 . S
O534 Co532 2.091 . S
O534 C540 1.261 . S
C535 O544 1.247 . S
C535 O545 1.272 . S
O536 Co532 2.004 . S
O536 C541 1.259 . S
Co537 O538 2.061 . S
Co537 O543 2.052 . S
Co537 O545 2.135 . S
O538 Co537 2.061 . S
O538 C541 1.235 . S
C539 O542 1.238 . S
C539 O543 1.241 . S
C540 O533 1.247 . S
C540 O534 1.261 . S
C541 O536 1.259 . S
C541 O538 1.235 . S
O542 Co532 2.021 . S
O542 C539 1.238 . S
O543 Co537 2.052 . S
O543 C539 1.241 . S
O544 Co532 2.137 . S
O544 C535 1.247 . S
O545 Co532 2.244 . S
O545 C535 1.272 . S
O545 Co537 2.135 . S
Co546 O547 2.216 . S
Co546 O548 2.091 . S
Co546 O550 2.004 . S
Co546 O556 2.021 . S
Co546 O558 2.137 . S
Co546 O559 2.244 . S
O547 Co546 2.216 . S
O547 C554 1.247 . S
O548 Co546 2.091 . S
O548 C554 1.261 . S
C549 O558 1.247 . S
C549 O559 1.272 . S
O550 Co546 2.004 . S
O550 C555 1.259 . S
Co551 O552 2.061 . S
Co551 O557 2.052 . S
Co551 O559 2.135 . S
O552 Co551 2.061 . S
O552 C555 1.235 . S
C553 O556 1.238 . S
C553 O557 1.241 . S
C554 O547 1.247 . S
C554 O548 1.261 . S
C555 O550 1.259 . S
C555 O552 1.235 . S
O556 Co546 2.021 . S
O556 C553 1.238 . S
O557 Co551 2.052 . S
O557 C553 1.241 . S
O558 Co546 2.137 . S
O558 C549 1.247 . S
O559 Co546 2.244 . S
O559 C549 1.272 . S
O559 Co551 2.135 . S
Co560 O561 2.216 . S
Co560 O562 2.091 . S
Co560 O564 2.004 . S
Co560 O570 2.021 . S
Co560 O572 2.137 . S
Co560 O573 2.244 . S
O561 Co560 2.216 . S
O561 C568 1.247 . S
O562 Co560 2.091 . S
O562 C568 1.261 . S
C563 O572 1.247 . S
C563 O573 1.272 . S
O564 Co560 2.004 . S
O564 C569 1.259 . S
Co565 O566 2.061 . S
Co565 O571 2.052 . S
Co565 O573 2.135 . S
O566 Co565 2.061 . S
O566 C569 1.235 . S
C567 O570 1.238 . S
C567 O571 1.241 . S
C568 O561 1.247 . S
C568 O562 1.261 . S
C569 O564 1.259 . S
C569 O566 1.235 . S
O570 Co560 2.021 . S
O570 C567 1.238 . S
O571 Co565 2.052 . S
O571 C567 1.241 . S
O572 Co560 2.137 . S
O572 C563 1.247 . S
O573 Co560 2.244 . S
O573 C563 1.272 . S
O573 Co565 2.135 . S
Co574 O575 2.216 . S
Co574 O576 2.091 . S
Co574 O578 2.004 . S
Co574 O584 2.021 . S
Co574 O586 2.137 . S
Co574 O587 2.244 . S
O575 Co574 2.216 . S
O575 C582 1.247 . S
O576 Co574 2.091 . S
O576 C582 1.261 . S
C577 O586 1.247 . S
C577 O587 1.272 . S
O578 Co574 2.004 . S
O578 C583 1.259 . S
Co579 O580 2.061 . S
Co579 O585 2.052 . S
Co579 O587 2.135 . S
O580 Co579 2.061 . S
O580 C583 1.235 . S
C581 O584 1.238 . S
C581 O585 1.241 . S
C582 O575 1.247 . S
C582 O576 1.261 . S
C583 O578 1.259 . S
C583 O580 1.235 . S
O584 Co574 2.021 . S
O584 C581 1.238 . S
O585 Co579 2.052 . S
O585 C581 1.241 . S
O586 Co574 2.137 . S
O586 C577 1.247 . S
O587 Co574 2.244 . S
O587 C577 1.272 . S
O587 Co579 2.135 . S
Co588 O589 2.216 . S
Co588 O590 2.091 . S
Co588 O592 2.004 . S
Co588 O598 2.021 . S
Co588 O600 2.137 . S
Co588 O601 2.244 . S
O589 Co588 2.216 . S
O589 C596 1.247 . S
O590 Co588 2.091 . S
O590 C596 1.261 . S
C591 O600 1.247 . S
C591 O601 1.272 . S
O592 Co588 2.004 . S
O592 C597 1.259 . S
Co593 O594 2.061 . S
Co593 O599 2.052 . S
Co593 O601 2.135 . S
O594 Co593 2.061 . S
O594 C597 1.235 . S
C595 O598 1.238 . S
C595 O599 1.241 . S
C596 O589 1.247 . S
C596 O590 1.261 . S
C597 O592 1.259 . S
C597 O594 1.235 . S
O598 Co588 2.021 . S
O598 C595 1.238 . S
O599 Co593 2.052 . S
O599 C595 1.241 . S
O600 Co588 2.137 . S
O600 C591 1.247 . S
O601 Co588 2.244 . S
O601 C591 1.272 . S
O601 Co593 2.135 . S
Co602 O603 2.216 . S
Co602 O604 2.091 . S
Co602 O606 2.004 . S
Co602 O612 2.021 . S
Co602 O614 2.137 . S
Co602 O615 2.244 . S
O603 Co602 2.216 . S
O603 C610 1.247 . S
O604 Co602 2.091 . S
O604 C610 1.261 . S
C605 O614 1.247 . S
C605 O615 1.272 . S
O606 Co602 2.004 . S
O606 C611 1.259 . S
Co607 O608 2.061 . S
Co607 O613 2.052 . S
Co607 O615 2.135 . S
O608 Co607 2.061 . S
O608 C611 1.235 . S
C609 O612 1.238 . S
C609 O613 1.241 . S
C610 O603 1.247 . S
C610 O604 1.261 . S
C611 O606 1.259 . S
C611 O608 1.235 . S
O612 Co602 2.021 . S
O612 C609 1.238 . S
O613 Co607 2.052 . S
O613 C609 1.241 . S
O614 Co602 2.137 . S
O614 C605 1.247 . S
O615 Co602 2.244 . S
O615 C605 1.272 . S
O615 Co607 2.135 . S
Co616 O617 2.216 . S
Co616 O618 2.091 . S
Co616 O620 2.004 . S
Co616 O626 2.021 . S
Co616 O628 2.137 . S
Co616 O629 2.244 . S
O617 Co616 2.216 . S
O617 C624 1.247 . S
O618 Co616 2.091 . S
O618 C624 1.261 . S
C619 O628 1.247 . S
C619 O629 1.272 . S
O620 Co616 2.004 . S
O620 C625 1.259 . S
Co621 O622 2.061 . S
Co621 O627 2.052 . S
Co621 O629 2.135 . S
O622 Co621 2.061 . S
O622 C625 1.235 . S
C623 O626 1.238 . S
C623 O627 1.241 . S
C624 O617 1.247 . S
C624 O618 1.261 . S
C625 O620 1.259 . S
C625 O622 1.235 . S
O626 Co616 2.021 . S
O626 C623 1.238 . S
O627 Co621 2.052 . S
O627 C623 1.241 . S
O628 Co616 2.137 . S
O628 C619 1.247 . S
O629 Co616 2.244 . S
O629 C619 1.272 . S
O629 Co621 2.135 . S
Co630 O631 2.216 . S
Co630 O632 2.091 . S
Co630 O634 2.004 . S
Co630 O640 2.021 . S
Co630 O642 2.137 . S
Co630 O643 2.244 . S
O631 Co630 2.216 . S
O631 C638 1.247 . S
O632 Co630 2.091 . S
O632 C638 1.261 . S
C633 O642 1.247 . S
C633 O643 1.272 . S
O634 Co630 2.004 . S
O634 C639 1.259 . S
Co635 O636 2.061 . S
Co635 O641 2.052 . S
Co635 O643 2.135 . S
O636 Co635 2.061 . S
O636 C639 1.235 . S
C637 O640 1.238 . S
C637 O641 1.241 . S
C638 O631 1.247 . S
C638 O632 1.261 . S
C639 O634 1.259 . S
C639 O636 1.235 . S
O640 Co630 2.021 . S
O640 C637 1.238 . S
O641 Co635 2.052 . S
O641 C637 1.241 . S
O642 Co630 2.137 . S
O642 C633 1.247 . S
O643 Co630 2.244 . S
O643 C633 1.272 . S
O643 Co635 2.135 . S
Co644 O645 2.216 . S
Co644 O646 2.091 . S
Co644 O648 2.004 . S
Co644 O654 2.021 . S
Co644 O656 2.137 . S
Co644 O657 2.244 . S
O645 Co644 2.216 . S
O645 C652 1.247 . S
O646 Co644 2.091 . S
O646 C652 1.261 . S
C647 O656 1.247 . S
C647 O657 1.272 . S
O648 Co644 2.004 . S
O648 C653 1.259 . S
Co649 O650 2.061 . S
Co649 O655 2.052 . S
Co649 O657 2.135 . S
O650 Co649 2.061 . S
O650 C653 1.235 . S
C651 O654 1.238 . S
C651 O655 1.241 . S
C652 O645 1.247 . S
C652 O646 1.261 . S
C653 O648 1.259 . S
C653 O650 1.235 . S
O654 Co644 2.021 . S
O654 C651 1.238 . S
O655 Co649 2.052 . S
O655 C651 1.241 . S
O656 Co644 2.137 . S
O656 C647 1.247 . S
O657 Co644 2.244 . S
O657 C647 1.272 . S
O657 Co649 2.135 . S
Co658 O659 2.216 . S
Co658 O660 2.091 . S
Co658 O662 2.004 . S
Co658 O668 2.021 . S
Co658 O670 2.137 . S
Co658 O671 2.244 . S
O659 Co658 2.216 . S
O659 C666 1.247 . S
O660 Co658 2.091 . S
O660 C666 1.261 . S
C661 O670 1.247 . S
C661 O671 1.272 . S
O662 Co658 2.004 . S
O662 C667 1.259 . S
Co663 O664 2.061 . S
Co663 O669 2.052 . S
Co663 O671 2.135 . S
O664 Co663 2.061 . S
O664 C667 1.235 . S
C665 O668 1.238 . S
C665 O669 1.241 . S
C666 O659 1.247 . S
C666 O660 1.261 . S
C667 O662 1.259 . S
C667 O664 1.235 . S
O668 Co658 2.021 . S
O668 C665 1.238 . S
O669 Co663 2.052 . S
O669 C665 1.241 . S
O670 Co658 2.137 . S
O670 C661 1.247 . S
O671 Co658 2.244 . S
O671 C661 1.272 . S
O671 Co663 2.135 . S
H672 C678 0.930 . S
H673 C681 0.930 . S
H674 C682 0.930 . S
H675 C683 0.930 . S
H676 C686 0.930 . S
H677 C687 0.930 . S
C678 H672 0.930 . S
C678 C679 1.355 . S
C678 C680 1.415 . S
C679 C678 1.355 . S
C679 C681 1.419 . S
C680 C678 1.415 . S
C680 C685 1.425 . S
C680 C687 1.409 . S
C681 H673 0.930 . S
C681 C679 1.419 . S
C681 C682 1.362 . S
C682 H674 0.930 . S
C682 C681 1.362 . S
C682 C685 1.409 . S
C683 H675 0.930 . S
C683 C684 1.355 . S
C683 C685 1.415 . S
C684 C683 1.355 . S
C684 C686 1.419 . S
C685 C680 1.425 . S
C685 C682 1.409 . S
C685 C683 1.415 . S
C686 H676 0.930 . S
C686 C684 1.419 . S
C686 C687 1.362 . S
C687 H677 0.930 . S
C687 C680 1.409 . S
C687 C686 1.362 . S
H688 C694 0.930 . S
H689 C697 0.930 . S
H690 C698 0.930 . S
H691 C699 0.930 . S
H692 C702 0.930 . S
H693 C703 0.930 . S
C694 H688 0.930 . S
C694 C695 1.355 . S
C694 C696 1.415 . S
C695 C694 1.355 . S
C695 C697 1.419 . S
C696 C694 1.415 . S
C696 C701 1.425 . S
C696 C703 1.409 . S
C697 H689 0.930 . S
C697 C695 1.419 . S
C697 C698 1.362 . S
C698 H690 0.930 . S
C698 C697 1.362 . S
C698 C701 1.409 . S
C699 H691 0.930 . S
C699 C700 1.355 . S
C699 C701 1.415 . S
C700 C699 1.355 . S
C700 C702 1.419 . S
C701 C696 1.425 . S
C701 C698 1.409 . S
C701 C699 1.415 . S
C702 H692 0.930 . S
C702 C700 1.419 . S
C702 C703 1.362 . S
C703 H693 0.930 . S
C703 C696 1.409 . S
C703 C702 1.362 . S
H704 C710 0.930 . S
H705 C713 0.930 . S
H706 C714 0.930 . S
H707 C715 0.930 . S
H708 C718 0.930 . S
H709 C719 0.930 . S
C710 H704 0.930 . S
C710 C711 1.355 . S
C710 C712 1.415 . S
C711 C710 1.355 . S
C711 C713 1.419 . S
C712 C710 1.415 . S
C712 C717 1.425 . S
C712 C719 1.409 . S
C713 H705 0.930 . S
C713 C711 1.419 . S
C713 C714 1.362 . S
C714 H706 0.930 . S
C714 C713 1.362 . S
C714 C717 1.409 . S
C715 H707 0.930 . S
C715 C716 1.355 . S
C715 C717 1.415 . S
C716 C715 1.355 . S
C716 C718 1.419 . S
C717 C712 1.425 . S
C717 C714 1.409 . S
C717 C715 1.415 . S
C718 H708 0.930 . S
C718 C716 1.419 . S
C718 C719 1.362 . S
C719 H709 0.930 . S
C719 C712 1.409 . S
C719 C718 1.362 . S
H720 C726 0.930 . S
H721 C729 0.930 . S
H722 C730 0.930 . S
H723 C731 0.930 . S
H724 C734 0.930 . S
H725 C735 0.930 . S
C726 H720 0.930 . S
C726 C727 1.355 . S
C726 C728 1.415 . S
C727 C726 1.355 . S
C727 C729 1.419 . S
C728 C726 1.415 . S
C728 C733 1.425 . S
C728 C735 1.409 . S
C729 H721 0.930 . S
C729 C727 1.419 . S
C729 C730 1.362 . S
C730 H722 0.930 . S
C730 C729 1.362 . S
C730 C733 1.409 . S
C731 H723 0.930 . S
C731 C732 1.355 . S
C731 C733 1.415 . S
C732 C731 1.355 . S
C732 C734 1.419 . S
C733 C728 1.425 . S
C733 C730 1.409 . S
C733 C731 1.415 . S
C734 H724 0.930 . S
C734 C732 1.419 . S
C734 C735 1.362 . S
C735 H725 0.930 . S
C735 C728 1.409 . S
C735 C734 1.362 . S
H736 C742 0.930 . S
H737 C745 0.930 . S
H738 C746 0.930 . S
H739 C747 0.930 . S
H740 C750 0.930 . S
H741 C751 0.930 . S
C742 H736 0.930 . S
C742 C743 1.355 . S
C742 C744 1.415 . S
C743 C742 1.355 . S
C743 C745 1.419 . S
C744 C742 1.415 . S
C744 C749 1.425 . S
C744 C751 1.409 . S
C745 H737 0.930 . S
C745 C743 1.419 . S
C745 C746 1.362 . S
C746 H738 0.930 . S
C746 C745 1.362 . S
C746 C749 1.409 . S
C747 H739 0.930 . S
C747 C748 1.355 . S
C747 C749 1.415 . S
C748 C747 1.355 . S
C748 C750 1.419 . S
C749 C744 1.425 . S
C749 C746 1.409 . S
C749 C747 1.415 . S
C750 H740 0.930 . S
C750 C748 1.419 . S
C750 C751 1.362 . S
C751 H741 0.930 . S
C751 C744 1.409 . S
C751 C750 1.362 . S
H752 C758 0.930 . S
H753 C761 0.930 . S
H754 C762 0.930 . S
H755 C763 0.930 . S
H756 C766 0.930 . S
H757 C767 0.930 . S
C758 H752 0.930 . S
C758 C759 1.355 . S
C758 C760 1.415 . S
C759 C758 1.355 . S
C759 C761 1.419 . S
C760 C758 1.415 . S
C760 C765 1.425 . S
C760 C767 1.409 . S
C761 H753 0.930 . S
C761 C759 1.419 . S
C761 C762 1.362 . S
C762 H754 0.930 . S
C762 C761 1.362 . S
C762 C765 1.409 . S
C763 H755 0.930 . S
C763 C764 1.355 . S
C763 C765 1.415 . S
C764 C763 1.355 . S
C764 C766 1.419 . S
C765 C760 1.425 . S
C765 C762 1.409 . S
C765 C763 1.415 . S
C766 H756 0.930 . S
C766 C764 1.419 . S
C766 C767 1.362 . S
C767 H757 0.930 . S
C767 C760 1.409 . S
C767 C766 1.362 . S
H768 C774 0.930 . S
H769 C777 0.930 . S
H770 C778 0.930 . S
H771 C779 0.930 . S
H772 C782 0.930 . S
H773 C783 0.930 . S
C774 H768 0.930 . S
C774 C775 1.355 . S
C774 C776 1.415 . S
C775 C774 1.355 . S
C775 C777 1.419 . S
C776 C774 1.415 . S
C776 C781 1.425 . S
C776 C783 1.409 . S
C777 H769 0.930 . S
C777 C775 1.419 . S
C777 C778 1.362 . S
C778 H770 0.930 . S
C778 C777 1.362 . S
C778 C781 1.409 . S
C779 H771 0.930 . S
C779 C780 1.355 . S
C779 C781 1.415 . S
C780 C779 1.355 . S
C780 C782 1.419 . S
C781 C776 1.425 . S
C781 C778 1.409 . S
C781 C779 1.415 . S
C782 H772 0.930 . S
C782 C780 1.419 . S
C782 C783 1.362 . S
C783 H773 0.930 . S
C783 C776 1.409 . S
C783 C782 1.362 . S
H784 C790 0.930 . S
H785 C793 0.930 . S
H786 C794 0.930 . S
H787 C795 0.930 . S
H788 C798 0.930 . S
H789 C799 0.930 . S
C790 H784 0.930 . S
C790 C791 1.355 . S
C790 C792 1.415 . S
C791 C790 1.355 . S
C791 C793 1.419 . S
C792 C790 1.415 . S
C792 C797 1.425 . S
C792 C799 1.409 . S
C793 H785 0.930 . S
C793 C791 1.419 . S
C793 C794 1.362 . S
C794 H786 0.930 . S
C794 C793 1.362 . S
C794 C797 1.409 . S
C795 H787 0.930 . S
C795 C796 1.355 . S
C795 C797 1.415 . S
C796 C795 1.355 . S
C796 C798 1.419 . S
C797 C792 1.425 . S
C797 C794 1.409 . S
C797 C795 1.415 . S
C798 H788 0.930 . S
C798 C796 1.419 . S
C798 C799 1.362 . S
C799 H789 0.930 . S
C799 C792 1.409 . S
C799 C798 1.362 . S
H800 C806 0.930 . S
H801 C809 0.930 . S
H802 C810 0.930 . S
H803 C811 0.930 . S
H804 C814 0.930 . S
H805 C815 0.930 . S
C806 H800 0.930 . S
C806 C807 1.355 . S
C806 C808 1.415 . S
C807 C806 1.355 . S
C807 C809 1.419 . S
C808 C806 1.415 . S
C808 C813 1.425 . S
C808 C815 1.409 . S
C809 H801 0.930 . S
C809 C807 1.419 . S
C809 C810 1.362 . S
C810 H802 0.930 . S
C810 C809 1.362 . S
C810 C813 1.409 . S
C811 H803 0.930 . S
C811 C812 1.355 . S
C811 C813 1.415 . S
C812 C811 1.355 . S
C812 C814 1.419 . S
C813 C808 1.425 . S
C813 C810 1.409 . S
C813 C811 1.415 . S
C814 H804 0.930 . S
C814 C812 1.419 . S
C814 C815 1.362 . S
C815 H805 0.930 . S
C815 C808 1.409 . S
C815 C814 1.362 . S
H816 C822 0.930 . S
H817 C825 0.930 . S
H818 C826 0.930 . S
H819 C827 0.930 . S
H820 C830 0.930 . S
H821 C831 0.930 . S
C822 H816 0.930 . S
C822 C823 1.355 . S
C822 C824 1.415 . S
C823 C822 1.355 . S
C823 C825 1.419 . S
C824 C822 1.415 . S
C824 C829 1.425 . S
C824 C831 1.409 . S
C825 H817 0.930 . S
C825 C823 1.419 . S
C825 C826 1.362 . S
C826 H818 0.930 . S
C826 C825 1.362 . S
C826 C829 1.409 . S
C827 H819 0.930 . S
C827 C828 1.355 . S
C827 C829 1.415 . S
C828 C827 1.355 . S
C828 C830 1.419 . S
C829 C824 1.425 . S
C829 C826 1.409 . S
C829 C827 1.415 . S
C830 H820 0.930 . S
C830 C828 1.419 . S
C830 C831 1.362 . S
C831 H821 0.930 . S
C831 C824 1.409 . S
C831 C830 1.362 . S
H832 C838 0.930 . S
H833 C841 0.930 . S
H834 C842 0.930 . S
H835 C843 0.930 . S
H836 C846 0.930 . S
H837 C847 0.930 . S
C838 H832 0.930 . S
C838 C839 1.355 . S
C838 C840 1.415 . S
C839 C838 1.355 . S
C839 C841 1.419 . S
C840 C838 1.415 . S
C840 C845 1.425 . S
C840 C847 1.409 . S
C841 H833 0.930 . S
C841 C839 1.419 . S
C841 C842 1.362 . S
C842 H834 0.930 . S
C842 C841 1.362 . S
C842 C845 1.409 . S
C843 H835 0.930 . S
C843 C844 1.355 . S
C843 C845 1.415 . S
C844 C843 1.355 . S
C844 C846 1.419 . S
C845 C840 1.425 . S
C845 C842 1.409 . S
C845 C843 1.415 . S
C846 H836 0.930 . S
C846 C844 1.419 . S
C846 C847 1.362 . S
C847 H837 0.930 . S
C847 C840 1.409 . S
C847 C846 1.362 . S
H848 C854 0.930 . S
H849 C857 0.930 . S
H850 C858 0.930 . S
H851 C859 0.930 . S
H852 C862 0.930 . S
H853 C863 0.930 . S
C854 H848 0.930 . S
C854 C855 1.355 . S
C854 C856 1.415 . S
C855 C854 1.355 . S
C855 C857 1.419 . S
C856 C854 1.415 . S
C856 C861 1.425 . S
C856 C863 1.409 . S
C857 H849 0.930 . S
C857 C855 1.419 . S
C857 C858 1.362 . S
C858 H850 0.930 . S
C858 C857 1.362 . S
C858 C861 1.409 . S
C859 H851 0.930 . S
C859 C860 1.355 . S
C859 C861 1.415 . S
C860 C859 1.355 . S
C860 C862 1.419 . S
C861 C856 1.425 . S
C861 C858 1.409 . S
C861 C859 1.415 . S
C862 H852 0.930 . S
C862 C860 1.419 . S
C862 C863 1.362 . S
C863 H853 0.930 . S
C863 C856 1.409 . S
C863 C862 1.362 . S
H864 C870 0.930 . S
H865 C873 0.930 . S
H866 C874 0.930 . S
H867 C875 0.930 . S
H868 C878 0.930 . S
H869 C879 0.930 . S
C870 H864 0.930 . S
C870 C871 1.355 . S
C870 C872 1.415 . S
C871 C870 1.355 . S
C871 C873 1.419 . S
C872 C870 1.415 . S
C872 C877 1.425 . S
C872 C879 1.409 . S
C873 H865 0.930 . S
C873 C871 1.419 . S
C873 C874 1.362 . S
C874 H866 0.930 . S
C874 C873 1.362 . S
C874 C877 1.409 . S
C875 H867 0.930 . S
C875 C876 1.355 . S
C875 C877 1.415 . S
C876 C875 1.355 . S
C876 C878 1.419 . S
C877 C872 1.425 . S
C877 C874 1.409 . S
C877 C875 1.415 . S
C878 H868 0.930 . S
C878 C876 1.419 . S
C878 C879 1.362 . S
C879 H869 0.930 . S
C879 C872 1.409 . S
C879 C878 1.362 . S
H880 C886 0.930 . S
H881 C889 0.930 . S
H882 C890 0.930 . S
H883 C891 0.930 . S
H884 C894 0.930 . S
H885 C895 0.930 . S
C886 H880 0.930 . S
C886 C887 1.355 . S
C886 C888 1.415 . S
C887 C886 1.355 . S
C887 C889 1.419 . S
C888 C886 1.415 . S
C888 C893 1.425 . S
C888 C895 1.409 . S
C889 H881 0.930 . S
C889 C887 1.419 . S
C889 C890 1.362 . S
C890 H882 0.930 . S
C890 C889 1.362 . S
C890 C893 1.409 . S
C891 H883 0.930 . S
C891 C892 1.355 . S
C891 C893 1.415 . S
C892 C891 1.355 . S
C892 C894 1.419 . S
C893 C888 1.425 . S
C893 C890 1.409 . S
C893 C891 1.415 . S
C894 H884 0.930 . S
C894 C892 1.419 . S
C894 C895 1.362 . S
C895 H885 0.930 . S
C895 C888 1.409 . S
C895 C894 1.362 . S
H896 C902 0.930 . S
H897 C905 0.930 . S
H898 C906 0.930 . S
H899 C907 0.930 . S
H900 C910 0.930 . S
H901 C911 0.930 . S
C902 H896 0.930 . S
C902 C903 1.355 . S
C902 C904 1.415 . S
C903 C902 1.355 . S
C903 C905 1.419 . S
C904 C902 1.415 . S
C904 C909 1.425 . S
C904 C911 1.409 . S
C905 H897 0.930 . S
C905 C903 1.419 . S
C905 C906 1.362 . S
C906 H898 0.930 . S
C906 C905 1.362 . S
C906 C909 1.409 . S
C907 H899 0.930 . S
C907 C908 1.355 . S
C907 C909 1.415 . S
C908 C907 1.355 . S
C908 C910 1.419 . S
C909 C904 1.425 . S
C909 C906 1.409 . S
C909 C907 1.415 . S
C910 H900 0.930 . S
C910 C908 1.419 . S
C910 C911 1.362 . S
C911 H901 0.930 . S
C911 C904 1.409 . S
C911 C910 1.362 . S
H912 C918 0.930 . S
H913 C921 0.930 . S
H914 C922 0.930 . S
H915 C923 0.930 . S
H916 C926 0.930 . S
H917 C927 0.930 . S
C918 H912 0.930 . S
C918 C919 1.355 . S
C918 C920 1.415 . S
C919 C918 1.355 . S
C919 C921 1.419 . S
C920 C918 1.415 . S
C920 C925 1.425 . S
C920 C927 1.409 . S
C921 H913 0.930 . S
C921 C919 1.419 . S
C921 C922 1.362 . S
C922 H914 0.930 . S
C922 C921 1.362 . S
C922 C925 1.409 . S
C923 H915 0.930 . S
C923 C924 1.355 . S
C923 C925 1.415 . S
C924 C923 1.355 . S
C924 C926 1.419 . S
C925 C920 1.425 . S
C925 C922 1.409 . S
C925 C923 1.415 . S
C926 H916 0.930 . S
C926 C924 1.419 . S
C926 C927 1.362 . S
C927 H917 0.930 . S
C927 C920 1.409 . S
C927 C926 1.362 . S
H928 C934 0.930 . S
H929 C937 0.930 . S
H930 C938 0.930 . S
H931 C939 0.930 . S
H932 C942 0.930 . S
H933 C943 0.930 . S
C934 H928 0.930 . S
C934 C935 1.355 . S
C934 C936 1.415 . S
C935 C934 1.355 . S
C935 C937 1.419 . S
C936 C934 1.415 . S
C936 C941 1.425 . S
C936 C943 1.409 . S
C937 H929 0.930 . S
C937 C935 1.419 . S
C937 C938 1.362 . S
C938 H930 0.930 . S
C938 C937 1.362 . S
C938 C941 1.409 . S
C939 H931 0.930 . S
C939 C940 1.355 . S
C939 C941 1.415 . S
C940 C939 1.355 . S
C940 C942 1.419 . S
C941 C936 1.425 . S
C941 C938 1.409 . S
C941 C939 1.415 . S
C942 H932 0.930 . S
C942 C940 1.419 . S
C942 C943 1.362 . S
C943 H933 0.930 . S
C943 C936 1.409 . S
C943 C942 1.362 . S
H944 C950 0.930 . S
H945 C953 0.930 . S
H946 C954 0.930 . S
H947 C955 0.930 . S
H948 C958 0.930 . S
H949 C959 0.930 . S
C950 H944 0.930 . S
C950 C951 1.355 . S
C950 C952 1.415 . S
C951 C950 1.355 . S
C951 C953 1.419 . S
C952 C950 1.415 . S
C952 C957 1.425 . S
C952 C959 1.409 . S
C953 H945 0.930 . S
C953 C951 1.419 . S
C953 C954 1.362 . S
C954 H946 0.930 . S
C954 C953 1.362 . S
C954 C957 1.409 . S
C955 H947 0.930 . S
C955 C956 1.355 . S
C955 C957 1.415 . S
C956 C955 1.355 . S
C956 C958 1.419 . S
C957 C952 1.425 . S
C957 C954 1.409 . S
C957 C955 1.415 . S
C958 H948 0.930 . S
C958 C956 1.419 . S
C958 C959 1.362 . S
C959 H949 0.930 . S
C959 C952 1.409 . S
C959 C958 1.362 . S
H960 C966 0.930 . S
H961 C969 0.930 . S
H962 C970 0.930 . S
H963 C971 0.930 . S
H964 C974 0.930 . S
H965 C975 0.930 . S
C966 H960 0.930 . S
C966 C967 1.355 . S
C966 C968 1.415 . S
C967 C966 1.355 . S
C967 C969 1.419 . S
C968 C966 1.415 . S
C968 C973 1.425 . S
C968 C975 1.409 . S
C969 H961 0.930 . S
C969 C967 1.419 . S
C969 C970 1.362 . S
C970 H962 0.930 . S
C970 C969 1.362 . S
C970 C973 1.409 . S
C971 H963 0.930 . S
C971 C972 1.355 . S
C971 C973 1.415 . S
C972 C971 1.355 . S
C972 C974 1.419 . S
C973 C968 1.425 . S
C973 C970 1.409 . S
C973 C971 1.415 . S
C974 H964 0.930 . S
C974 C972 1.419 . S
C974 C975 1.362 . S
C975 H965 0.930 . S
C975 C968 1.409 . S
C975 C974 1.362 . S
H976 C982 0.930 . S
H977 C985 0.930 . S
H978 C986 0.930 . S
H979 C987 0.930 . S
H980 C990 0.930 . S
H981 C991 0.930 . S
C982 H976 0.930 . S
C982 C983 1.355 . S
C982 C984 1.415 . S
C983 C982 1.355 . S
C983 C985 1.419 . S
C984 C982 1.415 . S
C984 C989 1.425 . S
C984 C991 1.409 . S
C985 H977 0.930 . S
C985 C983 1.419 . S
C985 C986 1.362 . S
C986 H978 0.930 . S
C986 C985 1.362 . S
C986 C989 1.409 . S
C987 H979 0.930 . S
C987 C988 1.355 . S
C987 C989 1.415 . S
C988 C987 1.355 . S
C988 C990 1.419 . S
C989 C984 1.425 . S
C989 C986 1.409 . S
C989 C987 1.415 . S
C990 H980 0.930 . S
C990 C988 1.419 . S
C990 C991 1.362 . S
C991 H981 0.930 . S
C991 C984 1.409 . S
C991 C990 1.362 . S
H992 C998 0.930 . S
H993 C1001 0.930 . S
H994 C1002 0.930 . S
H995 C1003 0.930 . S
H996 C1006 0.930 . S
H997 C1007 0.930 . S
C998 H992 0.930 . S
C998 C999 1.355 . S
C998 C1000 1.415 . S
C999 C998 1.355 . S
C999 C1001 1.419 . S
C1000 C998 1.415 . S
C1000 C1005 1.425 . S
C1000 C1007 1.409 . S
C1001 H993 0.930 . S
C1001 C999 1.419 . S
C1001 C1002 1.362 . S
C1002 H994 0.930 . S
C1002 C1001 1.362 . S
C1002 C1005 1.409 . S
C1003 H995 0.930 . S
C1003 C1004 1.355 . S
C1003 C1005 1.415 . S
C1004 C1003 1.355 . S
C1004 C1006 1.419 . S
C1005 C1000 1.425 . S
C1005 C1002 1.409 . S
C1005 C1003 1.415 . S
C1006 H996 0.930 . S
C1006 C1004 1.419 . S
C1006 C1007 1.362 . S
C1007 H997 0.930 . S
C1007 C1000 1.409 . S
C1007 C1006 1.362 . S
H1008 C1014 0.930 . S
H1009 C1017 0.930 . S
H1010 C1018 0.930 . S
H1011 C1019 0.930 . S
H1012 C1022 0.930 . S
H1013 C1023 0.930 . S
C1014 H1008 0.930 . S
C1014 C1015 1.355 . S
C1014 C1016 1.415 . S
C1015 C1014 1.355 . S
C1015 C1017 1.419 . S
C1016 C1014 1.415 . S
C1016 C1021 1.425 . S
C1016 C1023 1.409 . S
C1017 H1009 0.930 . S
C1017 C1015 1.419 . S
C1017 C1018 1.362 . S
C1018 H1010 0.930 . S
C1018 C1017 1.362 . S
C1018 C1021 1.409 . S
C1019 H1011 0.930 . S
C1019 C1020 1.355 . S
C1019 C1021 1.415 . S
C1020 C1019 1.355 . S
C1020 C1022 1.419 . S
C1021 C1016 1.425 . S
C1021 C1018 1.409 . S
C1021 C1019 1.415 . S
C1022 H1012 0.930 . S
C1022 C1020 1.419 . S
C1022 C1023 1.362 . S
C1023 H1013 0.930 . S
C1023 C1016 1.409 . S
C1023 C1022 1.362 . S
H1024 C1030 0.930 . S
H1025 C1033 0.930 . S
H1026 C1034 0.930 . S
H1027 C1035 0.930 . S
H1028 C1038 0.930 . S
H1029 C1039 0.930 . S
C1030 H1024 0.930 . S
C1030 C1031 1.355 . S
C1030 C1032 1.415 . S
C1031 C1030 1.355 . S
C1031 C1033 1.419 . S
C1032 C1030 1.415 . S
C1032 C1037 1.425 . S
C1032 C1039 1.409 . S
C1033 H1025 0.930 . S
C1033 C1031 1.419 . S
C1033 C1034 1.362 . S
C1034 H1026 0.930 . S
C1034 C1033 1.362 . S
C1034 C1037 1.409 . S
C1035 H1027 0.930 . S
C1035 C1036 1.355 . S
C1035 C1037 1.415 . S
C1036 C1035 1.355 . S
C1036 C1038 1.419 . S
C1037 C1032 1.425 . S
C1037 C1034 1.409 . S
C1037 C1035 1.415 . S
C1038 H1028 0.930 . S
C1038 C1036 1.419 . S
C1038 C1039 1.362 . S
C1039 H1029 0.930 . S
C1039 C1032 1.409 . S
C1039 C1038 1.362 . S
H1040 C1046 0.930 . S
H1041 C1049 0.930 . S
H1042 C1050 0.930 . S
H1043 C1051 0.930 . S
H1044 C1054 0.930 . S
H1045 C1055 0.930 . S
C1046 H1040 0.930 . S
C1046 C1047 1.355 . S
C1046 C1048 1.415 . S
C1047 C1046 1.355 . S
C1047 C1049 1.419 . S
C1048 C1046 1.415 . S
C1048 C1053 1.425 . S
C1048 C1055 1.409 . S
C1049 H1041 0.930 . S
C1049 C1047 1.419 . S
C1049 C1050 1.362 . S
C1050 H1042 0.930 . S
C1050 C1049 1.362 . S
C1050 C1053 1.409 . S
C1051 H1043 0.930 . S
C1051 C1052 1.355 . S
C1051 C1053 1.415 . S
C1052 C1051 1.355 . S
C1052 C1054 1.419 . S
C1053 C1048 1.425 . S
C1053 C1050 1.409 . S
C1053 C1051 1.415 . S
C1054 H1044 0.930 . S
C1054 C1052 1.419 . S
C1054 C1055 1.362 . S
C1055 H1045 0.930 . S
C1055 C1048 1.409 . S
C1055 C1054 1.362 . S
H1056 C1062 0.930 . S
H1057 C1065 0.930 . S
H1058 C1066 0.930 . S
H1059 C1067 0.930 . S
H1060 C1070 0.930 . S
H1061 C1071 0.930 . S
C1062 H1056 0.930 . S
C1062 C1063 1.355 . S
C1062 C1064 1.415 . S
C1063 C1062 1.355 . S
C1063 C1065 1.419 . S
C1064 C1062 1.415 . S
C1064 C1069 1.425 . S
C1064 C1071 1.409 . S
C1065 H1057 0.930 . S
C1065 C1063 1.419 . S
C1065 C1066 1.362 . S
C1066 H1058 0.930 . S
C1066 C1065 1.362 . S
C1066 C1069 1.409 . S
C1067 H1059 0.930 . S
C1067 C1068 1.355 . S
C1067 C1069 1.415 . S
C1068 C1067 1.355 . S
C1068 C1070 1.419 . S
C1069 C1064 1.425 . S
C1069 C1066 1.409 . S
C1069 C1067 1.415 . S
C1070 H1060 0.930 . S
C1070 C1068 1.419 . S
C1070 C1071 1.362 . S
C1071 H1061 0.930 . S
C1071 C1064 1.409 . S
C1071 C1070 1.362 . S
H1072 C1078 0.930 . S
H1073 C1081 0.930 . S
H1074 C1082 0.930 . S
H1075 C1083 0.930 . S
H1076 C1086 0.930 . S
H1077 C1087 0.930 . S
C1078 H1072 0.930 . S
C1078 C1079 1.355 . S
C1078 C1080 1.415 . S
C1079 C1078 1.355 . S
C1079 C1081 1.419 . S
C1080 C1078 1.415 . S
C1080 C1085 1.425 1_556 S
C1080 C1087 1.409 1_556 S
C1081 H1073 0.930 . S
C1081 C1079 1.419 . S
C1081 C1082 1.362 . S
C1082 H1074 0.930 . S
C1082 C1081 1.362 . S
C1082 C1085 1.409 1_556 S
C1083 H1075 0.930 . S
C1083 C1084 1.355 . S
C1083 C1085 1.415 . S
C1084 C1083 1.355 . S
C1084 C1086 1.419 . S
C1085 C1080 1.425 1_554 S
C1085 C1082 1.409 1_554 S
C1085 C1083 1.415 . S
C1086 H1076 0.930 . S
C1086 C1084 1.419 . S
C1086 C1087 1.362 . S
C1087 H1077 0.930 . S
C1087 C1080 1.409 1_554 S
C1087 C1086 1.362 . S
H1088 C1094 0.930 . S
H1089 C1097 0.930 . S
H1090 C1098 0.930 . S
H1091 C1099 0.930 . S
H1092 C1102 0.930 . S
H1093 C1103 0.930 . S
C1094 H1088 0.930 . S
C1094 C1095 1.355 . S
C1094 C1096 1.415 . S
C1095 C1094 1.355 . S
C1095 C1097 1.419 . S
C1096 C1094 1.415 . S
C1096 C1101 1.425 . S
C1096 C1103 1.409 . S
C1097 H1089 0.930 . S
C1097 C1095 1.419 . S
C1097 C1098 1.362 . S
C1098 H1090 0.930 . S
C1098 C1097 1.362 . S
C1098 C1101 1.409 . S
C1099 H1091 0.930 . S
C1099 C1100 1.355 . S
C1099 C1101 1.415 . S
C1100 C1099 1.355 . S
C1100 C1102 1.419 . S
C1101 C1096 1.425 . S
C1101 C1098 1.409 . S
C1101 C1099 1.415 . S
C1102 H1092 0.930 . S
C1102 C1100 1.419 . S
C1102 C1103 1.362 . S
C1103 H1093 0.930 . S
C1103 C1096 1.409 . S
C1103 C1102 1.362 . S
H1104 C1110 0.930 . S
H1105 C1113 0.930 . S
H1106 C1114 0.930 . S
H1107 C1115 0.930 . S
H1108 C1118 0.930 . S
H1109 C1119 0.930 . S
C1110 H1104 0.930 . S
C1110 C1111 1.355 . S
C1110 C1112 1.438 . S
C1111 C1110 1.355 . S
C1111 C1113 1.419 . S
C1112 C1110 1.438 . S
C1112 C1117 1.417 1_556 S
C1112 C1119 1.393 1_556 S
C1113 H1105 0.930 . S
C1113 C1111 1.419 . S
C1113 C1114 1.362 . S
C1114 H1106 0.930 . S
C1114 C1113 1.362 . S
C1114 C1117 1.409 1_556 S
C1115 H1107 0.930 . S
C1115 C1116 1.355 . S
C1115 C1117 1.415 . S
C1116 C1115 1.355 . S
C1116 C1118 1.419 . S
C1117 C1112 1.417 1_554 S
C1117 C1114 1.409 1_554 S
C1117 C1115 1.415 . S
C1118 H1108 0.930 . S
C1118 C1116 1.419 . S
C1118 C1119 1.362 . S
C1119 H1109 0.930 . S
C1119 C1112 1.393 1_554 S
C1119 C1118 1.362 . S
H1120 C1126 0.930 . S
H1121 C1129 0.930 . S
H1122 C1130 0.930 . S
H1123 C1131 0.930 . S
H1124 C1134 0.930 . S
H1125 C1135 0.930 . S
C1126 H1120 0.930 . S
C1126 C1127 1.355 . S
C1126 C1128 1.415 . S
C1127 C1126 1.355 . S
C1127 C1129 1.419 . S
C1128 C1126 1.415 . S
C1128 C1133 1.425 . S
C1128 C1135 1.409 . S
C1129 H1121 0.930 . S
C1129 C1127 1.419 . S
C1129 C1130 1.362 . S
C1130 H1122 0.930 . S
C1130 C1129 1.362 . S
C1130 C1133 1.409 . S
C1131 H1123 0.930 . S
C1131 C1132 1.355 . S
C1131 C1133 1.415 . S
C1132 C1131 1.355 . S
C1132 C1134 1.419 . S
C1133 C1128 1.425 . S
C1133 C1130 1.409 . S
C1133 C1131 1.415 . S
C1134 H1124 0.930 . S
C1134 C1132 1.419 . S
C1134 C1135 1.362 . S
C1135 H1125 0.930 . S
C1135 C1128 1.409 . S
C1135 C1134 1.362 . S
H1136 C1142 0.930 . S
H1137 C1145 0.930 . S
H1138 C1146 0.930 . S
H1139 C1147 0.930 . S
H1140 C1150 0.930 . S
H1141 C1151 0.930 . S
C1142 H1136 0.930 . S
C1142 C1143 1.355 . S
C1142 C1144 1.415 . S
C1143 C1142 1.355 . S
C1143 C1145 1.419 . S
C1144 C1142 1.415 . S
C1144 C1149 1.425 1_556 S
C1144 C1151 1.409 1_556 S
C1145 H1137 0.930 . S
C1145 C1143 1.419 . S
C1145 C1146 1.362 . S
C1146 H1138 0.930 . S
C1146 C1145 1.362 . S
C1146 C1149 1.409 1_556 S
C1147 H1139 0.930 . S
C1147 C1148 1.355 . S
C1147 C1149 1.415 . S
C1148 C1147 1.355 . S
C1148 C1150 1.419 . S
C1149 C1144 1.425 1_554 S
C1149 C1146 1.409 1_554 S
C1149 C1147 1.415 . S
C1150 H1140 0.930 . S
C1150 C1148 1.419 . S
C1150 C1151 1.362 . S
C1151 H1141 0.930 . S
C1151 C1144 1.409 1_554 S
C1151 C1150 1.362 . S
H1152 C1158 0.930 . S
H1153 C1161 0.930 . S
H1154 C1162 0.930 . S
H1155 C1163 0.930 . S
H1156 C1166 0.930 . S
H1157 C1167 0.930 . S
C1158 H1152 0.930 . S
C1158 C1159 1.355 . S
C1158 C1160 1.415 . S
C1159 C1158 1.355 . S
C1159 C1161 1.419 . S
C1160 C1158 1.415 . S
C1160 C1165 1.425 . S
C1160 C1167 1.409 . S
C1161 H1153 0.930 . S
C1161 C1159 1.419 . S
C1161 C1162 1.362 . S
C1162 H1154 0.930 . S
C1162 C1161 1.362 . S
C1162 C1165 1.409 . S
C1163 H1155 0.930 . S
C1163 C1164 1.355 . S
C1163 C1165 1.415 . S
C1164 C1163 1.355 . S
C1164 C1166 1.419 . S
C1165 C1160 1.425 . S
C1165 C1162 1.409 . S
C1165 C1163 1.415 . S
C1166 H1156 0.930 . S
C1166 C1164 1.419 . S
C1166 C1167 1.362 . S
C1167 H1157 0.930 . S
C1167 C1160 1.409 . S
C1167 C1166 1.362 . S
H1168 C1174 0.930 . S
H1169 C1177 0.930 . S
H1170 C1178 0.930 . S
H1171 C1179 0.930 . S
H1172 C1182 0.930 . S
H1173 C1183 0.930 . S
C1174 H1168 0.930 . S
C1174 C1175 1.355 . S
C1174 C1176 1.415 . S
C1175 C1174 1.355 . S
C1175 C1177 1.419 . S
C1176 C1174 1.415 . S
C1176 C1181 1.431 . S
C1176 C1183 1.409 1_556 S
C1177 H1169 0.930 . S
C1177 C1175 1.419 . S
C1177 C1178 1.362 . S
C1178 H1170 0.930 . S
C1178 C1177 1.362 . S
C1178 C1181 1.421 . S
C1179 H1171 0.930 . S
C1179 C1180 1.355 . S
C1179 C1181 1.397 1_554 S
C1180 C1179 1.355 . S
C1180 C1182 1.419 . S
C1181 C1176 1.431 . S
C1181 C1178 1.421 . S
C1181 C1179 1.397 1_556 S
C1182 H1172 0.930 . S
C1182 C1180 1.419 . S
C1182 C1183 1.362 . S
C1183 H1173 0.930 . S
C1183 C1176 1.409 1_554 S
C1183 C1182 1.362 . S
H1184 C1190 0.930 . S
H1185 C1193 0.930 . S
H1186 C1194 0.930 . S
H1187 C1195 0.930 . S
H1188 C1198 0.930 . S
H1189 C1199 0.930 . S
C1190 H1184 0.930 . S
C1190 C1191 1.355 . S
C1190 C1192 1.415 . S
C1191 C1190 1.355 . S
C1191 C1193 1.419 . S
C1192 C1190 1.415 . S
C1192 C1197 1.425 . S
C1192 C1199 1.409 . S
C1193 H1185 0.930 . S
C1193 C1191 1.419 . S
C1193 C1194 1.362 . S
C1194 H1186 0.930 . S
C1194 C1193 1.362 . S
C1194 C1197 1.409 . S
C1195 H1187 0.930 . S
C1195 C1196 1.355 . S
C1195 C1197 1.415 . S
C1196 C1195 1.355 . S
C1196 C1198 1.419 . S
C1197 C1192 1.425 . S
C1197 C1194 1.409 . S
C1197 C1195 1.415 . S
C1198 H1188 0.930 . S
C1198 C1196 1.419 . S
C1198 C1199 1.362 . S
C1199 H1189 0.930 . S
C1199 C1192 1.409 . S
C1199 C1198 1.362 . S
H1200 C1206 0.930 . S
H1201 C1209 0.930 . S
H1202 C1210 0.930 . S
H1203 C1211 0.930 . S
H1204 C1214 0.930 . S
H1205 C1215 0.930 . S
C1206 H1200 0.930 . S
C1206 C1207 1.355 . S
C1206 C1208 1.415 . S
C1207 C1206 1.355 . S
C1207 C1209 1.419 . S
C1208 C1206 1.415 . S
C1208 C1213 1.425 1_565 S
C1208 C1215 1.409 1_565 S
C1209 H1201 0.930 . S
C1209 C1207 1.419 . S
C1209 C1210 1.362 . S
C1210 H1202 0.930 . S
C1210 C1209 1.362 . S
C1210 C1213 1.409 1_565 S
C1211 H1203 0.930 . S
C1211 C1212 1.355 . S
C1211 C1213 1.415 . S
C1212 C1211 1.355 . S
C1212 C1214 1.419 . S
C1213 C1208 1.425 1_545 S
C1213 C1210 1.409 1_545 S
C1213 C1211 1.415 . S
C1214 H1204 0.930 . S
C1214 C1212 1.419 . S
C1214 C1215 1.362 . S
C1215 H1205 0.930 . S
C1215 C1208 1.409 1_545 S
C1215 C1214 1.362 . S
H1216 C1222 0.930 . S
H1217 C1225 0.930 . S
H1218 C1226 0.930 . S
H1219 C1227 0.930 . S
H1220 C1230 0.930 . S
H1221 C1231 0.930 . S
C1222 H1216 0.930 . S
C1222 C1223 1.355 . S
C1222 C1224 1.415 . S
C1223 C1222 1.355 . S
C1223 C1225 1.419 . S
C1224 C1222 1.415 . S
C1224 C1229 1.425 . S
C1224 C1231 1.409 . S
C1225 H1217 0.930 . S
C1225 C1223 1.419 . S
C1225 C1226 1.362 . S
C1226 H1218 0.930 . S
C1226 C1225 1.362 . S
C1226 C1229 1.409 . S
C1227 H1219 0.930 . S
C1227 C1228 1.355 . S
C1227 C1229 1.415 . S
C1228 C1227 1.355 . S
C1228 C1230 1.419 . S
C1229 C1224 1.425 . S
C1229 C1226 1.409 . S
C1229 C1227 1.415 . S
C1230 H1220 0.930 . S
C1230 C1228 1.419 . S
C1230 C1231 1.362 . S
C1231 H1221 0.930 . S
C1231 C1224 1.409 . S
C1231 C1230 1.362 . S
H1232 C1238 0.930 . S
H1233 C1241 0.930 . S
H1234 C1242 0.930 . S
H1235 C1243 0.930 . S
H1236 C1246 0.930 . S
H1237 C1247 0.930 . S
C1238 H1232 0.930 . S
C1238 C1239 1.355 . S
C1238 C1240 1.415 . S
C1239 C1238 1.355 . S
C1239 C1241 1.419 . S
C1240 C1238 1.415 . S
C1240 C1245 1.425 1_545 S
C1240 C1247 1.409 1_545 S
C1241 H1233 0.930 . S
C1241 C1239 1.419 . S
C1241 C1242 1.362 . S
C1242 H1234 0.930 . S
C1242 C1241 1.362 . S
C1242 C1245 1.409 1_545 S
C1243 H1235 0.930 . S
C1243 C1244 1.355 . S
C1243 C1245 1.415 . S
C1244 C1243 1.355 . S
C1244 C1246 1.419 . S
C1245 C1240 1.425 1_565 S
C1245 C1242 1.409 1_565 S
C1245 C1243 1.415 . S
C1246 H1236 0.930 . S
C1246 C1244 1.419 . S
C1246 C1247 1.362 . S
C1247 H1237 0.930 . S
C1247 C1240 1.409 1_565 S
C1247 C1246 1.362 . S
H1248 C1254 0.930 . S
H1249 C1257 0.930 . S
H1250 C1258 0.930 . S
H1251 C1259 0.930 . S
H1252 C1262 0.930 . S
H1253 C1263 0.930 . S
C1254 H1248 0.930 . S
C1254 C1255 1.355 . S
C1254 C1256 1.415 . S
C1255 C1254 1.355 . S
C1255 C1257 1.419 . S
C1256 C1254 1.415 . S
C1256 C1261 1.425 . S
C1256 C1263 1.409 . S
C1257 H1249 0.930 . S
C1257 C1255 1.419 . S
C1257 C1258 1.362 . S
C1258 H1250 0.930 . S
C1258 C1257 1.362 . S
C1258 C1261 1.409 . S
C1259 H1251 0.930 . S
C1259 C1260 1.355 . S
C1259 C1261 1.415 . S
C1260 C1259 1.355 . S
C1260 C1262 1.419 . S
C1261 C1256 1.425 . S
C1261 C1258 1.409 . S
C1261 C1259 1.415 . S
C1262 H1252 0.930 . S
C1262 C1260 1.419 . S
C1262 C1263 1.362 . S
C1263 H1253 0.930 . S
C1263 C1256 1.409 . S
C1263 C1262 1.362 . S
H1264 C1270 0.930 . S
H1265 C1273 0.930 . S
H1266 C1274 0.930 . S
H1267 C1275 0.930 . S
H1268 C1278 0.930 . S
H1269 C1279 0.930 . S
C1270 H1264 0.930 . S
C1270 C1271 1.355 . S
C1270 C1272 1.440 . S
C1271 C1270 1.355 . S
C1271 C1273 1.419 . S
C1272 C1270 1.440 . S
C1272 C1277 1.417 1_565 S
C1272 C1279 1.392 1_565 S
C1273 H1265 0.930 . S
C1273 C1271 1.419 . S
C1273 C1274 1.362 . S
C1274 H1266 0.930 . S
C1274 C1273 1.362 . S
C1274 C1277 1.409 1_565 S
C1275 H1267 0.930 . S
C1275 C1276 1.355 . S
C1275 C1277 1.415 . S
C1276 C1275 1.355 . S
C1276 C1278 1.419 . S
C1277 C1272 1.417 1_545 S
C1277 C1274 1.409 1_545 S
C1277 C1275 1.415 . S
C1278 H1268 0.930 . S
C1278 C1276 1.419 . S
C1278 C1279 1.362 . S
C1279 H1269 0.930 . S
C1279 C1272 1.392 1_545 S
C1279 C1278 1.362 . S
H1280 C1286 0.930 . S
H1281 C1289 0.930 . S
H1282 C1290 0.930 . S
H1283 C1291 0.930 . S
H1284 C1294 0.930 . S
H1285 C1295 0.930 . S
C1286 H1280 0.930 . S
C1286 C1287 1.355 . S
C1286 C1288 1.415 . S
C1287 C1286 1.355 . S
C1287 C1289 1.419 . S
C1288 C1286 1.415 . S
C1288 C1293 1.425 . S
C1288 C1295 1.409 . S
C1289 H1281 0.930 . S
C1289 C1287 1.419 . S
C1289 C1290 1.362 . S
C1290 H1282 0.930 . S
C1290 C1289 1.362 . S
C1290 C1293 1.409 . S
C1291 H1283 0.930 . S
C1291 C1292 1.355 . S
C1291 C1293 1.415 . S
C1292 C1291 1.355 . S
C1292 C1294 1.419 . S
C1293 C1288 1.425 . S
C1293 C1290 1.409 . S
C1293 C1291 1.415 . S
C1294 H1284 0.930 . S
C1294 C1292 1.419 . S
C1294 C1295 1.362 . S
C1295 H1285 0.930 . S
C1295 C1288 1.409 . S
C1295 C1294 1.362 . S
H1296 C1302 0.930 . S
H1297 C1305 0.930 . S
H1298 C1306 0.930 . S
H1299 C1307 0.930 . S
H1300 C1310 0.930 . S
H1301 C1311 0.930 . S
C1302 H1296 0.930 . S
C1302 C1303 1.355 . S
C1302 C1304 1.415 . S
C1303 C1302 1.355 . S
C1303 C1305 1.419 . S
C1304 C1302 1.415 . S
C1304 C1309 1.425 1_565 S
C1304 C1311 1.409 1_565 S
C1305 H1297 0.930 . S
C1305 C1303 1.419 . S
C1305 C1306 1.362 . S
C1306 H1298 0.930 . S
C1306 C1305 1.362 . S
C1306 C1309 1.409 1_565 S
C1307 H1299 0.930 . S
C1307 C1308 1.355 . S
C1307 C1309 1.415 . S
C1308 C1307 1.355 . S
C1308 C1310 1.419 . S
C1309 C1304 1.425 1_545 S
C1309 C1306 1.409 1_545 S
C1309 C1307 1.415 . S
C1310 H1300 0.930 . S
C1310 C1308 1.419 . S
C1310 C1311 1.362 . S
C1311 H1301 0.930 . S
C1311 C1304 1.409 1_545 S
C1311 C1310 1.362 . S
H1312 C1318 0.930 . S
H1313 C1321 0.930 . S
H1314 C1322 0.930 . S
H1315 C1323 0.930 . S
H1316 C1326 0.930 . S
H1317 C1327 0.930 . S
C1318 H1312 0.930 . S
C1318 C1319 1.355 . S
C1318 C1320 1.415 . S
C1319 C1318 1.355 . S
C1319 C1321 1.419 . S
C1320 C1318 1.415 . S
C1320 C1325 1.425 . S
C1320 C1327 1.409 . S
C1321 H1313 0.930 . S
C1321 C1319 1.419 . S
C1321 C1322 1.362 . S
C1322 H1314 0.930 . S
C1322 C1321 1.362 . S
C1322 C1325 1.409 . S
C1323 H1315 0.930 . S
C1323 C1324 1.355 . S
C1323 C1325 1.415 . S
C1324 C1323 1.355 . S
C1324 C1326 1.419 . S
C1325 C1320 1.425 . S
C1325 C1322 1.409 . S
C1325 C1323 1.415 . S
C1326 H1316 0.930 . S
C1326 C1324 1.419 . S
C1326 C1327 1.362 . S
C1327 H1317 0.930 . S
C1327 C1320 1.409 . S
C1327 C1326 1.362 . S
H1328 C1334 0.930 . S
H1329 C1337 0.930 . S
H1330 C1338 0.930 . S
H1331 C1339 0.930 . S
H1332 C1342 0.930 . S
H1333 C1343 0.930 . S
C1334 H1328 0.930 . S
C1334 C1335 1.355 . S
C1334 C1336 1.415 . S
C1335 C1334 1.355 . S
C1335 C1337 1.419 . S
C1336 C1334 1.415 . S
C1336 C1341 1.425 . S
C1336 C1343 1.409 . S
C1337 H1329 0.930 . S
C1337 C1335 1.419 . S
C1337 C1338 1.362 . S
C1338 H1330 0.930 . S
C1338 C1337 1.362 . S
C1338 C1341 1.409 . S
C1339 H1331 0.930 . S
C1339 C1340 1.355 . S
C1339 C1341 1.415 . S
C1340 C1339 1.355 . S
C1340 C1342 1.419 . S
C1341 C1336 1.425 . S
C1341 C1338 1.409 . S
C1341 C1339 1.415 . S
C1342 H1332 0.930 . S
C1342 C1340 1.419 . S
C1342 C1343 1.362 . S
C1343 H1333 0.930 . S
C1343 C1336 1.409 . S
C1343 C1342 1.362 . S
H1344 C1350 0.930 . S
H1345 C1353 0.930 . S
H1346 C1354 0.930 . S
H1347 C1355 0.930 . S
H1348 C1358 0.930 . S
H1349 C1359 0.930 . S
C1350 H1344 0.930 . S
C1350 C1351 1.355 . S
C1350 C1352 1.415 . S
C1351 C1350 1.355 . S
C1351 C1353 1.419 . S
C1352 C1350 1.415 . S
C1352 C1357 1.410 1_455 S
C1352 C1359 1.409 1_455 S
C1353 H1345 0.930 . S
C1353 C1351 1.419 . S
C1353 C1354 1.362 . S
C1354 H1346 0.930 . S
C1354 C1353 1.362 . S
C1354 C1357 1.379 1_455 S
C1355 H1347 0.930 . S
C1355 C1356 1.355 . S
C1355 C1357 1.461 . S
C1356 C1355 1.355 . S
C1356 C1358 1.419 . S
C1357 C1352 1.410 1_655 S
C1357 C1354 1.379 1_655 S
C1357 C1355 1.461 . S
C1358 H1348 0.930 . S
C1358 C1356 1.419 . S
C1358 C1359 1.362 . S
C1359 H1349 0.930 . S
C1359 C1352 1.409 1_655 S
C1359 C1358 1.362 . S
H1360 C1366 0.930 . S
H1361 C1369 0.930 . S
H1362 C1370 0.930 . S
H1363 C1371 0.930 . S
H1364 C1374 0.930 . S
H1365 C1375 0.930 . S
C1366 H1360 0.930 . S
C1366 C1367 1.355 . S
C1366 C1368 1.415 . S
C1367 C1366 1.355 . S
C1367 C1369 1.419 . S
C1368 C1366 1.415 . S
C1368 C1373 1.425 . S
C1368 C1375 1.409 . S
C1369 H1361 0.930 . S
C1369 C1367 1.419 . S
C1369 C1370 1.362 . S
C1370 H1362 0.930 . S
C1370 C1369 1.362 . S
C1370 C1373 1.409 . S
C1371 H1363 0.930 . S
C1371 C1372 1.355 . S
C1371 C1373 1.415 . S
C1372 C1371 1.355 . S
C1372 C1374 1.419 . S
C1373 C1368 1.425 . S
C1373 C1370 1.409 . S
C1373 C1371 1.415 . S
C1374 H1364 0.930 . S
C1374 C1372 1.419 . S
C1374 C1375 1.362 . S
C1375 H1365 0.930 . S
C1375 C1368 1.409 . S
C1375 C1374 1.362 . S
H1376 C1382 0.930 . S
H1377 C1385 0.930 . S
H1378 C1386 0.930 . S
H1379 C1387 0.930 . S
H1380 C1390 0.930 . S
H1381 C1391 0.930 . S
C1382 H1376 0.930 . S
C1382 C1383 1.355 . S
C1382 C1384 1.415 1_455 S
C1383 C1382 1.355 . S
C1383 C1385 1.419 . S
C1384 C1382 1.415 1_655 S
C1384 C1389 1.425 . S
C1384 C1391 1.409 . S
C1385 H1377 0.930 . S
C1385 C1383 1.419 . S
C1385 C1386 1.362 . S
C1386 H1378 0.930 . S
C1386 C1385 1.362 . S
C1386 C1389 1.409 1_455 S
C1387 H1379 0.930 . S
C1387 C1388 1.355 . S
C1387 C1389 1.415 . S
C1388 C1387 1.355 . S
C1388 C1390 1.419 . S
C1389 C1384 1.425 . S
C1389 C1386 1.409 1_655 S
C1389 C1387 1.415 . S
C1390 H1380 0.930 . S
C1390 C1388 1.419 . S
C1390 C1391 1.362 . S
C1391 H1381 0.930 . S
C1391 C1384 1.409 . S
C1391 C1390 1.362 . S
H1392 C1398 0.930 . S
H1393 C1401 0.930 . S
H1394 C1402 0.930 . S
H1395 C1403 0.930 . S
H1396 C1406 0.930 . S
H1397 C1407 0.930 . S
C1398 H1392 0.930 . S
C1398 C1399 1.355 . S
C1398 C1400 1.415 . S
C1399 C1398 1.355 . S
C1399 C1401 1.419 . S
C1400 C1398 1.415 . S
C1400 C1405 1.425 . S
C1400 C1407 1.409 . S
C1401 H1393 0.930 . S
C1401 C1399 1.419 . S
C1401 C1402 1.362 . S
C1402 H1394 0.930 . S
C1402 C1401 1.362 . S
C1402 C1405 1.409 . S
C1403 H1395 0.930 . S
C1403 C1404 1.355 . S
C1403 C1405 1.415 . S
C1404 C1403 1.355 . S
C1404 C1406 1.419 . S
C1405 C1400 1.425 . S
C1405 C1402 1.409 . S
C1405 C1403 1.415 . S
C1406 H1396 0.930 . S
C1406 C1404 1.419 . S
C1406 C1407 1.362 . S
C1407 H1397 0.930 . S
C1407 C1400 1.409 . S
C1407 C1406 1.362 . S
H1408 C1414 0.930 . S
H1409 C1417 0.930 . S
H1410 C1418 0.930 . S
H1411 C1419 0.930 . S
H1412 C1422 0.930 . S
H1413 C1423 0.930 . S
C1414 H1408 0.930 . S
C1414 C1415 1.355 . S
C1414 C1416 1.415 . S
C1415 C1414 1.355 . S
C1415 C1417 1.419 . S
C1416 C1414 1.415 . S
C1416 C1421 1.425 1_655 S
C1416 C1423 1.409 1_655 S
C1417 H1409 0.930 . S
C1417 C1415 1.419 . S
C1417 C1418 1.362 . S
C1418 H1410 0.930 . S
C1418 C1417 1.362 . S
C1418 C1421 1.409 1_655 S
C1419 H1411 0.930 . S
C1419 C1420 1.355 . S
C1419 C1421 1.415 . S
C1420 C1419 1.355 . S
C1420 C1422 1.419 . S
C1421 C1416 1.425 1_455 S
C1421 C1418 1.409 1_455 S
C1421 C1419 1.415 . S
C1422 H1412 0.930 . S
C1422 C1420 1.419 . S
C1422 C1423 1.362 . S
C1423 H1413 0.930 . S
C1423 C1416 1.409 1_455 S
C1423 C1422 1.362 . S
H1424 C1430 0.930 . S
H1425 C1433 0.930 . S
H1426 C1434 0.930 . S
H1427 C1435 0.930 . S
H1428 C1438 0.930 . S
H1429 C1439 0.930 . S
C1430 H1424 0.930 . S
C1430 C1431 1.355 . S
C1430 C1432 1.415 . S
C1431 C1430 1.355 . S
C1431 C1433 1.419 . S
C1432 C1430 1.415 . S
C1432 C1437 1.425 1_455 S
C1432 C1439 1.409 1_455 S
C1433 H1425 0.930 . S
C1433 C1431 1.419 . S
C1433 C1434 1.362 . S
C1434 H1426 0.930 . S
C1434 C1433 1.362 . S
C1434 C1437 1.409 1_455 S
C1435 H1427 0.930 . S
C1435 C1436 1.355 . S
C1435 C1437 1.415 . S
C1436 C1435 1.355 . S
C1436 C1438 1.419 . S
C1437 C1432 1.425 1_655 S
C1437 C1434 1.409 1_655 S
C1437 C1435 1.415 . S
C1438 H1428 0.930 . S
C1438 C1436 1.419 . S
C1438 C1439 1.362 . S
C1439 H1429 0.930 . S
C1439 C1432 1.409 1_655 S
C1439 C1438 1.362 . S
H1440 C1446 0.930 . S
H1441 C1449 0.930 . S
H1442 C1450 0.930 . S
H1443 C1451 0.930 . S
H1444 C1454 0.930 . S
H1445 C1455 0.930 . S
C1446 H1440 0.930 . S
C1446 C1447 1.355 . S
C1446 C1448 1.415 . S
C1447 C1446 1.355 . S
C1447 C1449 1.419 . S
C1448 C1446 1.415 . S
C1448 C1453 1.425 1_655 S
C1448 C1455 1.409 1_655 S
C1449 H1441 0.930 . S
C1449 C1447 1.419 . S
C1449 C1450 1.362 . S
C1450 H1442 0.930 . S
C1450 C1449 1.362 . S
C1450 C1453 1.409 1_655 S
C1451 H1443 0.930 . S
C1451 C1452 1.355 . S
C1451 C1453 1.415 . S
C1452 C1451 1.355 . S
C1452 C1454 1.419 . S
C1453 C1448 1.425 1_455 S
C1453 C1450 1.409 1_455 S
C1453 C1451 1.415 . S
C1454 H1444 0.930 . S
C1454 C1452 1.419 . S
C1454 C1455 1.362 . S
C1455 H1445 0.930 . S
C1455 C1448 1.409 1_455 S
C1455 C1454 1.362 . S
H1456 C1462 0.930 . S
H1457 C1465 0.930 . S
H1458 C1466 0.930 . S
H1459 C1467 0.930 . S
H1460 C1470 0.930 . S
H1461 C1471 0.930 . S
C1462 H1456 0.930 . S
C1462 C1463 1.355 . S
C1462 C1464 1.415 . S
C1463 C1462 1.355 . S
C1463 C1465 1.419 . S
C1464 C1462 1.415 . S
C1464 C1469 1.425 . S
C1464 C1471 1.409 . S
C1465 H1457 0.930 . S
C1465 C1463 1.419 . S
C1465 C1466 1.362 . S
C1466 H1458 0.930 . S
C1466 C1465 1.362 . S
C1466 C1469 1.409 . S
C1467 H1459 0.930 . S
C1467 C1468 1.355 . S
C1467 C1469 1.415 . S
C1468 C1467 1.355 . S
C1468 C1470 1.419 . S
C1469 C1464 1.425 . S
C1469 C1466 1.409 . S
C1469 C1467 1.415 . S
C1470 H1460 0.930 . S
C1470 C1468 1.419 . S
C1470 C1471 1.362 . S
C1471 H1461 0.930 . S
C1471 C1464 1.409 . S
C1471 C1470 1.362 . S
H1472 C1478 0.930 . S
H1473 C1481 0.930 . S
H1474 C1482 0.930 . S
H1475 C1483 0.930 . S
H1476 C1486 0.930 . S
H1477 C1487 0.930 . S
C1478 H1472 0.930 . S
C1478 C1479 1.355 . S
C1478 C1480 1.415 . S
C1479 C1478 1.355 . S
C1479 C1481 1.419 . S
C1480 C1478 1.415 . S
C1480 C1485 1.425 1_455 S
C1480 C1487 1.409 1_455 S
C1481 H1473 0.930 . S
C1481 C1479 1.419 . S
C1481 C1482 1.362 . S
C1482 H1474 0.930 . S
C1482 C1481 1.362 . S
C1482 C1485 1.409 1_455 S
C1483 H1475 0.930 . S
C1483 C1484 1.355 . S
C1483 C1485 1.415 . S
C1484 C1483 1.355 . S
C1484 C1486 1.419 . S
C1485 C1480 1.425 1_655 S
C1485 C1482 1.409 1_655 S
C1485 C1483 1.415 . S
C1486 H1476 0.930 . S
C1486 C1484 1.419 . S
C1486 C1487 1.362 . S
C1487 H1477 0.930 . S
C1487 C1480 1.409 1_655 S
C1487 C1486 1.362 . S
H1488 C1494 0.930 . S
H1489 C1497 0.930 . S
H1490 C1498 0.930 . S
H1491 C1499 0.930 . S
H1492 C1502 0.930 . S
H1493 C1503 0.930 . S
C1494 H1488 0.930 . S
C1494 C1495 1.355 . S
C1494 C1496 1.415 . S
C1495 C1494 1.355 . S
C1495 C1497 1.419 . S
C1496 C1494 1.415 . S
C1496 C1501 1.425 . S
C1496 C1503 1.409 . S
C1497 H1489 0.930 . S
C1497 C1495 1.419 . S
C1497 C1498 1.362 . S
C1498 H1490 0.930 . S
C1498 C1497 1.362 . S
C1498 C1501 1.409 . S
C1499 H1491 0.930 . S
C1499 C1500 1.355 . S
C1499 C1501 1.415 . S
C1500 C1499 1.355 . S
C1500 C1502 1.419 . S
C1501 C1496 1.425 . S
C1501 C1498 1.409 . S
C1501 C1499 1.415 . S
C1502 H1492 0.930 . S
C1502 C1500 1.419 . S
C1502 C1503 1.362 . S
C1503 H1493 0.930 . S
C1503 C1496 1.409 . S
C1503 C1502 1.362 . S
H1504 C1510 0.930 . S
H1505 C1513 0.930 . S
H1506 C1514 0.930 . S
H1507 C1515 0.930 . S
H1508 C1518 0.930 . S
H1509 C1519 0.930 . S
C1510 H1504 0.930 . S
C1510 C1511 1.355 . S
C1510 C1512 1.415 . S
C1511 C1510 1.355 . S
C1511 C1513 1.419 . S
C1512 C1510 1.415 . S
C1512 C1517 1.425 1_655 S
C1512 C1519 1.409 1_655 S
C1513 H1505 0.930 . S
C1513 C1511 1.419 . S
C1513 C1514 1.362 . S
C1514 H1506 0.930 . S
C1514 C1513 1.362 . S
C1514 C1517 1.409 1_655 S
C1515 H1507 0.930 . S
C1515 C1516 1.355 . S
C1515 C1517 1.415 . S
C1516 C1515 1.355 . S
C1516 C1518 1.419 . S
C1517 C1512 1.425 1_455 S
C1517 C1514 1.409 1_455 S
C1517 C1515 1.415 . S
C1518 H1508 0.930 . S
C1518 C1516 1.419 . S
C1518 C1519 1.362 . S
C1519 H1509 0.930 . S
C1519 C1512 1.409 1_455 S
C1519 C1518 1.362 . S
H1520 C1526 0.930 . S
H1521 C1529 0.930 . S
H1522 C1530 0.930 . S
H1523 C1531 0.930 . S
H1524 C1534 0.930 . S
H1525 C1535 0.930 . S
C1526 H1520 0.930 . S
C1526 C1527 1.355 . S
C1526 C1528 1.415 . S
C1527 C1526 1.355 . S
C1527 C1529 1.419 . S
C1528 C1526 1.415 . S
C1528 C1533 1.425 . S
C1528 C1535 1.409 . S
C1529 H1521 0.930 . S
C1529 C1527 1.419 . S
C1529 C1530 1.362 . S
C1530 H1522 0.930 . S
C1530 C1529 1.362 . S
C1530 C1533 1.409 . S
C1531 H1523 0.930 . S
C1531 C1532 1.355 . S
C1531 C1533 1.415 . S
C1532 C1531 1.355 . S
C1532 C1534 1.419 . S
C1533 C1528 1.425 . S
C1533 C1530 1.409 . S
C1533 C1531 1.415 . S
C1534 H1524 0.930 . S
C1534 C1532 1.419 . S
C1534 C1535 1.362 . S
C1535 H1525 0.930 . S
C1535 C1528 1.409 . S
C1535 C1534 1.362 . S
H1536 C1542 0.930 . S
H1537 C1545 0.930 . S
H1538 C1546 0.930 . S
H1539 C1547 0.930 . S
H1540 C1550 0.930 . S
H1541 C1551 0.930 . S
C1542 H1536 0.930 . S
C1542 C1543 1.355 . S
C1542 C1544 1.415 . S
C1543 C1542 1.355 . S
C1543 C1545 1.419 . S
C1544 C1542 1.415 . S
C1544 C1549 1.425 1_655 S
C1544 C1551 1.409 1_655 S
C1545 H1537 0.930 . S
C1545 C1543 1.419 . S
C1545 C1546 1.362 . S
C1546 H1538 0.930 . S
C1546 C1545 1.362 . S
C1546 C1549 1.409 1_655 S
C1547 H1539 0.930 . S
C1547 C1548 1.355 . S
C1547 C1549 1.415 . S
C1548 C1547 1.355 . S
C1548 C1550 1.419 . S
C1549 C1544 1.425 1_455 S
C1549 C1546 1.409 1_455 S
C1549 C1547 1.415 . S
C1550 H1540 0.930 . S
C1550 C1548 1.419 . S
C1550 C1551 1.362 . S
C1551 H1541 0.930 . S
C1551 C1544 1.409 1_455 S
C1551 C1550 1.362 . S
H1552 C1558 0.930 . S
H1553 C1561 0.930 . S
H1554 C1562 0.930 . S
H1555 C1563 0.930 . S
H1556 C1566 0.930 . S
H1557 C1567 0.930 . S
C1558 H1552 0.930 . S
C1558 C1559 1.355 . S
C1558 C1560 1.415 . S
C1559 C1558 1.355 . S
C1559 C1561 1.419 . S
C1560 C1558 1.415 . S
C1560 C1565 1.425 . S
C1560 C1567 1.409 . S
C1561 H1553 0.930 . S
C1561 C1559 1.419 . S
C1561 C1562 1.362 . S
C1562 H1554 0.930 . S
C1562 C1561 1.362 . S
C1562 C1565 1.409 . S
C1563 H1555 0.930 . S
C1563 C1564 1.355 . S
C1563 C1565 1.415 . S
C1564 C1563 1.355 . S
C1564 C1566 1.419 . S
C1565 C1560 1.425 . S
C1565 C1562 1.409 . S
C1565 C1563 1.415 . S
C1566 H1556 0.930 . S
C1566 C1564 1.419 . S
C1566 C1567 1.362 . S
C1567 H1557 0.930 . S
C1567 C1560 1.409 . S
C1567 C1566 1.362 . S
H1568 C1574 0.930 . S
H1569 C1577 0.930 . S
H1570 C1578 0.930 . S
H1571 C1579 0.930 . S
H1572 C1582 0.930 . S
H1573 C1583 0.930 . S
C1574 H1568 0.930 . S
C1574 C1575 1.355 . S
C1574 C1576 1.415 . S
C1575 C1574 1.355 . S
C1575 C1577 1.419 . S
C1576 C1574 1.415 . S
C1576 C1581 1.425 1_545 S
C1576 C1583 1.409 1_545 S
C1577 H1569 0.930 . S
C1577 C1575 1.419 . S
C1577 C1578 1.362 . S
C1578 H1570 0.930 . S
C1578 C1577 1.362 . S
C1578 C1581 1.409 1_545 S
C1579 H1571 0.930 . S
C1579 C1580 1.355 . S
C1579 C1581 1.415 . S
C1580 C1579 1.355 . S
C1580 C1582 1.419 . S
C1581 C1576 1.425 1_565 S
C1581 C1578 1.409 1_565 S
C1581 C1579 1.415 . S
C1582 H1572 0.930 . S
C1582 C1580 1.419 . S
C1582 C1583 1.362 . S
C1583 H1573 0.930 . S
C1583 C1576 1.409 1_565 S
C1583 C1582 1.362 . S
H1584 C1590 0.930 . S
H1585 C1593 0.930 . S
H1586 C1594 0.930 . S
H1587 C1595 0.930 . S
H1588 C1598 0.930 . S
H1589 C1599 0.930 . S
C1590 H1584 0.930 . S
C1590 C1591 1.355 . S
C1590 C1592 1.415 . S
C1591 C1590 1.355 . S
C1591 C1593 1.419 . S
C1592 C1590 1.415 . S
C1592 C1597 1.425 . S
C1592 C1599 1.409 . S
C1593 H1585 0.930 . S
C1593 C1591 1.419 . S
C1593 C1594 1.362 . S
C1594 H1586 0.930 . S
C1594 C1593 1.362 . S
C1594 C1597 1.409 . S
C1595 H1587 0.930 . S
C1595 C1596 1.355 . S
C1595 C1597 1.415 . S
C1596 C1595 1.355 . S
C1596 C1598 1.419 . S
C1597 C1592 1.425 . S
C1597 C1594 1.409 . S
C1597 C1595 1.415 . S
C1598 H1588 0.930 . S
C1598 C1596 1.419 . S
C1598 C1599 1.362 . S
C1599 H1589 0.930 . S
C1599 C1592 1.409 . S
C1599 C1598 1.362 . S
H1600 C1606 0.930 . S
H1601 C1609 0.930 . S
H1602 C1610 0.930 . S
H1603 C1611 0.930 . S
H1604 C1614 0.930 . S
H1605 C1615 0.930 . S
C1606 H1600 0.930 . S
C1606 C1607 1.355 . S
C1606 C1608 1.415 . S
C1607 C1606 1.355 . S
C1607 C1609 1.419 . S
C1608 C1606 1.415 . S
C1608 C1613 1.425 1_545 S
C1608 C1615 1.409 1_545 S
C1609 H1601 0.930 . S
C1609 C1607 1.419 . S
C1609 C1610 1.362 . S
C1610 H1602 0.930 . S
C1610 C1609 1.362 . S
C1610 C1613 1.409 1_545 S
C1611 H1603 0.930 . S
C1611 C1612 1.355 . S
C1611 C1613 1.415 . S
C1612 C1611 1.355 . S
C1612 C1614 1.419 . S
C1613 C1608 1.425 1_565 S
C1613 C1610 1.409 1_565 S
C1613 C1611 1.415 . S
C1614 H1604 0.930 . S
C1614 C1612 1.419 . S
C1614 C1615 1.362 . S
C1615 H1605 0.930 . S
C1615 C1608 1.409 1_565 S
C1615 C1614 1.362 . S
H1616 C1622 0.930 . S
H1617 C1625 0.930 . S
H1618 C1626 0.930 . S
H1619 C1627 0.930 . S
H1620 C1630 0.930 . S
H1621 C1631 0.930 . S
C1622 H1616 0.930 . S
C1622 C1623 1.355 . S
C1622 C1624 1.415 . S
C1623 C1622 1.355 . S
C1623 C1625 1.419 . S
C1624 C1622 1.415 . S
C1624 C1629 1.425 . S
C1624 C1631 1.409 . S
C1625 H1617 0.930 . S
C1625 C1623 1.419 . S
C1625 C1626 1.362 . S
C1626 H1618 0.930 . S
C1626 C1625 1.362 . S
C1626 C1629 1.409 . S
C1627 H1619 0.930 . S
C1627 C1628 1.355 . S
C1627 C1629 1.415 . S
C1628 C1627 1.355 . S
C1628 C1630 1.419 . S
C1629 C1624 1.425 . S
C1629 C1626 1.409 . S
C1629 C1627 1.415 . S
C1630 H1620 0.930 . S
C1630 C1628 1.419 . S
C1630 C1631 1.362 . S
C1631 H1621 0.930 . S
C1631 C1624 1.409 . S
C1631 C1630 1.362 . S
H1632 C1638 0.930 . S
H1633 C1641 0.930 . S
H1634 C1642 0.930 . S
H1635 C1643 0.930 . S
H1636 C1646 0.930 . S
H1637 C1647 0.930 . S
C1638 H1632 0.930 . S
C1638 C1639 1.355 . S
C1638 C1640 1.415 . S
C1639 C1638 1.355 . S
C1639 C1641 1.419 . S
C1640 C1638 1.415 . S
C1640 C1645 1.425 1_545 S
C1640 C1647 1.409 1_545 S
C1641 H1633 0.930 . S
C1641 C1639 1.419 . S
C1641 C1642 1.362 . S
C1642 H1634 0.930 . S
C1642 C1641 1.362 . S
C1642 C1645 1.409 1_545 S
C1643 H1635 0.930 . S
C1643 C1644 1.355 . S
C1643 C1645 1.415 . S
C1644 C1643 1.355 . S
C1644 C1646 1.419 . S
C1645 C1640 1.425 1_565 S
C1645 C1642 1.409 1_565 S
C1645 C1643 1.415 . S
C1646 H1636 0.930 . S
C1646 C1644 1.419 . S
C1646 C1647 1.362 . S
C1647 H1637 0.930 . S
C1647 C1640 1.409 1_565 S
C1647 C1646 1.362 . S
H1648 C1654 0.930 . S
H1649 C1657 0.930 . S
H1650 C1658 0.930 . S
H1651 C1659 0.930 . S
H1652 C1662 0.930 . S
H1653 C1663 0.930 . S
C1654 H1648 0.930 . S
C1654 C1655 1.355 . S
C1654 C1656 1.415 . S
C1655 C1654 1.355 . S
C1655 C1657 1.419 . S
C1656 C1654 1.415 . S
C1656 C1661 1.425 . S
C1656 C1663 1.409 . S
C1657 H1649 0.930 . S
C1657 C1655 1.419 . S
C1657 C1658 1.362 . S
C1658 H1650 0.930 . S
C1658 C1657 1.362 . S
C1658 C1661 1.409 . S
C1659 H1651 0.930 . S
C1659 C1660 1.355 . S
C1659 C1661 1.415 . S
C1660 C1659 1.355 . S
C1660 C1662 1.419 . S
C1661 C1656 1.425 . S
C1661 C1658 1.409 . S
C1661 C1659 1.415 . S
C1662 H1652 0.930 . S
C1662 C1660 1.419 . S
C1662 C1663 1.362 . S
C1663 H1653 0.930 . S
C1663 C1656 1.409 . S
C1663 C1662 1.362 . S
H1664 C1670 0.930 . S
H1665 C1673 0.930 . S
H1666 C1674 0.930 . S
H1667 C1675 0.930 . S
H1668 C1678 0.930 . S
H1669 C1679 0.930 . S
C1670 H1664 0.930 . S
C1670 C1671 1.355 . S
C1670 C1672 1.415 . S
C1671 C1670 1.355 . S
C1671 C1673 1.419 . S
C1672 C1670 1.415 . S
C1672 C1677 1.425 1_545 S
C1672 C1679 1.409 1_545 S
C1673 H1665 0.930 . S
C1673 C1671 1.419 . S
C1673 C1674 1.362 . S
C1674 H1666 0.930 . S
C1674 C1673 1.362 . S
C1674 C1677 1.409 1_545 S
C1675 H1667 0.930 . S
C1675 C1676 1.355 . S
C1675 C1677 1.415 . S
C1676 C1675 1.355 . S
C1676 C1678 1.419 . S
C1677 C1672 1.425 1_565 S
C1677 C1674 1.409 1_565 S
C1677 C1675 1.415 . S
C1678 H1668 0.930 . S
C1678 C1676 1.419 . S
C1678 C1679 1.362 . S
C1679 H1669 0.930 . S
C1679 C1672 1.409 1_565 S
C1679 C1678 1.362 . S
H1680 C1686 0.930 . S
H1681 C1689 0.930 . S
H1682 C1690 0.930 . S
H1683 C1691 0.930 . S
H1684 C1694 0.930 . S
H1685 C1695 0.930 . S
C1686 H1680 0.930 . S
C1686 C1687 1.355 . S
C1686 C1688 1.415 . S
C1687 C1686 1.355 . S
C1687 C1689 1.419 . S
C1688 C1686 1.415 . S
C1688 C1693 1.425 . S
C1688 C1695 1.409 . S
C1689 H1681 0.930 . S
C1689 C1687 1.419 . S
C1689 C1690 1.362 . S
C1690 H1682 0.930 . S
C1690 C1689 1.362 . S
C1690 C1693 1.409 . S
C1691 H1683 0.930 . S
C1691 C1692 1.355 . S
C1691 C1693 1.415 . S
C1692 C1691 1.355 . S
C1692 C1694 1.419 . S
C1693 C1688 1.425 . S
C1693 C1690 1.409 . S
C1693 C1691 1.415 . S
C1694 H1684 0.930 . S
C1694 C1692 1.419 . S
C1694 C1695 1.362 . S
C1695 H1685 0.930 . S
C1695 C1688 1.409 . S
C1695 C1694 1.362 . S
H1696 C1702 0.930 . S
H1697 C1705 0.930 . S
H1698 C1706 0.930 . S
H1699 C1707 0.930 . S
H1700 C1710 0.930 . S
H1701 C1711 0.930 . S
C1702 H1696 0.930 . S
C1702 C1703 1.355 . S
C1702 C1704 1.415 . S
C1703 C1702 1.355 . S
C1703 C1705 1.419 . S
C1704 C1702 1.415 . S
C1704 C1709 1.425 1_556 S
C1704 C1711 1.409 1_556 S
C1705 H1697 0.930 . S
C1705 C1703 1.419 . S
C1705 C1706 1.362 . S
C1706 H1698 0.930 . S
C1706 C1705 1.362 . S
C1706 C1709 1.409 1_556 S
C1707 H1699 0.930 . S
C1707 C1708 1.355 . S
C1707 C1709 1.415 . S
C1708 C1707 1.355 . S
C1708 C1710 1.419 . S
C1709 C1704 1.425 1_554 S
C1709 C1706 1.409 1_554 S
C1709 C1707 1.415 . S
C1710 H1700 0.930 . S
C1710 C1708 1.419 . S
C1710 C1711 1.362 . S
C1711 H1701 0.930 . S
C1711 C1704 1.409 1_554 S
C1711 C1710 1.362 . S
H1712 C1718 0.930 . S
H1713 C1721 0.930 . S
H1714 C1722 0.930 . S
H1715 C1723 0.930 . S
H1716 C1726 0.930 . S
H1717 C1727 0.930 . S
C1718 H1712 0.930 . S
C1718 C1719 1.355 . S
C1718 C1720 1.415 . S
C1719 C1718 1.355 . S
C1719 C1721 1.419 . S
C1720 C1718 1.415 . S
C1720 C1725 1.425 1_556 S
C1720 C1727 1.409 1_556 S
C1721 H1713 0.930 . S
C1721 C1719 1.419 . S
C1721 C1722 1.362 . S
C1722 H1714 0.930 . S
C1722 C1721 1.362 . S
C1722 C1725 1.409 1_556 S
C1723 H1715 0.930 . S
C1723 C1724 1.355 . S
C1723 C1725 1.415 . S
C1724 C1723 1.355 . S
C1724 C1726 1.419 . S
C1725 C1720 1.425 1_554 S
C1725 C1722 1.409 1_554 S
C1725 C1723 1.415 . S
C1726 H1716 0.930 . S
C1726 C1724 1.419 . S
C1726 C1727 1.362 . S
C1727 H1717 0.930 . S
C1727 C1720 1.409 1_554 S
C1727 C1726 1.362 . S
H1728 C1734 0.930 . S
H1729 C1737 0.930 . S
H1730 C1738 0.930 . S
H1731 C1739 0.930 . S
H1732 C1742 0.930 . S
H1733 C1743 0.930 . S
C1734 H1728 0.930 . S
C1734 C1735 1.355 . S
C1734 C1736 1.415 . S
C1735 C1734 1.355 . S
C1735 C1737 1.419 . S
C1736 C1734 1.415 . S
C1736 C1741 1.425 . S
C1736 C1743 1.409 . S
C1737 H1729 0.930 . S
C1737 C1735 1.419 . S
C1737 C1738 1.362 . S
C1738 H1730 0.930 . S
C1738 C1737 1.362 . S
C1738 C1741 1.409 . S
C1739 H1731 0.930 . S
C1739 C1740 1.355 . S
C1739 C1741 1.415 . S
C1740 C1739 1.355 . S
C1740 C1742 1.419 . S
C1741 C1736 1.425 . S
C1741 C1738 1.409 . S
C1741 C1739 1.415 . S
C1742 H1732 0.930 . S
C1742 C1740 1.419 . S
C1742 C1743 1.362 . S
C1743 H1733 0.930 . S
C1743 C1736 1.409 . S
C1743 C1742 1.362 . S
H1744 C1750 0.930 . S
H1745 C1753 0.930 . S
H1746 C1754 0.930 . S
H1747 C1755 0.930 . S
H1748 C1758 0.930 . S
H1749 C1759 0.930 . S
C1750 H1744 0.930 . S
C1750 C1751 1.355 . S
C1750 C1752 1.383 1_556 S
C1751 C1750 1.355 . S
C1751 C1753 1.419 . S
C1752 C1750 1.383 1_554 S
C1752 C1757 1.436 . S
C1752 C1759 1.431 . S
C1753 H1745 0.930 . S
C1753 C1751 1.419 . S
C1753 C1754 1.362 . S
C1754 H1746 0.930 . S
C1754 C1753 1.362 . S
C1754 C1757 1.409 1_556 S
C1755 H1747 0.930 . S
C1755 C1756 1.355 . S
C1755 C1757 1.415 . S
C1756 C1755 1.355 . S
C1756 C1758 1.419 . S
C1757 C1752 1.436 . S
C1757 C1754 1.409 1_554 S
C1757 C1755 1.415 . S
C1758 H1748 0.930 . S
C1758 C1756 1.419 . S
C1758 C1759 1.362 . S
C1759 H1749 0.930 . S
C1759 C1752 1.431 . S
C1759 C1758 1.362 . S
H1760 C1766 0.930 . S
H1761 C1769 0.930 . S
H1762 C1770 0.930 . S
H1763 C1771 0.930 . S
H1764 C1774 0.930 . S
H1765 C1775 0.930 . S
C1766 H1760 0.930 . S
C1766 C1767 1.355 . S
C1766 C1768 1.415 . S
C1767 C1766 1.355 . S
C1767 C1769 1.419 . S
C1768 C1766 1.415 . S
C1768 C1773 1.425 . S
C1768 C1775 1.409 . S
C1769 H1761 0.930 . S
C1769 C1767 1.419 . S
C1769 C1770 1.362 . S
C1770 H1762 0.930 . S
C1770 C1769 1.362 . S
C1770 C1773 1.409 . S
C1771 H1763 0.930 . S
C1771 C1772 1.355 . S
C1771 C1773 1.415 . S
C1772 C1771 1.355 . S
C1772 C1774 1.419 . S
C1773 C1768 1.425 . S
C1773 C1770 1.409 . S
C1773 C1771 1.415 . S
C1774 H1764 0.930 . S
C1774 C1772 1.419 . S
C1774 C1775 1.362 . S
C1775 H1765 0.930 . S
C1775 C1768 1.409 . S
C1775 C1774 1.362 . S
H1776 C1782 0.930 . S
H1777 C1785 0.930 . S
H1778 C1786 0.930 . S
H1779 C1787 0.930 . S
H1780 C1790 0.930 . S
H1781 C1791 0.930 . S
C1782 H1776 0.930 . S
C1782 C1783 1.355 . S
C1782 C1784 1.415 . S
C1783 C1782 1.355 . S
C1783 C1785 1.419 . S
C1784 C1782 1.415 . S
C1784 C1789 1.425 1_556 S
C1784 C1791 1.409 1_556 S
C1785 H1777 0.930 . S
C1785 C1783 1.419 . S
C1785 C1786 1.362 . S
C1786 H1778 0.930 . S
C1786 C1785 1.362 . S
C1786 C1789 1.409 1_556 S
C1787 H1779 0.930 . S
C1787 C1788 1.355 . S
C1787 C1789 1.415 . S
C1788 C1787 1.355 . S
C1788 C1790 1.419 . S
C1789 C1784 1.425 1_554 S
C1789 C1786 1.409 1_554 S
C1789 C1787 1.415 . S
C1790 H1780 0.930 . S
C1790 C1788 1.419 . S
C1790 C1791 1.362 . S
C1791 H1781 0.930 . S
C1791 C1784 1.409 1_554 S
C1791 C1790 1.362 . S
H1792 C1798 0.930 . S
H1793 C1801 0.930 . S
H1794 C1802 0.930 . S
H1795 C1803 0.930 . S
H1796 C1806 0.930 . S
H1797 C1807 0.930 . S
C1798 H1792 0.930 . S
C1798 C1799 1.355 . S
C1798 C1800 1.415 . S
C1799 C1798 1.355 . S
C1799 C1801 1.419 . S
C1800 C1798 1.415 . S
C1800 C1805 1.425 . S
C1800 C1807 1.409 . S
C1801 H1793 0.930 . S
C1801 C1799 1.419 . S
C1801 C1802 1.362 . S
C1802 H1794 0.930 . S
C1802 C1801 1.362 . S
C1802 C1805 1.409 . S
C1803 H1795 0.930 . S
C1803 C1804 1.355 . S
C1803 C1805 1.415 . S
C1804 C1803 1.355 . S
C1804 C1806 1.419 . S
C1805 C1800 1.425 . S
C1805 C1802 1.409 . S
C1805 C1803 1.415 . S
C1806 H1796 0.930 . S
C1806 C1804 1.419 . S
C1806 C1807 1.362 . S
C1807 H1797 0.930 . S
C1807 C1800 1.409 . S
C1807 C1806 1.362 . S
H1808 C1814 0.930 . S
H1809 C1817 0.930 . S
H1810 C1818 0.930 . S
H1811 C1819 0.930 . S
H1812 C1822 0.930 . S
H1813 C1823 0.930 . S
C1814 H1808 0.930 . S
C1814 C1815 1.355 . S
C1814 C1816 1.415 . S
C1815 C1814 1.355 . S
C1815 C1817 1.419 . S
C1816 C1814 1.415 . S
C1816 C1821 1.425 . S
C1816 C1823 1.409 . S
C1817 H1809 0.930 . S
C1817 C1815 1.419 . S
C1817 C1818 1.362 . S
C1818 H1810 0.930 . S
C1818 C1817 1.362 . S
C1818 C1821 1.409 . S
C1819 H1811 0.930 . S
C1819 C1820 1.355 . S
C1819 C1821 1.415 . S
C1820 C1819 1.355 . S
C1820 C1822 1.419 . S
C1821 C1816 1.425 . S
C1821 C1818 1.409 . S
C1821 C1819 1.415 . S
C1822 H1812 0.930 . S
C1822 C1820 1.419 . S
C1822 C1823 1.362 . S
C1823 H1813 0.930 . S
C1823 C1816 1.409 . S
C1823 C1822 1.362 . S
H1824 C1830 0.930 . S
H1825 C1833 0.930 . S
H1826 C1834 0.930 . S
H1827 C1835 0.930 . S
H1828 C1838 0.930 . S
H1829 C1839 0.930 . S
C1830 H1824 0.930 . S
C1830 C1831 1.355 . S
C1830 C1832 1.415 . S
C1831 C1830 1.355 . S
C1831 C1833 1.419 . S
C1832 C1830 1.415 . S
C1832 C1837 1.425 . S
C1832 C1839 1.409 . S
C1833 H1825 0.930 . S
C1833 C1831 1.419 . S
C1833 C1834 1.362 . S
C1834 H1826 0.930 . S
C1834 C1833 1.362 . S
C1834 C1837 1.409 . S
C1835 H1827 0.930 . S
C1835 C1836 1.355 . S
C1835 C1837 1.415 . S
C1836 C1835 1.355 . S
C1836 C1838 1.419 . S
C1837 C1832 1.425 . S
C1837 C1834 1.409 . S
C1837 C1835 1.415 . S
C1838 H1828 0.930 . S
C1838 C1836 1.419 . S
C1838 C1839 1.362 . S
C1839 H1829 0.930 . S
C1839 C1832 1.409 . S
C1839 C1838 1.362 . S
H1840 C1846 0.930 . S
H1841 C1849 0.930 . S
H1842 C1850 0.930 . S
H1843 C1851 0.930 . S
H1844 C1854 0.930 . S
H1845 C1855 0.930 . S
C1846 H1840 0.930 . S
C1846 C1847 1.355 . S
C1846 C1848 1.415 . S
C1847 C1846 1.355 . S
C1847 C1849 1.419 . S
C1848 C1846 1.415 . S
C1848 C1853 1.425 . S
C1848 C1855 1.409 . S
C1849 H1841 0.930 . S
C1849 C1847 1.419 . S
C1849 C1850 1.362 . S
C1850 H1842 0.930 . S
C1850 C1849 1.362 . S
C1850 C1853 1.409 . S
C1851 H1843 0.930 . S
C1851 C1852 1.355 . S
C1851 C1853 1.415 . S
C1852 C1851 1.355 . S
C1852 C1854 1.419 . S
C1853 C1848 1.425 . S
C1853 C1850 1.409 . S
C1853 C1851 1.415 . S
C1854 H1844 0.930 . S
C1854 C1852 1.419 . S
C1854 C1855 1.362 . S
C1855 H1845 0.930 . S
C1855 C1848 1.409 . S
C1855 C1854 1.362 . S
H1856 C1862 0.930 . S
H1857 C1865 0.930 . S
H1858 C1866 0.930 . S
H1859 C1867 0.930 . S
H1860 C1870 0.930 . S
H1861 C1871 0.930 . S
C1862 H1856 0.930 . S
C1862 C1863 1.355 . S
C1862 C1864 1.415 . S
C1863 C1862 1.355 . S
C1863 C1865 1.419 . S
C1864 C1862 1.415 . S
C1864 C1869 1.425 . S
C1864 C1871 1.409 . S
C1865 H1857 0.930 . S
C1865 C1863 1.419 . S
C1865 C1866 1.362 . S
C1866 H1858 0.930 . S
C1866 C1865 1.362 . S
C1866 C1869 1.409 . S
C1867 H1859 0.930 . S
C1867 C1868 1.355 . S
C1867 C1869 1.415 . S
C1868 C1867 1.355 . S
C1868 C1870 1.419 . S
C1869 C1864 1.425 . S
C1869 C1866 1.409 . S
C1869 C1867 1.415 . S
C1870 H1860 0.930 . S
C1870 C1868 1.419 . S
C1870 C1871 1.362 . S
C1871 H1861 0.930 . S
C1871 C1864 1.409 . S
C1871 C1870 1.362 . S
H1872 C1878 0.930 . S
H1873 C1881 0.930 . S
H1874 C1882 0.930 . S
H1875 C1883 0.930 . S
H1876 C1886 0.930 . S
H1877 C1887 0.930 . S
C1878 H1872 0.930 . S
C1878 C1879 1.355 . S
C1878 C1880 1.415 . S
C1879 C1878 1.355 . S
C1879 C1881 1.419 . S
C1880 C1878 1.415 . S
C1880 C1885 1.425 . S
C1880 C1887 1.409 . S
C1881 H1873 0.930 . S
C1881 C1879 1.419 . S
C1881 C1882 1.362 . S
C1882 H1874 0.930 . S
C1882 C1881 1.362 . S
C1882 C1885 1.409 . S
C1883 H1875 0.930 . S
C1883 C1884 1.355 . S
C1883 C1885 1.415 . S
C1884 C1883 1.355 . S
C1884 C1886 1.419 . S
C1885 C1880 1.425 . S
C1885 C1882 1.409 . S
C1885 C1883 1.415 . S
C1886 H1876 0.930 . S
C1886 C1884 1.419 . S
C1886 C1887 1.362 . S
C1887 H1877 0.930 . S
C1887 C1880 1.409 . S
C1887 C1886 1.362 . S
H1888 C1894 0.930 . S
H1889 C1897 0.930 . S
H1890 C1898 0.930 . S
H1891 C1899 0.930 . S
H1892 C1902 0.930 . S
H1893 C1903 0.930 . S
C1894 H1888 0.930 . S
C1894 C1895 1.355 . S
C1894 C1896 1.415 . S
C1895 C1894 1.355 . S
C1895 C1897 1.419 . S
C1896 C1894 1.415 . S
C1896 C1901 1.425 . S
C1896 C1903 1.409 . S
C1897 H1889 0.930 . S
C1897 C1895 1.419 . S
C1897 C1898 1.362 . S
C1898 H1890 0.930 . S
C1898 C1897 1.362 . S
C1898 C1901 1.409 . S
C1899 H1891 0.930 . S
C1899 C1900 1.355 . S
C1899 C1901 1.415 . S
C1900 C1899 1.355 . S
C1900 C1902 1.419 . S
C1901 C1896 1.425 . S
C1901 C1898 1.409 . S
C1901 C1899 1.415 . S
C1902 H1892 0.930 . S
C1902 C1900 1.419 . S
C1902 C1903 1.362 . S
C1903 H1893 0.930 . S
C1903 C1896 1.409 . S
C1903 C1902 1.362 . S
H1904 C1910 0.930 . S
H1905 C1913 0.930 . S
H1906 C1914 0.930 . S
H1907 C1915 0.930 . S
H1908 C1918 0.930 . S
H1909 C1919 0.930 . S
C1910 H1904 0.930 . S
C1910 C1911 1.355 . S
C1910 C1912 1.415 . S
C1911 C1910 1.355 . S
C1911 C1913 1.419 . S
C1912 C1910 1.415 . S
C1912 C1917 1.425 . S
C1912 C1919 1.409 . S
C1913 H1905 0.930 . S
C1913 C1911 1.419 . S
C1913 C1914 1.362 . S
C1914 H1906 0.930 . S
C1914 C1913 1.362 . S
C1914 C1917 1.409 . S
C1915 H1907 0.930 . S
C1915 C1916 1.355 . S
C1915 C1917 1.415 . S
C1916 C1915 1.355 . S
C1916 C1918 1.419 . S
C1917 C1912 1.425 . S
C1917 C1914 1.409 . S
C1917 C1915 1.415 . S
C1918 H1908 0.930 . S
C1918 C1916 1.419 . S
C1918 C1919 1.362 . S
C1919 H1909 0.930 . S
C1919 C1912 1.409 . S
C1919 C1918 1.362 . S
H1920 C1926 0.930 . S
H1921 C1929 0.930 . S
H1922 C1930 0.930 . S
H1923 C1931 0.930 . S
H1924 C1934 0.930 . S
H1925 C1935 0.930 . S
C1926 H1920 0.930 . S
C1926 C1927 1.355 . S
C1926 C1928 1.415 . S
C1927 C1926 1.355 . S
C1927 C1929 1.419 . S
C1928 C1926 1.415 . S
C1928 C1933 1.425 . S
C1928 C1935 1.409 . S
C1929 H1921 0.930 . S
C1929 C1927 1.419 . S
C1929 C1930 1.362 . S
C1930 H1922 0.930 . S
C1930 C1929 1.362 . S
C1930 C1933 1.409 . S
C1931 H1923 0.930 . S
C1931 C1932 1.355 . S
C1931 C1933 1.415 . S
C1932 C1931 1.355 . S
C1932 C1934 1.419 . S
C1933 C1928 1.425 . S
C1933 C1930 1.409 . S
C1933 C1931 1.415 . S
C1934 H1924 0.930 . S
C1934 C1932 1.419 . S
C1934 C1935 1.362 . S
C1935 H1925 0.930 . S
C1935 C1928 1.409 . S
C1935 C1934 1.362 . S
H1936 C1942 0.930 . S
H1937 C1945 0.930 . S
H1938 C1946 0.930 . S
H1939 C1947 0.930 . S
H1940 C1950 0.930 . S
H1941 C1951 0.930 . S
C1942 H1936 0.930 . S
C1942 C1943 1.355 . S
C1942 C1944 1.415 . S
C1943 C1942 1.355 . S
C1943 C1945 1.419 . S
C1944 C1942 1.415 . S
C1944 C1949 1.425 . S
C1944 C1951 1.409 . S
C1945 H1937 0.930 . S
C1945 C1943 1.419 . S
C1945 C1946 1.362 . S
C1946 H1938 0.930 . S
C1946 C1945 1.362 . S
C1946 C1949 1.409 . S
C1947 H1939 0.930 . S
C1947 C1948 1.355 . S
C1947 C1949 1.415 . S
C1948 C1947 1.355 . S
C1948 C1950 1.419 . S
C1949 C1944 1.425 . S
C1949 C1946 1.409 . S
C1949 C1947 1.415 . S
C1950 H1940 0.930 . S
C1950 C1948 1.419 . S
C1950 C1951 1.362 . S
C1951 H1941 0.930 . S
C1951 C1944 1.409 . S
C1951 C1950 1.362 . S
H1952 C1958 0.930 . S
H1953 C1961 0.930 . S
H1954 C1962 0.930 . S
H1955 C1963 0.930 . S
H1956 C1966 0.930 . S
H1957 C1967 0.930 . S
C1958 H1952 0.930 . S
C1958 C1959 1.355 . S
C1958 C1960 1.415 . S
C1959 C1958 1.355 . S
C1959 C1961 1.419 . S
C1960 C1958 1.415 . S
C1960 C1965 1.425 . S
C1960 C1967 1.409 . S
C1961 H1953 0.930 . S
C1961 C1959 1.419 . S
C1961 C1962 1.362 . S
C1962 H1954 0.930 . S
C1962 C1961 1.362 . S
C1962 C1965 1.409 . S
C1963 H1955 0.930 . S
C1963 C1964 1.355 . S
C1963 C1965 1.415 . S
C1964 C1963 1.355 . S
C1964 C1966 1.419 . S
C1965 C1960 1.425 . S
C1965 C1962 1.409 . S
C1965 C1963 1.415 . S
C1966 H1956 0.930 . S
C1966 C1964 1.419 . S
C1966 C1967 1.362 . S
C1967 H1957 0.930 . S
C1967 C1960 1.409 . S
C1967 C1966 1.362 . S
H1968 C1974 0.930 . S
H1969 C1977 0.930 . S
H1970 C1978 0.930 . S
H1971 C1979 0.930 . S
H1972 C1982 0.930 . S
H1973 C1983 0.930 . S
C1974 H1968 0.930 . S
C1974 C1975 1.355 . S
C1974 C1976 1.415 . S
C1975 C1974 1.355 . S
C1975 C1977 1.419 . S
C1976 C1974 1.415 . S
C1976 C1981 1.425 . S
C1976 C1983 1.409 . S
C1977 H1969 0.930 . S
C1977 C1975 1.419 . S
C1977 C1978 1.362 . S
C1978 H1970 0.930 . S
C1978 C1977 1.362 . S
C1978 C1981 1.409 . S
C1979 H1971 0.930 . S
C1979 C1980 1.355 . S
C1979 C1981 1.415 . S
C1980 C1979 1.355 . S
C1980 C1982 1.419 . S
C1981 C1976 1.425 . S
C1981 C1978 1.409 . S
C1981 C1979 1.415 . S
C1982 H1972 0.930 . S
C1982 C1980 1.419 . S
C1982 C1983 1.362 . S
C1983 H1973 0.930 . S
C1983 C1976 1.409 . S
C1983 C1982 1.362 . S
H1984 C1990 0.930 . S
H1985 C1993 0.930 . S
H1986 C1994 0.930 . S
H1987 C1995 0.930 . S
H1988 C1998 0.930 . S
H1989 C1999 0.930 . S
C1990 H1984 0.930 . S
C1990 C1991 1.355 . S
C1990 C1992 1.415 . S
C1991 C1990 1.355 . S
C1991 C1993 1.419 . S
C1992 C1990 1.415 . S
C1992 C1997 1.425 . S
C1992 C1999 1.409 . S
C1993 H1985 0.930 . S
C1993 C1991 1.419 . S
C1993 C1994 1.362 . S
C1994 H1986 0.930 . S
C1994 C1993 1.362 . S
C1994 C1997 1.409 . S
C1995 H1987 0.930 . S
C1995 C1996 1.355 . S
C1995 C1997 1.415 . S
C1996 C1995 1.355 . S
C1996 C1998 1.419 . S
C1997 C1992 1.425 . S
C1997 C1994 1.409 . S
C1997 C1995 1.415 . S
C1998 H1988 0.930 . S
C1998 C1996 1.419 . S
C1998 C1999 1.362 . S
C1999 H1989 0.930 . S
C1999 C1992 1.409 . S
C1999 C1998 1.362 . S
H2000 C2006 0.930 . S
H2001 C2009 0.930 . S
H2002 C2010 0.930 . S
H2003 C2011 0.930 . S
H2004 C2014 0.930 . S
H2005 C2015 0.930 . S
C2006 H2000 0.930 . S
C2006 C2007 1.355 . S
C2006 C2008 1.415 . S
C2007 C2006 1.355 . S
C2007 C2009 1.419 . S
C2008 C2006 1.415 . S
C2008 C2013 1.425 . S
C2008 C2015 1.409 . S
C2009 H2001 0.930 . S
C2009 C2007 1.419 . S
C2009 C2010 1.362 . S
C2010 H2002 0.930 . S
C2010 C2009 1.362 . S
C2010 C2013 1.409 . S
C2011 H2003 0.930 . S
C2011 C2012 1.355 . S
C2011 C2013 1.415 . S
C2012 C2011 1.355 . S
C2012 C2014 1.419 . S
C2013 C2008 1.425 . S
C2013 C2010 1.409 . S
C2013 C2011 1.415 . S
C2014 H2004 0.930 . S
C2014 C2012 1.419 . S
C2014 C2015 1.362 . S
C2015 H2005 0.930 . S
C2015 C2008 1.409 . S
C2015 C2014 1.362 . S
H2016 C2022 0.930 . S
H2017 C2025 0.930 . S
H2018 C2026 0.930 . S
H2019 C2027 0.930 . S
H2020 C2030 0.930 . S
H2021 C2031 0.930 . S
C2022 H2016 0.930 . S
C2022 C2023 1.355 . S
C2022 C2024 1.415 . S
C2023 C2022 1.355 . S
C2023 C2025 1.419 . S
C2024 C2022 1.415 . S
C2024 C2029 1.425 . S
C2024 C2031 1.409 . S
C2025 H2017 0.930 . S
C2025 C2023 1.419 . S
C2025 C2026 1.362 . S
C2026 H2018 0.930 . S
C2026 C2025 1.362 . S
C2026 C2029 1.409 . S
C2027 H2019 0.930 . S
C2027 C2028 1.355 . S
C2027 C2029 1.415 . S
C2028 C2027 1.355 . S
C2028 C2030 1.419 . S
C2029 C2024 1.425 . S
C2029 C2026 1.409 . S
C2029 C2027 1.415 . S
C2030 H2020 0.930 . S
C2030 C2028 1.419 . S
C2030 C2031 1.362 . S
C2031 H2021 0.930 . S
C2031 C2024 1.409 . S
C2031 C2030 1.362 . S
H2032 C2038 0.930 . S
H2033 C2041 0.930 . S
H2034 C2042 0.930 . S
H2035 C2043 0.930 . S
H2036 C2046 0.930 . S
H2037 C2047 0.930 . S
C2038 H2032 0.930 . S
C2038 C2039 1.355 . S
C2038 C2040 1.415 . S
C2039 C2038 1.355 . S
C2039 C2041 1.419 . S
C2040 C2038 1.415 . S
C2040 C2045 1.425 . S
C2040 C2047 1.409 . S
C2041 H2033 0.930 . S
C2041 C2039 1.419 . S
C2041 C2042 1.362 . S
C2042 H2034 0.930 . S
C2042 C2041 1.362 . S
C2042 C2045 1.409 . S
C2043 H2035 0.930 . S
C2043 C2044 1.355 . S
C2043 C2045 1.415 . S
C2044 C2043 1.355 . S
C2044 C2046 1.419 . S
C2045 C2040 1.425 . S
C2045 C2042 1.409 . S
C2045 C2043 1.415 . S
C2046 H2036 0.930 . S
C2046 C2044 1.419 . S
C2046 C2047 1.362 . S
C2047 H2037 0.930 . S
C2047 C2040 1.409 . S
C2047 C2046 1.362 . S
H2048 C2054 0.930 . S
H2049 C2057 0.930 . S
H2050 C2058 0.930 . S
H2051 C2059 0.930 . S
H2052 C2062 0.930 . S
H2053 C2063 0.930 . S
C2054 H2048 0.930 . S
C2054 C2055 1.355 . S
C2054 C2056 1.415 . S
C2055 C2054 1.355 . S
C2055 C2057 1.419 . S
C2056 C2054 1.415 . S
C2056 C2061 1.425 . S
C2056 C2063 1.409 . S
C2057 H2049 0.930 . S
C2057 C2055 1.419 . S
C2057 C2058 1.362 . S
C2058 H2050 0.930 . S
C2058 C2057 1.362 . S
C2058 C2061 1.409 . S
C2059 H2051 0.930 . S
C2059 C2060 1.355 . S
C2059 C2061 1.415 . S
C2060 C2059 1.355 . S
C2060 C2062 1.419 . S
C2061 C2056 1.425 . S
C2061 C2058 1.409 . S
C2061 C2059 1.415 . S
C2062 H2052 0.930 . S
C2062 C2060 1.419 . S
C2062 C2063 1.362 . S
C2063 H2053 0.930 . S
C2063 C2056 1.409 . S
C2063 C2062 1.362 . S
H2064 C2070 0.930 . S
H2065 C2073 0.930 . S
H2066 C2074 0.930 . S
H2067 C2075 0.930 . S
H2068 C2078 0.930 . S
H2069 C2079 0.930 . S
C2070 H2064 0.930 . S
C2070 C2071 1.355 . S
C2070 C2072 1.415 . S
C2071 C2070 1.355 . S
C2071 C2073 1.419 . S
C2072 C2070 1.415 . S
C2072 C2077 1.425 . S
C2072 C2079 1.409 . S
C2073 H2065 0.930 . S
C2073 C2071 1.419 . S
C2073 C2074 1.362 . S
C2074 H2066 0.930 . S
C2074 C2073 1.362 . S
C2074 C2077 1.409 . S
C2075 H2067 0.930 . S
C2075 C2076 1.355 . S
C2075 C2077 1.415 . S
C2076 C2075 1.355 . S
C2076 C2078 1.419 . S
C2077 C2072 1.425 . S
C2077 C2074 1.409 . S
C2077 C2075 1.415 . S
C2078 H2068 0.930 . S
C2078 C2076 1.419 . S
C2078 C2079 1.362 . S
C2079 H2069 0.930 . S
C2079 C2072 1.409 . S
C2079 C2078 1.362 . S
H2080 C2086 0.930 . S
H2081 C2089 0.930 . S
H2082 C2090 0.930 . S
H2083 C2091 0.930 . S
H2084 C2094 0.930 . S
H2085 C2095 0.930 . S
C2086 H2080 0.930 . S
C2086 C2087 1.355 . S
C2086 C2088 1.415 . S
C2087 C2086 1.355 . S
C2087 C2089 1.419 . S
C2088 C2086 1.415 . S
C2088 C2093 1.425 . S
C2088 C2095 1.409 . S
C2089 H2081 0.930 . S
C2089 C2087 1.419 . S
C2089 C2090 1.362 . S
C2090 H2082 0.930 . S
C2090 C2089 1.362 . S
C2090 C2093 1.409 . S
C2091 H2083 0.930 . S
C2091 C2092 1.355 . S
C2091 C2093 1.415 . S
C2092 C2091 1.355 . S
C2092 C2094 1.419 . S
C2093 C2088 1.425 . S
C2093 C2090 1.409 . S
C2093 C2091 1.415 . S
C2094 H2084 0.930 . S
C2094 C2092 1.419 . S
C2094 C2095 1.362 . S
C2095 H2085 0.930 . S
C2095 C2088 1.409 . S
C2095 C2094 1.362 . S
H2096 C2102 0.930 . S
H2097 C2105 0.930 . S
H2098 C2106 0.930 . S
H2099 C2107 0.930 . S
H2100 C2110 0.930 . S
H2101 C2111 0.930 . S
C2102 H2096 0.930 . S
C2102 C2103 1.355 . S
C2102 C2104 1.415 . S
C2103 C2102 1.355 . S
C2103 C2105 1.419 . S
C2104 C2102 1.415 . S
C2104 C2109 1.425 . S
C2104 C2111 1.409 . S
C2105 H2097 0.930 . S
C2105 C2103 1.419 . S
C2105 C2106 1.362 . S
C2106 H2098 0.930 . S
C2106 C2105 1.362 . S
C2106 C2109 1.409 . S
C2107 H2099 0.930 . S
C2107 C2108 1.355 . S
C2107 C2109 1.415 . S
C2108 C2107 1.355 . S
C2108 C2110 1.419 . S
C2109 C2104 1.425 . S
C2109 C2106 1.409 . S
C2109 C2107 1.415 . S
C2110 H2100 0.930 . S
C2110 C2108 1.419 . S
C2110 C2111 1.362 . S
C2111 H2101 0.930 . S
C2111 C2104 1.409 . S
C2111 C2110 1.362 . S
H2112 C2118 0.930 . S
H2113 C2121 0.930 . S
H2114 C2122 0.930 . S
H2115 C2123 0.930 . S
H2116 C2126 0.930 . S
H2117 C2127 0.930 . S
C2118 H2112 0.930 . S
C2118 C2119 1.355 . S
C2118 C2120 1.415 . S
C2119 C2118 1.355 . S
C2119 C2121 1.419 . S
C2120 C2118 1.415 . S
C2120 C2125 1.425 . S
C2120 C2127 1.409 . S
C2121 H2113 0.930 . S
C2121 C2119 1.419 . S
C2121 C2122 1.362 . S
C2122 H2114 0.930 . S
C2122 C2121 1.362 . S
C2122 C2125 1.409 . S
C2123 H2115 0.930 . S
C2123 C2124 1.355 . S
C2123 C2125 1.415 . S
C2124 C2123 1.355 . S
C2124 C2126 1.419 . S
C2125 C2120 1.425 . S
C2125 C2122 1.409 . S
C2125 C2123 1.415 . S
C2126 H2116 0.930 . S
C2126 C2124 1.419 . S
C2126 C2127 1.362 . S
C2127 H2117 0.930 . S
C2127 C2120 1.409 . S
C2127 C2126 1.362 . S
H2128 C2134 0.930 . S
H2129 C2137 0.930 . S
H2130 C2138 0.930 . S
H2131 C2139 0.930 . S
H2132 C2142 0.930 . S
H2133 C2143 0.930 . S
C2134 H2128 0.930 . S
C2134 C2135 1.355 . S
C2134 C2136 1.415 . S
C2135 C2134 1.355 . S
C2135 C2137 1.419 . S
C2136 C2134 1.415 . S
C2136 C2141 1.425 . S
C2136 C2143 1.409 . S
C2137 H2129 0.930 . S
C2137 C2135 1.419 . S
C2137 C2138 1.362 . S
C2138 H2130 0.930 . S
C2138 C2137 1.362 . S
C2138 C2141 1.409 . S
C2139 H2131 0.930 . S
C2139 C2140 1.355 . S
C2139 C2141 1.415 . S
C2140 C2139 1.355 . S
C2140 C2142 1.419 . S
C2141 C2136 1.425 . S
C2141 C2138 1.409 . S
C2141 C2139 1.415 . S
C2142 H2132 0.930 . S
C2142 C2140 1.419 . S
C2142 C2143 1.362 . S
C2143 H2133 0.930 . S
C2143 C2136 1.409 . S
C2143 C2142 1.362 . S
H2144 C2150 0.930 . S
H2145 C2153 0.930 . S
H2146 C2154 0.930 . S
H2147 C2155 0.930 . S
H2148 C2158 0.930 . S
H2149 C2159 0.930 . S
C2150 H2144 0.930 . S
C2150 C2151 1.355 . S
C2150 C2152 1.415 . S
C2151 C2150 1.355 . S
C2151 C2153 1.419 . S
C2152 C2150 1.415 . S
C2152 C2157 1.425 . S
C2152 C2159 1.409 . S
C2153 H2145 0.930 . S
C2153 C2151 1.419 . S
C2153 C2154 1.362 . S
C2154 H2146 0.930 . S
C2154 C2153 1.362 . S
C2154 C2157 1.409 . S
C2155 H2147 0.930 . S
C2155 C2156 1.355 . S
C2155 C2157 1.415 . S
C2156 C2155 1.355 . S
C2156 C2158 1.419 . S
C2157 C2152 1.425 . S
C2157 C2154 1.409 . S
C2157 C2155 1.415 . S
C2158 H2148 0.930 . S
C2158 C2156 1.419 . S
C2158 C2159 1.362 . S
C2159 H2149 0.930 . S
C2159 C2152 1.409 . S
C2159 C2158 1.362 . S
H2160 C2166 0.930 . S
H2161 C2169 0.930 . S
H2162 C2170 0.930 . S
H2163 C2171 0.930 . S
H2164 C2174 0.930 . S
H2165 C2175 0.930 . S
C2166 H2160 0.930 . S
C2166 C2167 1.355 . S
C2166 C2168 1.415 . S
C2167 C2166 1.355 . S
C2167 C2169 1.419 . S
C2168 C2166 1.415 . S
C2168 C2173 1.425 . S
C2168 C2175 1.409 . S
C2169 H2161 0.930 . S
C2169 C2167 1.419 . S
C2169 C2170 1.362 . S
C2170 H2162 0.930 . S
C2170 C2169 1.362 . S
C2170 C2173 1.409 . S
C2171 H2163 0.930 . S
C2171 C2172 1.355 . S
C2171 C2173 1.415 . S
C2172 C2171 1.355 . S
C2172 C2174 1.419 . S
C2173 C2168 1.425 . S
C2173 C2170 1.409 . S
C2173 C2171 1.415 . S
C2174 H2164 0.930 . S
C2174 C2172 1.419 . S
C2174 C2175 1.362 . S
C2175 H2165 0.930 . S
C2175 C2168 1.409 . S
C2175 C2174 1.362 . S
H2176 C2182 0.930 . S
H2177 C2185 0.930 . S
H2178 C2186 0.930 . S
H2179 C2187 0.930 . S
H2180 C2190 0.930 . S
H2181 C2191 0.930 . S
C2182 H2176 0.930 . S
C2182 C2183 1.355 . S
C2182 C2184 1.415 . S
C2183 C2182 1.355 . S
C2183 C2185 1.419 . S
C2184 C2182 1.415 . S
C2184 C2189 1.425 . S
C2184 C2191 1.409 . S
C2185 H2177 0.930 . S
C2185 C2183 1.419 . S
C2185 C2186 1.362 . S
C2186 H2178 0.930 . S
C2186 C2185 1.362 . S
C2186 C2189 1.409 . S
C2187 H2179 0.930 . S
C2187 C2188 1.355 . S
C2187 C2189 1.415 . S
C2188 C2187 1.355 . S
C2188 C2190 1.419 . S
C2189 C2184 1.425 . S
C2189 C2186 1.409 . S
C2189 C2187 1.415 . S
C2190 H2180 0.930 . S
C2190 C2188 1.419 . S
C2190 C2191 1.362 . S
C2191 H2181 0.930 . S
C2191 C2184 1.409 . S
C2191 C2190 1.362 . S
H2192 C2198 0.930 . S
H2193 C2201 0.930 . S
H2194 C2202 0.930 . S
H2195 C2203 0.930 . S
H2196 C2206 0.930 . S
H2197 C2207 0.930 . S
C2198 H2192 0.930 . S
C2198 C2199 1.355 . S
C2198 C2200 1.415 . S
C2199 C2198 1.355 . S
C2199 C2201 1.419 . S
C2200 C2198 1.415 . S
C2200 C2205 1.425 . S
C2200 C2207 1.409 . S
C2201 H2193 0.930 . S
C2201 C2199 1.419 . S
C2201 C2202 1.362 . S
C2202 H2194 0.930 . S
C2202 C2201 1.362 . S
C2202 C2205 1.409 . S
C2203 H2195 0.930 . S
C2203 C2204 1.355 . S
C2203 C2205 1.415 . S
C2204 C2203 1.355 . S
C2204 C2206 1.419 . S
C2205 C2200 1.425 . S
C2205 C2202 1.409 . S
C2205 C2203 1.415 . S
C2206 H2196 0.930 . S
C2206 C2204 1.419 . S
C2206 C2207 1.362 . S
C2207 H2197 0.930 . S
C2207 C2200 1.409 . S
C2207 C2206 1.362 . S
C679 C283 1.559 . S
C684 C3 1.561 . S
C695 C21 1.456 . S
C700 C245 1.435 . S
C711 C31 1.563 . S
C716 C259 1.503 . S
C727 C273 1.484 . S
C732 C49 1.494 . S
C743 C329 1.396 . S
C748 C63 1.394 . S
C759 C73 1.563 . S
C764 C301 1.493 . S
C775 C91 1.458 . S
C780 C311 1.521 . S
C791 C101 1.546 . S
C796 C227 1.561 . S
C807 C115 1.517 . S
C812 C213 1.528 . S
C823 C133 1.401 . S
C828 C175 1.397 . S
C839 C143 1.527 . S
C844 C185 1.542 . S
C855 C203 1.421 . S
C860 C161 1.408 . S
C871 C343 1.451 . S
C876 C623 1.395 . S
C887 C577 1.475 . S
C892 C353 1.505 . S
C903 C371 1.416 . S
C908 C591 1.534 . S
C919 C609 1.372 . S
C924 C381 1.501 . S
C935 C395 1.491 . S
C940 C661 1.511 . S
C951 C633 1.520 . S
C956 C413 1.462 . S
C967 C423 1.463 . S
C972 C651 1.429 . S
C983 C567 1.484 . S
C988 C441 1.406 . S
C999 C455 1.462 . S
C1004 C553 1.425 . S
C1015 C507 1.485 . S
C1020 C465 1.514 . S
C1031 C525 1.397 . S
C1036 C483 1.399 . S
C1047 C535 1.494 . S
C1052 C493 1.492 . S
C1063 C367 1.230 . S
C1068 C7 1.110 . S
C1079 C17 1.220 . S
C1084 C385 1.126 . S
C1095 C35 1.213 . S
C1100 C339 1.207 . S
C1111 C45 1.232 . S
C1116 C357 1.230 . S
C1127 C59 1.217 . S
C1132 C427 1.206 . S
C1143 C437 1.215 . S
C1148 C77 1.216 . S
C1159 C399 1.119 . S
C1164 C87 1.221 . S
C1175 C409 1.233 . S
C1180 C105 1.114 . S
C1191 C511 1.165 . S
C1196 C119 1.216 . S
C1207 C129 1.197 . S
C1212 C521 1.224 . S
C1223 C539 1.171 . S
C1228 C147 1.211 . S
C1239 C157 1.215 . S
C1244 C549 1.224 . S
C1255 C171 1.226 . S
C1260 C451 1.202 . S
C1271 C189 1.204 . S
C1276 C469 1.124 . S
C1287 C479 1.214 . S
C1292 C199 1.213 . S
C1303 C497 1.129 . S
C1308 C217 1.210 . S
C1319 C231 1.213 . S
C1324 C605 1.206 . S
C1335 C241 1.215 . S
C1340 C637 1.211 . S
C1351 C647 1.203 . S
C1356 C255 1.216 . S
C1367 C563 1.218 . S
C1372 C269 1.200 . S
C1383 C287 1.160 . S
C1388 C665 1.131 . S
C1399 C581 1.134 . S
C1404 C297 1.232 . S
C1415 C315 1.143 . S
C1420 C595 1.228 . S
C1431 C325 1.222 . S
C1436 C619 1.199 . S
C1447 C400 1.692 . S
C1452 C9 1.627 . S
C1463 C415 1.596 . S
C1468 C22 1.715 . S
C1479 C428 1.702 . S
C1484 C37 1.619 . S
C1495 C50 1.695 . S
C1500 C443 1.626 . S
C1511 C345 1.621 . S
C1516 C64 1.702 . S
C1527 C358 1.673 . S
C1532 C79 1.673 . S
C1543 C92 1.676 . S
C1548 C373 1.662 . S
C1559 C386 1.710 . S
C1564 C107 1.600 . S
C1575 C121 1.640 . S
C1580 C540 1.690 . S
C1591 C134 1.709 . S
C1596 C555 1.607 . S
C1607 C512 1.669 . S
C1612 C149 1.672 . S
C1623 C162 1.702 . S
C1628 C527 1.618 . S
C1639 C485 1.593 . S
C1644 C176 1.716 . S
C1655 C191 1.599 . S
C1660 C498 1.713 . S
C1671 C204 1.710 . S
C1676 C457 1.598 . S
C1687 C219 1.602 . S
C1692 C470 1.711 . S
C1703 C638 1.669 . S
C1708 C233 1.667 . S
C1719 C246 1.684 . S
C1724 C611 1.667 . S
C1735 C260 1.672 . S
C1740 C625 1.655 . S
C1751 C274 1.705 . S
C1756 C582 1.660 . S
C1767 C596 1.677 . S
C1772 C289 1.649 . S
C1783 C569 1.599 . S
C1788 C302 1.724 . S
C1799 C666 1.728 . S
C1804 C317 1.621 . S
C1815 C330 1.681 . S
C1820 C653 1.668 . S
C1831 C218 1.509 . S
C1836 C8 1.507 . S
C1847 C23 1.382 . S
C1852 C177 1.378 . S
C1863 C190 1.580 . S
C1868 C36 1.584 . S
C1879 C205 1.453 . S
C1884 C51 1.450 . S
C1895 C135 1.403 . S
C1900 C65 1.411 . S
C1911 C78 1.583 . S
C1916 C148 1.579 . S
C1927 C93 1.422 . S
C1932 C163 1.428 . S
C1943 C120 1.558 . S
C1948 C106 1.550 . S
C1959 C232 1.534 . S
C1964 C288 1.544 . S
C1975 C331 1.453 . S
C1980 C247 1.451 . S
C1991 C303 1.392 . S
C1996 C261 1.385 . S
C2007 C275 1.415 . S
C2012 C316 1.532 . S
C2023 C554 1.480 . S
C2028 C344 1.479 . S
C2039 C513 1.345 . S
C2044 C359 1.345 . S
C2055 C372 1.514 . S
C2060 C526 1.505 . S
C2071 C541 1.371 . S
C2076 C387 1.367 . S
C2087 C471 1.447 . S
C2092 C401 1.446 . S
C2103 C414 1.490 . S
C2108 C484 1.502 . S
C2119 C429 1.460 . S
C2124 C499 1.464 . S
C2135 C442 1.528 . S
C2140 C456 1.540 . S
C2151 C568 1.538 . S
C2156 C624 1.530 . S
C2167 C667 1.419 . S
C2172 C583 1.428 . S
C2183 C639 1.463 . S
C2188 C597 1.460 . S
C2199 C652 1.569 . S
C2204 C610 1.563 . S
