# Generated by pormake.
# Topology qtz-e, (6)-cn, num edge types: 1
# Building blocks:
#     Node 0, Type 0, BuildingBlock: GEDQOX_clean_sbu_0, # of connection points: 6
#     Node 1, Type 0, BuildingBlock: GEDQOX_clean_sbu_0, # of connection points: 6
#     Node 2, Type 0, BuildingBlock: GEDQOX_clean_sbu_0, # of connection points: 6
#     Node 3, Type 0, BuildingBlock: GEDQOX_clean_sbu_0, # of connection points: 6
#     Node 4, Type 0, BuildingBlock: GEDQOX_clean_sbu_0, # of connection points: 6
#     Node 5, Type 0, BuildingBlock: GEDQOX_clean_sbu_0, # of connection points: 6
#     Edge 6, Type (0, 0), BuildingBlock: KIFKEQ_clean_linker_1, # of connection points: 2
#     Edge 7, Type (0, 0), BuildingBlock: KIFKEQ_clean_linker_1, # of connection points: 2
#     Edge 8, Type (0, 0), BuildingBlock: KIFKEQ_clean_linker_1, # of connection points: 2
#     Edge 9, Type (0, 0), BuildingBlock: KIFKEQ_clean_linker_1, # of connection points: 2
#     Edge 10, Type (0, 0), BuildingBlock: KIFKEQ_clean_linker_1, # of connection points: 2
#     Edge 11, Type (0, 0), BuildingBlock: KIFKEQ_clean_linker_1, # of connection points: 2
#     Edge 12, Type (0, 0), BuildingBlock: KIFKEQ_clean_linker_1, # of connection points: 2
#     Edge 13, Type (0, 0), BuildingBlock: KIFKEQ_clean_linker_1, # of connection points: 2
#     Edge 14, Type (0, 0), BuildingBlock: KIFKEQ_clean_linker_1, # of connection points: 2
#     Edge 15, Type (0, 0), BuildingBlock: KIFKEQ_clean_linker_1, # of connection points: 2
#     Edge 16, Type (0, 0), BuildingBlock: KIFKEQ_clean_linker_1, # of connection points: 2
#     Edge 17, Type (0, 0), BuildingBlock: KIFKEQ_clean_linker_1, # of connection points: 2
#     Edge 18, Type (0, 0), BuildingBlock: KIFKEQ_clean_linker_1, # of connection points: 2
#     Edge 19, Type (0, 0), BuildingBlock: KIFKEQ_clean_linker_1, # of connection points: 2
#     Edge 20, Type (0, 0), BuildingBlock: KIFKEQ_clean_linker_1, # of connection points: 2
#     Edge 21, Type (0, 0), BuildingBlock: KIFKEQ_clean_linker_1, # of connection points: 2
#     Edge 22, Type (0, 0), BuildingBlock: KIFKEQ_clean_linker_1, # of connection points: 2
#     Edge 23, Type (0, 0), BuildingBlock: KIFKEQ_clean_linker_1, # of connection points: 2
# Relax obj value: 0.086
# Max RMSD: 0.171
# Mean RMSD: 0.171
data_MOF--net-qtz-e--node1-GEDQOX_clean_sbu_0--edge1-KIFKEQ_clean_linker_1
_symmetry_space_group_name_H-M    P1
_symmetry_Int_Tables_number       1
_symmetry_cell_setting            triclinic
loop_
_symmetry_equiv_pos_as_xyz
'x, y, z'
_cell_length_a     26.970493
_cell_length_b     27.013636
_cell_length_c     52.269829
_cell_angle_alpha  89.91379
_cell_angle_beta   89.941407
_cell_angle_gamma 119.95971
loop_
_atom_site_label
_atom_site_type_symbol
_atom_site_fract_x
_atom_site_fract_y
_atom_site_fract_z
_atom_type_partial_charge
Nd0 Nd 0.15269 0.33942 0.06725 0.0
Nd1 Nd 0.24104 0.45846 0.04928 0.0
C2 C 0.06797 0.2504 0.09079 0.0
C3 C 0.0375 0.24304 0.11529 0.0
C4 C 0.03327 0.28834 0.12615 0.0
C5 C 0.00911 0.28268 0.15048 0.0
C6 C -0.01137 0.23158 0.16455 0.0
C7 C -0.00778 0.18603 0.15337 0.0
C8 C 0.01648 0.19179 0.12904 0.0
C9 C 0.2646 0.36487 0.06874 0.0
C10 C 0.19833 0.44744 0.10793 0.0
C11 C 0.3295 0.5557 0.03448 0.0
C12 C 0.34821 0.576 1.00826 0.0
C13 C 0.32015 0.53891 0.9878 0.0
C14 C 0.33807 0.55598 0.96273 0.0
C15 C 0.38401 0.61087 0.95757 0.0
C16 C 0.41144 0.64857 0.97805 0.0
C17 C 0.39381 0.63105 1.00332 0.0
C18 C 0.1308 0.42585 0.03486 0.0
C19 C 0.19673 0.35264 1.00922 0.0
O20 O 0.05969 0.27907 0.07263 0.0
O21 O 0.12163 0.26422 0.0929 0.0
O22 O 0.22434 0.31725 0.05925 0.0
O23 O 0.24537 0.39627 0.07576 0.0
O24 O 0.16392 0.39251 0.10341 0.0
O25 O 0.23332 0.48256 0.09032 0.0
O26 O 0.33356 0.51096 0.04097 0.0
O27 O 0.28059 0.55119 0.04123 0.0
O28 O 0.17494 0.45158 1.01994 0.0
O29 O 0.14586 0.41683 0.05639 0.0
O30 O 0.24142 0.3999 1.01767 0.0
O31 O 0.15045 0.32404 1.02365 0.0
H32 H 0.04973 0.32858 0.11606 0.0
H33 H 0.00791 0.31897 0.15855 0.0
H34 H 0.97628 0.14582 0.16343 0.0
H35 H 0.01964 0.15642 0.12112 0.0
H36 H 0.28435 0.49652 0.99125 0.0
H37 H 0.31557 0.52638 0.94732 0.0
H38 H 0.44705 0.6911 0.97455 0.0
H39 H 0.41583 0.6602 1.01891 0.0
Nd40 Nd 0.7896 0.15661 0.40007 0.0
Nd41 Nd 0.75385 0.2403 0.38051 0.0
C42 C 0.79924 0.07715 0.4257 0.0
C43 C 0.77793 0.05021 0.45111 0.0
C44 C 0.76015 -0.00769 0.45508 0.0
C45 C 0.74003 0.96696 0.47917 0.0
C46 C 0.73703 -0.00101 0.49978 0.0
C47 C 0.75491 0.05702 0.49564 0.0
C48 C 0.77515 0.08227 0.47167 0.0
C49 C 0.86748 0.27139 0.40536 0.0
C50 C 0.7111 0.18857 0.43755 0.0
C51 C 0.73866 0.32492 0.36563 0.0
C52 C 0.73306 0.34472 0.34014 0.0
C53 C 0.75843 0.40337 0.3351 0.0
C54 C 0.75883 0.42277 0.31022 0.0
C55 C 0.73377 0.38371 0.28999 0.0
C56 C 0.70736 0.32489 0.29525 0.0
C57 C 0.70727 0.30559 0.32006 0.0
C58 C 0.68339 0.12981 0.36385 0.0
C59 C 0.82653 0.2032 0.34316 0.0
O60 O 0.76098 0.06484 0.40774 0.0
O61 O 0.838 0.13134 0.42596 0.0
O62 O 0.88204 0.23531 0.3968 0.0
O63 O 0.81514 0.24649 0.40999 0.0
O64 O 0.73331 0.15567 0.43301 0.0
O65 O 0.71575 0.22771 0.42101 0.0
O66 O 0.78923 0.33154 0.37061 0.0
O67 O 0.69644 0.27525 0.37312 0.0
O68 O 0.7037 0.1748 0.34944 0.0
O69 O 0.70463 0.1447 0.38591 0.0
O70 O 0.82101 0.24664 0.35128 0.0
O71 O 0.80815 0.15645 0.35722 0.0
H72 H 0.76176 0.96665 0.43955 0.0
H73 H 0.72607 0.92204 0.48153 0.0
H74 H 0.75403 0.08334 0.51105 0.0
H75 H 0.78873 0.1271 0.46927 0.0
H76 H 0.77909 0.43421 0.35029 0.0
H77 H 0.77908 0.46833 0.30678 0.0
H78 H 0.68843 0.2938 0.28004 0.0
H79 H 0.68831 0.2601 0.3234 0.0
Nd80 Nd 0.60308 0.79227 0.73375 0.0
Nd81 Nd 0.48309 0.76209 0.71703 0.0
C82 C 0.69237 0.79594 0.75685 0.0
C83 C 0.70245 0.78144 0.7829 0.0
C84 C 0.74623 0.7688 0.78725 0.0
C85 C 0.75498 0.75344 0.81177 0.0
C86 C 0.71998 0.75027 0.83248 0.0
C87 C 0.67624 0.7633 0.82796 0.0
C88 C 0.66757 0.77865 0.80346 0.0
C89 C 0.57061 0.8727 0.74181 0.0
C90 C 0.49411 0.72507 0.77356 0.0
C91 C 0.39773 0.76965 0.69695 0.0
C92 C 0.38137 0.76906 0.6701 0.0
C93 C 0.36324 0.80677 0.66175 0.0
C94 C 0.35277 0.81006 0.63578 0.0
C95 C 0.36011 0.77548 0.61783 0.0
C96 C 0.37795 0.73752 0.62631 0.0
C97 C 0.38888 0.73462 0.65218 0.0
C98 C 0.50355 0.67457 0.71035 0.0
C99 C 0.59345 0.82521 0.67601 0.0
O100 O 0.65648 0.75302 0.74273 0.0
O101 O 0.68485 0.84002 0.75494 0.0
O102 O 0.61972 0.88593 0.73167 0.0
O103 O 0.54239 0.82048 0.74627 0.0
O104 O 0.54325 0.73123 0.7653 0.0
O105 O 0.46529 0.74308 0.7597 0.0
O106 O 0.44603 0.81453 0.70362 0.0
O107 O 0.39199 0.72171 0.7059 0.0
O108 O 0.45355 0.66782 0.71564 0.0
O109 O 0.54049 0.72636 0.70601 0.0
O110 O 0.54107 0.81291 0.68267 0.0
O111 O 0.62609 0.81543 0.69165 0.0
H112 H 0.77337 0.77031 0.77162 0.0
H113 H 0.78846 0.74288 0.81434 0.0
H114 H 0.64882 0.76206 0.84339 0.0
H115 H 0.63345 0.78819 0.80057 0.0
H116 H 0.35812 0.83431 0.67525 0.0
H117 H 0.33875 0.83947 0.62974 0.0
H118 H 0.38473 0.71101 0.61285 0.0
H119 H 0.40423 0.70618 0.65808 0.0
Nd120 Nd 0.80237 0.62562 0.06607 0.0
Nd121 Nd 0.72086 0.50459 0.04769 0.0
C122 C 0.8831 0.71558 0.09044 0.0
C123 C 0.90866 0.72457 0.11642 0.0
C124 C 0.96751 0.74496 0.11931 0.0
C125 C -0.00829 0.7523 0.14374 0.0
C126 C 0.95763 0.73976 0.16588 0.0
C127 C 0.89878 0.71967 0.16293 0.0
C128 C 0.87459 0.71206 0.13856 0.0
C129 C 0.68945 0.59613 0.06308 0.0
C130 C 0.75629 0.52033 0.1079 0.0
C131 C 0.63758 0.4027 0.0343 0.0
C132 C 0.61611 0.3748 1.00928 0.0
C133 C 0.5621 0.36364 1.00081 0.0
C134 C 0.54402 0.34434 0.97594 0.0
C135 C 0.57939 0.33529 0.95912 0.0
C136 C 0.63234 0.34401 0.96794 0.0
C137 C 0.65068 0.36381 0.99276 0.0
C138 C 0.8331 0.54355 0.03507 0.0
C139 C 0.76483 0.6105 1.007 0.0
O140 O 0.89459 0.68549 0.07432 0.0
O141 O 0.82976 0.70346 0.08923 0.0
O142 O 0.73052 0.64593 0.05589 0.0
O143 O 0.70857 0.56549 0.07156 0.0
O144 O 0.78653 0.57576 0.10354 0.0
O145 O 0.7275 0.48352 0.08959 0.0
O146 O 0.62958 0.44576 0.03906 0.0
O147 O 0.68815 0.4122 0.04151 0.0
O148 O 0.79047 0.51593 1.01959 0.0
O149 O 0.8155 0.5511 0.05633 0.0
O150 O 0.72186 0.56035 1.01421 0.0
O151 O 0.80828 0.64142 1.02253 0.0
H152 H -0.00519 0.75501 0.10264 0.0
H153 H 0.03726 0.76832 0.14529 0.0
H154 H 0.87107 0.70871 0.1795 0.0
H155 H 0.82897 0.69579 0.13713 0.0
H156 H 0.5346 0.37165 1.01318 0.0
H157 H 0.50266 0.33724 0.96973 0.0
H158 H 0.66061 0.33772 0.95533 0.0
H159 H 0.69266 0.3722 0.99865 0.0
Nd160 Nd 0.16176 0.81624 0.40052 0.0
Nd161 Nd 0.20213 0.73639 0.37867 0.0
C162 C 0.1509 0.89428 0.42667 0.0
C163 C 0.17291 0.92258 0.45173 0.0
C164 C 0.19036 0.98059 0.45498 0.0
C165 C 0.21122 0.00738 0.47868 0.0
C166 C 0.21534 0.97673 0.49965 0.0
C167 C 0.19768 0.91855 0.49625 0.0
C168 C 0.17669 0.89186 0.47265 0.0
C169 C 0.08742 0.70055 0.40454 0.0
C170 C 0.24317 0.7845 0.43631 0.0
C171 C 0.21968 0.65371 0.3632 0.0
C172 C 0.22444 0.63327 0.33777 0.0
C173 C 0.19837 0.57442 0.33321 0.0
C174 C 0.19687 0.55416 0.30847 0.0
C175 C 0.22162 0.59253 0.28792 0.0
C176 C 0.24883 0.65155 0.29268 0.0
C177 C 0.24992 0.67175 0.31736 0.0
C178 C 0.26669 0.84818 0.3629 0.0
C179 C 0.12483 0.77099 0.34317 0.0
O180 O 0.18837 0.90745 0.4082 0.0
O181 O 0.1136 0.83963 0.42749 0.0
O182 O 0.0705 0.736 0.39765 0.0
O183 O 0.14001 0.72662 0.40864 0.0
O184 O 0.21812 0.81539 0.43314 0.0
O185 O 0.24128 0.74861 0.41869 0.0
O186 O 0.16878 0.64563 0.36879 0.0
O187 O 0.26135 0.70419 0.37005 0.0
O188 O 0.25168 0.80441 0.34814 0.0
O189 O 0.24664 0.83143 0.38504 0.0
O190 O 0.13339 0.72879 0.35033 0.0
O191 O 0.14094 0.81646 0.35785 0.0
H192 H 0.18794 0.00523 0.43915 0.0
H193 H 0.22496 0.05235 0.48046 0.0
H194 H 0.19939 0.89325 0.51195 0.0
H195 H 0.16338 0.84699 0.4708 0.0
H196 H 0.17794 0.54411 0.34868 0.0
H197 H 0.17601 0.50847 0.30536 0.0
H198 H 0.26761 0.68207 0.27717 0.0
H199 H 0.26936 0.71738 0.32035 0.0
Nd200 Nd 0.35774 0.18741 0.7319 0.0
Nd201 Nd 0.46968 0.1921 0.71814 0.0
C202 C 0.2783 0.20522 0.75275 0.0
C203 C 0.26529 0.21613 0.77898 0.0
C204 C 0.23901 0.24915 0.78264 0.0
C205 C 0.22774 0.26106 0.80738 0.0
C206 C 0.24238 0.24003 0.82905 0.0
C207 C 0.26851 0.20665 0.82528 0.0
C208 C 0.28006 0.19503 0.80053 0.0
C209 C 0.36225 0.08931 0.73959 0.0
C210 C 0.46142 0.22895 0.77507 0.0
C211 C 0.54619 0.16784 0.69979 0.0
C212 C 0.56065 0.16026 0.6734 0.0
C213 C 0.51768 0.12467 0.65611 0.0
C214 C 0.53037 0.12469 0.6302 0.0
C215 C 0.58636 0.16002 0.62105 0.0
C216 C 0.6298 0.19343 0.63865 0.0
C217 C 0.61699 0.19362 0.66455 0.0
C218 C 0.47452 0.29438 0.71258 0.0
C219 C 0.36605 0.15312 0.67432 0.0
O220 O 0.32516 0.24588 0.7423 0.0
O221 O 0.27091 0.15433 0.74827 0.0
O222 O 0.319 0.08879 0.72845 0.0
O223 O 0.39961 0.13901 0.74523 0.0
O224 O 0.41709 0.23237 0.76646 0.0
O225 O 0.48574 0.20635 0.76103 0.0
O226 O 0.49623 0.12886 0.70856 0.0
O227 O 0.55835 0.21979 0.70562 0.0
O228 O 0.51702 0.28863 0.72036 0.0
O229 O 0.43162 0.24698 0.70634 0.0
O230 O 0.41235 0.15249 0.68235 0.0
O231 O 0.33896 0.17165 0.6891 0.0
H232 H 0.2274 0.266 0.76633 0.0
H233 H 0.20718 0.2865 0.80953 0.0
H234 H 0.28119 0.19052 0.84149 0.0
H235 H 0.30102 0.16999 0.79823 0.0
H236 H 0.47377 0.09837 0.66239 0.0
H237 H 0.49577 0.09871 0.61721 0.0
H238 H 0.67362 0.22015 0.63235 0.0
H239 H 0.65082 0.22127 0.67756 0.0
H240 H 0.12752 0.50739 0.26428 0.0
H241 H 0.30607 0.62998 0.25179 0.0
H242 H 0.11977 0.47356 0.22046 0.0
H243 H 0.29887 0.59547 0.20811 0.0
H244 H 0.25445 0.55867 0.12405 0.0
H245 H 0.25826 0.59414 0.16724 0.0
H246 H 0.14927 0.4211 0.19394 0.0
H247 H 0.1441 0.38586 0.15074 0.0
C248 C 0.16528 0.5266 0.25222 0.0
C249 C 0.21744 0.57117 0.26146 0.0
C250 C 0.16088 0.50725 0.22711 0.0
C251 C 0.20869 0.53177 0.21072 0.0
C252 C 0.26093 0.57629 0.22004 0.0
C253 C 0.26518 0.59592 0.2451 0.0
C254 C 0.23108 0.52823 0.13911 0.0
C255 C 0.19907 0.46943 0.13392 0.0
C256 C 0.23356 0.54854 0.16392 0.0
C257 C 0.20436 0.51048 0.18413 0.0
C258 C 0.17171 0.45173 0.17882 0.0
C259 C 0.16896 0.43148 0.15401 0.0
H260 H 0.65721 0.2551 0.59288 0.0
H261 H 0.54347 0.07296 0.58599 0.0
H262 H 0.68031 0.2606 0.54759 0.0
H263 H 0.56411 0.07901 0.54039 0.0
H264 H 0.67642 0.10012 0.47089 0.0
H265 H 0.64226 0.09338 0.51425 0.0
H266 H 0.645 0.2537 0.50457 0.0
H267 H 0.68212 0.26174 0.46107 0.0
C268 C 0.63706 0.2162 0.58171 0.0
C269 C 0.59902 0.16345 0.59319 0.0
C270 C 0.64954 0.21955 0.5556 0.0
C271 C 0.6241 0.17028 0.5403 0.0
C272 C 0.58503 0.11773 0.55166 0.0
C273 C 0.57277 0.11433 0.57779 0.0
C274 C 0.66982 0.13407 0.47791 0.0
C275 C 0.68299 0.18202 0.46264 0.0
C276 C 0.64944 0.12979 0.50277 0.0
C277 C 0.64105 0.17309 0.51301 0.0
C278 C 0.65186 0.22 0.49738 0.0
C279 C 0.6726 0.22441 0.4724 0.0
H280 H 0.40369 0.55072 0.92112 0.0
H281 H 0.4056 0.70964 0.93361 0.0
H282 H 0.42895 0.57637 0.87623 0.0
H283 H 0.43133 0.73556 0.88867 0.0
H284 H 0.40867 0.72675 0.80108 0.0
H285 H 0.38321 0.69928 0.84578 0.0
H286 H 0.5125 0.6499 0.85052 0.0
H287 H 0.53781 0.67685 0.80585 0.0
C288 C 0.40968 0.59121 0.91423 0.0
C289 C 0.40262 0.6282 0.93078 0.0
C290 C 0.42443 0.60599 0.88862 0.0
C291 C 0.43183 0.6578 0.87897 0.0
C292 C 0.42529 0.69507 0.89557 0.0
C293 C 0.41117 0.68056 0.92129 0.0
C294 C 0.43128 0.70949 0.81157 0.0
C295 C 0.47524 0.70397 0.7999 0.0
C296 C 0.41704 0.69428 0.83721 0.0
C297 C 0.44612 0.67281 0.85163 0.0
C298 C 0.48914 0.66601 0.83982 0.0
C299 C 0.50368 0.6816 0.81424 0.0
H300 H 0.82597 0.47048 0.26565 0.0
H301 H 0.64893 0.34248 0.25399 0.0
H302 H 0.83223 0.50235 0.22153 0.0
H303 H 0.65483 0.37477 0.2099 0.0
H304 H 0.70208 0.40954 0.12521 0.0
H305 H 0.69744 0.37632 0.16904 0.0
H306 H 0.79886 0.55121 0.1944 0.0
H307 H 0.80482 0.58426 0.1507 0.0
C308 C 0.78817 0.44964 0.25373 0.0
C309 C 0.7369 0.40411 0.26333 0.0
C310 C 0.79174 0.46785 0.22843 0.0
C311 C 0.74402 0.44115 0.21213 0.0
C312 C 0.69267 0.39569 0.22178 0.0
C313 C 0.6892 0.3773 0.24707 0.0
C314 C 0.72352 0.44087 0.14013 0.0
C315 C 0.75378 0.49956 0.13439 0.0
C316 C 0.72056 0.42185 0.16529 0.0
C317 C 0.74768 0.46108 0.18528 0.0
C318 C 0.77814 0.51973 0.17947 0.0
C319 C 0.78124 0.53871 0.15435 0.0
H320 H 0.29993 0.68732 0.5849 0.0
H321 H 0.39663 0.8715 0.58867 0.0
H322 H 0.27977 0.69268 0.53989 0.0
H323 H 0.37776 0.87714 0.54341 0.0
H324 H 0.26597 0.86187 0.47431 0.0
H325 H 0.2991 0.86105 0.51726 0.0
H326 H 0.31933 0.71668 0.49762 0.0
H327 H 0.28321 0.71581 0.45472 0.0
C328 C 0.3175 0.72895 0.57596 0.0
C329 C 0.34944 0.779 0.59029 0.0
C330 C 0.30628 0.73208 0.55012 0.0
C331 C 0.32714 0.78535 0.53799 0.0
C332 C 0.36024 0.83542 0.55225 0.0
C333 C 0.37104 0.83227 0.57816 0.0
C334 C 0.27737 0.82985 0.47909 0.0
C335 C 0.27077 0.78815 0.46122 0.0
C336 C 0.29716 0.82985 0.50371 0.0
C337 C 0.31149 0.7885 0.51102 0.0
C338 C 0.30759 0.74846 0.49275 0.0
C339 C 0.28736 0.74824 0.4681 0.0
H340 H 0.58541 0.25348 0.93069 0.0
H341 H 0.53591 0.38257 0.92648 0.0
H342 H 0.558 0.22868 0.886 0.0
H343 H 0.50976 0.35894 0.88176 0.0
H344 H 0.41044 0.26068 0.81157 0.0
H345 H 0.43884 0.28533 0.85586 0.0
H346 H 0.58534 0.26377 0.84311 0.0
H347 H 0.55564 0.23699 0.79883 0.0
C348 C 0.56899 0.27674 0.92013 0.0
C349 C 0.56234 0.3196 0.93209 0.0
C350 C 0.55354 0.26278 0.89451 0.0
C351 C 0.53157 0.29175 0.88026 0.0
C352 C 0.52545 0.33497 0.89226 0.0
C353 C 0.54046 0.34857 0.91789 0.0
C354 C 0.44883 0.26133 0.81813 0.0
C355 C 0.48076 0.24681 0.80164 0.0
C356 C 0.46531 0.2758 0.84356 0.0
C357 C 0.51445 0.27664 0.85309 0.0
C358 C 0.54678 0.26272 0.83651 0.0
C359 C 0.53 0.24778 0.81107 0.0
H360 H 0.32715 0.38431 1.02514 0.0
H361 H 0.3401 0.3999 0.10719 0.0
H362 H 0.42941 0.44962 1.02119 0.0
H363 H 0.44327 0.45942 0.10389 0.0
H364 H 0.61724 0.60594 0.09587 0.0
H365 H 0.51315 0.54897 0.09559 0.0
H366 H 0.52098 0.47261 1.02391 0.0
H367 H 0.62324 0.53498 1.023 0.0
C368 C 0.3525 0.4 0.04237 0.0
C369 C 0.32623 0.38735 0.06645 0.0
C370 C 0.41141 0.4376 0.04021 0.0
C371 C 0.4454 0.46154 0.06222 0.0
C372 C 0.4189 0.44444 0.08638 0.0
C373 C 0.35986 0.40889 0.08841 0.0
C374 C 0.59604 0.5785 0.07966 0.0
C375 C 0.62806 0.57429 0.05961 0.0
C376 C 0.53642 0.54453 0.07972 0.0
C377 C 0.50791 0.50391 0.06022 0.0
C378 C 0.5404 0.5029 0.03935 0.0
C379 C 0.59965 0.5385 0.03889 0.0
H380 H 0.12306 0.62795 0.41953 0.0
H381 H 0.97664 0.63159 0.38832 0.0
H382 H 0.07152 0.52424 0.41757 0.0
H383 H 0.92423 0.52661 0.38672 0.0
H384 H 0.97666 0.33925 0.3866 0.0
H385 H 0.02974 0.44429 0.38452 0.0
H386 H 0.88782 0.4486 0.42061 0.0
H387 H 0.83572 0.34501 0.423 0.0
C388 C 0.07973 0.60646 0.41217 0.0
C389 C 0.05375 0.63772 0.40398 0.0
C390 C 0.0505 0.54709 0.41089 0.0
C391 C -0.00578 0.51752 0.40179 0.0
C392 C 0.96775 0.5486 0.39383 0.0
C393 C -0.00254 0.60842 0.39481 0.0
C394 C 0.95726 0.36289 0.39418 0.0
C395 C 0.90223 0.33417 0.40489 0.0
C396 C -0.01268 0.42273 0.39292 0.0
C397 C 0.9624 0.45434 0.40213 0.0
C398 C 0.90756 0.42534 0.41293 0.0
C399 C 0.87804 0.36601 0.41448 0.0
H400 H 0.36348 0.02438 0.6998 0.0
H401 H 0.39722 0.05651 0.78048 0.0
H402 H 0.41575 0.97118 0.6996 0.0
H403 H 0.44832 0.00353 0.78049 0.0
H404 H 0.58555 0.95953 0.70924 0.0
H405 H 0.52493 0.00404 0.70755 0.0
H406 H 0.42992 0.90398 0.77312 0.0
H407 H 0.48995 0.86057 0.77489 0.0
C408 C 0.37981 0.01774 0.71763 0.0
C409 C 0.3755 0.04309 0.74031 0.0
C410 C 0.41066 -0.01142 0.71743 0.0
C411 C 0.43644 0.98387 0.73999 0.0
C412 C 0.4287 0.00629 0.76287 0.0
C413 C 0.39895 0.036 0.76296 0.0
C414 C 0.5525 0.94833 0.72354 0.0
C415 C 0.54281 0.90753 0.74244 0.0
C416 C 0.51721 0.97273 0.72229 0.0
C417 C 0.47252 0.95691 0.7401 0.0
C418 C 0.46406 0.91701 0.75922 0.0
C419 C 0.49868 0.89254 0.76032 0.0
H420 H 0.43753 0.58966 0.67792 0.0
H421 H 0.58159 0.64853 0.72882 0.0
H422 H 0.43442 0.49836 0.67322 0.0
H423 H 0.57715 0.55647 0.72548 0.0
H424 H 0.57409 0.39422 0.70838 0.0
H425 H 0.58749 0.48907 0.70175 0.0
H426 H 0.40376 0.41696 0.6989 0.0
H427 H 0.39087 0.32137 0.70393 0.0
C428 C 0.46922 0.58314 0.68772 0.0
C429 C 0.51016 0.62577 0.70354 0.0
C430 C 0.46703 0.53072 0.68532 0.0
C431 C 0.50485 0.51951 0.69929 0.0
C432 C 0.54778 0.56366 0.71413 0.0
C433 C 0.55061 0.61656 0.71607 0.0
C434 C 0.53657 0.39865 0.70605 0.0
C435 C 0.48134 0.35071 0.70694 0.0
C436 C 0.54427 0.4531 0.70239 0.0
C437 C 0.49682 0.46099 0.70008 0.0
C438 C 0.44143 0.41257 0.70025 0.0
C439 C 0.43382 0.3578 0.70339 0.0
H440 H 0.04689 0.40337 0.06973 0.0
H441 H 0.10651 0.47324 0.9942 0.0
H442 H -0.02181 0.43712 0.06852 0.0
H443 H 0.03887 0.50815 0.99322 0.0
H444 H 0.86835 0.51042 0.9931 0.0
H445 H 0.93843 0.47875 0.99169 0.0
H446 H -0.01713 0.52985 0.07049 0.0
H447 H 0.91151 0.56029 0.07205 0.0
C448 C 0.04473 0.42524 0.05274 0.0
C449 C 0.08226 0.43606 0.03214 0.0
C450 C 0.00601 0.44529 0.05219 0.0
C451 C 0.00402 0.47643 0.03101 0.0
C452 C 0.0394 0.4844 1.00982 0.0
C453 C 0.07806 0.46429 1.01037 0.0
C454 C 0.89384 0.51585 1.00998 0.0
C455 C 0.88408 0.53718 0.03278 0.0
C456 C 0.93398 0.49766 1.00918 0.0
C457 C 0.96533 0.50069 0.03114 0.0
C458 C 0.95823 0.52559 0.05345 0.0
C459 C 0.91799 0.54377 0.05426 0.0
H460 H 0.32506 0.93305 0.39726 0.0
H461 H 0.33496 0.87954 0.32048 0.0
H462 H 0.42618 0.0039 0.39565 0.0
H463 H 0.4363 0.95188 0.31854 0.0
H464 H 0.62694 0.02392 0.34158 0.0
H465 H 0.52259 0.96175 0.33843 0.0
H466 H 0.49894 0.09002 0.37706 0.0
H467 H 0.6022 0.15014 0.38094 0.0
C468 C 0.34851 0.93768 0.37973 0.0
C469 C 0.32243 0.90032 0.35914 0.0
C470 C 0.40656 0.9783 0.37878 0.0
C471 C 0.43954 0.98279 0.35711 0.0
C472 C 0.41231 0.94844 0.33573 0.0
C473 C 0.35416 0.90759 0.33671 0.0
C474 C 0.59898 0.03812 0.34945 0.0
C475 C 0.62177 0.09086 0.36183 0.0
C476 C 0.53952 0.00316 0.34742 0.0
C477 C 0.50249 0.021 0.35756 0.0
C478 C 0.52607 0.07457 0.36944 0.0
C479 C 0.58505 0.10896 0.37165 0.0
H480 H 0.26049 0.343 0.84686 0.0
H481 H 0.20052 0.16927 0.87107 0.0
H482 H 0.2455 0.36727 0.88999 0.0
H483 H 0.18637 0.19393 0.91453 0.0
H484 H 0.11894 0.25388 0.98405 0.0
H485 H 0.12693 0.22452 0.94047 0.0
H486 H 0.29116 0.37772 0.93184 0.0
H487 H 0.28354 0.40679 0.97478 0.0
C488 C 0.24367 0.30981 0.86134 0.0
C489 C 0.23181 0.25417 0.85543 0.0
C490 C 0.23553 0.32386 0.88616 0.0
C491 C 0.21494 0.28262 0.90581 0.0
C492 C 0.20193 0.22663 0.89984 0.0
C493 C 0.21061 0.21267 0.87499 0.0
C494 C 0.1567 0.28118 0.97282 0.0
C495 C 0.20035 0.33286 0.98301 0.0
C496 C 0.1614 0.26427 0.94789 0.0
C497 C 0.20951 0.29902 0.93254 0.0
C498 C 0.25308 0.35035 0.94288 0.0
C499 C 0.2487 0.36688 0.9677 0.0
H500 H 0.84026 0.12153 0.31789 0.0
H501 H 0.87161 0.29409 0.31015 0.0
H502 H 0.87883 0.12743 0.27497 0.0
H503 H 0.91109 0.30035 0.26765 0.0
H504 H 0.91903 0.27138 0.18217 0.0
H505 H 0.88113 0.26409 0.22519 0.0
H506 H 0.96591 0.17252 0.24986 0.0
H507 H 0.00375 0.17974 0.20677 0.0
C508 C 0.85578 0.16088 0.30716 0.0
C509 C 0.8526 0.20723 0.31755 0.0
C510 C 0.87816 0.16437 0.28254 0.0
C511 C 0.89789 0.21429 0.26767 0.0
C512 C 0.8954 0.26084 0.27827 0.0
C513 C 0.87307 0.25736 0.30282 0.0
C514 C 0.92998 0.25004 0.19678 0.0
C515 C 0.96458 0.22622 0.19088 0.0
C516 C 0.90824 0.24587 0.22153 0.0
C517 C 0.92051 0.21785 0.24116 0.0
C518 C 0.95482 0.1937 0.23522 0.0
C519 C 0.97655 0.19784 0.21044 0.0
H520 H 0.53607 0.84651 0.63834 0.0
H521 H 0.69938 0.86002 0.65479 0.0
H522 H 0.57025 0.88685 0.59605 0.0
H523 H 0.73403 0.90159 0.61246 0.0
H524 H 0.75728 0.9215 0.52513 0.0
H525 H 0.72258 0.87879 0.56724 0.0
H526 H 0.63531 0.97536 0.57534 0.0
H527 H 0.66807 0.01623 0.53294 0.0
C528 C 0.57944 0.8583 0.63303 0.0
C529 C 0.61496 0.84998 0.65013 0.0
C530 C 0.59919 0.88183 0.60872 0.0
C531 C 0.65507 0.89781 0.60074 0.0
C532 C 0.69054 0.88923 0.61779 0.0
C533 C 0.67076 0.86565 0.64216 0.0
C534 C 0.73014 0.93313 0.53576 0.0
C535 C 0.71553 0.97237 0.52551 0.0
C536 C 0.71081 0.90915 0.56009 0.0
C537 C 0.67611 0.92355 0.57483 0.0
C538 C 0.66139 0.96266 0.56452 0.0
C539 C 0.68078 -0.01331 0.54024 0.0
H540 H 0.63766 0.68228 0.86739 0.0
H541 H 0.82103 0.77736 0.85679 0.0
H542 H 0.6506 0.65201 0.90947 0.0
H543 H 0.83387 0.7447 0.89852 0.0
H544 H 0.83553 0.71697 0.98597 0.0
H545 H 0.82579 0.75282 0.94431 0.0
H546 H 0.67791 0.58861 0.92797 0.0
H547 H 0.68673 0.55351 0.96944 0.0
C548 C 0.68083 0.697 0.87403 0.0
C549 C 0.72825 0.73231 0.85851 0.0
C550 C 0.68826 0.67894 0.89812 0.0
C551 C 0.74333 0.69539 0.90744 0.0
C552 C 0.79084 0.7314 0.89211 0.0
C553 C 0.78341 0.74956 0.86799 0.0
C554 C 0.8011 0.68853 0.97342 0.0
C555 C 0.76183 0.63242 0.98121 0.0
C556 C 0.79558 0.70902 0.94947 0.0
C557 C 0.75068 0.67385 0.93275 0.0
C558 C 0.71224 0.61746 0.94045 0.0
C559 C 0.71764 0.59713 0.96429 0.0
H560 H 0.08609 0.6832 0.30889 0.0
H561 H 0.10297 0.84951 0.31966 0.0
H562 H 0.04597 0.67713 0.26665 0.0
H563 H 0.06327 0.84362 0.27696 0.0
H564 H 0.93592 0.78403 0.20897 0.0
H565 H 0.97482 0.79194 0.25193 0.0
H566 H 0.07661 0.72016 0.22465 0.0
H567 H 0.03662 0.71086 0.18194 0.0
C568 C 0.08127 0.71859 0.3023 0.0
C569 C 0.09798 0.76696 0.31779 0.0
C570 C 0.05855 0.71522 0.2779 0.0
C571 C 0.05177 0.76006 0.26821 0.0
C572 C 0.06751 0.80808 0.28385 0.0
C573 C 0.09045 0.81155 0.30833 0.0
C574 C 0.96639 0.76966 0.21217 0.0
C575 C -0.01702 0.74664 0.19195 0.0
C576 C -0.01086 0.77474 0.23677 0.0
C577 C 0.02877 0.75654 0.24185 0.0
C578 C 0.04569 0.73399 0.22156 0.0
C579 C 0.02322 0.72923 0.19695 0.0
H580 H 0.26085 0.123 0.65354 0.0
H581 H 0.42258 0.13484 0.63545 0.0
H582 H 0.22459 0.08196 0.61129 0.0
H583 H 0.38699 0.0947 0.59341 0.0
H584 H 0.28614 0.96188 0.53253 0.0
H585 H 0.32105 0.0054 0.57418 0.0
H586 H 0.23299 0.10113 0.56566 0.0
H587 H 0.19609 0.05569 0.52427 0.0
C588 C 0.28886 0.1173 0.64051 0.0
C589 C 0.34445 0.13155 0.6481 0.0
C590 C 0.26813 0.09391 0.61622 0.0
C591 C 0.30256 0.08432 0.5989 0.0
C592 C 0.35864 0.10006 0.60635 0.0
C593 C 0.37919 0.12327 0.63055 0.0
C594 C 0.2737 -0.00821 0.53957 0.0
C595 C 0.23805 0.00501 0.52493 0.0
C596 C 0.29436 0.01739 0.56342 0.0
C597 C 0.28012 0.0571 0.57339 0.0
C598 C 0.2445 0.07042 0.55876 0.0
C599 C 0.22387 0.04483 0.53484 0.0
loop_
_geom_bond_atom_site_label_1
_geom_bond_atom_site_label_2
_geom_bond_distance
_geom_bond_site_symmetry_2
_ccdc_geom_bond_type
Nd0 C2 2.836 . S
Nd0 O20 2.500 . S
Nd0 O21 2.492 . S
Nd0 O22 2.487 . S
Nd0 O23 2.682 . S
Nd0 O24 2.410 . S
Nd0 O29 2.414 . S
Nd0 O31 2.424 . S
Nd1 C11 2.836 1_554 S
Nd1 O23 2.414 . S
Nd1 O25 2.424 . S
Nd1 O26 2.500 1_554 S
Nd1 O27 2.492 1_554 S
Nd1 O28 2.487 . S
Nd1 O29 2.682 . S
Nd1 O30 2.410 1_554 S
C2 Nd0 2.836 . S
C2 C3 1.498 . S
C2 O20 1.258 . S
C2 O21 1.239 . S
C3 C2 1.498 . S
C3 C4 1.366 . S
C3 C8 1.407 . S
C4 C3 1.366 . S
C4 C5 1.392 . S
C4 H32 0.930 . S
C5 C4 1.392 . S
C5 C6 1.398 . S
C5 H33 0.914 1_455 S
C6 C5 1.398 . S
C6 C7 1.352 . S
C7 C6 1.352 . S
C7 C8 1.384 . S
C7 H34 0.930 . S
C8 C3 1.407 . S
C8 C7 1.384 . S
C8 H35 0.929 . S
C9 O22 1.241 . S
C9 O23 1.273 . S
C10 O24 1.251 . S
C10 O25 1.268 . S
C11 Nd1 2.836 1_556 S
C11 C12 1.498 . S
C11 O26 1.258 . S
C11 O27 1.239 . S
C12 C11 1.498 . S
C12 C13 1.366 . S
C12 C17 1.407 . S
C13 C12 1.366 . S
C13 C14 1.392 . S
C13 H36 0.930 . S
C14 C13 1.392 . S
C14 C15 1.398 . S
C14 H37 0.929 . S
C15 C14 1.398 . S
C15 C16 1.352 . S
C16 C15 1.352 . S
C16 C17 1.384 . S
C16 H38 0.930 . S
C17 C12 1.407 . S
C17 C16 1.384 . S
C17 H39 0.929 . S
C18 O28 1.241 . S
C18 O29 1.273 . S
C19 O30 1.251 . S
C19 O31 1.268 1_556 S
O20 Nd0 2.500 . S
O20 C2 1.258 . S
O21 Nd0 2.492 . S
O21 C2 1.239 . S
O22 Nd0 2.487 . S
O22 C9 1.241 . S
O23 Nd0 2.682 . S
O23 Nd1 2.414 . S
O23 C9 1.273 . S
O24 Nd0 2.410 . S
O24 C10 1.251 . S
O25 Nd1 2.424 . S
O25 C10 1.268 . S
O26 Nd1 2.500 1_556 S
O26 C11 1.258 . S
O27 Nd1 2.492 1_556 S
O27 C11 1.239 . S
O28 Nd1 2.487 . S
O28 C18 1.241 . S
O29 Nd0 2.414 . S
O29 Nd1 2.682 . S
O29 C18 1.273 . S
O30 Nd1 2.410 1_556 S
O30 C19 1.251 . S
O31 Nd0 2.424 . S
O31 C19 1.268 1_554 S
H32 C4 0.930 . S
H33 C5 0.914 1_655 S
H34 C7 0.930 . S
H35 C8 0.929 . S
H36 C13 0.930 . S
H37 C14 0.929 . S
H38 C16 0.930 . S
H39 C17 0.929 . S
Nd40 C42 2.836 . S
Nd40 O60 2.500 . S
Nd40 O61 2.492 . S
Nd40 O62 2.487 . S
Nd40 O63 2.682 . S
Nd40 O64 2.410 . S
Nd40 O69 2.414 . S
Nd40 O71 2.424 . S
Nd41 C51 2.836 . S
Nd41 O63 2.414 . S
Nd41 O65 2.424 . S
Nd41 O66 2.500 . S
Nd41 O67 2.492 . S
Nd41 O68 2.487 . S
Nd41 O69 2.682 . S
Nd41 O70 2.410 . S
C42 Nd40 2.836 . S
C42 C43 1.498 . S
C42 O60 1.258 . S
C42 O61 1.239 . S
C43 C42 1.498 . S
C43 C44 1.366 . S
C43 C48 1.407 . S
C44 C43 1.366 . S
C44 C45 1.392 . S
C44 H72 0.930 . S
C45 C44 1.392 . S
C45 C46 1.398 . S
C45 H73 0.925 1_545 S
C46 C45 1.398 . S
C46 C47 1.352 . S
C47 C46 1.352 . S
C47 C48 1.384 . S
C47 H74 0.930 . S
C48 C43 1.407 . S
C48 C47 1.384 . S
C48 H75 0.929 . S
C49 O62 1.241 . S
C49 O63 1.273 . S
C50 O64 1.251 . S
C50 O65 1.268 . S
C51 Nd41 2.836 . S
C51 C52 1.498 . S
C51 O66 1.258 . S
C51 O67 1.239 . S
C52 C51 1.498 . S
C52 C53 1.366 . S
C52 C57 1.407 . S
C53 C52 1.366 . S
C53 C54 1.392 . S
C53 H76 0.930 . S
C54 C53 1.392 . S
C54 C55 1.398 . S
C54 H77 0.929 . S
C55 C54 1.398 . S
C55 C56 1.352 . S
C56 C55 1.352 . S
C56 C57 1.384 . S
C56 H78 0.930 . S
C57 C52 1.407 . S
C57 C56 1.384 . S
C57 H79 0.929 . S
C58 O68 1.241 . S
C58 O69 1.273 . S
C59 O70 1.251 . S
C59 O71 1.268 . S
O60 Nd40 2.500 . S
O60 C42 1.258 . S
O61 Nd40 2.492 . S
O61 C42 1.239 . S
O62 Nd40 2.487 . S
O62 C49 1.241 . S
O63 Nd40 2.682 . S
O63 Nd41 2.414 . S
O63 C49 1.273 . S
O64 Nd40 2.410 . S
O64 C50 1.251 . S
O65 Nd41 2.424 . S
O65 C50 1.268 . S
O66 Nd41 2.500 . S
O66 C51 1.258 . S
O67 Nd41 2.492 . S
O67 C51 1.239 . S
O68 Nd41 2.487 . S
O68 C58 1.241 . S
O69 Nd40 2.414 . S
O69 Nd41 2.682 . S
O69 C58 1.273 . S
O70 Nd41 2.410 . S
O70 C59 1.251 . S
O71 Nd40 2.424 . S
O71 C59 1.268 . S
H72 C44 0.930 . S
H73 C45 0.925 1_565 S
H74 C47 0.930 . S
H75 C48 0.929 . S
H76 C53 0.930 . S
H77 C54 0.929 . S
H78 C56 0.930 . S
H79 C57 0.929 . S
Nd80 C82 2.836 . S
Nd80 O100 2.500 . S
Nd80 O101 2.492 . S
Nd80 O102 2.487 . S
Nd80 O103 2.682 . S
Nd80 O104 2.410 . S
Nd80 O109 2.414 . S
Nd80 O111 2.424 . S
Nd81 C91 2.836 . S
Nd81 O103 2.414 . S
Nd81 O105 2.424 . S
Nd81 O106 2.500 . S
Nd81 O107 2.492 . S
Nd81 O108 2.487 . S
Nd81 O109 2.682 . S
Nd81 O110 2.410 . S
C82 Nd80 2.836 . S
C82 C83 1.498 . S
C82 O100 1.258 . S
C82 O101 1.239 . S
C83 C82 1.498 . S
C83 C84 1.366 . S
C83 C88 1.407 . S
C84 C83 1.366 . S
C84 C85 1.392 . S
C84 H112 0.930 . S
C85 C84 1.392 . S
C85 C86 1.398 . S
C85 H113 0.929 . S
C86 C85 1.398 . S
C86 C87 1.352 . S
C87 C86 1.352 . S
C87 C88 1.384 . S
C87 H114 0.930 . S
C88 C83 1.407 . S
C88 C87 1.384 . S
C88 H115 0.929 . S
C89 O102 1.241 . S
C89 O103 1.273 . S
C90 O104 1.251 . S
C90 O105 1.268 . S
C91 Nd81 2.836 . S
C91 C92 1.498 . S
C91 O106 1.258 . S
C91 O107 1.239 . S
C92 C91 1.498 . S
C92 C93 1.366 . S
C92 C97 1.407 . S
C93 C92 1.366 . S
C93 C94 1.392 . S
C93 H116 0.930 . S
C94 C93 1.392 . S
C94 C95 1.398 . S
C94 H117 0.929 . S
C95 C94 1.398 . S
C95 C96 1.352 . S
C96 C95 1.352 . S
C96 C97 1.384 . S
C96 H118 0.930 . S
C97 C92 1.407 . S
C97 C96 1.384 . S
C97 H119 0.929 . S
C98 O108 1.241 . S
C98 O109 1.273 . S
C99 O110 1.251 . S
C99 O111 1.268 . S
O100 Nd80 2.500 . S
O100 C82 1.258 . S
O101 Nd80 2.492 . S
O101 C82 1.239 . S
O102 Nd80 2.487 . S
O102 C89 1.241 . S
O103 Nd80 2.682 . S
O103 Nd81 2.414 . S
O103 C89 1.273 . S
O104 Nd80 2.410 . S
O104 C90 1.251 . S
O105 Nd81 2.424 . S
O105 C90 1.268 . S
O106 Nd81 2.500 . S
O106 C91 1.258 . S
O107 Nd81 2.492 . S
O107 C91 1.239 . S
O108 Nd81 2.487 . S
O108 C98 1.241 . S
O109 Nd80 2.414 . S
O109 Nd81 2.682 . S
O109 C98 1.273 . S
O110 Nd81 2.410 . S
O110 C99 1.251 . S
O111 Nd80 2.424 . S
O111 C99 1.268 . S
H112 C84 0.930 . S
H113 C85 0.929 . S
H114 C87 0.930 . S
H115 C88 0.929 . S
H116 C93 0.930 . S
H117 C94 0.929 . S
H118 C96 0.930 . S
H119 C97 0.929 . S
Nd120 C122 2.836 . S
Nd120 O140 2.500 . S
Nd120 O141 2.492 . S
Nd120 O142 2.487 . S
Nd120 O143 2.682 . S
Nd120 O144 2.410 . S
Nd120 O149 2.414 . S
Nd120 O151 2.424 . S
Nd121 C131 2.836 1_554 S
Nd121 O143 2.414 . S
Nd121 O145 2.424 . S
Nd121 O146 2.500 1_554 S
Nd121 O147 2.492 1_554 S
Nd121 O148 2.487 . S
Nd121 O149 2.682 . S
Nd121 O150 2.410 1_554 S
C122 Nd120 2.836 . S
C122 C123 1.498 . S
C122 O140 1.258 . S
C122 O141 1.239 . S
C123 C122 1.498 . S
C123 C124 1.366 . S
C123 C128 1.407 . S
C124 C123 1.366 . S
C124 C125 1.392 . S
C124 H152 0.930 . S
C125 C124 1.392 . S
C125 C126 1.398 . S
C125 H153 0.914 1_655 S
C126 C125 1.398 . S
C126 C127 1.352 . S
C127 C126 1.352 . S
C127 C128 1.384 . S
C127 H154 0.930 . S
C128 C123 1.407 . S
C128 C127 1.384 . S
C128 H155 0.929 . S
C129 O142 1.241 . S
C129 O143 1.273 . S
C130 O144 1.251 . S
C130 O145 1.268 . S
C131 Nd121 2.836 1_556 S
C131 C132 1.498 . S
C131 O146 1.258 . S
C131 O147 1.239 . S
C132 C131 1.498 . S
C132 C133 1.366 . S
C132 C137 1.407 . S
C133 C132 1.366 . S
C133 C134 1.392 . S
C133 H156 0.930 . S
C134 C133 1.392 . S
C134 C135 1.398 . S
C134 H157 0.929 . S
C135 C134 1.398 . S
C135 C136 1.352 . S
C136 C135 1.352 . S
C136 C137 1.384 . S
C136 H158 0.930 . S
C137 C132 1.407 . S
C137 C136 1.384 . S
C137 H159 0.929 . S
C138 O148 1.241 . S
C138 O149 1.273 . S
C139 O150 1.251 . S
C139 O151 1.268 1_556 S
O140 Nd120 2.500 . S
O140 C122 1.258 . S
O141 Nd120 2.492 . S
O141 C122 1.239 . S
O142 Nd120 2.487 . S
O142 C129 1.241 . S
O143 Nd120 2.682 . S
O143 Nd121 2.414 . S
O143 C129 1.273 . S
O144 Nd120 2.410 . S
O144 C130 1.251 . S
O145 Nd121 2.424 . S
O145 C130 1.268 . S
O146 Nd121 2.500 1_556 S
O146 C131 1.258 . S
O147 Nd121 2.492 1_556 S
O147 C131 1.239 . S
O148 Nd121 2.487 . S
O148 C138 1.241 . S
O149 Nd120 2.414 . S
O149 Nd121 2.682 . S
O149 C138 1.273 . S
O150 Nd121 2.410 1_556 S
O150 C139 1.251 . S
O151 Nd120 2.424 . S
O151 C139 1.268 1_554 S
H152 C124 0.930 . S
H153 C125 0.914 1_455 S
H154 C127 0.930 . S
H155 C128 0.929 . S
H156 C133 0.930 . S
H157 C134 0.929 . S
H158 C136 0.930 . S
H159 C137 0.929 . S
Nd160 C162 2.836 . S
Nd160 O180 2.500 . S
Nd160 O181 2.492 . S
Nd160 O182 2.487 . S
Nd160 O183 2.682 . S
Nd160 O184 2.410 . S
Nd160 O189 2.414 . S
Nd160 O191 2.424 . S
Nd161 C171 2.836 . S
Nd161 O183 2.414 . S
Nd161 O185 2.424 . S
Nd161 O186 2.500 . S
Nd161 O187 2.492 . S
Nd161 O188 2.487 . S
Nd161 O189 2.682 . S
Nd161 O190 2.410 . S
C162 Nd160 2.836 . S
C162 C163 1.498 . S
C162 O180 1.258 . S
C162 O181 1.239 . S
C163 C162 1.498 . S
C163 C164 1.366 . S
C163 C168 1.407 . S
C164 C163 1.366 . S
C164 C165 1.392 . S
C164 H192 0.930 . S
C165 C164 1.392 . S
C165 C166 1.398 . S
C165 H193 0.925 1_565 S
C166 C165 1.398 . S
C166 C167 1.352 . S
C167 C166 1.352 . S
C167 C168 1.384 . S
C167 H194 0.930 . S
C168 C163 1.407 . S
C168 C167 1.384 . S
C168 H195 0.929 . S
C169 O182 1.241 . S
C169 O183 1.273 . S
C170 O184 1.251 . S
C170 O185 1.268 . S
C171 Nd161 2.836 . S
C171 C172 1.498 . S
C171 O186 1.258 . S
C171 O187 1.239 . S
C172 C171 1.498 . S
C172 C173 1.366 . S
C172 C177 1.407 . S
C173 C172 1.366 . S
C173 C174 1.392 . S
C173 H196 0.930 . S
C174 C173 1.392 . S
C174 C175 1.398 . S
C174 H197 0.929 . S
C175 C174 1.398 . S
C175 C176 1.352 . S
C176 C175 1.352 . S
C176 C177 1.384 . S
C176 H198 0.930 . S
C177 C172 1.407 . S
C177 C176 1.384 . S
C177 H199 0.929 . S
C178 O188 1.241 . S
C178 O189 1.273 . S
C179 O190 1.251 . S
C179 O191 1.268 . S
O180 Nd160 2.500 . S
O180 C162 1.258 . S
O181 Nd160 2.492 . S
O181 C162 1.239 . S
O182 Nd160 2.487 . S
O182 C169 1.241 . S
O183 Nd160 2.682 . S
O183 Nd161 2.414 . S
O183 C169 1.273 . S
O184 Nd160 2.410 . S
O184 C170 1.251 . S
O185 Nd161 2.424 . S
O185 C170 1.268 . S
O186 Nd161 2.500 . S
O186 C171 1.258 . S
O187 Nd161 2.492 . S
O187 C171 1.239 . S
O188 Nd161 2.487 . S
O188 C178 1.241 . S
O189 Nd160 2.414 . S
O189 Nd161 2.682 . S
O189 C178 1.273 . S
O190 Nd161 2.410 . S
O190 C179 1.251 . S
O191 Nd160 2.424 . S
O191 C179 1.268 . S
H192 C164 0.930 . S
H193 C165 0.925 1_545 S
H194 C167 0.930 . S
H195 C168 0.929 . S
H196 C173 0.930 . S
H197 C174 0.929 . S
H198 C176 0.930 . S
H199 C177 0.929 . S
Nd200 C202 2.836 . S
Nd200 O220 2.500 . S
Nd200 O221 2.492 . S
Nd200 O222 2.487 . S
Nd200 O223 2.682 . S
Nd200 O224 2.410 . S
Nd200 O229 2.414 . S
Nd200 O231 2.424 . S
Nd201 C211 2.836 . S
Nd201 O223 2.414 . S
Nd201 O225 2.424 . S
Nd201 O226 2.500 . S
Nd201 O227 2.492 . S
Nd201 O228 2.487 . S
Nd201 O229 2.682 . S
Nd201 O230 2.410 . S
C202 Nd200 2.836 . S
C202 C203 1.498 . S
C202 O220 1.258 . S
C202 O221 1.239 . S
C203 C202 1.498 . S
C203 C204 1.366 . S
C203 C208 1.407 . S
C204 C203 1.366 . S
C204 C205 1.392 . S
C204 H232 0.930 . S
C205 C204 1.392 . S
C205 C206 1.398 . S
C205 H233 0.929 . S
C206 C205 1.398 . S
C206 C207 1.352 . S
C207 C206 1.352 . S
C207 C208 1.384 . S
C207 H234 0.930 . S
C208 C203 1.407 . S
C208 C207 1.384 . S
C208 H235 0.929 . S
C209 O222 1.241 . S
C209 O223 1.273 . S
C210 O224 1.251 . S
C210 O225 1.268 . S
C211 Nd201 2.836 . S
C211 C212 1.498 . S
C211 O226 1.258 . S
C211 O227 1.239 . S
C212 C211 1.498 . S
C212 C213 1.366 . S
C212 C217 1.407 . S
C213 C212 1.366 . S
C213 C214 1.392 . S
C213 H236 0.930 . S
C214 C213 1.392 . S
C214 C215 1.398 . S
C214 H237 0.929 . S
C215 C214 1.398 . S
C215 C216 1.352 . S
C216 C215 1.352 . S
C216 C217 1.384 . S
C216 H238 0.930 . S
C217 C212 1.407 . S
C217 C216 1.384 . S
C217 H239 0.929 . S
C218 O228 1.241 . S
C218 O229 1.273 . S
C219 O230 1.251 . S
C219 O231 1.268 . S
O220 Nd200 2.500 . S
O220 C202 1.258 . S
O221 Nd200 2.492 . S
O221 C202 1.239 . S
O222 Nd200 2.487 . S
O222 C209 1.241 . S
O223 Nd200 2.682 . S
O223 Nd201 2.414 . S
O223 C209 1.273 . S
O224 Nd200 2.410 . S
O224 C210 1.251 . S
O225 Nd201 2.424 . S
O225 C210 1.268 . S
O226 Nd201 2.500 . S
O226 C211 1.258 . S
O227 Nd201 2.492 . S
O227 C211 1.239 . S
O228 Nd201 2.487 . S
O228 C218 1.241 . S
O229 Nd200 2.414 . S
O229 Nd201 2.682 . S
O229 C218 1.273 . S
O230 Nd201 2.410 . S
O230 C219 1.251 . S
O231 Nd200 2.424 . S
O231 C219 1.268 . S
H232 C204 0.930 . S
H233 C205 0.929 . S
H234 C207 0.930 . S
H235 C208 0.929 . S
H236 C213 0.930 . S
H237 C214 0.929 . S
H238 C216 0.930 . S
H239 C217 0.929 . S
H240 C248 0.950 . S
H241 C253 0.950 . S
H242 C250 0.950 . S
H243 C252 0.950 . S
H244 C254 0.950 . S
H245 C256 0.950 . S
H246 C258 0.950 . S
H247 C259 0.950 . S
C248 H240 0.950 . S
C248 C249 1.386 . S
C248 C250 1.391 . S
C249 C248 1.386 . S
C249 C253 1.393 . S
C250 H242 0.950 . S
C250 C248 1.391 . S
C250 C251 1.400 . S
C251 C250 1.400 . S
C251 C252 1.398 . S
C251 C257 1.491 . S
C252 H243 0.950 . S
C252 C251 1.398 . S
C252 C253 1.391 . S
C253 H241 0.950 . S
C253 C249 1.393 . S
C253 C252 1.391 . S
C254 H244 0.950 . S
C254 C255 1.386 . S
C254 C256 1.391 . S
C255 C254 1.386 . S
C255 C259 1.393 . S
C256 H245 0.950 . S
C256 C254 1.391 . S
C256 C257 1.400 . S
C257 C251 1.491 . S
C257 C256 1.400 . S
C257 C258 1.398 . S
C258 H246 0.950 . S
C258 C257 1.398 . S
C258 C259 1.391 . S
C259 H247 0.950 . S
C259 C255 1.393 . S
C259 C258 1.391 . S
H260 C268 0.950 . S
H261 C273 0.950 . S
H262 C270 0.950 . S
H263 C272 0.950 . S
H264 C274 0.950 . S
H265 C276 0.950 . S
H266 C278 0.950 . S
H267 C279 0.950 . S
C268 H260 0.950 . S
C268 C269 1.386 . S
C268 C270 1.391 . S
C269 C268 1.386 . S
C269 C273 1.393 . S
C270 H262 0.950 . S
C270 C268 1.391 . S
C270 C271 1.400 . S
C271 C270 1.400 . S
C271 C272 1.398 . S
C271 C277 1.491 . S
C272 H263 0.950 . S
C272 C271 1.398 . S
C272 C273 1.391 . S
C273 H261 0.950 . S
C273 C269 1.393 . S
C273 C272 1.391 . S
C274 H264 0.950 . S
C274 C275 1.386 . S
C274 C276 1.391 . S
C275 C274 1.386 . S
C275 C279 1.393 . S
C276 H265 0.950 . S
C276 C274 1.391 . S
C276 C277 1.400 . S
C277 C271 1.491 . S
C277 C276 1.400 . S
C277 C278 1.398 . S
C278 H266 0.950 . S
C278 C277 1.398 . S
C278 C279 1.391 . S
C279 H267 0.950 . S
C279 C275 1.393 . S
C279 C278 1.391 . S
H280 C288 0.950 . S
H281 C293 0.950 . S
H282 C290 0.950 . S
H283 C292 0.950 . S
H284 C294 0.950 . S
H285 C296 0.950 . S
H286 C298 0.950 . S
H287 C299 0.950 . S
C288 H280 0.950 . S
C288 C289 1.386 . S
C288 C290 1.391 . S
C289 C288 1.386 . S
C289 C293 1.393 . S
C290 H282 0.950 . S
C290 C288 1.391 . S
C290 C291 1.400 . S
C291 C290 1.400 . S
C291 C292 1.398 . S
C291 C297 1.491 . S
C292 H283 0.950 . S
C292 C291 1.398 . S
C292 C293 1.391 . S
C293 H281 0.950 . S
C293 C289 1.393 . S
C293 C292 1.391 . S
C294 H284 0.950 . S
C294 C295 1.386 . S
C294 C296 1.391 . S
C295 C294 1.386 . S
C295 C299 1.393 . S
C296 H285 0.950 . S
C296 C294 1.391 . S
C296 C297 1.400 . S
C297 C291 1.491 . S
C297 C296 1.400 . S
C297 C298 1.398 . S
C298 H286 0.950 . S
C298 C297 1.398 . S
C298 C299 1.391 . S
C299 H287 0.950 . S
C299 C295 1.393 . S
C299 C298 1.391 . S
H300 C308 0.950 . S
H301 C313 0.950 . S
H302 C310 0.950 . S
H303 C312 0.950 . S
H304 C314 0.950 . S
H305 C316 0.950 . S
H306 C318 0.950 . S
H307 C319 0.950 . S
C308 H300 0.950 . S
C308 C309 1.386 . S
C308 C310 1.391 . S
C309 C308 1.386 . S
C309 C313 1.393 . S
C310 H302 0.950 . S
C310 C308 1.391 . S
C310 C311 1.400 . S
C311 C310 1.400 . S
C311 C312 1.398 . S
C311 C317 1.491 . S
C312 H303 0.950 . S
C312 C311 1.398 . S
C312 C313 1.391 . S
C313 H301 0.950 . S
C313 C309 1.393 . S
C313 C312 1.391 . S
C314 H304 0.950 . S
C314 C315 1.386 . S
C314 C316 1.391 . S
C315 C314 1.386 . S
C315 C319 1.393 . S
C316 H305 0.950 . S
C316 C314 1.391 . S
C316 C317 1.400 . S
C317 C311 1.491 . S
C317 C316 1.400 . S
C317 C318 1.398 . S
C318 H306 0.950 . S
C318 C317 1.398 . S
C318 C319 1.391 . S
C319 H307 0.950 . S
C319 C315 1.393 . S
C319 C318 1.391 . S
H320 C328 0.950 . S
H321 C333 0.950 . S
H322 C330 0.950 . S
H323 C332 0.950 . S
H324 C334 0.950 . S
H325 C336 0.950 . S
H326 C338 0.950 . S
H327 C339 0.950 . S
C328 H320 0.950 . S
C328 C329 1.386 . S
C328 C330 1.391 . S
C329 C328 1.386 . S
C329 C333 1.393 . S
C330 H322 0.950 . S
C330 C328 1.391 . S
C330 C331 1.400 . S
C331 C330 1.400 . S
C331 C332 1.398 . S
C331 C337 1.491 . S
C332 H323 0.950 . S
C332 C331 1.398 . S
C332 C333 1.391 . S
C333 H321 0.950 . S
C333 C329 1.393 . S
C333 C332 1.391 . S
C334 H324 0.950 . S
C334 C335 1.386 . S
C334 C336 1.391 . S
C335 C334 1.386 . S
C335 C339 1.393 . S
C336 H325 0.950 . S
C336 C334 1.391 . S
C336 C337 1.400 . S
C337 C331 1.491 . S
C337 C336 1.400 . S
C337 C338 1.398 . S
C338 H326 0.950 . S
C338 C337 1.398 . S
C338 C339 1.391 . S
C339 H327 0.950 . S
C339 C335 1.393 . S
C339 C338 1.391 . S
H340 C348 0.950 . S
H341 C353 0.950 . S
H342 C350 0.950 . S
H343 C352 0.950 . S
H344 C354 0.950 . S
H345 C356 0.950 . S
H346 C358 0.950 . S
H347 C359 0.950 . S
C348 H340 0.950 . S
C348 C349 1.386 . S
C348 C350 1.391 . S
C349 C348 1.386 . S
C349 C353 1.393 . S
C350 H342 0.950 . S
C350 C348 1.391 . S
C350 C351 1.400 . S
C351 C350 1.400 . S
C351 C352 1.398 . S
C351 C357 1.491 . S
C352 H343 0.950 . S
C352 C351 1.398 . S
C352 C353 1.391 . S
C353 H341 0.950 . S
C353 C349 1.393 . S
C353 C352 1.391 . S
C354 H344 0.950 . S
C354 C355 1.386 . S
C354 C356 1.391 . S
C355 C354 1.386 . S
C355 C359 1.393 . S
C356 H345 0.950 . S
C356 C354 1.391 . S
C356 C357 1.400 . S
C357 C351 1.491 . S
C357 C356 1.400 . S
C357 C358 1.398 . S
C358 H346 0.950 . S
C358 C357 1.398 . S
C358 C359 1.391 . S
C359 H347 0.950 . S
C359 C355 1.393 . S
C359 C358 1.391 . S
H360 C368 0.950 . S
H361 C373 0.950 . S
H362 C370 0.950 . S
H363 C372 0.950 . S
H364 C374 0.950 . S
H365 C376 0.950 . S
H366 C378 0.950 . S
H367 C379 0.950 . S
C368 H360 0.950 . S
C368 C369 1.386 . S
C368 C370 1.391 . S
C369 C368 1.386 . S
C369 C373 1.393 . S
C370 H362 0.950 . S
C370 C368 1.391 . S
C370 C371 1.400 . S
C371 C370 1.400 . S
C371 C372 1.398 . S
C371 C377 1.491 . S
C372 H363 0.950 . S
C372 C371 1.398 . S
C372 C373 1.391 . S
C373 H361 0.950 . S
C373 C369 1.393 . S
C373 C372 1.391 . S
C374 H364 0.950 . S
C374 C375 1.386 . S
C374 C376 1.391 . S
C375 C374 1.386 . S
C375 C379 1.393 . S
C376 H365 0.950 . S
C376 C374 1.391 . S
C376 C377 1.400 . S
C377 C371 1.491 . S
C377 C376 1.400 . S
C377 C378 1.398 . S
C378 H366 0.950 . S
C378 C377 1.398 . S
C378 C379 1.391 . S
C379 H367 0.950 . S
C379 C375 1.393 . S
C379 C378 1.391 . S
H380 C388 0.950 . S
H381 C393 0.950 . S
H382 C390 0.950 1_655 S
H383 C392 0.950 . S
H384 C394 0.950 . S
H385 C396 0.950 1_455 S
H386 C398 0.950 . S
H387 C399 0.950 . S
C388 H380 0.950 . S
C388 C389 1.386 . S
C388 C390 1.391 . S
C389 C388 1.386 . S
C389 C393 1.393 . S
C390 H382 0.950 1_455 S
C390 C388 1.391 . S
C390 C391 1.400 . S
C391 C390 1.400 . S
C391 C392 1.398 . S
C391 C397 1.491 1_455 S
C392 H383 0.950 . S
C392 C391 1.398 . S
C392 C393 1.391 . S
C393 H381 0.950 . S
C393 C389 1.393 . S
C393 C392 1.391 . S
C394 H384 0.950 . S
C394 C395 1.386 . S
C394 C396 1.391 . S
C395 C394 1.386 . S
C395 C399 1.393 . S
C396 H385 0.950 1_655 S
C396 C394 1.391 . S
C396 C397 1.400 . S
C397 C391 1.491 1_655 S
C397 C396 1.400 . S
C397 C398 1.398 . S
C398 H386 0.950 . S
C398 C397 1.398 . S
C398 C399 1.391 . S
C399 H387 0.950 . S
C399 C395 1.393 . S
C399 C398 1.391 . S
H400 C408 0.950 1_565 S
H401 C413 0.950 . S
H402 C410 0.950 . S
H403 C412 0.950 . S
H404 C414 0.950 1_545 S
H405 C416 0.950 . S
H406 C418 0.950 . S
H407 C419 0.950 . S
C408 H400 0.950 1_545 S
C408 C409 1.386 . S
C408 C410 1.391 1_545 S
C409 C408 1.386 . S
C409 C413 1.393 . S
C410 H402 0.950 . S
C410 C408 1.391 1_565 S
C410 C411 1.400 1_565 S
C411 C410 1.400 1_545 S
C411 C412 1.398 . S
C411 C417 1.491 1_545 S
C412 H403 0.950 . S
C412 C411 1.398 . S
C412 C413 1.391 . S
C413 H401 0.950 . S
C413 C409 1.393 . S
C413 C412 1.391 . S
C414 H404 0.950 1_565 S
C414 C415 1.386 . S
C414 C416 1.391 1_565 S
C415 C414 1.386 . S
C415 C419 1.393 . S
C416 H405 0.950 . S
C416 C414 1.391 1_545 S
C416 C417 1.400 1_545 S
C417 C411 1.491 1_565 S
C417 C416 1.400 1_565 S
C417 C418 1.398 . S
C418 H406 0.950 . S
C418 C417 1.398 . S
C418 C419 1.391 . S
C419 H407 0.950 . S
C419 C415 1.393 . S
C419 C418 1.391 . S
H420 C428 0.950 . S
H421 C433 0.950 . S
H422 C430 0.950 . S
H423 C432 0.950 . S
H424 C434 0.950 . S
H425 C436 0.950 . S
H426 C438 0.950 . S
H427 C439 0.950 . S
C428 H420 0.950 . S
C428 C429 1.386 . S
C428 C430 1.391 . S
C429 C428 1.386 . S
C429 C433 1.393 . S
C430 H422 0.950 . S
C430 C428 1.391 . S
C430 C431 1.400 . S
C431 C430 1.400 . S
C431 C432 1.398 . S
C431 C437 1.491 . S
C432 H423 0.950 . S
C432 C431 1.398 . S
C432 C433 1.391 . S
C433 H421 0.950 . S
C433 C429 1.393 . S
C433 C432 1.391 . S
C434 H424 0.950 . S
C434 C435 1.386 . S
C434 C436 1.391 . S
C435 C434 1.386 . S
C435 C439 1.393 . S
C436 H425 0.950 . S
C436 C434 1.391 . S
C436 C437 1.400 . S
C437 C431 1.491 . S
C437 C436 1.400 . S
C437 C438 1.398 . S
C438 H426 0.950 . S
C438 C437 1.398 . S
C438 C439 1.391 . S
C439 H427 0.950 . S
C439 C435 1.393 . S
C439 C438 1.391 . S
H440 C448 0.950 . S
H441 C453 0.950 . S
H442 C450 0.950 . S
H443 C452 0.950 . S
H444 C454 0.950 . S
H445 C456 0.950 . S
H446 C458 0.950 . S
H447 C459 0.950 . S
C448 H440 0.950 . S
C448 C449 1.386 . S
C448 C450 1.391 1_455 S
C449 C448 1.386 . S
C449 C453 1.393 . S
C450 H442 0.950 . S
C450 C448 1.391 1_655 S
C450 C451 1.400 1_655 S
C451 C450 1.400 1_455 S
C451 C452 1.398 . S
C451 C457 1.491 1_455 S
C452 H443 0.950 . S
C452 C451 1.398 . S
C452 C453 1.391 . S
C453 H441 0.950 . S
C453 C449 1.393 . S
C453 C452 1.391 . S
C454 H444 0.950 . S
C454 C455 1.386 . S
C454 C456 1.391 1_655 S
C455 C454 1.386 . S
C455 C459 1.393 . S
C456 H445 0.950 . S
C456 C454 1.391 1_455 S
C456 C457 1.400 1_455 S
C457 C451 1.491 1_655 S
C457 C456 1.400 1_655 S
C457 C458 1.398 . S
C458 H446 0.950 . S
C458 C457 1.398 . S
C458 C459 1.391 . S
C459 H447 0.950 . S
C459 C455 1.393 . S
C459 C458 1.391 . S
H460 C468 0.950 . S
H461 C473 0.950 . S
H462 C470 0.950 . S
H463 C472 0.950 . S
H464 C474 0.950 . S
H465 C476 0.950 . S
H466 C478 0.950 . S
H467 C479 0.950 . S
C468 H460 0.950 . S
C468 C469 1.386 . S
C468 C470 1.391 1_565 S
C469 C468 1.386 . S
C469 C473 1.393 . S
C470 H462 0.950 . S
C470 C468 1.391 1_545 S
C470 C471 1.400 1_545 S
C471 C470 1.400 1_565 S
C471 C472 1.398 . S
C471 C477 1.491 1_565 S
C472 H463 0.950 . S
C472 C471 1.398 . S
C472 C473 1.391 . S
C473 H461 0.950 . S
C473 C469 1.393 . S
C473 C472 1.391 . S
C474 H464 0.950 . S
C474 C475 1.386 . S
C474 C476 1.391 1_545 S
C475 C474 1.386 . S
C475 C479 1.393 . S
C476 H465 0.950 . S
C476 C474 1.391 1_565 S
C476 C477 1.400 1_565 S
C477 C471 1.491 1_545 S
C477 C476 1.400 1_545 S
C477 C478 1.398 . S
C478 H466 0.950 . S
C478 C477 1.398 . S
C478 C479 1.391 . S
C479 H467 0.950 . S
C479 C475 1.393 . S
C479 C478 1.391 . S
H480 C488 0.950 . S
H481 C493 0.950 . S
H482 C490 0.950 . S
H483 C492 0.950 . S
H484 C494 0.950 . S
H485 C496 0.950 . S
H486 C498 0.950 . S
H487 C499 0.950 . S
C488 H480 0.950 . S
C488 C489 1.386 . S
C488 C490 1.391 . S
C489 C488 1.386 . S
C489 C493 1.393 . S
C490 H482 0.950 . S
C490 C488 1.391 . S
C490 C491 1.400 . S
C491 C490 1.400 . S
C491 C492 1.398 . S
C491 C497 1.491 . S
C492 H483 0.950 . S
C492 C491 1.398 . S
C492 C493 1.391 . S
C493 H481 0.950 . S
C493 C489 1.393 . S
C493 C492 1.391 . S
C494 H484 0.950 . S
C494 C495 1.386 . S
C494 C496 1.391 . S
C495 C494 1.386 . S
C495 C499 1.393 . S
C496 H485 0.950 . S
C496 C494 1.391 . S
C496 C497 1.400 . S
C497 C491 1.491 . S
C497 C496 1.400 . S
C497 C498 1.398 . S
C498 H486 0.950 . S
C498 C497 1.398 . S
C498 C499 1.391 . S
C499 H487 0.950 . S
C499 C495 1.393 . S
C499 C498 1.391 . S
H500 C508 0.950 . S
H501 C513 0.950 . S
H502 C510 0.950 1_455 S
H503 C512 0.950 . S
H504 C514 0.950 . S
H505 C516 0.950 . S
H506 C518 0.950 . S
H507 C519 0.950 . S
C508 H500 0.950 . S
C508 C509 1.386 . S
C508 C510 1.391 . S
C509 C508 1.386 . S
C509 C513 1.393 . S
C510 H502 0.950 1_655 S
C510 C508 1.391 . S
C510 C511 1.400 . S
C511 C510 1.400 . S
C511 C512 1.398 . S
C511 C517 1.491 . S
C512 H503 0.950 . S
C512 C511 1.398 . S
C512 C513 1.391 . S
C513 H501 0.950 . S
C513 C509 1.393 . S
C513 C512 1.391 . S
C514 H504 0.950 . S
C514 C515 1.386 1_655 S
C514 C516 1.391 . S
C515 C514 1.386 1_455 S
C515 C519 1.393 . S
C516 H505 0.950 . S
C516 C514 1.391 . S
C516 C517 1.400 . S
C517 C511 1.491 . S
C517 C516 1.400 . S
C517 C518 1.398 1_655 S
C518 H506 0.950 . S
C518 C517 1.398 1_455 S
C518 C519 1.391 . S
C519 H507 0.950 . S
C519 C515 1.393 . S
C519 C518 1.391 . S
H520 C528 0.950 . S
H521 C533 0.950 . S
H522 C530 0.950 . S
H523 C532 0.950 . S
H524 C534 0.950 . S
H525 C536 0.950 . S
H526 C538 0.950 . S
H527 C539 0.950 . S
C528 H520 0.950 . S
C528 C529 1.386 . S
C528 C530 1.391 . S
C529 C528 1.386 . S
C529 C533 1.393 . S
C530 H522 0.950 . S
C530 C528 1.391 . S
C530 C531 1.400 . S
C531 C530 1.400 . S
C531 C532 1.398 . S
C531 C537 1.491 . S
C532 H523 0.950 . S
C532 C531 1.398 . S
C532 C533 1.391 . S
C533 H521 0.950 . S
C533 C529 1.393 . S
C533 C532 1.391 . S
C534 H524 0.950 . S
C534 C535 1.386 1_565 S
C534 C536 1.391 . S
C535 C534 1.386 1_545 S
C535 C539 1.393 . S
C536 H525 0.950 . S
C536 C534 1.391 . S
C536 C537 1.400 . S
C537 C531 1.491 . S
C537 C536 1.400 . S
C537 C538 1.398 1_565 S
C538 H526 0.950 . S
C538 C537 1.398 1_545 S
C538 C539 1.391 . S
C539 H527 0.950 . S
C539 C535 1.393 . S
C539 C538 1.391 . S
H540 C548 0.950 . S
H541 C553 0.950 . S
H542 C550 0.950 . S
H543 C552 0.950 . S
H544 C554 0.950 . S
H545 C556 0.950 . S
H546 C558 0.950 . S
H547 C559 0.950 . S
C548 H540 0.950 . S
C548 C549 1.386 . S
C548 C550 1.391 . S
C549 C548 1.386 . S
C549 C553 1.393 . S
C550 H542 0.950 . S
C550 C548 1.391 . S
C550 C551 1.400 . S
C551 C550 1.400 . S
C551 C552 1.398 . S
C551 C557 1.491 . S
C552 H543 0.950 . S
C552 C551 1.398 . S
C552 C553 1.391 . S
C553 H541 0.950 . S
C553 C549 1.393 . S
C553 C552 1.391 . S
C554 H544 0.950 . S
C554 C555 1.386 . S
C554 C556 1.391 . S
C555 C554 1.386 . S
C555 C559 1.393 . S
C556 H545 0.950 . S
C556 C554 1.391 . S
C556 C557 1.400 . S
C557 C551 1.491 . S
C557 C556 1.400 . S
C557 C558 1.398 . S
C558 H546 0.950 . S
C558 C557 1.398 . S
C558 C559 1.391 . S
C559 H547 0.950 . S
C559 C555 1.393 . S
C559 C558 1.391 . S
H560 C568 0.950 . S
H561 C573 0.950 . S
H562 C570 0.950 . S
H563 C572 0.950 . S
H564 C574 0.950 . S
H565 C576 0.950 . S
H566 C578 0.950 . S
H567 C579 0.950 . S
C568 H560 0.950 . S
C568 C569 1.386 . S
C568 C570 1.391 . S
C569 C568 1.386 . S
C569 C573 1.393 . S
C570 H562 0.950 . S
C570 C568 1.391 . S
C570 C571 1.400 . S
C571 C570 1.400 . S
C571 C572 1.398 . S
C571 C577 1.491 . S
C572 H563 0.950 . S
C572 C571 1.398 . S
C572 C573 1.391 . S
C573 H561 0.950 . S
C573 C569 1.393 . S
C573 C572 1.391 . S
C574 H564 0.950 . S
C574 C575 1.386 1_455 S
C574 C576 1.391 . S
C575 C574 1.386 1_655 S
C575 C579 1.393 . S
C576 H565 0.950 . S
C576 C574 1.391 . S
C576 C577 1.400 . S
C577 C571 1.491 . S
C577 C576 1.400 . S
C577 C578 1.398 1_455 S
C578 H566 0.950 . S
C578 C577 1.398 1_655 S
C578 C579 1.391 . S
C579 H567 0.950 . S
C579 C575 1.393 . S
C579 C578 1.391 . S
H580 C588 0.950 . S
H581 C593 0.950 . S
H582 C590 0.950 . S
H583 C592 0.950 1_565 S
H584 C594 0.950 . S
H585 C596 0.950 . S
H586 C598 0.950 . S
H587 C599 0.950 . S
C588 H580 0.950 . S
C588 C589 1.386 . S
C588 C590 1.391 . S
C589 C588 1.386 . S
C589 C593 1.393 . S
C590 H582 0.950 . S
C590 C588 1.391 . S
C590 C591 1.400 . S
C591 C590 1.400 . S
C591 C592 1.398 . S
C591 C597 1.491 . S
C592 H583 0.950 1_545 S
C592 C591 1.398 . S
C592 C593 1.391 . S
C593 H581 0.950 . S
C593 C589 1.393 . S
C593 C592 1.391 . S
C594 H584 0.950 . S
C594 C595 1.386 . S
C594 C596 1.391 . S
C595 C594 1.386 . S
C595 C599 1.393 1_565 S
C596 H585 0.950 . S
C596 C594 1.391 . S
C596 C597 1.400 1_565 S
C597 C591 1.491 . S
C597 C596 1.400 1_545 S
C597 C598 1.398 . S
C598 H586 0.950 . S
C598 C597 1.398 . S
C598 C599 1.391 . S
C599 H587 0.950 . S
C599 C595 1.393 1_545 S
C599 C598 1.391 . S
C249 C175 1.195 . S
C255 C10 1.189 . S
C269 C215 1.195 . S
C275 C50 1.195 . S
C289 C15 1.196 . S
C295 C90 1.182 . S
C309 C55 1.196 . S
C315 C130 1.188 . S
C329 C95 1.196 . S
C335 C170 1.189 . S
C349 C135 1.196 . S
C355 C210 1.186 . S
C369 C9 1.048 . S
C375 C129 1.047 . S
C389 C169 1.058 . S
C395 C49 1.052 . S
C409 C209 1.055 . S
C415 C89 1.045 . S
C429 C98 0.997 . S
C435 C218 0.996 . S
C449 C18 0.955 . S
C455 C138 0.945 . S
C469 C178 0.947 . S
C475 C58 0.939 . S
C489 C206 1.319 . S
C495 C19 1.349 . S
C509 C59 1.346 . S
C515 C6 1.316 . S
C529 C99 1.347 . S
C535 C46 1.316 . S
C549 C86 1.317 . S
C555 C139 1.348 . S
C569 C179 1.348 . S
C575 C126 1.317 . S
C589 C219 1.352 . S
C595 C166 1.337 . S
