# Generated by pormake.
# Topology yfx, (5)-cn, num edge types: 1
# Building blocks:
#     Node 0, Type 0, BuildingBlock: XOMCOT_clean_sbu_0, # of connection points: 5
#     Node 1, Type 0, BuildingBlock: XOMCOT_clean_sbu_0, # of connection points: 5
#     Node 2, Type 0, BuildingBlock: XOMCOT_clean_sbu_0, # of connection points: 5
#     Node 3, Type 0, BuildingBlock: XOMCOT_clean_sbu_0, # of connection points: 5
#     Node 4, Type 0, BuildingBlock: XOMCOT_clean_sbu_0, # of connection points: 5
#     Node 5, Type 0, BuildingBlock: XOMCOT_clean_sbu_0, # of connection points: 5
#     Node 6, Type 0, BuildingBlock: XOMCOT_clean_sbu_0, # of connection points: 5
#     Node 7, Type 0, BuildingBlock: XOMCOT_clean_sbu_0, # of connection points: 5
#     Edge 8, Type (0, 0), BuildingBlock: KIFKEQ_clean_linker_1, # of connection points: 2
#     Edge 9, Type (0, 0), BuildingBlock: KIFKEQ_clean_linker_1, # of connection points: 2
#     Edge 10, Type (0, 0), BuildingBlock: KIFKEQ_clean_linker_1, # of connection points: 2
#     Edge 11, Type (0, 0), BuildingBlock: KIFKEQ_clean_linker_1, # of connection points: 2
#     Edge 12, Type (0, 0), BuildingBlock: KIFKEQ_clean_linker_1, # of connection points: 2
#     Edge 13, Type (0, 0), BuildingBlock: KIFKEQ_clean_linker_1, # of connection points: 2
#     Edge 14, Type (0, 0), BuildingBlock: KIFKEQ_clean_linker_1, # of connection points: 2
#     Edge 15, Type (0, 0), BuildingBlock: KIFKEQ_clean_linker_1, # of connection points: 2
#     Edge 16, Type (0, 0), BuildingBlock: KIFKEQ_clean_linker_1, # of connection points: 2
#     Edge 17, Type (0, 0), BuildingBlock: KIFKEQ_clean_linker_1, # of connection points: 2
#     Edge 18, Type (0, 0), BuildingBlock: KIFKEQ_clean_linker_1, # of connection points: 2
#     Edge 19, Type (0, 0), BuildingBlock: KIFKEQ_clean_linker_1, # of connection points: 2
#     Edge 20, Type (0, 0), BuildingBlock: KIFKEQ_clean_linker_1, # of connection points: 2
#     Edge 21, Type (0, 0), BuildingBlock: KIFKEQ_clean_linker_1, # of connection points: 2
#     Edge 22, Type (0, 0), BuildingBlock: KIFKEQ_clean_linker_1, # of connection points: 2
#     Edge 23, Type (0, 0), BuildingBlock: KIFKEQ_clean_linker_1, # of connection points: 2
#     Edge 24, Type (0, 0), BuildingBlock: KIFKEQ_clean_linker_1, # of connection points: 2
#     Edge 25, Type (0, 0), BuildingBlock: KIFKEQ_clean_linker_1, # of connection points: 2
#     Edge 26, Type (0, 0), BuildingBlock: KIFKEQ_clean_linker_1, # of connection points: 2
#     Edge 27, Type (0, 0), BuildingBlock: KIFKEQ_clean_linker_1, # of connection points: 2
# Relax obj value: 0.104
# Max RMSD: 0.108
# Mean RMSD: 0.108
data_MOF--net-yfx--node1-XOMCOT_clean_sbu_0--edge1-KIFKEQ_clean_linker_1
_symmetry_space_group_name_H-M    P1
_symmetry_Int_Tables_number       1
_symmetry_cell_setting            triclinic
loop_
_symmetry_equiv_pos_as_xyz
'x, y, z'
_cell_length_a     35.552243
_cell_length_b     35.541721
_cell_length_c     29.462628
_cell_angle_alpha  90.055763
_cell_angle_beta   89.901213
_cell_angle_gamma 90.013384
loop_
_atom_site_label
_atom_site_type_symbol
_atom_site_fract_x
_atom_site_fract_y
_atom_site_fract_z
_atom_type_partial_charge
Co0 Co 0.21916 0.37335 0.04794 0.0
C1 C 0.29576 0.34033 0.04507 0.0
C2 C 0.29408 0.39365 0.07949 0.0
C3 C 0.33055 0.38096 0.07922 0.0
N4 N 0.27242 0.36828 0.05797 0.0
N5 N 0.33163 0.34747 0.05757 0.0
H6 H 0.28666 0.31536 0.02713 0.0
H7 H 0.28405 0.41974 0.09403 0.0
C8 C 0.21594 0.45027 1.00337 0.0
O9 O 0.19538 0.43799 0.96944 0.0
N10 N 0.16528 0.38019 0.03911 0.0
C11 C 0.13929 0.3562 1.02257 0.0
C12 C 0.1049 0.37414 1.0215 0.0
C13 C 0.14584 0.41179 0.04951 0.0
N14 N 0.10909 0.40926 0.03817 0.0
C15 C 0.21528 0.32213 0.97297 0.0
C16 C 0.26174 0.36148 0.91471 0.0
C17 C 0.24927 0.32559 0.90151 0.0
C18 C 0.22563 0.30603 0.93153 0.0
C19 C 0.25106 0.37637 0.95687 0.0
N20 N 0.22711 0.35727 0.98506 0.0
H21 H 0.19979 0.30498 0.99659 0.0
H22 H 0.26398 0.40232 0.96767 0.0
H23 H 0.14424 0.32754 1.01234 0.0
H24 H 0.15861 0.43655 0.06423 0.0
O25 O 0.21126 0.32455 0.07588 0.0
O26 O 0.21222 0.37886 0.11265 0.0
O27 O 0.22763 0.42802 0.03421 0.0
C28 C 0.21024 0.34234 0.1145 0.0
H29 H 0.35454 0.39573 0.09312 0.0
H30 H 0.07878 0.36202 1.00963 0.0
H31 H 0.2804 0.37771 0.89327 0.0
H32 H 0.21659 0.27756 0.92434 0.0
Co33 Co 0.65624 0.21946 0.04762 0.0
C34 C 0.691 0.29563 0.04749 0.0
C35 C 0.63771 0.29408 0.08199 0.0
C36 C 0.6511 0.33027 0.08321 0.0
N37 N 0.66252 0.27251 0.05933 0.0
N38 N 0.68457 0.3313 0.0615 0.0
H39 H 0.71568 0.28651 0.02893 0.0
H40 H 0.61148 0.28419 0.0963 0.0
C41 C 0.57924 0.22281 1.00363 0.0
O42 O 0.59141 0.20631 0.96649 0.0
N43 N 0.64822 0.16561 0.03801 0.0
C44 C 0.67379 0.1378 0.03316 0.0
C45 C 0.65532 0.10366 0.03124 0.0
C46 C 0.61487 0.14745 0.04153 0.0
N47 N 0.6181 0.10983 0.03625 0.0
C48 C 0.69947 0.20944 0.96599 0.0
C49 C 0.67012 0.27047 0.92012 0.0
C50 C 0.70143 0.25189 0.90151 0.0
C51 C 0.71522 0.2202 0.92453 0.0
C52 C 0.65463 0.25819 0.96123 0.0
N53 N 0.66953 0.2282 0.98408 0.0
H54 H 0.71315 0.18749 0.98471 0.0
H55 H 0.63219 0.27454 0.97621 0.0
H56 H 0.70394 0.14147 0.03303 0.0
H57 H 0.58881 0.16111 0.05046 0.0
O58 O 0.70616 0.21082 0.07148 0.0
O59 O 0.6537 0.21138 0.11227 0.0
O60 O 0.60132 0.22928 0.03684 0.0
C61 C 0.69029 0.20947 0.11133 0.0
H62 H 0.63675 0.35414 0.09808 0.0
H63 H 0.66849 0.07644 0.02701 0.0
H64 H 0.65875 0.29556 0.90453 0.0
H65 H 0.73894 0.20438 0.91158 0.0
Co66 Co 0.809 0.65851 0.04848 0.0
C67 C 0.73262 0.69249 0.04453 0.0
C68 C 0.73558 0.64523 0.08985 0.0
C69 C 0.69945 0.659 0.09047 0.0
N70 N 0.75623 0.66609 0.06095 0.0
N71 N 0.69767 0.68846 0.06177 0.0
H72 H 0.74067 0.71393 1.02031 0.0
H73 H 0.74609 0.62145 0.10889 0.0
C74 C 0.80571 0.58068 1.00713 0.0
O75 O 0.82337 0.5921 0.97044 0.0
N76 N 0.86259 0.64945 0.03826 0.0
C77 C 0.89047 0.6744 0.03035 0.0
C78 C 0.92445 0.65561 0.02956 0.0
C79 C 0.88056 0.6163 0.04465 0.0
N80 N 0.91813 0.61891 0.03833 0.0
C81 C 0.81781 0.70068 0.96577 0.0
C82 C 0.75809 0.66829 0.92019 0.0
C83 C 0.77645 0.69914 0.90068 0.0
C84 C 0.80716 0.71485 0.92346 0.0
C85 C 0.77034 0.65427 0.96202 0.0
N86 N 0.79983 0.67053 0.98461 0.0
H87 H 0.83882 0.71577 0.98453 0.0
H88 H 0.75433 0.63193 0.97768 0.0
H89 H 0.88709 0.70447 0.02755 0.0
H90 H 0.86677 0.591 0.05618 0.0
O91 O 0.81871 0.70876 0.07115 0.0
O92 O 0.81788 0.65696 0.11297 0.0
O93 O 0.79819 0.6035 0.03938 0.0
C94 C 0.82037 0.69348 0.11129 0.0
H95 H 0.67599 0.64758 0.10946 0.0
H96 H 0.95168 0.66827 0.02353 0.0
H97 H 0.73387 0.65575 0.90382 0.0
H98 H 0.82141 0.73936 0.90994 0.0
Co99 Co 0.36975 0.81098 0.03973 0.0
C100 C 0.33594 0.73319 0.03672 0.0
C101 C 0.38712 0.73646 0.07487 0.0
C102 C 0.37461 0.69995 0.07578 0.0
N103 N 0.3633 0.75732 0.04978 0.0
N104 N 0.34241 0.69786 0.05176 0.0
H105 H 0.31129 0.74099 1.01784 0.0
H106 H 0.41227 0.74712 0.09102 0.0
C107 C 0.43813 0.77426 0.99918 0.0
O108 O 0.41667 0.74833 0.98072 0.0
N109 N 0.37779 0.86419 0.03121 0.0
C110 C 0.35431 0.8898 1.01319 0.0
C111 C 0.37287 0.92391 1.01095 0.0
C112 C 0.40998 0.8829 0.04008 0.0
N113 N 0.40793 0.91948 0.02784 0.0
C114 C 0.31214 0.80228 0.97312 0.0
C115 C 0.35752 0.79915 0.89716 0.0
C116 C 0.31952 0.78882 0.89321 0.0
C117 C 0.29646 0.79254 0.93149 0.0
C118 C 0.37207 0.80906 0.93983 0.0
N119 N 0.35004 0.80703 0.97785 0.0
H120 H 0.29373 0.80354 1.00218 0.0
H121 H 0.4012 0.81728 0.94214 0.0
H122 H 0.32599 0.88397 1.00182 0.0
H123 H 0.4348 0.86963 0.05397 0.0
O124 O 0.32307 0.82053 0.07152 0.0
O125 O 0.37882 0.81648 0.10429 0.0
O126 O 0.42346 0.80182 1.02072 0.0
C127 C 0.34258 0.8202 0.10873 0.0
H128 H 0.38859 0.6767 0.09236 0.0
H129 H 0.3614 0.9499 0.99782 0.0
H130 H 0.37616 0.79824 0.86808 0.0
H131 H 0.26655 0.78694 0.92968 0.0
Co132 Co 0.71595 0.86559 0.54834 0.0
C133 C 0.79333 0.83067 0.54413 0.0
C134 C 0.78936 0.87775 0.58943 0.0
C135 C 0.82552 0.8643 0.59068 0.0
N136 N 0.7691 0.85699 0.55994 0.0
N137 N 0.82799 0.83476 0.56213 0.0
H138 H 0.78624 0.8085 0.52083 0.0
H139 H 0.77854 0.90147 0.60842 0.0
C140 C 0.75615 0.93387 0.51377 0.0
O141 O 0.78136 0.91165 0.49509 0.0
N142 N 0.66321 0.87554 0.53851 0.0
C143 C 0.63693 0.85247 0.52105 0.0
C144 C 0.60323 0.87178 0.51901 0.0
C145 C 0.64534 0.9083 0.547 0.0
N146 N 0.60862 0.90697 0.5352 0.0
C147 C 0.72531 0.81155 0.47731 0.0
C148 C 0.73007 0.86086 0.40523 0.0
C149 C 0.74037 0.82311 0.39858 0.0
C150 C 0.73587 0.79808 0.43479 0.0
C151 C 0.71959 0.8732 0.44881 0.0
N152 N 0.72092 0.84917 0.48504 0.0
H153 H 0.72345 0.79163 0.50479 0.0
H154 H 0.71159 0.90224 0.45333 0.0
H155 H 0.64202 0.82388 0.51002 0.0
H156 H 0.65901 0.93258 0.56175 0.0
O157 O 0.70462 0.8175 0.57565 0.0
O158 O 0.7087 0.87103 0.61349 0.0
O159 O 0.72746 0.91993 0.53388 0.0
C160 C 0.7045 0.83464 0.61457 0.0
H161 H 0.84843 0.87592 0.61038 0.0
H162 H 0.57707 0.86097 0.50553 0.0
H163 H 0.73153 0.8809 0.37763 0.0
H164 H 0.74159 0.76833 0.43068 0.0
Co165 Co 0.15726 0.71801 0.54025 0.0
C166 C 0.1908 0.79467 0.53104 0.0
C167 C 0.14167 0.79323 0.57365 0.0
C168 C 0.15303 0.82992 0.5693 0.0
N169 N 0.165 0.77121 0.54933 0.0
N170 N 0.1837 0.83083 0.54232 0.0
H171 H 0.2132 0.7858 0.50855 0.0
H172 H 0.11742 0.78328 0.59233 0.0
C173 C 0.07847 0.71725 0.49962 0.0
O174 O 0.08671 0.6906 0.4703 0.0
N175 N 0.14763 0.6644 0.53264 0.0
C176 C 0.16945 0.63735 0.51417 0.0
C177 C 0.15009 0.60371 0.51495 0.0
C178 C 0.1159 0.64637 0.54575 0.0
N179 N 0.1162 0.60951 0.53439 0.0
C180 C 0.20801 0.71183 0.46538 0.0
C181 C 0.16939 0.75809 0.40632 0.0
C182 C 0.20583 0.74646 0.39484 0.0
C183 C 0.22485 0.72248 0.42458 0.0
C184 C 0.15366 0.74715 0.44789 0.0
N185 N 0.17282 0.72401 0.47695 0.0
H186 H 0.2247 0.69593 0.48904 0.0
H187 H 0.12749 0.76 0.45787 0.0
H188 H 0.19737 0.64119 0.50077 0.0
H189 H 0.09273 0.66018 0.56283 0.0
O190 O 0.20592 0.70823 0.56702 0.0
O191 O 0.15245 0.71219 0.60528 0.0
O192 O 0.10316 0.72979 0.52711 0.0
C193 C 0.18889 0.70869 0.6061 0.0
H194 H 0.13953 0.85419 0.58446 0.0
H195 H 0.15985 0.57729 0.50095 0.0
H196 H 0.15416 0.77748 0.38476 0.0
H197 H 0.2532 0.71311 0.41715 0.0
Co198 Co 0.3102 0.15744 0.54887 0.0
C199 C 0.23337 0.19102 0.54491 0.0
C200 C 0.23735 0.1446 0.59134 0.0
C201 C 0.20122 0.15822 0.59262 0.0
N202 N 0.25748 0.16517 0.56159 0.0
N203 N 0.19879 0.18722 0.56335 0.0
H204 H 0.24083 0.21223 0.52016 0.0
H205 H 0.24826 0.12118 0.6107 0.0
C206 C 0.30934 0.07995 0.50512 0.0
O207 O 0.33417 0.08982 0.47425 0.0
N208 N 0.36344 0.14816 0.53773 0.0
C209 C 0.38967 0.17126 0.51998 0.0
C210 C 0.42361 0.15256 0.51843 0.0
C211 C 0.38232 0.11629 0.54833 0.0
N212 N 0.41896 0.11775 0.53587 0.0
C213 C 0.31402 0.20909 0.47431 0.0
C214 C 0.26785 0.17004 0.41552 0.0
C215 C 0.28074 0.2058 0.40246 0.0
C216 C 0.30419 0.22523 0.43277 0.0
C217 C 0.27796 0.15511 0.45778 0.0
N218 N 0.3017 0.17409 0.4863 0.0
H219 H 0.32981 0.22598 0.49792 0.0
H220 H 0.26469 0.12929 0.46824 0.0
H221 H 0.38519 0.19989 0.50938 0.0
H222 H 0.36911 0.09215 0.56398 0.0
O223 O 0.32129 0.20562 0.57687 0.0
O224 O 0.31868 0.15126 0.61323 0.0
O225 O 0.29786 0.10355 0.53474 0.0
C226 C 0.32229 0.18765 0.61531 0.0
H227 H 0.17822 0.14714 0.6127 0.0
H228 H 0.44975 0.16409 0.50575 0.0
H229 H 0.24936 0.15388 0.39383 0.0
H230 H 0.31364 0.25357 0.42562 0.0
Co231 Co 0.86831 0.31061 0.54662 0.0
C232 C 0.83866 0.23068 0.54211 0.0
C233 C 0.88093 0.23939 0.59285 0.0
C234 C 0.8694 0.20258 0.595 0.0
N235 N 0.86162 0.25729 0.55989 0.0
N236 N 0.84293 0.19717 0.56306 0.0
H237 H 0.81904 0.23506 0.51487 0.0
H238 H 0.90231 0.25225 0.61382 0.0
C239 C 0.93717 0.27212 0.5114 0.0
O240 O 0.91553 0.24604 0.4936 0.0
N241 N 0.87663 0.36349 0.53532 0.0
C242 C 0.85291 0.3888 0.51718 0.0
C243 C 0.87113 0.4231 0.51482 0.0
C244 C 0.90865 0.38256 0.54401 0.0
N245 N 0.90628 0.41916 0.53169 0.0
C246 C 0.81349 0.29879 0.4775 0.0
C247 C 0.86081 0.29972 0.40314 0.0
C248 C 0.82268 0.29084 0.39677 0.0
C249 C 0.79888 0.29145 0.43463 0.0
C250 C 0.87429 0.30739 0.44701 0.0
N251 N 0.85113 0.30424 0.48396 0.0
H252 H 0.79441 0.29799 0.50595 0.0
H253 H 0.9033 0.31563 0.45097 0.0
H254 H 0.82451 0.38273 0.5063 0.0
H255 H 0.93341 0.36958 0.55839 0.0
O256 O 0.82027 0.32108 0.57455 0.0
O257 O 0.8743 0.31944 0.61142 0.0
O258 O 0.92263 0.30058 0.53129 0.0
C259 C 0.83784 0.32269 0.61306 0.0
H260 H 0.88018 0.18121 0.61767 0.0
H261 H 0.85916 0.44894 0.50193 0.0
H262 H 0.87994 0.30098 0.37453 0.0
H263 H 0.76922 0.28498 0.43157 0.0
H264 H 0.5394 0.22463 0.0817 0.0
H265 H 0.52924 0.24449 0.93772 0.0
H266 H 0.47643 0.24912 0.09367 0.0
H267 H 0.46616 0.2707 0.94986 0.0
H268 H 0.34329 0.29783 0.9885 0.0
H269 H 0.40055 0.26146 0.9738 0.0
H270 H 0.45222 0.31141 0.09209 0.0
H271 H 0.39503 0.34593 0.10775 0.0
C272 C 0.52354 0.23419 0.05253 0.0
C273 C 0.53935 0.23327 1.00887 0.0
C274 C 0.48749 0.24839 0.0594 0.0
C275 C 0.46657 0.26273 0.02289 0.0
C276 C 0.48152 0.25983 0.97871 0.0
C277 C 0.51763 0.24497 0.97173 0.0
C278 C 0.36672 0.30048 1.0117 0.0
C279 C 0.3646 0.32487 0.04929 0.0
C280 C 0.39964 0.27997 1.00299 0.0
C281 C 0.43093 0.28333 0.03187 0.0
C282 C 0.4285 0.30752 0.06954 0.0
C283 C 0.39579 0.32783 0.07822 0.0
H284 H 0.73425 0.34368 0.99262 0.0
H285 H 0.68656 0.39402 0.11317 0.0
H286 H 0.76999 0.40138 0.97841 0.0
H287 H 0.72015 0.45172 0.09784 0.0
H288 H 0.80343 0.54205 0.08596 0.0
H289 H 0.78053 0.47856 0.09861 0.0
H290 H 0.76039 0.46602 0.95469 0.0
H291 H 0.78531 0.52949 0.94194 0.0
C292 C 0.73158 0.36688 1.01623 0.0
C293 C 0.70739 0.36426 0.05396 0.0
C294 C 0.75171 0.40009 1.0078 0.0
C295 C 0.74808 0.43124 0.03701 0.0
C296 C 0.72428 0.42819 0.07499 0.0
C297 C 0.70446 0.39516 0.08347 0.0
C298 C 0.79448 0.52557 0.05696 0.0
C299 C 0.79552 0.5408 1.01306 0.0
C300 C 0.78117 0.48922 0.0642 0.0
C301 C 0.76774 0.46743 0.02783 0.0
C302 C 0.77061 0.48197 0.98348 0.0
C303 C 0.78468 0.51832 0.97613 0.0
H304 H 0.64301 0.71153 0.11824 0.0
H305 H 0.67672 0.71 0.97759 0.0
H306 H 0.5826 0.7392 0.09711 0.0
H307 H 0.61578 0.73731 0.95606 0.0
H308 H 0.48919 0.81406 0.04894 0.0
H309 H 0.55556 0.79959 0.05993 0.0
H310 H 0.54728 0.70897 0.96289 0.0
H311 H 0.48056 0.72305 0.95201 0.0
C312 C 0.63752 0.71762 0.08286 0.0
C313 C 0.66428 0.7087 0.04953 0.0
C314 C 0.60316 0.7336 0.07076 0.0
C315 C 0.59462 0.74036 0.02496 0.0
C316 C 0.62175 0.73232 0.99159 0.0
C317 C 0.65655 0.71699 1.00387 0.0
C318 C 0.50157 0.79147 0.02925 0.0
C319 C 0.47945 0.76937 0.99998 0.0
C320 C 0.53957 0.78319 0.03568 0.0
C321 C 0.55637 0.75305 1.01249 0.0
C322 C 0.53499 0.73251 0.98098 0.0
C323 C 0.49678 0.74045 0.97497 0.0
H324 H 0.21861 0.49075 0.08047 0.0
H325 H 0.23641 0.49954 0.93599 0.0
H326 H 0.24382 0.55365 0.09109 0.0
H327 H 0.26362 0.56242 0.94664 0.0
H328 H 0.29349 0.68494 0.9823 0.0
H329 H 0.25664 0.62794 0.96904 0.0
H330 H 0.30554 0.57777 0.08876 0.0
H331 H 0.34032 0.6349 0.1033 0.0
C332 C 0.22781 0.5064 0.0509 0.0
C333 C 0.22605 0.49029 1.00749 0.0
C334 C 0.24252 0.54234 0.05698 0.0
C335 C 0.2567 0.56277 1.01989 0.0
C336 C 0.25292 0.54749 0.97595 0.0
C337 C 0.23743 0.51153 0.96978 0.0
C338 C 0.29585 0.66196 1.00619 0.0
C339 C 0.31995 0.66463 0.04395 0.0
C340 C 0.27503 0.62911 0.99826 0.0
C341 C 0.27787 0.59829 0.02795 0.0
C342 C 0.30196 0.60114 0.06561 0.0
C343 C 0.32248 0.63385 0.07363 0.0
H344 H 0.05943 0.78471 0.53534 0.0
H345 H 1.01136 0.68697 0.4701 0.0
H346 H 0.99707 0.8099 0.54838 0.0
H347 H 0.948 0.71255 0.48361 0.0
H348 H 0.84529 0.79931 0.48296 0.0
H349 H 0.90483 0.76824 0.46404 0.0
H350 H 0.94532 0.7905 0.59954 0.0
H351 H 0.88622 0.82123 0.61836 0.0
C352 C 0.03547 0.76856 0.52369 0.0
C353 C 0.0403 0.73356 0.50225 0.0
C354 C 0.99968 0.78299 0.53134 0.0
C355 C 0.96765 0.76282 0.51791 0.0
C356 C 0.97228 0.72861 0.49444 0.0
C357 C 1.00844 0.71403 0.48667 0.0
C358 C 0.86671 0.79698 0.50886 0.0
C359 C 0.86131 0.81325 0.55198 0.0
C360 C 0.90076 0.77922 0.498 0.0
C361 C 0.92991 0.77754 0.53007 0.0
C362 C 0.92368 0.79217 0.57377 0.0
C363 C 0.88985 0.80984 0.58455 0.0
H364 H 0.25047 0.05601 0.55611 0.0
H365 H 0.32997 0.01755 0.45496 0.0
H366 H 0.22193 0.99436 0.55806 0.0
H367 H 0.30055 0.95491 0.45677 0.0
H368 H 0.25861 0.83996 0.52818 0.0
H369 H 0.29104 0.89974 0.51267 0.0
H370 H 0.18362 0.95614 0.50564 0.0
H371 H 0.15172 0.89705 0.52154 0.0
C372 C 0.26188 0.03441 0.53409 0.0
C373 C 0.29249 0.04185 0.50521 0.0
C374 C 0.24525 0.99903 0.53502 0.0
C375 C 0.25867 0.96992 0.50714 0.0
C376 C 0.28964 0.9769 0.47858 0.0
C377 C 0.30631 1.01272 0.47742 0.0
C378 C 0.24213 0.86512 0.52251 0.0
C379 C 0.20278 0.86421 0.52713 0.0
C380 C 0.26059 0.89922 0.51354 0.0
C381 C 0.23984 0.93269 0.50886 0.0
C382 C 0.20039 0.93099 0.51023 0.0
C383 C 0.18212 0.89721 0.51943 0.0
H384 H 0.17497 0.20845 0.48016 0.0
H385 H 0.14657 0.21141 0.62244 0.0
H386 H 0.11333 0.23578 0.46164 0.0
H387 H 0.08549 0.23898 0.60432 0.0
H388 H 0.98893 0.31181 0.56033 0.0
H389 H 0.0558 0.29803 0.56873 0.0
H390 H 0.0459 0.20759 0.47163 0.0
H391 H 0.97885 0.22103 0.46333 0.0
C392 C 0.15583 0.21577 0.5074 0.0
C393 C 0.16521 0.20779 0.55267 0.0
C394 C 0.12063 0.23112 0.49687 0.0
C395 C 0.09473 0.23946 0.53157 0.0
C396 C 0.10503 0.23316 0.57694 0.0
C397 C 0.13979 0.2172 0.58732 0.0
C398 C 1.00108 0.28938 0.54016 0.0
C399 C 0.97848 0.26719 0.51156 0.0
C400 C 0.03934 0.2815 0.54508 0.0
C401 C 0.0559 0.25166 0.52101 0.0
C402 C 0.03387 0.23093 0.49035 0.0
C403 C 0.99545 0.23847 0.48586 0.0
H404 H 0.82394 0.17023 0.48025 0.0
H405 H 0.8201 0.1451 0.62337 0.0
H406 H 0.79725 0.10803 0.46338 0.0
H407 H 0.79342 0.0833 0.60677 0.0
H408 H 0.71892 0.98659 0.56435 0.0
H409 H 0.73469 0.05309 0.57281 0.0
H410 H 0.82342 0.04085 0.47372 0.0
H411 H 0.80793 0.97425 0.46532 0.0
C412 C 0.81681 0.15162 0.50803 0.0
C413 C 0.82421 0.16226 0.55308 0.0
C414 C 0.80179 0.11606 0.49842 0.0
C415 C 0.79326 0.09091 0.53379 0.0
C416 C 0.79939 0.10222 0.57886 0.0
C417 C 0.81493 0.1374 0.58837 0.0
C418 C 0.74144 0.99816 0.54384 0.0
C419 C 0.76245 0.97503 0.5145 0.0
C420 C 0.75051 0.0362 0.54883 0.0
C421 C 0.7804 0.05202 0.52413 0.0
C422 C 0.80008 0.02943 0.49298 0.0
C423 C 0.79134 0.99125 0.4884 0.0
H424 H 0.32066 0.25407 0.34755 0.0
H425 H 0.21258 0.19874 0.35811 0.0
H426 H 0.2991 0.28704 0.28006 0.0
H427 H 0.1921 0.23042 0.28887 0.0
H428 H 0.19912 0.26719 0.13111 0.0
H429 H 0.21378 0.23287 0.20114 0.0
H430 H 0.24526 0.33714 0.26581 0.0
H431 H 0.22996 0.3715 0.19657 0.0
C432 C 0.29231 0.24887 0.33576 0.0
C433 C 0.26839 0.22378 0.35897 0.0
C434 C 0.28007 0.2677 0.29684 0.0
C435 C 0.24386 0.26146 0.27946 0.0
C436 C 0.22022 0.23562 0.30151 0.0
C437 C 0.23219 0.21725 0.34104 0.0
C438 C 0.20841 0.28284 0.1606 0.0
C439 C 0.21332 0.32207 0.1583 0.0
C440 C 0.21682 0.2632 0.2006 0.0
C441 C 0.23102 0.28235 0.23866 0.0
C442 C 0.2347 0.32166 0.2368 0.0
C443 C 0.22563 0.34134 0.19723 0.0
H444 H 0.76659 0.21804 0.11945 0.0
H445 H 0.6644 0.21102 0.19851 0.0
H446 H 0.80121 0.23719 0.18727 0.0
H447 H 0.69902 0.2296 0.26618 0.0
H448 H 0.7566 0.31351 0.35848 0.0
H449 H 0.72686 0.28946 0.29006 0.0
H450 H 0.82355 0.21904 0.26424 0.0
H451 H 0.85346 0.24321 0.33329 0.0
C452 C 0.75169 0.21967 0.15149 0.0
C453 C 0.71266 0.21323 0.1535 0.0
C454 C 0.77155 0.23071 0.19035 0.0
C455 C 0.75275 0.23564 0.23196 0.0
C456 C 0.71419 0.22694 0.23442 0.0
C457 C 0.69439 0.21588 0.19569 0.0
C458 C 0.7716 0.29293 0.33823 0.0
C459 C 0.80724 0.27996 0.35166 0.0
C460 C 0.75445 0.27898 0.2991 0.0
C461 C 0.77246 0.2517 0.27217 0.0
C462 C 0.8089 0.23998 0.2843 0.0
C463 C 0.82611 0.25396 0.3237 0.0
H464 H 0.82341 0.6688 0.19871 0.0
H465 H 0.80979 0.76964 0.11876 0.0
H466 H 0.80756 0.70377 0.26701 0.0
H467 H 0.79453 0.80505 0.1876 0.0
H468 H 0.71695 0.83668 0.31101 0.0
H469 H 0.742 0.80877 0.24113 0.0
H470 H 0.82744 0.75158 0.31908 0.0
H471 H 0.80213 0.77889 0.38845 0.0
C472 C 0.81792 0.69868 0.19584 0.0
C473 C 0.81789 0.71639 0.15325 0.0
C474 C 0.80886 0.71884 0.23512 0.0
C475 C 0.79951 0.75728 0.2329 0.0
C476 C 0.80106 0.77539 0.19048 0.0
C477 C 0.81025 0.75518 0.1511 0.0
C478 C 0.74134 0.8185 0.31299 0.0
C479 C 0.75712 0.80944 0.35527 0.0
C480 C 0.75581 0.80258 0.27298 0.0
C481 C 0.78652 0.77751 0.27448 0.0
C482 C 0.80327 0.77001 0.31667 0.0
C483 C 0.78875 0.78569 0.35647 0.0
H484 H 0.26957 0.83692 0.12926 0.0
H485 H 0.37272 0.79635 0.18873 0.0
H486 H 0.23617 0.82359 0.19978 0.0
H487 H 0.33926 0.78132 0.25843 0.0
H488 H 0.27549 0.77803 0.39037 0.0
H489 H 0.30834 0.80193 0.32377 0.0
H490 H 0.21305 0.77167 0.24024 0.0
H491 H 0.17976 0.74929 0.30756 0.0
C492 C 0.28518 0.82551 0.15763 0.0
C493 C 0.32378 0.81776 0.15348 0.0
C494 C 0.26595 0.81741 0.19794 0.0
C495 C 0.28474 0.80084 0.23489 0.0
C496 C 0.32376 0.79448 0.23114 0.0
C497 C 0.34306 0.80307 0.19104 0.0
C498 C 0.26164 0.77652 0.35769 0.0
C499 C 0.22522 0.76148 0.35401 0.0
C500 C 0.2805 0.79014 0.31941 0.0
C501 C 0.26362 0.78862 0.27627 0.0
C502 C 0.22685 0.77397 0.27284 0.0
C503 C 0.20778 0.76085 0.31134 0.0
H504 H 0.71895 0.75996 0.62402 0.0
H505 H 0.69709 0.86061 0.70205 0.0
H506 H 0.73374 0.72601 0.69369 0.0
H507 H 0.71093 0.82591 0.77219 0.0
H508 H 0.70661 0.72802 0.88509 0.0
H509 H 0.68436 0.76058 0.81655 0.0
H510 H 0.79212 0.74197 0.75285 0.0
H511 H 0.8147 0.71054 0.82175 0.0
C512 C 0.71636 0.77464 0.65611 0.0
C513 C 0.7068 0.81304 0.6575 0.0
C514 C 0.72508 0.75519 0.69593 0.0
C515 C 0.72362 0.77343 0.73812 0.0
C516 C 0.71212 0.81124 0.73997 0.0
C517 C 0.70417 0.83102 0.69992 0.0
C518 C 0.72536 0.73075 0.85625 0.0
C519 C 0.76227 0.71666 0.85841 0.0
C520 C 0.71274 0.74951 0.81731 0.0
C521 C 0.73653 0.75363 0.77955 0.0
C522 C 0.7732 0.73894 0.78148 0.0
C523 C 0.7861 0.72104 0.82076 0.0
H524 H 0.26502 0.715 0.61656 0.0
H525 H 0.16102 0.71169 0.69248 0.0
H526 H 0.29916 0.73114 0.68576 0.0
H527 H 0.19505 0.72814 0.76145 0.0
H528 H 0.27092 0.72992 0.88458 0.0
H529 H 0.24165 0.70569 0.81594 0.0
H530 H 0.30328 0.78681 0.736 0.0
H531 H 0.33259 0.81133 0.80507 0.0
C532 C 0.24952 0.71704 0.64815 0.0
C533 C 0.21028 0.71203 0.64902 0.0
C534 C 0.26905 0.7267 0.6877 0.0
C535 C 0.24982 0.73128 0.72907 0.0
C536 C 0.21081 0.72457 0.73026 0.0
C537 C 0.19126 0.71513 0.69069 0.0
C538 C 0.2781 0.74282 0.85242 0.0
C539 C 0.30368 0.77303 0.85045 0.0
C540 C 0.26136 0.72881 0.81304 0.0
C541 C 0.26986 0.74446 0.7705 0.0
C542 C 0.29637 0.77387 0.76822 0.0
C543 C 0.31314 0.78799 0.80778 0.0
H544 H 0.30258 0.15874 0.69754 0.0
H545 H 0.33494 0.26256 0.6321 0.0
H546 H 0.28707 0.19345 0.76657 0.0
H547 H 0.32001 0.29722 0.70192 0.0
H548 H 0.31811 0.33272 0.85844 0.0
H549 H 0.33992 0.3005 0.78996 0.0
H550 H 0.23321 0.24356 0.77936 0.0
H551 H 0.2104 0.27698 0.84607 0.0
C552 C 0.30729 0.18885 0.6982 0.0
C553 C 0.31999 0.20789 0.65927 0.0
C554 C 0.29808 0.20873 0.73765 0.0
C555 C 0.30198 0.24803 0.7394 0.0
C556 C 0.31678 0.26692 0.70146 0.0
C557 C 0.32537 0.24707 0.66158 0.0
C558 C 0.29887 0.314 0.84112 0.0
C559 C 0.26238 0.30749 0.85833 0.0
C560 C 0.3116 0.29532 0.80204 0.0
C561 C 0.28843 0.26921 0.77975 0.0
C562 C 0.25191 0.26306 0.79638 0.0
C563 C 0.23894 0.28217 0.83482 0.0
H564 H 0.77702 0.24974 0.88122 0.0
H565 H 0.67066 0.28835 0.82764 0.0
H566 H 0.8085 0.27101 0.81319 0.0
H567 H 0.70285 0.31308 0.76139 0.0
H568 H 0.76334 0.30852 0.62444 0.0
H569 H 0.73042 0.29467 0.69442 0.0
H570 H 0.83116 0.32049 0.77055 0.0
H571 H 0.86477 0.33204 0.69959 0.0
C572 C 0.76017 0.26276 0.85502 0.0
C573 C 0.72094 0.26656 0.86004 0.0
C574 C 0.77855 0.27587 0.81614 0.0
C575 C 0.75848 0.29398 0.78132 0.0
C576 C 0.71938 0.29874 0.78688 0.0
C577 C 0.70087 0.28496 0.82543 0.0
C578 C 0.77837 0.31182 0.65615 0.0
C579 C 0.81675 0.32125 0.65642 0.0
C580 C 0.75934 0.304 0.69658 0.0
C581 C 0.77798 0.30603 0.73863 0.0
C582 C 0.81596 0.31759 0.73895 0.0
C583 C 0.83521 0.32473 0.69829 0.0
H584 H 0.90496 0.54394 0.02864 0.0
H585 H 0.99372 0.62456 0.05267 0.0
H586 H 0.95049 0.49308 0.03154 0.0
H587 H 0.03959 0.57368 0.05343 0.0
H588 H 0.10787 0.46997 0.09464 0.0
H589 H 0.06155 0.52054 0.09638 0.0
H590 H 1.00038 0.46661 0.98773 0.0
H591 H 0.04642 0.41609 0.98627 0.0
C592 C 0.93412 0.55095 0.03477 0.0
C593 C 0.94541 0.58864 0.04055 0.0
C594 C 0.96043 0.52167 0.03583 0.0
C595 C 0.9989 0.52911 0.04251 0.0
C596 C 1.01021 0.56674 0.04867 0.0
C597 C 0.98385 0.59607 0.04769 0.0
C598 C 0.08463 0.46892 0.07102 0.0
C599 C 0.08099 0.43872 0.04039 0.0
C600 C 0.05802 0.49804 0.07195 0.0
C601 C 0.02707 0.49782 0.04221 0.0
C602 C 0.02338 0.46751 1.01175 0.0
C603 C 0.04989 0.4384 1.01091 0.0
H604 H 0.5439 0.12262 1.01999 0.0
H605 H 0.62306 0.03433 0.05196 0.0
H606 H 0.49303 0.07712 1.0201 0.0
H607 H 0.57226 0.98839 0.04976 0.0
H608 H 0.46669 0.9212 0.08667 0.0
H609 H 0.51747 0.96721 0.08962 0.0
H610 H 0.46802 0.02661 0.97662 0.0
H611 H 0.4171 0.98087 0.97414 0.0
C612 C 0.55059 0.09356 0.02723 0.0
C613 C 0.58787 0.08243 0.03624 0.0
C614 C 0.52132 0.06724 0.02664 0.0
C615 C 0.52836 0.02889 0.03476 0.0
C616 C 0.56559 0.0177 0.04385 0.0
C617 C 0.59491 0.04409 0.04459 0.0
C618 C 0.46672 0.94397 0.06231 0.0
C619 C 0.43766 0.94725 0.03018 0.0
C620 C 0.49596 0.97038 0.06393 0.0
C621 C 0.49704 1.00077 0.03335 0.0
C622 C 0.4679 1.00405 1.00128 0.0
C623 C 0.4386 0.97773 0.99981 0.0
H624 H 0.48373 0.11176 0.48694 0.0
H625 H 0.41748 0.05484 0.58907 0.0
H626 H 0.52937 0.06104 0.48869 0.0
H627 H 0.46325 1.0038 0.59042 0.0
H628 H 0.5325 0.90098 0.54147 0.0
H629 H 0.48668 0.95213 0.54294 0.0
H630 H 0.57709 0.03314 0.53696 0.0
H631 H 0.62272 0.98214 0.53409 0.0
C632 C 0.47897 0.08877 0.51025 0.0
C633 C 0.44666 0.08782 0.53798 0.0
C634 C 0.50529 0.0595 0.51118 0.0
C635 C 0.50013 0.02825 0.53974 0.0
C636 C 0.46793 0.02719 0.56757 0.0
C637 C 0.44161 0.05659 0.56678 0.0
C638 C 0.54262 0.92968 0.54022 0.0
C639 C 0.58143 0.93727 0.53755 0.0
C640 C 0.51633 0.95906 0.54156 0.0
C641 C 0.52811 0.99685 0.54 0.0
C642 C 0.56692 1.00442 0.53772 0.0
C643 C 0.59318 0.97508 0.53658 0.0
H644 H 0.04124 0.62454 0.53446 0.0
H645 H 0.12145 0.5336 0.54188 0.0
H646 H 0.9897 0.5792 0.53659 0.0
H647 H 0.06999 0.48819 0.54278 0.0
H648 H 0.96808 0.41865 0.58638 0.0
H649 H 0.01825 0.46513 0.58954 0.0
H650 H 0.96164 0.53128 0.48761 0.0
H651 H 0.91155 0.48467 0.48405 0.0
C652 C 0.04793 0.59491 0.53701 0.0
C653 C 0.08561 0.58278 0.53806 0.0
C654 C 0.01833 0.56885 0.53766 0.0
C655 C 0.02559 0.52995 0.53968 0.0
C656 C 0.06326 0.51789 0.54161 0.0
C657 C 0.09284 0.54394 0.54068 0.0
C658 C 0.96629 0.44288 0.56432 0.0
C659 C 0.93554 0.44753 0.53475 0.0
C660 C 0.99518 0.46966 0.56621 0.0
C661 C 0.99414 0.502 0.53877 0.0
C662 C 0.96318 0.507 0.50971 0.0
C663 C 0.93434 0.48014 0.50767 0.0
loop_
_geom_bond_atom_site_label_1
_geom_bond_atom_site_label_2
_geom_bond_distance
_geom_bond_site_symmetry_2
_ccdc_geom_bond_type
Co0 N4 2.148 . S
Co0 N10 2.128 . S
Co0 N20 2.194 1_554 S
Co0 O25 2.351 . S
Co0 O26 2.155 . S
Co0 O27 2.096 . S
C1 N4 1.301 . S
C1 N5 1.328 . S
C1 H6 0.930 . S
C2 C3 1.333 . S
C2 N4 1.317 . S
C2 H7 0.930 . S
C3 C2 1.333 . S
C3 N5 1.350 . S
C3 H29 0.931 . S
N4 Co0 2.148 . S
N4 C1 1.301 . S
N4 C2 1.317 . S
N5 C1 1.328 . S
N5 C3 1.350 . S
H6 C1 0.930 . S
H7 C2 0.930 . S
C8 O9 1.224 1_554 S
C8 O27 1.247 . S
O9 C8 1.224 1_556 S
N10 Co0 2.128 . S
N10 C11 1.355 . S
N10 C13 1.311 . S
C11 N10 1.355 . S
C11 C12 1.363 1_554 S
C11 H23 0.929 1_554 S
C12 C11 1.363 1_556 S
C12 N14 1.375 1_556 S
C12 H30 0.931 . S
C13 N10 1.311 . S
C13 N14 1.347 . S
C13 H24 0.929 . S
N14 C12 1.375 1_554 S
N14 C13 1.347 . S
C15 C18 1.365 . S
C15 N20 1.328 . S
C15 H21 0.929 . S
C16 C17 1.362 . S
C16 C19 1.378 . S
C16 H31 0.929 . S
C17 C16 1.362 . S
C17 C18 1.366 . S
C18 C15 1.365 . S
C18 C17 1.366 . S
C18 H32 0.930 . S
C19 C16 1.378 . S
C19 N20 1.315 . S
C19 H22 0.930 . S
N20 Co0 2.194 1_556 S
N20 C15 1.328 . S
N20 C19 1.315 . S
H21 C15 0.929 . S
H22 C19 0.930 . S
H23 C11 0.929 1_556 S
H24 C13 0.929 . S
O25 Co0 2.351 . S
O25 C28 1.244 . S
O26 Co0 2.155 . S
O26 C28 1.240 . S
O27 Co0 2.096 . S
O27 C8 1.247 . S
C28 O25 1.244 . S
C28 O26 1.240 . S
H29 C3 0.931 . S
H30 C12 0.931 . S
H31 C16 0.929 . S
H32 C18 0.930 . S
Co33 N37 2.148 . S
Co33 N43 2.128 . S
Co33 N53 2.194 1_554 S
Co33 O58 2.351 . S
Co33 O59 2.155 . S
Co33 O60 2.096 . S
C34 N37 1.301 . S
C34 N38 1.328 . S
C34 H39 0.930 . S
C35 C36 1.333 . S
C35 N37 1.317 . S
C35 H40 0.930 . S
C36 C35 1.333 . S
C36 N38 1.350 . S
C36 H62 0.931 . S
N37 Co33 2.148 . S
N37 C34 1.301 . S
N37 C35 1.317 . S
N38 C34 1.328 . S
N38 C36 1.350 . S
H39 C34 0.930 . S
H40 C35 0.930 . S
C41 O42 1.224 1_554 S
C41 O60 1.247 . S
O42 C41 1.224 1_556 S
N43 Co33 2.128 . S
N43 C44 1.355 . S
N43 C46 1.311 . S
C44 N43 1.355 . S
C44 C45 1.363 1_554 S
C44 H56 0.929 1_554 S
C45 C44 1.363 1_556 S
C45 N47 1.375 1_556 S
C45 H63 0.931 . S
C46 N43 1.311 . S
C46 N47 1.347 . S
C46 H57 0.929 . S
N47 C45 1.375 1_554 S
N47 C46 1.347 . S
C48 C51 1.365 . S
C48 N53 1.328 . S
C48 H54 0.929 . S
C49 C50 1.362 . S
C49 C52 1.378 . S
C49 H64 0.929 . S
C50 C49 1.362 . S
C50 C51 1.366 . S
C51 C48 1.365 . S
C51 C50 1.366 . S
C51 H65 0.930 . S
C52 C49 1.378 . S
C52 N53 1.315 . S
C52 H55 0.930 . S
N53 Co33 2.194 1_556 S
N53 C48 1.328 . S
N53 C52 1.315 . S
H54 C48 0.929 . S
H55 C52 0.930 . S
H56 C44 0.929 1_556 S
H57 C46 0.929 . S
O58 Co33 2.351 . S
O58 C61 1.244 . S
O59 Co33 2.155 . S
O59 C61 1.240 . S
O60 Co33 2.096 . S
O60 C41 1.247 . S
C61 O58 1.244 . S
C61 O59 1.240 . S
H62 C36 0.931 . S
H63 C45 0.931 . S
H64 C49 0.929 . S
H65 C51 0.930 . S
Co66 N70 2.148 . S
Co66 N76 2.128 . S
Co66 N86 2.194 1_554 S
Co66 O91 2.351 . S
Co66 O92 2.155 . S
Co66 O93 2.096 . S
C67 N70 1.301 . S
C67 N71 1.328 . S
C67 H72 0.930 . S
C68 C69 1.333 . S
C68 N70 1.317 . S
C68 H73 0.930 . S
C69 C68 1.333 . S
C69 N71 1.350 . S
C69 H95 0.931 . S
N70 Co66 2.148 . S
N70 C67 1.301 . S
N70 C68 1.317 . S
N71 C67 1.328 . S
N71 C69 1.350 . S
H72 C67 0.930 . S
H73 C68 0.930 . S
C74 O75 1.224 1_554 S
C74 O93 1.247 . S
O75 C74 1.224 1_556 S
N76 Co66 2.128 . S
N76 C77 1.355 . S
N76 C79 1.311 . S
C77 N76 1.355 . S
C77 C78 1.363 1_554 S
C77 H89 0.929 1_554 S
C78 C77 1.363 1_556 S
C78 N80 1.375 1_556 S
C78 H96 0.931 . S
C79 N76 1.311 . S
C79 N80 1.347 . S
C79 H90 0.929 . S
N80 C78 1.375 1_554 S
N80 C79 1.347 . S
C81 C84 1.365 . S
C81 N86 1.328 . S
C81 H87 0.929 . S
C82 C83 1.362 . S
C82 C85 1.378 . S
C82 H97 0.929 . S
C83 C82 1.362 . S
C83 C84 1.366 . S
C84 C81 1.365 . S
C84 C83 1.366 . S
C84 H98 0.930 . S
C85 C82 1.378 . S
C85 N86 1.315 . S
C85 H88 0.930 . S
N86 Co66 2.194 1_556 S
N86 C81 1.328 . S
N86 C85 1.315 . S
H87 C81 0.929 . S
H88 C85 0.930 . S
H89 C77 0.929 1_556 S
H90 C79 0.929 . S
O91 Co66 2.351 . S
O91 C94 1.244 . S
O92 Co66 2.155 . S
O92 C94 1.240 . S
O93 Co66 2.096 . S
O93 C74 1.247 . S
C94 O91 1.244 . S
C94 O92 1.240 . S
H95 C69 0.931 . S
H96 C78 0.931 . S
H97 C82 0.929 . S
H98 C84 0.930 . S
Co99 N103 2.148 . S
Co99 N109 2.128 . S
Co99 N119 2.194 1_554 S
Co99 O124 2.351 . S
Co99 O125 2.155 . S
Co99 O126 2.096 . S
C100 N103 1.301 . S
C100 N104 1.328 . S
C100 H105 0.930 . S
C101 C102 1.333 . S
C101 N103 1.317 . S
C101 H106 0.930 . S
C102 C101 1.333 . S
C102 N104 1.350 . S
C102 H128 0.931 . S
N103 Co99 2.148 . S
N103 C100 1.301 . S
N103 C101 1.317 . S
N104 C100 1.328 . S
N104 C102 1.350 . S
H105 C100 0.930 . S
H106 C101 0.930 . S
C107 O108 1.224 1_554 S
C107 O126 1.247 . S
O108 C107 1.224 1_556 S
N109 Co99 2.128 . S
N109 C110 1.355 . S
N109 C112 1.311 . S
C110 N109 1.355 . S
C110 C111 1.363 1_554 S
C110 H122 0.929 1_554 S
C111 C110 1.363 1_556 S
C111 N113 1.375 1_556 S
C111 H129 0.931 . S
C112 N109 1.311 . S
C112 N113 1.347 . S
C112 H123 0.929 . S
N113 C111 1.375 1_554 S
N113 C112 1.347 . S
C114 C117 1.365 . S
C114 N119 1.328 . S
C114 H120 0.929 . S
C115 C116 1.362 . S
C115 C118 1.378 . S
C115 H130 0.929 . S
C116 C115 1.362 . S
C116 C117 1.366 . S
C117 C114 1.365 . S
C117 C116 1.366 . S
C117 H131 0.930 . S
C118 C115 1.378 . S
C118 N119 1.315 . S
C118 H121 0.930 . S
N119 Co99 2.194 1_556 S
N119 C114 1.328 . S
N119 C118 1.315 . S
H120 C114 0.929 . S
H121 C118 0.930 . S
H122 C110 0.929 1_556 S
H123 C112 0.929 . S
O124 Co99 2.351 . S
O124 C127 1.244 . S
O125 Co99 2.155 . S
O125 C127 1.240 . S
O126 Co99 2.096 . S
O126 C107 1.247 . S
C127 O124 1.244 . S
C127 O125 1.240 . S
H128 C102 0.931 . S
H129 C111 0.931 . S
H130 C115 0.929 . S
H131 C117 0.930 . S
Co132 N136 2.148 . S
Co132 N142 2.128 . S
Co132 N152 2.194 . S
Co132 O157 2.351 . S
Co132 O158 2.155 . S
Co132 O159 2.096 . S
C133 N136 1.301 . S
C133 N137 1.328 . S
C133 H138 0.930 . S
C134 C135 1.333 . S
C134 N136 1.317 . S
C134 H139 0.930 . S
C135 C134 1.333 . S
C135 N137 1.350 . S
C135 H161 0.931 . S
N136 Co132 2.148 . S
N136 C133 1.301 . S
N136 C134 1.317 . S
N137 C133 1.328 . S
N137 C135 1.350 . S
H138 C133 0.930 . S
H139 C134 0.930 . S
C140 O141 1.224 . S
C140 O159 1.247 . S
O141 C140 1.224 . S
N142 Co132 2.128 . S
N142 C143 1.355 . S
N142 C145 1.311 . S
C143 N142 1.355 . S
C143 C144 1.363 . S
C143 H155 0.929 . S
C144 C143 1.363 . S
C144 N146 1.375 . S
C144 H162 0.931 . S
C145 N142 1.311 . S
C145 N146 1.347 . S
C145 H156 0.929 . S
N146 C144 1.375 . S
N146 C145 1.347 . S
C147 C150 1.365 . S
C147 N152 1.328 . S
C147 H153 0.929 . S
C148 C149 1.362 . S
C148 C151 1.378 . S
C148 H163 0.929 . S
C149 C148 1.362 . S
C149 C150 1.366 . S
C150 C147 1.365 . S
C150 C149 1.366 . S
C150 H164 0.930 . S
C151 C148 1.378 . S
C151 N152 1.315 . S
C151 H154 0.930 . S
N152 Co132 2.194 . S
N152 C147 1.328 . S
N152 C151 1.315 . S
H153 C147 0.929 . S
H154 C151 0.930 . S
H155 C143 0.929 . S
H156 C145 0.929 . S
O157 Co132 2.351 . S
O157 C160 1.244 . S
O158 Co132 2.155 . S
O158 C160 1.240 . S
O159 Co132 2.096 . S
O159 C140 1.247 . S
C160 O157 1.244 . S
C160 O158 1.240 . S
H161 C135 0.931 . S
H162 C144 0.931 . S
H163 C148 0.929 . S
H164 C150 0.930 . S
Co165 N169 2.148 . S
Co165 N175 2.128 . S
Co165 N185 2.194 . S
Co165 O190 2.351 . S
Co165 O191 2.155 . S
Co165 O192 2.096 . S
C166 N169 1.301 . S
C166 N170 1.328 . S
C166 H171 0.930 . S
C167 C168 1.333 . S
C167 N169 1.317 . S
C167 H172 0.930 . S
C168 C167 1.333 . S
C168 N170 1.350 . S
C168 H194 0.931 . S
N169 Co165 2.148 . S
N169 C166 1.301 . S
N169 C167 1.317 . S
N170 C166 1.328 . S
N170 C168 1.350 . S
H171 C166 0.930 . S
H172 C167 0.930 . S
C173 O174 1.224 . S
C173 O192 1.247 . S
O174 C173 1.224 . S
N175 Co165 2.128 . S
N175 C176 1.355 . S
N175 C178 1.311 . S
C176 N175 1.355 . S
C176 C177 1.363 . S
C176 H188 0.929 . S
C177 C176 1.363 . S
C177 N179 1.375 . S
C177 H195 0.931 . S
C178 N175 1.311 . S
C178 N179 1.347 . S
C178 H189 0.929 . S
N179 C177 1.375 . S
N179 C178 1.347 . S
C180 C183 1.365 . S
C180 N185 1.328 . S
C180 H186 0.929 . S
C181 C182 1.362 . S
C181 C184 1.378 . S
C181 H196 0.929 . S
C182 C181 1.362 . S
C182 C183 1.366 . S
C183 C180 1.365 . S
C183 C182 1.366 . S
C183 H197 0.930 . S
C184 C181 1.378 . S
C184 N185 1.315 . S
C184 H187 0.930 . S
N185 Co165 2.194 . S
N185 C180 1.328 . S
N185 C184 1.315 . S
H186 C180 0.929 . S
H187 C184 0.930 . S
H188 C176 0.929 . S
H189 C178 0.929 . S
O190 Co165 2.351 . S
O190 C193 1.244 . S
O191 Co165 2.155 . S
O191 C193 1.240 . S
O192 Co165 2.096 . S
O192 C173 1.247 . S
C193 O190 1.244 . S
C193 O191 1.240 . S
H194 C168 0.931 . S
H195 C177 0.931 . S
H196 C181 0.929 . S
H197 C183 0.930 . S
Co198 N202 2.148 . S
Co198 N208 2.128 . S
Co198 N218 2.194 . S
Co198 O223 2.351 . S
Co198 O224 2.155 . S
Co198 O225 2.096 . S
C199 N202 1.301 . S
C199 N203 1.328 . S
C199 H204 0.930 . S
C200 C201 1.333 . S
C200 N202 1.317 . S
C200 H205 0.930 . S
C201 C200 1.333 . S
C201 N203 1.350 . S
C201 H227 0.931 . S
N202 Co198 2.148 . S
N202 C199 1.301 . S
N202 C200 1.317 . S
N203 C199 1.328 . S
N203 C201 1.350 . S
H204 C199 0.930 . S
H205 C200 0.930 . S
C206 O207 1.224 . S
C206 O225 1.247 . S
O207 C206 1.224 . S
N208 Co198 2.128 . S
N208 C209 1.355 . S
N208 C211 1.311 . S
C209 N208 1.355 . S
C209 C210 1.363 . S
C209 H221 0.929 . S
C210 C209 1.363 . S
C210 N212 1.375 . S
C210 H228 0.931 . S
C211 N208 1.311 . S
C211 N212 1.347 . S
C211 H222 0.929 . S
N212 C210 1.375 . S
N212 C211 1.347 . S
C213 C216 1.365 . S
C213 N218 1.328 . S
C213 H219 0.929 . S
C214 C215 1.362 . S
C214 C217 1.378 . S
C214 H229 0.929 . S
C215 C214 1.362 . S
C215 C216 1.366 . S
C216 C213 1.365 . S
C216 C215 1.366 . S
C216 H230 0.930 . S
C217 C214 1.378 . S
C217 N218 1.315 . S
C217 H220 0.930 . S
N218 Co198 2.194 . S
N218 C213 1.328 . S
N218 C217 1.315 . S
H219 C213 0.929 . S
H220 C217 0.930 . S
H221 C209 0.929 . S
H222 C211 0.929 . S
O223 Co198 2.351 . S
O223 C226 1.244 . S
O224 Co198 2.155 . S
O224 C226 1.240 . S
O225 Co198 2.096 . S
O225 C206 1.247 . S
C226 O223 1.244 . S
C226 O224 1.240 . S
H227 C201 0.931 . S
H228 C210 0.931 . S
H229 C214 0.929 . S
H230 C216 0.930 . S
Co231 N235 2.148 . S
Co231 N241 2.128 . S
Co231 N251 2.194 . S
Co231 O256 2.351 . S
Co231 O257 2.155 . S
Co231 O258 2.096 . S
C232 N235 1.301 . S
C232 N236 1.328 . S
C232 H237 0.930 . S
C233 C234 1.333 . S
C233 N235 1.317 . S
C233 H238 0.930 . S
C234 C233 1.333 . S
C234 N236 1.350 . S
C234 H260 0.931 . S
N235 Co231 2.148 . S
N235 C232 1.301 . S
N235 C233 1.317 . S
N236 C232 1.328 . S
N236 C234 1.350 . S
H237 C232 0.930 . S
H238 C233 0.930 . S
C239 O240 1.224 . S
C239 O258 1.247 . S
O240 C239 1.224 . S
N241 Co231 2.128 . S
N241 C242 1.355 . S
N241 C244 1.311 . S
C242 N241 1.355 . S
C242 C243 1.363 . S
C242 H254 0.929 . S
C243 C242 1.363 . S
C243 N245 1.375 . S
C243 H261 0.931 . S
C244 N241 1.311 . S
C244 N245 1.347 . S
C244 H255 0.929 . S
N245 C243 1.375 . S
N245 C244 1.347 . S
C246 C249 1.365 . S
C246 N251 1.328 . S
C246 H252 0.929 . S
C247 C248 1.362 . S
C247 C250 1.378 . S
C247 H262 0.929 . S
C248 C247 1.362 . S
C248 C249 1.366 . S
C249 C246 1.365 . S
C249 C248 1.366 . S
C249 H263 0.930 . S
C250 C247 1.378 . S
C250 N251 1.315 . S
C250 H253 0.930 . S
N251 Co231 2.194 . S
N251 C246 1.328 . S
N251 C250 1.315 . S
H252 C246 0.929 . S
H253 C250 0.930 . S
H254 C242 0.929 . S
H255 C244 0.929 . S
O256 Co231 2.351 . S
O256 C259 1.244 . S
O257 Co231 2.155 . S
O257 C259 1.240 . S
O258 Co231 2.096 . S
O258 C239 1.247 . S
C259 O256 1.244 . S
C259 O257 1.240 . S
H260 C234 0.931 . S
H261 C243 0.931 . S
H262 C247 0.929 . S
H263 C249 0.930 . S
H264 C272 0.950 . S
H265 C277 0.950 . S
H266 C274 0.950 . S
H267 C276 0.950 . S
H268 C278 0.950 . S
H269 C280 0.950 . S
H270 C282 0.950 . S
H271 C283 0.950 . S
C272 H264 0.950 . S
C272 C273 1.386 . S
C272 C274 1.391 . S
C273 C272 1.386 . S
C273 C277 1.393 1_554 S
C274 H266 0.950 . S
C274 C272 1.391 . S
C274 C275 1.400 . S
C275 C274 1.400 . S
C275 C276 1.398 1_554 S
C275 C281 1.491 . S
C276 H267 0.950 . S
C276 C275 1.398 1_556 S
C276 C277 1.391 . S
C277 H265 0.950 . S
C277 C273 1.393 1_556 S
C277 C276 1.391 . S
C278 H268 0.950 . S
C278 C279 1.386 1_556 S
C278 C280 1.391 . S
C279 C278 1.386 1_554 S
C279 C283 1.393 . S
C280 H269 0.950 . S
C280 C278 1.391 . S
C280 C281 1.400 1_556 S
C281 C275 1.491 . S
C281 C280 1.400 1_554 S
C281 C282 1.398 . S
C282 H270 0.950 . S
C282 C281 1.398 . S
C282 C283 1.391 . S
C283 H271 0.950 . S
C283 C279 1.393 . S
C283 C282 1.391 . S
H284 C292 0.950 . S
H285 C297 0.950 . S
H286 C294 0.950 . S
H287 C296 0.950 . S
H288 C298 0.950 . S
H289 C300 0.950 . S
H290 C302 0.950 . S
H291 C303 0.950 . S
C292 H284 0.950 . S
C292 C293 1.386 1_556 S
C292 C294 1.391 . S
C293 C292 1.386 1_554 S
C293 C297 1.393 . S
C294 H286 0.950 . S
C294 C292 1.391 . S
C294 C295 1.400 1_556 S
C295 C294 1.400 1_554 S
C295 C296 1.398 . S
C295 C301 1.491 . S
C296 H287 0.950 . S
C296 C295 1.398 . S
C296 C297 1.391 . S
C297 H285 0.950 . S
C297 C293 1.393 . S
C297 C296 1.391 . S
C298 H288 0.950 . S
C298 C299 1.386 . S
C298 C300 1.391 . S
C299 C298 1.386 . S
C299 C303 1.393 1_554 S
C300 H289 0.950 . S
C300 C298 1.391 . S
C300 C301 1.400 . S
C301 C295 1.491 . S
C301 C300 1.400 . S
C301 C302 1.398 1_554 S
C302 H290 0.950 . S
C302 C301 1.398 1_556 S
C302 C303 1.391 . S
C303 H291 0.950 . S
C303 C299 1.393 1_556 S
C303 C302 1.391 . S
H304 C312 0.950 . S
H305 C317 0.950 . S
H306 C314 0.950 . S
H307 C316 0.950 . S
H308 C318 0.950 . S
H309 C320 0.950 . S
H310 C322 0.950 . S
H311 C323 0.950 . S
C312 H304 0.950 . S
C312 C313 1.386 . S
C312 C314 1.391 . S
C313 C312 1.386 . S
C313 C317 1.393 1_554 S
C314 H306 0.950 . S
C314 C312 1.391 . S
C314 C315 1.400 . S
C315 C314 1.400 . S
C315 C316 1.398 1_554 S
C315 C321 1.491 . S
C316 H307 0.950 . S
C316 C315 1.398 1_556 S
C316 C317 1.391 . S
C317 H305 0.950 . S
C317 C313 1.393 1_556 S
C317 C316 1.391 . S
C318 H308 0.950 . S
C318 C319 1.386 1_556 S
C318 C320 1.391 . S
C319 C318 1.386 1_554 S
C319 C323 1.393 . S
C320 H309 0.950 . S
C320 C318 1.391 . S
C320 C321 1.400 1_556 S
C321 C315 1.491 . S
C321 C320 1.400 1_554 S
C321 C322 1.398 . S
C322 H310 0.950 . S
C322 C321 1.398 . S
C322 C323 1.391 . S
C323 H311 0.950 . S
C323 C319 1.393 . S
C323 C322 1.391 . S
H324 C332 0.950 . S
H325 C337 0.950 . S
H326 C334 0.950 . S
H327 C336 0.950 . S
H328 C338 0.950 . S
H329 C340 0.950 . S
H330 C342 0.950 . S
H331 C343 0.950 . S
C332 H324 0.950 . S
C332 C333 1.386 . S
C332 C334 1.391 . S
C333 C332 1.386 . S
C333 C337 1.393 1_554 S
C334 H326 0.950 . S
C334 C332 1.391 . S
C334 C335 1.400 . S
C335 C334 1.400 . S
C335 C336 1.398 1_554 S
C335 C341 1.491 . S
C336 H327 0.950 . S
C336 C335 1.398 1_556 S
C336 C337 1.391 . S
C337 H325 0.950 . S
C337 C333 1.393 1_556 S
C337 C336 1.391 . S
C338 H328 0.950 . S
C338 C339 1.386 1_556 S
C338 C340 1.391 . S
C339 C338 1.386 1_554 S
C339 C343 1.393 . S
C340 H329 0.950 . S
C340 C338 1.391 . S
C340 C341 1.400 1_556 S
C341 C335 1.491 . S
C341 C340 1.400 1_554 S
C341 C342 1.398 . S
C342 H330 0.950 . S
C342 C341 1.398 . S
C342 C343 1.391 . S
C343 H331 0.950 . S
C343 C339 1.393 . S
C343 C342 1.391 . S
H344 C352 0.950 . S
H345 C357 0.950 . S
H346 C354 0.950 1_655 S
H347 C356 0.950 . S
H348 C358 0.950 . S
H349 C360 0.950 . S
H350 C362 0.950 . S
H351 C363 0.950 . S
C352 H344 0.950 . S
C352 C353 1.386 . S
C352 C354 1.389 . S
C353 C352 1.386 . S
C353 C357 1.393 . S
C354 H346 0.950 1_455 S
C354 C352 1.389 . S
C354 C355 1.402 1_455 S
C355 C354 1.402 1_655 S
C355 C356 1.398 . S
C355 C361 1.491 . S
C356 H347 0.950 . S
C356 C355 1.398 . S
C356 C357 1.391 1_655 S
C357 H345 0.950 . S
C357 C353 1.393 . S
C357 C356 1.391 1_455 S
C358 H348 0.950 . S
C358 C359 1.386 . S
C358 C360 1.391 . S
C359 C358 1.386 . S
C359 C363 1.393 . S
C360 H349 0.950 . S
C360 C358 1.391 . S
C360 C361 1.400 . S
C361 C355 1.491 . S
C361 C360 1.400 . S
C361 C362 1.398 . S
C362 H350 0.950 . S
C362 C361 1.398 . S
C362 C363 1.391 . S
C363 H351 0.950 . S
C363 C359 1.393 . S
C363 C362 1.391 . S
H364 C372 0.950 . S
H365 C377 0.950 . S
H366 C374 0.954 . S
H367 C376 0.950 . S
H368 C378 0.950 . S
H369 C380 0.950 . S
H370 C382 0.950 . S
H371 C383 0.950 . S
C372 H364 0.950 . S
C372 C373 1.386 . S
C372 C374 1.371 1_545 S
C373 C372 1.386 . S
C373 C377 1.393 . S
C374 H366 0.954 . S
C374 C372 1.371 1_565 S
C374 C375 1.416 . S
C375 C374 1.416 . S
C375 C376 1.398 . S
C375 C381 1.491 . S
C376 H367 0.950 . S
C376 C375 1.398 . S
C376 C377 1.391 1_565 S
C377 H365 0.950 . S
C377 C373 1.393 . S
C377 C376 1.391 1_545 S
C378 H368 0.950 . S
C378 C379 1.386 . S
C378 C380 1.391 . S
C379 C378 1.386 . S
C379 C383 1.393 . S
C380 H369 0.950 . S
C380 C378 1.391 . S
C380 C381 1.400 . S
C381 C375 1.491 . S
C381 C380 1.400 . S
C381 C382 1.398 . S
C382 H370 0.950 . S
C382 C381 1.398 . S
C382 C383 1.391 . S
C383 H371 0.950 . S
C383 C379 1.393 . S
C383 C382 1.391 . S
H384 C392 0.950 . S
H385 C397 0.950 . S
H386 C394 0.950 . S
H387 C396 0.950 . S
H388 C398 0.950 . S
H389 C400 0.950 . S
H390 C402 0.950 . S
H391 C403 0.950 . S
C392 H384 0.950 . S
C392 C393 1.386 . S
C392 C394 1.391 . S
C393 C392 1.386 . S
C393 C397 1.393 . S
C394 H386 0.950 . S
C394 C392 1.391 . S
C394 C395 1.400 . S
C395 C394 1.400 . S
C395 C396 1.398 . S
C395 C401 1.491 . S
C396 H387 0.950 . S
C396 C395 1.398 . S
C396 C397 1.391 . S
C397 H385 0.950 . S
C397 C393 1.393 . S
C397 C396 1.391 . S
C398 H388 0.950 . S
C398 C399 1.386 . S
C398 C400 1.391 1_655 S
C399 C398 1.386 . S
C399 C403 1.393 . S
C400 H389 0.950 . S
C400 C398 1.391 1_455 S
C400 C401 1.400 . S
C401 C395 1.491 . S
C401 C400 1.400 . S
C401 C402 1.398 . S
C402 H390 0.950 . S
C402 C401 1.398 . S
C402 C403 1.391 1_455 S
C403 H391 0.950 . S
C403 C399 1.393 . S
C403 C402 1.391 1_655 S
H404 C412 0.950 . S
H405 C417 0.950 . S
H406 C414 0.950 . S
H407 C416 0.950 . S
H408 C418 0.950 . S
H409 C420 0.950 . S
H410 C422 0.950 . S
H411 C423 0.950 . S
C412 H404 0.950 . S
C412 C413 1.386 . S
C412 C414 1.391 . S
C413 C412 1.386 . S
C413 C417 1.393 . S
C414 H406 0.950 . S
C414 C412 1.391 . S
C414 C415 1.400 . S
C415 C414 1.400 . S
C415 C416 1.398 . S
C415 C421 1.491 . S
C416 H407 0.950 . S
C416 C415 1.398 . S
C416 C417 1.391 . S
C417 H405 0.950 . S
C417 C413 1.393 . S
C417 C416 1.391 . S
C418 H408 0.950 . S
C418 C419 1.386 . S
C418 C420 1.391 1_565 S
C419 C418 1.386 . S
C419 C423 1.393 . S
C420 H409 0.950 . S
C420 C418 1.391 1_545 S
C420 C421 1.400 . S
C421 C415 1.491 . S
C421 C420 1.400 . S
C421 C422 1.398 . S
C422 H410 0.950 . S
C422 C421 1.398 . S
C422 C423 1.391 1_545 S
C423 H411 0.950 . S
C423 C419 1.393 . S
C423 C422 1.391 1_565 S
H424 C432 0.950 . S
H425 C437 0.950 . S
H426 C434 0.950 . S
H427 C436 0.950 . S
H428 C438 0.950 . S
H429 C440 0.950 . S
H430 C442 0.950 . S
H431 C443 0.950 . S
C432 H424 0.950 . S
C432 C433 1.386 . S
C432 C434 1.391 . S
C433 C432 1.386 . S
C433 C437 1.393 . S
C434 H426 0.950 . S
C434 C432 1.391 . S
C434 C435 1.400 . S
C435 C434 1.400 . S
C435 C436 1.398 . S
C435 C441 1.491 . S
C436 H427 0.950 . S
C436 C435 1.398 . S
C436 C437 1.391 . S
C437 H425 0.950 . S
C437 C433 1.393 . S
C437 C436 1.391 . S
C438 H428 0.950 . S
C438 C439 1.386 . S
C438 C440 1.391 . S
C439 C438 1.386 . S
C439 C443 1.393 . S
C440 H429 0.950 . S
C440 C438 1.391 . S
C440 C441 1.400 . S
C441 C435 1.491 . S
C441 C440 1.400 . S
C441 C442 1.398 . S
C442 H430 0.950 . S
C442 C441 1.398 . S
C442 C443 1.391 . S
C443 H431 0.950 . S
C443 C439 1.393 . S
C443 C442 1.391 . S
H444 C452 0.950 . S
H445 C457 0.950 . S
H446 C454 0.950 . S
H447 C456 0.950 . S
H448 C458 0.950 . S
H449 C460 0.950 . S
H450 C462 0.950 . S
H451 C463 0.950 . S
C452 H444 0.950 . S
C452 C453 1.386 . S
C452 C454 1.391 . S
C453 C452 1.386 . S
C453 C457 1.393 . S
C454 H446 0.950 . S
C454 C452 1.391 . S
C454 C455 1.400 . S
C455 C454 1.400 . S
C455 C456 1.398 . S
C455 C461 1.491 . S
C456 H447 0.950 . S
C456 C455 1.398 . S
C456 C457 1.391 . S
C457 H445 0.950 . S
C457 C453 1.393 . S
C457 C456 1.391 . S
C458 H448 0.950 . S
C458 C459 1.386 . S
C458 C460 1.391 . S
C459 C458 1.386 . S
C459 C463 1.393 . S
C460 H449 0.950 . S
C460 C458 1.391 . S
C460 C461 1.400 . S
C461 C455 1.491 . S
C461 C460 1.400 . S
C461 C462 1.398 . S
C462 H450 0.950 . S
C462 C461 1.398 . S
C462 C463 1.391 . S
C463 H451 0.950 . S
C463 C459 1.393 . S
C463 C462 1.391 . S
H464 C472 0.950 . S
H465 C477 0.950 . S
H466 C474 0.950 . S
H467 C476 0.950 . S
H468 C478 0.950 . S
H469 C480 0.950 . S
H470 C482 0.950 . S
H471 C483 0.950 . S
C472 H464 0.950 . S
C472 C473 1.386 . S
C472 C474 1.391 . S
C473 C472 1.386 . S
C473 C477 1.393 . S
C474 H466 0.950 . S
C474 C472 1.391 . S
C474 C475 1.400 . S
C475 C474 1.400 . S
C475 C476 1.398 . S
C475 C481 1.491 . S
C476 H467 0.950 . S
C476 C475 1.398 . S
C476 C477 1.391 . S
C477 H465 0.950 . S
C477 C473 1.393 . S
C477 C476 1.391 . S
C478 H468 0.950 . S
C478 C479 1.386 . S
C478 C480 1.391 . S
C479 C478 1.386 . S
C479 C483 1.393 . S
C480 H469 0.950 . S
C480 C478 1.391 . S
C480 C481 1.400 . S
C481 C475 1.491 . S
C481 C480 1.400 . S
C481 C482 1.398 . S
C482 H470 0.950 . S
C482 C481 1.398 . S
C482 C483 1.391 . S
C483 H471 0.950 . S
C483 C479 1.393 . S
C483 C482 1.391 . S
H484 C492 0.950 . S
H485 C497 0.950 . S
H486 C494 0.950 . S
H487 C496 0.950 . S
H488 C498 0.950 . S
H489 C500 0.950 . S
H490 C502 0.950 . S
H491 C503 0.950 . S
C492 H484 0.950 . S
C492 C493 1.386 . S
C492 C494 1.391 . S
C493 C492 1.386 . S
C493 C497 1.393 . S
C494 H486 0.950 . S
C494 C492 1.391 . S
C494 C495 1.400 . S
C495 C494 1.400 . S
C495 C496 1.398 . S
C495 C501 1.491 . S
C496 H487 0.950 . S
C496 C495 1.398 . S
C496 C497 1.391 . S
C497 H485 0.950 . S
C497 C493 1.393 . S
C497 C496 1.391 . S
C498 H488 0.950 . S
C498 C499 1.386 . S
C498 C500 1.391 . S
C499 C498 1.386 . S
C499 C503 1.393 . S
C500 H489 0.950 . S
C500 C498 1.391 . S
C500 C501 1.400 . S
C501 C495 1.491 . S
C501 C500 1.400 . S
C501 C502 1.398 . S
C502 H490 0.950 . S
C502 C501 1.398 . S
C502 C503 1.391 . S
C503 H491 0.950 . S
C503 C499 1.393 . S
C503 C502 1.391 . S
H504 C512 0.950 . S
H505 C517 0.950 . S
H506 C514 0.950 . S
H507 C516 0.950 . S
H508 C518 0.950 . S
H509 C520 0.950 . S
H510 C522 0.950 . S
H511 C523 0.950 . S
C512 H504 0.950 . S
C512 C513 1.386 . S
C512 C514 1.391 . S
C513 C512 1.386 . S
C513 C517 1.393 . S
C514 H506 0.950 . S
C514 C512 1.391 . S
C514 C515 1.400 . S
C515 C514 1.400 . S
C515 C516 1.398 . S
C515 C521 1.491 . S
C516 H507 0.950 . S
C516 C515 1.398 . S
C516 C517 1.391 . S
C517 H505 0.950 . S
C517 C513 1.393 . S
C517 C516 1.391 . S
C518 H508 0.950 . S
C518 C519 1.386 . S
C518 C520 1.391 . S
C519 C518 1.386 . S
C519 C523 1.393 . S
C520 H509 0.950 . S
C520 C518 1.391 . S
C520 C521 1.400 . S
C521 C515 1.491 . S
C521 C520 1.400 . S
C521 C522 1.398 . S
C522 H510 0.950 . S
C522 C521 1.398 . S
C522 C523 1.391 . S
C523 H511 0.950 . S
C523 C519 1.393 . S
C523 C522 1.391 . S
H524 C532 0.950 . S
H525 C537 0.950 . S
H526 C534 0.950 . S
H527 C536 0.950 . S
H528 C538 0.950 . S
H529 C540 0.950 . S
H530 C542 0.950 . S
H531 C543 0.950 . S
C532 H524 0.950 . S
C532 C533 1.386 . S
C532 C534 1.391 . S
C533 C532 1.386 . S
C533 C537 1.393 . S
C534 H526 0.950 . S
C534 C532 1.391 . S
C534 C535 1.400 . S
C535 C534 1.400 . S
C535 C536 1.398 . S
C535 C541 1.491 . S
C536 H527 0.950 . S
C536 C535 1.398 . S
C536 C537 1.391 . S
C537 H525 0.950 . S
C537 C533 1.393 . S
C537 C536 1.391 . S
C538 H528 0.950 . S
C538 C539 1.386 . S
C538 C540 1.391 . S
C539 C538 1.386 . S
C539 C543 1.393 . S
C540 H529 0.950 . S
C540 C538 1.391 . S
C540 C541 1.400 . S
C541 C535 1.491 . S
C541 C540 1.400 . S
C541 C542 1.398 . S
C542 H530 0.950 . S
C542 C541 1.398 . S
C542 C543 1.391 . S
C543 H531 0.950 . S
C543 C539 1.393 . S
C543 C542 1.391 . S
H544 C552 0.950 . S
H545 C557 0.950 . S
H546 C554 0.950 . S
H547 C556 0.950 . S
H548 C558 0.950 . S
H549 C560 0.950 . S
H550 C562 0.950 . S
H551 C563 0.950 . S
C552 H544 0.950 . S
C552 C553 1.386 . S
C552 C554 1.391 . S
C553 C552 1.386 . S
C553 C557 1.393 . S
C554 H546 0.950 . S
C554 C552 1.391 . S
C554 C555 1.400 . S
C555 C554 1.400 . S
C555 C556 1.398 . S
C555 C561 1.491 . S
C556 H547 0.950 . S
C556 C555 1.398 . S
C556 C557 1.391 . S
C557 H545 0.950 . S
C557 C553 1.393 . S
C557 C556 1.391 . S
C558 H548 0.950 . S
C558 C559 1.386 . S
C558 C560 1.391 . S
C559 C558 1.386 . S
C559 C563 1.393 . S
C560 H549 0.950 . S
C560 C558 1.391 . S
C560 C561 1.400 . S
C561 C555 1.491 . S
C561 C560 1.400 . S
C561 C562 1.398 . S
C562 H550 0.950 . S
C562 C561 1.398 . S
C562 C563 1.391 . S
C563 H551 0.950 . S
C563 C559 1.393 . S
C563 C562 1.391 . S
H564 C572 0.950 . S
H565 C577 0.950 . S
H566 C574 0.950 . S
H567 C576 0.950 . S
H568 C578 0.950 . S
H569 C580 0.950 . S
H570 C582 0.950 . S
H571 C583 0.950 . S
C572 H564 0.950 . S
C572 C573 1.386 . S
C572 C574 1.391 . S
C573 C572 1.386 . S
C573 C577 1.393 . S
C574 H566 0.950 . S
C574 C572 1.391 . S
C574 C575 1.400 . S
C575 C574 1.400 . S
C575 C576 1.398 . S
C575 C581 1.491 . S
C576 H567 0.950 . S
C576 C575 1.398 . S
C576 C577 1.391 . S
C577 H565 0.950 . S
C577 C573 1.393 . S
C577 C576 1.391 . S
C578 H568 0.950 . S
C578 C579 1.386 . S
C578 C580 1.391 . S
C579 C578 1.386 . S
C579 C583 1.393 . S
C580 H569 0.950 . S
C580 C578 1.391 . S
C580 C581 1.400 . S
C581 C575 1.491 . S
C581 C580 1.400 . S
C581 C582 1.398 . S
C582 H570 0.950 . S
C582 C581 1.398 . S
C582 C583 1.391 . S
C583 H571 0.950 . S
C583 C579 1.393 . S
C583 C582 1.391 . S
H584 C592 0.950 . S
H585 C597 0.950 . S
H586 C594 0.950 . S
H587 C596 0.950 1_455 S
H588 C598 0.950 . S
H589 C600 0.950 . S
H590 C602 0.950 1_655 S
H591 C603 0.950 . S
C592 H584 0.950 . S
C592 C593 1.386 1_556 S
C592 C594 1.391 . S
C593 C592 1.386 1_554 S
C593 C597 1.393 . S
C594 H586 0.950 . S
C594 C592 1.391 . S
C594 C595 1.400 1_556 S
C595 C594 1.400 1_554 S
C595 C596 1.398 . S
C595 C601 1.491 1_655 S
C596 H587 0.950 1_655 S
C596 C595 1.398 . S
C596 C597 1.391 . S
C597 H585 0.950 . S
C597 C593 1.393 . S
C597 C596 1.391 . S
C598 H588 0.950 . S
C598 C599 1.386 . S
C598 C600 1.391 . S
C599 C598 1.386 . S
C599 C603 1.393 1_554 S
C600 H589 0.950 . S
C600 C598 1.391 . S
C600 C601 1.400 . S
C601 C595 1.491 1_455 S
C601 C600 1.400 . S
C601 C602 1.398 1_554 S
C602 H590 0.950 1_455 S
C602 C601 1.398 1_556 S
C602 C603 1.391 . S
C603 H591 0.950 . S
C603 C599 1.393 1_556 S
C603 C602 1.391 . S
H604 C612 0.950 . S
H605 C617 0.950 . S
H606 C614 0.950 . S
H607 C616 0.950 1_565 S
H608 C618 0.950 . S
H609 C620 0.950 . S
H610 C622 0.950 1_545 S
H611 C623 0.950 . S
C612 H604 0.950 . S
C612 C613 1.386 1_556 S
C612 C614 1.391 . S
C613 C612 1.386 1_554 S
C613 C617 1.393 . S
C614 H606 0.950 . S
C614 C612 1.391 . S
C614 C615 1.400 1_556 S
C615 C614 1.400 1_554 S
C615 C616 1.398 . S
C615 C621 1.491 1_545 S
C616 H607 0.950 1_545 S
C616 C615 1.398 . S
C616 C617 1.391 . S
C617 H605 0.950 . S
C617 C613 1.393 . S
C617 C616 1.391 . S
C618 H608 0.950 . S
C618 C619 1.386 . S
C618 C620 1.391 . S
C619 C618 1.386 . S
C619 C623 1.393 1_554 S
C620 H609 0.950 . S
C620 C618 1.391 . S
C620 C621 1.400 . S
C621 C615 1.491 1_565 S
C621 C620 1.400 . S
C621 C622 1.398 1_554 S
C622 H610 0.950 1_565 S
C622 C621 1.398 1_556 S
C622 C623 1.391 . S
C623 H611 0.950 . S
C623 C619 1.393 1_556 S
C623 C622 1.391 . S
H624 C632 0.950 . S
H625 C637 0.950 . S
H626 C634 0.950 . S
H627 C636 0.950 1_565 S
H628 C638 0.950 . S
H629 C640 0.950 . S
H630 C642 0.950 1_545 S
H631 C643 0.950 . S
C632 H624 0.950 . S
C632 C633 1.386 . S
C632 C634 1.391 . S
C633 C632 1.386 . S
C633 C637 1.393 . S
C634 H626 0.950 . S
C634 C632 1.391 . S
C634 C635 1.400 . S
C635 C634 1.400 . S
C635 C636 1.398 . S
C635 C641 1.491 1_545 S
C636 H627 0.950 1_545 S
C636 C635 1.398 . S
C636 C637 1.391 . S
C637 H625 0.950 . S
C637 C633 1.393 . S
C637 C636 1.391 . S
C638 H628 0.950 . S
C638 C639 1.386 . S
C638 C640 1.391 . S
C639 C638 1.386 . S
C639 C643 1.393 . S
C640 H629 0.950 . S
C640 C638 1.391 . S
C640 C641 1.400 . S
C641 C635 1.491 1_565 S
C641 C640 1.400 . S
C641 C642 1.398 . S
C642 H630 0.950 1_565 S
C642 C641 1.398 . S
C642 C643 1.391 . S
C643 H631 0.950 . S
C643 C639 1.393 . S
C643 C642 1.391 . S
H644 C652 0.950 . S
H645 C657 0.950 . S
H646 C654 0.950 1_655 S
H647 C656 0.950 . S
H648 C658 0.950 . S
H649 C660 0.950 1_455 S
H650 C662 0.950 . S
H651 C663 0.950 . S
C652 H644 0.950 . S
C652 C653 1.386 . S
C652 C654 1.391 . S
C653 C652 1.386 . S
C653 C657 1.393 . S
C654 H646 0.950 1_455 S
C654 C652 1.391 . S
C654 C655 1.400 . S
C655 C654 1.400 . S
C655 C656 1.398 . S
C655 C661 1.491 1_455 S
C656 H647 0.950 . S
C656 C655 1.398 . S
C656 C657 1.391 . S
C657 H645 0.950 . S
C657 C653 1.393 . S
C657 C656 1.391 . S
C658 H648 0.950 . S
C658 C659 1.386 . S
C658 C660 1.391 . S
C659 C658 1.386 . S
C659 C663 1.393 . S
C660 H649 0.950 1_655 S
C660 C658 1.391 . S
C660 C661 1.400 . S
C661 C655 1.491 1_655 S
C661 C660 1.400 . S
C661 C662 1.398 . S
C662 H650 0.950 . S
C662 C661 1.398 . S
C662 C663 1.391 . S
C663 H651 0.950 . S
C663 C659 1.393 . S
C663 C662 1.391 . S
C273 C41 0.812 . S
C279 N5 0.830 . S
C293 N38 0.792 . S
C299 C74 0.820 . S
C313 N71 0.828 . S
C319 C107 0.814 . S
C333 C8 0.812 . S
C339 N104 0.829 . S
C353 C173 0.816 . S
C359 N137 0.820 . S
C373 C206 0.818 . S
C379 N170 0.809 . S
C393 N203 0.787 . S
C399 C239 0.819 . S
C413 N236 0.787 . S
C419 C140 0.818 . S
C433 C215 1.529 . S
C439 C28 1.550 . S
C453 C61 1.548 . S
C459 C248 1.510 . S
C473 C94 1.559 . S
C479 C149 1.524 . S
C493 C127 1.546 . S
C499 C182 1.514 . S
C513 C160 1.548 . S
C519 C83 1.524 . S
C533 C193 1.545 . S
C539 C116 1.516 . S
C553 C226 1.559 . S
C559 C17 1.538 . S
C573 C50 1.530 . S
C579 C259 1.563 . S
C593 N80 2.181 . S
C599 N14 2.181 . S
C613 N47 2.182 . S
C619 N113 2.181 . S
C633 N212 2.182 . S
C639 N146 2.182 . S
C653 N179 2.182 . S
C659 N245 2.181 . S
