# Generated by pormake.
# Topology vbm, (6)-cn, num edge types: 1
# Building blocks:
#     Node 0, Type 0, BuildingBlock: BETDAH_clean_sbu_0, # of connection points: 6
#     Node 1, Type 0, BuildingBlock: BETDAH_clean_sbu_0, # of connection points: 6
#     Node 2, Type 0, BuildingBlock: BETDAH_clean_sbu_0, # of connection points: 6
#     Node 3, Type 0, BuildingBlock: BETDAH_clean_sbu_0, # of connection points: 6
#     Node 4, Type 0, BuildingBlock: BETDAH_clean_sbu_0, # of connection points: 6
#     Node 5, Type 0, BuildingBlock: BETDAH_clean_sbu_0, # of connection points: 6
#     Node 6, Type 0, BuildingBlock: BETDAH_clean_sbu_0, # of connection points: 6
#     Node 7, Type 0, BuildingBlock: BETDAH_clean_sbu_0, # of connection points: 6
#     Node 8, Type 0, BuildingBlock: BETDAH_clean_sbu_0, # of connection points: 6
#     Node 9, Type 0, BuildingBlock: BETDAH_clean_sbu_0, # of connection points: 6
#     Node 10, Type 0, BuildingBlock: BETDAH_clean_sbu_0, # of connection points: 6
#     Node 11, Type 0, BuildingBlock: BETDAH_clean_sbu_0, # of connection points: 6
#     Node 12, Type 0, BuildingBlock: BETDAH_clean_sbu_0, # of connection points: 6
#     Node 13, Type 0, BuildingBlock: BETDAH_clean_sbu_0, # of connection points: 6
#     Node 14, Type 0, BuildingBlock: BETDAH_clean_sbu_0, # of connection points: 6
#     Node 15, Type 0, BuildingBlock: BETDAH_clean_sbu_0, # of connection points: 6
#     Edge 16, Type (0, 0), BuildingBlock: OJICUG_clean_linker_0, # of connection points: 2
#     Edge 17, Type (0, 0), BuildingBlock: OJICUG_clean_linker_0, # of connection points: 2
#     Edge 18, Type (0, 0), BuildingBlock: OJICUG_clean_linker_0, # of connection points: 2
#     Edge 19, Type (0, 0), BuildingBlock: OJICUG_clean_linker_0, # of connection points: 2
#     Edge 20, Type (0, 0), BuildingBlock: OJICUG_clean_linker_0, # of connection points: 2
#     Edge 21, Type (0, 0), BuildingBlock: OJICUG_clean_linker_0, # of connection points: 2
#     Edge 22, Type (0, 0), BuildingBlock: OJICUG_clean_linker_0, # of connection points: 2
#     Edge 23, Type (0, 0), BuildingBlock: OJICUG_clean_linker_0, # of connection points: 2
#     Edge 24, Type (0, 0), BuildingBlock: OJICUG_clean_linker_0, # of connection points: 2
#     Edge 25, Type (0, 0), BuildingBlock: OJICUG_clean_linker_0, # of connection points: 2
#     Edge 26, Type (0, 0), BuildingBlock: OJICUG_clean_linker_0, # of connection points: 2
#     Edge 27, Type (0, 0), BuildingBlock: OJICUG_clean_linker_0, # of connection points: 2
#     Edge 28, Type (0, 0), BuildingBlock: OJICUG_clean_linker_0, # of connection points: 2
#     Edge 29, Type (0, 0), BuildingBlock: OJICUG_clean_linker_0, # of connection points: 2
#     Edge 30, Type (0, 0), BuildingBlock: OJICUG_clean_linker_0, # of connection points: 2
#     Edge 31, Type (0, 0), BuildingBlock: OJICUG_clean_linker_0, # of connection points: 2
#     Edge 32, Type (0, 0), BuildingBlock: OJICUG_clean_linker_0, # of connection points: 2
#     Edge 33, Type (0, 0), BuildingBlock: OJICUG_clean_linker_0, # of connection points: 2
#     Edge 34, Type (0, 0), BuildingBlock: OJICUG_clean_linker_0, # of connection points: 2
#     Edge 35, Type (0, 0), BuildingBlock: OJICUG_clean_linker_0, # of connection points: 2
#     Edge 36, Type (0, 0), BuildingBlock: OJICUG_clean_linker_0, # of connection points: 2
#     Edge 37, Type (0, 0), BuildingBlock: OJICUG_clean_linker_0, # of connection points: 2
#     Edge 38, Type (0, 0), BuildingBlock: OJICUG_clean_linker_0, # of connection points: 2
#     Edge 39, Type (0, 0), BuildingBlock: OJICUG_clean_linker_0, # of connection points: 2
#     Edge 40, Type (0, 0), BuildingBlock: OJICUG_clean_linker_0, # of connection points: 2
#     Edge 41, Type (0, 0), BuildingBlock: OJICUG_clean_linker_0, # of connection points: 2
#     Edge 42, Type (0, 0), BuildingBlock: OJICUG_clean_linker_0, # of connection points: 2
#     Edge 43, Type (0, 0), BuildingBlock: OJICUG_clean_linker_0, # of connection points: 2
#     Edge 44, Type (0, 0), BuildingBlock: OJICUG_clean_linker_0, # of connection points: 2
#     Edge 45, Type (0, 0), BuildingBlock: OJICUG_clean_linker_0, # of connection points: 2
#     Edge 46, Type (0, 0), BuildingBlock: OJICUG_clean_linker_0, # of connection points: 2
#     Edge 47, Type (0, 0), BuildingBlock: OJICUG_clean_linker_0, # of connection points: 2
#     Edge 48, Type (0, 0), BuildingBlock: OJICUG_clean_linker_0, # of connection points: 2
#     Edge 49, Type (0, 0), BuildingBlock: OJICUG_clean_linker_0, # of connection points: 2
#     Edge 50, Type (0, 0), BuildingBlock: OJICUG_clean_linker_0, # of connection points: 2
#     Edge 51, Type (0, 0), BuildingBlock: OJICUG_clean_linker_0, # of connection points: 2
#     Edge 52, Type (0, 0), BuildingBlock: OJICUG_clean_linker_0, # of connection points: 2
#     Edge 53, Type (0, 0), BuildingBlock: OJICUG_clean_linker_0, # of connection points: 2
#     Edge 54, Type (0, 0), BuildingBlock: OJICUG_clean_linker_0, # of connection points: 2
#     Edge 55, Type (0, 0), BuildingBlock: OJICUG_clean_linker_0, # of connection points: 2
#     Edge 56, Type (0, 0), BuildingBlock: OJICUG_clean_linker_0, # of connection points: 2
#     Edge 57, Type (0, 0), BuildingBlock: OJICUG_clean_linker_0, # of connection points: 2
#     Edge 58, Type (0, 0), BuildingBlock: OJICUG_clean_linker_0, # of connection points: 2
#     Edge 59, Type (0, 0), BuildingBlock: OJICUG_clean_linker_0, # of connection points: 2
#     Edge 60, Type (0, 0), BuildingBlock: OJICUG_clean_linker_0, # of connection points: 2
#     Edge 61, Type (0, 0), BuildingBlock: OJICUG_clean_linker_0, # of connection points: 2
#     Edge 62, Type (0, 0), BuildingBlock: OJICUG_clean_linker_0, # of connection points: 2
#     Edge 63, Type (0, 0), BuildingBlock: OJICUG_clean_linker_0, # of connection points: 2
# Relax obj value: 0.065
# Max RMSD: 0.151
# Mean RMSD: 0.151
data_MOF--net-vbm--node1-BETDAH_clean_sbu_0--edge1-OJICUG_clean_linker_0
_symmetry_space_group_name_H-M    P1
_symmetry_Int_Tables_number       1
_symmetry_cell_setting            triclinic
loop_
_symmetry_equiv_pos_as_xyz
'x, y, z'
_cell_length_a     39.4915
_cell_length_b     21.346256
_cell_length_c     38.094172
_cell_angle_alpha  89.920143
_cell_angle_beta   89.930777
_cell_angle_gamma 89.942854
loop_
_atom_site_label
_atom_site_type_symbol
_atom_site_fract_x
_atom_site_fract_y
_atom_site_fract_z
_atom_type_partial_charge
Ho0 Ho 0.12576 0.0847 0.18213 0.0
Ho1 Ho 0.0848 0.21387 0.18849 0.0
C2 C 0.04438 0.09383 0.1653 0.0
C3 C 0.14885 0.97544 0.19925 0.0
C4 C 0.14442 0.90973 0.18874 0.0
C5 C 0.11762 0.8918 0.16682 0.0
C6 C 0.11098 0.82828 0.16093 0.0
C7 C 0.13099 0.78162 0.17692 0.0
C8 C 0.15863 0.80016 0.19775 0.0
C9 C 0.16522 0.86365 0.20363 0.0
C10 C 0.11813 0.13773 0.11789 0.0
C11 C 0.16688 0.21303 0.19333 0.0
C12 C 0.06175 0.32716 0.18672 0.0
C13 C 0.0744 0.39157 0.18149 0.0
C14 C 0.10402 0.41285 0.19802 0.0
C15 C 0.1142 0.47534 0.19453 0.0
C16 C 0.09491 0.51786 0.17454 0.0
C17 C 0.06573 0.49585 0.15735 0.0
C18 C 0.05561 0.43338 0.16083 0.0
C19 C 0.08546 0.13498 0.24464 0.0
O20 O 0.07049 0.05854 0.1753 0.0
O21 O 0.04574 0.15547 0.16323 0.0
O22 O 0.16436 1.01274 0.17709 0.0
O23 O 0.12221 1.00136 0.21365 0.0
O24 O 0.13402 0.08537 0.12337 0.0
O25 O 0.10762 0.15797 0.14697 0.0
O26 O 0.13886 0.24492 0.18677 0.0
O27 O 0.16756 0.15114 0.19675 0.0
O28 O 0.07097 0.29862 0.21566 0.0
O29 O 0.06204 0.29024 0.15925 0.0
O30 O 0.05928 0.16796 0.23542 0.0
O31 O 0.10975 0.14735 0.22434 0.0
H32 H 0.10123 0.92684 0.15517 0.0
H33 H 0.0898 0.81569 0.14434 0.0
H34 H 0.17433 0.76566 0.2108 0.0
H35 H 0.18585 0.8767 0.22086 0.0
H36 H 0.11889 0.38161 0.21428 0.0
H37 H 0.13658 0.49076 0.20845 0.0
H38 H 0.05055 0.52704 0.14135 0.0
H39 H 0.03271 0.41794 0.14781 0.0
Ho40 Ho 0.83232 0.987 0.18462 0.0
Ho41 Ho 0.8735 0.85755 0.18866 0.0
C42 C 0.91338 0.97848 0.16578 0.0
C43 C 0.80985 0.09595 0.20303 0.0
C44 C 0.81386 0.16175 0.19241 0.0
C45 C 0.8395 0.17975 0.16896 0.0
C46 C 0.84586 0.24329 0.16268 0.0
C47 C 0.82672 0.2899 0.1798 0.0
C48 C 0.80022 0.2713 0.20225 0.0
C49 C 0.79393 0.2078 0.20852 0.0
C50 C 0.83845 0.93586 0.11976 0.0
C51 C 0.79164 0.85848 0.19721 0.0
C52 C 0.89639 0.74431 0.18482 0.0
C53 C 0.88342 0.67997 0.18038 0.0
C54 C 0.85461 0.65882 0.19853 0.0
C55 C 0.84424 0.59633 0.19574 0.0
C56 C 0.86253 0.55371 0.17484 0.0
C57 C 0.89083 0.57565 0.15601 0.0
C58 C 0.90115 0.63809 0.1588 0.0
C59 C 0.87386 0.93438 0.24554 0.0
O60 O 0.88747 1.01331 0.17679 0.0
O61 O 0.912 0.91695 0.16302 0.0
O62 O 0.79351 0.05887 0.18148 0.0
O63 O 0.83703 0.06991 0.21621 0.0
O64 O 0.82249 0.98781 0.12613 0.0
O65 O 0.84968 0.91493 0.14838 0.0
O66 O 0.81938 0.82667 0.1893 0.0
O67 O 0.79109 0.92034 0.20075 0.0
O68 O 0.88915 0.77241 0.21446 0.0
O69 O 0.89422 0.78161 0.15755 0.0
O70 O 0.89993 0.90184 0.23545 0.0
O71 O 0.84925 0.92268 0.22565 0.0
H72 H 0.85522 0.14473 0.15636 0.0
H73 H 0.86613 0.25592 0.14487 0.0
H74 H 0.78525 0.30578 0.21619 0.0
H75 H 0.77423 0.19469 0.22693 0.0
H76 H 0.84056 0.69015 0.21549 0.0
H77 H 0.82256 0.58098 0.2109 0.0
H78 H 0.90519 0.54441 0.13926 0.0
H79 H 0.92339 0.65347 0.14451 0.0
Ho80 Ho 0.12728 0.98578 0.40779 0.0
Ho81 Ho 0.08621 0.85635 0.40432 0.0
C82 C 0.0462 0.97714 0.42683 0.0
C83 C 0.15002 0.0939 0.38812 0.0
C84 C 0.14731 0.16025 0.39793 0.0
C85 C 0.16274 0.20548 0.3766 0.0
C86 C 0.15739 0.26923 0.38285 0.0
C87 C 0.13636 0.28899 0.41057 0.0
C88 C 0.12174 0.24326 0.43259 0.0
C89 C 0.12712 0.17939 0.42627 0.0
C90 C 0.12116 0.93551 0.47289 0.0
C91 C 0.16798 0.85679 0.39609 0.0
C92 C 0.06438 0.74257 0.40861 0.0
C93 C 0.07854 0.67873 0.41237 0.0
C94 C 0.06555 0.63873 0.43833 0.0
C95 C 0.07672 0.57667 0.44083 0.0
C96 C 0.10104 0.55307 0.41724 0.0
C97 C 0.11473 0.59387 0.39186 0.0
C98 C 0.10365 0.65603 0.38948 0.0
C99 C 0.086 0.93262 0.34704 0.0
O100 O 0.07204 1.01199 0.41563 0.0
O101 O 0.04769 0.91564 0.42987 0.0
O102 O 0.16652 0.05672 0.40956 0.0
O103 O 0.12211 0.06882 0.37615 0.0
O104 O 0.13702 0.98748 0.46628 0.0
O105 O 0.10996 0.91419 0.44438 0.0
O106 O 0.14017 0.82514 0.40365 0.0
O107 O 0.16866 0.91865 0.39251 0.0
O108 O 0.06999 0.77148 0.3788 0.0
O109 O 0.06692 0.77966 0.43589 0.0
O110 O 0.0599 0.9003 0.35725 0.0
O111 O 0.11055 0.92102 0.36706 0.0
H112 H 0.17809 0.19144 0.35435 0.0
H113 H 0.16863 0.30293 0.36505 0.0
H114 H 0.10575 0.25682 0.45441 0.0
H115 H 0.11485 0.14497 0.44289 0.0
H116 H 0.04628 0.65523 0.45637 0.0
H117 H 0.06607 0.54703 0.46111 0.0
H118 H 0.13322 0.5773 0.37301 0.0
H119 H 0.11424 0.6858 0.36921 0.0
Ho120 Ho 0.83371 0.08258 0.41004 0.0
Ho121 Ho 0.87436 0.21223 0.40517 0.0
C122 C 0.9149 0.0917 0.42758 0.0
C123 C 0.81073 0.97416 0.39167 0.0
C124 C 0.81404 0.90789 0.40157 0.0
C125 C 0.79091 0.86445 0.3881 0.0
C126 C 0.79603 0.80027 0.39313 0.0
C127 C 0.8245 0.77837 0.41166 0.0
C128 C 0.84688 0.82235 0.42641 0.0
C129 C 0.84171 0.88663 0.42137 0.0
C130 C 0.84065 0.13373 0.47475 0.0
C131 C 0.7923 0.21075 0.39864 0.0
C132 C 0.89717 0.3255 0.40828 0.0
C133 C 0.88356 0.38952 0.41171 0.0
C134 C 0.90192 0.43442 0.43055 0.0
C135 C 0.89049 0.49637 0.43242 0.0
C136 C 0.86038 0.51459 0.41548 0.0
C137 C 0.84162 0.46893 0.39731 0.0
C138 C 0.85317 0.40708 0.39534 0.0
C139 C 0.87413 0.13527 0.34835 0.0
O140 O 0.88902 0.05656 0.41696 0.0
O141 O 0.91328 0.15322 0.43038 0.0
O142 O 0.79472 1.0112 0.41356 0.0
O143 O 0.83802 0.99971 0.37839 0.0
O144 O 0.82485 0.08154 0.46872 0.0
O145 O 0.85139 0.15474 0.44593 0.0
O146 O 0.82015 0.24292 0.40545 0.0
O147 O 0.79191 0.14891 0.3952 0.0
O148 O 0.89058 0.2964 0.37881 0.0
O149 O 0.89446 0.2891 0.43587 0.0
O150 O 0.90027 0.16781 0.35805 0.0
O151 O 0.84974 0.14692 0.36863 0.0
H152 H 0.76943 0.88008 0.37271 0.0
H153 H 0.77803 0.76772 0.38192 0.0
H154 H 0.8692 0.8071 0.44055 0.0
H155 H 0.85995 0.91958 0.43181 0.0
H156 H 0.92552 0.42183 0.44324 0.0
H157 H 0.90582 0.53036 0.44624 0.0
H158 H 0.8181 0.48104 0.38438 0.0
H159 H 0.83866 0.37326 0.38051 0.0
Ho160 Ho 0.87423 0.85859 0.90569 0.0
Ho161 Ho 0.83308 0.98777 0.90999 0.0
C162 C 0.79226 0.85919 0.89863 0.0
C163 C 0.89708 0.74525 0.90909 0.0
C164 C 0.88413 0.68091 0.91378 0.0
C165 C 0.85512 0.65983 0.89606 0.0
C166 C 0.84481 0.59731 0.89895 0.0
C167 C 0.86335 0.55455 0.91954 0.0
C168 C 0.89186 0.5764 0.93797 0.0
C169 C 0.90212 0.63889 0.93507 0.0
C170 C 0.87433 0.93536 0.84868 0.0
C171 C 0.91432 0.97936 0.92798 0.0
C172 C 0.8105 0.09681 0.89172 0.0
C173 C 0.81465 0.16257 0.90226 0.0
C174 C 0.84053 0.18044 0.92536 0.0
C175 C 0.84696 0.24395 0.93157 0.0
C176 C 0.82764 0.29067 0.91475 0.0
C177 C 0.80091 0.2722 0.89264 0.0
C178 C 0.79456 0.20873 0.88644 0.0
C179 C 0.83956 0.93679 0.97489 0.0
O180 O 0.82016 0.82758 0.90614 0.0
O181 O 0.79162 0.92101 0.89477 0.0
O182 O 0.88937 0.77351 0.8796 0.0
O183 O 0.89542 0.78245 0.93639 0.0
O184 O 0.90042 0.90286 0.8587 0.0
O185 O 0.84974 0.92379 0.86872 0.0
O186 O 0.88829 1.01414 0.91724 0.0
O187 O 0.91296 0.91783 0.93087 0.0
O188 O 0.79432 0.0597 0.91346 0.0
O189 O 0.83755 0.07073 0.87825 0.0
O190 O 0.8236 0.98875 0.96853 0.0
O191 O 0.85069 0.91575 0.94625 0.0
H192 H 0.84087 0.69125 0.87931 0.0
H193 H 0.82297 0.58205 0.88409 0.0
H194 H 0.90642 0.54506 0.95448 0.0
H195 H 0.92453 0.65418 0.94902 0.0
H196 H 0.85639 0.14535 0.93774 0.0
H197 H 0.86741 0.25647 0.94911 0.0
H198 H 0.78579 0.30676 0.87893 0.0
H199 H 0.77466 0.19573 0.8683 0.0
Ho200 Ho 0.08571 0.21504 0.90281 0.0
Ho201 Ho 0.12671 0.08607 0.90935 0.0
C202 C 0.16781 0.21449 0.89805 0.0
C203 C 0.06257 0.3283 0.90446 0.0
C204 C 0.07511 0.39275 0.90971 0.0
C205 C 0.10488 0.41413 0.89342 0.0
C206 C 0.11499 0.47664 0.89694 0.0
C207 C 0.09546 0.5191 0.91671 0.0
C208 C 0.06611 0.497 0.93364 0.0
C209 C 0.05607 0.43451 0.93015 0.0
C210 C 0.08659 0.13646 0.84668 0.0
C211 C 0.0453 0.09496 0.92628 0.0
C212 C 0.1498 0.97681 0.89234 0.0
C213 C 0.14521 0.91106 0.90283 0.0
C214 C 0.1181 0.89307 0.92442 0.0
C215 C 0.11135 0.82953 0.93026 0.0
C216 C 0.13157 0.7829 0.91454 0.0
C217 C 0.15951 0.80149 0.89405 0.0
C218 C 0.16619 0.86499 0.88823 0.0
C219 C 0.11885 0.13883 0.97355 0.0
O220 O 0.13973 0.24628 0.90455 0.0
O221 O 0.16854 0.15259 0.89474 0.0
O222 O 0.07199 0.2999 0.87556 0.0
O223 O 0.06275 0.29128 0.93194 0.0
O224 O 0.06036 0.1693 0.85591 0.0
O225 O 0.11084 0.14863 0.86699 0.0
O226 O 0.07145 0.05972 0.91632 0.0
O227 O 0.0466 0.15661 0.92816 0.0
O228 O 0.16521 1.01395 0.91458 0.0
O229 O 0.12331 1.00293 0.87779 0.0
O230 O 0.1348 0.08654 0.96811 0.0
O231 O 0.10845 0.15923 0.94445 0.0
H232 H 0.11993 0.38296 0.87732 0.0
H233 H 0.13751 0.49214 0.88321 0.0
H234 H 0.05074 0.52813 0.94947 0.0
H235 H 0.03304 0.41899 0.94298 0.0
H236 H 0.10156 0.92809 0.93585 0.0
H237 H 0.08994 0.81692 0.94658 0.0
H238 H 0.17538 0.76702 0.88122 0.0
H239 H 0.18707 0.87808 0.87125 0.0
Ho240 Ho 0.87528 0.21348 0.68876 0.0
Ho241 Ho 0.83434 0.08426 0.68438 0.0
C242 C 0.7933 0.21291 0.69602 0.0
C243 C 0.89821 0.32674 0.68538 0.0
C244 C 0.88464 0.39091 0.68238 0.0
C245 C 0.90265 0.43587 0.6631 0.0
C246 C 0.89126 0.49791 0.66155 0.0
C247 C 0.86153 0.51619 0.67923 0.0
C248 C 0.84313 0.47047 0.69789 0.0
C249 C 0.85465 0.40855 0.69955 0.0
C250 C 0.875 0.13678 0.7458 0.0
C251 C 0.91551 0.09283 0.66618 0.0
C252 C 0.81141 0.97584 0.70313 0.0
C253 C 0.81473 0.90952 0.69333 0.0
C254 C 0.79187 0.86591 0.70726 0.0
C255 C 0.7971 0.80174 0.70233 0.0
C256 C 0.8254 0.78 0.68343 0.0
C257 C 0.84749 0.82414 0.66822 0.0
C258 C 0.84223 0.88839 0.67318 0.0
C259 C 0.84105 0.13502 0.6195 0.0
O260 O 0.82121 0.24483 0.68903 0.0
O261 O 0.79273 0.15101 0.69936 0.0
O262 O 0.89211 0.2973 0.71491 0.0
O263 O 0.89497 0.29064 0.65778 0.0
O264 O 0.90122 0.16894 0.73582 0.0
O265 O 0.85057 0.14845 0.72563 0.0
O266 O 0.8896 0.05789 0.67707 0.0
O267 O 0.91399 0.15434 0.66332 0.0
O268 O 0.79533 1.01286 0.68126 0.0
O269 O 0.83872 1.00143 0.71618 0.0
O270 O 0.82517 0.08299 0.62584 0.0
O271 O 0.852 0.15624 0.64815 0.0
H272 H 0.92594 0.42326 0.6498 0.0
H273 H 0.90634 0.5319 0.64735 0.0
H274 H 0.8199 0.48258 0.71141 0.0
H275 H 0.84042 0.37471 0.71475 0.0
H276 H 0.77054 0.88141 0.72293 0.0
H277 H 0.77931 0.76908 0.7139 0.0
H278 H 0.86968 0.80903 0.65378 0.0
H279 H 0.86026 0.92146 0.66238 0.0
Ho280 Ho 0.0871 0.8572 0.68765 0.0
Ho281 Ho 0.12805 0.98616 0.68274 0.0
C282 C 0.16906 0.85736 0.69355 0.0
C283 C 0.06421 0.74393 0.68488 0.0
C284 C 0.07713 0.67955 0.68007 0.0
C285 C 0.05913 0.63787 0.65868 0.0
C286 C 0.06937 0.57537 0.65564 0.0
C287 C 0.09788 0.55318 0.67401 0.0
C288 C 0.11643 0.59559 0.69471 0.0
C289 C 0.10612 0.65811 0.69775 0.0
C290 C 0.08734 0.93413 0.74452 0.0
C291 C 0.04676 0.97775 0.6652 0.0
C292 C 0.15084 0.09498 0.70082 0.0
C293 C 0.14666 0.16086 0.69038 0.0
C294 C 0.16685 0.20676 0.70616 0.0
C295 C 0.16047 0.27032 0.7001 0.0
C296 C 0.13363 0.28913 0.67819 0.0
C297 C 0.11422 0.24266 0.66139 0.0
C298 C 0.12066 0.17907 0.66747 0.0
C299 C 0.12113 0.93549 0.61792 0.0
O300 O 0.14109 0.82582 0.68652 0.0
O301 O 0.16974 0.91917 0.69732 0.0
O302 O 0.07239 0.77221 0.71417 0.0
O303 O 0.06539 0.7811 0.65749 0.0
O304 O 0.06119 0.90179 0.73467 0.0
O305 O 0.11181 0.92241 0.72435 0.0
O306 O 0.07277 1.01262 0.67573 0.0
O307 O 0.04821 0.91623 0.66247 0.0
O308 O 0.1668 0.05794 0.67889 0.0
O309 O 0.1239 0.06897 0.71452 0.0
O310 O 0.13703 0.98747 0.62415 0.0
O311 O 0.11024 0.91418 0.64665 0.0
H312 H 0.03672 0.65343 0.64476 0.0
H313 H 0.0548 0.5443 0.63906 0.0
H314 H 0.13827 0.58004 0.70952 0.0
H315 H 0.12038 0.68924 0.71457 0.0
H316 H 0.18685 0.1935 0.72416 0.0
H317 H 0.17567 0.30467 0.71379 0.0
H318 H 0.09367 0.25544 0.64398 0.0
H319 H 0.10473 0.14416 0.65513 0.0
Ho320 Ho 0.62581 0.59421 0.18216 0.0
Ho321 Ho 0.58592 0.71355 0.19296 0.0
C322 C 0.54393 0.59686 0.17043 0.0
C323 C 0.65065 0.48142 0.18334 0.0
C324 C 0.64017 0.41514 0.18514 0.0
C325 C 0.60817 0.39716 0.19768 0.0
C326 C 0.59941 0.33349 0.19955 0.0
C327 C 0.6225 0.28667 0.18896 0.0
C328 C 0.65442 0.30538 0.17626 0.0
C329 C 0.66311 0.36881 0.17441 0.0
C330 C 0.62559 0.67112 0.12544 0.0
C331 C 0.66741 0.71665 0.20002 0.0
C332 C 0.56039 0.82574 0.19536 0.0
C333 C 0.5708 0.89218 0.1953 0.0
C334 C 0.60269 0.91122 0.18298 0.0
C335 C 0.61139 0.97497 0.1825 0.0
C336 C 0.58828 1.02089 0.19421 0.0
C337 C 0.55651 1.00117 0.20681 0.0
C338 C 0.54792 0.93758 0.20735 0.0
C339 C 0.58629 0.63145 0.24777 0.0
O340 O 0.57089 0.56316 0.17921 0.0
O341 O 0.54496 0.65835 0.16874 0.0
O342 O 0.64347 0.51169 0.15447 0.0
O343 O 0.64583 0.51548 0.2114 0.0
O344 O 0.65153 0.63943 0.13644 0.0
O345 O 0.60045 0.66003 0.1452 0.0
O346 O 0.63949 0.74796 0.19265 0.0
O347 O 0.66787 0.65481 0.20195 0.0
O348 O 0.56802 0.79295 0.22323 0.0
O349 O 0.56497 0.79433 0.16628 0.0
O350 O 0.55991 0.66324 0.23809 0.0
O351 O 0.61106 0.64646 0.22873 0.0
H352 H 0.59009 0.43223 0.20618 0.0
H353 H 0.57474 0.32095 0.20979 0.0
H354 H 0.67266 0.27101 0.1673 0.0
H355 H 0.6879 0.38174 0.16457 0.0
H356 H 0.6207 0.87693 0.17342 0.0
H357 H 0.63595 0.98835 0.17231 0.0
H358 H 0.53828 1.03487 0.21657 0.0
H359 H 0.52321 0.92384 0.21707 0.0
Ho360 Ho 0.33213 0.48455 0.18225 0.0
Ho361 Ho 0.37346 0.35509 0.18722 0.0
C362 C 0.41388 0.47711 0.16698 0.0
C363 C 0.30882 0.59333 0.19993 0.0
C364 C 0.31336 0.65919 0.18959 0.0
C365 C 0.29289 0.70532 0.2049 0.0
C366 C 0.29954 0.76882 0.19899 0.0
C367 C 0.32693 0.78736 0.1777 0.0
C368 C 0.34666 0.74067 0.16138 0.0
C369 C 0.33995 0.67715 0.1673 0.0
C370 C 0.34069 0.43406 0.11747 0.0
C371 C 0.2913 0.35552 0.19293 0.0
C372 C 0.39665 0.24202 0.18355 0.0
C373 C 0.38384 0.17758 0.17896 0.0
C374 C 0.40226 0.13534 0.15824 0.0
C375 C 0.39205 0.07281 0.15545 0.0
C376 C 0.36316 0.05117 0.1734 0.0
C377 C 0.34421 0.09414 0.19344 0.0
C378 C 0.35449 0.15669 0.19624 0.0
C379 C 0.3722 0.43135 0.24431 0.0
O380 O 0.38738 0.51142 0.17688 0.0
O381 O 0.41287 0.41557 0.16375 0.0
O382 O 0.29342 0.55638 0.17759 0.0
O383 O 0.3354 0.56716 0.21428 0.0
O384 O 0.32445 0.48588 0.12336 0.0
O385 O 0.35097 0.41308 0.14644 0.0
O386 O 0.31939 0.32384 0.18626 0.0
O387 O 0.29049 0.41739 0.19646 0.0
O388 O 0.38899 0.27 0.21312 0.0
O389 O 0.39472 0.27939 0.15628 0.0
O390 O 0.39842 0.39851 0.23499 0.0
O391 O 0.3481 0.41999 0.22365 0.0
H392 H 0.27243 0.69227 0.22243 0.0
H393 H 0.28407 0.80334 0.21231 0.0
H394 H 0.36764 0.75323 0.14445 0.0
H395 H 0.3561 0.64208 0.15533 0.0
H396 H 0.42495 0.15048 0.14466 0.0
H397 H 0.40695 0.04129 0.13938 0.0
H398 H 0.32206 0.07904 0.20792 0.0
H399 H 0.33992 0.18829 0.21256 0.0
Ho400 Ho 0.62525 0.47285 0.41788 0.0
Ho401 Ho 0.58572 0.35336 0.40849 0.0
C402 C 0.54333 0.4709 0.42878 0.0
C403 C 0.65017 0.58545 0.41589 0.0
C404 C 0.63975 0.65179 0.41468 0.0
C405 C 0.6073 0.67016 0.40368 0.0
C406 C 0.59857 0.7339 0.40248 0.0
C407 C 0.6221 0.78031 0.41235 0.0
C408 C 0.65454 0.76125 0.42331 0.0
C409 C 0.66321 0.69777 0.42446 0.0
C410 C 0.62417 0.39889 0.47592 0.0
C411 C 0.66715 0.35044 0.40051 0.0
C412 C 0.56018 0.24122 0.4079 0.0
C413 C 0.5707 0.17486 0.40737 0.0
C414 C 0.60309 0.15594 0.41824 0.0
C415 C 0.61189 0.09224 0.41837 0.0
C416 C 0.58846 0.04627 0.40764 0.0
C417 C 0.55616 0.06587 0.39651 0.0
C418 C 0.54744 0.12941 0.39637 0.0
C419 C 0.58641 0.43285 0.3525 0.0
O420 O 0.57034 0.50417 0.41977 0.0
O421 O 0.54449 0.40957 0.43166 0.0
O422 O 0.64397 0.55507 0.44496 0.0
O423 O 0.64426 0.55165 0.38798 0.0
O424 O 0.65044 0.42881 0.46423 0.0
O425 O 0.59935 0.40921 0.45565 0.0
O426 O 0.63941 0.31902 0.40839 0.0
O427 O 0.66735 0.4122 0.39816 0.0
O428 O 0.56613 0.27388 0.37953 0.0
O429 O 0.56643 0.27275 0.43658 0.0
O430 O 0.55998 0.40154 0.36251 0.0
O431 O 0.61106 0.41871 0.37187 0.0
H432 H 0.5888 0.63532 0.39604 0.0
H433 H 0.57327 0.74677 0.39423 0.0
H434 H 0.6735 0.7955 0.43054 0.0
H435 H 0.68844 0.68453 0.43284 0.0
H436 H 0.62144 0.19029 0.42683 0.0
H437 H 0.63713 0.07907 0.42668 0.0
H438 H 0.53728 1.03199 0.38856 0.0
H439 H 0.52226 0.14306 0.38802 0.0
Ho440 Ho 0.33191 0.58318 0.40782 0.0
Ho441 Ho 0.37359 0.71201 0.40236 0.0
C442 C 0.41328 0.59055 0.42496 0.0
C443 C 0.30886 0.47424 0.39028 0.0
C444 C 0.31326 0.40834 0.40067 0.0
C445 C 0.33976 0.39015 0.42297 0.0
C446 C 0.34645 0.32655 0.42878 0.0
C447 C 0.3268 0.28002 0.41232 0.0
C448 C 0.29946 0.29881 0.39106 0.0
C449 C 0.29282 0.36238 0.38527 0.0
C450 C 0.33955 0.63509 0.47229 0.0
C451 C 0.29157 0.71237 0.39614 0.0
C452 C 0.39675 0.82511 0.40509 0.0
C453 C 0.38396 0.88963 0.40973 0.0
C454 C 0.35473 0.91085 0.39237 0.0
C455 C 0.34443 0.9734 0.39536 0.0
C456 C 0.36322 1.01608 0.41565 0.0
C457 C 0.392 0.99414 0.43365 0.0
C458 C 0.40224 0.93161 0.43068 0.0
C459 C 0.37271 0.63441 0.34581 0.0
O460 O 0.38702 0.55605 0.41473 0.0
O461 O 0.41231 0.6522 0.42733 0.0
O462 O 0.29322 0.51137 0.41243 0.0
O463 O 0.33558 0.50023 0.3761 0.0
O464 O 0.32326 0.58332 0.46656 0.0
O465 O 0.35028 0.65542 0.44331 0.0
O466 O 0.31962 0.74367 0.40321 0.0
O467 O 0.29062 0.6505 0.39268 0.0
O468 O 0.38866 0.79675 0.37579 0.0
O469 O 0.39532 0.78807 0.43253 0.0
O470 O 0.399 0.66684 0.3552 0.0
O471 O 0.34846 0.64667 0.36616 0.0
H472 H 0.35589 0.42508 0.435 0.0
H473 H 0.36738 0.31382 0.4457 0.0
H474 H 0.28404 0.26445 0.37764 0.0
H475 H 0.27244 0.3756 0.36773 0.0
H476 H 0.34027 0.8795 0.37587 0.0
H477 H 0.32236 0.98874 0.38083 0.0
H478 H 0.40678 1.02542 0.44991 0.0
H479 H 0.42483 0.91623 0.44434 0.0
Ho480 Ho 0.37429 0.35705 0.9027 0.0
Ho481 Ho 0.333 0.48599 0.9084 0.0
C482 C 0.29215 0.35729 0.8975 0.0
C483 C 0.39761 0.24393 0.90507 0.0
C484 C 0.38509 0.17935 0.90998 0.0
C485 C 0.3553 0.15839 0.89368 0.0
C486 C 0.34521 0.09578 0.8968 0.0
C487 C 0.36479 0.05279 0.91617 0.0
C488 C 0.39419 0.07444 0.9331 0.0
C489 C 0.4042 0.13705 0.93001 0.0
C490 C 0.37365 0.43493 0.84618 0.0
C491 C 0.41437 0.47789 0.92539 0.0
C492 C 0.31001 0.59519 0.89099 0.0
C493 C 0.31477 0.66093 0.90137 0.0
C494 C 0.34201 0.6787 0.92274 0.0
C495 C 0.34887 0.74217 0.92855 0.0
C496 C 0.32861 0.78899 0.91304 0.0
C497 C 0.30056 0.77062 0.89275 0.0
C498 C 0.29377 0.70717 0.88694 0.0
C499 C 0.34072 0.43397 0.97289 0.0
O500 O 0.32026 0.32563 0.90408 0.0
O501 O 0.29133 0.41918 0.89402 0.0
O502 O 0.38889 0.27232 0.87593 0.0
O503 O 0.39657 0.28086 0.93252 0.0
O504 O 0.39984 0.4022 0.85565 0.0
O505 O 0.34927 0.42296 0.86646 0.0
O506 O 0.38815 0.51275 0.91528 0.0
O507 O 0.41328 0.41623 0.9276 0.0
O508 O 0.29452 0.55821 0.91333 0.0
O509 O 0.33646 0.56884 0.87646 0.0
O510 O 0.32463 0.48602 0.96714 0.0
O511 O 0.35131 0.41341 0.94392 0.0
H512 H 0.34023 0.19 0.87786 0.0
H513 H 0.32266 0.08064 0.88309 0.0
H514 H 0.40961 0.04289 0.94862 0.0
H515 H 0.42726 0.15224 0.94282 0.0
H516 H 0.35856 0.64355 0.93405 0.0
H517 H 0.37036 0.75459 0.94473 0.0
H518 H 0.28465 0.80525 0.88008 0.0
H519 H 0.27279 0.69427 0.87013 0.0
Ho520 Ho 0.58671 0.71354 0.90808 0.0
Ho521 Ho 0.62665 0.59425 0.91932 0.0
C522 C 0.66818 0.71658 0.90044 0.0
C523 C 0.56123 0.82581 0.90588 0.0
C524 C 0.57168 0.89226 0.90585 0.0
C525 C 0.60361 0.91123 0.91799 0.0
C526 C 0.61231 0.97498 0.91845 0.0
C527 C 0.58918 1.02099 0.90688 0.0
C528 C 0.55737 1.00134 0.89444 0.0
C529 C 0.54878 0.93775 0.89394 0.0
C530 C 0.58711 0.63127 0.85349 0.0
C531 C 0.5446 0.59669 0.92985 0.0
C532 C 0.65153 0.48145 0.91922 0.0
C533 C 0.64113 0.41518 0.91688 0.0
C534 C 0.60921 0.39744 0.90413 0.0
C535 C 0.60045 0.3338 0.90196 0.0
C536 C 0.62348 0.28677 0.91245 0.0
C537 C 0.65535 0.30524 0.9253 0.0
C538 C 0.66402 0.36864 0.92746 0.0
C539 C 0.62604 0.67189 0.97571 0.0
O540 O 0.64028 0.74796 0.90777 0.0
O541 O 0.66871 0.65469 0.89904 0.0
O542 O 0.56865 0.79311 0.87794 0.0
O543 O 0.56597 0.79426 0.93492 0.0
O544 O 0.56083 0.66365 0.86287 0.0
O545 O 0.61186 0.64599 0.87256 0.0
O546 O 0.57167 0.56323 0.92115 0.0
O547 O 0.54565 0.6581 0.93208 0.0
O548 O 0.64301 0.51152 0.94774 0.0
O549 O 0.648 0.5157 0.89099 0.0
O550 O 0.65213 0.64051 0.96479 0.0
O551 O 0.60105 0.66008 0.95598 0.0
H552 H 0.62164 0.87688 0.92744 0.0
H553 H 0.6369 0.98828 0.92852 0.0
H554 H 0.53912 1.0351 0.8848 0.0
H555 H 0.52404 0.92408 0.88436 0.0
H556 H 0.59119 0.43268 0.89573 0.0
H557 H 0.57583 0.32145 0.89161 0.0
H558 H 0.67353 0.2707 0.93418 0.0
H559 H 0.68875 0.38138 0.93746 0.0
Ho560 Ho 0.37512 0.71341 0.68651 0.0
Ho561 Ho 0.3339 0.58437 0.68182 0.0
C562 C 0.29309 0.7135 0.69268 0.0
C563 C 0.39819 0.82653 0.68297 0.0
C564 C 0.3853 0.89102 0.67847 0.0
C565 C 0.35628 0.91211 0.69627 0.0
C566 C 0.34597 0.9747 0.69351 0.0
C567 C 0.36455 1.01752 0.67299 0.0
C568 C 0.3931 0.99568 0.65452 0.0
C569 C 0.40334 0.93312 0.65727 0.0
C570 C 0.37408 0.6371 0.74372 0.0
C571 C 0.4155 0.59192 0.6655 0.0
C572 C 0.31083 0.47561 0.69988 0.0
C573 C 0.31521 0.40974 0.68958 0.0
C574 C 0.34141 0.3917 0.66682 0.0
C575 C 0.34799 0.32814 0.66084 0.0
C576 C 0.32854 0.28152 0.67757 0.0
C577 C 0.30153 0.30016 0.69935 0.0
C578 C 0.295 0.36368 0.70532 0.0
C579 C 0.34167 0.63491 0.61693 0.0
O580 O 0.32113 0.74501 0.68572 0.0
O581 O 0.2923 0.65162 0.69628 0.0
O582 O 0.39063 0.79826 0.7125 0.0
O583 O 0.39626 0.78941 0.65566 0.0
O584 O 0.40035 0.66947 0.73411 0.0
O585 O 0.34988 0.6486 0.72319 0.0
O586 O 0.38919 0.55749 0.6758 0.0
O587 O 0.4143 0.65344 0.66234 0.0
O588 O 0.29516 0.51265 0.67771 0.0
O589 O 0.33758 0.50166 0.71387 0.0
O590 O 0.32555 0.58309 0.62309 0.0
O591 O 0.35229 0.656 0.64573 0.0
H592 H 0.34201 0.88064 0.71297 0.0
H593 H 0.3241 0.98995 0.7084 0.0
H594 H 0.4077 1.02707 0.63807 0.0
H595 H 0.42577 0.91782 0.64326 0.0
H596 H 0.35736 0.42671 0.65451 0.0
H597 H 0.36866 0.31552 0.64352 0.0
H598 H 0.28628 0.2657 0.713 0.0
H599 H 0.27485 0.3768 0.7232 0.0
Ho600 Ho 0.58654 0.35408 0.69313 0.0
Ho601 Ho 0.62744 0.48307 0.68745 0.0
C602 C 0.66858 0.35454 0.69837 0.0
C603 C 0.56348 0.24091 0.69075 0.0
C604 C 0.57621 0.17646 0.68584 0.0
C605 C 0.60559 0.15513 0.70286 0.0
C606 C 0.61576 0.09255 0.69977 0.0
C607 C 0.59668 0.04999 0.67969 0.0
C608 C 0.56777 0.07208 0.66198 0.0
C609 C 0.55766 0.13463 0.66506 0.0
C610 C 0.58713 0.43139 0.7498 0.0
C611 C 0.54623 0.47475 0.66991 0.0
C612 C 0.65046 0.59179 0.70533 0.0
C613 C 0.64577 0.65773 0.69529 0.0
C614 C 0.6192 0.67589 0.67309 0.0
C615 C 0.61255 0.73947 0.66723 0.0
C616 C 0.63234 0.78596 0.68352 0.0
C617 C 0.6597 0.7672 0.70476 0.0
C618 C 0.66628 0.70366 0.71061 0.0
C619 C 0.62046 0.43073 0.62295 0.0
O620 O 0.64059 0.32272 0.69179 0.0
O621 O 0.66922 0.41639 0.70187 0.0
O622 O 0.57206 0.26922 0.71991 0.0
O623 O 0.56444 0.27798 0.6633 0.0
O624 O 0.56093 0.39894 0.74021 0.0
O625 O 0.61149 0.41969 0.72946 0.0
O626 O 0.5723 0.50982 0.68006 0.0
O627 O 0.5475 0.41309 0.66799 0.0
O628 O 0.66583 0.55527 0.68269 0.0
O629 O 0.62404 0.56529 0.71985 0.0
O630 O 0.63646 0.48282 0.62872 0.0
O631 O 0.60957 0.41048 0.65191 0.0
H632 H 0.62027 0.1864 0.7192 0.0
H633 H 0.63793 0.07707 0.71408 0.0
H634 H 0.55278 0.04087 0.64588 0.0
H635 H 0.53495 0.15013 0.65167 0.0
H636 H 0.60304 0.64096 0.6611 0.0
H637 H 0.5916 0.75223 0.65035 0.0
H638 H 0.67521 0.80158 0.71806 0.0
H639 H 0.68674 0.69042 0.72805 0.0
C640 C 0.19801 0.31508 0.1965 0.0
C641 C 0.19879 0.2491 0.19589 0.0
H642 H 0.22639 0.40042 0.19637 0.0
C643 C 0.23026 0.21859 0.19615 0.0
H644 H 0.17422 0.34024 0.19641 0.0
C645 C 0.26024 0.25329 0.19588 0.0
C646 C 0.25944 0.31928 0.19566 0.0
H647 H 0.23183 0.16793 0.19566 0.0
H648 H 0.28403 0.22814 0.1953 0.0
C649 C 0.22797 0.34976 0.19653 0.0
C650 C 0.76062 0.75642 0.2007 0.0
C651 C 0.75989 0.82239 0.20132 0.0
H652 H 0.73214 0.67123 0.20021 0.0
C653 C 0.72853 0.85292 0.20433 0.0
H654 H 0.78432 0.73121 0.19859 0.0
C655 C 0.69853 0.8183 0.20517 0.0
C656 C 0.69927 0.75244 0.20321 0.0
H657 H 0.72703 0.90357 0.20503 0.0
H658 H 0.67472 0.84337 0.20664 0.0
C659 C 0.73067 0.72183 0.20176 0.0
C660 C 0.22838 0.71924 0.39106 0.0
C661 C 0.25993 0.74913 0.393 0.0
H662 H 0.17464 0.7298 0.39034 0.0
C663 C 0.26102 0.81511 0.39352 0.0
H664 H 0.2266 0.66862 0.39052 0.0
C665 C 0.23123 0.85035 0.39325 0.0
C666 C 0.19967 0.82038 0.39273 0.0
H667 H 0.28488 0.83982 0.39488 0.0
H668 H 0.23298 0.90093 0.39456 0.0
C669 C 0.19857 0.75447 0.39104 0.0
C670 C 0.7605 0.31221 0.39707 0.0
C671 C 0.7602 0.24629 0.3959 0.0
H672 H 0.73153 0.39681 0.39904 0.0
C673 C 0.72895 0.21521 0.39383 0.0
H674 H 0.78405 0.33784 0.39867 0.0
C675 C 0.6987 0.24925 0.39427 0.0
C676 C 0.6991 0.31507 0.39657 0.0
H677 H 0.72775 0.16455 0.39281 0.0
H678 H 0.67501 0.22381 0.39341 0.0
C679 C 0.73032 0.34622 0.39723 0.0
C680 C 0.73141 0.72214 0.89694 0.0
C681 C 0.69993 0.75253 0.89627 0.0
H682 H 0.7851 0.73187 0.89828 0.0
C683 C 0.69903 0.81837 0.89384 0.0
H684 H 0.73301 0.67158 0.89877 0.0
C685 C 0.72899 0.85318 0.89346 0.0
C686 C 0.76046 0.82289 0.89565 0.0
H687 H 0.67515 0.84329 0.89294 0.0
H688 H 0.72738 0.90381 0.89245 0.0
C689 C 0.76132 0.75692 0.89675 0.0
C690 C 0.2288 0.35143 0.89448 0.0
C691 C 0.26029 0.32103 0.89503 0.0
H692 H 0.17505 0.34178 0.89512 0.0
C693 C 0.26112 0.25503 0.8948 0.0
H694 H 0.22719 0.40209 0.89469 0.0
C695 C 0.23117 0.22026 0.8948 0.0
C696 C 0.19968 0.25068 0.89535 0.0
H697 H 0.28492 0.22993 0.89516 0.0
H698 H 0.23278 0.1696 0.89524 0.0
C699 C 0.19886 0.31667 0.89479 0.0
C700 C 0.73192 0.34935 0.69977 0.0
C701 C 0.70056 0.31864 0.70066 0.0
H702 H 0.7856 0.34019 0.69731 0.0
C703 C 0.69997 0.25269 0.7019 0.0
H704 H 0.73332 0.39999 0.6987 0.0
C705 C 0.73005 0.2182 0.70141 0.0
C706 C 0.76139 0.24889 0.69934 0.0
H707 H 0.67625 0.22743 0.70271 0.0
H708 H 0.72863 0.16753 0.70176 0.0
C709 C 0.76196 0.31487 0.69893 0.0
C710 C 0.23241 0.85107 0.69646 0.0
C711 C 0.20088 0.82094 0.6962 0.0
H712 H 0.28614 0.84089 0.69543 0.0
C713 C 0.19993 0.75495 0.69676 0.0
H714 H 0.23409 0.90172 0.69601 0.0
C715 C 0.22981 0.71989 0.69664 0.0
C716 C 0.26133 0.75002 0.69568 0.0
H717 H 0.17608 0.73007 0.69669 0.0
H718 H 0.22811 0.66925 0.69639 0.0
C719 C 0.26229 0.81601 0.69605 0.0
C720 C 0.05487 1.00878 0.30803 0.0
C721 C 0.08557 0.9834 0.32024 0.0
H722 H 0.03074 0.07705 0.27485 0.0
C723 C 0.1161 1.00837 0.30737 0.0
H724 H 0.03092 0.99067 0.31751 0.0
C725 C 0.116 0.05823 0.28337 0.0
C726 C 0.08536 0.08364 0.27111 0.0
H727 H 0.14017 0.98975 0.31621 0.0
H728 H 0.13998 0.07664 0.27416 0.0
C729 C 0.05477 0.05857 0.28384 0.0
C730 C 0.84376 0.05943 0.30925 0.0
C731 C 0.87438 0.08456 0.32163 0.0
H732 H 0.81966 0.99141 0.27626 0.0
C733 C 0.905 0.05963 0.3089 0.0
H734 H 0.81975 0.07774 0.31849 0.0
C735 C 0.90495 1.01014 0.28459 0.0
C736 C 0.87427 0.98499 0.27231 0.0
H737 H 0.92901 0.07792 0.318 0.0
H738 H 0.92891 0.99205 0.27513 0.0
C739 C 0.8437 1.00988 0.28515 0.0
C740 C 0.84449 0.06118 0.78514 0.0
C741 C 0.87517 0.08607 0.77263 0.0
H742 H 0.82024 0.99317 0.8182 0.0
C743 C 0.90574 0.06077 0.78524 0.0
H744 H 0.82053 0.07975 0.776 0.0
C745 C 0.90557 1.01115 0.80954 0.0
C746 C 0.87483 0.98619 0.82194 0.0
H747 H 0.92978 0.07885 0.77603 0.0
H748 H 0.92949 0.99277 0.8189 0.0
C749 C 0.84432 1.01148 0.80923 0.0
C750 C 0.05602 0.06015 0.80751 0.0
C751 C 0.08657 0.08526 0.82019 0.0
H752 H 0.03227 0.99223 0.77398 0.0
C753 C 0.11725 0.05995 0.8079 0.0
H754 H 0.03196 0.07854 0.81652 0.0
C755 C 0.11742 1.01015 0.78392 0.0
C756 C 0.08692 0.98509 0.77115 0.0
H757 H 0.14121 0.07838 0.81708 0.0
H758 H 0.14151 0.99159 0.77507 0.0
C759 C 0.05619 1.0104 0.78337 0.0
C760 C 0.61709 0.50786 0.31255 0.0
C761 C 0.58648 0.48319 0.32543 0.0
H762 H 0.64104 0.57403 0.27798 0.0
C763 C 0.55585 0.50775 0.31255 0.0
H764 H 0.6411 0.48979 0.32185 0.0
C765 C 0.55582 0.55624 0.28761 0.0
C766 C 0.58642 0.58077 0.27464 0.0
H767 H 0.53185 0.48991 0.32203 0.0
H768 H 0.5318 0.5742 0.27827 0.0
C769 C 0.61706 0.55596 0.28736 0.0
C770 C 0.34208 0.55831 0.30695 0.0
C771 C 0.37275 0.5832 0.31938 0.0
H772 H 0.31788 0.48987 0.27423 0.0
C773 C 0.40332 0.55754 0.307 0.0
H774 H 0.31811 0.5772 0.31592 0.0
C775 C 0.40318 0.50758 0.28303 0.0
C776 C 0.37247 0.48261 0.27071 0.0
H777 H 0.42736 0.57561 0.31614 0.0
H778 H 0.42713 0.48896 0.27386 0.0
C779 C 0.34194 0.50821 0.28317 0.0
C780 C 0.40464 0.5112 0.80722 0.0
C781 C 0.37394 0.48609 0.81962 0.0
H782 H 0.42879 0.5791 0.77382 0.0
C783 C 0.3434 0.51137 0.80699 0.0
H784 H 0.42859 0.49283 0.8165 0.0
C785 C 0.34351 0.56117 0.78294 0.0
C786 C 0.37417 0.58622 0.77045 0.0
H787 H 0.31934 0.49291 0.81595 0.0
H788 H 0.31954 0.57973 0.77381 0.0
C789 C 0.40475 0.56093 0.78301 0.0
C790 C 0.61766 0.55342 0.81529 0.0
C791 C 0.58708 0.57976 0.82718 0.0
H792 H 0.64162 0.48582 0.78168 0.0
C793 C 0.55646 0.55595 0.81393 0.0
H794 H 0.64167 0.57085 0.82488 0.0
C795 C 0.55642 0.50702 0.7893 0.0
C796 C 0.58703 0.48132 0.77705 0.0
H797 H 0.53247 0.57499 0.82271 0.0
H798 H 0.53243 0.48998 0.77943 0.0
C799 C 0.61763 0.50478 0.79053 0.0
C800 C 0.14506 0.17867 1.02755 0.0
C801 C 0.11528 0.16667 1.00872 0.0
H802 H 0.16884 0.1811 0.07799 0.0
C803 C 0.08455 0.1612 1.02714 0.0
H804 H 0.16914 0.18164 1.01398 0.0
C805 C 0.08437 0.16088 0.06409 0.0
C806 C 0.11492 0.16603 0.08276 0.0
H807 H 0.06143 0.15003 1.0132 0.0
H808 H 0.06112 0.14948 0.0778 0.0
C809 C 0.14488 0.17836 0.06422 0.0
C810 C 0.87225 0.90975 1.02903 0.0
C811 C 0.8416 0.90915 1.01029 0.0
H812 H 0.89546 0.91704 0.08002 0.0
C813 C 0.81116 0.90142 1.02876 0.0
H814 H 0.89596 0.91745 1.01535 0.0
C815 C 0.81087 0.90126 0.06539 0.0
C816 C 0.84102 0.90876 0.08431 0.0
H817 H 0.78719 0.902 1.01492 0.0
H818 H 0.78668 0.90171 0.07888 0.0
C819 C 0.87196 0.90952 0.06601 0.0
C820 C 0.14917 0.90087 0.52712 0.0
C821 C 0.11888 0.9085 0.50845 0.0
H822 H 0.17322 0.90109 0.5774 0.0
C823 C 0.08807 0.90918 0.527 0.0
H824 H 0.17325 0.90138 0.51344 0.0
C825 C 0.08805 0.90906 0.56398 0.0
C826 C 0.11883 0.9082 0.58249 0.0
H827 H 0.06446 0.91681 0.51316 0.0
H828 H 0.06443 0.91666 0.57785 0.0
C829 C 0.14914 0.90066 0.56376 0.0
C830 C 0.81317 0.17066 0.56546 0.0
C831 C 0.84346 0.1623 0.58405 0.0
H832 H 0.78893 0.17025 0.51527 0.0
C833 C 0.87419 0.16039 0.56539 0.0
H834 H 0.78913 0.17102 0.57924 0.0
C835 C 0.87407 0.15997 0.52842 0.0
C836 C 0.84322 0.16141 0.51005 0.0
H837 H 0.89777 0.15214 0.57916 0.0
H838 H 0.89756 0.15144 0.51451 0.0
C839 C 0.81305 0.1702 0.52883 0.0
C840 C 0.59257 0.68233 0.069 0.0
C841 C 0.62312 0.68806 0.08773 0.0
H842 H 0.56927 0.67333 1.01818 0.0
C843 C 0.65309 0.69989 0.06899 0.0
H844 H 0.56908 0.67299 0.08276 0.0
C845 C 0.65319 0.70012 1.03232 0.0
C846 C 0.62334 0.68849 1.01343 0.0
H847 H 0.67696 0.70495 0.08269 0.0
H848 H 0.67714 0.70534 1.01872 0.0
C849 C 0.59268 0.68253 1.03204 0.0
C850 C 0.31393 0.39494 1.02689 0.0
C851 C 0.34391 0.4062 1.00816 0.0
H852 H 0.28986 0.39279 0.07724 0.0
C853 C 0.37458 0.41077 1.02667 0.0
H854 H 0.2899 0.39262 1.01324 0.0
C855 C 0.37456 0.41087 0.06363 0.0
C856 C 0.34386 0.40642 0.0822 0.0
H857 H 0.39786 0.42135 1.01281 0.0
H858 H 0.39783 0.42149 0.07743 0.0
C859 C 0.31391 0.39505 0.06355 0.0
C860 C 0.65058 0.38145 0.53436 0.0
C861 C 0.62093 0.3874 0.51426 0.0
H862 H 0.67328 0.38957 0.58517 0.0
C863 C 0.58971 0.39389 0.53183 0.0
H864 H 0.67498 0.37618 0.52165 0.0
C865 C 0.58876 0.40075 0.56859 0.0
C866 C 0.61897 0.40096 0.58807 0.0
H867 H 0.56645 0.39899 0.51706 0.0
H868 H 0.5649 0.41154 0.58129 0.0
C869 C 0.64962 0.38873 0.57078 0.0
C870 C 0.31379 0.67314 0.56341 0.0
C871 C 0.34413 0.66267 0.58158 0.0
H872 H 0.28896 0.6747 0.51352 0.0
C873 C 0.37457 0.65901 0.56252 0.0
H874 H 0.28994 0.67479 0.5775 0.0
C875 C 0.37401 0.65903 0.52555 0.0
C876 C 0.343 0.66261 0.50756 0.0
H877 H 0.39815 0.64908 0.57595 0.0
H878 H 0.39718 0.64914 0.51132 0.0
C879 C 0.31323 0.67307 0.52676 0.0
C880 C 0.97607 0.97119 0.15832 0.0
C881 C 0.94659 1.00828 0.16003 0.0
H882 H 0.03024 0.96912 0.15867 0.0
C883 C 0.94965 0.07367 0.15949 0.0
H884 H 0.97464 0.92053 0.15858 0.0
C885 C -0.01841 0.10142 0.15916 0.0
C886 C 0.01109 0.06428 0.15984 0.0
H887 H 0.92744 0.10346 0.16052 0.0
H888 H -0.01697 0.15206 0.16008 0.0
C889 C 0.00802 0.99893 0.15845 0.0
C890 C 0.97767 0.09966 0.43355 0.0
C891 C 0.94828 0.06232 0.43289 0.0
H892 H 0.03182 0.10204 0.43209 0.0
C893 C 0.95153 0.99701 0.43416 0.0
H894 H 0.97607 0.15029 0.43267 0.0
C895 C -0.01645 0.96948 0.43423 0.0
C896 C 0.01292 1.00677 0.43254 0.0
H897 H 0.92939 0.96707 0.43394 0.0
H898 H -0.01489 0.91882 0.43392 0.0
C899 C 0.00969 0.07212 0.43313 0.0
C900 C 0.00904 0.99997 0.93372 0.0
C901 C 0.01206 0.06531 0.93215 0.0
H902 H 0.9757 0.9215 0.93432 0.0
C903 C -0.01745 0.1024 0.9332 0.0
H904 H 0.03127 0.97019 0.93323 0.0
C905 C 0.95062 0.0746 0.93346 0.0
C906 C 0.94759 1.0092 0.93314 0.0
H907 H -0.01605 0.15304 0.93215 0.0
H908 H 0.92839 0.10435 0.93271 0.0
C909 C 0.97711 0.97217 0.93444 0.0
C910 C 0.95198 0.99786 0.65956 0.0
C911 C 0.94881 0.06321 0.66054 0.0
H912 H -0.0145 0.91956 0.6596 0.0
C913 C 0.97823 0.10042 0.65917 0.0
H914 H 0.92982 0.96801 0.66033 0.0
C915 C 0.01023 0.07276 0.65915 0.0
C916 C 0.01341 1.0074 0.65999 0.0
H917 H 0.9767 0.15107 0.6598 0.0
H918 H 0.0324 0.10262 0.65961 0.0
C919 C -0.01603 0.97021 0.65905 0.0
C920 C 0.47694 0.47163 0.16298 0.0
C921 C 0.44709 0.50778 0.163 0.0
H922 H 0.53107 0.47141 0.16548 0.0
C923 C 0.44956 0.57327 0.16238 0.0
H924 H 0.47594 0.42093 0.16349 0.0
C925 C 0.4812 0.60209 0.16325 0.0
C926 C 0.51098 0.56596 0.16515 0.0
H927 H 0.42706 0.60237 0.16222 0.0
H928 H 0.48215 0.65279 0.16377 0.0
C929 C 0.50859 0.50046 0.16425 0.0
C930 C 0.44871 0.49448 0.43229 0.0
C931 C 0.44625 0.55993 0.43071 0.0
H932 H 0.48143 0.41498 0.43348 0.0
C933 C 0.47603 0.59611 0.43181 0.0
H934 H 0.42625 0.4654 0.43171 0.0
C935 C 0.50771 0.5673 0.43246 0.0
C936 C 0.51018 0.50182 0.43247 0.0
H937 H 0.47504 0.64678 0.43066 0.0
H938 H 0.53019 0.59633 0.43197 0.0
C939 C 0.48039 0.46569 0.43338 0.0
C940 C 0.44992 0.57359 0.93315 0.0
C941 C 0.44739 0.50819 0.93128 0.0
H942 H 0.4827 0.65285 0.93478 0.0
C943 C 0.47715 0.4718 0.93232 0.0
H944 H 0.42749 0.60284 0.93264 0.0
C945 C 0.50886 0.5004 0.9332 0.0
C946 C 0.51141 0.56588 0.93348 0.0
H947 H 0.47611 0.42117 0.93095 0.0
H948 H 0.53132 0.47123 0.93261 0.0
C949 C 0.48163 0.60216 0.93446 0.0
C950 C 0.45171 0.4962 0.6612 0.0
C951 C 0.44882 0.56164 0.66119 0.0
H952 H 0.48482 0.41737 0.66342 0.0
C953 C 0.47845 0.5983 0.66036 0.0
H954 H 0.4294 0.46671 0.66162 0.0
C955 C 0.51029 0.57012 0.66178 0.0
C956 C 0.51313 0.50475 0.66361 0.0
H957 H 0.47715 0.64899 0.66027 0.0
H958 H 0.53258 0.59965 0.66255 0.0
C959 C 0.48356 0.46801 0.66218 0.0
C960 C 0.08776 0.69537 0.17576 0.0
C961 C 0.12184 0.71413 0.17384 0.0
H962 H 0.05266 0.61928 0.178 0.0
C963 C 0.147 0.66772 0.17083 0.0
H964 H 0.06774 0.72967 0.17879 0.0
C965 C 0.13832 0.60414 0.17042 0.0
C966 C 0.10426 0.58543 0.173 0.0
H967 H 0.17347 0.68051 0.16884 0.0
H968 H 0.15831 0.56962 0.16808 0.0
C969 C 0.07909 0.63191 0.17535 0.0
C970 C 0.86979 0.3762 0.17604 0.0
C971 C 0.83567 0.35741 0.17611 0.0
H972 H 0.90492 0.45233 0.17611 0.0
C973 C 0.81037 0.40378 0.17445 0.0
H974 H 0.88994 0.34193 0.17797 0.0
C975 C 0.81899 0.46737 0.17342 0.0
C976 C 0.85313 0.48613 0.174 0.0
H977 H 0.78384 0.39095 0.17401 0.0
H978 H 0.7989 0.50186 0.17215 0.0
C979 C 0.8784 0.43967 0.175 0.0
C980 C 0.09479 0.37556 0.42267 0.0
C981 C 0.1281 0.35668 0.41497 0.0
H982 H 0.06009 0.45165 0.42887 0.0
C983 C 0.15287 0.40309 0.40961 0.0
H984 H 0.07493 0.34122 0.42635 0.0
C985 C 0.14434 0.46672 0.41111 0.0
C986 C 0.11083 0.48555 0.41796 0.0
H987 H 0.17888 0.39024 0.4041 0.0
H988 H 0.16404 0.50115 0.40679 0.0
C989 C 0.08627 0.43909 0.42411 0.0
C990 C 0.85331 0.61917 0.44537 0.0
C991 C 0.84949 0.58144 0.41536 0.0
H992 H 0.84796 0.71059 0.46797 0.0
C993 C 0.83631 0.60868 0.38465 0.0
H994 H 0.86294 0.59953 0.46961 0.0
C995 C 0.82764 0.67212 0.38377 0.0
C996 C 0.83196 0.7101 0.41356 0.0
H997 H 0.83362 0.58146 0.36085 0.0
H998 H 0.81851 0.69183 0.35933 0.0
C999 C 0.84469 0.68279 0.44446 0.0
C1000 C 0.8707 0.37704 0.91803 0.0
C1001 C 0.83659 0.35817 0.91838 0.0
H1002 H 0.90579 0.45324 0.9176 0.0
C1003 C 0.81128 0.40449 0.92043 0.0
H1004 H 0.89085 0.34283 0.91579 0.0
C1005 C 0.81989 0.46809 0.92144 0.0
C1006 C 0.854 0.48693 0.92044 0.0
H1007 H 0.78477 0.3916 0.92121 0.0
H1008 H 0.79978 0.50253 0.92302 0.0
C1009 C 0.87928 0.44052 0.91904 0.0
C1010 C 0.07964 0.63316 0.91565 0.0
C1011 C 0.10478 0.58668 0.9183 0.0
H1012 H 0.06834 0.73093 0.91201 0.0
C1013 C 0.13881 0.60539 0.92124 0.0
H1014 H 0.05325 0.62052 0.91273 0.0
C1015 C 0.14749 0.66897 0.92089 0.0
C1016 C 0.12237 0.71539 0.91756 0.0
H1017 H 0.15876 0.57086 0.92382 0.0
H1018 H 0.17393 0.68175 0.92316 0.0
C1019 C 0.08832 0.69663 0.91528 0.0
C1020 C 0.82909 0.67367 0.71139 0.0
C1021 C 0.83297 0.71174 0.6815 0.0
H1022 H 0.8355 0.58299 0.7343 0.0
C1023 C 0.84534 0.68452 0.65043 0.0
H1024 H 0.82025 0.6933 0.73595 0.0
C1025 C 0.85401 0.62092 0.64943 0.0
C1026 C 0.85064 0.58308 0.67952 0.0
H1027 H 0.84825 0.71237 0.62683 0.0
H1028 H 0.86331 0.60138 0.62503 0.0
C1029 C 0.83784 0.61025 0.71043 0.0
C1030 C 0.09055 0.37569 0.67518 0.0
C1031 C 0.12466 0.35671 0.67471 0.0
H1032 H 0.05545 0.45201 0.67583 0.0
C1033 C 0.14996 0.40297 0.6727 0.0
H1034 H 0.0704 0.34153 0.6774 0.0
C1035 C 0.14135 0.4666 0.67184 0.0
C1036 C 0.10723 0.48554 0.67295 0.0
H1037 H 0.17647 0.39001 0.67184 0.0
H1038 H 0.16144 0.50099 0.67029 0.0
C1039 C 0.08196 0.43921 0.67431 0.0
C1040 C 0.57268 0.13399 0.18328 0.0
C1041 C 0.59703 0.08903 0.1931 0.0
H1042 H 0.56156 0.23082 0.17385 0.0
C1043 C 0.62971 0.10983 0.20195 0.0
H1044 H 0.5474 0.11975 0.17576 0.0
C1045 C 0.63782 0.17371 0.20093 0.0
C1046 C 0.61352 0.21866 0.19092 0.0
H1047 H 0.64896 0.07681 0.2102 0.0
H1048 H 0.66311 0.1879 0.20841 0.0
C1049 C 0.5808 0.19786 0.18222 0.0
C1050 C 0.3109 0.90133 0.17169 0.0
C1051 C 0.33608 0.85487 0.17435 0.0
H1052 H 0.29961 0.99943 0.1687 0.0
C1053 C 0.37019 0.87359 0.1755 0.0
H1054 H 0.28439 0.88859 0.1703 0.0
C1055 C 0.3789 0.93703 0.1746 0.0
C1056 C 0.35373 0.98357 0.17253 0.0
H1057 H 0.39024 0.83928 0.17824 0.0
H1058 H 0.40538 0.94963 0.17661 0.0
C1059 C 0.31962 0.96489 0.1708 0.0
C1060 C 0.61636 0.95321 0.43652 0.0
C1061 C 0.5973 0.97816 0.40862 0.0
H1062 H 0.63845 0.87169 0.45997 0.0
C1063 C 0.58626 0.93723 0.38203 0.0
H1064 H 0.62478 0.98293 0.4578 0.0
C1065 C 0.59403 0.87319 0.38333 0.0
C1066 C 0.61314 0.84832 0.41121 0.0
H1067 H 0.57195 0.9548 0.35987 0.0
H1068 H 0.58557 0.84336 0.36211 0.0
C1069 C 0.62415 0.88924 0.4378 0.0
C1070 C 0.3196 0.10238 0.41849 0.0
C1071 C 0.35373 0.08369 0.41679 0.0
H1072 H 0.28431 0.17871 0.41921 0.0
C1073 C 0.37887 0.13023 0.41502 0.0
H1074 H 0.2996 0.06784 0.42037 0.0
C1075 C 0.37012 0.1937 0.41436 0.0
C1076 C 0.33598 0.21245 0.41546 0.0
H1077 H 0.40538 0.11763 0.41304 0.0
H1078 H 0.39016 0.22802 0.41183 0.0
C1079 C 0.31083 0.16597 0.41785 0.0
C1080 C 0.37188 0.87526 0.91371 0.0
C1081 C 0.33783 0.85647 0.91615 0.0
H1082 H 0.40696 0.9514 0.9113 0.0
C1083 C 0.31273 0.90285 0.91983 0.0
H1084 H 0.39183 0.841 0.91016 0.0
C1085 C 0.32144 0.96642 0.92043 0.0
C1086 C 0.35546 0.98517 0.91738 0.0
H1087 H 0.2863 0.89004 0.92223 0.0
H1088 H 0.3015 1.0009 0.92332 0.0
C1089 C 0.38057 0.93871 0.91432 0.0
C1090 C 0.5817 0.19794 0.91898 0.0
C1091 C 0.61445 0.21879 0.91031 0.0
H1092 H 0.54827 0.11981 0.92538 0.0
C1093 C 0.63876 0.17389 0.90025 0.0
H1094 H 0.56246 0.23085 0.92739 0.0
C1095 C 0.63063 0.11003 0.89915 0.0
C1096 C 0.59794 0.08916 0.908 0.0
H1097 H 0.66408 0.18813 0.8928 0.0
H1098 H 0.6499 0.07706 0.89087 0.0
C1099 C 0.57357 0.13408 0.91786 0.0
C1100 C 0.32101 0.10402 0.67108 0.0
C1101 C 0.35514 0.08517 0.67215 0.0
H1102 H 0.28582 0.18051 0.67116 0.0
C1103 C 0.38036 0.13157 0.67362 0.0
H1104 H 0.30095 0.06959 0.66944 0.0
C1105 C 0.37171 0.19506 0.6746 0.0
C1106 C 0.33759 0.21396 0.67412 0.0
H1107 H 0.40687 0.11883 0.67512 0.0
H1108 H 0.39182 0.22926 0.67688 0.0
C1109 C 0.31234 0.16763 0.67203 0.0
C1110 C 0.58926 0.87256 0.68153 0.0
C1111 C 0.62333 0.85351 0.6802 0.0
H1112 H 0.55424 0.94896 0.68292 0.0
C1113 C 0.64861 0.89968 0.67741 0.0
H1114 H 0.56915 0.83845 0.68435 0.0
C1115 C 0.64002 0.96333 0.67663 0.0
C1116 C 0.60595 0.98234 0.67859 0.0
H1117 H 0.67508 0.88665 0.67588 0.0
H1118 H 0.66009 0.99766 0.67446 0.0
C1119 C 0.58069 0.93609 0.68074 0.0
loop_
_geom_bond_atom_site_label_1
_geom_bond_atom_site_label_2
_geom_bond_distance
_geom_bond_site_symmetry_2
_ccdc_geom_bond_type
Ho0 C3 2.811 1_545 S
Ho0 O20 2.322 . S
Ho0 O22 2.378 1_545 S
Ho0 O23 2.524 1_545 S
Ho0 O24 2.381 . S
Ho0 O25 2.669 . S
Ho0 O27 2.346 . S
Ho0 O31 2.305 . S
Ho1 C12 2.811 . S
Ho1 O21 2.346 . S
Ho1 O25 2.305 . S
Ho1 O26 2.322 . S
Ho1 O28 2.378 . S
Ho1 O29 2.524 . S
Ho1 O30 2.381 . S
Ho1 O31 2.669 . S
C2 O20 1.259 . S
C2 O21 1.268 . S
C3 Ho0 2.811 1_565 S
C3 C4 1.488 . S
C3 O22 1.215 . S
C3 O23 1.289 . S
C4 C3 1.488 . S
C4 C5 1.348 . S
C4 C9 1.413 . S
C5 C4 1.348 . S
C5 C6 1.442 . S
C5 H32 0.930 . S
C6 C5 1.442 . S
C6 C7 1.381 . S
C6 H33 0.931 . S
C7 C6 1.381 . S
C7 C8 1.321 . S
C8 C7 1.321 . S
C8 C9 1.403 . S
C8 H34 0.934 . S
C9 C4 1.413 . S
C9 C8 1.403 . S
C9 H35 0.930 . S
C10 O24 1.275 . S
C10 O25 1.256 . S
C11 O26 1.259 . S
C11 O27 1.268 . S
C12 Ho1 2.811 . S
C12 C13 1.488 . S
C12 O28 1.215 . S
C12 O29 1.289 . S
C13 C12 1.488 . S
C13 C14 1.348 . S
C13 C18 1.413 . S
C14 C13 1.348 . S
C14 C15 1.442 . S
C14 H36 0.930 . S
C15 C14 1.442 . S
C15 C16 1.381 . S
C15 H37 0.931 . S
C16 C15 1.381 . S
C16 C17 1.321 . S
C17 C16 1.321 . S
C17 C18 1.403 . S
C17 H38 0.934 . S
C18 C13 1.413 . S
C18 C17 1.403 . S
C18 H39 0.930 . S
C19 O30 1.275 . S
C19 O31 1.256 . S
O20 Ho0 2.322 . S
O20 C2 1.259 . S
O21 Ho1 2.346 . S
O21 C2 1.268 . S
O22 Ho0 2.378 1_565 S
O22 C3 1.215 . S
O23 Ho0 2.524 1_565 S
O23 C3 1.289 . S
O24 Ho0 2.381 . S
O24 C10 1.275 . S
O25 Ho0 2.669 . S
O25 Ho1 2.305 . S
O25 C10 1.256 . S
O26 Ho1 2.322 . S
O26 C11 1.259 . S
O27 Ho0 2.346 . S
O27 C11 1.268 . S
O28 Ho1 2.378 . S
O28 C12 1.215 . S
O29 Ho1 2.524 . S
O29 C12 1.289 . S
O30 Ho1 2.381 . S
O30 C19 1.275 . S
O31 Ho0 2.305 . S
O31 Ho1 2.669 . S
O31 C19 1.256 . S
H32 C5 0.930 . S
H33 C6 0.931 . S
H34 C8 0.934 . S
H35 C9 0.930 . S
H36 C14 0.930 . S
H37 C15 0.931 . S
H38 C17 0.934 . S
H39 C18 0.930 . S
Ho40 C43 2.811 1_565 S
Ho40 O60 2.322 . S
Ho40 O62 2.378 1_565 S
Ho40 O63 2.524 1_565 S
Ho40 O64 2.381 . S
Ho40 O65 2.669 . S
Ho40 O67 2.346 . S
Ho40 O71 2.305 . S
Ho41 C52 2.811 . S
Ho41 O61 2.346 . S
Ho41 O65 2.305 . S
Ho41 O66 2.322 . S
Ho41 O68 2.378 . S
Ho41 O69 2.524 . S
Ho41 O70 2.381 . S
Ho41 O71 2.669 . S
C42 O60 1.259 . S
C42 O61 1.268 . S
C43 Ho40 2.811 1_545 S
C43 C44 1.488 . S
C43 O62 1.215 . S
C43 O63 1.289 . S
C44 C43 1.488 . S
C44 C45 1.348 . S
C44 C49 1.413 . S
C45 C44 1.348 . S
C45 C46 1.442 . S
C45 H72 0.930 . S
C46 C45 1.442 . S
C46 C47 1.381 . S
C46 H73 0.931 . S
C47 C46 1.381 . S
C47 C48 1.321 . S
C48 C47 1.321 . S
C48 C49 1.403 . S
C48 H74 0.934 . S
C49 C44 1.413 . S
C49 C48 1.403 . S
C49 H75 0.930 . S
C50 O64 1.275 . S
C50 O65 1.256 . S
C51 O66 1.259 . S
C51 O67 1.268 . S
C52 Ho41 2.811 . S
C52 C53 1.488 . S
C52 O68 1.215 . S
C52 O69 1.289 . S
C53 C52 1.488 . S
C53 C54 1.348 . S
C53 C58 1.413 . S
C54 C53 1.348 . S
C54 C55 1.442 . S
C54 H76 0.930 . S
C55 C54 1.442 . S
C55 C56 1.381 . S
C55 H77 0.931 . S
C56 C55 1.381 . S
C56 C57 1.321 . S
C57 C56 1.321 . S
C57 C58 1.403 . S
C57 H78 0.934 . S
C58 C53 1.413 . S
C58 C57 1.403 . S
C58 H79 0.930 . S
C59 O70 1.275 . S
C59 O71 1.256 . S
O60 Ho40 2.322 . S
O60 C42 1.259 . S
O61 Ho41 2.346 . S
O61 C42 1.268 . S
O62 Ho40 2.378 1_545 S
O62 C43 1.215 . S
O63 Ho40 2.524 1_545 S
O63 C43 1.289 . S
O64 Ho40 2.381 . S
O64 C50 1.275 . S
O65 Ho40 2.669 . S
O65 Ho41 2.305 . S
O65 C50 1.256 . S
O66 Ho41 2.322 . S
O66 C51 1.259 . S
O67 Ho40 2.346 . S
O67 C51 1.268 . S
O68 Ho41 2.378 . S
O68 C52 1.215 . S
O69 Ho41 2.524 . S
O69 C52 1.289 . S
O70 Ho41 2.381 . S
O70 C59 1.275 . S
O71 Ho40 2.305 . S
O71 Ho41 2.669 . S
O71 C59 1.256 . S
H72 C45 0.930 . S
H73 C46 0.931 . S
H74 C48 0.934 . S
H75 C49 0.930 . S
H76 C54 0.930 . S
H77 C55 0.931 . S
H78 C57 0.934 . S
H79 C58 0.930 . S
Ho80 C83 2.811 1_565 S
Ho80 O100 2.322 . S
Ho80 O102 2.378 1_565 S
Ho80 O103 2.524 1_565 S
Ho80 O104 2.381 . S
Ho80 O105 2.669 . S
Ho80 O107 2.346 . S
Ho80 O111 2.305 . S
Ho81 C92 2.811 . S
Ho81 O101 2.346 . S
Ho81 O105 2.305 . S
Ho81 O106 2.322 . S
Ho81 O108 2.378 . S
Ho81 O109 2.524 . S
Ho81 O110 2.381 . S
Ho81 O111 2.669 . S
C82 O100 1.259 . S
C82 O101 1.268 . S
C83 Ho80 2.811 1_545 S
C83 C84 1.488 . S
C83 O102 1.215 . S
C83 O103 1.289 . S
C84 C83 1.488 . S
C84 C85 1.348 . S
C84 C89 1.413 . S
C85 C84 1.348 . S
C85 C86 1.442 . S
C85 H112 0.930 . S
C86 C85 1.442 . S
C86 C87 1.381 . S
C86 H113 0.931 . S
C87 C86 1.381 . S
C87 C88 1.321 . S
C88 C87 1.321 . S
C88 C89 1.403 . S
C88 H114 0.934 . S
C89 C84 1.413 . S
C89 C88 1.403 . S
C89 H115 0.930 . S
C90 O104 1.275 . S
C90 O105 1.256 . S
C91 O106 1.259 . S
C91 O107 1.268 . S
C92 Ho81 2.811 . S
C92 C93 1.488 . S
C92 O108 1.215 . S
C92 O109 1.289 . S
C93 C92 1.488 . S
C93 C94 1.348 . S
C93 C98 1.413 . S
C94 C93 1.348 . S
C94 C95 1.442 . S
C94 H116 0.930 . S
C95 C94 1.442 . S
C95 C96 1.381 . S
C95 H117 0.931 . S
C96 C95 1.381 . S
C96 C97 1.321 . S
C97 C96 1.321 . S
C97 C98 1.403 . S
C97 H118 0.934 . S
C98 C93 1.413 . S
C98 C97 1.403 . S
C98 H119 0.930 . S
C99 O110 1.275 . S
C99 O111 1.256 . S
O100 Ho80 2.322 . S
O100 C82 1.259 . S
O101 Ho81 2.346 . S
O101 C82 1.268 . S
O102 Ho80 2.378 1_545 S
O102 C83 1.215 . S
O103 Ho80 2.524 1_545 S
O103 C83 1.289 . S
O104 Ho80 2.381 . S
O104 C90 1.275 . S
O105 Ho80 2.669 . S
O105 Ho81 2.305 . S
O105 C90 1.256 . S
O106 Ho81 2.322 . S
O106 C91 1.259 . S
O107 Ho80 2.346 . S
O107 C91 1.268 . S
O108 Ho81 2.378 . S
O108 C92 1.215 . S
O109 Ho81 2.524 . S
O109 C92 1.289 . S
O110 Ho81 2.381 . S
O110 C99 1.275 . S
O111 Ho80 2.305 . S
O111 Ho81 2.669 . S
O111 C99 1.256 . S
H112 C85 0.930 . S
H113 C86 0.931 . S
H114 C88 0.934 . S
H115 C89 0.930 . S
H116 C94 0.930 . S
H117 C95 0.931 . S
H118 C97 0.934 . S
H119 C98 0.930 . S
Ho120 C123 2.811 1_545 S
Ho120 O140 2.322 . S
Ho120 O142 2.378 1_545 S
Ho120 O143 2.524 1_545 S
Ho120 O144 2.381 . S
Ho120 O145 2.669 . S
Ho120 O147 2.346 . S
Ho120 O151 2.305 . S
Ho121 C132 2.811 . S
Ho121 O141 2.346 . S
Ho121 O145 2.305 . S
Ho121 O146 2.322 . S
Ho121 O148 2.378 . S
Ho121 O149 2.524 . S
Ho121 O150 2.381 . S
Ho121 O151 2.669 . S
C122 O140 1.259 . S
C122 O141 1.268 . S
C123 Ho120 2.811 1_565 S
C123 C124 1.488 . S
C123 O142 1.215 . S
C123 O143 1.289 . S
C124 C123 1.488 . S
C124 C125 1.348 . S
C124 C129 1.413 . S
C125 C124 1.348 . S
C125 C126 1.442 . S
C125 H152 0.930 . S
C126 C125 1.442 . S
C126 C127 1.381 . S
C126 H153 0.931 . S
C127 C126 1.381 . S
C127 C128 1.321 . S
C128 C127 1.321 . S
C128 C129 1.403 . S
C128 H154 0.934 . S
C129 C124 1.413 . S
C129 C128 1.403 . S
C129 H155 0.930 . S
C130 O144 1.275 . S
C130 O145 1.256 . S
C131 O146 1.259 . S
C131 O147 1.268 . S
C132 Ho121 2.811 . S
C132 C133 1.488 . S
C132 O148 1.215 . S
C132 O149 1.289 . S
C133 C132 1.488 . S
C133 C134 1.348 . S
C133 C138 1.413 . S
C134 C133 1.348 . S
C134 C135 1.442 . S
C134 H156 0.930 . S
C135 C134 1.442 . S
C135 C136 1.381 . S
C135 H157 0.931 . S
C136 C135 1.381 . S
C136 C137 1.321 . S
C137 C136 1.321 . S
C137 C138 1.403 . S
C137 H158 0.934 . S
C138 C133 1.413 . S
C138 C137 1.403 . S
C138 H159 0.930 . S
C139 O150 1.275 . S
C139 O151 1.256 . S
O140 Ho120 2.322 . S
O140 C122 1.259 . S
O141 Ho121 2.346 . S
O141 C122 1.268 . S
O142 Ho120 2.378 1_565 S
O142 C123 1.215 . S
O143 Ho120 2.524 1_565 S
O143 C123 1.289 . S
O144 Ho120 2.381 . S
O144 C130 1.275 . S
O145 Ho120 2.669 . S
O145 Ho121 2.305 . S
O145 C130 1.256 . S
O146 Ho121 2.322 . S
O146 C131 1.259 . S
O147 Ho120 2.346 . S
O147 C131 1.268 . S
O148 Ho121 2.378 . S
O148 C132 1.215 . S
O149 Ho121 2.524 . S
O149 C132 1.289 . S
O150 Ho121 2.381 . S
O150 C139 1.275 . S
O151 Ho120 2.305 . S
O151 Ho121 2.669 . S
O151 C139 1.256 . S
H152 C125 0.930 . S
H153 C126 0.931 . S
H154 C128 0.934 . S
H155 C129 0.930 . S
H156 C134 0.930 . S
H157 C135 0.931 . S
H158 C137 0.934 . S
H159 C138 0.930 . S
Ho160 C163 2.811 . S
Ho160 O180 2.322 . S
Ho160 O182 2.378 . S
Ho160 O183 2.524 . S
Ho160 O184 2.381 . S
Ho160 O185 2.669 . S
Ho160 O187 2.346 . S
Ho160 O191 2.305 . S
Ho161 C172 2.811 1_565 S
Ho161 O181 2.346 . S
Ho161 O185 2.305 . S
Ho161 O186 2.322 . S
Ho161 O188 2.378 1_565 S
Ho161 O189 2.524 1_565 S
Ho161 O190 2.381 . S
Ho161 O191 2.669 . S
C162 O180 1.259 . S
C162 O181 1.268 . S
C163 Ho160 2.811 . S
C163 C164 1.488 . S
C163 O182 1.215 . S
C163 O183 1.289 . S
C164 C163 1.488 . S
C164 C165 1.348 . S
C164 C169 1.413 . S
C165 C164 1.348 . S
C165 C166 1.442 . S
C165 H192 0.930 . S
C166 C165 1.442 . S
C166 C167 1.381 . S
C166 H193 0.931 . S
C167 C166 1.381 . S
C167 C168 1.321 . S
C168 C167 1.321 . S
C168 C169 1.403 . S
C168 H194 0.934 . S
C169 C164 1.413 . S
C169 C168 1.403 . S
C169 H195 0.930 . S
C170 O184 1.275 . S
C170 O185 1.256 . S
C171 O186 1.259 . S
C171 O187 1.268 . S
C172 Ho161 2.811 1_545 S
C172 C173 1.488 . S
C172 O188 1.215 . S
C172 O189 1.289 . S
C173 C172 1.488 . S
C173 C174 1.348 . S
C173 C178 1.413 . S
C174 C173 1.348 . S
C174 C175 1.442 . S
C174 H196 0.930 . S
C175 C174 1.442 . S
C175 C176 1.381 . S
C175 H197 0.931 . S
C176 C175 1.381 . S
C176 C177 1.321 . S
C177 C176 1.321 . S
C177 C178 1.403 . S
C177 H198 0.934 . S
C178 C173 1.413 . S
C178 C177 1.403 . S
C178 H199 0.930 . S
C179 O190 1.275 . S
C179 O191 1.256 . S
O180 Ho160 2.322 . S
O180 C162 1.259 . S
O181 Ho161 2.346 . S
O181 C162 1.268 . S
O182 Ho160 2.378 . S
O182 C163 1.215 . S
O183 Ho160 2.524 . S
O183 C163 1.289 . S
O184 Ho160 2.381 . S
O184 C170 1.275 . S
O185 Ho160 2.669 . S
O185 Ho161 2.305 . S
O185 C170 1.256 . S
O186 Ho161 2.322 . S
O186 C171 1.259 . S
O187 Ho160 2.346 . S
O187 C171 1.268 . S
O188 Ho161 2.378 1_545 S
O188 C172 1.215 . S
O189 Ho161 2.524 1_545 S
O189 C172 1.289 . S
O190 Ho161 2.381 . S
O190 C179 1.275 . S
O191 Ho160 2.305 . S
O191 Ho161 2.669 . S
O191 C179 1.256 . S
H192 C165 0.930 . S
H193 C166 0.931 . S
H194 C168 0.934 . S
H195 C169 0.930 . S
H196 C174 0.930 . S
H197 C175 0.931 . S
H198 C177 0.934 . S
H199 C178 0.930 . S
Ho200 C203 2.811 . S
Ho200 O220 2.322 . S
Ho200 O222 2.378 . S
Ho200 O223 2.524 . S
Ho200 O224 2.381 . S
Ho200 O225 2.669 . S
Ho200 O227 2.346 . S
Ho200 O231 2.305 . S
Ho201 C212 2.811 1_545 S
Ho201 O221 2.346 . S
Ho201 O225 2.305 . S
Ho201 O226 2.322 . S
Ho201 O228 2.378 1_545 S
Ho201 O229 2.524 1_545 S
Ho201 O230 2.381 . S
Ho201 O231 2.669 . S
C202 O220 1.259 . S
C202 O221 1.268 . S
C203 Ho200 2.811 . S
C203 C204 1.488 . S
C203 O222 1.215 . S
C203 O223 1.289 . S
C204 C203 1.488 . S
C204 C205 1.348 . S
C204 C209 1.413 . S
C205 C204 1.348 . S
C205 C206 1.442 . S
C205 H232 0.930 . S
C206 C205 1.442 . S
C206 C207 1.381 . S
C206 H233 0.931 . S
C207 C206 1.381 . S
C207 C208 1.321 . S
C208 C207 1.321 . S
C208 C209 1.403 . S
C208 H234 0.934 . S
C209 C204 1.413 . S
C209 C208 1.403 . S
C209 H235 0.930 . S
C210 O224 1.275 . S
C210 O225 1.256 . S
C211 O226 1.259 . S
C211 O227 1.268 . S
C212 Ho201 2.811 1_565 S
C212 C213 1.488 . S
C212 O228 1.215 . S
C212 O229 1.289 . S
C213 C212 1.488 . S
C213 C214 1.348 . S
C213 C218 1.413 . S
C214 C213 1.348 . S
C214 C215 1.442 . S
C214 H236 0.930 . S
C215 C214 1.442 . S
C215 C216 1.381 . S
C215 H237 0.931 . S
C216 C215 1.381 . S
C216 C217 1.321 . S
C217 C216 1.321 . S
C217 C218 1.403 . S
C217 H238 0.934 . S
C218 C213 1.413 . S
C218 C217 1.403 . S
C218 H239 0.930 . S
C219 O230 1.275 . S
C219 O231 1.256 . S
O220 Ho200 2.322 . S
O220 C202 1.259 . S
O221 Ho201 2.346 . S
O221 C202 1.268 . S
O222 Ho200 2.378 . S
O222 C203 1.215 . S
O223 Ho200 2.524 . S
O223 C203 1.289 . S
O224 Ho200 2.381 . S
O224 C210 1.275 . S
O225 Ho200 2.669 . S
O225 Ho201 2.305 . S
O225 C210 1.256 . S
O226 Ho201 2.322 . S
O226 C211 1.259 . S
O227 Ho200 2.346 . S
O227 C211 1.268 . S
O228 Ho201 2.378 1_565 S
O228 C212 1.215 . S
O229 Ho201 2.524 1_565 S
O229 C212 1.289 . S
O230 Ho201 2.381 . S
O230 C219 1.275 . S
O231 Ho200 2.305 . S
O231 Ho201 2.669 . S
O231 C219 1.256 . S
H232 C205 0.930 . S
H233 C206 0.931 . S
H234 C208 0.934 . S
H235 C209 0.930 . S
H236 C214 0.930 . S
H237 C215 0.931 . S
H238 C217 0.934 . S
H239 C218 0.930 . S
Ho240 C243 2.811 . S
Ho240 O260 2.322 . S
Ho240 O262 2.378 . S
Ho240 O263 2.524 . S
Ho240 O264 2.381 . S
Ho240 O265 2.669 . S
Ho240 O267 2.346 . S
Ho240 O271 2.305 . S
Ho241 C252 2.811 1_545 S
Ho241 O261 2.346 . S
Ho241 O265 2.305 . S
Ho241 O266 2.322 . S
Ho241 O268 2.378 1_545 S
Ho241 O269 2.524 1_545 S
Ho241 O270 2.381 . S
Ho241 O271 2.669 . S
C242 O260 1.259 . S
C242 O261 1.268 . S
C243 Ho240 2.811 . S
C243 C244 1.488 . S
C243 O262 1.215 . S
C243 O263 1.289 . S
C244 C243 1.488 . S
C244 C245 1.348 . S
C244 C249 1.413 . S
C245 C244 1.348 . S
C245 C246 1.442 . S
C245 H272 0.930 . S
C246 C245 1.442 . S
C246 C247 1.381 . S
C246 H273 0.931 . S
C247 C246 1.381 . S
C247 C248 1.321 . S
C248 C247 1.321 . S
C248 C249 1.403 . S
C248 H274 0.934 . S
C249 C244 1.413 . S
C249 C248 1.403 . S
C249 H275 0.930 . S
C250 O264 1.275 . S
C250 O265 1.256 . S
C251 O266 1.259 . S
C251 O267 1.268 . S
C252 Ho241 2.811 1_565 S
C252 C253 1.488 . S
C252 O268 1.215 . S
C252 O269 1.289 . S
C253 C252 1.488 . S
C253 C254 1.348 . S
C253 C258 1.413 . S
C254 C253 1.348 . S
C254 C255 1.442 . S
C254 H276 0.930 . S
C255 C254 1.442 . S
C255 C256 1.381 . S
C255 H277 0.931 . S
C256 C255 1.381 . S
C256 C257 1.321 . S
C257 C256 1.321 . S
C257 C258 1.403 . S
C257 H278 0.934 . S
C258 C253 1.413 . S
C258 C257 1.403 . S
C258 H279 0.930 . S
C259 O270 1.275 . S
C259 O271 1.256 . S
O260 Ho240 2.322 . S
O260 C242 1.259 . S
O261 Ho241 2.346 . S
O261 C242 1.268 . S
O262 Ho240 2.378 . S
O262 C243 1.215 . S
O263 Ho240 2.524 . S
O263 C243 1.289 . S
O264 Ho240 2.381 . S
O264 C250 1.275 . S
O265 Ho240 2.669 . S
O265 Ho241 2.305 . S
O265 C250 1.256 . S
O266 Ho241 2.322 . S
O266 C251 1.259 . S
O267 Ho240 2.346 . S
O267 C251 1.268 . S
O268 Ho241 2.378 1_565 S
O268 C252 1.215 . S
O269 Ho241 2.524 1_565 S
O269 C252 1.289 . S
O270 Ho241 2.381 . S
O270 C259 1.275 . S
O271 Ho240 2.305 . S
O271 Ho241 2.669 . S
O271 C259 1.256 . S
H272 C245 0.930 . S
H273 C246 0.931 . S
H274 C248 0.934 . S
H275 C249 0.930 . S
H276 C254 0.930 . S
H277 C255 0.931 . S
H278 C257 0.934 . S
H279 C258 0.930 . S
Ho280 C283 2.811 . S
Ho280 O300 2.322 . S
Ho280 O302 2.378 . S
Ho280 O303 2.524 . S
Ho280 O304 2.381 . S
Ho280 O305 2.669 . S
Ho280 O307 2.346 . S
Ho280 O311 2.305 . S
Ho281 C292 2.811 1_565 S
Ho281 O301 2.346 . S
Ho281 O305 2.305 . S
Ho281 O306 2.322 . S
Ho281 O308 2.378 1_565 S
Ho281 O309 2.524 1_565 S
Ho281 O310 2.381 . S
Ho281 O311 2.669 . S
C282 O300 1.259 . S
C282 O301 1.268 . S
C283 Ho280 2.811 . S
C283 C284 1.488 . S
C283 O302 1.215 . S
C283 O303 1.289 . S
C284 C283 1.488 . S
C284 C285 1.348 . S
C284 C289 1.413 . S
C285 C284 1.348 . S
C285 C286 1.442 . S
C285 H312 0.930 . S
C286 C285 1.442 . S
C286 C287 1.381 . S
C286 H313 0.931 . S
C287 C286 1.381 . S
C287 C288 1.321 . S
C288 C287 1.321 . S
C288 C289 1.403 . S
C288 H314 0.934 . S
C289 C284 1.413 . S
C289 C288 1.403 . S
C289 H315 0.930 . S
C290 O304 1.275 . S
C290 O305 1.256 . S
C291 O306 1.259 . S
C291 O307 1.268 . S
C292 Ho281 2.811 1_545 S
C292 C293 1.488 . S
C292 O308 1.215 . S
C292 O309 1.289 . S
C293 C292 1.488 . S
C293 C294 1.348 . S
C293 C298 1.413 . S
C294 C293 1.348 . S
C294 C295 1.442 . S
C294 H316 0.930 . S
C295 C294 1.442 . S
C295 C296 1.381 . S
C295 H317 0.931 . S
C296 C295 1.381 . S
C296 C297 1.321 . S
C297 C296 1.321 . S
C297 C298 1.403 . S
C297 H318 0.934 . S
C298 C293 1.413 . S
C298 C297 1.403 . S
C298 H319 0.930 . S
C299 O310 1.275 . S
C299 O311 1.256 . S
O300 Ho280 2.322 . S
O300 C282 1.259 . S
O301 Ho281 2.346 . S
O301 C282 1.268 . S
O302 Ho280 2.378 . S
O302 C283 1.215 . S
O303 Ho280 2.524 . S
O303 C283 1.289 . S
O304 Ho280 2.381 . S
O304 C290 1.275 . S
O305 Ho280 2.669 . S
O305 Ho281 2.305 . S
O305 C290 1.256 . S
O306 Ho281 2.322 . S
O306 C291 1.259 . S
O307 Ho280 2.346 . S
O307 C291 1.268 . S
O308 Ho281 2.378 1_545 S
O308 C292 1.215 . S
O309 Ho281 2.524 1_545 S
O309 C292 1.289 . S
O310 Ho281 2.381 . S
O310 C299 1.275 . S
O311 Ho280 2.305 . S
O311 Ho281 2.669 . S
O311 C299 1.256 . S
H312 C285 0.930 . S
H313 C286 0.931 . S
H314 C288 0.934 . S
H315 C289 0.930 . S
H316 C294 0.930 . S
H317 C295 0.931 . S
H318 C297 0.934 . S
H319 C298 0.930 . S
Ho320 C323 2.811 . S
Ho320 O340 2.322 . S
Ho320 O342 2.378 . S
Ho320 O343 2.524 . S
Ho320 O344 2.381 . S
Ho320 O345 2.669 . S
Ho320 O347 2.346 . S
Ho320 O351 2.305 . S
Ho321 C332 2.811 . S
Ho321 O341 2.346 . S
Ho321 O345 2.305 . S
Ho321 O346 2.322 . S
Ho321 O348 2.378 . S
Ho321 O349 2.524 . S
Ho321 O350 2.381 . S
Ho321 O351 2.669 . S
C322 O340 1.259 . S
C322 O341 1.268 . S
C323 Ho320 2.811 . S
C323 C324 1.488 . S
C323 O342 1.215 . S
C323 O343 1.289 . S
C324 C323 1.488 . S
C324 C325 1.348 . S
C324 C329 1.413 . S
C325 C324 1.348 . S
C325 C326 1.442 . S
C325 H352 0.930 . S
C326 C325 1.442 . S
C326 C327 1.381 . S
C326 H353 0.931 . S
C327 C326 1.381 . S
C327 C328 1.321 . S
C328 C327 1.321 . S
C328 C329 1.403 . S
C328 H354 0.934 . S
C329 C324 1.413 . S
C329 C328 1.403 . S
C329 H355 0.930 . S
C330 O344 1.275 . S
C330 O345 1.256 . S
C331 O346 1.259 . S
C331 O347 1.268 . S
C332 Ho321 2.811 . S
C332 C333 1.488 . S
C332 O348 1.215 . S
C332 O349 1.289 . S
C333 C332 1.488 . S
C333 C334 1.348 . S
C333 C338 1.413 . S
C334 C333 1.348 . S
C334 C335 1.442 . S
C334 H356 0.930 . S
C335 C334 1.442 . S
C335 C336 1.381 . S
C335 H357 0.931 . S
C336 C335 1.381 . S
C336 C337 1.321 . S
C337 C336 1.321 . S
C337 C338 1.403 . S
C337 H358 0.934 . S
C338 C333 1.413 . S
C338 C337 1.403 . S
C338 H359 0.930 . S
C339 O350 1.275 . S
C339 O351 1.256 . S
O340 Ho320 2.322 . S
O340 C322 1.259 . S
O341 Ho321 2.346 . S
O341 C322 1.268 . S
O342 Ho320 2.378 . S
O342 C323 1.215 . S
O343 Ho320 2.524 . S
O343 C323 1.289 . S
O344 Ho320 2.381 . S
O344 C330 1.275 . S
O345 Ho320 2.669 . S
O345 Ho321 2.305 . S
O345 C330 1.256 . S
O346 Ho321 2.322 . S
O346 C331 1.259 . S
O347 Ho320 2.346 . S
O347 C331 1.268 . S
O348 Ho321 2.378 . S
O348 C332 1.215 . S
O349 Ho321 2.524 . S
O349 C332 1.289 . S
O350 Ho321 2.381 . S
O350 C339 1.275 . S
O351 Ho320 2.305 . S
O351 Ho321 2.669 . S
O351 C339 1.256 . S
H352 C325 0.930 . S
H353 C326 0.931 . S
H354 C328 0.934 . S
H355 C329 0.930 . S
H356 C334 0.930 . S
H357 C335 0.931 . S
H358 C337 0.934 . S
H359 C338 0.930 . S
Ho360 C363 2.811 . S
Ho360 O380 2.322 . S
Ho360 O382 2.378 . S
Ho360 O383 2.524 . S
Ho360 O384 2.381 . S
Ho360 O385 2.669 . S
Ho360 O387 2.346 . S
Ho360 O391 2.305 . S
Ho361 C372 2.811 . S
Ho361 O381 2.346 . S
Ho361 O385 2.305 . S
Ho361 O386 2.322 . S
Ho361 O388 2.378 . S
Ho361 O389 2.524 . S
Ho361 O390 2.381 . S
Ho361 O391 2.669 . S
C362 O380 1.259 . S
C362 O381 1.268 . S
C363 Ho360 2.811 . S
C363 C364 1.488 . S
C363 O382 1.215 . S
C363 O383 1.289 . S
C364 C363 1.488 . S
C364 C365 1.348 . S
C364 C369 1.413 . S
C365 C364 1.348 . S
C365 C366 1.442 . S
C365 H392 0.930 . S
C366 C365 1.442 . S
C366 C367 1.381 . S
C366 H393 0.931 . S
C367 C366 1.381 . S
C367 C368 1.321 . S
C368 C367 1.321 . S
C368 C369 1.403 . S
C368 H394 0.934 . S
C369 C364 1.413 . S
C369 C368 1.403 . S
C369 H395 0.930 . S
C370 O384 1.275 . S
C370 O385 1.256 . S
C371 O386 1.259 . S
C371 O387 1.268 . S
C372 Ho361 2.811 . S
C372 C373 1.488 . S
C372 O388 1.215 . S
C372 O389 1.289 . S
C373 C372 1.488 . S
C373 C374 1.348 . S
C373 C378 1.413 . S
C374 C373 1.348 . S
C374 C375 1.442 . S
C374 H396 0.930 . S
C375 C374 1.442 . S
C375 C376 1.381 . S
C375 H397 0.931 . S
C376 C375 1.381 . S
C376 C377 1.321 . S
C377 C376 1.321 . S
C377 C378 1.403 . S
C377 H398 0.934 . S
C378 C373 1.413 . S
C378 C377 1.403 . S
C378 H399 0.930 . S
C379 O390 1.275 . S
C379 O391 1.256 . S
O380 Ho360 2.322 . S
O380 C362 1.259 . S
O381 Ho361 2.346 . S
O381 C362 1.268 . S
O382 Ho360 2.378 . S
O382 C363 1.215 . S
O383 Ho360 2.524 . S
O383 C363 1.289 . S
O384 Ho360 2.381 . S
O384 C370 1.275 . S
O385 Ho360 2.669 . S
O385 Ho361 2.305 . S
O385 C370 1.256 . S
O386 Ho361 2.322 . S
O386 C371 1.259 . S
O387 Ho360 2.346 . S
O387 C371 1.268 . S
O388 Ho361 2.378 . S
O388 C372 1.215 . S
O389 Ho361 2.524 . S
O389 C372 1.289 . S
O390 Ho361 2.381 . S
O390 C379 1.275 . S
O391 Ho360 2.305 . S
O391 Ho361 2.669 . S
O391 C379 1.256 . S
H392 C365 0.930 . S
H393 C366 0.931 . S
H394 C368 0.934 . S
H395 C369 0.930 . S
H396 C374 0.930 . S
H397 C375 0.931 . S
H398 C377 0.934 . S
H399 C378 0.930 . S
Ho400 C403 2.811 . S
Ho400 O420 2.322 . S
Ho400 O422 2.378 . S
Ho400 O423 2.524 . S
Ho400 O424 2.381 . S
Ho400 O425 2.669 . S
Ho400 O427 2.346 . S
Ho400 O431 2.305 . S
Ho401 C412 2.811 . S
Ho401 O421 2.346 . S
Ho401 O425 2.305 . S
Ho401 O426 2.322 . S
Ho401 O428 2.378 . S
Ho401 O429 2.524 . S
Ho401 O430 2.381 . S
Ho401 O431 2.669 . S
C402 O420 1.259 . S
C402 O421 1.268 . S
C403 Ho400 2.811 . S
C403 C404 1.488 . S
C403 O422 1.215 . S
C403 O423 1.289 . S
C404 C403 1.488 . S
C404 C405 1.348 . S
C404 C409 1.413 . S
C405 C404 1.348 . S
C405 C406 1.442 . S
C405 H432 0.930 . S
C406 C405 1.442 . S
C406 C407 1.381 . S
C406 H433 0.931 . S
C407 C406 1.381 . S
C407 C408 1.321 . S
C408 C407 1.321 . S
C408 C409 1.403 . S
C408 H434 0.934 . S
C409 C404 1.413 . S
C409 C408 1.403 . S
C409 H435 0.930 . S
C410 O424 1.275 . S
C410 O425 1.256 . S
C411 O426 1.259 . S
C411 O427 1.268 . S
C412 Ho401 2.811 . S
C412 C413 1.488 . S
C412 O428 1.215 . S
C412 O429 1.289 . S
C413 C412 1.488 . S
C413 C414 1.348 . S
C413 C418 1.413 . S
C414 C413 1.348 . S
C414 C415 1.442 . S
C414 H436 0.930 . S
C415 C414 1.442 . S
C415 C416 1.381 . S
C415 H437 0.931 . S
C416 C415 1.381 . S
C416 C417 1.321 . S
C417 C416 1.321 . S
C417 C418 1.403 . S
C417 H438 0.934 . S
C418 C413 1.413 . S
C418 C417 1.403 . S
C418 H439 0.930 . S
C419 O430 1.275 . S
C419 O431 1.256 . S
O420 Ho400 2.322 . S
O420 C402 1.259 . S
O421 Ho401 2.346 . S
O421 C402 1.268 . S
O422 Ho400 2.378 . S
O422 C403 1.215 . S
O423 Ho400 2.524 . S
O423 C403 1.289 . S
O424 Ho400 2.381 . S
O424 C410 1.275 . S
O425 Ho400 2.669 . S
O425 Ho401 2.305 . S
O425 C410 1.256 . S
O426 Ho401 2.322 . S
O426 C411 1.259 . S
O427 Ho400 2.346 . S
O427 C411 1.268 . S
O428 Ho401 2.378 . S
O428 C412 1.215 . S
O429 Ho401 2.524 . S
O429 C412 1.289 . S
O430 Ho401 2.381 . S
O430 C419 1.275 . S
O431 Ho400 2.305 . S
O431 Ho401 2.669 . S
O431 C419 1.256 . S
H432 C405 0.930 . S
H433 C406 0.931 . S
H434 C408 0.934 . S
H435 C409 0.930 . S
H436 C414 0.930 . S
H437 C415 0.931 . S
H438 C417 0.934 . S
H439 C418 0.930 . S
Ho440 C443 2.811 . S
Ho440 O460 2.322 . S
Ho440 O462 2.378 . S
Ho440 O463 2.524 . S
Ho440 O464 2.381 . S
Ho440 O465 2.669 . S
Ho440 O467 2.346 . S
Ho440 O471 2.305 . S
Ho441 C452 2.811 . S
Ho441 O461 2.346 . S
Ho441 O465 2.305 . S
Ho441 O466 2.322 . S
Ho441 O468 2.378 . S
Ho441 O469 2.524 . S
Ho441 O470 2.381 . S
Ho441 O471 2.669 . S
C442 O460 1.259 . S
C442 O461 1.268 . S
C443 Ho440 2.811 . S
C443 C444 1.488 . S
C443 O462 1.215 . S
C443 O463 1.289 . S
C444 C443 1.488 . S
C444 C445 1.348 . S
C444 C449 1.413 . S
C445 C444 1.348 . S
C445 C446 1.442 . S
C445 H472 0.930 . S
C446 C445 1.442 . S
C446 C447 1.381 . S
C446 H473 0.931 . S
C447 C446 1.381 . S
C447 C448 1.321 . S
C448 C447 1.321 . S
C448 C449 1.403 . S
C448 H474 0.934 . S
C449 C444 1.413 . S
C449 C448 1.403 . S
C449 H475 0.930 . S
C450 O464 1.275 . S
C450 O465 1.256 . S
C451 O466 1.259 . S
C451 O467 1.268 . S
C452 Ho441 2.811 . S
C452 C453 1.488 . S
C452 O468 1.215 . S
C452 O469 1.289 . S
C453 C452 1.488 . S
C453 C454 1.348 . S
C453 C458 1.413 . S
C454 C453 1.348 . S
C454 C455 1.442 . S
C454 H476 0.930 . S
C455 C454 1.442 . S
C455 C456 1.381 . S
C455 H477 0.931 . S
C456 C455 1.381 . S
C456 C457 1.321 . S
C457 C456 1.321 . S
C457 C458 1.403 . S
C457 H478 0.934 . S
C458 C453 1.413 . S
C458 C457 1.403 . S
C458 H479 0.930 . S
C459 O470 1.275 . S
C459 O471 1.256 . S
O460 Ho440 2.322 . S
O460 C442 1.259 . S
O461 Ho441 2.346 . S
O461 C442 1.268 . S
O462 Ho440 2.378 . S
O462 C443 1.215 . S
O463 Ho440 2.524 . S
O463 C443 1.289 . S
O464 Ho440 2.381 . S
O464 C450 1.275 . S
O465 Ho440 2.669 . S
O465 Ho441 2.305 . S
O465 C450 1.256 . S
O466 Ho441 2.322 . S
O466 C451 1.259 . S
O467 Ho440 2.346 . S
O467 C451 1.268 . S
O468 Ho441 2.378 . S
O468 C452 1.215 . S
O469 Ho441 2.524 . S
O469 C452 1.289 . S
O470 Ho441 2.381 . S
O470 C459 1.275 . S
O471 Ho440 2.305 . S
O471 Ho441 2.669 . S
O471 C459 1.256 . S
H472 C445 0.930 . S
H473 C446 0.931 . S
H474 C448 0.934 . S
H475 C449 0.930 . S
H476 C454 0.930 . S
H477 C455 0.931 . S
H478 C457 0.934 . S
H479 C458 0.930 . S
Ho480 C483 2.811 . S
Ho480 O500 2.322 . S
Ho480 O502 2.378 . S
Ho480 O503 2.524 . S
Ho480 O504 2.381 . S
Ho480 O505 2.669 . S
Ho480 O507 2.346 . S
Ho480 O511 2.305 . S
Ho481 C492 2.811 . S
Ho481 O501 2.346 . S
Ho481 O505 2.305 . S
Ho481 O506 2.322 . S
Ho481 O508 2.378 . S
Ho481 O509 2.524 . S
Ho481 O510 2.381 . S
Ho481 O511 2.669 . S
C482 O500 1.259 . S
C482 O501 1.268 . S
C483 Ho480 2.811 . S
C483 C484 1.488 . S
C483 O502 1.215 . S
C483 O503 1.289 . S
C484 C483 1.488 . S
C484 C485 1.348 . S
C484 C489 1.413 . S
C485 C484 1.348 . S
C485 C486 1.442 . S
C485 H512 0.930 . S
C486 C485 1.442 . S
C486 C487 1.381 . S
C486 H513 0.931 . S
C487 C486 1.381 . S
C487 C488 1.321 . S
C488 C487 1.321 . S
C488 C489 1.403 . S
C488 H514 0.934 . S
C489 C484 1.413 . S
C489 C488 1.403 . S
C489 H515 0.930 . S
C490 O504 1.275 . S
C490 O505 1.256 . S
C491 O506 1.259 . S
C491 O507 1.268 . S
C492 Ho481 2.811 . S
C492 C493 1.488 . S
C492 O508 1.215 . S
C492 O509 1.289 . S
C493 C492 1.488 . S
C493 C494 1.348 . S
C493 C498 1.413 . S
C494 C493 1.348 . S
C494 C495 1.442 . S
C494 H516 0.930 . S
C495 C494 1.442 . S
C495 C496 1.381 . S
C495 H517 0.931 . S
C496 C495 1.381 . S
C496 C497 1.321 . S
C497 C496 1.321 . S
C497 C498 1.403 . S
C497 H518 0.934 . S
C498 C493 1.413 . S
C498 C497 1.403 . S
C498 H519 0.930 . S
C499 O510 1.275 . S
C499 O511 1.256 . S
O500 Ho480 2.322 . S
O500 C482 1.259 . S
O501 Ho481 2.346 . S
O501 C482 1.268 . S
O502 Ho480 2.378 . S
O502 C483 1.215 . S
O503 Ho480 2.524 . S
O503 C483 1.289 . S
O504 Ho480 2.381 . S
O504 C490 1.275 . S
O505 Ho480 2.669 . S
O505 Ho481 2.305 . S
O505 C490 1.256 . S
O506 Ho481 2.322 . S
O506 C491 1.259 . S
O507 Ho480 2.346 . S
O507 C491 1.268 . S
O508 Ho481 2.378 . S
O508 C492 1.215 . S
O509 Ho481 2.524 . S
O509 C492 1.289 . S
O510 Ho481 2.381 . S
O510 C499 1.275 . S
O511 Ho480 2.305 . S
O511 Ho481 2.669 . S
O511 C499 1.256 . S
H512 C485 0.930 . S
H513 C486 0.931 . S
H514 C488 0.934 . S
H515 C489 0.930 . S
H516 C494 0.930 . S
H517 C495 0.931 . S
H518 C497 0.934 . S
H519 C498 0.930 . S
Ho520 C523 2.811 . S
Ho520 O540 2.322 . S
Ho520 O542 2.378 . S
Ho520 O543 2.524 . S
Ho520 O544 2.381 . S
Ho520 O545 2.669 . S
Ho520 O547 2.346 . S
Ho520 O551 2.305 . S
Ho521 C532 2.811 . S
Ho521 O541 2.346 . S
Ho521 O545 2.305 . S
Ho521 O546 2.322 . S
Ho521 O548 2.378 . S
Ho521 O549 2.524 . S
Ho521 O550 2.381 . S
Ho521 O551 2.669 . S
C522 O540 1.259 . S
C522 O541 1.268 . S
C523 Ho520 2.811 . S
C523 C524 1.488 . S
C523 O542 1.215 . S
C523 O543 1.289 . S
C524 C523 1.488 . S
C524 C525 1.348 . S
C524 C529 1.413 . S
C525 C524 1.348 . S
C525 C526 1.442 . S
C525 H552 0.930 . S
C526 C525 1.442 . S
C526 C527 1.381 . S
C526 H553 0.931 . S
C527 C526 1.381 . S
C527 C528 1.321 . S
C528 C527 1.321 . S
C528 C529 1.403 . S
C528 H554 0.934 . S
C529 C524 1.413 . S
C529 C528 1.403 . S
C529 H555 0.930 . S
C530 O544 1.275 . S
C530 O545 1.256 . S
C531 O546 1.259 . S
C531 O547 1.268 . S
C532 Ho521 2.811 . S
C532 C533 1.488 . S
C532 O548 1.215 . S
C532 O549 1.289 . S
C533 C532 1.488 . S
C533 C534 1.348 . S
C533 C538 1.413 . S
C534 C533 1.348 . S
C534 C535 1.442 . S
C534 H556 0.930 . S
C535 C534 1.442 . S
C535 C536 1.381 . S
C535 H557 0.931 . S
C536 C535 1.381 . S
C536 C537 1.321 . S
C537 C536 1.321 . S
C537 C538 1.403 . S
C537 H558 0.934 . S
C538 C533 1.413 . S
C538 C537 1.403 . S
C538 H559 0.930 . S
C539 O550 1.275 . S
C539 O551 1.256 . S
O540 Ho520 2.322 . S
O540 C522 1.259 . S
O541 Ho521 2.346 . S
O541 C522 1.268 . S
O542 Ho520 2.378 . S
O542 C523 1.215 . S
O543 Ho520 2.524 . S
O543 C523 1.289 . S
O544 Ho520 2.381 . S
O544 C530 1.275 . S
O545 Ho520 2.669 . S
O545 Ho521 2.305 . S
O545 C530 1.256 . S
O546 Ho521 2.322 . S
O546 C531 1.259 . S
O547 Ho520 2.346 . S
O547 C531 1.268 . S
O548 Ho521 2.378 . S
O548 C532 1.215 . S
O549 Ho521 2.524 . S
O549 C532 1.289 . S
O550 Ho521 2.381 . S
O550 C539 1.275 . S
O551 Ho520 2.305 . S
O551 Ho521 2.669 . S
O551 C539 1.256 . S
H552 C525 0.930 . S
H553 C526 0.931 . S
H554 C528 0.934 . S
H555 C529 0.930 . S
H556 C534 0.930 . S
H557 C535 0.931 . S
H558 C537 0.934 . S
H559 C538 0.930 . S
Ho560 C563 2.811 . S
Ho560 O580 2.322 . S
Ho560 O582 2.378 . S
Ho560 O583 2.524 . S
Ho560 O584 2.381 . S
Ho560 O585 2.669 . S
Ho560 O587 2.346 . S
Ho560 O591 2.305 . S
Ho561 C572 2.811 . S
Ho561 O581 2.346 . S
Ho561 O585 2.305 . S
Ho561 O586 2.322 . S
Ho561 O588 2.378 . S
Ho561 O589 2.524 . S
Ho561 O590 2.381 . S
Ho561 O591 2.669 . S
C562 O580 1.259 . S
C562 O581 1.268 . S
C563 Ho560 2.811 . S
C563 C564 1.488 . S
C563 O582 1.215 . S
C563 O583 1.289 . S
C564 C563 1.488 . S
C564 C565 1.348 . S
C564 C569 1.413 . S
C565 C564 1.348 . S
C565 C566 1.442 . S
C565 H592 0.930 . S
C566 C565 1.442 . S
C566 C567 1.381 . S
C566 H593 0.931 . S
C567 C566 1.381 . S
C567 C568 1.321 . S
C568 C567 1.321 . S
C568 C569 1.403 . S
C568 H594 0.934 . S
C569 C564 1.413 . S
C569 C568 1.403 . S
C569 H595 0.930 . S
C570 O584 1.275 . S
C570 O585 1.256 . S
C571 O586 1.259 . S
C571 O587 1.268 . S
C572 Ho561 2.811 . S
C572 C573 1.488 . S
C572 O588 1.215 . S
C572 O589 1.289 . S
C573 C572 1.488 . S
C573 C574 1.348 . S
C573 C578 1.413 . S
C574 C573 1.348 . S
C574 C575 1.442 . S
C574 H596 0.930 . S
C575 C574 1.442 . S
C575 C576 1.381 . S
C575 H597 0.931 . S
C576 C575 1.381 . S
C576 C577 1.321 . S
C577 C576 1.321 . S
C577 C578 1.403 . S
C577 H598 0.934 . S
C578 C573 1.413 . S
C578 C577 1.403 . S
C578 H599 0.930 . S
C579 O590 1.275 . S
C579 O591 1.256 . S
O580 Ho560 2.322 . S
O580 C562 1.259 . S
O581 Ho561 2.346 . S
O581 C562 1.268 . S
O582 Ho560 2.378 . S
O582 C563 1.215 . S
O583 Ho560 2.524 . S
O583 C563 1.289 . S
O584 Ho560 2.381 . S
O584 C570 1.275 . S
O585 Ho560 2.669 . S
O585 Ho561 2.305 . S
O585 C570 1.256 . S
O586 Ho561 2.322 . S
O586 C571 1.259 . S
O587 Ho560 2.346 . S
O587 C571 1.268 . S
O588 Ho561 2.378 . S
O588 C572 1.215 . S
O589 Ho561 2.524 . S
O589 C572 1.289 . S
O590 Ho561 2.381 . S
O590 C579 1.275 . S
O591 Ho560 2.305 . S
O591 Ho561 2.669 . S
O591 C579 1.256 . S
H592 C565 0.930 . S
H593 C566 0.931 . S
H594 C568 0.934 . S
H595 C569 0.930 . S
H596 C574 0.930 . S
H597 C575 0.931 . S
H598 C577 0.934 . S
H599 C578 0.930 . S
Ho600 C603 2.811 . S
Ho600 O620 2.322 . S
Ho600 O622 2.378 . S
Ho600 O623 2.524 . S
Ho600 O624 2.381 . S
Ho600 O625 2.669 . S
Ho600 O627 2.346 . S
Ho600 O631 2.305 . S
Ho601 C612 2.811 . S
Ho601 O621 2.346 . S
Ho601 O625 2.305 . S
Ho601 O626 2.322 . S
Ho601 O628 2.378 . S
Ho601 O629 2.524 . S
Ho601 O630 2.381 . S
Ho601 O631 2.669 . S
C602 O620 1.259 . S
C602 O621 1.268 . S
C603 Ho600 2.811 . S
C603 C604 1.488 . S
C603 O622 1.215 . S
C603 O623 1.289 . S
C604 C603 1.488 . S
C604 C605 1.348 . S
C604 C609 1.413 . S
C605 C604 1.348 . S
C605 C606 1.442 . S
C605 H632 0.930 . S
C606 C605 1.442 . S
C606 C607 1.381 . S
C606 H633 0.931 . S
C607 C606 1.381 . S
C607 C608 1.321 . S
C608 C607 1.321 . S
C608 C609 1.403 . S
C608 H634 0.934 . S
C609 C604 1.413 . S
C609 C608 1.403 . S
C609 H635 0.930 . S
C610 O624 1.275 . S
C610 O625 1.256 . S
C611 O626 1.259 . S
C611 O627 1.268 . S
C612 Ho601 2.811 . S
C612 C613 1.488 . S
C612 O628 1.215 . S
C612 O629 1.289 . S
C613 C612 1.488 . S
C613 C614 1.348 . S
C613 C618 1.413 . S
C614 C613 1.348 . S
C614 C615 1.442 . S
C614 H636 0.930 . S
C615 C614 1.442 . S
C615 C616 1.381 . S
C615 H637 0.931 . S
C616 C615 1.381 . S
C616 C617 1.321 . S
C617 C616 1.321 . S
C617 C618 1.403 . S
C617 H638 0.934 . S
C618 C613 1.413 . S
C618 C617 1.403 . S
C618 H639 0.930 . S
C619 O630 1.275 . S
C619 O631 1.256 . S
O620 Ho600 2.322 . S
O620 C602 1.259 . S
O621 Ho601 2.346 . S
O621 C602 1.268 . S
O622 Ho600 2.378 . S
O622 C603 1.215 . S
O623 Ho600 2.524 . S
O623 C603 1.289 . S
O624 Ho600 2.381 . S
O624 C610 1.275 . S
O625 Ho600 2.669 . S
O625 Ho601 2.305 . S
O625 C610 1.256 . S
O626 Ho601 2.322 . S
O626 C611 1.259 . S
O627 Ho600 2.346 . S
O627 C611 1.268 . S
O628 Ho601 2.378 . S
O628 C612 1.215 . S
O629 Ho601 2.524 . S
O629 C612 1.289 . S
O630 Ho601 2.381 . S
O630 C619 1.275 . S
O631 Ho600 2.305 . S
O631 Ho601 2.669 . S
O631 C619 1.256 . S
H632 C605 0.930 . S
H633 C606 0.931 . S
H634 C608 0.934 . S
H635 C609 0.930 . S
H636 C614 0.930 . S
H637 C615 0.931 . S
H638 C617 0.934 . S
H639 C618 0.930 . S
C640 C641 1.387 . S
C640 H644 0.950 . S
C640 C649 1.390 . S
C641 C640 1.387 . S
C641 C643 1.387 . S
H642 C649 0.950 . S
C643 C641 1.387 . S
C643 C645 1.390 . S
C643 H647 0.950 . S
H644 C640 0.950 . S
C645 C643 1.390 . S
C645 C646 1.387 . S
C645 H648 0.950 . S
C646 C645 1.387 . S
C646 C649 1.387 . S
H647 C643 0.950 . S
H648 C645 0.950 . S
C649 C640 1.390 . S
C649 H642 0.950 . S
C649 C646 1.387 . S
C650 C651 1.387 . S
C650 H654 0.950 . S
C650 C659 1.390 . S
C651 C650 1.387 . S
C651 C653 1.387 . S
H652 C659 0.950 . S
C653 C651 1.387 . S
C653 C655 1.390 . S
C653 H657 0.950 . S
H654 C650 0.950 . S
C655 C653 1.390 . S
C655 C656 1.387 . S
C655 H658 0.950 . S
C656 C655 1.387 . S
C656 C659 1.387 . S
H657 C653 0.950 . S
H658 C655 0.950 . S
C659 C650 1.390 . S
C659 H652 0.950 . S
C659 C656 1.387 . S
C660 C661 1.387 . S
C660 H664 0.950 . S
C660 C669 1.390 . S
C661 C660 1.387 . S
C661 C663 1.387 . S
H662 C669 0.950 . S
C663 C661 1.387 . S
C663 C665 1.390 . S
C663 H667 0.950 . S
H664 C660 0.950 . S
C665 C663 1.390 . S
C665 C666 1.387 . S
C665 H668 0.950 . S
C666 C665 1.387 . S
C666 C669 1.387 . S
H667 C663 0.950 . S
H668 C665 0.950 . S
C669 C660 1.390 . S
C669 H662 0.950 . S
C669 C666 1.387 . S
C670 C671 1.387 . S
C670 H674 0.950 . S
C670 C679 1.390 . S
C671 C670 1.387 . S
C671 C673 1.387 . S
H672 C679 0.950 . S
C673 C671 1.387 . S
C673 C675 1.390 . S
C673 H677 0.950 . S
H674 C670 0.950 . S
C675 C673 1.390 . S
C675 C676 1.387 . S
C675 H678 0.950 . S
C676 C675 1.387 . S
C676 C679 1.387 . S
H677 C673 0.950 . S
H678 C675 0.950 . S
C679 C670 1.390 . S
C679 H672 0.950 . S
C679 C676 1.387 . S
C680 C681 1.387 . S
C680 H684 0.950 . S
C680 C689 1.390 . S
C681 C680 1.387 . S
C681 C683 1.387 . S
H682 C689 0.950 . S
C683 C681 1.387 . S
C683 C685 1.390 . S
C683 H687 0.950 . S
H684 C680 0.950 . S
C685 C683 1.390 . S
C685 C686 1.387 . S
C685 H688 0.950 . S
C686 C685 1.387 . S
C686 C689 1.387 . S
H687 C683 0.950 . S
H688 C685 0.950 . S
C689 C680 1.390 . S
C689 H682 0.950 . S
C689 C686 1.387 . S
C690 C691 1.387 . S
C690 H694 0.950 . S
C690 C699 1.390 . S
C691 C690 1.387 . S
C691 C693 1.387 . S
H692 C699 0.950 . S
C693 C691 1.387 . S
C693 C695 1.390 . S
C693 H697 0.950 . S
H694 C690 0.950 . S
C695 C693 1.390 . S
C695 C696 1.387 . S
C695 H698 0.950 . S
C696 C695 1.387 . S
C696 C699 1.387 . S
H697 C693 0.950 . S
H698 C695 0.950 . S
C699 C690 1.390 . S
C699 H692 0.950 . S
C699 C696 1.387 . S
C700 C701 1.387 . S
C700 H704 0.950 . S
C700 C709 1.390 . S
C701 C700 1.387 . S
C701 C703 1.387 . S
H702 C709 0.950 . S
C703 C701 1.387 . S
C703 C705 1.390 . S
C703 H707 0.950 . S
H704 C700 0.950 . S
C705 C703 1.390 . S
C705 C706 1.387 . S
C705 H708 0.950 . S
C706 C705 1.387 . S
C706 C709 1.387 . S
H707 C703 0.950 . S
H708 C705 0.950 . S
C709 C700 1.390 . S
C709 H702 0.950 . S
C709 C706 1.387 . S
C710 C711 1.387 . S
C710 H714 0.950 . S
C710 C719 1.390 . S
C711 C710 1.387 . S
C711 C713 1.387 . S
H712 C719 0.950 . S
C713 C711 1.387 . S
C713 C715 1.390 . S
C713 H717 0.950 . S
H714 C710 0.950 . S
C715 C713 1.390 . S
C715 C716 1.387 . S
C715 H718 0.950 . S
C716 C715 1.387 . S
C716 C719 1.387 . S
H717 C713 0.950 . S
H718 C715 0.950 . S
C719 C710 1.390 . S
C719 H712 0.950 . S
C719 C716 1.387 . S
C720 C721 1.387 . S
C720 H724 0.950 . S
C720 C729 1.390 1_565 S
C721 C720 1.387 . S
C721 C723 1.387 . S
H722 C729 0.950 . S
C723 C721 1.387 . S
C723 C725 1.390 1_565 S
C723 H727 0.950 . S
H724 C720 0.950 . S
C725 C723 1.390 1_545 S
C725 C726 1.387 . S
C725 H728 0.950 . S
C726 C725 1.387 . S
C726 C729 1.387 . S
H727 C723 0.950 . S
H728 C725 0.950 . S
C729 C720 1.390 1_545 S
C729 H722 0.950 . S
C729 C726 1.387 . S
C730 C731 1.387 . S
C730 H734 0.950 . S
C730 C739 1.390 1_545 S
C731 C730 1.387 . S
C731 C733 1.387 . S
H732 C739 0.950 . S
C733 C731 1.387 . S
C733 C735 1.390 1_545 S
C733 H737 0.950 . S
H734 C730 0.950 . S
C735 C733 1.390 1_565 S
C735 C736 1.387 . S
C735 H738 0.950 . S
C736 C735 1.387 . S
C736 C739 1.387 . S
H737 C733 0.950 . S
H738 C735 0.950 . S
C739 C730 1.390 1_565 S
C739 H732 0.950 . S
C739 C736 1.387 . S
C740 C741 1.387 . S
C740 H744 0.950 . S
C740 C749 1.390 1_545 S
C741 C740 1.387 . S
C741 C743 1.387 . S
H742 C749 0.950 . S
C743 C741 1.387 . S
C743 C745 1.390 1_545 S
C743 H747 0.950 . S
H744 C740 0.950 . S
C745 C743 1.390 1_565 S
C745 C746 1.387 . S
C745 H748 0.950 . S
C746 C745 1.387 . S
C746 C749 1.387 . S
H747 C743 0.950 . S
H748 C745 0.950 . S
C749 C740 1.390 1_565 S
C749 H742 0.950 . S
C749 C746 1.387 . S
C750 C751 1.387 . S
C750 H754 0.950 . S
C750 C759 1.390 1_545 S
C751 C750 1.387 . S
C751 C753 1.387 . S
H752 C759 0.950 . S
C753 C751 1.387 . S
C753 C755 1.390 1_545 S
C753 H757 0.950 . S
H754 C750 0.950 . S
C755 C753 1.390 1_565 S
C755 C756 1.387 . S
C755 H758 0.950 . S
C756 C755 1.387 . S
C756 C759 1.387 . S
H757 C753 0.950 . S
H758 C755 0.950 . S
C759 C750 1.390 1_565 S
C759 H752 0.950 . S
C759 C756 1.387 . S
C760 C761 1.387 . S
C760 H764 0.950 . S
C760 C769 1.390 . S
C761 C760 1.387 . S
C761 C763 1.387 . S
H762 C769 0.950 . S
C763 C761 1.387 . S
C763 C765 1.390 . S
C763 H767 0.950 . S
H764 C760 0.950 . S
C765 C763 1.390 . S
C765 C766 1.387 . S
C765 H768 0.950 . S
C766 C765 1.387 . S
C766 C769 1.387 . S
H767 C763 0.950 . S
H768 C765 0.950 . S
C769 C760 1.390 . S
C769 H762 0.950 . S
C769 C766 1.387 . S
C770 C771 1.387 . S
C770 H774 0.950 . S
C770 C779 1.390 . S
C771 C770 1.387 . S
C771 C773 1.387 . S
H772 C779 0.950 . S
C773 C771 1.387 . S
C773 C775 1.390 . S
C773 H777 0.950 . S
H774 C770 0.950 . S
C775 C773 1.390 . S
C775 C776 1.387 . S
C775 H778 0.950 . S
C776 C775 1.387 . S
C776 C779 1.387 . S
H777 C773 0.950 . S
H778 C775 0.950 . S
C779 C770 1.390 . S
C779 H772 0.950 . S
C779 C776 1.387 . S
C780 C781 1.387 . S
C780 H784 0.950 . S
C780 C789 1.390 . S
C781 C780 1.387 . S
C781 C783 1.387 . S
H782 C789 0.950 . S
C783 C781 1.387 . S
C783 C785 1.390 . S
C783 H787 0.950 . S
H784 C780 0.950 . S
C785 C783 1.390 . S
C785 C786 1.387 . S
C785 H788 0.950 . S
C786 C785 1.387 . S
C786 C789 1.387 . S
H787 C783 0.950 . S
H788 C785 0.950 . S
C789 C780 1.390 . S
C789 H782 0.950 . S
C789 C786 1.387 . S
C790 C791 1.387 . S
C790 H794 0.950 . S
C790 C799 1.390 . S
C791 C790 1.387 . S
C791 C793 1.387 . S
H792 C799 0.950 . S
C793 C791 1.387 . S
C793 C795 1.390 . S
C793 H797 0.950 . S
H794 C790 0.950 . S
C795 C793 1.390 . S
C795 C796 1.387 . S
C795 H798 0.950 . S
C796 C795 1.387 . S
C796 C799 1.387 . S
H797 C793 0.950 . S
H798 C795 0.950 . S
C799 C790 1.390 . S
C799 H792 0.950 . S
C799 C796 1.387 . S
C800 C801 1.387 . S
C800 H804 0.950 . S
C800 C809 1.390 1_556 S
C801 C800 1.387 . S
C801 C803 1.387 . S
H802 C809 0.950 . S
C803 C801 1.387 . S
C803 C805 1.390 1_556 S
C803 H807 0.950 . S
H804 C800 0.950 . S
C805 C803 1.390 1_554 S
C805 C806 1.387 . S
C805 H808 0.950 . S
C806 C805 1.387 . S
C806 C809 1.387 . S
H807 C803 0.950 . S
H808 C805 0.950 . S
C809 C800 1.390 1_554 S
C809 H802 0.950 . S
C809 C806 1.387 . S
C810 C811 1.387 . S
C810 H814 0.950 . S
C810 C819 1.390 1_556 S
C811 C810 1.387 . S
C811 C813 1.387 . S
H812 C819 0.950 . S
C813 C811 1.387 . S
C813 C815 1.390 1_556 S
C813 H817 0.950 . S
H814 C810 0.950 . S
C815 C813 1.390 1_554 S
C815 C816 1.387 . S
C815 H818 0.950 . S
C816 C815 1.387 . S
C816 C819 1.387 . S
H817 C813 0.950 . S
H818 C815 0.950 . S
C819 C810 1.390 1_554 S
C819 H812 0.950 . S
C819 C816 1.387 . S
C820 C821 1.387 . S
C820 H824 0.950 . S
C820 C829 1.390 . S
C821 C820 1.387 . S
C821 C823 1.387 . S
H822 C829 0.950 . S
C823 C821 1.387 . S
C823 C825 1.390 . S
C823 H827 0.950 . S
H824 C820 0.950 . S
C825 C823 1.390 . S
C825 C826 1.387 . S
C825 H828 0.950 . S
C826 C825 1.387 . S
C826 C829 1.387 . S
H827 C823 0.950 . S
H828 C825 0.950 . S
C829 C820 1.390 . S
C829 H822 0.950 . S
C829 C826 1.387 . S
C830 C831 1.387 . S
C830 H834 0.950 . S
C830 C839 1.390 . S
C831 C830 1.387 . S
C831 C833 1.387 . S
H832 C839 0.950 . S
C833 C831 1.387 . S
C833 C835 1.390 . S
C833 H837 0.950 . S
H834 C830 0.950 . S
C835 C833 1.390 . S
C835 C836 1.387 . S
C835 H838 0.950 . S
C836 C835 1.387 . S
C836 C839 1.387 . S
H837 C833 0.950 . S
H838 C835 0.950 . S
C839 C830 1.390 . S
C839 H832 0.950 . S
C839 C836 1.387 . S
C840 C841 1.387 . S
C840 H844 0.950 . S
C840 C849 1.390 1_554 S
C841 C840 1.387 . S
C841 C843 1.387 . S
H842 C849 0.950 . S
C843 C841 1.387 . S
C843 C845 1.390 1_554 S
C843 H847 0.950 . S
H844 C840 0.950 . S
C845 C843 1.390 1_556 S
C845 C846 1.387 . S
C845 H848 0.950 . S
C846 C845 1.387 . S
C846 C849 1.387 . S
H847 C843 0.950 . S
H848 C845 0.950 . S
C849 C840 1.390 1_556 S
C849 H842 0.950 . S
C849 C846 1.387 . S
C850 C851 1.387 . S
C850 H854 0.950 . S
C850 C859 1.390 1_556 S
C851 C850 1.387 . S
C851 C853 1.387 . S
H852 C859 0.950 . S
C853 C851 1.387 . S
C853 C855 1.390 1_556 S
C853 H857 0.950 . S
H854 C850 0.950 . S
C855 C853 1.390 1_554 S
C855 C856 1.387 . S
C855 H858 0.950 . S
C856 C855 1.387 . S
C856 C859 1.387 . S
H857 C853 0.950 . S
H858 C855 0.950 . S
C859 C850 1.390 1_554 S
C859 H852 0.950 . S
C859 C856 1.387 . S
C860 C861 1.387 . S
C860 H864 0.950 . S
C860 C869 1.390 . S
C861 C860 1.387 . S
C861 C863 1.387 . S
H862 C869 0.950 . S
C863 C861 1.387 . S
C863 C865 1.390 . S
C863 H867 0.950 . S
H864 C860 0.950 . S
C865 C863 1.390 . S
C865 C866 1.387 . S
C865 H868 0.950 . S
C866 C865 1.387 . S
C866 C869 1.387 . S
H867 C863 0.950 . S
H868 C865 0.950 . S
C869 C860 1.390 . S
C869 H862 0.950 . S
C869 C866 1.387 . S
C870 C871 1.387 . S
C870 H874 0.950 . S
C870 C879 1.390 . S
C871 C870 1.387 . S
C871 C873 1.387 . S
H872 C879 0.950 . S
C873 C871 1.387 . S
C873 C875 1.390 . S
C873 H877 0.950 . S
H874 C870 0.950 . S
C875 C873 1.390 . S
C875 C876 1.387 . S
C875 H878 0.950 . S
C876 C875 1.387 . S
C876 C879 1.387 . S
H877 C873 0.950 . S
H878 C875 0.950 . S
C879 C870 1.390 . S
C879 H872 0.950 . S
C879 C876 1.387 . S
C880 C881 1.387 . S
C880 H884 0.950 . S
C880 C889 1.390 1_665 S
C881 C880 1.387 . S
C881 C883 1.387 . S
H882 C889 0.950 . S
C883 C881 1.387 . S
C883 C885 1.390 1_665 S
C883 H887 0.950 . S
H884 C880 0.950 . S
C885 C883 1.390 1_445 S
C885 C886 1.387 . S
C885 H888 0.950 . S
C886 C885 1.387 . S
C886 C889 1.387 . S
H887 C883 0.950 . S
H888 C885 0.950 . S
C889 C880 1.390 1_445 S
C889 H882 0.950 . S
C889 C886 1.387 . S
C890 C891 1.387 . S
C890 H894 0.950 . S
C890 C899 1.390 1_645 S
C891 C890 1.387 . S
C891 C893 1.387 . S
H892 C899 0.950 . S
C893 C891 1.387 . S
C893 C895 1.390 1_645 S
C893 H897 0.950 . S
H894 C890 0.950 . S
C895 C893 1.390 1_465 S
C895 C896 1.387 . S
C895 H898 0.950 . S
C896 C895 1.387 . S
C896 C899 1.387 . S
H897 C893 0.950 . S
H898 C895 0.950 . S
C899 C890 1.390 1_465 S
C899 H892 0.950 . S
C899 C896 1.387 . S
C900 C901 1.387 . S
C900 H904 0.950 . S
C900 C909 1.390 1_445 S
C901 C900 1.387 . S
C901 C903 1.387 . S
H902 C909 0.950 . S
C903 C901 1.387 . S
C903 C905 1.390 1_445 S
C903 H907 0.950 . S
H904 C900 0.950 . S
C905 C903 1.390 1_665 S
C905 C906 1.387 . S
C905 H908 0.950 . S
C906 C905 1.387 . S
C906 C909 1.387 . S
H907 C903 0.950 . S
H908 C905 0.950 . S
C909 C900 1.390 1_665 S
C909 H902 0.950 . S
C909 C906 1.387 . S
C910 C911 1.387 . S
C910 H914 0.950 . S
C910 C919 1.390 1_645 S
C911 C910 1.387 . S
C911 C913 1.387 . S
H912 C919 0.950 . S
C913 C911 1.387 . S
C913 C915 1.390 1_645 S
C913 H917 0.950 . S
H914 C910 0.950 . S
C915 C913 1.390 1_465 S
C915 C916 1.387 . S
C915 H918 0.950 . S
C916 C915 1.387 . S
C916 C919 1.387 . S
H917 C913 0.950 . S
H918 C915 0.950 . S
C919 C910 1.390 1_465 S
C919 H912 0.950 . S
C919 C916 1.387 . S
C920 C921 1.387 . S
C920 H924 0.950 . S
C920 C929 1.390 . S
C921 C920 1.387 . S
C921 C923 1.387 . S
H922 C929 0.950 . S
C923 C921 1.387 . S
C923 C925 1.390 . S
C923 H927 0.950 . S
H924 C920 0.950 . S
C925 C923 1.390 . S
C925 C926 1.387 . S
C925 H928 0.950 . S
C926 C925 1.387 . S
C926 C929 1.387 . S
H927 C923 0.950 . S
H928 C925 0.950 . S
C929 C920 1.390 . S
C929 H922 0.950 . S
C929 C926 1.387 . S
C930 C931 1.387 . S
C930 H934 0.950 . S
C930 C939 1.390 . S
C931 C930 1.387 . S
C931 C933 1.387 . S
H932 C939 0.950 . S
C933 C931 1.387 . S
C933 C935 1.390 . S
C933 H937 0.950 . S
H934 C930 0.950 . S
C935 C933 1.390 . S
C935 C936 1.387 . S
C935 H938 0.950 . S
C936 C935 1.387 . S
C936 C939 1.387 . S
H937 C933 0.950 . S
H938 C935 0.950 . S
C939 C930 1.390 . S
C939 H932 0.950 . S
C939 C936 1.387 . S
C940 C941 1.387 . S
C940 H944 0.950 . S
C940 C949 1.390 . S
C941 C940 1.387 . S
C941 C943 1.387 . S
H942 C949 0.950 . S
C943 C941 1.387 . S
C943 C945 1.390 . S
C943 H947 0.950 . S
H944 C940 0.950 . S
C945 C943 1.390 . S
C945 C946 1.387 . S
C945 H948 0.950 . S
C946 C945 1.387 . S
C946 C949 1.387 . S
H947 C943 0.950 . S
H948 C945 0.950 . S
C949 C940 1.390 . S
C949 H942 0.950 . S
C949 C946 1.387 . S
C950 C951 1.387 . S
C950 H954 0.950 . S
C950 C959 1.390 . S
C951 C950 1.387 . S
C951 C953 1.387 . S
H952 C959 0.950 . S
C953 C951 1.387 . S
C953 C955 1.390 . S
C953 H957 0.950 . S
H954 C950 0.950 . S
C955 C953 1.390 . S
C955 C956 1.387 . S
C955 H958 0.950 . S
C956 C955 1.387 . S
C956 C959 1.387 . S
H957 C953 0.950 . S
H958 C955 0.950 . S
C959 C950 1.390 . S
C959 H952 0.950 . S
C959 C956 1.387 . S
C960 C961 1.387 . S
C960 H964 0.950 . S
C960 C969 1.390 . S
C961 C960 1.387 . S
C961 C963 1.387 . S
H962 C969 0.950 . S
C963 C961 1.387 . S
C963 C965 1.390 . S
C963 H967 0.950 . S
H964 C960 0.950 . S
C965 C963 1.390 . S
C965 C966 1.387 . S
C965 H968 0.950 . S
C966 C965 1.387 . S
C966 C969 1.387 . S
H967 C963 0.950 . S
H968 C965 0.950 . S
C969 C960 1.390 . S
C969 H962 0.950 . S
C969 C966 1.387 . S
C970 C971 1.387 . S
C970 H974 0.950 . S
C970 C979 1.390 . S
C971 C970 1.387 . S
C971 C973 1.387 . S
H972 C979 0.950 . S
C973 C971 1.387 . S
C973 C975 1.390 . S
C973 H977 0.950 . S
H974 C970 0.950 . S
C975 C973 1.390 . S
C975 C976 1.387 . S
C975 H978 0.950 . S
C976 C975 1.387 . S
C976 C979 1.387 . S
H977 C973 0.950 . S
H978 C975 0.950 . S
C979 C970 1.390 . S
C979 H972 0.950 . S
C979 C976 1.387 . S
C980 C981 1.387 . S
C980 H984 0.950 . S
C980 C989 1.390 . S
C981 C980 1.387 . S
C981 C983 1.387 . S
H982 C989 0.950 . S
C983 C981 1.387 . S
C983 C985 1.390 . S
C983 H987 0.950 . S
H984 C980 0.950 . S
C985 C983 1.390 . S
C985 C986 1.387 . S
C985 H988 0.950 . S
C986 C985 1.387 . S
C986 C989 1.387 . S
H987 C983 0.950 . S
H988 C985 0.950 . S
C989 C980 1.390 . S
C989 H982 0.950 . S
C989 C986 1.387 . S
C990 C991 1.387 . S
C990 H994 0.950 . S
C990 C999 1.390 . S
C991 C990 1.387 . S
C991 C993 1.387 . S
H992 C999 0.950 . S
C993 C991 1.387 . S
C993 C995 1.390 . S
C993 H997 0.950 . S
H994 C990 0.950 . S
C995 C993 1.390 . S
C995 C996 1.387 . S
C995 H998 0.950 . S
C996 C995 1.387 . S
C996 C999 1.387 . S
H997 C993 0.950 . S
H998 C995 0.950 . S
C999 C990 1.390 . S
C999 H992 0.950 . S
C999 C996 1.387 . S
C1000 C1001 1.387 . S
C1000 H1004 0.950 . S
C1000 C1009 1.390 . S
C1001 C1000 1.387 . S
C1001 C1003 1.387 . S
H1002 C1009 0.950 . S
C1003 C1001 1.387 . S
C1003 C1005 1.390 . S
C1003 H1007 0.950 . S
H1004 C1000 0.950 . S
C1005 C1003 1.390 . S
C1005 C1006 1.387 . S
C1005 H1008 0.950 . S
C1006 C1005 1.387 . S
C1006 C1009 1.387 . S
H1007 C1003 0.950 . S
H1008 C1005 0.950 . S
C1009 C1000 1.390 . S
C1009 H1002 0.950 . S
C1009 C1006 1.387 . S
C1010 C1011 1.387 . S
C1010 H1014 0.950 . S
C1010 C1019 1.390 . S
C1011 C1010 1.387 . S
C1011 C1013 1.387 . S
H1012 C1019 0.950 . S
C1013 C1011 1.387 . S
C1013 C1015 1.390 . S
C1013 H1017 0.950 . S
H1014 C1010 0.950 . S
C1015 C1013 1.390 . S
C1015 C1016 1.387 . S
C1015 H1018 0.950 . S
C1016 C1015 1.387 . S
C1016 C1019 1.387 . S
H1017 C1013 0.950 . S
H1018 C1015 0.950 . S
C1019 C1010 1.390 . S
C1019 H1012 0.950 . S
C1019 C1016 1.387 . S
C1020 C1021 1.387 . S
C1020 H1024 0.950 . S
C1020 C1029 1.390 . S
C1021 C1020 1.387 . S
C1021 C1023 1.387 . S
H1022 C1029 0.950 . S
C1023 C1021 1.387 . S
C1023 C1025 1.390 . S
C1023 H1027 0.950 . S
H1024 C1020 0.950 . S
C1025 C1023 1.390 . S
C1025 C1026 1.387 . S
C1025 H1028 0.950 . S
C1026 C1025 1.387 . S
C1026 C1029 1.387 . S
H1027 C1023 0.950 . S
H1028 C1025 0.950 . S
C1029 C1020 1.390 . S
C1029 H1022 0.950 . S
C1029 C1026 1.387 . S
C1030 C1031 1.387 . S
C1030 H1034 0.950 . S
C1030 C1039 1.390 . S
C1031 C1030 1.387 . S
C1031 C1033 1.387 . S
H1032 C1039 0.950 . S
C1033 C1031 1.387 . S
C1033 C1035 1.390 . S
C1033 H1037 0.950 . S
H1034 C1030 0.950 . S
C1035 C1033 1.390 . S
C1035 C1036 1.387 . S
C1035 H1038 0.950 . S
C1036 C1035 1.387 . S
C1036 C1039 1.387 . S
H1037 C1033 0.950 . S
H1038 C1035 0.950 . S
C1039 C1030 1.390 . S
C1039 H1032 0.950 . S
C1039 C1036 1.387 . S
C1040 C1041 1.387 . S
C1040 H1044 0.950 . S
C1040 C1049 1.390 . S
C1041 C1040 1.387 . S
C1041 C1043 1.387 . S
H1042 C1049 0.950 . S
C1043 C1041 1.387 . S
C1043 C1045 1.390 . S
C1043 H1047 0.950 . S
H1044 C1040 0.950 . S
C1045 C1043 1.390 . S
C1045 C1046 1.387 . S
C1045 H1048 0.950 . S
C1046 C1045 1.387 . S
C1046 C1049 1.387 . S
H1047 C1043 0.950 . S
H1048 C1045 0.950 . S
C1049 C1040 1.390 . S
C1049 H1042 0.950 . S
C1049 C1046 1.387 . S
C1050 C1051 1.387 . S
C1050 H1054 0.950 . S
C1050 C1059 1.390 . S
C1051 C1050 1.387 . S
C1051 C1053 1.387 . S
H1052 C1059 0.950 . S
C1053 C1051 1.387 . S
C1053 C1055 1.390 . S
C1053 H1057 0.950 . S
H1054 C1050 0.950 . S
C1055 C1053 1.390 . S
C1055 C1056 1.387 . S
C1055 H1058 0.950 . S
C1056 C1055 1.387 . S
C1056 C1059 1.387 . S
H1057 C1053 0.950 . S
H1058 C1055 0.950 . S
C1059 C1050 1.390 . S
C1059 H1052 0.950 . S
C1059 C1056 1.387 . S
C1060 C1061 1.387 . S
C1060 H1064 0.950 . S
C1060 C1069 1.390 . S
C1061 C1060 1.387 . S
C1061 C1063 1.387 . S
H1062 C1069 0.950 . S
C1063 C1061 1.387 . S
C1063 C1065 1.390 . S
C1063 H1067 0.950 . S
H1064 C1060 0.950 . S
C1065 C1063 1.390 . S
C1065 C1066 1.387 . S
C1065 H1068 0.950 . S
C1066 C1065 1.387 . S
C1066 C1069 1.387 . S
H1067 C1063 0.950 . S
H1068 C1065 0.950 . S
C1069 C1060 1.390 . S
C1069 H1062 0.950 . S
C1069 C1066 1.387 . S
C1070 C1071 1.387 . S
C1070 H1074 0.950 . S
C1070 C1079 1.390 . S
C1071 C1070 1.387 . S
C1071 C1073 1.387 . S
H1072 C1079 0.950 . S
C1073 C1071 1.387 . S
C1073 C1075 1.390 . S
C1073 H1077 0.950 . S
H1074 C1070 0.950 . S
C1075 C1073 1.390 . S
C1075 C1076 1.387 . S
C1075 H1078 0.950 . S
C1076 C1075 1.387 . S
C1076 C1079 1.387 . S
H1077 C1073 0.950 . S
H1078 C1075 0.950 . S
C1079 C1070 1.390 . S
C1079 H1072 0.950 . S
C1079 C1076 1.387 . S
C1080 C1081 1.387 . S
C1080 H1084 0.950 . S
C1080 C1089 1.390 . S
C1081 C1080 1.387 . S
C1081 C1083 1.387 . S
H1082 C1089 0.950 . S
C1083 C1081 1.387 . S
C1083 C1085 1.390 . S
C1083 H1087 0.950 . S
H1084 C1080 0.950 . S
C1085 C1083 1.390 . S
C1085 C1086 1.387 . S
C1085 H1088 0.950 . S
C1086 C1085 1.387 . S
C1086 C1089 1.387 . S
H1087 C1083 0.950 . S
H1088 C1085 0.950 . S
C1089 C1080 1.390 . S
C1089 H1082 0.950 . S
C1089 C1086 1.387 . S
C1090 C1091 1.387 . S
C1090 H1094 0.950 . S
C1090 C1099 1.390 . S
C1091 C1090 1.387 . S
C1091 C1093 1.387 . S
H1092 C1099 0.950 . S
C1093 C1091 1.387 . S
C1093 C1095 1.390 . S
C1093 H1097 0.950 . S
H1094 C1090 0.950 . S
C1095 C1093 1.390 . S
C1095 C1096 1.387 . S
C1095 H1098 0.950 . S
C1096 C1095 1.387 . S
C1096 C1099 1.387 . S
H1097 C1093 0.950 . S
H1098 C1095 0.950 . S
C1099 C1090 1.390 . S
C1099 H1092 0.950 . S
C1099 C1096 1.387 . S
C1100 C1101 1.387 . S
C1100 H1104 0.950 . S
C1100 C1109 1.390 . S
C1101 C1100 1.387 . S
C1101 C1103 1.387 . S
H1102 C1109 0.950 . S
C1103 C1101 1.387 . S
C1103 C1105 1.390 . S
C1103 H1107 0.950 . S
H1104 C1100 0.950 . S
C1105 C1103 1.390 . S
C1105 C1106 1.387 . S
C1105 H1108 0.950 . S
C1106 C1105 1.387 . S
C1106 C1109 1.387 . S
H1107 C1103 0.950 . S
H1108 C1105 0.950 . S
C1109 C1100 1.390 . S
C1109 H1102 0.950 . S
C1109 C1106 1.387 . S
C1110 C1111 1.387 . S
C1110 H1114 0.950 . S
C1110 C1119 1.390 . S
C1111 C1110 1.387 . S
C1111 C1113 1.387 . S
H1112 C1119 0.950 . S
C1113 C1111 1.387 . S
C1113 C1115 1.390 . S
C1113 H1117 0.950 . S
H1114 C1110 0.950 . S
C1115 C1113 1.390 . S
C1115 C1116 1.387 . S
C1115 H1118 0.950 . S
C1116 C1115 1.387 . S
C1116 C1119 1.387 . S
H1117 C1113 0.950 . S
H1118 C1115 0.950 . S
C1119 C1110 1.390 . S
C1119 H1112 0.950 . S
C1119 C1116 1.387 . S
C641 C11 1.607 . S
C646 C371 1.607 . S
C651 C51 1.607 . S
C656 C331 1.607 . S
C661 C451 1.607 . S
C666 C91 1.607 . S
C671 C131 1.607 . S
C676 C411 1.607 . S
C681 C522 1.608 . S
C686 C162 1.608 . S
C691 C482 1.608 . S
C696 C202 1.608 . S
C701 C602 1.608 . S
C706 C242 1.608 . S
C711 C282 1.607 . S
C716 C562 1.607 . S
C721 C99 1.780 . S
C726 C19 1.780 . S
C731 C139 1.779 . S
C736 C59 1.779 . S
C741 C250 1.780 . S
C746 C170 1.780 . S
C751 C210 1.779 . S
C756 C290 1.779 . S
C761 C419 1.779 . S
C766 C339 1.779 . S
C771 C459 1.779 . S
C776 C379 1.779 . S
C781 C490 1.779 . S
C786 C570 1.779 . S
C791 C530 1.780 . S
C796 C610 1.780 . S
C801 C219 1.528 . S
C806 C10 1.530 . S
C811 C179 1.530 . S
C816 C50 1.529 . S
C821 C90 1.529 . S
C826 C299 1.529 . S
C831 C259 1.528 . S
C836 C130 1.530 . S
C841 C330 1.527 . S
C846 C539 1.531 . S
C851 C499 1.528 . S
C856 C370 1.530 . S
C861 C410 1.531 . S
C866 C619 1.527 . S
C871 C579 1.528 . S
C876 C450 1.530 . S
C881 C42 1.634 . S
C886 C2 1.634 . S
C891 C122 1.637 . S
C896 C82 1.637 . S
C901 C211 1.634 . S
C906 C171 1.634 . S
C911 C251 1.637 . S
C916 C291 1.637 . S
C921 C362 1.634 . S
C926 C322 1.634 . S
C931 C442 1.637 . S
C936 C402 1.637 . S
C941 C491 1.634 . S
C946 C531 1.634 . S
C951 C571 1.634 . S
C956 C611 1.634 . S
C961 C7 1.524 . S
C966 C16 1.524 . S
C971 C47 1.524 . S
C976 C56 1.524 . S
C981 C87 1.526 . S
C986 C96 1.526 . S
C991 C136 1.526 . S
C996 C127 1.526 . S
C1001 C176 1.526 . S
C1006 C167 1.526 . S
C1011 C207 1.526 . S
C1016 C216 1.526 . S
C1021 C256 1.526 . S
C1026 C247 1.526 . S
C1031 C296 1.524 . S
C1036 C287 1.524 . S
C1041 C336 1.524 1_545 S
C1046 C327 1.524 . S
C1051 C367 1.524 . S
C1056 C376 1.524 1_565 S
C1061 C416 1.526 1_565 S
C1066 C407 1.526 . S
C1071 C456 1.526 1_545 S
C1076 C447 1.526 . S
C1081 C496 1.526 . S
C1086 C487 1.526 1_565 S
C1091 C536 1.526 . S
C1096 C527 1.526 1_545 S
C1101 C567 1.524 1_545 S
C1106 C576 1.524 . S
C1111 C616 1.526 . S
C1116 C607 1.526 1_565 S
