# Generated by pormake.
# Topology noy, (5)-cn, num edge types: 1
# Building blocks:
#     Node 0, Type 0, BuildingBlock: XOMCOT_clean_sbu_0, # of connection points: 5
#     Node 1, Type 0, BuildingBlock: XOMCOT_clean_sbu_0, # of connection points: 5
#     Node 2, Type 0, BuildingBlock: XOMCOT_clean_sbu_0, # of connection points: 5
#     Node 3, Type 0, BuildingBlock: XOMCOT_clean_sbu_0, # of connection points: 5
#     Node 4, Type 0, BuildingBlock: XOMCOT_clean_sbu_0, # of connection points: 5
#     Node 5, Type 0, BuildingBlock: XOMCOT_clean_sbu_0, # of connection points: 5
#     Node 6, Type 0, BuildingBlock: XOMCOT_clean_sbu_0, # of connection points: 5
#     Node 7, Type 0, BuildingBlock: XOMCOT_clean_sbu_0, # of connection points: 5
#     Edge 8, Type (0, 0), BuildingBlock: EZIPEK_clean_linker_0, # of connection points: 2
#     Edge 9, Type (0, 0), BuildingBlock: EZIPEK_clean_linker_0, # of connection points: 2
#     Edge 10, Type (0, 0), BuildingBlock: EZIPEK_clean_linker_0, # of connection points: 2
#     Edge 11, Type (0, 0), BuildingBlock: EZIPEK_clean_linker_0, # of connection points: 2
#     Edge 12, Type (0, 0), BuildingBlock: EZIPEK_clean_linker_0, # of connection points: 2
#     Edge 13, Type (0, 0), BuildingBlock: EZIPEK_clean_linker_0, # of connection points: 2
#     Edge 14, Type (0, 0), BuildingBlock: EZIPEK_clean_linker_0, # of connection points: 2
#     Edge 15, Type (0, 0), BuildingBlock: EZIPEK_clean_linker_0, # of connection points: 2
#     Edge 16, Type (0, 0), BuildingBlock: EZIPEK_clean_linker_0, # of connection points: 2
#     Edge 17, Type (0, 0), BuildingBlock: EZIPEK_clean_linker_0, # of connection points: 2
#     Edge 18, Type (0, 0), BuildingBlock: EZIPEK_clean_linker_0, # of connection points: 2
#     Edge 19, Type (0, 0), BuildingBlock: EZIPEK_clean_linker_0, # of connection points: 2
#     Edge 20, Type (0, 0), BuildingBlock: EZIPEK_clean_linker_0, # of connection points: 2
#     Edge 21, Type (0, 0), BuildingBlock: EZIPEK_clean_linker_0, # of connection points: 2
#     Edge 22, Type (0, 0), BuildingBlock: EZIPEK_clean_linker_0, # of connection points: 2
#     Edge 23, Type (0, 0), BuildingBlock: EZIPEK_clean_linker_0, # of connection points: 2
#     Edge 24, Type (0, 0), BuildingBlock: EZIPEK_clean_linker_0, # of connection points: 2
#     Edge 25, Type (0, 0), BuildingBlock: EZIPEK_clean_linker_0, # of connection points: 2
#     Edge 26, Type (0, 0), BuildingBlock: EZIPEK_clean_linker_0, # of connection points: 2
#     Edge 27, Type (0, 0), BuildingBlock: EZIPEK_clean_linker_0, # of connection points: 2
# Relax obj value: 0.208
# Max RMSD: 0.213
# Mean RMSD: 0.213
data_MOF--net-noy--node1-XOMCOT_clean_sbu_0--edge1-EZIPEK_clean_linker_0
_symmetry_space_group_name_H-M    P1
_symmetry_Int_Tables_number       1
_symmetry_cell_setting            triclinic
loop_
_symmetry_equiv_pos_as_xyz
'x, y, z'
_cell_length_a     37.395945
_cell_length_b     35.129116
_cell_length_c     15.294157
_cell_angle_alpha  90.105678
_cell_angle_beta   90.452929
_cell_angle_gamma 89.542407
loop_
_atom_site_label
_atom_site_type_symbol
_atom_site_fract_x
_atom_site_fract_y
_atom_site_fract_z
_atom_type_partial_charge
Co0 Co 0.32544 0.40061 0.34713 0.0
C1 C 0.32264 0.46396 0.21364 0.0
C2 C 0.34204 0.41137 0.16101 0.0
C3 C 0.3422 0.4379 0.09564 0.0
N4 N 0.32918 0.42713 0.23528 0.0
N5 N 0.33008 0.47082 0.12881 0.0
H6 H 0.31313 0.48549 0.25798 0.0
H7 H 0.35139 0.38263 0.15358 0.0
C8 C 0.29858 0.32072 0.29443 0.0
O9 O 0.32037 0.30468 0.35137 0.0
N10 N 0.32339 0.37405 0.4588 0.0
C11 C 0.34976 0.37331 0.51969 0.0
C12 C 0.34001 0.34991 0.58729 0.0
C13 C 0.29744 0.3517 0.49168 0.0
N14 N 0.30738 0.33606 0.56906 0.0
C15 C 0.40178 0.40285 0.35745 0.0
C16 C 0.41766 0.33755 0.26451 0.0
C17 C 0.44558 0.36074 0.29318 0.0
C18 C 0.4374 0.39341 0.34114 0.0
C19 C 0.38224 0.34821 0.2816 0.0
N20 N 0.37428 0.38055 0.3282 0.0
H21 H 0.39666 0.42884 0.39263 0.0
H22 H 0.36192 0.3318 0.25009 0.0
H23 H 0.37473 0.38832 0.5153 0.0
H24 H 0.27256 0.34562 0.45816 0.0
O25 O 0.33721 0.44719 0.41055 0.0
O26 O 0.28228 0.42995 0.37824 0.0
O27 O 0.29947 0.35699 0.28335 0.0
C28 C 0.30324 0.45461 0.41556 0.0
H29 H 0.35015 0.43338 0.02847 0.0
H30 H 0.35631 0.34205 0.64333 0.0
H31 H 0.42314 0.31248 0.22535 0.0
H32 H 0.45841 0.41215 0.36378 0.0
Co33 Co 0.70465 0.6527 0.85686 0.0
C34 C 0.68854 0.60189 0.70244 0.0
C35 C 0.74185 0.62406 0.70509 0.0
C36 C 0.73895 0.59971 0.63531 0.0
N37 N 0.71033 0.62568 0.74724 0.0
N38 N 0.70562 0.58569 0.63435 0.0
H39 H 0.66153 0.59501 0.71978 0.0
H40 H 0.76576 0.63886 0.72552 0.0
C41 C 0.72214 0.7129 0.72491 0.0
O42 O 0.69651 0.69915 0.67511 0.0
N43 N 0.70065 0.6799 0.96594 0.0
C44 C 0.6747 0.67701 0.02624 0.0
C45 C 0.68092 0.70357 0.09122 0.0
C46 C 0.72237 0.7077 0.99485 0.0
N47 N 0.71085 0.72264 0.07085 0.0
C48 C 0.62955 0.64239 0.82739 0.0
C49 C 0.61092 0.71776 0.80084 0.0
C50 C 0.58436 0.68993 0.79539 0.0
C51 C 0.59392 0.652 0.81021 0.0
C52 C 0.64643 0.70683 0.81883 0.0
N53 N 0.65581 0.66923 0.82692 0.0
H54 H 0.63578 0.61312 0.84249 0.0
H55 H 0.66608 0.72874 0.82767 0.0
H56 H 0.65239 0.65768 0.02206 0.0
H57 H 0.74566 0.71753 0.9602 0.0
O58 O 0.69322 0.60537 0.91495 0.0
O59 O 0.74808 0.62733 0.89998 0.0
O60 O 0.72775 0.69896 0.80123 0.0
C61 C 0.72727 0.60047 0.92783 0.0
H62 H 0.75989 0.59202 0.58994 0.0
H63 H 0.66441 0.70918 0.14767 0.0
H64 H 0.60417 0.74758 0.79259 0.0
H65 H 0.57385 0.62991 0.80918 0.0
Co66 Co 0.31475 0.65284 0.65903 0.0
C67 C 0.32314 0.60234 0.82056 0.0
C68 C 0.27627 0.63755 0.81966 0.0
C69 C 0.276 0.61629 0.89447 0.0
N70 N 0.30631 0.63014 0.77393 0.0
N71 N 0.30506 0.59366 0.89425 0.0
H72 H 0.34628 0.58654 0.79907 0.0
H73 H 0.25482 0.65595 0.79822 0.0
C74 C 0.29721 0.71947 0.77425 0.0
O75 O 0.32147 0.706 0.82887 0.0
N76 N 0.31973 0.67634 0.54536 0.0
C77 C 0.34865 0.67938 0.49387 0.0
C78 C 0.34 0.70303 0.42435 0.0
C79 C 0.29388 0.6973 0.50588 0.0
N80 N 0.30552 0.71417 0.43229 0.0
C81 C 0.3879 0.64347 0.71148 0.0
C82 C 0.40784 0.71891 0.70256 0.0
C83 C 0.43357 0.69129 0.7251 0.0
C84 C 0.42326 0.65327 0.72912 0.0
C85 C 0.37251 0.70773 0.68478 0.0
N86 N 0.36252 0.67048 0.69276 0.0
H87 H 0.38153 0.61374 0.70869 0.0
H88 H 0.35348 0.72883 0.66189 0.0
H89 H 0.37451 0.66661 0.50757 0.0
H90 H 0.26736 0.70137 0.53238 0.0
O91 O 0.32932 0.60407 0.61184 0.0
O92 O 0.27335 0.6245 0.61339 0.0
O93 O 0.29114 0.70208 0.70178 0.0
C94 C 0.29619 0.5977 0.59234 0.0
H95 H 0.2548 0.61536 0.94223 0.0
H96 H 0.35781 0.7121 0.37311 0.0
H97 H 0.41522 0.74852 0.69637 0.0
H98 H 0.44272 0.6311 0.74361 0.0
Co99 Co 0.71326 0.40481 0.16483 0.0
C100 C 0.69326 0.45633 0.31581 0.0
C101 C 0.74705 0.43479 0.32124 0.0
C102 C 0.74239 0.45942 0.38982 0.0
N103 N 0.71629 0.43241 0.27484 0.0
N104 N 0.70876 0.47302 0.38578 0.0
H105 H 0.6665 0.46309 0.29446 0.0
H106 H 0.77179 0.42079 0.30402 0.0
C107 C 0.73098 0.34561 0.30021 0.0
O108 O 0.70768 0.3625 0.35143 0.0
N109 N 0.7124 0.37734 0.0557 0.0
C110 C 0.68617 0.37583 0.99484 0.0
C111 C 0.69635 0.35035 0.93048 0.0
C112 C 0.7382 0.35344 0.02756 0.0
N113 N 0.72904 0.33654 0.9516 0.0
C114 C 0.63782 0.41275 0.18814 0.0
C115 C 0.62239 0.33654 0.20869 0.0
C116 C 0.59484 0.36359 0.21572 0.0
C117 C 0.60274 0.40194 0.20351 0.0
C118 C 0.65743 0.34877 0.19366 0.0
N119 N 0.66513 0.38672 0.189 0.0
H120 H 0.64276 0.44224 0.1738 0.0
H121 H 0.67814 0.32765 0.18375 0.0
H122 H 0.66112 0.39135 0.99817 0.0
H123 H 0.7628 0.34768 0.06308 0.0
O124 O 0.70009 0.45123 0.10509 0.0
O125 O 0.75595 0.4319 0.12648 0.0
O126 O 0.73634 0.35844 0.22296 0.0
C127 C 0.73388 0.45765 0.09588 0.0
H128 H 0.76242 0.46779 0.43746 0.0
H129 H 0.6808 0.34198 0.87375 0.0
H130 H 0.61681 0.30643 0.2139 0.0
H131 H 0.58176 0.42341 0.20462 0.0
Co132 Co 0.80527 0.90707 0.36201 0.0
C133 C 0.81316 0.96351 0.21306 0.0
C134 C 0.76111 0.939 0.22377 0.0
C135 C 0.76031 0.96445 0.15576 0.0
N136 N 0.79433 0.93767 0.25903 0.0
N137 N 0.79298 0.97973 0.14943 0.0
H138 H 0.84041 0.9715 0.2258 0.0
H139 H 0.73867 0.92277 0.24706 0.0
C140 C 0.78248 0.85007 0.2279 0.0
O141 O 0.8059 0.86558 0.17545 0.0
N142 N 0.81333 0.87632 0.46491 0.0
C143 C 0.84243 0.87428 0.51743 0.0
C144 C 0.83611 0.84773 0.58218 0.0
C145 C 0.78978 0.85155 0.49831 0.0
N146 N 0.803 0.83373 0.56953 0.0
C147 C 0.878 0.91704 0.31109 0.0
C148 C 0.89586 0.84128 0.28814 0.0
C149 C 0.92232 0.86893 0.27844 0.0
C150 C 0.91304 0.90711 0.29013 0.0
C151 C 0.86081 0.85256 0.30884 0.0
N152 N 0.85181 0.89028 0.31709 0.0
H153 H 0.87266 0.94633 0.32737 0.0
H154 H 0.84145 0.83083 0.32183 0.0
H155 H 0.86661 0.89046 0.50854 0.0
H156 H 0.76366 0.84608 0.47018 0.0
O157 O 0.82198 0.95125 0.42371 0.0
O158 O 0.76553 0.93274 0.42139 0.0
O159 O 0.77874 0.86295 0.3057 0.0
C160 C 0.78934 0.95727 0.44784 0.0
H161 H 0.73745 0.97185 0.11522 0.0
H162 H 0.85457 0.83871 0.63307 0.0
H163 H 0.90251 0.81131 0.28272 0.0
H164 H 0.93315 0.92909 0.28653 0.0
Co165 Co 0.21171 0.1517 0.85769 0.0
C166 C 0.2036 0.10298 0.69248 0.0
C167 C 0.25657 0.12243 0.7208 0.0
C168 C 0.25804 0.09989 0.6477 0.0
N169 N 0.22254 0.12485 0.74917 0.0
N170 N 0.22491 0.08717 0.63098 0.0
H171 H 0.17572 0.09614 0.69836 0.0
H172 H 0.27918 0.13566 0.75281 0.0
C173 C 0.23495 0.21101 0.73169 0.0
O174 O 0.21071 0.19662 0.67876 0.0
N175 N 0.20429 0.17896 0.96632 0.0
C176 C 0.17512 0.17965 0.01756 0.0
C177 C 0.18176 0.20334 0.08819 0.0
C178 C 0.22827 0.20175 1.00646 0.0
N179 N 0.21523 0.21695 0.08098 0.0
C180 C 0.13933 0.14628 0.79708 0.0
C181 C 0.12426 0.22333 0.78851 0.0
C182 C 0.09749 0.19727 0.7667 0.0
C183 C 0.10524 0.1584 0.77165 0.0
C184 C 0.15822 0.20986 0.81356 0.0
N185 N 0.16598 0.17169 0.81373 0.0
H186 H 0.14374 0.11624 0.80677 0.0
H187 H 0.17788 0.2301 0.83508 0.0
H188 H 0.15067 0.16442 1.00401 0.0
H189 H 0.25467 0.20743 0.98129 0.0
O190 O 0.19337 0.10562 0.90967 0.0
O191 O 0.25018 0.12165 0.91418 0.0
O192 O 0.23922 0.19706 0.80889 0.0
C193 C 0.22563 0.09683 0.93367 0.0
H194 H 0.28188 0.09148 0.61265 0.0
H195 H 0.16339 0.21036 0.14025 0.0
H196 H 0.11866 0.25363 0.78846 0.0
H197 H 0.08469 0.13753 0.75861 0.0
Co198 Co 0.83086 0.15423 0.67378 0.0
C199 C 0.8189 0.1046 0.83019 0.0
C200 C 0.86488 0.13964 0.84883 0.0
C201 C 0.86129 0.11718 0.92147 0.0
N202 N 0.83858 0.13167 0.79018 0.0
N203 N 0.83263 0.09509 0.90913 0.0
H204 H 0.7955 0.09132 0.80207 0.0
H205 H 0.88585 0.1602 0.84075 0.0
C206 C 0.8182 0.22281 0.79133 0.0
O207 O 0.85009 0.21925 0.82654 0.0
N208 N 0.82291 0.177 0.55994 0.0
C209 C 0.84165 0.16999 0.48657 0.0
C210 C 0.82977 0.19435 0.4217 0.0
C211 C 0.79984 0.20537 0.53884 0.0
N212 N 0.80373 0.21661 0.45515 0.0
C213 C 0.90651 0.14926 0.68057 0.0
C214 C 0.92153 0.22602 0.66944 0.0
C215 C 0.94947 0.19993 0.68488 0.0
C216 C 0.94178 0.16115 0.68753 0.0
C217 C 0.88627 0.21276 0.66298 0.0
N218 N 0.87904 0.17502 0.67463 0.0
H219 H 0.90102 0.11921 0.68565 0.0
H220 H 0.86481 0.23281 0.65083 0.0
H221 H 0.86322 0.14944 0.48141 0.0
H222 H 0.78114 0.21826 0.58386 0.0
O223 O 0.8424 0.10619 0.61816 0.0
O224 O 0.7879 0.12378 0.65715 0.0
O225 O 0.80768 0.20037 0.73068 0.0
C226 C 0.80864 0.09817 0.62147 0.0
H227 H 0.87872 0.11647 0.9783 0.0
H228 H 0.84013 0.19648 0.35601 0.0
H229 H 0.92685 0.25619 0.66456 0.0
H230 H 0.96288 0.14024 0.69749 0.0
Co231 Co 0.19524 0.89929 0.17241 0.0
C232 C 0.2001 0.95997 0.31138 0.0
C233 C 0.1741 0.90974 0.35635 0.0
C234 C 0.17481 0.93551 0.42369 0.0
N235 N 0.19009 0.92471 0.2854 0.0
N236 N 0.19118 0.96694 0.39529 0.0
H237 H 0.21356 0.98027 0.27103 0.0
H238 H 0.16266 0.88189 0.36054 0.0
C239 C 0.22023 0.81803 0.21974 0.0
O240 O 0.20013 0.80352 0.15735 0.0
N241 N 0.19936 0.87401 0.0597 0.0
C242 C 0.17465 0.87481 0.99495 0.0
C243 C 0.18677 0.85326 0.92592 0.0
C244 C 0.22665 0.85269 0.02807 0.0
N245 N 0.2191 0.83876 0.94752 0.0
C246 C 0.11908 0.90448 0.15403 0.0
C247 C 0.10029 0.83864 0.23965 0.0
C248 C 0.0733 0.86346 0.21071 0.0
C249 C 0.08301 0.89635 0.16623 0.0
C250 C 0.13626 0.84791 0.22639 0.0
N251 N 0.14566 0.88072 0.18411 0.0
H252 H 0.12523 0.93072 0.12156 0.0
H253 H 0.15579 0.82992 0.25715 0.0
H254 H 0.14947 0.88998 0.99722 0.0
H255 H 0.25104 0.84658 0.06403 0.0
O256 O 0.18504 0.94668 0.11125 0.0
O257 O 0.23931 0.92775 0.14765 0.0
O258 O 0.21897 0.854 0.23562 0.0
C259 C 0.21907 0.95328 0.10982 0.0
H260 H 0.16505 0.93121 0.48937 0.0
H261 H 0.17242 0.84745 0.86565 0.0
H262 H 0.09365 0.81324 0.27593 0.0
H263 H 0.06279 0.91632 0.14333 0.0
C264 C 0.50828 0.34185 0.33449 0.0
C265 C 0.48334 0.35286 0.2687 0.0
C266 C 0.53194 0.35676 0.16259 0.0
C267 C 0.55712 0.35275 0.23171 0.0
N268 N 0.56998 0.34249 0.38462 0.0
N269 N 0.4713 0.37356 0.12069 0.0
C270 C 0.54554 0.34492 0.31791 0.0
C271 C 0.49502 0.36045 0.18236 0.0
N272 N 0.4962 0.3284 0.41257 0.0
N273 N 0.54353 0.3572 0.07809 0.0
H274 H 0.44403 0.37693 0.13223 0.0
H275 H 0.47901 0.38385 0.05994 0.0
H276 H 0.57051 0.35446 0.06202 0.0
H277 H 0.52636 0.3565 0.02417 0.0
H278 H 0.51286 0.31664 0.46039 0.0
H279 H 0.46902 0.3258 0.4262 0.0
H280 H 0.563 0.34147 0.45033 0.0
H281 H 0.5975 0.34372 0.37468 0.0
C282 C 0.52216 0.70642 0.84483 0.0
C283 C 0.54628 0.69965 0.77525 0.0
C284 C 0.49613 0.69986 0.67033 0.0
C285 C 0.47186 0.70085 0.74119 0.0
N286 N 0.46068 0.70581 0.89553 0.0
N287 N 0.55732 0.69039 0.62178 0.0
C288 C 0.4846 0.70496 0.82837 0.0
C289 C 0.53357 0.69712 0.68771 0.0
N290 N 0.53534 0.71413 0.92654 0.0
N291 N 0.48319 0.70135 0.58652 0.0
H292 H 0.58495 0.68993 0.63176 0.0
H293 H 0.54986 0.68358 0.558 0.0
H294 H 0.45592 0.70266 0.57188 0.0
H295 H 0.49922 0.70425 0.53169 0.0
H296 H 0.51958 0.72268 0.9789 0.0
H297 H 0.56267 0.71481 0.94058 0.0
H298 H 0.46788 0.70413 0.96125 0.0
H299 H 0.43306 0.70667 0.88525 0.0
C300 C 1.01058 0.84743 0.16377 0.0
C301 C 0.03493 0.85712 0.23176 0.0
C302 C 0.98506 0.86208 0.33461 0.0
C303 C 0.96056 0.85875 0.26381 0.0
N304 N 0.9493 0.84945 0.11 0.0
N305 N 0.04545 0.87684 0.38108 0.0
C306 C 0.9731 0.85121 0.17814 0.0
C307 C 0.02227 0.86476 0.31741 0.0
N308 N 0.02342 0.83436 0.08577 0.0
N309 N 0.97259 0.86266 0.41838 0.0
H310 H 0.07291 0.87925 0.37158 0.0
H311 H 0.0372 0.88724 0.4415 0.0
H312 H 0.94544 0.86076 0.43292 0.0
H313 H 0.98917 0.86132 0.47333 0.0
H314 H 1.00723 0.82347 0.03618 0.0
H315 H 0.05072 0.83127 0.07367 0.0
H316 H 0.95688 0.84858 0.04468 0.0
H317 H 0.92169 0.85106 0.11858 0.0
C318 C 0.04954 0.21086 0.65548 0.0
C319 C 0.06038 0.20962 0.74448 0.0
C320 C 0.99801 0.21763 0.79012 0.0
C321 C 0.98691 0.21194 0.70222 0.0
N322 N 1.00091 0.2052 0.54981 0.0
N323 N 0.046 0.21285 0.89758 0.0
C324 C 0.0124 0.20989 0.63417 0.0
C325 C 0.03494 0.21413 0.81218 0.0
N326 N 0.07492 0.21269 0.59184 0.0
N327 N 0.97304 0.22576 0.85237 0.0
H328 H 0.07291 0.21165 0.91595 0.0
H329 H 0.0287 0.2112 0.95036 0.0
H330 H 0.94577 0.22787 0.83808 0.0
H331 H 0.97933 0.23352 0.91631 0.0
H332 H 0.06912 0.21665 0.52583 0.0
H333 H 0.10224 0.21328 0.60619 0.0
H334 H 0.01776 0.199 0.49779 0.0
H335 H 0.97389 0.20625 0.53224 0.0
C336 C 0.34191 0.56373 0.01082 0.0
C337 C 0.31168 0.56278 0.95436 0.0
C338 C 0.29045 0.50534 0.02786 0.0
C339 C 0.32228 0.50425 0.07804 0.0
N340 N 0.37994 0.52941 0.11417 0.0
N341 N 0.25955 0.52998 0.90025 0.0
C342 C 0.34848 0.53274 0.06884 0.0
C343 C 0.28645 0.53292 0.96079 0.0
N344 N 0.36348 0.59491 0.01087 0.0
N345 N 0.264 0.4799 0.04517 0.0
H346 H 0.25589 0.54936 0.84955 0.0
H347 H 0.24266 0.50665 0.89548 0.0
H348 H 0.2666 0.45909 0.09345 0.0
H349 H 0.23854 0.48135 0.01732 0.0
H350 H 0.38411 0.59912 0.05587 0.0
H351 H 0.35899 0.6181 0.9696 0.0
H352 H 0.40186 0.5469 0.10409 0.0
H353 H 0.38467 0.50751 0.15893 0.0
C354 C 0.69261 0.53975 0.4186 0.0
C355 C 0.69427 0.50108 0.44431 0.0
C356 C 0.69027 0.51919 0.59829 0.0
C357 C 0.69277 0.55786 0.57302 0.0
N358 N 0.68598 0.60596 0.46357 0.0
N359 N 0.68426 0.45318 0.55198 0.0
C360 C 0.69008 0.56836 0.48408 0.0
C361 C 0.6892 0.49066 0.53242 0.0
N362 N 0.69574 0.54893 0.33237 0.0
N363 N 0.69135 0.50983 0.68483 0.0
H364 H 0.68355 0.43227 0.50338 0.0
H365 H 0.67808 0.44321 0.61402 0.0
H366 H 0.69077 0.53021 0.73429 0.0
H367 H 0.69377 0.4821 0.70801 0.0
H368 H 0.69862 0.57658 0.30938 0.0
H369 H 0.69626 0.52842 0.28317 0.0
H370 H 0.6817 0.61609 0.40045 0.0
H371 H 0.68412 0.62693 0.51187 0.0
C372 C 0.74576 0.53176 0.91913 0.0
C373 C 0.74098 0.56508 0.97033 0.0
C374 C 0.74912 0.52684 0.10313 0.0
C375 C 0.74545 0.49325 0.05247 0.0
N376 N 0.7421 0.46285 0.91167 0.0
N377 N 0.74034 0.5954 0.11148 0.0
C378 C 0.74488 0.49544 0.96006 0.0
C379 C 0.7439 0.56302 0.06264 0.0
N380 N 0.75179 0.53502 0.83171 0.0
N381 N 0.75782 0.52392 0.18963 0.0
H382 H 0.73813 0.62237 0.08331 0.0
H383 H 0.73818 0.59546 0.17929 0.0
H384 H 0.76256 0.49765 0.21923 0.0
H385 H 0.76374 0.54718 0.22931 0.0
H386 H 0.7585 0.51212 0.79155 0.0
H387 H 0.7538 0.56142 0.80156 0.0
H388 H 0.73705 0.46264 0.84461 0.0
H389 H 0.74347 0.43583 0.93981 0.0
C390 C 0.27517 0.52081 0.42154 0.0
C391 C 0.29008 0.48873 0.46556 0.0
C392 C 0.29288 0.52666 0.60064 0.0
C393 C 0.28621 0.56032 0.55201 0.0
N394 N 0.2705 0.58986 0.41499 0.0
N395 N 0.30899 0.45968 0.60067 0.0
C396 C 0.27656 0.5575 0.4623 0.0
C397 C 0.29748 0.49126 0.5565 0.0
N398 N 0.2591 0.51612 0.34193 0.0
N399 N 0.2937 0.52864 0.68964 0.0
H400 H 0.30832 0.43265 0.57282 0.0
H401 H 0.31962 0.46031 0.66377 0.0
H402 H 0.28787 0.55393 0.72211 0.0
H403 H 0.29593 0.50512 0.73064 0.0
H404 H 0.24547 0.53787 0.30922 0.0
H405 H 0.25602 0.48936 0.31337 0.0
H406 H 0.26762 0.59002 0.34719 0.0
H407 H 0.27035 0.61688 0.44341 0.0
C408 C 0.79633 0.07384 0.03308 0.0
C409 C 0.82126 0.06535 0.96674 0.0
C410 C 0.82609 0.99952 0.01847 0.0
C411 C 0.80334 1.00886 0.08893 0.0
N412 N 0.77072 0.05547 0.1719 0.0
N413 N 0.86391 1.02248 0.90198 0.0
C414 C 0.7894 0.04624 0.09845 0.0
C415 C 0.8373 0.02876 0.96097 0.0
N416 N 0.77922 0.10831 0.03268 0.0
N417 N 0.83591 0.96244 1.00523 0.0
H418 H 0.87241 0.04341 0.85879 0.0
H419 H 0.87922 0.99762 0.89987 0.0
H420 H 0.8279 0.94052 0.04645 0.0
H421 H 0.84958 0.95298 0.95018 0.0
H422 H 0.75832 0.11538 0.07437 0.0
H423 H 0.78431 0.12896 0.98563 0.0
H424 H 0.76245 0.08301 0.18739 0.0
H425 H 0.76602 0.03578 0.22127 0.0
C426 C 0.23196 1.02057 0.58173 0.0
C427 C 0.21609 0.05708 0.57063 0.0
C428 C 0.18365 0.03413 0.44113 0.0
C429 C 0.20151 0.99861 0.44928 0.0
N430 N 0.24798 0.96038 0.51458 0.0
N431 N 0.18143 0.10084 0.48339 0.0
C432 C 0.22732 0.99261 0.51589 0.0
C433 C 0.19314 0.06452 0.49839 0.0
N434 N 0.25026 1.01214 0.65695 0.0
N435 N 0.15691 0.03822 0.38054 0.0
H436 H 0.18825 0.12352 0.52423 0.0
H437 H 0.16734 0.109 0.42741 0.0
H438 H 0.14981 1.01639 0.3376 0.0
H439 H 0.14034 0.06212 0.37666 0.0
H440 H 0.25906 0.98479 0.67288 0.0
H441 H 0.25379 0.03167 0.70749 0.0
H442 H 0.2697 0.95588 0.55646 0.0
H443 H 0.24557 0.93976 0.46573 0.0
C444 C 0.22213 1.02505 0.92866 0.0
C445 C 0.23325 0.05853 0.974 0.0
C446 C 0.24826 1.0187 0.10259 0.0
C447 C 0.23278 0.98683 0.06009 0.0
N448 N 0.22018 0.95611 0.92386 0.0
N449 N 0.25661 0.08746 0.10539 0.0
C450 C 0.22427 0.98905 0.97034 0.0
C451 C 0.24709 0.0553 0.06081 0.0
N452 N 0.208 1.02772 0.84645 0.0
N453 N 0.2652 1.01356 0.18105 0.0
H454 H 0.25619 0.11442 0.07702 0.0
H455 H 0.26296 0.08795 0.17172 0.0
H456 H 0.26838 0.98664 0.20877 0.0
H457 H 0.27928 0.03472 0.21383 0.0
H458 H 0.19435 1.00578 0.81517 0.0
H459 H 0.20863 0.05262 0.81059 0.0
H460 H 0.21724 0.95495 0.85616 0.0
H461 H 0.22451 0.92956 0.95238 0.0
C462 C 0.77099 0.05927 0.51625 0.0
C463 C 0.79537 0.0608 0.58831 0.0
C464 C 0.79956 0.99099 0.58717 0.0
C465 C 0.78159 0.9902 0.50589 0.0
N466 N 0.74679 1.02189 0.39515 0.0
N467 N 0.83446 1.02747 0.69 0.0
C468 C 0.76556 1.02379 0.47196 0.0
C469 C 0.80973 1.02643 0.62386 0.0
N470 N 0.75426 0.09182 0.48813 0.0
N471 N 0.80685 0.95747 0.62904 0.0
H472 H 0.84267 0.05251 0.71987 0.0
H473 H 0.84893 1.00369 0.71094 0.0
H474 H 0.79855 0.93138 0.60359 0.0
H475 H 0.81716 0.95583 0.69239 0.0
H476 H 0.73395 0.09238 0.44131 0.0
H477 H 0.75928 0.11854 0.51493 0.0
H478 H 0.73697 0.04547 0.36143 0.0
H479 H 0.74154 0.9961 0.36387 0.0
C480 C 0.26685 0.30321 0.15038 0.0
C481 C 0.27413 0.29569 0.24052 0.0
C482 C 0.24232 0.23474 0.22434 0.0
C483 C 0.23287 0.24423 0.13732 0.0
N484 N 0.2263 0.29287 0.02862 0.0
N485 N 0.25755 0.25891 0.36776 0.0
C486 C 0.24196 0.28026 0.10407 0.0
C487 C 0.25859 0.26273 0.27898 0.0
N488 N 0.28546 0.3301 0.10622 0.0
N489 N 0.23667 0.19874 0.25427 0.0
H490 H 0.26594 0.28022 0.41041 0.0
H491 H 0.24415 0.23689 0.39876 0.0
H492 H 0.22523 0.17758 0.21541 0.0
H493 H 0.24627 0.18915 0.31455 0.0
H494 H 0.28298 0.33423 0.03895 0.0
H495 H 0.30674 0.34442 0.13404 0.0
H496 H 0.22933 0.32058 1.00573 0.0
H497 H 0.20704 0.277 0.99522 0.0
C498 C 0.74804 0.7795 0.73282 0.0
C499 C 0.74567 0.7435 0.68983 0.0
C500 C 0.78776 0.76594 0.57841 0.0
C501 C 0.78631 0.80278 0.61498 0.0
N502 N 0.76397 0.84642 0.72218 0.0
N503 N 0.76151 0.70361 0.56613 0.0
C504 C 0.76639 0.80997 0.69143 0.0
C505 C 0.76509 0.73704 0.61108 0.0
N506 N 0.73264 0.7848 0.81267 0.0
N507 N 0.81166 0.75851 0.51336 0.0
H508 H 0.74702 0.68062 0.58885 0.0
H509 H 0.77111 0.69941 0.50308 0.0
H510 H 0.8283 0.77939 0.4879 0.0
H511 H 0.81724 0.73128 0.48988 0.0
H512 H 0.73694 0.80871 0.85152 0.0
H513 H 0.71729 0.76429 0.84328 0.0
H514 H 0.7467 0.85494 0.77167 0.0
H515 H 0.77787 0.86885 0.69392 0.0
C516 C 0.22182 0.77543 0.87655 0.0
C517 C 0.23868 0.81009 0.89916 0.0
C518 C 0.29377 0.78725 0.82976 0.0
C519 C 0.27589 0.75358 0.80188 0.0
N520 N 0.21899 0.72326 0.77411 0.0
N521 N 0.28799 0.85261 0.88061 0.0
C522 C 0.23865 0.75013 0.81697 0.0
C523 C 0.27395 0.81708 0.87091 0.0
N524 N 0.19059 0.76557 0.91585 0.0
N525 N 0.3297 0.79075 0.81721 0.0
H526 H 0.27369 0.87508 0.9086 0.0
H527 H 0.3123 0.86069 0.85388 0.0
H528 H 0.3446 0.77115 0.7813 0.0
H529 H 0.34494 0.81224 0.84561 0.0
H530 H 0.1789 0.73895 0.9078 0.0
H531 H 0.17875 0.78213 0.96449 0.0
H532 H 0.19125 0.72175 0.77883 0.0
H533 H 0.22942 0.70597 0.72516 0.0
C534 C 0.78807 0.31111 0.34371 0.0
C535 C 0.75022 0.31085 0.33269 0.0
C536 C 0.74898 0.24576 0.39248 0.0
C537 C 0.78581 0.24813 0.41263 0.0
N538 N 0.83931 0.28523 0.42258 0.0
N539 N 0.69394 0.27871 0.35513 0.0
C540 C 0.80512 0.28134 0.39193 0.0
C541 C 0.73045 0.2784 0.35972 0.0
N542 N 0.80792 0.33965 0.30852 0.0
N543 N 0.73203 0.21174 0.40213 0.0
H544 H 0.67914 0.30083 0.32748 0.0
H545 H 0.6781 0.258 0.38375 0.0
H546 H 0.74515 0.18742 0.42541 0.0
H547 H 0.7061 0.20666 0.38001 0.0
H548 H 0.83575 0.339 0.30663 0.0
H549 H 0.79684 0.36241 0.27416 0.0
H550 H 0.85366 0.31043 0.41822 0.0
H551 H 0.85212 0.26438 0.46015 0.0
C552 C 0.72017 0.79179 0.08104 0.0
C553 C 0.72567 0.75498 0.11576 0.0
C554 C 0.76154 0.7816 0.23567 0.0
C555 C 0.76012 0.818 0.19452 0.0
N556 N 0.73838 0.85764 0.07582 0.0
N557 N 0.75349 0.71327 0.22014 0.0
C558 C 0.73945 0.82304 0.11654 0.0
C559 C 0.74659 0.74951 0.19201 0.0
N560 N 0.69552 0.7968 0.01556 0.0
N561 N 0.77707 0.77742 0.31622 0.0
H562 H 0.74256 0.68941 0.18963 0.0
H563 H 0.77196 0.70659 0.26913 0.0
H564 H 0.78954 0.79939 0.34973 0.0
H565 H 0.775 0.75274 0.35332 0.0
H566 H 0.68727 0.82332 0.99243 0.0
H567 H 0.68098 0.77427 0.98902 0.0
H568 H 0.72808 0.8618 0.0131 0.0
H569 H 0.74921 0.88219 0.10298 0.0
C570 C 0.25486 0.27991 0.73386 0.0
C571 C 0.25761 0.24258 0.69786 0.0
C572 C 0.2982 0.26704 0.58581 0.0
C573 C 0.29087 0.30466 0.61343 0.0
N574 N 0.26108 0.34809 0.70968 0.0
N575 N 0.27925 0.20169 0.58155 0.0
C576 C 0.26892 0.31141 0.68664 0.0
C577 C 0.27853 0.23648 0.6215 0.0
N578 N 0.23916 0.28532 0.81314 0.0
N579 N 0.32495 0.2604 0.52735 0.0
H580 H 0.26692 0.17783 0.60699 0.0
H581 H 0.29007 0.19715 0.5198 0.0
H582 H 0.34048 0.28217 0.5019 0.0
H583 H 0.33411 0.23325 0.51104 0.0
H584 H 0.23889 0.31131 0.84584 0.0
H585 H 0.22941 0.26302 0.85031 0.0
H586 H 0.24225 0.3555 0.75664 0.0
H587 H 0.27178 0.37136 0.67685 0.0
C588 C 0.77732 0.24394 0.91143 0.0
C589 C 0.7929 0.25111 0.8287 0.0
C590 C 0.76557 0.31491 0.82659 0.0
C591 C 0.74894 0.30708 0.90735 0.0
N592 N 0.73267 0.26236 0.01832 0.0
N593 N 0.79736 0.29052 0.70031 0.0
C594 C 0.75303 0.271 0.94738 0.0
C595 C 0.78546 0.28567 0.78375 0.0
N596 N 0.78614 0.21149 0.95617 0.0
N597 N 0.76374 0.35093 0.79331 0.0
H598 H 0.81295 0.27027 0.66812 0.0
H599 H 0.78969 0.31325 0.66064 0.0
H600 H 0.7496 0.37288 0.82386 0.0
H601 H 0.77828 0.35988 0.73947 0.0
H602 H 0.77906 0.20663 0.02086 0.0
H603 H 0.80249 0.19016 0.9303 0.0
H604 H 0.73165 0.2354 0.04621 0.0
H605 H 0.71417 0.28149 0.04469 0.0
C606 C 0.26295 0.76151 0.23453 0.0
C607 C 0.24331 0.79182 0.27453 0.0
C608 C 0.27082 0.77426 0.41577 0.0
C609 C 0.28578 0.74098 0.37807 0.0
N610 N 0.28994 0.69907 0.25399 0.0
N611 N 0.22228 0.81972 0.40971 0.0
C612 C 0.28015 0.73352 0.28801 0.0
C613 C 0.24565 0.79637 0.36701 0.0
N614 N 0.26668 0.76012 0.14578 0.0
N615 N 0.28121 0.78529 0.49767 0.0
H616 H 0.20105 0.83316 0.37804 0.0
H617 H 0.22106 0.82155 0.47765 0.0
H618 H 0.3007 0.77061 0.53362 0.0
H619 H 0.27347 0.81118 0.52538 0.0
H620 H 0.28344 0.74062 0.11459 0.0
H621 H 0.25645 0.78088 0.10388 0.0
H622 H 0.28325 0.6906 0.19064 0.0
H623 H 0.3015 0.67754 0.29189 0.0
loop_
_geom_bond_atom_site_label_1
_geom_bond_atom_site_label_2
_geom_bond_distance
_geom_bond_site_symmetry_2
_ccdc_geom_bond_type
Co0 N4 2.148 . S
Co0 N10 2.128 . S
Co0 N20 2.194 . S
Co0 O25 2.351 . S
Co0 O26 2.155 . S
Co0 O27 2.096 . S
C1 N4 1.301 . S
C1 N5 1.328 . S
C1 H6 0.930 . S
C2 C3 1.333 . S
C2 N4 1.317 . S
C2 H7 0.930 . S
C3 C2 1.333 . S
C3 N5 1.350 . S
C3 H29 0.931 . S
N4 Co0 2.148 . S
N4 C1 1.301 . S
N4 C2 1.317 . S
N5 C1 1.328 . S
N5 C3 1.350 . S
H6 C1 0.930 . S
H7 C2 0.930 . S
C8 O9 1.224 . S
C8 O27 1.247 . S
O9 C8 1.224 . S
N10 Co0 2.128 . S
N10 C11 1.355 . S
N10 C13 1.311 . S
C11 N10 1.355 . S
C11 C12 1.363 . S
C11 H23 0.929 . S
C12 C11 1.363 . S
C12 N14 1.375 . S
C12 H30 0.931 . S
C13 N10 1.311 . S
C13 N14 1.347 . S
C13 H24 0.929 . S
N14 C12 1.375 . S
N14 C13 1.347 . S
C15 C18 1.365 . S
C15 N20 1.328 . S
C15 H21 0.929 . S
C16 C17 1.362 . S
C16 C19 1.378 . S
C16 H31 0.929 . S
C17 C16 1.362 . S
C17 C18 1.366 . S
C18 C15 1.365 . S
C18 C17 1.366 . S
C18 H32 0.930 . S
C19 C16 1.378 . S
C19 N20 1.315 . S
C19 H22 0.930 . S
N20 Co0 2.194 . S
N20 C15 1.328 . S
N20 C19 1.315 . S
H21 C15 0.929 . S
H22 C19 0.930 . S
H23 C11 0.929 . S
H24 C13 0.929 . S
O25 Co0 2.351 . S
O25 C28 1.244 . S
O26 Co0 2.155 . S
O26 C28 1.240 . S
O27 Co0 2.096 . S
O27 C8 1.247 . S
C28 O25 1.244 . S
C28 O26 1.240 . S
H29 C3 0.931 . S
H30 C12 0.931 . S
H31 C16 0.929 . S
H32 C18 0.930 . S
Co33 N37 2.148 . S
Co33 N43 2.128 . S
Co33 N53 2.194 . S
Co33 O58 2.351 . S
Co33 O59 2.155 . S
Co33 O60 2.096 . S
C34 N37 1.301 . S
C34 N38 1.328 . S
C34 H39 0.930 . S
C35 C36 1.333 . S
C35 N37 1.317 . S
C35 H40 0.930 . S
C36 C35 1.333 . S
C36 N38 1.350 . S
C36 H62 0.931 . S
N37 Co33 2.148 . S
N37 C34 1.301 . S
N37 C35 1.317 . S
N38 C34 1.328 . S
N38 C36 1.350 . S
H39 C34 0.930 . S
H40 C35 0.930 . S
C41 O42 1.224 . S
C41 O60 1.247 . S
O42 C41 1.224 . S
N43 Co33 2.128 . S
N43 C44 1.355 . S
N43 C46 1.311 . S
C44 N43 1.355 . S
C44 C45 1.363 1_556 S
C44 H56 0.929 . S
C45 C44 1.363 1_554 S
C45 N47 1.375 1_554 S
C45 H63 0.931 . S
C46 N43 1.311 . S
C46 N47 1.347 . S
C46 H57 0.929 . S
N47 C45 1.375 1_556 S
N47 C46 1.347 . S
C48 C51 1.365 . S
C48 N53 1.328 . S
C48 H54 0.929 . S
C49 C50 1.362 . S
C49 C52 1.378 . S
C49 H64 0.929 . S
C50 C49 1.362 . S
C50 C51 1.366 . S
C51 C48 1.365 . S
C51 C50 1.366 . S
C51 H65 0.930 . S
C52 C49 1.378 . S
C52 N53 1.315 . S
C52 H55 0.930 . S
N53 Co33 2.194 . S
N53 C48 1.328 . S
N53 C52 1.315 . S
H54 C48 0.929 . S
H55 C52 0.930 . S
H56 C44 0.929 . S
H57 C46 0.929 . S
O58 Co33 2.351 . S
O58 C61 1.244 . S
O59 Co33 2.155 . S
O59 C61 1.240 . S
O60 Co33 2.096 . S
O60 C41 1.247 . S
C61 O58 1.244 . S
C61 O59 1.240 . S
H62 C36 0.931 . S
H63 C45 0.931 . S
H64 C49 0.929 . S
H65 C51 0.930 . S
Co66 N70 2.148 . S
Co66 N76 2.128 . S
Co66 N86 2.194 . S
Co66 O91 2.351 . S
Co66 O92 2.155 . S
Co66 O93 2.096 . S
C67 N70 1.301 . S
C67 N71 1.328 . S
C67 H72 0.930 . S
C68 C69 1.333 . S
C68 N70 1.317 . S
C68 H73 0.930 . S
C69 C68 1.333 . S
C69 N71 1.350 . S
C69 H95 0.931 . S
N70 Co66 2.148 . S
N70 C67 1.301 . S
N70 C68 1.317 . S
N71 C67 1.328 . S
N71 C69 1.350 . S
H72 C67 0.930 . S
H73 C68 0.930 . S
C74 O75 1.224 . S
C74 O93 1.247 . S
O75 C74 1.224 . S
N76 Co66 2.128 . S
N76 C77 1.355 . S
N76 C79 1.311 . S
C77 N76 1.355 . S
C77 C78 1.363 . S
C77 H89 0.929 . S
C78 C77 1.363 . S
C78 N80 1.375 . S
C78 H96 0.931 . S
C79 N76 1.311 . S
C79 N80 1.347 . S
C79 H90 0.929 . S
N80 C78 1.375 . S
N80 C79 1.347 . S
C81 C84 1.365 . S
C81 N86 1.328 . S
C81 H87 0.929 . S
C82 C83 1.362 . S
C82 C85 1.378 . S
C82 H97 0.929 . S
C83 C82 1.362 . S
C83 C84 1.366 . S
C84 C81 1.365 . S
C84 C83 1.366 . S
C84 H98 0.930 . S
C85 C82 1.378 . S
C85 N86 1.315 . S
C85 H88 0.930 . S
N86 Co66 2.194 . S
N86 C81 1.328 . S
N86 C85 1.315 . S
H87 C81 0.929 . S
H88 C85 0.930 . S
H89 C77 0.929 . S
H90 C79 0.929 . S
O91 Co66 2.351 . S
O91 C94 1.244 . S
O92 Co66 2.155 . S
O92 C94 1.240 . S
O93 Co66 2.096 . S
O93 C74 1.247 . S
C94 O91 1.244 . S
C94 O92 1.240 . S
H95 C69 0.931 . S
H96 C78 0.931 . S
H97 C82 0.929 . S
H98 C84 0.930 . S
Co99 N103 2.148 . S
Co99 N109 2.128 . S
Co99 N119 2.194 . S
Co99 O124 2.351 . S
Co99 O125 2.155 . S
Co99 O126 2.096 . S
C100 N103 1.301 . S
C100 N104 1.328 . S
C100 H105 0.930 . S
C101 C102 1.333 . S
C101 N103 1.317 . S
C101 H106 0.930 . S
C102 C101 1.333 . S
C102 N104 1.350 . S
C102 H128 0.931 . S
N103 Co99 2.148 . S
N103 C100 1.301 . S
N103 C101 1.317 . S
N104 C100 1.328 . S
N104 C102 1.350 . S
H105 C100 0.930 . S
H106 C101 0.930 . S
C107 O108 1.224 . S
C107 O126 1.247 . S
O108 C107 1.224 . S
N109 Co99 2.128 . S
N109 C110 1.355 . S
N109 C112 1.311 . S
C110 N109 1.355 . S
C110 C111 1.363 1_554 S
C110 H122 0.929 . S
C111 C110 1.363 1_556 S
C111 N113 1.375 1_556 S
C111 H129 0.931 . S
C112 N109 1.311 . S
C112 N113 1.347 . S
C112 H123 0.929 . S
N113 C111 1.375 1_554 S
N113 C112 1.347 . S
C114 C117 1.365 . S
C114 N119 1.328 . S
C114 H120 0.929 . S
C115 C116 1.362 . S
C115 C118 1.378 . S
C115 H130 0.929 . S
C116 C115 1.362 . S
C116 C117 1.366 . S
C117 C114 1.365 . S
C117 C116 1.366 . S
C117 H131 0.930 . S
C118 C115 1.378 . S
C118 N119 1.315 . S
C118 H121 0.930 . S
N119 Co99 2.194 . S
N119 C114 1.328 . S
N119 C118 1.315 . S
H120 C114 0.929 . S
H121 C118 0.930 . S
H122 C110 0.929 . S
H123 C112 0.929 . S
O124 Co99 2.351 . S
O124 C127 1.244 . S
O125 Co99 2.155 . S
O125 C127 1.240 . S
O126 Co99 2.096 . S
O126 C107 1.247 . S
C127 O124 1.244 . S
C127 O125 1.240 . S
H128 C102 0.931 . S
H129 C111 0.931 . S
H130 C115 0.929 . S
H131 C117 0.930 . S
Co132 N136 2.148 . S
Co132 N142 2.128 . S
Co132 N152 2.194 . S
Co132 O157 2.351 . S
Co132 O158 2.155 . S
Co132 O159 2.096 . S
C133 N136 1.301 . S
C133 N137 1.328 . S
C133 H138 0.930 . S
C134 C135 1.333 . S
C134 N136 1.317 . S
C134 H139 0.930 . S
C135 C134 1.333 . S
C135 N137 1.350 . S
C135 H161 0.931 . S
N136 Co132 2.148 . S
N136 C133 1.301 . S
N136 C134 1.317 . S
N137 C133 1.328 . S
N137 C135 1.350 . S
H138 C133 0.930 . S
H139 C134 0.930 . S
C140 O141 1.224 . S
C140 O159 1.247 . S
O141 C140 1.224 . S
N142 Co132 2.128 . S
N142 C143 1.355 . S
N142 C145 1.311 . S
C143 N142 1.355 . S
C143 C144 1.363 . S
C143 H155 0.929 . S
C144 C143 1.363 . S
C144 N146 1.375 . S
C144 H162 0.931 . S
C145 N142 1.311 . S
C145 N146 1.347 . S
C145 H156 0.929 . S
N146 C144 1.375 . S
N146 C145 1.347 . S
C147 C150 1.365 . S
C147 N152 1.328 . S
C147 H153 0.929 . S
C148 C149 1.362 . S
C148 C151 1.378 . S
C148 H163 0.929 . S
C149 C148 1.362 . S
C149 C150 1.366 . S
C150 C147 1.365 . S
C150 C149 1.366 . S
C150 H164 0.930 . S
C151 C148 1.378 . S
C151 N152 1.315 . S
C151 H154 0.930 . S
N152 Co132 2.194 . S
N152 C147 1.328 . S
N152 C151 1.315 . S
H153 C147 0.929 . S
H154 C151 0.930 . S
H155 C143 0.929 . S
H156 C145 0.929 . S
O157 Co132 2.351 . S
O157 C160 1.244 . S
O158 Co132 2.155 . S
O158 C160 1.240 . S
O159 Co132 2.096 . S
O159 C140 1.247 . S
C160 O157 1.244 . S
C160 O158 1.240 . S
H161 C135 0.931 . S
H162 C144 0.931 . S
H163 C148 0.929 . S
H164 C150 0.930 . S
Co165 N169 2.148 . S
Co165 N175 2.128 . S
Co165 N185 2.194 . S
Co165 O190 2.351 . S
Co165 O191 2.155 . S
Co165 O192 2.096 . S
C166 N169 1.301 . S
C166 N170 1.328 . S
C166 H171 0.930 . S
C167 C168 1.333 . S
C167 N169 1.317 . S
C167 H172 0.930 . S
C168 C167 1.333 . S
C168 N170 1.350 . S
C168 H194 0.931 . S
N169 Co165 2.148 . S
N169 C166 1.301 . S
N169 C167 1.317 . S
N170 C166 1.328 . S
N170 C168 1.350 . S
H171 C166 0.930 . S
H172 C167 0.930 . S
C173 O174 1.224 . S
C173 O192 1.247 . S
O174 C173 1.224 . S
N175 Co165 2.128 . S
N175 C176 1.355 . S
N175 C178 1.311 . S
C176 N175 1.355 . S
C176 C177 1.363 1_556 S
C176 H188 0.929 . S
C177 C176 1.363 1_554 S
C177 N179 1.375 1_554 S
C177 H195 0.931 . S
C178 N175 1.311 . S
C178 N179 1.347 . S
C178 H189 0.929 . S
N179 C177 1.375 1_556 S
N179 C178 1.347 . S
C180 C183 1.365 . S
C180 N185 1.328 . S
C180 H186 0.929 . S
C181 C182 1.362 . S
C181 C184 1.378 . S
C181 H196 0.929 . S
C182 C181 1.362 . S
C182 C183 1.366 . S
C183 C180 1.365 . S
C183 C182 1.366 . S
C183 H197 0.930 . S
C184 C181 1.378 . S
C184 N185 1.315 . S
C184 H187 0.930 . S
N185 Co165 2.194 . S
N185 C180 1.328 . S
N185 C184 1.315 . S
H186 C180 0.929 . S
H187 C184 0.930 . S
H188 C176 0.929 . S
H189 C178 0.929 . S
O190 Co165 2.351 . S
O190 C193 1.244 . S
O191 Co165 2.155 . S
O191 C193 1.240 . S
O192 Co165 2.096 . S
O192 C173 1.247 . S
C193 O190 1.244 . S
C193 O191 1.240 . S
H194 C168 0.931 . S
H195 C177 0.931 . S
H196 C181 0.929 . S
H197 C183 0.930 . S
Co198 N202 2.148 . S
Co198 N208 2.128 . S
Co198 N218 2.194 . S
Co198 O223 2.351 . S
Co198 O224 2.155 . S
Co198 O225 2.096 . S
C199 N202 1.301 . S
C199 N203 1.328 . S
C199 H204 0.930 . S
C200 C201 1.333 . S
C200 N202 1.317 . S
C200 H205 0.930 . S
C201 C200 1.333 . S
C201 N203 1.350 . S
C201 H227 0.931 . S
N202 Co198 2.148 . S
N202 C199 1.301 . S
N202 C200 1.317 . S
N203 C199 1.328 . S
N203 C201 1.350 . S
H204 C199 0.930 . S
H205 C200 0.930 . S
C206 O207 1.224 . S
C206 O225 1.247 . S
O207 C206 1.224 . S
N208 Co198 2.128 . S
N208 C209 1.355 . S
N208 C211 1.311 . S
C209 N208 1.355 . S
C209 C210 1.363 . S
C209 H221 0.929 . S
C210 C209 1.363 . S
C210 N212 1.375 . S
C210 H228 0.931 . S
C211 N208 1.311 . S
C211 N212 1.347 . S
C211 H222 0.929 . S
N212 C210 1.375 . S
N212 C211 1.347 . S
C213 C216 1.365 . S
C213 N218 1.328 . S
C213 H219 0.929 . S
C214 C215 1.362 . S
C214 C217 1.378 . S
C214 H229 0.929 . S
C215 C214 1.362 . S
C215 C216 1.366 . S
C216 C213 1.365 . S
C216 C215 1.366 . S
C216 H230 0.930 . S
C217 C214 1.378 . S
C217 N218 1.315 . S
C217 H220 0.930 . S
N218 Co198 2.194 . S
N218 C213 1.328 . S
N218 C217 1.315 . S
H219 C213 0.929 . S
H220 C217 0.930 . S
H221 C209 0.929 . S
H222 C211 0.929 . S
O223 Co198 2.351 . S
O223 C226 1.244 . S
O224 Co198 2.155 . S
O224 C226 1.240 . S
O225 Co198 2.096 . S
O225 C206 1.247 . S
C226 O223 1.244 . S
C226 O224 1.240 . S
H227 C201 0.931 . S
H228 C210 0.931 . S
H229 C214 0.929 . S
H230 C216 0.930 . S
Co231 N235 2.148 . S
Co231 N241 2.128 . S
Co231 N251 2.194 . S
Co231 O256 2.351 . S
Co231 O257 2.155 . S
Co231 O258 2.096 . S
C232 N235 1.301 . S
C232 N236 1.328 . S
C232 H237 0.930 . S
C233 C234 1.333 . S
C233 N235 1.317 . S
C233 H238 0.930 . S
C234 C233 1.333 . S
C234 N236 1.350 . S
C234 H260 0.931 . S
N235 Co231 2.148 . S
N235 C232 1.301 . S
N235 C233 1.317 . S
N236 C232 1.328 . S
N236 C234 1.350 . S
H237 C232 0.930 . S
H238 C233 0.930 . S
C239 O240 1.224 . S
C239 O258 1.247 . S
O240 C239 1.224 . S
N241 Co231 2.128 . S
N241 C242 1.355 . S
N241 C244 1.311 . S
C242 N241 1.355 . S
C242 C243 1.363 1_554 S
C242 H254 0.929 . S
C243 C242 1.363 1_556 S
C243 N245 1.375 1_556 S
C243 H261 0.931 . S
C244 N241 1.311 . S
C244 N245 1.347 . S
C244 H255 0.929 . S
N245 C243 1.375 1_554 S
N245 C244 1.347 . S
C246 C249 1.365 . S
C246 N251 1.328 . S
C246 H252 0.929 . S
C247 C248 1.362 . S
C247 C250 1.378 . S
C247 H262 0.929 . S
C248 C247 1.362 . S
C248 C249 1.366 . S
C249 C246 1.365 . S
C249 C248 1.366 . S
C249 H263 0.930 . S
C250 C247 1.378 . S
C250 N251 1.315 . S
C250 H253 0.930 . S
N251 Co231 2.194 . S
N251 C246 1.328 . S
N251 C250 1.315 . S
H252 C246 0.929 . S
H253 C250 0.930 . S
H254 C242 0.929 . S
H255 C244 0.929 . S
O256 Co231 2.351 . S
O256 C259 1.244 . S
O257 Co231 2.155 . S
O257 C259 1.240 . S
O258 Co231 2.096 . S
O258 C239 1.247 . S
C259 O256 1.244 . S
C259 O257 1.240 . S
H260 C234 0.931 . S
H261 C243 0.931 . S
H262 C247 0.929 . S
H263 C249 0.930 . S
C264 C265 1.363 . S
C264 C270 1.379 . S
C264 N272 1.356 . S
C265 C264 1.363 . S
C265 C271 1.363 . S
C266 C267 1.363 . S
C266 C271 1.379 . S
C266 N273 1.356 . S
C267 C266 1.363 . S
C267 C270 1.363 . S
N268 C270 1.356 . S
N268 H280 0.984 . S
N268 H281 0.985 . S
N269 C271 1.356 . S
N269 H274 0.984 . S
N269 H275 0.985 . S
C270 C264 1.379 . S
C270 C267 1.363 . S
C270 N268 1.356 . S
C271 C265 1.363 . S
C271 C266 1.379 . S
C271 N269 1.356 . S
N272 C264 1.356 . S
N272 H278 0.984 . S
N272 H279 0.984 . S
N273 C266 1.356 . S
N273 H276 0.984 . S
N273 H277 0.985 . S
H274 N269 0.984 . S
H275 N269 0.985 . S
H276 N273 0.984 . S
H277 N273 0.985 . S
H278 N272 0.984 . S
H279 N272 0.984 . S
H280 N268 0.984 . S
H281 N268 0.985 . S
C282 C283 1.363 . S
C282 C288 1.379 . S
C282 N290 1.356 . S
C283 C282 1.363 . S
C283 C289 1.363 . S
C284 C285 1.363 . S
C284 C289 1.379 . S
C284 N291 1.356 . S
C285 C284 1.363 . S
C285 C288 1.363 . S
N286 C288 1.356 . S
N286 H298 0.984 . S
N286 H299 0.985 . S
N287 C289 1.356 . S
N287 H292 0.984 . S
N287 H293 0.985 . S
C288 C282 1.379 . S
C288 C285 1.363 . S
C288 N286 1.356 . S
C289 C283 1.363 . S
C289 C284 1.379 . S
C289 N287 1.356 . S
N290 C282 1.356 . S
N290 H296 0.984 . S
N290 H297 0.984 . S
N291 C284 1.356 . S
N291 H294 0.984 . S
N291 H295 0.985 . S
H292 N287 0.984 . S
H293 N287 0.985 . S
H294 N291 0.984 . S
H295 N291 0.985 . S
H296 N290 0.984 . S
H297 N290 0.984 . S
H298 N286 0.984 . S
H299 N286 0.985 . S
C300 C301 1.363 . S
C300 C306 1.379 1_455 S
C300 N308 1.356 . S
C301 C300 1.363 . S
C301 C307 1.363 . S
C302 C303 1.363 . S
C302 C307 1.379 1_655 S
C302 N309 1.356 . S
C303 C302 1.363 . S
C303 C306 1.363 . S
N304 C306 1.356 . S
N304 H316 0.984 . S
N304 H317 0.985 . S
N305 C307 1.356 . S
N305 H310 0.984 . S
N305 H311 0.985 . S
C306 C300 1.379 1_655 S
C306 C303 1.363 . S
C306 N304 1.356 . S
C307 C301 1.363 . S
C307 C302 1.379 1_455 S
C307 N305 1.356 . S
N308 C300 1.356 . S
N308 H314 0.984 . S
N308 H315 0.984 . S
N309 C302 1.356 . S
N309 H312 0.984 . S
N309 H313 0.985 . S
H310 N305 0.984 . S
H311 N305 0.985 . S
H312 N309 0.984 . S
H313 N309 0.985 . S
H314 N308 0.984 . S
H315 N308 0.984 . S
H316 N304 0.984 . S
H317 N304 0.985 . S
C318 C319 1.363 . S
C318 C324 1.379 1_455 S
C318 N326 1.356 . S
C319 C318 1.363 . S
C319 C325 1.363 . S
C320 C321 1.363 . S
C320 C325 1.379 1_655 S
C320 N327 1.356 . S
C321 C320 1.363 . S
C321 C324 1.363 . S
N322 C324 1.356 . S
N322 H334 0.984 . S
N322 H335 0.985 . S
N323 C325 1.356 . S
N323 H328 0.984 . S
N323 H329 0.985 . S
C324 C318 1.379 1_655 S
C324 C321 1.363 . S
C324 N322 1.356 . S
C325 C319 1.363 . S
C325 C320 1.379 1_455 S
C325 N323 1.356 . S
N326 C318 1.356 . S
N326 H332 0.984 . S
N326 H333 0.984 . S
N327 C320 1.356 . S
N327 H330 0.984 . S
N327 H331 0.985 . S
H328 N323 0.984 . S
H329 N323 0.985 . S
H330 N327 0.984 . S
H331 N327 0.985 . S
H332 N326 0.984 . S
H333 N326 0.984 . S
H334 N322 0.984 . S
H335 N322 0.985 . S
C336 C337 1.363 1_554 S
C336 C342 1.379 . S
C336 N344 1.356 1_554 S
C337 C336 1.363 1_556 S
C337 C343 1.363 . S
C338 C339 1.363 1_556 S
C338 C343 1.379 . S
C338 N345 1.356 1_556 S
C339 C338 1.363 1_554 S
C339 C342 1.363 . S
N340 C342 1.356 . S
N340 H352 0.984 . S
N340 H353 0.985 . S
N341 C343 1.356 . S
N341 H346 0.984 . S
N341 H347 0.985 . S
C342 C336 1.379 . S
C342 C339 1.363 . S
C342 N340 1.356 . S
C343 C337 1.363 . S
C343 C338 1.379 . S
C343 N341 1.356 . S
N344 C336 1.356 1_556 S
N344 H350 0.984 1_556 S
N344 H351 0.984 . S
N345 C338 1.356 1_554 S
N345 H348 0.984 . S
N345 H349 0.985 1_554 S
H346 N341 0.984 . S
H347 N341 0.985 . S
H348 N345 0.984 . S
H349 N345 0.985 1_556 S
H350 N344 0.984 1_554 S
H351 N344 0.984 . S
H352 N340 0.984 . S
H353 N340 0.985 . S
C354 C355 1.363 . S
C354 C360 1.379 . S
C354 N362 1.356 . S
C355 C354 1.363 . S
C355 C361 1.363 . S
C356 C357 1.363 . S
C356 C361 1.379 . S
C356 N363 1.356 . S
C357 C356 1.363 . S
C357 C360 1.363 . S
N358 C360 1.356 . S
N358 H370 0.984 . S
N358 H371 0.985 . S
N359 C361 1.356 . S
N359 H364 0.984 . S
N359 H365 0.985 . S
C360 C354 1.379 . S
C360 C357 1.363 . S
C360 N358 1.356 . S
C361 C355 1.363 . S
C361 C356 1.379 . S
C361 N359 1.356 . S
N362 C354 1.356 . S
N362 H368 0.984 . S
N362 H369 0.984 . S
N363 C356 1.356 . S
N363 H366 0.984 . S
N363 H367 0.985 . S
H364 N359 0.984 . S
H365 N359 0.985 . S
H366 N363 0.984 . S
H367 N363 0.985 . S
H368 N362 0.984 . S
H369 N362 0.984 . S
H370 N358 0.984 . S
H371 N358 0.985 . S
C372 C373 1.363 . S
C372 C378 1.379 . S
C372 N380 1.356 . S
C373 C372 1.363 . S
C373 C379 1.363 1_556 S
C374 C375 1.363 . S
C374 C379 1.379 . S
C374 N381 1.356 . S
C375 C374 1.363 . S
C375 C378 1.363 1_554 S
N376 C378 1.356 . S
N376 H388 0.984 . S
N376 H389 0.985 1_556 S
N377 C379 1.356 . S
N377 H382 0.984 1_554 S
N377 H383 0.985 . S
C378 C372 1.379 . S
C378 C375 1.363 1_556 S
C378 N376 1.356 . S
C379 C373 1.363 1_554 S
C379 C374 1.379 . S
C379 N377 1.356 . S
N380 C372 1.356 . S
N380 H386 0.984 . S
N380 H387 0.984 . S
N381 C374 1.356 . S
N381 H384 0.984 . S
N381 H385 0.985 . S
H382 N377 0.984 1_556 S
H383 N377 0.985 . S
H384 N381 0.984 . S
H385 N381 0.985 . S
H386 N380 0.984 . S
H387 N380 0.984 . S
H388 N376 0.984 . S
H389 N376 0.985 1_554 S
C390 C391 1.363 . S
C390 C396 1.379 . S
C390 N398 1.356 . S
C391 C390 1.363 . S
C391 C397 1.363 . S
C392 C393 1.363 . S
C392 C397 1.379 . S
C392 N399 1.356 . S
C393 C392 1.363 . S
C393 C396 1.363 . S
N394 C396 1.356 . S
N394 H406 0.984 . S
N394 H407 0.985 . S
N395 C397 1.356 . S
N395 H400 0.984 . S
N395 H401 0.985 . S
C396 C390 1.379 . S
C396 C393 1.363 . S
C396 N394 1.356 . S
C397 C391 1.363 . S
C397 C392 1.379 . S
C397 N395 1.356 . S
N398 C390 1.356 . S
N398 H404 0.984 . S
N398 H405 0.984 . S
N399 C392 1.356 . S
N399 H402 0.984 . S
N399 H403 0.985 . S
H400 N395 0.984 . S
H401 N395 0.985 . S
H402 N399 0.984 . S
H403 N399 0.985 . S
H404 N398 0.984 . S
H405 N398 0.984 . S
H406 N394 0.984 . S
H407 N394 0.985 . S
C408 C409 1.363 . S
C408 C414 1.391 1_556 S
C408 N416 1.356 . S
C409 C408 1.363 . S
C409 C415 1.350 1_545 S
C410 C411 1.363 . S
C410 C415 1.391 1_554 S
C410 N417 1.356 . S
C411 C410 1.363 . S
C411 C414 1.350 1_565 S
N412 C414 1.353 1_565 S
N412 H424 0.984 1_565 S
N412 H425 0.985 . S
N413 C415 1.353 1_545 S
N413 H418 0.984 . S
N413 H419 0.985 1_545 S
C414 C408 1.391 1_554 S
C414 C411 1.350 1_545 S
C414 N412 1.353 1_545 S
C415 C409 1.350 1_565 S
C415 C410 1.391 1_556 S
C415 N413 1.353 1_565 S
N416 C408 1.356 . S
N416 H422 0.984 . S
N416 H423 0.984 . S
N417 C410 1.356 . S
N417 H420 0.984 . S
N417 H421 0.985 . S
H418 N413 0.984 . S
H419 N413 0.985 1_565 S
H420 N417 0.984 . S
H421 N417 0.985 . S
H422 N416 0.984 . S
H423 N416 0.984 . S
H424 N412 0.984 1_545 S
H425 N412 0.985 . S
C426 C427 1.363 1_565 S
C426 C432 1.379 . S
C426 N434 1.356 . S
C427 C426 1.363 1_545 S
C427 C433 1.363 . S
C428 C429 1.363 1_545 S
C428 C433 1.379 . S
C428 N435 1.356 . S
C429 C428 1.363 1_565 S
C429 C432 1.363 . S
N430 C432 1.356 . S
N430 H442 0.984 . S
N430 H443 0.985 . S
N431 C433 1.356 . S
N431 H436 0.984 . S
N431 H437 0.985 . S
C432 C426 1.379 . S
C432 C429 1.363 . S
C432 N430 1.356 . S
C433 C427 1.363 . S
C433 C428 1.379 . S
C433 N431 1.356 . S
N434 C426 1.356 . S
N434 H440 0.984 . S
N434 H441 0.984 1_565 S
N435 C428 1.356 . S
N435 H438 0.984 1_545 S
N435 H439 0.985 . S
H436 N431 0.984 . S
H437 N431 0.985 . S
H438 N435 0.984 1_565 S
H439 N435 0.985 . S
H440 N434 0.984 . S
H441 N434 0.984 1_545 S
H442 N430 0.984 . S
H443 N430 0.985 . S
C444 C445 1.363 . S
C444 C450 1.379 1_545 S
C444 N452 1.356 . S
C445 C444 1.363 . S
C445 C451 1.363 1_556 S
C446 C447 1.363 . S
C446 C451 1.379 1_565 S
C446 N453 1.356 . S
C447 C446 1.363 . S
C447 C450 1.363 1_554 S
N448 C450 1.356 . S
N448 H460 0.984 . S
N448 H461 0.985 . S
N449 C451 1.356 . S
N449 H454 0.984 . S
N449 H455 0.985 . S
C450 C444 1.379 1_565 S
C450 C447 1.363 1_556 S
C450 N448 1.356 . S
C451 C445 1.363 1_554 S
C451 C446 1.379 1_545 S
C451 N449 1.356 . S
N452 C444 1.356 . S
N452 H458 0.984 . S
N452 H459 0.984 . S
N453 C446 1.356 . S
N453 H456 0.984 . S
N453 H457 0.985 . S
H454 N449 0.984 . S
H455 N449 0.985 . S
H456 N453 0.984 . S
H457 N453 0.985 . S
H458 N452 0.984 . S
H459 N452 0.984 . S
H460 N448 0.984 . S
H461 N448 0.985 . S
C462 C463 1.363 . S
C462 C468 1.379 1_545 S
C462 N470 1.356 . S
C463 C462 1.363 . S
C463 C469 1.363 . S
C464 C465 1.363 . S
C464 C469 1.379 1_565 S
C464 N471 1.356 . S
C465 C464 1.363 . S
C465 C468 1.363 . S
N466 C468 1.356 . S
N466 H478 0.984 . S
N466 H479 0.985 . S
N467 C469 1.356 . S
N467 H472 0.984 . S
N467 H473 0.985 . S
C468 C462 1.379 1_565 S
C468 C465 1.363 . S
C468 N466 1.356 . S
C469 C463 1.363 . S
C469 C464 1.379 1_545 S
C469 N467 1.356 . S
N470 C462 1.356 . S
N470 H476 0.984 . S
N470 H477 0.984 . S
N471 C464 1.356 . S
N471 H474 0.984 . S
N471 H475 0.985 . S
H472 N467 0.984 . S
H473 N467 0.985 . S
H474 N471 0.984 . S
H475 N471 0.985 . S
H476 N470 0.984 . S
H477 N470 0.984 . S
H478 N466 0.984 . S
H479 N466 0.985 . S
C480 C481 1.363 . S
C480 C486 1.379 . S
C480 N488 1.356 . S
C481 C480 1.363 . S
C481 C487 1.363 . S
C482 C483 1.363 . S
C482 C487 1.379 . S
C482 N489 1.356 . S
C483 C482 1.363 . S
C483 C486 1.363 . S
N484 C486 1.356 1_556 S
N484 H496 0.984 . S
N484 H497 0.985 . S
N485 C487 1.356 . S
N485 H490 0.984 . S
N485 H491 0.985 . S
C486 C480 1.379 . S
C486 C483 1.363 . S
C486 N484 1.356 1_554 S
C487 C481 1.363 . S
C487 C482 1.379 . S
C487 N485 1.356 . S
N488 C480 1.356 . S
N488 H494 0.984 . S
N488 H495 0.984 . S
N489 C482 1.356 . S
N489 H492 0.984 . S
N489 H493 0.985 . S
H490 N485 0.984 . S
H491 N485 0.985 . S
H492 N489 0.984 . S
H493 N489 0.985 . S
H494 N488 0.984 . S
H495 N488 0.984 . S
H496 N484 0.984 . S
H497 N484 0.985 . S
C498 C499 1.363 . S
C498 C504 1.379 . S
C498 N506 1.356 . S
C499 C498 1.363 . S
C499 C505 1.363 . S
C500 C501 1.363 . S
C500 C505 1.379 . S
C500 N507 1.356 . S
C501 C500 1.363 . S
C501 C504 1.363 . S
N502 C504 1.356 . S
N502 H514 0.984 . S
N502 H515 0.985 . S
N503 C505 1.356 . S
N503 H508 0.984 . S
N503 H509 0.985 . S
C504 C498 1.379 . S
C504 C501 1.363 . S
C504 N502 1.356 . S
C505 C499 1.363 . S
C505 C500 1.379 . S
C505 N503 1.356 . S
N506 C498 1.356 . S
N506 H512 0.984 . S
N506 H513 0.984 . S
N507 C500 1.356 . S
N507 H510 0.984 . S
N507 H511 0.985 . S
H508 N503 0.984 . S
H509 N503 0.985 . S
H510 N507 0.984 . S
H511 N507 0.985 . S
H512 N506 0.984 . S
H513 N506 0.984 . S
H514 N502 0.984 . S
H515 N502 0.985 . S
C516 C517 1.363 . S
C516 C522 1.379 . S
C516 N524 1.356 . S
C517 C516 1.363 . S
C517 C523 1.363 . S
C518 C519 1.363 . S
C518 C523 1.379 . S
C518 N525 1.356 . S
C519 C518 1.363 . S
C519 C522 1.363 . S
N520 C522 1.356 . S
N520 H532 0.984 . S
N520 H533 0.985 . S
N521 C523 1.356 . S
N521 H526 0.985 . S
N521 H527 0.985 . S
C522 C516 1.379 . S
C522 C519 1.363 . S
C522 N520 1.356 . S
C523 C517 1.363 . S
C523 C518 1.379 . S
C523 N521 1.356 . S
N524 C516 1.356 . S
N524 H530 0.984 . S
N524 H531 0.984 1_556 S
N525 C518 1.356 . S
N525 H528 0.984 . S
N525 H529 0.985 . S
H526 N521 0.985 . S
H527 N521 0.985 . S
H528 N525 0.984 . S
H529 N525 0.985 . S
H530 N524 0.984 . S
H531 N524 0.984 1_554 S
H532 N520 0.984 . S
H533 N520 0.985 . S
C534 C535 1.363 . S
C534 C540 1.379 . S
C534 N542 1.356 . S
C535 C534 1.363 . S
C535 C541 1.363 . S
C536 C537 1.363 . S
C536 C541 1.379 . S
C536 N543 1.356 . S
C537 C536 1.363 . S
C537 C540 1.363 . S
N538 C540 1.356 . S
N538 H550 0.984 . S
N538 H551 0.985 . S
N539 C541 1.356 . S
N539 H544 0.984 . S
N539 H545 0.985 . S
C540 C534 1.379 . S
C540 C537 1.363 . S
C540 N538 1.356 . S
C541 C535 1.363 . S
C541 C536 1.379 . S
C541 N539 1.356 . S
N542 C534 1.356 . S
N542 H548 0.984 . S
N542 H549 0.984 . S
N543 C536 1.356 . S
N543 H546 0.984 . S
N543 H547 0.985 . S
H544 N539 0.984 . S
H545 N539 0.985 . S
H546 N543 0.984 . S
H547 N543 0.985 . S
H548 N542 0.984 . S
H549 N542 0.984 . S
H550 N538 0.984 . S
H551 N538 0.985 . S
C552 C553 1.363 . S
C552 C558 1.379 . S
C552 N560 1.356 1_554 S
C553 C552 1.363 . S
C553 C559 1.363 . S
C554 C555 1.363 . S
C554 C559 1.379 . S
C554 N561 1.356 . S
C555 C554 1.363 . S
C555 C558 1.363 . S
N556 C558 1.356 . S
N556 H568 0.984 . S
N556 H569 0.985 . S
N557 C559 1.356 . S
N557 H562 0.984 . S
N557 H563 0.985 . S
C558 C552 1.379 . S
C558 C555 1.363 . S
C558 N556 1.356 . S
C559 C553 1.363 . S
C559 C554 1.379 . S
C559 N557 1.356 . S
N560 C552 1.356 1_556 S
N560 H566 0.984 . S
N560 H567 0.984 . S
N561 C554 1.356 . S
N561 H564 0.984 . S
N561 H565 0.985 . S
H562 N557 0.984 . S
H563 N557 0.985 . S
H564 N561 0.984 . S
H565 N561 0.985 . S
H566 N560 0.984 . S
H567 N560 0.984 . S
H568 N556 0.984 . S
H569 N556 0.985 . S
C570 C571 1.363 . S
C570 C576 1.379 . S
C570 N578 1.356 . S
C571 C570 1.363 . S
C571 C577 1.363 . S
C572 C573 1.363 . S
C572 C577 1.379 . S
C572 N579 1.356 . S
C573 C572 1.363 . S
C573 C576 1.363 . S
N574 C576 1.356 . S
N574 H586 0.984 . S
N574 H587 0.985 . S
N575 C577 1.356 . S
N575 H580 0.984 . S
N575 H581 0.985 . S
C576 C570 1.379 . S
C576 C573 1.363 . S
C576 N574 1.356 . S
C577 C571 1.363 . S
C577 C572 1.379 . S
C577 N575 1.356 . S
N578 C570 1.356 . S
N578 H584 0.984 . S
N578 H585 0.984 . S
N579 C572 1.356 . S
N579 H582 0.984 . S
N579 H583 0.985 . S
H580 N575 0.984 . S
H581 N575 0.985 . S
H582 N579 0.984 . S
H583 N579 0.985 . S
H584 N578 0.984 . S
H585 N578 0.984 . S
H586 N574 0.984 . S
H587 N574 0.985 . S
C588 C589 1.363 . S
C588 C594 1.379 . S
C588 N596 1.356 . S
C589 C588 1.363 . S
C589 C595 1.363 . S
C590 C591 1.363 . S
C590 C595 1.379 . S
C590 N597 1.356 . S
C591 C590 1.363 . S
C591 C594 1.363 . S
N592 C594 1.356 1_554 S
N592 H604 0.984 . S
N592 H605 0.985 . S
N593 C595 1.356 . S
N593 H598 0.984 . S
N593 H599 0.985 . S
C594 C588 1.379 . S
C594 C591 1.363 . S
C594 N592 1.356 1_556 S
C595 C589 1.363 . S
C595 C590 1.379 . S
C595 N593 1.356 . S
N596 C588 1.356 . S
N596 H602 0.984 . S
N596 H603 0.984 . S
N597 C590 1.356 . S
N597 H600 0.984 . S
N597 H601 0.985 . S
H598 N593 0.984 . S
H599 N593 0.985 . S
H600 N597 0.984 . S
H601 N597 0.985 . S
H602 N596 0.984 . S
H603 N596 0.984 . S
H604 N592 0.984 . S
H605 N592 0.985 . S
C606 C607 1.363 . S
C606 C612 1.379 . S
C606 N614 1.356 . S
C607 C606 1.363 . S
C607 C613 1.363 . S
C608 C609 1.363 . S
C608 C613 1.379 . S
C608 N615 1.356 . S
C609 C608 1.363 . S
C609 C612 1.363 . S
N610 C612 1.356 . S
N610 H622 0.984 . S
N610 H623 0.985 . S
N611 C613 1.356 . S
N611 H616 0.984 . S
N611 H617 0.985 . S
C612 C606 1.379 . S
C612 C609 1.363 . S
C612 N610 1.356 . S
C613 C607 1.363 . S
C613 C608 1.379 . S
C613 N611 1.356 . S
N614 C606 1.356 . S
N614 H620 0.984 . S
N614 H621 0.984 . S
N615 C608 1.356 . S
N615 H618 0.984 . S
N615 H619 0.985 . S
H616 N611 0.984 . S
H617 N611 0.985 . S
H618 N615 0.984 . S
H619 N615 0.985 . S
H620 N614 0.984 . S
H621 N614 0.984 . S
H622 N610 0.984 . S
H623 N610 0.985 . S
C265 C17 1.529 . S
C267 C116 1.529 . S
C283 C50 1.529 . S
C285 C83 1.529 . S
C301 C248 1.529 . S
C303 C149 1.529 . S
C319 C182 1.529 . S
C321 C215 1.529 . S
C337 N71 1.131 . S
C339 N5 1.131 . S
C355 N104 1.131 . S
C357 N38 1.131 . S
C373 C61 1.718 . S
C375 C127 1.718 . S
C391 C28 1.718 . S
C393 C94 1.718 . S
C409 N203 1.131 . S
C411 N137 1.131 . S
C427 N170 1.131 . S
C429 N236 1.131 . S
C445 C193 1.718 . S
C447 C259 1.718 . S
C463 C226 1.718 . S
C465 C160 1.718 . S
C481 C8 1.421 . S
C483 N179 1.424 1_554 S
C499 C41 1.421 . S
C501 N146 1.424 . S
C517 N245 1.424 1_556 S
C519 C74 1.421 . S
C535 C107 1.421 . S
C537 N212 1.424 . S
C553 N47 1.424 1_554 S
C555 C140 1.421 . S
C571 C173 1.421 . S
C573 N14 1.424 . S
C589 C206 1.421 . S
C591 N113 1.424 1_556 S
C607 C239 1.421 . S
C609 N80 1.424 . S
