# Generated by pormake.
# Topology wht, (6)-cn, num edge types: 1
# Building blocks:
#     Node 0, Type 0, BuildingBlock: OJICUG_clean_sbu_0, # of connection points: 6
#     Node 1, Type 0, BuildingBlock: OJICUG_clean_sbu_0, # of connection points: 6
#     Node 2, Type 0, BuildingBlock: OJICUG_clean_sbu_0, # of connection points: 6
#     Node 3, Type 0, BuildingBlock: OJICUG_clean_sbu_0, # of connection points: 6
#     Node 4, Type 0, BuildingBlock: OJICUG_clean_sbu_0, # of connection points: 6
#     Node 5, Type 0, BuildingBlock: OJICUG_clean_sbu_0, # of connection points: 6
#     Node 6, Type 0, BuildingBlock: OJICUG_clean_sbu_0, # of connection points: 6
#     Node 7, Type 0, BuildingBlock: OJICUG_clean_sbu_0, # of connection points: 6
#     Edge 8, Type (0, 0), BuildingBlock: TEMPAE_clean_linker_10, # of connection points: 2
#     Edge 9, Type (0, 0), BuildingBlock: TEMPAE_clean_linker_10, # of connection points: 2
#     Edge 10, Type (0, 0), BuildingBlock: TEMPAE_clean_linker_10, # of connection points: 2
#     Edge 11, Type (0, 0), BuildingBlock: TEMPAE_clean_linker_10, # of connection points: 2
#     Edge 12, Type (0, 0), BuildingBlock: TEMPAE_clean_linker_10, # of connection points: 2
#     Edge 13, Type (0, 0), BuildingBlock: TEMPAE_clean_linker_10, # of connection points: 2
#     Edge 14, Type (0, 0), BuildingBlock: TEMPAE_clean_linker_10, # of connection points: 2
#     Edge 15, Type (0, 0), BuildingBlock: TEMPAE_clean_linker_10, # of connection points: 2
#     Edge 16, Type (0, 0), BuildingBlock: TEMPAE_clean_linker_10, # of connection points: 2
#     Edge 17, Type (0, 0), BuildingBlock: TEMPAE_clean_linker_10, # of connection points: 2
#     Edge 18, Type (0, 0), BuildingBlock: TEMPAE_clean_linker_10, # of connection points: 2
#     Edge 19, Type (0, 0), BuildingBlock: TEMPAE_clean_linker_10, # of connection points: 2
#     Edge 20, Type (0, 0), BuildingBlock: TEMPAE_clean_linker_10, # of connection points: 2
#     Edge 21, Type (0, 0), BuildingBlock: TEMPAE_clean_linker_10, # of connection points: 2
#     Edge 22, Type (0, 0), BuildingBlock: TEMPAE_clean_linker_10, # of connection points: 2
#     Edge 23, Type (0, 0), BuildingBlock: TEMPAE_clean_linker_10, # of connection points: 2
#     Edge 24, Type (0, 0), BuildingBlock: TEMPAE_clean_linker_10, # of connection points: 2
#     Edge 25, Type (0, 0), BuildingBlock: TEMPAE_clean_linker_10, # of connection points: 2
#     Edge 26, Type (0, 0), BuildingBlock: TEMPAE_clean_linker_10, # of connection points: 2
#     Edge 27, Type (0, 0), BuildingBlock: TEMPAE_clean_linker_10, # of connection points: 2
#     Edge 28, Type (0, 0), BuildingBlock: TEMPAE_clean_linker_10, # of connection points: 2
#     Edge 29, Type (0, 0), BuildingBlock: TEMPAE_clean_linker_10, # of connection points: 2
#     Edge 30, Type (0, 0), BuildingBlock: TEMPAE_clean_linker_10, # of connection points: 2
#     Edge 31, Type (0, 0), BuildingBlock: TEMPAE_clean_linker_10, # of connection points: 2
# Relax obj value: 0.284
# Max RMSD: 0.260
# Mean RMSD: 0.260
data_MOF--net-wht--node1-OJICUG_clean_sbu_0--edge1-TEMPAE_clean_linker_10
_symmetry_space_group_name_H-M    P1
_symmetry_Int_Tables_number       1
_symmetry_cell_setting            triclinic
loop_
_symmetry_equiv_pos_as_xyz
'x, y, z'
_cell_length_a     26.883902
_cell_length_b     26.957095
_cell_length_c     50.440531
_cell_angle_alpha  90.089906
_cell_angle_beta   90.167285
_cell_angle_gamma 90.100863
loop_
_atom_site_label
_atom_site_type_symbol
_atom_site_fract_x
_atom_site_fract_y
_atom_site_fract_z
_atom_type_partial_charge
Sc0 Sc 0.06912 0.15695 0.13202 0.0
Sc1 Sc 0.1687 0.23405 0.14895 0.0
Sc2 Sc 0.04593 0.26925 0.1648 0.0
O3 O 0.0946 0.21995 0.14891 0.0
C4 C 0.98712 0.2351 0.11359 0.0
C5 C 0.1515 0.18798 0.09142 0.0
C6 C 0.12339 0.33842 0.13412 0.0
C7 C 0.17122 0.12001 0.15911 0.0
C8 C 0.00159 0.1636 0.18273 0.0
C9 C 0.13485 0.27487 0.20572 0.0
O10 O 0.00624 0.19211 0.11378 0.0
O11 O 0.17947 0.20677 0.10914 0.0
O12 O 0.08369 0.33313 0.14757 0.0
O13 O 0.13043 0.11352 0.1467 0.0
O14 O 0.00254 0.21091 0.18341 0.0
O15 O 0.1678 0.2645 0.18857 0.0
O16 O 0.02708 0.13826 0.16644 0.0
O17 O 0.18782 0.16282 0.16497 0.0
O18 O 0.08847 0.27471 0.20084 0.0
O19 O 0.10819 0.17165 0.09617 0.0
O20 O -0.00084 0.26871 0.13008 0.0
O21 O 0.15622 0.30504 0.13185 0.0
Sc22 Sc 0.16903 0.53885 0.41305 0.0
Sc23 Sc 0.19372 0.65351 0.38309 0.0
Sc24 Sc 0.27983 0.55786 0.37815 0.0
O25 O 0.21435 0.58357 0.39177 0.0
C26 C 0.27836 0.51311 0.4354 0.0
C27 C 0.1539 0.64 0.44265 0.0
C28 C 0.30628 0.67111 0.39346 0.0
C29 C 0.09344 0.59567 0.37477 0.0
C30 C 0.20825 0.46489 0.3696 0.0
C31 C 0.2438 0.61805 0.32893 0.0
O32 O 0.23114 0.50768 0.4355 0.0
O33 O 0.16158 0.66541 0.4218 0.0
O34 O 0.31733 0.62804 0.38485 0.0
O35 O 0.10183 0.56485 0.39337 0.0
O36 O 0.25108 0.48487 0.36875 0.0
O37 O 0.22286 0.65077 0.34324 0.0
O38 O 0.17286 0.48218 0.38336 0.0
O39 O 0.12494 0.62766 0.36721 0.0
O40 O 0.26224 0.57856 0.33839 0.0
O41 O 0.1599 0.59326 0.44364 0.0
O42 O 0.30135 0.53511 0.41686 0.0
O43 O 0.26176 0.68453 0.39762 0.0
Sc44 Sc 0.90274 0.84849 0.6295 0.0
Sc45 Sc 0.8199 0.76074 0.65391 0.0
Sc46 Sc 0.94598 0.73623 0.65468 0.0
O47 O 0.88981 0.78243 0.64629 0.0
C48 C 0.98172 0.78326 0.60012 0.0
C49 C 0.80872 0.80586 0.59761 0.0
C50 C 0.86851 0.66155 0.63315 0.0
C51 C 0.81315 0.87764 0.66473 0.0
C52 C 0.99076 0.83794 0.6725 0.0
C53 C 0.87193 0.72336 0.70414 0.0
O54 O 0.94756 0.81564 0.59898 0.0
O55 O 0.8008 0.76944 0.61302 0.0
O56 O 0.91212 0.67902 0.63094 0.0
O57 O 0.85783 0.88688 0.65817 0.0
O58 O 0.98286 0.79232 0.67749 0.0
O59 O 0.83775 0.75085 0.69481 0.0
O60 O 0.96754 0.86168 0.65441 0.0
O61 O 0.79406 0.83476 0.66208 0.0
O62 O 0.90963 0.71017 0.69051 0.0
O63 O 0.83952 0.84065 0.60288 0.0
O64 O 0.98899 0.75613 0.62033 0.0
O65 O 0.83457 0.68333 0.64618 0.0
Sc66 Sc 0.71155 0.4146 0.87192 0.0
Sc67 Sc 0.79892 0.32242 0.88673 0.0
Sc68 Sc 0.82178 0.44621 0.90624 0.0
O69 O 0.77735 0.39443 0.88841 0.0
C70 C 0.78185 0.50427 0.85546 0.0
C71 C 0.75237 0.33663 0.8295 0.0
C72 C 0.90063 0.38007 0.8761 0.0
C73 C 0.6824 0.31078 0.89691 0.0
C74 C 0.71429 0.48123 0.92442 0.0
C75 C 0.83211 0.35311 0.94501 0.0
O76 O 0.74526 0.47542 0.85114 0.0
O77 O 0.78459 0.31704 0.84468 0.0
O78 O 0.88768 0.4217 0.88562 0.0
O79 O 0.67138 0.35504 0.8905 0.0
O80 O 0.76079 0.47702 0.92859 0.0
O81 O 0.81586 0.32108 0.92857 0.0
O82 O 0.6925 0.46164 0.90463 0.0
O83 O 0.72643 0.294 0.89586 0.0
O84 O 0.83806 0.39864 0.93929 0.0
O85 O 0.72252 0.3702 0.83707 0.0
O86 O 0.81108 0.49937 0.8751 0.0
O87 O 0.8734 0.34169 0.87654 0.0
Sc88 Sc 0.55472 0.23359 0.57708 0.0
Sc89 Sc 0.68122 0.25717 0.5798 0.0
Sc90 Sc 0.59779 0.34551 0.60308 0.0
O91 O 0.61104 0.27939 0.5863 0.0
C92 C 0.51185 0.33564 0.55876 0.0
C93 C 0.63142 0.21895 0.52876 0.0
C94 C 0.68942 0.37411 0.56914 0.0
C95 C 0.6304 0.15863 0.59992 0.0
C96 C 0.51692 0.28052 0.6313 0.0
C97 C 0.68963 0.30276 0.63649 0.0
O98 O 0.51949 0.28996 0.55375 0.0
O99 O 0.66572 0.24608 0.53849 0.0
O100 O 0.64455 0.38359 0.57517 0.0
O101 O 0.58678 0.17627 0.6013 0.0
O102 O 0.55121 0.31282 0.63288 0.0
O103 O 0.69833 0.26636 0.62111 0.0
O104 O 0.51016 0.25366 0.61088 0.0
O105 O 0.66539 0.18007 0.58753 0.0
O106 O 0.65936 0.33756 0.63071 0.0
O107 O 0.59258 0.20705 0.54181 0.0
O108 O 0.53442 0.35909 0.57726 0.0
O109 O 0.70803 0.33109 0.57185 0.0
Sc110 Sc 0.21265 0.06576 0.85458 0.0
Sc111 Sc 0.29718 0.16283 0.84817 0.0
Sc112 Sc 0.32588 0.04534 0.82215 0.0
O113 O 0.27851 0.09142 0.8413 0.0
C114 C 0.28404 0.97428 0.86645 0.0
C115 C 0.24574 0.13136 0.90256 0.0
C116 C 0.39768 0.1073 0.86034 0.0
C117 C 0.18481 0.17656 0.83577 0.0
C118 C 0.21836 0.01668 0.79827 0.0
C119 C 0.34142 0.14412 0.78995 0.0
O120 O 0.24132 0.9943 0.86641 0.0
O121 O 0.26655 0.16332 0.88773 0.0
O122 O 0.39088 0.07345 0.84305 0.0
O123 O 0.17431 0.13417 0.8454 0.0
O124 O 0.26568 0.01237 0.79888 0.0
O125 O 0.33064 0.17168 0.80961 0.0
O126 O 0.19394 0.03886 0.81623 0.0
O127 O 0.22922 0.19076 0.83197 0.0
O128 O 0.33772 0.09711 0.79053 0.0
O129 O 0.22808 0.09079 0.89388 0.0
O130 O 0.32008 0.99062 0.85281 0.0
O131 O 0.3658 0.14049 0.86553 0.0
Sc132 Sc 0.44192 0.7714 0.06771 0.0
Sc133 Sc 0.32318 0.73066 0.08471 0.0
Sc134 Sc 0.42613 0.65899 0.10041 0.0
O135 O 0.39707 0.71998 0.08381 0.0
C136 C 0.49124 0.66789 0.0498 0.0
C137 C 0.35353 0.77447 0.02792 0.0
C138 C 0.3236 0.61861 0.07441 0.0
C139 C 0.36316 0.83564 0.09985 0.0
C140 C 0.50332 0.74214 0.11808 0.0
C141 C 0.34438 0.68319 0.14146 0.0
O142 O 0.49049 0.71525 0.05062 0.0
O143 O 0.32191 0.76675 0.04622 0.0
O144 O 0.36334 0.61379 0.08807 0.0
O145 O 0.3989 0.83343 0.08334 0.0
O146 O 0.49132 0.69662 0.11604 0.0
O147 O 0.31443 0.69702 0.12335 0.0
O148 O 0.48499 0.77564 0.10338 0.0
O149 O 0.33429 0.79951 0.10455 0.0
O150 O 0.39001 0.67447 0.13713 0.0
O151 O 0.40018 0.77083 0.03142 0.0
O152 O 0.46431 0.64102 0.06469 0.0
O153 O 0.30847 0.66056 0.06622 0.0
Sc154 Sc 0.67452 0.93761 0.32593 0.0
Sc155 Sc 0.69289 0.81525 0.34897 0.0
Sc156 Sc 0.78385 0.90618 0.36089 0.0
O157 O 0.7172 0.8863 0.34512 0.0
C158 C 0.78396 0.96941 0.3078 0.0
C159 C 0.66167 0.84226 0.28943 0.0
C160 C 0.80817 0.79829 0.33814 0.0
C161 C 0.59325 0.87554 0.3578 0.0
C162 C 0.71419 -0.00175 0.37586 0.0
C163 C 0.74228 0.83386 0.40542 0.0
O164 O 0.73692 0.9697 0.30522 0.0
O165 O 0.66951 0.81136 0.30802 0.0
O166 O 0.821 0.8418 0.34529 0.0
O167 O 0.6056 0.91307 0.34407 0.0
O168 O 0.75281 0.9716 0.37888 0.0
O169 O 0.71173 0.81123 0.39045 0.0
O170 O 0.68206 0.99051 0.35774 0.0
O171 O 0.6213 0.83854 0.36144 0.0
O172 O 0.77054 0.8684 0.39742 0.0
O173 O 0.66375 0.88905 0.29252 0.0
O174 O 0.80593 0.94672 0.32645 0.0
O175 O 0.76318 0.78375 0.33789 0.0
C176 C 0.9613 0.08513 0.19797 0.0
C177 C 0.9685 0.13642 0.20115 0.0
C178 C 0.92986 0.05856 0.21487 0.0
C179 C 0.90516 0.08374 0.2356 0.0
C180 C 0.91201 0.13546 0.23895 0.0
C181 C 0.94353 0.16127 0.22161 0.0
C182 C 0.92336 0.0034 0.21066 0.0
C183 C 0.88645 0.16337 0.26101 0.0
C184 C 0.7934 0.0201 0.26643 0.0
C185 C 0.81472 -0.00169 0.289 0.0
C186 C 0.8223 0.04847 0.24895 0.0
C187 C 0.87357 0.05539 0.25428 0.0
C188 C 0.89525 0.03374 0.27705 0.0
C189 C 0.86565 0.00535 0.29407 0.0
C190 C 0.79812 0.07072 0.22468 0.0
C191 C 0.94983 0.0404 0.2834 0.0
H192 H 0.98011 0.06552 0.18214 0.0
H193 H 0.94886 0.20084 0.22424 0.0
H194 H 0.93659 0.98297 0.2284 0.0
H195 H 0.88338 0.99435 0.20801 0.0
H196 H 0.94406 0.98969 0.19309 0.0
H197 H 0.89485 0.20373 0.26057 0.0
H198 H 0.84559 0.15822 0.25955 0.0
H199 H 0.89835 0.14832 0.28048 0.0
H200 H 0.75414 0.01488 0.26233 0.0
H201 H 0.88251 0.98899 0.31152 0.0
H202 H 0.81607 0.05601 0.20653 0.0
H203 H 0.80344 0.11154 0.22464 0.0
H204 H 0.75763 0.06259 0.22363 0.0
H205 H 0.97274 0.02455 0.26722 0.0
H206 H 0.96061 0.02225 0.30232 0.0
H207 H 0.95901 0.08047 0.28478 0.0
C208 C 0.28788 0.45968 0.47598 0.0
C209 C 0.30895 0.491 0.45685 0.0
C210 C 0.31797 0.43538 0.49473 0.0
C211 C 0.37017 0.44249 0.49418 0.0
C212 C 0.39136 0.47544 0.47558 0.0
C213 C 0.36055 0.49937 0.45727 0.0
C214 C 0.29415 0.40088 0.51454 0.0
C215 C 0.44689 0.48402 0.47433 0.0
C216 C 0.45493 0.40785 0.55144 0.0
C217 C 0.47438 0.36241 0.54269 0.0
C218 C 0.41934 0.43345 0.53638 0.0
C219 C 0.40339 0.41345 0.51183 0.0
C220 C 0.42233 0.36731 0.50306 0.0
C221 C 0.45739 0.34224 0.51866 0.0
C222 C 0.39959 0.48236 0.54645 0.0
C223 C 0.40669 0.34512 0.4768 0.0
H224 H 0.24809 0.45313 0.47592 0.0
H225 H 0.37734 0.52387 0.4428 0.0
H226 H 0.30559 0.36214 0.51034 0.0
H227 H 0.30699 0.40996 0.53491 0.0
H228 H 0.25288 0.40281 0.51395 0.0
H229 H 0.45718 0.5126 0.45947 0.0
H230 H 0.46123 0.49589 0.49399 0.0
H231 H 0.46593 0.44886 0.46911 0.0
H232 H 0.46739 0.42343 0.57014 0.0
H233 H 0.4722 0.30718 0.51172 0.0
H234 H 0.35832 0.48208 0.54628 0.0
H235 H 0.41179 0.51276 0.53316 0.0
H236 H 0.41265 0.4908 0.56688 0.0
H237 H 0.36559 0.34195 0.47577 0.0
H238 H 0.42305 0.30782 0.47347 0.0
H239 H 0.41851 0.36985 0.46041 0.0
C240 C 0.04802 0.84273 0.71152 0.0
C241 C 0.02902 0.86429 0.68831 0.0
C242 C 0.08316 0.86766 0.72718 0.0
C243 C 0.10003 0.91515 0.71934 0.0
C244 C 0.08252 0.93639 0.69545 0.0
C245 C 0.04694 0.91082 0.68028 0.0
C246 C 0.10057 0.84406 0.75271 0.0
C247 C 0.10009 0.98681 0.6864 0.0
C248 C 0.13738 -0.00112 0.77601 0.0
C249 C 0.18936 0.99361 0.77646 0.0
C250 C 0.10821 0.97466 0.75702 0.0
C251 C 0.13147 0.94463 0.73773 0.0
C252 C 0.18397 0.94058 0.73726 0.0
C253 C 0.21242 0.96505 0.75674 0.0
C254 C 0.05226 0.97983 0.75825 0.0
C255 C 0.2099 0.90926 0.7167 0.0
H256 H 0.03454 0.80675 0.71787 0.0
H257 H 0.03298 0.92748 0.66219 0.0
H258 H 0.14179 0.84361 0.75362 0.0
H259 H 0.0873 0.8663 0.76982 0.0
H260 H 0.08669 0.80546 0.75497 0.0
H261 H 0.0873 -0.00443 0.66598 0.0
H262 H 0.08574 0.01574 0.70003 0.0
H263 H 0.1413 0.98887 0.68702 0.0
H264 H 0.11901 0.02118 0.79095 0.0
H265 H 0.25252 0.961 0.75679 0.0
H266 H 0.03515 0.94317 0.76239 0.0
H267 H 0.03752 0.99267 0.73889 0.0
H268 H 0.0402 0.00631 0.77384 0.0
H269 H 0.20078 0.86958 0.71992 0.0
H270 H 0.25097 0.91374 0.71746 0.0
H271 H 0.19664 0.91913 0.69654 0.0
C272 C 0.55523 0.66985 0.01364 0.0
C273 C 0.52581 0.64261 0.03139 0.0
C274 C 0.58826 0.64585 -0.00364 0.0
C275 C 0.59195 0.59349 -0.00307 0.0
C276 C 0.56276 0.56585 0.01492 0.0
C277 C 0.53003 0.59069 0.03187 0.0
C278 C 0.61871 0.6764 0.97728 0.0
C279 C 0.56567 0.50991 0.01606 0.0
C280 C 0.63464 0.52325 0.93618 0.0
C281 C 0.68383 0.51104 0.94295 0.0
C282 C 0.60485 0.55117 0.9533 0.0
C283 C 0.62453 0.5671 0.97791 0.0
C284 C 0.67425 0.55555 0.9848 0.0
C285 C 0.70343 0.52773 0.96718 0.0
C286 C 0.55199 0.56293 0.94523 0.0
C287 C 0.69627 0.57175 0.011 0.0
H288 H 0.55233 0.70993 0.01313 0.0
H289 H 0.50772 0.56919 0.04555 0.0
H290 H 0.65885 0.66832 0.97996 0.0
H291 H 0.60885 0.66629 0.95659 0.0
H292 H 0.61274 0.71687 0.97995 0.0
H293 H 0.54177 0.49408 0.03188 0.0
H294 H 0.55391 0.49387 -0.00324 0.0
H295 H 0.60461 0.49808 0.01965 0.0
H296 H 0.61919 0.51099 0.91741 0.0
H297 H 0.74137 0.51855 0.97257 0.0
H298 H 0.54554 0.60353 0.94616 0.0
H299 H 0.52566 0.54523 0.95923 0.0
H300 H 0.54314 0.54978 0.92486 0.0
H301 H 0.69263 0.61251 0.01336 0.0
H302 H 0.73617 0.56165 0.01288 0.0
H303 H 0.67549 0.55424 0.0275 0.0
C304 C 0.17966 0.33658 0.23303 0.0
C305 C 0.15124 0.29318 0.23167 0.0
C306 C 0.19051 0.3587 0.25752 0.0
C307 C 0.17403 0.33563 0.28116 0.0
C308 C 0.14784 0.29004 0.27986 0.0
C309 C 0.13565 0.26988 0.25498 0.0
C310 C 0.21709 0.40816 0.25797 0.0
C311 C 0.13142 0.26344 0.30465 0.0
C312 C 0.23385 0.39159 0.34243 0.0
C313 C 0.197 0.42504 0.35046 0.0
C314 C 0.22549 0.35917 0.32104 0.0
C315 C 0.18009 0.36199 0.30682 0.0
C316 C 0.14208 0.39433 0.31558 0.0
C317 C 0.15072 0.42481 0.33761 0.0
C318 C 0.26606 0.32369 0.31292 0.0
C319 C 0.09371 0.39961 0.30052 0.0
H320 H 0.19114 0.35459 0.21482 0.0
H321 H 0.11376 0.23613 0.25371 0.0
H322 H 0.19255 0.43677 0.26684 0.0
H323 H 0.25098 0.40598 0.27048 0.0
H324 H 0.22804 0.42065 0.23783 0.0
H325 H 0.11827 0.22515 0.30037 0.0
H326 H 0.16245 0.26163 0.31918 0.0
H327 H 0.10063 0.28419 0.31413 0.0
H328 H 0.26958 0.39162 0.35246 0.0
H329 H 0.12238 0.4511 0.34359 0.0
H330 H 0.28427 0.3374 0.29463 0.0
H331 H 0.25027 0.28653 0.30843 0.0
H332 H 0.29494 0.31979 0.32857 0.0
H333 H 0.10128 0.41465 0.28046 0.0
H334 H 0.06716 0.42476 0.31068 0.0
H335 H 0.07565 0.36294 0.29788 0.0
C336 C 0.99078 0.77726 0.55111 0.0
C337 C 0.01201 0.77351 0.57642 0.0
C338 C 0.01645 0.76026 0.52872 0.0
C339 C 0.06475 0.74013 0.5318 0.0
C340 C 0.08762 0.73959 0.55709 0.0
C341 C 0.06067 0.75573 0.57919 0.0
C342 C 0.99049 0.76067 0.50213 0.0
C343 C 0.13952 0.71951 0.56104 0.0
C344 C 0.1044 0.63905 0.48427 0.0
C345 C 0.13371 0.66545 0.46619 0.0
C346 C 0.08153 0.66313 0.50559 0.0
C347 C 0.08909 0.71467 0.50924 0.0
C348 C 0.11961 0.74139 0.49145 0.0
C349 C 0.14117 0.71651 0.4699 0.0
C350 C 0.04853 0.63352 0.52393 0.0
C351 C 0.12922 0.79617 0.49511 0.0
H352 H 0.95298 0.7907 0.54899 0.0
H353 H 0.07725 0.75331 0.59877 0.0
H354 H 0.01525 0.77598 0.48661 0.0
H355 H 0.98105 0.72207 0.49629 0.0
H356 H 0.95565 0.78276 0.50253 0.0
H357 H 0.15427 0.72778 0.58117 0.0
H358 H 0.13923 0.67868 0.55824 0.0
H359 H 0.16527 0.73535 0.54612 0.0
H360 H 0.09803 0.5997 0.4813 0.0
H361 H 0.16397 0.737 0.45599 0.0
H362 H 0.01054 0.64957 0.52412 0.0
H363 H 0.06314 0.63544 0.5445 0.0
H364 H 0.0458 0.5939 0.51801 0.0
H365 H 0.09371 0.81692 0.49376 0.0
H366 H 0.15531 0.81112 0.48005 0.0
H367 H 0.14494 0.80323 0.51513 0.0
C368 C 0.82542 0.58246 0.84243 0.0
C369 C 0.79283 0.54352 0.83595 0.0
C370 C 0.83945 0.61752 0.82337 0.0
C371 C 0.82092 0.61301 0.79723 0.0
C372 C 0.78694 0.57466 0.79075 0.0
C373 C 0.77303 0.54055 0.81026 0.0
C374 C 0.87523 0.65841 0.83099 0.0
C375 C 0.76671 0.56849 0.76295 0.0
C376 C 0.82468 0.71607 0.74658 0.0
C377 C 0.86421 0.70063 0.73045 0.0
C378 C 0.81186 0.6895 0.76942 0.0
C379 C 0.83903 0.6464 0.77608 0.0
C380 C 0.88088 0.63246 0.76087 0.0
C381 C 0.89316 0.65995 0.73829 0.0
C382 C 0.76751 0.70587 0.78549 0.0
C383 C 0.91072 0.58661 0.7674 0.0
H384 H 0.84052 0.5852 0.86233 0.0
H385 H 0.74801 0.51045 0.80509 0.0
H386 H 0.91106 0.65302 0.82053 0.0
H387 H 0.86033 0.69497 0.8248 0.0
H388 H 0.88264 0.65937 0.85266 0.0
H389 H 0.73931 0.53771 0.76144 0.0
H390 H 0.74855 0.60326 0.75633 0.0
H391 H 0.79771 0.56083 0.74906 0.0
H392 H 0.80249 0.74786 0.74085 0.0
H393 H 0.92392 0.64785 0.72605 0.0
H394 H 0.77659 0.70582 0.80696 0.0
H395 H 0.73639 0.67938 0.7824 0.0
H396 H 0.75459 0.74352 0.77981 0.0
H397 H 0.92188 0.58679 0.78859 0.0
H398 H 0.94472 0.58343 0.75506 0.0
H399 H 0.88744 0.55313 0.76408 0.0
C400 C 0.91885 0.28553 0.09314 0.0
C401 C 0.95467 0.24806 0.09101 0.0
C402 C 0.89209 0.30139 0.07075 0.0
C403 C 0.90284 0.28041 0.04565 0.0
C404 C 0.93802 0.24164 0.04358 0.0
C405 C 0.96296 0.22548 0.06635 0.0
C406 C 0.85376 0.34183 0.07377 0.0
C407 C 0.95171 0.21927 0.01709 0.0
C408 C 0.82274 0.29731 0.98426 0.0
C409 C 0.84745 0.33646 0.97162 0.0
C410 C 0.83869 0.28029 0.00917 0.0
C411 C 0.88124 0.30192 0.02113 0.0
C412 C 0.90587 0.34188 0.00854 0.0
C413 C 0.88819 0.35913 0.98411 0.0
C414 C 0.81073 0.23857 0.02241 0.0
C415 C 0.95221 0.36502 0.02028 0.0
H416 H 0.91226 0.30286 0.11222 0.0
H417 H 0.99112 0.19692 0.06453 0.0
H418 H 0.86785 0.37661 0.06477 0.0
H419 H 0.81897 0.33162 0.06317 0.0
H420 H 0.84488 0.34926 0.0949 0.0
H421 H 0.97787 0.18763 0.01912 0.0
H422 H 0.91792 0.20618 0.00653 0.0
H423 H 0.96945 0.24798 0.0045 0.0
H424 H 0.79089 0.28013 0.9747 0.0
H425 H 0.90753 0.38919 0.97425 0.0
H426 H 0.80218 0.24848 0.04326 0.0
H427 H 0.83419 0.20478 0.02285 0.0
H428 H 0.77541 0.22957 0.01195 0.0
H429 H 0.94473 0.37859 0.04064 0.0
H430 H 0.96624 0.39652 0.00823 0.0
H431 H 0.98201 0.3367 0.02174 0.0
C432 C 0.61034 0.15466 0.49485 0.0
C433 C 0.6395 0.19547 0.50256 0.0
C434 C 0.6219 0.12711 0.47214 0.0
C435 C 0.66317 0.14115 0.45649 0.0
C436 C 0.69082 0.18413 0.46315 0.0
C437 C 0.67889 0.21064 0.48624 0.0
C438 C 0.59175 0.0812 0.46583 0.0
C439 C 0.73447 0.20074 0.4466 0.0
C440 C 0.7264 0.03523 0.42073 0.0
C441 C 0.70461 0.03788 0.39548 0.0
C442 C 0.71416 0.06951 0.44054 0.0
C443 C 0.68 0.10796 0.43481 0.0
C444 C 0.65955 0.11222 0.40904 0.0
C445 C 0.67171 0.07676 0.38971 0.0
C446 C 0.73617 0.06321 0.46793 0.0
C447 C 0.62373 0.15331 0.40212 0.0
H448 H 0.5798 0.1426 0.50727 0.0
H449 H 0.70132 0.24242 0.49189 0.0
H450 H 0.57899 0.08189 0.44491 0.0
H451 H 0.61537 0.04779 0.46832 0.0
H452 H 0.55872 0.0774 0.47886 0.0
H453 H 0.74791 0.23822 0.4524 0.0
H454 H 0.76556 0.1741 0.449 0.0
H455 H 0.72426 0.20121 0.42527 0.0
H456 H 0.7516 0.00511 0.4254 0.0
H457 H 0.65506 0.0792 0.37015 0.0
H458 H 0.70606 0.05547 0.48236 0.0
H459 H 0.75487 0.09793 0.47434 0.0
H460 H 0.76354 0.03242 0.46884 0.0
H461 H 0.58838 0.14792 0.41305 0.0
H462 H 0.61527 0.1545 0.38056 0.0
H463 H 0.6392 0.18975 0.40828 0.0
C464 C 0.39319 0.14037 0.74909 0.0
C465 C 0.36218 0.16764 0.76597 0.0
C466 C 0.41639 0.1629 0.72739 0.0
C467 C 0.40754 0.2137 0.72214 0.0
C468 C 0.37531 0.24119 0.73869 0.0
C469 C 0.35336 0.21793 0.76061 0.0
C470 C 0.45116 0.13255 0.71039 0.0
C471 C 0.36436 0.29517 0.73334 0.0
C472 C 0.5059 0.27655 0.68029 0.0
C473 C 0.48601 0.27046 0.65478 0.0
C474 C 0.47984 0.25995 0.70263 0.0
C475 C 0.43246 0.23771 0.69931 0.0
C476 C 0.41093 0.2344 0.67374 0.0
C477 C 0.43824 0.25032 0.65171 0.0
C478 C 0.5044 0.26341 0.72955 0.0
C479 C 0.36003 0.21189 0.66949 0.0
H480 H 0.40056 0.10164 0.75329 0.0
H481 H 0.32923 0.2391 0.77356 0.0
H482 H 0.43777 0.13211 0.68957 0.0
H483 H 0.48875 0.14964 0.71041 0.0
H484 H 0.45447 0.09363 0.71737 0.0
H485 H 0.33696 0.31077 0.74752 0.0
H486 H 0.39916 0.31721 0.73468 0.0
H487 H 0.34965 0.29966 0.71291 0.0
H488 H 0.54302 0.29176 0.68269 0.0
H489 H 0.42263 0.24602 0.63199 0.0
H490 H 0.51426 0.22563 0.73648 0.0
H491 H 0.47849 0.27952 0.74429 0.0
H492 H 0.5388 0.28628 0.72912 0.0
H493 H 0.36151 0.17147 0.6735 0.0
H494 H 0.34626 0.21744 0.64892 0.0
H495 H 0.33284 0.22828 0.68349 0.0
C496 C 0.30605 0.83669 0.00219 0.0
C497 C 0.33607 0.79435 0.00245 0.0
C498 C 0.29543 0.86121 0.97835 0.0
C499 C 0.31375 0.84163 0.95419 0.0
C500 C 0.34131 0.7969 0.95427 0.0
C501 C 0.3532 0.77437 0.97854 0.0
C502 C 0.26739 0.90972 0.97925 0.0
C503 C 0.3598 0.7739 0.92885 0.0
C504 C 0.25706 0.90058 0.89285 0.0
C505 C 0.29393 0.93507 0.88608 0.0
C506 C 0.26422 0.86755 0.91404 0.0
C507 C 0.30832 0.87076 0.92938 0.0
C508 C 0.3461 0.90478 0.92215 0.0
C509 C 0.33878 0.93589 0.90028 0.0
C510 C 0.22397 0.83045 0.92053 0.0
C511 C 0.39302 0.91051 0.93844 0.0
H512 H 0.29345 0.85232 0.02082 0.0
H513 H 0.37636 0.74147 0.97889 0.0
H514 H 0.29182 0.9402 0.97223 0.0
H515 H 0.23472 0.90832 0.96581 0.0
H516 H 0.25434 0.91897 -0.00046 0.0
H517 H 0.3739 0.73562 0.93195 0.0
H518 H 0.3296 0.77283 0.9138 0.0
H519 H 0.39041 0.79675 0.92062 0.0
H520 H 0.22241 0.89992 0.88181 0.0
H521 H 0.36702 0.96307 0.89529 0.0
H522 H 0.2051 0.84148 0.93915 0.0
H523 H 0.24033 0.79317 0.9238 0.0
H524 H 0.19556 0.82782 0.90455 0.0
H525 H 0.38335 0.92251 0.95885 0.0
H526 H 0.41909 0.93812 0.92984 0.0
H527 H 0.41255 0.87446 0.94009 0.0
C528 C 0.57355 0.72722 0.1497 0.0
C529 C 0.53479 0.75745 0.1406 0.0
C530 C 0.60023 0.73972 0.17275 0.0
C531 C 0.58627 0.78224 0.18748 0.0
C532 C 0.54749 0.81312 0.17812 0.0
C533 C 0.52282 0.80078 0.15453 0.0
C534 C 0.64253 0.70694 0.18166 0.0
C535 C 0.53041 0.85793 0.19364 0.0
C536 C 0.60958 0.78659 0.26157 0.0
C537 C 0.64646 0.82315 0.26332 0.0
C538 C 0.59038 0.77201 0.23688 0.0
C539 C 0.60998 0.79327 0.21345 0.0
C540 C 0.64929 0.82818 0.21513 0.0
C541 C 0.66638 0.84353 0.24014 0.0
C542 C 0.54733 0.73592 0.23597 0.0
C543 C 0.67225 0.85036 0.19056 0.0
H544 H 0.58279 0.69374 0.13885 0.0
H545 H 0.49229 0.82376 0.1477 0.0
H546 H 0.67602 0.72969 0.18603 0.0
H547 H 0.63219 0.68755 0.20022 0.0
H548 H 0.65224 0.67863 0.16651 0.0
H549 H 0.49975 0.8781 0.18353 0.0
H550 H 0.51728 0.84618 0.21351 0.0
H551 H 0.56183 0.884 0.19674 0.0
H552 H 0.59396 0.77128 0.27959 0.0
H553 H 0.69521 0.8716 0.24162 0.0
H554 H 0.55635 0.70397 0.223 0.0
H555 H 0.51418 0.75444 0.22736 0.0
H556 H 0.53747 0.72169 0.25594 0.0
H557 H 0.68164 0.82071 0.17614 0.0
H558 H 0.70646 0.87194 0.19515 0.0
H559 H 0.64517 0.87542 0.18079 0.0
C560 C 0.23285 0.10339 0.94898 0.0
C561 C 0.24025 0.14227 0.931 0.0
C562 C 0.22351 0.11304 0.97574 0.0
C563 C 0.22092 0.16279 0.98457 0.0
C564 C 0.23034 0.20219 0.96677 0.0
C565 C 0.24024 0.19141 0.94013 0.0
C566 C 0.21433 0.07004 -0.00572 0.0
C567 C 0.22754 0.25568 0.97557 0.0
C568 C 0.13585 0.18194 0.04299 0.0
C569 C 0.16987 0.1847 0.06403 0.0
C570 C 0.15222 0.17662 0.01688 0.0
C571 C 0.20383 0.17335 0.0118 0.0
C572 C 0.23848 0.17731 0.03286 0.0
C573 C 0.22103 0.1833 0.05882 0.0
C574 C 0.11418 0.17321 -0.00517 0.0
C575 C 0.29376 0.17357 0.02807 0.0
H576 H 0.23362 0.06529 0.94205 0.0
H577 H 0.24598 0.22155 0.92626 0.0
H578 H 0.23755 0.07381 0.01239 0.0
H579 H 0.17485 0.07009 0.00063 0.0
H580 H 0.22251 0.03368 0.98486 0.0
H581 H 0.24049 0.28166 0.95996 0.0
H582 H 0.18852 0.26504 0.98063 0.0
H583 H 0.25026 0.26162 -0.00631 0.0
H584 H 0.09626 0.18378 0.04694 0.0
H585 H 0.24738 0.18538 0.0751 0.0
H586 H 0.11564 0.13585 0.9856 0.0
H587 H 0.12271 0.20067 0.97911 0.0
H588 H 0.0757 0.17983 0.00198 0.0
H589 H 0.3029 0.13586 0.02071 0.0
H590 H 0.31582 0.18082 0.04633 0.0
H591 H 0.30536 0.20028 0.01255 0.0
C592 C 0.35787 0.67558 0.1901 0.0
C593 C 0.32512 0.67553 0.16844 0.0
C594 C 0.34052 0.66698 0.2158 0.0
C595 C 0.2893 0.65758 0.21982 0.0
C596 C 0.25594 0.65777 0.19809 0.0
C597 C 0.27425 0.66708 0.1726 0.0
C598 C 0.37713 0.6675 0.2386 0.0
C599 C 0.20117 0.64733 0.20172 0.0
C600 C 0.26195 0.58841 0.28315 0.0
C601 C 0.24961 0.62743 0.30032 0.0
C602 C 0.27255 0.59742 0.25644 0.0
C603 C 0.27119 0.64666 0.24684 0.0
C604 C 0.25653 0.6859 0.26373 0.0
C605 C 0.24565 0.67577 0.29031 0.0
C606 C 0.28736 0.55453 0.23885 0.0
C607 C 0.25475 0.73888 0.25407 0.0
H608 H 0.39716 0.68251 0.18698 0.0
H609 H 0.24887 0.66666 0.15586 0.0
H610 H 0.36531 0.69481 0.25379 0.0
H611 H 0.3779 0.63054 0.24824 0.0
H612 H 0.41546 0.67698 0.23214 0.0
H613 H 0.18005 0.64991 0.18281 0.0
H614 H 0.19598 0.60958 0.21001 0.0
H615 H 0.18504 0.67391 0.21613 0.0
H616 H 0.26433 0.55085 0.29069 0.0
H617 H 0.23605 0.70606 0.30348 0.0
H618 H 0.32727 0.55797 0.2336 0.0
H619 H 0.26579 0.55517 0.22007 0.0
H620 H 0.2815 0.51807 0.24862 0.0
H621 H 0.29298 0.75177 0.24945 0.0
H622 H 0.23846 0.76438 0.26902 0.0
H623 H 0.23263 0.74143 0.23553 0.0
C624 C 0.70186 0.81203 0.44827 0.0
C625 C 0.74516 0.82042 0.43356 0.0
C626 C 0.70438 0.80563 0.47587 0.0
C627 C 0.75137 0.80656 0.48863 0.0
C628 C 0.79529 0.81211 0.47349 0.0
C629 C 0.79156 0.81967 0.44616 0.0
C630 C 0.65682 0.80052 0.49146 0.0
C631 C 0.84622 0.81201 0.48628 0.0
C632 C 0.77474 0.85058 0.55847 0.0
C633 C 0.78478 0.80575 0.57136 0.0
C634 C 0.75936 0.85106 0.53194 0.0
C635 C 0.75528 0.80567 0.51791 0.0
C636 C 0.76235 0.76015 0.53133 0.0
C637 C 0.77659 0.76074 0.55807 0.0
C638 C 0.75095 0.90034 0.51845 0.0
C639 C 0.75904 0.71104 0.51699 0.0
H640 H 0.66597 0.81297 0.43841 0.0
H641 H 0.825 0.82568 0.43461 0.0
H642 H 0.65921 0.76874 0.50533 0.0
H643 H 0.65109 0.83442 0.50357 0.0
H644 H 0.62389 0.79531 0.47838 0.0
H645 H 0.87662 0.81225 0.4714 0.0
H646 H 0.85045 0.8452 0.49913 0.0
H647 H 0.85069 0.77884 0.49906 0.0
H648 H 0.78043 0.88535 0.56891 0.0
H649 H 0.78454 0.72601 0.56804 0.0
H650 H 0.7165 0.89928 0.50629 0.0
H651 H 0.78242 0.90827 0.50491 0.0
H652 H 0.74809 0.93131 0.53293 0.0
H653 H 0.72572 0.70967 0.504 0.0
H654 H 0.75768 0.67924 0.53097 0.0
H655 H 0.79218 0.70655 0.50414 0.0
C656 C 0.72091 0.34794 0.6763 0.0
C657 C 0.71213 0.30293 0.66319 0.0
C658 C 0.7351 0.34879 0.70305 0.0
C659 C 0.73945 0.30355 0.71712 0.0
C660 C 0.73341 0.25789 0.70356 0.0
C661 C 0.72021 0.25813 0.67662 0.0
C662 C 0.74231 0.39828 0.71663 0.0
C663 C 0.73706 0.20888 0.71787 0.0
C664 C 0.79295 0.31302 0.78679 0.0
C665 C 0.74961 0.32117 0.80152 0.0
C666 C 0.7904 0.30532 0.75925 0.0
C667 C 0.74338 0.30474 0.74649 0.0
C668 C 0.69946 0.30978 0.76168 0.0
C669 C 0.70318 0.31859 0.78896 0.0
C670 C 0.83799 0.30058 0.74366 0.0
C671 C 0.64851 0.30811 0.74896 0.0
H672 H 0.71526 0.38259 0.66583 0.0
H673 H 0.71318 0.22324 0.66654 0.0
H674 H 0.71073 0.40527 0.73024 0.0
H675 H 0.77683 0.39814 0.72874 0.0
H676 H 0.74436 0.42937 0.70224 0.0
H677 H 0.7403 0.17721 0.70385 0.0
H678 H 0.76944 0.20846 0.73154 0.0
H679 H 0.70313 0.20332 0.72999 0.0
H680 H 0.82888 0.3153 0.79655 0.0
H681 H 0.66965 0.32436 0.80046 0.0
H682 H 0.84313 0.33412 0.73123 0.0
H683 H 0.83607 0.26822 0.73008 0.0
H684 H 0.87104 0.29652 0.75675 0.0
H685 H 0.64345 0.34102 0.73605 0.0
H686 H 0.61818 0.30774 0.76388 0.0
H687 H 0.64476 0.27468 0.73625 0.0
C688 C 0.18776 0.02971 0.1539 0.0
C689 C 0.20485 0.07677 0.16162 0.0
C690 C 0.22114 0.99157 0.14795 0.0
C691 C 0.27289 0.00034 0.15035 0.0
C692 C 0.29019 0.04576 0.16103 0.0
C693 C 0.2559 0.08367 0.16646 0.0
C694 C 0.20103 0.94336 0.13689 0.0
C695 C 0.345 0.05577 0.16481 0.0
C696 C 0.34349 0.88108 0.14108 0.0
C697 C 0.35235 0.8822 0.11373 0.0
C698 C 0.32221 0.92177 0.15405 0.0
C699 C 0.30804 0.96367 0.13902 0.0
C700 C 0.32057 0.9664 0.11174 0.0
C701 C 0.3432 0.92556 0.09942 0.0
C702 C 0.31117 0.91811 0.1833 0.0
C703 C 0.30588 0.01042 0.095 0.0
H704 H 0.14835 0.02366 0.15056 0.0
H705 H 0.26958 0.11971 0.17269 0.0
H706 H 0.21259 0.93932 0.11589 0.0
H707 H 0.21649 0.9114 0.14798 0.0
H708 H 0.15978 0.94142 0.13778 0.0
H709 H 0.35163 0.08753 0.17844 0.0
H710 H 0.36431 0.0226 0.17274 0.0
H711 H 0.36195 0.06478 0.14537 0.0
H712 H 0.35111 0.84739 0.15211 0.0
H713 H 0.34994 0.92605 0.07823 0.0
H714 H 0.27138 0.90858 0.1861 0.0
H715 H 0.31812 0.95406 0.1934 0.0
H716 H 0.33397 0.88896 0.19302 0.0
H717 H 0.2648 0.01117 0.09273 0.0
H718 H 0.32279 0.00908 0.07494 0.0
H719 H 0.31718 0.04553 0.10481 0.0
C720 C 0.3943 0.69764 0.38678 0.0
C721 C 0.34611 0.70903 0.39538 0.0
C722 C 0.43036 0.73474 0.38403 0.0
C723 C 0.41822 0.78449 0.39034 0.0
C724 C 0.37072 0.79592 0.4006 0.0
C725 C 0.33507 0.75804 0.40289 0.0
C726 C 0.48086 0.72086 0.3732 0.0
C727 C 0.35679 0.84832 0.40804 0.0
C728 C 0.53745 0.85619 0.39498 0.0
C729 C 0.54292 0.87108 0.36856 0.0
C730 C 0.49363 0.8332 0.40351 0.0
C731 C 0.45523 0.82405 0.38491 0.0
C732 C 0.45837 0.84449 0.35908 0.0
C733 C 0.50243 0.86819 0.3512 0.0
C734 C 0.49117 0.81334 0.43144 0.0
C735 C 0.41805 0.83578 0.33871 0.0
H736 H 0.40339 0.65996 0.38107 0.0
H737 H 0.29802 0.76727 0.4097 0.0
H738 H 0.48732 0.74027 0.35413 0.0
H739 H 0.51054 0.73277 0.38716 0.0
H740 H 0.48458 0.68032 0.36979 0.0
H741 H 0.32226 0.84957 0.42007 0.0
H742 H 0.38726 0.86653 0.41933 0.0
H743 H 0.35059 0.8703 0.38975 0.0
H744 H 0.56906 0.8586 0.40834 0.0
H745 H 0.50706 0.87939 0.33071 0.0
H746 H 0.50034 0.77321 0.43128 0.0
H747 H 0.4532 0.81739 0.43971 0.0
H748 H 0.51806 0.83252 0.44473 0.0
H749 H 0.42015 0.79688 0.33155 0.0
H750 H 0.422 0.86087 0.32139 0.0
H751 H 0.38072 0.8412 0.34753 0.0
C752 C 0.63484 0.111 0.64195 0.0
C753 C 0.64302 0.11349 0.61457 0.0
C754 C 0.65649 0.0731 0.65717 0.0
C755 C 0.6861 0.03685 0.64443 0.0
C756 C 0.69149 0.03765 0.61647 0.0
C757 C 0.67045 0.07647 0.60194 0.0
C758 C 0.65038 0.07417 0.68689 0.0
C759 C 0.72168 -0.00105 0.60195 0.0
C760 C 0.79752 0.9686 0.66991 0.0
C761 C 0.77916 0.91986 0.66967 0.0
C762 C 0.76571 0.00882 0.6652 0.0
C763 C 0.71479 -0.00026 0.65983 0.0
C764 C 0.69499 0.95168 0.6635 0.0
C765 C 0.72744 0.91221 0.66862 0.0
C766 C 0.78772 0.06014 0.66275 0.0
C767 C 0.64064 0.94074 0.65865 0.0
H768 H 0.61431 0.14042 0.65168 0.0
H769 H 0.67675 0.07884 0.58075 0.0
H770 H 0.64837 0.03621 0.69528 0.0
H771 H 0.68304 0.09305 0.69588 0.0
H772 H 0.6165 0.09497 0.69276 0.0
H773 H 0.71874 0.00274 0.58006 0.0
H774 H 0.76144 0.00239 0.60763 0.0
H775 H 0.70916 0.96114 0.60751 0.0
H776 H 0.83723 0.9751 0.67149 0.0
H777 H 0.71253 0.87484 0.66913 0.0
H778 H 0.76278 0.0882 0.67177 0.0
H779 H 0.79197 0.06951 0.64146 0.0
H780 H 0.82486 0.06268 0.67238 0.0
H781 H 0.61683 0.97068 0.66675 0.0
H782 H 0.62929 0.90487 0.66762 0.0
H783 H 0.63376 0.93864 0.63697 0.0
C784 C 0.48895 0.11641 0.85689 0.0
C785 C 0.4466 0.11361 0.8728 0.0
C786 C 0.53192 0.14034 0.86622 0.0
C787 C 0.53221 0.16079 0.89215 0.0
C788 C 0.49205 0.1514 0.90945 0.0
C789 C 0.4492 0.12845 0.89941 0.0
C790 C 0.57426 0.14924 0.84721 0.0
C791 C 0.49188 0.17062 0.93756 0.0
C792 C 0.65209 0.22664 0.91037 0.0
C793 C 0.64163 0.27504 0.90169 0.0
C794 C 0.61574 0.18928 0.90919 0.0
C795 C 0.56834 0.20058 0.89867 0.0
C796 C 0.55646 0.25016 0.89185 0.0
C797 C 0.59313 0.28687 0.89372 0.0
C798 C 0.62924 0.1373 0.91759 0.0
C799 C 0.50608 0.26391 0.88069 0.0
H800 H 0.48672 0.10493 0.8363 0.0
H801 H 0.41636 0.12565 0.91177 0.0
H802 H 0.57368 0.18855 0.84069 0.0
H803 H 0.61054 0.14252 0.85705 0.0
H804 H 0.57153 0.12517 0.82937 0.0
H805 H 0.46451 0.15038 0.94999 0.0
H806 H 0.52929 0.16732 0.94674 0.0
H807 H 0.48163 0.21047 0.93753 0.0
H808 H 0.68935 0.21729 0.91693 0.0
H809 H 0.58456 0.32416 0.88714 0.0
H810 H 0.63956 0.1153 0.89985 0.0
H811 H 0.59736 0.11845 0.92724 0.0
H812 H 0.66143 0.13725 0.93145 0.0
H813 H 0.50005 0.24452 0.86151 0.0
H814 H 0.50234 0.30446 0.87732 0.0
H815 H 0.47617 0.25194 0.89436 0.0
C816 C 0.82515 0.58069 0.63181 0.0
C817 C 0.8549 0.61582 0.61908 0.0
C818 C 0.80483 0.54072 0.61777 0.0
C819 C 0.81339 0.53671 0.59011 0.0
C820 C 0.84496 0.57121 0.57731 0.0
C821 C 0.86581 0.61032 0.59209 0.0
C822 C 0.77246 0.50396 0.6324 0.0
C823 C 0.85432 0.56894 0.54785 0.0
C824 C 0.77529 0.40922 0.56807 0.0
C825 C 0.72386 0.41627 0.56476 0.0
C826 C 0.80687 0.44944 0.57343 0.0
C827 C 0.78654 0.49765 0.575 0.0
C828 C 0.7364 0.50569 0.56755 0.0
C829 C 0.7054 0.46475 0.56269 0.0
C830 C 0.86043 0.43947 0.58068 0.0
C831 C 0.71403 0.557 0.56774 0.0
H832 H 0.81684 0.58521 0.65271 0.0
H833 H 0.88821 0.6382 0.58221 0.0
H834 H 0.73352 0.50683 0.62521 0.0
H835 H 0.78524 0.46552 0.62852 0.0
H836 H 0.77271 0.51035 0.65417 0.0
H837 H 0.8888 0.58924 0.54238 0.0
H838 H 0.85723 0.5301 0.54074 0.0
H839 H 0.82266 0.5865 0.5373 0.0
H840 H 0.79031 0.37199 0.56913 0.0
H841 H 0.66598 0.47068 0.55942 0.0
H842 H 0.86447 0.44032 0.60258 0.0
H843 H 0.8853 0.46842 0.57242 0.0
H844 H 0.8729 0.40257 0.57347 0.0
H845 H 0.70705 0.56854 0.58853 0.0
H846 H 0.6782 0.55821 0.55674 0.0
H847 H 0.74003 0.5843 0.55888 0.0
C848 C 0.09565 0.20054 0.83999 0.0
C849 C 0.14425 0.21322 0.83259 0.0
C850 C 0.05895 0.23689 0.8427 0.0
C851 C 0.07091 0.28714 0.83751 0.0
C852 C 0.11854 0.2997 0.82779 0.0
C853 C 0.15484 0.26256 0.82555 0.0
C854 C 0.00829 0.2218 0.85287 0.0
C855 C 0.13218 0.35263 0.82132 0.0
C856 C 0.95274 0.36119 0.8374 0.0
C857 C 0.94974 0.37398 0.86425 0.0
C858 C 0.99526 0.33795 0.82735 0.0
C859 C 0.03463 0.32614 0.84488 0.0
C860 C 0.03366 0.34375 0.87139 0.0
C861 C 0.99099 0.3678 0.88077 0.0
C862 C 0.99548 0.32121 0.79878 0.0
C863 C 0.07492 0.33189 0.89072 0.0
H864 H 0.08683 0.16251 0.84513 0.0
H865 H 0.19214 0.27275 0.8195 0.0
H866 H 0.00196 0.23865 0.87266 0.0
H867 H 0.97869 0.23561 0.83943 0.0
H868 H 0.00431 0.18092 0.85468 0.0
H869 H 0.16614 0.35474 0.80888 0.0
H870 H 0.10125 0.37158 0.81085 0.0
H871 H 0.13938 0.37327 0.83999 0.0
H872 H 0.92034 0.36582 0.82477 0.0
H873 H 0.98802 0.37719 0.90163 0.0
H874 H 0.98458 0.28154 0.79772 0.0
H875 H 0.03316 0.32479 0.79007 0.0
H876 H 0.96875 0.34285 0.7866 0.0
H877 H 0.07321 0.29194 0.89596 0.0
H878 H 0.07191 0.35396 0.90927 0.0
H879 H 0.11179 0.33899 0.88169 0.0
C880 C 0.30437 0.52965 0.08311 0.0
C881 C 0.2889 0.57584 0.07337 0.0
C882 C 0.26976 0.49268 0.08942 0.0
C883 C 0.21839 0.50181 0.08556 0.0
C884 C 0.20279 0.54646 0.07346 0.0
C885 C 0.23828 0.58308 0.06752 0.0
C886 C 0.28806 0.44519 0.10196 0.0
C887 C 0.14846 0.55698 0.06843 0.0
C888 C 0.14495 0.38358 0.09327 0.0
C889 C 0.13361 0.38517 0.12034 0.0
C890 C 0.16824 0.42375 0.08082 0.0
C891 C 0.1816 0.46575 0.0961 0.0
C892 C 0.16641 0.4691 0.12297 0.0
C893 C 0.14216 0.42862 0.13479 0.0
C894 C 0.18257 0.41918 0.05201 0.0
C895 C 0.18004 0.51331 0.13993 0.0
H896 H 0.34339 0.52341 0.0874 0.0
H897 H 0.22582 0.61853 0.05989 0.0
H898 H 0.27438 0.4428 0.12266 0.0
H899 H 0.27324 0.41258 0.09107 0.0
H900 H 0.32931 0.44281 0.10228 0.0
H901 H 0.14321 0.58879 0.05473 0.0
H902 H 0.12949 0.52394 0.05999 0.0
H903 H 0.13 0.56596 0.08748 0.0
H904 H 0.13825 0.34966 0.0822 0.0
H905 H 0.13381 0.42935 0.15581 0.0
H906 H 0.22269 0.40998 0.05058 0.0
H907 H 0.17662 0.45473 0.04142 0.0
H908 H 0.16106 0.38952 0.04179 0.0
H909 H 0.2207 0.51308 0.14384 0.0
H910 H 0.16035 0.51302 0.15927 0.0
H911 H 0.17121 0.54838 0.12948 0.0
C912 C 0.83545 0.71139 0.32785 0.0
C913 C 0.84767 0.7608 0.33409 0.0
C914 C 0.87112 0.67355 0.32973 0.0
C915 C 0.91973 0.68544 0.33843 0.0
C916 C 0.93317 0.73565 0.34281 0.0
C917 C 0.89712 0.7727 0.34032 0.0
C918 C 0.85579 0.62073 0.32401 0.0
C919 C 0.98486 0.75007 0.35192 0.0
C920 C 0.00278 0.60632 0.38079 0.0
C921 C 0.04318 0.60064 0.36367 0.0
C922 C 0.95908 0.62941 0.37194 0.0
C923 C 0.95597 0.64606 0.34533 0.0
C924 C 0.99393 0.63364 0.32718 0.0
C925 C 0.0376 0.61163 0.33668 0.0
C926 C 0.91918 0.64161 0.39189 0.0
C927 C 0.99105 0.64876 0.29843 0.0
H928 H 0.79746 0.70178 0.32269 0.0
H929 H 0.90718 0.81071 0.34492 0.0
H930 H 0.8862 0.59986 0.31423 0.0
H931 H 0.84709 0.60171 0.34293 0.0
H932 H 0.82212 0.61914 0.31121 0.0
H933 H 0.98963 0.7909 0.35361 0.0
H934 H 0.99263 0.73329 0.37158 0.0
H935 H 0.01307 0.73573 0.33787 0.0
H936 H 0.00728 0.59785 0.40167 0.0
H937 H 0.06889 0.60663 0.32342 0.0
H938 H 0.88172 0.63427 0.38351 0.0
H939 H 0.92122 0.68167 0.39692 0.0
H940 H 0.92354 0.61993 0.41047 0.0
H941 H 0.95264 0.64453 0.29063 0.0
H942 H 0.01676 0.62652 0.28598 0.0
H943 H 0.00163 0.68841 0.29655 0.0
loop_
_geom_bond_atom_site_label_1
_geom_bond_atom_site_label_2
_geom_bond_distance
_geom_bond_site_symmetry_2
_ccdc_geom_bond_type
Sc0 O3 2.025 . S
Sc0 O10 2.105 1_455 S
Sc0 O13 2.105 . S
Sc0 O16 2.105 . S
Sc0 O19 2.105 . S
Sc1 O3 2.025 . S
Sc1 O11 2.105 . S
Sc1 O15 2.105 . S
Sc1 O17 2.105 . S
Sc1 O21 2.105 . S
Sc2 O3 2.025 . S
Sc2 O12 2.105 . S
Sc2 O14 2.105 1_455 S
Sc2 O18 2.105 . S
Sc2 O20 2.105 1_455 S
O3 Sc0 2.025 . S
O3 Sc1 2.025 . S
O3 Sc2 2.025 . S
C4 O10 1.268 . S
C4 O20 1.268 . S
C5 O11 1.268 . S
C5 O19 1.268 . S
C6 O12 1.268 . S
C6 O21 1.268 . S
C7 O13 1.268 . S
C7 O17 1.268 . S
C8 O14 1.268 . S
C8 O16 1.268 1_655 S
C9 O15 1.268 . S
C9 O18 1.268 . S
O10 Sc0 2.105 1_655 S
O10 C4 1.268 . S
O11 Sc1 2.105 . S
O11 C5 1.268 . S
O12 Sc2 2.105 . S
O12 C6 1.268 . S
O13 Sc0 2.105 . S
O13 C7 1.268 . S
O14 Sc2 2.105 1_655 S
O14 C8 1.268 . S
O15 Sc1 2.105 . S
O15 C9 1.268 . S
O16 Sc0 2.105 . S
O16 C8 1.268 1_455 S
O17 Sc1 2.105 . S
O17 C7 1.268 . S
O18 Sc2 2.105 . S
O18 C9 1.268 . S
O19 Sc0 2.105 . S
O19 C5 1.268 . S
O20 Sc2 2.105 1_655 S
O20 C4 1.268 . S
O21 Sc1 2.105 . S
O21 C6 1.268 . S
Sc22 O25 2.025 . S
Sc22 O32 2.105 . S
Sc22 O35 2.105 . S
Sc22 O38 2.105 . S
Sc22 O41 2.105 . S
Sc23 O25 2.025 . S
Sc23 O33 2.105 . S
Sc23 O37 2.105 . S
Sc23 O39 2.105 . S
Sc23 O43 2.105 . S
Sc24 O25 2.025 . S
Sc24 O34 2.105 . S
Sc24 O36 2.105 . S
Sc24 O40 2.105 . S
Sc24 O42 2.105 . S
O25 Sc22 2.025 . S
O25 Sc23 2.025 . S
O25 Sc24 2.025 . S
C26 O32 1.268 . S
C26 O42 1.268 . S
C27 O33 1.268 . S
C27 O41 1.268 . S
C28 O34 1.268 . S
C28 O43 1.268 . S
C29 O35 1.268 . S
C29 O39 1.268 . S
C30 O36 1.268 . S
C30 O38 1.268 . S
C31 O37 1.268 . S
C31 O40 1.268 . S
O32 Sc22 2.105 . S
O32 C26 1.268 . S
O33 Sc23 2.105 . S
O33 C27 1.268 . S
O34 Sc24 2.105 . S
O34 C28 1.268 . S
O35 Sc22 2.105 . S
O35 C29 1.268 . S
O36 Sc24 2.105 . S
O36 C30 1.268 . S
O37 Sc23 2.105 . S
O37 C31 1.268 . S
O38 Sc22 2.105 . S
O38 C30 1.268 . S
O39 Sc23 2.105 . S
O39 C29 1.268 . S
O40 Sc24 2.105 . S
O40 C31 1.268 . S
O41 Sc22 2.105 . S
O41 C27 1.268 . S
O42 Sc24 2.105 . S
O42 C26 1.268 . S
O43 Sc23 2.105 . S
O43 C28 1.268 . S
Sc44 O47 2.025 . S
Sc44 O54 2.105 1_655 S
Sc44 O57 2.105 . S
Sc44 O60 2.105 . S
Sc44 O63 2.105 . S
Sc45 O47 2.025 . S
Sc45 O55 2.105 . S
Sc45 O59 2.105 . S
Sc45 O61 2.105 . S
Sc45 O65 2.105 . S
Sc46 O47 2.025 . S
Sc46 O56 2.105 . S
Sc46 O58 2.105 1_655 S
Sc46 O62 2.105 . S
Sc46 O64 2.105 1_655 S
O47 Sc44 2.025 . S
O47 Sc45 2.025 . S
O47 Sc46 2.025 . S
C48 O54 1.268 . S
C48 O64 1.268 . S
C49 O55 1.268 . S
C49 O63 1.268 . S
C50 O56 1.268 . S
C50 O65 1.268 . S
C51 O57 1.268 . S
C51 O61 1.268 . S
C52 O58 1.268 . S
C52 O60 1.268 1_455 S
C53 O59 1.268 . S
C53 O62 1.268 . S
O54 Sc44 2.105 1_455 S
O54 C48 1.268 . S
O55 Sc45 2.105 . S
O55 C49 1.268 . S
O56 Sc46 2.105 . S
O56 C50 1.268 . S
O57 Sc44 2.105 . S
O57 C51 1.268 . S
O58 Sc46 2.105 1_455 S
O58 C52 1.268 . S
O59 Sc45 2.105 . S
O59 C53 1.268 . S
O60 Sc44 2.105 . S
O60 C52 1.268 1_655 S
O61 Sc45 2.105 . S
O61 C51 1.268 . S
O62 Sc46 2.105 . S
O62 C53 1.268 . S
O63 Sc44 2.105 . S
O63 C49 1.268 . S
O64 Sc46 2.105 1_455 S
O64 C48 1.268 . S
O65 Sc45 2.105 . S
O65 C50 1.268 . S
Sc66 O69 2.025 . S
Sc66 O76 2.105 . S
Sc66 O79 2.105 . S
Sc66 O82 2.105 . S
Sc66 O85 2.105 . S
Sc67 O69 2.025 . S
Sc67 O77 2.105 . S
Sc67 O81 2.105 . S
Sc67 O83 2.105 . S
Sc67 O87 2.105 . S
Sc68 O69 2.025 . S
Sc68 O78 2.105 . S
Sc68 O80 2.105 . S
Sc68 O84 2.105 . S
Sc68 O86 2.105 . S
O69 Sc66 2.025 . S
O69 Sc67 2.025 . S
O69 Sc68 2.025 . S
C70 O76 1.268 . S
C70 O86 1.268 . S
C71 O77 1.268 . S
C71 O85 1.268 . S
C72 O78 1.268 . S
C72 O87 1.268 . S
C73 O79 1.268 . S
C73 O83 1.268 . S
C74 O80 1.268 . S
C74 O82 1.268 . S
C75 O81 1.268 . S
C75 O84 1.268 . S
O76 Sc66 2.105 . S
O76 C70 1.268 . S
O77 Sc67 2.105 . S
O77 C71 1.268 . S
O78 Sc68 2.105 . S
O78 C72 1.268 . S
O79 Sc66 2.105 . S
O79 C73 1.268 . S
O80 Sc68 2.105 . S
O80 C74 1.268 . S
O81 Sc67 2.105 . S
O81 C75 1.268 . S
O82 Sc66 2.105 . S
O82 C74 1.268 . S
O83 Sc67 2.105 . S
O83 C73 1.268 . S
O84 Sc68 2.105 . S
O84 C75 1.268 . S
O85 Sc66 2.105 . S
O85 C71 1.268 . S
O86 Sc68 2.105 . S
O86 C70 1.268 . S
O87 Sc67 2.105 . S
O87 C72 1.268 . S
Sc88 O91 2.025 . S
Sc88 O98 2.105 . S
Sc88 O101 2.105 . S
Sc88 O104 2.105 . S
Sc88 O107 2.105 . S
Sc89 O91 2.025 . S
Sc89 O99 2.105 . S
Sc89 O103 2.105 . S
Sc89 O105 2.105 . S
Sc89 O109 2.105 . S
Sc90 O91 2.025 . S
Sc90 O100 2.105 . S
Sc90 O102 2.105 . S
Sc90 O106 2.105 . S
Sc90 O108 2.105 . S
O91 Sc88 2.025 . S
O91 Sc89 2.025 . S
O91 Sc90 2.025 . S
C92 O98 1.268 . S
C92 O108 1.268 . S
C93 O99 1.268 . S
C93 O107 1.268 . S
C94 O100 1.268 . S
C94 O109 1.268 . S
C95 O101 1.268 . S
C95 O105 1.268 . S
C96 O102 1.268 . S
C96 O104 1.268 . S
C97 O103 1.268 . S
C97 O106 1.268 . S
O98 Sc88 2.105 . S
O98 C92 1.268 . S
O99 Sc89 2.105 . S
O99 C93 1.268 . S
O100 Sc90 2.105 . S
O100 C94 1.268 . S
O101 Sc88 2.105 . S
O101 C95 1.268 . S
O102 Sc90 2.105 . S
O102 C96 1.268 . S
O103 Sc89 2.105 . S
O103 C97 1.268 . S
O104 Sc88 2.105 . S
O104 C96 1.268 . S
O105 Sc89 2.105 . S
O105 C95 1.268 . S
O106 Sc90 2.105 . S
O106 C97 1.268 . S
O107 Sc88 2.105 . S
O107 C93 1.268 . S
O108 Sc90 2.105 . S
O108 C92 1.268 . S
O109 Sc89 2.105 . S
O109 C94 1.268 . S
Sc110 O113 2.025 . S
Sc110 O120 2.105 1_545 S
Sc110 O123 2.105 . S
Sc110 O126 2.105 . S
Sc110 O129 2.105 . S
Sc111 O113 2.025 . S
Sc111 O121 2.105 . S
Sc111 O125 2.105 . S
Sc111 O127 2.105 . S
Sc111 O131 2.105 . S
Sc112 O113 2.025 . S
Sc112 O122 2.105 . S
Sc112 O124 2.105 1_545 S
Sc112 O128 2.105 . S
Sc112 O130 2.105 1_545 S
O113 Sc110 2.025 . S
O113 Sc111 2.025 . S
O113 Sc112 2.025 . S
C114 O120 1.268 . S
C114 O130 1.268 . S
C115 O121 1.268 . S
C115 O129 1.268 . S
C116 O122 1.268 . S
C116 O131 1.268 . S
C117 O123 1.268 . S
C117 O127 1.268 . S
C118 O124 1.268 . S
C118 O126 1.268 1_565 S
C119 O125 1.268 . S
C119 O128 1.268 . S
O120 Sc110 2.105 1_565 S
O120 C114 1.268 . S
O121 Sc111 2.105 . S
O121 C115 1.268 . S
O122 Sc112 2.105 . S
O122 C116 1.268 . S
O123 Sc110 2.105 . S
O123 C117 1.268 . S
O124 Sc112 2.105 1_565 S
O124 C118 1.268 . S
O125 Sc111 2.105 . S
O125 C119 1.268 . S
O126 Sc110 2.105 . S
O126 C118 1.268 1_545 S
O127 Sc111 2.105 . S
O127 C117 1.268 . S
O128 Sc112 2.105 . S
O128 C119 1.268 . S
O129 Sc110 2.105 . S
O129 C115 1.268 . S
O130 Sc112 2.105 1_565 S
O130 C114 1.268 . S
O131 Sc111 2.105 . S
O131 C116 1.268 . S
Sc132 O135 2.025 . S
Sc132 O142 2.105 . S
Sc132 O145 2.105 . S
Sc132 O148 2.105 . S
Sc132 O151 2.105 . S
Sc133 O135 2.025 . S
Sc133 O143 2.105 . S
Sc133 O147 2.105 . S
Sc133 O149 2.105 . S
Sc133 O153 2.105 . S
Sc134 O135 2.025 . S
Sc134 O144 2.105 . S
Sc134 O146 2.105 . S
Sc134 O150 2.105 . S
Sc134 O152 2.105 . S
O135 Sc132 2.025 . S
O135 Sc133 2.025 . S
O135 Sc134 2.025 . S
C136 O142 1.268 . S
C136 O152 1.268 . S
C137 O143 1.268 . S
C137 O151 1.268 . S
C138 O144 1.268 . S
C138 O153 1.268 . S
C139 O145 1.268 . S
C139 O149 1.268 . S
C140 O146 1.268 . S
C140 O148 1.268 . S
C141 O147 1.268 . S
C141 O150 1.268 . S
O142 Sc132 2.105 . S
O142 C136 1.268 . S
O143 Sc133 2.105 . S
O143 C137 1.268 . S
O144 Sc134 2.105 . S
O144 C138 1.268 . S
O145 Sc132 2.105 . S
O145 C139 1.268 . S
O146 Sc134 2.105 . S
O146 C140 1.268 . S
O147 Sc133 2.105 . S
O147 C141 1.268 . S
O148 Sc132 2.105 . S
O148 C140 1.268 . S
O149 Sc133 2.105 . S
O149 C139 1.268 . S
O150 Sc134 2.105 . S
O150 C141 1.268 . S
O151 Sc132 2.105 . S
O151 C137 1.268 . S
O152 Sc134 2.105 . S
O152 C136 1.268 . S
O153 Sc133 2.105 . S
O153 C138 1.268 . S
Sc154 O157 2.025 . S
Sc154 O164 2.105 1_565 S
Sc154 O167 2.105 . S
Sc154 O170 2.105 1_565 S
Sc154 O173 2.105 . S
Sc155 O157 2.025 . S
Sc155 O165 2.105 . S
Sc155 O169 2.105 . S
Sc155 O171 2.105 . S
Sc155 O175 2.105 . S
Sc156 O157 2.025 . S
Sc156 O166 2.105 . S
Sc156 O168 2.105 1_565 S
Sc156 O172 2.105 . S
Sc156 O174 2.105 . S
O157 Sc154 2.025 . S
O157 Sc155 2.025 . S
O157 Sc156 2.025 . S
C158 O164 1.268 . S
C158 O174 1.268 1_545 S
C159 O165 1.268 . S
C159 O173 1.268 . S
C160 O166 1.268 . S
C160 O175 1.268 . S
C161 O167 1.268 . S
C161 O171 1.268 . S
C162 O168 1.268 . S
C162 O170 1.268 . S
C163 O169 1.268 . S
C163 O172 1.268 . S
O164 Sc154 2.105 1_545 S
O164 C158 1.268 . S
O165 Sc155 2.105 . S
O165 C159 1.268 . S
O166 Sc156 2.105 . S
O166 C160 1.268 . S
O167 Sc154 2.105 . S
O167 C161 1.268 . S
O168 Sc156 2.105 1_545 S
O168 C162 1.268 . S
O169 Sc155 2.105 . S
O169 C163 1.268 . S
O170 Sc154 2.105 1_545 S
O170 C162 1.268 . S
O171 Sc155 2.105 . S
O171 C161 1.268 . S
O172 Sc156 2.105 . S
O172 C163 1.268 . S
O173 Sc154 2.105 . S
O173 C159 1.268 . S
O174 Sc156 2.105 . S
O174 C158 1.268 1_565 S
O175 Sc155 2.105 . S
O175 C160 1.268 . S
C176 C177 1.391 . S
C176 C178 1.394 . S
C176 H192 0.931 . S
C177 C176 1.391 . S
C177 C181 1.376 . S
C178 C176 1.394 . S
C178 C179 1.369 . S
C178 C182 1.531 . S
C179 C178 1.369 . S
C179 C180 1.410 . S
C179 C187 1.503 . S
C180 C179 1.410 . S
C180 C181 1.392 . S
C180 C183 1.511 . S
C181 C177 1.376 . S
C181 C180 1.392 . S
C181 H193 0.929 1_655 S
C182 C178 1.531 . S
C182 H194 0.960 . S
C182 H195 0.962 . S
C182 H196 0.960 . S
C183 C180 1.511 . S
C183 H197 0.961 1_655 S
C183 H198 0.961 . S
C183 H199 0.961 1_655 S
C184 C185 1.370 . S
C184 C186 1.363 . S
C184 H200 0.931 . S
C185 C184 1.370 . S
C185 C189 1.408 . S
C186 C184 1.363 . S
C186 C187 1.370 . S
C186 C190 1.524 . S
C187 C179 1.503 . S
C187 C186 1.370 . S
C187 C188 1.403 . S
C188 C187 1.403 . S
C188 C189 1.404 . S
C188 C191 1.539 1_545 S
C189 C185 1.408 . S
C189 C188 1.404 . S
C189 H201 0.930 1_545 S
C190 C186 1.524 . S
C190 H202 0.956 . S
C190 H203 0.961 . S
C190 H204 0.961 . S
C191 C188 1.539 1_565 S
C191 H205 0.958 . S
C191 H206 0.961 . S
C191 H207 0.960 1_565 S
H192 C176 0.931 . S
H193 C181 0.929 1_455 S
H194 C182 0.960 . S
H195 C182 0.962 . S
H196 C182 0.960 . S
H197 C183 0.961 1_455 S
H198 C183 0.961 . S
H199 C183 0.961 1_455 S
H200 C184 0.931 . S
H201 C189 0.930 1_565 S
H202 C190 0.956 . S
H203 C190 0.961 . S
H204 C190 0.961 . S
H205 C191 0.958 . S
H206 C191 0.961 . S
H207 C191 0.960 1_545 S
C208 C209 1.391 . S
C208 C210 1.394 . S
C208 H224 0.931 . S
C209 C208 1.391 . S
C209 C213 1.376 . S
C210 C208 1.394 . S
C210 C211 1.369 . S
C210 C214 1.531 . S
C211 C210 1.369 . S
C211 C212 1.410 . S
C211 C219 1.503 . S
C212 C211 1.410 . S
C212 C213 1.392 . S
C212 C215 1.511 . S
C213 C209 1.376 . S
C213 C212 1.392 . S
C213 H225 0.929 . S
C214 C210 1.531 . S
C214 H226 0.960 . S
C214 H227 0.962 . S
C214 H228 0.960 . S
C215 C212 1.511 . S
C215 H229 0.961 . S
C215 H230 0.961 . S
C215 H231 0.961 . S
C216 C217 1.370 . S
C216 C218 1.363 . S
C216 H232 0.931 . S
C217 C216 1.370 . S
C217 C221 1.408 . S
C218 C216 1.363 . S
C218 C219 1.370 . S
C218 C222 1.524 . S
C219 C211 1.503 . S
C219 C218 1.370 . S
C219 C220 1.403 . S
C220 C219 1.403 . S
C220 C221 1.404 . S
C220 C223 1.539 . S
C221 C217 1.408 . S
C221 C220 1.404 . S
C221 H233 0.930 . S
C222 C218 1.524 . S
C222 H234 0.956 . S
C222 H235 0.961 . S
C222 H236 0.961 . S
C223 C220 1.539 . S
C223 H237 0.958 . S
C223 H238 0.961 . S
C223 H239 0.960 . S
H224 C208 0.931 . S
H225 C213 0.929 . S
H226 C214 0.960 . S
H227 C214 0.962 . S
H228 C214 0.960 . S
H229 C215 0.961 . S
H230 C215 0.961 . S
H231 C215 0.961 . S
H232 C216 0.931 . S
H233 C221 0.930 . S
H234 C222 0.956 . S
H235 C222 0.961 . S
H236 C222 0.961 . S
H237 C223 0.958 . S
H238 C223 0.961 . S
H239 C223 0.960 . S
C240 C241 1.391 . S
C240 C242 1.394 . S
C240 H256 0.931 . S
C241 C240 1.391 . S
C241 C245 1.376 . S
C242 C240 1.394 . S
C242 C243 1.369 . S
C242 C246 1.531 . S
C243 C242 1.369 . S
C243 C244 1.410 . S
C243 C251 1.503 . S
C244 C243 1.410 . S
C244 C245 1.392 . S
C244 C247 1.511 . S
C245 C241 1.376 . S
C245 C244 1.392 . S
C245 H257 0.929 . S
C246 C242 1.531 . S
C246 H258 0.960 . S
C246 H259 0.962 . S
C246 H260 0.960 . S
C247 C244 1.511 . S
C247 H261 0.961 . S
C247 H262 0.961 . S
C247 H263 0.961 . S
C248 C249 1.370 . S
C248 C250 1.363 . S
C248 H264 0.931 1_565 S
C249 C248 1.370 . S
C249 C253 1.408 . S
C250 C248 1.363 . S
C250 C251 1.370 . S
C250 C254 1.524 . S
C251 C243 1.503 . S
C251 C250 1.370 . S
C251 C252 1.403 . S
C252 C251 1.403 . S
C252 C253 1.404 . S
C252 C255 1.539 . S
C253 C249 1.408 . S
C253 C252 1.404 . S
C253 H265 0.930 . S
C254 C250 1.524 . S
C254 H266 0.956 . S
C254 H267 0.961 . S
C254 H268 0.943 1_565 S
C255 C252 1.539 . S
C255 H269 0.958 . S
C255 H270 0.961 . S
C255 H271 0.960 . S
H256 C240 0.931 . S
H257 C245 0.929 . S
H258 C246 0.960 . S
H259 C246 0.962 . S
H260 C246 0.960 . S
H261 C247 0.961 . S
H262 C247 0.961 . S
H263 C247 0.961 . S
H264 C248 0.931 1_545 S
H265 C253 0.930 . S
H266 C254 0.956 . S
H267 C254 0.961 . S
H268 C254 0.943 1_545 S
H269 C255 0.958 . S
H270 C255 0.961 . S
H271 C255 0.960 . S
C272 C273 1.391 . S
C272 C274 1.394 . S
C272 H288 0.931 . S
C273 C272 1.391 . S
C273 C277 1.376 . S
C274 C272 1.394 . S
C274 C275 1.369 . S
C274 C278 1.531 1_554 S
C275 C274 1.369 . S
C275 C276 1.410 . S
C275 C283 1.503 1_554 S
C276 C275 1.410 . S
C276 C277 1.392 . S
C276 C279 1.511 . S
C277 C273 1.376 . S
C277 C276 1.392 . S
C277 H289 0.929 . S
C278 C274 1.531 1_556 S
C278 H290 0.960 . S
C278 H291 0.962 . S
C278 H292 0.960 . S
C279 C276 1.511 . S
C279 H293 0.961 . S
C279 H294 0.961 . S
C279 H295 0.961 . S
C280 C281 1.370 . S
C280 C282 1.363 . S
C280 H296 0.931 . S
C281 C280 1.370 . S
C281 C285 1.408 . S
C282 C280 1.363 . S
C282 C283 1.370 . S
C282 C286 1.524 . S
C283 C275 1.503 1_556 S
C283 C282 1.370 . S
C283 C284 1.403 . S
C284 C283 1.403 . S
C284 C285 1.404 . S
C284 C287 1.539 . S
C285 C281 1.408 . S
C285 C284 1.404 . S
C285 H297 0.930 . S
C286 C282 1.524 . S
C286 H298 0.956 . S
C286 H299 0.961 1_556 S
C286 H300 0.961 . S
C287 C284 1.539 . S
C287 H301 0.958 . S
C287 H302 0.961 . S
C287 H303 0.960 1_556 S
H288 C272 0.931 . S
H289 C277 0.929 . S
H290 C278 0.960 . S
H291 C278 0.962 . S
H292 C278 0.960 . S
H293 C279 0.961 . S
H294 C279 0.961 . S
H295 C279 0.961 . S
H296 C280 0.931 . S
H297 C285 0.930 . S
H298 C286 0.956 . S
H299 C286 0.961 1_554 S
H300 C286 0.961 . S
H301 C287 0.958 . S
H302 C287 0.961 . S
H303 C287 0.960 1_554 S
C304 C305 1.391 . S
C304 C306 1.394 . S
C304 H320 0.931 . S
C305 C304 1.391 . S
C305 C309 1.376 . S
C306 C304 1.394 . S
C306 C307 1.369 . S
C306 C310 1.531 . S
C307 C306 1.369 . S
C307 C308 1.410 . S
C307 C315 1.503 . S
C308 C307 1.410 . S
C308 C309 1.392 . S
C308 C311 1.511 . S
C309 C305 1.376 . S
C309 C308 1.392 . S
C309 H321 0.929 . S
C310 C306 1.531 . S
C310 H322 0.960 . S
C310 H323 0.962 . S
C310 H324 0.960 . S
C311 C308 1.511 . S
C311 H325 0.961 . S
C311 H326 0.961 . S
C311 H327 0.961 . S
C312 C313 1.370 . S
C312 C314 1.363 . S
C312 H328 0.931 . S
C313 C312 1.370 . S
C313 C317 1.408 . S
C314 C312 1.363 . S
C314 C315 1.370 . S
C314 C318 1.524 . S
C315 C307 1.503 . S
C315 C314 1.370 . S
C315 C316 1.403 . S
C316 C315 1.403 . S
C316 C317 1.404 . S
C316 C319 1.539 . S
C317 C313 1.408 . S
C317 C316 1.404 . S
C317 H329 0.930 . S
C318 C314 1.524 . S
C318 H330 0.956 . S
C318 H331 0.961 . S
C318 H332 0.961 . S
C319 C316 1.539 . S
C319 H333 0.958 . S
C319 H334 0.961 . S
C319 H335 0.960 . S
H320 C304 0.931 . S
H321 C309 0.929 . S
H322 C310 0.960 . S
H323 C310 0.962 . S
H324 C310 0.960 . S
H325 C311 0.961 . S
H326 C311 0.961 . S
H327 C311 0.961 . S
H328 C312 0.931 . S
H329 C317 0.930 . S
H330 C318 0.956 . S
H331 C318 0.961 . S
H332 C318 0.961 . S
H333 C319 0.958 . S
H334 C319 0.961 . S
H335 C319 0.960 . S
C336 C337 1.391 . S
C336 C338 1.394 . S
C336 H352 0.931 . S
C337 C336 1.391 . S
C337 C341 1.376 . S
C338 C336 1.394 . S
C338 C339 1.369 . S
C338 C342 1.531 . S
C339 C338 1.369 . S
C339 C340 1.410 . S
C339 C347 1.503 . S
C340 C339 1.410 . S
C340 C341 1.392 . S
C340 C343 1.511 . S
C341 C337 1.376 . S
C341 C340 1.392 . S
C341 H353 0.929 . S
C342 C338 1.531 . S
C342 H354 0.960 . S
C342 H355 0.962 . S
C342 H356 0.960 . S
C343 C340 1.511 . S
C343 H357 0.961 . S
C343 H358 0.961 . S
C343 H359 0.961 . S
C344 C345 1.370 . S
C344 C346 1.363 . S
C344 H360 0.931 . S
C345 C344 1.370 . S
C345 C349 1.408 . S
C346 C344 1.363 . S
C346 C347 1.370 . S
C346 C350 1.524 . S
C347 C339 1.503 . S
C347 C346 1.370 . S
C347 C348 1.403 . S
C348 C347 1.403 . S
C348 C349 1.404 . S
C348 C351 1.539 . S
C349 C345 1.408 . S
C349 C348 1.404 . S
C349 H361 0.930 . S
C350 C346 1.524 . S
C350 H362 0.956 . S
C350 H363 0.961 . S
C350 H364 0.961 . S
C351 C348 1.539 . S
C351 H365 0.958 . S
C351 H366 0.961 . S
C351 H367 0.960 . S
H352 C336 0.931 . S
H353 C341 0.929 . S
H354 C342 0.960 . S
H355 C342 0.962 . S
H356 C342 0.960 . S
H357 C343 0.961 . S
H358 C343 0.961 . S
H359 C343 0.961 . S
H360 C344 0.931 . S
H361 C349 0.930 . S
H362 C350 0.956 . S
H363 C350 0.961 . S
H364 C350 0.961 . S
H365 C351 0.958 . S
H366 C351 0.961 . S
H367 C351 0.960 . S
C368 C369 1.391 . S
C368 C370 1.394 . S
C368 H384 0.931 . S
C369 C368 1.391 . S
C369 C373 1.376 . S
C370 C368 1.394 . S
C370 C371 1.369 . S
C370 C374 1.531 . S
C371 C370 1.369 . S
C371 C372 1.410 . S
C371 C379 1.503 . S
C372 C371 1.410 . S
C372 C373 1.392 . S
C372 C375 1.511 . S
C373 C369 1.376 . S
C373 C372 1.392 . S
C373 H385 0.929 . S
C374 C370 1.531 . S
C374 H386 0.960 . S
C374 H387 0.962 . S
C374 H388 0.960 . S
C375 C372 1.511 . S
C375 H389 0.961 . S
C375 H390 0.961 . S
C375 H391 0.961 . S
C376 C377 1.370 . S
C376 C378 1.363 . S
C376 H392 0.931 . S
C377 C376 1.370 . S
C377 C381 1.408 . S
C378 C376 1.363 . S
C378 C379 1.370 . S
C378 C382 1.524 . S
C379 C371 1.503 . S
C379 C378 1.370 . S
C379 C380 1.403 . S
C380 C379 1.403 . S
C380 C381 1.404 . S
C380 C383 1.539 . S
C381 C377 1.408 . S
C381 C380 1.404 . S
C381 H393 0.930 . S
C382 C378 1.524 . S
C382 H394 0.956 . S
C382 H395 0.961 . S
C382 H396 0.961 . S
C383 C380 1.539 . S
C383 H397 0.958 . S
C383 H398 0.961 . S
C383 H399 0.960 . S
H384 C368 0.931 . S
H385 C373 0.929 . S
H386 C374 0.960 . S
H387 C374 0.962 . S
H388 C374 0.960 . S
H389 C375 0.961 . S
H390 C375 0.961 . S
H391 C375 0.961 . S
H392 C376 0.931 . S
H393 C381 0.930 . S
H394 C382 0.956 . S
H395 C382 0.961 . S
H396 C382 0.961 . S
H397 C383 0.958 . S
H398 C383 0.961 . S
H399 C383 0.960 . S
C400 C401 1.391 . S
C400 C402 1.394 . S
C400 H416 0.931 . S
C401 C400 1.391 . S
C401 C405 1.376 . S
C402 C400 1.394 . S
C402 C403 1.369 . S
C402 C406 1.531 . S
C403 C402 1.369 . S
C403 C404 1.410 . S
C403 C411 1.503 . S
C404 C403 1.410 . S
C404 C405 1.392 . S
C404 C407 1.511 . S
C405 C401 1.376 . S
C405 C404 1.392 . S
C405 H417 0.929 . S
C406 C402 1.531 . S
C406 H418 0.960 . S
C406 H419 0.962 . S
C406 H420 0.960 . S
C407 C404 1.511 . S
C407 H421 0.961 . S
C407 H422 0.961 1_554 S
C407 H423 0.961 1_554 S
C408 C409 1.370 . S
C408 C410 1.363 1_556 S
C408 H424 0.931 . S
C409 C408 1.370 . S
C409 C413 1.408 . S
C410 C408 1.363 1_554 S
C410 C411 1.370 . S
C410 C414 1.524 . S
C411 C403 1.503 . S
C411 C410 1.370 . S
C411 C412 1.408 . S
C412 C411 1.408 . S
C412 C413 1.396 1_554 S
C412 C415 1.541 . S
C413 C409 1.408 . S
C413 C412 1.396 1_556 S
C413 H425 0.930 . S
C414 C410 1.524 . S
C414 H426 0.956 . S
C414 H427 0.961 . S
C414 H428 0.961 . S
C415 C412 1.541 . S
C415 H429 0.958 . S
C415 H430 0.961 1_554 S
C415 H431 0.960 . S
H416 C400 0.931 . S
H417 C405 0.929 . S
H418 C406 0.960 . S
H419 C406 0.962 . S
H420 C406 0.960 . S
H421 C407 0.961 . S
H422 C407 0.961 1_556 S
H423 C407 0.961 1_556 S
H424 C408 0.931 . S
H425 C413 0.930 . S
H426 C414 0.956 . S
H427 C414 0.961 . S
H428 C414 0.961 . S
H429 C415 0.958 . S
H430 C415 0.961 1_556 S
H431 C415 0.960 . S
C432 C433 1.391 . S
C432 C434 1.394 . S
C432 H448 0.931 . S
C433 C432 1.391 . S
C433 C437 1.376 . S
C434 C432 1.394 . S
C434 C435 1.369 . S
C434 C438 1.531 . S
C435 C434 1.369 . S
C435 C436 1.410 . S
C435 C443 1.503 . S
C436 C435 1.410 . S
C436 C437 1.392 . S
C436 C439 1.511 . S
C437 C433 1.376 . S
C437 C436 1.392 . S
C437 H449 0.929 . S
C438 C434 1.531 . S
C438 H450 0.960 . S
C438 H451 0.962 . S
C438 H452 0.960 . S
C439 C436 1.511 . S
C439 H453 0.961 . S
C439 H454 0.961 . S
C439 H455 0.961 . S
C440 C441 1.370 . S
C440 C442 1.363 . S
C440 H456 0.931 . S
C441 C440 1.370 . S
C441 C445 1.408 . S
C442 C440 1.363 . S
C442 C443 1.370 . S
C442 C446 1.524 . S
C443 C435 1.503 . S
C443 C442 1.370 . S
C443 C444 1.403 . S
C444 C443 1.403 . S
C444 C445 1.404 . S
C444 C447 1.539 . S
C445 C441 1.408 . S
C445 C444 1.404 . S
C445 H457 0.930 . S
C446 C442 1.524 . S
C446 H458 0.956 . S
C446 H459 0.961 . S
C446 H460 0.961 . S
C447 C444 1.539 . S
C447 H461 0.958 . S
C447 H462 0.961 . S
C447 H463 0.960 . S
H448 C432 0.931 . S
H449 C437 0.929 . S
H450 C438 0.960 . S
H451 C438 0.962 . S
H452 C438 0.960 . S
H453 C439 0.961 . S
H454 C439 0.961 . S
H455 C439 0.961 . S
H456 C440 0.931 . S
H457 C445 0.930 . S
H458 C446 0.956 . S
H459 C446 0.961 . S
H460 C446 0.961 . S
H461 C447 0.958 . S
H462 C447 0.961 . S
H463 C447 0.960 . S
C464 C465 1.391 . S
C464 C466 1.394 . S
C464 H480 0.931 . S
C465 C464 1.391 . S
C465 C469 1.376 . S
C466 C464 1.394 . S
C466 C467 1.369 . S
C466 C470 1.531 . S
C467 C466 1.369 . S
C467 C468 1.410 . S
C467 C475 1.503 . S
C468 C467 1.410 . S
C468 C469 1.392 . S
C468 C471 1.511 . S
C469 C465 1.376 . S
C469 C468 1.392 . S
C469 H481 0.929 . S
C470 C466 1.531 . S
C470 H482 0.960 . S
C470 H483 0.962 . S
C470 H484 0.960 . S
C471 C468 1.511 . S
C471 H485 0.961 . S
C471 H486 0.961 . S
C471 H487 0.961 . S
C472 C473 1.370 . S
C472 C474 1.363 . S
C472 H488 0.931 . S
C473 C472 1.370 . S
C473 C477 1.408 . S
C474 C472 1.363 . S
C474 C475 1.370 . S
C474 C478 1.524 . S
C475 C467 1.503 . S
C475 C474 1.370 . S
C475 C476 1.403 . S
C476 C475 1.403 . S
C476 C477 1.404 . S
C476 C479 1.539 . S
C477 C473 1.408 . S
C477 C476 1.404 . S
C477 H489 0.930 . S
C478 C474 1.524 . S
C478 H490 0.956 . S
C478 H491 0.961 . S
C478 H492 0.961 . S
C479 C476 1.539 . S
C479 H493 0.958 . S
C479 H494 0.961 . S
C479 H495 0.960 . S
H480 C464 0.931 . S
H481 C469 0.929 . S
H482 C470 0.960 . S
H483 C470 0.962 . S
H484 C470 0.960 . S
H485 C471 0.961 . S
H486 C471 0.961 . S
H487 C471 0.961 . S
H488 C472 0.931 . S
H489 C477 0.930 . S
H490 C478 0.956 . S
H491 C478 0.961 . S
H492 C478 0.961 . S
H493 C479 0.958 . S
H494 C479 0.961 . S
H495 C479 0.960 . S
C496 C497 1.391 . S
C496 C498 1.394 . S
C496 H512 0.931 . S
C497 C496 1.391 . S
C497 C501 1.376 . S
C498 C496 1.394 . S
C498 C499 1.369 1_554 S
C498 C502 1.531 . S
C499 C498 1.369 1_556 S
C499 C500 1.410 . S
C499 C507 1.503 . S
C500 C499 1.410 . S
C500 C501 1.392 1_556 S
C500 C503 1.511 . S
C501 C497 1.376 . S
C501 C500 1.392 1_554 S
C501 H513 0.929 . S
C502 C498 1.531 . S
C502 H514 0.952 1_554 S
C502 H515 0.961 1_554 S
C502 H516 0.960 . S
C503 C500 1.511 . S
C503 H517 0.961 . S
C503 H518 0.961 . S
C503 H519 0.961 . S
C504 C505 1.370 . S
C504 C506 1.363 . S
C504 H520 0.931 . S
C505 C504 1.370 . S
C505 C509 1.408 . S
C506 C504 1.363 . S
C506 C507 1.370 . S
C506 C510 1.524 . S
C507 C499 1.503 . S
C507 C506 1.370 . S
C507 C508 1.403 . S
C508 C507 1.403 . S
C508 C509 1.404 . S
C508 C511 1.539 . S
C509 C505 1.408 . S
C509 C508 1.404 . S
C509 H521 0.930 1_565 S
C510 C506 1.524 . S
C510 H522 0.956 . S
C510 H523 0.961 . S
C510 H524 0.961 . S
C511 C508 1.539 . S
C511 H525 0.958 . S
C511 H526 0.966 . S
C511 H527 0.960 . S
H512 C496 0.931 . S
H513 C501 0.929 . S
H514 C502 0.952 1_556 S
H515 C502 0.961 1_556 S
H516 C502 0.960 . S
H517 C503 0.961 . S
H518 C503 0.961 . S
H519 C503 0.961 . S
H520 C504 0.931 . S
H521 C509 0.930 1_545 S
H522 C510 0.956 . S
H523 C510 0.961 . S
H524 C510 0.961 . S
H525 C511 0.958 . S
H526 C511 0.966 . S
H527 C511 0.960 . S
C528 C529 1.391 . S
C528 C530 1.394 . S
C528 H544 0.931 . S
C529 C528 1.391 . S
C529 C533 1.376 . S
C530 C528 1.394 . S
C530 C531 1.369 . S
C530 C534 1.531 . S
C531 C530 1.369 . S
C531 C532 1.410 . S
C531 C539 1.503 . S
C532 C531 1.410 . S
C532 C533 1.392 . S
C532 C535 1.511 . S
C533 C529 1.376 . S
C533 C532 1.392 . S
C533 H545 0.929 . S
C534 C530 1.531 . S
C534 H546 0.960 . S
C534 H547 0.962 . S
C534 H548 0.960 . S
C535 C532 1.511 . S
C535 H549 0.961 . S
C535 H550 0.961 . S
C535 H551 0.961 . S
C536 C537 1.370 . S
C536 C538 1.363 . S
C536 H552 0.931 . S
C537 C536 1.370 . S
C537 C541 1.408 . S
C538 C536 1.363 . S
C538 C539 1.370 . S
C538 C542 1.524 . S
C539 C531 1.503 . S
C539 C538 1.370 . S
C539 C540 1.403 . S
C540 C539 1.403 . S
C540 C541 1.404 . S
C540 C543 1.539 . S
C541 C537 1.408 . S
C541 C540 1.404 . S
C541 H553 0.930 . S
C542 C538 1.524 . S
C542 H554 0.956 . S
C542 H555 0.961 . S
C542 H556 0.961 . S
C543 C540 1.539 . S
C543 H557 0.958 . S
C543 H558 0.961 . S
C543 H559 0.960 . S
H544 C528 0.931 . S
H545 C533 0.929 . S
H546 C534 0.960 . S
H547 C534 0.962 . S
H548 C534 0.960 . S
H549 C535 0.961 . S
H550 C535 0.961 . S
H551 C535 0.961 . S
H552 C536 0.931 . S
H553 C541 0.930 . S
H554 C542 0.956 . S
H555 C542 0.961 . S
H556 C542 0.961 . S
H557 C543 0.958 . S
H558 C543 0.961 . S
H559 C543 0.960 . S
C560 C561 1.391 . S
C560 C562 1.394 . S
C560 H576 0.931 . S
C561 C560 1.391 . S
C561 C565 1.376 . S
C562 C560 1.394 . S
C562 C563 1.369 . S
C562 C566 1.531 . S
C563 C562 1.369 . S
C563 C564 1.410 . S
C563 C571 1.503 1_556 S
C564 C563 1.410 . S
C564 C565 1.392 . S
C564 C567 1.511 . S
C565 C561 1.376 . S
C565 C564 1.392 . S
C565 H577 0.929 . S
C566 C562 1.531 . S
C566 H578 0.960 1_556 S
C566 H579 0.962 . S
C566 H580 0.960 . S
C567 C564 1.511 . S
C567 H581 0.961 . S
C567 H582 0.961 1_556 S
C567 H583 0.961 1_556 S
C568 C569 1.370 . S
C568 C570 1.363 . S
C568 H584 0.931 . S
C569 C568 1.370 . S
C569 C573 1.408 . S
C570 C568 1.363 . S
C570 C571 1.370 . S
C570 C574 1.524 1_554 S
C571 C563 1.503 1_554 S
C571 C570 1.370 . S
C571 C572 1.403 . S
C572 C571 1.403 . S
C572 C573 1.404 . S
C572 C575 1.539 . S
C573 C569 1.408 . S
C573 C572 1.404 . S
C573 H585 0.930 . S
C574 C570 1.524 1_556 S
C574 H586 0.956 . S
C574 H587 0.961 . S
C574 H588 0.961 . S
C575 C572 1.539 . S
C575 H589 0.958 . S
C575 H590 0.961 . S
C575 H591 0.960 . S
H576 C560 0.931 . S
H577 C565 0.929 . S
H578 C566 0.960 1_554 S
H579 C566 0.962 . S
H580 C566 0.960 . S
H581 C567 0.961 . S
H582 C567 0.961 1_554 S
H583 C567 0.961 1_554 S
H584 C568 0.931 . S
H585 C573 0.930 . S
H586 C574 0.956 . S
H587 C574 0.961 . S
H588 C574 0.961 . S
H589 C575 0.958 . S
H590 C575 0.961 . S
H591 C575 0.960 . S
C592 C593 1.391 . S
C592 C594 1.394 . S
C592 H608 0.931 . S
C593 C592 1.391 . S
C593 C597 1.376 . S
C594 C592 1.394 . S
C594 C595 1.369 . S
C594 C598 1.531 . S
C595 C594 1.369 . S
C595 C596 1.410 . S
C595 C603 1.503 . S
C596 C595 1.410 . S
C596 C597 1.392 . S
C596 C599 1.511 . S
C597 C593 1.376 . S
C597 C596 1.392 . S
C597 H609 0.929 . S
C598 C594 1.531 . S
C598 H610 0.960 . S
C598 H611 0.962 . S
C598 H612 0.960 . S
C599 C596 1.511 . S
C599 H613 0.961 . S
C599 H614 0.961 . S
C599 H615 0.961 . S
C600 C601 1.370 . S
C600 C602 1.363 . S
C600 H616 0.931 . S
C601 C600 1.370 . S
C601 C605 1.408 . S
C602 C600 1.363 . S
C602 C603 1.370 . S
C602 C606 1.524 . S
C603 C595 1.503 . S
C603 C602 1.370 . S
C603 C604 1.403 . S
C604 C603 1.403 . S
C604 C605 1.404 . S
C604 C607 1.539 . S
C605 C601 1.408 . S
C605 C604 1.404 . S
C605 H617 0.930 . S
C606 C602 1.524 . S
C606 H618 0.956 . S
C606 H619 0.961 . S
C606 H620 0.961 . S
C607 C604 1.539 . S
C607 H621 0.958 . S
C607 H622 0.961 . S
C607 H623 0.960 . S
H608 C592 0.931 . S
H609 C597 0.929 . S
H610 C598 0.960 . S
H611 C598 0.962 . S
H612 C598 0.960 . S
H613 C599 0.961 . S
H614 C599 0.961 . S
H615 C599 0.961 . S
H616 C600 0.931 . S
H617 C605 0.930 . S
H618 C606 0.956 . S
H619 C606 0.961 . S
H620 C606 0.961 . S
H621 C607 0.958 . S
H622 C607 0.961 . S
H623 C607 0.960 . S
C624 C625 1.391 . S
C624 C626 1.394 . S
C624 H640 0.931 . S
C625 C624 1.391 . S
C625 C629 1.376 . S
C626 C624 1.394 . S
C626 C627 1.369 . S
C626 C630 1.531 . S
C627 C626 1.369 . S
C627 C628 1.410 . S
C627 C635 1.503 . S
C628 C627 1.410 . S
C628 C629 1.392 . S
C628 C631 1.511 . S
C629 C625 1.376 . S
C629 C628 1.392 . S
C629 H641 0.929 . S
C630 C626 1.531 . S
C630 H642 0.960 . S
C630 H643 0.962 . S
C630 H644 0.960 . S
C631 C628 1.511 . S
C631 H645 0.961 . S
C631 H646 0.961 . S
C631 H647 0.961 . S
C632 C633 1.370 . S
C632 C634 1.363 . S
C632 H648 0.931 . S
C633 C632 1.370 . S
C633 C637 1.408 . S
C634 C632 1.363 . S
C634 C635 1.370 . S
C634 C638 1.524 . S
C635 C627 1.503 . S
C635 C634 1.370 . S
C635 C636 1.403 . S
C636 C635 1.403 . S
C636 C637 1.404 . S
C636 C639 1.539 . S
C637 C633 1.408 . S
C637 C636 1.404 . S
C637 H649 0.930 . S
C638 C634 1.524 . S
C638 H650 0.956 . S
C638 H651 0.961 . S
C638 H652 0.961 . S
C639 C636 1.539 . S
C639 H653 0.958 . S
C639 H654 0.961 . S
C639 H655 0.960 . S
H640 C624 0.931 . S
H641 C629 0.929 . S
H642 C630 0.960 . S
H643 C630 0.962 . S
H644 C630 0.960 . S
H645 C631 0.961 . S
H646 C631 0.961 . S
H647 C631 0.961 . S
H648 C632 0.931 . S
H649 C637 0.930 . S
H650 C638 0.956 . S
H651 C638 0.961 . S
H652 C638 0.961 . S
H653 C639 0.958 . S
H654 C639 0.961 . S
H655 C639 0.960 . S
C656 C657 1.391 . S
C656 C658 1.394 . S
C656 H672 0.931 . S
C657 C656 1.391 . S
C657 C661 1.376 . S
C658 C656 1.394 . S
C658 C659 1.369 . S
C658 C662 1.531 . S
C659 C658 1.369 . S
C659 C660 1.410 . S
C659 C667 1.503 . S
C660 C659 1.410 . S
C660 C661 1.392 . S
C660 C663 1.511 . S
C661 C657 1.376 . S
C661 C660 1.392 . S
C661 H673 0.929 . S
C662 C658 1.531 . S
C662 H674 0.960 . S
C662 H675 0.962 . S
C662 H676 0.960 . S
C663 C660 1.511 . S
C663 H677 0.961 . S
C663 H678 0.961 . S
C663 H679 0.961 . S
C664 C665 1.370 . S
C664 C666 1.363 . S
C664 H680 0.931 . S
C665 C664 1.370 . S
C665 C669 1.408 . S
C666 C664 1.363 . S
C666 C667 1.370 . S
C666 C670 1.524 . S
C667 C659 1.503 . S
C667 C666 1.370 . S
C667 C668 1.403 . S
C668 C667 1.403 . S
C668 C669 1.404 . S
C668 C671 1.539 . S
C669 C665 1.408 . S
C669 C668 1.404 . S
C669 H681 0.930 . S
C670 C666 1.524 . S
C670 H682 0.956 . S
C670 H683 0.961 . S
C670 H684 0.961 . S
C671 C668 1.539 . S
C671 H685 0.958 . S
C671 H686 0.961 . S
C671 H687 0.960 . S
H672 C656 0.931 . S
H673 C661 0.929 . S
H674 C662 0.960 . S
H675 C662 0.962 . S
H676 C662 0.960 . S
H677 C663 0.961 . S
H678 C663 0.961 . S
H679 C663 0.961 . S
H680 C664 0.931 . S
H681 C669 0.930 . S
H682 C670 0.956 . S
H683 C670 0.961 . S
H684 C670 0.961 . S
H685 C671 0.958 . S
H686 C671 0.961 . S
H687 C671 0.960 . S
C688 C689 1.391 . S
C688 C690 1.394 . S
C688 H704 0.931 . S
C689 C688 1.391 . S
C689 C693 1.376 . S
C690 C688 1.394 . S
C690 C691 1.369 . S
C690 C694 1.531 1_545 S
C691 C690 1.369 . S
C691 C692 1.410 . S
C691 C699 1.503 1_545 S
C692 C691 1.410 . S
C692 C693 1.392 . S
C692 C695 1.511 . S
C693 C689 1.376 . S
C693 C692 1.392 . S
C693 H705 0.929 . S
C694 C690 1.531 1_565 S
C694 H706 0.960 . S
C694 H707 0.962 . S
C694 H708 0.960 . S
C695 C692 1.511 . S
C695 H709 0.961 . S
C695 H710 0.961 . S
C695 H711 0.961 . S
C696 C697 1.370 . S
C696 C698 1.363 . S
C696 H712 0.931 . S
C697 C696 1.370 . S
C697 C701 1.408 . S
C698 C696 1.363 . S
C698 C699 1.370 . S
C698 C702 1.524 . S
C699 C691 1.503 1_565 S
C699 C698 1.370 . S
C699 C700 1.403 . S
C700 C699 1.403 . S
C700 C701 1.404 . S
C700 C703 1.544 . S
C701 C697 1.408 . S
C701 C700 1.404 . S
C701 H713 0.930 . S
C702 C698 1.524 . S
C702 H714 0.956 . S
C702 H715 0.961 1_565 S
C702 H716 0.961 . S
C703 C700 1.544 . S
C703 H717 0.962 . S
C703 H718 0.961 1_565 S
C703 H719 0.951 1_565 S
H704 C688 0.931 . S
H705 C693 0.929 . S
H706 C694 0.960 . S
H707 C694 0.962 . S
H708 C694 0.960 . S
H709 C695 0.961 . S
H710 C695 0.961 . S
H711 C695 0.961 . S
H712 C696 0.931 . S
H713 C701 0.930 . S
H714 C702 0.956 . S
H715 C702 0.961 1_545 S
H716 C702 0.961 . S
H717 C703 0.962 . S
H718 C703 0.961 1_545 S
H719 C703 0.951 1_545 S
C720 C721 1.391 . S
C720 C722 1.394 . S
C720 H736 0.931 . S
C721 C720 1.391 . S
C721 C725 1.376 . S
C722 C720 1.394 . S
C722 C723 1.369 . S
C722 C726 1.531 . S
C723 C722 1.369 . S
C723 C724 1.410 . S
C723 C731 1.503 . S
C724 C723 1.410 . S
C724 C725 1.392 . S
C724 C727 1.511 . S
C725 C721 1.376 . S
C725 C724 1.392 . S
C725 H737 0.929 . S
C726 C722 1.531 . S
C726 H738 0.960 . S
C726 H739 0.962 . S
C726 H740 0.960 . S
C727 C724 1.511 . S
C727 H741 0.961 . S
C727 H742 0.961 . S
C727 H743 0.961 . S
C728 C729 1.370 . S
C728 C730 1.363 . S
C728 H744 0.931 . S
C729 C728 1.370 . S
C729 C733 1.408 . S
C730 C728 1.363 . S
C730 C731 1.370 . S
C730 C734 1.524 . S
C731 C723 1.503 . S
C731 C730 1.370 . S
C731 C732 1.403 . S
C732 C731 1.403 . S
C732 C733 1.404 . S
C732 C735 1.539 . S
C733 C729 1.408 . S
C733 C732 1.404 . S
C733 H745 0.930 . S
C734 C730 1.524 . S
C734 H746 0.956 . S
C734 H747 0.961 . S
C734 H748 0.961 . S
C735 C732 1.539 . S
C735 H749 0.958 . S
C735 H750 0.961 . S
C735 H751 0.960 . S
H736 C720 0.931 . S
H737 C725 0.929 . S
H738 C726 0.960 . S
H739 C726 0.962 . S
H740 C726 0.960 . S
H741 C727 0.961 . S
H742 C727 0.961 . S
H743 C727 0.961 . S
H744 C728 0.931 . S
H745 C733 0.930 . S
H746 C734 0.956 . S
H747 C734 0.961 . S
H748 C734 0.961 . S
H749 C735 0.958 . S
H750 C735 0.961 . S
H751 C735 0.960 . S
C752 C753 1.391 . S
C752 C754 1.394 . S
C752 H768 0.931 . S
C753 C752 1.391 . S
C753 C757 1.376 . S
C754 C752 1.394 . S
C754 C755 1.369 . S
C754 C758 1.531 . S
C755 C754 1.369 . S
C755 C756 1.410 . S
C755 C763 1.503 1_545 S
C756 C755 1.410 . S
C756 C757 1.392 . S
C756 C759 1.511 1_545 S
C757 C753 1.376 . S
C757 C756 1.392 . S
C757 H769 0.929 . S
C758 C754 1.531 . S
C758 H770 0.960 . S
C758 H771 0.962 . S
C758 H772 0.960 . S
C759 C756 1.511 1_565 S
C759 H773 0.961 . S
C759 H774 0.961 . S
C759 H775 0.961 . S
C760 C761 1.370 . S
C760 C762 1.363 . S
C760 H776 0.931 . S
C761 C760 1.370 . S
C761 C765 1.408 . S
C762 C760 1.363 . S
C762 C763 1.370 . S
C762 C766 1.524 . S
C763 C755 1.503 1_565 S
C763 C762 1.370 . S
C763 C764 1.403 . S
C764 C763 1.403 . S
C764 C765 1.404 . S
C764 C767 1.539 . S
C765 C761 1.408 . S
C765 C764 1.404 . S
C765 H777 0.930 . S
C766 C762 1.524 . S
C766 H778 0.956 1_565 S
C766 H779 0.961 . S
C766 H780 0.961 . S
C767 C764 1.539 . S
C767 H781 0.958 1_565 S
C767 H782 0.961 . S
C767 H783 0.960 . S
H768 C752 0.931 . S
H769 C757 0.929 . S
H770 C758 0.960 . S
H771 C758 0.962 . S
H772 C758 0.960 . S
H773 C759 0.961 . S
H774 C759 0.961 . S
H775 C759 0.961 . S
H776 C760 0.931 . S
H777 C765 0.930 . S
H778 C766 0.956 1_545 S
H779 C766 0.961 . S
H780 C766 0.961 . S
H781 C767 0.958 1_545 S
H782 C767 0.961 . S
H783 C767 0.960 . S
C784 C785 1.391 . S
C784 C786 1.394 . S
C784 H800 0.931 . S
C785 C784 1.391 . S
C785 C789 1.376 . S
C786 C784 1.394 . S
C786 C787 1.369 . S
C786 C790 1.531 . S
C787 C786 1.369 . S
C787 C788 1.410 . S
C787 C795 1.503 . S
C788 C787 1.410 . S
C788 C789 1.392 . S
C788 C791 1.511 . S
C789 C785 1.376 . S
C789 C788 1.392 . S
C789 H801 0.929 . S
C790 C786 1.531 . S
C790 H802 0.960 . S
C790 H803 0.962 . S
C790 H804 0.960 . S
C791 C788 1.511 . S
C791 H805 0.961 . S
C791 H806 0.961 . S
C791 H807 0.961 . S
C792 C793 1.370 . S
C792 C794 1.363 . S
C792 H808 0.931 . S
C793 C792 1.370 . S
C793 C797 1.408 . S
C794 C792 1.363 . S
C794 C795 1.370 . S
C794 C798 1.524 . S
C795 C787 1.503 . S
C795 C794 1.370 . S
C795 C796 1.403 . S
C796 C795 1.403 . S
C796 C797 1.404 . S
C796 C799 1.539 . S
C797 C793 1.408 . S
C797 C796 1.404 . S
C797 H809 0.930 . S
C798 C794 1.524 . S
C798 H810 0.956 . S
C798 H811 0.961 . S
C798 H812 0.961 . S
C799 C796 1.539 . S
C799 H813 0.958 . S
C799 H814 0.961 . S
C799 H815 0.960 . S
H800 C784 0.931 . S
H801 C789 0.929 . S
H802 C790 0.960 . S
H803 C790 0.962 . S
H804 C790 0.960 . S
H805 C791 0.961 . S
H806 C791 0.961 . S
H807 C791 0.961 . S
H808 C792 0.931 . S
H809 C797 0.930 . S
H810 C798 0.956 . S
H811 C798 0.961 . S
H812 C798 0.961 . S
H813 C799 0.958 . S
H814 C799 0.961 . S
H815 C799 0.960 . S
C816 C817 1.391 . S
C816 C818 1.394 . S
C816 H832 0.931 . S
C817 C816 1.391 . S
C817 C821 1.376 . S
C818 C816 1.394 . S
C818 C819 1.369 . S
C818 C822 1.531 . S
C819 C818 1.369 . S
C819 C820 1.410 . S
C819 C827 1.503 . S
C820 C819 1.410 . S
C820 C821 1.392 . S
C820 C823 1.511 . S
C821 C817 1.376 . S
C821 C820 1.392 . S
C821 H833 0.929 . S
C822 C818 1.531 . S
C822 H834 0.960 . S
C822 H835 0.962 . S
C822 H836 0.960 . S
C823 C820 1.511 . S
C823 H837 0.961 . S
C823 H838 0.961 . S
C823 H839 0.961 . S
C824 C825 1.370 . S
C824 C826 1.363 . S
C824 H840 0.931 . S
C825 C824 1.370 . S
C825 C829 1.408 . S
C826 C824 1.363 . S
C826 C827 1.370 . S
C826 C830 1.524 . S
C827 C819 1.503 . S
C827 C826 1.370 . S
C827 C828 1.403 . S
C828 C827 1.403 . S
C828 C829 1.404 . S
C828 C831 1.539 . S
C829 C825 1.408 . S
C829 C828 1.404 . S
C829 H841 0.930 . S
C830 C826 1.524 . S
C830 H842 0.956 . S
C830 H843 0.961 . S
C830 H844 0.961 . S
C831 C828 1.539 . S
C831 H845 0.958 . S
C831 H846 0.961 . S
C831 H847 0.960 . S
H832 C816 0.931 . S
H833 C821 0.929 . S
H834 C822 0.960 . S
H835 C822 0.962 . S
H836 C822 0.960 . S
H837 C823 0.961 . S
H838 C823 0.961 . S
H839 C823 0.961 . S
H840 C824 0.931 . S
H841 C829 0.930 . S
H842 C830 0.956 . S
H843 C830 0.961 . S
H844 C830 0.961 . S
H845 C831 0.958 . S
H846 C831 0.961 . S
H847 C831 0.960 . S
C848 C849 1.391 . S
C848 C850 1.394 . S
C848 H864 0.931 . S
C849 C848 1.391 . S
C849 C853 1.376 . S
C850 C848 1.394 . S
C850 C851 1.369 . S
C850 C854 1.531 . S
C851 C850 1.369 . S
C851 C852 1.410 . S
C851 C859 1.503 1_455 S
C852 C851 1.410 . S
C852 C853 1.392 . S
C852 C855 1.511 . S
C853 C849 1.376 . S
C853 C852 1.392 . S
C853 H865 0.929 . S
C854 C850 1.531 . S
C854 H866 0.960 . S
C854 H867 0.962 . S
C854 H868 0.960 . S
C855 C852 1.511 . S
C855 H869 0.961 . S
C855 H870 0.961 1_455 S
C855 H871 0.961 . S
C856 C857 1.370 . S
C856 C858 1.363 . S
C856 H872 0.931 . S
C857 C856 1.370 . S
C857 C861 1.408 . S
C858 C856 1.363 . S
C858 C859 1.370 . S
C858 C862 1.524 . S
C859 C851 1.503 1_655 S
C859 C858 1.370 . S
C859 C860 1.403 . S
C860 C859 1.403 . S
C860 C861 1.404 . S
C860 C863 1.539 1_655 S
C861 C857 1.408 . S
C861 C860 1.404 . S
C861 H873 0.930 . S
C862 C858 1.524 . S
C862 H874 0.956 . S
C862 H875 0.961 . S
C862 H876 0.961 . S
C863 C860 1.539 1_455 S
C863 H877 0.958 . S
C863 H878 0.961 . S
C863 H879 0.960 . S
H864 C848 0.931 . S
H865 C853 0.929 . S
H866 C854 0.960 . S
H867 C854 0.962 . S
H868 C854 0.960 . S
H869 C855 0.961 . S
H870 C855 0.961 1_655 S
H871 C855 0.961 . S
H872 C856 0.931 . S
H873 C861 0.930 . S
H874 C862 0.956 . S
H875 C862 0.961 . S
H876 C862 0.961 . S
H877 C863 0.958 . S
H878 C863 0.961 . S
H879 C863 0.960 . S
C880 C881 1.391 . S
C880 C882 1.394 . S
C880 H896 0.931 . S
C881 C880 1.391 . S
C881 C885 1.376 . S
C882 C880 1.394 . S
C882 C883 1.369 . S
C882 C886 1.531 . S
C883 C882 1.369 . S
C883 C884 1.410 . S
C883 C891 1.503 . S
C884 C883 1.410 . S
C884 C885 1.392 . S
C884 C887 1.511 . S
C885 C881 1.376 . S
C885 C884 1.392 . S
C885 H897 0.929 . S
C886 C882 1.531 . S
C886 H898 0.960 . S
C886 H899 0.962 . S
C886 H900 0.960 . S
C887 C884 1.511 . S
C887 H901 0.961 . S
C887 H902 0.961 . S
C887 H903 0.961 . S
C888 C889 1.370 . S
C888 C890 1.363 . S
C888 H904 0.931 . S
C889 C888 1.370 . S
C889 C893 1.408 . S
C890 C888 1.363 . S
C890 C891 1.370 . S
C890 C894 1.524 . S
C891 C883 1.503 . S
C891 C890 1.370 . S
C891 C892 1.403 . S
C892 C891 1.403 . S
C892 C893 1.404 . S
C892 C895 1.539 . S
C893 C889 1.408 . S
C893 C892 1.404 . S
C893 H905 0.930 . S
C894 C890 1.524 . S
C894 H906 0.956 . S
C894 H907 0.961 . S
C894 H908 0.961 . S
C895 C892 1.539 . S
C895 H909 0.958 . S
C895 H910 0.961 . S
C895 H911 0.960 . S
H896 C880 0.931 . S
H897 C885 0.929 . S
H898 C886 0.960 . S
H899 C886 0.962 . S
H900 C886 0.960 . S
H901 C887 0.961 . S
H902 C887 0.961 . S
H903 C887 0.961 . S
H904 C888 0.931 . S
H905 C893 0.930 . S
H906 C894 0.956 . S
H907 C894 0.961 . S
H908 C894 0.961 . S
H909 C895 0.958 . S
H910 C895 0.961 . S
H911 C895 0.960 . S
C912 C913 1.391 . S
C912 C914 1.394 . S
C912 H928 0.931 . S
C913 C912 1.391 . S
C913 C917 1.376 . S
C914 C912 1.394 . S
C914 C915 1.369 . S
C914 C918 1.531 . S
C915 C914 1.369 . S
C915 C916 1.410 . S
C915 C923 1.503 1_655 S
C916 C915 1.410 . S
C916 C917 1.392 . S
C916 C919 1.511 1_655 S
C917 C913 1.376 . S
C917 C916 1.392 . S
C917 H929 0.929 . S
C918 C914 1.531 . S
C918 H930 0.960 . S
C918 H931 0.962 . S
C918 H932 0.960 . S
C919 C916 1.511 1_455 S
C919 H933 0.961 . S
C919 H934 0.961 . S
C919 H935 0.961 . S
C920 C921 1.370 . S
C920 C922 1.363 . S
C920 H936 0.931 . S
C921 C920 1.370 . S
C921 C925 1.408 . S
C922 C920 1.363 . S
C922 C923 1.370 . S
C922 C926 1.524 . S
C923 C915 1.503 1_455 S
C923 C922 1.370 . S
C923 C924 1.403 . S
C924 C923 1.403 . S
C924 C925 1.404 . S
C924 C927 1.539 . S
C925 C921 1.408 . S
C925 C924 1.404 . S
C925 H937 0.930 . S
C926 C922 1.524 . S
C926 H938 0.956 1_455 S
C926 H939 0.961 . S
C926 H940 0.961 . S
C927 C924 1.539 . S
C927 H941 0.958 . S
C927 H942 0.961 . S
C927 H943 0.960 . S
H928 C912 0.931 . S
H929 C917 0.929 . S
H930 C918 0.960 . S
H931 C918 0.962 . S
H932 C918 0.960 . S
H933 C919 0.961 . S
H934 C919 0.961 . S
H935 C919 0.961 . S
H936 C920 0.931 . S
H937 C925 0.930 . S
H938 C926 0.956 1_655 S
H939 C926 0.961 . S
H940 C926 0.961 . S
H941 C927 0.958 . S
H942 C927 0.961 . S
H943 C927 0.960 . S
C177 C8 1.663 . S
C185 C158 1.669 . S
C209 C26 1.662 . S
C217 C92 1.669 . S
C241 C52 1.662 . S
C249 C118 1.667 . S
C273 C136 1.662 . S
C281 C74 1.668 . S
C305 C9 1.349 . S
C313 C30 1.465 . S
C337 C48 1.450 . S
C345 C27 1.399 . S
C369 C70 1.452 . S
C377 C53 1.372 . S
C401 C4 1.467 . S
C409 C75 1.371 . S
C433 C93 1.418 . S
C441 C162 1.458 . S
C465 C119 1.417 . S
C473 C96 1.461 . S
C497 C137 1.342 . S
C505 C114 1.464 . S
C529 C140 1.467 . S
C537 C159 1.385 . S
C561 C115 0.798 . S
C569 C5 0.759 . S
C593 C141 0.797 . S
C601 C31 0.789 . S
C625 C163 0.751 . S
C633 C49 0.790 . S
C657 C97 0.816 . S
C665 C71 0.773 . S
C689 C7 1.347 . S
C697 C139 1.426 . S
C721 C28 1.357 . S
C729 C161 1.420 . S
C753 C95 1.458 . S
C761 C51 1.408 . S
C785 C116 1.405 . S
C793 C73 1.378 . S
C817 C50 1.406 . S
C825 C94 1.378 . S
C849 C117 1.381 . S
C857 C72 1.447 . S
C881 C138 1.360 . S
C889 C6 1.420 . S
C913 C160 1.433 . S
C921 C29 1.440 . S
