# Generated by pormake.
# Topology smd, (6)-cn, num edge types: 1
# Building blocks:
#     Node 0, Type 0, BuildingBlock: CUKXOW_clean_sbu_0, # of connection points: 6
#     Node 1, Type 0, BuildingBlock: CUKXOW_clean_sbu_0, # of connection points: 6
#     Node 2, Type 0, BuildingBlock: CUKXOW_clean_sbu_0, # of connection points: 6
#     Node 3, Type 0, BuildingBlock: CUKXOW_clean_sbu_0, # of connection points: 6
#     Node 4, Type 0, BuildingBlock: CUKXOW_clean_sbu_0, # of connection points: 6
#     Node 5, Type 0, BuildingBlock: CUKXOW_clean_sbu_0, # of connection points: 6
#     Node 6, Type 0, BuildingBlock: CUKXOW_clean_sbu_0, # of connection points: 6
#     Node 7, Type 0, BuildingBlock: CUKXOW_clean_sbu_0, # of connection points: 6
#     Node 8, Type 0, BuildingBlock: CUKXOW_clean_sbu_0, # of connection points: 6
#     Node 9, Type 0, BuildingBlock: CUKXOW_clean_sbu_0, # of connection points: 6
#     Node 10, Type 0, BuildingBlock: CUKXOW_clean_sbu_0, # of connection points: 6
#     Node 11, Type 0, BuildingBlock: CUKXOW_clean_sbu_0, # of connection points: 6
#     Node 12, Type 0, BuildingBlock: CUKXOW_clean_sbu_0, # of connection points: 6
#     Node 13, Type 0, BuildingBlock: CUKXOW_clean_sbu_0, # of connection points: 6
#     Node 14, Type 0, BuildingBlock: CUKXOW_clean_sbu_0, # of connection points: 6
#     Node 15, Type 0, BuildingBlock: CUKXOW_clean_sbu_0, # of connection points: 6
#     Node 16, Type 0, BuildingBlock: CUKXOW_clean_sbu_0, # of connection points: 6
#     Node 17, Type 0, BuildingBlock: CUKXOW_clean_sbu_0, # of connection points: 6
#     Edge 18, Type (0, 0), BuildingBlock: XUDNAN_clean_linker_2, # of connection points: 2
#     Edge 19, Type (0, 0), BuildingBlock: XUDNAN_clean_linker_2, # of connection points: 2
#     Edge 20, Type (0, 0), BuildingBlock: XUDNAN_clean_linker_2, # of connection points: 2
#     Edge 21, Type (0, 0), BuildingBlock: XUDNAN_clean_linker_2, # of connection points: 2
#     Edge 22, Type (0, 0), BuildingBlock: XUDNAN_clean_linker_2, # of connection points: 2
#     Edge 23, Type (0, 0), BuildingBlock: XUDNAN_clean_linker_2, # of connection points: 2
#     Edge 24, Type (0, 0), BuildingBlock: XUDNAN_clean_linker_2, # of connection points: 2
#     Edge 25, Type (0, 0), BuildingBlock: XUDNAN_clean_linker_2, # of connection points: 2
#     Edge 26, Type (0, 0), BuildingBlock: XUDNAN_clean_linker_2, # of connection points: 2
#     Edge 27, Type (0, 0), BuildingBlock: XUDNAN_clean_linker_2, # of connection points: 2
#     Edge 28, Type (0, 0), BuildingBlock: XUDNAN_clean_linker_2, # of connection points: 2
#     Edge 29, Type (0, 0), BuildingBlock: XUDNAN_clean_linker_2, # of connection points: 2
#     Edge 30, Type (0, 0), BuildingBlock: XUDNAN_clean_linker_2, # of connection points: 2
#     Edge 31, Type (0, 0), BuildingBlock: XUDNAN_clean_linker_2, # of connection points: 2
#     Edge 32, Type (0, 0), BuildingBlock: XUDNAN_clean_linker_2, # of connection points: 2
#     Edge 33, Type (0, 0), BuildingBlock: XUDNAN_clean_linker_2, # of connection points: 2
#     Edge 34, Type (0, 0), BuildingBlock: XUDNAN_clean_linker_2, # of connection points: 2
#     Edge 35, Type (0, 0), BuildingBlock: XUDNAN_clean_linker_2, # of connection points: 2
#     Edge 36, Type (0, 0), BuildingBlock: XUDNAN_clean_linker_2, # of connection points: 2
#     Edge 37, Type (0, 0), BuildingBlock: XUDNAN_clean_linker_2, # of connection points: 2
#     Edge 38, Type (0, 0), BuildingBlock: XUDNAN_clean_linker_2, # of connection points: 2
#     Edge 39, Type (0, 0), BuildingBlock: XUDNAN_clean_linker_2, # of connection points: 2
#     Edge 40, Type (0, 0), BuildingBlock: XUDNAN_clean_linker_2, # of connection points: 2
#     Edge 41, Type (0, 0), BuildingBlock: XUDNAN_clean_linker_2, # of connection points: 2
#     Edge 42, Type (0, 0), BuildingBlock: XUDNAN_clean_linker_2, # of connection points: 2
#     Edge 43, Type (0, 0), BuildingBlock: XUDNAN_clean_linker_2, # of connection points: 2
#     Edge 44, Type (0, 0), BuildingBlock: XUDNAN_clean_linker_2, # of connection points: 2
#     Edge 45, Type (0, 0), BuildingBlock: XUDNAN_clean_linker_2, # of connection points: 2
#     Edge 46, Type (0, 0), BuildingBlock: XUDNAN_clean_linker_2, # of connection points: 2
#     Edge 47, Type (0, 0), BuildingBlock: XUDNAN_clean_linker_2, # of connection points: 2
#     Edge 48, Type (0, 0), BuildingBlock: XUDNAN_clean_linker_2, # of connection points: 2
#     Edge 49, Type (0, 0), BuildingBlock: XUDNAN_clean_linker_2, # of connection points: 2
#     Edge 50, Type (0, 0), BuildingBlock: XUDNAN_clean_linker_2, # of connection points: 2
#     Edge 51, Type (0, 0), BuildingBlock: XUDNAN_clean_linker_2, # of connection points: 2
#     Edge 52, Type (0, 0), BuildingBlock: XUDNAN_clean_linker_2, # of connection points: 2
#     Edge 53, Type (0, 0), BuildingBlock: XUDNAN_clean_linker_2, # of connection points: 2
#     Edge 54, Type (0, 0), BuildingBlock: XUDNAN_clean_linker_2, # of connection points: 2
#     Edge 55, Type (0, 0), BuildingBlock: XUDNAN_clean_linker_2, # of connection points: 2
#     Edge 56, Type (0, 0), BuildingBlock: XUDNAN_clean_linker_2, # of connection points: 2
#     Edge 57, Type (0, 0), BuildingBlock: XUDNAN_clean_linker_2, # of connection points: 2
#     Edge 58, Type (0, 0), BuildingBlock: XUDNAN_clean_linker_2, # of connection points: 2
#     Edge 59, Type (0, 0), BuildingBlock: XUDNAN_clean_linker_2, # of connection points: 2
#     Edge 60, Type (0, 0), BuildingBlock: XUDNAN_clean_linker_2, # of connection points: 2
#     Edge 61, Type (0, 0), BuildingBlock: XUDNAN_clean_linker_2, # of connection points: 2
#     Edge 62, Type (0, 0), BuildingBlock: XUDNAN_clean_linker_2, # of connection points: 2
#     Edge 63, Type (0, 0), BuildingBlock: XUDNAN_clean_linker_2, # of connection points: 2
#     Edge 64, Type (0, 0), BuildingBlock: XUDNAN_clean_linker_2, # of connection points: 2
#     Edge 65, Type (0, 0), BuildingBlock: XUDNAN_clean_linker_2, # of connection points: 2
#     Edge 66, Type (0, 0), BuildingBlock: XUDNAN_clean_linker_2, # of connection points: 2
#     Edge 67, Type (0, 0), BuildingBlock: XUDNAN_clean_linker_2, # of connection points: 2
#     Edge 68, Type (0, 0), BuildingBlock: XUDNAN_clean_linker_2, # of connection points: 2
#     Edge 69, Type (0, 0), BuildingBlock: XUDNAN_clean_linker_2, # of connection points: 2
#     Edge 70, Type (0, 0), BuildingBlock: XUDNAN_clean_linker_2, # of connection points: 2
#     Edge 71, Type (0, 0), BuildingBlock: XUDNAN_clean_linker_2, # of connection points: 2
# Relax obj value: 0.274
# Max RMSD: 0.299
# Mean RMSD: 0.277
data_MOF--net-smd--node1-CUKXOW_clean_sbu_0--edge1-XUDNAN_clean_linker_2
_symmetry_space_group_name_H-M    P1
_symmetry_Int_Tables_number       1
_symmetry_cell_setting            triclinic
loop_
_symmetry_equiv_pos_as_xyz
'x, y, z'
_cell_length_a     74.406093
_cell_length_b     78.457792
_cell_length_c     14.556518
_cell_angle_alpha  92.729353
_cell_angle_beta   92.769705
_cell_angle_gamma 119.95215
loop_
_atom_site_label
_atom_site_type_symbol
_atom_site_fract_x
_atom_site_fract_y
_atom_site_fract_z
_atom_type_partial_charge
Tb0 Tb 0.00409 0.22751 0.61966 0.0
C1 C 0.05199 0.23804 0.61306 0.0
Tb2 Tb 0.03956 0.27097 0.61393 0.0
O3 O 0.99074 0.22938 0.48725 0.0
O4 O 0.02283 0.24549 0.51548 0.0
O5 O 0.03247 0.22472 0.62934 0.0
C6 C 0.06004 0.30359 0.5267 0.0
O7 O 0.05768 0.25653 0.597 0.0
C8 C 0.03228 0.26151 0.78811 0.0
C9 C 0.99371 0.26212 0.64592 0.0
O10 O 0.06778 0.29957 0.59929 0.0
O11 O 0.04109 0.28945 0.50515 0.0
O12 O 0.04677 0.27874 0.76658 0.0
O13 O 0.02381 0.2515 0.71224 0.0
O14 O 0.01244 0.27465 0.62066 0.0
O15 O 0.98756 0.24327 0.65755 0.0
C16 C 0.97704 0.19006 0.65345 0.0
O17 O 0.98408 0.19594 0.57427 0.0
O18 O 0.98559 0.20524 0.71406 0.0
C19 C 0.0081 0.2419 0.45524 0.0
Tb20 Tb 0.81188 0.82272 0.5946 0.0
C21 C 0.84703 0.81175 0.60004 0.0
Tb22 Tb 0.79974 0.77978 0.57584 0.0
O23 O 0.82577 0.82517 0.73397 0.0
O24 O 0.79947 0.79909 0.68278 0.0
O25 O 0.84189 0.82483 0.57211 0.0
C26 C 0.7839 0.74091 0.59452 0.0
O27 O 0.83274 0.79407 0.62276 0.0
C28 C 0.812 0.79824 0.4229 0.0
C29 C 0.76404 0.78997 0.54479 0.0
O30 O 0.78816 0.74937 0.51792 0.0
O31 O 0.78878 0.75438 0.6616 0.0
O32 O 0.81541 0.7844 0.44848 0.0
O33 O 0.80142 0.80062 0.48214 0.0
O34 O 0.76876 0.77581 0.55039 0.0
O35 O 0.77836 0.80902 0.55659 0.0
C36 C 0.81383 0.85813 0.60383 0.0
O37 O 0.80503 0.84424 0.65876 0.0
O38 O 0.82207 0.85222 0.54167 0.0
C39 C 0.81265 0.80733 0.7516 0.0
Tb40 Tb 0.2224 0.03507 0.58069 0.0
C41 C 0.18882 0.98989 0.55869 0.0
Tb42 Tb 0.23684 0.00445 0.55472 0.0
O43 O 0.2072 0.02679 0.44205 0.0
O44 O 0.23346 0.02459 0.46864 0.0
O45 O 0.19353 0.00753 0.59745 0.0
C46 C 0.24984 0.98123 0.47739 0.0
O47 O 0.20305 0.98662 0.52273 0.0
C48 C 0.23389 0.01157 0.7334 0.0
C49 C 0.27117 0.04887 0.60589 0.0
O50 O 0.23405 0.97542 0.52695 0.0
O51 O 0.25811 1.00004 0.47061 0.0
O52 O 0.23993 0.99952 0.70326 0.0
O53 O 0.23034 0.01842 0.66295 0.0
O54 O 0.2672 0.03092 0.57759 0.0
O55 O 0.25624 0.05329 0.61722 0.0
C56 C 0.21685 0.0657 0.62497 0.0
O57 O 0.22812 0.06485 0.56165 0.0
O58 O 0.20853 0.04914 0.66401 0.0
C59 C 0.2193 0.0213 0.40617 0.0
Tb60 Tb 0.99498 0.78089 0.61497 0.0
C61 C 0.04145 0.79426 0.58326 0.0
Tb62 Tb 0.02842 0.82683 0.60243 0.0
O63 O 0.98938 0.77332 0.46138 0.0
O64 O 0.0085 0.80129 0.51642 0.0
O65 O 0.02454 0.78145 0.62133 0.0
C66 C 0.05715 0.86273 0.55557 0.0
O67 O 0.04456 0.81145 0.5572 0.0
C68 C 0.02411 0.81791 0.77929 0.0
C69 C 0.98047 0.81264 0.61333 0.0
O70 O 0.06032 0.84833 0.57307 0.0
O71 O 0.03746 0.85666 0.5615 0.0
O72 O 0.03644 0.83501 0.75071 0.0
O73 O 0.01482 0.80656 0.70676 0.0
O74 O 0.9985 0.82583 0.58247 0.0
O75 O 0.97713 0.79556 0.64357 0.0
C76 C 0.97177 0.74425 0.66953 0.0
O77 O 0.96474 0.75396 0.62454 0.0
O78 O 0.99178 0.75547 0.68619 0.0
C79 C 1.0017 0.79122 0.44019 0.0
Tb80 Tb 0.23057 0.26867 0.58484 0.0
C81 C 0.26772 0.26018 0.60253 0.0
Tb82 Tb 0.22026 0.22531 0.6012 0.0
O83 O 0.22277 0.27111 0.72809 0.0
O84 O 0.23286 0.25165 0.68981 0.0
O85 O 0.2613 0.27219 0.57378 0.0
C86 C 0.21658 0.19114 0.64955 0.0
O87 O 0.25456 0.24216 0.62695 0.0
C88 C 0.21938 0.23225 0.42289 0.0
C89 C 0.18369 0.23572 0.59548 0.0
O90 O 0.22965 0.20304 0.59543 0.0
O91 O 0.20547 0.19862 0.67872 0.0
O92 O 0.21512 0.21553 0.45347 0.0
O93 O 0.22283 0.24368 0.49419 0.0
O94 O 0.18969 0.22295 0.61961 0.0
O95 O 0.19685 0.25339 0.56894 0.0
C96 C 0.24045 0.30229 0.50977 0.0
O97 O 0.22666 0.28473 0.47485 0.0
O98 O 0.24855 0.30103 0.5886 0.0
C99 C 0.22547 0.25685 0.75484 0.0
Tb100 Tb 0.8011 0.05172 0.63757 0.0
C101 C 0.76593 0.00884 0.57023 0.0
Tb102 Tb 0.81309 0.01912 0.61721 0.0
O103 O 0.80051 0.05762 0.49006 0.0
O104 O 0.80793 0.03726 0.53214 0.0
O105 O 0.77028 0.02636 0.60731 0.0
C106 C 0.81247 0.9844 0.60819 0.0
O107 O 0.78036 0.00374 0.56014 0.0
C108 C 0.81505 0.03339 0.78965 0.0
C109 C 0.84838 0.06309 0.64562 0.0
O110 O 0.80227 0.98972 0.66074 0.0
O111 O 0.82334 0.99889 0.55726 0.0
O112 O 0.82747 0.02797 0.7572 0.0
O113 O 0.80157 0.03036 0.72439 0.0
O114 O 0.84326 0.04561 0.60307 0.0
O115 O 0.83439 0.06688 0.68023 0.0
C116 C 0.78982 0.07741 0.70207 0.0
O117 O 0.80674 0.08192 0.66262 0.0
O118 O 0.77952 0.05845 0.70746 0.0
C119 C 0.80564 0.04482 0.46154 0.0
Tb120 Tb 0.68626 0.55233 0.66486 0.0
C121 C 0.63728 0.52135 0.66567 0.0
Tb122 Tb 0.65385 0.56756 0.68929 0.0
O123 O 0.69627 0.55534 0.81302 0.0
O124 O 0.67402 0.56174 0.77205 0.0
O125 O 0.65591 0.52461 0.64288 0.0
C126 C 0.63096 0.57929 0.77843 0.0
O127 O 0.63358 0.53577 0.69137 0.0
C128 C 0.65864 0.56149 0.51105 0.0
C129 C 0.7017 0.59834 0.67517 0.0
O130 O 0.63132 0.56316 0.78964 0.0
O131 O 0.64321 0.58868 0.71541 0.0
O132 O 0.64619 0.56755 0.53868 0.0
O133 O 0.6662 0.55848 0.58399 0.0
O134 O 0.68399 0.59504 0.70869 0.0
O135 O 0.7052 0.5839 0.64728 0.0
C136 C 0.71269 0.5409 0.6077 0.0
O137 O 0.7089 0.55353 0.56952 0.0
O138 O 0.70113 0.53434 0.67604 0.0
C139 C 0.68371 0.56081 0.84368 0.0
Tb140 Tb 0.4713 0.16454 0.72565 0.0
C141 C 0.50799 0.15451 0.72844 0.0
Tb142 Tb 0.46152 0.12159 0.74004 0.0
O143 O 0.46173 0.16513 0.86743 0.0
O144 O 0.47392 0.14762 0.83001 0.0
O145 O 0.50147 0.16665 0.70053 0.0
C146 C 0.45356 0.08878 0.81864 0.0
O147 O 0.4952 0.13729 0.76004 0.0
C148 C 0.46143 0.12836 0.56236 0.0
C149 C 0.42424 0.12985 0.71065 0.0
O150 O 0.46573 0.09609 0.75271 0.0
O151 O 0.44571 0.09985 0.83973 0.0
O152 O 0.45788 0.11178 0.59351 0.0
O153 O 0.46437 0.14004 0.63228 0.0
O154 O 0.43053 0.11783 0.74039 0.0
O155 O 0.43744 0.14827 0.69203 0.0
C156 C 0.48285 0.2017 0.68823 0.0
O157 O 0.46687 0.18584 0.64832 0.0
O158 O 0.49247 0.19656 0.74768 0.0
C159 C 0.46565 0.15172 0.89444 0.0
Tb160 Tb 0.89228 0.35568 0.74406 0.0
C161 C 0.9066 0.40165 0.75114 0.0
Tb162 Tb 0.93859 0.38704 0.78761 0.0
O163 O 0.89171 0.34576 0.88456 0.0
O164 O 0.91146 0.37462 0.86026 0.0
O165 O 0.89252 0.3833 0.71707 0.0
C166 C 0.97328 0.40813 0.89876 0.0
O167 O 0.92491 0.40602 0.79241 0.0
C168 C 0.93059 0.38058 0.60572 0.0
C169 C 0.92589 0.34209 0.74208 0.0
O170 O 0.96875 0.414 0.8235 0.0
O171 O 0.95845 0.39045 0.91034 0.0
O172 O 0.94863 0.39313 0.64836 0.0
O173 O 0.91816 0.3722 0.66712 0.0
O174 O 0.94014 0.35982 0.78027 0.0
O175 O 0.90666 0.33773 0.71462 0.0
C176 C 0.85198 0.3311 0.6882 0.0
O177 O 0.8675 0.32959 0.66062 0.0
O178 O 0.85925 0.34676 0.74501 0.0
C179 C 0.90664 0.36259 0.92136 0.0
Tb180 Tb 0.65929 0.12872 0.77902 0.0
C181 C 0.70716 0.14273 0.77495 0.0
Tb182 Tb 0.69231 0.17428 0.76242 0.0
O183 O 0.65236 0.12037 0.62578 0.0
O184 O 0.67299 0.14837 0.67845 0.0
O185 O 0.68896 0.12976 0.80385 0.0
C186 C 0.71939 0.20927 0.70343 0.0
O187 O 0.71105 0.16005 0.74644 0.0
C188 C 0.68745 0.16631 0.9403 0.0
C189 C 0.64332 0.1589 0.74936 0.0
O190 O 0.72102 0.19353 0.69801 0.0
O191 O 0.70223 0.20513 0.74018 0.0
O192 O 0.69968 0.18341 0.91083 0.0
O193 O 0.67887 0.15473 0.86787 0.0
O194 O 0.6622 0.17261 0.72823 0.0
O195 O 0.6393 0.14163 0.77888 0.0
C196 C 0.63568 0.09597 0.86146 0.0
O197 O 0.6357 0.11248 0.87385 0.0
O198 O 0.64859 0.09772 0.80052 0.0
C199 C 0.66526 0.13809 0.60292 0.0
Tb200 Tb 0.93158 0.5719 0.78766 0.0
C201 C 0.9161 0.60259 0.75272 0.0
Tb202 Tb 0.88415 0.55576 0.74231 0.0
O203 O 0.93511 0.56182 0.65281 0.0
O204 O 0.9118 0.56919 0.66679 0.0
O205 O 0.93199 0.59985 0.77499 0.0
C206 C 0.84568 0.54504 0.67182 0.0
O207 O 0.89666 0.58763 0.7342 0.0
C208 C 0.89432 0.55767 0.92465 0.0
C209 C 0.90093 0.52565 0.76064 0.0
O210 O 0.85402 0.55373 0.75292 0.0
O211 O 0.85906 0.54222 0.62878 0.0
O212 O 0.87562 0.55174 0.88936 0.0
O213 O 0.90491 0.56169 0.85606 0.0
O214 O 0.88601 0.52868 0.72413 0.0
O215 O 0.91891 0.54027 0.80132 0.0
C216 C 0.96696 0.59007 0.89756 0.0
O217 O 0.96551 0.58405 0.81114 0.0
O218 O 0.94869 0.5858 0.92057 0.0
C219 C 0.91923 0.56177 0.61013 0.0
Tb220 Tb 0.45718 0.38342 0.73734 0.0
C221 C 0.42147 0.3385 0.69043 0.0
Tb222 Tb 0.4692 0.35128 0.70521 0.0
O223 O 0.45272 0.38922 0.59486 0.0
O224 O 0.46046 0.36787 0.62199 0.0
O225 O 0.42657 0.3565 0.72447 0.0
C226 C 0.48277 0.32608 0.66413 0.0
O227 O 0.4356 0.33361 0.66962 0.0
C228 C 0.46364 0.35905 0.87895 0.0
C229 C 0.5038 0.39703 0.70541 0.0
O230 O 0.46604 0.32509 0.62651 0.0
O231 O 0.49212 0.34163 0.72223 0.0
O232 O 0.45989 0.34195 0.8449 0.0
O233 O 0.47145 0.37085 0.81742 0.0
O234 O 0.49784 0.37839 0.67632 0.0
O235 O 0.49098 0.40198 0.74368 0.0
C236 C 0.44555 0.40377 0.8472 0.0
O237 O 0.45578 0.4103 0.77459 0.0
O238 O 0.44176 0.38594 0.85613 0.0
C239 C 0.45689 0.37631 0.55682 0.0
Tb240 Tb 0.35166 0.89488 0.25892 0.0
C241 C 0.39925 0.9095 0.26879 0.0
Tb242 Tb 0.38192 0.93906 0.24977 0.0
O243 O 0.35665 0.88938 0.114 0.0
O244 O 0.35891 0.91574 0.15811 0.0
O245 O 0.38086 0.89564 0.29174 0.0
C246 C 0.4051 0.97168 0.16555 0.0
O247 O 0.40235 0.92652 0.24012 0.0
C248 C 0.37968 0.93164 0.42636 0.0
C249 C 0.33573 0.92525 0.28609 0.0
O250 O 0.4043 0.95489 0.14976 0.0
O251 O 0.39305 0.97023 0.23008 0.0
O252 O 0.39127 0.9489 0.39614 0.0
O253 O 0.37054 0.91943 0.356 0.0
O254 O 0.35245 0.93877 0.2492 0.0
O255 O 0.33359 0.90805 0.30663 0.0
C256 C 0.32099 0.85875 0.28681 0.0
O257 O 0.31897 0.87166 0.24211 0.0
O258 O 0.34039 0.86616 0.31653 0.0
C259 C 0.36145 0.90677 0.09039 0.0
Tb260 Tb 0.1627 0.5092 0.1648 0.0
C261 C 0.19771 0.49688 0.18349 0.0
Tb262 Tb 0.15064 0.46428 0.18389 0.0
O263 O 0.16326 0.5175 0.31121 0.0
O264 O 0.15612 0.48939 0.27065 0.0
O265 O 0.1922 0.50953 0.15239 0.0
C266 C 0.13545 0.42772 0.23488 0.0
O267 O 0.18422 0.47913 0.20921 0.0
C268 C 0.15525 0.47459 1.00845 0.0
C269 C 0.11581 0.47625 0.16647 0.0
O270 O 0.12892 0.43283 0.16297 0.0
O271 O 0.15103 0.44337 0.27931 0.0
O272 O 0.15063 0.4572 0.03218 0.0
O273 O 0.15711 0.48423 0.08314 0.0
O274 O 0.12178 0.46435 0.20119 0.0
O275 O 0.12893 0.49372 0.13776 0.0
C276 C 0.17173 0.54391 0.10335 0.0
O277 O 0.15672 0.52684 0.06826 0.0
O278 O 0.18175 0.54134 0.17169 0.0
C279 C 0.15896 0.50072 0.34188 0.0
Tb280 Tb 0.57002 0.71704 0.2754 0.0
C281 C 0.53494 0.67286 0.21975 0.0
Tb282 Tb 0.58265 0.68536 0.23852 0.0
O283 O 0.56991 0.72592 0.13478 0.0
O284 O 0.57795 0.70517 0.1601 0.0
O285 O 0.53923 0.69019 0.26059 0.0
C286 C 0.58952 0.65828 0.15674 0.0
O287 O 0.54959 0.66893 0.19623 0.0
C288 C 0.58079 0.69407 0.41605 0.0
C289 C 0.61741 0.72778 0.30465 0.0
O290 O 0.57878 0.65576 0.22773 0.0
O291 O 0.59658 0.67609 0.13266 0.0
O292 O 0.59209 0.68684 0.38711 0.0
O293 O 0.5698 0.69399 0.34682 0.0
O294 O 0.61303 0.71156 0.25365 0.0
O295 O 0.60277 0.73155 0.33054 0.0
C296 C 0.5623 0.74427 0.35181 0.0
O297 O 0.58054 0.74647 0.34194 0.0
O298 O 0.54826 0.72646 0.32044 0.0
C299 C 0.57529 0.71416 0.09548 0.0
Tb300 Tb 0.34087 0.46608 0.19736 0.0
C301 C 0.38583 0.47349 0.16413 0.0
Tb302 Tb 0.37707 0.50895 0.19433 0.0
O303 O 0.32717 0.46797 0.06612 0.0
O304 O 0.35938 0.48427 0.09206 0.0
O305 O 0.367 0.46109 0.18881 0.0
C306 C 0.40594 0.54499 0.15505 0.0
O307 O 0.39229 0.49232 0.15172 0.0
C308 C 0.3695 0.49863 0.36846 0.0
C309 C 0.33104 0.50003 0.21398 0.0
O310 O 0.40954 0.53188 0.18888 0.0
O311 O 0.38595 0.53766 0.14124 0.0
O312 O 0.38426 0.51561 0.34811 0.0
O313 O 0.36113 0.48933 0.29172 0.0
O314 O 0.3491 0.51173 0.17971 0.0
O315 O 0.32628 0.48255 0.24204 0.0
C316 C 0.31508 0.42967 0.24445 0.0
O317 O 0.31564 0.43561 0.16246 0.0
O318 O 0.32909 0.44419 0.29981 0.0
C319 C 0.34438 0.4807 0.03348 0.0
Tb320 Tb 0.58146 0.94819 0.30292 0.0
C321 C 0.61705 0.93883 0.35596 0.0
Tb322 Tb 0.56979 0.90347 0.32093 0.0
O323 O 0.58292 0.95711 0.44884 0.0
O324 O 0.57588 0.92868 0.40955 0.0
O325 O 0.61235 0.95171 0.32216 0.0
C326 C 0.56292 0.86874 0.37509 0.0
O327 O 0.60287 0.92035 0.36961 0.0
C328 C 0.5722 0.91326 0.14461 0.0
C329 C 0.53428 0.91415 0.29702 0.0
O330 O 0.5803 0.88258 0.3489 0.0
O331 O 0.5493 0.87453 0.37192 0.0
O332 O 0.56764 0.89588 0.168 0.0
O333 O 0.57506 0.92305 0.21989 0.0
O334 O 0.53976 0.90181 0.33146 0.0
O335 O 0.5479 0.93141 0.26759 0.0
C336 C 0.59008 0.98116 0.22392 0.0
O337 O 0.57633 0.97295 0.28322 0.0
O338 O 0.59917 0.9709 0.20964 0.0
C339 C 0.57821 0.94017 0.47961 0.0
Tb340 Tb 0.14073 0.72103 0.25592 0.0
C341 C 0.10621 0.67618 0.20453 0.0
Tb342 Tb 0.15398 0.68935 0.22254 0.0
O343 O 0.15326 0.73434 0.1299 0.0
O344 O 0.14231 0.70422 0.13725 0.0
O345 O 0.11065 0.69374 0.2422 0.0
C346 C 0.16378 0.66319 0.15436 0.0
O347 O 0.12063 0.67182 0.18229 0.0
C348 C 0.15129 0.69653 0.40327 0.0
C349 C 0.18845 0.73439 0.26747 0.0
O350 O 0.15382 0.66157 0.22693 0.0
O351 O 0.16833 0.67964 0.11881 0.0
O352 O 0.15635 0.68389 0.37189 0.0
O353 O 0.14817 0.70348 0.33217 0.0
O354 O 0.1841 0.7167 0.23139 0.0
O355 O 0.17405 0.73864 0.29173 0.0
C356 C 0.12624 0.74202 0.34145 0.0
O357 O 0.12315 0.7368 0.25332 0.0
O358 O 0.13754 0.73562 0.37985 0.0
C359 C 0.15164 0.71859 0.08703 0.0
H360 H 0.14009 0.41398 0.40201 0.0
H361 H 0.1068 0.39553 0.12972 0.0
H362 H 0.08569 0.3618 0.17465 0.0
H363 H 0.13963 0.36681 0.43436 0.0
H364 H 0.13572 0.36755 0.55541 0.0
H365 H 0.14978 0.39022 0.50066 0.0
H366 H 0.12438 0.40129 0.55611 0.0
H367 H 0.11013 0.37862 0.6104 0.0
H368 H 0.09681 0.38556 0.52667 0.0
H369 H 0.06542 0.33183 0.25032 0.0
H370 H 0.04863 0.30486 0.35101 0.0
H371 H 0.09538 0.34025 0.57508 0.0
C372 C 0.12867 0.40267 0.3516 0.0
C373 C 0.12508 0.40732 0.26228 0.0
C374 C 0.1098 0.39229 0.19844 0.0
C375 C 0.09771 0.37306 0.22321 0.0
C376 C 0.10116 0.36898 0.31204 0.0
C377 C 0.11639 0.38315 0.37525 0.0
C378 C 0.11604 0.3746 0.46727 0.0
C379 C 0.13651 0.3748 0.49079 0.0
C380 C 0.11158 0.38568 0.54466 0.0
C381 C 0.09795 0.35361 0.44582 0.0
C382 C 0.08967 0.35092 0.35571 0.0
C383 C 0.072 0.33354 0.32037 0.0
C384 C 0.06255 0.31832 0.37825 0.0
C385 C 0.07095 0.32035 0.46997 0.0
C386 C 0.08895 0.33821 0.50444 0.0
H387 H 0.73314 0.75453 0.46218 0.0
H388 H 0.74573 0.81276 0.5625 0.0
H389 H 0.7096 0.8035 0.51081 0.0
H390 H 0.70186 0.75003 0.25826 0.0
H391 H 0.68428 0.72396 0.26296 0.0
H392 H 0.71083 0.73498 0.31092 0.0
H393 H 0.69811 0.72152 0.4686 0.0
H394 H 0.67152 0.71034 0.42095 0.0
H395 H 0.68028 0.7272 0.52323 0.0
H396 H 0.67152 0.78734 0.44978 0.0
H397 H 0.63532 0.76605 0.38091 0.0
H398 H 0.64885 0.7193 0.3149 0.0
C399 C 0.72829 0.76531 0.47418 0.0
C400 C 0.74223 0.78432 0.51708 0.0
C401 C 0.73531 0.79808 0.52994 0.0
C402 C 0.71482 0.79295 0.50085 0.0
C403 C 0.70152 0.7741 0.45818 0.0
C404 C 0.70804 0.76054 0.44458 0.0
C405 C 0.69096 0.74143 0.39504 0.0
C406 C 0.69737 0.73737 0.30123 0.0
C407 C 0.68486 0.7241 0.45559 0.0
C408 C 0.67375 0.74629 0.3831 0.0
C409 C 0.68003 0.76514 0.42039 0.0
C410 C 0.66649 0.77261 0.4198 0.0
C411 C 0.64597 0.76042 0.38054 0.0
C412 C 0.63929 0.7411 0.34156 0.0
C413 C 0.65351 0.7341 0.34264 0.0
H414 H 0.28596 0.99326 0.3934 0.0
H415 H 0.23301 0.94151 0.48449 0.0
H416 H 0.24831 0.92116 0.43637 0.0
H417 H 0.29405 0.96824 0.19305 0.0
H418 H 0.32201 0.98305 0.21059 0.0
H419 H 0.30608 0.99316 0.24532 0.0
H420 H 0.32402 1.00137 0.4113 0.0
H421 H 0.33992 0.99122 0.37718 0.0
H422 H 0.32411 0.98199 0.47277 0.0
H423 H 0.27034 0.90695 0.38784 0.0
H424 H 0.29739 0.89965 0.34195 0.0
H425 H 0.33638 0.96072 0.28268 0.0
C426 C 0.27745 0.97758 0.40181 0.0
C427 C 0.25825 0.96888 0.44215 0.0
C428 C 0.24769 0.9484 0.45332 0.0
C429 C 0.25626 0.93675 0.42615 0.0
C430 C 0.27538 0.94581 0.38784 0.0
C431 C 0.28584 0.96575 0.37535 0.0
C432 C 0.30663 0.972 0.33669 0.0
C433 C 0.30722 0.97956 0.2407 0.0
C434 C 0.32473 0.98756 0.40348 0.0
C435 C 0.30638 0.95254 0.33078 0.0
C436 C 0.28815 0.93761 0.3601 0.0
C437 C 0.28461 0.91849 0.36405 0.0
C438 C 0.30013 0.91451 0.33798 0.0
C439 C 0.31905 0.92958 0.30836 0.0
C440 C 0.32205 0.94881 0.30408 0.0
H441 H 0.30518 0.04418 0.6321 0.0
H442 H 0.28767 0.08923 0.62334 0.0
H443 H 0.32486 0.11514 0.64895 0.0
H444 H 0.3468 0.06962 0.8129 0.0
H445 H 0.36288 0.06103 0.76336 0.0
H446 H 0.33497 0.0463 0.74438 0.0
H447 H 0.33777 0.04584 0.56761 0.0
H448 H 0.36568 0.06062 0.58603 0.0
H449 H 0.35143 0.06887 0.51519 0.0
H450 H 0.36486 0.13628 0.66923 0.0
H451 H 0.40307 0.15027 0.69244 0.0
H452 H 0.39346 0.091 0.69365 0.0
C453 C 0.30909 0.05949 0.63559 0.0
C454 C 0.29341 0.06462 0.62522 0.0
C455 C 0.29933 0.08487 0.63122 0.0
C456 C 0.32045 0.09971 0.64548 0.0
C457 C 0.33551 0.09409 0.65463 0.0
C458 C 0.33 0.07442 0.65079 0.0
C459 C 0.34899 0.07214 0.66388 0.0
C460 C 0.34837 0.06166 0.75134 0.0
C461 C 0.35108 0.06123 0.57807 0.0
C462 C 0.36612 0.09359 0.67504 0.0
C463 C 0.35814 0.10609 0.66895 0.0
C464 C 0.37121 0.12658 0.6748 0.0
C465 C 0.39291 0.13441 0.68774 0.0
C466 C 0.40135 0.12181 0.6957 0.0
C467 C 0.38762 0.10113 0.68907 0.0
H468 H 0.96533 0.34725 0.73776 0.0
H469 H 0.90011 0.30184 0.7136 0.0
H470 H 0.91005 0.27625 0.69075 0.0
H471 H 0.98057 0.32461 0.56107 0.0
H472 H 0.00565 0.33231 0.61978 0.0
H473 H 0.99335 0.34683 0.63789 0.0
H474 H 0.99619 0.34421 0.81416 0.0
H475 H 0.00849 0.32966 0.79654 0.0
H476 H 0.98535 0.32021 0.8579 0.0
H477 H 0.92765 0.25528 0.67312 0.0
H478 H 0.95093 0.24152 0.65126 0.0
H479 H 0.00426 0.3009 0.6792 0.0
C480 C 0.9531 0.33192 0.72828 0.0
C481 C 0.93189 0.32662 0.72825 0.0
C482 C 0.91645 0.30635 0.71405 0.0
C483 C 0.92197 0.29167 0.70125 0.0
C484 C 0.94302 0.29741 0.70168 0.0
C485 C 0.95832 0.31711 0.714 0.0
C486 C 0.97977 0.31951 0.70806 0.0
C487 C 0.99046 0.33152 0.62687 0.0
C488 C 0.99324 0.32895 0.79962 0.0
C489 C 0.97421 0.29813 0.69075 0.0
C490 C 0.95296 0.28554 0.68818 0.0
C491 C 0.9443 0.26507 0.67458 0.0
C492 C 0.95766 0.25735 0.66247 0.0
C493 C 0.97946 0.27004 0.66275 0.0
C494 C 0.98768 0.29071 0.67757 0.0
H495 H 0.75565 0.71701 0.71339 0.0
H496 H 0.79175 0.71627 0.4899 0.0
H497 H 0.77659 0.68025 0.49511 0.0
H498 H 0.75626 0.6779 0.83964 0.0
H499 H 0.72954 0.66721 0.86638 0.0
H500 H 0.7447 0.69324 0.85206 0.0
H501 H 0.71693 0.68979 0.72665 0.0
H502 H 0.70169 0.66379 0.74075 0.0
H503 H 0.70948 0.67207 0.62841 0.0
H504 H 0.75747 0.64437 0.52316 0.0
H505 H 0.73295 0.61048 0.55972 0.0
H506 H 0.70647 0.6333 0.75632 0.0
C507 C 0.76057 0.70924 0.66679 0.0
C508 C 0.77517 0.71944 0.60221 0.0
C509 C 0.78075 0.70875 0.54031 0.0
C510 C 0.77226 0.6883 0.54299 0.0
C511 C 0.75781 0.67859 0.60679 0.0
C512 C 0.75174 0.68862 0.66676 0.0
C513 C 0.73457 0.67427 0.72284 0.0
C514 C 0.7417 0.67841 0.82638 0.0
C515 C 0.71448 0.67503 0.70347 0.0
C516 C 0.73198 0.65469 0.68497 0.0
C517 C 0.74583 0.65762 0.61925 0.0
C518 C 0.74655 0.6419 0.57448 0.0
C519 C 0.73258 0.62265 0.59616 0.0
C520 C 0.71773 0.61909 0.66113 0.0
C521 C 0.7176 0.63545 0.70642 0.0
H522 H 0.9862 0.72029 0.73192 0.0
H523 H 0.92957 0.72011 0.64455 0.0
H524 H 0.9091 0.68426 0.66219 0.0
H525 H 0.97252 0.67423 0.61276 0.0
H526 H 0.98429 0.66671 0.70114 0.0
H527 H 0.99433 0.69255 0.68812 0.0
H528 H 0.98919 0.6981 0.85938 0.0
H529 H 0.9792 0.67227 0.87302 0.0
H530 H 0.96391 0.68348 0.9014 0.0
H531 H 0.89491 0.64801 0.68287 0.0
H532 H 0.88802 0.61436 0.70469 0.0
H533 H 0.95395 0.63768 0.77671 0.0
C534 C 0.96945 0.71274 0.71792 0.0
C535 C 0.95944 0.72305 0.68756 0.0
C536 C 0.93755 0.71257 0.66843 0.0
C537 C 0.9258 0.69218 0.6782 0.0
C538 C 0.93614 0.68239 0.707 0.0
C539 C 0.95748 0.69232 0.72677 0.0
C540 C 0.96485 0.67813 0.75294 0.0
C541 C 0.97989 0.6779 0.68466 0.0
C542 C 0.97488 0.68331 0.85262 0.0
C543 C 0.94436 0.65866 0.74409 0.0
C544 C 0.92799 0.66148 0.71793 0.0
C545 C 0.90762 0.64568 0.70377 0.0
C546 C 0.90387 0.62654 0.71634 0.0
C547 C 0.92037 0.62317 0.74264 0.0
C548 C 0.94089 0.63961 0.75695 0.0
H549 H 0.29908 0.29894 0.6174 0.0
H550 H 0.28833 0.23923 0.61479 0.0
H551 H 0.32645 0.25256 0.63379 0.0
H552 H 0.3453 0.31984 0.49455 0.0
H553 H 0.35774 0.34306 0.56397 0.0
H554 H 0.32977 0.32873 0.54725 0.0
H555 H 0.32759 0.32886 0.72426 0.0
H556 H 0.35555 0.3432 0.74164 0.0
H557 H 0.34164 0.32006 0.7928 0.0
H558 H 0.36634 0.27291 0.64977 0.0
H559 H 0.40379 0.29811 0.67208 0.0
H560 H 0.38797 0.34437 0.67272 0.0
C561 C 0.30468 0.2886 0.62011 0.0
C562 C 0.29062 0.26796 0.61366 0.0
C563 C 0.29873 0.25506 0.6193 0.0
C564 C 0.32038 0.26252 0.62989 0.0
C565 C 0.33378 0.28295 0.63594 0.0
C566 C 0.32618 0.29579 0.63209 0.0
C567 C 0.34373 0.31712 0.64364 0.0
C568 C 0.34415 0.32781 0.5572 0.0
C569 C 0.34202 0.32794 0.73077 0.0
C570 C 0.36247 0.31435 0.65424 0.0
C571 C 0.35646 0.29455 0.64873 0.0
C572 C 0.37115 0.28843 0.65466 0.0
C573 C 0.39243 0.30288 0.6671 0.0
C574 C 0.39893 0.32327 0.67475 0.0
C575 C 0.38361 0.32895 0.66808 0.0
H576 H 0.70335 0.10647 0.79875 0.0
H577 H 0.74815 0.16625 0.74073 0.0
H578 H 0.77484 0.15653 0.72668 0.0
H579 H 0.73962 0.09647 0.93124 0.0
H580 H 0.72734 0.07118 0.88362 0.0
H581 H 0.71216 0.08315 0.89543 0.0
H582 H 0.69999 0.07478 0.72126 0.0
H583 H 0.71509 0.06278 0.70882 0.0
H584 H 0.71914 0.0824 0.63774 0.0
H585 H 0.79623 0.13981 0.71074 0.0
H586 H 0.81025 0.11728 0.69067 0.0
H587 H 0.75156 0.0684 0.75837 0.0
C588 C 0.71884 0.11764 0.7844 0.0
C589 C 0.72361 0.13721 0.77144 0.0
C590 C 0.74405 0.1512 0.75126 0.0
C591 C 0.75936 0.14582 0.74333 0.0
C592 C 0.75406 0.12638 0.75569 0.0
C593 C 0.73428 0.1125 0.77577 0.0
C594 C 0.73228 0.09235 0.78126 0.0
C595 C 0.72757 0.08538 0.87869 0.0
C596 C 0.71564 0.07719 0.70789 0.0
C597 C 0.75395 0.097 0.76006 0.0
C598 C 0.76633 0.11674 0.74614 0.0
C599 C 0.78673 0.12438 0.72228 0.0
C600 C 0.79457 0.11147 0.71114 0.0
C601 C 0.78207 0.09115 0.72366 0.0
C602 C 0.76158 0.08392 0.74954 0.0
H603 H 0.64904 0.97688 0.39777 0.0
H604 H 0.63509 0.91604 0.37809 0.0
H605 H 0.67183 0.92723 0.42719 0.0
H606 H 0.70065 0.99872 0.31787 0.0
H607 H 0.71107 0.02035 0.39791 0.0
H608 H 0.68391 0.00755 0.35717 0.0
H609 H 0.67386 0.00372 0.52609 0.0
H610 H 0.70098 0.01647 0.56726 0.0
H611 H 0.68367 0.9922 0.60214 0.0
H612 H 0.71051 0.94532 0.47758 0.0
H613 H 0.74725 0.96863 0.53357 0.0
H614 H 0.73512 0.01726 0.52714 0.0
C615 C 0.65373 0.9659 0.40287 0.0
C616 C 0.63919 0.94558 0.38336 0.0
C617 C 0.64593 0.93169 0.39258 0.0
C618 C 0.66679 0.93791 0.4202 0.0
C619 C 0.6807 0.95805 0.43932 0.0
C620 C 0.6744 0.97182 0.43163 0.0
C621 C 0.69219 0.99252 0.45975 0.0
C622 C 0.69725 0.00555 0.37831 0.0
C623 C 0.68738 0.00176 0.54381 0.0
C624 C 0.70948 0.98825 0.48454 0.0
C625 C 0.70264 0.96832 0.47144 0.0
C626 C 0.716 0.96095 0.48843 0.0
C627 C 0.73685 0.9743 0.52005 0.0
C628 C 0.74405 0.99474 0.53547 0.0
C629 C 0.73008 1.0017 0.51715 0.0
H630 H 0.05588 0.79145 0.41792 0.0
H631 H 0.06109 0.78331 0.70831 0.0
H632 H 0.08585 0.7717 0.67831 0.0
H633 H 0.05438 0.74732 0.33936 0.0
H634 H 0.06864 0.75706 0.23993 0.0
H635 H 0.05354 0.76716 0.28544 0.0
H636 H 0.08621 0.80208 0.30239 0.0
H637 H 0.10145 0.79211 0.25672 0.0
H638 H 0.10945 0.80616 0.36745 0.0
H639 H 0.10899 0.76025 0.61705 0.0
H640 H 0.12669 0.74648 0.52707 0.0
H641 H 0.10433 0.75917 0.27307 0.0
C642 C 0.06266 0.78761 0.47512 0.0
C643 C 0.05709 0.78859 0.5657 0.0
C644 C 0.0655 0.78282 0.63881 0.0
C645 C 0.07956 0.77629 0.62238 0.0
C646 C 0.08466 0.77528 0.53214 0.0
C647 C 0.07631 0.78054 0.45943 0.0
C648 C 0.08278 0.77619 0.368 0.0
C649 C 0.0637 0.76103 0.30447 0.0
C650 C 0.09575 0.79528 0.32089 0.0
C651 C 0.09598 0.76755 0.4007 0.0
C652 C 0.09712 0.76752 0.49581 0.0
C653 C 0.10823 0.76019 0.54259 0.0
C654 C 0.11824 0.75242 0.49085 0.0
C655 C 0.11681 0.75175 0.39327 0.0
C656 C 0.10567 0.75954 0.34764 0.0
H657 H 0.31636 0.4142 0.40746 0.0
H658 H 0.28166 0.40014 0.13999 0.0
H659 H 0.25755 0.36649 0.18303 0.0
H660 H 0.31282 0.3672 0.42086 0.0
H661 H 0.31043 0.36675 0.54347 0.0
H662 H 0.32428 0.38999 0.49337 0.0
H663 H 0.30032 0.40126 0.56515 0.0
H664 H 0.28634 0.37801 0.61524 0.0
H665 H 0.27249 0.38621 0.54147 0.0
H666 H 0.23779 0.33437 0.25331 0.0
H667 H 0.22448 0.3052 0.34356 0.0
H668 H 0.2724 0.33975 0.56462 0.0
C669 C 0.30359 0.40405 0.35833 0.0
C670 C 0.30073 0.40969 0.2706 0.0
C671 C 0.28405 0.39603 0.20757 0.0
C672 C 0.27026 0.37694 0.23151 0.0
C673 C 0.2735 0.37179 0.31853 0.0
C674 C 0.28981 0.38488 0.38082 0.0
C675 C 0.29033 0.37532 0.46823 0.0
C676 C 0.31067 0.37478 0.48226 0.0
C677 C 0.28717 0.38582 0.5525 0.0
C678 C 0.27177 0.35479 0.44527 0.0
C679 C 0.26222 0.35314 0.35877 0.0
C680 C 0.24506 0.3355 0.32127 0.0
C681 C 0.23761 0.31904 0.37305 0.0
C682 C 0.24738 0.32031 0.46101 0.0
C683 C 0.26454 0.33846 0.4979 0.0
H684 H 0.00987 0.44102 0.86524 0.0
H685 H 0.97972 0.40002 0.07203 0.0
H686 H 0.0123 0.41673 0.17389 0.0
H687 H 0.05673 0.44151 0.89059 0.0
H688 H 0.07321 0.46727 0.8738 0.0
H689 H 0.0468 0.45417 0.82312 0.0
H690 H 0.03975 0.48002 0.90548 0.0
H691 H 0.0662 0.49319 0.95675 0.0
H692 H 0.04486 0.48505 0.02901 0.0
H693 H 0.04857 0.43464 0.24403 0.0
H694 H 0.0867 0.45225 0.27695 0.0
H695 H 0.09403 0.48223 0.02687 0.0
C696 C 0.01007 0.43593 0.93293 0.0
C697 C 0.99235 0.41934 0.96131 0.0
C698 C 0.99319 0.41274 0.04928 0.0
C699 C 0.01156 0.4222 0.10779 0.0
C700 C 0.02894 0.43829 0.07733 0.0
C701 C 0.0284 0.44516 0.99209 0.0
C702 C 0.04984 0.46146 0.97255 0.0
C703 C 0.05706 0.45575 0.88486 0.0
C704 C 0.05017 0.4811 0.96555 0.0
C705 C 0.06261 0.46214 0.05855 0.0
C706 C 0.05014 0.44883 0.1186 0.0
C707 C 0.05846 0.4454 0.1986 0.0
C708 C 0.08012 0.45543 0.21664 0.0
C709 C 0.09323 0.46876 0.15509 0.0
C710 C 0.08432 0.47254 0.07637 0.0
H711 H 0.63367 0.61534 0.77837 0.0
H712 H 0.60553 0.56072 0.91286 0.0
H713 H 0.59072 0.57461 1.0216 0.0
H714 H 0.64866 0.64707 0.98179 0.0
H715 H 0.64346 0.66496 0.9324 0.0
H716 H 0.65035 0.65022 0.86002 0.0
H717 H 0.61641 0.6377 0.75333 0.0
H718 H 0.60997 0.65294 0.82474 0.0
H719 H 0.59173 0.62686 0.80328 0.0
H720 H 0.58053 0.59504 0.12036 0.0
H721 H 0.57539 0.62053 0.20145 0.0
H722 H 0.61057 0.66193 1.00365 0.0
C723 C 0.62404 0.6062 0.82959 0.0
C724 C 0.62052 0.58692 0.83696 0.0
C725 C 0.60821 0.57548 0.90577 0.0
C726 C 0.59977 0.58324 0.9678 0.0
C727 C 0.60379 0.60244 0.95976 0.0
C728 C 0.61556 0.61375 0.89216 0.0
C729 C 0.61844 0.63429 0.90134 0.0
C730 C 0.6416 0.65006 0.92003 0.0
C731 C 0.60853 0.63816 0.81557 0.0
C732 C 0.60658 0.63281 0.98502 0.0
C733 C 0.59818 0.6143 1.01749 0.0
C734 C 0.58693 0.60955 0.0953 0.0
C735 C 0.58413 0.6241 0.14098 0.0
C736 C 0.59263 0.64312 0.10876 0.0
C737 C 0.60393 0.64748 0.02974 0.0
H738 H 0.43041 0.07358 0.9652 0.0
H739 H 0.4677 0.06375 0.7728 0.0
H740 H 0.46069 0.03346 0.84602 0.0
H741 H 0.44619 0.05631 0.16439 0.0
H742 H 0.42075 0.04491 0.20733 0.0
H743 H 0.42923 0.06613 0.14154 0.0
H744 H 0.39653 0.04645 0.02643 0.0
H745 H 0.38795 0.02521 0.09189 0.0
H746 H 0.39114 0.02318 0.97063 0.0
H747 H 0.44834 0.00356 0.93498 0.0
H748 H 0.43163 0.97606 0.03475 0.0
H749 H 0.40295 0.00558 0.17192 0.0
C750 C 0.43714 0.06505 0.93881 0.0
C751 C 0.44954 0.07089 0.86332 0.0
C752 C 0.45814 0.05946 0.83059 0.0
C753 C 0.45427 0.04228 0.87179 0.0
C754 C 0.4419 0.03685 0.94596 0.0
C755 C 0.43351 0.04791 0.97943 0.0
C756 C 0.42044 0.03861 0.0589 0.0
C757 C 0.42971 0.05231 0.14833 0.0
C758 C 0.39767 0.03303 0.03552 0.0
C759 C 0.42254 0.02043 0.06398 0.0
C760 C 0.43505 0.01975 0.99835 0.0
C761 C 0.43869 0.00402 0.98721 0.0
C762 C 0.42915 0.98849 0.04414 0.0
C763 C 0.4162 0.98884 0.11135 0.0
C764 C 0.41302 0.0051 0.12185 0.0
H765 H 0.63954 0.06301 0.86283 0.0
H766 H 0.6083 0.0912 0.98886 0.0
H767 H 0.59254 0.06438 0.09292 0.0
H768 H 0.59788 0.01186 0.8754 0.0
H769 H 0.61573 0.00325 0.90231 0.0
H770 H 0.62342 0.02394 0.83355 0.0
H771 H 0.65574 0.04522 0.94875 0.0
H772 H 0.64811 0.02467 1.01818 0.0
H773 H 0.65227 0.04787 0.06927 0.0
H774 H 0.58098 0.0351 0.1859 0.0
H775 H 0.5747 0.00544 0.26313 0.0
H776 H 0.6142 0.99668 0.08002 0.0
C777 C 0.62908 0.06332 0.91127 0.0
C778 C 0.62492 0.07902 0.91739 0.0
C779 C 0.61151 0.07918 0.98268 0.0
C780 C 0.60252 0.06404 0.04206 0.0
C781 C 0.60711 0.04887 0.03518 0.0
C782 C 0.62004 0.04835 0.97137 0.0
C783 C 0.62313 0.03079 0.98097 0.0
C784 C 0.61453 0.01663 0.89282 0.0
C785 C 0.64618 0.03755 1.00579 0.0
C786 C 0.61009 0.02165 0.06071 0.0
C787 C 0.60086 0.03223 0.09043 0.0
C788 C 0.5881 0.02669 0.1632 0.0
C789 C 0.58465 0.00986 0.20668 0.0
C790 C 0.59406 0.9989 0.17775 0.0
C791 C 0.60693 0.00489 0.10383 0.0
H792 H 0.0893 0.6508 0.04853 0.0
H793 H 0.07341 0.66931 0.30254 0.0
H794 H 0.03604 0.64692 0.25558 0.0
H795 H 0.04951 0.65052 0.9072 0.0
H796 H 0.04422 0.62943 0.83122 0.0
H797 H 0.06976 0.64473 0.8895 0.0
H798 H 0.06779 0.61419 0.9597 0.0
H799 H 0.04226 0.59873 0.9012 0.0
H800 H 0.04612 0.59895 1.02455 0.0
H801 H 1.00085 0.62422 0.17918 0.0
H802 H 0.96943 0.60391 0.07392 0.0
H803 H 0.00751 0.6013 0.86312 0.0
C804 C 0.07791 0.6497 0.09511 0.0
C805 C 0.08412 0.66146 0.17989 0.0
C806 C 0.06888 0.66025 0.23778 0.0
C807 C 0.04767 0.64756 0.21178 0.0
C808 C 0.042 0.63639 0.12712 0.0
C809 C 0.05662 0.63739 0.06922 0.0
C810 C 0.04623 0.6252 0.97828 0.0
C811 C 0.05282 0.63825 0.89677 0.0
C812 C 0.05088 0.60826 0.9652 0.0
C813 C 0.0235 0.61743 0.99372 0.0
C814 C 0.0215 0.62386 0.08074 0.0
C815 C 1.0022 0.61904 0.11105 0.0
C816 C 0.98445 0.60751 0.05061 0.0
C817 C 0.98607 0.6011 0.9604 0.0
C818 C 0.00585 0.60598 0.93184 0.0
H819 H 0.40912 0.47961 1.01529 0.0
H820 H 0.39081 0.44719 0.25917 0.0
H821 H 0.40772 0.42843 0.21075 0.0
H822 H 0.39772 0.43936 0.86522 0.0
H823 H 0.41907 0.45193 0.79444 0.0
H824 H 0.40901 0.46549 0.85496 0.0
H825 H 0.44567 0.48963 0.9344 0.0
H826 H 0.45597 0.47629 0.87335 0.0
H827 H 0.45971 0.48007 0.9975 0.0
H828 H 0.42218 0.41045 0.12908 0.0
H829 H 0.43414 0.39425 1.01886 0.0
H830 H 0.44315 0.43742 0.8236 0.0
C831 C 0.40942 0.46908 0.05991 0.0
C832 C 0.39904 0.46503 0.14184 0.0
C833 C 0.39892 0.4506 0.19681 0.0
C834 C 0.40849 0.43991 0.1699 0.0
C835 C 0.41802 0.44373 0.08742 0.0
C836 C 0.4187 0.45801 0.03317 0.0
C837 C 0.4281 0.45765 0.94314 0.0
C838 C 0.41254 0.45335 0.85954 0.0
C839 C 0.44858 0.47707 0.93675 0.0
C840 C 0.43198 0.44056 0.95435 0.0
C841 C 0.42624 0.43297 0.03875 0.0
C842 C 0.42703 0.41642 0.0634 0.0
C843 C 0.43374 0.40727 1.00009 0.0
C844 C 0.43962 0.41464 0.91303 0.0
C845 C 0.43899 0.43167 0.89026 0.0
H846 H 0.092 0.26057 0.56575 0.0
H847 H 0.0501 0.2032 0.6595 0.0
H848 H 0.07867 0.19546 0.66283 0.0
H849 H 0.11947 0.24497 0.4182 0.0
H850 H 0.14404 0.26736 0.44647 0.0
H851 H 0.12011 0.26777 0.45007 0.0
H852 H 0.13064 0.28275 0.61983 0.0
H853 H 0.15459 0.28236 0.61679 0.0
H854 H 0.13716 0.27016 0.70407 0.0
H855 H 0.11366 0.19493 0.65952 0.0
H856 H 0.14977 0.20154 0.64798 0.0
H857 H 0.16719 0.25915 0.55517 0.0
C858 C 0.08862 0.24629 0.58682 0.0
C859 C 0.06861 0.23252 0.61249 0.0
C860 C 0.06519 0.21404 0.63927 0.0
C861 C 0.08139 0.20952 0.64147 0.0
C862 C 0.10097 0.22359 0.6163 0.0
C863 C 0.10449 0.24157 0.58915 0.0
C864 C 0.12677 0.25441 0.56614 0.0
C865 C 0.12764 0.25888 0.46417 0.0
C866 C 0.13794 0.27354 0.63056 0.0
C867 C 0.13545 0.24098 0.58492 0.0
C868 C 0.12049 0.22323 0.61381 0.0
C869 C 0.12538 0.20879 0.6365 0.0
C870 C 0.14598 0.21266 0.62969 0.0
C871 C 0.16153 0.23084 0.60034 0.0
C872 C 0.15589 0.24502 0.57751 0.0
H873 H 0.8295 0.96592 0.49781 0.0
H874 H 0.79398 0.95908 0.73562 0.0
H875 H 0.79161 0.92741 0.75742 0.0
H876 H 0.80042 0.91367 0.4128 0.0
H877 H 0.82272 0.91267 0.3765 0.0
H878 H 0.82246 0.93553 0.3775 0.0
H879 H 0.85685 0.95291 0.48265 0.0
H880 H 0.8572 0.93009 0.48204 0.0
H881 H 0.85837 0.94297 0.59005 0.0
H882 H 0.79251 0.89711 0.75842 0.0
H883 H 0.79579 0.86777 0.73542 0.0
H884 H 0.83008 0.89093 0.49506 0.0
C885 C 0.82129 0.95771 0.55435 0.0
C886 C 0.81194 0.96519 0.61509 0.0
C887 C 0.80127 0.95387 0.6879 0.0
C888 C 0.79983 0.93575 0.70125 0.0
C889 C 0.80905 0.92876 0.64107 0.0
C890 C 0.81952 0.93915 0.56868 0.0
C891 C 0.82753 0.92745 0.5143 0.0
C892 C 0.81769 0.92201 0.41432 0.0
C893 C 0.85141 0.93905 0.51746 0.0
C894 C 0.81986 0.90906 0.56798 0.0
C895 C 0.80933 0.91045 0.64089 0.0
C896 C 0.8007 0.89579 0.70153 0.0
C897 C 0.80268 0.87909 0.68768 0.0
C898 C 0.81317 0.87686 0.61348 0.0
C899 C 0.82198 0.89216 0.55254 0.0
H900 H 0.09845 0.87613 0.53378 0.0
H901 H 0.05392 0.89607 0.55778 0.0
H902 H 0.08247 0.93076 0.55804 0.0
H903 H 0.13948 0.9145 0.68057 0.0
H904 H 0.15999 0.91659 0.61249 0.0
H905 H 0.13599 0.89341 0.60979 0.0
H906 H 0.13113 0.89267 0.43198 0.0
H907 H 0.15521 0.9158 0.43408 0.0
H908 H 0.13155 0.91335 0.38104 0.0
H909 H 0.11676 0.9637 0.56824 0.0
H910 H 0.153 0.99156 0.5742 0.0
H911 H 0.17493 0.95002 0.53616 0.0
C912 C 0.09467 0.88779 0.53775 0.0
C913 C 0.0739 0.88337 0.54554 0.0
C914 C 0.06965 0.89907 0.55114 0.0
C915 C 0.08581 0.91884 0.5517 0.0
C916 C 0.10618 0.92272 0.54556 0.0
C917 C 0.11059 0.90759 0.53735 0.0
C918 C 0.13379 0.91568 0.53238 0.0
C919 C 0.14284 0.90969 0.61365 0.0
C920 C 0.13817 0.90898 0.43932 0.0
C921 C 0.14182 0.93774 0.5404 0.0
C922 C 0.12568 0.94153 0.54847 0.0
C923 C 0.12944 0.96084 0.56084 0.0
C924 C 0.15013 0.97661 0.5645 0.0
C925 C 0.1669 0.9731 0.55489 0.0
C926 C 0.16251 0.95331 0.54245 0.0
H927 H 0.23745 0.17452 0.57415 0.0
H928 H 0.18982 0.16341 0.76092 0.0
H929 H 0.18513 0.13013 0.78024 0.0
H930 H 0.21259 0.12657 0.45893 0.0
H931 H 0.23644 0.12634 0.44601 0.0
H932 H 0.23662 0.14939 0.45214 0.0
H933 H 0.26485 0.16278 0.58977 0.0
H934 H 0.2648 0.13978 0.58393 0.0
H935 H 0.26016 0.14907 0.69042 0.0
H936 H 0.18554 0.09728 0.77481 0.0
H937 H 0.19042 0.06851 0.74296 0.0
H938 H 0.23712 0.10173 0.55644 0.0
C939 C 0.22614 0.16519 0.61992 0.0
C940 C 0.21405 0.17158 0.66652 0.0
C941 C 0.19931 0.15882 0.72496 0.0
C942 C 0.19656 0.13992 0.73621 0.0
C943 C 0.20866 0.13401 0.68834 0.0
C944 C 0.22316 0.14636 0.63132 0.0
C945 C 0.2338 0.13652 0.58485 0.0
C946 C 0.2296 0.13459 0.47924 0.0
C947 C 0.25729 0.14771 0.61402 0.0
C948 C 0.22298 0.11657 0.62376 0.0
C949 C 0.20862 0.11535 0.68392 0.0
C950 C 0.19677 0.09816 0.72785 0.0
C951 C 0.19963 0.0819 0.70944 0.0
C952 C 0.21409 0.08288 0.64712 0.0
C953 C 0.2259 0.1005 0.60428 0.0
H954 H 0.87645 0.08345 0.51933 0.0
H955 H 0.86896 0.07947 0.8121 0.0
H956 H 0.90298 0.11 0.84629 0.0
H957 H 0.93473 0.10607 0.53566 0.0
H958 H 0.93759 0.12199 0.44538 0.0
H959 H 0.91432 0.09818 0.44414 0.0
H960 H 0.89197 0.11498 0.43692 0.0
H961 H 0.91512 0.13882 0.43909 0.0
H962 H 0.89682 0.13414 0.52464 0.0
H963 H 0.93535 0.14289 0.84886 0.0
H964 H 0.96452 0.1756 0.81954 0.0
H965 H 0.95169 0.15913 0.52504 0.0
C966 C 0.88246 0.08864 0.59052 0.0
C967 C 0.87042 0.07885 0.66342 0.0
C968 C 0.87822 0.08655 0.75564 0.0
C969 C 0.89749 0.10391 0.77563 0.0
C970 C 0.9088 0.11357 0.70251 0.0
C971 C 0.9017 0.10618 0.6117 0.0
C972 C 0.91605 0.12049 0.54615 0.0
C973 C 0.92628 0.11112 0.48949 0.0
C974 C 0.90429 0.12752 0.483 0.0
C975 C 0.93197 0.1372 0.61417 0.0
C976 C 0.92754 0.13279 0.70402 0.0
C977 C 0.93918 0.14636 0.77885 0.0
C978 C 0.9557 0.16493 0.76159 0.0
C979 C 0.96052 0.16984 0.67025 0.0
C980 C 0.94859 0.15566 0.59573 0.0
H981 H 0.94008 0.78849 0.65663 0.0
H982 H 0.98106 0.8464 0.56489 0.0
H983 H 0.9519 0.853 0.55644 0.0
H984 H 0.89529 0.77792 0.51087 0.0
H985 H 0.87711 0.76536 0.5951 0.0
H986 H 0.90142 0.76555 0.59769 0.0
H987 H 0.91019 0.7804 0.76763 0.0
H988 H 0.88588 0.78025 0.76557 0.0
H989 H 0.91002 0.80289 0.79709 0.0
H990 H 0.91757 0.85289 0.55343 0.0
H991 H 0.88129 0.8459 0.55556 0.0
H992 H 0.86293 0.78812 0.64911 0.0
C993 C 0.94305 0.80265 0.63546 0.0
C994 C 0.96303 0.81693 0.61169 0.0
C995 C 0.966 0.83518 0.58366 0.0
C996 C 0.94949 0.8391 0.57867 0.0
C997 C 0.93 0.82465 0.60197 0.0
C998 C 0.92673 0.8068 0.62993 0.0
C999 C 0.90419 0.79356 0.64903 0.0
C1000 C 0.8939 0.77447 0.5843 0.0
C1001 C 0.90248 0.78901 0.75089 0.0
C1002 C 0.89524 0.80667 0.62683 0.0
C1003 C 0.91036 0.82458 0.6001 0.0
C1004 C 0.90564 0.83893 0.57469 0.0
C1005 C 0.88495 0.83482 0.57617 0.0
C1006 C 0.86913 0.81649 0.60272 0.0
C1007 C 0.87455 0.80234 0.62881 0.0
H1008 H 0.81266 0.53567 0.77106 0.0
H1009 H 0.83175 0.54477 0.4928 0.0
H1010 H 0.79803 0.54204 0.44037 0.0
H1011 H 0.75691 0.4995 0.70356 0.0
H1012 H 0.74853 0.50879 0.79796 0.0
H1013 H 0.7733 0.50986 0.80984 0.0
H1014 H 0.79162 0.54756 0.85301 0.0
H1015 H 0.76699 0.54665 0.84069 0.0
H1016 H 0.78798 0.56303 0.77543 0.0
H1017 H 0.76418 0.54349 0.42632 0.0
H1018 H 0.73209 0.54506 0.44768 0.0
H1019 H 0.73418 0.5316 0.73174 0.0
C1020 C 0.80952 0.53664 0.69863 0.0
C1021 C 0.82468 0.54039 0.63574 0.0
C1022 C 0.82018 0.54168 0.54167 0.0
C1023 C 0.80112 0.54023 0.51158 0.0
C1024 C 0.78663 0.53698 0.57613 0.0
C1025 C 0.79048 0.53473 0.66733 0.0
C1026 C 0.77276 0.5318 0.72397 0.0
C1027 C 0.76225 0.51126 0.76099 0.0
C1028 C 0.7803 0.54824 0.80288 0.0
C1029 C 0.75855 0.53341 0.65145 0.0
C1030 C 0.76679 0.53652 0.56656 0.0
C1031 C 0.75734 0.54051 0.49179 0.0
C1032 C 0.73916 0.5414 0.50444 0.0
C1033 C 0.73044 0.53797 0.5906 0.0
C1034 C 0.74014 0.53365 0.66425 0.0
H1035 H 0.45857 0.28784 0.58743 0.0
H1036 H 0.51903 0.32864 0.72838 0.0
H1037 H 0.52686 0.30161 0.73618 0.0
H1038 H 0.44776 0.24851 0.7207 0.0
H1039 H 0.43474 0.22928 0.62818 0.0
H1040 H 0.43485 0.25219 0.62205 0.0
H1041 H 0.45094 0.25702 0.46484 0.0
H1042 H 0.45076 0.23403 0.47021 0.0
H1043 H 0.47469 0.25641 0.45555 0.0
H1044 H 0.52667 0.26973 0.74461 0.0
H1045 H 0.51873 0.23525 0.75027 0.0
H1046 H 0.45848 0.21462 0.60315 0.0
C1047 C 0.47368 0.29115 0.61749 0.0
C1048 C 0.48833 0.3104 0.65637 0.0
C1049 C 0.50769 0.31406 0.69747 0.0
C1050 C 0.51227 0.29879 0.7022 0.0
C1051 C 0.49733 0.27987 0.66543 0.0
C1052 C 0.47846 0.27599 0.62327 0.0
C1053 C 0.46454 0.25406 0.59564 0.0
C1054 C 0.44428 0.24552 0.64458 0.0
C1055 C 0.45996 0.25015 0.49029 0.0
C1056 C 0.47833 0.24619 0.63073 0.0
C1057 C 0.49723 0.26138 0.67016 0.0
C1058 C 0.51206 0.25775 0.71262 0.0
C1059 C 0.50741 0.23812 0.71565 0.0
C1060 C 0.48811 0.2223 0.67634 0.0
C1061 C 0.47351 0.22645 0.63226 0.0
H1062 H 0.75785 0.22031 0.64382 0.0
H1063 H 0.71832 0.24347 0.72445 0.0
H1064 H 0.7472 0.27743 0.7123 0.0
H1065 H 0.80298 0.25603 0.77092 0.0
H1066 H 0.82068 0.25763 0.68697 0.0
H1067 H 0.79625 0.23514 0.69038 0.0
H1068 H 0.78682 0.2364 0.51815 0.0
H1069 H 0.81131 0.25891 0.51411 0.0
H1070 H 0.78726 0.25817 0.48065 0.0
H1071 H 0.78151 0.30883 0.7113 0.0
H1072 H 0.8184 0.33526 0.71644 0.0
H1073 H 0.8356 0.29202 0.63099 0.0
C1074 C 0.75515 0.23252 0.65663 0.0
C1075 C 0.73582 0.22928 0.68452 0.0
C1076 C 0.73296 0.24563 0.70235 0.0
C1077 C 0.74927 0.26497 0.69558 0.0
C1078 C 0.76832 0.26772 0.67 0.0
C1079 C 0.77128 0.25194 0.64984 0.0
C1080 C 0.79365 0.25899 0.62995 0.0
C1081 C 0.80399 0.2515 0.69866 0.0
C1082 C 0.79482 0.25274 0.52974 0.0
C1083 C 0.80297 0.28117 0.64496 0.0
C1084 C 0.78805 0.2859 0.66744 0.0
C1085 C 0.79323 0.30533 0.69187 0.0
C1086 C 0.81421 0.32025 0.69468 0.0
C1087 C 0.82974 0.31571 0.67261 0.0
C1088 C 0.82395 0.29596 0.64581 0.0
H1089 H 0.92801 0.51293 0.81929 0.0
H1090 H 0.86629 0.49153 0.68496 0.0
H1091 H 0.86097 0.45783 0.66846 0.0
H1092 H 0.94077 0.4822 0.6787 0.0
H1093 H 0.95458 0.47808 0.77214 0.0
H1094 H 0.95343 0.50049 0.7752 0.0
H1095 H 0.93799 0.49331 0.93386 0.0
H1096 H 0.93915 0.4709 0.93139 0.0
H1097 H 0.91481 0.47007 0.94604 0.0
H1098 H 0.86252 0.42606 0.66434 0.0
H1099 H 0.87068 0.39927 0.67486 0.0
H1100 H 0.93137 0.4412 0.81163 0.0
C1101 C 0.91331 0.50118 0.78676 0.0
C1102 C 0.89756 0.50509 0.75364 0.0
C1103 C 0.87863 0.48912 0.7112 0.0
C1104 C 0.87545 0.46983 0.70137 0.0
C1105 C 0.89131 0.46655 0.73424 0.0
C1106 C 0.90986 0.4818 0.77628 0.0
C1107 C 0.92447 0.47434 0.80502 0.0
C1108 C 0.9445 0.48437 0.75475 0.0
C1109 C 0.92939 0.47733 0.91033 0.0
C1110 C 0.91127 0.45255 0.77251 0.0
C1111 C 0.89219 0.44835 0.73184 0.0
C1112 C 0.87742 0.42923 0.69623 0.0
C1113 C 0.88223 0.41405 0.70248 0.0
C1114 C 0.90168 0.41793 0.74407 0.0
C1115 C 0.91633 0.43756 0.77937 0.0
H1116 H 0.52108 0.43719 0.74515 0.0
H1117 H 0.53593 0.39355 0.63739 0.0
H1118 H 0.57156 0.42025 0.6153 0.0
H1119 H 0.54962 0.47392 0.59024 0.0
H1120 H 0.55805 0.49438 0.67577 0.0
H1121 H 0.53392 0.4718 0.68433 0.0
H1122 H 0.5466 0.46939 0.84953 0.0
H1123 H 0.57075 0.49198 0.84153 0.0
H1124 H 0.571 0.46991 0.86849 0.0
H1125 H 0.60623 0.45246 0.60499 0.0
H1126 H 0.63592 0.48661 0.60685 0.0
H1127 H 0.59786 0.5088 0.71981 0.0
C1128 C 0.53178 0.43315 0.71717 0.0
C1129 C 0.52553 0.4131 0.69331 0.0
C1130 C 0.54019 0.40869 0.65645 0.0
C1131 C 0.56054 0.42381 0.6436 0.0
C1132 C 0.56612 0.44338 0.66766 0.0
C1133 C 0.55211 0.44804 0.70367 0.0
C1134 C 0.56183 0.4702 0.72332 0.0
C1135 C 0.55016 0.47803 0.66492 0.0
C1136 C 0.56259 0.47569 0.82686 0.0
C1137 C 0.58351 0.47733 0.69279 0.0
C1138 C 0.58576 0.46169 0.66102 0.0
C1139 C 0.60455 0.46478 0.6297 0.0
C1140 C 0.62138 0.48429 0.63099 0.0
C1141 C 0.61941 0.50059 0.66313 0.0
C1142 C 0.60007 0.49684 0.69428 0.0
H1143 H 0.60317 0.13512 0.79314 0.0
H1144 H 0.64287 0.19115 0.68201 0.0
H1145 H 0.61295 0.19676 0.66513 0.0
H1146 H 0.55735 0.12116 0.64606 0.0
H1147 H 0.54001 0.10994 0.73495 0.0
H1148 H 0.56463 0.11071 0.73841 0.0
H1149 H 0.57428 0.12836 0.90331 0.0
H1150 H 0.5497 0.12765 0.9003 0.0
H1151 H 0.57362 0.15088 0.92367 0.0
H1152 H 0.5774 0.1957 0.65966 0.0
H1153 H 0.54084 0.18802 0.66658 0.0
H1154 H 0.52572 0.13285 0.78211 0.0
C1155 C 0.60572 0.14862 0.76513 0.0
C1156 C 0.62553 0.16267 0.73882 0.0
C1157 C 0.62793 0.18012 0.70278 0.0
C1158 C 0.61098 0.18344 0.69291 0.0
C1159 C 0.59167 0.16921 0.71955 0.0
C1160 C 0.58908 0.15216 0.75504 0.0
C1161 C 0.5669 0.13905 0.77866 0.0
C1162 C 0.55662 0.11904 0.72107 0.0
C1163 C 0.56609 0.13634 0.88265 0.0
C1164 C 0.55729 0.15128 0.75069 0.0
C1165 C 0.5717 0.16865 0.71677 0.0
C1166 C 0.56606 0.18212 0.68632 0.0
C1167 C 0.54523 0.17765 0.69053 0.0
C1168 C 0.53024 0.15984 0.72493 0.0
C1169 C 0.53661 0.14664 0.75542 0.0
H1170 H 0.51739 0.9364 0.23971 0.0
H1171 H 0.50079 0.88017 0.34772 0.0
H1172 H 0.46426 0.87244 0.34875 0.0
H1173 H 0.48503 0.94706 0.37305 0.0
H1174 H 0.47821 0.95825 0.28265 0.0
H1175 H 0.50277 0.9589 0.28623 0.0
H1176 H 0.49383 0.94234 0.11931 0.0
H1177 H 0.46926 0.9417 0.11505 0.0
H1178 H 0.46991 0.91925 0.0918 0.0
H1179 H 0.42956 0.87139 0.3425 0.0
H1180 H 0.39973 0.877 0.32869 0.0
H1181 H 0.4394 0.93404 0.22564 0.0
C1182 C 0.50611 0.92235 0.26289 0.0
C1183 C 0.51206 0.90888 0.29344 0.0
C1184 C 0.49669 0.89074 0.32374 0.0
C1185 C 0.47587 0.88621 0.3246 0.0
C1186 C 0.47063 0.89994 0.29489 0.0
C1187 C 0.48532 0.91762 0.26436 0.0
C1188 C 0.47584 0.93008 0.23809 0.0
C1189 C 0.48607 0.94973 0.29864 0.0
C1190 C 0.4773 0.93354 0.13493 0.0
C1191 C 0.45353 0.91673 0.25931 0.0
C1192 C 0.45079 0.89938 0.29169 0.0
C1193 C 0.43153 0.8849 0.31689 0.0
C1194 C 0.41466 0.88824 0.30882 0.0
C1195 C 0.41712 0.90596 0.27602 0.0
C1196 C 0.43689 0.92031 0.25087 0.0
H1197 H 0.17832 0.64445 0.25787 0.0
H1198 H 0.16007 0.64818 0.97599 0.0
H1199 H 0.16333 0.61915 0.92594 0.0
H1200 H 0.21682 0.62909 0.19846 0.0
H1201 H 0.21045 0.61349 0.29275 0.0
H1202 H 0.2086 0.63555 0.30252 0.0
H1203 H 0.17016 0.61473 0.34015 0.0
H1204 H 0.17181 0.59265 0.32982 0.0
H1205 H 0.15199 0.59421 0.26081 0.0
H1206 H 0.16243 0.58601 0.91493 0.0
H1207 H 0.16207 0.55472 0.93984 0.0
H1208 H 0.185 0.57563 0.2254 0.0
C1209 C 0.17555 0.63943 0.18524 0.0
C1210 C 0.16899 0.64838 0.12047 0.0
C1211 C 0.16534 0.64151 0.02613 0.0
C1212 C 0.16709 0.62504 0.9974 0.0
C1213 C 0.17312 0.61616 0.06373 0.0
C1214 C 0.17786 0.62351 0.15534 0.0
C1215 C 0.18337 0.61113 0.21398 0.0
C1216 C 0.20617 0.62303 0.25427 0.0
C1217 C 0.16844 0.60268 0.29064 0.0
C1218 C 0.18015 0.5951 0.14213 0.0
C1219 C 0.17411 0.5981 0.05581 0.0
C1220 C 0.1678 0.58386 0.98146 0.0
C1221 C 0.16757 0.56615 0.99611 0.0
C1222 C 0.174 0.5631 0.0838 0.0
C1223 C 0.1807 0.57792 0.15686 0.0
H1224 H 0.52205 0.63377 0.19707 0.0
H1225 H 0.49854 0.67445 0.20816 0.0
H1226 H 0.46242 0.64605 0.18016 0.0
H1227 H 0.48473 0.59838 1.02002 0.0
H1228 H 0.48324 0.5776 0.07448 0.0
H1229 H 0.50691 0.60119 0.08952 0.0
H1230 H 0.50596 0.6007 0.2672 0.0
H1231 H 0.48239 0.57708 0.25283 0.0
H1232 H 0.48303 0.59741 0.31913 0.0
H1233 H 0.42857 0.61229 0.15144 0.0
H1234 H 0.40073 0.57706 0.14125 0.0
H1235 H 0.44759 0.55966 0.15646 0.0
C1236 C 0.50939 0.63686 0.19257 0.0
C1237 C 0.51313 0.65639 0.20368 0.0
C1238 C 0.49602 0.65961 0.1995 0.0
C1239 C 0.4755 0.64358 0.18316 0.0
C1240 C 0.47244 0.62448 0.17204 0.0
C1241 C 0.489 0.62115 0.17759 0.0
C1242 C 0.48185 0.59937 0.16924 0.0
C1243 C 0.48965 0.59382 0.08318 0.0
C1244 C 0.48871 0.59329 0.25734 0.0
C1245 C 0.45857 0.59078 0.15866 0.0
C1246 C 0.45332 0.6054 0.15899 0.0
C1247 C 0.43257 0.60078 0.15105 0.0
C1248 C 0.41687 0.58076 0.14484 0.0
C1249 C 0.42209 0.56573 0.14798 0.0
C1250 C 0.44318 0.57087 0.15362 0.0
H1251 H 0.59077 0.78349 0.37481 0.0
H1252 H 0.525 0.74171 0.38296 0.0
H1253 H 0.5183 0.76947 0.40775 0.0
H1254 H 0.59444 0.82222 0.54369 0.0
H1255 H 0.61226 0.84179 0.47831 0.0
H1256 H 0.61209 0.81871 0.47532 0.0
H1257 H 0.60617 0.81514 0.29688 0.0
H1258 H 0.60623 0.8381 0.2993 0.0
H1259 H 0.5843 0.81598 0.24323 0.0
H1260 H 0.51858 0.80209 0.41686 0.0
H1261 H 0.52563 0.83626 0.40416 0.0
H1262 H 0.59104 0.8562 0.3846 0.0
C1263 C 0.57503 0.78018 0.38436 0.0
C1264 C 0.55841 0.7605 0.3782 0.0
C1265 C 0.53796 0.75672 0.38846 0.0
C1266 C 0.53403 0.77239 0.40263 0.0
C1267 C 0.55074 0.79171 0.40612 0.0
C1268 C 0.57085 0.79561 0.39738 0.0
C1269 C 0.58581 0.8175 0.39459 0.0
C1270 C 0.60211 0.82552 0.47796 0.0
C1271 C 0.59623 0.82193 0.30306 0.0
C1272 C 0.57095 0.82533 0.40103 0.0
C1273 C 0.55084 0.81031 0.40903 0.0
C1274 C 0.53432 0.81396 0.41165 0.0
C1275 C 0.53845 0.83339 0.40445 0.0
C1276 C 0.55887 0.84882 0.39377 0.0
C1277 C 0.5753 0.84471 0.39353 0.0
H1278 H 0.2796 0.84577 0.26701 0.0
H1279 H 0.32388 0.82646 0.32875 0.0
H1280 H 0.29471 0.79212 0.33315 0.0
H1281 H 0.24097 0.81357 0.41695 0.0
H1282 H 0.21938 0.80955 0.33902 0.0
H1283 H 0.2438 0.83239 0.34287 0.0
H1284 H 0.24505 0.82679 0.16688 0.0
H1285 H 0.22073 0.80388 0.16258 0.0
H1286 H 0.24331 0.80422 0.12082 0.0
H1287 H 0.26025 0.75933 0.31725 0.0
H1288 H 0.22367 0.73174 0.2989 0.0
H1289 H 0.2026 0.77357 0.25847 0.0
C1290 C 0.28314 0.83432 0.28219 0.0
C1291 C 0.3039 0.83862 0.29714 0.0
C1292 C 0.30801 0.82337 0.31736 0.0
C1293 C 0.29156 0.80387 0.31967 0.0
C1294 C 0.27119 0.80004 0.30323 0.0
C1295 C 0.26697 0.81495 0.28644 0.0
C1296 C 0.24383 0.80715 0.27176 0.0
C1297 C 0.23657 0.8162 0.34716 0.0
C1298 C 0.23789 0.81072 0.17475 0.0
C1299 C 0.23561 0.78545 0.28134 0.0
C1300 C 0.25157 0.78153 0.29867 0.0
C1301 C 0.24764 0.76229 0.30507 0.0
C1302 C 0.22686 0.74672 0.29417 0.0
C1303 C 0.21035 0.75058 0.27848 0.0
C1304 C 0.21488 0.77021 0.27222 0.0
H1305 H 0.29313 0.47988 0.28334 0.0
H1306 H 0.3314 0.53215 0.1422 0.0
H1307 H 0.30203 0.53856 0.12756 0.0
H1308 H 0.2475 0.46362 0.14381 0.0
H1309 H 0.23047 0.45443 0.23547 0.0
H1310 H 0.25516 0.4554 0.24419 0.0
H1311 H 0.26536 0.47658 0.40038 0.0
H1312 H 0.24058 0.47554 0.3926 0.0
H1313 H 0.26434 0.49909 0.4072 0.0
H1314 H 0.26702 0.53744 0.11787 0.0
H1315 H 0.23025 0.52916 0.11537 0.0
H1316 H 0.21568 0.47726 0.26064 0.0
C1317 C 0.29558 0.49291 0.25063 0.0
C1318 C 0.31465 0.50554 0.21405 0.0
C1319 C 0.317 0.52231 0.17131 0.0
C1320 C 0.30039 0.52605 0.16258 0.0
C1321 C 0.28161 0.51294 0.19737 0.0
C1322 C 0.27925 0.49678 0.24111 0.0
C1323 C 0.25727 0.4842 0.26782 0.0
C1324 C 0.247 0.46318 0.21993 0.0
C1325 C 0.25687 0.48385 0.37326 0.0
C1326 C 0.24741 0.49553 0.23055 0.0
C1327 C 0.26166 0.51217 0.19092 0.0
C1328 C 0.2558 0.52453 0.14946 0.0
C1329 C 0.23486 0.51968 0.1483 0.0
C1330 C 0.21999 0.50253 0.18765 0.0
C1331 C 0.22655 0.49047 0.22978 0.0
H1332 H 0.04295 0.263 0.34975 0.0
H1333 H 0.97564 0.22554 0.32572 0.0
H1334 H 0.97512 0.22576 0.15761 0.0
H1335 H 0.04472 0.29323 0.16542 0.0
H1336 H 0.06751 0.29534 0.11688 0.0
H1337 H 0.06447 0.29211 0.23771 0.0
H1338 H 0.06799 0.26135 0.22623 0.0
H1339 H 0.07219 0.2645 0.10577 0.0
H1340 H 0.05185 0.2414 0.14026 0.0
H1341 H 0.98111 0.22801 0.99056 0.0
H1342 H 0.99326 0.23603 0.83525 0.0
H1343 H 0.05628 0.27436 0.95714 0.0
C1344 C 0.02813 0.25494 0.30903 0.0
C1345 C 0.00931 0.24406 0.35268 0.0
C1346 C 0.99033 0.23388 0.29567 0.0
C1347 C 0.98981 0.23385 0.19922 0.0
C1348 C 0.0084 0.24433 0.15835 0.0
C1349 C 0.02724 0.25499 0.21093 0.0
C1350 C 0.04474 0.26535 0.1472 0.0
C1351 C 0.056 0.28786 0.16804 0.0
C1352 C 0.0601 0.25769 0.15537 0.0
C1353 C 0.03265 0.25906 0.0519 0.0
C1354 C 0.01175 0.24654 0.0605 0.0
C1355 C 0.99743 0.23796 0.98309 0.0
C1356 C 0.0045 0.24249 0.89466 0.0
C1357 C 0.02568 0.25582 0.88314 0.0
C1358 C 0.03994 0.2642 0.9634 0.0
H1359 H 0.84092 0.81289 0.29483 0.0
H1360 H 0.77483 0.78557 0.32677 0.0
H1361 H 0.76767 0.78315 0.15746 0.0
H1362 H 0.84051 0.84257 0.10826 0.0
H1363 H 0.86013 0.84034 0.04975 0.0
H1364 H 0.85988 0.8396 0.17319 0.0
H1365 H 0.85851 0.80593 0.15854 0.0
H1366 H 0.8584 0.80641 0.03491 0.0
H1367 H 0.83791 0.78573 0.08541 0.0
H1368 H 0.76755 0.7813 0.98376 0.0
H1369 H 0.77475 0.78585 0.81977 0.0
H1370 H 0.84104 0.81743 0.90013 0.0
C1371 C 0.825 0.80668 0.26586 0.0
C1372 C 0.8084 0.79951 0.32341 0.0
C1373 C 0.78775 0.79137 0.28363 0.0
C1374 C 0.78353 0.78976 0.18758 0.0
C1375 C 0.80019 0.79668 0.13229 0.0
C1376 C 0.82056 0.80546 0.16999 0.0
C1377 C 0.83561 0.81255 0.09513 0.0
C1378 C 0.84987 0.8351 0.10731 0.0
C1379 C 0.84836 0.80202 0.09344 0.0
C1380 C 0.82053 0.80622 1.0096 0.0
C1381 C 0.80015 0.79673 0.0325 0.0
C1382 C 0.78345 0.78892 0.96511 0.0
C1383 C 0.78767 0.79143 0.87211 0.0
C1384 C 0.80842 0.80202 0.84755 0.0
C1385 C 0.82502 0.8093 0.91723 0.0
H1386 H 0.23496 0.00334 0.28707 0.0
H1387 H 0.20949 0.04252 0.29473 0.0
H1388 H 0.21168 0.04493 0.12808 0.0
H1389 H 0.27058 0.02686 0.10668 0.0
H1390 H 0.26588 0.0039 0.05005 0.0
H1391 H 0.26357 0.00581 0.17231 0.0
H1392 H 0.22601 0.97609 0.15034 0.0
H1393 H 0.22817 0.97409 0.02804 0.0
H1394 H 0.20724 0.97678 0.06982 0.0
H1395 H 0.21565 0.04309 0.96029 0.0
H1396 H 0.22046 0.03603 0.79914 0.0
H1397 H 0.24228 0.99722 0.89049 0.0
C1398 C 0.23009 0.01257 0.25356 0.0
C1399 C 0.22209 0.02278 0.30502 0.0
C1400 C 0.2156 0.03447 0.25782 0.0
C1401 C 0.21683 0.03602 0.16263 0.0
C1402 C 0.22446 0.02568 0.1137 0.0
C1403 C 0.23094 0.01411 0.15691 0.0
C1404 C 0.23765 0.00395 0.0856 0.0
C1405 C 0.2608 0.01053 0.10483 0.0
C1406 C 0.22395 0.98139 0.08333 0.0
C1407 C 0.23383 0.01163 0.99648 0.0
C1408 C 0.22635 0.02426 1.01498 0.0
C1409 C 0.22151 0.03321 0.94488 0.0
C1410 C 0.22426 0.02911 0.85328 0.0
C1411 C 0.23167 0.01608 0.83166 0.0
C1412 C 0.23658 0.00728 0.90468 0.0
H1413 H 0.99621 0.78503 0.87735 0.0
H1414 H 0.05023 0.84417 0.9137 0.0
H1415 H 0.05013 0.84333 0.08066 0.0
H1416 H 0.97071 0.79069 0.07261 0.0
H1417 H 0.96161 0.76631 0.1097 0.0
H1418 H 0.96562 0.77062 0.98993 0.0
H1419 H 0.99042 0.75645 0.99269 0.0
H1420 H 0.98639 0.752 0.11238 0.0
H1421 H 0.0124 0.76669 0.07776 0.0
H1422 H 0.04406 0.838 0.24412 0.0
H1423 H 0.03311 0.82677 0.39778 0.0
H1424 H 0.98394 0.77051 0.26874 0.0
C1425 C 0.00809 0.79766 0.92061 0.0
C1426 C 0.02319 0.81473 0.88063 0.0
C1427 C 0.03837 0.83091 0.94084 0.0
C1428 C 0.03852 0.83066 0.03679 0.0
C1429 C 0.02346 0.81401 0.07417 0.0
C1430 C 0.0086 0.79765 1.01878 0.0
C1431 C 0.99434 0.7818 0.07989 0.0
C1432 C 0.97173 0.77708 0.06194 0.0
C1433 C 0.99599 0.76313 0.06476 0.0
C1434 C 1.00347 0.79204 0.17684 0.0
C1435 C 0.02024 0.81067 0.17104 0.0
C1436 C 0.03104 0.82336 0.24975 0.0
C1437 C 0.02469 0.81688 0.33704 0.0
C1438 C 0.00778 0.79778 0.34598 0.0
C1439 C 0.99704 0.78518 0.26435 0.0
H1440 H 0.21667 0.26036 0.31238 0.0
H1441 H 0.22956 0.21209 0.3048 0.0
H1442 H 0.23263 0.21365 0.13868 0.0
H1443 H 0.18555 0.24531 0.09511 0.0
H1444 H 0.19534 0.26976 0.05766 0.0
H1445 H 0.19526 0.26624 0.17912 0.0
H1446 H 0.23482 0.29107 0.20201 0.0
H1447 H 0.23493 0.29485 0.08082 0.0
H1448 H 0.25217 0.2874 0.1324 0.0
H1449 H 0.23335 0.2188 0.97323 0.0
H1450 H 0.2324 0.22823 0.81489 0.0
H1451 H 0.21856 0.27298 0.91645 0.0
C1452 C 0.2205 0.2504 0.27587 0.0
C1453 C 0.22293 0.23609 0.32316 0.0
C1454 C 0.22755 0.22315 0.27147 0.0
C1455 C 0.22937 0.2239 0.17635 0.0
C1456 C 0.22653 0.2377 0.13143 0.0
C1457 C 0.2223 0.25085 0.17875 0.0
C1458 C 0.21954 0.26381 0.11051 0.0
C1459 C 0.19761 0.26111 0.11063 0.0
C1460 C 0.23636 0.28558 0.13276 0.0
C1461 C 0.22255 0.25556 1.0185 0.0
C1462 C 0.2267 0.24058 0.03326 0.0
C1463 C 0.23014 0.23054 0.96071 0.0
C1464 C 0.22949 0.23597 0.87055 0.0
C1465 C 0.22529 0.25124 0.85221 0.0
C1466 C 0.2217 0.26114 0.92774 0.0
H1467 H 0.80266 0.06297 0.31012 0.0
H1468 H 0.81099 0.01474 0.39148 0.0
H1469 H 0.81196 0.00561 0.22718 0.0
H1470 H 0.76984 0.03812 0.0985 0.0
H1471 H 0.78148 0.0598 0.03518 0.0
H1472 H 0.78082 0.06228 0.15853 0.0
H1473 H 0.82084 0.08527 0.17677 0.0
H1474 H 0.82159 0.08299 0.05352 0.0
H1475 H 0.83723 0.07692 0.12842 0.0
H1476 H 0.81256 0.00207 0.05571 0.0
H1477 H 0.81484 0.00513 0.88876 0.0
H1478 H 0.80642 0.05597 0.9144 0.0
C1479 C 0.80465 0.05045 0.2932 0.0
C1480 C 0.80673 0.03949 0.36353 0.0
C1481 C 0.8094 0.02331 0.33883 0.0
C1482 C 0.80988 0.018 0.24567 0.0
C1483 C 0.8077 0.02905 0.178 0.0
C1484 C 0.80526 0.04502 0.20048 0.0
C1485 C 0.80396 0.0548 0.1144 0.0
C1486 C 0.78276 0.05368 0.10088 0.0
C1487 C 0.82198 0.07627 0.11855 0.0
C1488 C 0.80618 0.04191 0.03976 0.0
C1489 C 0.80818 0.02708 0.07845 0.0
C1490 C 0.81097 0.01357 1.02485 0.0
C1491 C 0.81224 0.01546 0.92985 0.0
C1492 C 0.81073 0.03074 0.88827 0.0
C1493 C 0.80731 0.04398 0.94394 0.0
H1494 H 0.65044 0.55696 0.94774 0.0
H1495 H 0.71562 0.57351 0.97136 0.0
H1496 H 0.71603 0.57557 0.14007 0.0
H1497 H 0.65426 0.58906 0.15693 0.0
H1498 H 0.62911 0.57123 0.19111 0.0
H1499 H 0.634 0.57238 0.07083 0.0
H1500 H 0.6227 0.53535 0.0595 0.0
H1501 H 0.61815 0.53416 0.18011 0.0
H1502 H 0.63563 0.52669 0.13616 0.0
H1503 H 0.70953 0.57335 0.30606 0.0
H1504 H 0.69696 0.57017 0.46137 0.0
H1505 H 0.6361 0.55581 0.34201 0.0
C1506 C 0.66491 0.56159 0.98857 0.0
C1507 C 0.68312 0.56526 0.94498 0.0
C1508 C 0.7015 0.57071 1.00195 0.0
C1509 C 0.70191 0.57187 0.09851 0.0
C1510 C 0.68378 0.56761 0.13944 0.0
C1511 C 0.66564 0.5629 0.08695 0.0
C1512 C 0.64837 0.5587 0.15083 0.0
C1513 C 0.641 0.57374 0.1419 0.0
C1514 C 0.63013 0.53746 0.1304 0.0
C1515 C 0.65962 0.56146 0.24624 0.0
C1516 C 0.68003 0.56653 0.23719 0.0
C1517 C 0.69355 0.56939 0.31394 0.0
C1518 C 0.68619 0.56722 0.40233 0.0
C1519 C 0.66546 0.56224 0.41486 0.0
C1520 C 0.65204 0.55948 0.33513 0.0
H1521 H 0.45447 0.15343 0.4491 0.0
H1522 H 0.47635 0.11147 0.44932 0.0
H1523 H 0.47986 0.11329 0.28302 0.0
H1524 H 0.42399 0.13438 0.23025 0.0
H1525 H 0.43006 0.158 0.19135 0.0
H1526 H 0.43036 0.15481 0.31309 0.0
H1527 H 0.46829 0.18384 0.3377 0.0
H1528 H 0.46805 0.18722 0.2161 0.0
H1529 H 0.48787 0.18342 0.27094 0.0
H1530 H 0.48025 0.11824 0.11657 0.0
H1531 H 0.47813 0.1269 0.95759 0.0
H1532 H 0.45499 0.16503 0.05337 0.0
C1533 C 0.46038 0.14497 0.41418 0.0
C1534 C 0.46529 0.13238 0.46335 0.0
C1535 C 0.47251 0.12124 0.41412 0.0
C1536 C 0.47457 0.12215 0.3191 0.0
C1537 C 0.46927 0.13424 0.27218 0.0
C1538 C 0.46238 0.14555 0.31742 0.0
C1539 C 0.45714 0.15674 0.24766 0.0
C1540 C 0.43401 0.15061 0.24548 0.0
C1541 C 0.47118 0.17914 0.26941 0.0
C1542 C 0.46208 0.14979 0.15715 0.0
C1543 C 0.46912 0.13686 0.17379 0.0
C1544 C 0.47475 0.12837 0.10263 0.0
C1545 C 0.47337 0.13329 1.01206 0.0
C1546 C 0.46619 0.14646 0.99195 0.0
C1547 C 0.46042 0.1548 0.06603 0.0
H1548 H 0.89294 0.33882 0.06847 0.0
H1549 H 0.93233 0.39944 1.00469 0.0
H1550 H 0.9408 0.40995 0.1708 0.0
H1551 H 0.87247 0.35003 0.27047 0.0
H1552 H 0.87261 0.33115 0.3359 0.0
H1553 H 0.86945 0.32789 0.21158 0.0
H1554 H 0.90103 0.32252 0.20967 0.0
H1555 H 0.90417 0.3256 0.33395 0.0
H1556 H 0.92563 0.34088 0.26818 0.0
H1557 H 0.94533 0.41431 0.34149 0.0
H1558 H 0.94728 0.41234 0.50916 0.0
H1559 H 0.90469 0.34911 0.4723 0.0
C1560 C 0.90339 0.35429 0.08969 0.0
C1561 C 0.91207 0.36831 1.02282 0.0
C1562 C 0.92561 0.38839 0.0538 0.0
C1563 C 0.93044 0.39454 0.14836 0.0
C1564 C 0.92154 0.38048 0.21225 0.0
C1565 C 0.90838 0.36075 0.18475 0.0
C1566 C 0.90126 0.34882 0.26911 0.0
C1567 C 0.87753 0.33888 0.2719 0.0
C1568 C 0.90845 0.33355 0.27028 0.0
C1569 C 0.91255 0.36495 0.34804 0.0
C1570 C 0.92406 0.38306 0.31265 0.0
C1571 C 0.93632 0.40023 0.36987 0.0
C1572 C 0.93728 0.39894 0.46542 0.0
C1573 C 0.92601 0.38065 0.50459 0.0
C1574 C 0.91316 0.36338 0.44486 0.0
H1575 H 0.66251 0.13193 0.03778 0.0
H1576 H 0.70745 0.19478 0.07651 0.0
H1577 H 0.70607 0.19384 0.24305 0.0
H1578 H 0.63163 0.13166 0.22845 0.0
H1579 H 0.62692 0.10832 0.26618 0.0
H1580 H 0.63087 0.11324 0.14692 0.0
H1581 H 0.66078 0.10554 0.15538 0.0
H1582 H 0.65704 0.10073 0.27485 0.0
H1583 H 0.68225 0.11881 0.24225 0.0
H1584 H 0.70059 0.18755 0.40547 0.0
H1585 H 0.69126 0.17532 0.55856 0.0
H1586 H 0.65008 0.11624 0.42998 0.0
C1587 C 0.672 0.14543 0.08142 0.0
C1588 C 0.68511 0.1635 0.04198 0.0
C1589 C 0.69725 0.18073 0.10294 0.0
C1590 C 0.69661 0.18042 0.19873 0.0
C1591 C 0.68374 0.16271 0.23546 0.0
C1592 C 0.67161 0.14544 0.17958 0.0
C1593 C 0.6593 0.12855 0.24035 0.0
C1594 C 0.63578 0.11993 0.2192 0.0
C1595 C 0.6652 0.11245 0.22742 0.0
C1596 C 0.66659 0.13919 0.33781 0.0
C1597 C 0.68065 0.15893 0.33216 0.0
C1598 C 0.68964 0.17208 0.41092 0.0
C1599 C 0.68428 0.16499 0.49808 0.0
C1600 C 0.67009 0.14485 0.50747 0.0
C1601 C 0.66105 0.13175 0.42559 0.0
H1602 H 0.87699 0.5629 0.0815 0.0
H1603 H 0.92622 0.55303 0.99496 0.0
H1604 H 0.93702 0.55301 0.158 0.0
H1605 H 0.9066 0.59581 0.28761 0.0
H1606 H 0.88469 0.58638 0.35692 0.0
H1607 H 0.88063 0.58573 0.23342 0.0
H1608 H 0.8551 0.54811 0.22618 0.0
H1609 H 0.85916 0.54864 0.34961 0.0
H1610 H 0.86362 0.53237 0.27483 0.0
H1611 H 0.94164 0.55238 0.32835 0.0
H1612 H 0.94217 0.55385 0.49663 0.0
H1613 H 0.89104 0.56576 0.48433 0.0
C1614 C 0.89012 0.56084 0.09715 0.0
C1615 C 0.90104 0.55834 1.02458 0.0
C1616 C 0.91801 0.55556 0.0484 0.0
C1617 C 0.9241 0.5553 0.14123 0.0
C1618 C 0.91315 0.55789 0.2108 0.0
C1619 C 0.89662 0.56079 0.19041 0.0
C1620 C 0.88787 0.56353 0.27972 0.0
C1621 C 0.89008 0.58409 0.29001 0.0
C1622 C 0.86508 0.54719 0.28273 0.0
C1623 C 0.90199 0.56157 0.35333 0.0
C1624 C 0.91627 0.55813 0.31092 0.0
C1625 C 0.93066 0.55526 0.36207 0.0
C1626 C 0.93078 0.55613 0.45857 0.0
C1627 C 0.91682 0.56013 0.50571 0.0
C1628 C 0.90205 0.5628 0.4515 0.0
H1629 H 0.45112 0.33519 1.02602 0.0
H1630 H 0.4782 0.39613 0.96073 0.0
H1631 H 0.48031 0.40647 0.12546 0.0
H1632 H 0.42033 0.33774 0.2071 0.0
H1633 H 0.42471 0.32198 0.27982 0.0
H1634 H 0.4251 0.31909 0.1565 0.0
H1635 H 0.46196 0.32357 0.17859 0.0
H1636 H 0.46174 0.32661 0.302 0.0
H1637 H 0.48249 0.34537 0.24361 0.0
H1638 H 0.47934 0.41052 0.29554 0.0
H1639 H 0.47459 0.40826 0.46122 0.0
H1640 H 0.44901 0.34489 0.42623 0.0
C1641 C 0.45746 0.35071 0.04655 0.0
C1642 C 0.46434 0.36485 0.97948 0.0
C1643 C 0.47262 0.38498 1.00978 0.0
C1644 C 0.47399 0.39102 0.10365 0.0
C1645 C 0.46721 0.37681 0.16776 0.0
C1646 C 0.45908 0.35705 0.14092 0.0
C1647 C 0.45285 0.34494 0.22506 0.0
C1648 C 0.42935 0.33006 0.2166 0.0
C1649 C 0.46552 0.3345 0.23806 0.0
C1650 C 0.45869 0.36098 0.30318 0.0
C1651 C 0.46695 0.37922 0.26763 0.0
C1652 C 0.473 0.39634 0.32399 0.0
C1653 C 0.47023 0.39487 0.41849 0.0
C1654 C 0.46163 0.37647 0.45774 0.0
C1655 C 0.45602 0.35924 0.39907 0.0
H1656 H 0.36913 0.89923 0.53464 0.0
H1657 H 0.38083 0.95933 0.5453 0.0
H1658 H 0.37702 0.95906 0.71173 0.0
H1659 H 0.33104 0.88207 0.71147 0.0
H1660 H 0.34052 0.86729 0.76274 0.0
H1661 H 0.34289 0.87137 0.642 0.0
H1662 H 0.38258 0.88512 0.66679 0.0
H1663 H 0.38033 0.88118 0.78767 0.0
H1664 H 0.39793 0.90536 0.75266 0.0
H1665 H 0.37286 0.95334 0.87759 0.0
H1666 H 0.36836 0.94204 0.03438 0.0
H1667 H 0.36067 0.88602 0.92733 0.0
C1668 C 0.37054 0.91216 0.572 0.0
C1669 C 0.37518 0.9293 0.52586 0.0
C1670 C 0.37729 0.94602 0.57819 0.0
C1671 C 0.37514 0.94605 0.67329 0.0
C1672 C 0.37099 0.92925 0.71718 0.0
C1673 C 0.36869 0.91255 0.66885 0.0
C1674 C 0.365 0.89685 0.73556 0.0
C1675 C 0.34359 0.87829 0.7115 0.0
C1676 C 0.3825 0.89183 0.73565 0.0
C1677 C 0.36566 0.90741 0.82794 0.0
C1678 C 0.36906 0.92607 0.81496 0.0
C1679 C 0.37022 0.93875 0.88862 0.0
C1680 C 0.36775 0.93223 0.97789 0.0
C1681 C 0.36438 0.91324 0.99417 0.0
C1682 C 0.36336 0.90068 0.91761 0.0
H1683 H 0.14341 0.45212 0.83884 0.0
H1684 H 0.17338 0.51243 0.96075 0.0
H1685 H 0.17746 0.5244 0.8053 0.0
H1686 H 0.1757 0.46231 0.64329 0.0
H1687 H 0.1547 0.44499 0.56152 0.0
H1688 H 0.15398 0.44069 0.68217 0.0
H1689 H 0.11816 0.43847 0.68302 0.0
H1690 H 0.11879 0.44273 0.56235 0.0
H1691 H 0.11526 0.45853 0.64449 0.0
H1692 H 0.17828 0.53022 0.6409 0.0
H1693 H 0.17579 0.5304 0.47356 0.0
H1694 H 0.14544 0.46636 0.44414 0.0
C1695 C 0.15086 0.46785 0.83248 0.0
C1696 C 0.15784 0.4814 0.91283 0.0
C1697 C 0.16751 0.5018 0.9012 0.0
C1698 C 0.17005 0.50872 0.81279 0.0
C1699 C 0.16291 0.4951 0.73543 0.0
C1700 C 0.15351 0.47507 0.74366 0.0
C1701 C 0.14714 0.46384 0.64755 0.0
C1702 C 0.15857 0.45227 0.63278 0.0
C1703 C 0.12342 0.45008 0.63354 0.0
C1704 C 0.15442 0.48075 0.58434 0.0
C1705 C 0.16348 0.49855 0.63788 0.0
C1706 C 0.17125 0.51639 0.59844 0.0
C1707 C 0.16968 0.51625 0.5023 0.0
C1708 C 0.16041 0.49844 0.44386 0.0
C1709 C 0.15275 0.48029 0.48595 0.0
H1710 H 0.59122 0.69512 0.97845 0.0
H1711 H 0.55632 0.72598 0.97551 0.0
H1712 H 0.55402 0.72375 0.80724 0.0
H1713 H 0.62103 0.71805 0.78569 0.0
H1714 H 0.62012 0.69619 0.735 0.0
H1715 H 0.61862 0.69902 0.85748 0.0
H1716 H 0.58398 0.66581 0.8474 0.0
H1717 H 0.5855 0.66278 0.72493 0.0
H1718 H 0.56273 0.6619 0.76755 0.0
H1719 H 0.55523 0.71917 0.63986 0.0
H1720 H 0.56037 0.71226 0.4793 0.0
H1721 H 0.59531 0.68507 0.57751 0.0
C1722 C 0.58294 0.7012 0.94219 0.0
C1723 C 0.57392 0.71074 0.99193 0.0
C1724 C 0.56344 0.71864 0.94068 0.0
C1725 C 0.56198 0.71745 0.84419 0.0
C1726 C 0.57112 0.70832 0.7973 0.0
C1727 C 0.58141 0.70026 0.84373 0.0
C1728 C 0.59004 0.69161 0.77359 0.0
C1729 C 0.61387 0.70184 0.78888 0.0
C1730 C 0.57997 0.66919 0.77868 0.0
C1731 C 0.58324 0.69645 0.68191 0.0
C1732 C 0.57216 0.70593 0.69816 0.0
C1733 C 0.5639 0.71176 0.62611 0.0
C1734 C 0.56691 0.70779 0.53478 0.0
C1735 C 0.57829 0.69822 0.51497 0.0
C1736 C 0.58664 0.69253 0.5901 0.0
H1737 H 0.3788 0.5024 0.92911 0.0
H1738 H 0.31196 0.4622 0.90342 0.0
H1739 H 0.31173 0.46154 0.73494 0.0
H1740 H 0.37827 0.5307 0.73657 0.0
H1741 H 0.40246 0.53443 0.69699 0.0
H1742 H 0.3979 0.53151 0.81721 0.0
H1743 H 0.40523 0.50253 0.81123 0.0
H1744 H 0.4097 0.50529 0.69082 0.0
H1745 H 0.3905 0.48181 0.72701 0.0
H1746 H 0.31816 0.4637 0.5681 0.0
H1747 H 0.33056 0.47195 0.41337 0.0
H1748 H 0.39278 0.51262 0.53801 0.0
C1749 C 0.36414 0.49355 0.88789 0.0
C1750 C 0.3454 0.4822 0.9309 0.0
C1751 C 0.32659 0.47096 0.87357 0.0
C1752 C 0.32625 0.47041 0.77703 0.0
C1753 C 0.34482 0.48144 0.7368 0.0
C1754 C 0.36341 0.49309 0.78994 0.0
C1755 C 0.3809 0.50407 0.72734 0.0
C1756 C 0.39045 0.52651 0.74563 0.0
C1757 C 0.39757 0.49807 0.73986 0.0
C1758 C 0.36915 0.49671 0.63156 0.0
C1759 C 0.3484 0.48341 0.6392 0.0
C1760 C 0.33438 0.47417 0.56128 0.0
C1761 C 0.34161 0.47881 0.47323 0.0
C1762 C 0.36265 0.49277 0.46275 0.0
C1763 C 0.37659 0.50184 0.54351 0.0
H1764 H 0.57399 0.89511 0.97852 0.0
H1765 H 0.57018 0.94517 0.09228 0.0
H1766 H 0.57083 0.9563 0.93625 0.0
H1767 H 0.60858 0.92053 0.80111 0.0
H1768 H 0.59612 0.89992 0.71484 0.0
H1769 H 0.59548 0.89566 0.83553 0.0
H1770 H 0.55529 0.87502 0.81493 0.0
H1771 H 0.55581 0.87929 0.69422 0.0
H1772 H 0.54083 0.88578 0.76683 0.0
H1773 H 0.57171 0.96217 0.7709 0.0
H1774 H 0.57373 0.96358 0.60427 0.0
H1775 H 0.57668 0.90961 0.58524 0.0
C1776 C 0.57331 0.90843 0.9703 0.0
C1777 C 0.57248 0.91956 0.04869 0.0
C1778 C 0.57147 0.93677 0.03457 0.0
C1779 C 0.57158 0.94306 0.94566 0.0
C1780 C 0.57255 0.93193 0.87027 0.0
C1781 C 0.57342 0.91497 0.88105 0.0
C1782 C 0.57453 0.906 0.78705 0.0
C1783 C 0.59489 0.9055 0.78451 0.0
C1784 C 0.55548 0.88529 0.76444 0.0
C1785 C 0.57418 0.9206 0.72198 0.0
C1786 C 0.57297 0.93533 0.77263 0.0
C1787 C 0.57264 0.95071 0.73072 0.0
C1788 C 0.57382 0.95133 0.63518 0.0
C1789 C 0.57536 0.93674 0.58012 0.0
C1790 C 0.57534 0.92094 0.6245 0.0
H1791 H 0.1399 0.67372 0.55403 0.0
H1792 H 0.16537 0.73389 0.48047 0.0
H1793 H 0.16822 0.7452 0.64448 0.0
H1794 H 0.10947 0.67737 0.73827 0.0
H1795 H 0.1143 0.66208 0.81235 0.0
H1796 H 0.11389 0.6584 0.68892 0.0
H1797 H 0.15077 0.66284 0.70771 0.0
H1798 H 0.15134 0.66666 0.83116 0.0
H1799 H 0.17167 0.68495 0.76916 0.0
H1800 H 0.17013 0.75052 0.81613 0.0
H1801 H 0.16814 0.74964 0.98351 0.0
H1802 H 0.14005 0.68586 0.95578 0.0
C1803 C 0.1459 0.68925 0.57264 0.0
C1804 C 0.1519 0.70289 0.50315 0.0
C1805 C 0.15988 0.72307 0.53093 0.0
C1806 C 0.16185 0.72966 0.62458 0.0
C1807 C 0.15575 0.71594 0.69103 0.0
C1808 C 0.1477 0.69609 0.66662 0.0
C1809 C 0.14202 0.68455 0.75291 0.0
C1810 C 0.11853 0.66972 0.74779 0.0
C1811 C 0.15471 0.67413 0.76598 0.0
C1812 C 0.14833 0.70103 0.8295 0.0
C1813 C 0.15637 0.71899 0.79135 0.0
C1814 C 0.16368 0.73652 0.84638 0.0
C1815 C 0.16248 0.73582 0.94219 0.0
C1816 C 0.1538 0.71771 0.98441 0.0
C1817 C 0.14677 0.69999 0.92659 0.0
loop_
_geom_bond_atom_site_label_1
_geom_bond_atom_site_label_2
_geom_bond_distance
_geom_bond_site_symmetry_2
_ccdc_geom_bond_type
Tb0 O3 2.453 1_655 S
Tb0 O4 2.596 1_655 S
Tb0 O5 2.374 1_655 S
Tb0 O13 2.343 1_655 S
Tb0 O15 2.353 . S
Tb0 O17 2.427 . S
Tb0 O18 2.513 . S
C1 O5 1.251 . S
C1 O7 1.263 . S
Tb2 O4 2.343 . S
Tb2 O7 2.353 . S
Tb2 O10 2.427 . S
Tb2 O11 2.513 . S
Tb2 O12 2.453 . S
Tb2 O13 2.596 . S
Tb2 O14 2.374 . S
O3 Tb0 2.453 1_455 S
O3 C19 1.245 . S
O4 Tb0 2.596 1_455 S
O4 Tb2 2.343 . S
O4 C19 1.259 . S
O5 Tb0 2.374 1_455 S
O5 C1 1.251 . S
C6 O10 1.275 . S
C6 O11 1.246 . S
O7 C1 1.263 . S
O7 Tb2 2.353 . S
C8 O12 1.245 . S
C8 O13 1.259 . S
C9 O14 1.250 1_655 S
C9 O15 1.263 . S
O10 Tb2 2.427 . S
O10 C6 1.275 . S
O11 Tb2 2.513 . S
O11 C6 1.246 . S
O12 Tb2 2.453 . S
O12 C8 1.245 . S
O13 Tb0 2.343 1_455 S
O13 Tb2 2.596 . S
O13 C8 1.259 . S
O14 Tb2 2.374 . S
O14 C9 1.250 1_455 S
O15 Tb0 2.353 . S
O15 C9 1.263 . S
C16 O17 1.275 . S
C16 O18 1.246 . S
O17 Tb0 2.427 . S
O17 C16 1.275 . S
O18 Tb0 2.513 . S
O18 C16 1.246 . S
C19 O3 1.245 . S
C19 O4 1.259 . S
Tb20 O23 2.453 . S
Tb20 O24 2.596 . S
Tb20 O25 2.374 . S
Tb20 O33 2.343 . S
Tb20 O35 2.353 . S
Tb20 O37 2.427 . S
Tb20 O38 2.513 . S
C21 O25 1.251 . S
C21 O27 1.263 . S
Tb22 O24 2.343 . S
Tb22 O27 2.353 . S
Tb22 O30 2.427 . S
Tb22 O31 2.513 . S
Tb22 O32 2.453 . S
Tb22 O33 2.596 . S
Tb22 O34 2.374 . S
O23 Tb20 2.453 . S
O23 C39 1.245 . S
O24 Tb20 2.596 . S
O24 Tb22 2.343 . S
O24 C39 1.259 . S
O25 Tb20 2.374 . S
O25 C21 1.251 . S
C26 O30 1.275 . S
C26 O31 1.246 . S
O27 C21 1.263 . S
O27 Tb22 2.353 . S
C28 O32 1.245 . S
C28 O33 1.259 . S
C29 O34 1.250 . S
C29 O35 1.263 . S
O30 Tb22 2.427 . S
O30 C26 1.275 . S
O31 Tb22 2.513 . S
O31 C26 1.246 . S
O32 Tb22 2.453 . S
O32 C28 1.245 . S
O33 Tb20 2.343 . S
O33 Tb22 2.596 . S
O33 C28 1.259 . S
O34 Tb22 2.374 . S
O34 C29 1.250 . S
O35 Tb20 2.353 . S
O35 C29 1.263 . S
C36 O37 1.275 . S
C36 O38 1.246 . S
O37 Tb20 2.427 . S
O37 C36 1.275 . S
O38 Tb20 2.513 . S
O38 C36 1.246 . S
C39 O23 1.245 . S
C39 O24 1.259 . S
Tb40 O43 2.453 . S
Tb40 O44 2.596 . S
Tb40 O45 2.374 . S
Tb40 O53 2.343 . S
Tb40 O55 2.353 . S
Tb40 O57 2.427 . S
Tb40 O58 2.513 . S
C41 O45 1.251 1_565 S
C41 O47 1.263 . S
Tb42 O44 2.343 . S
Tb42 O47 2.353 1_545 S
Tb42 O50 2.427 1_545 S
Tb42 O51 2.513 1_545 S
Tb42 O52 2.453 . S
Tb42 O53 2.596 . S
Tb42 O54 2.374 . S
O43 Tb40 2.453 . S
O43 C59 1.245 . S
O44 Tb40 2.596 . S
O44 Tb42 2.343 . S
O44 C59 1.259 . S
O45 Tb40 2.374 . S
O45 C41 1.251 1_545 S
C46 O50 1.275 . S
C46 O51 1.246 . S
O47 C41 1.263 . S
O47 Tb42 2.353 1_565 S
C48 O52 1.245 . S
C48 O53 1.259 . S
C49 O54 1.250 . S
C49 O55 1.263 . S
O50 Tb42 2.427 1_565 S
O50 C46 1.275 . S
O51 Tb42 2.513 1_565 S
O51 C46 1.246 . S
O52 Tb42 2.453 . S
O52 C48 1.245 . S
O53 Tb40 2.343 . S
O53 Tb42 2.596 . S
O53 C48 1.259 . S
O54 Tb42 2.374 . S
O54 C49 1.250 . S
O55 Tb40 2.353 . S
O55 C49 1.263 . S
C56 O57 1.275 . S
C56 O58 1.246 . S
O57 Tb40 2.427 . S
O57 C56 1.275 . S
O58 Tb40 2.513 . S
O58 C56 1.246 . S
C59 O43 1.245 . S
C59 O44 1.259 . S
Tb60 O63 2.453 . S
Tb60 O64 2.596 1_655 S
Tb60 O65 2.374 1_655 S
Tb60 O73 2.343 1_655 S
Tb60 O75 2.353 . S
Tb60 O77 2.427 . S
Tb60 O78 2.513 . S
C61 O65 1.251 . S
C61 O67 1.263 . S
Tb62 O64 2.343 . S
Tb62 O67 2.353 . S
Tb62 O70 2.427 . S
Tb62 O71 2.513 . S
Tb62 O72 2.453 . S
Tb62 O73 2.596 . S
Tb62 O74 2.439 . S
O63 Tb60 2.453 . S
O63 C79 1.245 1_655 S
O64 Tb60 2.596 1_455 S
O64 Tb62 2.343 . S
O64 C79 1.259 . S
O65 Tb60 2.374 1_455 S
O65 C61 1.251 . S
C66 O70 1.275 . S
C66 O71 1.246 . S
O67 C61 1.263 . S
O67 Tb62 2.353 . S
C68 O72 1.245 . S
C68 O73 1.259 . S
C69 O74 1.209 1_655 S
C69 O75 1.263 . S
O70 Tb62 2.427 . S
O70 C66 1.275 . S
O71 Tb62 2.513 . S
O71 C66 1.246 . S
O72 Tb62 2.453 . S
O72 C68 1.245 . S
O73 Tb60 2.343 1_455 S
O73 Tb62 2.596 . S
O73 C68 1.259 . S
O74 Tb62 2.439 . S
O74 C69 1.209 1_455 S
O75 Tb60 2.353 . S
O75 C69 1.263 . S
C76 O77 1.275 . S
C76 O78 1.246 . S
O77 Tb60 2.427 . S
O77 C76 1.275 . S
O78 Tb60 2.513 . S
O78 C76 1.246 . S
C79 O63 1.245 1_455 S
C79 O64 1.259 . S
Tb80 O83 2.453 . S
Tb80 O84 2.596 . S
Tb80 O85 2.374 . S
Tb80 O93 2.343 . S
Tb80 O95 2.353 . S
Tb80 O97 2.427 . S
Tb80 O98 2.513 . S
C81 O85 1.251 . S
C81 O87 1.263 . S
Tb82 O84 2.343 . S
Tb82 O87 2.353 . S
Tb82 O90 2.427 . S
Tb82 O91 2.513 . S
Tb82 O92 2.453 . S
Tb82 O93 2.596 . S
Tb82 O94 2.374 . S
O83 Tb80 2.453 . S
O83 C99 1.245 . S
O84 Tb80 2.596 . S
O84 Tb82 2.343 . S
O84 C99 1.259 . S
O85 Tb80 2.374 . S
O85 C81 1.251 . S
C86 O90 1.275 . S
C86 O91 1.246 . S
O87 C81 1.263 . S
O87 Tb82 2.353 . S
C88 O92 1.245 . S
C88 O93 1.259 . S
C89 O94 1.250 . S
C89 O95 1.263 . S
O90 Tb82 2.427 . S
O90 C86 1.275 . S
O91 Tb82 2.513 . S
O91 C86 1.246 . S
O92 Tb82 2.453 . S
O92 C88 1.245 . S
O93 Tb80 2.343 . S
O93 Tb82 2.596 . S
O93 C88 1.259 . S
O94 Tb82 2.374 . S
O94 C89 1.250 . S
O95 Tb80 2.353 . S
O95 C89 1.263 . S
C96 O97 1.275 . S
C96 O98 1.246 . S
O97 Tb80 2.427 . S
O97 C96 1.275 . S
O98 Tb80 2.513 . S
O98 C96 1.246 . S
C99 O83 1.245 . S
C99 O84 1.259 . S
Tb100 O103 2.453 . S
Tb100 O104 2.596 . S
Tb100 O105 2.374 . S
Tb100 O113 2.343 . S
Tb100 O115 2.353 . S
Tb100 O117 2.427 . S
Tb100 O118 2.513 . S
C101 O105 1.251 . S
C101 O107 1.263 1_545 S
Tb102 O104 2.343 . S
Tb102 O107 2.353 1_545 S
Tb102 O110 2.427 1_545 S
Tb102 O111 2.513 . S
Tb102 O112 2.453 . S
Tb102 O113 2.596 . S
Tb102 O114 2.374 . S
O103 Tb100 2.453 . S
O103 C119 1.245 . S
O104 Tb100 2.596 . S
O104 Tb102 2.343 . S
O104 C119 1.259 . S
O105 Tb100 2.374 . S
O105 C101 1.251 . S
C106 O110 1.275 . S
C106 O111 1.246 1_565 S
O107 C101 1.263 1_565 S
O107 Tb102 2.353 1_565 S
C108 O112 1.245 . S
C108 O113 1.259 . S
C109 O114 1.250 . S
C109 O115 1.263 . S
O110 Tb102 2.427 1_565 S
O110 C106 1.275 . S
O111 Tb102 2.513 . S
O111 C106 1.246 1_545 S
O112 Tb102 2.453 . S
O112 C108 1.245 . S
O113 Tb100 2.343 . S
O113 Tb102 2.596 . S
O113 C108 1.259 . S
O114 Tb102 2.374 . S
O114 C109 1.250 . S
O115 Tb100 2.353 . S
O115 C109 1.263 . S
C116 O117 1.275 . S
C116 O118 1.246 . S
O117 Tb100 2.427 . S
O117 C116 1.275 . S
O118 Tb100 2.513 . S
O118 C116 1.246 . S
C119 O103 1.245 . S
C119 O104 1.259 . S
Tb120 O123 2.453 . S
Tb120 O124 2.596 . S
Tb120 O125 2.374 . S
Tb120 O133 2.343 . S
Tb120 O135 2.353 . S
Tb120 O137 2.427 . S
Tb120 O138 2.513 . S
C121 O125 1.251 . S
C121 O127 1.263 . S
Tb122 O124 2.343 . S
Tb122 O127 2.353 . S
Tb122 O130 2.427 . S
Tb122 O131 2.513 . S
Tb122 O132 2.453 . S
Tb122 O133 2.596 . S
Tb122 O134 2.374 . S
O123 Tb120 2.453 . S
O123 C139 1.245 . S
O124 Tb120 2.596 . S
O124 Tb122 2.343 . S
O124 C139 1.259 . S
O125 Tb120 2.374 . S
O125 C121 1.251 . S
C126 O130 1.275 . S
C126 O131 1.246 . S
O127 C121 1.263 . S
O127 Tb122 2.353 . S
C128 O132 1.245 . S
C128 O133 1.259 . S
C129 O134 1.250 . S
C129 O135 1.263 . S
O130 Tb122 2.427 . S
O130 C126 1.275 . S
O131 Tb122 2.513 . S
O131 C126 1.246 . S
O132 Tb122 2.453 . S
O132 C128 1.245 . S
O133 Tb120 2.343 . S
O133 Tb122 2.596 . S
O133 C128 1.259 . S
O134 Tb122 2.374 . S
O134 C129 1.250 . S
O135 Tb120 2.353 . S
O135 C129 1.263 . S
C136 O137 1.275 . S
C136 O138 1.246 . S
O137 Tb120 2.427 . S
O137 C136 1.275 . S
O138 Tb120 2.513 . S
O138 C136 1.246 . S
C139 O123 1.245 . S
C139 O124 1.259 . S
Tb140 O143 2.453 . S
Tb140 O144 2.596 . S
Tb140 O145 2.374 . S
Tb140 O153 2.343 . S
Tb140 O155 2.353 . S
Tb140 O157 2.427 . S
Tb140 O158 2.513 . S
C141 O145 1.251 . S
C141 O147 1.263 . S
Tb142 O144 2.343 . S
Tb142 O147 2.353 . S
Tb142 O150 2.427 . S
Tb142 O151 2.513 . S
Tb142 O152 2.453 . S
Tb142 O153 2.596 . S
Tb142 O154 2.374 . S
O143 Tb140 2.453 . S
O143 C159 1.245 . S
O144 Tb140 2.596 . S
O144 Tb142 2.343 . S
O144 C159 1.259 . S
O145 Tb140 2.374 . S
O145 C141 1.251 . S
C146 O150 1.275 . S
C146 O151 1.246 . S
O147 C141 1.263 . S
O147 Tb142 2.353 . S
C148 O152 1.245 . S
C148 O153 1.259 . S
C149 O154 1.250 . S
C149 O155 1.263 . S
O150 Tb142 2.427 . S
O150 C146 1.275 . S
O151 Tb142 2.513 . S
O151 C146 1.246 . S
O152 Tb142 2.453 . S
O152 C148 1.245 . S
O153 Tb140 2.343 . S
O153 Tb142 2.596 . S
O153 C148 1.259 . S
O154 Tb142 2.374 . S
O154 C149 1.250 . S
O155 Tb140 2.353 . S
O155 C149 1.263 . S
C156 O157 1.275 . S
C156 O158 1.246 . S
O157 Tb140 2.427 . S
O157 C156 1.275 . S
O158 Tb140 2.513 . S
O158 C156 1.246 . S
C159 O143 1.245 . S
C159 O144 1.259 . S
Tb160 O163 2.453 . S
Tb160 O164 2.596 . S
Tb160 O165 2.374 . S
Tb160 O173 2.343 . S
Tb160 O175 2.353 . S
Tb160 O177 2.427 . S
Tb160 O178 2.513 . S
C161 O165 1.251 . S
C161 O167 1.263 . S
Tb162 O164 2.343 . S
Tb162 O167 2.353 . S
Tb162 O170 2.427 . S
Tb162 O171 2.513 . S
Tb162 O172 2.453 . S
Tb162 O173 2.596 . S
Tb162 O174 2.374 . S
O163 Tb160 2.453 . S
O163 C179 1.245 . S
O164 Tb160 2.596 . S
O164 Tb162 2.343 . S
O164 C179 1.259 . S
O165 Tb160 2.374 . S
O165 C161 1.251 . S
C166 O170 1.275 . S
C166 O171 1.246 . S
O167 C161 1.263 . S
O167 Tb162 2.353 . S
C168 O172 1.245 . S
C168 O173 1.259 . S
C169 O174 1.250 . S
C169 O175 1.263 . S
O170 Tb162 2.427 . S
O170 C166 1.275 . S
O171 Tb162 2.513 . S
O171 C166 1.246 . S
O172 Tb162 2.453 . S
O172 C168 1.245 . S
O173 Tb160 2.343 . S
O173 Tb162 2.596 . S
O173 C168 1.259 . S
O174 Tb162 2.374 . S
O174 C169 1.250 . S
O175 Tb160 2.353 . S
O175 C169 1.263 . S
C176 O177 1.275 . S
C176 O178 1.246 . S
O177 Tb160 2.427 . S
O177 C176 1.275 . S
O178 Tb160 2.513 . S
O178 C176 1.246 . S
C179 O163 1.245 . S
C179 O164 1.259 . S
Tb180 O183 2.453 . S
Tb180 O184 2.596 . S
Tb180 O185 2.374 . S
Tb180 O193 2.343 . S
Tb180 O195 2.353 . S
Tb180 O197 2.427 . S
Tb180 O198 2.513 . S
C181 O185 1.251 . S
C181 O187 1.263 . S
Tb182 O184 2.343 . S
Tb182 O187 2.353 . S
Tb182 O190 2.427 . S
Tb182 O191 2.513 . S
Tb182 O192 2.453 . S
Tb182 O193 2.596 . S
Tb182 O194 2.374 . S
O183 Tb180 2.453 . S
O183 C199 1.245 . S
O184 Tb180 2.596 . S
O184 Tb182 2.343 . S
O184 C199 1.259 . S
O185 Tb180 2.374 . S
O185 C181 1.251 . S
C186 O190 1.275 . S
C186 O191 1.246 . S
O187 C181 1.263 . S
O187 Tb182 2.353 . S
C188 O192 1.245 . S
C188 O193 1.259 . S
C189 O194 1.250 . S
C189 O195 1.263 . S
O190 Tb182 2.427 . S
O190 C186 1.275 . S
O191 Tb182 2.513 . S
O191 C186 1.246 . S
O192 Tb182 2.453 . S
O192 C188 1.245 . S
O193 Tb180 2.343 . S
O193 Tb182 2.596 . S
O193 C188 1.259 . S
O194 Tb182 2.374 . S
O194 C189 1.250 . S
O195 Tb180 2.353 . S
O195 C189 1.263 . S
C196 O197 1.275 . S
C196 O198 1.246 . S
O197 Tb180 2.427 . S
O197 C196 1.275 . S
O198 Tb180 2.513 . S
O198 C196 1.246 . S
C199 O183 1.245 . S
C199 O184 1.259 . S
Tb200 O203 2.453 . S
Tb200 O204 2.596 . S
Tb200 O205 2.374 . S
Tb200 O213 2.343 . S
Tb200 O215 2.353 . S
Tb200 O217 2.427 . S
Tb200 O218 2.513 . S
C201 O205 1.251 . S
C201 O207 1.263 . S
Tb202 O204 2.343 . S
Tb202 O207 2.353 . S
Tb202 O210 2.427 . S
Tb202 O211 2.513 . S
Tb202 O212 2.453 . S
Tb202 O213 2.596 . S
Tb202 O214 2.374 . S
O203 Tb200 2.453 . S
O203 C219 1.245 . S
O204 Tb200 2.596 . S
O204 Tb202 2.343 . S
O204 C219 1.259 . S
O205 Tb200 2.374 . S
O205 C201 1.251 . S
C206 O210 1.275 . S
C206 O211 1.246 . S
O207 C201 1.263 . S
O207 Tb202 2.353 . S
C208 O212 1.245 . S
C208 O213 1.259 . S
C209 O214 1.250 . S
C209 O215 1.263 . S
O210 Tb202 2.427 . S
O210 C206 1.275 . S
O211 Tb202 2.513 . S
O211 C206 1.246 . S
O212 Tb202 2.453 . S
O212 C208 1.245 . S
O213 Tb200 2.343 . S
O213 Tb202 2.596 . S
O213 C208 1.259 . S
O214 Tb202 2.374 . S
O214 C209 1.250 . S
O215 Tb200 2.353 . S
O215 C209 1.263 . S
C216 O217 1.275 . S
C216 O218 1.246 . S
O217 Tb200 2.427 . S
O217 C216 1.275 . S
O218 Tb200 2.513 . S
O218 C216 1.246 . S
C219 O203 1.245 . S
C219 O204 1.259 . S
Tb220 O223 2.453 . S
Tb220 O224 2.596 . S
Tb220 O225 2.374 . S
Tb220 O233 2.343 . S
Tb220 O235 2.353 . S
Tb220 O237 2.427 . S
Tb220 O238 2.513 . S
C221 O225 1.251 . S
C221 O227 1.263 . S
Tb222 O224 2.343 . S
Tb222 O227 2.353 . S
Tb222 O230 2.427 . S
Tb222 O231 2.513 . S
Tb222 O232 2.453 . S
Tb222 O233 2.596 . S
Tb222 O234 2.374 . S
O223 Tb220 2.453 . S
O223 C239 1.245 . S
O224 Tb220 2.596 . S
O224 Tb222 2.343 . S
O224 C239 1.259 . S
O225 Tb220 2.374 . S
O225 C221 1.251 . S
C226 O230 1.275 . S
C226 O231 1.246 . S
O227 C221 1.263 . S
O227 Tb222 2.353 . S
C228 O232 1.245 . S
C228 O233 1.259 . S
C229 O234 1.250 . S
C229 O235 1.263 . S
O230 Tb222 2.427 . S
O230 C226 1.275 . S
O231 Tb222 2.513 . S
O231 C226 1.246 . S
O232 Tb222 2.453 . S
O232 C228 1.245 . S
O233 Tb220 2.343 . S
O233 Tb222 2.596 . S
O233 C228 1.259 . S
O234 Tb222 2.374 . S
O234 C229 1.250 . S
O235 Tb220 2.353 . S
O235 C229 1.263 . S
C236 O237 1.275 . S
C236 O238 1.246 . S
O237 Tb220 2.427 . S
O237 C236 1.275 . S
O238 Tb220 2.513 . S
O238 C236 1.246 . S
C239 O223 1.245 . S
C239 O224 1.259 . S
Tb240 O243 2.453 1_554 S
Tb240 O244 2.596 . S
Tb240 O245 2.374 . S
Tb240 O253 2.343 . S
Tb240 O255 2.353 . S
Tb240 O257 2.427 . S
Tb240 O258 2.513 . S
C241 O245 1.251 . S
C241 O247 1.263 . S
Tb242 O244 2.343 . S
Tb242 O247 2.353 . S
Tb242 O250 2.427 . S
Tb242 O251 2.513 . S
Tb242 O252 2.453 . S
Tb242 O253 2.596 . S
Tb242 O254 2.374 . S
O243 Tb240 2.453 1_556 S
O243 C259 1.245 1_556 S
O244 Tb240 2.596 . S
O244 Tb242 2.343 . S
O244 C259 1.259 . S
O245 Tb240 2.374 . S
O245 C241 1.251 . S
C246 O250 1.275 . S
C246 O251 1.246 . S
O247 C241 1.263 . S
O247 Tb242 2.353 . S
C248 O252 1.245 . S
C248 O253 1.259 . S
C249 O254 1.250 . S
C249 O255 1.263 . S
O250 Tb242 2.427 . S
O250 C246 1.275 . S
O251 Tb242 2.513 . S
O251 C246 1.246 . S
O252 Tb242 2.453 . S
O252 C248 1.245 . S
O253 Tb240 2.343 . S
O253 Tb242 2.596 . S
O253 C248 1.259 . S
O254 Tb242 2.374 . S
O254 C249 1.250 . S
O255 Tb240 2.353 . S
O255 C249 1.263 . S
C256 O257 1.275 . S
C256 O258 1.246 . S
O257 Tb240 2.427 . S
O257 C256 1.275 . S
O258 Tb240 2.513 . S
O258 C256 1.246 . S
C259 O243 1.245 1_554 S
C259 O244 1.259 . S
Tb260 O263 2.453 . S
Tb260 O264 2.596 . S
Tb260 O265 2.374 . S
Tb260 O273 2.343 . S
Tb260 O275 2.353 . S
Tb260 O277 2.427 . S
Tb260 O278 2.513 . S
C261 O265 1.251 . S
C261 O267 1.263 . S
Tb262 O264 2.343 . S
Tb262 O267 2.353 . S
Tb262 O270 2.427 . S
Tb262 O271 2.513 . S
Tb262 O272 2.453 1_554 S
Tb262 O273 2.596 . S
Tb262 O274 2.374 . S
O263 Tb260 2.453 . S
O263 C279 1.245 . S
O264 Tb260 2.596 . S
O264 Tb262 2.343 . S
O264 C279 1.259 . S
O265 Tb260 2.374 . S
O265 C261 1.251 . S
C266 O270 1.275 . S
C266 O271 1.246 . S
O267 C261 1.263 . S
O267 Tb262 2.353 . S
C268 O272 1.245 . S
C268 O273 1.259 1_556 S
C269 O274 1.250 . S
C269 O275 1.263 . S
O270 Tb262 2.427 . S
O270 C266 1.275 . S
O271 Tb262 2.513 . S
O271 C266 1.246 . S
O272 Tb262 2.453 1_556 S
O272 C268 1.245 . S
O273 Tb260 2.343 . S
O273 Tb262 2.596 . S
O273 C268 1.259 1_554 S
O274 Tb262 2.374 . S
O274 C269 1.250 . S
O275 Tb260 2.353 . S
O275 C269 1.263 . S
C276 O277 1.275 . S
C276 O278 1.246 . S
O277 Tb260 2.427 . S
O277 C276 1.275 . S
O278 Tb260 2.513 . S
O278 C276 1.246 . S
C279 O263 1.245 . S
C279 O264 1.259 . S
Tb280 O283 2.453 . S
Tb280 O284 2.596 . S
Tb280 O285 2.374 . S
Tb280 O293 2.343 . S
Tb280 O295 2.353 . S
Tb280 O297 2.427 . S
Tb280 O298 2.513 . S
C281 O285 1.251 . S
C281 O287 1.263 . S
Tb282 O284 2.343 . S
Tb282 O287 2.353 . S
Tb282 O290 2.427 . S
Tb282 O291 2.513 . S
Tb282 O292 2.453 . S
Tb282 O293 2.596 . S
Tb282 O294 2.374 . S
O283 Tb280 2.453 . S
O283 C299 1.245 . S
O284 Tb280 2.596 . S
O284 Tb282 2.343 . S
O284 C299 1.259 . S
O285 Tb280 2.374 . S
O285 C281 1.251 . S
C286 O290 1.275 . S
C286 O291 1.246 . S
O287 C281 1.263 . S
O287 Tb282 2.353 . S
C288 O292 1.245 . S
C288 O293 1.259 . S
C289 O294 1.250 . S
C289 O295 1.263 . S
O290 Tb282 2.427 . S
O290 C286 1.275 . S
O291 Tb282 2.513 . S
O291 C286 1.246 . S
O292 Tb282 2.453 . S
O292 C288 1.245 . S
O293 Tb280 2.343 . S
O293 Tb282 2.596 . S
O293 C288 1.259 . S
O294 Tb282 2.374 . S
O294 C289 1.250 . S
O295 Tb280 2.353 . S
O295 C289 1.263 . S
C296 O297 1.275 . S
C296 O298 1.246 . S
O297 Tb280 2.427 . S
O297 C296 1.275 . S
O298 Tb280 2.513 . S
O298 C296 1.246 . S
C299 O283 1.245 . S
C299 O284 1.259 . S
Tb300 O303 2.453 1_554 S
Tb300 O304 2.596 . S
Tb300 O305 2.374 . S
Tb300 O313 2.343 . S
Tb300 O315 2.353 . S
Tb300 O317 2.427 . S
Tb300 O318 2.513 . S
C301 O305 1.251 . S
C301 O307 1.263 . S
Tb302 O304 2.343 . S
Tb302 O307 2.353 . S
Tb302 O310 2.427 . S
Tb302 O311 2.513 . S
Tb302 O312 2.453 . S
Tb302 O313 2.596 . S
Tb302 O314 2.374 . S
O303 Tb300 2.453 1_556 S
O303 C319 1.245 1_556 S
O304 Tb300 2.596 . S
O304 Tb302 2.343 . S
O304 C319 1.259 . S
O305 Tb300 2.374 . S
O305 C301 1.251 . S
C306 O310 1.275 . S
C306 O311 1.246 . S
O307 C301 1.263 . S
O307 Tb302 2.353 . S
C308 O312 1.245 . S
C308 O313 1.259 . S
C309 O314 1.250 . S
C309 O315 1.263 . S
O310 Tb302 2.427 . S
O310 C306 1.275 . S
O311 Tb302 2.513 . S
O311 C306 1.246 . S
O312 Tb302 2.453 . S
O312 C308 1.245 . S
O313 Tb300 2.343 . S
O313 Tb302 2.596 . S
O313 C308 1.259 . S
O314 Tb302 2.374 . S
O314 C309 1.250 . S
O315 Tb300 2.353 . S
O315 C309 1.263 . S
C316 O317 1.275 . S
C316 O318 1.246 . S
O317 Tb300 2.427 . S
O317 C316 1.275 . S
O318 Tb300 2.513 . S
O318 C316 1.246 . S
C319 O303 1.245 1_554 S
C319 O304 1.259 . S
Tb320 O323 2.453 . S
Tb320 O324 2.596 . S
Tb320 O325 2.374 . S
Tb320 O333 2.343 . S
Tb320 O335 2.353 . S
Tb320 O337 2.427 . S
Tb320 O338 2.513 . S
C321 O325 1.251 . S
C321 O327 1.263 . S
Tb322 O324 2.343 . S
Tb322 O327 2.353 . S
Tb322 O330 2.427 . S
Tb322 O331 2.513 . S
Tb322 O332 2.453 . S
Tb322 O333 2.596 . S
Tb322 O334 2.374 . S
O323 Tb320 2.453 . S
O323 C339 1.245 . S
O324 Tb320 2.596 . S
O324 Tb322 2.343 . S
O324 C339 1.259 . S
O325 Tb320 2.374 . S
O325 C321 1.251 . S
C326 O330 1.275 . S
C326 O331 1.246 . S
O327 C321 1.263 . S
O327 Tb322 2.353 . S
C328 O332 1.245 . S
C328 O333 1.259 . S
C329 O334 1.250 . S
C329 O335 1.263 . S
O330 Tb322 2.427 . S
O330 C326 1.275 . S
O331 Tb322 2.513 . S
O331 C326 1.246 . S
O332 Tb322 2.453 . S
O332 C328 1.245 . S
O333 Tb320 2.343 . S
O333 Tb322 2.596 . S
O333 C328 1.259 . S
O334 Tb322 2.374 . S
O334 C329 1.250 . S
O335 Tb320 2.353 . S
O335 C329 1.263 . S
C336 O337 1.275 . S
C336 O338 1.246 . S
O337 Tb320 2.427 . S
O337 C336 1.275 . S
O338 Tb320 2.513 . S
O338 C336 1.246 . S
C339 O323 1.245 . S
C339 O324 1.259 . S
Tb340 O343 2.453 . S
Tb340 O344 2.596 . S
Tb340 O345 2.374 . S
Tb340 O353 2.343 . S
Tb340 O355 2.353 . S
Tb340 O357 2.427 . S
Tb340 O358 2.513 . S
C341 O345 1.251 . S
C341 O347 1.263 . S
Tb342 O344 2.343 . S
Tb342 O347 2.353 . S
Tb342 O350 2.427 . S
Tb342 O351 2.513 . S
Tb342 O352 2.453 . S
Tb342 O353 2.596 . S
Tb342 O354 2.374 . S
O343 Tb340 2.453 . S
O343 C359 1.245 . S
O344 Tb340 2.596 . S
O344 Tb342 2.343 . S
O344 C359 1.259 . S
O345 Tb340 2.374 . S
O345 C341 1.251 . S
C346 O350 1.275 . S
C346 O351 1.246 . S
O347 C341 1.263 . S
O347 Tb342 2.353 . S
C348 O352 1.245 . S
C348 O353 1.259 . S
C349 O354 1.250 . S
C349 O355 1.263 . S
O350 Tb342 2.427 . S
O350 C346 1.275 . S
O351 Tb342 2.513 . S
O351 C346 1.246 . S
O352 Tb342 2.453 . S
O352 C348 1.245 . S
O353 Tb340 2.343 . S
O353 Tb342 2.596 . S
O353 C348 1.259 . S
O354 Tb342 2.374 . S
O354 C349 1.250 . S
O355 Tb340 2.353 . S
O355 C349 1.263 . S
C356 O357 1.275 . S
C356 O358 1.246 . S
O357 Tb340 2.427 . S
O357 C356 1.275 . S
O358 Tb340 2.513 . S
O358 C356 1.246 . S
C359 O343 1.245 . S
C359 O344 1.259 . S
H360 C372 0.930 . S
H361 C374 0.930 . S
H362 C375 0.930 . S
H363 C379 0.959 . S
H364 C379 0.959 . S
H365 C379 0.961 . S
H366 C380 0.960 . S
H367 C380 0.961 . S
H368 C380 0.959 . S
H369 C383 0.929 . S
H370 C384 0.931 . S
H371 C386 0.930 . S
C372 H360 0.930 . S
C372 C373 1.399 . S
C372 C377 1.399 . S
C373 C372 1.399 . S
C373 C374 1.376 . S
C374 H361 0.930 . S
C374 C373 1.376 . S
C374 C375 1.388 . S
C375 H362 0.930 . S
C375 C374 1.388 . S
C375 C376 1.390 . S
C376 C375 1.390 . S
C376 C377 1.394 . S
C376 C382 1.465 . S
C377 C372 1.399 . S
C377 C376 1.394 . S
C377 C378 1.516 . S
C378 C377 1.516 . S
C378 C379 1.502 . S
C378 C380 1.561 . S
C378 C381 1.526 . S
C379 H363 0.959 . S
C379 H364 0.959 . S
C379 H365 0.961 . S
C379 C378 1.502 . S
C380 H366 0.960 . S
C380 H367 0.961 . S
C380 H368 0.959 . S
C380 C378 1.561 . S
C381 C378 1.526 . S
C381 C382 1.396 . S
C381 C386 1.390 . S
C382 C376 1.465 . S
C382 C381 1.396 . S
C382 C383 1.399 . S
C383 H369 0.929 . S
C383 C382 1.399 . S
C383 C384 1.385 . S
C384 H370 0.931 . S
C384 C383 1.385 . S
C384 C385 1.389 . S
C385 C384 1.389 . S
C385 C386 1.387 . S
C386 H371 0.930 . S
C386 C381 1.390 . S
C386 C385 1.387 . S
H387 C399 0.930 . S
H388 C401 0.930 . S
H389 C402 0.930 . S
H390 C406 0.959 . S
H391 C406 0.959 . S
H392 C406 0.961 . S
H393 C407 0.960 . S
H394 C407 0.961 . S
H395 C407 0.959 . S
H396 C410 0.929 . S
H397 C411 0.931 . S
H398 C413 0.930 . S
C399 H387 0.930 . S
C399 C400 1.399 . S
C399 C404 1.399 . S
C400 C399 1.399 . S
C400 C401 1.376 . S
C401 H388 0.930 . S
C401 C400 1.376 . S
C401 C402 1.388 . S
C402 H389 0.930 . S
C402 C401 1.388 . S
C402 C403 1.390 . S
C403 C402 1.390 . S
C403 C404 1.394 . S
C403 C409 1.465 . S
C404 C399 1.399 . S
C404 C403 1.394 . S
C404 C405 1.516 . S
C405 C404 1.516 . S
C405 C406 1.502 . S
C405 C407 1.561 . S
C405 C408 1.526 . S
C406 H390 0.959 . S
C406 H391 0.959 . S
C406 H392 0.961 . S
C406 C405 1.502 . S
C407 H393 0.960 . S
C407 H394 0.961 . S
C407 H395 0.959 . S
C407 C405 1.561 . S
C408 C405 1.526 . S
C408 C409 1.396 . S
C408 C413 1.390 . S
C409 C403 1.465 . S
C409 C408 1.396 . S
C409 C410 1.399 . S
C410 H396 0.929 . S
C410 C409 1.399 . S
C410 C411 1.385 . S
C411 H397 0.931 . S
C411 C410 1.385 . S
C411 C412 1.389 . S
C412 C411 1.389 . S
C412 C413 1.387 . S
C413 H398 0.930 . S
C413 C408 1.390 . S
C413 C412 1.387 . S
H414 C426 0.930 . S
H415 C428 0.930 . S
H416 C429 0.930 . S
H417 C433 0.959 . S
H418 C433 0.959 . S
H419 C433 0.961 . S
H420 C434 0.960 . S
H421 C434 0.961 . S
H422 C434 0.959 . S
H423 C437 0.929 . S
H424 C438 0.931 . S
H425 C440 0.930 . S
C426 H414 0.930 . S
C426 C427 1.399 . S
C426 C431 1.399 . S
C427 C426 1.399 . S
C427 C428 1.376 . S
C428 H415 0.930 . S
C428 C427 1.376 . S
C428 C429 1.388 . S
C429 H416 0.930 . S
C429 C428 1.388 . S
C429 C430 1.390 . S
C430 C429 1.390 . S
C430 C431 1.394 . S
C430 C436 1.465 . S
C431 C426 1.399 . S
C431 C430 1.394 . S
C431 C432 1.516 . S
C432 C431 1.516 . S
C432 C433 1.502 . S
C432 C434 1.561 . S
C432 C435 1.526 . S
C433 H417 0.959 . S
C433 H418 0.959 . S
C433 H419 0.961 . S
C433 C432 1.502 . S
C434 H420 0.960 . S
C434 H421 0.961 . S
C434 H422 0.959 . S
C434 C432 1.561 . S
C435 C432 1.526 . S
C435 C436 1.396 . S
C435 C440 1.390 . S
C436 C430 1.465 . S
C436 C435 1.396 . S
C436 C437 1.399 . S
C437 H423 0.929 . S
C437 C436 1.399 . S
C437 C438 1.385 . S
C438 H424 0.931 . S
C438 C437 1.385 . S
C438 C439 1.389 . S
C439 C438 1.389 . S
C439 C440 1.387 . S
C440 H425 0.930 . S
C440 C435 1.390 . S
C440 C439 1.387 . S
H441 C453 0.930 . S
H442 C455 0.930 . S
H443 C456 0.930 . S
H444 C460 0.959 . S
H445 C460 0.959 . S
H446 C460 0.961 . S
H447 C461 0.960 . S
H448 C461 0.961 . S
H449 C461 0.959 . S
H450 C464 0.929 . S
H451 C465 0.931 . S
H452 C467 0.930 . S
C453 H441 0.930 . S
C453 C454 1.399 . S
C453 C458 1.399 . S
C454 C453 1.399 . S
C454 C455 1.376 . S
C455 H442 0.930 . S
C455 C454 1.376 . S
C455 C456 1.388 . S
C456 H443 0.930 . S
C456 C455 1.388 . S
C456 C457 1.390 . S
C457 C456 1.390 . S
C457 C458 1.394 . S
C457 C463 1.465 . S
C458 C453 1.399 . S
C458 C457 1.394 . S
C458 C459 1.516 . S
C459 C458 1.516 . S
C459 C460 1.502 . S
C459 C461 1.561 . S
C459 C462 1.526 . S
C460 H444 0.959 . S
C460 H445 0.959 . S
C460 H446 0.961 . S
C460 C459 1.502 . S
C461 H447 0.960 . S
C461 H448 0.961 . S
C461 H449 0.959 . S
C461 C459 1.561 . S
C462 C459 1.526 . S
C462 C463 1.396 . S
C462 C467 1.390 . S
C463 C457 1.465 . S
C463 C462 1.396 . S
C463 C464 1.399 . S
C464 H450 0.929 . S
C464 C463 1.399 . S
C464 C465 1.385 . S
C465 H451 0.931 . S
C465 C464 1.385 . S
C465 C466 1.389 . S
C466 C465 1.389 . S
C466 C467 1.387 . S
C467 H452 0.930 . S
C467 C462 1.390 . S
C467 C466 1.387 . S
H468 C480 0.930 . S
H469 C482 0.930 . S
H470 C483 0.930 . S
H471 C487 0.959 . S
H472 C487 0.959 . S
H473 C487 0.961 . S
H474 C488 0.960 . S
H475 C488 0.961 . S
H476 C488 0.959 . S
H477 C491 0.929 . S
H478 C492 0.931 . S
H479 C494 0.930 . S
C480 H468 0.930 . S
C480 C481 1.399 . S
C480 C485 1.399 . S
C481 C480 1.399 . S
C481 C482 1.376 . S
C482 H469 0.930 . S
C482 C481 1.376 . S
C482 C483 1.388 . S
C483 H470 0.930 . S
C483 C482 1.388 . S
C483 C484 1.390 . S
C484 C483 1.390 . S
C484 C485 1.394 . S
C484 C490 1.465 . S
C485 C480 1.399 . S
C485 C484 1.394 . S
C485 C486 1.516 . S
C486 C485 1.516 . S
C486 C487 1.502 . S
C486 C488 1.561 . S
C486 C489 1.526 . S
C487 H471 0.959 . S
C487 H472 0.959 . S
C487 H473 0.961 . S
C487 C486 1.502 . S
C488 H474 0.960 . S
C488 H475 0.961 . S
C488 H476 0.959 . S
C488 C486 1.561 . S
C489 C486 1.526 . S
C489 C490 1.396 . S
C489 C494 1.390 . S
C490 C484 1.465 . S
C490 C489 1.396 . S
C490 C491 1.399 . S
C491 H477 0.929 . S
C491 C490 1.399 . S
C491 C492 1.385 . S
C492 H478 0.931 . S
C492 C491 1.385 . S
C492 C493 1.389 . S
C493 C492 1.389 . S
C493 C494 1.387 . S
C494 H479 0.930 . S
C494 C489 1.390 . S
C494 C493 1.387 . S
H495 C507 0.930 . S
H496 C509 0.930 . S
H497 C510 0.930 . S
H498 C514 0.959 . S
H499 C514 0.959 . S
H500 C514 0.961 . S
H501 C515 0.960 . S
H502 C515 0.961 . S
H503 C515 0.959 . S
H504 C518 0.929 . S
H505 C519 0.931 . S
H506 C521 0.930 . S
C507 H495 0.930 . S
C507 C508 1.399 . S
C507 C512 1.399 . S
C508 C507 1.399 . S
C508 C509 1.376 . S
C509 H496 0.930 . S
C509 C508 1.376 . S
C509 C510 1.388 . S
C510 H497 0.930 . S
C510 C509 1.388 . S
C510 C511 1.390 . S
C511 C510 1.390 . S
C511 C512 1.394 . S
C511 C517 1.465 . S
C512 C507 1.399 . S
C512 C511 1.394 . S
C512 C513 1.516 . S
C513 C512 1.516 . S
C513 C514 1.502 . S
C513 C515 1.561 . S
C513 C516 1.526 . S
C514 H498 0.959 . S
C514 H499 0.959 . S
C514 H500 0.961 . S
C514 C513 1.502 . S
C515 H501 0.960 . S
C515 H502 0.961 . S
C515 H503 0.959 . S
C515 C513 1.561 . S
C516 C513 1.526 . S
C516 C517 1.396 . S
C516 C521 1.390 . S
C517 C511 1.465 . S
C517 C516 1.396 . S
C517 C518 1.399 . S
C518 H504 0.929 . S
C518 C517 1.399 . S
C518 C519 1.385 . S
C519 H505 0.931 . S
C519 C518 1.385 . S
C519 C520 1.389 . S
C520 C519 1.389 . S
C520 C521 1.387 . S
C521 H506 0.930 . S
C521 C516 1.390 . S
C521 C520 1.387 . S
H522 C534 0.930 . S
H523 C536 0.930 . S
H524 C537 0.930 . S
H525 C541 0.959 . S
H526 C541 0.959 . S
H527 C541 0.961 . S
H528 C542 0.960 . S
H529 C542 0.961 . S
H530 C542 0.959 . S
H531 C545 0.929 . S
H532 C546 0.931 . S
H533 C548 0.930 . S
C534 H522 0.930 . S
C534 C535 1.399 . S
C534 C539 1.399 . S
C535 C534 1.399 . S
C535 C536 1.376 . S
C536 H523 0.930 . S
C536 C535 1.376 . S
C536 C537 1.388 . S
C537 H524 0.930 . S
C537 C536 1.388 . S
C537 C538 1.390 . S
C538 C537 1.390 . S
C538 C539 1.394 . S
C538 C544 1.465 . S
C539 C534 1.399 . S
C539 C538 1.394 . S
C539 C540 1.516 . S
C540 C539 1.516 . S
C540 C541 1.502 . S
C540 C542 1.561 . S
C540 C543 1.526 . S
C541 H525 0.959 . S
C541 H526 0.959 . S
C541 H527 0.961 . S
C541 C540 1.502 . S
C542 H528 0.960 . S
C542 H529 0.961 . S
C542 H530 0.959 . S
C542 C540 1.561 . S
C543 C540 1.526 . S
C543 C544 1.396 . S
C543 C548 1.390 . S
C544 C538 1.465 . S
C544 C543 1.396 . S
C544 C545 1.399 . S
C545 H531 0.929 . S
C545 C544 1.399 . S
C545 C546 1.385 . S
C546 H532 0.931 . S
C546 C545 1.385 . S
C546 C547 1.389 . S
C547 C546 1.389 . S
C547 C548 1.387 . S
C548 H533 0.930 . S
C548 C543 1.390 . S
C548 C547 1.387 . S
H549 C561 0.930 . S
H550 C563 0.930 . S
H551 C564 0.930 . S
H552 C568 0.959 . S
H553 C568 0.959 . S
H554 C568 0.961 . S
H555 C569 0.960 . S
H556 C569 0.961 . S
H557 C569 0.959 . S
H558 C572 0.929 . S
H559 C573 0.931 . S
H560 C575 0.930 . S
C561 H549 0.930 . S
C561 C562 1.399 . S
C561 C566 1.399 . S
C562 C561 1.399 . S
C562 C563 1.376 . S
C563 H550 0.930 . S
C563 C562 1.376 . S
C563 C564 1.388 . S
C564 H551 0.930 . S
C564 C563 1.388 . S
C564 C565 1.390 . S
C565 C564 1.390 . S
C565 C566 1.394 . S
C565 C571 1.465 . S
C566 C561 1.399 . S
C566 C565 1.394 . S
C566 C567 1.516 . S
C567 C566 1.516 . S
C567 C568 1.502 . S
C567 C569 1.561 . S
C567 C570 1.526 . S
C568 H552 0.959 . S
C568 H553 0.959 . S
C568 H554 0.961 . S
C568 C567 1.502 . S
C569 H555 0.960 . S
C569 H556 0.961 . S
C569 H557 0.959 . S
C569 C567 1.561 . S
C570 C567 1.526 . S
C570 C571 1.396 . S
C570 C575 1.390 . S
C571 C565 1.465 . S
C571 C570 1.396 . S
C571 C572 1.399 . S
C572 H558 0.929 . S
C572 C571 1.399 . S
C572 C573 1.385 . S
C573 H559 0.931 . S
C573 C572 1.385 . S
C573 C574 1.389 . S
C574 C573 1.389 . S
C574 C575 1.387 . S
C575 H560 0.930 . S
C575 C570 1.390 . S
C575 C574 1.387 . S
H576 C588 0.930 . S
H577 C590 0.930 . S
H578 C591 0.930 . S
H579 C595 0.959 . S
H580 C595 0.959 . S
H581 C595 0.961 . S
H582 C596 0.960 . S
H583 C596 0.961 . S
H584 C596 0.959 . S
H585 C599 0.929 . S
H586 C600 0.931 . S
H587 C602 0.930 . S
C588 H576 0.930 . S
C588 C589 1.399 . S
C588 C593 1.399 . S
C589 C588 1.399 . S
C589 C590 1.376 . S
C590 H577 0.930 . S
C590 C589 1.376 . S
C590 C591 1.388 . S
C591 H578 0.930 . S
C591 C590 1.388 . S
C591 C592 1.390 . S
C592 C591 1.390 . S
C592 C593 1.394 . S
C592 C598 1.465 . S
C593 C588 1.399 . S
C593 C592 1.394 . S
C593 C594 1.516 . S
C594 C593 1.516 . S
C594 C595 1.502 . S
C594 C596 1.561 . S
C594 C597 1.526 . S
C595 H579 0.959 . S
C595 H580 0.959 . S
C595 H581 0.961 . S
C595 C594 1.502 . S
C596 H582 0.960 . S
C596 H583 0.961 . S
C596 H584 0.959 . S
C596 C594 1.561 . S
C597 C594 1.526 . S
C597 C598 1.396 . S
C597 C602 1.390 . S
C598 C592 1.465 . S
C598 C597 1.396 . S
C598 C599 1.399 . S
C599 H585 0.929 . S
C599 C598 1.399 . S
C599 C600 1.385 . S
C600 H586 0.931 . S
C600 C599 1.385 . S
C600 C601 1.389 . S
C601 C600 1.389 . S
C601 C602 1.387 . S
C602 H587 0.930 . S
C602 C597 1.390 . S
C602 C601 1.387 . S
H603 C615 0.930 . S
H604 C617 0.930 . S
H605 C618 0.930 . S
H606 C622 0.959 . S
H607 C622 0.959 . S
H608 C622 0.961 . S
H609 C623 0.960 . S
H610 C623 0.961 . S
H611 C623 0.959 . S
H612 C626 0.929 . S
H613 C627 0.931 . S
H614 C629 0.930 . S
C615 H603 0.930 . S
C615 C616 1.399 . S
C615 C620 1.399 . S
C616 C615 1.399 . S
C616 C617 1.376 . S
C617 H604 0.930 . S
C617 C616 1.376 . S
C617 C618 1.388 . S
C618 H605 0.930 . S
C618 C617 1.388 . S
C618 C619 1.390 . S
C619 C618 1.390 . S
C619 C620 1.394 . S
C619 C625 1.465 . S
C620 C615 1.399 . S
C620 C619 1.394 . S
C620 C621 1.516 . S
C621 C620 1.516 . S
C621 C622 1.502 . S
C621 C623 1.561 . S
C621 C624 1.526 . S
C622 H606 0.959 . S
C622 H607 0.959 . S
C622 H608 0.961 . S
C622 C621 1.502 . S
C623 H609 0.960 . S
C623 H610 0.961 . S
C623 H611 0.959 . S
C623 C621 1.561 . S
C624 C621 1.526 . S
C624 C625 1.396 . S
C624 C629 1.390 . S
C625 C619 1.465 . S
C625 C624 1.396 . S
C625 C626 1.399 . S
C626 H612 0.929 . S
C626 C625 1.399 . S
C626 C627 1.385 . S
C627 H613 0.931 . S
C627 C626 1.385 . S
C627 C628 1.389 . S
C628 C627 1.389 . S
C628 C629 1.387 . S
C629 H614 0.930 . S
C629 C624 1.390 . S
C629 C628 1.387 . S
H630 C642 0.930 . S
H631 C644 0.930 . S
H632 C645 0.930 . S
H633 C649 0.959 . S
H634 C649 0.959 . S
H635 C649 0.961 . S
H636 C650 0.960 . S
H637 C650 0.961 . S
H638 C650 0.959 . S
H639 C653 0.929 . S
H640 C654 0.931 . S
H641 C656 0.930 . S
C642 H630 0.930 . S
C642 C643 1.399 . S
C642 C647 1.399 . S
C643 C642 1.399 . S
C643 C644 1.376 . S
C644 H631 0.930 . S
C644 C643 1.376 . S
C644 C645 1.388 . S
C645 H632 0.930 . S
C645 C644 1.388 . S
C645 C646 1.390 . S
C646 C645 1.390 . S
C646 C647 1.394 . S
C646 C652 1.465 . S
C647 C642 1.399 . S
C647 C646 1.394 . S
C647 C648 1.516 . S
C648 C647 1.516 . S
C648 C649 1.502 . S
C648 C650 1.561 . S
C648 C651 1.526 . S
C649 H633 0.959 . S
C649 H634 0.959 . S
C649 H635 0.961 . S
C649 C648 1.502 . S
C650 H636 0.960 . S
C650 H637 0.961 . S
C650 H638 0.959 . S
C650 C648 1.561 . S
C651 C648 1.526 . S
C651 C652 1.396 . S
C651 C656 1.390 . S
C652 C646 1.465 . S
C652 C651 1.396 . S
C652 C653 1.399 . S
C653 H639 0.929 . S
C653 C652 1.399 . S
C653 C654 1.385 . S
C654 H640 0.931 . S
C654 C653 1.385 . S
C654 C655 1.389 . S
C655 C654 1.389 . S
C655 C656 1.387 . S
C656 H641 0.930 . S
C656 C651 1.390 . S
C656 C655 1.387 . S
H657 C669 0.930 . S
H658 C671 0.930 . S
H659 C672 0.930 . S
H660 C676 0.959 . S
H661 C676 0.959 . S
H662 C676 0.961 . S
H663 C677 0.960 . S
H664 C677 0.961 . S
H665 C677 0.959 . S
H666 C680 0.929 . S
H667 C681 0.931 . S
H668 C683 0.930 . S
C669 H657 0.930 . S
C669 C670 1.399 . S
C669 C674 1.399 . S
C670 C669 1.399 . S
C670 C671 1.376 . S
C671 H658 0.930 . S
C671 C670 1.376 . S
C671 C672 1.388 . S
C672 H659 0.930 . S
C672 C671 1.388 . S
C672 C673 1.390 . S
C673 C672 1.390 . S
C673 C674 1.394 . S
C673 C679 1.465 . S
C674 C669 1.399 . S
C674 C673 1.394 . S
C674 C675 1.516 . S
C675 C674 1.516 . S
C675 C676 1.502 . S
C675 C677 1.561 . S
C675 C678 1.526 . S
C676 H660 0.959 . S
C676 H661 0.959 . S
C676 H662 0.961 . S
C676 C675 1.502 . S
C677 H663 0.960 . S
C677 H664 0.961 . S
C677 H665 0.959 . S
C677 C675 1.561 . S
C678 C675 1.526 . S
C678 C679 1.396 . S
C678 C683 1.390 . S
C679 C673 1.465 . S
C679 C678 1.396 . S
C679 C680 1.399 . S
C680 H666 0.929 . S
C680 C679 1.399 . S
C680 C681 1.385 . S
C681 H667 0.931 . S
C681 C680 1.385 . S
C681 C682 1.389 . S
C682 C681 1.389 . S
C682 C683 1.387 . S
C683 H668 0.930 . S
C683 C678 1.390 . S
C683 C682 1.387 . S
H684 C696 0.930 . S
H685 C698 0.930 . S
H686 C699 0.930 . S
H687 C703 0.959 . S
H688 C703 0.959 . S
H689 C703 0.961 . S
H690 C704 0.960 . S
H691 C704 0.961 . S
H692 C704 0.959 . S
H693 C707 0.929 . S
H694 C708 0.931 . S
H695 C710 0.929 1_556 S
C696 H684 0.930 . S
C696 C697 1.399 1_455 S
C696 C701 1.399 . S
C697 C696 1.399 1_655 S
C697 C698 1.376 1_556 S
C698 H685 0.930 . S
C698 C697 1.376 1_554 S
C698 C699 1.388 1_655 S
C699 H686 0.930 . S
C699 C698 1.388 1_455 S
C699 C700 1.390 . S
C700 C699 1.390 . S
C700 C701 1.394 1_554 S
C700 C706 1.465 . S
C701 C696 1.399 . S
C701 C700 1.394 1_556 S
C701 C702 1.516 . S
C702 C701 1.516 . S
C702 C703 1.502 . S
C702 C704 1.561 . S
C702 C705 1.526 . S
C703 H687 0.959 . S
C703 H688 0.959 . S
C703 H689 0.961 . S
C703 C702 1.502 . S
C704 H690 0.960 . S
C704 H691 0.961 . S
C704 H692 0.959 . S
C704 C702 1.561 . S
C705 C702 1.526 . S
C705 C706 1.396 1_556 S
C705 C710 1.389 1_556 S
C706 C700 1.465 . S
C706 C705 1.396 1_554 S
C706 C707 1.399 . S
C707 H693 0.929 . S
C707 C706 1.399 . S
C707 C708 1.385 . S
C708 H694 0.931 . S
C708 C707 1.385 . S
C708 C709 1.389 . S
C709 C708 1.389 . S
C709 C710 1.388 . S
C710 H695 0.929 1_554 S
C710 C705 1.389 1_554 S
C710 C709 1.388 . S
H711 C723 0.930 . S
H712 C725 0.930 . S
H713 C726 0.930 . S
H714 C730 0.959 . S
H715 C730 0.959 . S
H716 C730 0.961 . S
H717 C731 0.960 . S
H718 C731 0.961 . S
H719 C731 0.959 . S
H720 C734 0.929 . S
H721 C735 0.931 . S
H722 C737 0.930 . S
C723 H711 0.930 . S
C723 C724 1.399 . S
C723 C728 1.399 . S
C724 C723 1.399 . S
C724 C725 1.376 . S
C725 H712 0.930 . S
C725 C724 1.376 . S
C725 C726 1.388 1_556 S
C726 H713 0.930 . S
C726 C725 1.388 1_554 S
C726 C727 1.390 1_554 S
C727 C726 1.390 1_556 S
C727 C728 1.394 . S
C727 C733 1.465 1_556 S
C728 C723 1.399 . S
C728 C727 1.394 . S
C728 C729 1.516 . S
C729 C728 1.516 . S
C729 C730 1.502 . S
C729 C731 1.561 . S
C729 C732 1.526 . S
C730 H714 0.959 . S
C730 H715 0.959 . S
C730 H716 0.961 . S
C730 C729 1.502 . S
C731 H717 0.960 . S
C731 H718 0.961 . S
C731 H719 0.959 . S
C731 C729 1.561 . S
C732 C729 1.526 . S
C732 C733 1.396 1_556 S
C732 C737 1.390 . S
C733 C727 1.465 1_554 S
C733 C732 1.396 1_554 S
C733 C734 1.399 . S
C734 H720 0.929 . S
C734 C733 1.399 . S
C734 C735 1.385 . S
C735 H721 0.931 . S
C735 C734 1.385 . S
C735 C736 1.389 . S
C736 C735 1.389 . S
C736 C737 1.387 1_554 S
C737 H722 0.930 . S
C737 C732 1.390 . S
C737 C736 1.387 1_556 S
H738 C750 0.930 . S
H739 C752 0.930 . S
H740 C753 0.930 . S
H741 C757 0.959 . S
H742 C757 0.959 . S
H743 C757 0.961 . S
H744 C758 0.960 . S
H745 C758 0.961 1_554 S
H746 C758 0.959 . S
H747 C761 0.929 . S
H748 C762 0.931 . S
H749 C764 0.930 . S
C750 H738 0.930 . S
C750 C751 1.399 . S
C750 C755 1.399 . S
C751 C750 1.399 . S
C751 C752 1.376 . S
C752 H739 0.930 . S
C752 C751 1.376 . S
C752 C753 1.388 . S
C753 H740 0.930 . S
C753 C752 1.388 . S
C753 C754 1.390 . S
C754 C753 1.390 . S
C754 C755 1.394 . S
C754 C760 1.465 . S
C755 C750 1.399 . S
C755 C754 1.394 . S
C755 C756 1.516 1_556 S
C756 C755 1.516 1_554 S
C756 C757 1.502 . S
C756 C758 1.561 1_554 S
C756 C759 1.526 . S
C757 H741 0.959 . S
C757 H742 0.959 . S
C757 H743 0.961 . S
C757 C756 1.502 . S
C758 H744 0.960 . S
C758 H745 0.961 1_556 S
C758 H746 0.959 . S
C758 C756 1.561 1_556 S
C759 C756 1.526 . S
C759 C760 1.396 1_554 S
C759 C764 1.390 1_545 S
C760 C754 1.465 . S
C760 C759 1.396 1_556 S
C760 C761 1.399 1_545 S
C761 H747 0.929 . S
C761 C760 1.399 1_565 S
C761 C762 1.385 . S
C762 H748 0.931 . S
C762 C761 1.385 . S
C762 C763 1.389 1_556 S
C763 C762 1.389 1_554 S
C763 C764 1.387 . S
C764 H749 0.930 . S
C764 C759 1.390 1_565 S
C764 C763 1.387 . S
H765 C777 0.930 . S
H766 C779 0.930 . S
H767 C780 0.930 . S
H768 C784 0.959 . S
H769 C784 0.940 1_565 S
H770 C784 0.961 . S
H771 C785 0.960 . S
H772 C785 0.961 . S
H773 C785 0.959 . S
H774 C788 0.929 . S
H775 C789 0.931 . S
H776 C791 0.930 1_556 S
C777 H765 0.930 . S
C777 C778 1.399 . S
C777 C782 1.399 . S
C778 C777 1.399 . S
C778 C779 1.376 1_556 S
C779 H766 0.930 . S
C779 C778 1.376 1_554 S
C779 C780 1.388 . S
C780 H767 0.930 . S
C780 C779 1.388 . S
C780 C781 1.390 . S
C781 C780 1.390 . S
C781 C782 1.394 1_554 S
C781 C787 1.465 . S
C782 C777 1.399 . S
C782 C781 1.394 1_556 S
C782 C783 1.516 . S
C783 C782 1.516 . S
C783 C784 1.502 . S
C783 C785 1.561 . S
C783 C786 1.526 1_556 S
C784 H768 0.959 . S
C784 H769 0.940 1_545 S
C784 H770 0.961 . S
C784 C783 1.502 . S
C785 H771 0.960 . S
C785 H772 0.961 . S
C785 H773 0.959 . S
C785 C783 1.561 . S
C786 C783 1.526 1_554 S
C786 C787 1.396 . S
C786 C791 1.390 1_545 S
C787 C781 1.465 . S
C787 C786 1.396 . S
C787 C788 1.399 . S
C788 H774 0.929 . S
C788 C787 1.399 . S
C788 C789 1.385 . S
C789 H775 0.931 . S
C789 C788 1.385 . S
C789 C790 1.389 1_545 S
C790 C789 1.389 1_565 S
C790 C791 1.387 . S
C791 H776 0.930 1_554 S
C791 C786 1.390 1_565 S
C791 C790 1.387 . S
H792 C804 0.930 . S
H793 C806 0.930 . S
H794 C807 0.930 . S
H795 C811 0.959 . S
H796 C811 0.959 . S
H797 C811 0.961 . S
H798 C812 0.960 . S
H799 C812 0.961 1_556 S
H800 C812 0.959 . S
H801 C815 0.929 . S
H802 C816 0.931 . S
H803 C818 0.930 . S
C804 H792 0.930 . S
C804 C805 1.399 . S
C804 C809 1.399 . S
C805 C804 1.399 . S
C805 C806 1.376 . S
C806 H793 0.930 . S
C806 C805 1.376 . S
C806 C807 1.388 . S
C807 H794 0.930 . S
C807 C806 1.388 . S
C807 C808 1.390 . S
C808 C807 1.390 . S
C808 C809 1.394 . S
C808 C814 1.465 . S
C809 C804 1.399 . S
C809 C808 1.394 . S
C809 C810 1.516 1_554 S
C810 C809 1.516 1_556 S
C810 C811 1.502 . S
C810 C812 1.561 1_556 S
C810 C813 1.526 . S
C811 H795 0.959 . S
C811 H796 0.959 . S
C811 H797 0.961 . S
C811 C810 1.502 . S
C812 H798 0.960 . S
C812 H799 0.961 1_554 S
C812 H800 0.959 . S
C812 C810 1.561 1_554 S
C813 C810 1.526 . S
C813 C814 1.396 1_556 S
C813 C818 1.390 . S
C814 C808 1.465 . S
C814 C813 1.396 1_554 S
C814 C815 1.399 . S
C815 H801 0.929 . S
C815 C814 1.399 . S
C815 C816 1.385 1_455 S
C816 H802 0.931 . S
C816 C815 1.385 1_655 S
C816 C817 1.389 1_554 S
C817 C816 1.389 1_556 S
C817 C818 1.387 1_655 S
C818 H803 0.930 . S
C818 C813 1.390 . S
C818 C817 1.387 1_455 S
H819 C831 0.930 . S
H820 C833 0.930 . S
H821 C834 0.930 . S
H822 C838 0.959 . S
H823 C838 0.959 . S
H824 C838 0.961 . S
H825 C839 0.960 . S
H826 C839 0.961 1_556 S
H827 C839 0.959 . S
H828 C842 0.929 . S
H829 C843 0.931 . S
H830 C845 0.930 . S
C831 H819 0.930 . S
C831 C832 1.399 . S
C831 C836 1.399 . S
C832 C831 1.399 . S
C832 C833 1.376 . S
C833 H820 0.930 . S
C833 C832 1.376 . S
C833 C834 1.388 . S
C834 H821 0.930 . S
C834 C833 1.388 . S
C834 C835 1.390 . S
C835 C834 1.390 . S
C835 C836 1.394 . S
C835 C841 1.465 . S
C836 C831 1.399 . S
C836 C835 1.394 . S
C836 C837 1.516 1_554 S
C837 C836 1.516 1_556 S
C837 C838 1.502 . S
C837 C839 1.561 1_556 S
C837 C840 1.526 . S
C838 H822 0.959 . S
C838 H823 0.959 . S
C838 H824 0.961 . S
C838 C837 1.502 . S
C839 H825 0.960 . S
C839 H826 0.961 1_554 S
C839 H827 0.959 . S
C839 C837 1.561 1_554 S
C840 C837 1.526 . S
C840 C841 1.396 1_556 S
C840 C845 1.390 . S
C841 C835 1.465 . S
C841 C840 1.396 1_554 S
C841 C842 1.399 . S
C842 H828 0.929 . S
C842 C841 1.399 . S
C842 C843 1.385 . S
C843 H829 0.931 . S
C843 C842 1.385 . S
C843 C844 1.389 1_554 S
C844 C843 1.389 1_556 S
C844 C845 1.387 . S
C845 H830 0.930 . S
C845 C840 1.390 . S
C845 C844 1.387 . S
H846 C858 0.930 . S
H847 C860 0.930 . S
H848 C861 0.930 . S
H849 C865 0.959 . S
H850 C865 0.959 . S
H851 C865 0.961 . S
H852 C866 0.960 . S
H853 C866 0.961 . S
H854 C866 0.959 . S
H855 C869 0.929 . S
H856 C870 0.931 . S
H857 C872 0.930 . S
C858 H846 0.930 . S
C858 C859 1.399 . S
C858 C863 1.399 . S
C859 C858 1.399 . S
C859 C860 1.376 . S
C860 H847 0.930 . S
C860 C859 1.376 . S
C860 C861 1.388 . S
C861 H848 0.930 . S
C861 C860 1.388 . S
C861 C862 1.390 . S
C862 C861 1.390 . S
C862 C863 1.394 . S
C862 C868 1.465 . S
C863 C858 1.399 . S
C863 C862 1.394 . S
C863 C864 1.516 . S
C864 C863 1.516 . S
C864 C865 1.502 . S
C864 C866 1.561 . S
C864 C867 1.526 . S
C865 H849 0.959 . S
C865 H850 0.959 . S
C865 H851 0.961 . S
C865 C864 1.502 . S
C866 H852 0.960 . S
C866 H853 0.961 . S
C866 H854 0.959 . S
C866 C864 1.561 . S
C867 C864 1.526 . S
C867 C868 1.396 . S
C867 C872 1.390 . S
C868 C862 1.465 . S
C868 C867 1.396 . S
C868 C869 1.399 . S
C869 H855 0.929 . S
C869 C868 1.399 . S
C869 C870 1.385 . S
C870 H856 0.931 . S
C870 C869 1.385 . S
C870 C871 1.389 . S
C871 C870 1.389 . S
C871 C872 1.387 . S
C872 H857 0.930 . S
C872 C867 1.390 . S
C872 C871 1.387 . S
H873 C885 0.930 . S
H874 C887 0.930 . S
H875 C888 0.930 . S
H876 C892 0.959 . S
H877 C892 0.959 . S
H878 C892 0.961 . S
H879 C893 0.960 . S
H880 C893 0.961 . S
H881 C893 0.959 . S
H882 C896 0.929 . S
H883 C897 0.931 . S
H884 C899 0.930 . S
C885 H873 0.930 . S
C885 C886 1.399 . S
C885 C890 1.399 . S
C886 C885 1.399 . S
C886 C887 1.376 . S
C887 H874 0.930 . S
C887 C886 1.376 . S
C887 C888 1.388 . S
C888 H875 0.930 . S
C888 C887 1.388 . S
C888 C889 1.390 . S
C889 C888 1.390 . S
C889 C890 1.394 . S
C889 C895 1.465 . S
C890 C885 1.399 . S
C890 C889 1.394 . S
C890 C891 1.516 . S
C891 C890 1.516 . S
C891 C892 1.502 . S
C891 C893 1.561 . S
C891 C894 1.526 . S
C892 H876 0.959 . S
C892 H877 0.959 . S
C892 H878 0.961 . S
C892 C891 1.502 . S
C893 H879 0.960 . S
C893 H880 0.961 . S
C893 H881 0.959 . S
C893 C891 1.561 . S
C894 C891 1.526 . S
C894 C895 1.396 . S
C894 C899 1.390 . S
C895 C889 1.465 . S
C895 C894 1.396 . S
C895 C896 1.399 . S
C896 H882 0.929 . S
C896 C895 1.399 . S
C896 C897 1.385 . S
C897 H883 0.931 . S
C897 C896 1.385 . S
C897 C898 1.389 . S
C898 C897 1.389 . S
C898 C899 1.387 . S
C899 H884 0.930 . S
C899 C894 1.390 . S
C899 C898 1.387 . S
H900 C912 0.930 . S
H901 C914 0.930 . S
H902 C915 0.930 . S
H903 C919 0.959 . S
H904 C919 0.959 . S
H905 C919 0.961 . S
H906 C920 0.960 . S
H907 C920 0.961 . S
H908 C920 0.959 . S
H909 C923 0.929 . S
H910 C924 0.931 . S
H911 C926 0.930 . S
C912 H900 0.930 . S
C912 C913 1.399 . S
C912 C917 1.399 . S
C913 C912 1.399 . S
C913 C914 1.376 . S
C914 H901 0.930 . S
C914 C913 1.376 . S
C914 C915 1.388 . S
C915 H902 0.930 . S
C915 C914 1.388 . S
C915 C916 1.390 . S
C916 C915 1.390 . S
C916 C917 1.394 . S
C916 C922 1.465 . S
C917 C912 1.399 . S
C917 C916 1.394 . S
C917 C918 1.516 . S
C918 C917 1.516 . S
C918 C919 1.502 . S
C918 C920 1.561 . S
C918 C921 1.526 . S
C919 H903 0.959 . S
C919 H904 0.959 . S
C919 H905 0.961 . S
C919 C918 1.502 . S
C920 H906 0.960 . S
C920 H907 0.961 . S
C920 H908 0.959 . S
C920 C918 1.561 . S
C921 C918 1.526 . S
C921 C922 1.396 . S
C921 C926 1.390 . S
C922 C916 1.465 . S
C922 C921 1.396 . S
C922 C923 1.399 . S
C923 H909 0.929 . S
C923 C922 1.399 . S
C923 C924 1.385 . S
C924 H910 0.931 . S
C924 C923 1.385 . S
C924 C925 1.389 . S
C925 C924 1.389 . S
C925 C926 1.387 . S
C926 H911 0.930 . S
C926 C921 1.390 . S
C926 C925 1.387 . S
H927 C939 0.930 . S
H928 C941 0.930 . S
H929 C942 0.930 . S
H930 C946 0.959 . S
H931 C946 0.959 . S
H932 C946 0.961 . S
H933 C947 0.960 . S
H934 C947 0.961 . S
H935 C947 0.959 . S
H936 C950 0.929 . S
H937 C951 0.931 . S
H938 C953 0.930 . S
C939 H927 0.930 . S
C939 C940 1.399 . S
C939 C944 1.399 . S
C940 C939 1.399 . S
C940 C941 1.376 . S
C941 H928 0.930 . S
C941 C940 1.376 . S
C941 C942 1.388 . S
C942 H929 0.930 . S
C942 C941 1.388 . S
C942 C943 1.390 . S
C943 C942 1.390 . S
C943 C944 1.394 . S
C943 C949 1.465 . S
C944 C939 1.399 . S
C944 C943 1.394 . S
C944 C945 1.516 . S
C945 C944 1.516 . S
C945 C946 1.502 . S
C945 C947 1.561 . S
C945 C948 1.526 . S
C946 H930 0.959 . S
C946 H931 0.959 . S
C946 H932 0.961 . S
C946 C945 1.502 . S
C947 H933 0.960 . S
C947 H934 0.961 . S
C947 H935 0.959 . S
C947 C945 1.561 . S
C948 C945 1.526 . S
C948 C949 1.396 . S
C948 C953 1.390 . S
C949 C943 1.465 . S
C949 C948 1.396 . S
C949 C950 1.399 . S
C950 H936 0.929 . S
C950 C949 1.399 . S
C950 C951 1.385 . S
C951 H937 0.931 . S
C951 C950 1.385 . S
C951 C952 1.389 . S
C952 C951 1.389 . S
C952 C953 1.387 . S
C953 H938 0.930 . S
C953 C948 1.390 . S
C953 C952 1.387 . S
H954 C966 0.930 . S
H955 C968 0.930 . S
H956 C969 0.930 . S
H957 C973 0.959 . S
H958 C973 0.959 . S
H959 C973 0.961 . S
H960 C974 0.960 . S
H961 C974 0.961 . S
H962 C974 0.959 . S
H963 C977 0.929 . S
H964 C978 0.931 . S
H965 C980 0.930 . S
C966 H954 0.930 . S
C966 C967 1.399 . S
C966 C971 1.399 . S
C967 C966 1.399 . S
C967 C968 1.376 . S
C968 H955 0.930 . S
C968 C967 1.376 . S
C968 C969 1.388 . S
C969 H956 0.930 . S
C969 C968 1.388 . S
C969 C970 1.390 . S
C970 C969 1.390 . S
C970 C971 1.394 . S
C970 C976 1.465 . S
C971 C966 1.399 . S
C971 C970 1.394 . S
C971 C972 1.516 . S
C972 C971 1.516 . S
C972 C973 1.502 . S
C972 C974 1.561 . S
C972 C975 1.526 . S
C973 H957 0.959 . S
C973 H958 0.959 . S
C973 H959 0.961 . S
C973 C972 1.502 . S
C974 H960 0.960 . S
C974 H961 0.961 . S
C974 H962 0.959 . S
C974 C972 1.561 . S
C975 C972 1.526 . S
C975 C976 1.396 . S
C975 C980 1.390 . S
C976 C970 1.465 . S
C976 C975 1.396 . S
C976 C977 1.399 . S
C977 H963 0.929 . S
C977 C976 1.399 . S
C977 C978 1.385 . S
C978 H964 0.931 . S
C978 C977 1.385 . S
C978 C979 1.389 . S
C979 C978 1.389 . S
C979 C980 1.387 . S
C980 H965 0.930 . S
C980 C975 1.390 . S
C980 C979 1.387 . S
H981 C993 0.930 . S
H982 C995 0.930 . S
H983 C996 0.930 . S
H984 C1000 0.959 . S
H985 C1000 0.959 . S
H986 C1000 0.961 . S
H987 C1001 0.960 . S
H988 C1001 0.961 . S
H989 C1001 0.959 . S
H990 C1004 0.929 . S
H991 C1005 0.931 . S
H992 C1007 0.930 . S
C993 H981 0.930 . S
C993 C994 1.399 . S
C993 C998 1.399 . S
C994 C993 1.399 . S
C994 C995 1.376 . S
C995 H982 0.930 . S
C995 C994 1.376 . S
C995 C996 1.388 . S
C996 H983 0.930 . S
C996 C995 1.388 . S
C996 C997 1.390 . S
C997 C996 1.390 . S
C997 C998 1.394 . S
C997 C1003 1.465 . S
C998 C993 1.399 . S
C998 C997 1.394 . S
C998 C999 1.516 . S
C999 C998 1.516 . S
C999 C1000 1.502 . S
C999 C1001 1.561 . S
C999 C1002 1.526 . S
C1000 H984 0.959 . S
C1000 H985 0.959 . S
C1000 H986 0.961 . S
C1000 C999 1.502 . S
C1001 H987 0.960 . S
C1001 H988 0.961 . S
C1001 H989 0.959 . S
C1001 C999 1.561 . S
C1002 C999 1.526 . S
C1002 C1003 1.396 . S
C1002 C1007 1.390 . S
C1003 C997 1.465 . S
C1003 C1002 1.396 . S
C1003 C1004 1.399 . S
C1004 H990 0.929 . S
C1004 C1003 1.399 . S
C1004 C1005 1.385 . S
C1005 H991 0.931 . S
C1005 C1004 1.385 . S
C1005 C1006 1.389 . S
C1006 C1005 1.389 . S
C1006 C1007 1.387 . S
C1007 H992 0.930 . S
C1007 C1002 1.390 . S
C1007 C1006 1.387 . S
H1008 C1020 0.930 . S
H1009 C1022 0.930 . S
H1010 C1023 0.930 . S
H1011 C1027 0.959 . S
H1012 C1027 0.959 . S
H1013 C1027 0.961 . S
H1014 C1028 0.960 . S
H1015 C1028 0.961 . S
H1016 C1028 0.959 . S
H1017 C1031 0.929 . S
H1018 C1032 0.931 . S
H1019 C1034 0.930 . S
C1020 H1008 0.930 . S
C1020 C1021 1.399 . S
C1020 C1025 1.399 . S
C1021 C1020 1.399 . S
C1021 C1022 1.376 . S
C1022 H1009 0.930 . S
C1022 C1021 1.376 . S
C1022 C1023 1.388 . S
C1023 H1010 0.930 . S
C1023 C1022 1.388 . S
C1023 C1024 1.390 . S
C1024 C1023 1.390 . S
C1024 C1025 1.394 . S
C1024 C1030 1.465 . S
C1025 C1020 1.399 . S
C1025 C1024 1.394 . S
C1025 C1026 1.516 . S
C1026 C1025 1.516 . S
C1026 C1027 1.502 . S
C1026 C1028 1.561 . S
C1026 C1029 1.526 . S
C1027 H1011 0.959 . S
C1027 H1012 0.959 . S
C1027 H1013 0.961 . S
C1027 C1026 1.502 . S
C1028 H1014 0.960 . S
C1028 H1015 0.961 . S
C1028 H1016 0.959 . S
C1028 C1026 1.561 . S
C1029 C1026 1.526 . S
C1029 C1030 1.396 . S
C1029 C1034 1.390 . S
C1030 C1024 1.465 . S
C1030 C1029 1.396 . S
C1030 C1031 1.399 . S
C1031 H1017 0.929 . S
C1031 C1030 1.399 . S
C1031 C1032 1.385 . S
C1032 H1018 0.931 . S
C1032 C1031 1.385 . S
C1032 C1033 1.389 . S
C1033 C1032 1.389 . S
C1033 C1034 1.387 . S
C1034 H1019 0.930 . S
C1034 C1029 1.390 . S
C1034 C1033 1.387 . S
H1035 C1047 0.930 . S
H1036 C1049 0.930 . S
H1037 C1050 0.930 . S
H1038 C1054 0.959 . S
H1039 C1054 0.959 . S
H1040 C1054 0.961 . S
H1041 C1055 0.960 . S
H1042 C1055 0.961 . S
H1043 C1055 0.959 . S
H1044 C1058 0.929 . S
H1045 C1059 0.931 . S
H1046 C1061 0.930 . S
C1047 H1035 0.930 . S
C1047 C1048 1.399 . S
C1047 C1052 1.399 . S
C1048 C1047 1.399 . S
C1048 C1049 1.376 . S
C1049 H1036 0.930 . S
C1049 C1048 1.376 . S
C1049 C1050 1.388 . S
C1050 H1037 0.930 . S
C1050 C1049 1.388 . S
C1050 C1051 1.390 . S
C1051 C1050 1.390 . S
C1051 C1052 1.394 . S
C1051 C1057 1.465 . S
C1052 C1047 1.399 . S
C1052 C1051 1.394 . S
C1052 C1053 1.516 . S
C1053 C1052 1.516 . S
C1053 C1054 1.502 . S
C1053 C1055 1.561 . S
C1053 C1056 1.526 . S
C1054 H1038 0.959 . S
C1054 H1039 0.959 . S
C1054 H1040 0.961 . S
C1054 C1053 1.502 . S
C1055 H1041 0.960 . S
C1055 H1042 0.961 . S
C1055 H1043 0.959 . S
C1055 C1053 1.561 . S
C1056 C1053 1.526 . S
C1056 C1057 1.396 . S
C1056 C1061 1.390 . S
C1057 C1051 1.465 . S
C1057 C1056 1.396 . S
C1057 C1058 1.399 . S
C1058 H1044 0.929 . S
C1058 C1057 1.399 . S
C1058 C1059 1.385 . S
C1059 H1045 0.931 . S
C1059 C1058 1.385 . S
C1059 C1060 1.389 . S
C1060 C1059 1.389 . S
C1060 C1061 1.387 . S
C1061 H1046 0.930 . S
C1061 C1056 1.390 . S
C1061 C1060 1.387 . S
H1062 C1074 0.930 . S
H1063 C1076 0.930 . S
H1064 C1077 0.930 . S
H1065 C1081 0.959 . S
H1066 C1081 0.959 . S
H1067 C1081 0.961 . S
H1068 C1082 0.960 . S
H1069 C1082 0.961 . S
H1070 C1082 0.959 . S
H1071 C1085 0.929 . S
H1072 C1086 0.931 . S
H1073 C1088 0.930 . S
C1074 H1062 0.930 . S
C1074 C1075 1.399 . S
C1074 C1079 1.399 . S
C1075 C1074 1.399 . S
C1075 C1076 1.376 . S
C1076 H1063 0.930 . S
C1076 C1075 1.376 . S
C1076 C1077 1.388 . S
C1077 H1064 0.930 . S
C1077 C1076 1.388 . S
C1077 C1078 1.390 . S
C1078 C1077 1.390 . S
C1078 C1079 1.394 . S
C1078 C1084 1.465 . S
C1079 C1074 1.399 . S
C1079 C1078 1.394 . S
C1079 C1080 1.516 . S
C1080 C1079 1.516 . S
C1080 C1081 1.502 . S
C1080 C1082 1.561 . S
C1080 C1083 1.526 . S
C1081 H1065 0.959 . S
C1081 H1066 0.959 . S
C1081 H1067 0.961 . S
C1081 C1080 1.502 . S
C1082 H1068 0.960 . S
C1082 H1069 0.961 . S
C1082 H1070 0.959 . S
C1082 C1080 1.561 . S
C1083 C1080 1.526 . S
C1083 C1084 1.396 . S
C1083 C1088 1.390 . S
C1084 C1078 1.465 . S
C1084 C1083 1.396 . S
C1084 C1085 1.399 . S
C1085 H1071 0.929 . S
C1085 C1084 1.399 . S
C1085 C1086 1.385 . S
C1086 H1072 0.931 . S
C1086 C1085 1.385 . S
C1086 C1087 1.389 . S
C1087 C1086 1.389 . S
C1087 C1088 1.387 . S
C1088 H1073 0.930 . S
C1088 C1083 1.390 . S
C1088 C1087 1.387 . S
H1089 C1101 0.930 . S
H1090 C1103 0.930 . S
H1091 C1104 0.930 . S
H1092 C1108 0.959 . S
H1093 C1108 0.959 . S
H1094 C1108 0.961 . S
H1095 C1109 0.960 . S
H1096 C1109 0.961 . S
H1097 C1109 0.959 1_556 S
H1098 C1112 0.929 . S
H1099 C1113 0.931 . S
H1100 C1115 0.930 . S
C1101 H1089 0.930 . S
C1101 C1102 1.399 . S
C1101 C1106 1.399 . S
C1102 C1101 1.399 . S
C1102 C1103 1.376 . S
C1103 H1090 0.930 . S
C1103 C1102 1.376 . S
C1103 C1104 1.388 . S
C1104 H1091 0.930 . S
C1104 C1103 1.388 . S
C1104 C1105 1.390 . S
C1105 C1104 1.390 . S
C1105 C1106 1.394 . S
C1105 C1111 1.465 . S
C1106 C1101 1.399 . S
C1106 C1105 1.394 . S
C1106 C1107 1.516 . S
C1107 C1106 1.516 . S
C1107 C1108 1.502 . S
C1107 C1109 1.561 1_556 S
C1107 C1110 1.526 . S
C1108 H1092 0.959 . S
C1108 H1093 0.959 . S
C1108 H1094 0.961 . S
C1108 C1107 1.502 . S
C1109 H1095 0.960 . S
C1109 H1096 0.961 . S
C1109 H1097 0.959 1_554 S
C1109 C1107 1.561 1_554 S
C1110 C1107 1.526 . S
C1110 C1111 1.396 . S
C1110 C1115 1.390 . S
C1111 C1105 1.465 . S
C1111 C1110 1.396 . S
C1111 C1112 1.399 . S
C1112 H1098 0.929 . S
C1112 C1111 1.399 . S
C1112 C1113 1.385 . S
C1113 H1099 0.931 . S
C1113 C1112 1.385 . S
C1113 C1114 1.389 . S
C1114 C1113 1.389 . S
C1114 C1115 1.387 . S
C1115 H1100 0.930 . S
C1115 C1110 1.390 . S
C1115 C1114 1.387 . S
H1116 C1128 0.930 . S
H1117 C1130 0.930 . S
H1118 C1131 0.930 . S
H1119 C1135 0.959 . S
H1120 C1135 0.959 . S
H1121 C1135 0.961 . S
H1122 C1136 0.960 . S
H1123 C1136 0.961 . S
H1124 C1136 0.959 . S
H1125 C1139 0.929 . S
H1126 C1140 0.931 . S
H1127 C1142 0.930 . S
C1128 H1116 0.930 . S
C1128 C1129 1.399 . S
C1128 C1133 1.399 . S
C1129 C1128 1.399 . S
C1129 C1130 1.376 . S
C1130 H1117 0.930 . S
C1130 C1129 1.376 . S
C1130 C1131 1.388 . S
C1131 H1118 0.930 . S
C1131 C1130 1.388 . S
C1131 C1132 1.390 . S
C1132 C1131 1.390 . S
C1132 C1133 1.394 . S
C1132 C1138 1.465 . S
C1133 C1128 1.399 . S
C1133 C1132 1.394 . S
C1133 C1134 1.516 . S
C1134 C1133 1.516 . S
C1134 C1135 1.502 . S
C1134 C1136 1.561 . S
C1134 C1137 1.526 . S
C1135 H1119 0.959 . S
C1135 H1120 0.959 . S
C1135 H1121 0.961 . S
C1135 C1134 1.502 . S
C1136 H1122 0.960 . S
C1136 H1123 0.961 . S
C1136 H1124 0.959 . S
C1136 C1134 1.561 . S
C1137 C1134 1.526 . S
C1137 C1138 1.396 . S
C1137 C1142 1.390 . S
C1138 C1132 1.465 . S
C1138 C1137 1.396 . S
C1138 C1139 1.399 . S
C1139 H1125 0.929 . S
C1139 C1138 1.399 . S
C1139 C1140 1.385 . S
C1140 H1126 0.931 . S
C1140 C1139 1.385 . S
C1140 C1141 1.389 . S
C1141 C1140 1.389 . S
C1141 C1142 1.387 . S
C1142 H1127 0.930 . S
C1142 C1137 1.390 . S
C1142 C1141 1.387 . S
H1143 C1155 0.930 . S
H1144 C1157 0.930 . S
H1145 C1158 0.930 . S
H1146 C1162 0.959 . S
H1147 C1162 0.959 . S
H1148 C1162 0.961 . S
H1149 C1163 0.960 . S
H1150 C1163 0.961 . S
H1151 C1163 0.959 . S
H1152 C1166 0.929 . S
H1153 C1167 0.931 . S
H1154 C1169 0.930 . S
C1155 H1143 0.930 . S
C1155 C1156 1.399 . S
C1155 C1160 1.399 . S
C1156 C1155 1.399 . S
C1156 C1157 1.376 . S
C1157 H1144 0.930 . S
C1157 C1156 1.376 . S
C1157 C1158 1.388 . S
C1158 H1145 0.930 . S
C1158 C1157 1.388 . S
C1158 C1159 1.390 . S
C1159 C1158 1.390 . S
C1159 C1160 1.394 . S
C1159 C1165 1.465 . S
C1160 C1155 1.399 . S
C1160 C1159 1.394 . S
C1160 C1161 1.516 . S
C1161 C1160 1.516 . S
C1161 C1162 1.502 . S
C1161 C1163 1.561 . S
C1161 C1164 1.526 . S
C1162 H1146 0.959 . S
C1162 H1147 0.959 . S
C1162 H1148 0.961 . S
C1162 C1161 1.502 . S
C1163 H1149 0.960 . S
C1163 H1150 0.961 . S
C1163 H1151 0.959 . S
C1163 C1161 1.561 . S
C1164 C1161 1.526 . S
C1164 C1165 1.396 . S
C1164 C1169 1.390 . S
C1165 C1159 1.465 . S
C1165 C1164 1.396 . S
C1165 C1166 1.399 . S
C1166 H1152 0.929 . S
C1166 C1165 1.399 . S
C1166 C1167 1.385 . S
C1167 H1153 0.931 . S
C1167 C1166 1.385 . S
C1167 C1168 1.389 . S
C1168 C1167 1.389 . S
C1168 C1169 1.387 . S
C1169 H1154 0.930 . S
C1169 C1164 1.390 . S
C1169 C1168 1.387 . S
H1170 C1182 0.930 . S
H1171 C1184 0.930 . S
H1172 C1185 0.930 . S
H1173 C1189 0.959 . S
H1174 C1189 0.959 . S
H1175 C1189 0.961 . S
H1176 C1190 0.960 . S
H1177 C1190 0.961 . S
H1178 C1190 0.959 . S
H1179 C1193 0.929 . S
H1180 C1194 0.931 . S
H1181 C1196 0.930 . S
C1182 H1170 0.930 . S
C1182 C1183 1.399 . S
C1182 C1187 1.399 . S
C1183 C1182 1.399 . S
C1183 C1184 1.376 . S
C1184 H1171 0.930 . S
C1184 C1183 1.376 . S
C1184 C1185 1.388 . S
C1185 H1172 0.930 . S
C1185 C1184 1.388 . S
C1185 C1186 1.390 . S
C1186 C1185 1.390 . S
C1186 C1187 1.394 . S
C1186 C1192 1.465 . S
C1187 C1182 1.399 . S
C1187 C1186 1.394 . S
C1187 C1188 1.516 . S
C1188 C1187 1.516 . S
C1188 C1189 1.502 . S
C1188 C1190 1.561 . S
C1188 C1191 1.526 . S
C1189 H1173 0.959 . S
C1189 H1174 0.959 . S
C1189 H1175 0.961 . S
C1189 C1188 1.502 . S
C1190 H1176 0.960 . S
C1190 H1177 0.961 . S
C1190 H1178 0.959 . S
C1190 C1188 1.561 . S
C1191 C1188 1.526 . S
C1191 C1192 1.396 . S
C1191 C1196 1.390 . S
C1192 C1186 1.465 . S
C1192 C1191 1.396 . S
C1192 C1193 1.399 . S
C1193 H1179 0.929 . S
C1193 C1192 1.399 . S
C1193 C1194 1.385 . S
C1194 H1180 0.931 . S
C1194 C1193 1.385 . S
C1194 C1195 1.389 . S
C1195 C1194 1.389 . S
C1195 C1196 1.387 . S
C1196 H1181 0.930 . S
C1196 C1191 1.390 . S
C1196 C1195 1.387 . S
H1197 C1209 0.930 . S
H1198 C1211 0.930 1_556 S
H1199 C1212 0.930 . S
H1200 C1216 0.959 . S
H1201 C1216 0.959 . S
H1202 C1216 0.961 . S
H1203 C1217 0.960 . S
H1204 C1217 0.961 . S
H1205 C1217 0.959 . S
H1206 C1220 0.929 . S
H1207 C1221 0.931 . S
H1208 C1223 0.930 . S
C1209 H1197 0.930 . S
C1209 C1210 1.399 . S
C1209 C1214 1.399 . S
C1210 C1209 1.399 . S
C1210 C1211 1.376 . S
C1211 H1198 0.930 1_554 S
C1211 C1210 1.376 . S
C1211 C1212 1.388 1_554 S
C1212 H1199 0.930 . S
C1212 C1211 1.388 1_556 S
C1212 C1213 1.390 1_556 S
C1213 C1212 1.390 1_554 S
C1213 C1214 1.394 . S
C1213 C1219 1.465 . S
C1214 C1209 1.399 . S
C1214 C1213 1.394 . S
C1214 C1215 1.516 . S
C1215 C1214 1.516 . S
C1215 C1216 1.502 . S
C1215 C1217 1.561 . S
C1215 C1218 1.526 . S
C1216 H1200 0.959 . S
C1216 H1201 0.959 . S
C1216 H1202 0.961 . S
C1216 C1215 1.502 . S
C1217 H1203 0.960 . S
C1217 H1204 0.961 . S
C1217 H1205 0.959 . S
C1217 C1215 1.561 . S
C1218 C1215 1.526 . S
C1218 C1219 1.396 . S
C1218 C1223 1.390 . S
C1219 C1213 1.465 . S
C1219 C1218 1.396 . S
C1219 C1220 1.399 1_554 S
C1220 H1206 0.929 . S
C1220 C1219 1.399 1_556 S
C1220 C1221 1.385 . S
C1221 H1207 0.931 . S
C1221 C1220 1.385 . S
C1221 C1222 1.389 1_556 S
C1222 C1221 1.389 1_554 S
C1222 C1223 1.387 . S
C1223 H1208 0.930 . S
C1223 C1218 1.390 . S
C1223 C1222 1.387 . S
H1224 C1236 0.930 . S
H1225 C1238 0.930 . S
H1226 C1239 0.930 . S
H1227 C1243 0.959 1_554 S
H1228 C1243 0.959 . S
H1229 C1243 0.961 . S
H1230 C1244 0.960 . S
H1231 C1244 0.961 . S
H1232 C1244 0.959 . S
H1233 C1247 0.929 . S
H1234 C1248 0.931 . S
H1235 C1250 0.930 1_556 S
C1236 H1224 0.930 . S
C1236 C1237 1.399 . S
C1236 C1241 1.399 . S
C1237 C1236 1.399 . S
C1237 C1238 1.376 . S
C1238 H1225 0.930 . S
C1238 C1237 1.376 . S
C1238 C1239 1.388 . S
C1239 H1226 0.930 . S
C1239 C1238 1.388 . S
C1239 C1240 1.390 . S
C1240 C1239 1.390 . S
C1240 C1241 1.394 . S
C1240 C1246 1.465 . S
C1241 C1236 1.399 . S
C1241 C1240 1.394 . S
C1241 C1242 1.516 . S
C1242 C1241 1.516 . S
C1242 C1243 1.502 1_554 S
C1242 C1244 1.561 1_554 S
C1242 C1245 1.526 . S
C1243 H1227 0.959 1_556 S
C1243 H1228 0.959 . S
C1243 H1229 0.961 . S
C1243 C1242 1.502 1_556 S
C1244 H1230 0.960 . S
C1244 H1231 0.961 . S
C1244 H1232 0.959 . S
C1244 C1242 1.561 1_556 S
C1245 C1242 1.526 . S
C1245 C1246 1.396 . S
C1245 C1250 1.390 . S
C1246 C1240 1.465 . S
C1246 C1245 1.396 . S
C1246 C1247 1.399 . S
C1247 H1233 0.929 . S
C1247 C1246 1.399 . S
C1247 C1248 1.385 . S
C1248 H1234 0.931 . S
C1248 C1247 1.385 . S
C1248 C1249 1.389 . S
C1249 C1248 1.389 . S
C1249 C1250 1.387 . S
C1250 H1235 0.930 1_554 S
C1250 C1245 1.390 . S
C1250 C1249 1.387 . S
H1251 C1263 0.930 . S
H1252 C1265 0.930 . S
H1253 C1266 0.930 . S
H1254 C1270 0.959 . S
H1255 C1270 0.959 . S
H1256 C1270 0.961 . S
H1257 C1271 0.960 . S
H1258 C1271 0.961 . S
H1259 C1271 0.959 . S
H1260 C1274 0.929 . S
H1261 C1275 0.931 . S
H1262 C1277 0.930 . S
C1263 H1251 0.930 . S
C1263 C1264 1.399 . S
C1263 C1268 1.399 . S
C1264 C1263 1.399 . S
C1264 C1265 1.376 . S
C1265 H1252 0.930 . S
C1265 C1264 1.376 . S
C1265 C1266 1.388 . S
C1266 H1253 0.930 . S
C1266 C1265 1.388 . S
C1266 C1267 1.390 . S
C1267 C1266 1.390 . S
C1267 C1268 1.394 . S
C1267 C1273 1.465 . S
C1268 C1263 1.399 . S
C1268 C1267 1.394 . S
C1268 C1269 1.516 . S
C1269 C1268 1.516 . S
C1269 C1270 1.502 . S
C1269 C1271 1.561 . S
C1269 C1272 1.526 . S
C1270 H1254 0.959 . S
C1270 H1255 0.959 . S
C1270 H1256 0.961 . S
C1270 C1269 1.502 . S
C1271 H1257 0.960 . S
C1271 H1258 0.961 . S
C1271 H1259 0.959 . S
C1271 C1269 1.561 . S
C1272 C1269 1.526 . S
C1272 C1273 1.396 . S
C1272 C1277 1.390 . S
C1273 C1267 1.465 . S
C1273 C1272 1.396 . S
C1273 C1274 1.399 . S
C1274 H1260 0.929 . S
C1274 C1273 1.399 . S
C1274 C1275 1.385 . S
C1275 H1261 0.931 . S
C1275 C1274 1.385 . S
C1275 C1276 1.389 . S
C1276 C1275 1.389 . S
C1276 C1277 1.387 . S
C1277 H1262 0.930 . S
C1277 C1272 1.390 . S
C1277 C1276 1.387 . S
H1278 C1290 0.930 . S
H1279 C1292 0.930 . S
H1280 C1293 0.930 . S
H1281 C1297 0.959 . S
H1282 C1297 0.959 . S
H1283 C1297 0.961 . S
H1284 C1298 0.960 . S
H1285 C1298 0.961 . S
H1286 C1298 0.959 . S
H1287 C1301 0.929 . S
H1288 C1302 0.931 . S
H1289 C1304 0.930 . S
C1290 H1278 0.930 . S
C1290 C1291 1.399 . S
C1290 C1295 1.399 . S
C1291 C1290 1.399 . S
C1291 C1292 1.376 . S
C1292 H1279 0.930 . S
C1292 C1291 1.376 . S
C1292 C1293 1.388 . S
C1293 H1280 0.930 . S
C1293 C1292 1.388 . S
C1293 C1294 1.390 . S
C1294 C1293 1.390 . S
C1294 C1295 1.394 . S
C1294 C1300 1.465 . S
C1295 C1290 1.399 . S
C1295 C1294 1.394 . S
C1295 C1296 1.516 . S
C1296 C1295 1.516 . S
C1296 C1297 1.502 . S
C1296 C1298 1.561 . S
C1296 C1299 1.526 . S
C1297 H1281 0.959 . S
C1297 H1282 0.959 . S
C1297 H1283 0.961 . S
C1297 C1296 1.502 . S
C1298 H1284 0.960 . S
C1298 H1285 0.961 . S
C1298 H1286 0.959 . S
C1298 C1296 1.561 . S
C1299 C1296 1.526 . S
C1299 C1300 1.396 . S
C1299 C1304 1.390 . S
C1300 C1294 1.465 . S
C1300 C1299 1.396 . S
C1300 C1301 1.399 . S
C1301 H1287 0.929 . S
C1301 C1300 1.399 . S
C1301 C1302 1.385 . S
C1302 H1288 0.931 . S
C1302 C1301 1.385 . S
C1302 C1303 1.389 . S
C1303 C1302 1.389 . S
C1303 C1304 1.387 . S
C1304 H1289 0.930 . S
C1304 C1299 1.390 . S
C1304 C1303 1.387 . S
H1305 C1317 0.930 . S
H1306 C1319 0.930 . S
H1307 C1320 0.930 . S
H1308 C1324 0.959 . S
H1309 C1324 0.959 . S
H1310 C1324 0.961 . S
H1311 C1325 0.960 . S
H1312 C1325 0.961 . S
H1313 C1325 0.959 . S
H1314 C1328 0.929 . S
H1315 C1329 0.931 . S
H1316 C1331 0.930 . S
C1317 H1305 0.930 . S
C1317 C1318 1.399 . S
C1317 C1322 1.399 . S
C1318 C1317 1.399 . S
C1318 C1319 1.376 . S
C1319 H1306 0.930 . S
C1319 C1318 1.376 . S
C1319 C1320 1.388 . S
C1320 H1307 0.930 . S
C1320 C1319 1.388 . S
C1320 C1321 1.390 . S
C1321 C1320 1.390 . S
C1321 C1322 1.394 . S
C1321 C1327 1.465 . S
C1322 C1317 1.399 . S
C1322 C1321 1.394 . S
C1322 C1323 1.516 . S
C1323 C1322 1.516 . S
C1323 C1324 1.502 . S
C1323 C1325 1.561 . S
C1323 C1326 1.526 . S
C1324 H1308 0.959 . S
C1324 H1309 0.959 . S
C1324 H1310 0.961 . S
C1324 C1323 1.502 . S
C1325 H1311 0.960 . S
C1325 H1312 0.961 . S
C1325 H1313 0.959 . S
C1325 C1323 1.561 . S
C1326 C1323 1.526 . S
C1326 C1327 1.396 . S
C1326 C1331 1.390 . S
C1327 C1321 1.465 . S
C1327 C1326 1.396 . S
C1327 C1328 1.399 . S
C1328 H1314 0.929 . S
C1328 C1327 1.399 . S
C1328 C1329 1.385 . S
C1329 H1315 0.931 . S
C1329 C1328 1.385 . S
C1329 C1330 1.389 . S
C1330 C1329 1.389 . S
C1330 C1331 1.387 . S
C1331 H1316 0.930 . S
C1331 C1326 1.390 . S
C1331 C1330 1.387 . S
H1332 C1344 0.930 . S
H1333 C1346 0.930 1_655 S
H1334 C1347 0.930 . S
H1335 C1351 0.959 . S
H1336 C1351 0.959 1_556 S
H1337 C1351 0.961 . S
H1338 C1352 0.960 . S
H1339 C1352 0.961 1_556 S
H1340 C1352 0.959 . S
H1341 C1355 0.929 . S
H1342 C1356 0.931 . S
H1343 C1358 0.930 . S
C1344 H1332 0.930 . S
C1344 C1345 1.399 . S
C1344 C1349 1.399 . S
C1345 C1344 1.399 . S
C1345 C1346 1.376 . S
C1346 H1333 0.930 1_455 S
C1346 C1345 1.376 . S
C1346 C1347 1.388 1_455 S
C1347 H1334 0.930 . S
C1347 C1346 1.388 1_655 S
C1347 C1348 1.390 1_655 S
C1348 C1347 1.390 1_455 S
C1348 C1349 1.394 . S
C1348 C1354 1.465 1_554 S
C1349 C1344 1.399 . S
C1349 C1348 1.394 . S
C1349 C1350 1.516 . S
C1350 C1349 1.516 . S
C1350 C1351 1.502 . S
C1350 C1352 1.561 . S
C1350 C1353 1.526 1_554 S
C1351 H1335 0.959 . S
C1351 H1336 0.959 1_554 S
C1351 H1337 0.961 . S
C1351 C1350 1.502 . S
C1352 H1338 0.960 . S
C1352 H1339 0.961 1_554 S
C1352 H1340 0.959 . S
C1352 C1350 1.561 . S
C1353 C1350 1.526 1_556 S
C1353 C1354 1.396 . S
C1353 C1358 1.390 . S
C1354 C1348 1.465 1_556 S
C1354 C1353 1.396 . S
C1354 C1355 1.399 1_455 S
C1355 H1341 0.929 . S
C1355 C1354 1.399 1_655 S
C1355 C1356 1.385 . S
C1356 H1342 0.931 . S
C1356 C1355 1.385 . S
C1356 C1357 1.389 1_655 S
C1357 C1356 1.389 1_455 S
C1357 C1358 1.387 . S
C1358 H1343 0.930 . S
C1358 C1353 1.390 . S
C1358 C1357 1.387 . S
H1359 C1371 0.930 . S
H1360 C1373 0.930 . S
H1361 C1374 0.930 . S
H1362 C1378 0.959 . S
H1363 C1378 0.959 . S
H1364 C1378 0.961 1_554 S
H1365 C1379 0.960 1_554 S
H1366 C1379 0.961 . S
H1367 C1379 0.959 . S
H1368 C1382 0.929 . S
H1369 C1383 0.931 . S
H1370 C1385 0.930 . S
C1371 H1359 0.930 . S
C1371 C1372 1.399 . S
C1371 C1376 1.399 . S
C1372 C1371 1.399 . S
C1372 C1373 1.376 . S
C1373 H1360 0.930 . S
C1373 C1372 1.376 . S
C1373 C1374 1.388 . S
C1374 H1361 0.930 . S
C1374 C1373 1.388 . S
C1374 C1375 1.390 . S
C1375 C1374 1.390 . S
C1375 C1376 1.394 . S
C1375 C1381 1.465 1_554 S
C1376 C1371 1.399 . S
C1376 C1375 1.394 . S
C1376 C1377 1.516 1_554 S
C1377 C1376 1.516 1_556 S
C1377 C1378 1.502 . S
C1377 C1379 1.561 . S
C1377 C1380 1.526 . S
C1378 H1362 0.959 . S
C1378 H1363 0.959 . S
C1378 H1364 0.961 1_556 S
C1378 C1377 1.502 . S
C1379 H1365 0.960 1_556 S
C1379 H1366 0.961 . S
C1379 H1367 0.959 . S
C1379 C1377 1.561 . S
C1380 C1377 1.526 . S
C1380 C1381 1.396 . S
C1380 C1385 1.390 . S
C1381 C1375 1.465 1_556 S
C1381 C1380 1.396 . S
C1381 C1382 1.399 . S
C1382 H1368 0.929 . S
C1382 C1381 1.399 . S
C1382 C1383 1.385 . S
C1383 H1369 0.931 . S
C1383 C1382 1.385 . S
C1383 C1384 1.389 . S
C1384 C1383 1.389 . S
C1384 C1385 1.387 . S
C1385 H1370 0.930 . S
C1385 C1380 1.390 . S
C1385 C1384 1.387 . S
H1386 C1398 0.930 1_565 S
H1387 C1400 0.930 . S
H1388 C1401 0.930 . S
H1389 C1405 0.959 . S
H1390 C1405 0.959 . S
H1391 C1405 0.961 1_554 S
H1392 C1406 0.960 1_554 S
H1393 C1406 0.961 . S
H1394 C1406 0.965 1_545 S
H1395 C1409 0.929 . S
H1396 C1410 0.931 . S
H1397 C1412 0.930 . S
C1398 H1386 0.930 1_545 S
C1398 C1399 1.399 . S
C1398 C1403 1.399 . S
C1399 C1398 1.399 . S
C1399 C1400 1.376 . S
C1400 H1387 0.930 . S
C1400 C1399 1.376 . S
C1400 C1401 1.388 . S
C1401 H1388 0.930 . S
C1401 C1400 1.388 . S
C1401 C1402 1.390 . S
C1402 C1401 1.390 . S
C1402 C1403 1.394 . S
C1402 C1408 1.465 1_554 S
C1403 C1398 1.399 . S
C1403 C1402 1.394 . S
C1403 C1404 1.503 1_544 S
C1404 C1403 1.503 1_566 S
C1404 C1405 1.542 . S
C1404 C1406 1.557 . S
C1404 C1407 1.498 1_565 S
C1405 H1389 0.959 . S
C1405 H1390 0.959 . S
C1405 H1391 0.961 1_556 S
C1405 C1404 1.542 . S
C1406 H1392 0.960 1_556 S
C1406 H1393 0.961 . S
C1406 H1394 0.965 1_565 S
C1406 C1404 1.557 . S
C1407 C1404 1.498 1_545 S
C1407 C1408 1.396 . S
C1407 C1412 1.390 . S
C1408 C1402 1.465 1_556 S
C1408 C1407 1.396 . S
C1408 C1409 1.399 . S
C1409 H1395 0.929 . S
C1409 C1408 1.399 . S
C1409 C1410 1.385 . S
C1410 H1396 0.931 . S
C1410 C1409 1.385 . S
C1410 C1411 1.389 . S
C1411 C1410 1.389 . S
C1411 C1412 1.387 . S
C1412 H1397 0.930 . S
C1412 C1407 1.390 . S
C1412 C1411 1.387 . S
H1413 C1425 0.930 . S
H1414 C1427 0.930 . S
H1415 C1428 0.930 . S
H1416 C1432 0.959 . S
H1417 C1432 0.959 . S
H1418 C1432 0.961 . S
H1419 C1433 0.960 . S
H1420 C1433 0.961 . S
H1421 C1433 0.959 1_455 S
H1422 C1436 0.929 . S
H1423 C1437 0.931 . S
H1424 C1439 0.930 1_655 S
C1425 H1413 0.930 . S
C1425 C1426 1.399 1_655 S
C1425 C1430 1.399 1_655 S
C1426 C1425 1.399 1_455 S
C1426 C1427 1.376 . S
C1427 H1414 0.930 . S
C1427 C1426 1.376 . S
C1427 C1428 1.388 . S
C1428 H1415 0.930 . S
C1428 C1427 1.388 . S
C1428 C1429 1.387 1_556 S
C1429 C1428 1.387 1_554 S
C1429 C1430 1.393 1_554 S
C1429 C1435 1.470 . S
C1430 C1425 1.399 1_455 S
C1430 C1429 1.393 1_556 S
C1430 C1431 1.516 1_456 S
C1431 C1430 1.516 1_654 S
C1431 C1432 1.502 . S
C1431 C1433 1.561 . S
C1431 C1434 1.526 1_655 S
C1432 H1416 0.959 . S
C1432 H1417 0.959 . S
C1432 H1418 0.961 . S
C1432 C1431 1.502 . S
C1433 H1419 0.960 . S
C1433 H1420 0.961 . S
C1433 H1421 0.959 1_655 S
C1433 C1431 1.561 . S
C1434 C1431 1.526 1_455 S
C1434 C1435 1.396 . S
C1434 C1439 1.390 . S
C1435 C1429 1.470 . S
C1435 C1434 1.396 . S
C1435 C1436 1.399 . S
C1436 H1422 0.929 . S
C1436 C1435 1.399 . S
C1436 C1437 1.385 . S
C1437 H1423 0.931 . S
C1437 C1436 1.385 . S
C1437 C1438 1.389 . S
C1438 C1437 1.389 . S
C1438 C1439 1.387 . S
C1439 H1424 0.930 1_455 S
C1439 C1434 1.390 . S
C1439 C1438 1.387 . S
H1440 C1452 0.930 . S
H1441 C1454 0.930 . S
H1442 C1455 0.930 . S
H1443 C1459 0.959 . S
H1444 C1459 0.959 . S
H1445 C1459 0.961 . S
H1446 C1460 0.960 . S
H1447 C1460 0.961 . S
H1448 C1460 0.959 . S
H1449 C1463 0.929 1_554 S
H1450 C1464 0.931 . S
H1451 C1466 0.930 . S
C1452 H1440 0.930 . S
C1452 C1453 1.399 . S
C1452 C1457 1.399 . S
C1453 C1452 1.399 . S
C1453 C1454 1.376 . S
C1454 H1441 0.930 . S
C1454 C1453 1.376 . S
C1454 C1455 1.388 . S
C1455 H1442 0.930 . S
C1455 C1454 1.388 . S
C1455 C1456 1.390 . S
C1456 C1455 1.390 . S
C1456 C1457 1.394 . S
C1456 C1462 1.465 . S
C1457 C1452 1.399 . S
C1457 C1456 1.394 . S
C1457 C1458 1.516 . S
C1458 C1457 1.516 . S
C1458 C1459 1.502 . S
C1458 C1460 1.561 . S
C1458 C1461 1.526 . S
C1459 H1443 0.959 . S
C1459 H1444 0.959 . S
C1459 H1445 0.961 . S
C1459 C1458 1.502 . S
C1460 H1446 0.960 . S
C1460 H1447 0.961 . S
C1460 H1448 0.959 . S
C1460 C1458 1.561 . S
C1461 C1458 1.526 . S
C1461 C1462 1.396 . S
C1461 C1466 1.390 1_554 S
C1462 C1456 1.465 . S
C1462 C1461 1.396 . S
C1462 C1463 1.399 1_554 S
C1463 H1449 0.929 1_556 S
C1463 C1462 1.399 1_556 S
C1463 C1464 1.385 . S
C1464 H1450 0.931 . S
C1464 C1463 1.385 . S
C1464 C1465 1.389 . S
C1465 C1464 1.389 . S
C1465 C1466 1.387 . S
C1466 H1451 0.930 . S
C1466 C1461 1.390 1_556 S
C1466 C1465 1.387 . S
H1467 C1479 0.930 . S
H1468 C1481 0.930 1_565 S
H1469 C1482 0.930 1_565 S
H1470 C1486 0.959 . S
H1471 C1486 0.959 . S
H1472 C1486 0.961 . S
H1473 C1487 0.960 . S
H1474 C1487 0.961 . S
H1475 C1487 0.959 . S
H1476 C1490 0.929 1_565 S
H1477 C1491 0.931 . S
H1478 C1493 0.930 . S
C1479 H1467 0.930 . S
C1479 C1480 1.399 . S
C1479 C1484 1.399 . S
C1480 C1479 1.399 . S
C1480 C1481 1.376 . S
C1481 H1468 0.930 1_545 S
C1481 C1480 1.376 . S
C1481 C1482 1.388 . S
C1482 H1469 0.930 1_545 S
C1482 C1481 1.388 . S
C1482 C1483 1.390 . S
C1483 C1482 1.390 . S
C1483 C1484 1.394 . S
C1483 C1489 1.465 1_554 S
C1484 C1479 1.399 . S
C1484 C1483 1.394 . S
C1484 C1485 1.516 . S
C1485 C1484 1.516 . S
C1485 C1486 1.502 . S
C1485 C1487 1.561 . S
C1485 C1488 1.526 1_554 S
C1486 H1470 0.959 . S
C1486 H1471 0.959 . S
C1486 H1472 0.961 . S
C1486 C1485 1.502 . S
C1487 H1473 0.960 . S
C1487 H1474 0.961 . S
C1487 H1475 0.959 . S
C1487 C1485 1.561 . S
C1488 C1485 1.526 1_556 S
C1488 C1489 1.396 . S
C1488 C1493 1.390 . S
C1489 C1483 1.465 1_556 S
C1489 C1488 1.396 . S
C1489 C1490 1.399 . S
C1490 H1476 0.929 1_545 S
C1490 C1489 1.399 . S
C1490 C1491 1.385 . S
C1491 H1477 0.931 . S
C1491 C1490 1.385 . S
C1491 C1492 1.389 . S
C1492 C1491 1.389 . S
C1492 C1493 1.387 . S
C1493 H1478 0.930 . S
C1493 C1488 1.390 . S
C1493 C1492 1.387 . S
H1494 C1506 0.930 . S
H1495 C1508 0.930 . S
H1496 C1509 0.930 . S
H1497 C1513 0.959 . S
H1498 C1513 0.959 . S
H1499 C1513 0.961 . S
H1500 C1514 0.960 . S
H1501 C1514 0.961 . S
H1502 C1514 0.959 . S
H1503 C1517 0.929 . S
H1504 C1518 0.931 . S
H1505 C1520 0.930 . S
C1506 H1494 0.930 . S
C1506 C1507 1.399 . S
C1506 C1511 1.399 . S
C1507 C1506 1.399 . S
C1507 C1508 1.376 . S
C1508 H1495 0.930 . S
C1508 C1507 1.376 . S
C1508 C1509 1.388 . S
C1509 H1496 0.930 . S
C1509 C1508 1.388 . S
C1509 C1510 1.390 . S
C1510 C1509 1.390 . S
C1510 C1511 1.394 . S
C1510 C1516 1.465 . S
C1511 C1506 1.399 . S
C1511 C1510 1.394 . S
C1511 C1512 1.516 . S
C1512 C1511 1.516 . S
C1512 C1513 1.502 . S
C1512 C1514 1.561 . S
C1512 C1515 1.526 . S
C1513 H1497 0.959 . S
C1513 H1498 0.959 . S
C1513 H1499 0.961 . S
C1513 C1512 1.502 . S
C1514 H1500 0.960 . S
C1514 H1501 0.961 . S
C1514 H1502 0.959 . S
C1514 C1512 1.561 . S
C1515 C1512 1.526 . S
C1515 C1516 1.396 . S
C1515 C1520 1.390 . S
C1516 C1510 1.465 . S
C1516 C1515 1.396 . S
C1516 C1517 1.399 . S
C1517 H1503 0.929 . S
C1517 C1516 1.399 . S
C1517 C1518 1.385 . S
C1518 H1504 0.931 . S
C1518 C1517 1.385 . S
C1518 C1519 1.389 . S
C1519 C1518 1.389 . S
C1519 C1520 1.387 . S
C1520 H1505 0.930 . S
C1520 C1515 1.390 . S
C1520 C1519 1.387 . S
H1521 C1533 0.930 . S
H1522 C1535 0.930 . S
H1523 C1536 0.930 . S
H1524 C1540 0.959 . S
H1525 C1540 0.959 . S
H1526 C1540 0.961 . S
H1527 C1541 0.960 . S
H1528 C1541 0.961 . S
H1529 C1541 0.959 . S
H1530 C1544 0.929 . S
H1531 C1545 0.931 . S
H1532 C1547 0.930 . S
C1533 H1521 0.930 . S
C1533 C1534 1.399 . S
C1533 C1538 1.399 . S
C1534 C1533 1.399 . S
C1534 C1535 1.376 . S
C1535 H1522 0.930 . S
C1535 C1534 1.376 . S
C1535 C1536 1.388 . S
C1536 H1523 0.930 . S
C1536 C1535 1.388 . S
C1536 C1537 1.390 . S
C1537 C1536 1.390 . S
C1537 C1538 1.394 . S
C1537 C1543 1.465 . S
C1538 C1533 1.399 . S
C1538 C1537 1.394 . S
C1538 C1539 1.516 . S
C1539 C1538 1.516 . S
C1539 C1540 1.502 . S
C1539 C1541 1.561 . S
C1539 C1542 1.526 . S
C1540 H1524 0.959 . S
C1540 H1525 0.959 . S
C1540 H1526 0.961 . S
C1540 C1539 1.502 . S
C1541 H1527 0.960 . S
C1541 H1528 0.961 . S
C1541 H1529 0.959 . S
C1541 C1539 1.561 . S
C1542 C1539 1.526 . S
C1542 C1543 1.396 . S
C1542 C1547 1.390 . S
C1543 C1537 1.465 . S
C1543 C1542 1.396 . S
C1543 C1544 1.399 . S
C1544 H1530 0.929 . S
C1544 C1543 1.399 . S
C1544 C1545 1.385 . S
C1545 H1531 0.931 . S
C1545 C1544 1.385 . S
C1545 C1546 1.389 . S
C1546 C1545 1.389 . S
C1546 C1547 1.387 . S
C1547 H1532 0.930 . S
C1547 C1542 1.390 . S
C1547 C1546 1.387 . S
H1548 C1560 0.930 . S
H1549 C1562 0.930 . S
H1550 C1563 0.930 . S
H1551 C1567 0.959 . S
H1552 C1567 0.959 . S
H1553 C1567 0.961 . S
H1554 C1568 0.960 . S
H1555 C1568 0.961 . S
H1556 C1568 0.959 . S
H1557 C1571 0.929 . S
H1558 C1572 0.931 . S
H1559 C1574 0.930 . S
C1560 H1548 0.930 . S
C1560 C1561 1.399 . S
C1560 C1565 1.399 . S
C1561 C1560 1.399 . S
C1561 C1562 1.376 . S
C1562 H1549 0.930 . S
C1562 C1561 1.376 . S
C1562 C1563 1.388 . S
C1563 H1550 0.930 . S
C1563 C1562 1.388 . S
C1563 C1564 1.390 . S
C1564 C1563 1.390 . S
C1564 C1565 1.394 . S
C1564 C1570 1.465 . S
C1565 C1560 1.399 . S
C1565 C1564 1.394 . S
C1565 C1566 1.516 . S
C1566 C1565 1.516 . S
C1566 C1567 1.502 . S
C1566 C1568 1.561 . S
C1566 C1569 1.526 . S
C1567 H1551 0.959 . S
C1567 H1552 0.959 . S
C1567 H1553 0.961 . S
C1567 C1566 1.502 . S
C1568 H1554 0.960 . S
C1568 H1555 0.961 . S
C1568 H1556 0.959 . S
C1568 C1566 1.561 . S
C1569 C1566 1.526 . S
C1569 C1570 1.396 . S
C1569 C1574 1.390 . S
C1570 C1564 1.465 . S
C1570 C1569 1.396 . S
C1570 C1571 1.399 . S
C1571 H1557 0.929 . S
C1571 C1570 1.399 . S
C1571 C1572 1.385 . S
C1572 H1558 0.931 . S
C1572 C1571 1.385 . S
C1572 C1573 1.389 . S
C1573 C1572 1.389 . S
C1573 C1574 1.387 . S
C1574 H1559 0.930 . S
C1574 C1569 1.390 . S
C1574 C1573 1.387 . S
H1575 C1587 0.930 . S
H1576 C1589 0.930 . S
H1577 C1590 0.930 . S
H1578 C1594 0.959 . S
H1579 C1594 0.959 . S
H1580 C1594 0.961 . S
H1581 C1595 0.960 . S
H1582 C1595 0.961 . S
H1583 C1595 0.959 . S
H1584 C1598 0.929 . S
H1585 C1599 0.931 . S
H1586 C1601 0.930 . S
C1587 H1575 0.930 . S
C1587 C1588 1.399 . S
C1587 C1592 1.399 . S
C1588 C1587 1.399 . S
C1588 C1589 1.376 . S
C1589 H1576 0.930 . S
C1589 C1588 1.376 . S
C1589 C1590 1.388 . S
C1590 H1577 0.930 . S
C1590 C1589 1.388 . S
C1590 C1591 1.390 . S
C1591 C1590 1.390 . S
C1591 C1592 1.394 . S
C1591 C1597 1.465 . S
C1592 C1587 1.399 . S
C1592 C1591 1.394 . S
C1592 C1593 1.516 . S
C1593 C1592 1.516 . S
C1593 C1594 1.502 . S
C1593 C1595 1.561 . S
C1593 C1596 1.526 . S
C1594 H1578 0.959 . S
C1594 H1579 0.959 . S
C1594 H1580 0.961 . S
C1594 C1593 1.502 . S
C1595 H1581 0.960 . S
C1595 H1582 0.961 . S
C1595 H1583 0.959 . S
C1595 C1593 1.561 . S
C1596 C1593 1.526 . S
C1596 C1597 1.396 . S
C1596 C1601 1.390 . S
C1597 C1591 1.465 . S
C1597 C1596 1.396 . S
C1597 C1598 1.399 . S
C1598 H1584 0.929 . S
C1598 C1597 1.399 . S
C1598 C1599 1.385 . S
C1599 H1585 0.931 . S
C1599 C1598 1.385 . S
C1599 C1600 1.389 . S
C1600 C1599 1.389 . S
C1600 C1601 1.387 . S
C1601 H1586 0.930 . S
C1601 C1596 1.390 . S
C1601 C1600 1.387 . S
H1602 C1614 0.930 . S
H1603 C1616 0.930 . S
H1604 C1617 0.930 . S
H1605 C1621 0.959 . S
H1606 C1621 0.959 . S
H1607 C1621 0.961 . S
H1608 C1622 0.960 . S
H1609 C1622 0.961 . S
H1610 C1622 0.959 . S
H1611 C1625 0.929 . S
H1612 C1626 0.931 . S
H1613 C1628 0.930 . S
C1614 H1602 0.930 . S
C1614 C1615 1.399 . S
C1614 C1619 1.399 . S
C1615 C1614 1.399 . S
C1615 C1616 1.376 . S
C1616 H1603 0.930 . S
C1616 C1615 1.376 . S
C1616 C1617 1.388 . S
C1617 H1604 0.930 . S
C1617 C1616 1.388 . S
C1617 C1618 1.390 . S
C1618 C1617 1.390 . S
C1618 C1619 1.394 . S
C1618 C1624 1.465 . S
C1619 C1614 1.399 . S
C1619 C1618 1.394 . S
C1619 C1620 1.516 . S
C1620 C1619 1.516 . S
C1620 C1621 1.502 . S
C1620 C1622 1.561 . S
C1620 C1623 1.526 . S
C1621 H1605 0.959 . S
C1621 H1606 0.959 . S
C1621 H1607 0.961 . S
C1621 C1620 1.502 . S
C1622 H1608 0.960 . S
C1622 H1609 0.961 . S
C1622 H1610 0.959 . S
C1622 C1620 1.561 . S
C1623 C1620 1.526 . S
C1623 C1624 1.396 . S
C1623 C1628 1.390 . S
C1624 C1618 1.465 . S
C1624 C1623 1.396 . S
C1624 C1625 1.399 . S
C1625 H1611 0.929 . S
C1625 C1624 1.399 . S
C1625 C1626 1.385 . S
C1626 H1612 0.931 . S
C1626 C1625 1.385 . S
C1626 C1627 1.389 . S
C1627 C1626 1.389 . S
C1627 C1628 1.387 . S
C1628 H1613 0.930 . S
C1628 C1623 1.390 . S
C1628 C1627 1.387 . S
H1629 C1641 0.930 . S
H1630 C1643 0.930 . S
H1631 C1644 0.930 . S
H1632 C1648 0.959 . S
H1633 C1648 0.959 . S
H1634 C1648 0.961 . S
H1635 C1649 0.960 . S
H1636 C1649 0.961 . S
H1637 C1649 0.959 . S
H1638 C1652 0.929 . S
H1639 C1653 0.931 . S
H1640 C1655 0.930 . S
C1641 H1629 0.930 . S
C1641 C1642 1.399 . S
C1641 C1646 1.399 . S
C1642 C1641 1.399 . S
C1642 C1643 1.376 . S
C1643 H1630 0.930 . S
C1643 C1642 1.376 . S
C1643 C1644 1.388 . S
C1644 H1631 0.930 . S
C1644 C1643 1.388 . S
C1644 C1645 1.390 . S
C1645 C1644 1.390 . S
C1645 C1646 1.394 . S
C1645 C1651 1.465 . S
C1646 C1641 1.399 . S
C1646 C1645 1.394 . S
C1646 C1647 1.516 . S
C1647 C1646 1.516 . S
C1647 C1648 1.502 . S
C1647 C1649 1.561 . S
C1647 C1650 1.526 . S
C1648 H1632 0.959 . S
C1648 H1633 0.959 . S
C1648 H1634 0.961 . S
C1648 C1647 1.502 . S
C1649 H1635 0.960 . S
C1649 H1636 0.961 . S
C1649 H1637 0.959 . S
C1649 C1647 1.561 . S
C1650 C1647 1.526 . S
C1650 C1651 1.396 . S
C1650 C1655 1.390 . S
C1651 C1645 1.465 . S
C1651 C1650 1.396 . S
C1651 C1652 1.399 . S
C1652 H1638 0.929 . S
C1652 C1651 1.399 . S
C1652 C1653 1.385 . S
C1653 H1639 0.931 . S
C1653 C1652 1.385 . S
C1653 C1654 1.389 . S
C1654 C1653 1.389 . S
C1654 C1655 1.387 . S
C1655 H1640 0.930 . S
C1655 C1650 1.390 . S
C1655 C1654 1.387 . S
H1656 C1668 0.930 . S
H1657 C1670 0.930 . S
H1658 C1671 0.930 . S
H1659 C1675 0.959 . S
H1660 C1675 0.959 . S
H1661 C1675 0.961 . S
H1662 C1676 0.960 . S
H1663 C1676 0.961 . S
H1664 C1676 0.959 . S
H1665 C1679 0.929 . S
H1666 C1680 0.931 . S
H1667 C1682 0.930 . S
C1668 H1656 0.930 . S
C1668 C1669 1.399 . S
C1668 C1673 1.399 . S
C1669 C1668 1.399 . S
C1669 C1670 1.376 . S
C1670 H1657 0.930 . S
C1670 C1669 1.376 . S
C1670 C1671 1.388 . S
C1671 H1658 0.930 . S
C1671 C1670 1.388 . S
C1671 C1672 1.390 . S
C1672 C1671 1.390 . S
C1672 C1673 1.394 . S
C1672 C1678 1.465 . S
C1673 C1668 1.399 . S
C1673 C1672 1.394 . S
C1673 C1674 1.516 . S
C1674 C1673 1.516 . S
C1674 C1675 1.502 . S
C1674 C1676 1.561 . S
C1674 C1677 1.526 . S
C1675 H1659 0.959 . S
C1675 H1660 0.959 . S
C1675 H1661 0.961 . S
C1675 C1674 1.502 . S
C1676 H1662 0.960 . S
C1676 H1663 0.961 . S
C1676 H1664 0.959 . S
C1676 C1674 1.561 . S
C1677 C1674 1.526 . S
C1677 C1678 1.396 . S
C1677 C1682 1.390 . S
C1678 C1672 1.465 . S
C1678 C1677 1.396 . S
C1678 C1679 1.399 . S
C1679 H1665 0.929 . S
C1679 C1678 1.399 . S
C1679 C1680 1.385 . S
C1680 H1666 0.931 . S
C1680 C1679 1.385 . S
C1680 C1681 1.389 . S
C1681 C1680 1.389 . S
C1681 C1682 1.387 . S
C1682 H1667 0.930 . S
C1682 C1677 1.390 . S
C1682 C1681 1.387 . S
H1683 C1695 0.930 . S
H1684 C1697 0.930 . S
H1685 C1698 0.930 . S
H1686 C1702 0.959 . S
H1687 C1702 0.959 . S
H1688 C1702 0.961 . S
H1689 C1703 0.960 . S
H1690 C1703 0.961 . S
H1691 C1703 0.959 . S
H1692 C1706 0.929 . S
H1693 C1707 0.931 . S
H1694 C1709 0.930 . S
C1695 H1683 0.930 . S
C1695 C1696 1.399 . S
C1695 C1700 1.399 . S
C1696 C1695 1.399 . S
C1696 C1697 1.376 . S
C1697 H1684 0.930 . S
C1697 C1696 1.376 . S
C1697 C1698 1.388 . S
C1698 H1685 0.930 . S
C1698 C1697 1.388 . S
C1698 C1699 1.390 . S
C1699 C1698 1.390 . S
C1699 C1700 1.394 . S
C1699 C1705 1.465 . S
C1700 C1695 1.399 . S
C1700 C1699 1.394 . S
C1700 C1701 1.516 . S
C1701 C1700 1.516 . S
C1701 C1702 1.502 . S
C1701 C1703 1.561 . S
C1701 C1704 1.526 . S
C1702 H1686 0.959 . S
C1702 H1687 0.959 . S
C1702 H1688 0.961 . S
C1702 C1701 1.502 . S
C1703 H1689 0.960 . S
C1703 H1690 0.961 . S
C1703 H1691 0.959 . S
C1703 C1701 1.561 . S
C1704 C1701 1.526 . S
C1704 C1705 1.396 . S
C1704 C1709 1.390 . S
C1705 C1699 1.465 . S
C1705 C1704 1.396 . S
C1705 C1706 1.399 . S
C1706 H1692 0.929 . S
C1706 C1705 1.399 . S
C1706 C1707 1.385 . S
C1707 H1693 0.931 . S
C1707 C1706 1.385 . S
C1707 C1708 1.389 . S
C1708 C1707 1.389 . S
C1708 C1709 1.387 . S
C1709 H1694 0.930 . S
C1709 C1704 1.390 . S
C1709 C1708 1.387 . S
H1710 C1722 0.930 . S
H1711 C1724 0.930 . S
H1712 C1725 0.930 . S
H1713 C1729 0.959 . S
H1714 C1729 0.959 . S
H1715 C1729 0.961 . S
H1716 C1730 0.960 . S
H1717 C1730 0.961 . S
H1718 C1730 0.959 . S
H1719 C1733 0.929 . S
H1720 C1734 0.931 . S
H1721 C1736 0.930 . S
C1722 H1710 0.930 . S
C1722 C1723 1.399 . S
C1722 C1727 1.399 . S
C1723 C1722 1.399 . S
C1723 C1724 1.376 . S
C1724 H1711 0.930 . S
C1724 C1723 1.376 . S
C1724 C1725 1.388 . S
C1725 H1712 0.930 . S
C1725 C1724 1.388 . S
C1725 C1726 1.390 . S
C1726 C1725 1.390 . S
C1726 C1727 1.394 . S
C1726 C1732 1.465 . S
C1727 C1722 1.399 . S
C1727 C1726 1.394 . S
C1727 C1728 1.516 . S
C1728 C1727 1.516 . S
C1728 C1729 1.502 . S
C1728 C1730 1.561 . S
C1728 C1731 1.526 . S
C1729 H1713 0.959 . S
C1729 H1714 0.959 . S
C1729 H1715 0.961 . S
C1729 C1728 1.502 . S
C1730 H1716 0.960 . S
C1730 H1717 0.961 . S
C1730 H1718 0.959 . S
C1730 C1728 1.561 . S
C1731 C1728 1.526 . S
C1731 C1732 1.396 . S
C1731 C1736 1.390 . S
C1732 C1726 1.465 . S
C1732 C1731 1.396 . S
C1732 C1733 1.399 . S
C1733 H1719 0.929 . S
C1733 C1732 1.399 . S
C1733 C1734 1.385 . S
C1734 H1720 0.931 . S
C1734 C1733 1.385 . S
C1734 C1735 1.389 . S
C1735 C1734 1.389 . S
C1735 C1736 1.387 . S
C1736 H1721 0.930 . S
C1736 C1731 1.390 . S
C1736 C1735 1.387 . S
H1737 C1749 0.930 . S
H1738 C1751 0.930 . S
H1739 C1752 0.930 . S
H1740 C1756 0.959 . S
H1741 C1756 0.959 . S
H1742 C1756 0.961 . S
H1743 C1757 0.960 . S
H1744 C1757 0.961 . S
H1745 C1757 0.959 . S
H1746 C1760 0.929 . S
H1747 C1761 0.931 . S
H1748 C1763 0.930 . S
C1749 H1737 0.930 . S
C1749 C1750 1.399 . S
C1749 C1754 1.399 . S
C1750 C1749 1.399 . S
C1750 C1751 1.376 . S
C1751 H1738 0.930 . S
C1751 C1750 1.376 . S
C1751 C1752 1.388 . S
C1752 H1739 0.930 . S
C1752 C1751 1.388 . S
C1752 C1753 1.390 . S
C1753 C1752 1.390 . S
C1753 C1754 1.394 . S
C1753 C1759 1.465 . S
C1754 C1749 1.399 . S
C1754 C1753 1.394 . S
C1754 C1755 1.516 . S
C1755 C1754 1.516 . S
C1755 C1756 1.502 . S
C1755 C1757 1.561 . S
C1755 C1758 1.526 . S
C1756 H1740 0.959 . S
C1756 H1741 0.959 . S
C1756 H1742 0.961 . S
C1756 C1755 1.502 . S
C1757 H1743 0.960 . S
C1757 H1744 0.961 . S
C1757 H1745 0.959 . S
C1757 C1755 1.561 . S
C1758 C1755 1.526 . S
C1758 C1759 1.396 . S
C1758 C1763 1.390 . S
C1759 C1753 1.465 . S
C1759 C1758 1.396 . S
C1759 C1760 1.399 . S
C1760 H1746 0.929 . S
C1760 C1759 1.399 . S
C1760 C1761 1.385 . S
C1761 H1747 0.931 . S
C1761 C1760 1.385 . S
C1761 C1762 1.389 . S
C1762 C1761 1.389 . S
C1762 C1763 1.387 . S
C1763 H1748 0.930 . S
C1763 C1758 1.390 . S
C1763 C1762 1.387 . S
H1764 C1776 0.930 . S
H1765 C1778 0.930 . S
H1766 C1779 0.930 . S
H1767 C1783 0.959 . S
H1768 C1783 0.959 . S
H1769 C1783 0.961 . S
H1770 C1784 0.960 . S
H1771 C1784 0.961 . S
H1772 C1784 0.959 . S
H1773 C1787 0.929 . S
H1774 C1788 0.931 . S
H1775 C1790 0.930 . S
C1776 H1764 0.930 . S
C1776 C1777 1.399 . S
C1776 C1781 1.399 . S
C1777 C1776 1.399 . S
C1777 C1778 1.376 . S
C1778 H1765 0.930 . S
C1778 C1777 1.376 . S
C1778 C1779 1.388 . S
C1779 H1766 0.930 . S
C1779 C1778 1.388 . S
C1779 C1780 1.390 . S
C1780 C1779 1.390 . S
C1780 C1781 1.394 . S
C1780 C1786 1.465 . S
C1781 C1776 1.399 . S
C1781 C1780 1.394 . S
C1781 C1782 1.516 . S
C1782 C1781 1.516 . S
C1782 C1783 1.502 . S
C1782 C1784 1.561 . S
C1782 C1785 1.526 . S
C1783 H1767 0.959 . S
C1783 H1768 0.959 . S
C1783 H1769 0.961 . S
C1783 C1782 1.502 . S
C1784 H1770 0.960 . S
C1784 H1771 0.961 . S
C1784 H1772 0.959 . S
C1784 C1782 1.561 . S
C1785 C1782 1.526 . S
C1785 C1786 1.396 . S
C1785 C1790 1.390 . S
C1786 C1780 1.465 . S
C1786 C1785 1.396 . S
C1786 C1787 1.399 . S
C1787 H1773 0.929 . S
C1787 C1786 1.399 . S
C1787 C1788 1.385 . S
C1788 H1774 0.931 . S
C1788 C1787 1.385 . S
C1788 C1789 1.389 . S
C1789 C1788 1.389 . S
C1789 C1790 1.387 . S
C1790 H1775 0.930 . S
C1790 C1785 1.390 . S
C1790 C1789 1.387 . S
H1791 C1803 0.930 . S
H1792 C1805 0.930 . S
H1793 C1806 0.930 . S
H1794 C1810 0.959 . S
H1795 C1810 0.959 . S
H1796 C1810 0.961 . S
H1797 C1811 0.960 . S
H1798 C1811 0.961 . S
H1799 C1811 0.959 . S
H1800 C1814 0.929 . S
H1801 C1815 0.931 . S
H1802 C1817 0.930 . S
C1803 H1791 0.930 . S
C1803 C1804 1.399 . S
C1803 C1808 1.399 . S
C1804 C1803 1.399 . S
C1804 C1805 1.376 . S
C1805 H1792 0.930 . S
C1805 C1804 1.376 . S
C1805 C1806 1.388 . S
C1806 H1793 0.930 . S
C1806 C1805 1.388 . S
C1806 C1807 1.390 . S
C1807 C1806 1.390 . S
C1807 C1808 1.394 . S
C1807 C1813 1.465 . S
C1808 C1803 1.399 . S
C1808 C1807 1.394 . S
C1808 C1809 1.516 . S
C1809 C1808 1.516 . S
C1809 C1810 1.502 . S
C1809 C1811 1.561 . S
C1809 C1812 1.526 . S
C1810 H1794 0.959 . S
C1810 H1795 0.959 . S
C1810 H1796 0.961 . S
C1810 C1809 1.502 . S
C1811 H1797 0.960 . S
C1811 H1798 0.961 . S
C1811 H1799 0.959 . S
C1811 C1809 1.561 . S
C1812 C1809 1.526 . S
C1812 C1813 1.396 . S
C1812 C1817 1.390 . S
C1813 C1807 1.465 . S
C1813 C1812 1.396 . S
C1813 C1814 1.399 . S
C1814 H1800 0.929 . S
C1814 C1813 1.399 . S
C1814 C1815 1.385 . S
C1815 H1801 0.931 . S
C1815 C1814 1.385 . S
C1815 C1816 1.389 . S
C1816 C1815 1.389 . S
C1816 C1817 1.387 . S
C1817 H1802 0.930 . S
C1817 C1812 1.390 . S
C1817 C1816 1.387 . S
C373 C266 1.436 . S
C385 C6 1.491 . S
C400 C29 1.561 . S
C412 C289 1.517 . S
C427 C46 1.447 . S
C439 C249 1.534 . S
C454 C49 1.589 . S
C466 C149 1.540 . S
C481 C169 1.891 . S
C493 C9 1.846 . S
C508 C26 1.668 . S
C520 C129 1.749 . S
C535 C76 1.721 . S
C547 C201 1.810 . S
C562 C81 1.568 . S
C574 C221 1.561 . S
C589 C181 1.511 . S
C601 C116 1.414 . S
C616 C321 1.530 . S
C628 C101 1.550 1_565 S
C643 C61 1.504 . S
C655 C356 1.508 . S
C670 C316 1.466 . S
C682 C96 1.501 . S
C697 C166 1.333 . S
C709 C269 1.306 . S
C724 C126 1.279 . S
C736 C286 1.233 . S
C751 C146 1.451 . S
C763 C246 1.494 . S
C778 C196 1.499 . S
C790 C336 1.474 . S
C805 C341 1.363 . S
C817 C216 1.345 . S
C832 C301 1.575 . S
C844 C236 1.574 . S
C859 C1 1.674 . S
C871 C89 1.675 . S
C886 C106 1.991 . S
C898 C36 1.989 . S
C913 C66 1.791 . S
C925 C41 1.852 . S
C940 C86 1.848 . S
C952 C56 1.888 . S
C967 C109 1.912 . S
C979 C16 1.813 . S
C994 C69 1.809 . S
C1006 C21 1.840 . S
C1021 C206 1.706 . S
C1033 C136 1.698 . S
C1048 C226 1.922 . S
C1060 C156 1.903 . S
C1075 C186 1.782 . S
C1087 C176 1.696 . S
C1102 C209 1.781 . S
C1114 C161 1.782 . S
C1129 C229 1.651 . S
C1141 C121 1.692 . S
C1156 C189 1.514 . S
C1168 C141 1.513 . S
C1183 C329 1.448 . S
C1195 C241 1.423 . S
C1210 C346 1.670 . S
C1222 C276 1.642 . S
C1237 C281 1.557 . S
C1249 C306 1.407 . S
C1264 C296 1.818 . S
C1276 C326 1.818 . S
C1291 C256 1.482 . S
C1303 C349 1.551 . S
C1318 C309 1.199 . S
C1330 C261 1.214 . S
C1345 C19 1.660 . S
C1357 C8 1.751 . S
C1372 C28 1.686 . S
C1384 C39 1.752 . S
C1399 C59 1.686 . S
C1411 C48 1.787 . S
C1426 C68 1.666 . S
C1438 C79 1.760 . S
C1453 C88 1.670 . S
C1465 C99 1.768 . S
C1480 C119 1.792 . S
C1492 C108 1.691 . S
C1507 C139 1.678 1_554 S
C1519 C128 1.739 . S
C1534 C148 1.666 . S
C1546 C159 1.762 1_554 S
C1561 C179 1.786 1_554 S
C1573 C168 1.718 . S
C1588 C188 1.655 1_554 S
C1600 C199 1.745 . S
C1615 C208 1.762 1_554 S
C1627 C219 1.698 . S
C1642 C228 1.749 1_554 S
C1654 C239 1.710 . S
C1669 C248 1.655 . S
C1681 C259 1.745 1_556 S
C1696 C268 1.761 . S
C1708 C279 1.666 . S
C1723 C299 1.679 1_556 S
C1735 C288 1.769 . S
C1750 C319 1.701 1_556 S
C1762 C308 1.728 . S
C1777 C328 1.753 1_556 S
C1789 C339 1.662 . S
C1804 C348 1.776 . S
C1816 C359 1.676 1_556 S
