# Generated by pormake.
# Topology wfy, (7)-cn, num edge types: 1
# Building blocks:
#     Node 0, Type 0, BuildingBlock: HICVOG_clean_sbu_0, # of connection points: 7
#     Node 1, Type 0, BuildingBlock: HICVOG_clean_sbu_0, # of connection points: 7
#     Node 2, Type 0, BuildingBlock: HICVOG_clean_sbu_0, # of connection points: 7
#     Node 3, Type 0, BuildingBlock: HICVOG_clean_sbu_0, # of connection points: 7
#     Node 4, Type 0, BuildingBlock: HICVOG_clean_sbu_0, # of connection points: 7
#     Node 5, Type 0, BuildingBlock: HICVOG_clean_sbu_0, # of connection points: 7
#     Node 6, Type 0, BuildingBlock: HICVOG_clean_sbu_0, # of connection points: 7
#     Node 7, Type 0, BuildingBlock: HICVOG_clean_sbu_0, # of connection points: 7
#     Edge 8, Type (0, 0), BuildingBlock: AJUNOK_clean_linker_0, # of connection points: 2
#     Edge 9, Type (0, 0), BuildingBlock: AJUNOK_clean_linker_0, # of connection points: 2
#     Edge 10, Type (0, 0), BuildingBlock: AJUNOK_clean_linker_0, # of connection points: 2
#     Edge 11, Type (0, 0), BuildingBlock: AJUNOK_clean_linker_0, # of connection points: 2
#     Edge 12, Type (0, 0), BuildingBlock: AJUNOK_clean_linker_0, # of connection points: 2
#     Edge 13, Type (0, 0), BuildingBlock: AJUNOK_clean_linker_0, # of connection points: 2
#     Edge 14, Type (0, 0), BuildingBlock: AJUNOK_clean_linker_0, # of connection points: 2
#     Edge 15, Type (0, 0), BuildingBlock: AJUNOK_clean_linker_0, # of connection points: 2
#     Edge 16, Type (0, 0), BuildingBlock: AJUNOK_clean_linker_0, # of connection points: 2
#     Edge 17, Type (0, 0), BuildingBlock: AJUNOK_clean_linker_0, # of connection points: 2
#     Edge 18, Type (0, 0), BuildingBlock: AJUNOK_clean_linker_0, # of connection points: 2
#     Edge 19, Type (0, 0), BuildingBlock: AJUNOK_clean_linker_0, # of connection points: 2
#     Edge 20, Type (0, 0), BuildingBlock: AJUNOK_clean_linker_0, # of connection points: 2
#     Edge 21, Type (0, 0), BuildingBlock: AJUNOK_clean_linker_0, # of connection points: 2
#     Edge 22, Type (0, 0), BuildingBlock: AJUNOK_clean_linker_0, # of connection points: 2
#     Edge 23, Type (0, 0), BuildingBlock: AJUNOK_clean_linker_0, # of connection points: 2
#     Edge 24, Type (0, 0), BuildingBlock: AJUNOK_clean_linker_0, # of connection points: 2
#     Edge 25, Type (0, 0), BuildingBlock: AJUNOK_clean_linker_0, # of connection points: 2
#     Edge 26, Type (0, 0), BuildingBlock: AJUNOK_clean_linker_0, # of connection points: 2
#     Edge 27, Type (0, 0), BuildingBlock: AJUNOK_clean_linker_0, # of connection points: 2
#     Edge 28, Type (0, 0), BuildingBlock: AJUNOK_clean_linker_0, # of connection points: 2
#     Edge 29, Type (0, 0), BuildingBlock: AJUNOK_clean_linker_0, # of connection points: 2
#     Edge 30, Type (0, 0), BuildingBlock: AJUNOK_clean_linker_0, # of connection points: 2
#     Edge 31, Type (0, 0), BuildingBlock: AJUNOK_clean_linker_0, # of connection points: 2
#     Edge 32, Type (0, 0), BuildingBlock: AJUNOK_clean_linker_0, # of connection points: 2
#     Edge 33, Type (0, 0), BuildingBlock: AJUNOK_clean_linker_0, # of connection points: 2
#     Edge 34, Type (0, 0), BuildingBlock: AJUNOK_clean_linker_0, # of connection points: 2
#     Edge 35, Type (0, 0), BuildingBlock: AJUNOK_clean_linker_0, # of connection points: 2
# Relax obj value: 0.132
# Max RMSD: 0.238
# Mean RMSD: 0.238
data_MOF--net-wfy--node1-HICVOG_clean_sbu_0--edge1-AJUNOK_clean_linker_0
_symmetry_space_group_name_H-M    P1
_symmetry_Int_Tables_number       1
_symmetry_cell_setting            triclinic
loop_
_symmetry_equiv_pos_as_xyz
'x, y, z'
_cell_length_a     29.620362
_cell_length_b     29.799776
_cell_length_c     18.789982
_cell_angle_alpha  89.63104
_cell_angle_beta   89.815451
_cell_angle_gamma 90.166862
loop_
_atom_site_label
_atom_site_type_symbol
_atom_site_fract_x
_atom_site_fract_y
_atom_site_fract_z
_atom_type_partial_charge
Zn0 Zn 0.33415 0.07694 0.10342 0.0
C1 C 0.29699 0.20585 0.10076 0.0
N2 N 0.34104 0.21283 0.11394 0.0
C3 C 0.35961 0.17217 0.10647 0.0
N4 N 0.32847 0.14111 0.09013 0.0
N5 N 0.28942 0.16217 0.08436 0.0
C6 C 0.1537 0.16369 0.03808 0.0
O7 O 0.15379 0.12436 0.07008 0.0
O8 O 0.39931 0.056 0.09802 0.0
Zn9 Zn 0.24848 0.14167 1.01089 0.0
N10 N 0.31196 0.06377 0.1974 0.0
C11 C 0.2509 0.0668 0.27938 0.0
C12 C 0.26951 0.07752 0.21335 0.0
C13 C 0.33623 0.03837 0.24374 0.0
N14 N 0.27463 0.04067 0.32514 0.0
C15 C 0.3168 0.02549 0.30923 0.0
O16 O 0.23231 0.0746 1.01794 0.0
C17 C 0.25418 0.0378 0.02312 0.0
O18 O 0.29545 0.03715 0.04198 0.0
H19 H 0.25023 0.09643 0.17474 0.0
H20 H 0.3696 0.02735 0.22846 0.0
C21 C 0.26874 0.18182 0.87043 0.0
C22 C 0.29468 0.18662 0.80725 0.0
C23 C 0.34264 0.12809 0.84776 0.0
C24 C 0.31703 0.12369 0.90976 0.0
N25 N 0.28058 0.15044 0.92018 0.0
N26 N 0.33093 0.15925 0.79822 0.0
H27 H 0.23923 0.20226 0.87982 0.0
C28 C 0.42712 0.06731 0.04943 0.0
O29 O 0.41383 0.09447 0.99838 0.0
O30 O 0.19034 0.17823 1.01051 0.0
H31 H 0.32621 0.09914 0.94965 0.0
H32 H 0.21731 0.07793 0.29332 0.0
H33 H 0.37172 0.10693 0.83908 0.0
Zn34 Zn 0.1474 0.76899 0.03825 0.0
C35 C 0.17695 0.66025 0.93545 0.0
N36 N 0.21824 0.67845 0.93043 0.0
C37 C 0.21139 0.72176 0.94701 0.0
N38 N 0.16722 0.72938 0.96187 0.0
N39 N 0.14579 0.69084 0.95236 0.0
C40 C 0.06161 0.59538 0.99746 0.0
O41 O 0.07861 0.61253 0.0557 0.0
O42 O 0.18072 0.82929 0.03317 0.0
Zn43 Zn 0.0826 0.68374 0.93068 0.0
N44 N 0.16199 0.73685 0.12732 0.0
C45 C 0.15484 0.66631 0.18716 0.0
C46 C 0.14452 0.69467 0.13028 0.0
C47 C 0.18864 0.75239 0.18117 0.0
N48 N 0.18179 0.6814 0.24016 0.0
C49 C 0.19885 0.72379 0.23932 0.0
O50 O 0.04212 0.72545 0.98392 0.0
C51 C 0.04196 0.76162 1.01949 0.0
O52 O 0.07868 0.78086 0.03829 0.0
H53 H 0.12299 0.68308 0.08803 0.0
H54 H 0.20225 0.78611 0.17839 0.0
C55 C 0.04485 0.67805 0.79014 0.0
C56 C 0.03579 0.69433 0.72091 0.0
C57 C 0.09051 0.75191 0.73861 0.0
C58 C 0.09704 0.73719 0.80812 0.0
N59 N 0.07467 0.70033 0.83214 0.0
N60 N 0.05968 0.73072 0.69743 0.0
H61 H 0.0277 0.64906 0.81198 0.0
C62 C 0.16301 0.8633 1.00271 0.0
O63 O 0.12341 0.85857 0.97239 0.0
O64 O 0.06049 0.6192 0.94111 0.0
H65 H 0.1189 0.75546 0.84345 0.0
H66 H 0.14146 0.63251 0.18922 0.0
H67 H 0.10841 0.78102 0.71836 0.0
Zn68 Zn 0.68573 0.94141 0.09004 0.0
C69 C 0.72746 0.81433 0.09906 0.0
N70 N 0.68411 0.80725 0.11734 0.0
C71 C 0.66449 0.84703 0.10512 0.0
N72 N 0.69429 0.87762 0.08159 0.0
N73 N 0.73379 0.85731 0.07674 0.0
C74 C 0.87032 0.85691 0.04441 0.0
O75 O 0.86926 0.89673 0.07396 0.0
O76 O 0.6203 0.95974 0.0746 0.0
Zn77 Zn 0.7769 0.87853 1.00676 0.0
N78 N 0.70217 0.95583 0.18593 0.0
C79 C 0.7598 0.95446 0.27347 0.0
C80 C 0.7438 0.94233 0.2068 0.0
C81 C 0.67616 0.98224 0.22808 0.0
N82 N 0.73475 0.98228 0.31439 0.0
C83 C 0.69359 0.99749 0.29311 0.0
O84 O 0.79167 0.94572 1.01336 0.0
C85 C 0.76861 0.98188 1.01534 0.0
O86 O 0.72679 0.98156 0.03128 0.0
H87 H 0.76471 0.9231 0.17104 0.0
H88 H 0.64332 0.99273 0.20963 0.0
C89 C 0.76386 0.83895 0.86567 0.0
C90 C 0.73807 0.82904 0.80418 0.0
C91 C 0.6833 0.882 0.84215 0.0
C92 C 0.70809 0.89026 0.90362 0.0
N93 N 0.7477 0.86847 0.91463 0.0
N94 N 0.69861 0.85156 0.79444 0.0
H95 H 0.79641 0.82393 0.87508 0.0
C96 C 0.61192 1.0013 0.06616 0.0
O97 O 0.64559 0.03 0.06747 0.0
O98 O 0.83504 0.84236 1.01341 0.0
H99 H 0.69556 0.91354 0.94284 0.0
H100 H 0.79274 0.94365 0.29121 0.0
H101 H 0.65172 0.89918 0.8329 0.0
Zn102 Zn 0.93787 0.33922 0.92529 0.0
C103 C 0.81032 0.3032 0.9518 0.0
N104 N 0.8039 0.34735 0.94038 0.0
C105 C 0.84547 0.36486 0.94463 0.0
N106 N 0.87636 0.33301 0.95678 0.0
N107 N 0.85459 0.29442 0.96387 0.0
C108 C 0.86211 0.15506 1.01076 0.0
O109 O 0.90597 0.15587 1.00048 0.0
O110 O 0.96107 0.40243 0.94247 0.0
Zn111 Zn 0.87651 0.25103 0.03339 0.0
N112 N 0.93976 0.33007 0.82332 0.0
C113 C 0.90541 0.30831 0.7146 0.0
C114 C 0.90329 0.3138 0.7881 0.0
C115 C 0.97885 0.33976 0.78827 0.0
N116 N 0.9444 0.31805 0.67955 0.0
C117 C 0.98164 0.33347 0.71414 0.0
O118 O 0.94496 0.23854 0.02512 0.0
C119 C 0.98115 0.25716 1.00198 0.0
O120 O 0.98012 0.29411 0.96783 0.0
H121 H 0.87266 0.30552 0.81663 0.0
H122 H 1.00766 0.35089 0.81873 0.0
C123 C 0.83432 0.26915 0.17514 0.0
C124 C 0.83235 0.29276 0.24038 0.0
C125 C 0.89614 0.33569 0.20402 0.0
C126 C 0.89809 0.31223 0.14022 0.0
N127 N 0.86758 0.27922 0.12685 0.0
N128 N 0.86366 0.32532 0.2525 0.0
H129 H 0.81036 0.24274 0.16352 0.0
C130 C 0.99062 0.41222 0.98885 0.0
O131 O 1.00616 0.38019 0.0303 0.0
O132 O 0.84191 0.19154 0.02596 0.0
H133 H 0.92384 0.3203 0.1012 0.0
H134 H 0.87648 0.29587 0.68569 0.0
H135 H 0.9204 0.36191 0.21508 0.0
Zn136 Zn 0.83896 0.57986 0.59639 0.0
C137 C 0.80544 0.70872 0.5848 0.0
N138 N 0.85048 0.71528 0.58459 0.0
C139 C 0.86774 0.67395 0.57807 0.0
N140 N 0.83482 0.64301 0.57308 0.0
N141 N 0.79588 0.6647 0.57359 0.0
C142 C 0.65741 0.66319 0.53768 0.0
O143 O 0.66183 0.62441 0.57042 0.0
O144 O 0.9 0.55132 0.57775 0.0
Zn145 Zn 0.75133 0.64446 0.50348 0.0
N146 N 0.82672 0.57416 0.69642 0.0
C147 C 0.78358 0.59191 0.79936 0.0
C148 C 0.79305 0.59812 0.72721 0.0
C149 C 0.84974 0.54264 0.73367 0.0
N150 N 0.80579 0.55951 0.83623 0.0
C151 C 0.83823 0.53406 0.80487 0.0
O152 O 0.734 0.57732 0.51082 0.0
C153 C 0.75334 0.54028 0.52627 0.0
O154 O 0.7927 0.53961 0.55284 0.0
H155 H 0.77355 0.62159 0.69595 0.0
H156 H 0.87475 0.52247 0.70669 0.0
C157 C 0.77241 0.68533 0.36289 0.0
C158 C 0.79596 0.68673 0.29719 0.0
C159 C 0.83484 0.62037 0.33032 0.0
C160 C 0.81184 0.61932 0.39515 0.0
N161 N 0.78077 0.6514 0.41021 0.0
N162 N 0.82622 0.65373 0.28283 0.0
H163 H 0.74731 0.71034 0.37572 0.0
C164 C 0.92987 0.56031 0.53112 0.0
O165 O 0.92381 0.59356 0.48603 0.0
O166 O 0.69205 0.68037 0.50722 0.0
H167 H 0.81864 0.59296 0.4334 0.0
H168 H 0.75744 0.61129 0.82505 0.0
H169 H 0.85937 0.59476 0.31777 0.0
Zn170 Zn 0.64516 0.27154 0.54073 0.0
C171 C 0.67437 0.15921 0.44239 0.0
N172 N 0.7144 0.17842 0.42828 0.0
C173 C 0.70816 0.22168 0.44573 0.0
N174 N 0.66551 0.22835 0.46991 0.0
N175 N 0.64439 0.18925 0.46633 0.0
C176 C 0.5652 0.08972 0.51284 0.0
O177 O 0.59818 0.0955 0.5584 0.0
O178 O 0.68038 0.33105 0.53492 0.0
Zn179 Zn 0.57993 0.18367 0.459 0.0
N180 N 0.65529 0.24083 0.63283 0.0
C181 C 0.63879 0.17447 0.70004 0.0
C182 C 0.63233 0.20144 0.64008 0.0
C183 C 0.6845 0.2545 0.68463 0.0
N184 N 0.66787 0.18788 0.75133 0.0
C185 C 0.69097 0.22718 0.74561 0.0
O186 O 0.54164 0.2212 0.52381 0.0
C187 C 0.54108 0.26297 0.53673 0.0
O188 O 0.57702 0.28678 0.5347 0.0
H189 H 0.60952 0.19062 0.59891 0.0
H190 H 0.70278 0.28579 0.67826 0.0
C191 C 0.53549 0.18016 0.32555 0.0
C192 C 0.52197 0.19666 0.25883 0.0
C193 C 0.57349 0.25742 0.27128 0.0
C194 C 0.58461 0.24232 0.33922 0.0
N195 N 0.56551 0.20394 0.36473 0.0
N196 N 0.54206 0.23471 0.23326 0.0
H197 H 0.52214 0.14913 0.34697 0.0
C198 C 0.66276 0.3653 0.50482 0.0
O199 O 0.62324 0.36076 0.47423 0.0
O200 O 0.55541 0.1206 0.46874 0.0
H201 H 0.60816 0.26101 0.3714 0.0
H202 H 0.62082 0.14298 0.70573 0.0
H203 H 0.58869 0.28764 0.24969 0.0
Zn204 Zn 0.18425 0.43506 0.59957 0.0
C205 C 0.22498 0.30748 0.59279 0.0
N206 N 0.18058 0.29819 0.59813 0.0
C207 C 0.16064 0.33833 0.59136 0.0
N208 N 0.19134 0.3713 0.58178 0.0
N209 N 0.23151 0.35188 0.57977 0.0
C210 C 0.35842 0.33265 0.5649 0.0
O211 O 0.34091 0.33994 0.62803 0.0
O212 O 0.12296 0.46163 0.57702 0.0
Zn213 Zn 0.27481 0.37463 0.50897 0.0
N214 N 0.19486 0.44352 0.69925 0.0
C215 C 0.23682 0.42841 0.80411 0.0
C216 C 0.22676 0.41898 0.73343 0.0
C217 C 0.17332 0.47779 0.73197 0.0
N218 N 0.21701 0.46417 0.83572 0.0
C219 C 0.18611 0.48999 0.80099 0.0
O220 O 0.29069 0.44129 0.518 0.0
C221 C 0.26998 0.47767 0.53185 0.0
O222 O 0.22993 0.47713 0.55619 0.0
H223 H 0.24509 0.39332 0.70541 0.0
H224 H 0.14796 0.49627 0.70291 0.0
C225 C 0.25477 0.33468 0.36898 0.0
C226 C 0.23096 0.33258 0.30383 0.0
C227 C 0.1899 0.39746 0.337 0.0
C228 C 0.21304 0.39905 0.40142 0.0
N229 N 0.2453 0.36804 0.41618 0.0
N230 N 0.19947 0.36454 0.28976 0.0
H231 H 0.28087 0.31062 0.38164 0.0
C232 C 0.09134 0.45041 0.53519 0.0
O233 O 0.09471 0.41372 0.49725 0.0
O234 O 0.33581 0.34236 0.50934 0.0
H235 H 0.20536 0.42493 0.43961 0.0
H236 H 0.26179 0.40891 0.83251 0.0
H237 H 0.1644 0.42221 0.32464 0.0
Zn238 Zn 0.37655 0.74782 0.53977 0.0
C239 C 0.34464 0.86338 0.45851 0.0
N240 N 0.30341 0.84541 0.45204 0.0
C241 C 0.31048 0.80092 0.45799 0.0
N242 N 0.35478 0.79236 0.47068 0.0
N243 N 0.37613 0.83148 0.46786 0.0
C244 C 0.45664 0.92737 0.51324 0.0
O245 O 0.42149 0.92121 0.55492 0.0
O246 O 0.34086 0.68826 0.53779 0.0
Zn247 Zn 0.43951 0.83744 0.44501 0.0
N248 N 0.37132 0.77678 0.63296 0.0
C249 C 0.40473 0.8306 0.71018 0.0
C250 C 0.40388 0.80797 0.64552 0.0
C251 C 0.33857 0.76811 0.68256 0.0
N252 N 0.37285 0.82133 0.76018 0.0
C253 C 0.33946 0.79089 0.74835 0.0
O254 O 0.48089 0.79054 0.48508 0.0
C255 C 0.48088 0.7514 0.51226 0.0
O256 O 0.44402 0.73199 0.53003 0.0
H257 H 0.42919 0.81513 0.60543 0.0
H258 H 0.31281 0.74327 0.67163 0.0
C259 C 0.48199 0.8492 0.31307 0.0
C260 C 0.4928 0.83916 0.24225 0.0
C261 C 0.42546 0.79589 0.2345 0.0
C262 C 0.41684 0.80337 0.3064 0.0
N263 N 0.44549 0.82972 0.3441 0.0
N264 N 0.46357 0.81317 0.20455 0.0
H265 H 0.50272 0.87125 0.34457 0.0
C266 C 0.35908 0.65367 0.51011 0.0
O267 O 0.39895 0.65812 0.48016 0.0
O268 O 0.46739 0.8978 0.46798 0.0
H269 H 0.38774 0.78842 0.33188 0.0
H270 H 0.43072 0.85524 0.7207 0.0
H271 H 0.4029 0.77528 0.20337 0.0
C272 C 0.36157 0.95487 0.32477 0.0
C273 C 0.33721 0.99043 0.35554 0.0
C274 C 0.369 0.91493 0.36232 0.0
C275 C 0.35303 0.90913 0.43205 0.0
H276 H 0.37088 0.95555 0.26906 0.0
H277 H 0.38256 0.88693 0.33343 0.0
S278 S 0.29508 0.99425 0.54164 0.0
N279 N 0.30323 0.01938 0.46402 0.0
N280 N 0.31679 0.94353 0.5337 0.0
C281 C 0.33252 0.9456 0.46575 0.0
C282 C 0.32493 0.98648 0.42779 0.0
C283 C 0.96076 0.65402 0.70841 0.0
C284 C 0.99733 0.67743 0.67676 0.0
C285 C 0.91992 0.64802 0.67226 0.0
C286 C 0.9138 0.66517 0.60336 0.0
H287 H 0.96156 0.64336 0.76341 0.0
H288 H 0.8917 0.63381 0.70124 0.0
S289 S 1.00009 0.7209 0.49066 0.0
N290 N 0.02607 0.71116 0.5668 0.0
N291 N 0.94831 0.70123 0.50105 0.0
C292 C 0.95069 0.68503 0.56871 0.0
C293 C 0.99265 0.69069 0.60478 0.0
C294 C 0.67474 0.07634 0.44537 0.0
C295 C 0.66268 0.11611 0.41022 0.0
C296 C 0.6793 0.03615 0.4078 0.0
C297 C 0.67291 0.03474 0.33358 0.0
H298 H 0.68421 0.07703 0.50101 0.0
H299 H 0.69166 1.00687 0.43604 0.0
S300 S 0.63847 0.13047 0.21829 0.0
N301 N 0.64182 0.15176 0.29894 0.0
N302 N 0.65071 0.07676 0.22751 0.0
C303 C 0.65735 0.07385 0.29895 0.0
C304 C 0.65243 0.11456 0.33754 0.0
C305 C 0.05738 0.37125 0.6975 0.0
C306 C 0.02492 0.33984 0.67452 0.0
C307 C 0.10064 0.37297 0.667 0.0
C308 C 0.11284 0.3441 0.61156 0.0
H309 H 0.05001 0.39383 0.74089 0.0
H310 H 0.12523 0.39524 0.68984 0.0
S311 S 0.03955 0.2594 0.52593 0.0
N312 N 1.00743 0.28158 0.58839 0.0
N313 N 0.08853 0.28572 0.53093 0.0
C314 C 0.08009 0.3146 0.58506 0.0
C315 C 0.0361 0.31252 0.61614 0.0
C316 C 0.84776 0.45185 0.80133 0.0
C317 C 0.85229 0.49197 0.83964 0.0
C318 C 0.84877 0.41046 0.8359 0.0
C319 C 0.85568 0.40754 0.90948 0.0
H320 H 0.83931 0.45232 0.74527 0.0
H321 H 0.84075 0.38081 0.80547 0.0
S322 S 0.87506 0.50186 0.03271 0.0
N323 N 0.86753 0.52615 0.95428 0.0
N324 N 0.87087 0.44724 1.01919 0.0
C325 C 0.8635 0.44688 0.94791 0.0
C326 C 0.86156 0.48944 0.91286 0.0
C327 C 0.48277 0.18215 0.14411 0.0
C328 C 0.48361 0.17709 0.21873 0.0
C329 C 0.44288 0.17566 0.10566 0.0
C330 C 0.40295 0.16257 0.14021 0.0
H331 H 0.51231 0.19433 0.11577 0.0
H332 H 0.44249 0.18397 0.04944 0.0
S333 S 0.38664 0.14211 0.33298 0.0
N334 N 0.44032 0.15626 0.32489 0.0
N335 N 0.36637 0.14263 0.25136 0.0
C336 C 0.40394 0.15389 0.21348 0.0
C337 C 0.44414 0.1613 0.25316 0.0
C338 C 0.16911 0.53609 0.90789 0.0
C339 C 0.17208 0.53303 0.8332 0.0
C340 C 0.1669 0.57782 0.94156 0.0
C341 C 0.16674 0.61758 0.90144 0.0
H342 H 0.17118 0.50614 0.94072 0.0
H343 H 0.16789 0.57909 0.99916 0.0
S344 S 0.17146 0.62915 0.70552 0.0
N345 N 0.17325 0.57457 0.72051 0.0
N346 N 0.16733 0.65238 0.7847 0.0
C347 C 0.16667 0.61525 0.82717 0.0
C348 C 0.16958 0.57303 0.79264 0.0
C349 C 0.5399 0.85752 0.13542 0.0
C350 C 0.53687 0.85187 0.20988 0.0
C351 C 0.58189 0.86029 0.10095 0.0
C352 C 0.62194 0.85812 0.14014 0.0
H353 H 0.50967 0.85739 0.10312 0.0
H354 H 0.58304 0.86127 0.04332 0.0
S355 S 0.63407 0.84673 0.33518 0.0
N356 N 0.57912 0.84578 0.32127 0.0
N357 N 0.6572 0.85368 0.25595 0.0
C358 C 0.61972 0.85591 0.21441 0.0
C359 C 0.57732 0.85214 0.24962 0.0
C360 C 0.48429 1.00958 0.08547 0.0
C361 C 0.47429 0.05066 0.05157 0.0
C362 C 0.52869 0.99319 0.0884 0.0
C363 C 0.56492 0.0178 0.05904 0.0
H364 H 0.45754 0.98972 0.10954 0.0
H365 H 0.53476 0.96152 0.11527 0.0
S366 S 0.55701 0.12763 0.96547 0.0
N367 N 0.50443 0.11542 0.98778 0.0
N368 N 0.58779 0.08541 0.99508 0.0
C369 C 0.55541 0.05903 0.02537 0.0
C370 C 0.51014 0.07523 1.02111 0.0
C371 C 0.99491 0.49168 0.94373 0.0
C372 C 1.00869 0.45887 0.99342 0.0
C373 C 1.01237 0.53551 0.94518 0.0
C374 C 0.04395 0.54864 0.99693 0.0
H375 H 0.9706 0.48348 0.90282 0.0
H376 H 1.00066 0.55941 0.90571 0.0
S377 S 0.09197 0.47576 0.13847 0.0
N378 N 0.05661 0.44279 0.09548 0.0
N379 N 0.08895 0.5251 0.0984 0.0
C380 C 0.05798 0.51634 0.04706 0.0
C381 C 0.0405 0.47155 0.04526 0.0
C382 C 0.96842 0.4859 0.52799 0.0
C383 C 0.97136 0.53305 0.52855 0.0
C384 C 1.00747 0.45921 0.52781 0.0
C385 C 0.05063 0.47886 0.53072 0.0
H386 H 0.9357 0.46956 0.5274 0.0
H387 H 1.00383 0.42302 0.52755 0.0
S388 S 0.07628 0.60077 0.53556 0.0
N389 N 0.02062 0.59815 0.53178 0.0
N390 N 0.09395 0.54825 0.53522 0.0
C391 C 0.0539 0.52596 0.53211 0.0
C392 C 0.01425 0.55303 0.52998 0.0
C393 C 0.55738 1.00619 0.51951 0.0
C394 C 0.53715 0.0487 0.51535 0.0
C395 C 0.53098 0.96694 0.5189 0.0
C396 C 0.48352 0.96906 0.51685 0.0
H397 H 0.59381 1.00325 0.52131 0.0
H398 H 0.54777 0.93469 0.52038 0.0
S399 S 0.41432 0.07224 0.50692 0.0
N400 N 0.46697 0.09066 0.50851 0.0
N401 N 0.4175 0.01695 0.51111 0.0
C402 C 0.46294 0.01135 0.51424 0.0
C403 C 0.48976 0.0512 0.51248 0.0
C404 C 0.2483 0.29128 0.71621 0.0
C405 C 0.25381 0.28235 0.6432 0.0
C406 C 0.26301 0.26118 0.76867 0.0
C407 C 0.28331 0.22019 0.75054 0.0
H408 H 0.2293 0.32025 0.73318 0.0
H409 H 0.2571 0.26973 0.82381 0.0
S410 S 0.30851 0.18224 0.56633 0.0
N411 N 0.28302 0.23102 0.55511 0.0
N412 N 0.31127 0.17394 0.65327 0.0
C413 C 0.2913 0.21191 0.67747 0.0
C414 C 0.27611 0.24287 0.62395 0.0
C415 C 0.20937 0.77098 0.34729 0.0
C416 C 0.22647 0.73881 0.30038 0.0
C417 C 0.23518 0.78637 0.40472 0.0
C418 C 0.27972 0.77121 0.41656 0.0
H419 H 0.1761 0.78499 0.33873 0.0
H420 H 0.22121 0.8129 0.43718 0.0
S421 S 0.33764 0.68262 0.31275 0.0
N422 N 0.28807 0.68809 0.27361 0.0
N423 N 0.33772 0.71862 0.37924 0.0
C424 C 0.29592 0.73666 0.37255 0.0
C425 C 0.26909 0.72028 0.31482 0.0
C426 C 0.75369 0.77112 0.62398 0.0
C427 C 0.78123 0.73434 0.64065 0.0
C428 C 0.7392 0.80088 0.67753 0.0
C429 C 0.75216 0.79528 0.74958 0.0
H430 H 0.74482 0.77795 0.5691 0.0
H431 H 0.71894 0.82944 0.6618 0.0
S432 S 0.82293 0.70252 0.82033 0.0
N433 N 0.82115 0.69407 0.73377 0.0
N434 N 0.79116 0.74694 0.83425 0.0
C435 C 0.77811 0.75727 0.76683 0.0
C436 C 0.79335 0.7277 0.71243 0.0
C437 C 0.75287 0.27408 0.27944 0.0
C438 C 0.79825 0.28243 0.29694 0.0
C439 C 0.72137 0.26092 0.33176 0.0
C440 C 0.73408 0.2549 0.40345 0.0
H441 H 0.74189 0.27631 0.22461 0.0
H442 H 0.68781 0.25131 0.31474 0.0
S443 S 0.84742 0.27623 0.47842 0.0
N444 N 0.85312 0.28783 0.39274 0.0
N445 N 0.79417 0.26109 0.48983 0.0
C446 C 0.77848 0.26572 0.42233 0.0
C447 C 0.81046 0.28 0.36943 0.0
C448 C 0.78017 0.70988 0.17093 0.0
C449 C 0.78759 0.72199 0.24237 0.0
C450 C 0.76648 0.74185 0.11991 0.0
C451 C 0.76131 0.7873 0.13784 0.0
H452 H 0.78185 0.67496 0.15549 0.0
H453 H 0.75644 0.73036 0.06769 0.0
S454 S 0.78346 0.83714 0.31487 0.0
N455 N 0.79387 0.7832 0.32625 0.0
N456 N 0.769 0.84306 0.23056 0.0
C457 C 0.77283 0.80022 0.20742 0.0
C458 C 0.78565 0.76765 0.25969 0.0
C459 C 0.73283 0.28562 0.91126 0.0
C460 C 0.77837 0.27213 0.91602 0.0
C461 C 0.70471 0.27052 0.8564 0.0
C462 C 0.72078 0.24076 0.80479 0.0
H463 H 0.71984 0.31101 0.94687 0.0
H464 H 0.67061 0.28339 0.85295 0.0
S465 S 0.83413 0.18869 0.79946 0.0
N466 N 0.83624 0.22279 0.86836 0.0
N467 N 0.78261 0.19331 0.76675 0.0
C468 C 0.76461 0.22355 0.81247 0.0
C469 C 0.79355 0.23929 0.86802 0.0
C470 C 0.24454 0.30959 0.17703 0.0
C471 C 0.24001 0.29752 0.24944 0.0
C472 C 0.25788 0.27802 0.1256 0.0
C473 C 0.26553 0.23292 0.14421 0.0
H474 H 0.24054 0.34428 0.16072 0.0
H475 H 0.2652 0.2896 0.07202 0.0
S476 S 0.25301 0.18315 0.32491 0.0
N477 N 0.24004 0.2365 0.33561 0.0
N478 N 0.26469 0.17752 0.23947 0.0
C479 C 0.25767 0.21995 0.21542 0.0
C480 C 0.24505 0.25211 0.26791 0.0
C481 C 0.22782 0.7715 0.84433 0.0
C482 C 0.24136 0.75462 0.91115 0.0
C483 C 0.2596 0.78417 0.79223 0.0
C484 C 0.30612 0.78147 0.8057 0.0
H485 H 0.1927 0.77076 0.82935 0.0
H486 H 0.24771 0.79459 0.74023 0.0
S487 S 0.35912 0.74505 0.97487 0.0
N488 N 0.30437 0.73921 0.98944 0.0
N489 N 0.36417 0.76531 0.89314 0.0
C490 C 0.32005 0.76855 0.87431 0.0
C491 C 0.28767 0.75466 0.92667 0.0
C492 C 0.25286 0.95342 0.0305 0.0
C493 C 0.23068 0.9938 1.01247 0.0
C494 C 0.23098 0.91164 0.02644 0.0
C495 C 0.18592 0.90805 1.00368 0.0
H496 H 0.28736 0.95393 0.04944 0.0
H497 H 0.24961 0.8819 0.04183 0.0
S498 S 0.11268 1.00306 0.94775 0.0
N499 N 0.16102 0.02705 0.96909 0.0
N500 N 0.12003 0.94876 0.96107 0.0
C501 C 0.16352 0.94798 0.98392 0.0
C502 C 0.18578 0.99066 0.98844 0.0
C503 C 0.99573 0.82887 0.0546 0.0
C504 C 0.99752 0.78375 0.03294 0.0
C505 C 0.95444 0.8518 0.05987 0.0
C506 C 0.91312 0.83072 0.04345 0.0
H507 H 0.02654 0.84719 0.06556 0.0
H508 H 0.95518 0.8868 0.07503 0.0
S509 S 0.89827 0.71152 0.99201 0.0
N510 N 0.95335 0.71775 1.00076 0.0
N511 N 0.8763 0.76097 1.01018 0.0
C512 C 0.91416 0.78514 0.02453 0.0
C513 C 0.95613 0.76168 1.01945 0.0
C514 C 0.83905 0.0292 1.01252 0.0
C515 C 0.79176 0.02623 1.00647 0.0
C516 C 0.86132 0.07088 1.01263 0.0
C517 C 0.83736 0.11154 1.00707 0.0
H518 H 0.8591 0.99915 1.01941 0.0
H519 H 0.89765 0.07113 1.019 0.0
S520 S 0.71379 0.12267 0.98077 0.0
N521 N 0.72217 0.06806 0.98771 0.0
N522 N 0.76404 0.14609 0.98914 0.0
C523 C 0.7903 0.10917 0.9982 0.0
C524 C 0.76757 0.06668 0.99753 0.0
C525 C 0.02821 0.19221 0.0455 0.0
C526 C 0.02585 0.23493 1.01324 0.0
C527 C 0.06962 0.16994 0.05418 0.0
C528 C 0.11066 0.1893 0.03101 0.0
H529 H 0.99776 0.1754 0.06358 0.0
H530 H 0.06922 0.1369 0.07851 0.0
S531 S 0.12392 0.30155 0.94622 0.0
N532 N 0.06912 0.29646 0.96014 0.0
N533 N 0.14643 0.25462 0.97655 0.0
C534 C 0.10902 0.23235 0.99988 0.0
C535 C 0.06686 0.2551 0.991 0.0
C536 C 0.73046 0.41395 0.52918 0.0
C537 C 0.68534 0.41022 0.50687 0.0
C538 C 0.75202 0.45587 0.53385 0.0
C539 C 0.72952 0.49628 0.51677 0.0
H540 H 0.74941 0.38421 0.54349 0.0
H541 H 0.78672 0.45641 0.55185 0.0
S542 S 0.61073 0.50531 0.4557 0.0
N543 N 0.61868 0.45094 0.46719 0.0
N544 N 0.65914 0.52944 0.47625 0.0
C545 C 0.68444 0.49305 0.49373 0.0
C546 C 0.66244 0.45022 0.48872 0.0
C547 C 0.41904 0.27757 0.59595 0.0
C548 C 0.40546 0.31628 0.55878 0.0
C549 C 0.46339 0.26122 0.58997 0.0
C550 C 0.49626 0.28394 0.54882 0.0
H551 H 0.39488 0.25912 0.62833 0.0
H552 H 0.47198 0.23034 0.61744 0.0
S553 S 0.47818 0.38833 0.44435 0.0
N554 N 0.42841 0.37755 0.48072 0.0
N555 N 0.51213 0.3479 0.4718 0.0
C556 C 0.48338 0.32354 0.51333 0.0
C557 C 0.43789 0.33941 0.51768 0.0
C558 C 0.27114 0.5619 0.54433 0.0
C559 C 0.29314 0.52214 0.52297 0.0
C560 C 0.29238 0.60408 0.53947 0.0
C561 C 0.33661 0.60866 0.5128 0.0
H562 H 0.2372 0.56058 0.56591 0.0
H563 H 0.27393 0.63331 0.55721 0.0
S564 S 0.4093 0.51547 0.44867 0.0
N565 N 0.36189 0.49056 0.47326 0.0
N566 N 0.40168 0.56939 0.46398 0.0
C567 C 0.35891 0.56929 0.49044 0.0
C568 C 0.33729 0.52628 0.49558 0.0
C569 C 0.60807 0.72931 0.50727 0.0
C570 C 0.61214 0.68521 0.5336 0.0
C571 C 0.56576 0.75027 0.50136 0.0
C572 C 0.52533 0.72812 0.52126 0.0
H573 H 0.63784 0.74795 0.49088 0.0
H574 H 0.56493 0.78422 0.48046 0.0
S575 S 0.51703 0.61168 0.59202 0.0
N576 N 0.5716 0.61971 0.57904 0.0
N577 N 0.49251 0.65903 0.56797 0.0
C578 C 0.52891 0.68396 0.54779 0.0
C579 C 0.57207 0.6626 0.55395 0.0
loop_
_geom_bond_atom_site_label_1
_geom_bond_atom_site_label_2
_geom_bond_distance
_geom_bond_site_symmetry_2
_ccdc_geom_bond_type
Zn0 N4 2.020 . S
Zn0 O8 2.019 . S
Zn0 N10 2.119 . S
Zn0 O18 1.975 . S
C1 N2 1.334 . S
C1 N5 1.336 . S
N2 C1 1.334 . S
N2 C3 1.334 . S
C3 N2 1.334 . S
C3 N4 1.336 . S
N4 Zn0 2.020 . S
N4 C3 1.336 . S
N4 N5 1.354 . S
N5 C1 1.336 . S
N5 N4 1.354 . S
N5 Zn9 2.020 . S
C6 O7 1.244 . S
C6 O30 1.257 . S
O7 C6 1.244 . S
O8 Zn0 2.019 . S
O8 C28 1.257 . S
Zn9 N5 2.020 . S
Zn9 O16 1.975 . S
Zn9 N25 2.119 1_554 S
Zn9 O30 2.019 . S
N10 Zn0 2.119 . S
N10 C12 1.334 . S
N10 C13 1.328 1_545 S
C11 C12 1.391 1_565 S
C11 N14 1.329 . S
C11 H32 0.930 . S
C12 N10 1.334 . S
C12 C11 1.391 1_545 S
C12 H19 0.930 . S
C13 N10 1.328 1_565 S
C13 C15 1.392 . S
C13 H20 0.930 . S
N14 C11 1.329 . S
N14 C15 1.331 . S
C15 C13 1.392 . S
C15 N14 1.331 . S
O16 Zn9 1.975 . S
O16 C17 1.252 1_554 S
C17 O16 1.252 1_556 S
C17 O18 1.252 1_556 S
O18 Zn0 1.975 . S
O18 C17 1.252 1_554 S
H19 C12 0.930 . S
H20 C13 0.930 . S
C21 C22 1.392 . S
C21 N25 1.328 . S
C21 H27 0.930 . S
C22 C21 1.392 . S
C22 N26 1.331 . S
C23 C24 1.391 . S
C23 N26 1.329 . S
C23 H33 0.930 . S
C24 C23 1.391 . S
C24 N25 1.334 . S
C24 H31 0.930 . S
N25 Zn9 2.119 1_556 S
N25 C21 1.328 . S
N25 C24 1.334 . S
N26 C22 1.331 . S
N26 C23 1.329 . S
H27 C21 0.930 . S
C28 O8 1.257 . S
C28 O29 1.244 . S
O29 C28 1.244 . S
O30 C6 1.257 . S
O30 Zn9 2.019 . S
H31 C24 0.930 . S
H32 C11 0.930 . S
H33 C23 0.930 . S
Zn34 N38 2.020 . S
Zn34 O42 2.019 . S
Zn34 N44 2.119 1_556 S
Zn34 O52 1.975 . S
C35 N36 1.334 . S
C35 N39 1.336 . S
N36 C35 1.334 . S
N36 C37 1.334 . S
C37 N36 1.334 . S
C37 N38 1.336 . S
N38 Zn34 2.020 . S
N38 C37 1.336 . S
N38 N39 1.354 . S
N39 C35 1.336 . S
N39 N38 1.354 . S
N39 Zn43 2.020 . S
C40 O41 1.244 . S
C40 O64 1.257 . S
O41 C40 1.244 . S
O42 Zn34 2.019 . S
O42 C62 1.257 . S
Zn43 N39 2.020 . S
Zn43 O50 1.975 . S
Zn43 N59 2.119 . S
Zn43 O64 2.019 . S
N44 Zn34 2.119 1_554 S
N44 C46 1.334 . S
N44 C47 1.328 . S
C45 C46 1.391 . S
C45 N48 1.329 . S
C45 H66 0.930 . S
C46 N44 1.334 . S
C46 C45 1.391 . S
C46 H53 0.930 . S
C47 N44 1.328 . S
C47 C49 1.392 . S
C47 H54 0.930 . S
N48 C45 1.329 . S
N48 C49 1.331 . S
C49 C47 1.392 . S
C49 N48 1.331 . S
O50 Zn43 1.975 . S
O50 C51 1.252 1_556 S
C51 O50 1.252 1_554 S
C51 O52 1.252 1_554 S
O52 Zn34 1.975 . S
O52 C51 1.252 1_556 S
H53 C46 0.930 . S
H54 C47 0.930 . S
C55 C56 1.392 . S
C55 N59 1.328 1_655 S
C55 H61 0.930 . S
C56 C55 1.392 . S
C56 N60 1.331 . S
C57 C58 1.391 1_655 S
C57 N60 1.329 . S
C57 H67 0.930 . S
C58 C57 1.391 1_455 S
C58 N59 1.334 . S
C58 H65 0.930 . S
N59 Zn43 2.119 . S
N59 C55 1.328 1_455 S
N59 C58 1.334 . S
N60 C56 1.331 . S
N60 C57 1.329 . S
H61 C55 0.930 . S
C62 O42 1.257 . S
C62 O63 1.244 . S
O63 C62 1.244 . S
O64 C40 1.257 . S
O64 Zn43 2.019 . S
H65 C58 0.930 . S
H66 C45 0.930 . S
H67 C57 0.930 . S
Zn68 N72 2.020 . S
Zn68 O76 2.019 . S
Zn68 N78 2.119 . S
Zn68 O86 1.975 . S
C69 N70 1.334 . S
C69 N73 1.336 . S
N70 C69 1.334 . S
N70 C71 1.334 . S
C71 N70 1.334 . S
C71 N72 1.336 . S
N72 Zn68 2.020 . S
N72 C71 1.336 . S
N72 N73 1.354 . S
N73 C69 1.336 . S
N73 N72 1.354 . S
N73 Zn77 2.020 . S
C74 O75 1.244 . S
C74 O98 1.257 . S
O75 C74 1.244 . S
O76 Zn68 2.019 . S
O76 C96 1.257 . S
Zn77 N73 2.020 . S
Zn77 O84 1.975 . S
Zn77 N93 2.119 1_554 S
Zn77 O98 2.019 . S
N78 Zn68 2.119 . S
N78 C80 1.334 . S
N78 C81 1.328 1_565 S
C79 C80 1.391 1_545 S
C79 N82 1.329 . S
C79 H100 0.930 . S
C80 N78 1.334 . S
C80 C79 1.391 1_565 S
C80 H87 0.930 . S
C81 N78 1.328 1_545 S
C81 C83 1.392 . S
C81 H88 0.930 . S
N82 C79 1.329 . S
N82 C83 1.331 . S
C83 C81 1.392 . S
C83 N82 1.331 . S
O84 Zn77 1.975 . S
O84 C85 1.252 1_554 S
C85 O84 1.252 1_556 S
C85 O86 1.252 1_556 S
O86 Zn68 1.975 . S
O86 C85 1.252 1_554 S
H87 C80 0.930 . S
H88 C81 0.930 . S
C89 C90 1.392 . S
C89 N93 1.328 . S
C89 H95 0.930 . S
C90 C89 1.392 . S
C90 N94 1.331 . S
C91 C92 1.391 . S
C91 N94 1.329 . S
C91 H101 0.930 . S
C92 C91 1.391 . S
C92 N93 1.334 . S
C92 H99 0.930 . S
N93 Zn77 2.119 1_556 S
N93 C89 1.328 . S
N93 C92 1.334 . S
N94 C90 1.331 . S
N94 C91 1.329 . S
H95 C89 0.930 . S
C96 O76 1.257 . S
C96 O97 1.244 . S
O97 C96 1.244 . S
O98 C74 1.257 . S
O98 Zn77 2.019 . S
H99 C92 0.930 . S
H100 C79 0.930 . S
H101 C91 0.930 . S
Zn102 N106 2.020 . S
Zn102 O110 2.019 . S
Zn102 N112 2.119 . S
Zn102 O120 1.975 . S
C103 N104 1.334 . S
C103 N107 1.336 . S
N104 C103 1.334 . S
N104 C105 1.334 . S
C105 N104 1.334 . S
C105 N106 1.336 . S
N106 Zn102 2.020 . S
N106 C105 1.336 . S
N106 N107 1.354 . S
N107 C103 1.336 . S
N107 N106 1.354 . S
N107 Zn111 2.020 . S
C108 O109 1.244 . S
C108 O132 1.257 . S
O109 C108 1.244 . S
O110 Zn102 2.019 . S
O110 C130 1.257 . S
Zn111 N107 2.020 . S
Zn111 O118 1.975 . S
Zn111 N127 2.119 1_556 S
Zn111 O132 2.019 . S
N112 Zn102 2.119 . S
N112 C114 1.334 . S
N112 C115 1.328 1_655 S
C113 C114 1.391 1_455 S
C113 N116 1.329 . S
C113 H134 0.930 . S
C114 N112 1.334 . S
C114 C113 1.391 1_655 S
C114 H121 0.930 . S
C115 N112 1.328 1_455 S
C115 C117 1.392 . S
C115 H122 0.930 . S
N116 C113 1.329 . S
N116 C117 1.331 . S
C117 C115 1.392 . S
C117 N116 1.331 . S
O118 Zn111 1.975 . S
O118 C119 1.252 1_556 S
C119 O118 1.252 1_554 S
C119 O120 1.252 1_554 S
O120 Zn102 1.975 . S
O120 C119 1.252 1_556 S
H121 C114 0.930 . S
H122 C115 0.930 . S
C123 C124 1.392 . S
C123 N127 1.328 . S
C123 H129 0.930 . S
C124 C123 1.392 . S
C124 N128 1.331 . S
C125 C126 1.391 . S
C125 N128 1.329 . S
C125 H135 0.930 . S
C126 C125 1.391 . S
C126 N127 1.334 . S
C126 H133 0.930 . S
N127 Zn111 2.119 1_554 S
N127 C123 1.328 . S
N127 C126 1.334 . S
N128 C124 1.331 . S
N128 C125 1.329 . S
H129 C123 0.930 . S
C130 O110 1.257 . S
C130 O131 1.244 . S
O131 C130 1.244 . S
O132 C108 1.257 . S
O132 Zn111 2.019 . S
H133 C126 0.930 . S
H134 C113 0.930 . S
H135 C125 0.930 . S
Zn136 N140 2.020 . S
Zn136 O144 2.019 . S
Zn136 N146 2.119 . S
Zn136 O154 1.975 . S
C137 N138 1.334 . S
C137 N141 1.336 . S
N138 C137 1.334 . S
N138 C139 1.334 . S
C139 N138 1.334 . S
C139 N140 1.336 . S
N140 Zn136 2.020 . S
N140 C139 1.336 . S
N140 N141 1.354 . S
N141 C137 1.336 . S
N141 N140 1.354 . S
N141 Zn145 2.020 . S
C142 O143 1.244 . S
C142 O166 1.257 . S
O143 C142 1.244 . S
O144 Zn136 2.019 . S
O144 C164 1.257 . S
Zn145 N141 2.020 . S
Zn145 O152 1.975 . S
Zn145 N161 2.119 . S
Zn145 O166 2.019 . S
N146 Zn136 2.119 . S
N146 C148 1.334 . S
N146 C149 1.328 . S
C147 C148 1.391 . S
C147 N150 1.329 . S
C147 H168 0.930 . S
C148 N146 1.334 . S
C148 C147 1.391 . S
C148 H155 0.930 . S
C149 N146 1.328 . S
C149 C151 1.392 . S
C149 H156 0.930 . S
N150 C147 1.329 . S
N150 C151 1.331 . S
C151 C149 1.392 . S
C151 N150 1.331 . S
O152 Zn145 1.975 . S
O152 C153 1.252 . S
C153 O152 1.252 . S
C153 O154 1.252 . S
O154 Zn136 1.975 . S
O154 C153 1.252 . S
H155 C148 0.930 . S
H156 C149 0.930 . S
C157 C158 1.392 . S
C157 N161 1.328 . S
C157 H163 0.930 . S
C158 C157 1.392 . S
C158 N162 1.331 . S
C159 C160 1.391 . S
C159 N162 1.329 . S
C159 H169 0.930 . S
C160 C159 1.391 . S
C160 N161 1.334 . S
C160 H167 0.930 . S
N161 Zn145 2.119 . S
N161 C157 1.328 . S
N161 C160 1.334 . S
N162 C158 1.331 . S
N162 C159 1.329 . S
H163 C157 0.930 . S
C164 O144 1.257 . S
C164 O165 1.244 . S
O165 C164 1.244 . S
O166 C142 1.257 . S
O166 Zn145 2.019 . S
H167 C160 0.930 . S
H168 C147 0.930 . S
H169 C159 0.930 . S
Zn170 N174 2.020 . S
Zn170 O178 2.019 . S
Zn170 N180 2.119 . S
Zn170 O188 1.975 . S
C171 N172 1.334 . S
C171 N175 1.336 . S
N172 C171 1.334 . S
N172 C173 1.334 . S
C173 N172 1.334 . S
C173 N174 1.336 . S
N174 Zn170 2.020 . S
N174 C173 1.336 . S
N174 N175 1.354 . S
N175 C171 1.336 . S
N175 N174 1.354 . S
N175 Zn179 2.020 . S
C176 O177 1.244 . S
C176 O200 1.257 . S
O177 C176 1.244 . S
O178 Zn170 2.019 . S
O178 C198 1.257 . S
Zn179 N175 2.020 . S
Zn179 O186 1.975 . S
Zn179 N195 2.119 . S
Zn179 O200 2.019 . S
N180 Zn170 2.119 . S
N180 C182 1.334 . S
N180 C183 1.328 . S
C181 C182 1.391 . S
C181 N184 1.329 . S
C181 H202 0.930 . S
C182 N180 1.334 . S
C182 C181 1.391 . S
C182 H189 0.930 . S
C183 N180 1.328 . S
C183 C185 1.392 . S
C183 H190 0.930 . S
N184 C181 1.329 . S
N184 C185 1.331 . S
C185 C183 1.392 . S
C185 N184 1.331 . S
O186 Zn179 1.975 . S
O186 C187 1.252 . S
C187 O186 1.252 . S
C187 O188 1.252 . S
O188 Zn170 1.975 . S
O188 C187 1.252 . S
H189 C182 0.930 . S
H190 C183 0.930 . S
C191 C192 1.392 . S
C191 N195 1.328 . S
C191 H197 0.930 . S
C192 C191 1.392 . S
C192 N196 1.331 . S
C193 C194 1.391 . S
C193 N196 1.329 . S
C193 H203 0.930 . S
C194 C193 1.391 . S
C194 N195 1.334 . S
C194 H201 0.930 . S
N195 Zn179 2.119 . S
N195 C191 1.328 . S
N195 C194 1.334 . S
N196 C192 1.331 . S
N196 C193 1.329 . S
H197 C191 0.930 . S
C198 O178 1.257 . S
C198 O199 1.244 . S
O199 C198 1.244 . S
O200 C176 1.257 . S
O200 Zn179 2.019 . S
H201 C194 0.930 . S
H202 C181 0.930 . S
H203 C193 0.930 . S
Zn204 N208 2.020 . S
Zn204 O212 2.019 . S
Zn204 N214 2.119 . S
Zn204 O222 1.975 . S
C205 N206 1.334 . S
C205 N209 1.336 . S
N206 C205 1.334 . S
N206 C207 1.334 . S
C207 N206 1.334 . S
C207 N208 1.336 . S
N208 Zn204 2.020 . S
N208 C207 1.336 . S
N208 N209 1.354 . S
N209 C205 1.336 . S
N209 N208 1.354 . S
N209 Zn213 2.020 . S
C210 O211 1.244 . S
C210 O234 1.257 . S
O211 C210 1.244 . S
O212 Zn204 2.019 . S
O212 C232 1.257 . S
Zn213 N209 2.020 . S
Zn213 O220 1.975 . S
Zn213 N229 2.119 . S
Zn213 O234 2.019 . S
N214 Zn204 2.119 . S
N214 C216 1.334 . S
N214 C217 1.328 . S
C215 C216 1.391 . S
C215 N218 1.329 . S
C215 H236 0.930 . S
C216 N214 1.334 . S
C216 C215 1.391 . S
C216 H223 0.930 . S
C217 N214 1.328 . S
C217 C219 1.392 . S
C217 H224 0.930 . S
N218 C215 1.329 . S
N218 C219 1.331 . S
C219 C217 1.392 . S
C219 N218 1.331 . S
O220 Zn213 1.975 . S
O220 C221 1.252 . S
C221 O220 1.252 . S
C221 O222 1.252 . S
O222 Zn204 1.975 . S
O222 C221 1.252 . S
H223 C216 0.930 . S
H224 C217 0.930 . S
C225 C226 1.392 . S
C225 N229 1.328 . S
C225 H231 0.930 . S
C226 C225 1.392 . S
C226 N230 1.331 . S
C227 C228 1.391 . S
C227 N230 1.329 . S
C227 H237 0.930 . S
C228 C227 1.391 . S
C228 N229 1.334 . S
C228 H235 0.930 . S
N229 Zn213 2.119 . S
N229 C225 1.328 . S
N229 C228 1.334 . S
N230 C226 1.331 . S
N230 C227 1.329 . S
H231 C225 0.930 . S
C232 O212 1.257 . S
C232 O233 1.244 . S
O233 C232 1.244 . S
O234 C210 1.257 . S
O234 Zn213 2.019 . S
H235 C228 0.930 . S
H236 C215 0.930 . S
H237 C227 0.930 . S
Zn238 N242 2.020 . S
Zn238 O246 2.019 . S
Zn238 N248 2.119 . S
Zn238 O256 1.975 . S
C239 N240 1.334 . S
C239 N243 1.336 . S
N240 C239 1.334 . S
N240 C241 1.334 . S
C241 N240 1.334 . S
C241 N242 1.336 . S
N242 Zn238 2.020 . S
N242 C241 1.336 . S
N242 N243 1.354 . S
N243 C239 1.336 . S
N243 N242 1.354 . S
N243 Zn247 2.020 . S
C244 O245 1.244 . S
C244 O268 1.257 . S
O245 C244 1.244 . S
O246 Zn238 2.019 . S
O246 C266 1.257 . S
Zn247 N243 2.020 . S
Zn247 O254 1.975 . S
Zn247 N263 2.119 . S
Zn247 O268 2.019 . S
N248 Zn238 2.119 . S
N248 C250 1.334 . S
N248 C251 1.328 . S
C249 C250 1.391 . S
C249 N252 1.329 . S
C249 H270 0.930 . S
C250 N248 1.334 . S
C250 C249 1.391 . S
C250 H257 0.930 . S
C251 N248 1.328 . S
C251 C253 1.392 . S
C251 H258 0.930 . S
N252 C249 1.329 . S
N252 C253 1.331 . S
C253 C251 1.392 . S
C253 N252 1.331 . S
O254 Zn247 1.975 . S
O254 C255 1.252 . S
C255 O254 1.252 . S
C255 O256 1.252 . S
O256 Zn238 1.975 . S
O256 C255 1.252 . S
H257 C250 0.930 . S
H258 C251 0.930 . S
C259 C260 1.392 . S
C259 N263 1.328 . S
C259 H265 0.930 . S
C260 C259 1.392 . S
C260 N264 1.331 . S
C261 C262 1.391 . S
C261 N264 1.329 . S
C261 H271 0.930 . S
C262 C261 1.391 . S
C262 N263 1.334 . S
C262 H269 0.930 . S
N263 Zn247 2.119 . S
N263 C259 1.328 . S
N263 C262 1.334 . S
N264 C260 1.331 . S
N264 C261 1.329 . S
H265 C259 0.930 . S
C266 O246 1.257 . S
C266 O267 1.244 . S
O267 C266 1.244 . S
O268 C244 1.257 . S
O268 Zn247 2.019 . S
H269 C262 0.930 . S
H270 C249 0.930 . S
H271 C261 0.930 . S
C272 C273 1.369 . S
C272 C274 1.419 . S
C272 H276 0.930 . S
C273 C272 1.369 . S
C273 C282 1.429 . S
C274 C272 1.419 . S
C274 C275 1.363 . S
C274 H277 0.929 . S
C275 C274 1.363 . S
C275 C281 1.428 . S
H276 C272 0.930 . S
H277 C274 0.929 . S
S278 N279 1.613 . S
S278 N280 1.610 . S
N279 S278 1.613 . S
N279 C282 1.350 . S
N280 S278 1.610 . S
N280 C281 1.351 . S
C281 C275 1.428 . S
C281 N280 1.351 . S
C281 C282 1.434 . S
C282 C273 1.429 . S
C282 N279 1.350 . S
C282 C281 1.434 . S
C283 C284 1.369 . S
C283 C285 1.419 . S
C283 H287 0.930 . S
C284 C283 1.369 . S
C284 C293 1.429 . S
C285 C283 1.419 . S
C285 C286 1.363 . S
C285 H288 0.929 . S
C286 C285 1.363 . S
C286 C292 1.428 . S
H287 C283 0.930 . S
H288 C285 0.929 . S
S289 N290 1.613 . S
S289 N291 1.610 . S
N290 S289 1.613 . S
N290 C293 1.350 . S
N291 S289 1.610 . S
N291 C292 1.351 . S
C292 C286 1.428 . S
C292 N291 1.351 . S
C292 C293 1.434 . S
C293 C284 1.429 . S
C293 N290 1.350 . S
C293 C292 1.434 . S
C294 C295 1.369 . S
C294 C296 1.419 . S
C294 H298 0.930 . S
C295 C294 1.369 . S
C295 C304 1.429 . S
C296 C294 1.419 . S
C296 C297 1.363 . S
C296 H299 0.929 . S
C297 C296 1.363 . S
C297 C303 1.428 . S
H298 C294 0.930 . S
H299 C296 0.929 . S
S300 N301 1.613 . S
S300 N302 1.610 . S
N301 S300 1.613 . S
N301 C304 1.350 . S
N302 S300 1.610 . S
N302 C303 1.351 . S
C303 C297 1.428 . S
C303 N302 1.351 . S
C303 C304 1.434 . S
C304 C295 1.429 . S
C304 N301 1.350 . S
C304 C303 1.434 . S
C305 C306 1.369 . S
C305 C307 1.419 . S
C305 H309 0.930 . S
C306 C305 1.369 . S
C306 C315 1.429 . S
C307 C305 1.419 . S
C307 C308 1.363 . S
C307 H310 0.929 . S
C308 C307 1.363 . S
C308 C314 1.428 . S
H309 C305 0.930 . S
H310 C307 0.929 . S
S311 N312 1.613 . S
S311 N313 1.610 . S
N312 S311 1.613 . S
N312 C315 1.350 . S
N313 S311 1.610 . S
N313 C314 1.351 . S
C314 C308 1.428 . S
C314 N313 1.351 . S
C314 C315 1.434 . S
C315 C306 1.429 . S
C315 N312 1.350 . S
C315 C314 1.434 . S
C316 C317 1.369 . S
C316 C318 1.419 . S
C316 H320 0.930 . S
C317 C316 1.369 . S
C317 C326 1.429 . S
C318 C316 1.419 . S
C318 C319 1.363 . S
C318 H321 0.929 . S
C319 C318 1.363 . S
C319 C325 1.428 . S
H320 C316 0.930 . S
H321 C318 0.929 . S
S322 N323 1.613 . S
S322 N324 1.610 . S
N323 S322 1.613 . S
N323 C326 1.350 . S
N324 S322 1.610 . S
N324 C325 1.351 . S
C325 C319 1.428 . S
C325 N324 1.351 . S
C325 C326 1.434 . S
C326 C317 1.429 . S
C326 N323 1.350 . S
C326 C325 1.434 . S
C327 C328 1.369 . S
C327 C329 1.419 . S
C327 H331 0.930 . S
C328 C327 1.369 . S
C328 C337 1.429 . S
C329 C327 1.419 . S
C329 C330 1.363 . S
C329 H332 0.929 . S
C330 C329 1.363 . S
C330 C336 1.428 . S
H331 C327 0.930 . S
H332 C329 0.929 . S
S333 N334 1.613 . S
S333 N335 1.610 . S
N334 S333 1.613 . S
N334 C337 1.350 . S
N335 S333 1.610 . S
N335 C336 1.351 . S
C336 C330 1.428 . S
C336 N335 1.351 . S
C336 C337 1.434 . S
C337 C328 1.429 . S
C337 N334 1.350 . S
C337 C336 1.434 . S
C338 C339 1.369 . S
C338 C340 1.419 . S
C338 H342 0.930 . S
C339 C338 1.369 . S
C339 C348 1.429 . S
C340 C338 1.419 . S
C340 C341 1.363 . S
C340 H343 0.929 . S
C341 C340 1.363 . S
C341 C347 1.428 . S
H342 C338 0.930 . S
H343 C340 0.929 . S
S344 N345 1.613 . S
S344 N346 1.610 . S
N345 S344 1.613 . S
N345 C348 1.350 . S
N346 S344 1.610 . S
N346 C347 1.351 . S
C347 C341 1.428 . S
C347 N346 1.351 . S
C347 C348 1.434 . S
C348 C339 1.429 . S
C348 N345 1.350 . S
C348 C347 1.434 . S
C349 C350 1.369 . S
C349 C351 1.419 . S
C349 H353 0.930 . S
C350 C349 1.369 . S
C350 C359 1.429 . S
C351 C349 1.419 . S
C351 C352 1.363 . S
C351 H354 0.929 . S
C352 C351 1.363 . S
C352 C358 1.428 . S
H353 C349 0.930 . S
H354 C351 0.929 . S
S355 N356 1.613 . S
S355 N357 1.610 . S
N356 S355 1.613 . S
N356 C359 1.350 . S
N357 S355 1.610 . S
N357 C358 1.351 . S
C358 C352 1.428 . S
C358 N357 1.351 . S
C358 C359 1.434 . S
C359 C350 1.429 . S
C359 N356 1.350 . S
C359 C358 1.434 . S
C360 C361 1.369 1_565 S
C360 C362 1.419 . S
C360 H364 0.930 . S
C361 C360 1.369 1_545 S
C361 C370 1.429 1_554 S
C362 C360 1.419 . S
C362 C363 1.363 . S
C362 H365 0.929 . S
C363 C362 1.363 . S
C363 C369 1.428 1_564 S
H364 C360 0.930 . S
H365 C362 0.929 . S
S366 N367 1.613 . S
S366 N368 1.610 . S
N367 S366 1.613 . S
N367 C370 1.350 . S
N368 S366 1.610 . S
N368 C369 1.351 . S
C369 C363 1.428 1_546 S
C369 N368 1.351 . S
C369 C370 1.434 . S
C370 C361 1.429 1_556 S
C370 N367 1.350 . S
C370 C369 1.434 . S
C371 C372 1.369 . S
C371 C373 1.419 . S
C371 H375 0.930 . S
C372 C371 1.369 . S
C372 C381 1.429 1_656 S
C373 C371 1.419 . S
C373 C374 1.363 1_655 S
C373 H376 0.929 . S
C374 C373 1.363 1_455 S
C374 C380 1.428 1_556 S
H375 C371 0.930 . S
H376 C373 0.929 . S
S377 N378 1.613 . S
S377 N379 1.610 . S
N378 S377 1.613 . S
N378 C381 1.350 . S
N379 S377 1.610 . S
N379 C380 1.351 . S
C380 C374 1.428 1_554 S
C380 N379 1.351 . S
C380 C381 1.434 . S
C381 C372 1.429 1_454 S
C381 N378 1.350 . S
C381 C380 1.434 . S
C382 C383 1.369 . S
C382 C384 1.419 1_655 S
C382 H386 0.930 . S
C383 C382 1.369 . S
C383 C392 1.429 . S
C384 C382 1.419 1_455 S
C384 C385 1.363 . S
C384 H387 0.929 . S
C385 C384 1.363 . S
C385 C391 1.428 . S
H386 C382 0.930 . S
H387 C384 0.929 . S
S388 N389 1.613 1_455 S
S388 N390 1.610 . S
N389 S388 1.613 1_655 S
N389 C392 1.350 . S
N390 S388 1.610 . S
N390 C391 1.351 . S
C391 C385 1.428 . S
C391 N390 1.351 . S
C391 C392 1.434 1_455 S
C392 C383 1.429 . S
C392 N389 1.350 . S
C392 C391 1.434 1_655 S
C393 C394 1.369 . S
C393 C395 1.419 1_545 S
C393 H397 0.930 . S
C394 C393 1.369 . S
C394 C403 1.429 . S
C395 C393 1.419 1_565 S
C395 C396 1.363 . S
C395 H398 0.929 . S
C396 C395 1.363 . S
C396 C402 1.428 . S
H397 C393 0.930 . S
H398 C395 0.929 . S
S399 N400 1.613 . S
S399 N401 1.610 1_545 S
N400 S399 1.613 . S
N400 C403 1.350 . S
N401 S399 1.610 1_565 S
N401 C402 1.351 . S
C402 C396 1.428 . S
C402 N401 1.351 . S
C402 C403 1.434 1_565 S
C403 C394 1.429 . S
C403 N400 1.350 . S
C403 C402 1.434 1_545 S
C404 C405 1.369 . S
C404 C406 1.419 . S
C404 H408 0.930 . S
C405 C404 1.369 . S
C405 C414 1.429 . S
C406 C404 1.419 . S
C406 C407 1.363 . S
C406 H409 0.929 . S
C407 C406 1.363 . S
C407 C413 1.428 . S
H408 C404 0.930 . S
H409 C406 0.929 . S
S410 N411 1.613 . S
S410 N412 1.610 . S
N411 S410 1.613 . S
N411 C414 1.350 . S
N412 S410 1.610 . S
N412 C413 1.351 . S
C413 C407 1.428 . S
C413 N412 1.351 . S
C413 C414 1.434 . S
C414 C405 1.429 . S
C414 N411 1.350 . S
C414 C413 1.434 . S
C415 C416 1.369 . S
C415 C417 1.419 . S
C415 H419 0.930 . S
C416 C415 1.369 . S
C416 C425 1.429 . S
C417 C415 1.419 . S
C417 C418 1.363 . S
C417 H420 0.929 . S
C418 C417 1.363 . S
C418 C424 1.428 . S
H419 C415 0.930 . S
H420 C417 0.929 . S
S421 N422 1.613 . S
S421 N423 1.610 . S
N422 S421 1.613 . S
N422 C425 1.350 . S
N423 S421 1.610 . S
N423 C424 1.351 . S
C424 C418 1.428 . S
C424 N423 1.351 . S
C424 C425 1.434 . S
C425 C416 1.429 . S
C425 N422 1.350 . S
C425 C424 1.434 . S
C426 C427 1.369 . S
C426 C428 1.419 . S
C426 H430 0.930 . S
C427 C426 1.369 . S
C427 C436 1.429 . S
C428 C426 1.419 . S
C428 C429 1.363 . S
C428 H431 0.929 . S
C429 C428 1.363 . S
C429 C435 1.428 . S
H430 C426 0.930 . S
H431 C428 0.929 . S
S432 N433 1.613 . S
S432 N434 1.610 . S
N433 S432 1.613 . S
N433 C436 1.350 . S
N434 S432 1.610 . S
N434 C435 1.351 . S
C435 C429 1.428 . S
C435 N434 1.351 . S
C435 C436 1.434 . S
C436 C427 1.429 . S
C436 N433 1.350 . S
C436 C435 1.434 . S
C437 C438 1.369 . S
C437 C439 1.419 . S
C437 H441 0.930 . S
C438 C437 1.369 . S
C438 C447 1.429 . S
C439 C437 1.419 . S
C439 C440 1.363 . S
C439 H442 0.929 . S
C440 C439 1.363 . S
C440 C446 1.428 . S
H441 C437 0.930 . S
H442 C439 0.929 . S
S443 N444 1.613 . S
S443 N445 1.610 . S
N444 S443 1.613 . S
N444 C447 1.350 . S
N445 S443 1.610 . S
N445 C446 1.351 . S
C446 C440 1.428 . S
C446 N445 1.351 . S
C446 C447 1.434 . S
C447 C438 1.429 . S
C447 N444 1.350 . S
C447 C446 1.434 . S
C448 C449 1.369 . S
C448 C450 1.419 . S
C448 H452 0.930 . S
C449 C448 1.369 . S
C449 C458 1.429 . S
C450 C448 1.419 . S
C450 C451 1.363 . S
C450 H453 0.929 . S
C451 C450 1.363 . S
C451 C457 1.428 . S
H452 C448 0.930 . S
H453 C450 0.929 . S
S454 N455 1.613 . S
S454 N456 1.610 . S
N455 S454 1.613 . S
N455 C458 1.350 . S
N456 S454 1.610 . S
N456 C457 1.351 . S
C457 C451 1.428 . S
C457 N456 1.351 . S
C457 C458 1.434 . S
C458 C449 1.429 . S
C458 N455 1.350 . S
C458 C457 1.434 . S
C459 C460 1.369 . S
C459 C461 1.419 . S
C459 H463 0.930 . S
C460 C459 1.369 . S
C460 C469 1.429 . S
C461 C459 1.419 . S
C461 C462 1.363 . S
C461 H464 0.929 . S
C462 C461 1.363 . S
C462 C468 1.428 . S
H463 C459 0.930 . S
H464 C461 0.929 . S
S465 N466 1.613 . S
S465 N467 1.610 . S
N466 S465 1.613 . S
N466 C469 1.350 . S
N467 S465 1.610 . S
N467 C468 1.351 . S
C468 C462 1.428 . S
C468 N467 1.351 . S
C468 C469 1.434 . S
C469 C460 1.429 . S
C469 N466 1.350 . S
C469 C468 1.434 . S
C470 C471 1.369 . S
C470 C472 1.419 . S
C470 H474 0.930 . S
C471 C470 1.369 . S
C471 C480 1.429 . S
C472 C470 1.419 . S
C472 C473 1.363 . S
C472 H475 0.929 . S
C473 C472 1.363 . S
C473 C479 1.428 . S
H474 C470 0.930 . S
H475 C472 0.929 . S
S476 N477 1.613 . S
S476 N478 1.610 . S
N477 S476 1.613 . S
N477 C480 1.350 . S
N478 S476 1.610 . S
N478 C479 1.351 . S
C479 C473 1.428 . S
C479 N478 1.351 . S
C479 C480 1.434 . S
C480 C471 1.429 . S
C480 N477 1.350 . S
C480 C479 1.434 . S
C481 C482 1.369 . S
C481 C483 1.419 . S
C481 H485 0.930 . S
C482 C481 1.369 . S
C482 C491 1.429 . S
C483 C481 1.419 . S
C483 C484 1.363 . S
C483 H486 0.929 . S
C484 C483 1.363 . S
C484 C490 1.428 . S
H485 C481 0.930 . S
H486 C483 0.929 . S
S487 N488 1.613 . S
S487 N489 1.610 . S
N488 S487 1.613 . S
N488 C491 1.350 . S
N489 S487 1.610 . S
N489 C490 1.351 . S
C490 C484 1.428 . S
C490 N489 1.351 . S
C490 C491 1.434 . S
C491 C482 1.429 . S
C491 N488 1.350 . S
C491 C490 1.434 . S
C492 C493 1.369 . S
C492 C494 1.419 . S
C492 H496 0.930 . S
C493 C492 1.369 . S
C493 C502 1.429 . S
C494 C492 1.419 . S
C494 C495 1.363 . S
C494 H497 0.929 . S
C495 C494 1.363 . S
C495 C501 1.428 . S
H496 C492 0.930 . S
H497 C494 0.929 . S
S498 N499 1.613 . S
S498 N500 1.610 1_545 S
N499 S498 1.613 . S
N499 C502 1.350 1_545 S
N500 S498 1.610 1_565 S
N500 C501 1.351 . S
C501 C495 1.428 . S
C501 N500 1.351 . S
C501 C502 1.434 . S
C502 C493 1.429 . S
C502 N499 1.350 1_565 S
C502 C501 1.434 . S
C503 C504 1.369 . S
C503 C505 1.419 . S
C503 H507 0.930 1_655 S
C504 C503 1.369 . S
C504 C513 1.429 . S
C505 C503 1.419 . S
C505 C506 1.363 . S
C505 H508 0.929 . S
C506 C505 1.363 . S
C506 C512 1.428 . S
H507 C503 0.930 1_455 S
H508 C505 0.929 . S
S509 N510 1.613 . S
S509 N511 1.610 . S
N510 S509 1.613 . S
N510 C513 1.350 1_556 S
N511 S509 1.610 . S
N511 C512 1.351 1_556 S
C512 C506 1.428 . S
C512 N511 1.351 1_554 S
C512 C513 1.434 . S
C513 C504 1.429 . S
C513 N510 1.350 1_554 S
C513 C512 1.434 . S
C514 C515 1.369 . S
C514 C516 1.419 . S
C514 H518 0.930 1_545 S
C515 C514 1.369 . S
C515 C524 1.429 . S
C516 C514 1.419 . S
C516 C517 1.363 . S
C516 H519 0.929 . S
C517 C516 1.363 . S
C517 C523 1.428 . S
H518 C514 0.930 1_565 S
H519 C516 0.929 . S
S520 N521 1.613 . S
S520 N522 1.610 . S
N521 S520 1.613 . S
N521 C524 1.350 . S
N522 S520 1.610 . S
N522 C523 1.351 . S
C523 C517 1.428 . S
C523 N522 1.351 . S
C523 C524 1.434 . S
C524 C515 1.429 . S
C524 N521 1.350 . S
C524 C523 1.434 . S
C525 C526 1.369 . S
C525 C527 1.419 . S
C525 H529 0.930 . S
C526 C525 1.369 . S
C526 C535 1.429 1_554 S
C527 C525 1.419 . S
C527 C528 1.363 . S
C527 H530 0.929 . S
C528 C527 1.363 . S
C528 C534 1.428 1_554 S
H529 C525 0.930 . S
H530 C527 0.929 . S
S531 N532 1.613 . S
S531 N533 1.610 . S
N532 S531 1.613 . S
N532 C535 1.350 . S
N533 S531 1.610 . S
N533 C534 1.351 . S
C534 C528 1.428 1_556 S
C534 N533 1.351 . S
C534 C535 1.434 . S
C535 C526 1.429 1_556 S
C535 N532 1.350 . S
C535 C534 1.434 . S
C536 C537 1.369 . S
C536 C538 1.419 . S
C536 H540 0.930 . S
C537 C536 1.369 . S
C537 C546 1.429 . S
C538 C536 1.419 . S
C538 C539 1.363 . S
C538 H541 0.929 . S
C539 C538 1.363 . S
C539 C545 1.428 . S
H540 C536 0.930 . S
H541 C538 0.929 . S
S542 N543 1.613 . S
S542 N544 1.610 . S
N543 S542 1.613 . S
N543 C546 1.350 . S
N544 S542 1.610 . S
N544 C545 1.351 . S
C545 C539 1.428 . S
C545 N544 1.351 . S
C545 C546 1.434 . S
C546 C537 1.429 . S
C546 N543 1.350 . S
C546 C545 1.434 . S
C547 C548 1.369 . S
C547 C549 1.419 . S
C547 H551 0.930 . S
C548 C547 1.369 . S
C548 C557 1.429 . S
C549 C547 1.419 . S
C549 C550 1.363 . S
C549 H552 0.929 . S
C550 C549 1.363 . S
C550 C556 1.428 . S
H551 C547 0.930 . S
H552 C549 0.929 . S
S553 N554 1.613 . S
S553 N555 1.610 . S
N554 S553 1.613 . S
N554 C557 1.350 . S
N555 S553 1.610 . S
N555 C556 1.351 . S
C556 C550 1.428 . S
C556 N555 1.351 . S
C556 C557 1.434 . S
C557 C548 1.429 . S
C557 N554 1.350 . S
C557 C556 1.434 . S
C558 C559 1.369 . S
C558 C560 1.419 . S
C558 H562 0.930 . S
C559 C558 1.369 . S
C559 C568 1.429 . S
C560 C558 1.419 . S
C560 C561 1.363 . S
C560 H563 0.929 . S
C561 C560 1.363 . S
C561 C567 1.428 . S
H562 C558 0.930 . S
H563 C560 0.929 . S
S564 N565 1.613 . S
S564 N566 1.610 . S
N565 S564 1.613 . S
N565 C568 1.350 . S
N566 S564 1.610 . S
N566 C567 1.351 . S
C567 C561 1.428 . S
C567 N566 1.351 . S
C567 C568 1.434 . S
C568 C559 1.429 . S
C568 N565 1.350 . S
C568 C567 1.434 . S
C569 C570 1.369 . S
C569 C571 1.419 . S
C569 H573 0.930 . S
C570 C569 1.369 . S
C570 C579 1.429 . S
C571 C569 1.419 . S
C571 C572 1.363 . S
C571 H574 0.929 . S
C572 C571 1.363 . S
C572 C578 1.428 . S
H573 C569 0.930 . S
H574 C571 0.929 . S
S575 N576 1.613 . S
S575 N577 1.610 . S
N576 S575 1.613 . S
N576 C579 1.350 . S
N577 S575 1.610 . S
N577 C578 1.351 . S
C578 C572 1.428 . S
C578 N577 1.351 . S
C578 C579 1.434 . S
C579 C570 1.429 . S
C579 N576 1.350 . S
C579 C578 1.434 . S
C273 C15 0.905 . S
C275 C239 0.843 . S
C284 C56 0.906 . S
C286 C139 0.839 . S
C295 C171 0.838 . S
C297 C83 0.906 . S
C306 C117 0.905 . S
C308 C207 0.847 . S
C317 C151 0.905 . S
C319 C105 0.857 . S
C328 C192 0.906 . S
C330 C3 0.850 . S
C339 C219 0.906 . S
C341 C35 0.851 . S
C350 C260 0.905 . S
C352 C71 0.856 . S
C361 C28 1.537 . S
C363 C96 1.537 . S
C372 C130 1.538 . S
C374 C40 1.537 . S
C383 C164 1.534 . S
C385 C232 1.537 . S
C394 C176 1.538 . S
C396 C244 1.535 . S
C405 C205 1.479 . S
C407 C22 1.638 . S
C416 C49 1.636 . S
C418 C241 1.476 . S
C427 C137 1.471 . S
C429 C90 1.640 . S
C438 C124 1.645 . S
C440 C173 1.468 . S
C449 C158 1.645 . S
C451 C69 1.466 . S
C460 C103 1.469 . S
C462 C185 1.640 . S
C471 C226 1.640 . S
C473 C1 1.471 . S
C482 C37 1.474 . S
C484 C253 1.641 . S
C493 C17 1.936 1_565 S
C495 C62 1.975 . S
C504 C51 1.935 1_655 S
C506 C74 1.971 . S
C515 C85 1.941 1_545 S
C517 C108 1.972 . S
C526 C119 1.934 1_455 S
C528 C6 1.973 . S
C537 C198 1.975 . S
C539 C153 1.936 . S
C548 C210 1.971 . S
C550 C187 1.935 . S
C559 C221 1.939 . S
C561 C266 1.975 . S
C570 C142 1.975 . S
C572 C255 1.940 . S
