# Generated by pormake.
# Topology dmp, (4)-cn, num edge types: 1
# Building blocks:
#     Node 0, Type 0, BuildingBlock: ICAMEG_clean_sbu_1, # of connection points: 4
#     Node 1, Type 0, BuildingBlock: ICAMEG_clean_sbu_1, # of connection points: 4
#     Node 2, Type 0, BuildingBlock: ICAMEG_clean_sbu_1, # of connection points: 4
#     Node 3, Type 0, BuildingBlock: ICAMEG_clean_sbu_1, # of connection points: 4
#     Edge 4, Type (0, 0), BuildingBlock: MIFKUJ_clean_linker_0, # of connection points: 2
#     Edge 5, Type (0, 0), BuildingBlock: MIFKUJ_clean_linker_0, # of connection points: 2
#     Edge 6, Type (0, 0), BuildingBlock: MIFKUJ_clean_linker_0, # of connection points: 2
#     Edge 7, Type (0, 0), BuildingBlock: MIFKUJ_clean_linker_0, # of connection points: 2
#     Edge 8, Type (0, 0), BuildingBlock: MIFKUJ_clean_linker_0, # of connection points: 2
#     Edge 9, Type (0, 0), BuildingBlock: MIFKUJ_clean_linker_0, # of connection points: 2
#     Edge 10, Type (0, 0), BuildingBlock: MIFKUJ_clean_linker_0, # of connection points: 2
#     Edge 11, Type (0, 0), BuildingBlock: MIFKUJ_clean_linker_0, # of connection points: 2
# Relax obj value: 0.010
# Max RMSD: 0.076
# Mean RMSD: 0.076
data_MOF--net-dmp--node1-ICAMEG_clean_sbu_1--edge1-MIFKUJ_clean_linker_0
_symmetry_space_group_name_H-M    P1
_symmetry_Int_Tables_number       1
_symmetry_cell_setting            triclinic
loop_
_symmetry_equiv_pos_as_xyz
'x, y, z'
_cell_length_a     55.873426
_cell_length_b     24.598436
_cell_length_c     22.564877
_cell_angle_alpha  89.982466
_cell_angle_beta   90.195159
_cell_angle_gamma 89.997585
loop_
_atom_site_label
_atom_site_type_symbol
_atom_site_fract_x
_atom_site_fract_y
_atom_site_fract_z
_atom_type_partial_charge
Co0 Co 0.11651 0.25931 0.17724 0.0
Co1 Co 0.11684 0.24332 0.32943 0.0
O2 O 0.10054 0.25022 0.25325 0.0
C3 C 0.08749 0.1602 0.16154 0.0
O4 O 0.09663 0.14317 0.21189 0.0
C5 C 0.08521 0.33818 0.34363 0.0
O6 O 0.09335 0.35491 0.29227 0.0
O7 O 0.1381 0.30625 0.3119 0.0
O8 O 0.13972 0.31193 0.21251 0.0
H9 H 0.18806 0.23374 0.46562 0.0
H10 H 0.06389 0.27329 0.18509 0.0
O11 O 0.09357 0.20631 0.14065 0.0
H12 H 0.09477 0.44937 0.11409 0.0
H13 H 0.11855 0.27986 0.95537 0.0
H14 H 0.16702 0.26686 0.13789 0.0
H15 H 0.12227 0.37285 0.13312 0.0
H16 H 0.09911 0.26956 0.05275 0.0
O17 O 0.09279 0.29372 0.36582 0.0
H18 H 0.16752 0.24168 0.36908 0.0
H19 H 0.09991 0.23138 0.45384 0.0
H20 H 0.18718 0.27754 0.04151 0.0
H21 H 0.03573 0.34858 0.16614 0.0
H22 H 0.16289 0.28412 0.94937 0.0
H23 H 0.05115 0.43746 0.1306 0.0
O24 O 0.13924 0.19897 0.19488 0.0
H25 H 0.03833 0.1442 0.33969 0.0
H26 H 0.12536 0.13077 0.37384 0.0
H27 H 0.09974 0.05099 0.39273 0.0
H28 H 0.05589 0.05744 0.37566 0.0
H29 H 0.06463 0.22287 0.321 0.0
H30 H 0.11972 0.22379 0.55138 0.0
H31 H 0.16411 0.22474 0.55765 0.0
O32 O 0.14116 0.19351 0.2943 0.0
C33 C 0.14634 0.32682 0.26421 0.0
C34 C 0.16871 0.23311 0.46345 0.0
C35 C 0.13035 0.2276 0.51159 0.0
N36 N 0.13256 0.23659 0.40582 0.0
C37 C 0.15698 0.23742 0.4089 0.0
C38 C 0.11924 0.23203 0.45626 0.0
C39 C 0.15526 0.22811 0.51507 0.0
C40 C 0.07071 0.31167 0.16903 0.0
N41 N 0.09468 0.31859 0.15994 0.0
C42 C 0.05469 0.35422 0.15863 0.0
C43 C 0.06336 0.40411 0.13877 0.0
C44 C 0.08783 0.41083 0.12954 0.0
C45 C 0.10333 0.36739 0.1405 0.0
C46 C 0.12932 0.27714 0.99521 0.0
C47 C 0.15632 0.27003 0.09802 0.0
C48 C 0.11842 0.2712 0.05044 0.0
N49 N 0.13192 0.26803 0.10096 0.0
C50 C 0.16784 0.27592 0.04357 0.0
C51 C 0.1542 0.27954 0.99188 0.0
C52 C 0.14802 0.17938 0.24264 0.0
C53 C 0.0574 0.14094 0.34748 0.0
C54 C 0.10629 0.13388 0.36628 0.0
C55 C 0.09188 0.0886 0.37713 0.0
C56 C 0.06727 0.09225 0.36758 0.0
N57 N 0.09647 0.18151 0.34666 0.0
C58 C 0.07236 0.18542 0.33721 0.0
Co59 Co 0.38279 0.75819 0.32797 0.0
Co60 Co 0.38246 0.74505 0.17566 0.0
O61 O 0.39889 0.75065 0.25184 0.0
C62 C 0.41311 0.66105 0.34324 0.0
O63 O 0.40417 0.64362 0.29283 0.0
C64 C 0.41485 0.83856 0.16119 0.0
O65 O 0.40682 0.85579 0.21246 0.0
O66 O 0.36206 0.80915 0.19384 0.0
O67 O 0.35883 0.80947 0.29311 0.0
H68 H 0.31102 0.74164 0.03982 0.0
H69 H 0.43519 0.77606 0.32069 0.0
O70 O 0.40645 0.70665 0.36429 0.0
H71 H 0.4017 0.94949 0.39208 0.0
H72 H 0.38041 0.77742 0.54994 0.0
H73 H 0.3322 0.76136 0.36731 0.0
H74 H 0.37533 0.87107 0.37248 0.0
H75 H 0.40001 0.76921 0.45253 0.0
O76 O 0.40703 0.79418 0.13936 0.0
H77 H 0.33176 0.74773 0.13626 0.0
H78 H 0.39909 0.73218 0.05112 0.0
H79 H 0.31187 0.76991 0.46372 0.0
H80 H 0.46224 0.85329 0.3403 0.0
H81 H 0.33603 0.77802 0.55591 0.0
H82 H 0.4455 0.94084 0.37604 0.0
O83 O 0.36099 0.69634 0.3098 0.0
H84 H 0.45972 0.64115 0.1638 0.0
H85 H 0.37248 0.63324 0.13092 0.0
H86 H 0.39707 0.55197 0.11141 0.0
H87 H 0.44103 0.55564 0.12781 0.0
H88 H 0.43442 0.72136 0.18321 0.0
H89 H 0.37909 0.72635 0.95367 0.0
H90 H 0.33474 0.73087 0.94764 0.0
O91 O 0.35754 0.69644 0.21049 0.0
C92 C 0.35299 0.82708 0.24183 0.0
C93 C 0.33035 0.73942 0.04188 0.0
C94 C 0.36856 0.73091 0.99353 0.0
N95 N 0.36659 0.7398 0.09933 0.0
C96 C 0.34219 0.74268 0.09638 0.0
C97 C 0.37979 0.73433 0.0488 0.0
C98 C 0.34367 0.73344 0.99018 0.0
C99 C 0.42781 0.81384 0.33687 0.0
N100 N 0.40374 0.81896 0.34572 0.0
C101 C 0.4432 0.85751 0.34763 0.0
C102 C 0.43379 0.90664 0.36759 0.0
C103 C 0.40921 0.91153 0.37657 0.0
C104 C 0.39437 0.86702 0.36528 0.0
C105 C 0.36969 0.77403 0.51008 0.0
C106 C 0.34283 0.76521 0.4072 0.0
C107 C 0.38069 0.76927 0.45482 0.0
N108 N 0.36725 0.76526 0.40428 0.0
C109 C 0.33122 0.76989 0.46168 0.0
C110 C 0.34479 0.77438 0.51339 0.0
C111 C 0.35145 0.67947 0.26174 0.0
C112 C 0.4406 0.63911 0.15629 0.0
C113 C 0.3916 0.63514 0.13823 0.0
C114 C 0.40543 0.58902 0.127 0.0
C115 C 0.4301 0.59111 0.13619 0.0
N116 N 0.40204 0.68208 0.15788 0.0
C117 C 0.4262 0.68446 0.16696 0.0
Co118 Co 0.88419 0.74227 0.82625 0.0
Co119 Co 0.88362 0.75962 0.67407 0.0
O120 O 0.90001 0.74929 0.74969 0.0
C121 C 0.91563 0.83766 0.84067 0.0
O122 O 0.90697 0.85509 0.78996 0.0
C123 C 0.91184 0.65924 0.6587 0.0
O124 O 0.90369 0.64386 0.71054 0.0
O125 O 0.85997 0.70127 0.69236 0.0
O126 O 0.85968 0.69229 0.79161 0.0
H127 H 0.81222 0.78571 0.54104 0.0
H128 H 0.93635 0.72205 0.81634 0.0
O129 O 0.90847 0.79261 0.86217 0.0
H130 H 0.90199 0.55019 0.88972 0.0
H131 H 0.88265 0.72245 0.04823 0.0
H132 H 0.83377 0.74035 0.86688 0.0
H133 H 0.87616 0.62982 0.87148 0.0
H134 H 0.90188 0.73037 0.95034 0.0
O135 O 0.90534 0.70463 0.63667 0.0
H136 H 0.83297 0.77282 0.63665 0.0
H137 H 0.90007 0.76765 0.54886 0.0
H138 H 0.8138 0.7321 0.96379 0.0
H139 H 0.96287 0.64359 0.83445 0.0
H140 H 0.8383 0.72308 0.05535 0.0
H141 H 0.94569 0.55681 0.87119 0.0
O142 O 0.8628 0.80536 0.80931 0.0
H143 H 0.96575 0.84197 0.66146 0.0
H144 H 0.87952 0.87325 0.62903 0.0
H145 H 0.90816 0.94727 0.60908 0.0
H146 H 0.95162 0.93183 0.62528 0.0
H147 H 0.93647 0.76921 0.68126 0.0
H148 H 0.87999 0.77992 0.45223 0.0
H149 H 0.83575 0.78929 0.44798 0.0
O150 O 0.86179 0.81431 0.71012 0.0
C151 C 0.85189 0.68024 0.74002 0.0
C152 C 0.83149 0.78181 0.54236 0.0
C153 C 0.86954 0.77848 0.4925 0.0
N154 N 0.86772 0.7698 0.59835 0.0
C155 C 0.84336 0.77465 0.59637 0.0
C156 C 0.8808 0.77138 0.54731 0.0
C157 C 0.84471 0.78376 0.49014 0.0
C158 C 0.92877 0.68459 0.83287 0.0
N159 N 0.90474 0.68055 0.84301 0.0
C160 C 0.94387 0.64023 0.84281 0.0
C161 C 0.93421 0.59153 0.86335 0.0
C162 C 0.90969 0.58778 0.87371 0.0
C163 C 0.89514 0.63295 0.86316 0.0
C164 C 0.87179 0.72626 0.00865 0.0
C165 C 0.84455 0.73609 0.90649 0.0
C166 C 0.88257 0.73088 0.95313 0.0
N167 N 0.86895 0.73542 0.90295 0.0
C168 C 0.83314 0.7316 0.96125 0.0
C169 C 0.8469 0.7266 0.01261 0.0
C170 C 0.85522 0.82821 0.76204 0.0
C171 C 0.94686 0.84915 0.65409 0.0
C172 C 0.89839 0.86626 0.63628 0.0
C173 C 0.91453 0.90829 0.6248 0.0
C174 C 0.93892 0.89958 0.63386 0.0
N175 N 0.90632 0.81689 0.65605 0.0
C176 C 0.93021 0.80804 0.66499 0.0
Co177 Co 0.61798 0.24206 0.66916 0.0
Co178 Co 0.61936 0.24946 0.8217 0.0
O179 O 0.6023 0.2475 0.74611 0.0
C180 C 0.58764 0.33977 0.65781 0.0
O181 O 0.5969 0.35622 0.70827 0.0
C182 C 0.58574 0.15799 0.83468 0.0
O183 O 0.59325 0.1414 0.78266 0.0
O184 O 0.63846 0.18441 0.80011 0.0
O185 O 0.64217 0.18962 0.70118 0.0
H186 H 0.6919 0.24122 0.95355 0.0
H187 H 0.56563 0.22406 0.67763 0.0
O188 O 0.59414 0.29459 0.63544 0.0
H189 H 0.59856 0.05299 0.59838 0.0
H190 H 0.61919 0.22945 0.44653 0.0
H191 H 0.66834 0.24052 0.62806 0.0
H192 H 0.62512 0.13058 0.62023 0.0
H193 H 0.6001 0.23456 0.54482 0.0
O194 O 0.59428 0.20129 0.8574 0.0
H195 H 0.67025 0.24064 0.85816 0.0
H196 H 0.60403 0.25995 0.94763 0.0
H197 H 0.68817 0.23506 0.53075 0.0
H198 H 0.5384 0.14765 0.65588 0.0
H199 H 0.66353 0.22946 0.4391 0.0
H200 H 0.55486 0.06128 0.61617 0.0
O201 O 0.63984 0.30335 0.68892 0.0
H202 H 0.54389 0.35894 0.84141 0.0
H203 H 0.63142 0.35882 0.87043 0.0
H204 H 0.60825 0.44119 0.8946 0.0
H205 H 0.56415 0.44155 0.88015 0.0
H206 H 0.56779 0.27758 0.81741 0.0
H207 H 0.62497 0.2604 0.04412 0.0
H208 H 0.66923 0.25116 0.04743 0.0
O209 O 0.64482 0.29723 0.78761 0.0
C210 C 0.64761 0.16886 0.7513 0.0
C211 C 0.67263 0.24551 0.95268 0.0
C212 C 0.63505 0.2562 0.0035 0.0
N213 N 0.63593 0.25086 0.89732 0.0
C214 C 0.66027 0.2454 0.89879 0.0
C215 C 0.62329 0.25587 0.94878 0.0
C216 C 0.65989 0.25103 0.00534 0.0
C217 C 0.57289 0.18681 0.65976 0.0
N218 N 0.59691 0.18189 0.64993 0.0
C219 C 0.5574 0.14359 0.64779 0.0
C220 C 0.56665 0.09512 0.62559 0.0
C221 C 0.59117 0.09043 0.61564 0.0
C222 C 0.60613 0.13446 0.62822 0.0
C223 C 0.63011 0.23174 0.48615 0.0
C224 C 0.65751 0.23773 0.5884 0.0
C225 C 0.61941 0.23473 0.5419 0.0
N226 N 0.6331 0.23733 0.59212 0.0
C227 C 0.66883 0.23481 0.53342 0.0
C228 C 0.655 0.23173 0.48201 0.0
C229 C 0.65026 0.31697 0.73708 0.0
C230 C 0.56309 0.35922 0.84808 0.0
C231 C 0.61224 0.3587 0.86395 0.0
C232 C 0.59921 0.40542 0.87781 0.0
C233 C 0.57447 0.40559 0.86973 0.0
N234 N 0.60094 0.31336 0.84284 0.0
C235 C 0.57669 0.3132 0.83481 0.0
H236 H 0.33393 0.87433 0.14194 0.0
H237 H 0.30028 0.93776 0.13626 0.0
H238 H 0.29415 0.93487 0.32675 0.0
H239 H 0.32794 0.87276 0.33311 0.0
H240 H 0.25478 0.92424 0.16858 0.0
H241 H 0.27419 0.05421 0.37821 0.0
H242 H 0.30902 0.08845 0.43437 0.0
H243 H 0.35217 0.08065 0.27751 0.0
H244 H 0.31754 0.04714 0.22022 0.0
H245 H 0.17089 0.12639 0.33322 0.0
H246 H 0.20603 0.06803 0.32704 0.0
H247 H 0.2066 0.08645 0.13695 0.0
H248 H 0.17119 0.14457 0.14243 0.0
H249 H 0.25004 0.09361 0.28725 0.0
H250 H 0.23033 0.9695 0.0761 0.0
H251 H 0.19568 0.93498 0.01938 0.0
H252 H 0.15356 0.9316 0.17814 0.0
H253 H 0.18803 0.96535 0.23591 0.0
C254 C 0.32564 0.88774 0.18272 0.0
C255 C 0.33376 0.8685 0.23802 0.0
C256 C 0.30632 0.92379 0.17932 0.0
C257 C 0.29483 0.94146 0.23107 0.0
C258 C 0.303 0.92262 0.28626 0.0
C259 C 0.32233 0.88686 0.28976 0.0
C260 C 0.27374 0.97806 0.22767 0.0
C261 C 0.2539 0.9618 0.19367 0.0
C262 C 0.27244 0.02657 0.26122 0.0
C263 C 0.29329 0.04771 0.29505 0.0
C264 C 0.29108 0.06008 0.35562 0.0
C265 C 0.31079 0.07931 0.38767 0.0
C266 C 0.33281 0.08657 0.35956 0.0
C267 C 0.33513 0.07483 0.29928 0.0
C268 C 0.31547 0.05565 0.26701 0.0
C269 C 0.17827 0.11769 0.28992 0.0
C270 C 0.16813 0.14025 0.23828 0.0
C271 C 0.19846 0.08447 0.28656 0.0
C272 C 0.20892 0.07281 0.23159 0.0
C273 C 0.19866 0.09443 0.17981 0.0
C274 C 0.17841 0.1277 0.18307 0.0
C275 C 0.23096 0.0393 0.22901 0.0
C276 C 0.251 0.05626 0.2618 0.0
C277 C 0.23246 0.99159 0.19421 0.0
C278 C 0.21169 0.97057 0.16014 0.0
C279 C 0.21369 0.96122 0.09891 0.0
C280 C 0.19408 0.9418 0.06658 0.0
C281 C 0.17241 0.9313 0.0951 0.0
C282 C 0.17032 0.93997 0.15606 0.0
C283 C 0.18988 0.95932 0.1886 0.0
H284 H 0.15725 0.91632 0.06999 0.0
H285 H 0.34805 0.10139 0.38447 0.0
H286 H 0.17157 0.35752 0.36326 0.0
H287 H 0.20651 0.41707 0.36778 0.0
H288 H 0.20025 0.44788 0.18014 0.0
H289 H 0.16569 0.38764 0.17484 0.0
H290 H 0.24496 0.4222 0.2088 0.0
H291 H 0.18488 0.54406 0.28566 0.0
H292 H 0.15257 0.57136 0.35364 0.0
H293 H 0.20035 0.55513 0.50204 0.0
H294 H 0.23288 0.52701 0.43499 0.0
H295 H 0.32292 0.64322 0.17137 0.0
H296 H 0.2885 0.5831 0.1777 0.0
H297 H 0.30001 0.56513 0.36584 0.0
H298 H 0.33423 0.62701 0.36036 0.0
H299 H 0.25393 0.58042 0.34331 0.0
H300 H 0.31451 0.46271 0.26691 0.0
H301 H 0.34698 0.43497 0.19963 0.0
H302 H 0.29856 0.44173 0.05163 0.0
H303 H 0.26587 0.47031 0.11789 0.0
C304 C 0.1774 0.37751 0.32305 0.0
C305 C 0.16578 0.36767 0.26865 0.0
C306 C 0.19739 0.41164 0.32576 0.0
C307 C 0.20596 0.43712 0.27433 0.0
C308 C 0.19401 0.42849 0.22035 0.0
C309 C 0.17415 0.39417 0.21749 0.0
C310 C 0.22797 0.47091 0.2759 0.0
C311 C 0.2468 0.4572 0.23771 0.0
C312 C 0.23071 0.5154 0.31511 0.0
C313 C 0.21124 0.53292 0.35536 0.0
C314 C 0.18845 0.54596 0.33283 0.0
C315 C 0.17011 0.56163 0.37119 0.0
C316 C 0.17438 0.56483 0.43213 0.0
C317 C 0.19705 0.55256 0.45483 0.0
C318 C 0.21545 0.5368 0.41667 0.0
C319 C 0.31833 0.62632 0.21417 0.0
C320 C 0.33149 0.63989 0.26535 0.0
C321 C 0.29862 0.59168 0.21764 0.0
C322 C 0.29184 0.56891 0.2721 0.0
C323 C 0.30495 0.58213 0.32331 0.0
C324 C 0.32459 0.6173 0.32002 0.0
C325 C 0.27075 0.53229 0.27537 0.0
C326 C 0.25214 0.54528 0.31459 0.0
C327 C 0.26821 0.48694 0.23724 0.0
C328 C 0.28778 0.46903 0.19736 0.0
C329 C 0.31081 0.45859 0.21997 0.0
C330 C 0.32926 0.44269 0.18202 0.0
C331 C 0.32484 0.43669 0.12138 0.0
C332 C 0.30196 0.44642 0.0986 0.0
C333 C 0.28346 0.46241 0.13635 0.0
H334 H 0.33915 0.42441 0.09207 0.0
H335 H 0.16015 0.57692 0.46176 0.0
H336 H 0.66349 0.11071 0.84744 0.0
H337 H 0.69828 0.05079 0.8525 0.0
H338 H 0.71064 0.07464 0.66568 0.0
H339 H 0.67557 0.13333 0.6597 0.0
H340 H 0.71967 0.97209 0.69588 0.0
H341 H 0.73952 0.14904 0.77072 0.0
H342 H 0.73435 0.22864 0.83582 0.0
H343 H 0.74846 0.12943 0.98853 0.0
H344 H 0.75295 0.04879 0.92453 0.0
H345 H 0.83976 0.89764 0.67541 0.0
H346 H 0.80531 0.95822 0.67879 0.0
H347 H 0.79361 0.91564 0.86181 0.0
H348 H 0.82846 0.85543 0.85937 0.0
H349 H 0.78386 0.02531 0.83707 0.0
H350 H 0.76723 0.84846 0.75567 0.0
H351 H 0.7751 0.77367 0.68584 0.0
H352 H 0.75554 0.87641 0.53977 0.0
H353 H 0.74908 0.95305 0.60828 0.0
C354 C 0.67338 0.10264 0.80719 0.0
C355 C 0.66685 0.12742 0.75328 0.0
C356 C 0.69333 0.06851 0.81024 0.0
C357 C 0.70733 0.05913 0.75972 0.0
C358 C 0.70016 0.0815 0.70529 0.0
C359 C 0.6801 0.11524 0.70203 0.0
C360 C 0.73018 0.02865 0.76401 0.0
C361 C 0.73377 0.98397 0.72641 0.0
C362 C 0.74849 0.04391 0.80437 0.0
C363 C 0.74634 0.09269 0.84282 0.0
C364 C 0.74135 0.14406 0.81821 0.0
C365 C 0.73854 0.18939 0.85491 0.0
C366 C 0.74111 0.1841 0.91623 0.0
C367 C 0.74646 0.13345 0.941 0.0
C368 C 0.7491 0.08789 0.90455 0.0
C369 C 0.83018 0.90175 0.71679 0.0
C370 C 0.83668 0.87097 0.76689 0.0
C371 C 0.81048 0.93649 0.71859 0.0
C372 C 0.79666 0.94051 0.77018 0.0
C373 C 0.80401 0.91285 0.8215 0.0
C374 C 0.82389 0.87833 0.81992 0.0
C375 C 0.77336 0.96915 0.76865 0.0
C376 C 0.76969 0.01333 0.8068 0.0
C377 C 0.75508 0.95383 0.72824 0.0
C378 C 0.75789 0.90686 0.68725 0.0
C379 C 0.76484 0.85542 0.70864 0.0
C380 C 0.76916 0.8127 0.66924 0.0
C381 C 0.76567 0.82018 0.60849 0.0
C382 C 0.75818 0.87064 0.5869 0.0
C383 C 0.75436 0.91388 0.62597 0.0
H384 H 0.76875 0.78685 0.57817 0.0
H385 H 0.73898 0.21926 0.94455 0.0
H386 H 0.82103 0.6649 0.64681 0.0
H387 H 0.78641 0.60401 0.64251 0.0
H388 H 0.80238 0.54674 0.81889 0.0
H389 H 0.83679 0.60781 0.82399 0.0
H390 H 0.7923 0.46301 0.74046 0.0
H391 H 0.75837 0.6321 0.80239 0.0
H392 H 0.74727 0.7291 0.8007 0.0
H393 H 0.71198 0.70701 0.63315 0.0
H394 H 0.72312 0.60993 0.63343 0.0
H395 H 0.68299 0.34001 0.82384 0.0
H396 H 0.7174 0.40072 0.8179 0.0
H397 H 0.69795 0.4434 0.63877 0.0
H398 H 0.66345 0.38207 0.64386 0.0
H399 H 0.70983 0.53348 0.7122 0.0
H400 H 0.7422 0.36129 0.65517 0.0
H401 H 0.75043 0.26319 0.66436 0.0
H402 H 0.78754 0.29104 0.82846 0.0
H403 H 0.77922 0.38933 0.82074 0.0
C404 C 0.8173 0.63909 0.68455 0.0
C405 C 0.83176 0.64115 0.73571 0.0
C406 C 0.79741 0.60459 0.68214 0.0
C407 C 0.79177 0.57113 0.73052 0.0
C408 C 0.80642 0.57227 0.78109 0.0
C409 C 0.82609 0.60725 0.7839 0.0
C410 C 0.77065 0.53466 0.72848 0.0
C411 C 0.77425 0.47846 0.73478 0.0
C412 C 0.74716 0.55478 0.71983 0.0
C413 C 0.74181 0.61383 0.71764 0.0
C414 C 0.74857 0.64806 0.76473 0.0
C415 C 0.74212 0.70298 0.76423 0.0
C416 C 0.72878 0.72407 0.71705 0.0
C417 C 0.7222 0.69052 0.6698 0.0
C418 C 0.72859 0.63557 0.67009 0.0
C419 C 0.68589 0.36237 0.78315 0.0
C420 C 0.67042 0.35604 0.73425 0.0
C421 C 0.70566 0.39687 0.7798 0.0
C422 C 0.71031 0.42608 0.72773 0.0
C423 C 0.69467 0.42099 0.67927 0.0
C424 C 0.675 0.3859 0.68228 0.0
C425 C 0.73152 0.46206 0.72434 0.0
C426 C 0.72793 0.51808 0.71714 0.0
C427 C 0.755 0.44184 0.73254 0.0
C428 C 0.75993 0.38269 0.73756 0.0
C429 C 0.75193 0.34648 0.6935 0.0
C430 C 0.75667 0.29085 0.69836 0.0
C431 C 0.76956 0.27094 0.74687 0.0
C432 C 0.77763 0.30658 0.7908 0.0
C433 C 0.77292 0.36227 0.78619 0.0
H434 H 0.77329 0.22789 0.75044 0.0
H435 H 0.7236 0.76647 0.71702 0.0
H436 H 0.06299 0.18611 0.06035 0.0
H437 H 0.03393 0.13032 0.00691 0.0
H438 H 0.04307 0.00189 0.13517 0.0
H439 H 0.07231 0.05739 0.18899 0.0
H440 H 0.04313 0.96358 0.02069 0.0
H441 H 0.99445 0.07946 0.14076 0.0
H442 H 0.98051 0.16679 0.18162 0.0
H443 H 0.96082 0.22053 0.00707 0.0
H444 H 0.975 0.13378 0.96501 0.0
H445 H 0.94002 0.80992 0.94154 0.0
H446 H 0.96946 0.86435 0.99556 0.0
H447 H 0.96147 0.99365 0.86788 0.0
H448 H 0.93194 0.93953 0.81348 0.0
H449 H 0.96075 0.03098 0.98297 0.0
H450 H 0.00964 0.91516 0.86294 0.0
H451 H 0.02362 0.82782 0.82218 0.0
H452 H 0.04283 0.77383 0.99696 0.0
H453 H 0.02862 0.8606 0.03891 0.0
C454 C 0.05886 0.14599 0.07728 0.0
C455 C 0.06995 0.12623 0.12905 0.0
C456 C 0.04218 0.11423 0.04674 0.0
C457 C 0.03619 0.06216 0.06736 0.0
C458 C 0.04744 0.042 0.11856 0.0
C459 C 0.06408 0.07384 0.14933 0.0
C460 C 0.01817 0.02887 0.03539 0.0
C461 C 0.02501 0.97794 0.01317 0.0
C462 C 0.9947 0.04821 0.02449 0.0
C463 C 0.98601 0.10031 0.04966 0.0
C464 C 0.98733 0.11007 0.11101 0.0
C465 C 0.97936 0.15944 0.13441 0.0
C466 C 0.96985 0.19924 0.09695 0.0
C467 C 0.96823 0.18969 0.03602 0.0
C468 C 0.97622 0.1404 0.01238 0.0
C469 C 0.94452 0.84991 0.92485 0.0
C470 C 0.93363 0.87038 0.87314 0.0
C471 C 0.96141 0.88089 0.9557 0.0
C472 C 0.96776 0.93288 0.9355 0.0
C473 C 0.95681 0.95361 0.8842 0.0
C474 C 0.94 0.92254 0.85308 0.0
C475 C 0.98572 0.96574 0.96817 0.0
C476 C 0.97886 0.0166 0.99055 0.0
C477 C 0.00916 0.94631 0.97924 0.0
C478 C 0.01783 0.89418 0.95414 0.0
C479 C 0.01665 0.88449 0.89276 0.0
C480 C 0.02465 0.83512 0.86942 0.0
C481 C 0.03405 0.79524 0.90698 0.0
C482 C 0.03552 0.80473 0.96794 0.0
C483 C 0.02751 0.85402 0.99152 0.0
H484 H 0.04024 0.75704 0.88882 0.0
H485 H 0.96368 0.23744 0.11515 0.0
H486 H 0.56899 0.17608 0.94671 0.0
H487 H 0.54014 0.12156 0.00209 0.0
H488 H 0.5324 0.01376 0.85248 0.0
H489 H 0.56154 0.06752 0.79708 0.0
H490 H 0.4941 0.09775 0.98335 0.0
H491 H 0.52273 0.88483 0.90162 0.0
H492 H 0.5589 0.83802 0.86543 0.0
H493 H 0.60328 0.94962 0.96239 0.0
H494 H 0.56738 0.9966 0.99979 0.0
H495 H 0.43175 0.8205 0.04931 0.0
H496 H 0.46044 0.87542 0.99391 0.0
H497 H 0.46759 0.98388 0.14314 0.0
H498 H 0.43855 0.92978 0.19848 0.0
H499 H 0.5062 0.8997 0.01254 0.0
H500 H 0.47757 0.11258 0.09429 0.0
H501 H 0.4414 0.1593 0.13064 0.0
H502 H 0.39701 0.04776 0.03366 0.0
H503 H 0.43289 0.00086 0.9961 0.0
C504 C 0.56116 0.14077 0.92552 0.0
C505 C 0.56771 0.12592 0.86759 0.0
C506 C 0.54462 0.10972 0.95723 0.0
C507 C 0.53433 0.06317 0.93177 0.0
C508 C 0.54044 0.04893 0.87346 0.0
C509 C 0.55705 0.07983 0.84177 0.0
C510 C 0.51726 0.02953 0.96635 0.0
C511 C 0.4969 0.05457 0.99038 0.0
C512 C 0.52063 0.97296 0.97448 0.0
C513 C 0.54236 0.94455 0.95297 0.0
C514 C 0.5402 0.89923 0.91538 0.0
C515 C 0.56066 0.8727 0.89464 0.0
C516 C 0.58337 0.89095 0.91144 0.0
C517 C 0.58568 0.93565 0.94922 0.0
C518 C 0.56528 0.96229 0.97015 0.0
C519 C 0.43941 0.85607 0.07039 0.0
C520 C 0.43272 0.871 0.12819 0.0
C521 C 0.45586 0.88735 0.03867 0.0
C522 C 0.46595 0.93418 0.06401 0.0
C523 C 0.45969 0.94853 0.1222 0.0
C524 C 0.44314 0.91743 0.15387 0.0
C525 C 0.48302 0.96789 0.0295 0.0
C526 C 0.50338 0.94286 0.00549 0.0
C527 C 0.47965 0.02447 0.02138 0.0
C528 C 0.45793 0.05289 0.04291 0.0
C529 C 0.46009 0.09818 0.08054 0.0
C530 C 0.43964 0.12466 0.10138 0.0
C531 C 0.41692 0.1064 0.08463 0.0
C532 C 0.41461 0.06174 0.04679 0.0
C533 C 0.435 0.03515 0.02576 0.0
H534 H 0.40111 0.12691 0.10087 0.0
H535 H 0.59918 0.87039 0.89528 0.0
H536 H 0.92852 0.67336 0.54601 0.0
H537 H 0.95757 0.61738 0.49316 0.0
H538 H 0.9636 0.51153 0.6449 0.0
H539 H 0.93459 0.56754 0.6984 0.0
H540 H 0.00746 0.53842 0.59863 0.0
H541 H 0.9323 0.47088 0.5267 0.0
H542 H 0.89196 0.47766 0.4827 0.0
H543 H 0.92178 0.54579 0.32405 0.0
H544 H 0.9623 0.54015 0.36746 0.0
H545 H 0.06828 0.32178 0.4558 0.0
H546 H 0.03866 0.37599 0.50901 0.0
H547 H 0.03162 0.48234 0.35794 0.0
H548 H 0.06116 0.42814 0.30413 0.0
H549 H 0.98813 0.45452 0.40428 0.0
H550 H 0.06303 0.52322 0.47566 0.0
H551 H 0.10351 0.51734 0.51903 0.0
H552 H 0.07439 0.44824 0.67799 0.0
H553 H 0.03374 0.45297 0.63519 0.0
C554 C 0.93596 0.6381 0.56818 0.0
C555 C 0.92914 0.62475 0.62635 0.0
C556 C 0.95251 0.60605 0.5378 0.0
C557 C 0.96258 0.56001 0.5649 0.0
C558 C 0.956 0.54683 0.62314 0.0
C559 C 0.93934 0.57874 0.65352 0.0
C560 C 0.98013 0.52597 0.5325 0.0
C561 C 0.00314 0.51938 0.55657 0.0
C562 C 0.97465 0.50232 0.4769 0.0
C563 C 0.95031 0.50558 0.45057 0.0
C564 C 0.93024 0.48773 0.48262 0.0
C565 C 0.90735 0.49129 0.45775 0.0
C566 C 0.9043 0.51228 0.40068 0.0
C567 C 0.92416 0.52961 0.36829 0.0
C568 C 0.9471 0.5262 0.39298 0.0
C569 C 0.06044 0.35669 0.43381 0.0
C570 C 0.06717 0.37081 0.3758 0.0
C571 C 0.04357 0.38774 0.4644 0.0
C572 C 0.03311 0.4335 0.43764 0.0
C573 C 0.03952 0.44724 0.37943 0.0
C574 C 0.05648 0.41635 0.34887 0.0
C575 C 0.01546 0.46695 0.47042 0.0
C576 C 0.99244 0.47347 0.4464 0.0
C577 C 0.02096 0.49066 0.52599 0.0
C578 C 0.04537 0.48793 0.55196 0.0
C579 C 0.06528 0.50634 0.51967 0.0
C580 C 0.08825 0.50329 0.54418 0.0
C581 C 0.09153 0.48228 0.60117 0.0
C582 C 0.07183 0.46442 0.63382 0.0
C583 C 0.04881 0.46731 0.60947 0.0
H584 H 0.10933 0.47997 0.62008 0.0
H585 H 0.88656 0.515 0.3815 0.0
H586 H 0.43558 0.6858 0.44765 0.0
H587 H 0.46509 0.63138 0.5013 0.0
H588 H 0.46092 0.50746 0.36647 0.0
H589 H 0.43118 0.56147 0.31257 0.0
H590 H 0.46009 0.46399 0.47734 0.0
H591 H 0.50796 0.59291 0.3711 0.0
H592 H 0.52036 0.68424 0.33827 0.0
H593 H 0.53534 0.72933 0.51844 0.0
H594 H 0.52268 0.63846 0.55246 0.0
H595 H 0.56454 0.31664 0.5539 0.0
H596 H 0.5348 0.37186 0.5022 0.0
H597 H 0.53982 0.49394 0.63885 0.0
H598 H 0.56984 0.43905 0.69086 0.0
H599 H 0.54003 0.53882 0.52836 0.0
H600 H 0.49255 0.4095 0.63452 0.0
H601 H 0.4802 0.3181 0.66723 0.0
H602 H 0.46451 0.27373 0.48722 0.0
H603 H 0.47712 0.36466 0.45329 0.0
C604 C 0.44092 0.64698 0.42929 0.0
C605 C 0.43103 0.62802 0.37572 0.0
C606 C 0.45786 0.616 0.45997 0.0
C607 C 0.46538 0.56559 0.43761 0.0
C608 C 0.45538 0.54627 0.38449 0.0
C609 C 0.43843 0.57727 0.35368 0.0
C610 C 0.48361 0.53299 0.46982 0.0
C611 C 0.47769 0.48007 0.48781 0.0
C612 C 0.50636 0.55449 0.48474 0.0
C613 C 0.51414 0.60905 0.46438 0.0
C614 C 0.51371 0.62244 0.40377 0.0
C615 C 0.52082 0.6741 0.38494 0.0
C616 C 0.52857 0.71261 0.42626 0.0
C617 C 0.5293 0.69948 0.48649 0.0
C618 C 0.52218 0.64788 0.50557 0.0
C619 C 0.55934 0.35521 0.57311 0.0
C620 C 0.56956 0.37339 0.62663 0.0
C621 C 0.54226 0.38665 0.54354 0.0
C622 C 0.5349 0.43677 0.56697 0.0
C623 C 0.54522 0.45535 0.62004 0.0
C624 C 0.56233 0.42385 0.64977 0.0
C625 C 0.51653 0.46978 0.53576 0.0
C626 C 0.52243 0.52277 0.51797 0.0
C627 C 0.49376 0.44835 0.52101 0.0
C628 C 0.486 0.39374 0.54131 0.0
C629 C 0.48664 0.38012 0.60184 0.0
C630 C 0.47957 0.32842 0.62062 0.0
C631 C 0.47163 0.29009 0.57931 0.0
C632 C 0.47069 0.30344 0.51915 0.0
C633 C 0.47778 0.35508 0.50013 0.0
H634 H 0.46616 0.25007 0.59393 0.0
H635 H 0.53407 0.75259 0.41159 0.0
loop_
_geom_bond_atom_site_label_1
_geom_bond_atom_site_label_2
_geom_bond_distance
_geom_bond_site_symmetry_2
_ccdc_geom_bond_type
Co0 O2 2.143 . S
Co0 O8 2.074 . S
Co0 O11 2.093 . S
Co0 O24 2.097 . S
Co0 N41 2.151 . S
Co0 N49 2.214 . S
Co1 O2 2.160 . S
Co1 O7 2.058 . S
Co1 O17 2.057 . S
Co1 O32 2.037 . S
Co1 N36 2.145 . S
Co1 N57 2.257 . S
O2 Co0 2.143 . S
O2 Co1 2.160 . S
C3 O4 1.278 . S
C3 O11 1.224 . S
O4 C3 1.278 . S
C5 O6 1.245 . S
C5 O17 1.232 . S
O6 C5 1.245 . S
O7 Co1 2.058 . S
O7 C33 1.269 . S
O8 Co0 2.074 . S
O8 C33 1.257 . S
H9 C34 0.930 . S
H10 C40 0.930 . S
O11 Co0 2.093 . S
O11 C3 1.224 . S
H12 C44 0.929 . S
H13 C46 0.930 . S
H14 C47 0.930 . S
H15 C45 0.929 . S
H16 C48 0.928 . S
O17 Co1 2.057 . S
O17 C5 1.232 . S
H18 C37 0.929 . S
H19 C38 0.929 . S
H20 C50 0.931 . S
H21 C42 0.929 . S
H22 C51 0.930 1_556 S
H23 C43 0.931 . S
O24 Co0 2.097 . S
O24 C52 1.214 . S
H25 C53 0.929 . S
H26 C54 0.929 . S
H27 C55 0.930 . S
H28 C56 0.929 . S
H29 C58 0.930 . S
H30 C35 0.930 . S
H31 C39 0.930 . S
O32 Co1 2.037 . S
O32 C52 1.234 . S
C33 O7 1.269 . S
C33 O8 1.257 . S
C34 H9 0.930 . S
C34 C37 1.388 . S
C34 C39 1.418 . S
C35 H30 0.930 . S
C35 C38 1.404 . S
C35 C39 1.353 . S
N36 Co1 2.145 . S
N36 C37 1.397 . S
N36 C38 1.334 . S
C37 H18 0.929 . S
C37 C34 1.388 . S
C37 N36 1.397 . S
C38 H19 0.929 . S
C38 C35 1.404 . S
C38 N36 1.334 . S
C39 H31 0.930 . S
C39 C34 1.418 . S
C39 C35 1.353 . S
C40 H10 0.930 . S
C40 N41 1.330 . S
C40 C42 1.446 . S
N41 Co0 2.151 . S
N41 C40 1.330 . S
N41 C45 1.418 . S
C42 H21 0.929 . S
C42 C40 1.446 . S
C42 C43 1.332 . S
C43 H23 0.931 . S
C43 C42 1.332 . S
C43 C44 1.267 . S
C44 H12 0.929 . S
C44 C43 1.267 . S
C44 C45 1.251 . S
C45 H15 0.929 . S
C45 N41 1.418 . S
C45 C44 1.251 . S
C46 H13 0.930 . S
C46 C48 1.406 1_556 S
C46 C51 1.261 1_556 S
C47 H14 0.930 . S
C47 N49 1.325 . S
C47 C50 1.357 . S
C48 H16 0.928 . S
C48 C46 1.406 1_554 S
C48 N49 1.261 . S
N49 Co0 2.214 . S
N49 C47 1.325 . S
N49 C48 1.261 . S
C50 H20 0.931 . S
C50 C47 1.357 . S
C50 C51 1.312 . S
C51 H22 0.930 1_554 S
C51 C46 1.261 1_554 S
C51 C50 1.312 . S
C52 O24 1.214 . S
C52 O32 1.234 . S
C53 H25 0.929 . S
C53 C56 1.391 . S
C53 C58 1.391 . S
C54 H26 0.929 . S
C54 C55 1.390 . S
C54 N57 1.391 . S
C55 H27 0.930 . S
C55 C54 1.390 . S
C55 C56 1.392 . S
C56 H28 0.929 . S
C56 C53 1.391 . S
C56 C55 1.392 . S
N57 Co1 2.257 . S
N57 C54 1.391 . S
N57 C58 1.388 . S
C58 H29 0.930 . S
C58 C53 1.391 . S
C58 N57 1.388 . S
Co59 O61 2.143 . S
Co59 O67 2.074 . S
Co59 O70 2.093 . S
Co59 O83 2.097 . S
Co59 N100 2.151 . S
Co59 N108 2.214 . S
Co60 O61 2.160 . S
Co60 O66 2.058 . S
Co60 O76 2.057 . S
Co60 O91 2.037 . S
Co60 N95 2.145 . S
Co60 N116 2.257 . S
O61 Co59 2.143 . S
O61 Co60 2.160 . S
C62 O63 1.278 . S
C62 O70 1.224 . S
O63 C62 1.278 . S
C64 O65 1.245 . S
C64 O76 1.232 . S
O65 C64 1.245 . S
O66 Co60 2.058 . S
O66 C92 1.269 . S
O67 Co59 2.074 . S
O67 C92 1.257 . S
H68 C93 0.930 . S
H69 C99 0.930 . S
O70 Co59 2.093 . S
O70 C62 1.224 . S
H71 C103 0.929 . S
H72 C105 0.930 . S
H73 C106 0.930 . S
H74 C104 0.929 . S
H75 C107 0.928 . S
O76 Co60 2.057 . S
O76 C64 1.232 . S
H77 C96 0.929 . S
H78 C97 0.929 . S
H79 C109 0.931 . S
H80 C101 0.929 . S
H81 C110 0.930 . S
H82 C102 0.931 . S
O83 Co59 2.097 . S
O83 C111 1.214 . S
H84 C112 0.929 . S
H85 C113 0.929 . S
H86 C114 0.930 . S
H87 C115 0.929 . S
H88 C117 0.930 . S
H89 C94 0.930 . S
H90 C98 0.930 . S
O91 Co60 2.037 . S
O91 C111 1.234 . S
C92 O66 1.269 . S
C92 O67 1.257 . S
C93 H68 0.930 . S
C93 C96 1.388 . S
C93 C98 1.418 1_554 S
C94 H89 0.930 . S
C94 C97 1.404 1_556 S
C94 C98 1.353 . S
N95 Co60 2.145 . S
N95 C96 1.397 . S
N95 C97 1.334 . S
C96 H77 0.929 . S
C96 C93 1.388 . S
C96 N95 1.397 . S
C97 H78 0.929 . S
C97 C94 1.404 1_554 S
C97 N95 1.334 . S
C98 H90 0.930 . S
C98 C93 1.418 1_556 S
C98 C94 1.353 . S
C99 H69 0.930 . S
C99 N100 1.330 . S
C99 C101 1.446 . S
N100 Co59 2.151 . S
N100 C99 1.330 . S
N100 C104 1.418 . S
C101 H80 0.929 . S
C101 C99 1.446 . S
C101 C102 1.332 . S
C102 H82 0.931 . S
C102 C101 1.332 . S
C102 C103 1.267 . S
C103 H71 0.929 . S
C103 C102 1.267 . S
C103 C104 1.251 . S
C104 H74 0.929 . S
C104 N100 1.418 . S
C104 C103 1.251 . S
C105 H72 0.930 . S
C105 C107 1.406 . S
C105 C110 1.261 . S
C106 H73 0.930 . S
C106 N108 1.325 . S
C106 C109 1.357 . S
C107 H75 0.928 . S
C107 C105 1.406 . S
C107 N108 1.261 . S
N108 Co59 2.214 . S
N108 C106 1.325 . S
N108 C107 1.261 . S
C109 H79 0.931 . S
C109 C106 1.357 . S
C109 C110 1.312 . S
C110 H81 0.930 . S
C110 C105 1.261 . S
C110 C109 1.312 . S
C111 O83 1.214 . S
C111 O91 1.234 . S
C112 H84 0.929 . S
C112 C115 1.391 . S
C112 C117 1.391 . S
C113 H85 0.929 . S
C113 C114 1.390 . S
C113 N116 1.391 . S
C114 H86 0.930 . S
C114 C113 1.390 . S
C114 C115 1.392 . S
C115 H87 0.929 . S
C115 C112 1.391 . S
C115 C114 1.392 . S
N116 Co60 2.257 . S
N116 C113 1.391 . S
N116 C117 1.388 . S
C117 H88 0.930 . S
C117 C112 1.391 . S
C117 N116 1.388 . S
Co118 O120 2.143 . S
Co118 O126 2.074 . S
Co118 O129 2.093 . S
Co118 O142 2.097 . S
Co118 N159 2.151 . S
Co118 N167 2.214 . S
Co119 O120 2.160 . S
Co119 O125 2.058 . S
Co119 O135 2.057 . S
Co119 O150 2.037 . S
Co119 N154 2.145 . S
Co119 N175 2.257 . S
O120 Co118 2.143 . S
O120 Co119 2.160 . S
C121 O122 1.278 . S
C121 O129 1.224 . S
O122 C121 1.278 . S
C123 O124 1.245 . S
C123 O135 1.232 . S
O124 C123 1.245 . S
O125 Co119 2.058 . S
O125 C151 1.269 . S
O126 Co118 2.074 . S
O126 C151 1.257 . S
H127 C152 0.930 . S
H128 C158 0.930 . S
O129 Co118 2.093 . S
O129 C121 1.224 . S
H130 C162 0.929 . S
H131 C164 0.930 . S
H132 C165 0.930 . S
H133 C163 0.929 . S
H134 C166 0.928 . S
O135 Co119 2.057 . S
O135 C123 1.232 . S
H136 C155 0.929 . S
H137 C156 0.929 . S
H138 C168 0.931 . S
H139 C160 0.929 . S
H140 C169 0.930 1_554 S
H141 C161 0.931 . S
O142 Co118 2.097 . S
O142 C170 1.214 . S
H143 C171 0.929 . S
H144 C172 0.929 . S
H145 C173 0.930 . S
H146 C174 0.929 . S
H147 C176 0.930 . S
H148 C153 0.930 . S
H149 C157 0.930 . S
O150 Co119 2.037 . S
O150 C170 1.234 . S
C151 O125 1.269 . S
C151 O126 1.257 . S
C152 H127 0.930 . S
C152 C155 1.388 . S
C152 C157 1.418 . S
C153 H148 0.930 . S
C153 C156 1.404 . S
C153 C157 1.353 . S
N154 Co119 2.145 . S
N154 C155 1.397 . S
N154 C156 1.334 . S
C155 H136 0.929 . S
C155 C152 1.388 . S
C155 N154 1.397 . S
C156 H137 0.929 . S
C156 C153 1.404 . S
C156 N154 1.334 . S
C157 H149 0.930 . S
C157 C152 1.418 . S
C157 C153 1.353 . S
C158 H128 0.930 . S
C158 N159 1.330 . S
C158 C160 1.446 . S
N159 Co118 2.151 . S
N159 C158 1.330 . S
N159 C163 1.418 . S
C160 H139 0.929 . S
C160 C158 1.446 . S
C160 C161 1.332 . S
C161 H141 0.931 . S
C161 C160 1.332 . S
C161 C162 1.267 . S
C162 H130 0.929 . S
C162 C161 1.267 . S
C162 C163 1.251 . S
C163 H133 0.929 . S
C163 N159 1.418 . S
C163 C162 1.251 . S
C164 H131 0.930 . S
C164 C166 1.406 1_554 S
C164 C169 1.261 1_554 S
C165 H132 0.930 . S
C165 N167 1.325 . S
C165 C168 1.357 . S
C166 H134 0.928 . S
C166 C164 1.406 1_556 S
C166 N167 1.261 . S
N167 Co118 2.214 . S
N167 C165 1.325 . S
N167 C166 1.261 . S
C168 H138 0.931 . S
C168 C165 1.357 . S
C168 C169 1.312 . S
C169 H140 0.930 1_556 S
C169 C164 1.261 1_556 S
C169 C168 1.312 . S
C170 O142 1.214 . S
C170 O150 1.234 . S
C171 H143 0.929 . S
C171 C174 1.391 . S
C171 C176 1.391 . S
C172 H144 0.929 . S
C172 C173 1.390 . S
C172 N175 1.391 . S
C173 H145 0.930 . S
C173 C172 1.390 . S
C173 C174 1.392 . S
C174 H146 0.929 . S
C174 C171 1.391 . S
C174 C173 1.392 . S
N175 Co119 2.257 . S
N175 C172 1.391 . S
N175 C176 1.388 . S
C176 H147 0.930 . S
C176 C171 1.391 . S
C176 N175 1.388 . S
Co177 O179 2.143 . S
Co177 O185 2.074 . S
Co177 O188 2.093 . S
Co177 O201 2.097 . S
Co177 N218 2.151 . S
Co177 N226 2.214 . S
Co178 O179 2.160 . S
Co178 O184 2.058 . S
Co178 O194 2.057 . S
Co178 O209 2.037 . S
Co178 N213 2.145 . S
Co178 N234 2.257 . S
O179 Co177 2.143 . S
O179 Co178 2.160 . S
C180 O181 1.278 . S
C180 O188 1.224 . S
O181 C180 1.278 . S
C182 O183 1.245 . S
C182 O194 1.232 . S
O183 C182 1.245 . S
O184 Co178 2.058 . S
O184 C210 1.269 . S
O185 Co177 2.074 . S
O185 C210 1.257 . S
H186 C211 0.930 . S
H187 C217 0.930 . S
O188 Co177 2.093 . S
O188 C180 1.224 . S
H189 C221 0.929 . S
H190 C223 0.930 . S
H191 C224 0.930 . S
H192 C222 0.929 . S
H193 C225 0.928 . S
O194 Co178 2.057 . S
O194 C182 1.232 . S
H195 C214 0.929 . S
H196 C215 0.929 . S
H197 C227 0.931 . S
H198 C219 0.929 . S
H199 C228 0.930 . S
H200 C220 0.931 . S
O201 Co177 2.097 . S
O201 C229 1.214 . S
H202 C230 0.929 . S
H203 C231 0.929 . S
H204 C232 0.930 . S
H205 C233 0.929 . S
H206 C235 0.930 . S
H207 C212 0.930 . S
H208 C216 0.930 . S
O209 Co178 2.037 . S
O209 C229 1.234 . S
C210 O184 1.269 . S
C210 O185 1.257 . S
C211 H186 0.930 . S
C211 C214 1.388 . S
C211 C216 1.418 1_556 S
C212 H207 0.930 . S
C212 C215 1.404 1_554 S
C212 C216 1.353 . S
N213 Co178 2.145 . S
N213 C214 1.397 . S
N213 C215 1.334 . S
C214 H195 0.929 . S
C214 C211 1.388 . S
C214 N213 1.397 . S
C215 H196 0.929 . S
C215 C212 1.404 1_556 S
C215 N213 1.334 . S
C216 H208 0.930 . S
C216 C211 1.418 1_554 S
C216 C212 1.353 . S
C217 H187 0.930 . S
C217 N218 1.330 . S
C217 C219 1.446 . S
N218 Co177 2.151 . S
N218 C217 1.330 . S
N218 C222 1.418 . S
C219 H198 0.929 . S
C219 C217 1.446 . S
C219 C220 1.332 . S
C220 H200 0.931 . S
C220 C219 1.332 . S
C220 C221 1.267 . S
C221 H189 0.929 . S
C221 C220 1.267 . S
C221 C222 1.251 . S
C222 H192 0.929 . S
C222 N218 1.418 . S
C222 C221 1.251 . S
C223 H190 0.930 . S
C223 C225 1.406 . S
C223 C228 1.261 . S
C224 H191 0.930 . S
C224 N226 1.325 . S
C224 C227 1.357 . S
C225 H193 0.928 . S
C225 C223 1.406 . S
C225 N226 1.261 . S
N226 Co177 2.214 . S
N226 C224 1.325 . S
N226 C225 1.261 . S
C227 H197 0.931 . S
C227 C224 1.357 . S
C227 C228 1.312 . S
C228 H199 0.930 . S
C228 C223 1.261 . S
C228 C227 1.312 . S
C229 O201 1.214 . S
C229 O209 1.234 . S
C230 H202 0.929 . S
C230 C233 1.391 . S
C230 C235 1.391 . S
C231 H203 0.929 . S
C231 C232 1.390 . S
C231 N234 1.391 . S
C232 H204 0.930 . S
C232 C231 1.390 . S
C232 C233 1.392 . S
C233 H205 0.929 . S
C233 C230 1.391 . S
C233 C232 1.392 . S
N234 Co178 2.257 . S
N234 C231 1.391 . S
N234 C235 1.388 . S
C235 H206 0.930 . S
C235 C230 1.391 . S
C235 N234 1.388 . S
H236 C254 0.951 . S
H237 C256 0.951 . S
H238 C258 0.950 . S
H239 C259 0.950 . S
H240 C261 0.950 . S
H241 C264 0.950 . S
H242 C265 0.950 . S
H243 C267 0.950 . S
H244 C268 0.950 . S
H245 C269 0.951 . S
H246 C271 0.951 . S
H247 C273 0.950 . S
H248 C274 0.950 . S
H249 C276 0.950 . S
H250 C279 0.950 . S
H251 C280 0.950 . S
H252 C282 0.950 . S
H253 C283 0.950 . S
C254 H236 0.951 . S
C254 C255 1.366 . S
C254 C256 1.388 . S
C255 C254 1.366 . S
C255 C259 1.385 . S
C256 H237 0.951 . S
C256 C254 1.388 . S
C256 C257 1.366 . S
C257 C256 1.366 . S
C257 C258 1.414 . S
C257 C260 1.499 . S
C258 H238 0.950 . S
C258 C257 1.414 . S
C258 C259 1.374 . S
C259 H239 0.950 . S
C259 C255 1.385 . S
C259 C258 1.374 . S
C260 C257 1.499 . S
C260 C261 1.373 . S
C260 C262 1.389 1_565 S
C261 H240 0.950 . S
C261 C260 1.373 . S
C261 C277 1.377 . S
C262 C260 1.389 1_545 S
C262 C263 1.524 . S
C262 C276 1.377 . S
C263 C262 1.524 . S
C263 C264 1.397 1_545 S
C263 C268 1.363 . S
C264 H241 0.950 . S
C264 C263 1.397 1_565 S
C264 C265 1.334 . S
C265 H242 0.950 . S
C265 C264 1.334 . S
C265 C266 1.287 1_565 S
C266 C265 1.287 1_545 S
C266 C267 1.524 . S
C266 H285 0.913 . S
C267 H243 0.950 . S
C267 C266 1.524 . S
C267 C268 1.415 . S
C268 H244 0.950 . S
C268 C263 1.363 . S
C268 C267 1.415 . S
C269 H245 0.951 . S
C269 C270 1.366 . S
C269 C271 1.388 . S
C270 C269 1.366 . S
C270 C274 1.385 . S
C271 H246 0.951 . S
C271 C269 1.388 . S
C271 C272 1.366 . S
C272 C271 1.366 . S
C272 C273 1.414 . S
C272 C275 1.499 . S
C273 H247 0.950 . S
C273 C272 1.414 . S
C273 C274 1.374 . S
C274 H248 0.950 . S
C274 C270 1.385 . S
C274 C273 1.374 . S
C275 C272 1.499 . S
C275 C276 1.373 . S
C275 C277 1.389 1_545 S
C276 H249 0.950 . S
C276 C262 1.377 . S
C276 C275 1.373 . S
C277 C261 1.377 . S
C277 C275 1.389 1_565 S
C277 C278 1.524 . S
C278 C277 1.524 . S
C278 C279 1.397 1_565 S
C278 C283 1.363 . S
C279 H250 0.950 . S
C279 C278 1.397 1_545 S
C279 C280 1.334 . S
C280 H251 0.950 . S
C280 C279 1.334 . S
C280 C281 1.287 1_545 S
C281 C280 1.287 1_565 S
C281 C282 1.524 . S
C281 H284 0.999 . S
C282 H252 0.950 . S
C282 C281 1.524 . S
C282 C283 1.415 . S
C283 H253 0.950 . S
C283 C278 1.363 . S
C283 C282 1.415 . S
H284 C281 0.999 . S
H285 C266 0.913 . S
H286 C304 0.951 . S
H287 C306 0.951 . S
H288 C308 0.950 . S
H289 C309 0.950 . S
H290 C311 0.950 . S
H291 C314 0.950 . S
H292 C315 0.950 . S
H293 C317 0.950 . S
H294 C318 0.950 . S
H295 C319 0.951 . S
H296 C321 0.951 . S
H297 C323 0.950 . S
H298 C324 0.950 . S
H299 C326 0.950 . S
H300 C329 0.950 . S
H301 C330 0.950 . S
H302 C332 0.950 1_556 S
H303 C333 0.950 . S
C304 H286 0.951 . S
C304 C305 1.366 . S
C304 C306 1.388 . S
C305 C304 1.366 . S
C305 C309 1.385 . S
C306 H287 0.951 . S
C306 C304 1.388 . S
C306 C307 1.366 . S
C307 C306 1.366 . S
C307 C308 1.414 . S
C307 C310 1.499 . S
C308 H288 0.950 . S
C308 C307 1.414 . S
C308 C309 1.374 . S
C309 H289 0.950 . S
C309 C305 1.385 . S
C309 C308 1.374 . S
C310 C307 1.499 . S
C310 C311 1.373 . S
C310 C312 1.389 . S
C311 H290 0.950 . S
C311 C310 1.373 . S
C311 C327 1.377 . S
C312 C310 1.389 . S
C312 C313 1.524 . S
C312 C326 1.377 . S
C313 C312 1.524 . S
C313 C314 1.397 . S
C313 C318 1.363 . S
C314 H291 0.950 . S
C314 C313 1.397 . S
C314 C315 1.334 . S
C315 H292 0.950 . S
C315 C314 1.334 . S
C315 C316 1.287 . S
C316 C315 1.287 . S
C316 C317 1.524 . S
C316 H335 0.913 . S
C317 H293 0.950 . S
C317 C316 1.524 . S
C317 C318 1.415 . S
C318 H294 0.950 . S
C318 C313 1.363 . S
C318 C317 1.415 . S
C319 H295 0.951 . S
C319 C320 1.366 . S
C319 C321 1.388 . S
C320 C319 1.366 . S
C320 C324 1.385 . S
C321 H296 0.951 . S
C321 C319 1.388 . S
C321 C322 1.366 . S
C322 C321 1.366 . S
C322 C323 1.414 . S
C322 C325 1.499 . S
C323 H297 0.950 . S
C323 C322 1.414 . S
C323 C324 1.374 . S
C324 H298 0.950 . S
C324 C320 1.385 . S
C324 C323 1.374 . S
C325 C322 1.499 . S
C325 C326 1.373 . S
C325 C327 1.389 . S
C326 H299 0.950 . S
C326 C312 1.377 . S
C326 C325 1.373 . S
C327 C311 1.377 . S
C327 C325 1.389 . S
C327 C328 1.524 . S
C328 C327 1.524 . S
C328 C329 1.397 . S
C328 C333 1.363 . S
C329 H300 0.950 . S
C329 C328 1.397 . S
C329 C330 1.334 . S
C330 H301 0.950 . S
C330 C329 1.334 . S
C330 C331 1.287 . S
C331 C330 1.287 . S
C331 C332 1.524 . S
C331 H334 0.999 1_554 S
C332 H302 0.950 1_554 S
C332 C331 1.524 . S
C332 C333 1.415 . S
C333 H303 0.950 . S
C333 C328 1.363 . S
C333 C332 1.415 . S
H334 C331 0.999 1_556 S
H335 C316 0.913 . S
H336 C354 0.951 . S
H337 C356 0.951 . S
H338 C358 0.950 . S
H339 C359 0.950 . S
H340 C361 0.950 . S
H341 C364 0.950 . S
H342 C365 0.950 . S
H343 C367 0.950 . S
H344 C368 0.950 . S
H345 C369 0.951 . S
H346 C371 0.951 . S
H347 C373 0.950 . S
H348 C374 0.950 . S
H349 C376 0.950 . S
H350 C379 0.950 . S
H351 C380 0.950 . S
H352 C382 0.950 . S
H353 C383 0.950 . S
C354 H336 0.951 . S
C354 C355 1.366 . S
C354 C356 1.388 . S
C355 C354 1.366 . S
C355 C359 1.385 . S
C356 H337 0.951 . S
C356 C354 1.388 . S
C356 C357 1.366 . S
C357 C356 1.366 . S
C357 C358 1.414 . S
C357 C360 1.499 . S
C358 H338 0.950 . S
C358 C357 1.414 . S
C358 C359 1.374 . S
C359 H339 0.950 . S
C359 C355 1.385 . S
C359 C358 1.374 . S
C360 C357 1.499 . S
C360 C361 1.373 . S
C360 C362 1.389 . S
C361 H340 0.950 . S
C361 C360 1.373 . S
C361 C377 1.377 1_545 S
C362 C360 1.389 . S
C362 C363 1.524 . S
C362 C376 1.377 1_545 S
C363 C362 1.524 . S
C363 C364 1.397 . S
C363 C368 1.363 . S
C364 H341 0.950 . S
C364 C363 1.397 . S
C364 C365 1.334 . S
C365 H342 0.950 . S
C365 C364 1.334 . S
C365 C366 1.287 . S
C366 C365 1.287 . S
C366 C367 1.524 . S
C366 H385 0.913 . S
C367 H343 0.950 . S
C367 C366 1.524 . S
C367 C368 1.415 . S
C368 H344 0.950 . S
C368 C363 1.363 . S
C368 C367 1.415 . S
C369 H345 0.951 . S
C369 C370 1.366 . S
C369 C371 1.388 . S
C370 C369 1.366 . S
C370 C374 1.385 . S
C371 H346 0.951 . S
C371 C369 1.388 . S
C371 C372 1.366 . S
C372 C371 1.366 . S
C372 C373 1.414 . S
C372 C375 1.499 . S
C373 H347 0.950 . S
C373 C372 1.414 . S
C373 C374 1.374 . S
C374 H348 0.950 . S
C374 C370 1.385 . S
C374 C373 1.374 . S
C375 C372 1.499 . S
C375 C376 1.373 . S
C375 C377 1.389 . S
C376 H349 0.950 . S
C376 C362 1.377 1_565 S
C376 C375 1.373 . S
C377 C361 1.377 1_565 S
C377 C375 1.389 . S
C377 C378 1.524 . S
C378 C377 1.524 . S
C378 C379 1.397 . S
C378 C383 1.363 . S
C379 H350 0.950 . S
C379 C378 1.397 . S
C379 C380 1.334 . S
C380 H351 0.950 . S
C380 C379 1.334 . S
C380 C381 1.287 . S
C381 C380 1.287 . S
C381 C382 1.524 . S
C381 H384 0.999 . S
C382 H352 0.950 . S
C382 C381 1.524 . S
C382 C383 1.415 . S
C383 H353 0.950 . S
C383 C378 1.363 . S
C383 C382 1.415 . S
H384 C381 0.999 . S
H385 C366 0.913 . S
H386 C404 0.951 . S
H387 C406 0.951 . S
H388 C408 0.950 . S
H389 C409 0.950 . S
H390 C411 0.950 . S
H391 C414 0.950 . S
H392 C415 0.950 . S
H393 C417 0.950 . S
H394 C418 0.950 . S
H395 C419 0.951 . S
H396 C421 0.951 . S
H397 C423 0.950 . S
H398 C424 0.950 . S
H399 C426 0.950 . S
H400 C429 0.950 . S
H401 C430 0.950 . S
H402 C432 0.950 . S
H403 C433 0.950 . S
C404 H386 0.951 . S
C404 C405 1.366 . S
C404 C406 1.388 . S
C405 C404 1.366 . S
C405 C409 1.385 . S
C406 H387 0.951 . S
C406 C404 1.388 . S
C406 C407 1.366 . S
C407 C406 1.366 . S
C407 C408 1.414 . S
C407 C410 1.499 . S
C408 H388 0.950 . S
C408 C407 1.414 . S
C408 C409 1.374 . S
C409 H389 0.950 . S
C409 C405 1.385 . S
C409 C408 1.374 . S
C410 C407 1.499 . S
C410 C411 1.373 . S
C410 C412 1.389 . S
C411 H390 0.950 . S
C411 C410 1.373 . S
C411 C427 1.377 . S
C412 C410 1.389 . S
C412 C413 1.524 . S
C412 C426 1.377 . S
C413 C412 1.524 . S
C413 C414 1.397 . S
C413 C418 1.363 . S
C414 H391 0.950 . S
C414 C413 1.397 . S
C414 C415 1.334 . S
C415 H392 0.950 . S
C415 C414 1.334 . S
C415 C416 1.287 . S
C416 C415 1.287 . S
C416 C417 1.524 . S
C416 H435 0.913 . S
C417 H393 0.950 . S
C417 C416 1.524 . S
C417 C418 1.415 . S
C418 H394 0.950 . S
C418 C413 1.363 . S
C418 C417 1.415 . S
C419 H395 0.951 . S
C419 C420 1.366 . S
C419 C421 1.388 . S
C420 C419 1.366 . S
C420 C424 1.385 . S
C421 H396 0.951 . S
C421 C419 1.388 . S
C421 C422 1.366 . S
C422 C421 1.366 . S
C422 C423 1.414 . S
C422 C425 1.499 . S
C423 H397 0.950 . S
C423 C422 1.414 . S
C423 C424 1.374 . S
C424 H398 0.950 . S
C424 C420 1.385 . S
C424 C423 1.374 . S
C425 C422 1.499 . S
C425 C426 1.373 . S
C425 C427 1.389 . S
C426 H399 0.950 . S
C426 C412 1.377 . S
C426 C425 1.373 . S
C427 C411 1.377 . S
C427 C425 1.389 . S
C427 C428 1.524 . S
C428 C427 1.524 . S
C428 C429 1.397 . S
C428 C433 1.363 . S
C429 H400 0.950 . S
C429 C428 1.397 . S
C429 C430 1.334 . S
C430 H401 0.950 . S
C430 C429 1.334 . S
C430 C431 1.287 . S
C431 C430 1.287 . S
C431 C432 1.524 . S
C431 H434 0.999 . S
C432 H402 0.950 . S
C432 C431 1.524 . S
C432 C433 1.415 . S
C433 H403 0.950 . S
C433 C428 1.363 . S
C433 C432 1.415 . S
H434 C431 0.999 . S
H435 C416 0.913 . S
H436 C454 0.951 . S
H437 C456 0.951 . S
H438 C458 0.950 . S
H439 C459 0.950 . S
H440 C461 0.950 . S
H441 C464 0.950 1_455 S
H442 C465 0.950 . S
H443 C467 0.950 . S
H444 C468 0.950 . S
H445 C469 0.951 . S
H446 C471 0.951 . S
H447 C473 0.950 . S
H448 C474 0.950 . S
H449 C476 0.950 . S
H450 C479 0.950 1_655 S
H451 C480 0.950 . S
H452 C482 0.950 . S
H453 C483 0.950 . S
C454 H436 0.951 . S
C454 C455 1.366 . S
C454 C456 1.388 . S
C455 C454 1.366 . S
C455 C459 1.385 . S
C456 H437 0.951 . S
C456 C454 1.388 . S
C456 C457 1.366 . S
C457 C456 1.366 . S
C457 C458 1.414 . S
C457 C460 1.499 . S
C458 H438 0.950 . S
C458 C457 1.414 . S
C458 C459 1.374 . S
C459 H439 0.950 . S
C459 C455 1.385 . S
C459 C458 1.374 . S
C460 C457 1.499 . S
C460 C461 1.373 1_554 S
C460 C462 1.389 1_455 S
C461 H440 0.950 . S
C461 C460 1.373 1_556 S
C461 C477 1.377 1_545 S
C462 C460 1.389 1_655 S
C462 C463 1.524 . S
C462 C476 1.377 1_545 S
C463 C462 1.524 . S
C463 C464 1.397 . S
C463 C468 1.363 . S
C464 H441 0.950 1_655 S
C464 C463 1.397 . S
C464 C465 1.334 . S
C465 H442 0.950 . S
C465 C464 1.334 . S
C465 C466 1.287 . S
C466 C465 1.287 . S
C466 C467 1.524 . S
C466 H485 0.913 . S
C467 H443 0.950 . S
C467 C466 1.524 . S
C467 C468 1.415 . S
C468 H444 0.950 . S
C468 C463 1.363 . S
C468 C467 1.415 . S
C469 H445 0.951 . S
C469 C470 1.366 . S
C469 C471 1.388 . S
C470 C469 1.366 . S
C470 C474 1.385 . S
C471 H446 0.951 . S
C471 C469 1.388 . S
C471 C472 1.366 . S
C472 C471 1.366 . S
C472 C473 1.414 . S
C472 C475 1.499 . S
C473 H447 0.950 . S
C473 C472 1.414 . S
C473 C474 1.374 . S
C474 H448 0.950 . S
C474 C470 1.385 . S
C474 C473 1.374 . S
C475 C472 1.499 . S
C475 C476 1.373 1_556 S
C475 C477 1.389 1_655 S
C476 H449 0.950 . S
C476 C462 1.377 1_565 S
C476 C475 1.373 1_554 S
C477 C461 1.377 1_565 S
C477 C475 1.389 1_455 S
C477 C478 1.524 . S
C478 C477 1.524 . S
C478 C479 1.397 . S
C478 C483 1.363 . S
C479 H450 0.950 1_455 S
C479 C478 1.397 . S
C479 C480 1.334 . S
C480 H451 0.950 . S
C480 C479 1.334 . S
C480 C481 1.287 . S
C481 C480 1.287 . S
C481 C482 1.524 . S
C481 H484 0.999 . S
C482 H452 0.950 . S
C482 C481 1.524 . S
C482 C483 1.415 . S
C483 H453 0.950 . S
C483 C478 1.363 . S
C483 C482 1.415 . S
H484 C481 0.999 . S
H485 C466 0.913 . S
H486 C504 0.951 . S
H487 C506 0.951 . S
H488 C508 0.950 . S
H489 C509 0.950 . S
H490 C511 0.950 . S
H491 C514 0.950 . S
H492 C515 0.950 . S
H493 C517 0.950 . S
H494 C518 0.950 . S
H495 C519 0.951 . S
H496 C521 0.951 . S
H497 C523 0.950 . S
H498 C524 0.950 . S
H499 C526 0.950 . S
H500 C529 0.950 . S
H501 C530 0.950 . S
H502 C532 0.950 . S
H503 C533 0.950 . S
C504 H486 0.951 . S
C504 C505 1.366 . S
C504 C506 1.388 . S
C505 C504 1.366 . S
C505 C509 1.385 . S
C506 H487 0.951 . S
C506 C504 1.388 . S
C506 C507 1.366 . S
C507 C506 1.366 . S
C507 C508 1.414 . S
C507 C510 1.499 . S
C508 H488 0.950 . S
C508 C507 1.414 . S
C508 C509 1.374 . S
C509 H489 0.950 . S
C509 C505 1.385 . S
C509 C508 1.374 . S
C510 C507 1.499 . S
C510 C511 1.373 1_556 S
C510 C512 1.389 1_545 S
C511 H490 0.950 . S
C511 C510 1.373 1_554 S
C511 C527 1.377 . S
C512 C510 1.389 1_565 S
C512 C513 1.524 . S
C512 C526 1.377 . S
C513 C512 1.524 . S
C513 C514 1.397 . S
C513 C518 1.363 . S
C514 H491 0.950 . S
C514 C513 1.397 . S
C514 C515 1.334 . S
C515 H492 0.950 . S
C515 C514 1.334 . S
C515 C516 1.287 . S
C516 C515 1.287 . S
C516 C517 1.524 . S
C516 H535 0.913 . S
C517 H493 0.950 . S
C517 C516 1.524 . S
C517 C518 1.415 . S
C518 H494 0.950 . S
C518 C513 1.363 . S
C518 C517 1.415 . S
C519 H495 0.951 . S
C519 C520 1.366 . S
C519 C521 1.388 . S
C520 C519 1.366 . S
C520 C524 1.385 . S
C521 H496 0.951 . S
C521 C519 1.388 . S
C521 C522 1.366 . S
C522 C521 1.366 . S
C522 C523 1.414 . S
C522 C525 1.499 . S
C523 H497 0.950 . S
C523 C522 1.414 . S
C523 C524 1.374 . S
C524 H498 0.950 . S
C524 C520 1.385 . S
C524 C523 1.374 . S
C525 C522 1.499 . S
C525 C526 1.373 1_554 S
C525 C527 1.389 1_565 S
C526 H499 0.950 . S
C526 C512 1.377 . S
C526 C525 1.373 1_556 S
C527 C511 1.377 . S
C527 C525 1.389 1_545 S
C527 C528 1.524 . S
C528 C527 1.524 . S
C528 C529 1.397 . S
C528 C533 1.363 . S
C529 H500 0.950 . S
C529 C528 1.397 . S
C529 C530 1.334 . S
C530 H501 0.950 . S
C530 C529 1.334 . S
C530 C531 1.287 . S
C531 C530 1.287 . S
C531 C532 1.524 . S
C531 H534 0.999 . S
C532 H502 0.950 . S
C532 C531 1.524 . S
C532 C533 1.415 . S
C533 H503 0.950 . S
C533 C528 1.363 . S
C533 C532 1.415 . S
H534 C531 0.999 . S
H535 C516 0.913 . S
H536 C554 0.951 . S
H537 C556 0.951 . S
H538 C558 0.950 . S
H539 C559 0.950 . S
H540 C561 0.950 . S
H541 C564 0.950 . S
H542 C565 0.950 . S
H543 C567 0.950 . S
H544 C568 0.950 . S
H545 C569 0.951 . S
H546 C571 0.951 . S
H547 C573 0.950 . S
H548 C574 0.950 . S
H549 C576 0.950 . S
H550 C579 0.950 . S
H551 C580 0.950 . S
H552 C582 0.950 . S
H553 C583 0.950 . S
C554 H536 0.951 . S
C554 C555 1.366 . S
C554 C556 1.388 . S
C555 C554 1.366 . S
C555 C559 1.385 . S
C556 H537 0.951 . S
C556 C554 1.388 . S
C556 C557 1.366 . S
C557 C556 1.366 . S
C557 C558 1.414 . S
C557 C560 1.499 . S
C558 H538 0.950 . S
C558 C557 1.414 . S
C558 C559 1.374 . S
C559 H539 0.950 . S
C559 C555 1.385 . S
C559 C558 1.374 . S
C560 C557 1.499 . S
C560 C561 1.373 1_655 S
C560 C562 1.389 . S
C561 H540 0.950 . S
C561 C560 1.373 1_455 S
C561 C577 1.377 . S
C562 C560 1.389 . S
C562 C563 1.524 . S
C562 C576 1.377 . S
C563 C562 1.524 . S
C563 C564 1.397 . S
C563 C568 1.363 . S
C564 H541 0.950 . S
C564 C563 1.397 . S
C564 C565 1.334 . S
C565 H542 0.950 . S
C565 C564 1.334 . S
C565 C566 1.287 . S
C566 C565 1.287 . S
C566 C567 1.524 . S
C566 H585 0.913 . S
C567 H543 0.950 . S
C567 C566 1.524 . S
C567 C568 1.415 . S
C568 H544 0.950 . S
C568 C563 1.363 . S
C568 C567 1.415 . S
C569 H545 0.951 . S
C569 C570 1.366 . S
C569 C571 1.388 . S
C570 C569 1.366 . S
C570 C574 1.385 . S
C571 H546 0.951 . S
C571 C569 1.388 . S
C571 C572 1.366 . S
C572 C571 1.366 . S
C572 C573 1.414 . S
C572 C575 1.499 . S
C573 H547 0.950 . S
C573 C572 1.414 . S
C573 C574 1.374 . S
C574 H548 0.950 . S
C574 C570 1.385 . S
C574 C573 1.374 . S
C575 C572 1.499 . S
C575 C576 1.373 1_455 S
C575 C577 1.389 . S
C576 H549 0.950 . S
C576 C562 1.377 . S
C576 C575 1.373 1_655 S
C577 C561 1.377 . S
C577 C575 1.389 . S
C577 C578 1.524 . S
C578 C577 1.524 . S
C578 C579 1.397 . S
C578 C583 1.363 . S
C579 H550 0.950 . S
C579 C578 1.397 . S
C579 C580 1.334 . S
C580 H551 0.950 . S
C580 C579 1.334 . S
C580 C581 1.287 . S
C581 C580 1.287 . S
C581 C582 1.524 . S
C581 H584 0.999 . S
C582 H552 0.950 . S
C582 C581 1.524 . S
C582 C583 1.415 . S
C583 H553 0.950 . S
C583 C578 1.363 . S
C583 C582 1.415 . S
H584 C581 0.999 . S
H585 C566 0.913 . S
H586 C604 0.951 . S
H587 C606 0.951 . S
H588 C608 0.950 . S
H589 C609 0.950 . S
H590 C611 0.950 . S
H591 C614 0.950 . S
H592 C615 0.950 . S
H593 C617 0.950 . S
H594 C618 0.950 . S
H595 C619 0.951 . S
H596 C621 0.951 . S
H597 C623 0.950 . S
H598 C624 0.950 . S
H599 C626 0.950 . S
H600 C629 0.950 . S
H601 C630 0.950 . S
H602 C632 0.950 . S
H603 C633 0.950 . S
C604 H586 0.951 . S
C604 C605 1.366 . S
C604 C606 1.388 . S
C605 C604 1.366 . S
C605 C609 1.385 . S
C606 H587 0.951 . S
C606 C604 1.388 . S
C606 C607 1.366 . S
C607 C606 1.366 . S
C607 C608 1.414 . S
C607 C610 1.499 . S
C608 H588 0.950 . S
C608 C607 1.414 . S
C608 C609 1.374 . S
C609 H589 0.950 . S
C609 C605 1.385 . S
C609 C608 1.374 . S
C610 C607 1.499 . S
C610 C611 1.373 . S
C610 C612 1.389 . S
C611 H590 0.950 . S
C611 C610 1.373 . S
C611 C627 1.377 . S
C612 C610 1.389 . S
C612 C613 1.524 . S
C612 C626 1.377 . S
C613 C612 1.524 . S
C613 C614 1.397 . S
C613 C618 1.363 . S
C614 H591 0.950 . S
C614 C613 1.397 . S
C614 C615 1.334 . S
C615 H592 0.950 . S
C615 C614 1.334 . S
C615 C616 1.287 . S
C616 C615 1.287 . S
C616 C617 1.524 . S
C616 H635 0.913 . S
C617 H593 0.950 . S
C617 C616 1.524 . S
C617 C618 1.415 . S
C618 H594 0.950 . S
C618 C613 1.363 . S
C618 C617 1.415 . S
C619 H595 0.951 . S
C619 C620 1.366 . S
C619 C621 1.388 . S
C620 C619 1.366 . S
C620 C624 1.385 . S
C621 H596 0.951 . S
C621 C619 1.388 . S
C621 C622 1.366 . S
C622 C621 1.366 . S
C622 C623 1.414 . S
C622 C625 1.499 . S
C623 H597 0.950 . S
C623 C622 1.414 . S
C623 C624 1.374 . S
C624 H598 0.950 . S
C624 C620 1.385 . S
C624 C623 1.374 . S
C625 C622 1.499 . S
C625 C626 1.373 . S
C625 C627 1.389 . S
C626 H599 0.950 . S
C626 C612 1.377 . S
C626 C625 1.373 . S
C627 C611 1.377 . S
C627 C625 1.389 . S
C627 C628 1.524 . S
C628 C627 1.524 . S
C628 C629 1.397 . S
C628 C633 1.363 . S
C629 H600 0.950 . S
C629 C628 1.397 . S
C629 C630 1.334 . S
C630 H601 0.950 . S
C630 C629 1.334 . S
C630 C631 1.287 . S
C631 C630 1.287 . S
C631 C632 1.524 . S
C631 H634 0.999 . S
C632 H602 0.950 . S
C632 C631 1.524 . S
C632 C633 1.415 . S
C633 H603 0.950 . S
C633 C628 1.363 . S
C633 C632 1.415 . S
H634 C631 0.999 . S
H635 C616 0.913 . S
C255 C92 1.249 . S
C270 C52 1.253 . S
C305 C33 1.250 . S
C320 C111 1.253 . S
C355 C210 1.250 . S
C370 C170 1.253 . S
C405 C151 1.250 . S
C420 C229 1.253 . S
C455 C3 1.481 . S
C470 C121 1.481 . S
C505 C182 1.493 . S
C520 C64 1.492 . S
C555 C123 1.493 . S
C570 C5 1.493 . S
C605 C62 1.481 . S
C620 C180 1.481 . S
