# Generated by pormake.
# Topology wkj, (6)-cn, num edge types: 1
# Building blocks:
#     Node 0, Type 0, BuildingBlock: MIFKUJ_clean_sbu_0, # of connection points: 6
#     Node 1, Type 0, BuildingBlock: MIFKUJ_clean_sbu_0, # of connection points: 6
#     Node 2, Type 0, BuildingBlock: MIFKUJ_clean_sbu_0, # of connection points: 6
#     Node 3, Type 0, BuildingBlock: MIFKUJ_clean_sbu_0, # of connection points: 6
#     Node 4, Type 0, BuildingBlock: MIFKUJ_clean_sbu_0, # of connection points: 6
#     Node 5, Type 0, BuildingBlock: MIFKUJ_clean_sbu_0, # of connection points: 6
#     Node 6, Type 0, BuildingBlock: MIFKUJ_clean_sbu_0, # of connection points: 6
#     Node 7, Type 0, BuildingBlock: MIFKUJ_clean_sbu_0, # of connection points: 6
#     Node 8, Type 0, BuildingBlock: MIFKUJ_clean_sbu_0, # of connection points: 6
#     Node 9, Type 0, BuildingBlock: MIFKUJ_clean_sbu_0, # of connection points: 6
#     Node 10, Type 0, BuildingBlock: MIFKUJ_clean_sbu_0, # of connection points: 6
#     Node 11, Type 0, BuildingBlock: MIFKUJ_clean_sbu_0, # of connection points: 6
#     Edge 12, Type (0, 0), BuildingBlock: KIFKEQ_clean_linker_1, # of connection points: 2
#     Edge 13, Type (0, 0), BuildingBlock: KIFKEQ_clean_linker_1, # of connection points: 2
#     Edge 14, Type (0, 0), BuildingBlock: KIFKEQ_clean_linker_1, # of connection points: 2
#     Edge 15, Type (0, 0), BuildingBlock: KIFKEQ_clean_linker_1, # of connection points: 2
#     Edge 16, Type (0, 0), BuildingBlock: KIFKEQ_clean_linker_1, # of connection points: 2
#     Edge 17, Type (0, 0), BuildingBlock: KIFKEQ_clean_linker_1, # of connection points: 2
#     Edge 18, Type (0, 0), BuildingBlock: KIFKEQ_clean_linker_1, # of connection points: 2
#     Edge 19, Type (0, 0), BuildingBlock: KIFKEQ_clean_linker_1, # of connection points: 2
#     Edge 20, Type (0, 0), BuildingBlock: KIFKEQ_clean_linker_1, # of connection points: 2
#     Edge 21, Type (0, 0), BuildingBlock: KIFKEQ_clean_linker_1, # of connection points: 2
#     Edge 22, Type (0, 0), BuildingBlock: KIFKEQ_clean_linker_1, # of connection points: 2
#     Edge 23, Type (0, 0), BuildingBlock: KIFKEQ_clean_linker_1, # of connection points: 2
#     Edge 24, Type (0, 0), BuildingBlock: KIFKEQ_clean_linker_1, # of connection points: 2
#     Edge 25, Type (0, 0), BuildingBlock: KIFKEQ_clean_linker_1, # of connection points: 2
#     Edge 26, Type (0, 0), BuildingBlock: KIFKEQ_clean_linker_1, # of connection points: 2
#     Edge 27, Type (0, 0), BuildingBlock: KIFKEQ_clean_linker_1, # of connection points: 2
#     Edge 28, Type (0, 0), BuildingBlock: KIFKEQ_clean_linker_1, # of connection points: 2
#     Edge 29, Type (0, 0), BuildingBlock: KIFKEQ_clean_linker_1, # of connection points: 2
#     Edge 30, Type (0, 0), BuildingBlock: KIFKEQ_clean_linker_1, # of connection points: 2
#     Edge 31, Type (0, 0), BuildingBlock: KIFKEQ_clean_linker_1, # of connection points: 2
#     Edge 32, Type (0, 0), BuildingBlock: KIFKEQ_clean_linker_1, # of connection points: 2
#     Edge 33, Type (0, 0), BuildingBlock: KIFKEQ_clean_linker_1, # of connection points: 2
#     Edge 34, Type (0, 0), BuildingBlock: KIFKEQ_clean_linker_1, # of connection points: 2
#     Edge 35, Type (0, 0), BuildingBlock: KIFKEQ_clean_linker_1, # of connection points: 2
#     Edge 36, Type (0, 0), BuildingBlock: KIFKEQ_clean_linker_1, # of connection points: 2
#     Edge 37, Type (0, 0), BuildingBlock: KIFKEQ_clean_linker_1, # of connection points: 2
#     Edge 38, Type (0, 0), BuildingBlock: KIFKEQ_clean_linker_1, # of connection points: 2
#     Edge 39, Type (0, 0), BuildingBlock: KIFKEQ_clean_linker_1, # of connection points: 2
#     Edge 40, Type (0, 0), BuildingBlock: KIFKEQ_clean_linker_1, # of connection points: 2
#     Edge 41, Type (0, 0), BuildingBlock: KIFKEQ_clean_linker_1, # of connection points: 2
#     Edge 42, Type (0, 0), BuildingBlock: KIFKEQ_clean_linker_1, # of connection points: 2
#     Edge 43, Type (0, 0), BuildingBlock: KIFKEQ_clean_linker_1, # of connection points: 2
#     Edge 44, Type (0, 0), BuildingBlock: KIFKEQ_clean_linker_1, # of connection points: 2
#     Edge 45, Type (0, 0), BuildingBlock: KIFKEQ_clean_linker_1, # of connection points: 2
#     Edge 46, Type (0, 0), BuildingBlock: KIFKEQ_clean_linker_1, # of connection points: 2
#     Edge 47, Type (0, 0), BuildingBlock: KIFKEQ_clean_linker_1, # of connection points: 2
# Relax obj value: 0.308
# Max RMSD: 0.210
# Mean RMSD: 0.210
data_MOF--net-wkj--node1-MIFKUJ_clean_sbu_0--edge1-KIFKEQ_clean_linker_1
_symmetry_space_group_name_H-M    P1
_symmetry_Int_Tables_number       1
_symmetry_cell_setting            triclinic
loop_
_symmetry_equiv_pos_as_xyz
'x, y, z'
_cell_length_a     47.040429
_cell_length_b     47.105824
_cell_length_c     30.843274
_cell_angle_alpha  89.885522
_cell_angle_beta   90.239602
_cell_angle_gamma 119.86864
loop_
_atom_site_label
_atom_site_type_symbol
_atom_site_fract_x
_atom_site_fract_y
_atom_site_fract_z
_atom_type_partial_charge
Zn0 Zn 0.40074 0.04763 0.19486 0.0
Zn1 Zn 0.39224 0.0609 0.33208 0.0
C2 C 0.37158 0.01134 0.12219 0.0
O3 O 0.39875 0.01021 0.12706 0.0
C4 C 0.43436 0.09695 0.40448 0.0
O5 O 0.41433 0.1087 0.40783 0.0
O6 O 0.44354 0.07468 0.16135 0.0
O7 O 0.39466 0.07438 0.24179 0.0
O8 O 0.39132 0.09847 0.30015 0.0
C9 C 0.44452 0.08805 0.12497 0.0
O10 O 0.41768 0.08653 0.10976 0.0
O11 O 0.36428 0.02629 0.15041 0.0
C12 C 0.33256 0.0037 0.36015 0.0
O13 O 0.33821 0.98984 0.32692 0.0
O14 O 0.35128 0.03413 0.36674 0.0
O15 O 0.39824 0.03344 0.28705 0.0
O16 O 0.40492 0.01229 0.22783 0.0
O17 O 0.43022 0.07726 0.3738 0.0
C18 C 0.39363 0.09828 0.25901 0.0
C19 C 0.40452 0.01308 0.26909 0.0
Zn20 Zn 0.33769 0.41015 0.51579 0.0
Zn21 Zn 0.32568 0.38901 0.65126 0.0
C22 C 0.36105 0.39698 0.44147 0.0
O23 O 0.37777 0.42896 0.44599 0.0
C24 C 0.32373 0.43953 0.70413 0.0
O25 O 0.29181 0.4201 0.70227 0.0
O26 O 0.33316 0.44529 0.48358 0.0
O27 O 0.30383 0.3898 0.56407 0.0
O28 O 0.27921 0.37325 0.62659 0.0
C29 C 0.31559 0.43916 0.44962 0.0
O30 O 0.29715 0.40859 0.43731 0.0
O31 O 0.34024 0.38005 0.47052 0.0
C32 C 0.31932 0.3544 0.73047 0.0
O33 O 0.3011 0.36731 0.74059 0.0
O34 O 0.33033 0.35792 0.69205 0.0
O35 O 0.35373 0.39766 0.59882 0.0
O36 O 0.38084 0.43318 0.54843 0.0
O37 O 0.34225 0.43162 0.68386 0.0
C38 C 0.27757 0.37773 0.58594 0.0
C39 C 0.37905 0.42391 0.58757 0.0
Zn40 Zn 0.93815 0.36145 0.84406 0.0
Zn41 Zn 0.92187 0.34472 0.98026 0.0
C42 C -0.00941 0.35145 0.81351 0.0
O43 O 0.00863 0.37697 0.83817 0.0
C44 C 0.88578 0.37452 0.01926 0.0
O45 O 0.86038 0.35231 0.99746 0.0
O46 O 0.91837 0.37726 0.79773 0.0
O47 O 0.9043 0.33251 0.88845 0.0
O48 O 0.88009 0.31063 0.94994 0.0
C49 C 0.93674 0.39303 0.766 0.0
O50 O 0.96672 0.39777 0.76502 0.0
O51 O 0.95965 0.33917 0.81368 0.0
C52 C 0.92473 0.31487 0.05845 0.0
O53 O 0.89595 0.31275 0.06276 0.0
O54 O 0.93995 0.32541 0.02284 0.0
O55 O 0.95439 0.36752 0.93262 0.0
O56 O 0.97027 0.40124 0.87825 0.0
O57 O 0.91337 0.37603 0.01516 0.0
C58 C 0.8789 0.31184 0.90866 0.0
C59 C 0.96662 0.39666 0.91896 0.0
Zn60 Zn 0.57962 0.93736 0.1778 0.0
Zn61 Zn 0.57842 0.92196 0.3145 0.0
C62 C 0.64166 0.98836 0.14481 0.0
O63 O 0.63698 0.00666 0.17272 0.0
C64 C 0.51144 0.88218 0.34684 0.0
O65 O 0.51135 0.85833 0.32476 0.0
O66 O 0.54171 0.91605 0.13479 0.0
O67 O 0.57679 0.90602 0.22484 0.0
O68 O 0.57419 0.8809 0.28533 0.0
C69 C 0.54501 0.9084 0.0963 0.0
O70 O 0.57355 0.91244 0.08425 0.0
O71 O 0.62179 0.95773 0.14432 0.0
C72 C 0.63905 0.96884 0.3574 0.0
O73 O 0.64635 0.98369 0.31962 0.0
O74 O 0.61314 0.94115 0.36088 0.0
O75 O 0.58804 0.955 0.26709 0.0
O76 O 0.57305 0.97107 0.20984 0.0
O77 O 0.53643 0.91068 0.34527 0.0
C78 C 0.57236 0.88033 0.24405 0.0
C79 C 0.5711 0.96645 0.2506 0.0
Zn80 Zn 0.62827 0.55196 0.53501 0.0
Zn81 Zn 0.66267 0.56777 0.66895 0.0
C82 C 0.63205 0.5874 0.45596 0.0
O83 O 0.64807 0.57308 0.44172 0.0
C84 C 0.64254 0.5007 0.69446 0.0
O85 O 0.62435 0.49289 0.65928 0.0
O86 O 0.62239 0.51411 0.49704 0.0
O87 O 0.66841 0.57222 0.57479 0.0
O88 O 0.70255 0.58869 0.62966 0.0
C89 C 0.64145 0.50342 0.48638 0.0
O90 O 0.67113 0.51686 0.50276 0.0
O91 O 0.62371 0.5841 0.49568 0.0
C92 C 0.6451 0.61299 0.70913 0.0
O93 O 0.63279 0.61342 0.67099 0.0
O94 O 0.66082 0.59772 0.71357 0.0
O95 O 0.62328 0.54992 0.6302 0.0
O96 O 0.58932 0.53378 0.5754 0.0
O97 O 0.66163 0.53073 0.70328 0.0
C98 C 0.69774 0.58564 0.58876 0.0
C99 C 0.59417 0.53646 0.61614 0.0
Zn100 Zn 0.05329 0.63588 0.88387 0.0
Zn101 Zn 0.07926 0.66796 0.01716 0.0
C102 C 0.00494 0.63486 0.82824 0.0
O103 O -0.01072 0.60517 0.84456 0.0
C104 C 0.10722 0.63204 0.06006 0.0
O105 O 0.11357 0.6268 0.02037 0.0
O106 O 0.07109 0.61305 0.84563 0.0
O107 O 0.08716 0.66827 0.9255 0.0
O108 O 0.11775 0.69797 0.97917 0.0
C109 C 0.08089 0.62331 0.80729 0.0
O110 O 0.08155 0.65015 0.79402 0.0
O111 O 0.03321 0.65493 0.84317 0.0
C112 C 0.03164 0.68855 0.03318 0.0
O113 O 0.01731 0.67125 0.9983 0.0
O114 O 0.05916 0.69217 0.04496 0.0
O115 O 0.04556 0.63139 0.97965 0.0
O116 O 0.01886 0.60164 0.92335 0.0
O117 O 0.0934 0.64903 0.06584 0.0
C118 C 0.11445 0.69134 0.93887 0.0
C119 C 0.02241 0.60494 0.96435 0.0
Zn120 Zn 0.9084 0.55972 0.4664 0.0
Zn121 Zn 0.88548 0.55193 0.32889 0.0
C122 C 0.94862 0.61391 0.52157 0.0
O123 O 0.97167 0.61147 0.5009 0.0
C124 C 0.86253 0.51111 0.2534 0.0
O125 O 0.85294 0.53211 0.24303 0.0
O126 O 0.89582 0.51902 0.50265 0.0
O127 O 0.87575 0.55336 0.41972 0.0
O128 O 0.84675 0.54859 0.36227 0.0
C129 C 0.88541 0.51643 0.54133 0.0
O130 O 0.87868 0.53858 0.55606 0.0
O131 O 0.91906 0.59643 0.50898 0.0
C132 C 0.92542 0.61911 0.29881 0.0
O133 O 0.9416 0.62367 0.33533 0.0
O134 O 0.90125 0.59107 0.29013 0.0
O135 O 0.92152 0.55976 0.37147 0.0
O136 O 0.94835 0.56736 0.43259 0.0
O137 O 0.87537 0.51327 0.29051 0.0
C138 C 0.85069 0.5525 0.40309 0.0
C139 C 0.94689 0.56388 0.39154 0.0
Zn140 Zn 0.34667 0.88198 0.79689 0.0
Zn141 Zn 0.32814 0.85673 0.66101 0.0
C142 C 0.31675 0.91714 0.83507 0.0
O143 O 0.32996 0.93676 0.80175 0.0
C144 C 0.34777 0.83779 0.5839 0.0
O145 O 0.31638 0.82486 0.57511 0.0
O146 O 0.37683 0.87324 0.83533 0.0
O147 O 0.32249 0.84753 0.75143 0.0
O148 O 0.29817 0.81596 0.69625 0.0
C149 C 0.36925 0.86388 0.87447 0.0
O150 O 0.34017 0.85678 0.88871 0.0
O151 O 0.31793 0.89078 0.83676 0.0
C152 C 0.29776 0.89404 0.63103 0.0
O153 O 0.31094 0.91156 0.66612 0.0
O154 O 0.30083 0.86915 0.62384 0.0
O155 O 0.35523 0.89387 0.70229 0.0
O156 O 0.37589 0.92249 0.7616 0.0
O157 O 0.35841 0.85106 0.62071 0.0
C158 C 0.3005 0.82012 0.73715 0.0
C159 C 0.37559 0.9205 0.72039 0.0
Zn160 Zn 0.51403 0.35728 0.15366 0.0
Zn161 Zn 0.50985 0.34628 0.01377 0.0
C162 C 0.44907 0.34294 0.18254 0.0
O163 O 0.44864 0.35681 0.14572 0.0
C164 C 0.55076 0.3511 0.94326 0.0
O165 O 0.5253 0.32232 0.93448 0.0
O166 O 0.55234 0.3702 0.19492 0.0
O167 O 0.50995 0.3307 0.10074 0.0
O168 O 0.49684 0.30204 0.04171 0.0
C169 C 0.54657 0.35581 0.2315 0.0
O170 O 0.51815 0.32917 0.23741 0.0
O171 O 0.47301 0.33835 0.19053 0.0
C172 C 0.44436 0.32563 0.97479 0.0
O173 O 0.43137 0.30922 0.01065 0.0
O174 O 0.47536 0.34195 0.97106 0.0
O175 O 0.51523 0.37851 0.06118 0.0
O176 O 0.51982 0.39904 0.12651 0.0
O177 O 0.55121 0.36501 0.97874 0.0
C178 C 0.49755 0.30288 0.08295 0.0
C179 C 0.51846 0.40166 0.08545 0.0
Zn180 Zn 0.10236 0.45362 0.50097 0.0
Zn181 Zn 0.10471 0.45296 0.36397 0.0
C182 C 0.06885 0.38581 0.52765 0.0
O183 O 0.04655 0.38342 0.4998 0.0
C184 C 0.13367 0.50534 0.30483 0.0
O185 O 0.14913 0.48936 0.29542 0.0
O186 O 0.11617 0.48817 0.54811 0.0
O187 O 0.13171 0.46788 0.44768 0.0
O188 O 0.14494 0.45252 0.38811 0.0
C189 C 0.096 0.47849 0.57958 0.0
O190 O 0.07087 0.44855 0.57842 0.0
O191 O 0.09602 0.41243 0.52952 0.0
C192 C 0.05865 0.39042 0.32286 0.0
O193 O 0.04687 0.38084 0.36205 0.0
O194 O 0.08309 0.41892 0.31743 0.0
O195 O 0.07606 0.44056 0.41665 0.0
O196 O 0.05935 0.44864 0.47798 0.0
O197 O 0.11422 0.49581 0.33695 0.0
C198 C 0.14681 0.45516 0.42934 0.0
C199 C 0.05886 0.44995 0.43682 0.0
Zn200 Zn 0.6309 0.10323 0.8262 0.0
Zn201 Zn 0.63666 0.10799 0.68745 0.0
C202 C 0.65861 0.06415 0.85823 0.0
O203 O 0.63784 0.04214 0.83093 0.0
C204 C 0.60081 0.13274 0.63649 0.0
O205 O 0.627 0.16159 0.64206 0.0
O206 O 0.60976 0.12035 0.86821 0.0
O207 O 0.65377 0.13323 0.77517 0.0
O208 O 0.67063 0.15337 0.71037 0.0
C209 C 0.61862 0.12687 0.90772 0.0
O210 O 0.64509 0.12659 0.92082 0.0
O211 O 0.66092 0.09217 0.85952 0.0
C212 C 0.66921 0.10429 0.61173 0.0
O213 O 0.66948 0.13179 0.6034 0.0
O214 O 0.65749 0.08991 0.64756 0.0
O215 O 0.6207 0.08005 0.74056 0.0
O216 O 0.59267 0.06283 0.79976 0.0
O217 O 0.59952 0.10779 0.65433 0.0
C218 C 0.67318 0.15702 0.7515 0.0
C219 C 0.59322 0.06272 0.75858 0.0
Zn220 Zn 0.461 0.60765 0.15132 0.0
Zn221 Zn 0.47169 0.62496 0.01188 0.0
C222 C 0.49105 0.60349 0.22777 0.0
O223 O 0.46326 0.57557 0.22697 0.0
C224 C 0.43781 0.61236 0.93102 0.0
O225 O 0.46463 0.63972 0.92119 0.0
O226 O 0.41751 0.58926 0.18222 0.0
O227 O 0.46899 0.64103 0.10364 0.0
O228 O 0.47655 0.66588 0.04095 0.0
C229 C 0.41455 0.60185 0.21717 0.0
O230 O 0.43857 0.63063 0.22922 0.0
O231 O 0.49717 0.62382 0.19703 0.0
C232 C 0.51262 0.61256 0.95822 0.0
O233 O 0.48756 0.58284 0.96271 0.0
O234 O 0.51239 0.6361 0.97792 0.0
O235 O 0.46643 0.59514 0.06098 0.0
O236 O 0.46156 0.56953 0.12167 0.0
O237 O 0.43362 0.60228 0.97005 0.0
C238 C 0.47592 0.66681 0.08233 0.0
C239 C 0.46551 0.57124 0.08085 0.0
H240 H 0.39501 0.10315 0.17164 0.0
H241 H 0.40757 0.15876 0.28806 0.0
H242 H 0.41797 0.15299 0.12879 0.0
H243 H 0.42814 0.20861 0.24509 0.0
H244 H 0.50823 0.29307 0.16655 0.0
H245 H 0.47766 0.24349 0.20947 0.0
H246 H 0.41344 0.19626 0.09994 0.0
H247 H 0.44518 0.24545 0.05678 0.0
C248 C 0.40235 0.1261 0.18784 0.0
C249 C 0.40069 0.1273 0.23307 0.0
C250 C 0.41501 0.15466 0.16332 0.0
C251 C 0.42552 0.18503 0.18357 0.0
C252 C 0.42122 0.18578 0.22861 0.0
C253 C 0.40906 0.15718 0.25319 0.0
C254 C 0.48751 0.27203 0.15193 0.0
C255 C 0.47915 0.27286 0.1085 0.0
C256 C 0.46976 0.24371 0.17652 0.0
C257 C 0.44294 0.21581 0.15825 0.0
C258 C 0.43427 0.21703 0.11486 0.0
C259 C 0.45242 0.24518 0.0901 0.0
H260 H 0.22711 0.38089 0.62562 0.0
H261 H 0.26216 0.3706 0.50093 0.0
H262 H 0.18702 0.39173 0.58966 0.0
H263 H 0.22409 0.38339 0.46496 0.0
H264 H 0.15043 0.4017 0.40393 0.0
H265 H 0.1719 0.37233 0.44512 0.0
H266 H 0.19229 0.43833 0.5531 0.0
H267 H 0.16912 0.46647 0.51247 0.0
C268 C 0.22572 0.38021 0.59054 0.0
C269 C 0.24816 0.37569 0.56588 0.0
C270 C 0.20311 0.38688 0.56991 0.0
C271 C 0.20277 0.38923 0.52438 0.0
C272 C 0.22335 0.3817 0.49999 0.0
C273 C 0.24555 0.37474 0.52056 0.0
C274 C 0.15933 0.40974 0.43659 0.0
C275 C 0.1587 0.43669 0.45483 0.0
C276 C 0.17162 0.39291 0.46025 0.0
C277 C 0.18426 0.40313 0.50231 0.0
C278 C 0.18242 0.4294 0.52107 0.0
C279 C 0.16956 0.44586 0.49763 0.0
H280 H 0.82517 0.25624 0.937 0.0
H281 H 0.86329 0.32128 0.82695 0.0
H282 H 0.7744 0.22232 0.89751 0.0
H283 H 0.81198 0.28846 0.78818 0.0
H284 H 0.73239 0.19828 0.71509 0.0
H285 H 0.7819 0.23782 0.75295 0.0
H286 H 0.7263 0.2199 0.87121 0.0
H287 H 0.67728 0.17913 0.83371 0.0
C288 C 0.82253 0.26341 0.9045 0.0
C289 C 0.84819 0.2912 0.88491 0.0
C290 C 0.79332 0.24421 0.88197 0.0
C291 C 0.78896 0.25276 0.83968 0.0
C292 C 0.81463 0.28085 0.82039 0.0
C293 C 0.84402 0.29972 0.84265 0.0
C294 C 0.73071 0.20332 0.74895 0.0
C295 C 0.70119 0.18551 0.77163 0.0
C296 C 0.75907 0.22602 0.77072 0.0
C297 C 0.75823 0.23167 0.81538 0.0
C298 C 0.72805 0.21546 0.83715 0.0
C299 C 0.69988 0.19238 0.81559 0.0
H300 H 0.51339 0.72786 0.04906 0.0
H301 H 0.46647 0.67653 0.16687 0.0
H302 H 0.53894 0.77942 0.08808 0.0
H303 H 0.49053 0.72841 0.20582 0.0
H304 H 0.56383 0.82173 0.2737 0.0
H305 H 0.54049 0.77015 0.23397 0.0
H306 H 0.52945 0.81811 0.12058 0.0
H307 H 0.55463 0.86954 0.15936 0.0
C308 C 0.50795 0.72772 0.08318 0.0
C309 C 0.48792 0.69822 0.10499 0.0
C310 C 0.52257 0.75732 0.10563 0.0
C311 C 0.51695 0.75819 0.15025 0.0
C312 C 0.49605 0.72866 0.17173 0.0
C313 C 0.48191 0.69895 0.14938 0.0
C314 C 0.55683 0.82121 0.24009 0.0
C315 C 0.56099 0.84966 0.21961 0.0
C316 C 0.54307 0.79159 0.21744 0.0
C317 C 0.53276 0.78979 0.17409 0.0
C318 C 0.5375 0.8185 0.15362 0.0
C319 C 0.55178 0.84808 0.17597 0.0
H320 H 0.69593 0.58249 0.50057 0.0
H321 H 0.7611 0.60428 0.61001 0.0
H322 H 0.73483 0.57763 0.4544 0.0
H323 H 0.80149 0.60229 0.56319 0.0
H324 H 0.8399 0.54469 0.48994 0.0
H325 H 0.80646 0.55998 0.53312 0.0
H326 H 0.78335 0.59717 0.41774 0.0
H327 H 0.81497 0.5797 0.37454 0.0
C328 C 0.71903 0.58714 0.51447 0.0
C329 C 0.72488 0.59233 0.55914 0.0
C330 C 0.7416 0.58468 0.48788 0.0
C331 C 0.77101 0.5885 0.50529 0.0
C332 C 0.77849 0.59774 0.54904 0.0
C333 C 0.75553 0.59938 0.57581 0.0
C334 C 0.82739 0.5559 0.47397 0.0
C335 C 0.82957 0.56062 0.42899 0.0
C336 C 0.8086 0.56516 0.49871 0.0
C337 C 0.79228 0.58013 0.47908 0.0
C338 C 0.795 0.58523 0.43398 0.0
C339 C 0.81313 0.57522 0.40916 0.0
H340 H 0.30487 0.81631 0.82446 0.0
H341 H 0.23981 0.77026 0.71578 0.0
H342 H 0.26082 0.78233 0.87432 0.0
H343 H 0.19536 0.73708 0.76539 0.0
H344 H 0.16559 0.75334 0.94645 0.0
H345 H 0.21217 0.78137 0.89772 0.0
H346 H 0.17351 0.69441 0.81794 0.0
H347 H 0.12667 0.667 0.86636 0.0
C348 C 0.28118 0.79872 0.81134 0.0
C349 C 0.27558 0.79611 0.76646 0.0
C350 C 0.2559 0.77943 0.8398 0.0
C351 C 0.22444 0.75744 0.82383 0.0
C352 C 0.21936 0.75362 0.77876 0.0
C353 C 0.2448 0.77267 0.7503 0.0
C354 C 0.16713 0.74037 0.91839 0.0
C355 C 0.14234 0.70831 0.90942 0.0
C356 C 0.1939 0.75624 0.89071 0.0
C357 C 0.19659 0.74008 0.85396 0.0
C358 C 0.1719 0.70775 0.8455 0.0
C359 C 0.14499 0.69208 0.87296 0.0
H360 H 0.62981 0.1407 0.9944 0.0
H361 H 0.55685 0.11727 0.89442 0.0
H362 H 0.59082 0.13723 0.04894 0.0
H363 H 0.51764 0.1128 0.94889 0.0
H364 H 0.45683 0.12409 0.05094 0.0
H365 H 0.50163 0.13969 1.00002 0.0
H366 H 0.54282 0.09546 0.08347 0.0
H367 H 0.49853 0.08081 0.13505 0.0
C368 C 0.60556 0.13512 0.98396 0.0
C369 C 0.59646 0.12912 0.93999 0.0
C370 C 0.58308 0.13286 0.01533 0.0
C371 C 0.55088 0.12442 0.00355 0.0
C372 C 0.54227 0.11975 0.9593 0.0
C373 C 0.56478 0.12218 0.92793 0.0
C374 C 0.47571 0.11809 0.05873 0.0
C375 C 0.47396 0.101 0.09697 0.0
C376 C 0.50132 0.12685 0.02933 0.0
C377 C 0.52575 0.11853 0.0372 0.0
C378 C 0.52471 0.10263 0.0764 0.0
C379 C 0.49919 0.09408 0.10599 0.0
H380 H 0.36992 0.53657 0.21017 0.0
H381 H 0.40289 0.61885 0.29729 0.0
H382 H 0.33902 0.49955 0.26849 0.0
H383 H 0.37082 0.58176 0.35557 0.0
H384 H 0.28103 0.43555 0.37623 0.0
H385 H 0.2964 0.47733 0.32031 0.0
H386 H 0.37918 0.54476 0.39844 0.0
H387 H 0.36314 0.50355 0.45466 0.0
C388 C 0.36975 0.54691 0.24145 0.0
C389 C 0.38941 0.58067 0.24921 0.0
C390 C 0.35181 0.52559 0.27503 0.0
C391 C 0.3528 0.53753 0.31713 0.0
C392 C 0.37013 0.57161 0.32386 0.0
C393 C 0.38831 0.59293 0.29031 0.0
C394 C 0.30209 0.45956 0.38183 0.0
C395 C 0.32112 0.46606 0.41965 0.0
C396 C 0.31103 0.48348 0.34964 0.0
C397 C 0.33936 0.51435 0.3544 0.0
C398 C 0.35703 0.52147 0.39362 0.0
C399 C 0.34793 0.49767 0.42591 0.0
H400 H 0.96973 0.42504 0.69301 0.0
H401 H 0.8781 0.3925 0.75996 0.0
H402 H 0.95291 0.45027 0.63735 0.0
H403 H 0.86101 0.41756 0.70355 0.0
H404 H 0.86723 0.50631 0.62661 0.0
H405 H 0.87623 0.47288 0.67915 0.0
H406 H 0.91456 0.43844 0.57771 0.0
H407 H 0.90604 0.47231 0.52516 0.0
C408 C 0.94582 0.423 0.6957 0.0
C409 C 0.92533 0.40684 0.73114 0.0
C410 C 0.93606 0.43728 0.66349 0.0
C411 C 0.90555 0.4359 0.66582 0.0
C412 C 0.88479 0.41931 0.70094 0.0
C413 C 0.89452 0.40485 0.73318 0.0
C414 C 0.87711 0.49124 0.6153 0.0
C415 C 0.88617 0.49226 0.57166 0.0
C416 C 0.88215 0.47192 0.64548 0.0
C417 C 0.89644 0.4532 0.63279 0.0
C418 C 0.90402 0.453 0.58873 0.0
C419 C 0.8989 0.47225 0.55852 0.0
H420 H 0.35959 0.84129 0.95779 0.0
H421 H 0.43523 0.88951 0.86148 0.0
H422 H 0.40082 0.8481 0.01114 0.0
H423 H 0.47665 0.89722 0.91519 0.0
H424 H 0.48567 0.90513 0.10687 0.0
H425 H 0.44292 0.89118 0.05272 0.0
H426 H 0.49956 0.87192 0.95946 0.0
H427 H 0.54277 0.88683 0.01335 0.0
C428 C 0.38502 0.8532 0.9479 0.0
C429 C 0.39408 0.86496 0.90535 0.0
C430 C 0.40874 0.85734 0.97865 0.0
C431 C 0.44219 0.87354 0.96776 0.0
C432 C 0.45113 0.88432 0.92474 0.0
C433 C 0.42736 0.88 0.89389 0.0
C434 C 0.48891 0.89767 0.07493 0.0
C435 C 0.51776 0.89726 0.06445 0.0
C436 C 0.46427 0.88947 0.04384 0.0
C437 C 0.46771 0.88045 1.00151 0.0
C438 C 0.49624 0.87924 0.99144 0.0
C439 C 0.52096 0.8876 0.02248 0.0
H440 H 0.53576 0.33568 0.31584 0.0
H441 H 0.60376 0.41519 0.23426 0.0
H442 H 0.56208 0.36855 0.37999 0.0
H443 H 0.63025 0.44798 0.29891 0.0
H444 H 0.57891 0.4586 0.46394 0.0
H445 H 0.56068 0.41973 0.40404 0.0
H446 H 0.66135 0.45207 0.37099 0.0
H447 H 0.67978 0.49094 0.4317 0.0
C448 C 0.55681 0.35987 0.31151 0.0
C449 C 0.56732 0.37295 0.26977 0.0
C450 C 0.57178 0.37873 0.34836 0.0
C451 C 0.59789 0.41096 0.34442 0.0
C452 C 0.61019 0.42317 0.3029 0.0
C453 C 0.59497 0.40438 0.26588 0.0
C454 C 0.59719 0.45715 0.4443 0.0
C455 C 0.63077 0.47781 0.45255 0.0
C456 C 0.58675 0.43476 0.41013 0.0
C457 C 0.60961 0.43281 0.38291 0.0
C458 C 0.64323 0.4531 0.39146 0.0
C459 C 0.65373 0.47517 0.4263 0.0
H460 H 0.10043 0.63784 0.72294 0.0
H461 H 0.07954 0.56519 0.82209 0.0
H462 H 0.10821 0.60389 0.67033 0.0
H463 H 0.08811 0.5315 0.76958 0.0
H464 H 0.05779 0.46264 0.65153 0.0
H465 H 0.05851 0.4987 0.70803 0.0
H466 H 0.14141 0.58055 0.64705 0.0
H467 H 0.14021 0.54426 0.58942 0.0
C468 C 0.09797 0.61483 0.73372 0.0
C469 C 0.08903 0.60411 0.77671 0.0
C470 C 0.10267 0.59543 0.70353 0.0
C471 C 0.09859 0.56481 0.71554 0.0
C472 C 0.09093 0.55469 0.759 0.0
C473 C 0.08619 0.5741 0.78921 0.0
C474 C 0.0764 0.48828 0.65018 0.0
C475 C 0.09885 0.50057 0.6157 0.0
C476 C 0.07696 0.50897 0.68293 0.0
C477 C 0.10003 0.5426 0.68225 0.0
C478 C 0.12308 0.55483 0.64834 0.0
C479 C 0.12254 0.53402 0.61545 0.0
H480 H 0.32489 0.97804 0.84945 0.0
H481 H 0.29317 0.88487 0.91209 0.0
H482 H 0.32885 0.00311 0.91992 0.0
H483 H 0.29725 0.91013 0.98246 0.0
H484 H 0.30708 0.96614 0.10683 0.0
H485 H 0.2823 0.94322 0.03562 0.0
H486 H 0.37342 0.01108 0.97343 0.0
H487 H 0.39793 0.03305 0.04388 0.0
C488 C 0.31773 0.96263 0.87802 0.0
C489 C 0.30955 0.92963 0.87521 0.0
C490 C 0.32005 0.97706 0.9184 0.0
C491 C 0.31394 0.9587 0.95667 0.0
C492 C 0.30208 0.92488 0.95352 0.0
C493 C 0.29994 0.91047 0.91314 0.0
C494 C 0.32131 0.9765 0.07767 0.0
C495 C 0.35428 0.00121 0.08043 0.0
C496 C 0.30727 0.96341 0.03712 0.0
C497 C 0.32588 0.97551 0.99899 0.0
C498 C 0.35826 0.00159 0.00206 0.0
C499 C 0.37238 0.01405 0.04236 0.0
H500 H 0.39973 0.35767 0.18 0.0
H501 H 0.44733 0.32137 0.26576 0.0
H502 H 0.37088 0.36373 0.24159 0.0
H503 H 0.41858 0.32775 0.32738 0.0
H504 H 0.35086 0.33446 0.42987 0.0
H505 H 0.36459 0.31318 0.36516 0.0
H506 H 0.39626 0.40539 0.30016 0.0
H507 H 0.38295 0.4264 0.36397 0.0
C508 C 0.40352 0.35029 0.21179 0.0
C509 C 0.42634 0.33962 0.21798 0.0
C510 C 0.38705 0.35387 0.24712 0.0
C511 C 0.39288 0.34675 0.28943 0.0
C512 C 0.4135 0.33338 0.29519 0.0
C513 C 0.4301 0.32989 0.25983 0.0
C514 C 0.36036 0.34988 0.40145 0.0
C515 C 0.36608 0.38216 0.40206 0.0
C516 C 0.3683 0.33779 0.36456 0.0
C517 C 0.38134 0.35756 0.32747 0.0
C518 C 0.38582 0.38934 0.32785 0.0
C519 C 0.37847 0.40151 0.36467 0.0
H520 H 0.00682 0.34155 0.5531 0.0
H521 H 0.10846 0.38078 0.58884 0.0
H522 H -0.0096 0.32141 0.62601 0.0
H523 H 0.09194 0.35904 0.6619 0.0
H524 H 0.05407 0.3856 0.78652 0.0
H525 H 0.07487 0.38089 0.71704 0.0
H526 H 0.98325 0.29248 0.69014 0.0
H527 H 0.96181 0.29832 0.75933 0.0
C528 C 0.02564 0.34462 0.57605 0.0
C529 C 0.05898 0.36372 0.56561 0.0
C530 C 0.01618 0.33285 0.61816 0.0
C531 C 0.03989 0.33949 0.65055 0.0
C532 C 0.07305 0.3545 0.63826 0.0
C533 C 0.08254 0.36674 0.59625 0.0
C534 C 0.03862 0.36463 0.76638 0.0
C535 C 0.00597 0.34288 0.77791 0.0
C536 C 0.05068 0.36172 0.72637 0.0
C537 C 0.03051 0.33668 0.69718 0.0
C538 C -0.00084 0.31265 0.71114 0.0
C539 C 0.98691 0.31587 0.75095 0.0
H540 H 0.66039 0.95888 0.08378 0.0
H541 H 0.67017 0.05205 0.1189 0.0
H542 H 0.68042 0.97962 0.01127 0.0
H543 H 0.68838 0.07219 0.04639 0.0
H544 H 0.70779 0.1038 0.91403 0.0
H545 H 0.72011 0.08797 0.98382 0.0
H546 H 0.65148 0.98646 0.95453 0.0
H547 H 0.6407 0.0022 0.88441 0.0
C548 C 0.66759 0.98405 0.07634 0.0
C549 C 0.66284 0.00354 0.10665 0.0
C550 C 0.67884 -0.00411 0.03465 0.0
C551 C 0.68499 0.02722 0.02228 0.0
C552 C 0.68395 0.04793 0.05435 0.0
C553 C 0.67322 0.03628 0.09618 0.0
C554 C 0.69621 0.07802 0.92205 0.0
C555 C 0.67265 0.05429 0.89424 0.0
C556 C 0.70311 0.06893 0.96219 0.0
C557 C 0.68611 0.03601 0.97561 0.0
C558 C 0.66524 0.01206 0.94562 0.0
C559 C 0.65879 0.0211 0.90525 0.0
H560 H 0.64437 0.59779 0.36898 0.0
H561 H 0.58732 0.60731 0.47147 0.0
H562 H 0.61332 0.60952 0.31535 0.0
H563 H 0.55644 0.61917 0.41775 0.0
H564 H 0.47734 0.57609 0.30771 0.0
H565 H 0.51559 0.58081 0.36425 0.0
H566 H 0.59665 0.64935 0.28548 0.0
H567 H 0.55793 0.6447 0.22838 0.0
C568 C 0.62574 0.60313 0.38019 0.0
C569 C 0.61803 0.60111 0.42453 0.0
C570 C 0.60805 0.61003 0.3494 0.0
C571 C 0.58214 0.61485 0.36226 0.0
C572 C 0.57597 0.6151 0.4068 0.0
C573 C 0.5938 0.60845 0.43761 0.0
C574 C 0.50329 0.59253 0.30258 0.0
C575 C 0.51465 0.60985 0.26346 0.0
C576 C 0.52523 0.59545 0.33519 0.0
C577 C 0.55918 0.61548 0.32941 0.0
C578 C 0.57061 0.63364 0.29078 0.0
C579 C 0.54849 0.6311 0.25823 0.0
H580 H 0.94585 0.59715 0.7889 0.0
H581 H 0.03715 0.68802 0.77437 0.0
H582 H 0.93094 0.60159 0.71491 0.0
H583 H 0.02172 0.69302 0.70024 0.0
H584 H 0.00857 0.65031 0.55958 0.0
H585 H 0.01981 0.66386 0.63583 0.0
H586 H 0.91671 0.62724 0.65852 0.0
H587 H 0.9053 0.61271 0.58201 0.0
C588 C 0.96237 0.6186 0.77029 0.0
C589 C -0.00704 0.64191 0.78734 0.0
C590 C 0.95367 0.62131 0.72779 0.0
C591 C 0.9753 0.64748 0.70124 0.0
C592 C 0.00473 0.67224 0.71951 0.0
C593 C 0.01348 0.66949 0.76214 0.0
C594 C 0.98834 0.64584 0.58054 0.0
C595 C 0.95596 0.62979 0.5648 0.0
C596 C -0.00517 0.65386 0.62442 0.0
C597 C 0.96911 0.64615 0.65363 0.0
C598 C 0.93704 0.63289 0.63709 0.0
C599 C 0.93052 0.62478 0.59313 0.0
H600 H 0.45607 0.04038 0.32395 0.0
H601 H 0.38452 0.94812 0.26837 0.0
H602 H 0.49198 0.01838 0.3392 0.0
H603 H 0.41885 0.92463 0.28751 0.0
H604 H 0.51016 0.93477 0.21788 0.0
H605 H 0.46253 0.93551 0.24411 0.0
H606 H 0.516 0.98708 0.3595 0.0
H607 H 0.56484 0.9871 0.3314 0.0
C608 C 0.44726 0.01472 0.31739 0.0
C609 C 0.41818 -0.00391 0.29392 0.0
C610 C 0.4678 0.00192 0.32636 0.0
C611 C 0.45906 0.97008 0.31264 0.0
C612 C 0.42707 0.94976 0.29654 0.0
C613 C 0.40719 0.96299 0.28592 0.0
C614 C 0.51159 0.94582 0.2492 0.0
C615 C 0.54127 0.96178 0.27206 0.0
C616 C 0.48396 0.94577 0.26487 0.0
C617 C 0.48524 0.96179 0.30392 0.0
C618 C 0.51428 0.97512 0.32889 0.0
C619 C 0.54219 0.97513 0.31298 0.0
H620 H 0.39658 0.40448 0.66159 0.0
H621 H 0.41949 0.48956 0.58402 0.0
H622 H 0.44911 0.43542 0.69951 0.0
H623 H 0.47135 0.52031 0.62146 0.0
H624 H 0.56824 0.5688 0.65795 0.0
H625 H 0.51107 0.54389 0.68085 0.0
H626 H 0.49917 0.44794 0.65884 0.0
H627 H 0.55609 0.47299 0.6367 0.0
C628 C 0.41226 0.43013 0.65388 0.0
C629 C 0.40475 0.44443 0.61893 0.0
C630 C 0.44223 0.44785 0.67565 0.0
C631 C 0.46474 0.48006 0.66284 0.0
C632 C 0.45476 0.49557 0.63225 0.0
C633 C 0.42515 0.4778 0.61023 0.0
C634 C 0.55377 0.54241 0.66049 0.0
C635 C 0.56606 0.52262 0.6453 0.0
C636 C 0.52107 0.52812 0.67348 0.0
C637 C 0.50037 0.494 0.67056 0.0
C638 C 0.51432 0.47428 0.66153 0.0
C639 C 0.54692 0.48856 0.64852 0.0
H640 H -0.00997 0.417 1.00127 0.0
H641 H 0.93824 0.43166 0.89578 0.0
H642 H -0.00779 0.46363 0.03993 0.0
H643 H 0.94082 0.47782 0.93267 0.0
H644 H 0.9565 0.56492 0.97092 0.0
H645 H 0.93091 0.50645 0.98588 0.0
H646 H 0.0249 0.52016 0.02732 0.0
H647 H 0.04919 0.5785 0.01624 0.0
C648 C 0.97879 0.43 0.98677 0.0
C649 C 0.9648 0.4216 0.94524 0.0
C650 C 0.97989 0.45653 0.00882 0.0
C651 C 0.96696 0.47487 0.9895 0.0
C652 C 0.95067 0.46434 0.94933 0.0
C653 C 0.94975 0.43818 0.92749 0.0
C654 C 0.97101 0.55552 0.98593 0.0
C655 C 0.00486 0.57576 0.99146 0.0
C656 C 0.95655 0.52201 0.99408 0.0
C657 C 0.97631 0.50833 0.00496 0.0
C658 C 0.00889 0.52953 0.01806 0.0
C659 C 0.02301 0.5632 0.01162 0.0
H660 H 0.04298 0.45198 0.35133 0.0
H661 H 0.05221 0.49744 0.47612 0.0
H662 H 0.02477 0.48829 0.31934 0.0
H663 H 0.03456 0.53299 0.44487 0.0
H664 H 0.01278 0.60033 0.40057 0.0
H665 H 0.04992 0.57858 0.3932 0.0
H666 H 0.97283 0.492 0.33149 0.0
H667 H 0.93638 0.51478 0.33656 0.0
C668 C 0.04142 0.46987 0.37169 0.0
C669 C 0.04862 0.47168 0.41624 0.0
C670 C 0.03122 0.49066 0.35341 0.0
C671 C 0.02889 0.51393 0.37937 0.0
C672 C 0.03698 0.51605 0.42359 0.0
C673 C 0.04655 0.49517 0.44177 0.0
C674 C 0.00451 0.5776 0.38307 0.0
C675 C 0.97171 0.55878 0.37007 0.0
C676 C 0.02565 0.56506 0.37896 0.0
C677 C 0.01373 0.53302 0.36349 0.0
C678 C 0.98258 0.51662 0.34393 0.0
C679 C 0.96166 0.52964 0.34694 0.0
H680 H 0.41979 0.91608 0.66984 0.0
H681 H 0.39132 0.98419 0.71755 0.0
H682 H 0.47532 0.96076 0.65862 0.0
H683 H 0.44617 0.0296 0.70268 0.0
H684 H 0.53893 0.06192 0.78733 0.0
H685 H 0.48545 0.03601 0.75451 0.0
H686 H 0.52353 0.01152 0.64182 0.0
H687 H 0.57804 0.03763 0.67608 0.0
C688 C 0.42502 0.94095 0.67527 0.0
C689 C 0.40198 0.94693 0.69574 0.0
C690 C 0.45687 0.9667 0.66862 0.0
C691 C 0.46558 -0.00137 0.68181 0.0
C692 C 0.44051 0.00505 0.69402 0.0
C693 C 0.40907 0.97919 0.70228 0.0
C694 C 0.53607 0.05143 0.75527 0.0
C695 C 0.56229 0.05094 0.73467 0.0
C696 C 0.50538 0.03704 0.73585 0.0
C697 C 0.49993 0.0215 0.6953 0.0
C698 C 0.52683 0.02303 0.67321 0.0
C699 C 0.55792 0.03785 0.69274 0.0
H700 H 0.52351 0.58582 0.04568 0.0
H701 H 0.42603 0.50607 0.07072 0.0
H702 H 0.5416 0.54655 0.02817 0.0
H703 H 0.44379 0.46679 0.05241 0.0
H704 H 0.48462 0.4028 0.01439 0.0
H705 H 0.47393 0.44698 0.99388 0.0
H706 H 0.54018 0.50809 0.09446 0.0
H707 H 0.54998 0.46382 0.11583 0.0
C708 C 0.5057 0.55989 0.04544 0.0
C709 C 0.47346 0.54862 0.05922 0.0
C710 C 0.516 0.53756 0.03545 0.0
C711 C 0.494 0.50384 0.03888 0.0
C712 C 0.461 0.49272 0.04887 0.0
C713 C 0.45089 0.51504 0.05959 0.0
C714 C 0.4976 0.42607 0.03115 0.0
C715 C 0.51778 0.43 0.06699 0.0
C716 C 0.49153 0.45121 0.01937 0.0
C717 C 0.50637 0.48077 0.04253 0.0
C718 C 0.52883 0.48562 0.07577 0.0
C719 C 0.5342 0.46027 0.08826 0.0
H720 H 0.25736 0.8603 0.56348 0.0
H721 H 0.31349 0.95731 0.6178 0.0
H722 H 0.25022 0.88356 0.49644 0.0
H723 H 0.30831 0.98075 0.55045 0.0
H724 H 0.30772 0.02288 0.42674 0.0
H725 H 0.2838 -0.00728 0.49352 0.0
H726 H 0.28667 0.9092 0.44047 0.0
H727 H 0.30851 0.93858 0.37346 0.0
C728 C 0.26764 0.88658 0.56131 0.0
C729 C 0.28654 0.90706 0.59545 0.0
C730 C 0.26378 0.89997 0.52279 0.0
C731 C 0.27948 0.93414 0.51727 0.0
C732 C 0.29565 0.95434 0.55317 0.0
C733 C 0.29887 0.94089 0.59197 0.0
C734 C 0.30218 -0.00232 0.42902 0.0
C735 C 0.31064 0.98331 0.39529 0.0
C736 C 0.2887 0.98044 0.46741 0.0
C737 C 0.28414 0.94878 0.47316 0.0
C738 C 0.28959 0.93341 0.43758 0.0
C739 C 0.30242 0.9504 0.39895 0.0
H740 H 0.37718 0.29637 0.97178 0.0
H741 H 0.46422 0.35423 0.89541 0.0
H742 H 0.34335 0.29708 0.91176 0.0
H743 H 0.43065 0.35534 0.83617 0.0
H744 H 0.36361 0.33299 0.72297 0.0
H745 H 0.39103 0.32108 0.7816 0.0
H746 H 0.33233 0.33686 0.87536 0.0
H747 H 0.30444 0.34809 0.81681 0.0
C748 C 0.38909 0.30917 0.94224 0.0
C749 C 0.42342 0.32531 0.9385 0.0
C750 C 0.36972 0.30964 0.9079 0.0
C751 C 0.38426 0.32612 0.86905 0.0
C752 C 0.41856 0.3419 0.86527 0.0
C753 C 0.43786 0.34152 0.8995 0.0
C754 C 0.35608 0.33329 0.75603 0.0
C755 C 0.33203 0.34181 0.76517 0.0
C756 C 0.37199 0.32672 0.78968 0.0
C757 C 0.36423 0.3285 0.83323 0.0
C758 C 0.33882 0.3351 0.84222 0.0
C759 C 0.3229 0.34168 0.80858 0.0
H760 H 0.9039 0.305 0.14244 0.0
H761 H 0.98577 0.32104 0.06238 0.0
H762 H 0.93738 0.31528 0.20691 0.0
H763 H 0.0191 0.33033 0.12723 0.0
H764 H 0.00153 0.33127 0.32079 0.0
H765 H 0.96893 0.30281 0.25691 0.0
H766 H 0.04322 0.37667 0.17465 0.0
H767 H 0.07595 0.40439 0.23794 0.0
C768 C 0.92876 0.30973 0.13862 0.0
C769 C 0.94237 0.31291 0.0972 0.0
C770 C 0.94798 0.31546 0.17575 0.0
C771 C 0.98118 0.32425 0.17227 0.0
C772 C -0.00615 0.32438 0.13099 0.0
C773 C 0.97467 0.31885 0.09381 0.0
C774 C 0.01116 0.34101 0.28899 0.0
C775 C 0.04112 0.37035 0.2845 0.0
C776 C -0.00758 0.32478 0.25239 0.0
C777 C 0.00327 0.33757 0.21061 0.0
C778 C 0.03419 0.36581 0.20617 0.0
C779 C 0.05289 0.38195 0.24263 0.0
H780 H 0.67375 0.04867 0.61848 0.0
H781 H 0.6824 0.12198 0.52676 0.0
H782 H 0.67771 0.01657 0.5593 0.0
H783 H 0.68503 0.08951 0.46769 0.0
H784 H 0.69221 0.03066 0.36369 0.0
H785 H 0.71047 0.06522 0.42815 0.0
H786 H 0.64003 0.98383 0.50513 0.0
H787 H 0.62285 0.94922 0.44143 0.0
C788 C 0.67694 0.05815 0.58576 0.0
C789 C 0.67722 0.08761 0.57724 0.0
C790 C 0.67906 0.03967 0.55179 0.0
C791 C 0.68118 0.05011 0.50853 0.0
C792 C 0.68376 0.08073 0.50049 0.0
C793 C 0.68196 0.09932 0.53446 0.0
C794 C 0.6813 0.01994 0.39463 0.0
C795 C 0.65559 0.98736 0.39722 0.0
C796 C 0.6916 0.03983 0.43156 0.0
C797 C 0.67624 0.0276 0.47177 0.0
C798 C 0.65262 -0.0058 0.47492 0.0
C799 C 0.64255 0.97429 0.43814 0.0
H800 H 0.53211 0.56981 0.93291 0.0
H801 H 0.55145 0.66862 0.9128 0.0
H802 H 0.5709 0.57727 0.87567 0.0
H803 H 0.59004 0.6759 0.85477 0.0
H804 H 0.60629 0.64113 0.71394 0.0
H805 H 0.57994 0.64696 0.77882 0.0
H806 H 0.63267 0.61274 0.8579 0.0
H807 H 0.65931 0.6072 0.7935 0.0
C808 C 0.54498 0.59325 0.91655 0.0
C809 C 0.53878 0.61861 0.92716 0.0
C810 C 0.56729 0.59759 0.884 0.0
C811 C 0.58344 0.62718 0.86089 0.0
C812 C 0.57786 0.65287 0.87213 0.0
C813 C 0.55596 0.64874 0.9054 0.0
C814 C 0.61294 0.63569 0.74525 0.0
C815 C 0.63455 0.62326 0.74842 0.0
C816 C 0.5979 0.6391 0.78239 0.0
C817 C 0.60402 0.62989 0.82319 0.0
C818 C 0.62729 0.61965 0.82671 0.0
C819 C 0.64258 0.61658 0.78977 0.0
H820 H 0.96556 0.65487 0.04333 0.0
H821 H 0.05413 0.73479 0.09705 0.0
H822 H 0.937 0.65036 0.10997 0.0
H823 H 0.02492 0.73206 0.1634 0.0
H824 H -0.01098 0.66519 0.28534 0.0
H825 H 0.01197 0.69526 0.21899 0.0
H826 H 0.9141 0.66085 0.16859 0.0
H827 H 0.89138 0.62874 0.23435 0.0
C828 C 0.97851 0.67262 0.06871 0.0
C829 C 0.01229 0.69449 0.06562 0.0
C830 C 0.96202 0.67018 0.10723 0.0
C831 C 0.9789 0.69007 0.1431 0.0
C832 C 0.01146 0.71537 0.13725 0.0
C833 C 0.02817 0.71723 0.09906 0.0
C834 C 0.97244 0.66476 0.26052 0.0
C835 C 0.93853 0.64403 0.26436 0.0
C836 C 0.98558 0.6823 0.22231 0.0
C837 C 0.96496 0.67995 0.1875 0.0
C838 C 0.93081 0.66236 0.19389 0.0
C839 C 0.91773 0.64411 0.23167 0.0
H840 H 0.45335 0.14142 0.47079 0.0
H841 H 0.47256 0.06872 0.41441 0.0
H842 H 0.49286 0.15086 0.5286 0.0
H843 H 0.5119 0.07822 0.47206 0.0
H844 H 0.54907 0.0754 0.60764 0.0
H845 H 0.50903 0.06802 0.55211 0.0
H846 H 0.5537 0.17288 0.53881 0.0
H847 H 0.59388 0.1804 0.59475 0.0
C848 C 0.46611 0.1276 0.47057 0.0
C849 C 0.45973 0.10426 0.43805 0.0
C850 C 0.48878 0.13309 0.5036 0.0
C851 C 0.50525 0.11509 0.50503 0.0
C852 C 0.49922 0.09212 0.47216 0.0
C853 C 0.47684 0.08687 0.43895 0.0
C854 C 0.55021 0.09694 0.5933 0.0
C855 C 0.57477 0.12851 0.60559 0.0
C856 C 0.5274 0.09267 0.5612 0.0
C857 C 0.52844 0.11987 0.5408 0.0
C858 C 0.55226 0.15147 0.55407 0.0
C859 C 0.5753 0.15575 0.58602 0.0
H860 H 0.29213 0.45733 0.76314 0.0
H861 H 0.38822 0.48667 0.71173 0.0
H862 H 0.31675 0.50183 0.81595 0.0
H863 H 0.41271 0.53094 0.76461 0.0
H864 H 0.4459 0.62243 0.84359 0.0
H865 H 0.41613 0.58326 0.786 0.0
H866 H 0.3523 0.5134 0.88112 0.0
H867 H 0.38194 0.55262 0.93887 0.0
C868 C 0.31845 0.47347 0.76276 0.0
C869 C 0.33822 0.46835 0.73333 0.0
C870 C 0.33254 0.49884 0.79318 0.0
C871 C 0.36667 0.51984 0.79455 0.0
C872 C 0.3863 0.51541 0.76412 0.0
C873 C 0.37227 0.4899 0.73395 0.0
C874 C 0.42516 0.59894 0.85226 0.0
C875 C 0.41646 0.59059 0.89594 0.0
C876 C 0.40825 0.57642 0.81921 0.0
C877 C 0.38209 0.54512 0.82901 0.0
C878 C 0.37224 0.53739 0.87247 0.0
C879 C 0.38929 0.55985 0.90559 0.0
H880 H 0.83086 0.37876 0.03607 0.0
H881 H 0.93149 0.41719 0.07662 0.0
H882 H 0.82334 0.41016 0.0933 0.0
H883 H 0.92412 0.44895 0.13309 0.0
H884 H 0.88966 0.47154 0.25931 0.0
H885 H 0.89437 0.43847 0.20205 0.0
H886 H 0.84109 0.46701 0.11457 0.0
H887 H 0.83599 0.49976 0.17191 0.0
C888 C 0.85146 0.39412 0.05688 0.0
C889 C 0.88177 0.39543 0.05173 0.0
C890 C 0.84716 0.41219 0.0896 0.0
C891 C 0.87304 0.43183 0.11801 0.0
C892 C 0.90352 0.43361 0.11226 0.0
C893 C 0.90784 0.41565 0.07953 0.0
C894 C 0.8786 0.47046 0.22804 0.0
C895 C 0.86251 0.48837 0.2202 0.0
C896 C 0.88157 0.45175 0.19509 0.0
C897 C 0.86838 0.45037 0.15361 0.0
C898 C 0.85136 0.46741 0.14621 0.0
C899 C 0.84852 0.48625 0.17909 0.0
H900 H 0.50643 0.92529 0.40101 0.0
H901 H 0.45646 0.82333 0.36345 0.0
H902 H 0.46602 0.91294 0.45769 0.0
H903 H 0.41616 0.811 0.42059 0.0
H904 H 0.33334 0.81124 0.5025 0.0
H905 H 0.37147 0.82165 0.44309 0.0
H906 H 0.45273 0.88265 0.52749 0.0
H907 H 0.41474 0.87254 0.58676 0.0
C908 C 0.48669 0.90028 0.40458 0.0
C909 C 0.48483 0.87524 0.37788 0.0
C910 C 0.4637 0.89318 0.43732 0.0
C911 C 0.43821 0.86092 0.44399 0.0
C912 C 0.43551 0.8361 0.41618 0.0
C913 C 0.45863 0.84317 0.38349 0.0
C914 C 0.35937 0.82662 0.5085 0.0
C915 C 0.37099 0.84112 0.54934 0.0
C916 C 0.38119 0.83252 0.47448 0.0
C917 C 0.41504 0.85325 0.48051 0.0
C918 C 0.42671 0.86702 0.52166 0.0
C919 C 0.40495 0.86096 0.55574 0.0
H920 H 0.67923 0.50697 0.76667 0.0
H921 H 0.59259 0.43735 0.69672 0.0
H922 H 0.6649 0.46808 0.82616 0.0
H923 H 0.57758 0.39908 0.7566 0.0
H924 H 0.55698 0.32958 0.86342 0.0
H925 H 0.58649 0.36322 0.80116 0.0
H926 H 0.62492 0.44985 0.88134 0.0
H927 H 0.59657 0.41622 0.94357 0.0
C928 C 0.65733 0.4832 0.76376 0.0
C929 C 0.63685 0.47539 0.72719 0.0
C930 C 0.649 0.46096 0.79799 0.0
C931 C 0.61983 0.43054 0.7966 0.0
C932 C 0.60043 0.42205 0.75878 0.0
C933 C 0.60894 0.44415 0.72441 0.0
C934 C 0.57242 0.35573 0.86795 0.0
C935 C 0.57401 0.37025 0.90832 0.0
C936 C 0.58915 0.37507 0.83216 0.0
C937 C 0.60761 0.40937 0.83588 0.0
C938 C 0.61118 0.42355 0.8771 0.0
C939 C 0.59472 0.40421 0.91293 0.0
H940 H 0.09298 0.53137 0.30166 0.0
H941 H 0.17582 0.53427 0.23746 0.0
H942 H 0.08886 0.56445 0.24382 0.0
H943 H 0.17248 0.56828 0.18041 0.0
H944 H 0.12802 0.58722 0.05896 0.0
H945 H 0.13711 0.56034 0.12057 0.0
H946 H 0.11251 0.61633 0.20812 0.0
H947 H 0.10244 0.6425 0.14633 0.0
C948 C 0.11076 0.53966 0.2757 0.0
C949 C 0.13451 0.52988 0.27395 0.0
C950 C 0.10848 0.55875 0.24251 0.0
C951 C 0.13007 0.56872 0.20701 0.0
C952 C 0.15493 0.56039 0.20664 0.0
C953 C 0.15704 0.54112 0.23959 0.0
C954 C 0.12474 0.59396 0.09134 0.0
C955 C 0.11445 0.61697 0.09766 0.0
C956 C 0.13016 0.57868 0.12678 0.0
C957 C 0.12564 0.58618 0.16948 0.0
C958 C 0.11583 0.60961 0.17576 0.0
C959 C 0.11022 0.62476 0.14029 0.0
loop_
_geom_bond_atom_site_label_1
_geom_bond_atom_site_label_2
_geom_bond_distance
_geom_bond_site_symmetry_2
_ccdc_geom_bond_type
Zn0 O6 1.969 . S
Zn0 O7 1.965 . S
Zn0 O11 2.024 . S
Zn0 O16 1.969 . S
Zn1 O8 1.969 . S
Zn1 O14 1.969 . S
Zn1 O15 1.965 . S
Zn1 O17 2.024 . S
C2 O3 1.229 . S
C2 O11 1.058 . S
O3 C2 1.229 . S
C4 O5 1.229 . S
C4 O17 1.058 . S
O5 C4 1.229 . S
O6 Zn0 1.969 . S
O6 C9 1.267 . S
O7 Zn0 1.965 . S
O7 C18 1.260 . S
O8 Zn1 1.969 . S
O8 C18 1.258 . S
C9 O6 1.267 . S
C9 O10 1.228 . S
O10 C9 1.228 . S
O11 Zn0 2.024 . S
O11 C2 1.058 . S
C12 O13 1.228 . S
C12 O14 1.267 . S
O13 C12 1.228 . S
O14 Zn1 1.969 . S
O14 C12 1.267 . S
O15 Zn1 1.965 . S
O15 C19 1.260 . S
O16 Zn0 1.969 . S
O16 C19 1.258 . S
O17 Zn1 2.024 . S
O17 C4 1.058 . S
C18 O7 1.260 . S
C18 O8 1.258 . S
C19 O15 1.260 . S
C19 O16 1.258 . S
Zn20 O26 1.969 . S
Zn20 O27 1.965 . S
Zn20 O31 2.024 . S
Zn20 O36 1.969 . S
Zn21 O28 1.969 . S
Zn21 O34 1.969 . S
Zn21 O35 1.965 . S
Zn21 O37 2.024 . S
C22 O23 1.229 . S
C22 O31 1.058 . S
O23 C22 1.229 . S
C24 O25 1.229 . S
C24 O37 1.058 . S
O25 C24 1.229 . S
O26 Zn20 1.969 . S
O26 C29 1.267 . S
O27 Zn20 1.965 . S
O27 C38 1.260 . S
O28 Zn21 1.969 . S
O28 C38 1.258 . S
C29 O26 1.267 . S
C29 O30 1.228 . S
O30 C29 1.228 . S
O31 Zn20 2.024 . S
O31 C22 1.058 . S
C32 O33 1.228 . S
C32 O34 1.267 . S
O33 C32 1.228 . S
O34 Zn21 1.969 . S
O34 C32 1.267 . S
O35 Zn21 1.965 . S
O35 C39 1.260 . S
O36 Zn20 1.969 . S
O36 C39 1.258 . S
O37 Zn21 2.024 . S
O37 C24 1.058 . S
C38 O27 1.260 . S
C38 O28 1.258 . S
C39 O35 1.260 . S
C39 O36 1.258 . S
Zn40 O46 1.969 . S
Zn40 O47 1.965 . S
Zn40 O51 2.024 . S
Zn40 O56 1.969 . S
Zn41 O48 1.969 . S
Zn41 O54 1.969 1_556 S
Zn41 O55 1.965 . S
Zn41 O57 2.024 1_556 S
C42 O43 1.229 . S
C42 O51 1.058 . S
O43 C42 1.229 . S
C44 O45 1.229 . S
C44 O57 1.058 . S
O45 C44 1.229 . S
O46 Zn40 1.969 . S
O46 C49 1.267 . S
O47 Zn40 1.965 . S
O47 C58 1.260 . S
O48 Zn41 1.969 . S
O48 C58 1.258 . S
C49 O46 1.267 . S
C49 O50 1.228 . S
O50 C49 1.228 . S
O51 Zn40 2.024 . S
O51 C42 1.058 . S
C52 O53 1.228 . S
C52 O54 1.267 . S
O53 C52 1.228 . S
O54 Zn41 1.969 1_554 S
O54 C52 1.267 . S
O55 Zn41 1.965 . S
O55 C59 1.260 . S
O56 Zn40 1.969 . S
O56 C59 1.258 . S
O57 Zn41 2.024 1_554 S
O57 C44 1.058 . S
C58 O47 1.260 . S
C58 O48 1.258 . S
C59 O55 1.260 . S
C59 O56 1.258 . S
Zn60 O66 1.969 . S
Zn60 O67 1.965 . S
Zn60 O71 2.024 . S
Zn60 O76 1.969 . S
Zn61 O68 1.969 . S
Zn61 O74 1.969 . S
Zn61 O75 1.965 . S
Zn61 O77 2.024 . S
C62 O63 1.229 . S
C62 O71 1.058 . S
O63 C62 1.229 . S
C64 O65 1.229 . S
C64 O77 1.058 . S
O65 C64 1.229 . S
O66 Zn60 1.969 . S
O66 C69 1.267 . S
O67 Zn60 1.965 . S
O67 C78 1.260 . S
O68 Zn61 1.969 . S
O68 C78 1.258 . S
C69 O66 1.267 . S
C69 O70 1.228 . S
O70 C69 1.228 . S
O71 Zn60 2.024 . S
O71 C62 1.058 . S
C72 O73 1.228 . S
C72 O74 1.267 . S
O73 C72 1.228 . S
O74 Zn61 1.969 . S
O74 C72 1.267 . S
O75 Zn61 1.965 . S
O75 C79 1.260 . S
O76 Zn60 1.969 . S
O76 C79 1.258 . S
O77 Zn61 2.024 . S
O77 C64 1.058 . S
C78 O67 1.260 . S
C78 O68 1.258 . S
C79 O75 1.260 . S
C79 O76 1.258 . S
Zn80 O86 1.969 . S
Zn80 O87 1.965 . S
Zn80 O91 2.024 . S
Zn80 O96 1.969 . S
Zn81 O88 1.969 . S
Zn81 O94 1.969 . S
Zn81 O95 1.965 . S
Zn81 O97 2.024 . S
C82 O83 1.229 . S
C82 O91 1.058 . S
O83 C82 1.229 . S
C84 O85 1.229 . S
C84 O97 1.058 . S
O85 C84 1.229 . S
O86 Zn80 1.969 . S
O86 C89 1.267 . S
O87 Zn80 1.965 . S
O87 C98 1.260 . S
O88 Zn81 1.969 . S
O88 C98 1.258 . S
C89 O86 1.267 . S
C89 O90 1.228 . S
O90 C89 1.228 . S
O91 Zn80 2.024 . S
O91 C82 1.058 . S
C92 O93 1.228 . S
C92 O94 1.267 . S
O93 C92 1.228 . S
O94 Zn81 1.969 . S
O94 C92 1.267 . S
O95 Zn81 1.965 . S
O95 C99 1.260 . S
O96 Zn80 1.969 . S
O96 C99 1.258 . S
O97 Zn81 2.024 . S
O97 C84 1.058 . S
C98 O87 1.260 . S
C98 O88 1.258 . S
C99 O95 1.260 . S
C99 O96 1.258 . S
Zn100 O106 1.969 . S
Zn100 O107 1.965 . S
Zn100 O111 2.024 . S
Zn100 O116 1.969 . S
Zn101 O108 1.969 . S
Zn101 O114 1.969 1_556 S
Zn101 O115 1.965 . S
Zn101 O117 2.024 1_556 S
C102 O103 1.229 . S
C102 O111 1.058 . S
O103 C102 1.229 . S
C104 O105 1.229 . S
C104 O117 1.058 . S
O105 C104 1.229 . S
O106 Zn100 1.969 . S
O106 C109 1.267 . S
O107 Zn100 1.965 . S
O107 C118 1.260 . S
O108 Zn101 1.969 . S
O108 C118 1.258 . S
C109 O106 1.267 . S
C109 O110 1.228 . S
O110 C109 1.228 . S
O111 Zn100 2.024 . S
O111 C102 1.058 . S
C112 O113 1.228 . S
C112 O114 1.267 . S
O113 C112 1.228 . S
O114 Zn101 1.969 1_554 S
O114 C112 1.267 . S
O115 Zn101 1.965 . S
O115 C119 1.260 . S
O116 Zn100 1.969 . S
O116 C119 1.258 . S
O117 Zn101 2.024 1_554 S
O117 C104 1.058 . S
C118 O107 1.260 . S
C118 O108 1.258 . S
C119 O115 1.260 . S
C119 O116 1.258 . S
Zn120 O126 1.969 . S
Zn120 O127 1.965 . S
Zn120 O131 2.024 . S
Zn120 O136 1.969 . S
Zn121 O128 1.969 . S
Zn121 O134 1.969 . S
Zn121 O135 1.965 . S
Zn121 O137 2.024 . S
C122 O123 1.229 . S
C122 O131 1.058 . S
O123 C122 1.229 . S
C124 O125 1.229 . S
C124 O137 1.058 . S
O125 C124 1.229 . S
O126 Zn120 1.969 . S
O126 C129 1.267 . S
O127 Zn120 1.965 . S
O127 C138 1.260 . S
O128 Zn121 1.969 . S
O128 C138 1.258 . S
C129 O126 1.267 . S
C129 O130 1.228 . S
O130 C129 1.228 . S
O131 Zn120 2.024 . S
O131 C122 1.058 . S
C132 O133 1.228 . S
C132 O134 1.267 . S
O133 C132 1.228 . S
O134 Zn121 1.969 . S
O134 C132 1.267 . S
O135 Zn121 1.965 . S
O135 C139 1.260 . S
O136 Zn120 1.969 . S
O136 C139 1.258 . S
O137 Zn121 2.024 . S
O137 C124 1.058 . S
C138 O127 1.260 . S
C138 O128 1.258 . S
C139 O135 1.260 . S
C139 O136 1.258 . S
Zn140 O146 1.969 . S
Zn140 O147 1.965 . S
Zn140 O151 2.024 . S
Zn140 O156 1.969 . S
Zn141 O148 1.969 . S
Zn141 O154 1.969 . S
Zn141 O155 1.965 . S
Zn141 O157 2.024 . S
C142 O143 1.229 . S
C142 O151 1.058 . S
O143 C142 1.229 . S
C144 O145 1.229 . S
C144 O157 1.058 . S
O145 C144 1.229 . S
O146 Zn140 1.969 . S
O146 C149 1.267 . S
O147 Zn140 1.965 . S
O147 C158 1.260 . S
O148 Zn141 1.969 . S
O148 C158 1.258 . S
C149 O146 1.267 . S
C149 O150 1.228 . S
O150 C149 1.228 . S
O151 Zn140 2.024 . S
O151 C142 1.058 . S
C152 O153 1.228 . S
C152 O154 1.267 . S
O153 C152 1.228 . S
O154 Zn141 1.969 . S
O154 C152 1.267 . S
O155 Zn141 1.965 . S
O155 C159 1.260 . S
O156 Zn140 1.969 . S
O156 C159 1.258 . S
O157 Zn141 2.024 . S
O157 C144 1.058 . S
C158 O147 1.260 . S
C158 O148 1.258 . S
C159 O155 1.260 . S
C159 O156 1.258 . S
Zn160 O166 1.969 . S
Zn160 O167 1.965 . S
Zn160 O171 2.024 . S
Zn160 O176 1.969 . S
Zn161 O168 1.969 . S
Zn161 O174 1.969 1_554 S
Zn161 O175 1.965 . S
Zn161 O177 2.024 1_554 S
C162 O163 1.229 . S
C162 O171 1.058 . S
O163 C162 1.229 . S
C164 O165 1.229 . S
C164 O177 1.058 . S
O165 C164 1.229 . S
O166 Zn160 1.969 . S
O166 C169 1.267 . S
O167 Zn160 1.965 . S
O167 C178 1.260 . S
O168 Zn161 1.969 . S
O168 C178 1.258 . S
C169 O166 1.267 . S
C169 O170 1.228 . S
O170 C169 1.228 . S
O171 Zn160 2.024 . S
O171 C162 1.058 . S
C172 O173 1.228 . S
C172 O174 1.267 . S
O173 C172 1.228 . S
O174 Zn161 1.969 1_556 S
O174 C172 1.267 . S
O175 Zn161 1.965 . S
O175 C179 1.260 . S
O176 Zn160 1.969 . S
O176 C179 1.258 . S
O177 Zn161 2.024 1_556 S
O177 C164 1.058 . S
C178 O167 1.260 . S
C178 O168 1.258 . S
C179 O175 1.260 . S
C179 O176 1.258 . S
Zn180 O186 1.969 . S
Zn180 O187 1.965 . S
Zn180 O191 2.024 . S
Zn180 O196 1.969 . S
Zn181 O188 1.969 . S
Zn181 O194 1.969 . S
Zn181 O195 1.965 . S
Zn181 O197 2.024 . S
C182 O183 1.229 . S
C182 O191 1.058 . S
O183 C182 1.229 . S
C184 O185 1.229 . S
C184 O197 1.058 . S
O185 C184 1.229 . S
O186 Zn180 1.969 . S
O186 C189 1.267 . S
O187 Zn180 1.965 . S
O187 C198 1.260 . S
O188 Zn181 1.969 . S
O188 C198 1.258 . S
C189 O186 1.267 . S
C189 O190 1.228 . S
O190 C189 1.228 . S
O191 Zn180 2.024 . S
O191 C182 1.058 . S
C192 O193 1.228 . S
C192 O194 1.267 . S
O193 C192 1.228 . S
O194 Zn181 1.969 . S
O194 C192 1.267 . S
O195 Zn181 1.965 . S
O195 C199 1.260 . S
O196 Zn180 1.969 . S
O196 C199 1.258 . S
O197 Zn181 2.024 . S
O197 C184 1.058 . S
C198 O187 1.260 . S
C198 O188 1.258 . S
C199 O195 1.260 . S
C199 O196 1.258 . S
Zn200 O206 1.969 . S
Zn200 O207 1.965 . S
Zn200 O211 2.024 . S
Zn200 O216 1.969 . S
Zn201 O208 1.969 . S
Zn201 O214 1.969 . S
Zn201 O215 1.965 . S
Zn201 O217 2.024 . S
C202 O203 1.229 . S
C202 O211 1.058 . S
O203 C202 1.229 . S
C204 O205 1.229 . S
C204 O217 1.058 . S
O205 C204 1.229 . S
O206 Zn200 1.969 . S
O206 C209 1.267 . S
O207 Zn200 1.965 . S
O207 C218 1.260 . S
O208 Zn201 1.969 . S
O208 C218 1.258 . S
C209 O206 1.267 . S
C209 O210 1.228 . S
O210 C209 1.228 . S
O211 Zn200 2.024 . S
O211 C202 1.058 . S
C212 O213 1.228 . S
C212 O214 1.267 . S
O213 C212 1.228 . S
O214 Zn201 1.969 . S
O214 C212 1.267 . S
O215 Zn201 1.965 . S
O215 C219 1.260 . S
O216 Zn200 1.969 . S
O216 C219 1.258 . S
O217 Zn201 2.024 . S
O217 C204 1.058 . S
C218 O207 1.260 . S
C218 O208 1.258 . S
C219 O215 1.260 . S
C219 O216 1.258 . S
Zn220 O226 1.969 . S
Zn220 O227 1.965 . S
Zn220 O231 2.024 . S
Zn220 O236 1.969 . S
Zn221 O228 1.969 . S
Zn221 O234 1.969 1_554 S
Zn221 O235 1.965 . S
Zn221 O237 2.024 1_554 S
C222 O223 1.229 . S
C222 O231 1.058 . S
O223 C222 1.229 . S
C224 O225 1.229 . S
C224 O237 1.058 . S
O225 C224 1.229 . S
O226 Zn220 1.969 . S
O226 C229 1.267 . S
O227 Zn220 1.965 . S
O227 C238 1.260 . S
O228 Zn221 1.969 . S
O228 C238 1.258 . S
C229 O226 1.267 . S
C229 O230 1.228 . S
O230 C229 1.228 . S
O231 Zn220 2.024 . S
O231 C222 1.058 . S
C232 O233 1.228 . S
C232 O234 1.267 . S
O233 C232 1.228 . S
O234 Zn221 1.969 1_556 S
O234 C232 1.267 . S
O235 Zn221 1.965 . S
O235 C239 1.260 . S
O236 Zn220 1.969 . S
O236 C239 1.258 . S
O237 Zn221 2.024 1_556 S
O237 C224 1.058 . S
C238 O227 1.260 . S
C238 O228 1.258 . S
C239 O235 1.260 . S
C239 O236 1.258 . S
H240 C248 0.950 . S
H241 C253 0.950 . S
H242 C250 0.950 . S
H243 C252 0.950 . S
H244 C254 0.950 . S
H245 C256 0.950 . S
H246 C258 0.950 . S
H247 C259 0.950 . S
C248 H240 0.950 . S
C248 C249 1.386 . S
C248 C250 1.391 . S
C249 C248 1.386 . S
C249 C253 1.393 . S
C250 H242 0.950 . S
C250 C248 1.391 . S
C250 C251 1.400 . S
C251 C250 1.400 . S
C251 C252 1.398 . S
C251 C257 1.491 . S
C252 H243 0.950 . S
C252 C251 1.398 . S
C252 C253 1.391 . S
C253 H241 0.950 . S
C253 C249 1.393 . S
C253 C252 1.391 . S
C254 H244 0.950 . S
C254 C255 1.386 . S
C254 C256 1.391 . S
C255 C254 1.386 . S
C255 C259 1.393 . S
C256 H245 0.950 . S
C256 C254 1.391 . S
C256 C257 1.400 . S
C257 C251 1.491 . S
C257 C256 1.400 . S
C257 C258 1.398 . S
C258 H246 0.950 . S
C258 C257 1.398 . S
C258 C259 1.391 . S
C259 H247 0.950 . S
C259 C255 1.393 . S
C259 C258 1.391 . S
H260 C268 0.950 . S
H261 C273 0.950 . S
H262 C270 0.950 . S
H263 C272 0.950 . S
H264 C274 0.950 . S
H265 C276 0.950 . S
H266 C278 0.950 . S
H267 C279 0.950 . S
C268 H260 0.950 . S
C268 C269 1.386 . S
C268 C270 1.391 . S
C269 C268 1.386 . S
C269 C273 1.393 . S
C270 H262 0.950 . S
C270 C268 1.391 . S
C270 C271 1.400 . S
C271 C270 1.400 . S
C271 C272 1.398 . S
C271 C277 1.491 . S
C272 H263 0.950 . S
C272 C271 1.398 . S
C272 C273 1.391 . S
C273 H261 0.950 . S
C273 C269 1.393 . S
C273 C272 1.391 . S
C274 H264 0.950 . S
C274 C275 1.386 . S
C274 C276 1.391 . S
C275 C274 1.386 . S
C275 C279 1.393 . S
C276 H265 0.950 . S
C276 C274 1.391 . S
C276 C277 1.400 . S
C277 C271 1.491 . S
C277 C276 1.400 . S
C277 C278 1.398 . S
C278 H266 0.950 . S
C278 C277 1.398 . S
C278 C279 1.391 . S
C279 H267 0.950 . S
C279 C275 1.393 . S
C279 C278 1.391 . S
H280 C288 0.950 . S
H281 C293 0.950 . S
H282 C290 0.950 . S
H283 C292 0.950 . S
H284 C294 0.950 . S
H285 C296 0.950 . S
H286 C298 0.950 . S
H287 C299 0.950 . S
C288 H280 0.950 . S
C288 C289 1.386 . S
C288 C290 1.391 . S
C289 C288 1.386 . S
C289 C293 1.393 . S
C290 H282 0.950 . S
C290 C288 1.391 . S
C290 C291 1.400 . S
C291 C290 1.400 . S
C291 C292 1.398 . S
C291 C297 1.491 . S
C292 H283 0.950 . S
C292 C291 1.398 . S
C292 C293 1.391 . S
C293 H281 0.950 . S
C293 C289 1.393 . S
C293 C292 1.391 . S
C294 H284 0.950 . S
C294 C295 1.386 . S
C294 C296 1.391 . S
C295 C294 1.386 . S
C295 C299 1.393 . S
C296 H285 0.950 . S
C296 C294 1.391 . S
C296 C297 1.400 . S
C297 C291 1.491 . S
C297 C296 1.400 . S
C297 C298 1.398 . S
C298 H286 0.950 . S
C298 C297 1.398 . S
C298 C299 1.391 . S
C299 H287 0.950 . S
C299 C295 1.393 . S
C299 C298 1.391 . S
H300 C308 0.950 . S
H301 C313 0.950 . S
H302 C310 0.950 . S
H303 C312 0.950 . S
H304 C314 0.950 . S
H305 C316 0.950 . S
H306 C318 0.950 . S
H307 C319 0.950 . S
C308 H300 0.950 . S
C308 C309 1.386 . S
C308 C310 1.391 . S
C309 C308 1.386 . S
C309 C313 1.393 . S
C310 H302 0.950 . S
C310 C308 1.391 . S
C310 C311 1.400 . S
C311 C310 1.400 . S
C311 C312 1.398 . S
C311 C317 1.491 . S
C312 H303 0.950 . S
C312 C311 1.398 . S
C312 C313 1.391 . S
C313 H301 0.950 . S
C313 C309 1.393 . S
C313 C312 1.391 . S
C314 H304 0.950 . S
C314 C315 1.386 . S
C314 C316 1.391 . S
C315 C314 1.386 . S
C315 C319 1.393 . S
C316 H305 0.950 . S
C316 C314 1.391 . S
C316 C317 1.400 . S
C317 C311 1.491 . S
C317 C316 1.400 . S
C317 C318 1.398 . S
C318 H306 0.950 . S
C318 C317 1.398 . S
C318 C319 1.391 . S
C319 H307 0.950 . S
C319 C315 1.393 . S
C319 C318 1.391 . S
H320 C328 0.950 . S
H321 C333 0.950 . S
H322 C330 0.950 . S
H323 C332 0.950 . S
H324 C334 0.950 . S
H325 C336 0.950 . S
H326 C338 0.950 . S
H327 C339 0.950 . S
C328 H320 0.950 . S
C328 C329 1.386 . S
C328 C330 1.391 . S
C329 C328 1.386 . S
C329 C333 1.393 . S
C330 H322 0.950 . S
C330 C328 1.391 . S
C330 C331 1.400 . S
C331 C330 1.400 . S
C331 C332 1.398 . S
C331 C337 1.491 . S
C332 H323 0.950 . S
C332 C331 1.398 . S
C332 C333 1.391 . S
C333 H321 0.950 . S
C333 C329 1.393 . S
C333 C332 1.391 . S
C334 H324 0.950 . S
C334 C335 1.386 . S
C334 C336 1.391 . S
C335 C334 1.386 . S
C335 C339 1.393 . S
C336 H325 0.950 . S
C336 C334 1.391 . S
C336 C337 1.400 . S
C337 C331 1.491 . S
C337 C336 1.400 . S
C337 C338 1.398 . S
C338 H326 0.950 . S
C338 C337 1.398 . S
C338 C339 1.391 . S
C339 H327 0.950 . S
C339 C335 1.393 . S
C339 C338 1.391 . S
H340 C348 0.950 . S
H341 C353 0.950 . S
H342 C350 0.950 . S
H343 C352 0.950 . S
H344 C354 0.950 . S
H345 C356 0.950 . S
H346 C358 0.950 . S
H347 C359 0.950 . S
C348 H340 0.950 . S
C348 C349 1.386 . S
C348 C350 1.391 . S
C349 C348 1.386 . S
C349 C353 1.393 . S
C350 H342 0.950 . S
C350 C348 1.391 . S
C350 C351 1.400 . S
C351 C350 1.400 . S
C351 C352 1.398 . S
C351 C357 1.491 . S
C352 H343 0.950 . S
C352 C351 1.398 . S
C352 C353 1.391 . S
C353 H341 0.950 . S
C353 C349 1.393 . S
C353 C352 1.391 . S
C354 H344 0.950 . S
C354 C355 1.386 . S
C354 C356 1.391 . S
C355 C354 1.386 . S
C355 C359 1.393 . S
C356 H345 0.950 . S
C356 C354 1.391 . S
C356 C357 1.400 . S
C357 C351 1.491 . S
C357 C356 1.400 . S
C357 C358 1.398 . S
C358 H346 0.950 . S
C358 C357 1.398 . S
C358 C359 1.391 . S
C359 H347 0.950 . S
C359 C355 1.393 . S
C359 C358 1.391 . S
H360 C368 0.950 . S
H361 C373 0.950 . S
H362 C370 0.950 . S
H363 C372 0.950 . S
H364 C374 0.950 . S
H365 C376 0.950 . S
H366 C378 0.950 . S
H367 C379 0.950 . S
C368 H360 0.950 . S
C368 C369 1.386 . S
C368 C370 1.391 . S
C369 C368 1.386 . S
C369 C373 1.393 . S
C370 H362 0.950 . S
C370 C368 1.391 . S
C370 C371 1.400 . S
C371 C370 1.400 . S
C371 C372 1.398 . S
C371 C377 1.491 1_556 S
C372 H363 0.950 . S
C372 C371 1.398 . S
C372 C373 1.391 . S
C373 H361 0.950 . S
C373 C369 1.393 . S
C373 C372 1.391 . S
C374 H364 0.950 . S
C374 C375 1.386 . S
C374 C376 1.391 . S
C375 C374 1.386 . S
C375 C379 1.393 . S
C376 H365 0.950 . S
C376 C374 1.391 . S
C376 C377 1.400 . S
C377 C371 1.491 1_554 S
C377 C376 1.400 . S
C377 C378 1.398 . S
C378 H366 0.950 . S
C378 C377 1.398 . S
C378 C379 1.391 . S
C379 H367 0.950 . S
C379 C375 1.393 . S
C379 C378 1.391 . S
H380 C388 0.950 . S
H381 C393 0.950 . S
H382 C390 0.950 . S
H383 C392 0.950 . S
H384 C394 0.950 . S
H385 C396 0.950 . S
H386 C398 0.950 . S
H387 C399 0.950 . S
C388 H380 0.950 . S
C388 C389 1.386 . S
C388 C390 1.391 . S
C389 C388 1.386 . S
C389 C393 1.393 . S
C390 H382 0.950 . S
C390 C388 1.391 . S
C390 C391 1.400 . S
C391 C390 1.400 . S
C391 C392 1.398 . S
C391 C397 1.491 . S
C392 H383 0.950 . S
C392 C391 1.398 . S
C392 C393 1.391 . S
C393 H381 0.950 . S
C393 C389 1.393 . S
C393 C392 1.391 . S
C394 H384 0.950 . S
C394 C395 1.386 . S
C394 C396 1.391 . S
C395 C394 1.386 . S
C395 C399 1.393 . S
C396 H385 0.950 . S
C396 C394 1.391 . S
C396 C397 1.400 . S
C397 C391 1.491 . S
C397 C396 1.400 . S
C397 C398 1.398 . S
C398 H386 0.950 . S
C398 C397 1.398 . S
C398 C399 1.391 . S
C399 H387 0.950 . S
C399 C395 1.393 . S
C399 C398 1.391 . S
H400 C408 0.950 . S
H401 C413 0.950 . S
H402 C410 0.950 . S
H403 C412 0.950 . S
H404 C414 0.950 . S
H405 C416 0.950 . S
H406 C418 0.950 . S
H407 C419 0.950 . S
C408 H400 0.950 . S
C408 C409 1.386 . S
C408 C410 1.391 . S
C409 C408 1.386 . S
C409 C413 1.393 . S
C410 H402 0.950 . S
C410 C408 1.391 . S
C410 C411 1.400 . S
C411 C410 1.400 . S
C411 C412 1.398 . S
C411 C417 1.491 . S
C412 H403 0.950 . S
C412 C411 1.398 . S
C412 C413 1.391 . S
C413 H401 0.950 . S
C413 C409 1.393 . S
C413 C412 1.391 . S
C414 H404 0.950 . S
C414 C415 1.386 . S
C414 C416 1.391 . S
C415 C414 1.386 . S
C415 C419 1.393 . S
C416 H405 0.950 . S
C416 C414 1.391 . S
C416 C417 1.400 . S
C417 C411 1.491 . S
C417 C416 1.400 . S
C417 C418 1.398 . S
C418 H406 0.950 . S
C418 C417 1.398 . S
C418 C419 1.391 . S
C419 H407 0.950 . S
C419 C415 1.393 . S
C419 C418 1.391 . S
H420 C428 0.950 . S
H421 C433 0.950 . S
H422 C430 0.950 . S
H423 C432 0.950 . S
H424 C434 0.950 . S
H425 C436 0.950 . S
H426 C438 0.950 . S
H427 C439 0.950 . S
C428 H420 0.950 . S
C428 C429 1.386 . S
C428 C430 1.391 . S
C429 C428 1.386 . S
C429 C433 1.393 . S
C430 H422 0.950 . S
C430 C428 1.391 . S
C430 C431 1.400 . S
C431 C430 1.400 . S
C431 C432 1.398 . S
C431 C437 1.491 1_556 S
C432 H423 0.950 . S
C432 C431 1.398 . S
C432 C433 1.391 . S
C433 H421 0.950 . S
C433 C429 1.393 . S
C433 C432 1.391 . S
C434 H424 0.950 . S
C434 C435 1.386 . S
C434 C436 1.391 . S
C435 C434 1.386 . S
C435 C439 1.393 . S
C436 H425 0.950 . S
C436 C434 1.391 . S
C436 C437 1.400 . S
C437 C431 1.491 1_554 S
C437 C436 1.400 . S
C437 C438 1.398 . S
C438 H426 0.950 . S
C438 C437 1.398 . S
C438 C439 1.391 . S
C439 H427 0.950 . S
C439 C435 1.393 . S
C439 C438 1.391 . S
H440 C448 0.950 . S
H441 C453 0.950 . S
H442 C450 0.950 . S
H443 C452 0.950 . S
H444 C454 0.950 . S
H445 C456 0.950 . S
H446 C458 0.950 . S
H447 C459 0.950 . S
C448 H440 0.950 . S
C448 C449 1.386 . S
C448 C450 1.391 . S
C449 C448 1.386 . S
C449 C453 1.393 . S
C450 H442 0.950 . S
C450 C448 1.391 . S
C450 C451 1.400 . S
C451 C450 1.400 . S
C451 C452 1.398 . S
C451 C457 1.491 . S
C452 H443 0.950 . S
C452 C451 1.398 . S
C452 C453 1.391 . S
C453 H441 0.950 . S
C453 C449 1.393 . S
C453 C452 1.391 . S
C454 H444 0.950 . S
C454 C455 1.386 . S
C454 C456 1.391 . S
C455 C454 1.386 . S
C455 C459 1.393 . S
C456 H445 0.950 . S
C456 C454 1.391 . S
C456 C457 1.400 . S
C457 C451 1.491 . S
C457 C456 1.400 . S
C457 C458 1.398 . S
C458 H446 0.950 . S
C458 C457 1.398 . S
C458 C459 1.391 . S
C459 H447 0.950 . S
C459 C455 1.393 . S
C459 C458 1.391 . S
H460 C468 0.950 . S
H461 C473 0.950 . S
H462 C470 0.950 . S
H463 C472 0.950 . S
H464 C474 0.950 . S
H465 C476 0.950 . S
H466 C478 0.950 . S
H467 C479 0.950 . S
C468 H460 0.950 . S
C468 C469 1.386 . S
C468 C470 1.391 . S
C469 C468 1.386 . S
C469 C473 1.393 . S
C470 H462 0.950 . S
C470 C468 1.391 . S
C470 C471 1.400 . S
C471 C470 1.400 . S
C471 C472 1.398 . S
C471 C477 1.491 . S
C472 H463 0.950 . S
C472 C471 1.398 . S
C472 C473 1.391 . S
C473 H461 0.950 . S
C473 C469 1.393 . S
C473 C472 1.391 . S
C474 H464 0.950 . S
C474 C475 1.386 . S
C474 C476 1.391 . S
C475 C474 1.386 . S
C475 C479 1.393 . S
C476 H465 0.950 . S
C476 C474 1.391 . S
C476 C477 1.400 . S
C477 C471 1.491 . S
C477 C476 1.400 . S
C477 C478 1.398 . S
C478 H466 0.950 . S
C478 C477 1.398 . S
C478 C479 1.391 . S
C479 H467 0.950 . S
C479 C475 1.393 . S
C479 C478 1.391 . S
H480 C488 0.950 . S
H481 C493 0.950 . S
H482 C490 0.950 1_545 S
H483 C492 0.950 . S
H484 C494 0.950 . S
H485 C496 0.950 1_565 S
H486 C498 0.950 . S
H487 C499 0.950 . S
C488 H480 0.950 . S
C488 C489 1.386 . S
C488 C490 1.391 . S
C489 C488 1.386 . S
C489 C493 1.393 . S
C490 H482 0.950 1_565 S
C490 C488 1.391 . S
C490 C491 1.400 . S
C491 C490 1.400 . S
C491 C492 1.398 . S
C491 C497 1.491 1_566 S
C492 H483 0.950 . S
C492 C491 1.398 . S
C492 C493 1.391 . S
C493 H481 0.950 . S
C493 C489 1.393 . S
C493 C492 1.391 . S
C494 H484 0.950 . S
C494 C495 1.386 . S
C494 C496 1.391 . S
C495 C494 1.386 . S
C495 C499 1.393 . S
C496 H485 0.950 1_545 S
C496 C494 1.391 . S
C496 C497 1.400 . S
C497 C491 1.491 1_544 S
C497 C496 1.400 . S
C497 C498 1.398 . S
C498 H486 0.950 . S
C498 C497 1.398 . S
C498 C499 1.391 . S
C499 H487 0.950 . S
C499 C495 1.393 . S
C499 C498 1.391 . S
H500 C508 0.950 . S
H501 C513 0.950 . S
H502 C510 0.950 . S
H503 C512 0.950 . S
H504 C514 0.950 . S
H505 C516 0.950 . S
H506 C518 0.950 . S
H507 C519 0.950 . S
C508 H500 0.950 . S
C508 C509 1.386 . S
C508 C510 1.391 . S
C509 C508 1.386 . S
C509 C513 1.393 . S
C510 H502 0.950 . S
C510 C508 1.391 . S
C510 C511 1.400 . S
C511 C510 1.400 . S
C511 C512 1.398 . S
C511 C517 1.491 . S
C512 H503 0.950 . S
C512 C511 1.398 . S
C512 C513 1.391 . S
C513 H501 0.950 . S
C513 C509 1.393 . S
C513 C512 1.391 . S
C514 H504 0.950 . S
C514 C515 1.386 . S
C514 C516 1.391 . S
C515 C514 1.386 . S
C515 C519 1.393 . S
C516 H505 0.950 . S
C516 C514 1.391 . S
C516 C517 1.400 . S
C517 C511 1.491 . S
C517 C516 1.400 . S
C517 C518 1.398 . S
C518 H506 0.950 . S
C518 C517 1.398 . S
C518 C519 1.391 . S
C519 H507 0.950 . S
C519 C515 1.393 . S
C519 C518 1.391 . S
H520 C528 0.950 . S
H521 C533 0.950 . S
H522 C530 0.952 1_655 S
H523 C532 0.950 . S
H524 C534 0.950 . S
H525 C536 0.952 1_455 S
H526 C538 0.950 . S
H527 C539 0.950 . S
C528 H520 0.950 . S
C528 C529 1.386 . S
C528 C530 1.389 . S
C529 C528 1.386 . S
C529 C533 1.393 . S
C530 H522 0.952 1_455 S
C530 C528 1.389 . S
C530 C531 1.400 . S
C531 C530 1.400 . S
C531 C532 1.398 . S
C531 C537 1.491 1_455 S
C532 H523 0.950 . S
C532 C531 1.398 . S
C532 C533 1.391 . S
C533 H521 0.950 . S
C533 C529 1.393 . S
C533 C532 1.391 . S
C534 H524 0.950 . S
C534 C535 1.386 . S
C534 C536 1.389 . S
C535 C534 1.386 . S
C535 C539 1.393 . S
C536 H525 0.952 1_655 S
C536 C534 1.389 . S
C536 C537 1.400 . S
C537 C531 1.491 1_655 S
C537 C536 1.400 . S
C537 C538 1.398 . S
C538 H526 0.950 . S
C538 C537 1.398 . S
C538 C539 1.391 . S
C539 H527 0.950 . S
C539 C535 1.393 . S
C539 C538 1.391 . S
H540 C548 0.950 . S
H541 C553 0.950 . S
H542 C550 0.950 . S
H543 C552 0.950 1_545 S
H544 C554 0.950 . S
H545 C556 0.950 . S
H546 C558 0.950 1_565 S
H547 C559 0.950 . S
C548 H540 0.950 . S
C548 C549 1.386 . S
C548 C550 1.391 . S
C549 C548 1.386 . S
C549 C553 1.393 . S
C550 H542 0.950 . S
C550 C548 1.391 . S
C550 C551 1.400 . S
C551 C550 1.400 . S
C551 C552 1.398 . S
C551 C557 1.491 1_564 S
C552 H543 0.950 1_565 S
C552 C551 1.398 . S
C552 C553 1.391 . S
C553 H541 0.950 . S
C553 C549 1.393 . S
C553 C552 1.391 . S
C554 H544 0.950 . S
C554 C555 1.386 . S
C554 C556 1.391 . S
C555 C554 1.386 . S
C555 C559 1.393 . S
C556 H545 0.950 . S
C556 C554 1.391 . S
C556 C557 1.400 . S
C557 C551 1.491 1_546 S
C557 C556 1.400 . S
C557 C558 1.398 . S
C558 H546 0.950 1_545 S
C558 C557 1.398 . S
C558 C559 1.391 . S
C559 H547 0.950 . S
C559 C555 1.393 . S
C559 C558 1.391 . S
H560 C568 0.950 . S
H561 C573 0.950 . S
H562 C570 0.950 . S
H563 C572 0.950 . S
H564 C574 0.950 . S
H565 C576 0.950 . S
H566 C578 0.950 . S
H567 C579 0.950 . S
C568 H560 0.950 . S
C568 C569 1.386 . S
C568 C570 1.391 . S
C569 C568 1.386 . S
C569 C573 1.393 . S
C570 H562 0.950 . S
C570 C568 1.391 . S
C570 C571 1.400 . S
C571 C570 1.400 . S
C571 C572 1.398 . S
C571 C577 1.491 . S
C572 H563 0.950 . S
C572 C571 1.398 . S
C572 C573 1.391 . S
C573 H561 0.950 . S
C573 C569 1.393 . S
C573 C572 1.391 . S
C574 H564 0.950 . S
C574 C575 1.386 . S
C574 C576 1.391 . S
C575 C574 1.386 . S
C575 C579 1.393 . S
C576 H565 0.950 . S
C576 C574 1.391 . S
C576 C577 1.400 . S
C577 C571 1.491 . S
C577 C576 1.400 . S
C577 C578 1.398 . S
C578 H566 0.950 . S
C578 C577 1.398 . S
C578 C579 1.391 . S
C579 H567 0.950 . S
C579 C575 1.393 . S
C579 C578 1.391 . S
H580 C588 0.950 . S
H581 C593 0.950 . S
H582 C590 0.950 . S
H583 C592 0.950 . S
H584 C594 0.950 . S
H585 C596 0.950 . S
H586 C598 0.950 . S
H587 C599 0.950 . S
C588 H580 0.950 . S
C588 C589 1.386 . S
C588 C590 1.391 1_455 S
C589 C588 1.386 . S
C589 C593 1.393 . S
C590 H582 0.950 . S
C590 C588 1.391 1_655 S
C590 C591 1.400 1_655 S
C591 C590 1.400 1_455 S
C591 C592 1.398 . S
C591 C597 1.491 1_455 S
C592 H583 0.950 . S
C592 C591 1.398 . S
C592 C593 1.391 . S
C593 H581 0.950 . S
C593 C589 1.393 . S
C593 C592 1.391 . S
C594 H584 0.950 . S
C594 C595 1.386 . S
C594 C596 1.391 1_655 S
C595 C594 1.386 . S
C595 C599 1.393 . S
C596 H585 0.950 . S
C596 C594 1.391 1_455 S
C596 C597 1.400 1_455 S
C597 C591 1.491 1_655 S
C597 C596 1.400 1_655 S
C597 C598 1.398 . S
C598 H586 0.950 . S
C598 C597 1.398 . S
C598 C599 1.391 . S
C599 H587 0.950 . S
C599 C595 1.393 . S
C599 C598 1.391 . S
H600 C608 0.950 . S
H601 C613 0.950 . S
H602 C610 0.950 . S
H603 C612 0.950 1_565 S
H604 C614 0.950 . S
H605 C616 0.950 . S
H606 C618 0.950 1_545 S
H607 C619 0.950 . S
C608 H600 0.950 . S
C608 C609 1.386 . S
C608 C610 1.391 . S
C609 C608 1.386 . S
C609 C613 1.393 . S
C610 H602 0.950 . S
C610 C608 1.391 . S
C610 C611 1.400 . S
C611 C610 1.400 . S
C611 C612 1.398 . S
C611 C617 1.491 1_545 S
C612 H603 0.950 1_545 S
C612 C611 1.398 . S
C612 C613 1.391 . S
C613 H601 0.950 . S
C613 C609 1.393 . S
C613 C612 1.391 . S
C614 H604 0.950 . S
C614 C615 1.386 . S
C614 C616 1.391 . S
C615 C614 1.386 . S
C615 C619 1.393 . S
C616 H605 0.950 . S
C616 C614 1.391 . S
C616 C617 1.400 . S
C617 C611 1.491 1_565 S
C617 C616 1.400 . S
C617 C618 1.398 . S
C618 H606 0.950 1_565 S
C618 C617 1.398 . S
C618 C619 1.391 . S
C619 H607 0.950 . S
C619 C615 1.393 . S
C619 C618 1.391 . S
H620 C628 0.950 . S
H621 C633 0.950 . S
H622 C630 0.950 . S
H623 C632 0.950 . S
H624 C634 0.950 . S
H625 C636 0.950 . S
H626 C638 0.950 . S
H627 C639 0.950 . S
C628 H620 0.950 . S
C628 C629 1.386 . S
C628 C630 1.391 . S
C629 C628 1.386 . S
C629 C633 1.393 . S
C630 H622 0.950 . S
C630 C628 1.391 . S
C630 C631 1.400 . S
C631 C630 1.400 . S
C631 C632 1.398 . S
C631 C637 1.491 . S
C632 H623 0.950 . S
C632 C631 1.398 . S
C632 C633 1.391 . S
C633 H621 0.950 . S
C633 C629 1.393 . S
C633 C632 1.391 . S
C634 H624 0.950 . S
C634 C635 1.386 . S
C634 C636 1.391 . S
C635 C634 1.386 . S
C635 C639 1.393 . S
C636 H625 0.950 . S
C636 C634 1.391 . S
C636 C637 1.400 . S
C637 C631 1.491 . S
C637 C636 1.400 . S
C637 C638 1.398 . S
C638 H626 0.950 . S
C638 C637 1.398 . S
C638 C639 1.391 . S
C639 H627 0.950 . S
C639 C635 1.393 . S
C639 C638 1.391 . S
H640 C648 0.950 . S
H641 C653 0.950 . S
H642 C650 0.950 1_455 S
H643 C652 0.950 . S
H644 C654 0.950 . S
H645 C656 0.950 1_655 S
H646 C658 0.950 . S
H647 C659 0.950 . S
C648 H640 0.950 . S
C648 C649 1.386 . S
C648 C650 1.391 . S
C649 C648 1.386 . S
C649 C653 1.393 . S
C650 H642 0.950 1_655 S
C650 C648 1.391 . S
C650 C651 1.400 . S
C651 C650 1.400 . S
C651 C652 1.398 . S
C651 C657 1.491 1_655 S
C652 H643 0.950 . S
C652 C651 1.398 . S
C652 C653 1.391 . S
C653 H641 0.950 . S
C653 C649 1.393 . S
C653 C652 1.391 . S
C654 H644 0.950 . S
C654 C655 1.386 . S
C654 C656 1.391 . S
C655 C654 1.386 . S
C655 C659 1.393 . S
C656 H645 0.950 1_455 S
C656 C654 1.391 . S
C656 C657 1.400 . S
C657 C651 1.491 1_455 S
C657 C656 1.400 . S
C657 C658 1.398 . S
C658 H646 0.950 . S
C658 C657 1.398 . S
C658 C659 1.391 . S
C659 H647 0.950 . S
C659 C655 1.393 . S
C659 C658 1.391 . S
H660 C668 0.950 . S
H661 C673 0.950 . S
H662 C670 0.950 1_655 S
H663 C672 0.950 . S
H664 C674 0.950 . S
H665 C676 0.950 1_455 S
H666 C678 0.950 . S
H667 C679 0.950 . S
C668 H660 0.950 . S
C668 C669 1.386 . S
C668 C670 1.391 . S
C669 C668 1.386 . S
C669 C673 1.393 . S
C670 H662 0.950 1_455 S
C670 C668 1.391 . S
C670 C671 1.400 . S
C671 C670 1.400 . S
C671 C672 1.398 . S
C671 C677 1.491 1_455 S
C672 H663 0.950 . S
C672 C671 1.398 . S
C672 C673 1.391 . S
C673 H661 0.950 . S
C673 C669 1.393 . S
C673 C672 1.391 . S
C674 H664 0.950 . S
C674 C675 1.386 . S
C674 C676 1.391 . S
C675 C674 1.386 . S
C675 C679 1.393 . S
C676 H665 0.950 1_655 S
C676 C674 1.391 . S
C676 C677 1.400 . S
C677 C671 1.491 1_655 S
C677 C676 1.400 . S
C677 C678 1.398 . S
C678 H666 0.950 . S
C678 C677 1.398 . S
C678 C679 1.391 . S
C679 H667 0.950 . S
C679 C675 1.393 . S
C679 C678 1.391 . S
H680 C688 0.950 . S
H681 C693 0.950 . S
H682 C690 0.950 . S
H683 C692 0.950 1_545 S
H684 C694 0.950 . S
H685 C696 0.950 . S
H686 C698 0.950 1_565 S
H687 C699 0.950 . S
C688 H680 0.950 . S
C688 C689 1.386 . S
C688 C690 1.391 . S
C689 C688 1.386 . S
C689 C693 1.393 . S
C690 H682 0.950 . S
C690 C688 1.391 . S
C690 C691 1.400 . S
C691 C690 1.400 . S
C691 C692 1.398 . S
C691 C697 1.491 1_565 S
C692 H683 0.950 1_565 S
C692 C691 1.398 . S
C692 C693 1.391 . S
C693 H681 0.950 . S
C693 C689 1.393 . S
C693 C692 1.391 . S
C694 H684 0.950 . S
C694 C695 1.386 . S
C694 C696 1.391 . S
C695 C694 1.386 . S
C695 C699 1.393 . S
C696 H685 0.950 . S
C696 C694 1.391 . S
C696 C697 1.400 . S
C697 C691 1.491 1_545 S
C697 C696 1.400 . S
C697 C698 1.398 . S
C698 H686 0.950 1_545 S
C698 C697 1.398 . S
C698 C699 1.391 . S
C699 H687 0.950 . S
C699 C695 1.393 . S
C699 C698 1.391 . S
H700 C708 0.950 . S
H701 C713 0.950 . S
H702 C710 0.950 . S
H703 C712 0.950 . S
H704 C714 0.950 . S
H705 C716 0.950 . S
H706 C718 0.950 . S
H707 C719 0.950 . S
C708 H700 0.950 . S
C708 C709 1.386 . S
C708 C710 1.391 . S
C709 C708 1.386 . S
C709 C713 1.393 . S
C710 H702 0.950 . S
C710 C708 1.391 . S
C710 C711 1.400 . S
C711 C710 1.400 . S
C711 C712 1.398 . S
C711 C717 1.491 . S
C712 H703 0.950 . S
C712 C711 1.398 . S
C712 C713 1.391 . S
C713 H701 0.950 . S
C713 C709 1.393 . S
C713 C712 1.391 . S
C714 H704 0.950 . S
C714 C715 1.386 . S
C714 C716 1.391 . S
C715 C714 1.386 . S
C715 C719 1.393 . S
C716 H705 0.950 . S
C716 C714 1.391 . S
C716 C717 1.400 . S
C717 C711 1.491 . S
C717 C716 1.400 . S
C717 C718 1.398 . S
C718 H706 0.950 . S
C718 C717 1.398 . S
C718 C719 1.391 . S
C719 H707 0.950 . S
C719 C715 1.393 . S
C719 C718 1.391 . S
H720 C728 0.950 . S
H721 C733 0.950 . S
H722 C730 0.950 . S
H723 C732 0.950 . S
H724 C734 0.950 . S
H725 C736 0.950 . S
H726 C738 0.950 . S
H727 C739 0.950 . S
C728 H720 0.950 . S
C728 C729 1.386 . S
C728 C730 1.391 . S
C729 C728 1.386 . S
C729 C733 1.393 . S
C730 H722 0.950 . S
C730 C728 1.391 . S
C730 C731 1.400 . S
C731 C730 1.400 . S
C731 C732 1.398 1_565 S
C731 C737 1.491 1_565 S
C732 H723 0.950 . S
C732 C731 1.398 1_545 S
C732 C733 1.391 1_545 S
C733 H721 0.950 . S
C733 C729 1.393 . S
C733 C732 1.391 1_565 S
C734 H724 0.950 . S
C734 C735 1.386 . S
C734 C736 1.391 . S
C735 C734 1.386 . S
C735 C739 1.393 . S
C736 H725 0.950 . S
C736 C734 1.391 . S
C736 C737 1.400 . S
C737 C731 1.491 1_545 S
C737 C736 1.400 . S
C737 C738 1.398 1_545 S
C738 H726 0.950 . S
C738 C737 1.398 1_565 S
C738 C739 1.391 1_565 S
C739 H727 0.950 . S
C739 C735 1.393 . S
C739 C738 1.391 1_545 S
H740 C748 0.950 . S
H741 C753 0.950 . S
H742 C750 0.950 . S
H743 C752 0.950 . S
H744 C754 0.950 . S
H745 C756 0.950 . S
H746 C758 0.950 . S
H747 C759 0.950 . S
C748 H740 0.950 . S
C748 C749 1.386 . S
C748 C750 1.391 . S
C749 C748 1.386 . S
C749 C753 1.393 . S
C750 H742 0.950 . S
C750 C748 1.391 . S
C750 C751 1.400 . S
C751 C750 1.400 . S
C751 C752 1.398 . S
C751 C757 1.491 . S
C752 H743 0.950 . S
C752 C751 1.398 . S
C752 C753 1.391 . S
C753 H741 0.950 . S
C753 C749 1.393 . S
C753 C752 1.391 . S
C754 H744 0.950 . S
C754 C755 1.386 . S
C754 C756 1.391 . S
C755 C754 1.386 . S
C755 C759 1.393 . S
C756 H745 0.950 . S
C756 C754 1.391 . S
C756 C757 1.400 . S
C757 C751 1.491 . S
C757 C756 1.400 . S
C757 C758 1.398 . S
C758 H746 0.950 . S
C758 C757 1.398 . S
C758 C759 1.391 . S
C759 H747 0.950 . S
C759 C755 1.393 . S
C759 C758 1.391 . S
H760 C768 0.950 . S
H761 C773 0.950 . S
H762 C770 0.950 . S
H763 C772 0.950 . S
H764 C774 0.950 . S
H765 C776 0.950 . S
H766 C778 0.950 . S
H767 C779 0.950 . S
C768 H760 0.950 . S
C768 C769 1.386 . S
C768 C770 1.391 . S
C769 C768 1.386 . S
C769 C773 1.393 . S
C770 H762 0.950 . S
C770 C768 1.391 . S
C770 C771 1.400 . S
C771 C770 1.400 . S
C771 C772 1.398 . S
C771 C777 1.491 1_655 S
C772 H763 0.950 . S
C772 C771 1.398 . S
C772 C773 1.391 . S
C773 H761 0.950 . S
C773 C769 1.393 . S
C773 C772 1.391 . S
C774 H764 0.950 . S
C774 C775 1.386 . S
C774 C776 1.391 . S
C775 C774 1.386 . S
C775 C779 1.393 . S
C776 H765 0.950 . S
C776 C774 1.391 . S
C776 C777 1.400 . S
C777 C771 1.491 1_455 S
C777 C776 1.400 . S
C777 C778 1.398 . S
C778 H766 0.950 . S
C778 C777 1.398 . S
C778 C779 1.391 . S
C779 H767 0.950 . S
C779 C775 1.393 . S
C779 C778 1.391 . S
H780 C788 0.950 . S
H781 C793 0.950 . S
H782 C790 0.950 . S
H783 C792 0.950 . S
H784 C794 0.950 . S
H785 C796 0.950 . S
H786 C798 0.950 . S
H787 C799 0.950 . S
C788 H780 0.950 . S
C788 C789 1.386 . S
C788 C790 1.391 . S
C789 C788 1.386 . S
C789 C793 1.393 . S
C790 H782 0.950 . S
C790 C788 1.391 . S
C790 C791 1.400 . S
C791 C790 1.400 . S
C791 C792 1.398 . S
C791 C797 1.491 1_545 S
C792 H783 0.950 . S
C792 C791 1.398 . S
C792 C793 1.391 . S
C793 H781 0.950 . S
C793 C789 1.393 . S
C793 C792 1.391 . S
C794 H784 0.950 . S
C794 C795 1.386 . S
C794 C796 1.391 . S
C795 C794 1.386 . S
C795 C799 1.393 . S
C796 H785 0.950 . S
C796 C794 1.391 . S
C796 C797 1.400 . S
C797 C791 1.491 1_565 S
C797 C796 1.400 . S
C797 C798 1.398 . S
C798 H786 0.950 . S
C798 C797 1.398 . S
C798 C799 1.391 . S
C799 H787 0.950 . S
C799 C795 1.393 . S
C799 C798 1.391 . S
H800 C808 0.950 . S
H801 C813 0.950 . S
H802 C810 0.950 . S
H803 C812 0.950 . S
H804 C814 0.950 . S
H805 C816 0.950 . S
H806 C818 0.950 . S
H807 C819 0.950 . S
C808 H800 0.950 . S
C808 C809 1.386 . S
C808 C810 1.391 . S
C809 C808 1.386 . S
C809 C813 1.393 . S
C810 H802 0.950 . S
C810 C808 1.391 . S
C810 C811 1.400 . S
C811 C810 1.400 . S
C811 C812 1.398 . S
C811 C817 1.491 . S
C812 H803 0.950 . S
C812 C811 1.398 . S
C812 C813 1.391 . S
C813 H801 0.950 . S
C813 C809 1.393 . S
C813 C812 1.391 . S
C814 H804 0.950 . S
C814 C815 1.386 . S
C814 C816 1.391 . S
C815 C814 1.386 . S
C815 C819 1.393 . S
C816 H805 0.950 . S
C816 C814 1.391 . S
C816 C817 1.400 . S
C817 C811 1.491 . S
C817 C816 1.400 . S
C817 C818 1.398 . S
C818 H806 0.950 . S
C818 C817 1.398 . S
C818 C819 1.391 . S
C819 H807 0.950 . S
C819 C815 1.393 . S
C819 C818 1.391 . S
H820 C828 0.950 . S
H821 C833 0.950 . S
H822 C830 0.936 1_655 S
H823 C832 0.950 . S
H824 C834 0.950 . S
H825 C836 0.936 1_455 S
H826 C838 0.950 . S
H827 C839 0.950 . S
C828 H820 0.950 . S
C828 C829 1.386 . S
C828 C830 1.405 . S
C829 C828 1.386 . S
C829 C833 1.393 . S
C830 H822 0.936 1_455 S
C830 C828 1.405 . S
C830 C831 1.401 . S
C831 C830 1.401 . S
C831 C832 1.398 . S
C831 C837 1.491 1_455 S
C832 H823 0.950 . S
C832 C831 1.398 . S
C832 C833 1.391 . S
C833 H821 0.950 . S
C833 C829 1.393 . S
C833 C832 1.391 . S
C834 H824 0.950 . S
C834 C835 1.386 . S
C834 C836 1.405 . S
C835 C834 1.386 . S
C835 C839 1.393 . S
C836 H825 0.936 1_655 S
C836 C834 1.405 . S
C836 C837 1.401 . S
C837 C831 1.491 1_655 S
C837 C836 1.401 . S
C837 C838 1.398 . S
C838 H826 0.950 . S
C838 C837 1.398 . S
C838 C839 1.391 . S
C839 H827 0.950 . S
C839 C835 1.393 . S
C839 C838 1.391 . S
H840 C848 0.950 . S
H841 C853 0.950 . S
H842 C850 0.950 . S
H843 C852 0.950 . S
H844 C854 0.950 . S
H845 C856 0.950 . S
H846 C858 0.950 . S
H847 C859 0.950 . S
C848 H840 0.950 . S
C848 C849 1.386 . S
C848 C850 1.391 . S
C849 C848 1.386 . S
C849 C853 1.393 . S
C850 H842 0.950 . S
C850 C848 1.391 . S
C850 C851 1.400 . S
C851 C850 1.400 . S
C851 C852 1.398 . S
C851 C857 1.491 . S
C852 H843 0.950 . S
C852 C851 1.398 . S
C852 C853 1.391 . S
C853 H841 0.950 . S
C853 C849 1.393 . S
C853 C852 1.391 . S
C854 H844 0.950 . S
C854 C855 1.386 . S
C854 C856 1.391 . S
C855 C854 1.386 . S
C855 C859 1.393 . S
C856 H845 0.950 . S
C856 C854 1.391 . S
C856 C857 1.400 . S
C857 C851 1.491 . S
C857 C856 1.400 . S
C857 C858 1.398 . S
C858 H846 0.950 . S
C858 C857 1.398 . S
C858 C859 1.391 . S
C859 H847 0.950 . S
C859 C855 1.393 . S
C859 C858 1.391 . S
H860 C868 0.950 . S
H861 C873 0.950 . S
H862 C870 0.950 . S
H863 C872 0.950 . S
H864 C874 0.950 . S
H865 C876 0.950 . S
H866 C878 0.950 . S
H867 C879 0.950 . S
C868 H860 0.950 . S
C868 C869 1.386 . S
C868 C870 1.391 . S
C869 C868 1.386 . S
C869 C873 1.393 . S
C870 H862 0.950 . S
C870 C868 1.391 . S
C870 C871 1.400 . S
C871 C870 1.400 . S
C871 C872 1.398 . S
C871 C877 1.491 . S
C872 H863 0.950 . S
C872 C871 1.398 . S
C872 C873 1.391 . S
C873 H861 0.950 . S
C873 C869 1.393 . S
C873 C872 1.391 . S
C874 H864 0.950 . S
C874 C875 1.386 . S
C874 C876 1.391 . S
C875 C874 1.386 . S
C875 C879 1.393 . S
C876 H865 0.950 . S
C876 C874 1.391 . S
C876 C877 1.400 . S
C877 C871 1.491 . S
C877 C876 1.400 . S
C877 C878 1.398 . S
C878 H866 0.950 . S
C878 C877 1.398 . S
C878 C879 1.391 . S
C879 H867 0.950 . S
C879 C875 1.393 . S
C879 C878 1.391 . S
H880 C888 0.950 . S
H881 C893 0.950 . S
H882 C890 0.950 . S
H883 C892 0.950 . S
H884 C894 0.950 . S
H885 C896 0.950 . S
H886 C898 0.950 . S
H887 C899 0.950 . S
C888 H880 0.950 . S
C888 C889 1.386 . S
C888 C890 1.391 . S
C889 C888 1.386 . S
C889 C893 1.393 . S
C890 H882 0.950 . S
C890 C888 1.391 . S
C890 C891 1.400 . S
C891 C890 1.400 . S
C891 C892 1.398 . S
C891 C897 1.491 . S
C892 H883 0.950 . S
C892 C891 1.398 . S
C892 C893 1.391 . S
C893 H881 0.950 . S
C893 C889 1.393 . S
C893 C892 1.391 . S
C894 H884 0.950 . S
C894 C895 1.386 . S
C894 C896 1.391 . S
C895 C894 1.386 . S
C895 C899 1.393 . S
C896 H885 0.950 . S
C896 C894 1.391 . S
C896 C897 1.400 . S
C897 C891 1.491 . S
C897 C896 1.400 . S
C897 C898 1.398 . S
C898 H886 0.950 . S
C898 C897 1.398 . S
C898 C899 1.391 . S
C899 H887 0.950 . S
C899 C895 1.393 . S
C899 C898 1.391 . S
H900 C908 0.950 . S
H901 C913 0.950 . S
H902 C910 0.950 . S
H903 C912 0.950 . S
H904 C914 0.950 . S
H905 C916 0.950 . S
H906 C918 0.950 . S
H907 C919 0.950 . S
C908 H900 0.950 . S
C908 C909 1.386 . S
C908 C910 1.391 . S
C909 C908 1.386 . S
C909 C913 1.393 . S
C910 H902 0.950 . S
C910 C908 1.391 . S
C910 C911 1.400 . S
C911 C910 1.400 . S
C911 C912 1.398 . S
C911 C917 1.491 . S
C912 H903 0.950 . S
C912 C911 1.398 . S
C912 C913 1.391 . S
C913 H901 0.950 . S
C913 C909 1.393 . S
C913 C912 1.391 . S
C914 H904 0.950 . S
C914 C915 1.386 . S
C914 C916 1.391 . S
C915 C914 1.386 . S
C915 C919 1.393 . S
C916 H905 0.950 . S
C916 C914 1.391 . S
C916 C917 1.400 . S
C917 C911 1.491 . S
C917 C916 1.400 . S
C917 C918 1.398 . S
C918 H906 0.950 . S
C918 C917 1.398 . S
C918 C919 1.391 . S
C919 H907 0.950 . S
C919 C915 1.393 . S
C919 C918 1.391 . S
H920 C928 0.950 . S
H921 C933 0.950 . S
H922 C930 0.950 . S
H923 C932 0.950 . S
H924 C934 0.950 . S
H925 C936 0.950 . S
H926 C938 0.950 . S
H927 C939 0.950 . S
C928 H920 0.950 . S
C928 C929 1.386 . S
C928 C930 1.391 . S
C929 C928 1.386 . S
C929 C933 1.393 . S
C930 H922 0.950 . S
C930 C928 1.391 . S
C930 C931 1.400 . S
C931 C930 1.400 . S
C931 C932 1.398 . S
C931 C937 1.491 . S
C932 H923 0.950 . S
C932 C931 1.398 . S
C932 C933 1.391 . S
C933 H921 0.950 . S
C933 C929 1.393 . S
C933 C932 1.391 . S
C934 H924 0.950 . S
C934 C935 1.386 . S
C934 C936 1.391 . S
C935 C934 1.386 . S
C935 C939 1.393 . S
C936 H925 0.950 . S
C936 C934 1.391 . S
C936 C937 1.400 . S
C937 C931 1.491 . S
C937 C936 1.400 . S
C937 C938 1.398 . S
C938 H926 0.950 . S
C938 C937 1.398 . S
C938 C939 1.391 . S
C939 H927 0.950 . S
C939 C935 1.393 . S
C939 C938 1.391 . S
H940 C948 0.950 . S
H941 C953 0.950 . S
H942 C950 0.950 . S
H943 C952 0.950 . S
H944 C954 0.950 . S
H945 C956 0.950 . S
H946 C958 0.950 . S
H947 C959 0.950 . S
C948 H940 0.950 . S
C948 C949 1.386 . S
C948 C950 1.391 . S
C949 C948 1.386 . S
C949 C953 1.393 . S
C950 H942 0.950 . S
C950 C948 1.391 . S
C950 C951 1.400 . S
C951 C950 1.400 . S
C951 C952 1.398 . S
C951 C957 1.491 . S
C952 H943 0.950 . S
C952 C951 1.398 . S
C952 C953 1.391 . S
C953 H941 0.950 . S
C953 C949 1.393 . S
C953 C952 1.391 . S
C954 H944 0.950 . S
C954 C955 1.386 . S
C954 C956 1.391 . S
C955 C954 1.386 . S
C955 C959 1.393 . S
C956 H945 0.950 . S
C956 C954 1.391 . S
C956 C957 1.400 . S
C957 C951 1.491 . S
C957 C956 1.400 . S
C957 C958 1.398 . S
C958 H946 0.950 . S
C958 C957 1.398 . S
C958 C959 1.391 . S
C959 H947 0.950 . S
C959 C955 1.393 . S
C959 C958 1.391 . S
C249 C18 1.062 . S
C255 C178 1.044 . S
C269 C38 1.041 . S
C275 C198 1.054 . S
C289 C58 1.043 . S
C295 C218 1.062 . S
C309 C238 1.045 . S
C315 C78 1.062 . S
C329 C98 1.062 . S
C335 C138 1.044 . S
C349 C158 1.054 . S
C355 C118 1.040 . S
C369 C209 0.911 . S
C375 C9 0.882 . S
C389 C229 0.882 . S
C395 C29 0.864 . S
C409 C49 0.892 . S
C415 C129 0.862 . S
C429 C149 0.902 . S
C435 C69 0.903 . S
C449 C169 0.895 . S
C455 C89 0.908 . S
C469 C109 0.911 . S
C475 C189 0.883 . S
C489 C142 1.471 . S
C495 C2 1.440 . S
C509 C162 1.472 . S
C515 C22 1.439 . S
C529 C182 1.461 . S
C535 C42 1.432 . S
C549 C62 1.435 . S
C555 C202 1.456 . S
C569 C82 1.438 . S
C575 C222 1.452 . S
C589 C102 1.471 . S
C595 C122 1.432 . S
C609 C19 0.364 . S
C615 C79 0.283 . S
C629 C39 0.276 . S
C635 C99 0.365 . S
C649 C59 0.274 . S
C655 C119 0.364 . S
C669 C199 0.275 . S
C675 C139 0.362 . S
C689 C159 0.355 . S
C695 C219 0.280 . S
C709 C239 0.297 . S
C715 C179 0.337 . S
C729 C152 1.358 . S
C735 C12 1.328 . S
C749 C172 1.325 . S
C755 C32 1.359 . S
C769 C52 1.340 . S
C775 C192 1.337 . S
C789 C212 1.343 . S
C795 C72 1.344 . S
C809 C232 1.322 . S
C815 C92 1.361 . S
C829 C112 1.325 . S
C835 C132 1.354 . S
C849 C4 1.574 . S
C855 C204 1.564 . S
C869 C24 1.565 . S
C875 C224 1.590 . S
C889 C44 1.563 . S
C895 C124 1.585 . S
C909 C64 1.592 . S
C915 C144 1.592 . S
C929 C84 1.580 . S
C935 C164 1.598 . S
C949 C184 1.597 . S
C955 C104 1.575 . S
