# Generated by pormake.
# Topology msp, (4)-cn, num edge types: 1
# Building blocks:
#     Node 0, Type 0, BuildingBlock: GALJAG_clean_sbu_0, # of connection points: 4
#     Node 1, Type 0, BuildingBlock: GALJAG_clean_sbu_0, # of connection points: 4
#     Node 2, Type 0, BuildingBlock: GALJAG_clean_sbu_0, # of connection points: 4
#     Node 3, Type 0, BuildingBlock: GALJAG_clean_sbu_0, # of connection points: 4
#     Node 4, Type 0, BuildingBlock: GALJAG_clean_sbu_0, # of connection points: 4
#     Node 5, Type 0, BuildingBlock: GALJAG_clean_sbu_0, # of connection points: 4
#     Node 6, Type 0, BuildingBlock: GALJAG_clean_sbu_0, # of connection points: 4
#     Node 7, Type 0, BuildingBlock: GALJAG_clean_sbu_0, # of connection points: 4
#     Edge 8, Type (0, 0), BuildingBlock: OJICUG_clean_linker_0, # of connection points: 2
#     Edge 9, Type (0, 0), BuildingBlock: OJICUG_clean_linker_0, # of connection points: 2
#     Edge 10, Type (0, 0), BuildingBlock: OJICUG_clean_linker_0, # of connection points: 2
#     Edge 11, Type (0, 0), BuildingBlock: OJICUG_clean_linker_0, # of connection points: 2
#     Edge 12, Type (0, 0), BuildingBlock: OJICUG_clean_linker_0, # of connection points: 2
#     Edge 13, Type (0, 0), BuildingBlock: OJICUG_clean_linker_0, # of connection points: 2
#     Edge 14, Type (0, 0), BuildingBlock: OJICUG_clean_linker_0, # of connection points: 2
#     Edge 15, Type (0, 0), BuildingBlock: OJICUG_clean_linker_0, # of connection points: 2
#     Edge 16, Type (0, 0), BuildingBlock: OJICUG_clean_linker_0, # of connection points: 2
#     Edge 17, Type (0, 0), BuildingBlock: OJICUG_clean_linker_0, # of connection points: 2
#     Edge 18, Type (0, 0), BuildingBlock: OJICUG_clean_linker_0, # of connection points: 2
#     Edge 19, Type (0, 0), BuildingBlock: OJICUG_clean_linker_0, # of connection points: 2
#     Edge 20, Type (0, 0), BuildingBlock: OJICUG_clean_linker_0, # of connection points: 2
#     Edge 21, Type (0, 0), BuildingBlock: OJICUG_clean_linker_0, # of connection points: 2
#     Edge 22, Type (0, 0), BuildingBlock: OJICUG_clean_linker_0, # of connection points: 2
#     Edge 23, Type (0, 0), BuildingBlock: OJICUG_clean_linker_0, # of connection points: 2
# Relax obj value: 0.107
# Max RMSD: 0.183
# Mean RMSD: 0.183
data_MOF--net-msp--node1-GALJAG_clean_sbu_0--edge1-OJICUG_clean_linker_0
_symmetry_space_group_name_H-M    P1
_symmetry_Int_Tables_number       1
_symmetry_cell_setting            triclinic
loop_
_symmetry_equiv_pos_as_xyz
'x, y, z'
_cell_length_a     15.932884
_cell_length_b     15.397574
_cell_length_c     31.873543
_cell_angle_alpha  90.02571
_cell_angle_beta   99.895717
_cell_angle_gamma 89.987102
loop_
_atom_site_label
_atom_site_type_symbol
_atom_site_fract_x
_atom_site_fract_y
_atom_site_fract_z
_atom_type_partial_charge
In0 In 0.04007 0.27117 0.37069 0.0
O1 O 0.92098 0.20039 0.33715 0.0
O2 O 0.93568 0.33473 0.32383 0.0
C3 C 0.13565 0.15796 0.42256 0.0
C4 C 0.13638 0.2709 0.3099 0.0
C5 C 0.01576 0.38793 0.43077 0.0
O6 O 0.05513 0.15158 0.41482 0.0
O7 O 0.16578 0.21956 0.40383 0.0
O8 O 0.06349 0.40349 0.40374 0.0
O9 O 0.97954 0.31478 0.42674 0.0
C10 C 0.89189 0.26659 0.31585 0.0
O11 O 0.13128 0.33714 0.33305 0.0
O12 O 0.09235 0.20631 0.31743 0.0
In13 In 0.45238 0.26429 0.62443 0.0
O14 O 0.57105 0.19318 0.65831 0.0
O15 O 0.55603 0.3273 0.67195 0.0
C16 C 0.36005 0.15164 0.57073 0.0
C17 C 0.3541 0.26193 0.68438 0.0
C18 C 0.47547 0.38452 0.56573 0.0
O19 O 0.44071 0.14794 0.57822 0.0
O20 O 0.32819 0.20994 0.59082 0.0
O21 O 0.42653 0.39738 0.59249 0.0
O22 O 0.51358 0.31236 0.56938 0.0
C23 C 0.59976 0.25913 0.67992 0.0
O24 O 0.35973 0.32871 0.6617 0.0
O25 O 0.39857 0.19766 0.67679 0.0
In26 In 0.94937 0.74147 0.62704 0.0
O27 O 0.85814 0.6756 0.6647 0.0
O28 O 0.89701 0.80648 0.68023 0.0
C29 C 0.97385 0.6246 0.56704 0.0
C30 C 0.09748 0.7462 0.68191 0.0
C31 C 0.85378 0.8545 0.57508 0.0
O32 O 0.92608 0.60907 0.59406 0.0
O33 O 0.01003 0.69777 0.57105 0.0
O34 O 0.93429 0.86097 0.58285 0.0
O35 O 0.82366 0.79291 0.59382 0.0
C36 C 0.85299 0.7419 0.6878 0.0
O37 O 0.06842 0.81234 0.66057 0.0
O38 O 0.05371 0.67804 0.67397 0.0
In39 In 0.53699 0.74826 0.37313 0.0
O40 O 0.41833 0.81945 0.33929 0.0
O41 O 0.43332 0.68534 0.32559 0.0
C42 C 0.62941 0.86077 0.42686 0.0
C43 C 0.63522 0.7507 0.31317 0.0
C44 C 0.51381 0.62797 0.43179 0.0
O45 O 0.54875 0.86457 0.41936 0.0
O46 O 0.66122 0.80244 0.40677 0.0
O47 O 0.56274 0.61512 0.40502 0.0
O48 O 0.47574 0.70016 0.42816 0.0
C49 C 0.3896 0.75353 0.31765 0.0
O50 O 0.62959 0.68389 0.33582 0.0
O51 O 0.59078 0.81496 0.32078 0.0
In52 In 0.53512 0.76304 0.87347 0.0
O53 O 0.62704 0.82744 0.83585 0.0
O54 O 0.5882 0.69636 0.82083 0.0
C55 C 0.51295 0.88394 0.93207 0.0
C56 C 0.38715 0.75768 0.81844 0.0
C57 C 0.62812 0.65084 0.92714 0.0
O58 O 0.56154 0.89636 0.90511 0.0
O59 O 0.47472 0.81184 0.92868 0.0
O60 O 0.54745 0.64731 0.92003 0.0
O61 O 0.65964 0.70866 0.90667 0.0
C62 C 0.63243 0.76068 0.81311 0.0
O63 O 0.41622 0.69172 0.83992 0.0
O64 O 0.43083 0.82589 0.82632 0.0
In65 In 0.95122 0.77026 0.12673 0.0
O66 O 0.07058 0.69917 0.15981 0.0
O67 O 0.05619 0.83349 0.17333 0.0
C68 C 0.85465 0.65771 0.07487 0.0
C69 C 0.85587 0.76977 0.18792 0.0
C70 C 0.97475 0.88751 0.06678 0.0
O71 O 0.93516 0.65103 0.0823 0.0
O72 O 0.82503 0.71924 0.09389 0.0
O73 O 0.92765 0.90293 0.09413 0.0
O74 O 0.01076 0.81422 0.07043 0.0
C75 C 0.09996 0.76528 0.18112 0.0
O76 O 0.86075 0.83609 0.16483 0.0
O77 O 0.89968 0.70515 0.18014 0.0
In78 In 0.4543 0.25004 0.12424 0.0
O79 O 0.36233 0.18562 0.16182 0.0
O80 O 0.40113 0.31671 0.17686 0.0
C81 C 0.47656 0.12911 0.06567 0.0
C82 C 0.60222 0.25538 0.17932 0.0
C83 C 0.36134 0.36216 0.0705 0.0
O84 O 0.42792 0.11671 0.09261 0.0
O85 O 0.51479 0.2012 0.06907 0.0
O86 O 0.44202 0.36569 0.07763 0.0
O87 O 0.3298 0.30441 0.09101 0.0
C88 C 0.35691 0.25237 0.18457 0.0
O89 O 0.57316 0.32137 0.15785 0.0
O90 O 0.55856 0.18717 0.1714 0.0
In91 In 0.03816 0.24263 0.87085 0.0
O92 O 0.12859 0.17675 0.83274 0.0
O93 O 0.0897 0.3077 0.81742 0.0
C94 C 0.01458 0.1254 0.93079 0.0
C95 C 0.88941 0.24759 0.81646 0.0
C96 C 0.13483 0.35511 0.92271 0.0
O97 O 0.06168 0.10996 0.90345 0.0
O98 O 0.9786 0.1987 0.92715 0.0
O99 O 0.05432 0.36185 0.91528 0.0
O100 O 0.1644 0.29355 0.90369 0.0
C101 C 0.13347 0.24305 0.80963 0.0
O102 O 0.91881 0.31373 0.83774 0.0
O103 O 0.93317 0.17938 0.82427 0.0
C104 C 0.04796 0.52874 0.46993 0.0
C105 C 0.00456 0.44902 0.46534 0.0
H106 H 0.07252 0.64645 0.50576 0.0
C107 C 0.95136 0.42712 0.49469 0.0
H108 H 0.08957 0.54735 0.44794 0.0
C109 C 0.94172 0.48374 0.52791 0.0
C110 C 0.98511 0.56347 0.5325 0.0
H111 H 0.91716 0.36603 0.49208 0.0
H112 H 0.9001 0.46513 0.5499 0.0
C113 C 0.03832 0.58536 0.50315 0.0
C114 C 0.44854 0.58384 0.49471 0.0
C115 C 0.50344 0.56508 0.46571 0.0
H116 H 0.39682 0.54178 0.54912 0.0
C117 C 0.54943 0.48686 0.47011 0.0
H118 H 0.41232 0.64371 0.49223 0.0
C119 C 0.54069 0.42863 0.50279 0.0
C120 C 0.4858 0.44739 0.5318 0.0
H121 H 0.59242 0.47069 0.44838 0.0
H122 H 0.57692 0.36876 0.50527 0.0
C123 C 0.4398 0.52561 0.52739 0.0
C124 C 0.44021 0.98771 0.02771 0.0
C125 C 0.48642 0.0658 0.03184 0.0
H126 H 0.41211 0.86931 0.99284 0.0
C127 C 0.54105 0.08398 0.00264 0.0
H128 H 0.39743 0.97198 0.04959 0.0
C129 C 0.54932 0.02532 0.97004 0.0
C130 C 0.5031 0.94724 0.96592 0.0
H131 H 0.57743 0.14373 0.00491 0.0
H132 H 0.59211 0.04105 0.94816 0.0
C133 C 0.44849 0.92905 0.99511 0.0
C134 C 0.94246 0.02889 0.02822 0.0
C135 C 0.98545 0.94892 0.0323 0.0
H136 H 0.91773 0.14711 0.99286 0.0
C137 C 0.03773 0.92708 0.0025 0.0
H138 H 0.90156 0.04748 0.05057 0.0
C139 C 0.04686 0.98402 0.96935 0.0
C140 C 0.00387 0.064 0.96527 0.0
H141 H 0.07159 0.8658 0.00471 0.0
H142 H 0.08776 0.96543 0.947 0.0
C143 C 0.95159 0.08583 0.99507 0.0
C144 C 0.70452 0.18277 0.23691 0.0
C145 C 0.67768 0.25821 0.21349 0.0
H146 H 0.79276 0.12634 0.28795 0.0
C147 C 0.7208 0.33657 0.22454 0.0
H148 H 0.67224 0.1214 0.22928 0.0
C149 C 0.78945 0.33941 0.25834 0.0
C150 C 0.81632 0.26394 0.28175 0.0
H151 H 0.70119 0.39582 0.20729 0.0
H152 H 0.82177 0.40076 0.26598 0.0
C153 C 0.77317 0.1856 0.27071 0.0
C154 C 0.71809 0.17787 0.72521 0.0
C155 C 0.67501 0.25626 0.7142 0.0
H156 H 0.81903 0.11357 0.76658 0.0
C157 C 0.70179 0.33164 0.73773 0.0
H158 H 0.69853 0.11866 0.70789 0.0
C159 C 0.77044 0.32873 0.77153 0.0
C160 C 0.81363 0.25036 0.78248 0.0
H161 H 0.66951 0.39303 0.73013 0.0
H162 H 0.79006 0.38795 0.78882 0.0
C163 C 0.78672 0.17495 0.75901 0.0
C164 C 0.21619 0.82729 0.72702 0.0
C165 C 0.17304 0.74893 0.71603 0.0
H166 H 0.31712 0.89157 0.76841 0.0
C167 C 0.19989 0.67352 0.73949 0.0
H168 H 0.1966 0.88651 0.70974 0.0
C169 C 0.26854 0.67643 0.77328 0.0
C170 C 0.31167 0.7548 0.78428 0.0
H171 H 0.16757 0.61216 0.73189 0.0
H172 H 0.28814 0.61722 0.79058 0.0
C173 C 0.28483 0.83019 0.76081 0.0
C174 C 0.27126 0.83487 0.27241 0.0
C175 C 0.31435 0.75646 0.28337 0.0
H176 H 0.17032 0.89923 0.23107 0.0
C177 C 0.28758 0.68113 0.25981 0.0
H178 H 0.29082 0.89404 0.28976 0.0
C179 C 0.21893 0.68409 0.22601 0.0
C180 C 0.17574 0.76247 0.2151 0.0
H181 H 0.31987 0.61973 0.26737 0.0
H182 H 0.19932 0.6249 0.20869 0.0
C183 C 0.20264 0.83784 0.2386 0.0
C184 C 0.25091 0.18517 0.22404 0.0
C185 C 0.3009 0.25677 0.2168 0.0
H186 H 0.1593 0.13383 0.25912 0.0
C187 C 0.2959 0.33361 0.24012 0.0
H188 H 0.25336 0.12525 0.20646 0.0
C189 C 0.24192 0.33869 0.27022 0.0
C190 C 0.19202 0.26703 0.27749 0.0
H191 H 0.33361 0.38999 0.2351 0.0
H192 H 0.23949 0.39857 0.28783 0.0
C193 C 0.19694 0.19026 0.25411 0.0
C194 C 0.29265 0.18048 0.73965 0.0
C195 C 0.29776 0.25742 0.71645 0.0
H196 H 0.23622 0.11538 0.78726 0.0
C197 C 0.2477 0.32898 0.72373 0.0
H198 H 0.33038 0.12411 0.73459 0.0
C199 C 0.19369 0.3238 0.75378 0.0
C200 C 0.18881 0.24698 0.7771 0.0
H201 H 0.25021 0.38896 0.70623 0.0
H202 H 0.15607 0.38023 0.75887 0.0
C203 C 0.23865 0.17531 0.76972 0.0
C204 C 0.73839 0.82783 0.7736 0.0
C205 C 0.68842 0.75624 0.78087 0.0
H206 H 0.83001 0.8791 0.73849 0.0
C207 C 0.69343 0.67936 0.75759 0.0
H208 H 0.73594 0.88778 0.79115 0.0
C209 C 0.74742 0.67421 0.7275 0.0
C210 C 0.79732 0.74586 0.72019 0.0
H211 H 0.65574 0.62298 0.76263 0.0
H212 H 0.74987 0.61429 0.70992 0.0
C213 C 0.79237 0.82267 0.74353 0.0
C214 C 0.75066 0.83744 0.22784 0.0
C215 C 0.80051 0.76579 0.22045 0.0
H216 H 0.65891 0.88858 0.26298 0.0
C217 C 0.79562 0.68894 0.24374 0.0
H218 H 0.75308 0.89739 0.21031 0.0
C219 C 0.74161 0.68371 0.27379 0.0
C220 C 0.69155 0.75525 0.28109 0.0
H221 H 0.83326 0.63253 0.23864 0.0
H222 H 0.73911 0.62371 0.29127 0.0
C223 C 0.69664 0.83222 0.25791 0.0
C224 C 0.21895 0.09994 0.53453 0.0
C225 C 0.3067 0.1091 0.53426 0.0
H226 H 0.09344 0.10508 0.49757 0.0
C227 C 0.33639 0.10449 0.4954 0.0
H228 H 0.19476 0.10273 0.56427 0.0
C229 C 0.27828 0.10726 0.45723 0.0
C230 C 0.19036 0.11295 0.45776 0.0
H231 H 0.40368 0.11134 0.49434 0.0
H232 H 0.30237 0.11557 0.42769 0.0
C233 C 0.16086 0.10107 0.49632 0.0
C234 C 0.82861 0.91123 0.5013 0.0
C235 C 0.79907 0.89945 0.53985 0.0
H236 H 0.7948 0.90953 0.43336 0.0
C237 C 0.71114 0.90516 0.54037 0.0
H238 H 0.89605 0.90721 0.50009 0.0
C239 C 0.65307 0.90793 0.50218 0.0
C240 C 0.68279 0.90327 0.46334 0.0
H241 H 0.68704 0.89691 0.56991 0.0
H242 H 0.58577 0.90111 0.50324 0.0
C243 C 0.77055 0.91237 0.46308 0.0
C244 C 0.82819 0.6008 0.00107 0.0
C245 C 0.7993 0.61298 0.03978 0.0
H246 H 0.7934 0.60191 0.93317 0.0
C247 C 0.71147 0.60761 0.04062 0.0
H248 H 0.89553 0.60456 -0.0004 0.0
C249 C 0.65289 0.60465 0.00261 0.0
C250 C 0.68199 0.60878 0.96359 0.0
H251 H 0.68785 0.61618 0.07027 0.0
H252 H 0.58571 0.61167 0.0039 0.0
C253 C 0.76962 0.59946 0.96303 0.0
C254 C 0.33662 0.40806 0.99499 0.0
C255 C 0.3075 0.40412 0.03401 0.0
H256 H 0.30172 0.39637 0.92734 0.0
C257 C 0.21986 0.4135 0.03455 0.0
H258 H 0.40381 0.40099 0.99373 0.0
C259 C 0.16131 0.41212 0.9965 0.0
C260 C 0.19022 0.3998 0.95781 0.0
H261 H 0.19609 0.41119 0.06441 0.0
H262 H 0.09397 0.40843 0.99797 0.0
C263 C 0.27806 0.40507 0.95698 0.0
loop_
_geom_bond_atom_site_label_1
_geom_bond_atom_site_label_2
_geom_bond_distance
_geom_bond_site_symmetry_2
_ccdc_geom_bond_type
In0 O1 2.294 1_455 S
In0 O2 2.326 1_455 S
In0 O6 2.266 . S
In0 O7 2.326 . S
In0 O8 2.266 . S
In0 O9 2.326 1_455 S
In0 O11 2.294 . S
In0 O12 2.326 . S
O1 In0 2.294 1_655 S
O1 C10 1.240 . S
O2 In0 2.326 1_655 S
O2 C10 1.252 . S
C3 O6 1.252 . S
C3 O7 1.260 . S
C4 O11 1.240 . S
C4 O12 1.252 . S
C5 O8 1.252 . S
C5 O9 1.260 1_455 S
O6 In0 2.266 . S
O6 C3 1.252 . S
O7 In0 2.326 . S
O7 C3 1.260 . S
O8 In0 2.266 . S
O8 C5 1.252 . S
O9 In0 2.326 1_655 S
O9 C5 1.260 1_655 S
C10 O1 1.240 . S
C10 O2 1.252 . S
O11 In0 2.294 . S
O11 C4 1.240 . S
O12 In0 2.326 . S
O12 C4 1.252 . S
In13 O14 2.294 . S
In13 O15 2.326 . S
In13 O19 2.266 . S
In13 O20 2.326 . S
In13 O21 2.266 . S
In13 O22 2.326 . S
In13 O24 2.294 . S
In13 O25 2.326 . S
O14 In13 2.294 . S
O14 C23 1.240 . S
O15 In13 2.326 . S
O15 C23 1.252 . S
C16 O19 1.252 . S
C16 O20 1.260 . S
C17 O24 1.240 . S
C17 O25 1.252 . S
C18 O21 1.252 . S
C18 O22 1.260 . S
O19 In13 2.266 . S
O19 C16 1.252 . S
O20 In13 2.326 . S
O20 C16 1.260 . S
O21 In13 2.266 . S
O21 C18 1.252 . S
O22 In13 2.326 . S
O22 C18 1.260 . S
C23 O14 1.240 . S
C23 O15 1.252 . S
O24 In13 2.294 . S
O24 C17 1.240 . S
O25 In13 2.326 . S
O25 C17 1.252 . S
In26 O27 2.294 . S
In26 O28 2.326 . S
In26 O32 2.266 . S
In26 O33 2.326 1_655 S
In26 O34 2.266 . S
In26 O35 2.326 . S
In26 O37 2.294 1_655 S
In26 O38 2.326 1_655 S
O27 In26 2.294 . S
O27 C36 1.240 . S
O28 In26 2.326 . S
O28 C36 1.252 . S
C29 O32 1.252 . S
C29 O33 1.260 1_655 S
C30 O37 1.240 . S
C30 O38 1.252 . S
C31 O34 1.252 . S
C31 O35 1.260 . S
O32 In26 2.266 . S
O32 C29 1.252 . S
O33 In26 2.326 1_455 S
O33 C29 1.260 1_455 S
O34 In26 2.266 . S
O34 C31 1.252 . S
O35 In26 2.326 . S
O35 C31 1.260 . S
C36 O27 1.240 . S
C36 O28 1.252 . S
O37 In26 2.294 1_455 S
O37 C30 1.240 . S
O38 In26 2.326 1_455 S
O38 C30 1.252 . S
In39 O40 2.294 . S
In39 O41 2.326 . S
In39 O45 2.266 . S
In39 O46 2.326 . S
In39 O47 2.266 . S
In39 O48 2.326 . S
In39 O50 2.294 . S
In39 O51 2.326 . S
O40 In39 2.294 . S
O40 C49 1.240 . S
O41 In39 2.326 . S
O41 C49 1.252 . S
C42 O45 1.252 . S
C42 O46 1.260 . S
C43 O50 1.240 . S
C43 O51 1.252 . S
C44 O47 1.252 . S
C44 O48 1.260 . S
O45 In39 2.266 . S
O45 C42 1.252 . S
O46 In39 2.326 . S
O46 C42 1.260 . S
O47 In39 2.266 . S
O47 C44 1.252 . S
O48 In39 2.326 . S
O48 C44 1.260 . S
C49 O40 1.240 . S
C49 O41 1.252 . S
O50 In39 2.294 . S
O50 C43 1.240 . S
O51 In39 2.326 . S
O51 C43 1.252 . S
In52 O53 2.294 . S
In52 O54 2.326 . S
In52 O58 2.266 . S
In52 O59 2.326 . S
In52 O60 2.266 . S
In52 O61 2.326 . S
In52 O63 2.294 . S
In52 O64 2.326 . S
O53 In52 2.294 . S
O53 C62 1.240 . S
O54 In52 2.326 . S
O54 C62 1.252 . S
C55 O58 1.252 . S
C55 O59 1.260 . S
C56 O63 1.240 . S
C56 O64 1.252 . S
C57 O60 1.252 . S
C57 O61 1.260 . S
O58 In52 2.266 . S
O58 C55 1.252 . S
O59 In52 2.326 . S
O59 C55 1.260 . S
O60 In52 2.266 . S
O60 C57 1.252 . S
O61 In52 2.326 . S
O61 C57 1.260 . S
C62 O53 1.240 . S
C62 O54 1.252 . S
O63 In52 2.294 . S
O63 C56 1.240 . S
O64 In52 2.326 . S
O64 C56 1.252 . S
In65 O66 2.294 1_655 S
In65 O67 2.326 1_655 S
In65 O71 2.266 . S
In65 O72 2.326 . S
In65 O73 2.266 . S
In65 O74 2.326 1_655 S
In65 O76 2.294 . S
In65 O77 2.326 . S
O66 In65 2.294 1_455 S
O66 C75 1.240 . S
O67 In65 2.326 1_455 S
O67 C75 1.252 . S
C68 O71 1.252 . S
C68 O72 1.260 . S
C69 O76 1.240 . S
C69 O77 1.252 . S
C70 O73 1.252 . S
C70 O74 1.260 1_655 S
O71 In65 2.266 . S
O71 C68 1.252 . S
O72 In65 2.326 . S
O72 C68 1.260 . S
O73 In65 2.266 . S
O73 C70 1.252 . S
O74 In65 2.326 1_455 S
O74 C70 1.260 1_455 S
C75 O66 1.240 . S
C75 O67 1.252 . S
O76 In65 2.294 . S
O76 C69 1.240 . S
O77 In65 2.326 . S
O77 C69 1.252 . S
In78 O79 2.294 . S
In78 O80 2.326 . S
In78 O84 2.266 . S
In78 O85 2.326 . S
In78 O86 2.266 . S
In78 O87 2.326 . S
In78 O89 2.294 . S
In78 O90 2.326 . S
O79 In78 2.294 . S
O79 C88 1.240 . S
O80 In78 2.326 . S
O80 C88 1.252 . S
C81 O84 1.252 . S
C81 O85 1.260 . S
C82 O89 1.240 . S
C82 O90 1.252 . S
C83 O86 1.252 . S
C83 O87 1.260 . S
O84 In78 2.266 . S
O84 C81 1.252 . S
O85 In78 2.326 . S
O85 C81 1.260 . S
O86 In78 2.266 . S
O86 C83 1.252 . S
O87 In78 2.326 . S
O87 C83 1.260 . S
C88 O79 1.240 . S
C88 O80 1.252 . S
O89 In78 2.294 . S
O89 C82 1.240 . S
O90 In78 2.326 . S
O90 C82 1.252 . S
In91 O92 2.294 . S
In91 O93 2.326 . S
In91 O97 2.266 . S
In91 O98 2.326 1_455 S
In91 O99 2.266 . S
In91 O100 2.326 . S
In91 O102 2.294 1_455 S
In91 O103 2.326 1_455 S
O92 In91 2.294 . S
O92 C101 1.240 . S
O93 In91 2.326 . S
O93 C101 1.252 . S
C94 O97 1.252 . S
C94 O98 1.260 1_455 S
C95 O102 1.240 . S
C95 O103 1.252 . S
C96 O99 1.252 . S
C96 O100 1.260 . S
O97 In91 2.266 . S
O97 C94 1.252 . S
O98 In91 2.326 1_655 S
O98 C94 1.260 1_655 S
O99 In91 2.266 . S
O99 C96 1.252 . S
O100 In91 2.326 . S
O100 C96 1.260 . S
C101 O92 1.240 . S
C101 O93 1.252 . S
O102 In91 2.294 1_655 S
O102 C95 1.240 . S
O103 In91 2.326 1_655 S
O103 C95 1.252 . S
C104 C105 1.387 1_455 S
C104 H108 0.950 . S
C104 C113 1.390 . S
C105 C104 1.387 1_655 S
C105 C107 1.387 . S
H106 C113 0.950 . S
C107 C105 1.387 . S
C107 C109 1.390 . S
C107 H111 0.950 . S
H108 C104 0.950 . S
C109 C107 1.390 . S
C109 C110 1.387 1_655 S
C109 H112 0.950 . S
C110 C109 1.387 1_455 S
C110 C113 1.387 . S
H111 C107 0.950 . S
H112 C109 0.950 . S
C113 C104 1.390 . S
C113 H106 0.950 . S
C113 C110 1.387 . S
C114 C115 1.387 . S
C114 H118 0.950 . S
C114 C123 1.390 . S
C115 C114 1.387 . S
C115 C117 1.387 . S
H116 C123 0.950 . S
C117 C115 1.387 . S
C117 C119 1.390 . S
C117 H121 0.950 . S
H118 C114 0.950 . S
C119 C117 1.390 . S
C119 C120 1.387 . S
C119 H122 0.950 . S
C120 C119 1.387 . S
C120 C123 1.387 . S
H121 C117 0.950 . S
H122 C119 0.950 . S
C123 C114 1.390 . S
C123 H116 0.950 . S
C123 C120 1.387 . S
C124 C125 1.387 . S
C124 H128 0.950 . S
C124 C133 1.390 1_544 S
C125 C124 1.387 . S
C125 C127 1.387 . S
H126 C133 0.950 . S
C127 C125 1.387 . S
C127 C129 1.390 1_544 S
C127 H131 0.950 . S
H128 C124 0.950 . S
C129 C127 1.390 1_566 S
C129 C130 1.387 . S
C129 H132 0.950 . S
C130 C129 1.387 . S
C130 C133 1.387 . S
H131 C127 0.950 . S
H132 C129 0.950 . S
C133 C124 1.390 1_566 S
C133 H126 0.950 . S
C133 C130 1.387 . S
C134 C135 1.387 1_655 S
C134 H138 0.950 . S
C134 C143 1.390 1_564 S
C135 C134 1.387 1_455 S
C135 C137 1.387 . S
H136 C143 0.950 . S
C137 C135 1.387 . S
C137 C139 1.390 1_564 S
C137 H141 0.950 . S
H138 C134 0.950 . S
C139 C137 1.390 1_546 S
C139 C140 1.387 1_455 S
C139 H142 0.950 . S
C140 C139 1.387 1_655 S
C140 C143 1.387 . S
H141 C137 0.950 . S
H142 C139 0.950 . S
C143 C134 1.390 1_546 S
C143 H136 0.950 . S
C143 C140 1.387 . S
C144 C145 1.387 . S
C144 H148 0.950 . S
C144 C153 1.390 . S
C145 C144 1.387 . S
C145 C147 1.387 . S
H146 C153 0.950 . S
C147 C145 1.387 . S
C147 C149 1.390 . S
C147 H151 0.950 . S
H148 C144 0.950 . S
C149 C147 1.390 . S
C149 C150 1.387 . S
C149 H152 0.950 . S
C150 C149 1.387 . S
C150 C153 1.387 . S
H151 C147 0.950 . S
H152 C149 0.950 . S
C153 C144 1.390 . S
C153 H146 0.950 . S
C153 C150 1.387 . S
C154 C155 1.387 . S
C154 H158 0.950 . S
C154 C163 1.390 . S
C155 C154 1.387 . S
C155 C157 1.387 . S
H156 C163 0.950 . S
C157 C155 1.387 . S
C157 C159 1.390 . S
C157 H161 0.950 . S
H158 C154 0.950 . S
C159 C157 1.390 . S
C159 C160 1.387 . S
C159 H162 0.950 . S
C160 C159 1.387 . S
C160 C163 1.387 . S
H161 C157 0.950 . S
H162 C159 0.950 . S
C163 C154 1.390 . S
C163 H156 0.950 . S
C163 C160 1.387 . S
C164 C165 1.387 . S
C164 H168 0.950 . S
C164 C173 1.390 . S
C165 C164 1.387 . S
C165 C167 1.387 . S
H166 C173 0.950 . S
C167 C165 1.387 . S
C167 C169 1.390 . S
C167 H171 0.950 . S
H168 C164 0.950 . S
C169 C167 1.390 . S
C169 C170 1.387 . S
C169 H172 0.950 . S
C170 C169 1.387 . S
C170 C173 1.387 . S
H171 C167 0.950 . S
H172 C169 0.950 . S
C173 C164 1.390 . S
C173 H166 0.950 . S
C173 C170 1.387 . S
C174 C175 1.387 . S
C174 H178 0.950 . S
C174 C183 1.390 . S
C175 C174 1.387 . S
C175 C177 1.387 . S
H176 C183 0.950 . S
C177 C175 1.387 . S
C177 C179 1.390 . S
C177 H181 0.950 . S
H178 C174 0.950 . S
C179 C177 1.390 . S
C179 C180 1.387 . S
C179 H182 0.950 . S
C180 C179 1.387 . S
C180 C183 1.387 . S
H181 C177 0.950 . S
H182 C179 0.950 . S
C183 C174 1.390 . S
C183 H176 0.950 . S
C183 C180 1.387 . S
C184 C185 1.387 . S
C184 H188 0.950 . S
C184 C193 1.390 . S
C185 C184 1.387 . S
C185 C187 1.387 . S
H186 C193 0.950 . S
C187 C185 1.387 . S
C187 C189 1.390 . S
C187 H191 0.950 . S
H188 C184 0.950 . S
C189 C187 1.390 . S
C189 C190 1.387 . S
C189 H192 0.950 . S
C190 C189 1.387 . S
C190 C193 1.387 . S
H191 C187 0.950 . S
H192 C189 0.950 . S
C193 C184 1.390 . S
C193 H186 0.950 . S
C193 C190 1.387 . S
C194 C195 1.387 . S
C194 H198 0.950 . S
C194 C203 1.390 . S
C195 C194 1.387 . S
C195 C197 1.387 . S
H196 C203 0.950 . S
C197 C195 1.387 . S
C197 C199 1.390 . S
C197 H201 0.950 . S
H198 C194 0.950 . S
C199 C197 1.390 . S
C199 C200 1.387 . S
C199 H202 0.950 . S
C200 C199 1.387 . S
C200 C203 1.387 . S
H201 C197 0.950 . S
H202 C199 0.950 . S
C203 C194 1.390 . S
C203 H196 0.950 . S
C203 C200 1.387 . S
C204 C205 1.387 . S
C204 H208 0.950 . S
C204 C213 1.390 . S
C205 C204 1.387 . S
C205 C207 1.387 . S
H206 C213 0.950 . S
C207 C205 1.387 . S
C207 C209 1.390 . S
C207 H211 0.950 . S
H208 C204 0.950 . S
C209 C207 1.390 . S
C209 C210 1.387 . S
C209 H212 0.950 . S
C210 C209 1.387 . S
C210 C213 1.387 . S
H211 C207 0.950 . S
H212 C209 0.950 . S
C213 C204 1.390 . S
C213 H206 0.950 . S
C213 C210 1.387 . S
C214 C215 1.387 . S
C214 H218 0.950 . S
C214 C223 1.390 . S
C215 C214 1.387 . S
C215 C217 1.387 . S
H216 C223 0.950 . S
C217 C215 1.387 . S
C217 C219 1.390 . S
C217 H221 0.950 . S
H218 C214 0.950 . S
C219 C217 1.390 . S
C219 C220 1.387 . S
C219 H222 0.950 . S
C220 C219 1.387 . S
C220 C223 1.387 . S
H221 C217 0.950 . S
H222 C219 0.950 . S
C223 C214 1.390 . S
C223 H216 0.950 . S
C223 C220 1.387 . S
C224 C225 1.387 . S
C224 H228 0.950 . S
C224 C233 1.390 . S
C225 C224 1.387 . S
C225 C227 1.387 . S
H226 C233 0.950 . S
C227 C225 1.387 . S
C227 C229 1.390 . S
C227 H231 0.950 . S
H228 C224 0.950 . S
C229 C227 1.390 . S
C229 C230 1.387 . S
C229 H232 0.950 . S
C230 C229 1.387 . S
C230 C233 1.387 . S
H231 C227 0.950 . S
H232 C229 0.950 . S
C233 C224 1.390 . S
C233 H226 0.950 . S
C233 C230 1.387 . S
C234 C235 1.387 . S
C234 H238 0.950 . S
C234 C243 1.390 . S
C235 C234 1.387 . S
C235 C237 1.387 . S
H236 C243 0.950 . S
C237 C235 1.387 . S
C237 C239 1.390 . S
C237 H241 0.950 . S
H238 C234 0.950 . S
C239 C237 1.390 . S
C239 C240 1.387 . S
C239 H242 0.950 . S
C240 C239 1.387 . S
C240 C243 1.387 . S
H241 C237 0.950 . S
H242 C239 0.950 . S
C243 C234 1.390 . S
C243 H236 0.950 . S
C243 C240 1.387 . S
C244 C245 1.387 . S
C244 H248 0.950 . S
C244 C253 1.390 1_554 S
C245 C244 1.387 . S
C245 C247 1.387 . S
H246 C253 0.950 . S
C247 C245 1.387 . S
C247 C249 1.390 1_554 S
C247 H251 0.950 . S
H248 C244 0.950 . S
C249 C247 1.390 1_556 S
C249 C250 1.387 . S
C249 H252 0.950 . S
C250 C249 1.387 . S
C250 C253 1.387 . S
H251 C247 0.950 . S
H252 C249 0.950 . S
C253 C244 1.390 1_556 S
C253 H246 0.950 . S
C253 C250 1.387 . S
C254 C255 1.387 . S
C254 H258 0.950 . S
C254 C263 1.390 1_554 S
C255 C254 1.387 . S
C255 C257 1.387 . S
H256 C263 0.950 . S
C257 C255 1.387 . S
C257 C259 1.390 1_554 S
C257 H261 0.950 . S
H258 C254 0.950 . S
C259 C257 1.390 1_556 S
C259 C260 1.387 . S
C259 H262 0.950 . S
C260 C259 1.387 . S
C260 C263 1.387 . S
H261 C257 0.950 . S
H262 C259 0.950 . S
C263 C254 1.390 1_556 S
C263 H256 0.950 . S
C263 C260 1.387 . S
C105 C5 1.561 1_655 S
C110 C29 1.561 1_455 S
C115 C44 1.560 . S
C120 C18 1.560 . S
C125 C81 1.562 . S
C130 C55 1.562 . S
C135 C70 1.560 1_455 S
C140 C94 1.560 1_655 S
C145 C82 1.751 . S
C150 C10 1.751 . S
C155 C23 1.751 . S
C160 C95 1.751 . S
C165 C30 1.753 . S
C170 C56 1.753 . S
C175 C49 1.753 . S
C180 C75 1.753 . S
C185 C88 1.565 . S
C190 C4 1.565 . S
C195 C17 1.565 . S
C200 C101 1.565 . S
C205 C62 1.566 . S
C210 C36 1.566 . S
C215 C69 1.566 . S
C220 C43 1.566 . S
C225 C16 0.873 . S
C230 C3 0.873 . S
C235 C31 0.871 . S
C240 C42 0.871 . S
C245 C68 0.873 . S
C250 C57 0.873 . S
C255 C83 0.873 . S
C260 C96 0.873 . S
