# Generated by pormake.
# Topology lcy-e, (6)-cn, num edge types: 1
# Building blocks:
#     Node 0, Type 0, BuildingBlock: BETDAH_clean_sbu_0, # of connection points: 6
#     Node 1, Type 0, BuildingBlock: BETDAH_clean_sbu_0, # of connection points: 6
#     Node 2, Type 0, BuildingBlock: BETDAH_clean_sbu_0, # of connection points: 6
#     Node 3, Type 0, BuildingBlock: BETDAH_clean_sbu_0, # of connection points: 6
#     Node 4, Type 0, BuildingBlock: BETDAH_clean_sbu_0, # of connection points: 6
#     Node 5, Type 0, BuildingBlock: BETDAH_clean_sbu_0, # of connection points: 6
#     Node 6, Type 0, BuildingBlock: BETDAH_clean_sbu_0, # of connection points: 6
#     Node 7, Type 0, BuildingBlock: BETDAH_clean_sbu_0, # of connection points: 6
#     Node 8, Type 0, BuildingBlock: BETDAH_clean_sbu_0, # of connection points: 6
#     Node 9, Type 0, BuildingBlock: BETDAH_clean_sbu_0, # of connection points: 6
#     Node 10, Type 0, BuildingBlock: BETDAH_clean_sbu_0, # of connection points: 6
#     Node 11, Type 0, BuildingBlock: BETDAH_clean_sbu_0, # of connection points: 6
#     Edge 12, Type (0, 0), BuildingBlock: ZUJKAS_clean_linker_0, # of connection points: 2
#     Edge 13, Type (0, 0), BuildingBlock: ZUJKAS_clean_linker_0, # of connection points: 2
#     Edge 14, Type (0, 0), BuildingBlock: ZUJKAS_clean_linker_0, # of connection points: 2
#     Edge 15, Type (0, 0), BuildingBlock: ZUJKAS_clean_linker_0, # of connection points: 2
#     Edge 16, Type (0, 0), BuildingBlock: ZUJKAS_clean_linker_0, # of connection points: 2
#     Edge 17, Type (0, 0), BuildingBlock: ZUJKAS_clean_linker_0, # of connection points: 2
#     Edge 18, Type (0, 0), BuildingBlock: ZUJKAS_clean_linker_0, # of connection points: 2
#     Edge 19, Type (0, 0), BuildingBlock: ZUJKAS_clean_linker_0, # of connection points: 2
#     Edge 20, Type (0, 0), BuildingBlock: ZUJKAS_clean_linker_0, # of connection points: 2
#     Edge 21, Type (0, 0), BuildingBlock: ZUJKAS_clean_linker_0, # of connection points: 2
#     Edge 22, Type (0, 0), BuildingBlock: ZUJKAS_clean_linker_0, # of connection points: 2
#     Edge 23, Type (0, 0), BuildingBlock: ZUJKAS_clean_linker_0, # of connection points: 2
#     Edge 24, Type (0, 0), BuildingBlock: ZUJKAS_clean_linker_0, # of connection points: 2
#     Edge 25, Type (0, 0), BuildingBlock: ZUJKAS_clean_linker_0, # of connection points: 2
#     Edge 26, Type (0, 0), BuildingBlock: ZUJKAS_clean_linker_0, # of connection points: 2
#     Edge 27, Type (0, 0), BuildingBlock: ZUJKAS_clean_linker_0, # of connection points: 2
#     Edge 28, Type (0, 0), BuildingBlock: ZUJKAS_clean_linker_0, # of connection points: 2
#     Edge 29, Type (0, 0), BuildingBlock: ZUJKAS_clean_linker_0, # of connection points: 2
#     Edge 30, Type (0, 0), BuildingBlock: ZUJKAS_clean_linker_0, # of connection points: 2
#     Edge 31, Type (0, 0), BuildingBlock: ZUJKAS_clean_linker_0, # of connection points: 2
#     Edge 32, Type (0, 0), BuildingBlock: ZUJKAS_clean_linker_0, # of connection points: 2
#     Edge 33, Type (0, 0), BuildingBlock: ZUJKAS_clean_linker_0, # of connection points: 2
#     Edge 34, Type (0, 0), BuildingBlock: ZUJKAS_clean_linker_0, # of connection points: 2
#     Edge 35, Type (0, 0), BuildingBlock: ZUJKAS_clean_linker_0, # of connection points: 2
#     Edge 36, Type (0, 0), BuildingBlock: ZUJKAS_clean_linker_0, # of connection points: 2
#     Edge 37, Type (0, 0), BuildingBlock: ZUJKAS_clean_linker_0, # of connection points: 2
#     Edge 38, Type (0, 0), BuildingBlock: ZUJKAS_clean_linker_0, # of connection points: 2
#     Edge 39, Type (0, 0), BuildingBlock: ZUJKAS_clean_linker_0, # of connection points: 2
#     Edge 40, Type (0, 0), BuildingBlock: ZUJKAS_clean_linker_0, # of connection points: 2
#     Edge 41, Type (0, 0), BuildingBlock: ZUJKAS_clean_linker_0, # of connection points: 2
#     Edge 42, Type (0, 0), BuildingBlock: ZUJKAS_clean_linker_0, # of connection points: 2
#     Edge 43, Type (0, 0), BuildingBlock: ZUJKAS_clean_linker_0, # of connection points: 2
#     Edge 44, Type (0, 0), BuildingBlock: ZUJKAS_clean_linker_0, # of connection points: 2
#     Edge 45, Type (0, 0), BuildingBlock: ZUJKAS_clean_linker_0, # of connection points: 2
#     Edge 46, Type (0, 0), BuildingBlock: ZUJKAS_clean_linker_0, # of connection points: 2
#     Edge 47, Type (0, 0), BuildingBlock: ZUJKAS_clean_linker_0, # of connection points: 2
# Relax obj value: 0.196
# Max RMSD: 0.306
# Mean RMSD: 0.282
data_MOF--net-lcy-e--node1-BETDAH_clean_sbu_0--edge1-ZUJKAS_clean_linker_0
_symmetry_space_group_name_H-M    P1
_symmetry_Int_Tables_number       1
_symmetry_cell_setting            triclinic
loop_
_symmetry_equiv_pos_as_xyz
'x, y, z'
_cell_length_a     56.148157
_cell_length_b     51.691254
_cell_length_c     56.107191
_cell_angle_alpha  89.528026
_cell_angle_beta   90.905499
_cell_angle_gamma 88.519046
loop_
_atom_site_label
_atom_site_type_symbol
_atom_site_fract_x
_atom_site_fract_y
_atom_site_fract_z
_atom_type_partial_charge
Ho0 Ho 0.14078 0.2518 0.4661 0.0
Ho1 Ho 0.15738 0.20591 0.49659 0.0
C2 C 0.18512 0.21397 0.44864 0.0
C3 C 0.13795 0.29251 0.43906 0.0
C4 C 0.14687 0.29902 0.41513 0.0
C5 C 0.17141 0.29882 0.41036 0.0
C6 C 0.17938 0.30456 0.38747 0.0
C7 C 0.16301 0.31036 0.36886 0.0
C8 C 0.13852 0.31044 0.37362 0.0
C9 C 0.13055 0.30496 0.39655 0.0
C10 C 0.1127 0.21063 0.4624 0.0
C11 C 0.11533 0.24364 0.51535 0.0
C12 C 0.16063 0.16424 0.52245 0.0
C13 C 0.14523 0.14748 0.53681 0.0
C14 C 0.13188 0.12798 0.526 0.0
C15 C 0.11941 0.11047 0.53989 0.0
C16 C 0.12006 0.11198 0.56491 0.0
C17 C 0.13277 0.13201 0.57564 0.0
C18 C 0.1453 0.14946 0.56176 0.0
C19 C 0.18233 0.2499 0.50225 0.0
O20 O 0.17291 0.23614 0.44611 0.0
O21 O 0.18078 0.19742 0.46592 0.0
O22 O 0.12146 0.27515 0.43968 0.0
O23 O 0.15378 0.28937 0.45629 0.0
O24 O 0.10519 0.23451 0.46131 0.0
O25 O 0.1353 0.20941 0.46375 0.0
O26 O 0.12312 0.21936 0.51356 0.0
O27 O 0.1227 0.26176 0.50052 0.0
O28 O 0.1649 0.18729 0.5307 0.0
O29 O 0.15731 0.16424 0.49932 0.0
O30 O 0.19205 0.22685 0.50344 0.0
O31 O 0.16025 0.24801 0.49971 0.0
H32 H 0.18448 0.29413 0.42424 0.0
H33 H 0.19836 0.30418 0.38426 0.0
H34 H 0.12551 0.31517 0.3597 0.0
H35 H 0.11156 0.30529 0.39977 0.0
H36 H 0.13158 0.12573 0.50682 0.0
H37 H 0.11003 0.09513 0.53103 0.0
H38 H 0.13335 0.13399 0.59484 0.0
H39 H 0.1555 0.16417 0.57065 0.0
Ho40 Ho 1.00843 0.8537 0.72489 0.0
Ho41 Ho 0.05029 0.86889 0.75847 0.0
C42 C 0.04162 0.90281 0.71122 0.0
C43 C 0.97035 0.85311 0.69823 0.0
C44 C 0.96201 0.8625 0.67445 0.0
C45 C 0.96553 0.88802 0.66665 0.0
C46 C 0.95623 0.89669 0.64456 0.0
C47 C 0.94319 0.88004 0.62983 0.0
C48 C 0.94024 0.85434 0.63754 0.0
C49 C 0.94949 0.84573 0.65959 0.0
C50 C 0.04868 0.82502 0.72058 0.0
C51 C 0.0167 0.82189 0.77309 0.0
C52 C 0.08948 0.87065 0.78352 0.0
C53 C 0.1087 0.85483 0.79551 0.0
C54 C 0.12429 0.83869 0.78256 0.0
C55 C 0.1446 0.8273 0.79359 0.0
C56 C 0.14983 0.83175 0.81782 0.0
C57 C 0.13368 0.84708 0.83091 0.0
C58 C 0.11344 0.85852 0.81987 0.0
C59 C 1.00814 0.89489 0.76466 0.0
O60 O 0.02237 0.88929 0.70666 0.0
O61 O 0.05609 0.89759 0.72949 0.0
O62 O 0.98652 0.83443 0.69864 0.0
O63 O 0.97416 0.87057 0.71454 0.0
O64 O 0.02747 0.8162 0.71729 0.0
O65 O 0.04764 0.84915 0.72401 0.0
O66 O 0.03886 0.83019 0.77277 0.0
O67 O 1.00013 0.83127 0.75802 0.0
O68 O 0.06831 0.87139 0.793 0.0
O69 O 0.0886 0.87059 0.76021 0.0
O70 O 0.02875 0.90507 0.76857 0.0
O71 O 0.01132 0.87147 0.75981 0.0
H72 H 0.97513 0.9014 0.67775 0.0
H73 H 0.95871 0.91664 0.63935 0.0
H74 H 0.93073 0.8408 0.62653 0.0
H75 H 0.94661 0.82595 0.66517 0.0
H76 H 0.12126 0.83549 0.76372 0.0
H77 H 0.15642 0.81531 0.78302 0.0
H78 H 0.13721 0.85121 0.84951 0.0
H79 H 0.10196 0.87113 0.83022 0.0
Ho80 Ho 0.37771 0.77039 1.00895 0.0
Ho81 Ho 0.39399 0.73638 0.96744 0.0
C82 C 0.42273 0.78739 0.97636 0.0
C83 C 0.37359 0.79821 0.04691 0.0
C84 C 0.38642 0.81894 0.05908 0.0
C85 C 0.41112 0.82162 0.05689 0.0
C86 C 0.42277 0.8415 0.06883 0.0
C87 C 0.40991 0.85905 0.08315 0.0
C88 C 0.38512 0.85634 0.08499 0.0
C89 C 0.37354 0.83648 0.07311 0.0
C90 C 0.34899 0.77345 0.97008 0.0
C91 C 0.35143 0.71729 1.00056 0.0
C92 C 0.39831 0.70999 0.92858 0.0
C93 C 0.38455 0.69738 0.90942 0.0
C94 C 0.36564 0.71031 0.89714 0.0
C95 C 0.35533 0.69934 0.87678 0.0
C96 C 0.36366 0.67521 0.86836 0.0
C97 C 0.38196 0.66198 0.88129 0.0
C98 C 0.39228 0.67297 0.90153 0.0
C99 C 0.41881 0.72993 1.00941 0.0
O100 O 0.41149 0.78967 0.99688 0.0
O101 O 0.417 0.7698 0.96059 0.0
O102 O 0.36344 0.80444 0.02646 0.0
O103 O 0.38409 0.77531 0.04671 0.0
O104 O 0.34176 0.77509 0.99184 0.0
O105 O 0.37158 0.77204 0.96967 0.0
O106 O 0.35977 0.71819 0.97862 0.0
O107 O 0.3583 0.73389 0.01706 0.0
O108 O 0.39873 0.69929 0.94981 0.0
O109 O 0.39713 0.73526 0.92926 0.0
O110 O 0.42856 0.72766 0.98868 0.0
O111 O 0.3969 0.7336 1.00636 0.0
H112 H 0.4214 0.80829 0.04606 0.0
H113 H 0.44188 0.84289 0.06714 0.0
H114 H 0.37454 0.86975 0.09542 0.0
H115 H 0.35445 0.83484 0.07487 0.0
H116 H 0.35928 0.72919 0.90283 0.0
H117 H 0.34107 0.7099 0.86745 0.0
H118 H 0.38908 0.64356 0.87521 0.0
H119 H 0.40697 0.66276 0.91054 0.0
Ho120 Ho 0.53603 0.11943 0.22996 0.0
Ho121 Ho 0.4965 0.10569 0.2654 0.0
C122 C 0.50156 0.07028 0.21933 0.0
C123 C 0.57277 0.11779 0.20263 0.0
C124 C 0.57923 0.10792 0.17871 0.0
C125 C 0.58988 0.08316 0.17631 0.0
C126 C 0.59737 0.07437 0.15405 0.0
C127 C 0.59458 0.09018 0.13362 0.0
C128 C 0.58368 0.11483 0.13597 0.0
C129 C 0.57616 0.12362 0.15824 0.0
C130 C 0.49573 0.14811 0.22492 0.0
C131 C 0.53007 0.15346 0.27638 0.0
C132 C 0.4593 0.10486 0.29224 0.0
C133 C 0.44069 0.12111 0.30378 0.0
C134 C 0.42439 0.13671 0.2904 0.0
C135 C 0.40454 0.14831 0.30128 0.0
C136 C 0.40048 0.14451 0.32576 0.0
C137 C 0.41751 0.12998 0.33926 0.0
C138 C 0.43729 0.11838 0.32839 0.0
C139 C 0.5395 0.08073 0.27228 0.0
O140 O 0.52032 0.08378 0.2133 0.0
O141 O 0.48875 0.07578 0.23824 0.0
O142 O 0.55785 0.13766 0.20349 0.0
O143 O 0.56885 0.10049 0.2192 0.0
O144 O 0.51679 0.15648 0.22035 0.0
O145 O 0.49677 0.12415 0.22983 0.0
O146 O 0.50782 0.14553 0.27637 0.0
O147 O 0.54606 0.14296 0.26196 0.0
O148 O 0.48112 0.10539 0.30076 0.0
O149 O 0.45845 0.10314 0.269 0.0
O150 O 0.51929 0.07046 0.27733 0.0
O151 O 0.5355 0.10369 0.26594 0.0
H152 H 0.59285 0.07068 0.19173 0.0
H153 H 0.60602 0.05546 0.153 0.0
H154 H 0.58102 0.12743 0.12059 0.0
H155 H 0.56822 0.14287 0.15942 0.0
H156 H 0.4264 0.13913 0.27136 0.0
H157 H 0.39179 0.15923 0.29026 0.0
H158 H 0.41528 0.12706 0.35822 0.0
H159 H 0.4495 0.10641 0.33912 0.0
Ho160 Ho 0.64517 0.23688 0.54918 0.0
Ho161 Ho 0.65585 0.28623 0.52061 0.0
C162 C 0.68338 0.27841 0.56989 0.0
C163 C 0.64655 0.194 0.57354 0.0
C164 C 0.65611 0.18468 0.59675 0.0
C165 C 0.6654 0.20179 0.61361 0.0
C166 C 0.67383 0.19253 0.63582 0.0
C167 C 0.67313 0.16597 0.64155 0.0
C168 C 0.66387 0.14897 0.62445 0.0
C169 C 0.65548 0.15825 0.6023 0.0
C170 C 0.61303 0.27587 0.5534 0.0
C171 C 0.61969 0.24494 0.49849 0.0
C172 C 0.65566 0.33016 0.49805 0.0
C173 C 0.64378 0.3469 0.47977 0.0
C174 C 0.61909 0.35221 0.47954 0.0
C175 C 0.60911 0.37095 0.46383 0.0
C176 C 0.6237 0.38478 0.44831 0.0
C177 C 0.64822 0.3786 0.44804 0.0
C178 C 0.65811 0.35991 0.4636 0.0
C179 C 0.68656 0.24534 0.51543 0.0
O180 O 0.67521 0.25458 0.57066 0.0
O181 O 0.67616 0.2954 0.55352 0.0
O182 O 0.62895 0.211 0.57427 0.0
O183 O 0.6622 0.19973 0.55745 0.0
O184 O 0.60774 0.25162 0.55313 0.0
O185 O 0.63536 0.27837 0.55288 0.0
O186 O 0.62485 0.2697 0.5004 0.0
O187 O 0.62861 0.22724 0.51365 0.0
O188 O 0.66738 0.30956 0.49084 0.0
O189 O 0.64468 0.32647 0.51814 0.0
O190 O 0.69297 0.26924 0.51441 0.0
O191 O 0.66435 0.24473 0.51677 0.0
H192 H 0.666 0.2223 0.60965 0.0
H193 H 0.68106 0.20613 0.64842 0.0
H194 H 0.66266 0.12849 0.62833 0.0
H195 H 0.64827 0.14477 0.58956 0.0
H196 H 0.60764 0.34248 0.49191 0.0
H197 H 0.59016 0.3753 0.46447 0.0
H198 H 0.65988 0.38851 0.436 0.0
H199 H 0.6772 0.35617 0.4635 0.0
Ho200 Ho 0.99073 0.36973 0.74534 0.0
Ho201 Ho 0.02378 0.34677 0.7841 0.0
C202 C 0.97434 0.32031 0.77434 0.0
C203 C 0.96664 0.38376 0.7077 0.0
C204 C 0.94178 0.3791 0.70071 0.0
C205 C 0.92807 0.36262 0.71462 0.0
C206 C 0.90538 0.35568 0.70686 0.0
C207 C 0.89581 0.36526 0.6851 0.0
C208 C 0.90936 0.38253 0.67163 0.0
C209 C 0.93221 0.38928 0.67933 0.0
C210 C 0.98043 0.38479 0.79047 0.0
C211 C 0.04192 0.39586 0.75442 0.0
C212 C 0.04966 0.33587 0.8215 0.0
C213 C 0.06298 0.34919 0.84021 0.0
C214 C 0.06307 0.37629 0.84136 0.0
C215 C 0.07436 0.38842 0.86055 0.0
C216 C 0.08574 0.37357 0.87877 0.0
C217 C 0.08585 0.34641 0.87718 0.0
C218 C 0.07458 0.33438 0.85808 0.0
C219 C 0.02532 0.32288 0.74108 0.0
O220 O 0.97441 0.33124 0.75297 0.0
O221 O 0.98944 0.32728 0.79119 0.0
O222 O 0.96985 0.39906 0.72592 0.0
O223 O 0.98023 0.36282 0.7089 0.0
O224 O 0.96466 0.37969 0.77419 0.0
O225 O 1.00088 0.38197 0.78183 0.0
O226 O 0.04458 0.38144 0.77392 0.0
O227 O 0.02309 0.39413 0.73997 0.0
O228 O 0.05822 0.33672 0.79994 0.0
O229 O 0.02648 0.33931 0.82188 0.0
O230 O 0.0278 0.3106 0.76124 0.0
O231 O 0.02359 0.34658 0.7451 0.0
H232 H 0.93522 0.35447 0.73116 0.0
H233 H 0.89573 0.34208 0.71757 0.0
H234 H 0.90243 0.39066 0.655 0.0
H235 H 0.94256 0.40201 0.66837 0.0
H236 H 0.05414 0.388 0.82766 0.0
H237 H 0.07414 0.40936 0.86114 0.0
H238 H 0.09405 0.33437 0.89107 0.0
H239 H 0.07447 0.31343 0.85754 0.0
Ho240 Ho 0.89744 0.73937 0.04098 0.0
Ho241 Ho 0.88109 0.69128 0.01387 0.0
C242 C 0.85658 0.7023 0.0633 0.0
C243 C 0.90035 0.78222 0.06429 0.0
C244 C 0.89195 0.79287 0.08711 0.0
C245 C 0.86864 0.78922 0.09505 0.0
C246 C 0.86126 0.79963 0.11679 0.0
C247 C 0.87703 0.81385 0.13105 0.0
C248 C 0.9004 0.81719 0.12305 0.0
C249 C 0.90772 0.80686 0.10133 0.0
C250 C 0.92678 0.69772 0.0452 0.0
C251 C 0.92029 0.72846 0.99061 0.0
C252 C 0.87738 0.64783 0.99153 0.0
C253 C 0.89007 0.63013 0.97515 0.0
C254 C 0.91373 0.62155 0.97951 0.0
C255 C 0.92423 0.60251 0.9651 0.0
C256 C 0.91133 0.59172 0.94604 0.0
C257 C 0.8879 0.60096 0.94141 0.0
C258 C 0.87742 0.61989 0.95581 0.0
C259 C 0.85393 0.73509 1.00804 0.0
O260 O 0.86713 0.72496 0.06341 0.0
O261 O 0.86111 0.6846 0.04709 0.0
O262 O 0.91638 0.76348 0.06588 0.0
O263 O 0.88427 0.7783 0.04763 0.0
O264 O 0.93386 0.72138 0.04455 0.0
O265 O 0.90427 0.69719 0.04526 0.0
O266 O 0.91276 0.70449 0.993 0.0
O267 O 0.91379 0.74702 1.0055 0.0
O268 O 0.86929 0.66997 0.98283 0.0
O269 O 0.88599 0.64975 0.01325 0.0
O270 O 0.84503 0.71216 1.009 0.0
O271 O 0.87619 0.73314 1.00898 0.0
H272 H 0.85611 0.77845 0.08443 0.0
H273 H 0.84307 0.79687 0.12223 0.0
H274 H 0.9132 0.82756 0.1337 0.0
H275 H 0.92582 0.80977 0.09563 0.0
H276 H 0.92394 0.62913 0.99431 0.0
H277 H 0.9424 0.59609 0.969 0.0
H278 H 0.87729 0.59291 0.92713 0.0
H279 H 0.8591 0.62601 0.95224 0.0
Ho280 Ho 0.54687 0.60883 0.23472 0.0
Ho281 Ho 0.51569 0.61768 0.27922 0.0
C282 C 0.56234 0.65071 0.27543 0.0
C283 C 0.57189 0.61274 0.19652 0.0
C284 C 0.59547 0.62198 0.19004 0.0
C285 C 0.60314 0.61912 0.16658 0.0
C286 C 0.62568 0.62729 0.16007 0.0
C287 C 0.64097 0.63853 0.17694 0.0
C288 C 0.63307 0.64162 0.20046 0.0
C289 C 0.61052 0.63331 0.20698 0.0
C290 C 0.55541 0.57599 0.27154 0.0
C291 C 0.49902 0.57736 0.23811 0.0
C292 C 0.49365 0.60887 0.31828 0.0
C293 C 0.4814 0.60257 0.34075 0.0
C294 C 0.48373 0.57752 0.35062 0.0
C295 C 0.47216 0.57114 0.37166 0.0
C296 C 0.45794 0.58964 0.38346 0.0
C297 C 0.4558 0.61482 0.37372 0.0
C298 C 0.46737 0.6212 0.35256 0.0
C299 C 0.50549 0.64906 0.24111 0.0
O300 O 0.56393 0.64299 0.25298 0.0
O301 O 0.54695 0.64072 0.2903 0.0
O302 O 0.57178 0.59193 0.20991 0.0
O303 O 0.55637 0.63039 0.20325 0.0
O304 O 0.55706 0.56951 0.24936 0.0
O305 O 0.55098 0.59997 0.27315 0.0
O306 O 0.49844 0.58412 0.26081 0.0
O307 O 0.51414 0.58771 0.22308 0.0
O308 O 0.4928 0.63171 0.30791 0.0
O309 O 0.50631 0.59128 0.30718 0.0
O310 O 0.50091 0.65552 0.26294 0.0
O311 O 0.51166 0.62562 0.24083 0.0
H312 H 0.59171 0.61047 0.15327 0.0
H313 H 0.63105 0.62498 0.14173 0.0
H314 H 0.64449 0.65 0.21392 0.0
H315 H 0.6049 0.63552 0.22524 0.0
H316 H 0.49454 0.56273 0.34209 0.0
H317 H 0.47456 0.55171 0.37882 0.0
H318 H 0.44483 0.62949 0.38222 0.0
H319 H 0.46525 0.64066 0.3454 0.0
Ho320 Ho 0.22695 0.48631 0.13298 0.0
Ho321 Ho 0.25629 0.43772 0.11906 0.0
C322 C 0.20757 0.44824 0.0908 0.0
C323 C 0.20152 0.52875 0.13355 0.0
C324 C 0.1775 0.53634 0.1248 0.0
C325 C 0.16121 0.51759 0.11779 0.0
C326 C 0.13852 0.52505 0.10917 0.0
C327 C 0.13175 0.55141 0.10736 0.0
C328 C 0.14819 0.57008 0.11448 0.0
C329 C 0.17086 0.56259 0.12309 0.0
C330 C 0.22338 0.44565 0.16255 0.0
C331 C 0.27753 0.47711 0.15782 0.0
C332 C 0.27881 0.39341 0.11787 0.0
C333 C 0.29219 0.37444 0.13298 0.0
C334 C 0.28893 0.34806 0.12885 0.0
C335 C 0.3019 0.32929 0.14197 0.0
C336 C 0.3185 0.33647 0.15958 0.0
C337 C 0.32147 0.36302 0.16399 0.0
C338 C 0.30838 0.38186 0.15083 0.0
C339 C 0.26199 0.48053 0.0916 0.0
O340 O 0.20558 0.4706 0.10203 0.0
O341 O 0.22481 0.43115 0.09568 0.0
O342 O 0.20251 0.51206 0.15119 0.0
O343 O 0.21711 0.52344 0.1171 0.0
O344 O 0.22309 0.46952 0.16944 0.0
O345 O 0.22396 0.44439 0.14008 0.0
O346 O 0.27544 0.45247 0.15188 0.0
O347 O 0.26232 0.49519 0.14954 0.0
O348 O 0.28879 0.41543 0.11309 0.0
O349 O 0.25601 0.39601 0.12193 0.0
O350 O 0.26336 0.45716 0.08326 0.0
O351 O 0.25966 0.47938 0.1137 0.0
H352 H 0.16606 0.4972 0.11893 0.0
H353 H 0.12641 0.51021 0.10361 0.0
H354 H 0.14345 0.59051 0.11364 0.0
H355 H 0.18321 0.57731 0.12844 0.0
H356 H 0.27655 0.34194 0.11513 0.0
H357 H 0.29939 0.30911 0.13779 0.0
H358 H 0.33394 0.36922 0.17758 0.0
H359 H 0.31108 0.40214 0.15443 0.0
Ho360 Ho 0.73086 0.97306 0.87736 0.0
Ho361 Ho 0.75984 0.02047 0.89094 0.0
C362 C 0.7117 0.01342 0.91831 0.0
C363 C 0.70552 0.93188 0.87722 0.0
C364 C 0.6829 0.92344 0.88772 0.0
C365 C 0.6784 0.92561 0.91222 0.0
C366 C 0.65695 0.91703 0.92161 0.0
C367 C 0.63947 0.90619 0.9067 0.0
C368 C 0.644 0.90444 0.88214 0.0
C369 C 0.66546 0.91286 0.87282 0.0
C370 C 0.72677 0.01315 0.84663 0.0
C371 C 0.78079 0.97975 0.85256 0.0
C372 C 0.78371 0.06267 0.89179 0.0
C373 C 0.79928 0.07846 0.87683 0.0
C374 C 0.7929 0.08565 0.8533 0.0
C375 C 0.80682 0.10297 0.84057 0.0
C376 C 0.82742 0.11327 0.85106 0.0
C377 C 0.83408 0.10532 0.87431 0.0
C378 C 0.82013 0.08816 0.88704 0.0
C379 C 0.76574 0.97798 0.91936 0.0
O380 O 0.71063 0.99018 0.90856 0.0
O381 O 0.72792 0.03013 0.91226 0.0
O382 O 0.70366 0.94993 0.86079 0.0
O383 O 0.72364 0.93514 0.89178 0.0
O384 O 0.72668 0.98906 0.84037 0.0
O385 O 0.72749 0.01498 0.86911 0.0
O386 O 0.77867 0.00441 0.8587 0.0
O387 O 0.76585 0.96229 0.86052 0.0
O388 O 0.79238 0.04039 0.89961 0.0
O389 O 0.76122 0.06174 0.88542 0.0
O390 O 0.76591 1.00143 0.92749 0.0
O391 O 0.76381 0.97874 0.89713 0.0
H392 H 0.69148 0.93378 0.92418 0.0
H393 H 0.65427 0.91851 0.94062 0.0
H394 H 0.63087 0.89676 0.86996 0.0
H395 H 0.66843 0.9111 0.85386 0.0
H396 H 0.77692 0.07838 0.84493 0.0
H397 H 0.80134 0.10849 0.8226 0.0
H398 H 0.84963 0.11311 0.88306 0.0
H399 H 0.8253 0.08304 0.9052 0.0
Ho400 Ho 0.77103 0.95622 0.38789 0.0
Ho401 Ho 0.81669 0.9932 0.38116 0.0
C402 C 0.81011 0.9417 0.34803 0.0
C403 C 0.73042 0.93477 0.38074 0.0
C404 C 0.72073 0.90882 0.3773 0.0
C405 C 0.73466 0.88863 0.36767 0.0
C406 C 0.72426 0.86525 0.36143 0.0
C407 C 0.69977 0.8616 0.3648 0.0
C408 C 0.68615 0.88157 0.37531 0.0
C409 C 0.69654 0.90496 0.38143 0.0
C410 C 0.80752 0.94342 0.41876 0.0
C411 C 0.77814 0.00833 0.41912 0.0
C412 C 0.85999 0.00913 0.37911 0.0
C413 C 0.88017 0.01984 0.39273 0.0
C414 C 0.90333 0.01131 0.38724 0.0
C415 C 0.92315 0.02278 0.39772 0.0
C416 C 0.92031 0.04312 0.41403 0.0
C417 C 0.89698 0.05109 0.4201 0.0
C418 C 0.87709 0.03958 0.40955 0.0
C419 C 0.77544 0.00869 0.3591 0.0
O420 O 0.79187 0.93385 0.36074 0.0
O421 O 0.8209 0.96392 0.3518 0.0
O422 O 0.73853 0.94053 0.40203 0.0
O423 O 0.74394 0.94302 0.36363 0.0
O424 O 0.78774 0.93091 0.41748 0.0
O425 O 0.80631 0.96079 0.40302 0.0
O426 O 0.80144 0.00665 0.41553 0.0
O427 O 0.76267 0.99346 0.4077 0.0
O428 O 0.84113 0.02413 0.37518 0.0
O429 O 0.85474 0.985 0.38332 0.0
O430 O 0.79226 0.02455 0.36461 0.0
O431 O 0.78291 0.98583 0.36298 0.0
H432 H 0.7534 0.89122 0.36431 0.0
H433 H 0.73531 0.85015 0.35366 0.0
H434 H 0.66721 0.87956 0.37791 0.0
H435 H 0.68546 0.92039 0.38864 0.0
H436 H 0.90613 0.99623 0.37419 0.0
H437 H 0.94073 0.01631 0.39228 0.0
H438 H 0.89407 0.06642 0.43285 0.0
H439 H 0.85938 0.04646 0.41415 0.0
Ho440 Ho 0.30845 0.48407 0.63524 0.0
Ho441 Ho 0.27738 0.53103 0.62066 0.0
C442 C 0.32571 0.52332 0.59278 0.0
C443 C 0.33481 0.44226 0.63687 0.0
C444 C 0.35893 0.43432 0.62921 0.0
C445 C 0.36735 0.44086 0.60654 0.0
C446 C 0.39024 0.43291 0.59969 0.0
C447 C 0.40518 0.41829 0.61539 0.0
C448 C 0.39673 0.41212 0.63817 0.0
C449 C 0.37384 0.42002 0.64496 0.0
C450 C 0.31153 0.52434 0.66502 0.0
C451 C 0.25875 0.49183 0.6606 0.0
C452 C 0.25235 0.57376 0.61913 0.0
C453 C 0.23939 0.59171 0.63501 0.0
C454 C 0.2506 0.60305 0.65481 0.0
C455 C 0.23868 0.62223 0.66786 0.0
C456 C 0.2153 0.63028 0.66148 0.0
C457 C 0.20391 0.61824 0.64218 0.0
C458 C 0.21587 0.59923 0.62906 0.0
C459 C 0.27192 0.48787 0.59386 0.0
O460 O 0.32886 0.50098 0.60435 0.0
O461 O 0.30785 0.53945 0.59735 0.0
O462 O 0.33381 0.4589 0.65425 0.0
O463 O 0.31887 0.44726 0.62007 0.0
O464 O 0.31298 0.50027 0.67162 0.0
O465 O 0.31027 0.52617 0.64249 0.0
O466 O 0.26032 0.51643 0.65418 0.0
O467 O 0.27385 0.47401 0.65237 0.0
O468 O 0.2432 0.55107 0.61554 0.0
O469 O 0.27558 0.5727 0.62125 0.0
O470 O 0.26992 0.51121 0.58517 0.0
O471 O 0.27485 0.48914 0.61596 0.0
H472 H 0.3562 0.45191 0.59403 0.0
H473 H 0.39604 0.43777 0.58193 0.0
H474 H 0.40785 0.40128 0.65087 0.0
H475 H 0.36777 0.41492 0.66259 0.0
H476 H 0.26874 0.59758 0.65989 0.0
H477 H 0.24782 0.63095 0.6828 0.0
H478 H 0.18603 0.62421 0.63661 0.0
H479 H 0.20693 0.59092 0.61379 0.0
H480 H 0.22929 0.25759 0.5144 0.0
H481 H 0.24702 0.29834 0.52734 0.0
H482 H 0.17929 0.33817 0.51616 0.0
H483 H 0.16149 0.29776 0.50393 0.0
H484 H 0.2505 0.34819 0.50536 0.0
H485 H 0.19502 0.35212 0.58621 0.0
H486 H 0.19799 0.32339 0.56834 0.0
H487 H 0.17799 0.34942 0.55905 0.0
C488 C 0.21828 0.2751 0.51461 0.0
C489 C 0.19398 0.27444 0.5083 0.0
C490 C 0.22842 0.29836 0.52192 0.0
C491 C 0.21438 0.32123 0.52308 0.0
C492 C 0.19037 0.32071 0.51584 0.0
H493 H 0.25807 0.4812 0.547 0.0
H494 H 0.24542 0.44076 0.52832 0.0
C495 C 0.18025 0.29757 0.5087 0.0
C496 C 0.22431 0.34546 0.5328 0.0
H497 H 0.21655 0.38966 0.5771 0.0
C498 C 0.24319 0.35724 0.5211 0.0
C499 C 0.21491 0.35713 0.55349 0.0
C500 C 0.19552 0.34477 0.56766 0.0
C501 C 0.25265 0.38059 0.52935 0.0
C502 C 0.24273 0.39263 0.54963 0.0
C503 C 0.22404 0.38062 0.56142 0.0
C504 C 0.25201 0.41698 0.55984 0.0
C505 C 0.27347 0.39187 0.51659 0.0
C506 C 0.25968 0.41721 0.58375 0.0
C507 C 0.26652 0.4402 0.59443 0.0
C508 C 0.266 0.4636 0.58147 0.0
C509 C 0.2588 0.46342 0.55737 0.0
C510 C 0.25173 0.44029 0.54666 0.0
H511 H 0.28268 0.37727 0.50532 0.0
H512 H 0.26694 0.40798 0.50482 0.0
H513 H 0.28658 0.39972 0.52948 0.0
H514 H 0.25999 0.39958 0.59435 0.0
H515 H 0.27178 0.43966 0.61308 0.0
H516 H 0.81112 0.01032 0.82795 0.0
H517 H 0.84909 0.99749 0.8102 0.0
H518 H 0.83742 0.91795 0.82935 0.0
H519 H 0.79931 0.93057 0.84717 0.0
H520 H 0.88308 0.93914 0.84467 0.0
H521 H 0.86322 0.95552 0.74818 0.0
H522 H 0.85462 0.98128 0.7679 0.0
H523 H 0.84013 0.95082 0.76976 0.0
C524 C 0.8164 0.99001 0.82807 0.0
C525 C 0.80211 0.97146 0.83897 0.0
C526 C 0.83811 0.98272 0.81784 0.0
C527 C 0.84603 0.95676 0.81836 0.0
C528 C 0.83158 0.93809 0.8287 0.0
H529 H 0.96527 0.87196 0.76157 0.0
H530 H 0.92648 0.88911 0.77383 0.0
C531 C 0.80974 0.94532 0.83875 0.0
C532 C 0.87003 0.94937 0.80947 0.0
H533 H 0.90325 0.94493 0.75902 0.0
C534 C 0.88751 0.94046 0.82596 0.0
C535 C 0.87575 0.95113 0.78505 0.0
C536 C 0.85746 0.96002 0.76658 0.0
C537 C 0.91057 0.93331 0.81866 0.0
C538 C 0.91628 0.93506 0.79428 0.0
C539 C 0.89884 0.94393 0.77775 0.0
C540 C 0.93976 0.92583 0.78553 0.0
C541 C 0.92867 0.92341 0.83692 0.0
C542 C 0.96008 0.94098 0.7878 0.0
C543 C 0.98239 0.93131 0.78051 0.0
C544 C 0.98463 0.9063 0.77102 0.0
C545 C 0.96413 0.8914 0.76856 0.0
C546 C 0.94192 0.90112 0.77561 0.0
H547 H 0.92111 0.92207 0.85505 0.0
H548 H 0.93559 0.90398 0.83172 0.0
H549 H 0.944 0.93654 0.83751 0.0
H550 H 0.95872 0.96011 0.79546 0.0
H551 H 0.99788 0.94317 0.78269 0.0
H552 H 0.33488 0.67897 0.97176 0.0
H553 H 0.3162 0.63899 0.98403 0.0
H554 H 0.31591 0.66497 0.05685 0.0
H555 H 0.33498 0.70492 0.04485 0.0
H556 H 0.33728 0.61658 0.05132 0.0
H557 H 0.24918 0.62107 1.00481 0.0
H558 H 0.27419 0.62638 0.98596 0.0
H559 H 0.26712 0.64925 1.0089 0.0
C560 C 0.33044 0.67647 0.99034 0.0
C561 C 0.33656 0.69517 1.00735 0.0
C562 C 0.31961 0.6536 0.99729 0.0
C563 C 0.31449 0.64904 0.02132 0.0
C564 C 0.31965 0.66813 0.03818 0.0
H565 H 0.26543 0.52816 0.1107 0.0
H566 H 0.27757 0.56793 0.09144 0.0
C567 C 0.3305 0.69101 0.03127 0.0
C568 C 0.30597 0.62346 0.02928 0.0
H569 H 0.26028 0.58128 0.02394 0.0
C570 C 0.32042 0.60891 0.04534 0.0
C571 C 0.28412 0.61331 0.02121 0.0
C572 C 0.26762 0.62836 1.00442 0.0
C573 C 0.31355 0.58465 0.05374 0.0
C574 C 0.29149 0.57474 0.04612 0.0
C575 C 0.27723 0.58893 0.02964 0.0
C576 C 0.28229 0.55074 0.05678 0.0
C577 C 0.32992 0.56978 0.07083 0.0
C578 C 0.28024 0.52797 0.04346 0.0
C579 C 0.27316 0.50498 0.0545 0.0
C580 C 0.26793 0.50464 0.07891 0.0
C581 C 0.26931 0.52773 0.09187 0.0
C582 C 0.27634 0.55051 0.08092 0.0
H583 H 0.34845 0.57679 0.07026 0.0
H584 H 0.32339 0.5723 0.08926 0.0
H585 H 0.33015 0.54878 0.06679 0.0
H586 H 0.28471 0.52784 0.02475 0.0
H587 H 0.27219 0.48746 0.0441 0.0
H588 H 0.55187 0.03583 0.29692 0.0
H589 H 0.59176 0.02279 0.31234 0.0
H590 H 0.62102 0.09062 0.27987 0.0
H591 H 0.58153 0.10403 0.2653 0.0
H592 H 0.63447 0.01205 0.29064 0.0
H593 H 0.64376 0.09806 0.34783 0.0
H594 H 0.61575 0.08975 0.33408 0.0
H595 H 0.63765 0.10667 0.31728 0.0
C596 C 0.56687 0.04784 0.29304 0.0
C597 C 0.56352 0.07099 0.27996 0.0
C598 C 0.58964 0.04042 0.30186 0.0
C599 C 0.60935 0.05606 0.29777 0.0
C600 C 0.60606 0.07859 0.28388 0.0
H601 H 0.76227 0.04838 0.32878 0.0
H602 H 0.72185 0.05977 0.31375 0.0
C603 C 0.58344 0.08607 0.27529 0.0
C604 C 0.63341 0.04909 0.30789 0.0
H605 H 0.67926 0.07276 0.34147 0.0
C606 C 0.64416 0.02523 0.30192 0.0
C607 C 0.64614 0.06627 0.32267 0.0
C608 C 0.63514 0.09149 0.33105 0.0
C609 C 0.66744 0.01841 0.30977 0.0
C610 C 0.68029 0.03584 0.32409 0.0
C611 C 0.6695 0.05957 0.33026 0.0
C612 C 0.70471 0.02943 0.33339 0.0
C613 C 0.67836 0.99283 0.30229 0.0
C614 C 0.70838 0.0092 0.34995 0.0
C615 C 0.73131 1.0029 0.35858 0.0
C616 C 0.7511 0.0164 0.3507 0.0
C617 C 0.74736 0.03735 0.33486 0.0
C618 C 0.72432 0.04381 0.32624 0.0
H619 H 0.66832 0.9842 0.28724 0.0
H620 H 0.69716 0.99514 0.29697 0.0
H621 H 0.67824 0.97907 0.31758 0.0
H622 H 0.69345 0.99843 0.35639 0.0
H623 H 0.73341 0.98797 0.37196 0.0
H624 H 0.70794 0.20811 0.5432 0.0
H625 H 0.72635 0.16715 0.5299 0.0
H626 H 0.71413 0.19067 0.45665 0.0
H627 H 0.69598 0.23162 0.47003 0.0
H628 H 0.70472 0.12978 0.5038 0.0
H629 H 0.78295 0.16493 0.45542 0.0
H630 H 0.76614 0.18513 0.47554 0.0
H631 H 0.75549 0.18031 0.44553 0.0
C632 C 0.70973 0.20465 0.52429 0.0
C633 C 0.701 0.22299 0.50757 0.0
C634 C 0.72011 0.18127 0.5167 0.0
C635 C 0.72192 0.17592 0.49226 0.0
C636 C 0.7135 0.19457 0.47557 0.0
H637 H 0.73232 0.0277 0.42174 0.0
H638 H 0.7188 0.06722 0.4416 0.0
C639 C 0.70316 0.21794 0.48318 0.0
C640 C 0.73113 0.15025 0.48421 0.0
H641 H 0.77215 0.12126 0.44814 0.0
C642 C 0.71961 0.12789 0.4918 0.0
C643 C 0.75072 0.14772 0.46876 0.0
C644 C 0.7647 0.17077 0.46101 0.0
C645 C 0.72672 0.10318 0.48387 0.0
C646 C 0.74561 0.10077 0.46755 0.0
C647 C 0.75753 0.12307 0.46048 0.0
C648 C 0.75322 0.07544 0.45733 0.0
C649 C 0.71407 0.07988 0.49322 0.0
C650 C 0.77708 0.06683 0.45946 0.0
C651 C 0.78491 0.04433 0.44798 0.0
C652 C 0.76905 0.02992 0.43404 0.0
C653 C 0.74497 0.0381 0.43257 0.0
C654 C 0.73717 0.06072 0.44397 0.0
H655 H 0.70536 0.08402 0.51047 0.0
H656 H 0.69999 0.07448 0.48022 0.0
H657 H 0.72657 0.06305 0.49571 0.0
H658 H 0.78979 0.07785 0.46964 0.0
H659 H 0.80357 0.03864 0.44953 0.0
H660 H 0.08358 0.40296 0.7791 0.0
H661 H 0.11938 0.42319 0.76489 0.0
H662 H 0.08259 0.44567 0.69962 0.0
H663 H 0.04665 0.42471 0.71345 0.0
H664 H 0.12419 0.4217 0.6908 0.0
H665 H 0.13968 0.4967 0.75858 0.0
H666 H 0.13661 0.46533 0.77188 0.0
H667 H 0.11178 0.48032 0.75586 0.0
C668 C 0.08285 0.41261 0.76189 0.0
C669 C 0.06215 0.4121 0.7474 0.0
C670 C 0.10339 0.42436 0.75384 0.0
C671 C 0.10368 0.43625 0.73128 0.0
C672 C 0.08278 0.43669 0.71714 0.0
H673 H 0.22201 0.52278 0.67612 0.0
H674 H 0.1848 0.50933 0.69365 0.0
C675 C 0.06219 0.4248 0.72512 0.0
C676 C 0.12635 0.44603 0.72169 0.0
H677 H 0.17306 0.48504 0.73434 0.0
C678 C 0.13476 0.43573 0.70022 0.0
C679 C 0.1401 0.46451 0.73385 0.0
C680 C 0.13146 0.47755 0.75618 0.0
C681 C 0.15668 0.44295 0.69084 0.0
C682 C 0.17098 0.46046 0.7036 0.0
C683 C 0.16233 0.47125 0.72478 0.0
C684 C 0.19451 0.46856 0.69474 0.0
C685 C 0.16408 0.43207 0.66711 0.0
C686 C 0.21278 0.45023 0.69025 0.0
C687 C 0.23413 0.45783 0.68004 0.0
C688 C 0.23773 0.48398 0.67438 0.0
C689 C 0.21989 0.50244 0.68013 0.0
C690 C 0.19853 0.4948 0.69018 0.0
H691 H 0.14856 0.425 0.65674 0.0
H692 H 0.17312 0.4468 0.65623 0.0
H693 H 0.17667 0.41543 0.67018 0.0
H694 H 0.21036 0.42994 0.69423 0.0
H695 H 0.24753 0.44313 0.67601 0.0
H696 H 0.76336 0.96945 0.9678 0.0
H697 H 0.77188 0.92842 0.98927 0.0
H698 H 0.78892 0.8916 0.92267 0.0
H699 H 0.7794 0.93175 0.90137 0.0
H700 H 0.76373 0.86062 0.94818 0.0
H701 H 0.83602 0.89827 1.00606 0.0
H702 H 0.80742 0.91389 1.00968 0.0
H703 H 0.82275 0.91712 0.98194 0.0
C704 C 0.76893 0.95252 0.95788 0.0
C705 C 0.77085 0.9538 0.93297 0.0
C706 C 0.77393 0.92913 0.97013 0.0
C707 C 0.78146 0.9069 0.95768 0.0
C708 C 0.78312 0.90834 0.93277 0.0
H709 H 0.87242 0.7799 0.99279 0.0
H710 H 0.85168 0.82076 0.9837 0.0
C711 C 0.77774 0.9314 0.92058 0.0
C712 C 0.78804 0.882 0.97004 0.0
H713 H 0.82823 0.85408 1.00939 0.0
C714 C 0.77773 0.8592 0.96172 0.0
C715 C 0.80631 0.88009 0.98771 0.0
C716 C 0.81894 0.90358 0.99678 0.0
C717 C 0.78607 0.8346 0.96942 0.0
C718 C 0.80467 0.83267 0.98674 0.0
C719 C 0.81399 0.85552 0.99612 0.0
C720 C 0.81678 0.80749 0.99322 0.0
C721 C 0.77589 0.81102 0.95773 0.0
C722 C 0.8042 0.7862 1.00181 0.0
C723 C 0.81609 0.76241 1.00655 0.0
C724 C 0.84078 0.75979 1.00332 0.0
C725 C 0.85336 0.7813 0.99543 0.0
C726 C 0.8415 0.80476 0.99032 0.0
H727 H 0.76589 0.81604 0.941 0.0
H728 H 0.7902 0.79665 0.95347 0.0
H729 H 0.76336 0.80179 0.97008 0.0
H730 H 0.78525 0.78792 1.00484 0.0
H731 H 0.80605 0.74619 0.01291 0.0
H732 H 0.48045 0.57503 0.19273 0.0
H733 H 0.44361 0.55403 0.18043 0.0
H734 H 0.4372 0.52177 0.2511 0.0
H735 H 0.47357 0.54309 0.26364 0.0
H736 H 0.42734 0.50355 0.18036 0.0
H737 H 0.3759 0.56508 0.24291 0.0
H738 H 0.40651 0.57099 0.23583 0.0
H739 H 0.39945 0.54614 0.25701 0.0
C740 C 0.47143 0.56305 0.2055 0.0
C741 C 0.47969 0.56097 0.22922 0.0
C742 C 0.45035 0.55114 0.19848 0.0
C743 C 0.43737 0.53692 0.21505 0.0
C744 C 0.4466 0.53324 0.23823 0.0
H745 H 0.31277 0.44602 0.17806 0.0
H746 H 0.35151 0.45938 0.19349 0.0
C747 C 0.46746 0.54532 0.24531 0.0
C748 C 0.41353 0.52724 0.20857 0.0
H749 H 0.35474 0.53246 0.22299 0.0
C750 C 0.41145 0.5098 0.18967 0.0
C751 C 0.39278 0.53578 0.22055 0.0
C752 C 0.39365 0.55572 0.24005 0.0
C753 C 0.38917 0.50053 0.1825 0.0
C754 C 0.36852 0.50856 0.19491 0.0
C755 C 0.37062 0.52607 0.21374 0.0
C756 C 0.34438 0.50032 0.18768 0.0
C757 C 0.38788 0.48289 0.16124 0.0
C758 C 0.32706 0.51896 0.18054 0.0
C759 C 0.3048 0.51144 0.17205 0.0
C760 C 0.29944 0.48507 0.17049 0.0
C761 C 0.31639 0.46647 0.17882 0.0
C762 C 0.33863 0.47405 0.18745 0.0
H763 H 0.40418 0.48374 0.15032 0.0
H764 H 0.3861 0.46264 0.16754 0.0
H765 H 0.37218 0.48801 0.14971 0.0
H766 H 0.33105 0.53936 0.18076 0.0
H767 H 0.2922 0.5263 0.1658 0.0
H768 H 0.50226 0.18127 0.30705 0.0
H769 H 0.51503 0.20168 0.34408 0.0
H770 H 0.58829 0.18237 0.32841 0.0
H771 H 0.57575 0.16241 0.29116 0.0
H772 H 0.53704 0.17601 0.38058 0.0
H773 H 0.59356 0.25598 0.35103 0.0
H774 H 0.57361 0.23968 0.33094 0.0
H775 H 0.60241 0.2255 0.33843 0.0
C776 C 0.52115 0.18195 0.31117 0.0
C777 C 0.53799 0.17019 0.29613 0.0
C778 C 0.5284 0.19355 0.3324 0.0
C779 C 0.55262 0.19369 0.339 0.0
C780 C 0.56955 0.18299 0.3235 0.0
H781 H 0.61494 0.196 0.48086 0.0
H782 H 0.59665 0.18398 0.44281 0.0
C783 C 0.56233 0.17153 0.30218 0.0
C784 C 0.55994 0.20274 0.36301 0.0
H785 H 0.59778 0.24293 0.39198 0.0
C786 C 0.55014 0.19085 0.38308 0.0
C787 C 0.57686 0.22224 0.36628 0.0
C788 C 0.58704 0.23678 0.34552 0.0
C789 C 0.55724 0.19744 0.40631 0.0
C790 C 0.575 0.21606 0.40954 0.0
C791 C 0.58433 0.22846 0.38949 0.0
C792 C 0.58438 0.22288 0.43351 0.0
C793 C 0.5455 0.18456 0.42712 0.0
C794 C 0.58366 0.24873 0.44093 0.0
C795 C 0.59427 0.25568 0.46255 0.0
C796 C 0.60588 0.23691 0.47721 0.0
C797 C 0.60594 0.21088 0.47012 0.0
C798 C 0.59543 0.20397 0.44838 0.0
H799 H 0.5278 0.17703 0.42199 0.0
H800 H 0.55688 0.16793 0.43342 0.0
H801 H 0.54317 0.19817 0.44217 0.0
H802 H 0.57524 0.26364 0.42976 0.0
H803 H 0.59384 0.2759 0.46748 0.0
H804 H 0.10099 0.29212 0.53015 0.0
H805 H 0.08137 0.30319 0.56763 0.0
H806 H 0.07695 0.22217 0.58523 0.0
H807 H 0.09644 0.21088 0.54804 0.0
H808 H 0.03571 0.28603 0.58829 0.0
H809 H 0.1163 0.25467 0.64096 0.0
H810 H 0.11717 0.26145 0.60937 0.0
H811 H 0.10514 0.23171 0.61992 0.0
C812 C 0.09551 0.27665 0.5418 0.0
C813 C 0.1005 0.25063 0.53613 0.0
C814 C 0.08433 0.28301 0.56323 0.0
C815 C 0.07808 0.26349 0.57936 0.0
C816 C 0.08197 0.23752 0.5732 0.0
H817 H 0.03391 0.27221 0.72858 0.0
H818 H 0.04423 0.25592 0.68886 0.0
C819 C 0.09306 0.23114 0.55185 0.0
C820 C 0.06857 0.27021 0.60311 0.0
H821 H 0.0827 0.26834 0.66256 0.0
C822 C 0.04593 0.28216 0.60455 0.0
C823 C 0.08188 0.26492 0.6243 0.0
C824 C 0.10655 0.25265 0.62372 0.0
C825 C 0.03622 0.28896 0.62667 0.0
C826 C 0.04978 0.28423 0.64785 0.0
C827 C 0.07227 0.27187 0.64638 0.0
C828 C 0.04177 0.29351 0.67153 0.0
C829 C 0.01142 0.30088 0.62711 0.0
C830 C 0.03708 0.31998 0.67502 0.0
C831 C 0.03117 0.32921 0.69753 0.0
C832 C 0.03004 0.31223 0.71717 0.0
C833 C 0.03456 0.28569 0.71374 0.0
C834 C 0.04046 0.2764 0.69108 0.0
H835 H 1.00074 0.29526 0.61122 0.0
H836 H 1.00187 0.29504 0.6434 0.0
H837 H 0.0126 0.32227 0.62688 0.0
H838 H 0.03864 0.33368 0.66046 0.0
H839 H 0.02807 0.34983 0.69965 0.0
H840 H 0.97349 0.79979 0.77995 0.0
H841 H 0.95956 0.7795 0.81652 0.0
H842 H 0.02906 0.7875 0.84901 0.0
H843 H 0.04335 0.80712 0.81238 0.0
H844 H 1.00883 0.74203 0.86195 0.0
H845 H 0.9451 0.82461 0.87361 0.0
H846 H 0.94083 0.80774 0.84611 0.0
H847 H 0.96796 0.82472 0.8514 0.0
C848 C 0.98595 0.79681 0.79471 0.0
C849 C 1.00945 0.80542 0.79332 0.0
C850 C 0.9779 0.78539 0.81567 0.0
C851 C 0.99308 0.78269 0.83572 0.0
C852 C 0.01697 0.78962 0.83384 0.0
H853 H 0.94234 0.77392 0.98089 0.0
H854 H 0.96234 0.78598 0.94419 0.0
C855 C 0.02511 0.80083 0.81283 0.0
C856 C 0.98377 0.77418 0.85904 0.0
H857 H 0.94254 0.78976 0.90099 0.0
C858 C 0.99435 0.75245 0.87053 0.0
C859 C 0.96525 0.78818 0.87047 0.0
C860 C 0.95427 0.81276 0.85991 0.0
C861 C 0.98661 0.74405 0.89294 0.0
C862 C 0.96744 0.75745 0.9039 0.0
C863 C 0.95713 0.77939 0.89254 0.0
C864 C 0.95751 0.74908 0.92703 0.0
C865 C 0.99939 0.72126 0.90485 0.0
C866 C 0.94835 0.72424 0.92973 0.0
C867 C 0.93713 0.7172 0.95079 0.0
C868 C 0.93447 0.73503 0.96945 0.0
C869 C 0.94405 0.75973 0.96689 0.0
C870 C 0.95547 0.76667 0.94589 0.0
H871 H 0.01774 0.71851 0.89803 0.0
H872 H 1.00043 0.72367 0.92448 0.0
H873 H 0.98953 0.70341 0.90098 0.0
H874 H 0.94915 0.71054 0.91525 0.0
H875 H 0.9298 0.69807 0.95205 0.0
H876 H 0.46008 0.65639 0.22407 0.0
H877 H 0.44776 0.67403 0.18474 0.0
H878 H 0.52093 0.69036 0.16959 0.0
H879 H 0.5331 0.67335 0.2091 0.0
H880 H 0.45796 0.72583 0.1617 0.0
H881 H 0.49703 0.64052 0.115 0.0
H882 H 0.48982 0.63958 0.14625 0.0
H883 H 0.51562 0.65625 0.1366 0.0
C884 C 0.47339 0.6643 0.2125 0.0
C885 C 0.49753 0.66346 0.21945 0.0
C886 C 0.4664 0.67421 0.19002 0.0
C887 C 0.48347 0.68314 0.17407 0.0
C888 C 0.50749 0.68322 0.18144 0.0
H889 H 0.46656 0.72363 0.02123 0.0
H890 H 0.484 0.71431 0.0611 0.0
C891 C 0.51444 0.67349 0.20396 0.0
C892 C 0.47626 0.69151 0.14946 0.0
H893 H 0.47874 0.67319 0.09107 0.0
C894 C 0.46255 0.71438 0.14624 0.0
C895 C 0.4825 0.67672 0.12926 0.0
C896 C 0.49693 0.6518 0.13177 0.0
C897 C 0.45479 0.72279 0.12341 0.0
C898 C 0.46027 0.70751 0.10323 0.0
C899 C 0.47449 0.68493 0.10644 0.0
C900 C 0.45011 0.71369 0.07899 0.0
C901 C 0.44099 0.74816 0.12115 0.0
C902 C 0.42533 0.71598 0.07561 0.0
C903 C 0.41546 0.72136 0.05304 0.0
C904 C 0.43006 0.72432 0.0331 0.0
C905 C 0.45488 0.72158 0.03627 0.0
C906 C 0.46482 0.71627 0.05904 0.0
H907 H 0.44537 0.76132 0.13606 0.0
H908 H 0.44466 0.75815 0.10405 0.0
H909 H 0.42164 0.74444 0.12183 0.0
H910 H 0.41349 0.71326 0.09042 0.0
H911 H 0.39624 0.72287 0.0512 0.0
H912 H 0.19807 0.34354 0.35718 0.0
H913 H 0.21005 0.35692 0.31732 0.0
H914 H 0.15942 0.30522 0.28605 0.0
H915 H 0.14694 0.29224 0.32598 0.0
H916 H 0.22867 0.33143 0.27947 0.0
H917 H 0.13902 0.37307 0.25535 0.0
H918 H 0.14684 0.36282 0.28531 0.0
H919 H 0.13965 0.3393 0.26307 0.0
C920 C 0.18964 0.33487 0.3418 0.0
C921 C 0.1714 0.31705 0.34467 0.0
C922 C 0.19648 0.34253 0.31903 0.0
C923 C 0.18534 0.33243 0.29867 0.0
C924 C 0.16783 0.31379 0.30148 0.0
H925 H 0.20641 0.39713 0.15388 0.0
H926 H 0.19872 0.36344 0.18403 0.0
C927 C 0.16076 0.30635 0.32428 0.0
C928 C 0.19159 0.34236 0.2747 0.0
H929 H 0.16912 0.37753 0.22725 0.0
C930 C 0.21558 0.34119 0.26791 0.0
C931 C 0.17448 0.35504 0.25953 0.0
C932 C 0.14859 0.35788 0.26619 0.0
C933 C 0.22305 0.35333 0.24693 0.0
C934 C 0.20612 0.36692 0.23241 0.0
C935 C 0.18198 0.36684 0.2384 0.0
C936 C 0.21344 0.38497 0.21346 0.0
C937 C 0.24911 0.35242 0.24085 0.0
C938 C 0.22434 0.40795 0.2201 0.0
C939 C 0.22828 0.42717 0.20319 0.0
C940 C 0.22161 0.42368 0.17924 0.0
C941 C 0.21175 0.40017 0.17226 0.0
C942 C 0.20737 0.381 0.1894 0.0
H943 H 0.25876 0.33605 0.25001 0.0
H944 H 0.25147 0.35062 0.2213 0.0
H945 H 0.25734 0.37069 0.2466 0.0
H946 H 0.22887 0.4115 0.23862 0.0
H947 H 0.23602 0.44509 0.20898 0.0
H948 H 0.89936 0.86859 0.61122 0.0
H949 H 0.88115 0.88339 0.57362 0.0
H950 H 0.94268 0.92881 0.55915 0.0
H951 H 0.96153 0.91327 0.59648 0.0
H952 H 0.86922 0.9332 0.55913 0.0
H953 H 0.93461 0.88842 0.49733 0.0
H954 H 0.93347 0.87943 0.52844 0.0
H955 H 0.9468 0.90919 0.5197 0.0
C956 C 0.90927 0.88139 0.59992 0.0
C957 C 0.93208 0.88948 0.60687 0.0
C958 C 0.89871 0.89002 0.57847 0.0
C959 C 0.91064 0.90695 0.56335 0.0
C960 C 0.93329 0.91538 0.57028 0.0
H961 H 0.84567 0.97384 0.43021 0.0
H962 H 0.87349 0.96772 0.4644 0.0
C963 C 0.94393 0.9067 0.59179 0.0
C964 C 0.8989 0.91596 0.54067 0.0
H965 H 0.90236 0.91229 0.47991 0.0
C966 C 0.87663 0.92887 0.54183 0.0
C967 C 0.90856 0.91035 0.51804 0.0
C968 C 0.93208 0.89592 0.51564 0.0
C969 C 0.86351 0.93565 0.52109 0.0
C970 C 0.8728 0.92931 0.49857 0.0
C971 C 0.89541 0.91727 0.49725 0.0
C972 C 0.85787 0.93226 0.47662 0.0
C973 C 0.83937 0.94882 0.52332 0.0
C974 C 0.84031 0.91412 0.472 0.0
C975 C 0.82464 0.91748 0.45262 0.0
C976 C 0.82617 0.93907 0.43738 0.0
C977 C 0.84426 0.95689 0.44152 0.0
C978 C 0.86006 0.95347 0.46105 0.0
H979 H 0.83634 0.95617 0.5416 0.0
H980 H 0.83744 0.96521 0.51044 0.0
H981 H 0.82532 0.93481 0.51898 0.0
H982 H 0.83836 0.89763 0.4838 0.0
H983 H 0.81088 0.90344 0.4499 0.0
H984 H 0.31024 0.52014 0.71278 0.0
H985 H 0.31673 0.5534 0.74242 0.0
H986 H 0.32385 0.61039 0.68664 0.0
H987 H 0.31728 0.57669 0.65637 0.0
H988 H 0.36241 0.58627 0.73961 0.0
H989 H 0.2751 0.64 0.74184 0.0
H990 H 0.27645 0.6063 0.73353 0.0
H991 H 0.28799 0.63024 0.71391 0.0
C992 C 0.31299 0.53976 0.70668 0.0
C993 C 0.31351 0.54576 0.68222 0.0
C994 C 0.31663 0.55877 0.7237 0.0
C995 C 0.32078 0.58429 0.71674 0.0
C996 C 0.32056 0.59075 0.69233 0.0
H997 H 0.35283 0.70092 0.82629 0.0
H998 H 0.34186 0.68203 0.78779 0.0
C999 C 0.31687 0.57155 0.6751 0.0
C1000 C 0.32713 0.6031 0.73545 0.0
H1001 H 0.30276 0.64787 0.77305 0.0
C1002 C 0.34955 0.60013 0.74665 0.0
C1003 C 0.31031 0.62112 0.74453 0.0
C1004 C 0.28605 0.62481 0.73295 0.0
C1005 C 0.35526 0.61387 0.76734 0.0
C1006 C 0.33792 0.63067 0.77739 0.0
C1007 C 0.31593 0.63478 0.76544 0.0
C1008 C 0.34203 0.64264 0.80104 0.0
C1009 C 0.37965 0.60978 0.77863 0.0
C1010 C 0.34497 0.62686 0.82141 0.0
C1011 C 0.3511 0.63754 0.8434 0.0
C1012 C 0.35439 0.66432 0.84557 0.0
C1013 C 0.3503 0.68026 0.82533 0.0
C1014 C 0.34413 0.6695 0.80328 0.0
H1015 H 0.39274 0.60212 0.76563 0.0
H1016 H 0.38634 0.62811 0.78607 0.0
H1017 H 0.37857 0.59551 0.79343 0.0
H1018 H 0.34301 0.60611 0.82017 0.0
H1019 H 0.35362 0.62474 0.85866 0.0
H1020 H 0.59255 0.04178 0.11379 0.0
H1021 H 0.61015 0.02705 0.07639 0.0
H1022 H 0.63481 0.10398 0.06279 0.0
H1023 H 0.61794 0.11869 0.10034 0.0
H1024 H 0.60252 0.04476 0.02837 0.0
H1025 H 0.69566 0.05814 0.0594 0.0
H1026 H 0.67092 0.05775 0.07954 0.0
H1027 H 0.67671 0.08641 0.06243 0.0
C1028 C 0.60184 0.05554 0.1029 0.0
C1029 C 0.60394 0.08141 0.1102 0.0
C1030 C 0.61173 0.04712 0.08145 0.0
C1031 C 0.62408 0.06432 0.06697 0.0
C1032 C 0.62566 0.09027 0.07386 0.0
H1033 H 0.7052 0.06086 0.93858 0.0
H1034 H 0.6821 0.07177 0.97366 0.0
C1035 C 0.61577 0.09871 0.09525 0.0
C1036 C 0.63575 0.05516 0.04488 0.0
H1037 H 0.68987 0.04994 0.01818 0.0
C1038 C 0.62164 0.0457 0.02615 0.0
C1039 C 0.66071 0.05624 0.0421 0.0
C1040 C 0.67695 0.06494 0.062 0.0
C1041 C 0.63174 0.03822 1.00436 0.0
C1042 C 0.65665 0.0399 1.00141 0.0
C1043 C 0.67076 0.04882 0.02037 0.0
C1044 C 0.66858 0.03334 0.97868 0.0
C1045 C 0.61562 0.0294 0.98443 0.0
C1046 C 0.66841 0.00812 0.96952 0.0
C1047 C 0.68161 1.00177 0.94926 0.0
C1048 C 0.69539 0.0205 0.93795 0.0
C1049 C 0.69491 0.04588 0.94683 0.0
C1050 C 0.6817 0.05219 0.96694 0.0
H1051 H 0.59667 0.03489 0.98755 0.0
H1052 H 0.62099 0.03774 0.96708 0.0
H1053 H 0.61701 0.008 0.98315 0.0
H1054 H 0.65876 0.99311 0.9785 0.0
H1055 H 0.68168 0.98199 0.94302 0.0
H1056 H 0.69869 0.12116 0.65134 0.0
H1057 H 0.71018 0.10305 0.6903 0.0
H1058 H 0.6794 0.17005 0.72458 0.0
H1059 H 0.66702 0.18794 0.68562 0.0
H1060 H 0.73905 0.12191 0.72682 0.0
H1061 H 0.64595 0.11038 0.75717 0.0
H1062 H 0.65286 0.11721 0.72649 0.0
H1063 H 0.65379 0.14248 0.74824 0.0
C1064 C 0.69417 0.132 0.66714 0.0
C1065 C 0.68164 0.15589 0.66528 0.0
C1066 C 0.70095 0.12171 0.68942 0.0
C1067 C 0.69535 0.13498 0.71041 0.0
C1068 C 0.68355 0.15923 0.70866 0.0
H1069 H 0.71554 0.06461 0.85452 0.0
H1070 H 0.70995 0.09897 0.82399 0.0
C1071 C 0.67671 0.16956 0.68633 0.0
C1072 C 0.70146 0.12287 0.73395 0.0
H1073 H 0.67666 0.09507 0.78286 0.0
C1074 C 0.72542 0.11635 0.73921 0.0
C1075 C 0.68369 0.11574 0.75023 0.0
C1076 C 0.6576 0.12159 0.74529 0.0
C1077 C 0.73198 0.10208 0.75982 0.0
C1078 C 0.71412 0.09384 0.77543 0.0
C1079 C 0.69032 0.10151 0.77089 0.0
C1080 C 0.7193 0.07426 0.79444 0.0
C1081 C 0.75794 0.09529 0.76444 0.0
C1082 C 0.72637 0.04913 0.78791 0.0
C1083 C 0.72925 0.02964 0.80511 0.0
C1084 C 0.72522 0.03481 0.82927 0.0
C1085 C 0.71878 0.06014 0.83601 0.0
C1086 C 0.71559 0.07972 0.81863 0.0
H1087 H 0.76972 0.10893 0.75516 0.0
H1088 H 0.76226 0.09541 0.78383 0.0
H1089 H 0.76189 0.07555 0.75768 0.0
H1090 H 0.72899 0.04439 0.76935 0.0
H1091 H 0.7343 0.01033 0.79938 0.0
H1092 H 0.17115 0.47937 0.07242 0.0
H1093 H 0.14524 0.47056 0.038 0.0
H1094 H 0.18025 0.39598 0.02994 0.0
H1095 H 0.2058 0.4043 0.06428 0.0
H1096 H 0.15923 0.46095 0.99161 0.0
H1097 H 0.11047 0.37766 0.02681 0.0
H1098 H 0.12707 0.39891 0.04589 0.0
H1099 H 0.14209 0.37304 0.03036 0.0
C1100 C 0.1731 0.46093 0.06354 0.0
C1101 C 0.19054 0.44251 0.0712 0.0
C1102 C 0.15831 0.45597 0.04384 0.0
C1103 C 0.16058 0.43246 0.03164 0.0
C1104 C 0.17779 0.414 0.03942 0.0
H1105 H 0.12772 0.35995 0.9015 0.0
H1106 H 0.14377 0.37735 0.93862 0.0
C1107 C 0.19252 0.41889 0.05902 0.0
C1108 C 0.14612 0.42751 0.00989 0.0
H1109 H 0.11139 0.38199 0.98398 0.0
C1110 C 0.14836 0.44399 0.99006 0.0
C1111 C 0.13186 0.40543 1.00794 0.0
C1112 C 0.12751 0.38791 0.02898 0.0
C1113 C 0.13783 0.43809 0.96794 0.0
C1114 C 0.1248 0.41523 0.96573 0.0
C1115 C 0.12163 0.39941 0.98577 0.0
C1116 C 0.11569 0.40635 0.94243 0.0
C1117 C 0.14155 0.45557 0.94675 0.0
C1118 C 0.09472 0.41717 0.93224 0.0
C1119 C 0.08533 0.4071 0.9111 0.0
C1120 C 0.09679 0.38603 0.89988 0.0
C1121 C 0.11823 0.37588 0.90986 0.0
C1122 C 0.12751 0.38586 0.93099 0.0
H1123 H 0.15293 0.47217 0.95121 0.0
H1124 H 0.14996 0.44437 0.93217 0.0
H1125 H 0.12404 0.46318 0.93994 0.0
H1126 H 0.08531 0.43291 0.94098 0.0
H1127 H 0.06867 0.41519 0.90404 0.0
H1128 H 0.79306 0.89486 0.33352 0.0
H1129 H 0.80473 0.86989 0.29853 0.0
H1130 H 0.85579 0.92755 0.28066 0.0
H1131 H 0.84468 0.95233 0.31572 0.0
H1132 H 0.80152 0.88413 0.25172 0.0
H1133 H 0.89587 0.86194 0.27572 0.0
H1134 H 0.87472 0.87404 0.29709 0.0
H1135 H 0.88877 0.89593 0.27687 0.0
C1136 C 0.80699 0.90211 0.32234 0.0
C1137 C 0.81799 0.92562 0.32759 0.0
C1138 C 0.8136 0.8878 0.30228 0.0
C1139 C 0.83141 0.8966 0.28713 0.0
C1140 C 0.84244 0.91999 0.29237 0.0
H1141 H 0.88842 0.86093 0.14967 0.0
H1142 H 0.87671 0.8792 0.18788 0.0
C1143 C 0.83592 0.93425 0.31242 0.0
C1144 C 0.83766 0.88212 0.26519 0.0
H1145 H 0.88465 0.85604 0.23479 0.0
C1146 C 0.81964 0.87769 0.24815 0.0
C1147 C 0.86131 0.87366 0.26053 0.0
C1148 C 0.88123 0.87639 0.27863 0.0
C1149 C 0.82479 0.86593 0.22624 0.0
C1150 C 0.84855 0.85822 0.22133 0.0
C1151 C 0.86647 0.86213 0.23855 0.0
C1152 C 0.85534 0.84685 0.19811 0.0
C1153 C 0.80496 0.86265 0.20815 0.0
C1154 C 0.84733 0.82248 0.19122 0.0
C1155 C 0.85419 0.81181 0.16943 0.0
C1156 C 0.86926 0.82529 0.1541 0.0
C1157 C 0.87714 0.84977 0.16112 0.0
C1158 C 0.87036 0.86034 0.18292 0.0
H1159 H 0.78859 0.87389 0.21285 0.0
H1160 H 0.81065 0.86883 0.19017 0.0
H1161 H 0.80046 0.8419 0.20724 0.0
H1162 H 0.83602 0.81157 0.20285 0.0
H1163 H 0.84806 0.79277 0.16482 0.0
H1164 H 0.32395 0.56704 0.56498 0.0
H1165 H 0.34812 0.57705 0.5306 0.0
H1166 H 0.3883 0.50556 0.54093 0.0
H1167 H 0.36419 0.4953 0.5757 0.0
H1168 H 0.41649 0.55051 0.53008 0.0
H1169 H 0.34107 0.53883 0.46625 0.0
H1170 H 0.3348 0.56039 0.49044 0.0
H1171 H 0.34065 0.5266 0.49648 0.0
C1172 C 0.33799 0.5534 0.56014 0.0
C1173 C 0.34191 0.53017 0.57309 0.0
C1174 C 0.35174 0.55917 0.54035 0.0
C1175 C 0.36972 0.54186 0.53293 0.0
C1176 C 0.37438 0.51911 0.54626 0.0
H1177 H 0.4346 0.54492 0.39301 0.0
H1178 H 0.41459 0.5327 0.42966 0.0
C1179 C 0.36055 0.51326 0.56613 0.0
C1180 C 0.38318 0.54744 0.51095 0.0
H1181 H 0.37601 0.55731 0.45093 0.0
C1182 C 0.4077 0.55188 0.51275 0.0
C1183 C 0.37173 0.54894 0.4883 0.0
C1184 C 0.34566 0.54322 0.4851 0.0
C1185 C 0.42094 0.55842 0.49257 0.0
C1186 C 0.40929 0.56082 0.47006 0.0
C1187 C 0.38489 0.55574 0.46821 0.0
C1188 C 0.42206 0.56825 0.44809 0.0
C1189 C 0.44734 0.56241 0.49546 0.0
C1190 C 0.43271 0.59245 0.44611 0.0
C1191 C 0.44424 0.5995 0.42514 0.0
C1192 C 0.44535 0.58248 0.40571 0.0
C1193 C 0.43445 0.55835 0.40773 0.0
C1194 C 0.42288 0.55137 0.42864 0.0
H1195 H 0.45454 0.55362 0.5123 0.0
H1196 H 0.45724 0.55399 0.48027 0.0
H1197 H 0.45068 0.58347 0.49589 0.0
H1198 H 0.43192 0.60601 0.46071 0.0
H1199 H 0.45254 0.61816 0.42427 0.0
H1200 H 0.20386 0.24492 0.41377 0.0
H1201 H 0.2388 0.23554 0.38926 0.0
H1202 H 0.2473 0.16051 0.42287 0.0
H1203 H 0.21249 0.16948 0.44712 0.0
H1204 H 0.2856 0.22415 0.40488 0.0
H1205 H 0.25071 0.14285 0.35235 0.0
H1206 H 0.23157 0.16459 0.36884 0.0
H1207 H 0.2474 0.13832 0.38385 0.0
C1208 C 0.21297 0.22628 0.41573 0.0
C1209 C 0.20521 0.20793 0.43241 0.0
C1210 C 0.233 0.22099 0.40174 0.0
C1211 C 0.24552 0.19717 0.40396 0.0
C1212 C 0.23768 0.1788 0.42044 0.0
H1213 H 0.37328 0.1196 0.35839 0.0
H1214 H 0.33605 0.13455 0.37612 0.0
C1215 C 0.21777 0.18406 0.43442 0.0
C1216 C 0.26742 0.19174 0.38999 0.0
H1217 H 0.29304 0.14738 0.3528 0.0
C1218 C 0.28715 0.20759 0.39321 0.0
C1219 C 0.26944 0.17013 0.37475 0.0
C1220 C 0.24858 0.15314 0.36952 0.0
C1221 C 0.30914 0.20171 0.38251 0.0
C1222 C 0.31136 0.17961 0.3679 0.0
C1223 C 0.2914 0.16424 0.36411 0.0
C1224 C 0.33447 0.17126 0.35731 0.0
C1225 C 0.33009 0.21858 0.38775 0.0
C1226 C 0.34605 0.18687 0.34071 0.0
C1227 C 0.36757 0.17843 0.33062 0.0
C1228 C 0.37795 0.15416 0.33689 0.0
C1229 C 0.36617 0.13861 0.35347 0.0
C1230 C 0.34471 0.14703 0.3635 0.0
H1231 H 0.32685 0.23138 0.40325 0.0
H1232 H 0.34645 0.20658 0.39141 0.0
H1233 H 0.33336 0.23101 0.37199 0.0
H1234 H 0.33831 0.20546 0.33534 0.0
H1235 H 0.37612 0.19096 0.31797 0.0
H1236 H 0.13765 0.0891 0.60586 0.0
H1237 H 0.12 0.05489 0.62945 0.0
H1238 H 0.05953 0.05447 0.58116 0.0
H1239 H 0.07691 0.08909 0.55751 0.0
H1240 H 0.0747 0.05443 0.65201 0.0
H1241 H 0.08415 0.97817 0.58307 0.0
H1242 H 0.1 0.00808 0.58168 0.0
H1243 H 0.06888 0.0077 0.57391 0.0
C1244 C 0.12043 0.08205 0.60039 0.0
C1245 C 0.1087 0.09189 0.57976 0.0
C1246 C 0.11044 0.06237 0.61383 0.0
C1247 C 0.08862 0.05195 0.60688 0.0
C1248 C 0.07661 0.06195 0.58657 0.0
H1249 H 0.01682 0.92034 0.67138 0.0
H1250 H 0.02597 0.95734 0.64587 0.0
C1251 C 0.08657 0.08171 0.57309 0.0
C1252 C 0.07869 0.03055 0.62102 0.0
H1253 H 0.067 0.96605 0.6194 0.0
C1254 C 0.07287 0.03514 0.64486 0.0
C1255 C 0.07621 0.00545 0.61157 0.0
C1256 C 0.08277 0.99934 0.58621 0.0
C1257 C 0.06495 0.01521 0.65965 0.0
C1258 C 0.06327 0.9899 0.65045 0.0
C1259 C 0.06837 0.98547 0.6264 0.0
C1260 C 0.05756 0.96755 0.66588 0.0
C1261 C 0.05844 0.02143 0.68499 0.0
C1262 C 0.07253 0.96075 0.6853 0.0
C1263 C 0.06738 0.93969 0.6999 0.0
C1264 C 0.04721 0.92482 0.69529 0.0
C1265 C 0.03244 0.93142 0.67554 0.0
C1266 C 0.03763 0.95255 0.66092 0.0
H1267 H 0.05381 0.04231 0.68707 0.0
H1268 H 0.04317 0.0099 0.6909 0.0
H1269 H 0.07393 0.01674 0.69693 0.0
H1270 H 0.08832 0.97169 0.68912 0.0
H1271 H 0.07927 0.93514 0.71483 0.0
H1272 H 0.15663 0.81092 0.86268 0.0
H1273 H 0.19429 0.79758 0.88224 0.0
H1274 H 0.23217 0.81593 0.81832 0.0
H1275 H 0.19464 0.8299 0.79877 0.0
H1276 H 0.22931 0.75927 0.86897 0.0
H1277 H 0.26613 0.85824 0.87031 0.0
H1278 H 0.23495 0.85268 0.86465 0.0
H1279 H 0.25634 0.84648 0.84182 0.0
C1280 C 0.17296 0.81222 0.85277 0.0
C1281 C 0.17254 0.82168 0.82916 0.0
C1282 C 0.19448 0.80442 0.86395 0.0
C1283 C 0.21613 0.80607 0.85188 0.0
C1284 C 0.21576 0.81483 0.82812 0.0
H1285 H 0.35829 0.78223 0.92231 0.0
H1286 H 0.32848 0.78751 0.88961 0.0
C1287 C 0.19421 0.82255 0.81688 0.0
C1288 C 0.23897 0.79902 0.8645 0.0
H1289 H 0.2894 0.8249 0.8884 0.0
C1290 C 0.24256 0.77357 0.87298 0.0
C1291 C 0.25644 0.81759 0.86955 0.0
C1292 C 0.25335 0.84535 0.86129 0.0
C1293 C 0.26271 0.7664 0.88697 0.0
C1294 C 0.27952 0.78528 0.89309 0.0
C1295 C 0.27656 0.81042 0.88365 0.0
C1296 C 0.29816 0.78029 0.91187 0.0
C1297 C 0.26559 0.73873 0.8955 0.0
C1298 C 0.29106 0.77455 0.93511 0.0
C1299 C 0.30784 0.77175 0.95358 0.0
C1300 C 0.33225 0.77466 0.94939 0.0
C1301 C 0.3396 0.77985 0.92603 0.0
C1302 C 0.32261 0.7829 0.9074 0.0
H1303 H 0.25627 0.7253 0.88336 0.0
H1304 H 0.28469 0.73267 0.89691 0.0
H1305 H 0.25764 0.73688 0.9134 0.0
H1306 H 0.27235 0.77292 0.93915 0.0
H1307 H 0.30157 0.76769 0.97135 0.0
H1308 H 0.52069 0.05418 0.17691 0.0
H1309 H 0.50717 0.01899 0.1514 0.0
H1310 H 0.45258 1.00156 0.20183 0.0
H1311 H 0.4656 0.03672 0.22715 0.0
H1312 H 0.50356 0.96605 0.16057 0.0
H1313 H 0.41468 0.01022 0.13973 0.0
H1314 H 0.43852 0.02829 0.15295 0.0
H1315 H 0.42072 0.00776 0.17117 0.0
C1316 C 0.50577 0.0429 0.18256 0.0
C1317 C 0.4941 0.04851 0.20401 0.0
C1318 C 0.49809 0.02277 0.16795 0.0
C1319 C 0.47856 0.00798 0.17447 0.0
C1320 C 0.46731 0.01312 0.19613 0.0
H1321 H 0.40122 0.87648 0.12823 0.0
H1322 H 0.41939 0.91263 0.1488 0.0
C1323 C 0.47489 0.03321 0.21068 0.0
C1324 C 0.46991 0.98697 0.15888 0.0
H1325 H 0.41989 0.9653 0.13082 0.0
C1326 C 0.48536 0.966 0.1538 0.0
C1327 C 0.44619 0.98701 0.14994 0.0
C1328 C 0.42913 0.00965 0.1535 0.0
C1329 C 0.47739 0.94455 0.14091 0.0
C1330 C 0.45344 0.94423 0.13276 0.0
C1331 C 0.43821 0.96551 0.13726 0.0
C1332 C 0.44343 0.92161 0.12035 0.0
C1333 C 0.49435 0.92198 0.13683 0.0
C1334 C 0.45094 0.91465 0.09748 0.0
C1335 C 0.44039 0.89407 0.0855 0.0
C1336 C 0.42208 0.88015 0.09617 0.0
C1337 C 0.41494 0.88702 0.11927 0.0
C1338 C 0.42541 0.90759 0.13114 0.0
H1339 H 0.51094 0.92328 0.14776 0.0
H1340 H 0.48571 0.90345 0.14107 0.0
H1341 H 0.49929 0.92157 0.11776 0.0
H1342 H 0.46457 0.92548 0.08868 0.0
H1343 H 0.44613 0.88955 0.06765 0.0
H1344 H 0.88276 0.35445 0.63901 0.0
H1345 H 0.84473 0.33869 0.62433 0.0
H1346 H 0.81811 0.33797 0.696 0.0
H1347 H 0.85563 0.35518 0.71072 0.0
H1348 H 0.82326 0.29396 0.63435 0.0
H1349 H 0.76496 0.37681 0.66101 0.0
H1350 H 0.79702 0.3783 0.66153 0.0
H1351 H 0.78187 0.36212 0.68516 0.0
C1352 C 0.86868 0.35154 0.65164 0.0
C1353 C 0.8723 0.35634 0.67607 0.0
C1354 C 0.847 0.34221 0.64323 0.0
C1355 C 0.82844 0.33739 0.659 0.0
C1356 C 0.83198 0.34199 0.68341 0.0
H1357 H 0.70577 0.24935 0.60554 0.0
H1358 H 0.73963 0.26196 0.63067 0.0
C1359 C 0.8536 0.35155 0.69183 0.0
C1360 C 0.80562 0.32714 0.64977 0.0
H1361 H 0.74594 0.34083 0.64436 0.0
C1362 C 0.80632 0.30413 0.63662 0.0
C1363 C 0.78355 0.34049 0.65269 0.0
C1364 C 0.78173 0.36591 0.66567 0.0
C1365 C 0.7857 0.29447 0.62576 0.0
C1366 C 0.76362 0.30783 0.62866 0.0
C1367 C 0.76283 0.33046 0.64236 0.0
C1368 C 0.74174 0.30044 0.61542 0.0
C1369 C 0.78798 0.27076 0.61035 0.0
C1370 C 0.731 0.31821 0.59931 0.0
C1371 C 0.71155 0.31124 0.58526 0.0
C1372 C 0.70234 0.28624 0.58688 0.0
C1373 C 0.71249 0.2687 0.60372 0.0
C1374 C 0.73197 0.27581 0.61797 0.0
H1375 H 0.80682 0.26616 0.60589 0.0
H1376 H 0.78092 0.25388 0.62004 0.0
H1377 H 0.77757 0.2734 0.59348 0.0
H1378 H 0.73814 0.33734 0.59707 0.0
H1379 H 0.70419 0.32537 0.57263 0.0
H1380 H 0.9368 0.40134 0.80572 0.0
H1381 H 0.92817 0.43478 0.83522 0.0
H1382 H 1.0033 0.44066 0.85072 0.0
H1383 H 0.01207 0.40746 0.82089 0.0
H1384 H 0.93815 0.43972 0.88372 0.0
H1385 H 0.98352 0.51465 0.83074 0.0
H1386 H 0.97661 0.48336 0.81882 0.0
H1387 H 1.00172 0.48672 0.83871 0.0
C1388 C 0.95147 0.40953 0.81561 0.0
C1389 C 0.97513 0.402 0.8108 0.0
C1390 C 0.94651 0.42865 0.83247 0.0
C1391 C 0.9651 0.44065 0.84483 0.0
C1392 C 0.98869 0.43211 0.84102 0.0
H1393 H 0.9387 0.54988 0.96155 0.0
H1394 H 0.95351 0.51331 0.93806 0.0
C1395 C 0.99367 0.41299 0.82411 0.0
C1396 C 0.95967 0.46278 0.86084 0.0
H1397 H 0.96741 0.52776 0.86741 0.0
C1398 C 0.94467 0.45894 0.88027 0.0
C1399 C 0.96792 0.48795 0.85611 0.0
C1400 C 0.98317 0.4936 0.83486 0.0
C1401 C 0.9376 0.47955 0.89501 0.0
C1402 C 0.94602 0.50466 0.8904 0.0
C1403 C 0.96113 0.50847 0.87105 0.0
C1404 C 0.93831 0.52749 0.90462 0.0
C1405 C 0.92051 0.47443 0.91489 0.0
C1406 C 0.9256 0.54813 0.89352 0.0
C1407 C 0.91735 0.56921 0.90683 0.0
C1408 C 0.92171 0.57021 0.93158 0.0
C1409 C 0.93512 0.54987 0.94253 0.0
C1410 C 0.94336 0.52876 0.92917 0.0
H1411 H 0.91155 0.45566 0.91266 0.0
H1412 H 0.93046 0.47376 0.93213 0.0
H1413 H 0.90666 0.4901 0.91581 0.0
H1414 H 0.92165 0.5477 0.87456 0.0
H1415 H 0.90743 0.58469 0.89773 0.0
H1416 H 0.83684 0.73554 0.09604 0.0
H1417 H 0.8032 0.72741 0.12217 0.0
H1418 H 0.79993 0.64936 0.09599 0.0
H1419 H 0.8335 0.65708 0.07024 0.0
H1420 H 0.75806 0.71435 0.10724 0.0
H1421 H 0.79562 0.63793 0.16736 0.0
H1422 H 0.8141 0.65806 0.14926 0.0
H1423 H 0.80005 0.6303 0.1366 0.0
C1424 C 0.82924 0.7165 0.09616 0.0
C1425 C 0.83792 0.69698 0.081 0.0
C1426 C 0.80998 0.71191 0.11108 0.0
C1427 C 0.79925 0.68766 0.1113 0.0
C1428 C 0.80824 0.66803 0.09657 0.0
H1429 H 0.67284 0.61246 0.14907 0.0
H1430 H 0.7117 0.62667 0.13585 0.0
C1431 C 0.82739 0.67258 0.08168 0.0
C1432 C 0.77744 0.68326 0.12524 0.0
H1433 H 0.75273 0.64067 0.16397 0.0
C1434 C 0.75698 0.69858 0.12002 0.0
C1435 C 0.77607 0.66268 0.14191 0.0
C1436 C 0.79771 0.64648 0.1493 0.0
C1437 C 0.73487 0.69292 0.12996 0.0
C1438 C 0.7333 0.67158 0.14575 0.0
C1439 C 0.75396 0.65694 0.15175 0.0
C1440 C 0.7101 0.66295 0.15477 0.0
C1441 C 0.71313 0.70897 0.12256 0.0
C1442 C 0.69647 0.67849 0.17008 0.0
C1443 C 0.67415 0.67045 0.17761 0.0
C1444 C 0.66509 0.64675 0.16991 0.0
C1445 C 0.6791 0.63102 0.15499 0.0
C1446 C 0.70139 0.63901 0.14757 0.0
H1447 H 0.71665 0.72193 0.10719 0.0
H1448 H 0.69816 0.6963 0.11771 0.0
H1449 H 0.70739 0.72115 0.13772 0.0
H1450 H 0.70301 0.6969 0.17608 0.0
H1451 H 0.66376 0.68305 0.18903 0.0
H1452 H 0.64254 0.43225 0.44108 0.0
H1453 H 0.62814 0.46669 0.4141 0.0
H1454 H 0.56831 0.42064 0.39371 0.0
H1455 H 0.58262 0.38599 0.42091 0.0
H1456 H 0.62338 0.46304 0.36629 0.0
H1457 H 0.53632 0.49103 0.40514 0.0
H1458 H 0.55857 0.47168 0.42124 0.0
H1459 H 0.5397 0.45705 0.39926 0.0
C1460 C 0.62627 0.42944 0.43091 0.0
C1461 C 0.61383 0.40627 0.43298 0.0
C1462 C 0.61798 0.44923 0.41559 0.0
C1463 C 0.59703 0.44641 0.40201 0.0
C1464 C 0.58425 0.42351 0.40437 0.0
H1465 H 0.56317 0.5242 0.26899 0.0
H1466 H 0.57223 0.49372 0.30156 0.0
C1467 C 0.59249 0.40368 0.41984 0.0
C1468 C 0.58978 0.46662 0.38412 0.0
H1469 H 0.54424 0.50801 0.36643 0.0
C1470 C 0.60611 0.47295 0.36644 0.0
C1471 C 0.56736 0.4798 0.38445 0.0
C1472 C 0.54954 0.47477 0.40367 0.0
C1473 C 0.60052 0.49164 0.34884 0.0
C1474 C 0.57778 0.50408 0.34858 0.0
C1475 C 0.56159 0.49827 0.36655 0.0
C1476 C 0.57045 0.52254 0.32925 0.0
C1477 C 0.6191 0.49802 0.33069 0.0
C1478 C 0.56565 0.54878 0.3341 0.0
C1479 C 0.5604 0.56633 0.31542 0.0
C1480 C 0.55976 0.5578 0.2917 0.0
C1481 C 0.56379 0.53139 0.28707 0.0
C1482 C 0.569 0.51395 0.30565 0.0
H1483 H 0.63732 0.49214 0.33701 0.0
H1484 H 0.61532 0.48745 0.31398 0.0
H1485 H 0.61878 0.51906 0.32651 0.0
H1486 H 0.56655 0.55576 0.35223 0.0
H1487 H 0.55726 0.58657 0.31948 0.0
H1488 H 0.36611 0.33746 0.17101 0.0
H1489 H 0.39117 0.30245 0.18821 0.0
H1490 H 0.32983 0.25445 0.19378 0.0
H1491 H 0.30453 0.28946 0.17683 0.0
H1492 H 0.38823 0.2736 0.23238 0.0
H1493 H 0.37672 0.21185 0.15233 0.0
H1494 H 0.36898 0.24596 0.15204 0.0
H1495 H 0.34997 0.2234 0.16637 0.0
C1496 C 0.35783 0.31965 0.17628 0.0
C1497 C 0.33332 0.31622 0.17231 0.0
C1498 C 0.37222 0.2996 0.18602 0.0
C1499 C 0.36243 0.27571 0.1919 0.0
C1500 C 0.33783 0.27255 0.18892 0.0
H1501 H 0.4487 0.13411 0.22679 0.0
H1502 H 0.41328 0.16311 0.22257 0.0
C1503 C 0.32341 0.29259 0.1792 0.0
C1504 C 0.37825 0.2539 0.20022 0.0
H1505 H 0.40241 0.19588 0.18273 0.0
C1506 C 0.39114 0.25647 0.22167 0.0
C1507 C 0.38186 0.23144 0.18632 0.0
C1508 C 0.36882 0.2279 0.16289 0.0
C1509 C 0.40808 0.23754 0.22922 0.0
C1510 C 0.41259 0.21576 0.21469 0.0
C1511 C 0.39889 0.21256 0.19385 0.0
C1512 C 0.43346 0.19805 0.21911 0.0
C1513 C 0.42132 0.24125 0.25249 0.0
C1514 C 0.45641 0.20803 0.21842 0.0
C1515 C 0.47642 0.19164 0.22068 0.0
C1516 C 0.474 0.16483 0.22362 0.0
C1517 C 0.45104 0.15472 0.22462 0.0
C1518 C 0.43086 0.17124 0.22221 0.0
H1519 H 0.41076 0.25346 0.26488 0.0
H1520 H 0.42573 0.22239 0.26135 0.0
H1521 H 0.4382 0.2512 0.24899 0.0
H1522 H 0.45888 0.22853 0.21551 0.0
H1523 H 0.49388 0.20003 0.21984 0.0
H1524 H 0.96982 0.29366 0.81618 0.0
H1525 H 0.94288 0.25871 0.82491 0.0
H1526 H 0.91328 0.26465 0.75365 0.0
H1527 H 0.94044 0.29971 0.74457 0.0
H1528 H 0.89278 0.25947 0.82301 0.0
H1529 H 0.93188 0.18699 0.76109 0.0
H1530 H 0.94723 0.21583 0.76966 0.0
H1531 H 0.9232 0.21784 0.74818 0.0
C1532 C 0.95763 0.28761 0.80228 0.0
C1533 C 0.95742 0.29947 0.7796 0.0
C1534 C 0.9422 0.2676 0.80734 0.0
C1535 C 0.92627 0.25885 0.78987 0.0
C1536 C 0.92573 0.2708 0.76728 0.0
H1537 H 0.81031 0.15504 0.82502 0.0
H1538 H 0.83312 0.19015 0.80774 0.0
C1539 C 0.94118 0.29093 0.76217 0.0
C1540 C 0.91019 0.23738 0.79567 0.0
H1541 H 0.89877 0.17418 0.78331 0.0
C1542 C 0.89393 0.24089 0.8142 0.0
C1543 C 0.91191 0.21308 0.7843 0.0
C1544 C 0.92959 0.20798 0.76481 0.0
C1545 C 0.87953 0.2207 0.82183 0.0
C1546 C 0.88127 0.1964 0.81049 0.0
C1547 C 0.89736 0.19291 0.79182 0.0
C1548 C 0.86749 0.17403 0.81882 0.0
C1549 C 0.86313 0.22522 0.84252 0.0
C1550 C 0.87931 0.15293 0.8301 0.0
C1551 C 0.86636 0.13281 0.83992 0.0
C1552 C 0.8413 0.13328 0.8385 0.0
C1553 C 0.82957 0.15396 0.82629 0.0
C1554 C 0.84256 0.17415 0.81658 0.0
H1555 H 0.8669 0.24354 0.85192 0.0
H1556 H 0.84441 0.22628 0.83587 0.0
H1557 H 0.86479 0.20893 0.85553 0.0
H1558 H 0.89856 0.15242 0.83193 0.0
H1559 H 0.87595 0.11702 0.84892 0.0
H1560 H 0.08873 0.52988 0.11713 0.0
H1561 H 0.04907 0.54454 0.10297 0.0
H1562 H 0.08067 0.60637 0.06338 0.0
H1563 H 0.12025 0.59143 0.0768 0.0
H1564 H 0.02743 0.59161 0.11112 0.0
H1565 H 0.03527 0.57731 0.01413 0.0
H1566 H 0.05585 0.56231 0.03546 0.0
H1567 H 0.05968 0.59525 0.0258 0.0
C1568 C 0.08725 0.5463 0.10503 0.0
C1569 C 0.10768 0.5595 0.09811 0.0
C1570 C 0.06457 0.5547 0.09704 0.0
C1571 C 0.06191 0.57628 0.08178 0.0
C1572 C 0.08229 0.58931 0.07469 0.0
H1573 H 0.97406 0.69757 0.03803 0.0
H1574 H 1.0031 0.66253 0.0455 0.0
C1575 C 0.10491 0.58097 0.08267 0.0
C1576 C 0.0379 0.58663 0.07466 0.0
H1577 H 1.00586 0.6096 0.02641 0.0
C1578 C 0.02237 0.59495 0.09259 0.0
C1579 C 0.03123 0.59074 0.05047 0.0
C1580 C 0.0463 0.58066 0.03038 0.0
C1581 C 1.00133 0.60918 0.08701 0.0
C1582 C 0.99564 0.61501 0.06289 0.0
C1583 C 0.01031 0.60515 0.04491 0.0
C1584 C 0.97709 0.6348 0.05631 0.0
C1585 C 0.98622 0.61952 0.10697 0.0
C1586 C 0.95268 0.63062 0.0594 0.0
C1587 C 0.93587 0.65077 0.05502 0.0
C1588 C 0.94342 0.67528 0.04773 0.0
C1589 C 0.96775 0.67896 0.04386 0.0
C1590 C 0.98437 0.65892 0.04802 0.0
H1591 H 0.99406 0.61479 0.12483 0.0
H1592 H 0.98397 0.64087 0.10527 0.0
H1593 H 0.96825 0.61113 0.10579 0.0
H1594 H 0.94672 0.61202 0.06561 0.0
H1595 H 0.91719 0.64746 0.05804 0.0
H1596 H 0.66586 0.83335 0.38718 0.0
H1597 H 0.64474 0.79605 0.3717 0.0
H1598 H 0.68571 0.79894 0.30742 0.0
H1599 H 0.70692 0.83618 0.32278 0.0
H1600 H 0.61681 0.79466 0.33132 0.0
H1601 H 0.6914 0.72264 0.32493 0.0
H1602 H 0.69387 0.75216 0.34166 0.0
H1603 H 0.69652 0.75265 0.30976 0.0
C1604 C 0.67047 0.82596 0.3698 0.0
C1605 C 0.68814 0.83773 0.35626 0.0
C1606 C 0.65844 0.80459 0.36101 0.0
C1607 C 0.66384 0.79445 0.33853 0.0
C1608 C 0.68163 0.80598 0.32505 0.0
H1609 H 0.5971 0.67614 0.25119 0.0
H1610 H 0.62212 0.71093 0.26598 0.0
C1611 C 0.69374 0.8273 0.33387 0.0
C1612 C 0.64985 0.77286 0.32865 0.0
H1613 H 0.65447 0.71128 0.30707 0.0
C1614 C 0.62505 0.77639 0.32613 0.0
C1615 C 0.66062 0.74908 0.32171 0.0
C1616 C 0.68703 0.74373 0.32482 0.0
C1617 C 0.61077 0.75691 0.31676 0.0
C1618 C 0.6215 0.73309 0.30999 0.0
C1619 C 0.64631 0.72959 0.31224 0.0
C1620 C 0.60707 0.71136 0.30123 0.0
C1621 C 0.5843 0.7621 0.31387 0.0
C1622 C 0.59067 0.69975 0.31629 0.0
C1623 C 0.57642 0.67988 0.30796 0.0
C1624 C 0.57829 0.6711 0.28436 0.0
C1625 C 0.59513 0.68242 0.26943 0.0
C1626 C 0.60947 0.70229 0.27785 0.0
H1627 H 0.57975 0.78315 0.31421 0.0
H1628 H 0.57749 0.754 0.29689 0.0
H1629 H 0.57494 0.75267 0.32875 0.0
H1630 H 0.58881 0.70617 0.33451 0.0
H1631 H 0.56378 0.67159 0.32003 0.0
H1632 H 0.61985 0.32696 0.56478 0.0
H1633 H 0.5886 0.36001 0.57278 0.0
H1634 H 0.53464 0.30461 0.55665 0.0
H1635 H 0.56544 0.2719 0.54867 0.0
H1636 H 0.52598 0.3557 0.53645 0.0
H1637 H 0.54682 0.35547 0.63395 0.0
H1638 H 0.57064 0.36131 0.61364 0.0
H1639 H 0.55755 0.33005 0.61472 0.0
C1640 C 0.6013 0.32204 0.56273 0.0
C1641 C 0.59502 0.29685 0.55635 0.0
C1642 C 0.58351 0.34084 0.56737 0.0
C1643 C 0.55932 0.33463 0.56551 0.0
C1644 C 0.55318 0.30979 0.55821 0.0
H1645 H 0.42667 0.37109 0.62463 0.0
H1646 H 0.46585 0.35538 0.61221 0.0
C1647 C 0.57082 0.29109 0.55375 0.0
C1648 C 0.54002 0.3531 0.57232 0.0
H1649 H 0.51185 0.37745 0.62109 0.0
C1650 C 0.5231 0.36099 0.55487 0.0
C1651 C 0.53625 0.35966 0.59641 0.0
C1652 C 0.55363 0.35116 0.61589 0.0
C1653 C 0.50196 0.3743 0.56102 0.0
C1654 C 0.49778 0.37997 0.58523 0.0
C1655 C 0.51519 0.3731 0.60254 0.0
C1656 C 0.47444 0.39044 0.59325 0.0
C1657 C 0.48364 0.38082 0.54179 0.0
C1658 C 0.46634 0.4155 0.58687 0.0
C1659 C 0.44391 0.42465 0.5941 0.0
C1660 C 0.42922 0.40892 0.60789 0.0
C1661 C 0.43759 0.38391 0.61437 0.0
C1662 C 0.45997 0.37483 0.6072 0.0
H1663 H 0.48816 0.37181 0.52448 0.0
H1664 H 0.46579 0.37431 0.54717 0.0
H1665 H 0.48248 0.40212 0.53916 0.0
H1666 H 0.47737 0.42797 0.57636 0.0
H1667 H 0.43818 0.44414 0.58908 0.0
H1668 H 0.16907 0.63329 0.67597 0.0
H1669 H 0.1478 0.67084 0.69236 0.0
H1670 H 0.2125 0.71397 0.69176 0.0
H1671 H 0.23388 0.67654 0.67496 0.0
H1672 H 0.15764 0.70164 0.7351 0.0
H1673 H 0.16336 0.75719 0.64984 0.0
H1674 H 0.1686 0.7226 0.65128 0.0
H1675 H 0.19056 0.74394 0.66287 0.0
C1676 C 0.1788 0.65072 0.67941 0.0
C1677 C 0.2031 0.65202 0.67396 0.0
C1678 C 0.16667 0.6721 0.6889 0.0
C1679 C 0.17853 0.69524 0.693 0.0
C1680 C 0.20299 0.69634 0.6885 0.0
H1681 H 0.0954 0.83984 0.71917 0.0
H1682 H 0.13098 0.81113 0.71649 0.0
C1683 C 0.2152 0.67488 0.67909 0.0
C1684 C 0.16473 0.71841 0.70078 0.0
H1685 H 0.13943 0.77504 0.67966 0.0
C1686 C 0.15397 0.71791 0.72316 0.0
C1687 C 0.16017 0.73974 0.68525 0.0
C1688 C 0.17112 0.74105 0.66089 0.0
C1689 C 0.13788 0.73763 0.72999 0.0
C1690 C 0.13203 0.75801 0.71378 0.0
C1691 C 0.14394 0.75937 0.69203 0.0
C1692 C 0.11125 0.77572 0.71749 0.0
C1693 C 0.12675 0.73609 0.75423 0.0
C1694 C 0.08848 0.76533 0.71877 0.0
C1695 C 0.06835 0.78154 0.72014 0.0
C1696 C 0.07051 0.80853 0.72021 0.0
C1697 C 0.0933 0.81907 0.71927 0.0
C1698 C 0.11357 0.80273 0.71773 0.0
H1699 H 0.13853 0.72519 0.76709 0.0
H1700 H 0.12289 0.75568 0.76144 0.0
H1701 H 0.10974 0.72572 0.75274 0.0
H1702 H 0.0862 0.7446 0.71804 0.0
H1703 H 0.05101 0.77286 0.72084 0.0
H1704 H 0.44318 0.82471 1.00453 0.0
H1705 H 0.47833 0.85024 0.99556 0.0
H1706 H 0.48433 0.81236 0.92766 0.0
H1707 H 0.44935 0.78742 0.93611 0.0
H1708 H 0.52434 0.83367 0.98664 0.0
H1709 H 0.48827 0.88724 0.90789 0.0
H1710 H 0.46942 0.87006 0.92807 0.0
H1711 H 0.4848 0.85306 0.90474 0.0
C1712 C 0.45182 0.82208 0.98756 0.0
C1713 C 0.44324 0.80408 0.971 0.0
C1714 C 0.47195 0.83664 0.98249 0.0
C1715 C 0.48376 0.83362 0.96071 0.0
C1716 C 0.47522 0.81562 0.94429 0.0
H1717 H 0.61474 0.86346 0.89303 0.0
H1718 H 0.57684 0.84852 0.908 0.0
C1719 C 0.4552 0.80119 0.94927 0.0
C1720 C 0.50563 0.84817 0.95528 0.0
H1721 H 0.53113 0.88415 0.91155 0.0
C1722 C 0.52569 0.84513 0.97046 0.0
C1723 C 0.50744 0.86325 0.9342 0.0
C1724 C 0.48624 0.86883 0.91794 0.0
C1725 C 0.54775 0.85558 0.96446 0.0
C1726 C 0.54978 0.86939 0.94277 0.0
C1727 C 0.52956 0.87332 0.92808 0.0
C1728 C 0.57305 0.87858 0.93429 0.0
C1729 C 0.56906 0.8509 0.98075 0.0
C1730 C 0.58347 0.90055 0.94409 0.0
C1731 C 0.60507 0.90946 0.93532 0.0
C1732 C 0.6167 0.89652 0.91658 0.0
C1733 C 0.60619 0.8743 0.90709 0.0
C1734 C 0.58457 0.86556 0.91575 0.0
H1735 H 0.56494 0.83833 0.99622 0.0
H1736 H 0.58388 0.84174 0.9707 0.0
H1737 H 0.57536 0.8697 0.98751 0.0
H1738 H 0.57473 0.911 0.95829 0.0
H1739 H 0.61238 0.9268 0.9429 0.0
H1740 H 0.96414 0.0221 0.42749 0.0
H1741 H 0.99983 0.04501 0.43997 0.0
H1742 H 0.96067 0.11768 0.43455 0.0
H1743 H 0.92511 0.09512 0.42165 0.0
H1744 H 0.02351 0.0838 0.41414 0.0
H1745 H 0.99246 0.12061 0.50099 0.0
H1746 H 0.97806 0.09463 0.48553 0.0
H1747 H 0.97191 0.12774 0.47685 0.0
C1748 C 0.96307 0.04297 0.42895 0.0
C1749 C 0.94161 0.05671 0.42356 0.0
C1750 C 0.9835 0.05601 0.43619 0.0
C1751 C 0.98289 0.08303 0.43848 0.0
C1752 C 0.96147 0.09677 0.43341 0.0
H1753 H 0.06508 0.21432 0.45653 0.0
H1754 H 0.03669 0.17997 0.45258 0.0
C1755 C 0.94108 0.08379 0.42609 0.0
C1756 C 1.00479 0.09715 0.44506 0.0
H1757 H 0.02616 0.14131 0.48437 0.0
C1758 C 0.02432 0.09606 0.42971 0.0
C1759 C 1.0059 0.11294 0.46549 0.0
C1760 C 0.98606 0.11391 0.48331 0.0
C1761 C 0.04422 0.11169 0.43337 0.0
C1762 C 0.04475 0.12851 0.45314 0.0
C1763 C 0.02577 0.12848 0.46918 0.0
C1764 C 0.06299 0.14877 0.45583 0.0
C1765 C 0.06383 0.11121 0.41529 0.0
C1766 C 0.08746 0.14279 0.45908 0.0
C1767 C 0.10402 0.16269 0.46119 0.0
C1768 C 0.09624 0.18876 0.46023 0.0
C1769 C 0.07175 0.19448 0.45727 0.0
C1770 C 0.0554 0.1748 0.45508 0.0
H1771 H 0.05893 0.10018 0.39911 0.0
H1772 H 0.06824 0.13121 0.40985 0.0
H1773 H 0.08009 0.10195 0.4234 0.0
H1774 H 0.09373 0.12282 0.46011 0.0
H1775 H 0.12276 0.15771 0.46357 0.0
loop_
_geom_bond_atom_site_label_1
_geom_bond_atom_site_label_2
_geom_bond_distance
_geom_bond_site_symmetry_2
_ccdc_geom_bond_type
Ho0 C3 2.811 . S
Ho0 O20 2.322 . S
Ho0 O22 2.378 . S
Ho0 O23 2.524 . S
Ho0 O24 2.381 . S
Ho0 O25 2.669 . S
Ho0 O27 2.346 . S
Ho0 O31 2.305 . S
Ho1 C12 2.811 . S
Ho1 O21 2.346 . S
Ho1 O25 2.305 . S
Ho1 O26 2.322 . S
Ho1 O28 2.378 . S
Ho1 O29 2.524 . S
Ho1 O30 2.381 . S
Ho1 O31 2.669 . S
C2 O20 1.259 . S
C2 O21 1.268 . S
C3 Ho0 2.811 . S
C3 C4 1.488 . S
C3 O22 1.215 . S
C3 O23 1.289 . S
C4 C3 1.488 . S
C4 C5 1.348 . S
C4 C9 1.413 . S
C5 C4 1.348 . S
C5 C6 1.442 . S
C5 H32 0.930 . S
C6 C5 1.442 . S
C6 C7 1.381 . S
C6 H33 0.931 . S
C7 C6 1.381 . S
C7 C8 1.321 . S
C8 C7 1.321 . S
C8 C9 1.403 . S
C8 H34 0.934 . S
C9 C4 1.413 . S
C9 C8 1.403 . S
C9 H35 0.930 . S
C10 O24 1.275 . S
C10 O25 1.256 . S
C11 O26 1.259 . S
C11 O27 1.268 . S
C12 Ho1 2.811 . S
C12 C13 1.488 . S
C12 O28 1.215 . S
C12 O29 1.289 . S
C13 C12 1.488 . S
C13 C14 1.348 . S
C13 C18 1.413 . S
C14 C13 1.348 . S
C14 C15 1.442 . S
C14 H36 0.930 . S
C15 C14 1.442 . S
C15 C16 1.381 . S
C15 H37 0.931 . S
C16 C15 1.381 . S
C16 C17 1.321 . S
C17 C16 1.321 . S
C17 C18 1.403 . S
C17 H38 0.934 . S
C18 C13 1.413 . S
C18 C17 1.403 . S
C18 H39 0.930 . S
C19 O30 1.275 . S
C19 O31 1.256 . S
O20 Ho0 2.322 . S
O20 C2 1.259 . S
O21 Ho1 2.346 . S
O21 C2 1.268 . S
O22 Ho0 2.378 . S
O22 C3 1.215 . S
O23 Ho0 2.524 . S
O23 C3 1.289 . S
O24 Ho0 2.381 . S
O24 C10 1.275 . S
O25 Ho0 2.669 . S
O25 Ho1 2.305 . S
O25 C10 1.256 . S
O26 Ho1 2.322 . S
O26 C11 1.259 . S
O27 Ho0 2.346 . S
O27 C11 1.268 . S
O28 Ho1 2.378 . S
O28 C12 1.215 . S
O29 Ho1 2.524 . S
O29 C12 1.289 . S
O30 Ho1 2.381 . S
O30 C19 1.275 . S
O31 Ho0 2.305 . S
O31 Ho1 2.669 . S
O31 C19 1.256 . S
H32 C5 0.930 . S
H33 C6 0.931 . S
H34 C8 0.934 . S
H35 C9 0.930 . S
H36 C14 0.930 . S
H37 C15 0.931 . S
H38 C17 0.934 . S
H39 C18 0.930 . S
Ho40 C43 2.811 . S
Ho40 O60 2.322 1_655 S
Ho40 O62 2.378 . S
Ho40 O63 2.524 . S
Ho40 O64 2.381 1_655 S
Ho40 O65 2.669 1_655 S
Ho40 O67 2.346 . S
Ho40 O71 2.310 . S
Ho41 C52 2.811 . S
Ho41 O61 2.346 . S
Ho41 O65 2.305 . S
Ho41 O66 2.322 . S
Ho41 O68 2.378 . S
Ho41 O69 2.524 . S
Ho41 O70 2.381 . S
Ho41 O71 2.633 1_455 S
C42 O60 1.259 . S
C42 O61 1.268 . S
C43 Ho40 2.811 . S
C43 C44 1.488 . S
C43 O62 1.215 . S
C43 O63 1.289 . S
C44 C43 1.488 . S
C44 C45 1.348 . S
C44 C49 1.413 . S
C45 C44 1.348 . S
C45 C46 1.442 . S
C45 H72 0.930 . S
C46 C45 1.442 . S
C46 C47 1.381 . S
C46 H73 0.931 . S
C47 C46 1.381 . S
C47 C48 1.321 . S
C48 C47 1.321 . S
C48 C49 1.403 . S
C48 H74 0.934 . S
C49 C44 1.413 . S
C49 C48 1.403 . S
C49 H75 0.930 . S
C50 O64 1.275 . S
C50 O65 1.256 . S
C51 O66 1.259 . S
C51 O67 1.268 1_455 S
C52 Ho41 2.811 . S
C52 C53 1.488 . S
C52 O68 1.215 . S
C52 O69 1.289 . S
C53 C52 1.488 . S
C53 C54 1.348 . S
C53 C58 1.413 . S
C54 C53 1.348 . S
C54 C55 1.442 . S
C54 H76 0.930 . S
C55 C54 1.442 . S
C55 C56 1.381 . S
C55 H77 0.931 . S
C56 C55 1.381 . S
C56 C57 1.321 . S
C57 C56 1.321 . S
C57 C58 1.403 . S
C57 H78 0.934 . S
C58 C53 1.413 . S
C58 C57 1.403 . S
C58 H79 0.930 . S
C59 O70 1.275 1_655 S
C59 O71 1.262 . S
O60 Ho40 2.322 1_455 S
O60 C42 1.259 . S
O61 Ho41 2.346 . S
O61 C42 1.268 . S
O62 Ho40 2.378 . S
O62 C43 1.215 . S
O63 Ho40 2.524 . S
O63 C43 1.289 . S
O64 Ho40 2.381 1_455 S
O64 C50 1.275 . S
O65 Ho40 2.669 1_455 S
O65 Ho41 2.305 . S
O65 C50 1.256 . S
O66 Ho41 2.322 . S
O66 C51 1.259 . S
O67 Ho40 2.346 . S
O67 C51 1.268 1_655 S
O68 Ho41 2.378 . S
O68 C52 1.215 . S
O69 Ho41 2.524 . S
O69 C52 1.289 . S
O70 Ho41 2.381 . S
O70 C59 1.275 1_455 S
O71 Ho40 2.310 . S
O71 Ho41 2.633 1_655 S
O71 C59 1.262 . S
H72 C45 0.930 . S
H73 C46 0.931 . S
H74 C48 0.934 . S
H75 C49 0.930 . S
H76 C54 0.930 . S
H77 C55 0.931 . S
H78 C57 0.934 . S
H79 C58 0.930 . S
Ho80 C83 2.811 . S
Ho80 O100 2.322 1_554 S
Ho80 O102 2.378 . S
Ho80 O103 2.524 . S
Ho80 O104 2.381 1_554 S
Ho80 O105 2.669 1_554 S
Ho80 O107 2.346 . S
Ho80 O111 2.305 . S
Ho81 C92 2.811 . S
Ho81 O101 2.346 . S
Ho81 O105 2.305 . S
Ho81 O106 2.322 . S
Ho81 O108 2.378 . S
Ho81 O109 2.524 . S
Ho81 O110 2.381 . S
Ho81 O111 2.669 1_556 S
C82 O100 1.259 . S
C82 O101 1.268 . S
C83 Ho80 2.811 . S
C83 C84 1.488 . S
C83 O102 1.215 . S
C83 O103 1.289 . S
C84 C83 1.488 . S
C84 C85 1.348 . S
C84 C89 1.413 . S
C85 C84 1.348 . S
C85 C86 1.442 . S
C85 H112 0.930 . S
C86 C85 1.442 . S
C86 C87 1.381 . S
C86 H113 0.931 . S
C87 C86 1.381 . S
C87 C88 1.321 . S
C88 C87 1.321 . S
C88 C89 1.403 . S
C88 H114 0.934 . S
C89 C84 1.413 . S
C89 C88 1.403 . S
C89 H115 0.930 . S
C90 O104 1.275 . S
C90 O105 1.256 . S
C91 O106 1.259 . S
C91 O107 1.268 1_556 S
C92 Ho81 2.811 . S
C92 C93 1.488 . S
C92 O108 1.215 . S
C92 O109 1.289 . S
C93 C92 1.488 . S
C93 C94 1.348 . S
C93 C98 1.413 . S
C94 C93 1.348 . S
C94 C95 1.442 . S
C94 H116 0.930 . S
C95 C94 1.442 . S
C95 C96 1.381 . S
C95 H117 0.931 . S
C96 C95 1.381 . S
C96 C97 1.321 . S
C97 C96 1.321 . S
C97 C98 1.403 . S
C97 H118 0.934 . S
C98 C93 1.413 . S
C98 C97 1.403 . S
C98 H119 0.930 . S
C99 O110 1.275 1_554 S
C99 O111 1.256 . S
O100 Ho80 2.322 1_556 S
O100 C82 1.259 . S
O101 Ho81 2.346 . S
O101 C82 1.268 . S
O102 Ho80 2.378 . S
O102 C83 1.215 . S
O103 Ho80 2.524 . S
O103 C83 1.289 . S
O104 Ho80 2.381 1_556 S
O104 C90 1.275 . S
O105 Ho80 2.669 1_556 S
O105 Ho81 2.305 . S
O105 C90 1.256 . S
O106 Ho81 2.322 . S
O106 C91 1.259 . S
O107 Ho80 2.346 . S
O107 C91 1.268 1_554 S
O108 Ho81 2.378 . S
O108 C92 1.215 . S
O109 Ho81 2.524 . S
O109 C92 1.289 . S
O110 Ho81 2.381 . S
O110 C99 1.275 1_556 S
O111 Ho80 2.305 . S
O111 Ho81 2.669 1_554 S
O111 C99 1.256 . S
H112 C85 0.930 . S
H113 C86 0.931 . S
H114 C88 0.934 . S
H115 C89 0.930 . S
H116 C94 0.930 . S
H117 C95 0.931 . S
H118 C97 0.934 . S
H119 C98 0.930 . S
Ho120 C123 2.811 . S
Ho120 O140 2.322 . S
Ho120 O142 2.378 . S
Ho120 O143 2.524 . S
Ho120 O144 2.381 . S
Ho120 O145 2.669 . S
Ho120 O147 2.346 . S
Ho120 O151 2.305 . S
Ho121 C132 2.811 . S
Ho121 O141 2.346 . S
Ho121 O145 2.305 . S
Ho121 O146 2.322 . S
Ho121 O148 2.378 . S
Ho121 O149 2.524 . S
Ho121 O150 2.381 . S
Ho121 O151 2.669 . S
C122 O140 1.259 . S
C122 O141 1.268 . S
C123 Ho120 2.811 . S
C123 C124 1.488 . S
C123 O142 1.215 . S
C123 O143 1.289 . S
C124 C123 1.488 . S
C124 C125 1.348 . S
C124 C129 1.413 . S
C125 C124 1.348 . S
C125 C126 1.442 . S
C125 H152 0.930 . S
C126 C125 1.442 . S
C126 C127 1.381 . S
C126 H153 0.931 . S
C127 C126 1.381 . S
C127 C128 1.321 . S
C128 C127 1.321 . S
C128 C129 1.403 . S
C128 H154 0.934 . S
C129 C124 1.413 . S
C129 C128 1.403 . S
C129 H155 0.930 . S
C130 O144 1.275 . S
C130 O145 1.256 . S
C131 O146 1.259 . S
C131 O147 1.268 . S
C132 Ho121 2.811 . S
C132 C133 1.488 . S
C132 O148 1.215 . S
C132 O149 1.289 . S
C133 C132 1.488 . S
C133 C134 1.348 . S
C133 C138 1.413 . S
C134 C133 1.348 . S
C134 C135 1.442 . S
C134 H156 0.930 . S
C135 C134 1.442 . S
C135 C136 1.381 . S
C135 H157 0.931 . S
C136 C135 1.381 . S
C136 C137 1.321 . S
C137 C136 1.321 . S
C137 C138 1.403 . S
C137 H158 0.934 . S
C138 C133 1.413 . S
C138 C137 1.403 . S
C138 H159 0.930 . S
C139 O150 1.275 . S
C139 O151 1.256 . S
O140 Ho120 2.322 . S
O140 C122 1.259 . S
O141 Ho121 2.346 . S
O141 C122 1.268 . S
O142 Ho120 2.378 . S
O142 C123 1.215 . S
O143 Ho120 2.524 . S
O143 C123 1.289 . S
O144 Ho120 2.381 . S
O144 C130 1.275 . S
O145 Ho120 2.669 . S
O145 Ho121 2.305 . S
O145 C130 1.256 . S
O146 Ho121 2.322 . S
O146 C131 1.259 . S
O147 Ho120 2.346 . S
O147 C131 1.268 . S
O148 Ho121 2.378 . S
O148 C132 1.215 . S
O149 Ho121 2.524 . S
O149 C132 1.289 . S
O150 Ho121 2.381 . S
O150 C139 1.275 . S
O151 Ho120 2.305 . S
O151 Ho121 2.669 . S
O151 C139 1.256 . S
H152 C125 0.930 . S
H153 C126 0.931 . S
H154 C128 0.934 . S
H155 C129 0.930 . S
H156 C134 0.930 . S
H157 C135 0.931 . S
H158 C137 0.934 . S
H159 C138 0.930 . S
Ho160 C163 2.811 . S
Ho160 O180 2.322 . S
Ho160 O182 2.378 . S
Ho160 O183 2.524 . S
Ho160 O184 2.381 . S
Ho160 O185 2.669 . S
Ho160 O187 2.346 . S
Ho160 O191 2.305 . S
Ho161 C172 2.811 . S
Ho161 O181 2.346 . S
Ho161 O185 2.305 . S
Ho161 O186 2.322 . S
Ho161 O188 2.378 . S
Ho161 O189 2.524 . S
Ho161 O190 2.381 . S
Ho161 O191 2.669 . S
C162 O180 1.259 . S
C162 O181 1.268 . S
C163 Ho160 2.811 . S
C163 C164 1.488 . S
C163 O182 1.215 . S
C163 O183 1.289 . S
C164 C163 1.488 . S
C164 C165 1.348 . S
C164 C169 1.413 . S
C165 C164 1.348 . S
C165 C166 1.442 . S
C165 H192 0.930 . S
C166 C165 1.442 . S
C166 C167 1.381 . S
C166 H193 0.931 . S
C167 C166 1.381 . S
C167 C168 1.321 . S
C168 C167 1.321 . S
C168 C169 1.403 . S
C168 H194 0.934 . S
C169 C164 1.413 . S
C169 C168 1.403 . S
C169 H195 0.930 . S
C170 O184 1.275 . S
C170 O185 1.256 . S
C171 O186 1.259 . S
C171 O187 1.268 . S
C172 Ho161 2.811 . S
C172 C173 1.488 . S
C172 O188 1.215 . S
C172 O189 1.289 . S
C173 C172 1.488 . S
C173 C174 1.348 . S
C173 C178 1.413 . S
C174 C173 1.348 . S
C174 C175 1.442 . S
C174 H196 0.930 . S
C175 C174 1.442 . S
C175 C176 1.381 . S
C175 H197 0.931 . S
C176 C175 1.381 . S
C176 C177 1.321 . S
C177 C176 1.321 . S
C177 C178 1.403 . S
C177 H198 0.934 . S
C178 C173 1.413 . S
C178 C177 1.403 . S
C178 H199 0.930 . S
C179 O190 1.275 . S
C179 O191 1.256 . S
O180 Ho160 2.322 . S
O180 C162 1.259 . S
O181 Ho161 2.346 . S
O181 C162 1.268 . S
O182 Ho160 2.378 . S
O182 C163 1.215 . S
O183 Ho160 2.524 . S
O183 C163 1.289 . S
O184 Ho160 2.381 . S
O184 C170 1.275 . S
O185 Ho160 2.669 . S
O185 Ho161 2.305 . S
O185 C170 1.256 . S
O186 Ho161 2.322 . S
O186 C171 1.259 . S
O187 Ho160 2.346 . S
O187 C171 1.268 . S
O188 Ho161 2.378 . S
O188 C172 1.215 . S
O189 Ho161 2.524 . S
O189 C172 1.289 . S
O190 Ho161 2.381 . S
O190 C179 1.275 . S
O191 Ho160 2.305 . S
O191 Ho161 2.669 . S
O191 C179 1.256 . S
H192 C165 0.930 . S
H193 C166 0.931 . S
H194 C168 0.934 . S
H195 C169 0.930 . S
H196 C174 0.930 . S
H197 C175 0.931 . S
H198 C177 0.934 . S
H199 C178 0.930 . S
Ho200 C203 2.811 . S
Ho200 O220 2.322 . S
Ho200 O222 2.378 . S
Ho200 O223 2.524 . S
Ho200 O224 2.381 . S
Ho200 O225 2.669 . S
Ho200 O227 2.346 1_655 S
Ho200 O231 2.305 . S
Ho201 C212 2.811 . S
Ho201 O221 2.346 1_455 S
Ho201 O225 2.305 1_455 S
Ho201 O226 2.322 . S
Ho201 O228 2.378 . S
Ho201 O229 2.524 . S
Ho201 O230 2.381 . S
Ho201 O231 2.669 1_455 S
C202 O220 1.259 . S
C202 O221 1.268 . S
C203 Ho200 2.811 . S
C203 C204 1.488 . S
C203 O222 1.215 . S
C203 O223 1.289 . S
C204 C203 1.488 . S
C204 C205 1.348 . S
C204 C209 1.413 . S
C205 C204 1.348 . S
C205 C206 1.442 . S
C205 H232 0.930 . S
C206 C205 1.442 . S
C206 C207 1.381 . S
C206 H233 0.931 . S
C207 C206 1.381 . S
C207 C208 1.321 . S
C208 C207 1.321 . S
C208 C209 1.403 . S
C208 H234 0.934 . S
C209 C204 1.413 . S
C209 C208 1.403 . S
C209 H235 0.930 . S
C210 O224 1.275 . S
C210 O225 1.256 . S
C211 O226 1.259 . S
C211 O227 1.268 . S
C212 Ho201 2.811 . S
C212 C213 1.488 . S
C212 O228 1.215 . S
C212 O229 1.289 . S
C213 C212 1.488 . S
C213 C214 1.348 . S
C213 C218 1.413 . S
C214 C213 1.348 . S
C214 C215 1.442 . S
C214 H236 0.930 . S
C215 C214 1.442 . S
C215 C216 1.381 . S
C215 H237 0.931 . S
C216 C215 1.381 . S
C216 C217 1.321 . S
C217 C216 1.321 . S
C217 C218 1.403 . S
C217 H238 0.934 . S
C218 C213 1.413 . S
C218 C217 1.403 . S
C218 H239 0.930 . S
C219 O230 1.275 . S
C219 O231 1.256 1_455 S
O220 Ho200 2.322 . S
O220 C202 1.259 . S
O221 Ho201 2.346 1_655 S
O221 C202 1.268 . S
O222 Ho200 2.378 . S
O222 C203 1.215 . S
O223 Ho200 2.524 . S
O223 C203 1.289 . S
O224 Ho200 2.381 . S
O224 C210 1.275 . S
O225 Ho200 2.669 . S
O225 Ho201 2.305 1_655 S
O225 C210 1.256 . S
O226 Ho201 2.322 . S
O226 C211 1.259 . S
O227 Ho200 2.346 1_455 S
O227 C211 1.268 . S
O228 Ho201 2.378 . S
O228 C212 1.215 . S
O229 Ho201 2.524 . S
O229 C212 1.289 . S
O230 Ho201 2.381 . S
O230 C219 1.275 . S
O231 Ho200 2.305 . S
O231 Ho201 2.669 1_655 S
O231 C219 1.256 1_655 S
H232 C205 0.930 . S
H233 C206 0.931 . S
H234 C208 0.934 . S
H235 C209 0.930 . S
H236 C214 0.930 . S
H237 C215 0.931 . S
H238 C217 0.934 . S
H239 C218 0.930 . S
Ho240 C243 2.811 . S
Ho240 O260 2.322 . S
Ho240 O262 2.378 . S
Ho240 O263 2.524 . S
Ho240 O264 2.381 . S
Ho240 O265 2.669 . S
Ho240 O267 2.346 1_554 S
Ho240 O271 2.305 . S
Ho241 C252 2.811 . S
Ho241 O261 2.346 1_556 S
Ho241 O265 2.305 1_556 S
Ho241 O266 2.322 . S
Ho241 O268 2.378 . S
Ho241 O269 2.524 . S
Ho241 O270 2.381 . S
Ho241 O271 2.669 1_556 S
C242 O260 1.259 . S
C242 O261 1.268 . S
C243 Ho240 2.811 . S
C243 C244 1.488 . S
C243 O262 1.215 . S
C243 O263 1.289 . S
C244 C243 1.488 . S
C244 C245 1.348 . S
C244 C249 1.413 . S
C245 C244 1.348 . S
C245 C246 1.442 . S
C245 H272 0.930 . S
C246 C245 1.442 . S
C246 C247 1.381 . S
C246 H273 0.931 . S
C247 C246 1.381 . S
C247 C248 1.321 . S
C248 C247 1.321 . S
C248 C249 1.403 . S
C248 H274 0.934 . S
C249 C244 1.413 . S
C249 C248 1.403 . S
C249 H275 0.930 . S
C250 O264 1.275 . S
C250 O265 1.256 . S
C251 O266 1.259 . S
C251 O267 1.268 . S
C252 Ho241 2.811 . S
C252 C253 1.488 . S
C252 O268 1.215 . S
C252 O269 1.289 . S
C253 C252 1.488 . S
C253 C254 1.348 . S
C253 C258 1.413 . S
C254 C253 1.348 . S
C254 C255 1.442 . S
C254 H276 0.930 . S
C255 C254 1.442 . S
C255 C256 1.381 . S
C255 H277 0.931 . S
C256 C255 1.381 . S
C256 C257 1.321 . S
C257 C256 1.321 . S
C257 C258 1.403 . S
C257 H278 0.934 . S
C258 C253 1.413 . S
C258 C257 1.403 . S
C258 H279 0.930 . S
C259 O270 1.275 . S
C259 O271 1.256 1_556 S
O260 Ho240 2.322 . S
O260 C242 1.259 . S
O261 Ho241 2.346 1_554 S
O261 C242 1.268 . S
O262 Ho240 2.378 . S
O262 C243 1.215 . S
O263 Ho240 2.524 . S
O263 C243 1.289 . S
O264 Ho240 2.381 . S
O264 C250 1.275 . S
O265 Ho240 2.669 . S
O265 Ho241 2.305 1_554 S
O265 C250 1.256 . S
O266 Ho241 2.322 . S
O266 C251 1.259 . S
O267 Ho240 2.346 1_556 S
O267 C251 1.268 . S
O268 Ho241 2.378 . S
O268 C252 1.215 . S
O269 Ho241 2.524 . S
O269 C252 1.289 . S
O270 Ho241 2.381 . S
O270 C259 1.275 . S
O271 Ho240 2.305 . S
O271 Ho241 2.669 1_554 S
O271 C259 1.256 1_554 S
H272 C245 0.930 . S
H273 C246 0.931 . S
H274 C248 0.934 . S
H275 C249 0.930 . S
H276 C254 0.930 . S
H277 C255 0.931 . S
H278 C257 0.934 . S
H279 C258 0.930 . S
Ho280 C283 2.811 . S
Ho280 O300 2.322 . S
Ho280 O302 2.378 . S
Ho280 O303 2.524 . S
Ho280 O304 2.381 . S
Ho280 O305 2.669 . S
Ho280 O307 2.346 . S
Ho280 O311 2.305 . S
Ho281 C292 2.811 . S
Ho281 O301 2.346 . S
Ho281 O305 2.305 . S
Ho281 O306 2.322 . S
Ho281 O308 2.378 . S
Ho281 O309 2.524 . S
Ho281 O310 2.381 . S
Ho281 O311 2.669 . S
C282 O300 1.259 . S
C282 O301 1.268 . S
C283 Ho280 2.811 . S
C283 C284 1.488 . S
C283 O302 1.215 . S
C283 O303 1.289 . S
C284 C283 1.488 . S
C284 C285 1.348 . S
C284 C289 1.413 . S
C285 C284 1.348 . S
C285 C286 1.442 . S
C285 H312 0.930 . S
C286 C285 1.442 . S
C286 C287 1.381 . S
C286 H313 0.931 . S
C287 C286 1.381 . S
C287 C288 1.321 . S
C288 C287 1.321 . S
C288 C289 1.403 . S
C288 H314 0.934 . S
C289 C284 1.413 . S
C289 C288 1.403 . S
C289 H315 0.930 . S
C290 O304 1.275 . S
C290 O305 1.256 . S
C291 O306 1.259 . S
C291 O307 1.268 . S
C292 Ho281 2.811 . S
C292 C293 1.488 . S
C292 O308 1.215 . S
C292 O309 1.289 . S
C293 C292 1.488 . S
C293 C294 1.348 . S
C293 C298 1.413 . S
C294 C293 1.348 . S
C294 C295 1.442 . S
C294 H316 0.930 . S
C295 C294 1.442 . S
C295 C296 1.381 . S
C295 H317 0.931 . S
C296 C295 1.381 . S
C296 C297 1.321 . S
C297 C296 1.321 . S
C297 C298 1.403 . S
C297 H318 0.934 . S
C298 C293 1.413 . S
C298 C297 1.403 . S
C298 H319 0.930 . S
C299 O310 1.275 . S
C299 O311 1.256 . S
O300 Ho280 2.322 . S
O300 C282 1.259 . S
O301 Ho281 2.346 . S
O301 C282 1.268 . S
O302 Ho280 2.378 . S
O302 C283 1.215 . S
O303 Ho280 2.524 . S
O303 C283 1.289 . S
O304 Ho280 2.381 . S
O304 C290 1.275 . S
O305 Ho280 2.669 . S
O305 Ho281 2.305 . S
O305 C290 1.256 . S
O306 Ho281 2.322 . S
O306 C291 1.259 . S
O307 Ho280 2.346 . S
O307 C291 1.268 . S
O308 Ho281 2.378 . S
O308 C292 1.215 . S
O309 Ho281 2.524 . S
O309 C292 1.289 . S
O310 Ho281 2.381 . S
O310 C299 1.275 . S
O311 Ho280 2.305 . S
O311 Ho281 2.669 . S
O311 C299 1.256 . S
H312 C285 0.930 . S
H313 C286 0.931 . S
H314 C288 0.934 . S
H315 C289 0.930 . S
H316 C294 0.930 . S
H317 C295 0.931 . S
H318 C297 0.934 . S
H319 C298 0.930 . S
Ho320 C323 2.811 . S
Ho320 O340 2.322 . S
Ho320 O342 2.378 . S
Ho320 O343 2.524 . S
Ho320 O344 2.381 . S
Ho320 O345 2.669 . S
Ho320 O347 2.346 . S
Ho320 O351 2.305 . S
Ho321 C332 2.811 . S
Ho321 O341 2.346 . S
Ho321 O345 2.305 . S
Ho321 O346 2.322 . S
Ho321 O348 2.378 . S
Ho321 O349 2.524 . S
Ho321 O350 2.381 . S
Ho321 O351 2.669 . S
C322 O340 1.259 . S
C322 O341 1.268 . S
C323 Ho320 2.811 . S
C323 C324 1.488 . S
C323 O342 1.215 . S
C323 O343 1.289 . S
C324 C323 1.488 . S
C324 C325 1.348 . S
C324 C329 1.413 . S
C325 C324 1.348 . S
C325 C326 1.442 . S
C325 H352 0.930 . S
C326 C325 1.442 . S
C326 C327 1.381 . S
C326 H353 0.931 . S
C327 C326 1.381 . S
C327 C328 1.321 . S
C328 C327 1.321 . S
C328 C329 1.403 . S
C328 H354 0.934 . S
C329 C324 1.413 . S
C329 C328 1.403 . S
C329 H355 0.930 . S
C330 O344 1.275 . S
C330 O345 1.256 . S
C331 O346 1.259 . S
C331 O347 1.268 . S
C332 Ho321 2.811 . S
C332 C333 1.488 . S
C332 O348 1.215 . S
C332 O349 1.289 . S
C333 C332 1.488 . S
C333 C334 1.348 . S
C333 C338 1.413 . S
C334 C333 1.348 . S
C334 C335 1.442 . S
C334 H356 0.930 . S
C335 C334 1.442 . S
C335 C336 1.381 . S
C335 H357 0.931 . S
C336 C335 1.381 . S
C336 C337 1.321 . S
C337 C336 1.321 . S
C337 C338 1.403 . S
C337 H358 0.934 . S
C338 C333 1.413 . S
C338 C337 1.403 . S
C338 H359 0.930 . S
C339 O350 1.275 . S
C339 O351 1.256 . S
O340 Ho320 2.322 . S
O340 C322 1.259 . S
O341 Ho321 2.346 . S
O341 C322 1.268 . S
O342 Ho320 2.378 . S
O342 C323 1.215 . S
O343 Ho320 2.524 . S
O343 C323 1.289 . S
O344 Ho320 2.381 . S
O344 C330 1.275 . S
O345 Ho320 2.669 . S
O345 Ho321 2.305 . S
O345 C330 1.256 . S
O346 Ho321 2.322 . S
O346 C331 1.259 . S
O347 Ho320 2.346 . S
O347 C331 1.268 . S
O348 Ho321 2.378 . S
O348 C332 1.215 . S
O349 Ho321 2.524 . S
O349 C332 1.289 . S
O350 Ho321 2.381 . S
O350 C339 1.275 . S
O351 Ho320 2.305 . S
O351 Ho321 2.669 . S
O351 C339 1.256 . S
H352 C325 0.930 . S
H353 C326 0.931 . S
H354 C328 0.934 . S
H355 C329 0.930 . S
H356 C334 0.930 . S
H357 C335 0.931 . S
H358 C337 0.934 . S
H359 C338 0.930 . S
Ho360 C363 2.811 . S
Ho360 O380 2.322 1_565 S
Ho360 O382 2.378 . S
Ho360 O383 2.524 . S
Ho360 O384 2.381 1_565 S
Ho360 O385 2.669 1_565 S
Ho360 O387 2.346 . S
Ho360 O391 2.305 . S
Ho361 C372 2.811 . S
Ho361 O381 2.346 . S
Ho361 O385 2.305 . S
Ho361 O386 2.303 1_545 S
Ho361 O388 2.378 . S
Ho361 O389 2.524 . S
Ho361 O390 2.381 1_545 S
Ho361 O391 2.669 1_545 S
C362 O380 1.259 . S
C362 O381 1.268 . S
C363 Ho360 2.811 . S
C363 C364 1.488 . S
C363 O382 1.215 . S
C363 O383 1.289 . S
C364 C363 1.488 . S
C364 C365 1.348 . S
C364 C369 1.413 . S
C365 C364 1.348 . S
C365 C366 1.442 . S
C365 H392 0.930 . S
C366 C365 1.442 . S
C366 C367 1.381 . S
C366 H393 0.931 . S
C367 C366 1.381 . S
C367 C368 1.321 . S
C368 C367 1.321 . S
C368 C369 1.403 . S
C368 H394 0.934 . S
C369 C364 1.413 . S
C369 C368 1.403 . S
C369 H395 0.930 . S
C370 O384 1.275 . S
C370 O385 1.256 . S
C371 O386 1.274 . S
C371 O387 1.268 . S
C372 Ho361 2.811 . S
C372 C373 1.488 . S
C372 O388 1.215 . S
C372 O389 1.289 . S
C373 C372 1.488 . S
C373 C374 1.348 . S
C373 C378 1.413 . S
C374 C373 1.348 . S
C374 C375 1.442 . S
C374 H396 0.930 . S
C375 C374 1.442 . S
C375 C376 1.381 . S
C375 H397 0.931 . S
C376 C375 1.381 . S
C376 C377 1.321 . S
C377 C376 1.321 . S
C377 C378 1.403 . S
C377 H398 0.934 . S
C378 C373 1.413 . S
C378 C377 1.403 . S
C378 H399 0.930 . S
C379 O390 1.275 . S
C379 O391 1.256 . S
O380 Ho360 2.322 1_545 S
O380 C362 1.259 . S
O381 Ho361 2.346 . S
O381 C362 1.268 . S
O382 Ho360 2.378 . S
O382 C363 1.215 . S
O383 Ho360 2.524 . S
O383 C363 1.289 . S
O384 Ho360 2.381 1_545 S
O384 C370 1.275 . S
O385 Ho360 2.669 1_545 S
O385 Ho361 2.305 . S
O385 C370 1.256 . S
O386 Ho361 2.303 1_565 S
O386 C371 1.274 . S
O387 Ho360 2.346 . S
O387 C371 1.268 . S
O388 Ho361 2.378 . S
O388 C372 1.215 . S
O389 Ho361 2.524 . S
O389 C372 1.289 . S
O390 Ho361 2.381 1_565 S
O390 C379 1.275 . S
O391 Ho360 2.305 . S
O391 Ho361 2.669 1_565 S
O391 C379 1.256 . S
H392 C365 0.930 . S
H393 C366 0.931 . S
H394 C368 0.934 . S
H395 C369 0.930 . S
H396 C374 0.930 . S
H397 C375 0.931 . S
H398 C377 0.934 . S
H399 C378 0.930 . S
Ho400 C403 2.811 . S
Ho400 O420 2.322 . S
Ho400 O422 2.378 . S
Ho400 O423 2.524 . S
Ho400 O424 2.381 . S
Ho400 O425 2.669 . S
Ho400 O427 2.346 . S
Ho400 O431 2.305 . S
Ho401 C412 2.811 . S
Ho401 O421 2.346 1_545 S
Ho401 O425 2.305 1_545 S
Ho401 O426 2.322 . S
Ho401 O428 2.378 . S
Ho401 O429 2.524 . S
Ho401 O430 2.381 . S
Ho401 O431 2.669 1_545 S
C402 O420 1.259 . S
C402 O421 1.268 . S
C403 Ho400 2.811 . S
C403 C404 1.488 . S
C403 O422 1.215 . S
C403 O423 1.289 . S
C404 C403 1.488 . S
C404 C405 1.348 . S
C404 C409 1.413 . S
C405 C404 1.348 . S
C405 C406 1.442 . S
C405 H432 0.930 . S
C406 C405 1.442 . S
C406 C407 1.381 . S
C406 H433 0.931 . S
C407 C406 1.381 . S
C407 C408 1.321 . S
C408 C407 1.321 . S
C408 C409 1.403 . S
C408 H434 0.934 . S
C409 C404 1.413 . S
C409 C408 1.403 . S
C409 H435 0.930 . S
C410 O424 1.275 . S
C410 O425 1.256 . S
C411 O426 1.259 . S
C411 O427 1.268 1_545 S
C412 Ho401 2.811 . S
C412 C413 1.488 . S
C412 O428 1.215 . S
C412 O429 1.289 . S
C413 C412 1.488 . S
C413 C414 1.348 . S
C413 C418 1.413 . S
C414 C413 1.348 . S
C414 C415 1.442 . S
C414 H436 0.930 . S
C415 C414 1.442 . S
C415 C416 1.381 . S
C415 H437 0.931 . S
C416 C415 1.381 . S
C416 C417 1.321 . S
C417 C416 1.321 . S
C417 C418 1.403 . S
C417 H438 0.934 . S
C418 C413 1.413 . S
C418 C417 1.403 . S
C418 H439 0.930 . S
C419 O430 1.275 . S
C419 O431 1.256 1_545 S
O420 Ho400 2.322 . S
O420 C402 1.259 . S
O421 Ho401 2.346 1_565 S
O421 C402 1.268 . S
O422 Ho400 2.378 . S
O422 C403 1.215 . S
O423 Ho400 2.524 . S
O423 C403 1.289 . S
O424 Ho400 2.381 . S
O424 C410 1.275 . S
O425 Ho400 2.669 . S
O425 Ho401 2.305 1_565 S
O425 C410 1.256 . S
O426 Ho401 2.322 . S
O426 C411 1.259 . S
O427 Ho400 2.346 . S
O427 C411 1.268 1_565 S
O428 Ho401 2.378 . S
O428 C412 1.215 . S
O429 Ho401 2.524 . S
O429 C412 1.289 . S
O430 Ho401 2.381 . S
O430 C419 1.275 . S
O431 Ho400 2.305 . S
O431 Ho401 2.669 1_565 S
O431 C419 1.256 1_565 S
H432 C405 0.930 . S
H433 C406 0.931 . S
H434 C408 0.934 . S
H435 C409 0.930 . S
H436 C414 0.930 . S
H437 C415 0.931 . S
H438 C417 0.934 . S
H439 C418 0.930 . S
Ho440 C443 2.811 . S
Ho440 O460 2.322 . S
Ho440 O462 2.378 . S
Ho440 O463 2.524 . S
Ho440 O464 2.381 . S
Ho440 O465 2.669 . S
Ho440 O467 2.346 . S
Ho440 O471 2.305 . S
Ho441 C452 2.811 . S
Ho441 O461 2.346 . S
Ho441 O465 2.305 . S
Ho441 O466 2.322 . S
Ho441 O468 2.378 . S
Ho441 O469 2.524 . S
Ho441 O470 2.381 . S
Ho441 O471 2.669 . S
C442 O460 1.259 . S
C442 O461 1.268 . S
C443 Ho440 2.811 . S
C443 C444 1.488 . S
C443 O462 1.215 . S
C443 O463 1.289 . S
C444 C443 1.488 . S
C444 C445 1.348 . S
C444 C449 1.413 . S
C445 C444 1.348 . S
C445 C446 1.442 . S
C445 H472 0.930 . S
C446 C445 1.442 . S
C446 C447 1.381 . S
C446 H473 0.931 . S
C447 C446 1.381 . S
C447 C448 1.321 . S
C448 C447 1.321 . S
C448 C449 1.403 . S
C448 H474 0.934 . S
C449 C444 1.413 . S
C449 C448 1.403 . S
C449 H475 0.930 . S
C450 O464 1.275 . S
C450 O465 1.256 . S
C451 O466 1.259 . S
C451 O467 1.268 . S
C452 Ho441 2.811 . S
C452 C453 1.488 . S
C452 O468 1.215 . S
C452 O469 1.289 . S
C453 C452 1.488 . S
C453 C454 1.348 . S
C453 C458 1.413 . S
C454 C453 1.348 . S
C454 C455 1.442 . S
C454 H476 0.930 . S
C455 C454 1.442 . S
C455 C456 1.381 . S
C455 H477 0.931 . S
C456 C455 1.381 . S
C456 C457 1.321 . S
C457 C456 1.321 . S
C457 C458 1.403 . S
C457 H478 0.934 . S
C458 C453 1.413 . S
C458 C457 1.403 . S
C458 H479 0.930 . S
C459 O470 1.275 . S
C459 O471 1.256 . S
O460 Ho440 2.322 . S
O460 C442 1.259 . S
O461 Ho441 2.346 . S
O461 C442 1.268 . S
O462 Ho440 2.378 . S
O462 C443 1.215 . S
O463 Ho440 2.524 . S
O463 C443 1.289 . S
O464 Ho440 2.381 . S
O464 C450 1.275 . S
O465 Ho440 2.669 . S
O465 Ho441 2.305 . S
O465 C450 1.256 . S
O466 Ho441 2.322 . S
O466 C451 1.259 . S
O467 Ho440 2.346 . S
O467 C451 1.268 . S
O468 Ho441 2.378 . S
O468 C452 1.215 . S
O469 Ho441 2.524 . S
O469 C452 1.289 . S
O470 Ho441 2.381 . S
O470 C459 1.275 . S
O471 Ho440 2.305 . S
O471 Ho441 2.669 . S
O471 C459 1.256 . S
H472 C445 0.930 . S
H473 C446 0.931 . S
H474 C448 0.934 . S
H475 C449 0.930 . S
H476 C454 0.930 . S
H477 C455 0.931 . S
H478 C457 0.934 . S
H479 C458 0.930 . S
H480 C488 0.929 . S
H481 C490 0.930 . S
H482 C492 0.930 . S
H483 C495 0.929 . S
H484 C498 0.930 . S
H485 C500 0.960 . S
H486 C500 0.960 . S
H487 C500 0.960 . S
C488 H480 0.929 . S
C488 C489 1.377 . S
C488 C490 1.384 . S
C489 C488 1.377 . S
C489 C495 1.390 . S
C490 H481 0.930 . S
C490 C488 1.384 . S
C490 C491 1.372 . S
C491 C490 1.372 . S
C491 C492 1.400 . S
C491 C496 1.490 . S
C492 H482 0.930 . S
C492 C491 1.400 . S
C492 C495 1.386 . S
H493 C509 0.930 . S
H494 C510 0.931 . S
C495 H483 0.929 . S
C495 C489 1.390 . S
C495 C492 1.386 . S
C496 C491 1.490 . S
C496 C498 1.395 . S
C496 C499 1.403 . S
H497 C503 0.930 . S
C498 H484 0.930 . S
C498 C496 1.395 . S
C498 C501 1.403 . S
C499 C496 1.403 . S
C499 C500 1.524 . S
C499 C503 1.400 . S
C500 H485 0.960 . S
C500 H486 0.960 . S
C500 H487 0.960 . S
C500 C499 1.524 . S
C501 C498 1.403 . S
C501 C502 1.392 . S
C501 C505 1.495 . S
C502 C501 1.392 . S
C502 C503 1.385 . S
C502 C504 1.478 . S
C503 H497 0.930 . S
C503 C499 1.400 . S
C503 C502 1.385 . S
C504 C502 1.478 . S
C504 C506 1.381 . S
C504 C510 1.383 . S
C505 C501 1.495 . S
C505 H511 0.959 . S
C505 H512 0.961 . S
C505 H513 0.960 . S
C506 C504 1.381 . S
C506 C507 1.394 . S
C506 H514 0.930 . S
C507 C506 1.394 . S
C507 C508 1.383 . S
C507 H515 0.929 . S
C508 C507 1.383 . S
C508 C509 1.377 . S
C509 H493 0.930 . S
C509 C508 1.377 . S
C509 C510 1.379 . S
C510 H494 0.931 . S
C510 C504 1.383 . S
C510 C509 1.379 . S
H511 C505 0.959 . S
H512 C505 0.961 . S
H513 C505 0.960 . S
H514 C506 0.930 . S
H515 C507 0.929 . S
H516 C524 0.929 1_545 S
H517 C526 0.930 . S
H518 C528 0.930 . S
H519 C531 0.929 . S
H520 C534 0.930 . S
H521 C536 0.960 . S
H522 C536 0.960 . S
H523 C536 0.960 . S
C524 H516 0.929 1_565 S
C524 C525 1.377 . S
C524 C526 1.384 . S
C525 C524 1.377 . S
C525 C531 1.390 . S
C526 H517 0.930 . S
C526 C524 1.384 . S
C526 C527 1.372 . S
C527 C526 1.372 . S
C527 C528 1.400 . S
C527 C532 1.490 . S
C528 H518 0.930 . S
C528 C527 1.400 . S
C528 C531 1.386 . S
H529 C545 0.930 . S
H530 C546 0.931 . S
C531 H519 0.929 . S
C531 C525 1.390 . S
C531 C528 1.386 . S
C532 C527 1.490 . S
C532 C534 1.395 . S
C532 C535 1.403 . S
H533 C539 0.930 . S
C534 H520 0.930 . S
C534 C532 1.395 . S
C534 C537 1.403 . S
C535 C532 1.403 . S
C535 C536 1.524 . S
C535 C539 1.400 . S
C536 H521 0.960 . S
C536 H522 0.960 . S
C536 H523 0.960 . S
C536 C535 1.524 . S
C537 C534 1.403 . S
C537 C538 1.392 . S
C537 C541 1.495 . S
C538 C537 1.392 . S
C538 C539 1.385 . S
C538 C540 1.478 . S
C539 H533 0.930 . S
C539 C535 1.400 . S
C539 C538 1.385 . S
C540 C538 1.478 . S
C540 C542 1.381 . S
C540 C546 1.383 . S
C541 C537 1.495 . S
C541 H547 0.959 . S
C541 H548 0.961 . S
C541 H549 0.960 . S
C542 C540 1.381 . S
C542 C543 1.394 . S
C542 H550 0.930 . S
C543 C542 1.394 . S
C543 C544 1.383 . S
C543 H551 0.929 . S
C544 C543 1.383 . S
C544 C545 1.377 . S
C545 H529 0.930 . S
C545 C544 1.377 . S
C545 C546 1.379 . S
C546 H530 0.931 . S
C546 C540 1.383 . S
C546 C545 1.379 . S
H547 C541 0.959 . S
H548 C541 0.961 . S
H549 C541 0.960 . S
H550 C542 0.930 . S
H551 C543 0.929 . S
H552 C560 0.929 . S
H553 C562 0.930 . S
H554 C564 0.930 . S
H555 C567 0.929 . S
H556 C570 0.930 . S
H557 C572 0.960 . S
H558 C572 0.960 1_556 S
H559 C572 0.960 . S
C560 H552 0.929 . S
C560 C561 1.377 . S
C560 C562 1.384 . S
C561 C560 1.377 . S
C561 C567 1.390 1_556 S
C562 H553 0.930 . S
C562 C560 1.384 . S
C562 C563 1.372 1_556 S
C563 C562 1.372 1_554 S
C563 C564 1.400 . S
C563 C568 1.490 . S
C564 H554 0.930 . S
C564 C563 1.400 . S
C564 C567 1.386 . S
H565 C581 0.930 . S
H566 C582 0.931 . S
C567 H555 0.929 . S
C567 C561 1.390 1_554 S
C567 C564 1.386 . S
C568 C563 1.490 . S
C568 C570 1.395 . S
C568 C571 1.403 . S
H569 C575 0.930 . S
C570 H556 0.930 . S
C570 C568 1.395 . S
C570 C573 1.403 . S
C571 C568 1.403 . S
C571 C572 1.524 . S
C571 C575 1.400 . S
C572 H557 0.960 . S
C572 H558 0.960 1_554 S
C572 H559 0.960 . S
C572 C571 1.524 . S
C573 C570 1.403 . S
C573 C574 1.392 . S
C573 C577 1.495 . S
C574 C573 1.392 . S
C574 C575 1.385 . S
C574 C576 1.478 . S
C575 H569 0.930 . S
C575 C571 1.400 . S
C575 C574 1.385 . S
C576 C574 1.478 . S
C576 C578 1.381 . S
C576 C582 1.383 . S
C577 C573 1.495 . S
C577 H583 0.959 . S
C577 H584 0.961 . S
C577 H585 0.960 . S
C578 C576 1.381 . S
C578 C579 1.394 . S
C578 H586 0.930 . S
C579 C578 1.394 . S
C579 C580 1.383 . S
C579 H587 0.929 . S
C580 C579 1.383 . S
C580 C581 1.377 . S
C581 H565 0.930 . S
C581 C580 1.377 . S
C581 C582 1.379 . S
C582 H566 0.931 . S
C582 C576 1.383 . S
C582 C581 1.379 . S
H583 C577 0.959 . S
H584 C577 0.961 . S
H585 C577 0.960 . S
H586 C578 0.930 . S
H587 C579 0.929 . S
H588 C596 0.929 . S
H589 C598 0.930 . S
H590 C600 0.930 . S
H591 C603 0.929 . S
H592 C606 0.930 . S
H593 C608 0.960 . S
H594 C608 0.960 . S
H595 C608 0.960 . S
C596 H588 0.929 . S
C596 C597 1.377 . S
C596 C598 1.384 . S
C597 C596 1.377 . S
C597 C603 1.390 . S
C598 H589 0.930 . S
C598 C596 1.384 . S
C598 C599 1.372 . S
C599 C598 1.372 . S
C599 C600 1.400 . S
C599 C604 1.490 . S
C600 H590 0.930 . S
C600 C599 1.400 . S
C600 C603 1.386 . S
H601 C617 0.930 . S
H602 C618 0.931 . S
C603 H591 0.929 . S
C603 C597 1.390 . S
C603 C600 1.386 . S
C604 C599 1.490 . S
C604 C606 1.395 . S
C604 C607 1.403 . S
H605 C611 0.930 . S
C606 H592 0.930 . S
C606 C604 1.395 . S
C606 C609 1.403 . S
C607 C604 1.403 . S
C607 C608 1.524 . S
C607 C611 1.400 . S
C608 H593 0.960 . S
C608 H594 0.960 . S
C608 H595 0.960 . S
C608 C607 1.524 . S
C609 C606 1.403 . S
C609 C610 1.392 . S
C609 C613 1.495 . S
C610 C609 1.392 . S
C610 C611 1.385 . S
C610 C612 1.478 . S
C611 H605 0.930 . S
C611 C607 1.400 . S
C611 C610 1.385 . S
C612 C610 1.478 . S
C612 C614 1.381 . S
C612 C618 1.383 . S
C613 C609 1.495 . S
C613 H619 0.959 . S
C613 H620 0.961 . S
C613 H621 0.960 1_545 S
C614 C612 1.381 . S
C614 C615 1.389 1_545 S
C614 H622 0.930 1_545 S
C615 C614 1.389 1_565 S
C615 C616 1.369 1_565 S
C615 H623 0.950 . S
C616 C615 1.369 1_545 S
C616 C617 1.377 . S
C617 H601 0.930 . S
C617 C616 1.377 . S
C617 C618 1.379 . S
C618 H602 0.931 . S
C618 C612 1.383 . S
C618 C617 1.379 . S
H619 C613 0.959 . S
H620 C613 0.961 . S
H621 C613 0.960 1_565 S
H622 C614 0.930 1_565 S
H623 C615 0.950 . S
H624 C632 0.929 . S
H625 C634 0.930 . S
H626 C636 0.930 . S
H627 C639 0.929 . S
H628 C642 0.930 . S
H629 C644 0.960 . S
H630 C644 0.960 . S
H631 C644 0.960 . S
C632 H624 0.929 . S
C632 C633 1.377 . S
C632 C634 1.384 . S
C633 C632 1.377 . S
C633 C639 1.390 . S
C634 H625 0.930 . S
C634 C632 1.384 . S
C634 C635 1.372 . S
C635 C634 1.372 . S
C635 C636 1.400 . S
C635 C640 1.490 . S
C636 H626 0.930 . S
C636 C635 1.400 . S
C636 C639 1.386 . S
H637 C653 0.930 . S
H638 C654 0.931 . S
C639 H627 0.929 . S
C639 C633 1.390 . S
C639 C636 1.386 . S
C640 C635 1.490 . S
C640 C642 1.395 . S
C640 C643 1.403 . S
H641 C647 0.930 . S
C642 H628 0.930 . S
C642 C640 1.395 . S
C642 C645 1.403 . S
C643 C640 1.403 . S
C643 C644 1.524 . S
C643 C647 1.400 . S
C644 H629 0.960 . S
C644 H630 0.960 . S
C644 H631 0.960 . S
C644 C643 1.524 . S
C645 C642 1.403 . S
C645 C646 1.392 . S
C645 C649 1.495 . S
C646 C645 1.392 . S
C646 C647 1.385 . S
C646 C648 1.478 . S
C647 H641 0.930 . S
C647 C643 1.400 . S
C647 C646 1.385 . S
C648 C646 1.478 . S
C648 C650 1.381 . S
C648 C654 1.383 . S
C649 C645 1.495 . S
C649 H655 0.959 . S
C649 H656 0.961 . S
C649 H657 0.960 . S
C650 C648 1.381 . S
C650 C651 1.394 . S
C650 H658 0.930 . S
C651 C650 1.394 . S
C651 C652 1.383 . S
C651 H659 0.929 . S
C652 C651 1.383 . S
C652 C653 1.377 . S
C653 H637 0.930 . S
C653 C652 1.377 . S
C653 C654 1.379 . S
C654 H638 0.931 . S
C654 C648 1.383 . S
C654 C653 1.379 . S
H655 C649 0.959 . S
H656 C649 0.961 . S
H657 C649 0.960 . S
H658 C650 0.930 . S
H659 C651 0.929 . S
H660 C668 0.929 . S
H661 C670 0.930 . S
H662 C672 0.930 . S
H663 C675 0.929 . S
H664 C678 0.930 . S
H665 C680 0.960 . S
H666 C680 0.960 . S
H667 C680 0.960 . S
C668 H660 0.929 . S
C668 C669 1.377 . S
C668 C670 1.384 . S
C669 C668 1.377 . S
C669 C675 1.390 . S
C670 H661 0.930 . S
C670 C668 1.384 . S
C670 C671 1.372 . S
C671 C670 1.372 . S
C671 C672 1.400 . S
C671 C676 1.490 . S
C672 H662 0.930 . S
C672 C671 1.400 . S
C672 C675 1.386 . S
H673 C689 0.930 . S
H674 C690 0.931 . S
C675 H663 0.929 . S
C675 C669 1.390 . S
C675 C672 1.386 . S
C676 C671 1.490 . S
C676 C678 1.395 . S
C676 C679 1.403 . S
H677 C683 0.930 . S
C678 H664 0.930 . S
C678 C676 1.395 . S
C678 C681 1.403 . S
C679 C676 1.403 . S
C679 C680 1.524 . S
C679 C683 1.400 . S
C680 H665 0.960 . S
C680 H666 0.960 . S
C680 H667 0.960 . S
C680 C679 1.524 . S
C681 C678 1.403 . S
C681 C682 1.392 . S
C681 C685 1.495 . S
C682 C681 1.392 . S
C682 C683 1.385 . S
C682 C684 1.478 . S
C683 H677 0.930 . S
C683 C679 1.400 . S
C683 C682 1.385 . S
C684 C682 1.478 . S
C684 C686 1.381 . S
C684 C690 1.383 . S
C685 C681 1.495 . S
C685 H691 0.959 . S
C685 H692 0.961 . S
C685 H693 0.960 . S
C686 C684 1.381 . S
C686 C687 1.394 . S
C686 H694 0.930 . S
C687 C686 1.394 . S
C687 C688 1.383 . S
C687 H695 0.929 . S
C688 C687 1.383 . S
C688 C689 1.377 . S
C689 H673 0.930 . S
C689 C688 1.377 . S
C689 C690 1.379 . S
C690 H674 0.931 . S
C690 C684 1.383 . S
C690 C689 1.379 . S
H691 C685 0.959 . S
H692 C685 0.961 . S
H693 C685 0.960 . S
H694 C686 0.930 . S
H695 C687 0.929 . S
H696 C704 0.929 . S
H697 C706 0.930 . S
H698 C708 0.930 . S
H699 C711 0.929 . S
H700 C714 0.930 . S
H701 C716 0.960 . S
H702 C716 0.960 . S
H703 C716 0.960 . S
C704 H696 0.929 . S
C704 C705 1.377 . S
C704 C706 1.384 . S
C705 C704 1.377 . S
C705 C711 1.390 . S
C706 H697 0.930 . S
C706 C704 1.384 . S
C706 C707 1.372 . S
C707 C706 1.372 . S
C707 C708 1.400 . S
C707 C712 1.490 . S
C708 H698 0.930 . S
C708 C707 1.400 . S
C708 C711 1.386 . S
H709 C725 0.930 . S
H710 C726 0.931 . S
C711 H699 0.929 . S
C711 C705 1.390 . S
C711 C708 1.386 . S
C712 C707 1.490 . S
C712 C714 1.395 . S
C712 C715 1.403 . S
H713 C719 0.930 . S
C714 H700 0.930 . S
C714 C712 1.395 . S
C714 C717 1.403 . S
C715 C712 1.403 . S
C715 C716 1.524 . S
C715 C719 1.400 . S
C716 H701 0.960 . S
C716 H702 0.960 . S
C716 H703 0.960 . S
C716 C715 1.524 . S
C717 C714 1.403 . S
C717 C718 1.392 . S
C717 C721 1.495 . S
C718 C717 1.392 . S
C718 C719 1.385 . S
C718 C720 1.478 . S
C719 H713 0.930 . S
C719 C715 1.400 . S
C719 C718 1.385 . S
C720 C718 1.478 . S
C720 C722 1.381 . S
C720 C726 1.383 . S
C721 C717 1.495 . S
C721 H727 0.959 . S
C721 H728 0.961 . S
C721 H729 0.960 . S
C722 C720 1.381 . S
C722 C723 1.384 1_556 S
C722 H730 0.930 1_556 S
C723 C722 1.384 1_554 S
C723 C724 1.361 1_554 S
C723 H731 0.962 . S
C724 C723 1.361 1_556 S
C724 C725 1.377 . S
C725 H709 0.930 . S
C725 C724 1.377 . S
C725 C726 1.379 . S
C726 H710 0.931 . S
C726 C720 1.383 . S
C726 C725 1.379 . S
H727 C721 0.959 . S
H728 C721 0.961 . S
H729 C721 0.960 . S
H730 C722 0.930 1_554 S
H731 C723 0.962 . S
H732 C740 0.929 . S
H733 C742 0.930 . S
H734 C744 0.930 . S
H735 C747 0.929 . S
H736 C750 0.930 . S
H737 C752 0.960 . S
H738 C752 0.960 . S
H739 C752 0.960 . S
C740 H732 0.929 . S
C740 C741 1.377 . S
C740 C742 1.384 . S
C741 C740 1.377 . S
C741 C747 1.390 . S
C742 H733 0.930 . S
C742 C740 1.384 . S
C742 C743 1.372 . S
C743 C742 1.372 . S
C743 C744 1.400 . S
C743 C748 1.490 . S
C744 H734 0.930 . S
C744 C743 1.400 . S
C744 C747 1.386 . S
H745 C761 0.930 . S
H746 C762 0.931 . S
C747 H735 0.929 . S
C747 C741 1.390 . S
C747 C744 1.386 . S
C748 C743 1.490 . S
C748 C750 1.395 . S
C748 C751 1.403 . S
H749 C755 0.930 . S
C750 H736 0.930 . S
C750 C748 1.395 . S
C750 C753 1.403 . S
C751 C748 1.403 . S
C751 C752 1.524 . S
C751 C755 1.400 . S
C752 H737 0.960 . S
C752 H738 0.960 . S
C752 H739 0.960 . S
C752 C751 1.524 . S
C753 C750 1.403 . S
C753 C754 1.392 . S
C753 C757 1.495 . S
C754 C753 1.392 . S
C754 C755 1.385 . S
C754 C756 1.478 . S
C755 H749 0.930 . S
C755 C751 1.400 . S
C755 C754 1.385 . S
C756 C754 1.478 . S
C756 C758 1.381 . S
C756 C762 1.383 . S
C757 C753 1.495 . S
C757 H763 0.959 . S
C757 H764 0.961 . S
C757 H765 0.960 . S
C758 C756 1.381 . S
C758 C759 1.394 . S
C758 H766 0.930 . S
C759 C758 1.394 . S
C759 C760 1.383 . S
C759 H767 0.929 . S
C760 C759 1.383 . S
C760 C761 1.377 . S
C761 H745 0.930 . S
C761 C760 1.377 . S
C761 C762 1.379 . S
C762 H746 0.931 . S
C762 C756 1.383 . S
C762 C761 1.379 . S
H763 C757 0.959 . S
H764 C757 0.961 . S
H765 C757 0.960 . S
H766 C758 0.930 . S
H767 C759 0.929 . S
H768 C776 0.929 . S
H769 C778 0.930 . S
H770 C780 0.930 . S
H771 C783 0.929 . S
H772 C786 0.930 . S
H773 C788 0.960 . S
H774 C788 0.960 . S
H775 C788 0.960 . S
C776 H768 0.929 . S
C776 C777 1.377 . S
C776 C778 1.384 . S
C777 C776 1.377 . S
C777 C783 1.390 . S
C778 H769 0.930 . S
C778 C776 1.384 . S
C778 C779 1.372 . S
C779 C778 1.372 . S
C779 C780 1.400 . S
C779 C784 1.490 . S
C780 H770 0.930 . S
C780 C779 1.400 . S
C780 C783 1.386 . S
H781 C797 0.930 . S
H782 C798 0.931 . S
C783 H771 0.929 . S
C783 C777 1.390 . S
C783 C780 1.386 . S
C784 C779 1.490 . S
C784 C786 1.395 . S
C784 C787 1.403 . S
H785 C791 0.930 . S
C786 H772 0.930 . S
C786 C784 1.395 . S
C786 C789 1.403 . S
C787 C784 1.403 . S
C787 C788 1.524 . S
C787 C791 1.400 . S
C788 H773 0.960 . S
C788 H774 0.960 . S
C788 H775 0.960 . S
C788 C787 1.524 . S
C789 C786 1.403 . S
C789 C790 1.392 . S
C789 C793 1.495 . S
C790 C789 1.392 . S
C790 C791 1.385 . S
C790 C792 1.478 . S
C791 H785 0.930 . S
C791 C787 1.400 . S
C791 C790 1.385 . S
C792 C790 1.478 . S
C792 C794 1.381 . S
C792 C798 1.383 . S
C793 C789 1.495 . S
C793 H799 0.959 . S
C793 H800 0.961 . S
C793 H801 0.960 . S
C794 C792 1.381 . S
C794 C795 1.394 . S
C794 H802 0.930 . S
C795 C794 1.394 . S
C795 C796 1.383 . S
C795 H803 0.929 . S
C796 C795 1.383 . S
C796 C797 1.377 . S
C797 H781 0.930 . S
C797 C796 1.377 . S
C797 C798 1.379 . S
C798 H782 0.931 . S
C798 C792 1.383 . S
C798 C797 1.379 . S
H799 C793 0.959 . S
H800 C793 0.961 . S
H801 C793 0.960 . S
H802 C794 0.930 . S
H803 C795 0.929 . S
H804 C812 0.929 . S
H805 C814 0.930 . S
H806 C816 0.930 . S
H807 C819 0.929 . S
H808 C822 0.930 . S
H809 C824 0.960 . S
H810 C824 0.960 . S
H811 C824 0.960 . S
C812 H804 0.929 . S
C812 C813 1.377 . S
C812 C814 1.384 . S
C813 C812 1.377 . S
C813 C819 1.390 . S
C814 H805 0.930 . S
C814 C812 1.384 . S
C814 C815 1.372 . S
C815 C814 1.372 . S
C815 C816 1.400 . S
C815 C820 1.490 . S
C816 H806 0.930 . S
C816 C815 1.400 . S
C816 C819 1.386 . S
H817 C833 0.930 . S
H818 C834 0.931 . S
C819 H807 0.929 . S
C819 C813 1.390 . S
C819 C816 1.386 . S
C820 C815 1.490 . S
C820 C822 1.395 . S
C820 C823 1.403 . S
H821 C827 0.930 . S
C822 H808 0.930 . S
C822 C820 1.395 . S
C822 C825 1.403 . S
C823 C820 1.403 . S
C823 C824 1.524 . S
C823 C827 1.400 . S
C824 H809 0.960 . S
C824 H810 0.960 . S
C824 H811 0.960 . S
C824 C823 1.524 . S
C825 C822 1.403 . S
C825 C826 1.392 . S
C825 C829 1.495 1_455 S
C826 C825 1.392 . S
C826 C827 1.385 . S
C826 C828 1.478 . S
C827 H821 0.930 . S
C827 C823 1.400 . S
C827 C826 1.385 . S
C828 C826 1.478 . S
C828 C830 1.381 . S
C828 C834 1.383 . S
C829 C825 1.495 1_655 S
C829 H835 0.959 . S
C829 H836 0.961 . S
C829 H837 0.960 . S
C830 C828 1.381 . S
C830 C831 1.394 . S
C830 H838 0.930 . S
C831 C830 1.394 . S
C831 C832 1.383 . S
C831 H839 0.929 . S
C832 C831 1.383 . S
C832 C833 1.377 . S
C833 H817 0.930 . S
C833 C832 1.377 . S
C833 C834 1.379 . S
C834 H818 0.931 . S
C834 C828 1.383 . S
C834 C833 1.379 . S
H835 C829 0.959 . S
H836 C829 0.961 . S
H837 C829 0.960 . S
H838 C830 0.930 . S
H839 C831 0.929 . S
H840 C848 0.929 . S
H841 C850 0.930 . S
H842 C852 0.932 . S
H843 C855 0.929 . S
H844 C858 0.930 . S
H845 C860 0.960 . S
H846 C860 0.960 . S
H847 C860 0.960 . S
C848 H840 0.929 . S
C848 C849 1.377 1_655 S
C848 C850 1.384 . S
C849 C848 1.377 1_455 S
C849 C855 1.390 . S
C850 H841 0.930 . S
C850 C848 1.384 . S
C850 C851 1.372 . S
C851 C850 1.372 . S
C851 C852 1.400 . S
C851 C856 1.490 . S
C852 H842 0.932 . S
C852 C851 1.400 . S
C852 C855 1.386 1_655 S
H853 C869 0.930 . S
H854 C870 0.931 . S
C855 H843 0.929 . S
C855 C849 1.390 . S
C855 C852 1.386 1_455 S
C856 C851 1.490 . S
C856 C858 1.395 . S
C856 C859 1.403 . S
H857 C863 0.930 . S
C858 H844 0.930 . S
C858 C856 1.395 . S
C858 C861 1.403 . S
C859 C856 1.403 . S
C859 C860 1.524 . S
C859 C863 1.400 . S
C860 H845 0.960 . S
C860 H846 0.960 . S
C860 H847 0.960 . S
C860 C859 1.524 . S
C861 C858 1.403 . S
C861 C862 1.392 . S
C861 C865 1.495 . S
C862 C861 1.392 . S
C862 C863 1.385 . S
C862 C864 1.478 . S
C863 H857 0.930 . S
C863 C859 1.400 . S
C863 C862 1.385 . S
C864 C862 1.478 . S
C864 C866 1.381 . S
C864 C870 1.383 . S
C865 C861 1.495 . S
C865 H871 0.959 . S
C865 H872 0.961 . S
C865 H873 0.960 . S
C866 C864 1.381 . S
C866 C867 1.394 . S
C866 H874 0.930 . S
C867 C866 1.394 . S
C867 C868 1.383 . S
C867 H875 0.929 . S
C868 C867 1.383 . S
C868 C869 1.377 . S
C869 H853 0.930 . S
C869 C868 1.377 . S
C869 C870 1.379 . S
C870 H854 0.931 . S
C870 C864 1.383 . S
C870 C869 1.379 . S
H871 C865 0.959 . S
H872 C865 0.961 . S
H873 C865 0.960 . S
H874 C866 0.930 . S
H875 C867 0.929 . S
H876 C884 0.929 . S
H877 C886 0.930 . S
H878 C888 0.930 . S
H879 C891 0.929 . S
H880 C894 0.930 . S
H881 C896 0.960 . S
H882 C896 0.960 . S
H883 C896 0.960 . S
C884 H876 0.929 . S
C884 C885 1.377 . S
C884 C886 1.384 . S
C885 C884 1.377 . S
C885 C891 1.390 . S
C886 H877 0.930 . S
C886 C884 1.384 . S
C886 C887 1.372 . S
C887 C886 1.372 . S
C887 C888 1.400 . S
C887 C892 1.490 . S
C888 H878 0.930 . S
C888 C887 1.400 . S
C888 C891 1.386 . S
H889 C905 0.930 . S
H890 C906 0.931 . S
C891 H879 0.929 . S
C891 C885 1.390 . S
C891 C888 1.386 . S
C892 C887 1.490 . S
C892 C894 1.395 . S
C892 C895 1.403 . S
H893 C899 0.930 . S
C894 H880 0.930 . S
C894 C892 1.395 . S
C894 C897 1.403 . S
C895 C892 1.403 . S
C895 C896 1.524 . S
C895 C899 1.400 . S
C896 H881 0.960 . S
C896 H882 0.960 . S
C896 H883 0.960 . S
C896 C895 1.524 . S
C897 C894 1.403 . S
C897 C898 1.392 . S
C897 C901 1.495 . S
C898 C897 1.392 . S
C898 C899 1.385 . S
C898 C900 1.478 . S
C899 H893 0.930 . S
C899 C895 1.400 . S
C899 C898 1.385 . S
C900 C898 1.478 . S
C900 C902 1.381 . S
C900 C906 1.383 . S
C901 C897 1.495 . S
C901 H907 0.959 . S
C901 H908 0.961 . S
C901 H909 0.960 . S
C902 C900 1.381 . S
C902 C903 1.394 . S
C902 H910 0.930 . S
C903 C902 1.394 . S
C903 C904 1.383 . S
C903 H911 0.929 . S
C904 C903 1.383 . S
C904 C905 1.377 . S
C905 H889 0.930 . S
C905 C904 1.377 . S
C905 C906 1.379 . S
C906 H890 0.931 . S
C906 C900 1.383 . S
C906 C905 1.379 . S
H907 C901 0.959 . S
H908 C901 0.961 . S
H909 C901 0.960 . S
H910 C902 0.930 . S
H911 C903 0.929 . S
H912 C920 0.929 . S
H913 C922 0.930 . S
H914 C924 0.930 . S
H915 C927 0.929 . S
H916 C930 0.930 . S
H917 C932 0.960 . S
H918 C932 0.960 . S
H919 C932 0.960 . S
C920 H912 0.929 . S
C920 C921 1.377 . S
C920 C922 1.384 . S
C921 C920 1.377 . S
C921 C927 1.390 . S
C922 H913 0.930 . S
C922 C920 1.384 . S
C922 C923 1.372 . S
C923 C922 1.372 . S
C923 C924 1.400 . S
C923 C928 1.490 . S
C924 H914 0.930 . S
C924 C923 1.400 . S
C924 C927 1.386 . S
H925 C941 0.930 . S
H926 C942 0.931 . S
C927 H915 0.929 . S
C927 C921 1.390 . S
C927 C924 1.386 . S
C928 C923 1.490 . S
C928 C930 1.395 . S
C928 C931 1.403 . S
H929 C935 0.930 . S
C930 H916 0.930 . S
C930 C928 1.395 . S
C930 C933 1.403 . S
C931 C928 1.403 . S
C931 C932 1.524 . S
C931 C935 1.400 . S
C932 H917 0.960 . S
C932 H918 0.960 . S
C932 H919 0.960 . S
C932 C931 1.524 . S
C933 C930 1.403 . S
C933 C934 1.392 . S
C933 C937 1.495 . S
C934 C933 1.392 . S
C934 C935 1.385 . S
C934 C936 1.478 . S
C935 H929 0.930 . S
C935 C931 1.400 . S
C935 C934 1.385 . S
C936 C934 1.478 . S
C936 C938 1.381 . S
C936 C942 1.383 . S
C937 C933 1.495 . S
C937 H943 0.959 . S
C937 H944 0.961 . S
C937 H945 0.960 . S
C938 C936 1.381 . S
C938 C939 1.394 . S
C938 H946 0.930 . S
C939 C938 1.394 . S
C939 C940 1.383 . S
C939 H947 0.929 . S
C940 C939 1.383 . S
C940 C941 1.377 . S
C941 H925 0.930 . S
C941 C940 1.377 . S
C941 C942 1.379 . S
C942 H926 0.931 . S
C942 C936 1.383 . S
C942 C941 1.379 . S
H943 C937 0.959 . S
H944 C937 0.961 . S
H945 C937 0.960 . S
H946 C938 0.930 . S
H947 C939 0.929 . S
H948 C956 0.929 . S
H949 C958 0.930 . S
H950 C960 0.930 . S
H951 C963 0.929 . S
H952 C966 0.930 . S
H953 C968 0.960 . S
H954 C968 0.960 . S
H955 C968 0.960 . S
C956 H948 0.929 . S
C956 C957 1.377 . S
C956 C958 1.384 . S
C957 C956 1.377 . S
C957 C963 1.390 . S
C958 H949 0.930 . S
C958 C956 1.384 . S
C958 C959 1.372 . S
C959 C958 1.372 . S
C959 C960 1.400 . S
C959 C964 1.490 . S
C960 H950 0.930 . S
C960 C959 1.400 . S
C960 C963 1.386 . S
H961 C977 0.930 . S
H962 C978 0.931 . S
C963 H951 0.929 . S
C963 C957 1.390 . S
C963 C960 1.386 . S
C964 C959 1.490 . S
C964 C966 1.395 . S
C964 C967 1.403 . S
H965 C971 0.930 . S
C966 H952 0.930 . S
C966 C964 1.395 . S
C966 C969 1.403 . S
C967 C964 1.403 . S
C967 C968 1.524 . S
C967 C971 1.400 . S
C968 H953 0.960 . S
C968 H954 0.960 . S
C968 H955 0.960 . S
C968 C967 1.524 . S
C969 C966 1.403 . S
C969 C970 1.392 . S
C969 C973 1.495 . S
C970 C969 1.392 . S
C970 C971 1.385 . S
C970 C972 1.478 . S
C971 H965 0.930 . S
C971 C967 1.400 . S
C971 C970 1.385 . S
C972 C970 1.478 . S
C972 C974 1.381 . S
C972 C978 1.383 . S
C973 C969 1.495 . S
C973 H979 0.959 . S
C973 H980 0.961 . S
C973 H981 0.960 . S
C974 C972 1.381 . S
C974 C975 1.394 . S
C974 H982 0.930 . S
C975 C974 1.394 . S
C975 C976 1.383 . S
C975 H983 0.929 . S
C976 C975 1.383 . S
C976 C977 1.377 . S
C977 H961 0.930 . S
C977 C976 1.377 . S
C977 C978 1.379 . S
C978 H962 0.931 . S
C978 C972 1.383 . S
C978 C977 1.379 . S
H979 C973 0.959 . S
H980 C973 0.961 . S
H981 C973 0.960 . S
H982 C974 0.930 . S
H983 C975 0.929 . S
H984 C992 0.929 . S
H985 C994 0.930 . S
H986 C996 0.930 . S
H987 C999 0.929 . S
H988 C1002 0.930 . S
H989 C1004 0.960 . S
H990 C1004 0.960 . S
H991 C1004 0.960 . S
C992 H984 0.929 . S
C992 C993 1.377 . S
C992 C994 1.384 . S
C993 C992 1.377 . S
C993 C999 1.390 . S
C994 H985 0.930 . S
C994 C992 1.384 . S
C994 C995 1.372 . S
C995 C994 1.372 . S
C995 C996 1.400 . S
C995 C1000 1.490 . S
C996 H986 0.930 . S
C996 C995 1.400 . S
C996 C999 1.386 . S
H997 C1013 0.930 . S
H998 C1014 0.931 . S
C999 H987 0.929 . S
C999 C993 1.390 . S
C999 C996 1.386 . S
C1000 C995 1.490 . S
C1000 C1002 1.395 . S
C1000 C1003 1.403 . S
H1001 C1007 0.930 . S
C1002 H988 0.930 . S
C1002 C1000 1.395 . S
C1002 C1005 1.403 . S
C1003 C1000 1.403 . S
C1003 C1004 1.524 . S
C1003 C1007 1.400 . S
C1004 H989 0.960 . S
C1004 H990 0.960 . S
C1004 H991 0.960 . S
C1004 C1003 1.524 . S
C1005 C1002 1.403 . S
C1005 C1006 1.392 . S
C1005 C1009 1.495 . S
C1006 C1005 1.392 . S
C1006 C1007 1.385 . S
C1006 C1008 1.478 . S
C1007 H1001 0.930 . S
C1007 C1003 1.400 . S
C1007 C1006 1.385 . S
C1008 C1006 1.478 . S
C1008 C1010 1.381 . S
C1008 C1014 1.383 . S
C1009 C1005 1.495 . S
C1009 H1015 0.959 . S
C1009 H1016 0.961 . S
C1009 H1017 0.960 . S
C1010 C1008 1.381 . S
C1010 C1011 1.394 . S
C1010 H1018 0.930 . S
C1011 C1010 1.394 . S
C1011 C1012 1.383 . S
C1011 H1019 0.929 . S
C1012 C1011 1.383 . S
C1012 C1013 1.377 . S
C1013 H997 0.930 . S
C1013 C1012 1.377 . S
C1013 C1014 1.379 . S
C1014 H998 0.931 . S
C1014 C1008 1.383 . S
C1014 C1013 1.379 . S
H1015 C1009 0.959 . S
H1016 C1009 0.961 . S
H1017 C1009 0.960 . S
H1018 C1010 0.930 . S
H1019 C1011 0.929 . S
H1020 C1028 0.929 . S
H1021 C1030 0.930 . S
H1022 C1032 0.930 . S
H1023 C1035 0.929 . S
H1024 C1038 0.930 . S
H1025 C1040 0.960 . S
H1026 C1040 0.960 . S
H1027 C1040 0.960 . S
C1028 H1020 0.929 . S
C1028 C1029 1.377 . S
C1028 C1030 1.384 . S
C1029 C1028 1.377 . S
C1029 C1035 1.390 . S
C1030 H1021 0.930 . S
C1030 C1028 1.384 . S
C1030 C1031 1.372 . S
C1031 C1030 1.372 . S
C1031 C1032 1.400 . S
C1031 C1036 1.490 . S
C1032 H1022 0.930 . S
C1032 C1031 1.400 . S
C1032 C1035 1.386 . S
H1033 C1049 0.930 . S
H1034 C1050 0.931 . S
C1035 H1023 0.929 . S
C1035 C1029 1.390 . S
C1035 C1032 1.386 . S
C1036 C1031 1.490 . S
C1036 C1038 1.395 . S
C1036 C1039 1.403 . S
H1037 C1043 0.930 . S
C1038 H1024 0.930 . S
C1038 C1036 1.395 . S
C1038 C1041 1.403 1_554 S
C1039 C1036 1.403 . S
C1039 C1040 1.524 . S
C1039 C1043 1.400 1_554 S
C1040 H1025 0.960 . S
C1040 H1026 0.960 . S
C1040 H1027 0.960 . S
C1040 C1039 1.524 . S
C1041 C1038 1.403 1_556 S
C1041 C1042 1.392 . S
C1041 C1045 1.495 . S
C1042 C1041 1.392 . S
C1042 C1043 1.385 . S
C1042 C1044 1.478 . S
C1043 H1037 0.930 . S
C1043 C1039 1.400 1_556 S
C1043 C1042 1.385 . S
C1044 C1042 1.478 . S
C1044 C1046 1.381 . S
C1044 C1050 1.383 . S
C1045 C1041 1.495 . S
C1045 H1051 0.959 . S
C1045 H1052 0.961 . S
C1045 H1053 0.960 . S
C1046 C1044 1.381 . S
C1046 C1047 1.394 . S
C1046 H1054 0.926 1_545 S
C1047 C1046 1.394 . S
C1047 C1048 1.383 . S
C1047 H1055 0.929 1_545 S
C1048 C1047 1.383 . S
C1048 C1049 1.377 . S
C1049 H1033 0.930 . S
C1049 C1048 1.377 . S
C1049 C1050 1.379 . S
C1050 H1034 0.931 . S
C1050 C1044 1.383 . S
C1050 C1049 1.379 . S
H1051 C1045 0.959 . S
H1052 C1045 0.961 . S
H1053 C1045 0.960 . S
H1054 C1046 0.926 1_565 S
H1055 C1047 0.929 1_565 S
H1056 C1064 0.929 . S
H1057 C1066 0.930 . S
H1058 C1068 0.930 . S
H1059 C1071 0.929 . S
H1060 C1074 0.930 . S
H1061 C1076 0.960 . S
H1062 C1076 0.960 . S
H1063 C1076 0.960 . S
C1064 H1056 0.929 . S
C1064 C1065 1.377 . S
C1064 C1066 1.384 . S
C1065 C1064 1.377 . S
C1065 C1071 1.390 . S
C1066 H1057 0.930 . S
C1066 C1064 1.384 . S
C1066 C1067 1.372 . S
C1067 C1066 1.372 . S
C1067 C1068 1.400 . S
C1067 C1072 1.490 . S
C1068 H1058 0.930 . S
C1068 C1067 1.400 . S
C1068 C1071 1.386 . S
H1069 C1085 0.930 . S
H1070 C1086 0.931 . S
C1071 H1059 0.929 . S
C1071 C1065 1.390 . S
C1071 C1068 1.386 . S
C1072 C1067 1.490 . S
C1072 C1074 1.395 . S
C1072 C1075 1.403 . S
H1073 C1079 0.930 . S
C1074 H1060 0.930 . S
C1074 C1072 1.395 . S
C1074 C1077 1.403 . S
C1075 C1072 1.403 . S
C1075 C1076 1.524 . S
C1075 C1079 1.400 . S
C1076 H1061 0.960 . S
C1076 H1062 0.960 . S
C1076 H1063 0.960 . S
C1076 C1075 1.524 . S
C1077 C1074 1.403 . S
C1077 C1078 1.392 . S
C1077 C1081 1.495 . S
C1078 C1077 1.392 . S
C1078 C1079 1.385 . S
C1078 C1080 1.478 . S
C1079 H1073 0.930 . S
C1079 C1075 1.400 . S
C1079 C1078 1.385 . S
C1080 C1078 1.478 . S
C1080 C1082 1.381 . S
C1080 C1086 1.383 . S
C1081 C1077 1.495 . S
C1081 H1087 0.959 . S
C1081 H1088 0.961 . S
C1081 H1089 0.960 . S
C1082 C1080 1.381 . S
C1082 C1083 1.394 . S
C1082 H1090 0.930 . S
C1083 C1082 1.394 . S
C1083 C1084 1.383 . S
C1083 H1091 0.929 . S
C1084 C1083 1.383 . S
C1084 C1085 1.377 . S
C1085 H1069 0.930 . S
C1085 C1084 1.377 . S
C1085 C1086 1.379 . S
C1086 H1070 0.931 . S
C1086 C1080 1.383 . S
C1086 C1085 1.379 . S
H1087 C1081 0.959 . S
H1088 C1081 0.961 . S
H1089 C1081 0.960 . S
H1090 C1082 0.930 . S
H1091 C1083 0.929 . S
H1092 C1100 0.929 . S
H1093 C1102 0.930 . S
H1094 C1104 0.930 1_556 S
H1095 C1107 0.929 . S
H1096 C1110 0.930 . S
H1097 C1112 0.960 . S
H1098 C1112 0.960 . S
H1099 C1112 0.960 . S
C1100 H1092 0.929 . S
C1100 C1101 1.377 . S
C1100 C1102 1.384 . S
C1101 C1100 1.377 . S
C1101 C1107 1.390 . S
C1102 H1093 0.930 . S
C1102 C1100 1.384 . S
C1102 C1103 1.372 . S
C1103 C1102 1.372 . S
C1103 C1104 1.400 . S
C1103 C1108 1.490 1_554 S
C1104 H1094 0.930 1_554 S
C1104 C1103 1.400 . S
C1104 C1107 1.386 . S
H1105 C1121 0.930 . S
H1106 C1122 0.931 . S
C1107 H1095 0.929 . S
C1107 C1101 1.390 . S
C1107 C1104 1.386 . S
C1108 C1103 1.490 1_556 S
C1108 C1110 1.395 . S
C1108 C1111 1.403 . S
H1109 C1115 0.930 . S
C1110 H1096 0.930 . S
C1110 C1108 1.395 . S
C1110 C1113 1.403 . S
C1111 C1108 1.403 . S
C1111 C1112 1.524 . S
C1111 C1115 1.400 . S
C1112 H1097 0.960 . S
C1112 H1098 0.960 . S
C1112 H1099 0.960 . S
C1112 C1111 1.524 . S
C1113 C1110 1.403 . S
C1113 C1114 1.392 . S
C1113 C1117 1.495 . S
C1114 C1113 1.392 . S
C1114 C1115 1.385 . S
C1114 C1116 1.478 . S
C1115 H1109 0.930 . S
C1115 C1111 1.400 . S
C1115 C1114 1.385 . S
C1116 C1114 1.478 . S
C1116 C1118 1.381 . S
C1116 C1122 1.383 . S
C1117 C1113 1.495 . S
C1117 H1123 0.959 . S
C1117 H1124 0.961 . S
C1117 H1125 0.960 . S
C1118 C1116 1.381 . S
C1118 C1119 1.394 . S
C1118 H1126 0.930 . S
C1119 C1118 1.394 . S
C1119 C1120 1.383 . S
C1119 H1127 0.929 . S
C1120 C1119 1.383 . S
C1120 C1121 1.377 . S
C1121 H1105 0.930 . S
C1121 C1120 1.377 . S
C1121 C1122 1.379 . S
C1122 H1106 0.931 . S
C1122 C1116 1.383 . S
C1122 C1121 1.379 . S
H1123 C1117 0.959 . S
H1124 C1117 0.961 . S
H1125 C1117 0.960 . S
H1126 C1118 0.930 . S
H1127 C1119 0.929 . S
H1128 C1136 0.929 . S
H1129 C1138 0.930 . S
H1130 C1140 0.930 . S
H1131 C1143 0.929 . S
H1132 C1146 0.930 . S
H1133 C1148 0.960 . S
H1134 C1148 0.960 . S
H1135 C1148 0.960 . S
C1136 H1128 0.929 . S
C1136 C1137 1.377 . S
C1136 C1138 1.384 . S
C1137 C1136 1.377 . S
C1137 C1143 1.390 . S
C1138 H1129 0.930 . S
C1138 C1136 1.384 . S
C1138 C1139 1.372 . S
C1139 C1138 1.372 . S
C1139 C1140 1.400 . S
C1139 C1144 1.490 . S
C1140 H1130 0.930 . S
C1140 C1139 1.400 . S
C1140 C1143 1.386 . S
H1141 C1157 0.930 . S
H1142 C1158 0.931 . S
C1143 H1131 0.929 . S
C1143 C1137 1.390 . S
C1143 C1140 1.386 . S
C1144 C1139 1.490 . S
C1144 C1146 1.395 . S
C1144 C1147 1.403 . S
H1145 C1151 0.930 . S
C1146 H1132 0.930 . S
C1146 C1144 1.395 . S
C1146 C1149 1.403 . S
C1147 C1144 1.403 . S
C1147 C1148 1.524 . S
C1147 C1151 1.400 . S
C1148 H1133 0.960 . S
C1148 H1134 0.960 . S
C1148 H1135 0.960 . S
C1148 C1147 1.524 . S
C1149 C1146 1.403 . S
C1149 C1150 1.392 . S
C1149 C1153 1.495 . S
C1150 C1149 1.392 . S
C1150 C1151 1.385 . S
C1150 C1152 1.478 . S
C1151 H1145 0.930 . S
C1151 C1147 1.400 . S
C1151 C1150 1.385 . S
C1152 C1150 1.478 . S
C1152 C1154 1.381 . S
C1152 C1158 1.383 . S
C1153 C1149 1.495 . S
C1153 H1159 0.959 . S
C1153 H1160 0.961 . S
C1153 H1161 0.960 . S
C1154 C1152 1.381 . S
C1154 C1155 1.394 . S
C1154 H1162 0.930 . S
C1155 C1154 1.394 . S
C1155 C1156 1.383 . S
C1155 H1163 0.929 . S
C1156 C1155 1.383 . S
C1156 C1157 1.377 . S
C1157 H1141 0.930 . S
C1157 C1156 1.377 . S
C1157 C1158 1.379 . S
C1158 H1142 0.931 . S
C1158 C1152 1.383 . S
C1158 C1157 1.379 . S
H1159 C1153 0.959 . S
H1160 C1153 0.961 . S
H1161 C1153 0.960 . S
H1162 C1154 0.930 . S
H1163 C1155 0.929 . S
H1164 C1172 0.929 . S
H1165 C1174 0.930 . S
H1166 C1176 0.930 . S
H1167 C1179 0.929 . S
H1168 C1182 0.930 . S
H1169 C1184 0.960 . S
H1170 C1184 0.960 . S
H1171 C1184 0.960 . S
C1172 H1164 0.929 . S
C1172 C1173 1.377 . S
C1172 C1174 1.384 . S
C1173 C1172 1.377 . S
C1173 C1179 1.390 . S
C1174 H1165 0.930 . S
C1174 C1172 1.384 . S
C1174 C1175 1.372 . S
C1175 C1174 1.372 . S
C1175 C1176 1.400 . S
C1175 C1180 1.490 . S
C1176 H1166 0.930 . S
C1176 C1175 1.400 . S
C1176 C1179 1.386 . S
H1177 C1193 0.930 . S
H1178 C1194 0.931 . S
C1179 H1167 0.929 . S
C1179 C1173 1.390 . S
C1179 C1176 1.386 . S
C1180 C1175 1.490 . S
C1180 C1182 1.395 . S
C1180 C1183 1.403 . S
H1181 C1187 0.930 . S
C1182 H1168 0.930 . S
C1182 C1180 1.395 . S
C1182 C1185 1.403 . S
C1183 C1180 1.403 . S
C1183 C1184 1.524 . S
C1183 C1187 1.400 . S
C1184 H1169 0.960 . S
C1184 H1170 0.960 . S
C1184 H1171 0.960 . S
C1184 C1183 1.524 . S
C1185 C1182 1.403 . S
C1185 C1186 1.392 . S
C1185 C1189 1.495 . S
C1186 C1185 1.392 . S
C1186 C1187 1.385 . S
C1186 C1188 1.478 . S
C1187 H1181 0.930 . S
C1187 C1183 1.400 . S
C1187 C1186 1.385 . S
C1188 C1186 1.478 . S
C1188 C1190 1.381 . S
C1188 C1194 1.383 . S
C1189 C1185 1.495 . S
C1189 H1195 0.959 . S
C1189 H1196 0.961 . S
C1189 H1197 0.960 . S
C1190 C1188 1.381 . S
C1190 C1191 1.394 . S
C1190 H1198 0.930 . S
C1191 C1190 1.394 . S
C1191 C1192 1.383 . S
C1191 H1199 0.929 . S
C1192 C1191 1.383 . S
C1192 C1193 1.377 . S
C1193 H1177 0.930 . S
C1193 C1192 1.377 . S
C1193 C1194 1.379 . S
C1194 H1178 0.931 . S
C1194 C1188 1.383 . S
C1194 C1193 1.379 . S
H1195 C1189 0.959 . S
H1196 C1189 0.961 . S
H1197 C1189 0.960 . S
H1198 C1190 0.930 . S
H1199 C1191 0.929 . S
H1200 C1208 0.929 . S
H1201 C1210 0.930 . S
H1202 C1212 0.930 . S
H1203 C1215 0.929 . S
H1204 C1218 0.930 . S
H1205 C1220 0.960 . S
H1206 C1220 0.960 . S
H1207 C1220 0.960 . S
C1208 H1200 0.929 . S
C1208 C1209 1.377 . S
C1208 C1210 1.384 . S
C1209 C1208 1.377 . S
C1209 C1215 1.390 . S
C1210 H1201 0.930 . S
C1210 C1208 1.384 . S
C1210 C1211 1.372 . S
C1211 C1210 1.372 . S
C1211 C1212 1.400 . S
C1211 C1216 1.490 . S
C1212 H1202 0.930 . S
C1212 C1211 1.400 . S
C1212 C1215 1.386 . S
H1213 C1229 0.930 . S
H1214 C1230 0.931 . S
C1215 H1203 0.929 . S
C1215 C1209 1.390 . S
C1215 C1212 1.386 . S
C1216 C1211 1.490 . S
C1216 C1218 1.395 . S
C1216 C1219 1.403 . S
H1217 C1223 0.930 . S
C1218 H1204 0.930 . S
C1218 C1216 1.395 . S
C1218 C1221 1.403 . S
C1219 C1216 1.403 . S
C1219 C1220 1.524 . S
C1219 C1223 1.400 . S
C1220 H1205 0.960 . S
C1220 H1206 0.960 . S
C1220 H1207 0.960 . S
C1220 C1219 1.524 . S
C1221 C1218 1.403 . S
C1221 C1222 1.392 . S
C1221 C1225 1.495 . S
C1222 C1221 1.392 . S
C1222 C1223 1.385 . S
C1222 C1224 1.478 . S
C1223 H1217 0.930 . S
C1223 C1219 1.400 . S
C1223 C1222 1.385 . S
C1224 C1222 1.478 . S
C1224 C1226 1.381 . S
C1224 C1230 1.383 . S
C1225 C1221 1.495 . S
C1225 H1231 0.959 . S
C1225 H1232 0.961 . S
C1225 H1233 0.960 . S
C1226 C1224 1.381 . S
C1226 C1227 1.394 . S
C1226 H1234 0.930 . S
C1227 C1226 1.394 . S
C1227 C1228 1.383 . S
C1227 H1235 0.929 . S
C1228 C1227 1.383 . S
C1228 C1229 1.377 . S
C1229 H1213 0.930 . S
C1229 C1228 1.377 . S
C1229 C1230 1.379 . S
C1230 H1214 0.931 . S
C1230 C1224 1.383 . S
C1230 C1229 1.379 . S
H1231 C1225 0.959 . S
H1232 C1225 0.961 . S
H1233 C1225 0.960 . S
H1234 C1226 0.930 . S
H1235 C1227 0.929 . S
H1236 C1244 0.929 . S
H1237 C1246 0.930 . S
H1238 C1248 0.930 . S
H1239 C1251 0.929 . S
H1240 C1254 0.930 . S
H1241 C1256 0.960 . S
H1242 C1256 0.960 . S
H1243 C1256 0.960 . S
C1244 H1236 0.929 . S
C1244 C1245 1.377 . S
C1244 C1246 1.384 . S
C1245 C1244 1.377 . S
C1245 C1251 1.390 . S
C1246 H1237 0.930 . S
C1246 C1244 1.384 . S
C1246 C1247 1.372 . S
C1247 C1246 1.372 . S
C1247 C1248 1.400 . S
C1247 C1252 1.490 . S
C1248 H1238 0.930 . S
C1248 C1247 1.400 . S
C1248 C1251 1.386 . S
H1249 C1265 0.930 . S
H1250 C1266 0.931 . S
C1251 H1239 0.929 . S
C1251 C1245 1.390 . S
C1251 C1248 1.386 . S
C1252 C1247 1.490 . S
C1252 C1254 1.395 . S
C1252 C1255 1.403 . S
H1253 C1259 0.930 1_565 S
C1254 H1240 0.930 . S
C1254 C1252 1.395 . S
C1254 C1257 1.403 . S
C1255 C1252 1.403 . S
C1255 C1256 1.524 . S
C1255 C1259 1.400 . S
C1256 H1241 0.960 . S
C1256 H1242 0.960 . S
C1256 H1243 0.960 . S
C1256 C1255 1.524 . S
C1257 C1254 1.403 . S
C1257 C1258 1.392 . S
C1257 C1261 1.495 . S
C1258 C1257 1.392 . S
C1258 C1259 1.385 . S
C1258 C1260 1.478 1_545 S
C1259 H1253 0.930 1_545 S
C1259 C1255 1.400 . S
C1259 C1258 1.385 . S
C1260 C1258 1.478 1_565 S
C1260 C1262 1.381 . S
C1260 C1266 1.383 . S
C1261 C1257 1.495 . S
C1261 H1267 0.959 . S
C1261 H1268 0.961 . S
C1261 H1269 0.960 . S
C1262 C1260 1.381 . S
C1262 C1263 1.394 . S
C1262 H1270 0.930 . S
C1263 C1262 1.394 . S
C1263 C1264 1.383 . S
C1263 H1271 0.929 . S
C1264 C1263 1.383 . S
C1264 C1265 1.377 . S
C1265 H1249 0.930 . S
C1265 C1264 1.377 . S
C1265 C1266 1.379 . S
C1266 H1250 0.931 . S
C1266 C1260 1.383 . S
C1266 C1265 1.379 . S
H1267 C1261 0.959 . S
H1268 C1261 0.961 . S
H1269 C1261 0.960 . S
H1270 C1262 0.930 . S
H1271 C1263 0.929 . S
H1272 C1280 0.929 . S
H1273 C1282 0.930 . S
H1274 C1284 0.930 . S
H1275 C1287 0.929 . S
H1276 C1290 0.930 . S
H1277 C1292 0.960 . S
H1278 C1292 0.960 . S
H1279 C1292 0.960 . S
C1280 H1272 0.929 . S
C1280 C1281 1.377 . S
C1280 C1282 1.384 . S
C1281 C1280 1.377 . S
C1281 C1287 1.390 . S
C1282 H1273 0.930 . S
C1282 C1280 1.384 . S
C1282 C1283 1.372 . S
C1283 C1282 1.372 . S
C1283 C1284 1.400 . S
C1283 C1288 1.490 . S
C1284 H1274 0.930 . S
C1284 C1283 1.400 . S
C1284 C1287 1.386 . S
H1285 C1301 0.930 . S
H1286 C1302 0.931 . S
C1287 H1275 0.929 . S
C1287 C1281 1.390 . S
C1287 C1284 1.386 . S
C1288 C1283 1.490 . S
C1288 C1290 1.395 . S
C1288 C1291 1.403 . S
H1289 C1295 0.930 . S
C1290 H1276 0.930 . S
C1290 C1288 1.395 . S
C1290 C1293 1.403 . S
C1291 C1288 1.403 . S
C1291 C1292 1.524 . S
C1291 C1295 1.400 . S
C1292 H1277 0.960 . S
C1292 H1278 0.960 . S
C1292 H1279 0.960 . S
C1292 C1291 1.524 . S
C1293 C1290 1.403 . S
C1293 C1294 1.392 . S
C1293 C1297 1.495 . S
C1294 C1293 1.392 . S
C1294 C1295 1.385 . S
C1294 C1296 1.478 . S
C1295 H1289 0.930 . S
C1295 C1291 1.400 . S
C1295 C1294 1.385 . S
C1296 C1294 1.478 . S
C1296 C1298 1.381 . S
C1296 C1302 1.383 . S
C1297 C1293 1.495 . S
C1297 H1303 0.959 . S
C1297 H1304 0.961 . S
C1297 H1305 0.960 . S
C1298 C1296 1.381 . S
C1298 C1299 1.394 . S
C1298 H1306 0.930 . S
C1299 C1298 1.394 . S
C1299 C1300 1.383 . S
C1299 H1307 0.929 . S
C1300 C1299 1.383 . S
C1300 C1301 1.377 . S
C1301 H1285 0.930 . S
C1301 C1300 1.377 . S
C1301 C1302 1.379 . S
C1302 H1286 0.931 . S
C1302 C1296 1.383 . S
C1302 C1301 1.379 . S
H1303 C1297 0.959 . S
H1304 C1297 0.961 . S
H1305 C1297 0.960 . S
H1306 C1298 0.930 . S
H1307 C1299 0.929 . S
H1308 C1316 0.929 . S
H1309 C1318 0.930 . S
H1310 C1320 0.930 . S
H1311 C1323 0.929 . S
H1312 C1326 0.930 . S
H1313 C1328 0.960 . S
H1314 C1328 0.960 . S
H1315 C1328 0.960 . S
C1316 H1308 0.929 . S
C1316 C1317 1.377 . S
C1316 C1318 1.384 . S
C1317 C1316 1.377 . S
C1317 C1323 1.390 . S
C1318 H1309 0.930 . S
C1318 C1316 1.384 . S
C1318 C1319 1.372 . S
C1319 C1318 1.372 . S
C1319 C1320 1.400 . S
C1319 C1324 1.490 . S
C1320 H1310 0.930 . S
C1320 C1319 1.400 . S
C1320 C1323 1.386 . S
H1321 C1337 0.930 . S
H1322 C1338 0.931 . S
C1323 H1311 0.929 . S
C1323 C1317 1.390 . S
C1323 C1320 1.386 . S
C1324 C1319 1.490 . S
C1324 C1326 1.395 1_545 S
C1324 C1327 1.403 . S
H1325 C1331 0.930 . S
C1326 H1312 0.930 . S
C1326 C1324 1.395 1_565 S
C1326 C1329 1.403 . S
C1327 C1324 1.403 . S
C1327 C1328 1.524 . S
C1327 C1331 1.400 1_545 S
C1328 H1313 0.960 . S
C1328 H1314 0.960 . S
C1328 H1315 0.960 . S
C1328 C1327 1.524 . S
C1329 C1326 1.403 . S
C1329 C1330 1.392 . S
C1329 C1333 1.495 . S
C1330 C1329 1.392 . S
C1330 C1331 1.385 . S
C1330 C1332 1.478 . S
C1331 H1325 0.930 . S
C1331 C1327 1.400 1_565 S
C1331 C1330 1.385 . S
C1332 C1330 1.478 . S
C1332 C1334 1.381 . S
C1332 C1338 1.383 . S
C1333 C1329 1.495 . S
C1333 H1339 0.959 . S
C1333 H1340 0.961 . S
C1333 H1341 0.960 . S
C1334 C1332 1.381 . S
C1334 C1335 1.394 . S
C1334 H1342 0.930 . S
C1335 C1334 1.394 . S
C1335 C1336 1.383 . S
C1335 H1343 0.929 . S
C1336 C1335 1.383 . S
C1336 C1337 1.377 . S
C1337 H1321 0.930 . S
C1337 C1336 1.377 . S
C1337 C1338 1.379 . S
C1338 H1322 0.931 . S
C1338 C1332 1.383 . S
C1338 C1337 1.379 . S
H1339 C1333 0.959 . S
H1340 C1333 0.961 . S
H1341 C1333 0.960 . S
H1342 C1334 0.930 . S
H1343 C1335 0.929 . S
H1344 C1352 0.929 . S
H1345 C1354 0.930 . S
H1346 C1356 0.930 . S
H1347 C1359 0.929 . S
H1348 C1362 0.930 . S
H1349 C1364 0.960 . S
H1350 C1364 0.960 . S
H1351 C1364 0.960 . S
C1352 H1344 0.929 . S
C1352 C1353 1.377 . S
C1352 C1354 1.384 . S
C1353 C1352 1.377 . S
C1353 C1359 1.390 . S
C1354 H1345 0.930 . S
C1354 C1352 1.384 . S
C1354 C1355 1.372 . S
C1355 C1354 1.372 . S
C1355 C1356 1.400 . S
C1355 C1360 1.490 . S
C1356 H1346 0.930 . S
C1356 C1355 1.400 . S
C1356 C1359 1.386 . S
H1357 C1373 0.930 . S
H1358 C1374 0.931 . S
C1359 H1347 0.929 . S
C1359 C1353 1.390 . S
C1359 C1356 1.386 . S
C1360 C1355 1.490 . S
C1360 C1362 1.395 . S
C1360 C1363 1.403 . S
H1361 C1367 0.930 . S
C1362 H1348 0.930 . S
C1362 C1360 1.395 . S
C1362 C1365 1.403 . S
C1363 C1360 1.403 . S
C1363 C1364 1.524 . S
C1363 C1367 1.400 . S
C1364 H1349 0.960 . S
C1364 H1350 0.960 . S
C1364 H1351 0.960 . S
C1364 C1363 1.524 . S
C1365 C1362 1.403 . S
C1365 C1366 1.392 . S
C1365 C1369 1.495 . S
C1366 C1365 1.392 . S
C1366 C1367 1.385 . S
C1366 C1368 1.478 . S
C1367 H1361 0.930 . S
C1367 C1363 1.400 . S
C1367 C1366 1.385 . S
C1368 C1366 1.478 . S
C1368 C1370 1.381 . S
C1368 C1374 1.383 . S
C1369 C1365 1.495 . S
C1369 H1375 0.959 . S
C1369 H1376 0.961 . S
C1369 H1377 0.960 . S
C1370 C1368 1.381 . S
C1370 C1371 1.394 . S
C1370 H1378 0.930 . S
C1371 C1370 1.394 . S
C1371 C1372 1.383 . S
C1371 H1379 0.929 . S
C1372 C1371 1.383 . S
C1372 C1373 1.377 . S
C1373 H1357 0.930 . S
C1373 C1372 1.377 . S
C1373 C1374 1.379 . S
C1374 H1358 0.931 . S
C1374 C1368 1.383 . S
C1374 C1373 1.379 . S
H1375 C1369 0.959 . S
H1376 C1369 0.961 . S
H1377 C1369 0.960 . S
H1378 C1370 0.930 . S
H1379 C1371 0.929 . S
H1380 C1388 0.929 . S
H1381 C1390 0.930 . S
H1382 C1392 0.930 . S
H1383 C1395 0.929 . S
H1384 C1398 0.930 . S
H1385 C1400 0.960 . S
H1386 C1400 0.960 . S
H1387 C1400 0.960 . S
C1388 H1380 0.929 . S
C1388 C1389 1.377 . S
C1388 C1390 1.384 . S
C1389 C1388 1.377 . S
C1389 C1395 1.390 . S
C1390 H1381 0.930 . S
C1390 C1388 1.384 . S
C1390 C1391 1.372 . S
C1391 C1390 1.372 . S
C1391 C1392 1.400 . S
C1391 C1396 1.490 . S
C1392 H1382 0.930 . S
C1392 C1391 1.400 . S
C1392 C1395 1.386 . S
H1393 C1409 0.930 . S
H1394 C1410 0.931 . S
C1395 H1383 0.929 . S
C1395 C1389 1.390 . S
C1395 C1392 1.386 . S
C1396 C1391 1.490 . S
C1396 C1398 1.395 . S
C1396 C1399 1.403 . S
H1397 C1403 0.930 . S
C1398 H1384 0.930 . S
C1398 C1396 1.395 . S
C1398 C1401 1.403 . S
C1399 C1396 1.403 . S
C1399 C1400 1.524 . S
C1399 C1403 1.400 . S
C1400 H1385 0.960 . S
C1400 H1386 0.960 . S
C1400 H1387 0.960 . S
C1400 C1399 1.524 . S
C1401 C1398 1.403 . S
C1401 C1402 1.392 . S
C1401 C1405 1.495 . S
C1402 C1401 1.392 . S
C1402 C1403 1.385 . S
C1402 C1404 1.478 . S
C1403 H1397 0.930 . S
C1403 C1399 1.400 . S
C1403 C1402 1.385 . S
C1404 C1402 1.478 . S
C1404 C1406 1.381 . S
C1404 C1410 1.383 . S
C1405 C1401 1.495 . S
C1405 H1411 0.959 . S
C1405 H1412 0.961 . S
C1405 H1413 0.960 . S
C1406 C1404 1.381 . S
C1406 C1407 1.394 . S
C1406 H1414 0.930 . S
C1407 C1406 1.394 . S
C1407 C1408 1.383 . S
C1407 H1415 0.929 . S
C1408 C1407 1.383 . S
C1408 C1409 1.377 . S
C1409 H1393 0.930 . S
C1409 C1408 1.377 . S
C1409 C1410 1.379 . S
C1410 H1394 0.931 . S
C1410 C1404 1.383 . S
C1410 C1409 1.379 . S
H1411 C1405 0.959 . S
H1412 C1405 0.961 . S
H1413 C1405 0.960 . S
H1414 C1406 0.930 . S
H1415 C1407 0.929 . S
H1416 C1424 0.929 . S
H1417 C1426 0.930 . S
H1418 C1428 0.930 . S
H1419 C1431 0.929 . S
H1420 C1434 0.930 . S
H1421 C1436 0.960 . S
H1422 C1436 0.960 . S
H1423 C1436 0.960 . S
C1424 H1416 0.929 . S
C1424 C1425 1.377 . S
C1424 C1426 1.384 . S
C1425 C1424 1.377 . S
C1425 C1431 1.390 . S
C1426 H1417 0.930 . S
C1426 C1424 1.384 . S
C1426 C1427 1.372 . S
C1427 C1426 1.372 . S
C1427 C1428 1.400 . S
C1427 C1432 1.490 . S
C1428 H1418 0.930 . S
C1428 C1427 1.400 . S
C1428 C1431 1.386 . S
H1429 C1445 0.930 . S
H1430 C1446 0.931 . S
C1431 H1419 0.929 . S
C1431 C1425 1.390 . S
C1431 C1428 1.386 . S
C1432 C1427 1.490 . S
C1432 C1434 1.395 . S
C1432 C1435 1.403 . S
H1433 C1439 0.930 . S
C1434 H1420 0.930 . S
C1434 C1432 1.395 . S
C1434 C1437 1.403 . S
C1435 C1432 1.403 . S
C1435 C1436 1.524 . S
C1435 C1439 1.400 . S
C1436 H1421 0.960 . S
C1436 H1422 0.960 . S
C1436 H1423 0.960 . S
C1436 C1435 1.524 . S
C1437 C1434 1.403 . S
C1437 C1438 1.392 . S
C1437 C1441 1.495 . S
C1438 C1437 1.392 . S
C1438 C1439 1.385 . S
C1438 C1440 1.478 . S
C1439 H1433 0.930 . S
C1439 C1435 1.400 . S
C1439 C1438 1.385 . S
C1440 C1438 1.478 . S
C1440 C1442 1.381 . S
C1440 C1446 1.383 . S
C1441 C1437 1.495 . S
C1441 H1447 0.959 . S
C1441 H1448 0.961 . S
C1441 H1449 0.960 . S
C1442 C1440 1.381 . S
C1442 C1443 1.394 . S
C1442 H1450 0.930 . S
C1443 C1442 1.394 . S
C1443 C1444 1.383 . S
C1443 H1451 0.929 . S
C1444 C1443 1.383 . S
C1444 C1445 1.377 . S
C1445 H1429 0.930 . S
C1445 C1444 1.377 . S
C1445 C1446 1.379 . S
C1446 H1430 0.931 . S
C1446 C1440 1.383 . S
C1446 C1445 1.379 . S
H1447 C1441 0.959 . S
H1448 C1441 0.961 . S
H1449 C1441 0.960 . S
H1450 C1442 0.930 . S
H1451 C1443 0.929 . S
H1452 C1460 0.929 . S
H1453 C1462 0.930 . S
H1454 C1464 0.930 . S
H1455 C1467 0.929 . S
H1456 C1470 0.930 . S
H1457 C1472 0.960 . S
H1458 C1472 0.960 . S
H1459 C1472 0.960 . S
C1460 H1452 0.929 . S
C1460 C1461 1.377 . S
C1460 C1462 1.384 . S
C1461 C1460 1.377 . S
C1461 C1467 1.390 . S
C1462 H1453 0.930 . S
C1462 C1460 1.384 . S
C1462 C1463 1.372 . S
C1463 C1462 1.372 . S
C1463 C1464 1.400 . S
C1463 C1468 1.490 . S
C1464 H1454 0.930 . S
C1464 C1463 1.400 . S
C1464 C1467 1.386 . S
H1465 C1481 0.930 . S
H1466 C1482 0.931 . S
C1467 H1455 0.929 . S
C1467 C1461 1.390 . S
C1467 C1464 1.386 . S
C1468 C1463 1.490 . S
C1468 C1470 1.395 . S
C1468 C1471 1.403 . S
H1469 C1475 0.930 . S
C1470 H1456 0.930 . S
C1470 C1468 1.395 . S
C1470 C1473 1.403 . S
C1471 C1468 1.403 . S
C1471 C1472 1.524 . S
C1471 C1475 1.400 . S
C1472 H1457 0.960 . S
C1472 H1458 0.960 . S
C1472 H1459 0.960 . S
C1472 C1471 1.524 . S
C1473 C1470 1.403 . S
C1473 C1474 1.392 . S
C1473 C1477 1.495 . S
C1474 C1473 1.392 . S
C1474 C1475 1.385 . S
C1474 C1476 1.478 . S
C1475 H1469 0.930 . S
C1475 C1471 1.400 . S
C1475 C1474 1.385 . S
C1476 C1474 1.478 . S
C1476 C1478 1.381 . S
C1476 C1482 1.383 . S
C1477 C1473 1.495 . S
C1477 H1483 0.959 . S
C1477 H1484 0.961 . S
C1477 H1485 0.960 . S
C1478 C1476 1.381 . S
C1478 C1479 1.394 . S
C1478 H1486 0.930 . S
C1479 C1478 1.394 . S
C1479 C1480 1.383 . S
C1479 H1487 0.929 . S
C1480 C1479 1.383 . S
C1480 C1481 1.377 . S
C1481 H1465 0.930 . S
C1481 C1480 1.377 . S
C1481 C1482 1.379 . S
C1482 H1466 0.931 . S
C1482 C1476 1.383 . S
C1482 C1481 1.379 . S
H1483 C1477 0.959 . S
H1484 C1477 0.961 . S
H1485 C1477 0.960 . S
H1486 C1478 0.930 . S
H1487 C1479 0.929 . S
H1488 C1496 0.929 . S
H1489 C1498 0.930 . S
H1490 C1500 0.930 . S
H1491 C1503 0.929 . S
H1492 C1506 0.930 . S
H1493 C1508 0.960 . S
H1494 C1508 0.960 . S
H1495 C1508 0.960 . S
C1496 H1488 0.929 . S
C1496 C1497 1.377 . S
C1496 C1498 1.384 . S
C1497 C1496 1.377 . S
C1497 C1503 1.390 . S
C1498 H1489 0.930 . S
C1498 C1496 1.384 . S
C1498 C1499 1.372 . S
C1499 C1498 1.372 . S
C1499 C1500 1.400 . S
C1499 C1504 1.490 . S
C1500 H1490 0.930 . S
C1500 C1499 1.400 . S
C1500 C1503 1.386 . S
H1501 C1517 0.930 . S
H1502 C1518 0.931 . S
C1503 H1491 0.929 . S
C1503 C1497 1.390 . S
C1503 C1500 1.386 . S
C1504 C1499 1.490 . S
C1504 C1506 1.395 . S
C1504 C1507 1.403 . S
H1505 C1511 0.930 . S
C1506 H1492 0.930 . S
C1506 C1504 1.395 . S
C1506 C1509 1.403 . S
C1507 C1504 1.403 . S
C1507 C1508 1.524 . S
C1507 C1511 1.400 . S
C1508 H1493 0.960 . S
C1508 H1494 0.960 . S
C1508 H1495 0.960 . S
C1508 C1507 1.524 . S
C1509 C1506 1.403 . S
C1509 C1510 1.392 . S
C1509 C1513 1.495 . S
C1510 C1509 1.392 . S
C1510 C1511 1.385 . S
C1510 C1512 1.478 . S
C1511 H1505 0.930 . S
C1511 C1507 1.400 . S
C1511 C1510 1.385 . S
C1512 C1510 1.478 . S
C1512 C1514 1.381 . S
C1512 C1518 1.383 . S
C1513 C1509 1.495 . S
C1513 H1519 0.959 . S
C1513 H1520 0.961 . S
C1513 H1521 0.960 . S
C1514 C1512 1.381 . S
C1514 C1515 1.394 . S
C1514 H1522 0.930 . S
C1515 C1514 1.394 . S
C1515 C1516 1.383 . S
C1515 H1523 0.929 . S
C1516 C1515 1.383 . S
C1516 C1517 1.377 . S
C1517 H1501 0.930 . S
C1517 C1516 1.377 . S
C1517 C1518 1.379 . S
C1518 H1502 0.931 . S
C1518 C1512 1.383 . S
C1518 C1517 1.379 . S
H1519 C1513 0.959 . S
H1520 C1513 0.961 . S
H1521 C1513 0.960 . S
H1522 C1514 0.930 . S
H1523 C1515 0.929 . S
H1524 C1532 0.929 . S
H1525 C1534 0.930 . S
H1526 C1536 0.930 . S
H1527 C1539 0.929 . S
H1528 C1542 0.930 . S
H1529 C1544 0.960 . S
H1530 C1544 0.960 . S
H1531 C1544 0.960 . S
C1532 H1524 0.929 . S
C1532 C1533 1.377 . S
C1532 C1534 1.384 . S
C1533 C1532 1.377 . S
C1533 C1539 1.390 . S
C1534 H1525 0.930 . S
C1534 C1532 1.384 . S
C1534 C1535 1.372 . S
C1535 C1534 1.372 . S
C1535 C1536 1.400 . S
C1535 C1540 1.490 . S
C1536 H1526 0.930 . S
C1536 C1535 1.400 . S
C1536 C1539 1.386 . S
H1537 C1553 0.930 . S
H1538 C1554 0.931 . S
C1539 H1527 0.929 . S
C1539 C1533 1.390 . S
C1539 C1536 1.386 . S
C1540 C1535 1.490 . S
C1540 C1542 1.395 . S
C1540 C1543 1.403 . S
H1541 C1547 0.930 . S
C1542 H1528 0.930 . S
C1542 C1540 1.395 . S
C1542 C1545 1.403 . S
C1543 C1540 1.403 . S
C1543 C1544 1.524 . S
C1543 C1547 1.400 . S
C1544 H1529 0.960 . S
C1544 H1530 0.960 . S
C1544 H1531 0.960 . S
C1544 C1543 1.524 . S
C1545 C1542 1.403 . S
C1545 C1546 1.392 . S
C1545 C1549 1.495 . S
C1546 C1545 1.392 . S
C1546 C1547 1.385 . S
C1546 C1548 1.478 . S
C1547 H1541 0.930 . S
C1547 C1543 1.400 . S
C1547 C1546 1.385 . S
C1548 C1546 1.478 . S
C1548 C1550 1.381 . S
C1548 C1554 1.383 . S
C1549 C1545 1.495 . S
C1549 H1555 0.959 . S
C1549 H1556 0.961 . S
C1549 H1557 0.960 . S
C1550 C1548 1.381 . S
C1550 C1551 1.394 . S
C1550 H1558 0.930 . S
C1551 C1550 1.394 . S
C1551 C1552 1.383 . S
C1551 H1559 0.929 . S
C1552 C1551 1.383 . S
C1552 C1553 1.377 . S
C1553 H1537 0.930 . S
C1553 C1552 1.377 . S
C1553 C1554 1.379 . S
C1554 H1538 0.931 . S
C1554 C1548 1.383 . S
C1554 C1553 1.379 . S
H1555 C1549 0.959 . S
H1556 C1549 0.961 . S
H1557 C1549 0.960 . S
H1558 C1550 0.930 . S
H1559 C1551 0.929 . S
H1560 C1568 0.929 . S
H1561 C1570 0.930 . S
H1562 C1572 0.930 . S
H1563 C1575 0.929 . S
H1564 C1578 0.930 . S
H1565 C1580 0.960 . S
H1566 C1580 0.960 . S
H1567 C1580 0.960 . S
C1568 H1560 0.929 . S
C1568 C1569 1.377 . S
C1568 C1570 1.384 . S
C1569 C1568 1.377 . S
C1569 C1575 1.390 . S
C1570 H1561 0.930 . S
C1570 C1568 1.384 . S
C1570 C1571 1.372 . S
C1571 C1570 1.372 . S
C1571 C1572 1.400 . S
C1571 C1576 1.490 . S
C1572 H1562 0.930 . S
C1572 C1571 1.400 . S
C1572 C1575 1.386 . S
H1573 C1589 0.930 . S
H1574 C1590 0.931 . S
C1575 H1563 0.929 . S
C1575 C1569 1.390 . S
C1575 C1572 1.386 . S
C1576 C1571 1.490 . S
C1576 C1578 1.395 . S
C1576 C1579 1.403 . S
H1577 C1583 0.930 . S
C1578 H1564 0.930 . S
C1578 C1576 1.395 . S
C1578 C1581 1.403 1_455 S
C1579 C1576 1.403 . S
C1579 C1580 1.524 . S
C1579 C1583 1.400 . S
C1580 H1565 0.960 . S
C1580 H1566 0.960 . S
C1580 H1567 0.960 . S
C1580 C1579 1.524 . S
C1581 C1578 1.403 1_655 S
C1581 C1582 1.392 . S
C1581 C1585 1.495 . S
C1582 C1581 1.392 . S
C1582 C1583 1.385 1_655 S
C1582 C1584 1.478 . S
C1583 H1577 0.930 . S
C1583 C1579 1.400 . S
C1583 C1582 1.385 1_455 S
C1584 C1582 1.478 . S
C1584 C1586 1.381 . S
C1584 C1590 1.383 . S
C1585 C1581 1.495 . S
C1585 H1591 0.959 . S
C1585 H1592 0.961 . S
C1585 H1593 0.960 . S
C1586 C1584 1.381 . S
C1586 C1587 1.394 . S
C1586 H1594 0.930 . S
C1587 C1586 1.394 . S
C1587 C1588 1.383 . S
C1587 H1595 0.929 . S
C1588 C1587 1.383 . S
C1588 C1589 1.377 . S
C1589 H1573 0.930 . S
C1589 C1588 1.377 . S
C1589 C1590 1.379 . S
C1590 H1574 0.931 . S
C1590 C1584 1.383 . S
C1590 C1589 1.379 . S
H1591 C1585 0.959 . S
H1592 C1585 0.961 . S
H1593 C1585 0.960 . S
H1594 C1586 0.930 . S
H1595 C1587 0.929 . S
H1596 C1604 0.929 . S
H1597 C1606 0.930 . S
H1598 C1608 0.930 . S
H1599 C1611 0.929 . S
H1600 C1614 0.930 . S
H1601 C1616 0.960 . S
H1602 C1616 0.960 . S
H1603 C1616 0.960 . S
C1604 H1596 0.929 . S
C1604 C1605 1.377 . S
C1604 C1606 1.384 . S
C1605 C1604 1.377 . S
C1605 C1611 1.390 . S
C1606 H1597 0.930 . S
C1606 C1604 1.384 . S
C1606 C1607 1.372 . S
C1607 C1606 1.372 . S
C1607 C1608 1.400 . S
C1607 C1612 1.490 . S
C1608 H1598 0.930 . S
C1608 C1607 1.400 . S
C1608 C1611 1.386 . S
H1609 C1625 0.930 . S
H1610 C1626 0.931 . S
C1611 H1599 0.929 . S
C1611 C1605 1.390 . S
C1611 C1608 1.386 . S
C1612 C1607 1.490 . S
C1612 C1614 1.395 . S
C1612 C1615 1.403 . S
H1613 C1619 0.930 . S
C1614 H1600 0.930 . S
C1614 C1612 1.395 . S
C1614 C1617 1.403 . S
C1615 C1612 1.403 . S
C1615 C1616 1.524 . S
C1615 C1619 1.400 . S
C1616 H1601 0.960 . S
C1616 H1602 0.960 . S
C1616 H1603 0.960 . S
C1616 C1615 1.524 . S
C1617 C1614 1.403 . S
C1617 C1618 1.392 . S
C1617 C1621 1.495 . S
C1618 C1617 1.392 . S
C1618 C1619 1.385 . S
C1618 C1620 1.478 . S
C1619 H1613 0.930 . S
C1619 C1615 1.400 . S
C1619 C1618 1.385 . S
C1620 C1618 1.478 . S
C1620 C1622 1.381 . S
C1620 C1626 1.383 . S
C1621 C1617 1.495 . S
C1621 H1627 0.959 . S
C1621 H1628 0.961 . S
C1621 H1629 0.960 . S
C1622 C1620 1.381 . S
C1622 C1623 1.394 . S
C1622 H1630 0.930 . S
C1623 C1622 1.394 . S
C1623 C1624 1.383 . S
C1623 H1631 0.929 . S
C1624 C1623 1.383 . S
C1624 C1625 1.377 . S
C1625 H1609 0.930 . S
C1625 C1624 1.377 . S
C1625 C1626 1.379 . S
C1626 H1610 0.931 . S
C1626 C1620 1.383 . S
C1626 C1625 1.379 . S
H1627 C1621 0.959 . S
H1628 C1621 0.961 . S
H1629 C1621 0.960 . S
H1630 C1622 0.930 . S
H1631 C1623 0.929 . S
H1632 C1640 0.929 . S
H1633 C1642 0.930 . S
H1634 C1644 0.930 . S
H1635 C1647 0.929 . S
H1636 C1650 0.930 . S
H1637 C1652 0.960 . S
H1638 C1652 0.960 . S
H1639 C1652 0.960 . S
C1640 H1632 0.929 . S
C1640 C1641 1.377 . S
C1640 C1642 1.384 . S
C1641 C1640 1.377 . S
C1641 C1647 1.390 . S
C1642 H1633 0.930 . S
C1642 C1640 1.384 . S
C1642 C1643 1.372 . S
C1643 C1642 1.372 . S
C1643 C1644 1.400 . S
C1643 C1648 1.490 . S
C1644 H1634 0.930 . S
C1644 C1643 1.400 . S
C1644 C1647 1.386 . S
H1645 C1661 0.930 . S
H1646 C1662 0.931 . S
C1647 H1635 0.929 . S
C1647 C1641 1.390 . S
C1647 C1644 1.386 . S
C1648 C1643 1.490 . S
C1648 C1650 1.395 . S
C1648 C1651 1.403 . S
H1649 C1655 0.930 . S
C1650 H1636 0.930 . S
C1650 C1648 1.395 . S
C1650 C1653 1.403 . S
C1651 C1648 1.403 . S
C1651 C1652 1.524 . S
C1651 C1655 1.400 . S
C1652 H1637 0.960 . S
C1652 H1638 0.960 . S
C1652 H1639 0.960 . S
C1652 C1651 1.524 . S
C1653 C1650 1.403 . S
C1653 C1654 1.392 . S
C1653 C1657 1.495 . S
C1654 C1653 1.392 . S
C1654 C1655 1.385 . S
C1654 C1656 1.478 . S
C1655 H1649 0.930 . S
C1655 C1651 1.400 . S
C1655 C1654 1.385 . S
C1656 C1654 1.478 . S
C1656 C1658 1.381 . S
C1656 C1662 1.383 . S
C1657 C1653 1.495 . S
C1657 H1663 0.959 . S
C1657 H1664 0.961 . S
C1657 H1665 0.960 . S
C1658 C1656 1.381 . S
C1658 C1659 1.394 . S
C1658 H1666 0.930 . S
C1659 C1658 1.394 . S
C1659 C1660 1.383 . S
C1659 H1667 0.929 . S
C1660 C1659 1.383 . S
C1660 C1661 1.377 . S
C1661 H1645 0.930 . S
C1661 C1660 1.377 . S
C1661 C1662 1.379 . S
C1662 H1646 0.931 . S
C1662 C1656 1.383 . S
C1662 C1661 1.379 . S
H1663 C1657 0.959 . S
H1664 C1657 0.961 . S
H1665 C1657 0.960 . S
H1666 C1658 0.930 . S
H1667 C1659 0.929 . S
H1668 C1676 0.929 . S
H1669 C1678 0.930 . S
H1670 C1680 0.930 . S
H1671 C1683 0.929 . S
H1672 C1686 0.930 . S
H1673 C1688 0.960 . S
H1674 C1688 0.960 . S
H1675 C1688 0.960 . S
C1676 H1668 0.929 . S
C1676 C1677 1.377 . S
C1676 C1678 1.384 . S
C1677 C1676 1.377 . S
C1677 C1683 1.390 . S
C1678 H1669 0.930 . S
C1678 C1676 1.384 . S
C1678 C1679 1.372 . S
C1679 C1678 1.372 . S
C1679 C1680 1.400 . S
C1679 C1684 1.490 . S
C1680 H1670 0.930 . S
C1680 C1679 1.400 . S
C1680 C1683 1.386 . S
H1681 C1697 0.930 . S
H1682 C1698 0.931 . S
C1683 H1671 0.929 . S
C1683 C1677 1.390 . S
C1683 C1680 1.386 . S
C1684 C1679 1.490 . S
C1684 C1686 1.395 . S
C1684 C1687 1.403 . S
H1685 C1691 0.930 . S
C1686 H1672 0.930 . S
C1686 C1684 1.395 . S
C1686 C1689 1.403 . S
C1687 C1684 1.403 . S
C1687 C1688 1.524 . S
C1687 C1691 1.400 . S
C1688 H1673 0.960 . S
C1688 H1674 0.960 . S
C1688 H1675 0.960 . S
C1688 C1687 1.524 . S
C1689 C1686 1.403 . S
C1689 C1690 1.392 . S
C1689 C1693 1.495 . S
C1690 C1689 1.392 . S
C1690 C1691 1.385 . S
C1690 C1692 1.478 . S
C1691 H1685 0.930 . S
C1691 C1687 1.400 . S
C1691 C1690 1.385 . S
C1692 C1690 1.478 . S
C1692 C1694 1.381 . S
C1692 C1698 1.383 . S
C1693 C1689 1.495 . S
C1693 H1699 0.959 . S
C1693 H1700 0.961 . S
C1693 H1701 0.960 . S
C1694 C1692 1.381 . S
C1694 C1695 1.394 . S
C1694 H1702 0.930 . S
C1695 C1694 1.394 . S
C1695 C1696 1.383 . S
C1695 H1703 0.929 . S
C1696 C1695 1.383 . S
C1696 C1697 1.377 . S
C1697 H1681 0.930 . S
C1697 C1696 1.377 . S
C1697 C1698 1.379 . S
C1698 H1682 0.931 . S
C1698 C1692 1.383 . S
C1698 C1697 1.379 . S
H1699 C1693 0.959 . S
H1700 C1693 0.961 . S
H1701 C1693 0.960 . S
H1702 C1694 0.930 . S
H1703 C1695 0.929 . S
H1704 C1712 0.929 . S
H1705 C1714 0.930 . S
H1706 C1716 0.930 . S
H1707 C1719 0.929 . S
H1708 C1722 0.930 . S
H1709 C1724 0.960 . S
H1710 C1724 0.960 . S
H1711 C1724 0.960 . S
C1712 H1704 0.929 . S
C1712 C1713 1.377 . S
C1712 C1714 1.384 . S
C1713 C1712 1.377 . S
C1713 C1719 1.390 . S
C1714 H1705 0.930 . S
C1714 C1712 1.384 . S
C1714 C1715 1.372 . S
C1715 C1714 1.372 . S
C1715 C1716 1.400 . S
C1715 C1720 1.490 . S
C1716 H1706 0.930 . S
C1716 C1715 1.400 . S
C1716 C1719 1.386 . S
H1717 C1733 0.930 . S
H1718 C1734 0.931 . S
C1719 H1707 0.929 . S
C1719 C1713 1.390 . S
C1719 C1716 1.386 . S
C1720 C1715 1.490 . S
C1720 C1722 1.395 . S
C1720 C1723 1.403 . S
H1721 C1727 0.930 . S
C1722 H1708 0.930 . S
C1722 C1720 1.395 . S
C1722 C1725 1.403 . S
C1723 C1720 1.403 . S
C1723 C1724 1.524 . S
C1723 C1727 1.400 . S
C1724 H1709 0.960 . S
C1724 H1710 0.960 . S
C1724 H1711 0.960 . S
C1724 C1723 1.524 . S
C1725 C1722 1.403 . S
C1725 C1726 1.392 . S
C1725 C1729 1.495 . S
C1726 C1725 1.392 . S
C1726 C1727 1.385 . S
C1726 C1728 1.478 . S
C1727 H1721 0.930 . S
C1727 C1723 1.400 . S
C1727 C1726 1.385 . S
C1728 C1726 1.478 . S
C1728 C1730 1.381 . S
C1728 C1734 1.383 . S
C1729 C1725 1.495 . S
C1729 H1735 0.959 . S
C1729 H1736 0.961 . S
C1729 H1737 0.960 . S
C1730 C1728 1.381 . S
C1730 C1731 1.394 . S
C1730 H1738 0.930 . S
C1731 C1730 1.394 . S
C1731 C1732 1.383 . S
C1731 H1739 0.929 . S
C1732 C1731 1.383 . S
C1732 C1733 1.377 . S
C1733 H1717 0.930 . S
C1733 C1732 1.377 . S
C1733 C1734 1.379 . S
C1734 H1718 0.931 . S
C1734 C1728 1.383 . S
C1734 C1733 1.379 . S
H1735 C1729 0.959 . S
H1736 C1729 0.961 . S
H1737 C1729 0.960 . S
H1738 C1730 0.930 . S
H1739 C1731 0.929 . S
H1740 C1748 0.929 . S
H1741 C1750 0.930 . S
H1742 C1752 0.930 . S
H1743 C1755 0.929 . S
H1744 C1758 0.930 . S
H1745 C1760 0.960 . S
H1746 C1760 0.960 . S
H1747 C1760 0.960 . S
C1748 H1740 0.929 . S
C1748 C1749 1.377 . S
C1748 C1750 1.384 . S
C1749 C1748 1.377 . S
C1749 C1755 1.390 . S
C1750 H1741 0.930 . S
C1750 C1748 1.384 . S
C1750 C1751 1.372 . S
C1751 C1750 1.372 . S
C1751 C1752 1.400 . S
C1751 C1756 1.490 . S
C1752 H1742 0.930 . S
C1752 C1751 1.400 . S
C1752 C1755 1.386 . S
H1753 C1769 0.930 . S
H1754 C1770 0.931 . S
C1755 H1743 0.929 . S
C1755 C1749 1.390 . S
C1755 C1752 1.386 . S
C1756 C1751 1.490 . S
C1756 C1758 1.395 . S
C1756 C1759 1.403 . S
H1757 C1763 0.930 . S
C1758 H1744 0.930 . S
C1758 C1756 1.395 . S
C1758 C1761 1.403 . S
C1759 C1756 1.403 . S
C1759 C1760 1.524 . S
C1759 C1763 1.400 . S
C1760 H1745 0.960 . S
C1760 H1746 0.960 . S
C1760 H1747 0.960 . S
C1760 C1759 1.524 . S
C1761 C1758 1.403 . S
C1761 C1762 1.392 1_655 S
C1761 C1765 1.495 1_655 S
C1762 C1761 1.392 1_455 S
C1762 C1763 1.385 1_455 S
C1762 C1764 1.478 . S
C1763 H1757 0.930 . S
C1763 C1759 1.400 . S
C1763 C1762 1.385 1_655 S
C1764 C1762 1.478 . S
C1764 C1766 1.381 . S
C1764 C1770 1.383 . S
C1765 C1761 1.495 1_455 S
C1765 H1771 0.959 . S
C1765 H1772 0.961 . S
C1765 H1773 0.960 . S
C1766 C1764 1.381 . S
C1766 C1767 1.394 . S
C1766 H1774 0.930 . S
C1767 C1766 1.394 . S
C1767 C1768 1.383 . S
C1767 H1775 0.929 . S
C1768 C1767 1.383 . S
C1768 C1769 1.377 . S
C1769 H1753 0.930 . S
C1769 C1768 1.377 . S
C1769 C1770 1.379 . S
C1770 H1754 0.931 . S
C1770 C1764 1.383 . S
C1770 C1769 1.379 . S
H1771 C1765 0.959 . S
H1772 C1765 0.961 . S
H1773 C1765 0.960 . S
H1774 C1766 0.930 . S
H1775 C1767 0.929 . S
C489 C19 0.845 . S
C508 C459 0.876 . S
C525 C371 1.589 . S
C544 C59 1.638 . S
C561 C91 1.137 . S
C580 C339 1.153 . S
C597 C139 1.933 . S
C616 C419 1.933 . S
C633 C179 1.624 . S
C652 C411 1.568 . S
C669 C211 1.392 . S
C688 C451 1.379 . S
C705 C379 1.704 . S
C724 C259 1.709 . S
C741 C291 1.656 . S
C760 C331 1.687 . S
C777 C131 1.717 . S
C796 C171 1.770 . S
C813 C11 1.423 . S
C832 C219 1.492 . S
C849 C51 1.583 . S
C868 C251 1.610 . S
C885 C299 1.794 . S
C904 C99 1.799 . S
C921 C7 1.530 . S
C940 C330 1.466 . S
C957 C47 1.849 . S
C976 C410 1.756 . S
C993 C450 1.812 . S
C1012 C96 1.838 . S
C1029 C127 1.513 . S
C1048 C362 1.501 . S
C1065 C167 1.152 . S
C1084 C370 1.087 . S
C1101 C322 1.782 . S
C1120 C216 1.705 . S
C1137 C402 1.319 . S
C1156 C247 1.318 . S
C1173 C442 2.716 . S
C1192 C296 2.626 . S
C1209 C2 2.776 . S
C1228 C136 2.702 . S
C1245 C16 1.907 . S
C1264 C42 1.938 . S
C1281 C56 2.192 . S
C1300 C90 2.157 . S
C1317 C122 1.706 . S
C1336 C87 1.728 . S
C1353 C207 1.448 . S
C1372 C162 1.430 . S
C1389 C210 1.109 . S
C1408 C256 1.142 . S
C1425 C242 1.451 . S
C1444 C287 1.463 . S
C1461 C176 0.605 . S
C1480 C290 0.564 . S
C1497 C336 0.508 . S
C1516 C130 0.462 . S
C1533 C202 1.505 . S
C1552 C376 1.488 . S
C1569 C327 1.308 . S
C1588 C250 1.286 . S
C1605 C407 1.882 . S
C1624 C282 1.849 . S
C1641 C170 1.181 . S
C1660 C447 1.223 . S
C1677 C456 1.551 . S
C1696 C50 1.494 . S
C1713 C82 1.501 . S
C1732 C367 1.513 . S
C1749 C416 1.628 . S
C1768 C10 1.637 . S
