# Generated by pormake.
# Topology wmi, (6)-cn, num edge types: 1
# Building blocks:
#     Node 0, Type 0, BuildingBlock: PAMTOO_clean_sbu_0, # of connection points: 6
#     Node 1, Type 0, BuildingBlock: PAMTOO_clean_sbu_0, # of connection points: 6
#     Node 2, Type 0, BuildingBlock: PAMTOO_clean_sbu_0, # of connection points: 6
#     Node 3, Type 0, BuildingBlock: PAMTOO_clean_sbu_0, # of connection points: 6
#     Node 4, Type 0, BuildingBlock: PAMTOO_clean_sbu_0, # of connection points: 6
#     Node 5, Type 0, BuildingBlock: PAMTOO_clean_sbu_0, # of connection points: 6
#     Node 6, Type 0, BuildingBlock: PAMTOO_clean_sbu_0, # of connection points: 6
#     Node 7, Type 0, BuildingBlock: PAMTOO_clean_sbu_0, # of connection points: 6
#     Node 8, Type 0, BuildingBlock: PAMTOO_clean_sbu_0, # of connection points: 6
#     Node 9, Type 0, BuildingBlock: PAMTOO_clean_sbu_0, # of connection points: 6
#     Node 10, Type 0, BuildingBlock: PAMTOO_clean_sbu_0, # of connection points: 6
#     Node 11, Type 0, BuildingBlock: PAMTOO_clean_sbu_0, # of connection points: 6
#     Node 12, Type 0, BuildingBlock: PAMTOO_clean_sbu_0, # of connection points: 6
#     Node 13, Type 0, BuildingBlock: PAMTOO_clean_sbu_0, # of connection points: 6
#     Node 14, Type 0, BuildingBlock: PAMTOO_clean_sbu_0, # of connection points: 6
#     Node 15, Type 0, BuildingBlock: PAMTOO_clean_sbu_0, # of connection points: 6
#     Node 16, Type 0, BuildingBlock: PAMTOO_clean_sbu_0, # of connection points: 6
#     Node 17, Type 0, BuildingBlock: PAMTOO_clean_sbu_0, # of connection points: 6
#     Edge 18, Type (0, 0), BuildingBlock: KIFKEQ_clean_linker_1, # of connection points: 2
#     Edge 19, Type (0, 0), BuildingBlock: KIFKEQ_clean_linker_1, # of connection points: 2
#     Edge 20, Type (0, 0), BuildingBlock: KIFKEQ_clean_linker_1, # of connection points: 2
#     Edge 21, Type (0, 0), BuildingBlock: KIFKEQ_clean_linker_1, # of connection points: 2
#     Edge 22, Type (0, 0), BuildingBlock: KIFKEQ_clean_linker_1, # of connection points: 2
#     Edge 23, Type (0, 0), BuildingBlock: KIFKEQ_clean_linker_1, # of connection points: 2
#     Edge 24, Type (0, 0), BuildingBlock: KIFKEQ_clean_linker_1, # of connection points: 2
#     Edge 25, Type (0, 0), BuildingBlock: KIFKEQ_clean_linker_1, # of connection points: 2
#     Edge 26, Type (0, 0), BuildingBlock: KIFKEQ_clean_linker_1, # of connection points: 2
#     Edge 27, Type (0, 0), BuildingBlock: KIFKEQ_clean_linker_1, # of connection points: 2
#     Edge 28, Type (0, 0), BuildingBlock: KIFKEQ_clean_linker_1, # of connection points: 2
#     Edge 29, Type (0, 0), BuildingBlock: KIFKEQ_clean_linker_1, # of connection points: 2
#     Edge 30, Type (0, 0), BuildingBlock: KIFKEQ_clean_linker_1, # of connection points: 2
#     Edge 31, Type (0, 0), BuildingBlock: KIFKEQ_clean_linker_1, # of connection points: 2
#     Edge 32, Type (0, 0), BuildingBlock: KIFKEQ_clean_linker_1, # of connection points: 2
#     Edge 33, Type (0, 0), BuildingBlock: KIFKEQ_clean_linker_1, # of connection points: 2
#     Edge 34, Type (0, 0), BuildingBlock: KIFKEQ_clean_linker_1, # of connection points: 2
#     Edge 35, Type (0, 0), BuildingBlock: KIFKEQ_clean_linker_1, # of connection points: 2
#     Edge 36, Type (0, 0), BuildingBlock: KIFKEQ_clean_linker_1, # of connection points: 2
#     Edge 37, Type (0, 0), BuildingBlock: KIFKEQ_clean_linker_1, # of connection points: 2
#     Edge 38, Type (0, 0), BuildingBlock: KIFKEQ_clean_linker_1, # of connection points: 2
#     Edge 39, Type (0, 0), BuildingBlock: KIFKEQ_clean_linker_1, # of connection points: 2
#     Edge 40, Type (0, 0), BuildingBlock: KIFKEQ_clean_linker_1, # of connection points: 2
#     Edge 41, Type (0, 0), BuildingBlock: KIFKEQ_clean_linker_1, # of connection points: 2
#     Edge 42, Type (0, 0), BuildingBlock: KIFKEQ_clean_linker_1, # of connection points: 2
#     Edge 43, Type (0, 0), BuildingBlock: KIFKEQ_clean_linker_1, # of connection points: 2
#     Edge 44, Type (0, 0), BuildingBlock: KIFKEQ_clean_linker_1, # of connection points: 2
#     Edge 45, Type (0, 0), BuildingBlock: KIFKEQ_clean_linker_1, # of connection points: 2
#     Edge 46, Type (0, 0), BuildingBlock: KIFKEQ_clean_linker_1, # of connection points: 2
#     Edge 47, Type (0, 0), BuildingBlock: KIFKEQ_clean_linker_1, # of connection points: 2
#     Edge 48, Type (0, 0), BuildingBlock: KIFKEQ_clean_linker_1, # of connection points: 2
#     Edge 49, Type (0, 0), BuildingBlock: KIFKEQ_clean_linker_1, # of connection points: 2
#     Edge 50, Type (0, 0), BuildingBlock: KIFKEQ_clean_linker_1, # of connection points: 2
#     Edge 51, Type (0, 0), BuildingBlock: KIFKEQ_clean_linker_1, # of connection points: 2
#     Edge 52, Type (0, 0), BuildingBlock: KIFKEQ_clean_linker_1, # of connection points: 2
#     Edge 53, Type (0, 0), BuildingBlock: KIFKEQ_clean_linker_1, # of connection points: 2
#     Edge 54, Type (0, 0), BuildingBlock: KIFKEQ_clean_linker_1, # of connection points: 2
#     Edge 55, Type (0, 0), BuildingBlock: KIFKEQ_clean_linker_1, # of connection points: 2
#     Edge 56, Type (0, 0), BuildingBlock: KIFKEQ_clean_linker_1, # of connection points: 2
#     Edge 57, Type (0, 0), BuildingBlock: KIFKEQ_clean_linker_1, # of connection points: 2
#     Edge 58, Type (0, 0), BuildingBlock: KIFKEQ_clean_linker_1, # of connection points: 2
#     Edge 59, Type (0, 0), BuildingBlock: KIFKEQ_clean_linker_1, # of connection points: 2
#     Edge 60, Type (0, 0), BuildingBlock: KIFKEQ_clean_linker_1, # of connection points: 2
#     Edge 61, Type (0, 0), BuildingBlock: KIFKEQ_clean_linker_1, # of connection points: 2
#     Edge 62, Type (0, 0), BuildingBlock: KIFKEQ_clean_linker_1, # of connection points: 2
#     Edge 63, Type (0, 0), BuildingBlock: KIFKEQ_clean_linker_1, # of connection points: 2
#     Edge 64, Type (0, 0), BuildingBlock: KIFKEQ_clean_linker_1, # of connection points: 2
#     Edge 65, Type (0, 0), BuildingBlock: KIFKEQ_clean_linker_1, # of connection points: 2
#     Edge 66, Type (0, 0), BuildingBlock: KIFKEQ_clean_linker_1, # of connection points: 2
#     Edge 67, Type (0, 0), BuildingBlock: KIFKEQ_clean_linker_1, # of connection points: 2
#     Edge 68, Type (0, 0), BuildingBlock: KIFKEQ_clean_linker_1, # of connection points: 2
#     Edge 69, Type (0, 0), BuildingBlock: KIFKEQ_clean_linker_1, # of connection points: 2
#     Edge 70, Type (0, 0), BuildingBlock: KIFKEQ_clean_linker_1, # of connection points: 2
#     Edge 71, Type (0, 0), BuildingBlock: KIFKEQ_clean_linker_1, # of connection points: 2
# Relax obj value: 0.082
# Max RMSD: 0.206
# Mean RMSD: 0.206
data_MOF--net-wmi--node1-PAMTOO_clean_sbu_0--edge1-KIFKEQ_clean_linker_1
_symmetry_space_group_name_H-M    P1
_symmetry_Int_Tables_number       1
_symmetry_cell_setting            triclinic
loop_
_symmetry_equiv_pos_as_xyz
'x, y, z'
_cell_length_a     40.654643
_cell_length_b     40.55604
_cell_length_c     81.174554
_cell_angle_alpha  89.459459
_cell_angle_beta   90.158893
_cell_angle_gamma 120.31266
loop_
_atom_site_label
_atom_site_type_symbol
_atom_site_fract_x
_atom_site_fract_y
_atom_site_fract_z
_atom_type_partial_charge
Dy0 Dy 0.45794 1.00541 0.0948 0.0
Dy1 Dy 0.54435 0.05501 0.11014 0.0
C2 C 0.47006 1.00558 0.13224 0.0
O3 O 0.46624 0.06256 0.10254 0.0
O4 O 0.53079 0.09684 0.0989 0.0
O5 O 0.39746 0.98113 0.09889 0.0
O6 O 0.41807 0.97083 0.07599 0.0
O7 O 0.55025 0.04799 0.08287 0.0
O8 O 0.49337 0.04084 0.07403 0.0
O9 O 0.52852 0.99399 0.1127 0.0
O10 O 0.48667 0.97106 0.09109 0.0
O11 O 0.6011 0.0639 0.11351 0.0
O12 O 0.5859 0.10291 0.12441 0.0
C13 C 0.49816 0.09557 0.10078 0.0
O14 O 0.45853 0.98313 0.11956 0.0
O15 O 0.5013 0.03933 0.13096 0.0
C16 C 0.36312 0.91903 0.08811 0.0
C17 C 0.31532 0.84058 0.09545 0.0
C18 C 0.35322 0.8547 0.09048 0.0
C19 C 0.37699 0.89359 0.08697 0.0
C20 C 0.32517 0.90491 0.09287 0.0
C21 C 0.3015 0.86608 0.09654 0.0
C22 C 0.38866 0.9605 0.08559 0.0
C23 C 0.52724 0.04595 0.07091 0.0
C24 C 0.51032 0.96824 0.10132 0.0
C25 C 0.65064 0.12856 0.11569 0.0
C26 C 0.72339 0.19028 0.10647 0.0
C27 C 0.7183 0.15407 0.11032 0.0
C28 C 0.68245 0.1237 0.11492 0.0
C29 C 0.65541 0.16451 0.11164 0.0
C30 C 0.69134 0.19499 0.10711 0.0
C31 C 0.61336 0.0961 0.12118 0.0
H32 H 0.36477 0.83584 0.08969 0.0
H33 H 0.40639 0.90382 0.08361 0.0
H34 H 0.31399 0.92404 0.09397 0.0
H35 H 0.27229 0.85597 0.10017 0.0
H36 H 0.74201 0.14903 0.10974 0.0
H37 H 0.67962 0.09632 0.11797 0.0
H38 H 0.63151 0.16929 0.11213 0.0
H39 H 0.69409 0.22249 0.10448 0.0
Dy40 Dy 0.07186 0.47859 0.09775 0.0
Dy41 Dy 1.01991 0.51576 0.11 0.0
C42 C 0.04796 0.47317 0.1336 0.0
O43 O 1.01254 0.43397 0.09007 0.0
O44 O 0.97772 0.455 0.10463 0.0
O45 O 0.10382 0.45254 0.106 0.0
O46 O 0.10223 0.46402 0.07997 0.0
O47 O 1.01692 0.51447 0.08233 0.0
O48 O 0.07349 0.51644 0.07747 0.0
O49 O 0.07764 0.56519 0.10603 0.0
O50 O 0.11293 0.53574 0.10882 0.0
O51 O 1.00761 0.56155 0.11002 0.0
O52 O 0.97601 0.51262 0.12621 0.0
C53 C 0.9799 0.4293 0.09565 0.0
O54 O 0.04075 0.45157 0.12081 0.0
O55 O 0.04926 0.50598 0.13165 0.0
C56 C 0.16036 0.47337 0.0911 0.0
C57 C 0.24015 0.50515 0.09322 0.0
C58 C 0.22213 0.52219 0.1014 0.0
C59 C 0.18268 0.50649 0.10033 0.0
C60 C 0.17826 0.4571 0.0824 0.0
C61 C 0.2178 0.47288 0.0834 0.0
C62 C 0.11843 0.45447 0.09149 0.0
C63 C 0.0454 0.52113 0.07248 0.0
C64 C 0.11025 0.56677 0.10835 0.0
C65 C 0.94434 0.54487 0.11657 0.0
C66 C 0.87922 0.55074 0.10975 0.0
C67 C 0.90016 0.54701 0.09685 0.0
C68 C 0.93237 0.54397 0.10023 0.0
C69 C 0.92339 0.54831 0.12943 0.0
C70 C 0.89117 0.55117 0.12608 0.0
C71 C 0.97959 0.54447 0.1205 0.0
H72 H 0.23819 0.54672 0.10922 0.0
H73 H 0.16947 0.51948 0.10721 0.0
H74 H 0.16157 0.43164 0.07516 0.0
H75 H 0.23077 0.4594 0.07669 0.0
H76 H 0.89147 0.54613 0.08416 0.0
H77 H 0.94811 0.54128 0.09009 0.0
H78 H 0.9323 0.54937 0.1421 0.0
H79 H 0.87602 0.55446 0.13629 0.0
Dy80 Dy 0.60126 0.62176 0.10088 0.0
Dy81 Dy 0.55882 0.53205 0.11479 0.0
C82 C 0.60336 0.60407 0.13752 0.0
O83 O 0.64177 0.60199 0.09347 0.0
O84 O 0.61917 0.54868 0.11038 0.0
O85 O 0.62838 0.68081 0.10782 0.0
O86 O 0.62204 0.66588 0.08197 0.0
O87 O 0.56061 0.52999 0.08708 0.0
O88 O 0.56061 0.58553 0.08163 0.0
O89 O 0.51155 0.54356 0.11165 0.0
O90 O 0.54416 0.6094 0.11058 0.0
O91 O 0.51176 0.47411 0.11494 0.0
O92 O 0.55909 0.4902 0.13163 0.0
C93 C 0.64493 0.57403 0.10028 0.0
O94 O 0.6257 0.61793 0.12476 0.0
O95 O 0.57007 0.57282 0.1358 0.0
C96 C 0.61454 0.71768 0.08999 0.0
C97 C 0.58553 0.7678 0.08905 0.0
C98 C 0.56215 0.72948 0.09391 0.0
C99 C 0.5765 0.70464 0.09431 0.0
C100 C 0.63761 0.75549 0.08454 0.0
C101 C 0.62316 0.78036 0.08398 0.0
C102 C 0.63087 0.69294 0.09268 0.0
C103 C 0.55482 0.55218 0.07696 0.0
C104 C 0.5123 0.57622 0.11182 0.0
C105 C 0.52625 0.42573 0.12214 0.0
C106 C 0.51856 0.35311 0.11681 0.0
C107 C 0.51071 0.372 0.10411 0.0
C108 C 0.5146 0.40792 0.10672 0.0
C109 C 0.53443 0.40709 0.13477 0.0
C110 C 0.53078 0.3713 0.13213 0.0
C111 C 0.52751 0.46222 0.12567 0.0
H112 H 0.53294 0.71889 0.09769 0.0
H113 H 0.55825 0.67557 0.09854 0.0
H114 H 0.66711 0.76609 0.08124 0.0
H115 H 0.64188 0.80982 0.08028 0.0
H116 H 0.50176 0.3591 0.09209 0.0
H117 H 0.50805 0.42148 0.0967 0.0
H118 H 0.54308 0.41995 0.14681 0.0
H119 H 0.5367 0.35747 0.14224 0.0
Dy120 Dy 1.01947 0.45999 0.92572 0.0
Dy121 Dy 0.0686 0.54988 0.91293 0.0
C122 C 0.04142 0.47969 0.88961 0.0
O123 O 0.07896 0.47835 0.93423 0.0
O124 O 0.11146 0.53205 0.91766 0.0
O125 O 0.99217 0.40162 0.91778 0.0
O126 O 0.98856 0.41395 0.94341 0.0
O127 O 0.07174 0.55074 0.94065 0.0
O128 O 1.01582 0.49487 0.94566 0.0
O129 O 1.01 0.53896 0.91632 0.0
O130 O 0.97615 0.47338 0.91515 0.0
O131 O 0.07872 0.60749 0.91289 0.0
O132 O 0.11309 0.59323 0.89747 0.0
C133 C 0.11085 0.50601 0.92767 0.0
O134 O 0.05044 0.46661 0.90246 0.0
O135 O 0.03935 0.51077 0.8913 0.0
C136 C 0.93311 0.36459 0.93083 0.0
C137 C 0.85355 0.31774 0.9274 0.0
C138 C 0.87383 0.35054 0.91751 0.0
C139 C 0.91313 0.3738 0.91926 0.0
C140 C 0.9129 0.33241 0.94102 0.0
C141 C 0.87333 0.30918 0.93937 0.0
C142 C 0.97493 0.38824 0.93186 0.0
C143 C 0.04343 0.5281 0.95056 0.0
C144 C 0.97781 0.50665 0.91497 0.0
C145 C 0.14249 0.65653 0.90849 0.0
C146 C 0.20662 0.72674 0.91811 0.0
C147 C 0.17014 0.72258 0.91728 0.0
C148 C 0.13857 0.688 0.91248 0.0
C149 C 0.17878 0.66034 0.90943 0.0
C150 C 0.21047 0.69507 0.91415 0.0
C151 C 0.10837 0.62053 0.90326 0.0
H152 H 0.85928 0.35809 0.90834 0.0
H153 H 0.928 0.39864 0.9113 0.0
H154 H 0.92777 0.32492 0.95005 0.0
H155 H 0.85838 0.28391 0.94708 0.0
H156 H 0.16582 0.746 0.92046 0.0
H157 H 0.11092 0.68585 0.91187 0.0
H158 H 0.18279 0.63664 0.90642 0.0
H159 H 0.23814 0.69725 0.9144 0.0
Dy160 Dy 0.63016 0.59663 0.92907 0.0
Dy161 Dy 0.54 0.55605 0.91702 0.0
C162 C 0.60996 0.59917 0.89302 0.0
O163 O 0.61432 0.64051 0.93613 0.0
O164 O 0.5579 0.61684 0.92152 0.0
O165 O 0.68811 0.62379 0.92051 0.0
O166 O 0.6762 0.61307 0.94663 0.0
O167 O 0.53906 0.55902 0.94467 0.0
O168 O 0.59511 0.56002 0.94989 0.0
O169 O 0.5497 0.50779 0.92138 0.0
O170 O 0.6149 0.53894 0.9191 0.0
O171 O 0.48191 0.50941 0.91748 0.0
O172 O 0.49798 0.55727 0.90087 0.0
C173 C 0.58559 0.64366 0.9303 0.0
O174 O 0.62466 0.62156 0.90559 0.0
O175 O 0.57897 0.56584 0.89532 0.0
C176 C 0.72504 0.60422 0.93532 0.0
C177 C 0.77393 0.57362 0.9333 0.0
C178 C 0.73924 0.55683 0.92465 0.0
C179 C 0.71506 0.57189 0.92569 0.0
C180 C 0.75878 0.62019 0.94448 0.0
C181 C 0.78293 0.60497 0.94355 0.0
C182 C 0.70156 0.62255 0.93495 0.0
C183 C 0.56186 0.55426 0.95475 0.0
C184 C 0.58147 0.50734 0.91971 0.0
C185 C 0.43449 0.52469 0.91111 0.0
C186 C 0.36396 0.51838 0.91949 0.0
C187 C 0.39526 0.53579 0.93032 0.0
C188 C 0.4302 0.53888 0.92617 0.0
C189 C 0.40363 0.50782 0.90022 0.0
C190 C 0.36878 0.50472 0.90433 0.0
C191 C 0.47009 0.5254 0.90686 0.0
H192 H 0.73141 0.53302 0.9165 0.0
H193 H 0.68913 0.55901 0.91849 0.0
H194 H 0.76691 0.64497 0.95207 0.0
H195 H 0.80898 0.61819 0.95067 0.0
H196 H 0.39257 0.54639 0.94213 0.0
H197 H 0.45368 0.55186 0.93479 0.0
H198 H 0.40639 0.49669 0.88854 0.0
H199 H 0.34567 0.49185 0.89554 0.0
Dy200 Dy 0.49817 0.07081 0.93052 0.0
Dy201 Dy 0.53201 0.0201 0.91267 0.0
C202 C 0.48892 0.05507 0.89293 0.0
O203 O 0.45613 1.01001 0.93784 0.0
O204 O 0.47079 0.97936 0.91775 0.0
O205 O 0.46555 0.09902 0.92809 0.0
O206 O 0.49367 0.10212 0.95113 0.0
O207 O 0.53192 1.01221 0.94016 0.0
O208 O 0.54248 0.07128 0.94669 0.0
O209 O 0.58142 0.07885 0.91528 0.0
O210 O 0.551 0.11353 0.91717 0.0
O211 O 0.57834 1.00917 0.90996 0.0
O212 O 0.52595 0.97493 0.8965 0.0
C213 C 0.44838 0.97915 0.92944 0.0
O214 O 0.46982 0.04852 0.90663 0.0
O215 O 0.51869 0.05036 0.89237 0.0
C216 C 0.4937 0.15763 0.94176 0.0
C217 C 0.52238 0.23709 0.93882 0.0
C218 C 0.53477 0.21855 0.92806 0.0
C219 C 0.52062 0.17929 0.92953 0.0
C220 C 0.48217 0.17606 0.95287 0.0
C221 C 0.49642 0.21544 0.95145 0.0
C222 C 0.4763 0.11575 0.9423 0.0
C223 C 0.54393 0.04068 0.95053 0.0
C224 C 0.58191 0.11144 0.91498 0.0
C225 C 0.56037 0.94473 0.90532 0.0
C226 C 0.56742 0.88051 0.91357 0.0
C227 C 0.56621 0.90391 0.92597 0.0
C228 C 0.56255 0.9356 0.9219 0.0
C229 C 0.56134 0.92137 0.89295 0.0
C230 C 0.56474 0.88958 0.89701 0.0
C231 C 0.55898 0.97939 0.90069 0.0
H232 H 0.55428 0.23404 0.91807 0.0
H233 H 0.52985 0.16565 0.92077 0.0
H234 H 0.46155 0.15988 0.96243 0.0
H235 H 0.48673 0.22884 0.96013 0.0
H236 H 0.56769 0.8975 0.93884 0.0
H237 H 0.56176 0.95314 0.9317 0.0
H238 H 0.55995 0.92799 0.88009 0.0
H239 H 0.56596 0.87246 0.88713 0.0
Dy240 Dy 0.11475 0.33278 0.42975 0.0
Dy241 Dy 0.2015 0.38361 0.44427 0.0
C242 C 0.12847 0.33471 0.46716 0.0
O243 O 0.123 0.39035 0.43695 0.0
O244 O 0.18726 0.42442 0.43247 0.0
O245 O 0.05419 0.30757 0.434 0.0
O246 O 0.07493 0.29782 0.41101 0.0
O247 O 0.20591 0.37299 0.41723 0.0
O248 O 0.14968 0.36737 0.40872 0.0
O249 O 0.18644 0.32319 0.44794 0.0
O250 O 0.1433 0.2979 0.42686 0.0
O251 O 0.25928 0.3947 0.44666 0.0
O252 O 0.24246 0.43128 0.45876 0.0
C253 C 0.15474 0.42328 0.43454 0.0
O254 O 0.1159 0.31173 0.45468 0.0
O255 O 0.15935 0.36859 0.46541 0.0
C256 C 1.02097 0.24507 0.42339 0.0
C257 C 0.976 0.16639 0.43112 0.0
C258 C 1.01153 0.18073 0.42335 0.0
C259 C 0.03392 0.21969 0.41962 0.0
C260 C 0.98519 0.23065 0.43089 0.0
C261 C 0.96298 0.19175 0.43476 0.0
C262 C 0.04562 0.28674 0.42077 0.0
C263 C 0.18264 0.37063 0.40534 0.0
C264 C 0.1677 0.29627 0.43708 0.0
C265 C 0.30714 0.45977 0.44969 0.0
C266 C 0.37861 0.52445 0.44161 0.0
C267 C 0.37556 0.489 0.44518 0.0
C268 C 0.34026 0.45711 0.44923 0.0
C269 C 0.30991 0.49493 0.44576 0.0
C270 C 0.34527 0.52692 0.44181 0.0
C271 C 0.27063 0.42601 0.45492 0.0
H272 H 1.02245 0.16197 0.42052 0.0
H273 H 0.06166 0.22998 0.41408 0.0
H274 H 0.9747 0.24963 0.43401 0.0
H275 H 0.9355 0.18145 0.44058 0.0
H276 H 0.40065 0.48615 0.44532 0.0
H277 H 0.33893 0.43039 0.45228 0.0
H278 H 0.28489 0.4979 0.4459 0.0
H279 H 0.34653 0.55366 0.43893 0.0
Dy280 Dy 0.73027 0.80495 0.43619 0.0
Dy281 Dy 0.68268 0.84806 0.44739 0.0
C282 C 0.70627 0.80297 0.47179 0.0
O283 O 0.67025 0.76393 0.42805 0.0
O284 O 0.63787 0.78808 0.44233 0.0
O285 O 0.76197 0.77924 0.44534 0.0
O286 O 0.75364 0.78161 0.41899 0.0
O287 O 0.6828 0.84768 0.41963 0.0
O288 O 0.73785 0.84571 0.41614 0.0
O289 O 0.74235 0.89488 0.44504 0.0
O290 O 0.77479 0.86194 0.44629 0.0
O291 O 0.67316 0.89586 0.44627 0.0
O292 O 0.6406 0.84901 0.46334 0.0
C293 C 0.63841 0.76142 0.43343 0.0
O294 O 0.6977 0.78046 0.45924 0.0
O295 O 0.71001 0.83675 0.46938 0.0
C296 C 0.81202 0.78763 0.42828 0.0
C297 C 0.89128 0.81517 0.42718 0.0
C298 C 0.86563 0.77809 0.43309 0.0
C299 C 0.82649 0.76451 0.43358 0.0
C300 C 0.83723 0.82456 0.42225 0.0
C301 C 0.87649 0.83813 0.42162 0.0
C302 C 0.77119 0.77394 0.43063 0.0
C303 C 0.71207 0.85331 0.41055 0.0
C304 C 0.77394 0.894 0.44669 0.0
C305 C 0.61192 0.88425 0.45353 0.0
C306 C 0.5479 0.8925 0.44722 0.0
C307 C 0.54675 0.85788 0.44384 0.0
C308 C 0.5785 0.8538 0.44695 0.0
C309 C 0.61328 0.91881 0.45675 0.0
C310 C 0.58172 0.92295 0.45363 0.0
C311 C 0.64587 0.8812 0.45718 0.0
H312 H 0.87579 0.7598 0.43783 0.0
H313 H 0.80755 0.73618 0.43854 0.0
H314 H 0.82666 0.84311 0.41831 0.0
H315 H 0.89521 0.86665 0.41684 0.0
H316 H 0.52112 0.83369 0.43905 0.0
H317 H 0.57688 0.82688 0.4443 0.0
H318 H 0.63891 0.94275 0.46172 0.0
H319 H 0.584 0.95021 0.4561 0.0
Dy320 Dy 0.25948 0.95018 0.42849 0.0
Dy321 Dy 0.22376 0.86408 0.44515 0.0
C322 C 0.25299 0.94067 0.46635 0.0
O323 O 0.30865 0.94204 0.43565 0.0
O324 O 0.27782 0.87718 0.43287 0.0
O325 O 0.29823 1.01093 0.43046 0.0
O326 O 0.26251 0.98793 0.40888 0.0
O327 O 0.20718 0.85617 0.41821 0.0
O328 O 0.25629 0.91286 0.40823 0.0
O329 O 0.17913 0.87989 0.4485 0.0
O330 O 0.19573 0.92237 0.4269 0.0
O331 O 0.17692 0.80679 0.44942 0.0
O332 O 0.23181 0.82465 0.46054 0.0
C333 C 0.30947 0.91018 0.43392 0.0
O334 O 0.24203 0.95306 0.45383 0.0
O335 O 0.25368 0.90855 0.46516 0.0
C336 C 0.27236 0.04621 0.41896 0.0
C337 C 0.24714 0.099 0.42259 0.0
C338 C 0.22671 0.0624 0.42982 0.0
C339 C 0.23924 0.03626 0.42803 0.0
C340 C 0.29281 0.08254 0.41169 0.0
C341 C 0.28034 0.10876 0.41349 0.0
C342 C 0.28536 0.01863 0.41709 0.0
C343 C 0.22696 0.87875 0.40582 0.0
C344 C 0.17036 0.8982 0.43751 0.0
C345 C 0.19323 0.75854 0.45415 0.0
C346 C 0.18204 0.68447 0.44874 0.0
C347 C 0.16995 0.70193 0.43701 0.0
C348 C 0.17556 0.73858 0.43966 0.0
C349 C 0.2054 0.74122 0.46581 0.0
C350 C 0.19998 0.70474 0.46314 0.0
C351 C 0.19745 0.79627 0.45788 0.0
H352 H 0.20136 0.05414 0.43708 0.0
H353 H 0.22316 1.00828 0.43377 0.0
H354 H 0.31837 0.09058 0.40461 0.0
H355 H 0.29647 0.13655 0.40762 0.0
H356 H 0.15647 0.68741 0.42569 0.0
H357 H 0.16583 0.75114 0.43042 0.0
H358 H 0.21875 0.75578 0.47715 0.0
H359 H 0.20923 0.69211 0.47255 0.0
Dy360 Dy 0.68139 0.7884 0.26671 0.0
Dy361 Dy 0.72889 0.87442 0.24997 0.0
C362 C 0.67979 0.79853 0.22875 0.0
O363 O 0.738 0.7968 0.25814 0.0
O364 O 0.77251 0.86199 0.25988 0.0
O365 O 0.66142 0.72815 0.26495 0.0
O366 O 0.64536 0.74969 0.28591 0.0
O367 O 0.72394 0.88085 0.27737 0.0
O368 O 0.72017 0.82521 0.28626 0.0
O369 O 0.66753 0.85665 0.24788 0.0
O370 O 0.64675 0.81694 0.27042 0.0
O371 O 0.73593 0.93064 0.24643 0.0
O372 O 0.77555 0.91681 0.2351 0.0
C373 C 0.771 0.82902 0.25877 0.0
O374 O 0.6582 0.78555 0.24181 0.0
O375 O 0.71275 0.83086 0.22949 0.0
C376 C 0.59901 0.69038 0.27521 0.0
C377 C 0.52171 0.63458 0.27008 0.0
C378 C 0.54089 0.66568 0.2591 0.0
C379 C 0.579 0.69339 0.26172 0.0
C380 C 0.58017 0.65966 0.28624 0.0
C381 C 0.54186 0.63207 0.28375 0.0
C382 C 0.63927 0.71947 0.27782 0.0
C383 C 0.72617 0.85951 0.28917 0.0
C384 C 0.64269 0.83934 0.25978 0.0
C385 C 0.79958 0.98184 0.24307 0.0
C386 C 0.86027 0.05647 0.25041 0.0
C387 C 0.86516 0.02451 0.25186 0.0
C388 C 0.83518 0.98763 0.24823 0.0
C389 C 0.79444 1.01351 0.24196 0.0
C390 C 0.82427 0.05026 0.24562 0.0
C391 C 0.76775 0.94364 0.23828 0.0
H392 H 0.52666 0.66844 0.24833 0.0
H393 H 0.59294 0.71716 0.25316 0.0
H394 H 0.59505 0.65708 0.29682 0.0
H395 H 0.52796 0.60901 0.29265 0.0
H396 H 0.89248 0.02807 0.25534 0.0
H397 H 0.84006 0.96379 0.24925 0.0
H398 H 0.76729 1.00987 0.23808 0.0
H399 H 0.81904 0.07387 0.24463 0.0
Dy400 Dy 0.29233 0.92546 0.26166 0.0
Dy401 Dy 0.20385 0.88372 0.24705 0.0
C402 C 0.27687 0.92786 0.22468 0.0
O403 O 0.27313 0.96726 0.26786 0.0
O404 O 0.22116 0.94471 0.2505 0.0
O405 O 0.35158 0.9526 0.25507 0.0
O406 O 0.33534 0.94551 0.28083 0.0
O407 O 0.19997 0.88576 0.27464 0.0
O408 O 0.25452 0.88484 0.28091 0.0
O409 O 0.2147 0.83595 0.25094 0.0
O410 O 0.28028 0.86827 0.25223 0.0
O411 O 0.14587 0.8369 0.24677 0.0
O412 O 0.16327 0.88431 0.22974 0.0
C413 C 0.24625 0.97096 0.26037 0.0
O414 O 0.29049 0.95001 0.23741 0.0
O415 O 0.2454 0.89464 0.22634 0.0
C416 C 0.38882 0.94013 0.27323 0.0
C417 C 0.44212 0.91488 0.27446 0.0
C418 C 0.40439 0.89014 0.26935 0.0
C419 C 0.37804 0.90268 0.26874 0.0
C420 C 0.42586 0.96442 0.27895 0.0
C421 C 0.45226 0.95191 0.27961 0.0
C422 C 0.36299 0.95511 0.27027 0.0
C423 C 0.22077 0.87886 0.28503 0.0
C424 C 0.24715 0.83637 0.25108 0.0
C425 C 0.09875 0.85188 0.23889 0.0
C426 C 0.0267 0.84472 0.2448 0.0
C427 C 0.0524 0.85194 0.25783 0.0
C428 C 0.08805 0.85554 0.2549 0.0
C429 C 0.07356 0.84533 0.22584 0.0
C430 C 0.038 0.84186 0.22873 0.0
C431 C 0.1349 0.85266 0.23563 0.0
H432 H 0.3956 0.86164 0.26511 0.0
H433 H 0.34968 0.88365 0.26413 0.0
H434 H 0.43473 0.99346 0.28243 0.0
H435 H 0.48084 0.97151 0.28387 0.0
H436 H 0.04468 0.85398 0.27038 0.0
H437 H 0.10699 0.86054 0.2652 0.0
H438 H 0.08124 0.84245 0.21338 0.0
H439 H 1.01942 0.83709 0.21833 0.0
Dy440 Dy 0.16202 0.4003 0.26762 0.0
Dy441 Dy 0.1828 0.34246 0.2475 0.0
C442 C 0.15933 0.39763 0.22779 0.0
O443 O 0.11335 0.33954 0.27111 0.0
O444 O 0.12086 0.3216 0.24564 0.0
O445 O 0.12513 0.42345 0.27198 0.0
O446 O 0.17596 0.44241 0.28657 0.0
O447 O 0.1799 0.3283 0.27463 0.0
O448 O 0.19678 0.38733 0.28448 0.0
O449 O 0.23824 0.39356 0.25435 0.0
O450 O 0.21831 0.43724 0.2553 0.0
O451 O 0.16365 0.28414 0.24111 0.0
O452 O 0.21969 0.32886 0.23333 0.0
C453 C 0.09954 0.31592 0.25859 0.0
O454 O 0.14852 0.40532 0.24172 0.0
O455 O 0.17602 0.37686 0.22699 0.0
C456 C 0.16142 0.48903 0.27813 0.0
C457 C 0.18831 0.56671 0.27048 0.0
C458 C 0.19334 0.54326 0.25932 0.0
C459 C 0.18013 0.50487 0.26313 0.0
C460 C 0.15629 0.51215 0.28932 0.0
C461 C 0.16962 0.55067 0.28554 0.0
C462 C 0.14886 0.44893 0.28228 0.0
C463 C 0.19393 0.35401 0.28633 0.0
C464 C 0.24572 0.42909 0.25442 0.0
C465 C 0.21093 0.26693 0.23871 0.0
C466 C 0.23018 0.21023 0.24594 0.0
C467 C 0.21886 0.22599 0.25858 0.0
C468 C 0.20927 0.25404 0.25499 0.0
C469 C 0.22398 0.25268 0.22624 0.0
C470 C 0.23357 0.22473 0.2298 0.0
C471 C 0.19578 0.29214 0.23419 0.0
H472 H 0.20801 0.55471 0.24772 0.0
H473 H 0.18479 0.48756 0.25441 0.0
H474 H 0.1421 0.50047 0.30099 0.0
H475 H 0.16486 0.56776 0.29433 0.0
H476 H 0.21568 0.21541 0.27111 0.0
H477 H 0.19923 0.26462 0.26483 0.0
H478 H 0.22555 0.26224 0.21361 0.0
H479 H 0.24284 0.21382 0.21981 0.0
Dy480 Dy 0.79632 0.67822 0.76421 0.0
Dy481 Dy 0.88155 0.72726 0.78074 0.0
C482 C 0.80581 0.67629 0.80197 0.0
O483 O 0.80287 0.73403 0.77279 0.0
O484 O 0.86779 0.7699 0.77049 0.0
O485 O 0.73562 0.65485 0.76648 0.0
O486 O 0.75881 0.6428 0.74486 0.0
O487 O 0.88864 0.7223 0.7534 0.0
O488 O 0.83304 0.71804 0.74466 0.0
O489 O 0.86552 0.66614 0.78291 0.0
O490 O 0.8264 0.64528 0.7604 0.0
O491 O 0.93826 0.73641 0.78423 0.0
O492 O 0.92241 0.77435 0.79565 0.0
C493 C 0.8345 0.7675 0.77178 0.0
O494 O 0.79429 0.65465 0.78901 0.0
O495 O 0.8374 0.7099 0.80118 0.0
C496 C 0.70169 0.5927 0.75585 0.0
C497 C 0.65045 0.51395 0.76121 0.0
C498 C 0.68528 0.53287 0.76974 0.0
C499 C 0.71066 0.57182 0.76705 0.0
C500 C 0.66735 0.57401 0.74715 0.0
C501 C 0.64197 0.53499 0.74977 0.0
C502 C 0.72817 0.63386 0.75336 0.0
C503 C 0.86724 0.72402 0.74158 0.0
C504 C 0.8487 0.64139 0.77104 0.0
C505 C 0.98678 0.80081 0.78721 0.0
C506 C 0.05835 0.86305 0.77731 0.0
C507 C 0.02703 0.84756 0.76645 0.0
C508 C 0.99162 0.81674 0.77135 0.0
C509 C 1.01776 0.81611 0.79807 0.0
C510 C 0.05312 0.84687 0.7932 0.0
C511 C 0.95003 0.76778 0.79251 0.0
H512 H 0.69262 0.51781 0.77876 0.0
H513 H 0.73719 0.58577 0.77385 0.0
H514 H 0.6601 0.58962 0.73837 0.0
H515 H 0.61573 0.52128 0.74279 0.0
H516 H 0.02998 0.85894 0.75407 0.0
H517 H 0.96807 0.80521 0.76274 0.0
H518 H 1.01461 0.80425 0.81037 0.0
H519 H 0.07622 0.85834 0.80202 0.0
Dy520 Dy 0.4047 0.152 0.76511 0.0
Dy521 Dy 0.35463 0.18992 0.77935 0.0
C522 C 0.38281 0.14477 0.80143 0.0
O523 O 0.34445 0.10949 0.75749 0.0
O524 O 0.31181 0.12928 0.77423 0.0
O525 O 0.43815 0.12679 0.77231 0.0
O526 O 0.43005 0.13406 0.74636 0.0
O527 O 0.35202 0.19081 0.75157 0.0
O528 O 0.40926 0.19452 0.74661 0.0
O529 O 0.41334 0.23901 0.77723 0.0
O530 O 0.44811 0.20849 0.77598 0.0
O531 O 0.34201 0.23551 0.77962 0.0
O532 O 0.31179 0.18705 0.79617 0.0
C533 C 0.31257 0.10435 0.76423 0.0
O534 O 0.37459 0.12427 0.78822 0.0
O535 O 0.38366 0.17758 0.80048 0.0
C536 C 0.48983 0.14276 0.75495 0.0
C537 C 0.56986 0.17554 0.7555 0.0
C538 C 0.55345 0.19889 0.75469 0.0
C539 C 0.51376 0.18261 0.75441 0.0
C540 C 0.50598 0.1194 0.75535 0.0
C541 C 0.54555 0.13557 0.75559 0.0
C542 C 0.44845 0.1255 0.75724 0.0
C543 C 0.38136 0.1997 0.74188 0.0
C544 C 0.44584 0.23958 0.77763 0.0
C545 C 0.27912 0.21873 0.78701 0.0
C546 C 0.21321 0.22381 0.78087 0.0
C547 C 0.2319 0.21695 0.76791 0.0
C548 C 0.2645 0.21433 0.77096 0.0
C549 C 0.26046 0.22533 0.79994 0.0
C550 C 0.22789 0.22781 0.79693 0.0
C551 C 0.31477 0.21867 0.79048 0.0
H552 H 0.57123 0.22971 0.75445 0.0
H553 H 0.50169 0.20106 0.75424 0.0
H554 H 0.48797 0.08862 0.75605 0.0
H555 H 0.55703 0.11664 0.75652 0.0
H556 H 0.22113 0.21327 0.75544 0.0
H557 H 0.27845 0.2092 0.76077 0.0
H558 H 0.27144 0.22911 0.81238 0.0
H559 H 0.21459 0.23359 0.80717 0.0
Dy560 Dy 0.92931 0.28752 0.76786 0.0
Dy561 Dy 0.88737 0.19898 0.78307 0.0
C562 C 0.92639 0.27258 0.80518 0.0
O563 O 0.97111 0.26801 0.7623 0.0
O564 O 0.94861 0.21707 0.78056 0.0
O565 O 0.96021 0.34738 0.77359 0.0
O566 O 0.9466 0.32982 0.74824 0.0
O567 O 0.89261 0.19482 0.7556 0.0
O568 O 0.89162 0.2491 0.74838 0.0
O569 O 0.8404 0.20919 0.77661 0.0
O570 O 0.87121 0.27477 0.7765 0.0
O571 O 0.8398 0.14109 0.78355 0.0
O572 O 0.88654 0.158 0.80061 0.0
C573 C 0.97477 0.24156 0.77034 0.0
O574 O 0.95019 0.28657 0.79291 0.0
O575 O 0.89454 0.23986 0.80344 0.0
C576 C 0.94401 0.38405 0.75684 0.0
C577 C 0.91798 0.43662 0.75737 0.0
C578 C 0.89503 0.39931 0.76354 0.0
C579 C 0.90793 0.3733 0.76327 0.0
C580 C 0.96654 0.42079 0.75017 0.0
C581 C 0.95358 0.44689 0.75036 0.0
C582 C 0.95929 0.35817 0.75852 0.0
C583 C 0.88695 0.21566 0.74464 0.0
C584 C 0.83967 0.24112 0.77658 0.0
C585 C 0.85279 0.09305 0.79206 0.0
C586 C 0.84633 0.02123 0.78633 0.0
C587 C 0.88016 0.05546 0.78234 0.0
C588 C 0.88333 0.09104 0.78514 0.0
C589 C 0.8191 0.05912 0.79602 0.0
C590 C 0.81584 0.02363 0.79318 0.0
C591 C 0.85471 0.12987 0.79493 0.0
H592 H 0.8673 0.39038 0.76882 0.0
H593 H 0.89024 0.34514 0.76856 0.0
H594 H 0.9946 0.42966 0.74527 0.0
H595 H 0.97202 0.47553 0.74563 0.0
H596 H 0.9044 0.05483 0.77722 0.0
H597 H 0.90955 0.11691 0.7819 0.0
H598 H 0.79508 0.06005 0.80123 0.0
H599 H 0.78915 0.99804 0.79614 0.0
Dy600 Dy 0.34726 0.11888 0.60097 0.0
Dy601 Dy 0.39406 0.2026 0.582 0.0
C602 C 0.34681 0.1231 0.56263 0.0
O603 O 0.40417 0.12705 0.59325 0.0
O604 O 0.43797 0.19242 0.59342 0.0
O605 O 0.32823 0.05864 0.60135 0.0
O606 O 0.31235 0.08336 0.62114 0.0
O607 O 0.38816 0.21296 0.60885 0.0
O608 O 0.38549 0.15932 0.61979 0.0
O609 O 0.33264 0.18392 0.57926 0.0
O610 O 0.31117 0.1463 0.60246 0.0
O611 O 0.40193 0.25849 0.57685 0.0
O612 O 0.43988 0.24204 0.56586 0.0
C613 C 0.43689 0.15954 0.59353 0.0
O614 O 0.32486 0.11066 0.57562 0.0
O615 O 0.37866 0.15654 0.56283 0.0
C616 C 0.26552 0.0215 0.61227 0.0
C617 C 0.18751 0.96622 0.60816 0.0
C618 C 0.21484 0.96983 0.59657 0.0
C619 C 0.25334 0.99708 0.5986 0.0
C620 C 0.23837 1.01732 0.62405 0.0
C621 C 0.19982 0.9901 0.622 0.0
C622 C 0.30601 0.0519 0.61406 0.0
C623 C 0.39061 0.19368 0.62149 0.0
C624 C 0.30747 0.16763 0.59113 0.0
C625 C 0.46565 0.30773 0.57195 0.0
C626 C 0.52769 0.38188 0.57853 0.0
C627 C 0.50695 0.35647 0.5915 0.0
C628 C 0.4763 0.31978 0.58825 0.0
C629 C 0.48628 0.33278 0.559 0.0
C630 C 0.51693 0.36938 0.56222 0.0
C631 C 0.43277 0.26963 0.56816 0.0
H632 H 0.20651 0.95143 0.58593 0.0
H633 H 0.27347 0.99917 0.58935 0.0
H634 H 0.24684 0.03553 0.63476 0.0
H635 H 0.17957 0.98836 0.63111 0.0
H636 H 0.51403 0.36507 0.60421 0.0
H637 H 0.46077 0.30093 0.59846 0.0
H638 H 0.47863 0.32403 0.54633 0.0
H639 H 0.53253 0.38769 0.55189 0.0
Dy640 Dy 0.96151 0.25969 0.59668 0.0
Dy641 Dy 0.87065 0.21509 0.58511 0.0
C642 C 0.93923 0.25905 0.56074 0.0
O643 O 0.94251 0.3013 0.60355 0.0
O644 O 0.88615 0.27554 0.58883 0.0
O645 O 1.01881 0.28583 0.5873 0.0
O646 O 1.00905 0.28423 0.61366 0.0
O647 O 0.87081 0.21768 0.61281 0.0
O648 O 0.92875 0.22238 0.61772 0.0
O649 O 0.8831 0.1684 0.58831 0.0
O650 O 0.94882 0.20147 0.5882 0.0
O651 O 0.81275 0.16783 0.58666 0.0
O652 O 0.82795 0.21266 0.5684 0.0
C653 C 0.91321 0.30317 0.59753 0.0
O654 O 0.95334 0.28229 0.57305 0.0
O655 O 0.90943 0.22513 0.56341 0.0
C656 C 0.06166 0.2789 0.6042 0.0
C657 C 0.11371 0.25193 0.60465 0.0
C658 C 0.12414 0.28807 0.59792 0.0
C659 C 0.09845 0.30139 0.59776 0.0
C660 C 0.05101 0.24298 0.61109 0.0
C661 C 0.07688 0.22972 0.61141 0.0
C662 C 0.03397 0.29185 0.60193 0.0
C663 C 0.89486 0.21449 0.62272 0.0
C664 C 0.91573 0.16935 0.5876 0.0
C665 C 0.76386 0.17964 0.57825 0.0
C666 C 0.69223 0.17375 0.58343 0.0
C667 C 0.72633 0.2089 0.58548 0.0
C668 C 0.76183 0.21181 0.58293 0.0
C669 C 0.73004 0.14458 0.57639 0.0
C670 C 0.69466 0.14161 0.57897 0.0
C671 C 0.8005 0.18149 0.57512 0.0
H672 H 0.15178 0.30573 0.59225 0.0
H673 H 0.10698 0.32888 0.59212 0.0
H674 H 1.0225 0.22488 0.61592 0.0
H675 H 0.06788 0.20196 0.61685 0.0
H676 H 0.7256 0.23434 0.58876 0.0
H677 H 0.7876 0.23918 0.58451 0.0
H678 H 0.73099 0.11935 0.57289 0.0
H679 H 0.66918 0.11395 0.57757 0.0
Dy680 Dy 0.82116 0.7289 0.59947 0.0
Dy681 Dy 0.85616 0.67924 0.58292 0.0
C682 C 0.83094 0.72967 0.56175 0.0
O683 O 0.77073 0.6726 0.59146 0.0
O684 O 0.79975 0.63677 0.59335 0.0
O685 O 0.78523 0.75374 0.59707 0.0
O686 O 0.81985 0.76429 0.61891 0.0
O687 O 0.86876 0.68416 0.61025 0.0
O688 O 0.81811 0.68934 0.6191 0.0
O689 O 0.90191 0.74021 0.58054 0.0
O690 O 0.88461 0.76164 0.60303 0.0
O691 O 0.90297 0.66906 0.57963 0.0
O692 O 0.84928 0.63288 0.56741 0.0
C693 C 0.76875 0.63909 0.59232 0.0
O694 O 0.84219 0.75177 0.57456 0.0
O695 O 0.82844 0.69599 0.56267 0.0
C696 C 0.81465 0.81561 0.60819 0.0
C697 C 0.84421 0.89494 0.60365 0.0
C698 C 0.86002 0.87608 0.59516 0.0
C699 C 0.8454 0.83682 0.59742 0.0
C700 C 0.79913 0.83425 0.61686 0.0
C701 C 0.81376 0.87353 0.61464 0.0
C702 C 0.79891 0.77418 0.61035 0.0
C703 C 0.84606 0.6829 0.62211 0.0
C704 C 0.9105 0.76519 0.59234 0.0
C705 C 0.88588 0.60456 0.57528 0.0
C706 C 0.89321 0.54023 0.58298 0.0
C707 C 0.89138 0.5629 0.59559 0.0
C708 C 0.88761 0.59468 0.59177 0.0
C709 C 0.88776 0.5821 0.56271 0.0
C710 C 0.89135 0.55033 0.56649 0.0
C711 C 0.88311 0.63854 0.57082 0.0
H712 H 0.88313 0.89144 0.58647 0.0
H713 H 0.85787 0.82291 0.59065 0.0
H714 H 0.7756 0.81842 0.62532 0.0
H715 H 0.80125 0.88714 0.62159 0.0
H716 H 0.89228 0.55575 0.6084 0.0
H717 H 0.88611 0.61155 0.6017 0.0
H718 H 0.88669 0.58931 0.54991 0.0
H719 H 0.89318 0.53392 0.55645 0.0
H720 H 0.49276 0.91962 0.07533 0.0
H721 H 0.5452 0.94484 0.12346 0.0
H722 H 0.50884 0.86949 0.07199 0.0
H723 H 0.56099 0.89472 0.1201 0.0
H724 H 0.54771 0.77625 0.1148 0.0
H725 H 0.52661 0.82263 0.11761 0.0
H726 H 0.5709 0.86777 0.06916 0.0
H727 H 0.59196 0.82112 0.0663 0.0
C728 C 0.5074 0.91427 0.08525 0.0
C729 C 0.51775 0.93625 0.09966 0.0
C730 C 0.5168 0.88576 0.08327 0.0
C731 C 0.5362 0.87829 0.09577 0.0
C732 C 0.54577 0.89967 0.11032 0.0
C733 C 0.53685 0.92848 0.1122 0.0
C734 C 0.55255 0.79578 0.10466 0.0
C735 C 0.57143 0.79505 0.09031 0.0
C736 C 0.54074 0.82249 0.10633 0.0
C737 C 0.54717 0.8488 0.09362 0.0
C738 C 0.56534 0.84762 0.07911 0.0
C739 C 0.57762 0.82117 0.07752 0.0
H740 H 0.26811 0.80977 0.12201 0.0
H741 H 0.30611 0.7785 0.07837 0.0
H742 H 0.22345 0.74257 0.1279 0.0
H743 H 0.26076 0.71112 0.08403 0.0
H744 H 0.18566 0.58901 0.10272 0.0
H745 H 0.23987 0.65471 0.10178 0.0
H746 H 0.16503 0.69661 0.1156 0.0
H747 H 0.11193 0.63191 0.11693 0.0
C748 C 0.26686 0.78848 0.11366 0.0
C749 C 0.29019 0.79945 0.0996 0.0
C750 C 0.24131 0.74994 0.11704 0.0
C751 C 0.23813 0.72137 0.10633 0.0
C752 C 0.26268 0.73227 0.09263 0.0
C753 C 0.28852 0.7709 0.08933 0.0
C754 C 0.18114 0.6123 0.1059 0.0
C755 C 0.14447 0.60524 0.1098 0.0
C756 C 0.21206 0.64993 0.10521 0.0
C757 C 0.20684 0.68104 0.10857 0.0
C758 C 0.17039 0.67354 0.11316 0.0
C759 C 0.13974 0.63626 0.11377 0.0
H760 H 0.27479 0.46274 0.09693 0.0
H761 H 0.29925 0.57955 0.09587 0.0
H762 H 0.34126 0.48477 0.10257 0.0
H763 H 0.36597 0.60162 0.10235 0.0
H764 H 0.49032 0.62131 0.09531 0.0
H765 H 0.42469 0.60713 0.09115 0.0
H766 H 0.38471 0.51172 0.12507 0.0
H767 H 0.44971 0.52523 0.12876 0.0
C768 C 0.29436 0.49319 0.09777 0.0
C769 C 0.28148 0.5193 0.09589 0.0
C770 C 0.3325 0.50585 0.10131 0.0
C771 C 0.35895 0.54499 0.10321 0.0
C772 C 0.34638 0.57129 0.10099 0.0
C773 C 0.30806 0.55859 0.09741 0.0
C774 C 0.46753 0.59801 0.10219 0.0
C775 C 0.475 0.57419 0.11226 0.0
C776 C 0.42991 0.58974 0.09976 0.0
C777 C 0.3993 0.55766 0.10746 0.0
C778 C 0.40741 0.53589 0.11854 0.0
C779 C 0.44472 0.54386 0.12081 0.0
H780 H 0.96873 0.56113 0.89985 0.0
H781 H 0.90839 0.45839 0.92929 0.0
H782 H 0.91685 0.57382 0.90344 0.0
H783 H 0.85657 0.47185 0.93352 0.0
H784 H 0.75933 0.49991 0.92908 0.0
H785 H 0.80494 0.47941 0.92259 0.0
H786 H 0.89694 0.59633 0.92593 0.0
H787 H 0.85162 0.61696 0.9314 0.0
C788 C 0.94401 0.54096 0.90694 0.0
C789 C 0.94269 0.50896 0.9144 0.0
C790 C 0.91442 0.54845 0.90917 0.0
C791 C 0.88297 0.52452 0.9192 0.0
C792 C 0.88038 0.49097 0.92576 0.0
C793 C 0.90997 0.48315 0.92331 0.0
C794 C 0.78929 0.52127 0.92829 0.0
C795 C 0.80165 0.5602 0.93072 0.0
C796 C 0.81548 0.50943 0.92472 0.0
C797 C 0.85464 0.53621 0.92349 0.0
C798 C 0.86696 0.57491 0.92637 0.0
C799 C 0.8409 0.58673 0.92984 0.0
H800 H 0.47911 0.27083 0.9419 0.0
H801 H 0.59296 0.29643 0.92947 0.0
H802 H 0.49721 0.33669 0.93629 0.0
H803 H 0.61064 0.36241 0.92304 0.0
H804 H 0.63341 0.48763 0.93071 0.0
H805 H 0.62172 0.42261 0.93512 0.0
H806 H 0.51096 0.37699 0.91252 0.0
H807 H 0.52218 0.44127 0.9086 0.0
C808 C 0.50814 0.29055 0.9381 0.0
C809 C 0.53452 0.27814 0.93616 0.0
C810 C 0.51839 0.32831 0.9346 0.0
C811 C 0.55525 0.3548 0.92893 0.0
C812 C 0.58202 0.34278 0.92737 0.0
C813 C 0.57176 0.30486 0.93092 0.0
C814 C 0.60694 0.46364 0.92642 0.0
C815 C 0.57851 0.46946 0.91951 0.0
C816 C 0.60017 0.42641 0.92897 0.0
C817 C 0.56498 0.39451 0.92455 0.0
C818 C 0.53786 0.40076 0.91657 0.0
C819 C 0.54443 0.43768 0.91418 0.0
H820 H 0.60376 0.18086 0.92869 0.0
H821 H 0.64491 0.12097 0.89922 0.0
H822 H 0.66901 0.23512 0.93086 0.0
H823 H 0.70963 0.1751 0.9012 0.0
H824 H 0.81769 0.29103 0.89805 0.0
H825 H 0.75022 0.24581 0.89326 0.0
H826 H 0.72868 0.24012 0.94555 0.0
H827 H 0.79637 0.28554 0.95037 0.0
C828 C 0.62656 0.17972 0.92234 0.0
C829 C 0.61938 0.14674 0.91382 0.0
C830 C 0.66385 0.21055 0.92371 0.0
C831 C 0.6943 0.20914 0.91627 0.0
C832 C 0.68668 0.17704 0.90697 0.0
C833 C 0.64966 0.14604 0.90587 0.0
C834 C 0.79846 0.28052 0.9085 0.0
C835 C 0.81225 0.29168 0.92459 0.0
C836 C 0.75993 0.25457 0.90576 0.0
C837 C 0.73429 0.23959 0.91903 0.0
C838 C 0.74781 0.25158 0.93509 0.0
C839 C 0.78652 0.27718 0.93786 0.0
H840 H 0.29069 0.17533 0.42892 0.0
H841 H 0.17416 0.08607 0.42113 0.0
H842 H 0.26958 0.22134 0.43255 0.0
H843 H 0.15287 0.13195 0.42531 0.0
H844 H 0.13759 0.23657 0.4154 0.0
H845 H 0.15571 0.18806 0.41197 0.0
H846 H 0.23442 0.23601 0.45256 0.0
H847 H 0.21692 0.28471 0.45583 0.0
C848 C 0.26057 0.16554 0.42793 0.0
C849 C 0.23413 0.12702 0.42472 0.0
C850 C 0.2484 0.19182 0.43021 0.0
C851 C 0.2095 0.18027 0.42932 0.0
C852 C 0.18305 0.14181 0.42598 0.0
C853 C 0.19522 0.11546 0.42374 0.0
C854 C 0.15856 0.2366 0.42366 0.0
C855 C 0.17597 0.26473 0.43582 0.0
C856 C 0.16885 0.2087 0.42173 0.0
C857 C 0.1968 0.2084 0.43189 0.0
C858 C 0.21334 0.23587 0.44433 0.0
C859 C 0.20306 0.26366 0.44627 0.0
H860 H 0.93935 0.13508 0.46017 0.0
H861 H 0.96003 0.10466 0.41207 0.0
H862 H 0.89695 0.06774 0.46677 0.0
H863 H 0.91684 0.03719 0.41849 0.0
H864 H 0.84657 0.91478 0.43648 0.0
H865 H 0.90143 0.98009 0.43475 0.0
H866 H 0.83453 0.02243 0.45793 0.0
H867 H 0.78092 0.95803 0.45994 0.0
C868 C 0.93479 0.11394 0.45101 0.0
C869 C 0.95254 0.12519 0.43551 0.0
C870 C 0.91055 0.07532 0.45479 0.0
C871 C 0.90306 0.04696 0.4431 0.0
C872 C 0.92222 0.05815 0.42786 0.0
C873 C 0.94679 0.09684 0.42413 0.0
C874 C 0.84415 0.93805 0.44159 0.0
C875 C 0.80942 0.93136 0.44825 0.0
C876 C 0.87535 0.97547 0.44044 0.0
C877 C 0.87238 1.00664 0.4461 0.0
C878 C 0.83821 0.99931 0.45361 0.0
C879 C 0.80724 0.96226 0.45466 0.0
H880 H 0.14193 0.93778 0.42086 0.0
H881 H 0.10783 0.83805 0.45163 0.0
H882 H 0.07486 0.9197 0.41773 0.0
H883 H 0.04132 0.82011 0.44835 0.0
H884 H 0.92832 0.77575 0.42089 0.0
H885 H 0.99598 0.79796 0.42362 0.0
H886 H 1.01775 0.91045 0.43597 0.0
H887 H 0.94965 0.88804 0.43388 0.0
C888 C 0.12023 0.91219 0.42702 0.0
C889 C 0.13027 0.88934 0.43647 0.0
C890 C 0.0819 0.90194 0.42525 0.0
C891 C 0.0529 0.86832 0.43266 0.0
C892 C 0.06303 0.84592 0.44232 0.0
C893 C 0.10122 0.85641 0.44429 0.0
C894 C 0.94731 0.80515 0.42434 0.0
C895 C 0.9332 0.82988 0.42736 0.0
C896 C 0.98615 0.81789 0.42583 0.0
C897 C 1.01205 0.85583 0.43015 0.0
C898 C 0.99841 0.88109 0.43255 0.0
C899 C 0.95937 0.86821 0.43127 0.0
H900 H 0.43407 0.84477 0.28187 0.0
H901 H 0.51623 0.95784 0.26426 0.0
H902 H 0.48086 0.82454 0.27809 0.0
H903 H 0.56326 0.93813 0.26118 0.0
H904 H 0.62418 0.88148 0.23939 0.0
H905 H 0.57519 0.89823 0.24334 0.0
H906 H 0.54077 0.83288 0.28873 0.0
H907 H 0.58949 0.81537 0.28461 0.0
C908 C 0.46213 0.86537 0.27727 0.0
C909 C 0.47128 0.90296 0.27335 0.0
C910 C 0.48908 0.85386 0.27526 0.0
C911 C 0.52579 0.87961 0.26922 0.0
C912 C 0.5351 0.91734 0.2656 0.0
C913 C 0.50823 0.92883 0.26761 0.0
C914 C 0.60607 0.87042 0.25018 0.0
C915 C 0.61096 0.84717 0.26172 0.0
C916 C 0.5781 0.8803 0.25251 0.0
C917 C 0.55427 0.86732 0.26646 0.0
C918 C 0.55845 0.84322 0.2778 0.0
C919 C 0.58649 0.83326 0.27546 0.0
H920 H 0.29776 0.81717 0.26426 0.0
H921 H 0.19091 0.77021 0.23821 0.0
H922 H 0.28811 0.75274 0.2677 0.0
H923 H 0.1811 0.70632 0.24178 0.0
H924 H 0.1837 0.59694 0.24083 0.0
H925 H 0.20399 0.66329 0.23421 0.0
H926 H 0.24338 0.6953 0.28415 0.0
H927 H 0.22407 0.62901 0.29067 0.0
C928 C 0.2727 0.79328 0.25896 0.0
C929 C 0.24511 0.79882 0.25098 0.0
C930 C 0.26693 0.75633 0.26109 0.0
C931 C 0.23371 0.72431 0.2551 0.0
C932 C 0.20715 0.73025 0.24643 0.0
C933 C 0.21271 0.76695 0.24445 0.0
C934 C 0.19723 0.61819 0.25035 0.0
C935 C 0.20203 0.60754 0.26632 0.0
C936 C 0.20861 0.65621 0.24658 0.0
C937 C 0.22522 0.68464 0.25866 0.0
C938 C 0.23102 0.67422 0.27451 0.0
C939 C 0.21947 0.63611 0.2783 0.0
H940 H 0.48694 0.55726 0.27575 0.0
H941 H 0.46395 0.64435 0.25788 0.0
H942 H 0.42065 0.50904 0.27144 0.0
H943 H 0.3982 0.59571 0.25251 0.0
H944 H 0.27337 0.50412 0.26227 0.0
H945 H 0.3397 0.55383 0.26573 0.0
H946 H 0.37568 0.47486 0.25074 0.0
H947 H 0.30938 0.42486 0.24791 0.0
C948 C 0.46782 0.56622 0.2709 0.0
C949 C 0.48103 0.60489 0.26723 0.0
C950 C 0.42979 0.53837 0.26816 0.0
C951 C 0.40388 0.54828 0.26151 0.0
C952 C 0.4171 0.58694 0.2578 0.0
C953 C 0.45508 0.61486 0.26067 0.0
C954 C 0.29546 0.49746 0.25958 0.0
C955 C 0.28602 0.46042 0.2549 0.0
C956 C 0.3336 0.52606 0.26151 0.0
C957 C 0.36326 0.51842 0.25866 0.0
C958 C 0.3537 0.48165 0.25344 0.0
C959 C 0.31561 0.45299 0.25167 0.0
H960 H 0.88516 0.61868 0.79271 0.0
H961 H 0.82969 0.59217 0.74521 0.0
H962 H 0.90038 0.56823 0.78915 0.0
H963 H 0.84486 0.54154 0.74173 0.0
H964 H 0.92214 0.48852 0.73436 0.0
H965 H 0.90364 0.5369 0.7377 0.0
H966 H 0.86727 0.49734 0.78755 0.0
H967 H 0.88631 0.44955 0.78432 0.0
C968 C 0.87602 0.60197 0.78155 0.0
C969 C 0.85623 0.60949 0.76924 0.0
C970 C 0.8846 0.57294 0.77955 0.0
C971 C 0.87386 0.55097 0.76515 0.0
C972 C 0.85382 0.55826 0.75289 0.0
C973 C 0.84492 0.58709 0.75495 0.0
C974 C 0.91024 0.49025 0.74602 0.0
C975 C 0.90564 0.46521 0.75906 0.0
C976 C 0.89935 0.51768 0.74789 0.0
C977 C 0.88403 0.5209 0.76289 0.0
C978 C 0.87926 0.49574 0.77589 0.0
C979 C 0.88983 0.46814 0.77398 0.0
H980 H 0.6648 0.45523 0.76676 0.0
H981 H 0.57287 0.4793 0.7634 0.0
H982 H 0.61883 0.38831 0.77306 0.0
H983 H 0.52713 0.41255 0.76887 0.0
H984 H 0.45375 0.3016 0.7935 0.0
H985 H 0.50566 0.36725 0.79095 0.0
H986 H 0.56804 0.3301 0.76074 0.0
H987 H 0.51615 0.26385 0.76379 0.0
C988 C 0.63483 0.44631 0.76737 0.0
C989 C 0.62261 0.47279 0.76457 0.0
C990 C 0.60846 0.40785 0.77082 0.0
C991 C 0.56925 0.39498 0.77163 0.0
C992 C 0.55712 0.42146 0.76869 0.0
C993 C 0.58339 0.45977 0.76527 0.0
C994 C 0.47887 0.30733 0.78657 0.0
C995 C 0.48073 0.2776 0.77872 0.0
C996 C 0.50852 0.34505 0.78497 0.0
C997 C 0.54066 0.35419 0.77527 0.0
C998 C 0.54371 0.32414 0.7683 0.0
C999 C 0.51403 0.28613 0.77007 0.0
H1000 H 0.6207 0.2376 0.77372 0.0
H1001 H 0.61443 0.1514 0.74084 0.0
H1002 H 0.68803 0.25928 0.77893 0.0
H1003 H 0.68102 0.17246 0.74643 0.0
H1004 H 0.77115 0.17674 0.78096 0.0
H1005 H 0.70847 0.16667 0.77492 0.0
H1006 H 0.75713 0.28636 0.76325 0.0
H1007 H 0.82121 0.29683 0.7691 0.0
C1008 C 0.63377 0.22376 0.76735 0.0
C1009 C 0.6119 0.19229 0.75705 0.0
C1010 C 0.67229 0.23619 0.77038 0.0
C1011 C 0.68949 0.2172 0.76325 0.0
C1012 C 0.66825 0.18722 0.75228 0.0
C1013 C 0.63004 0.17504 0.74916 0.0
C1014 C 0.76889 0.20122 0.7772 0.0
C1015 C 0.80153 0.23759 0.77528 0.0
C1016 C 0.7328 0.19529 0.77369 0.0
C1017 C 0.72805 0.22554 0.7683 0.0
C1018 C 0.76016 0.2625 0.76729 0.0
C1019 C 0.79675 0.26848 0.77068 0.0
H1020 H 0.19154 0.29236 0.60815 0.0
H1021 H 0.09772 0.17811 0.59959 0.0
H1022 H 0.2363 0.26979 0.60452 0.0
H1023 H 0.14284 0.15545 0.59668 0.0
H1024 H 0.24281 0.13129 0.61022 0.0
H1025 H 0.19448 0.14978 0.61407 0.0
H1026 H 0.25416 0.243 0.57953 0.0
H1027 H 0.30202 0.22452 0.5755 0.0
C1028 C 0.18034 0.26245 0.60549 0.0
C1029 C 0.14084 0.23725 0.60398 0.0
C1030 C 0.20607 0.24952 0.60349 0.0
C1031 C 0.19305 0.21094 0.60018 0.0
C1032 C 0.15363 0.18533 0.59929 0.0
C1033 C 0.12781 0.19836 0.60106 0.0
C1034 C 0.24539 0.15549 0.60333 0.0
C1035 C 0.27631 0.17643 0.59256 0.0
C1036 C 0.21769 0.16599 0.60552 0.0
C1037 C 0.2208 0.19802 0.59721 0.0
C1038 C 0.2513 0.21845 0.58624 0.0
C1039 C 0.27856 0.20765 0.58385 0.0
H1040 H 0.9183 0.95368 0.59935 0.0
H1041 H 0.80223 0.93025 0.601 0.0
H1042 H 0.94055 0.02111 0.59353 0.0
H1043 H 0.82443 0.9973 0.59589 0.0
H1044 H 0.86422 0.10772 0.57073 0.0
H1045 H 0.85062 0.04232 0.57349 0.0
H1046 H 0.94703 0.07973 0.60605 0.0
H1047 H 0.9613 0.14603 0.60285 0.0
C1048 C 0.89753 0.96284 0.59847 0.0
C1049 C 0.8584 0.93639 0.60063 0.0
C1050 C 0.91035 1.00157 0.59529 0.0
C1051 C 0.88431 1.01466 0.59406 0.0
C1052 C 0.84531 0.98822 0.59642 0.0
C1053 C 0.83256 0.94971 0.59961 0.0
C1054 C 0.88302 0.10213 0.57822 0.0
C1055 C 0.91361 0.1319 0.58669 0.0
C1056 C 0.87501 0.06456 0.57993 0.0
C1057 C 0.89705 0.05553 0.59036 0.0
C1058 C 0.92939 0.08566 0.59795 0.0
C1059 C 0.93769 0.12363 0.59609 0.0
H1060 H 0.13474 0.9207 0.63141 0.0
H1061 H 0.14691 0.94768 0.57936 0.0
H1062 H 0.06751 0.87406 0.6273 0.0
H1063 H 0.07979 0.90083 0.57526 0.0
H1064 H 0.97129 0.78207 0.5724 0.0
H1065 H 0.03759 0.83147 0.57617 0.0
H1066 H 1.00672 0.86953 0.61992 0.0
H1067 H 0.94034 0.81973 0.6163 0.0
C1068 C 0.12303 0.91697 0.61912 0.0
C1069 C 0.14635 0.9379 0.60571 0.0
C1070 C 0.08446 0.89022 0.61676 0.0
C1071 C 0.06826 0.88367 0.60095 0.0
C1072 C 0.09149 0.90476 0.58757 0.0
C1073 C 0.13002 0.93157 0.58992 0.0
C1074 C 0.97852 0.80108 0.58278 0.0
C1075 C 0.95043 0.79681 0.59407 0.0
C1076 C 1.01657 0.82955 0.5849 0.0
C1077 C 0.02751 0.8544 0.59838 0.0
C1078 C 0.99933 0.85053 0.60953 0.0
C1079 C 0.96122 0.82212 0.60739 0.0
H1080 H 0.47695 1.01044 0.04633 0.0
H1081 H 0.59782 0.07428 0.05628 0.0
H1082 H 0.4897 1.00443 0.01773 0.0
H1083 H 0.61068 0.0687 0.02708 0.0
H1084 H 0.59327 0.09793 0.97032 0.0
H1085 H 0.59648 0.09585 1.00029 0.0
H1086 H 0.519 0.97401 0.9997 0.0
H1087 H 0.51595 0.97605 0.96958 0.0
C1088 C 0.50638 0.02336 0.04239 0.0
C1089 C 0.53645 0.0434 0.05353 0.0
C1090 C 0.51362 0.01933 0.02602 0.0
C1091 C 0.55114 0.03565 0.02023 0.0
C1092 C 0.58146 0.05561 0.0313 0.0
C1093 C 0.57414 0.05897 0.04793 0.0
C1094 C 0.57793 0.07049 0.97656 0.0
C1095 C 0.55392 0.0372 0.96769 0.0
C1096 C 0.57997 0.06931 0.99371 0.0
C1097 C 0.55762 0.03489 1.00231 0.0
C1098 C 0.53632 1.00099 0.99333 0.0
C1099 C 0.53471 1.00209 0.97612 0.0
H1100 H 0.98398 0.49383 0.97197 0.0
H1101 H 0.10153 0.58446 0.9688 0.0
H1102 H 0.98496 0.5014 1.00151 0.0
H1103 H 0.10217 0.59302 0.99864 0.0
H1104 H 0.10356 0.54424 0.05052 0.0
H1105 H 0.10294 0.5553 0.02125 0.0
H1106 H 0.98899 0.53719 0.02538 0.0
H1107 H 0.98915 0.52478 0.05494 0.0
C1108 C 1.00993 0.51597 0.97755 0.0
C1109 C 0.04298 0.53802 0.96804 0.0
C1110 C 1.01032 0.52062 0.99455 0.0
C1111 C 0.04374 0.54756 1.00255 0.0
C1112 C 0.0761 0.57151 0.9929 0.0
C1113 C 0.07573 0.5668 0.97579 0.0
C1114 C 0.07838 0.54293 0.0453 0.0
C1115 C 0.04606 0.53286 0.05507 0.0
C1116 C 0.07827 0.54981 0.02845 0.0
C1117 C 0.04586 0.54696 0.02087 0.0
C1118 C 1.01425 0.53907 0.03079 0.0
C1119 C 1.01435 0.53209 0.04774 0.0
H1120 H 0.50208 0.55079 0.97221 0.0
H1121 H 0.59813 0.53335 0.97711 0.0
H1122 H 0.49038 0.53999 1.00188 0.0
H1123 H 0.58723 0.52378 1.00648 0.0
H1124 H 0.55686 0.49576 0.05912 0.0
H1125 H 0.54896 0.48645 0.0293 0.0
H1126 H 0.52256 0.57699 0.02561 0.0
H1127 H 0.52921 0.58537 0.05514 0.0
C1128 C 0.52041 0.54426 0.97955 0.0
C1129 C 0.55138 0.54356 0.9723 0.0
C1130 C 0.51383 0.53822 0.99656 0.0
C1131 C 0.53804 0.53128 1.00665 0.0
C1132 C 0.56768 0.52856 0.99917 0.0
C1133 C 0.57422 0.53457 0.98226 0.0
C1134 C 0.54853 0.51302 0.05196 0.0
C1135 C 0.54434 0.54172 0.05948 0.0
C1136 C 0.54423 0.50789 0.03485 0.0
C1137 C 0.53558 0.53131 0.02498 0.0
C1138 C 0.5289 0.55818 0.03274 0.0
C1139 C 0.53317 0.56328 0.04974 0.0
H1140 H 0.13223 0.3472 0.38006 0.0
H1141 H 0.24878 0.3799 0.39135 0.0
H1142 H 0.14104 0.33383 0.35202 0.0
H1143 H 0.25771 0.36671 0.36268 0.0
H1144 H 0.25484 0.39962 0.30502 0.0
H1145 H 0.25723 0.39776 0.335 0.0
H1146 H 0.153 0.28846 0.33535 0.0
H1147 H 0.15072 0.29045 0.3052 0.0
C1148 C 0.15992 0.35172 0.37658 0.0
C1149 C 0.18998 0.36507 0.38799 0.0
C1150 C 0.16471 0.34335 0.36049 0.0
C1151 C 0.19981 0.34845 0.35522 0.0
C1152 C 0.23019 0.36213 0.3665 0.0
C1153 C 0.22518 0.36997 0.38283 0.0
C1154 C 0.23341 0.37437 0.3115 0.0
C1155 C 0.20241 0.34531 0.3029 0.0
C1156 C 0.23481 0.37331 0.32866 0.0
C1157 C 0.20492 0.34336 0.33751 0.0
C1158 C 0.17619 0.31213 0.32879 0.0
C1159 C 0.17504 0.31302 0.31155 0.0
H1160 H 0.77783 0.89136 0.39323 0.0
H1161 H 0.6566 0.84615 0.38884 0.0
H1162 H 0.78538 0.90358 0.36373 0.0
H1163 H 0.66426 0.85815 0.35898 0.0
H1164 H 0.69713 0.89877 0.30493 0.0
H1165 H 0.69545 0.90679 0.33488 0.0
H1166 H 0.76351 0.85357 0.34214 0.0
H1167 H 0.7648 0.84538 0.31257 0.0
C1168 C 0.75279 0.88452 0.38597 0.0
C1169 C 0.71647 0.86704 0.39329 0.0
C1170 C 0.75719 0.8916 0.36907 0.0
C1171 C 0.72537 0.88123 0.35901 0.0
C1172 C 0.68933 0.86654 0.36646 0.0
C1173 C 0.6849 0.85956 0.38352 0.0
C1174 C 0.71255 0.88983 0.31297 0.0
C1175 C 0.73126 0.87163 0.3065 0.0
C1176 C 0.71123 0.89402 0.33007 0.0
C1177 C 0.72933 0.88082 0.34084 0.0
C1178 C 0.74965 0.86447 0.33418 0.0
C1179 C 0.75037 0.8597 0.31724 0.0
H1180 H 0.16994 0.88917 0.30328 0.0
H1181 H 0.24317 0.84074 0.3056 0.0
H1182 H 0.15921 0.87929 0.33307 0.0
H1183 H 0.23263 0.83107 0.33517 0.0
H1184 H 0.20193 0.811 0.38926 0.0
H1185 H 0.18814 0.80077 0.35953 0.0
H1186 H 0.20783 0.91553 0.35464 0.0
H1187 H 0.22179 0.92559 0.38384 0.0
C1188 C 0.18293 0.87556 0.31006 0.0
C1189 C 0.20797 0.86644 0.30218 0.0
C1190 C 0.17688 0.86997 0.3271 0.0
C1191 C 0.19538 0.85472 0.33649 0.0
C1192 C 0.21776 0.84263 0.32832 0.0
C1193 C 0.22413 0.84859 0.31138 0.0
C1194 C 0.20255 0.83358 0.38179 0.0
C1195 C 0.21347 0.86923 0.3887 0.0
C1196 C 0.19473 0.82783 0.36484 0.0
C1197 C 0.19683 0.85735 0.35475 0.0
C1198 C 0.20544 0.89203 0.36204 0.0
C1199 C 0.2139 0.89795 0.37875 0.0
H1200 H 0.91038 0.69724 0.72732 0.0
H1201 H 0.84615 0.75306 0.71632 0.0
H1202 H 0.91133 0.68423 0.69781 0.0
H1203 H 0.84711 0.74007 0.68718 0.0
H1204 H 0.79589 0.65343 0.64729 0.0
H1205 H 0.81006 0.6663 0.67646 0.0
H1206 H 0.93047 0.72255 0.66595 0.0
H1207 H 0.91627 0.70964 0.63641 0.0
C1208 C 0.89776 0.70795 0.71857 0.0
C1209 C 0.87782 0.7258 0.72408 0.0
C1210 C 0.89813 0.7003 0.70175 0.0
C1211 C 0.87859 0.71048 0.69038 0.0
C1212 C 0.86182 0.73139 0.69578 0.0
C1213 C 0.86143 0.73896 0.71244 0.0
C1214 C 0.82538 0.66756 0.65121 0.0
C1215 C 0.85498 0.68088 0.63959 0.0
C1216 C 0.83347 0.67507 0.66787 0.0
C1217 C 0.87132 0.69608 0.67331 0.0
C1218 C 0.90107 0.70639 0.66198 0.0
C1219 C 0.89292 0.6988 0.64514 0.0
H1220 H 0.35611 0.22952 0.63558 0.0
H1221 H 0.43362 0.18846 0.64555 0.0
H1222 H 0.35414 0.24126 0.66518 0.0
H1223 H 0.43234 0.20075 0.67478 0.0
H1224 H 0.4449 0.24581 0.72435 0.0
H1225 H 0.45013 0.25548 0.69464 0.0
H1226 H 0.32754 0.19303 0.69061 0.0
H1227 H 0.32218 0.18336 0.72064 0.0
C1228 C 0.37363 0.22421 0.64404 0.0
C1229 C 0.39525 0.20836 0.63837 0.0
C1230 C 0.37219 0.23054 0.66093 0.0
C1231 C 0.39312 0.22198 0.67225 0.0
C1232 C 0.41625 0.20806 0.66634 0.0
C1233 C 0.417 0.20099 0.64962 0.0
C1234 C 0.41897 0.2349 0.71719 0.0
C1235 C 0.38311 0.21319 0.72475 0.0
C1236 C 0.42203 0.24049 0.70018 0.0
C1237 C 0.3893 0.22446 0.69031 0.0
C1238 C 0.35324 0.20579 0.69796 0.0
C1239 C 0.35015 0.20022 0.71513 0.0
H1240 H 0.93596 0.20035 0.64535 0.0
H1241 H 0.83178 0.20353 0.63998 0.0
H1242 H 0.92524 0.19038 0.67473 0.0
H1243 H 0.82035 0.19223 0.66961 0.0
H1244 H 0.85508 0.24143 0.72243 0.0
H1245 H 0.84929 0.23152 0.693 0.0
H1246 H 0.88957 0.15156 0.69782 0.0
H1247 H 0.89655 0.16257 0.72761 0.0
C1248 C 0.91035 0.19831 0.65039 0.0
C1249 C 0.88508 0.20351 0.64029 0.0
C1250 C 0.90396 0.19206 0.6673 0.0
C1251 C 0.87205 0.1907 0.67463 0.0
C1252 C 0.84556 0.1937 0.66441 0.0
C1253 C 0.85202 0.20006 0.64741 0.0
C1254 C 0.86227 0.22129 0.7173 0.0
C1255 C 0.87701 0.20333 0.72733 0.0
C1256 C 0.85849 0.21525 0.70036 0.0
C1257 C 0.86928 0.191 0.69294 0.0
C1258 C 0.88157 0.17093 0.70312 0.0
C1259 C 0.88533 0.17698 0.72019 0.0
H1260 H 0.32633 0.99925 0.21328 0.0
H1261 H 0.28484 0.88037 0.20338 0.0
H1262 H 0.37387 0.01785 0.19159 0.0
H1263 H 0.3337 0.89861 0.18225 0.0
H1264 H 0.40064 0.94138 0.13498 0.0
H1265 H 0.35361 0.92333 0.15631 0.0
H1266 H 0.43173 0.02279 0.18424 0.0
H1267 H 0.47882 0.04237 0.162 0.0
C1268 C 0.32726 0.97705 0.20633 0.0
C1269 C 0.30153 0.93833 0.20988 0.0
C1270 C 0.35499 0.98772 0.19405 0.0
C1271 C 0.35827 0.95992 0.18514 0.0
C1272 C 0.33193 0.92105 0.18857 0.0
C1273 C 0.3037 0.91041 0.20067 0.0
C1274 C 0.40826 0.95955 0.14568 0.0
C1275 C 0.44384 0.99354 0.14669 0.0
C1276 C 0.38102 0.94886 0.15809 0.0
C1277 C 0.38845 0.97135 0.17217 0.0
C1278 C 0.4245 1.00494 0.17347 0.0
C1279 C 0.45181 1.01605 0.16082 0.0
H1280 H 0.09916 0.52235 0.15622 0.0
H1281 H 0.03312 0.40305 0.14366 0.0
H1282 H 0.1319 0.50697 0.17759 0.0
H1283 H 0.06464 0.38737 0.16527 0.0
H1284 H 0.14812 0.37086 0.19582 0.0
H1285 H 0.12332 0.39138 0.17274 0.0
H1286 H 0.12336 0.47779 0.20353 0.0
H1287 H 0.14927 0.45861 0.22597 0.0
C1288 C 0.09099 0.49276 0.15831 0.0
C1289 C 0.06339 0.46391 0.14835 0.0
C1290 C 0.10989 0.48386 0.17049 0.0
C1291 C 0.10132 0.44586 0.1731 0.0
C1292 C 0.07283 0.41701 0.1634 0.0
C1293 C 0.05428 0.42595 0.15116 0.0
C1294 C 0.14362 0.39477 0.19745 0.0
C1295 C 0.15029 0.41274 0.21278 0.0
C1296 C 0.12893 0.40627 0.18433 0.0
C1297 C 0.12073 0.43598 0.18629 0.0
C1298 C 0.12943 0.45508 0.2014 0.0
C1299 C 0.14408 0.44374 0.21439 0.0
H1300 H 0.71913 0.80552 0.19979 0.0
H1301 H 0.61212 0.73296 0.22457 0.0
H1302 H 0.69973 0.75846 0.17776 0.0
H1303 H 0.59413 0.68545 0.20363 0.0
H1304 H 0.55535 0.6151 0.15725 0.0
H1305 H 0.57307 0.66483 0.17772 0.0
H1306 H 0.69184 0.69945 0.17112 0.0
H1307 H 0.67383 0.65123 0.14994 0.0
C1308 C 0.69148 0.77976 0.20052 0.0
C1309 C 0.66743 0.77318 0.21407 0.0
C1310 C 0.68046 0.75235 0.188 0.0
C1311 C 0.64532 0.7175 0.18884 0.0
C1312 C 0.62106 0.71178 0.2022 0.0
C1313 C 0.63173 0.73922 0.21445 0.0
C1314 C 0.58513 0.6329 0.16044 0.0
C1315 C 0.61313 0.62895 0.15214 0.0
C1316 C 0.5955 0.66167 0.17218 0.0
C1317 C 0.63415 0.68677 0.1762 0.0
C1318 C 0.66193 0.68165 0.1682 0.0
C1319 C 0.65158 0.65347 0.15623 0.0
H1320 H 0.98335 0.46935 0.86876 0.0
H1321 H 0.06156 0.42936 0.87912 0.0
H1322 H 0.94903 0.41653 0.84944 0.0
H1323 H 0.02817 0.37747 0.85979 0.0
H1324 H 0.94344 0.26648 0.83733 0.0
H1325 H 0.96931 0.31789 0.85767 0.0
H1326 H 0.95304 0.39056 0.82336 0.0
H1327 H 0.92635 0.33885 0.80344 0.0
C1328 C 0.99383 0.44995 0.86656 0.0
C1329 C 0.02527 0.45363 0.87539 0.0
C1330 C 0.97399 0.41944 0.85562 0.0
C1331 C 0.98526 0.39208 0.8533 0.0
C1332 C 1.01783 0.3971 0.8616 0.0
C1333 C 0.03741 0.4273 0.8725 0.0
C1334 C 0.94427 0.29302 0.83445 0.0
C1335 C 0.93277 0.29872 0.81892 0.0
C1336 C 0.95965 0.32276 0.84594 0.0
C1337 C 0.96399 0.3588 0.84207 0.0
C1338 C 0.95013 0.36338 0.82686 0.0
C1339 C 0.93486 0.33373 0.81542 0.0
H1340 H 0.61965 0.55069 0.87301 0.0
H1341 H 0.65678 0.66963 0.88022 0.0
H1342 H 0.6692 0.56845 0.85221 0.0
H1343 H 0.70501 0.68763 0.85889 0.0
H1344 H 0.81227 0.71378 0.83125 0.0
H1345 H 0.76416 0.69392 0.85303 0.0
H1346 H 0.6901 0.59128 0.82598 0.0
H1347 H 0.73829 0.60979 0.80508 0.0
C1348 C 0.63761 0.58056 0.86973 0.0
C1349 C 0.63409 0.60872 0.87811 0.0
C1350 C 0.66628 0.59093 0.85784 0.0
C1351 C 0.69172 0.6297 0.85385 0.0
C1352 C 0.6869 0.65762 0.86184 0.0
C1353 C 0.65873 0.64727 0.87389 0.0
C1354 C 0.78599 0.68668 0.83017 0.0
C1355 C 0.7794 0.66356 0.81636 0.0
C1356 C 0.75806 0.67542 0.84254 0.0
C1357 C 0.72274 0.64098 0.8413 0.0
C1358 C 0.71685 0.61762 0.82766 0.0
C1359 C 0.74473 0.62855 0.8155 0.0
H1360 H 0.42165 0.18689 0.82873 0.0
H1361 H 0.37919 0.07666 0.80615 0.0
H1362 H 0.45212 0.16855 0.85026 0.0
H1363 H 0.40946 0.05873 0.82737 0.0
H1364 H 0.49765 0.05023 0.85934 0.0
H1365 H 0.47416 0.07477 0.83714 0.0
H1366 H 0.43252 0.12218 0.8734 0.0
H1367 H 0.45558 0.09799 0.89523 0.0
C1368 C 0.41841 0.15871 0.82845 0.0
C1369 C 0.39788 0.13331 0.81572 0.0
C1370 C 0.43606 0.14826 0.8407 0.0
C1371 C 0.43372 0.11234 0.84037 0.0
C1372 C 0.41265 0.08689 0.82779 0.0
C1373 C 0.39489 0.09714 0.81571 0.0
C1374 C 0.48379 0.06618 0.86248 0.0
C1375 C 0.47798 0.07161 0.87903 0.0
C1376 C 0.4702 0.0801 0.84983 0.0
C1377 C 0.45129 0.10033 0.85353 0.0
C1378 C 0.4471 0.10702 0.87008 0.0
C1379 C 0.46004 0.09271 0.88261 0.0
H1380 H 0.95066 0.21082 0.54145 0.0
H1381 H 0.9837 0.32919 0.54712 0.0
H1382 H 0.99934 0.22876 0.52028 0.0
H1383 H 0.03093 0.34728 0.52531 0.0
H1384 H 0.13657 0.37496 0.49582 0.0
H1385 H 0.09055 0.3557 0.51848 0.0
H1386 H 1.01683 0.24937 0.49371 0.0
H1387 H 0.06303 0.26727 0.47205 0.0
C1388 C 0.96753 0.24056 0.53776 0.0
C1389 C 0.96311 0.26854 0.54578 0.0
C1390 C 0.99567 0.25103 0.52564 0.0
C1391 C 1.01957 0.2897 0.52102 0.0
C1392 C 1.01397 0.31741 0.52873 0.0
C1393 C 0.98638 0.30698 0.54104 0.0
C1394 C 0.11086 0.34722 0.49546 0.0
C1395 C 0.10372 0.32284 0.48207 0.0
C1396 C 0.08413 0.33627 0.50833 0.0
C1397 C 0.04951 0.30091 0.50799 0.0
C1398 C 0.04314 0.27643 0.49473 0.0
C1399 C 0.06985 0.28702 0.48212 0.0
H1400 H 0.76549 0.85202 0.49138 0.0
H1401 H 0.68353 0.73267 0.48458 0.0
H1402 H 0.79853 0.83508 0.51189 0.0
H1403 H 0.71507 0.71549 0.50568 0.0
H1404 H 0.79854 0.69142 0.53273 0.0
H1405 H 0.76874 0.7102 0.51119 0.0
H1406 H 0.79765 0.81281 0.53813 0.0
H1407 H 0.82886 0.79539 0.55878 0.0
C1408 C 0.75383 0.82221 0.49469 0.0
C1409 C 0.72174 0.79371 0.48651 0.0
C1410 C 0.77285 0.81234 0.50642 0.0
C1411 C 0.75983 0.77371 0.51047 0.0
C1412 C 0.7267 0.74541 0.50268 0.0
C1413 C 0.70816 0.75528 0.49077 0.0
C1414 C 0.79907 0.71828 0.53383 0.0
C1415 C 0.81619 0.74175 0.54751 0.0
C1416 C 0.78153 0.72891 0.5216 0.0
C1417 C 0.78033 0.76304 0.52288 0.0
C1418 C 0.79831 0.78672 0.53642 0.0
C1419 C 0.81616 0.77643 0.54842 0.0
H1420 H 0.26989 1.01447 0.46813 0.0
H1421 H 0.27175 0.92576 0.49736 0.0
H1422 H 0.2958 0.05812 0.49099 0.0
H1423 H 0.29787 0.97023 0.52059 0.0
H1424 H 0.29385 0.04734 0.56222 0.0
H1425 H 0.27453 1.00314 0.53943 0.0
H1426 H 0.35527 0.09387 0.50769 0.0
H1427 H 0.37505 0.13872 0.53075 0.0
C1428 C 0.27571 1.00407 0.47947 0.0
C1429 C 0.2683 0.96622 0.48089 0.0
C1430 C 0.29107 0.02949 0.49256 0.0
C1431 C 0.29918 0.01788 0.50759 0.0
C1432 C 0.29182 0.98003 0.50914 0.0
C1433 C 0.27684 0.95453 0.49586 0.0
C1434 C 0.30765 0.05815 0.5504 0.0
C1435 C 0.33581 0.09691 0.5483 0.0
C1436 C 0.29676 0.0325 0.53736 0.0
C1437 C 0.31335 0.04483 0.52174 0.0
C1438 C 0.34178 0.08351 0.51959 0.0
C1439 C 0.35313 0.10922 0.53277 0.0
H1440 H 0.4609 0.29171 0.10066 0.0
H1441 H 0.56591 0.32724 0.12693 0.0
H1442 H 0.45419 0.22903 0.09608 0.0
H1443 H 0.55874 0.26455 0.12272 0.0
H1444 H 0.55924 0.16718 0.09647 0.0
H1445 H 0.56252 0.22807 0.09991 0.0
H1446 H 0.44217 0.16977 0.11095 0.0
H1447 H 0.43864 0.10806 0.10733 0.0
C1448 C 0.4826 0.2862 0.10543 0.0
C1449 C 0.51405 0.31464 0.11412 0.0
C1450 C 0.47851 0.25012 0.10295 0.0
C1451 C 0.50598 0.24173 0.10897 0.0
C1452 C 0.53727 0.27013 0.11773 0.0
C1453 C 0.54121 0.30602 0.12029 0.0
C1454 C 0.53326 0.16706 0.09955 0.0
C1455 C 0.49864 0.13248 0.1017 0.0
C1456 C 0.53528 0.20217 0.10163 0.0
C1457 C 0.50276 0.20393 0.10592 0.0
C1458 C 0.46777 0.16945 0.10759 0.0
C1459 C 0.46574 0.13408 0.10555 0.0
H1460 H 0.79276 0.20759 0.11959 0.0
H1461 H 0.74208 0.24791 0.08372 0.0
H1462 H 0.8552 0.26288 0.11375 0.0
H1463 H 0.80455 0.30355 0.07813 0.0
H1464 H 0.90916 0.41999 0.09336 0.0
H1465 H 0.84827 0.36066 0.09373 0.0
H1466 H 0.90668 0.29653 0.09273 0.0
H1467 H 0.96823 0.35657 0.09241 0.0
C1468 C 0.79489 0.22784 0.11026 0.0
C1469 C 0.76205 0.22318 0.10223 0.0
C1470 C 0.83084 0.25961 0.1069 0.0
C1471 C 0.83497 0.28778 0.0955 0.0
C1472 C 0.80236 0.28267 0.08715 0.0
C1473 C 0.76645 0.2508 0.09043 0.0
C1474 C 0.90911 0.39327 0.09293 0.0
C1475 C 0.94358 0.39301 0.09291 0.0
C1476 C 0.8741 0.35917 0.09306 0.0
C1477 C 0.87247 0.32373 0.09335 0.0
C1478 C 0.90695 0.32336 0.09266 0.0
C1479 C 0.94218 0.3577 0.09231 0.0
H1480 H 0.64905 0.50954 0.10132 0.0
H1481 H 0.71837 0.63125 0.09325 0.0
H1482 H 0.70571 0.5039 0.10148 0.0
H1483 H 0.77582 0.6257 0.09375 0.0
H1484 H 0.86948 0.59333 0.0857 0.0
H1485 H 0.81311 0.59919 0.08072 0.0
H1486 H 0.75589 0.52224 0.12155 0.0
H1487 H 0.81131 0.51557 0.12617 0.0
C1488 C 0.67649 0.53514 0.09944 0.0
C1489 C 0.67928 0.57095 0.0975 0.0
C1490 C 0.70902 0.53191 0.09962 0.0
C1491 C 0.7454 0.56443 0.09802 0.0
C1492 C 0.7482 0.60006 0.09503 0.0
C1493 C 0.71535 0.60329 0.09473 0.0
C1494 C 0.84463 0.57736 0.09347 0.0
C1495 C 0.84491 0.55397 0.10634 0.0
C1496 C 0.81252 0.58102 0.09071 0.0
C1497 C 0.77989 0.56105 0.10067 0.0
C1498 C 0.78026 0.53761 0.11347 0.0
C1499 C 0.81226 0.53409 0.11625 0.0
H1500 H 0.35079 0.57057 0.93501 0.0
H1501 H 0.29209 0.4579 0.91379 0.0
H1502 H 0.28977 0.56619 0.94044 0.0
H1503 H 0.23116 0.4542 0.91861 0.0
H1504 H 0.12343 0.44825 0.93802 0.0
H1505 H 0.18461 0.44995 0.93881 0.0
H1506 H 0.24227 0.56852 0.92363 0.0
H1507 H 0.18195 0.56703 0.92316 0.0
C1508 C 0.32491 0.54469 0.93164 0.0
C1509 C 0.32653 0.51477 0.9238 0.0
C1510 C 0.28985 0.54232 0.93462 0.0
C1511 C 0.25542 0.50996 0.92985 0.0
C1512 C 0.25698 0.47944 0.92257 0.0
C1513 C 0.29204 0.48181 0.91958 0.0
C1514 C 0.1493 0.47481 0.93517 0.0
C1515 C 0.14769 0.50739 0.93043 0.0
C1516 C 0.18433 0.47572 0.93548 0.0
C1517 C 0.21847 0.50935 0.9312 0.0
C1518 C 0.2168 0.54225 0.92718 0.0
C1519 C 0.18199 0.54127 0.92678 0.0
H1520 H 0.52907 0.80945 0.9 0.0
H1521 H 0.61397 0.87456 0.93668 0.0
H1522 H 0.53518 0.75407 0.90636 0.0
H1523 H 0.61951 0.81844 0.94335 0.0
H1524 H 0.64546 0.7177 0.93347 0.0
H1525 H 0.64196 0.77633 0.93099 0.0
H1526 H 0.51922 0.70834 0.92893 0.0
H1527 H 0.52272 0.65045 0.93118 0.0
C1528 C 0.54912 0.81199 0.90942 0.0
C1529 C 0.57102 0.84654 0.9178 0.0
C1530 C 0.55235 0.78005 0.91321 0.0
C1531 C 0.57763 0.78164 0.92548 0.0
C1532 C 0.59985 0.81626 0.93381 0.0
C1533 C 0.5964 0.84828 0.93009 0.0
C1534 C 0.61778 0.71546 0.93287 0.0
C1535 C 0.58442 0.67943 0.93231 0.0
C1536 C 0.61574 0.749 0.9314 0.0
C1537 C 0.58031 0.74699 0.92937 0.0
C1538 C 0.54701 0.71096 0.93 0.0
C1539 C 0.54904 0.67772 0.93141 0.0
H1540 H 0.37783 0.96694 0.93862 0.0
H1541 H 0.43812 0.90829 0.92617 0.0
H1542 H 0.31744 0.90562 0.93854 0.0
H1543 H 0.37851 0.84772 0.92603 0.0
H1544 H 0.2683 0.73944 0.93689 0.0
H1545 H 0.32528 0.80032 0.94298 0.0
H1546 H 0.27874 0.85988 0.91621 0.0
H1547 H 0.22206 0.79911 0.90985 0.0
C1548 C 0.37827 0.94093 0.93625 0.0
C1549 C 0.41264 0.94242 0.93234 0.0
C1550 C 0.34373 0.90591 0.93604 0.0
C1551 C 0.34312 0.87177 0.9322 0.0
C1552 C 0.37786 0.87328 0.92919 0.0
C1553 C 0.41207 0.90811 0.92918 0.0
C1554 C 0.27018 0.76545 0.93224 0.0
C1555 C 0.24053 0.76412 0.92273 0.0
C1556 C 0.3028 0.80041 0.93582 0.0
C1557 C 0.30661 0.83501 0.93008 0.0
C1558 C 0.2765 0.83384 0.92105 0.0
C1559 C 0.24396 0.79887 0.91738 0.0
H1560 H 0.11925 0.62112 0.436 0.0
H1561 H 0.23174 0.65919 0.45536 0.0
H1562 H 0.1104 0.55746 0.43163 0.0
H1563 H 0.2225 0.59568 0.45149 0.0
H1564 H 0.21397 0.49359 0.42636 0.0
H1565 H 0.2186 0.55522 0.42908 0.0
H1566 H 0.10243 0.50005 0.44659 0.0
H1567 H 0.09748 0.43749 0.44363 0.0
C1568 C 0.14213 0.61599 0.43928 0.0
C1569 C 0.17627 0.64545 0.44601 0.0
C1570 C 0.13687 0.57935 0.43695 0.0
C1571 C 0.16576 0.57135 0.44113 0.0
C1572 C 0.19978 0.60082 0.4479 0.0
C1573 C 0.20495 0.63725 0.4503 0.0
C1574 C 0.18916 0.49429 0.43071 0.0
C1575 C 0.15536 0.46035 0.43489 0.0
C1576 C 0.19197 0.52987 0.43237 0.0
C1577 C 0.16114 0.53282 0.43831 0.0
C1578 C 0.12674 0.49886 0.44194 0.0
C1579 C 0.1239 0.46299 0.44026 0.0
H1580 H 0.62272 0.6873 0.43065 0.0
H1581 H 0.56965 0.75644 0.43024 0.0
H1582 H 0.55969 0.62946 0.43118 0.0
H1583 H 0.50708 0.6992 0.43009 0.0
H1584 H 0.40599 0.59624 0.45369 0.0
H1585 H 0.46844 0.65232 0.44951 0.0
H1586 H 0.5002 0.58745 0.41806 0.0
H1587 H 0.43753 0.53083 0.42259 0.0
C1588 C 0.5976 0.69011 0.43022 0.0
C1589 C 0.60113 0.72638 0.43057 0.0
C1590 C 0.56141 0.65696 0.43053 0.0
C1591 C 0.52807 0.65949 0.43102 0.0
C1592 C 0.53193 0.69595 0.43025 0.0
C1593 C 0.56789 0.72887 0.43017 0.0
C1594 C 0.42608 0.594 0.44571 0.0
C1595 C 0.4166 0.55903 0.43842 0.0
C1596 C 0.46202 0.62628 0.44326 0.0
C1597 C 0.48954 0.62475 0.4333 0.0
C1598 C 0.48001 0.58974 0.42594 0.0
C1599 C 0.44402 0.55727 0.4285 0.0
H1600 H 0.49741 0.8654 0.42139 0.0
H1601 H 0.52151 0.92976 0.46634 0.0
H1602 H 0.44179 0.87224 0.41682 0.0
H1603 H 0.46615 0.93681 0.46169 0.0
H1604 H 0.38112 0.96932 0.44154 0.0
H1605 H 0.44005 0.96706 0.44367 0.0
H1606 H 0.3792 0.84883 0.42898 0.0
H1607 H 0.32086 0.85117 0.42663 0.0
C1608 C 0.49079 0.88083 0.43035 0.0
C1609 C 0.51403 0.89694 0.44426 0.0
C1610 C 0.45893 0.88487 0.4277 0.0
C1611 C 0.44947 0.90516 0.43887 0.0
C1612 C 0.47292 0.92159 0.45268 0.0
C1613 C 0.5047 0.91747 0.45535 0.0
C1614 C 0.38047 0.94302 0.43858 0.0
C1615 C 0.34617 0.91044 0.43397 0.0
C1616 C 0.41417 0.94162 0.43992 0.0
C1617 C 0.41438 0.9077 0.43654 0.0
C1618 C 0.38027 0.87554 0.43149 0.0
C1619 C 0.34667 0.87686 0.43025 0.0
H1620 H 0.78251 0.76787 0.25539 0.0
H1621 H 0.84292 0.89072 0.26003 0.0
H1622 H 0.84347 0.7697 0.25307 0.0
H1623 H 0.90313 0.89257 0.25734 0.0
H1624 H 1.00772 0.88408 0.26652 0.0
H1625 H 0.94556 0.87744 0.27123 0.0
H1626 H 0.89651 0.78959 0.23429 0.0
H1627 H 0.95837 0.79489 0.23016 0.0
C1628 C 0.80867 0.7952 0.25596 0.0
C1629 C 0.80763 0.82908 0.25793 0.0
C1630 C 0.84366 0.7963 0.25452 0.0
C1631 C 0.8784 0.8313 0.25506 0.0
C1632 C 0.87716 0.86502 0.25717 0.0
C1633 C 0.84239 0.86393 0.2586 0.0
C1634 C 0.98364 0.86291 0.25956 0.0
C1635 C 0.98834 0.84019 0.24789 0.0
C1636 C 0.94795 0.8594 0.26213 0.0
C1637 C 0.91588 0.83315 0.25306 0.0
C1638 C 0.92039 0.8099 0.2416 0.0
C1639 C 0.95609 0.81336 0.23906 0.0
H1640 H 0.18519 0.97939 0.2545 0.0
H1641 H 0.30323 0.04339 0.26929 0.0
H1642 H 0.18319 0.03801 0.2524 0.0
H1643 H 0.30117 0.10289 0.26705 0.0
H1644 H 0.26541 0.19733 0.27238 0.0
H1645 H 0.27045 0.14041 0.27799 0.0
H1646 H 0.21208 0.09113 0.23239 0.0
H1647 H 0.20628 0.14696 0.22701 0.0
C1648 C 0.21076 1.00601 0.25744 0.0
C1649 C 0.24457 1.00664 0.26184 0.0
C1650 C 0.20961 0.03973 0.25615 0.0
C1651 C 0.24223 0.07526 0.25918 0.0
C1652 C 0.27556 0.07595 0.26458 0.0
C1653 C 0.27673 0.0419 0.26588 0.0
C1654 C 0.25364 0.17428 0.26358 0.0
C1655 C 0.23547 0.17685 0.24922 0.0
C1656 C 0.25681 0.14183 0.26674 0.0
C1657 C 0.24138 0.11105 0.25571 0.0
C1658 C 0.22382 0.11403 0.24127 0.0
C1659 C 0.2209 0.14635 0.23808 0.0
H1660 H 0.91715 0.08173 0.27387 0.0
H1661 H 0.87759 0.12175 0.23313 0.0
H1662 H 0.97202 0.1461 0.27707 0.0
H1663 H 0.93126 0.18593 0.23676 0.0
H1664 H 0.0574 0.27741 0.23213 0.0
H1665 H 0.9985 0.21654 0.23145 0.0
H1666 H 0.99441 0.21365 0.28463 0.0
H1667 H 0.05454 0.27528 0.2853 0.0
C1668 C 0.91995 0.10419 0.26565 0.0
C1669 C 0.89282 0.09622 0.25317 0.0
C1670 C 0.9512 0.14127 0.26764 0.0
C1671 C 0.95628 0.17133 0.25714 0.0
C1672 C 0.92863 0.16351 0.24497 0.0
C1673 C 0.89748 0.1266 0.243 0.0
C1674 C 0.04385 0.26416 0.24374 0.0
C1675 C 0.0608 0.28134 0.25878 0.0
C1676 C 1.00978 0.22917 0.24333 0.0
C1677 C 0.99148 0.20997 0.25797 0.0
C1678 C 1.00787 0.22749 0.27311 0.0
C1679 C 0.04208 0.26298 0.27351 0.0
H1680 H 0.8926 0.83953 0.76496 0.0
H1681 H 0.77459 0.77764 0.78023 0.0
H1682 H 0.8935 0.89952 0.76777 0.0
H1683 H 0.77546 0.83822 0.78289 0.0
H1684 H 0.81074 0.9566 0.80576 0.0
H1685 H 0.80507 0.89468 0.80105 0.0
H1686 H 0.86818 0.93743 0.7556 0.0
H1687 H 0.87348 0.99928 0.76018 0.0
C1688 C 0.86666 0.83863 0.76879 0.0
C1689 C 0.83351 0.80362 0.77242 0.0
C1690 C 0.86716 0.87317 0.7703 0.0
C1691 C 0.83459 0.87379 0.77556 0.0
C1692 C 0.80117 0.83877 0.77896 0.0
C1693 C 0.80058 0.80404 0.77732 0.0
C1694 C 0.82299 0.95274 0.79464 0.0
C1695 C 0.8427 0.98318 0.78338 0.0
C1696 C 0.81968 0.91713 0.79193 0.0
C1697 C 0.83616 0.91101 0.77795 0.0
C1698 C 0.85557 0.94129 0.76662 0.0
C1699 C 0.85875 0.97685 0.76928 0.0
H1700 H 0.2416 0.09442 0.76664 0.0
H1701 H 0.29997 0.03251 0.75681 0.0
H1702 H 0.18108 0.03503 0.76742 0.0
H1703 H 0.2386 0.97232 0.75732 0.0
H1704 H 0.13014 0.876 0.78445 0.0
H1705 H 0.19138 0.93281 0.77831 0.0
H1706 H 0.13362 0.98198 0.75207 0.0
H1707 H 0.07236 0.92592 0.75877 0.0
C1708 C 0.24144 0.06807 0.76434 0.0
C1709 C 0.27576 0.06828 0.76174 0.0
C1710 C 0.20654 0.03387 0.76468 0.0
C1711 C 0.20475 0.99867 0.7625 0.0
C1712 C 0.23893 0.99888 0.75922 0.0
C1713 C 0.27407 0.03337 0.75875 0.0
C1714 C 0.13044 0.89894 0.7774 0.0
C1715 C 0.09607 0.89638 0.7723 0.0
C1716 C 0.16569 0.93137 0.77366 0.0
C1717 C 0.16761 0.96221 0.76475 0.0
C1718 C 0.13331 0.95904 0.75914 0.0
C1719 C 0.09809 0.92664 0.76286 0.0
H1720 H 0.1485 0.19376 0.79958 0.0
H1721 H 0.199 0.26005 0.7553 0.0
H1722 H 0.09229 0.19925 0.79532 0.0
H1723 H 0.14176 0.26453 0.75071 0.0
H1724 H 0.04733 0.29768 0.76104 0.0
H1725 H 0.10564 0.29369 0.76228 0.0
H1726 H 0.03875 0.17503 0.77686 0.0
H1727 H 0.98134 0.17916 0.77593 0.0
C1728 C 0.14765 0.20956 0.78892 0.0
C1729 C 0.17839 0.2265 0.77782 0.0
C1730 C 0.11514 0.21236 0.78636 0.0
C1731 C 0.11228 0.2321 0.77259 0.0
C1732 C 0.14306 0.24926 0.76148 0.0
C1733 C 0.17569 0.24633 0.76402 0.0
C1734 C 0.04517 0.27068 0.76428 0.0
C1735 C 1.00977 0.23895 0.76864 0.0
C1736 C 0.07853 0.26836 0.76499 0.0
C1737 C 0.07699 0.23422 0.77001 0.0
C1738 C 0.04122 0.20206 0.77341 0.0
C1739 C 1.00819 0.20443 0.77279 0.0
H1740 H 0.50831 0.22079 0.59782 0.0
H1741 H 0.44892 0.09921 0.58916 0.0
H1742 H 0.569 0.22289 0.59613 0.0
H1743 H 0.51008 0.10132 0.58768 0.0
H1744 H 0.62718 0.13206 0.56528 0.0
H1745 H 0.56522 0.1267 0.56897 0.0
H1746 H 0.60895 0.20287 0.61042 0.0
H1747 H 0.67095 0.208 0.60685 0.0
C1748 C 0.50812 0.19436 0.59569 0.0
C1749 C 0.4736 0.1598 0.59357 0.0
C1750 C 0.54305 0.19558 0.59483 0.0
C1751 C 0.54451 0.16231 0.59175 0.0
C1752 C 0.50999 0.12757 0.58989 0.0
C1753 C 0.47491 0.1263 0.59085 0.0
C1754 C 0.62354 0.14731 0.57534 0.0
C1755 C 0.65424 0.1705 0.58576 0.0
C1756 C 0.58791 0.14418 0.57745 0.0
C1757 C 0.58201 0.16429 0.59 0.0
C1758 C 0.61261 0.18735 0.60049 0.0
C1759 C 0.64824 0.19039 0.59841 0.0
H1760 H 0.8495 0.30877 0.59621 0.0
H1761 H 0.97136 0.37737 0.60248 0.0
H1762 H 0.84503 0.36615 0.59449 0.0
H1763 H 0.96695 0.43547 0.60045 0.0
H1764 H 0.93754 0.53195 0.60658 0.0
H1765 H 0.9428 0.4754 0.61249 0.0
H1766 H 0.8623 0.41482 0.57367 0.0
H1767 H 0.85622 0.47047 0.56815 0.0
C1768 C 0.87541 0.33619 0.59736 0.0
C1769 C 0.91088 0.33842 0.5993 0.0
C1770 C 0.87285 0.36919 0.59626 0.0
C1771 C 0.90569 0.40556 0.59696 0.0
C1772 C 0.94104 0.40793 0.59987 0.0
C1773 C 0.9436 0.37465 0.60105 0.0
C1774 C 0.92069 0.50638 0.59943 0.0
C1775 C 0.89645 0.50586 0.58687 0.0
C1776 C 0.924 0.4741 0.60272 0.0
C1777 C 0.90285 0.44039 0.59364 0.0
C1778 C 0.87863 0.43999 0.58111 0.0
C1779 C 0.87546 0.47216 0.57779 0.0
H1780 H 0.5818 0.40336 0.60281 0.0
H1781 H 0.54884 0.4493 0.56193 0.0
H1782 H 0.63693 0.4662 0.60766 0.0
H1783 H 0.60508 0.51188 0.56632 0.0
H1784 H 0.6969 0.6282 0.58634 0.0
H1785 H 0.63683 0.56721 0.58423 0.0
H1786 H 0.69683 0.50678 0.59466 0.0
H1787 H 0.75595 0.56694 0.59708 0.0
C1788 C 0.58607 0.42686 0.59491 0.0
C1789 C 0.56076 0.42093 0.5819 0.0
C1790 C 0.61805 0.46294 0.59757 0.0
C1791 C 0.62584 0.49425 0.58729 0.0
C1792 C 0.59999 0.48862 0.57457 0.0
C1793 C 0.56794 0.45249 0.5719 0.0
C1794 C 0.69711 0.60187 0.58835 0.0
C1795 C 0.7314 0.60267 0.59188 0.0
C1796 C 0.66271 0.56686 0.58702 0.0
C1797 C 0.6618 0.53188 0.58931 0.0
C1798 C 0.69608 0.53294 0.59309 0.0
C1799 C 0.73024 0.56769 0.59436 0.0
loop_
_geom_bond_atom_site_label_1
_geom_bond_atom_site_label_2
_geom_bond_distance
_geom_bond_site_symmetry_2
_ccdc_geom_bond_type
Dy0 O3 2.307 1_565 S
Dy0 O5 2.395 . S
Dy0 O6 2.379 . S
Dy0 O8 2.339 . S
Dy0 O10 2.298 . S
Dy0 O14 2.275 . S
Dy0 C22 2.738 . S
Dy1 O4 2.298 . S
Dy1 O7 2.275 . S
Dy1 O9 2.307 1_545 S
Dy1 O11 2.395 . S
Dy1 O12 2.379 . S
Dy1 O15 2.339 . S
Dy1 C31 2.738 . S
C2 O14 1.255 1_545 S
C2 O15 1.259 . S
O3 Dy0 2.307 1_545 S
O3 C13 1.266 . S
O4 Dy1 2.298 . S
O4 C13 1.236 . S
O5 Dy0 2.395 . S
O5 C22 1.255 . S
O6 Dy0 2.379 . S
O6 C22 1.249 . S
O7 Dy1 2.275 . S
O7 C23 1.254 . S
O8 Dy0 2.339 . S
O8 C23 1.257 1_565 S
O9 Dy1 2.307 1_565 S
O9 C24 1.266 . S
O10 Dy0 2.298 . S
O10 C24 1.236 . S
O11 Dy1 2.395 . S
O11 C31 1.255 . S
O12 Dy1 2.379 . S
O12 C31 1.249 . S
C13 O3 1.266 . S
C13 O4 1.236 . S
O14 Dy0 2.275 . S
O14 C2 1.255 1_565 S
O15 Dy1 2.339 . S
O15 C2 1.259 . S
C16 C19 1.344 . S
C16 C20 1.328 . S
C16 C22 1.516 . S
C17 C18 1.304 . S
C17 C21 1.323 . S
C18 C17 1.304 . S
C18 C19 1.371 . S
C18 H32 0.930 . S
C19 C16 1.344 . S
C19 C18 1.371 . S
C19 H33 0.931 . S
C20 C16 1.328 . S
C20 C21 1.433 . S
C20 H34 0.931 . S
C21 C17 1.323 . S
C21 C20 1.433 . S
C21 H35 0.933 . S
C22 Dy0 2.738 . S
C22 O5 1.255 . S
C22 O6 1.249 . S
C22 C16 1.516 . S
C23 O7 1.254 . S
C23 O8 1.257 1_545 S
C24 O9 1.266 . S
C24 O10 1.236 . S
C25 C28 1.344 . S
C25 C29 1.328 . S
C25 C31 1.516 . S
C26 C27 1.304 . S
C26 C30 1.323 . S
C27 C26 1.304 . S
C27 C28 1.371 . S
C27 H36 0.930 . S
C28 C25 1.344 . S
C28 C27 1.371 . S
C28 H37 0.931 . S
C29 C25 1.328 . S
C29 C30 1.433 . S
C29 H38 0.931 . S
C30 C26 1.323 . S
C30 C29 1.433 . S
C30 H39 0.933 . S
C31 Dy1 2.738 . S
C31 O11 1.255 . S
C31 O12 1.249 . S
C31 C25 1.516 . S
H32 C18 0.930 . S
H33 C19 0.931 . S
H34 C20 0.931 . S
H35 C21 0.933 . S
H36 C27 0.930 . S
H37 C28 0.931 . S
H38 C29 0.931 . S
H39 C30 0.933 . S
Dy40 O43 2.307 1_455 S
Dy40 O45 2.395 . S
Dy40 O46 2.379 . S
Dy40 O48 2.339 . S
Dy40 O50 2.298 . S
Dy40 O54 2.275 . S
Dy40 C62 2.738 . S
Dy41 O44 2.298 1_455 S
Dy41 O47 2.275 . S
Dy41 O49 2.307 . S
Dy41 O51 2.395 1_455 S
Dy41 O52 2.379 1_455 S
Dy41 O55 2.339 . S
Dy41 C71 2.738 1_455 S
C42 O54 1.254 . S
C42 O55 1.257 . S
O43 Dy40 2.307 1_655 S
O43 C53 1.266 . S
O44 Dy41 2.298 1_655 S
O44 C53 1.236 . S
O45 Dy40 2.395 . S
O45 C62 1.255 . S
O46 Dy40 2.379 . S
O46 C62 1.249 . S
O47 Dy41 2.275 . S
O47 C63 1.254 . S
O48 Dy40 2.339 . S
O48 C63 1.257 . S
O49 Dy41 2.307 . S
O49 C64 1.266 . S
O50 Dy40 2.298 . S
O50 C64 1.236 . S
O51 Dy41 2.395 1_655 S
O51 C71 1.255 . S
O52 Dy41 2.379 1_655 S
O52 C71 1.249 . S
C53 O43 1.266 . S
C53 O44 1.236 . S
O54 Dy40 2.275 . S
O54 C42 1.254 . S
O55 Dy41 2.339 . S
O55 C42 1.257 . S
C56 C59 1.344 . S
C56 C60 1.328 . S
C56 C62 1.516 . S
C57 C58 1.304 . S
C57 C61 1.323 . S
C58 C57 1.304 . S
C58 C59 1.371 . S
C58 H72 0.930 . S
C59 C56 1.344 . S
C59 C58 1.371 . S
C59 H73 0.931 . S
C60 C56 1.328 . S
C60 C61 1.433 . S
C60 H74 0.931 . S
C61 C57 1.323 . S
C61 C60 1.433 . S
C61 H75 0.933 . S
C62 Dy40 2.738 . S
C62 O45 1.255 . S
C62 O46 1.249 . S
C62 C56 1.516 . S
C63 O47 1.254 . S
C63 O48 1.257 . S
C64 O49 1.266 . S
C64 O50 1.236 . S
C65 C68 1.344 . S
C65 C69 1.328 . S
C65 C71 1.516 . S
C66 C67 1.304 . S
C66 C70 1.323 . S
C67 C66 1.304 . S
C67 C68 1.371 . S
C67 H76 0.930 . S
C68 C65 1.344 . S
C68 C67 1.371 . S
C68 H77 0.931 . S
C69 C65 1.328 . S
C69 C70 1.433 . S
C69 H78 0.931 . S
C70 C66 1.323 . S
C70 C69 1.433 . S
C70 H79 0.933 . S
C71 Dy41 2.738 1_655 S
C71 O51 1.255 . S
C71 O52 1.249 . S
C71 C65 1.516 . S
H72 C58 0.930 . S
H73 C59 0.931 . S
H74 C60 0.931 . S
H75 C61 0.933 . S
H76 C67 0.930 . S
H77 C68 0.931 . S
H78 C69 0.931 . S
H79 C70 0.933 . S
Dy80 O83 2.307 . S
Dy80 O85 2.395 . S
Dy80 O86 2.379 . S
Dy80 O88 2.339 . S
Dy80 O90 2.298 . S
Dy80 O94 2.275 . S
Dy80 C102 2.738 . S
Dy81 O84 2.298 . S
Dy81 O87 2.275 . S
Dy81 O89 2.307 . S
Dy81 O91 2.395 . S
Dy81 O92 2.379 . S
Dy81 O95 2.339 . S
Dy81 C111 2.738 . S
C82 O94 1.254 . S
C82 O95 1.257 . S
O83 Dy80 2.307 . S
O83 C93 1.266 . S
O84 Dy81 2.298 . S
O84 C93 1.236 . S
O85 Dy80 2.395 . S
O85 C102 1.255 . S
O86 Dy80 2.379 . S
O86 C102 1.249 . S
O87 Dy81 2.275 . S
O87 C103 1.254 . S
O88 Dy80 2.339 . S
O88 C103 1.257 . S
O89 Dy81 2.307 . S
O89 C104 1.266 . S
O90 Dy80 2.298 . S
O90 C104 1.236 . S
O91 Dy81 2.395 . S
O91 C111 1.255 . S
O92 Dy81 2.379 . S
O92 C111 1.249 . S
C93 O83 1.266 . S
C93 O84 1.236 . S
O94 Dy80 2.275 . S
O94 C82 1.254 . S
O95 Dy81 2.339 . S
O95 C82 1.257 . S
C96 C99 1.344 . S
C96 C100 1.328 . S
C96 C102 1.516 . S
C97 C98 1.304 . S
C97 C101 1.323 . S
C98 C97 1.304 . S
C98 C99 1.371 . S
C98 H112 0.930 . S
C99 C96 1.344 . S
C99 C98 1.371 . S
C99 H113 0.931 . S
C100 C96 1.328 . S
C100 C101 1.433 . S
C100 H114 0.931 . S
C101 C97 1.323 . S
C101 C100 1.433 . S
C101 H115 0.933 . S
C102 Dy80 2.738 . S
C102 O85 1.255 . S
C102 O86 1.249 . S
C102 C96 1.516 . S
C103 O87 1.254 . S
C103 O88 1.257 . S
C104 O89 1.266 . S
C104 O90 1.236 . S
C105 C108 1.344 . S
C105 C109 1.328 . S
C105 C111 1.516 . S
C106 C107 1.304 . S
C106 C110 1.323 . S
C107 C106 1.304 . S
C107 C108 1.371 . S
C107 H116 0.930 . S
C108 C105 1.344 . S
C108 C107 1.371 . S
C108 H117 0.931 . S
C109 C105 1.328 . S
C109 C110 1.433 . S
C109 H118 0.931 . S
C110 C106 1.323 . S
C110 C109 1.433 . S
C110 H119 0.933 . S
C111 Dy81 2.738 . S
C111 O91 1.255 . S
C111 O92 1.249 . S
C111 C105 1.516 . S
H112 C98 0.930 . S
H113 C99 0.931 . S
H114 C100 0.931 . S
H115 C101 0.933 . S
H116 C107 0.930 . S
H117 C108 0.931 . S
H118 C109 0.931 . S
H119 C110 0.933 . S
Dy120 O123 2.307 1_655 S
Dy120 O125 2.395 . S
Dy120 O126 2.379 . S
Dy120 O128 2.339 . S
Dy120 O130 2.298 . S
Dy120 O134 2.275 . S
Dy120 C142 2.738 . S
Dy121 O124 2.298 . S
Dy121 O127 2.275 . S
Dy121 O129 2.307 1_455 S
Dy121 O131 2.395 . S
Dy121 O132 2.379 . S
Dy121 O135 2.339 . S
Dy121 C151 2.738 . S
C122 O134 1.255 1_455 S
C122 O135 1.259 . S
O123 Dy120 2.307 1_455 S
O123 C133 1.266 . S
O124 Dy121 2.298 . S
O124 C133 1.236 . S
O125 Dy120 2.395 . S
O125 C142 1.255 . S
O126 Dy120 2.379 . S
O126 C142 1.249 . S
O127 Dy121 2.275 . S
O127 C143 1.254 . S
O128 Dy120 2.339 . S
O128 C143 1.257 1_655 S
O129 Dy121 2.307 1_655 S
O129 C144 1.266 . S
O130 Dy120 2.298 . S
O130 C144 1.236 . S
O131 Dy121 2.395 . S
O131 C151 1.255 . S
O132 Dy121 2.379 . S
O132 C151 1.249 . S
C133 O123 1.266 . S
C133 O124 1.236 . S
O134 Dy120 2.275 . S
O134 C122 1.255 1_655 S
O135 Dy121 2.339 . S
O135 C122 1.259 . S
C136 C139 1.344 . S
C136 C140 1.328 . S
C136 C142 1.516 . S
C137 C138 1.304 . S
C137 C141 1.323 . S
C138 C137 1.304 . S
C138 C139 1.371 . S
C138 H152 0.930 . S
C139 C136 1.344 . S
C139 C138 1.371 . S
C139 H153 0.931 . S
C140 C136 1.328 . S
C140 C141 1.433 . S
C140 H154 0.931 . S
C141 C137 1.323 . S
C141 C140 1.433 . S
C141 H155 0.933 . S
C142 Dy120 2.738 . S
C142 O125 1.255 . S
C142 O126 1.249 . S
C142 C136 1.516 . S
C143 O127 1.254 . S
C143 O128 1.257 1_455 S
C144 O129 1.266 . S
C144 O130 1.236 . S
C145 C148 1.344 . S
C145 C149 1.328 . S
C145 C151 1.516 . S
C146 C147 1.304 . S
C146 C150 1.323 . S
C147 C146 1.304 . S
C147 C148 1.371 . S
C147 H156 0.930 . S
C148 C145 1.344 . S
C148 C147 1.371 . S
C148 H157 0.931 . S
C149 C145 1.328 . S
C149 C150 1.433 . S
C149 H158 0.931 . S
C150 C146 1.323 . S
C150 C149 1.433 . S
C150 H159 0.933 . S
C151 Dy121 2.738 . S
C151 O131 1.255 . S
C151 O132 1.249 . S
C151 C145 1.516 . S
H152 C138 0.930 . S
H153 C139 0.931 . S
H154 C140 0.931 . S
H155 C141 0.933 . S
H156 C147 0.930 . S
H157 C148 0.931 . S
H158 C149 0.931 . S
H159 C150 0.933 . S
Dy160 O163 2.307 . S
Dy160 O165 2.395 . S
Dy160 O166 2.379 . S
Dy160 O168 2.339 . S
Dy160 O170 2.298 . S
Dy160 O174 2.275 . S
Dy160 C182 2.738 . S
Dy161 O164 2.298 . S
Dy161 O167 2.275 . S
Dy161 O169 2.307 . S
Dy161 O171 2.395 . S
Dy161 O172 2.379 . S
Dy161 O175 2.339 . S
Dy161 C191 2.738 . S
C162 O174 1.254 . S
C162 O175 1.257 . S
O163 Dy160 2.307 . S
O163 C173 1.266 . S
O164 Dy161 2.298 . S
O164 C173 1.236 . S
O165 Dy160 2.395 . S
O165 C182 1.255 . S
O166 Dy160 2.379 . S
O166 C182 1.249 . S
O167 Dy161 2.275 . S
O167 C183 1.254 . S
O168 Dy160 2.339 . S
O168 C183 1.257 . S
O169 Dy161 2.307 . S
O169 C184 1.266 . S
O170 Dy160 2.298 . S
O170 C184 1.236 . S
O171 Dy161 2.395 . S
O171 C191 1.255 . S
O172 Dy161 2.379 . S
O172 C191 1.249 . S
C173 O163 1.266 . S
C173 O164 1.236 . S
O174 Dy160 2.275 . S
O174 C162 1.254 . S
O175 Dy161 2.339 . S
O175 C162 1.257 . S
C176 C179 1.344 . S
C176 C180 1.328 . S
C176 C182 1.516 . S
C177 C178 1.304 . S
C177 C181 1.323 . S
C178 C177 1.304 . S
C178 C179 1.371 . S
C178 H192 0.930 . S
C179 C176 1.344 . S
C179 C178 1.371 . S
C179 H193 0.931 . S
C180 C176 1.328 . S
C180 C181 1.433 . S
C180 H194 0.931 . S
C181 C177 1.323 . S
C181 C180 1.433 . S
C181 H195 0.933 . S
C182 Dy160 2.738 . S
C182 O165 1.255 . S
C182 O166 1.249 . S
C182 C176 1.516 . S
C183 O167 1.254 . S
C183 O168 1.257 . S
C184 O169 1.266 . S
C184 O170 1.236 . S
C185 C188 1.344 . S
C185 C189 1.328 . S
C185 C191 1.516 . S
C186 C187 1.304 . S
C186 C190 1.323 . S
C187 C186 1.304 . S
C187 C188 1.371 . S
C187 H196 0.930 . S
C188 C185 1.344 . S
C188 C187 1.371 . S
C188 H197 0.931 . S
C189 C185 1.328 . S
C189 C190 1.433 . S
C189 H198 0.931 . S
C190 C186 1.323 . S
C190 C189 1.433 . S
C190 H199 0.933 . S
C191 Dy161 2.738 . S
C191 O171 1.255 . S
C191 O172 1.249 . S
C191 C185 1.516 . S
H192 C178 0.930 . S
H193 C179 0.931 . S
H194 C180 0.931 . S
H195 C181 0.933 . S
H196 C187 0.930 . S
H197 C188 0.931 . S
H198 C189 0.931 . S
H199 C190 0.933 . S
Dy200 O203 2.307 1_545 S
Dy200 O205 2.395 . S
Dy200 O206 2.379 . S
Dy200 O208 2.339 . S
Dy200 O210 2.298 . S
Dy200 O214 2.275 . S
Dy200 C222 2.738 . S
Dy201 O204 2.298 1_545 S
Dy201 O207 2.275 . S
Dy201 O209 2.307 . S
Dy201 O211 2.395 1_545 S
Dy201 O212 2.379 1_545 S
Dy201 O215 2.339 . S
Dy201 C231 2.738 1_545 S
C202 O214 1.254 . S
C202 O215 1.257 . S
O203 Dy200 2.307 1_565 S
O203 C213 1.266 . S
O204 Dy201 2.298 1_565 S
O204 C213 1.236 . S
O205 Dy200 2.395 . S
O205 C222 1.255 . S
O206 Dy200 2.379 . S
O206 C222 1.249 . S
O207 Dy201 2.275 . S
O207 C223 1.254 . S
O208 Dy200 2.339 . S
O208 C223 1.257 . S
O209 Dy201 2.307 . S
O209 C224 1.266 . S
O210 Dy200 2.298 . S
O210 C224 1.236 . S
O211 Dy201 2.395 1_565 S
O211 C231 1.255 . S
O212 Dy201 2.379 1_565 S
O212 C231 1.249 . S
C213 O203 1.266 . S
C213 O204 1.236 . S
O214 Dy200 2.275 . S
O214 C202 1.254 . S
O215 Dy201 2.339 . S
O215 C202 1.257 . S
C216 C219 1.344 . S
C216 C220 1.328 . S
C216 C222 1.516 . S
C217 C218 1.304 . S
C217 C221 1.323 . S
C218 C217 1.304 . S
C218 C219 1.371 . S
C218 H232 0.930 . S
C219 C216 1.344 . S
C219 C218 1.371 . S
C219 H233 0.931 . S
C220 C216 1.328 . S
C220 C221 1.433 . S
C220 H234 0.931 . S
C221 C217 1.323 . S
C221 C220 1.433 . S
C221 H235 0.933 . S
C222 Dy200 2.738 . S
C222 O205 1.255 . S
C222 O206 1.249 . S
C222 C216 1.516 . S
C223 O207 1.254 . S
C223 O208 1.257 . S
C224 O209 1.266 . S
C224 O210 1.236 . S
C225 C228 1.344 . S
C225 C229 1.328 . S
C225 C231 1.516 . S
C226 C227 1.304 . S
C226 C230 1.323 . S
C227 C226 1.304 . S
C227 C228 1.371 . S
C227 H236 0.930 . S
C228 C225 1.344 . S
C228 C227 1.371 . S
C228 H237 0.931 . S
C229 C225 1.328 . S
C229 C230 1.433 . S
C229 H238 0.931 . S
C230 C226 1.323 . S
C230 C229 1.433 . S
C230 H239 0.933 . S
C231 Dy201 2.738 1_565 S
C231 O211 1.255 . S
C231 O212 1.249 . S
C231 C225 1.516 . S
H232 C218 0.930 . S
H233 C219 0.931 . S
H234 C220 0.931 . S
H235 C221 0.933 . S
H236 C227 0.930 . S
H237 C228 0.931 . S
H238 C229 0.931 . S
H239 C230 0.933 . S
Dy240 O243 2.307 . S
Dy240 O245 2.395 . S
Dy240 O246 2.379 . S
Dy240 O248 2.339 . S
Dy240 O250 2.298 . S
Dy240 O254 2.275 . S
Dy240 C262 2.738 . S
Dy241 O244 2.298 . S
Dy241 O247 2.275 . S
Dy241 O249 2.307 . S
Dy241 O251 2.395 . S
Dy241 O252 2.379 . S
Dy241 O255 2.339 . S
Dy241 C271 2.738 . S
C242 O254 1.254 . S
C242 O255 1.257 . S
O243 Dy240 2.307 . S
O243 C253 1.266 . S
O244 Dy241 2.298 . S
O244 C253 1.236 . S
O245 Dy240 2.395 . S
O245 C262 1.255 . S
O246 Dy240 2.379 . S
O246 C262 1.249 . S
O247 Dy241 2.275 . S
O247 C263 1.254 . S
O248 Dy240 2.339 . S
O248 C263 1.257 . S
O249 Dy241 2.307 . S
O249 C264 1.266 . S
O250 Dy240 2.298 . S
O250 C264 1.236 . S
O251 Dy241 2.395 . S
O251 C271 1.255 . S
O252 Dy241 2.379 . S
O252 C271 1.249 . S
C253 O243 1.266 . S
C253 O244 1.236 . S
O254 Dy240 2.275 . S
O254 C242 1.254 . S
O255 Dy241 2.339 . S
O255 C242 1.257 . S
C256 C259 1.344 . S
C256 C260 1.328 1_455 S
C256 C262 1.516 . S
C257 C258 1.304 . S
C257 C261 1.323 . S
C258 C257 1.304 . S
C258 C259 1.363 1_655 S
C258 H272 0.930 . S
C259 C256 1.344 . S
C259 C258 1.363 1_455 S
C259 H273 0.939 . S
C260 C256 1.328 1_655 S
C260 C261 1.433 . S
C260 H274 0.931 1_655 S
C261 C257 1.323 . S
C261 C260 1.433 . S
C261 H275 0.933 . S
C262 Dy240 2.738 . S
C262 O245 1.255 . S
C262 O246 1.249 . S
C262 C256 1.516 . S
C263 O247 1.254 . S
C263 O248 1.257 . S
C264 O249 1.266 . S
C264 O250 1.236 . S
C265 C268 1.344 . S
C265 C269 1.328 . S
C265 C271 1.516 . S
C266 C267 1.304 . S
C266 C270 1.323 . S
C267 C266 1.304 . S
C267 C268 1.371 . S
C267 H276 0.930 . S
C268 C265 1.344 . S
C268 C267 1.371 . S
C268 H277 0.931 . S
C269 C265 1.328 . S
C269 C270 1.433 . S
C269 H278 0.931 . S
C270 C266 1.323 . S
C270 C269 1.433 . S
C270 H279 0.933 . S
C271 Dy241 2.738 . S
C271 O251 1.255 . S
C271 O252 1.249 . S
C271 C265 1.516 . S
H272 C258 0.930 . S
H273 C259 0.939 . S
H274 C260 0.931 1_455 S
H275 C261 0.933 . S
H276 C267 0.930 . S
H277 C268 0.931 . S
H278 C269 0.931 . S
H279 C270 0.933 . S
Dy280 O283 2.307 . S
Dy280 O285 2.395 . S
Dy280 O286 2.379 . S
Dy280 O288 2.339 . S
Dy280 O290 2.298 . S
Dy280 O294 2.275 . S
Dy280 C302 2.738 . S
Dy281 O284 2.298 . S
Dy281 O287 2.275 . S
Dy281 O289 2.307 . S
Dy281 O291 2.395 . S
Dy281 O292 2.379 . S
Dy281 O295 2.339 . S
Dy281 C311 2.738 . S
C282 O294 1.254 . S
C282 O295 1.257 . S
O283 Dy280 2.307 . S
O283 C293 1.266 . S
O284 Dy281 2.298 . S
O284 C293 1.236 . S
O285 Dy280 2.395 . S
O285 C302 1.255 . S
O286 Dy280 2.379 . S
O286 C302 1.249 . S
O287 Dy281 2.275 . S
O287 C303 1.254 . S
O288 Dy280 2.339 . S
O288 C303 1.257 . S
O289 Dy281 2.307 . S
O289 C304 1.266 . S
O290 Dy280 2.298 . S
O290 C304 1.236 . S
O291 Dy281 2.395 . S
O291 C311 1.255 . S
O292 Dy281 2.379 . S
O292 C311 1.249 . S
C293 O283 1.266 . S
C293 O284 1.236 . S
O294 Dy280 2.275 . S
O294 C282 1.254 . S
O295 Dy281 2.339 . S
O295 C282 1.257 . S
C296 C299 1.344 . S
C296 C300 1.328 . S
C296 C302 1.516 . S
C297 C298 1.304 . S
C297 C301 1.323 . S
C298 C297 1.304 . S
C298 C299 1.371 . S
C298 H312 0.930 . S
C299 C296 1.344 . S
C299 C298 1.371 . S
C299 H313 0.931 . S
C300 C296 1.328 . S
C300 C301 1.433 . S
C300 H314 0.931 . S
C301 C297 1.323 . S
C301 C300 1.433 . S
C301 H315 0.933 . S
C302 Dy280 2.738 . S
C302 O285 1.255 . S
C302 O286 1.249 . S
C302 C296 1.516 . S
C303 O287 1.254 . S
C303 O288 1.257 . S
C304 O289 1.266 . S
C304 O290 1.236 . S
C305 C308 1.344 . S
C305 C309 1.328 . S
C305 C311 1.516 . S
C306 C307 1.304 . S
C306 C310 1.323 . S
C307 C306 1.304 . S
C307 C308 1.371 . S
C307 H316 0.930 . S
C308 C305 1.344 . S
C308 C307 1.371 . S
C308 H317 0.931 . S
C309 C305 1.328 . S
C309 C310 1.433 . S
C309 H318 0.931 . S
C310 C306 1.323 . S
C310 C309 1.433 . S
C310 H319 0.933 . S
C311 Dy281 2.738 . S
C311 O291 1.255 . S
C311 O292 1.249 . S
C311 C305 1.516 . S
H312 C298 0.930 . S
H313 C299 0.931 . S
H314 C300 0.931 . S
H315 C301 0.933 . S
H316 C307 0.930 . S
H317 C308 0.931 . S
H318 C309 0.931 . S
H319 C310 0.933 . S
Dy320 O323 2.307 . S
Dy320 O325 2.395 . S
Dy320 O326 2.379 . S
Dy320 O328 2.339 . S
Dy320 O330 2.298 . S
Dy320 O334 2.275 . S
Dy320 C342 2.738 . S
Dy321 O324 2.298 . S
Dy321 O327 2.275 . S
Dy321 O329 2.307 . S
Dy321 O331 2.395 . S
Dy321 O332 2.379 . S
Dy321 O335 2.339 . S
Dy321 C351 2.738 . S
C322 O334 1.254 . S
C322 O335 1.257 . S
O323 Dy320 2.307 . S
O323 C333 1.266 . S
O324 Dy321 2.298 . S
O324 C333 1.236 . S
O325 Dy320 2.395 . S
O325 C342 1.255 . S
O326 Dy320 2.379 . S
O326 C342 1.249 . S
O327 Dy321 2.275 . S
O327 C343 1.254 . S
O328 Dy320 2.339 . S
O328 C343 1.257 . S
O329 Dy321 2.307 . S
O329 C344 1.266 . S
O330 Dy320 2.298 . S
O330 C344 1.236 . S
O331 Dy321 2.395 . S
O331 C351 1.255 . S
O332 Dy321 2.379 . S
O332 C351 1.249 . S
C333 O323 1.266 . S
C333 O324 1.236 . S
O334 Dy320 2.275 . S
O334 C322 1.254 . S
O335 Dy321 2.339 . S
O335 C322 1.257 . S
C336 C339 1.344 . S
C336 C340 1.328 . S
C336 C342 1.516 1_545 S
C337 C338 1.304 . S
C337 C341 1.323 . S
C338 C337 1.304 . S
C338 C339 1.371 . S
C338 H352 0.930 . S
C339 C336 1.344 . S
C339 C338 1.371 . S
C339 H353 0.931 . S
C340 C336 1.328 . S
C340 C341 1.433 . S
C340 H354 0.931 . S
C341 C337 1.323 . S
C341 C340 1.433 . S
C341 H355 0.933 . S
C342 Dy320 2.738 . S
C342 O325 1.255 . S
C342 O326 1.249 . S
C342 C336 1.516 1_565 S
C343 O327 1.254 . S
C343 O328 1.257 . S
C344 O329 1.266 . S
C344 O330 1.236 . S
C345 C348 1.344 . S
C345 C349 1.328 . S
C345 C351 1.516 . S
C346 C347 1.304 . S
C346 C350 1.323 . S
C347 C346 1.304 . S
C347 C348 1.371 . S
C347 H356 0.930 . S
C348 C345 1.344 . S
C348 C347 1.371 . S
C348 H357 0.931 . S
C349 C345 1.328 . S
C349 C350 1.433 . S
C349 H358 0.931 . S
C350 C346 1.323 . S
C350 C349 1.433 . S
C350 H359 0.933 . S
C351 Dy321 2.738 . S
C351 O331 1.255 . S
C351 O332 1.249 . S
C351 C345 1.516 . S
H352 C338 0.930 . S
H353 C339 0.931 . S
H354 C340 0.931 . S
H355 C341 0.933 . S
H356 C347 0.930 . S
H357 C348 0.931 . S
H358 C349 0.931 . S
H359 C350 0.933 . S
Dy360 O363 2.307 . S
Dy360 O365 2.395 . S
Dy360 O366 2.379 . S
Dy360 O368 2.339 . S
Dy360 O370 2.298 . S
Dy360 O374 2.275 . S
Dy360 C382 2.738 . S
Dy361 O364 2.298 . S
Dy361 O367 2.275 . S
Dy361 O369 2.307 . S
Dy361 O371 2.395 . S
Dy361 O372 2.379 . S
Dy361 O375 2.339 . S
Dy361 C391 2.738 . S
C362 O374 1.254 . S
C362 O375 1.257 . S
O363 Dy360 2.307 . S
O363 C373 1.266 . S
O364 Dy361 2.298 . S
O364 C373 1.236 . S
O365 Dy360 2.395 . S
O365 C382 1.255 . S
O366 Dy360 2.379 . S
O366 C382 1.249 . S
O367 Dy361 2.275 . S
O367 C383 1.254 . S
O368 Dy360 2.339 . S
O368 C383 1.257 . S
O369 Dy361 2.307 . S
O369 C384 1.266 . S
O370 Dy360 2.298 . S
O370 C384 1.236 . S
O371 Dy361 2.395 . S
O371 C391 1.255 . S
O372 Dy361 2.379 . S
O372 C391 1.249 . S
C373 O363 1.266 . S
C373 O364 1.236 . S
O374 Dy360 2.275 . S
O374 C362 1.254 . S
O375 Dy361 2.339 . S
O375 C362 1.257 . S
C376 C379 1.344 . S
C376 C380 1.328 . S
C376 C382 1.516 . S
C377 C378 1.304 . S
C377 C381 1.323 . S
C378 C377 1.304 . S
C378 C379 1.371 . S
C378 H392 0.930 . S
C379 C376 1.344 . S
C379 C378 1.371 . S
C379 H393 0.931 . S
C380 C376 1.328 . S
C380 C381 1.433 . S
C380 H394 0.931 . S
C381 C377 1.323 . S
C381 C380 1.433 . S
C381 H395 0.933 . S
C382 Dy360 2.738 . S
C382 O365 1.255 . S
C382 O366 1.249 . S
C382 C376 1.516 . S
C383 O367 1.254 . S
C383 O368 1.257 . S
C384 O369 1.266 . S
C384 O370 1.236 . S
C385 C388 1.344 . S
C385 C389 1.328 . S
C385 C391 1.516 . S
C386 C387 1.304 . S
C386 C390 1.323 . S
C387 C386 1.304 . S
C387 C388 1.371 1_545 S
C387 H396 0.930 . S
C388 C385 1.344 . S
C388 C387 1.371 1_565 S
C388 H397 0.931 . S
C389 C385 1.328 . S
C389 C390 1.433 1_565 S
C389 H398 0.931 . S
C390 C386 1.323 . S
C390 C389 1.433 1_545 S
C390 H399 0.933 . S
C391 Dy361 2.738 . S
C391 O371 1.255 . S
C391 O372 1.249 . S
C391 C385 1.516 . S
H392 C378 0.930 . S
H393 C379 0.931 . S
H394 C380 0.931 . S
H395 C381 0.933 . S
H396 C387 0.930 . S
H397 C388 0.931 . S
H398 C389 0.931 . S
H399 C390 0.933 . S
Dy400 O403 2.307 . S
Dy400 O405 2.395 . S
Dy400 O406 2.379 . S
Dy400 O408 2.339 . S
Dy400 O410 2.298 . S
Dy400 O414 2.275 . S
Dy400 C422 2.738 . S
Dy401 O404 2.298 . S
Dy401 O407 2.275 . S
Dy401 O409 2.307 . S
Dy401 O411 2.395 . S
Dy401 O412 2.379 . S
Dy401 O415 2.339 . S
Dy401 C431 2.738 . S
C402 O414 1.254 . S
C402 O415 1.257 . S
O403 Dy400 2.307 . S
O403 C413 1.266 . S
O404 Dy401 2.298 . S
O404 C413 1.236 . S
O405 Dy400 2.395 . S
O405 C422 1.255 . S
O406 Dy400 2.379 . S
O406 C422 1.249 . S
O407 Dy401 2.275 . S
O407 C423 1.254 . S
O408 Dy400 2.339 . S
O408 C423 1.257 . S
O409 Dy401 2.307 . S
O409 C424 1.266 . S
O410 Dy400 2.298 . S
O410 C424 1.236 . S
O411 Dy401 2.395 . S
O411 C431 1.255 . S
O412 Dy401 2.379 . S
O412 C431 1.249 . S
C413 O403 1.266 . S
C413 O404 1.236 . S
O414 Dy400 2.275 . S
O414 C402 1.254 . S
O415 Dy401 2.339 . S
O415 C402 1.257 . S
C416 C419 1.344 . S
C416 C420 1.328 . S
C416 C422 1.516 . S
C417 C418 1.304 . S
C417 C421 1.323 . S
C418 C417 1.304 . S
C418 C419 1.371 . S
C418 H432 0.930 . S
C419 C416 1.344 . S
C419 C418 1.371 . S
C419 H433 0.931 . S
C420 C416 1.328 . S
C420 C421 1.433 . S
C420 H434 0.931 . S
C421 C417 1.323 . S
C421 C420 1.433 . S
C421 H435 0.933 . S
C422 Dy400 2.738 . S
C422 O405 1.255 . S
C422 O406 1.249 . S
C422 C416 1.516 . S
C423 O407 1.254 . S
C423 O408 1.257 . S
C424 O409 1.266 . S
C424 O410 1.236 . S
C425 C428 1.344 . S
C425 C429 1.328 . S
C425 C431 1.516 . S
C426 C427 1.304 . S
C426 C430 1.323 . S
C427 C426 1.304 . S
C427 C428 1.371 . S
C427 H436 0.930 . S
C428 C425 1.344 . S
C428 C427 1.371 . S
C428 H437 0.931 . S
C429 C425 1.328 . S
C429 C430 1.433 . S
C429 H438 0.931 . S
C430 C426 1.323 . S
C430 C429 1.433 . S
C430 H439 0.933 . S
C431 Dy401 2.738 . S
C431 O411 1.255 . S
C431 O412 1.249 . S
C431 C425 1.516 . S
H432 C418 0.930 . S
H433 C419 0.931 . S
H434 C420 0.931 . S
H435 C421 0.933 . S
H436 C427 0.930 . S
H437 C428 0.931 . S
H438 C429 0.931 . S
H439 C430 0.933 . S
Dy440 O443 2.307 . S
Dy440 O445 2.395 . S
Dy440 O446 2.379 . S
Dy440 O448 2.339 . S
Dy440 O450 2.298 . S
Dy440 O454 2.275 . S
Dy440 C462 2.738 . S
Dy441 O444 2.298 . S
Dy441 O447 2.275 . S
Dy441 O449 2.307 . S
Dy441 O451 2.395 . S
Dy441 O452 2.379 . S
Dy441 O455 2.339 . S
Dy441 C471 2.738 . S
C442 O454 1.254 . S
C442 O455 1.257 . S
O443 Dy440 2.307 . S
O443 C453 1.266 . S
O444 Dy441 2.298 . S
O444 C453 1.236 . S
O445 Dy440 2.395 . S
O445 C462 1.255 . S
O446 Dy440 2.379 . S
O446 C462 1.249 . S
O447 Dy441 2.275 . S
O447 C463 1.254 . S
O448 Dy440 2.339 . S
O448 C463 1.257 . S
O449 Dy441 2.307 . S
O449 C464 1.266 . S
O450 Dy440 2.298 . S
O450 C464 1.236 . S
O451 Dy441 2.395 . S
O451 C471 1.255 . S
O452 Dy441 2.379 . S
O452 C471 1.249 . S
C453 O443 1.266 . S
C453 O444 1.236 . S
O454 Dy440 2.275 . S
O454 C442 1.254 . S
O455 Dy441 2.339 . S
O455 C442 1.257 . S
C456 C459 1.344 . S
C456 C460 1.328 . S
C456 C462 1.516 . S
C457 C458 1.304 . S
C457 C461 1.323 . S
C458 C457 1.304 . S
C458 C459 1.371 . S
C458 H472 0.930 . S
C459 C456 1.344 . S
C459 C458 1.371 . S
C459 H473 0.931 . S
C460 C456 1.328 . S
C460 C461 1.433 . S
C460 H474 0.931 . S
C461 C457 1.323 . S
C461 C460 1.433 . S
C461 H475 0.933 . S
C462 Dy440 2.738 . S
C462 O445 1.255 . S
C462 O446 1.249 . S
C462 C456 1.516 . S
C463 O447 1.254 . S
C463 O448 1.257 . S
C464 O449 1.266 . S
C464 O450 1.236 . S
C465 C468 1.344 . S
C465 C469 1.328 . S
C465 C471 1.516 . S
C466 C467 1.304 . S
C466 C470 1.323 . S
C467 C466 1.304 . S
C467 C468 1.371 . S
C467 H476 0.930 . S
C468 C465 1.344 . S
C468 C467 1.371 . S
C468 H477 0.931 . S
C469 C465 1.328 . S
C469 C470 1.433 . S
C469 H478 0.931 . S
C470 C466 1.323 . S
C470 C469 1.433 . S
C470 H479 0.933 . S
C471 Dy441 2.738 . S
C471 O451 1.255 . S
C471 O452 1.249 . S
C471 C465 1.516 . S
H472 C458 0.930 . S
H473 C459 0.931 . S
H474 C460 0.931 . S
H475 C461 0.933 . S
H476 C467 0.930 . S
H477 C468 0.931 . S
H478 C469 0.931 . S
H479 C470 0.933 . S
Dy480 O483 2.307 . S
Dy480 O485 2.395 . S
Dy480 O486 2.379 . S
Dy480 O488 2.339 . S
Dy480 O490 2.298 . S
Dy480 O494 2.275 . S
Dy480 C502 2.738 . S
Dy481 O484 2.298 . S
Dy481 O487 2.275 . S
Dy481 O489 2.307 . S
Dy481 O491 2.395 . S
Dy481 O492 2.379 . S
Dy481 O495 2.339 . S
Dy481 C511 2.738 . S
C482 O494 1.254 . S
C482 O495 1.257 . S
O483 Dy480 2.307 . S
O483 C493 1.266 . S
O484 Dy481 2.298 . S
O484 C493 1.236 . S
O485 Dy480 2.395 . S
O485 C502 1.255 . S
O486 Dy480 2.379 . S
O486 C502 1.249 . S
O487 Dy481 2.275 . S
O487 C503 1.254 . S
O488 Dy480 2.339 . S
O488 C503 1.257 . S
O489 Dy481 2.307 . S
O489 C504 1.266 . S
O490 Dy480 2.298 . S
O490 C504 1.236 . S
O491 Dy481 2.395 . S
O491 C511 1.255 . S
O492 Dy481 2.379 . S
O492 C511 1.249 . S
C493 O483 1.266 . S
C493 O484 1.236 . S
O494 Dy480 2.275 . S
O494 C482 1.254 . S
O495 Dy481 2.339 . S
O495 C482 1.257 . S
C496 C499 1.344 . S
C496 C500 1.328 . S
C496 C502 1.516 . S
C497 C498 1.304 . S
C497 C501 1.323 . S
C498 C497 1.304 . S
C498 C499 1.371 . S
C498 H512 0.930 . S
C499 C496 1.344 . S
C499 C498 1.371 . S
C499 H513 0.931 . S
C500 C496 1.328 . S
C500 C501 1.433 . S
C500 H514 0.931 . S
C501 C497 1.323 . S
C501 C500 1.433 . S
C501 H515 0.933 . S
C502 Dy480 2.738 . S
C502 O485 1.255 . S
C502 O486 1.249 . S
C502 C496 1.516 . S
C503 O487 1.254 . S
C503 O488 1.257 . S
C504 O489 1.266 . S
C504 O490 1.236 . S
C505 C508 1.344 . S
C505 C509 1.328 . S
C505 C511 1.516 . S
C506 C507 1.304 . S
C506 C510 1.323 . S
C507 C506 1.304 . S
C507 C508 1.371 1_455 S
C507 H516 0.930 . S
C508 C505 1.344 . S
C508 C507 1.371 1_655 S
C508 H517 0.931 . S
C509 C505 1.328 . S
C509 C510 1.433 1_655 S
C509 H518 0.931 . S
C510 C506 1.323 . S
C510 C509 1.433 1_455 S
C510 H519 0.933 . S
C511 Dy481 2.738 . S
C511 O491 1.255 . S
C511 O492 1.249 . S
C511 C505 1.516 . S
H512 C498 0.930 . S
H513 C499 0.931 . S
H514 C500 0.931 . S
H515 C501 0.933 . S
H516 C507 0.930 . S
H517 C508 0.931 . S
H518 C509 0.931 . S
H519 C510 0.933 . S
Dy520 O523 2.307 . S
Dy520 O525 2.395 . S
Dy520 O526 2.379 . S
Dy520 O528 2.339 . S
Dy520 O530 2.298 . S
Dy520 O534 2.275 . S
Dy520 C542 2.738 . S
Dy521 O524 2.298 . S
Dy521 O527 2.275 . S
Dy521 O529 2.307 . S
Dy521 O531 2.395 . S
Dy521 O532 2.379 . S
Dy521 O535 2.339 . S
Dy521 C551 2.738 . S
C522 O534 1.254 . S
C522 O535 1.257 . S
O523 Dy520 2.307 . S
O523 C533 1.266 . S
O524 Dy521 2.298 . S
O524 C533 1.236 . S
O525 Dy520 2.395 . S
O525 C542 1.255 . S
O526 Dy520 2.379 . S
O526 C542 1.249 . S
O527 Dy521 2.275 . S
O527 C543 1.254 . S
O528 Dy520 2.339 . S
O528 C543 1.257 . S
O529 Dy521 2.307 . S
O529 C544 1.266 . S
O530 Dy520 2.298 . S
O530 C544 1.236 . S
O531 Dy521 2.395 . S
O531 C551 1.255 . S
O532 Dy521 2.379 . S
O532 C551 1.249 . S
C533 O523 1.266 . S
C533 O524 1.236 . S
O534 Dy520 2.275 . S
O534 C522 1.254 . S
O535 Dy521 2.339 . S
O535 C522 1.257 . S
C536 C539 1.344 . S
C536 C540 1.328 . S
C536 C542 1.516 . S
C537 C538 1.304 . S
C537 C541 1.323 . S
C538 C537 1.304 . S
C538 C539 1.371 . S
C538 H552 0.930 . S
C539 C536 1.344 . S
C539 C538 1.371 . S
C539 H553 0.931 . S
C540 C536 1.328 . S
C540 C541 1.433 . S
C540 H554 0.931 . S
C541 C537 1.323 . S
C541 C540 1.433 . S
C541 H555 0.933 . S
C542 Dy520 2.738 . S
C542 O525 1.255 . S
C542 O526 1.249 . S
C542 C536 1.516 . S
C543 O527 1.254 . S
C543 O528 1.257 . S
C544 O529 1.266 . S
C544 O530 1.236 . S
C545 C548 1.344 . S
C545 C549 1.328 . S
C545 C551 1.516 . S
C546 C547 1.304 . S
C546 C550 1.323 . S
C547 C546 1.304 . S
C547 C548 1.371 . S
C547 H556 0.930 . S
C548 C545 1.344 . S
C548 C547 1.371 . S
C548 H557 0.931 . S
C549 C545 1.328 . S
C549 C550 1.433 . S
C549 H558 0.931 . S
C550 C546 1.323 . S
C550 C549 1.433 . S
C550 H559 0.933 . S
C551 Dy521 2.738 . S
C551 O531 1.255 . S
C551 O532 1.249 . S
C551 C545 1.516 . S
H552 C538 0.930 . S
H553 C539 0.931 . S
H554 C540 0.931 . S
H555 C541 0.933 . S
H556 C547 0.930 . S
H557 C548 0.931 . S
H558 C549 0.931 . S
H559 C550 0.933 . S
Dy560 O563 2.307 . S
Dy560 O565 2.395 . S
Dy560 O566 2.379 . S
Dy560 O568 2.339 . S
Dy560 O570 2.298 . S
Dy560 O574 2.275 . S
Dy560 C582 2.738 . S
Dy561 O564 2.298 . S
Dy561 O567 2.275 . S
Dy561 O569 2.307 . S
Dy561 O571 2.395 . S
Dy561 O572 2.379 . S
Dy561 O575 2.339 . S
Dy561 C591 2.738 . S
C562 O574 1.254 . S
C562 O575 1.257 . S
O563 Dy560 2.307 . S
O563 C573 1.266 . S
O564 Dy561 2.298 . S
O564 C573 1.236 . S
O565 Dy560 2.395 . S
O565 C582 1.255 . S
O566 Dy560 2.379 . S
O566 C582 1.249 . S
O567 Dy561 2.275 . S
O567 C583 1.254 . S
O568 Dy560 2.339 . S
O568 C583 1.257 . S
O569 Dy561 2.307 . S
O569 C584 1.266 . S
O570 Dy560 2.298 . S
O570 C584 1.236 . S
O571 Dy561 2.395 . S
O571 C591 1.255 . S
O572 Dy561 2.379 . S
O572 C591 1.249 . S
C573 O563 1.266 . S
C573 O564 1.236 . S
O574 Dy560 2.275 . S
O574 C562 1.254 . S
O575 Dy561 2.339 . S
O575 C562 1.257 . S
C576 C579 1.344 . S
C576 C580 1.328 . S
C576 C582 1.516 . S
C577 C578 1.304 . S
C577 C581 1.323 . S
C578 C577 1.304 . S
C578 C579 1.371 . S
C578 H592 0.930 . S
C579 C576 1.344 . S
C579 C578 1.371 . S
C579 H593 0.931 . S
C580 C576 1.328 . S
C580 C581 1.433 . S
C580 H594 0.931 . S
C581 C577 1.323 . S
C581 C580 1.433 . S
C581 H595 0.933 . S
C582 Dy560 2.738 . S
C582 O565 1.255 . S
C582 O566 1.249 . S
C582 C576 1.516 . S
C583 O567 1.254 . S
C583 O568 1.257 . S
C584 O569 1.266 . S
C584 O570 1.236 . S
C585 C588 1.344 . S
C585 C589 1.328 . S
C585 C591 1.516 . S
C586 C587 1.304 . S
C586 C590 1.323 . S
C587 C586 1.304 . S
C587 C588 1.371 . S
C587 H596 0.930 . S
C588 C585 1.344 . S
C588 C587 1.371 . S
C588 H597 0.931 . S
C589 C585 1.328 . S
C589 C590 1.433 . S
C589 H598 0.931 . S
C590 C586 1.323 . S
C590 C589 1.433 . S
C590 H599 0.933 . S
C591 Dy561 2.738 . S
C591 O571 1.255 . S
C591 O572 1.249 . S
C591 C585 1.516 . S
H592 C578 0.930 . S
H593 C579 0.931 . S
H594 C580 0.931 . S
H595 C581 0.933 . S
H596 C587 0.930 . S
H597 C588 0.931 . S
H598 C589 0.931 . S
H599 C590 0.933 . S
Dy600 O603 2.307 . S
Dy600 O605 2.395 . S
Dy600 O606 2.379 . S
Dy600 O608 2.339 . S
Dy600 O610 2.298 . S
Dy600 O614 2.275 . S
Dy600 C622 2.738 . S
Dy601 O604 2.298 . S
Dy601 O607 2.275 . S
Dy601 O609 2.307 . S
Dy601 O611 2.395 . S
Dy601 O612 2.379 . S
Dy601 O615 2.339 . S
Dy601 C631 2.738 . S
C602 O614 1.254 . S
C602 O615 1.257 . S
O603 Dy600 2.307 . S
O603 C613 1.266 . S
O604 Dy601 2.298 . S
O604 C613 1.236 . S
O605 Dy600 2.395 . S
O605 C622 1.255 . S
O606 Dy600 2.379 . S
O606 C622 1.249 . S
O607 Dy601 2.275 . S
O607 C623 1.254 . S
O608 Dy600 2.339 . S
O608 C623 1.257 . S
O609 Dy601 2.307 . S
O609 C624 1.266 . S
O610 Dy600 2.298 . S
O610 C624 1.236 . S
O611 Dy601 2.395 . S
O611 C631 1.255 . S
O612 Dy601 2.379 . S
O612 C631 1.249 . S
C613 O603 1.266 . S
C613 O604 1.236 . S
O614 Dy600 2.275 . S
O614 C602 1.254 . S
O615 Dy601 2.339 . S
O615 C602 1.257 . S
C616 C619 1.344 . S
C616 C620 1.328 1_545 S
C616 C622 1.516 . S
C617 C618 1.304 . S
C617 C621 1.323 . S
C618 C617 1.304 . S
C618 C619 1.363 1_565 S
C618 H632 0.930 . S
C619 C616 1.344 . S
C619 C618 1.363 1_545 S
C619 H633 0.939 . S
C620 C616 1.328 1_565 S
C620 C621 1.433 . S
C620 H634 0.931 1_565 S
C621 C617 1.323 . S
C621 C620 1.433 . S
C621 H635 0.933 . S
C622 Dy600 2.738 . S
C622 O605 1.255 . S
C622 O606 1.249 . S
C622 C616 1.516 . S
C623 O607 1.254 . S
C623 O608 1.257 . S
C624 O609 1.266 . S
C624 O610 1.236 . S
C625 C628 1.344 . S
C625 C629 1.328 . S
C625 C631 1.516 . S
C626 C627 1.304 . S
C626 C630 1.323 . S
C627 C626 1.304 . S
C627 C628 1.371 . S
C627 H636 0.930 . S
C628 C625 1.344 . S
C628 C627 1.371 . S
C628 H637 0.931 . S
C629 C625 1.328 . S
C629 C630 1.433 . S
C629 H638 0.931 . S
C630 C626 1.323 . S
C630 C629 1.433 . S
C630 H639 0.933 . S
C631 Dy601 2.738 . S
C631 O611 1.255 . S
C631 O612 1.249 . S
C631 C625 1.516 . S
H632 C618 0.930 . S
H633 C619 0.939 . S
H634 C620 0.931 1_545 S
H635 C621 0.933 . S
H636 C627 0.930 . S
H637 C628 0.931 . S
H638 C629 0.931 . S
H639 C630 0.933 . S
Dy640 O643 2.307 . S
Dy640 O645 2.395 . S
Dy640 O646 2.379 . S
Dy640 O648 2.339 . S
Dy640 O650 2.298 . S
Dy640 O654 2.275 . S
Dy640 C662 2.738 . S
Dy641 O644 2.298 . S
Dy641 O647 2.275 . S
Dy641 O649 2.307 . S
Dy641 O651 2.395 . S
Dy641 O652 2.379 . S
Dy641 O655 2.339 . S
Dy641 C671 2.738 . S
C642 O654 1.254 . S
C642 O655 1.257 . S
O643 Dy640 2.307 . S
O643 C653 1.266 . S
O644 Dy641 2.298 . S
O644 C653 1.236 . S
O645 Dy640 2.395 . S
O645 C662 1.255 . S
O646 Dy640 2.379 . S
O646 C662 1.249 . S
O647 Dy641 2.275 . S
O647 C663 1.254 . S
O648 Dy640 2.339 . S
O648 C663 1.257 . S
O649 Dy641 2.307 . S
O649 C664 1.266 . S
O650 Dy640 2.298 . S
O650 C664 1.236 . S
O651 Dy641 2.395 . S
O651 C671 1.255 . S
O652 Dy641 2.379 . S
O652 C671 1.249 . S
C653 O643 1.266 . S
C653 O644 1.236 . S
O654 Dy640 2.275 . S
O654 C642 1.254 . S
O655 Dy641 2.339 . S
O655 C642 1.257 . S
C656 C659 1.344 . S
C656 C660 1.328 . S
C656 C662 1.516 1_455 S
C657 C658 1.304 . S
C657 C661 1.323 . S
C658 C657 1.304 . S
C658 C659 1.371 . S
C658 H672 0.930 . S
C659 C656 1.344 . S
C659 C658 1.371 . S
C659 H673 0.931 . S
C660 C656 1.328 . S
C660 C661 1.433 . S
C660 H674 0.931 . S
C661 C657 1.323 . S
C661 C660 1.433 . S
C661 H675 0.933 . S
C662 Dy640 2.738 . S
C662 O645 1.255 . S
C662 O646 1.249 . S
C662 C656 1.516 1_655 S
C663 O647 1.254 . S
C663 O648 1.257 . S
C664 O649 1.266 . S
C664 O650 1.236 . S
C665 C668 1.344 . S
C665 C669 1.328 . S
C665 C671 1.516 . S
C666 C667 1.304 . S
C666 C670 1.323 . S
C667 C666 1.304 . S
C667 C668 1.371 . S
C667 H676 0.930 . S
C668 C665 1.344 . S
C668 C667 1.371 . S
C668 H677 0.931 . S
C669 C665 1.328 . S
C669 C670 1.433 . S
C669 H678 0.931 . S
C670 C666 1.323 . S
C670 C669 1.433 . S
C670 H679 0.933 . S
C671 Dy641 2.738 . S
C671 O651 1.255 . S
C671 O652 1.249 . S
C671 C665 1.516 . S
H672 C658 0.930 . S
H673 C659 0.931 . S
H674 C660 0.931 . S
H675 C661 0.933 . S
H676 C667 0.930 . S
H677 C668 0.931 . S
H678 C669 0.931 . S
H679 C670 0.933 . S
Dy680 O683 2.307 . S
Dy680 O685 2.395 . S
Dy680 O686 2.379 . S
Dy680 O688 2.339 . S
Dy680 O690 2.298 . S
Dy680 O694 2.275 . S
Dy680 C702 2.738 . S
Dy681 O684 2.298 . S
Dy681 O687 2.275 . S
Dy681 O689 2.307 . S
Dy681 O691 2.395 . S
Dy681 O692 2.379 . S
Dy681 O695 2.339 . S
Dy681 C711 2.738 . S
C682 O694 1.254 . S
C682 O695 1.257 . S
O683 Dy680 2.307 . S
O683 C693 1.266 . S
O684 Dy681 2.298 . S
O684 C693 1.236 . S
O685 Dy680 2.395 . S
O685 C702 1.255 . S
O686 Dy680 2.379 . S
O686 C702 1.249 . S
O687 Dy681 2.275 . S
O687 C703 1.254 . S
O688 Dy680 2.339 . S
O688 C703 1.257 . S
O689 Dy681 2.307 . S
O689 C704 1.266 . S
O690 Dy680 2.298 . S
O690 C704 1.236 . S
O691 Dy681 2.395 . S
O691 C711 1.255 . S
O692 Dy681 2.379 . S
O692 C711 1.249 . S
C693 O683 1.266 . S
C693 O684 1.236 . S
O694 Dy680 2.275 . S
O694 C682 1.254 . S
O695 Dy681 2.339 . S
O695 C682 1.257 . S
C696 C699 1.344 . S
C696 C700 1.328 . S
C696 C702 1.516 . S
C697 C698 1.304 . S
C697 C701 1.323 . S
C698 C697 1.304 . S
C698 C699 1.371 . S
C698 H712 0.930 . S
C699 C696 1.344 . S
C699 C698 1.371 . S
C699 H713 0.931 . S
C700 C696 1.328 . S
C700 C701 1.433 . S
C700 H714 0.931 . S
C701 C697 1.323 . S
C701 C700 1.433 . S
C701 H715 0.933 . S
C702 Dy680 2.738 . S
C702 O685 1.255 . S
C702 O686 1.249 . S
C702 C696 1.516 . S
C703 O687 1.254 . S
C703 O688 1.257 . S
C704 O689 1.266 . S
C704 O690 1.236 . S
C705 C708 1.344 . S
C705 C709 1.328 . S
C705 C711 1.516 . S
C706 C707 1.304 . S
C706 C710 1.323 . S
C707 C706 1.304 . S
C707 C708 1.371 . S
C707 H716 0.930 . S
C708 C705 1.344 . S
C708 C707 1.371 . S
C708 H717 0.931 . S
C709 C705 1.328 . S
C709 C710 1.433 . S
C709 H718 0.931 . S
C710 C706 1.323 . S
C710 C709 1.433 . S
C710 H719 0.933 . S
C711 Dy681 2.738 . S
C711 O691 1.255 . S
C711 O692 1.249 . S
C711 C705 1.516 . S
H712 C698 0.930 . S
H713 C699 0.931 . S
H714 C700 0.931 . S
H715 C701 0.933 . S
H716 C707 0.930 . S
H717 C708 0.931 . S
H718 C709 0.931 . S
H719 C710 0.933 . S
H720 C728 0.950 . S
H721 C733 0.950 . S
H722 C730 0.950 . S
H723 C732 0.950 . S
H724 C734 0.950 . S
H725 C736 0.950 . S
H726 C738 0.950 . S
H727 C739 0.950 . S
C728 H720 0.950 . S
C728 C729 1.386 . S
C728 C730 1.391 . S
C729 C728 1.386 . S
C729 C733 1.393 . S
C730 H722 0.950 . S
C730 C728 1.391 . S
C730 C731 1.400 . S
C731 C730 1.400 . S
C731 C732 1.398 . S
C731 C737 1.491 . S
C732 H723 0.950 . S
C732 C731 1.398 . S
C732 C733 1.391 . S
C733 H721 0.950 . S
C733 C729 1.393 . S
C733 C732 1.391 . S
C734 H724 0.950 . S
C734 C735 1.386 . S
C734 C736 1.391 . S
C735 C734 1.386 . S
C735 C739 1.393 . S
C736 H725 0.950 . S
C736 C734 1.391 . S
C736 C737 1.400 . S
C737 C731 1.491 . S
C737 C736 1.400 . S
C737 C738 1.398 . S
C738 H726 0.950 . S
C738 C737 1.398 . S
C738 C739 1.391 . S
C739 H727 0.950 . S
C739 C735 1.393 . S
C739 C738 1.391 . S
H740 C748 0.950 . S
H741 C753 0.950 . S
H742 C750 0.950 . S
H743 C752 0.950 . S
H744 C754 0.950 . S
H745 C756 0.950 . S
H746 C758 0.950 . S
H747 C759 0.950 . S
C748 H740 0.950 . S
C748 C749 1.386 . S
C748 C750 1.391 . S
C749 C748 1.386 . S
C749 C753 1.393 . S
C750 H742 0.950 . S
C750 C748 1.391 . S
C750 C751 1.400 . S
C751 C750 1.400 . S
C751 C752 1.398 . S
C751 C757 1.491 . S
C752 H743 0.950 . S
C752 C751 1.398 . S
C752 C753 1.391 . S
C753 H741 0.950 . S
C753 C749 1.393 . S
C753 C752 1.391 . S
C754 H744 0.950 . S
C754 C755 1.386 . S
C754 C756 1.391 . S
C755 C754 1.386 . S
C755 C759 1.393 . S
C756 H745 0.950 . S
C756 C754 1.391 . S
C756 C757 1.400 . S
C757 C751 1.491 . S
C757 C756 1.400 . S
C757 C758 1.398 . S
C758 H746 0.950 . S
C758 C757 1.398 . S
C758 C759 1.391 . S
C759 H747 0.950 . S
C759 C755 1.393 . S
C759 C758 1.391 . S
H760 C768 0.950 . S
H761 C773 0.950 . S
H762 C770 0.950 . S
H763 C772 0.950 . S
H764 C774 0.950 . S
H765 C776 0.950 . S
H766 C778 0.950 . S
H767 C779 0.950 . S
C768 H760 0.950 . S
C768 C769 1.386 . S
C768 C770 1.391 . S
C769 C768 1.386 . S
C769 C773 1.393 . S
C770 H762 0.950 . S
C770 C768 1.391 . S
C770 C771 1.400 . S
C771 C770 1.400 . S
C771 C772 1.398 . S
C771 C777 1.491 . S
C772 H763 0.950 . S
C772 C771 1.398 . S
C772 C773 1.391 . S
C773 H761 0.950 . S
C773 C769 1.393 . S
C773 C772 1.391 . S
C774 H764 0.950 . S
C774 C775 1.386 . S
C774 C776 1.391 . S
C775 C774 1.386 . S
C775 C779 1.393 . S
C776 H765 0.950 . S
C776 C774 1.391 . S
C776 C777 1.400 . S
C777 C771 1.491 . S
C777 C776 1.400 . S
C777 C778 1.398 . S
C778 H766 0.950 . S
C778 C777 1.398 . S
C778 C779 1.391 . S
C779 H767 0.950 . S
C779 C775 1.393 . S
C779 C778 1.391 . S
H780 C788 0.950 . S
H781 C793 0.950 . S
H782 C790 0.950 . S
H783 C792 0.950 . S
H784 C794 0.950 . S
H785 C796 0.950 . S
H786 C798 0.950 . S
H787 C799 0.950 . S
C788 H780 0.950 . S
C788 C789 1.386 . S
C788 C790 1.391 . S
C789 C788 1.386 . S
C789 C793 1.393 . S
C790 H782 0.950 . S
C790 C788 1.391 . S
C790 C791 1.400 . S
C791 C790 1.400 . S
C791 C792 1.398 . S
C791 C797 1.491 . S
C792 H783 0.950 . S
C792 C791 1.398 . S
C792 C793 1.391 . S
C793 H781 0.950 . S
C793 C789 1.393 . S
C793 C792 1.391 . S
C794 H784 0.950 . S
C794 C795 1.386 . S
C794 C796 1.391 . S
C795 C794 1.386 . S
C795 C799 1.393 . S
C796 H785 0.950 . S
C796 C794 1.391 . S
C796 C797 1.400 . S
C797 C791 1.491 . S
C797 C796 1.400 . S
C797 C798 1.398 . S
C798 H786 0.950 . S
C798 C797 1.398 . S
C798 C799 1.391 . S
C799 H787 0.950 . S
C799 C795 1.393 . S
C799 C798 1.391 . S
H800 C808 0.950 . S
H801 C813 0.950 . S
H802 C810 0.950 . S
H803 C812 0.950 . S
H804 C814 0.950 . S
H805 C816 0.950 . S
H806 C818 0.950 . S
H807 C819 0.950 . S
C808 H800 0.950 . S
C808 C809 1.386 . S
C808 C810 1.391 . S
C809 C808 1.386 . S
C809 C813 1.393 . S
C810 H802 0.950 . S
C810 C808 1.391 . S
C810 C811 1.400 . S
C811 C810 1.400 . S
C811 C812 1.398 . S
C811 C817 1.491 . S
C812 H803 0.950 . S
C812 C811 1.398 . S
C812 C813 1.391 . S
C813 H801 0.950 . S
C813 C809 1.393 . S
C813 C812 1.391 . S
C814 H804 0.950 . S
C814 C815 1.386 . S
C814 C816 1.391 . S
C815 C814 1.386 . S
C815 C819 1.393 . S
C816 H805 0.950 . S
C816 C814 1.391 . S
C816 C817 1.400 . S
C817 C811 1.491 . S
C817 C816 1.400 . S
C817 C818 1.398 . S
C818 H806 0.950 . S
C818 C817 1.398 . S
C818 C819 1.391 . S
C819 H807 0.950 . S
C819 C815 1.393 . S
C819 C818 1.391 . S
H820 C828 0.950 . S
H821 C833 0.950 . S
H822 C830 0.950 . S
H823 C832 0.950 . S
H824 C834 0.950 . S
H825 C836 0.950 . S
H826 C838 0.950 . S
H827 C839 0.950 . S
C828 H820 0.950 . S
C828 C829 1.386 . S
C828 C830 1.391 . S
C829 C828 1.386 . S
C829 C833 1.393 . S
C830 H822 0.950 . S
C830 C828 1.391 . S
C830 C831 1.400 . S
C831 C830 1.400 . S
C831 C832 1.398 . S
C831 C837 1.491 . S
C832 H823 0.950 . S
C832 C831 1.398 . S
C832 C833 1.391 . S
C833 H821 0.950 . S
C833 C829 1.393 . S
C833 C832 1.391 . S
C834 H824 0.950 . S
C834 C835 1.386 . S
C834 C836 1.391 . S
C835 C834 1.386 . S
C835 C839 1.393 . S
C836 H825 0.950 . S
C836 C834 1.391 . S
C836 C837 1.400 . S
C837 C831 1.491 . S
C837 C836 1.400 . S
C837 C838 1.398 . S
C838 H826 0.950 . S
C838 C837 1.398 . S
C838 C839 1.391 . S
C839 H827 0.950 . S
C839 C835 1.393 . S
C839 C838 1.391 . S
H840 C848 0.950 . S
H841 C853 0.950 . S
H842 C850 0.950 . S
H843 C852 0.950 . S
H844 C854 0.950 . S
H845 C856 0.950 . S
H846 C858 0.950 . S
H847 C859 0.950 . S
C848 H840 0.950 . S
C848 C849 1.386 . S
C848 C850 1.391 . S
C849 C848 1.386 . S
C849 C853 1.393 . S
C850 H842 0.950 . S
C850 C848 1.391 . S
C850 C851 1.400 . S
C851 C850 1.400 . S
C851 C852 1.398 . S
C851 C857 1.491 . S
C852 H843 0.950 . S
C852 C851 1.398 . S
C852 C853 1.391 . S
C853 H841 0.950 . S
C853 C849 1.393 . S
C853 C852 1.391 . S
C854 H844 0.950 . S
C854 C855 1.386 . S
C854 C856 1.391 . S
C855 C854 1.386 . S
C855 C859 1.393 . S
C856 H845 0.950 . S
C856 C854 1.391 . S
C856 C857 1.400 . S
C857 C851 1.491 . S
C857 C856 1.400 . S
C857 C858 1.398 . S
C858 H846 0.950 . S
C858 C857 1.398 . S
C858 C859 1.391 . S
C859 H847 0.950 . S
C859 C855 1.393 . S
C859 C858 1.391 . S
H860 C868 0.950 . S
H861 C873 0.950 . S
H862 C870 0.950 . S
H863 C872 0.950 . S
H864 C874 0.950 . S
H865 C876 0.950 . S
H866 C878 0.950 . S
H867 C879 0.950 . S
C868 H860 0.950 . S
C868 C869 1.386 . S
C868 C870 1.391 . S
C869 C868 1.386 . S
C869 C873 1.393 . S
C870 H862 0.950 . S
C870 C868 1.391 . S
C870 C871 1.400 . S
C871 C870 1.400 . S
C871 C872 1.398 . S
C871 C877 1.491 1_545 S
C872 H863 0.950 . S
C872 C871 1.398 . S
C872 C873 1.391 . S
C873 H861 0.950 . S
C873 C869 1.393 . S
C873 C872 1.391 . S
C874 H864 0.950 . S
C874 C875 1.386 . S
C874 C876 1.391 . S
C875 C874 1.386 . S
C875 C879 1.393 . S
C876 H865 0.950 . S
C876 C874 1.391 . S
C876 C877 1.400 . S
C877 C871 1.491 1_565 S
C877 C876 1.400 . S
C877 C878 1.398 . S
C878 H866 0.950 . S
C878 C877 1.398 . S
C878 C879 1.391 . S
C879 H867 0.950 . S
C879 C875 1.393 . S
C879 C878 1.391 . S
H880 C888 0.950 . S
H881 C893 0.950 . S
H882 C890 0.950 . S
H883 C892 0.950 . S
H884 C894 0.950 . S
H885 C896 0.950 . S
H886 C898 0.950 1_455 S
H887 C899 0.950 . S
C888 H880 0.950 . S
C888 C889 1.386 . S
C888 C890 1.391 . S
C889 C888 1.386 . S
C889 C893 1.393 . S
C890 H882 0.950 . S
C890 C888 1.391 . S
C890 C891 1.400 . S
C891 C890 1.400 . S
C891 C892 1.398 . S
C891 C897 1.491 . S
C892 H883 0.950 . S
C892 C891 1.398 . S
C892 C893 1.391 . S
C893 H881 0.950 . S
C893 C889 1.393 . S
C893 C892 1.391 . S
C894 H884 0.950 . S
C894 C895 1.386 . S
C894 C896 1.391 . S
C895 C894 1.386 . S
C895 C899 1.393 . S
C896 H885 0.950 . S
C896 C894 1.391 . S
C896 C897 1.400 1_655 S
C897 C891 1.491 . S
C897 C896 1.400 1_455 S
C897 C898 1.398 1_455 S
C898 H886 0.950 1_655 S
C898 C897 1.398 1_655 S
C898 C899 1.391 . S
C899 H887 0.950 . S
C899 C895 1.393 . S
C899 C898 1.391 . S
H900 C908 0.950 . S
H901 C913 0.950 . S
H902 C910 0.950 . S
H903 C912 0.950 . S
H904 C914 0.950 . S
H905 C916 0.950 . S
H906 C918 0.950 . S
H907 C919 0.950 . S
C908 H900 0.950 . S
C908 C909 1.386 . S
C908 C910 1.391 . S
C909 C908 1.386 . S
C909 C913 1.393 . S
C910 H902 0.950 . S
C910 C908 1.391 . S
C910 C911 1.400 . S
C911 C910 1.400 . S
C911 C912 1.398 . S
C911 C917 1.491 . S
C912 H903 0.950 . S
C912 C911 1.398 . S
C912 C913 1.391 . S
C913 H901 0.950 . S
C913 C909 1.393 . S
C913 C912 1.391 . S
C914 H904 0.950 . S
C914 C915 1.386 . S
C914 C916 1.391 . S
C915 C914 1.386 . S
C915 C919 1.393 . S
C916 H905 0.950 . S
C916 C914 1.391 . S
C916 C917 1.400 . S
C917 C911 1.491 . S
C917 C916 1.400 . S
C917 C918 1.398 . S
C918 H906 0.950 . S
C918 C917 1.398 . S
C918 C919 1.391 . S
C919 H907 0.950 . S
C919 C915 1.393 . S
C919 C918 1.391 . S
H920 C928 0.950 . S
H921 C933 0.950 . S
H922 C930 0.950 . S
H923 C932 0.950 . S
H924 C934 0.950 . S
H925 C936 0.950 . S
H926 C938 0.950 . S
H927 C939 0.950 . S
C928 H920 0.950 . S
C928 C929 1.386 . S
C928 C930 1.391 . S
C929 C928 1.386 . S
C929 C933 1.393 . S
C930 H922 0.950 . S
C930 C928 1.391 . S
C930 C931 1.400 . S
C931 C930 1.400 . S
C931 C932 1.398 . S
C931 C937 1.491 . S
C932 H923 0.950 . S
C932 C931 1.398 . S
C932 C933 1.391 . S
C933 H921 0.950 . S
C933 C929 1.393 . S
C933 C932 1.391 . S
C934 H924 0.950 . S
C934 C935 1.386 . S
C934 C936 1.391 . S
C935 C934 1.386 . S
C935 C939 1.393 . S
C936 H925 0.950 . S
C936 C934 1.391 . S
C936 C937 1.400 . S
C937 C931 1.491 . S
C937 C936 1.400 . S
C937 C938 1.398 . S
C938 H926 0.950 . S
C938 C937 1.398 . S
C938 C939 1.391 . S
C939 H927 0.950 . S
C939 C935 1.393 . S
C939 C938 1.391 . S
H940 C948 0.950 . S
H941 C953 0.950 . S
H942 C950 0.950 . S
H943 C952 0.950 . S
H944 C954 0.950 . S
H945 C956 0.950 . S
H946 C958 0.950 . S
H947 C959 0.950 . S
C948 H940 0.950 . S
C948 C949 1.386 . S
C948 C950 1.391 . S
C949 C948 1.386 . S
C949 C953 1.393 . S
C950 H942 0.950 . S
C950 C948 1.391 . S
C950 C951 1.400 . S
C951 C950 1.400 . S
C951 C952 1.398 . S
C951 C957 1.491 . S
C952 H943 0.950 . S
C952 C951 1.398 . S
C952 C953 1.391 . S
C953 H941 0.950 . S
C953 C949 1.393 . S
C953 C952 1.391 . S
C954 H944 0.950 . S
C954 C955 1.386 . S
C954 C956 1.391 . S
C955 C954 1.386 . S
C955 C959 1.393 . S
C956 H945 0.950 . S
C956 C954 1.391 . S
C956 C957 1.400 . S
C957 C951 1.491 . S
C957 C956 1.400 . S
C957 C958 1.398 . S
C958 H946 0.950 . S
C958 C957 1.398 . S
C958 C959 1.391 . S
C959 H947 0.950 . S
C959 C955 1.393 . S
C959 C958 1.391 . S
H960 C968 0.950 . S
H961 C973 0.950 . S
H962 C970 0.950 . S
H963 C972 0.950 . S
H964 C974 0.950 . S
H965 C976 0.950 . S
H966 C978 0.950 . S
H967 C979 0.950 . S
C968 H960 0.950 . S
C968 C969 1.386 . S
C968 C970 1.391 . S
C969 C968 1.386 . S
C969 C973 1.393 . S
C970 H962 0.950 . S
C970 C968 1.391 . S
C970 C971 1.400 . S
C971 C970 1.400 . S
C971 C972 1.398 . S
C971 C977 1.491 . S
C972 H963 0.950 . S
C972 C971 1.398 . S
C972 C973 1.391 . S
C973 H961 0.950 . S
C973 C969 1.393 . S
C973 C972 1.391 . S
C974 H964 0.950 . S
C974 C975 1.386 . S
C974 C976 1.391 . S
C975 C974 1.386 . S
C975 C979 1.393 . S
C976 H965 0.950 . S
C976 C974 1.391 . S
C976 C977 1.400 . S
C977 C971 1.491 . S
C977 C976 1.400 . S
C977 C978 1.398 . S
C978 H966 0.950 . S
C978 C977 1.398 . S
C978 C979 1.391 . S
C979 H967 0.950 . S
C979 C975 1.393 . S
C979 C978 1.391 . S
H980 C988 0.950 . S
H981 C993 0.950 . S
H982 C990 0.950 . S
H983 C992 0.950 . S
H984 C994 0.950 . S
H985 C996 0.950 . S
H986 C998 0.950 . S
H987 C999 0.950 . S
C988 H980 0.950 . S
C988 C989 1.386 . S
C988 C990 1.391 . S
C989 C988 1.386 . S
C989 C993 1.393 . S
C990 H982 0.950 . S
C990 C988 1.391 . S
C990 C991 1.400 . S
C991 C990 1.400 . S
C991 C992 1.398 . S
C991 C997 1.491 . S
C992 H983 0.950 . S
C992 C991 1.398 . S
C992 C993 1.391 . S
C993 H981 0.950 . S
C993 C989 1.393 . S
C993 C992 1.391 . S
C994 H984 0.950 . S
C994 C995 1.386 . S
C994 C996 1.391 . S
C995 C994 1.386 . S
C995 C999 1.393 . S
C996 H985 0.950 . S
C996 C994 1.391 . S
C996 C997 1.400 . S
C997 C991 1.491 . S
C997 C996 1.400 . S
C997 C998 1.398 . S
C998 H986 0.950 . S
C998 C997 1.398 . S
C998 C999 1.391 . S
C999 H987 0.950 . S
C999 C995 1.393 . S
C999 C998 1.391 . S
H1000 C1008 0.950 . S
H1001 C1013 0.950 . S
H1002 C1010 0.950 . S
H1003 C1012 0.950 . S
H1004 C1014 0.950 . S
H1005 C1016 0.950 . S
H1006 C1018 0.950 . S
H1007 C1019 0.950 . S
C1008 H1000 0.950 . S
C1008 C1009 1.386 . S
C1008 C1010 1.391 . S
C1009 C1008 1.386 . S
C1009 C1013 1.393 . S
C1010 H1002 0.950 . S
C1010 C1008 1.391 . S
C1010 C1011 1.400 . S
C1011 C1010 1.400 . S
C1011 C1012 1.398 . S
C1011 C1017 1.491 . S
C1012 H1003 0.950 . S
C1012 C1011 1.398 . S
C1012 C1013 1.391 . S
C1013 H1001 0.950 . S
C1013 C1009 1.393 . S
C1013 C1012 1.391 . S
C1014 H1004 0.950 . S
C1014 C1015 1.386 . S
C1014 C1016 1.391 . S
C1015 C1014 1.386 . S
C1015 C1019 1.393 . S
C1016 H1005 0.950 . S
C1016 C1014 1.391 . S
C1016 C1017 1.400 . S
C1017 C1011 1.491 . S
C1017 C1016 1.400 . S
C1017 C1018 1.398 . S
C1018 H1006 0.950 . S
C1018 C1017 1.398 . S
C1018 C1019 1.391 . S
C1019 H1007 0.950 . S
C1019 C1015 1.393 . S
C1019 C1018 1.391 . S
H1020 C1028 0.950 . S
H1021 C1033 0.950 . S
H1022 C1030 0.950 . S
H1023 C1032 0.950 . S
H1024 C1034 0.950 . S
H1025 C1036 0.950 . S
H1026 C1038 0.950 . S
H1027 C1039 0.950 . S
C1028 H1020 0.950 . S
C1028 C1029 1.386 . S
C1028 C1030 1.391 . S
C1029 C1028 1.386 . S
C1029 C1033 1.393 . S
C1030 H1022 0.950 . S
C1030 C1028 1.391 . S
C1030 C1031 1.400 . S
C1031 C1030 1.400 . S
C1031 C1032 1.398 . S
C1031 C1037 1.491 . S
C1032 H1023 0.950 . S
C1032 C1031 1.398 . S
C1032 C1033 1.391 . S
C1033 H1021 0.950 . S
C1033 C1029 1.393 . S
C1033 C1032 1.391 . S
C1034 H1024 0.950 . S
C1034 C1035 1.386 . S
C1034 C1036 1.391 . S
C1035 C1034 1.386 . S
C1035 C1039 1.393 . S
C1036 H1025 0.950 . S
C1036 C1034 1.391 . S
C1036 C1037 1.400 . S
C1037 C1031 1.491 . S
C1037 C1036 1.400 . S
C1037 C1038 1.398 . S
C1038 H1026 0.950 . S
C1038 C1037 1.398 . S
C1038 C1039 1.391 . S
C1039 H1027 0.950 . S
C1039 C1035 1.393 . S
C1039 C1038 1.391 . S
H1040 C1048 0.950 . S
H1041 C1053 0.950 . S
H1042 C1050 0.950 1_545 S
H1043 C1052 0.950 . S
H1044 C1054 0.950 . S
H1045 C1056 0.950 . S
H1046 C1058 0.950 . S
H1047 C1059 0.950 . S
C1048 H1040 0.950 . S
C1048 C1049 1.386 . S
C1048 C1050 1.391 . S
C1049 C1048 1.386 . S
C1049 C1053 1.393 . S
C1050 H1042 0.950 1_565 S
C1050 C1048 1.391 . S
C1050 C1051 1.400 1_565 S
C1051 C1050 1.400 1_545 S
C1051 C1052 1.398 1_545 S
C1051 C1057 1.491 . S
C1052 H1043 0.950 . S
C1052 C1051 1.398 1_565 S
C1052 C1053 1.391 . S
C1053 H1041 0.950 . S
C1053 C1049 1.393 . S
C1053 C1052 1.391 . S
C1054 H1044 0.950 . S
C1054 C1055 1.386 . S
C1054 C1056 1.391 . S
C1055 C1054 1.386 . S
C1055 C1059 1.393 . S
C1056 H1045 0.950 . S
C1056 C1054 1.391 . S
C1056 C1057 1.400 . S
C1057 C1051 1.491 . S
C1057 C1056 1.400 . S
C1057 C1058 1.398 . S
C1058 H1046 0.950 . S
C1058 C1057 1.398 . S
C1058 C1059 1.391 . S
C1059 H1047 0.950 . S
C1059 C1055 1.393 . S
C1059 C1058 1.391 . S
H1060 C1068 0.950 . S
H1061 C1073 0.950 . S
H1062 C1070 0.950 . S
H1063 C1072 0.950 . S
H1064 C1074 0.950 . S
H1065 C1076 0.950 . S
H1066 C1078 0.950 . S
H1067 C1079 0.950 . S
C1068 H1060 0.950 . S
C1068 C1069 1.386 . S
C1068 C1070 1.391 . S
C1069 C1068 1.386 . S
C1069 C1073 1.393 . S
C1070 H1062 0.950 . S
C1070 C1068 1.391 . S
C1070 C1071 1.400 . S
C1071 C1070 1.400 . S
C1071 C1072 1.398 . S
C1071 C1077 1.491 1_455 S
C1072 H1063 0.950 . S
C1072 C1071 1.398 . S
C1072 C1073 1.391 . S
C1073 H1061 0.950 . S
C1073 C1069 1.393 . S
C1073 C1072 1.391 . S
C1074 H1064 0.950 . S
C1074 C1075 1.386 . S
C1074 C1076 1.391 . S
C1075 C1074 1.386 . S
C1075 C1079 1.393 . S
C1076 H1065 0.950 . S
C1076 C1074 1.391 . S
C1076 C1077 1.400 . S
C1077 C1071 1.491 1_655 S
C1077 C1076 1.400 . S
C1077 C1078 1.398 . S
C1078 H1066 0.950 . S
C1078 C1077 1.398 . S
C1078 C1079 1.391 . S
C1079 H1067 0.950 . S
C1079 C1075 1.393 . S
C1079 C1078 1.391 . S
H1080 C1088 0.950 . S
H1081 C1093 0.950 . S
H1082 C1090 0.950 . S
H1083 C1092 0.950 . S
H1084 C1094 0.950 . S
H1085 C1096 0.950 . S
H1086 C1098 0.950 . S
H1087 C1099 0.950 . S
C1088 H1080 0.950 . S
C1088 C1089 1.386 1_565 S
C1088 C1090 1.391 . S
C1089 C1088 1.386 1_545 S
C1089 C1093 1.393 . S
C1090 H1082 0.950 . S
C1090 C1088 1.391 . S
C1090 C1091 1.400 1_565 S
C1091 C1090 1.400 1_545 S
C1091 C1092 1.398 . S
C1091 C1097 1.491 1_554 S
C1092 H1083 0.950 . S
C1092 C1091 1.398 . S
C1092 C1093 1.391 . S
C1093 H1081 0.950 . S
C1093 C1089 1.393 . S
C1093 C1092 1.391 . S
C1094 H1084 0.950 . S
C1094 C1095 1.386 . S
C1094 C1096 1.391 . S
C1095 C1094 1.386 . S
C1095 C1099 1.393 1_545 S
C1096 H1085 0.950 . S
C1096 C1094 1.391 . S
C1096 C1097 1.400 . S
C1097 C1091 1.491 1_556 S
C1097 C1096 1.400 . S
C1097 C1098 1.398 1_545 S
C1098 H1086 0.950 . S
C1098 C1097 1.398 1_565 S
C1098 C1099 1.391 . S
C1099 H1087 0.950 . S
C1099 C1095 1.393 1_565 S
C1099 C1098 1.391 . S
H1100 C1108 0.950 . S
H1101 C1113 0.950 . S
H1102 C1110 0.950 . S
H1103 C1112 0.950 . S
H1104 C1114 0.950 . S
H1105 C1116 0.950 . S
H1106 C1118 0.950 . S
H1107 C1119 0.950 . S
C1108 H1100 0.950 . S
C1108 C1109 1.386 . S
C1108 C1110 1.391 . S
C1109 C1108 1.386 . S
C1109 C1113 1.393 . S
C1110 H1102 0.950 . S
C1110 C1108 1.391 . S
C1110 C1111 1.400 . S
C1111 C1110 1.400 . S
C1111 C1112 1.398 . S
C1111 C1117 1.491 1_556 S
C1112 H1103 0.950 . S
C1112 C1111 1.398 . S
C1112 C1113 1.391 . S
C1113 H1101 0.950 . S
C1113 C1109 1.393 . S
C1113 C1112 1.391 . S
C1114 H1104 0.950 . S
C1114 C1115 1.386 . S
C1114 C1116 1.391 . S
C1115 C1114 1.386 . S
C1115 C1119 1.393 . S
C1116 H1105 0.950 . S
C1116 C1114 1.391 . S
C1116 C1117 1.400 . S
C1117 C1111 1.491 1_554 S
C1117 C1116 1.400 . S
C1117 C1118 1.398 . S
C1118 H1106 0.950 . S
C1118 C1117 1.398 . S
C1118 C1119 1.391 . S
C1119 H1107 0.950 . S
C1119 C1115 1.393 . S
C1119 C1118 1.391 . S
H1120 C1128 0.950 . S
H1121 C1133 0.950 . S
H1122 C1130 0.950 . S
H1123 C1132 0.950 . S
H1124 C1134 0.950 . S
H1125 C1136 0.950 . S
H1126 C1138 0.950 . S
H1127 C1139 0.950 . S
C1128 H1120 0.950 . S
C1128 C1129 1.386 . S
C1128 C1130 1.391 . S
C1129 C1128 1.386 . S
C1129 C1133 1.393 . S
C1130 H1122 0.950 . S
C1130 C1128 1.391 . S
C1130 C1131 1.400 . S
C1131 C1130 1.400 . S
C1131 C1132 1.398 . S
C1131 C1137 1.491 1_556 S
C1132 H1123 0.950 . S
C1132 C1131 1.398 . S
C1132 C1133 1.391 . S
C1133 H1121 0.950 . S
C1133 C1129 1.393 . S
C1133 C1132 1.391 . S
C1134 H1124 0.950 . S
C1134 C1135 1.386 . S
C1134 C1136 1.391 . S
C1135 C1134 1.386 . S
C1135 C1139 1.393 . S
C1136 H1125 0.950 . S
C1136 C1134 1.391 . S
C1136 C1137 1.400 . S
C1137 C1131 1.491 1_554 S
C1137 C1136 1.400 . S
C1137 C1138 1.398 . S
C1138 H1126 0.950 . S
C1138 C1137 1.398 . S
C1138 C1139 1.391 . S
C1139 H1127 0.950 . S
C1139 C1135 1.393 . S
C1139 C1138 1.391 . S
H1140 C1148 0.950 . S
H1141 C1153 0.950 . S
H1142 C1150 0.950 . S
H1143 C1152 0.950 . S
H1144 C1154 0.950 . S
H1145 C1156 0.950 . S
H1146 C1158 0.950 . S
H1147 C1159 0.950 . S
C1148 H1140 0.950 . S
C1148 C1149 1.386 . S
C1148 C1150 1.391 . S
C1149 C1148 1.386 . S
C1149 C1153 1.393 . S
C1150 H1142 0.950 . S
C1150 C1148 1.391 . S
C1150 C1151 1.400 . S
C1151 C1150 1.400 . S
C1151 C1152 1.398 . S
C1151 C1157 1.491 . S
C1152 H1143 0.950 . S
C1152 C1151 1.398 . S
C1152 C1153 1.391 . S
C1153 H1141 0.950 . S
C1153 C1149 1.393 . S
C1153 C1152 1.391 . S
C1154 H1144 0.950 . S
C1154 C1155 1.386 . S
C1154 C1156 1.391 . S
C1155 C1154 1.386 . S
C1155 C1159 1.393 . S
C1156 H1145 0.950 . S
C1156 C1154 1.391 . S
C1156 C1157 1.400 . S
C1157 C1151 1.491 . S
C1157 C1156 1.400 . S
C1157 C1158 1.398 . S
C1158 H1146 0.950 . S
C1158 C1157 1.398 . S
C1158 C1159 1.391 . S
C1159 H1147 0.950 . S
C1159 C1155 1.393 . S
C1159 C1158 1.391 . S
H1160 C1168 0.950 . S
H1161 C1173 0.950 . S
H1162 C1170 0.950 . S
H1163 C1172 0.950 . S
H1164 C1174 0.950 . S
H1165 C1176 0.950 . S
H1166 C1178 0.950 . S
H1167 C1179 0.950 . S
C1168 H1160 0.950 . S
C1168 C1169 1.386 . S
C1168 C1170 1.391 . S
C1169 C1168 1.386 . S
C1169 C1173 1.393 . S
C1170 H1162 0.950 . S
C1170 C1168 1.391 . S
C1170 C1171 1.400 . S
C1171 C1170 1.400 . S
C1171 C1172 1.398 . S
C1171 C1177 1.491 . S
C1172 H1163 0.950 . S
C1172 C1171 1.398 . S
C1172 C1173 1.391 . S
C1173 H1161 0.950 . S
C1173 C1169 1.393 . S
C1173 C1172 1.391 . S
C1174 H1164 0.950 . S
C1174 C1175 1.386 . S
C1174 C1176 1.391 . S
C1175 C1174 1.386 . S
C1175 C1179 1.393 . S
C1176 H1165 0.950 . S
C1176 C1174 1.391 . S
C1176 C1177 1.400 . S
C1177 C1171 1.491 . S
C1177 C1176 1.400 . S
C1177 C1178 1.398 . S
C1178 H1166 0.950 . S
C1178 C1177 1.398 . S
C1178 C1179 1.391 . S
C1179 H1167 0.950 . S
C1179 C1175 1.393 . S
C1179 C1178 1.391 . S
H1180 C1188 0.950 . S
H1181 C1193 0.950 . S
H1182 C1190 0.950 . S
H1183 C1192 0.950 . S
H1184 C1194 0.950 . S
H1185 C1196 0.950 . S
H1186 C1198 0.950 . S
H1187 C1199 0.950 . S
C1188 H1180 0.950 . S
C1188 C1189 1.386 . S
C1188 C1190 1.391 . S
C1189 C1188 1.386 . S
C1189 C1193 1.393 . S
C1190 H1182 0.950 . S
C1190 C1188 1.391 . S
C1190 C1191 1.400 . S
C1191 C1190 1.400 . S
C1191 C1192 1.398 . S
C1191 C1197 1.491 . S
C1192 H1183 0.950 . S
C1192 C1191 1.398 . S
C1192 C1193 1.391 . S
C1193 H1181 0.950 . S
C1193 C1189 1.393 . S
C1193 C1192 1.391 . S
C1194 H1184 0.950 . S
C1194 C1195 1.386 . S
C1194 C1196 1.391 . S
C1195 C1194 1.386 . S
C1195 C1199 1.393 . S
C1196 H1185 0.950 . S
C1196 C1194 1.391 . S
C1196 C1197 1.400 . S
C1197 C1191 1.491 . S
C1197 C1196 1.400 . S
C1197 C1198 1.398 . S
C1198 H1186 0.950 . S
C1198 C1197 1.398 . S
C1198 C1199 1.391 . S
C1199 H1187 0.950 . S
C1199 C1195 1.393 . S
C1199 C1198 1.391 . S
H1200 C1208 0.950 . S
H1201 C1213 0.950 . S
H1202 C1210 0.950 . S
H1203 C1212 0.950 . S
H1204 C1214 0.950 . S
H1205 C1216 0.950 . S
H1206 C1218 0.950 . S
H1207 C1219 0.950 . S
C1208 H1200 0.950 . S
C1208 C1209 1.386 . S
C1208 C1210 1.391 . S
C1209 C1208 1.386 . S
C1209 C1213 1.393 . S
C1210 H1202 0.950 . S
C1210 C1208 1.391 . S
C1210 C1211 1.400 . S
C1211 C1210 1.400 . S
C1211 C1212 1.398 . S
C1211 C1217 1.491 . S
C1212 H1203 0.950 . S
C1212 C1211 1.398 . S
C1212 C1213 1.391 . S
C1213 H1201 0.950 . S
C1213 C1209 1.393 . S
C1213 C1212 1.391 . S
C1214 H1204 0.950 . S
C1214 C1215 1.386 . S
C1214 C1216 1.391 . S
C1215 C1214 1.386 . S
C1215 C1219 1.393 . S
C1216 H1205 0.950 . S
C1216 C1214 1.391 . S
C1216 C1217 1.400 . S
C1217 C1211 1.491 . S
C1217 C1216 1.400 . S
C1217 C1218 1.398 . S
C1218 H1206 0.950 . S
C1218 C1217 1.398 . S
C1218 C1219 1.391 . S
C1219 H1207 0.950 . S
C1219 C1215 1.393 . S
C1219 C1218 1.391 . S
H1220 C1228 0.950 . S
H1221 C1233 0.950 . S
H1222 C1230 0.950 . S
H1223 C1232 0.950 . S
H1224 C1234 0.950 . S
H1225 C1236 0.950 . S
H1226 C1238 0.950 . S
H1227 C1239 0.950 . S
C1228 H1220 0.950 . S
C1228 C1229 1.386 . S
C1228 C1230 1.391 . S
C1229 C1228 1.386 . S
C1229 C1233 1.393 . S
C1230 H1222 0.950 . S
C1230 C1228 1.391 . S
C1230 C1231 1.400 . S
C1231 C1230 1.400 . S
C1231 C1232 1.398 . S
C1231 C1237 1.491 . S
C1232 H1223 0.950 . S
C1232 C1231 1.398 . S
C1232 C1233 1.391 . S
C1233 H1221 0.950 . S
C1233 C1229 1.393 . S
C1233 C1232 1.391 . S
C1234 H1224 0.950 . S
C1234 C1235 1.386 . S
C1234 C1236 1.391 . S
C1235 C1234 1.386 . S
C1235 C1239 1.393 . S
C1236 H1225 0.950 . S
C1236 C1234 1.391 . S
C1236 C1237 1.400 . S
C1237 C1231 1.491 . S
C1237 C1236 1.400 . S
C1237 C1238 1.398 . S
C1238 H1226 0.950 . S
C1238 C1237 1.398 . S
C1238 C1239 1.391 . S
C1239 H1227 0.950 . S
C1239 C1235 1.393 . S
C1239 C1238 1.391 . S
H1240 C1248 0.950 . S
H1241 C1253 0.950 . S
H1242 C1250 0.950 . S
H1243 C1252 0.950 . S
H1244 C1254 0.950 . S
H1245 C1256 0.950 . S
H1246 C1258 0.950 . S
H1247 C1259 0.950 . S
C1248 H1240 0.950 . S
C1248 C1249 1.386 . S
C1248 C1250 1.391 . S
C1249 C1248 1.386 . S
C1249 C1253 1.393 . S
C1250 H1242 0.950 . S
C1250 C1248 1.391 . S
C1250 C1251 1.400 . S
C1251 C1250 1.400 . S
C1251 C1252 1.398 . S
C1251 C1257 1.491 . S
C1252 H1243 0.950 . S
C1252 C1251 1.398 . S
C1252 C1253 1.391 . S
C1253 H1241 0.950 . S
C1253 C1249 1.393 . S
C1253 C1252 1.391 . S
C1254 H1244 0.950 . S
C1254 C1255 1.386 . S
C1254 C1256 1.391 . S
C1255 C1254 1.386 . S
C1255 C1259 1.393 . S
C1256 H1245 0.950 . S
C1256 C1254 1.391 . S
C1256 C1257 1.400 . S
C1257 C1251 1.491 . S
C1257 C1256 1.400 . S
C1257 C1258 1.398 . S
C1258 H1246 0.950 . S
C1258 C1257 1.398 . S
C1258 C1259 1.391 . S
C1259 H1247 0.950 . S
C1259 C1255 1.393 . S
C1259 C1258 1.391 . S
H1260 C1268 0.950 . S
H1261 C1273 0.950 . S
H1262 C1270 0.950 . S
H1263 C1272 0.950 . S
H1264 C1274 0.950 . S
H1265 C1276 0.950 . S
H1266 C1278 0.950 . S
H1267 C1279 0.950 1_545 S
C1268 H1260 0.950 . S
C1268 C1269 1.386 . S
C1268 C1270 1.391 . S
C1269 C1268 1.386 . S
C1269 C1273 1.393 . S
C1270 H1262 0.950 . S
C1270 C1268 1.391 . S
C1270 C1271 1.400 . S
C1271 C1270 1.400 . S
C1271 C1272 1.398 . S
C1271 C1277 1.491 . S
C1272 H1263 0.950 . S
C1272 C1271 1.398 . S
C1272 C1273 1.391 . S
C1273 H1261 0.950 . S
C1273 C1269 1.393 . S
C1273 C1272 1.391 . S
C1274 H1264 0.950 . S
C1274 C1275 1.386 . S
C1274 C1276 1.391 . S
C1275 C1274 1.386 . S
C1275 C1279 1.393 . S
C1276 H1265 0.950 . S
C1276 C1274 1.391 . S
C1276 C1277 1.400 . S
C1277 C1271 1.491 . S
C1277 C1276 1.400 . S
C1277 C1278 1.398 . S
C1278 H1266 0.950 . S
C1278 C1277 1.398 . S
C1278 C1279 1.391 . S
C1279 H1267 0.950 1_565 S
C1279 C1275 1.393 . S
C1279 C1278 1.391 . S
H1280 C1288 0.950 . S
H1281 C1293 0.950 . S
H1282 C1290 0.950 . S
H1283 C1292 0.950 . S
H1284 C1294 0.950 . S
H1285 C1296 0.950 . S
H1286 C1298 0.950 . S
H1287 C1299 0.950 . S
C1288 H1280 0.950 . S
C1288 C1289 1.386 . S
C1288 C1290 1.391 . S
C1289 C1288 1.386 . S
C1289 C1293 1.393 . S
C1290 H1282 0.950 . S
C1290 C1288 1.391 . S
C1290 C1291 1.400 . S
C1291 C1290 1.400 . S
C1291 C1292 1.398 . S
C1291 C1297 1.491 . S
C1292 H1283 0.950 . S
C1292 C1291 1.398 . S
C1292 C1293 1.391 . S
C1293 H1281 0.950 . S
C1293 C1289 1.393 . S
C1293 C1292 1.391 . S
C1294 H1284 0.950 . S
C1294 C1295 1.386 . S
C1294 C1296 1.391 . S
C1295 C1294 1.386 . S
C1295 C1299 1.393 . S
C1296 H1285 0.950 . S
C1296 C1294 1.391 . S
C1296 C1297 1.400 . S
C1297 C1291 1.491 . S
C1297 C1296 1.400 . S
C1297 C1298 1.398 . S
C1298 H1286 0.950 . S
C1298 C1297 1.398 . S
C1298 C1299 1.391 . S
C1299 H1287 0.950 . S
C1299 C1295 1.393 . S
C1299 C1298 1.391 . S
H1300 C1308 0.950 . S
H1301 C1313 0.950 . S
H1302 C1310 0.950 . S
H1303 C1312 0.950 . S
H1304 C1314 0.950 . S
H1305 C1316 0.950 . S
H1306 C1318 0.950 . S
H1307 C1319 0.950 . S
C1308 H1300 0.950 . S
C1308 C1309 1.386 . S
C1308 C1310 1.391 . S
C1309 C1308 1.386 . S
C1309 C1313 1.393 . S
C1310 H1302 0.950 . S
C1310 C1308 1.391 . S
C1310 C1311 1.400 . S
C1311 C1310 1.400 . S
C1311 C1312 1.398 . S
C1311 C1317 1.491 . S
C1312 H1303 0.950 . S
C1312 C1311 1.398 . S
C1312 C1313 1.391 . S
C1313 H1301 0.950 . S
C1313 C1309 1.393 . S
C1313 C1312 1.391 . S
C1314 H1304 0.950 . S
C1314 C1315 1.386 . S
C1314 C1316 1.391 . S
C1315 C1314 1.386 . S
C1315 C1319 1.393 . S
C1316 H1305 0.950 . S
C1316 C1314 1.391 . S
C1316 C1317 1.400 . S
C1317 C1311 1.491 . S
C1317 C1316 1.400 . S
C1317 C1318 1.398 . S
C1318 H1306 0.950 . S
C1318 C1317 1.398 . S
C1318 C1319 1.391 . S
C1319 H1307 0.950 . S
C1319 C1315 1.393 . S
C1319 C1318 1.391 . S
H1320 C1328 0.950 . S
H1321 C1333 0.950 . S
H1322 C1330 0.950 . S
H1323 C1332 0.950 . S
H1324 C1334 0.950 . S
H1325 C1336 0.950 . S
H1326 C1338 0.950 . S
H1327 C1339 0.950 . S
C1328 H1320 0.950 . S
C1328 C1329 1.386 . S
C1328 C1330 1.391 . S
C1329 C1328 1.386 . S
C1329 C1333 1.393 . S
C1330 H1322 0.950 . S
C1330 C1328 1.391 . S
C1330 C1331 1.400 . S
C1331 C1330 1.400 . S
C1331 C1332 1.398 . S
C1331 C1337 1.491 . S
C1332 H1323 0.950 . S
C1332 C1331 1.398 . S
C1332 C1333 1.391 . S
C1333 H1321 0.950 . S
C1333 C1329 1.393 . S
C1333 C1332 1.391 . S
C1334 H1324 0.950 . S
C1334 C1335 1.386 . S
C1334 C1336 1.391 . S
C1335 C1334 1.386 . S
C1335 C1339 1.393 . S
C1336 H1325 0.950 . S
C1336 C1334 1.391 . S
C1336 C1337 1.400 . S
C1337 C1331 1.491 . S
C1337 C1336 1.400 . S
C1337 C1338 1.398 . S
C1338 H1326 0.950 . S
C1338 C1337 1.398 . S
C1338 C1339 1.391 . S
C1339 H1327 0.950 . S
C1339 C1335 1.393 . S
C1339 C1338 1.391 . S
H1340 C1348 0.950 . S
H1341 C1353 0.950 . S
H1342 C1350 0.950 . S
H1343 C1352 0.950 . S
H1344 C1354 0.950 . S
H1345 C1356 0.950 . S
H1346 C1358 0.950 . S
H1347 C1359 0.950 . S
C1348 H1340 0.950 . S
C1348 C1349 1.386 . S
C1348 C1350 1.391 . S
C1349 C1348 1.386 . S
C1349 C1353 1.393 . S
C1350 H1342 0.950 . S
C1350 C1348 1.391 . S
C1350 C1351 1.400 . S
C1351 C1350 1.400 . S
C1351 C1352 1.398 . S
C1351 C1357 1.491 . S
C1352 H1343 0.950 . S
C1352 C1351 1.398 . S
C1352 C1353 1.391 . S
C1353 H1341 0.950 . S
C1353 C1349 1.393 . S
C1353 C1352 1.391 . S
C1354 H1344 0.950 . S
C1354 C1355 1.386 . S
C1354 C1356 1.391 . S
C1355 C1354 1.386 . S
C1355 C1359 1.393 . S
C1356 H1345 0.950 . S
C1356 C1354 1.391 . S
C1356 C1357 1.400 . S
C1357 C1351 1.491 . S
C1357 C1356 1.400 . S
C1357 C1358 1.398 . S
C1358 H1346 0.950 . S
C1358 C1357 1.398 . S
C1358 C1359 1.391 . S
C1359 H1347 0.950 . S
C1359 C1355 1.393 . S
C1359 C1358 1.391 . S
H1360 C1368 0.950 . S
H1361 C1373 0.950 . S
H1362 C1370 0.950 . S
H1363 C1372 0.950 . S
H1364 C1374 0.950 . S
H1365 C1376 0.950 . S
H1366 C1378 0.950 . S
H1367 C1379 0.950 . S
C1368 H1360 0.950 . S
C1368 C1369 1.386 . S
C1368 C1370 1.391 . S
C1369 C1368 1.386 . S
C1369 C1373 1.393 . S
C1370 H1362 0.950 . S
C1370 C1368 1.391 . S
C1370 C1371 1.400 . S
C1371 C1370 1.400 . S
C1371 C1372 1.398 . S
C1371 C1377 1.491 . S
C1372 H1363 0.950 . S
C1372 C1371 1.398 . S
C1372 C1373 1.391 . S
C1373 H1361 0.950 . S
C1373 C1369 1.393 . S
C1373 C1372 1.391 . S
C1374 H1364 0.950 . S
C1374 C1375 1.386 . S
C1374 C1376 1.391 . S
C1375 C1374 1.386 . S
C1375 C1379 1.393 . S
C1376 H1365 0.950 . S
C1376 C1374 1.391 . S
C1376 C1377 1.400 . S
C1377 C1371 1.491 . S
C1377 C1376 1.400 . S
C1377 C1378 1.398 . S
C1378 H1366 0.950 . S
C1378 C1377 1.398 . S
C1378 C1379 1.391 . S
C1379 H1367 0.950 . S
C1379 C1375 1.393 . S
C1379 C1378 1.391 . S
H1380 C1388 0.950 . S
H1381 C1393 0.950 . S
H1382 C1390 0.950 . S
H1383 C1392 0.950 . S
H1384 C1394 0.950 . S
H1385 C1396 0.950 . S
H1386 C1398 0.950 . S
H1387 C1399 0.950 . S
C1388 H1380 0.950 . S
C1388 C1389 1.386 . S
C1388 C1390 1.391 . S
C1389 C1388 1.386 . S
C1389 C1393 1.393 . S
C1390 H1382 0.950 . S
C1390 C1388 1.391 . S
C1390 C1391 1.400 1_655 S
C1391 C1390 1.400 1_455 S
C1391 C1392 1.398 1_455 S
C1391 C1397 1.491 . S
C1392 H1383 0.950 . S
C1392 C1391 1.398 1_655 S
C1392 C1393 1.391 . S
C1393 H1381 0.950 . S
C1393 C1389 1.393 . S
C1393 C1392 1.391 . S
C1394 H1384 0.950 . S
C1394 C1395 1.386 . S
C1394 C1396 1.391 . S
C1395 C1394 1.386 . S
C1395 C1399 1.393 . S
C1396 H1385 0.950 . S
C1396 C1394 1.391 . S
C1396 C1397 1.400 . S
C1397 C1391 1.491 . S
C1397 C1396 1.400 . S
C1397 C1398 1.398 . S
C1398 H1386 0.950 . S
C1398 C1397 1.398 . S
C1398 C1399 1.391 . S
C1399 H1387 0.950 . S
C1399 C1395 1.393 . S
C1399 C1398 1.391 . S
H1400 C1408 0.950 . S
H1401 C1413 0.950 . S
H1402 C1410 0.950 . S
H1403 C1412 0.950 . S
H1404 C1414 0.950 . S
H1405 C1416 0.950 . S
H1406 C1418 0.950 . S
H1407 C1419 0.950 . S
C1408 H1400 0.950 . S
C1408 C1409 1.386 . S
C1408 C1410 1.391 . S
C1409 C1408 1.386 . S
C1409 C1413 1.393 . S
C1410 H1402 0.950 . S
C1410 C1408 1.391 . S
C1410 C1411 1.400 . S
C1411 C1410 1.400 . S
C1411 C1412 1.398 . S
C1411 C1417 1.491 . S
C1412 H1403 0.950 . S
C1412 C1411 1.398 . S
C1412 C1413 1.391 . S
C1413 H1401 0.950 . S
C1413 C1409 1.393 . S
C1413 C1412 1.391 . S
C1414 H1404 0.950 . S
C1414 C1415 1.386 . S
C1414 C1416 1.391 . S
C1415 C1414 1.386 . S
C1415 C1419 1.393 . S
C1416 H1405 0.950 . S
C1416 C1414 1.391 . S
C1416 C1417 1.400 . S
C1417 C1411 1.491 . S
C1417 C1416 1.400 . S
C1417 C1418 1.398 . S
C1418 H1406 0.950 . S
C1418 C1417 1.398 . S
C1418 C1419 1.391 . S
C1419 H1407 0.950 . S
C1419 C1415 1.393 . S
C1419 C1418 1.391 . S
H1420 C1428 0.950 . S
H1421 C1433 0.950 . S
H1422 C1430 0.950 . S
H1423 C1432 0.950 . S
H1424 C1434 0.950 . S
H1425 C1436 0.950 . S
H1426 C1438 0.950 . S
H1427 C1439 0.950 . S
C1428 H1420 0.950 . S
C1428 C1429 1.386 . S
C1428 C1430 1.391 1_565 S
C1429 C1428 1.386 . S
C1429 C1433 1.393 . S
C1430 H1422 0.950 . S
C1430 C1428 1.391 1_545 S
C1430 C1431 1.400 . S
C1431 C1430 1.400 . S
C1431 C1432 1.398 1_545 S
C1431 C1437 1.491 . S
C1432 H1423 0.950 . S
C1432 C1431 1.398 1_565 S
C1432 C1433 1.391 . S
C1433 H1421 0.950 . S
C1433 C1429 1.393 . S
C1433 C1432 1.391 . S
C1434 H1424 0.950 . S
C1434 C1435 1.386 . S
C1434 C1436 1.391 . S
C1435 C1434 1.386 . S
C1435 C1439 1.393 . S
C1436 H1425 0.950 . S
C1436 C1434 1.391 . S
C1436 C1437 1.400 . S
C1437 C1431 1.491 . S
C1437 C1436 1.400 . S
C1437 C1438 1.398 . S
C1438 H1426 0.950 . S
C1438 C1437 1.398 . S
C1438 C1439 1.391 . S
C1439 H1427 0.950 . S
C1439 C1435 1.393 . S
C1439 C1438 1.391 . S
H1440 C1448 0.950 . S
H1441 C1453 0.950 . S
H1442 C1450 0.950 . S
H1443 C1452 0.950 . S
H1444 C1454 0.950 . S
H1445 C1456 0.950 . S
H1446 C1458 0.950 . S
H1447 C1459 0.950 . S
C1448 H1440 0.950 . S
C1448 C1449 1.386 . S
C1448 C1450 1.391 . S
C1449 C1448 1.386 . S
C1449 C1453 1.393 . S
C1450 H1442 0.950 . S
C1450 C1448 1.391 . S
C1450 C1451 1.400 . S
C1451 C1450 1.400 . S
C1451 C1452 1.398 . S
C1451 C1457 1.491 . S
C1452 H1443 0.950 . S
C1452 C1451 1.398 . S
C1452 C1453 1.391 . S
C1453 H1441 0.950 . S
C1453 C1449 1.393 . S
C1453 C1452 1.391 . S
C1454 H1444 0.950 . S
C1454 C1455 1.386 . S
C1454 C1456 1.391 . S
C1455 C1454 1.386 . S
C1455 C1459 1.393 . S
C1456 H1445 0.950 . S
C1456 C1454 1.391 . S
C1456 C1457 1.400 . S
C1457 C1451 1.491 . S
C1457 C1456 1.400 . S
C1457 C1458 1.398 . S
C1458 H1446 0.950 . S
C1458 C1457 1.398 . S
C1458 C1459 1.391 . S
C1459 H1447 0.950 . S
C1459 C1455 1.393 . S
C1459 C1458 1.391 . S
H1460 C1468 0.950 . S
H1461 C1473 0.950 . S
H1462 C1470 0.950 . S
H1463 C1472 0.950 . S
H1464 C1474 0.950 . S
H1465 C1476 0.950 . S
H1466 C1478 0.950 . S
H1467 C1479 0.950 . S
C1468 H1460 0.950 . S
C1468 C1469 1.386 . S
C1468 C1470 1.391 . S
C1469 C1468 1.386 . S
C1469 C1473 1.393 . S
C1470 H1462 0.950 . S
C1470 C1468 1.391 . S
C1470 C1471 1.400 . S
C1471 C1470 1.400 . S
C1471 C1472 1.398 . S
C1471 C1477 1.491 . S
C1472 H1463 0.950 . S
C1472 C1471 1.398 . S
C1472 C1473 1.391 . S
C1473 H1461 0.950 . S
C1473 C1469 1.393 . S
C1473 C1472 1.391 . S
C1474 H1464 0.950 . S
C1474 C1475 1.386 . S
C1474 C1476 1.391 . S
C1475 C1474 1.386 . S
C1475 C1479 1.393 . S
C1476 H1465 0.950 . S
C1476 C1474 1.391 . S
C1476 C1477 1.400 . S
C1477 C1471 1.491 . S
C1477 C1476 1.400 . S
C1477 C1478 1.398 . S
C1478 H1466 0.950 . S
C1478 C1477 1.398 . S
C1478 C1479 1.391 . S
C1479 H1467 0.950 . S
C1479 C1475 1.393 . S
C1479 C1478 1.391 . S
H1480 C1488 0.950 . S
H1481 C1493 0.950 . S
H1482 C1490 0.950 . S
H1483 C1492 0.950 . S
H1484 C1494 0.950 . S
H1485 C1496 0.950 . S
H1486 C1498 0.950 . S
H1487 C1499 0.950 . S
C1488 H1480 0.950 . S
C1488 C1489 1.386 . S
C1488 C1490 1.391 . S
C1489 C1488 1.386 . S
C1489 C1493 1.393 . S
C1490 H1482 0.950 . S
C1490 C1488 1.391 . S
C1490 C1491 1.400 . S
C1491 C1490 1.400 . S
C1491 C1492 1.398 . S
C1491 C1497 1.491 . S
C1492 H1483 0.950 . S
C1492 C1491 1.398 . S
C1492 C1493 1.391 . S
C1493 H1481 0.950 . S
C1493 C1489 1.393 . S
C1493 C1492 1.391 . S
C1494 H1484 0.950 . S
C1494 C1495 1.386 . S
C1494 C1496 1.391 . S
C1495 C1494 1.386 . S
C1495 C1499 1.393 . S
C1496 H1485 0.950 . S
C1496 C1494 1.391 . S
C1496 C1497 1.400 . S
C1497 C1491 1.491 . S
C1497 C1496 1.400 . S
C1497 C1498 1.398 . S
C1498 H1486 0.950 . S
C1498 C1497 1.398 . S
C1498 C1499 1.391 . S
C1499 H1487 0.950 . S
C1499 C1495 1.393 . S
C1499 C1498 1.391 . S
H1500 C1508 0.950 . S
H1501 C1513 0.950 . S
H1502 C1510 0.950 . S
H1503 C1512 0.950 . S
H1504 C1514 0.950 . S
H1505 C1516 0.950 . S
H1506 C1518 0.950 . S
H1507 C1519 0.950 . S
C1508 H1500 0.950 . S
C1508 C1509 1.386 . S
C1508 C1510 1.391 . S
C1509 C1508 1.386 . S
C1509 C1513 1.393 . S
C1510 H1502 0.950 . S
C1510 C1508 1.391 . S
C1510 C1511 1.400 . S
C1511 C1510 1.400 . S
C1511 C1512 1.398 . S
C1511 C1517 1.491 . S
C1512 H1503 0.950 . S
C1512 C1511 1.398 . S
C1512 C1513 1.391 . S
C1513 H1501 0.950 . S
C1513 C1509 1.393 . S
C1513 C1512 1.391 . S
C1514 H1504 0.950 . S
C1514 C1515 1.386 . S
C1514 C1516 1.391 . S
C1515 C1514 1.386 . S
C1515 C1519 1.393 . S
C1516 H1505 0.950 . S
C1516 C1514 1.391 . S
C1516 C1517 1.400 . S
C1517 C1511 1.491 . S
C1517 C1516 1.400 . S
C1517 C1518 1.398 . S
C1518 H1506 0.950 . S
C1518 C1517 1.398 . S
C1518 C1519 1.391 . S
C1519 H1507 0.950 . S
C1519 C1515 1.393 . S
C1519 C1518 1.391 . S
H1520 C1528 0.950 . S
H1521 C1533 0.950 . S
H1522 C1530 0.950 . S
H1523 C1532 0.950 . S
H1524 C1534 0.950 . S
H1525 C1536 0.950 . S
H1526 C1538 0.950 . S
H1527 C1539 0.950 . S
C1528 H1520 0.950 . S
C1528 C1529 1.386 . S
C1528 C1530 1.391 . S
C1529 C1528 1.386 . S
C1529 C1533 1.393 . S
C1530 H1522 0.950 . S
C1530 C1528 1.391 . S
C1530 C1531 1.400 . S
C1531 C1530 1.400 . S
C1531 C1532 1.398 . S
C1531 C1537 1.491 . S
C1532 H1523 0.950 . S
C1532 C1531 1.398 . S
C1532 C1533 1.391 . S
C1533 H1521 0.950 . S
C1533 C1529 1.393 . S
C1533 C1532 1.391 . S
C1534 H1524 0.950 . S
C1534 C1535 1.386 . S
C1534 C1536 1.391 . S
C1535 C1534 1.386 . S
C1535 C1539 1.393 . S
C1536 H1525 0.950 . S
C1536 C1534 1.391 . S
C1536 C1537 1.400 . S
C1537 C1531 1.491 . S
C1537 C1536 1.400 . S
C1537 C1538 1.398 . S
C1538 H1526 0.950 . S
C1538 C1537 1.398 . S
C1538 C1539 1.391 . S
C1539 H1527 0.950 . S
C1539 C1535 1.393 . S
C1539 C1538 1.391 . S
H1540 C1548 0.950 . S
H1541 C1553 0.950 . S
H1542 C1550 0.950 . S
H1543 C1552 0.950 . S
H1544 C1554 0.950 . S
H1545 C1556 0.950 . S
H1546 C1558 0.950 . S
H1547 C1559 0.950 . S
C1548 H1540 0.950 . S
C1548 C1549 1.386 . S
C1548 C1550 1.391 . S
C1549 C1548 1.386 . S
C1549 C1553 1.393 . S
C1550 H1542 0.950 . S
C1550 C1548 1.391 . S
C1550 C1551 1.400 . S
C1551 C1550 1.400 . S
C1551 C1552 1.398 . S
C1551 C1557 1.491 . S
C1552 H1543 0.950 . S
C1552 C1551 1.398 . S
C1552 C1553 1.391 . S
C1553 H1541 0.950 . S
C1553 C1549 1.393 . S
C1553 C1552 1.391 . S
C1554 H1544 0.950 . S
C1554 C1555 1.386 . S
C1554 C1556 1.391 . S
C1555 C1554 1.386 . S
C1555 C1559 1.393 . S
C1556 H1545 0.950 . S
C1556 C1554 1.391 . S
C1556 C1557 1.400 . S
C1557 C1551 1.491 . S
C1557 C1556 1.400 . S
C1557 C1558 1.398 . S
C1558 H1546 0.950 . S
C1558 C1557 1.398 . S
C1558 C1559 1.391 . S
C1559 H1547 0.950 . S
C1559 C1555 1.393 . S
C1559 C1558 1.391 . S
H1560 C1568 0.950 . S
H1561 C1573 0.950 . S
H1562 C1570 0.950 . S
H1563 C1572 0.950 . S
H1564 C1574 0.950 . S
H1565 C1576 0.950 . S
H1566 C1578 0.950 . S
H1567 C1579 0.950 . S
C1568 H1560 0.950 . S
C1568 C1569 1.386 . S
C1568 C1570 1.391 . S
C1569 C1568 1.386 . S
C1569 C1573 1.393 . S
C1570 H1562 0.950 . S
C1570 C1568 1.391 . S
C1570 C1571 1.400 . S
C1571 C1570 1.400 . S
C1571 C1572 1.398 . S
C1571 C1577 1.491 . S
C1572 H1563 0.950 . S
C1572 C1571 1.398 . S
C1572 C1573 1.391 . S
C1573 H1561 0.950 . S
C1573 C1569 1.393 . S
C1573 C1572 1.391 . S
C1574 H1564 0.950 . S
C1574 C1575 1.386 . S
C1574 C1576 1.391 . S
C1575 C1574 1.386 . S
C1575 C1579 1.393 . S
C1576 H1565 0.950 . S
C1576 C1574 1.391 . S
C1576 C1577 1.400 . S
C1577 C1571 1.491 . S
C1577 C1576 1.400 . S
C1577 C1578 1.398 . S
C1578 H1566 0.950 . S
C1578 C1577 1.398 . S
C1578 C1579 1.391 . S
C1579 H1567 0.950 . S
C1579 C1575 1.393 . S
C1579 C1578 1.391 . S
H1580 C1588 0.950 . S
H1581 C1593 0.950 . S
H1582 C1590 0.950 . S
H1583 C1592 0.950 . S
H1584 C1594 0.950 . S
H1585 C1596 0.950 . S
H1586 C1598 0.950 . S
H1587 C1599 0.950 . S
C1588 H1580 0.950 . S
C1588 C1589 1.386 . S
C1588 C1590 1.391 . S
C1589 C1588 1.386 . S
C1589 C1593 1.393 . S
C1590 H1582 0.950 . S
C1590 C1588 1.391 . S
C1590 C1591 1.400 . S
C1591 C1590 1.400 . S
C1591 C1592 1.398 . S
C1591 C1597 1.491 . S
C1592 H1583 0.950 . S
C1592 C1591 1.398 . S
C1592 C1593 1.391 . S
C1593 H1581 0.950 . S
C1593 C1589 1.393 . S
C1593 C1592 1.391 . S
C1594 H1584 0.950 . S
C1594 C1595 1.386 . S
C1594 C1596 1.391 . S
C1595 C1594 1.386 . S
C1595 C1599 1.393 . S
C1596 H1585 0.950 . S
C1596 C1594 1.391 . S
C1596 C1597 1.400 . S
C1597 C1591 1.491 . S
C1597 C1596 1.400 . S
C1597 C1598 1.398 . S
C1598 H1586 0.950 . S
C1598 C1597 1.398 . S
C1598 C1599 1.391 . S
C1599 H1587 0.950 . S
C1599 C1595 1.393 . S
C1599 C1598 1.391 . S
H1600 C1608 0.950 . S
H1601 C1613 0.950 . S
H1602 C1610 0.950 . S
H1603 C1612 0.950 . S
H1604 C1614 0.950 . S
H1605 C1616 0.950 . S
H1606 C1618 0.950 . S
H1607 C1619 0.950 . S
C1608 H1600 0.950 . S
C1608 C1609 1.386 . S
C1608 C1610 1.391 . S
C1609 C1608 1.386 . S
C1609 C1613 1.393 . S
C1610 H1602 0.950 . S
C1610 C1608 1.391 . S
C1610 C1611 1.400 . S
C1611 C1610 1.400 . S
C1611 C1612 1.398 . S
C1611 C1617 1.491 . S
C1612 H1603 0.950 . S
C1612 C1611 1.398 . S
C1612 C1613 1.391 . S
C1613 H1601 0.950 . S
C1613 C1609 1.393 . S
C1613 C1612 1.391 . S
C1614 H1604 0.950 . S
C1614 C1615 1.386 . S
C1614 C1616 1.391 . S
C1615 C1614 1.386 . S
C1615 C1619 1.393 . S
C1616 H1605 0.950 . S
C1616 C1614 1.391 . S
C1616 C1617 1.400 . S
C1617 C1611 1.491 . S
C1617 C1616 1.400 . S
C1617 C1618 1.398 . S
C1618 H1606 0.950 . S
C1618 C1617 1.398 . S
C1618 C1619 1.391 . S
C1619 H1607 0.950 . S
C1619 C1615 1.393 . S
C1619 C1618 1.391 . S
H1620 C1628 0.950 . S
H1621 C1633 0.950 . S
H1622 C1630 0.950 . S
H1623 C1632 0.950 . S
H1624 C1634 0.950 . S
H1625 C1636 0.950 . S
H1626 C1638 0.950 . S
H1627 C1639 0.950 . S
C1628 H1620 0.950 . S
C1628 C1629 1.386 . S
C1628 C1630 1.391 . S
C1629 C1628 1.386 . S
C1629 C1633 1.393 . S
C1630 H1622 0.950 . S
C1630 C1628 1.391 . S
C1630 C1631 1.400 . S
C1631 C1630 1.400 . S
C1631 C1632 1.398 . S
C1631 C1637 1.491 . S
C1632 H1623 0.950 . S
C1632 C1631 1.398 . S
C1632 C1633 1.391 . S
C1633 H1621 0.950 . S
C1633 C1629 1.393 . S
C1633 C1632 1.391 . S
C1634 H1624 0.950 . S
C1634 C1635 1.386 . S
C1634 C1636 1.391 . S
C1635 C1634 1.386 . S
C1635 C1639 1.393 . S
C1636 H1625 0.950 . S
C1636 C1634 1.391 . S
C1636 C1637 1.400 . S
C1637 C1631 1.491 . S
C1637 C1636 1.400 . S
C1637 C1638 1.398 . S
C1638 H1626 0.950 . S
C1638 C1637 1.398 . S
C1638 C1639 1.391 . S
C1639 H1627 0.950 . S
C1639 C1635 1.393 . S
C1639 C1638 1.391 . S
H1640 C1648 0.950 . S
H1641 C1653 0.950 . S
H1642 C1650 0.950 . S
H1643 C1652 0.950 . S
H1644 C1654 0.950 . S
H1645 C1656 0.950 . S
H1646 C1658 0.950 . S
H1647 C1659 0.950 . S
C1648 H1640 0.950 . S
C1648 C1649 1.386 . S
C1648 C1650 1.391 . S
C1649 C1648 1.386 . S
C1649 C1653 1.393 1_565 S
C1650 H1642 0.950 . S
C1650 C1648 1.391 . S
C1650 C1651 1.400 1_565 S
C1651 C1650 1.400 1_545 S
C1651 C1652 1.398 . S
C1651 C1657 1.491 . S
C1652 H1643 0.950 . S
C1652 C1651 1.398 . S
C1652 C1653 1.391 . S
C1653 H1641 0.950 . S
C1653 C1649 1.393 1_545 S
C1653 C1652 1.391 . S
C1654 H1644 0.950 . S
C1654 C1655 1.386 . S
C1654 C1656 1.391 . S
C1655 C1654 1.386 . S
C1655 C1659 1.393 . S
C1656 H1645 0.950 . S
C1656 C1654 1.391 . S
C1656 C1657 1.400 . S
C1657 C1651 1.491 . S
C1657 C1656 1.400 . S
C1657 C1658 1.398 . S
C1658 H1646 0.950 . S
C1658 C1657 1.398 . S
C1658 C1659 1.391 . S
C1659 H1647 0.950 . S
C1659 C1655 1.393 . S
C1659 C1658 1.391 . S
H1660 C1668 0.950 . S
H1661 C1673 0.950 . S
H1662 C1670 0.950 . S
H1663 C1672 0.950 1_455 S
H1664 C1674 0.950 . S
H1665 C1676 0.950 . S
H1666 C1678 0.950 1_655 S
H1667 C1679 0.950 . S
C1668 H1660 0.950 . S
C1668 C1669 1.386 . S
C1668 C1670 1.391 . S
C1669 C1668 1.386 . S
C1669 C1673 1.393 . S
C1670 H1662 0.950 . S
C1670 C1668 1.391 . S
C1670 C1671 1.400 . S
C1671 C1670 1.400 . S
C1671 C1672 1.398 . S
C1671 C1677 1.491 1_655 S
C1672 H1663 0.950 1_655 S
C1672 C1671 1.398 . S
C1672 C1673 1.391 . S
C1673 H1661 0.950 . S
C1673 C1669 1.393 . S
C1673 C1672 1.391 . S
C1674 H1664 0.950 . S
C1674 C1675 1.386 . S
C1674 C1676 1.391 . S
C1675 C1674 1.386 . S
C1675 C1679 1.393 . S
C1676 H1665 0.950 . S
C1676 C1674 1.391 . S
C1676 C1677 1.400 . S
C1677 C1671 1.491 1_455 S
C1677 C1676 1.400 . S
C1677 C1678 1.398 . S
C1678 H1666 0.950 1_455 S
C1678 C1677 1.398 . S
C1678 C1679 1.391 . S
C1679 H1667 0.950 . S
C1679 C1675 1.393 . S
C1679 C1678 1.391 . S
H1680 C1688 0.950 . S
H1681 C1693 0.950 . S
H1682 C1690 0.950 . S
H1683 C1692 0.950 . S
H1684 C1694 0.950 . S
H1685 C1696 0.950 . S
H1686 C1698 0.950 . S
H1687 C1699 0.950 . S
C1688 H1680 0.950 . S
C1688 C1689 1.386 . S
C1688 C1690 1.391 . S
C1689 C1688 1.386 . S
C1689 C1693 1.393 . S
C1690 H1682 0.950 . S
C1690 C1688 1.391 . S
C1690 C1691 1.400 . S
C1691 C1690 1.400 . S
C1691 C1692 1.398 . S
C1691 C1697 1.491 . S
C1692 H1683 0.950 . S
C1692 C1691 1.398 . S
C1692 C1693 1.391 . S
C1693 H1681 0.950 . S
C1693 C1689 1.393 . S
C1693 C1692 1.391 . S
C1694 H1684 0.950 . S
C1694 C1695 1.386 . S
C1694 C1696 1.391 . S
C1695 C1694 1.386 . S
C1695 C1699 1.393 . S
C1696 H1685 0.950 . S
C1696 C1694 1.391 . S
C1696 C1697 1.400 . S
C1697 C1691 1.491 . S
C1697 C1696 1.400 . S
C1697 C1698 1.398 . S
C1698 H1686 0.950 . S
C1698 C1697 1.398 . S
C1698 C1699 1.391 . S
C1699 H1687 0.950 . S
C1699 C1695 1.393 . S
C1699 C1698 1.391 . S
H1700 C1708 0.950 . S
H1701 C1713 0.950 . S
H1702 C1710 0.950 . S
H1703 C1712 0.963 . S
H1704 C1714 0.950 . S
H1705 C1716 0.950 . S
H1706 C1718 0.950 1_545 S
H1707 C1719 0.950 . S
C1708 H1700 0.950 . S
C1708 C1709 1.386 . S
C1708 C1710 1.391 . S
C1709 C1708 1.386 . S
C1709 C1713 1.393 . S
C1710 H1702 0.950 . S
C1710 C1708 1.391 . S
C1710 C1711 1.400 . S
C1711 C1710 1.400 . S
C1711 C1712 1.390 1_545 S
C1711 C1717 1.491 1_545 S
C1712 H1703 0.963 . S
C1712 C1711 1.390 1_565 S
C1712 C1713 1.386 1_565 S
C1713 H1701 0.950 . S
C1713 C1709 1.393 . S
C1713 C1712 1.386 1_545 S
C1714 H1704 0.950 . S
C1714 C1715 1.386 . S
C1714 C1716 1.391 . S
C1715 C1714 1.386 . S
C1715 C1719 1.393 . S
C1716 H1705 0.950 . S
C1716 C1714 1.391 . S
C1716 C1717 1.400 . S
C1717 C1711 1.491 1_565 S
C1717 C1716 1.400 . S
C1717 C1718 1.398 . S
C1718 H1706 0.950 1_565 S
C1718 C1717 1.398 . S
C1718 C1719 1.391 . S
C1719 H1707 0.950 . S
C1719 C1715 1.393 . S
C1719 C1718 1.391 . S
H1720 C1728 0.950 . S
H1721 C1733 0.950 . S
H1722 C1730 0.950 . S
H1723 C1732 0.950 . S
H1724 C1734 0.950 . S
H1725 C1736 0.950 . S
H1726 C1738 0.950 . S
H1727 C1739 0.950 . S
C1728 H1720 0.950 . S
C1728 C1729 1.386 . S
C1728 C1730 1.391 . S
C1729 C1728 1.386 . S
C1729 C1733 1.393 . S
C1730 H1722 0.950 . S
C1730 C1728 1.391 . S
C1730 C1731 1.400 . S
C1731 C1730 1.400 . S
C1731 C1732 1.398 . S
C1731 C1737 1.491 . S
C1732 H1723 0.950 . S
C1732 C1731 1.398 . S
C1732 C1733 1.391 . S
C1733 H1721 0.950 . S
C1733 C1729 1.393 . S
C1733 C1732 1.391 . S
C1734 H1724 0.950 . S
C1734 C1735 1.386 1_455 S
C1734 C1736 1.391 . S
C1735 C1734 1.386 1_655 S
C1735 C1739 1.393 . S
C1736 H1725 0.950 . S
C1736 C1734 1.391 . S
C1736 C1737 1.400 . S
C1737 C1731 1.491 . S
C1737 C1736 1.400 . S
C1737 C1738 1.398 1_455 S
C1738 H1726 0.950 . S
C1738 C1737 1.398 1_655 S
C1738 C1739 1.391 . S
C1739 H1727 0.950 . S
C1739 C1735 1.393 . S
C1739 C1738 1.391 . S
H1740 C1748 0.950 . S
H1741 C1753 0.950 . S
H1742 C1750 0.950 . S
H1743 C1752 0.950 . S
H1744 C1754 0.950 . S
H1745 C1756 0.950 . S
H1746 C1758 0.950 . S
H1747 C1759 0.950 . S
C1748 H1740 0.950 . S
C1748 C1749 1.386 . S
C1748 C1750 1.391 . S
C1749 C1748 1.386 . S
C1749 C1753 1.393 . S
C1750 H1742 0.950 . S
C1750 C1748 1.391 . S
C1750 C1751 1.400 . S
C1751 C1750 1.400 . S
C1751 C1752 1.398 . S
C1751 C1757 1.491 . S
C1752 H1743 0.950 . S
C1752 C1751 1.398 . S
C1752 C1753 1.391 . S
C1753 H1741 0.950 . S
C1753 C1749 1.393 . S
C1753 C1752 1.391 . S
C1754 H1744 0.950 . S
C1754 C1755 1.386 . S
C1754 C1756 1.391 . S
C1755 C1754 1.386 . S
C1755 C1759 1.393 . S
C1756 H1745 0.950 . S
C1756 C1754 1.391 . S
C1756 C1757 1.400 . S
C1757 C1751 1.491 . S
C1757 C1756 1.400 . S
C1757 C1758 1.398 . S
C1758 H1746 0.950 . S
C1758 C1757 1.398 . S
C1758 C1759 1.391 . S
C1759 H1747 0.950 . S
C1759 C1755 1.393 . S
C1759 C1758 1.391 . S
H1760 C1768 0.950 . S
H1761 C1773 0.950 . S
H1762 C1770 0.950 . S
H1763 C1772 0.950 . S
H1764 C1774 0.950 . S
H1765 C1776 0.950 . S
H1766 C1778 0.950 . S
H1767 C1779 0.950 . S
C1768 H1760 0.950 . S
C1768 C1769 1.386 . S
C1768 C1770 1.391 . S
C1769 C1768 1.386 . S
C1769 C1773 1.393 . S
C1770 H1762 0.950 . S
C1770 C1768 1.391 . S
C1770 C1771 1.400 . S
C1771 C1770 1.400 . S
C1771 C1772 1.398 . S
C1771 C1777 1.491 . S
C1772 H1763 0.950 . S
C1772 C1771 1.398 . S
C1772 C1773 1.391 . S
C1773 H1761 0.950 . S
C1773 C1769 1.393 . S
C1773 C1772 1.391 . S
C1774 H1764 0.950 . S
C1774 C1775 1.386 . S
C1774 C1776 1.391 . S
C1775 C1774 1.386 . S
C1775 C1779 1.393 . S
C1776 H1765 0.950 . S
C1776 C1774 1.391 . S
C1776 C1777 1.400 . S
C1777 C1771 1.491 . S
C1777 C1776 1.400 . S
C1777 C1778 1.398 . S
C1778 H1766 0.950 . S
C1778 C1777 1.398 . S
C1778 C1779 1.391 . S
C1779 H1767 0.950 . S
C1779 C1775 1.393 . S
C1779 C1778 1.391 . S
H1780 C1788 0.950 . S
H1781 C1793 0.950 . S
H1782 C1790 0.950 . S
H1783 C1792 0.950 . S
H1784 C1794 0.950 . S
H1785 C1796 0.950 . S
H1786 C1798 0.950 . S
H1787 C1799 0.950 . S
C1788 H1780 0.950 . S
C1788 C1789 1.386 . S
C1788 C1790 1.391 . S
C1789 C1788 1.386 . S
C1789 C1793 1.393 . S
C1790 H1782 0.950 . S
C1790 C1788 1.391 . S
C1790 C1791 1.400 . S
C1791 C1790 1.400 . S
C1791 C1792 1.398 . S
C1791 C1797 1.491 . S
C1792 H1783 0.950 . S
C1792 C1791 1.398 . S
C1792 C1793 1.391 . S
C1793 H1781 0.950 . S
C1793 C1789 1.393 . S
C1793 C1792 1.391 . S
C1794 H1784 0.950 . S
C1794 C1795 1.386 . S
C1794 C1796 1.391 . S
C1795 C1794 1.386 . S
C1795 C1799 1.393 . S
C1796 H1785 0.950 . S
C1796 C1794 1.391 . S
C1796 C1797 1.400 . S
C1797 C1791 1.491 . S
C1797 C1796 1.400 . S
C1797 C1798 1.398 . S
C1798 H1786 0.950 . S
C1798 C1797 1.398 . S
C1798 C1799 1.391 . S
C1799 H1787 0.950 . S
C1799 C1795 1.393 . S
C1799 C1798 1.391 . S
C729 C24 1.028 . S
C735 C97 1.028 . S
C749 C17 1.037 . S
C755 C64 1.037 . S
C769 C57 1.048 . S
C775 C104 1.048 . S
C789 C144 1.053 . S
C795 C177 1.053 . S
C809 C217 1.049 . S
C815 C184 1.049 . S
C829 C224 1.026 . S
C835 C137 1.026 . S
C849 C337 1.044 . S
C855 C264 1.044 . S
C869 C257 1.040 . S
C875 C304 1.040 . S
C889 C344 1.033 . S
C895 C297 1.033 . S
C909 C417 1.038 . S
C915 C384 1.037 . S
C929 C424 1.026 . S
C935 C457 1.026 . S
C949 C377 1.051 . S
C955 C464 1.051 . S
C969 C504 1.052 . S
C975 C577 1.052 . S
C989 C497 1.037 . S
C995 C544 1.037 . S
C1009 C537 1.052 . S
C1015 C584 1.052 . S
C1029 C657 1.051 . S
C1035 C624 1.051 . S
C1049 C697 1.037 . S
C1055 C664 1.037 . S
C1069 C617 1.039 . S
C1075 C704 1.039 . S
C1089 C23 1.711 . S
C1095 C223 1.726 . S
C1109 C143 1.700 . S
C1115 C63 1.704 . S
C1129 C183 1.705 . S
C1135 C103 1.698 . S
C1149 C263 1.714 . S
C1155 C463 1.726 . S
C1169 C303 1.701 . S
C1175 C383 1.720 . S
C1189 C423 1.725 . S
C1195 C343 1.717 . S
C1209 C503 1.703 . S
C1215 C703 1.700 . S
C1229 C623 1.699 . S
C1235 C543 1.717 . S
C1249 C663 1.700 . S
C1255 C583 1.703 . S
C1269 C402 2.262 . S
C1275 C2 2.261 1_565 S
C1289 C42 2.269 . S
C1295 C442 2.271 . S
C1309 C362 2.269 . S
C1315 C82 2.264 . S
C1329 C122 2.266 1_655 S
C1335 C562 2.271 . S
C1349 C162 2.271 . S
C1355 C482 2.271 . S
C1369 C522 2.271 . S
C1375 C202 2.270 . S
C1389 C642 2.270 . S
C1395 C242 2.270 . S
C1409 C282 2.271 . S
C1415 C682 2.268 . S
C1429 C322 2.268 . S
C1435 C602 2.263 . S
C1449 C106 1.713 . S
C1455 C13 1.713 . S
C1469 C26 1.722 . S
C1475 C53 1.722 . S
C1489 C93 1.722 . S
C1495 C66 1.722 . S
C1509 C186 1.724 . S
C1515 C133 1.724 . S
C1529 C226 1.719 . S
C1535 C173 1.719 . S
C1549 C213 1.719 . S
C1555 C146 1.719 . S
C1569 C346 1.717 . S
C1575 C253 1.717 . S
C1589 C293 1.723 . S
C1595 C266 1.723 . S
C1609 C306 1.724 . S
C1615 C333 1.723 . S
C1629 C373 1.712 . S
C1635 C426 1.712 1_655 S
C1649 C413 1.724 . S
C1655 C466 1.724 . S
C1669 C386 1.717 . S
C1675 C453 1.717 . S
C1689 C493 1.722 . S
C1695 C586 1.722 1_565 S
C1709 C533 1.725 . S
C1715 C506 1.725 . S
C1729 C546 1.719 . S
C1735 C573 1.719 . S
C1749 C613 1.721 . S
C1755 C666 1.721 . S
C1769 C653 1.724 . S
C1775 C706 1.724 . S
C1789 C626 1.726 . S
C1795 C693 1.725 . S
