# Generated by pormake.
# Topology uoe, (4)-cn, num edge types: 1
# Building blocks:
#     Node 0, Type 0, BuildingBlock: QUQFOY_clean_sbu_1, # of connection points: 4
#     Node 1, Type 0, BuildingBlock: QUQFOY_clean_sbu_1, # of connection points: 4
#     Node 2, Type 0, BuildingBlock: QUQFOY_clean_sbu_1, # of connection points: 4
#     Node 3, Type 0, BuildingBlock: QUQFOY_clean_sbu_1, # of connection points: 4
#     Node 4, Type 0, BuildingBlock: QUQFOY_clean_sbu_1, # of connection points: 4
#     Node 5, Type 0, BuildingBlock: QUQFOY_clean_sbu_1, # of connection points: 4
#     Node 6, Type 0, BuildingBlock: QUQFOY_clean_sbu_1, # of connection points: 4
#     Node 7, Type 0, BuildingBlock: QUQFOY_clean_sbu_1, # of connection points: 4
#     Node 8, Type 0, BuildingBlock: QUQFOY_clean_sbu_1, # of connection points: 4
#     Node 9, Type 0, BuildingBlock: QUQFOY_clean_sbu_1, # of connection points: 4
#     Node 10, Type 0, BuildingBlock: QUQFOY_clean_sbu_1, # of connection points: 4
#     Node 11, Type 0, BuildingBlock: QUQFOY_clean_sbu_1, # of connection points: 4
#     Node 12, Type 0, BuildingBlock: QUQFOY_clean_sbu_1, # of connection points: 4
#     Node 13, Type 0, BuildingBlock: QUQFOY_clean_sbu_1, # of connection points: 4
#     Node 14, Type 0, BuildingBlock: QUQFOY_clean_sbu_1, # of connection points: 4
#     Node 15, Type 0, BuildingBlock: QUQFOY_clean_sbu_1, # of connection points: 4
#     Node 16, Type 0, BuildingBlock: QUQFOY_clean_sbu_1, # of connection points: 4
#     Node 17, Type 0, BuildingBlock: QUQFOY_clean_sbu_1, # of connection points: 4
#     Node 18, Type 0, BuildingBlock: QUQFOY_clean_sbu_1, # of connection points: 4
#     Node 19, Type 0, BuildingBlock: QUQFOY_clean_sbu_1, # of connection points: 4
#     Node 20, Type 0, BuildingBlock: QUQFOY_clean_sbu_1, # of connection points: 4
#     Node 21, Type 0, BuildingBlock: QUQFOY_clean_sbu_1, # of connection points: 4
#     Node 22, Type 0, BuildingBlock: QUQFOY_clean_sbu_1, # of connection points: 4
#     Node 23, Type 0, BuildingBlock: QUQFOY_clean_sbu_1, # of connection points: 4
#     Node 24, Type 0, BuildingBlock: QUQFOY_clean_sbu_1, # of connection points: 4
#     Node 25, Type 0, BuildingBlock: QUQFOY_clean_sbu_1, # of connection points: 4
#     Node 26, Type 0, BuildingBlock: QUQFOY_clean_sbu_1, # of connection points: 4
#     Node 27, Type 0, BuildingBlock: QUQFOY_clean_sbu_1, # of connection points: 4
#     Node 28, Type 0, BuildingBlock: QUQFOY_clean_sbu_1, # of connection points: 4
#     Node 29, Type 0, BuildingBlock: QUQFOY_clean_sbu_1, # of connection points: 4
#     Node 30, Type 0, BuildingBlock: QUQFOY_clean_sbu_1, # of connection points: 4
#     Node 31, Type 0, BuildingBlock: QUQFOY_clean_sbu_1, # of connection points: 4
#     Edge 32, Type (0, 0), BuildingBlock: XIVTED_clean_linker_0, # of connection points: 2
#     Edge 33, Type (0, 0), BuildingBlock: XIVTED_clean_linker_0, # of connection points: 2
#     Edge 34, Type (0, 0), BuildingBlock: XIVTED_clean_linker_0, # of connection points: 2
#     Edge 35, Type (0, 0), BuildingBlock: XIVTED_clean_linker_0, # of connection points: 2
#     Edge 36, Type (0, 0), BuildingBlock: XIVTED_clean_linker_0, # of connection points: 2
#     Edge 37, Type (0, 0), BuildingBlock: XIVTED_clean_linker_0, # of connection points: 2
#     Edge 38, Type (0, 0), BuildingBlock: XIVTED_clean_linker_0, # of connection points: 2
#     Edge 39, Type (0, 0), BuildingBlock: XIVTED_clean_linker_0, # of connection points: 2
#     Edge 40, Type (0, 0), BuildingBlock: XIVTED_clean_linker_0, # of connection points: 2
#     Edge 41, Type (0, 0), BuildingBlock: XIVTED_clean_linker_0, # of connection points: 2
#     Edge 42, Type (0, 0), BuildingBlock: XIVTED_clean_linker_0, # of connection points: 2
#     Edge 43, Type (0, 0), BuildingBlock: XIVTED_clean_linker_0, # of connection points: 2
#     Edge 44, Type (0, 0), BuildingBlock: XIVTED_clean_linker_0, # of connection points: 2
#     Edge 45, Type (0, 0), BuildingBlock: XIVTED_clean_linker_0, # of connection points: 2
#     Edge 46, Type (0, 0), BuildingBlock: XIVTED_clean_linker_0, # of connection points: 2
#     Edge 47, Type (0, 0), BuildingBlock: XIVTED_clean_linker_0, # of connection points: 2
#     Edge 48, Type (0, 0), BuildingBlock: XIVTED_clean_linker_0, # of connection points: 2
#     Edge 49, Type (0, 0), BuildingBlock: XIVTED_clean_linker_0, # of connection points: 2
#     Edge 50, Type (0, 0), BuildingBlock: XIVTED_clean_linker_0, # of connection points: 2
#     Edge 51, Type (0, 0), BuildingBlock: XIVTED_clean_linker_0, # of connection points: 2
#     Edge 52, Type (0, 0), BuildingBlock: XIVTED_clean_linker_0, # of connection points: 2
#     Edge 53, Type (0, 0), BuildingBlock: XIVTED_clean_linker_0, # of connection points: 2
#     Edge 54, Type (0, 0), BuildingBlock: XIVTED_clean_linker_0, # of connection points: 2
#     Edge 55, Type (0, 0), BuildingBlock: XIVTED_clean_linker_0, # of connection points: 2
#     Edge 56, Type (0, 0), BuildingBlock: XIVTED_clean_linker_0, # of connection points: 2
#     Edge 57, Type (0, 0), BuildingBlock: XIVTED_clean_linker_0, # of connection points: 2
#     Edge 58, Type (0, 0), BuildingBlock: XIVTED_clean_linker_0, # of connection points: 2
#     Edge 59, Type (0, 0), BuildingBlock: XIVTED_clean_linker_0, # of connection points: 2
#     Edge 60, Type (0, 0), BuildingBlock: XIVTED_clean_linker_0, # of connection points: 2
#     Edge 61, Type (0, 0), BuildingBlock: XIVTED_clean_linker_0, # of connection points: 2
#     Edge 62, Type (0, 0), BuildingBlock: XIVTED_clean_linker_0, # of connection points: 2
#     Edge 63, Type (0, 0), BuildingBlock: XIVTED_clean_linker_0, # of connection points: 2
#     Edge 64, Type (0, 0), BuildingBlock: XIVTED_clean_linker_0, # of connection points: 2
#     Edge 65, Type (0, 0), BuildingBlock: XIVTED_clean_linker_0, # of connection points: 2
#     Edge 66, Type (0, 0), BuildingBlock: XIVTED_clean_linker_0, # of connection points: 2
#     Edge 67, Type (0, 0), BuildingBlock: XIVTED_clean_linker_0, # of connection points: 2
#     Edge 68, Type (0, 0), BuildingBlock: XIVTED_clean_linker_0, # of connection points: 2
#     Edge 69, Type (0, 0), BuildingBlock: XIVTED_clean_linker_0, # of connection points: 2
#     Edge 70, Type (0, 0), BuildingBlock: XIVTED_clean_linker_0, # of connection points: 2
#     Edge 71, Type (0, 0), BuildingBlock: XIVTED_clean_linker_0, # of connection points: 2
#     Edge 72, Type (0, 0), BuildingBlock: XIVTED_clean_linker_0, # of connection points: 2
#     Edge 73, Type (0, 0), BuildingBlock: XIVTED_clean_linker_0, # of connection points: 2
#     Edge 74, Type (0, 0), BuildingBlock: XIVTED_clean_linker_0, # of connection points: 2
#     Edge 75, Type (0, 0), BuildingBlock: XIVTED_clean_linker_0, # of connection points: 2
#     Edge 76, Type (0, 0), BuildingBlock: XIVTED_clean_linker_0, # of connection points: 2
#     Edge 77, Type (0, 0), BuildingBlock: XIVTED_clean_linker_0, # of connection points: 2
#     Edge 78, Type (0, 0), BuildingBlock: XIVTED_clean_linker_0, # of connection points: 2
#     Edge 79, Type (0, 0), BuildingBlock: XIVTED_clean_linker_0, # of connection points: 2
#     Edge 80, Type (0, 0), BuildingBlock: XIVTED_clean_linker_0, # of connection points: 2
#     Edge 81, Type (0, 0), BuildingBlock: XIVTED_clean_linker_0, # of connection points: 2
#     Edge 82, Type (0, 0), BuildingBlock: XIVTED_clean_linker_0, # of connection points: 2
#     Edge 83, Type (0, 0), BuildingBlock: XIVTED_clean_linker_0, # of connection points: 2
#     Edge 84, Type (0, 0), BuildingBlock: XIVTED_clean_linker_0, # of connection points: 2
#     Edge 85, Type (0, 0), BuildingBlock: XIVTED_clean_linker_0, # of connection points: 2
#     Edge 86, Type (0, 0), BuildingBlock: XIVTED_clean_linker_0, # of connection points: 2
#     Edge 87, Type (0, 0), BuildingBlock: XIVTED_clean_linker_0, # of connection points: 2
#     Edge 88, Type (0, 0), BuildingBlock: XIVTED_clean_linker_0, # of connection points: 2
#     Edge 89, Type (0, 0), BuildingBlock: XIVTED_clean_linker_0, # of connection points: 2
#     Edge 90, Type (0, 0), BuildingBlock: XIVTED_clean_linker_0, # of connection points: 2
#     Edge 91, Type (0, 0), BuildingBlock: XIVTED_clean_linker_0, # of connection points: 2
#     Edge 92, Type (0, 0), BuildingBlock: XIVTED_clean_linker_0, # of connection points: 2
#     Edge 93, Type (0, 0), BuildingBlock: XIVTED_clean_linker_0, # of connection points: 2
#     Edge 94, Type (0, 0), BuildingBlock: XIVTED_clean_linker_0, # of connection points: 2
#     Edge 95, Type (0, 0), BuildingBlock: XIVTED_clean_linker_0, # of connection points: 2
# Relax obj value: 0.068
# Max RMSD: 0.140
# Mean RMSD: 0.140
data_MOF--net-uoe--node1-QUQFOY_clean_sbu_1--edge1-XIVTED_clean_linker_0
_symmetry_space_group_name_H-M    P1
_symmetry_Int_Tables_number       1
_symmetry_cell_setting            triclinic
loop_
_symmetry_equiv_pos_as_xyz
'x, y, z'
_cell_length_a     78.993412
_cell_length_b     79.248773
_cell_length_c     28.533537
_cell_angle_alpha  90.033513
_cell_angle_beta   89.995903
_cell_angle_gamma 90.033623
loop_
_atom_site_label
_atom_site_type_symbol
_atom_site_fract_x
_atom_site_fract_y
_atom_site_fract_z
_atom_type_partial_charge
O0 O 0.09826 0.47185 0.15663 0.0
Cd1 Cd 0.08888 0.4591 0.09996 0.0
Cd2 Cd 0.10068 0.48746 0.05714 0.0
O3 O 0.11419 0.49022 0.11884 0.0
O4 O 0.08709 0.43556 0.1243 0.0
O5 O 0.10614 0.44361 0.07187 0.0
C6 C 0.10062 0.43227 0.10068 0.0
C7 C 0.11281 0.49183 0.98346 0.0
C8 C 0.10978 0.48302 0.15674 0.0
C9 C 0.0628 0.48223 0.06279 0.0
O10 O 0.07506 0.49252 0.05859 0.0
O11 O 0.0656 0.46692 0.074 0.0
O12 O 0.10975 0.50423 0.01148 0.0
O13 O 0.1099 0.47671 0.9985 0.0
O14 O 0.78797 0.85644 0.38105 0.0
Cd15 Cd 0.80251 0.8421 0.33686 0.0
Cd16 Cd 0.77307 0.85267 0.27967 0.0
O17 O 0.76739 0.8671 0.33779 0.0
O18 O 0.82211 0.83823 0.37999 0.0
O19 O 0.82423 0.85327 0.31528 0.0
C20 C 0.83095 0.84818 0.35407 0.0
C21 C 0.76783 0.86309 0.20412 0.0
C22 C 0.77516 0.86595 0.37662 0.0
C23 C 0.77902 0.81508 0.30057 0.0
O24 O 0.76966 0.82698 0.28571 0.0
O25 O 0.79339 0.81821 0.31904 0.0
O26 O 0.75568 0.85903 0.23204 0.0
O27 O 0.78312 0.8619 0.21979 0.0
O28 O 0.40352 0.537 0.63723 0.0
Cd29 Cd 0.41782 0.55108 0.59183 0.0
Cd30 Cd 0.40745 0.52125 0.53661 0.0
O31 O 0.39287 0.51613 0.59512 0.0
O32 O 0.42147 0.57123 0.63295 0.0
O33 O 0.40644 0.5723 0.5679 0.0
C34 C 0.41144 0.57958 0.60601 0.0
C35 C 0.39711 0.5157 0.46106 0.0
C36 C 0.39398 0.52418 0.63353 0.0
C37 C 0.44511 0.52756 0.55706 0.0
O38 O 0.43325 0.51798 0.54279 0.0
O39 O 0.44182 0.54199 0.5747 0.0
O40 O 0.401 0.50371 0.48953 0.0
O41 O 0.39836 0.53102 0.4762 0.0
O42 O 0.72115 0.15429 0.89441 0.0
Cd43 Cd 0.70749 0.16849 0.8478 0.0
Cd44 Cd 0.73724 0.15725 0.79446 0.0
O45 O 0.74167 0.14258 0.85307 0.0
O46 O 0.68727 0.17288 0.88818 0.0
O47 O 0.68607 0.15732 0.82416 0.0
C48 C 0.67878 0.16277 0.86179 0.0
C49 C 0.74243 0.14691 0.71881 0.0
C50 C 0.7336 0.14424 0.89132 0.0
C51 C 0.73182 0.19497 0.81321 0.0
O52 O 0.74134 0.18285 0.80065 0.0
O53 O 0.71705 0.19212 0.82946 0.0
O54 O 0.7546 0.15026 0.74738 0.0
O55 O 0.72711 0.14863 0.734 0.0
O56 O 0.10537 0.53806 0.46729 0.0
Cd57 Cd 0.09132 0.55237 0.51278 0.0
Cd58 Cd 0.10172 0.52291 0.56817 0.0
O59 O 0.11607 0.51736 0.50977 0.0
O60 O 0.0876 0.57237 0.4713 0.0
O61 O 0.10288 0.57361 0.5359 0.0
C62 C 0.09777 0.58077 0.49777 0.0
C63 C 0.11241 0.51775 0.64345 0.0
C64 C 0.11486 0.52523 0.47116 0.0
C65 C 0.06406 0.52905 0.54829 0.0
O66 O 0.07594 0.51952 0.56248 0.0
O67 O 0.06731 0.54347 0.53054 0.0
O68 O 0.10829 0.50562 0.61566 0.0
O69 O 0.11112 0.53299 0.62779 0.0
O70 O 0.72163 0.84897 0.69023 0.0
Cd71 Cd 0.70885 0.83947 0.74668 0.0
Cd72 Cd 0.73725 0.85123 0.78984 0.0
O73 O 0.73997 0.86485 0.72837 0.0
O74 O 0.6852 0.83791 0.72232 0.0
O75 O 0.69341 0.85664 0.77536 0.0
C76 C 0.682 0.85134 0.74633 0.0
C77 C 0.74165 0.86314 0.8638 0.0
C78 C 0.73277 0.86051 0.69037 0.0
C79 C 0.73208 0.81345 0.7834 0.0
O80 O 0.74236 0.82569 0.78787 0.0
O81 O 0.71671 0.81622 0.77219 0.0
O82 O 0.75408 0.86018 0.83569 0.0
O83 O 0.72649 0.86026 0.84873 0.0
O84 O 0.40601 0.46925 0.94466 0.0
Cd85 Cd 0.41921 0.456 0.99436 0.0
Cd86 Cd 0.40751 0.48546 0.04433 0.0
O87 O 0.3931 0.48931 0.98476 0.0
O88 O 0.42329 0.43487 0.95778 0.0
O89 O 0.40679 0.43572 0.02017 0.0
C90 C 0.41238 0.42745 0.98431 0.0
C91 C 0.39662 0.49051 0.11944 0.0
C92 C 0.39554 0.48136 0.94665 0.0
C93 C 0.44548 0.48026 0.02949 0.0
O94 O 0.43316 0.48993 0.03956 0.0
O95 O 0.4428 0.46531 0.01467 0.0
O96 O 0.39984 0.50268 0.09085 0.0
O97 O 0.39874 0.47527 0.10446 0.0
O98 O 0.78828 0.1557 0.20129 0.0
Cd99 Cd 0.80187 0.16977 0.2484 0.0
Cd100 Cd 0.77219 0.15848 0.30146 0.0
O101 O 0.76782 0.14386 0.24259 0.0
O102 O 0.8224 0.17386 0.20894 0.0
O103 O 0.82297 0.15824 0.27289 0.0
C104 C 0.83054 0.16355 0.23555 0.0
C105 C 0.76707 0.14786 0.37683 0.0
C106 C 0.77587 0.14559 0.20433 0.0
C107 C 0.77758 0.19624 0.28341 0.0
O108 O 0.76807 0.1841 0.29592 0.0
O109 O 0.79232 0.19342 0.26689 0.0
O110 O 0.75488 0.15129 0.34841 0.0
O111 O 0.78237 0.14971 0.36165 0.0
O112 O 0.9037 0.53897 0.96285 0.0
Cd113 Cd 0.9179 0.55327 0.00805 0.0
Cd114 Cd 0.90716 0.52381 0.06397 0.0
O115 O 0.89259 0.51857 0.00573 0.0
O116 O 0.92199 0.57301 0.96589 0.0
O117 O 0.90668 0.5748 0.03033 0.0
C118 C 0.91197 0.5817 0.99202 0.0
C119 C 0.89669 0.51819 0.13928 0.0
C120 C 0.89397 0.52631 0.96695 0.0
C121 C 0.94488 0.52976 0.04376 0.0
O122 O 0.93291 0.52028 0.05776 0.0
O123 O 0.94177 0.54422 0.0262 0.0
O124 O 0.90062 0.50623 0.11072 0.0
O125 O 0.89803 0.53353 0.1244 0.0
O126 O 0.22161 0.15391 0.71945 0.0
Cd127 Cd 0.20676 0.16806 0.76327 0.0
Cd128 Cd 0.23649 0.15815 0.8212 0.0
O129 O 0.2425 0.14394 0.76286 0.0
O130 O 0.18724 0.17165 0.71967 0.0
O131 O 0.18509 0.15665 0.78443 0.0
C132 C 0.17843 0.16163 0.74547 0.0
C133 C 0.24236 0.14767 0.89639 0.0
C134 C 0.2347 0.14479 0.72402 0.0
C135 C 0.22971 0.19559 0.79985 0.0
O136 O 0.23923 0.18393 0.8154 0.0
O137 O 0.21552 0.19211 0.78076 0.0
O138 O 0.25425 0.15213 0.86813 0.0
O139 O 0.22696 0.14852 0.88133 0.0
O140 O 0.60515 0.47217 0.47016 0.0
Cd141 Cd 0.59084 0.4571 0.51307 0.0
Cd142 Cd 0.60088 0.48651 0.57247 0.0
O143 O 0.61513 0.49279 0.51442 0.0
O144 O 0.58712 0.43798 0.46829 0.0
O145 O 0.6021 0.43525 0.53299 0.0
C146 C 0.59705 0.42892 0.49365 0.0
C147 C 0.61145 0.49205 0.64781 0.0
C148 C 0.6143 0.48519 0.47528 0.0
C149 C 0.56329 0.47984 0.55081 0.0
O150 O 0.57501 0.48923 0.56679 0.0
O151 O 0.56676 0.4658 0.53105 0.0
O152 O 0.60689 0.50402 0.62007 0.0
O153 O 0.61062 0.47677 0.63216 0.0
O154 O 0.28932 0.84554 0.19191 0.0
Cd155 Cd 0.30236 0.83716 0.24925 0.0
Cd156 Cd 0.27385 0.84902 0.29162 0.0
O157 O 0.27103 0.86183 0.22886 0.0
O158 O 0.3261 0.83595 0.22533 0.0
O159 O 0.31727 0.85517 0.2762 0.0
C160 C 0.3289 0.84979 0.24793 0.0
C161 C 0.26877 0.86167 0.36431 0.0
C162 C 0.2781 0.85699 0.19112 0.0
C163 C 0.27961 0.81126 0.28881 0.0
O164 O 0.26915 0.8234 0.29199 0.0
O165 O 0.29494 0.81412 0.27737 0.0
O166 O 0.25658 0.85818 0.33585 0.0
O167 O 0.28407 0.85892 0.35023 0.0
O168 O 0.90934 0.47254 0.65492 0.0
Cd169 Cd 0.91927 0.45907 0.60032 0.0
Cd170 Cd 0.90798 0.48746 0.55399 0.0
O171 O 0.89411 0.49086 0.61484 0.0
O172 O 0.92087 0.4359 0.62758 0.0
O173 O 0.90238 0.443 0.57268 0.0
C174 C 0.90763 0.43213 0.60323 0.0
C175 C 0.89638 0.49251 0.47987 0.0
C176 C 0.89804 0.48391 0.65347 0.0
C177 C 0.94585 0.48175 0.56303 0.0
O178 O 0.9337 0.49201 0.5567 0.0
O179 O 0.94286 0.46661 0.57564 0.0
O180 O 0.8997 0.50468 0.50843 0.0
O181 O 0.89877 0.47726 0.49445 0.0
O182 O 0.2888 0.16157 0.40947 0.0
Cd183 Cd 0.30164 0.17043 0.35227 0.0
Cd184 Cd 0.27313 0.15862 0.3103 0.0
O185 O 0.27062 0.14524 0.37222 0.0
O186 O 0.32533 0.17194 0.37618 0.0
O187 O 0.31681 0.15283 0.32455 0.0
C188 C 0.32834 0.15827 0.35303 0.0
C189 C 0.26825 0.14658 0.23673 0.0
C190 C 0.27775 0.14994 0.41 0.0
C191 C 0.27857 0.19635 0.31481 0.0
O192 O 0.26815 0.18417 0.31181 0.0
O193 O 0.294 0.19352 0.32516 0.0
O194 O 0.256 0.14961 0.26538 0.0
O195 O 0.28352 0.14943 0.25108 0.0
O196 O 0.59746 0.53823 0.16112 0.0
Cd197 Cd 0.58865 0.55128 0.10429 0.0
Cd198 Cd 0.60081 0.52332 0.06104 0.0
O199 O 0.61416 0.52065 0.12303 0.0
O200 O 0.58752 0.57496 0.12816 0.0
O201 O 0.60655 0.56614 0.07661 0.0
C202 C 0.60128 0.57775 0.10502 0.0
C203 C 0.61301 0.51889 0.98745 0.0
C204 C 0.60929 0.5274 0.16117 0.0
C205 C 0.56288 0.52831 0.06508 0.0
O206 O 0.57521 0.51808 0.06176 0.0
O207 O 0.56554 0.54364 0.07642 0.0
O208 O 0.61003 0.50653 0.01563 0.0
O209 O 0.61006 0.53401 1.00235 0.0
O210 O 0.22129 0.85321 0.87997 0.0
Cd211 Cd 0.2064 0.83983 0.83432 0.0
Cd212 Cd 0.2361 0.85035 0.77788 0.0
O213 O 0.24206 0.86391 0.83744 0.0
O214 O 0.18649 0.83615 0.87655 0.0
O215 O 0.18514 0.8519 0.81298 0.0
C216 C 0.17809 0.84663 0.85114 0.0
C217 C 0.24214 0.8615 0.70353 0.0
C218 C 0.23433 0.86246 0.87626 0.0
C219 C 0.22918 0.81267 0.79544 0.0
O220 O 0.2388 0.82453 0.78148 0.0
O221 O 0.21493 0.81593 0.81445 0.0
O222 O 0.25397 0.85682 0.7317 0.0
O223 O 0.22671 0.86053 0.71832 0.0
O224 O 0.6012 0.97275 0.65282 0.0
Cd225 Cd 0.59084 0.95957 0.59823 0.0
Cd226 Cd 0.60189 0.98836 0.55294 0.0
O227 O 0.61595 0.99169 0.61347 0.0
O228 O 0.58866 0.93651 0.62582 0.0
O229 O 0.60722 0.943 0.57055 0.0
C230 C 0.60171 0.93233 0.60128 0.0
C231 C 0.61314 0.99307 0.47822 0.0
C232 C 0.6123 0.98433 0.65175 0.0
C233 C 0.56412 0.98253 0.56306 0.0
O234 O 0.57621 0.99287 0.55675 0.0
O235 O 0.5672 0.96732 0.57476 0.0
O236 O 0.61 0.00537 0.5065 0.0
O237 O 0.61079 0.97788 0.49344 0.0
O238 O 0.28724 0.35518 0.87918 0.0
Cd239 Cd 0.30176 0.3405 0.83582 0.0
Cd240 Cd 0.2724 0.35054 0.7778 0.0
O241 O 0.26657 0.36526 0.83525 0.0
O242 O 0.32138 0.33697 0.87909 0.0
O243 O 0.32348 0.35141 0.81332 0.0
C244 C 0.33022 0.34665 0.85239 0.0
C245 C 0.26734 0.36089 0.70211 0.0
C246 C 0.27434 0.36453 0.87414 0.0
C247 C 0.27837 0.31313 0.8006 0.0
O248 O 0.26903 0.32485 0.78454 0.0
O249 O 0.29261 0.3165 0.81953 0.0
O250 O 0.25513 0.35678 0.72975 0.0
O251 O 0.2826 0.3597 0.71803 0.0
O252 O 0.90603 0.03944 0.14681 0.0
Cd253 Cd 0.91954 0.05309 0.09858 0.0
Cd254 Cd 0.90789 0.02366 0.04638 0.0
O255 O 0.89365 0.01922 0.10597 0.0
O256 O 0.92366 0.07377 0.1372 0.0
O257 O 0.90745 0.07382 0.07422 0.0
C258 C 0.91297 0.08161 0.11099 0.0
C259 C 0.89688 0.01878 0.97129 0.0
C260 C 0.89581 0.02712 0.14428 0.0
C261 C 0.9459 0.02907 0.06192 0.0
O262 O 0.93362 0.01953 0.05052 0.0
O263 O 0.94318 0.0438 0.07836 0.0
O264 O 0.90041 0.00654 0.99932 0.0
O265 O 0.89878 0.03399 0.98682 0.0
O266 O 0.22168 0.65255 0.39388 0.0
Cd267 Cd 0.20797 0.66697 0.34788 0.0
Cd268 Cd 0.23772 0.65608 0.2943 0.0
O269 O 0.24228 0.64111 0.35227 0.0
O270 O 0.18781 0.67113 0.38865 0.0
O271 O 0.18653 0.65588 0.32406 0.0
C272 C 0.1793 0.66112 0.36199 0.0
C273 C 0.24243 0.6461 0.21804 0.0
C274 C 0.23417 0.64257 0.39052 0.0
C275 C 0.23225 0.69367 0.31436 0.0
O276 O 0.24183 0.68163 0.30149 0.0
O277 O 0.21746 0.6907 0.33033 0.0
O278 O 0.25479 0.64931 0.24615 0.0
O279 O 0.22722 0.64777 0.23402 0.0
O280 O 0.60521 0.03954 0.96121 0.0
Cd281 Cd 0.59078 0.05349 0.00662 0.0
Cd282 Cd 0.60171 0.02414 0.06185 0.0
O283 O 0.61644 0.01912 0.00372 0.0
O284 O 0.58669 0.07341 0.96513 0.0
O285 O 0.60191 0.07496 0.02977 0.0
C286 C 0.5967 0.082 0.99157 0.0
C287 C 0.61215 0.01916 0.13752 0.0
C288 C 0.61507 0.02698 0.96513 0.0
C289 C 0.56396 0.02952 0.04129 0.0
O290 O 0.57602 0.02018 0.05535 0.0
O291 O 0.56694 0.04407 0.02403 0.0
O292 O 0.60849 0.00696 0.10946 0.0
O293 O 0.61057 0.03438 0.1219 0.0
O294 O 0.22198 0.34948 0.18768 0.0
Cd295 Cd 0.20903 0.34001 0.24393 0.0
Cd296 Cd 0.23732 0.35168 0.2872 0.0
O297 O 0.24005 0.36554 0.22623 0.0
O298 O 0.18545 0.33843 0.21918 0.0
O299 O 0.19352 0.35716 0.27239 0.0
C300 C 0.18216 0.35183 0.24323 0.0
C301 C 0.24165 0.36323 0.36157 0.0
C302 C 0.23302 0.36113 0.18806 0.0
C303 C 0.23217 0.31396 0.28042 0.0
O304 O 0.2425 0.32618 0.28442 0.0
O305 O 0.21676 0.31677 0.26979 0.0
O306 O 0.2541 0.36045 0.33341 0.0
O307 O 0.2265 0.3604 0.34631 0.0
O308 O 0.90516 0.97162 0.45482 0.0
Cd309 Cd 0.9189 0.95766 0.50179 0.0
Cd310 Cd 0.90794 0.98737 0.55536 0.0
O311 O 0.89366 0.99223 0.49612 0.0
O312 O 0.92299 0.93739 0.46153 0.0
O313 O 0.90706 0.93658 0.52496 0.0
C314 C 0.91251 0.92919 0.4875 0.0
C315 C 0.89713 0.99247 0.63059 0.0
C316 C 0.89533 0.98423 0.45778 0.0
C317 C 0.94577 0.9813 0.53815 0.0
O318 O 0.93374 0.99097 0.55065 0.0
O319 O 0.94271 0.96672 0.52113 0.0
O320 O 0.90095 1.00464 0.6026 0.0
O321 O 0.89866 0.97723 0.61501 0.0
O322 O 0.28826 0.65424 0.70024 0.0
Cd323 Cd 0.30175 0.66843 0.74727 0.0
Cd324 Cd 0.27211 0.65746 0.79998 0.0
O325 O 0.26772 0.64258 0.74159 0.0
O326 O 0.32246 0.67224 0.70834 0.0
O327 O 0.32264 0.65688 0.7728 0.0
C328 C 0.33041 0.66198 0.73553 0.0
C329 C 0.26749 0.64714 0.87589 0.0
C330 C 0.27584 0.64415 0.70338 0.0
C331 C 0.27749 0.69511 0.78092 0.0
O332 O 0.26792 0.68304 0.79365 0.0
O333 O 0.29226 0.69218 0.76477 0.0
O334 O 0.2551 0.65037 0.84793 0.0
O335 O 0.28269 0.64899 0.85993 0.0
O336 O 0.40813 0.03672 0.45821 0.0
Cd337 Cd 0.41856 0.05076 0.51099 0.0
Cd338 Cd 0.4077 0.0221 0.55965 0.0
O339 O 0.39396 0.0178 0.49926 0.0
O340 O 0.42083 0.0733 0.48022 0.0
O341 O 0.40232 0.06794 0.53654 0.0
C342 C 0.40787 0.07802 0.50437 0.0
C343 C 0.39609 0.01657 0.63353 0.0
C344 C 0.39738 0.02484 0.46041 0.0
C345 C 0.44549 0.02846 0.54847 0.0
O346 O 0.43349 0.01817 0.55656 0.0
O347 O 0.4423 0.04342 0.53472 0.0
O348 O 0.4 1.00457 0.60506 0.0
O349 O 0.39801 0.03192 0.61913 0.0
O350 O 0.72321 0.66076 0.19417 0.0
Cd351 Cd 0.70984 0.67051 0.24923 0.0
Cd352 Cd 0.73817 0.65891 0.29512 0.0
O353 O 0.74147 0.6453 0.23388 0.0
O354 O 0.68647 0.67218 0.22277 0.0
O355 O 0.69387 0.65351 0.27676 0.0
C356 C 0.68282 0.65887 0.24678 0.0
C357 C 0.74311 0.647 0.36881 0.0
C358 C 0.73453 0.64941 0.19534 0.0
C359 C 0.73278 0.69672 0.28727 0.0
O360 O 0.74297 0.68451 0.29333 0.0
O361 O 0.71758 0.69391 0.27447 0.0
O362 O 0.75535 0.65032 0.3404 0.0
O363 O 0.72783 0.64957 0.35428 0.0
O364 O 0.10298 0.96993 0.9484 0.0
Cd365 Cd 0.08959 0.95624 0.99676 0.0
Cd366 Cd 0.10131 0.98566 0.04888 0.0
O367 O 0.11554 0.99004 0.98922 0.0
O368 O 0.08537 0.93563 0.95795 0.0
O369 O 0.10181 0.93548 0.02045 0.0
C370 C 0.09619 0.92777 0.98368 0.0
C371 C 0.11236 0.99054 0.12393 0.0
C372 C 0.11327 0.98219 0.95088 0.0
C373 C 0.06329 0.98024 0.03374 0.0
O374 O 0.07558 0.98981 0.04486 0.0
O375 O 0.06599 0.96549 0.01743 0.0
O376 O 0.10885 1.00278 0.0959 0.0
O377 O 0.11042 0.97533 0.10843 0.0
O378 O 0.78716 0.34848 0.69636 0.0
Cd379 Cd 0.80039 0.33934 0.75247 0.0
Cd380 Cd 0.77185 0.35117 0.79662 0.0
O381 O 0.76877 0.36431 0.7345 0.0
O382 O 0.82386 0.3376 0.7268 0.0
O383 O 0.8161 0.35673 0.77921 0.0
C384 C 0.82729 0.35118 0.74989 0.0
C385 C 0.76672 0.36342 0.86985 0.0
C386 C 0.77585 0.35984 0.69644 0.0
C387 C 0.77746 0.31336 0.79141 0.0
O388 O 0.76714 0.32556 0.79597 0.0
O389 O 0.79273 0.31616 0.77926 0.0
O390 O 0.75455 0.36 0.84129 0.0
O391 O 0.78204 0.36082 0.85561 0.0
O392 O 0.41038 0.971 0.14772 0.0
Cd393 Cd 0.42036 0.95732 0.09366 0.0
Cd394 Cd 0.40863 0.98547 0.04625 0.0
O395 O 0.39503 0.98913 0.10727 0.0
O396 O 0.42244 0.9344 0.12227 0.0
O397 O 0.40361 0.94077 0.06757 0.0
C398 C 0.40916 0.93024 0.09861 0.0
C399 C 0.39654 0.99058 0.9728 0.0
C400 C 0.39907 0.98235 0.14603 0.0
C401 C 0.4466 0.98012 0.05497 0.0
O402 O 0.43432 0.99018 0.0481 0.0
O403 O 0.44382 0.96503 0.06844 0.0
O404 O 0.40012 1.00271 1.00118 0.0
O405 O 0.39903 0.97531 0.98714 0.0
O406 O 0.78936 0.65542 0.88505 0.0
Cd407 Cd 0.80359 0.66918 0.8387 0.0
Cd408 Cd 0.77416 0.65833 0.78398 0.0
O409 O 0.76899 0.64399 0.84255 0.0
O410 O 0.82379 0.67314 0.87946 0.0
O411 O 0.82478 0.65751 0.81552 0.0
C412 C 0.8321 0.66283 0.85325 0.0
C413 C 0.76863 0.64755 0.70902 0.0
C414 C 0.77673 0.64562 0.8813 0.0
C415 C 0.78004 0.696 0.80278 0.0
O416 O 0.77047 0.68401 0.78945 0.0
O417 O 0.79461 0.69296 0.82002 0.0
O418 O 0.75659 0.65151 0.73738 0.0
O419 O 0.784 0.64905 0.72392 0.0
O420 O 0.10486 0.03784 0.64071 0.0
Cd421 Cd 0.09103 0.052 0.59441 0.0
Cd422 Cd 0.10188 0.02224 0.53997 0.0
O423 O 0.11617 0.01721 0.59907 0.0
O424 O 0.08696 0.07204 0.63559 0.0
O425 O 0.10278 0.07325 0.57201 0.0
C426 C 0.09737 0.08041 0.60984 0.0
C427 C 0.11256 0.01702 0.46462 0.0
C428 C 0.1146 0.02517 0.63751 0.0
C429 C 0.06407 0.02847 0.55776 0.0
O430 O 0.07607 0.01882 0.54489 0.0
O431 O 0.06719 0.04299 0.57511 0.0
O432 O 0.10867 0.00489 0.49268 0.0
O433 O 0.11118 0.03227 0.48018 0.0
O434 O 0.71964 0.35368 0.38565 0.0
Cd435 Cd 0.70515 0.34024 0.33923 0.0
Cd436 Cd 0.73468 0.35122 0.28394 0.0
O437 O 0.7401 0.36508 0.34337 0.0
O438 O 0.68498 0.33639 0.38032 0.0
O439 O 0.68405 0.35238 0.31714 0.0
C440 C 0.67677 0.34701 0.35487 0.0
C441 C 0.74045 0.36238 0.2095 0.0
C442 C 0.73238 0.36335 0.38213 0.0
C443 C 0.72844 0.31344 0.30109 0.0
O444 O 0.73799 0.32546 0.28785 0.0
O445 O 0.714 0.31646 0.31928 0.0
O446 O 0.75239 0.35807 0.23776 0.0
O447 O 0.72504 0.36104 0.22426 0.0
H448 H 0.97454 0.54551 0.01725 0.0
H449 H 0.0328 0.46555 0.07928 0.0
H450 H 0.95546 0.49902 0.07591 0.0
H451 H 0.05273 0.5135 0.03319 0.0
H452 H 1.00416 0.47716 0.07398 0.0
H453 H 1.0032 0.53372 0.01966 0.0
C454 C 0.97635 0.53288 0.03078 0.0
C455 C 0.96251 0.52329 0.04645 0.0
C456 C 0.01481 0.48513 0.06491 0.0
C457 C 0.99528 0.50965 0.04897 0.0
C458 C 0.03117 0.47847 0.06776 0.0
C459 C 0.04524 0.48855 0.05684 0.0
C460 C 0.01246 0.50199 0.05092 0.0
C461 C 0.0423 0.50524 0.04217 0.0
C462 C 0.99272 0.52613 0.03206 0.0
C463 C 0.96568 0.50694 0.06349 0.0
N464 N 0.02628 0.51143 0.03974 0.0
N465 N 0.98167 0.50066 0.06419 0.0
H466 H 0.74878 0.80448 0.26427 0.0
H467 H 0.7635 0.70681 0.32172 0.0
H468 H 0.79397 0.78557 0.33125 0.0
H469 H 0.71692 0.72662 0.26495 0.0
H470 H 0.77488 0.73539 0.32541 0.0
H471 H 0.73726 0.77601 0.26315 0.0
C472 C 0.75636 0.79434 0.27863 0.0
C473 C 0.77244 0.79752 0.2979 0.0
C474 C 0.76215 0.73352 0.31232 0.0
C475 C 0.75913 0.76466 0.29682 0.0
C476 C 0.7556 0.71717 0.31022 0.0
C477 C 0.7392 0.71424 0.29284 0.0
C478 C 0.75231 0.74714 0.29672 0.0
C479 C 0.7296 0.72824 0.27864 0.0
C480 C 0.7497 0.77804 0.27808 0.0
C481 C 0.78156 0.78377 0.31596 0.0
N482 N 0.73633 0.74405 0.28068 0.0
N483 N 0.77477 0.76795 0.31498 0.0
H484 H 0.47422 0.54233 0.5913 0.0
H485 H 0.53431 0.46525 0.51496 0.0
H486 H 0.45639 0.49807 0.518 0.0
H487 H 0.55177 0.50888 0.5918 0.0
H488 H 0.50564 0.47704 0.51566 0.0
H489 H 0.50286 0.53049 0.59063 0.0
C490 C 0.47631 0.53019 0.57484 0.0
C491 C 0.46281 0.52121 0.55476 0.0
C492 C 0.51576 0.48399 0.53248 0.0
C493 C 0.49558 0.5075 0.55413 0.0
C494 C 0.53213 0.47723 0.53223 0.0
C495 C 0.54554 0.48605 0.5533 0.0
C496 C 0.51274 0.49971 0.5539 0.0
C497 C 0.5419 0.50158 0.57501 0.0
C498 C 0.49267 0.52339 0.57461 0.0
C499 C 0.46634 0.50548 0.53404 0.0
N500 N 0.52591 0.50791 0.57463 0.0
N501 N 0.48232 0.49914 0.53435 0.0
H502 H 0.76282 0.20507 0.78087 0.0
H503 H 0.74646 0.30347 0.82418 0.0
H504 H 0.71629 0.22483 0.83834 0.0
H505 H 0.79383 0.28332 0.77359 0.0
H506 H 0.73532 0.27486 0.8302 0.0
H507 H 0.77423 0.2336 0.77772 0.0
C508 C 0.75494 0.2154 0.79277 0.0
C509 C 0.7385 0.21247 0.80991 0.0
C510 C 0.74817 0.27666 0.81794 0.0
C511 C 0.75166 0.24536 0.80645 0.0
C512 C 0.75458 0.29303 0.81451 0.0
C513 C 0.77114 0.29587 0.79818 0.0
C514 C 0.75832 0.26292 0.80481 0.0
C515 C 0.78102 0.28177 0.78637 0.0
C516 C 0.76152 0.23173 0.79103 0.0
C517 C 0.72899 0.22645 0.8248 0.0
N518 N 0.77443 0.26593 0.78972 0.0
N519 N 0.73571 0.24227 0.82271 0.0
H520 H 0.0346 0.54464 0.51948 0.0
H521 H 0.97564 0.46532 0.58387 0.0
H522 H 0.05316 0.49865 0.58224 0.0
H523 H 0.95633 0.51259 0.53108 0.0
H524 H 1.00435 0.4769 0.57997 0.0
H525 H 0.00591 0.53288 0.52108 0.0
C526 C 0.03267 0.53213 0.53378 0.0
C527 C 0.04638 0.52267 0.55078 0.0
C528 C 0.99382 0.48472 0.56912 0.0
C529 C 0.01356 0.50906 0.55236 0.0
C530 C 0.97742 0.47808 0.57116 0.0
C531 C 0.96349 0.48798 0.55794 0.0
C532 C 0.99636 0.50139 0.55364 0.0
C533 C 0.96663 0.50447 0.54184 0.0
C534 C 0.01628 0.52539 0.53458 0.0
C535 C 0.04304 0.50647 0.56875 0.0
N536 N 0.98268 0.51065 0.54025 0.0
N537 N 0.02703 0.5002 0.56896 0.0
H538 H 0.79587 0.72566 0.82842 0.0
H539 H 0.71544 0.7835 0.76665 0.0
H540 H 0.74913 0.70643 0.77075 0.0
H541 H 0.76351 0.80348 0.81274 0.0
H542 H 0.72717 0.75498 0.77179 0.0
H543 H 0.78399 0.7542 0.82568 0.0
C544 C 0.78316 0.72741 0.81503 0.0
C545 C 0.77353 0.71356 0.79975 0.0
C546 C 0.73514 0.76561 0.78089 0.0
C547 C 0.75979 0.74621 0.79687 0.0
C548 C 0.72841 0.78191 0.77813 0.0
C549 C 0.73849 0.79596 0.78912 0.0
C550 C 0.75206 0.76331 0.79486 0.0
C551 C 0.75525 0.79307 0.80372 0.0
C552 C 0.77637 0.74372 0.81356 0.0
C553 C 0.75709 0.71666 0.78288 0.0
N554 N 0.7615 0.77711 0.80607 0.0
N555 N 0.75076 0.73259 0.78199 0.0
H556 H 0.53256 0.54502 0.07657 0.0
H557 H 0.47576 0.46417 0.01136 0.0
H558 H 0.55334 0.49676 0.03632 0.0
H559 H 0.4552 0.51175 0.05826 0.0
H560 H 0.5043 0.47606 0.01826 0.0
H561 H 0.50404 0.53334 0.06723 0.0
C562 C 0.53115 0.53202 0.06555 0.0
C563 C 0.54542 0.52188 0.05736 0.0
C564 C 0.49353 0.48388 0.02706 0.0
C565 C 0.51278 0.50837 0.04678 0.0
C566 C 0.47722 0.47708 0.02318 0.0
C567 C 0.463 0.48693 0.03427 0.0
C568 C 0.49566 0.50067 0.04204 0.0
C569 C 0.46573 0.50362 0.04933 0.0
C570 C 0.51486 0.52532 0.06034 0.0
C571 C 0.54276 0.50508 0.0432 0.0
N572 N 0.48168 0.50994 0.05271 0.0
N573 N 0.52681 0.49886 0.03847 0.0
H574 H 0.71348 0.28378 0.33053 0.0
H575 H 0.79252 0.22599 0.25483 0.0
H576 H 0.75838 0.30298 0.26263 0.0
H577 H 0.74716 0.20646 0.31959 0.0
H578 H 0.78033 0.25438 0.25824 0.0
H579 H 0.72552 0.25531 0.32672 0.0
C580 C 0.7258 0.28203 0.3146 0.0
C581 C 0.73489 0.29586 0.29694 0.0
C582 C 0.77306 0.24387 0.27176 0.0
C583 C 0.74884 0.26329 0.29275 0.0
C584 C 0.78005 0.22765 0.26994 0.0
C585 C 0.77089 0.21375 0.28688 0.0
C586 C 0.75678 0.24625 0.29069 0.0
C587 C 0.75473 0.21673 0.30599 0.0
C588 C 0.7327 0.26576 0.31255 0.0
C589 C 0.75086 0.29276 0.27681 0.0
N590 N 0.74822 0.2326 0.30731 0.0
N591 N 0.75731 0.27687 0.27539 0.0
H592 H 0.2927 0.28436 0.83774 0.0
H593 H 0.21519 0.22435 0.7631 0.0
H594 H 0.24898 0.3017 0.76078 0.0
H595 H 0.25882 0.20718 0.84074 0.0
H596 H 0.22717 0.25288 0.76264 0.0
H597 H 0.28057 0.25592 0.83871 0.0
C598 C 0.28063 0.2822 0.8208 0.0
C599 C 0.27189 0.29551 0.79918 0.0
C600 C 0.23409 0.24286 0.7799 0.0
C601 C 0.25782 0.26295 0.80049 0.0
C602 C 0.22721 0.22657 0.78033 0.0
C603 C 0.23599 0.21328 0.80191 0.0
C604 C 0.24988 0.24591 0.80116 0.0
C605 C 0.25157 0.21696 0.82353 0.0
C606 C 0.27366 0.26595 0.82152 0.0
C607 C 0.25622 0.29189 0.77795 0.0
N608 N 0.25801 0.23287 0.82248 0.0
N609 N 0.2497 0.27602 0.77922 0.0
H610 H 0.29664 0.78132 0.27528 0.0
H611 H 0.21624 0.72342 0.33806 0.0
H612 H 0.24827 0.80126 0.31886 0.0
H613 H 0.26355 0.70396 0.28487 0.0
H614 H 0.22807 0.75199 0.33453 0.0
H615 H 0.28518 0.75273 0.28283 0.0
C616 C 0.28367 0.77971 0.28674 0.0
C617 C 0.27342 0.79376 0.29624 0.0
C618 C 0.23585 0.74144 0.32362 0.0
C619 C 0.26016 0.76104 0.30473 0.0
C620 C 0.22908 0.72512 0.32556 0.0
C621 C 0.23886 0.71121 0.31166 0.0
C622 C 0.25254 0.74389 0.30778 0.0
C623 C 0.25547 0.71424 0.29589 0.0
C624 C 0.2771 0.76337 0.29088 0.0
C625 C 0.25666 0.79084 0.31091 0.0
N626 N 0.26175 0.7302 0.29443 0.0
N627 N 0.25057 0.77485 0.31457 0.0
H628 H 0.29605 0.22628 0.32391 0.0
H629 H 0.2148 0.28402 0.27022 0.0
H630 H 0.24661 0.20634 0.2906 0.0
H631 H 0.26418 0.30397 0.30419 0.0
H632 H 0.22621 0.25542 0.27761 0.0
H633 H 0.2847 0.25488 0.31595 0.0
C634 C 0.28285 0.22789 0.31472 0.0
C635 C 0.27229 0.21384 0.308 0.0
C636 C 0.23453 0.26607 0.28351 0.0
C637 C 0.25916 0.24657 0.29907 0.0
C638 C 0.228 0.28241 0.2794 0.0
C639 C 0.23852 0.29646 0.28655 0.0
C640 C 0.25171 0.26374 0.29484 0.0
C641 C 0.25556 0.29356 0.29829 0.0
C642 C 0.27635 0.24423 0.3103 0.0
C643 C 0.25525 0.21675 0.29623 0.0
N644 N 0.26161 0.27756 0.30199 0.0
N645 N 0.24924 0.23274 0.29223 0.0
H646 H 0.29248 0.72463 0.75092 0.0
H647 H 0.21412 0.78329 0.82661 0.0
H648 H 0.24713 0.70562 0.81691 0.0
H649 H 0.25868 0.80174 0.75543 0.0
H650 H 0.2259 0.7547 0.82334 0.0
H651 H 0.28041 0.75308 0.75325 0.0
C652 C 0.28004 0.72642 0.76607 0.0
C653 C 0.27084 0.71265 0.7837 0.0
C654 C 0.23306 0.76502 0.80832 0.0
C655 C 0.25687 0.74522 0.78628 0.0
C656 C 0.2263 0.78135 0.81005 0.0
C657 C 0.23539 0.79501 0.79135 0.0
C658 C 0.24904 0.76231 0.78783 0.0
C659 C 0.25117 0.79167 0.77044 0.0
C660 C 0.27311 0.74267 0.76726 0.0
C661 C 0.25472 0.7158 0.80281 0.0
N662 N 0.25748 0.77572 0.76939 0.0
N663 N 0.24827 0.7317 0.80355 0.0
H664 H 0.47506 0.04539 0.52783 0.0
H665 H 0.53447 0.96551 0.58178 0.0
H666 H 0.45636 0.99746 0.57788 0.0
H667 H 0.55343 0.01384 0.53561 0.0
H668 H 0.50566 0.97686 0.57915 0.0
H669 H 0.5039 0.03409 0.53036 0.0
C670 C 0.477 0.03255 0.53964 0.0
C671 C 0.46321 0.02239 0.55261 0.0
C672 C 0.51614 0.98496 0.5695 0.0
C673 C 0.4962 0.00931 0.55522 0.0
C674 C 0.53259 0.97846 0.57083 0.0
C675 C 0.54644 0.98871 0.55899 0.0
C676 C 0.51348 1.00185 0.5562 0.0
C677 C 0.54318 0.00544 0.54518 0.0
C678 C 0.49347 0.02608 0.54092 0.0
C679 C 0.46655 0.00579 0.56746 0.0
N680 N 0.52709 0.01147 0.54426 0.0
N681 N 0.48265 0.99979 0.56823 0.0
H682 H 0.97607 0.04432 0.08628 0.0
H683 H 0.0331 0.96495 0.00974 0.0
H684 H 0.95576 0.99851 0.02655 0.0
H685 H 0.05344 0.01081 0.0691 0.0
H686 H 1.00461 0.97694 0.01613 0.0
H687 H 1.00457 0.03232 0.08002 0.0
C688 C 0.97758 0.03179 0.07171 0.0
C689 C 0.96343 0.02245 0.05698 0.0
C690 C 0.01532 0.98436 0.02781 0.0
C691 C 0.99605 0.00856 0.0499 0.0
C692 C 0.0316 0.97749 0.02426 0.0
C693 C 0.04575 0.98685 0.03883 0.0
C694 C 0.01314 1.00072 0.04607 0.0
C695 C 0.04297 1.00308 0.05731 0.0
C696 C 0.99386 0.02491 0.06823 0.0
C697 C 0.96623 0.00622 0.03845 0.0
N698 N 0.02704 0.00948 0.06032 0.0
N699 N 0.98215 0.99982 0.03552 0.0
H700 H 0.53425 0.04458 0.0124 0.0
H701 H 0.47664 0.96425 0.07658 0.0
H702 H 0.55363 0.99884 0.07462 0.0
H703 H 0.45664 0.01097 0.02203 0.0
H704 H 0.50515 0.97631 0.07285 0.0
H705 H 0.50578 0.03227 0.01359 0.0
C706 C 0.53254 0.032 0.02648 0.0
C707 C 0.54641 0.02278 0.04346 0.0
C708 C 0.49452 0.9839 0.06155 0.0
C709 C 0.51386 0.00854 0.04459 0.0
C710 C 0.47823 0.97698 0.06349 0.0
C711 C 0.46416 0.98659 0.04974 0.0
C712 C 0.4968 1.00056 0.04568 0.0
C713 C 0.46705 1.00307 0.0332 0.0
C714 C 0.51628 0.02496 0.02704 0.0
C715 C 0.54337 0.00648 0.06115 0.0
N716 N 0.48299 0.00952 0.03175 0.0
N717 N 0.52748 0.99991 0.06117 0.0
H718 H 0.03447 0.04385 0.58626 0.0
H719 H 0.9754 0.9659 0.51007 0.0
H720 H 0.0533 0.99849 0.52057 0.0
H721 H 0.95649 0.01137 0.575 0.0
H722 H 1.00411 0.97753 0.51422 0.0
H723 H 0.00575 0.03224 0.58215 0.0
C724 C 0.03259 0.03151 0.57079 0.0
C725 C 0.04639 0.02217 0.5538 0.0
C726 C 0.99366 0.98494 0.52763 0.0
C727 C 0.01352 0.00872 0.54922 0.0
C728 C 0.97726 0.97827 0.52538 0.0
C729 C 0.96345 0.98763 0.54215 0.0
C730 C 0.9963 1.0011 0.54679 0.0
C731 C 0.96669 1.00365 0.56153 0.0
C732 C 0.01619 0.02485 0.56856 0.0
C733 C 0.04312 0.00619 0.53423 0.0
N734 N 0.98273 0.00985 0.56323 0.0
N735 N 0.02708 0.99999 0.53256 0.0
H736 H 0.11722 0.4689 0.9123 0.0
H737 H 0.11884 0.54033 0.7144 0.0
H738 H 0.11923 0.52227 0.94193 0.0
H739 H 0.11639 0.48695 0.68512 0.0
H740 H 0.12288 0.53388 0.79754 0.0
H741 H 0.1209 0.47511 0.82895 0.0
C742 C 0.1187 0.4819 0.90141 0.0
C743 C 0.11774 0.49508 0.93416 0.0
C744 C 0.12165 0.52357 0.77284 0.0
C745 C 0.12176 0.50233 0.83866 0.0
C746 C 0.11938 0.52726 0.72532 0.0
C747 C 0.1171 0.51418 0.69276 0.0
C748 C 0.12158 0.50668 0.78795 0.0
C749 C 0.11794 0.49746 0.70898 0.0
C750 C 0.12074 0.48546 0.85374 0.0
C751 C 0.11976 0.5117 0.91793 0.0
N752 N 0.11995 0.4942 0.75541 0.0
N753 N 0.12149 0.51485 0.87135 0.0
H754 H 0.71868 0.86736 0.9351 0.0
H755 H 0.79043 0.86939 0.13299 0.0
H756 H 0.77221 0.86952 0.90539 0.0
H757 H 0.73689 0.86678 0.16237 0.0
H758 H 0.7839 0.8732 0.04979 0.0
H759 H 0.72494 0.871 0.01847 0.0
C760 C 0.73173 0.86886 0.94598 0.0
C761 C 0.74494 0.86797 0.91319 0.0
C762 C 0.77358 0.87198 0.07452 0.0
C763 C 0.75224 0.87194 0.00871 0.0
C764 C 0.7773 0.86984 0.12207 0.0
C765 C 0.7642 0.8676 0.1547 0.0
C766 C 0.75662 0.87182 0.05943 0.0
C767 C 0.74742 0.86832 0.13847 0.0
C768 C 0.73531 0.87088 0.99365 0.0
C769 C 0.76161 0.87 0.92941 0.0
N770 N 0.74413 0.87021 0.09202 0.0
N771 N 0.76479 0.87171 0.976 0.0
H772 H 0.39071 0.52127 0.15984 0.0
H773 H 0.39268 0.48469 0.42072 0.0
H774 H 0.39284 0.46812 0.19221 0.0
H775 H 0.39186 0.53788 0.38845 0.0
H776 H 0.38908 0.47835 0.3376 0.0
H777 H 0.38741 0.52745 0.24316 0.0
C778 C 0.39027 0.51086 0.1844 0.0
C779 C 0.3922 0.49414 0.16895 0.0
C780 C 0.38951 0.49142 0.34867 0.0
C781 C 0.38858 0.50118 0.26475 0.0
C782 C 0.39155 0.49507 0.39623 0.0
C783 C 0.39272 0.51186 0.41163 0.0
C784 C 0.38872 0.50465 0.31604 0.0
C785 C 0.39109 0.52475 0.3782 0.0
C786 C 0.38842 0.51442 0.23207 0.0
C787 C 0.39146 0.4812 0.20248 0.0
N788 N 0.38933 0.52087 0.33196 0.0
N789 N 0.38988 0.485 0.2488 0.0
H790 H 0.77335 0.1419 0.67798 0.0
H791 H 0.73618 0.14244 0.41747 0.0
H792 H 0.71994 0.14264 0.64623 0.0
H793 H 0.78959 0.14343 0.44922 0.0
H794 H 0.73007 0.13879 0.5007 0.0
H795 H 0.7795 0.13873 0.5946 0.0
C796 C 0.76288 0.14118 0.65354 0.0
C797 C 0.74609 0.14268 0.66918 0.0
C798 C 0.74314 0.13963 0.48948 0.0
C799 C 0.75308 0.13919 0.57331 0.0
C800 C 0.74666 0.14169 0.44187 0.0
C801 C 0.76344 0.14339 0.42629 0.0
C802 C 0.75648 0.13934 0.52199 0.0
C803 C 0.77646 0.14224 0.45961 0.0
C804 C 0.76642 0.13941 0.60584 0.0
C805 C 0.73307 0.14161 0.6358 0.0
N806 N 0.7727 0.14045 0.5059 0.0
N807 N 0.73685 0.14009 0.58944 0.0
H808 H 0.892 0.48713 0.17891 0.0
H809 H 0.88995 0.52327 0.44024 0.0
H810 H 0.89133 0.54027 0.21212 0.0
H811 H 0.89241 0.4702 0.40696 0.0
H812 H 0.88641 0.52957 0.35709 0.0
H813 H 0.8882 0.48065 0.26184 0.0
C814 C 0.89086 0.49747 0.20358 0.0
C815 C 0.89215 0.51429 0.18852 0.0
C816 C 0.88753 0.51653 0.36796 0.0
C817 C 0.88791 0.50691 0.28386 0.0
C818 C 0.88951 0.5129 0.41552 0.0
C819 C 0.89164 0.49617 0.43064 0.0
C820 C 0.88775 0.50335 0.33506 0.0
C821 C 0.89089 0.48328 0.39694 0.0
C822 C 0.8887 0.49374 0.25101 0.0
C823 C 0.89048 0.52712 0.22213 0.0
N824 N 0.88919 0.48715 0.35071 0.0
N825 N 0.88862 0.52316 0.26826 0.0
H826 H 0.27361 0.14357 0.93591 0.0
H827 H 0.23751 0.1395 0.19712 0.0
H828 H 0.22034 0.14143 0.96898 0.0
H829 H 0.29067 0.14314 0.16376 0.0
H830 H 0.23121 0.13612 0.11387 0.0
H831 H 0.2802 0.13946 0.01865 0.0
C832 C 0.26327 0.14204 0.9605 0.0
C833 C 0.24637 0.14301 0.94547 0.0
C834 C 0.24428 0.13745 0.12475 0.0
C835 C 0.25388 0.13842 0.04063 0.0
C836 C 0.2479 0.13934 0.17237 0.0
C837 C 0.26465 0.14178 0.18749 0.0
C838 C 0.25747 0.13808 0.09182 0.0
C839 C 0.27757 0.14139 0.15374 0.0
C840 C 0.26706 0.13971 0.00784 0.0
C841 C 0.23354 0.14085 0.97898 0.0
N842 N 0.2737 0.13978 0.10748 0.0
N843 N 0.23756 0.13883 0.02503 0.0
H844 H 0.61698 0.54168 0.91581 0.0
H845 H 0.6186 0.46976 0.71889 0.0
H846 H 0.61959 0.4884 0.94623 0.0
H847 H 0.61488 0.52301 0.68904 0.0
H848 H 0.62292 0.47649 0.8018 0.0
H849 H 0.6203 0.53529 0.83244 0.0
C850 C 0.61853 0.52866 0.90508 0.0
C851 C 0.61783 0.51556 0.93808 0.0
C852 C 0.62134 0.48671 0.77702 0.0
C853 C 0.62143 0.50811 0.84255 0.0
C854 C 0.61891 0.48286 0.72963 0.0
C855 C 0.61621 0.49582 0.69699 0.0
C856 C 0.62103 0.50363 0.79191 0.0
C857 C 0.61677 0.51259 0.71297 0.0
C858 C 0.62036 0.525 0.8574 0.0
C859 C 0.61992 0.49892 0.92204 0.0
N860 N 0.61896 0.51599 0.75927 0.0
N861 N 0.62144 0.49566 0.87544 0.0
H862 H 0.27346 0.86603 0.66475 0.0
H863 H 0.23792 0.86893 0.40302 0.0
H864 H 0.22026 0.8678 0.6307 0.0
H865 H 0.29104 0.86584 0.43734 0.0
H866 H 0.23144 0.87283 0.48597 0.0
H867 H 0.28023 0.87016 0.58212 0.0
C868 C 0.26317 0.8675 0.63998 0.0
C869 C 0.24624 0.86638 0.65468 0.0
C870 C 0.24454 0.87151 0.47536 0.0
C871 C 0.25395 0.87099 0.55966 0.0
C872 C 0.24827 0.86933 0.42791 0.0
C873 C 0.26506 0.86687 0.41317 0.0
C874 C 0.25767 0.87115 0.50852 0.0
C875 C 0.27791 0.86759 0.44707 0.0
C876 C 0.26707 0.86984 0.59271 0.0
C877 C 0.23348 0.86849 0.62095 0.0
N878 N 0.27393 0.86946 0.49319 0.0
N879 N 0.2376 0.8705 0.57496 0.0
H880 H 0.61775 0.04184 0.20879 0.0
H881 H 0.61767 0.97029 0.4067 0.0
H882 H 0.61655 0.98843 0.1793 0.0
H883 H 0.61845 0.02369 0.43645 0.0
H884 H 0.62095 0.97662 0.32327 0.0
H885 H 0.62162 0.03543 0.29202 0.0
C886 C 0.61852 0.02877 0.21969 0.0
C887 C 0.61667 0.01566 0.18701 0.0
C888 C 0.6206 0.98695 0.3481 0.0
C889 C 0.62096 0.00821 0.28233 0.0
C890 C 0.61878 0.98333 0.39581 0.0
C891 C 0.61763 0.99647 0.42865 0.0
C892 C 0.6212 1.00384 0.33305 0.0
C893 C 0.61915 0.01314 0.4124 0.0
C894 C 0.62069 0.02511 0.26727 0.0
C895 C 0.61779 0.99896 0.20323 0.0
N896 N 0.62069 0.01635 0.36579 0.0
N897 N 0.6197 0.99572 0.24971 0.0
H898 H 0.2186 0.36707 0.43283 0.0
H899 H 0.29008 0.36746 0.6315 0.0
H900 H 0.27217 0.36927 0.40371 0.0
H901 H 0.23649 0.36482 0.66011 0.0
H902 H 0.2837 0.37183 0.54843 0.0
H903 H 0.22477 0.37009 0.51642 0.0
C904 C 0.23164 0.36845 0.4439 0.0
C905 C 0.24489 0.36775 0.41119 0.0
C906 C 0.27333 0.37047 0.57297 0.0
C907 C 0.25208 0.371 0.50696 0.0
C908 C 0.27698 0.368 0.62044 0.0
C909 C 0.26381 0.3656 0.65279 0.0
C910 C 0.2564 0.37049 0.55769 0.0
C911 C 0.24706 0.36647 0.63641 0.0
C912 C 0.23517 0.37011 0.4917 0.0
C913 C 0.26155 0.36962 0.42766 0.0
N914 N 0.24385 0.36869 0.59003 0.0
N915 N 0.26467 0.37098 0.47436 0.0
H916 H 0.89191 0.0415 0.89989 0.0
H917 H 0.89149 0.96985 0.7019 0.0
H918 H 0.8919 0.9881 0.92949 0.0
H919 H 0.89277 0.02324 0.67236 0.0
H920 H 0.88783 0.9763 0.78519 0.0
H921 H 0.8884 0.03512 0.81652 0.0
C922 C 0.89093 0.02845 0.88898 0.0
C923 C 0.89236 0.01533 0.92175 0.0
C924 C 0.88873 0.98661 0.76042 0.0
C925 C 0.8885 0.0079 0.82623 0.0
C926 C 0.89077 0.98292 0.7128 0.0
C927 C 0.8926 0.99601 0.68008 0.0
C928 C 0.88856 1.00351 0.7755 0.0
C929 C 0.89155 0.01273 0.69632 0.0
C930 C 0.88898 0.0248 0.84131 0.0
C931 C 0.89099 0.99864 0.90549 0.0
N932 N 0.88976 0.01599 0.74284 0.0
N933 N 0.8893 0.99541 0.85892 0.0
H934 H 0.29054 0.64236 0.94678 0.0
H935 H 0.21943 0.64144 0.14693 0.0
H936 H 0.23686 0.64244 0.91869 0.0
H937 H 0.27311 0.64195 0.17505 0.0
H938 H 0.22556 0.63842 0.06325 0.0
H939 H 0.28445 0.63884 0.03032 0.0
C940 C 0.27748 0.64142 0.95807 0.0
C941 C 0.2642 0.64284 0.92565 0.0
C942 C 0.236 0.63902 0.08777 0.0
C943 C 0.25711 0.63895 0.02137 0.0
C944 C 0.2325 0.64069 0.13561 0.0
C945 C 0.24577 0.64208 0.16809 0.0
C946 C 0.2529 0.63879 0.07222 0.0
C947 C 0.26246 0.64104 0.15131 0.0
C948 C 0.274 0.63945 0.00583 0.0
C949 C 0.24751 0.64152 0.94239 0.0
N950 N 0.26554 0.6396 0.1046 0.0
N951 N 0.24445 0.6398 0.98903 0.0
H952 H 0.3897 0.02136 0.93398 0.0
H953 H 0.39041 0.98556 0.67243 0.0
H954 H 0.39196 0.96834 0.9 0.0
H955 H 0.3908 0.03864 0.70638 0.0
H956 H 0.38645 0.97901 0.75525 0.0
H957 H 0.38554 0.02777 0.85113 0.0
C958 C 0.38908 0.01103 0.90918 0.0
C959 C 0.39137 0.99428 0.92396 0.0
C960 C 0.3872 0.9921 0.74459 0.0
C961 C 0.38676 1.00158 0.82875 0.0
C962 C 0.38943 0.99587 0.69722 0.0
C963 C 0.39113 0.01269 0.68243 0.0
C964 C 0.38673 0.00523 0.77763 0.0
C965 C 0.38966 0.0255 0.71619 0.0
C966 C 0.38675 0.01472 0.86179 0.0
C967 C 0.39035 0.98143 0.8902 0.0
N968 N 0.38773 0.02149 0.76226 0.0
N969 N 0.38832 0.98536 0.84413 0.0
H970 H 0.77391 0.64028 0.4084 0.0
H971 H 0.73753 0.64248 0.66944 0.0
H972 H 0.72067 0.64295 0.44148 0.0
H973 H 0.79085 0.64209 0.63645 0.0
H974 H 0.73108 0.63843 0.58657 0.0
H975 H 0.78018 0.63664 0.49154 0.0
C976 C 0.7635 0.63986 0.43307 0.0
C977 C 0.74673 0.6421 0.41792 0.0
C978 C 0.7442 0.63905 0.59744 0.0
C979 C 0.75387 0.63809 0.51346 0.0
C980 C 0.74791 0.64134 0.64484 0.0
C981 C 0.76477 0.6428 0.65992 0.0
C982 C 0.75743 0.63829 0.56466 0.0
C983 C 0.77767 0.64113 0.62641 0.0
C984 C 0.76711 0.63782 0.48062 0.0
C985 C 0.73378 0.64136 0.45154 0.0
N986 N 0.77373 0.63913 0.5803 0.0
N987 N 0.73764 0.6396 0.49777 0.0
H988 H 0.11829 0.03956 0.39319 0.0
H989 H 0.11725 0.96782 0.1954 0.0
H990 H 0.11661 0.98619 0.4229 0.0
H991 H 0.1175 0.02121 0.16563 0.0
H992 H 0.12084 0.97423 0.27874 0.0
H993 H 0.12181 0.03305 0.30988 0.0
C994 C 0.1189 0.02648 0.38232 0.0
C995 C 0.117 0.01342 0.4151 0.0
C996 C 0.1203 0.98454 0.25391 0.0
C997 C 0.12088 0.00585 0.31966 0.0
C998 C 0.1183 0.98088 0.20626 0.0
C999 C 0.11692 0.99399 0.17345 0.0
C1000 C 0.12087 1.00144 0.26894 0.0
C1001 C 0.11838 0.01068 0.18966 0.0
C1002 C 0.12086 0.02276 0.33469 0.0
C1003 C 0.11789 0.99669 0.39889 0.0
N1004 N 0.12011 0.01392 0.23621 0.0
N1005 N 0.11961 0.9934 0.35237 0.0
H1006 H 0.77165 0.36742 0.1705 0.0
H1007 H 0.73583 0.37017 0.90896 0.0
H1008 H 0.7184 0.36824 0.13677 0.0
H1009 H 0.78901 0.36755 0.94287 0.0
H1010 H 0.72938 0.37376 0.99204 0.0
H1011 H 0.77828 0.37167 0.08783 0.0
C1012 C 0.76132 0.3687 0.14579 0.0
C1013 C 0.74443 0.3673 0.1606 0.0
C1014 C 0.74248 0.37261 0.98132 0.0
C1015 C 0.75198 0.37203 0.06553 0.0
C1016 C 0.7462 0.3706 0.93379 0.0
C1017 C 0.763 0.36838 0.91888 0.0
C1018 C 0.75564 0.37232 0.01437 0.0
C1019 C 0.77587 0.36913 0.95273 0.0
C1020 C 0.76514 0.37111 0.09849 0.0
C1021 C 0.7316 0.36916 0.12694 0.0
N1022 N 0.77191 0.37084 0.99891 0.0
N1023 N 0.73565 0.37125 0.08093 0.0
H1024 H 0.12502 0.54307 0.39488 0.0
H1025 H 0.11191 0.46391 0.23556 0.0
H1026 H 0.12213 0.49237 0.44917 0.0
H1027 H 0.12524 0.51285 0.18062 0.0
H1028 H 0.12056 0.47313 0.31337 0.0
H1029 H 0.13061 0.53172 0.31699 0.0
C1030 C 0.12598 0.52952 0.39052 0.0
C1031 C 0.12277 0.51861 0.42819 0.0
C1032 C 0.12189 0.4818 0.28428 0.0
C1033 C 0.12875 0.50552 0.33901 0.0
C1034 C 0.11685 0.47657 0.23985 0.0
C1035 C 0.11749 0.48779 0.20188 0.0
C1036 C 0.1273 0.4985 0.29103 0.0
C1037 C 0.12434 0.5039 0.20914 0.0
C1038 C 0.12916 0.52304 0.34602 0.0
C1039 C 0.12438 0.5012 0.4209 0.0
N1040 N 0.12865 0.50891 0.25315 0.0
N1041 N 0.12684 0.49516 0.37682 0.0
H1042 H 0.71356 0.86272 0.61162 0.0
H1043 H 0.79293 0.87655 0.45267 0.0
H1044 H 0.76262 0.87613 0.66672 0.0
H1045 H 0.74212 0.87298 0.39823 0.0
H1046 H 0.78145 0.88209 0.53046 0.0
H1047 H 0.72274 0.87155 0.53395 0.0
C1048 C 0.72624 0.86771 0.6074 0.0
C1049 C 0.73751 0.86833 0.64537 0.0
C1050 C 0.77277 0.88051 0.50142 0.0
C1051 C 0.74817 0.87834 0.55636 0.0
C1052 C 0.77932 0.87736 0.45697 0.0
C1053 C 0.76842 0.87397 0.4193 0.0
C1054 C 0.75519 0.87988 0.50839 0.0
C1055 C 0.75094 0.87538 0.4265 0.0
C1056 C 0.73145 0.87286 0.56304 0.0
C1057 C 0.75363 0.87525 0.6382 0.0
N1058 N 0.74484 0.87782 0.47055 0.0
N1059 N 0.75862 0.87966 0.59426 0.0
H1060 H 0.38435 0.54255 0.70947 0.0
H1061 H 0.38928 0.46217 0.86956 0.0
H1062 H 0.38511 0.49167 0.65576 0.0
H1063 H 0.38331 0.5127 0.92335 0.0
H1064 H 0.38145 0.47217 0.79183 0.0
H1065 H 0.37747 0.53164 0.78699 0.0
C1066 C 0.3827 0.52907 0.71386 0.0
C1067 C 0.38566 0.51795 0.67644 0.0
C1068 C 0.38152 0.48105 0.82068 0.0
C1069 C 0.37812 0.50534 0.76535 0.0
C1070 C 0.38603 0.47536 0.86511 0.0
C1071 C 0.38731 0.48672 0.90269 0.0
C1072 C 0.37857 0.49832 0.81352 0.0
C1073 C 0.38266 0.50357 0.89519 0.0
C1074 C 0.37877 0.52284 0.75817 0.0
C1075 C 0.3831 0.50065 0.68381 0.0
N1076 N 0.37885 0.50894 0.85117 0.0
N1077 N 0.37985 0.49484 0.72774 0.0
H1078 H 0.79502 0.13745 0.12849 0.0
H1079 H 0.71458 0.13583 0.96718 0.0
H1080 H 0.74395 0.13459 0.1814 0.0
H1081 H 0.76572 0.134 0.91445 0.0
H1082 H 0.72499 0.12867 0.04503 0.0
H1083 H 0.78479 0.12954 0.05099 0.0
C1084 C 0.78166 0.13483 0.12392 0.0
C1085 C 0.77023 0.13704 0.16111 0.0
C1086 C 0.73394 0.12947 0.01637 0.0
C1087 C 0.75838 0.12827 0.07221 0.0
C1088 C 0.728 0.13357 0.97187 0.0
C1089 C 0.73937 0.13587 0.93462 0.0
C1090 C 0.75143 0.12798 0.0239 0.0
C1091 C 0.75656 0.13251 0.94237 0.0
C1092 C 0.77582 0.1303 0.07962 0.0
C1093 C 0.75314 0.1332 0.15352 0.0
N1094 N 0.76213 0.12911 0.98647 0.0
N1095 N 0.74765 0.12937 0.10959 0.0
H1096 H 0.88275 0.51415 0.67395 0.0
H1097 H 0.88461 0.49374 0.9473 0.0
H1098 H 0.89526 0.46575 0.73387 0.0
H1099 H 0.88537 0.54392 0.88873 0.0
H1100 H 0.87855 0.48242 0.86915 0.0
H1101 H 0.87417 0.52401 0.75194 0.0
C1102 C 0.88338 0.50552 0.70331 0.0
C1103 C 0.89012 0.48928 0.69782 0.0
C1104 C 0.87966 0.49595 0.87367 0.0
C1105 C 0.8803 0.50036 0.78659 0.0
C1106 C 0.883 0.50241 0.91828 0.0
C1107 C 0.88589 0.51973 0.92411 0.0
C1108 C 0.87916 0.50693 0.835 0.0
C1109 C 0.88361 0.53042 0.88542 0.0
C1110 C 0.8785 0.51113 0.74774 0.0
C1111 C 0.89053 0.47853 0.73687 0.0
N1112 N 0.88066 0.52383 0.84231 0.0
N1113 N 0.8859 0.48432 0.77971 0.0
H1114 H 0.21732 0.13376 0.64771 0.0
H1115 H 0.29671 0.14887 0.48944 0.0
H1116 H 0.26793 0.13854 0.70286 0.0
H1117 H 0.24816 0.13389 0.43393 0.0
H1118 H 0.2875 0.14034 0.56735 0.0
H1119 H 0.22907 0.1284 0.57014 0.0
C1120 C 0.23095 0.13326 0.64362 0.0
C1121 C 0.24169 0.13693 0.68144 0.0
C1122 C 0.27892 0.13863 0.53813 0.0
C1123 C 0.25523 0.13122 0.59259 0.0
C1124 C 0.28414 0.14361 0.49363 0.0
C1125 C 0.27302 0.14244 0.45543 0.0
C1126 C 0.26233 0.13275 0.5447 0.0
C1127 C 0.25704 0.13519 0.46261 0.0
C1128 C 0.23766 0.13021 0.5993 0.0
C1129 C 0.25922 0.13591 0.67448 0.0
N1130 N 0.25203 0.13094 0.50665 0.0
N1131 N 0.26546 0.13357 0.63056 0.0
H1132 H 0.62664 0.49839 0.18283 0.0
H1133 H 0.6213 0.51837 0.45631 0.0
H1134 H 0.60933 0.5454 0.24233 0.0
H1135 H 0.62482 0.46831 0.39761 0.0
H1136 H 0.62677 0.53016 0.37838 0.0
H1137 H 0.63529 0.48918 0.26133 0.0
C1138 C 0.62493 0.50687 0.21224 0.0
C1139 C 0.61688 0.52249 0.20638 0.0
C1140 C 0.62675 0.51659 0.38285 0.0
C1141 C 0.62682 0.51215 0.29573 0.0
C1142 C 0.62375 0.50987 0.42734 0.0
C1143 C 0.62223 0.49238 0.43302 0.0
C1144 C 0.62827 0.50569 0.34416 0.0
C1145 C 0.62553 0.48191 0.39438 0.0
C1146 C 0.62986 0.50163 0.25695 0.0
C1147 C 0.61511 0.53307 0.24554 0.0
N1148 N 0.62812 0.48873 0.35139 0.0
N1149 N 0.61986 0.52764 0.28863 0.0
H1150 H 0.21694 0.87234 0.95373 0.0
H1151 H 0.2967 0.85764 0.11096 0.0
H1152 H 0.26753 0.86879 0.89771 0.0
H1153 H 0.24835 0.87276 0.16744 0.0
H1154 H 0.28719 0.86587 0.03307 0.0
H1155 H 0.22874 0.87728 0.03148 0.0
C1156 C 0.23057 0.873 0.9577 0.0
C1157 C 0.24131 0.86985 0.91952 0.0
C1158 C 0.27872 0.86767 0.0625 0.0
C1159 C 0.2549 0.87509 0.00853 0.0
C1160 C 0.28411 0.86286 0.10698 0.0
C1161 C 0.27314 0.86418 0.14549 0.0
C1162 C 0.26212 0.87354 0.05626 0.0
C1163 C 0.25712 0.87135 0.13854 0.0
C1164 C 0.23731 0.87582 1.00211 0.0
C1165 C 0.25883 0.87104 0.92635 0.0
N1166 N 0.25195 0.87545 0.09453 0.0
N1167 N 0.26511 0.87317 0.97033 0.0
H1168 H 0.61664 0.96523 0.72982 0.0
H1169 H 0.62454 0.04526 0.88895 0.0
H1170 H 0.62589 0.01512 0.67504 0.0
H1171 H 0.62395 0.99449 0.94326 0.0
H1172 H 0.631 0.0342 0.81128 0.0
H1173 H 0.62489 0.975 0.80748 0.0
C1174 C 0.62064 0.97822 0.7341 0.0
C1175 C 0.62022 0.98951 0.69626 0.0
C1176 C 0.62985 0.02546 0.84027 0.0
C1177 C 0.62948 1.00084 0.78525 0.0
C1178 C 0.62617 0.03177 0.88465 0.0
C1179 C 0.62336 0.02072 0.92226 0.0
C1180 C 0.63037 0.00794 0.83328 0.0
C1181 C 0.62586 1.00342 0.91504 0.0
C1182 C 0.62543 0.98378 0.77845 0.0
C1183 C 0.62585 0.00608 0.70347 0.0
N1184 N 0.62882 0.99751 0.87106 0.0
N1185 N 0.62991 0.01136 0.74742 0.0
H1186 H 0.26255 0.37767 0.16608 0.0
H1187 H 0.24138 0.37276 0.89354 0.0
H1188 H 0.21447 0.36244 0.10792 0.0
H1189 H 0.29185 0.37487 0.951 0.0
H1190 H 0.22997 0.37904 0.97148 0.0
H1191 H 0.27176 0.38623 0.0875 0.0
C1192 C 0.25383 0.37643 0.13697 0.0
C1193 C 0.23791 0.36893 0.14316 0.0
C1194 C 0.24356 0.37853 0.96672 0.0
C1195 C 0.24826 0.37874 0.05371 0.0
C1196 C 0.25006 0.37506 0.92222 0.0
C1197 C 0.26753 0.37289 0.91624 0.0
C1198 C 0.25465 0.37986 0.00511 0.0
C1199 C 0.27826 0.37606 0.95449 0.0
C1200 C 0.25908 0.3813 0.0922 0.0
C1201 C 0.22704 0.36776 0.1044 0.0
N1202 N 0.27163 0.37909 0.99752 0.0
N1203 N 0.23248 0.3724 0.06122 0.0
H1204 H 0.88695 0.96554 0.38131 0.0
H1205 H 0.88849 0.04606 0.22108 0.0
H1206 H 0.88542 0.01641 0.43502 0.0
H1207 H 0.8848 0.99531 0.16733 0.0
H1208 H 0.88106 0.03573 0.2988 0.0
H1209 H 0.8798 0.97614 0.30367 0.0
C1210 C 0.88478 0.97895 0.37688 0.0
C1211 C 0.88714 0.99018 0.41437 0.0
C1212 C 0.88153 0.02686 0.26996 0.0
C1213 C 0.87925 1.00245 0.32532 0.0
C1214 C 0.8858 0.03275 0.22553 0.0
C1215 C 0.88762 0.02144 0.18799 0.0
C1216 C 0.87937 0.00948 0.27713 0.0
C1217 C 0.8837 1.00441 0.19547 0.0
C1218 C 0.88068 0.98499 0.3325 0.0
C1219 C 0.88389 0.00735 0.40692 0.0
N1220 N 0.88013 0.99887 0.23949 0.0
N1221 N 0.88048 0.01302 0.36294 0.0
H1222 H 0.29518 0.63566 0.62822 0.0
H1223 H 0.21505 0.63356 0.46564 0.0
H1224 H 0.24396 0.63311 0.68012 0.0
H1225 H 0.26634 0.63257 0.4139 0.0
H1226 H 0.22536 0.62632 0.54355 0.0
H1227 H 0.28514 0.62754 0.55071 0.0
C1228 C 0.28182 0.63307 0.62344 0.0
C1229 C 0.2703 0.63544 0.66032 0.0
C1230 C 0.23437 0.62732 0.51508 0.0
C1231 C 0.25867 0.62641 0.57139 0.0
C1232 C 0.22848 0.63146 0.47054 0.0
C1233 C 0.23992 0.63404 0.43359 0.0
C1234 C 0.25185 0.62607 0.52294 0.0
C1235 C 0.25713 0.63087 0.4416 0.0
C1236 C 0.2761 0.62841 0.57913 0.0
C1237 C 0.25322 0.63161 0.65247 0.0
N1238 N 0.26263 0.62743 0.48574 0.0
N1239 N 0.24785 0.62766 0.60852 0.0
H1240 H 0.38516 0.01321 0.16634 0.0
H1241 H 0.3857 0.99308 0.44016 0.0
H1242 H 0.39552 0.96431 0.22632 0.0
H1243 H 0.3921 0.04271 0.38058 0.0
H1244 H 0.37898 0.98218 0.36185 0.0
H1245 H 0.37749 0.02358 0.24454 0.0
C1246 C 0.38546 1.00458 0.19576 0.0
C1247 C 0.39138 0.98803 0.19028 0.0
C1248 C 0.38151 0.99552 0.36621 0.0
C1249 C 0.3826 0.9997 0.27916 0.0
C1250 C 0.38528 1.00174 0.41081 0.0
C1251 C 0.38985 0.0187 0.41642 0.0
C1252 C 0.38222 0.00642 0.32739 0.0
C1253 C 0.38903 0.02944 0.3774 0.0
C1254 C 0.38112 0.01049 0.24029 0.0
C1255 C 0.39141 0.9773 0.22938 0.0
N1256 N 0.38553 0.02308 0.33438 0.0
N1257 N 0.38731 0.98338 0.27232 0.0
H1258 H 0.76481 0.63413 0.17456 0.0
H1259 H 0.74415 0.63609 0.90122 0.0
H1260 H 0.71628 0.6469 0.11491 0.0
H1261 H 0.79451 0.63744 0.95965 0.0
H1262 H 0.73289 0.63002 0.97946 0.0
H1263 H 0.77465 0.62571 0.09641 0.0
C1264 C 0.75614 0.63484 0.14522 0.0
C1265 C 0.73988 0.64161 0.15084 0.0
C1266 C 0.74645 0.63126 0.97488 0.0
C1267 C 0.75093 0.63196 0.06192 0.0
C1268 C 0.75287 0.63462 0.93023 0.0
C1269 C 0.77021 0.63766 0.92434 0.0
C1270 C 0.7575 0.6309 0.01351 0.0
C1271 C 0.78099 0.63556 0.96302 0.0
C1272 C 0.76174 0.63006 0.1007 0.0
C1273 C 0.72908 0.64214 0.11181 0.0
N1274 N 0.77443 0.63257 0.00615 0.0
N1275 N 0.73486 0.63759 0.0689 0.0
H1276 H 0.12033 0.96319 0.87402 0.0
H1277 H 0.12338 0.04372 0.71389 0.0
H1278 H 0.12467 0.01388 0.92786 0.0
H1279 H 0.124 0.99284 0.66016 0.0
H1280 H 0.13028 0.03299 0.79156 0.0
H1281 H 0.12799 0.97342 0.79638 0.0
C1282 C 0.1232 0.97647 0.8696 0.0
C1283 C 0.1215 0.98779 0.90715 0.0
C1284 C 0.12926 0.02415 0.76272 0.0
C1285 C 0.13003 0.99965 0.81809 0.0
C1286 C 0.12531 0.03028 0.71832 0.0
C1287 C 0.12276 0.01909 0.68082 0.0
C1288 C 0.13036 0.00668 0.76991 0.0
C1289 C 0.1257 1.00187 0.68827 0.0
C1290 C 0.12761 0.9823 0.82522 0.0
C1291 C 0.12566 0.00477 0.89971 0.0
N1292 N 0.12896 0.99613 0.73227 0.0
N1293 N 0.12937 0.01026 0.85573 0.0
H1294 H 0.79469 0.36217 0.61706 0.0
H1295 H 0.71446 0.37248 0.45936 0.0
H1296 H 0.74546 0.37437 0.67304 0.0
H1297 H 0.76522 0.37135 0.40375 0.0
H1298 H 0.7259 0.3783 0.53703 0.0
H1299 H 0.78493 0.37019 0.53923 0.0
C1300 C 0.78185 0.36674 0.61298 0.0
C1301 C 0.77072 0.36726 0.65127 0.0
C1302 C 0.73456 0.37717 0.50777 0.0
C1303 C 0.7594 0.37631 0.56213 0.0
C1304 C 0.72803 0.37384 0.4634 0.0
C1305 C 0.73896 0.3711 0.42539 0.0
C1306 C 0.75216 0.37739 0.51432 0.0
C1307 C 0.75638 0.37323 0.43229 0.0
C1308 C 0.77631 0.37141 0.56854 0.0
C1309 C 0.75436 0.3736 0.64427 0.0
N1310 N 0.76249 0.37585 0.47624 0.0
N1311 N 0.74906 0.37755 0.60028 0.0
H1312 H 0.09069 0.40202 0.13908 0.0
H1313 H 0.17929 0.38585 0.2532 0.0
H1314 H 0.1349 0.43 0.0961 0.0
H1315 H 0.15235 0.34237 0.20083 0.0
H1316 H 0.15857 0.40417 0.21475 0.0
H1317 H 0.10932 0.3811 0.17685 0.0
C1318 C 0.10429 0.40356 0.1367 0.0
C1319 C 0.11128 0.41769 0.11405 0.0
C1320 C 0.15709 0.3906 0.2124 0.0
C1321 C 0.13239 0.39443 0.15897 0.0
C1322 C 0.16874 0.38013 0.23484 0.0
C1323 C 0.16754 0.36254 0.23025 0.0
C1324 C 0.1439 0.38346 0.18615 0.0
C1325 C 0.15372 0.35587 0.20525 0.0
C1326 C 0.11484 0.39171 0.15846 0.0
C1327 C 0.12897 0.41921 0.1126 0.0
N1328 N 0.14237 0.36635 0.1841 0.0
N1329 N 0.1389 0.40792 0.1356 0.0
H1330 H 0.91616 0.91467 0.40117 0.0
H1331 H 0.844 0.84552 0.44247 0.0
H1332 H 0.89099 0.90753 0.53394 0.0
H1333 H 0.85396 0.86835 0.30797 0.0
H1334 H 0.86691 0.86227 0.47651 0.0
H1335 H 0.89919 0.89182 0.3679 0.0
C1336 C 0.90736 0.90806 0.42373 0.0
C1337 C 0.90492 0.91316 0.47046 0.0
C1338 C 0.86425 0.8634 0.43941 0.0
C1339 C 0.88543 0.88694 0.43227 0.0
C1340 C 0.85124 0.85376 0.41976 0.0
C1341 C 0.84693 0.8556 0.37222 0.0
C1342 C 0.87321 0.87483 0.41128 0.0
C1343 C 0.85677 0.86656 0.34476 0.0
C1344 C 0.89759 0.89508 0.4045 0.0
C1345 C 0.89325 0.9041 0.49775 0.0
N1346 N 0.86939 0.87583 0.36474 0.0
N1347 N 0.88386 0.8915 0.47818 0.0
H1348 H 0.39149 0.60186 0.55679 0.0
H1349 H 0.35173 0.6411 0.78509 0.0
H1350 H 0.41343 0.5936 0.69336 0.0
H1351 H 0.34541 0.66433 0.64947 0.0
H1352 H 0.37479 0.62396 0.75289 0.0
H1353 H 0.37486 0.62518 0.58947 0.0
C1354 C 0.39307 0.60515 0.59338 0.0
C1355 C 0.40384 0.59568 0.62234 0.0
C1356 C 0.36856 0.63304 0.73043 0.0
C1357 C 0.38452 0.62208 0.66026 0.0
C1358 C 0.35541 0.64286 0.74886 0.0
C1359 C 0.34654 0.65414 0.71997 0.0
C1360 C 0.37262 0.63423 0.68255 0.0
C1361 C 0.35185 0.65581 0.67313 0.0
C1362 C 0.38355 0.61845 0.61207 0.0
C1363 C 0.4053 0.60051 0.66963 0.0
N1364 N 0.36431 0.64575 0.65569 0.0
N1365 N 0.39553 0.61314 0.68727 0.0
H1366 H 0.66436 0.16631 0.94829 0.0
H1367 H 0.59371 0.09586 0.90427 0.0
H1368 H 0.65651 0.14214 0.81446 0.0
H1369 H 0.61719 0.10442 0.03879 0.0
H1370 H 0.61064 0.11879 0.8713 0.0
H1371 H 0.6411 0.14971 0.98096 0.0
C1372 C 0.6575 0.15782 0.92538 0.0
C1373 C 0.66252 0.15553 0.87853 0.0
C1374 C 0.61186 0.11582 0.9082 0.0
C1375 C 0.63585 0.13647 0.91601 0.0
C1376 C 0.60212 0.10281 0.92724 0.0
C1377 C 0.60411 0.09808 0.97442 0.0
C1378 C 0.62355 0.12437 0.93658 0.0
C1379 C 0.61528 0.10755 1.00225 0.0
C1380 C 0.64429 0.14826 0.94426 0.0
C1381 C 0.65315 0.14426 0.85076 0.0
N1382 N 0.62467 0.12017 0.98284 0.0
N1383 N 0.64034 0.13506 0.87 0.0
H1384 H 0.157 0.64074 0.31407 0.0
H1385 H 0.11834 0.60293 0.5455 0.0
H1386 H 0.16513 0.66401 0.44899 0.0
H1387 H 0.09522 0.59464 0.4104 0.0
H1388 H 0.1351 0.6259 0.51144 0.0
H1389 H 0.13377 0.62426 0.34798 0.0
C1390 C 0.15368 0.64265 0.35052 0.0
C1391 C 0.16311 0.65373 0.37871 0.0
C1392 C 0.12612 0.61925 0.48948 0.0
C1393 C 0.13683 0.63458 0.41805 0.0
C1394 C 0.11653 0.60615 0.50896 0.0
C1395 C 0.10541 0.59676 0.48079 0.0
C1396 C 0.12485 0.62275 0.44128 0.0
C1397 C 0.10364 0.60149 0.43352 0.0
C1398 C 0.14044 0.63321 0.36992 0.0
C1399 C 0.15826 0.65562 0.42586 0.0
N1400 N 0.11348 0.61392 0.41509 0.0
N1401 N 0.14569 0.64593 0.44422 0.0
H1402 H 0.59109 0.90294 0.6432 0.0
H1403 H 0.67948 0.88541 0.75537 0.0
H1404 H 0.63583 0.9288 0.59463 0.0
H1405 H 0.65202 0.84202 0.70453 0.0
H1406 H 0.65894 0.90379 0.71641 0.0
H1407 H 0.60932 0.88184 0.68171 0.0
C1408 C 0.6047 0.90397 0.63977 0.0
C1409 C 0.61197 0.91755 0.61531 0.0
C1410 C 0.6573 0.89023 0.71455 0.0
C1411 C 0.63266 0.89412 0.66102 0.0
C1412 C 0.66885 0.87973 0.73727 0.0
C1413 C 0.66745 0.86214 0.73324 0.0
C1414 C 0.64402 0.88313 0.68861 0.0
C1415 C 0.65354 0.85552 0.70853 0.0
C1416 C 0.61503 0.89202 0.66194 0.0
C1417 C 0.62969 0.91843 0.61254 0.0
N1418 N 0.64229 0.86604 0.6871 0.0
N1419 N 0.63942 0.90709 0.63597 0.0
H1420 H 0.35352 0.36576 0.8041 0.0
H1421 H 0.39035 0.40709 0.03318 0.0
H1422 H 0.34309 0.34527 0.94119 0.0
H1423 H 0.41577 0.41152 0.89987 0.0
H1424 H 0.37323 0.38403 1.00095 0.0
H1425 H 0.37674 0.38231 0.83797 0.0
C1426 C 0.35631 0.36448 0.84109 0.0
C1427 C 0.34627 0.35415 0.8698 0.0
C1428 C 0.38278 0.38985 0.97905 0.0
C1429 C 0.37254 0.37337 0.90902 0.0
C1430 C 0.39259 0.403 0.99749 0.0
C1431 C 0.40448 0.41133 0.9692 0.0
C1432 C 0.38462 0.38525 0.9317 0.0
C1433 C 0.40676 0.4055 0.92305 0.0
C1434 C 0.36955 0.37394 0.86045 0.0
C1435 C 0.35046 0.35305 0.91763 0.0
N1436 N 0.39671 0.39306 0.90551 0.0
N1437 N 0.36305 0.36277 0.93586 0.0
H1438 H 0.8451 0.16626 0.149 0.0
H1439 H 0.91584 0.09635 0.19723 0.0
H1440 H 0.85244 0.14291 0.28407 0.0
H1441 H 0.89189 0.10312 0.0626 0.0
H1442 H 0.89863 0.11936 0.22876 0.0
H1443 H 0.8682 0.14917 0.11741 0.0
C1444 C 0.85181 0.15784 0.17239 0.0
C1445 C 0.8467 0.15595 0.21932 0.0
C1446 C 0.89737 0.11598 0.19214 0.0
C1447 C 0.87321 0.13634 0.18307 0.0
C1448 C 0.90727 0.10292 0.17391 0.0
C1449 C 0.90525 0.09768 0.12714 0.0
C1450 C 0.88552 0.12407 0.16331 0.0
C1451 C 0.89383 0.10666 0.09885 0.0
C1452 C 0.86493 0.14801 0.15413 0.0
C1453 C 0.85588 0.14474 0.24771 0.0
N1454 N 0.88434 0.11936 0.11743 0.0
N1455 N 0.86863 0.1353 0.22909 0.0
H1456 H 0.89182 0.60445 0.03893 0.0
H1457 H 0.85401 0.64183 0.80614 0.0
H1458 H 0.91488 0.59516 0.90425 0.0
H1459 H 0.84632 0.66594 0.94011 0.0
H1460 H 0.87694 0.62513 0.84069 0.0
H1461 H 0.87556 0.62758 0.00402 0.0
C1462 C 0.89373 0.60748 1.0023 0.0
C1463 C 0.90468 0.59776 0.97449 0.0
C1464 C 0.87043 0.63432 0.86227 0.0
C1465 C 0.8858 0.62394 0.93404 0.0
C1466 C 0.85736 0.64388 0.84251 0.0
C1467 C 0.84814 0.65525 0.87026 0.0
C1468 C 0.87407 0.63588 0.91034 0.0
C1469 C 0.85304 0.65731 0.91732 0.0
C1470 C 0.88442 0.62067 0.98234 0.0
C1471 C 0.90658 0.60226 0.9271 0.0
N1472 N 0.86543 0.6475 0.93606 0.0
N1473 N 0.89702 0.6148 0.9082 0.0
H1474 H 0.09382 0.09446 0.69681 0.0
H1475 H 0.16541 0.16433 0.65704 0.0
H1476 H 0.11872 0.10241 0.564 0.0
H1477 H 0.1556 0.1411 0.79109 0.0
H1478 H 0.14266 0.14747 0.62262 0.0
H1479 H 0.11069 0.11727 0.73071 0.0
C1480 C 0.10254 0.10124 0.67439 0.0
C1481 C 0.10492 0.09639 0.62743 0.0
C1482 C 0.14532 0.14627 0.65971 0.0
C1483 C 0.12431 0.12255 0.66635 0.0
C1484 C 0.15823 0.15598 0.67957 0.0
C1485 C 0.16254 0.15406 0.72709 0.0
C1486 C 0.13645 0.13469 0.68759 0.0
C1487 C 0.15279 0.14295 0.75432 0.0
C1488 C 0.11225 0.11419 0.69397 0.0
C1489 C 0.1165 0.10565 0.60034 0.0
N1490 N 0.14027 0.13361 0.73413 0.0
N1491 N 0.12583 0.11822 0.62026 0.0
H1492 H 0.66263 0.34344 0.44176 0.0
H1493 H 0.59425 0.41656 0.40454 0.0
H1494 H 0.6552 0.36897 0.3098 0.0
H1495 H 0.61719 0.40555 0.53832 0.0
H1496 H 0.6107 0.39373 0.36925 0.0
H1497 H 0.64019 0.36066 0.47628 0.0
C1498 C 0.65603 0.35239 0.41965 0.0
C1499 C 0.66094 0.35483 0.37275 0.0
C1500 C 0.61193 0.39615 0.40646 0.0
C1501 C 0.63519 0.37461 0.41239 0.0
C1502 C 0.60246 0.40911 0.42681 0.0
C1503 C 0.60441 0.41309 0.47454 0.0
C1504 C 0.6233 0.3869 0.43405 0.0
C1505 C 0.61532 0.403 0.50141 0.0
C1506 C 0.6433 0.36229 0.43959 0.0
C1507 C 0.65192 0.36669 0.34608 0.0
N1508 N 0.62443 0.39043 0.48075 0.0
N1509 N 0.63956 0.37621 0.36633 0.0
H1510 H 0.4196 0.90104 0.1419 0.0
H1511 H 0.33062 0.88402 0.2535 0.0
H1512 H 0.37496 0.92701 0.09325 0.0
H1513 H 0.35926 0.84064 0.20808 0.0
H1514 H 0.35105 0.90237 0.21386 0.0
H1515 H 0.40128 0.88027 0.18156 0.0
C1516 C 0.40598 0.90216 0.13873 0.0
C1517 C 0.39878 0.91567 0.11383 0.0
C1518 C 0.35296 0.88883 0.21329 0.0
C1519 C 0.37798 0.89261 0.16084 0.0
C1520 C 0.34147 0.87836 0.23642 0.0
C1521 C 0.34325 0.86076 0.23416 0.0
C1522 C 0.36657 0.88171 0.1887 0.0
C1523 C 0.35745 0.85415 0.21071 0.0
C1524 C 0.3956 0.8904 0.16155 0.0
C1525 C 0.38106 0.91668 0.11145 0.0
N1526 N 0.36863 0.86464 0.18888 0.0
N1527 N 0.37128 0.90552 0.13545 0.0
H1528 H 0.85754 0.34121 0.71094 0.0
H1529 H 0.87355 0.42882 0.59285 0.0
H1530 H 0.82949 0.38539 0.75294 0.0
H1531 H 0.91726 0.40292 0.64795 0.0
H1532 H 0.85525 0.40827 0.63214 0.0
H1533 H 0.87845 0.35967 0.67228 0.0
C1534 C 0.85598 0.35477 0.71289 0.0
C1535 C 0.84184 0.36179 0.7356 0.0
C1536 C 0.86887 0.40697 0.6349 0.0
C1537 C 0.86509 0.38271 0.68967 0.0
C1538 C 0.87933 0.41853 0.61201 0.0
C1539 C 0.89697 0.41757 0.61707 0.0
C1540 C 0.87607 0.39411 0.66208 0.0
C1541 C 0.90371 0.40409 0.64312 0.0
C1542 C 0.86782 0.36523 0.69064 0.0
C1543 C 0.84029 0.37944 0.73645 0.0
N1544 N 0.89325 0.39281 0.66468 0.0
N1545 N 0.85157 0.38926 0.71299 0.0
H1546 H 0.4188 0.10664 0.45913 0.0
H1547 H 0.33041 0.12409 0.3466 0.0
H1548 H 0.37379 0.08202 0.51073 0.0
H1549 H 0.35854 0.16764 0.39342 0.0
H1550 H 0.35081 0.10586 0.38666 0.0
H1551 H 0.40079 0.12747 0.41871 0.0
C1552 C 0.40517 0.10584 0.46278 0.0
C1553 C 0.39777 0.09269 0.4887 0.0
C1554 C 0.35263 0.11941 0.38737 0.0
C1555 C 0.37732 0.11578 0.44088 0.0
C1556 C 0.34116 0.12982 0.36402 0.0
C1557 C 0.34279 0.14742 0.36663 0.0
C1558 C 0.36606 0.12661 0.41251 0.0
C1559 C 0.35685 0.15412 0.39053 0.0
C1560 C 0.39497 0.11762 0.43953 0.0
C1561 C 0.38004 0.09207 0.49171 0.0
N1562 N 0.36801 0.14369 0.4126 0.0
N1563 N 0.37042 0.10323 0.46727 0.0
H1564 H 0.63557 0.57965 0.09743 0.0
H1565 H 0.65286 0.6688 0.20618 0.0
H1566 H 0.59228 0.60799 0.14539 0.0
H1567 H 0.6801 0.62474 0.25282 0.0
H1568 H 0.63177 0.65019 0.16879 0.0
H1569 H 0.65419 0.60021 0.1355 0.0
C1570 C 0.62997 0.59045 0.11477 0.0
C1571 C 0.61233 0.59212 0.11815 0.0
C1572 C 0.64226 0.6447 0.18786 0.0
C1573 C 0.6336 0.61561 0.16183 0.0
C1574 C 0.65421 0.65525 0.20939 0.0
C1575 C 0.66817 0.6483 0.23304 0.0
C1576 C 0.64471 0.62717 0.18856 0.0
C1577 C 0.66944 0.63065 0.23555 0.0
C1578 C 0.6406 0.60203 0.137 0.0
C1579 C 0.60581 0.60626 0.14189 0.0
N1580 N 0.65807 0.62071 0.21278 0.0
N1581 N 0.61646 0.61753 0.16281 0.0
H1582 H 0.16491 0.84412 0.93942 0.0
H1583 H 0.09264 0.91302 0.89762 0.0
H1584 H 0.15548 0.86723 0.80503 0.0
H1585 H 0.11805 0.90651 0.03027 0.0
H1586 H 0.10987 0.89033 0.86457 0.0
H1587 H 0.14208 0.86102 0.97328 0.0
C1588 C 0.1578 0.85246 0.9167 0.0
C1589 C 0.16222 0.85431 0.86923 0.0
C1590 C 0.11147 0.8937 0.9011 0.0
C1591 C 0.13603 0.8737 0.90807 0.0
C1592 C 0.10155 0.90657 0.92021 0.0
C1593 C 0.10396 0.9118 0.96685 0.0
C1594 C 0.12374 0.88577 0.92891 0.0
C1595 C 0.11579 0.90297 0.99417 0.0
C1596 C 0.14485 0.86218 0.93624 0.0
C1597 C 0.15257 0.86542 0.84176 0.0
N1598 N 0.12531 0.89045 0.97473 0.0
N1599 N 0.13998 0.87475 0.86161 0.0
loop_
_geom_bond_atom_site_label_1
_geom_bond_atom_site_label_2
_geom_bond_distance
_geom_bond_site_symmetry_2
_ccdc_geom_bond_type
O0 Cd1 2.223 . S
O0 C8 1.315 . S
Cd1 O0 2.223 . S
Cd1 O4 2.297 . S
Cd1 O5 2.439 . S
Cd1 O11 2.240 . S
Cd2 O3 2.240 . S
Cd2 O10 2.223 . S
Cd2 O12 2.297 1_554 S
Cd2 O13 2.439 1_554 S
O3 Cd2 2.240 . S
O3 C8 1.279 . S
O4 Cd1 2.297 . S
O4 C6 1.247 . S
O5 Cd1 2.439 . S
O5 C6 1.208 . S
C6 O4 1.247 . S
C6 O5 1.208 . S
C7 O12 1.247 . S
C7 O13 1.208 . S
C8 O0 1.315 . S
C8 O3 1.279 . S
C9 O10 1.315 . S
C9 O11 1.279 . S
O10 Cd2 2.223 . S
O10 C9 1.315 . S
O11 Cd1 2.240 . S
O11 C9 1.279 . S
O12 Cd2 2.297 1_556 S
O12 C7 1.247 . S
O13 Cd2 2.439 1_556 S
O13 C7 1.208 . S
O14 Cd15 2.223 . S
O14 C22 1.315 . S
Cd15 O14 2.223 . S
Cd15 O18 2.297 . S
Cd15 O19 2.439 . S
Cd15 O25 2.240 . S
Cd16 O17 2.240 . S
Cd16 O24 2.223 . S
Cd16 O26 2.297 . S
Cd16 O27 2.439 . S
O17 Cd16 2.240 . S
O17 C22 1.279 . S
O18 Cd15 2.297 . S
O18 C20 1.247 . S
O19 Cd15 2.439 . S
O19 C20 1.208 . S
C20 O18 1.247 . S
C20 O19 1.208 . S
C21 O26 1.247 . S
C21 O27 1.208 . S
C22 O14 1.315 . S
C22 O17 1.279 . S
C23 O24 1.315 . S
C23 O25 1.279 . S
O24 Cd16 2.223 . S
O24 C23 1.315 . S
O25 Cd15 2.240 . S
O25 C23 1.279 . S
O26 Cd16 2.297 . S
O26 C21 1.247 . S
O27 Cd16 2.439 . S
O27 C21 1.208 . S
O28 Cd29 2.223 . S
O28 C36 1.315 . S
Cd29 O28 2.223 . S
Cd29 O32 2.297 . S
Cd29 O33 2.439 . S
Cd29 O39 2.240 . S
Cd30 O31 2.240 . S
Cd30 O38 2.223 . S
Cd30 O40 2.297 . S
Cd30 O41 2.439 . S
O31 Cd30 2.240 . S
O31 C36 1.279 . S
O32 Cd29 2.297 . S
O32 C34 1.247 . S
O33 Cd29 2.439 . S
O33 C34 1.208 . S
C34 O32 1.247 . S
C34 O33 1.208 . S
C35 O40 1.247 . S
C35 O41 1.208 . S
C36 O28 1.315 . S
C36 O31 1.279 . S
C37 O38 1.315 . S
C37 O39 1.279 . S
O38 Cd30 2.223 . S
O38 C37 1.315 . S
O39 Cd29 2.240 . S
O39 C37 1.279 . S
O40 Cd30 2.297 . S
O40 C35 1.247 . S
O41 Cd30 2.439 . S
O41 C35 1.208 . S
O42 Cd43 2.223 . S
O42 C50 1.315 . S
Cd43 O42 2.223 . S
Cd43 O46 2.297 . S
Cd43 O47 2.439 . S
Cd43 O53 2.240 . S
Cd44 O45 2.240 . S
Cd44 O52 2.223 . S
Cd44 O54 2.297 . S
Cd44 O55 2.439 . S
O45 Cd44 2.240 . S
O45 C50 1.279 . S
O46 Cd43 2.297 . S
O46 C48 1.247 . S
O47 Cd43 2.439 . S
O47 C48 1.208 . S
C48 O46 1.247 . S
C48 O47 1.208 . S
C49 O54 1.247 . S
C49 O55 1.208 . S
C50 O42 1.315 . S
C50 O45 1.279 . S
C51 O52 1.315 . S
C51 O53 1.279 . S
O52 Cd44 2.223 . S
O52 C51 1.315 . S
O53 Cd43 2.240 . S
O53 C51 1.279 . S
O54 Cd44 2.297 . S
O54 C49 1.247 . S
O55 Cd44 2.439 . S
O55 C49 1.208 . S
O56 Cd57 2.223 . S
O56 C64 1.315 . S
Cd57 O56 2.223 . S
Cd57 O60 2.297 . S
Cd57 O61 2.439 . S
Cd57 O67 2.240 . S
Cd58 O59 2.240 . S
Cd58 O66 2.223 . S
Cd58 O68 2.297 . S
Cd58 O69 2.439 . S
O59 Cd58 2.240 . S
O59 C64 1.279 . S
O60 Cd57 2.297 . S
O60 C62 1.247 . S
O61 Cd57 2.439 . S
O61 C62 1.208 . S
C62 O60 1.247 . S
C62 O61 1.208 . S
C63 O68 1.247 . S
C63 O69 1.208 . S
C64 O56 1.315 . S
C64 O59 1.279 . S
C65 O66 1.315 . S
C65 O67 1.279 . S
O66 Cd58 2.223 . S
O66 C65 1.315 . S
O67 Cd57 2.240 . S
O67 C65 1.279 . S
O68 Cd58 2.297 . S
O68 C63 1.247 . S
O69 Cd58 2.439 . S
O69 C63 1.208 . S
O70 Cd71 2.223 . S
O70 C78 1.315 . S
Cd71 O70 2.223 . S
Cd71 O74 2.297 . S
Cd71 O75 2.439 . S
Cd71 O81 2.240 . S
Cd72 O73 2.240 . S
Cd72 O80 2.223 . S
Cd72 O82 2.297 . S
Cd72 O83 2.439 . S
O73 Cd72 2.240 . S
O73 C78 1.279 . S
O74 Cd71 2.297 . S
O74 C76 1.247 . S
O75 Cd71 2.439 . S
O75 C76 1.208 . S
C76 O74 1.247 . S
C76 O75 1.208 . S
C77 O82 1.247 . S
C77 O83 1.208 . S
C78 O70 1.315 . S
C78 O73 1.279 . S
C79 O80 1.315 . S
C79 O81 1.279 . S
O80 Cd72 2.223 . S
O80 C79 1.315 . S
O81 Cd71 2.240 . S
O81 C79 1.279 . S
O82 Cd72 2.297 . S
O82 C77 1.247 . S
O83 Cd72 2.439 . S
O83 C77 1.208 . S
O84 Cd85 2.223 . S
O84 C92 1.315 . S
Cd85 O84 2.223 . S
Cd85 O88 2.297 . S
Cd85 O89 2.439 1_556 S
Cd85 O95 2.240 1_556 S
Cd86 O87 2.240 1_554 S
Cd86 O94 2.223 . S
Cd86 O96 2.297 . S
Cd86 O97 2.439 . S
O87 Cd86 2.240 1_556 S
O87 C92 1.279 . S
O88 Cd85 2.297 . S
O88 C90 1.247 . S
O89 Cd85 2.439 1_554 S
O89 C90 1.208 1_554 S
C90 O88 1.247 . S
C90 O89 1.208 1_556 S
C91 O96 1.247 . S
C91 O97 1.208 . S
C92 O84 1.315 . S
C92 O87 1.279 . S
C93 O94 1.315 . S
C93 O95 1.279 . S
O94 Cd86 2.223 . S
O94 C93 1.315 . S
O95 Cd85 2.240 1_554 S
O95 C93 1.279 . S
O96 Cd86 2.297 . S
O96 C91 1.247 . S
O97 Cd86 2.439 . S
O97 C91 1.208 . S
O98 Cd99 2.223 . S
O98 C106 1.315 . S
Cd99 O98 2.223 . S
Cd99 O102 2.297 . S
Cd99 O103 2.439 . S
Cd99 O109 2.240 . S
Cd100 O101 2.240 . S
Cd100 O108 2.223 . S
Cd100 O110 2.297 . S
Cd100 O111 2.439 . S
O101 Cd100 2.240 . S
O101 C106 1.279 . S
O102 Cd99 2.297 . S
O102 C104 1.247 . S
O103 Cd99 2.439 . S
O103 C104 1.208 . S
C104 O102 1.247 . S
C104 O103 1.208 . S
C105 O110 1.247 . S
C105 O111 1.208 . S
C106 O98 1.315 . S
C106 O101 1.279 . S
C107 O108 1.315 . S
C107 O109 1.279 . S
O108 Cd100 2.223 . S
O108 C107 1.315 . S
O109 Cd99 2.240 . S
O109 C107 1.279 . S
O110 Cd100 2.297 . S
O110 C105 1.247 . S
O111 Cd100 2.439 . S
O111 C105 1.208 . S
O112 Cd113 2.223 . S
O112 C120 1.315 . S
Cd113 O112 2.223 . S
Cd113 O116 2.297 . S
Cd113 O117 2.439 1_556 S
Cd113 O123 2.240 1_556 S
Cd114 O115 2.240 1_554 S
Cd114 O122 2.223 . S
Cd114 O124 2.297 . S
Cd114 O125 2.439 . S
O115 Cd114 2.240 1_556 S
O115 C120 1.279 . S
O116 Cd113 2.297 . S
O116 C118 1.247 . S
O117 Cd113 2.439 1_554 S
O117 C118 1.208 1_554 S
C118 O116 1.247 . S
C118 O117 1.208 1_556 S
C119 O124 1.247 . S
C119 O125 1.208 . S
C120 O112 1.315 . S
C120 O115 1.279 . S
C121 O122 1.315 . S
C121 O123 1.279 . S
O122 Cd114 2.223 . S
O122 C121 1.315 . S
O123 Cd113 2.240 1_554 S
O123 C121 1.279 . S
O124 Cd114 2.297 . S
O124 C119 1.247 . S
O125 Cd114 2.439 . S
O125 C119 1.208 . S
O126 Cd127 2.223 . S
O126 C134 1.315 . S
Cd127 O126 2.223 . S
Cd127 O130 2.297 . S
Cd127 O131 2.439 . S
Cd127 O137 2.240 . S
Cd128 O129 2.240 . S
Cd128 O136 2.223 . S
Cd128 O138 2.297 . S
Cd128 O139 2.439 . S
O129 Cd128 2.240 . S
O129 C134 1.279 . S
O130 Cd127 2.297 . S
O130 C132 1.247 . S
O131 Cd127 2.439 . S
O131 C132 1.208 . S
C132 O130 1.247 . S
C132 O131 1.208 . S
C133 O138 1.247 . S
C133 O139 1.208 . S
C134 O126 1.315 . S
C134 O129 1.279 . S
C135 O136 1.315 . S
C135 O137 1.279 . S
O136 Cd128 2.223 . S
O136 C135 1.315 . S
O137 Cd127 2.240 . S
O137 C135 1.279 . S
O138 Cd128 2.297 . S
O138 C133 1.247 . S
O139 Cd128 2.439 . S
O139 C133 1.208 . S
O140 Cd141 2.223 . S
O140 C148 1.315 . S
Cd141 O140 2.223 . S
Cd141 O144 2.297 . S
Cd141 O145 2.439 . S
Cd141 O151 2.240 . S
Cd142 O143 2.240 . S
Cd142 O150 2.223 . S
Cd142 O152 2.297 . S
Cd142 O153 2.439 . S
O143 Cd142 2.240 . S
O143 C148 1.279 . S
O144 Cd141 2.297 . S
O144 C146 1.247 . S
O145 Cd141 2.439 . S
O145 C146 1.208 . S
C146 O144 1.247 . S
C146 O145 1.208 . S
C147 O152 1.247 . S
C147 O153 1.208 . S
C148 O140 1.315 . S
C148 O143 1.279 . S
C149 O150 1.315 . S
C149 O151 1.279 . S
O150 Cd142 2.223 . S
O150 C149 1.315 . S
O151 Cd141 2.240 . S
O151 C149 1.279 . S
O152 Cd142 2.297 . S
O152 C147 1.247 . S
O153 Cd142 2.439 . S
O153 C147 1.208 . S
O154 Cd155 2.223 . S
O154 C162 1.315 . S
Cd155 O154 2.223 . S
Cd155 O158 2.297 . S
Cd155 O159 2.439 . S
Cd155 O165 2.240 . S
Cd156 O157 2.240 . S
Cd156 O164 2.223 . S
Cd156 O166 2.297 . S
Cd156 O167 2.439 . S
O157 Cd156 2.240 . S
O157 C162 1.279 . S
O158 Cd155 2.297 . S
O158 C160 1.247 . S
O159 Cd155 2.439 . S
O159 C160 1.208 . S
C160 O158 1.247 . S
C160 O159 1.208 . S
C161 O166 1.247 . S
C161 O167 1.208 . S
C162 O154 1.315 . S
C162 O157 1.279 . S
C163 O164 1.315 . S
C163 O165 1.279 . S
O164 Cd156 2.223 . S
O164 C163 1.315 . S
O165 Cd155 2.240 . S
O165 C163 1.279 . S
O166 Cd156 2.297 . S
O166 C161 1.247 . S
O167 Cd156 2.439 . S
O167 C161 1.208 . S
O168 Cd169 2.223 . S
O168 C176 1.315 . S
Cd169 O168 2.223 . S
Cd169 O172 2.297 . S
Cd169 O173 2.439 . S
Cd169 O179 2.240 . S
Cd170 O171 2.240 . S
Cd170 O178 2.223 . S
Cd170 O180 2.297 . S
Cd170 O181 2.439 . S
O171 Cd170 2.240 . S
O171 C176 1.279 . S
O172 Cd169 2.297 . S
O172 C174 1.247 . S
O173 Cd169 2.439 . S
O173 C174 1.208 . S
C174 O172 1.247 . S
C174 O173 1.208 . S
C175 O180 1.247 . S
C175 O181 1.208 . S
C176 O168 1.315 . S
C176 O171 1.279 . S
C177 O178 1.315 . S
C177 O179 1.279 . S
O178 Cd170 2.223 . S
O178 C177 1.315 . S
O179 Cd169 2.240 . S
O179 C177 1.279 . S
O180 Cd170 2.297 . S
O180 C175 1.247 . S
O181 Cd170 2.439 . S
O181 C175 1.208 . S
O182 Cd183 2.223 . S
O182 C190 1.315 . S
Cd183 O182 2.223 . S
Cd183 O186 2.297 . S
Cd183 O187 2.439 . S
Cd183 O193 2.240 . S
Cd184 O185 2.240 . S
Cd184 O192 2.223 . S
Cd184 O194 2.297 . S
Cd184 O195 2.439 . S
O185 Cd184 2.240 . S
O185 C190 1.279 . S
O186 Cd183 2.297 . S
O186 C188 1.247 . S
O187 Cd183 2.439 . S
O187 C188 1.208 . S
C188 O186 1.247 . S
C188 O187 1.208 . S
C189 O194 1.247 . S
C189 O195 1.208 . S
C190 O182 1.315 . S
C190 O185 1.279 . S
C191 O192 1.315 . S
C191 O193 1.279 . S
O192 Cd184 2.223 . S
O192 C191 1.315 . S
O193 Cd183 2.240 . S
O193 C191 1.279 . S
O194 Cd184 2.297 . S
O194 C189 1.247 . S
O195 Cd184 2.439 . S
O195 C189 1.208 . S
O196 Cd197 2.223 . S
O196 C204 1.315 . S
Cd197 O196 2.223 . S
Cd197 O200 2.297 . S
Cd197 O201 2.439 . S
Cd197 O207 2.240 . S
Cd198 O199 2.240 . S
Cd198 O206 2.223 . S
Cd198 O208 2.297 1_554 S
Cd198 O209 2.439 1_554 S
O199 Cd198 2.240 . S
O199 C204 1.279 . S
O200 Cd197 2.297 . S
O200 C202 1.247 . S
O201 Cd197 2.439 . S
O201 C202 1.208 . S
C202 O200 1.247 . S
C202 O201 1.208 . S
C203 O208 1.247 . S
C203 O209 1.208 . S
C204 O196 1.315 . S
C204 O199 1.279 . S
C205 O206 1.315 . S
C205 O207 1.279 . S
O206 Cd198 2.223 . S
O206 C205 1.315 . S
O207 Cd197 2.240 . S
O207 C205 1.279 . S
O208 Cd198 2.297 1_556 S
O208 C203 1.247 . S
O209 Cd198 2.439 1_556 S
O209 C203 1.208 . S
O210 Cd211 2.223 . S
O210 C218 1.315 . S
Cd211 O210 2.223 . S
Cd211 O214 2.297 . S
Cd211 O215 2.439 . S
Cd211 O221 2.240 . S
Cd212 O213 2.240 . S
Cd212 O220 2.223 . S
Cd212 O222 2.297 . S
Cd212 O223 2.439 . S
O213 Cd212 2.240 . S
O213 C218 1.279 . S
O214 Cd211 2.297 . S
O214 C216 1.247 . S
O215 Cd211 2.439 . S
O215 C216 1.208 . S
C216 O214 1.247 . S
C216 O215 1.208 . S
C217 O222 1.247 . S
C217 O223 1.208 . S
C218 O210 1.315 . S
C218 O213 1.279 . S
C219 O220 1.315 . S
C219 O221 1.279 . S
O220 Cd212 2.223 . S
O220 C219 1.315 . S
O221 Cd211 2.240 . S
O221 C219 1.279 . S
O222 Cd212 2.297 . S
O222 C217 1.247 . S
O223 Cd212 2.439 . S
O223 C217 1.208 . S
O224 Cd225 2.223 . S
O224 C232 1.315 . S
Cd225 O224 2.223 . S
Cd225 O228 2.297 . S
Cd225 O229 2.439 . S
Cd225 O235 2.240 . S
Cd226 O227 2.240 . S
Cd226 O234 2.223 . S
Cd226 O236 2.297 1_565 S
Cd226 O237 2.439 . S
O227 Cd226 2.240 . S
O227 C232 1.279 . S
O228 Cd225 2.297 . S
O228 C230 1.247 . S
O229 Cd225 2.439 . S
O229 C230 1.208 . S
C230 O228 1.247 . S
C230 O229 1.208 . S
C231 O236 1.247 1_565 S
C231 O237 1.208 . S
C232 O224 1.315 . S
C232 O227 1.279 . S
C233 O234 1.315 . S
C233 O235 1.279 . S
O234 Cd226 2.223 . S
O234 C233 1.315 . S
O235 Cd225 2.240 . S
O235 C233 1.279 . S
O236 Cd226 2.297 1_545 S
O236 C231 1.247 1_545 S
O237 Cd226 2.439 . S
O237 C231 1.208 . S
O238 Cd239 2.223 . S
O238 C246 1.315 . S
Cd239 O238 2.223 . S
Cd239 O242 2.297 . S
Cd239 O243 2.439 . S
Cd239 O249 2.240 . S
Cd240 O241 2.240 . S
Cd240 O248 2.223 . S
Cd240 O250 2.297 . S
Cd240 O251 2.439 . S
O241 Cd240 2.240 . S
O241 C246 1.279 . S
O242 Cd239 2.297 . S
O242 C244 1.247 . S
O243 Cd239 2.439 . S
O243 C244 1.208 . S
C244 O242 1.247 . S
C244 O243 1.208 . S
C245 O250 1.247 . S
C245 O251 1.208 . S
C246 O238 1.315 . S
C246 O241 1.279 . S
C247 O248 1.315 . S
C247 O249 1.279 . S
O248 Cd240 2.223 . S
O248 C247 1.315 . S
O249 Cd239 2.240 . S
O249 C247 1.279 . S
O250 Cd240 2.297 . S
O250 C245 1.247 . S
O251 Cd240 2.439 . S
O251 C245 1.208 . S
O252 Cd253 2.223 . S
O252 C260 1.315 . S
Cd253 O252 2.223 . S
Cd253 O256 2.297 . S
Cd253 O257 2.439 . S
Cd253 O263 2.240 . S
Cd254 O255 2.240 . S
Cd254 O262 2.223 . S
Cd254 O264 2.297 1_544 S
Cd254 O265 2.439 1_554 S
O255 Cd254 2.240 . S
O255 C260 1.279 . S
O256 Cd253 2.297 . S
O256 C258 1.247 . S
O257 Cd253 2.439 . S
O257 C258 1.208 . S
C258 O256 1.247 . S
C258 O257 1.208 . S
C259 O264 1.247 1_545 S
C259 O265 1.208 . S
C260 O252 1.315 . S
C260 O255 1.279 . S
C261 O262 1.315 . S
C261 O263 1.279 . S
O262 Cd254 2.223 . S
O262 C261 1.315 . S
O263 Cd253 2.240 . S
O263 C261 1.279 . S
O264 Cd254 2.297 1_566 S
O264 C259 1.247 1_565 S
O265 Cd254 2.439 1_556 S
O265 C259 1.208 . S
O266 Cd267 2.223 . S
O266 C274 1.315 . S
Cd267 O266 2.223 . S
Cd267 O270 2.297 . S
Cd267 O271 2.439 . S
Cd267 O277 2.240 . S
Cd268 O269 2.240 . S
Cd268 O276 2.223 . S
Cd268 O278 2.297 . S
Cd268 O279 2.439 . S
O269 Cd268 2.240 . S
O269 C274 1.279 . S
O270 Cd267 2.297 . S
O270 C272 1.247 . S
O271 Cd267 2.439 . S
O271 C272 1.208 . S
C272 O270 1.247 . S
C272 O271 1.208 . S
C273 O278 1.247 . S
C273 O279 1.208 . S
C274 O266 1.315 . S
C274 O269 1.279 . S
C275 O276 1.315 . S
C275 O277 1.279 . S
O276 Cd268 2.223 . S
O276 C275 1.315 . S
O277 Cd267 2.240 . S
O277 C275 1.279 . S
O278 Cd268 2.297 . S
O278 C273 1.247 . S
O279 Cd268 2.439 . S
O279 C273 1.208 . S
O280 Cd281 2.223 . S
O280 C288 1.315 . S
Cd281 O280 2.223 . S
Cd281 O284 2.297 . S
Cd281 O285 2.439 1_556 S
Cd281 O291 2.240 1_556 S
Cd282 O283 2.240 1_554 S
Cd282 O290 2.223 . S
Cd282 O292 2.297 1_545 S
Cd282 O293 2.439 . S
O283 Cd282 2.240 1_556 S
O283 C288 1.279 . S
O284 Cd281 2.297 . S
O284 C286 1.247 . S
O285 Cd281 2.439 1_554 S
O285 C286 1.208 1_554 S
C286 O284 1.247 . S
C286 O285 1.208 1_556 S
C287 O292 1.247 1_545 S
C287 O293 1.208 . S
C288 O280 1.315 . S
C288 O283 1.279 . S
C289 O290 1.315 . S
C289 O291 1.279 . S
O290 Cd282 2.223 . S
O290 C289 1.315 . S
O291 Cd281 2.240 1_554 S
O291 C289 1.279 . S
O292 Cd282 2.297 1_565 S
O292 C287 1.247 1_565 S
O293 Cd282 2.439 . S
O293 C287 1.208 . S
O294 Cd295 2.223 . S
O294 C302 1.315 . S
Cd295 O294 2.223 . S
Cd295 O298 2.297 . S
Cd295 O299 2.439 . S
Cd295 O305 2.240 . S
Cd296 O297 2.240 . S
Cd296 O304 2.223 . S
Cd296 O306 2.297 . S
Cd296 O307 2.439 . S
O297 Cd296 2.240 . S
O297 C302 1.279 . S
O298 Cd295 2.297 . S
O298 C300 1.247 . S
O299 Cd295 2.439 . S
O299 C300 1.208 . S
C300 O298 1.247 . S
C300 O299 1.208 . S
C301 O306 1.247 . S
C301 O307 1.208 . S
C302 O294 1.315 . S
C302 O297 1.279 . S
C303 O304 1.315 . S
C303 O305 1.279 . S
O304 Cd296 2.223 . S
O304 C303 1.315 . S
O305 Cd295 2.240 . S
O305 C303 1.279 . S
O306 Cd296 2.297 . S
O306 C301 1.247 . S
O307 Cd296 2.439 . S
O307 C301 1.208 . S
O308 Cd309 2.223 . S
O308 C316 1.315 . S
Cd309 O308 2.223 . S
Cd309 O312 2.297 . S
Cd309 O313 2.439 . S
Cd309 O319 2.240 . S
Cd310 O311 2.240 . S
Cd310 O318 2.223 . S
Cd310 O320 2.297 1_565 S
Cd310 O321 2.439 . S
O311 Cd310 2.240 . S
O311 C316 1.279 . S
O312 Cd309 2.297 . S
O312 C314 1.247 . S
O313 Cd309 2.439 . S
O313 C314 1.208 . S
C314 O312 1.247 . S
C314 O313 1.208 . S
C315 O320 1.247 1_565 S
C315 O321 1.208 . S
C316 O308 1.315 . S
C316 O311 1.279 . S
C317 O318 1.315 . S
C317 O319 1.279 . S
O318 Cd310 2.223 . S
O318 C317 1.315 . S
O319 Cd309 2.240 . S
O319 C317 1.279 . S
O320 Cd310 2.297 1_545 S
O320 C315 1.247 1_545 S
O321 Cd310 2.439 . S
O321 C315 1.208 . S
O322 Cd323 2.223 . S
O322 C330 1.315 . S
Cd323 O322 2.223 . S
Cd323 O326 2.297 . S
Cd323 O327 2.439 . S
Cd323 O333 2.240 . S
Cd324 O325 2.240 . S
Cd324 O332 2.223 . S
Cd324 O334 2.297 . S
Cd324 O335 2.439 . S
O325 Cd324 2.240 . S
O325 C330 1.279 . S
O326 Cd323 2.297 . S
O326 C328 1.247 . S
O327 Cd323 2.439 . S
O327 C328 1.208 . S
C328 O326 1.247 . S
C328 O327 1.208 . S
C329 O334 1.247 . S
C329 O335 1.208 . S
C330 O322 1.315 . S
C330 O325 1.279 . S
C331 O332 1.315 . S
C331 O333 1.279 . S
O332 Cd324 2.223 . S
O332 C331 1.315 . S
O333 Cd323 2.240 . S
O333 C331 1.279 . S
O334 Cd324 2.297 . S
O334 C329 1.247 . S
O335 Cd324 2.439 . S
O335 C329 1.208 . S
O336 Cd337 2.223 . S
O336 C344 1.315 . S
Cd337 O336 2.223 . S
Cd337 O340 2.297 . S
Cd337 O341 2.439 . S
Cd337 O347 2.240 . S
Cd338 O339 2.240 . S
Cd338 O346 2.223 . S
Cd338 O348 2.297 1_545 S
Cd338 O349 2.439 . S
O339 Cd338 2.240 . S
O339 C344 1.279 . S
O340 Cd337 2.297 . S
O340 C342 1.247 . S
O341 Cd337 2.439 . S
O341 C342 1.208 . S
C342 O340 1.247 . S
C342 O341 1.208 . S
C343 O348 1.247 1_545 S
C343 O349 1.208 . S
C344 O336 1.315 . S
C344 O339 1.279 . S
C345 O346 1.315 . S
C345 O347 1.279 . S
O346 Cd338 2.223 . S
O346 C345 1.315 . S
O347 Cd337 2.240 . S
O347 C345 1.279 . S
O348 Cd338 2.297 1_565 S
O348 C343 1.247 1_565 S
O349 Cd338 2.439 . S
O349 C343 1.208 . S
O350 Cd351 2.223 . S
O350 C358 1.315 . S
Cd351 O350 2.223 . S
Cd351 O354 2.297 . S
Cd351 O355 2.439 . S
Cd351 O361 2.240 . S
Cd352 O353 2.240 . S
Cd352 O360 2.223 . S
Cd352 O362 2.297 . S
Cd352 O363 2.439 . S
O353 Cd352 2.240 . S
O353 C358 1.279 . S
O354 Cd351 2.297 . S
O354 C356 1.247 . S
O355 Cd351 2.439 . S
O355 C356 1.208 . S
C356 O354 1.247 . S
C356 O355 1.208 . S
C357 O362 1.247 . S
C357 O363 1.208 . S
C358 O350 1.315 . S
C358 O353 1.279 . S
C359 O360 1.315 . S
C359 O361 1.279 . S
O360 Cd352 2.223 . S
O360 C359 1.315 . S
O361 Cd351 2.240 . S
O361 C359 1.279 . S
O362 Cd352 2.297 . S
O362 C357 1.247 . S
O363 Cd352 2.439 . S
O363 C357 1.208 . S
O364 Cd365 2.223 . S
O364 C372 1.315 . S
Cd365 O364 2.223 . S
Cd365 O368 2.297 . S
Cd365 O369 2.439 1_556 S
Cd365 O375 2.240 1_556 S
Cd366 O367 2.240 1_554 S
Cd366 O374 2.223 . S
Cd366 O376 2.297 1_565 S
Cd366 O377 2.439 . S
O367 Cd366 2.240 1_556 S
O367 C372 1.279 . S
O368 Cd365 2.297 . S
O368 C370 1.247 . S
O369 Cd365 2.439 1_554 S
O369 C370 1.208 1_554 S
C370 O368 1.247 . S
C370 O369 1.208 1_556 S
C371 O376 1.247 1_565 S
C371 O377 1.208 . S
C372 O364 1.315 . S
C372 O367 1.279 . S
C373 O374 1.315 . S
C373 O375 1.279 . S
O374 Cd366 2.223 . S
O374 C373 1.315 . S
O375 Cd365 2.240 1_554 S
O375 C373 1.279 . S
O376 Cd366 2.297 1_545 S
O376 C371 1.247 1_545 S
O377 Cd366 2.439 . S
O377 C371 1.208 . S
O378 Cd379 2.223 . S
O378 C386 1.315 . S
Cd379 O378 2.223 . S
Cd379 O382 2.297 . S
Cd379 O383 2.439 . S
Cd379 O389 2.240 . S
Cd380 O381 2.240 . S
Cd380 O388 2.223 . S
Cd380 O390 2.297 . S
Cd380 O391 2.439 . S
O381 Cd380 2.240 . S
O381 C386 1.279 . S
O382 Cd379 2.297 . S
O382 C384 1.247 . S
O383 Cd379 2.439 . S
O383 C384 1.208 . S
C384 O382 1.247 . S
C384 O383 1.208 . S
C385 O390 1.247 . S
C385 O391 1.208 . S
C386 O378 1.315 . S
C386 O381 1.279 . S
C387 O388 1.315 . S
C387 O389 1.279 . S
O388 Cd380 2.223 . S
O388 C387 1.315 . S
O389 Cd379 2.240 . S
O389 C387 1.279 . S
O390 Cd380 2.297 . S
O390 C385 1.247 . S
O391 Cd380 2.439 . S
O391 C385 1.208 . S
O392 Cd393 2.223 . S
O392 C400 1.315 . S
Cd393 O392 2.223 . S
Cd393 O396 2.297 . S
Cd393 O397 2.439 . S
Cd393 O403 2.240 . S
Cd394 O395 2.240 . S
Cd394 O402 2.223 . S
Cd394 O404 2.297 1_564 S
Cd394 O405 2.439 1_554 S
O395 Cd394 2.240 . S
O395 C400 1.279 . S
O396 Cd393 2.297 . S
O396 C398 1.247 . S
O397 Cd393 2.439 . S
O397 C398 1.208 . S
C398 O396 1.247 . S
C398 O397 1.208 . S
C399 O404 1.247 1_565 S
C399 O405 1.208 . S
C400 O392 1.315 . S
C400 O395 1.279 . S
C401 O402 1.315 . S
C401 O403 1.279 . S
O402 Cd394 2.223 . S
O402 C401 1.315 . S
O403 Cd393 2.240 . S
O403 C401 1.279 . S
O404 Cd394 2.297 1_546 S
O404 C399 1.247 1_545 S
O405 Cd394 2.439 1_556 S
O405 C399 1.208 . S
O406 Cd407 2.223 . S
O406 C414 1.315 . S
Cd407 O406 2.223 . S
Cd407 O410 2.297 . S
Cd407 O411 2.439 . S
Cd407 O417 2.240 . S
Cd408 O409 2.240 . S
Cd408 O416 2.223 . S
Cd408 O418 2.297 . S
Cd408 O419 2.439 . S
O409 Cd408 2.240 . S
O409 C414 1.279 . S
O410 Cd407 2.297 . S
O410 C412 1.247 . S
O411 Cd407 2.439 . S
O411 C412 1.208 . S
C412 O410 1.247 . S
C412 O411 1.208 . S
C413 O418 1.247 . S
C413 O419 1.208 . S
C414 O406 1.315 . S
C414 O409 1.279 . S
C415 O416 1.315 . S
C415 O417 1.279 . S
O416 Cd408 2.223 . S
O416 C415 1.315 . S
O417 Cd407 2.240 . S
O417 C415 1.279 . S
O418 Cd408 2.297 . S
O418 C413 1.247 . S
O419 Cd408 2.439 . S
O419 C413 1.208 . S
O420 Cd421 2.223 . S
O420 C428 1.315 . S
Cd421 O420 2.223 . S
Cd421 O424 2.297 . S
Cd421 O425 2.439 . S
Cd421 O431 2.240 . S
Cd422 O423 2.240 . S
Cd422 O430 2.223 . S
Cd422 O432 2.297 1_545 S
Cd422 O433 2.439 . S
O423 Cd422 2.240 . S
O423 C428 1.279 . S
O424 Cd421 2.297 . S
O424 C426 1.247 . S
O425 Cd421 2.439 . S
O425 C426 1.208 . S
C426 O424 1.247 . S
C426 O425 1.208 . S
C427 O432 1.247 1_545 S
C427 O433 1.208 . S
C428 O420 1.315 . S
C428 O423 1.279 . S
C429 O430 1.315 . S
C429 O431 1.279 . S
O430 Cd422 2.223 . S
O430 C429 1.315 . S
O431 Cd421 2.240 . S
O431 C429 1.279 . S
O432 Cd422 2.297 1_565 S
O432 C427 1.247 1_565 S
O433 Cd422 2.439 . S
O433 C427 1.208 . S
O434 Cd435 2.223 . S
O434 C442 1.315 . S
Cd435 O434 2.223 . S
Cd435 O438 2.297 . S
Cd435 O439 2.439 . S
Cd435 O445 2.240 . S
Cd436 O437 2.240 . S
Cd436 O444 2.223 . S
Cd436 O446 2.297 . S
Cd436 O447 2.439 . S
O437 Cd436 2.240 . S
O437 C442 1.279 . S
O438 Cd435 2.297 . S
O438 C440 1.247 . S
O439 Cd435 2.439 . S
O439 C440 1.208 . S
C440 O438 1.247 . S
C440 O439 1.208 . S
C441 O446 1.247 . S
C441 O447 1.208 . S
C442 O434 1.315 . S
C442 O437 1.279 . S
C443 O444 1.315 . S
C443 O445 1.279 . S
O444 Cd436 2.223 . S
O444 C443 1.315 . S
O445 Cd435 2.240 . S
O445 C443 1.279 . S
O446 Cd436 2.297 . S
O446 C441 1.247 . S
O447 Cd436 2.439 . S
O447 C441 1.208 . S
H448 C454 0.930 . S
H449 C458 0.930 . S
H450 C463 0.929 . S
H451 C461 0.929 1_556 S
H452 C456 0.929 . S
H453 C462 0.929 . S
C454 H448 0.930 . S
C454 C455 1.367 1_556 S
C454 C462 1.378 . S
C455 C454 1.367 1_554 S
C455 C463 1.433 . S
C456 H452 0.929 . S
C456 C458 1.378 . S
C456 C460 1.350 . S
C457 C460 1.463 1_655 S
C457 C462 1.350 1_554 S
C457 N465 1.427 . S
C458 H449 0.930 . S
C458 C456 1.378 . S
C458 C459 1.367 . S
C459 C458 1.367 . S
C459 C461 1.433 . S
C460 C456 1.350 . S
C460 C457 1.463 1_455 S
C460 N464 1.427 . S
C461 H451 0.929 1_554 S
C461 C459 1.433 . S
C461 N464 1.384 . S
C462 H453 0.929 . S
C462 C454 1.378 . S
C462 C457 1.350 1_556 S
C463 H450 0.929 . S
C463 C455 1.433 . S
C463 N465 1.384 . S
N464 C460 1.427 . S
N464 C461 1.384 . S
N465 C457 1.427 . S
N465 C463 1.384 . S
H466 C472 0.930 . S
H467 C476 0.930 . S
H468 C481 0.929 . S
H469 C479 0.929 . S
H470 C474 0.929 . S
H471 C480 0.929 . S
C472 H466 0.930 . S
C472 C473 1.367 . S
C472 C480 1.378 . S
C473 C472 1.367 . S
C473 C481 1.433 . S
C474 H470 0.929 . S
C474 C476 1.378 . S
C474 C478 1.350 . S
C475 C478 1.463 . S
C475 C480 1.350 . S
C475 N483 1.427 . S
C476 H467 0.930 . S
C476 C474 1.378 . S
C476 C477 1.367 . S
C477 C476 1.367 . S
C477 C479 1.433 . S
C478 C474 1.350 . S
C478 C475 1.463 . S
C478 N482 1.427 . S
C479 H469 0.929 . S
C479 C477 1.433 . S
C479 N482 1.384 . S
C480 H471 0.929 . S
C480 C472 1.378 . S
C480 C475 1.350 . S
C481 H468 0.929 . S
C481 C473 1.433 . S
C481 N483 1.384 . S
N482 C478 1.427 . S
N482 C479 1.384 . S
N483 C475 1.427 . S
N483 C481 1.384 . S
H484 C490 0.930 . S
H485 C494 0.930 . S
H486 C499 0.929 . S
H487 C497 0.929 . S
H488 C492 0.929 . S
H489 C498 0.929 . S
C490 H484 0.930 . S
C490 C491 1.367 . S
C490 C498 1.378 . S
C491 C490 1.367 . S
C491 C499 1.433 . S
C492 H488 0.929 . S
C492 C494 1.378 . S
C492 C496 1.350 . S
C493 C496 1.463 . S
C493 C498 1.350 . S
C493 N501 1.427 . S
C494 H485 0.930 . S
C494 C492 1.378 . S
C494 C495 1.367 . S
C495 C494 1.367 . S
C495 C497 1.433 . S
C496 C492 1.350 . S
C496 C493 1.463 . S
C496 N500 1.427 . S
C497 H487 0.929 . S
C497 C495 1.433 . S
C497 N500 1.384 . S
C498 H489 0.929 . S
C498 C490 1.378 . S
C498 C493 1.350 . S
C499 H486 0.929 . S
C499 C491 1.433 . S
C499 N501 1.384 . S
N500 C496 1.427 . S
N500 C497 1.384 . S
N501 C493 1.427 . S
N501 C499 1.384 . S
H502 C508 0.930 . S
H503 C512 0.930 . S
H504 C517 0.929 . S
H505 C515 0.929 . S
H506 C510 0.929 . S
H507 C516 0.929 . S
C508 H502 0.930 . S
C508 C509 1.367 . S
C508 C516 1.378 . S
C509 C508 1.367 . S
C509 C517 1.433 . S
C510 H506 0.929 . S
C510 C512 1.378 . S
C510 C514 1.350 . S
C511 C514 1.463 . S
C511 C516 1.350 . S
C511 N519 1.427 . S
C512 H503 0.930 . S
C512 C510 1.378 . S
C512 C513 1.367 . S
C513 C512 1.367 . S
C513 C515 1.433 . S
C514 C510 1.350 . S
C514 C511 1.463 . S
C514 N518 1.427 . S
C515 H505 0.929 . S
C515 C513 1.433 . S
C515 N518 1.384 . S
C516 H507 0.929 . S
C516 C508 1.378 . S
C516 C511 1.350 . S
C517 H504 0.929 . S
C517 C509 1.433 . S
C517 N519 1.384 . S
N518 C514 1.427 . S
N518 C515 1.384 . S
N519 C511 1.427 . S
N519 C517 1.384 . S
H520 C526 0.930 . S
H521 C530 0.930 . S
H522 C535 0.929 . S
H523 C533 0.929 . S
H524 C528 0.929 . S
H525 C534 0.929 . S
C526 H520 0.930 . S
C526 C527 1.367 . S
C526 C534 1.378 . S
C527 C526 1.367 . S
C527 C535 1.433 . S
C528 H524 0.929 . S
C528 C530 1.378 . S
C528 C532 1.350 . S
C529 C532 1.463 1_455 S
C529 C534 1.350 . S
C529 N537 1.427 . S
C530 H521 0.930 . S
C530 C528 1.378 . S
C530 C531 1.367 . S
C531 C530 1.367 . S
C531 C533 1.433 . S
C532 C528 1.350 . S
C532 C529 1.463 1_655 S
C532 N536 1.427 . S
C533 H523 0.929 . S
C533 C531 1.433 . S
C533 N536 1.384 . S
C534 H525 0.929 . S
C534 C526 1.378 . S
C534 C529 1.350 . S
C535 H522 0.929 . S
C535 C527 1.433 . S
C535 N537 1.384 . S
N536 C532 1.427 . S
N536 C533 1.384 . S
N537 C529 1.427 . S
N537 C535 1.384 . S
H538 C544 0.930 . S
H539 C548 0.930 . S
H540 C553 0.929 . S
H541 C551 0.929 . S
H542 C546 0.929 . S
H543 C552 0.929 . S
C544 H538 0.930 . S
C544 C545 1.367 . S
C544 C552 1.378 . S
C545 C544 1.367 . S
C545 C553 1.433 . S
C546 H542 0.929 . S
C546 C548 1.378 . S
C546 C550 1.350 . S
C547 C550 1.463 . S
C547 C552 1.350 . S
C547 N555 1.427 . S
C548 H539 0.930 . S
C548 C546 1.378 . S
C548 C549 1.367 . S
C549 C548 1.367 . S
C549 C551 1.433 . S
C550 C546 1.350 . S
C550 C547 1.463 . S
C550 N554 1.427 . S
C551 H541 0.929 . S
C551 C549 1.433 . S
C551 N554 1.384 . S
C552 H543 0.929 . S
C552 C544 1.378 . S
C552 C547 1.350 . S
C553 H540 0.929 . S
C553 C545 1.433 . S
C553 N555 1.384 . S
N554 C550 1.427 . S
N554 C551 1.384 . S
N555 C547 1.427 . S
N555 C553 1.384 . S
H556 C562 0.930 . S
H557 C566 0.930 . S
H558 C571 0.929 . S
H559 C569 0.929 . S
H560 C564 0.929 . S
H561 C570 0.929 . S
C562 H556 0.930 . S
C562 C563 1.367 . S
C562 C570 1.378 . S
C563 C562 1.367 . S
C563 C571 1.433 . S
C564 H560 0.929 . S
C564 C566 1.378 . S
C564 C568 1.350 . S
C565 C568 1.463 . S
C565 C570 1.350 . S
C565 N573 1.427 . S
C566 H557 0.930 . S
C566 C564 1.378 . S
C566 C567 1.367 . S
C567 C566 1.367 . S
C567 C569 1.433 . S
C568 C564 1.350 . S
C568 C565 1.463 . S
C568 N572 1.427 . S
C569 H559 0.929 . S
C569 C567 1.433 . S
C569 N572 1.384 . S
C570 H561 0.929 . S
C570 C562 1.378 . S
C570 C565 1.350 . S
C571 H558 0.929 . S
C571 C563 1.433 . S
C571 N573 1.384 . S
N572 C568 1.427 . S
N572 C569 1.384 . S
N573 C565 1.427 . S
N573 C571 1.384 . S
H574 C580 0.930 . S
H575 C584 0.930 . S
H576 C589 0.929 . S
H577 C587 0.929 . S
H578 C582 0.929 . S
H579 C588 0.929 . S
C580 H574 0.930 . S
C580 C581 1.367 . S
C580 C588 1.378 . S
C581 C580 1.367 . S
C581 C589 1.433 . S
C582 H578 0.929 . S
C582 C584 1.378 . S
C582 C586 1.350 . S
C583 C586 1.463 . S
C583 C588 1.350 . S
C583 N591 1.427 . S
C584 H575 0.930 . S
C584 C582 1.378 . S
C584 C585 1.367 . S
C585 C584 1.367 . S
C585 C587 1.433 . S
C586 C582 1.350 . S
C586 C583 1.463 . S
C586 N590 1.427 . S
C587 H577 0.929 . S
C587 C585 1.433 . S
C587 N590 1.384 . S
C588 H579 0.929 . S
C588 C580 1.378 . S
C588 C583 1.350 . S
C589 H576 0.929 . S
C589 C581 1.433 . S
C589 N591 1.384 . S
N590 C586 1.427 . S
N590 C587 1.384 . S
N591 C583 1.427 . S
N591 C589 1.384 . S
H592 C598 0.930 . S
H593 C602 0.930 . S
H594 C607 0.929 . S
H595 C605 0.929 . S
H596 C600 0.929 . S
H597 C606 0.929 . S
C598 H592 0.930 . S
C598 C599 1.367 . S
C598 C606 1.378 . S
C599 C598 1.367 . S
C599 C607 1.433 . S
C600 H596 0.929 . S
C600 C602 1.378 . S
C600 C604 1.350 . S
C601 C604 1.463 . S
C601 C606 1.350 . S
C601 N609 1.427 . S
C602 H593 0.930 . S
C602 C600 1.378 . S
C602 C603 1.367 . S
C603 C602 1.367 . S
C603 C605 1.433 . S
C604 C600 1.350 . S
C604 C601 1.463 . S
C604 N608 1.427 . S
C605 H595 0.929 . S
C605 C603 1.433 . S
C605 N608 1.384 . S
C606 H597 0.929 . S
C606 C598 1.378 . S
C606 C601 1.350 . S
C607 H594 0.929 . S
C607 C599 1.433 . S
C607 N609 1.384 . S
N608 C604 1.427 . S
N608 C605 1.384 . S
N609 C601 1.427 . S
N609 C607 1.384 . S
H610 C616 0.930 . S
H611 C620 0.930 . S
H612 C625 0.929 . S
H613 C623 0.929 . S
H614 C618 0.929 . S
H615 C624 0.929 . S
C616 H610 0.930 . S
C616 C617 1.367 . S
C616 C624 1.378 . S
C617 C616 1.367 . S
C617 C625 1.433 . S
C618 H614 0.929 . S
C618 C620 1.378 . S
C618 C622 1.350 . S
C619 C622 1.463 . S
C619 C624 1.350 . S
C619 N627 1.427 . S
C620 H611 0.930 . S
C620 C618 1.378 . S
C620 C621 1.367 . S
C621 C620 1.367 . S
C621 C623 1.433 . S
C622 C618 1.350 . S
C622 C619 1.463 . S
C622 N626 1.427 . S
C623 H613 0.929 . S
C623 C621 1.433 . S
C623 N626 1.384 . S
C624 H615 0.929 . S
C624 C616 1.378 . S
C624 C619 1.350 . S
C625 H612 0.929 . S
C625 C617 1.433 . S
C625 N627 1.384 . S
N626 C622 1.427 . S
N626 C623 1.384 . S
N627 C619 1.427 . S
N627 C625 1.384 . S
H628 C634 0.930 . S
H629 C638 0.930 . S
H630 C643 0.929 . S
H631 C641 0.929 . S
H632 C636 0.929 . S
H633 C642 0.929 . S
C634 H628 0.930 . S
C634 C635 1.367 . S
C634 C642 1.378 . S
C635 C634 1.367 . S
C635 C643 1.433 . S
C636 H632 0.929 . S
C636 C638 1.378 . S
C636 C640 1.350 . S
C637 C640 1.463 . S
C637 C642 1.350 . S
C637 N645 1.427 . S
C638 H629 0.930 . S
C638 C636 1.378 . S
C638 C639 1.367 . S
C639 C638 1.367 . S
C639 C641 1.433 . S
C640 C636 1.350 . S
C640 C637 1.463 . S
C640 N644 1.427 . S
C641 H631 0.929 . S
C641 C639 1.433 . S
C641 N644 1.384 . S
C642 H633 0.929 . S
C642 C634 1.378 . S
C642 C637 1.350 . S
C643 H630 0.929 . S
C643 C635 1.433 . S
C643 N645 1.384 . S
N644 C640 1.427 . S
N644 C641 1.384 . S
N645 C637 1.427 . S
N645 C643 1.384 . S
H646 C652 0.930 . S
H647 C656 0.930 . S
H648 C661 0.929 . S
H649 C659 0.929 . S
H650 C654 0.929 . S
H651 C660 0.929 . S
C652 H646 0.930 . S
C652 C653 1.367 . S
C652 C660 1.378 . S
C653 C652 1.367 . S
C653 C661 1.433 . S
C654 H650 0.929 . S
C654 C656 1.378 . S
C654 C658 1.350 . S
C655 C658 1.463 . S
C655 C660 1.350 . S
C655 N663 1.427 . S
C656 H647 0.930 . S
C656 C654 1.378 . S
C656 C657 1.367 . S
C657 C656 1.367 . S
C657 C659 1.433 . S
C658 C654 1.350 . S
C658 C655 1.463 . S
C658 N662 1.427 . S
C659 H649 0.929 . S
C659 C657 1.433 . S
C659 N662 1.384 . S
C660 H651 0.929 . S
C660 C652 1.378 . S
C660 C655 1.350 . S
C661 H648 0.929 . S
C661 C653 1.433 . S
C661 N663 1.384 . S
N662 C658 1.427 . S
N662 C659 1.384 . S
N663 C655 1.427 . S
N663 C661 1.384 . S
H664 C670 0.930 . S
H665 C674 0.930 . S
H666 C679 0.929 . S
H667 C677 0.929 . S
H668 C672 0.929 . S
H669 C678 0.929 . S
C670 H664 0.930 . S
C670 C671 1.367 . S
C670 C678 1.378 . S
C671 C670 1.367 . S
C671 C679 1.433 . S
C672 H668 0.929 . S
C672 C674 1.378 . S
C672 C676 1.350 . S
C673 C676 1.463 1_545 S
C673 C678 1.350 . S
C673 N681 1.427 . S
C674 H665 0.930 . S
C674 C672 1.378 . S
C674 C675 1.367 . S
C675 C674 1.367 . S
C675 C677 1.433 . S
C676 C672 1.350 . S
C676 C673 1.463 1_565 S
C676 N680 1.427 . S
C677 H667 0.929 . S
C677 C675 1.433 . S
C677 N680 1.384 . S
C678 H669 0.929 . S
C678 C670 1.378 . S
C678 C673 1.350 . S
C679 H666 0.929 . S
C679 C671 1.433 . S
C679 N681 1.384 . S
N680 C676 1.427 . S
N680 C677 1.384 . S
N681 C673 1.427 . S
N681 C679 1.384 . S
H682 C688 0.930 . S
H683 C692 0.930 . S
H684 C697 0.929 1_556 S
H685 C695 0.929 . S
H686 C690 0.929 . S
H687 C696 0.929 . S
C688 H682 0.930 . S
C688 C689 1.367 . S
C688 C696 1.378 . S
C689 C688 1.367 . S
C689 C697 1.433 . S
C690 H686 0.929 . S
C690 C692 1.378 . S
C690 C694 1.350 1_556 S
C691 C694 1.463 1_645 S
C691 C696 1.350 . S
C691 N699 1.427 . S
C692 H683 0.930 . S
C692 C690 1.378 . S
C692 C693 1.367 1_556 S
C693 C692 1.367 1_554 S
C693 C695 1.433 . S
C694 C690 1.350 1_554 S
C694 C691 1.463 1_465 S
C694 N698 1.427 . S
C695 H685 0.929 . S
C695 C693 1.433 . S
C695 N698 1.384 . S
C696 H687 0.929 . S
C696 C688 1.378 . S
C696 C691 1.350 . S
C697 H684 0.929 1_554 S
C697 C689 1.433 . S
C697 N699 1.384 . S
N698 C694 1.427 . S
N698 C695 1.384 . S
N699 C691 1.427 . S
N699 C697 1.384 . S
H700 C706 0.930 . S
H701 C710 0.930 . S
H702 C715 0.931 1_565 S
H703 C713 0.931 1_545 S
H704 C708 0.929 . S
H705 C714 0.929 . S
C706 H700 0.930 . S
C706 C707 1.367 . S
C706 C714 1.378 . S
C707 C706 1.367 . S
C707 C715 1.431 . S
C708 H704 0.929 . S
C708 C710 1.378 . S
C708 C712 1.350 . S
C709 C712 1.463 1_545 S
C709 C714 1.350 . S
C709 N717 1.427 1_545 S
C710 H701 0.930 . S
C710 C708 1.378 . S
C710 C711 1.367 . S
C711 C710 1.367 . S
C711 C713 1.430 . S
C712 C708 1.350 . S
C712 C709 1.463 1_565 S
C712 N716 1.427 1_565 S
C713 H703 0.931 1_565 S
C713 C711 1.430 . S
C713 N716 1.385 1_565 S
C714 H705 0.929 . S
C714 C706 1.378 . S
C714 C709 1.350 . S
C715 H702 0.931 1_545 S
C715 C707 1.431 . S
C715 N717 1.385 1_545 S
N716 C712 1.427 1_545 S
N716 C713 1.385 1_545 S
N717 C709 1.427 1_565 S
N717 C715 1.385 1_565 S
H718 C724 0.930 . S
H719 C728 0.930 . S
H720 C733 0.929 . S
H721 C731 0.929 . S
H722 C726 0.929 . S
H723 C732 0.929 . S
C724 H718 0.930 . S
C724 C725 1.367 . S
C724 C732 1.378 . S
C725 C724 1.367 . S
C725 C733 1.433 . S
C726 H722 0.929 . S
C726 C728 1.378 . S
C726 C730 1.350 . S
C727 C730 1.463 1_445 S
C727 C732 1.350 . S
C727 N735 1.427 . S
C728 H719 0.930 . S
C728 C726 1.378 . S
C728 C729 1.367 . S
C729 C728 1.367 . S
C729 C731 1.433 . S
C730 C726 1.350 . S
C730 C727 1.463 1_665 S
C730 N734 1.427 . S
C731 H721 0.929 . S
C731 C729 1.433 . S
C731 N734 1.384 . S
C732 H723 0.929 . S
C732 C724 1.378 . S
C732 C727 1.350 . S
C733 H720 0.929 . S
C733 C725 1.433 . S
C733 N735 1.384 . S
N734 C730 1.427 . S
N734 C731 1.384 . S
N735 C727 1.427 . S
N735 C733 1.384 . S
H736 C742 0.930 . S
H737 C746 0.930 . S
H738 C751 0.929 . S
H739 C749 0.929 . S
H740 C744 0.929 . S
H741 C750 0.929 . S
C742 H736 0.930 . S
C742 C743 1.367 . S
C742 C750 1.378 . S
C743 C742 1.367 . S
C743 C751 1.433 . S
C744 H740 0.929 . S
C744 C746 1.378 . S
C744 C748 1.350 . S
C745 C748 1.463 . S
C745 C750 1.350 . S
C745 N753 1.427 . S
C746 H737 0.930 . S
C746 C744 1.378 . S
C746 C747 1.367 . S
C747 C746 1.367 . S
C747 C749 1.433 . S
C748 C744 1.350 . S
C748 C745 1.463 . S
C748 N752 1.427 . S
C749 H739 0.929 . S
C749 C747 1.433 . S
C749 N752 1.384 . S
C750 H741 0.929 . S
C750 C742 1.378 . S
C750 C745 1.350 . S
C751 H738 0.929 . S
C751 C743 1.433 . S
C751 N753 1.384 . S
N752 C748 1.427 . S
N752 C749 1.384 . S
N753 C745 1.427 . S
N753 C751 1.384 . S
H754 C760 0.930 . S
H755 C764 0.930 . S
H756 C769 0.929 . S
H757 C767 0.929 . S
H758 C762 0.929 . S
H759 C768 0.929 . S
C760 H754 0.930 . S
C760 C761 1.367 . S
C760 C768 1.378 1_556 S
C761 C760 1.367 . S
C761 C769 1.433 . S
C762 H758 0.929 . S
C762 C764 1.378 . S
C762 C766 1.350 . S
C763 C766 1.463 . S
C763 C768 1.350 . S
C763 N771 1.427 1_554 S
C764 H755 0.930 . S
C764 C762 1.378 . S
C764 C765 1.367 . S
C765 C764 1.367 . S
C765 C767 1.433 . S
C766 C762 1.350 . S
C766 C763 1.463 . S
C766 N770 1.427 . S
C767 H757 0.929 . S
C767 C765 1.433 . S
C767 N770 1.384 . S
C768 H759 0.929 . S
C768 C760 1.378 1_554 S
C768 C763 1.350 . S
C769 H756 0.929 . S
C769 C761 1.433 . S
C769 N771 1.384 . S
N770 C766 1.427 . S
N770 C767 1.384 . S
N771 C763 1.427 1_556 S
N771 C769 1.384 . S
H772 C778 0.930 . S
H773 C782 0.930 . S
H774 C787 0.929 . S
H775 C785 0.929 . S
H776 C780 0.929 . S
H777 C786 0.929 . S
C778 H772 0.930 . S
C778 C779 1.367 . S
C778 C786 1.378 . S
C779 C778 1.367 . S
C779 C787 1.433 . S
C780 H776 0.929 . S
C780 C782 1.378 . S
C780 C784 1.350 . S
C781 C784 1.463 . S
C781 C786 1.350 . S
C781 N789 1.427 . S
C782 H773 0.930 . S
C782 C780 1.378 . S
C782 C783 1.367 . S
C783 C782 1.367 . S
C783 C785 1.433 . S
C784 C780 1.350 . S
C784 C781 1.463 . S
C784 N788 1.427 . S
C785 H775 0.929 . S
C785 C783 1.433 . S
C785 N788 1.384 . S
C786 H777 0.929 . S
C786 C778 1.378 . S
C786 C781 1.350 . S
C787 H774 0.929 . S
C787 C779 1.433 . S
C787 N789 1.384 . S
N788 C784 1.427 . S
N788 C785 1.384 . S
N789 C781 1.427 . S
N789 C787 1.384 . S
H790 C796 0.930 . S
H791 C800 0.930 . S
H792 C805 0.929 . S
H793 C803 0.929 . S
H794 C798 0.929 . S
H795 C804 0.929 . S
C796 H790 0.930 . S
C796 C797 1.367 . S
C796 C804 1.378 . S
C797 C796 1.367 . S
C797 C805 1.433 . S
C798 H794 0.929 . S
C798 C800 1.378 . S
C798 C802 1.350 . S
C799 C802 1.463 . S
C799 C804 1.350 . S
C799 N807 1.427 . S
C800 H791 0.930 . S
C800 C798 1.378 . S
C800 C801 1.367 . S
C801 C800 1.367 . S
C801 C803 1.433 . S
C802 C798 1.350 . S
C802 C799 1.463 . S
C802 N806 1.427 . S
C803 H793 0.929 . S
C803 C801 1.433 . S
C803 N806 1.384 . S
C804 H795 0.929 . S
C804 C796 1.378 . S
C804 C799 1.350 . S
C805 H792 0.929 . S
C805 C797 1.433 . S
C805 N807 1.384 . S
N806 C802 1.427 . S
N806 C803 1.384 . S
N807 C799 1.427 . S
N807 C805 1.384 . S
H808 C814 0.930 . S
H809 C818 0.930 . S
H810 C823 0.929 . S
H811 C821 0.929 . S
H812 C816 0.929 . S
H813 C822 0.929 . S
C814 H808 0.930 . S
C814 C815 1.367 . S
C814 C822 1.378 . S
C815 C814 1.367 . S
C815 C823 1.433 . S
C816 H812 0.929 . S
C816 C818 1.378 . S
C816 C820 1.350 . S
C817 C820 1.463 . S
C817 C822 1.350 . S
C817 N825 1.427 . S
C818 H809 0.930 . S
C818 C816 1.378 . S
C818 C819 1.367 . S
C819 C818 1.367 . S
C819 C821 1.433 . S
C820 C816 1.350 . S
C820 C817 1.463 . S
C820 N824 1.427 . S
C821 H811 0.929 . S
C821 C819 1.433 . S
C821 N824 1.384 . S
C822 H813 0.929 . S
C822 C814 1.378 . S
C822 C817 1.350 . S
C823 H810 0.929 . S
C823 C815 1.433 . S
C823 N825 1.384 . S
N824 C820 1.427 . S
N824 C821 1.384 . S
N825 C817 1.427 . S
N825 C823 1.384 . S
H826 C832 0.930 . S
H827 C836 0.930 . S
H828 C841 0.929 . S
H829 C839 0.929 . S
H830 C834 0.929 . S
H831 C840 0.929 1_554 S
C832 H826 0.930 . S
C832 C833 1.367 . S
C832 C840 1.378 . S
C833 C832 1.367 . S
C833 C841 1.433 . S
C834 H830 0.929 . S
C834 C836 1.378 . S
C834 C838 1.350 . S
C835 C838 1.463 . S
C835 C840 1.350 1_554 S
C835 N843 1.427 . S
C836 H827 0.930 . S
C836 C834 1.378 . S
C836 C837 1.367 . S
C837 C836 1.367 . S
C837 C839 1.433 . S
C838 C834 1.350 . S
C838 C835 1.463 . S
C838 N842 1.427 . S
C839 H829 0.929 . S
C839 C837 1.433 . S
C839 N842 1.384 . S
C840 H831 0.929 1_556 S
C840 C832 1.378 . S
C840 C835 1.350 1_556 S
C841 H828 0.929 . S
C841 C833 1.433 . S
C841 N843 1.384 1_556 S
N842 C838 1.427 . S
N842 C839 1.384 . S
N843 C835 1.427 . S
N843 C841 1.384 1_554 S
H844 C850 0.930 . S
H845 C854 0.930 . S
H846 C859 0.929 . S
H847 C857 0.929 . S
H848 C852 0.929 . S
H849 C858 0.929 . S
C850 H844 0.930 . S
C850 C851 1.367 . S
C850 C858 1.378 . S
C851 C850 1.367 . S
C851 C859 1.433 . S
C852 H848 0.929 . S
C852 C854 1.378 . S
C852 C856 1.350 . S
C853 C856 1.463 . S
C853 C858 1.350 . S
C853 N861 1.427 . S
C854 H845 0.930 . S
C854 C852 1.378 . S
C854 C855 1.367 . S
C855 C854 1.367 . S
C855 C857 1.433 . S
C856 C852 1.350 . S
C856 C853 1.463 . S
C856 N860 1.427 . S
C857 H847 0.929 . S
C857 C855 1.433 . S
C857 N860 1.384 . S
C858 H849 0.929 . S
C858 C850 1.378 . S
C858 C853 1.350 . S
C859 H846 0.929 . S
C859 C851 1.433 . S
C859 N861 1.384 . S
N860 C856 1.427 . S
N860 C857 1.384 . S
N861 C853 1.427 . S
N861 C859 1.384 . S
H862 C868 0.930 . S
H863 C872 0.930 . S
H864 C877 0.929 . S
H865 C875 0.929 . S
H866 C870 0.929 . S
H867 C876 0.929 . S
C868 H862 0.930 . S
C868 C869 1.367 . S
C868 C876 1.378 . S
C869 C868 1.367 . S
C869 C877 1.433 . S
C870 H866 0.929 . S
C870 C872 1.378 . S
C870 C874 1.350 . S
C871 C874 1.463 . S
C871 C876 1.350 . S
C871 N879 1.427 . S
C872 H863 0.930 . S
C872 C870 1.378 . S
C872 C873 1.367 . S
C873 C872 1.367 . S
C873 C875 1.433 . S
C874 C870 1.350 . S
C874 C871 1.463 . S
C874 N878 1.427 . S
C875 H865 0.929 . S
C875 C873 1.433 . S
C875 N878 1.384 . S
C876 H867 0.929 . S
C876 C868 1.378 . S
C876 C871 1.350 . S
C877 H864 0.929 . S
C877 C869 1.433 . S
C877 N879 1.384 . S
N878 C874 1.427 . S
N878 C875 1.384 . S
N879 C871 1.427 . S
N879 C877 1.384 . S
H880 C886 0.930 . S
H881 C890 0.930 . S
H882 C895 0.911 1_565 S
H883 C893 0.911 1_545 S
H884 C888 0.929 . S
H885 C894 0.929 . S
C886 H880 0.930 . S
C886 C887 1.367 . S
C886 C894 1.378 . S
C887 C886 1.367 . S
C887 C895 1.472 . S
C888 H884 0.929 . S
C888 C890 1.378 . S
C888 C892 1.350 . S
C889 C892 1.463 1_545 S
C889 C894 1.350 . S
C889 N897 1.427 1_545 S
C890 H881 0.930 . S
C890 C888 1.378 . S
C890 C891 1.367 . S
C891 C890 1.367 . S
C891 C893 1.470 . S
C892 C888 1.350 . S
C892 C889 1.463 1_565 S
C892 N896 1.427 1_565 S
C893 H883 0.911 1_565 S
C893 C891 1.470 . S
C893 N896 1.369 1_565 S
C894 H885 0.929 . S
C894 C886 1.378 . S
C894 C889 1.350 . S
C895 H882 0.911 1_545 S
C895 C887 1.472 . S
C895 N897 1.369 1_545 S
N896 C892 1.427 1_545 S
N896 C893 1.369 1_545 S
N897 C889 1.427 1_565 S
N897 C895 1.369 1_565 S
H898 C904 0.930 . S
H899 C908 0.930 . S
H900 C913 0.929 . S
H901 C911 0.929 . S
H902 C906 0.929 . S
H903 C912 0.929 . S
C904 H898 0.930 . S
C904 C905 1.367 . S
C904 C912 1.378 . S
C905 C904 1.367 . S
C905 C913 1.433 . S
C906 H902 0.929 . S
C906 C908 1.378 . S
C906 C910 1.350 . S
C907 C910 1.463 . S
C907 C912 1.350 . S
C907 N915 1.427 . S
C908 H899 0.930 . S
C908 C906 1.378 . S
C908 C909 1.367 . S
C909 C908 1.367 . S
C909 C911 1.433 . S
C910 C906 1.350 . S
C910 C907 1.463 . S
C910 N914 1.427 . S
C911 H901 0.929 . S
C911 C909 1.433 . S
C911 N914 1.384 . S
C912 H903 0.929 . S
C912 C904 1.378 . S
C912 C907 1.350 . S
C913 H900 0.929 . S
C913 C905 1.433 . S
C913 N915 1.384 . S
N914 C910 1.427 . S
N914 C911 1.384 . S
N915 C907 1.427 . S
N915 C913 1.384 . S
H916 C922 0.930 . S
H917 C926 0.930 . S
H918 C931 0.955 . S
H919 C929 0.955 . S
H920 C924 0.929 . S
H921 C930 0.929 . S
C922 H916 0.930 . S
C922 C923 1.367 . S
C922 C930 1.378 . S
C923 C922 1.367 . S
C923 C931 1.393 1_545 S
C924 H920 0.929 . S
C924 C926 1.378 . S
C924 C928 1.350 . S
C925 C928 1.463 1_545 S
C925 C930 1.350 . S
C925 N933 1.427 1_545 S
C926 H917 0.930 . S
C926 C924 1.378 . S
C926 C927 1.367 . S
C927 C926 1.367 . S
C927 C929 1.393 1_565 S
C928 C924 1.350 . S
C928 C925 1.463 1_565 S
C928 N932 1.427 1_565 S
C929 H919 0.955 . S
C929 C927 1.393 1_545 S
C929 N932 1.400 . S
C930 H921 0.929 . S
C930 C922 1.378 . S
C930 C925 1.350 . S
C931 H918 0.955 . S
C931 C923 1.393 1_565 S
C931 N933 1.400 . S
N932 C928 1.427 1_545 S
N932 C929 1.400 . S
N933 C925 1.427 1_565 S
N933 C931 1.400 . S
H934 C940 0.930 . S
H935 C944 0.930 . S
H936 C949 0.929 . S
H937 C947 0.929 . S
H938 C942 0.929 . S
H939 C948 0.929 . S
C940 H934 0.930 . S
C940 C941 1.367 . S
C940 C948 1.378 1_556 S
C941 C940 1.367 . S
C941 C949 1.433 . S
C942 H938 0.929 . S
C942 C944 1.378 . S
C942 C946 1.350 . S
C943 C946 1.463 . S
C943 C948 1.350 . S
C943 N951 1.427 1_554 S
C944 H935 0.930 . S
C944 C942 1.378 . S
C944 C945 1.367 . S
C945 C944 1.367 . S
C945 C947 1.433 . S
C946 C942 1.350 . S
C946 C943 1.463 . S
C946 N950 1.427 . S
C947 H937 0.929 . S
C947 C945 1.433 . S
C947 N950 1.384 . S
C948 H939 0.929 . S
C948 C940 1.378 1_554 S
C948 C943 1.350 . S
C949 H936 0.929 . S
C949 C941 1.433 . S
C949 N951 1.384 . S
N950 C946 1.427 . S
N950 C947 1.384 . S
N951 C943 1.427 1_556 S
N951 C949 1.384 . S
H952 C958 0.930 . S
H953 C962 0.930 . S
H954 C967 0.929 . S
H955 C965 0.929 . S
H956 C960 0.929 . S
H957 C966 0.929 . S
C958 H952 0.930 . S
C958 C959 1.367 1_545 S
C958 C966 1.378 . S
C959 C958 1.367 1_565 S
C959 C967 1.433 . S
C960 H956 0.929 . S
C960 C962 1.378 . S
C960 C964 1.350 1_565 S
C961 C964 1.463 1_565 S
C961 C966 1.350 1_565 S
C961 N969 1.427 . S
C962 H953 0.930 . S
C962 C960 1.378 . S
C962 C963 1.367 1_565 S
C963 C962 1.367 1_545 S
C963 C965 1.433 . S
C964 C960 1.350 1_545 S
C964 C961 1.463 1_545 S
C964 N968 1.427 . S
C965 H955 0.929 . S
C965 C963 1.433 . S
C965 N968 1.384 . S
C966 H957 0.929 . S
C966 C958 1.378 . S
C966 C961 1.350 1_545 S
C967 H954 0.929 . S
C967 C959 1.433 . S
C967 N969 1.384 . S
N968 C964 1.427 . S
N968 C965 1.384 . S
N969 C961 1.427 . S
N969 C967 1.384 . S
H970 C976 0.930 . S
H971 C980 0.930 . S
H972 C985 0.929 . S
H973 C983 0.929 . S
H974 C978 0.929 . S
H975 C984 0.929 . S
C976 H970 0.930 . S
C976 C977 1.367 . S
C976 C984 1.378 . S
C977 C976 1.367 . S
C977 C985 1.433 . S
C978 H974 0.929 . S
C978 C980 1.378 . S
C978 C982 1.350 . S
C979 C982 1.463 . S
C979 C984 1.350 . S
C979 N987 1.427 . S
C980 H971 0.930 . S
C980 C978 1.378 . S
C980 C981 1.367 . S
C981 C980 1.367 . S
C981 C983 1.433 . S
C982 C978 1.350 . S
C982 C979 1.463 . S
C982 N986 1.427 . S
C983 H973 0.929 . S
C983 C981 1.433 . S
C983 N986 1.384 . S
C984 H975 0.929 . S
C984 C976 1.378 . S
C984 C979 1.350 . S
C985 H972 0.929 . S
C985 C977 1.433 . S
C985 N987 1.384 . S
N986 C982 1.427 . S
N986 C983 1.384 . S
N987 C979 1.427 . S
N987 C985 1.384 . S
H988 C994 0.930 . S
H989 C998 0.930 . S
H990 C1003 0.929 1_565 S
H991 C1001 0.929 1_545 S
H992 C996 0.929 . S
H993 C1002 0.929 . S
C994 H988 0.930 . S
C994 C995 1.367 . S
C994 C1002 1.378 . S
C995 C994 1.367 . S
C995 C1003 1.433 . S
C996 H992 0.929 . S
C996 C998 1.378 . S
C996 C1000 1.350 . S
C997 C1000 1.463 1_545 S
C997 C1002 1.350 . S
C997 N1005 1.427 1_545 S
C998 H989 0.930 . S
C998 C996 1.378 . S
C998 C999 1.367 . S
C999 C998 1.367 . S
C999 C1001 1.433 . S
C1000 C996 1.350 . S
C1000 C997 1.463 1_565 S
C1000 N1004 1.427 1_565 S
C1001 H991 0.929 1_565 S
C1001 C999 1.433 . S
C1001 N1004 1.384 1_565 S
C1002 H993 0.929 . S
C1002 C994 1.378 . S
C1002 C997 1.350 . S
C1003 H990 0.929 1_545 S
C1003 C995 1.433 . S
C1003 N1005 1.384 1_545 S
N1004 C1000 1.427 1_545 S
N1004 C1001 1.384 1_545 S
N1005 C997 1.427 1_565 S
N1005 C1003 1.384 1_565 S
H1006 C1012 0.930 . S
H1007 C1016 0.930 . S
H1008 C1021 0.929 . S
H1009 C1019 0.929 . S
H1010 C1014 0.929 1_554 S
H1011 C1020 0.929 . S
C1012 H1006 0.930 . S
C1012 C1013 1.367 . S
C1012 C1020 1.378 . S
C1013 C1012 1.367 . S
C1013 C1021 1.433 . S
C1014 H1010 0.929 1_556 S
C1014 C1016 1.378 . S
C1014 C1018 1.350 1_556 S
C1015 C1018 1.463 . S
C1015 C1020 1.350 . S
C1015 N1023 1.427 . S
C1016 H1007 0.930 . S
C1016 C1014 1.378 . S
C1016 C1017 1.367 . S
C1017 C1016 1.367 . S
C1017 C1019 1.433 . S
C1018 C1014 1.350 1_554 S
C1018 C1015 1.463 . S
C1018 N1022 1.427 . S
C1019 H1009 0.929 . S
C1019 C1017 1.433 . S
C1019 N1022 1.384 1_556 S
C1020 H1011 0.929 . S
C1020 C1012 1.378 . S
C1020 C1015 1.350 . S
C1021 H1008 0.929 . S
C1021 C1013 1.433 . S
C1021 N1023 1.384 . S
N1022 C1018 1.427 . S
N1022 C1019 1.384 1_554 S
N1023 C1015 1.427 . S
N1023 C1021 1.384 . S
H1024 C1030 0.930 . S
H1025 C1034 0.930 . S
H1026 C1039 0.929 . S
H1027 C1037 0.929 . S
H1028 C1032 0.929 . S
H1029 C1038 0.929 . S
C1030 H1024 0.930 . S
C1030 C1031 1.367 . S
C1030 C1038 1.378 . S
C1031 C1030 1.367 . S
C1031 C1039 1.433 . S
C1032 H1028 0.929 . S
C1032 C1034 1.378 . S
C1032 C1036 1.350 . S
C1033 C1036 1.463 . S
C1033 C1038 1.350 . S
C1033 N1041 1.427 . S
C1034 H1025 0.930 . S
C1034 C1032 1.378 . S
C1034 C1035 1.367 . S
C1035 C1034 1.367 . S
C1035 C1037 1.433 . S
C1036 C1032 1.350 . S
C1036 C1033 1.463 . S
C1036 N1040 1.427 . S
C1037 H1027 0.929 . S
C1037 C1035 1.433 . S
C1037 N1040 1.384 . S
C1038 H1029 0.929 . S
C1038 C1030 1.378 . S
C1038 C1033 1.350 . S
C1039 H1026 0.929 . S
C1039 C1031 1.433 . S
C1039 N1041 1.384 . S
N1040 C1036 1.427 . S
N1040 C1037 1.384 . S
N1041 C1033 1.427 . S
N1041 C1039 1.384 . S
H1042 C1048 0.930 . S
H1043 C1052 0.930 . S
H1044 C1057 0.929 . S
H1045 C1055 0.929 . S
H1046 C1050 0.929 . S
H1047 C1056 0.929 . S
C1048 H1042 0.930 . S
C1048 C1049 1.367 . S
C1048 C1056 1.378 . S
C1049 C1048 1.367 . S
C1049 C1057 1.433 . S
C1050 H1046 0.929 . S
C1050 C1052 1.378 . S
C1050 C1054 1.350 . S
C1051 C1054 1.463 . S
C1051 C1056 1.350 . S
C1051 N1059 1.427 . S
C1052 H1043 0.930 . S
C1052 C1050 1.378 . S
C1052 C1053 1.367 . S
C1053 C1052 1.367 . S
C1053 C1055 1.433 . S
C1054 C1050 1.350 . S
C1054 C1051 1.463 . S
C1054 N1058 1.427 . S
C1055 H1045 0.929 . S
C1055 C1053 1.433 . S
C1055 N1058 1.384 . S
C1056 H1047 0.929 . S
C1056 C1048 1.378 . S
C1056 C1051 1.350 . S
C1057 H1044 0.929 . S
C1057 C1049 1.433 . S
C1057 N1059 1.384 . S
N1058 C1054 1.427 . S
N1058 C1055 1.384 . S
N1059 C1051 1.427 . S
N1059 C1057 1.384 . S
H1060 C1066 0.930 . S
H1061 C1070 0.930 . S
H1062 C1075 0.929 . S
H1063 C1073 0.929 . S
H1064 C1068 0.929 . S
H1065 C1074 0.929 . S
C1066 H1060 0.930 . S
C1066 C1067 1.367 . S
C1066 C1074 1.378 . S
C1067 C1066 1.367 . S
C1067 C1075 1.433 . S
C1068 H1064 0.929 . S
C1068 C1070 1.378 . S
C1068 C1072 1.350 . S
C1069 C1072 1.463 . S
C1069 C1074 1.350 . S
C1069 N1077 1.427 . S
C1070 H1061 0.930 . S
C1070 C1068 1.378 . S
C1070 C1071 1.367 . S
C1071 C1070 1.367 . S
C1071 C1073 1.433 . S
C1072 C1068 1.350 . S
C1072 C1069 1.463 . S
C1072 N1076 1.427 . S
C1073 H1063 0.929 . S
C1073 C1071 1.433 . S
C1073 N1076 1.384 . S
C1074 H1065 0.929 . S
C1074 C1066 1.378 . S
C1074 C1069 1.350 . S
C1075 H1062 0.929 . S
C1075 C1067 1.433 . S
C1075 N1077 1.384 . S
N1076 C1072 1.427 . S
N1076 C1073 1.384 . S
N1077 C1069 1.427 . S
N1077 C1075 1.384 . S
H1078 C1084 0.930 . S
H1079 C1088 0.930 . S
H1080 C1093 0.929 . S
H1081 C1091 0.929 . S
H1082 C1086 0.929 . S
H1083 C1092 0.929 . S
C1084 H1078 0.930 . S
C1084 C1085 1.367 . S
C1084 C1092 1.378 . S
C1085 C1084 1.367 . S
C1085 C1093 1.433 . S
C1086 H1082 0.929 . S
C1086 C1088 1.378 1_554 S
C1086 C1090 1.350 . S
C1087 C1090 1.463 . S
C1087 C1092 1.350 . S
C1087 N1095 1.427 . S
C1088 H1079 0.930 . S
C1088 C1086 1.378 1_556 S
C1088 C1089 1.367 . S
C1089 C1088 1.367 . S
C1089 C1091 1.433 . S
C1090 C1086 1.350 . S
C1090 C1087 1.463 . S
C1090 N1094 1.427 1_554 S
C1091 H1081 0.929 . S
C1091 C1089 1.433 . S
C1091 N1094 1.384 . S
C1092 H1083 0.929 . S
C1092 C1084 1.378 . S
C1092 C1087 1.350 . S
C1093 H1080 0.929 . S
C1093 C1085 1.433 . S
C1093 N1095 1.384 . S
N1094 C1090 1.427 1_556 S
N1094 C1091 1.384 . S
N1095 C1087 1.427 . S
N1095 C1093 1.384 . S
H1096 C1102 0.930 . S
H1097 C1106 0.930 . S
H1098 C1111 0.929 . S
H1099 C1109 0.929 . S
H1100 C1104 0.929 . S
H1101 C1110 0.929 . S
C1102 H1096 0.930 . S
C1102 C1103 1.367 . S
C1102 C1110 1.378 . S
C1103 C1102 1.367 . S
C1103 C1111 1.433 . S
C1104 H1100 0.929 . S
C1104 C1106 1.378 . S
C1104 C1108 1.350 . S
C1105 C1108 1.463 . S
C1105 C1110 1.350 . S
C1105 N1113 1.427 . S
C1106 H1097 0.930 . S
C1106 C1104 1.378 . S
C1106 C1107 1.367 . S
C1107 C1106 1.367 . S
C1107 C1109 1.433 . S
C1108 C1104 1.350 . S
C1108 C1105 1.463 . S
C1108 N1112 1.427 . S
C1109 H1099 0.929 . S
C1109 C1107 1.433 . S
C1109 N1112 1.384 . S
C1110 H1101 0.929 . S
C1110 C1102 1.378 . S
C1110 C1105 1.350 . S
C1111 H1098 0.929 . S
C1111 C1103 1.433 . S
C1111 N1113 1.384 . S
N1112 C1108 1.427 . S
N1112 C1109 1.384 . S
N1113 C1105 1.427 . S
N1113 C1111 1.384 . S
H1114 C1120 0.930 . S
H1115 C1124 0.930 . S
H1116 C1129 0.929 . S
H1117 C1127 0.929 . S
H1118 C1122 0.929 . S
H1119 C1128 0.929 . S
C1120 H1114 0.930 . S
C1120 C1121 1.367 . S
C1120 C1128 1.378 . S
C1121 C1120 1.367 . S
C1121 C1129 1.433 . S
C1122 H1118 0.929 . S
C1122 C1124 1.378 . S
C1122 C1126 1.350 . S
C1123 C1126 1.463 . S
C1123 C1128 1.350 . S
C1123 N1131 1.427 . S
C1124 H1115 0.930 . S
C1124 C1122 1.378 . S
C1124 C1125 1.367 . S
C1125 C1124 1.367 . S
C1125 C1127 1.433 . S
C1126 C1122 1.350 . S
C1126 C1123 1.463 . S
C1126 N1130 1.427 . S
C1127 H1117 0.929 . S
C1127 C1125 1.433 . S
C1127 N1130 1.384 . S
C1128 H1119 0.929 . S
C1128 C1120 1.378 . S
C1128 C1123 1.350 . S
C1129 H1116 0.929 . S
C1129 C1121 1.433 . S
C1129 N1131 1.384 . S
N1130 C1126 1.427 . S
N1130 C1127 1.384 . S
N1131 C1123 1.427 . S
N1131 C1129 1.384 . S
H1132 C1138 0.930 . S
H1133 C1142 0.930 . S
H1134 C1147 0.929 . S
H1135 C1145 0.929 . S
H1136 C1140 0.929 . S
H1137 C1146 0.929 . S
C1138 H1132 0.930 . S
C1138 C1139 1.367 . S
C1138 C1146 1.378 . S
C1139 C1138 1.367 . S
C1139 C1147 1.433 . S
C1140 H1136 0.929 . S
C1140 C1142 1.378 . S
C1140 C1144 1.350 . S
C1141 C1144 1.463 . S
C1141 C1146 1.350 . S
C1141 N1149 1.427 . S
C1142 H1133 0.930 . S
C1142 C1140 1.378 . S
C1142 C1143 1.367 . S
C1143 C1142 1.367 . S
C1143 C1145 1.433 . S
C1144 C1140 1.350 . S
C1144 C1141 1.463 . S
C1144 N1148 1.427 . S
C1145 H1135 0.929 . S
C1145 C1143 1.433 . S
C1145 N1148 1.384 . S
C1146 H1137 0.929 . S
C1146 C1138 1.378 . S
C1146 C1141 1.350 . S
C1147 H1134 0.929 . S
C1147 C1139 1.433 . S
C1147 N1149 1.384 . S
N1148 C1144 1.427 . S
N1148 C1145 1.384 . S
N1149 C1141 1.427 . S
N1149 C1147 1.384 . S
H1150 C1156 0.930 . S
H1151 C1160 0.930 . S
H1152 C1165 0.929 . S
H1153 C1163 0.929 . S
H1154 C1158 0.929 . S
H1155 C1164 0.929 1_554 S
C1156 H1150 0.930 . S
C1156 C1157 1.367 . S
C1156 C1164 1.378 . S
C1157 C1156 1.367 . S
C1157 C1165 1.433 . S
C1158 H1154 0.929 . S
C1158 C1160 1.378 . S
C1158 C1162 1.350 . S
C1159 C1162 1.463 . S
C1159 C1164 1.350 1_554 S
C1159 N1167 1.427 1_554 S
C1160 H1151 0.930 . S
C1160 C1158 1.378 . S
C1160 C1161 1.367 . S
C1161 C1160 1.367 . S
C1161 C1163 1.433 . S
C1162 C1158 1.350 . S
C1162 C1159 1.463 . S
C1162 N1166 1.427 . S
C1163 H1153 0.929 . S
C1163 C1161 1.433 . S
C1163 N1166 1.384 . S
C1164 H1155 0.929 1_556 S
C1164 C1156 1.378 . S
C1164 C1159 1.350 1_556 S
C1165 H1152 0.929 . S
C1165 C1157 1.433 . S
C1165 N1167 1.384 . S
N1166 C1162 1.427 . S
N1166 C1163 1.384 . S
N1167 C1159 1.427 1_556 S
N1167 C1165 1.384 . S
H1168 C1174 0.930 . S
H1169 C1178 0.930 . S
H1170 C1183 0.929 . S
H1171 C1181 0.929 . S
H1172 C1176 0.929 . S
H1173 C1182 0.929 . S
C1174 H1168 0.930 . S
C1174 C1175 1.367 . S
C1174 C1182 1.378 . S
C1175 C1174 1.367 . S
C1175 C1183 1.433 1_565 S
C1176 H1172 0.929 . S
C1176 C1178 1.378 . S
C1176 C1180 1.350 . S
C1177 C1180 1.463 1_565 S
C1177 C1182 1.350 . S
C1177 N1185 1.427 1_565 S
C1178 H1169 0.930 . S
C1178 C1176 1.378 . S
C1178 C1179 1.367 . S
C1179 C1178 1.367 . S
C1179 C1181 1.433 1_545 S
C1180 C1176 1.350 . S
C1180 C1177 1.463 1_545 S
C1180 N1184 1.427 1_545 S
C1181 H1171 0.929 . S
C1181 C1179 1.433 1_565 S
C1181 N1184 1.384 . S
C1182 H1173 0.929 . S
C1182 C1174 1.378 . S
C1182 C1177 1.350 . S
C1183 H1170 0.929 . S
C1183 C1175 1.433 1_545 S
C1183 N1185 1.384 . S
N1184 C1180 1.427 1_565 S
N1184 C1181 1.384 . S
N1185 C1177 1.427 1_545 S
N1185 C1183 1.384 . S
H1186 C1192 0.930 . S
H1187 C1196 0.930 . S
H1188 C1201 0.929 . S
H1189 C1199 0.929 . S
H1190 C1194 0.936 . S
H1191 C1200 0.929 . S
C1192 H1186 0.930 . S
C1192 C1193 1.367 . S
C1192 C1200 1.378 . S
C1193 C1192 1.367 . S
C1193 C1201 1.433 . S
C1194 H1190 0.936 . S
C1194 C1196 1.378 . S
C1194 C1198 1.350 1_556 S
C1195 C1198 1.463 . S
C1195 C1200 1.350 . S
C1195 N1203 1.427 . S
C1196 H1187 0.930 . S
C1196 C1194 1.378 . S
C1196 C1197 1.367 . S
C1197 C1196 1.367 . S
C1197 C1199 1.433 . S
C1198 C1194 1.350 1_554 S
C1198 C1195 1.463 . S
C1198 N1202 1.427 . S
C1199 H1189 0.929 . S
C1199 C1197 1.433 . S
C1199 N1202 1.384 1_556 S
C1200 H1191 0.929 . S
C1200 C1192 1.378 . S
C1200 C1195 1.350 . S
C1201 H1188 0.929 . S
C1201 C1193 1.433 . S
C1201 N1203 1.384 . S
N1202 C1198 1.427 . S
N1202 C1199 1.384 1_554 S
N1203 C1195 1.427 . S
N1203 C1201 1.384 . S
H1204 C1210 0.930 . S
H1205 C1214 0.930 . S
H1206 C1219 0.929 . S
H1207 C1217 0.929 . S
H1208 C1212 0.929 . S
H1209 C1218 0.929 . S
C1210 H1204 0.930 . S
C1210 C1211 1.367 . S
C1210 C1218 1.378 . S
C1211 C1210 1.367 . S
C1211 C1219 1.433 1_565 S
C1212 H1208 0.929 . S
C1212 C1214 1.378 . S
C1212 C1216 1.350 . S
C1213 C1216 1.463 1_565 S
C1213 C1218 1.350 . S
C1213 N1221 1.427 1_565 S
C1214 H1205 0.930 . S
C1214 C1212 1.378 . S
C1214 C1215 1.367 . S
C1215 C1214 1.367 . S
C1215 C1217 1.433 1_545 S
C1216 C1212 1.350 . S
C1216 C1213 1.463 1_545 S
C1216 N1220 1.427 1_545 S
C1217 H1207 0.929 . S
C1217 C1215 1.433 1_565 S
C1217 N1220 1.384 . S
C1218 H1209 0.929 . S
C1218 C1210 1.378 . S
C1218 C1213 1.350 . S
C1219 H1206 0.929 . S
C1219 C1211 1.433 1_545 S
C1219 N1221 1.384 . S
N1220 C1216 1.427 1_565 S
N1220 C1217 1.384 . S
N1221 C1213 1.427 1_545 S
N1221 C1219 1.384 . S
H1222 C1228 0.930 . S
H1223 C1232 0.930 . S
H1224 C1237 0.929 . S
H1225 C1235 0.929 . S
H1226 C1230 0.929 . S
H1227 C1236 0.929 . S
C1228 H1222 0.930 . S
C1228 C1229 1.367 . S
C1228 C1236 1.378 . S
C1229 C1228 1.367 . S
C1229 C1237 1.433 . S
C1230 H1226 0.929 . S
C1230 C1232 1.378 . S
C1230 C1234 1.350 . S
C1231 C1234 1.463 . S
C1231 C1236 1.350 . S
C1231 N1239 1.427 . S
C1232 H1223 0.930 . S
C1232 C1230 1.378 . S
C1232 C1233 1.367 . S
C1233 C1232 1.367 . S
C1233 C1235 1.433 . S
C1234 C1230 1.350 . S
C1234 C1231 1.463 . S
C1234 N1238 1.427 . S
C1235 H1225 0.929 . S
C1235 C1233 1.433 . S
C1235 N1238 1.384 . S
C1236 H1227 0.929 . S
C1236 C1228 1.378 . S
C1236 C1231 1.350 . S
C1237 H1224 0.929 . S
C1237 C1229 1.433 . S
C1237 N1239 1.384 . S
N1238 C1234 1.427 . S
N1238 C1235 1.384 . S
N1239 C1231 1.427 . S
N1239 C1237 1.384 . S
H1240 C1246 0.930 . S
H1241 C1250 0.930 . S
H1242 C1255 0.929 . S
H1243 C1253 0.929 . S
H1244 C1248 0.929 . S
H1245 C1254 0.929 . S
C1246 H1240 0.930 . S
C1246 C1247 1.367 1_545 S
C1246 C1254 1.378 . S
C1247 C1246 1.367 1_565 S
C1247 C1255 1.433 . S
C1248 H1244 0.929 . S
C1248 C1250 1.378 . S
C1248 C1252 1.350 1_565 S
C1249 C1252 1.463 1_565 S
C1249 C1254 1.350 1_565 S
C1249 N1257 1.427 . S
C1250 H1241 0.930 . S
C1250 C1248 1.378 . S
C1250 C1251 1.367 1_565 S
C1251 C1250 1.367 1_545 S
C1251 C1253 1.433 . S
C1252 C1248 1.350 1_545 S
C1252 C1249 1.463 1_545 S
C1252 N1256 1.427 . S
C1253 H1243 0.929 . S
C1253 C1251 1.433 . S
C1253 N1256 1.384 . S
C1254 H1245 0.929 . S
C1254 C1246 1.378 . S
C1254 C1249 1.350 1_545 S
C1255 H1242 0.929 . S
C1255 C1247 1.433 . S
C1255 N1257 1.384 . S
N1256 C1252 1.427 . S
N1256 C1253 1.384 . S
N1257 C1249 1.427 . S
N1257 C1255 1.384 . S
H1258 C1264 0.930 . S
H1259 C1268 0.930 . S
H1260 C1273 0.929 . S
H1261 C1271 0.929 . S
H1262 C1266 0.929 1_554 S
H1263 C1272 0.929 . S
C1264 H1258 0.930 . S
C1264 C1265 1.367 . S
C1264 C1272 1.378 . S
C1265 C1264 1.367 . S
C1265 C1273 1.433 . S
C1266 H1262 0.929 1_556 S
C1266 C1268 1.378 . S
C1266 C1270 1.350 1_556 S
C1267 C1270 1.463 . S
C1267 C1272 1.350 . S
C1267 N1275 1.427 . S
C1268 H1259 0.930 . S
C1268 C1266 1.378 . S
C1268 C1269 1.367 . S
C1269 C1268 1.367 . S
C1269 C1271 1.433 . S
C1270 C1266 1.350 1_554 S
C1270 C1267 1.463 . S
C1270 N1274 1.427 . S
C1271 H1261 0.929 . S
C1271 C1269 1.433 . S
C1271 N1274 1.384 1_556 S
C1272 H1263 0.929 . S
C1272 C1264 1.378 . S
C1272 C1267 1.350 . S
C1273 H1260 0.929 . S
C1273 C1265 1.433 . S
C1273 N1275 1.384 . S
N1274 C1270 1.427 . S
N1274 C1271 1.384 1_554 S
N1275 C1267 1.427 . S
N1275 C1273 1.384 . S
H1276 C1282 0.930 . S
H1277 C1286 0.930 . S
H1278 C1291 0.929 . S
H1279 C1289 0.929 . S
H1280 C1284 0.929 . S
H1281 C1290 0.929 . S
C1282 H1276 0.930 . S
C1282 C1283 1.367 . S
C1282 C1290 1.378 . S
C1283 C1282 1.367 . S
C1283 C1291 1.433 1_565 S
C1284 H1280 0.929 . S
C1284 C1286 1.378 . S
C1284 C1288 1.350 . S
C1285 C1288 1.463 1_565 S
C1285 C1290 1.350 . S
C1285 N1293 1.427 1_565 S
C1286 H1277 0.930 . S
C1286 C1284 1.378 . S
C1286 C1287 1.367 . S
C1287 C1286 1.367 . S
C1287 C1289 1.433 1_545 S
C1288 C1284 1.350 . S
C1288 C1285 1.463 1_545 S
C1288 N1292 1.427 1_545 S
C1289 H1279 0.929 . S
C1289 C1287 1.433 1_565 S
C1289 N1292 1.384 . S
C1290 H1281 0.929 . S
C1290 C1282 1.378 . S
C1290 C1285 1.350 . S
C1291 H1278 0.929 . S
C1291 C1283 1.433 1_545 S
C1291 N1293 1.384 . S
N1292 C1288 1.427 1_565 S
N1292 C1289 1.384 . S
N1293 C1285 1.427 1_545 S
N1293 C1291 1.384 . S
H1294 C1300 0.930 . S
H1295 C1304 0.930 . S
H1296 C1309 0.929 . S
H1297 C1307 0.929 . S
H1298 C1302 0.929 . S
H1299 C1308 0.929 . S
C1300 H1294 0.930 . S
C1300 C1301 1.367 . S
C1300 C1308 1.378 . S
C1301 C1300 1.367 . S
C1301 C1309 1.433 . S
C1302 H1298 0.929 . S
C1302 C1304 1.378 . S
C1302 C1306 1.350 . S
C1303 C1306 1.463 . S
C1303 C1308 1.350 . S
C1303 N1311 1.427 . S
C1304 H1295 0.930 . S
C1304 C1302 1.378 . S
C1304 C1305 1.367 . S
C1305 C1304 1.367 . S
C1305 C1307 1.433 . S
C1306 C1302 1.350 . S
C1306 C1303 1.463 . S
C1306 N1310 1.427 . S
C1307 H1297 0.929 . S
C1307 C1305 1.433 . S
C1307 N1310 1.384 . S
C1308 H1299 0.929 . S
C1308 C1300 1.378 . S
C1308 C1303 1.350 . S
C1309 H1296 0.929 . S
C1309 C1301 1.433 . S
C1309 N1311 1.384 . S
N1310 C1306 1.427 . S
N1310 C1307 1.384 . S
N1311 C1303 1.427 . S
N1311 C1309 1.384 . S
H1312 C1318 0.930 . S
H1313 C1322 0.930 . S
H1314 C1327 0.929 . S
H1315 C1325 0.929 . S
H1316 C1320 0.929 . S
H1317 C1326 0.929 . S
C1318 H1312 0.930 . S
C1318 C1319 1.367 . S
C1318 C1326 1.378 . S
C1319 C1318 1.367 . S
C1319 C1327 1.433 . S
C1320 H1316 0.929 . S
C1320 C1322 1.378 . S
C1320 C1324 1.350 . S
C1321 C1324 1.463 . S
C1321 C1326 1.350 . S
C1321 N1329 1.427 . S
C1322 H1313 0.930 . S
C1322 C1320 1.378 . S
C1322 C1323 1.367 . S
C1323 C1322 1.367 . S
C1323 C1325 1.433 . S
C1324 C1320 1.350 . S
C1324 C1321 1.463 . S
C1324 N1328 1.427 . S
C1325 H1315 0.929 . S
C1325 C1323 1.433 . S
C1325 N1328 1.384 . S
C1326 H1317 0.929 . S
C1326 C1318 1.378 . S
C1326 C1321 1.350 . S
C1327 H1314 0.929 . S
C1327 C1319 1.433 . S
C1327 N1329 1.384 . S
N1328 C1324 1.427 . S
N1328 C1325 1.384 . S
N1329 C1321 1.427 . S
N1329 C1327 1.384 . S
H1330 C1336 0.930 . S
H1331 C1340 0.930 . S
H1332 C1345 0.929 . S
H1333 C1343 0.929 . S
H1334 C1338 0.929 . S
H1335 C1344 0.929 . S
C1336 H1330 0.930 . S
C1336 C1337 1.367 . S
C1336 C1344 1.378 . S
C1337 C1336 1.367 . S
C1337 C1345 1.433 . S
C1338 H1334 0.929 . S
C1338 C1340 1.378 . S
C1338 C1342 1.350 . S
C1339 C1342 1.463 . S
C1339 C1344 1.350 . S
C1339 N1347 1.427 . S
C1340 H1331 0.930 . S
C1340 C1338 1.378 . S
C1340 C1341 1.367 . S
C1341 C1340 1.367 . S
C1341 C1343 1.433 . S
C1342 C1338 1.350 . S
C1342 C1339 1.463 . S
C1342 N1346 1.427 . S
C1343 H1333 0.929 . S
C1343 C1341 1.433 . S
C1343 N1346 1.384 . S
C1344 H1335 0.929 . S
C1344 C1336 1.378 . S
C1344 C1339 1.350 . S
C1345 H1332 0.929 . S
C1345 C1337 1.433 . S
C1345 N1347 1.384 . S
N1346 C1342 1.427 . S
N1346 C1343 1.384 . S
N1347 C1339 1.427 . S
N1347 C1345 1.384 . S
H1348 C1354 0.930 . S
H1349 C1358 0.930 . S
H1350 C1363 0.929 . S
H1351 C1361 0.929 . S
H1352 C1356 0.929 . S
H1353 C1362 0.929 . S
C1354 H1348 0.930 . S
C1354 C1355 1.367 . S
C1354 C1362 1.378 . S
C1355 C1354 1.367 . S
C1355 C1363 1.433 . S
C1356 H1352 0.929 . S
C1356 C1358 1.378 . S
C1356 C1360 1.350 . S
C1357 C1360 1.463 . S
C1357 C1362 1.350 . S
C1357 N1365 1.427 . S
C1358 H1349 0.930 . S
C1358 C1356 1.378 . S
C1358 C1359 1.367 . S
C1359 C1358 1.367 . S
C1359 C1361 1.433 . S
C1360 C1356 1.350 . S
C1360 C1357 1.463 . S
C1360 N1364 1.427 . S
C1361 H1351 0.929 . S
C1361 C1359 1.433 . S
C1361 N1364 1.384 . S
C1362 H1353 0.929 . S
C1362 C1354 1.378 . S
C1362 C1357 1.350 . S
C1363 H1350 0.929 . S
C1363 C1355 1.433 . S
C1363 N1365 1.384 . S
N1364 C1360 1.427 . S
N1364 C1361 1.384 . S
N1365 C1357 1.427 . S
N1365 C1363 1.384 . S
H1366 C1372 0.930 . S
H1367 C1376 0.930 . S
H1368 C1381 0.929 . S
H1369 C1379 0.929 . S
H1370 C1374 0.929 . S
H1371 C1380 0.929 . S
C1372 H1366 0.930 . S
C1372 C1373 1.367 . S
C1372 C1380 1.378 . S
C1373 C1372 1.367 . S
C1373 C1381 1.433 . S
C1374 H1370 0.929 . S
C1374 C1376 1.378 . S
C1374 C1378 1.350 . S
C1375 C1378 1.463 . S
C1375 C1380 1.350 . S
C1375 N1383 1.427 . S
C1376 H1367 0.930 . S
C1376 C1374 1.378 . S
C1376 C1377 1.367 . S
C1377 C1376 1.367 . S
C1377 C1379 1.433 1_556 S
C1378 C1374 1.350 . S
C1378 C1375 1.463 . S
C1378 N1382 1.427 . S
C1379 H1369 0.929 . S
C1379 C1377 1.433 1_554 S
C1379 N1382 1.384 1_554 S
C1380 H1371 0.929 . S
C1380 C1372 1.378 . S
C1380 C1375 1.350 . S
C1381 H1368 0.929 . S
C1381 C1373 1.433 . S
C1381 N1383 1.384 . S
N1382 C1378 1.427 . S
N1382 C1379 1.384 1_556 S
N1383 C1375 1.427 . S
N1383 C1381 1.384 . S
H1384 C1390 0.930 . S
H1385 C1394 0.930 . S
H1386 C1399 0.929 . S
H1387 C1397 0.929 . S
H1388 C1392 0.929 . S
H1389 C1398 0.929 . S
C1390 H1384 0.930 . S
C1390 C1391 1.367 . S
C1390 C1398 1.378 . S
C1391 C1390 1.367 . S
C1391 C1399 1.433 . S
C1392 H1388 0.929 . S
C1392 C1394 1.378 . S
C1392 C1396 1.350 . S
C1393 C1396 1.463 . S
C1393 C1398 1.350 . S
C1393 N1401 1.427 . S
C1394 H1385 0.930 . S
C1394 C1392 1.378 . S
C1394 C1395 1.367 . S
C1395 C1394 1.367 . S
C1395 C1397 1.433 . S
C1396 C1392 1.350 . S
C1396 C1393 1.463 . S
C1396 N1400 1.427 . S
C1397 H1387 0.929 . S
C1397 C1395 1.433 . S
C1397 N1400 1.384 . S
C1398 H1389 0.929 . S
C1398 C1390 1.378 . S
C1398 C1393 1.350 . S
C1399 H1386 0.929 . S
C1399 C1391 1.433 . S
C1399 N1401 1.384 . S
N1400 C1396 1.427 . S
N1400 C1397 1.384 . S
N1401 C1393 1.427 . S
N1401 C1399 1.384 . S
H1402 C1408 0.930 . S
H1403 C1412 0.930 . S
H1404 C1417 0.929 . S
H1405 C1415 0.929 . S
H1406 C1410 0.929 . S
H1407 C1416 0.929 . S
C1408 H1402 0.930 . S
C1408 C1409 1.367 . S
C1408 C1416 1.378 . S
C1409 C1408 1.367 . S
C1409 C1417 1.433 . S
C1410 H1406 0.929 . S
C1410 C1412 1.378 . S
C1410 C1414 1.350 . S
C1411 C1414 1.463 . S
C1411 C1416 1.350 . S
C1411 N1419 1.427 . S
C1412 H1403 0.930 . S
C1412 C1410 1.378 . S
C1412 C1413 1.367 . S
C1413 C1412 1.367 . S
C1413 C1415 1.433 . S
C1414 C1410 1.350 . S
C1414 C1411 1.463 . S
C1414 N1418 1.427 . S
C1415 H1405 0.929 . S
C1415 C1413 1.433 . S
C1415 N1418 1.384 . S
C1416 H1407 0.929 . S
C1416 C1408 1.378 . S
C1416 C1411 1.350 . S
C1417 H1404 0.929 . S
C1417 C1409 1.433 . S
C1417 N1419 1.384 . S
N1418 C1414 1.427 . S
N1418 C1415 1.384 . S
N1419 C1411 1.427 . S
N1419 C1417 1.384 . S
H1420 C1426 0.930 . S
H1421 C1430 0.930 1_554 S
H1422 C1435 0.929 . S
H1423 C1433 0.929 . S
H1424 C1428 0.929 . S
H1425 C1434 0.929 . S
C1426 H1420 0.930 . S
C1426 C1427 1.367 . S
C1426 C1434 1.378 . S
C1427 C1426 1.367 . S
C1427 C1435 1.433 . S
C1428 H1424 0.929 . S
C1428 C1430 1.378 . S
C1428 C1432 1.350 . S
C1429 C1432 1.463 . S
C1429 C1434 1.350 . S
C1429 N1437 1.427 . S
C1430 H1421 0.930 1_556 S
C1430 C1428 1.378 . S
C1430 C1431 1.367 . S
C1431 C1430 1.367 . S
C1431 C1433 1.433 . S
C1432 C1428 1.350 . S
C1432 C1429 1.463 . S
C1432 N1436 1.427 . S
C1433 H1423 0.929 . S
C1433 C1431 1.433 . S
C1433 N1436 1.384 . S
C1434 H1425 0.929 . S
C1434 C1426 1.378 . S
C1434 C1429 1.350 . S
C1435 H1422 0.929 . S
C1435 C1427 1.433 . S
C1435 N1437 1.384 . S
N1436 C1432 1.427 . S
N1436 C1433 1.384 . S
N1437 C1429 1.427 . S
N1437 C1435 1.384 . S
H1438 C1444 0.930 . S
H1439 C1448 0.930 . S
H1440 C1453 0.929 . S
H1441 C1451 0.929 . S
H1442 C1446 0.929 . S
H1443 C1452 0.929 . S
C1444 H1438 0.930 . S
C1444 C1445 1.367 . S
C1444 C1452 1.378 . S
C1445 C1444 1.367 . S
C1445 C1453 1.433 . S
C1446 H1442 0.929 . S
C1446 C1448 1.378 . S
C1446 C1450 1.350 . S
C1447 C1450 1.463 . S
C1447 C1452 1.350 . S
C1447 N1455 1.427 . S
C1448 H1439 0.930 . S
C1448 C1446 1.378 . S
C1448 C1449 1.367 . S
C1449 C1448 1.367 . S
C1449 C1451 1.433 . S
C1450 C1446 1.350 . S
C1450 C1447 1.463 . S
C1450 N1454 1.427 . S
C1451 H1441 0.929 . S
C1451 C1449 1.433 . S
C1451 N1454 1.384 . S
C1452 H1443 0.929 . S
C1452 C1444 1.378 . S
C1452 C1447 1.350 . S
C1453 H1440 0.929 . S
C1453 C1445 1.433 . S
C1453 N1455 1.384 . S
N1454 C1450 1.427 . S
N1454 C1451 1.384 . S
N1455 C1447 1.427 . S
N1455 C1453 1.384 . S
H1456 C1462 0.930 1_554 S
H1457 C1466 0.930 . S
H1458 C1471 0.929 . S
H1459 C1469 0.929 . S
H1460 C1464 0.929 . S
H1461 C1470 0.929 . S
C1462 H1456 0.930 1_556 S
C1462 C1463 1.367 . S
C1462 C1470 1.378 . S
C1463 C1462 1.367 . S
C1463 C1471 1.433 . S
C1464 H1460 0.929 . S
C1464 C1466 1.378 . S
C1464 C1468 1.350 . S
C1465 C1468 1.463 . S
C1465 C1470 1.350 . S
C1465 N1473 1.427 . S
C1466 H1457 0.930 . S
C1466 C1464 1.378 . S
C1466 C1467 1.367 . S
C1467 C1466 1.367 . S
C1467 C1469 1.433 . S
C1468 C1464 1.350 . S
C1468 C1465 1.463 . S
C1468 N1472 1.427 . S
C1469 H1459 0.929 . S
C1469 C1467 1.433 . S
C1469 N1472 1.384 . S
C1470 H1461 0.929 . S
C1470 C1462 1.378 . S
C1470 C1465 1.350 . S
C1471 H1458 0.929 . S
C1471 C1463 1.433 . S
C1471 N1473 1.384 . S
N1472 C1468 1.427 . S
N1472 C1469 1.384 . S
N1473 C1465 1.427 . S
N1473 C1471 1.384 . S
H1474 C1480 0.930 . S
H1475 C1484 0.930 . S
H1476 C1489 0.929 . S
H1477 C1487 0.929 . S
H1478 C1482 0.929 . S
H1479 C1488 0.929 . S
C1480 H1474 0.930 . S
C1480 C1481 1.367 . S
C1480 C1488 1.378 . S
C1481 C1480 1.367 . S
C1481 C1489 1.433 . S
C1482 H1478 0.929 . S
C1482 C1484 1.378 . S
C1482 C1486 1.350 . S
C1483 C1486 1.463 . S
C1483 C1488 1.350 . S
C1483 N1491 1.427 . S
C1484 H1475 0.930 . S
C1484 C1482 1.378 . S
C1484 C1485 1.367 . S
C1485 C1484 1.367 . S
C1485 C1487 1.433 . S
C1486 C1482 1.350 . S
C1486 C1483 1.463 . S
C1486 N1490 1.427 . S
C1487 H1477 0.929 . S
C1487 C1485 1.433 . S
C1487 N1490 1.384 . S
C1488 H1479 0.929 . S
C1488 C1480 1.378 . S
C1488 C1483 1.350 . S
C1489 H1476 0.929 . S
C1489 C1481 1.433 . S
C1489 N1491 1.384 . S
N1490 C1486 1.427 . S
N1490 C1487 1.384 . S
N1491 C1483 1.427 . S
N1491 C1489 1.384 . S
H1492 C1498 0.930 . S
H1493 C1502 0.930 . S
H1494 C1507 0.929 . S
H1495 C1505 0.929 . S
H1496 C1500 0.929 . S
H1497 C1506 0.929 . S
C1498 H1492 0.930 . S
C1498 C1499 1.367 . S
C1498 C1506 1.378 . S
C1499 C1498 1.367 . S
C1499 C1507 1.433 . S
C1500 H1496 0.929 . S
C1500 C1502 1.378 . S
C1500 C1504 1.350 . S
C1501 C1504 1.463 . S
C1501 C1506 1.350 . S
C1501 N1509 1.427 . S
C1502 H1493 0.930 . S
C1502 C1500 1.378 . S
C1502 C1503 1.367 . S
C1503 C1502 1.367 . S
C1503 C1505 1.433 . S
C1504 C1500 1.350 . S
C1504 C1501 1.463 . S
C1504 N1508 1.427 . S
C1505 H1495 0.929 . S
C1505 C1503 1.433 . S
C1505 N1508 1.384 . S
C1506 H1497 0.929 . S
C1506 C1498 1.378 . S
C1506 C1501 1.350 . S
C1507 H1494 0.929 . S
C1507 C1499 1.433 . S
C1507 N1509 1.384 . S
N1508 C1504 1.427 . S
N1508 C1505 1.384 . S
N1509 C1501 1.427 . S
N1509 C1507 1.384 . S
H1510 C1516 0.930 . S
H1511 C1520 0.930 . S
H1512 C1525 0.929 . S
H1513 C1523 0.929 . S
H1514 C1518 0.929 . S
H1515 C1524 0.929 . S
C1516 H1510 0.930 . S
C1516 C1517 1.367 . S
C1516 C1524 1.378 . S
C1517 C1516 1.367 . S
C1517 C1525 1.433 . S
C1518 H1514 0.929 . S
C1518 C1520 1.378 . S
C1518 C1522 1.350 . S
C1519 C1522 1.463 . S
C1519 C1524 1.350 . S
C1519 N1527 1.427 . S
C1520 H1511 0.930 . S
C1520 C1518 1.378 . S
C1520 C1521 1.367 . S
C1521 C1520 1.367 . S
C1521 C1523 1.433 . S
C1522 C1518 1.350 . S
C1522 C1519 1.463 . S
C1522 N1526 1.427 . S
C1523 H1513 0.929 . S
C1523 C1521 1.433 . S
C1523 N1526 1.384 . S
C1524 H1515 0.929 . S
C1524 C1516 1.378 . S
C1524 C1519 1.350 . S
C1525 H1512 0.929 . S
C1525 C1517 1.433 . S
C1525 N1527 1.384 . S
N1526 C1522 1.427 . S
N1526 C1523 1.384 . S
N1527 C1519 1.427 . S
N1527 C1525 1.384 . S
H1528 C1534 0.930 . S
H1529 C1538 0.930 . S
H1530 C1543 0.929 . S
H1531 C1541 0.929 . S
H1532 C1536 0.929 . S
H1533 C1542 0.929 . S
C1534 H1528 0.930 . S
C1534 C1535 1.367 . S
C1534 C1542 1.378 . S
C1535 C1534 1.367 . S
C1535 C1543 1.433 . S
C1536 H1532 0.929 . S
C1536 C1538 1.378 . S
C1536 C1540 1.350 . S
C1537 C1540 1.463 . S
C1537 C1542 1.350 . S
C1537 N1545 1.427 . S
C1538 H1529 0.930 . S
C1538 C1536 1.378 . S
C1538 C1539 1.367 . S
C1539 C1538 1.367 . S
C1539 C1541 1.433 . S
C1540 C1536 1.350 . S
C1540 C1537 1.463 . S
C1540 N1544 1.427 . S
C1541 H1531 0.929 . S
C1541 C1539 1.433 . S
C1541 N1544 1.384 . S
C1542 H1533 0.929 . S
C1542 C1534 1.378 . S
C1542 C1537 1.350 . S
C1543 H1530 0.929 . S
C1543 C1535 1.433 . S
C1543 N1545 1.384 . S
N1544 C1540 1.427 . S
N1544 C1541 1.384 . S
N1545 C1537 1.427 . S
N1545 C1543 1.384 . S
H1546 C1552 0.930 . S
H1547 C1556 0.930 . S
H1548 C1561 0.929 . S
H1549 C1559 0.929 . S
H1550 C1554 0.929 . S
H1551 C1560 0.929 . S
C1552 H1546 0.930 . S
C1552 C1553 1.367 . S
C1552 C1560 1.378 . S
C1553 C1552 1.367 . S
C1553 C1561 1.433 . S
C1554 H1550 0.929 . S
C1554 C1556 1.378 . S
C1554 C1558 1.350 . S
C1555 C1558 1.463 . S
C1555 C1560 1.350 . S
C1555 N1563 1.427 . S
C1556 H1547 0.930 . S
C1556 C1554 1.378 . S
C1556 C1557 1.367 . S
C1557 C1556 1.367 . S
C1557 C1559 1.433 . S
C1558 C1554 1.350 . S
C1558 C1555 1.463 . S
C1558 N1562 1.427 . S
C1559 H1549 0.929 . S
C1559 C1557 1.433 . S
C1559 N1562 1.384 . S
C1560 H1551 0.929 . S
C1560 C1552 1.378 . S
C1560 C1555 1.350 . S
C1561 H1548 0.929 . S
C1561 C1553 1.433 . S
C1561 N1563 1.384 . S
N1562 C1558 1.427 . S
N1562 C1559 1.384 . S
N1563 C1555 1.427 . S
N1563 C1561 1.384 . S
H1564 C1570 0.930 . S
H1565 C1574 0.930 . S
H1566 C1579 0.929 . S
H1567 C1577 0.929 . S
H1568 C1572 0.929 . S
H1569 C1578 0.929 . S
C1570 H1564 0.930 . S
C1570 C1571 1.367 . S
C1570 C1578 1.378 . S
C1571 C1570 1.367 . S
C1571 C1579 1.433 . S
C1572 H1568 0.929 . S
C1572 C1574 1.378 . S
C1572 C1576 1.350 . S
C1573 C1576 1.463 . S
C1573 C1578 1.350 . S
C1573 N1581 1.427 . S
C1574 H1565 0.930 . S
C1574 C1572 1.378 . S
C1574 C1575 1.367 . S
C1575 C1574 1.367 . S
C1575 C1577 1.433 . S
C1576 C1572 1.350 . S
C1576 C1573 1.463 . S
C1576 N1580 1.427 . S
C1577 H1567 0.929 . S
C1577 C1575 1.433 . S
C1577 N1580 1.384 . S
C1578 H1569 0.929 . S
C1578 C1570 1.378 . S
C1578 C1573 1.350 . S
C1579 H1566 0.929 . S
C1579 C1571 1.433 . S
C1579 N1581 1.384 . S
N1580 C1576 1.427 . S
N1580 C1577 1.384 . S
N1581 C1573 1.427 . S
N1581 C1579 1.384 . S
H1582 C1588 0.930 . S
H1583 C1592 0.930 . S
H1584 C1597 0.929 . S
H1585 C1595 0.929 1_554 S
H1586 C1590 0.929 . S
H1587 C1596 0.929 . S
C1588 H1582 0.930 . S
C1588 C1589 1.367 . S
C1588 C1596 1.378 . S
C1589 C1588 1.367 . S
C1589 C1597 1.433 . S
C1590 H1586 0.929 . S
C1590 C1592 1.378 . S
C1590 C1594 1.350 . S
C1591 C1594 1.463 . S
C1591 C1596 1.350 . S
C1591 N1599 1.427 . S
C1592 H1583 0.930 . S
C1592 C1590 1.378 . S
C1592 C1593 1.367 . S
C1593 C1592 1.367 . S
C1593 C1595 1.433 . S
C1594 C1590 1.350 . S
C1594 C1591 1.463 . S
C1594 N1598 1.427 . S
C1595 H1585 0.929 1_556 S
C1595 C1593 1.433 . S
C1595 N1598 1.384 . S
C1596 H1587 0.929 . S
C1596 C1588 1.378 . S
C1596 C1591 1.350 . S
C1597 H1584 0.929 . S
C1597 C1589 1.433 . S
C1597 N1599 1.384 . S
N1598 C1594 1.427 . S
N1598 C1595 1.384 . S
N1599 C1591 1.427 . S
N1599 C1597 1.384 . S
C455 C121 1.340 . S
C459 C9 1.340 . S
C473 C23 1.325 . S
C477 C359 1.325 . S
C491 C37 1.342 . S
C495 C149 1.342 . S
C509 C51 1.329 . S
C513 C387 1.329 . S
C527 C65 1.340 . S
C531 C177 1.340 . S
C545 C415 1.342 . S
C549 C79 1.342 . S
C563 C205 1.342 . S
C567 C93 1.342 . S
C581 C443 1.338 . S
C585 C107 1.338 . S
C599 C247 1.343 . S
C603 C135 1.343 . S
C617 C163 1.342 . S
C621 C275 1.342 . S
C635 C191 1.343 . S
C639 C303 1.343 . S
C653 C331 1.334 . S
C657 C219 1.334 . S
C671 C345 1.342 . S
C675 C233 1.342 . S
C689 C261 1.342 . S
C693 C373 1.342 . S
C707 C289 1.346 . S
C711 C401 1.346 . S
C725 C429 1.341 . S
C729 C317 1.341 . S
C743 C7 1.226 . S
C747 C63 1.220 . S
C761 C77 1.218 . S
C765 C21 1.224 . S
C779 C91 1.214 . S
C783 C35 1.214 . S
C797 C49 1.215 . S
C801 C105 1.214 . S
C815 C119 1.219 . S
C819 C175 1.214 . S
C833 C133 1.221 . S
C837 C189 1.215 . S
C851 C203 1.227 . S
C855 C147 1.223 . S
C869 C217 1.216 . S
C873 C161 1.214 . S
C887 C287 1.221 . S
C891 C231 1.226 . S
C905 C301 1.225 . S
C909 C245 1.220 . S
C923 C259 1.221 . S
C927 C315 1.226 . S
C941 C329 1.226 . S
C945 C273 1.223 . S
C959 C399 1.213 . S
C963 C343 1.217 . S
C977 C357 1.216 . S
C981 C413 1.213 . S
C995 C427 1.226 . S
C999 C371 1.220 . S
C1013 C441 1.219 . S
C1017 C385 1.214 . S
C1031 C64 1.058 . S
C1035 C8 1.057 . S
C1049 C78 1.056 . S
C1053 C22 1.057 . S
C1067 C36 1.063 . S
C1071 C92 1.061 . S
C1085 C106 1.056 . S
C1089 C50 1.057 . S
C1103 C176 1.077 . S
C1107 C120 1.077 . S
C1121 C134 1.063 . S
C1125 C190 1.061 . S
C1139 C204 1.077 . S
C1143 C148 1.077 . S
C1157 C218 1.068 . S
C1161 C162 1.066 . S
C1175 C232 1.058 . S
C1179 C288 1.057 . S
C1193 C302 1.077 . S
C1197 C246 1.076 . S
C1211 C316 1.056 . S
C1215 C260 1.056 . S
C1229 C330 1.059 . S
C1233 C274 1.060 . S
C1247 C400 1.075 . S
C1251 C344 1.074 . S
C1265 C358 1.072 . S
C1269 C414 1.074 . S
C1283 C372 1.058 . S
C1287 C428 1.059 . S
C1301 C386 1.059 . S
C1305 C442 1.057 . S
C1319 C6 1.403 . S
C1323 C300 1.409 . S
C1337 C314 1.399 . S
C1341 C20 1.399 . S
C1355 C34 1.410 . S
C1359 C328 1.413 . S
C1373 C48 1.399 . S
C1377 C286 1.400 . S
C1391 C272 1.413 . S
C1395 C62 1.409 . S
C1409 C230 1.407 . S
C1413 C76 1.412 . S
C1427 C244 1.409 . S
C1431 C90 1.412 . S
C1445 C104 1.399 . S
C1449 C258 1.401 . S
C1463 C118 1.410 . S
C1467 C412 1.413 . S
C1481 C426 1.403 . S
C1485 C132 1.399 . S
C1499 C440 1.401 . S
C1503 C146 1.399 . S
C1517 C398 1.401 . S
C1521 C160 1.407 . S
C1535 C384 1.404 . S
C1539 C174 1.410 . S
C1553 C342 1.399 . S
C1557 C188 1.404 . S
C1571 C202 1.407 . S
C1575 C356 1.402 . S
C1589 C216 1.402 . S
C1593 C370 1.399 . S
