# Generated by pormake.
# Topology uog, (4)-cn, num edge types: 1
# Building blocks:
#     Node 0, Type 0, BuildingBlock: MUDLON_clean_sbu_0, # of connection points: 4
#     Node 1, Type 0, BuildingBlock: MUDLON_clean_sbu_0, # of connection points: 4
#     Node 2, Type 0, BuildingBlock: MUDLON_clean_sbu_0, # of connection points: 4
#     Node 3, Type 0, BuildingBlock: MUDLON_clean_sbu_0, # of connection points: 4
#     Node 4, Type 0, BuildingBlock: MUDLON_clean_sbu_0, # of connection points: 4
#     Node 5, Type 0, BuildingBlock: MUDLON_clean_sbu_0, # of connection points: 4
#     Edge 6, Type (0, 0), BuildingBlock: TEMPAE_clean_linker_10, # of connection points: 2
#     Edge 7, Type (0, 0), BuildingBlock: TEMPAE_clean_linker_10, # of connection points: 2
#     Edge 8, Type (0, 0), BuildingBlock: TEMPAE_clean_linker_10, # of connection points: 2
#     Edge 9, Type (0, 0), BuildingBlock: TEMPAE_clean_linker_10, # of connection points: 2
#     Edge 10, Type (0, 0), BuildingBlock: TEMPAE_clean_linker_10, # of connection points: 2
#     Edge 11, Type (0, 0), BuildingBlock: TEMPAE_clean_linker_10, # of connection points: 2
#     Edge 12, Type (0, 0), BuildingBlock: TEMPAE_clean_linker_10, # of connection points: 2
#     Edge 13, Type (0, 0), BuildingBlock: TEMPAE_clean_linker_10, # of connection points: 2
#     Edge 14, Type (0, 0), BuildingBlock: TEMPAE_clean_linker_10, # of connection points: 2
#     Edge 15, Type (0, 0), BuildingBlock: TEMPAE_clean_linker_10, # of connection points: 2
#     Edge 16, Type (0, 0), BuildingBlock: TEMPAE_clean_linker_10, # of connection points: 2
#     Edge 17, Type (0, 0), BuildingBlock: TEMPAE_clean_linker_10, # of connection points: 2
# Relax obj value: 0.035
# Max RMSD: 0.253
# Mean RMSD: 0.253
data_MOF--net-uog--node1-MUDLON_clean_sbu_0--edge1-TEMPAE_clean_linker_10
_symmetry_space_group_name_H-M    P1
_symmetry_Int_Tables_number       1
_symmetry_cell_setting            triclinic
loop_
_symmetry_equiv_pos_as_xyz
'x, y, z'
_cell_length_a     30.203889
_cell_length_b     30.265529
_cell_length_c     45.540628
_cell_angle_alpha  89.922216
_cell_angle_beta   90.076407
_cell_angle_gamma 120.04914
loop_
_atom_site_label
_atom_site_type_symbol
_atom_site_fract_x
_atom_site_fract_y
_atom_site_fract_z
_atom_type_partial_charge
Mg0 Mg 0.61988 0.31595 0.18261 0.0
C1 C 0.66625 0.3098 0.12404 0.0
O2 O 0.64901 0.26237 0.13234 0.0
C3 C 0.66645 0.36796 0.24128 0.0
O4 O 0.64822 0.39756 0.23346 0.0
C5 C 0.59709 0.21042 0.19441 0.0
O6 O 0.6421 0.23873 0.20662 0.0
O7 O 0.57551 0.23244 0.18194 0.0
O8 O 0.66305 0.34066 0.14164 0.0
O9 O 0.57564 0.35523 0.1835 0.0
C10 C 0.59696 0.39867 0.17088 0.0
O11 O 0.64168 0.41514 0.15836 0.0
O12 O 0.66376 0.33454 0.22334 0.0
Mg13 Mg 0.29391 0.58979 0.5156 0.0
C14 C 0.30467 0.60383 0.45348 0.0
O15 O 0.27646 0.55457 0.45849 0.0
C16 C 0.29955 0.59747 0.57864 0.0
O17 O 0.27846 0.54871 0.57224 0.0
C18 C 0.37797 0.57041 0.5248 0.0
O19 O 0.39559 0.61815 0.53257 0.0
O20 O 0.33175 0.54448 0.5161 0.0
O21 O 0.32031 0.63392 0.47541 0.0
O22 O 0.21078 0.55161 0.51284 0.0
C23 C 0.19536 0.5837 0.51498 0.0
O24 O 0.22972 0.63203 0.51885 0.0
O25 O 0.31282 0.62928 0.55756 0.0
Mg26 Mg 0.70253 0.29077 0.8512 0.0
C27 C 0.69653 0.29447 0.78822 0.0
O28 O 0.71655 0.26568 0.79428 0.0
C29 C 0.7148 0.35501 0.90564 0.0
O30 O 0.75777 0.38764 0.89267 0.0
C31 C 0.81493 0.33404 0.87106 0.0
O32 O 0.7948 0.31541 0.89688 0.0
O33 O 0.78554 0.32547 0.84916 0.0
O34 O 0.68394 0.3131 0.80954 0.0
O35 O 0.65796 0.20758 0.85144 0.0
C36 C 0.6118 0.18976 0.84315 0.0
O37 O 0.59675 0.22197 0.83532 0.0
O38 O 0.68297 0.3149 0.89192 0.0
Mg39 Mg 0.43997 0.72605 0.18325 0.0
C40 C 0.42335 0.73032 0.12085 0.0
O41 O 0.47215 0.76294 0.12512 0.0
C42 C 0.42675 0.70951 0.24598 0.0
O43 O 0.47586 0.72833 0.24113 0.0
C44 C 0.45719 0.82915 0.19368 0.0
O45 O 0.40989 0.79879 0.20233 0.0
O46 O 0.48303 0.80923 0.18443 0.0
O47 O 0.39585 0.70651 0.1429 0.0
O48 O 0.48301 0.68592 0.18167 0.0
C49 C 0.45705 0.64013 0.17249 0.0
O50 O 0.40958 0.62311 0.1641 0.0
O51 O 0.39759 0.70241 0.22416 0.0
Mg52 Mg 0.71035 0.41852 0.51503 0.0
C53 C 0.72078 0.36863 0.45917 0.0
O54 O 0.76404 0.37834 0.47155 0.0
C55 C 0.71205 0.40475 0.5778 0.0
O56 O 0.74159 0.45386 0.57284 0.0
C57 C 0.62494 0.43695 0.52784 0.0
O58 O 0.60969 0.39201 0.53971 0.0
O59 O 0.66874 0.46022 0.51563 0.0
O60 O 0.68941 0.37653 0.47367 0.0
O61 O 0.79359 0.46448 0.51712 0.0
C62 C 0.82368 0.48705 0.49577 0.0
O63 O 0.80451 0.48856 0.47012 0.0
O64 O 0.69058 0.37537 0.55597 0.0
Mg65 Mg 0.28375 0.70485 0.85154 0.0
C66 C 0.27849 0.6857 0.78907 0.0
O67 O 0.24472 0.69996 0.79438 0.0
C68 C 0.29387 0.70271 0.91403 0.0
O69 O 0.26313 0.72084 0.90883 0.0
C70 C 0.18624 0.61066 0.85379 0.0
O71 O 0.22138 0.59742 0.85119 0.0
O72 O 0.20068 0.65807 0.85454 0.0
O73 O 0.30373 0.68246 0.81054 0.0
O74 O 0.31893 0.78785 0.84993 0.0
C75 C 0.36187 0.81034 0.83672 0.0
O76 O 0.37876 0.78246 0.82431 0.0
O77 O 0.31137 0.68999 0.89222 0.0
C78 C 0.59199 0.13119 0.21423 0.0
C79 C 0.57398 0.15415 0.19441 0.0
C80 C 0.5729 0.07835 0.21399 0.0
C81 C 0.5353 0.04758 0.19311 0.0
C82 C 0.51672 0.07041 0.17307 0.0
C83 C 0.53601 0.12346 0.1741 0.0
C84 C 0.59305 0.05548 0.23611 0.0
C85 C 0.47695 0.03888 0.15032 0.0
C86 C 0.52156 0.91771 0.17711 0.0
C87 C 0.47832 0.88516 0.19379 0.0
C88 C 0.53996 0.97058 0.17619 0.0
C89 C 0.515 0.9914 0.19271 0.0
C90 C 0.47164 0.9587 0.20979 0.0
C91 C 0.45366 0.90604 0.20996 0.0
C92 C 0.58602 1.00417 0.15749 0.0
C93 C 0.44447 0.9794 0.22814 0.0
H94 H 0.62112 0.1546 0.23012 0.0
H95 H 0.52222 0.14103 0.15859 0.0
H96 H 0.56103 0.02608 0.24939 0.0
H97 H 0.61105 0.0362 0.22459 0.0
H98 H 0.6217 0.0846 0.2512 0.0
H99 H 0.46692 0.06245 0.1361 0.0
H100 H 0.49123 0.01879 0.13624 0.0
H101 H 0.44167 0.00924 0.16124 0.0
H102 H 0.54052 0.90178 0.16437 0.0
H103 H 0.42031 0.88117 0.223 0.0
H104 H 0.61757 0.03239 0.17152 0.0
H105 H 0.57643 0.02596 0.1416 0.0
H106 H 0.59996 0.9819 0.14513 0.0
H107 H 0.47139 1.00714 0.24441 0.0
H108 H 0.4111 0.94882 0.24009 0.0
H109 H 0.43099 1.00015 0.21399 0.0
C110 C 0.40208 0.50554 0.50926 0.0
C111 C 0.41256 0.54892 0.52562 0.0
C112 C 0.43676 0.4873 0.50883 0.0
C113 C 0.48245 0.51254 0.52555 0.0
C114 C 0.49267 0.5558 0.54248 0.0
C115 C 0.45784 0.57363 0.54213 0.0
C116 C 0.42482 0.44136 0.49026 0.0
C117 C 0.54038 0.58325 0.56106 0.0
C118 C 0.54863 0.43868 0.54726 0.0
C119 C 0.59 0.45805 0.52767 0.0
C120 C 0.51347 0.45612 0.54681 0.0
C121 C 0.51924 0.4933 0.52592 0.0
C122 C 0.56093 0.51305 0.50604 0.0
C123 C 0.59613 0.49551 0.50733 0.0
C124 C 0.47025 0.4349 0.56881 0.0
C125 C 0.56807 0.55236 0.48326 0.0
H126 H 0.36735 0.48653 0.49629 0.0
H127 H 0.46609 0.60703 0.55498 0.0
H128 H 0.45608 0.45141 0.47421 0.0
H129 H 0.42251 0.41033 0.50432 0.0
H130 H 0.38821 0.42665 0.47809 0.0
H131 H 0.54233 0.61594 0.57327 0.0
H132 H 0.54179 0.55636 0.57711 0.0
H133 H 0.57485 0.5977 0.54699 0.0
H134 H 0.54379 0.40989 0.56315 0.0
H135 H 0.62778 0.51031 0.49198 0.0
H136 H 0.43294 0.41647 0.5572 0.0
H137 H 0.47211 0.46635 0.58224 0.0
H138 H 0.47136 0.40644 0.58376 0.0
H139 H 0.53336 0.53752 0.46932 0.0
H140 H 0.60163 0.56286 0.46891 0.0
H141 H 0.57326 0.58739 0.49418 0.0
C142 C 0.89123 0.39365 0.8409 0.0
C143 C 0.87038 0.37175 0.86829 0.0
C144 C 0.94237 0.43288 0.83828 0.0
C145 C 0.97362 0.45078 0.86363 0.0
C146 C 0.95313 0.42831 0.89127 0.0
C147 C 0.90182 0.38906 0.89326 0.0
C148 C 0.96282 0.45555 0.80838 0.0
C149 C 0.98528 0.44618 0.9188 0.0
C150 C 0.11777 0.51888 0.85349 0.0
C151 C 0.13156 0.57046 0.85607 0.0
C152 C 0.06666 0.47974 0.85591 0.0
C153 C 0.02807 0.49225 0.86111 0.0
C154 C 0.04157 0.54421 0.8637 0.0
C155 C 0.09318 0.58275 0.8611 0.0
C156 C 0.05396 0.42492 0.85288 0.0
C157 C 1.00147 0.55904 0.86927 0.0
H158 H 0.86732 0.38068 0.82146 0.0
H159 H 0.8861 0.37267 0.91453 0.0
H160 H 0.97622 0.49702 0.80859 0.0
H161 H 0.99625 0.45128 0.80286 0.0
H162 H 0.93363 0.43727 0.79081 0.0
H163 H 0.96369 0.42479 0.93859 0.0
H164 H 0.01932 0.44161 0.91637 0.0
H165 H 0.99939 0.48739 0.92233 0.0
H166 H 0.14703 0.50886 0.84954 0.0
H167 H 0.10346 0.62243 0.86316 0.0
H168 H 0.02678 0.4064 0.83446 0.0
H169 H 0.03493 0.40335 0.87313 0.0
H170 H 0.08845 0.4216 0.84884 0.0
H171 H 0.97275 0.54443 0.85133 0.0
H172 H 0.01815 0.60105 0.87084 0.0
H173 H 0.98087 0.54134 0.89 0.0
C174 C 0.10305 0.51827 0.50554 0.0
C175 C 0.14047 0.56843 0.51259 0.0
C176 C 0.05132 0.50465 0.5026 0.0
C177 C 0.03674 0.54203 0.50691 0.0
C178 C 0.07434 0.59256 0.51421 0.0
C179 C 0.12559 0.6051 0.51692 0.0
C180 C 0.01227 0.45035 0.49479 0.0
C181 C 0.06046 0.6335 0.51913 0.0
C182 C 0.91153 0.52147 0.47441 0.0
C183 C 0.87896 0.50419 0.49888 0.0
C184 C 0.96286 0.53363 0.47666 0.0
C185 C 0.98217 0.52849 0.50403 0.0
C186 C 0.9497 0.51173 0.52889 0.0
C187 C 0.89859 0.49984 0.52603 0.0
C188 C 0.99635 0.55163 0.44967 0.0
C189 C 0.96885 0.50602 0.55851 0.0
H190 H 0.11419 0.48975 0.50211 0.0
H191 H 0.15411 0.64397 0.52244 0.0
H192 H 0.98258 0.43364 0.51214 0.0
H193 H 0.99267 0.44967 0.47403 0.0
H194 H 0.02972 0.42585 0.49213 0.0
H195 H 0.09427 0.67098 0.52472 0.0
H196 H 0.04225 0.6382 0.49911 0.0
H197 H 0.03222 0.62208 0.53721 0.0
H198 H 0.89673 0.52472 0.45332 0.0
H199 H 0.8738 0.48644 0.54508 0.0
H200 H 1.01142 0.52563 0.445 0.0
H201 H 0.02975 0.59016 0.45358 0.0
H202 H 0.97549 0.55331 0.42998 0.0
H203 H 0.98311 0.4787 0.55695 0.0
H204 H 0.93867 0.49229 0.57564 0.0
H205 H 1.00144 0.54319 0.56563 0.0
C206 C 0.4345 0.89029 0.81635 0.0
C207 C 0.39497 0.86662 0.83701 0.0
C208 C 0.46925 0.94293 0.81739 0.0
C209 C 0.46497 0.97268 0.83995 0.0
C210 C 0.42478 0.94916 0.86072 0.0
C211 C 0.38993 0.8964 0.85885 0.0
C212 C 0.51083 0.96661 0.79445 0.0
C213 C 0.41929 0.97955 0.88525 0.0
C214 C 0.58505 0.09933 0.85702 0.0
C215 C 0.57487 0.13411 0.84243 0.0
C216 C 0.54917 0.04674 0.85692 0.0
C217 C 0.5024 0.02849 0.84149 0.0
C218 C 0.49216 0.06345 0.82659 0.0
C219 C 0.5283 0.11575 0.8274 0.0
C220 C 0.56127 0.01067 0.87331 0.0
C221 C 0.44325 0.04555 0.80945 0.0
H222 H 0.43847 0.86752 0.79932 0.0
H223 H 0.35975 0.87822 0.87503 0.0
H224 H 0.50877 0.99787 0.78294 0.0
H225 H 0.54892 0.98369 0.80512 0.0
H226 H 0.50801 0.93841 0.77788 0.0
H227 H 0.38601 0.95563 0.89963 0.0
H228 H 0.45448 0.99727 0.89889 0.0
H229 H 0.41472 0.01099 0.87606 0.0
H230 H 0.62079 0.11326 0.86882 0.0
H231 H 0.52017 0.14231 0.81594 0.0
H232 H 0.56279 0.98331 0.85774 0.0
H233 H 0.53053 0.98803 0.88939 0.0
H234 H 0.59834 0.03106 0.88518 0.0
H235 H 0.44046 0.01898 0.79183 0.0
H236 H 0.44089 0.07769 0.79927 0.0
H237 H 0.40972 0.02421 0.82404 0.0
C238 C 0.52184 0.61612 0.1886 0.0
C239 C 0.47821 0.60525 0.17222 0.0
C240 C 0.54028 0.58167 0.1894 0.0
C241 C 0.51494 0.5357 0.17305 0.0
C242 C 0.47119 0.52486 0.15626 0.0
C243 C 0.4532 0.55955 0.15621 0.0
C244 C 0.58677 0.59434 0.20779 0.0
C245 C 0.4436 0.47679 0.1381 0.0
C246 C 0.59144 0.47258 0.15106 0.0
C247 C 0.57388 0.43187 0.17102 0.0
C248 C 0.57236 0.50635 0.15141 0.0
C249 C 0.53523 0.4998 0.17253 0.0
C250 C 0.51711 0.45865 0.19271 0.0
C251 C 0.53638 0.42487 0.19157 0.0
C252 C 0.59199 0.54907 0.12914 0.0
C253 C 0.47786 0.45071 0.21572 0.0
H254 H 0.54108 0.65115 0.20121 0.0
H255 H 0.41954 0.55092 0.1434 0.0
H256 H 0.57755 0.56317 0.22375 0.0
H257 H 0.61798 0.59746 0.19355 0.0
H258 H 0.60101 0.6307 0.22003 0.0
H259 H 0.40998 0.47389 0.12637 0.0
H260 H 0.47015 0.47575 0.12166 0.0
H261 H 0.43044 0.44274 0.15236 0.0
H262 H 0.62021 0.47808 0.13498 0.0
H263 H 0.52294 0.39371 0.20718 0.0
H264 H 0.61026 0.58648 0.14052 0.0
H265 H 0.55967 0.5463 0.11606 0.0
H266 H 0.6203 0.5484 0.11387 0.0
H267 H 0.49246 0.48525 0.22969 0.0
H268 H 0.46816 0.4173 0.23001 0.0
H269 H 0.44234 0.44496 0.20503 0.0
C270 C 0.66088 0.32824 0.95108 0.0
C271 C 0.70858 0.35861 0.9377 0.0
C272 C 0.65598 0.32542 0.9818 0.0
C273 C 0.69999 0.35292 0.99961 0.0
C274 C 0.7479 0.38521 0.98623 0.0
C275 C 0.75154 0.388 0.95545 0.0
C276 C 0.60399 0.29135 0.99519 0.0
C277 C 0.79582 0.4147 1.00438 0.0
C278 C 0.67945 0.36649 0.08083 0.0
C279 C 0.68102 0.32462 0.09297 0.0
C280 C 0.68651 0.37685 0.05056 0.0
C281 C 0.69626 0.34513 0.03206 0.0
C282 C 0.70022 0.30424 0.04443 0.0
C283 C 0.6921 0.29422 0.07466 0.0
C284 C 0.68135 0.42038 0.03822 0.0
C285 C 0.71156 0.27009 0.02557 0.0
H286 H 0.6275 0.30557 0.93752 0.0
H287 H 0.78866 0.41127 0.94532 0.0
H288 H 0.60366 0.25858 1.00635 0.0
H289 H 0.59556 0.31255 1.01204 0.0
H290 H 0.573 0.27628 0.97849 0.0
H291 H 0.82931 0.44107 0.9908 0.0
H292 H 0.78997 0.43715 0.02159 0.0
H293 H 0.80478 0.38763 1.01572 0.0
H294 H 0.6705 0.38998 0.09477 0.0
H295 H 0.69357 0.26195 0.0839 0.0
H296 H 0.64763 0.40507 0.02343 0.0
H297 H 0.71542 0.44599 0.02488 0.0
H298 H 0.67665 0.44327 0.0557 0.0
H299 H 0.67956 0.24855 1.00999 0.0
H300 H 0.71703 0.24234 0.03881 0.0
H301 H 0.74654 0.29339 1.01233 0.0
C302 C 0.358 0.68853 0.28344 0.0
C303 C 0.40681 0.69698 0.27634 0.0
C304 C 0.33951 0.67688 0.31239 0.0
C305 C 0.37026 0.67279 0.33454 0.0
C306 C 0.41966 0.68167 0.32748 0.0
C307 C 0.43742 0.69399 0.29855 0.0
C308 C 0.28687 0.66827 0.31922 0.0
C309 C 0.45332 0.6768 0.35032 0.0
C310 C 0.34453 0.6746 0.41622 0.0
C311 C 0.31922 0.62237 0.42295 0.0
C312 C 0.35965 0.69167 0.38724 0.0
C313 C 0.34981 0.65567 0.36468 0.0
C314 C 0.32344 0.60293 0.37132 0.0
C315 C 0.30824 0.58697 0.40028 0.0
C316 C 0.38711 0.7482 0.38086 0.0
C317 C 0.31279 0.5633 0.34802 0.0
H318 H 0.33437 0.69126 0.26641 0.0
H319 H 0.47516 0.70037 0.29324 0.0
H320 H 0.26143 0.62806 0.326 0.0
H321 H 0.28885 0.69278 0.33785 0.0
H322 H 0.26933 0.67653 0.30007 0.0
H323 H 0.49139 0.68653 0.34144 0.0
H324 H 0.45904 0.70221 0.36921 0.0
H325 H 0.43439 0.6371 0.35881 0.0
H326 H 0.3528 0.70212 0.43359 0.0
H327 H 0.28869 0.5465 0.40522 0.0
H328 H 0.36835 0.75633 0.36234 0.0
H329 H 0.42706 0.76115 0.37413 0.0
H330 H 0.38794 0.77089 0.40023 0.0
H331 H 0.29183 0.56791 0.32935 0.0
H332 H 0.28998 0.52371 0.35656 0.0
H333 H 0.34944 0.56863 0.33929 0.0
C334 C 0.71389 0.29154 0.73494 0.0
C335 C 0.69175 0.30632 0.75714 0.0
C336 C 0.71284 0.30448 0.70549 0.0
C337 C 0.68849 0.33244 0.69784 0.0
C338 C 0.66437 0.34592 0.71994 0.0
C339 C 0.66659 0.333 0.74941 0.0
C340 C 0.73968 0.28997 0.68274 0.0
C341 C 0.63746 0.37517 0.71255 0.0
C342 C 0.73991 0.41582 0.63004 0.0
C343 C 0.70493 0.38539 0.60832 0.0
C344 C 0.73447 0.39925 0.65924 0.0
C345 C 0.69248 0.35128 0.66716 0.0
C346 C 0.65646 0.32059 0.64546 0.0
C347 C 0.66338 0.33781 0.61617 0.0
C348 C 0.77436 0.43274 0.68151 0.0
C349 C 0.61084 0.26954 0.65318 0.0
H350 H 0.73339 0.27086 0.74063 0.0
H351 H 0.64907 0.34422 0.76639 0.0
H352 H 0.7133 0.269 0.66439 0.0
H353 H 0.77234 0.32501 0.67338 0.0
H354 H 0.75441 0.26584 0.69202 0.0
H355 H 0.61636 0.37833 0.73164 0.0
H356 H 0.66585 0.41421 0.70512 0.0
H357 H 0.61014 0.35635 0.69421 0.0
H358 H 0.77226 0.45256 0.62414 0.0
H359 H 0.63599 0.31436 0.59952 0.0
H360 H 0.79318 0.41234 0.69075 0.0
H361 H 0.75605 0.44134 0.70002 0.0
H362 H 0.80427 0.46937 0.67187 0.0
H363 H 0.62388 0.24322 0.66102 0.0
H364 H 0.58478 0.25165 0.63418 0.0
H365 H 0.589 0.27406 0.67136 0.0
C366 C 0.29491 0.72184 0.96731 0.0
C367 C 0.30919 0.70017 0.94462 0.0
C368 C 0.31101 0.72278 0.99627 0.0
C369 C 0.34176 0.701 1.00289 0.0
C370 C 0.35492 0.67745 0.98032 0.0
C371 C 0.33873 0.67759 0.95136 0.0
C372 C 0.29664 0.74883 0.01959 0.0
C373 C 0.38717 0.6533 0.98666 0.0
C374 C 0.42973 0.75702 0.06857 0.0
C375 C 0.40196 0.72184 0.0908 0.0
C376 C 0.41084 0.75018 0.03983 0.0
C377 C 0.36327 0.70665 0.03296 0.0
C378 C 0.33533 0.67047 0.05517 0.0
C379 C 0.35484 0.67872 0.08395 0.0
C380 C 0.4414 0.79015 0.01693 0.0
C381 C 0.28476 0.62331 0.04855 0.0
H382 H 0.27203 0.73935 0.96237 0.0
H383 H 0.34961 0.66047 0.93399 0.0
H384 H 0.27792 0.72265 0.03838 0.0
H385 H 0.33167 0.78257 0.02814 0.0
H386 H 0.27043 0.76168 1.01113 0.0
H387 H 0.39025 0.63266 0.96733 0.0
H388 H 0.42623 0.6832 0.99322 0.0
H389 H 0.37074 0.62616 1.00528 0.0
H390 H 0.46611 0.79054 0.07372 0.0
H391 H 0.33345 0.65118 0.101 0.0
H392 H 0.41878 0.80719 1.00849 0.0
H393 H 0.44967 0.77239 0.99801 0.0
H394 H 0.4782 0.82127 0.02572 0.0
H395 H 0.25643 0.63439 0.04162 0.0
H396 H 0.26922 0.59745 0.06782 0.0
H397 H 0.28916 0.60198 0.03005 0.0
C398 C 0.66548 0.34254 0.41422 0.0
C399 C 0.71358 0.35964 0.42706 0.0
C400 C 0.65961 0.34089 0.38356 0.0
C401 C 0.70306 0.35767 0.36527 0.0
C402 C 0.75141 0.37321 0.37808 0.0
C403 C 0.756 0.37357 0.4088 0.0
C404 C 0.60718 0.32301 0.37077 0.0
C405 C 0.79877 0.392 0.35941 0.0
C406 C 0.68062 0.32419 0.284 0.0
C407 C 0.68175 0.36765 0.27222 0.0
C408 C 0.68829 0.32064 0.31416 0.0
C409 C 0.69829 0.36191 0.33292 0.0
C410 C 0.70174 0.40675 0.32091 0.0
C411 C 0.69295 0.40888 0.29077 0.0
C412 C 0.68359 0.27193 0.32614 0.0
C413 C 0.71335 0.45202 0.34004 0.0
H414 H 0.63252 0.33155 0.42818 0.0
H415 H 0.79343 0.38726 0.41851 0.0
H416 H 0.60642 0.35548 0.35995 0.0
H417 H 0.59826 0.29351 0.35374 0.0
H418 H 0.57673 0.30693 0.38776 0.0
H419 H 0.8328 0.39937 0.37257 0.0
H420 H 0.79257 0.36376 0.34208 0.0
H421 H 0.80706 0.42793 0.34822 0.0
H422 H 0.67154 0.29195 0.26987 0.0
H423 H 0.69405 0.44262 0.28181 0.0
H424 H 0.65043 0.25349 0.34129 0.0
H425 H 0.71815 0.28036 0.33901 0.0
H426 H 0.67827 0.24439 0.30848 0.0
H427 H 0.68176 0.44131 0.35593 0.0
H428 H 0.71825 0.48526 0.32703 0.0
H429 H 0.74873 0.46377 0.35292 0.0
C430 C 0.33059 0.67272 0.75066 0.0
C431 C 0.28676 0.67472 0.75854 0.0
C432 C 0.3386 0.6635 0.72141 0.0
C433 C 0.30151 0.65534 0.69977 0.0
C434 C 0.25729 0.65738 0.70768 0.0
C435 C 0.25065 0.66735 0.73688 0.0
C436 C 0.3865 0.66219 0.71368 0.0
C437 C 0.21638 0.64806 0.6854 0.0
C438 C 0.32719 0.66517 0.61757 0.0
C439 C 0.30465 0.61354 0.60977 0.0
C440 C 0.32879 0.67968 0.64707 0.0
C441 C 0.3069 0.64162 0.66913 0.0
C442 C 0.2857 0.58964 0.66145 0.0
C443 C 0.28505 0.57629 0.63195 0.0
C444 C 0.3523 0.73556 0.65451 0.0
C445 C 0.26154 0.54781 0.68422 0.0
H446 H 0.35884 0.67886 0.76727 0.0
H447 H 0.2166 0.66871 0.7428 0.0
H448 H 0.37628 0.62353 0.70585 0.0
H449 H 0.40697 0.68925 0.69549 0.0
H450 H 0.41293 0.67211 0.73267 0.0
H451 H 0.18476 0.65203 0.69502 0.0
H452 H 0.23319 0.67533 0.66688 0.0
H453 H 0.20007 0.60904 0.67619 0.0
H454 H 0.34276 0.69418 0.6006 0.0
H455 H 0.26778 0.53628 0.62621 0.0
H456 H 0.37975 0.7457 0.67295 0.0
H457 H 0.32195 0.74354 0.66177 0.0
H458 H 0.37249 0.76056 0.63546 0.0
H459 H 0.28853 0.55532 0.7026 0.0
H460 H 0.24979 0.50955 0.67495 0.0
H461 H 0.22723 0.54704 0.69355 0.0
loop_
_geom_bond_atom_site_label_1
_geom_bond_atom_site_label_2
_geom_bond_distance
_geom_bond_site_symmetry_2
_ccdc_geom_bond_type
Mg0 O7 2.141 . S
Mg0 O8 2.048 . S
Mg0 O9 2.048 . S
Mg0 O12 2.141 . S
C1 O2 1.313 . S
C1 O8 1.195 . S
O2 C1 1.313 . S
C3 O4 1.245 . S
C3 O12 1.289 . S
O4 C3 1.245 . S
C5 O6 1.245 . S
C5 O7 1.289 . S
O6 C5 1.245 . S
O7 Mg0 2.141 . S
O7 C5 1.289 . S
O8 Mg0 2.048 . S
O8 C1 1.195 . S
O9 Mg0 2.048 . S
O9 C10 1.195 . S
C10 O9 1.195 . S
C10 O11 1.313 . S
O11 C10 1.313 . S
O12 Mg0 2.141 . S
O12 C3 1.289 . S
Mg13 O20 2.141 . S
Mg13 O21 2.048 . S
Mg13 O22 2.048 . S
Mg13 O25 2.141 . S
C14 O15 1.313 . S
C14 O21 1.195 . S
O15 C14 1.313 . S
C16 O17 1.245 . S
C16 O25 1.289 . S
O17 C16 1.245 . S
C18 O19 1.245 . S
C18 O20 1.289 . S
O19 C18 1.245 . S
O20 Mg13 2.141 . S
O20 C18 1.289 . S
O21 Mg13 2.048 . S
O21 C14 1.195 . S
O22 Mg13 2.048 . S
O22 C23 1.195 . S
C23 O22 1.195 . S
C23 O24 1.313 . S
O24 C23 1.313 . S
O25 Mg13 2.141 . S
O25 C16 1.289 . S
Mg26 O33 2.141 . S
Mg26 O34 2.048 . S
Mg26 O35 2.048 . S
Mg26 O38 2.141 . S
C27 O28 1.313 . S
C27 O34 1.195 . S
O28 C27 1.313 . S
C29 O30 1.245 . S
C29 O38 1.289 . S
O30 C29 1.245 . S
C31 O32 1.245 . S
C31 O33 1.289 . S
O32 C31 1.245 . S
O33 Mg26 2.141 . S
O33 C31 1.289 . S
O34 Mg26 2.048 . S
O34 C27 1.195 . S
O35 Mg26 2.048 . S
O35 C36 1.195 . S
C36 O35 1.195 . S
C36 O37 1.313 . S
O37 C36 1.313 . S
O38 Mg26 2.141 . S
O38 C29 1.289 . S
Mg39 O46 2.141 . S
Mg39 O47 2.048 . S
Mg39 O48 2.048 . S
Mg39 O51 2.141 . S
C40 O41 1.313 . S
C40 O47 1.195 . S
O41 C40 1.313 . S
C42 O43 1.245 . S
C42 O51 1.289 . S
O43 C42 1.245 . S
C44 O45 1.245 . S
C44 O46 1.289 . S
O45 C44 1.245 . S
O46 Mg39 2.141 . S
O46 C44 1.289 . S
O47 Mg39 2.048 . S
O47 C40 1.195 . S
O48 Mg39 2.048 . S
O48 C49 1.195 . S
C49 O48 1.195 . S
C49 O50 1.313 . S
O50 C49 1.313 . S
O51 Mg39 2.141 . S
O51 C42 1.289 . S
Mg52 O59 2.141 . S
Mg52 O60 2.048 . S
Mg52 O61 2.048 . S
Mg52 O64 2.141 . S
C53 O54 1.313 . S
C53 O60 1.195 . S
O54 C53 1.313 . S
C55 O56 1.245 . S
C55 O64 1.289 . S
O56 C55 1.245 . S
C57 O58 1.245 . S
C57 O59 1.289 . S
O58 C57 1.245 . S
O59 Mg52 2.141 . S
O59 C57 1.289 . S
O60 Mg52 2.048 . S
O60 C53 1.195 . S
O61 Mg52 2.048 . S
O61 C62 1.195 . S
C62 O61 1.195 . S
C62 O63 1.313 . S
O63 C62 1.313 . S
O64 Mg52 2.141 . S
O64 C55 1.289 . S
Mg65 O72 2.141 . S
Mg65 O73 2.048 . S
Mg65 O74 2.048 . S
Mg65 O77 2.141 . S
C66 O67 1.313 . S
C66 O73 1.195 . S
O67 C66 1.313 . S
C68 O69 1.245 . S
C68 O77 1.289 . S
O69 C68 1.245 . S
C70 O71 1.245 . S
C70 O72 1.289 . S
O71 C70 1.245 . S
O72 Mg65 2.141 . S
O72 C70 1.289 . S
O73 Mg65 2.048 . S
O73 C66 1.195 . S
O74 Mg65 2.048 . S
O74 C75 1.195 . S
C75 O74 1.195 . S
C75 O76 1.313 . S
O76 C75 1.313 . S
O77 Mg65 2.141 . S
O77 C68 1.289 . S
C78 C79 1.391 . S
C78 C80 1.394 . S
C78 H94 0.931 . S
C79 C78 1.391 . S
C79 C83 1.376 . S
C80 C78 1.394 . S
C80 C81 1.369 . S
C80 C84 1.531 . S
C81 C80 1.369 . S
C81 C82 1.410 . S
C81 C89 1.503 1_545 S
C82 C81 1.410 . S
C82 C83 1.392 . S
C82 C85 1.511 . S
C83 C79 1.376 . S
C83 C82 1.392 . S
C83 H95 0.929 . S
C84 C80 1.531 . S
C84 H96 0.960 1_545 S
C84 H97 0.962 . S
C84 H98 0.960 . S
C85 C82 1.511 . S
C85 H99 0.961 . S
C85 H100 0.961 1_545 S
C85 H101 0.961 . S
C86 C87 1.370 . S
C86 C88 1.363 . S
C86 H102 0.931 . S
C87 C86 1.370 . S
C87 C91 1.408 . S
C88 C86 1.363 . S
C88 C89 1.370 . S
C88 C92 1.524 . S
C89 C81 1.503 1_565 S
C89 C88 1.370 . S
C89 C90 1.403 . S
C90 C89 1.403 . S
C90 C91 1.404 . S
C90 C93 1.539 . S
C91 C87 1.408 . S
C91 C90 1.404 . S
C91 H103 0.930 . S
C92 C88 1.524 . S
C92 H104 0.956 . S
C92 H105 0.962 1_565 S
C92 H106 0.961 . S
C93 C90 1.539 . S
C93 H107 0.958 . S
C93 H108 0.961 . S
C93 H109 0.960 1_565 S
H94 C78 0.931 . S
H95 C83 0.929 . S
H96 C84 0.960 1_565 S
H97 C84 0.962 . S
H98 C84 0.960 . S
H99 C85 0.961 . S
H100 C85 0.961 1_565 S
H101 C85 0.961 . S
H102 C86 0.931 . S
H103 C91 0.930 . S
H104 C92 0.956 . S
H105 C92 0.962 1_545 S
H106 C92 0.961 . S
H107 C93 0.958 . S
H108 C93 0.961 . S
H109 C93 0.960 1_545 S
C110 C111 1.391 . S
C110 C112 1.394 . S
C110 H126 0.931 . S
C111 C110 1.391 . S
C111 C115 1.376 . S
C112 C110 1.394 . S
C112 C113 1.369 . S
C112 C116 1.531 . S
C113 C112 1.369 . S
C113 C114 1.410 . S
C113 C121 1.503 . S
C114 C113 1.410 . S
C114 C115 1.392 . S
C114 C117 1.511 . S
C115 C111 1.376 . S
C115 C114 1.392 . S
C115 H127 0.929 . S
C116 C112 1.531 . S
C116 H128 0.960 . S
C116 H129 0.962 . S
C116 H130 0.960 . S
C117 C114 1.511 . S
C117 H131 0.961 . S
C117 H132 0.961 . S
C117 H133 0.961 . S
C118 C119 1.370 . S
C118 C120 1.363 . S
C118 H134 0.931 . S
C119 C118 1.370 . S
C119 C123 1.408 . S
C120 C118 1.363 . S
C120 C121 1.370 . S
C120 C124 1.524 . S
C121 C113 1.503 . S
C121 C120 1.370 . S
C121 C122 1.403 . S
C122 C121 1.403 . S
C122 C123 1.404 . S
C122 C125 1.539 . S
C123 C119 1.408 . S
C123 C122 1.404 . S
C123 H135 0.930 . S
C124 C120 1.524 . S
C124 H136 0.956 . S
C124 H137 0.961 . S
C124 H138 0.961 . S
C125 C122 1.539 . S
C125 H139 0.958 . S
C125 H140 0.961 . S
C125 H141 0.960 . S
H126 C110 0.931 . S
H127 C115 0.929 . S
H128 C116 0.960 . S
H129 C116 0.962 . S
H130 C116 0.960 . S
H131 C117 0.961 . S
H132 C117 0.961 . S
H133 C117 0.961 . S
H134 C118 0.931 . S
H135 C123 0.930 . S
H136 C124 0.956 . S
H137 C124 0.961 . S
H138 C124 0.961 . S
H139 C125 0.958 . S
H140 C125 0.961 . S
H141 C125 0.960 . S
C142 C143 1.391 . S
C142 C144 1.394 . S
C142 H158 0.931 . S
C143 C142 1.391 . S
C143 C147 1.376 . S
C144 C142 1.394 . S
C144 C145 1.369 . S
C144 C148 1.531 . S
C145 C144 1.369 . S
C145 C146 1.410 . S
C145 C153 1.503 1_655 S
C146 C145 1.410 . S
C146 C147 1.392 . S
C146 C149 1.511 . S
C147 C143 1.376 . S
C147 C146 1.392 . S
C147 H159 0.929 . S
C148 C144 1.531 . S
C148 H160 0.960 1_655 S
C148 H161 0.962 . S
C148 H162 0.960 . S
C149 C146 1.511 . S
C149 H163 0.961 . S
C149 H164 0.961 1_655 S
C149 H165 0.961 . S
C150 C151 1.370 . S
C150 C152 1.363 . S
C150 H166 0.931 . S
C151 C150 1.370 . S
C151 C155 1.408 . S
C152 C150 1.363 . S
C152 C153 1.370 . S
C152 C156 1.524 . S
C153 C145 1.503 1_455 S
C153 C152 1.370 . S
C153 C154 1.403 . S
C154 C153 1.403 . S
C154 C155 1.404 . S
C154 C157 1.539 . S
C155 C151 1.408 . S
C155 C154 1.404 . S
C155 H167 0.930 . S
C156 C152 1.524 . S
C156 H168 0.956 1_455 S
C156 H169 0.961 1_455 S
C156 H170 0.961 . S
C157 C154 1.539 . S
C157 H171 0.958 . S
C157 H172 0.961 . S
C157 H173 0.960 . S
H158 C142 0.931 . S
H159 C147 0.929 . S
H160 C148 0.960 1_455 S
H161 C148 0.962 . S
H162 C148 0.960 . S
H163 C149 0.961 . S
H164 C149 0.961 1_455 S
H165 C149 0.961 . S
H166 C150 0.931 . S
H167 C155 0.930 . S
H168 C156 0.956 1_655 S
H169 C156 0.961 1_655 S
H170 C156 0.961 . S
H171 C157 0.958 . S
H172 C157 0.961 . S
H173 C157 0.960 . S
C174 C175 1.391 . S
C174 C176 1.394 . S
C174 H190 0.931 . S
C175 C174 1.391 . S
C175 C179 1.376 . S
C176 C174 1.394 . S
C176 C177 1.369 . S
C176 C180 1.531 . S
C177 C176 1.369 . S
C177 C178 1.410 . S
C177 C185 1.503 1_455 S
C178 C177 1.410 . S
C178 C179 1.392 . S
C178 C181 1.511 . S
C179 C175 1.376 . S
C179 C178 1.392 . S
C179 H191 0.929 . S
C180 C176 1.531 . S
C180 H192 0.944 1_455 S
C180 H193 0.962 . S
C180 H194 0.960 . S
C181 C178 1.511 . S
C181 H195 0.961 . S
C181 H196 0.961 1_455 S
C181 H197 0.961 . S
C182 C183 1.370 . S
C182 C184 1.363 . S
C182 H198 0.931 . S
C183 C182 1.370 . S
C183 C187 1.408 . S
C184 C182 1.363 . S
C184 C185 1.370 . S
C184 C188 1.524 . S
C185 C177 1.503 1_655 S
C185 C184 1.370 . S
C185 C186 1.403 . S
C186 C185 1.403 . S
C186 C187 1.404 . S
C186 C189 1.539 . S
C187 C183 1.408 . S
C187 C186 1.404 . S
C187 H199 0.930 . S
C188 C184 1.524 . S
C188 H200 0.953 . S
C188 H201 0.961 1_655 S
C188 H202 0.961 . S
C189 C186 1.539 . S
C189 H203 0.958 . S
C189 H204 0.961 . S
C189 H205 0.960 . S
H190 C174 0.931 . S
H191 C179 0.929 . S
H192 C180 0.944 1_655 S
H193 C180 0.962 . S
H194 C180 0.960 . S
H195 C181 0.961 . S
H196 C181 0.961 1_655 S
H197 C181 0.961 . S
H198 C182 0.931 . S
H199 C187 0.930 . S
H200 C188 0.953 . S
H201 C188 0.961 1_455 S
H202 C188 0.961 . S
H203 C189 0.958 . S
H204 C189 0.961 . S
H205 C189 0.960 . S
C206 C207 1.391 . S
C206 C208 1.394 . S
C206 H222 0.931 . S
C207 C206 1.391 . S
C207 C211 1.376 . S
C208 C206 1.394 . S
C208 C209 1.369 . S
C208 C212 1.531 . S
C209 C208 1.369 . S
C209 C210 1.410 . S
C209 C217 1.503 1_565 S
C210 C209 1.410 . S
C210 C211 1.392 . S
C210 C213 1.511 . S
C211 C207 1.376 . S
C211 C210 1.392 . S
C211 H223 0.929 . S
C212 C208 1.531 . S
C212 H224 0.960 1_565 S
C212 H225 0.962 . S
C212 H226 0.960 . S
C213 C210 1.511 . S
C213 H227 0.961 . S
C213 H228 0.961 1_565 S
C213 H229 0.961 . S
C214 C215 1.370 . S
C214 C216 1.363 . S
C214 H230 0.931 . S
C215 C214 1.370 . S
C215 C219 1.408 . S
C216 C214 1.363 . S
C216 C217 1.370 . S
C216 C220 1.524 . S
C217 C209 1.503 1_545 S
C217 C216 1.370 . S
C217 C218 1.403 . S
C218 C217 1.403 . S
C218 C219 1.404 . S
C218 C221 1.539 . S
C219 C215 1.408 . S
C219 C218 1.404 . S
C219 H231 0.930 . S
C220 C216 1.524 . S
C220 H232 0.956 . S
C220 H233 0.975 . S
C220 H234 0.961 . S
C221 C218 1.539 . S
C221 H235 0.958 . S
C221 H236 0.961 . S
C221 H237 0.960 1_545 S
H222 C206 0.931 . S
H223 C211 0.929 . S
H224 C212 0.960 1_545 S
H225 C212 0.962 . S
H226 C212 0.960 . S
H227 C213 0.961 . S
H228 C213 0.961 1_545 S
H229 C213 0.961 . S
H230 C214 0.931 . S
H231 C219 0.930 . S
H232 C220 0.956 . S
H233 C220 0.975 . S
H234 C220 0.961 . S
H235 C221 0.958 . S
H236 C221 0.961 . S
H237 C221 0.960 1_565 S
C238 C239 1.391 . S
C238 C240 1.394 . S
C238 H254 0.931 . S
C239 C238 1.391 . S
C239 C243 1.376 . S
C240 C238 1.394 . S
C240 C241 1.369 . S
C240 C244 1.531 . S
C241 C240 1.369 . S
C241 C242 1.410 . S
C241 C249 1.503 . S
C242 C241 1.410 . S
C242 C243 1.392 . S
C242 C245 1.511 . S
C243 C239 1.376 . S
C243 C242 1.392 . S
C243 H255 0.929 . S
C244 C240 1.531 . S
C244 H256 0.960 . S
C244 H257 0.962 . S
C244 H258 0.960 . S
C245 C242 1.511 . S
C245 H259 0.961 . S
C245 H260 0.961 . S
C245 H261 0.961 . S
C246 C247 1.370 . S
C246 C248 1.363 . S
C246 H262 0.931 . S
C247 C246 1.370 . S
C247 C251 1.408 . S
C248 C246 1.363 . S
C248 C249 1.370 . S
C248 C252 1.524 . S
C249 C241 1.503 . S
C249 C248 1.370 . S
C249 C250 1.403 . S
C250 C249 1.403 . S
C250 C251 1.404 . S
C250 C253 1.539 . S
C251 C247 1.408 . S
C251 C250 1.404 . S
C251 H263 0.930 . S
C252 C248 1.524 . S
C252 H264 0.956 . S
C252 H265 0.961 . S
C252 H266 0.961 . S
C253 C250 1.539 . S
C253 H267 0.958 . S
C253 H268 0.961 . S
C253 H269 0.960 . S
H254 C238 0.931 . S
H255 C243 0.929 . S
H256 C244 0.960 . S
H257 C244 0.962 . S
H258 C244 0.960 . S
H259 C245 0.961 . S
H260 C245 0.961 . S
H261 C245 0.961 . S
H262 C246 0.931 . S
H263 C251 0.930 . S
H264 C252 0.956 . S
H265 C252 0.961 . S
H266 C252 0.961 . S
H267 C253 0.958 . S
H268 C253 0.961 . S
H269 C253 0.960 . S
C270 C271 1.391 . S
C270 C272 1.394 . S
C270 H286 0.931 . S
C271 C270 1.391 . S
C271 C275 1.376 . S
C272 C270 1.394 . S
C272 C273 1.369 . S
C272 C276 1.531 . S
C273 C272 1.369 . S
C273 C274 1.410 . S
C273 C281 1.503 1_556 S
C274 C273 1.410 . S
C274 C275 1.392 . S
C274 C277 1.511 . S
C275 C271 1.376 . S
C275 C274 1.392 . S
C275 H287 0.929 . S
C276 C272 1.531 . S
C276 H288 0.960 1_556 S
C276 H289 0.962 . S
C276 H290 0.960 . S
C277 C274 1.511 . S
C277 H291 0.961 . S
C277 H292 0.961 . S
C277 H293 0.961 . S
C278 C279 1.370 . S
C278 C280 1.363 . S
C278 H294 0.931 . S
C279 C278 1.370 . S
C279 C283 1.408 . S
C280 C278 1.363 . S
C280 C281 1.370 . S
C280 C284 1.524 1_554 S
C281 C273 1.503 1_554 S
C281 C280 1.370 . S
C281 C282 1.403 . S
C282 C281 1.403 . S
C282 C283 1.404 . S
C282 C285 1.539 . S
C283 C279 1.408 . S
C283 C282 1.404 . S
C283 H295 0.930 . S
C284 C280 1.524 1_556 S
C284 H296 0.956 . S
C284 H297 0.961 . S
C284 H298 0.961 1_556 S
C285 C282 1.539 . S
C285 H299 0.958 . S
C285 H300 0.961 . S
C285 H301 0.960 . S
H286 C270 0.931 . S
H287 C275 0.929 . S
H288 C276 0.960 1_554 S
H289 C276 0.962 . S
H290 C276 0.960 . S
H291 C277 0.961 . S
H292 C277 0.961 . S
H293 C277 0.961 . S
H294 C278 0.931 . S
H295 C283 0.930 . S
H296 C284 0.956 . S
H297 C284 0.961 . S
H298 C284 0.961 1_554 S
H299 C285 0.958 . S
H300 C285 0.961 . S
H301 C285 0.960 . S
C302 C303 1.391 . S
C302 C304 1.394 . S
C302 H318 0.931 . S
C303 C302 1.391 . S
C303 C307 1.376 . S
C304 C302 1.394 . S
C304 C305 1.369 . S
C304 C308 1.531 . S
C305 C304 1.369 . S
C305 C306 1.410 . S
C305 C313 1.503 . S
C306 C305 1.410 . S
C306 C307 1.392 . S
C306 C309 1.511 . S
C307 C303 1.376 . S
C307 C306 1.392 . S
C307 H319 0.929 . S
C308 C304 1.531 . S
C308 H320 0.960 . S
C308 H321 0.962 . S
C308 H322 0.960 . S
C309 C306 1.511 . S
C309 H323 0.961 . S
C309 H324 0.961 . S
C309 H325 0.961 . S
C310 C311 1.370 . S
C310 C312 1.363 . S
C310 H326 0.931 . S
C311 C310 1.370 . S
C311 C315 1.408 . S
C312 C310 1.363 . S
C312 C313 1.370 . S
C312 C316 1.524 . S
C313 C305 1.503 . S
C313 C312 1.370 . S
C313 C314 1.403 . S
C314 C313 1.403 . S
C314 C315 1.404 . S
C314 C317 1.539 . S
C315 C311 1.408 . S
C315 C314 1.404 . S
C315 H327 0.930 . S
C316 C312 1.524 . S
C316 H328 0.956 . S
C316 H329 0.961 . S
C316 H330 0.961 . S
C317 C314 1.539 . S
C317 H331 0.958 . S
C317 H332 0.961 . S
C317 H333 0.960 . S
H318 C302 0.931 . S
H319 C307 0.929 . S
H320 C308 0.960 . S
H321 C308 0.962 . S
H322 C308 0.960 . S
H323 C309 0.961 . S
H324 C309 0.961 . S
H325 C309 0.961 . S
H326 C310 0.931 . S
H327 C315 0.930 . S
H328 C316 0.956 . S
H329 C316 0.961 . S
H330 C316 0.961 . S
H331 C317 0.958 . S
H332 C317 0.961 . S
H333 C317 0.960 . S
C334 C335 1.391 . S
C334 C336 1.394 . S
C334 H350 0.931 . S
C335 C334 1.391 . S
C335 C339 1.376 . S
C336 C334 1.394 . S
C336 C337 1.369 . S
C336 C340 1.531 . S
C337 C336 1.369 . S
C337 C338 1.410 . S
C337 C345 1.503 . S
C338 C337 1.410 . S
C338 C339 1.392 . S
C338 C341 1.511 . S
C339 C335 1.376 . S
C339 C338 1.392 . S
C339 H351 0.929 . S
C340 C336 1.531 . S
C340 H352 0.960 . S
C340 H353 0.962 . S
C340 H354 0.960 . S
C341 C338 1.511 . S
C341 H355 0.961 . S
C341 H356 0.961 . S
C341 H357 0.961 . S
C342 C343 1.370 . S
C342 C344 1.363 . S
C342 H358 0.931 . S
C343 C342 1.370 . S
C343 C347 1.408 . S
C344 C342 1.363 . S
C344 C345 1.370 . S
C344 C348 1.524 . S
C345 C337 1.503 . S
C345 C344 1.370 . S
C345 C346 1.403 . S
C346 C345 1.403 . S
C346 C347 1.404 . S
C346 C349 1.539 . S
C347 C343 1.408 . S
C347 C346 1.404 . S
C347 H359 0.930 . S
C348 C344 1.524 . S
C348 H360 0.956 . S
C348 H361 0.961 . S
C348 H362 0.961 . S
C349 C346 1.539 . S
C349 H363 0.958 . S
C349 H364 0.961 . S
C349 H365 0.960 . S
H350 C334 0.931 . S
H351 C339 0.929 . S
H352 C340 0.960 . S
H353 C340 0.962 . S
H354 C340 0.960 . S
H355 C341 0.961 . S
H356 C341 0.961 . S
H357 C341 0.961 . S
H358 C342 0.931 . S
H359 C347 0.930 . S
H360 C348 0.956 . S
H361 C348 0.961 . S
H362 C348 0.961 . S
H363 C349 0.958 . S
H364 C349 0.961 . S
H365 C349 0.960 . S
C366 C367 1.391 . S
C366 C368 1.394 . S
C366 H382 0.931 . S
C367 C366 1.391 . S
C367 C371 1.376 . S
C368 C366 1.394 . S
C368 C369 1.369 . S
C368 C372 1.531 . S
C369 C368 1.369 . S
C369 C370 1.410 . S
C369 C377 1.503 1_556 S
C370 C369 1.410 . S
C370 C371 1.392 . S
C370 C373 1.511 . S
C371 C367 1.376 . S
C371 C370 1.392 . S
C371 H383 0.929 . S
C372 C368 1.531 . S
C372 H384 0.960 . S
C372 H385 0.962 . S
C372 H386 0.960 . S
C373 C370 1.511 . S
C373 H387 0.961 . S
C373 H388 0.961 1_556 S
C373 H389 0.961 . S
C374 C375 1.370 . S
C374 C376 1.363 . S
C374 H390 0.931 . S
C375 C374 1.370 . S
C375 C379 1.408 . S
C376 C374 1.363 . S
C376 C377 1.370 . S
C376 C380 1.524 . S
C377 C369 1.503 1_554 S
C377 C376 1.370 . S
C377 C378 1.403 . S
C378 C377 1.403 . S
C378 C379 1.404 . S
C378 C381 1.539 1_554 S
C379 C375 1.408 . S
C379 C378 1.404 . S
C379 H391 0.930 . S
C380 C376 1.524 . S
C380 H392 0.956 . S
C380 H393 0.961 . S
C380 H394 0.961 . S
C381 C378 1.539 1_556 S
C381 H395 0.958 . S
C381 H396 0.961 1_556 S
C381 H397 0.960 . S
H382 C366 0.931 . S
H383 C371 0.929 . S
H384 C372 0.960 . S
H385 C372 0.962 . S
H386 C372 0.960 . S
H387 C373 0.961 . S
H388 C373 0.961 1_554 S
H389 C373 0.961 . S
H390 C374 0.931 . S
H391 C379 0.930 . S
H392 C380 0.956 . S
H393 C380 0.961 . S
H394 C380 0.961 . S
H395 C381 0.958 . S
H396 C381 0.961 1_554 S
H397 C381 0.960 . S
C398 C399 1.391 . S
C398 C400 1.394 . S
C398 H414 0.931 . S
C399 C398 1.391 . S
C399 C403 1.376 . S
C400 C398 1.394 . S
C400 C401 1.369 . S
C400 C404 1.531 . S
C401 C400 1.369 . S
C401 C402 1.410 . S
C401 C409 1.503 . S
C402 C401 1.410 . S
C402 C403 1.392 . S
C402 C405 1.511 . S
C403 C399 1.376 . S
C403 C402 1.392 . S
C403 H415 0.929 . S
C404 C400 1.531 . S
C404 H416 0.960 . S
C404 H417 0.962 . S
C404 H418 0.960 . S
C405 C402 1.511 . S
C405 H419 0.961 . S
C405 H420 0.961 . S
C405 H421 0.961 . S
C406 C407 1.370 . S
C406 C408 1.363 . S
C406 H422 0.931 . S
C407 C406 1.370 . S
C407 C411 1.408 . S
C408 C406 1.363 . S
C408 C409 1.370 . S
C408 C412 1.524 . S
C409 C401 1.503 . S
C409 C408 1.370 . S
C409 C410 1.403 . S
C410 C409 1.403 . S
C410 C411 1.404 . S
C410 C413 1.539 . S
C411 C407 1.408 . S
C411 C410 1.404 . S
C411 H423 0.930 . S
C412 C408 1.524 . S
C412 H424 0.956 . S
C412 H425 0.961 . S
C412 H426 0.961 . S
C413 C410 1.539 . S
C413 H427 0.958 . S
C413 H428 0.961 . S
C413 H429 0.960 . S
H414 C398 0.931 . S
H415 C403 0.929 . S
H416 C404 0.960 . S
H417 C404 0.962 . S
H418 C404 0.960 . S
H419 C405 0.961 . S
H420 C405 0.961 . S
H421 C405 0.961 . S
H422 C406 0.931 . S
H423 C411 0.930 . S
H424 C412 0.956 . S
H425 C412 0.961 . S
H426 C412 0.961 . S
H427 C413 0.958 . S
H428 C413 0.961 . S
H429 C413 0.960 . S
C430 C431 1.391 . S
C430 C432 1.394 . S
C430 H446 0.931 . S
C431 C430 1.391 . S
C431 C435 1.376 . S
C432 C430 1.394 . S
C432 C433 1.369 . S
C432 C436 1.531 . S
C433 C432 1.369 . S
C433 C434 1.410 . S
C433 C441 1.503 . S
C434 C433 1.410 . S
C434 C435 1.392 . S
C434 C437 1.511 . S
C435 C431 1.376 . S
C435 C434 1.392 . S
C435 H447 0.929 . S
C436 C432 1.531 . S
C436 H448 0.960 . S
C436 H449 0.962 . S
C436 H450 0.960 . S
C437 C434 1.511 . S
C437 H451 0.961 . S
C437 H452 0.961 . S
C437 H453 0.961 . S
C438 C439 1.370 . S
C438 C440 1.363 . S
C438 H454 0.931 . S
C439 C438 1.370 . S
C439 C443 1.408 . S
C440 C438 1.363 . S
C440 C441 1.370 . S
C440 C444 1.524 . S
C441 C433 1.503 . S
C441 C440 1.370 . S
C441 C442 1.403 . S
C442 C441 1.403 . S
C442 C443 1.404 . S
C442 C445 1.539 . S
C443 C439 1.408 . S
C443 C442 1.404 . S
C443 H455 0.930 . S
C444 C440 1.524 . S
C444 H456 0.956 . S
C444 H457 0.961 . S
C444 H458 0.961 . S
C445 C442 1.539 . S
C445 H459 0.958 . S
C445 H460 0.961 . S
C445 H461 0.960 . S
H446 C430 0.931 . S
H447 C435 0.929 . S
H448 C436 0.960 . S
H449 C436 0.962 . S
H450 C436 0.960 . S
H451 C437 0.961 . S
H452 C437 0.961 . S
H453 C437 0.961 . S
H454 C438 0.931 . S
H455 C443 0.930 . S
H456 C444 0.956 . S
H457 C444 0.961 . S
H458 C444 0.961 . S
H459 C445 0.958 . S
H460 C445 0.961 . S
H461 C445 0.960 . S
C79 C5 1.924 . S
C87 C44 1.948 . S
C111 C18 1.947 . S
C119 C57 1.937 . S
C143 C31 1.952 . S
C151 C70 1.936 . S
C175 C23 2.020 . S
C183 C62 2.017 . S
C207 C75 1.998 . S
C215 C36 2.027 . S
C239 C49 2.026 . S
C247 C10 2.015 . S
C271 C29 1.635 . S
C279 C1 1.625 . S
C303 C42 1.590 . S
C311 C14 1.643 . S
C335 C27 1.609 . S
C343 C55 1.634 . S
C367 C68 1.593 . S
C375 C40 1.645 . S
C399 C53 1.654 . S
C407 C3 1.611 . S
C431 C66 1.629 . S
C439 C16 1.616 . S
