# Generated by pormake.
# Topology wmc, (6)-cn, num edge types: 1
# Building blocks:
#     Node 0, Type 0, BuildingBlock: IZENUY_clean_sbu_0, # of connection points: 6
#     Node 1, Type 0, BuildingBlock: IZENUY_clean_sbu_0, # of connection points: 6
#     Node 2, Type 0, BuildingBlock: IZENUY_clean_sbu_0, # of connection points: 6
#     Node 3, Type 0, BuildingBlock: IZENUY_clean_sbu_0, # of connection points: 6
#     Node 4, Type 0, BuildingBlock: IZENUY_clean_sbu_0, # of connection points: 6
#     Node 5, Type 0, BuildingBlock: IZENUY_clean_sbu_0, # of connection points: 6
#     Node 6, Type 0, BuildingBlock: IZENUY_clean_sbu_0, # of connection points: 6
#     Node 7, Type 0, BuildingBlock: IZENUY_clean_sbu_0, # of connection points: 6
#     Node 8, Type 0, BuildingBlock: IZENUY_clean_sbu_0, # of connection points: 6
#     Node 9, Type 0, BuildingBlock: IZENUY_clean_sbu_0, # of connection points: 6
#     Node 10, Type 0, BuildingBlock: IZENUY_clean_sbu_0, # of connection points: 6
#     Node 11, Type 0, BuildingBlock: IZENUY_clean_sbu_0, # of connection points: 6
#     Node 12, Type 0, BuildingBlock: IZENUY_clean_sbu_0, # of connection points: 6
#     Node 13, Type 0, BuildingBlock: IZENUY_clean_sbu_0, # of connection points: 6
#     Node 14, Type 0, BuildingBlock: IZENUY_clean_sbu_0, # of connection points: 6
#     Node 15, Type 0, BuildingBlock: IZENUY_clean_sbu_0, # of connection points: 6
#     Node 16, Type 0, BuildingBlock: IZENUY_clean_sbu_0, # of connection points: 6
#     Node 17, Type 0, BuildingBlock: IZENUY_clean_sbu_0, # of connection points: 6
#     Edge 18, Type (0, 0), BuildingBlock: OJICUG_clean_linker_0, # of connection points: 2
#     Edge 19, Type (0, 0), BuildingBlock: OJICUG_clean_linker_0, # of connection points: 2
#     Edge 20, Type (0, 0), BuildingBlock: OJICUG_clean_linker_0, # of connection points: 2
#     Edge 21, Type (0, 0), BuildingBlock: OJICUG_clean_linker_0, # of connection points: 2
#     Edge 22, Type (0, 0), BuildingBlock: OJICUG_clean_linker_0, # of connection points: 2
#     Edge 23, Type (0, 0), BuildingBlock: OJICUG_clean_linker_0, # of connection points: 2
#     Edge 24, Type (0, 0), BuildingBlock: OJICUG_clean_linker_0, # of connection points: 2
#     Edge 25, Type (0, 0), BuildingBlock: OJICUG_clean_linker_0, # of connection points: 2
#     Edge 26, Type (0, 0), BuildingBlock: OJICUG_clean_linker_0, # of connection points: 2
#     Edge 27, Type (0, 0), BuildingBlock: OJICUG_clean_linker_0, # of connection points: 2
#     Edge 28, Type (0, 0), BuildingBlock: OJICUG_clean_linker_0, # of connection points: 2
#     Edge 29, Type (0, 0), BuildingBlock: OJICUG_clean_linker_0, # of connection points: 2
#     Edge 30, Type (0, 0), BuildingBlock: OJICUG_clean_linker_0, # of connection points: 2
#     Edge 31, Type (0, 0), BuildingBlock: OJICUG_clean_linker_0, # of connection points: 2
#     Edge 32, Type (0, 0), BuildingBlock: OJICUG_clean_linker_0, # of connection points: 2
#     Edge 33, Type (0, 0), BuildingBlock: OJICUG_clean_linker_0, # of connection points: 2
#     Edge 34, Type (0, 0), BuildingBlock: OJICUG_clean_linker_0, # of connection points: 2
#     Edge 35, Type (0, 0), BuildingBlock: OJICUG_clean_linker_0, # of connection points: 2
#     Edge 36, Type (0, 0), BuildingBlock: OJICUG_clean_linker_0, # of connection points: 2
#     Edge 37, Type (0, 0), BuildingBlock: OJICUG_clean_linker_0, # of connection points: 2
#     Edge 38, Type (0, 0), BuildingBlock: OJICUG_clean_linker_0, # of connection points: 2
#     Edge 39, Type (0, 0), BuildingBlock: OJICUG_clean_linker_0, # of connection points: 2
#     Edge 40, Type (0, 0), BuildingBlock: OJICUG_clean_linker_0, # of connection points: 2
#     Edge 41, Type (0, 0), BuildingBlock: OJICUG_clean_linker_0, # of connection points: 2
#     Edge 42, Type (0, 0), BuildingBlock: OJICUG_clean_linker_0, # of connection points: 2
#     Edge 43, Type (0, 0), BuildingBlock: OJICUG_clean_linker_0, # of connection points: 2
#     Edge 44, Type (0, 0), BuildingBlock: OJICUG_clean_linker_0, # of connection points: 2
#     Edge 45, Type (0, 0), BuildingBlock: OJICUG_clean_linker_0, # of connection points: 2
#     Edge 46, Type (0, 0), BuildingBlock: OJICUG_clean_linker_0, # of connection points: 2
#     Edge 47, Type (0, 0), BuildingBlock: OJICUG_clean_linker_0, # of connection points: 2
#     Edge 48, Type (0, 0), BuildingBlock: OJICUG_clean_linker_0, # of connection points: 2
#     Edge 49, Type (0, 0), BuildingBlock: OJICUG_clean_linker_0, # of connection points: 2
#     Edge 50, Type (0, 0), BuildingBlock: OJICUG_clean_linker_0, # of connection points: 2
#     Edge 51, Type (0, 0), BuildingBlock: OJICUG_clean_linker_0, # of connection points: 2
#     Edge 52, Type (0, 0), BuildingBlock: OJICUG_clean_linker_0, # of connection points: 2
#     Edge 53, Type (0, 0), BuildingBlock: OJICUG_clean_linker_0, # of connection points: 2
#     Edge 54, Type (0, 0), BuildingBlock: OJICUG_clean_linker_0, # of connection points: 2
#     Edge 55, Type (0, 0), BuildingBlock: OJICUG_clean_linker_0, # of connection points: 2
#     Edge 56, Type (0, 0), BuildingBlock: OJICUG_clean_linker_0, # of connection points: 2
#     Edge 57, Type (0, 0), BuildingBlock: OJICUG_clean_linker_0, # of connection points: 2
#     Edge 58, Type (0, 0), BuildingBlock: OJICUG_clean_linker_0, # of connection points: 2
#     Edge 59, Type (0, 0), BuildingBlock: OJICUG_clean_linker_0, # of connection points: 2
#     Edge 60, Type (0, 0), BuildingBlock: OJICUG_clean_linker_0, # of connection points: 2
#     Edge 61, Type (0, 0), BuildingBlock: OJICUG_clean_linker_0, # of connection points: 2
#     Edge 62, Type (0, 0), BuildingBlock: OJICUG_clean_linker_0, # of connection points: 2
#     Edge 63, Type (0, 0), BuildingBlock: OJICUG_clean_linker_0, # of connection points: 2
#     Edge 64, Type (0, 0), BuildingBlock: OJICUG_clean_linker_0, # of connection points: 2
#     Edge 65, Type (0, 0), BuildingBlock: OJICUG_clean_linker_0, # of connection points: 2
#     Edge 66, Type (0, 0), BuildingBlock: OJICUG_clean_linker_0, # of connection points: 2
#     Edge 67, Type (0, 0), BuildingBlock: OJICUG_clean_linker_0, # of connection points: 2
#     Edge 68, Type (0, 0), BuildingBlock: OJICUG_clean_linker_0, # of connection points: 2
#     Edge 69, Type (0, 0), BuildingBlock: OJICUG_clean_linker_0, # of connection points: 2
#     Edge 70, Type (0, 0), BuildingBlock: OJICUG_clean_linker_0, # of connection points: 2
#     Edge 71, Type (0, 0), BuildingBlock: OJICUG_clean_linker_0, # of connection points: 2
# Relax obj value: 0.347
# Max RMSD: 0.273
# Mean RMSD: 0.273
data_MOF--net-wmc--node1-IZENUY_clean_sbu_0--edge1-OJICUG_clean_linker_0
_symmetry_space_group_name_H-M    P1
_symmetry_Int_Tables_number       1
_symmetry_cell_setting            triclinic
loop_
_symmetry_equiv_pos_as_xyz
'x, y, z'
_cell_length_a     32.643837
_cell_length_b     32.660605
_cell_length_c     22.069215
_cell_angle_alpha  90.512167
_cell_angle_beta   89.850379
_cell_angle_gamma 120.10886
loop_
_atom_site_label
_atom_site_type_symbol
_atom_site_fract_x
_atom_site_fract_y
_atom_site_fract_z
_atom_type_partial_charge
Fe0 Fe 0.7151 0.16077 0.96768 0.0
Fe1 Fe 0.61886 0.1454 0.01381 0.0
O2 O 0.68058 0.18125 0.00905 0.0
Fe3 Fe 0.70949 0.23795 0.0402 0.0
O4 O 0.73151 0.25741 0.9649 0.0
O5 O 0.76887 0.22082 0.95518 0.0
O6 O 0.69035 0.16608 0.89785 0.0
C7 C 0.64644 0.14779 0.88775 0.0
C8 C 0.76841 0.19645 0.06986 0.0
O9 O 0.61551 0.13143 0.93045 0.0
C10 C 0.64662 0.18633 0.13273 0.0
O11 O 0.66686 0.09522 0.9669 0.0
O12 O 0.62841 0.0994 0.04053 0.0
O13 O 0.75969 0.2305 0.06687 0.0
O14 O 0.74396 0.15824 0.03836 0.0
C15 C 0.62603 0.23191 0.99264 0.0
O16 O 0.61589 0.15785 0.09487 0.0
O17 O 0.68619 0.21992 0.11578 0.0
C18 C 0.63016 0.07401 1.00016 0.0
O19 O 0.60376 0.18791 0.98883 0.0
O20 O 0.66537 0.2541 0.01955 0.0
C21 C 0.76969 0.2599 0.95298 0.0
Fe22 Fe 0.97568 0.57557 0.98123 0.0
Fe23 Fe 1.008 0.51149 0.04104 0.0
O24 O 0.96773 0.53234 0.03517 0.0
Fe25 Fe 0.91903 0.50956 0.084 0.0
O26 O 0.88044 0.48358 0.02031 0.0
O27 O 0.91083 0.55042 0.97026 0.0
O28 O 0.97164 0.53736 0.92049 0.0
C29 C 0.99655 0.51836 0.91381 0.0
C30 C 0.94045 0.60532 0.07374 0.0
O31 O 1.01845 0.51323 0.95797 0.0
C32 C 0.98944 0.52672 0.16189 0.0
O33 O 1.04321 0.60429 0.97838 0.0
O34 O 1.05382 0.57128 0.05554 0.0
O35 O 0.91185 0.56199 0.08382 0.0
O36 O 0.9768 0.6172 0.04021 0.0
C37 C 0.92533 0.42981 0.05498 0.0
O38 O 1.00273 0.50581 0.12434 0.0
O39 O 0.95724 0.53549 0.14823 0.0
C40 C 1.07159 0.59678 0.01046 0.0
O41 O 0.96323 0.45091 0.02608 0.0
O42 O 0.91608 0.45238 0.09431 0.0
C43 C 0.87763 0.50775 0.97817 0.0
Fe44 Fe 0.54287 0.42097 0.96877 0.0
Fe45 Fe 0.64102 0.50105 0.0097 0.0
O46 O 0.59486 0.44137 0.01334 0.0
Fe47 Fe 0.60336 0.40222 0.06002 0.0
O48 O 0.57163 0.35101 0.01141 0.0
O49 O 0.55358 0.37736 0.9304 0.0
O50 O 0.57412 0.45979 0.90516 0.0
C51 C 0.6171 0.47839 0.88915 0.0
C52 C 0.51033 0.36228 0.07816 0.0
O53 O 0.65013 0.49369 0.92863 0.0
C54 C 0.63174 0.48275 0.13122 0.0
O55 O 0.53043 0.46764 0.9989 0.0
O56 O 0.6045 0.52498 0.99057 0.0
O57 O 0.55033 0.38698 0.10253 0.0
O58 O 0.50309 0.37425 0.0255 0.0
C59 C 0.69043 0.4549 0.00862 0.0
O60 O 0.63192 0.50949 0.08973 0.0
O61 O 0.63602 0.44725 0.11799 0.0
C62 C 0.56152 0.51202 0.99422 0.0
O63 O 0.68773 0.48942 0.02833 0.0
O64 O 0.65656 0.41381 0.01795 0.0
C65 C 0.56137 0.34769 0.95614 0.0
Fe66 Fe 1.00383 0.52151 0.54105 0.0
Fe67 Fe 0.9153 0.43472 0.58546 0.0
O68 O 0.96282 0.46036 0.53486 0.0
Fe69 Fe 0.96919 0.42491 0.47843 0.0
O70 O 0.96297 0.45896 0.42019 0.0
O71 O 1.0121 0.52976 0.45776 0.0
O72 O 0.9597 0.53813 0.52967 0.0
C73 C 0.92187 0.52124 0.5587 0.0
C74 C 1.0661 0.50025 0.50451 0.0
O75 O 0.91233 0.48905 0.59703 0.0
C76 C 0.93667 0.36015 0.57025 0.0
O77 O 1.00069 0.52266 0.62451 0.0
O78 O 0.95477 0.44783 0.64845 0.0
O79 O 1.03692 0.46444 0.47208 0.0
O80 O 1.04913 0.50653 0.55182 0.0
C81 C 0.87037 0.39233 0.48196 0.0
O82 O 0.90888 0.37535 0.58397 0.0
O83 O 0.97199 0.3844 0.53501 0.0
C84 C 0.98756 0.48883 0.6618 0.0
O85 O 0.8749 0.4209 0.5235 0.0
O86 O 0.90407 0.38422 0.47053 0.0
C87 C 0.98882 0.5028 0.41375 0.0
Fe88 Fe 0.61772 0.49413 0.51163 0.0
Fe89 Fe 0.70893 0.4931 0.53405 0.0
O90 O 0.67937 0.52056 0.50549 0.0
Fe91 Fe 0.71319 0.5757 0.46482 0.0
O92 O 0.68795 0.5453 0.39509 0.0
O93 O 0.61334 0.50431 0.42861 0.0
O94 O 0.60255 0.43624 0.48568 0.0
C95 C 0.62516 0.41483 0.48741 0.0
C96 C 0.62827 0.57673 0.50025 0.0
O97 O 0.66519 0.43267 0.51243 0.0
C98 C 0.76746 0.59382 0.56561 0.0
O99 O 0.61612 0.47936 0.59244 0.0
O100 O 0.68645 0.48704 0.61019 0.0
O101 O 0.66451 0.5923 0.46609 0.0
O102 O 0.62707 0.54967 0.53966 0.0
C103 C 0.76846 0.53223 0.44719 0.0
O104 O 0.75863 0.55101 0.5617 0.0
O105 O 0.74269 0.60746 0.53542 0.0
C106 C 0.64741 0.48147 0.62882 0.0
O107 O 0.73015 0.49644 0.45791 0.0
O108 O 0.76727 0.57029 0.45034 0.0
C109 C 0.64404 0.51913 0.38555 0.0
Fe110 Fe 0.63174 0.15555 0.5123 0.0
Fe111 Fe 0.59293 0.21608 0.56392 0.0
O112 O 0.58546 0.16887 0.51596 0.0
Fe113 Fe 0.53438 0.13769 0.46947 0.0
O114 O 0.56664 0.13003 0.40639 0.0
O115 O 0.64206 0.17283 0.43196 0.0
O116 O 0.67852 0.21386 0.533 0.0
C117 C 0.68174 0.25173 0.516 0.0
C118 C 0.55197 0.06486 0.49464 0.0
O119 O 0.64733 0.25831 0.52454 0.0
C120 C 0.49918 0.16254 0.57872 0.0
O121 O 0.62214 0.13766 0.59181 0.0
O122 O 0.6241 0.20305 0.62257 0.0
O123 O 0.52098 0.07832 0.49881 0.0
O124 O 0.59511 0.09485 0.4912 0.0
C125 C 0.55412 0.22994 0.45878 0.0
O126 O 0.53876 0.17796 0.60431 0.0
O127 O 0.49343 0.14464 0.52502 0.0
C128 C 0.62167 0.16395 0.63423 0.0
O129 O 0.56243 0.23611 0.51466 0.0
O130 O 0.54662 0.1925 0.43224 0.0
C131 C 0.60982 0.15513 0.39153 0.0
Fe132 Fe 0.37057 0.47148 0.30667 0.0
Fe133 Fe 0.2895 0.48522 0.35531 0.0
O134 O 0.34979 0.50014 0.35643 0.0
Fe135 Fe 0.3893 0.54672 0.40552 0.0
O136 O 0.43996 0.56926 0.35611 0.0
O137 O 0.41295 0.52813 0.27187 0.0
O138 O 0.33049 0.46484 0.24552 0.0
C139 C 0.30924 0.48719 0.23338 0.0
C140 C 0.43085 0.49393 0.41439 0.0
O141 O 0.29455 0.50357 0.27547 0.0
C142 C 0.3094 0.49154 0.4765 0.0
O143 O 0.32526 0.41059 0.33264 0.0
O144 O 0.26635 0.42533 0.33191 0.0
O145 O 0.40697 0.50869 0.44254 0.0
O146 O 0.4183 0.47721 0.3604 0.0
C147 C 0.33401 0.58101 0.36161 0.0
O148 O 0.28254 0.46572 0.43398 0.0
O149 O 0.34529 0.53141 0.46526 0.0
C150 C 0.28051 0.39622 0.33002 0.0
O151 O 0.30013 0.54261 0.37901 0.0
O152 O 0.37554 0.58868 0.3688 0.0
C153 C 0.44262 0.56495 0.30001 0.0
Fe154 Fe 0.63503 0.9102 0.3047 0.0
Fe155 Fe 0.65391 0.83044 0.34374 0.0
O156 O 0.61791 0.85623 0.34491 0.0
Fe157 Fe 0.56374 0.82841 0.38228 0.0
O158 O 0.53801 0.82496 0.30916 0.0
O159 O 0.57329 0.89945 0.29455 0.0
O160 O 0.6285 0.88053 0.23409 0.0
C161 C 0.64782 0.85665 0.22045 0.0
C162 C 0.60088 0.9284 0.4082 0.0
O163 O 0.66634 0.84273 0.26073 0.0
C164 C 0.62307 0.82314 0.46641 0.0
O165 O 0.70122 0.92982 0.30215 0.0
O166 O 0.70109 0.88554 0.37175 0.0
O167 O 0.56789 0.88521 0.40588 0.0
O168 O 0.63852 0.94227 0.37598 0.0
C169 C 0.56698 0.75047 0.33095 0.0
O170 O 0.64403 0.81342 0.42463 0.0
O171 O 0.58985 0.83099 0.45476 0.0
C172 C 0.72448 0.91511 0.33282 0.0
O173 O 0.6095 0.77351 0.31633 0.0
O174 O 0.54924 0.76734 0.36727 0.0
C175 C 0.535 0.85988 0.29384 0.0
Fe176 Fe 0.22044 0.75379 0.31101 0.0
Fe177 Fe 0.28571 0.85111 0.3699 0.0
O178 O 0.26342 0.78962 0.36603 0.0
Fe179 Fe 0.28429 0.7641 0.4177 0.0
O180 O 0.30956 0.74812 0.35623 0.0
O181 O 0.24304 0.7115 0.30451 0.0
O182 O 0.26045 0.78544 0.25114 0.0
C183 C 0.28032 0.82924 0.24314 0.0
C184 C 0.18744 0.69102 0.40497 0.0
O185 O 0.28499 0.85752 0.28611 0.0
C186 C 0.2698 0.82159 0.49205 0.0
O187 O 0.19447 0.79518 0.30372 0.0
O188 O 0.22624 0.83829 0.38234 0.0
O189 O 0.23036 0.7055 0.41807 0.0
O190 O 0.17697 0.71531 0.36924 0.0
C191 C 0.36582 0.8486 0.38847 0.0
O192 O 0.29106 0.85422 0.45326 0.0
O193 O 0.25921 0.77967 0.48003 0.0
C194 C 0.20204 0.83139 0.33606 0.0
O195 O 0.3458 0.86537 0.3576 0.0
O196 O 0.34245 0.81757 0.42779 0.0
C197 C 0.28468 0.71892 0.31571 0.0
Fe198 Fe 0.64612 0.75108 0.80277 0.0
Fe199 Fe 0.65389 0.84547 0.84373 0.0
O200 O 0.6228 0.78314 0.84204 0.0
Fe201 Fe 0.56847 0.75209 0.87956 0.0
O202 O 0.54101 0.72835 0.80759 0.0
O203 O 0.58681 0.69932 0.78559 0.0
O204 O 0.6417 0.77463 0.73205 0.0
C205 C 0.65726 0.8175 0.7201 0.0
C206 C 0.60978 0.69449 0.9025 0.0
O207 O 0.67078 0.84924 0.76176 0.0
C208 C 0.62352 0.81802 0.96501 0.0
O209 O 0.71087 0.80083 0.80653 0.0
O210 O 0.7034 0.84327 0.87413 0.0
O211 O 0.57461 0.70065 0.89742 0.0
O212 O 0.64827 0.72139 0.87341 0.0
C213 C 0.5643 0.8296 0.83194 0.0
O214 O 0.63962 0.84975 0.92421 0.0
O215 O 0.59525 0.7753 0.952 0.0
C216 C 0.72982 0.83958 0.83703 0.0
O217 O 0.60612 0.85148 0.81416 0.0
O218 O 0.55081 0.79671 0.86994 0.0
C219 C 0.54773 0.69866 0.77922 0.0
Fe220 Fe 0.27939 0.84416 0.86879 0.0
Fe221 Fe 0.37325 0.85278 0.90448 0.0
O222 O 0.34173 0.87316 0.86233 0.0
Fe223 Fe 0.37306 0.92257 0.81335 0.0
O224 O 0.34336 0.88654 0.74882 0.0
O225 O 0.27075 0.84846 0.78654 0.0
O226 O 0.27055 0.78729 0.84782 0.0
C227 C 0.29201 0.76831 0.86954 0.0
C228 C 0.28783 0.92553 0.84616 0.0
O229 O 0.32575 0.79066 0.90642 0.0
C230 C 0.43646 0.95301 0.9075 0.0
O231 O 0.27944 0.83414 0.95103 0.0
O232 O 0.35514 0.86674 0.97475 0.0
O233 O 0.32596 0.94134 0.81485 0.0
O234 O 0.28474 0.89984 0.8892 0.0
C235 C 0.41984 0.86964 0.79901 0.0
O236 O 0.4276 0.91067 0.9113 0.0
O237 O 0.40883 0.96249 0.8768 0.0
C238 C 0.31302 0.85319 0.98956 0.0
O239 O 0.39209 0.83846 0.83514 0.0
O240 O 0.42159 0.90951 0.79736 0.0
C241 C 0.29929 0.86109 0.74209 0.0
Fe242 Fe 0.21329 0.49337 0.80536 0.0
Fe243 Fe 0.29089 0.47497 0.85585 0.0
O244 O 0.26584 0.5115 0.84987 0.0
Fe245 Fe 0.293 0.56712 0.88478 0.0
O246 O 0.29991 0.59122 0.81034 0.0
O247 O 0.22565 0.55491 0.78957 0.0
O248 O 0.24475 0.49644 0.73748 0.0
C249 C 0.26907 0.4767 0.72916 0.0
C250 C 0.19322 0.5314 0.90356 0.0
O251 O 0.28182 0.46004 0.77299 0.0
C252 C 0.29683 0.51243 0.97593 0.0
O253 O 0.1924 0.42718 0.80733 0.0
O254 O 0.2345 0.42866 0.88095 0.0
O255 O 0.23617 0.5647 0.90115 0.0
O256 O 0.17951 0.49279 0.87329 0.0
C257 C 0.37141 0.5607 0.8441 0.0
O258 O 0.30519 0.48802 0.93752 0.0
O259 O 0.28801 0.54403 0.95951 0.0
C260 C 0.20672 0.40465 0.83997 0.0
O261 O 0.34863 0.5179 0.831 0.0
O262 O 0.35393 0.5801 0.87629 0.0
C263 C 0.26592 0.59234 0.78669 0.0
Fe264 Fe 1.0407 0.8144 0.63467 0.0
Fe265 Fe 0.94212 0.79263 0.67944 0.0
O266 O 1.00425 0.82767 0.68136 0.0
Fe267 Fe 1.03004 0.87655 0.73038 0.0
O268 O 1.05145 0.914 0.66566 0.0
O269 O 0.0868 0.87777 0.62609 0.0
O270 O 1.01479 0.82177 0.5674 0.0
C271 C 0.97151 0.8025 0.555 0.0
C272 C 0.09823 0.84621 0.73514 0.0
O273 O 0.93984 0.78245 0.59569 0.0
C274 C 0.96567 0.80981 0.80452 0.0
O275 O 0.99598 0.74782 0.63004 0.0
O276 O 0.94792 0.74296 0.70004 0.0
O277 O 0.08627 0.87737 0.74043 0.0
O278 O 1.07383 0.80986 0.70078 0.0
C279 C 0.94954 0.87833 0.68982 0.0
O280 O 0.93518 0.7986 0.76218 0.0
O281 O 1.00873 0.83917 0.79549 0.0
C282 C 0.95733 0.72253 0.65942 0.0
O283 O 0.93355 0.84111 0.65917 0.0
O284 O 0.97959 0.88675 0.73108 0.0
C285 C 0.08187 0.9141 0.63035 0.0
Fe286 Fe 0.30752 0.25479 0.63964 0.0
Fe287 Fe 0.3141 0.17058 0.69123 0.0
O288 O 0.28382 0.20229 0.68434 0.0
Fe289 Fe 0.22906 0.18172 0.72018 0.0
O290 O 0.2028 0.17418 0.64685 0.0
O291 O 0.24823 0.24757 0.62075 0.0
O292 O 0.30182 0.22159 0.57217 0.0
C293 C 0.31704 0.19331 0.56455 0.0
C294 C 0.27309 0.28217 0.73566 0.0
O295 O 0.33016 0.17758 0.60893 0.0
C296 C 0.28016 0.17237 0.81118 0.0
O297 O 0.3721 0.26883 0.644 0.0
O298 O 0.36519 0.22378 0.71687 0.0
O299 O 0.23697 0.24103 0.73252 0.0
O300 O 0.31119 0.29149 0.7069 0.0
C301 C 0.22376 0.09745 0.68095 0.0
O302 O 0.29955 0.15766 0.77295 0.0
O303 O 0.25371 0.18782 0.79431 0.0
C304 C 0.39107 0.2503 0.67636 0.0
O305 O 0.2659 0.11564 0.66549 0.0
O306 O 0.21005 0.11888 0.71578 0.0
C307 C 0.20888 0.2089 0.61631 0.0
Fe308 Fe 0.87086 0.08263 0.63426 0.0
Fe309 Fe 0.95 0.1809 0.67833 0.0
O310 O 0.9236 0.11888 0.67773 0.0
Fe311 Fe 0.9495 0.09195 0.71763 0.0
O312 O 0.95592 0.06928 0.64585 0.0
O313 O 0.88177 1.03152 0.62457 0.0
O314 O 0.90285 0.10664 0.56577 0.0
C315 C 0.92639 0.15013 0.55394 0.0
C316 C 0.84894 1.02937 0.73624 0.0
O317 O 0.93937 0.18206 0.59523 0.0
C318 C 0.95355 0.15668 0.80103 0.0
O319 O 0.85172 0.12954 0.63107 0.0
O320 O 0.89437 0.17295 0.70352 0.0
O321 O 0.89192 1.03929 0.73675 0.0
O322 O 0.83622 0.05336 0.70316 0.0
C323 C 1.02928 0.17317 0.67108 0.0
O324 O 0.96571 0.18768 0.75977 0.0
O325 O 0.94401 0.11506 0.78916 0.0
C326 C 0.86613 0.16747 0.66266 0.0
O327 O 1.00709 0.19267 0.65343 0.0
O328 O 1.01103 0.13889 0.70735 0.0
C329 C 0.92108 1.03224 0.62652 0.0
Fe330 Fe 0.30864 0.08748 0.142 0.0
Fe331 Fe 0.30124 0.17257 0.19121 0.0
O332 O 0.28224 0.11111 0.19124 0.0
Fe333 Fe 0.23404 0.07417 0.23906 0.0
O334 O 0.20778 1.02377 0.18915 0.0
O335 O 0.25137 1.0457 0.10675 0.0
O336 O 0.31638 0.12756 0.08083 0.0
C337 C 0.29717 0.15199 0.06903 0.0
C338 C 0.28161 1.02656 0.24851 0.0
O339 O 0.28276 0.16872 0.11125 0.0
C340 C 0.29453 0.15192 0.31173 0.0
O341 O 0.37072 0.13113 0.16782 0.0
O342 O 0.35982 0.19234 0.16717 0.0
O343 O 0.26774 0.0514 0.27641 0.0
O344 O 0.30085 1.03958 0.19606 0.0
C345 C 0.20696 0.1355 0.1964 0.0
O346 O 0.32129 0.17788 0.26966 0.0
O347 O 0.25304 0.11848 0.29984 0.0
C348 C 0.38716 0.17622 0.16527 0.0
O349 O 0.24605 0.16641 0.21641 0.0
O350 O 0.19602 0.09284 0.20102 0.0
C351 C 0.21336 1.01841 0.13414 0.0
Fe352 Fe 1.03874 0.24604 0.13594 0.0
Fe353 Fe 0.93998 0.16826 0.17874 0.0
O354 O 1.00208 0.19385 0.17808 0.0
Fe355 Fe 1.02791 0.16716 0.2194 0.0
O356 O 1.0483 0.1556 0.14944 0.0
O357 O 0.08492 0.22949 0.12084 0.0
O358 O 1.0118 0.21635 0.06657 0.0
C359 C 0.96824 0.19412 0.05504 0.0
C360 C 0.09629 0.26552 0.23513 0.0
O361 O 0.93713 0.18066 0.09686 0.0
C362 C 0.96545 0.16699 0.301 0.0
O363 O 0.99479 0.26881 0.1384 0.0
O364 O 0.94815 0.2234 0.20705 0.0
O365 O 0.08424 0.2221 0.23431 0.0
O366 O 1.07217 0.27957 0.20459 0.0
C367 C 0.94595 0.08873 0.17277 0.0
O368 O 0.93398 0.15105 0.25949 0.0
O369 O 1.00766 0.17851 0.28964 0.0
C370 C 0.95656 0.25443 0.16914 0.0
O371 O 0.92881 0.11182 0.15056 0.0
O372 O 0.97736 0.1067 0.21348 0.0
C373 C 0.08019 0.18825 0.11872 0.0
Fe374 Fe 0.95317 0.79988 0.18016 0.0
Fe375 Fe 0.94965 0.88825 0.21495 0.0
O376 O 0.92454 0.83344 0.17756 0.0
Fe377 Fe 0.86997 0.81196 0.1369 0.0
O378 O 0.89913 0.81516 0.06702 0.0
O379 O 0.93994 0.78192 0.0988 0.0
O380 O 1.00823 0.84549 0.15054 0.0
C381 C 1.02984 0.88799 0.16617 0.0
C382 C 0.86978 0.72627 0.17225 0.0
O383 O 1.01182 0.90406 0.20361 0.0
C384 C 0.84969 0.84966 0.23577 0.0
O385 O 0.97194 0.81459 0.26021 0.0
O386 O 0.94544 0.86212 0.288 0.0
O387 O 0.85222 0.74647 0.14065 0.0
O388 O 0.89964 0.75222 0.21023 0.0
C389 C 0.91874 0.91087 0.1157 0.0
O390 O 0.8922 0.88367 0.2332 0.0
O391 O 0.83733 0.81097 0.20639 0.0
C392 C 0.95822 0.83272 0.30113 0.0
O393 O 0.95449 0.91555 0.14314 0.0
O394 O 0.87969 0.87211 0.1201 0.0
C395 C 0.92378 0.79617 0.05631 0.0
C396 C 0.63533 0.30117 0.93494 0.0
C397 C 0.60575 0.2577 0.96284 0.0
H398 H 0.64053 0.36401 0.89886 0.0
C399 C 0.55645 0.23839 0.96019 0.0
H400 H 0.67328 0.31545 0.93315 0.0
C401 C 0.53774 0.26591 0.93956 0.0
C402 C 0.56838 0.31307 0.92311 0.0
H403 H 0.53269 0.20384 0.9789 0.0
H404 H 0.50043 0.25325 0.94662 0.0
C405 C 0.6163 0.32798 0.91279 0.0
C406 C 0.80368 0.33113 0.01957 0.0
C407 C 0.81163 0.30303 0.97746 0.0
H408 H 0.83256 0.39026 0.07926 0.0
C409 C 0.85845 0.31502 0.96459 0.0
H410 H 0.76831 0.3232 0.03186 0.0
C411 C 0.8963 0.35541 0.99174 0.0
C412 C 0.88753 0.38315 0.03348 0.0
H413 H 0.86568 0.29381 0.93312 0.0
H414 H 0.93223 0.36537 0.97941 0.0
C415 C 0.84082 0.36966 0.04799 0.0
C416 C 0.76746 0.51104 0.96228 0.0
C417 C 0.73511 0.46445 0.9805 0.0
H418 H 0.83978 0.56175 0.94451 0.0
C419 C 0.74807 0.42973 0.97637 0.0
H420 H 0.75759 0.53816 0.96224 0.0
C421 C 0.79502 0.44315 0.96376 0.0
C422 C 0.82924 0.49143 0.95715 0.0
H423 H 0.7234 0.39338 0.98826 0.0
H424 H 0.80567 0.41674 0.96698 0.0
C425 C 0.8144 0.52453 0.95066 0.0
C426 C 0.80104 0.49453 0.51395 0.0
C427 C 0.80989 0.53143 0.47359 0.0
H428 H 0.82841 0.46496 0.57587 0.0
C429 C 0.85673 0.56817 0.46585 0.0
H430 H 0.76559 0.46558 0.52241 0.0
C431 C 0.89381 0.5667 0.49613 0.0
C432 C 0.88415 0.5294 0.53615 0.0
H433 H 0.86461 0.5974 0.43609 0.0
H434 H 0.92996 0.59413 0.48744 0.0
C435 C 0.83727 0.49437 0.54595 0.0
C436 C 0.53448 0.29092 0.44003 0.0
C437 C 0.56401 0.27243 0.42628 0.0
H438 H 0.53123 0.3509 0.47349 0.0
C439 C 0.61239 0.30383 0.41635 0.0
H440 H 0.49692 0.26746 0.44689 0.0
C441 C 0.63249 0.35106 0.43459 0.0
C442 C 0.60379 0.36758 0.4593 0.0
H443 H 0.63583 0.29036 0.40501 0.0
H444 H 0.67059 0.37379 0.4328 0.0
C445 C 0.55433 0.33837 0.457 0.0
C446 C 0.73931 0.33561 0.48762 0.0
C447 C 0.72739 0.28817 0.49113 0.0
H448 H 0.79539 0.40691 0.47708 0.0
C449 C 0.76102 0.27527 0.47371 0.0
H450 H 0.71385 0.34638 0.49933 0.0
C451 C 0.80758 0.30973 0.46144 0.0
C452 C 0.82106 0.35758 0.46635 0.0
H453 H 0.75227 0.23857 0.47364 0.0
H454 H 0.83372 0.29894 0.45475 0.0
C455 C 0.78588 0.37011 0.47459 0.0
C456 C 0.26314 0.63518 0.30529 0.0
C457 C 0.29794 0.68297 0.3024 0.0
H458 H 0.24761 0.56552 0.32717 0.0
C459 C 0.34601 0.69582 0.30726 0.0
H460 H 0.22592 0.62421 0.30171 0.0
C461 C 0.35859 0.6625 0.32423 0.0
C462 C 0.3232 0.61578 0.33509 0.0
H463 H 0.37353 0.73256 0.30412 0.0
H464 H 0.39546 0.67395 0.33268 0.0
C465 C 0.2757 0.60184 0.32153 0.0
C466 C 0.4916 0.68874 0.2842 0.0
C467 C 0.53751 0.703 0.30455 0.0
H468 H 0.42486 0.63059 0.25639 0.0
C469 C 0.55507 0.67177 0.29849 0.0
H470 H 0.47811 0.71302 0.28581 0.0
C471 C 0.52462 0.62466 0.28142 0.0
C472 C 0.47657 0.60861 0.27014 0.0
H473 H 0.59103 0.68262 0.31192 0.0
H474 H 0.53702 0.59965 0.28531 0.0
C475 C 0.46175 0.64207 0.26517 0.0
C476 C 0.48216 0.89552 0.30482 0.0
C477 C 0.49076 0.85796 0.3135 0.0
H478 H 0.43501 0.92229 0.32239 0.0
C479 C 0.45925 0.81957 0.3498 0.0
H480 H 0.50608 0.92577 0.2779 0.0
C481 C 0.42134 0.81916 0.37802 0.0
C482 C 0.4117 0.85563 0.36819 0.0
H483 H 0.46432 0.78979 0.35841 0.0
H484 H 0.39832 0.78884 0.40548 0.0
C485 C 0.44221 0.89392 0.33116 0.0
C486 C 0.48628 0.8069 0.78783 0.0
C487 C 0.53058 0.84258 0.80831 0.0
H488 H 0.41653 0.78923 0.76116 0.0
C489 C 0.54173 0.89003 0.80657 0.0
H490 H 0.47774 0.77027 0.78646 0.0
C491 C 0.50641 0.90084 0.79291 0.0
C492 C 0.46013 0.86425 0.78046 0.0
H493 H 0.5764 0.91818 0.82052 0.0
H494 H 0.51403 0.93686 0.79858 0.0
C495 C 0.45166 0.81789 0.77236 0.0
C496 C 0.2314 0.64552 0.79941 0.0
C497 C 0.27063 0.63974 0.78866 0.0
H498 H 0.2073 0.69125 0.83523 0.0
C499 C 0.31642 0.67873 0.79796 0.0
H500 H 0.1959 0.61682 0.79076 0.0
C501 C 0.32268 0.71922 0.82703 0.0
C502 C 0.28356 0.72354 0.84279 0.0
H503 H 0.34768 0.67621 0.78854 0.0
H504 H 0.35829 0.74702 0.83768 0.0
C505 C 0.2379 0.6876 0.8258 0.0
C506 C 0.45325 0.58039 0.81633 0.0
C507 C 0.41601 0.58993 0.81294 0.0
H508 H 0.5272 0.60805 0.80158 0.0
C509 C 0.42062 0.62703 0.77687 0.0
H510 H 0.44931 0.5503 0.84152 0.0
C511 C 0.46417 0.65844 0.75167 0.0
C512 C 0.50398 0.65447 0.76558 0.0
H513 H 0.39123 0.63314 0.77076 0.0
H514 H 0.46824 0.68987 0.7298 0.0
C515 C 0.49736 0.61269 0.79225 0.0
C516 C 0.90139 0.94756 0.60831 0.0
C517 C 0.9216 0.98891 0.64381 0.0
H518 H 0.89461 0.87912 0.59499 0.0
C519 C 0.94573 0.9906 0.69752 0.0
H520 H 0.88237 0.94526 0.56711 0.0
C521 C 0.95193 0.95336 0.71388 0.0
C522 C 0.93486 0.91328 0.67671 0.0
H523 H 0.9613 1.0216 0.72676 0.0
H524 H 0.97201 0.95704 0.75462 0.0
C525 C 0.9083 0.90989 0.6245 0.0
C526 C 0.20214 1.0167 0.6447 0.0
C527 C 0.18973 0.05156 0.65522 0.0
H528 H 0.17641 0.9437 0.62403 0.0
C529 C 0.14493 1.04321 0.63817 0.0
H530 H 0.23736 1.02336 0.65532 0.0
C531 C 0.11108 0.99868 0.61747 0.0
C532 C 0.121 0.96146 0.61679 0.0
H533 H 0.13552 0.07051 0.64307 0.0
H534 H 0.07542 0.99188 0.60955 0.0
C535 C 0.16769 0.97155 0.62555 0.0
C536 C 0.08051 0.15152 0.61356 0.0
C537 C 1.07483 0.18652 0.64284 0.0
H538 H 0.12903 0.13348 0.57404 0.0
C539 C 0.11212 0.23361 0.6426 0.0
H540 H 1.0514 0.11538 0.61048 0.0
C541 C 0.15686 0.24401 0.62172 0.0
C542 C 0.16423 0.20738 0.60129 0.0
H543 H 0.10759 0.26153 0.6625 0.0
H544 H 0.18631 0.27934 0.62766 0.0
C545 C 0.12459 0.16224 0.59112 0.0
C546 C 0.19224 0.19964 0.1631 0.0
C547 C 0.17844 0.15121 0.16278 0.0
H548 H 0.1724 0.25116 0.14327 0.0
C549 C 0.13947 0.11969 0.12763 0.0
H550 H 0.22337 0.22546 0.18771 0.0
C551 C 0.11197 0.13543 0.09882 0.0
C552 C 0.12111 0.18193 0.10874 0.0
H553 H 0.12885 0.08265 0.12483 0.0
H554 H 0.07995 0.10973 0.0758 0.0
C555 C 0.16392 0.21495 0.13588 0.0
C556 C 0.88134 0.9614 0.1193 0.0
C557 C 0.92016 0.95588 0.10404 0.0
H558 H 0.85915 1.00879 0.15502 0.0
C559 C 0.96515 0.9964 0.09915 0.0
H560 H 0.84608 0.93112 0.12116 0.0
C561 C 0.97282 1.03951 0.12133 0.0
C562 C 0.93528 1.04378 0.14453 0.0
H563 H 0.99566 0.99354 0.08601 0.0
H564 H 1.00855 0.0689 0.12311 0.0
C565 C 0.88888 1.00551 0.13942 0.0
C566 C 0.15708 0.93469 0.1201 0.0
C567 C 0.17072 0.9814 0.1044 0.0
H568 H 0.10157 0.86873 0.15456 0.0
C569 C 0.13523 0.9931 0.09589 0.0
H570 H 0.18357 0.92446 0.12646 0.0
C571 C 0.08915 0.96275 0.11629 0.0
C572 C 0.0773 0.91871 0.1408 0.0
H573 H 0.14484 1.02855 0.08239 0.0
H574 H 1.06336 0.97436 0.11499 0.0
C575 C 0.11052 0.90341 0.13814 0.0
C576 C 0.58552 0.13452 0.28271 0.0
C577 C 0.62099 0.16206 0.32559 0.0
H578 H 0.56537 0.12058 0.18924 0.0
C579 C 0.66501 0.19788 0.3044 0.0
H580 H 0.55108 0.10654 0.29715 0.0
C581 C 0.67304 0.20622 0.24196 0.0
C582 C 0.6373 0.17884 0.19914 0.0
H583 H 0.69293 0.22003 0.33601 0.0
H584 H 0.70744 0.23412 0.22729 0.0
C585 C 0.59357 0.14269 0.22053 0.0
C586 C 1.01282 0.49196 0.31229 0.0
C587 C 1.00093 0.51859 0.35137 0.0
H588 H 1.02044 0.47509 0.221 0.0
C589 C 0.99396 0.55427 0.32817 0.0
H590 H 1.01856 0.46432 0.32978 0.0
C591 C 0.99411 0.55983 0.26547 0.0
C592 C 1.00192 0.53013 0.22615 0.0
H593 H 0.98468 0.57497 0.35784 0.0
H594 H 0.98514 0.58516 0.24766 0.0
C595 C 1.0141 0.49821 0.25014 0.0
C596 C 0.64722 0.54713 0.28048 0.0
C597 C 0.62961 0.50934 0.32162 0.0
H598 H 0.66113 0.5685 0.18738 0.0
C599 C 0.6084 0.46292 0.29941 0.0
H600 H 0.66433 0.58335 0.29696 0.0
C601 C 0.60801 0.45458 0.23711 0.0
C602 C 0.62811 0.4925 0.19598 0.0
H603 H 0.59546 0.43339 0.33031 0.0
H604 H 0.59331 0.4184 0.22125 0.0
C605 C 0.64582 0.53874 0.21799 0.0
C606 C 1.0201 0.55079 0.81162 0.0
C607 C 1.00739 0.51275 0.85112 0.0
H608 H 1.02553 0.5734 0.72023 0.0
C609 C 0.99628 0.46845 0.82777 0.0
H610 H 1.02838 0.58526 0.82899 0.0
C611 C 0.99334 0.46128 0.76501 0.0
C612 C 1.00213 0.4986 0.72561 0.0
H613 H 0.98595 0.4387 0.85765 0.0
H614 H 0.98128 0.42594 0.74748 0.0
C615 C 1.01833 0.54401 0.74936 0.0
C616 C 0.67648 0.48891 0.73662 0.0
C617 C 0.63975 0.48033 0.69561 0.0
H618 H 0.69871 0.49581 0.8297 0.0
C619 C 0.59681 0.47342 0.71918 0.0
H620 H 0.71036 0.49497 0.72022 0.0
C621 C 0.59044 0.47429 0.78176 0.0
C622 C 0.62686 0.48234 0.82286 0.0
H623 H 0.56795 0.46726 0.68932 0.0
H624 H 0.5565 0.46824 0.7979 0.0
C625 C 0.67014 0.48999 0.79948 0.0
C626 C 0.60298 0.15995 0.80368 0.0
C627 C 0.63188 0.14249 0.8237 0.0
H628 H 0.57782 0.18101 0.72725 0.0
C629 C 0.65329 0.12703 0.78073 0.0
H630 H 0.58659 0.17253 0.83592 0.0
C631 C 0.64774 0.13109 0.71858 0.0
C632 C 0.62185 0.15202 0.69862 0.0
H633 H 0.67589 0.1135 0.79537 0.0
H634 H 0.66598 0.12057 0.68646 0.0
C635 C 0.59847 0.1652 0.74162 0.0
C636 C 0.3344 0.49276 0.58332 0.0
C637 C 0.29755 0.47872 0.54068 0.0
H638 H 0.35391 0.50143 0.67745 0.0
C639 C 0.25064 0.45682 0.56097 0.0
H640 H 0.37094 0.50936 0.5686 0.0
C641 C 0.24116 0.45302 0.62314 0.0
C642 C 0.27828 0.46972 0.66574 0.0
H643 H 0.2217 0.44569 0.52911 0.0
H644 H 0.20494 0.43914 0.63806 0.0
C645 C 0.32478 0.48782 0.64544 0.0
C646 C 0.62685 0.85259 0.57277 0.0
C647 C 0.63777 0.82659 0.53074 0.0
H648 H 0.62632 0.87175 0.66608 0.0
C649 C 0.66242 0.80444 0.55116 0.0
H650 H 0.60876 0.87101 0.55828 0.0
C651 C 0.67252 0.80514 0.61289 0.0
C652 C 0.65912 0.82882 0.65523 0.0
H653 H 0.6719 0.78475 0.51999 0.0
H654 H 0.68881 0.78515 0.62807 0.0
C655 C 0.63771 0.85395 0.63437 0.0
C656 C 0.30408 0.88941 0.63799 0.0
C657 C 0.28181 0.85254 0.67988 0.0
H658 H 0.31662 0.9087 0.54493 0.0
C659 C 0.24845 0.80707 0.65998 0.0
H660 H 0.32942 0.92503 0.65292 0.0
C661 C 0.2415 0.79752 0.59792 0.0
C662 C 0.26753 0.83359 0.55573 0.0
H663 H 0.23083 0.77838 0.6919 0.0
H664 H 0.21811 0.76139 0.58303 0.0
C665 C 0.29663 0.88013 0.57629 0.0
C666 C 0.65217 0.87595 0.05201 0.0
C667 C 0.63628 0.83013 0.02967 0.0
H668 H 0.66889 0.92025 0.13078 0.0
C669 C 0.6312 0.7947 0.07033 0.0
H670 H 0.65696 0.90403 0.02191 0.0
C671 C 0.63901 0.80419 0.1325 0.0
C672 C 0.65136 0.84906 0.15514 0.0
H673 H 0.61988 0.75914 0.05426 0.0
H674 H 0.63239 0.77574 0.16308 0.0
C675 C 0.65919 0.88519 0.11424 0.0
C676 C 0.33961 0.88232 0.09549 0.0
C677 C 0.30284 0.85395 0.05446 0.0
H678 H 0.36095 0.89754 0.18897 0.0
C679 C 0.25737 0.82352 0.07673 0.0
H680 H 0.37496 0.90667 0.07933 0.0
C681 C 0.24978 0.81828 0.13888 0.0
C682 C 0.28717 0.84413 0.17982 0.0
H683 H 0.22834 0.80156 0.04637 0.0
H684 H 0.21499 0.79225 0.15513 0.0
C685 C 0.3317 0.87761 0.15801 0.0
C686 C 0.30759 0.47035 0.06336 0.0
C687 C 0.29779 0.50474 0.04201 0.0
H688 H 0.31794 0.43743 0.1398 0.0
C689 C 0.28821 0.5315 0.08457 0.0
H690 H 0.31456 0.44876 0.03218 0.0
C691 C 0.28989 0.5249 0.14705 0.0
C692 C 0.30121 0.49145 0.16816 0.0
H693 H 0.27997 0.55807 0.0697 0.0
H694 H 0.28375 0.54686 0.1786 0.0
C695 C 0.30929 0.46382 0.12543 0.0
C696 C 0.98435 0.79839 0.91041 0.0
C697 C 0.95104 0.7958 0.86771 0.0
H698 H 1.00135 0.7995 1.00453 0.0
C699 C 0.90604 0.78526 0.8875 0.0
H700 H 1.01918 0.80581 0.89612 0.0
C701 C 0.89617 0.78207 0.94935 0.0
C702 C 0.93087 0.78865 0.99225 0.0
H703 H 0.87965 0.78275 0.85566 0.0
H704 H 0.86211 0.77682 0.96378 0.0
C705 C 0.97418 0.79449 0.97232 0.0
C706 C 0.31646 0.15454 0.89952 0.0
C707 C 0.28621 0.16968 0.87744 0.0
H708 H 0.34423 0.13817 0.97656 0.0
C709 C 0.26154 0.18237 0.91946 0.0
H710 H 0.33638 0.14507 0.86881 0.0
C711 C 0.26594 0.17845 0.98208 0.0
C712 C 0.29516 0.16185 1.00387 0.0
H713 H 0.2381 0.19462 0.90402 0.0
H714 H 0.24556 0.18708 0.01311 0.0
C715 C 0.32093 0.15076 0.96171 0.0
C716 C 0.92224 0.13243 0.9059 0.0
C717 C 0.95137 0.1686 0.86524 0.0
H718 H 0.90353 0.11265 0.9988 0.0
C719 C 0.97954 0.21484 0.88737 0.0
H720 H 0.89937 0.09651 0.88984 0.0
C721 C 0.98181 0.22381 0.94965 0.0
C722 C 0.95523 0.18695 0.99054 0.0
H723 H 1.00189 0.2434 0.85713 0.0
H724 H 1.00632 0.25916 0.96625 0.0
C725 C 0.92391 0.14162 0.9681 0.0
C726 C 0.33713 0.20915 0.39675 0.0
C727 C 0.30851 0.16252 0.37609 0.0
H728 H 0.36239 0.25537 0.4742 0.0
C729 C 0.28987 0.12543 0.41843 0.0
H730 H 0.35205 0.23828 0.36518 0.0
C731 C 0.29695 0.13505 0.48062 0.0
C732 C 0.32203 0.18194 0.50133 0.0
H733 H 0.26816 0.08901 0.40351 0.0
H734 H 0.27972 0.1062 0.51242 0.0
C735 C 0.34324 0.21881 0.45898 0.0
C736 C 0.90703 0.13804 0.38581 0.0
C737 C 0.95296 0.16842 0.36484 0.0
H738 H 0.86267 0.10891 0.46344 0.0
C739 C 0.98834 0.1985 0.40638 0.0
H740 H 0.87908 0.11488 0.35482 0.0
C741 C 0.97877 0.19574 0.46839 0.0
C742 C 0.93394 0.16237 0.48956 0.0
H743 H 1.02396 0.22295 0.39112 0.0
H744 H 1.00714 0.21717 0.49986 0.0
C745 C 0.89772 0.13474 0.44781 0.0
C746 C 0.93099 0.82952 0.40867 0.0
C747 C 0.95754 0.82013 0.36583 0.0
H748 H 0.91316 0.8296 0.50263 0.0
C749 C 0.983 0.79863 0.38562 0.0
H750 H 0.91027 0.84534 0.39477 0.0
C751 C 0.98445 0.78968 0.4472 0.0
C752 C 0.95969 0.80103 0.49022 0.0
H753 H 1.00335 0.79045 0.35395 0.0
H754 H 1.00656 0.77552 0.46166 0.0
C755 C 0.93184 0.81978 0.47029 0.0
C756 C 0.52439 1.00823 0.88956 0.0
C757 C 0.48519 0.98957 0.92931 0.0
H758 H 0.60047 1.04549 0.87922 0.0
C759 C 0.49517 0.99409 0.99176 0.0
H760 H 0.51841 1.00402 0.84115 0.0
C761 C 0.54214 1.01842 0.01374 0.0
C762 C 0.58168 1.03813 0.97437 0.0
H763 H 0.46635 0.97807 0.024 0.0
H764 H 0.54755 1.02259 0.06232 0.0
C765 C 0.57173 1.03125 0.91156 0.0
C766 C 0.11293 0.58528 0.91798 0.0
C767 C 0.11017 0.59012 0.98118 0.0
H768 H 0.13552 0.55722 0.84447 0.0
C769 C 0.13607 0.57556 0.01779 0.0
H770 H 0.09523 0.59732 0.88796 0.0
C771 C 0.16076 0.55434 0.99277 0.0
C772 C 0.15944 0.54523 0.93025 0.0
H773 H 0.13574 0.57891 0.06665 0.0
H774 H 0.18084 0.54473 0.02261 0.0
C775 C 0.13578 0.56181 0.89309 0.0
C776 C 0.58874 0.60939 0.8881 0.0
C777 C 0.59753 0.64693 0.92762 0.0
H778 H 0.56301 0.53512 0.8767 0.0
C779 C 0.58145 0.63501 0.98789 0.0
H780 H 0.59877 0.61651 0.84089 0.0
C781 C 0.56138 0.58794 0.00905 0.0
C782 C 0.55377 0.5503 0.96991 0.0
H783 H 0.58544 0.66249 0.01924 0.0
H784 H 0.5547 0.58151 0.05711 0.0
C785 C 0.56618 0.5621 0.90834 0.0
C786 C 0.12653 0.58756 0.51362 0.0
C787 C 0.1033 0.54688 0.47584 0.0
H788 H 0.16812 0.6633 0.52139 0.0
C789 C 0.10831 0.55496 0.41266 0.0
H790 H 0.12472 0.58392 0.56245 0.0
C791 C 0.13221 0.60173 0.38887 0.0
C792 C 0.15265 0.64203 0.42747 0.0
H793 H 0.09263 0.52522 0.38165 0.0
H794 H 0.13575 0.60631 0.34024 0.0
C795 C 0.15056 0.63369 0.49009 0.0
C796 C 0.56791 0.55929 0.41398 0.0
C797 C 0.57942 0.56422 0.47637 0.0
H798 H 0.51304 0.52998 0.34565 0.0
C799 C 0.54088 0.54577 0.5173 0.0
H800 H 0.59585 0.57288 0.38052 0.0
C801 C 0.49337 0.52194 0.49725 0.0
C802 C 0.48181 0.51409 0.43518 0.0
H803 H 0.54752 0.5484 0.56566 0.0
H804 H 0.46541 0.50908 0.53076 0.0
C805 C 0.52009 0.53371 0.39386 0.0
C806 C 0.57366 0.98764 0.3908 0.0
C807 C 0.58566 0.96238 0.4316 0.0
H808 H 0.54768 1.03581 0.37823 0.0
C809 C 0.57293 0.96219 0.49282 0.0
H810 H 0.58069 0.98707 0.3429 0.0
C811 C 0.55351 0.99017 0.51333 0.0
C812 C 0.54366 1.01756 0.47301 0.0
H813 H 0.57951 0.94153 0.5254 0.0
H814 H 0.54947 0.99312 0.56164 0.0
C815 C 0.55259 1.01407 0.41091 0.0
C816 C 0.20449 0.31998 0.34147 0.0
C817 C 0.24227 0.35047 0.30341 0.0
H818 H 0.12965 0.27051 0.35063 0.0
C819 C 0.23053 0.35167 0.2419 0.0
H820 H 0.21086 0.3192 0.38948 0.0
C821 C 0.18314 0.32695 0.22078 0.0
C822 C 0.1454 0.29848 0.25973 0.0
H823 H 0.25765 0.37571 0.21112 0.0
H824 H 0.17609 0.32993 0.17358 0.0
C825 C 0.15731 0.29368 0.31972 0.0
C826 C 0.76552 0.8997 0.24275 0.0
C827 C 0.76317 0.90766 0.3054 0.0
H828 H 0.7887 0.86916 0.17293 0.0
C829 C 0.78952 0.89516 0.34429 0.0
H830 H 0.74662 0.90902 0.21068 0.0
C831 C 0.81553 0.87432 0.32209 0.0
C832 C 0.81457 0.8628 0.26033 0.0
H833 H 0.78886 0.90027 0.39278 0.0
H834 H 0.8363 0.86684 0.35358 0.0
C835 C 0.78937 0.87622 0.221 0.0
C836 C 0.22185 0.88949 0.24695 0.0
C837 C 0.21062 0.87786 0.30863 0.0
H838 H 0.25642 0.94467 0.18035 0.0
C839 C 0.2214 0.9161 0.34869 0.0
H840 H 0.2134 0.86171 0.21405 0.0
C841 C 0.24551 0.96352 0.32944 0.0
C842 C 0.26054 0.97555 0.26905 0.0
H843 H 0.21342 0.90949 0.39651 0.0
H844 H 0.25304 0.9911 0.36259 0.0
C845 C 0.2474 0.93746 0.22779 0.0
C846 C 0.80838 0.97389 0.82302 0.0
C847 C 0.8145 0.98104 0.76024 0.0
H848 H 0.77892 0.9245 0.89594 0.0
C849 C 0.79855 0.94032 0.72296 0.0
H850 H 0.82254 1.00408 0.8536 0.0
C851 C 0.77498 0.89402 0.74745 0.0
C852 C 0.76637 0.88681 0.81028 0.0
H853 H 0.80512 0.94433 0.67465 0.0
H854 H 0.76182 0.86394 0.71685 0.0
C855 C 0.78449 0.92792 0.8474 0.0
C856 C 0.15265 0.863 0.82432 0.0
C857 C 0.14653 0.86051 0.76103 0.0
H858 H 0.20044 0.88599 0.90002 0.0
C859 C 0.18803 0.88573 0.72581 0.0
H860 H 0.12188 0.84671 0.85352 0.0
C861 C 0.23379 0.91116 0.75284 0.0
C862 C 0.24005 0.91126 0.81626 0.0
H863 H 0.18504 0.8867 0.67712 0.0
H864 H 0.2644 0.92919 0.72378 0.0
C865 C 0.19812 0.88712 0.85116 0.0
C866 C 0.25779 0.32166 0.82449 0.0
C867 C 0.26321 0.31919 0.76151 0.0
H868 H 0.23553 0.34943 0.89814 0.0
C869 C 0.2438 0.34016 0.72429 0.0
H870 H 0.26972 0.30386 0.85483 0.0
C871 C 0.21968 0.36243 0.74895 0.0
C872 C 0.21724 0.36792 0.8122 0.0
H873 H 0.24654 0.33854 0.67563 0.0
H874 H 0.2054 0.37781 0.7183 0.0
C875 C 0.23639 0.34642 0.84929 0.0
C876 C 0.82834 0.62519 0.64949 0.0
C877 C 0.81618 0.62835 0.58936 0.0
H878 H 0.88241 0.65106 0.71801 0.0
C879 C 0.8537 0.6561 0.54929 0.0
H880 H 0.80106 0.60227 0.681 0.0
C881 C 0.90138 0.68178 0.56958 0.0
C882 C 0.91301 0.68199 0.63122 0.0
H883 H 0.84628 0.65724 0.50174 0.0
H884 H 0.92866 0.70358 0.53755 0.0
C885 C 0.8755 0.65203 0.6702 0.0
C886 C 0.43144 0.23201 0.58668 0.0
C887 C 0.4253 0.23551 0.6497 0.0
H888 H 0.45493 0.20306 0.51492 0.0
C889 C 0.44372 0.21401 0.68804 0.0
H890 H 0.41841 0.24791 0.555 0.0
C891 C 0.46568 0.1892 0.66499 0.0
C892 C 0.46911 0.18306 0.60221 0.0
H893 H 0.44003 0.2153 0.73671 0.0
H894 H 0.47986 0.17436 0.69677 0.0
C895 C 0.45181 0.20536 0.56347 0.0
C896 C 0.90362 0.27132 0.55097 0.0
C897 C 0.92127 0.31052 0.59124 0.0
H898 H 0.86915 0.19517 0.54032 0.0
C899 C 0.9131 0.30048 0.65341 0.0
H900 H 0.90663 0.2772 0.50255 0.0
C901 C 0.89119 0.25375 0.67502 0.0
C902 C 0.8754 0.21425 0.6356 0.0
H903 H 0.92383 0.32919 0.68585 0.0
H904 H 0.88811 0.24859 0.72361 0.0
C905 C 0.88073 0.22396 0.57271 0.0
C906 C 0.43362 0.22546 0.07885 0.0
C907 C 0.4338 0.2136 0.14049 0.0
H908 H 0.45327 0.28001 0.01196 0.0
C909 C 0.46249 0.25176 0.17983 0.0
H910 H 0.41106 0.19802 0.04689 0.0
C911 C 0.48622 0.2993 0.15989 0.0
C912 C 0.48186 0.31125 0.09972 0.0
H913 H 0.46262 0.24529 0.22788 0.0
H914 H 0.50674 0.32709 0.19257 0.0
C915 C 0.4563 0.2731 0.05915 0.0
C916 C 0.87189 0.23586 0.1807 0.0
C917 C 0.91165 0.25022 0.14238 0.0
H918 H 0.79647 0.20704 0.18869 0.0
C919 C 0.90301 0.24701 0.07937 0.0
H920 H 0.87645 0.23751 0.22944 0.0
C921 C 0.85625 0.22655 0.05615 0.0
C922 C 0.81657 0.20997 0.09489 0.0
H923 H 0.932 0.25773 0.04786 0.0
H924 H 0.85115 0.2241 0.00752 0.0
C925 C 0.82554 0.21688 0.15745 0.0
C926 C 0.92343 0.64595 0.15911 0.0
C927 C 0.92522 0.63934 0.09636 0.0
H928 H 0.90332 0.67627 0.23163 0.0
C929 C 0.90134 0.65541 0.05852 0.0
H930 H 0.93898 0.63194 0.19007 0.0
C931 C 0.87873 0.67955 0.0827 0.0
C932 C 0.87966 0.68881 0.1456 0.0
H933 H 0.89945 0.6486 0.0102 0.0
H934 H 0.86243 0.69276 0.0518 0.0
C935 C 0.90159 0.67037 0.18308 0.0
loop_
_geom_bond_atom_site_label_1
_geom_bond_atom_site_label_2
_geom_bond_distance
_geom_bond_site_symmetry_2
_ccdc_geom_bond_type
Fe0 O2 1.918 1_556 S
Fe0 O5 1.997 . S
Fe0 O6 2.002 . S
Fe0 O11 1.976 . S
Fe0 O14 1.996 1_556 S
Fe1 O2 1.918 . S
Fe1 O9 1.997 1_554 S
Fe1 O12 1.996 1_554 S
Fe1 O16 1.976 . S
Fe1 O19 2.002 . S
O2 Fe0 1.918 1_554 S
O2 Fe1 1.918 . S
O2 Fe3 1.918 . S
Fe3 O2 1.918 . S
Fe3 O4 2.002 . S
Fe3 O13 1.976 . S
Fe3 O17 1.996 . S
Fe3 O20 1.997 . S
O4 Fe3 2.002 . S
O4 C21 1.295 1_554 S
O5 Fe0 1.997 . S
O5 C21 1.235 . S
O6 Fe0 2.002 . S
O6 C7 1.295 . S
C7 O6 1.295 . S
C7 O9 1.235 . S
C8 O13 1.287 . S
C8 O14 1.255 . S
O9 Fe1 1.997 1_556 S
O9 C7 1.235 . S
C10 O16 1.287 . S
C10 O17 1.255 . S
O11 Fe0 1.976 . S
O11 C18 1.287 . S
O12 Fe1 1.996 1_556 S
O12 C18 1.255 . S
O13 Fe3 1.976 . S
O13 C8 1.287 . S
O14 Fe0 1.996 1_554 S
O14 C8 1.255 . S
C15 O19 1.295 . S
C15 O20 1.235 . S
O16 Fe1 1.976 . S
O16 C10 1.287 . S
O17 Fe3 1.996 . S
O17 C10 1.255 . S
C18 O11 1.287 . S
C18 O12 1.255 . S
O19 Fe1 2.002 . S
O19 C15 1.295 . S
O20 Fe3 1.997 . S
O20 C15 1.235 . S
C21 O4 1.295 1_556 S
C21 O5 1.235 . S
Fe22 O24 1.918 1_556 S
Fe22 O27 1.997 . S
Fe22 O28 2.002 . S
Fe22 O33 1.976 . S
Fe22 O36 1.996 1_556 S
Fe23 O24 1.918 . S
Fe23 O31 1.997 1_554 S
Fe23 O34 1.996 1_554 S
Fe23 O38 1.976 . S
Fe23 O41 2.002 . S
O24 Fe22 1.918 1_554 S
O24 Fe23 1.918 . S
O24 Fe25 1.918 . S
Fe25 O24 1.918 . S
Fe25 O26 2.002 . S
Fe25 O35 1.976 . S
Fe25 O39 1.996 . S
Fe25 O42 1.997 . S
O26 Fe25 2.002 . S
O26 C43 1.295 1_554 S
O27 Fe22 1.997 . S
O27 C43 1.235 . S
O28 Fe22 2.002 . S
O28 C29 1.295 . S
C29 O28 1.295 . S
C29 O31 1.235 . S
C30 O35 1.287 . S
C30 O36 1.255 . S
O31 Fe23 1.997 1_556 S
O31 C29 1.235 . S
C32 O38 1.287 . S
C32 O39 1.255 . S
O33 Fe22 1.976 . S
O33 C40 1.287 . S
O34 Fe23 1.996 1_556 S
O34 C40 1.255 . S
O35 Fe25 1.976 . S
O35 C30 1.287 . S
O36 Fe22 1.996 1_554 S
O36 C30 1.255 . S
C37 O41 1.295 . S
C37 O42 1.235 . S
O38 Fe23 1.976 . S
O38 C32 1.287 . S
O39 Fe25 1.996 . S
O39 C32 1.255 . S
C40 O33 1.287 . S
C40 O34 1.255 . S
O41 Fe23 2.002 . S
O41 C37 1.295 . S
O42 Fe25 1.997 . S
O42 C37 1.235 . S
C43 O26 1.295 1_556 S
C43 O27 1.235 . S
Fe44 O46 1.918 1_556 S
Fe44 O49 1.997 . S
Fe44 O50 2.002 . S
Fe44 O55 1.976 . S
Fe44 O58 1.996 1_556 S
Fe45 O46 1.918 . S
Fe45 O53 1.997 1_554 S
Fe45 O56 1.996 1_554 S
Fe45 O60 1.976 . S
Fe45 O63 2.002 . S
O46 Fe44 1.918 1_554 S
O46 Fe45 1.918 . S
O46 Fe47 1.918 . S
Fe47 O46 1.918 . S
Fe47 O48 2.002 . S
Fe47 O57 1.976 . S
Fe47 O61 1.996 . S
Fe47 O64 1.997 . S
O48 Fe47 2.002 . S
O48 C65 1.295 1_554 S
O49 Fe44 1.997 . S
O49 C65 1.235 . S
O50 Fe44 2.002 . S
O50 C51 1.295 . S
C51 O50 1.295 . S
C51 O53 1.235 . S
C52 O57 1.287 . S
C52 O58 1.255 . S
O53 Fe45 1.997 1_556 S
O53 C51 1.235 . S
C54 O60 1.287 . S
C54 O61 1.255 . S
O55 Fe44 1.976 . S
O55 C62 1.287 . S
O56 Fe45 1.996 1_556 S
O56 C62 1.255 . S
O57 Fe47 1.976 . S
O57 C52 1.287 . S
O58 Fe44 1.996 1_554 S
O58 C52 1.255 . S
C59 O63 1.295 . S
C59 O64 1.235 . S
O60 Fe45 1.976 . S
O60 C54 1.287 . S
O61 Fe47 1.996 . S
O61 C54 1.255 . S
C62 O55 1.287 . S
C62 O56 1.255 . S
O63 Fe45 2.002 . S
O63 C59 1.295 . S
O64 Fe47 1.997 . S
O64 C59 1.235 . S
C65 O48 1.295 1_556 S
C65 O49 1.235 . S
Fe66 O68 1.918 . S
Fe66 O71 1.997 . S
Fe66 O72 2.002 . S
Fe66 O77 1.976 . S
Fe66 O80 1.996 . S
Fe67 O68 1.918 . S
Fe67 O75 1.997 . S
Fe67 O78 1.996 . S
Fe67 O82 1.976 . S
Fe67 O85 2.002 . S
O68 Fe66 1.918 . S
O68 Fe67 1.918 . S
O68 Fe69 1.918 . S
Fe69 O68 1.918 . S
Fe69 O70 2.002 . S
Fe69 O79 1.976 . S
Fe69 O83 1.996 . S
Fe69 O86 1.997 . S
O70 Fe69 2.002 . S
O70 C87 1.295 . S
O71 Fe66 1.997 . S
O71 C87 1.235 . S
O72 Fe66 2.002 . S
O72 C73 1.295 . S
C73 O72 1.295 . S
C73 O75 1.235 . S
C74 O79 1.287 . S
C74 O80 1.255 . S
O75 Fe67 1.997 . S
O75 C73 1.235 . S
C76 O82 1.287 . S
C76 O83 1.255 . S
O77 Fe66 1.976 . S
O77 C84 1.287 . S
O78 Fe67 1.996 . S
O78 C84 1.255 . S
O79 Fe69 1.976 . S
O79 C74 1.287 . S
O80 Fe66 1.996 . S
O80 C74 1.255 . S
C81 O85 1.295 . S
C81 O86 1.235 . S
O82 Fe67 1.976 . S
O82 C76 1.287 . S
O83 Fe69 1.996 . S
O83 C76 1.255 . S
C84 O77 1.287 . S
C84 O78 1.255 . S
O85 Fe67 2.002 . S
O85 C81 1.295 . S
O86 Fe69 1.997 . S
O86 C81 1.235 . S
C87 O70 1.295 . S
C87 O71 1.235 . S
Fe88 O90 1.918 . S
Fe88 O93 1.997 . S
Fe88 O94 2.002 . S
Fe88 O99 1.976 . S
Fe88 O102 1.996 . S
Fe89 O90 1.918 . S
Fe89 O97 1.997 . S
Fe89 O100 1.996 . S
Fe89 O104 1.976 . S
Fe89 O107 2.002 . S
O90 Fe88 1.918 . S
O90 Fe89 1.918 . S
O90 Fe91 1.918 . S
Fe91 O90 1.918 . S
Fe91 O92 2.002 . S
Fe91 O101 1.976 . S
Fe91 O105 1.996 . S
Fe91 O108 1.997 . S
O92 Fe91 2.002 . S
O92 C109 1.295 . S
O93 Fe88 1.997 . S
O93 C109 1.235 . S
O94 Fe88 2.002 . S
O94 C95 1.295 . S
C95 O94 1.295 . S
C95 O97 1.235 . S
C96 O101 1.287 . S
C96 O102 1.255 . S
O97 Fe89 1.997 . S
O97 C95 1.235 . S
C98 O104 1.287 . S
C98 O105 1.255 . S
O99 Fe88 1.976 . S
O99 C106 1.287 . S
O100 Fe89 1.996 . S
O100 C106 1.255 . S
O101 Fe91 1.976 . S
O101 C96 1.287 . S
O102 Fe88 1.996 . S
O102 C96 1.255 . S
C103 O107 1.295 . S
C103 O108 1.235 . S
O104 Fe89 1.976 . S
O104 C98 1.287 . S
O105 Fe91 1.996 . S
O105 C98 1.255 . S
C106 O99 1.287 . S
C106 O100 1.255 . S
O107 Fe89 2.002 . S
O107 C103 1.295 . S
O108 Fe91 1.997 . S
O108 C103 1.235 . S
C109 O92 1.295 . S
C109 O93 1.235 . S
Fe110 O112 1.918 . S
Fe110 O115 1.997 . S
Fe110 O116 2.002 . S
Fe110 O121 1.976 . S
Fe110 O124 1.996 . S
Fe111 O112 1.918 . S
Fe111 O119 1.997 . S
Fe111 O122 1.996 . S
Fe111 O126 1.976 . S
Fe111 O129 2.002 . S
O112 Fe110 1.918 . S
O112 Fe111 1.918 . S
O112 Fe113 1.918 . S
Fe113 O112 1.918 . S
Fe113 O114 2.002 . S
Fe113 O123 1.976 . S
Fe113 O127 1.996 . S
Fe113 O130 1.997 . S
O114 Fe113 2.002 . S
O114 C131 1.295 . S
O115 Fe110 1.997 . S
O115 C131 1.235 . S
O116 Fe110 2.002 . S
O116 C117 1.295 . S
C117 O116 1.295 . S
C117 O119 1.235 . S
C118 O123 1.287 . S
C118 O124 1.255 . S
O119 Fe111 1.997 . S
O119 C117 1.235 . S
C120 O126 1.287 . S
C120 O127 1.255 . S
O121 Fe110 1.976 . S
O121 C128 1.287 . S
O122 Fe111 1.996 . S
O122 C128 1.255 . S
O123 Fe113 1.976 . S
O123 C118 1.287 . S
O124 Fe110 1.996 . S
O124 C118 1.255 . S
C125 O129 1.295 . S
C125 O130 1.235 . S
O126 Fe111 1.976 . S
O126 C120 1.287 . S
O127 Fe113 1.996 . S
O127 C120 1.255 . S
C128 O121 1.287 . S
C128 O122 1.255 . S
O129 Fe111 2.002 . S
O129 C125 1.295 . S
O130 Fe113 1.997 . S
O130 C125 1.235 . S
C131 O114 1.295 . S
C131 O115 1.235 . S
Fe132 O134 1.918 . S
Fe132 O137 1.997 . S
Fe132 O138 2.002 . S
Fe132 O143 1.976 . S
Fe132 O146 1.996 . S
Fe133 O134 1.918 . S
Fe133 O141 1.997 . S
Fe133 O144 1.996 . S
Fe133 O148 1.976 . S
Fe133 O151 2.002 . S
O134 Fe132 1.918 . S
O134 Fe133 1.918 . S
O134 Fe135 1.918 . S
Fe135 O134 1.918 . S
Fe135 O136 2.002 . S
Fe135 O145 1.976 . S
Fe135 O149 1.996 . S
Fe135 O152 1.997 . S
O136 Fe135 2.002 . S
O136 C153 1.295 . S
O137 Fe132 1.997 . S
O137 C153 1.235 . S
O138 Fe132 2.002 . S
O138 C139 1.295 . S
C139 O138 1.295 . S
C139 O141 1.235 . S
C140 O145 1.287 . S
C140 O146 1.255 . S
O141 Fe133 1.997 . S
O141 C139 1.235 . S
C142 O148 1.287 . S
C142 O149 1.255 . S
O143 Fe132 1.976 . S
O143 C150 1.287 . S
O144 Fe133 1.996 . S
O144 C150 1.255 . S
O145 Fe135 1.976 . S
O145 C140 1.287 . S
O146 Fe132 1.996 . S
O146 C140 1.255 . S
C147 O151 1.295 . S
C147 O152 1.235 . S
O148 Fe133 1.976 . S
O148 C142 1.287 . S
O149 Fe135 1.996 . S
O149 C142 1.255 . S
C150 O143 1.287 . S
C150 O144 1.255 . S
O151 Fe133 2.002 . S
O151 C147 1.295 . S
O152 Fe135 1.997 . S
O152 C147 1.235 . S
C153 O136 1.295 . S
C153 O137 1.235 . S
Fe154 O156 1.918 . S
Fe154 O159 1.997 . S
Fe154 O160 2.002 . S
Fe154 O165 1.976 . S
Fe154 O168 1.996 . S
Fe155 O156 1.918 . S
Fe155 O163 1.997 . S
Fe155 O166 1.996 . S
Fe155 O170 1.976 . S
Fe155 O173 2.002 . S
O156 Fe154 1.918 . S
O156 Fe155 1.918 . S
O156 Fe157 1.918 . S
Fe157 O156 1.918 . S
Fe157 O158 2.002 . S
Fe157 O167 1.976 . S
Fe157 O171 1.996 . S
Fe157 O174 1.997 . S
O158 Fe157 2.002 . S
O158 C175 1.295 . S
O159 Fe154 1.997 . S
O159 C175 1.235 . S
O160 Fe154 2.002 . S
O160 C161 1.295 . S
C161 O160 1.295 . S
C161 O163 1.235 . S
C162 O167 1.287 . S
C162 O168 1.255 . S
O163 Fe155 1.997 . S
O163 C161 1.235 . S
C164 O170 1.287 . S
C164 O171 1.255 . S
O165 Fe154 1.976 . S
O165 C172 1.287 . S
O166 Fe155 1.996 . S
O166 C172 1.255 . S
O167 Fe157 1.976 . S
O167 C162 1.287 . S
O168 Fe154 1.996 . S
O168 C162 1.255 . S
C169 O173 1.295 . S
C169 O174 1.235 . S
O170 Fe155 1.976 . S
O170 C164 1.287 . S
O171 Fe157 1.996 . S
O171 C164 1.255 . S
C172 O165 1.287 . S
C172 O166 1.255 . S
O173 Fe155 2.002 . S
O173 C169 1.295 . S
O174 Fe157 1.997 . S
O174 C169 1.235 . S
C175 O158 1.295 . S
C175 O159 1.235 . S
Fe176 O178 1.918 . S
Fe176 O181 1.997 . S
Fe176 O182 2.002 . S
Fe176 O187 1.976 . S
Fe176 O190 1.996 . S
Fe177 O178 1.918 . S
Fe177 O185 1.997 . S
Fe177 O188 1.996 . S
Fe177 O192 1.976 . S
Fe177 O195 2.002 . S
O178 Fe176 1.918 . S
O178 Fe177 1.918 . S
O178 Fe179 1.918 . S
Fe179 O178 1.918 . S
Fe179 O180 2.002 . S
Fe179 O189 1.976 . S
Fe179 O193 1.996 . S
Fe179 O196 1.997 . S
O180 Fe179 2.002 . S
O180 C197 1.295 . S
O181 Fe176 1.997 . S
O181 C197 1.235 . S
O182 Fe176 2.002 . S
O182 C183 1.295 . S
C183 O182 1.295 . S
C183 O185 1.235 . S
C184 O189 1.287 . S
C184 O190 1.255 . S
O185 Fe177 1.997 . S
O185 C183 1.235 . S
C186 O192 1.287 . S
C186 O193 1.255 . S
O187 Fe176 1.976 . S
O187 C194 1.287 . S
O188 Fe177 1.996 . S
O188 C194 1.255 . S
O189 Fe179 1.976 . S
O189 C184 1.287 . S
O190 Fe176 1.996 . S
O190 C184 1.255 . S
C191 O195 1.295 . S
C191 O196 1.235 . S
O192 Fe177 1.976 . S
O192 C186 1.287 . S
O193 Fe179 1.996 . S
O193 C186 1.255 . S
C194 O187 1.287 . S
C194 O188 1.255 . S
O195 Fe177 2.002 . S
O195 C191 1.295 . S
O196 Fe179 1.997 . S
O196 C191 1.235 . S
C197 O180 1.295 . S
C197 O181 1.235 . S
Fe198 O200 1.918 . S
Fe198 O203 1.997 . S
Fe198 O204 2.002 . S
Fe198 O209 1.976 . S
Fe198 O212 1.996 . S
Fe199 O200 1.918 . S
Fe199 O207 1.997 . S
Fe199 O210 1.996 . S
Fe199 O214 1.976 . S
Fe199 O217 2.002 . S
O200 Fe198 1.918 . S
O200 Fe199 1.918 . S
O200 Fe201 1.918 . S
Fe201 O200 1.918 . S
Fe201 O202 2.002 . S
Fe201 O211 1.976 . S
Fe201 O215 1.996 . S
Fe201 O218 1.997 . S
O202 Fe201 2.002 . S
O202 C219 1.295 . S
O203 Fe198 1.997 . S
O203 C219 1.235 . S
O204 Fe198 2.002 . S
O204 C205 1.295 . S
C205 O204 1.295 . S
C205 O207 1.235 . S
C206 O211 1.287 . S
C206 O212 1.255 . S
O207 Fe199 1.997 . S
O207 C205 1.235 . S
C208 O214 1.287 . S
C208 O215 1.255 . S
O209 Fe198 1.976 . S
O209 C216 1.287 . S
O210 Fe199 1.996 . S
O210 C216 1.255 . S
O211 Fe201 1.976 . S
O211 C206 1.287 . S
O212 Fe198 1.996 . S
O212 C206 1.255 . S
C213 O217 1.295 . S
C213 O218 1.235 . S
O214 Fe199 1.976 . S
O214 C208 1.287 . S
O215 Fe201 1.996 . S
O215 C208 1.255 . S
C216 O209 1.287 . S
C216 O210 1.255 . S
O217 Fe199 2.002 . S
O217 C213 1.295 . S
O218 Fe201 1.997 . S
O218 C213 1.235 . S
C219 O202 1.295 . S
C219 O203 1.235 . S
Fe220 O222 1.918 . S
Fe220 O225 1.997 . S
Fe220 O226 2.002 . S
Fe220 O231 1.976 . S
Fe220 O234 1.996 . S
Fe221 O222 1.918 . S
Fe221 O229 1.997 . S
Fe221 O232 1.996 . S
Fe221 O236 1.976 . S
Fe221 O239 2.002 . S
O222 Fe220 1.918 . S
O222 Fe221 1.918 . S
O222 Fe223 1.918 . S
Fe223 O222 1.918 . S
Fe223 O224 2.002 . S
Fe223 O233 1.976 . S
Fe223 O237 1.996 . S
Fe223 O240 1.997 . S
O224 Fe223 2.002 . S
O224 C241 1.295 . S
O225 Fe220 1.997 . S
O225 C241 1.235 . S
O226 Fe220 2.002 . S
O226 C227 1.295 . S
C227 O226 1.295 . S
C227 O229 1.235 . S
C228 O233 1.287 . S
C228 O234 1.255 . S
O229 Fe221 1.997 . S
O229 C227 1.235 . S
C230 O236 1.287 . S
C230 O237 1.255 . S
O231 Fe220 1.976 . S
O231 C238 1.287 . S
O232 Fe221 1.996 . S
O232 C238 1.255 . S
O233 Fe223 1.976 . S
O233 C228 1.287 . S
O234 Fe220 1.996 . S
O234 C228 1.255 . S
C235 O239 1.295 . S
C235 O240 1.235 . S
O236 Fe221 1.976 . S
O236 C230 1.287 . S
O237 Fe223 1.996 . S
O237 C230 1.255 . S
C238 O231 1.287 . S
C238 O232 1.255 . S
O239 Fe221 2.002 . S
O239 C235 1.295 . S
O240 Fe223 1.997 . S
O240 C235 1.235 . S
C241 O224 1.295 . S
C241 O225 1.235 . S
Fe242 O244 1.918 . S
Fe242 O247 1.997 . S
Fe242 O248 2.002 . S
Fe242 O253 1.976 . S
Fe242 O256 1.996 . S
Fe243 O244 1.918 . S
Fe243 O251 1.997 . S
Fe243 O254 1.996 . S
Fe243 O258 1.976 . S
Fe243 O261 2.002 . S
O244 Fe242 1.918 . S
O244 Fe243 1.918 . S
O244 Fe245 1.918 . S
Fe245 O244 1.918 . S
Fe245 O246 2.002 . S
Fe245 O255 1.976 . S
Fe245 O259 1.996 . S
Fe245 O262 1.997 . S
O246 Fe245 2.002 . S
O246 C263 1.295 . S
O247 Fe242 1.997 . S
O247 C263 1.235 . S
O248 Fe242 2.002 . S
O248 C249 1.295 . S
C249 O248 1.295 . S
C249 O251 1.235 . S
C250 O255 1.287 . S
C250 O256 1.255 . S
O251 Fe243 1.997 . S
O251 C249 1.235 . S
C252 O258 1.287 . S
C252 O259 1.255 . S
O253 Fe242 1.976 . S
O253 C260 1.287 . S
O254 Fe243 1.996 . S
O254 C260 1.255 . S
O255 Fe245 1.976 . S
O255 C250 1.287 . S
O256 Fe242 1.996 . S
O256 C250 1.255 . S
C257 O261 1.295 . S
C257 O262 1.235 . S
O258 Fe243 1.976 . S
O258 C252 1.287 . S
O259 Fe245 1.996 . S
O259 C252 1.255 . S
C260 O253 1.287 . S
C260 O254 1.255 . S
O261 Fe243 2.002 . S
O261 C257 1.295 . S
O262 Fe245 1.997 . S
O262 C257 1.235 . S
C263 O246 1.295 . S
C263 O247 1.235 . S
Fe264 O266 1.918 . S
Fe264 O269 1.997 1_655 S
Fe264 O270 2.002 . S
Fe264 O275 1.976 . S
Fe264 O278 1.996 1_655 S
Fe265 O266 1.918 . S
Fe265 O273 1.997 . S
Fe265 O276 1.996 . S
Fe265 O280 1.976 . S
Fe265 O283 2.002 . S
O266 Fe264 1.918 . S
O266 Fe265 1.918 . S
O266 Fe267 1.918 . S
Fe267 O266 1.918 . S
Fe267 O268 2.002 1_655 S
Fe267 O277 1.976 1_655 S
Fe267 O281 1.996 . S
Fe267 O284 1.997 . S
O268 Fe267 2.002 1_455 S
O268 C285 1.295 . S
O269 Fe264 1.997 1_455 S
O269 C285 1.235 . S
O270 Fe264 2.002 . S
O270 C271 1.295 . S
C271 O270 1.295 . S
C271 O273 1.235 . S
C272 O277 1.287 . S
C272 O278 1.255 . S
O273 Fe265 1.997 . S
O273 C271 1.235 . S
C274 O280 1.287 . S
C274 O281 1.255 . S
O275 Fe264 1.976 . S
O275 C282 1.287 . S
O276 Fe265 1.996 . S
O276 C282 1.255 . S
O277 Fe267 1.976 1_455 S
O277 C272 1.287 . S
O278 Fe264 1.996 1_455 S
O278 C272 1.255 . S
C279 O283 1.295 . S
C279 O284 1.235 . S
O280 Fe265 1.976 . S
O280 C274 1.287 . S
O281 Fe267 1.996 . S
O281 C274 1.255 . S
C282 O275 1.287 . S
C282 O276 1.255 . S
O283 Fe265 2.002 . S
O283 C279 1.295 . S
O284 Fe267 1.997 . S
O284 C279 1.235 . S
C285 O268 1.295 . S
C285 O269 1.235 . S
Fe286 O288 1.918 . S
Fe286 O291 1.997 . S
Fe286 O292 2.002 . S
Fe286 O297 1.976 . S
Fe286 O300 1.996 . S
Fe287 O288 1.918 . S
Fe287 O295 1.997 . S
Fe287 O298 1.996 . S
Fe287 O302 1.976 . S
Fe287 O305 2.002 . S
O288 Fe286 1.918 . S
O288 Fe287 1.918 . S
O288 Fe289 1.918 . S
Fe289 O288 1.918 . S
Fe289 O290 2.002 . S
Fe289 O299 1.976 . S
Fe289 O303 1.996 . S
Fe289 O306 1.997 . S
O290 Fe289 2.002 . S
O290 C307 1.295 . S
O291 Fe286 1.997 . S
O291 C307 1.235 . S
O292 Fe286 2.002 . S
O292 C293 1.295 . S
C293 O292 1.295 . S
C293 O295 1.235 . S
C294 O299 1.287 . S
C294 O300 1.255 . S
O295 Fe287 1.997 . S
O295 C293 1.235 . S
C296 O302 1.287 . S
C296 O303 1.255 . S
O297 Fe286 1.976 . S
O297 C304 1.287 . S
O298 Fe287 1.996 . S
O298 C304 1.255 . S
O299 Fe289 1.976 . S
O299 C294 1.287 . S
O300 Fe286 1.996 . S
O300 C294 1.255 . S
C301 O305 1.295 . S
C301 O306 1.235 . S
O302 Fe287 1.976 . S
O302 C296 1.287 . S
O303 Fe289 1.996 . S
O303 C296 1.255 . S
C304 O297 1.287 . S
C304 O298 1.255 . S
O305 Fe287 2.002 . S
O305 C301 1.295 . S
O306 Fe289 1.997 . S
O306 C301 1.235 . S
C307 O290 1.295 . S
C307 O291 1.235 . S
Fe308 O310 1.918 . S
Fe308 O313 1.997 1_545 S
Fe308 O314 2.002 . S
Fe308 O319 1.976 . S
Fe308 O322 1.996 1_545 S
Fe309 O310 1.918 . S
Fe309 O317 1.997 . S
Fe309 O320 1.996 . S
Fe309 O324 1.976 . S
Fe309 O327 2.002 . S
O310 Fe308 1.918 . S
O310 Fe309 1.918 . S
O310 Fe311 1.918 . S
Fe311 O310 1.918 . S
Fe311 O312 2.002 1_545 S
Fe311 O321 1.976 1_545 S
Fe311 O325 1.996 . S
Fe311 O328 1.997 . S
O312 Fe311 2.002 1_565 S
O312 C329 1.295 . S
O313 Fe308 1.997 1_565 S
O313 C329 1.235 . S
O314 Fe308 2.002 . S
O314 C315 1.295 . S
C315 O314 1.295 . S
C315 O317 1.235 . S
C316 O321 1.287 . S
C316 O322 1.255 . S
O317 Fe309 1.997 . S
O317 C315 1.235 . S
C318 O324 1.287 . S
C318 O325 1.255 . S
O319 Fe308 1.976 . S
O319 C326 1.287 . S
O320 Fe309 1.996 . S
O320 C326 1.255 . S
O321 Fe311 1.976 1_565 S
O321 C316 1.287 . S
O322 Fe308 1.996 1_565 S
O322 C316 1.255 . S
C323 O327 1.295 . S
C323 O328 1.235 . S
O324 Fe309 1.976 . S
O324 C318 1.287 . S
O325 Fe311 1.996 . S
O325 C318 1.255 . S
C326 O319 1.287 . S
C326 O320 1.255 . S
O327 Fe309 2.002 . S
O327 C323 1.295 . S
O328 Fe311 1.997 . S
O328 C323 1.235 . S
C329 O312 1.295 . S
C329 O313 1.235 . S
Fe330 O332 1.918 . S
Fe330 O335 1.997 1_545 S
Fe330 O336 2.002 . S
Fe330 O341 1.976 . S
Fe330 O344 1.996 1_545 S
Fe331 O332 1.918 . S
Fe331 O339 1.997 . S
Fe331 O342 1.996 . S
Fe331 O346 1.976 . S
Fe331 O349 2.002 . S
O332 Fe330 1.918 . S
O332 Fe331 1.918 . S
O332 Fe333 1.918 . S
Fe333 O332 1.918 . S
Fe333 O334 2.002 1_545 S
Fe333 O343 1.976 1_545 S
Fe333 O347 1.996 . S
Fe333 O350 1.997 . S
O334 Fe333 2.002 1_565 S
O334 C351 1.295 . S
O335 Fe330 1.997 1_565 S
O335 C351 1.235 . S
O336 Fe330 2.002 . S
O336 C337 1.295 . S
C337 O336 1.295 . S
C337 O339 1.235 . S
C338 O343 1.287 . S
C338 O344 1.255 . S
O339 Fe331 1.997 . S
O339 C337 1.235 . S
C340 O346 1.287 . S
C340 O347 1.255 . S
O341 Fe330 1.976 . S
O341 C348 1.287 . S
O342 Fe331 1.996 . S
O342 C348 1.255 . S
O343 Fe333 1.976 1_565 S
O343 C338 1.287 . S
O344 Fe330 1.996 1_565 S
O344 C338 1.255 . S
C345 O349 1.295 . S
C345 O350 1.235 . S
O346 Fe331 1.976 . S
O346 C340 1.287 . S
O347 Fe333 1.996 . S
O347 C340 1.255 . S
C348 O341 1.287 . S
C348 O342 1.255 . S
O349 Fe331 2.002 . S
O349 C345 1.295 . S
O350 Fe333 1.997 . S
O350 C345 1.235 . S
C351 O334 1.295 . S
C351 O335 1.235 . S
Fe352 O354 1.918 . S
Fe352 O357 1.997 1_655 S
Fe352 O358 2.002 . S
Fe352 O363 1.976 . S
Fe352 O366 1.996 1_655 S
Fe353 O354 1.918 . S
Fe353 O361 1.997 . S
Fe353 O364 1.996 . S
Fe353 O368 1.976 . S
Fe353 O371 2.002 . S
O354 Fe352 1.918 . S
O354 Fe353 1.918 . S
O354 Fe355 1.918 . S
Fe355 O354 1.918 . S
Fe355 O356 2.002 1_655 S
Fe355 O365 1.976 1_655 S
Fe355 O369 1.996 . S
Fe355 O372 1.997 . S
O356 Fe355 2.002 1_455 S
O356 C373 1.295 . S
O357 Fe352 1.997 1_455 S
O357 C373 1.235 . S
O358 Fe352 2.002 . S
O358 C359 1.295 . S
C359 O358 1.295 . S
C359 O361 1.235 . S
C360 O365 1.287 . S
C360 O366 1.255 . S
O361 Fe353 1.997 . S
O361 C359 1.235 . S
C362 O368 1.287 . S
C362 O369 1.255 . S
O363 Fe352 1.976 . S
O363 C370 1.287 . S
O364 Fe353 1.996 . S
O364 C370 1.255 . S
O365 Fe355 1.976 1_455 S
O365 C360 1.287 . S
O366 Fe352 1.996 1_455 S
O366 C360 1.255 . S
C367 O371 1.295 . S
C367 O372 1.235 . S
O368 Fe353 1.976 . S
O368 C362 1.287 . S
O369 Fe355 1.996 . S
O369 C362 1.255 . S
C370 O363 1.287 . S
C370 O364 1.255 . S
O371 Fe353 2.002 . S
O371 C367 1.295 . S
O372 Fe355 1.997 . S
O372 C367 1.235 . S
C373 O356 1.295 . S
C373 O357 1.235 . S
Fe374 O376 1.918 . S
Fe374 O379 1.997 . S
Fe374 O380 2.002 . S
Fe374 O385 1.976 . S
Fe374 O388 1.996 . S
Fe375 O376 1.918 . S
Fe375 O383 1.997 . S
Fe375 O386 1.996 . S
Fe375 O390 1.976 . S
Fe375 O393 2.002 . S
O376 Fe374 1.918 . S
O376 Fe375 1.918 . S
O376 Fe377 1.918 . S
Fe377 O376 1.918 . S
Fe377 O378 2.002 . S
Fe377 O387 1.976 . S
Fe377 O391 1.996 . S
Fe377 O394 1.997 . S
O378 Fe377 2.002 . S
O378 C395 1.295 . S
O379 Fe374 1.997 . S
O379 C395 1.235 . S
O380 Fe374 2.002 . S
O380 C381 1.295 . S
C381 O380 1.295 . S
C381 O383 1.235 . S
C382 O387 1.287 . S
C382 O388 1.255 . S
O383 Fe375 1.997 . S
O383 C381 1.235 . S
C384 O390 1.287 . S
C384 O391 1.255 . S
O385 Fe374 1.976 . S
O385 C392 1.287 . S
O386 Fe375 1.996 . S
O386 C392 1.255 . S
O387 Fe377 1.976 . S
O387 C382 1.287 . S
O388 Fe374 1.996 . S
O388 C382 1.255 . S
C389 O393 1.295 . S
C389 O394 1.235 . S
O390 Fe375 1.976 . S
O390 C384 1.287 . S
O391 Fe377 1.996 . S
O391 C384 1.255 . S
C392 O385 1.287 . S
C392 O386 1.255 . S
O393 Fe375 2.002 . S
O393 C389 1.295 . S
O394 Fe377 1.997 . S
O394 C389 1.235 . S
C395 O378 1.295 . S
C395 O379 1.235 . S
C396 C397 1.387 . S
C396 H400 0.950 . S
C396 C405 1.390 . S
C397 C396 1.387 . S
C397 C399 1.387 1_554 S
H398 C405 0.950 . S
C399 C397 1.387 1_556 S
C399 C401 1.390 . S
C399 H403 0.950 . S
H400 C396 0.950 . S
C401 C399 1.390 . S
C401 C402 1.387 . S
C401 H404 0.950 . S
C402 C401 1.387 . S
C402 C405 1.387 1_556 S
H403 C399 0.950 . S
H404 C401 0.950 . S
C405 C396 1.390 . S
C405 H398 0.950 . S
C405 C402 1.387 1_554 S
C406 C407 1.387 . S
C406 H410 0.950 . S
C406 C415 1.390 1_556 S
C407 C406 1.387 . S
C407 C409 1.387 . S
H408 C415 0.950 . S
C409 C407 1.387 . S
C409 C411 1.390 1_556 S
C409 H413 0.950 . S
H410 C406 0.950 . S
C411 C409 1.390 1_554 S
C411 C412 1.387 . S
C411 H414 0.950 . S
C412 C411 1.387 . S
C412 C415 1.387 . S
H413 C409 0.950 . S
H414 C411 0.950 . S
C415 C406 1.390 1_554 S
C415 H408 0.950 . S
C415 C412 1.387 . S
C416 C417 1.387 . S
C416 H420 0.950 . S
C416 C425 1.390 . S
C417 C416 1.387 . S
C417 C419 1.387 1_554 S
H418 C425 0.950 . S
C419 C417 1.387 1_556 S
C419 C421 1.390 . S
C419 H423 0.950 . S
H420 C416 0.950 . S
C421 C419 1.390 . S
C421 C422 1.387 . S
C421 H424 0.950 . S
C422 C421 1.387 . S
C422 C425 1.387 1_556 S
H423 C419 0.950 . S
H424 C421 0.950 . S
C425 C416 1.390 . S
C425 H418 0.950 . S
C425 C422 1.387 1_554 S
C426 C427 1.387 . S
C426 H430 0.950 . S
C426 C435 1.390 . S
C427 C426 1.387 . S
C427 C429 1.387 . S
H428 C435 0.950 . S
C429 C427 1.387 . S
C429 C431 1.390 . S
C429 H433 0.950 . S
H430 C426 0.950 . S
C431 C429 1.390 . S
C431 C432 1.387 . S
C431 H434 0.950 . S
C432 C431 1.387 . S
C432 C435 1.387 . S
H433 C429 0.950 . S
H434 C431 0.950 . S
C435 C426 1.390 . S
C435 H428 0.950 . S
C435 C432 1.387 . S
C436 C437 1.387 . S
C436 H440 0.950 . S
C436 C445 1.390 . S
C437 C436 1.387 . S
C437 C439 1.387 . S
H438 C445 0.950 . S
C439 C437 1.387 . S
C439 C441 1.390 . S
C439 H443 0.950 . S
H440 C436 0.950 . S
C441 C439 1.390 . S
C441 C442 1.387 . S
C441 H444 0.950 . S
C442 C441 1.387 . S
C442 C445 1.387 . S
H443 C439 0.950 . S
H444 C441 0.950 . S
C445 C436 1.390 . S
C445 H438 0.950 . S
C445 C442 1.387 . S
C446 C447 1.387 . S
C446 H450 0.950 . S
C446 C455 1.390 . S
C447 C446 1.387 . S
C447 C449 1.387 . S
H448 C455 0.950 . S
C449 C447 1.387 . S
C449 C451 1.390 . S
C449 H453 0.950 . S
H450 C446 0.950 . S
C451 C449 1.390 . S
C451 C452 1.387 . S
C451 H454 0.950 . S
C452 C451 1.387 . S
C452 C455 1.387 . S
H453 C449 0.950 . S
H454 C451 0.950 . S
C455 C446 1.390 . S
C455 H448 0.950 . S
C455 C452 1.387 . S
C456 C457 1.387 . S
C456 H460 0.950 . S
C456 C465 1.390 . S
C457 C456 1.387 . S
C457 C459 1.387 . S
H458 C465 0.950 . S
C459 C457 1.387 . S
C459 C461 1.390 . S
C459 H463 0.950 . S
H460 C456 0.950 . S
C461 C459 1.390 . S
C461 C462 1.387 . S
C461 H464 0.950 . S
C462 C461 1.387 . S
C462 C465 1.387 . S
H463 C459 0.950 . S
H464 C461 0.950 . S
C465 C456 1.390 . S
C465 H458 0.950 . S
C465 C462 1.387 . S
C466 C467 1.387 . S
C466 H470 0.950 . S
C466 C475 1.390 . S
C467 C466 1.387 . S
C467 C469 1.387 . S
H468 C475 0.950 . S
C469 C467 1.387 . S
C469 C471 1.390 . S
C469 H473 0.950 . S
H470 C466 0.950 . S
C471 C469 1.390 . S
C471 C472 1.387 . S
C471 H474 0.950 . S
C472 C471 1.387 . S
C472 C475 1.387 . S
H473 C469 0.950 . S
H474 C471 0.950 . S
C475 C466 1.390 . S
C475 H468 0.950 . S
C475 C472 1.387 . S
C476 C477 1.387 . S
C476 H480 0.950 . S
C476 C485 1.390 . S
C477 C476 1.387 . S
C477 C479 1.387 . S
H478 C485 0.950 . S
C479 C477 1.387 . S
C479 C481 1.390 . S
C479 H483 0.950 . S
H480 C476 0.950 . S
C481 C479 1.390 . S
C481 C482 1.387 . S
C481 H484 0.950 . S
C482 C481 1.387 . S
C482 C485 1.387 . S
H483 C479 0.950 . S
H484 C481 0.950 . S
C485 C476 1.390 . S
C485 H478 0.950 . S
C485 C482 1.387 . S
C486 C487 1.387 . S
C486 H490 0.950 . S
C486 C495 1.390 . S
C487 C486 1.387 . S
C487 C489 1.387 . S
H488 C495 0.950 . S
C489 C487 1.387 . S
C489 C491 1.390 . S
C489 H493 0.950 . S
H490 C486 0.950 . S
C491 C489 1.390 . S
C491 C492 1.387 . S
C491 H494 0.950 . S
C492 C491 1.387 . S
C492 C495 1.387 . S
H493 C489 0.950 . S
H494 C491 0.950 . S
C495 C486 1.390 . S
C495 H488 0.950 . S
C495 C492 1.387 . S
C496 C497 1.387 . S
C496 H500 0.950 . S
C496 C505 1.390 . S
C497 C496 1.387 . S
C497 C499 1.387 . S
H498 C505 0.950 . S
C499 C497 1.387 . S
C499 C501 1.390 . S
C499 H503 0.950 . S
H500 C496 0.950 . S
C501 C499 1.390 . S
C501 C502 1.387 . S
C501 H504 0.950 . S
C502 C501 1.387 . S
C502 C505 1.387 . S
H503 C499 0.950 . S
H504 C501 0.950 . S
C505 C496 1.390 . S
C505 H498 0.950 . S
C505 C502 1.387 . S
C506 C507 1.387 . S
C506 H510 0.950 . S
C506 C515 1.390 . S
C507 C506 1.387 . S
C507 C509 1.387 . S
H508 C515 0.950 . S
C509 C507 1.387 . S
C509 C511 1.390 . S
C509 H513 0.950 . S
H510 C506 0.950 . S
C511 C509 1.390 . S
C511 C512 1.387 . S
C511 H514 0.950 . S
C512 C511 1.387 . S
C512 C515 1.387 . S
H513 C509 0.950 . S
H514 C511 0.950 . S
C515 C506 1.390 . S
C515 H508 0.950 . S
C515 C512 1.387 . S
C516 C517 1.387 . S
C516 H520 0.950 . S
C516 C525 1.390 . S
C517 C516 1.387 . S
C517 C519 1.387 . S
H518 C525 0.950 . S
C519 C517 1.387 . S
C519 C521 1.390 . S
C519 H523 0.950 . S
H520 C516 0.950 . S
C521 C519 1.390 . S
C521 C522 1.387 . S
C521 H524 0.950 . S
C522 C521 1.387 . S
C522 C525 1.387 . S
H523 C519 0.950 . S
H524 C521 0.950 . S
C525 C516 1.390 . S
C525 H518 0.950 . S
C525 C522 1.387 . S
C526 C527 1.387 . S
C526 H530 0.950 . S
C526 C535 1.390 . S
C527 C526 1.387 . S
C527 C529 1.387 . S
H528 C535 0.950 . S
C529 C527 1.387 . S
C529 C531 1.390 . S
C529 H533 0.950 1_565 S
H530 C526 0.950 . S
C531 C529 1.390 . S
C531 C532 1.387 . S
C531 H534 0.950 . S
C532 C531 1.387 . S
C532 C535 1.387 . S
H533 C529 0.950 1_545 S
H534 C531 0.950 . S
C535 C526 1.390 . S
C535 H528 0.950 . S
C535 C532 1.387 . S
C536 C537 1.387 . S
C536 H540 0.950 1_455 S
C536 C545 1.390 . S
C537 C536 1.387 . S
C537 C539 1.387 . S
H538 C545 0.950 . S
C539 C537 1.387 . S
C539 C541 1.390 . S
C539 H543 0.950 . S
H540 C536 0.950 1_655 S
C541 C539 1.390 . S
C541 C542 1.387 . S
C541 H544 0.950 . S
C542 C541 1.387 . S
C542 C545 1.387 . S
H543 C539 0.950 . S
H544 C541 0.950 . S
C545 C536 1.390 . S
C545 H538 0.950 . S
C545 C542 1.387 . S
C546 C547 1.387 . S
C546 H550 0.950 . S
C546 C555 1.390 . S
C547 C546 1.387 . S
C547 C549 1.387 . S
H548 C555 0.950 . S
C549 C547 1.387 . S
C549 C551 1.390 . S
C549 H553 0.950 . S
H550 C546 0.950 . S
C551 C549 1.390 . S
C551 C552 1.387 . S
C551 H554 0.950 . S
C552 C551 1.387 . S
C552 C555 1.387 . S
H553 C549 0.950 . S
H554 C551 0.950 . S
C555 C546 1.390 . S
C555 H548 0.950 . S
C555 C552 1.387 . S
C556 C557 1.387 . S
C556 H560 0.950 . S
C556 C565 1.390 . S
C557 C556 1.387 . S
C557 C559 1.387 . S
H558 C565 0.950 . S
C559 C557 1.387 . S
C559 C561 1.390 . S
C559 H563 0.950 . S
H560 C556 0.950 . S
C561 C559 1.390 . S
C561 C562 1.387 . S
C561 H564 0.950 . S
C562 C561 1.387 . S
C562 C565 1.387 . S
H563 C559 0.950 . S
H564 C561 0.950 . S
C565 C556 1.390 . S
C565 H558 0.950 . S
C565 C562 1.387 . S
C566 C567 1.387 . S
C566 H570 0.950 . S
C566 C575 1.390 . S
C567 C566 1.387 . S
C567 C569 1.387 . S
H568 C575 0.950 1_655 S
C569 C567 1.387 . S
C569 C571 1.390 . S
C569 H573 0.950 . S
H570 C566 0.950 . S
C571 C569 1.390 . S
C571 C572 1.387 . S
C571 H574 0.950 . S
C572 C571 1.387 . S
C572 C575 1.387 . S
H573 C569 0.950 . S
H574 C571 0.950 . S
C575 C566 1.390 . S
C575 H568 0.950 1_455 S
C575 C572 1.387 . S
C576 C577 1.387 . S
C576 H580 0.950 . S
C576 C585 1.390 . S
C577 C576 1.387 . S
C577 C579 1.387 . S
H578 C585 0.950 . S
C579 C577 1.387 . S
C579 C581 1.390 . S
C579 H583 0.950 . S
H580 C576 0.950 . S
C581 C579 1.390 . S
C581 C582 1.387 . S
C581 H584 0.950 . S
C582 C581 1.387 . S
C582 C585 1.387 . S
H583 C579 0.950 . S
H584 C581 0.950 . S
C585 C576 1.390 . S
C585 H578 0.950 . S
C585 C582 1.387 . S
C586 C587 1.387 . S
C586 H590 0.950 . S
C586 C595 1.390 . S
C587 C586 1.387 . S
C587 C589 1.387 . S
H588 C595 0.950 . S
C589 C587 1.387 . S
C589 C591 1.390 . S
C589 H593 0.950 . S
H590 C586 0.950 . S
C591 C589 1.390 . S
C591 C592 1.387 . S
C591 H594 0.950 . S
C592 C591 1.387 . S
C592 C595 1.387 . S
H593 C589 0.950 . S
H594 C591 0.950 . S
C595 C586 1.390 . S
C595 H588 0.950 . S
C595 C592 1.387 . S
C596 C597 1.387 . S
C596 H600 0.950 . S
C596 C605 1.390 . S
C597 C596 1.387 . S
C597 C599 1.387 . S
H598 C605 0.950 . S
C599 C597 1.387 . S
C599 C601 1.390 . S
C599 H603 0.950 . S
H600 C596 0.950 . S
C601 C599 1.390 . S
C601 C602 1.387 . S
C601 H604 0.950 . S
C602 C601 1.387 . S
C602 C605 1.387 . S
H603 C599 0.950 . S
H604 C601 0.950 . S
C605 C596 1.390 . S
C605 H598 0.950 . S
C605 C602 1.387 . S
C606 C607 1.387 . S
C606 H610 0.950 . S
C606 C615 1.390 . S
C607 C606 1.387 . S
C607 C609 1.387 . S
H608 C615 0.950 . S
C609 C607 1.387 . S
C609 C611 1.390 . S
C609 H613 0.950 . S
H610 C606 0.950 . S
C611 C609 1.390 . S
C611 C612 1.387 . S
C611 H614 0.950 . S
C612 C611 1.387 . S
C612 C615 1.387 . S
H613 C609 0.950 . S
H614 C611 0.950 . S
C615 C606 1.390 . S
C615 H608 0.950 . S
C615 C612 1.387 . S
C616 C617 1.387 . S
C616 H620 0.950 . S
C616 C625 1.390 . S
C617 C616 1.387 . S
C617 C619 1.387 . S
H618 C625 0.950 . S
C619 C617 1.387 . S
C619 C621 1.390 . S
C619 H623 0.950 . S
H620 C616 0.950 . S
C621 C619 1.390 . S
C621 C622 1.387 . S
C621 H624 0.950 . S
C622 C621 1.387 . S
C622 C625 1.387 . S
H623 C619 0.950 . S
H624 C621 0.950 . S
C625 C616 1.390 . S
C625 H618 0.950 . S
C625 C622 1.387 . S
C626 C627 1.387 . S
C626 H630 0.950 . S
C626 C635 1.390 . S
C627 C626 1.387 . S
C627 C629 1.387 . S
H628 C635 0.950 . S
C629 C627 1.387 . S
C629 C631 1.390 . S
C629 H633 0.950 . S
H630 C626 0.950 . S
C631 C629 1.390 . S
C631 C632 1.387 . S
C631 H634 0.950 . S
C632 C631 1.387 . S
C632 C635 1.387 . S
H633 C629 0.950 . S
H634 C631 0.950 . S
C635 C626 1.390 . S
C635 H628 0.950 . S
C635 C632 1.387 . S
C636 C637 1.387 . S
C636 H640 0.950 . S
C636 C645 1.390 . S
C637 C636 1.387 . S
C637 C639 1.387 . S
H638 C645 0.950 . S
C639 C637 1.387 . S
C639 C641 1.390 . S
C639 H643 0.950 . S
H640 C636 0.950 . S
C641 C639 1.390 . S
C641 C642 1.387 . S
C641 H644 0.950 . S
C642 C641 1.387 . S
C642 C645 1.387 . S
H643 C639 0.950 . S
H644 C641 0.950 . S
C645 C636 1.390 . S
C645 H638 0.950 . S
C645 C642 1.387 . S
C646 C647 1.387 . S
C646 H650 0.950 . S
C646 C655 1.390 . S
C647 C646 1.387 . S
C647 C649 1.387 . S
H648 C655 0.950 . S
C649 C647 1.387 . S
C649 C651 1.390 . S
C649 H653 0.950 . S
H650 C646 0.950 . S
C651 C649 1.390 . S
C651 C652 1.387 . S
C651 H654 0.950 . S
C652 C651 1.387 . S
C652 C655 1.387 . S
H653 C649 0.950 . S
H654 C651 0.950 . S
C655 C646 1.390 . S
C655 H648 0.950 . S
C655 C652 1.387 . S
C656 C657 1.387 . S
C656 H660 0.950 . S
C656 C665 1.390 . S
C657 C656 1.387 . S
C657 C659 1.387 . S
H658 C665 0.950 . S
C659 C657 1.387 . S
C659 C661 1.390 . S
C659 H663 0.950 . S
H660 C656 0.950 . S
C661 C659 1.390 . S
C661 C662 1.387 . S
C661 H664 0.950 . S
C662 C661 1.387 . S
C662 C665 1.387 . S
H663 C659 0.950 . S
H664 C661 0.950 . S
C665 C656 1.390 . S
C665 H658 0.950 . S
C665 C662 1.387 . S
C666 C667 1.387 . S
C666 H670 0.950 . S
C666 C675 1.390 . S
C667 C666 1.387 . S
C667 C669 1.387 . S
H668 C675 0.950 . S
C669 C667 1.387 . S
C669 C671 1.390 . S
C669 H673 0.950 . S
H670 C666 0.950 . S
C671 C669 1.390 . S
C671 C672 1.387 . S
C671 H674 0.950 . S
C672 C671 1.387 . S
C672 C675 1.387 . S
H673 C669 0.950 . S
H674 C671 0.950 . S
C675 C666 1.390 . S
C675 H668 0.950 . S
C675 C672 1.387 . S
C676 C677 1.387 . S
C676 H680 0.950 . S
C676 C685 1.390 . S
C677 C676 1.387 . S
C677 C679 1.387 . S
H678 C685 0.950 . S
C679 C677 1.387 . S
C679 C681 1.390 . S
C679 H683 0.950 . S
H680 C676 0.950 . S
C681 C679 1.390 . S
C681 C682 1.387 . S
C681 H684 0.950 . S
C682 C681 1.387 . S
C682 C685 1.387 . S
H683 C679 0.950 . S
H684 C681 0.950 . S
C685 C676 1.390 . S
C685 H678 0.950 . S
C685 C682 1.387 . S
C686 C687 1.387 . S
C686 H690 0.950 . S
C686 C695 1.390 . S
C687 C686 1.387 . S
C687 C689 1.387 . S
H688 C695 0.950 . S
C689 C687 1.387 . S
C689 C691 1.390 . S
C689 H693 0.950 . S
H690 C686 0.950 . S
C691 C689 1.390 . S
C691 C692 1.387 . S
C691 H694 0.950 . S
C692 C691 1.387 . S
C692 C695 1.387 . S
H693 C689 0.950 . S
H694 C691 0.950 . S
C695 C686 1.390 . S
C695 H688 0.950 . S
C695 C692 1.387 . S
C696 C697 1.387 . S
C696 H700 0.950 . S
C696 C705 1.390 . S
C697 C696 1.387 . S
C697 C699 1.387 . S
H698 C705 0.950 . S
C699 C697 1.387 . S
C699 C701 1.390 . S
C699 H703 0.950 . S
H700 C696 0.950 . S
C701 C699 1.390 . S
C701 C702 1.387 . S
C701 H704 0.950 . S
C702 C701 1.387 . S
C702 C705 1.387 . S
H703 C699 0.950 . S
H704 C701 0.950 . S
C705 C696 1.390 . S
C705 H698 0.950 . S
C705 C702 1.387 . S
C706 C707 1.387 . S
C706 H710 0.950 . S
C706 C715 1.390 . S
C707 C706 1.387 . S
C707 C709 1.387 . S
H708 C715 0.950 . S
C709 C707 1.387 . S
C709 C711 1.390 . S
C709 H713 0.950 . S
H710 C706 0.950 . S
C711 C709 1.390 . S
C711 C712 1.387 . S
C711 H714 0.950 . S
C712 C711 1.387 . S
C712 C715 1.387 . S
H713 C709 0.950 . S
H714 C711 0.950 . S
C715 C706 1.390 . S
C715 H708 0.950 . S
C715 C712 1.387 . S
C716 C717 1.387 . S
C716 H720 0.950 . S
C716 C725 1.390 . S
C717 C716 1.387 . S
C717 C719 1.387 . S
H718 C725 0.950 . S
C719 C717 1.387 . S
C719 C721 1.390 . S
C719 H723 0.950 . S
H720 C716 0.950 . S
C721 C719 1.390 . S
C721 C722 1.387 . S
C721 H724 0.950 . S
C722 C721 1.387 . S
C722 C725 1.387 . S
H723 C719 0.950 . S
H724 C721 0.950 . S
C725 C716 1.390 . S
C725 H718 0.950 . S
C725 C722 1.387 . S
C726 C727 1.387 . S
C726 H730 0.950 . S
C726 C735 1.390 . S
C727 C726 1.387 . S
C727 C729 1.387 . S
H728 C735 0.950 . S
C729 C727 1.387 . S
C729 C731 1.390 . S
C729 H733 0.950 . S
H730 C726 0.950 . S
C731 C729 1.390 . S
C731 C732 1.387 . S
C731 H734 0.950 . S
C732 C731 1.387 . S
C732 C735 1.387 . S
H733 C729 0.950 . S
H734 C731 0.950 . S
C735 C726 1.390 . S
C735 H728 0.950 . S
C735 C732 1.387 . S
C736 C737 1.387 . S
C736 H740 0.950 . S
C736 C745 1.390 . S
C737 C736 1.387 . S
C737 C739 1.387 . S
H738 C745 0.950 . S
C739 C737 1.387 . S
C739 C741 1.390 . S
C739 H743 0.950 . S
H740 C736 0.950 . S
C741 C739 1.390 . S
C741 C742 1.387 . S
C741 H744 0.950 . S
C742 C741 1.387 . S
C742 C745 1.387 . S
H743 C739 0.950 . S
H744 C741 0.950 . S
C745 C736 1.390 . S
C745 H738 0.950 . S
C745 C742 1.387 . S
C746 C747 1.387 . S
C746 H750 0.950 . S
C746 C755 1.390 . S
C747 C746 1.387 . S
C747 C749 1.387 . S
H748 C755 0.950 . S
C749 C747 1.387 . S
C749 C751 1.390 . S
C749 H753 0.950 . S
H750 C746 0.950 . S
C751 C749 1.390 . S
C751 C752 1.387 . S
C751 H754 0.950 . S
C752 C751 1.387 . S
C752 C755 1.387 . S
H753 C749 0.950 . S
H754 C751 0.950 . S
C755 C746 1.390 . S
C755 H748 0.950 . S
C755 C752 1.387 . S
C756 C757 1.387 . S
C756 H760 0.950 . S
C756 C765 1.390 . S
C757 C756 1.387 . S
C757 C759 1.387 . S
H758 C765 0.950 1_545 S
C759 C757 1.387 . S
C759 C761 1.390 . S
C759 H763 0.950 1_556 S
H760 C756 0.950 . S
C761 C759 1.390 . S
C761 C762 1.387 . S
C761 H764 0.950 1_556 S
C762 C761 1.387 . S
C762 C765 1.387 . S
H763 C759 0.950 1_554 S
H764 C761 0.950 1_554 S
C765 C756 1.390 . S
C765 H758 0.950 1_565 S
C765 C762 1.387 . S
C766 C767 1.387 . S
C766 H770 0.950 . S
C766 C775 1.390 . S
C767 C766 1.387 . S
C767 C769 1.387 . S
H768 C775 0.950 . S
C769 C767 1.387 . S
C769 C771 1.390 . S
C769 H773 0.950 1_556 S
H770 C766 0.950 . S
C771 C769 1.390 . S
C771 C772 1.387 . S
C771 H774 0.950 1_556 S
C772 C771 1.387 . S
C772 C775 1.387 . S
H773 C769 0.950 1_554 S
H774 C771 0.950 1_554 S
C775 C766 1.390 . S
C775 H768 0.950 . S
C775 C772 1.387 . S
C776 C777 1.387 . S
C776 H780 0.950 . S
C776 C785 1.390 . S
C777 C776 1.387 . S
C777 C779 1.387 . S
H778 C785 0.950 . S
C779 C777 1.387 . S
C779 C781 1.390 . S
C779 H783 0.950 . S
H780 C776 0.950 . S
C781 C779 1.390 . S
C781 C782 1.387 . S
C781 H784 0.950 . S
C782 C781 1.387 . S
C782 C785 1.387 . S
H783 C779 0.950 . S
H784 C781 0.950 . S
C785 C776 1.390 . S
C785 H778 0.950 . S
C785 C782 1.387 . S
C786 C787 1.387 1_655 S
C786 H790 0.950 . S
C786 C795 1.390 1_655 S
C787 C786 1.387 1_455 S
C787 C789 1.387 . S
H788 C795 0.950 . S
C789 C787 1.387 . S
C789 C791 1.390 . S
C789 H793 0.950 . S
H790 C786 0.950 . S
C791 C789 1.390 . S
C791 C792 1.387 . S
C791 H794 0.950 . S
C792 C791 1.387 . S
C792 C795 1.387 . S
H793 C789 0.950 . S
H794 C791 0.950 . S
C795 C786 1.390 1_455 S
C795 H788 0.950 . S
C795 C792 1.387 . S
C796 C797 1.387 . S
C796 H800 0.950 . S
C796 C805 1.390 . S
C797 C796 1.387 . S
C797 C799 1.387 . S
H798 C805 0.950 . S
C799 C797 1.387 . S
C799 C801 1.390 . S
C799 H803 0.950 . S
H800 C796 0.950 . S
C801 C799 1.390 . S
C801 C802 1.387 . S
C801 H804 0.950 . S
C802 C801 1.387 . S
C802 C805 1.387 . S
H803 C799 0.950 . S
H804 C801 0.950 . S
C805 C796 1.390 . S
C805 H798 0.950 . S
C805 C802 1.387 . S
C806 C807 1.387 . S
C806 H810 0.950 . S
C806 C815 1.390 . S
C807 C806 1.387 . S
C807 C809 1.387 . S
H808 C815 0.950 1_545 S
C809 C807 1.387 . S
C809 C811 1.390 . S
C809 H813 0.950 . S
H810 C806 0.950 . S
C811 C809 1.390 . S
C811 C812 1.387 . S
C811 H814 0.950 . S
C812 C811 1.387 . S
C812 C815 1.387 . S
H813 C809 0.950 . S
H814 C811 0.950 . S
C815 C806 1.390 . S
C815 H808 0.950 1_565 S
C815 C812 1.387 . S
C816 C817 1.387 . S
C816 H820 0.950 . S
C816 C825 1.390 . S
C817 C816 1.387 . S
C817 C819 1.387 . S
H818 C825 0.950 . S
C819 C817 1.387 . S
C819 C821 1.390 . S
C819 H823 0.950 . S
H820 C816 0.950 . S
C821 C819 1.390 . S
C821 C822 1.387 . S
C821 H824 0.950 . S
C822 C821 1.387 . S
C822 C825 1.387 . S
H823 C819 0.950 . S
H824 C821 0.950 . S
C825 C816 1.390 . S
C825 H818 0.950 . S
C825 C822 1.387 . S
C826 C827 1.387 . S
C826 H830 0.950 . S
C826 C835 1.390 . S
C827 C826 1.387 . S
C827 C829 1.387 . S
H828 C835 0.950 . S
C829 C827 1.387 . S
C829 C831 1.390 . S
C829 H833 0.950 . S
H830 C826 0.950 . S
C831 C829 1.390 . S
C831 C832 1.387 . S
C831 H834 0.950 . S
C832 C831 1.387 . S
C832 C835 1.387 . S
H833 C829 0.950 . S
H834 C831 0.950 . S
C835 C826 1.390 . S
C835 H828 0.950 . S
C835 C832 1.387 . S
C836 C837 1.387 . S
C836 H840 0.950 . S
C836 C845 1.390 . S
C837 C836 1.387 . S
C837 C839 1.387 . S
H838 C845 0.950 . S
C839 C837 1.387 . S
C839 C841 1.390 . S
C839 H843 0.950 . S
H840 C836 0.950 . S
C841 C839 1.390 . S
C841 C842 1.387 . S
C841 H844 0.950 . S
C842 C841 1.387 . S
C842 C845 1.387 . S
H843 C839 0.950 . S
H844 C841 0.950 . S
C845 C836 1.390 . S
C845 H838 0.950 . S
C845 C842 1.387 . S
C846 C847 1.387 . S
C846 H850 0.950 . S
C846 C855 1.390 . S
C847 C846 1.387 . S
C847 C849 1.387 . S
H848 C855 0.950 . S
C849 C847 1.387 . S
C849 C851 1.390 . S
C849 H853 0.950 . S
H850 C846 0.950 . S
C851 C849 1.390 . S
C851 C852 1.387 . S
C851 H854 0.950 . S
C852 C851 1.387 . S
C852 C855 1.387 . S
H853 C849 0.950 . S
H854 C851 0.950 . S
C855 C846 1.390 . S
C855 H848 0.950 . S
C855 C852 1.387 . S
C856 C857 1.387 . S
C856 H860 0.950 . S
C856 C865 1.390 . S
C857 C856 1.387 . S
C857 C859 1.387 . S
H858 C865 0.950 . S
C859 C857 1.387 . S
C859 C861 1.390 . S
C859 H863 0.950 . S
H860 C856 0.950 . S
C861 C859 1.390 . S
C861 C862 1.387 . S
C861 H864 0.950 . S
C862 C861 1.387 . S
C862 C865 1.387 . S
H863 C859 0.950 . S
H864 C861 0.950 . S
C865 C856 1.390 . S
C865 H858 0.950 . S
C865 C862 1.387 . S
C866 C867 1.387 . S
C866 H870 0.950 . S
C866 C875 1.390 . S
C867 C866 1.387 . S
C867 C869 1.387 . S
H868 C875 0.950 . S
C869 C867 1.387 . S
C869 C871 1.390 . S
C869 H873 0.950 . S
H870 C866 0.950 . S
C871 C869 1.390 . S
C871 C872 1.387 . S
C871 H874 0.950 . S
C872 C871 1.387 . S
C872 C875 1.387 . S
H873 C869 0.950 . S
H874 C871 0.950 . S
C875 C866 1.390 . S
C875 H868 0.950 . S
C875 C872 1.387 . S
C876 C877 1.387 . S
C876 H880 0.950 . S
C876 C885 1.390 . S
C877 C876 1.387 . S
C877 C879 1.387 . S
H878 C885 0.950 . S
C879 C877 1.387 . S
C879 C881 1.390 . S
C879 H883 0.950 . S
H880 C876 0.950 . S
C881 C879 1.390 . S
C881 C882 1.387 . S
C881 H884 0.950 . S
C882 C881 1.387 . S
C882 C885 1.387 . S
H883 C879 0.950 . S
H884 C881 0.950 . S
C885 C876 1.390 . S
C885 H878 0.950 . S
C885 C882 1.387 . S
C886 C887 1.387 . S
C886 H890 0.950 . S
C886 C895 1.390 . S
C887 C886 1.387 . S
C887 C889 1.387 . S
H888 C895 0.950 . S
C889 C887 1.387 . S
C889 C891 1.390 . S
C889 H893 0.950 . S
H890 C886 0.950 . S
C891 C889 1.390 . S
C891 C892 1.387 . S
C891 H894 0.950 . S
C892 C891 1.387 . S
C892 C895 1.387 . S
H893 C889 0.950 . S
H894 C891 0.950 . S
C895 C886 1.390 . S
C895 H888 0.950 . S
C895 C892 1.387 . S
C896 C897 1.387 . S
C896 H900 0.950 . S
C896 C905 1.390 . S
C897 C896 1.387 . S
C897 C899 1.387 . S
H898 C905 0.950 . S
C899 C897 1.387 . S
C899 C901 1.390 . S
C899 H903 0.950 . S
H900 C896 0.950 . S
C901 C899 1.390 . S
C901 C902 1.387 . S
C901 H904 0.950 . S
C902 C901 1.387 . S
C902 C905 1.387 . S
H903 C899 0.950 . S
H904 C901 0.950 . S
C905 C896 1.390 . S
C905 H898 0.950 . S
C905 C902 1.387 . S
C906 C907 1.387 . S
C906 H910 0.950 . S
C906 C915 1.390 . S
C907 C906 1.387 . S
C907 C909 1.387 . S
H908 C915 0.950 . S
C909 C907 1.387 . S
C909 C911 1.390 . S
C909 H913 0.950 . S
H910 C906 0.950 . S
C911 C909 1.390 . S
C911 C912 1.387 . S
C911 H914 0.950 . S
C912 C911 1.387 . S
C912 C915 1.387 . S
H913 C909 0.950 . S
H914 C911 0.950 . S
C915 C906 1.390 . S
C915 H908 0.950 . S
C915 C912 1.387 . S
C916 C917 1.387 . S
C916 H920 0.950 . S
C916 C925 1.390 . S
C917 C916 1.387 . S
C917 C919 1.387 . S
H918 C925 0.950 . S
C919 C917 1.387 . S
C919 C921 1.390 . S
C919 H923 0.950 . S
H920 C916 0.950 . S
C921 C919 1.390 . S
C921 C922 1.387 . S
C921 H924 0.950 . S
C922 C921 1.387 . S
C922 C925 1.387 . S
H923 C919 0.950 . S
H924 C921 0.950 . S
C925 C916 1.390 . S
C925 H918 0.950 . S
C925 C922 1.387 . S
C926 C927 1.387 . S
C926 H930 0.950 . S
C926 C935 1.390 . S
C927 C926 1.387 . S
C927 C929 1.387 . S
H928 C935 0.950 . S
C929 C927 1.387 . S
C929 C931 1.390 . S
C929 H933 0.950 . S
H930 C926 0.950 . S
C931 C929 1.390 . S
C931 C932 1.387 . S
C931 H934 0.950 . S
C932 C931 1.387 . S
C932 C935 1.387 . S
H933 C929 0.950 . S
H934 C931 0.950 . S
C935 C926 1.390 . S
C935 H928 0.950 . S
C935 C932 1.387 . S
C397 C15 1.190 . S
C402 C65 1.081 . S
C407 C21 1.084 . S
C412 C37 1.192 . S
C417 C59 1.189 . S
C422 C43 1.081 . S
C427 C103 1.077 . S
C432 C73 1.188 . S
C437 C125 1.084 . S
C442 C95 1.192 . S
C447 C117 1.190 . S
C452 C81 1.079 . S
C457 C197 1.080 . S
C462 C147 1.190 . S
C467 C169 1.192 . S
C472 C153 1.084 . S
C477 C175 1.079 . S
C482 C191 1.188 . S
C487 C213 1.188 . S
C492 C235 1.078 . S
C497 C263 1.085 . S
C502 C227 1.192 . S
C507 C257 1.190 . S
C512 C219 1.082 . S
C517 C329 1.081 . S
C522 C279 1.191 . S
C527 C301 1.188 1_565 S
C532 C285 1.077 . S
C537 C323 1.192 1_455 S
C542 C307 1.084 . S
C547 C345 1.192 . S
C552 C373 1.084 . S
C557 C389 1.084 . S
C562 C367 1.192 1_565 S
C567 C351 1.083 . S
C572 C381 1.191 1_455 S
C577 C131 1.309 . S
C582 C10 1.292 . S
C587 C87 1.306 . S
C592 C32 1.289 . S
C597 C109 1.307 . S
C602 C54 1.290 . S
C607 C29 1.310 . S
C612 C84 1.294 . S
C617 C106 1.289 . S
C622 C51 1.306 . S
C627 C7 1.307 . S
C632 C128 1.290 . S
C637 C142 1.293 . S
C642 C249 1.310 . S
C647 C164 1.294 . S
C652 C205 1.310 . S
C657 C241 1.306 . S
C662 C186 1.290 . S
C667 C208 1.293 1_554 S
C672 C161 1.310 . S
C677 C238 1.289 1_554 S
C682 C183 1.306 . S
C687 C252 1.293 1_554 S
C692 C139 1.310 . S
C697 C274 1.294 . S
C702 C395 1.310 1_556 S
C707 C296 1.289 . S
C712 C337 1.306 1_556 S
C717 C318 1.291 . S
C722 C359 1.307 1_556 S
C727 C340 1.293 . S
C732 C293 1.310 . S
C737 C362 1.294 . S
C742 C315 1.310 . S
C747 C392 1.291 . S
C752 C271 1.308 . S
C757 C230 2.074 . S
C762 C18 1.984 1_565 S
C767 C40 1.984 1_455 S
C772 C250 2.074 . S
C777 C206 2.075 . S
C782 C62 1.985 . S
C787 C74 1.986 1_455 S
C792 C184 2.076 . S
C797 C96 1.987 . S
C802 C140 2.076 . S
C807 C162 2.077 . S
C812 C118 1.987 1_565 S
C817 C150 1.987 . S
C822 C360 2.077 . S
C827 C172 1.984 . S
C832 C384 2.074 . S
C837 C194 1.984 . S
C842 C338 2.075 . S
C847 C316 2.075 . S
C852 C216 1.984 . S
C857 C272 2.076 . S
C862 C228 1.987 . S
C867 C294 2.074 . S
C872 C260 1.983 . S
C877 C98 2.077 . S
C882 C282 1.987 . S
C887 C304 1.984 . S
C892 C120 2.074 . S
C897 C76 2.076 . S
C902 C326 1.986 . S
C907 C348 1.987 . S
C912 C52 2.077 . S
C917 C370 1.984 . S
C922 C8 2.074 . S
C927 C30 2.074 . S
C932 C382 1.984 . S
