# Generated by pormake.
# Topology ukf, (4)-cn, num edge types: 1
# Building blocks:
#     Node 0, Type 0, BuildingBlock: QUQFOY_clean_sbu_3, # of connection points: 4
#     Node 1, Type 0, BuildingBlock: QUQFOY_clean_sbu_3, # of connection points: 4
#     Node 2, Type 0, BuildingBlock: QUQFOY_clean_sbu_3, # of connection points: 4
#     Node 3, Type 0, BuildingBlock: QUQFOY_clean_sbu_3, # of connection points: 4
#     Node 4, Type 0, BuildingBlock: QUQFOY_clean_sbu_3, # of connection points: 4
#     Node 5, Type 0, BuildingBlock: QUQFOY_clean_sbu_3, # of connection points: 4
#     Node 6, Type 0, BuildingBlock: QUQFOY_clean_sbu_3, # of connection points: 4
#     Node 7, Type 0, BuildingBlock: QUQFOY_clean_sbu_3, # of connection points: 4
#     Node 8, Type 0, BuildingBlock: QUQFOY_clean_sbu_3, # of connection points: 4
#     Node 9, Type 0, BuildingBlock: QUQFOY_clean_sbu_3, # of connection points: 4
#     Node 10, Type 0, BuildingBlock: QUQFOY_clean_sbu_3, # of connection points: 4
#     Node 11, Type 0, BuildingBlock: QUQFOY_clean_sbu_3, # of connection points: 4
#     Edge 12, Type (0, 0), BuildingBlock: XIVTED_clean_linker_0, # of connection points: 2
#     Edge 13, Type (0, 0), BuildingBlock: XIVTED_clean_linker_0, # of connection points: 2
#     Edge 14, Type (0, 0), BuildingBlock: XIVTED_clean_linker_0, # of connection points: 2
#     Edge 15, Type (0, 0), BuildingBlock: XIVTED_clean_linker_0, # of connection points: 2
#     Edge 16, Type (0, 0), BuildingBlock: XIVTED_clean_linker_0, # of connection points: 2
#     Edge 17, Type (0, 0), BuildingBlock: XIVTED_clean_linker_0, # of connection points: 2
#     Edge 18, Type (0, 0), BuildingBlock: XIVTED_clean_linker_0, # of connection points: 2
#     Edge 19, Type (0, 0), BuildingBlock: XIVTED_clean_linker_0, # of connection points: 2
#     Edge 20, Type (0, 0), BuildingBlock: XIVTED_clean_linker_0, # of connection points: 2
#     Edge 21, Type (0, 0), BuildingBlock: XIVTED_clean_linker_0, # of connection points: 2
#     Edge 22, Type (0, 0), BuildingBlock: XIVTED_clean_linker_0, # of connection points: 2
#     Edge 23, Type (0, 0), BuildingBlock: XIVTED_clean_linker_0, # of connection points: 2
#     Edge 24, Type (0, 0), BuildingBlock: XIVTED_clean_linker_0, # of connection points: 2
#     Edge 25, Type (0, 0), BuildingBlock: XIVTED_clean_linker_0, # of connection points: 2
#     Edge 26, Type (0, 0), BuildingBlock: XIVTED_clean_linker_0, # of connection points: 2
#     Edge 27, Type (0, 0), BuildingBlock: XIVTED_clean_linker_0, # of connection points: 2
#     Edge 28, Type (0, 0), BuildingBlock: XIVTED_clean_linker_0, # of connection points: 2
#     Edge 29, Type (0, 0), BuildingBlock: XIVTED_clean_linker_0, # of connection points: 2
#     Edge 30, Type (0, 0), BuildingBlock: XIVTED_clean_linker_0, # of connection points: 2
#     Edge 31, Type (0, 0), BuildingBlock: XIVTED_clean_linker_0, # of connection points: 2
#     Edge 32, Type (0, 0), BuildingBlock: XIVTED_clean_linker_0, # of connection points: 2
#     Edge 33, Type (0, 0), BuildingBlock: XIVTED_clean_linker_0, # of connection points: 2
#     Edge 34, Type (0, 0), BuildingBlock: XIVTED_clean_linker_0, # of connection points: 2
#     Edge 35, Type (0, 0), BuildingBlock: XIVTED_clean_linker_0, # of connection points: 2
# Relax obj value: 0.130
# Max RMSD: 0.097
# Mean RMSD: 0.097
data_MOF--net-ukf--node1-QUQFOY_clean_sbu_3--edge1-XIVTED_clean_linker_0
_symmetry_space_group_name_H-M    P1
_symmetry_Int_Tables_number       1
_symmetry_cell_setting            triclinic
loop_
_symmetry_equiv_pos_as_xyz
'x, y, z'
_cell_length_a     31.995209
_cell_length_b     31.977124
_cell_length_c     68.671
_cell_angle_alpha  90.061801
_cell_angle_beta   89.989592
_cell_angle_gamma 119.97196
loop_
_atom_site_label
_atom_site_type_symbol
_atom_site_fract_x
_atom_site_fract_y
_atom_site_fract_z
_atom_type_partial_charge
C0 C 0.28155 0.15341 0.02082 0.0
O1 O 0.30196 0.18631 0.00809 0.0
Cd2 Cd 0.37958 0.25694 0.01211 0.0
O3 O 0.30184 0.15651 0.03715 0.0
Cd4 Cd 0.37609 0.21311 0.05468 0.0
C5 C 0.44991 0.20557 0.02082 0.0
O6 O 0.37818 0.28672 0.04388 0.0
O7 O 0.43839 0.29523 0.06123 0.0
O8 O 0.32952 0.1939 0.08489 0.0
C9 C 0.41742 0.31451 0.05255 0.0
O10 O 0.43844 0.22975 0.00949 0.0
C11 C 0.35896 0.18651 0.09463 0.0
O12 O 0.43103 0.19296 0.03766 0.0
O13 O 0.39456 0.18893 0.08546 0.0
C14 C 0.12176 0.28592 0.35688 0.0
O15 O 0.10442 0.30355 0.34494 0.0
Cd16 Cd 0.10846 0.37964 0.34962 0.0
O17 O 0.14294 0.30875 0.37234 0.0
Cd18 Cd 0.16246 0.38485 0.38891 0.0
C19 C 0.23154 0.4553 0.3524 0.0
O20 O 0.08638 0.38214 0.38254 0.0
O21 O 0.14512 0.45044 0.39233 0.0
O22 O 0.14281 0.34174 0.41989 0.0
C23 C 0.10075 0.4249 0.38822 0.0
O24 O 0.19169 0.44361 0.34397 0.0
C25 C 0.17931 0.37416 0.42889 0.0
O26 O 0.23249 0.43545 0.36835 0.0
O27 O 0.20933 0.41033 0.41901 0.0
C28 C 0.82516 0.11764 0.68659 0.0
O29 O 0.79041 0.10293 0.67458 0.0
Cd30 Cd 0.71837 0.10688 0.68002 0.0
O31 O 0.82364 0.13596 0.70288 0.0
Cd32 Cd 0.76874 0.15395 0.72152 0.0
C33 C 0.76757 0.22906 0.68649 0.0
O34 O 0.6953 0.07984 0.71278 0.0
O35 O 0.68699 0.13132 0.73039 0.0
O36 O 0.79585 0.13458 0.7518 0.0
C37 C 0.66774 0.09061 0.72205 0.0
O38 O 0.74238 0.19193 0.67598 0.0
C39 C 0.80301 0.17267 0.76053 0.0
O40 O 0.78317 0.22531 0.70308 0.0
O41 O 0.79673 0.20271 0.75072 0.0
C42 C 0.69695 0.82598 0.01384 0.0
O43 O 0.67619 0.7913 0.00182 0.0
Cd44 Cd 0.60016 0.71948 0.00771 0.0
O45 O 0.67722 0.82524 0.03004 0.0
Cd46 Cd 0.60346 0.77258 0.04841 0.0
C47 C 0.52637 0.76829 0.01345 0.0
O48 O 0.60389 0.69851 0.04059 0.0
O49 O 0.54252 0.69084 0.0568 0.0
O50 O 0.65222 0.80036 0.07812 0.0
C51 C 0.56469 0.67126 0.04934 0.0
O52 O 0.53658 0.73988 0.00429 0.0
C53 C 0.62125 0.80566 0.08771 0.0
O54 O 0.54852 0.7892 0.02907 0.0
O55 O 0.58375 0.79865 0.0786 0.0
C56 C 0.86164 0.70706 0.34639 0.0
O57 O 0.87595 0.68851 0.33355 0.0
Cd58 Cd 0.8682 0.6106 0.33758 0.0
O59 O 0.84325 0.68473 0.36222 0.0
Cd60 Cd 0.82653 0.60851 0.37772 0.0
C61 C 0.74654 0.5389 0.34356 0.0
O62 O 0.90015 0.60751 0.36897 0.0
O63 O 0.84015 0.54063 0.37932 0.0
O64 O 0.85099 0.64972 0.40926 0.0
C65 C 0.88449 0.5648 0.37504 0.0
O66 O 0.78302 0.5493 0.33289 0.0
C67 C 0.81413 0.61788 0.41826 0.0
O68 O 0.75192 0.5586 0.36017 0.0
O69 O 0.78244 0.58317 0.40823 0.0
C70 C 0.15764 0.87184 0.68046 0.0
O71 O 0.193 0.88269 0.66914 0.0
Cd72 Cd 0.2644 0.8797 0.67773 0.0
O73 O 0.15726 0.85693 0.69768 0.0
Cd74 Cd 0.20823 0.83926 0.71887 0.0
C75 C 0.21416 0.75889 0.68827 0.0
O76 O 0.28509 0.90882 0.71009 0.0
O77 O 0.28753 0.85447 0.72809 0.0
O78 O 0.19542 0.87444 0.74805 0.0
C79 C 0.3099 0.89516 0.71975 0.0
O80 O 0.24314 0.79528 0.67812 0.0
C81 C 0.17514 0.8354 0.75768 0.0
O82 O 0.19242 0.76347 0.70298 0.0
O83 O 0.16763 0.79728 0.74888 0.0
C84 C 0.83418 0.69685 0.63554 0.0
O85 O 0.8008 0.67985 0.64819 0.0
Cd86 Cd 0.7292 0.60313 0.6447 0.0
O87 O 0.83024 0.67354 0.61995 0.0
Cd88 Cd 0.77065 0.59813 0.60373 0.0
C89 C 0.77625 0.52777 0.63902 0.0
O90 O 0.69859 0.60121 0.61265 0.0
O91 O 0.68738 0.53389 0.60073 0.0
O92 O 0.79261 0.64312 0.57317 0.0
C93 C 0.66943 0.55923 0.60638 0.0
O94 O 0.75232 0.54138 0.64948 0.0
C95 C 0.79611 0.6111 0.56356 0.0
O96 O 0.79042 0.54509 0.62205 0.0
O97 O 0.78952 0.57395 0.57283 0.0
C98 C 0.11541 0.82948 0.97704 0.0
O99 O 0.10103 0.79418 0.9887 0.0
Cd100 Cd 0.1044 0.72256 0.98136 0.0
O101 O 0.13329 0.82865 0.96057 0.0
Cd102 Cd 0.1509 0.77489 0.94107 0.0
C103 C 0.22651 0.76954 0.97386 0.0
O104 O 0.07833 0.69994 0.94867 0.0
O105 O 0.13635 0.69362 0.93549 0.0
O106 O 0.11633 0.78628 0.91158 0.0
C107 C 0.09295 0.67316 0.9413 0.0
O108 O 0.18832 0.74194 0.98339 0.0
C109 C 0.15494 0.80505 0.90171 0.0
O110 O 0.22487 0.79104 0.95849 0.0
O111 O 0.19296 0.81181 0.91036 0.0
C112 C 0.27549 0.11589 0.31466 0.0
O113 O 0.30037 0.10863 0.32727 0.0
Cd114 Cd 0.37925 0.11565 0.32527 0.0
O115 O 0.29109 0.12927 0.29738 0.0
Cd116 Cd 0.36307 0.14736 0.27832 0.0
C117 C 0.44763 0.23286 0.31084 0.0
O118 O 0.38236 0.09187 0.2932 0.0
O119 O 0.37812 0.08652 0.2622 0.0
O120 O 0.31681 0.14194 0.24931 0.0
C121 C 0.38747 0.07279 0.27802 0.0
O122 O 0.43583 0.20172 0.32437 0.0
C123 C 0.35361 0.1728 0.23986 0.0
O124 O 0.42758 0.2213 0.29411 0.0
O125 O 0.39371 0.19374 0.24888 0.0
C126 C 0.15198 0.28725 0.64628 0.0
O127 O 0.18675 0.30435 0.6583 0.0
Cd128 Cd 0.25852 0.38045 0.65338 0.0
O129 O 0.15426 0.31039 0.63086 0.0
Cd130 Cd 0.21212 0.38607 0.61459 0.0
C131 C 0.21195 0.45668 0.65056 0.0
O132 O 0.28585 0.38327 0.62076 0.0
O133 O 0.2946 0.45195 0.61188 0.0
O134 O 0.18892 0.34166 0.58389 0.0
C135 C 0.31366 0.42617 0.6151 0.0
O136 O 0.23972 0.44474 0.65915 0.0
C137 C 0.18624 0.37425 0.57439 0.0
O138 O 0.19164 0.43691 0.63452 0.0
O139 O 0.19293 0.41123 0.58387 0.0
C140 C 0.86441 0.15218 0.97744 0.0
O141 O 0.87927 0.18506 0.99029 0.0
Cd142 Cd 0.86919 0.25384 0.98652 0.0
O143 O 0.84477 0.15577 0.96189 0.0
Cd144 Cd 0.8264 0.21363 0.94604 0.0
C145 C 0.74653 0.20167 0.98049 0.0
O146 O 0.89938 0.28847 0.95497 0.0
O147 O 0.83936 0.29474 0.94413 0.0
O148 O 0.85322 0.19525 0.91551 0.0
C149 C 0.88344 0.31528 0.94889 0.0
O150 O 0.78333 0.22695 0.99115 0.0
C151 C 0.81783 0.19094 0.90558 0.0
O152 O 0.75133 0.18845 0.96355 0.0
O153 O 0.78562 0.19526 0.91465 0.0
C154 C 0.69515 0.86714 0.307 0.0
O155 O 0.67472 0.88224 0.31863 0.0
Cd156 Cd 0.59844 0.87748 0.31244 0.0
O157 O 0.67531 0.84733 0.29091 0.0
Cd158 Cd 0.60176 0.82621 0.27235 0.0
C159 C 0.5256 0.75436 0.3074 0.0
O160 O 0.59792 0.89907 0.27938 0.0
O161 O 0.53601 0.84037 0.26526 0.0
O162 O 0.64889 0.84979 0.24225 0.0
C163 C 0.55668 0.8832 0.27168 0.0
O164 O 0.53552 0.79341 0.31614 0.0
C165 C 0.61968 0.81199 0.23295 0.0
O166 O 0.54804 0.75479 0.29198 0.0
O167 O 0.58396 0.77971 0.24238 0.0
H168 H 0.12869 0.90543 0.95445 0.0
H169 H 0.22483 0.07743 0.04476 0.0
H170 H 0.10544 0.8556 0.01399 0.0
H171 H 0.23626 0.12663 0.98542 0.0
H172 H 0.16311 -0.00307 0.03452 0.0
H173 H 0.1492 0.9856 0.96586 0.0
C174 C 0.12708 0.91116 0.96992 0.0
C175 C 0.11682 0.87424 0.98335 0.0
C176 C 0.17838 0.02553 0.02379 0.0
C177 C 0.14095 0.96606 0.99653 0.0
C178 C 0.21374 0.07154 0.02963 0.0
C179 C 0.23688 0.10839 0.0158 0.0
C180 C 0.16669 0.01623 0.00395 0.0
C181 C 0.22023 0.09899 0.99651 0.0
C182 C 0.13869 0.95696 0.97644 0.0
C183 C 0.11411 0.88333 0.00316 0.0
N184 N 0.18691 0.05352 0.99107 0.0
N185 N 0.12729 0.9287 0.00921 0.0
H186 H 0.09614 0.23647 0.32229 0.0
H187 H 0.23689 0.10103 0.35135 0.0
H188 H 0.14752 0.233 0.38008 0.0
H189 H 0.21336 0.13111 0.29232 0.0
H190 H 0.17801 0.12281 0.36265 0.0
H191 H 0.11293 0.17295 0.31238 0.0
C192 C 0.11002 0.2217 0.33301 0.0
C193 C 0.12191 0.2411 0.35188 0.0
C194 C 0.18498 0.12362 0.34718 0.0
C195 C 0.14117 0.16862 0.34062 0.0
C196 C 0.21858 0.11113 0.34069 0.0
C197 C 0.23137 0.11597 0.32093 0.0
C198 C 0.16432 0.14123 0.33381 0.0
C199 C 0.20564 0.12821 0.30777 0.0
C200 C 0.11957 0.18543 0.32734 0.0
C201 C 0.13904 0.22001 0.36524 0.0
N202 N 0.17407 0.14147 0.3145 0.0
N203 N 0.14898 0.18547 0.35925 0.0
H204 H 0.8507 0.10267 0.65026 0.0
H205 H 0.12641 0.23815 0.6809 0.0
H206 H 0.9028 0.13692 0.70942 0.0
H207 H 0.07387 0.2352 0.62269 0.0
H208 H 0.04536 0.17584 0.69046 0.0
H209 H 0.93203 0.12502 0.63957 0.0
C210 C 0.87895 0.11379 0.66107 0.0
C211 C 0.87036 0.11944 0.68068 0.0
C212 C 0.05187 0.18817 0.6755 0.0
C213 C 0.96324 0.14516 0.66852 0.0
C214 C 0.09811 0.22372 0.67001 0.0
C215 C 0.10651 0.24292 0.65112 0.0
C216 C 0.01396 0.17186 0.66199 0.0
C217 C 0.06868 0.22232 0.63756 0.0
C218 C 0.92537 0.12662 0.65494 0.0
C219 C 0.90815 0.1333 0.69408 0.0
N220 N 0.02379 0.18846 0.64335 0.0
N221 N 0.95321 0.14657 0.68769 0.0
H222 H 0.7382 0.8517 0.97764 0.0
H223 H 0.88719 0.12386 0.01158 0.0
H224 H 0.75832 0.90048 0.03735 0.0
H225 H 0.84101 0.07683 0.95254 0.0
H226 H 0.86687 0.04171 0.02003 0.0
H227 H 0.80152 0.93208 0.96777 0.0
C228 C 0.75665 0.87896 0.98873 0.0
C229 C 0.7419 0.86997 0.00826 0.0
C230 C 0.86221 0.04965 0.00513 0.0
C231 C 0.81402 0.9617 0.99707 0.0
C232 C 0.87383 0.09655 0.00028 0.0
C233 C 0.86411 0.10675 0.9815 0.0
C234 C 0.84058 0.01288 0.99111 0.0
C235 C 0.84769 0.07019 0.96736 0.0
C236 C 0.79277 0.92482 0.98309 0.0
C237 C 0.7676 0.90633 0.02205 0.0
N238 N 0.83545 0.02457 0.97256 0.0
N239 N 0.80181 0.95093 0.01614 0.0
H240 H 0.73482 0.88226 0.34351 0.0
H241 H 0.88447 0.75725 0.31203 0.0
H242 H 0.7563 0.85191 0.28423 0.0
H243 H 0.8357 0.75838 0.37058 0.0
H244 H 0.86328 0.81805 0.30287 0.0
H245 H 0.79648 0.86346 0.35416 0.0
C246 C 0.75328 0.87276 0.33267 0.0
C247 C 0.73941 0.86716 0.31302 0.0
C248 C 0.85818 0.8057 0.31782 0.0
C249 C 0.80964 0.84555 0.32512 0.0
C250 C 0.8703 0.77101 0.32308 0.0
C251 C 0.86031 0.75154 0.34194 0.0
C252 C 0.83579 0.82078 0.3315 0.0
C253 C 0.84277 0.77142 0.35572 0.0
C254 C 0.7884 0.86197 0.33877 0.0
C255 C 0.76497 0.85538 0.29959 0.0
N256 N 0.83013 0.80428 0.35013 0.0
N257 N 0.79828 0.84412 0.30593 0.0
H258 H 0.91169 0.7466 0.61136 0.0
H259 H 0.08157 0.86485 0.70125 0.0
H260 H 0.86104 0.74914 0.6694 0.0
H261 H 0.13292 0.87368 0.64242 0.0
H262 H 0.00166 0.84103 0.68853 0.0
H263 H -0.00787 0.81004 0.62079 0.0
C264 C 0.91728 0.76104 0.62601 0.0
C265 C 0.87995 0.7415 0.6398 0.0
C266 C 0.03058 0.84912 0.67835 0.0
C267 C 0.97203 0.81381 0.65074 0.0
C268 C 0.07625 0.8627 0.68562 0.0
C269 C 0.11351 0.86978 0.67289 0.0
C270 C 0.02197 0.8417 0.65824 0.0
C271 C 0.10493 0.8676 0.65278 0.0
C272 C 0.96325 0.79741 0.63138 0.0
C273 C 0.88902 0.76236 0.65841 0.0
N274 N 0.05968 0.85256 0.64608 0.0
N275 N 0.93441 0.79668 0.66347 0.0
H276 H 0.71823 0.20688 0.01766 0.0
H277 H 0.48115 0.20467 0.98384 0.0
H278 H 0.66525 0.17363 0.95861 0.0
H279 H 0.50538 0.1824 0.04382 0.0
H280 H 0.54912 0.19452 0.97425 0.0
H281 H 0.64123 0.19893 0.02773 0.0
C282 C 0.69024 0.19741 0.00685 0.0
C283 C 0.69833 0.19125 0.98723 0.0
C284 C 0.53921 0.19129 0.98949 0.0
C285 C 0.61048 0.18276 -0.00137 0.0
C286 C 0.50053 0.19726 0.99498 0.0
C287 C 0.48778 0.19469 0.01468 0.0
C288 C 0.56594 0.18361 0.00381 0.0
C289 C 0.51399 0.18468 0.02847 0.0
C290 C 0.64627 0.19276 0.01262 0.0
C291 C 0.66065 0.17876 0.97388 0.0
N292 N 0.55229 0.18018 0.02281 0.0
N293 N 0.61862 0.17562 0.97977 0.0
H294 H 0.32445 0.47237 0.35626 0.0
H295 H 0.44565 0.743 0.32574 0.0
H296 H 0.24093 0.53049 0.33076 0.0
H297 H 0.51143 0.66211 0.30474 0.0
H298 H 0.37493 0.66753 0.33581 0.0
H299 H 0.39872 0.54386 0.34457 0.0
C300 C 0.32176 0.49994 0.34813 0.0
C301 C 0.27657 0.49559 0.34443 0.0
C302 C 0.40501 0.66644 0.32908 0.0
C303 C 0.36061 0.57706 0.33164 0.0
C304 C 0.44543 0.70936 0.32345 0.0
C305 C 0.48437 0.7087 0.31438 0.0
C306 C 0.40391 0.62258 0.3261 0.0
C307 C 0.48196 0.664 0.31162 0.0
C308 C 0.36393 0.54038 0.34145 0.0
C309 C 0.27497 0.53224 0.33383 0.0
N310 N 0.44239 0.62247 0.31763 0.0
N311 N 0.31642 0.57181 0.32809 0.0
H312 H 0.79395 0.31045 0.70818 0.0
H313 H 0.79971 0.47008 0.61768 0.0
H314 H 0.76237 0.25636 0.64923 0.0
H315 H 0.77068 0.49617 0.67651 0.0
H316 H 0.80445 0.40021 0.62927 0.0
H317 H 0.80344 0.38731 0.69678 0.0
C318 C 0.78952 0.3149 0.69282 0.0
C319 C 0.777 0.27683 0.67965 0.0
C320 C 0.79744 0.42153 0.63963 0.0
C321 C 0.78817 0.3646 0.66657 0.0
C322 C 0.79499 0.46154 0.63307 0.0
C323 C 0.78441 0.48878 0.64613 0.0
C324 C 0.78996 0.4091 0.65943 0.0
C325 C 0.77848 0.47591 0.66591 0.0
C326 C 0.79475 0.35865 0.68637 0.0
C327 C 0.77159 0.28458 0.65991 0.0
N328 N 0.78128 0.43692 0.67196 0.0
N329 N 0.77722 0.32761 0.65397 0.0
H330 H 0.23759 0.7005 0.99197 0.0
H331 H 0.51159 0.84553 0.01809 0.0
H332 H 0.31936 0.84565 0.96961 0.0
H333 H 0.4476 0.70231 0.99352 0.0
H334 H 0.43987 0.84978 0.00778 0.0
H335 H 0.31297 0.70358 0.00095 0.0
C336 C 0.27143 0.73324 0.98914 0.0
C337 C 0.27233 0.77289 0.98001 0.0
C338 C 0.44208 0.81776 0.00457 0.0
C339 C 0.35839 0.77668 0.99051 0.0
C340 C 0.48264 0.81519 0.01049 0.0
C341 C 0.48545 0.77352 0.00661 0.0
C342 C 0.4038 0.7778 0.99537 0.0
C343 C 0.44705 0.73521 0.9967 0.0
C344 C 0.31429 0.73479 0.99416 0.0
C345 C 0.31727 0.81427 0.97653 0.0
N346 N 0.40749 0.73797 0.99169 0.0
N347 N 0.35878 0.81533 0.98197 0.0
H348 H 0.50486 0.30158 0.28413 0.0
H349 H 0.66415 0.49534 0.36544 0.0
H350 H 0.47965 0.27779 0.34594 0.0
H351 H 0.71823 0.4942 0.30792 0.0
H352 H 0.58709 0.42519 0.35656 0.0
H353 H 0.57432 0.38158 0.291 0.0
C354 C 0.51355 0.3134 0.29912 0.0
C355 C 0.48676 0.28284 0.31451 0.0
C356 C 0.61571 0.4406 0.34584 0.0
C357 C 0.56561 0.37409 0.32239 0.0
C358 C 0.65969 0.48079 0.35085 0.0
C359 C 0.69799 0.5004 0.33747 0.0
C360 C 0.60973 0.42003 0.32726 0.0
C361 C 0.68989 0.47997 0.31876 0.0
C362 C 0.55323 0.35889 0.30301 0.0
C363 C 0.49964 0.29994 0.33364 0.0
N364 N 0.64668 0.44068 0.31423 0.0
N365 N 0.53817 0.34438 0.33704 0.0
H366 H 0.27466 0.52864 0.67442 0.0
H367 H 0.13342 0.66867 0.69102 0.0
H368 H 0.13903 0.47731 0.64444 0.0
H369 H 0.284 0.74197 0.67514 0.0
H370 H 0.12824 0.59085 0.68289 0.0
H371 H 0.2715 0.60016 0.68473 0.0
C372 C 0.2438 0.53198 0.67027 0.0
C373 C 0.20718 0.49713 0.65844 0.0
C374 C 0.16221 0.62419 0.68124 0.0
C375 C 0.20326 0.57849 0.67044 0.0
C376 C 0.16526 0.6683 0.68591 0.0
C377 C 0.20914 0.71159 0.68362 0.0
C378 C 0.20375 0.62375 0.67498 0.0
C379 C 0.24941 0.70941 0.67693 0.0
C380 C 0.24222 0.57286 0.67609 0.0
C381 C 0.16817 0.50358 0.65342 0.0
N382 N 0.2459 0.66619 0.67306 0.0
N383 N 0.16711 0.54362 0.6595 0.0
H384 H 0.42647 0.18981 0.11965 0.0
H385 H 0.27335 0.13866 0.2165 0.0
H386 H 0.28295 0.17049 0.11819 0.0
H387 H 0.429 0.22099 0.21497 0.0
H388 H 0.27221 0.14076 0.18075 0.0
H389 H 0.42358 0.18887 0.15512 0.0
C390 C 0.39409 0.1848 0.12679 0.0
C391 C 0.35493 0.18036 0.11596 0.0
C392 C 0.30647 0.15873 0.18833 0.0
C393 C 0.35157 0.17955 0.15658 0.0
C394 C 0.30718 0.1577 0.20868 0.0
C395 C 0.35136 0.17958 0.21871 0.0
C396 C 0.35023 0.18098 0.17806 0.0
C397 C 0.39413 0.20364 0.20787 0.0
C398 C 0.39267 0.18472 0.14704 0.0
C399 C 0.31397 0.17415 0.12602 0.0
N400 N 0.3925 0.20317 0.18813 0.0
N401 N 0.31328 0.17384 0.14583 0.0
H402 H 0.23841 0.4477 0.45319 0.0
H403 H 0.15462 0.29463 0.55102 0.0
H404 H 0.12976 0.29667 0.45312 0.0
H405 H 0.20674 0.44781 0.54915 0.0
H406 H 0.15413 0.29296 0.5153 0.0
H407 H 0.23846 0.44656 0.48879 0.0
C408 C 0.21505 0.41413 0.46066 0.0
C409 C 0.18392 0.37223 0.45021 0.0
C410 C 0.16531 0.32679 0.52276 0.0
C411 C 0.18369 0.37081 0.49087 0.0
C412 C 0.16552 0.32778 0.54309 0.0
C413 C 0.18059 0.37141 0.55303 0.0
C414 C 0.18127 0.3699 0.51237 0.0
C415 C 0.19454 0.41335 0.54207 0.0
C416 C 0.21478 0.41364 0.48096 0.0
C417 C 0.15419 0.3298 0.46065 0.0
N418 N 0.19502 0.41165 0.52232 0.0
N419 N 0.15483 0.33013 0.48045 0.0
H420 H 0.86735 0.15959 0.88292 0.0
H421 H 0.79792 0.23836 0.78414 0.0
H422 H 0.76551 0.21057 0.87976 0.0
H423 H 0.82898 0.12157 0.78502 0.0
H424 H 0.80306 0.24223 0.8196 0.0
H425 H 0.86807 0.1566 0.84714 0.0
C426 C 0.845 0.16988 0.8747 0.0
C427 C 0.81618 0.1852 0.88425 0.0
C428 C 0.80905 0.21599 0.812 0.0
C429 C 0.8179 0.18307 0.84366 0.0
C430 C 0.80654 0.21398 0.79177 0.0
C431 C 0.81274 0.17936 0.78164 0.0
C432 C 0.81854 0.18366 0.82218 0.0
C433 C 0.82371 0.14862 0.79231 0.0
C434 C 0.84548 0.16818 0.85437 0.0
C435 C 0.78797 0.19824 0.87298 0.0
N436 N 0.82628 0.15146 0.81208 0.0
N437 N 0.78992 0.19735 0.85326 0.0
H438 H 0.70184 0.83695 0.11064 0.0
H439 H 0.55004 0.74994 0.20804 0.0
H440 H 0.54987 0.79002 0.11321 0.0
H441 H 0.69772 0.86659 0.20942 0.0
H442 H 0.5529 0.75152 0.1725 0.0
H443 H 0.70444 0.83851 0.14645 0.0
C444 C 0.66923 0.82755 0.11872 0.0
C445 C 0.62556 0.81337 0.10897 0.0
C446 C 0.58474 0.77655 0.18062 0.0
C447 C 0.6281 0.81367 0.14962 0.0
C448 C 0.58334 0.77538 0.20088 0.0
C449 C 0.62367 0.80831 0.21168 0.0
C450 C 0.627 0.81032 0.17107 0.0
C451 C 0.66579 0.8407 0.2016 0.0
C452 C 0.67077 0.82835 0.13908 0.0
C453 C 0.58433 0.80137 0.12012 0.0
N454 N 0.66645 0.84088 0.18178 0.0
N455 N 0.58647 0.80116 0.13984 0.0
H456 H 0.82945 0.69185 0.54079 0.0
H457 H 0.75364 0.54396 0.4419 0.0
H458 H 0.77854 0.53897 0.53799 0.0
H459 H 0.8658 0.69366 0.4432 0.0
H460 H 0.75167 0.54366 0.47745 0.0
H461 H 0.83443 0.6954 0.50509 0.0
C462 C 0.81967 0.65917 0.53268 0.0
C463 C 0.80358 0.61504 0.54231 0.0
C464 C 0.77662 0.57658 0.46994 0.0
C465 C 0.80817 0.61872 0.50173 0.0
C466 C 0.77751 0.57693 0.44967 0.0
C467 C 0.81 0.6189 0.43962 0.0
C468 C 0.80787 0.61871 0.48024 0.0
C469 C 0.84031 0.66052 0.45043 0.0
C470 C 0.82254 0.66125 0.51237 0.0
C471 C 0.79132 0.57375 0.53114 0.0
N472 N 0.83841 0.65947 0.47022 0.0
N473 N 0.79335 0.57649 0.51141 0.0
H474 H 0.07803 0.76431 0.87711 0.0
H475 H 0.21965 0.91061 0.78303 0.0
H476 H 0.23064 0.86722 0.87865 0.0
H477 H 0.1109 0.75986 0.78018 0.0
H478 H 0.21226 0.90735 0.81861 0.0
H479 H 0.07862 0.77494 0.84177 0.0
C480 C 0.11151 0.78967 0.87005 0.0
C481 C 0.15446 0.81481 0.88075 0.0
C482 C 0.18968 0.87525 0.81011 0.0
C483 C 0.15502 0.82744 0.84056 0.0
C484 C 0.19354 0.87709 0.78987 0.0
C485 C 0.16591 0.83533 0.77871 0.0
C486 C 0.15717 0.83169 0.81916 0.0
C487 C 0.13297 0.79274 0.78829 0.0
C488 C 0.11177 0.79546 0.84993 0.0
C489 C 0.19687 0.84698 0.87087 0.0
N490 N 0.12941 0.792 0.80803 0.0
N491 N 0.19608 0.85253 0.85127 0.0
H492 H 0.56987 0.61451 0.02101 0.0
H493 H 0.46703 0.37732 0.08164 0.0
H494 H 0.51221 0.60962 0.0783 0.0
H495 H 0.41547 0.37012 0.02299 0.0
H496 H 0.50292 0.46549 0.08094 0.0
H497 H 0.5321 0.526 0.02155 0.0
C498 C 0.54958 0.59473 0.03372 0.0
C499 C 0.54388 0.61884 0.04965 0.0
C500 C 0.48367 0.44437 0.06829 0.0
C501 C 0.50201 0.51913 0.05045 0.0
C502 C 0.46347 0.39445 0.06863 0.0
C503 C 0.43833 0.36694 0.05235 0.0
C504 C 0.47991 0.46659 0.05135 0.0
C505 C 0.43439 0.39041 0.03583 0.0
C506 C 0.52795 0.5446 0.03395 0.0
C507 C 0.51708 0.59198 0.06575 0.0
N508 N 0.45563 0.43928 0.03563 0.0
N509 N 0.49748 0.54332 0.06587 0.0
H510 H 0.85744 0.47065 0.38171 0.0
H511 H 0.12653 0.51993 0.39146 0.0
H512 H 0.98286 0.61095 0.37253 0.0
H513 H 0.00335 0.37785 0.38262 0.0
H514 H 0.07379 0.55445 0.38829 0.0
H515 H 0.91011 0.43638 0.38553 0.0
C516 C 0.89609 0.49422 0.38046 0.0
C517 C 0.91592 0.54367 0.37676 0.0
C518 C 0.05838 0.51574 0.38704 0.0
C519 C 0.97622 0.50481 0.38127 0.0
C520 C 0.08835 0.496 0.38894 0.0
C521 C 0.06919 0.446 0.38723 0.0
C522 C 0.00893 0.48516 0.38362 0.0
C523 C 0.01955 0.41662 0.38395 0.0
C524 C 0.92608 0.47462 0.38261 0.0
C525 C 0.96617 0.57258 0.37529 0.0
N526 N -0.00895 0.43667 0.38228 0.0
N527 N -0.00529 0.55272 0.37764 0.0
H528 H 0.6063 0.07762 0.75165 0.0
H529 H 0.36918 0.952 0.69083 0.0
H530 H 0.61085 0.03238 0.69285 0.0
H531 H 0.36984 0.90126 0.74897 0.0
H532 H 0.45787 -0.00285 0.69129 0.0
H533 H 0.518 0.02716 0.75122 0.0
C534 C 0.58857 0.05693 0.7387 0.0
C535 C 0.61537 0.05875 0.72227 0.0
C536 C 0.43834 0.97599 0.70388 0.0
C537 C 0.51552 0.00272 0.72155 0.0
C538 C 0.38809 0.9507 0.70369 0.0
C539 C 0.36267 0.92317 0.71991 0.0
C540 C 0.46278 0.97469 0.72059 0.0
C541 C 0.38847 0.9221 0.73619 0.0
C542 C 0.53855 0.02823 0.7385 0.0
C543 C 0.59113 0.03143 0.70582 0.0
N544 N 0.43738 0.94812 0.73625 0.0
N545 N 0.54221 0.00492 0.70574 0.0
H546 H 0.59888 0.46569 0.60079 0.0
H547 H 0.38282 0.52058 0.61052 0.0
H548 H 0.62077 0.60738 0.61389 0.0
H549 H 0.36357 0.37757 0.61644 0.0
H550 H 0.46988 0.55339 0.60812 0.0
H551 H 0.51177 0.43298 0.60278 0.0
C552 C 0.58532 0.48992 0.60404 0.0
C553 C 0.61695 0.53927 0.60723 0.0
C554 C 0.44658 0.51486 0.60999 0.0
C555 C 0.51766 0.50219 0.60944 0.0
C556 C 0.39695 0.4961 0.6113 0.0
C557 C 0.3661 0.44632 0.61371 0.0
C558 C 0.46531 0.48352 0.61086 0.0
C559 C 0.38621 0.41621 0.61465 0.0
C560 C 0.53568 0.4712 0.60524 0.0
C561 C 0.59755 0.56906 0.61141 0.0
N562 N 0.43466 0.43529 0.61315 0.0
N563 N 0.54902 0.55005 0.61233 0.0
H564 H 0.12092 0.60612 0.93549 0.0
H565 H 0.85469 0.3815 0.94361 0.0
H566 H -0.00361 0.62029 0.94821 0.0
H567 H 0.98167 0.36876 0.95181 0.0
H568 H 0.906 0.46895 0.94135 0.0
H569 H 0.06995 0.51827 0.93737 0.0
C570 C 0.08283 0.59071 0.93859 0.0
C571 C 0.06273 0.62033 0.94174 0.0
C572 C 0.9226 0.44701 0.94371 0.0
C573 C 0.00457 0.52042 0.94384 0.0
C574 C 0.8934 0.39716 0.94495 0.0
C575 C 0.91408 0.36801 0.94794 0.0
C576 C 0.9728 0.46774 0.94522 0.0
C577 C 0.96437 0.39008 0.94959 0.0
C578 C 0.05391 0.54071 0.93976 0.0
C579 C 0.01329 0.59866 0.94577 0.0
N580 N -0.00783 0.43878 0.9481 0.0
N581 N 0.9858 0.54991 0.94664 0.0
H582 H 0.47914 0.86783 0.25005 0.0
H583 H 0.43469 0.05788 0.30788 0.0
H584 H 0.57501 0.95939 0.29527 0.0
H585 H 0.38538 0.01389 0.24891 0.0
H586 H 0.47514 0.01 0.30675 0.0
H587 H 0.43398 0.91075 0.25244 0.0
C588 C 0.49069 0.89706 0.26045 0.0
C589 C 0.53088 0.91036 0.27243 0.0
C590 C 0.45519 0.0107 0.29414 0.0
C591 C 0.47914 0.95879 0.27544 0.0
C592 C 0.43184 0.03759 0.29481 0.0
C593 C 0.40693 0.03984 0.27842 0.0
C594 C 0.45286 0.98549 0.27707 0.0
C595 C 0.40447 0.0132 0.26181 0.0
C596 C 0.46497 0.92145 0.2618 0.0
C597 C 0.54441 0.94838 0.28567 0.0
N598 N 0.42722 0.98703 0.26155 0.0
N599 N 0.51833 0.97118 0.28692 0.0
loop_
_geom_bond_atom_site_label_1
_geom_bond_atom_site_label_2
_geom_bond_distance
_geom_bond_site_symmetry_2
_ccdc_geom_bond_type
C0 O1 1.306 . S
C0 O3 1.160 . S
O1 C0 1.306 . S
O1 Cd2 2.228 . S
Cd2 O1 2.228 . S
Cd2 O6 2.273 . S
Cd2 O10 2.277 . S
O3 C0 1.160 . S
O3 Cd4 2.203 . S
Cd4 O3 2.203 . S
Cd4 O6 2.411 . S
Cd4 O7 2.333 . S
Cd4 O8 2.352 . S
Cd4 O12 2.277 . S
Cd4 O13 2.356 . S
C5 O10 1.209 . S
C5 O12 1.226 . S
O6 Cd2 2.273 . S
O6 Cd4 2.411 . S
O6 C9 1.320 . S
O7 Cd4 2.333 . S
O7 C9 1.214 . S
O8 Cd4 2.352 . S
O8 C11 1.258 . S
C9 O6 1.320 . S
C9 O7 1.214 . S
O10 Cd2 2.277 . S
O10 C5 1.209 . S
C11 O8 1.258 . S
C11 O13 1.282 . S
O12 Cd4 2.277 . S
O12 C5 1.226 . S
O13 Cd4 2.356 . S
O13 C11 1.282 . S
C14 O15 1.306 . S
C14 O17 1.160 . S
O15 C14 1.306 . S
O15 Cd16 2.228 . S
Cd16 O15 2.228 . S
Cd16 O20 2.273 . S
Cd16 O24 2.277 . S
O17 C14 1.160 . S
O17 Cd18 2.203 . S
Cd18 O17 2.203 . S
Cd18 O20 2.411 . S
Cd18 O21 2.333 . S
Cd18 O22 2.352 . S
Cd18 O26 2.277 . S
Cd18 O27 2.356 . S
C19 O24 1.209 . S
C19 O26 1.226 . S
O20 Cd16 2.273 . S
O20 Cd18 2.411 . S
O20 C23 1.320 . S
O21 Cd18 2.333 . S
O21 C23 1.214 . S
O22 Cd18 2.352 . S
O22 C25 1.258 . S
C23 O20 1.320 . S
C23 O21 1.214 . S
O24 Cd16 2.277 . S
O24 C19 1.209 . S
C25 O22 1.258 . S
C25 O27 1.282 . S
O26 Cd18 2.277 . S
O26 C19 1.226 . S
O27 Cd18 2.356 . S
O27 C25 1.282 . S
C28 O29 1.306 . S
C28 O31 1.160 . S
O29 C28 1.306 . S
O29 Cd30 2.228 . S
Cd30 O29 2.228 . S
Cd30 O34 2.273 . S
Cd30 O38 2.277 . S
O31 C28 1.160 . S
O31 Cd32 2.203 . S
Cd32 O31 2.203 . S
Cd32 O34 2.411 . S
Cd32 O35 2.333 . S
Cd32 O36 2.352 . S
Cd32 O40 2.277 . S
Cd32 O41 2.356 . S
C33 O38 1.209 . S
C33 O40 1.226 . S
O34 Cd30 2.273 . S
O34 Cd32 2.411 . S
O34 C37 1.320 . S
O35 Cd32 2.333 . S
O35 C37 1.214 . S
O36 Cd32 2.352 . S
O36 C39 1.258 . S
C37 O34 1.320 . S
C37 O35 1.214 . S
O38 Cd30 2.277 . S
O38 C33 1.209 . S
C39 O36 1.258 . S
C39 O41 1.282 . S
O40 Cd32 2.277 . S
O40 C33 1.226 . S
O41 Cd32 2.356 . S
O41 C39 1.282 . S
C42 O43 1.306 . S
C42 O45 1.160 . S
O43 C42 1.306 . S
O43 Cd44 2.228 . S
Cd44 O43 2.228 . S
Cd44 O48 2.273 . S
Cd44 O52 2.277 . S
O45 C42 1.160 . S
O45 Cd46 2.203 . S
Cd46 O45 2.203 . S
Cd46 O48 2.411 . S
Cd46 O49 2.333 . S
Cd46 O50 2.352 . S
Cd46 O54 2.277 . S
Cd46 O55 2.356 . S
C47 O52 1.209 . S
C47 O54 1.226 . S
O48 Cd44 2.273 . S
O48 Cd46 2.411 . S
O48 C51 1.320 . S
O49 Cd46 2.333 . S
O49 C51 1.214 . S
O50 Cd46 2.352 . S
O50 C53 1.258 . S
C51 O48 1.320 . S
C51 O49 1.214 . S
O52 Cd44 2.277 . S
O52 C47 1.209 . S
C53 O50 1.258 . S
C53 O55 1.282 . S
O54 Cd46 2.277 . S
O54 C47 1.226 . S
O55 Cd46 2.356 . S
O55 C53 1.282 . S
C56 O57 1.306 . S
C56 O59 1.160 . S
O57 C56 1.306 . S
O57 Cd58 2.228 . S
Cd58 O57 2.228 . S
Cd58 O62 2.273 . S
Cd58 O66 2.277 . S
O59 C56 1.160 . S
O59 Cd60 2.203 . S
Cd60 O59 2.203 . S
Cd60 O62 2.411 . S
Cd60 O63 2.333 . S
Cd60 O64 2.352 . S
Cd60 O68 2.277 . S
Cd60 O69 2.356 . S
C61 O66 1.209 . S
C61 O68 1.226 . S
O62 Cd58 2.273 . S
O62 Cd60 2.411 . S
O62 C65 1.320 . S
O63 Cd60 2.333 . S
O63 C65 1.214 . S
O64 Cd60 2.352 . S
O64 C67 1.258 . S
C65 O62 1.320 . S
C65 O63 1.214 . S
O66 Cd58 2.277 . S
O66 C61 1.209 . S
C67 O64 1.258 . S
C67 O69 1.282 . S
O68 Cd60 2.277 . S
O68 C61 1.226 . S
O69 Cd60 2.356 . S
O69 C67 1.282 . S
C70 O71 1.306 . S
C70 O73 1.160 . S
O71 C70 1.306 . S
O71 Cd72 2.228 . S
Cd72 O71 2.228 . S
Cd72 O76 2.273 . S
Cd72 O80 2.277 . S
O73 C70 1.160 . S
O73 Cd74 2.203 . S
Cd74 O73 2.203 . S
Cd74 O76 2.411 . S
Cd74 O77 2.333 . S
Cd74 O78 2.352 . S
Cd74 O82 2.277 . S
Cd74 O83 2.356 . S
C75 O80 1.209 . S
C75 O82 1.226 . S
O76 Cd72 2.273 . S
O76 Cd74 2.411 . S
O76 C79 1.320 . S
O77 Cd74 2.333 . S
O77 C79 1.214 . S
O78 Cd74 2.352 . S
O78 C81 1.258 . S
C79 O76 1.320 . S
C79 O77 1.214 . S
O80 Cd72 2.277 . S
O80 C75 1.209 . S
C81 O78 1.258 . S
C81 O83 1.282 . S
O82 Cd74 2.277 . S
O82 C75 1.226 . S
O83 Cd74 2.356 . S
O83 C81 1.282 . S
C84 O85 1.306 . S
C84 O87 1.160 . S
O85 C84 1.306 . S
O85 Cd86 2.228 . S
Cd86 O85 2.228 . S
Cd86 O90 2.273 . S
Cd86 O94 2.277 . S
O87 C84 1.160 . S
O87 Cd88 2.203 . S
Cd88 O87 2.203 . S
Cd88 O90 2.411 . S
Cd88 O91 2.333 . S
Cd88 O92 2.352 . S
Cd88 O96 2.277 . S
Cd88 O97 2.356 . S
C89 O94 1.209 . S
C89 O96 1.226 . S
O90 Cd86 2.273 . S
O90 Cd88 2.411 . S
O90 C93 1.320 . S
O91 Cd88 2.333 . S
O91 C93 1.214 . S
O92 Cd88 2.352 . S
O92 C95 1.258 . S
C93 O90 1.320 . S
C93 O91 1.214 . S
O94 Cd86 2.277 . S
O94 C89 1.209 . S
C95 O92 1.258 . S
C95 O97 1.282 . S
O96 Cd88 2.277 . S
O96 C89 1.226 . S
O97 Cd88 2.356 . S
O97 C95 1.282 . S
C98 O99 1.306 . S
C98 O101 1.160 . S
O99 C98 1.306 . S
O99 Cd100 2.228 . S
Cd100 O99 2.228 . S
Cd100 O104 2.273 . S
Cd100 O108 2.277 . S
O101 C98 1.160 . S
O101 Cd102 2.203 . S
Cd102 O101 2.203 . S
Cd102 O104 2.411 . S
Cd102 O105 2.333 . S
Cd102 O106 2.352 . S
Cd102 O110 2.277 . S
Cd102 O111 2.356 . S
C103 O108 1.209 . S
C103 O110 1.226 . S
O104 Cd100 2.273 . S
O104 Cd102 2.411 . S
O104 C107 1.320 . S
O105 Cd102 2.333 . S
O105 C107 1.214 . S
O106 Cd102 2.352 . S
O106 C109 1.258 . S
C107 O104 1.320 . S
C107 O105 1.214 . S
O108 Cd100 2.277 . S
O108 C103 1.209 . S
C109 O106 1.258 . S
C109 O111 1.282 . S
O110 Cd102 2.277 . S
O110 C103 1.226 . S
O111 Cd102 2.356 . S
O111 C109 1.282 . S
C112 O113 1.306 . S
C112 O115 1.160 . S
O113 C112 1.306 . S
O113 Cd114 2.228 . S
Cd114 O113 2.228 . S
Cd114 O118 2.273 . S
Cd114 O122 2.277 . S
O115 C112 1.160 . S
O115 Cd116 2.203 . S
Cd116 O115 2.203 . S
Cd116 O118 2.411 . S
Cd116 O119 2.333 . S
Cd116 O120 2.352 . S
Cd116 O124 2.277 . S
Cd116 O125 2.356 . S
C117 O122 1.209 . S
C117 O124 1.226 . S
O118 Cd114 2.273 . S
O118 Cd116 2.411 . S
O118 C121 1.320 . S
O119 Cd116 2.333 . S
O119 C121 1.214 . S
O120 Cd116 2.352 . S
O120 C123 1.258 . S
C121 O118 1.320 . S
C121 O119 1.214 . S
O122 Cd114 2.277 . S
O122 C117 1.209 . S
C123 O120 1.258 . S
C123 O125 1.282 . S
O124 Cd116 2.277 . S
O124 C117 1.226 . S
O125 Cd116 2.356 . S
O125 C123 1.282 . S
C126 O127 1.306 . S
C126 O129 1.160 . S
O127 C126 1.306 . S
O127 Cd128 2.228 . S
Cd128 O127 2.228 . S
Cd128 O132 2.273 . S
Cd128 O136 2.277 . S
O129 C126 1.160 . S
O129 Cd130 2.203 . S
Cd130 O129 2.203 . S
Cd130 O132 2.411 . S
Cd130 O133 2.333 . S
Cd130 O134 2.352 . S
Cd130 O138 2.277 . S
Cd130 O139 2.356 . S
C131 O136 1.209 . S
C131 O138 1.226 . S
O132 Cd128 2.273 . S
O132 Cd130 2.411 . S
O132 C135 1.320 . S
O133 Cd130 2.333 . S
O133 C135 1.214 . S
O134 Cd130 2.352 . S
O134 C137 1.258 . S
C135 O132 1.320 . S
C135 O133 1.214 . S
O136 Cd128 2.277 . S
O136 C131 1.209 . S
C137 O134 1.258 . S
C137 O139 1.282 . S
O138 Cd130 2.277 . S
O138 C131 1.226 . S
O139 Cd130 2.356 . S
O139 C137 1.282 . S
C140 O141 1.306 . S
C140 O143 1.160 . S
O141 C140 1.306 . S
O141 Cd142 2.228 . S
Cd142 O141 2.228 . S
Cd142 O146 2.273 . S
Cd142 O150 2.277 . S
O143 C140 1.160 . S
O143 Cd144 2.203 . S
Cd144 O143 2.203 . S
Cd144 O146 2.411 . S
Cd144 O147 2.333 . S
Cd144 O148 2.352 . S
Cd144 O152 2.277 . S
Cd144 O153 2.356 . S
C145 O150 1.209 . S
C145 O152 1.226 . S
O146 Cd142 2.273 . S
O146 Cd144 2.411 . S
O146 C149 1.320 . S
O147 Cd144 2.333 . S
O147 C149 1.214 . S
O148 Cd144 2.352 . S
O148 C151 1.258 . S
C149 O146 1.320 . S
C149 O147 1.214 . S
O150 Cd142 2.277 . S
O150 C145 1.209 . S
C151 O148 1.258 . S
C151 O153 1.282 . S
O152 Cd144 2.277 . S
O152 C145 1.226 . S
O153 Cd144 2.356 . S
O153 C151 1.282 . S
C154 O155 1.306 . S
C154 O157 1.160 . S
O155 C154 1.306 . S
O155 Cd156 2.228 . S
Cd156 O155 2.228 . S
Cd156 O160 2.273 . S
Cd156 O164 2.277 . S
O157 C154 1.160 . S
O157 Cd158 2.203 . S
Cd158 O157 2.203 . S
Cd158 O160 2.411 . S
Cd158 O161 2.333 . S
Cd158 O162 2.352 . S
Cd158 O166 2.277 . S
Cd158 O167 2.356 . S
C159 O164 1.209 . S
C159 O166 1.226 . S
O160 Cd156 2.273 . S
O160 Cd158 2.411 . S
O160 C163 1.320 . S
O161 Cd158 2.333 . S
O161 C163 1.214 . S
O162 Cd158 2.352 . S
O162 C165 1.258 . S
C163 O160 1.320 . S
C163 O161 1.214 . S
O164 Cd156 2.277 . S
O164 C159 1.209 . S
C165 O162 1.258 . S
C165 O167 1.282 . S
O166 Cd158 2.277 . S
O166 C159 1.226 . S
O167 Cd158 2.356 . S
O167 C165 1.282 . S
H168 C174 0.930 . S
H169 C178 0.930 . S
H170 C183 0.929 . S
H171 C181 0.929 . S
H172 C176 0.929 . S
H173 C182 0.929 . S
C174 H168 0.930 . S
C174 C175 1.367 . S
C174 C182 1.378 . S
C175 C174 1.367 . S
C175 C183 1.433 . S
C176 H172 0.929 . S
C176 C178 1.378 . S
C176 C180 1.350 . S
C177 C180 1.463 1_566 S
C177 C182 1.350 . S
C177 N185 1.427 1_556 S
C178 H169 0.930 . S
C178 C176 1.378 . S
C178 C179 1.367 . S
C179 C178 1.367 . S
C179 C181 1.433 . S
C180 C176 1.350 . S
C180 C177 1.463 1_544 S
C180 N184 1.427 1_554 S
C181 H171 0.929 . S
C181 C179 1.433 . S
C181 N184 1.384 1_554 S
C182 H173 0.929 . S
C182 C174 1.378 . S
C182 C177 1.350 . S
C183 H170 0.929 . S
C183 C175 1.433 . S
C183 N185 1.384 1_556 S
N184 C180 1.427 1_556 S
N184 C181 1.384 1_556 S
N185 C177 1.427 1_554 S
N185 C183 1.384 1_554 S
H186 C192 0.930 . S
H187 C196 0.930 . S
H188 C201 0.929 . S
H189 C199 0.929 . S
H190 C194 0.929 . S
H191 C200 0.929 . S
C192 H186 0.930 . S
C192 C193 1.367 . S
C192 C200 1.378 . S
C193 C192 1.367 . S
C193 C201 1.433 . S
C194 H190 0.929 . S
C194 C196 1.378 . S
C194 C198 1.350 . S
C195 C198 1.463 . S
C195 C200 1.350 . S
C195 N203 1.427 . S
C196 H187 0.930 . S
C196 C194 1.378 . S
C196 C197 1.367 . S
C197 C196 1.367 . S
C197 C199 1.433 . S
C198 C194 1.350 . S
C198 C195 1.463 . S
C198 N202 1.427 . S
C199 H189 0.929 . S
C199 C197 1.433 . S
C199 N202 1.384 . S
C200 H191 0.929 . S
C200 C192 1.378 . S
C200 C195 1.350 . S
C201 H188 0.929 . S
C201 C193 1.433 . S
C201 N203 1.384 . S
N202 C198 1.427 . S
N202 C199 1.384 . S
N203 C195 1.427 . S
N203 C201 1.384 . S
H204 C210 0.930 . S
H205 C214 0.930 . S
H206 C219 0.929 . S
H207 C217 0.929 . S
H208 C212 0.929 . S
H209 C218 0.929 . S
C210 H204 0.930 . S
C210 C211 1.367 . S
C210 C218 1.378 . S
C211 C210 1.367 . S
C211 C219 1.433 . S
C212 H208 0.929 . S
C212 C214 1.378 . S
C212 C216 1.350 . S
C213 C216 1.463 1_655 S
C213 C218 1.350 . S
C213 N221 1.427 . S
C214 H205 0.930 . S
C214 C212 1.378 . S
C214 C215 1.367 . S
C215 C214 1.367 . S
C215 C217 1.433 . S
C216 C212 1.350 . S
C216 C213 1.463 1_455 S
C216 N220 1.427 . S
C217 H207 0.929 . S
C217 C215 1.433 . S
C217 N220 1.384 . S
C218 H209 0.929 . S
C218 C210 1.378 . S
C218 C213 1.350 . S
C219 H206 0.929 . S
C219 C211 1.433 . S
C219 N221 1.384 . S
N220 C216 1.427 . S
N220 C217 1.384 . S
N221 C213 1.427 . S
N221 C219 1.384 . S
H222 C228 0.930 . S
H223 C232 0.930 . S
H224 C237 0.929 . S
H225 C235 0.929 . S
H226 C230 0.900 1_554 S
H227 C236 0.900 1_556 S
C228 H222 0.930 . S
C228 C229 1.367 . S
C228 C236 1.399 . S
C229 C228 1.367 . S
C229 C237 1.433 . S
C230 H226 0.900 1_556 S
C230 C232 1.399 . S
C230 C234 1.359 . S
C231 C234 1.463 1_564 S
C231 C236 1.359 . S
C231 N239 1.427 . S
C232 H223 0.930 . S
C232 C230 1.399 . S
C232 C233 1.367 . S
C233 C232 1.367 . S
C233 C235 1.433 . S
C234 C230 1.359 . S
C234 C231 1.463 1_546 S
C234 N238 1.427 . S
C235 H225 0.929 . S
C235 C233 1.433 . S
C235 N238 1.384 . S
C236 H227 0.900 1_554 S
C236 C228 1.399 . S
C236 C231 1.359 . S
C237 H224 0.929 . S
C237 C229 1.433 . S
C237 N239 1.384 . S
N238 C234 1.427 . S
N238 C235 1.384 . S
N239 C231 1.427 . S
N239 C237 1.384 . S
H240 C246 0.930 . S
H241 C250 0.930 . S
H242 C255 0.929 . S
H243 C253 0.929 . S
H244 C248 0.929 . S
H245 C254 0.929 . S
C246 H240 0.930 . S
C246 C247 1.367 . S
C246 C254 1.378 . S
C247 C246 1.367 . S
C247 C255 1.433 . S
C248 H244 0.929 . S
C248 C250 1.378 . S
C248 C252 1.350 . S
C249 C252 1.463 . S
C249 C254 1.350 . S
C249 N257 1.427 . S
C250 H241 0.930 . S
C250 C248 1.378 . S
C250 C251 1.367 . S
C251 C250 1.367 . S
C251 C253 1.433 . S
C252 C248 1.350 . S
C252 C249 1.463 . S
C252 N256 1.427 . S
C253 H243 0.929 . S
C253 C251 1.433 . S
C253 N256 1.384 . S
C254 H245 0.929 . S
C254 C246 1.378 . S
C254 C249 1.350 . S
C255 H242 0.929 . S
C255 C247 1.433 . S
C255 N257 1.384 . S
N256 C252 1.427 . S
N256 C253 1.384 . S
N257 C249 1.427 . S
N257 C255 1.384 . S
H258 C264 0.930 . S
H259 C268 0.930 . S
H260 C273 0.929 . S
H261 C271 0.929 . S
H262 C266 0.929 . S
H263 C272 0.929 . S
C264 H258 0.930 . S
C264 C265 1.367 . S
C264 C272 1.378 . S
C265 C264 1.367 . S
C265 C273 1.433 . S
C266 H262 0.929 . S
C266 C268 1.378 . S
C266 C270 1.350 . S
C267 C270 1.463 1_655 S
C267 C272 1.350 . S
C267 N275 1.427 . S
C268 H259 0.930 . S
C268 C266 1.378 . S
C268 C269 1.367 . S
C269 C268 1.367 . S
C269 C271 1.433 . S
C270 C266 1.350 . S
C270 C267 1.463 1_455 S
C270 N274 1.427 . S
C271 H261 0.929 . S
C271 C269 1.433 . S
C271 N274 1.384 . S
C272 H263 0.929 . S
C272 C264 1.378 . S
C272 C267 1.350 . S
C273 H260 0.929 . S
C273 C265 1.433 . S
C273 N275 1.384 . S
N274 C270 1.427 . S
N274 C271 1.384 . S
N275 C267 1.427 . S
N275 C273 1.384 . S
H276 C282 0.930 . S
H277 C286 0.930 . S
H278 C291 0.929 . S
H279 C289 0.929 . S
H280 C284 0.935 . S
H281 C290 0.935 . S
C282 H276 0.930 . S
C282 C283 1.367 . S
C282 C290 1.374 1_556 S
C283 C282 1.367 . S
C283 C291 1.433 . S
C284 H280 0.935 . S
C284 C286 1.374 1_556 S
C284 C288 1.348 1_556 S
C285 C288 1.463 1_556 S
C285 C290 1.348 1_556 S
C285 N293 1.427 . S
C286 H277 0.930 . S
C286 C284 1.374 1_554 S
C286 C287 1.367 . S
C287 C286 1.367 . S
C287 C289 1.433 . S
C288 C284 1.348 1_554 S
C288 C285 1.463 1_554 S
C288 N292 1.427 . S
C289 H279 0.929 . S
C289 C287 1.433 . S
C289 N292 1.384 . S
C290 H281 0.935 . S
C290 C282 1.374 1_554 S
C290 C285 1.348 1_554 S
C291 H278 0.929 . S
C291 C283 1.433 . S
C291 N293 1.384 . S
N292 C288 1.427 . S
N292 C289 1.384 . S
N293 C285 1.427 . S
N293 C291 1.384 . S
H294 C300 0.930 . S
H295 C304 0.930 . S
H296 C309 0.929 . S
H297 C307 0.929 . S
H298 C302 0.929 . S
H299 C308 0.929 . S
C300 H294 0.930 . S
C300 C301 1.367 . S
C300 C308 1.378 . S
C301 C300 1.367 . S
C301 C309 1.433 . S
C302 H298 0.929 . S
C302 C304 1.378 . S
C302 C306 1.350 . S
C303 C306 1.463 . S
C303 C308 1.350 . S
C303 N311 1.427 . S
C304 H295 0.930 . S
C304 C302 1.378 . S
C304 C305 1.367 . S
C305 C304 1.367 . S
C305 C307 1.433 . S
C306 C302 1.350 . S
C306 C303 1.463 . S
C306 N310 1.427 . S
C307 H297 0.929 . S
C307 C305 1.433 . S
C307 N310 1.384 . S
C308 H299 0.929 . S
C308 C300 1.378 . S
C308 C303 1.350 . S
C309 H296 0.929 . S
C309 C301 1.433 . S
C309 N311 1.384 . S
N310 C306 1.427 . S
N310 C307 1.384 . S
N311 C303 1.427 . S
N311 C309 1.384 . S
H312 C318 0.930 . S
H313 C322 0.930 . S
H314 C327 0.929 . S
H315 C325 0.929 . S
H316 C320 0.929 . S
H317 C326 0.929 . S
C318 H312 0.930 . S
C318 C319 1.367 . S
C318 C326 1.378 . S
C319 C318 1.367 . S
C319 C327 1.433 . S
C320 H316 0.929 . S
C320 C322 1.378 . S
C320 C324 1.350 . S
C321 C324 1.463 . S
C321 C326 1.350 . S
C321 N329 1.427 . S
C322 H313 0.930 . S
C322 C320 1.378 . S
C322 C323 1.367 . S
C323 C322 1.367 . S
C323 C325 1.433 . S
C324 C320 1.350 . S
C324 C321 1.463 . S
C324 N328 1.427 . S
C325 H315 0.929 . S
C325 C323 1.433 . S
C325 N328 1.384 . S
C326 H317 0.929 . S
C326 C318 1.378 . S
C326 C321 1.350 . S
C327 H314 0.929 . S
C327 C319 1.433 . S
C327 N329 1.384 . S
N328 C324 1.427 . S
N328 C325 1.384 . S
N329 C321 1.427 . S
N329 C327 1.384 . S
H330 C336 0.930 . S
H331 C340 0.930 . S
H332 C345 0.929 . S
H333 C343 0.929 . S
H334 C338 0.929 . S
H335 C344 0.929 . S
C336 H330 0.930 . S
C336 C337 1.367 . S
C336 C344 1.378 . S
C337 C336 1.367 . S
C337 C345 1.433 . S
C338 H334 0.929 . S
C338 C340 1.378 . S
C338 C342 1.350 . S
C339 C342 1.463 1_556 S
C339 C344 1.350 . S
C339 N347 1.434 . S
C340 H331 0.930 . S
C340 C338 1.378 . S
C340 C341 1.367 . S
C341 C340 1.367 . S
C341 C343 1.433 . S
C342 C338 1.350 . S
C342 C339 1.463 1_554 S
C342 N346 1.434 . S
C343 H333 0.929 . S
C343 C341 1.433 . S
C343 N346 1.398 . S
C344 H335 0.929 . S
C344 C336 1.378 . S
C344 C339 1.350 . S
C345 H332 0.929 . S
C345 C337 1.433 . S
C345 N347 1.398 . S
N346 C342 1.434 . S
N346 C343 1.398 . S
N347 C339 1.434 . S
N347 C345 1.398 . S
H348 C354 0.930 . S
H349 C358 0.930 . S
H350 C363 0.929 . S
H351 C361 0.929 . S
H352 C356 0.929 . S
H353 C362 0.929 . S
C354 H348 0.930 . S
C354 C355 1.367 . S
C354 C362 1.378 . S
C355 C354 1.367 . S
C355 C363 1.433 . S
C356 H352 0.929 . S
C356 C358 1.378 . S
C356 C360 1.350 . S
C357 C360 1.463 . S
C357 C362 1.350 . S
C357 N365 1.427 . S
C358 H349 0.930 . S
C358 C356 1.378 . S
C358 C359 1.367 . S
C359 C358 1.367 . S
C359 C361 1.433 . S
C360 C356 1.350 . S
C360 C357 1.463 . S
C360 N364 1.427 . S
C361 H351 0.929 . S
C361 C359 1.433 . S
C361 N364 1.384 . S
C362 H353 0.929 . S
C362 C354 1.378 . S
C362 C357 1.350 . S
C363 H350 0.929 . S
C363 C355 1.433 . S
C363 N365 1.384 . S
N364 C360 1.427 . S
N364 C361 1.384 . S
N365 C357 1.427 . S
N365 C363 1.384 . S
H366 C372 0.930 . S
H367 C376 0.930 . S
H368 C381 0.929 . S
H369 C379 0.929 . S
H370 C374 0.929 . S
H371 C380 0.929 . S
C372 H366 0.930 . S
C372 C373 1.367 . S
C372 C380 1.378 . S
C373 C372 1.367 . S
C373 C381 1.433 . S
C374 H370 0.929 . S
C374 C376 1.378 . S
C374 C378 1.350 . S
C375 C378 1.463 . S
C375 C380 1.350 . S
C375 N383 1.427 . S
C376 H367 0.930 . S
C376 C374 1.378 . S
C376 C377 1.367 . S
C377 C376 1.367 . S
C377 C379 1.433 . S
C378 C374 1.350 . S
C378 C375 1.463 . S
C378 N382 1.427 . S
C379 H369 0.929 . S
C379 C377 1.433 . S
C379 N382 1.384 . S
C380 H371 0.929 . S
C380 C372 1.378 . S
C380 C375 1.350 . S
C381 H368 0.929 . S
C381 C373 1.433 . S
C381 N383 1.384 . S
N382 C378 1.427 . S
N382 C379 1.384 . S
N383 C375 1.427 . S
N383 C381 1.384 . S
H384 C390 0.930 . S
H385 C394 0.930 . S
H386 C399 0.929 . S
H387 C397 0.929 . S
H388 C392 0.929 . S
H389 C398 0.929 . S
C390 H384 0.930 . S
C390 C391 1.367 . S
C390 C398 1.378 . S
C391 C390 1.367 . S
C391 C399 1.433 . S
C392 H388 0.929 . S
C392 C394 1.378 . S
C392 C396 1.350 . S
C393 C396 1.463 . S
C393 C398 1.350 . S
C393 N401 1.427 . S
C394 H385 0.930 . S
C394 C392 1.378 . S
C394 C395 1.367 . S
C395 C394 1.367 . S
C395 C397 1.433 . S
C396 C392 1.350 . S
C396 C393 1.463 . S
C396 N400 1.427 . S
C397 H387 0.929 . S
C397 C395 1.433 . S
C397 N400 1.384 . S
C398 H389 0.929 . S
C398 C390 1.378 . S
C398 C393 1.350 . S
C399 H386 0.929 . S
C399 C391 1.433 . S
C399 N401 1.384 . S
N400 C396 1.427 . S
N400 C397 1.384 . S
N401 C393 1.427 . S
N401 C399 1.384 . S
H402 C408 0.930 . S
H403 C412 0.930 . S
H404 C417 0.929 . S
H405 C415 0.929 . S
H406 C410 0.929 . S
H407 C416 0.929 . S
C408 H402 0.930 . S
C408 C409 1.367 . S
C408 C416 1.378 . S
C409 C408 1.367 . S
C409 C417 1.433 . S
C410 H406 0.929 . S
C410 C412 1.378 . S
C410 C414 1.350 . S
C411 C414 1.463 . S
C411 C416 1.350 . S
C411 N419 1.427 . S
C412 H403 0.930 . S
C412 C410 1.378 . S
C412 C413 1.367 . S
C413 C412 1.367 . S
C413 C415 1.433 . S
C414 C410 1.350 . S
C414 C411 1.463 . S
C414 N418 1.427 . S
C415 H405 0.929 . S
C415 C413 1.433 . S
C415 N418 1.384 . S
C416 H407 0.929 . S
C416 C408 1.378 . S
C416 C411 1.350 . S
C417 H404 0.929 . S
C417 C409 1.433 . S
C417 N419 1.384 . S
N418 C414 1.427 . S
N418 C415 1.384 . S
N419 C411 1.427 . S
N419 C417 1.384 . S
H420 C426 0.930 . S
H421 C430 0.930 . S
H422 C435 0.929 . S
H423 C433 0.929 . S
H424 C428 0.929 . S
H425 C434 0.929 . S
C426 H420 0.930 . S
C426 C427 1.367 . S
C426 C434 1.378 . S
C427 C426 1.367 . S
C427 C435 1.433 . S
C428 H424 0.929 . S
C428 C430 1.378 . S
C428 C432 1.350 . S
C429 C432 1.463 . S
C429 C434 1.350 . S
C429 N437 1.427 . S
C430 H421 0.930 . S
C430 C428 1.378 . S
C430 C431 1.367 . S
C431 C430 1.367 . S
C431 C433 1.433 . S
C432 C428 1.350 . S
C432 C429 1.463 . S
C432 N436 1.427 . S
C433 H423 0.929 . S
C433 C431 1.433 . S
C433 N436 1.384 . S
C434 H425 0.929 . S
C434 C426 1.378 . S
C434 C429 1.350 . S
C435 H422 0.929 . S
C435 C427 1.433 . S
C435 N437 1.384 . S
N436 C432 1.427 . S
N436 C433 1.384 . S
N437 C429 1.427 . S
N437 C435 1.384 . S
H438 C444 0.930 . S
H439 C448 0.930 . S
H440 C453 0.929 . S
H441 C451 0.929 . S
H442 C446 0.929 . S
H443 C452 0.929 . S
C444 H438 0.930 . S
C444 C445 1.367 . S
C444 C452 1.378 . S
C445 C444 1.367 . S
C445 C453 1.433 . S
C446 H442 0.929 . S
C446 C448 1.378 . S
C446 C450 1.350 . S
C447 C450 1.463 . S
C447 C452 1.350 . S
C447 N455 1.427 . S
C448 H439 0.930 . S
C448 C446 1.378 . S
C448 C449 1.367 . S
C449 C448 1.367 . S
C449 C451 1.433 . S
C450 C446 1.350 . S
C450 C447 1.463 . S
C450 N454 1.427 . S
C451 H441 0.929 . S
C451 C449 1.433 . S
C451 N454 1.384 . S
C452 H443 0.929 . S
C452 C444 1.378 . S
C452 C447 1.350 . S
C453 H440 0.929 . S
C453 C445 1.433 . S
C453 N455 1.384 . S
N454 C450 1.427 . S
N454 C451 1.384 . S
N455 C447 1.427 . S
N455 C453 1.384 . S
H456 C462 0.930 . S
H457 C466 0.930 . S
H458 C471 0.929 . S
H459 C469 0.929 . S
H460 C464 0.929 . S
H461 C470 0.929 . S
C462 H456 0.930 . S
C462 C463 1.367 . S
C462 C470 1.378 . S
C463 C462 1.367 . S
C463 C471 1.433 . S
C464 H460 0.929 . S
C464 C466 1.378 . S
C464 C468 1.350 . S
C465 C468 1.463 . S
C465 C470 1.350 . S
C465 N473 1.427 . S
C466 H457 0.930 . S
C466 C464 1.378 . S
C466 C467 1.367 . S
C467 C466 1.367 . S
C467 C469 1.433 . S
C468 C464 1.350 . S
C468 C465 1.463 . S
C468 N472 1.427 . S
C469 H459 0.929 . S
C469 C467 1.433 . S
C469 N472 1.384 . S
C470 H461 0.929 . S
C470 C462 1.378 . S
C470 C465 1.350 . S
C471 H458 0.929 . S
C471 C463 1.433 . S
C471 N473 1.384 . S
N472 C468 1.427 . S
N472 C469 1.384 . S
N473 C465 1.427 . S
N473 C471 1.384 . S
H474 C480 0.930 . S
H475 C484 0.930 . S
H476 C489 0.929 . S
H477 C487 0.929 . S
H478 C482 0.929 . S
H479 C488 0.929 . S
C480 H474 0.930 . S
C480 C481 1.367 . S
C480 C488 1.378 . S
C481 C480 1.367 . S
C481 C489 1.433 . S
C482 H478 0.929 . S
C482 C484 1.378 . S
C482 C486 1.350 . S
C483 C486 1.463 . S
C483 C488 1.350 . S
C483 N491 1.427 . S
C484 H475 0.930 . S
C484 C482 1.378 . S
C484 C485 1.367 . S
C485 C484 1.367 . S
C485 C487 1.433 . S
C486 C482 1.350 . S
C486 C483 1.463 . S
C486 N490 1.427 . S
C487 H477 0.929 . S
C487 C485 1.433 . S
C487 N490 1.384 . S
C488 H479 0.929 . S
C488 C480 1.378 . S
C488 C483 1.350 . S
C489 H476 0.929 . S
C489 C481 1.433 . S
C489 N491 1.384 . S
N490 C486 1.427 . S
N490 C487 1.384 . S
N491 C483 1.427 . S
N491 C489 1.384 . S
H492 C498 0.930 . S
H493 C502 0.930 . S
H494 C507 0.929 . S
H495 C505 0.929 . S
H496 C500 0.929 . S
H497 C506 0.929 . S
C498 H492 0.930 . S
C498 C499 1.367 . S
C498 C506 1.378 . S
C499 C498 1.367 . S
C499 C507 1.433 . S
C500 H496 0.929 . S
C500 C502 1.378 . S
C500 C504 1.350 . S
C501 C504 1.463 . S
C501 C506 1.350 . S
C501 N509 1.427 . S
C502 H493 0.930 . S
C502 C500 1.378 . S
C502 C503 1.367 . S
C503 C502 1.367 . S
C503 C505 1.433 . S
C504 C500 1.350 . S
C504 C501 1.463 . S
C504 N508 1.427 . S
C505 H495 0.929 . S
C505 C503 1.433 . S
C505 N508 1.384 . S
C506 H497 0.929 . S
C506 C498 1.378 . S
C506 C501 1.350 . S
C507 H494 0.929 . S
C507 C499 1.433 . S
C507 N509 1.384 . S
N508 C504 1.427 . S
N508 C505 1.384 . S
N509 C501 1.427 . S
N509 C507 1.384 . S
H510 C516 0.930 . S
H511 C520 0.930 . S
H512 C525 0.929 . S
H513 C523 0.929 . S
H514 C518 0.929 . S
H515 C524 0.929 . S
C516 H510 0.930 . S
C516 C517 1.367 . S
C516 C524 1.378 . S
C517 C516 1.367 . S
C517 C525 1.433 . S
C518 H514 0.929 . S
C518 C520 1.378 . S
C518 C522 1.350 . S
C519 C522 1.463 1_655 S
C519 C524 1.350 . S
C519 N527 1.427 . S
C520 H511 0.930 . S
C520 C518 1.378 . S
C520 C521 1.367 . S
C521 C520 1.367 . S
C521 C523 1.433 . S
C522 C518 1.350 . S
C522 C519 1.463 1_455 S
C522 N526 1.427 . S
C523 H513 0.929 . S
C523 C521 1.433 . S
C523 N526 1.384 . S
C524 H515 0.929 . S
C524 C516 1.378 . S
C524 C519 1.350 . S
C525 H512 0.929 . S
C525 C517 1.433 . S
C525 N527 1.384 . S
N526 C522 1.427 . S
N526 C523 1.384 . S
N527 C519 1.427 . S
N527 C525 1.384 . S
H528 C534 0.930 . S
H529 C538 0.930 . S
H530 C543 0.929 . S
H531 C541 0.929 . S
H532 C536 0.929 . S
H533 C542 0.929 . S
C534 H528 0.930 . S
C534 C535 1.367 . S
C534 C542 1.378 . S
C535 C534 1.367 . S
C535 C543 1.433 . S
C536 H532 0.929 . S
C536 C538 1.378 . S
C536 C540 1.350 . S
C537 C540 1.463 1_545 S
C537 C542 1.350 . S
C537 N545 1.427 . S
C538 H529 0.930 . S
C538 C536 1.378 . S
C538 C539 1.367 . S
C539 C538 1.367 . S
C539 C541 1.433 . S
C540 C536 1.350 . S
C540 C537 1.463 1_565 S
C540 N544 1.427 . S
C541 H531 0.929 . S
C541 C539 1.433 . S
C541 N544 1.384 . S
C542 H533 0.929 . S
C542 C534 1.378 . S
C542 C537 1.350 . S
C543 H530 0.929 . S
C543 C535 1.433 . S
C543 N545 1.384 . S
N544 C540 1.427 . S
N544 C541 1.384 . S
N545 C537 1.427 . S
N545 C543 1.384 . S
H546 C552 0.930 . S
H547 C556 0.930 . S
H548 C561 0.929 . S
H549 C559 0.929 . S
H550 C554 0.929 . S
H551 C560 0.929 . S
C552 H546 0.930 . S
C552 C553 1.367 . S
C552 C560 1.378 . S
C553 C552 1.367 . S
C553 C561 1.433 . S
C554 H550 0.929 . S
C554 C556 1.378 . S
C554 C558 1.350 . S
C555 C558 1.463 . S
C555 C560 1.350 . S
C555 N563 1.427 . S
C556 H547 0.930 . S
C556 C554 1.378 . S
C556 C557 1.367 . S
C557 C556 1.367 . S
C557 C559 1.433 . S
C558 C554 1.350 . S
C558 C555 1.463 . S
C558 N562 1.427 . S
C559 H549 0.929 . S
C559 C557 1.433 . S
C559 N562 1.384 . S
C560 H551 0.929 . S
C560 C552 1.378 . S
C560 C555 1.350 . S
C561 H548 0.929 . S
C561 C553 1.433 . S
C561 N563 1.384 . S
N562 C558 1.427 . S
N562 C559 1.384 . S
N563 C555 1.427 . S
N563 C561 1.384 . S
H564 C570 0.930 . S
H565 C574 0.930 . S
H566 C579 0.929 . S
H567 C577 0.929 . S
H568 C572 0.929 . S
H569 C578 0.929 . S
C570 H564 0.930 . S
C570 C571 1.367 . S
C570 C578 1.378 . S
C571 C570 1.367 . S
C571 C579 1.433 . S
C572 H568 0.929 . S
C572 C574 1.378 . S
C572 C576 1.350 . S
C573 C576 1.463 1_455 S
C573 C578 1.350 . S
C573 N581 1.424 1_455 S
C574 H565 0.930 . S
C574 C572 1.378 . S
C574 C575 1.367 . S
C575 C574 1.367 . S
C575 C577 1.433 . S
C576 C572 1.350 . S
C576 C573 1.463 1_655 S
C576 N580 1.424 1_655 S
C577 H567 0.929 . S
C577 C575 1.433 . S
C577 N580 1.384 1_655 S
C578 H569 0.929 . S
C578 C570 1.378 . S
C578 C573 1.350 . S
C579 H566 0.929 . S
C579 C571 1.433 . S
C579 N581 1.384 1_455 S
N580 C576 1.424 1_455 S
N580 C577 1.384 1_455 S
N581 C573 1.424 1_655 S
N581 C579 1.384 1_655 S
H582 C588 0.930 . S
H583 C592 0.930 . S
H584 C597 0.929 . S
H585 C595 0.929 . S
H586 C590 0.929 . S
H587 C596 0.929 . S
C588 H582 0.930 . S
C588 C589 1.367 . S
C588 C596 1.378 . S
C589 C588 1.367 . S
C589 C597 1.433 . S
C590 H586 0.929 . S
C590 C592 1.378 . S
C590 C594 1.350 . S
C591 C594 1.463 1_565 S
C591 C596 1.350 . S
C591 N599 1.427 . S
C592 H583 0.930 . S
C592 C590 1.378 . S
C592 C593 1.367 . S
C593 C592 1.367 . S
C593 C595 1.433 . S
C594 C590 1.350 . S
C594 C591 1.463 1_545 S
C594 N598 1.427 . S
C595 H585 0.929 . S
C595 C593 1.433 . S
C595 N598 1.384 . S
C596 H587 0.929 . S
C596 C588 1.378 . S
C596 C591 1.350 . S
C597 H584 0.929 . S
C597 C589 1.433 . S
C597 N599 1.384 . S
N598 C594 1.427 . S
N598 C595 1.384 . S
N599 C591 1.427 . S
N599 C597 1.384 . S
C175 C98 1.352 . S
C179 C0 1.345 . S
C193 C14 1.344 . S
C197 C112 1.341 . S
C211 C28 1.341 . S
C215 C126 1.344 . S
C229 C42 1.339 . S
C233 C140 1.348 . S
C247 C154 1.348 . S
C251 C56 1.339 . S
C265 C84 1.341 . S
C269 C70 1.352 . S
C283 C145 1.419 . S
C287 C5 1.421 . S
C301 C19 1.418 . S
C305 C159 1.421 . S
C319 C33 1.416 . S
C323 C89 1.418 . S
C337 C103 1.419 . S
C341 C47 1.416 . S
C355 C117 1.416 . S
C359 C61 1.419 . S
C373 C131 1.420 . S
C377 C75 1.418 . S
C391 C11 1.710 . S
C395 C123 1.713 . S
C409 C25 1.709 . S
C413 C137 1.714 . S
C427 C151 1.716 . S
C431 C39 1.710 . S
C445 C53 1.716 . S
C449 C165 1.710 . S
C463 C95 1.716 . S
C467 C67 1.708 . S
C481 C109 1.713 . S
C485 C81 1.714 . S
C499 C51 1.360 . S
C503 C9 1.353 . S
C517 C65 1.355 . S
C521 C23 1.349 . S
C535 C37 1.351 . S
C539 C79 1.358 . S
C553 C93 1.349 . S
C557 C135 1.355 . S
C571 C107 1.349 . S
C575 C149 1.355 . S
C589 C163 1.353 . S
C593 C121 1.360 . S
