# Generated by pormake.
# Topology wjf, (4)-cn, num edge types: 1
# Building blocks:
#     Node 0, Type 0, BuildingBlock: UXUYUI_clean_sbu_0, # of connection points: 4
#     Node 1, Type 0, BuildingBlock: UXUYUI_clean_sbu_0, # of connection points: 4
#     Node 2, Type 0, BuildingBlock: UXUYUI_clean_sbu_0, # of connection points: 4
#     Node 3, Type 0, BuildingBlock: UXUYUI_clean_sbu_0, # of connection points: 4
#     Node 4, Type 0, BuildingBlock: UXUYUI_clean_sbu_0, # of connection points: 4
#     Node 5, Type 0, BuildingBlock: UXUYUI_clean_sbu_0, # of connection points: 4
#     Node 6, Type 0, BuildingBlock: UXUYUI_clean_sbu_0, # of connection points: 4
#     Node 7, Type 0, BuildingBlock: UXUYUI_clean_sbu_0, # of connection points: 4
#     Node 8, Type 0, BuildingBlock: UXUYUI_clean_sbu_0, # of connection points: 4
#     Node 9, Type 0, BuildingBlock: UXUYUI_clean_sbu_0, # of connection points: 4
#     Node 10, Type 0, BuildingBlock: UXUYUI_clean_sbu_0, # of connection points: 4
#     Node 11, Type 0, BuildingBlock: UXUYUI_clean_sbu_0, # of connection points: 4
#     Edge 12, Type (0, 0), BuildingBlock: MIFKUJ_clean_linker_0, # of connection points: 2
#     Edge 13, Type (0, 0), BuildingBlock: MIFKUJ_clean_linker_0, # of connection points: 2
#     Edge 14, Type (0, 0), BuildingBlock: MIFKUJ_clean_linker_0, # of connection points: 2
#     Edge 15, Type (0, 0), BuildingBlock: MIFKUJ_clean_linker_0, # of connection points: 2
#     Edge 16, Type (0, 0), BuildingBlock: MIFKUJ_clean_linker_0, # of connection points: 2
#     Edge 17, Type (0, 0), BuildingBlock: MIFKUJ_clean_linker_0, # of connection points: 2
#     Edge 18, Type (0, 0), BuildingBlock: MIFKUJ_clean_linker_0, # of connection points: 2
#     Edge 19, Type (0, 0), BuildingBlock: MIFKUJ_clean_linker_0, # of connection points: 2
#     Edge 20, Type (0, 0), BuildingBlock: MIFKUJ_clean_linker_0, # of connection points: 2
#     Edge 21, Type (0, 0), BuildingBlock: MIFKUJ_clean_linker_0, # of connection points: 2
#     Edge 22, Type (0, 0), BuildingBlock: MIFKUJ_clean_linker_0, # of connection points: 2
#     Edge 23, Type (0, 0), BuildingBlock: MIFKUJ_clean_linker_0, # of connection points: 2
#     Edge 24, Type (0, 0), BuildingBlock: MIFKUJ_clean_linker_0, # of connection points: 2
#     Edge 25, Type (0, 0), BuildingBlock: MIFKUJ_clean_linker_0, # of connection points: 2
#     Edge 26, Type (0, 0), BuildingBlock: MIFKUJ_clean_linker_0, # of connection points: 2
#     Edge 27, Type (0, 0), BuildingBlock: MIFKUJ_clean_linker_0, # of connection points: 2
#     Edge 28, Type (0, 0), BuildingBlock: MIFKUJ_clean_linker_0, # of connection points: 2
#     Edge 29, Type (0, 0), BuildingBlock: MIFKUJ_clean_linker_0, # of connection points: 2
#     Edge 30, Type (0, 0), BuildingBlock: MIFKUJ_clean_linker_0, # of connection points: 2
#     Edge 31, Type (0, 0), BuildingBlock: MIFKUJ_clean_linker_0, # of connection points: 2
#     Edge 32, Type (0, 0), BuildingBlock: MIFKUJ_clean_linker_0, # of connection points: 2
#     Edge 33, Type (0, 0), BuildingBlock: MIFKUJ_clean_linker_0, # of connection points: 2
#     Edge 34, Type (0, 0), BuildingBlock: MIFKUJ_clean_linker_0, # of connection points: 2
#     Edge 35, Type (0, 0), BuildingBlock: MIFKUJ_clean_linker_0, # of connection points: 2
# Relax obj value: 0.355
# Max RMSD: 0.304
# Mean RMSD: 0.304
data_MOF--net-wjf--node1-UXUYUI_clean_sbu_0--edge1-MIFKUJ_clean_linker_0
_symmetry_space_group_name_H-M    P1
_symmetry_Int_Tables_number       1
_symmetry_cell_setting            triclinic
loop_
_symmetry_equiv_pos_as_xyz
'x, y, z'
_cell_length_a     87.589591
_cell_length_b     87.586194
_cell_length_c     46.684645
_cell_angle_alpha  90.005359
_cell_angle_beta   89.982443
_cell_angle_gamma 119.98009
loop_
_atom_site_label
_atom_site_type_symbol
_atom_site_fract_x
_atom_site_fract_y
_atom_site_fract_z
_atom_type_partial_charge
Li0 Li 0.31642 0.37579 0.06068 0.0
Li1 Li 0.32515 0.36285 0.09664 0.0
Li2 Li 0.34699 0.38537 0.06312 0.0
Li3 Li 0.32462 0.35513 0.04688 0.0
C4 C 0.32653 0.39804 0.10522 0.0
N5 N 0.31376 0.41825 0.12926 0.0
C6 C 0.31011 0.38992 0.11877 0.0
C7 C 0.33654 0.41641 0.10408 0.0
C8 C 0.30385 0.40037 0.13071 0.0
C9 C 0.32983 0.42641 0.11634 0.0
C10 C 0.29576 0.33313 0.07897 0.0
C11 C 0.29608 0.30666 0.09231 0.0
N12 N 0.27821 0.29791 0.09428 0.0
C13 C 0.27738 0.32385 0.08121 0.0
C14 C 0.3052 0.32445 0.08463 0.0
C15 C 0.26876 0.30607 0.08895 0.0
C16 C 0.28306 0.36943 0.04625 0.0
N17 N 0.2996 0.38291 0.05159 0.0
C18 C 0.29059 0.40406 0.04189 0.0
C19 C 0.30358 0.40002 0.04959 0.0
C20 C 0.27337 0.39033 0.03675 0.0
C21 C 0.26963 0.37284 0.03905 0.0
H22 H 0.28033 0.35599 0.04728 0.0
H23 H 0.31685 0.41055 0.05362 0.0
C24 C 0.33667 0.35523 0.14711 0.0
N25 N 0.3223 0.3542 0.13421 0.0
C26 C 0.33519 0.34797 0.17419 0.0
C27 C 0.30417 0.33894 0.17432 0.0
C28 C 0.30627 0.34641 0.1472 0.0
C29 C 0.31875 0.3396 0.18806 0.0
H30 H 0.34922 0.36152 0.13613 0.0
H31 H 0.29507 0.3458 0.13636 0.0
C32 C 0.3286 0.38767 0.00901 0.0
N33 N 0.32079 0.4068 0.97055 0.0
C34 C 0.31628 0.37906 0.98723 0.0
C35 C 0.33704 0.40603 0.01108 0.0
C36 C 0.31247 0.38895 0.96806 0.0
C37 C 0.33291 0.41546 0.99145 0.0
C38 C 0.35787 0.36031 0.06392 0.0
C39 C 0.36443 0.36667 0.03652 0.0
C40 C 0.36544 0.35244 0.08025 0.0
C41 C 0.3785 0.36509 0.02597 0.0
C42 C 0.37947 0.35109 0.06891 0.0
N43 N 0.38567 0.35739 0.04224 0.0
C44 C 0.37995 0.40789 0.08593 0.0
C45 C 0.37858 0.41157 0.03583 0.0
C46 C 0.39783 0.42053 0.08631 0.0
N47 N 0.37077 0.40369 0.06097 0.0
C48 C 0.3964 0.42447 0.03528 0.0
C49 C 0.40625 0.42898 0.06074 0.0
H50 H 0.37338 0.40122 0.10549 0.0
H51 H 0.37107 0.40764 0.01617 0.0
C52 C 0.30365 0.33153 0.0065 0.0
N53 N 0.31871 0.33621 0.02124 0.0
C54 C 0.29818 0.31896 0.9849 0.0
C55 C 0.32306 0.3151 0.99556 0.0
C56 C 0.32804 0.32779 0.01709 0.0
C57 C 0.30827 0.31099 0.97853 0.0
H58 H 0.29618 0.33804 0.01099 0.0
H59 H 0.33954 0.33114 0.02988 0.0
O60 O 0.33284 0.38806 0.09323 0.0
O61 O 0.3043 0.35061 0.07148 0.0
O62 O 0.33242 0.37822 0.02815 0.0
O63 O 0.34431 0.36198 0.07502 0.0
H64 H 0.30218 0.3757 0.11967 0.0
H65 H 0.3493 0.42286 0.09368 0.0
H66 H 0.2911 0.39428 0.14109 0.0
H67 H 0.33739 0.44065 0.11554 0.0
H68 H 0.30324 0.29982 0.09672 0.0
H69 H 0.26983 0.33032 0.07715 0.0
H70 H 0.31939 0.33129 0.08319 0.0
H71 H 0.25454 0.29875 0.09075 0.0
H72 H 0.29388 0.41771 0.04024 0.0
H73 H 0.25652 0.36194 0.03479 0.0
H74 H 0.34671 0.34859 0.18392 0.0
H75 H 0.29134 0.33281 0.18446 0.0
H76 H 0.30972 0.3649 0.98508 0.0
H77 H 0.34641 0.41292 0.02806 0.0
H78 H 0.30292 0.38243 0.95117 0.0
H79 H 0.33924 0.42966 0.99297 0.0
H80 H 0.35869 0.37268 0.02343 0.0
H81 H 0.36051 0.34742 0.10147 0.0
H82 H 0.3837 0.36996 0.00481 0.0
H83 H 0.38546 0.34503 0.08133 0.0
H84 H 0.40497 0.42374 0.10638 0.0
H85 H 0.40252 0.43055 0.0151 0.0
H86 H 0.28679 0.31638 0.97219 0.0
H87 H 0.33105 0.30907 0.99157 0.0
Li88 Li 0.95992 0.32407 0.43203 0.0
Li89 Li 0.93722 0.31545 0.39488 0.0
Li90 Li 0.96808 0.32956 0.38172 0.0
Li91 Li 0.95559 0.34536 0.40659 0.0
C92 C 0.96345 0.29823 0.40337 0.0
N93 N 0.98286 0.28137 0.40835 0.0
C94 C 0.95558 0.28017 0.39792 0.0
C95 C 0.98122 0.30774 0.41125 0.0
C96 C 0.96561 0.27188 0.40057 0.0
C97 C 0.9908 0.29897 0.41368 0.0
C98 C 0.93306 0.33604 0.44778 0.0
C99 C 0.91467 0.34916 0.45277 0.0
N100 N 0.92292 0.3567 0.47783 0.0
C101 C 0.94125 0.34379 0.47369 0.0
C102 C 0.91957 0.33862 0.43731 0.0
C103 C 0.93597 0.35423 0.48853 0.0
C104 C 0.97776 0.33125 0.484 0.0
N105 N 0.96609 0.31793 0.46707 0.0
C106 C 0.96499 0.29642 0.49971 0.0
C107 C 0.95953 0.30076 0.47444 0.0
C108 C 0.977 0.3099 0.51786 0.0
C109 C 0.98325 0.32754 0.50975 0.0
H110 H 0.98269 0.34478 0.47753 0.0
H111 H 0.95022 0.29043 0.46051 0.0
C112 C 0.91359 0.28896 0.35809 0.0
N113 N 0.91473 0.29734 0.38316 0.0
C114 C 0.89732 0.27561 0.34832 0.0
C115 C 0.8838 0.2792 0.39105 0.0
C116 C 0.90033 0.29272 0.39974 0.0
C117 C 0.88211 0.27046 0.36494 0.0
H118 H 0.92534 0.29278 0.34556 0.0
H119 H 0.90171 0.29941 0.41986 0.0
C120 C 0.99256 0.3618 0.40634 0.0
N121 N 0.02089 0.39385 0.39023 0.0
C122 C 0.99144 0.37055 0.38203 0.0
C123 C 0.00808 0.36939 0.42243 0.0
C124 C 0.0059 0.38673 0.37427 0.0
C125 C 0.02227 0.38558 0.41391 0.0
C126 C 0.93932 0.3314 0.34466 0.0
C127 C 0.94439 0.32836 0.31783 0.0
C128 C 0.92298 0.33044 0.34769 0.0
C129 C 0.93284 0.32395 0.29467 0.0
C130 C 0.91179 0.32598 0.32403 0.0
N131 N 0.9169 0.32283 0.29824 0.0
C132 C 0.97455 0.31354 0.33726 0.0
C133 C 0.00011 0.34077 0.34817 0.0
C134 C 0.98303 0.31088 0.31429 0.0
N135 N 0.98298 0.32846 0.35324 0.0
C136 C 0.00906 0.33877 0.32497 0.0
C137 C 0.00035 0.32379 0.30752 0.0
H138 H 0.96094 0.30398 0.34181 0.0
H139 H 0.00679 0.35228 0.36157 0.0
C140 C 0.96779 0.37879 0.43129 0.0
N141 N 0.95736 0.36785 0.41021 0.0
C142 C 0.97107 0.39608 0.43284 0.0
C143 C 0.95229 0.39032 0.39157 0.0
C144 C 0.94947 0.37317 0.39072 0.0
C145 C 0.96349 0.40214 0.41252 0.0
H146 H 0.97404 0.37424 0.44634 0.0
H147 H 0.94135 0.36427 0.37407 0.0
O148 O 0.95378 0.30651 0.4006 0.0
O149 O 0.93835 0.32613 0.43261 0.0
O150 O 0.97844 0.34621 0.41505 0.0
O151 O 0.95041 0.33555 0.36765 0.0
H152 H 0.94186 0.27266 0.39166 0.0
H153 H 0.98758 0.32174 0.41542 0.0
H154 H 0.95969 0.25791 0.39644 0.0
H155 H 0.00454 0.30616 0.4198 0.0
H156 H 0.90433 0.35136 0.44482 0.0
H157 H 0.95169 0.34192 0.48213 0.0
H158 H 0.91301 0.33264 0.41741 0.0
H159 H 0.94227 0.36041 0.50852 0.0
H160 H 0.95994 0.28266 0.50476 0.0
H161 H 0.9921 0.33843 0.52327 0.0
H162 H 0.8967 0.2695 0.32787 0.0
H163 H 0.87257 0.27546 0.40492 0.0
H164 H 0.97958 0.36494 0.36924 0.0
H165 H 0.00913 0.36284 0.44137 0.0
H166 H 0.00521 0.39364 0.35555 0.0
H167 H 0.03436 0.3916 0.42618 0.0
H168 H 0.95716 0.32953 0.31481 0.0
H169 H 0.91886 0.33285 0.3682 0.0
H170 H 0.93658 0.32148 0.27384 0.0
H171 H 0.89903 0.32499 0.32619 0.0
H172 H 0.97575 0.2993 0.30099 0.0
H173 H 0.02244 0.34898 0.3203 0.0
H174 H 0.98001 0.40476 0.44909 0.0
H175 H 0.94597 0.39434 0.37573 0.0
Li176 Li 0.63465 0.96484 0.75923 0.0
Li177 Li 0.62086 0.94142 0.72418 0.0
Li178 Li 0.63893 0.97269 0.71037 0.0
Li179 Li 0.60933 0.96169 0.73096 0.0
C180 C 0.65905 0.95698 0.7458 0.0
N181 N 0.68456 0.95572 0.77884 0.0
C182 C 0.65692 0.94075 0.75444 0.0
C183 C 0.67424 0.97256 0.75372 0.0
C184 C 0.66996 0.94039 0.77118 0.0
C185 C 0.68695 0.97165 0.77053 0.0
C186 C 0.59344 0.93179 0.76629 0.0
C187 C 0.56404 0.90973 0.75246 0.0
N188 N 0.55978 0.90568 0.78053 0.0
C189 C 0.58878 0.92746 0.795 0.0
C190 C 0.581 0.9229 0.74484 0.0
C191 C 0.57169 0.91419 0.80177 0.0
C192 C 0.65211 0.98791 0.80413 0.0
N193 N 0.64532 0.9709 0.79569 0.0
C194 C 0.65445 0.96368 0.83935 0.0
C195 C 0.64619 0.95874 0.81267 0.0
C196 C 0.66143 0.98115 0.84863 0.0
C197 C 0.66026 0.99335 0.83067 0.0
H198 H 0.65105 0.99723 0.79036 0.0
H199 H 0.64043 0.94524 0.8055 0.0
C200 C 0.62229 0.91598 0.68974 0.0
N201 N 0.61545 0.91806 0.71459 0.0
C202 C 0.61937 0.89942 0.68164 0.0
C203 C 0.60324 0.88749 0.72568 0.0
C204 C 0.60629 0.90428 0.73276 0.0
C205 C 0.60975 0.88493 0.69974 0.0
H206 H 0.63044 0.92727 0.67655 0.0
H207 H 0.60167 0.90632 0.75304 0.0
C208 C 0.63929 0.00062 0.73201 0.0
N209 N 0.65483 0.03505 0.71296 0.0
C210 C 0.62891 0.00721 0.72094 0.0
C211 C 0.65757 0.0116 0.73366 0.0
C212 C 0.63702 0.02465 0.71136 0.0
C213 C 0.66518 0.02894 0.72382 0.0
C214 C 0.61106 0.9471 0.66838 0.0
C215 C 0.6241 0.94985 0.64841 0.0
C216 C 0.59331 0.93671 0.66084 0.0
C217 C 0.61919 0.9419 0.62148 0.0
C218 C 0.58892 0.92898 0.63369 0.0
N219 N 0.60184 0.9317 0.61475 0.0
C220 C 0.6701 0.98719 0.67875 0.0
C221 C 0.65021 0.99661 0.66401 0.0
C222 C 0.68069 0.99509 0.6549 0.0
N223 N 0.65494 0.98764 0.68231 0.0
C224 C 0.66056 0.00492 0.64005 0.0
C225 C 0.67559 0.00349 0.63456 0.0
H226 H 0.67332 0.97964 0.69329 0.0
H227 H 0.6379 0.99645 0.66714 0.0
C228 C 0.58138 0.96405 0.75618 0.0
N229 N 0.58901 0.96402 0.73086 0.0
C230 C 0.56723 0.96717 0.75673 0.0
C231 C 0.56902 0.96997 0.70512 0.0
C232 C 0.58307 0.96672 0.70556 0.0
C233 C 0.56105 0.97045 0.73099 0.0
H234 H 0.58656 0.96208 0.77598 0.0
H235 H 0.58957 0.96683 0.68581 0.0
O236 O 0.64635 0.95761 0.72967 0.0
O237 O 0.61007 0.94486 0.7594 0.0
O238 O 0.6316 0.98355 0.74139 0.0
O239 O 0.61559 0.95499 0.69477 0.0
H240 H 0.64528 0.92856 0.74848 0.0
H241 H 0.67608 0.98523 0.74724 0.0
H242 H 0.66845 0.92793 0.77813 0.0
H243 H 0.6987 0.98361 0.77701 0.0
H244 H 0.55428 0.90271 0.73606 0.0
H245 H 0.59829 0.93428 0.81186 0.0
H246 H 0.58445 0.92609 0.72258 0.0
H247 H 0.5679 0.91068 0.8239 0.0
H248 H 0.65492 0.95388 0.8529 0.0
H249 H 0.66551 0.00694 0.8372 0.0
H250 H 0.62505 0.89807 0.66185 0.0
H251 H 0.59591 0.87664 0.74033 0.0
H252 H 0.61475 0.99898 0.71971 0.0
H253 H 0.66581 0.00671 0.74216 0.0
H254 H 0.62914 0.0299 0.70265 0.0
H255 H 0.67931 0.03754 0.72479 0.0
H256 H 0.6379 0.95774 0.65375 0.0
H257 H 0.58298 0.93469 0.67569 0.0
H258 H 0.62917 0.9438 0.60596 0.0
H259 H 0.57524 0.92086 0.62765 0.0
H260 H 0.69194 0.99333 0.65134 0.0
H261 H 0.65624 0.01142 0.62507 0.0
H262 H 0.56162 0.96765 0.77716 0.0
H263 H 0.56456 0.97228 0.6848 0.0
Li264 Li 0.66993 0.63487 0.10196 0.0
Li265 Li 0.67916 0.61872 0.0709 0.0
Li266 Li 0.66778 0.63779 0.05173 0.0
Li267 Li 0.64749 0.60922 0.07325 0.0
C268 C 0.70324 0.65776 0.08828 0.0
N269 N 0.73084 0.68419 0.11875 0.0
C270 C 0.71656 0.65507 0.09928 0.0
C271 C 0.70409 0.67397 0.09246 0.0
C272 C 0.73038 0.66859 0.11469 0.0
C273 C 0.7181 0.68714 0.10804 0.0
C274 C 0.66336 0.5957 0.11793 0.0
C275 C 0.65516 0.56499 0.11932 0.0
N276 N 0.66383 0.56776 0.14464 0.0
C277 C 0.67198 0.59818 0.14417 0.0
C278 C 0.65469 0.57892 0.10558 0.0
C279 C 0.67215 0.58392 0.15726 0.0
C280 C 0.66498 0.65504 0.14331 0.0
N281 N 0.67462 0.64724 0.137 0.0
C282 C 0.69165 0.65873 0.17964 0.0
C283 C 0.68771 0.6488 0.15456 0.0
C284 C 0.68188 0.66693 0.1867 0.0
C285 C 0.66843 0.66503 0.16815 0.0
H286 H 0.65462 0.65353 0.12905 0.0
H287 H 0.69516 0.64245 0.149 0.0
C288 C 0.70257 0.61527 0.03606 0.0
N289 N 0.69619 0.61193 0.06325 0.0
C290 C 0.71588 0.61184 0.02797 0.0
C291 C 0.71586 0.60162 0.07608 0.0
C292 C 0.70252 0.60524 0.08325 0.0
C293 C 0.72279 0.60503 0.04815 0.0
H294 H 0.69749 0.6209 0.02078 0.0
H295 H 0.69757 0.60309 0.10488 0.0
C296 C 0.64136 0.64148 0.07016 0.0
N297 N 0.6258 0.65979 0.04844 0.0
C298 C 0.62416 0.63238 0.05947 0.0
C299 C 0.65054 0.65991 0.07016 0.0
C300 C 0.61655 0.64186 0.04849 0.0
C301 C 0.64248 0.66892 0.05898 0.0
C302 C 0.65702 0.60069 0.01946 0.0
C303 C 0.65021 0.60189 0.993 0.0
C304 C 0.65871 0.58597 0.02541 0.0
C305 C 0.64483 0.58817 0.97325 0.0
C306 C 0.65322 0.57253 0.00509 0.0
N307 N 0.64642 0.57388 0.97966 0.0
C308 C 0.68687 0.6665 0.01496 0.0
C309 C 0.65694 0.64762 0.00215 0.0
C310 C 0.69026 0.67513 0.98864 0.0
N311 N 0.67057 0.65268 0.02069 0.0
C312 C 0.65977 0.65575 0.97553 0.0
C313 C 0.67678 0.66917 0.96817 0.0
H314 H 0.69752 0.67001 0.02993 0.0
H315 H 0.64419 0.63644 0.00722 0.0
C316 C 0.61644 0.57999 0.09523 0.0
N317 N 0.62417 0.58977 0.07142 0.0
C318 C 0.59907 0.56605 0.09415 0.0
C319 C 0.59787 0.57277 0.04425 0.0
C320 C 0.61528 0.58646 0.04625 0.0
C321 C 0.58954 0.56239 0.06844 0.0
H322 H 0.62369 0.58315 0.11514 0.0
H323 H 0.62155 0.59476 0.02788 0.0
O324 O 0.68949 0.6446 0.07345 0.0
O325 O 0.66311 0.60956 0.10485 0.0
O326 O 0.64905 0.63241 0.08094 0.0
O327 O 0.66249 0.61413 0.03895 0.0
H328 H 0.71616 0.64265 0.09619 0.0
H329 H 0.69397 0.67632 0.08393 0.0
H330 H 0.74072 0.66666 0.12347 0.0
H331 H 0.71884 0.69969 0.11162 0.0
H332 H 0.64855 0.55196 0.10991 0.0
H333 H 0.67856 0.61099 0.15427 0.0
H334 H 0.6475 0.5766 0.08577 0.0
H335 H 0.67888 0.58569 0.17746 0.0
H336 H 0.70196 0.65969 0.19361 0.0
H337 H 0.66066 0.67124 0.17276 0.0
H338 H 0.72105 0.61499 0.00637 0.0
H339 H 0.72078 0.59631 0.09227 0.0
H340 H 0.61674 0.61815 0.05971 0.0
H341 H 0.6638 0.66717 0.07854 0.0
H342 H 0.60327 0.63497 0.04006 0.0
H343 H 0.64949 0.68318 0.05868 0.0
H344 H 0.64899 0.61325 0.98776 0.0
H345 H 0.66446 0.58501 0.04529 0.0
H346 H 0.63943 0.5889 0.95279 0.0
H347 H 0.65446 0.56107 0.00947 0.0
H348 H 0.70358 0.6853 0.98347 0.0
H349 H 0.64908 0.65086 0.96017 0.0
H350 H 0.59302 0.55852 0.11339 0.0
H351 H 0.591 0.57035 0.024 0.0
Li352 Li 0.06419 0.67838 0.39809 0.0
Li353 Li 0.04362 0.6718 0.43505 0.0
Li354 Li 0.04302 0.64827 0.40672 0.0
Li355 Li 0.03437 0.66881 0.38589 0.0
C356 C 0.07488 0.6741 0.45252 0.0
N357 N 0.10115 0.69327 0.49193 0.0
C358 C 0.08184 0.6923 0.45496 0.0
C359 C 0.08127 0.66565 0.47015 0.0
C360 C 0.09511 0.70176 0.47499 0.0
C361 C 0.09456 0.67557 0.48993 0.0
C362 C 0.04289 0.70025 0.41075 0.0
C363 C 0.01739 0.70232 0.42419 0.0
N364 N 0.02679 0.72006 0.42008 0.0
C365 C 0.05227 0.71848 0.40659 0.0
C366 C 0.02527 0.69207 0.41955 0.0
C367 C 0.0439 0.72827 0.41145 0.0
C368 C 0.08802 0.70759 0.36826 0.0
N369 N 0.08732 0.69489 0.38578 0.0
C370 C 0.1187 0.70841 0.38547 0.0
C371 C 0.10216 0.69482 0.39411 0.0
C372 C 0.11982 0.72203 0.36803 0.0
C373 C 0.10417 0.72126 0.35893 0.0
H374 H 0.07596 0.70716 0.3618 0.0
H375 H 0.10119 0.68444 0.40786 0.0
C376 C 0.02888 0.66464 0.48977 0.0
N377 N 0.03971 0.67795 0.47196 0.0
C378 C 0.02462 0.66845 0.5166 0.0
C379 C 0.04272 0.69956 0.50614 0.0
C380 C 0.04692 0.69516 0.47979 0.0
C381 C 0.03139 0.68609 0.52466 0.0
H382 H 0.02339 0.6511 0.48289 0.0
H383 H 0.05572 0.70551 0.46544 0.0
C384 C 0.06204 0.66349 0.349 0.0
N385 N 0.08825 0.67109 0.30919 0.0
C386 C 0.06194 0.67108 0.32273 0.0
C387 C 0.07536 0.65957 0.35489 0.0
C388 C 0.07533 0.67487 0.30291 0.0
C389 C 0.08853 0.66357 0.33452 0.0
C390 C 0.00715 0.63736 0.40897 0.0
C391 C 0.0062 0.62917 0.38277 0.0
C392 C 0.99222 0.63079 0.42641 0.0
C393 C 0.99027 0.61454 0.37448 0.0
C394 C 0.97653 0.61615 0.41733 0.0
N395 N 0.97589 0.60839 0.39177 0.0
C396 C 0.02836 0.61468 0.43078 0.0
C397 C 0.04141 0.61707 0.38531 0.0
C398 C 0.0226 0.59669 0.43182 0.0
N399 N 0.03747 0.62441 0.4077 0.0
C400 C 0.03614 0.59918 0.38564 0.0
C401 C 0.02642 0.58864 0.40899 0.0
H402 H 0.02519 0.62086 0.44806 0.0
H403 H 0.04835 0.62501 0.36694 0.0
C404 C 0.03071 0.68702 0.34214 0.0
N405 N 0.02058 0.67308 0.35935 0.0
C406 C 0.02312 0.69154 0.32002 0.0
C407 C 0.99452 0.66792 0.33477 0.0
C408 C 0.00272 0.66394 0.35689 0.0
C409 C 0.00485 0.68159 0.31553 0.0
H410 H 0.04484 0.69428 0.34508 0.0
H411 H 0.99483 0.65334 0.37151 0.0
O412 O 0.06185 0.66446 0.43313 0.0
O413 O 0.051 0.69058 0.40591 0.0
O414 O 0.04925 0.66 0.36893 0.0
O415 O 0.02264 0.6515 0.41799 0.0
H416 H 0.07717 0.69911 0.44141 0.0
H417 H 0.07601 0.65157 0.46853 0.0
H418 H 0.10063 0.71585 0.47705 0.0
H419 H 0.09963 0.6692 0.5037 0.0
H420 H 0.00379 0.69617 0.43106 0.0
H421 H 0.06589 0.72499 0.3997 0.0
H422 H 0.01775 0.67798 0.42285 0.0
H423 H 0.05102 0.7424 0.40835 0.0
H424 H 0.13043 0.70852 0.39303 0.0
H425 H 0.10439 0.73122 0.34492 0.0
H426 H 0.01583 0.65779 0.53062 0.0
H427 H 0.04822 0.71329 0.51201 0.0
H428 H 0.05163 0.674 0.31763 0.0
H429 H 0.07571 0.65382 0.37523 0.0
H430 H 0.07545 0.68082 0.28254 0.0
H431 H 0.099 0.66077 0.33892 0.0
H432 H 0.01756 0.63401 0.36893 0.0
H433 H 0.99277 0.63695 0.4468 0.0
H434 H 0.98934 0.60808 0.35428 0.0
H435 H 0.96487 0.61093 0.43062 0.0
H436 H 0.01484 0.58911 0.45 0.0
H437 H 0.03962 0.59368 0.3677 0.0
H438 H 0.03165 0.702 0.30551 0.0
H439 H 0.98037 0.66004 0.33213 0.0
Li440 Li 0.382 0.06641 0.73341 0.0
Li441 Li 0.36506 0.04308 0.76767 0.0
Li442 Li 0.38824 0.04193 0.73767 0.0
Li443 Li 0.3597 0.03589 0.71811 0.0
C444 C 0.40596 0.07311 0.7789 0.0
N445 N 0.43632 0.1003 0.80269 0.0
C446 C 0.40499 0.08197 0.80313 0.0
C447 C 0.42243 0.07784 0.7672 0.0
C448 C 0.42046 0.09576 0.81471 0.0
C449 C 0.43761 0.09168 0.77941 0.0
C450 C 0.3434 0.05491 0.75363 0.0
C451 C 0.31509 0.04162 0.77717 0.0
N452 N 0.31799 0.05793 0.78417 0.0
C453 C 0.34602 0.07154 0.76084 0.0
C454 C 0.32773 0.03982 0.76163 0.0
C455 C 0.33304 0.07279 0.77634 0.0
C456 C 0.39165 0.09505 0.69652 0.0
N457 N 0.39086 0.09057 0.72459 0.0
C458 C 0.39779 0.11948 0.73913 0.0
C459 C 0.39403 0.10241 0.74582 0.0
C460 C 0.39839 0.12434 0.71033 0.0
C461 C 0.39567 0.11205 0.68885 0.0
H462 H 0.38839 0.08522 0.68007 0.0
H463 H 0.39261 0.09835 0.76794 0.0
C464 C 0.34523 0.02116 0.81278 0.0
N465 N 0.35404 0.03821 0.80398 0.0
C466 C 0.3357 0.01664 0.83827 0.0
C467 C 0.3447 0.04736 0.84539 0.0
C468 C 0.35407 0.05129 0.81971 0.0
C469 C 0.33529 0.02981 0.85484 0.0
H470 H 0.34554 0.01107 0.79993 0.0
H471 H 0.36104 0.06472 0.81198 0.0
C472 C 0.39669 0.05791 0.68209 0.0
N473 N 0.42301 0.07049 0.64114 0.0
C474 C 0.39357 0.04974 0.65531 0.0
C475 C 0.41311 0.07265 0.68784 0.0
C476 C 0.40707 0.05624 0.63495 0.0
C477 C 0.42627 0.07877 0.66692 0.0
C478 C 0.35442 0.00557 0.73803 0.0
C479 C 0.36268 0.99752 0.7241 0.0
C480 C 0.33611 0.99632 0.74145 0.0
C481 C 0.35246 0.98041 0.7135 0.0
C482 C 0.32635 0.97924 0.73052 0.0
N483 N 0.33465 0.97171 0.71687 0.0
C484 C 0.41212 0.03352 0.763 0.0
C485 C 0.41209 0.03248 0.71226 0.0
C486 C 0.42491 0.02845 0.76428 0.0
N487 N 0.40606 0.03549 0.73725 0.0
C488 C 0.42498 0.02756 0.71254 0.0
C489 C 0.43152 0.02546 0.73879 0.0
H490 H 0.40697 0.03586 0.78254 0.0
H491 H 0.4067 0.03353 0.6921 0.0
C492 C 0.32824 0.02548 0.68778 0.0
N493 N 0.34248 0.02325 0.6898 0.0
C494 C 0.31667 0.01839 0.66473 0.0
C495 C 0.33435 0.00635 0.64675 0.0
C496 C 0.34547 0.01354 0.67031 0.0
C497 C 0.32002 0.0092 0.64328 0.0
H498 H 0.32628 0.03347 0.70328 0.0
H499 H 0.357 0.01213 0.67231 0.0
O500 O 0.39091 0.05945 0.7675 0.0
O501 O 0.35609 0.05341 0.7388 0.0
O502 O 0.3836 0.05163 0.7023 0.0
O503 O 0.36421 0.02239 0.74833 0.0
H504 H 0.39242 0.07833 0.8128 0.0
H505 H 0.42357 0.07081 0.74907 0.0
H506 H 0.41987 0.10282 0.8333 0.0
H507 H 0.45042 0.0955 0.77047 0.0
H508 H 0.30299 0.03005 0.78372 0.0
H509 H 0.35793 0.08336 0.75458 0.0
H510 H 0.32545 0.02686 0.75619 0.0
H511 H 0.33494 0.08558 0.78216 0.0
H512 H 0.39966 0.12861 0.75624 0.0
H513 H 0.39566 0.11523 0.66643 0.0
H514 H 0.329 0.00301 0.84519 0.0
H515 H 0.34469 0.05788 0.85757 0.0
H516 H 0.38089 0.03845 0.6503 0.0
H517 H 0.41558 0.0795 0.70802 0.0
H518 H 0.40486 0.04997 0.61421 0.0
H519 H 0.43904 0.09017 0.67113 0.0
H520 H 0.37681 0.00441 0.72133 0.0
H521 H 0.32949 0.00229 0.75227 0.0
H522 H 0.35868 0.97406 0.70256 0.0
H523 H 0.31217 0.97198 0.73288 0.0
H524 H 0.42968 0.02704 0.78496 0.0
H525 H 0.4295 0.02505 0.69243 0.0
H526 H 0.3057 0.02076 0.66306 0.0
H527 H 0.33767 -0.00037 0.63056 0.0
Li528 Li 0.64178 0.67441 0.60995 0.0
Li529 Li 0.61346 0.65223 0.59165 0.0
Li530 Li 0.6352 0.6753 0.55971 0.0
Li531 Li 0.61941 0.68202 0.59538 0.0
C532 C 0.63942 0.64291 0.59054 0.0
N533 N 0.64302 0.6153 0.61114 0.0
C534 C 0.63689 0.63859 0.61963 0.0
C535 C 0.64379 0.6332 0.57192 0.0
C536 C 0.63877 0.62459 0.62964 0.0
C537 C 0.64555 0.61928 0.58275 0.0
C538 C 0.60638 0.6572 0.64777 0.0
C539 C 0.57632 0.641 0.66443 0.0
N540 N 0.58201 0.63774 0.68958 0.0
C541 C 0.61195 0.65376 0.67381 0.0
C542 C 0.58845 0.65084 0.64307 0.0
C543 C 0.59941 0.64388 0.69468 0.0
C544 C 0.66035 0.69136 0.65777 0.0
N545 N 0.66038 0.68105 0.63616 0.0
C546 C 0.68651 0.6824 0.65436 0.0
C547 C 0.6733 0.67683 0.63358 0.0
C548 C 0.68644 0.6926 0.67755 0.0
C549 C 0.67331 0.69735 0.67874 0.0
H550 H 0.65 0.69468 0.65887 0.0
H551 H 0.67325 0.66899 0.61565 0.0
C552 C 0.58634 0.62091 0.56847 0.0
N553 N 0.59564 0.62791 0.59296 0.0
C554 C 0.57333 0.60315 0.56734 0.0
C555 C 0.57963 0.60009 0.61673 0.0
C556 C 0.59265 0.61785 0.61679 0.0
C557 C 0.56981 0.59254 0.59174 0.0
H558 H 0.5891 0.62915 0.54973 0.0
H559 H 0.6004 0.62352 0.63588 0.0
C560 C 0.66256 0.70635 0.58362 0.0
N561 N 0.69823 0.72947 0.57712 0.0
C562 C 0.66955 0.72424 0.58963 0.0
C563 C 0.6737 0.70019 0.57437 0.0
C564 C 0.68762 0.73573 0.58618 0.0
C565 C 0.6917 0.7121 0.5712 0.0
C566 C 0.59769 0.67017 0.55074 0.0
C567 C 0.60311 0.68351 0.53024 0.0
C568 C 0.58012 0.66115 0.55968 0.0
C569 C 0.59091 0.68789 0.51946 0.0
C570 C 0.56831 0.6659 0.54837 0.0
N571 N 0.57391 0.67908 0.5287 0.0
C572 C 0.64463 0.66821 0.5061 0.0
C573 C 0.65264 0.6981 0.51367 0.0
C574 C 0.65207 0.67223 0.4788 0.0
N575 N 0.64506 0.68111 0.52279 0.0
C576 C 0.66052 0.70276 0.48674 0.0
C577 C 0.66017 0.6897 0.46899 0.0
H578 H 0.63845 0.65482 0.51401 0.0
H579 H 0.65252 0.70803 0.52728 0.0
C580 C 0.60219 0.69668 0.62762 0.0
N581 N 0.61128 0.69798 0.60328 0.0
C582 C 0.59854 0.70998 0.63491 0.0
C583 C 0.61336 0.72551 0.59166 0.0
C584 C 0.61683 0.71198 0.58533 0.0
C585 C 0.6044 0.72475 0.61703 0.0
H586 H 0.59839 0.68573 0.642 0.0
H587 H 0.62458 0.71297 0.56665 0.0
O588 O 0.63748 0.65645 0.58013 0.0
O589 O 0.61848 0.66678 0.62707 0.0
O590 O 0.64492 0.69493 0.58723 0.0
O591 O 0.60949 0.66581 0.56173 0.0
H592 H 0.63349 0.64594 0.63434 0.0
H593 H 0.64578 0.63636 0.54932 0.0
H594 H 0.63683 0.62111 0.65211 0.0
H595 H 0.64891 0.61163 0.56857 0.0
H596 H 0.56239 0.63595 0.66103 0.0
H597 H 0.6258 0.65866 0.67785 0.0
H598 H 0.58396 0.65348 0.62313 0.0
H599 H 0.60349 0.64109 0.71494 0.0
H600 H 0.69641 0.6785 0.65266 0.0
H601 H 0.6725 0.70487 0.69649 0.0
H602 H 0.56597 0.59782 0.5477 0.0
H603 H 0.57747 0.59227 0.63586 0.0
H604 H 0.66109 0.72918 0.59691 0.0
H605 H 0.66854 0.68636 0.56975 0.0
H606 H 0.69322 0.74963 0.59075 0.0
H607 H 0.70047 0.70752 0.56407 0.0
H608 H 0.61664 0.69053 0.52294 0.0
H609 H 0.5756 0.65051 0.57502 0.0
H610 H 0.59496 0.69829 0.50376 0.0
H611 H 0.55468 0.65907 0.55517 0.0
H612 H 0.65159 0.66185 0.46553 0.0
H613 H 0.66644 0.71631 0.47959 0.0
H614 H 0.5916 0.70893 0.65468 0.0
H615 H 0.6184 0.73685 0.57761 0.0
Li616 Li 0.95476 0.60813 0.91767 0.0
Li617 Li 0.96427 0.63766 0.93992 0.0
Li618 Li 0.93441 0.61833 0.92698 0.0
Li619 Li 0.95506 0.63242 0.88985 0.0
C620 C 0.93681 0.60583 0.97654 0.0
N621 N 0.9117 0.58971 0.01883 0.0
C622 C 0.93603 0.61573 -0.00062 0.0
C623 C 0.92494 0.58772 0.97528 0.0
C624 C 0.9232 0.60734 0.02053 0.0
C625 C 0.9123 0.57982 -0.00314 0.0
C626 C 0.99269 0.63753 0.90646 0.0
C627 C 0.02172 0.65751 0.88796 0.0
N628 N 0.02838 0.64913 0.90374 0.0
C629 C -0.00019 0.62904 0.92228 0.0
C630 C 0.00372 0.65181 0.88896 0.0
C631 C 0.01789 0.63513 0.92072 0.0
C632 C 0.96019 0.58198 0.89193 0.0
N633 N 0.95936 0.58925 0.91718 0.0
C634 C 0.96758 0.571 0.94318 0.0
C635 C 0.9627 0.58391 0.94256 0.0
C636 C 0.96889 0.56345 0.91743 0.0
C637 C 0.96488 0.56889 0.89157 0.0
H638 H 0.95755 0.58661 0.87208 0.0
H639 H 0.96201 0.59002 0.96228 0.0
C640 C 0.97366 0.66444 0.98062 0.0
N641 N 0.97867 0.65339 0.96896 0.0
C642 C 0.98137 0.67345 0.00588 0.0
C643 C -0.00045 0.65986 0.00643 0.0
C644 C 0.99158 0.65122 0.98098 0.0
C645 C 0.994 0.67066 0.01962 0.0
H646 H 0.96277 0.66529 0.97161 0.0
H647 H 0.99482 0.64184 0.97202 0.0
C648 C 0.92337 0.60424 0.87213 0.0
N649 N 0.89741 0.59881 0.83312 0.0
C650 C 0.91724 0.6162 0.87029 0.0
C651 C 0.9163 0.58953 0.85415 0.0
C652 C 0.90411 0.61322 0.85043 0.0
C653 C 0.90318 0.58701 0.83456 0.0
C654 C 0.95607 0.66167 0.91518 0.0
C655 C 0.94602 0.67002 0.9156 0.0
C656 C 0.97417 0.67156 0.90983 0.0
C657 C 0.95425 0.68814 0.91047 0.0
C658 C 0.98191 0.68964 0.9048 0.0
N659 N 0.97187 0.69749 0.9052 0.0
C660 C 0.91005 0.6237 0.95572 0.0
C661 C 0.8971 0.59556 0.93364 0.0
C662 C 0.89377 0.62014 0.96642 0.0
N663 N 0.91139 0.61148 0.93972 0.0
C664 C 0.88046 0.59148 0.94373 0.0
C665 C 0.87871 0.60389 0.96039 0.0
H666 H 0.9217 0.63622 0.96022 0.0
H667 H 0.89864 0.58606 0.92099 0.0
C668 C 0.9697 0.63882 0.83554 0.0
N669 N 0.95983 0.64277 0.85313 0.0
C670 C 0.97507 0.64702 0.80897 0.0
C671 C 0.95962 0.66287 0.81883 0.0
C672 C 0.95431 0.65414 0.84504 0.0
C673 C 0.97039 0.65957 0.80057 0.0
H674 H 0.97363 0.6295 0.84245 0.0
H675 H 0.94606 0.6567 0.85908 0.0
O676 O 0.94897 0.61388 0.95526 0.0
O677 O 0.97494 0.63151 0.90719 0.0
O678 O 0.93624 0.60681 0.89135 0.0
O679 O 0.94808 0.6439 0.91991 0.0
H680 H 0.94511 0.62977 0.00061 0.0
H681 H 0.92536 0.57991 0.95765 0.0
H682 H 0.92236 0.61484 0.03825 0.0
H683 H 0.90295 0.56583 -0.0039 0.0
H684 H 0.03039 0.66856 0.87456 0.0
H685 H 0.99153 0.61798 0.9359 0.0
H686 H 0.99845 0.65841 0.87617 0.0
H687 H 0.02357 0.62873 0.93301 0.0
H688 H 0.97039 0.56703 0.96357 0.0
H689 H 0.96587 0.56346 0.87126 0.0
H690 H 0.97641 0.6813 0.01579 0.0
H691 H 0.00915 0.65729 0.0166 0.0
H692 H 0.92248 0.62764 0.88404 0.0
H693 H 0.92091 0.58016 0.85532 0.0
H694 H 0.89924 0.62237 0.84878 0.0
H695 H 0.89759 0.57568 0.8205 0.0
H696 H 0.93199 0.66254 0.9197 0.0
H697 H 0.98215 0.66537 0.9098 0.0
H698 H 0.94662 0.69476 0.91065 0.0
H699 H 0.99591 0.69744 0.90063 0.0
H700 H 0.89294 0.63015 0.97882 0.0
H701 H 0.86914 0.57877 0.93878 0.0
H702 H 0.98288 0.6436 0.79526 0.0
H703 H 0.95567 0.67241 0.81332 0.0
Li704 Li 0.33095 0.96791 0.27185 0.0
Li705 Li 0.34947 0.95795 0.24935 0.0
Li706 Li 0.32669 0.95983 0.22268 0.0
Li707 Li 0.31918 0.93716 0.25864 0.0
C708 C 0.35668 0.99615 0.25026 0.0
N709 N 0.37365 0.02977 0.27301 0.0
C710 C 0.37301 0.00263 0.26377 0.0
C711 C 0.34899 0.00678 0.24829 0.0
C712 C 0.38138 0.01967 0.27512 0.0
C713 C 0.35777 0.02373 0.25996 0.0
C714 C 0.33279 0.93948 0.3091 0.0
C715 C 0.32932 0.91277 0.33019 0.0
N716 N 0.32101 0.91503 0.35302 0.0
C717 C 0.32418 0.94151 0.33278 0.0
C718 C 0.33539 0.92498 0.30779 0.0
C719 C 0.31835 0.92903 0.35477 0.0
C720 C 0.31498 0.98316 0.30457 0.0
N721 N 0.32983 0.98208 0.30121 0.0
C722 C 0.34016 0.99438 0.34749 0.0
C723 C 0.34265 0.98813 0.32149 0.0
C724 C 0.32438 0.99444 0.35233 0.0
C725 C 0.31205 0.98954 0.33012 0.0
H726 H 0.30483 0.97784 0.2884 0.0
H727 H 0.35412 0.9867 0.3184 0.0
C728 C 0.38341 0.97136 0.22569 0.0
N729 N 0.37279 0.96178 0.24774 0.0
C730 C 0.40099 0.97546 0.22499 0.0
C731 C 0.39626 0.95955 0.26947 0.0
C732 C 0.37883 0.95586 0.2694 0.0
C733 C 0.40763 0.96963 0.24721 0.0
H734 H 0.37829 0.97611 0.20898 0.0
H735 H 0.37025 0.94866 0.287 0.0
C736 C 0.29449 0.95071 0.23829 0.0
N737 N 0.26664 0.94772 0.20612 0.0
C738 C 0.28099 0.93412 0.22971 0.0
C739 C 0.29379 0.96578 0.2306 0.0
C740 C 0.26702 0.93288 0.21347 0.0
C741 C 0.27963 0.96399 0.21428 0.0
C742 C 0.34254 0.93656 0.20636 0.0
C743 C 0.34874 0.94491 0.17995 0.0
C744 C 0.34793 0.925 0.21655 0.0
C745 C 0.36036 0.94162 0.16421 0.0
C746 C 0.3596 0.92209 0.2002 0.0
N747 N 0.36552 0.93039 0.17459 0.0
C748 C 0.32607 0.98074 0.17713 0.0
C749 C 0.30788 0.94985 0.17128 0.0
C750 C 0.32042 0.98377 0.15093 0.0
N751 N 0.31971 0.96401 0.18669 0.0
C752 C 0.30179 0.95226 0.14504 0.0
C753 C 0.30814 0.9694 0.1345 0.0
H754 H 0.33561 0.99172 0.18975 0.0
H755 H 0.3031 0.93669 0.17953 0.0
C756 C 0.29059 0.9129 0.29001 0.0
N757 N 0.3022 0.91408 0.26965 0.0
C758 C 0.27709 0.89651 0.29886 0.0
C759 C 0.28768 0.88276 0.26546 0.0
C760 C 0.3011 0.8995 0.25736 0.0
C761 C 0.27534 0.88115 0.28626 0.0
H762 H 0.29174 0.92479 0.29913 0.0
H763 H 0.31041 0.90089 0.24095 0.0
O764 O 0.34815 0.97941 0.23935 0.0
O765 O 0.33835 0.9514 0.28707 0.0
O766 O 0.30847 0.95223 0.25373 0.0
O767 O 0.33143 0.93987 0.22235 0.0
H768 H 0.37909 0.99456 0.26575 0.0
H769 H 0.33627 0.00191 0.23823 0.0
H770 H 0.39399 0.02483 0.28571 0.0
H771 H 0.35194 0.03206 0.25871 0.0
H772 H 0.33114 0.90144 0.32935 0.0
H773 H 0.32175 0.95243 0.33405 0.0
H774 H 0.34173 0.92299 0.28944 0.0
H775 H 0.31162 0.93043 0.37315 0.0
H776 H 0.3499 0.99803 0.3643 0.0
H777 H 0.29964 0.98922 0.33337 0.0
H778 H 0.40932 0.9832 0.20738 0.0
H779 H 0.40096 0.95508 0.28726 0.0
H780 H 0.28136 0.92232 0.23519 0.0
H781 H 0.30424 0.97874 0.23672 0.0
H782 H 0.25652 0.92013 0.20658 0.0
H783 H 0.279 0.97555 0.20798 0.0
H784 H 0.34478 0.95397 0.17182 0.0
H785 H 0.34333 0.91851 0.23703 0.0
H786 H 0.36533 0.94805 0.14378 0.0
H787 H 0.36398 0.91327 0.2079 0.0
H788 H 0.32597 0.99718 0.14331 0.0
H789 H 0.29226 0.94083 0.13313 0.0
H790 H 0.26805 0.89588 0.31525 0.0
H791 H 0.28666 0.87126 0.25497 0.0
Li792 Li 0.35759 0.33426 0.61406 0.0
Li793 Li 0.38686 0.3522 0.59293 0.0
Li794 Li 0.36225 0.32977 0.56549 0.0
Li795 Li 0.37627 0.32145 0.60279 0.0
C796 C 0.35725 0.3613 0.59079 0.0
N797 N 0.34238 0.38084 0.60976 0.0
C798 C 0.36797 0.37842 0.60109 0.0
C799 C 0.33897 0.35414 0.59004 0.0
C800 C 0.36019 0.38808 0.61059 0.0
C801 C 0.3317 0.36422 0.59978 0.0
C802 C 0.38652 0.33613 0.65474 0.0
C803 C 0.40894 0.33365 0.68085 0.0
N804 N 0.39759 0.32626 0.70318 0.0
C805 C 0.3751 0.3286 0.67802 0.0
C806 C 0.40361 0.33877 0.65622 0.0
C807 C 0.38094 0.32367 0.70229 0.0
C808 C 0.32679 0.31764 0.64664 0.0
N809 N 0.34159 0.33338 0.64198 0.0
C810 C 0.33683 0.34527 0.68477 0.0
C811 C 0.34648 0.34729 0.6599 0.0
C812 C 0.3223 0.32869 0.69137 0.0
C813 C 0.31682 0.315 0.67129 0.0
H814 H 0.3235 0.30669 0.63244 0.0
H815 H 0.35857 0.35952 0.65598 0.0
C816 C 0.41096 0.38465 0.56722 0.0
N817 N 0.40706 0.3751 0.5918 0.0
C818 C 0.42516 0.40187 0.56633 0.0
C819 C 0.43084 0.39921 0.61624 0.0
C820 C 0.41665 0.38198 0.61607 0.0
C821 C 0.43518 0.4094 0.59117 0.0
H822 H 0.4028 0.37901 0.54847 0.0
H823 H 0.41307 0.37421 0.63546 0.0
C824 C 0.33848 0.29792 0.58002 0.0
N825 N 0.31421 0.27091 0.54589 0.0
C826 C 0.34187 0.2848 0.57033 0.0
C827 C 0.32271 0.29725 0.5725 0.0
C828 C 0.32943 0.27125 0.55309 0.0
C829 C 0.31063 0.28351 0.55515 0.0
C830 C 0.40231 0.34304 0.5529 0.0
C831 C 0.40282 0.34893 0.52491 0.0
C832 C 0.41798 0.34677 0.56663 0.0
C833 C 0.41909 0.35862 0.51116 0.0
C834 C 0.43397 0.35653 0.55218 0.0
N835 N 0.43419 0.3622 0.52498 0.0
C836 C 0.33999 0.32838 0.521 0.0
C837 C 0.35568 0.31333 0.51171 0.0
C838 C 0.33173 0.3234 0.49441 0.0
N839 N 0.35169 0.32332 0.52901 0.0
C840 C 0.34789 0.30822 0.48474 0.0
C841 C 0.33582 0.31337 0.47569 0.0
H842 H 0.33702 0.33623 0.53529 0.0
H843 H 0.36501 0.30947 0.51883 0.0
C844 C 0.37412 0.29441 0.63778 0.0
N845 N 0.38193 0.30407 0.61394 0.0
C846 C 0.37712 0.28083 0.64595 0.0
C847 C 0.39549 0.2868 0.60407 0.0
C848 C 0.39245 0.30056 0.59708 0.0
C849 C 0.38773 0.27665 0.62881 0.0
H850 H 0.36531 0.29707 0.65024 0.0
H851 H 0.39806 0.30811 0.57775 0.0
O852 O 0.36461 0.3516 0.58144 0.0
O853 O 0.38103 0.34093 0.63065 0.0
O854 O 0.35069 0.31153 0.59634 0.0
O855 O 0.38655 0.33367 0.5668 0.0
H856 H 0.38212 0.38419 0.60189 0.0
H857 H 0.33044 0.34083 0.58253 0.0
H858 H 0.36833 0.40133 0.61868 0.0
H859 H 0.31757 0.35881 0.5995 0.0
H860 H 0.4221 0.33554 0.68222 0.0
H861 H 0.36181 0.32634 0.67732 0.0
H862 H 0.41263 0.34463 0.63846 0.0
H863 H 0.3722 0.31772 0.72037 0.0
H864 H 0.34143 0.35617 0.69966 0.0
H865 H 0.30592 0.30193 0.67574 0.0
H866 H 0.42792 0.4094 0.54671 0.0
H867 H 0.4383 0.40454 0.6358 0.0
H868 H 0.35404 0.28515 0.57584 0.0
H869 H 0.31996 0.3074 0.57959 0.0
H870 H 0.3319 0.26105 0.54534 0.0
H871 H 0.29844 0.28291 0.54896 0.0
H872 H 0.39081 0.34618 0.51401 0.0
H873 H 0.41778 0.34225 0.58825 0.0
H874 H 0.4197 0.36333 0.48954 0.0
H875 H 0.44621 0.35959 0.56259 0.0
H876 H 0.32231 0.32743 0.48859 0.0
H877 H 0.35166 0.30074 0.47092 0.0
H878 H 0.37104 0.27364 0.66543 0.0
H879 H 0.40342 0.28388 0.58975 0.0
Li880 Li 0.03902 0.39002 0.92489 0.0
Li881 Li 0.02941 0.35994 0.94158 0.0
Li882 Li 0.06093 0.38013 0.92894 0.0
Li883 Li 0.03809 0.36655 0.89267 0.0
C884 C 0.05427 0.39498 0.98112 0.0
N885 N 0.07016 0.41965 0.02419 0.0
C886 C 0.04764 0.39114 0.00906 0.0
C887 C 0.06911 0.4113 0.97521 0.0
C888 C 0.05582 0.40379 0.03051 0.0
C889 C 0.07692 0.42362 -0.00277 0.0
C890 C 0.00112 0.35888 0.92096 0.0
C891 C 0.97258 0.33259 0.92385 0.0
N892 N 0.96669 0.34142 0.9403 0.0
C893 C 0.99476 0.36772 0.93775 0.0
C894 C 0.98992 0.3412 0.91381 0.0
C895 C 0.97733 0.35865 0.94736 0.0
C896 C 0.03206 0.41471 0.90044 0.0
N897 N 0.03485 0.4093 0.92619 0.0
C898 C 0.02959 0.43019 0.95069 0.0
C899 C 0.0337 0.4167 0.95112 0.0
C900 C 0.02638 0.43586 0.9244 0.0
C901 C 0.02776 0.42802 0.89903 0.0
H902 H 0.03294 0.40846 0.88101 0.0
H903 H 0.0355 0.41188 0.97138 0.0
C904 C 0.01359 0.32659 0.96859 0.0
N905 N 0.0147 0.34263 0.96837 0.0
C906 C 0.00587 0.31523 0.99176 0.0
C907 C -0.00021 0.33677 0.01319 0.0
C908 C 0.00743 0.34759 0.98946 0.0
C909 C -0.00037 0.32067 0.01511 0.0
H910 H 0.01966 0.32303 0.95177 0.0
H911 H 0.00866 0.3605 0.9888 0.0
C912 C 0.07111 0.40577 0.88443 0.0
N913 N 0.10044 0.43424 0.86063 0.0
C914 C 0.07981 0.40333 0.86131 0.0
C915 C 0.07707 0.42279 0.89492 0.0
C916 C 0.0947 0.41785 0.84974 0.0
C917 C 0.09199 0.43698 0.88274 0.0
C918 C 0.04559 0.34125 0.9054 0.0
C919 C 0.0613 0.34131 0.89986 0.0
C920 C 0.02967 0.32741 0.89509 0.0
C921 C 0.06086 0.32766 0.88372 0.0
C922 C 0.02978 0.31402 0.879 0.0
N923 N 0.04524 0.31443 0.87367 0.0
C924 C 0.08921 0.38785 0.96645 0.0
C925 C 0.09594 0.38817 0.91726 0.0
C926 C 0.10604 0.39135 0.97413 0.0
N927 N 0.08455 0.38653 0.93841 0.0
C928 C 0.11283 0.39139 0.92397 0.0
C929 C 0.11807 0.39294 0.95279 0.0
H930 H 0.07976 0.38576 0.983 0.0
H931 H 0.09168 0.38622 0.89522 0.0
C932 C 0.0171 0.35271 0.844 0.0
N933 N 0.0332 0.3574 0.85501 0.0
C934 C 0.01231 0.34486 0.81708 0.0
C935 C 0.04084 0.34693 0.81324 0.0
C936 C 0.04514 0.35491 0.84015 0.0
C937 C 0.02422 0.34178 0.80148 0.0
H938 H 0.00791 0.3549 0.85628 0.0
H939 H 0.05786 0.35878 0.84944 0.0
O940 O 0.04646 0.38266 0.95992 0.0
O941 O 0.01823 0.36747 0.91168 0.0
O942 O 0.05638 0.3917 0.89581 0.0
O943 O 0.0458 0.35463 0.92088 0.0
H944 H 0.03636 0.37848 0.01422 0.0
H945 H 0.07474 0.41428 0.95401 0.0
H946 H 0.05081 0.40098 0.0522 0.0
H947 H 0.08843 0.43629 0.99292 0.0
H948 H 0.96379 0.31889 0.91857 0.0
H949 H 0.00322 0.38137 0.94357 0.0
H950 H 0.99457 0.33418 0.9007 0.0
H951 H 0.97227 0.3653 0.9605 0.0
H952 H 0.02839 0.43573 0.97073 0.0
H953 H 0.02549 0.43212 0.87833 0.0
H954 H 0.00585 0.30286 0.99223 0.0
H955 H 0.99544 0.3417 0.03081 0.0
H956 H 0.07522 0.39034 0.85254 0.0
H957 H 0.07019 0.4251 0.91206 0.0
H958 H 0.10165 0.4161 0.83205 0.0
H959 H 0.09678 0.45019 0.89078 0.0
H960 H 0.07371 0.35178 0.90792 0.0
H961 H 0.0174 0.32714 0.89918 0.0
H962 H 0.07293 0.32758 0.87919 0.0
H963 H 0.01757 0.30333 0.87068 0.0
H964 H 0.10946 0.39258 -0.00338 0.0
H965 H 0.12142 0.39201 0.90677 0.0
H966 H 0.99932 0.34096 0.80878 0.0
H967 H 0.05042 0.34494 0.80168 0.0
Li968 Li 0.64941 0.03396 0.26644 0.0
Li969 Li 0.67141 0.0264 0.28221 0.0
Li970 Li 0.6797 0.05685 0.26788 0.0
Li971 Li 0.67151 0.03388 0.23172 0.0
C972 C 0.65438 0.0416 0.32283 0.0
N973 N 0.63254 0.0387 0.36772 0.0
C974 C 0.64929 0.02811 0.34299 0.0
C975 C 0.64851 0.05371 0.32563 0.0
C976 C 0.63822 0.02685 0.36551 0.0
C977 C 0.63741 0.05198 0.34843 0.0
C978 C 0.64451 0.99596 0.25344 0.0
C979 C 0.64279 0.96907 0.23668 0.0
N980 N 0.62815 0.95957 0.25299 0.0
C981 C 0.62936 0.9859 0.26984 0.0
C982 C 0.6512 0.98746 0.23653 0.0
C983 C 0.62132 0.96753 0.2694 0.0
C984 C 0.61979 0.03575 0.24908 0.0
N985 N 0.62564 0.02896 0.2697 0.0
C986 C 0.59725 0.0146 0.29191 0.0
C987 C 0.6148 0.01862 0.29098 0.0
C988 C 0.59079 0.02127 0.27069 0.0
C989 C 0.60236 0.03211 0.24921 0.0
H990 H 0.62858 0.04375 0.23217 0.0
H991 H 0.61967 0.01329 0.30709 0.0
C992 C 0.69293 0.02491 0.32265 0.0
N993 N 0.67791 0.01404 0.30817 0.0
C994 C 0.69898 0.0183 0.34419 0.0
C995 C 0.67428 0.98921 0.33495 0.0
C996 C 0.66875 0.99641 0.31341 0.0
C997 C 0.68937 0.0003 0.35107 0.0
H998 H 0.69988 0.03889 0.31807 0.0
H999 H 0.65687 0.98799 0.3017 0.0
C1000 C 0.66762 0.06737 0.22534 0.0
N1001 N 0.67774 0.10084 0.20568 0.0
C1002 C 0.6774 0.07356 0.2001 0.0
C1003 C 0.6628 0.0781 0.24042 0.0
C1004 C 0.68243 0.09055 0.19054 0.0
C1005 C 0.66811 0.09501 0.23019 0.0
C1006 C 0.70474 0.03986 0.25272 0.0
C1007 C 0.72216 0.05363 0.25066 0.0
C1008 C 0.70095 0.02248 0.24908 0.0
C1009 C 0.7355 0.04978 0.24468 0.0
C1010 C 0.71466 0.01916 0.24317 0.0
N1011 N 0.73151 0.03277 0.24107 0.0
C1012 C 0.69619 0.08862 0.30005 0.0
C1013 C 0.70838 0.08961 0.25426 0.0
C1014 C 0.70943 0.10591 0.30569 0.0
N1015 N 0.69605 0.08086 0.27477 0.0
C1016 C 0.72173 0.10691 0.25886 0.0
C1017 C 0.7226 0.11518 0.28509 0.0
H1018 H 0.68637 0.08122 0.31615 0.0
H1019 H 0.70806 0.08297 0.23455 0.0
C1020 C 0.66196 0.01702 0.17858 0.0
N1021 N 0.67576 0.02919 0.1942 0.0
C1022 C 0.66464 0.01316 0.15071 0.0
C1023 C 0.69567 0.03451 0.1556 0.0
C1024 C 0.69236 0.03805 0.18329 0.0
C1025 C 0.68168 0.02196 0.13898 0.0
H1026 H 0.64889 0.01033 0.18782 0.0
H1027 H 0.70299 0.04804 0.19593 0.0
O1028 O 0.66527 0.04308 0.30071 0.0
O1029 O 0.6524 0.01396 0.25331 0.0
O1030 O 0.6628 0.05088 0.23527 0.0
O1031 O 0.69153 0.04345 0.2584 0.0
H1032 H 0.65377 0.01866 0.34119 0.0
H1033 H 0.65239 0.06427 0.31028 0.0
H1034 H 0.63411 0.01644 0.38121 0.0
H1035 H 0.63268 0.0612 0.35078 0.0
H1036 H 0.64787 0.96235 0.22375 0.0
H1037 H 0.62395 0.99218 0.28297 0.0
H1038 H 0.6627 0.99494 0.22326 0.0
H1039 H 0.60964 0.95961 0.28213 0.0
H1040 H 0.58881 0.00632 0.309 0.0
H1041 H 0.59787 0.0373 0.23219 0.0
H1042 H 0.71045 0.02741 0.35646 0.0
H1043 H 0.6665 0.97527 0.33967 0.0
H1044 H 0.68118 0.06539 0.18814 0.0
H1045 H 0.65516 0.07344 0.25993 0.0
H1046 H 0.6901 0.09557 0.17113 0.0
H1047 H 0.66458 0.10351 0.24174 0.0
H1048 H 0.72533 0.06716 0.25357 0.0
H1049 H 0.68762 0.01168 0.25107 0.0
H1050 H 0.74904 0.06032 0.24291 0.0
H1051 H 0.7119 0.00576 0.24032 0.0
H1052 H 0.70973 0.11166 0.32636 0.0
H1053 H 0.73145 0.11362 0.24222 0.0
H1054 H 0.65353 0.00337 0.13848 0.0
H1055 H 0.70892 0.0418 0.14703 0.0
H1056 H 0.34125 0.3534 0.23325 0.0
H1057 H 0.33875 0.34013 0.28016 0.0
H1058 H 0.28957 0.29478 0.25503 0.0
H1059 H 0.29207 0.30795 0.20765 0.0
H1060 H 0.28815 0.30733 0.30879 0.0
H1061 H 0.32451 0.28979 0.25957 0.0
H1062 H 0.34905 0.29402 0.22838 0.0
H1063 H 0.38631 0.33139 0.28797 0.0
H1064 H 0.362 0.32758 0.31934 0.0
H1065 H 0.32552 0.28321 0.44408 0.0
H1066 H 0.31626 0.27824 0.39373 0.0
H1067 H 0.31973 0.32908 0.39091 0.0
H1068 H 0.32969 0.33454 0.44032 0.0
H1069 H 0.33791 0.30205 0.3484 0.0
H1070 H 0.28804 0.32586 0.35654 0.0
H1071 H 0.26378 0.32196 0.38828 0.0
H1072 H 0.25291 0.26977 0.40966 0.0
H1073 H 0.27722 0.27347 0.37827 0.0
C1074 C 0.33 0.34052 0.23755 0.0
C1075 C 0.31692 0.33165 0.21672 0.0
C1076 C 0.32858 0.33296 0.26435 0.0
C1077 C 0.31413 0.31636 0.2708 0.0
C1078 C 0.30086 0.30757 0.25031 0.0
C1079 C 0.30228 0.31514 0.22339 0.0
C1080 C 0.31289 0.30864 0.2994 0.0
C1081 C 0.29884 0.30581 0.31729 0.0
C1082 C 0.32668 0.30633 0.3103 0.0
C1083 C 0.3414 0.30839 0.29181 0.0
C1084 C 0.33793 0.29895 0.26599 0.0
C1085 C 0.35181 0.30128 0.24827 0.0
C1086 C 0.36923 0.31296 0.25619 0.0
C1087 C 0.37281 0.32232 0.28189 0.0
C1088 C 0.35899 0.32005 0.29968 0.0
C1089 C 0.32429 0.29332 0.43273 0.0
C1090 C 0.3284 0.3093 0.44628 0.0
C1091 C 0.31884 0.29037 0.40411 0.0
C1092 C 0.31711 0.3032 0.38889 0.0
C1093 C 0.32063 0.31886 0.40257 0.0
C1094 C 0.32628 0.32193 0.43091 0.0
C1095 C 0.31361 0.30153 0.35785 0.0
C1096 C 0.32686 0.30279 0.33953 0.0
C1097 C 0.29906 0.30223 0.34647 0.0
C1098 C 0.28436 0.29992 0.36505 0.0
C1099 C 0.28039 0.31353 0.36791 0.0
C1100 C 0.2667 0.31139 0.38593 0.0
C1101 C 0.25679 0.29562 0.40095 0.0
C1102 C 0.26061 0.28199 0.39807 0.0
C1103 C 0.27439 0.28413 0.38029 0.0
H1104 H 0.24617 0.29396 0.41483 0.0
H1105 H 0.37995 0.31477 0.24242 0.0
H1106 H 0.00903 0.32839 0.54475 0.0
H1107 H 0.01619 0.32472 0.59341 0.0
H1108 H 0.96557 0.27733 0.60187 0.0
H1109 H 0.95754 0.28199 0.55414 0.0
H1110 H 0.9689 0.29527 0.64393 0.0
H1111 H 0.00734 0.27809 0.60579 0.0
H1112 H 0.02984 0.278 0.57418 0.0
H1113 H 0.0686 0.32856 0.60677 0.0
H1114 H 0.04631 0.32912 0.63827 0.0
H1115 H 0.02869 0.31506 0.78062 0.0
H1116 H 0.0195 0.30068 0.73363 0.0
H1117 H -0.00011 0.33558 0.7113 0.0
H1118 H 0.00879 0.34973 0.75802 0.0
H1119 H 0.02843 0.31198 0.68039 0.0
H1120 H 0.96352 0.31581 0.67443 0.0
H1121 H 0.94007 0.31258 0.70734 0.0
H1122 H 0.95209 0.28158 0.76439 0.0
H1123 H 0.97542 0.28437 0.73163 0.0
C1124 C 0.99934 0.3172 0.55691 0.0
C1125 C 0.98252 0.30577 0.54559 0.0
C1126 C 0.00365 0.31484 0.58465 0.0
C1127 C 0.99151 0.30062 0.60144 0.0
C1128 C 0.97518 0.28843 0.58943 0.0
C1129 C 0.97066 0.29105 0.56192 0.0
C1130 C 0.99487 0.30018 0.63254 0.0
C1131 C 0.98185 0.2986 0.65183 0.0
C1132 C 0.01152 0.30387 0.64324 0.0
C1133 C 0.02509 0.30364 0.62442 0.0
C1134 C 0.02064 0.28924 0.60613 0.0
C1135 C 0.03337 0.2891 0.58822 0.0
C1136 C 0.05063 0.30327 0.58846 0.0
C1137 C 0.05522 0.31759 0.60664 0.0
C1138 C 0.04255 0.3178 0.62459 0.0
C1139 C 0.02246 0.31965 0.76555 0.0
C1140 C 0.01928 0.33338 0.77297 0.0
C1141 C 0.01719 0.31141 0.73884 0.0
C1142 C 0.00868 0.31681 0.71925 0.0
C1143 C 0.00597 0.33086 0.72641 0.0
C1144 C 0.01109 0.33896 0.75306 0.0
C1145 C 0.00286 0.30827 0.69091 0.0
C1146 C 0.01537 0.3081 0.67235 0.0
C1147 C 0.98555 0.30234 0.68098 0.0
C1148 C 0.97128 0.30036 0.70056 0.0
C1149 C 0.96107 0.30818 0.69387 0.0
C1150 C 0.94782 0.30646 0.71254 0.0
C1151 C 0.9446 0.2969 0.73796 0.0
C1152 C 0.95461 0.28901 0.74473 0.0
C1153 C 0.96787 0.29068 0.72612 0.0
H1154 H 0.93435 0.2956 0.7524 0.0
H1155 H 0.06047 0.30314 0.57457 0.0
H1156 H 0.68665 0.97611 0.87451 0.0
H1157 H 0.69877 0.98543 0.923 0.0
H1158 H 0.66436 0.00689 0.93619 0.0
H1159 H 0.65276 0.99815 0.88792 0.0
H1160 H 0.69573 0.02885 0.95596 0.0
H1161 H 0.6554 0.96467 0.96114 0.0
H1162 H 0.64615 0.93395 0.94804 0.0
H1163 H 0.69597 0.94126 0.97662 0.0
H1164 H 0.70556 0.97209 0.98961 0.0
H1165 H 0.66258 0.02053 0.09232 0.0
H1166 H 0.66764 0.01571 0.04257 0.0
H1167 H 0.71264 0.01134 0.06808 0.0
H1168 H 0.7076 0.01617 0.1183 0.0
H1169 H 0.68747 0.98404 0.0287 0.0
H1170 H 0.72295 0.04638 0.0362 0.0
H1171 H 0.72982 0.07616 0.05108 0.0
H1172 H 0.68728 0.07181 -0.0006 0.0
H1173 H 0.67996 0.0419 0.98456 0.0
C1174 C 0.68178 0.98286 0.8879 0.0
C1175 C 0.66885 0.9865 0.87763 0.0
C1176 C 0.68869 0.98817 0.91548 0.0
C1177 C 0.68245 0.99683 0.93322 0.0
C1178 C 0.66954 0.00043 0.92279 0.0
C1179 C 0.66287 0.99538 0.89527 0.0
C1180 C 0.68859 0.00176 0.9631 0.0
C1181 C 0.69404 0.01908 0.97185 0.0
C1182 C 0.68709 0.98921 0.98367 0.0
C1183 C 0.68127 0.9707 0.97599 0.0
C1184 C 0.66441 0.95973 0.96445 0.0
C1185 C 0.6591 0.94231 0.95708 0.0
C1186 C 0.67049 0.93567 0.9614 0.0
C1187 C 0.68719 0.94643 0.97321 0.0
C1188 C 0.69256 0.96387 0.98059 0.0
C1189 C 0.67347 0.01842 0.08739 0.0
C1190 C 0.68469 0.01868 0.10906 0.0
C1191 C 0.67643 0.0158 0.059 0.0
C1192 C 0.6906 0.01336 0.0518 0.0
C1193 C 0.7017 0.0133 0.07336 0.0
C1194 C 0.69885 0.01612 0.10187 0.0
C1195 C 0.69339 0.01073 0.02149 0.0
C1196 C 0.68978 0.99395 0.01269 0.0
C1197 C 0.69636 0.02371 0.00085 0.0
C1198 C 0.7009 0.04186 0.00929 0.0
C1199 C 0.715 0.05173 0.0281 0.0
C1200 C 0.71898 0.06865 0.03653 0.0
C1201 C 0.709 0.07587 0.02619 0.0
C1202 C 0.69503 0.06621 0.00736 0.0
C1203 C 0.69098 0.04928 -0.00112 0.0
H1204 H 0.71208 0.08896 0.03277 0.0
H1205 H 0.66636 0.92218 0.95567 0.0
H1206 H 0.6572 0.66479 0.22412 0.0
H1207 H 0.66185 0.67955 0.26996 0.0
H1208 H 0.71817 0.70557 0.25751 0.0
H1209 H 0.71354 0.69058 0.21114 0.0
H1210 H 0.70969 0.6918 0.30945 0.0
H1211 H 0.6978 0.73043 0.25787 0.0
H1212 H 0.68352 0.74015 0.22256 0.0
H1213 H 0.63473 0.71273 0.26881 0.0
H1214 H 0.6486 0.70259 0.30416 0.0
H1215 H 0.69325 0.71508 0.45278 0.0
H1216 H 0.7052 0.72174 0.40369 0.0
H1217 H 0.65514 0.68114 0.37105 0.0
H1218 H 0.64335 0.67427 0.41974 0.0
H1219 H 0.67189 0.71594 0.34126 0.0
H1220 H 0.68422 0.67023 0.38053 0.0
H1221 H 0.69913 0.66087 0.41532 0.0
H1222 H 0.74925 0.70481 0.39135 0.0
H1223 H 0.73455 0.71452 0.35663 0.0
C1224 C 0.67058 0.67393 0.23079 0.0
C1225 C 0.685 0.67664 0.21397 0.0
C1226 C 0.67324 0.68243 0.25699 0.0
C1227 C 0.69036 0.69402 0.26685 0.0
C1228 C 0.70486 0.69683 0.25012 0.0
C1229 C 0.70219 0.68821 0.22379 0.0
C1230 C 0.69267 0.70166 0.29586 0.0
C1231 C 0.70193 0.69768 0.31626 0.0
C1232 C 0.68278 0.70958 0.30477 0.0
C1233 C 0.6743 0.71576 0.28375 0.0
C1234 C 0.684 0.7264 0.26047 0.0
C1235 C 0.67597 0.73199 0.24043 0.0
C1236 C 0.65823 0.72707 0.24345 0.0
C1237 C 0.64848 0.71657 0.26654 0.0
C1238 C 0.65644 0.71093 0.28664 0.0
C1239 C 0.68486 0.70769 0.43499 0.0
C1240 C 0.66746 0.6941 0.4398 0.0
C1241 C 0.69166 0.71151 0.40714 0.0
C1242 C 0.68096 0.70198 0.38395 0.0
C1243 C 0.6635 0.68869 0.38877 0.0
C1244 C 0.65684 0.68468 0.4165 0.0
C1245 C 0.68783 0.70487 0.35448 0.0
C1246 C 0.68033 0.7109 0.33413 0.0
C1247 C 0.69954 0.69913 0.3456 0.0
C1248 C 0.70829 0.69322 0.36632 0.0
C1249 C 0.6984 0.67796 0.38288 0.0
C1250 C 0.70681 0.67258 0.40253 0.0
C1251 C 0.72512 0.68228 0.40562 0.0
C1252 C 0.73506 0.69734 0.38899 0.0
C1253 C 0.7267 0.70279 0.36933 0.0
H1254 H 0.73161 0.67809 0.42084 0.0
H1255 H 0.65203 0.7314 0.2279 0.0
H1256 H 0.95311 0.6701 0.76318 0.0
H1257 H 0.96342 0.68415 0.71653 0.0
H1258 H 0.01213 0.68381 0.72843 0.0
H1259 H 0.0026 0.67122 0.77582 0.0
H1260 H 0.01892 0.71181 0.70061 0.0
H1261 H 0.97405 0.64942 0.69296 0.0
H1262 H 0.94429 0.62383 0.70012 0.0
H1263 H 0.92174 0.65017 0.65389 0.0
H1264 H 0.95138 0.676 0.64673 0.0
H1265 H 0.03998 0.68011 0.57743 0.0
H1266 H 0.02984 0.68519 0.62355 0.0
H1267 H 0.00074 0.7059 0.57961 0.0
H1268 H 0.01137 0.7013 0.53333 0.0
H1269 H 0.98136 0.67568 0.61996 0.0
H1270 H 0.03002 0.73403 0.61582 0.0
H1271 H 0.06092 0.75694 0.6075 0.0
H1272 H 0.07773 0.73555 0.67522 0.0
H1273 H 0.04696 0.71232 0.68366 0.0
C1274 C 0.9662 0.67343 0.7562 0.0
C1275 C 0.97687 0.66916 0.77304 0.0
C1276 C 0.97201 0.68133 0.72939 0.0
C1277 C 0.98839 0.68468 0.71869 0.0
C1278 C -0.0006 0.68129 0.73612 0.0
C1279 C 0.99378 0.67375 0.76306 0.0
C1280 C 0.99358 0.69005 0.68856 0.0
C1281 C 0.01067 0.70399 0.68294 0.0
C1282 C 0.98263 0.68019 0.66539 0.0
C1283 C 0.96486 0.66469 0.66966 0.0
C1284 C 0.96272 0.64978 0.68449 0.0
C1285 C 0.94589 0.63524 0.68853 0.0
C1286 C 0.93113 0.6354 0.67756 0.0
C1287 C 0.93318 0.65009 0.66245 0.0
C1288 C 0.94998 0.66468 0.6584 0.0
C1289 C 0.03167 0.68602 0.57778 0.0
C1290 C 0.02638 0.69035 0.5522 0.0
C1291 C 0.02598 0.689 0.60396 0.0
C1292 C 0.0147 0.69605 0.60479 0.0
C1293 C 0.00958 0.70061 0.57923 0.0
C1294 C 0.0156 0.69798 0.553 0.0
C1295 C 0.00695 0.69674 0.63239 0.0
C1296 C 0.98936 0.68394 0.63749 0.0
C1297 C 0.01759 0.70734 0.6551 0.0
C1298 C 0.03615 0.72138 0.6503 0.0
C1299 C 0.04031 0.73413 0.62882 0.0
C1300 C 0.05781 0.74719 0.6241 0.0
C1301 C 0.07128 0.74769 0.64081 0.0
C1302 C 0.06728 0.73515 0.66231 0.0
C1303 C 0.0498 0.72205 0.6671 0.0
H1304 H 0.08483 0.75781 0.63711 0.0
H1305 H 0.91811 0.62413 0.6807 0.0
H1306 H 0.30082 0.99506 0.11775 0.0
H1307 H 0.29772 0.00287 0.06865 0.0
H1308 H 0.30052 0.95803 0.0371 0.0
H1309 H 0.30425 0.95052 0.08586 0.0
H1310 H 0.3254 0.98795 0.01444 0.0
H1311 H 0.26333 0.96019 0.02828 0.0
H1312 H 0.23567 0.95364 0.0524 0.0
H1313 H 0.24833 0.00739 0.04154 0.0
H1314 H 0.27621 0.01435 0.01771 0.0
H1315 H 0.30276 0.00183 0.86731 0.0
H1316 H 0.29083 0.9908 0.91512 0.0
H1317 H 0.33494 0.03641 0.95299 0.0
H1318 H 0.34712 0.04734 0.90546 0.0
H1319 H 0.28338 0.00337 0.96998 0.0
H1320 H 0.35369 0.01919 0.9955 0.0
H1321 H 0.38069 0.02485 0.96988 0.0
H1322 H 0.34938 0.99146 0.90087 0.0
H1323 H 0.32223 0.98533 0.92636 0.0
C1324 C 0.30055 0.98675 0.10035 0.0
C1325 C 0.30306 0.97234 0.10563 0.0
C1326 C 0.29854 0.99109 0.07236 0.0
C1327 C 0.2989 0.98102 0.04929 0.0
C1328 C 0.30018 0.96595 0.05467 0.0
C1329 C 0.30224 0.96163 0.08258 0.0
C1330 C 0.30081 0.98771 0.01969 0.0
C1331 C 0.31608 0.99115 0.00474 0.0
C1332 C 0.28869 0.99193 0.00702 0.0
C1333 C 0.27195 0.98782 0.02141 0.0
C1334 C 0.2603 0.97066 0.03126 0.0
C1335 C 0.24456 0.96686 0.04483 0.0
C1336 C 0.24026 0.9801 0.04856 0.0
C1337 C 0.25168 0.99715 0.03866 0.0
C1338 C 0.26745 0.00103 0.02508 0.0
C1339 C 0.30969 0.00968 0.88584 0.0
C1340 C 0.32606 0.02523 0.88276 0.0
C1341 C 0.30273 0.00349 0.91305 0.0
C1342 C 0.31213 0.01274 0.93742 0.0
C1343 C 0.32754 0.02913 0.93431 0.0
C1344 C 0.33449 0.03534 0.90715 0.0
C1345 C 0.30802 0.00375 0.96539 0.0
C1346 C 0.2925 -1e-05 0.97988 0.0
C1347 C 0.31974 0.99894 0.97768 0.0
C1348 C 0.33597 0.00196 0.9627 0.0
C1349 C 0.35259 0.01297 0.97495 0.0
C1350 C 0.36791 0.01627 0.96045 0.0
C1351 C 0.36675 0.00856 0.93372 0.0
C1352 C 0.35026 0.99745 0.92153 0.0
C1353 C 0.33491 0.99407 0.936 0.0
H1354 H 0.37863 0.01118 0.92249 0.0
H1355 H 0.22806 0.97713 0.05906 0.0
H1356 H 0.12625 0.37876 -0.00143 0.0
H1357 H 0.15488 0.38259 0.01149 0.0
H1358 H 0.17821 0.41532 0.93716 0.0
H1359 H 0.14968 0.41228 0.92459 0.0
H1360 H 0.18655 0.38759 0.94521 0.0
H1361 H 0.18781 0.43544 -0.00368 0.0
H1362 H 0.17626 0.44976 0.0282 0.0
H1363 H 0.17398 0.41663 0.09779 0.0
H1364 H 0.18526 0.40191 0.0662 0.0
H1365 H 0.27337 0.41068 0.99261 0.0
H1366 H 0.24874 0.41458 0.9769 0.0
H1367 H 0.21717 0.38215 0.04714 0.0
H1368 H 0.2416 0.378 0.06257 0.0
H1369 H 0.21521 0.41343 0.03833 0.0
H1370 H 0.21036 0.36351 0.98712 0.0
H1371 H 0.22083 0.34789 0.95601 0.0
H1372 H 0.22892 0.38376 0.8873 0.0
H1373 H 0.21877 0.3998 0.91822 0.0
C1374 C 0.13747 0.3871 0.9852 0.0
C1375 C 0.13561 0.39535 0.96063 0.0
C1376 C 0.15382 0.38915 0.99254 0.0
C1377 C 0.16862 0.39932 0.97536 0.0
C1378 C 0.16688 0.40741 0.95065 0.0
C1379 C 0.15055 0.40557 0.94346 0.0
C1380 C 0.18579 0.40114 0.98321 0.0
C1381 C 0.19307 0.3936 0.96524 0.0
C1382 C 0.19398 0.40862 0.00967 0.0
C1383 C 0.18724 0.41747 0.02881 0.0
C1384 C 0.1847 0.4311 0.01836 0.0
C1385 C 0.17823 0.43931 0.03639 0.0
C1386 C 0.17435 0.43408 0.06499 0.0
C1387 C 0.17698 0.42066 0.07563 0.0
C1388 C 0.18342 0.41239 0.05767 0.0
C1389 C 0.26122 0.4046 0.00482 0.0
C1390 C 0.25926 0.39402 0.0287 0.0
C1391 C 0.2472 0.40677 -0.00418 0.0
C1392 C 0.23118 0.39859 0.01086 0.0
C1393 C 0.22946 0.38857 0.03533 0.0
C1394 C 0.24334 0.38616 0.04403 0.0
C1395 C 0.21586 0.39974 0.00046 0.0
C1396 C 0.2089 0.40775 0.01802 0.0
C1397 C 0.2079 0.39259 0.97372 0.0
C1398 C 0.21407 0.38302 0.95512 0.0
C1399 C 0.21458 0.3682 0.96549 0.0
C1400 C 0.22041 0.35924 0.94788 0.0
C1401 C 0.22561 0.36487 0.91973 0.0
C1402 C 0.22494 0.37945 0.90914 0.0
C1403 C 0.21915 0.38849 0.9267 0.0
H1404 H 0.2301 0.3579 0.90611 0.0
H1405 H 0.16935 0.44046 0.07892 0.0
H1406 H 0.84945 0.26723 0.37215 0.0
H1407 H 0.82086 0.2426 0.35774 0.0
H1408 H 0.84664 0.21637 0.32051 0.0
H1409 H 0.87517 0.24038 0.33603 0.0
H1410 H 0.81997 0.21749 0.28494 0.0
H1411 H 0.82928 0.20232 0.38047 0.0
H1412 H 0.83546 0.2076 0.43215 0.0
H1413 H 0.78941 0.21251 0.44301 0.0
H1414 H 0.7831 0.20751 0.39125 0.0
H1415 H 0.75716 0.12786 0.27138 0.0
H1416 H 0.78231 0.15653 0.28297 0.0
H1417 H 0.74794 0.1712 0.32598 0.0
H1418 H 0.72247 0.14249 0.31393 0.0
H1419 H 0.77695 0.1785 0.35803 0.0
H1420 H 0.76545 0.18992 0.2634 0.0
H1421 H 0.75918 0.18452 0.21178 0.0
H1422 H 0.80888 0.18697 0.19874 0.0
H1423 H 0.81536 0.19212 0.25039 0.0
C1424 C 0.84907 0.25615 0.36121 0.0
C1425 C 0.86469 0.25584 0.35535 0.0
C1426 C 0.83273 0.24217 0.35279 0.0
C1427 C 0.83172 0.22776 0.33807 0.0
C1428 C 0.84722 0.2275 0.33167 0.0
C1429 C 0.86353 0.24131 0.34045 0.0
C1430 C 0.81449 0.21261 0.32999 0.0
C1431 C 0.81057 0.20889 0.30084 0.0
C1432 C 0.8021 0.20178 0.35086 0.0
C1433 C 0.80586 0.20478 0.38195 0.0
C1434 C 0.82057 0.20471 0.39383 0.0
C1435 C 0.82408 0.20761 0.42314 0.0
C1436 C 0.81287 0.21046 0.44084 0.0
C1437 C 0.7981 0.21035 0.42926 0.0
C1438 C 0.79456 0.20748 0.39994 0.0
C1439 C 0.75484 0.13727 0.28279 0.0
C1440 C 0.73776 0.13292 0.29151 0.0
C1441 C 0.76926 0.15365 0.28949 0.0
C1442 C 0.76695 0.16605 0.30501 0.0
C1443 C 0.74997 0.1618 0.31389 0.0
C1444 C 0.73547 0.14539 0.30709 0.0
C1445 C 0.7825 0.18312 0.31288 0.0
C1446 C 0.78616 0.18724 0.34203 0.0
C1447 C 0.79462 0.19434 0.29198 0.0
C1448 C 0.79083 0.19129 0.26084 0.0
C1449 C 0.77499 0.18917 0.24958 0.0
C1450 C 0.77141 0.18617 0.22029 0.0
C1451 C 0.78361 0.18537 0.202 0.0
C1452 C 0.79944 0.18759 0.21294 0.0
C1453 C 0.80308 0.19057 0.24222 0.0
H1454 H 0.78081 0.18305 0.17933 0.0
H1455 H 0.81559 0.21269 0.46354 0.0
H1456 H 0.59901 0.86799 0.64839 0.0
H1457 H 0.59627 0.83969 0.63489 0.0
H1458 H 0.61228 0.8343 0.71991 0.0
H1459 H 0.61505 0.8626 0.73353 0.0
H1460 H 0.63066 0.82851 0.67602 0.0
H1461 H 0.57096 0.8098 0.70283 0.0
H1462 H 0.543 0.81016 0.70187 0.0
H1463 H 0.53716 0.79746 0.61225 0.0
H1464 H 0.56524 0.79729 0.61257 0.0
H1465 H 0.61094 0.74016 0.66966 0.0
H1466 H 0.61015 0.76666 0.68356 0.0
H1467 H 0.59342 0.77057 0.59833 0.0
H1468 H 0.59401 0.74387 0.5843 0.0
H1469 H 0.57513 0.77708 0.64157 0.0
H1470 H 0.63451 0.7959 0.61414 0.0
H1471 H 0.66261 0.79582 0.61417 0.0
H1472 H 0.66936 0.80882 0.70368 0.0
H1473 H 0.64113 0.8087 0.7043 0.0
C1474 C 0.60187 0.86072 0.66419 0.0
C1475 C 0.60721 0.86743 0.692 0.0
C1476 C 0.60023 0.84455 0.65652 0.0
C1477 C 0.604 0.83491 0.67647 0.0
C1478 C 0.60927 0.84155 0.70427 0.0
C1479 C 0.61073 0.85763 0.71206 0.0
C1480 C 0.603 0.81817 0.66803 0.0
C1481 C 0.61847 0.81716 0.6689 0.0
C1482 C 0.58719 0.80362 0.65793 0.0
C1483 C 0.57031 0.80372 0.65766 0.0
C1484 C 0.5638 0.80725 0.68285 0.0
C1485 C 0.54792 0.80739 0.68244 0.0
C1486 C 0.53834 0.80389 0.657 0.0
C1487 C 0.54461 0.8002 0.63193 0.0
C1488 C 0.56051 0.80007 0.63221 0.0
C1489 C 0.6068 0.74648 0.65401 0.0
C1490 C 0.60253 0.73997 0.62589 0.0
C1491 C 0.60649 0.76168 0.66191 0.0
C1492 C 0.6019 0.77063 0.64187 0.0
C1493 C 0.59704 0.76385 0.61405 0.0
C1494 C 0.59747 0.74869 0.60605 0.0
C1495 C 0.60276 0.78738 0.64981 0.0
C1496 C 0.5873 0.78841 0.64875 0.0
C1497 C 0.61861 0.80202 0.6596 0.0
C1498 C 0.6356 0.80209 0.65934 0.0
C1499 C 0.64189 0.79857 0.6339 0.0
C1500 C 0.65787 0.79859 0.63378 0.0
C1501 C 0.66774 0.80226 0.65893 0.0
C1502 C 0.66168 0.80595 0.68423 0.0
C1503 C 0.64569 0.80591 0.68448 0.0
H1504 H 0.68011 0.80229 0.65879 0.0
H1505 H 0.52603 0.80399 0.65673 0.0
H1506 H 0.72742 0.59131 -0.00163 0.0
H1507 H 0.75299 0.58886 0.98432 0.0
H1508 H 0.77719 0.60983 0.06627 0.0
H1509 H 0.75195 0.61291 0.08009 0.0
H1510 H 0.7998 0.62593 0.02299 0.0
H1511 H 0.75931 0.56602 0.05064 0.0
H1512 H 0.73108 0.53798 0.04967 0.0
H1513 H 0.73802 0.53218 0.96005 0.0
H1514 H 0.76618 0.56033 0.96039 0.0
H1515 H 0.87041 0.61 0.01381 0.0
H1516 H 0.84264 0.60754 0.02946 0.0
H1517 H 0.81999 0.5875 0.94629 0.0
H1518 H 0.84779 0.58988 0.93051 0.0
H1519 H 0.79633 0.57051 0.98941 0.0
H1520 H 0.83607 0.63003 0.9609 0.0
H1521 H 0.86413 0.65825 0.96056 0.0
H1522 H 0.85827 0.6651 0.05019 0.0
H1523 H 0.83029 0.63677 0.05117 0.0
C1524 C 0.73819 0.59541 0.01339 0.0
C1525 C 0.73766 0.6023 0.04035 0.0
C1526 C 0.75272 0.59384 0.00543 0.0
C1527 C 0.7669 0.59901 0.02437 0.0
C1528 C 0.76633 0.60571 0.05139 0.0
C1529 C 0.75183 0.6073 0.05935 0.0
C1530 C 0.7827 0.59815 0.01558 0.0
C1531 C 0.79907 0.61375 0.01609 0.0
C1532 C 0.78164 0.58237 0.00568 0.0
C1533 C 0.76478 0.56536 0.00549 0.0
C1534 C 0.75475 0.55883 0.03068 0.0
C1535 C 0.73877 0.5429 0.03025 0.0
C1536 C 0.73274 0.53332 0.0048 0.0
C1537 C 0.7427 0.53962 0.97974 0.0
C1538 C 0.75868 0.55555 0.98005 0.0
C1539 C 0.85947 0.60496 -0.00106 0.0
C1540 C 0.86129 0.60033 0.97085 0.0
C1541 C 0.84363 0.60354 0.0079 0.0
C1542 C 0.8294 0.59765 0.98884 0.0
C1543 C 0.83086 0.59212 0.96127 0.0
C1544 C 0.84671 0.59346 0.95231 0.0
C1545 C 0.81341 0.59823 -0.00276 0.0
C1546 C 0.79703 0.58264 -0.00353 0.0
C1547 C 0.81442 0.61405 0.00674 0.0
C1548 C 0.83117 0.63119 0.00617 0.0
C1549 C 0.84083 0.63749 0.98059 0.0
C1550 C 0.85671 0.65351 0.98028 0.0
C1551 C 0.863 0.66344 0.00536 0.0
C1552 C 0.8534 0.65738 0.03079 0.0
C1553 C 0.83752 0.64135 0.03123 0.0
H1554 H 0.8753 0.67585 0.00507 0.0
H1555 H 0.72036 0.521 0.0045 0.0
H1556 H 0.12866 0.75658 0.36592 0.0
H1557 H 0.15643 0.78167 0.35033 0.0
H1558 H 0.17824 0.74762 0.33758 0.0
H1559 H 0.15015 0.72214 0.35245 0.0
H1560 H 0.20088 0.78077 0.36734 0.0
H1561 H 0.16657 0.7591 0.28103 0.0
H1562 H 0.13983 0.74879 0.25156 0.0
H1563 H 0.1423 0.79865 0.26251 0.0
H1564 H 0.16891 0.80917 0.29242 0.0
H1565 H 0.27527 0.85008 0.2945 0.0
H1566 H 0.25006 0.82132 0.30701 0.0
H1567 H 0.21643 0.84424 0.30885 0.0
H1568 H 0.24125 0.87269 0.29521 0.0
H1569 H 0.2008 0.8141 0.28143 0.0
H1570 H 0.23175 0.83516 0.37053 0.0
H1571 H 0.25722 0.84643 0.40321 0.0
H1572 H 0.26004 0.79934 0.3905 0.0
H1573 H 0.23471 0.7879 0.35741 0.0
C1574 C 0.13927 0.75433 0.35952 0.0
C1575 C 0.1371 0.73731 0.35999 0.0
C1576 C 0.15515 0.76871 0.35081 0.0
C1577 C 0.16924 0.7664 0.34253 0.0
C1578 C 0.16744 0.74959 0.34388 0.0
C1579 C 0.15144 0.73509 0.35243 0.0
C1580 C 0.18564 0.78166 0.3319 0.0
C1581 C 0.20104 0.78789 0.34823 0.0
C1582 C 0.18556 0.7911 0.3074 0.0
C1583 C 0.16968 0.78488 0.28912 0.0
C1584 C 0.16134 0.76782 0.27732 0.0
C1585 C 0.14622 0.76195 0.26051 0.0
C1586 C 0.13936 0.77305 0.25521 0.0
C1587 C 0.14763 0.79007 0.26664 0.0
C1588 C 0.16275 0.796 0.28349 0.0
C1589 C 0.26246 0.84892 0.29734 0.0
C1590 C 0.26027 0.86368 0.29405 0.0
C1591 C 0.24812 0.83254 0.30474 0.0
C1592 C 0.23142 0.8307 0.30913 0.0
C1593 C 0.22921 0.84538 0.30562 0.0
C1594 C 0.24347 0.86168 0.29811 0.0
C1595 C 0.21608 0.8135 0.31715 0.0
C1596 C 0.20082 0.80687 0.30029 0.0
C1597 C 0.21622 0.8039 0.34144 0.0
C1598 C 0.23149 0.81078 0.3612 0.0
C1599 C 0.23791 0.82729 0.37448 0.0
C1600 C 0.2523 0.83369 0.39313 0.0
C1601 C 0.26029 0.82363 0.39885 0.0
C1602 C 0.25387 0.80713 0.38599 0.0
C1603 C 0.2395 0.80068 0.3673 0.0
H1604 H 0.27141 0.82861 0.41331 0.0
H1605 H 0.12764 0.76848 0.2422 0.0
H1606 H 0.37914 0.13828 0.7314 0.0
H1607 H 0.37945 0.16507 0.71545 0.0
H1608 H 0.42118 0.17556 0.65582 0.0
H1609 H 0.42073 0.1485 0.67139 0.0
H1610 H 0.42421 0.20595 0.69288 0.0
H1611 H 0.3864 0.1603 0.62619 0.0
H1612 H 0.36199 0.1308 0.61348 0.0
H1613 H 0.3255 0.14143 0.65834 0.0
H1614 H 0.34977 0.17091 0.67172 0.0
H1615 H 0.41697 0.27317 0.61997 0.0
H1616 H 0.42042 0.24788 0.63109 0.0
H1617 H 0.36812 0.22091 0.66744 0.0
H1618 H 0.36392 0.24534 0.65404 0.0
H1619 H 0.37217 0.19869 0.63899 0.0
H1620 H 0.40806 0.24238 0.70881 0.0
H1621 H 0.43149 0.2714 0.72573 0.0
H1622 H 0.47025 0.26438 0.68049 0.0
H1623 H 0.447 0.2354 0.66301 0.0
C1624 C 0.38857 0.14646 0.71523 0.0
C1625 C 0.39996 0.14143 0.70266 0.0
C1626 C 0.38867 0.16165 0.70606 0.0
C1627 C 0.40029 0.17216 0.68445 0.0
C1628 C 0.41214 0.16756 0.67256 0.0
C1629 C 0.41184 0.15215 0.68138 0.0
C1630 C 0.39944 0.18753 0.6736 0.0
C1631 C 0.41301 0.20447 0.68068 0.0
C1632 C 0.38457 0.18541 0.65841 0.0
C1633 C 0.36994 0.16774 0.6502 0.0
C1634 C 0.37321 0.15628 0.63358 0.0
C1635 C 0.35939 0.13958 0.6262 0.0
C1636 C 0.34221 0.13423 0.63516 0.0
C1637 C 0.33882 0.14559 0.65145 0.0
C1638 C 0.3526 0.1623 0.65891 0.0
C1639 C 0.40607 0.26177 0.62992 0.0
C1640 C 0.39019 0.26146 0.63623 0.0
C1641 C 0.40818 0.24739 0.63669 0.0
C1642 C 0.39467 0.23258 0.65064 0.0
C1643 C 0.3788 0.23219 0.65681 0.0
C1644 C 0.37652 0.24637 0.6495 0.0
C1645 C 0.39685 0.21736 0.65863 0.0
C1646 C 0.3835 0.20035 0.651 0.0
C1647 C 0.41179 0.21943 0.67383 0.0
C1648 C 0.42578 0.23682 0.68436 0.0
C1649 C 0.42157 0.24708 0.70231 0.0
C1650 C 0.43481 0.26351 0.71203 0.0
C1651 C 0.45234 0.26975 0.70412 0.0
C1652 C 0.45666 0.25955 0.68655 0.0
C1653 C 0.44346 0.24311 0.67675 0.0
H1654 H 0.46258 0.28248 0.71167 0.0
H1655 H 0.33153 0.12129 0.62942 0.0
H1656 H 0.34091 0.33917 0.74091 0.0
H1657 H 0.3305 0.32778 0.78874 0.0
H1658 H 0.27745 0.29664 0.75689 0.0
H1659 H 0.28775 0.30828 0.70844 0.0
H1660 H 0.28428 0.31597 0.81593 0.0
H1661 H 0.29353 0.27396 0.76295 0.0
H1662 H 0.31046 0.26662 0.72896 0.0
H1663 H 0.35506 0.28974 0.78553 0.0
H1664 H 0.3385 0.29749 0.81964 0.0
H1665 H 0.27646 0.28644 0.95555 0.0
H1666 H 0.27109 0.27877 0.90471 0.0
H1667 H 0.32715 0.30571 0.88949 0.0
H1668 H 0.33261 0.31347 0.93981 0.0
H1669 H 0.30968 0.27969 0.85032 0.0
H1670 H 0.30676 0.32941 0.89167 0.0
H1671 H 0.29482 0.34232 0.92578 0.0
H1672 H 0.24284 0.30943 0.89176 0.0
H1673 H 0.25449 0.29614 0.85771 0.0
C1674 C 0.32691 0.33042 0.74408 0.0
C1675 C 0.31514 0.32462 0.72085 0.0
C1676 C 0.32103 0.32378 0.77141 0.0
C1677 C 0.30331 0.31122 0.77605 0.0
C1678 C 0.2912 0.30628 0.7535 0.0
C1679 C 0.29711 0.31289 0.72594 0.0
C1680 C 0.29815 0.30242 0.80413 0.0
C1681 C 0.28919 0.30746 0.82328 0.0
C1682 C 0.30504 0.29174 0.81363 0.0
C1683 C 0.31476 0.28631 0.79385 0.0
C1684 C 0.30696 0.2775 0.76812 0.0
C1685 C 0.3165 0.27329 0.74882 0.0
C1686 C 0.33383 0.27772 0.75508 0.0
C1687 C 0.34163 0.28629 0.78073 0.0
C1688 C 0.33215 0.29057 0.80009 0.0
C1689 C 0.28762 0.29017 0.9415 0.0
C1690 C 0.30495 0.30099 0.95148 0.0
C1691 C 0.28453 0.2857 0.91252 0.0
C1692 C 0.29872 0.2921 0.89331 0.0
C1693 C 0.316 0.30071 0.90397 0.0
C1694 C 0.31911 0.30515 0.93286 0.0
C1695 C 0.29605 0.29347 0.86237 0.0
C1696 C 0.30379 0.28728 0.84269 0.0
C1697 C 0.28841 0.30346 0.85247 0.0
C1698 C 0.28144 0.31166 0.87243 0.0
C1699 C 0.29278 0.32489 0.89157 0.0
C1700 C 0.28607 0.33227 0.91088 0.0
C1701 C 0.26807 0.32666 0.91098 0.0
C1702 C 0.25677 0.31372 0.8917 0.0
C1703 C 0.26341 0.30626 0.8724 0.0
H1704 H 0.26289 0.33238 0.92596 0.0
H1705 H 0.34122 0.2745 0.74006 0.0
H1706 H 0.01495 0.34886 0.26634 0.0
H1707 H 0.01832 0.34372 0.21601 0.0
H1708 H 0.00588 0.29061 0.23596 0.0
H1709 H 0.00211 0.29562 0.28643 0.0
H1710 H 0.03427 0.33318 0.17905 0.0
H1711 H 0.97414 0.26331 0.19008 0.0
H1712 H 0.94992 0.24642 0.22428 0.0
H1713 H 0.95207 0.29421 0.25203 0.0
H1714 H 0.97606 0.31129 0.21768 0.0
H1715 H 0.01769 0.30595 0.03908 0.0
H1716 H 0.0183 0.29952 0.08954 0.0
H1717 H 0.97568 0.30958 0.10601 0.0
H1718 H 0.97441 0.31534 0.0551 0.0
H1719 H 0.97596 0.28586 0.1446 0.0
H1720 H 0.01517 0.34323 0.10616 0.0
H1721 H 0.03723 0.3638 0.07173 0.0
H1722 H 0.07371 0.34752 0.09921 0.0
H1723 H 0.05169 0.32659 0.13346 0.0
C1724 C 0.01366 0.33634 0.2602 0.0
C1725 C 0.00797 0.32252 0.28005 0.0
C1726 C 0.01557 0.3334 0.23141 0.0
C1727 C 0.01188 0.31664 0.22222 0.0
C1728 C 0.00844 0.30353 0.24262 0.0
C1729 C 0.00632 0.3064 0.27137 0.0
C1730 C 0.00861 0.31217 0.19145 0.0
C1731 C 0.02167 0.32261 0.17154 0.0
C1732 C 0.99189 0.29881 0.18164 0.0
C1733 C 0.97701 0.28856 0.20157 0.0
C1734 C 0.96936 0.27017 0.20337 0.0
C1735 C 0.95568 0.26057 0.22279 0.0
C1736 C 0.9495 0.26924 0.24038 0.0
C1737 C 0.95688 0.28751 0.23844 0.0
C1738 C 0.97051 0.29715 0.219 0.0
C1739 C 0.00781 0.30596 0.05304 0.0
C1740 C 0.99624 0.31157 0.04315 0.0
C1741 C 0.00829 0.30237 0.08199 0.0
C1742 C 0.99737 0.30456 0.10149 0.0
C1743 C 0.98433 0.30799 0.09125 0.0
C1744 C 0.98374 0.31145 0.06221 0.0
C1745 C 0.00172 0.30667 0.13231 0.0
C1746 C 0.98879 0.29596 0.15217 0.0
C1747 C 0.01828 0.32032 0.14209 0.0
C1748 C 0.03173 0.33321 0.12212 0.0
C1749 C 0.02786 0.34397 0.10474 0.0
C1750 C 0.04035 0.35569 0.08526 0.0
C1751 C 0.05685 0.35694 0.08324 0.0
C1752 C 0.06091 0.34651 0.10077 0.0
C1753 C 0.04843 0.33471 0.12021 0.0
H1754 H 0.0665 0.36601 0.06814 0.0
H1755 H 0.93896 0.2618 0.25547 0.0
H1756 H 0.65904 0.99782 0.58316 0.0
H1757 H 0.67107 0.99796 0.53633 0.0
H1758 H 0.72259 0.01722 0.57324 0.0
H1759 H 0.71073 0.01767 0.62076 0.0
H1760 H 0.71763 0.03082 0.51201 0.0
H1761 H 0.70732 0.97938 0.56597 0.0
H1762 H 0.68971 0.95577 0.60064 0.0
H1763 H 0.64507 0.9353 0.54424 0.0
H1764 H 0.66233 0.95895 0.50943 0.0
H1765 H 0.72181 0.00786 0.37145 0.0
H1766 H 0.72873 0.00589 0.42167 0.0
H1767 H 0.67318 0.97737 0.44141 0.0
H1768 H 0.66623 0.9792 0.3917 0.0
H1769 H 0.69109 0.96884 0.47871 0.0
H1770 H 0.6951 0.02253 0.43781 0.0
H1771 H 0.7075 0.04714 0.40324 0.0
H1772 H 0.75965 0.06378 0.43434 0.0
H1773 H 0.74752 0.03909 0.46888 0.0
C1774 C 0.67308 0.00281 0.58141 0.0
C1775 C 0.6839 0.00763 0.60582 0.0
C1776 C 0.67989 0.00272 0.55458 0.0
C1777 C 0.69759 0.00732 0.55162 0.0
C1778 C 0.70885 0.01354 0.57534 0.0
C1779 C 0.70203 0.01368 0.60238 0.0
C1780 C 0.7033 0.00351 0.52421 0.0
C1781 C 0.71253 0.01734 0.50491 0.0
C1782 C 0.69623 0.98585 0.51508 0.0
C1783 C 0.68614 0.97093 0.53508 0.0
C1784 C 0.69375 0.96983 0.56095 0.0
C1785 C 0.68383 0.95646 0.58065 0.0
C1786 C 0.66629 0.94404 0.57464 0.0
C1787 C 0.65867 0.9449 0.54883 0.0
C1788 C 0.66854 0.95826 0.52907 0.0
C1789 C 0.7111 0.00061 0.38637 0.0
C1790 C 0.6935 0.99407 0.37785 0.0
C1791 C 0.71507 0.99944 0.41499 0.0
C1792 C 0.70148 0.99191 0.43534 0.0
C1793 C 0.68389 0.9833 0.42608 0.0
C1794 C 0.67991 0.98437 0.39754 0.0
C1795 C 0.70506 0.99615 0.46613 0.0
C1796 C 0.69732 0.98238 0.48609 0.0
C1797 C 0.7132 0.01387 0.4758 0.0
C1798 C 0.72046 0.02893 0.45565 0.0
C1799 C 0.70921 0.03144 0.43721 0.0
C1800 C 0.71618 0.04538 0.41762 0.0
C1801 C 0.73435 0.057 0.41655 0.0
C1802 C 0.74558 0.05475 0.43516 0.0
C1803 C 0.73867 0.04079 0.45474 0.0
H1804 H 0.73973 0.06776 0.40134 0.0
H1805 H 0.65859 0.93375 0.58998 0.0
H1806 H 0.69499 0.66992 0.70314 0.0
H1807 H 0.70313 0.67113 0.75322 0.0
H1808 H 0.71099 0.72365 0.76008 0.0
H1809 H 0.7035 0.72285 0.70949 0.0
H1810 H 0.73011 0.71239 0.80402 0.0
H1811 H 0.67116 0.69648 0.76449 0.0
H1812 H 0.64762 0.68017 0.72894 0.0
H1813 H 0.64428 0.63162 0.75522 0.0
H1814 H 0.66778 0.64765 0.7909 0.0
H1815 H 0.69436 0.7027 0.94613 0.0
H1816 H 0.70255 0.71098 0.89575 0.0
H1817 H 0.67827 0.65589 0.87311 0.0
H1818 H 0.66952 0.64772 0.92272 0.0
H1819 H 0.66906 0.67116 0.83679 0.0
H1820 H 0.72443 0.68461 0.87967 0.0
H1821 H 0.74904 0.69924 0.91389 0.0
H1822 H 0.76076 0.74987 0.88164 0.0
H1823 H 0.73605 0.73554 0.84748 0.0
C1824 C 0.6995 0.68216 0.7147 0.0
C1825 C 0.69801 0.69607 0.70271 0.0
C1826 C 0.70417 0.68282 0.7434 0.0
C1827 C 0.70717 0.69729 0.76036 0.0
C1828 C 0.70859 0.71233 0.7473 0.0
C1829 C 0.70408 0.71176 0.71848 0.0
C1830 C 0.70335 0.69459 0.79126 0.0
C1831 C 0.7168 0.7035 0.81139 0.0
C1832 C 0.68597 0.68293 0.80061 0.0
C1833 C 0.67126 0.67325 0.78017 0.0
C1834 C 0.66538 0.68233 0.76266 0.0
C1835 C 0.65207 0.67315 0.74249 0.0
C1836 C 0.64455 0.6549 0.73971 0.0
C1837 C 0.65015 0.64576 0.75736 0.0
C1838 C 0.66341 0.65487 0.77761 0.0
C1839 C 0.69069 0.69246 0.93019 0.0
C1840 C 0.6811 0.67461 0.93803 0.0
C1841 C 0.6955 0.69716 0.90156 0.0
C1842 C 0.69117 0.68405 0.88069 0.0
C1843 C 0.68166 0.66624 0.88875 0.0
C1844 C 0.67659 0.66158 0.91706 0.0
C1845 C 0.69591 0.68852 0.85017 0.0
C1846 C 0.68247 0.68008 0.82983 0.0
C1847 C 0.71334 0.70038 0.84089 0.0
C1848 C 0.72828 0.70901 0.86124 0.0
C1849 C 0.73218 0.69887 0.88002 0.0
C1850 C 0.74616 0.7071 0.89938 0.0
C1851 C 0.75643 0.72547 0.9 0.0
C1852 C 0.75278 0.73564 0.88117 0.0
C1853 C 0.73879 0.72747 0.8618 0.0
H1854 H 0.76724 0.73183 0.91501 0.0
H1855 H 0.63439 0.64783 0.72392 0.0
H1856 H 0.01176 0.71226 0.28861 0.0
H1857 H 0.00831 0.71521 0.23715 0.0
H1858 H 0.97849 0.65865 0.22915 0.0
H1859 H 0.98203 0.65554 0.28015 0.0
H1860 H 0.01531 0.67972 0.20329 0.0
H1861 H 0.95805 0.67614 0.21081 0.0
H1862 H 0.93808 0.68655 0.22727 0.0
H1863 H 0.97042 0.73633 0.1858 0.0
H1864 H 0.99074 0.72629 0.16944 0.0
H1865 H 0.99314 0.65048 0.06401 0.0
H1866 H 0.99587 0.65768 0.11462 0.0
H1867 H 0.0077 0.71059 0.0943 0.0
H1868 H 0.00436 0.70313 0.04308 0.0
H1869 H 0.98422 0.69803 0.13479 0.0
H1870 H 0.03975 0.70199 0.12292 0.0
H1871 H 0.06137 0.69358 0.10695 0.0
H1872 H 0.03548 0.64642 0.15761 0.0
H1873 H 0.01355 0.6544 0.17358 0.0
C1874 C 0.00389 0.70048 0.27603 0.0
C1875 C 0.9975 0.68367 0.28823 0.0
C1876 C 0.00186 0.70221 0.24674 0.0
C1877 C 0.99332 0.68714 0.22954 0.0
C1878 C 0.98509 0.67041 0.24227 0.0
C1879 C 0.98707 0.66867 0.27148 0.0
C1880 C 0.99646 0.68847 0.19846 0.0
C1881 C 0.00843 0.68359 0.18818 0.0
C1882 C 0.98824 0.69453 0.17925 0.0
C1883 C 0.97605 0.70055 0.18924 0.0
C1884 C 0.96103 0.68938 0.2055 0.0
C1885 C 0.94961 0.6952 0.21473 0.0
C1886 C 0.95301 0.71212 0.20768 0.0
C1887 C 0.96782 0.72324 0.19131 0.0
C1888 C 0.97928 0.71749 0.18203 0.0
C1889 C 0.99684 0.66381 0.07022 0.0
C1890 C 0.99876 0.67632 0.04965 0.0
C1891 C 0.99839 0.66793 0.09922 0.0
C1892 C 0.00229 0.68478 0.10829 0.0
C1893 C 0.00475 0.69752 0.08775 0.0
C1894 C 0.00293 0.6933 0.05859 0.0
C1895 C 0.00247 0.68837 0.13932 0.0
C1896 C 0.99133 0.69438 0.14975 0.0
C1897 C 0.01175 0.68366 0.15889 0.0
C1898 C 0.02494 0.67878 0.14936 0.0
C1899 C 0.03859 0.68977 0.13052 0.0
C1900 C 0.05092 0.68508 0.12149 0.0
C1901 C 0.04979 0.66947 0.13124 0.0
C1902 C 0.03635 0.65852 0.15008 0.0
C1903 C 0.02398 0.66314 0.15918 0.0
H1904 H 0.05935 0.66587 0.12422 0.0
H1905 H 0.94415 0.71659 0.21483 0.0
H1906 H 0.31321 0.01691 0.37091 0.0
H1907 H 0.30429 0.01934 0.42002 0.0
H1908 H 0.31483 0.9785 0.4477 0.0
H1909 H 0.32398 0.97628 0.39917 0.0
H1910 H 0.28185 0.97481 0.46792 0.0
H1911 H 0.34471 0.01741 0.45997 0.0
H1912 H 0.37052 0.04322 0.43888 0.0
H1913 H 0.34754 0.07541 0.45766 0.0
H1914 H 0.32145 0.04968 0.47851 0.0
H1915 H 0.30962 0.97996 0.60963 0.0
H1916 H 0.30104 0.97696 0.5594 0.0
H1917 H 0.29959 0.02543 0.56422 0.0
H1918 H 0.30906 0.029 0.61395 0.0
H1919 H 0.32151 0.02781 0.52493 0.0
H1920 H 0.26231 0.98594 0.54563 0.0
H1921 H 0.23729 0.95996 0.56788 0.0
H1922 H 0.25286 0.92608 0.52651 0.0
H1923 H 0.27814 0.95186 0.50435 0.0
C1924 C 0.31364 0.00855 0.38762 0.0
C1925 C 0.31953 0.99664 0.3816 0.0
C1926 C 0.30848 0.00986 0.41545 0.0
C1927 C 0.30882 0.999 0.43725 0.0
C1928 C 0.31436 0.98688 0.43104 0.0
C1929 C 0.3198 0.9858 0.40349 0.0
C1930 C 0.30458 0.00085 0.46713 0.0
C1931 C 0.29039 0.98638 0.48054 0.0
C1932 C 0.31546 0.01619 0.4831 0.0
C1933 C 0.33103 0.03159 0.47033 0.0
C1934 C 0.34507 0.02995 0.45928 0.0
C1935 C 0.35977 0.04456 0.44745 0.0
C1936 C 0.36063 0.06093 0.44681 0.0
C1937 C 0.34682 0.06271 0.45807 0.0
C1938 C 0.33208 0.04812 0.46988 0.0
C1939 C 0.30713 0.9898 0.60016 0.0
C1940 C 0.31036 0.00487 0.61567 0.0
C1941 C 0.30197 0.98794 0.57151 0.0
C1942 C 0.29969 0.001 0.55802 0.0
C1943 C 0.30129 0.01521 0.57422 0.0
C1944 C 0.3066 0.01715 0.60278 0.0
C1945 C 0.29901 0.00147 0.52636 0.0
C1946 C 0.3124 0.0164 0.51245 0.0
C1947 C 0.28737 0.98651 0.51005 0.0
C1948 C 0.2722 0.97089 0.52338 0.0
C1949 C 0.26049 0.97297 0.54143 0.0
C1950 C 0.24624 0.95826 0.554 0.0
C1951 C 0.2435 0.94138 0.54863 0.0
C1952 C 0.25499 0.93917 0.53064 0.0
C1953 C 0.26927 0.95383 0.51802 0.0
H1954 H 0.23245 0.93002 0.55838 0.0
H1955 H 0.37204 0.07224 0.43768 0.0
H1956 H 0.43304 0.42627 0.08524 0.0
H1957 H 0.46441 0.44834 0.0857 0.0
H1958 H 0.45364 0.48381 0.03702 0.0
H1959 H 0.42228 0.46153 0.03587 0.0
H1960 H 0.48199 0.48467 0.01708 0.0
H1961 H 0.46146 0.48822 0.11112 0.0
H1962 H 0.44699 0.47671 0.15775 0.0
H1963 H 0.48413 0.45977 0.17725 0.0
H1964 H 0.49868 0.47098 0.13056 0.0
H1965 H 0.56204 0.56377 0.0437 0.0
H1966 H 0.53118 0.54046 0.04159 0.0
H1967 H 0.54393 0.50561 0.08779 0.0
H1968 H 0.57485 0.529 0.09022 0.0
H1969 H 0.5149 0.50391 0.10875 0.0
H1970 H 0.53595 0.50131 0.01486 0.0
H1971 H 0.55047 0.51328 0.96843 0.0
H1972 H 0.51236 0.52894 0.94882 0.0
H1973 H 0.49775 0.51727 0.99531 0.0
C1974 C 0.43739 0.43881 0.07474 0.0
C1975 C 0.42526 0.44227 0.06067 0.0
C1976 C 0.4553 0.45142 0.07505 0.0
C1977 C 0.46136 0.46786 0.06183 0.0
C1978 C 0.44927 0.47123 0.0474 0.0
C1979 C 0.43138 0.45852 0.04675 0.0
C1980 C 0.4803 0.48155 0.06295 0.0
C1981 C 0.48913 0.48903 0.03716 0.0
C1982 C 0.48974 0.48695 0.08909 0.0
C1983 C 0.48105 0.48029 0.11723 0.0
C1984 C 0.46646 0.48193 0.12527 0.0
C1985 C 0.45826 0.47547 0.15172 0.0
C1986 C 0.46461 0.46747 0.17042 0.0
C1987 C 0.47921 0.46595 0.16273 0.0
C1988 C 0.48745 0.47236 0.13629 0.0
C1989 C 0.55829 0.55108 0.05315 0.0
C1990 C 0.57086 0.54816 0.06699 0.0
C1991 C 0.54066 0.53777 0.05192 0.0
C1992 C 0.53529 0.5212 0.06416 0.0
C1993 C 0.54779 0.51829 0.07817 0.0
C1994 C 0.56543 0.53165 0.07959 0.0
C1995 C 0.51655 0.50706 0.0629 0.0
C1996 C 0.50777 0.4995 0.08867 0.0
C1997 C 0.50714 0.50164 0.03675 0.0
C1998 C 0.51584 0.50854 0.00868 0.0
C1999 C 0.53074 0.50741 0.00073 0.0
C2000 C 0.53897 0.51413 0.97439 0.0
C2001 C 0.53237 0.5219 0.95571 0.0
C2002 C 0.51748 0.52293 0.96331 0.0
C2003 C 0.5092 0.51625 0.98964 0.0
H2004 H 0.53877 0.52709 0.93533 0.0
H2005 H 0.45824 0.46248 0.19089 0.0
H2006 H 0.01484 0.56569 0.36345 0.0
H2007 H 0.00404 0.53412 0.36401 0.0
H2008 H 0.01113 0.53589 0.45565 0.0
H2009 H 0.02323 0.56771 0.45503 0.0
H2010 H 0.02134 0.51546 0.43379 0.0
H2011 H 0.96959 0.52059 0.4224 0.0
H2012 H 0.95089 0.53092 0.39992 0.0
H2013 H 0.95089 0.50568 0.32106 0.0
H2014 H 0.96979 0.4954 0.34296 0.0
H2015 H 0.96801 0.42355 0.45845 0.0
H2016 H 0.978 0.45509 0.45773 0.0
H2017 H 0.97915 0.45478 0.3654 0.0
H2018 H 0.96962 0.42339 0.36585 0.0
H2019 H 0.9643 0.47407 0.38774 0.0
H2020 H 0.0163 0.46919 0.39994 0.0
H2021 H 0.03446 0.45851 0.42327 0.0
H2022 H 0.03319 0.4831 0.50211 0.0
H2023 H 0.01478 0.49371 0.47935 0.0
C2024 C 0.01442 0.55948 0.38371 0.0
C2025 C 0.0199 0.56934 0.40923 0.0
C2026 C 0.00795 0.54132 0.38404 0.0
C2027 C 0.00639 0.53253 0.40996 0.0
C2028 C 0.01207 0.54234 0.4354 0.0
C2029 C 0.01881 0.56055 0.43504 0.0
C2030 C 0.99899 0.51313 0.41058 0.0
C2031 C 0.00874 0.50643 0.42408 0.0
C2032 C 0.98271 0.5013 0.3974 0.0
C2033 C 0.97123 0.50736 0.38426 0.0
C2034 C 0.96569 0.51734 0.40021 0.0
C2035 C 0.95505 0.52318 0.38758 0.0
C2036 C 0.94974 0.519 0.35906 0.0
C2037 C 0.95503 0.50893 0.34314 0.0
C2038 C 0.96569 0.50308 0.35566 0.0
C2039 C 0.97043 0.43019 0.43798 0.0
C2040 C 0.96809 0.42093 0.41221 0.0
C2041 C 0.97607 0.44818 0.43762 0.0
C2042 C 0.97945 0.45725 0.41152 0.0
C2043 C 0.97656 0.44798 0.38576 0.0
C2044 C 0.97102 0.43001 0.38608 0.0
C2045 C 0.98661 0.47654 0.41107 0.0
C2046 C 0.97685 0.48318 0.39753 0.0
C2047 C 0.0028 0.4883 0.42438 0.0
C2048 C 0.01402 0.48209 0.43802 0.0
C2049 C 0.01978 0.4722 0.42231 0.0
C2050 C 0.03013 0.46618 0.43542 0.0
C2051 C 0.03494 0.47008 0.46418 0.0
C2052 C 0.02944 0.48007 0.47985 0.0
C2053 C 0.01905 0.4861 0.46685 0.0
H2054 H 0.04296 0.46541 0.47429 0.0
H2055 H 0.94151 0.52353 0.34932 0.0
H2056 H 0.53059 0.95543 0.76252 0.0
H2057 H 0.50821 0.96438 0.76448 0.0
H2058 H 0.53734 0.00503 0.70201 0.0
H2059 H 0.55992 0.99644 0.70043 0.0
H2060 H 0.52717 0.01745 0.7467 0.0
H2061 H 0.50031 0.96804 0.68291 0.0
H2062 H 0.48934 0.93739 0.66739 0.0
H2063 H 0.45297 0.91847 0.73786 0.0
H2064 H 0.4639 0.94903 0.75405 0.0
H2065 H 0.46136 0.03812 0.70641 0.0
H2066 H 0.48312 0.02836 0.70654 0.0
H2067 H 0.45381 0.99051 0.77267 0.0
H2068 H 0.4319 0.00015 0.77251 0.0
H2069 H 0.46375 0.97634 0.72773 0.0
H2070 H 0.49039 0.02622 0.79056 0.0
H2071 H 0.50137 0.05702 0.80521 0.0
H2072 H 0.53823 0.07521 0.73541 0.0
H2073 H 0.52729 0.0445 0.72007 0.0
C2074 C 0.53222 0.96629 0.74924 0.0
C2075 C 0.54699 0.9752 0.73126 0.0
C2076 C 0.51938 0.9713 0.75022 0.0
C2077 C 0.52107 0.98529 0.73324 0.0
C2078 C 0.53577 0.99418 0.71524 0.0
C2079 C 0.54858 0.98914 0.71418 0.0
C2080 C 0.50774 0.99099 0.73469 0.0
C2081 C 0.51333 0.00852 0.7422 0.0
C2082 C 0.48964 0.97921 0.72951 0.0
C2083 C 0.48307 0.96081 0.71988 0.0
C2084 C 0.49009 0.95734 0.69526 0.0
C2085 C 0.48386 0.93998 0.68631 0.0
C2086 C 0.47051 0.92599 0.70168 0.0
C2087 C 0.46333 0.92932 0.726 0.0
C2088 C 0.46953 0.94666 0.73507 0.0
C2089 C 0.45955 0.0277 0.72094 0.0
C2090 C 0.44496 0.0199 0.73947 0.0
C2091 C 0.47203 0.02222 0.72111 0.0
C2092 C 0.47011 0.00879 0.73973 0.0
C2093 C 0.45552 0.00092 0.75819 0.0
C2094 C 0.44311 0.00651 0.75822 0.0
C2095 C 0.48321 0.00281 0.73956 0.0
C2096 C 0.47758 0.98524 0.73231 0.0
C2097 C 0.50129 0.01457 0.74487 0.0
C2098 C 0.50789 0.03306 0.75399 0.0
C2099 C 0.50072 0.03679 0.77817 0.0
C2100 C 0.50696 0.05423 0.78663 0.0
C2101 C 0.52045 0.06806 0.77121 0.0
C2102 C 0.52776 0.06448 0.74731 0.0
C2103 C 0.52155 0.04706 0.73874 0.0
H2104 H 0.52528 0.08156 0.7778 0.0
H2105 H 0.46569 0.91256 0.6947 0.0
H2106 H 0.56453 0.56814 0.55074 0.0
H2107 H 0.54211 0.53686 0.55017 0.0
H2108 H 0.52151 0.54314 0.63055 0.0
H2109 H 0.54419 0.57433 0.6315 0.0
H2110 H 0.52345 0.51435 0.63184 0.0
H2111 H 0.50078 0.5397 0.56448 0.0
H2112 H 0.50175 0.55687 0.52195 0.0
H2113 H 0.51028 0.52211 0.46799 0.0
H2114 H 0.50958 0.50487 0.51026 0.0
H2115 H 0.44163 0.43467 0.63106 0.0
H2116 H 0.46494 0.46556 0.63064 0.0
H2117 H 0.4847 0.45708 0.55105 0.0
H2118 H 0.46113 0.42618 0.55114 0.0
H2119 H 0.48373 0.4867 0.54873 0.0
H2120 H 0.50566 0.46092 0.61636 0.0
H2121 H 0.50425 0.44366 0.65902 0.0
H2122 H 0.49679 0.47923 0.71267 0.0
H2123 H 0.49792 0.49657 0.67027 0.0
C2124 C 0.55513 0.56285 0.56816 0.0
C2125 C 0.55605 0.57365 0.59113 0.0
C2126 C 0.54231 0.54499 0.56781 0.0
C2127 C 0.52995 0.53768 0.59013 0.0
C2128 C 0.5309 0.54847 0.61311 0.0
C2129 C 0.54385 0.56627 0.61365 0.0
C2130 C 0.51619 0.51873 0.58983 0.0
C2131 C 0.51462 0.50836 0.6138 0.0
C2132 C 0.50495 0.51078 0.56601 0.0
C2133 C 0.5053 0.5211 0.54057 0.0
C2134 C 0.50298 0.53579 0.54357 0.0
C2135 C 0.50347 0.54553 0.51951 0.0
C2136 C 0.50612 0.54061 0.4923 0.0
C2137 C 0.50825 0.52592 0.48908 0.0
C2138 C 0.50779 0.51615 0.51308 0.0
C2139 C 0.45106 0.43935 0.61363 0.0
C2140 C 0.44964 0.42801 0.59121 0.0
C2141 C 0.46438 0.457 0.61341 0.0
C2142 C 0.47675 0.46359 0.59103 0.0
C2143 C 0.47532 0.45229 0.56856 0.0
C2144 C 0.46187 0.43466 0.56861 0.0
C2145 C 0.49094 0.48236 0.5908 0.0
C2146 C 0.4926 0.49268 0.56673 0.0
C2147 C 0.50224 0.49028 0.61455 0.0
C2148 C 0.50173 0.47996 0.6401 0.0
C2149 C 0.50361 0.465 0.63723 0.0
C2150 C 0.50288 0.45521 0.66137 0.0
C2151 C 0.5004 0.46032 0.68853 0.0
C2152 C 0.4987 0.47527 0.69162 0.0
C2153 C 0.4994 0.4851 0.66755 0.0
H2154 H 0.49983 0.45272 0.70719 0.0
H2155 H 0.50649 0.54816 0.47369 0.0
H2156 H 0.99662 0.56523 0.94684 0.0
H2157 H 0.00659 0.54366 0.94738 0.0
H2158 H 0.96493 0.51067 0.8888 0.0
H2159 H 0.95478 0.53219 0.88835 0.0
H2160 H 0.96797 0.49213 0.93486 0.0
H2161 H 0.00521 0.53359 0.8639 0.0
H2162 H 0.02601 0.563 0.84459 0.0
H2163 H 0.06385 0.56987 0.90912 0.0
H2164 H 0.04316 0.54058 0.9291 0.0
H2165 H -0.00053 0.43492 0.89366 0.0
H2166 H 0.99009 0.45695 0.89267 0.0
H2167 H 0.03145 0.48926 0.95216 0.0
H2168 H 0.04098 0.46725 0.95314 0.0
H2169 H 0.02873 0.50824 0.90585 0.0
H2170 H 0.99166 0.46701 0.97694 0.0
H2171 H 0.97097 0.43766 -0.00343 0.0
H2172 H 0.9329 0.43048 0.93225 0.0
H2173 H 0.95349 0.45971 0.91194 0.0
C2174 C 0.98952 0.55333 0.93421 0.0
C2175 C 0.9749 0.55036 0.91758 0.0
C2176 C 0.99531 0.5411 0.93437 0.0
C2177 C 0.98656 0.52565 0.91797 0.0
C2178 C 0.97187 0.52255 0.90154 0.0
C2179 C 0.96616 0.53487 0.90117 0.0
C2180 C 0.9927 0.51267 0.91823 0.0
C2181 C 0.98116 0.49556 0.92812 0.0
C2182 C 0.01008 0.51734 0.91015 0.0
C2183 C 0.02256 0.53496 0.89818 0.0
C2184 C 0.0179 0.54143 0.87414 0.0
C2185 C 0.02968 0.55807 0.86304 0.0
C2186 C 0.04622 0.56832 0.87567 0.0
C2187 C 0.05102 0.56193 0.89939 0.0
C2188 C 0.03928 0.5453 0.9106 0.0
C2189 C 0.00666 0.44678 0.90635 0.0
C2190 C 0.02096 0.4494 0.92348 0.0
C2191 C 0.00121 0.45928 0.9059 0.0
C2192 C 0.01001 0.47465 0.92249 0.0
C2193 C 0.02449 0.47746 0.93925 0.0
C2194 C 0.02984 0.46486 0.93993 0.0
C2195 C 0.00397 0.4877 0.92239 0.0
C2196 C 0.01554 0.50482 0.91256 0.0
C2197 C 0.98663 0.48305 0.93058 0.0
C2198 C 0.9742 0.46547 0.94273 0.0
C2199 C 0.97894 0.45911 0.9668 0.0
C2200 C 0.96722 0.44251 0.97809 0.0
C2201 C 0.95065 0.43219 0.96561 0.0
C2202 C 0.94576 0.43848 0.94186 0.0
C2203 C 0.95744 0.45507 0.93046 0.0
H2204 H 0.94159 0.41934 0.97439 0.0
H2205 H 0.05532 0.5812 0.86703 0.0
H2206 H 0.56207 0.98884 0.28047 0.0
H2207 H 0.53099 0.98039 0.27702 0.0
H2208 H 0.54577 0.03392 0.25541 0.0
H2209 H 0.57694 0.04259 0.25954 0.0
H2210 H 0.51836 0.01941 0.29338 0.0
H2211 H 0.53341 0.00381 0.20362 0.0
H2212 H 0.54537 0.98975 0.17203 0.0
H2213 H 0.50733 0.93882 0.20448 0.0
H2214 H 0.4953 0.95262 0.2366 0.0
H2215 H 0.43613 0.00201 0.23647 0.0
H2216 H 0.46732 0.0108 0.24045 0.0
H2217 H 0.45295 0.95772 0.26444 0.0
H2218 H 0.4217 0.94876 0.26008 0.0
H2219 H 0.48017 0.97218 0.22509 0.0
H2220 H 0.46515 0.98804 0.3149 0.0
H2221 H 0.45321 0.00229 0.34611 0.0
H2222 H 0.49124 0.05302 0.31298 0.0
H2223 H 0.50325 0.03903 0.28123 0.0
C2224 C 0.55871 0.99888 0.27541 0.0
C2225 C 0.57195 0.01637 0.27016 0.0
C2226 C 0.54095 0.99399 0.27319 0.0
C2227 C 0.5361 0.00649 0.26557 0.0
C2228 C 0.54926 0.02407 0.26118 0.0
C2229 C 0.56704 0.02896 0.26334 0.0
C2230 C 0.5173 0.0011 0.26156 0.0
C2231 C 0.51006 0.00925 0.27819 0.0
C2232 C 0.50642 0.98761 0.2421 0.0
C2233 C 0.51357 0.97926 0.22272 0.0
C2234 C 0.52768 0.98963 0.20419 0.0
C2235 C 0.53446 0.9817 0.18616 0.0
C2236 C 0.52715 0.96341 0.1863 0.0
C2237 C 0.513 0.95299 0.20443 0.0
C2238 C 0.50619 0.96086 0.22253 0.0
C2239 C 0.43962 0.99216 0.24221 0.0
C2240 C 0.4265 0.9747 0.24802 0.0
C2241 C 0.45742 0.99723 0.24471 0.0
C2242 C 0.4624 0.98494 0.25305 0.0
C2243 C 0.44935 0.9674 0.25808 0.0
C2244 C 0.43154 0.96233 0.25575 0.0
C2245 C 0.48123 0.99047 0.25694 0.0
C2246 C 0.48848 0.98234 0.24027 0.0
C2247 C 0.49211 0.00401 0.27631 0.0
C2248 C 0.48498 0.01247 0.29548 0.0
C2249 C 0.47087 0.00222 0.31409 0.0
C2250 C 0.46411 0.01025 0.33191 0.0
C2251 C 0.47143 0.02855 0.33147 0.0
C2252 C 0.48557 0.03885 0.31326 0.0
C2253 C 0.49237 0.03088 0.29537 0.0
H2254 H 0.46618 0.03474 0.34529 0.0
H2255 H 0.53241 0.9573 0.17232 0.0
loop_
_geom_bond_atom_site_label_1
_geom_bond_atom_site_label_2
_geom_bond_distance
_geom_bond_site_symmetry_2
_ccdc_geom_bond_type
Li0 N17 1.990 . S
Li0 O60 1.956 . S
Li0 O61 1.970 . S
Li0 O62 1.961 . S
Li1 N25 1.990 . S
Li1 O60 1.970 . S
Li1 O61 1.956 . S
Li1 O63 1.961 . S
Li2 N47 1.990 . S
Li2 O60 1.961 . S
Li2 O62 1.956 . S
Li2 O63 1.970 . S
Li3 N53 1.990 . S
Li3 O61 1.961 . S
Li3 O62 1.970 . S
Li3 O63 1.956 . S
C4 C6 1.348 . S
C4 C7 1.356 . S
C4 O60 1.325 . S
N5 C8 1.314 . S
N5 C9 1.279 . S
C6 C4 1.348 . S
C6 C8 1.353 . S
C6 H64 0.929 . S
C7 C4 1.356 . S
C7 C9 1.358 . S
C7 H65 0.930 . S
C8 N5 1.314 . S
C8 C6 1.353 . S
C8 H66 0.930 . S
C9 N5 1.279 . S
C9 C7 1.358 . S
C9 H67 0.930 . S
C10 C13 1.348 . S
C10 C14 1.356 . S
C10 O61 1.325 . S
C11 N12 1.279 . S
C11 C14 1.358 . S
C11 H68 0.930 . S
N12 C11 1.279 . S
N12 C15 1.314 . S
C13 C10 1.348 . S
C13 C15 1.353 . S
C13 H69 0.929 . S
C14 C10 1.356 . S
C14 C11 1.358 . S
C14 H70 0.930 . S
C15 N12 1.314 . S
C15 C13 1.353 . S
C15 H71 0.930 . S
C16 N17 1.314 . S
C16 C21 1.353 . S
C16 H22 0.930 . S
N17 Li0 1.990 . S
N17 C16 1.314 . S
N17 C19 1.279 . S
C18 C19 1.358 . S
C18 C20 1.356 . S
C18 H72 0.930 . S
C19 N17 1.279 . S
C19 C18 1.358 . S
C19 H23 0.930 . S
C20 C18 1.356 . S
C20 C21 1.348 . S
C21 C16 1.353 . S
C21 C20 1.348 . S
C21 H73 0.929 . S
H22 C16 0.930 . S
H23 C19 0.930 . S
C24 N25 1.314 . S
C24 C26 1.353 . S
C24 H30 0.930 . S
N25 Li1 1.990 . S
N25 C24 1.314 . S
N25 C28 1.279 . S
C26 C24 1.353 . S
C26 C29 1.348 . S
C26 H74 0.929 . S
C27 C28 1.358 . S
C27 C29 1.356 . S
C27 H75 0.930 . S
C28 N25 1.279 . S
C28 C27 1.358 . S
C28 H31 0.930 . S
C29 C26 1.348 . S
C29 C27 1.356 . S
H30 C24 0.930 . S
H31 C28 0.930 . S
C32 C34 1.348 1_554 S
C32 C35 1.356 . S
C32 O62 1.325 . S
N33 C36 1.314 . S
N33 C37 1.279 . S
C34 C32 1.348 1_556 S
C34 C36 1.353 . S
C34 H76 0.929 . S
C35 C32 1.356 . S
C35 C37 1.358 1_554 S
C35 H77 0.930 . S
C36 N33 1.314 . S
C36 C34 1.353 . S
C36 H78 0.930 . S
C37 N33 1.279 . S
C37 C35 1.358 1_556 S
C37 H79 0.930 . S
C38 C39 1.348 . S
C38 C40 1.356 . S
C38 O63 1.325 . S
C39 C38 1.348 . S
C39 C41 1.353 . S
C39 H80 0.929 . S
C40 C38 1.356 . S
C40 C42 1.358 . S
C40 H81 0.930 . S
C41 C39 1.353 . S
C41 N43 1.314 . S
C41 H82 0.930 . S
C42 C40 1.358 . S
C42 N43 1.279 . S
C42 H83 0.930 . S
N43 C41 1.314 . S
N43 C42 1.279 . S
C44 C46 1.353 . S
C44 N47 1.314 . S
C44 H50 0.930 . S
C45 N47 1.279 . S
C45 C48 1.358 . S
C45 H51 0.930 . S
C46 C44 1.353 . S
C46 C49 1.348 . S
C46 H84 0.929 . S
N47 Li2 1.990 . S
N47 C44 1.314 . S
N47 C45 1.279 . S
C48 C45 1.358 . S
C48 C49 1.356 . S
C48 H85 0.930 . S
C49 C46 1.348 . S
C49 C48 1.356 . S
H50 C44 0.930 . S
H51 C45 0.930 . S
C52 N53 1.314 1_556 S
C52 C54 1.353 . S
C52 H58 0.930 . S
N53 Li3 1.990 . S
N53 C52 1.314 1_554 S
N53 C56 1.279 1_554 S
C54 C52 1.353 . S
C54 C57 1.348 . S
C54 H86 0.929 . S
C55 C56 1.358 . S
C55 C57 1.356 . S
C55 H87 0.930 . S
C56 N53 1.279 1_556 S
C56 C55 1.358 . S
C56 H59 0.930 1_556 S
C57 C54 1.348 . S
C57 C55 1.356 . S
H58 C52 0.930 . S
H59 C56 0.930 1_554 S
O60 Li0 1.956 . S
O60 Li1 1.970 . S
O60 Li2 1.961 . S
O60 C4 1.325 . S
O61 Li0 1.970 . S
O61 Li1 1.956 . S
O61 Li3 1.961 . S
O61 C10 1.325 . S
O62 Li0 1.961 . S
O62 Li2 1.956 . S
O62 Li3 1.970 . S
O62 C32 1.325 . S
O63 Li1 1.961 . S
O63 Li2 1.970 . S
O63 Li3 1.956 . S
O63 C38 1.325 . S
H64 C6 0.929 . S
H65 C7 0.930 . S
H66 C8 0.930 . S
H67 C9 0.930 . S
H68 C11 0.930 . S
H69 C13 0.929 . S
H70 C14 0.930 . S
H71 C15 0.930 . S
H72 C18 0.930 . S
H73 C21 0.929 . S
H74 C26 0.929 . S
H75 C27 0.930 . S
H76 C34 0.929 . S
H77 C35 0.930 . S
H78 C36 0.930 . S
H79 C37 0.930 . S
H80 C39 0.929 . S
H81 C40 0.930 . S
H82 C41 0.930 . S
H83 C42 0.930 . S
H84 C46 0.929 . S
H85 C48 0.930 . S
H86 C54 0.929 . S
H87 C55 0.930 . S
Li88 N105 1.990 . S
Li88 O148 1.956 . S
Li88 O149 1.970 . S
Li88 O150 1.961 . S
Li89 N113 1.990 . S
Li89 O148 1.970 . S
Li89 O149 1.956 . S
Li89 O151 1.961 . S
Li90 N135 1.990 . S
Li90 O148 1.961 . S
Li90 O150 1.956 . S
Li90 O151 1.970 . S
Li91 N141 1.990 . S
Li91 O149 1.961 . S
Li91 O150 1.970 . S
Li91 O151 1.956 . S
C92 C94 1.348 . S
C92 C95 1.356 . S
C92 O148 1.325 . S
N93 C96 1.314 . S
N93 C97 1.279 . S
C94 C92 1.348 . S
C94 C96 1.353 . S
C94 H152 0.929 . S
C95 C92 1.356 . S
C95 C97 1.358 . S
C95 H153 0.930 . S
C96 N93 1.314 . S
C96 C94 1.353 . S
C96 H154 0.930 . S
C97 N93 1.279 . S
C97 C95 1.358 . S
C97 H155 0.930 . S
C98 C101 1.348 . S
C98 C102 1.356 . S
C98 O149 1.325 . S
C99 N100 1.279 . S
C99 C102 1.358 . S
C99 H156 0.930 . S
N100 C99 1.279 . S
N100 C103 1.314 . S
C101 C98 1.348 . S
C101 C103 1.353 . S
C101 H157 0.929 . S
C102 C98 1.356 . S
C102 C99 1.358 . S
C102 H158 0.930 . S
C103 N100 1.314 . S
C103 C101 1.353 . S
C103 H159 0.930 . S
C104 N105 1.314 . S
C104 C109 1.353 . S
C104 H110 0.930 . S
N105 Li88 1.990 . S
N105 C104 1.314 . S
N105 C107 1.279 . S
C106 C107 1.358 . S
C106 C108 1.356 . S
C106 H160 0.930 . S
C107 N105 1.279 . S
C107 C106 1.358 . S
C107 H111 0.930 . S
C108 C106 1.356 . S
C108 C109 1.348 . S
C109 C104 1.353 . S
C109 C108 1.348 . S
C109 H161 0.929 1_655 S
H110 C104 0.930 . S
H111 C107 0.930 . S
C112 N113 1.314 . S
C112 C114 1.353 . S
C112 H118 0.930 . S
N113 Li89 1.990 . S
N113 C112 1.314 . S
N113 C116 1.279 . S
C114 C112 1.353 . S
C114 C117 1.348 . S
C114 H162 0.929 . S
C115 C116 1.358 . S
C115 C117 1.356 . S
C115 H163 0.930 . S
C116 N113 1.279 . S
C116 C115 1.358 . S
C116 H119 0.930 . S
C117 C114 1.348 . S
C117 C115 1.356 . S
H118 C112 0.930 . S
H119 C116 0.930 . S
C120 C122 1.363 1_655 S
C120 C123 1.356 1_655 S
C120 O150 1.325 . S
N121 C124 1.314 . S
N121 C125 1.279 . S
C122 C120 1.363 1_455 S
C122 C124 1.395 . S
C122 H164 0.875 1_455 S
C123 C120 1.356 1_455 S
C123 C125 1.358 . S
C123 H165 0.930 . S
C124 N121 1.314 . S
C124 C122 1.395 . S
C124 H166 0.930 . S
C125 N121 1.279 . S
C125 C123 1.358 . S
C125 H167 0.930 . S
C126 C127 1.348 . S
C126 C128 1.356 . S
C126 O151 1.325 . S
C127 C126 1.348 . S
C127 C129 1.353 . S
C127 H168 0.929 . S
C128 C126 1.356 . S
C128 C130 1.358 . S
C128 H169 0.930 . S
C129 C127 1.353 . S
C129 N131 1.314 . S
C129 H170 0.930 . S
C130 C128 1.358 . S
C130 N131 1.279 . S
C130 H171 0.930 . S
N131 C129 1.314 . S
N131 C130 1.279 . S
C132 C134 1.353 . S
C132 N135 1.314 . S
C132 H138 0.930 . S
C133 N135 1.239 1_455 S
C133 C136 1.406 . S
C133 H139 0.928 . S
C134 C132 1.353 . S
C134 C137 1.348 1_655 S
C134 H172 0.929 . S
N135 Li90 1.990 . S
N135 C132 1.314 . S
N135 C133 1.239 1_655 S
C136 C133 1.406 . S
C136 C137 1.356 . S
C136 H173 0.930 . S
C137 C134 1.348 1_455 S
C137 C136 1.356 . S
H138 C132 0.930 . S
H139 C133 0.928 . S
C140 N141 1.314 . S
C140 C142 1.353 . S
C140 H146 0.930 . S
N141 Li91 1.990 . S
N141 C140 1.314 . S
N141 C144 1.279 . S
C142 C140 1.353 . S
C142 C145 1.348 . S
C142 H174 0.929 . S
C143 C144 1.358 . S
C143 C145 1.356 . S
C143 H175 0.930 . S
C144 N141 1.279 . S
C144 C143 1.358 . S
C144 H147 0.930 . S
C145 C142 1.348 . S
C145 C143 1.356 . S
H146 C140 0.930 . S
H147 C144 0.930 . S
O148 Li88 1.956 . S
O148 Li89 1.970 . S
O148 Li90 1.961 . S
O148 C92 1.325 . S
O149 Li88 1.970 . S
O149 Li89 1.956 . S
O149 Li91 1.961 . S
O149 C98 1.325 . S
O150 Li88 1.961 . S
O150 Li90 1.956 . S
O150 Li91 1.970 . S
O150 C120 1.325 . S
O151 Li89 1.961 . S
O151 Li90 1.970 . S
O151 Li91 1.956 . S
O151 C126 1.325 . S
H152 C94 0.929 . S
H153 C95 0.930 . S
H154 C96 0.930 . S
H155 C97 0.930 . S
H156 C99 0.930 . S
H157 C101 0.929 . S
H158 C102 0.930 . S
H159 C103 0.930 . S
H160 C106 0.930 . S
H161 C109 0.929 1_455 S
H162 C114 0.929 . S
H163 C115 0.930 . S
H164 C122 0.875 1_655 S
H165 C123 0.930 . S
H166 C124 0.930 . S
H167 C125 0.930 . S
H168 C127 0.929 . S
H169 C128 0.930 . S
H170 C129 0.930 . S
H171 C130 0.930 . S
H172 C134 0.929 . S
H173 C136 0.930 . S
H174 C142 0.929 . S
H175 C143 0.930 . S
Li176 N193 1.990 . S
Li176 O236 1.956 . S
Li176 O237 1.970 . S
Li176 O238 1.961 . S
Li177 N201 1.990 . S
Li177 O236 1.970 . S
Li177 O237 1.956 . S
Li177 O239 1.961 . S
Li178 N223 1.990 . S
Li178 O236 1.961 . S
Li178 O238 1.956 . S
Li178 O239 1.970 . S
Li179 N229 1.990 . S
Li179 O237 1.961 . S
Li179 O238 1.970 . S
Li179 O239 1.956 . S
C180 C182 1.348 . S
C180 C183 1.356 . S
C180 O236 1.325 . S
N181 C184 1.314 . S
N181 C185 1.279 . S
C182 C180 1.348 . S
C182 C184 1.353 . S
C182 H240 0.929 . S
C183 C180 1.356 . S
C183 C185 1.358 . S
C183 H241 0.930 . S
C184 N181 1.314 . S
C184 C182 1.353 . S
C184 H242 0.930 . S
C185 N181 1.279 . S
C185 C183 1.358 . S
C185 H243 0.930 . S
C186 C189 1.348 . S
C186 C190 1.356 . S
C186 O237 1.325 . S
C187 N188 1.279 . S
C187 C190 1.358 . S
C187 H244 0.930 . S
N188 C187 1.279 . S
N188 C191 1.314 . S
C189 C186 1.348 . S
C189 C191 1.353 . S
C189 H245 0.929 . S
C190 C186 1.356 . S
C190 C187 1.358 . S
C190 H246 0.930 . S
C191 N188 1.314 . S
C191 C189 1.353 . S
C191 H247 0.930 . S
C192 N193 1.314 . S
C192 C197 1.353 . S
C192 H198 0.930 . S
N193 Li176 1.990 . S
N193 C192 1.314 . S
N193 C195 1.279 . S
C194 C195 1.358 . S
C194 C196 1.356 . S
C194 H248 0.930 . S
C195 N193 1.279 . S
C195 C194 1.358 . S
C195 H199 0.930 . S
C196 C194 1.356 . S
C196 C197 1.348 . S
C197 C192 1.353 . S
C197 C196 1.348 . S
C197 H249 0.929 1_565 S
H198 C192 0.930 . S
H199 C195 0.930 . S
C200 N201 1.314 . S
C200 C202 1.353 . S
C200 H206 0.930 . S
N201 Li177 1.990 . S
N201 C200 1.314 . S
N201 C204 1.279 . S
C202 C200 1.353 . S
C202 C205 1.348 . S
C202 H250 0.929 . S
C203 C204 1.358 . S
C203 C205 1.356 . S
C203 H251 0.930 . S
C204 N201 1.279 . S
C204 C203 1.358 . S
C204 H207 0.930 . S
C205 C202 1.348 . S
C205 C203 1.356 . S
H206 C200 0.930 . S
H207 C204 0.930 . S
C208 C210 1.307 1_565 S
C208 C211 1.356 1_565 S
C208 O238 1.325 . S
N209 C212 1.314 . S
N209 C213 1.279 . S
C210 C208 1.307 1_545 S
C210 C212 1.411 . S
C210 H252 0.915 1_545 S
C211 C208 1.356 1_545 S
C211 C213 1.358 . S
C211 H253 0.930 . S
C212 N209 1.314 . S
C212 C210 1.411 . S
C212 H254 0.930 . S
C213 N209 1.279 . S
C213 C211 1.358 . S
C213 H255 0.930 . S
C214 C215 1.348 . S
C214 C216 1.356 . S
C214 O239 1.325 . S
C215 C214 1.348 . S
C215 C217 1.353 . S
C215 H256 0.929 . S
C216 C214 1.356 . S
C216 C218 1.358 . S
C216 H257 0.930 . S
C217 C215 1.353 . S
C217 N219 1.314 . S
C217 H258 0.930 . S
C218 C216 1.358 . S
C218 N219 1.279 . S
C218 H259 0.930 . S
N219 C217 1.314 . S
N219 C218 1.279 . S
C220 C222 1.353 . S
C220 N223 1.314 . S
C220 H226 0.930 . S
C221 N223 1.209 1_545 S
C221 C224 1.385 . S
C221 H227 0.982 . S
C222 C220 1.353 . S
C222 C225 1.348 1_565 S
C222 H260 0.929 . S
N223 Li178 1.990 . S
N223 C220 1.314 . S
N223 C221 1.209 1_565 S
C224 C221 1.385 . S
C224 C225 1.356 . S
C224 H261 0.930 . S
C225 C222 1.348 1_545 S
C225 C224 1.356 . S
H226 C220 0.930 . S
H227 C221 0.982 . S
C228 N229 1.314 . S
C228 C230 1.353 . S
C228 H234 0.930 . S
N229 Li179 1.990 . S
N229 C228 1.314 . S
N229 C232 1.279 . S
C230 C228 1.353 . S
C230 C233 1.348 . S
C230 H262 0.929 . S
C231 C232 1.358 . S
C231 C233 1.356 . S
C231 H263 0.930 . S
C232 N229 1.279 . S
C232 C231 1.358 . S
C232 H235 0.930 . S
C233 C230 1.348 . S
C233 C231 1.356 . S
H234 C228 0.930 . S
H235 C232 0.930 . S
O236 Li176 1.956 . S
O236 Li177 1.970 . S
O236 Li178 1.961 . S
O236 C180 1.325 . S
O237 Li176 1.970 . S
O237 Li177 1.956 . S
O237 Li179 1.961 . S
O237 C186 1.325 . S
O238 Li176 1.961 . S
O238 Li178 1.956 . S
O238 Li179 1.970 . S
O238 C208 1.325 . S
O239 Li177 1.961 . S
O239 Li178 1.970 . S
O239 Li179 1.956 . S
O239 C214 1.325 . S
H240 C182 0.929 . S
H241 C183 0.930 . S
H242 C184 0.930 . S
H243 C185 0.930 . S
H244 C187 0.930 . S
H245 C189 0.929 . S
H246 C190 0.930 . S
H247 C191 0.930 . S
H248 C194 0.930 . S
H249 C197 0.929 1_545 S
H250 C202 0.929 . S
H251 C203 0.930 . S
H252 C210 0.915 1_565 S
H253 C211 0.930 . S
H254 C212 0.930 . S
H255 C213 0.930 . S
H256 C215 0.929 . S
H257 C216 0.930 . S
H258 C217 0.930 . S
H259 C218 0.930 . S
H260 C222 0.929 . S
H261 C224 0.930 . S
H262 C230 0.929 . S
H263 C231 0.930 . S
Li264 N281 1.990 . S
Li264 O324 1.956 . S
Li264 O325 1.970 . S
Li264 O326 1.961 . S
Li265 N289 1.990 . S
Li265 O324 1.970 . S
Li265 O325 1.956 . S
Li265 O327 1.961 . S
Li266 N311 1.990 . S
Li266 O324 1.961 . S
Li266 O326 1.956 . S
Li266 O327 1.970 . S
Li267 N317 1.990 . S
Li267 O325 1.961 . S
Li267 O326 1.970 . S
Li267 O327 1.956 . S
C268 C270 1.348 . S
C268 C271 1.356 . S
C268 O324 1.325 . S
N269 C272 1.314 . S
N269 C273 1.279 . S
C270 C268 1.348 . S
C270 C272 1.353 . S
C270 H328 0.929 . S
C271 C268 1.356 . S
C271 C273 1.358 . S
C271 H329 0.930 . S
C272 N269 1.314 . S
C272 C270 1.353 . S
C272 H330 0.930 . S
C273 N269 1.279 . S
C273 C271 1.358 . S
C273 H331 0.930 . S
C274 C277 1.348 . S
C274 C278 1.356 . S
C274 O325 1.325 . S
C275 N276 1.279 . S
C275 C278 1.358 . S
C275 H332 0.930 . S
N276 C275 1.279 . S
N276 C279 1.314 . S
C277 C274 1.348 . S
C277 C279 1.353 . S
C277 H333 0.929 . S
C278 C274 1.356 . S
C278 C275 1.358 . S
C278 H334 0.930 . S
C279 N276 1.314 . S
C279 C277 1.353 . S
C279 H335 0.930 . S
C280 N281 1.314 . S
C280 C285 1.353 . S
C280 H286 0.930 . S
N281 Li264 1.990 . S
N281 C280 1.314 . S
N281 C283 1.279 . S
C282 C283 1.358 . S
C282 C284 1.356 . S
C282 H336 0.930 . S
C283 N281 1.279 . S
C283 C282 1.358 . S
C283 H287 0.930 . S
C284 C282 1.356 . S
C284 C285 1.348 . S
C285 C280 1.353 . S
C285 C284 1.348 . S
C285 H337 0.929 . S
H286 C280 0.930 . S
H287 C283 0.930 . S
C288 N289 1.314 . S
C288 C290 1.353 . S
C288 H294 0.930 . S
N289 Li265 1.990 . S
N289 C288 1.314 . S
N289 C292 1.279 . S
C290 C288 1.353 . S
C290 C293 1.348 . S
C290 H338 0.929 . S
C291 C292 1.358 . S
C291 C293 1.356 . S
C291 H339 0.930 . S
C292 N289 1.279 . S
C292 C291 1.358 . S
C292 H295 0.930 . S
C293 C290 1.348 . S
C293 C291 1.356 . S
H294 C288 0.930 . S
H295 C292 0.930 . S
C296 C298 1.348 . S
C296 C299 1.356 . S
C296 O326 1.325 . S
N297 C300 1.314 . S
N297 C301 1.279 . S
C298 C296 1.348 . S
C298 C300 1.353 . S
C298 H340 0.929 . S
C299 C296 1.356 . S
C299 C301 1.358 . S
C299 H341 0.930 . S
C300 N297 1.314 . S
C300 C298 1.353 . S
C300 H342 0.930 . S
C301 N297 1.279 . S
C301 C299 1.358 . S
C301 H343 0.930 . S
C302 C303 1.348 1_554 S
C302 C304 1.356 . S
C302 O327 1.325 . S
C303 C302 1.348 1_556 S
C303 C305 1.353 . S
C303 H344 0.929 . S
C304 C302 1.356 . S
C304 C306 1.358 1_554 S
C304 H345 0.930 . S
C305 C303 1.353 . S
C305 N307 1.314 . S
C305 H346 0.930 . S
C306 C304 1.358 1_556 S
C306 N307 1.279 . S
C306 H347 0.930 . S
N307 C305 1.314 . S
N307 C306 1.279 . S
C308 C310 1.353 . S
C308 N311 1.314 1_556 S
C308 H314 0.930 . S
C309 N311 1.279 1_556 S
C309 C312 1.358 . S
C309 H315 0.930 1_556 S
C310 C308 1.353 . S
C310 C313 1.348 . S
C310 H348 0.929 . S
N311 Li266 1.990 . S
N311 C308 1.314 1_554 S
N311 C309 1.279 1_554 S
C312 C309 1.358 . S
C312 C313 1.356 . S
C312 H349 0.930 . S
C313 C310 1.348 . S
C313 C312 1.356 . S
H314 C308 0.930 . S
H315 C309 0.930 1_554 S
C316 N317 1.314 . S
C316 C318 1.353 . S
C316 H322 0.930 . S
N317 Li267 1.990 . S
N317 C316 1.314 . S
N317 C320 1.279 . S
C318 C316 1.353 . S
C318 C321 1.348 . S
C318 H350 0.929 . S
C319 C320 1.358 . S
C319 C321 1.356 . S
C319 H351 0.930 . S
C320 N317 1.279 . S
C320 C319 1.358 . S
C320 H323 0.930 . S
C321 C318 1.348 . S
C321 C319 1.356 . S
H322 C316 0.930 . S
H323 C320 0.930 . S
O324 Li264 1.956 . S
O324 Li265 1.970 . S
O324 Li266 1.961 . S
O324 C268 1.325 . S
O325 Li264 1.970 . S
O325 Li265 1.956 . S
O325 Li267 1.961 . S
O325 C274 1.325 . S
O326 Li264 1.961 . S
O326 Li266 1.956 . S
O326 Li267 1.970 . S
O326 C296 1.325 . S
O327 Li265 1.961 . S
O327 Li266 1.970 . S
O327 Li267 1.956 . S
O327 C302 1.325 . S
H328 C270 0.929 . S
H329 C271 0.930 . S
H330 C272 0.930 . S
H331 C273 0.930 . S
H332 C275 0.930 . S
H333 C277 0.929 . S
H334 C278 0.930 . S
H335 C279 0.930 . S
H336 C282 0.930 . S
H337 C285 0.929 . S
H338 C290 0.929 . S
H339 C291 0.930 . S
H340 C298 0.929 . S
H341 C299 0.930 . S
H342 C300 0.930 . S
H343 C301 0.930 . S
H344 C303 0.929 . S
H345 C304 0.930 . S
H346 C305 0.930 . S
H347 C306 0.930 . S
H348 C310 0.929 . S
H349 C312 0.930 . S
H350 C318 0.929 . S
H351 C319 0.930 . S
Li352 N369 1.990 . S
Li352 O412 1.956 . S
Li352 O413 1.970 . S
Li352 O414 1.961 . S
Li353 N377 1.990 . S
Li353 O412 1.970 . S
Li353 O413 1.956 . S
Li353 O415 1.961 . S
Li354 N399 1.990 . S
Li354 O412 1.961 . S
Li354 O414 1.956 . S
Li354 O415 1.970 . S
Li355 N405 1.990 . S
Li355 O413 1.961 . S
Li355 O414 1.970 . S
Li355 O415 1.956 . S
C356 C358 1.348 . S
C356 C359 1.356 . S
C356 O412 1.325 . S
N357 C360 1.314 . S
N357 C361 1.279 . S
C358 C356 1.348 . S
C358 C360 1.353 . S
C358 H416 0.929 . S
C359 C356 1.356 . S
C359 C361 1.358 . S
C359 H417 0.930 . S
C360 N357 1.314 . S
C360 C358 1.353 . S
C360 H418 0.930 . S
C361 N357 1.279 . S
C361 C359 1.358 . S
C361 H419 0.930 . S
C362 C365 1.348 . S
C362 C366 1.356 . S
C362 O413 1.325 . S
C363 N364 1.279 . S
C363 C366 1.358 . S
C363 H420 0.930 . S
N364 C363 1.279 . S
N364 C367 1.314 . S
C365 C362 1.348 . S
C365 C367 1.353 . S
C365 H421 0.929 . S
C366 C362 1.356 . S
C366 C363 1.358 . S
C366 H422 0.930 . S
C367 N364 1.314 . S
C367 C365 1.353 . S
C367 H423 0.930 . S
C368 N369 1.314 . S
C368 C373 1.353 . S
C368 H374 0.930 . S
N369 Li352 1.990 . S
N369 C368 1.314 . S
N369 C371 1.279 . S
C370 C371 1.358 . S
C370 C372 1.356 . S
C370 H424 0.930 . S
C371 N369 1.279 . S
C371 C370 1.358 . S
C371 H375 0.930 . S
C372 C370 1.356 . S
C372 C373 1.348 . S
C373 C368 1.353 . S
C373 C372 1.348 . S
C373 H425 0.929 . S
H374 C368 0.930 . S
H375 C371 0.930 . S
C376 N377 1.314 . S
C376 C378 1.353 . S
C376 H382 0.930 . S
N377 Li353 1.990 . S
N377 C376 1.314 . S
N377 C380 1.279 . S
C378 C376 1.353 . S
C378 C381 1.348 . S
C378 H426 0.929 1_455 S
C379 C380 1.358 . S
C379 C381 1.356 . S
C379 H427 0.930 . S
C380 N377 1.279 . S
C380 C379 1.358 . S
C380 H383 0.930 . S
C381 C378 1.348 . S
C381 C379 1.356 . S
H382 C376 0.930 . S
H383 C380 0.930 . S
C384 C386 1.348 . S
C384 C387 1.356 . S
C384 O414 1.325 . S
N385 C388 1.314 . S
N385 C389 1.279 . S
C386 C384 1.348 . S
C386 C388 1.353 . S
C386 H428 0.929 . S
C387 C384 1.356 . S
C387 C389 1.358 . S
C387 H429 0.930 . S
C388 N385 1.314 . S
C388 C386 1.353 . S
C388 H430 0.930 . S
C389 N385 1.279 . S
C389 C387 1.358 . S
C389 H431 0.930 . S
C390 C391 1.363 1_455 S
C390 C392 1.356 1_455 S
C390 O415 1.325 . S
C391 C390 1.363 1_655 S
C391 C393 1.395 . S
C391 H432 0.875 1_655 S
C392 C390 1.356 1_655 S
C392 C394 1.358 . S
C392 H433 0.930 . S
C393 C391 1.395 . S
C393 N395 1.314 . S
C393 H434 0.930 . S
C394 C392 1.358 . S
C394 N395 1.279 . S
C394 H435 0.930 . S
N395 C393 1.314 . S
N395 C394 1.279 . S
C396 C398 1.353 . S
C396 N399 1.314 . S
C396 H402 0.930 . S
C397 N399 1.279 . S
C397 C400 1.358 . S
C397 H403 0.930 . S
C398 C396 1.353 . S
C398 C401 1.348 . S
C398 H436 0.929 . S
N399 Li354 1.990 . S
N399 C396 1.314 . S
N399 C397 1.279 . S
C400 C397 1.358 . S
C400 C401 1.356 . S
C400 H437 0.930 . S
C401 C398 1.348 . S
C401 C400 1.356 . S
H402 C396 0.930 . S
H403 C397 0.930 . S
C404 N405 1.314 . S
C404 C406 1.353 . S
C404 H410 0.930 . S
N405 Li355 1.990 . S
N405 C404 1.314 . S
N405 C408 1.239 1_455 S
C406 C404 1.353 . S
C406 C409 1.348 1_455 S
C406 H438 0.929 . S
C407 C408 1.406 . S
C407 C409 1.356 . S
C407 H439 0.930 . S
C408 N405 1.239 1_655 S
C408 C407 1.406 . S
C408 H411 0.928 . S
C409 C406 1.348 1_655 S
C409 C407 1.356 . S
H410 C404 0.930 . S
H411 C408 0.928 . S
O412 Li352 1.956 . S
O412 Li353 1.970 . S
O412 Li354 1.961 . S
O412 C356 1.325 . S
O413 Li352 1.970 . S
O413 Li353 1.956 . S
O413 Li355 1.961 . S
O413 C362 1.325 . S
O414 Li352 1.961 . S
O414 Li354 1.956 . S
O414 Li355 1.970 . S
O414 C384 1.325 . S
O415 Li353 1.961 . S
O415 Li354 1.970 . S
O415 Li355 1.956 . S
O415 C390 1.325 . S
H416 C358 0.929 . S
H417 C359 0.930 . S
H418 C360 0.930 . S
H419 C361 0.930 . S
H420 C363 0.930 . S
H421 C365 0.929 . S
H422 C366 0.930 . S
H423 C367 0.930 . S
H424 C370 0.930 . S
H425 C373 0.929 . S
H426 C378 0.929 1_655 S
H427 C379 0.930 . S
H428 C386 0.929 . S
H429 C387 0.930 . S
H430 C388 0.930 . S
H431 C389 0.930 . S
H432 C391 0.875 1_455 S
H433 C392 0.930 . S
H434 C393 0.930 . S
H435 C394 0.930 . S
H436 C398 0.929 . S
H437 C400 0.930 . S
H438 C406 0.929 . S
H439 C407 0.930 . S
Li440 N457 1.990 . S
Li440 O500 1.956 . S
Li440 O501 1.970 . S
Li440 O502 1.961 . S
Li441 N465 1.990 . S
Li441 O500 1.970 . S
Li441 O501 1.956 . S
Li441 O503 1.961 . S
Li442 N487 1.990 . S
Li442 O500 1.961 . S
Li442 O502 1.956 . S
Li442 O503 1.970 . S
Li443 N493 1.990 . S
Li443 O501 1.961 . S
Li443 O502 1.970 . S
Li443 O503 1.956 . S
C444 C446 1.348 . S
C444 C447 1.356 . S
C444 O500 1.325 . S
N445 C448 1.314 . S
N445 C449 1.279 . S
C446 C444 1.348 . S
C446 C448 1.353 . S
C446 H504 0.929 . S
C447 C444 1.356 . S
C447 C449 1.358 . S
C447 H505 0.930 . S
C448 N445 1.314 . S
C448 C446 1.353 . S
C448 H506 0.930 . S
C449 N445 1.279 . S
C449 C447 1.358 . S
C449 H507 0.930 . S
C450 C453 1.348 . S
C450 C454 1.356 . S
C450 O501 1.325 . S
C451 N452 1.279 . S
C451 C454 1.358 . S
C451 H508 0.930 . S
N452 C451 1.279 . S
N452 C455 1.314 . S
C453 C450 1.348 . S
C453 C455 1.353 . S
C453 H509 0.929 . S
C454 C450 1.356 . S
C454 C451 1.358 . S
C454 H510 0.930 . S
C455 N452 1.314 . S
C455 C453 1.353 . S
C455 H511 0.930 . S
C456 N457 1.314 . S
C456 C461 1.353 . S
C456 H462 0.930 . S
N457 Li440 1.990 . S
N457 C456 1.314 . S
N457 C459 1.279 . S
C458 C459 1.358 . S
C458 C460 1.356 . S
C458 H512 0.930 . S
C459 N457 1.279 . S
C459 C458 1.358 . S
C459 H463 0.930 . S
C460 C458 1.356 . S
C460 C461 1.348 . S
C461 C456 1.353 . S
C461 C460 1.348 . S
C461 H513 0.929 . S
H462 C456 0.930 . S
H463 C459 0.930 . S
C464 N465 1.314 . S
C464 C466 1.353 . S
C464 H470 0.930 . S
N465 Li441 1.990 . S
N465 C464 1.314 . S
N465 C468 1.279 . S
C466 C464 1.353 . S
C466 C469 1.348 . S
C466 H514 0.929 1_545 S
C467 C468 1.358 . S
C467 C469 1.356 . S
C467 H515 0.930 . S
C468 N465 1.279 . S
C468 C467 1.358 . S
C468 H471 0.930 . S
C469 C466 1.348 . S
C469 C467 1.356 . S
H470 C464 0.930 . S
H471 C468 0.930 . S
C472 C474 1.348 . S
C472 C475 1.356 . S
C472 O502 1.325 . S
N473 C476 1.314 . S
N473 C477 1.279 . S
C474 C472 1.348 . S
C474 C476 1.353 . S
C474 H516 0.929 . S
C475 C472 1.356 . S
C475 C477 1.358 . S
C475 H517 0.930 . S
C476 N473 1.314 . S
C476 C474 1.353 . S
C476 H518 0.930 . S
C477 N473 1.279 . S
C477 C475 1.358 . S
C477 H519 0.930 . S
C478 C479 1.307 1_545 S
C478 C480 1.356 1_545 S
C478 O503 1.325 . S
C479 C478 1.307 1_565 S
C479 C481 1.411 . S
C479 H520 0.915 1_565 S
C480 C478 1.356 1_565 S
C480 C482 1.358 . S
C480 H521 0.930 . S
C481 C479 1.411 . S
C481 N483 1.314 . S
C481 H522 0.930 . S
C482 C480 1.358 . S
C482 N483 1.279 . S
C482 H523 0.930 . S
N483 C481 1.314 . S
N483 C482 1.279 . S
C484 C486 1.353 . S
C484 N487 1.314 . S
C484 H490 0.930 . S
C485 N487 1.279 . S
C485 C488 1.358 . S
C485 H491 0.930 . S
C486 C484 1.353 . S
C486 C489 1.348 . S
C486 H524 0.929 . S
N487 Li442 1.990 . S
N487 C484 1.314 . S
N487 C485 1.279 . S
C488 C485 1.358 . S
C488 C489 1.356 . S
C488 H525 0.930 . S
C489 C486 1.348 . S
C489 C488 1.356 . S
H490 C484 0.930 . S
H491 C485 0.930 . S
C492 N493 1.314 . S
C492 C494 1.353 . S
C492 H498 0.930 . S
N493 Li443 1.990 . S
N493 C492 1.314 . S
N493 C496 1.209 1_545 S
C494 C492 1.353 . S
C494 C497 1.348 1_545 S
C494 H526 0.929 . S
C495 C496 1.385 . S
C495 C497 1.356 . S
C495 H527 0.930 . S
C496 N493 1.209 1_565 S
C496 C495 1.385 . S
C496 H499 0.982 . S
C497 C494 1.348 1_565 S
C497 C495 1.356 . S
H498 C492 0.930 . S
H499 C496 0.982 . S
O500 Li440 1.956 . S
O500 Li441 1.970 . S
O500 Li442 1.961 . S
O500 C444 1.325 . S
O501 Li440 1.970 . S
O501 Li441 1.956 . S
O501 Li443 1.961 . S
O501 C450 1.325 . S
O502 Li440 1.961 . S
O502 Li442 1.956 . S
O502 Li443 1.970 . S
O502 C472 1.325 . S
O503 Li441 1.961 . S
O503 Li442 1.970 . S
O503 Li443 1.956 . S
O503 C478 1.325 . S
H504 C446 0.929 . S
H505 C447 0.930 . S
H506 C448 0.930 . S
H507 C449 0.930 . S
H508 C451 0.930 . S
H509 C453 0.929 . S
H510 C454 0.930 . S
H511 C455 0.930 . S
H512 C458 0.930 . S
H513 C461 0.929 . S
H514 C466 0.929 1_565 S
H515 C467 0.930 . S
H516 C474 0.929 . S
H517 C475 0.930 . S
H518 C476 0.930 . S
H519 C477 0.930 . S
H520 C479 0.915 1_545 S
H521 C480 0.930 . S
H522 C481 0.930 . S
H523 C482 0.930 . S
H524 C486 0.929 . S
H525 C488 0.930 . S
H526 C494 0.929 . S
H527 C495 0.930 . S
Li528 N545 1.990 . S
Li528 O588 1.956 . S
Li528 O589 1.970 . S
Li528 O590 1.961 . S
Li529 N553 1.990 . S
Li529 O588 1.970 . S
Li529 O589 1.956 . S
Li529 O591 1.961 . S
Li530 N575 1.990 . S
Li530 O588 1.961 . S
Li530 O590 1.956 . S
Li530 O591 1.970 . S
Li531 N581 1.990 . S
Li531 O589 1.961 . S
Li531 O590 1.970 . S
Li531 O591 1.956 . S
C532 C534 1.348 . S
C532 C535 1.356 . S
C532 O588 1.325 . S
N533 C536 1.314 . S
N533 C537 1.279 . S
C534 C532 1.348 . S
C534 C536 1.353 . S
C534 H592 0.929 . S
C535 C532 1.356 . S
C535 C537 1.358 . S
C535 H593 0.930 . S
C536 N533 1.314 . S
C536 C534 1.353 . S
C536 H594 0.930 . S
C537 N533 1.279 . S
C537 C535 1.358 . S
C537 H595 0.930 . S
C538 C541 1.348 . S
C538 C542 1.356 . S
C538 O589 1.325 . S
C539 N540 1.279 . S
C539 C542 1.358 . S
C539 H596 0.930 . S
N540 C539 1.279 . S
N540 C543 1.314 . S
C541 C538 1.348 . S
C541 C543 1.353 . S
C541 H597 0.929 . S
C542 C538 1.356 . S
C542 C539 1.358 . S
C542 H598 0.930 . S
C543 N540 1.314 . S
C543 C541 1.353 . S
C543 H599 0.930 . S
C544 N545 1.314 . S
C544 C549 1.353 . S
C544 H550 0.930 . S
N545 Li528 1.990 . S
N545 C544 1.314 . S
N545 C547 1.279 . S
C546 C547 1.358 . S
C546 C548 1.356 . S
C546 H600 0.930 . S
C547 N545 1.279 . S
C547 C546 1.358 . S
C547 H551 0.930 . S
C548 C546 1.356 . S
C548 C549 1.348 . S
C549 C544 1.353 . S
C549 C548 1.348 . S
C549 H601 0.929 . S
H550 C544 0.930 . S
H551 C547 0.930 . S
C552 N553 1.314 . S
C552 C554 1.353 . S
C552 H558 0.930 . S
N553 Li529 1.990 . S
N553 C552 1.314 . S
N553 C556 1.279 . S
C554 C552 1.353 . S
C554 C557 1.348 . S
C554 H602 0.929 . S
C555 C556 1.358 . S
C555 C557 1.356 . S
C555 H603 0.930 . S
C556 N553 1.279 . S
C556 C555 1.358 . S
C556 H559 0.930 . S
C557 C554 1.348 . S
C557 C555 1.356 . S
H558 C552 0.930 . S
H559 C556 0.930 . S
C560 C562 1.348 . S
C560 C563 1.356 . S
C560 O590 1.325 . S
N561 C564 1.314 . S
N561 C565 1.279 . S
C562 C560 1.348 . S
C562 C564 1.353 . S
C562 H604 0.929 . S
C563 C560 1.356 . S
C563 C565 1.358 . S
C563 H605 0.930 . S
C564 N561 1.314 . S
C564 C562 1.353 . S
C564 H606 0.930 . S
C565 N561 1.279 . S
C565 C563 1.358 . S
C565 H607 0.930 . S
C566 C567 1.348 . S
C566 C568 1.356 . S
C566 O591 1.325 . S
C567 C566 1.348 . S
C567 C569 1.353 . S
C567 H608 0.929 . S
C568 C566 1.356 . S
C568 C570 1.358 . S
C568 H609 0.930 . S
C569 C567 1.353 . S
C569 N571 1.314 . S
C569 H610 0.930 . S
C570 C568 1.358 . S
C570 N571 1.279 . S
C570 H611 0.930 . S
N571 C569 1.314 . S
N571 C570 1.279 . S
C572 C574 1.353 . S
C572 N575 1.314 . S
C572 H578 0.930 . S
C573 N575 1.279 . S
C573 C576 1.358 . S
C573 H579 0.930 . S
C574 C572 1.353 . S
C574 C577 1.348 . S
C574 H612 0.929 . S
N575 Li530 1.990 . S
N575 C572 1.314 . S
N575 C573 1.279 . S
C576 C573 1.358 . S
C576 C577 1.356 . S
C576 H613 0.930 . S
C577 C574 1.348 . S
C577 C576 1.356 . S
H578 C572 0.930 . S
H579 C573 0.930 . S
C580 N581 1.314 . S
C580 C582 1.353 . S
C580 H586 0.930 . S
N581 Li531 1.990 . S
N581 C580 1.314 . S
N581 C584 1.279 . S
C582 C580 1.353 . S
C582 C585 1.348 . S
C582 H614 0.929 . S
C583 C584 1.358 . S
C583 C585 1.356 . S
C583 H615 0.930 . S
C584 N581 1.279 . S
C584 C583 1.358 . S
C584 H587 0.930 . S
C585 C582 1.348 . S
C585 C583 1.356 . S
H586 C580 0.930 . S
H587 C584 0.930 . S
O588 Li528 1.956 . S
O588 Li529 1.970 . S
O588 Li530 1.961 . S
O588 C532 1.325 . S
O589 Li528 1.970 . S
O589 Li529 1.956 . S
O589 Li531 1.961 . S
O589 C538 1.325 . S
O590 Li528 1.961 . S
O590 Li530 1.956 . S
O590 Li531 1.970 . S
O590 C560 1.325 . S
O591 Li529 1.961 . S
O591 Li530 1.970 . S
O591 Li531 1.956 . S
O591 C566 1.325 . S
H592 C534 0.929 . S
H593 C535 0.930 . S
H594 C536 0.930 . S
H595 C537 0.930 . S
H596 C539 0.930 . S
H597 C541 0.929 . S
H598 C542 0.930 . S
H599 C543 0.930 . S
H600 C546 0.930 . S
H601 C549 0.929 . S
H602 C554 0.929 . S
H603 C555 0.930 . S
H604 C562 0.929 . S
H605 C563 0.930 . S
H606 C564 0.930 . S
H607 C565 0.930 . S
H608 C567 0.929 . S
H609 C568 0.930 . S
H610 C569 0.930 . S
H611 C570 0.930 . S
H612 C574 0.929 . S
H613 C576 0.930 . S
H614 C582 0.929 . S
H615 C583 0.930 . S
Li616 N633 1.990 . S
Li616 O676 1.956 . S
Li616 O677 1.970 . S
Li616 O678 1.961 . S
Li617 N641 1.990 . S
Li617 O676 1.970 . S
Li617 O677 1.956 . S
Li617 O679 1.961 . S
Li618 N663 1.990 . S
Li618 O676 1.961 . S
Li618 O678 1.956 . S
Li618 O679 1.970 . S
Li619 N669 1.990 . S
Li619 O677 1.961 . S
Li619 O678 1.970 . S
Li619 O679 1.956 . S
C620 C622 1.348 1_556 S
C620 C623 1.356 . S
C620 O676 1.325 . S
N621 C624 1.314 . S
N621 C625 1.279 . S
C622 C620 1.348 1_554 S
C622 C624 1.353 . S
C622 H680 0.929 . S
C623 C620 1.356 . S
C623 C625 1.358 1_556 S
C623 H681 0.930 . S
C624 N621 1.314 . S
C624 C622 1.353 . S
C624 H682 0.930 . S
C625 N621 1.279 . S
C625 C623 1.358 1_554 S
C625 H683 0.930 . S
C626 C629 1.307 1_655 S
C626 C630 1.356 1_655 S
C626 O677 1.325 . S
C627 N628 1.279 . S
C627 C630 1.358 . S
C627 H684 0.930 . S
N628 C627 1.279 . S
N628 C631 1.314 . S
C629 C626 1.307 1_455 S
C629 C631 1.411 . S
C629 H685 0.915 1_455 S
C630 C626 1.356 1_455 S
C630 C627 1.358 . S
C630 H686 0.930 . S
C631 N628 1.314 . S
C631 C629 1.411 . S
C631 H687 0.930 . S
C632 N633 1.314 . S
C632 C637 1.353 . S
C632 H638 0.930 . S
N633 Li616 1.990 . S
N633 C632 1.314 . S
N633 C635 1.279 . S
C634 C635 1.358 . S
C634 C636 1.356 . S
C634 H688 0.930 . S
C635 N633 1.279 . S
C635 C634 1.358 . S
C635 H639 0.930 . S
C636 C634 1.356 . S
C636 C637 1.348 . S
C637 C632 1.353 . S
C637 C636 1.348 . S
C637 H689 0.929 . S
H638 C632 0.930 . S
H639 C635 0.930 . S
C640 N641 1.314 1_554 S
C640 C642 1.353 . S
C640 H646 0.930 . S
N641 Li617 1.990 . S
N641 C640 1.314 1_556 S
N641 C644 1.209 1_656 S
C642 C640 1.353 . S
C642 C645 1.348 1_655 S
C642 H690 0.929 . S
C643 C644 1.385 . S
C643 C645 1.356 . S
C643 H691 0.930 . S
C644 N641 1.209 1_454 S
C644 C643 1.385 . S
C644 H647 0.983 1_554 S
C645 C642 1.348 1_455 S
C645 C643 1.356 . S
H646 C640 0.930 . S
H647 C644 0.983 1_556 S
C648 C650 1.348 . S
C648 C651 1.356 . S
C648 O678 1.325 . S
N649 C652 1.314 . S
N649 C653 1.279 . S
C650 C648 1.348 . S
C650 C652 1.353 . S
C650 H692 0.929 . S
C651 C648 1.356 . S
C651 C653 1.358 . S
C651 H693 0.930 . S
C652 N649 1.314 . S
C652 C650 1.353 . S
C652 H694 0.930 . S
C653 N649 1.279 . S
C653 C651 1.358 . S
C653 H695 0.930 . S
C654 C655 1.348 . S
C654 C656 1.356 . S
C654 O679 1.325 . S
C655 C654 1.348 . S
C655 C657 1.353 . S
C655 H696 0.929 . S
C656 C654 1.356 . S
C656 C658 1.358 . S
C656 H697 0.930 . S
C657 C655 1.353 . S
C657 N659 1.314 . S
C657 H698 0.930 . S
C658 C656 1.358 . S
C658 N659 1.279 . S
C658 H699 0.930 . S
N659 C657 1.314 . S
N659 C658 1.279 . S
C660 C662 1.353 . S
C660 N663 1.314 . S
C660 H666 0.930 . S
C661 N663 1.279 . S
C661 C664 1.358 . S
C661 H667 0.930 . S
C662 C660 1.353 . S
C662 C665 1.348 . S
C662 H700 0.929 . S
N663 Li618 1.990 . S
N663 C660 1.314 . S
N663 C661 1.279 . S
C664 C661 1.358 . S
C664 C665 1.356 . S
C664 H701 0.930 . S
C665 C662 1.348 . S
C665 C664 1.356 . S
H666 C660 0.930 . S
H667 C661 0.930 . S
C668 N669 1.314 . S
C668 C670 1.353 . S
C668 H674 0.930 . S
N669 Li619 1.990 . S
N669 C668 1.314 . S
N669 C672 1.279 . S
C670 C668 1.353 . S
C670 C673 1.348 . S
C670 H702 0.929 1_655 S
C671 C672 1.358 . S
C671 C673 1.356 . S
C671 H703 0.930 . S
C672 N669 1.279 . S
C672 C671 1.358 . S
C672 H675 0.930 . S
C673 C670 1.348 . S
C673 C671 1.356 . S
H674 C668 0.930 . S
H675 C672 0.930 . S
O676 Li616 1.956 . S
O676 Li617 1.970 . S
O676 Li618 1.961 . S
O676 C620 1.325 . S
O677 Li616 1.970 . S
O677 Li617 1.956 . S
O677 Li619 1.961 . S
O677 C626 1.325 . S
O678 Li616 1.961 . S
O678 Li618 1.956 . S
O678 Li619 1.970 . S
O678 C648 1.325 . S
O679 Li617 1.961 . S
O679 Li618 1.970 . S
O679 Li619 1.956 . S
O679 C654 1.325 . S
H680 C622 0.929 . S
H681 C623 0.930 . S
H682 C624 0.930 . S
H683 C625 0.930 . S
H684 C627 0.930 . S
H685 C629 0.915 1_655 S
H686 C630 0.930 . S
H687 C631 0.930 . S
H688 C634 0.930 . S
H689 C637 0.929 . S
H690 C642 0.929 . S
H691 C643 0.930 . S
H692 C650 0.929 . S
H693 C651 0.930 . S
H694 C652 0.930 . S
H695 C653 0.930 . S
H696 C655 0.929 . S
H697 C656 0.930 . S
H698 C657 0.930 . S
H699 C658 0.930 . S
H700 C662 0.929 . S
H701 C664 0.930 . S
H702 C670 0.929 1_455 S
H703 C671 0.930 . S
Li704 N721 1.990 . S
Li704 O764 1.956 . S
Li704 O765 1.970 . S
Li704 O766 1.961 . S
Li705 N729 1.990 . S
Li705 O764 1.970 . S
Li705 O765 1.956 . S
Li705 O767 1.961 . S
Li706 N751 1.990 . S
Li706 O764 1.961 . S
Li706 O766 1.956 . S
Li706 O767 1.970 . S
Li707 N757 1.990 . S
Li707 O765 1.961 . S
Li707 O766 1.970 . S
Li707 O767 1.956 . S
C708 C710 1.363 1_565 S
C708 C711 1.356 1_565 S
C708 O764 1.325 . S
N709 C712 1.314 . S
N709 C713 1.279 . S
C710 C708 1.363 1_545 S
C710 C712 1.395 . S
C710 H768 0.875 1_545 S
C711 C708 1.356 1_545 S
C711 C713 1.358 . S
C711 H769 0.930 . S
C712 N709 1.314 . S
C712 C710 1.395 . S
C712 H770 0.930 . S
C713 N709 1.279 . S
C713 C711 1.358 . S
C713 H771 0.930 . S
C714 C717 1.348 . S
C714 C718 1.356 . S
C714 O765 1.325 . S
C715 N716 1.279 . S
C715 C718 1.358 . S
C715 H772 0.930 . S
N716 C715 1.279 . S
N716 C719 1.314 . S
C717 C714 1.348 . S
C717 C719 1.353 . S
C717 H773 0.929 . S
C718 C714 1.356 . S
C718 C715 1.358 . S
C718 H774 0.930 . S
C719 N716 1.314 . S
C719 C717 1.353 . S
C719 H775 0.930 . S
C720 N721 1.314 . S
C720 C725 1.353 . S
C720 H726 0.930 . S
N721 Li704 1.990 . S
N721 C720 1.314 . S
N721 C723 1.239 1_565 S
C722 C723 1.406 . S
C722 C724 1.356 . S
C722 H776 0.930 . S
C723 N721 1.239 1_545 S
C723 C722 1.406 . S
C723 H727 0.928 . S
C724 C722 1.356 . S
C724 C725 1.348 1_545 S
C725 C720 1.353 . S
C725 C724 1.348 1_565 S
C725 H777 0.929 . S
H726 C720 0.930 . S
H727 C723 0.928 . S
C728 N729 1.314 . S
C728 C730 1.353 . S
C728 H734 0.930 . S
N729 Li705 1.990 . S
N729 C728 1.314 . S
N729 C732 1.279 . S
C730 C728 1.353 . S
C730 C733 1.348 . S
C730 H778 0.929 . S
C731 C732 1.358 . S
C731 C733 1.356 . S
C731 H779 0.930 . S
C732 N729 1.279 . S
C732 C731 1.358 . S
C732 H735 0.930 . S
C733 C730 1.348 . S
C733 C731 1.356 . S
H734 C728 0.930 . S
H735 C732 0.930 . S
C736 C738 1.348 . S
C736 C739 1.356 . S
C736 O766 1.325 . S
N737 C740 1.314 . S
N737 C741 1.279 . S
C738 C736 1.348 . S
C738 C740 1.353 . S
C738 H780 0.929 . S
C739 C736 1.356 . S
C739 C741 1.358 . S
C739 H781 0.930 . S
C740 N737 1.314 . S
C740 C738 1.353 . S
C740 H782 0.930 . S
C741 N737 1.279 . S
C741 C739 1.358 . S
C741 H783 0.930 . S
C742 C743 1.348 . S
C742 C744 1.356 . S
C742 O767 1.325 . S
C743 C742 1.348 . S
C743 C745 1.353 . S
C743 H784 0.929 . S
C744 C742 1.356 . S
C744 C746 1.358 . S
C744 H785 0.930 . S
C745 C743 1.353 . S
C745 N747 1.314 . S
C745 H786 0.930 . S
C746 C744 1.358 . S
C746 N747 1.279 . S
C746 H787 0.930 . S
N747 C745 1.314 . S
N747 C746 1.279 . S
C748 C750 1.353 . S
C748 N751 1.314 . S
C748 H754 0.930 . S
C749 N751 1.279 . S
C749 C752 1.358 . S
C749 H755 0.930 . S
C750 C748 1.353 . S
C750 C753 1.348 . S
C750 H788 0.929 1_565 S
N751 Li706 1.990 . S
N751 C748 1.314 . S
N751 C749 1.279 . S
C752 C749 1.358 . S
C752 C753 1.356 . S
C752 H789 0.930 . S
C753 C750 1.348 . S
C753 C752 1.356 . S
H754 C748 0.930 . S
H755 C749 0.930 . S
C756 N757 1.314 . S
C756 C758 1.353 . S
C756 H762 0.930 . S
N757 Li707 1.990 . S
N757 C756 1.314 . S
N757 C760 1.279 . S
C758 C756 1.353 . S
C758 C761 1.348 . S
C758 H790 0.929 . S
C759 C760 1.358 . S
C759 C761 1.356 . S
C759 H791 0.930 . S
C760 N757 1.279 . S
C760 C759 1.358 . S
C760 H763 0.930 . S
C761 C758 1.348 . S
C761 C759 1.356 . S
H762 C756 0.930 . S
H763 C760 0.930 . S
O764 Li704 1.956 . S
O764 Li705 1.970 . S
O764 Li706 1.961 . S
O764 C708 1.325 . S
O765 Li704 1.970 . S
O765 Li705 1.956 . S
O765 Li707 1.961 . S
O765 C714 1.325 . S
O766 Li704 1.961 . S
O766 Li706 1.956 . S
O766 Li707 1.970 . S
O766 C736 1.325 . S
O767 Li705 1.961 . S
O767 Li706 1.970 . S
O767 Li707 1.956 . S
O767 C742 1.325 . S
H768 C710 0.875 1_565 S
H769 C711 0.930 . S
H770 C712 0.930 . S
H771 C713 0.930 . S
H772 C715 0.930 . S
H773 C717 0.929 . S
H774 C718 0.930 . S
H775 C719 0.930 . S
H776 C722 0.930 . S
H777 C725 0.929 . S
H778 C730 0.929 . S
H779 C731 0.930 . S
H780 C738 0.929 . S
H781 C739 0.930 . S
H782 C740 0.930 . S
H783 C741 0.930 . S
H784 C743 0.929 . S
H785 C744 0.930 . S
H786 C745 0.930 . S
H787 C746 0.930 . S
H788 C750 0.929 1_545 S
H789 C752 0.930 . S
H790 C758 0.929 . S
H791 C759 0.930 . S
Li792 N809 1.990 . S
Li792 O852 1.956 . S
Li792 O853 1.970 . S
Li792 O854 1.961 . S
Li793 N817 1.990 . S
Li793 O852 1.970 . S
Li793 O853 1.956 . S
Li793 O855 1.961 . S
Li794 N839 1.990 . S
Li794 O852 1.961 . S
Li794 O854 1.956 . S
Li794 O855 1.970 . S
Li795 N845 1.990 . S
Li795 O853 1.961 . S
Li795 O854 1.970 . S
Li795 O855 1.956 . S
C796 C798 1.348 . S
C796 C799 1.356 . S
C796 O852 1.325 . S
N797 C800 1.314 . S
N797 C801 1.279 . S
C798 C796 1.348 . S
C798 C800 1.353 . S
C798 H856 0.929 . S
C799 C796 1.356 . S
C799 C801 1.358 . S
C799 H857 0.930 . S
C800 N797 1.314 . S
C800 C798 1.353 . S
C800 H858 0.930 . S
C801 N797 1.279 . S
C801 C799 1.358 . S
C801 H859 0.930 . S
C802 C805 1.348 . S
C802 C806 1.356 . S
C802 O853 1.325 . S
C803 N804 1.279 . S
C803 C806 1.358 . S
C803 H860 0.930 . S
N804 C803 1.279 . S
N804 C807 1.314 . S
C805 C802 1.348 . S
C805 C807 1.353 . S
C805 H861 0.929 . S
C806 C802 1.356 . S
C806 C803 1.358 . S
C806 H862 0.930 . S
C807 N804 1.314 . S
C807 C805 1.353 . S
C807 H863 0.930 . S
C808 N809 1.314 . S
C808 C813 1.353 . S
C808 H814 0.930 . S
N809 Li792 1.990 . S
N809 C808 1.314 . S
N809 C811 1.279 . S
C810 C811 1.358 . S
C810 C812 1.356 . S
C810 H864 0.930 . S
C811 N809 1.279 . S
C811 C810 1.358 . S
C811 H815 0.930 . S
C812 C810 1.356 . S
C812 C813 1.348 . S
C813 C808 1.353 . S
C813 C812 1.348 . S
C813 H865 0.929 . S
H814 C808 0.930 . S
H815 C811 0.930 . S
C816 N817 1.314 . S
C816 C818 1.353 . S
C816 H822 0.930 . S
N817 Li793 1.990 . S
N817 C816 1.314 . S
N817 C820 1.279 . S
C818 C816 1.353 . S
C818 C821 1.348 . S
C818 H866 0.929 . S
C819 C820 1.358 . S
C819 C821 1.356 . S
C819 H867 0.930 . S
C820 N817 1.279 . S
C820 C819 1.358 . S
C820 H823 0.930 . S
C821 C818 1.348 . S
C821 C819 1.356 . S
H822 C816 0.930 . S
H823 C820 0.930 . S
C824 C826 1.348 . S
C824 C827 1.356 . S
C824 O854 1.325 . S
N825 C828 1.314 . S
N825 C829 1.279 . S
C826 C824 1.348 . S
C826 C828 1.353 . S
C826 H868 0.929 . S
C827 C824 1.356 . S
C827 C829 1.358 . S
C827 H869 0.930 . S
C828 N825 1.314 . S
C828 C826 1.353 . S
C828 H870 0.930 . S
C829 N825 1.279 . S
C829 C827 1.358 . S
C829 H871 0.930 . S
C830 C831 1.348 . S
C830 C832 1.356 . S
C830 O855 1.325 . S
C831 C830 1.348 . S
C831 C833 1.353 . S
C831 H872 0.929 . S
C832 C830 1.356 . S
C832 C834 1.358 . S
C832 H873 0.930 . S
C833 C831 1.353 . S
C833 N835 1.314 . S
C833 H874 0.930 . S
C834 C832 1.358 . S
C834 N835 1.279 . S
C834 H875 0.930 . S
N835 C833 1.314 . S
N835 C834 1.279 . S
C836 C838 1.353 . S
C836 N839 1.314 . S
C836 H842 0.930 . S
C837 N839 1.279 . S
C837 C840 1.358 . S
C837 H843 0.930 . S
C838 C836 1.353 . S
C838 C841 1.348 . S
C838 H876 0.929 . S
N839 Li794 1.990 . S
N839 C836 1.314 . S
N839 C837 1.279 . S
C840 C837 1.358 . S
C840 C841 1.356 . S
C840 H877 0.930 . S
C841 C838 1.348 . S
C841 C840 1.356 . S
H842 C836 0.930 . S
H843 C837 0.930 . S
C844 N845 1.314 . S
C844 C846 1.353 . S
C844 H850 0.930 . S
N845 Li795 1.990 . S
N845 C844 1.314 . S
N845 C848 1.279 . S
C846 C844 1.353 . S
C846 C849 1.348 . S
C846 H878 0.929 . S
C847 C848 1.358 . S
C847 C849 1.356 . S
C847 H879 0.930 . S
C848 N845 1.279 . S
C848 C847 1.358 . S
C848 H851 0.930 . S
C849 C846 1.348 . S
C849 C847 1.356 . S
H850 C844 0.930 . S
H851 C848 0.930 . S
O852 Li792 1.956 . S
O852 Li793 1.970 . S
O852 Li794 1.961 . S
O852 C796 1.325 . S
O853 Li792 1.970 . S
O853 Li793 1.956 . S
O853 Li795 1.961 . S
O853 C802 1.325 . S
O854 Li792 1.961 . S
O854 Li794 1.956 . S
O854 Li795 1.970 . S
O854 C824 1.325 . S
O855 Li793 1.961 . S
O855 Li794 1.970 . S
O855 Li795 1.956 . S
O855 C830 1.325 . S
H856 C798 0.929 . S
H857 C799 0.930 . S
H858 C800 0.930 . S
H859 C801 0.930 . S
H860 C803 0.930 . S
H861 C805 0.929 . S
H862 C806 0.930 . S
H863 C807 0.930 . S
H864 C810 0.930 . S
H865 C813 0.929 . S
H866 C818 0.929 . S
H867 C819 0.930 . S
H868 C826 0.929 . S
H869 C827 0.930 . S
H870 C828 0.930 . S
H871 C829 0.930 . S
H872 C831 0.929 . S
H873 C832 0.930 . S
H874 C833 0.930 . S
H875 C834 0.930 . S
H876 C838 0.929 . S
H877 C840 0.930 . S
H878 C846 0.929 . S
H879 C847 0.930 . S
Li880 N897 1.990 . S
Li880 O940 1.956 . S
Li880 O941 1.970 . S
Li880 O942 1.961 . S
Li881 N905 1.990 . S
Li881 O940 1.970 . S
Li881 O941 1.956 . S
Li881 O943 1.961 . S
Li882 N927 1.990 . S
Li882 O940 1.961 . S
Li882 O942 1.956 . S
Li882 O943 1.970 . S
Li883 N933 1.990 . S
Li883 O941 1.961 . S
Li883 O942 1.970 . S
Li883 O943 1.956 . S
C884 C886 1.348 1_556 S
C884 C887 1.356 . S
C884 O940 1.325 . S
N885 C888 1.314 . S
N885 C889 1.279 . S
C886 C884 1.348 1_554 S
C886 C888 1.353 . S
C886 H944 0.929 . S
C887 C884 1.356 . S
C887 C889 1.358 1_556 S
C887 H945 0.930 . S
C888 N885 1.314 . S
C888 C886 1.353 . S
C888 H946 0.930 . S
C889 N885 1.279 . S
C889 C887 1.358 1_554 S
C889 H947 0.930 . S
C890 C893 1.307 1_455 S
C890 C894 1.356 1_455 S
C890 O941 1.325 . S
C891 N892 1.279 . S
C891 C894 1.358 . S
C891 H948 0.930 . S
N892 C891 1.279 . S
N892 C895 1.314 . S
C893 C890 1.307 1_655 S
C893 C895 1.411 . S
C893 H949 0.915 1_655 S
C894 C890 1.356 1_655 S
C894 C891 1.358 . S
C894 H950 0.930 . S
C895 N892 1.314 . S
C895 C893 1.411 . S
C895 H951 0.930 . S
C896 N897 1.314 . S
C896 C901 1.353 . S
C896 H902 0.930 . S
N897 Li880 1.990 . S
N897 C896 1.314 . S
N897 C899 1.279 . S
C898 C899 1.358 . S
C898 C900 1.356 . S
C898 H952 0.930 . S
C899 N897 1.279 . S
C899 C898 1.358 . S
C899 H903 0.930 . S
C900 C898 1.356 . S
C900 C901 1.348 . S
C901 C896 1.353 . S
C901 C900 1.348 . S
C901 H953 0.929 . S
H902 C896 0.930 . S
H903 C899 0.930 . S
C904 N905 1.314 1_554 S
C904 C906 1.353 . S
C904 H910 0.930 . S
N905 Li881 1.990 . S
N905 C904 1.314 1_556 S
N905 C908 1.209 1_456 S
C906 C904 1.353 . S
C906 C909 1.348 1_455 S
C906 H954 0.929 . S
C907 C908 1.385 . S
C907 C909 1.356 . S
C907 H955 0.930 . S
C908 N905 1.209 1_654 S
C908 C907 1.385 . S
C908 H911 0.983 1_554 S
C909 C906 1.348 1_655 S
C909 C907 1.356 . S
H910 C904 0.930 . S
H911 C908 0.983 1_556 S
C912 C914 1.348 . S
C912 C915 1.356 . S
C912 O942 1.325 . S
N913 C916 1.314 . S
N913 C917 1.279 . S
C914 C912 1.348 . S
C914 C916 1.353 . S
C914 H956 0.929 . S
C915 C912 1.356 . S
C915 C917 1.358 . S
C915 H957 0.930 . S
C916 N913 1.314 . S
C916 C914 1.353 . S
C916 H958 0.930 . S
C917 N913 1.279 . S
C917 C915 1.358 . S
C917 H959 0.930 . S
C918 C919 1.348 . S
C918 C920 1.356 . S
C918 O943 1.325 . S
C919 C918 1.348 . S
C919 C921 1.353 . S
C919 H960 0.929 . S
C920 C918 1.356 . S
C920 C922 1.358 . S
C920 H961 0.930 . S
C921 C919 1.353 . S
C921 N923 1.314 . S
C921 H962 0.930 . S
C922 C920 1.358 . S
C922 N923 1.279 . S
C922 H963 0.930 . S
N923 C921 1.314 . S
N923 C922 1.279 . S
C924 C926 1.353 . S
C924 N927 1.314 . S
C924 H930 0.930 . S
C925 N927 1.279 . S
C925 C928 1.358 . S
C925 H931 0.930 . S
C926 C924 1.353 . S
C926 C929 1.348 . S
C926 H964 0.929 . S
N927 Li882 1.990 . S
N927 C924 1.314 . S
N927 C925 1.279 . S
C928 C925 1.358 . S
C928 C929 1.356 . S
C928 H965 0.930 . S
C929 C926 1.348 . S
C929 C928 1.356 . S
H930 C924 0.930 . S
H931 C925 0.930 . S
C932 N933 1.314 . S
C932 C934 1.353 . S
C932 H938 0.930 . S
N933 Li883 1.990 . S
N933 C932 1.314 . S
N933 C936 1.279 . S
C934 C932 1.353 . S
C934 C937 1.348 . S
C934 H966 0.929 1_455 S
C935 C936 1.358 . S
C935 C937 1.356 . S
C935 H967 0.930 . S
C936 N933 1.279 . S
C936 C935 1.358 . S
C936 H939 0.930 . S
C937 C934 1.348 . S
C937 C935 1.356 . S
H938 C932 0.930 . S
H939 C936 0.930 . S
O940 Li880 1.956 . S
O940 Li881 1.970 . S
O940 Li882 1.961 . S
O940 C884 1.325 . S
O941 Li880 1.970 . S
O941 Li881 1.956 . S
O941 Li883 1.961 . S
O941 C890 1.325 . S
O942 Li880 1.961 . S
O942 Li882 1.956 . S
O942 Li883 1.970 . S
O942 C912 1.325 . S
O943 Li881 1.961 . S
O943 Li882 1.970 . S
O943 Li883 1.956 . S
O943 C918 1.325 . S
H944 C886 0.929 . S
H945 C887 0.930 . S
H946 C888 0.930 . S
H947 C889 0.930 . S
H948 C891 0.930 . S
H949 C893 0.915 1_455 S
H950 C894 0.930 . S
H951 C895 0.930 . S
H952 C898 0.930 . S
H953 C901 0.929 . S
H954 C906 0.929 . S
H955 C907 0.930 . S
H956 C914 0.929 . S
H957 C915 0.930 . S
H958 C916 0.930 . S
H959 C917 0.930 . S
H960 C919 0.929 . S
H961 C920 0.930 . S
H962 C921 0.930 . S
H963 C922 0.930 . S
H964 C926 0.929 . S
H965 C928 0.930 . S
H966 C934 0.929 1_655 S
H967 C935 0.930 . S
Li968 N985 1.990 . S
Li968 O1028 1.956 . S
Li968 O1029 1.970 . S
Li968 O1030 1.961 . S
Li969 N993 1.990 . S
Li969 O1028 1.970 . S
Li969 O1029 1.956 . S
Li969 O1031 1.961 . S
Li970 N1015 1.990 . S
Li970 O1028 1.961 . S
Li970 O1030 1.956 . S
Li970 O1031 1.970 . S
Li971 N1021 1.990 . S
Li971 O1029 1.961 . S
Li971 O1030 1.970 . S
Li971 O1031 1.956 . S
C972 C974 1.348 . S
C972 C975 1.356 . S
C972 O1028 1.325 . S
N973 C976 1.314 . S
N973 C977 1.279 . S
C974 C972 1.348 . S
C974 C976 1.353 . S
C974 H1032 0.929 . S
C975 C972 1.356 . S
C975 C977 1.358 . S
C975 H1033 0.930 . S
C976 N973 1.314 . S
C976 C974 1.353 . S
C976 H1034 0.930 . S
C977 N973 1.279 . S
C977 C975 1.358 . S
C977 H1035 0.930 . S
C978 C981 1.363 1_545 S
C978 C982 1.356 1_545 S
C978 O1029 1.325 . S
C979 N980 1.279 . S
C979 C982 1.358 . S
C979 H1036 0.930 . S
N980 C979 1.279 . S
N980 C983 1.314 . S
C981 C978 1.363 1_565 S
C981 C983 1.395 . S
C981 H1037 0.875 1_565 S
C982 C978 1.356 1_565 S
C982 C979 1.358 . S
C982 H1038 0.930 . S
C983 N980 1.314 . S
C983 C981 1.395 . S
C983 H1039 0.930 . S
C984 N985 1.314 . S
C984 C989 1.353 . S
C984 H990 0.930 . S
N985 Li968 1.990 . S
N985 C984 1.314 . S
N985 C987 1.279 . S
C986 C987 1.358 . S
C986 C988 1.356 . S
C986 H1040 0.930 . S
C987 N985 1.279 . S
C987 C986 1.358 . S
C987 H991 0.930 . S
C988 C986 1.356 . S
C988 C989 1.348 . S
C989 C984 1.353 . S
C989 C988 1.348 . S
C989 H1041 0.929 . S
H990 C984 0.930 . S
H991 C987 0.930 . S
C992 N993 1.314 . S
C992 C994 1.353 . S
C992 H998 0.930 . S
N993 Li969 1.990 . S
N993 C992 1.314 . S
N993 C996 1.239 1_545 S
C994 C992 1.353 . S
C994 C997 1.348 1_545 S
C994 H1042 0.929 . S
C995 C996 1.406 . S
C995 C997 1.356 . S
C995 H1043 0.930 . S
C996 N993 1.239 1_565 S
C996 C995 1.406 . S
C996 H999 0.928 . S
C997 C994 1.348 1_565 S
C997 C995 1.356 . S
H998 C992 0.930 . S
H999 C996 0.928 . S
C1000 C1002 1.348 . S
C1000 C1003 1.356 . S
C1000 O1030 1.325 . S
N1001 C1004 1.314 . S
N1001 C1005 1.279 . S
C1002 C1000 1.348 . S
C1002 C1004 1.353 . S
C1002 H1044 0.929 . S
C1003 C1000 1.356 . S
C1003 C1005 1.358 . S
C1003 H1045 0.930 . S
C1004 N1001 1.314 . S
C1004 C1002 1.353 . S
C1004 H1046 0.930 . S
C1005 N1001 1.279 . S
C1005 C1003 1.358 . S
C1005 H1047 0.930 . S
C1006 C1007 1.348 . S
C1006 C1008 1.356 . S
C1006 O1031 1.325 . S
C1007 C1006 1.348 . S
C1007 C1009 1.353 . S
C1007 H1048 0.929 . S
C1008 C1006 1.356 . S
C1008 C1010 1.358 . S
C1008 H1049 0.930 . S
C1009 C1007 1.353 . S
C1009 N1011 1.314 . S
C1009 H1050 0.930 . S
C1010 C1008 1.358 . S
C1010 N1011 1.279 . S
C1010 H1051 0.930 . S
N1011 C1009 1.314 . S
N1011 C1010 1.279 . S
C1012 C1014 1.353 . S
C1012 N1015 1.314 . S
C1012 H1018 0.930 . S
C1013 N1015 1.279 . S
C1013 C1016 1.358 . S
C1013 H1019 0.930 . S
C1014 C1012 1.353 . S
C1014 C1017 1.348 . S
C1014 H1052 0.929 . S
N1015 Li970 1.990 . S
N1015 C1012 1.314 . S
N1015 C1013 1.279 . S
C1016 C1013 1.358 . S
C1016 C1017 1.356 . S
C1016 H1053 0.930 . S
C1017 C1014 1.348 . S
C1017 C1016 1.356 . S
H1018 C1012 0.930 . S
H1019 C1013 0.930 . S
C1020 N1021 1.314 . S
C1020 C1022 1.353 . S
C1020 H1026 0.930 . S
N1021 Li971 1.990 . S
N1021 C1020 1.314 . S
N1021 C1024 1.279 . S
C1022 C1020 1.353 . S
C1022 C1025 1.348 . S
C1022 H1054 0.929 1_545 S
C1023 C1024 1.358 . S
C1023 C1025 1.356 . S
C1023 H1055 0.930 . S
C1024 N1021 1.279 . S
C1024 C1023 1.358 . S
C1024 H1027 0.930 . S
C1025 C1022 1.348 . S
C1025 C1023 1.356 . S
H1026 C1020 0.930 . S
H1027 C1024 0.930 . S
O1028 Li968 1.956 . S
O1028 Li969 1.970 . S
O1028 Li970 1.961 . S
O1028 C972 1.325 . S
O1029 Li968 1.970 . S
O1029 Li969 1.956 . S
O1029 Li971 1.961 . S
O1029 C978 1.325 . S
O1030 Li968 1.961 . S
O1030 Li970 1.956 . S
O1030 Li971 1.970 . S
O1030 C1000 1.325 . S
O1031 Li969 1.961 . S
O1031 Li970 1.970 . S
O1031 Li971 1.956 . S
O1031 C1006 1.325 . S
H1032 C974 0.929 . S
H1033 C975 0.930 . S
H1034 C976 0.930 . S
H1035 C977 0.930 . S
H1036 C979 0.930 . S
H1037 C981 0.875 1_545 S
H1038 C982 0.930 . S
H1039 C983 0.930 . S
H1040 C986 0.930 . S
H1041 C989 0.929 . S
H1042 C994 0.929 . S
H1043 C995 0.930 . S
H1044 C1002 0.929 . S
H1045 C1003 0.930 . S
H1046 C1004 0.930 . S
H1047 C1005 0.930 . S
H1048 C1007 0.929 . S
H1049 C1008 0.930 . S
H1050 C1009 0.930 . S
H1051 C1010 0.930 . S
H1052 C1014 0.929 . S
H1053 C1016 0.930 . S
H1054 C1022 0.929 1_565 S
H1055 C1023 0.930 . S
H1056 C1074 0.951 . S
H1057 C1076 0.951 . S
H1058 C1078 0.950 . S
H1059 C1079 0.950 . S
H1060 C1081 0.950 . S
H1061 C1084 0.950 . S
H1062 C1085 0.950 . S
H1063 C1087 0.950 . S
H1064 C1088 0.950 . S
H1065 C1089 0.951 . S
H1066 C1091 0.951 . S
H1067 C1093 0.950 . S
H1068 C1094 0.950 . S
H1069 C1096 0.950 . S
H1070 C1099 0.950 . S
H1071 C1100 0.950 . S
H1072 C1102 0.950 . S
H1073 C1103 0.950 . S
C1074 H1056 0.951 . S
C1074 C1075 1.366 . S
C1074 C1076 1.388 . S
C1075 C1074 1.366 . S
C1075 C1079 1.385 . S
C1076 H1057 0.951 . S
C1076 C1074 1.388 . S
C1076 C1077 1.366 . S
C1077 C1076 1.366 . S
C1077 C1078 1.414 . S
C1077 C1080 1.499 . S
C1078 H1058 0.950 . S
C1078 C1077 1.414 . S
C1078 C1079 1.374 . S
C1079 H1059 0.950 . S
C1079 C1075 1.385 . S
C1079 C1078 1.374 . S
C1080 C1077 1.499 . S
C1080 C1081 1.373 . S
C1080 C1082 1.389 . S
C1081 H1060 0.950 . S
C1081 C1080 1.373 . S
C1081 C1097 1.377 . S
C1082 C1080 1.389 . S
C1082 C1083 1.524 . S
C1082 C1096 1.377 . S
C1083 C1082 1.524 . S
C1083 C1084 1.397 . S
C1083 C1088 1.363 . S
C1084 H1061 0.950 . S
C1084 C1083 1.397 . S
C1084 C1085 1.334 . S
C1085 H1062 0.950 . S
C1085 C1084 1.334 . S
C1085 C1086 1.287 . S
C1086 C1085 1.287 . S
C1086 C1087 1.524 . S
C1086 H1105 0.913 . S
C1087 H1063 0.950 . S
C1087 C1086 1.524 . S
C1087 C1088 1.415 . S
C1088 H1064 0.950 . S
C1088 C1083 1.363 . S
C1088 C1087 1.415 . S
C1089 H1065 0.951 . S
C1089 C1090 1.366 . S
C1089 C1091 1.388 . S
C1090 C1089 1.366 . S
C1090 C1094 1.385 . S
C1091 H1066 0.951 . S
C1091 C1089 1.388 . S
C1091 C1092 1.366 . S
C1092 C1091 1.366 . S
C1092 C1093 1.414 . S
C1092 C1095 1.499 . S
C1093 H1067 0.950 . S
C1093 C1092 1.414 . S
C1093 C1094 1.374 . S
C1094 H1068 0.950 . S
C1094 C1090 1.385 . S
C1094 C1093 1.374 . S
C1095 C1092 1.499 . S
C1095 C1096 1.373 . S
C1095 C1097 1.389 . S
C1096 H1069 0.950 . S
C1096 C1082 1.377 . S
C1096 C1095 1.373 . S
C1097 C1081 1.377 . S
C1097 C1095 1.389 . S
C1097 C1098 1.524 . S
C1098 C1097 1.524 . S
C1098 C1099 1.397 . S
C1098 C1103 1.363 . S
C1099 H1070 0.950 . S
C1099 C1098 1.397 . S
C1099 C1100 1.334 . S
C1100 H1071 0.950 . S
C1100 C1099 1.334 . S
C1100 C1101 1.287 . S
C1101 C1100 1.287 . S
C1101 C1102 1.524 . S
C1101 H1104 0.999 . S
C1102 H1072 0.950 . S
C1102 C1101 1.524 . S
C1102 C1103 1.415 . S
C1103 H1073 0.950 . S
C1103 C1098 1.363 . S
C1103 C1102 1.415 . S
H1104 C1101 0.999 . S
H1105 C1086 0.913 . S
H1106 C1124 0.951 . S
H1107 C1126 0.951 . S
H1108 C1128 0.950 . S
H1109 C1129 0.950 . S
H1110 C1131 0.950 . S
H1111 C1134 0.950 . S
H1112 C1135 0.950 . S
H1113 C1137 0.950 . S
H1114 C1138 0.950 . S
H1115 C1139 0.951 . S
H1116 C1141 0.951 . S
H1117 C1143 0.950 . S
H1118 C1144 0.950 . S
H1119 C1146 0.950 . S
H1120 C1149 0.950 . S
H1121 C1150 0.950 . S
H1122 C1152 0.950 . S
H1123 C1153 0.950 . S
C1124 H1106 0.951 . S
C1124 C1125 1.366 1_455 S
C1124 C1126 1.388 . S
C1125 C1124 1.366 1_655 S
C1125 C1129 1.385 . S
C1126 H1107 0.951 . S
C1126 C1124 1.388 . S
C1126 C1127 1.366 1_455 S
C1127 C1126 1.366 1_655 S
C1127 C1128 1.414 . S
C1127 C1130 1.500 . S
C1128 H1108 0.950 . S
C1128 C1127 1.414 . S
C1128 C1129 1.374 . S
C1129 H1109 0.950 . S
C1129 C1125 1.385 . S
C1129 C1128 1.374 . S
C1130 C1127 1.500 . S
C1130 C1131 1.398 . S
C1130 C1132 1.365 1_655 S
C1131 H1110 0.950 . S
C1131 C1130 1.398 . S
C1131 C1147 1.377 . S
C1132 C1130 1.365 1_455 S
C1132 C1133 1.524 . S
C1132 C1146 1.377 . S
C1133 C1132 1.524 . S
C1133 C1134 1.397 . S
C1133 C1138 1.363 . S
C1134 H1111 0.950 . S
C1134 C1133 1.397 . S
C1134 C1135 1.334 . S
C1135 H1112 0.950 . S
C1135 C1134 1.334 . S
C1135 C1136 1.287 . S
C1136 C1135 1.287 . S
C1136 C1137 1.524 . S
C1136 H1155 0.913 . S
C1137 H1113 0.950 . S
C1137 C1136 1.524 . S
C1137 C1138 1.415 . S
C1138 H1114 0.950 . S
C1138 C1133 1.363 . S
C1138 C1137 1.415 . S
C1139 H1115 0.951 . S
C1139 C1140 1.366 1_655 S
C1139 C1141 1.388 . S
C1140 C1139 1.366 1_455 S
C1140 C1144 1.385 . S
C1141 H1116 0.951 . S
C1141 C1139 1.388 . S
C1141 C1142 1.366 1_655 S
C1142 C1141 1.366 1_455 S
C1142 C1143 1.414 . S
C1142 C1145 1.500 . S
C1143 H1117 0.950 . S
C1143 C1142 1.414 . S
C1143 C1144 1.374 . S
C1144 H1118 0.950 . S
C1144 C1140 1.385 . S
C1144 C1143 1.374 . S
C1145 C1142 1.500 . S
C1145 C1146 1.399 . S
C1145 C1147 1.365 1_455 S
C1146 H1119 0.950 . S
C1146 C1132 1.377 . S
C1146 C1145 1.399 . S
C1147 C1131 1.377 . S
C1147 C1145 1.365 1_655 S
C1147 C1148 1.524 . S
C1148 C1147 1.524 . S
C1148 C1149 1.397 . S
C1148 C1153 1.363 . S
C1149 H1120 0.950 . S
C1149 C1148 1.397 . S
C1149 C1150 1.334 . S
C1150 H1121 0.950 . S
C1150 C1149 1.334 . S
C1150 C1151 1.287 . S
C1151 C1150 1.287 . S
C1151 C1152 1.524 . S
C1151 H1154 0.999 . S
C1152 H1122 0.950 . S
C1152 C1151 1.524 . S
C1152 C1153 1.415 . S
C1153 H1123 0.950 . S
C1153 C1148 1.363 . S
C1153 C1152 1.415 . S
H1154 C1151 0.999 . S
H1155 C1136 0.913 . S
H1156 C1174 0.966 1_545 S
H1157 C1176 0.954 1_545 S
H1158 C1178 0.950 . S
H1159 C1179 0.950 . S
H1160 C1181 0.950 . S
H1161 C1184 0.950 . S
H1162 C1185 0.950 . S
H1163 C1187 0.950 . S
H1164 C1188 0.950 . S
H1165 C1189 0.965 1_565 S
H1166 C1191 0.953 1_565 S
H1167 C1193 0.950 . S
H1168 C1194 0.950 . S
H1169 C1196 0.950 . S
H1170 C1199 0.950 . S
H1171 C1200 0.950 . S
H1172 C1202 0.950 . S
H1173 C1203 0.950 . S
C1174 H1156 0.966 1_565 S
C1174 C1175 1.354 . S
C1174 C1176 1.388 . S
C1175 C1174 1.354 . S
C1175 C1179 1.385 . S
C1176 H1157 0.954 1_565 S
C1176 C1174 1.388 . S
C1176 C1177 1.363 . S
C1177 C1176 1.363 . S
C1177 C1178 1.414 . S
C1177 C1180 1.499 . S
C1178 H1158 0.950 . S
C1178 C1177 1.414 . S
C1178 C1179 1.374 . S
C1179 H1159 0.950 . S
C1179 C1175 1.385 . S
C1179 C1178 1.374 . S
C1180 C1177 1.499 . S
C1180 C1181 1.373 1_565 S
C1180 C1182 1.389 . S
C1181 H1160 0.950 . S
C1181 C1180 1.373 1_545 S
C1181 C1197 1.377 1_556 S
C1182 C1180 1.389 . S
C1182 C1183 1.524 . S
C1182 C1196 1.377 1_556 S
C1183 C1182 1.524 . S
C1183 C1184 1.397 . S
C1183 C1188 1.363 . S
C1184 H1161 0.950 . S
C1184 C1183 1.397 . S
C1184 C1185 1.334 . S
C1185 H1162 0.950 . S
C1185 C1184 1.334 . S
C1185 C1186 1.287 . S
C1186 C1185 1.287 . S
C1186 C1187 1.524 . S
C1186 H1205 0.913 . S
C1187 H1163 0.950 . S
C1187 C1186 1.524 . S
C1187 C1188 1.415 . S
C1188 H1164 0.950 . S
C1188 C1183 1.363 . S
C1188 C1187 1.415 . S
C1189 H1165 0.965 1_545 S
C1189 C1190 1.354 . S
C1189 C1191 1.388 . S
C1190 C1189 1.354 . S
C1190 C1194 1.385 . S
C1191 H1166 0.953 1_545 S
C1191 C1189 1.388 . S
C1191 C1192 1.363 . S
C1192 C1191 1.363 . S
C1192 C1193 1.414 . S
C1192 C1195 1.499 . S
C1193 H1167 0.950 . S
C1193 C1192 1.414 . S
C1193 C1194 1.374 . S
C1194 H1168 0.950 . S
C1194 C1190 1.385 . S
C1194 C1193 1.374 . S
C1195 C1192 1.499 . S
C1195 C1196 1.373 1_545 S
C1195 C1197 1.389 . S
C1196 H1169 0.950 . S
C1196 C1182 1.377 1_554 S
C1196 C1195 1.373 1_565 S
C1197 C1181 1.377 1_554 S
C1197 C1195 1.389 . S
C1197 C1198 1.524 . S
C1198 C1197 1.524 . S
C1198 C1199 1.397 . S
C1198 C1203 1.363 . S
C1199 H1170 0.950 . S
C1199 C1198 1.397 . S
C1199 C1200 1.334 . S
C1200 H1171 0.950 . S
C1200 C1199 1.334 . S
C1200 C1201 1.287 . S
C1201 C1200 1.287 . S
C1201 C1202 1.524 . S
C1201 H1204 0.999 . S
C1202 H1172 0.950 . S
C1202 C1201 1.524 . S
C1202 C1203 1.415 . S
C1203 H1173 0.950 . S
C1203 C1198 1.363 . S
C1203 C1202 1.415 . S
H1204 C1201 0.999 . S
H1205 C1186 0.913 . S
H1206 C1224 0.951 . S
H1207 C1226 0.951 . S
H1208 C1228 0.950 . S
H1209 C1229 0.950 . S
H1210 C1231 0.950 . S
H1211 C1234 0.950 . S
H1212 C1235 0.950 . S
H1213 C1237 0.950 . S
H1214 C1238 0.950 . S
H1215 C1239 0.951 . S
H1216 C1241 0.951 . S
H1217 C1243 0.950 . S
H1218 C1244 0.950 . S
H1219 C1246 0.950 . S
H1220 C1249 0.950 . S
H1221 C1250 0.950 . S
H1222 C1252 0.950 . S
H1223 C1253 0.950 . S
C1224 H1206 0.951 . S
C1224 C1225 1.366 . S
C1224 C1226 1.388 . S
C1225 C1224 1.366 . S
C1225 C1229 1.385 . S
C1226 H1207 0.951 . S
C1226 C1224 1.388 . S
C1226 C1227 1.366 . S
C1227 C1226 1.366 . S
C1227 C1228 1.414 . S
C1227 C1230 1.499 . S
C1228 H1208 0.950 . S
C1228 C1227 1.414 . S
C1228 C1229 1.374 . S
C1229 H1209 0.950 . S
C1229 C1225 1.385 . S
C1229 C1228 1.374 . S
C1230 C1227 1.499 . S
C1230 C1231 1.373 . S
C1230 C1232 1.389 . S
C1231 H1210 0.950 . S
C1231 C1230 1.373 . S
C1231 C1247 1.377 . S
C1232 C1230 1.389 . S
C1232 C1233 1.524 . S
C1232 C1246 1.377 . S
C1233 C1232 1.524 . S
C1233 C1234 1.397 . S
C1233 C1238 1.363 . S
C1234 H1211 0.950 . S
C1234 C1233 1.397 . S
C1234 C1235 1.334 . S
C1235 H1212 0.950 . S
C1235 C1234 1.334 . S
C1235 C1236 1.287 . S
C1236 C1235 1.287 . S
C1236 C1237 1.524 . S
C1236 H1255 0.913 . S
C1237 H1213 0.950 . S
C1237 C1236 1.524 . S
C1237 C1238 1.415 . S
C1238 H1214 0.950 . S
C1238 C1233 1.363 . S
C1238 C1237 1.415 . S
C1239 H1215 0.951 . S
C1239 C1240 1.366 . S
C1239 C1241 1.388 . S
C1240 C1239 1.366 . S
C1240 C1244 1.385 . S
C1241 H1216 0.951 . S
C1241 C1239 1.388 . S
C1241 C1242 1.366 . S
C1242 C1241 1.366 . S
C1242 C1243 1.414 . S
C1242 C1245 1.499 . S
C1243 H1217 0.950 . S
C1243 C1242 1.414 . S
C1243 C1244 1.374 . S
C1244 H1218 0.950 . S
C1244 C1240 1.385 . S
C1244 C1243 1.374 . S
C1245 C1242 1.499 . S
C1245 C1246 1.373 . S
C1245 C1247 1.389 . S
C1246 H1219 0.950 . S
C1246 C1232 1.377 . S
C1246 C1245 1.373 . S
C1247 C1231 1.377 . S
C1247 C1245 1.389 . S
C1247 C1248 1.524 . S
C1248 C1247 1.524 . S
C1248 C1249 1.397 . S
C1248 C1253 1.363 . S
C1249 H1220 0.950 . S
C1249 C1248 1.397 . S
C1249 C1250 1.334 . S
C1250 H1221 0.950 . S
C1250 C1249 1.334 . S
C1250 C1251 1.287 . S
C1251 C1250 1.287 . S
C1251 C1252 1.524 . S
C1251 H1254 0.999 . S
C1252 H1222 0.950 . S
C1252 C1251 1.524 . S
C1252 C1253 1.415 . S
C1253 H1223 0.950 . S
C1253 C1248 1.363 . S
C1253 C1252 1.415 . S
H1254 C1251 0.999 . S
H1255 C1236 0.913 . S
H1256 C1274 0.951 . S
H1257 C1276 0.951 . S
H1258 C1278 0.950 . S
H1259 C1279 0.950 . S
H1260 C1281 0.950 . S
H1261 C1284 0.950 . S
H1262 C1285 0.950 . S
H1263 C1287 0.950 . S
H1264 C1288 0.950 . S
H1265 C1289 0.951 . S
H1266 C1291 0.951 . S
H1267 C1293 0.950 . S
H1268 C1294 0.950 . S
H1269 C1296 0.950 . S
H1270 C1299 0.950 . S
H1271 C1300 0.950 . S
H1272 C1302 0.950 . S
H1273 C1303 0.950 . S
C1274 H1256 0.951 . S
C1274 C1275 1.366 . S
C1274 C1276 1.388 . S
C1275 C1274 1.366 . S
C1275 C1279 1.385 1_655 S
C1276 H1257 0.951 . S
C1276 C1274 1.388 . S
C1276 C1277 1.366 . S
C1277 C1276 1.366 . S
C1277 C1278 1.414 1_655 S
C1277 C1280 1.499 . S
C1278 H1258 0.950 . S
C1278 C1277 1.414 1_455 S
C1278 C1279 1.374 . S
C1279 H1259 0.950 . S
C1279 C1275 1.385 1_455 S
C1279 C1278 1.374 . S
C1280 C1277 1.499 . S
C1280 C1281 1.373 1_655 S
C1280 C1282 1.389 . S
C1281 H1260 0.950 . S
C1281 C1280 1.373 1_455 S
C1281 C1297 1.377 . S
C1282 C1280 1.389 . S
C1282 C1283 1.524 . S
C1282 C1296 1.377 . S
C1283 C1282 1.524 . S
C1283 C1284 1.397 . S
C1283 C1288 1.363 . S
C1284 H1261 0.950 . S
C1284 C1283 1.397 . S
C1284 C1285 1.334 . S
C1285 H1262 0.950 . S
C1285 C1284 1.334 . S
C1285 C1286 1.287 . S
C1286 C1285 1.287 . S
C1286 C1287 1.524 . S
C1286 H1305 0.913 . S
C1287 H1263 0.950 . S
C1287 C1286 1.524 . S
C1287 C1288 1.415 . S
C1288 H1264 0.950 . S
C1288 C1283 1.363 . S
C1288 C1287 1.415 . S
C1289 H1265 0.951 . S
C1289 C1290 1.366 . S
C1289 C1291 1.388 . S
C1290 C1289 1.366 . S
C1290 C1294 1.385 1_455 S
C1291 H1266 0.951 . S
C1291 C1289 1.388 . S
C1291 C1292 1.366 . S
C1292 C1291 1.366 . S
C1292 C1293 1.414 1_455 S
C1292 C1295 1.499 . S
C1293 H1267 0.950 . S
C1293 C1292 1.414 1_655 S
C1293 C1294 1.374 . S
C1294 H1268 0.950 . S
C1294 C1290 1.385 1_655 S
C1294 C1293 1.374 . S
C1295 C1292 1.499 . S
C1295 C1296 1.373 1_455 S
C1295 C1297 1.389 . S
C1296 H1269 0.950 . S
C1296 C1282 1.377 . S
C1296 C1295 1.373 1_655 S
C1297 C1281 1.377 . S
C1297 C1295 1.389 . S
C1297 C1298 1.524 . S
C1298 C1297 1.524 . S
C1298 C1299 1.397 . S
C1298 C1303 1.363 . S
C1299 H1270 0.950 . S
C1299 C1298 1.397 . S
C1299 C1300 1.334 . S
C1300 H1271 0.950 . S
C1300 C1299 1.334 . S
C1300 C1301 1.287 . S
C1301 C1300 1.287 . S
C1301 C1302 1.524 . S
C1301 H1304 0.999 . S
C1302 H1272 0.950 . S
C1302 C1301 1.524 . S
C1302 C1303 1.415 . S
C1303 H1273 0.950 . S
C1303 C1298 1.363 . S
C1303 C1302 1.415 . S
H1304 C1301 0.999 . S
H1305 C1286 0.913 . S
H1306 C1324 0.951 . S
H1307 C1326 0.951 . S
H1308 C1328 0.950 . S
H1309 C1329 0.950 . S
H1310 C1331 0.950 . S
H1311 C1334 0.950 . S
H1312 C1335 0.950 . S
H1313 C1337 0.950 . S
H1314 C1338 0.950 1_545 S
H1315 C1339 0.951 . S
H1316 C1341 0.951 . S
H1317 C1343 0.950 . S
H1318 C1344 0.950 . S
H1319 C1346 0.950 . S
H1320 C1349 0.950 . S
H1321 C1350 0.950 . S
H1322 C1352 0.950 . S
H1323 C1353 0.950 1_565 S
C1324 H1306 0.951 . S
C1324 C1325 1.366 1_545 S
C1324 C1326 1.388 . S
C1325 C1324 1.366 1_565 S
C1325 C1329 1.385 . S
C1326 H1307 0.951 . S
C1326 C1324 1.388 . S
C1326 C1327 1.366 1_545 S
C1327 C1326 1.366 1_565 S
C1327 C1328 1.414 . S
C1327 C1330 1.499 . S
C1328 H1308 0.950 . S
C1328 C1327 1.414 . S
C1328 C1329 1.374 . S
C1329 H1309 0.950 . S
C1329 C1325 1.385 . S
C1329 C1328 1.374 . S
C1330 C1327 1.499 . S
C1330 C1331 1.373 1_565 S
C1330 C1332 1.389 . S
C1331 H1310 0.950 . S
C1331 C1330 1.373 1_545 S
C1331 C1347 1.377 1_554 S
C1332 C1330 1.389 . S
C1332 C1333 1.524 . S
C1332 C1346 1.377 1_554 S
C1333 C1332 1.524 . S
C1333 C1334 1.397 . S
C1333 C1338 1.363 . S
C1334 H1311 0.950 . S
C1334 C1333 1.397 . S
C1334 C1335 1.334 . S
C1335 H1312 0.950 . S
C1335 C1334 1.334 . S
C1335 C1336 1.287 . S
C1336 C1335 1.287 . S
C1336 C1337 1.524 . S
C1336 H1355 0.913 . S
C1337 H1313 0.950 . S
C1337 C1336 1.524 . S
C1337 C1338 1.415 . S
C1338 H1314 0.950 1_565 S
C1338 C1333 1.363 . S
C1338 C1337 1.415 . S
C1339 H1315 0.951 . S
C1339 C1340 1.366 1_565 S
C1339 C1341 1.388 . S
C1340 C1339 1.366 1_545 S
C1340 C1344 1.385 . S
C1341 H1316 0.951 . S
C1341 C1339 1.388 . S
C1341 C1342 1.366 1_565 S
C1342 C1341 1.366 1_545 S
C1342 C1343 1.414 . S
C1342 C1345 1.499 . S
C1343 H1317 0.950 . S
C1343 C1342 1.414 . S
C1343 C1344 1.374 . S
C1344 H1318 0.950 . S
C1344 C1340 1.385 . S
C1344 C1343 1.374 . S
C1345 C1342 1.499 . S
C1345 C1346 1.373 1_545 S
C1345 C1347 1.389 . S
C1346 H1319 0.950 . S
C1346 C1332 1.377 1_556 S
C1346 C1345 1.373 1_565 S
C1347 C1331 1.377 1_556 S
C1347 C1345 1.389 . S
C1347 C1348 1.524 . S
C1348 C1347 1.524 . S
C1348 C1349 1.397 . S
C1348 C1353 1.363 . S
C1349 H1320 0.950 . S
C1349 C1348 1.397 . S
C1349 C1350 1.334 . S
C1350 H1321 0.950 . S
C1350 C1349 1.334 . S
C1350 C1351 1.287 . S
C1351 C1350 1.287 . S
C1351 C1352 1.524 . S
C1351 H1354 0.999 . S
C1352 H1322 0.950 . S
C1352 C1351 1.524 . S
C1352 C1353 1.415 . S
C1353 H1323 0.950 1_545 S
C1353 C1348 1.363 . S
C1353 C1352 1.415 . S
H1354 C1351 0.999 . S
H1355 C1336 0.913 . S
H1356 C1374 0.951 . S
H1357 C1376 0.951 1_554 S
H1358 C1378 0.950 . S
H1359 C1379 0.950 . S
H1360 C1381 0.950 . S
H1361 C1384 0.950 1_556 S
H1362 C1385 0.950 . S
H1363 C1387 0.950 . S
H1364 C1388 0.950 . S
H1365 C1389 0.951 . S
H1366 C1391 0.951 1_556 S
H1367 C1393 0.950 . S
H1368 C1394 0.950 . S
H1369 C1396 0.950 . S
H1370 C1399 0.950 1_554 S
H1371 C1400 0.950 . S
H1372 C1402 0.950 . S
H1373 C1403 0.950 . S
C1374 H1356 0.951 . S
C1374 C1375 1.366 . S
C1374 C1376 1.388 . S
C1375 C1374 1.366 . S
C1375 C1379 1.385 . S
C1376 H1357 0.951 1_556 S
C1376 C1374 1.388 . S
C1376 C1377 1.366 . S
C1377 C1376 1.366 . S
C1377 C1378 1.414 . S
C1377 C1380 1.499 . S
C1378 H1358 0.950 . S
C1378 C1377 1.414 . S
C1378 C1379 1.374 . S
C1379 H1359 0.950 . S
C1379 C1375 1.385 . S
C1379 C1378 1.374 . S
C1380 C1377 1.499 . S
C1380 C1381 1.373 . S
C1380 C1382 1.389 1_556 S
C1381 H1360 0.950 . S
C1381 C1380 1.373 . S
C1381 C1397 1.377 . S
C1382 C1380 1.389 1_554 S
C1382 C1383 1.524 . S
C1382 C1396 1.377 . S
C1383 C1382 1.524 . S
C1383 C1384 1.397 . S
C1383 C1388 1.363 . S
C1384 H1361 0.950 1_554 S
C1384 C1383 1.397 . S
C1384 C1385 1.334 . S
C1385 H1362 0.950 . S
C1385 C1384 1.334 . S
C1385 C1386 1.287 . S
C1386 C1385 1.287 . S
C1386 C1387 1.524 . S
C1386 H1405 0.913 . S
C1387 H1363 0.950 . S
C1387 C1386 1.524 . S
C1387 C1388 1.415 . S
C1388 H1364 0.950 . S
C1388 C1383 1.363 . S
C1388 C1387 1.415 . S
C1389 H1365 0.951 . S
C1389 C1390 1.366 . S
C1389 C1391 1.388 . S
C1390 C1389 1.366 . S
C1390 C1394 1.385 . S
C1391 H1366 0.951 1_554 S
C1391 C1389 1.388 . S
C1391 C1392 1.366 . S
C1392 C1391 1.366 . S
C1392 C1393 1.414 . S
C1392 C1395 1.499 . S
C1393 H1367 0.950 . S
C1393 C1392 1.414 . S
C1393 C1394 1.374 . S
C1394 H1368 0.950 . S
C1394 C1390 1.385 . S
C1394 C1393 1.374 . S
C1395 C1392 1.499 . S
C1395 C1396 1.373 . S
C1395 C1397 1.389 1_554 S
C1396 H1369 0.950 . S
C1396 C1382 1.377 . S
C1396 C1395 1.373 . S
C1397 C1381 1.377 . S
C1397 C1395 1.389 1_556 S
C1397 C1398 1.524 . S
C1398 C1397 1.524 . S
C1398 C1399 1.397 . S
C1398 C1403 1.363 . S
C1399 H1370 0.950 1_556 S
C1399 C1398 1.397 . S
C1399 C1400 1.334 . S
C1400 H1371 0.950 . S
C1400 C1399 1.334 . S
C1400 C1401 1.287 . S
C1401 C1400 1.287 . S
C1401 C1402 1.524 . S
C1401 H1404 0.999 . S
C1402 H1372 0.950 . S
C1402 C1401 1.524 . S
C1402 C1403 1.415 . S
C1403 H1373 0.950 . S
C1403 C1398 1.363 . S
C1403 C1402 1.415 . S
H1404 C1401 0.999 . S
H1405 C1386 0.913 . S
H1406 C1424 0.951 . S
H1407 C1426 0.951 . S
H1408 C1428 0.950 . S
H1409 C1429 0.950 . S
H1410 C1431 0.950 . S
H1411 C1434 0.950 . S
H1412 C1435 0.950 . S
H1413 C1437 0.950 . S
H1414 C1438 0.950 . S
H1415 C1439 0.951 . S
H1416 C1441 0.951 . S
H1417 C1443 0.950 . S
H1418 C1444 0.950 . S
H1419 C1446 0.950 . S
H1420 C1449 0.950 . S
H1421 C1450 0.950 . S
H1422 C1452 0.950 . S
H1423 C1453 0.950 . S
C1424 H1406 0.951 . S
C1424 C1425 1.366 . S
C1424 C1426 1.388 . S
C1425 C1424 1.366 . S
C1425 C1429 1.385 . S
C1426 H1407 0.951 . S
C1426 C1424 1.388 . S
C1426 C1427 1.366 . S
C1427 C1426 1.366 . S
C1427 C1428 1.414 . S
C1427 C1430 1.499 . S
C1428 H1408 0.950 . S
C1428 C1427 1.414 . S
C1428 C1429 1.374 . S
C1429 H1409 0.950 . S
C1429 C1425 1.385 . S
C1429 C1428 1.374 . S
C1430 C1427 1.499 . S
C1430 C1431 1.373 . S
C1430 C1432 1.389 . S
C1431 H1410 0.950 . S
C1431 C1430 1.373 . S
C1431 C1447 1.377 . S
C1432 C1430 1.389 . S
C1432 C1433 1.524 . S
C1432 C1446 1.377 . S
C1433 C1432 1.524 . S
C1433 C1434 1.397 . S
C1433 C1438 1.363 . S
C1434 H1411 0.950 . S
C1434 C1433 1.397 . S
C1434 C1435 1.334 . S
C1435 H1412 0.950 . S
C1435 C1434 1.334 . S
C1435 C1436 1.287 . S
C1436 C1435 1.287 . S
C1436 C1437 1.524 . S
C1436 H1455 0.913 . S
C1437 H1413 0.950 . S
C1437 C1436 1.524 . S
C1437 C1438 1.415 . S
C1438 H1414 0.950 . S
C1438 C1433 1.363 . S
C1438 C1437 1.415 . S
C1439 H1415 0.951 . S
C1439 C1440 1.366 . S
C1439 C1441 1.388 . S
C1440 C1439 1.366 . S
C1440 C1444 1.385 . S
C1441 H1416 0.951 . S
C1441 C1439 1.388 . S
C1441 C1442 1.366 . S
C1442 C1441 1.366 . S
C1442 C1443 1.414 . S
C1442 C1445 1.499 . S
C1443 H1417 0.950 . S
C1443 C1442 1.414 . S
C1443 C1444 1.374 . S
C1444 H1418 0.950 . S
C1444 C1440 1.385 . S
C1444 C1443 1.374 . S
C1445 C1442 1.499 . S
C1445 C1446 1.373 . S
C1445 C1447 1.389 . S
C1446 H1419 0.950 . S
C1446 C1432 1.377 . S
C1446 C1445 1.373 . S
C1447 C1431 1.377 . S
C1447 C1445 1.389 . S
C1447 C1448 1.524 . S
C1448 C1447 1.524 . S
C1448 C1449 1.397 . S
C1448 C1453 1.363 . S
C1449 H1420 0.950 . S
C1449 C1448 1.397 . S
C1449 C1450 1.334 . S
C1450 H1421 0.950 . S
C1450 C1449 1.334 . S
C1450 C1451 1.287 . S
C1451 C1450 1.287 . S
C1451 C1452 1.524 . S
C1451 H1454 0.999 . S
C1452 H1422 0.950 . S
C1452 C1451 1.524 . S
C1452 C1453 1.415 . S
C1453 H1423 0.950 . S
C1453 C1448 1.363 . S
C1453 C1452 1.415 . S
H1454 C1451 0.999 . S
H1455 C1436 0.913 . S
H1456 C1474 0.951 . S
H1457 C1476 0.951 . S
H1458 C1478 0.950 . S
H1459 C1479 0.950 . S
H1460 C1481 0.950 . S
H1461 C1484 0.950 . S
H1462 C1485 0.950 . S
H1463 C1487 0.950 . S
H1464 C1488 0.950 . S
H1465 C1489 0.951 . S
H1466 C1491 0.951 . S
H1467 C1493 0.950 . S
H1468 C1494 0.950 . S
H1469 C1496 0.950 . S
H1470 C1499 0.950 . S
H1471 C1500 0.950 . S
H1472 C1502 0.950 . S
H1473 C1503 0.950 . S
C1474 H1456 0.951 . S
C1474 C1475 1.366 . S
C1474 C1476 1.388 . S
C1475 C1474 1.366 . S
C1475 C1479 1.385 . S
C1476 H1457 0.951 . S
C1476 C1474 1.388 . S
C1476 C1477 1.366 . S
C1477 C1476 1.366 . S
C1477 C1478 1.414 . S
C1477 C1480 1.499 . S
C1478 H1458 0.950 . S
C1478 C1477 1.414 . S
C1478 C1479 1.374 . S
C1479 H1459 0.950 . S
C1479 C1475 1.385 . S
C1479 C1478 1.374 . S
C1480 C1477 1.499 . S
C1480 C1481 1.373 . S
C1480 C1482 1.389 . S
C1481 H1460 0.950 . S
C1481 C1480 1.373 . S
C1481 C1497 1.377 . S
C1482 C1480 1.389 . S
C1482 C1483 1.524 . S
C1482 C1496 1.377 . S
C1483 C1482 1.524 . S
C1483 C1484 1.397 . S
C1483 C1488 1.363 . S
C1484 H1461 0.950 . S
C1484 C1483 1.397 . S
C1484 C1485 1.334 . S
C1485 H1462 0.950 . S
C1485 C1484 1.334 . S
C1485 C1486 1.287 . S
C1486 C1485 1.287 . S
C1486 C1487 1.524 . S
C1486 H1505 0.913 . S
C1487 H1463 0.950 . S
C1487 C1486 1.524 . S
C1487 C1488 1.415 . S
C1488 H1464 0.950 . S
C1488 C1483 1.363 . S
C1488 C1487 1.415 . S
C1489 H1465 0.951 . S
C1489 C1490 1.366 . S
C1489 C1491 1.388 . S
C1490 C1489 1.366 . S
C1490 C1494 1.385 . S
C1491 H1466 0.951 . S
C1491 C1489 1.388 . S
C1491 C1492 1.366 . S
C1492 C1491 1.366 . S
C1492 C1493 1.414 . S
C1492 C1495 1.499 . S
C1493 H1467 0.950 . S
C1493 C1492 1.414 . S
C1493 C1494 1.374 . S
C1494 H1468 0.950 . S
C1494 C1490 1.385 . S
C1494 C1493 1.374 . S
C1495 C1492 1.499 . S
C1495 C1496 1.373 . S
C1495 C1497 1.389 . S
C1496 H1469 0.950 . S
C1496 C1482 1.377 . S
C1496 C1495 1.373 . S
C1497 C1481 1.377 . S
C1497 C1495 1.389 . S
C1497 C1498 1.524 . S
C1498 C1497 1.524 . S
C1498 C1499 1.397 . S
C1498 C1503 1.363 . S
C1499 H1470 0.950 . S
C1499 C1498 1.397 . S
C1499 C1500 1.334 . S
C1500 H1471 0.950 . S
C1500 C1499 1.334 . S
C1500 C1501 1.287 . S
C1501 C1500 1.287 . S
C1501 C1502 1.524 . S
C1501 H1504 0.999 . S
C1502 H1472 0.950 . S
C1502 C1501 1.524 . S
C1502 C1503 1.415 . S
C1503 H1473 0.950 . S
C1503 C1498 1.363 . S
C1503 C1502 1.415 . S
H1504 C1501 0.999 . S
H1505 C1486 0.913 . S
H1506 C1524 0.951 . S
H1507 C1526 0.951 1_556 S
H1508 C1528 0.950 . S
H1509 C1529 0.950 . S
H1510 C1531 0.950 . S
H1511 C1534 0.950 . S
H1512 C1535 0.950 . S
H1513 C1537 0.950 . S
H1514 C1538 0.950 . S
H1515 C1539 0.951 . S
H1516 C1541 0.951 1_554 S
H1517 C1543 0.950 . S
H1518 C1544 0.950 . S
H1519 C1546 0.950 . S
H1520 C1549 0.950 . S
H1521 C1550 0.950 . S
H1522 C1552 0.950 . S
H1523 C1553 0.950 . S
C1524 H1506 0.951 . S
C1524 C1525 1.366 . S
C1524 C1526 1.388 . S
C1525 C1524 1.366 . S
C1525 C1529 1.385 . S
C1526 H1507 0.951 1_554 S
C1526 C1524 1.388 . S
C1526 C1527 1.366 . S
C1527 C1526 1.366 . S
C1527 C1528 1.414 . S
C1527 C1530 1.499 . S
C1528 H1508 0.950 . S
C1528 C1527 1.414 . S
C1528 C1529 1.374 . S
C1529 H1509 0.950 . S
C1529 C1525 1.385 . S
C1529 C1528 1.374 . S
C1530 C1527 1.499 . S
C1530 C1531 1.373 . S
C1530 C1532 1.389 1_554 S
C1531 H1510 0.950 . S
C1531 C1530 1.373 . S
C1531 C1547 1.377 . S
C1532 C1530 1.389 1_556 S
C1532 C1533 1.524 . S
C1532 C1546 1.377 . S
C1533 C1532 1.524 . S
C1533 C1534 1.397 1_556 S
C1533 C1538 1.363 . S
C1534 H1511 0.950 . S
C1534 C1533 1.397 1_554 S
C1534 C1535 1.334 . S
C1535 H1512 0.950 . S
C1535 C1534 1.334 . S
C1535 C1536 1.287 1_554 S
C1536 C1535 1.287 1_556 S
C1536 C1537 1.524 . S
C1536 H1555 0.913 . S
C1537 H1513 0.950 . S
C1537 C1536 1.524 . S
C1537 C1538 1.415 . S
C1538 H1514 0.950 . S
C1538 C1533 1.363 . S
C1538 C1537 1.415 . S
C1539 H1515 0.951 . S
C1539 C1540 1.366 . S
C1539 C1541 1.388 . S
C1540 C1539 1.366 . S
C1540 C1544 1.385 . S
C1541 H1516 0.951 1_556 S
C1541 C1539 1.388 . S
C1541 C1542 1.366 . S
C1542 C1541 1.366 . S
C1542 C1543 1.414 . S
C1542 C1545 1.499 . S
C1543 H1517 0.950 . S
C1543 C1542 1.414 . S
C1543 C1544 1.374 . S
C1544 H1518 0.950 . S
C1544 C1540 1.385 . S
C1544 C1543 1.374 . S
C1545 C1542 1.499 . S
C1545 C1546 1.373 . S
C1545 C1547 1.389 1_556 S
C1546 H1519 0.950 . S
C1546 C1532 1.377 . S
C1546 C1545 1.373 . S
C1547 C1531 1.377 . S
C1547 C1545 1.389 1_554 S
C1547 C1548 1.524 . S
C1548 C1547 1.524 . S
C1548 C1549 1.397 1_554 S
C1548 C1553 1.363 . S
C1549 H1520 0.950 . S
C1549 C1548 1.397 1_556 S
C1549 C1550 1.334 . S
C1550 H1521 0.950 . S
C1550 C1549 1.334 . S
C1550 C1551 1.287 1_556 S
C1551 C1550 1.287 1_554 S
C1551 C1552 1.524 . S
C1551 H1554 0.999 . S
C1552 H1522 0.950 . S
C1552 C1551 1.524 . S
C1552 C1553 1.415 . S
C1553 H1523 0.950 . S
C1553 C1548 1.363 . S
C1553 C1552 1.415 . S
H1554 C1551 0.999 . S
H1555 C1536 0.913 . S
H1556 C1574 0.951 . S
H1557 C1576 0.951 . S
H1558 C1578 0.950 . S
H1559 C1579 0.950 . S
H1560 C1581 0.950 . S
H1561 C1584 0.950 . S
H1562 C1585 0.950 . S
H1563 C1587 0.950 . S
H1564 C1588 0.950 . S
H1565 C1589 0.951 . S
H1566 C1591 0.951 . S
H1567 C1593 0.950 . S
H1568 C1594 0.950 . S
H1569 C1596 0.950 . S
H1570 C1599 0.950 . S
H1571 C1600 0.950 . S
H1572 C1602 0.950 . S
H1573 C1603 0.950 . S
C1574 H1556 0.951 . S
C1574 C1575 1.366 . S
C1574 C1576 1.388 . S
C1575 C1574 1.366 . S
C1575 C1579 1.385 . S
C1576 H1557 0.951 . S
C1576 C1574 1.388 . S
C1576 C1577 1.366 . S
C1577 C1576 1.366 . S
C1577 C1578 1.414 . S
C1577 C1580 1.499 . S
C1578 H1558 0.950 . S
C1578 C1577 1.414 . S
C1578 C1579 1.374 . S
C1579 H1559 0.950 . S
C1579 C1575 1.385 . S
C1579 C1578 1.374 . S
C1580 C1577 1.499 . S
C1580 C1581 1.373 . S
C1580 C1582 1.389 . S
C1581 H1560 0.950 . S
C1581 C1580 1.373 . S
C1581 C1597 1.377 . S
C1582 C1580 1.389 . S
C1582 C1583 1.524 . S
C1582 C1596 1.377 . S
C1583 C1582 1.524 . S
C1583 C1584 1.397 . S
C1583 C1588 1.363 . S
C1584 H1561 0.950 . S
C1584 C1583 1.397 . S
C1584 C1585 1.334 . S
C1585 H1562 0.950 . S
C1585 C1584 1.334 . S
C1585 C1586 1.287 . S
C1586 C1585 1.287 . S
C1586 C1587 1.524 . S
C1586 H1605 0.913 . S
C1587 H1563 0.950 . S
C1587 C1586 1.524 . S
C1587 C1588 1.415 . S
C1588 H1564 0.950 . S
C1588 C1583 1.363 . S
C1588 C1587 1.415 . S
C1589 H1565 0.951 . S
C1589 C1590 1.366 . S
C1589 C1591 1.388 . S
C1590 C1589 1.366 . S
C1590 C1594 1.385 . S
C1591 H1566 0.951 . S
C1591 C1589 1.388 . S
C1591 C1592 1.366 . S
C1592 C1591 1.366 . S
C1592 C1593 1.414 . S
C1592 C1595 1.499 . S
C1593 H1567 0.950 . S
C1593 C1592 1.414 . S
C1593 C1594 1.374 . S
C1594 H1568 0.950 . S
C1594 C1590 1.385 . S
C1594 C1593 1.374 . S
C1595 C1592 1.499 . S
C1595 C1596 1.373 . S
C1595 C1597 1.389 . S
C1596 H1569 0.950 . S
C1596 C1582 1.377 . S
C1596 C1595 1.373 . S
C1597 C1581 1.377 . S
C1597 C1595 1.389 . S
C1597 C1598 1.524 . S
C1598 C1597 1.524 . S
C1598 C1599 1.397 . S
C1598 C1603 1.363 . S
C1599 H1570 0.950 . S
C1599 C1598 1.397 . S
C1599 C1600 1.334 . S
C1600 H1571 0.950 . S
C1600 C1599 1.334 . S
C1600 C1601 1.287 . S
C1601 C1600 1.287 . S
C1601 C1602 1.524 . S
C1601 H1604 0.999 . S
C1602 H1572 0.950 . S
C1602 C1601 1.524 . S
C1602 C1603 1.415 . S
C1603 H1573 0.950 . S
C1603 C1598 1.363 . S
C1603 C1602 1.415 . S
H1604 C1601 0.999 . S
H1605 C1586 0.913 . S
H1606 C1624 0.951 . S
H1607 C1626 0.951 . S
H1608 C1628 0.950 . S
H1609 C1629 0.950 . S
H1610 C1631 0.950 . S
H1611 C1634 0.950 . S
H1612 C1635 0.950 . S
H1613 C1637 0.950 . S
H1614 C1638 0.950 . S
H1615 C1639 0.951 . S
H1616 C1641 0.951 . S
H1617 C1643 0.950 . S
H1618 C1644 0.950 . S
H1619 C1646 0.950 . S
H1620 C1649 0.950 . S
H1621 C1650 0.950 . S
H1622 C1652 0.950 . S
H1623 C1653 0.950 . S
C1624 H1606 0.951 . S
C1624 C1625 1.366 . S
C1624 C1626 1.388 . S
C1625 C1624 1.366 . S
C1625 C1629 1.385 . S
C1626 H1607 0.951 . S
C1626 C1624 1.388 . S
C1626 C1627 1.366 . S
C1627 C1626 1.366 . S
C1627 C1628 1.414 . S
C1627 C1630 1.499 . S
C1628 H1608 0.950 . S
C1628 C1627 1.414 . S
C1628 C1629 1.374 . S
C1629 H1609 0.950 . S
C1629 C1625 1.385 . S
C1629 C1628 1.374 . S
C1630 C1627 1.499 . S
C1630 C1631 1.373 . S
C1630 C1632 1.389 . S
C1631 H1610 0.950 . S
C1631 C1630 1.373 . S
C1631 C1647 1.377 . S
C1632 C1630 1.389 . S
C1632 C1633 1.524 . S
C1632 C1646 1.377 . S
C1633 C1632 1.524 . S
C1633 C1634 1.397 . S
C1633 C1638 1.363 . S
C1634 H1611 0.950 . S
C1634 C1633 1.397 . S
C1634 C1635 1.334 . S
C1635 H1612 0.950 . S
C1635 C1634 1.334 . S
C1635 C1636 1.287 . S
C1636 C1635 1.287 . S
C1636 C1637 1.524 . S
C1636 H1655 0.913 . S
C1637 H1613 0.950 . S
C1637 C1636 1.524 . S
C1637 C1638 1.415 . S
C1638 H1614 0.950 . S
C1638 C1633 1.363 . S
C1638 C1637 1.415 . S
C1639 H1615 0.951 . S
C1639 C1640 1.366 . S
C1639 C1641 1.388 . S
C1640 C1639 1.366 . S
C1640 C1644 1.385 . S
C1641 H1616 0.951 . S
C1641 C1639 1.388 . S
C1641 C1642 1.366 . S
C1642 C1641 1.366 . S
C1642 C1643 1.414 . S
C1642 C1645 1.499 . S
C1643 H1617 0.950 . S
C1643 C1642 1.414 . S
C1643 C1644 1.374 . S
C1644 H1618 0.950 . S
C1644 C1640 1.385 . S
C1644 C1643 1.374 . S
C1645 C1642 1.499 . S
C1645 C1646 1.373 . S
C1645 C1647 1.389 . S
C1646 H1619 0.950 . S
C1646 C1632 1.377 . S
C1646 C1645 1.373 . S
C1647 C1631 1.377 . S
C1647 C1645 1.389 . S
C1647 C1648 1.524 . S
C1648 C1647 1.524 . S
C1648 C1649 1.397 . S
C1648 C1653 1.363 . S
C1649 H1620 0.950 . S
C1649 C1648 1.397 . S
C1649 C1650 1.334 . S
C1650 H1621 0.950 . S
C1650 C1649 1.334 . S
C1650 C1651 1.287 . S
C1651 C1650 1.287 . S
C1651 C1652 1.524 . S
C1651 H1654 0.999 . S
C1652 H1622 0.950 . S
C1652 C1651 1.524 . S
C1652 C1653 1.415 . S
C1653 H1623 0.950 . S
C1653 C1648 1.363 . S
C1653 C1652 1.415 . S
H1654 C1651 0.999 . S
H1655 C1636 0.913 . S
H1656 C1674 0.951 . S
H1657 C1676 0.951 . S
H1658 C1678 0.950 . S
H1659 C1679 0.950 . S
H1660 C1681 0.950 . S
H1661 C1684 0.950 . S
H1662 C1685 0.950 . S
H1663 C1687 0.950 . S
H1664 C1688 0.950 . S
H1665 C1689 0.951 . S
H1666 C1691 0.951 . S
H1667 C1693 0.950 . S
H1668 C1694 0.950 . S
H1669 C1696 0.950 . S
H1670 C1699 0.950 . S
H1671 C1700 0.950 . S
H1672 C1702 0.950 . S
H1673 C1703 0.950 . S
C1674 H1656 0.951 . S
C1674 C1675 1.366 . S
C1674 C1676 1.388 . S
C1675 C1674 1.366 . S
C1675 C1679 1.385 . S
C1676 H1657 0.951 . S
C1676 C1674 1.388 . S
C1676 C1677 1.366 . S
C1677 C1676 1.366 . S
C1677 C1678 1.414 . S
C1677 C1680 1.499 . S
C1678 H1658 0.950 . S
C1678 C1677 1.414 . S
C1678 C1679 1.374 . S
C1679 H1659 0.950 . S
C1679 C1675 1.385 . S
C1679 C1678 1.374 . S
C1680 C1677 1.499 . S
C1680 C1681 1.373 . S
C1680 C1682 1.389 . S
C1681 H1660 0.950 . S
C1681 C1680 1.373 . S
C1681 C1697 1.377 . S
C1682 C1680 1.389 . S
C1682 C1683 1.524 . S
C1682 C1696 1.377 . S
C1683 C1682 1.524 . S
C1683 C1684 1.397 . S
C1683 C1688 1.363 . S
C1684 H1661 0.950 . S
C1684 C1683 1.397 . S
C1684 C1685 1.334 . S
C1685 H1662 0.950 . S
C1685 C1684 1.334 . S
C1685 C1686 1.287 . S
C1686 C1685 1.287 . S
C1686 C1687 1.524 . S
C1686 H1705 0.913 . S
C1687 H1663 0.950 . S
C1687 C1686 1.524 . S
C1687 C1688 1.415 . S
C1688 H1664 0.950 . S
C1688 C1683 1.363 . S
C1688 C1687 1.415 . S
C1689 H1665 0.951 . S
C1689 C1690 1.366 . S
C1689 C1691 1.388 . S
C1690 C1689 1.366 . S
C1690 C1694 1.385 . S
C1691 H1666 0.951 . S
C1691 C1689 1.388 . S
C1691 C1692 1.366 . S
C1692 C1691 1.366 . S
C1692 C1693 1.414 . S
C1692 C1695 1.499 . S
C1693 H1667 0.950 . S
C1693 C1692 1.414 . S
C1693 C1694 1.374 . S
C1694 H1668 0.950 . S
C1694 C1690 1.385 . S
C1694 C1693 1.374 . S
C1695 C1692 1.499 . S
C1695 C1696 1.373 . S
C1695 C1697 1.389 . S
C1696 H1669 0.950 . S
C1696 C1682 1.377 . S
C1696 C1695 1.373 . S
C1697 C1681 1.377 . S
C1697 C1695 1.389 . S
C1697 C1698 1.524 . S
C1698 C1697 1.524 . S
C1698 C1699 1.397 . S
C1698 C1703 1.363 . S
C1699 H1670 0.950 . S
C1699 C1698 1.397 . S
C1699 C1700 1.334 . S
C1700 H1671 0.950 . S
C1700 C1699 1.334 . S
C1700 C1701 1.287 . S
C1701 C1700 1.287 . S
C1701 C1702 1.524 . S
C1701 H1704 0.999 . S
C1702 H1672 0.950 . S
C1702 C1701 1.524 . S
C1702 C1703 1.415 . S
C1703 H1673 0.950 . S
C1703 C1698 1.363 . S
C1703 C1702 1.415 . S
H1704 C1701 0.999 . S
H1705 C1686 0.913 . S
H1706 C1724 0.951 . S
H1707 C1726 0.951 . S
H1708 C1728 0.950 . S
H1709 C1729 0.950 . S
H1710 C1731 0.950 . S
H1711 C1734 0.950 . S
H1712 C1735 0.950 . S
H1713 C1737 0.950 . S
H1714 C1738 0.950 . S
H1715 C1739 0.951 . S
H1716 C1741 0.951 . S
H1717 C1743 0.950 . S
H1718 C1744 0.950 . S
H1719 C1746 0.950 . S
H1720 C1749 0.950 . S
H1721 C1750 0.950 . S
H1722 C1752 0.950 . S
H1723 C1753 0.950 . S
C1724 H1706 0.951 . S
C1724 C1725 1.366 1_655 S
C1724 C1726 1.388 . S
C1725 C1724 1.366 1_455 S
C1725 C1729 1.385 . S
C1726 H1707 0.951 . S
C1726 C1724 1.388 . S
C1726 C1727 1.366 1_655 S
C1727 C1726 1.366 1_455 S
C1727 C1728 1.414 . S
C1727 C1730 1.499 . S
C1728 H1708 0.950 . S
C1728 C1727 1.414 . S
C1728 C1729 1.374 . S
C1729 H1709 0.950 . S
C1729 C1725 1.385 . S
C1729 C1728 1.374 . S
C1730 C1727 1.499 . S
C1730 C1731 1.373 . S
C1730 C1732 1.389 1_455 S
C1731 H1710 0.950 . S
C1731 C1730 1.373 . S
C1731 C1747 1.377 . S
C1732 C1730 1.389 1_655 S
C1732 C1733 1.524 . S
C1732 C1746 1.377 . S
C1733 C1732 1.524 . S
C1733 C1734 1.397 . S
C1733 C1738 1.363 . S
C1734 H1711 0.950 . S
C1734 C1733 1.397 . S
C1734 C1735 1.334 . S
C1735 H1712 0.950 . S
C1735 C1734 1.334 . S
C1735 C1736 1.287 . S
C1736 C1735 1.287 . S
C1736 C1737 1.524 . S
C1736 H1755 0.913 . S
C1737 H1713 0.950 . S
C1737 C1736 1.524 . S
C1737 C1738 1.415 . S
C1738 H1714 0.950 . S
C1738 C1733 1.363 . S
C1738 C1737 1.415 . S
C1739 H1715 0.951 . S
C1739 C1740 1.366 1_455 S
C1739 C1741 1.388 . S
C1740 C1739 1.366 1_655 S
C1740 C1744 1.385 . S
C1741 H1716 0.951 . S
C1741 C1739 1.388 . S
C1741 C1742 1.366 1_455 S
C1742 C1741 1.366 1_655 S
C1742 C1743 1.414 . S
C1742 C1745 1.499 . S
C1743 H1717 0.950 . S
C1743 C1742 1.414 . S
C1743 C1744 1.374 . S
C1744 H1718 0.950 . S
C1744 C1740 1.385 . S
C1744 C1743 1.374 . S
C1745 C1742 1.499 . S
C1745 C1746 1.373 . S
C1745 C1747 1.389 1_655 S
C1746 H1719 0.950 . S
C1746 C1732 1.377 . S
C1746 C1745 1.373 . S
C1747 C1731 1.377 . S
C1747 C1745 1.389 1_455 S
C1747 C1748 1.524 . S
C1748 C1747 1.524 . S
C1748 C1749 1.397 . S
C1748 C1753 1.363 . S
C1749 H1720 0.950 . S
C1749 C1748 1.397 . S
C1749 C1750 1.334 . S
C1750 H1721 0.950 . S
C1750 C1749 1.334 . S
C1750 C1751 1.287 . S
C1751 C1750 1.287 . S
C1751 C1752 1.524 . S
C1751 H1754 0.999 . S
C1752 H1722 0.950 . S
C1752 C1751 1.524 . S
C1752 C1753 1.415 . S
C1753 H1723 0.950 . S
C1753 C1748 1.363 . S
C1753 C1752 1.415 . S
H1754 C1751 0.999 . S
H1755 C1736 0.913 . S
H1756 C1774 0.951 1_565 S
H1757 C1776 0.951 . S
H1758 C1778 0.950 . S
H1759 C1779 0.950 . S
H1760 C1781 0.950 . S
H1761 C1784 0.950 . S
H1762 C1785 0.950 . S
H1763 C1787 0.950 . S
H1764 C1788 0.950 . S
H1765 C1789 0.951 1_545 S
H1766 C1791 0.951 . S
H1767 C1793 0.950 . S
H1768 C1794 0.950 . S
H1769 C1796 0.950 . S
H1770 C1799 0.950 . S
H1771 C1800 0.950 . S
H1772 C1802 0.950 . S
H1773 C1803 0.950 . S
C1774 H1756 0.951 1_545 S
C1774 C1775 1.375 . S
C1774 C1776 1.381 1_545 S
C1775 C1774 1.375 . S
C1775 C1779 1.385 . S
C1776 H1757 0.951 . S
C1776 C1774 1.381 1_565 S
C1776 C1777 1.366 1_565 S
C1777 C1776 1.366 1_545 S
C1777 C1778 1.414 . S
C1777 C1780 1.499 . S
C1778 H1758 0.950 . S
C1778 C1777 1.414 . S
C1778 C1779 1.374 . S
C1779 H1759 0.950 . S
C1779 C1775 1.385 . S
C1779 C1778 1.374 . S
C1780 C1777 1.499 . S
C1780 C1781 1.373 . S
C1780 C1782 1.389 1_545 S
C1781 H1760 0.950 . S
C1781 C1780 1.373 . S
C1781 C1797 1.377 . S
C1782 C1780 1.389 1_565 S
C1782 C1783 1.524 . S
C1782 C1796 1.377 . S
C1783 C1782 1.524 . S
C1783 C1784 1.397 . S
C1783 C1788 1.363 . S
C1784 H1761 0.950 . S
C1784 C1783 1.397 . S
C1784 C1785 1.334 . S
C1785 H1762 0.950 . S
C1785 C1784 1.334 . S
C1785 C1786 1.287 . S
C1786 C1785 1.287 . S
C1786 C1787 1.524 . S
C1786 H1805 0.913 . S
C1787 H1763 0.950 . S
C1787 C1786 1.524 . S
C1787 C1788 1.415 . S
C1788 H1764 0.950 . S
C1788 C1783 1.363 . S
C1788 C1787 1.415 . S
C1789 H1765 0.951 1_565 S
C1789 C1790 1.375 . S
C1789 C1791 1.381 1_565 S
C1790 C1789 1.375 . S
C1790 C1794 1.385 . S
C1791 H1766 0.951 . S
C1791 C1789 1.381 1_545 S
C1791 C1792 1.366 1_545 S
C1792 C1791 1.366 1_565 S
C1792 C1793 1.414 . S
C1792 C1795 1.499 . S
C1793 H1767 0.950 . S
C1793 C1792 1.414 . S
C1793 C1794 1.374 . S
C1794 H1768 0.950 . S
C1794 C1790 1.385 . S
C1794 C1793 1.374 . S
C1795 C1792 1.499 . S
C1795 C1796 1.373 . S
C1795 C1797 1.389 1_565 S
C1796 H1769 0.950 . S
C1796 C1782 1.377 . S
C1796 C1795 1.373 . S
C1797 C1781 1.377 . S
C1797 C1795 1.389 1_545 S
C1797 C1798 1.524 . S
C1798 C1797 1.524 . S
C1798 C1799 1.397 . S
C1798 C1803 1.363 . S
C1799 H1770 0.950 . S
C1799 C1798 1.397 . S
C1799 C1800 1.334 . S
C1800 H1771 0.950 . S
C1800 C1799 1.334 . S
C1800 C1801 1.287 . S
C1801 C1800 1.287 . S
C1801 C1802 1.524 . S
C1801 H1804 0.999 . S
C1802 H1772 0.950 . S
C1802 C1801 1.524 . S
C1802 C1803 1.415 . S
C1803 H1773 0.950 . S
C1803 C1798 1.363 . S
C1803 C1802 1.415 . S
H1804 C1801 0.999 . S
H1805 C1786 0.913 . S
H1806 C1824 0.951 . S
H1807 C1826 0.951 . S
H1808 C1828 0.950 . S
H1809 C1829 0.950 . S
H1810 C1831 0.950 . S
H1811 C1834 0.950 . S
H1812 C1835 0.950 . S
H1813 C1837 0.950 . S
H1814 C1838 0.950 . S
H1815 C1839 0.951 . S
H1816 C1841 0.951 . S
H1817 C1843 0.950 . S
H1818 C1844 0.950 . S
H1819 C1846 0.950 . S
H1820 C1849 0.950 . S
H1821 C1850 0.950 . S
H1822 C1852 0.950 . S
H1823 C1853 0.950 . S
C1824 H1806 0.951 . S
C1824 C1825 1.366 . S
C1824 C1826 1.388 . S
C1825 C1824 1.366 . S
C1825 C1829 1.385 . S
C1826 H1807 0.951 . S
C1826 C1824 1.388 . S
C1826 C1827 1.366 . S
C1827 C1826 1.366 . S
C1827 C1828 1.414 . S
C1827 C1830 1.499 . S
C1828 H1808 0.950 . S
C1828 C1827 1.414 . S
C1828 C1829 1.374 . S
C1829 H1809 0.950 . S
C1829 C1825 1.385 . S
C1829 C1828 1.374 . S
C1830 C1827 1.499 . S
C1830 C1831 1.373 . S
C1830 C1832 1.389 . S
C1831 H1810 0.950 . S
C1831 C1830 1.373 . S
C1831 C1847 1.377 . S
C1832 C1830 1.389 . S
C1832 C1833 1.524 . S
C1832 C1846 1.377 . S
C1833 C1832 1.524 . S
C1833 C1834 1.397 . S
C1833 C1838 1.363 . S
C1834 H1811 0.950 . S
C1834 C1833 1.397 . S
C1834 C1835 1.334 . S
C1835 H1812 0.950 . S
C1835 C1834 1.334 . S
C1835 C1836 1.287 . S
C1836 C1835 1.287 . S
C1836 C1837 1.524 . S
C1836 H1855 0.913 . S
C1837 H1813 0.950 . S
C1837 C1836 1.524 . S
C1837 C1838 1.415 . S
C1838 H1814 0.950 . S
C1838 C1833 1.363 . S
C1838 C1837 1.415 . S
C1839 H1815 0.951 . S
C1839 C1840 1.366 . S
C1839 C1841 1.388 . S
C1840 C1839 1.366 . S
C1840 C1844 1.385 . S
C1841 H1816 0.951 . S
C1841 C1839 1.388 . S
C1841 C1842 1.366 . S
C1842 C1841 1.366 . S
C1842 C1843 1.414 . S
C1842 C1845 1.499 . S
C1843 H1817 0.950 . S
C1843 C1842 1.414 . S
C1843 C1844 1.374 . S
C1844 H1818 0.950 . S
C1844 C1840 1.385 . S
C1844 C1843 1.374 . S
C1845 C1842 1.499 . S
C1845 C1846 1.373 . S
C1845 C1847 1.389 . S
C1846 H1819 0.950 . S
C1846 C1832 1.377 . S
C1846 C1845 1.373 . S
C1847 C1831 1.377 . S
C1847 C1845 1.389 . S
C1847 C1848 1.524 . S
C1848 C1847 1.524 . S
C1848 C1849 1.397 . S
C1848 C1853 1.363 . S
C1849 H1820 0.950 . S
C1849 C1848 1.397 . S
C1849 C1850 1.334 . S
C1850 H1821 0.950 . S
C1850 C1849 1.334 . S
C1850 C1851 1.287 . S
C1851 C1850 1.287 . S
C1851 C1852 1.524 . S
C1851 H1854 0.999 . S
C1852 H1822 0.950 . S
C1852 C1851 1.524 . S
C1852 C1853 1.415 . S
C1853 H1823 0.950 . S
C1853 C1848 1.363 . S
C1853 C1852 1.415 . S
H1854 C1851 0.999 . S
H1855 C1836 0.913 . S
H1856 C1874 0.951 . S
H1857 C1876 0.951 . S
H1858 C1878 0.950 . S
H1859 C1879 0.950 . S
H1860 C1881 0.950 . S
H1861 C1884 0.950 . S
H1862 C1885 0.950 . S
H1863 C1887 0.960 . S
H1864 C1888 0.950 . S
H1865 C1889 0.951 . S
H1866 C1891 0.951 . S
H1867 C1893 0.950 . S
H1868 C1894 0.950 . S
H1869 C1896 0.950 . S
H1870 C1899 0.950 . S
H1871 C1900 0.950 . S
H1872 C1902 0.961 . S
H1873 C1903 0.950 . S
C1874 H1856 0.951 . S
C1874 C1875 1.366 1_455 S
C1874 C1876 1.388 . S
C1875 C1874 1.366 1_655 S
C1875 C1879 1.385 . S
C1876 H1857 0.951 . S
C1876 C1874 1.388 . S
C1876 C1877 1.366 1_455 S
C1877 C1876 1.366 1_655 S
C1877 C1878 1.414 . S
C1877 C1880 1.499 . S
C1878 H1858 0.950 . S
C1878 C1877 1.414 . S
C1878 C1879 1.374 . S
C1879 H1859 0.950 . S
C1879 C1875 1.385 . S
C1879 C1878 1.374 . S
C1880 C1877 1.499 . S
C1880 C1881 1.373 . S
C1880 C1882 1.389 . S
C1881 H1860 0.950 . S
C1881 C1880 1.373 . S
C1881 C1897 1.377 1_655 S
C1882 C1880 1.389 . S
C1882 C1883 1.524 . S
C1882 C1896 1.377 1_655 S
C1883 C1882 1.524 . S
C1883 C1884 1.397 . S
C1883 C1888 1.363 1_655 S
C1884 H1861 0.950 . S
C1884 C1883 1.397 . S
C1884 C1885 1.334 . S
C1885 H1862 0.950 . S
C1885 C1884 1.334 . S
C1885 C1886 1.287 . S
C1886 C1885 1.287 . S
C1886 C1887 1.471 1_655 S
C1886 H1905 0.913 . S
C1887 H1863 0.960 . S
C1887 C1886 1.471 1_455 S
C1887 C1888 1.460 . S
C1888 H1864 0.950 . S
C1888 C1883 1.363 1_455 S
C1888 C1887 1.460 . S
C1889 H1865 0.951 . S
C1889 C1890 1.366 1_655 S
C1889 C1891 1.388 . S
C1890 C1889 1.366 1_455 S
C1890 C1894 1.385 . S
C1891 H1866 0.951 . S
C1891 C1889 1.388 . S
C1891 C1892 1.366 1_655 S
C1892 C1891 1.366 1_455 S
C1892 C1893 1.414 . S
C1892 C1895 1.499 . S
C1893 H1867 0.950 . S
C1893 C1892 1.414 . S
C1893 C1894 1.374 . S
C1894 H1868 0.950 . S
C1894 C1890 1.385 . S
C1894 C1893 1.374 . S
C1895 C1892 1.499 . S
C1895 C1896 1.373 . S
C1895 C1897 1.389 . S
C1896 H1869 0.950 . S
C1896 C1882 1.377 1_455 S
C1896 C1895 1.373 . S
C1897 C1881 1.377 1_455 S
C1897 C1895 1.389 . S
C1897 C1898 1.524 . S
C1898 C1897 1.524 . S
C1898 C1899 1.397 . S
C1898 C1903 1.363 1_455 S
C1899 H1870 0.950 . S
C1899 C1898 1.397 . S
C1899 C1900 1.334 . S
C1900 H1871 0.950 . S
C1900 C1899 1.334 . S
C1900 C1901 1.287 . S
C1901 C1900 1.287 . S
C1901 C1902 1.470 1_455 S
C1901 H1904 0.999 . S
C1902 H1872 0.961 . S
C1902 C1901 1.470 1_655 S
C1902 C1903 1.460 . S
C1903 H1873 0.950 . S
C1903 C1898 1.363 1_655 S
C1903 C1902 1.460 . S
H1904 C1901 0.999 . S
H1905 C1886 0.913 . S
H1906 C1924 0.951 . S
H1907 C1926 0.951 . S
H1908 C1928 0.950 . S
H1909 C1929 0.950 . S
H1910 C1931 0.950 . S
H1911 C1934 0.950 . S
H1912 C1935 0.950 . S
H1913 C1937 0.950 . S
H1914 C1938 0.950 . S
H1915 C1939 0.951 . S
H1916 C1941 0.951 . S
H1917 C1943 0.950 . S
H1918 C1944 0.950 . S
H1919 C1946 0.950 . S
H1920 C1949 0.950 . S
H1921 C1950 0.950 . S
H1922 C1952 0.950 . S
H1923 C1953 0.950 . S
C1924 H1906 0.951 . S
C1924 C1925 1.366 . S
C1924 C1926 1.388 . S
C1925 C1924 1.366 . S
C1925 C1929 1.385 1_545 S
C1926 H1907 0.951 . S
C1926 C1924 1.388 . S
C1926 C1927 1.366 . S
C1927 C1926 1.366 . S
C1927 C1928 1.414 1_545 S
C1927 C1930 1.499 . S
C1928 H1908 0.950 . S
C1928 C1927 1.414 1_565 S
C1928 C1929 1.374 . S
C1929 H1909 0.950 . S
C1929 C1925 1.385 1_565 S
C1929 C1928 1.374 . S
C1930 C1927 1.499 . S
C1930 C1931 1.373 1_545 S
C1930 C1932 1.389 . S
C1931 H1910 0.950 . S
C1931 C1930 1.373 1_565 S
C1931 C1947 1.377 . S
C1932 C1930 1.389 . S
C1932 C1933 1.524 . S
C1932 C1946 1.377 . S
C1933 C1932 1.524 . S
C1933 C1934 1.397 . S
C1933 C1938 1.363 . S
C1934 H1911 0.950 . S
C1934 C1933 1.397 . S
C1934 C1935 1.334 . S
C1935 H1912 0.950 . S
C1935 C1934 1.334 . S
C1935 C1936 1.287 . S
C1936 C1935 1.287 . S
C1936 C1937 1.524 . S
C1936 H1955 0.913 . S
C1937 H1913 0.950 . S
C1937 C1936 1.524 . S
C1937 C1938 1.415 . S
C1938 H1914 0.950 . S
C1938 C1933 1.363 . S
C1938 C1937 1.415 . S
C1939 H1915 0.951 . S
C1939 C1940 1.366 . S
C1939 C1941 1.388 . S
C1940 C1939 1.366 . S
C1940 C1944 1.385 1_565 S
C1941 H1916 0.951 . S
C1941 C1939 1.388 . S
C1941 C1942 1.366 . S
C1942 C1941 1.366 . S
C1942 C1943 1.414 1_565 S
C1942 C1945 1.499 . S
C1943 H1917 0.950 . S
C1943 C1942 1.414 1_545 S
C1943 C1944 1.374 . S
C1944 H1918 0.950 . S
C1944 C1940 1.385 1_545 S
C1944 C1943 1.374 . S
C1945 C1942 1.499 . S
C1945 C1946 1.373 1_565 S
C1945 C1947 1.389 . S
C1946 H1919 0.950 . S
C1946 C1932 1.377 . S
C1946 C1945 1.373 1_545 S
C1947 C1931 1.377 . S
C1947 C1945 1.389 . S
C1947 C1948 1.524 . S
C1948 C1947 1.524 . S
C1948 C1949 1.397 . S
C1948 C1953 1.363 . S
C1949 H1920 0.950 . S
C1949 C1948 1.397 . S
C1949 C1950 1.334 . S
C1950 H1921 0.950 . S
C1950 C1949 1.334 . S
C1950 C1951 1.287 . S
C1951 C1950 1.287 . S
C1951 C1952 1.524 . S
C1951 H1954 0.999 . S
C1952 H1922 0.950 . S
C1952 C1951 1.524 . S
C1952 C1953 1.415 . S
C1953 H1923 0.950 . S
C1953 C1948 1.363 . S
C1953 C1952 1.415 . S
H1954 C1951 0.999 . S
H1955 C1936 0.913 . S
H1956 C1974 0.951 . S
H1957 C1976 0.951 . S
H1958 C1978 0.950 . S
H1959 C1979 0.950 . S
H1960 C1981 0.950 . S
H1961 C1984 0.950 . S
H1962 C1985 0.950 . S
H1963 C1987 0.950 . S
H1964 C1988 0.950 . S
H1965 C1989 0.951 . S
H1966 C1991 0.951 . S
H1967 C1993 0.950 . S
H1968 C1994 0.950 . S
H1969 C1996 0.950 . S
H1970 C1999 0.950 1_554 S
H1971 C2000 0.950 . S
H1972 C2002 0.950 . S
H1973 C2003 0.950 . S
C1974 H1956 0.951 . S
C1974 C1975 1.366 . S
C1974 C1976 1.388 . S
C1975 C1974 1.366 . S
C1975 C1979 1.385 . S
C1976 H1957 0.951 . S
C1976 C1974 1.388 . S
C1976 C1977 1.366 . S
C1977 C1976 1.366 . S
C1977 C1978 1.414 . S
C1977 C1980 1.499 . S
C1978 H1958 0.950 . S
C1978 C1977 1.414 . S
C1978 C1979 1.374 . S
C1979 H1959 0.950 . S
C1979 C1975 1.385 . S
C1979 C1978 1.374 . S
C1980 C1977 1.499 . S
C1980 C1981 1.373 . S
C1980 C1982 1.389 . S
C1981 H1960 0.950 . S
C1981 C1980 1.373 . S
C1981 C1997 1.377 . S
C1982 C1980 1.389 . S
C1982 C1983 1.524 . S
C1982 C1996 1.377 . S
C1983 C1982 1.524 . S
C1983 C1984 1.397 . S
C1983 C1988 1.363 . S
C1984 H1961 0.950 . S
C1984 C1983 1.397 . S
C1984 C1985 1.334 . S
C1985 H1962 0.950 . S
C1985 C1984 1.334 . S
C1985 C1986 1.287 . S
C1986 C1985 1.287 . S
C1986 C1987 1.524 . S
C1986 H2005 0.913 . S
C1987 H1963 0.950 . S
C1987 C1986 1.524 . S
C1987 C1988 1.415 . S
C1988 H1964 0.950 . S
C1988 C1983 1.363 . S
C1988 C1987 1.415 . S
C1989 H1965 0.951 . S
C1989 C1990 1.366 . S
C1989 C1991 1.388 . S
C1990 C1989 1.366 . S
C1990 C1994 1.385 . S
C1991 H1966 0.951 . S
C1991 C1989 1.388 . S
C1991 C1992 1.366 . S
C1992 C1991 1.366 . S
C1992 C1993 1.414 . S
C1992 C1995 1.499 . S
C1993 H1967 0.950 . S
C1993 C1992 1.414 . S
C1993 C1994 1.374 . S
C1994 H1968 0.950 . S
C1994 C1990 1.385 . S
C1994 C1993 1.374 . S
C1995 C1992 1.499 . S
C1995 C1996 1.373 . S
C1995 C1997 1.389 . S
C1996 H1969 0.950 . S
C1996 C1982 1.377 . S
C1996 C1995 1.373 . S
C1997 C1981 1.377 . S
C1997 C1995 1.389 . S
C1997 C1998 1.524 . S
C1998 C1997 1.524 . S
C1998 C1999 1.397 1_554 S
C1998 C2003 1.363 . S
C1999 H1970 0.950 1_556 S
C1999 C1998 1.397 1_556 S
C1999 C2000 1.334 . S
C2000 H1971 0.950 . S
C2000 C1999 1.334 . S
C2000 C2001 1.287 . S
C2001 C2000 1.287 . S
C2001 C2002 1.524 . S
C2001 H2004 0.999 . S
C2002 H1972 0.950 . S
C2002 C2001 1.524 . S
C2002 C2003 1.415 1_556 S
C2003 H1973 0.950 . S
C2003 C1998 1.363 . S
C2003 C2002 1.415 1_554 S
H2004 C2001 0.999 . S
H2005 C1986 0.913 . S
H2006 C2024 0.951 . S
H2007 C2026 0.951 . S
H2008 C2028 0.950 . S
H2009 C2029 0.950 . S
H2010 C2031 0.950 . S
H2011 C2034 0.950 . S
H2012 C2035 0.950 . S
H2013 C2037 0.950 . S
H2014 C2038 0.950 . S
H2015 C2039 0.951 . S
H2016 C2041 0.951 . S
H2017 C2043 0.950 . S
H2018 C2044 0.950 . S
H2019 C2046 0.950 . S
H2020 C2049 0.950 . S
H2021 C2050 0.950 . S
H2022 C2052 0.950 . S
H2023 C2053 0.950 . S
C2024 H2006 0.951 . S
C2024 C2025 1.366 . S
C2024 C2026 1.388 . S
C2025 C2024 1.366 . S
C2025 C2029 1.385 . S
C2026 H2007 0.951 . S
C2026 C2024 1.388 . S
C2026 C2027 1.366 . S
C2027 C2026 1.366 . S
C2027 C2028 1.414 . S
C2027 C2030 1.499 . S
C2028 H2008 0.950 . S
C2028 C2027 1.414 . S
C2028 C2029 1.374 . S
C2029 H2009 0.950 . S
C2029 C2025 1.385 . S
C2029 C2028 1.374 . S
C2030 C2027 1.499 . S
C2030 C2031 1.373 . S
C2030 C2032 1.389 1_455 S
C2031 H2010 0.950 . S
C2031 C2030 1.373 . S
C2031 C2047 1.377 . S
C2032 C2030 1.389 1_655 S
C2032 C2033 1.524 . S
C2032 C2046 1.377 . S
C2033 C2032 1.524 . S
C2033 C2034 1.397 . S
C2033 C2038 1.363 . S
C2034 H2011 0.950 . S
C2034 C2033 1.397 . S
C2034 C2035 1.334 . S
C2035 H2012 0.950 . S
C2035 C2034 1.334 . S
C2035 C2036 1.287 . S
C2036 C2035 1.287 . S
C2036 C2037 1.524 . S
C2036 H2055 0.913 . S
C2037 H2013 0.950 . S
C2037 C2036 1.524 . S
C2037 C2038 1.415 . S
C2038 H2014 0.950 . S
C2038 C2033 1.363 . S
C2038 C2037 1.415 . S
C2039 H2015 0.951 . S
C2039 C2040 1.366 . S
C2039 C2041 1.388 . S
C2040 C2039 1.366 . S
C2040 C2044 1.385 . S
C2041 H2016 0.951 . S
C2041 C2039 1.388 . S
C2041 C2042 1.366 . S
C2042 C2041 1.366 . S
C2042 C2043 1.414 . S
C2042 C2045 1.499 . S
C2043 H2017 0.950 . S
C2043 C2042 1.414 . S
C2043 C2044 1.374 . S
C2044 H2018 0.950 . S
C2044 C2040 1.385 . S
C2044 C2043 1.374 . S
C2045 C2042 1.499 . S
C2045 C2046 1.373 . S
C2045 C2047 1.389 1_655 S
C2046 H2019 0.950 . S
C2046 C2032 1.377 . S
C2046 C2045 1.373 . S
C2047 C2031 1.377 . S
C2047 C2045 1.389 1_455 S
C2047 C2048 1.524 . S
C2048 C2047 1.524 . S
C2048 C2049 1.397 . S
C2048 C2053 1.363 . S
C2049 H2020 0.950 . S
C2049 C2048 1.397 . S
C2049 C2050 1.334 . S
C2050 H2021 0.950 . S
C2050 C2049 1.334 . S
C2050 C2051 1.287 . S
C2051 C2050 1.287 . S
C2051 C2052 1.524 . S
C2051 H2054 0.999 . S
C2052 H2022 0.950 . S
C2052 C2051 1.524 . S
C2052 C2053 1.415 . S
C2053 H2023 0.950 . S
C2053 C2048 1.363 . S
C2053 C2052 1.415 . S
H2054 C2051 0.999 . S
H2055 C2036 0.913 . S
H2056 C2074 0.951 . S
H2057 C2076 0.951 . S
H2058 C2078 0.922 1_545 S
H2059 C2079 0.950 . S
H2060 C2081 0.950 . S
H2061 C2084 0.950 . S
H2062 C2085 0.950 . S
H2063 C2087 0.950 . S
H2064 C2088 0.950 . S
H2065 C2089 0.951 . S
H2066 C2091 0.951 . S
H2067 C2093 0.922 1_565 S
H2068 C2094 0.950 . S
H2069 C2096 0.950 . S
H2070 C2099 0.950 . S
H2071 C2100 0.950 . S
H2072 C2102 0.950 . S
H2073 C2103 0.950 . S
C2074 H2056 0.951 . S
C2074 C2075 1.366 . S
C2074 C2076 1.388 . S
C2075 C2074 1.366 . S
C2075 C2079 1.385 . S
C2076 H2057 0.951 . S
C2076 C2074 1.388 . S
C2076 C2077 1.366 . S
C2077 C2076 1.366 . S
C2077 C2078 1.414 . S
C2077 C2080 1.499 . S
C2078 H2058 0.922 1_565 S
C2078 C2077 1.414 . S
C2078 C2079 1.374 . S
C2079 H2059 0.950 . S
C2079 C2075 1.385 . S
C2079 C2078 1.374 . S
C2080 C2077 1.499 . S
C2080 C2081 1.373 1_565 S
C2080 C2082 1.389 . S
C2081 H2060 0.950 . S
C2081 C2080 1.373 1_545 S
C2081 C2097 1.377 . S
C2082 C2080 1.389 . S
C2082 C2083 1.524 . S
C2082 C2096 1.377 . S
C2083 C2082 1.524 . S
C2083 C2084 1.397 . S
C2083 C2088 1.363 . S
C2084 H2061 0.950 . S
C2084 C2083 1.397 . S
C2084 C2085 1.334 . S
C2085 H2062 0.950 . S
C2085 C2084 1.334 . S
C2085 C2086 1.287 . S
C2086 C2085 1.287 . S
C2086 C2087 1.524 . S
C2086 H2105 0.913 . S
C2087 H2063 0.950 . S
C2087 C2086 1.524 . S
C2087 C2088 1.415 . S
C2088 H2064 0.950 . S
C2088 C2083 1.363 . S
C2088 C2087 1.415 . S
C2089 H2065 0.951 . S
C2089 C2090 1.366 . S
C2089 C2091 1.388 . S
C2090 C2089 1.366 . S
C2090 C2094 1.385 . S
C2091 H2066 0.951 . S
C2091 C2089 1.388 . S
C2091 C2092 1.366 . S
C2092 C2091 1.366 . S
C2092 C2093 1.414 . S
C2092 C2095 1.499 . S
C2093 H2067 0.922 1_545 S
C2093 C2092 1.414 . S
C2093 C2094 1.374 . S
C2094 H2068 0.950 . S
C2094 C2090 1.385 . S
C2094 C2093 1.374 . S
C2095 C2092 1.499 . S
C2095 C2096 1.373 1_545 S
C2095 C2097 1.389 . S
C2096 H2069 0.950 . S
C2096 C2082 1.377 . S
C2096 C2095 1.373 1_565 S
C2097 C2081 1.377 . S
C2097 C2095 1.389 . S
C2097 C2098 1.524 . S
C2098 C2097 1.524 . S
C2098 C2099 1.397 . S
C2098 C2103 1.363 . S
C2099 H2070 0.950 . S
C2099 C2098 1.397 . S
C2099 C2100 1.334 . S
C2100 H2071 0.950 . S
C2100 C2099 1.334 . S
C2100 C2101 1.287 . S
C2101 C2100 1.287 . S
C2101 C2102 1.524 . S
C2101 H2104 0.999 . S
C2102 H2072 0.950 . S
C2102 C2101 1.524 . S
C2102 C2103 1.415 . S
C2103 H2073 0.950 . S
C2103 C2098 1.363 . S
C2103 C2102 1.415 . S
H2104 C2101 0.999 . S
H2105 C2086 0.913 . S
H2106 C2124 0.951 . S
H2107 C2126 0.951 . S
H2108 C2128 0.950 . S
H2109 C2129 0.950 . S
H2110 C2131 0.950 . S
H2111 C2134 0.950 . S
H2112 C2135 0.950 . S
H2113 C2137 0.950 . S
H2114 C2138 0.950 . S
H2115 C2139 0.951 . S
H2116 C2141 0.951 . S
H2117 C2143 0.950 . S
H2118 C2144 0.950 . S
H2119 C2146 0.950 . S
H2120 C2149 0.950 . S
H2121 C2150 0.950 . S
H2122 C2152 0.950 . S
H2123 C2153 0.950 . S
C2124 H2106 0.951 . S
C2124 C2125 1.366 . S
C2124 C2126 1.388 . S
C2125 C2124 1.366 . S
C2125 C2129 1.385 . S
C2126 H2107 0.951 . S
C2126 C2124 1.388 . S
C2126 C2127 1.366 . S
C2127 C2126 1.366 . S
C2127 C2128 1.414 . S
C2127 C2130 1.499 . S
C2128 H2108 0.950 . S
C2128 C2127 1.414 . S
C2128 C2129 1.374 . S
C2129 H2109 0.950 . S
C2129 C2125 1.385 . S
C2129 C2128 1.374 . S
C2130 C2127 1.499 . S
C2130 C2131 1.373 . S
C2130 C2132 1.389 . S
C2131 H2110 0.950 . S
C2131 C2130 1.373 . S
C2131 C2147 1.377 . S
C2132 C2130 1.389 . S
C2132 C2133 1.524 . S
C2132 C2146 1.377 . S
C2133 C2132 1.524 . S
C2133 C2134 1.397 . S
C2133 C2138 1.363 . S
C2134 H2111 0.950 . S
C2134 C2133 1.397 . S
C2134 C2135 1.334 . S
C2135 H2112 0.950 . S
C2135 C2134 1.334 . S
C2135 C2136 1.287 . S
C2136 C2135 1.287 . S
C2136 C2137 1.524 . S
C2136 H2155 0.913 . S
C2137 H2113 0.950 . S
C2137 C2136 1.524 . S
C2137 C2138 1.415 . S
C2138 H2114 0.950 . S
C2138 C2133 1.363 . S
C2138 C2137 1.415 . S
C2139 H2115 0.951 . S
C2139 C2140 1.366 . S
C2139 C2141 1.388 . S
C2140 C2139 1.366 . S
C2140 C2144 1.385 . S
C2141 H2116 0.951 . S
C2141 C2139 1.388 . S
C2141 C2142 1.366 . S
C2142 C2141 1.366 . S
C2142 C2143 1.414 . S
C2142 C2145 1.499 . S
C2143 H2117 0.950 . S
C2143 C2142 1.414 . S
C2143 C2144 1.374 . S
C2144 H2118 0.950 . S
C2144 C2140 1.385 . S
C2144 C2143 1.374 . S
C2145 C2142 1.499 . S
C2145 C2146 1.373 . S
C2145 C2147 1.389 . S
C2146 H2119 0.950 . S
C2146 C2132 1.377 . S
C2146 C2145 1.373 . S
C2147 C2131 1.377 . S
C2147 C2145 1.389 . S
C2147 C2148 1.524 . S
C2148 C2147 1.524 . S
C2148 C2149 1.397 . S
C2148 C2153 1.363 . S
C2149 H2120 0.950 . S
C2149 C2148 1.397 . S
C2149 C2150 1.334 . S
C2150 H2121 0.950 . S
C2150 C2149 1.334 . S
C2150 C2151 1.287 . S
C2151 C2150 1.287 . S
C2151 C2152 1.524 . S
C2151 H2154 0.999 . S
C2152 H2122 0.950 . S
C2152 C2151 1.524 . S
C2152 C2153 1.415 . S
C2153 H2123 0.950 . S
C2153 C2148 1.363 . S
C2153 C2152 1.415 . S
H2154 C2151 0.999 . S
H2155 C2136 0.913 . S
H2156 C2174 0.951 . S
H2157 C2176 0.951 1_455 S
H2158 C2178 0.950 . S
H2159 C2179 0.950 . S
H2160 C2181 0.950 . S
H2161 C2184 0.950 1_655 S
H2162 C2185 0.950 1_655 S
H2163 C2187 0.950 . S
H2164 C2188 0.950 . S
H2165 C2189 0.951 . S
H2166 C2191 0.951 1_655 S
H2167 C2193 0.950 . S
H2168 C2194 0.950 . S
H2169 C2196 0.950 . S
H2170 C2199 0.950 1_455 S
H2171 C2200 0.950 1_455 S
H2172 C2202 0.950 . S
H2173 C2203 0.950 . S
C2174 H2156 0.951 . S
C2174 C2175 1.366 . S
C2174 C2176 1.388 . S
C2175 C2174 1.366 . S
C2175 C2179 1.385 . S
C2176 H2157 0.951 1_655 S
C2176 C2174 1.388 . S
C2176 C2177 1.366 . S
C2177 C2176 1.366 . S
C2177 C2178 1.414 . S
C2177 C2180 1.499 . S
C2178 H2158 0.950 . S
C2178 C2177 1.414 . S
C2178 C2179 1.374 . S
C2179 H2159 0.950 . S
C2179 C2175 1.385 . S
C2179 C2178 1.374 . S
C2180 C2177 1.499 . S
C2180 C2181 1.373 . S
C2180 C2182 1.389 1_655 S
C2181 H2160 0.950 . S
C2181 C2180 1.373 . S
C2181 C2197 1.377 . S
C2182 C2180 1.389 1_455 S
C2182 C2183 1.524 . S
C2182 C2196 1.377 . S
C2183 C2182 1.524 . S
C2183 C2184 1.397 . S
C2183 C2188 1.363 . S
C2184 H2161 0.950 1_455 S
C2184 C2183 1.397 . S
C2184 C2185 1.334 . S
C2185 H2162 0.950 1_455 S
C2185 C2184 1.334 . S
C2185 C2186 1.287 . S
C2186 C2185 1.287 . S
C2186 C2187 1.524 . S
C2186 H2205 0.913 . S
C2187 H2163 0.950 . S
C2187 C2186 1.524 . S
C2187 C2188 1.415 . S
C2188 H2164 0.950 . S
C2188 C2183 1.363 . S
C2188 C2187 1.415 . S
C2189 H2165 0.951 . S
C2189 C2190 1.366 . S
C2189 C2191 1.388 . S
C2190 C2189 1.366 . S
C2190 C2194 1.385 . S
C2191 H2166 0.951 1_455 S
C2191 C2189 1.388 . S
C2191 C2192 1.366 . S
C2192 C2191 1.366 . S
C2192 C2193 1.414 . S
C2192 C2195 1.499 . S
C2193 H2167 0.950 . S
C2193 C2192 1.414 . S
C2193 C2194 1.374 . S
C2194 H2168 0.950 . S
C2194 C2190 1.385 . S
C2194 C2193 1.374 . S
C2195 C2192 1.499 . S
C2195 C2196 1.373 . S
C2195 C2197 1.389 1_455 S
C2196 H2169 0.950 . S
C2196 C2182 1.377 . S
C2196 C2195 1.373 . S
C2197 C2181 1.377 . S
C2197 C2195 1.389 1_655 S
C2197 C2198 1.524 . S
C2198 C2197 1.524 . S
C2198 C2199 1.397 . S
C2198 C2203 1.363 . S
C2199 H2170 0.950 1_655 S
C2199 C2198 1.397 . S
C2199 C2200 1.334 1_556 S
C2200 H2171 0.950 1_655 S
C2200 C2199 1.334 1_554 S
C2200 C2201 1.287 . S
C2201 C2200 1.287 . S
C2201 C2202 1.524 1_554 S
C2201 H2204 0.999 . S
C2202 H2172 0.950 . S
C2202 C2201 1.524 1_556 S
C2202 C2203 1.415 . S
C2203 H2173 0.950 . S
C2203 C2198 1.363 . S
C2203 C2202 1.415 . S
H2204 C2201 0.999 . S
H2205 C2186 0.913 . S
H2206 C2224 0.951 . S
H2207 C2226 0.951 1_565 S
H2208 C2228 0.950 . S
H2209 C2229 0.950 . S
H2210 C2231 0.950 . S
H2211 C2234 0.950 . S
H2212 C2235 0.950 . S
H2213 C2237 0.950 . S
H2214 C2238 0.950 . S
H2215 C2239 0.951 . S
H2216 C2241 0.951 1_545 S
H2217 C2243 0.950 . S
H2218 C2244 0.950 . S
H2219 C2246 0.950 . S
H2220 C2249 0.950 . S
H2221 C2250 0.950 . S
H2222 C2252 0.950 . S
H2223 C2253 0.950 . S
C2224 H2206 0.951 . S
C2224 C2225 1.366 . S
C2224 C2226 1.388 . S
C2225 C2224 1.366 . S
C2225 C2229 1.385 . S
C2226 H2207 0.951 1_545 S
C2226 C2224 1.388 . S
C2226 C2227 1.366 . S
C2227 C2226 1.366 . S
C2227 C2228 1.414 . S
C2227 C2230 1.499 . S
C2228 H2208 0.950 . S
C2228 C2227 1.414 . S
C2228 C2229 1.374 . S
C2229 H2209 0.950 . S
C2229 C2225 1.385 . S
C2229 C2228 1.374 . S
C2230 C2227 1.499 . S
C2230 C2231 1.373 . S
C2230 C2232 1.389 1_545 S
C2231 H2210 0.950 . S
C2231 C2230 1.373 . S
C2231 C2247 1.377 . S
C2232 C2230 1.389 1_565 S
C2232 C2233 1.524 . S
C2232 C2246 1.377 . S
C2233 C2232 1.524 . S
C2233 C2234 1.397 1_565 S
C2233 C2238 1.363 . S
C2234 H2211 0.950 . S
C2234 C2233 1.397 1_545 S
C2234 C2235 1.334 . S
C2235 H2212 0.950 . S
C2235 C2234 1.334 . S
C2235 C2236 1.287 1_545 S
C2236 C2235 1.287 1_565 S
C2236 C2237 1.524 . S
C2236 H2255 0.913 . S
C2237 H2213 0.950 . S
C2237 C2236 1.524 . S
C2237 C2238 1.415 . S
C2238 H2214 0.950 . S
C2238 C2233 1.363 . S
C2238 C2237 1.415 . S
C2239 H2215 0.951 . S
C2239 C2240 1.366 . S
C2239 C2241 1.388 . S
C2240 C2239 1.366 . S
C2240 C2244 1.385 . S
C2241 H2216 0.951 1_565 S
C2241 C2239 1.388 . S
C2241 C2242 1.366 . S
C2242 C2241 1.366 . S
C2242 C2243 1.414 . S
C2242 C2245 1.499 . S
C2243 H2217 0.950 . S
C2243 C2242 1.414 . S
C2243 C2244 1.374 . S
C2244 H2218 0.950 . S
C2244 C2240 1.385 . S
C2244 C2243 1.374 . S
C2245 C2242 1.499 . S
C2245 C2246 1.373 . S
C2245 C2247 1.389 1_565 S
C2246 H2219 0.950 . S
C2246 C2232 1.377 . S
C2246 C2245 1.373 . S
C2247 C2231 1.377 . S
C2247 C2245 1.389 1_545 S
C2247 C2248 1.524 . S
C2248 C2247 1.524 . S
C2248 C2249 1.397 1_545 S
C2248 C2253 1.363 . S
C2249 H2220 0.950 . S
C2249 C2248 1.397 1_565 S
C2249 C2250 1.334 . S
C2250 H2221 0.950 . S
C2250 C2249 1.334 . S
C2250 C2251 1.287 1_565 S
C2251 C2250 1.287 1_545 S
C2251 C2252 1.524 . S
C2251 H2254 0.999 . S
C2252 H2222 0.950 . S
C2252 C2251 1.524 . S
C2252 C2253 1.415 . S
C2253 H2223 0.950 . S
C2253 C2248 1.363 . S
C2253 C2252 1.415 . S
H2254 C2251 0.999 . S
H2255 C2236 0.913 . S
C1075 C29 1.437 . S
C1090 C841 1.436 . S
C1125 C108 1.437 . S
C1140 C937 1.437 . S
C1175 C196 1.437 . S
C1190 C1025 1.438 . S
C1225 C284 1.437 . S
C1240 C577 1.437 . S
C1275 C673 1.438 . S
C1290 C381 1.437 . S
C1325 C753 1.437 . S
C1340 C469 1.438 . S
C1375 C929 1.183 . S
C1390 C20 1.183 . S
C1425 C117 1.183 . S
C1440 C1017 1.183 . S
C1475 C205 1.183 . S
C1490 C585 1.183 . S
C1525 C293 1.183 . S
C1540 C665 1.183 . S
C1575 C372 1.184 . S
C1590 C761 1.184 . S
C1625 C460 1.183 . S
C1640 C849 1.183 . S
C1675 C812 0.535 . S
C1690 C57 0.535 . S
C1725 C137 0.533 . S
C1740 C909 0.535 . S
C1775 C225 0.535 . S
C1790 C997 0.535 . S
C1825 C548 0.535 . S
C1840 C313 0.533 . S
C1875 C409 0.531 . S
C1890 C645 0.533 . S
C1925 C724 0.533 . S
C1940 C497 0.531 . S
C1975 C49 1.479 . S
C1990 C321 1.479 . S
C2025 C401 1.480 . S
C2040 C145 1.480 . S
C2075 C233 1.479 . S
C2090 C489 1.478 . S
C2125 C557 1.479 . S
C2140 C821 1.479 . S
C2175 C636 1.479 . S
C2190 C900 1.479 . S
C2225 C988 1.479 . S
C2240 C733 1.479 . S
