# Generated by pormake.
# Topology vbm, (6)-cn, num edge types: 1
# Building blocks:
#     Node 0, Type 0, BuildingBlock: JUFBIX_clean_sbu_0, # of connection points: 6
#     Node 1, Type 0, BuildingBlock: JUFBIX_clean_sbu_0, # of connection points: 6
#     Node 2, Type 0, BuildingBlock: JUFBIX_clean_sbu_0, # of connection points: 6
#     Node 3, Type 0, BuildingBlock: JUFBIX_clean_sbu_0, # of connection points: 6
#     Node 4, Type 0, BuildingBlock: JUFBIX_clean_sbu_0, # of connection points: 6
#     Node 5, Type 0, BuildingBlock: JUFBIX_clean_sbu_0, # of connection points: 6
#     Node 6, Type 0, BuildingBlock: JUFBIX_clean_sbu_0, # of connection points: 6
#     Node 7, Type 0, BuildingBlock: JUFBIX_clean_sbu_0, # of connection points: 6
#     Node 8, Type 0, BuildingBlock: JUFBIX_clean_sbu_0, # of connection points: 6
#     Node 9, Type 0, BuildingBlock: JUFBIX_clean_sbu_0, # of connection points: 6
#     Node 10, Type 0, BuildingBlock: JUFBIX_clean_sbu_0, # of connection points: 6
#     Node 11, Type 0, BuildingBlock: JUFBIX_clean_sbu_0, # of connection points: 6
#     Node 12, Type 0, BuildingBlock: JUFBIX_clean_sbu_0, # of connection points: 6
#     Node 13, Type 0, BuildingBlock: JUFBIX_clean_sbu_0, # of connection points: 6
#     Node 14, Type 0, BuildingBlock: JUFBIX_clean_sbu_0, # of connection points: 6
#     Node 15, Type 0, BuildingBlock: JUFBIX_clean_sbu_0, # of connection points: 6
#     Edge 16, Type (0, 0), BuildingBlock: CIFDUS_clean_linker_0, # of connection points: 2
#     Edge 17, Type (0, 0), BuildingBlock: CIFDUS_clean_linker_0, # of connection points: 2
#     Edge 18, Type (0, 0), BuildingBlock: CIFDUS_clean_linker_0, # of connection points: 2
#     Edge 19, Type (0, 0), BuildingBlock: CIFDUS_clean_linker_0, # of connection points: 2
#     Edge 20, Type (0, 0), BuildingBlock: CIFDUS_clean_linker_0, # of connection points: 2
#     Edge 21, Type (0, 0), BuildingBlock: CIFDUS_clean_linker_0, # of connection points: 2
#     Edge 22, Type (0, 0), BuildingBlock: CIFDUS_clean_linker_0, # of connection points: 2
#     Edge 23, Type (0, 0), BuildingBlock: CIFDUS_clean_linker_0, # of connection points: 2
#     Edge 24, Type (0, 0), BuildingBlock: CIFDUS_clean_linker_0, # of connection points: 2
#     Edge 25, Type (0, 0), BuildingBlock: CIFDUS_clean_linker_0, # of connection points: 2
#     Edge 26, Type (0, 0), BuildingBlock: CIFDUS_clean_linker_0, # of connection points: 2
#     Edge 27, Type (0, 0), BuildingBlock: CIFDUS_clean_linker_0, # of connection points: 2
#     Edge 28, Type (0, 0), BuildingBlock: CIFDUS_clean_linker_0, # of connection points: 2
#     Edge 29, Type (0, 0), BuildingBlock: CIFDUS_clean_linker_0, # of connection points: 2
#     Edge 30, Type (0, 0), BuildingBlock: CIFDUS_clean_linker_0, # of connection points: 2
#     Edge 31, Type (0, 0), BuildingBlock: CIFDUS_clean_linker_0, # of connection points: 2
#     Edge 32, Type (0, 0), BuildingBlock: CIFDUS_clean_linker_0, # of connection points: 2
#     Edge 33, Type (0, 0), BuildingBlock: CIFDUS_clean_linker_0, # of connection points: 2
#     Edge 34, Type (0, 0), BuildingBlock: CIFDUS_clean_linker_0, # of connection points: 2
#     Edge 35, Type (0, 0), BuildingBlock: CIFDUS_clean_linker_0, # of connection points: 2
#     Edge 36, Type (0, 0), BuildingBlock: CIFDUS_clean_linker_0, # of connection points: 2
#     Edge 37, Type (0, 0), BuildingBlock: CIFDUS_clean_linker_0, # of connection points: 2
#     Edge 38, Type (0, 0), BuildingBlock: CIFDUS_clean_linker_0, # of connection points: 2
#     Edge 39, Type (0, 0), BuildingBlock: CIFDUS_clean_linker_0, # of connection points: 2
#     Edge 40, Type (0, 0), BuildingBlock: CIFDUS_clean_linker_0, # of connection points: 2
#     Edge 41, Type (0, 0), BuildingBlock: CIFDUS_clean_linker_0, # of connection points: 2
#     Edge 42, Type (0, 0), BuildingBlock: CIFDUS_clean_linker_0, # of connection points: 2
#     Edge 43, Type (0, 0), BuildingBlock: CIFDUS_clean_linker_0, # of connection points: 2
#     Edge 44, Type (0, 0), BuildingBlock: CIFDUS_clean_linker_0, # of connection points: 2
#     Edge 45, Type (0, 0), BuildingBlock: CIFDUS_clean_linker_0, # of connection points: 2
#     Edge 46, Type (0, 0), BuildingBlock: CIFDUS_clean_linker_0, # of connection points: 2
#     Edge 47, Type (0, 0), BuildingBlock: CIFDUS_clean_linker_0, # of connection points: 2
#     Edge 48, Type (0, 0), BuildingBlock: CIFDUS_clean_linker_0, # of connection points: 2
#     Edge 49, Type (0, 0), BuildingBlock: CIFDUS_clean_linker_0, # of connection points: 2
#     Edge 50, Type (0, 0), BuildingBlock: CIFDUS_clean_linker_0, # of connection points: 2
#     Edge 51, Type (0, 0), BuildingBlock: CIFDUS_clean_linker_0, # of connection points: 2
#     Edge 52, Type (0, 0), BuildingBlock: CIFDUS_clean_linker_0, # of connection points: 2
#     Edge 53, Type (0, 0), BuildingBlock: CIFDUS_clean_linker_0, # of connection points: 2
#     Edge 54, Type (0, 0), BuildingBlock: CIFDUS_clean_linker_0, # of connection points: 2
#     Edge 55, Type (0, 0), BuildingBlock: CIFDUS_clean_linker_0, # of connection points: 2
#     Edge 56, Type (0, 0), BuildingBlock: CIFDUS_clean_linker_0, # of connection points: 2
#     Edge 57, Type (0, 0), BuildingBlock: CIFDUS_clean_linker_0, # of connection points: 2
#     Edge 58, Type (0, 0), BuildingBlock: CIFDUS_clean_linker_0, # of connection points: 2
#     Edge 59, Type (0, 0), BuildingBlock: CIFDUS_clean_linker_0, # of connection points: 2
#     Edge 60, Type (0, 0), BuildingBlock: CIFDUS_clean_linker_0, # of connection points: 2
#     Edge 61, Type (0, 0), BuildingBlock: CIFDUS_clean_linker_0, # of connection points: 2
#     Edge 62, Type (0, 0), BuildingBlock: CIFDUS_clean_linker_0, # of connection points: 2
#     Edge 63, Type (0, 0), BuildingBlock: CIFDUS_clean_linker_0, # of connection points: 2
# Relax obj value: 0.014
# Max RMSD: 0.060
# Mean RMSD: 0.060
data_MOF--net-vbm--node1-JUFBIX_clean_sbu_0--edge1-CIFDUS_clean_linker_0
_symmetry_space_group_name_H-M    P1
_symmetry_Int_Tables_number       1
_symmetry_cell_setting            triclinic
loop_
_symmetry_equiv_pos_as_xyz
'x, y, z'
_cell_length_a     70.639879
_cell_length_b     13.027977
_cell_length_c     51.68831
_cell_angle_alpha  89.89993
_cell_angle_beta   89.708967
_cell_angle_gamma 90.099673
loop_
_atom_site_label
_atom_site_type_symbol
_atom_site_fract_x
_atom_site_fract_y
_atom_site_fract_z
_atom_type_partial_charge
Co0 Co 0.18207 0.03987 0.13629 0.0
C1 C 0.16356 0.02222 0.18439 0.0
Co2 Co 0.15061 0.02274 0.13465 0.0
C3 C 0.22098 0.11887 0.12789 0.0
C4 C 0.21889 0.99723 0.15573 0.0
N5 N 0.2083 0.05633 0.14 0.0
N6 N 0.23898 0.09926 0.13534 0.0
C7 C 0.23762 0.02288 0.15281 0.0
H8 H 0.21718 0.17478 0.1133 0.0
H9 H 0.21335 0.93737 0.16819 0.0
C10 C 0.16964 0.03951 0.08665 0.0
N11 N 0.12439 -0.00055 0.13053 0.0
C12 C 0.10855 0.03736 0.14208 0.0
C13 C 0.11783 0.92631 0.11438 0.0
N14 N 0.09261 0.98858 0.13401 0.0
C15 C 0.09854 0.91913 0.11657 0.0
C16 C 0.16213 0.22504 0.13651 0.0
O17 O 0.18453 0.04511 0.1002 0.0
O18 O 0.15361 0.02965 0.09782 0.0
O19 O 0.14743 0.16795 0.13554 0.0
O20 O 0.17849 0.184 0.13714 0.0
O21 O 0.1483 0.01606 0.17144 0.0
H22 H 0.12661 0.87983 0.10183 0.0
H23 H 0.10872 0.09781 0.15642 0.0
O24 O 0.17923 0.0341 0.17254 0.0
O25 O 0.18518 0.89434 0.13532 0.0
O26 O 0.15438 0.87844 0.13396 0.0
C27 C 0.17061 0.83716 0.13447 0.0
H28 H 0.24945 0.98728 0.16257 0.0
H29 H 0.08946 0.8679 0.10575 0.0
Co30 Co 0.89192 -0.00034 0.13186 0.0
C31 C 0.90947 0.00026 0.18011 0.0
Co32 Co 0.92345 0.98592 0.13059 0.0
C33 C 0.85346 0.92284 0.1271 0.0
C34 C 0.85421 0.06629 0.14705 0.0
N35 N 0.86542 0.99796 0.13484 0.0
N36 N 0.83529 0.94064 0.13425 0.0
C37 C 0.83574 0.03152 0.14668 0.0
H38 H 0.85808 0.85513 0.11677 0.0
H39 H 0.85921 0.13517 0.15649 0.0
C40 C 0.90482 0.98283 0.08239 0.0
N41 N 0.95008 0.99238 0.12667 0.0
C42 C 0.96521 0.95738 0.14025 0.0
C43 C 0.95783 0.05341 0.10827 0.0
N44 N 0.98181 0.9965 0.1311 0.0
C45 C 0.97707 0.05633 0.11097 0.0
C46 C 0.90684 0.7988 0.13338 0.0
O47 O 0.88997 0.99382 0.09597 0.0
O48 O 0.92084 0.97797 0.09353 0.0
O49 O 0.9232 0.84021 0.13225 0.0
O50 O 0.89217 0.85513 0.13345 0.0
O51 O 0.92512 0.99308 0.16776 0.0
H52 H 0.94989 0.09642 0.09408 0.0
H53 H 0.96406 0.90757 0.15697 0.0
O54 O 0.89401 0.00467 0.16771 0.0
O55 O 0.89232 0.14559 0.13035 0.0
O56 O 0.9232 0.1305 0.12906 0.0
C57 C 0.90862 0.18702 0.1292 0.0
H58 H 0.82376 0.06805 0.15596 0.0
H59 H 0.98692 0.09922 0.09898 0.0
Co60 Co 0.1743 0.88475 0.38106 0.0
C61 C 0.15292 0.90503 0.33537 0.0
Co62 Co 0.14311 0.9007 0.38629 0.0
C63 C 0.21365 0.81238 0.38193 0.0
C64 C 0.20982 0.94826 0.35925 0.0
N65 N 0.2003 0.88004 0.37408 0.0
N66 N 0.2311 0.83658 0.37273 0.0
C67 C 0.22865 0.92212 0.35846 0.0
H68 H 0.21064 0.74715 0.39429 0.0
H69 H 0.20343 0.01274 0.34941 0.0
C70 C 0.16472 0.88526 0.43203 0.0
N71 N 0.11704 0.90339 0.39355 0.0
C72 C 0.10271 0.96315 0.3848 0.0
C73 C 0.10854 0.8355 0.4096 0.0
N74 N 0.08567 0.93349 0.39455 0.0
C75 C 0.08941 0.85336 0.41016 0.0
C76 C 0.15645 0.69855 0.38193 0.0
O77 O 0.17895 0.87719 0.41705 0.0
O78 O 0.14827 0.89501 0.42236 0.0
O79 O 0.14203 0.7554 0.38488 0.0
O80 O 0.17269 0.73969 0.37948 0.0
O81 O 0.1385 0.90758 0.35021 0.0
H82 H 0.11581 0.77602 0.42025 0.0
H83 H 0.10467 0.02582 0.37127 0.0
O84 O 0.16932 0.89383 0.34508 0.0
O85 O 0.17544 0.03 0.38282 0.0
O86 O 0.14464 0.0458 0.38745 0.0
C87 C 0.16095 0.08686 0.38537 0.0
H88 H 0.23962 0.96178 0.34767 0.0
H89 H 0.07905 0.81153 0.42154 0.0
Co90 Co 0.88902 0.07108 0.37712 0.0
C91 C 0.91222 0.0721 0.33316 0.0
Co92 Co 0.91982 0.08691 0.38504 0.0
C93 C 0.84828 0.10812 0.37745 0.0
C94 C 0.85621 0.98034 0.35381 0.0
N95 N 0.86348 0.05393 0.36918 0.0
N96 N 0.83183 0.07059 0.36798 0.0
C97 C 0.83684 0.99016 0.3531 0.0
H98 H 0.84927 0.17306 0.39041 0.0
H99 H 0.8645 0.92315 0.3437 0.0
C100 C 0.89624 0.08336 0.42893 0.0
N101 N 0.94552 0.10408 0.3928 0.0
C102 C 0.96052 0.04639 0.38536 0.0
C103 C 0.95316 0.18116 0.4067 0.0
N104 N 0.97718 0.08497 0.3939 0.0
C105 C 0.97253 0.16989 0.40732 0.0
C106 C 0.90082 0.27304 0.37872 0.0
O107 O 0.88302 0.07392 0.41257 0.0
O108 O 0.91334 0.09087 0.42102 0.0
O109 O 0.9168 0.23165 0.38294 0.0
O110 O 0.8864 0.21613 0.37537 0.0
O111 O 0.92576 0.08232 0.34907 0.0
H112 H 0.94515 0.24185 0.41587 0.0
H113 H 0.95926 0.97799 0.37363 0.0
O114 O 0.8953 0.06746 0.34164 0.0
O115 O 0.89204 0.92634 0.37901 0.0
O116 O 0.92239 0.94187 0.387 0.0
C117 C 0.90799 0.88496 0.38344 0.0
H118 H 0.82722 0.94293 0.34203 0.0
H119 H 0.9824 0.21911 0.4174 0.0
Co120 Co 0.92157 0.90768 0.87777 0.0
C121 C 0.91037 0.91313 0.92927 0.0
Co122 Co 0.89021 0.92081 0.88355 0.0
C123 C 0.9621 0.95177 0.86383 0.0
C124 C 0.95729 0.80534 0.8815 0.0
N125 N 0.94809 0.89049 0.87352 0.0
N126 N 0.97936 0.90613 0.86503 0.0
C127 C 0.97622 0.81425 0.87612 0.0
H128 H 0.95972 0.02784 0.85606 0.0
H129 H 0.95078 0.74077 0.89125 0.0
C130 C 0.9011 0.919 0.83216 0.0
N131 N 0.86392 0.93356 0.88857 0.0
C132 C 0.85015 0.86802 0.88088 0.0
C133 C 0.85472 0.00493 0.90268 0.0
N134 N 0.83276 0.8947 0.88983 0.0
C135 C 0.83566 0.98152 0.90344 0.0
C136 C 0.90951 0.10824 0.88053 0.0
O137 O 0.91782 0.9128 0.84132 0.0
O138 O 0.88695 0.92112 0.84746 0.0
O139 O 0.89328 0.06621 0.88284 0.0
O140 O 0.92418 0.05217 0.87832 0.0
O141 O 0.89392 0.92112 0.91959 0.0
H142 H 0.86152 0.06802 0.91257 0.0
H143 H 0.85293 0.80077 0.86923 0.0
O144 O 0.92465 0.90413 0.91434 0.0
O145 O 0.91814 0.76224 0.87717 0.0
O146 O 0.88769 0.77621 0.8842 0.0
C147 C 0.90212 0.72004 0.8807 0.0
H148 H 0.98703 0.75838 0.88073 0.0
H149 H 0.82494 0.02298 0.91417 0.0
Co150 Co 0.14131 0.06975 0.88387 0.0
C151 C 0.15886 0.07252 0.93334 0.0
Co152 Co 0.17301 0.05634 0.8849 0.0
C153 C 0.10006 0.09497 0.86998 0.0
C154 C 0.10521 0.05317 0.90931 0.0
N155 N 0.11437 0.07664 0.88699 0.0
N156 N 0.08273 0.08645 0.88137 0.0
C157 C 0.08608 0.06032 0.906 0.0
H158 H 0.10224 0.11227 0.8497 0.0
H159 H 0.11179 0.0274 0.92694 0.0
C160 C 0.15619 0.05233 0.83547 0.0
N161 N 0.19955 0.045 0.88225 0.0
C162 C 0.21371 0.10948 0.88948 0.0
C163 C 0.20854 0.96626 0.87058 0.0
N164 N 0.23109 0.07301 0.88296 0.0
C165 C 0.22773 0.98287 0.87109 0.0
C166 C 0.15423 0.86891 0.88675 0.0
O167 O 0.14027 0.06092 0.84705 0.0
O168 O 0.17135 0.05048 0.8486 0.0
O169 O 0.17052 0.91067 0.88666 0.0
O170 O 0.13959 0.92524 0.88596 0.0
O171 O 0.17446 0.06201 0.92132 0.0
H172 H 0.20157 0.90154 0.86163 0.0
H173 H 0.21131 0.18181 0.89921 0.0
O174 O 0.14359 0.07823 0.92055 0.0
O175 O 0.14351 0.21516 0.88182 0.0
O176 O 0.17461 0.20103 0.8832 0.0
C177 C 0.15987 0.25704 0.88208 0.0
H178 H 0.07531 0.04308 0.92036 0.0
H179 H 0.23837 0.93363 0.86252 0.0
Co180 Co 0.91311 0.02591 0.62999 0.0
C181 C 0.89462 0.05355 0.58276 0.0
Co182 Co 0.88174 0.04172 0.63263 0.0
C183 C 0.95454 0.04042 0.63738 0.0
C184 C 0.94583 0.93874 0.60718 0.0
N185 N 0.93902 0.00609 0.62474 0.0
N186 N 0.97057 0.99508 0.62857 0.0
C187 C 0.96508 0.93161 0.60955 0.0
H188 H 0.95406 0.09483 0.65317 0.0
H189 H 0.93723 0.89544 0.59379 0.0
C190 C 0.90172 0.01715 0.67981 0.0
N191 N 0.85536 0.05297 0.63788 0.0
C192 C 0.8417 0.11627 0.62849 0.0
C193 C 0.84589 0.98701 0.65341 0.0
N194 N 0.82418 0.09033 0.63738 0.0
C195 C 0.82694 0.00926 0.65307 0.0
C196 C 0.89356 0.83955 0.62855 0.0
O197 O 0.91622 0.01594 0.66533 0.0
O198 O 0.88535 0.02727 0.66973 0.0
O199 O 0.87901 0.89643 0.62964 0.0
O200 O 0.90979 0.88119 0.62839 0.0
O201 O 0.8791 0.05654 0.59552 0.0
H202 H 0.85237 0.92552 0.6643 0.0
H203 H 0.84447 0.17844 0.61507 0.0
O204 O 0.90998 0.03731 0.59456 0.0
O205 O 0.91594 0.17106 0.63183 0.0
O206 O 0.88493 0.18604 0.63539 0.0
C207 C 0.90127 0.2276 0.63407 0.0
H208 H 0.97439 0.8839 0.59803 0.0
H209 H 0.81599 0.96915 0.66379 0.0
Co210 Co 0.13829 0.96276 0.63319 0.0
C211 C 0.15736 0.94728 0.58546 0.0
Co212 Co 0.16958 0.94646 0.63543 0.0
C213 C 0.09667 0.94872 0.63958 0.0
C214 C 0.10616 0.05913 0.61164 0.0
N215 N 0.1125 0.98627 0.62806 0.0
N216 N 0.08089 0.99735 0.63123 0.0
C217 C 0.08688 0.06635 0.61363 0.0
H218 H 0.09673 0.88911 0.6542 0.0
H219 H 0.11507 0.10567 0.59921 0.0
C220 C 0.14954 0.96318 0.68302 0.0
N221 N 0.1957 0.92945 0.64046 0.0
C222 C 0.20812 0.85916 0.63109 0.0
C223 C 0.20613 0.98871 0.65631 0.0
N224 N 0.22588 0.87296 0.64045 0.0
C225 C 0.2245 0.95458 0.65635 0.0
C226 C 0.15835 0.14885 0.63342 0.0
O227 O 0.1349 0.96623 0.66895 0.0
O228 O 0.16582 0.95476 0.6724 0.0
O229 O 0.17292 0.09189 0.63395 0.0
O230 O 0.14212 0.10721 0.6332 0.0
O231 O 0.17259 0.93866 0.59841 0.0
H232 H 0.20062 0.05205 0.66755 0.0
H233 H 0.20416 0.79916 0.6177 0.0
O234 O 0.14179 0.959 0.59738 0.0
O235 O 0.13494 0.81753 0.63339 0.0
O236 O 0.16588 0.80231 0.63677 0.0
C237 C 0.14959 0.76078 0.63523 0.0
H238 H 0.07787 0.11757 0.60271 0.0
H239 H 0.23585 0.98617 0.66787 0.0
Co240 Co 0.68253 0.54561 0.1318 0.0
C241 C 0.66496 0.52379 0.18042 0.0
Co242 Co 0.65109 0.52875 0.131 0.0
C243 C 0.71985 0.64521 0.12792 0.0
C244 C 0.72069 0.49911 0.14682 0.0
N245 N 0.70877 0.56467 0.13498 0.0
N246 N 0.73818 0.63195 0.13481 0.0
C247 C 0.73866 0.53977 0.14666 0.0
H248 H 0.71453 0.71261 0.1181 0.0
H249 H 0.71652 0.42725 0.15569 0.0
C250 C 0.66927 0.5507 0.08236 0.0
N251 N 0.6249 0.50429 0.12752 0.0
C252 C 0.60916 0.54054 0.13963 0.0
C253 C 0.61825 0.43259 0.11104 0.0
N254 N 0.59319 0.49221 0.13154 0.0
C255 C 0.59899 0.42471 0.11354 0.0
C256 C 0.66228 0.73082 0.13348 0.0
O257 O 0.68438 0.55541 0.09554 0.0
O258 O 0.65346 0.53833 0.09398 0.0
O259 O 0.64759 0.6738 0.13252 0.0
O260 O 0.67861 0.68957 0.13373 0.0
O261 O 0.64942 0.51976 0.16799 0.0
H262 H 0.62694 0.38773 0.09801 0.0
H263 H 0.60943 0.59955 0.15434 0.0
O264 O 0.68042 0.53562 0.16804 0.0
O265 O 0.68589 0.40019 0.12975 0.0
O266 O 0.65507 0.38451 0.12968 0.0
C267 C 0.6713 0.34305 0.12937 0.0
H268 H 0.751 0.50558 0.15551 0.0
H269 H 0.58986 0.37438 0.10255 0.0
Co270 Co 0.39269 0.44162 0.13505 0.0
C271 C 0.4103 0.46532 0.1843 0.0
Co272 Co 0.42421 0.45834 0.1355 0.0
C273 C 0.35104 0.41816 0.12428 0.0
C274 C 0.36048 0.35899 0.16061 0.0
N275 N 0.36665 0.41097 0.1395 0.0
N276 N 0.33565 0.37391 0.13557 0.0
C277 C 0.34166 0.33694 0.15831 0.0
H278 H 0.35114 0.45048 0.10497 0.0
H279 H 0.36932 0.33274 0.17627 0.0
C280 C 0.40665 0.43652 0.0862 0.0
N281 N 0.45022 0.48785 0.13157 0.0
C282 C 0.46621 0.44963 0.14242 0.0
C283 C 0.45647 0.5641 0.11596 0.0
N284 N 0.48196 0.50101 0.13446 0.0
C285 C 0.47575 0.57269 0.11781 0.0
C286 C 0.41392 0.25639 0.13735 0.0
O287 O 0.391 0.43064 0.09849 0.0
O288 O 0.42195 0.44914 0.09875 0.0
O289 O 0.42866 0.3133 0.13696 0.0
O290 O 0.39768 0.29824 0.13704 0.0
O291 O 0.42606 0.46772 0.17228 0.0
H292 H 0.44752 0.61104 0.10384 0.0
H293 H 0.46629 0.38648 0.15606 0.0
O294 O 0.39514 0.45442 0.17149 0.0
O295 O 0.38811 0.58641 0.13301 0.0
O296 O 0.41906 0.60193 0.13421 0.0
C297 C 0.40281 0.64356 0.13327 0.0
H298 H 0.33315 0.29252 0.17176 0.0
H299 H 0.48462 0.62605 0.10716 0.0
Co300 Co 0.67805 0.40453 0.37853 0.0
C301 C 0.65646 0.42542 0.33282 0.0
Co302 Co 0.64693 0.41948 0.38387 0.0
C303 C 0.71834 0.34391 0.37975 0.0
C304 C 0.71245 0.47369 0.35564 0.0
N305 N 0.704 0.40398 0.37124 0.0
N306 N 0.73533 0.37518 0.37031 0.0
C307 C 0.73159 0.45662 0.35515 0.0
H308 H 0.71643 0.28017 0.39298 0.0
H309 H 0.70514 0.53399 0.34534 0.0
C310 C 0.66847 0.4008 0.42962 0.0
N311 N 0.621 0.41982 0.39111 0.0
C312 C 0.60673 0.47948 0.38226 0.0
C313 C 0.61247 0.35127 0.40694 0.0
N314 N 0.58968 0.44943 0.39176 0.0
C315 C 0.59333 0.36894 0.40731 0.0
C316 C 0.66062 0.21788 0.37887 0.0
O317 O 0.6828 0.39605 0.41467 0.0
O318 O 0.65206 0.41079 0.41989 0.0
O319 O 0.64617 0.27454 0.3818 0.0
O320 O 0.67689 0.25918 0.37667 0.0
O321 O 0.64218 0.4285 0.34787 0.0
H322 H 0.61972 0.29162 0.41755 0.0
H323 H 0.60877 0.54246 0.36884 0.0
O324 O 0.6729 0.41404 0.34239 0.0
O325 O 0.6788 0.54949 0.38064 0.0
O326 O 0.64807 0.56482 0.38571 0.0
C327 C 0.66434 0.60614 0.38354 0.0
H328 H 0.74199 0.50018 0.34425 0.0
H329 H 0.58292 0.32684 0.41854 0.0
Co330 Co 0.39327 0.59985 0.38142 0.0
C331 C 0.4141 0.59474 0.33542 0.0
Co332 Co 0.42437 0.61525 0.38665 0.0
C333 C 0.35322 0.65232 0.38297 0.0
C334 C 0.3581 0.50808 0.36445 0.0
N335 N 0.36715 0.58582 0.37641 0.0
N336 N 0.3359 0.6194 0.37553 0.0
C337 C 0.33896 0.52826 0.36396 0.0
H338 H 0.35577 0.72408 0.39288 0.0
H339 H 0.36501 0.44192 0.35606 0.0
C340 C 0.40357 0.61645 0.43274 0.0
N341 N 0.45035 0.63143 0.39176 0.0
C342 C 0.46491 0.57166 0.38383 0.0
C343 C 0.45863 0.70922 0.4047 0.0
N344 N 0.4819 0.60968 0.39118 0.0
C345 C 0.47794 0.69633 0.40429 0.0
C346 C 0.40554 0.80167 0.38103 0.0
O347 O 0.38945 0.60758 0.41771 0.0
O348 O 0.42016 0.62161 0.42309 0.0
O349 O 0.42161 0.7602 0.3843 0.0
O350 O 0.39102 0.74481 0.37889 0.0
O351 O 0.42824 0.60762 0.35023 0.0
H352 H 0.45109 0.77101 0.41414 0.0
H353 H 0.46308 0.50174 0.37283 0.0
O354 O 0.39751 0.59108 0.34517 0.0
O355 O 0.39598 0.45495 0.384 0.0
O356 O 0.42671 0.47031 0.38889 0.0
C357 C 0.41212 0.41352 0.38698 0.0
H358 H 0.32823 0.4813 0.35488 0.0
H359 H 0.48824 0.7453 0.41362 0.0
Co360 Co 0.41514 0.39931 0.88469 0.0
C361 C 0.39614 0.39713 0.93238 0.0
Co362 Co 0.38367 0.41302 0.88196 0.0
C363 C 0.45611 0.43968 0.87838 0.0
C364 C 0.45003 0.30531 0.90074 0.0
N365 N 0.44155 0.38239 0.88779 0.0
N366 N 0.47329 0.40083 0.88486 0.0
C367 C 0.46938 0.31618 0.89894 0.0
H368 H 0.45411 0.50849 0.86697 0.0
H369 H 0.44262 0.24532 0.91117 0.0
C370 C 0.40264 0.42046 0.83439 0.0
N371 N 0.35732 0.42842 0.87864 0.0
C372 C 0.34285 0.36724 0.8867 0.0
C373 C 0.34879 0.50576 0.86588 0.0
N374 N 0.32568 0.40397 0.87953 0.0
C375 C 0.32952 0.49125 0.86644 0.0
C376 C 0.40303 0.60017 0.88601 0.0
O377 O 0.4174 0.40791 0.8481 0.0
O378 O 0.38647 0.42232 0.84536 0.0
O379 O 0.3868 0.55817 0.88434 0.0
O380 O 0.41773 0.54393 0.88675 0.0
O381 O 0.38134 0.40495 0.91856 0.0
H382 H 0.35615 0.56793 0.85622 0.0
H383 H 0.34491 0.29695 0.8975 0.0
O384 O 0.41231 0.39267 0.92137 0.0
O385 O 0.412 0.25417 0.88253 0.0
O386 O 0.38113 0.2684 0.87966 0.0
C387 C 0.3958 0.21213 0.88062 0.0
H388 H 0.47975 0.26705 0.90803 0.0
H389 H 0.31918 0.53984 0.85711 0.0
Co390 Co 0.64003 0.5881 0.87961 0.0
C391 C 0.65646 0.60537 0.92928 0.0
Co392 Co 0.67157 0.60559 0.88062 0.0
C393 C 0.59927 0.52418 0.87341 0.0
C394 C 0.60389 0.66212 0.89483 0.0
N395 N 0.61324 0.58775 0.88186 0.0
N396 N 0.58173 0.55801 0.88031 0.0
C397 C 0.58479 0.64463 0.89379 0.0
H398 H 0.6019 0.45472 0.86252 0.0
H399 H 0.61055 0.72489 0.90499 0.0
C400 C 0.65548 0.58336 0.83102 0.0
N401 N 0.69818 0.60981 0.87859 0.0
C402 C 0.71095 0.67997 0.88707 0.0
C403 C 0.70867 0.54073 0.86547 0.0
N404 N 0.72897 0.6568 0.87977 0.0
C405 C 0.72739 0.56897 0.86618 0.0
C406 C 0.65755 0.4028 0.88271 0.0
O407 O 0.63959 0.57737 0.84278 0.0
O408 O 0.6705 0.59827 0.844 0.0
O409 O 0.67217 0.46002 0.88239 0.0
O410 O 0.64115 0.44333 0.882 0.0
O411 O 0.67219 0.6114 0.91724 0.0
H412 H 0.70299 0.47525 0.85525 0.0
H413 H 0.70704 0.74728 0.89809 0.0
O414 O 0.64118 0.59712 0.91645 0.0
O415 O 0.63956 0.73364 0.87697 0.0
O416 O 0.67039 0.75052 0.879 0.0
C417 C 0.65409 0.79105 0.87745 0.0
H418 H 0.57398 0.69057 0.90311 0.0
H419 H 0.73884 0.52938 0.85646 0.0
Co420 Co 0.41633 0.5961 0.63868 0.0
C421 C 0.40575 0.60141 0.58742 0.0
Co422 Co 0.38511 0.58202 0.63356 0.0
C423 C 0.45695 0.55099 0.63465 0.0
C424 C 0.45072 0.67471 0.66044 0.0
N425 N 0.44244 0.60749 0.64422 0.0
N426 N 0.47394 0.58055 0.64428 0.0
C427 C 0.46995 0.65862 0.66049 0.0
H428 H 0.45503 0.48906 0.62099 0.0
H429 H 0.44319 0.73065 0.67199 0.0
C430 C 0.39592 0.57291 0.68479 0.0
N431 N 0.35886 0.57359 0.62832 0.0
C432 C 0.34538 0.63831 0.63734 0.0
C433 C 0.34946 0.50892 0.6126 0.0
N434 N 0.32799 0.61784 0.62763 0.0
C435 C 0.33056 0.53564 0.61217 0.0
C436 C 0.4038 0.39507 0.63409 0.0
O437 O 0.41231 0.58497 0.67493 0.0
O438 O 0.38152 0.57229 0.67005 0.0
O439 O 0.38755 0.43658 0.63204 0.0
O440 O 0.41835 0.45158 0.63685 0.0
O441 O 0.38922 0.59106 0.59707 0.0
H442 H 0.35604 0.44868 0.60135 0.0
H443 H 0.34842 0.70084 0.65042 0.0
O444 O 0.41997 0.60559 0.60242 0.0
O445 O 0.41384 0.74157 0.64034 0.0
O446 O 0.38321 0.72668 0.63516 0.0
C447 C 0.39768 0.78321 0.63809 0.0
H448 H 0.48011 0.69931 0.67227 0.0
H449 H 0.31977 0.50003 0.60041 0.0
Co450 Co 0.63956 0.40365 0.63184 0.0
C451 C 0.658 0.39924 0.5837 0.0
Co452 Co 0.671 0.4187 0.63353 0.0
C453 C 0.5989 0.44632 0.63716 0.0
C454 C 0.60487 0.31459 0.61392 0.0
N455 N 0.61334 0.38773 0.62822 0.0
N456 N 0.58176 0.41264 0.62894 0.0
C457 C 0.58562 0.32952 0.61432 0.0
H458 H 0.60103 0.51292 0.64928 0.0
H459 H 0.61229 0.25551 0.60326 0.0
C460 C 0.65175 0.42602 0.68158 0.0
N461 N 0.6974 0.43448 0.63686 0.0
C462 C 0.71197 0.3743 0.62882 0.0
C463 C 0.70583 0.51257 0.64946 0.0
N464 N 0.72911 0.41258 0.63578 0.0
C465 C 0.72513 0.49964 0.64877 0.0
C466 C 0.65177 0.6052 0.62959 0.0
O467 O 0.63705 0.41176 0.66796 0.0
O468 O 0.66795 0.42982 0.67054 0.0
O469 O 0.66803 0.56361 0.63065 0.0
O470 O 0.63709 0.54854 0.62961 0.0
O471 O 0.6733 0.40857 0.59648 0.0
H472 H 0.69839 0.57441 0.65903 0.0
H473 H 0.71003 0.30375 0.61813 0.0
O474 O 0.6423 0.39642 0.59577 0.0
O475 O 0.64252 0.25869 0.63413 0.0
O476 O 0.67343 0.27395 0.63633 0.0
C477 C 0.65876 0.2172 0.63577 0.0
H478 H 0.57537 0.28425 0.60382 0.0
H479 H 0.73541 0.54922 0.65792 0.0
H480 H 0.249 0.3 0.1334 0.0
H481 H 0.26866 0.99409 0.11732 0.0
H482 H 0.30079 0.05831 0.11025 0.0
H483 H 0.32412 0.19604 0.11622 0.0
H484 H 0.30553 0.5002 0.13534 0.0
H485 H 0.2723 0.44446 0.13312 0.0
C486 C 0.26027 0.24847 0.12757 0.0
C487 C 0.25655 0.14236 0.12596 0.0
C488 C 0.27895 0.28598 0.12427 0.0
C489 C 0.27128 0.07582 0.11876 0.0
C490 C 0.28964 0.11252 0.1148 0.0
C491 C 0.31269 0.25075 0.11869 0.0
C492 C 0.31715 0.35234 0.12539 0.0
C493 C 0.29378 0.21668 0.11848 0.0
C494 C 0.30235 0.4223 0.1295 0.0
C495 C 0.28339 0.38982 0.12864 0.0
H496 H 0.79806 0.99129 0.13264 0.0
H497 H 0.83622 0.733 0.13087 0.0
H498 H 0.80945 0.61528 0.12938 0.0
H499 H 0.7752 0.58421 0.13051 0.0
H500 H 0.73669 0.84042 0.13311 0.0
H501 H 0.76348 0.95987 0.13211 0.0
C502 C 0.80052 0.90928 0.13195 0.0
C503 C 0.81926 0.87165 0.13191 0.0
C504 C 0.78495 0.84132 0.13125 0.0
C505 C 0.82209 0.76485 0.13061 0.0
C506 C 0.80673 0.6971 0.12994 0.0
C507 C 0.77263 0.66616 0.13093 0.0
C508 C 0.75389 0.70291 0.13211 0.0
C509 C 0.78811 0.73433 0.13054 0.0
C510 C 0.7509 0.80966 0.13204 0.0
C511 C 0.76625 0.8781 0.13165 0.0
H512 H 0.30078 0.5373 0.37947 0.0
H513 H 0.33086 0.82532 0.37525 0.0
H514 H 0.30091 0.91835 0.3753 0.0
H515 H 0.26614 0.91809 0.3745 0.0
H516 H 0.23577 0.63128 0.37866 0.0
H517 H 0.26577 0.53767 0.38088 0.0
C518 C 0.30077 0.62039 0.37856 0.0
C519 C 0.31812 0.67402 0.37724 0.0
C520 C 0.28341 0.67366 0.37856 0.0
C521 C 0.31781 0.78193 0.37652 0.0
C522 C 0.30065 0.83527 0.37638 0.0
C523 C 0.26608 0.83508 0.37586 0.0
C524 C 0.2487 0.78178 0.37616 0.0
C525 C 0.28337 0.78195 0.37708 0.0
C526 C 0.2489 0.67427 0.37852 0.0
C527 C 0.26607 0.6207 0.37962 0.0
H528 H 0.8216 0.26756 0.37584 0.0
H529 H 0.79925 0.96104 0.36853 0.0
H530 H 0.76696 0.02741 0.37107 0.0
H531 H 0.7449 0.17488 0.37217 0.0
H532 H 0.76751 0.48114 0.37778 0.0
H533 H 0.7997 0.4132 0.37956 0.0
C534 C 0.80968 0.21519 0.37524 0.0
C535 C 0.81288 0.10956 0.3718 0.0
C536 C 0.79111 0.25412 0.37634 0.0
C537 C 0.7972 0.04286 0.37075 0.0
C538 C 0.77871 0.08074 0.37231 0.0
C539 C 0.75689 0.22617 0.37427 0.0
C540 C 0.75388 0.33277 0.37475 0.0
C541 C 0.77546 0.18648 0.37464 0.0
C542 C 0.76953 0.39882 0.37714 0.0
C543 C 0.78793 0.36002 0.37815 0.0
H544 H 0.76492 0.58494 0.8781 0.0
H545 H 0.73247 0.86091 0.89065 0.0
H546 H 0.76178 0.95933 0.89509 0.0
H547 H 0.79681 0.96814 0.89392 0.0
H548 H 0.82875 0.69065 0.8807 0.0
H549 H 0.79948 0.59314 0.87716 0.0
C550 C 0.76412 0.66676 0.88156 0.0
C551 C 0.74629 0.7149 0.88382 0.0
C552 C 0.78105 0.72328 0.88368 0.0
C553 C 0.74583 0.82096 0.88899 0.0
C554 C 0.76266 0.87765 0.89135 0.0
C555 C 0.79742 0.88628 0.89042 0.0
C556 C 0.81518 0.8376 0.88742 0.0
C557 C 0.78038 0.82978 0.88854 0.0
C558 C 0.81548 0.73127 0.88262 0.0
C559 C 0.79867 0.67492 0.88081 0.0
H560 H 0.31697 0.20233 0.88603 0.0
H561 H 0.29205 0.5038 0.8817 0.0
H562 H 0.26044 0.42889 0.88382 0.0
H563 H 0.23954 0.27647 0.88421 0.0
H564 H 0.26454 0.97543 0.88903 0.0
H565 H 0.29612 0.05104 0.88968 0.0
C566 C 0.30466 0.25184 0.88595 0.0
C567 C 0.30706 0.3588 0.88336 0.0
C568 C 0.28636 0.20808 0.88712 0.0
C569 C 0.29078 0.42122 0.88312 0.0
C570 C 0.2726 0.3784 0.88447 0.0
C571 C 0.25187 0.22756 0.88583 0.0
C572 C 0.24955 0.12011 0.88625 0.0
C573 C 0.27017 0.27173 0.88605 0.0
C574 C 0.26582 0.05815 0.88816 0.0
C575 C 0.28395 0.10141 0.88864 0.0
H576 H 0.73834 0.21151 0.63035 0.0
H577 H 0.76245 0.51558 0.63261 0.0
H578 H 0.79429 0.44359 0.63108 0.0
H579 H 0.81565 0.29259 0.63252 0.0
H580 H 0.79132 0.98936 0.63061 0.0
H581 H 0.75956 0.06195 0.62813 0.0
C582 C 0.75052 0.26216 0.63006 0.0
C583 C 0.74783 0.36902 0.63196 0.0
C584 C 0.76894 0.22008 0.62933 0.0
C585 C 0.76396 0.43302 0.63173 0.0
C586 C 0.78226 0.39187 0.63072 0.0
C587 C 0.8034 0.24277 0.63103 0.0
C588 C 0.8059 0.13561 0.63196 0.0
C589 C 0.78499 0.28532 0.63004 0.0
C590 C 0.78981 0.07203 0.63027 0.0
C591 C 0.7716 0.11353 0.62885 0.0
H592 H 0.26222 0.93556 0.64529 0.0
H593 H 0.22807 0.67362 0.62469 0.0
H594 H 0.25673 0.57083 0.61875 0.0
H595 H 0.29162 0.554 0.62075 0.0
H596 H 0.32523 0.81807 0.6417 0.0
H597 H 0.29665 0.91966 0.64694 0.0
C598 C 0.26092 0.85576 0.63974 0.0
C599 C 0.24283 0.81276 0.63566 0.0
C600 C 0.27745 0.79675 0.63669 0.0
C601 C 0.24168 0.70954 0.6278 0.0
C602 C 0.25812 0.65034 0.62457 0.0
C603 C 0.29275 0.63386 0.62632 0.0
C604 C 0.31077 0.67732 0.631 0.0
C605 C 0.27611 0.69295 0.62912 0.0
C606 C 0.31174 0.78113 0.63843 0.0
C607 C 0.29533 0.83996 0.64123 0.0
H608 H 0.18088 0.95686 0.30232 0.0
H609 H 0.12087 0.89587 0.3054 0.0
H610 H 0.1185 0.93002 0.25881 0.0
H611 H 0.1339 0.97537 0.217 0.0
H612 H 0.19395 0.04008 0.21584 0.0
H613 H 0.19576 0.00718 0.26193 0.0
C614 C 0.16726 0.95027 0.29284 0.0
C615 C 0.15112 0.92266 0.30722 0.0
C616 C 0.16598 0.97146 0.26638 0.0
C617 C 0.13354 0.91641 0.29468 0.0
C618 C 0.13218 0.93614 0.26808 0.0
C619 C 0.14732 0.98299 0.2269 0.0
C620 C 0.16375 0.00975 0.21286 0.0
C621 C 0.14835 0.96374 0.2537 0.0
C622 C 0.18105 0.0193 0.22602 0.0
C623 C 0.18216 0.00025 0.25244 0.0
H624 H 0.88704 0.01351 0.2974 0.0
H625 H 0.94542 0.10417 0.30597 0.0
H626 H 0.95036 0.08548 0.25913 0.0
H627 H 0.93742 0.04748 0.21531 0.0
H628 H 0.87874 0.95651 0.20906 0.0
H629 H 0.87473 0.97058 0.2554 0.0
C630 C 0.90088 0.02963 0.28912 0.0
C631 C 0.91577 0.06121 0.30509 0.0
C632 C 0.90359 0.01828 0.26251 0.0
C633 C 0.93367 0.08021 0.29402 0.0
C634 C 0.9365 0.06943 0.26727 0.0
C635 C 0.92386 0.02999 0.22421 0.0
C636 C 0.90838 0.00201 0.20865 0.0
C637 C 0.9215 0.0389 0.25124 0.0
C638 C 0.89086 0.97952 0.22045 0.0
C639 C 0.88849 0.9874 0.24702 0.0
H640 H 0.87461 0.98024 0.71662 0.0
H641 H 0.93484 0.02231 0.70614 0.0
H642 H 0.93999 0.99175 0.75195 0.0
H643 H 0.92764 0.95311 0.79505 0.0
H644 H 0.86751 0.91203 0.80626 0.0
H645 H 0.86217 0.94126 0.76021 0.0
C646 C 0.88883 0.98328 0.72442 0.0
C647 C 0.90427 0.00352 0.70795 0.0
C648 C 0.89178 0.96501 0.75091 0.0
C649 C 0.92265 0.00664 0.71834 0.0
C650 C 0.92566 0.98902 0.74456 0.0
C651 C 0.91338 0.94974 0.7874 0.0
C652 C 0.89804 0.93016 0.80405 0.0
C653 C 0.91037 0.96769 0.761 0.0
C654 C 0.87961 0.92693 0.79385 0.0
C655 C 0.87651 0.94389 0.76752 0.0
H656 H 0.12758 0.02221 0.80075 0.0
H657 H 0.18828 0.0551 0.80638 0.0
H658 H 0.19161 0.02731 0.76014 0.0
H659 H 0.17755 0.99294 0.71797 0.0
H660 H 0.11692 0.96086 0.71162 0.0
H661 H 0.1134 0.98824 0.7581 0.0
C662 C 0.1415 0.02389 0.79181 0.0
C663 C 0.1576 0.04074 0.80707 0.0
C664 C 0.1434 0.00722 0.76504 0.0
C665 C 0.17559 0.04216 0.79517 0.0
C666 C 0.17756 0.02608 0.76867 0.0
C667 C 0.16357 0.99128 0.72676 0.0
C668 C 0.14757 0.97461 0.71135 0.0
C669 C 0.1616 0.00803 0.75343 0.0
C670 C 0.12953 0.9735 0.72305 0.0
C671 C 0.12746 0.98938 0.74964 0.0
H672 H 0.68435 0.46065 0.29806 0.0
H673 H 0.62376 0.42542 0.30415 0.0
H674 H 0.62074 0.45422 0.25746 0.0
H675 H 0.63561 0.48922 0.21466 0.0
H676 H 0.69635 0.52765 0.21035 0.0
H677 H 0.69888 0.49838 0.2565 0.0
C678 C 0.67045 0.45866 0.28923 0.0
C679 C 0.65433 0.44014 0.30456 0.0
C680 C 0.66882 0.47647 0.26261 0.0
C681 C 0.63643 0.43918 0.29277 0.0
C682 C 0.63469 0.4558 0.26607 0.0
C683 C 0.64936 0.49162 0.22388 0.0
C684 C 0.66573 0.51053 0.2089 0.0
C685 C 0.65082 0.47471 0.25076 0.0
C686 C 0.68346 0.51331 0.22122 0.0
C687 C 0.68498 0.49633 0.2477 0.0
H688 H 0.38783 0.5315 0.30107 0.0
H689 H 0.44672 0.61629 0.30671 0.0
H690 H 0.45118 0.58035 0.26057 0.0
H691 H 0.43805 0.5254 0.2183 0.0
H692 H 0.37902 0.43966 0.21423 0.0
H693 H 0.37508 0.47434 0.25998 0.0
C694 C 0.40164 0.54282 0.29225 0.0
C695 C 0.41686 0.57733 0.30732 0.0
C696 C 0.40415 0.52094 0.26591 0.0
C697 C 0.43472 0.59026 0.29554 0.0
C698 C 0.43729 0.56942 0.26915 0.0
C699 C 0.42439 0.51355 0.22751 0.0
C700 C 0.40889 0.47995 0.2127 0.0
C701 C 0.42209 0.53447 0.25411 0.0
C702 C 0.39125 0.46551 0.22498 0.0
C703 C 0.38891 0.48561 0.25123 0.0
H704 H 0.37437 0.46668 0.80063 0.0
H705 H 0.43489 0.4239 0.80497 0.0
H706 H 0.43811 0.47121 0.75946 0.0
H707 H 0.4239 0.52633 0.71861 0.0
H708 H 0.36338 0.56687 0.7138 0.0
H709 H 0.36007 0.51988 0.75944 0.0
C710 C 0.38826 0.4669 0.7916 0.0
C711 C 0.40436 0.44141 0.80626 0.0
C712 C 0.39005 0.49487 0.76541 0.0
C713 C 0.42224 0.44273 0.7942 0.0
C714 C 0.42412 0.47025 0.76817 0.0
C715 C 0.40997 0.52575 0.72756 0.0
C716 C 0.39392 0.55084 0.71281 0.0
C717 C 0.40815 0.49715 0.75366 0.0
C718 C 0.37598 0.54834 0.7247 0.0
C719 C 0.37407 0.52112 0.75078 0.0
H720 H 0.62868 0.50694 0.7982 0.0
H721 H 0.68632 0.6174 0.80041 0.0
H722 H 0.69051 0.57485 0.75489 0.0
H723 H 0.67809 0.5043 0.7144 0.0
H724 H 0.62045 0.39461 0.71179 0.0
H725 H 0.61612 0.43773 0.75738 0.0
C726 C 0.64208 0.52268 0.78865 0.0
C727 C 0.65711 0.56559 0.80276 0.0
C728 C 0.64452 0.49696 0.76239 0.0
C729 C 0.67446 0.58452 0.79008 0.0
C730 C 0.67693 0.55985 0.76402 0.0
C731 C 0.66464 0.48895 0.72386 0.0
C732 C 0.64969 0.44567 0.7097 0.0
C733 C 0.66213 0.51521 0.75002 0.0
C734 C 0.63225 0.42757 0.72222 0.0
C735 C 0.62972 0.45255 0.7483 0.0
H736 H 0.18817 0.05157 0.96709 0.0
H737 H 0.1277 0.0981 0.96393 0.0
H738 H 0.12572 0.09047 0.01085 0.0
H739 H 0.1409 0.06745 0.05284 0.0
H740 H 0.20144 0.02606 0.05659 0.0
H741 H 0.2036 0.03503 0.00946 0.0
C742 C 0.17458 0.0605 0.97668 0.0
C743 C 0.15811 0.07421 0.96193 0.0
C744 C 0.17351 0.05665 1.0038 0.0
C745 C 0.14061 0.08624 0.9747 0.0
C746 C 0.13943 0.08204 1.0016 0.0
C747 C 0.15457 0.06019 0.04335 0.0
C748 C 0.17094 0.04544 0.05817 0.0
C749 C 0.15575 0.06642 0.01632 0.0
C750 C 0.18859 0.0373 0.04561 0.0
C751 C 0.18985 0.04241 0.01866 0.0
H752 H 0.88299 0.94528 0.96501 0.0
H753 H 0.94318 0.89645 0.95715 0.0
H754 H 0.94693 0.91473 1.00397 0.0
H755 H 0.93299 0.9466 0.04713 0.0
H756 H 0.87269 0.99611 0.05392 0.0
H757 H 0.86921 0.97603 1.00746 0.0
C758 C 0.89695 0.9381 0.97348 0.0
C759 C 0.91277 0.91937 0.95761 0.0
C760 C 0.89901 0.94942 1.00023 0.0
C761 C 0.93075 0.91071 0.96895 0.0
C762 C 0.93291 0.92138 0.99571 0.0
C763 C 0.91911 0.95322 0.03841 0.0
C764 C 0.90316 0.97299 0.05402 0.0
C765 C 0.91714 0.94126 0.01154 0.0
C766 C 0.88525 0.98106 0.04243 0.0
C767 C 0.8832 0.96943 0.01582 0.0
H768 H 0.13791 0.93136 0.46722 0.0
H769 H 0.19692 0.85032 0.46063 0.0
H770 H 0.20032 0.8638 0.50774 0.0
H771 H 0.18613 0.89921 0.5511 0.0
H772 H 0.12702 0.98406 0.55532 0.0
H773 H 0.12423 0.96898 0.50896 0.0
C774 C 0.15154 0.91608 0.47599 0.0
C775 C 0.16708 0.88936 0.46044 0.0
C776 C 0.15343 0.92521 0.50278 0.0
C777 C 0.18467 0.87079 0.47221 0.0
C778 C 0.18664 0.8787 0.49913 0.0
C779 C 0.17271 0.91486 0.5418 0.0
C780 C 0.15684 0.94227 0.55685 0.0
C781 C 0.17108 0.9062 0.51468 0.0
C782 C 0.13952 0.96225 0.54443 0.0
C783 C 0.13783 0.95365 0.5178 0.0
H784 H 0.86771 0.02874 0.54458 0.0
H785 H 0.9251 0.12964 0.55815 0.0
H786 H 0.93033 0.15169 0.51221 0.0
H787 H 0.91974 0.13257 0.46799 0.0
H788 H 0.86267 0.03252 0.45262 0.0
H789 H 0.85623 0.02065 0.49912 0.0
C790 C 0.88123 0.05657 0.53739 0.0
C791 C 0.89604 0.07568 0.55477 0.0
C792 C 0.88433 0.06863 0.51056 0.0
C793 C 0.91351 0.11226 0.54521 0.0
C794 C 0.91658 0.12527 0.51888 0.0
C795 C 0.90586 0.10849 0.47477 0.0
C796 C 0.89182 0.08244 0.45691 0.0
C797 C 0.90227 0.1017 0.50136 0.0
C798 C 0.87381 0.05266 0.46603 0.0
C799 C 0.8701 0.04569 0.49263 0.0
H800 H 0.63967 0.56406 0.04897 0.0
H801 H 0.70075 0.56401 0.05159 0.0
H802 H 0.70222 0.58472 1.00469 0.0
H803 H 0.6862 0.60038 0.96275 0.0
H804 H 0.6251 0.60075 0.96029 0.0
H805 H 0.62368 0.5833 1.00723 0.0
C806 C 0.65331 0.56839 0.0393 0.0
C807 C 0.67006 0.56202 0.05383 0.0
C808 C 0.65408 0.58086 0.0123 0.0
C809 C 0.68761 0.56844 0.04093 0.0
C810 C 0.68848 0.58044 0.01408 0.0
C811 C 0.67257 0.59737 0.97249 0.0
C812 C 0.6558 0.60177 0.95794 0.0
C813 C 0.67181 0.58662 0.99955 0.0
C814 C 0.63826 0.59744 0.97093 0.0
C815 C 0.63741 0.58722 0.99781 0.0
H816 H 0.42497 0.40611 0.96684 0.0
H817 H 0.36403 0.39144 0.96238 0.0
H818 H 0.36177 0.40094 0.00955 0.0
H819 H 0.37717 0.41719 0.05219 0.0
H820 H 0.43817 0.43531 0.05576 0.0
H821 H 0.44023 0.42089 0.00895 0.0
C822 C 0.41117 0.4044 0.97614 0.0
C823 C 0.39471 0.398 0.96103 0.0
C824 C 0.40995 0.41103 1.0032 0.0
C825 C 0.37696 0.39638 0.9735 0.0
C826 C 0.37564 0.40195 1.0005 0.0
C827 C 0.3909 0.4179 0.04272 0.0
C828 C 0.40746 0.42754 0.05759 0.0
C829 C 0.39205 0.41001 0.01557 0.0
C830 C 0.42515 0.42828 0.04492 0.0
C831 C 0.42638 0.4199 0.01808 0.0
H832 H 0.6404 0.38033 0.46471 0.0
H833 H 0.70107 0.41086 0.45859 0.0
H834 H 0.70354 0.41112 0.50594 0.0
H835 H 0.68801 0.40777 0.54932 0.0
H836 H 0.62712 0.37604 0.55348 0.0
H837 H 0.62532 0.37129 0.50677 0.0
C838 C 0.65422 0.38699 0.47364 0.0
C839 C 0.6705 0.3963 0.45812 0.0
C840 C 0.6555 0.38714 0.50064 0.0
C841 C 0.68828 0.40373 0.47011 0.0
C842 C 0.68969 0.4041 0.49718 0.0
C843 C 0.67439 0.39949 0.53996 0.0
C844 C 0.65775 0.39297 0.55505 0.0
C845 C 0.67334 0.39665 0.5127 0.0
C846 C 0.64021 0.38184 0.54254 0.0
C847 C 0.6391 0.37901 0.51572 0.0
H848 H 0.37855 0.59972 0.55022 0.0
H849 H 0.43908 0.61813 0.56067 0.0
H850 H 0.44368 0.62695 0.5139 0.0
H851 H 0.43063 0.62666 0.46999 0.0
H852 H 0.37012 0.60752 0.45948 0.0
H853 H 0.36547 0.60224 0.50629 0.0
C854 C 0.39276 0.60579 0.54229 0.0
C855 C 0.40843 0.60805 0.559 0.0
C856 C 0.39533 0.61079 0.51534 0.0
C857 C 0.42674 0.61615 0.54833 0.0
C858 C 0.4294 0.62121 0.52155 0.0
C859 C 0.41641 0.62173 0.47791 0.0
C860 C 0.40077 0.61734 0.46118 0.0
C861 C 0.41381 0.61825 0.50487 0.0
C862 C 0.38244 0.61093 0.47185 0.0
C863 C 0.37975 0.60778 0.49865 0.0
H864 H 1.00867 0.13958 0.13819 0.0
H865 H 0.99831 0.81422 0.14161 0.0
H866 H 0.03244 0.78251 0.14565 0.0
H867 H 0.06537 0.84747 0.14233 0.0
H868 H 0.07564 0.17317 0.13941 0.0
H869 H 0.04145 0.20554 0.14142 0.0
C870 C 1.01392 0.06193 0.14041 0.0
C871 C 1.00103 0.97909 0.13943 0.0
C872 C 0.03353 0.04474 0.14253 0.0
C873 C 1.00792 0.87892 0.1425 0.0
C874 C 1.02745 0.86099 0.14454 0.0
C875 C 0.06008 0.92553 0.14261 0.0
C876 C 0.073 0.00799 0.14044 0.0
C877 C 0.04041 0.94316 0.1437 0.0
C878 C 0.06602 0.10873 0.14116 0.0
C879 C 0.04646 0.12701 0.14209 0.0
H880 H 1.01027 0.18865 0.38977 0.0
H881 H 0.98637 0.88397 0.39137 0.0
H882 H 1.01811 0.80977 0.38997 0.0
H883 H 0.0527 0.83134 0.3911 0.0
H884 H 0.07695 0.13479 0.3889 0.0
H885 H 0.04512 0.20993 0.38743 0.0
C886 C 1.01204 0.10604 0.38975 0.0
C887 C 0.99592 0.04193 0.39091 0.0
C888 C 1.03041 0.06385 0.38885 0.0
C889 C 0.99846 0.935 0.39036 0.0
C890 C 1.01663 0.89255 0.38971 0.0
C891 C 0.051 0.91394 0.39017 0.0
C892 C 0.06716 0.97753 0.39039 0.0
C893 C 0.0327 0.95618 0.38936 0.0
C894 C 0.06476 0.08431 0.38866 0.0
C895 C 0.04656 0.12715 0.38801 0.0
H896 H 0.06658 0.94859 0.84992 0.0
H897 H 0.05635 0.22802 0.89161 0.0
H898 H 1.0221 0.20595 0.88656 0.0
H899 H 0.99506 0.08976 0.87713 0.0
H900 H 1.00573 0.80457 0.83787 0.0
H901 H 0.03943 0.84581 0.83462 0.0
C902 C 0.05681 0.00675 0.85677 0.0
C903 C 0.06395 0.0909 0.87065 0.0
C904 C 0.03708 0.9909 0.8547 0.0
C905 C 0.05114 0.16395 0.88036 0.0
C906 C 1.03155 0.15042 0.87778 0.0
C907 C 1.00471 0.03868 0.86711 0.0
C908 C 0.99792 0.94404 0.85781 0.0
C909 C 1.0243 0.0618 0.86598 0.0
C910 C 1.01065 0.87761 0.84524 0.0
C911 C 1.02995 0.901 0.84348 0.0
H912 H 0.99697 0.85036 0.63553 0.0
H913 H 0.98748 0.17645 0.63859 0.0
H914 H 1.02162 0.20626 0.64299 0.0
H915 H 0.05425 0.1395 0.63988 0.0
H916 H 0.06374 0.81339 0.6369 0.0
H917 H 1.02949 0.78253 0.63897 0.0
C918 C 1.00243 0.92772 0.63762 0.0
C919 C 0.98987 0.01138 0.63639 0.0
C920 C 1.02201 0.94382 0.63996 0.0
C921 C 0.99693 0.11123 0.63953 0.0
C922 C 1.01643 0.12808 0.64183 0.0
C923 C 0.04875 0.06174 0.64017 0.0
C924 C 0.06138 0.97867 0.6379 0.0
C925 C 1.02911 0.04511 0.64116 0.0
C926 C 0.05425 0.87818 0.63868 0.0
C927 C 0.03469 0.86078 0.63964 0.0
H928 H 0.50931 0.64217 0.14155 0.0
H929 H 0.499 0.31635 0.13965 0.0
H930 H 0.53318 0.28398 0.14125 0.0
H931 H 0.56598 0.34957 0.13809 0.0
H932 H 0.57632 0.67531 0.14024 0.0
H933 H 0.54218 0.70712 0.144 0.0
C934 C 0.51458 0.56408 0.14185 0.0
C935 C 0.50165 0.48161 0.14018 0.0
C936 C 0.53424 0.54642 0.14265 0.0
C937 C 0.50863 0.38086 0.14101 0.0
C938 C 0.52818 0.36254 0.14171 0.0
C939 C 0.56074 0.42744 0.13975 0.0
C940 C 0.57364 0.51021 0.13858 0.0
C941 C 0.54111 0.44478 0.14177 0.0
C942 C 0.56671 0.61057 0.14118 0.0
C943 C 0.54718 0.62861 0.14311 0.0
H944 H 0.51514 0.70956 0.38539 0.0
H945 H 0.49032 0.40737 0.38951 0.0
H946 H 0.52183 0.33018 0.38821 0.0
H947 H 0.55647 0.34914 0.38905 0.0
H948 H 0.5815 0.65059 0.38493 0.0
H949 H 0.54992 0.72785 0.38282 0.0
C950 C 0.51666 0.62683 0.38593 0.0
C951 C 0.50039 0.56433 0.38781 0.0
C952 C 0.53485 0.58305 0.38523 0.0
C953 C 0.50256 0.45715 0.38794 0.0
C954 C 0.52059 0.41303 0.38737 0.0
C955 C 0.55499 0.43174 0.3876 0.0
C956 C 0.57129 0.49422 0.38747 0.0
C957 C 0.53683 0.47528 0.3865 0.0
C958 C 0.56919 0.60096 0.38499 0.0
C959 C 0.55113 0.64506 0.38397 0.0
H960 H 0.50661 0.29776 0.88132 0.0
H961 H 0.48234 0.60105 0.87724 0.0
H962 H 0.51395 0.67548 0.87298 0.0
H963 H 0.54856 0.65611 0.87374 0.0
H964 H 0.57321 0.35451 0.87872 0.0
H965 H 0.54145 0.2776 0.87896 0.0
C966 C 0.5082 0.38016 0.87949 0.0
C967 C 0.49196 0.44361 0.87989 0.0
C968 C 0.52654 0.42274 0.87722 0.0
C969 C 0.49442 0.55009 0.87688 0.0
C970 C 0.51256 0.59285 0.8746 0.0
C971 C 0.547 0.57343 0.87476 0.0
C972 C 0.56331 0.51125 0.87653 0.0
C973 C 0.52872 0.53017 0.87523 0.0
C974 C 0.56099 0.40415 0.87724 0.0
C975 C 0.5428 0.36031 0.87761 0.0
H976 H 0.50809 0.67323 0.6492 0.0
H977 H 0.4817 0.38552 0.62902 0.0
H978 H 0.51282 0.30787 0.6228 0.0
H979 H 0.54747 0.3202 0.62407 0.0
H980 H 0.5739 0.60865 0.64376 0.0
H981 H 0.54282 0.68595 0.65006 0.0
C982 C 0.50908 0.59332 0.64362 0.0
C983 C 0.49241 0.53558 0.63965 0.0
C984 C 0.52708 0.54874 0.64026 0.0
C985 C 0.49415 0.4325 0.63194 0.0
C986 C 0.51199 0.3877 0.62856 0.0
C987 C 0.54656 0.40025 0.62949 0.0
C988 C 0.56326 0.45799 0.63336 0.0
C989 C 0.52856 0.44497 0.63274 0.0
C990 C 0.5615 0.56134 0.64091 0.0
C991 C 0.54365 0.60608 0.64434 0.0
H992 H 0.14204 0.69719 0.13399 0.0
H993 H 0.20299 0.72218 0.13541 0.0
H994 H 0.20565 0.53519 0.13635 0.0
H995 H 0.1907 0.36514 0.13688 0.0
H996 H 0.12974 0.34015 0.13559 0.0
H997 H 0.12709 0.5271 0.13458 0.0
C998 C 0.15593 0.6619 0.13447 0.0
C999 C 0.17231 0.72381 0.1346 0.0
C1000 C 0.15735 0.55444 0.1351 0.0
C1001 C 0.19016 0.67653 0.13526 0.0
C1002 C 0.19169 0.56957 0.13583 0.0
C1003 C 0.17681 0.40038 0.13643 0.0
C1004 C 0.16043 0.33844 0.13635 0.0
C1005 C 0.17538 0.50785 0.1358 0.0
C1006 C 0.14257 0.38576 0.1357 0.0
C1007 C 0.14104 0.49272 0.13509 0.0
H1008 H 0.88168 0.33418 0.13586 0.0
H1009 H 0.94145 0.29232 0.12151 0.0
H1010 H 0.94634 0.47718 0.12211 0.0
H1011 H 0.93378 0.65154 0.1268 0.0
H1012 H 0.87401 0.69341 0.14116 0.0
H1013 H 0.86911 0.50862 0.14055 0.0
C1014 C 0.89574 0.3656 0.13275 0.0
C1015 C 0.91112 0.29951 0.12865 0.0
C1016 C 0.89854 0.47228 0.13323 0.0
C1017 C 0.92931 0.34142 0.12476 0.0
C1018 C 0.93217 0.44726 0.12512 0.0
C1019 C 0.91971 0.62016 0.12991 0.0
C1020 C 0.90434 0.68627 0.13399 0.0
C1021 C 0.91691 0.51349 0.12943 0.0
C1022 C 0.88615 0.64436 0.13789 0.0
C1023 C 0.88328 0.53851 0.13754 0.0
H1024 H 0.1332 0.23134 0.38678 0.0
H1025 H 0.19392 0.19562 0.38292 0.0
H1026 H 0.19789 0.38133 0.38104 0.0
H1027 H 0.1842 0.55411 0.38041 0.0
H1028 H 0.12348 0.58983 0.38433 0.0
H1029 H 0.11951 0.4041 0.38614 0.0
C1030 C 0.1473 0.26416 0.38563 0.0
C1031 C 0.16321 0.19962 0.38505 0.0
C1032 C 0.14952 0.37112 0.38444 0.0
C1033 C 0.1814 0.24347 0.38344 0.0
C1034 C 0.18371 0.34975 0.38232 0.0
C1035 C 0.1701 0.52127 0.38156 0.0
C1036 C 0.15419 0.58581 0.38218 0.0
C1037 C 0.16788 0.41431 0.38274 0.0
C1038 C 0.136 0.54196 0.38379 0.0
C1039 C 0.13369 0.43568 0.38487 0.0
H1040 H 0.92856 0.41384 0.3872 0.0
H1041 H 0.86905 0.3869 0.36959 0.0
H1042 H 0.86605 0.57361 0.36976 0.0
H1043 H 0.88025 0.74421 0.37496 0.0
H1044 H 0.93975 0.77114 0.39261 0.0
H1045 H 0.94276 0.58443 0.39243 0.0
C1046 C 0.91492 0.44867 0.38333 0.0
C1047 C 0.89906 0.38629 0.37834 0.0
C1048 C 0.91327 0.55604 0.38354 0.0
C1049 C 0.88151 0.43294 0.37345 0.0
C1050 C 0.87976 0.53976 0.37357 0.0
C1051 C 0.89389 0.70937 0.37883 0.0
C1052 C 0.90974 0.77174 0.38383 0.0
C1053 C 0.89554 0.602 0.37863 0.0
C1054 C 0.9273 0.7251 0.38874 0.0
C1055 C 0.92904 0.61828 0.38861 0.0
H1056 H 0.88128 0.24899 0.88503 0.0
H1057 H 0.94182 0.22205 0.87515 0.0
H1058 H 0.94481 0.40863 0.87417 0.0
H1059 H 0.93031 0.57929 0.87606 0.0
H1060 H 0.86979 0.60639 0.88607 0.0
H1061 H 0.86678 0.41977 0.88698 0.0
C1062 C 0.89514 0.28382 0.88267 0.0
C1063 C 0.91129 0.22145 0.88017 0.0
C1064 C 0.89679 0.39121 0.8821 0.0
C1065 C 0.92914 0.26807 0.87713 0.0
C1066 C 0.93088 0.37484 0.87655 0.0
C1067 C 0.91645 0.54449 0.87842 0.0
C1068 C 0.90031 0.60687 0.88099 0.0
C1069 C 0.9148 0.43712 0.879 0.0
C1070 C 0.88246 0.56031 0.88406 0.0
C1071 C 0.88071 0.45352 0.88459 0.0
H1072 H 0.13184 0.39982 0.88498 0.0
H1073 H 0.19258 0.36834 0.87934 0.0
H1074 H 0.19622 0.55435 0.88076 0.0
H1075 H 0.18224 0.72617 0.88376 0.0
H1076 H 0.12152 0.75768 0.8895 0.0
H1077 H 0.11787 0.57164 0.88802 0.0
C1078 C 0.14587 0.43361 0.88395 0.0
C1079 C 0.16188 0.37009 0.88201 0.0
C1080 C 0.14791 0.54075 0.88493 0.0
C1081 C 0.17998 0.41529 0.88082 0.0
C1082 C 0.1821 0.52176 0.88167 0.0
C1083 C 0.16821 0.69238 0.8848 0.0
C1084 C 0.1522 0.75588 0.88678 0.0
C1085 C 0.16617 0.58523 0.88381 0.0
C1086 C 0.13411 0.7107 0.88799 0.0
C1087 C 0.13199 0.60423 0.8871 0.0
H1088 H 0.92199 0.69911 0.62934 0.0
H1089 H 0.86106 0.7251 0.62872 0.0
H1090 H 0.85812 0.53842 0.63095 0.0
H1091 H 0.87282 0.3681 0.63327 0.0
H1092 H 0.93375 0.34222 0.6339 0.0
H1093 H 0.93667 0.52885 0.63167 0.0
C1094 C 0.90805 0.66407 0.62959 0.0
C1095 C 0.89176 0.72621 0.62879 0.0
C1096 C 0.90645 0.55673 0.63104 0.0
C1097 C 0.87383 0.67926 0.62923 0.0
C1098 C 0.87213 0.57246 0.63058 0.0
C1099 C 0.88676 0.40314 0.63305 0.0
C1100 C 0.90304 0.341 0.63383 0.0
C1101 C 0.88835 0.5105 0.63159 0.0
C1102 C 0.92097 0.388 0.63337 0.0
C1103 C 0.92266 0.49479 0.63204 0.0
H1104 H 0.12975 0.28801 0.63248 0.0
H1105 H 0.1907 0.26485 0.6348 0.0
H1106 H 0.19326 0.45196 0.63574 0.0
H1107 H 0.17823 0.62159 0.63606 0.0
H1108 H 0.11727 0.64462 0.63374 0.0
H1109 H 0.11473 0.45758 0.63274 0.0
C1110 C 0.14362 0.32371 0.63317 0.0
C1111 C 0.16002 0.26228 0.63356 0.0
C1112 C 0.14499 0.43121 0.63378 0.0
C1113 C 0.17785 0.31012 0.63445 0.0
C1114 C 0.17933 0.41714 0.63503 0.0
C1115 C 0.16436 0.5859 0.63539 0.0
C1116 C 0.14795 0.64731 0.63502 0.0
C1117 C 0.16299 0.47837 0.63475 0.0
C1118 C 0.13013 0.59942 0.63406 0.0
C1119 C 0.12866 0.49241 0.63347 0.0
H1120 H 0.69099 0.8703 0.13259 0.0
H1121 H 0.62999 0.84699 0.13375 0.0
H1122 H 0.62751 0.03401 0.13217 0.0
H1123 H 0.64261 0.20364 0.13029 0.0
H1124 H 0.7036 0.22697 0.12915 0.0
H1125 H 0.70609 0.03989 0.13073 0.0
C1126 C 0.67712 0.9059 0.13258 0.0
C1127 C 0.66068 0.84437 0.13333 0.0
C1128 C 0.6758 0.01341 0.13154 0.0
C1129 C 0.64287 0.89223 0.13322 0.0
C1130 C 0.64144 -0.00077 0.13227 0.0
C1131 C 0.65648 0.168 0.13032 0.0
C1132 C 0.67291 0.22953 0.12955 0.0
C1133 C 0.6578 0.0605 0.13136 0.0
C1134 C 0.69073 0.1817 0.12966 0.0
C1135 C 0.69216 0.07468 0.13062 0.0
H1136 H 0.43189 0.78068 0.1348 0.0
H1137 H 0.37087 0.76364 0.13226 0.0
H1138 H 0.36908 0.9512 0.13368 0.0
H1139 H 0.3848 0.11935 0.13582 0.0
H1140 H 0.44583 0.13623 0.13827 0.0
H1141 H 0.4476 0.94871 0.13686 0.0
C1142 C 0.41815 0.81766 0.1345 0.0
C1143 C 0.4015 0.7576 0.13339 0.0
C1144 C 0.41724 0.92545 0.13542 0.0
C1145 C 0.38389 0.80752 0.13305 0.0
C1146 C 0.38287 0.91486 0.13392 0.0
C1147 C 0.39854 0.08231 0.13611 0.0
C1148 C 0.4152 0.14234 0.13721 0.0
C1149 C 0.39945 0.97451 0.13517 0.0
C1150 C 0.4328 0.09239 0.13749 0.0
C1151 C 0.43382 0.98506 0.13664 0.0
H1152 H 0.68826 0.07243 0.3787 0.0
H1153 H 0.62753 0.11027 0.37989 0.0
H1154 H 0.62327 0.92489 0.38203 0.0
H1155 H 0.63671 0.75156 0.38373 0.0
H1156 H 0.69743 0.71375 0.38254 0.0
H1157 H 0.70169 0.89912 0.3804 0.0
C1158 C 0.6741 0.04009 0.37929 0.0
C1159 C 0.65828 0.10518 0.37907 0.0
C1160 C 0.6717 0.93325 0.38069 0.0
C1161 C 0.64 0.06199 0.38001 0.0
C1162 C 0.63752 0.95588 0.38129 0.0
C1163 C 0.65086 0.78391 0.38313 0.0
C1164 C 0.66669 0.71883 0.38335 0.0
C1165 C 0.65326 0.89075 0.38174 0.0
C1166 C 0.68496 0.76202 0.38242 0.0
C1167 C 0.68744 0.86813 0.38115 0.0
H1168 H 0.43337 0.9431 0.38825 0.0
H1169 H 0.37346 0.91466 0.37352 0.0
H1170 H 0.3702 0.10114 0.3745 0.0
H1171 H 0.38428 0.27209 0.3797 0.0
H1172 H 0.44419 0.30047 0.39442 0.0
H1173 H 0.44745 0.11401 0.39341 0.0
C1174 C 0.4196 0.97759 0.38516 0.0
C1175 C 0.4037 0.91484 0.38076 0.0
C1176 C 0.41779 0.08485 0.38588 0.0
C1177 C 0.38596 0.961 0.37689 0.0
C1178 C 0.38406 0.0677 0.3775 0.0
C1179 C 0.39805 0.23759 0.38279 0.0
C1180 C 0.41395 0.30033 0.3872 0.0
C1181 C 0.39986 0.13032 0.38205 0.0
C1182 C 0.4317 0.25414 0.39104 0.0
C1183 C 0.43359 0.14746 0.39042 0.0
H1184 H 0.37484 0.74072 0.88095 0.0
H1185 H 0.4353 0.71445 0.89088 0.0
H1186 H 0.43839 0.90106 0.88964 0.0
H1187 H 0.424 0.07157 0.88563 0.0
H1188 H 0.36353 0.09784 0.87567 0.0
H1189 H 0.36044 0.91123 0.87689 0.0
C1190 C 0.3887 0.7757 0.88294 0.0
C1191 C 0.4048 0.71349 0.88608 0.0
C1192 C 0.3904 0.88308 0.88208 0.0
C1193 C 0.42265 0.76033 0.88851 0.0
C1194 C 0.42445 0.86712 0.88775 0.0
C1195 C 0.41014 0.03659 0.88362 0.0
C1196 C 0.39403 0.09881 0.8805 0.0
C1197 C 0.40843 0.92921 0.88447 0.0
C1198 C 0.37618 0.05196 0.87805 0.0
C1199 C 0.37439 0.94517 0.87879 0.0
H1200 H 0.63015 0.25721 0.87765 0.0
H1201 H 0.69038 0.29537 0.88795 0.0
H1202 H 0.69471 0.10992 0.88672 0.0
H1203 H 0.68148 0.93664 0.88256 0.0
H1204 H 0.62125 0.89847 0.87217 0.0
H1205 H 0.61692 0.08392 0.87345 0.0
C1206 C 0.64421 0.22495 0.87975 0.0
C1207 C 0.65988 0.29012 0.88294 0.0
C1208 C 0.64665 0.11813 0.87886 0.0
C1209 C 0.67803 0.24702 0.88549 0.0
C1210 C 0.68055 0.14089 0.88474 0.0
C1211 C 0.66742 0.96889 0.88046 0.0
C1212 C 0.65175 0.90372 0.87723 0.0
C1213 C 0.66498 0.07571 0.88134 0.0
C1214 C 0.6336 0.94682 0.87465 0.0
C1215 C 0.63108 0.05295 0.87543 0.0
H1216 H 0.42578 0.92619 0.63901 0.0
H1217 H 0.36496 0.89403 0.63633 0.0
H1218 H 0.36151 0.08007 0.63433 0.0
H1219 H 0.37569 0.25203 0.63317 0.0
H1220 H 0.43651 0.28419 0.6358 0.0
H1221 H 0.43996 0.09815 0.63782 0.0
C1222 C 0.41177 0.95985 0.63809 0.0
C1223 C 0.39568 0.89618 0.63786 0.0
C1224 C 0.40985 0.06697 0.63679 0.0
C1225 C 0.37761 0.94115 0.63655 0.0
C1226 C 0.3756 0.04762 0.63536 0.0
C1227 C 0.38971 0.21839 0.63408 0.0
C1228 C 0.40579 0.28207 0.63431 0.0
C1229 C 0.39162 0.11126 0.63538 0.0
C1230 C 0.42386 0.23708 0.63559 0.0
C1231 C 0.42587 0.13061 0.63679 0.0
H1232 H 0.67996 0.74648 0.63429 0.0
H1233 H 0.61942 0.71862 0.62531 0.0
H1234 H 0.61625 0.90507 0.62696 0.0
H1235 H 0.63059 0.07586 0.63109 0.0
H1236 H 0.69113 0.10379 0.64015 0.0
H1237 H 0.6943 0.91733 0.63849 0.0
C1238 C 0.66607 0.78109 0.63256 0.0
C1239 C 0.64996 0.71847 0.62958 0.0
C1240 C 0.66431 0.88837 0.63371 0.0
C1241 C 0.63207 0.76483 0.62755 0.0
C1242 C 0.63023 0.87152 0.62855 0.0
C1243 C 0.64449 0.04127 0.63282 0.0
C1244 C 0.66058 0.10392 0.63581 0.0
C1245 C 0.64624 0.934 0.6317 0.0
C1246 C 0.67848 0.05757 0.6379 0.0
C1247 C 0.68032 0.95087 0.63689 0.0
loop_
_geom_bond_atom_site_label_1
_geom_bond_atom_site_label_2
_geom_bond_distance
_geom_bond_site_symmetry_2
_ccdc_geom_bond_type
Co0 N5 2.057 . S
Co0 O17 2.021 . S
Co0 O20 2.062 . S
Co0 O24 2.117 . S
Co0 O25 2.020 1_545 S
C1 O21 1.259 . S
C1 O24 1.258 . S
Co2 N11 2.057 . S
Co2 O18 2.117 . S
Co2 O19 2.020 . S
Co2 O21 2.021 . S
Co2 O26 2.062 1_545 S
C3 N5 1.316 . S
C3 N6 1.347 . S
C3 H8 0.931 . S
C4 N5 1.375 . S
C4 C7 1.350 . S
C4 H9 0.930 . S
N5 Co0 2.057 . S
N5 C3 1.316 . S
N5 C4 1.375 . S
N6 C3 1.347 . S
N6 C7 1.373 . S
C7 C4 1.350 . S
C7 N6 1.373 . S
C7 H28 0.931 . S
H8 C3 0.931 . S
H9 C4 0.930 . S
C10 O17 1.259 . S
C10 O18 1.258 . S
N11 Co2 2.057 . S
N11 C12 1.316 . S
N11 C13 1.375 . S
C12 N11 1.316 . S
C12 N14 1.347 . S
C12 H23 0.931 . S
C13 N11 1.375 . S
C13 C15 1.350 . S
C13 H22 0.930 . S
N14 C12 1.347 . S
N14 C15 1.373 . S
C15 C13 1.350 . S
C15 N14 1.373 . S
C15 H29 0.931 . S
C16 O19 1.256 . S
C16 O20 1.255 . S
O17 Co0 2.021 . S
O17 C10 1.259 . S
O18 Co2 2.117 . S
O18 C10 1.258 . S
O19 Co2 2.020 . S
O19 C16 1.256 . S
O20 Co0 2.062 . S
O20 C16 1.255 . S
O21 C1 1.259 . S
O21 Co2 2.021 . S
H22 C13 0.930 . S
H23 C12 0.931 . S
O24 Co0 2.117 . S
O24 C1 1.258 . S
O25 Co0 2.020 1_565 S
O25 C27 1.256 . S
O26 Co2 2.062 1_565 S
O26 C27 1.255 . S
C27 O25 1.256 . S
C27 O26 1.255 . S
H28 C7 0.931 . S
H29 C15 0.931 . S
Co30 N35 2.057 . S
Co30 O47 2.021 . S
Co30 O50 2.062 . S
Co30 O54 2.117 . S
Co30 O55 2.020 1_565 S
C31 O51 1.259 . S
C31 O54 1.258 . S
Co32 N41 2.057 . S
Co32 O48 2.117 . S
Co32 O49 2.020 . S
Co32 O51 2.021 . S
Co32 O56 2.062 1_565 S
C33 N35 1.316 . S
C33 N36 1.347 . S
C33 H38 0.931 . S
C34 N35 1.375 . S
C34 C37 1.350 . S
C34 H39 0.930 . S
N35 Co30 2.057 . S
N35 C33 1.316 . S
N35 C34 1.375 . S
N36 C33 1.347 . S
N36 C37 1.373 . S
C37 C34 1.350 . S
C37 N36 1.373 . S
C37 H58 0.931 . S
H38 C33 0.931 . S
H39 C34 0.930 . S
C40 O47 1.259 . S
C40 O48 1.258 . S
N41 Co32 2.057 . S
N41 C42 1.316 . S
N41 C43 1.375 . S
C42 N41 1.316 . S
C42 N44 1.347 . S
C42 H53 0.931 . S
C43 N41 1.375 . S
C43 C45 1.350 . S
C43 H52 0.930 . S
N44 C42 1.347 . S
N44 C45 1.373 . S
C45 C43 1.350 . S
C45 N44 1.373 . S
C45 H59 0.931 . S
C46 O49 1.256 . S
C46 O50 1.255 . S
O47 Co30 2.021 . S
O47 C40 1.259 . S
O48 Co32 2.117 . S
O48 C40 1.258 . S
O49 Co32 2.020 . S
O49 C46 1.256 . S
O50 Co30 2.062 . S
O50 C46 1.255 . S
O51 C31 1.259 . S
O51 Co32 2.021 . S
H52 C43 0.930 . S
H53 C42 0.931 . S
O54 Co30 2.117 . S
O54 C31 1.258 . S
O55 Co30 2.020 1_545 S
O55 C57 1.256 . S
O56 Co32 2.062 1_545 S
O56 C57 1.255 . S
C57 O55 1.256 . S
C57 O56 1.255 . S
H58 C37 0.931 . S
H59 C45 0.931 . S
Co60 N65 2.057 . S
Co60 O77 2.021 . S
Co60 O80 2.062 . S
Co60 O84 2.117 . S
Co60 O85 2.020 1_565 S
C61 O81 1.259 . S
C61 O84 1.258 . S
Co62 N71 2.057 . S
Co62 O78 2.117 . S
Co62 O79 2.020 . S
Co62 O81 2.021 . S
Co62 O86 2.062 1_565 S
C63 N65 1.316 . S
C63 N66 1.347 . S
C63 H68 0.931 . S
C64 N65 1.375 . S
C64 C67 1.350 . S
C64 H69 0.930 . S
N65 Co60 2.057 . S
N65 C63 1.316 . S
N65 C64 1.375 . S
N66 C63 1.347 . S
N66 C67 1.373 . S
C67 C64 1.350 . S
C67 N66 1.373 . S
C67 H88 0.931 . S
H68 C63 0.931 . S
H69 C64 0.930 . S
C70 O77 1.259 . S
C70 O78 1.258 . S
N71 Co62 2.057 . S
N71 C72 1.316 . S
N71 C73 1.375 . S
C72 N71 1.316 . S
C72 N74 1.347 . S
C72 H83 0.931 . S
C73 N71 1.375 . S
C73 C75 1.350 . S
C73 H82 0.930 . S
N74 C72 1.347 . S
N74 C75 1.373 . S
C75 C73 1.350 . S
C75 N74 1.373 . S
C75 H89 0.931 . S
C76 O79 1.256 . S
C76 O80 1.255 . S
O77 Co60 2.021 . S
O77 C70 1.259 . S
O78 Co62 2.117 . S
O78 C70 1.258 . S
O79 Co62 2.020 . S
O79 C76 1.256 . S
O80 Co60 2.062 . S
O80 C76 1.255 . S
O81 C61 1.259 . S
O81 Co62 2.021 . S
H82 C73 0.930 . S
H83 C72 0.931 . S
O84 Co60 2.117 . S
O84 C61 1.258 . S
O85 Co60 2.020 1_545 S
O85 C87 1.256 . S
O86 Co62 2.062 1_545 S
O86 C87 1.255 . S
C87 O85 1.256 . S
C87 O86 1.255 . S
H88 C67 0.931 . S
H89 C75 0.931 . S
Co90 N95 2.057 . S
Co90 O107 2.021 . S
Co90 O110 2.062 . S
Co90 O114 2.117 . S
Co90 O115 2.020 1_545 S
C91 O111 1.259 . S
C91 O114 1.258 . S
Co92 N101 2.057 . S
Co92 O108 2.117 . S
Co92 O109 2.020 . S
Co92 O111 2.021 . S
Co92 O116 2.062 1_545 S
C93 N95 1.316 . S
C93 N96 1.347 . S
C93 H98 0.931 . S
C94 N95 1.375 . S
C94 C97 1.350 . S
C94 H99 0.930 . S
N95 Co90 2.057 . S
N95 C93 1.316 . S
N95 C94 1.375 . S
N96 C93 1.347 . S
N96 C97 1.373 . S
C97 C94 1.350 . S
C97 N96 1.373 . S
C97 H118 0.931 . S
H98 C93 0.931 . S
H99 C94 0.930 . S
C100 O107 1.259 . S
C100 O108 1.258 . S
N101 Co92 2.057 . S
N101 C102 1.316 . S
N101 C103 1.375 . S
C102 N101 1.316 . S
C102 N104 1.347 . S
C102 H113 0.931 . S
C103 N101 1.375 . S
C103 C105 1.350 . S
C103 H112 0.930 . S
N104 C102 1.347 . S
N104 C105 1.373 . S
C105 C103 1.350 . S
C105 N104 1.373 . S
C105 H119 0.931 . S
C106 O109 1.256 . S
C106 O110 1.255 . S
O107 Co90 2.021 . S
O107 C100 1.259 . S
O108 Co92 2.117 . S
O108 C100 1.258 . S
O109 Co92 2.020 . S
O109 C106 1.256 . S
O110 Co90 2.062 . S
O110 C106 1.255 . S
O111 C91 1.259 . S
O111 Co92 2.021 . S
H112 C103 0.930 . S
H113 C102 0.931 . S
O114 Co90 2.117 . S
O114 C91 1.258 . S
O115 Co90 2.020 1_565 S
O115 C117 1.256 . S
O116 Co92 2.062 1_565 S
O116 C117 1.255 . S
C117 O115 1.256 . S
C117 O116 1.255 . S
H118 C97 0.931 . S
H119 C105 0.931 . S
Co120 N125 2.057 . S
Co120 O137 2.021 . S
Co120 O140 2.062 1_565 S
Co120 O144 2.117 . S
Co120 O145 2.020 . S
C121 O141 1.259 . S
C121 O144 1.258 . S
Co122 N131 2.057 . S
Co122 O138 2.117 . S
Co122 O139 2.020 1_565 S
Co122 O141 2.021 . S
Co122 O146 2.062 . S
C123 N125 1.316 . S
C123 N126 1.347 . S
C123 H128 0.931 . S
C124 N125 1.375 . S
C124 C127 1.350 . S
C124 H129 0.930 . S
N125 Co120 2.057 . S
N125 C123 1.316 . S
N125 C124 1.375 . S
N126 C123 1.347 . S
N126 C127 1.373 . S
C127 C124 1.350 . S
C127 N126 1.373 . S
C127 H148 0.931 . S
H128 C123 0.931 . S
H129 C124 0.930 . S
C130 O137 1.259 . S
C130 O138 1.258 . S
N131 Co122 2.057 . S
N131 C132 1.316 . S
N131 C133 1.375 . S
C132 N131 1.316 . S
C132 N134 1.347 . S
C132 H143 0.931 . S
C133 N131 1.375 . S
C133 C135 1.350 . S
C133 H142 0.930 . S
N134 C132 1.347 . S
N134 C135 1.373 . S
C135 C133 1.350 . S
C135 N134 1.373 . S
C135 H149 0.931 . S
C136 O139 1.256 . S
C136 O140 1.255 . S
O137 Co120 2.021 . S
O137 C130 1.259 . S
O138 Co122 2.117 . S
O138 C130 1.258 . S
O139 Co122 2.020 1_545 S
O139 C136 1.256 . S
O140 Co120 2.062 1_545 S
O140 C136 1.255 . S
O141 C121 1.259 . S
O141 Co122 2.021 . S
H142 C133 0.930 . S
H143 C132 0.931 . S
O144 Co120 2.117 . S
O144 C121 1.258 . S
O145 Co120 2.020 . S
O145 C147 1.256 . S
O146 Co122 2.062 . S
O146 C147 1.255 . S
C147 O145 1.256 . S
C147 O146 1.255 . S
H148 C127 0.931 . S
H149 C135 0.931 . S
Co150 N155 2.057 . S
Co150 O167 2.021 . S
Co150 O170 2.062 1_545 S
Co150 O174 2.117 . S
Co150 O175 2.020 . S
C151 O171 1.259 . S
C151 O174 1.258 . S
Co152 N161 2.057 . S
Co152 O168 2.117 . S
Co152 O169 2.020 1_545 S
Co152 O171 2.021 . S
Co152 O176 2.062 . S
C153 N155 1.316 . S
C153 N156 1.347 . S
C153 H158 0.931 . S
C154 N155 1.375 . S
C154 C157 1.350 . S
C154 H159 0.930 . S
N155 Co150 2.057 . S
N155 C153 1.316 . S
N155 C154 1.375 . S
N156 C153 1.347 . S
N156 C157 1.373 . S
C157 C154 1.350 . S
C157 N156 1.373 . S
C157 H178 0.931 . S
H158 C153 0.931 . S
H159 C154 0.930 . S
C160 O167 1.259 . S
C160 O168 1.258 . S
N161 Co152 2.057 . S
N161 C162 1.316 . S
N161 C163 1.375 . S
C162 N161 1.316 . S
C162 N164 1.347 . S
C162 H173 0.931 . S
C163 N161 1.375 . S
C163 C165 1.350 . S
C163 H172 0.930 . S
N164 C162 1.347 . S
N164 C165 1.373 . S
C165 C163 1.350 . S
C165 N164 1.373 . S
C165 H179 0.931 . S
C166 O169 1.256 . S
C166 O170 1.255 . S
O167 Co150 2.021 . S
O167 C160 1.259 . S
O168 Co152 2.117 . S
O168 C160 1.258 . S
O169 Co152 2.020 1_565 S
O169 C166 1.256 . S
O170 Co150 2.062 1_565 S
O170 C166 1.255 . S
O171 C151 1.259 . S
O171 Co152 2.021 . S
H172 C163 0.930 . S
H173 C162 0.931 . S
O174 Co150 2.117 . S
O174 C151 1.258 . S
O175 Co150 2.020 . S
O175 C177 1.256 . S
O176 Co152 2.062 . S
O176 C177 1.255 . S
C177 O175 1.256 . S
C177 O176 1.255 . S
H178 C157 0.931 . S
H179 C165 0.931 . S
Co180 N185 2.057 . S
Co180 O197 2.021 . S
Co180 O200 2.062 1_545 S
Co180 O204 2.117 . S
Co180 O205 2.020 . S
C181 O201 1.259 . S
C181 O204 1.258 . S
Co182 N191 2.057 . S
Co182 O198 2.117 . S
Co182 O199 2.020 1_545 S
Co182 O201 2.021 . S
Co182 O206 2.062 . S
C183 N185 1.316 . S
C183 N186 1.347 . S
C183 H188 0.931 . S
C184 N185 1.375 . S
C184 C187 1.350 . S
C184 H189 0.930 . S
N185 Co180 2.057 . S
N185 C183 1.316 . S
N185 C184 1.375 . S
N186 C183 1.347 . S
N186 C187 1.373 . S
C187 C184 1.350 . S
C187 N186 1.373 . S
C187 H208 0.931 . S
H188 C183 0.931 . S
H189 C184 0.930 . S
C190 O197 1.259 . S
C190 O198 1.258 . S
N191 Co182 2.057 . S
N191 C192 1.316 . S
N191 C193 1.375 . S
C192 N191 1.316 . S
C192 N194 1.347 . S
C192 H203 0.931 . S
C193 N191 1.375 . S
C193 C195 1.350 . S
C193 H202 0.930 . S
N194 C192 1.347 . S
N194 C195 1.373 . S
C195 C193 1.350 . S
C195 N194 1.373 . S
C195 H209 0.931 . S
C196 O199 1.256 . S
C196 O200 1.255 . S
O197 Co180 2.021 . S
O197 C190 1.259 . S
O198 Co182 2.117 . S
O198 C190 1.258 . S
O199 Co182 2.020 1_565 S
O199 C196 1.256 . S
O200 Co180 2.062 1_565 S
O200 C196 1.255 . S
O201 C181 1.259 . S
O201 Co182 2.021 . S
H202 C193 0.930 . S
H203 C192 0.931 . S
O204 Co180 2.117 . S
O204 C181 1.258 . S
O205 Co180 2.020 . S
O205 C207 1.256 . S
O206 Co182 2.062 . S
O206 C207 1.255 . S
C207 O205 1.256 . S
C207 O206 1.255 . S
H208 C187 0.931 . S
H209 C195 0.931 . S
Co210 N215 2.057 . S
Co210 O227 2.021 . S
Co210 O230 2.062 1_565 S
Co210 O234 2.117 . S
Co210 O235 2.020 . S
C211 O231 1.259 . S
C211 O234 1.258 . S
Co212 N221 2.057 . S
Co212 O228 2.117 . S
Co212 O229 2.020 1_565 S
Co212 O231 2.021 . S
Co212 O236 2.062 . S
C213 N215 1.316 . S
C213 N216 1.347 . S
C213 H218 0.931 . S
C214 N215 1.375 . S
C214 C217 1.350 . S
C214 H219 0.930 . S
N215 Co210 2.057 . S
N215 C213 1.316 . S
N215 C214 1.375 . S
N216 C213 1.347 . S
N216 C217 1.373 . S
C217 C214 1.350 . S
C217 N216 1.373 . S
C217 H238 0.931 . S
H218 C213 0.931 . S
H219 C214 0.930 . S
C220 O227 1.259 . S
C220 O228 1.258 . S
N221 Co212 2.057 . S
N221 C222 1.316 . S
N221 C223 1.375 . S
C222 N221 1.316 . S
C222 N224 1.347 . S
C222 H233 0.931 . S
C223 N221 1.375 . S
C223 C225 1.350 . S
C223 H232 0.930 . S
N224 C222 1.347 . S
N224 C225 1.373 . S
C225 C223 1.350 . S
C225 N224 1.373 . S
C225 H239 0.931 . S
C226 O229 1.256 . S
C226 O230 1.255 . S
O227 Co210 2.021 . S
O227 C220 1.259 . S
O228 Co212 2.117 . S
O228 C220 1.258 . S
O229 Co212 2.020 1_545 S
O229 C226 1.256 . S
O230 Co210 2.062 1_545 S
O230 C226 1.255 . S
O231 C211 1.259 . S
O231 Co212 2.021 . S
H232 C223 0.930 . S
H233 C222 0.931 . S
O234 Co210 2.117 . S
O234 C211 1.258 . S
O235 Co210 2.020 . S
O235 C237 1.256 . S
O236 Co212 2.062 . S
O236 C237 1.255 . S
C237 O235 1.256 . S
C237 O236 1.255 . S
H238 C217 0.931 . S
H239 C225 0.931 . S
Co240 N245 2.057 . S
Co240 O257 2.021 . S
Co240 O260 2.062 . S
Co240 O264 2.117 . S
Co240 O265 2.020 . S
C241 O261 1.259 . S
C241 O264 1.258 . S
Co242 N251 2.057 . S
Co242 O258 2.117 . S
Co242 O259 2.020 . S
Co242 O261 2.021 . S
Co242 O266 2.062 . S
C243 N245 1.316 . S
C243 N246 1.347 . S
C243 H248 0.931 . S
C244 N245 1.375 . S
C244 C247 1.350 . S
C244 H249 0.930 . S
N245 Co240 2.057 . S
N245 C243 1.316 . S
N245 C244 1.375 . S
N246 C243 1.347 . S
N246 C247 1.373 . S
C247 C244 1.350 . S
C247 N246 1.373 . S
C247 H268 0.931 . S
H248 C243 0.931 . S
H249 C244 0.930 . S
C250 O257 1.259 . S
C250 O258 1.258 . S
N251 Co242 2.057 . S
N251 C252 1.316 . S
N251 C253 1.375 . S
C252 N251 1.316 . S
C252 N254 1.347 . S
C252 H263 0.931 . S
C253 N251 1.375 . S
C253 C255 1.350 . S
C253 H262 0.930 . S
N254 C252 1.347 . S
N254 C255 1.373 . S
C255 C253 1.350 . S
C255 N254 1.373 . S
C255 H269 0.931 . S
C256 O259 1.256 . S
C256 O260 1.255 . S
O257 Co240 2.021 . S
O257 C250 1.259 . S
O258 Co242 2.117 . S
O258 C250 1.258 . S
O259 Co242 2.020 . S
O259 C256 1.256 . S
O260 Co240 2.062 . S
O260 C256 1.255 . S
O261 C241 1.259 . S
O261 Co242 2.021 . S
H262 C253 0.930 . S
H263 C252 0.931 . S
O264 Co240 2.117 . S
O264 C241 1.258 . S
O265 Co240 2.020 . S
O265 C267 1.256 . S
O266 Co242 2.062 . S
O266 C267 1.255 . S
C267 O265 1.256 . S
C267 O266 1.255 . S
H268 C247 0.931 . S
H269 C255 0.931 . S
Co270 N275 2.057 . S
Co270 O287 2.021 . S
Co270 O290 2.062 . S
Co270 O294 2.117 . S
Co270 O295 2.020 . S
C271 O291 1.259 . S
C271 O294 1.258 . S
Co272 N281 2.057 . S
Co272 O288 2.117 . S
Co272 O289 2.020 . S
Co272 O291 2.021 . S
Co272 O296 2.062 . S
C273 N275 1.316 . S
C273 N276 1.347 . S
C273 H278 0.931 . S
C274 N275 1.375 . S
C274 C277 1.350 . S
C274 H279 0.930 . S
N275 Co270 2.057 . S
N275 C273 1.316 . S
N275 C274 1.375 . S
N276 C273 1.347 . S
N276 C277 1.373 . S
C277 C274 1.350 . S
C277 N276 1.373 . S
C277 H298 0.931 . S
H278 C273 0.931 . S
H279 C274 0.930 . S
C280 O287 1.259 . S
C280 O288 1.258 . S
N281 Co272 2.057 . S
N281 C282 1.316 . S
N281 C283 1.375 . S
C282 N281 1.316 . S
C282 N284 1.347 . S
C282 H293 0.931 . S
C283 N281 1.375 . S
C283 C285 1.350 . S
C283 H292 0.930 . S
N284 C282 1.347 . S
N284 C285 1.373 . S
C285 C283 1.350 . S
C285 N284 1.373 . S
C285 H299 0.931 . S
C286 O289 1.256 . S
C286 O290 1.255 . S
O287 Co270 2.021 . S
O287 C280 1.259 . S
O288 Co272 2.117 . S
O288 C280 1.258 . S
O289 Co272 2.020 . S
O289 C286 1.256 . S
O290 Co270 2.062 . S
O290 C286 1.255 . S
O291 C271 1.259 . S
O291 Co272 2.021 . S
H292 C283 0.930 . S
H293 C282 0.931 . S
O294 Co270 2.117 . S
O294 C271 1.258 . S
O295 Co270 2.020 . S
O295 C297 1.256 . S
O296 Co272 2.062 . S
O296 C297 1.255 . S
C297 O295 1.256 . S
C297 O296 1.255 . S
H298 C277 0.931 . S
H299 C285 0.931 . S
Co300 N305 2.057 . S
Co300 O317 2.021 . S
Co300 O320 2.062 . S
Co300 O324 2.117 . S
Co300 O325 2.020 . S
C301 O321 1.259 . S
C301 O324 1.258 . S
Co302 N311 2.057 . S
Co302 O318 2.117 . S
Co302 O319 2.020 . S
Co302 O321 2.021 . S
Co302 O326 2.062 . S
C303 N305 1.316 . S
C303 N306 1.347 . S
C303 H308 0.931 . S
C304 N305 1.375 . S
C304 C307 1.350 . S
C304 H309 0.930 . S
N305 Co300 2.057 . S
N305 C303 1.316 . S
N305 C304 1.375 . S
N306 C303 1.347 . S
N306 C307 1.373 . S
C307 C304 1.350 . S
C307 N306 1.373 . S
C307 H328 0.931 . S
H308 C303 0.931 . S
H309 C304 0.930 . S
C310 O317 1.259 . S
C310 O318 1.258 . S
N311 Co302 2.057 . S
N311 C312 1.316 . S
N311 C313 1.375 . S
C312 N311 1.316 . S
C312 N314 1.347 . S
C312 H323 0.931 . S
C313 N311 1.375 . S
C313 C315 1.350 . S
C313 H322 0.930 . S
N314 C312 1.347 . S
N314 C315 1.373 . S
C315 C313 1.350 . S
C315 N314 1.373 . S
C315 H329 0.931 . S
C316 O319 1.256 . S
C316 O320 1.255 . S
O317 Co300 2.021 . S
O317 C310 1.259 . S
O318 Co302 2.117 . S
O318 C310 1.258 . S
O319 Co302 2.020 . S
O319 C316 1.256 . S
O320 Co300 2.062 . S
O320 C316 1.255 . S
O321 C301 1.259 . S
O321 Co302 2.021 . S
H322 C313 0.930 . S
H323 C312 0.931 . S
O324 Co300 2.117 . S
O324 C301 1.258 . S
O325 Co300 2.020 . S
O325 C327 1.256 . S
O326 Co302 2.062 . S
O326 C327 1.255 . S
C327 O325 1.256 . S
C327 O326 1.255 . S
H328 C307 0.931 . S
H329 C315 0.931 . S
Co330 N335 2.057 . S
Co330 O347 2.021 . S
Co330 O350 2.062 . S
Co330 O354 2.117 . S
Co330 O355 2.020 . S
C331 O351 1.259 . S
C331 O354 1.258 . S
Co332 N341 2.057 . S
Co332 O348 2.117 . S
Co332 O349 2.020 . S
Co332 O351 2.021 . S
Co332 O356 2.062 . S
C333 N335 1.316 . S
C333 N336 1.347 . S
C333 H338 0.931 . S
C334 N335 1.375 . S
C334 C337 1.350 . S
C334 H339 0.930 . S
N335 Co330 2.057 . S
N335 C333 1.316 . S
N335 C334 1.375 . S
N336 C333 1.347 . S
N336 C337 1.373 . S
C337 C334 1.350 . S
C337 N336 1.373 . S
C337 H358 0.931 . S
H338 C333 0.931 . S
H339 C334 0.930 . S
C340 O347 1.259 . S
C340 O348 1.258 . S
N341 Co332 2.057 . S
N341 C342 1.316 . S
N341 C343 1.375 . S
C342 N341 1.316 . S
C342 N344 1.347 . S
C342 H353 0.931 . S
C343 N341 1.375 . S
C343 C345 1.350 . S
C343 H352 0.930 . S
N344 C342 1.347 . S
N344 C345 1.373 . S
C345 C343 1.350 . S
C345 N344 1.373 . S
C345 H359 0.931 . S
C346 O349 1.256 . S
C346 O350 1.255 . S
O347 Co330 2.021 . S
O347 C340 1.259 . S
O348 Co332 2.117 . S
O348 C340 1.258 . S
O349 Co332 2.020 . S
O349 C346 1.256 . S
O350 Co330 2.062 . S
O350 C346 1.255 . S
O351 C331 1.259 . S
O351 Co332 2.021 . S
H352 C343 0.930 . S
H353 C342 0.931 . S
O354 Co330 2.117 . S
O354 C331 1.258 . S
O355 Co330 2.020 . S
O355 C357 1.256 . S
O356 Co332 2.062 . S
O356 C357 1.255 . S
C357 O355 1.256 . S
C357 O356 1.255 . S
H358 C337 0.931 . S
H359 C345 0.931 . S
Co360 N365 2.057 . S
Co360 O377 2.021 . S
Co360 O380 2.062 . S
Co360 O384 2.117 . S
Co360 O385 2.020 . S
C361 O381 1.259 . S
C361 O384 1.258 . S
Co362 N371 2.057 . S
Co362 O378 2.117 . S
Co362 O379 2.020 . S
Co362 O381 2.021 . S
Co362 O386 2.062 . S
C363 N365 1.316 . S
C363 N366 1.347 . S
C363 H368 0.931 . S
C364 N365 1.375 . S
C364 C367 1.350 . S
C364 H369 0.930 . S
N365 Co360 2.057 . S
N365 C363 1.316 . S
N365 C364 1.375 . S
N366 C363 1.347 . S
N366 C367 1.373 . S
C367 C364 1.350 . S
C367 N366 1.373 . S
C367 H388 0.931 . S
H368 C363 0.931 . S
H369 C364 0.930 . S
C370 O377 1.259 . S
C370 O378 1.258 . S
N371 Co362 2.057 . S
N371 C372 1.316 . S
N371 C373 1.375 . S
C372 N371 1.316 . S
C372 N374 1.347 . S
C372 H383 0.931 . S
C373 N371 1.375 . S
C373 C375 1.350 . S
C373 H382 0.930 . S
N374 C372 1.347 . S
N374 C375 1.373 . S
C375 C373 1.350 . S
C375 N374 1.373 . S
C375 H389 0.931 . S
C376 O379 1.256 . S
C376 O380 1.255 . S
O377 Co360 2.021 . S
O377 C370 1.259 . S
O378 Co362 2.117 . S
O378 C370 1.258 . S
O379 Co362 2.020 . S
O379 C376 1.256 . S
O380 Co360 2.062 . S
O380 C376 1.255 . S
O381 C361 1.259 . S
O381 Co362 2.021 . S
H382 C373 0.930 . S
H383 C372 0.931 . S
O384 Co360 2.117 . S
O384 C361 1.258 . S
O385 Co360 2.020 . S
O385 C387 1.256 . S
O386 Co362 2.062 . S
O386 C387 1.255 . S
C387 O385 1.256 . S
C387 O386 1.255 . S
H388 C367 0.931 . S
H389 C375 0.931 . S
Co390 N395 2.057 . S
Co390 O407 2.021 . S
Co390 O410 2.062 . S
Co390 O414 2.117 . S
Co390 O415 2.020 . S
C391 O411 1.259 . S
C391 O414 1.258 . S
Co392 N401 2.057 . S
Co392 O408 2.117 . S
Co392 O409 2.020 . S
Co392 O411 2.021 . S
Co392 O416 2.062 . S
C393 N395 1.316 . S
C393 N396 1.347 . S
C393 H398 0.931 . S
C394 N395 1.375 . S
C394 C397 1.350 . S
C394 H399 0.930 . S
N395 Co390 2.057 . S
N395 C393 1.316 . S
N395 C394 1.375 . S
N396 C393 1.347 . S
N396 C397 1.373 . S
C397 C394 1.350 . S
C397 N396 1.373 . S
C397 H418 0.931 . S
H398 C393 0.931 . S
H399 C394 0.930 . S
C400 O407 1.259 . S
C400 O408 1.258 . S
N401 Co392 2.057 . S
N401 C402 1.316 . S
N401 C403 1.375 . S
C402 N401 1.316 . S
C402 N404 1.347 . S
C402 H413 0.931 . S
C403 N401 1.375 . S
C403 C405 1.350 . S
C403 H412 0.930 . S
N404 C402 1.347 . S
N404 C405 1.373 . S
C405 C403 1.350 . S
C405 N404 1.373 . S
C405 H419 0.931 . S
C406 O409 1.256 . S
C406 O410 1.255 . S
O407 Co390 2.021 . S
O407 C400 1.259 . S
O408 Co392 2.117 . S
O408 C400 1.258 . S
O409 Co392 2.020 . S
O409 C406 1.256 . S
O410 Co390 2.062 . S
O410 C406 1.255 . S
O411 C391 1.259 . S
O411 Co392 2.021 . S
H412 C403 0.930 . S
H413 C402 0.931 . S
O414 Co390 2.117 . S
O414 C391 1.258 . S
O415 Co390 2.020 . S
O415 C417 1.256 . S
O416 Co392 2.062 . S
O416 C417 1.255 . S
C417 O415 1.256 . S
C417 O416 1.255 . S
H418 C397 0.931 . S
H419 C405 0.931 . S
Co420 N425 2.057 . S
Co420 O437 2.021 . S
Co420 O440 2.062 . S
Co420 O444 2.117 . S
Co420 O445 2.020 . S
C421 O441 1.259 . S
C421 O444 1.258 . S
Co422 N431 2.057 . S
Co422 O438 2.117 . S
Co422 O439 2.020 . S
Co422 O441 2.021 . S
Co422 O446 2.062 . S
C423 N425 1.316 . S
C423 N426 1.347 . S
C423 H428 0.931 . S
C424 N425 1.375 . S
C424 C427 1.350 . S
C424 H429 0.930 . S
N425 Co420 2.057 . S
N425 C423 1.316 . S
N425 C424 1.375 . S
N426 C423 1.347 . S
N426 C427 1.373 . S
C427 C424 1.350 . S
C427 N426 1.373 . S
C427 H448 0.931 . S
H428 C423 0.931 . S
H429 C424 0.930 . S
C430 O437 1.259 . S
C430 O438 1.258 . S
N431 Co422 2.057 . S
N431 C432 1.316 . S
N431 C433 1.375 . S
C432 N431 1.316 . S
C432 N434 1.347 . S
C432 H443 0.931 . S
C433 N431 1.375 . S
C433 C435 1.350 . S
C433 H442 0.930 . S
N434 C432 1.347 . S
N434 C435 1.373 . S
C435 C433 1.350 . S
C435 N434 1.373 . S
C435 H449 0.931 . S
C436 O439 1.256 . S
C436 O440 1.255 . S
O437 Co420 2.021 . S
O437 C430 1.259 . S
O438 Co422 2.117 . S
O438 C430 1.258 . S
O439 Co422 2.020 . S
O439 C436 1.256 . S
O440 Co420 2.062 . S
O440 C436 1.255 . S
O441 C421 1.259 . S
O441 Co422 2.021 . S
H442 C433 0.930 . S
H443 C432 0.931 . S
O444 Co420 2.117 . S
O444 C421 1.258 . S
O445 Co420 2.020 . S
O445 C447 1.256 . S
O446 Co422 2.062 . S
O446 C447 1.255 . S
C447 O445 1.256 . S
C447 O446 1.255 . S
H448 C427 0.931 . S
H449 C435 0.931 . S
Co450 N455 2.057 . S
Co450 O467 2.021 . S
Co450 O470 2.062 . S
Co450 O474 2.117 . S
Co450 O475 2.020 . S
C451 O471 1.259 . S
C451 O474 1.258 . S
Co452 N461 2.057 . S
Co452 O468 2.117 . S
Co452 O469 2.020 . S
Co452 O471 2.021 . S
Co452 O476 2.062 . S
C453 N455 1.316 . S
C453 N456 1.347 . S
C453 H458 0.931 . S
C454 N455 1.375 . S
C454 C457 1.350 . S
C454 H459 0.930 . S
N455 Co450 2.057 . S
N455 C453 1.316 . S
N455 C454 1.375 . S
N456 C453 1.347 . S
N456 C457 1.373 . S
C457 C454 1.350 . S
C457 N456 1.373 . S
C457 H478 0.931 . S
H458 C453 0.931 . S
H459 C454 0.930 . S
C460 O467 1.259 . S
C460 O468 1.258 . S
N461 Co452 2.057 . S
N461 C462 1.316 . S
N461 C463 1.375 . S
C462 N461 1.316 . S
C462 N464 1.347 . S
C462 H473 0.931 . S
C463 N461 1.375 . S
C463 C465 1.350 . S
C463 H472 0.930 . S
N464 C462 1.347 . S
N464 C465 1.373 . S
C465 C463 1.350 . S
C465 N464 1.373 . S
C465 H479 0.931 . S
C466 O469 1.256 . S
C466 O470 1.255 . S
O467 Co450 2.021 . S
O467 C460 1.259 . S
O468 Co452 2.117 . S
O468 C460 1.258 . S
O469 Co452 2.020 . S
O469 C466 1.256 . S
O470 Co450 2.062 . S
O470 C466 1.255 . S
O471 C451 1.259 . S
O471 Co452 2.021 . S
H472 C463 0.930 . S
H473 C462 0.931 . S
O474 Co450 2.117 . S
O474 C451 1.258 . S
O475 Co450 2.020 . S
O475 C477 1.256 . S
O476 Co452 2.062 . S
O476 C477 1.255 . S
C477 O475 1.256 . S
C477 O476 1.255 . S
H478 C457 0.931 . S
H479 C465 0.931 . S
H480 C486 0.930 . S
H481 C489 0.930 . S
H482 C490 0.930 . S
H483 C491 0.930 . S
H484 C494 0.930 . S
H485 C495 0.930 . S
C486 H480 0.930 . S
C486 C487 1.355 . S
C486 C488 1.415 . S
C487 C486 1.355 . S
C487 C489 1.419 . S
C488 C486 1.415 . S
C488 C493 1.425 . S
C488 C495 1.409 . S
C489 H481 0.930 . S
C489 C487 1.419 . S
C489 C490 1.362 . S
C490 H482 0.930 . S
C490 C489 1.362 . S
C490 C493 1.409 . S
C491 H483 0.930 . S
C491 C492 1.355 . S
C491 C493 1.415 . S
C492 C491 1.355 . S
C492 C494 1.419 . S
C493 C488 1.425 . S
C493 C490 1.409 . S
C493 C491 1.415 . S
C494 H484 0.930 . S
C494 C492 1.419 . S
C494 C495 1.362 . S
C495 H485 0.930 . S
C495 C488 1.409 . S
C495 C494 1.362 . S
H496 C502 0.930 . S
H497 C505 0.930 . S
H498 C506 0.930 . S
H499 C507 0.930 . S
H500 C510 0.930 . S
H501 C511 0.930 . S
C502 H496 0.930 . S
C502 C503 1.355 . S
C502 C504 1.415 . S
C503 C502 1.355 . S
C503 C505 1.419 . S
C504 C502 1.415 . S
C504 C509 1.425 . S
C504 C511 1.409 . S
C505 H497 0.930 . S
C505 C503 1.419 . S
C505 C506 1.362 . S
C506 H498 0.930 . S
C506 C505 1.362 . S
C506 C509 1.409 . S
C507 H499 0.930 . S
C507 C508 1.355 . S
C507 C509 1.415 . S
C508 C507 1.355 . S
C508 C510 1.419 . S
C509 C504 1.425 . S
C509 C506 1.409 . S
C509 C507 1.415 . S
C510 H500 0.930 . S
C510 C508 1.419 . S
C510 C511 1.362 . S
C511 H501 0.930 . S
C511 C504 1.409 . S
C511 C510 1.362 . S
H512 C518 0.930 . S
H513 C521 0.930 . S
H514 C522 0.930 . S
H515 C523 0.930 . S
H516 C526 0.930 . S
H517 C527 0.930 . S
C518 H512 0.930 . S
C518 C519 1.355 . S
C518 C520 1.415 . S
C519 C518 1.355 . S
C519 C521 1.419 . S
C520 C518 1.415 . S
C520 C525 1.425 . S
C520 C527 1.409 . S
C521 H513 0.930 . S
C521 C519 1.419 . S
C521 C522 1.362 . S
C522 H514 0.930 . S
C522 C521 1.362 . S
C522 C525 1.409 . S
C523 H515 0.930 . S
C523 C524 1.355 . S
C523 C525 1.415 . S
C524 C523 1.355 . S
C524 C526 1.419 . S
C525 C520 1.425 . S
C525 C522 1.409 . S
C525 C523 1.415 . S
C526 H516 0.930 . S
C526 C524 1.419 . S
C526 C527 1.362 . S
C527 H517 0.930 . S
C527 C520 1.409 . S
C527 C526 1.362 . S
H528 C534 0.930 . S
H529 C537 0.930 . S
H530 C538 0.930 . S
H531 C539 0.930 . S
H532 C542 0.930 . S
H533 C543 0.930 . S
C534 H528 0.930 . S
C534 C535 1.355 . S
C534 C536 1.415 . S
C535 C534 1.355 . S
C535 C537 1.419 . S
C536 C534 1.415 . S
C536 C541 1.425 . S
C536 C543 1.409 . S
C537 H529 0.930 . S
C537 C535 1.419 . S
C537 C538 1.362 . S
C538 H530 0.930 . S
C538 C537 1.362 . S
C538 C541 1.409 . S
C539 H531 0.930 . S
C539 C540 1.355 . S
C539 C541 1.415 . S
C540 C539 1.355 . S
C540 C542 1.419 . S
C541 C536 1.425 . S
C541 C538 1.409 . S
C541 C539 1.415 . S
C542 H532 0.930 . S
C542 C540 1.419 . S
C542 C543 1.362 . S
C543 H533 0.930 . S
C543 C536 1.409 . S
C543 C542 1.362 . S
H544 C550 0.930 . S
H545 C553 0.930 . S
H546 C554 0.930 . S
H547 C555 0.930 . S
H548 C558 0.930 . S
H549 C559 0.930 . S
C550 H544 0.930 . S
C550 C551 1.355 . S
C550 C552 1.415 . S
C551 C550 1.355 . S
C551 C553 1.419 . S
C552 C550 1.415 . S
C552 C557 1.425 . S
C552 C559 1.409 . S
C553 H545 0.930 . S
C553 C551 1.419 . S
C553 C554 1.362 . S
C554 H546 0.930 . S
C554 C553 1.362 . S
C554 C557 1.409 . S
C555 H547 0.930 . S
C555 C556 1.355 . S
C555 C557 1.415 . S
C556 C555 1.355 . S
C556 C558 1.419 . S
C557 C552 1.425 . S
C557 C554 1.409 . S
C557 C555 1.415 . S
C558 H548 0.930 . S
C558 C556 1.419 . S
C558 C559 1.362 . S
C559 H549 0.930 . S
C559 C552 1.409 . S
C559 C558 1.362 . S
H560 C566 0.930 . S
H561 C569 0.930 . S
H562 C570 0.930 . S
H563 C571 0.930 . S
H564 C574 0.930 . S
H565 C575 0.930 . S
C566 H560 0.930 . S
C566 C567 1.355 . S
C566 C568 1.415 . S
C567 C566 1.355 . S
C567 C569 1.419 . S
C568 C566 1.415 . S
C568 C573 1.425 . S
C568 C575 1.409 . S
C569 H561 0.930 . S
C569 C567 1.419 . S
C569 C570 1.362 . S
C570 H562 0.930 . S
C570 C569 1.362 . S
C570 C573 1.409 . S
C571 H563 0.930 . S
C571 C572 1.355 . S
C571 C573 1.415 . S
C572 C571 1.355 . S
C572 C574 1.419 . S
C573 C568 1.425 . S
C573 C570 1.409 . S
C573 C571 1.415 . S
C574 H564 0.930 . S
C574 C572 1.419 . S
C574 C575 1.362 . S
C575 H565 0.930 . S
C575 C568 1.409 . S
C575 C574 1.362 . S
H576 C582 0.930 . S
H577 C585 0.930 . S
H578 C586 0.930 . S
H579 C587 0.930 . S
H580 C590 0.930 . S
H581 C591 0.930 . S
C582 H576 0.930 . S
C582 C583 1.355 . S
C582 C584 1.415 . S
C583 C582 1.355 . S
C583 C585 1.419 . S
C584 C582 1.415 . S
C584 C589 1.425 . S
C584 C591 1.409 . S
C585 H577 0.930 . S
C585 C583 1.419 . S
C585 C586 1.362 . S
C586 H578 0.930 . S
C586 C585 1.362 . S
C586 C589 1.409 . S
C587 H579 0.930 . S
C587 C588 1.355 . S
C587 C589 1.415 . S
C588 C587 1.355 . S
C588 C590 1.419 . S
C589 C584 1.425 . S
C589 C586 1.409 . S
C589 C587 1.415 . S
C590 H580 0.930 . S
C590 C588 1.419 . S
C590 C591 1.362 . S
C591 H581 0.930 . S
C591 C584 1.409 . S
C591 C590 1.362 . S
H592 C598 0.930 . S
H593 C601 0.930 . S
H594 C602 0.930 . S
H595 C603 0.930 . S
H596 C606 0.930 . S
H597 C607 0.930 . S
C598 H592 0.930 . S
C598 C599 1.355 . S
C598 C600 1.415 . S
C599 C598 1.355 . S
C599 C601 1.419 . S
C600 C598 1.415 . S
C600 C605 1.425 . S
C600 C607 1.409 . S
C601 H593 0.930 . S
C601 C599 1.419 . S
C601 C602 1.362 . S
C602 H594 0.930 . S
C602 C601 1.362 . S
C602 C605 1.409 . S
C603 H595 0.930 . S
C603 C604 1.355 . S
C603 C605 1.415 . S
C604 C603 1.355 . S
C604 C606 1.419 . S
C605 C600 1.425 . S
C605 C602 1.409 . S
C605 C603 1.415 . S
C606 H596 0.930 . S
C606 C604 1.419 . S
C606 C607 1.362 . S
C607 H597 0.930 . S
C607 C600 1.409 . S
C607 C606 1.362 . S
H608 C614 0.930 . S
H609 C617 0.930 . S
H610 C618 0.930 . S
H611 C619 0.930 . S
H612 C622 0.930 . S
H613 C623 0.930 . S
C614 H608 0.930 . S
C614 C615 1.355 1_545 S
C614 C616 1.415 . S
C615 C614 1.355 1_565 S
C615 C617 1.419 . S
C616 C614 1.415 . S
C616 C621 1.425 1_545 S
C616 C623 1.409 . S
C617 H609 0.930 . S
C617 C615 1.419 . S
C617 C618 1.362 . S
C618 H610 0.930 . S
C618 C617 1.362 . S
C618 C621 1.409 . S
C619 H611 0.930 . S
C619 C620 1.355 1_565 S
C619 C621 1.415 . S
C620 C619 1.355 1_545 S
C620 C622 1.419 . S
C621 C616 1.425 1_565 S
C621 C618 1.409 . S
C621 C619 1.415 . S
C622 H612 0.930 . S
C622 C620 1.419 . S
C622 C623 1.362 . S
C623 H613 0.930 . S
C623 C616 1.409 . S
C623 C622 1.362 . S
H624 C630 0.930 . S
H625 C633 0.930 . S
H626 C634 0.930 . S
H627 C635 0.930 . S
H628 C638 0.930 . S
H629 C639 0.930 . S
C630 H624 0.930 . S
C630 C631 1.355 1_565 S
C630 C632 1.415 . S
C631 C630 1.355 1_545 S
C631 C633 1.419 . S
C632 C630 1.415 . S
C632 C637 1.425 1_565 S
C632 C639 1.409 . S
C633 H625 0.930 . S
C633 C631 1.419 . S
C633 C634 1.362 . S
C634 H626 0.930 . S
C634 C633 1.362 . S
C634 C637 1.409 . S
C635 H627 0.930 . S
C635 C636 1.355 1_545 S
C635 C637 1.415 . S
C636 C635 1.355 1_565 S
C636 C638 1.419 . S
C637 C632 1.425 1_545 S
C637 C634 1.409 . S
C637 C635 1.415 . S
C638 H628 0.930 . S
C638 C636 1.419 . S
C638 C639 1.362 . S
C639 H629 0.930 . S
C639 C632 1.409 . S
C639 C638 1.362 . S
H640 C646 0.930 . S
H641 C649 0.930 . S
H642 C650 0.930 . S
H643 C651 0.930 . S
H644 C654 0.930 . S
H645 C655 0.930 . S
C646 H640 0.930 . S
C646 C647 1.355 . S
C646 C648 1.415 . S
C647 C646 1.355 . S
C647 C649 1.419 1_545 S
C648 C646 1.415 . S
C648 C653 1.425 1_545 S
C648 C655 1.409 . S
C649 H641 0.930 . S
C649 C647 1.419 1_565 S
C649 C650 1.362 . S
C650 H642 0.930 . S
C650 C649 1.362 . S
C650 C653 1.409 . S
C651 H643 0.930 . S
C651 C652 1.355 . S
C651 C653 1.415 . S
C652 C651 1.355 . S
C652 C654 1.419 1_565 S
C653 C648 1.425 1_565 S
C653 C650 1.409 . S
C653 C651 1.415 . S
C654 H644 0.930 . S
C654 C652 1.419 1_545 S
C654 C655 1.362 . S
C655 H645 0.930 . S
C655 C648 1.409 . S
C655 C654 1.362 . S
H656 C662 0.930 . S
H657 C665 0.930 . S
H658 C666 0.930 . S
H659 C667 0.930 . S
H660 C670 0.930 . S
H661 C671 0.930 . S
C662 H656 0.930 . S
C662 C663 1.355 . S
C662 C664 1.415 . S
C663 C662 1.355 . S
C663 C665 1.419 . S
C664 C662 1.415 . S
C664 C669 1.425 1_545 S
C664 C671 1.409 1_545 S
C665 H657 0.930 . S
C665 C663 1.419 . S
C665 C666 1.362 . S
C666 H658 0.930 . S
C666 C665 1.362 . S
C666 C669 1.409 1_545 S
C667 H659 0.930 . S
C667 C668 1.355 . S
C667 C669 1.415 . S
C668 C667 1.355 . S
C668 C670 1.419 . S
C669 C664 1.425 1_565 S
C669 C666 1.409 1_565 S
C669 C667 1.415 . S
C670 H660 0.930 . S
C670 C668 1.419 . S
C670 C671 1.362 . S
C671 H661 0.930 . S
C671 C664 1.409 1_565 S
C671 C670 1.362 . S
H672 C678 0.930 . S
H673 C681 0.930 . S
H674 C682 0.930 . S
H675 C683 0.930 . S
H676 C686 0.930 . S
H677 C687 0.930 . S
C678 H672 0.930 . S
C678 C679 1.355 . S
C678 C680 1.415 . S
C679 C678 1.355 . S
C679 C681 1.419 . S
C680 C678 1.415 . S
C680 C685 1.425 . S
C680 C687 1.409 . S
C681 H673 0.930 . S
C681 C679 1.419 . S
C681 C682 1.362 . S
C682 H674 0.930 . S
C682 C681 1.362 . S
C682 C685 1.409 . S
C683 H675 0.930 . S
C683 C684 1.355 . S
C683 C685 1.415 . S
C684 C683 1.355 . S
C684 C686 1.419 . S
C685 C680 1.425 . S
C685 C682 1.409 . S
C685 C683 1.415 . S
C686 H676 0.930 . S
C686 C684 1.419 . S
C686 C687 1.362 . S
C687 H677 0.930 . S
C687 C680 1.409 . S
C687 C686 1.362 . S
H688 C694 0.930 . S
H689 C697 0.930 . S
H690 C698 0.930 . S
H691 C699 0.930 . S
H692 C702 0.930 . S
H693 C703 0.930 . S
C694 H688 0.930 . S
C694 C695 1.355 . S
C694 C696 1.415 . S
C695 C694 1.355 . S
C695 C697 1.419 . S
C696 C694 1.415 . S
C696 C701 1.425 . S
C696 C703 1.409 . S
C697 H689 0.930 . S
C697 C695 1.419 . S
C697 C698 1.362 . S
C698 H690 0.930 . S
C698 C697 1.362 . S
C698 C701 1.409 . S
C699 H691 0.930 . S
C699 C700 1.355 . S
C699 C701 1.415 . S
C700 C699 1.355 . S
C700 C702 1.419 . S
C701 C696 1.425 . S
C701 C698 1.409 . S
C701 C699 1.415 . S
C702 H692 0.930 . S
C702 C700 1.419 . S
C702 C703 1.362 . S
C703 H693 0.930 . S
C703 C696 1.409 . S
C703 C702 1.362 . S
H704 C710 0.930 . S
H705 C713 0.930 . S
H706 C714 0.930 . S
H707 C715 0.930 . S
H708 C718 0.930 . S
H709 C719 0.930 . S
C710 H704 0.930 . S
C710 C711 1.355 . S
C710 C712 1.415 . S
C711 C710 1.355 . S
C711 C713 1.419 . S
C712 C710 1.415 . S
C712 C717 1.425 . S
C712 C719 1.409 . S
C713 H705 0.930 . S
C713 C711 1.419 . S
C713 C714 1.362 . S
C714 H706 0.930 . S
C714 C713 1.362 . S
C714 C717 1.409 . S
C715 H707 0.930 . S
C715 C716 1.355 . S
C715 C717 1.415 . S
C716 C715 1.355 . S
C716 C718 1.419 . S
C717 C712 1.425 . S
C717 C714 1.409 . S
C717 C715 1.415 . S
C718 H708 0.930 . S
C718 C716 1.419 . S
C718 C719 1.362 . S
C719 H709 0.930 . S
C719 C712 1.409 . S
C719 C718 1.362 . S
H720 C726 0.930 . S
H721 C729 0.930 . S
H722 C730 0.930 . S
H723 C731 0.930 . S
H724 C734 0.930 . S
H725 C735 0.930 . S
C726 H720 0.930 . S
C726 C727 1.355 . S
C726 C728 1.415 . S
C727 C726 1.355 . S
C727 C729 1.419 . S
C728 C726 1.415 . S
C728 C733 1.425 . S
C728 C735 1.409 . S
C729 H721 0.930 . S
C729 C727 1.419 . S
C729 C730 1.362 . S
C730 H722 0.930 . S
C730 C729 1.362 . S
C730 C733 1.409 . S
C731 H723 0.930 . S
C731 C732 1.355 . S
C731 C733 1.415 . S
C732 C731 1.355 . S
C732 C734 1.419 . S
C733 C728 1.425 . S
C733 C730 1.409 . S
C733 C731 1.415 . S
C734 H724 0.930 . S
C734 C732 1.419 . S
C734 C735 1.362 . S
C735 H725 0.930 . S
C735 C728 1.409 . S
C735 C734 1.362 . S
H736 C742 0.930 . S
H737 C745 0.930 . S
H738 C746 0.930 . S
H739 C747 0.930 . S
H740 C750 0.930 . S
H741 C751 0.930 . S
C742 H736 0.930 . S
C742 C743 1.355 . S
C742 C744 1.415 . S
C743 C742 1.355 . S
C743 C745 1.419 . S
C744 C742 1.415 . S
C744 C749 1.425 1_556 S
C744 C751 1.409 1_556 S
C745 H737 0.930 . S
C745 C743 1.419 . S
C745 C746 1.362 . S
C746 H738 0.930 . S
C746 C745 1.362 . S
C746 C749 1.409 1_556 S
C747 H739 0.930 . S
C747 C748 1.355 . S
C747 C749 1.415 . S
C748 C747 1.355 . S
C748 C750 1.419 . S
C749 C744 1.425 1_554 S
C749 C746 1.409 1_554 S
C749 C747 1.415 . S
C750 H740 0.930 . S
C750 C748 1.419 . S
C750 C751 1.362 . S
C751 H741 0.930 . S
C751 C744 1.409 1_554 S
C751 C750 1.362 . S
H752 C758 0.930 . S
H753 C761 0.930 . S
H754 C762 0.930 1_545 S
H755 C763 0.930 . S
H756 C766 0.930 . S
H757 C767 0.930 . S
C758 H752 0.930 . S
C758 C759 1.355 . S
C758 C760 1.415 . S
C759 C758 1.355 . S
C759 C761 1.419 . S
C760 C758 1.415 . S
C760 C765 1.425 1_556 S
C760 C767 1.409 1_556 S
C761 H753 0.930 . S
C761 C759 1.419 . S
C761 C762 1.362 . S
C762 H754 0.930 1_565 S
C762 C761 1.362 . S
C762 C765 1.409 1_556 S
C763 H755 0.930 . S
C763 C764 1.355 . S
C763 C765 1.415 . S
C764 C763 1.355 . S
C764 C766 1.419 . S
C765 C760 1.425 1_554 S
C765 C762 1.409 1_554 S
C765 C763 1.415 . S
C766 H756 0.930 . S
C766 C764 1.419 . S
C766 C767 1.362 . S
C767 H757 0.930 . S
C767 C760 1.409 1_554 S
C767 C766 1.362 . S
H768 C774 0.930 . S
H769 C777 0.925 1_545 S
H770 C778 0.930 1_545 S
H771 C779 0.930 . S
H772 C782 0.930 . S
H773 C783 0.930 . S
C774 H768 0.930 . S
C774 C775 1.355 . S
C774 C776 1.415 . S
C775 C774 1.355 . S
C775 C777 1.419 . S
C776 C774 1.415 . S
C776 C781 1.425 . S
C776 C783 1.409 . S
C777 H769 0.925 1_565 S
C777 C775 1.419 . S
C777 C778 1.362 . S
C778 H770 0.930 1_565 S
C778 C777 1.362 . S
C778 C781 1.409 . S
C779 H771 0.930 . S
C779 C780 1.355 . S
C779 C781 1.415 . S
C780 C779 1.355 . S
C780 C782 1.419 . S
C781 C776 1.425 . S
C781 C778 1.409 . S
C781 C779 1.415 . S
C782 H772 0.930 . S
C782 C780 1.419 . S
C782 C783 1.362 . S
C783 H773 0.930 . S
C783 C776 1.409 . S
C783 C782 1.362 . S
H784 C790 0.930 . S
H785 C793 0.930 1_565 S
H786 C794 0.930 . S
H787 C795 0.930 1_565 S
H788 C798 0.930 . S
H789 C799 0.930 . S
C790 H784 0.930 . S
C790 C791 1.355 . S
C790 C792 1.415 . S
C791 C790 1.355 . S
C791 C793 1.419 . S
C792 C790 1.415 . S
C792 C797 1.425 . S
C792 C799 1.409 . S
C793 H785 0.930 1_545 S
C793 C791 1.419 . S
C793 C794 1.362 1_545 S
C794 H786 0.930 . S
C794 C793 1.362 1_565 S
C794 C797 1.409 1_565 S
C795 H787 0.930 1_545 S
C795 C796 1.355 . S
C795 C797 1.415 . S
C796 C795 1.355 . S
C796 C798 1.419 . S
C797 C792 1.425 . S
C797 C794 1.409 1_545 S
C797 C795 1.415 . S
C798 H788 0.930 . S
C798 C796 1.419 . S
C798 C799 1.362 . S
C799 H789 0.930 . S
C799 C792 1.409 . S
C799 C798 1.362 . S
H800 C806 0.930 . S
H801 C809 0.930 . S
H802 C810 0.930 . S
H803 C811 0.930 . S
H804 C814 0.930 . S
H805 C815 0.930 . S
C806 H800 0.930 . S
C806 C807 1.355 . S
C806 C808 1.415 . S
C807 C806 1.355 . S
C807 C809 1.419 . S
C808 C806 1.415 . S
C808 C813 1.425 1_554 S
C808 C815 1.409 1_554 S
C809 H801 0.930 . S
C809 C807 1.419 . S
C809 C810 1.362 . S
C810 H802 0.930 . S
C810 C809 1.362 . S
C810 C813 1.409 1_554 S
C811 H803 0.930 . S
C811 C812 1.355 . S
C811 C813 1.415 . S
C812 C811 1.355 . S
C812 C814 1.419 . S
C813 C808 1.425 1_556 S
C813 C810 1.409 1_556 S
C813 C811 1.415 . S
C814 H804 0.930 . S
C814 C812 1.419 . S
C814 C815 1.362 . S
C815 H805 0.930 . S
C815 C808 1.409 1_556 S
C815 C814 1.362 . S
H816 C822 0.930 . S
H817 C825 0.930 . S
H818 C826 0.930 . S
H819 C827 0.930 . S
H820 C830 0.930 . S
H821 C831 0.930 . S
C822 H816 0.930 . S
C822 C823 1.355 . S
C822 C824 1.415 . S
C823 C822 1.355 . S
C823 C825 1.419 . S
C824 C822 1.415 . S
C824 C829 1.425 1_556 S
C824 C831 1.409 1_556 S
C825 H817 0.930 . S
C825 C823 1.419 . S
C825 C826 1.362 . S
C826 H818 0.930 . S
C826 C825 1.362 . S
C826 C829 1.409 1_556 S
C827 H819 0.930 . S
C827 C828 1.355 . S
C827 C829 1.415 . S
C828 C827 1.355 . S
C828 C830 1.419 . S
C829 C824 1.425 1_554 S
C829 C826 1.409 1_554 S
C829 C827 1.415 . S
C830 H820 0.930 . S
C830 C828 1.419 . S
C830 C831 1.362 . S
C831 H821 0.930 . S
C831 C824 1.409 1_554 S
C831 C830 1.362 . S
H832 C838 0.930 . S
H833 C841 0.930 . S
H834 C842 0.930 . S
H835 C843 0.930 . S
H836 C846 0.930 . S
H837 C847 0.930 . S
C838 H832 0.930 . S
C838 C839 1.355 . S
C838 C840 1.415 . S
C839 C838 1.355 . S
C839 C841 1.419 . S
C840 C838 1.415 . S
C840 C845 1.425 . S
C840 C847 1.409 . S
C841 H833 0.930 . S
C841 C839 1.419 . S
C841 C842 1.362 . S
C842 H834 0.930 . S
C842 C841 1.362 . S
C842 C845 1.409 . S
C843 H835 0.930 . S
C843 C844 1.355 . S
C843 C845 1.415 . S
C844 C843 1.355 . S
C844 C846 1.419 . S
C845 C840 1.425 . S
C845 C842 1.409 . S
C845 C843 1.415 . S
C846 H836 0.930 . S
C846 C844 1.419 . S
C846 C847 1.362 . S
C847 H837 0.930 . S
C847 C840 1.409 . S
C847 C846 1.362 . S
H848 C854 0.930 . S
H849 C857 0.930 . S
H850 C858 0.930 . S
H851 C859 0.930 . S
H852 C862 0.930 . S
H853 C863 0.930 . S
C854 H848 0.930 . S
C854 C855 1.355 . S
C854 C856 1.415 . S
C855 C854 1.355 . S
C855 C857 1.419 . S
C856 C854 1.415 . S
C856 C861 1.425 . S
C856 C863 1.409 . S
C857 H849 0.930 . S
C857 C855 1.419 . S
C857 C858 1.362 . S
C858 H850 0.930 . S
C858 C857 1.362 . S
C858 C861 1.409 . S
C859 H851 0.930 . S
C859 C860 1.355 . S
C859 C861 1.415 . S
C860 C859 1.355 . S
C860 C862 1.419 . S
C861 C856 1.425 . S
C861 C858 1.409 . S
C861 C859 1.415 . S
C862 H852 0.930 . S
C862 C860 1.419 . S
C862 C863 1.362 . S
C863 H853 0.930 . S
C863 C856 1.409 . S
C863 C862 1.362 . S
H864 C870 0.930 . S
H865 C873 0.930 . S
H866 C874 0.930 . S
H867 C875 0.930 . S
H868 C878 0.930 . S
H869 C879 0.930 . S
C870 H864 0.930 . S
C870 C871 1.355 1_545 S
C870 C872 1.415 . S
C871 C870 1.355 1_565 S
C871 C873 1.419 . S
C872 C870 1.415 . S
C872 C877 1.425 1_645 S
C872 C879 1.409 1_655 S
C873 H865 0.930 . S
C873 C871 1.419 . S
C873 C874 1.362 . S
C874 H866 0.930 . S
C874 C873 1.362 . S
C874 C877 1.409 1_655 S
C875 H867 0.930 . S
C875 C876 1.355 1_565 S
C875 C877 1.415 . S
C876 C875 1.355 1_545 S
C876 C878 1.419 . S
C877 C872 1.425 1_465 S
C877 C874 1.409 1_455 S
C877 C875 1.415 . S
C878 H868 0.930 . S
C878 C876 1.419 . S
C878 C879 1.362 . S
C879 H869 0.930 . S
C879 C872 1.409 1_455 S
C879 C878 1.362 . S
H880 C886 0.930 . S
H881 C889 0.930 . S
H882 C890 0.930 . S
H883 C891 0.930 . S
H884 C894 0.930 . S
H885 C895 0.930 . S
C886 H880 0.930 . S
C886 C887 1.355 . S
C886 C888 1.415 . S
C887 C886 1.355 . S
C887 C889 1.419 1_545 S
C888 C886 1.415 . S
C888 C893 1.425 1_645 S
C888 C895 1.409 1_655 S
C889 H881 0.930 . S
C889 C887 1.419 1_565 S
C889 C890 1.362 . S
C890 H882 0.930 . S
C890 C889 1.362 . S
C890 C893 1.409 1_655 S
C891 H883 0.930 . S
C891 C892 1.355 . S
C891 C893 1.415 . S
C892 C891 1.355 . S
C892 C894 1.419 1_565 S
C893 C888 1.425 1_465 S
C893 C890 1.409 1_455 S
C893 C891 1.415 . S
C894 H884 0.930 . S
C894 C892 1.419 1_545 S
C894 C895 1.362 . S
C895 H885 0.930 . S
C895 C888 1.409 1_455 S
C895 C894 1.362 . S
H896 C902 0.930 . S
H897 C905 0.930 . S
H898 C906 0.930 . S
H899 C907 0.930 . S
H900 C910 0.930 . S
H901 C911 0.930 . S
C902 H896 0.930 . S
C902 C903 1.355 1_565 S
C902 C904 1.415 . S
C903 C902 1.355 1_545 S
C903 C905 1.419 . S
C904 C902 1.415 . S
C904 C909 1.425 1_465 S
C904 C911 1.409 1_455 S
C905 H897 0.930 . S
C905 C903 1.419 . S
C905 C906 1.362 . S
C906 H898 0.930 . S
C906 C905 1.362 . S
C906 C909 1.409 1_455 S
C907 H899 0.930 . S
C907 C908 1.355 1_545 S
C907 C909 1.415 . S
C908 C907 1.355 1_565 S
C908 C910 1.419 . S
C909 C904 1.425 1_645 S
C909 C906 1.409 1_655 S
C909 C907 1.415 . S
C910 H900 0.930 . S
C910 C908 1.419 . S
C910 C911 1.362 . S
C911 H901 0.930 . S
C911 C904 1.409 1_655 S
C911 C910 1.362 . S
H912 C918 0.930 . S
H913 C921 0.930 . S
H914 C922 0.930 . S
H915 C923 0.930 . S
H916 C926 0.930 . S
H917 C927 0.930 . S
C918 H912 0.930 . S
C918 C919 1.355 1_565 S
C918 C920 1.415 . S
C919 C918 1.355 1_545 S
C919 C921 1.419 . S
C920 C918 1.415 . S
C920 C925 1.425 1_665 S
C920 C927 1.409 1_655 S
C921 H913 0.930 . S
C921 C919 1.419 . S
C921 C922 1.362 . S
C922 H914 0.930 . S
C922 C921 1.362 . S
C922 C925 1.409 1_655 S
C923 H915 0.930 . S
C923 C924 1.355 1_545 S
C923 C925 1.415 . S
C924 C923 1.355 1_565 S
C924 C926 1.419 . S
C925 C920 1.425 1_445 S
C925 C922 1.409 1_455 S
C925 C923 1.415 . S
C926 H916 0.930 . S
C926 C924 1.419 . S
C926 C927 1.362 . S
C927 H917 0.930 . S
C927 C920 1.409 1_455 S
C927 C926 1.362 . S
H928 C934 0.930 . S
H929 C937 0.930 . S
H930 C938 0.930 . S
H931 C939 0.930 . S
H932 C942 0.930 . S
H933 C943 0.930 . S
C934 H928 0.930 . S
C934 C935 1.355 . S
C934 C936 1.415 . S
C935 C934 1.355 . S
C935 C937 1.419 . S
C936 C934 1.415 . S
C936 C941 1.425 . S
C936 C943 1.409 . S
C937 H929 0.930 . S
C937 C935 1.419 . S
C937 C938 1.362 . S
C938 H930 0.930 . S
C938 C937 1.362 . S
C938 C941 1.409 . S
C939 H931 0.930 . S
C939 C940 1.355 . S
C939 C941 1.415 . S
C940 C939 1.355 . S
C940 C942 1.419 . S
C941 C936 1.425 . S
C941 C938 1.409 . S
C941 C939 1.415 . S
C942 H932 0.930 . S
C942 C940 1.419 . S
C942 C943 1.362 . S
C943 H933 0.930 . S
C943 C936 1.409 . S
C943 C942 1.362 . S
H944 C950 0.930 . S
H945 C953 0.930 . S
H946 C954 0.930 . S
H947 C955 0.930 . S
H948 C958 0.930 . S
H949 C959 0.930 . S
C950 H944 0.930 . S
C950 C951 1.355 . S
C950 C952 1.415 . S
C951 C950 1.355 . S
C951 C953 1.419 . S
C952 C950 1.415 . S
C952 C957 1.425 . S
C952 C959 1.409 . S
C953 H945 0.930 . S
C953 C951 1.419 . S
C953 C954 1.362 . S
C954 H946 0.930 . S
C954 C953 1.362 . S
C954 C957 1.409 . S
C955 H947 0.930 . S
C955 C956 1.355 . S
C955 C957 1.415 . S
C956 C955 1.355 . S
C956 C958 1.419 . S
C957 C952 1.425 . S
C957 C954 1.409 . S
C957 C955 1.415 . S
C958 H948 0.930 . S
C958 C956 1.419 . S
C958 C959 1.362 . S
C959 H949 0.930 . S
C959 C952 1.409 . S
C959 C958 1.362 . S
H960 C966 0.930 . S
H961 C969 0.930 . S
H962 C970 0.930 . S
H963 C971 0.930 . S
H964 C974 0.930 . S
H965 C975 0.930 . S
C966 H960 0.930 . S
C966 C967 1.355 . S
C966 C968 1.415 . S
C967 C966 1.355 . S
C967 C969 1.419 . S
C968 C966 1.415 . S
C968 C973 1.425 . S
C968 C975 1.409 . S
C969 H961 0.930 . S
C969 C967 1.419 . S
C969 C970 1.362 . S
C970 H962 0.930 . S
C970 C969 1.362 . S
C970 C973 1.409 . S
C971 H963 0.930 . S
C971 C972 1.355 . S
C971 C973 1.415 . S
C972 C971 1.355 . S
C972 C974 1.419 . S
C973 C968 1.425 . S
C973 C970 1.409 . S
C973 C971 1.415 . S
C974 H964 0.930 . S
C974 C972 1.419 . S
C974 C975 1.362 . S
C975 H965 0.930 . S
C975 C968 1.409 . S
C975 C974 1.362 . S
H976 C982 0.930 . S
H977 C985 0.930 . S
H978 C986 0.930 . S
H979 C987 0.930 . S
H980 C990 0.930 . S
H981 C991 0.930 . S
C982 H976 0.930 . S
C982 C983 1.355 . S
C982 C984 1.415 . S
C983 C982 1.355 . S
C983 C985 1.419 . S
C984 C982 1.415 . S
C984 C989 1.425 . S
C984 C991 1.409 . S
C985 H977 0.930 . S
C985 C983 1.419 . S
C985 C986 1.362 . S
C986 H978 0.930 . S
C986 C985 1.362 . S
C986 C989 1.409 . S
C987 H979 0.930 . S
C987 C988 1.355 . S
C987 C989 1.415 . S
C988 C987 1.355 . S
C988 C990 1.419 . S
C989 C984 1.425 . S
C989 C986 1.409 . S
C989 C987 1.415 . S
C990 H980 0.930 . S
C990 C988 1.419 . S
C990 C991 1.362 . S
C991 H981 0.930 . S
C991 C984 1.409 . S
C991 C990 1.362 . S
H992 C998 0.930 . S
H993 C1001 0.930 . S
H994 C1002 0.930 . S
H995 C1003 0.930 . S
H996 C1006 0.930 . S
H997 C1007 0.930 . S
C998 H992 0.930 . S
C998 C999 1.355 . S
C998 C1000 1.415 . S
C999 C998 1.355 . S
C999 C1001 1.419 . S
C1000 C998 1.415 . S
C1000 C1005 1.425 . S
C1000 C1007 1.409 . S
C1001 H993 0.930 . S
C1001 C999 1.419 . S
C1001 C1002 1.362 . S
C1002 H994 0.930 . S
C1002 C1001 1.362 . S
C1002 C1005 1.409 . S
C1003 H995 0.930 . S
C1003 C1004 1.355 . S
C1003 C1005 1.415 . S
C1004 C1003 1.355 . S
C1004 C1006 1.419 . S
C1005 C1000 1.425 . S
C1005 C1002 1.409 . S
C1005 C1003 1.415 . S
C1006 H996 0.930 . S
C1006 C1004 1.419 . S
C1006 C1007 1.362 . S
C1007 H997 0.930 . S
C1007 C1000 1.409 . S
C1007 C1006 1.362 . S
H1008 C1014 0.930 . S
H1009 C1017 0.930 . S
H1010 C1018 0.930 . S
H1011 C1019 0.930 . S
H1012 C1022 0.930 . S
H1013 C1023 0.930 . S
C1014 H1008 0.930 . S
C1014 C1015 1.355 . S
C1014 C1016 1.415 . S
C1015 C1014 1.355 . S
C1015 C1017 1.419 . S
C1016 C1014 1.415 . S
C1016 C1021 1.425 . S
C1016 C1023 1.409 . S
C1017 H1009 0.930 . S
C1017 C1015 1.419 . S
C1017 C1018 1.362 . S
C1018 H1010 0.930 . S
C1018 C1017 1.362 . S
C1018 C1021 1.409 . S
C1019 H1011 0.930 . S
C1019 C1020 1.355 . S
C1019 C1021 1.415 . S
C1020 C1019 1.355 . S
C1020 C1022 1.419 . S
C1021 C1016 1.425 . S
C1021 C1018 1.409 . S
C1021 C1019 1.415 . S
C1022 H1012 0.930 . S
C1022 C1020 1.419 . S
C1022 C1023 1.362 . S
C1023 H1013 0.930 . S
C1023 C1016 1.409 . S
C1023 C1022 1.362 . S
H1024 C1030 0.930 . S
H1025 C1033 0.930 . S
H1026 C1034 0.930 . S
H1027 C1035 0.930 . S
H1028 C1038 0.930 . S
H1029 C1039 0.930 . S
C1030 H1024 0.930 . S
C1030 C1031 1.355 . S
C1030 C1032 1.415 . S
C1031 C1030 1.355 . S
C1031 C1033 1.419 . S
C1032 C1030 1.415 . S
C1032 C1037 1.425 . S
C1032 C1039 1.409 . S
C1033 H1025 0.930 . S
C1033 C1031 1.419 . S
C1033 C1034 1.362 . S
C1034 H1026 0.930 . S
C1034 C1033 1.362 . S
C1034 C1037 1.409 . S
C1035 H1027 0.930 . S
C1035 C1036 1.355 . S
C1035 C1037 1.415 . S
C1036 C1035 1.355 . S
C1036 C1038 1.419 . S
C1037 C1032 1.425 . S
C1037 C1034 1.409 . S
C1037 C1035 1.415 . S
C1038 H1028 0.930 . S
C1038 C1036 1.419 . S
C1038 C1039 1.362 . S
C1039 H1029 0.930 . S
C1039 C1032 1.409 . S
C1039 C1038 1.362 . S
H1040 C1046 0.930 . S
H1041 C1049 0.930 . S
H1042 C1050 0.930 . S
H1043 C1051 0.930 . S
H1044 C1054 0.930 . S
H1045 C1055 0.930 . S
C1046 H1040 0.930 . S
C1046 C1047 1.355 . S
C1046 C1048 1.415 . S
C1047 C1046 1.355 . S
C1047 C1049 1.419 . S
C1048 C1046 1.415 . S
C1048 C1053 1.425 . S
C1048 C1055 1.409 . S
C1049 H1041 0.930 . S
C1049 C1047 1.419 . S
C1049 C1050 1.362 . S
C1050 H1042 0.930 . S
C1050 C1049 1.362 . S
C1050 C1053 1.409 . S
C1051 H1043 0.930 . S
C1051 C1052 1.355 . S
C1051 C1053 1.415 . S
C1052 C1051 1.355 . S
C1052 C1054 1.419 . S
C1053 C1048 1.425 . S
C1053 C1050 1.409 . S
C1053 C1051 1.415 . S
C1054 H1044 0.930 . S
C1054 C1052 1.419 . S
C1054 C1055 1.362 . S
C1055 H1045 0.930 . S
C1055 C1048 1.409 . S
C1055 C1054 1.362 . S
H1056 C1062 0.930 . S
H1057 C1065 0.930 . S
H1058 C1066 0.930 . S
H1059 C1067 0.930 . S
H1060 C1070 0.930 . S
H1061 C1071 0.930 . S
C1062 H1056 0.930 . S
C1062 C1063 1.355 . S
C1062 C1064 1.415 . S
C1063 C1062 1.355 . S
C1063 C1065 1.419 . S
C1064 C1062 1.415 . S
C1064 C1069 1.425 . S
C1064 C1071 1.409 . S
C1065 H1057 0.930 . S
C1065 C1063 1.419 . S
C1065 C1066 1.362 . S
C1066 H1058 0.930 . S
C1066 C1065 1.362 . S
C1066 C1069 1.409 . S
C1067 H1059 0.930 . S
C1067 C1068 1.355 . S
C1067 C1069 1.415 . S
C1068 C1067 1.355 . S
C1068 C1070 1.419 . S
C1069 C1064 1.425 . S
C1069 C1066 1.409 . S
C1069 C1067 1.415 . S
C1070 H1060 0.930 . S
C1070 C1068 1.419 . S
C1070 C1071 1.362 . S
C1071 H1061 0.930 . S
C1071 C1064 1.409 . S
C1071 C1070 1.362 . S
H1072 C1078 0.930 . S
H1073 C1081 0.930 . S
H1074 C1082 0.930 . S
H1075 C1083 0.930 . S
H1076 C1086 0.930 . S
H1077 C1087 0.930 . S
C1078 H1072 0.930 . S
C1078 C1079 1.355 . S
C1078 C1080 1.415 . S
C1079 C1078 1.355 . S
C1079 C1081 1.419 . S
C1080 C1078 1.415 . S
C1080 C1085 1.425 . S
C1080 C1087 1.409 . S
C1081 H1073 0.930 . S
C1081 C1079 1.419 . S
C1081 C1082 1.362 . S
C1082 H1074 0.930 . S
C1082 C1081 1.362 . S
C1082 C1085 1.409 . S
C1083 H1075 0.930 . S
C1083 C1084 1.355 . S
C1083 C1085 1.415 . S
C1084 C1083 1.355 . S
C1084 C1086 1.419 . S
C1085 C1080 1.425 . S
C1085 C1082 1.409 . S
C1085 C1083 1.415 . S
C1086 H1076 0.930 . S
C1086 C1084 1.419 . S
C1086 C1087 1.362 . S
C1087 H1077 0.930 . S
C1087 C1080 1.409 . S
C1087 C1086 1.362 . S
H1088 C1094 0.930 . S
H1089 C1097 0.930 . S
H1090 C1098 0.930 . S
H1091 C1099 0.930 . S
H1092 C1102 0.930 . S
H1093 C1103 0.930 . S
C1094 H1088 0.930 . S
C1094 C1095 1.355 . S
C1094 C1096 1.415 . S
C1095 C1094 1.355 . S
C1095 C1097 1.419 . S
C1096 C1094 1.415 . S
C1096 C1101 1.425 . S
C1096 C1103 1.409 . S
C1097 H1089 0.930 . S
C1097 C1095 1.419 . S
C1097 C1098 1.362 . S
C1098 H1090 0.930 . S
C1098 C1097 1.362 . S
C1098 C1101 1.409 . S
C1099 H1091 0.930 . S
C1099 C1100 1.355 . S
C1099 C1101 1.415 . S
C1100 C1099 1.355 . S
C1100 C1102 1.419 . S
C1101 C1096 1.425 . S
C1101 C1098 1.409 . S
C1101 C1099 1.415 . S
C1102 H1092 0.930 . S
C1102 C1100 1.419 . S
C1102 C1103 1.362 . S
C1103 H1093 0.930 . S
C1103 C1096 1.409 . S
C1103 C1102 1.362 . S
H1104 C1110 0.930 . S
H1105 C1113 0.930 . S
H1106 C1114 0.930 . S
H1107 C1115 0.930 . S
H1108 C1118 0.930 . S
H1109 C1119 0.930 . S
C1110 H1104 0.930 . S
C1110 C1111 1.355 . S
C1110 C1112 1.415 . S
C1111 C1110 1.355 . S
C1111 C1113 1.419 . S
C1112 C1110 1.415 . S
C1112 C1117 1.425 . S
C1112 C1119 1.409 . S
C1113 H1105 0.930 . S
C1113 C1111 1.419 . S
C1113 C1114 1.362 . S
C1114 H1106 0.930 . S
C1114 C1113 1.362 . S
C1114 C1117 1.409 . S
C1115 H1107 0.930 . S
C1115 C1116 1.355 . S
C1115 C1117 1.415 . S
C1116 C1115 1.355 . S
C1116 C1118 1.419 . S
C1117 C1112 1.425 . S
C1117 C1114 1.409 . S
C1117 C1115 1.415 . S
C1118 H1108 0.930 . S
C1118 C1116 1.419 . S
C1118 C1119 1.362 . S
C1119 H1109 0.930 . S
C1119 C1112 1.409 . S
C1119 C1118 1.362 . S
H1120 C1126 0.930 . S
H1121 C1129 0.930 . S
H1122 C1130 0.930 . S
H1123 C1131 0.930 . S
H1124 C1134 0.930 . S
H1125 C1135 0.930 . S
C1126 H1120 0.930 . S
C1126 C1127 1.355 . S
C1126 C1128 1.415 1_565 S
C1127 C1126 1.355 . S
C1127 C1129 1.419 . S
C1128 C1126 1.415 1_545 S
C1128 C1133 1.425 . S
C1128 C1135 1.409 . S
C1129 H1121 0.930 . S
C1129 C1127 1.419 . S
C1129 C1130 1.362 1_565 S
C1130 H1122 0.930 . S
C1130 C1129 1.362 1_545 S
C1130 C1133 1.409 . S
C1131 H1123 0.930 . S
C1131 C1132 1.355 . S
C1131 C1133 1.415 . S
C1132 C1131 1.355 . S
C1132 C1134 1.419 . S
C1133 C1128 1.425 . S
C1133 C1130 1.409 . S
C1133 C1131 1.415 . S
C1134 H1124 0.930 . S
C1134 C1132 1.419 . S
C1134 C1135 1.362 . S
C1135 H1125 0.930 . S
C1135 C1128 1.409 . S
C1135 C1134 1.362 . S
H1136 C1142 0.930 . S
H1137 C1145 0.930 . S
H1138 C1146 0.930 . S
H1139 C1147 0.930 . S
H1140 C1150 0.930 . S
H1141 C1151 0.930 . S
C1142 H1136 0.930 . S
C1142 C1143 1.355 . S
C1142 C1144 1.415 . S
C1143 C1142 1.355 . S
C1143 C1145 1.419 . S
C1144 C1142 1.415 . S
C1144 C1149 1.425 . S
C1144 C1151 1.409 . S
C1145 H1137 0.930 . S
C1145 C1143 1.419 . S
C1145 C1146 1.362 . S
C1146 H1138 0.930 . S
C1146 C1145 1.362 . S
C1146 C1149 1.409 . S
C1147 H1139 0.930 . S
C1147 C1148 1.355 . S
C1147 C1149 1.415 1_545 S
C1148 C1147 1.355 . S
C1148 C1150 1.419 . S
C1149 C1144 1.425 . S
C1149 C1146 1.409 . S
C1149 C1147 1.415 1_565 S
C1150 H1140 0.930 . S
C1150 C1148 1.419 . S
C1150 C1151 1.362 1_545 S
C1151 H1141 0.930 . S
C1151 C1144 1.409 . S
C1151 C1150 1.362 1_565 S
H1152 C1158 0.930 . S
H1153 C1161 0.930 . S
H1154 C1162 0.930 . S
H1155 C1163 0.930 . S
H1156 C1166 0.930 . S
H1157 C1167 0.930 . S
C1158 H1152 0.930 . S
C1158 C1159 1.355 . S
C1158 C1160 1.415 1_545 S
C1159 C1158 1.355 . S
C1159 C1161 1.419 . S
C1160 C1158 1.415 1_565 S
C1160 C1165 1.425 . S
C1160 C1167 1.409 . S
C1161 H1153 0.930 . S
C1161 C1159 1.419 . S
C1161 C1162 1.362 1_545 S
C1162 H1154 0.930 . S
C1162 C1161 1.362 1_565 S
C1162 C1165 1.409 . S
C1163 H1155 0.930 . S
C1163 C1164 1.355 . S
C1163 C1165 1.415 . S
C1164 C1163 1.355 . S
C1164 C1166 1.419 . S
C1165 C1160 1.425 . S
C1165 C1162 1.409 . S
C1165 C1163 1.415 . S
C1166 H1156 0.930 . S
C1166 C1164 1.419 . S
C1166 C1167 1.362 . S
C1167 H1157 0.930 . S
C1167 C1160 1.409 . S
C1167 C1166 1.362 . S
H1168 C1174 0.930 . S
H1169 C1177 0.930 . S
H1170 C1178 0.930 . S
H1171 C1179 0.930 . S
H1172 C1182 0.930 . S
H1173 C1183 0.930 . S
C1174 H1168 0.930 . S
C1174 C1175 1.355 . S
C1174 C1176 1.415 1_565 S
C1175 C1174 1.355 . S
C1175 C1177 1.419 . S
C1176 C1174 1.415 1_545 S
C1176 C1181 1.425 . S
C1176 C1183 1.409 . S
C1177 H1169 0.930 . S
C1177 C1175 1.419 . S
C1177 C1178 1.362 1_565 S
C1178 H1170 0.930 . S
C1178 C1177 1.362 1_545 S
C1178 C1181 1.409 . S
C1179 H1171 0.930 . S
C1179 C1180 1.355 . S
C1179 C1181 1.415 . S
C1180 C1179 1.355 . S
C1180 C1182 1.419 . S
C1181 C1176 1.425 . S
C1181 C1178 1.409 . S
C1181 C1179 1.415 . S
C1182 H1172 0.930 . S
C1182 C1180 1.419 . S
C1182 C1183 1.362 . S
C1183 H1173 0.930 . S
C1183 C1176 1.409 . S
C1183 C1182 1.362 . S
H1184 C1190 0.930 . S
H1185 C1193 0.930 . S
H1186 C1194 0.930 . S
H1187 C1195 0.930 . S
H1188 C1198 0.930 . S
H1189 C1199 0.930 . S
C1190 H1184 0.930 . S
C1190 C1191 1.355 . S
C1190 C1192 1.415 . S
C1191 C1190 1.355 . S
C1191 C1193 1.419 . S
C1192 C1190 1.415 . S
C1192 C1197 1.425 . S
C1192 C1199 1.409 . S
C1193 H1185 0.930 . S
C1193 C1191 1.419 . S
C1193 C1194 1.362 . S
C1194 H1186 0.930 . S
C1194 C1193 1.362 . S
C1194 C1197 1.409 . S
C1195 H1187 0.930 . S
C1195 C1196 1.355 . S
C1195 C1197 1.415 1_545 S
C1196 C1195 1.355 . S
C1196 C1198 1.419 . S
C1197 C1192 1.425 . S
C1197 C1194 1.409 . S
C1197 C1195 1.415 1_565 S
C1198 H1188 0.930 . S
C1198 C1196 1.419 . S
C1198 C1199 1.362 1_545 S
C1199 H1189 0.930 . S
C1199 C1192 1.409 . S
C1199 C1198 1.362 1_565 S
H1200 C1206 0.930 . S
H1201 C1209 0.930 . S
H1202 C1210 0.930 . S
H1203 C1211 0.930 . S
H1204 C1214 0.930 . S
H1205 C1215 0.930 . S
C1206 H1200 0.930 . S
C1206 C1207 1.355 . S
C1206 C1208 1.415 . S
C1207 C1206 1.355 . S
C1207 C1209 1.419 . S
C1208 C1206 1.415 . S
C1208 C1213 1.425 . S
C1208 C1215 1.409 . S
C1209 H1201 0.930 . S
C1209 C1207 1.419 . S
C1209 C1210 1.362 . S
C1210 H1202 0.930 . S
C1210 C1209 1.362 . S
C1210 C1213 1.409 . S
C1211 H1203 0.930 . S
C1211 C1212 1.355 . S
C1211 C1213 1.415 1_565 S
C1212 C1211 1.355 . S
C1212 C1214 1.419 . S
C1213 C1208 1.425 . S
C1213 C1210 1.409 . S
C1213 C1211 1.415 1_545 S
C1214 H1204 0.930 . S
C1214 C1212 1.419 . S
C1214 C1215 1.362 1_565 S
C1215 H1205 0.930 . S
C1215 C1208 1.409 . S
C1215 C1214 1.362 1_545 S
H1216 C1222 0.930 . S
H1217 C1225 0.930 . S
H1218 C1226 0.930 . S
H1219 C1227 0.930 . S
H1220 C1230 0.930 . S
H1221 C1231 0.930 . S
C1222 H1216 0.930 . S
C1222 C1223 1.355 . S
C1222 C1224 1.415 1_565 S
C1223 C1222 1.355 . S
C1223 C1225 1.419 . S
C1224 C1222 1.415 1_545 S
C1224 C1229 1.425 . S
C1224 C1231 1.409 . S
C1225 H1217 0.930 . S
C1225 C1223 1.419 . S
C1225 C1226 1.362 1_565 S
C1226 H1218 0.930 . S
C1226 C1225 1.362 1_545 S
C1226 C1229 1.409 . S
C1227 H1219 0.930 . S
C1227 C1228 1.355 . S
C1227 C1229 1.415 . S
C1228 C1227 1.355 . S
C1228 C1230 1.419 . S
C1229 C1224 1.425 . S
C1229 C1226 1.409 . S
C1229 C1227 1.415 . S
C1230 H1220 0.930 . S
C1230 C1228 1.419 . S
C1230 C1231 1.362 . S
C1231 H1221 0.930 . S
C1231 C1224 1.409 . S
C1231 C1230 1.362 . S
H1232 C1238 0.930 . S
H1233 C1241 0.930 . S
H1234 C1242 0.930 . S
H1235 C1243 0.930 . S
H1236 C1246 0.930 . S
H1237 C1247 0.930 . S
C1238 H1232 0.930 . S
C1238 C1239 1.355 . S
C1238 C1240 1.415 . S
C1239 C1238 1.355 . S
C1239 C1241 1.419 . S
C1240 C1238 1.415 . S
C1240 C1245 1.425 . S
C1240 C1247 1.409 . S
C1241 H1233 0.930 . S
C1241 C1239 1.419 . S
C1241 C1242 1.362 . S
C1242 H1234 0.930 . S
C1242 C1241 1.362 . S
C1242 C1245 1.409 . S
C1243 H1235 0.930 . S
C1243 C1244 1.355 . S
C1243 C1245 1.415 1_545 S
C1244 C1243 1.355 . S
C1244 C1246 1.419 . S
C1245 C1240 1.425 . S
C1245 C1242 1.409 . S
C1245 C1243 1.415 1_565 S
C1246 H1236 0.930 . S
C1246 C1244 1.419 . S
C1246 C1247 1.362 1_545 S
C1247 H1237 0.930 . S
C1247 C1240 1.409 . S
C1247 C1246 1.362 1_565 S
C487 N6 1.513 . S
C492 N276 1.474 . S
C503 N36 1.472 . S
C508 N246 1.522 . S
C519 N336 1.474 . S
C524 N66 1.523 . S
C535 N96 1.498 . S
C540 N306 1.485 . S
C551 N404 1.517 . S
C556 N134 1.488 . S
C567 N374 1.478 . S
C572 N164 1.507 . S
C583 N464 1.473 . S
C588 N194 1.515 . S
C599 N224 1.514 . S
C604 N434 1.492 . S
C615 C61 1.548 . S
C620 C1 1.560 . S
C631 C91 1.549 . S
C636 C31 1.560 . S
C647 C190 1.534 . S
C652 C130 1.548 . S
C663 C160 1.550 . S
C668 C220 1.535 . S
C679 C301 1.534 . S
C684 C241 1.549 . S
C695 C331 1.533 . S
C700 C271 1.547 . S
C711 C370 1.533 . S
C716 C430 1.546 . S
C727 C400 1.560 . S
C732 C460 1.552 . S
C743 C151 1.525 . S
C748 C10 1.507 . S
C759 C121 1.514 . S
C764 C40 1.517 . S
C775 C70 1.505 . S
C780 C211 1.527 . S
C791 C181 1.509 . S
C796 C100 1.523 . S
C807 C250 1.520 . S
C812 C391 1.512 . S
C823 C361 1.522 . S
C828 C280 1.509 . S
C839 C310 1.515 . S
C844 C451 1.517 . S
C855 C421 1.526 . S
C860 C340 1.505 . S
C871 N44 1.440 . S
C876 N14 1.490 . S
C887 N104 1.491 . S
C892 N74 1.480 . S
C903 N156 1.439 . S
C908 N126 1.443 . S
C919 N186 1.443 . S
C924 N216 1.439 . S
C935 N284 1.430 . S
C940 N254 1.458 . S
C951 N344 1.488 . S
C956 N314 1.484 . S
C967 N366 1.468 . S
C972 N396 1.496 . S
C983 N426 1.471 . S
C988 N456 1.495 . S
C999 C27 1.402 . S
C1004 C16 1.402 . S
C1015 C57 1.406 . S
C1020 C46 1.406 . S
C1031 C87 1.397 . S
C1036 C76 1.397 . S
C1047 C106 1.397 . S
C1052 C117 1.397 . S
C1063 C136 1.403 . S
C1068 C147 1.403 . S
C1079 C177 1.401 . S
C1084 C166 1.401 . S
C1095 C196 1.405 . S
C1100 C207 1.405 . S
C1111 C226 1.399 . S
C1116 C237 1.399 . S
C1127 C256 1.403 . S
C1132 C267 1.403 . S
C1143 C297 1.406 . S
C1148 C286 1.406 . S
C1159 C316 1.402 . S
C1164 C327 1.402 . S
C1175 C346 1.399 . S
C1180 C357 1.399 . S
C1191 C376 1.402 . S
C1196 C387 1.402 . S
C1207 C406 1.406 . S
C1212 C417 1.406 . S
C1223 C447 1.402 . S
C1228 C436 1.402 . S
C1239 C466 1.404 . S
C1244 C477 1.404 . S
