# Generated by pormake.
# Topology whw, (6)-cn, num edge types: 1
# Building blocks:
#     Node 0, Type 0, BuildingBlock: INOVEN_clean_sbu_0, # of connection points: 6
#     Node 1, Type 0, BuildingBlock: INOVEN_clean_sbu_0, # of connection points: 6
#     Node 2, Type 0, BuildingBlock: INOVEN_clean_sbu_0, # of connection points: 6
#     Node 3, Type 0, BuildingBlock: INOVEN_clean_sbu_0, # of connection points: 6
#     Node 4, Type 0, BuildingBlock: INOVEN_clean_sbu_0, # of connection points: 6
#     Node 5, Type 0, BuildingBlock: INOVEN_clean_sbu_0, # of connection points: 6
#     Node 6, Type 0, BuildingBlock: INOVEN_clean_sbu_0, # of connection points: 6
#     Node 7, Type 0, BuildingBlock: INOVEN_clean_sbu_0, # of connection points: 6
#     Node 8, Type 0, BuildingBlock: INOVEN_clean_sbu_0, # of connection points: 6
#     Node 9, Type 0, BuildingBlock: INOVEN_clean_sbu_0, # of connection points: 6
#     Node 10, Type 0, BuildingBlock: INOVEN_clean_sbu_0, # of connection points: 6
#     Node 11, Type 0, BuildingBlock: INOVEN_clean_sbu_0, # of connection points: 6
#     Node 12, Type 0, BuildingBlock: INOVEN_clean_sbu_0, # of connection points: 6
#     Node 13, Type 0, BuildingBlock: INOVEN_clean_sbu_0, # of connection points: 6
#     Node 14, Type 0, BuildingBlock: INOVEN_clean_sbu_0, # of connection points: 6
#     Node 15, Type 0, BuildingBlock: INOVEN_clean_sbu_0, # of connection points: 6
#     Edge 16, Type (0, 0), BuildingBlock: AJUNOK_clean_linker_0, # of connection points: 2
#     Edge 17, Type (0, 0), BuildingBlock: AJUNOK_clean_linker_0, # of connection points: 2
#     Edge 18, Type (0, 0), BuildingBlock: AJUNOK_clean_linker_0, # of connection points: 2
#     Edge 19, Type (0, 0), BuildingBlock: AJUNOK_clean_linker_0, # of connection points: 2
#     Edge 20, Type (0, 0), BuildingBlock: AJUNOK_clean_linker_0, # of connection points: 2
#     Edge 21, Type (0, 0), BuildingBlock: AJUNOK_clean_linker_0, # of connection points: 2
#     Edge 22, Type (0, 0), BuildingBlock: AJUNOK_clean_linker_0, # of connection points: 2
#     Edge 23, Type (0, 0), BuildingBlock: AJUNOK_clean_linker_0, # of connection points: 2
#     Edge 24, Type (0, 0), BuildingBlock: AJUNOK_clean_linker_0, # of connection points: 2
#     Edge 25, Type (0, 0), BuildingBlock: AJUNOK_clean_linker_0, # of connection points: 2
#     Edge 26, Type (0, 0), BuildingBlock: AJUNOK_clean_linker_0, # of connection points: 2
#     Edge 27, Type (0, 0), BuildingBlock: AJUNOK_clean_linker_0, # of connection points: 2
#     Edge 28, Type (0, 0), BuildingBlock: AJUNOK_clean_linker_0, # of connection points: 2
#     Edge 29, Type (0, 0), BuildingBlock: AJUNOK_clean_linker_0, # of connection points: 2
#     Edge 30, Type (0, 0), BuildingBlock: AJUNOK_clean_linker_0, # of connection points: 2
#     Edge 31, Type (0, 0), BuildingBlock: AJUNOK_clean_linker_0, # of connection points: 2
#     Edge 32, Type (0, 0), BuildingBlock: AJUNOK_clean_linker_0, # of connection points: 2
#     Edge 33, Type (0, 0), BuildingBlock: AJUNOK_clean_linker_0, # of connection points: 2
#     Edge 34, Type (0, 0), BuildingBlock: AJUNOK_clean_linker_0, # of connection points: 2
#     Edge 35, Type (0, 0), BuildingBlock: AJUNOK_clean_linker_0, # of connection points: 2
#     Edge 36, Type (0, 0), BuildingBlock: AJUNOK_clean_linker_0, # of connection points: 2
#     Edge 37, Type (0, 0), BuildingBlock: AJUNOK_clean_linker_0, # of connection points: 2
#     Edge 38, Type (0, 0), BuildingBlock: AJUNOK_clean_linker_0, # of connection points: 2
#     Edge 39, Type (0, 0), BuildingBlock: AJUNOK_clean_linker_0, # of connection points: 2
#     Edge 40, Type (0, 0), BuildingBlock: AJUNOK_clean_linker_0, # of connection points: 2
#     Edge 41, Type (0, 0), BuildingBlock: AJUNOK_clean_linker_0, # of connection points: 2
#     Edge 42, Type (0, 0), BuildingBlock: AJUNOK_clean_linker_0, # of connection points: 2
#     Edge 43, Type (0, 0), BuildingBlock: AJUNOK_clean_linker_0, # of connection points: 2
#     Edge 44, Type (0, 0), BuildingBlock: AJUNOK_clean_linker_0, # of connection points: 2
#     Edge 45, Type (0, 0), BuildingBlock: AJUNOK_clean_linker_0, # of connection points: 2
#     Edge 46, Type (0, 0), BuildingBlock: AJUNOK_clean_linker_0, # of connection points: 2
#     Edge 47, Type (0, 0), BuildingBlock: AJUNOK_clean_linker_0, # of connection points: 2
#     Edge 48, Type (0, 0), BuildingBlock: AJUNOK_clean_linker_0, # of connection points: 2
#     Edge 49, Type (0, 0), BuildingBlock: AJUNOK_clean_linker_0, # of connection points: 2
#     Edge 50, Type (0, 0), BuildingBlock: AJUNOK_clean_linker_0, # of connection points: 2
#     Edge 51, Type (0, 0), BuildingBlock: AJUNOK_clean_linker_0, # of connection points: 2
#     Edge 52, Type (0, 0), BuildingBlock: AJUNOK_clean_linker_0, # of connection points: 2
#     Edge 53, Type (0, 0), BuildingBlock: AJUNOK_clean_linker_0, # of connection points: 2
#     Edge 54, Type (0, 0), BuildingBlock: AJUNOK_clean_linker_0, # of connection points: 2
#     Edge 55, Type (0, 0), BuildingBlock: AJUNOK_clean_linker_0, # of connection points: 2
#     Edge 56, Type (0, 0), BuildingBlock: AJUNOK_clean_linker_0, # of connection points: 2
#     Edge 57, Type (0, 0), BuildingBlock: AJUNOK_clean_linker_0, # of connection points: 2
#     Edge 58, Type (0, 0), BuildingBlock: AJUNOK_clean_linker_0, # of connection points: 2
#     Edge 59, Type (0, 0), BuildingBlock: AJUNOK_clean_linker_0, # of connection points: 2
#     Edge 60, Type (0, 0), BuildingBlock: AJUNOK_clean_linker_0, # of connection points: 2
#     Edge 61, Type (0, 0), BuildingBlock: AJUNOK_clean_linker_0, # of connection points: 2
#     Edge 62, Type (0, 0), BuildingBlock: AJUNOK_clean_linker_0, # of connection points: 2
#     Edge 63, Type (0, 0), BuildingBlock: AJUNOK_clean_linker_0, # of connection points: 2
# Relax obj value: 0.518
# Max RMSD: 0.267
# Mean RMSD: 0.233
data_MOF--net-whw--node1-INOVEN_clean_sbu_0--edge1-AJUNOK_clean_linker_0
_symmetry_space_group_name_H-M    P1
_symmetry_Int_Tables_number       1
_symmetry_cell_setting            triclinic
loop_
_symmetry_equiv_pos_as_xyz
'x, y, z'
_cell_length_a     34.246876
_cell_length_b     33.821507
_cell_length_c     26.584345
_cell_angle_alpha  91.122584
_cell_angle_beta   73.814502
_cell_angle_gamma 100.67663
loop_
_atom_site_label
_atom_site_type_symbol
_atom_site_fract_x
_atom_site_fract_y
_atom_site_fract_z
_atom_type_partial_charge
Gd0 Gd 0.03491 0.07482 0.24143 0.0
Gd1 Gd 0.002 0.1061 0.14555 0.0
C2 C 0.9371 0.07639 0.26022 0.0
C3 C 0.06402 0.0842 0.32362 0.0
C4 C 0.06776 0.09976 0.37685 0.0
C5 C 0.09214 0.08292 0.40235 0.0
C6 C 0.05312 0.13445 0.39915 0.0
C7 C 0.08667 0.13407 0.47113 0.0
C8 C 0.0621 0.15102 0.44542 0.0
C9 C 0.10167 0.09975 0.44779 0.0
C10 C 0.01857 0.02176 0.16736 0.0
C11 C 0.09777 0.10048 0.12688 0.0
C12 C 0.9665 0.11783 0.07312 0.0
C13 C 0.96412 0.1344 1.02187 0.0
C14 C 0.9384 0.11109 0.99496 0.0
C15 C -0.01666 0.17363 1.00147 0.0
C16 C 0.95088 0.16533 0.92857 0.0
C17 C 0.9769 0.18874 0.95554 0.0
C18 C 0.93164 0.12625 0.94969 0.0
C19 C 0.03985 0.15923 0.20187 0.0
O20 O 0.96728 0.07038 0.27994 0.0
O21 O 0.94272 0.08928 0.21128 0.0
O22 O 0.03748 0.05181 0.31801 0.0
O23 O 0.07376 0.11032 0.28424 0.0
O24 O 0.0459 0.0187 0.19272 0.0
O25 O 0.00043 0.04993 0.18561 0.0
O26 O 0.06658 0.09762 0.10559 0.0
O27 O 0.09341 0.09732 0.17773 0.0
O28 O 0.96796 0.14191 0.11221 0.0
O29 O -0.01504 0.08711 0.07387 0.0
O30 O 0.04184 0.16593 0.15302 0.0
O31 O 0.0154 0.12715 0.21802 0.0
H32 H 0.10535 0.0572 0.38589 0.0
H33 H 0.03511 0.1492 0.3804 0.0
H34 H 0.04969 0.17733 0.46101 0.0
H35 H 0.12218 0.08619 0.46352 0.0
H36 H 0.92236 0.08114 1.00994 0.0
H37 H 0.003 0.19281 1.02126 0.0
H38 H -0.00767 0.21887 0.94109 0.0
H39 H 0.91013 0.10743 0.93218 0.0
Gd40 Gd 0.13992 0.75919 0.50556 0.0
Gd41 Gd 0.12237 0.67665 0.47113 0.0
C42 C 0.11084 0.68337 0.59658 0.0
C43 C 0.15814 0.82904 0.54314 0.0
C44 C 0.16178 0.84739 0.5923 0.0
C45 C 0.19134 0.88253 0.59103 0.0
C46 C 0.13783 0.82907 0.64042 0.0
C47 C 0.17146 0.88192 0.68604 0.0
C48 C 0.14246 0.8464 0.68679 0.0
C49 C 0.19613 0.89984 0.63771 0.0
C50 C 0.20126 0.74304 0.42324 0.0
C51 C 0.11409 0.74972 0.39644 0.0
C52 C 0.13067 0.61033 0.4231 0.0
C53 C 0.1541 0.59971 0.37115 0.0
C54 C 0.13555 0.56907 0.34454 0.0
C55 C 0.19319 0.62234 0.34583 0.0
C56 C 0.19308 0.58649 0.26595 0.0
C57 C 0.21262 0.61582 0.29357 0.0
C58 C 0.15481 0.56261 0.29228 0.0
C59 C 0.05092 0.70338 0.51798 0.0
O60 O 0.12111 0.72302 0.58585 0.0
O61 O 0.11229 0.65852 0.55719 0.0
O62 O 0.18517 0.80616 0.5237 0.0
O63 O 0.12083 0.81385 0.53953 0.0
O64 O 0.18823 0.7765 0.43058 0.0
O65 O 0.18246 0.71851 0.46263 0.0
O66 O 0.12102 0.71226 0.39852 0.0
O67 O 0.11422 0.77302 0.4377 0.0
O68 O 0.10086 0.62964 0.42343 0.0
O69 O 0.15246 0.62515 0.45487 0.0
O70 O 0.05633 0.66676 0.52293 0.0
O71 O 0.08483 0.72328 0.49166 0.0
H72 H 0.21047 0.89668 0.55391 0.0
H73 H 0.11522 0.8017 0.64217 0.0
H74 H 0.12212 0.83284 0.72336 0.0
H75 H 0.21844 0.92739 0.63612 0.0
H76 H 0.10519 0.55157 0.36332 0.0
H77 H 0.20779 0.64612 0.36585 0.0
H78 H 0.24189 0.63492 0.27406 0.0
H79 H 0.13834 0.54089 0.27143 0.0
Gd80 Gd 0.45567 0.84927 0.69992 0.0
Gd81 Gd 0.54159 0.88173 0.69775 0.0
C82 C 0.52803 0.83187 0.59733 0.0
C83 C 0.37868 0.84403 0.70271 0.0
C84 C 0.35631 0.85601 0.66777 0.0
C85 C 0.31626 0.83528 0.67054 0.0
C86 C 0.37602 0.88613 0.62885 0.0
C87 C 0.31734 0.87222 0.5926 0.0
C88 C 0.35663 0.89428 0.5917 0.0
C89 C 0.29687 0.84323 0.63298 0.0
C90 C 0.4963 0.79361 0.71994 0.0
C91 C 0.46872 0.86124 0.81702 0.0
C92 C 0.60922 0.91743 0.71551 0.0
C93 C 0.62371 0.91911 0.7622 0.0
C94 C 0.64731 0.95489 0.77356 0.0
C95 C 0.60846 0.88725 0.79952 0.0
C96 C 0.63711 0.92813 0.86097 0.0
C97 C 0.61517 0.89175 0.8486 0.0
C98 C 0.65418 0.95937 0.82291 0.0
C99 C 0.51395 0.92461 0.634 0.0
O100 O 0.49009 0.84069 0.61346 0.0
O101 O 0.55299 0.83935 0.62846 0.0
O102 O 0.39967 0.81553 0.6858 0.0
O103 O 0.39933 0.87347 0.72294 0.0
O104 O 0.46605 0.78496 0.69872 0.0
O105 O 0.49969 0.82883 0.73441 0.0
O106 O 0.50888 0.87167 0.7895 0.0
O107 O 0.44111 0.85263 0.79002 0.0
O108 O 0.57726 0.93489 0.72041 0.0
O109 O 0.60567 0.88238 0.69344 0.0
O110 O 0.54922 0.91356 0.62213 0.0
O111 O 0.49314 0.91163 0.68034 0.0
H112 H 0.30074 0.81185 0.7004 0.0
H113 H 0.40715 0.90206 0.62576 0.0
H114 H 0.37364 0.91599 0.56018 0.0
H115 H 0.26676 0.82566 0.6341 0.0
H116 H 0.65866 0.97992 0.74525 0.0
H117 H 0.58969 0.85961 0.79167 0.0
H118 H 0.60208 0.86726 0.87757 0.0
H119 H 0.67107 0.98765 0.83211 0.0
Gd120 Gd 0.39273 0.20145 0.88474 0.0
Gd121 Gd 0.4195 0.28522 0.84715 0.0
C122 C 0.39753 0.27188 0.97269 0.0
C123 C 0.36847 0.1302 0.92798 0.0
C124 C 0.36729 0.11201 0.97754 0.0
C125 C 0.33872 0.0767 0.99735 0.0
C126 C 0.39257 0.13162 1.00712 0.0
C127 C 0.3609 0.08084 0.07636 0.0
C128 C 0.38971 0.11591 1.05603 0.0
C129 C 0.33534 0.06118 1.04699 0.0
C130 C 0.33958 0.22881 0.84024 0.0
C131 C 0.43727 0.21347 0.7615 0.0
C132 C 0.42148 0.3552 0.80845 0.0
C133 C 0.39539 0.3697 0.78027 0.0
C134 C 0.4134 0.39777 0.73869 0.0
C135 C 0.3528 0.35354 0.79244 0.0
C136 C 0.34821 0.38771 0.71573 0.0
C137 C 0.32927 0.36262 0.76053 0.0
C138 C 0.39 0.40687 0.70674 0.0
C139 C 0.4762 0.25909 0.88506 0.0
O140 O 0.39644 0.23298 0.96253 0.0
O141 O 0.39964 0.29715 0.93426 0.0
O142 O 0.34406 0.15627 0.93203 0.0
O143 O 0.40539 0.14252 0.89601 0.0
O144 O 0.35126 0.19465 0.83158 0.0
O145 O 0.35683 0.2478 0.87221 0.0
O146 O 0.42993 0.2509 0.76916 0.0
O147 O 0.43061 0.18915 0.80274 0.0
O148 O 0.445 0.33047 0.78359 0.0
O149 O 0.40276 0.34373 0.85708 0.0
O150 O 0.47304 0.29649 0.8827 0.0
O151 O 0.4542 0.23911 0.85911 0.0
H152 H 0.31852 0.06176 0.97501 0.0
H153 H 0.41371 0.15959 0.99297 0.0
H154 H 0.40905 0.1319 0.07881 0.0
H155 H 0.31268 0.03433 1.06262 0.0
H156 H 0.4461 0.41078 0.72902 0.0
H157 H 0.33822 0.33224 0.82501 0.0
H158 H 0.29727 0.34755 0.76845 0.0
H159 H 0.40586 0.42597 0.67211 0.0
Gd160 Gd 0.02749 0.87271 0.98728 0.0
Gd161 Gd -0.01324 0.89732 0.89633 0.0
C162 C 0.92573 0.86693 1.00568 0.0
C163 C 0.04445 0.8533 0.07246 0.0
C164 C 0.05568 0.84005 0.11984 0.0
C165 C 0.07768 0.80835 0.11657 0.0
C166 C 0.04306 0.85712 0.16921 0.0
C167 C 0.07324 0.81019 0.21084 0.0
C168 C 0.0515 0.84235 0.2139 0.0
C169 C 0.08679 0.79415 0.1608 0.0
C170 C 0.02094 0.82374 0.90993 0.0
C171 C 0.08885 0.91343 0.87908 0.0
C172 C 0.96736 0.88145 0.80824 0.0
C173 C 0.95795 0.86829 0.75674 0.0
C174 C 0.93434 0.88798 0.73308 0.0
C175 C 0.97042 0.83333 0.73226 0.0
C176 C 0.93624 0.83823 0.66254 0.0
C177 C 0.95994 0.81875 0.68642 0.0
C178 C 0.92352 0.87317 0.6873 0.0
C179 C 0.00032 0.95225 0.96951 0.0
O180 O 0.95826 0.86825 1.02437 0.0
O181 O 0.92812 0.87363 0.9562 0.0
O182 O 0.03796 0.8277 1.03673 0.0
O183 O 0.04228 0.89048 1.06157 0.0
O184 O 0.05083 0.82711 0.93188 0.0
O185 O -0.00614 0.84321 0.93359 0.0
O186 O 0.05622 0.91264 0.86065 0.0
O187 O 0.08624 0.90264 0.92807 0.0
O188 O 0.96463 0.91654 0.83048 0.0
O189 O -0.01867 0.85712 0.83361 0.0
O190 O 0.97119 0.95225 0.94594 0.0
O191 O 0.02138 0.92653 0.94934 0.0
H192 H 0.08825 0.79451 0.07936 0.0
H193 H 0.02574 0.88133 0.17362 0.0
H194 H 0.04025 0.85579 0.25119 0.0
H195 H 0.10509 0.77073 0.15524 0.0
H196 H 0.92332 0.91444 0.75066 0.0
H197 H -0.01156 0.81679 0.74874 0.0
H198 H 0.97091 0.79212 0.66938 0.0
H199 H 0.9042 0.88887 0.67212 0.0
Gd200 Gd 0.39473 0.80146 0.16853 0.0
Gd201 Gd 0.38057 0.72056 0.1302 0.0
C202 C 0.41011 0.72624 0.23503 0.0
C203 C 0.38349 0.86526 0.22188 0.0
C204 C 0.35953 0.87366 0.27482 0.0
C205 C 0.37781 0.90237 0.30412 0.0
C206 C 0.31994 0.85109 0.29799 0.0
C207 C 0.31931 0.8824 0.38112 0.0
C208 C 0.29999 0.8553 0.3508 0.0
C209 C 0.35789 0.90675 0.35685 0.0
C210 C 0.46852 0.78043 0.11848 0.0
C211 C 0.40746 0.79741 1.04299 0.0
C212 C 0.36077 0.65559 0.08357 0.0
C213 C 0.35988 0.64541 1.03018 0.0
C214 C 0.32991 0.61347 1.0222 0.0
C215 C 0.38583 0.66976 0.9875 0.0
C216 C 0.35372 0.6287 0.92851 0.0
C217 C 0.38281 0.66148 0.93709 0.0
C218 C 0.32705 0.60492 0.97158 0.0
C219 C 0.31965 0.73182 0.2162 0.0
O220 O 0.40063 0.76308 0.23693 0.0
O221 O 0.40977 0.7046 0.19252 0.0
O222 O 0.41427 0.84688 0.21967 0.0
O223 O 0.3622 0.85109 0.18937 0.0
O224 O 0.4605 0.81639 0.11631 0.0
O225 O 0.43559 0.7579 0.14303 0.0
O226 O 0.40419 0.75833 1.05213 0.0
O227 O 0.39917 0.82082 0.08384 0.0
O228 O 0.33461 0.67872 0.10566 0.0
O229 O 0.39722 0.66625 0.09222 0.0
O230 O 0.33492 0.6996 0.20621 0.0
O231 O 0.336 0.75764 0.17761 0.0
H232 H 0.40838 0.92004 0.28692 0.0
H233 H 0.30522 0.82917 0.27576 0.0
H234 H 0.27039 0.83608 0.36855 0.0
H235 H 0.37407 0.9272 0.37943 0.0
H236 H 0.30896 0.59499 1.05508 0.0
H237 H 0.40882 0.69483 0.99297 0.0
H238 H 0.4048 0.6795 0.90455 0.0
H239 H 0.30485 0.57917 0.96586 0.0
Gd240 Gd 0.47207 0.1036 0.44209 0.0
Gd241 Gd 0.55967 0.12846 0.44111 0.0
C242 C 0.54571 0.11977 0.32347 0.0
C243 C 0.40051 0.08122 0.427 0.0
C244 C 0.38451 0.08272 0.38196 0.0
C245 C 0.3504 0.05398 0.3781 0.0
C246 C 0.40698 0.10882 0.33931 0.0
C247 C 0.36467 0.07387 0.28705 0.0
C248 C 0.39711 0.10441 0.29203 0.0
C249 C 0.34039 0.04953 0.33068 0.0
C250 C 0.49491 0.05429 0.50331 0.0
C251 C 0.49157 0.1473 0.54649 0.0
C252 C 0.63607 0.12841 0.43671 0.0
C253 C 0.6604 0.13011 0.47433 0.0
C254 C 0.65029 0.15172 0.52014 0.0
C255 C 0.69183 0.10739 0.46654 0.0
C256 C 0.70157 0.12641 0.55134 0.0
C257 C 0.71216 0.10531 0.50503 0.0
C258 C 0.67075 0.14994 0.55823 0.0
C259 C 0.52176 0.18775 0.4249 0.0
O260 O 0.50532 0.11196 0.35052 0.0
O261 O 0.57326 0.12459 0.35085 0.0
O262 O 0.42746 0.05728 0.42157 0.0
O263 O 0.41162 0.11609 0.44658 0.0
O264 O 0.46054 0.06698 0.51466 0.0
O265 O 0.51715 0.06801 0.45773 0.0
O266 O 0.52911 0.138 0.52838 0.0
O267 O 0.46563 0.14143 0.51655 0.0
O268 O 0.62217 0.16098 0.4306 0.0
O269 O 0.60844 0.09551 0.43972 0.0
O270 O 0.54826 0.19293 0.45238 0.0
O271 O 0.51852 0.1536 0.40733 0.0
H272 H 0.33283 0.03379 0.41084 0.0
H273 H 0.43336 0.13124 0.3418 0.0
H274 H 0.41581 0.12378 0.25871 0.0
H275 H 0.31525 0.02588 0.32732 0.0
H276 H 0.62558 0.16883 0.52735 0.0
H277 H 0.69964 0.09019 0.43152 0.0
H278 H 0.73514 0.08636 0.49936 0.0
H279 H 0.66088 0.16536 0.59437 0.0
Gd280 Gd 0.11369 0.19101 0.79163 0.0
Gd281 Gd 0.12924 0.27586 0.75462 0.0
C282 C 0.09015 0.2607 0.87895 0.0
C283 C 0.12547 0.1245 0.82594 0.0
C284 C 0.15212 0.11616 0.85753 0.0
C285 C 0.14115 0.08142 0.88973 0.0
C286 C 0.18681 0.14504 0.85928 0.0
C287 C 0.1921 0.11026 0.93496 0.0
C288 C 0.20732 0.14178 0.89706 0.0
C289 C 0.16134 0.07825 0.92802 0.0
C290 C 0.04957 0.21005 0.76194 0.0
C291 C 0.12473 0.20381 0.6676 0.0
C292 C 0.14165 0.34611 0.71095 0.0
C293 C 0.13712 0.35925 0.66139 0.0
C294 C 0.12375 0.39551 0.65749 0.0
C295 C 0.1446 0.33459 0.6181 0.0
C296 C 0.12505 0.38196 0.56732 0.0
C297 C 0.1387 0.3459 0.57142 0.0
C298 C 0.11797 0.40702 0.61032 0.0
C299 C 0.19067 0.25568 0.78955 0.0
O300 O 0.10186 0.22495 0.87034 0.0
O301 O 0.093 0.28443 0.83848 0.0
O302 O 0.14549 0.14082 0.77965 0.0
O303 O 0.09439 0.14183 0.84999 0.0
O304 O 0.05699 0.17377 0.76204 0.0
O305 O 0.0724 0.23202 0.78531 0.0
O306 O 0.1245 0.24252 0.67824 0.0
O307 O 0.12589 0.17883 0.70468 0.0
O308 O 0.17102 0.32542 0.70698 0.0
O309 O 0.10712 0.3306 0.74562 0.0
O310 O 0.17574 0.28804 0.80139 0.0
O311 O 0.1719 0.23486 0.76037 0.0
H312 H 0.11485 0.05845 0.88829 0.0
H313 H 0.19566 0.17181 0.83445 0.0
H314 H 0.23085 0.16681 0.90141 0.0
H315 H 0.14876 0.05354 0.95663 0.0
H316 H 0.1177 0.41468 0.69083 0.0
H317 H 0.15524 0.30665 0.62012 0.0
H318 H 0.14532 0.32667 0.5382 0.0
H319 H 0.10771 0.43512 0.60747 0.0
Gd320 Gd 0.90715 0.30323 0.66861 0.0
Gd321 Gd 0.8832 0.22148 0.63584 0.0
C322 C 0.91155 0.22876 0.74355 0.0
C323 C 0.90286 0.37086 0.71443 0.0
C324 C 0.8779 0.38285 0.76478 0.0
C325 C 0.89749 0.40767 0.79668 0.0
C326 C 0.83551 0.36645 0.7837 0.0
C327 C 0.83414 0.39471 0.86859 0.0
C328 C 0.81374 0.37235 0.83522 0.0
C329 C 0.87586 0.4135 0.84822 0.0
C330 C 0.9753 0.27094 0.62116 0.0
C331 C 0.91443 0.29625 0.54363 0.0
C332 C 0.86152 0.15309 0.59748 0.0
C333 C 0.85725 0.13874 0.54684 0.0
C334 C 0.82728 0.10479 0.54493 0.0
C335 C 0.88098 0.16013 0.5006 0.0
C336 C 0.84764 0.11135 0.45 0.0
C337 C 0.87628 0.14651 0.45257 0.0
C338 C 0.82251 0.09107 0.49671 0.0
C339 C 0.82544 0.24042 0.71983 0.0
O340 O 0.90704 0.26709 0.74182 0.0
O341 O 0.90942 0.20594 0.70231 0.0
O342 O 0.92976 0.34872 0.71747 0.0
O343 O 0.88285 0.35826 0.67999 0.0
O344 O 0.97351 0.30889 0.61798 0.0
O345 O 0.94035 0.25347 0.64749 0.0
O346 O 0.90112 0.25704 0.55559 0.0
O347 O 0.91675 0.32119 0.58227 0.0
O348 O 0.83553 0.17633 0.61963 0.0
O349 O 0.89926 0.16613 0.60096 0.0
O350 O 0.83603 0.20585 0.71165 0.0
O351 O 0.84443 0.26473 0.68011 0.0
H352 H 0.93019 0.42053 0.78278 0.0
H353 H 0.81977 0.34741 0.75954 0.0
H354 H 0.78171 0.35741 0.84991 0.0
H355 H 0.89288 0.43001 0.8732 0.0
H356 H 0.80801 0.08861 0.58066 0.0
H357 H 0.90371 0.18688 0.5015 0.0
H358 H 0.89668 0.16243 0.41725 0.0
H359 H 0.80021 0.06399 0.49585 0.0
Gd360 Gd 0.60895 0.70428 0.2913 0.0
Gd361 Gd 0.62996 0.78893 0.25518 0.0
C362 C 0.58951 0.77364 0.37949 0.0
C363 C 0.61586 0.63739 0.32861 0.0
C364 C 0.63748 0.62951 0.36668 0.0
C365 C 0.63205 0.6502 0.41347 0.0
C366 C 0.66718 0.6046 0.35382 0.0
C367 C 0.68268 0.61792 0.43695 0.0
C368 C 0.68976 0.59889 0.38868 0.0
C369 C 0.65427 0.64443 0.44819 0.0
C370 C 0.54828 0.7273 0.25827 0.0
C371 C 0.62463 0.71776 0.16722 0.0
C372 C 0.64786 0.86053 0.21306 0.0
C373 C 0.64332 0.87861 0.16637 0.0
C374 C 0.66466 0.91762 0.14935 0.0
C375 C 0.61976 0.85599 0.13679 0.0
C376 C 0.64005 0.91075 0.07204 0.0
C377 C 0.61787 0.87207 0.09006 0.0
C378 C 0.66313 0.93368 0.10213 0.0
C379 C 0.68789 0.76398 0.29307 0.0
O380 O 0.59873 0.73708 0.37015 0.0
O381 O 0.59382 0.79837 0.33935 0.0
O382 O 0.58256 0.65332 0.34609 0.0
O383 O 0.64069 0.65429 0.28469 0.0
O384 O 0.5545 0.69053 0.2574 0.0
O385 O 0.57057 0.74813 0.28337 0.0
O386 O 0.625 0.75658 0.17805 0.0
O387 O 0.62424 0.69232 0.20454 0.0
O388 O 0.67381 0.83562 0.20405 0.0
O389 O 0.61341 0.84691 0.24908 0.0
O390 O 0.67533 0.79761 0.30369 0.0
O391 O 0.66931 0.74498 0.26251 0.0
H392 H 0.6101 0.67035 0.42383 0.0
H393 H 0.67262 0.58932 0.317 0.0
H394 H 0.71134 0.57834 0.37899 0.0
H395 H 0.64708 0.65899 0.48543 0.0
H396 H 0.68319 0.93519 0.17191 0.0
H397 H 0.60375 0.82556 0.14915 0.0
H398 H 0.60033 0.8537 1.067 0.0
H399 H 0.68036 0.96358 0.08871 0.0
Gd400 Gd 0.63972 0.25969 1.00788 0.0
Gd401 Gd 0.62586 0.17758 0.97049 0.0
C402 C 0.61152 0.18311 0.09645 0.0
C403 C 0.65999 0.32534 1.05299 0.0
C404 C 0.66099 0.33702 0.10586 0.0
C405 C 0.68731 0.37238 0.11301 0.0
C406 C 0.63886 0.31122 0.14886 0.0
C407 C 0.66546 0.35827 0.20708 0.0
C408 C 0.64132 0.32159 0.19891 0.0
C409 C 0.68934 0.38312 0.1634 0.0
C410 C 0.70097 0.2481 0.92278 0.0
C411 C 0.61161 0.2521 0.90118 0.0
C412 C 0.63817 0.11332 0.91903 0.0
C413 C 0.66228 0.10494 0.86614 0.0
C414 C 0.64224 0.08068 0.83411 0.0
C415 C 0.7038 0.12394 0.84537 0.0
C416 C 0.70219 0.10051 0.75895 0.0
C417 C 0.72371 0.12157 0.79214 0.0
C418 C 0.66199 0.07848 0.78095 0.0
C419 C 0.5528 0.20018 1.02107 0.0
O420 O 0.61495 0.22218 0.08654 0.0
O421 O 0.62035 0.15933 1.05605 0.0
O422 O 0.6857 0.30138 1.03241 0.0
O423 O 0.62346 0.31461 1.04448 0.0
O424 O 0.68567 0.28031 0.93245 0.0
O425 O 0.68443 0.22222 0.96137 0.0
O426 O 0.62069 0.2151 0.90066 0.0
O427 O 0.61161 0.27441 0.94336 0.0
O428 O 0.60668 0.13069 0.92102 0.0
O429 O 0.65926 0.12845 0.95139 0.0
O430 O 0.5592 0.16342 1.0213 0.0
O431 O 0.58587 0.22136 0.99478 0.0
H432 H 0.7057 0.39197 0.07977 0.0
H433 H 0.61903 0.28342 0.14401 0.0
H434 H 0.62227 0.30183 0.23141 0.0
H435 H 0.70819 0.41156 0.1685 0.0
H436 H 0.61039 0.06542 0.84952 0.0
H437 H 0.72021 0.14215 0.8696 0.0
H438 H 0.75503 0.13806 0.77645 0.0
H439 H 0.64451 0.06202 0.75641 0.0
Gd440 Gd 0.89164 0.70214 0.37793 0.0
Gd441 Gd 0.92003 0.78581 0.33864 0.0
C442 C 0.90052 0.77334 0.4638 0.0
C443 C 0.86609 0.63239 0.42528 0.0
C444 C 0.86467 0.6188 0.47744 0.0
C445 C 0.83229 0.58843 0.50455 0.0
C446 C 0.89166 0.64068 0.50337 0.0
C447 C 0.8517 0.60479 0.58437 0.0
C448 C 0.88544 0.6335 0.55641 0.0
C449 C 0.82591 0.58126 0.55804 0.0
C450 C 0.83759 0.731 0.33668 0.0
C451 C 0.93712 0.71276 0.25475 0.0
C452 C 0.92167 0.85594 0.30059 0.0
C453 C 0.89603 0.86988 0.27145 0.0
C454 C 0.91417 0.89856 0.23064 0.0
C455 C 0.85442 0.85104 0.2801 0.0
C456 C 0.85327 0.88084 0.19888 0.0
C457 C 0.83288 0.85684 0.2443 0.0
C458 C 0.89276 0.90434 0.19473 0.0
C459 C 0.97711 0.75846 0.37433 0.0
O460 O 0.8975 0.73423 0.45431 0.0
O461 O 0.90359 0.79886 0.42529 0.0
O462 O 0.84187 0.65803 0.42543 0.0
O463 O 0.90297 0.64315 0.39268 0.0
O464 O 0.84855 0.69657 0.32663 0.0
O465 O 0.85686 0.74958 0.36697 0.0
O466 O 0.93068 0.75062 0.26109 0.0
O467 O 0.92866 0.6886 0.29657 0.0
O468 O 0.9459 0.83167 0.27603 0.0
O469 O 0.90212 0.84385 0.3488 0.0
O470 O 0.97473 0.79614 0.37219 0.0
O471 O 0.95361 0.73878 0.35 0.0
H472 H 0.81086 0.57177 0.485 0.0
H473 H 0.91623 0.66473 0.48331 0.0
H474 H 0.90609 0.65143 0.57606 0.0
H475 H 0.79991 0.55881 0.57924 0.0
H476 H 0.94604 0.9138 0.22387 0.0
H477 H 0.83978 0.82928 0.31202 0.0
H478 H 0.80244 0.83869 0.24864 0.0
H479 H 0.90943 0.92316 0.1601 0.0
Gd480 Gd 0.54482 0.58722 0.7325 0.0
Gd481 Gd 0.51999 0.61564 0.62861 0.0
C482 C 0.44946 0.6 0.73962 0.0
C483 C 0.56113 0.60418 0.82241 0.0
C484 C 0.56919 0.61823 0.87442 0.0
C485 C 0.59212 0.5991 0.89982 0.0
C486 C 0.55657 0.65365 0.89736 0.0
C487 C 0.58927 0.65015 0.96897 0.0
C488 C 0.56625 0.66912 0.94337 0.0
C489 C 0.60212 0.61478 0.94573 0.0
C490 C 0.51381 0.52925 0.67306 0.0
C491 C 0.60999 0.59043 0.62126 0.0
C492 C 0.50318 0.63195 0.54248 0.0
C493 C 0.49419 0.64335 0.49286 0.0
C494 C 0.50568 0.68351 0.47324 0.0
C495 C 0.47006 0.61575 0.46803 0.0
C496 C 0.46847 0.66849 0.40626 0.0
C497 C 0.45738 0.62809 0.42554 0.0
C498 C 0.49309 0.69584 0.43082 0.0
C499 C 0.5463 0.6716 0.69002 0.0
O500 O 0.47716 0.59126 0.7622 0.0
O501 O 0.45762 0.60889 0.68883 0.0
O502 O 0.56723 0.57001 0.79927 0.0
O503 O 0.54465 0.62637 0.79757 0.0
O504 O 0.53798 0.52263 0.70163 0.0
O505 O 0.50537 0.56359 0.68216 0.0
O506 O 0.58007 0.59201 0.59846 0.0
O507 O 0.60597 0.59536 0.67184 0.0
O508 O 0.52843 0.65662 0.56297 0.0
O509 O 0.48941 0.5966 0.56691 0.0
O510 O 0.52044 0.67596 0.66393 0.0
O511 O 0.55913 0.63935 0.67923 0.0
H512 H 0.6033 0.57237 0.88348 0.0
H513 H 0.53918 0.66991 0.87946 0.0
H514 H 0.55525 0.69606 0.95912 0.0
H515 H 0.62098 0.59942 0.96221 0.0
H516 H 0.52347 0.70586 0.4918 0.0
H517 H 0.45986 0.58475 0.48242 0.0
H518 H 0.43763 0.60609 0.409 0.0
H519 H 0.5024 0.72709 0.41747 0.0
Gd520 Gd 0.95384 0.33891 0.19879 0.0
Gd521 Gd 0.03787 0.37589 0.19459 0.0
C522 C 0.02772 0.32396 0.09365 0.0
C523 C 0.88002 0.32579 0.18777 0.0
C524 C 0.86146 0.33981 0.14988 0.0
C525 C 0.81969 0.32558 0.15299 0.0
C526 C 0.88552 0.36851 0.11099 0.0
C527 C 0.82664 0.36761 0.07677 0.0
C528 C 0.86828 0.38229 0.07474 0.0
C529 C 0.80235 0.33926 0.11633 0.0
C530 C -0.0063 0.29085 0.23787 0.0
C531 C 0.96834 0.3538 0.31368 0.0
C532 C 0.10666 0.41362 0.20771 0.0
C533 C 0.1221 0.41828 0.25419 0.0
C534 C 0.11301 0.44978 0.28824 0.0
C535 C 0.14036 0.38819 0.26902 0.0
C536 C 0.13104 0.41593 0.35514 0.0
C537 C 0.14463 0.38696 0.31941 0.0
C538 C 0.11742 0.44857 0.3386 0.0
C539 C 0.00651 0.41658 0.13354 0.0
O540 O -0.01228 0.32589 0.11336 0.0
O541 O 0.05399 0.33726 0.12182 0.0
O542 O 0.90641 0.30178 0.16997 0.0
O543 O 0.89321 0.35414 0.21655 0.0
O544 O 0.95379 0.28774 0.25305 0.0
O545 O 0.00845 0.31394 0.19853 0.0
O546 O 0.00807 0.36527 0.28614 0.0
O547 O 0.9401 0.34662 0.28755 0.0
O548 O 0.07509 0.43094 0.20987 0.0
O549 O 0.10244 0.3775 0.18889 0.0
O550 O 0.04282 0.40779 0.12111 0.0
O551 O -0.01355 0.40322 0.1803 0.0
H552 H 0.80075 0.30358 0.1832 0.0
H553 H 0.91785 0.37977 0.10822 0.0
H554 H 0.88812 0.40313 1.04364 0.0
H555 H 0.77038 0.32716 0.11811 0.0
H556 H 0.09943 0.47365 0.27747 0.0
H557 H 0.14852 0.36402 0.2432 0.0
H558 H 0.15605 0.36199 0.3316 0.0
H559 H 0.10719 0.47134 0.36577 0.0
Gd560 Gd 0.4969 0.36645 0.51079 0.0
Gd561 Gd 0.46801 0.39752 0.41125 0.0
C562 C 0.40379 0.38175 0.5264 0.0
C563 C 0.53143 0.35343 0.58373 0.0
C564 C 0.53864 0.33805 0.63286 0.0
C565 C 0.52772 0.29717 0.6496 0.0
C566 C 0.56078 0.36463 0.66103 0.0
C567 C 0.56051 0.31028 0.72192 0.0
C568 C 0.57189 0.35106 0.70408 0.0
C569 C 0.53822 0.28361 0.69348 0.0
C570 C 0.45536 0.31292 0.45798 0.0
C571 C 0.56398 0.38983 0.39539 0.0
C572 C 0.44172 0.38865 0.3266 0.0
C573 C 0.4398 0.37297 0.27262 0.0
C574 C 0.41834 0.39106 0.24397 0.0
C575 C 0.45368 0.33754 0.25186 0.0
C576 C 0.42529 0.33966 0.17542 0.0
C577 C 0.44686 0.32144 0.20429 0.0
C578 C 0.41095 0.37475 0.19711 0.0
C579 C 0.48786 0.45214 0.4823 0.0
O580 O 0.43449 0.38206 0.54815 0.0
O581 O 0.4082 0.38222 0.47532 0.0
O582 O 0.52999 0.32968 0.54433 0.0
O583 O 0.51249 0.3839 0.5841 0.0
O584 O 0.45243 0.30885 0.50762 0.0
O585 O 0.48174 0.3436 0.44002 0.0
O586 O 0.53503 0.39726 0.37442 0.0
O587 O 0.55707 0.37878 0.44537 0.0
O588 O 0.46879 0.42028 0.33305 0.0
O589 O 0.42967 0.36297 0.36676 0.0
O590 O 0.46179 0.45658 0.45555 0.0
O591 O 0.50335 0.42189 0.46638 0.0
H592 H 0.51154 0.27556 0.62833 0.0
H593 H 0.57076 0.39611 0.64866 0.0
H594 H 0.59069 0.37273 0.72222 0.0
H595 H 0.52893 0.25202 0.70499 0.0
H596 H 0.40584 0.41749 0.25888 0.0
H597 H 0.46946 0.3218 0.27265 0.0
H598 H 0.45866 0.29453 0.19013 0.0
H599 H 0.39266 0.38939 0.17881 0.0
Gd600 Gd 0.97419 0.60164 0.94074 0.0
Gd601 Gd 0.0622 0.61692 0.9416 0.0
C602 C 0.04849 0.61721 0.82273 0.0
C603 C 0.90191 0.58709 0.92648 0.0
C604 C 0.88457 0.59289 0.88373 0.0
C605 C 0.84832 0.5672 0.88043 0.0
C606 C 0.90595 0.62176 0.84378 0.0
C607 C 0.85589 0.59798 0.79606 0.0
C608 C 0.89159 0.62437 0.80021 0.0
C609 C 0.83412 0.56954 0.83648 0.0
C610 C -0.00848 0.5474 1.00195 0.0
C611 C -0.00531 0.64402 1.04273 0.0
C612 C 0.13588 0.6064 0.93809 0.0
C613 C 0.15751 0.59513 0.97452 0.0
C614 C 0.19714 0.61676 0.9722 0.0
C615 C 0.13766 0.56588 1.01463 0.0
C616 C 0.19497 0.58326 1.05311 0.0
C617 C 0.15635 0.55988 1.05351 0.0
C618 C 0.21568 0.61105 1.01143 0.0
C619 C 0.0338 0.6821 0.9257 0.0
O620 O 0.00786 0.60868 0.84898 0.0
O621 O 0.0756 0.6207 0.85093 0.0
O622 O 0.92649 0.56064 0.9179 0.0
O623 O 0.91608 0.62014 0.94765 0.0
O624 O 0.95923 0.56365 1.01423 0.0
O625 O 0.01421 0.56047 0.95659 0.0
O626 O 0.02919 0.62834 1.02776 0.0
O627 O 0.97083 0.64313 1.01058 0.0
O628 O 0.12413 0.64114 0.94611 0.0
O629 O 0.10783 0.57835 0.92714 0.0
O630 O 0.06304 0.68372 0.94853 0.0
O631 O 0.02551 0.64827 0.90855 0.0
H632 H 0.83174 0.54466 0.91103 0.0
H633 H 0.93438 0.64139 0.84551 0.0
H634 H 0.90936 0.64583 0.76871 0.0
H635 H 0.80678 0.54872 0.83347 0.0
H636 H 0.21282 0.63954 0.94152 0.0
H637 H 0.10688 0.5491 1.01747 0.0
H638 H 0.13915 0.53904 0.08594 0.0
H639 H 0.24513 0.6298 1.0107 0.0
C640 C 0.14739 0.1477 1.06115 0.0
C641 C 0.13925 0.11202 0.09118 0.0
C642 C 0.17506 0.15154 1.01117 0.0
C643 C 0.19321 0.11871 0.98933 0.0
H644 H 0.12847 0.17045 0.07346 0.0
H645 H 0.1757 0.17705 0.98672 0.0
S646 S 0.19835 0.02922 1.06334 0.0
N647 N 0.16377 0.05121 0.10485 0.0
N648 N 0.21452 0.05743 1.00871 0.0
C649 C 0.19269 0.0874 1.02356 0.0
C650 C 0.16525 0.08395 0.07519 0.0
C651 C 0.1023 0.80552 0.34174 0.0
C652 C 0.10311 0.76446 0.34931 0.0
C653 C 0.09237 0.81983 0.29781 0.0
C654 C 0.08227 0.79389 0.25898 0.0
H655 H 0.10997 0.82712 0.36972 0.0
H656 H 0.09341 0.85184 0.2939 0.0
S657 S 0.07528 0.68272 0.26286 0.0
N658 N 0.09054 0.69769 0.31489 0.0
N659 N 0.07029 0.72384 0.23474 0.0
C660 C 0.08161 0.75248 0.26717 0.0
C661 C 0.09234 0.73805 0.31143 0.0
C662 C 0.29623 0.84236 0.46511 0.0
C663 C 0.30388 0.88005 0.43908 0.0
C664 C 0.29544 0.83973 0.51785 0.0
C665 C 0.30224 0.87468 0.54607 0.0
H666 H 0.29508 0.81489 0.44345 0.0
H667 H 0.29385 0.8104 0.53481 0.0
S668 S 0.31077 0.97941 0.50066 0.0
N669 N 0.30893 0.95232 0.44864 0.0
N670 N 0.30737 0.94715 0.54816 0.0
C671 C 0.30405 0.91202 0.52266 0.0
C672 C 0.30493 0.91477 0.46896 0.0
C673 C 0.47609 0.16723 0.6954 0.0
C674 C 0.45171 0.19769 0.70611 0.0
C675 C 0.48947 0.15185 0.64428 0.0
C676 C 0.4782 0.16501 0.60095 0.0
H677 H 0.48539 0.15532 0.72686 0.0
H678 H 0.50818 0.12873 0.63897 0.0
S679 S 0.41531 0.24445 0.60661 0.0
N680 N 0.41788 0.24076 0.66737 0.0
N681 N 0.44138 0.21137 0.57328 0.0
C682 C 0.45371 0.19528 0.61127 0.0
C683 C 0.44098 0.21162 0.66294 0.0
C684 C 0.84895 0.90241 0.11284 0.0
C685 C 0.84258 0.87074 0.14949 0.0
C686 C 0.87083 0.89876 1.06049 0.0
C687 C 0.88552 0.86317 1.04431 0.0
H688 H 0.84439 0.93211 0.12631 0.0
H689 H 0.88173 0.9256 1.03518 0.0
S690 S 0.8596 0.7667 0.11952 0.0
N691 N 0.83886 0.79874 0.16164 0.0
N692 N 0.88096 0.79251 1.06342 0.0
C693 C 0.87071 0.82892 0.0774 0.0
C694 C 0.84797 0.8324 0.13029 0.0
C695 C 0.92689 0.23652 0.83265 0.0
C696 C 0.92215 0.21221 0.79002 0.0
C697 C 0.93688 0.22168 0.87625 0.0
C698 C 0.94273 0.18159 0.87988 0.0
H699 H 0.92259 0.26745 0.83268 0.0
H700 H 0.93915 0.24173 0.90798 0.0
S701 S 0.93743 0.10598 0.77719 0.0
N702 N 0.92586 0.14591 0.75414 0.0
N703 N 0.94597 0.11891 0.83389 0.0
C704 C 0.93923 0.15735 0.83677 0.0
C705 C 0.92868 0.17232 0.7927 0.0
C706 C 0.71178 0.07423 0.66867 0.0
C707 C 0.71755 0.10683 0.70124 0.0
C708 C 0.7117 0.08069 0.61682 0.0
C709 C 0.71762 0.11995 0.59607 0.0
H710 H 0.70352 0.04366 0.68477 0.0
H711 H 0.70283 0.05493 0.59485 0.0
S712 S 0.74334 0.21514 0.66071 0.0
N713 N 0.7358 0.17967 0.70602 0.0
N714 N 0.73747 0.19137 0.60779 0.0
C715 C 0.72916 0.15248 0.62569 0.0
C716 C 0.7287 0.14605 0.67861 0.0
C717 C 0.53093 0.82799 0.49971 0.0
C718 C 0.54366 0.81589 0.54239 0.0
C719 C 0.54605 0.81466 0.44792 0.0
C720 C 0.57395 0.78744 0.43568 0.0
H721 H 0.50954 0.84872 0.50612 0.0
H722 H 0.53525 0.82554 0.41712 0.0
S723 S 0.61588 0.74455 0.53294 0.0
N724 N 0.58583 0.77404 0.56801 0.0
N725 N 0.61293 0.74842 0.47229 0.0
C726 C 0.5864 0.77455 0.47816 0.0
C727 C 0.57169 0.78881 0.53072 0.0
C728 C 0.7026 0.6319 0.51862 0.0
C729 C 0.69563 0.60354 0.48098 0.0
C730 C 0.67887 0.62489 0.57099 0.0
C731 C 0.65081 0.58844 0.58613 0.0
H732 H 0.71811 0.66248 0.50602 0.0
H733 H 0.67735 0.65011 0.5968 0.0
S734 S 0.64499 0.49669 0.50897 0.0
N735 N 0.67568 0.53221 0.46692 0.0
N736 N 0.63266 0.5185 0.56589 0.0
C737 C 0.65457 0.55632 0.55234 0.0
C738 C 0.67797 0.56374 0.49912 0.0
C739 C 0.59682 0.24396 0.81173 0.0
C740 C 0.59885 0.2676 0.85574 0.0
C741 C 0.58426 0.25758 0.76949 0.0
C742 C 0.5728 0.29568 0.76864 0.0
H743 H 0.60515 0.21449 0.80962 0.0
H744 H 0.58422 0.23809 0.73672 0.0
S745 S 0.57052 0.36898 0.87538 0.0
N746 N 0.58773 0.33143 0.89536 0.0
N747 N 0.56238 0.35578 0.81857 0.0
C748 C 0.57411 0.31933 0.81293 0.0
C749 C 0.58746 0.3057 0.85551 0.0
C750 C 0.79849 0.34563 1.00237 0.0
C751 C 0.81173 0.37727 1.03231 0.0
C752 C 0.8005 0.3525 0.94993 0.0
C753 C 0.8158 0.39123 0.92612 0.0
H754 H 0.79123 0.31479 1.01741 0.0
H755 H 0.79468 0.32658 0.92665 0.0
S756 S 0.84108 0.48557 0.99323 0.0
N757 N 0.83069 0.44963 1.03879 0.0
N758 N 0.83435 0.46272 0.93994 0.0
C759 C 0.82264 0.42383 0.95813 0.0
C760 C 0.82061 0.41679 1.01147 0.0
C761 C 0.94785 0.71232 0.15466 0.0
C762 C 0.95367 0.69633 0.20028 0.0
C763 C 0.96091 0.69541 0.1045 0.0
C764 C -0.0182 0.66232 0.0966 0.0
H765 H 0.9321 0.73761 0.15783 0.0
H766 H 0.95477 0.70868 0.07141 0.0
S767 S 0.00619 0.6094 0.20193 0.0
N768 N -0.01763 0.64483 0.2329 0.0
N769 N 0.00795 0.61481 0.1397 0.0
C770 C -0.01127 0.64674 0.14155 0.0
C771 C 0.97449 0.66317 0.19276 0.0
C772 C 0.35492 0.41799 0.5846 0.0
C773 C 0.36284 0.3813 0.5626 0.0
C774 C 0.33839 0.42006 0.63886 0.0
C775 C 0.3301 0.38524 0.67106 0.0
H776 H 0.36765 0.44564 0.56145 0.0
H777 H 0.3401 0.44945 0.65598 0.0
S778 S 0.32156 0.28043 0.62642 0.0
N779 N 0.34423 0.30863 0.57245 0.0
N780 N 0.31175 0.31202 0.67447 0.0
C781 C 0.32581 0.3478 0.64718 0.0
C782 C 0.34323 0.34588 0.59225 0.0
C783 C 0.43934 0.71933 0.36433 0.0
C784 C 0.45358 0.68248 0.36204 0.0
C785 C 0.42517 0.73297 0.32376 0.0
C786 C 0.42445 0.71055 0.27855 0.0
H787 H 0.43865 0.73779 0.3982 0.0
H788 H 0.41465 0.76146 0.32806 0.0
S789 S 0.4614 0.61346 0.25063 0.0
N790 N 0.46815 0.62504 0.3086 0.0
N791 N 0.4411 0.64989 0.23353 0.0
C792 C 0.43895 0.67379 0.27553 0.0
C793 C 0.4535 0.66 0.31677 0.0
C794 C 0.21461 0.6216 0.17869 0.0
C795 C 0.20786 0.58564 0.20816 0.0
C796 C 0.21513 0.62078 0.12591 0.0
C797 C 0.20887 0.58401 0.10106 0.0
H798 H 0.21542 0.65029 0.1976 0.0
H799 H 0.21632 0.64888 0.10615 0.0
S800 S 0.2021 0.4827 0.15692 0.0
N801 N 0.2038 0.51314 0.20595 0.0
N802 N 0.20465 0.51166 0.10635 0.0
C803 C 0.20753 0.54836 0.12817 0.0
C804 C 0.20705 0.54917 0.18192 0.0
C805 C 0.08924 0.26819 0.97639 0.0
C806 C 0.07308 0.27516 0.93445 0.0
C807 C 0.07513 0.28425 1.027 0.0
C808 C 0.04302 0.30703 1.03921 0.0
H809 H 0.11385 0.25101 0.96974 0.0
H810 H 0.08926 0.27832 1.0571 0.0
S811 S -0.01156 0.33251 0.94484 0.0
N812 N 0.0224 0.30654 0.91001 0.0
N813 N -0.00504 0.33439 1.00415 0.0
C814 C 0.02594 0.3132 0.998 0.0
C815 C 0.04114 0.29804 0.94624 0.0
C816 C -0.00463 0.23014 0.28633 0.0
C817 C 0.01694 0.26349 0.25321 0.0
C818 C 0.01041 0.19423 0.27951 0.0
C819 C 0.04532 0.19164 0.23728 0.0
H820 H 0.9644 0.22987 0.31154 0.0
H821 H -0.01001 0.16722 0.2992 0.0
S822 S 0.12306 0.27562 0.16324 0.0
N823 N 0.08369 0.29611 0.19604 0.0
N824 N 0.10989 0.2273 0.18052 0.0
C825 C 0.07244 0.22686 0.2158 0.0
C826 C 0.05807 0.26361 0.22382 0.0
C827 C -0.00197 0.76536 0.45727 0.0
C828 C -0.00952 0.74121 0.41603 0.0
C829 C 0.01019 0.74992 0.49781 0.0
C830 C 0.01666 0.71007 0.4978 0.0
H831 H -0.00449 0.79682 0.4577 0.0
H832 H 0.01898 0.77056 0.5262 0.0
S833 S -0.00124 0.63383 0.40007 0.0
N834 N -0.01184 0.67508 0.37896 0.0
N835 N 0.01098 0.64574 0.455 0.0
C836 C 0.00634 0.68484 0.45867 0.0
C837 C -0.00602 0.70067 0.41734 0.0
C838 C 0.50948 0.69659 0.76936 0.0
C839 C 0.54892 0.6955 0.73533 0.0
C840 C 0.49197 0.73041 0.76731 0.0
C841 C 0.51614 0.7645 0.73767 0.0
H842 H 0.48884 0.66897 0.78632 0.0
H843 H 0.45923 0.72885 0.78525 0.0
S844 S 0.62954 0.78302 0.67829 0.0
N845 N 0.61705 0.73494 0.69701 0.0
N846 N 0.58595 0.80059 0.69634 0.0
C847 C 0.55914 0.7672 0.71993 0.0
C848 C 0.57599 0.73212 0.72091 0.0
C849 C 0.50332 0.1842 0.96851 0.0
C850 C 0.51679 0.20865 1.00627 0.0
C851 C 0.48986 0.20066 0.92966 0.0
C852 C 0.48891 0.24193 0.9276 0.0
H853 H 0.50757 0.15321 0.96518 0.0
H854 H 0.48207 0.1813 0.89961 0.0
S855 S 0.51529 0.31731 1.02227 0.0
N856 N 0.52323 0.27471 1.04325 0.0
N857 N 0.49857 0.30598 0.97026 0.0
C858 C 0.49872 0.26584 0.96799 0.0
C859 C 0.51165 0.24888 1.00793 0.0
C860 C 0.97884 0.76137 0.90155 0.0
C861 C 0.01347 0.79045 0.87674 0.0
C862 C -0.01475 0.72437 0.91659 0.0
C863 C 0.02539 0.71603 0.90218 0.0
H864 H 0.94934 0.77009 0.91986 0.0
H865 H 0.95993 0.70418 0.94312 0.0
S866 S 0.11753 0.77289 0.80666 0.0
N867 N 0.08241 0.80196 0.81644 0.0
N868 N 0.09485 0.73149 0.84293 0.0
C869 C 0.05659 0.74019 0.86406 0.0
C870 C 0.04961 0.77741 0.84899 0.0
C871 C 0.52621 0.72071 0.17583 0.0
C872 C 0.53264 0.74414 0.21817 0.0
C873 C 0.51244 0.73598 0.13654 0.0
C874 C 0.50331 0.77497 0.13872 0.0
H875 H 0.53081 0.68983 0.17361 0.0
H876 H 0.50473 0.71565 0.10725 0.0
S877 S 0.5165 0.84905 0.24061 0.0
N878 N 0.53027 0.80864 0.25904 0.0
N879 N 0.5048 0.83775 0.18524 0.0
C880 C 0.51221 0.79959 0.17916 0.0
C881 C 0.5261 0.78388 0.21928 0.0
C882 C 0.4543 0.21056 0.45006 0.0
C883 C 0.49551 0.21532 0.41872 0.0
C884 C 0.4323 0.2416 0.45292 0.0
C885 C 0.4523 0.27783 0.4256 0.0
H886 H 0.43964 0.18481 0.47559 0.0
H887 H 0.40368 0.24013 0.48391 0.0
S888 S 0.54608 0.29224 0.31282 0.0
N889 N 0.54628 0.24963 0.34206 0.0
N890 N 0.50352 0.30767 0.34608 0.0
C891 C 0.48678 0.27699 0.38226 0.0
C892 C 0.51 0.24621 0.38045 0.0
C893 C 0.03416 0.26721 0.7173 0.0
C894 C 0.03394 0.22581 0.72099 0.0
C895 C 0.02259 0.2838 0.67695 0.0
C896 C 0.00832 0.25921 0.63992 0.0
H897 H 0.04159 0.28673 0.74725 0.0
H898 H 0.02042 0.31538 0.67854 0.0
S899 S 0.00199 0.14885 0.63151 0.0
N900 N 0.01997 0.16068 0.68247 0.0
N901 N -0.0036 0.19166 0.60809 0.0
C902 C 0.00982 0.21802 0.64164 0.0
C903 C 0.02214 0.2012 0.68238 0.0
C904 C 0.97624 -0.00141 0.10493 0.0
C905 C 0.01412 0.00222 0.11787 0.0
C906 C 0.97178 0.98388 1.0563 0.0
C907 C 0.00525 0.97266 1.01842 0.0
H908 H 0.94971 0.00724 0.13275 0.0
H909 H 0.94186 0.98063 1.04883 0.0
S910 S 0.11145 0.97865 1.03128 0.0
N911 N 0.08559 -0.00599 0.08803 0.0
N912 N 0.07818 0.96862 0.99625 0.0
C913 C 0.04344 0.97722 1.03052 0.0
C914 C 0.04763 -0.00881 0.08032 0.0
C915 C 0.22824 0.7572 0.32579 0.0
C916 C 0.22999 0.7364 0.37082 0.0
C917 C 0.25734 0.7567 0.27622 0.0
C918 C 0.29015 0.73584 0.2693 0.0
H919 H 0.20406 0.77448 0.3289 0.0
H920 H 0.25397 0.77261 0.24318 0.0
S921 S 0.30975 0.67706 0.37417 0.0
N922 N 0.26807 0.69512 0.40471 0.0
N923 N 0.32215 0.69316 0.31249 0.0
C924 C 0.29207 0.71466 0.31402 0.0
C925 C 0.26244 0.71534 0.36442 0.0
C926 C 0.5313 -0.00139 0.51912 0.0
C927 C 0.50054 0.02186 0.537 0.0
C928 C 0.53434 0.96679 0.55058 0.0
C929 C 0.50692 0.95679 0.60138 0.0
H930 H 0.55288 0.00472 0.48047 0.0
H931 H 0.55873 0.94987 0.5348 0.0
S932 S 0.42144 0.00892 0.6674 0.0
N933 N 0.44227 0.03288 0.60994 0.0
N934 N 0.44841 0.97331 0.6679 0.0
C935 C 0.47612 0.97976 0.61971 0.0
C936 C 0.47295 0.01221 0.58791 0.0
C937 C 0.27796 0.26304 0.85458 0.0
C938 C 0.30353 0.23799 0.82468 0.0
C939 C 0.24187 0.26883 0.84241 0.0
C940 C 0.22964 0.24948 0.80025 0.0
H941 H 0.28539 0.27761 0.88827 0.0
H942 H 0.22289 0.28803 0.86698 0.0
S943 S 0.28711 0.18259 0.70801 0.0
N944 N 0.31502 0.19511 0.74947 0.0
N945 N 0.24728 0.20576 0.72712 0.0
C946 C 0.25549 0.22516 0.76931 0.0
C947 C 0.29225 0.21937 0.78155 0.0
C948 C 0.76343 0.22243 0.86432 0.0
C949 C 0.7321 0.24505 0.87066 0.0
C950 C 0.79423 0.22311 0.81595 0.0
C951 C 0.79559 0.24667 0.77156 0.0
H952 H 0.7645 0.20442 0.89698 0.0
H953 H 0.81724 0.20446 0.81319 0.0
S954 S 0.71971 0.31029 0.76659 0.0
N955 N 0.7041 0.2915 0.82727 0.0
N956 N 0.76155 0.29202 0.73741 0.0
C957 C 0.76457 0.26946 0.77738 0.0
C958 C 0.7331 0.26881 0.8265 0.0
C959 C 0.78445 0.72041 0.28649 0.0
C960 C 0.79945 0.74026 0.32647 0.0
C961 C 0.74789 0.72731 0.27655 0.0
C962 C 0.72492 0.75455 0.30604 0.0
H963 H 0.80128 0.69945 0.26235 0.0
H964 H 0.73801 0.71176 0.24493 0.0
S965 S 0.7485 0.81148 0.41825 0.0
N966 N 0.78653 0.78611 0.39811 0.0
N967 N 0.71861 0.79975 0.37894 0.0
C968 C 0.73908 0.77392 0.34685 0.0
C969 C 0.77607 0.76662 0.35721 0.0
C970 C 0.53222 0.48336 0.59736 0.0
C971 C 0.50444 0.50593 0.62805 0.0
C972 C 0.52725 0.46776 0.54943 0.0
C973 C 0.49358 0.47291 0.53081 0.0
H974 H 0.55848 0.47849 0.60983 0.0
H975 H 0.55003 0.45117 0.52677 0.0
S976 S 0.40955 0.52617 0.5995 0.0
N977 N 0.43992 0.52974 0.63861 0.0
N978 N 0.43141 0.50143 0.54836 0.0
C979 C 0.46507 0.49464 0.56182 0.0
C980 C 0.47004 0.51042 0.61067 0.0
C981 C 0.97117 0.50742 0.08752 0.0
C982 C -0.00483 0.51322 1.03438 0.0
C983 C 0.97267 0.47507 0.11952 0.0
C984 C -0.00199 0.44694 0.09947 0.0
H985 H 0.95148 0.52858 0.10497 0.0
H986 H 0.95502 0.47294 0.16041 0.0
S987 S 0.06359 0.44587 0.96166 0.0
N988 N 0.04293 0.4864 0.96291 0.0
N989 N 0.0453 0.42549 1.02148 0.0
C990 C 0.02084 0.45162 1.04577 0.0
C991 C 0.01969 0.48475 1.01368 0.0
C992 C 0.10399 0.19395 0.52947 0.0
C993 C 0.09703 0.15187 0.52115 0.0
C994 C 0.11393 0.21058 0.57531 0.0
C995 C 0.11776 0.18631 0.61598 0.0
H996 H 0.10194 0.21457 0.50009 0.0
H997 H 0.11808 0.24291 0.5791 0.0
S998 S 0.09897 0.07409 0.61742 0.0
N999 N 0.09192 0.08649 0.56135 0.0
N1000 N 0.11159 0.11702 0.64464 0.0
C1001 C 0.11066 0.14422 0.60823 0.0
C1002 C 0.10016 0.12735 0.56201 0.0
C1003 C 0.1714 0.87911 0.77942 0.0
C1004 C 0.17076 0.902 0.7361 0.0
C1005 C 0.15085 0.88817 0.83052 0.0
C1006 C 0.12902 0.9201 0.83905 0.0
H1007 H 0.18307 0.85122 0.77332 0.0
H1008 H 0.14654 0.86642 0.86191 0.0
S1009 S 0.13081 -0.00306 0.74084 0.0
N1010 N 0.1564 0.96388 0.70644 0.0
N1011 N 0.11801 0.98096 0.80264 0.0
C1012 C 0.13544 0.94757 0.79732 0.0
C1013 C 0.15623 0.93838 0.7454 0.0
C1014 C 0.40834 0.84617 0.96719 0.0
C1015 C 0.42405 0.81504 0.98578 0.0
C1016 C 0.42289 0.86129 0.91373 0.0
C1017 C 0.4556 0.84782 0.87576 0.0
H1018 H 0.38358 0.85828 0.99388 0.0
H1019 H 0.40828 0.88395 0.90205 0.0
S1020 S 0.5088 0.76754 0.90278 0.0
N1021 N 0.47469 0.77146 0.95962 0.0
N1022 N 0.50299 0.801 0.8623 0.0
C1023 C 0.47215 0.81746 0.89421 0.0
C1024 C 0.45634 0.801 0.94789 0.0
C1025 C 0.39283 0.05896 0.19423 0.0
C1026 C 0.35891 0.06601 0.23499 0.0
C1027 C 0.39168 0.05967 0.14233 0.0
C1028 C 0.35654 0.06735 0.1299 0.0
H1029 H 0.42128 0.05526 0.20236 0.0
H1030 H 0.41941 0.05708 0.11152 0.0
S1031 S 0.2581 0.08279 0.22293 0.0
N1032 N 0.28794 0.07685 0.26044 0.0
N1033 N 0.28576 0.07827 0.16203 0.0
C1034 C 0.32116 0.07096 0.17048 0.0
C1035 C 0.32235 0.07028 0.2235 0.0
C1036 C 0.90653 0.76466 0.55769 0.0
C1037 C 0.90626 0.79004 0.51607 0.0
C1038 C 0.91575 0.78015 0.60426 0.0
C1039 C 0.92523 0.82207 0.61248 0.0
H1040 H 0.90026 0.73232 0.55403 0.0
H1041 H 0.91538 0.75878 0.63424 0.0
S1042 S 0.93098 0.90219 0.51522 0.0
N1043 N 0.91744 0.86004 0.48692 0.0
N1044 N 0.93516 0.88842 0.57239 0.0
C1045 C 0.92506 0.8477 0.57112 0.0
C1046 C 0.91558 0.832 0.52385 0.0
C1047 C 0.85593 0.11837 0.35447 0.0
C1048 C 0.85029 0.09312 0.39844 0.0
C1049 C 0.87902 0.10915 0.3048 0.0
C1050 C 0.89659 0.07442 0.29835 0.0
H1051 H 0.84745 0.14782 0.35969 0.0
H1052 H 0.88808 0.132 0.27359 0.0
S1053 S 0.87791 -0.008 0.39643 0.0
N1054 N 0.85447 0.02704 0.4291 0.0
N1055 N 0.89717 0.00963 0.33531 0.0
C1056 C 0.88405 0.04544 0.33944 0.0
C1057 C 0.86086 0.05482 0.38997 0.0
C1058 C 0.61097 0.1367 0.17471 0.0
C1059 C 0.59396 0.16574 0.15393 0.0
C1060 C 0.59536 0.12178 0.22832 0.0
C1061 C 0.56031 0.13322 0.26438 0.0
H1062 H 0.63751 0.1261 0.14967 0.0
H1063 H 0.61103 0.1008 0.2416 0.0
S1064 S 0.50283 0.20751 0.23097 0.0
N1065 N 0.53944 0.20517 0.17589 0.0
N1066 N 0.50936 0.17598 0.27332 0.0
C1067 C 0.54251 0.16149 0.24363 0.0
C1068 C 0.55932 0.17782 0.18984 0.0
C1069 C 0.60275 0.92769 0.9559 0.0
C1070 C 0.63963 0.93335 0.91488 0.0
C1071 C 0.60338 0.92366 1.00772 0.0
C1072 C 0.64093 0.92516 1.01994 0.0
H1073 H 0.5731 0.92415 0.94751 0.0
H1074 H 0.57422 0.91702 1.03812 0.0
S1075 S 0.74603 0.94294 0.92679 0.0
N1076 N 0.71466 0.94342 0.88962 0.0
N1077 N 0.71601 0.93558 0.98764 0.0
C1078 C 0.67822 0.93372 0.97966 0.0
C1079 C 0.67753 0.93789 0.92677 0.0
C1080 C 0.60919 0.70925 1.02654 0.0
C1081 C 0.59955 0.66718 1.01918 0.0
C1082 C 0.61823 0.7254 0.07301 0.0
C1083 C 0.61835 0.70058 0.11526 0.0
H1084 H 0.60998 0.73021 0.99587 0.0
H1085 H 0.62472 0.7578 0.07598 0.0
S1086 S 0.59159 0.58838 0.11923 0.0
N1087 N 0.58818 0.60141 1.06137 0.0
N1088 N 0.6057 0.63089 0.14643 0.0
C1089 C 0.60844 0.65847 0.10851 0.0
C1090 C 0.59901 0.64214 1.06148 0.0
C1091 C 0.61813 0.41922 0.31664 0.0
C1092 C 0.60488 0.39054 0.3583 0.0
C1093 C 0.64417 0.41116 0.26851 0.0
C1094 C 0.65743 0.374 0.26068 0.0
H1095 H 0.60433 0.44583 0.3192 0.0
H1096 H 0.6491 0.43181 0.23574 0.0
S1097 S 0.64273 0.2954 0.36298 0.0
N1098 N 0.61516 0.3286 0.39316 0.0
N1099 N 0.66479 0.31345 0.30234 0.0
C1100 C 0.6505 0.34854 0.3048 0.0
C1101 C 0.62395 0.35686 0.35399 0.0
C1102 C 0.92571 0.30511 0.39215 0.0
C1103 C 0.95524 0.34085 0.37296 0.0
C1104 C 0.91327 0.29105 0.44589 0.0
C1105 C 0.92822 0.31235 0.48538 0.0
H1106 H 0.91238 0.287 0.36488 0.0
H1107 H 0.89115 0.26312 0.45663 0.0
S1108 S 0.00565 0.40839 0.45813 0.0
N1109 N -0.00056 0.39685 0.3998 0.0
N1110 N 0.97496 0.37233 0.49947 0.0
C1111 C 0.95746 0.3485 0.46688 0.0
C1112 C 0.97116 0.36209 0.41165 0.0
C1113 C 0.84482 0.56293 0.71706 0.0
C1114 C 0.84456 0.59776 0.74682 0.0
C1115 C 0.84414 0.56456 0.6648 0.0
C1116 C 0.84322 0.60105 0.64136 0.0
H1117 H 0.84854 0.53509 0.73305 0.0
H1118 H 0.84715 0.53796 0.64172 0.0
S1119 S 0.83491 0.69857 0.70556 0.0
N1120 N 0.83793 0.6681 0.75158 0.0
N1121 N 0.83647 0.67118 0.65315 0.0
C1122 C 0.83941 0.63511 0.67205 0.0
C1123 C 0.84014 0.63346 0.72499 0.0
C1124 C 0.4095 0.28033 0.11546 0.0
C1125 C 0.41746 0.32239 0.12379 0.0
C1126 C 0.40204 0.26419 1.06805 0.0
C1127 C 0.40184 0.28895 1.02568 0.0
H1128 H 0.40881 0.25936 0.14606 0.0
H1129 H 0.3969 0.23182 1.06443 0.0
S1130 S 0.42478 0.40118 1.02378 0.0
N1131 N 0.42758 0.38816 0.08195 0.0
N1132 N 0.41249 0.35861 0.99564 0.0
C1133 C 0.40998 0.33101 1.03343 0.0
C1134 C 0.41797 0.34737 0.08129 0.0
C1135 C 0.36817 0.57651 0.86364 0.0
C1136 C 0.35833 0.61486 0.87451 0.0
C1137 C 0.39285 0.56895 0.81435 0.0
C1138 C 0.40807 0.59947 0.77494 0.0
H1139 H 0.36207 0.55423 0.89497 0.0
H1140 H 0.4047 0.54111 0.80946 0.0
S1141 S 0.37632 0.69841 0.7779 0.0
N1142 N 0.35439 0.67883 0.83785 0.0
N1143 N 0.40143 0.66454 0.74469 0.0
C1144 C 0.39152 0.63472 0.78209 0.0
C1145 C 0.36635 0.6425 0.83239 0.0
C1146 C 0.11732 0.67545 0.69139 0.0
C1147 C 0.09469 0.66607 0.65407 0.0
C1148 C 0.10285 0.65871 0.74403 0.0
C1149 C 0.06399 0.63233 0.76411 0.0
H1150 H 0.14704 0.69562 0.67966 0.0
H1151 H 0.12232 0.6674 0.76973 0.0
S1152 S -0.00957 0.60003 0.68463 0.0
N1153 N 0.03013 0.62867 0.64285 0.0
N1154 N 0.00254 0.59965 0.74059 0.0
C1155 C 0.04059 0.6236 0.7275 0.0
C1156 C 0.05591 0.63964 0.67339 0.0
C1157 C 0.14624 0.43768 0.43872 0.0
C1158 C 0.12602 0.40911 0.41093 0.0
C1159 C 0.14367 0.42988 0.49112 0.0
C1160 C 0.12045 0.39357 0.5168 0.0
H1161 H 0.16538 0.46531 0.41924 0.0
H1162 H 0.16157 0.45133 0.51077 0.0
S1163 S 0.05612 0.31261 0.46336 0.0
N1164 N 0.07832 0.34559 0.41404 0.0
N1165 N 0.07279 0.33136 0.51305 0.0
C1166 C 0.09772 0.36623 0.49041 0.0
C1167 C 0.10075 0.37387 0.43715 0.0
loop_
_geom_bond_atom_site_label_1
_geom_bond_atom_site_label_2
_geom_bond_distance
_geom_bond_site_symmetry_2
_ccdc_geom_bond_type
Gd0 C3 2.818 . S
Gd0 O20 2.377 . S
Gd0 O22 2.448 . S
Gd0 O23 2.506 . S
Gd0 O24 2.435 . S
Gd0 O25 2.717 . S
Gd0 O27 2.395 . S
Gd0 O31 2.327 . S
Gd1 C12 2.818 . S
Gd1 O21 2.395 . S
Gd1 O25 2.327 1_655 S
Gd1 O26 2.377 1_655 S
Gd1 O28 2.448 . S
Gd1 O29 2.506 . S
Gd1 O30 2.435 1_655 S
Gd1 O31 2.717 1_655 S
C2 O20 1.240 1_655 S
C2 O21 1.240 . S
C3 Gd0 2.818 . S
C3 C4 1.510 . S
C3 O22 1.249 . S
C3 O23 1.252 . S
C4 C3 1.510 . S
C4 C5 1.404 . S
C4 C6 1.352 . S
C5 C4 1.404 . S
C5 C9 1.389 . S
C5 H32 0.930 . S
C6 C4 1.352 . S
C6 C8 1.374 . S
C6 H33 0.931 . S
C7 C8 1.359 . S
C7 C9 1.364 . S
C8 C6 1.374 . S
C8 C7 1.359 . S
C8 H34 0.931 . S
C9 C5 1.389 . S
C9 C7 1.364 . S
C9 H35 0.931 . S
C10 O24 1.256 . S
C10 O25 1.257 . S
C11 O26 1.240 . S
C11 O27 1.240 . S
C12 Gd1 2.818 . S
C12 C13 1.510 1_554 S
C12 O28 1.249 . S
C12 O29 1.252 . S
C13 C12 1.510 1_556 S
C13 C14 1.404 . S
C13 C15 1.352 . S
C14 C13 1.404 . S
C14 C18 1.389 . S
C14 H36 0.930 . S
C15 C13 1.352 . S
C15 C17 1.374 . S
C15 H37 0.931 . S
C16 C17 1.359 . S
C16 C18 1.364 . S
C17 C15 1.374 . S
C17 C16 1.359 . S
C17 H38 0.931 . S
C18 C14 1.389 . S
C18 C16 1.364 . S
C18 H39 0.931 . S
C19 O30 1.256 . S
C19 O31 1.257 . S
O20 Gd0 2.377 . S
O20 C2 1.240 1_455 S
O21 Gd1 2.395 . S
O21 C2 1.240 . S
O22 Gd0 2.448 . S
O22 C3 1.249 . S
O23 Gd0 2.506 . S
O23 C3 1.252 . S
O24 Gd0 2.435 . S
O24 C10 1.256 . S
O25 Gd0 2.717 . S
O25 Gd1 2.327 1_455 S
O25 C10 1.257 . S
O26 Gd1 2.377 1_455 S
O26 C11 1.240 . S
O27 Gd0 2.395 . S
O27 C11 1.240 . S
O28 Gd1 2.448 . S
O28 C12 1.249 . S
O29 Gd1 2.506 . S
O29 C12 1.252 . S
O30 Gd1 2.435 1_455 S
O30 C19 1.256 . S
O31 Gd0 2.327 . S
O31 Gd1 2.717 1_455 S
O31 C19 1.257 . S
H32 C5 0.930 . S
H33 C6 0.931 . S
H34 C8 0.931 . S
H35 C9 0.931 . S
H36 C14 0.930 . S
H37 C15 0.931 . S
H38 C17 0.931 . S
H39 C18 0.931 . S
Gd40 C43 2.818 . S
Gd40 O60 2.377 . S
Gd40 O62 2.448 . S
Gd40 O63 2.506 . S
Gd40 O64 2.435 . S
Gd40 O65 2.717 . S
Gd40 O67 2.395 . S
Gd40 O71 2.327 . S
Gd41 C52 2.818 . S
Gd41 O61 2.395 . S
Gd41 O65 2.327 . S
Gd41 O66 2.377 . S
Gd41 O68 2.448 . S
Gd41 O69 2.506 . S
Gd41 O70 2.435 . S
Gd41 O71 2.717 . S
C42 O60 1.240 . S
C42 O61 1.240 . S
C43 Gd40 2.818 . S
C43 C44 1.510 . S
C43 O62 1.249 . S
C43 O63 1.252 . S
C44 C43 1.510 . S
C44 C45 1.404 . S
C44 C46 1.352 . S
C45 C44 1.404 . S
C45 C49 1.389 . S
C45 H72 0.930 . S
C46 C44 1.352 . S
C46 C48 1.374 . S
C46 H73 0.931 . S
C47 C48 1.359 . S
C47 C49 1.364 . S
C48 C46 1.374 . S
C48 C47 1.359 . S
C48 H74 0.931 . S
C49 C45 1.389 . S
C49 C47 1.364 . S
C49 H75 0.931 . S
C50 O64 1.256 . S
C50 O65 1.257 . S
C51 O66 1.240 . S
C51 O67 1.240 . S
C52 Gd41 2.818 . S
C52 C53 1.510 . S
C52 O68 1.249 . S
C52 O69 1.252 . S
C53 C52 1.510 . S
C53 C54 1.404 . S
C53 C55 1.352 . S
C54 C53 1.404 . S
C54 C58 1.389 . S
C54 H76 0.930 . S
C55 C53 1.352 . S
C55 C57 1.374 . S
C55 H77 0.931 . S
C56 C57 1.359 . S
C56 C58 1.364 . S
C57 C55 1.374 . S
C57 C56 1.359 . S
C57 H78 0.931 . S
C58 C54 1.389 . S
C58 C56 1.364 . S
C58 H79 0.931 . S
C59 O70 1.256 . S
C59 O71 1.257 . S
O60 Gd40 2.377 . S
O60 C42 1.240 . S
O61 Gd41 2.395 . S
O61 C42 1.240 . S
O62 Gd40 2.448 . S
O62 C43 1.249 . S
O63 Gd40 2.506 . S
O63 C43 1.252 . S
O64 Gd40 2.435 . S
O64 C50 1.256 . S
O65 Gd40 2.717 . S
O65 Gd41 2.327 . S
O65 C50 1.257 . S
O66 Gd41 2.377 . S
O66 C51 1.240 . S
O67 Gd40 2.395 . S
O67 C51 1.240 . S
O68 Gd41 2.448 . S
O68 C52 1.249 . S
O69 Gd41 2.506 . S
O69 C52 1.252 . S
O70 Gd41 2.435 . S
O70 C59 1.256 . S
O71 Gd40 2.327 . S
O71 Gd41 2.717 . S
O71 C59 1.257 . S
H72 C45 0.930 . S
H73 C46 0.931 . S
H74 C48 0.931 . S
H75 C49 0.931 . S
H76 C54 0.930 . S
H77 C55 0.931 . S
H78 C57 0.931 . S
H79 C58 0.931 . S
Gd80 C83 2.818 . S
Gd80 O100 2.377 . S
Gd80 O102 2.448 . S
Gd80 O103 2.506 . S
Gd80 O104 2.435 . S
Gd80 O105 2.717 . S
Gd80 O107 2.395 . S
Gd80 O111 2.327 . S
Gd81 C92 2.818 . S
Gd81 O101 2.395 . S
Gd81 O105 2.327 . S
Gd81 O106 2.377 . S
Gd81 O108 2.448 . S
Gd81 O109 2.506 . S
Gd81 O110 2.435 . S
Gd81 O111 2.717 . S
C82 O100 1.240 . S
C82 O101 1.240 . S
C83 Gd80 2.818 . S
C83 C84 1.510 . S
C83 O102 1.249 . S
C83 O103 1.252 . S
C84 C83 1.510 . S
C84 C85 1.404 . S
C84 C86 1.352 . S
C85 C84 1.404 . S
C85 C89 1.389 . S
C85 H112 0.930 . S
C86 C84 1.352 . S
C86 C88 1.374 . S
C86 H113 0.931 . S
C87 C88 1.359 . S
C87 C89 1.364 . S
C88 C86 1.374 . S
C88 C87 1.359 . S
C88 H114 0.931 . S
C89 C85 1.389 . S
C89 C87 1.364 . S
C89 H115 0.931 . S
C90 O104 1.256 . S
C90 O105 1.257 . S
C91 O106 1.240 . S
C91 O107 1.240 . S
C92 Gd81 2.818 . S
C92 C93 1.510 . S
C92 O108 1.249 . S
C92 O109 1.252 . S
C93 C92 1.510 . S
C93 C94 1.404 . S
C93 C95 1.352 . S
C94 C93 1.404 . S
C94 C98 1.389 . S
C94 H116 0.948 . S
C95 C93 1.352 . S
C95 C97 1.374 . S
C95 H117 0.931 . S
C96 C97 1.359 . S
C96 C98 1.364 . S
C97 C95 1.374 . S
C97 C96 1.359 . S
C97 H118 0.931 . S
C98 C94 1.389 . S
C98 C96 1.364 . S
C98 H119 0.931 1_565 S
C99 O110 1.256 . S
C99 O111 1.257 . S
O100 Gd80 2.377 . S
O100 C82 1.240 . S
O101 Gd81 2.395 . S
O101 C82 1.240 . S
O102 Gd80 2.448 . S
O102 C83 1.249 . S
O103 Gd80 2.506 . S
O103 C83 1.252 . S
O104 Gd80 2.435 . S
O104 C90 1.256 . S
O105 Gd80 2.717 . S
O105 Gd81 2.327 . S
O105 C90 1.257 . S
O106 Gd81 2.377 . S
O106 C91 1.240 . S
O107 Gd80 2.395 . S
O107 C91 1.240 . S
O108 Gd81 2.448 . S
O108 C92 1.249 . S
O109 Gd81 2.506 . S
O109 C92 1.252 . S
O110 Gd81 2.435 . S
O110 C99 1.256 . S
O111 Gd80 2.327 . S
O111 Gd81 2.717 . S
O111 C99 1.257 . S
H112 C85 0.930 . S
H113 C86 0.931 . S
H114 C88 0.931 . S
H115 C89 0.931 . S
H116 C94 0.948 . S
H117 C95 0.931 . S
H118 C97 0.931 . S
H119 C98 0.931 1_545 S
Gd120 C123 2.818 . S
Gd120 O140 2.377 . S
Gd120 O142 2.448 . S
Gd120 O143 2.506 . S
Gd120 O144 2.435 . S
Gd120 O145 2.717 . S
Gd120 O147 2.395 . S
Gd120 O151 2.327 . S
Gd121 C132 2.818 . S
Gd121 O141 2.395 . S
Gd121 O145 2.327 . S
Gd121 O146 2.377 . S
Gd121 O148 2.448 . S
Gd121 O149 2.506 . S
Gd121 O150 2.435 . S
Gd121 O151 2.717 . S
C122 O140 1.240 . S
C122 O141 1.240 . S
C123 Gd120 2.818 . S
C123 C124 1.510 1_556 S
C123 O142 1.249 . S
C123 O143 1.252 . S
C124 C123 1.510 1_554 S
C124 C125 1.404 . S
C124 C126 1.352 . S
C125 C124 1.404 . S
C125 C129 1.389 . S
C125 H152 0.930 . S
C126 C124 1.352 . S
C126 C128 1.374 . S
C126 H153 0.931 . S
C127 C128 1.359 . S
C127 C129 1.364 . S
C128 C126 1.374 . S
C128 C127 1.359 . S
C128 H154 0.931 . S
C129 C125 1.389 . S
C129 C127 1.364 . S
C129 H155 0.931 . S
C130 O144 1.256 . S
C130 O145 1.257 . S
C131 O146 1.240 . S
C131 O147 1.240 . S
C132 Gd121 2.818 . S
C132 C133 1.510 . S
C132 O148 1.249 . S
C132 O149 1.252 . S
C133 C132 1.510 . S
C133 C134 1.404 . S
C133 C135 1.352 . S
C134 C133 1.404 . S
C134 C138 1.389 . S
C134 H156 0.930 . S
C135 C133 1.352 . S
C135 C137 1.374 . S
C135 H157 0.931 . S
C136 C137 1.359 . S
C136 C138 1.364 . S
C137 C135 1.374 . S
C137 C136 1.359 . S
C137 H158 0.931 . S
C138 C134 1.389 . S
C138 C136 1.364 . S
C138 H159 0.931 . S
C139 O150 1.256 . S
C139 O151 1.257 . S
O140 Gd120 2.377 . S
O140 C122 1.240 . S
O141 Gd121 2.395 . S
O141 C122 1.240 . S
O142 Gd120 2.448 . S
O142 C123 1.249 . S
O143 Gd120 2.506 . S
O143 C123 1.252 . S
O144 Gd120 2.435 . S
O144 C130 1.256 . S
O145 Gd120 2.717 . S
O145 Gd121 2.327 . S
O145 C130 1.257 . S
O146 Gd121 2.377 . S
O146 C131 1.240 . S
O147 Gd120 2.395 . S
O147 C131 1.240 . S
O148 Gd121 2.448 . S
O148 C132 1.249 . S
O149 Gd121 2.506 . S
O149 C132 1.252 . S
O150 Gd121 2.435 . S
O150 C139 1.256 . S
O151 Gd120 2.327 . S
O151 Gd121 2.717 . S
O151 C139 1.257 . S
H152 C125 0.930 . S
H153 C126 0.931 . S
H154 C128 0.931 . S
H155 C129 0.931 . S
H156 C134 0.930 . S
H157 C135 0.931 . S
H158 C137 0.931 . S
H159 C138 0.931 . S
Gd160 C163 2.818 . S
Gd160 O180 2.377 . S
Gd160 O182 2.448 . S
Gd160 O183 2.506 . S
Gd160 O184 2.435 . S
Gd160 O185 2.717 . S
Gd160 O187 2.395 . S
Gd160 O191 2.327 . S
Gd161 C172 2.818 . S
Gd161 O181 2.395 . S
Gd161 O185 2.327 1_655 S
Gd161 O186 2.377 1_655 S
Gd161 O188 2.448 . S
Gd161 O189 2.506 . S
Gd161 O190 2.435 . S
Gd161 O191 2.717 1_655 S
C162 O180 1.240 1_655 S
C162 O181 1.240 . S
C163 Gd160 2.818 . S
C163 C164 1.510 1_556 S
C163 O182 1.249 . S
C163 O183 1.252 . S
C164 C163 1.510 1_554 S
C164 C165 1.404 . S
C164 C166 1.352 . S
C165 C164 1.404 . S
C165 C169 1.389 . S
C165 H192 0.930 . S
C166 C164 1.352 . S
C166 C168 1.374 . S
C166 H193 0.931 . S
C167 C168 1.359 . S
C167 C169 1.364 . S
C168 C166 1.374 . S
C168 C167 1.359 . S
C168 H194 0.931 . S
C169 C165 1.389 . S
C169 C167 1.364 . S
C169 H195 0.931 . S
C170 O184 1.256 . S
C170 O185 1.257 . S
C171 O186 1.240 . S
C171 O187 1.240 . S
C172 Gd161 2.818 . S
C172 C173 1.510 . S
C172 O188 1.249 . S
C172 O189 1.252 . S
C173 C172 1.510 . S
C173 C174 1.404 . S
C173 C175 1.352 . S
C174 C173 1.404 . S
C174 C178 1.389 . S
C174 H196 0.930 . S
C175 C173 1.352 . S
C175 C177 1.374 . S
C175 H197 0.931 . S
C176 C177 1.359 . S
C176 C178 1.364 . S
C177 C175 1.374 . S
C177 C176 1.359 . S
C177 H198 0.931 . S
C178 C174 1.389 . S
C178 C176 1.364 . S
C178 H199 0.931 . S
C179 O190 1.256 1_455 S
C179 O191 1.257 . S
O180 Gd160 2.377 . S
O180 C162 1.240 1_455 S
O181 Gd161 2.395 . S
O181 C162 1.240 . S
O182 Gd160 2.448 . S
O182 C163 1.249 . S
O183 Gd160 2.506 . S
O183 C163 1.252 . S
O184 Gd160 2.435 . S
O184 C170 1.256 . S
O185 Gd160 2.717 . S
O185 Gd161 2.327 1_455 S
O185 C170 1.257 . S
O186 Gd161 2.377 1_455 S
O186 C171 1.240 . S
O187 Gd160 2.395 . S
O187 C171 1.240 . S
O188 Gd161 2.448 . S
O188 C172 1.249 . S
O189 Gd161 2.506 . S
O189 C172 1.252 . S
O190 Gd161 2.435 . S
O190 C179 1.256 1_655 S
O191 Gd160 2.327 . S
O191 Gd161 2.717 1_455 S
O191 C179 1.257 . S
H192 C165 0.930 . S
H193 C166 0.931 . S
H194 C168 0.931 . S
H195 C169 0.931 . S
H196 C174 0.930 . S
H197 C175 0.931 . S
H198 C177 0.931 . S
H199 C178 0.931 . S
Gd200 C203 2.818 . S
Gd200 O220 2.377 . S
Gd200 O222 2.448 . S
Gd200 O223 2.506 . S
Gd200 O224 2.435 . S
Gd200 O225 2.717 . S
Gd200 O227 2.395 . S
Gd200 O231 2.327 . S
Gd201 C212 2.818 1_554 S
Gd201 O221 2.395 . S
Gd201 O225 2.327 . S
Gd201 O226 2.377 . S
Gd201 O228 2.448 . S
Gd201 O229 2.506 1_554 S
Gd201 O230 2.435 . S
Gd201 O231 2.717 . S
C202 O220 1.240 . S
C202 O221 1.240 . S
C203 Gd200 2.818 . S
C203 C204 1.510 . S
C203 O222 1.249 . S
C203 O223 1.252 . S
C204 C203 1.510 . S
C204 C205 1.404 . S
C204 C206 1.352 . S
C205 C204 1.404 . S
C205 C209 1.389 . S
C205 H232 0.930 . S
C206 C204 1.352 . S
C206 C208 1.374 . S
C206 H233 0.931 . S
C207 C208 1.359 . S
C207 C209 1.364 . S
C208 C206 1.374 . S
C208 C207 1.359 . S
C208 H234 0.931 . S
C209 C205 1.389 . S
C209 C207 1.364 . S
C209 H235 0.931 . S
C210 O224 1.256 . S
C210 O225 1.257 . S
C211 O226 1.240 . S
C211 O227 1.240 . S
C212 Gd201 2.818 1_556 S
C212 C213 1.510 . S
C212 O228 1.249 1_556 S
C212 O229 1.252 . S
C213 C212 1.510 . S
C213 C214 1.404 . S
C213 C215 1.352 . S
C214 C213 1.404 . S
C214 C218 1.389 . S
C214 H236 0.930 . S
C215 C213 1.352 . S
C215 C217 1.374 . S
C215 H237 0.931 . S
C216 C217 1.359 . S
C216 C218 1.364 . S
C217 C215 1.374 . S
C217 C216 1.359 . S
C217 H238 0.931 . S
C218 C214 1.389 . S
C218 C216 1.364 . S
C218 H239 0.931 . S
C219 O230 1.256 . S
C219 O231 1.257 . S
O220 Gd200 2.377 . S
O220 C202 1.240 . S
O221 Gd201 2.395 . S
O221 C202 1.240 . S
O222 Gd200 2.448 . S
O222 C203 1.249 . S
O223 Gd200 2.506 . S
O223 C203 1.252 . S
O224 Gd200 2.435 . S
O224 C210 1.256 . S
O225 Gd200 2.717 . S
O225 Gd201 2.327 . S
O225 C210 1.257 . S
O226 Gd201 2.377 . S
O226 C211 1.240 . S
O227 Gd200 2.395 . S
O227 C211 1.240 . S
O228 Gd201 2.448 . S
O228 C212 1.249 1_554 S
O229 Gd201 2.506 1_556 S
O229 C212 1.252 . S
O230 Gd201 2.435 . S
O230 C219 1.256 . S
O231 Gd200 2.327 . S
O231 Gd201 2.717 . S
O231 C219 1.257 . S
H232 C205 0.930 . S
H233 C206 0.931 . S
H234 C208 0.931 . S
H235 C209 0.931 . S
H236 C214 0.930 . S
H237 C215 0.931 . S
H238 C217 0.931 . S
H239 C218 0.931 . S
Gd240 C243 2.818 . S
Gd240 O260 2.377 . S
Gd240 O262 2.448 . S
Gd240 O263 2.506 . S
Gd240 O264 2.435 . S
Gd240 O265 2.717 . S
Gd240 O267 2.395 . S
Gd240 O271 2.327 . S
Gd241 C252 2.818 . S
Gd241 O261 2.395 . S
Gd241 O265 2.327 . S
Gd241 O266 2.377 . S
Gd241 O268 2.448 . S
Gd241 O269 2.506 . S
Gd241 O270 2.435 . S
Gd241 O271 2.717 . S
C242 O260 1.240 . S
C242 O261 1.240 . S
C243 Gd240 2.818 . S
C243 C244 1.510 . S
C243 O262 1.249 . S
C243 O263 1.252 . S
C244 C243 1.510 . S
C244 C245 1.404 . S
C244 C246 1.352 . S
C245 C244 1.404 . S
C245 C249 1.389 . S
C245 H272 0.951 . S
C246 C244 1.352 . S
C246 C248 1.374 . S
C246 H273 0.931 . S
C247 C248 1.359 . S
C247 C249 1.364 . S
C248 C246 1.374 . S
C248 C247 1.359 . S
C248 H274 0.931 . S
C249 C245 1.389 . S
C249 C247 1.364 . S
C249 H275 0.931 1_545 S
C250 O264 1.256 . S
C250 O265 1.257 . S
C251 O266 1.240 . S
C251 O267 1.240 . S
C252 Gd241 2.818 . S
C252 C253 1.510 . S
C252 O268 1.249 . S
C252 O269 1.252 . S
C253 C252 1.510 . S
C253 C254 1.404 . S
C253 C255 1.352 . S
C254 C253 1.404 . S
C254 C258 1.389 . S
C254 H276 0.930 . S
C255 C253 1.352 . S
C255 C257 1.374 . S
C255 H277 0.931 . S
C256 C257 1.359 . S
C256 C258 1.364 . S
C257 C255 1.374 . S
C257 C256 1.359 . S
C257 H278 0.931 . S
C258 C254 1.389 . S
C258 C256 1.364 . S
C258 H279 0.931 . S
C259 O270 1.256 . S
C259 O271 1.257 . S
O260 Gd240 2.377 . S
O260 C242 1.240 . S
O261 Gd241 2.395 . S
O261 C242 1.240 . S
O262 Gd240 2.448 . S
O262 C243 1.249 . S
O263 Gd240 2.506 . S
O263 C243 1.252 . S
O264 Gd240 2.435 . S
O264 C250 1.256 . S
O265 Gd240 2.717 . S
O265 Gd241 2.327 . S
O265 C250 1.257 . S
O266 Gd241 2.377 . S
O266 C251 1.240 . S
O267 Gd240 2.395 . S
O267 C251 1.240 . S
O268 Gd241 2.448 . S
O268 C252 1.249 . S
O269 Gd241 2.506 . S
O269 C252 1.252 . S
O270 Gd241 2.435 . S
O270 C259 1.256 . S
O271 Gd240 2.327 . S
O271 Gd241 2.717 . S
O271 C259 1.257 . S
H272 C245 0.951 . S
H273 C246 0.931 . S
H274 C248 0.931 . S
H275 C249 0.931 1_565 S
H276 C254 0.930 . S
H277 C255 0.931 . S
H278 C257 0.931 . S
H279 C258 0.931 . S
Gd280 C283 2.818 . S
Gd280 O300 2.377 . S
Gd280 O302 2.448 . S
Gd280 O303 2.506 . S
Gd280 O304 2.435 . S
Gd280 O305 2.717 . S
Gd280 O307 2.395 . S
Gd280 O311 2.327 . S
Gd281 C292 2.818 . S
Gd281 O301 2.395 . S
Gd281 O305 2.327 . S
Gd281 O306 2.377 . S
Gd281 O308 2.448 . S
Gd281 O309 2.506 . S
Gd281 O310 2.435 . S
Gd281 O311 2.717 . S
C282 O300 1.240 . S
C282 O301 1.240 . S
C283 Gd280 2.818 . S
C283 C284 1.510 . S
C283 O302 1.249 . S
C283 O303 1.252 . S
C284 C283 1.510 . S
C284 C285 1.404 . S
C284 C286 1.352 . S
C285 C284 1.404 . S
C285 C289 1.389 . S
C285 H312 0.930 . S
C286 C284 1.352 . S
C286 C288 1.374 . S
C286 H313 0.931 . S
C287 C288 1.359 . S
C287 C289 1.364 . S
C288 C286 1.374 . S
C288 C287 1.359 . S
C288 H314 0.931 . S
C289 C285 1.389 . S
C289 C287 1.364 . S
C289 H315 0.931 . S
C290 O304 1.256 . S
C290 O305 1.257 . S
C291 O306 1.240 . S
C291 O307 1.240 . S
C292 Gd281 2.818 . S
C292 C293 1.510 . S
C292 O308 1.249 . S
C292 O309 1.252 . S
C293 C292 1.510 . S
C293 C294 1.404 . S
C293 C295 1.352 . S
C294 C293 1.404 . S
C294 C298 1.389 . S
C294 H316 0.930 . S
C295 C293 1.352 . S
C295 C297 1.374 . S
C295 H317 0.931 . S
C296 C297 1.359 . S
C296 C298 1.364 . S
C297 C295 1.374 . S
C297 C296 1.359 . S
C297 H318 0.931 . S
C298 C294 1.389 . S
C298 C296 1.364 . S
C298 H319 0.931 . S
C299 O310 1.256 . S
C299 O311 1.257 . S
O300 Gd280 2.377 . S
O300 C282 1.240 . S
O301 Gd281 2.395 . S
O301 C282 1.240 . S
O302 Gd280 2.448 . S
O302 C283 1.249 . S
O303 Gd280 2.506 . S
O303 C283 1.252 . S
O304 Gd280 2.435 . S
O304 C290 1.256 . S
O305 Gd280 2.717 . S
O305 Gd281 2.327 . S
O305 C290 1.257 . S
O306 Gd281 2.377 . S
O306 C291 1.240 . S
O307 Gd280 2.395 . S
O307 C291 1.240 . S
O308 Gd281 2.448 . S
O308 C292 1.249 . S
O309 Gd281 2.506 . S
O309 C292 1.252 . S
O310 Gd281 2.435 . S
O310 C299 1.256 . S
O311 Gd280 2.327 . S
O311 Gd281 2.717 . S
O311 C299 1.257 . S
H312 C285 0.930 . S
H313 C286 0.931 . S
H314 C288 0.931 . S
H315 C289 0.931 . S
H316 C294 0.930 . S
H317 C295 0.931 . S
H318 C297 0.931 . S
H319 C298 0.931 . S
Gd320 C323 2.818 . S
Gd320 O340 2.377 . S
Gd320 O342 2.448 . S
Gd320 O343 2.506 . S
Gd320 O344 2.435 . S
Gd320 O345 2.717 . S
Gd320 O347 2.395 . S
Gd320 O351 2.327 . S
Gd321 C332 2.818 . S
Gd321 O341 2.395 . S
Gd321 O345 2.327 . S
Gd321 O346 2.377 . S
Gd321 O348 2.448 . S
Gd321 O349 2.506 . S
Gd321 O350 2.435 . S
Gd321 O351 2.717 . S
C322 O340 1.240 . S
C322 O341 1.240 . S
C323 Gd320 2.818 . S
C323 C324 1.510 . S
C323 O342 1.249 . S
C323 O343 1.252 . S
C324 C323 1.510 . S
C324 C325 1.404 . S
C324 C326 1.352 . S
C325 C324 1.404 . S
C325 C329 1.389 . S
C325 H352 0.930 . S
C326 C324 1.352 . S
C326 C328 1.374 . S
C326 H353 0.931 . S
C327 C328 1.359 . S
C327 C329 1.364 . S
C328 C326 1.374 . S
C328 C327 1.359 . S
C328 H354 0.931 . S
C329 C325 1.389 . S
C329 C327 1.364 . S
C329 H355 0.931 . S
C330 O344 1.256 . S
C330 O345 1.257 . S
C331 O346 1.240 . S
C331 O347 1.240 . S
C332 Gd321 2.818 . S
C332 C333 1.510 . S
C332 O348 1.249 . S
C332 O349 1.252 . S
C333 C332 1.510 . S
C333 C334 1.404 . S
C333 C335 1.352 . S
C334 C333 1.404 . S
C334 C338 1.389 . S
C334 H356 0.930 . S
C335 C333 1.352 . S
C335 C337 1.374 . S
C335 H357 0.931 . S
C336 C337 1.359 . S
C336 C338 1.364 . S
C337 C335 1.374 . S
C337 C336 1.359 . S
C337 H358 0.931 . S
C338 C334 1.389 . S
C338 C336 1.364 . S
C338 H359 0.931 . S
C339 O350 1.256 . S
C339 O351 1.257 . S
O340 Gd320 2.377 . S
O340 C322 1.240 . S
O341 Gd321 2.395 . S
O341 C322 1.240 . S
O342 Gd320 2.448 . S
O342 C323 1.249 . S
O343 Gd320 2.506 . S
O343 C323 1.252 . S
O344 Gd320 2.435 . S
O344 C330 1.256 . S
O345 Gd320 2.717 . S
O345 Gd321 2.327 . S
O345 C330 1.257 . S
O346 Gd321 2.377 . S
O346 C331 1.240 . S
O347 Gd320 2.395 . S
O347 C331 1.240 . S
O348 Gd321 2.448 . S
O348 C332 1.249 . S
O349 Gd321 2.506 . S
O349 C332 1.252 . S
O350 Gd321 2.435 . S
O350 C339 1.256 . S
O351 Gd320 2.327 . S
O351 Gd321 2.717 . S
O351 C339 1.257 . S
H352 C325 0.930 . S
H353 C326 0.931 . S
H354 C328 0.931 . S
H355 C329 0.931 . S
H356 C334 0.930 . S
H357 C335 0.931 . S
H358 C337 0.931 . S
H359 C338 0.931 . S
Gd360 C363 2.818 . S
Gd360 O380 2.377 . S
Gd360 O382 2.448 . S
Gd360 O383 2.506 . S
Gd360 O384 2.435 . S
Gd360 O385 2.717 . S
Gd360 O387 2.395 . S
Gd360 O391 2.327 . S
Gd361 C372 2.818 . S
Gd361 O381 2.395 . S
Gd361 O385 2.327 . S
Gd361 O386 2.377 . S
Gd361 O388 2.448 . S
Gd361 O389 2.506 . S
Gd361 O390 2.435 . S
Gd361 O391 2.717 . S
C362 O380 1.240 . S
C362 O381 1.240 . S
C363 Gd360 2.818 . S
C363 C364 1.510 . S
C363 O382 1.249 . S
C363 O383 1.252 . S
C364 C363 1.510 . S
C364 C365 1.404 . S
C364 C366 1.352 . S
C365 C364 1.404 . S
C365 C369 1.389 . S
C365 H392 0.930 . S
C366 C364 1.352 . S
C366 C368 1.374 . S
C366 H393 0.931 . S
C367 C368 1.359 . S
C367 C369 1.364 . S
C368 C366 1.374 . S
C368 C367 1.359 . S
C368 H394 0.931 . S
C369 C365 1.389 . S
C369 C367 1.364 . S
C369 H395 0.931 . S
C370 O384 1.256 . S
C370 O385 1.257 . S
C371 O386 1.240 . S
C371 O387 1.240 . S
C372 Gd361 2.818 . S
C372 C373 1.510 1_554 S
C372 O388 1.249 . S
C372 O389 1.252 . S
C373 C372 1.510 1_556 S
C373 C374 1.404 . S
C373 C375 1.352 . S
C374 C373 1.404 . S
C374 C378 1.389 . S
C374 H396 0.930 . S
C375 C373 1.352 . S
C375 C377 1.374 . S
C375 H397 0.931 . S
C376 C377 1.359 . S
C376 C378 1.364 . S
C377 C375 1.374 . S
C377 C376 1.359 . S
C377 H398 0.931 . S
C378 C374 1.389 . S
C378 C376 1.364 . S
C378 H399 0.931 . S
C379 O390 1.256 . S
C379 O391 1.257 . S
O380 Gd360 2.377 . S
O380 C362 1.240 . S
O381 Gd361 2.395 . S
O381 C362 1.240 . S
O382 Gd360 2.448 . S
O382 C363 1.249 . S
O383 Gd360 2.506 . S
O383 C363 1.252 . S
O384 Gd360 2.435 . S
O384 C370 1.256 . S
O385 Gd360 2.717 . S
O385 Gd361 2.327 . S
O385 C370 1.257 . S
O386 Gd361 2.377 . S
O386 C371 1.240 . S
O387 Gd360 2.395 . S
O387 C371 1.240 . S
O388 Gd361 2.448 . S
O388 C372 1.249 . S
O389 Gd361 2.506 . S
O389 C372 1.252 . S
O390 Gd361 2.435 . S
O390 C379 1.256 . S
O391 Gd360 2.327 . S
O391 Gd361 2.717 . S
O391 C379 1.257 . S
H392 C365 0.930 . S
H393 C366 0.931 . S
H394 C368 0.931 . S
H395 C369 0.931 . S
H396 C374 0.930 . S
H397 C375 0.931 . S
H398 C377 0.931 . S
H399 C378 0.931 . S
Gd400 C403 2.818 1_556 S
Gd400 O420 2.377 . S
Gd400 O422 2.448 . S
Gd400 O423 2.506 1_556 S
Gd400 O424 2.435 . S
Gd400 O425 2.717 . S
Gd400 O427 2.395 . S
Gd400 O431 2.327 . S
Gd401 C412 2.818 . S
Gd401 O421 2.395 . S
Gd401 O425 2.327 . S
Gd401 O426 2.377 . S
Gd401 O428 2.448 . S
Gd401 O429 2.506 . S
Gd401 O430 2.435 . S
Gd401 O431 2.717 . S
C402 O420 1.240 . S
C402 O421 1.240 . S
C403 Gd400 2.818 1_554 S
C403 C404 1.510 . S
C403 O422 1.249 1_554 S
C403 O423 1.252 . S
C404 C403 1.510 . S
C404 C405 1.404 . S
C404 C406 1.352 . S
C405 C404 1.404 . S
C405 C409 1.389 . S
C405 H432 0.930 . S
C406 C404 1.352 . S
C406 C408 1.374 . S
C406 H433 0.931 . S
C407 C408 1.359 . S
C407 C409 1.364 . S
C408 C406 1.374 . S
C408 C407 1.359 . S
C408 H434 0.931 . S
C409 C405 1.389 . S
C409 C407 1.364 . S
C409 H435 0.931 . S
C410 O424 1.256 . S
C410 O425 1.257 . S
C411 O426 1.240 . S
C411 O427 1.240 . S
C412 Gd401 2.818 . S
C412 C413 1.510 . S
C412 O428 1.249 . S
C412 O429 1.252 . S
C413 C412 1.510 . S
C413 C414 1.404 . S
C413 C415 1.352 . S
C414 C413 1.404 . S
C414 C418 1.389 . S
C414 H436 0.930 . S
C415 C413 1.352 . S
C415 C417 1.374 . S
C415 H437 0.931 . S
C416 C417 1.359 . S
C416 C418 1.364 . S
C417 C415 1.374 . S
C417 C416 1.359 . S
C417 H438 0.931 . S
C418 C414 1.389 . S
C418 C416 1.364 . S
C418 H439 0.931 . S
C419 O430 1.256 . S
C419 O431 1.257 . S
O420 Gd400 2.377 . S
O420 C402 1.240 . S
O421 Gd401 2.395 . S
O421 C402 1.240 . S
O422 Gd400 2.448 . S
O422 C403 1.249 1_556 S
O423 Gd400 2.506 1_554 S
O423 C403 1.252 . S
O424 Gd400 2.435 . S
O424 C410 1.256 . S
O425 Gd400 2.717 . S
O425 Gd401 2.327 . S
O425 C410 1.257 . S
O426 Gd401 2.377 . S
O426 C411 1.240 . S
O427 Gd400 2.395 . S
O427 C411 1.240 . S
O428 Gd401 2.448 . S
O428 C412 1.249 . S
O429 Gd401 2.506 . S
O429 C412 1.252 . S
O430 Gd401 2.435 . S
O430 C419 1.256 . S
O431 Gd400 2.327 . S
O431 Gd401 2.717 . S
O431 C419 1.257 . S
H432 C405 0.930 . S
H433 C406 0.931 . S
H434 C408 0.931 . S
H435 C409 0.931 . S
H436 C414 0.930 . S
H437 C415 0.931 . S
H438 C417 0.931 . S
H439 C418 0.931 . S
Gd440 C443 2.818 . S
Gd440 O460 2.377 . S
Gd440 O462 2.448 . S
Gd440 O463 2.506 . S
Gd440 O464 2.435 . S
Gd440 O465 2.717 . S
Gd440 O467 2.395 . S
Gd440 O471 2.327 . S
Gd441 C452 2.818 . S
Gd441 O461 2.395 . S
Gd441 O465 2.327 . S
Gd441 O466 2.377 . S
Gd441 O468 2.448 . S
Gd441 O469 2.506 . S
Gd441 O470 2.435 . S
Gd441 O471 2.717 . S
C442 O460 1.240 . S
C442 O461 1.240 . S
C443 Gd440 2.818 . S
C443 C444 1.510 . S
C443 O462 1.249 . S
C443 O463 1.252 . S
C444 C443 1.510 . S
C444 C445 1.404 . S
C444 C446 1.352 . S
C445 C444 1.404 . S
C445 C449 1.389 . S
C445 H472 0.930 . S
C446 C444 1.352 . S
C446 C448 1.374 . S
C446 H473 0.931 . S
C447 C448 1.359 . S
C447 C449 1.364 . S
C448 C446 1.374 . S
C448 C447 1.359 . S
C448 H474 0.931 . S
C449 C445 1.389 . S
C449 C447 1.364 . S
C449 H475 0.931 . S
C450 O464 1.256 . S
C450 O465 1.257 . S
C451 O466 1.240 . S
C451 O467 1.240 . S
C452 Gd441 2.818 . S
C452 C453 1.510 . S
C452 O468 1.249 . S
C452 O469 1.252 . S
C453 C452 1.510 . S
C453 C454 1.404 . S
C453 C455 1.352 . S
C454 C453 1.404 . S
C454 C458 1.389 . S
C454 H476 0.930 . S
C455 C453 1.352 . S
C455 C457 1.374 . S
C455 H477 0.931 . S
C456 C457 1.359 . S
C456 C458 1.364 . S
C457 C455 1.374 . S
C457 C456 1.359 . S
C457 H478 0.931 . S
C458 C454 1.389 . S
C458 C456 1.364 . S
C458 H479 0.931 . S
C459 O470 1.256 . S
C459 O471 1.257 . S
O460 Gd440 2.377 . S
O460 C442 1.240 . S
O461 Gd441 2.395 . S
O461 C442 1.240 . S
O462 Gd440 2.448 . S
O462 C443 1.249 . S
O463 Gd440 2.506 . S
O463 C443 1.252 . S
O464 Gd440 2.435 . S
O464 C450 1.256 . S
O465 Gd440 2.717 . S
O465 Gd441 2.327 . S
O465 C450 1.257 . S
O466 Gd441 2.377 . S
O466 C451 1.240 . S
O467 Gd440 2.395 . S
O467 C451 1.240 . S
O468 Gd441 2.448 . S
O468 C452 1.249 . S
O469 Gd441 2.506 . S
O469 C452 1.252 . S
O470 Gd441 2.435 . S
O470 C459 1.256 . S
O471 Gd440 2.327 . S
O471 Gd441 2.717 . S
O471 C459 1.257 . S
H472 C445 0.930 . S
H473 C446 0.931 . S
H474 C448 0.931 . S
H475 C449 0.931 . S
H476 C454 0.930 . S
H477 C455 0.931 . S
H478 C457 0.931 . S
H479 C458 0.931 . S
Gd480 C483 2.818 . S
Gd480 O500 2.377 . S
Gd480 O502 2.448 . S
Gd480 O503 2.506 . S
Gd480 O504 2.435 . S
Gd480 O505 2.717 . S
Gd480 O507 2.395 . S
Gd480 O511 2.327 . S
Gd481 C492 2.818 . S
Gd481 O501 2.395 . S
Gd481 O505 2.327 . S
Gd481 O506 2.377 . S
Gd481 O508 2.448 . S
Gd481 O509 2.506 . S
Gd481 O510 2.435 . S
Gd481 O511 2.717 . S
C482 O500 1.240 . S
C482 O501 1.240 . S
C483 Gd480 2.818 . S
C483 C484 1.510 . S
C483 O502 1.249 . S
C483 O503 1.252 . S
C484 C483 1.510 . S
C484 C485 1.404 . S
C484 C486 1.352 . S
C485 C484 1.404 . S
C485 C489 1.389 . S
C485 H512 0.930 . S
C486 C484 1.352 . S
C486 C488 1.374 . S
C486 H513 0.931 . S
C487 C488 1.359 . S
C487 C489 1.364 . S
C488 C486 1.374 . S
C488 C487 1.359 . S
C488 H514 0.931 . S
C489 C485 1.389 . S
C489 C487 1.364 . S
C489 H515 0.931 . S
C490 O504 1.256 . S
C490 O505 1.257 . S
C491 O506 1.240 . S
C491 O507 1.240 . S
C492 Gd481 2.818 . S
C492 C493 1.510 . S
C492 O508 1.249 . S
C492 O509 1.252 . S
C493 C492 1.510 . S
C493 C494 1.404 . S
C493 C495 1.352 . S
C494 C493 1.404 . S
C494 C498 1.389 . S
C494 H516 0.930 . S
C495 C493 1.352 . S
C495 C497 1.374 . S
C495 H517 0.931 . S
C496 C497 1.359 . S
C496 C498 1.364 . S
C497 C495 1.374 . S
C497 C496 1.359 . S
C497 H518 0.931 . S
C498 C494 1.389 . S
C498 C496 1.364 . S
C498 H519 0.931 . S
C499 O510 1.256 . S
C499 O511 1.257 . S
O500 Gd480 2.377 . S
O500 C482 1.240 . S
O501 Gd481 2.395 . S
O501 C482 1.240 . S
O502 Gd480 2.448 . S
O502 C483 1.249 . S
O503 Gd480 2.506 . S
O503 C483 1.252 . S
O504 Gd480 2.435 . S
O504 C490 1.256 . S
O505 Gd480 2.717 . S
O505 Gd481 2.327 . S
O505 C490 1.257 . S
O506 Gd481 2.377 . S
O506 C491 1.240 . S
O507 Gd480 2.395 . S
O507 C491 1.240 . S
O508 Gd481 2.448 . S
O508 C492 1.249 . S
O509 Gd481 2.506 . S
O509 C492 1.252 . S
O510 Gd481 2.435 . S
O510 C499 1.256 . S
O511 Gd480 2.327 . S
O511 Gd481 2.717 . S
O511 C499 1.257 . S
H512 C485 0.930 . S
H513 C486 0.931 . S
H514 C488 0.931 . S
H515 C489 0.931 . S
H516 C494 0.930 . S
H517 C495 0.931 . S
H518 C497 0.931 . S
H519 C498 0.931 . S
Gd520 C523 2.818 1_455 S
Gd520 O540 2.377 . S
Gd520 O542 2.448 1_455 S
Gd520 O543 2.506 1_455 S
Gd520 O544 2.435 . S
Gd520 O545 2.717 . S
Gd520 O547 2.395 1_455 S
Gd520 O551 2.327 . S
Gd521 C532 2.818 . S
Gd521 O541 2.395 . S
Gd521 O545 2.327 . S
Gd521 O546 2.377 . S
Gd521 O548 2.448 . S
Gd521 O549 2.506 . S
Gd521 O550 2.435 . S
Gd521 O551 2.717 . S
C522 O540 1.240 . S
C522 O541 1.240 . S
C523 Gd520 2.818 1_655 S
C523 C524 1.510 1_554 S
C523 O542 1.249 . S
C523 O543 1.252 . S
C524 C523 1.510 1_556 S
C524 C525 1.404 . S
C524 C526 1.352 . S
C525 C524 1.404 . S
C525 C529 1.389 . S
C525 H552 0.930 . S
C526 C524 1.352 . S
C526 C528 1.374 . S
C526 H553 0.931 . S
C527 C528 1.359 . S
C527 C529 1.364 . S
C528 C526 1.374 . S
C528 C527 1.359 . S
C528 H554 0.931 . S
C529 C525 1.389 . S
C529 C527 1.364 . S
C529 H555 0.931 . S
C530 O544 1.256 . S
C530 O545 1.257 . S
C531 O546 1.240 . S
C531 O547 1.240 1_455 S
C532 Gd521 2.818 . S
C532 C533 1.510 . S
C532 O548 1.249 . S
C532 O549 1.252 . S
C533 C532 1.510 . S
C533 C534 1.404 . S
C533 C535 1.352 . S
C534 C533 1.404 . S
C534 C538 1.389 . S
C534 H556 0.930 . S
C535 C533 1.352 . S
C535 C537 1.374 . S
C535 H557 0.931 . S
C536 C537 1.359 . S
C536 C538 1.364 . S
C537 C535 1.374 . S
C537 C536 1.359 . S
C537 H558 0.931 . S
C538 C534 1.389 . S
C538 C536 1.364 . S
C538 H559 0.931 . S
C539 O550 1.256 . S
C539 O551 1.257 . S
O540 Gd520 2.377 . S
O540 C522 1.240 . S
O541 Gd521 2.395 . S
O541 C522 1.240 . S
O542 Gd520 2.448 1_655 S
O542 C523 1.249 . S
O543 Gd520 2.506 1_655 S
O543 C523 1.252 . S
O544 Gd520 2.435 . S
O544 C530 1.256 . S
O545 Gd520 2.717 . S
O545 Gd521 2.327 . S
O545 C530 1.257 . S
O546 Gd521 2.377 . S
O546 C531 1.240 . S
O547 Gd520 2.395 1_655 S
O547 C531 1.240 1_655 S
O548 Gd521 2.448 . S
O548 C532 1.249 . S
O549 Gd521 2.506 . S
O549 C532 1.252 . S
O550 Gd521 2.435 . S
O550 C539 1.256 . S
O551 Gd520 2.327 . S
O551 Gd521 2.717 . S
O551 C539 1.257 . S
H552 C525 0.930 . S
H553 C526 0.931 . S
H554 C528 0.931 . S
H555 C529 0.931 . S
H556 C534 0.930 . S
H557 C535 0.931 . S
H558 C537 0.931 . S
H559 C538 0.931 . S
Gd560 C563 2.818 . S
Gd560 O580 2.377 . S
Gd560 O582 2.448 . S
Gd560 O583 2.506 . S
Gd560 O584 2.435 . S
Gd560 O585 2.717 . S
Gd560 O587 2.395 . S
Gd560 O591 2.327 . S
Gd561 C572 2.818 . S
Gd561 O581 2.395 . S
Gd561 O585 2.327 . S
Gd561 O586 2.377 . S
Gd561 O588 2.448 . S
Gd561 O589 2.506 . S
Gd561 O590 2.435 . S
Gd561 O591 2.717 . S
C562 O580 1.240 . S
C562 O581 1.240 . S
C563 Gd560 2.818 . S
C563 C564 1.510 . S
C563 O582 1.249 . S
C563 O583 1.252 . S
C564 C563 1.510 . S
C564 C565 1.404 . S
C564 C566 1.352 . S
C565 C564 1.404 . S
C565 C569 1.389 . S
C565 H592 0.930 . S
C566 C564 1.352 . S
C566 C568 1.374 . S
C566 H593 0.931 . S
C567 C568 1.359 . S
C567 C569 1.364 . S
C568 C566 1.374 . S
C568 C567 1.359 . S
C568 H594 0.931 . S
C569 C565 1.389 . S
C569 C567 1.364 . S
C569 H595 0.931 . S
C570 O584 1.256 . S
C570 O585 1.257 . S
C571 O586 1.240 . S
C571 O587 1.240 . S
C572 Gd561 2.818 . S
C572 C573 1.510 . S
C572 O588 1.249 . S
C572 O589 1.252 . S
C573 C572 1.510 . S
C573 C574 1.404 . S
C573 C575 1.352 . S
C574 C573 1.404 . S
C574 C578 1.389 . S
C574 H596 0.930 . S
C575 C573 1.352 . S
C575 C577 1.374 . S
C575 H597 0.931 . S
C576 C577 1.359 . S
C576 C578 1.364 . S
C577 C575 1.374 . S
C577 C576 1.359 . S
C577 H598 0.931 . S
C578 C574 1.389 . S
C578 C576 1.364 . S
C578 H599 0.931 . S
C579 O590 1.256 . S
C579 O591 1.257 . S
O580 Gd560 2.377 . S
O580 C562 1.240 . S
O581 Gd561 2.395 . S
O581 C562 1.240 . S
O582 Gd560 2.448 . S
O582 C563 1.249 . S
O583 Gd560 2.506 . S
O583 C563 1.252 . S
O584 Gd560 2.435 . S
O584 C570 1.256 . S
O585 Gd560 2.717 . S
O585 Gd561 2.327 . S
O585 C570 1.257 . S
O586 Gd561 2.377 . S
O586 C571 1.240 . S
O587 Gd560 2.395 . S
O587 C571 1.240 . S
O588 Gd561 2.448 . S
O588 C572 1.249 . S
O589 Gd561 2.506 . S
O589 C572 1.252 . S
O590 Gd561 2.435 . S
O590 C579 1.256 . S
O591 Gd560 2.327 . S
O591 Gd561 2.717 . S
O591 C579 1.257 . S
H592 C565 0.930 . S
H593 C566 0.931 . S
H594 C568 0.931 . S
H595 C569 0.931 . S
H596 C574 0.930 . S
H597 C575 0.931 . S
H598 C577 0.931 . S
H599 C578 0.931 . S
Gd600 C603 2.818 . S
Gd600 O620 2.377 1_655 S
Gd600 O622 2.448 . S
Gd600 O623 2.506 . S
Gd600 O624 2.435 . S
Gd600 O625 2.717 1_655 S
Gd600 O627 2.395 . S
Gd600 O631 2.327 . S
Gd601 C612 2.818 . S
Gd601 O621 2.395 . S
Gd601 O625 2.327 . S
Gd601 O626 2.377 1_455 S
Gd601 O628 2.448 . S
Gd601 O629 2.506 . S
Gd601 O630 2.435 . S
Gd601 O631 2.717 1_455 S
C602 O620 1.240 . S
C602 O621 1.240 . S
C603 Gd600 2.818 . S
C603 C604 1.510 . S
C603 O622 1.249 . S
C603 O623 1.252 . S
C604 C603 1.510 . S
C604 C605 1.404 . S
C604 C606 1.352 . S
C605 C604 1.404 . S
C605 C609 1.389 . S
C605 H632 0.930 . S
C606 C604 1.352 . S
C606 C608 1.374 . S
C606 H633 0.931 . S
C607 C608 1.359 . S
C607 C609 1.364 . S
C608 C606 1.374 . S
C608 C607 1.359 . S
C608 H634 0.931 . S
C609 C605 1.389 . S
C609 C607 1.364 . S
C609 H635 0.931 . S
C610 O624 1.256 . S
C610 O625 1.257 1_655 S
C611 O626 1.240 . S
C611 O627 1.240 . S
C612 Gd601 2.818 . S
C612 C613 1.510 1_556 S
C612 O628 1.249 . S
C612 O629 1.252 . S
C613 C612 1.510 1_554 S
C613 C614 1.404 . S
C613 C615 1.352 . S
C614 C613 1.404 . S
C614 C618 1.389 . S
C614 H636 0.930 . S
C615 C613 1.352 . S
C615 C617 1.374 . S
C615 H637 0.931 . S
C616 C617 1.359 . S
C616 C618 1.364 . S
C617 C615 1.374 . S
C617 C616 1.359 . S
C617 H638 0.931 . S
C618 C614 1.389 . S
C618 C616 1.364 . S
C618 H639 0.931 . S
C619 O630 1.256 . S
C619 O631 1.257 1_455 S
O620 Gd600 2.377 1_455 S
O620 C602 1.240 . S
O621 Gd601 2.395 . S
O621 C602 1.240 . S
O622 Gd600 2.448 . S
O622 C603 1.249 . S
O623 Gd600 2.506 . S
O623 C603 1.252 . S
O624 Gd600 2.435 . S
O624 C610 1.256 . S
O625 Gd600 2.717 1_455 S
O625 Gd601 2.327 . S
O625 C610 1.257 1_455 S
O626 Gd601 2.377 1_655 S
O626 C611 1.240 . S
O627 Gd600 2.395 . S
O627 C611 1.240 . S
O628 Gd601 2.448 . S
O628 C612 1.249 . S
O629 Gd601 2.506 . S
O629 C612 1.252 . S
O630 Gd601 2.435 . S
O630 C619 1.256 . S
O631 Gd600 2.327 . S
O631 Gd601 2.717 1_655 S
O631 C619 1.257 1_655 S
H632 C605 0.930 . S
H633 C606 0.931 . S
H634 C608 0.931 . S
H635 C609 0.931 . S
H636 C614 0.930 . S
H637 C615 0.931 . S
H638 C617 0.931 . S
H639 C618 0.931 . S
C640 C641 1.369 1_556 S
C640 C642 1.419 . S
C640 H644 0.930 . S
C641 C640 1.369 1_554 S
C641 C650 1.429 . S
C642 C640 1.419 . S
C642 C643 1.363 . S
C642 H645 0.929 . S
C643 C642 1.363 . S
C643 C649 1.428 . S
H644 C640 0.930 . S
H645 C642 0.929 . S
S646 N647 1.613 . S
S646 N648 1.610 1_554 S
N647 S646 1.613 . S
N647 C650 1.350 . S
N648 S646 1.610 1_556 S
N648 C649 1.351 . S
C649 C643 1.428 . S
C649 N648 1.351 . S
C649 C650 1.434 1_556 S
C650 C641 1.429 . S
C650 N647 1.350 . S
C650 C649 1.434 1_554 S
C651 C652 1.369 . S
C651 C653 1.419 . S
C651 H655 0.930 . S
C652 C651 1.369 . S
C652 C661 1.429 . S
C653 C651 1.419 . S
C653 C654 1.363 . S
C653 H656 0.929 . S
C654 C653 1.363 . S
C654 C660 1.428 . S
H655 C651 0.930 . S
H656 C653 0.929 . S
S657 N658 1.613 . S
S657 N659 1.610 . S
N658 S657 1.613 . S
N658 C661 1.350 . S
N659 S657 1.610 . S
N659 C660 1.351 . S
C660 C654 1.428 . S
C660 N659 1.351 . S
C660 C661 1.434 . S
C661 C652 1.429 . S
C661 N658 1.350 . S
C661 C660 1.434 . S
C662 C663 1.369 . S
C662 C664 1.419 . S
C662 H666 0.930 . S
C663 C662 1.369 . S
C663 C672 1.429 . S
C664 C662 1.419 . S
C664 C665 1.363 . S
C664 H667 0.929 . S
C665 C664 1.363 . S
C665 C671 1.428 . S
H666 C662 0.930 . S
H667 C664 0.929 . S
S668 N669 1.613 . S
S668 N670 1.610 . S
N669 S668 1.613 . S
N669 C672 1.350 . S
N670 S668 1.610 . S
N670 C671 1.351 . S
C671 C665 1.428 . S
C671 N670 1.351 . S
C671 C672 1.434 . S
C672 C663 1.429 . S
C672 N669 1.350 . S
C672 C671 1.434 . S
C673 C674 1.369 . S
C673 C675 1.419 . S
C673 H677 0.930 . S
C674 C673 1.369 . S
C674 C683 1.429 . S
C675 C673 1.419 . S
C675 C676 1.363 . S
C675 H678 0.929 . S
C676 C675 1.363 . S
C676 C682 1.428 . S
H677 C673 0.930 . S
H678 C675 0.929 . S
S679 N680 1.613 . S
S679 N681 1.610 . S
N680 S679 1.613 . S
N680 C683 1.350 . S
N681 S679 1.610 . S
N681 C682 1.351 . S
C682 C676 1.428 . S
C682 N681 1.351 . S
C682 C683 1.434 . S
C683 C674 1.429 . S
C683 N680 1.350 . S
C683 C682 1.434 . S
C684 C685 1.369 . S
C684 C686 1.419 . S
C684 H688 0.930 . S
C685 C684 1.369 . S
C685 C694 1.429 . S
C686 C684 1.419 . S
C686 C687 1.363 1_554 S
C686 H689 0.922 1_654 S
C687 C686 1.363 1_556 S
C687 C693 1.428 1_556 S
H688 C684 0.930 . S
H689 C686 0.922 1_456 S
S690 N691 1.613 . S
S690 N692 1.605 1_554 S
N691 S690 1.613 . S
N691 C694 1.350 . S
N692 S690 1.605 1_556 S
N692 C693 1.349 1_556 S
C693 C687 1.428 1_554 S
C693 N692 1.349 1_554 S
C693 C694 1.434 . S
C694 C685 1.429 . S
C694 N691 1.350 . S
C694 C693 1.434 . S
C695 C696 1.369 . S
C695 C697 1.419 . S
C695 H699 0.930 . S
C696 C695 1.369 . S
C696 C705 1.429 . S
C697 C695 1.419 . S
C697 C698 1.363 . S
C697 H700 0.929 . S
C698 C697 1.363 . S
C698 C704 1.428 . S
H699 C695 0.930 . S
H700 C697 0.929 . S
S701 N702 1.613 . S
S701 N703 1.610 . S
N702 S701 1.613 . S
N702 C705 1.350 . S
N703 S701 1.610 . S
N703 C704 1.351 . S
C704 C698 1.428 . S
C704 N703 1.351 . S
C704 C705 1.434 . S
C705 C696 1.429 . S
C705 N702 1.350 . S
C705 C704 1.434 . S
C706 C707 1.369 . S
C706 C708 1.419 . S
C706 H710 0.930 . S
C707 C706 1.369 . S
C707 C716 1.429 . S
C708 C706 1.419 . S
C708 C709 1.363 . S
C708 H711 0.929 . S
C709 C708 1.363 . S
C709 C715 1.428 . S
H710 C706 0.930 . S
H711 C708 0.929 . S
S712 N713 1.613 . S
S712 N714 1.610 . S
N713 S712 1.613 . S
N713 C716 1.350 . S
N714 S712 1.610 . S
N714 C715 1.351 . S
C715 C709 1.428 . S
C715 N714 1.351 . S
C715 C716 1.434 . S
C716 C707 1.429 . S
C716 N713 1.350 . S
C716 C715 1.434 . S
C717 C718 1.369 . S
C717 C719 1.419 . S
C717 H721 0.930 . S
C718 C717 1.369 . S
C718 C727 1.429 . S
C719 C717 1.419 . S
C719 C720 1.363 . S
C719 H722 0.929 . S
C720 C719 1.363 . S
C720 C726 1.428 . S
H721 C717 0.930 . S
H722 C719 0.929 . S
S723 N724 1.613 . S
S723 N725 1.610 . S
N724 S723 1.613 . S
N724 C727 1.350 . S
N725 S723 1.610 . S
N725 C726 1.351 . S
C726 C720 1.428 . S
C726 N725 1.351 . S
C726 C727 1.434 . S
C727 C718 1.429 . S
C727 N724 1.350 . S
C727 C726 1.434 . S
C728 C729 1.369 . S
C728 C730 1.419 . S
C728 H732 0.930 . S
C729 C728 1.369 . S
C729 C738 1.429 . S
C730 C728 1.419 . S
C730 C731 1.363 . S
C730 H733 0.929 . S
C731 C730 1.363 . S
C731 C737 1.428 . S
H732 C728 0.930 . S
H733 C730 0.929 . S
S734 N735 1.613 . S
S734 N736 1.610 . S
N735 S734 1.613 . S
N735 C738 1.350 . S
N736 S734 1.610 . S
N736 C737 1.351 . S
C737 C731 1.428 . S
C737 N736 1.351 . S
C737 C738 1.434 . S
C738 C729 1.429 . S
C738 N735 1.350 . S
C738 C737 1.434 . S
C739 C740 1.369 . S
C739 C741 1.419 . S
C739 H743 0.930 . S
C740 C739 1.369 . S
C740 C749 1.429 . S
C741 C739 1.419 . S
C741 C742 1.363 . S
C741 H744 0.929 . S
C742 C741 1.363 . S
C742 C748 1.428 . S
H743 C739 0.930 . S
H744 C741 0.929 . S
S745 N746 1.613 . S
S745 N747 1.610 . S
N746 S745 1.613 . S
N746 C749 1.350 . S
N747 S745 1.610 . S
N747 C748 1.351 . S
C748 C742 1.428 . S
C748 N747 1.351 . S
C748 C749 1.434 . S
C749 C740 1.429 . S
C749 N746 1.350 . S
C749 C748 1.434 . S
C750 C751 1.369 . S
C750 C752 1.419 . S
C750 H754 0.930 . S
C751 C750 1.369 . S
C751 C760 1.429 . S
C752 C750 1.419 . S
C752 C753 1.363 . S
C752 H755 0.929 . S
C753 C752 1.363 . S
C753 C759 1.428 . S
H754 C750 0.930 . S
H755 C752 0.929 . S
S756 N757 1.613 . S
S756 N758 1.610 . S
N757 S756 1.613 . S
N757 C760 1.350 . S
N758 S756 1.610 . S
N758 C759 1.351 . S
C759 C753 1.428 . S
C759 N758 1.351 . S
C759 C760 1.434 . S
C760 C751 1.429 . S
C760 N757 1.350 . S
C760 C759 1.434 . S
C761 C762 1.369 . S
C761 C763 1.419 . S
C761 H765 0.930 . S
C762 C761 1.369 . S
C762 C771 1.429 . S
C763 C761 1.419 . S
C763 C764 1.363 . S
C763 H766 0.929 . S
C764 C763 1.363 . S
C764 C770 1.428 . S
H765 C761 0.930 . S
H766 C763 0.929 . S
S767 N768 1.613 1_455 S
S767 N769 1.612 . S
N768 S767 1.613 1_655 S
N768 C771 1.350 . S
N769 S767 1.612 . S
N769 C770 1.348 1_455 S
C770 C764 1.428 . S
C770 N769 1.348 1_655 S
C770 C771 1.434 . S
C771 C762 1.429 . S
C771 N768 1.350 . S
C771 C770 1.434 . S
C772 C773 1.369 . S
C772 C774 1.419 . S
C772 H776 0.930 . S
C773 C772 1.369 . S
C773 C782 1.429 . S
C774 C772 1.419 . S
C774 C775 1.363 . S
C774 H777 0.929 . S
C775 C774 1.363 . S
C775 C781 1.428 . S
H776 C772 0.930 . S
H777 C774 0.929 . S
S778 N779 1.613 . S
S778 N780 1.610 . S
N779 S778 1.613 . S
N779 C782 1.350 . S
N780 S778 1.610 . S
N780 C781 1.351 . S
C781 C775 1.428 . S
C781 N780 1.351 . S
C781 C782 1.434 . S
C782 C773 1.429 . S
C782 N779 1.350 . S
C782 C781 1.434 . S
C783 C784 1.369 . S
C783 C785 1.419 . S
C783 H787 0.930 . S
C784 C783 1.369 . S
C784 C793 1.429 . S
C785 C783 1.419 . S
C785 C786 1.363 . S
C785 H788 0.929 . S
C786 C785 1.363 . S
C786 C792 1.428 . S
H787 C783 0.930 . S
H788 C785 0.929 . S
S789 N790 1.613 . S
S789 N791 1.610 . S
N790 S789 1.613 . S
N790 C793 1.350 . S
N791 S789 1.610 . S
N791 C792 1.351 . S
C792 C786 1.428 . S
C792 N791 1.351 . S
C792 C793 1.434 . S
C793 C784 1.429 . S
C793 N790 1.350 . S
C793 C792 1.434 . S
C794 C795 1.369 . S
C794 C796 1.419 . S
C794 H798 0.930 . S
C795 C794 1.369 . S
C795 C804 1.429 . S
C796 C794 1.419 . S
C796 C797 1.363 . S
C796 H799 0.929 . S
C797 C796 1.363 . S
C797 C803 1.428 . S
H798 C794 0.930 . S
H799 C796 0.929 . S
S800 N801 1.613 . S
S800 N802 1.610 . S
N801 S800 1.613 . S
N801 C804 1.350 . S
N802 S800 1.610 . S
N802 C803 1.351 . S
C803 C797 1.428 . S
C803 N802 1.351 . S
C803 C804 1.434 . S
C804 C795 1.429 . S
C804 N801 1.350 . S
C804 C803 1.434 . S
C805 C806 1.369 . S
C805 C807 1.419 . S
C805 H809 0.930 . S
C806 C805 1.369 . S
C806 C815 1.429 . S
C807 C805 1.419 . S
C807 C808 1.363 . S
C807 H810 0.929 . S
C808 C807 1.363 . S
C808 C814 1.428 . S
H809 C805 0.930 . S
H810 C807 0.929 . S
S811 N812 1.613 . S
S811 N813 1.610 . S
N812 S811 1.613 . S
N812 C815 1.350 . S
N813 S811 1.610 . S
N813 C814 1.351 . S
C814 C808 1.428 . S
C814 N813 1.351 . S
C814 C815 1.434 . S
C815 C806 1.429 . S
C815 N812 1.350 . S
C815 C814 1.434 . S
C816 C817 1.369 . S
C816 C818 1.419 . S
C816 H820 0.930 . S
C817 C816 1.369 . S
C817 C826 1.429 . S
C818 C816 1.419 . S
C818 C819 1.363 . S
C818 H821 0.929 . S
C819 C818 1.363 . S
C819 C825 1.428 . S
H820 C816 0.930 . S
H821 C818 0.929 . S
S822 N823 1.613 . S
S822 N824 1.610 . S
N823 S822 1.613 . S
N823 C826 1.350 . S
N824 S822 1.610 . S
N824 C825 1.351 . S
C825 C819 1.428 . S
C825 N824 1.351 . S
C825 C826 1.434 . S
C826 C817 1.429 . S
C826 N823 1.350 . S
C826 C825 1.434 . S
C827 C828 1.369 1_455 S
C827 C829 1.419 . S
C827 H831 0.930 . S
C828 C827 1.369 1_655 S
C828 C837 1.429 . S
C829 C827 1.419 . S
C829 C830 1.363 . S
C829 H832 0.929 . S
C830 C829 1.363 . S
C830 C836 1.428 . S
H831 C827 0.930 . S
H832 C829 0.929 . S
S833 N834 1.613 . S
S833 N835 1.610 . S
N834 S833 1.613 . S
N834 C837 1.350 . S
N835 S833 1.610 . S
N835 C836 1.351 1_655 S
C836 C830 1.428 . S
C836 N835 1.351 1_455 S
C836 C837 1.434 1_455 S
C837 C828 1.429 . S
C837 N834 1.350 . S
C837 C836 1.434 1_655 S
C838 C839 1.369 . S
C838 C840 1.419 . S
C838 H842 0.930 . S
C839 C838 1.369 . S
C839 C848 1.429 . S
C840 C838 1.419 . S
C840 C841 1.363 . S
C840 H843 0.929 . S
C841 C840 1.363 . S
C841 C847 1.428 . S
H842 C838 0.930 . S
H843 C840 0.929 . S
S844 N845 1.613 . S
S844 N846 1.610 . S
N845 S844 1.613 . S
N845 C848 1.350 . S
N846 S844 1.610 . S
N846 C847 1.351 . S
C847 C841 1.428 . S
C847 N846 1.351 . S
C847 C848 1.434 . S
C848 C839 1.429 . S
C848 N845 1.350 . S
C848 C847 1.434 . S
C849 C850 1.369 . S
C849 C851 1.419 . S
C849 H853 0.930 . S
C850 C849 1.369 . S
C850 C859 1.429 . S
C851 C849 1.419 . S
C851 C852 1.363 . S
C851 H854 0.929 . S
C852 C851 1.363 . S
C852 C858 1.428 . S
H853 C849 0.930 . S
H854 C851 0.929 . S
S855 N856 1.613 . S
S855 N857 1.610 . S
N856 S855 1.613 . S
N856 C859 1.350 . S
N857 S855 1.610 . S
N857 C858 1.351 . S
C858 C852 1.428 . S
C858 N857 1.351 . S
C858 C859 1.434 . S
C859 C850 1.429 . S
C859 N856 1.350 . S
C859 C858 1.434 . S
C860 C861 1.369 1_655 S
C860 C862 1.419 . S
C860 H864 0.930 . S
C861 C860 1.369 1_455 S
C861 C870 1.429 . S
C862 C860 1.419 . S
C862 C863 1.363 . S
C862 H865 0.929 . S
C863 C862 1.363 . S
C863 C869 1.428 1_655 S
H864 C860 0.930 . S
H865 C862 0.929 . S
S866 N867 1.613 . S
S866 N868 1.610 . S
N867 S866 1.613 . S
N867 C870 1.350 . S
N868 S866 1.610 . S
N868 C869 1.351 . S
C869 C863 1.428 1_455 S
C869 N868 1.351 . S
C869 C870 1.434 . S
C870 C861 1.429 . S
C870 N867 1.350 . S
C870 C869 1.434 . S
C871 C872 1.369 . S
C871 C873 1.419 . S
C871 H875 0.930 . S
C872 C871 1.369 . S
C872 C881 1.429 . S
C873 C871 1.419 . S
C873 C874 1.363 . S
C873 H876 0.929 . S
C874 C873 1.363 . S
C874 C880 1.428 . S
H875 C871 0.930 . S
H876 C873 0.929 . S
S877 N878 1.613 . S
S877 N879 1.610 . S
N878 S877 1.613 . S
N878 C881 1.350 . S
N879 S877 1.610 . S
N879 C880 1.351 . S
C880 C874 1.428 . S
C880 N879 1.351 . S
C880 C881 1.434 . S
C881 C872 1.429 . S
C881 N878 1.350 . S
C881 C880 1.434 . S
C882 C883 1.369 . S
C882 C884 1.419 . S
C882 H886 0.930 . S
C883 C882 1.369 . S
C883 C892 1.429 . S
C884 C882 1.419 . S
C884 C885 1.363 . S
C884 H887 0.929 . S
C885 C884 1.363 . S
C885 C891 1.428 . S
H886 C882 0.930 . S
H887 C884 0.929 . S
S888 N889 1.613 . S
S888 N890 1.610 . S
N889 S888 1.613 . S
N889 C892 1.350 . S
N890 S888 1.610 . S
N890 C891 1.351 . S
C891 C885 1.428 . S
C891 N890 1.351 . S
C891 C892 1.434 . S
C892 C883 1.429 . S
C892 N889 1.350 . S
C892 C891 1.434 . S
C893 C894 1.369 . S
C893 C895 1.419 . S
C893 H897 0.930 . S
C894 C893 1.369 . S
C894 C903 1.429 . S
C895 C893 1.419 . S
C895 C896 1.363 . S
C895 H898 0.929 . S
C896 C895 1.363 . S
C896 C902 1.428 . S
H897 C893 0.930 . S
H898 C895 0.929 . S
S899 N900 1.613 . S
S899 N901 1.610 . S
N900 S899 1.613 . S
N900 C903 1.350 . S
N901 S899 1.610 . S
N901 C902 1.351 . S
C902 C896 1.428 . S
C902 N901 1.351 . S
C902 C903 1.434 . S
C903 C894 1.429 . S
C903 N900 1.350 . S
C903 C902 1.434 . S
C904 C905 1.369 1_565 S
C904 C906 1.419 1_554 S
C904 H908 0.930 1_455 S
C905 C904 1.369 1_545 S
C905 C914 1.429 . S
C906 C904 1.419 1_556 S
C906 C907 1.363 . S
C906 H909 0.929 1_455 S
C907 C906 1.363 . S
C907 C913 1.428 1_565 S
H908 C904 0.930 1_655 S
H909 C906 0.929 1_655 S
S910 N911 1.613 1_556 S
S910 N912 1.610 . S
N911 S910 1.613 1_554 S
N911 C914 1.350 . S
N912 S910 1.610 . S
N912 C913 1.351 . S
C913 C907 1.428 1_545 S
C913 N912 1.351 . S
C913 C914 1.434 1_556 S
C914 C905 1.429 . S
C914 N911 1.350 . S
C914 C913 1.434 1_554 S
C915 C916 1.369 . S
C915 C917 1.419 . S
C915 H919 0.930 . S
C916 C915 1.369 . S
C916 C925 1.429 . S
C917 C915 1.419 . S
C917 C918 1.363 . S
C917 H920 0.929 . S
C918 C917 1.363 . S
C918 C924 1.428 . S
H919 C915 0.930 . S
H920 C917 0.929 . S
S921 N922 1.613 . S
S921 N923 1.610 . S
N922 S921 1.613 . S
N922 C925 1.350 . S
N923 S921 1.610 . S
N923 C924 1.351 . S
C924 C918 1.428 . S
C924 N923 1.351 . S
C924 C925 1.434 . S
C925 C916 1.429 . S
C925 N922 1.350 . S
C925 C924 1.434 . S
C926 C927 1.355 1_545 S
C926 C928 1.419 . S
C926 H930 0.930 . S
C927 C926 1.355 1_565 S
C927 C936 1.445 . S
C928 C926 1.419 . S
C928 C929 1.371 . S
C928 H931 0.929 . S
C929 C928 1.371 . S
C929 C935 1.421 1_545 S
H930 C926 0.930 . S
H931 C928 0.929 . S
S932 N933 1.613 . S
S932 N934 1.610 . S
N933 S932 1.613 . S
N933 C936 1.350 . S
N934 S932 1.610 . S
N934 C935 1.351 . S
C935 C929 1.421 1_565 S
C935 N934 1.351 . S
C935 C936 1.434 . S
C936 C927 1.445 . S
C936 N933 1.350 . S
C936 C935 1.434 . S
C937 C938 1.369 . S
C937 C939 1.419 . S
C937 H941 0.930 . S
C938 C937 1.369 . S
C938 C947 1.429 . S
C939 C937 1.419 . S
C939 C940 1.363 . S
C939 H942 0.929 . S
C940 C939 1.363 . S
C940 C946 1.428 . S
H941 C937 0.930 . S
H942 C939 0.929 . S
S943 N944 1.613 . S
S943 N945 1.610 . S
N944 S943 1.613 . S
N944 C947 1.350 . S
N945 S943 1.610 . S
N945 C946 1.351 . S
C946 C940 1.428 . S
C946 N945 1.351 . S
C946 C947 1.434 . S
C947 C938 1.429 . S
C947 N944 1.350 . S
C947 C946 1.434 . S
C948 C949 1.369 . S
C948 C950 1.419 . S
C948 H952 0.930 . S
C949 C948 1.369 . S
C949 C958 1.429 . S
C950 C948 1.419 . S
C950 C951 1.363 . S
C950 H953 0.929 . S
C951 C950 1.363 . S
C951 C957 1.428 . S
H952 C948 0.930 . S
H953 C950 0.929 . S
S954 N955 1.613 . S
S954 N956 1.610 . S
N955 S954 1.613 . S
N955 C958 1.350 . S
N956 S954 1.610 . S
N956 C957 1.351 . S
C957 C951 1.428 . S
C957 N956 1.351 . S
C957 C958 1.434 . S
C958 C949 1.429 . S
C958 N955 1.350 . S
C958 C957 1.434 . S
C959 C960 1.369 . S
C959 C961 1.419 . S
C959 H963 0.930 . S
C960 C959 1.369 . S
C960 C969 1.429 . S
C961 C959 1.419 . S
C961 C962 1.363 . S
C961 H964 0.929 . S
C962 C961 1.363 . S
C962 C968 1.428 . S
H963 C959 0.930 . S
H964 C961 0.929 . S
S965 N966 1.613 . S
S965 N967 1.610 . S
N966 S965 1.613 . S
N966 C969 1.350 . S
N967 S965 1.610 . S
N967 C968 1.351 . S
C968 C962 1.428 . S
C968 N967 1.351 . S
C968 C969 1.434 . S
C969 C960 1.429 . S
C969 N966 1.350 . S
C969 C968 1.434 . S
C970 C971 1.369 . S
C970 C972 1.419 . S
C970 H974 0.930 . S
C971 C970 1.369 . S
C971 C980 1.429 . S
C972 C970 1.419 . S
C972 C973 1.363 . S
C972 H975 0.929 . S
C973 C972 1.363 . S
C973 C979 1.428 . S
H974 C970 0.930 . S
H975 C972 0.929 . S
S976 N977 1.613 . S
S976 N978 1.610 . S
N977 S976 1.613 . S
N977 C980 1.350 . S
N978 S976 1.610 . S
N978 C979 1.351 . S
C979 C973 1.428 . S
C979 N978 1.351 . S
C979 C980 1.434 . S
C980 C971 1.429 . S
C980 N977 1.350 . S
C980 C979 1.434 . S
C981 C982 1.363 1_654 S
C981 C983 1.426 1_655 S
C981 H985 0.928 . S
C982 C981 1.363 1_456 S
C982 C991 1.429 . S
C983 C981 1.426 1_455 S
C983 C984 1.363 . S
C983 H986 0.929 1_455 S
C984 C983 1.363 . S
C984 C990 1.428 1_554 S
H985 C981 0.928 . S
H986 C983 0.929 1_655 S
S987 N988 1.613 . S
S987 N989 1.610 . S
N988 S987 1.613 . S
N988 C991 1.350 . S
N989 S987 1.610 . S
N989 C990 1.351 . S
C990 C984 1.428 1_556 S
C990 N989 1.351 . S
C990 C991 1.434 . S
C991 C982 1.429 . S
C991 N988 1.350 . S
C991 C990 1.434 . S
C992 C993 1.369 . S
C992 C994 1.419 . S
C992 H996 0.930 . S
C993 C992 1.369 . S
C993 C1002 1.429 . S
C994 C992 1.419 . S
C994 C995 1.363 . S
C994 H997 0.929 . S
C995 C994 1.363 . S
C995 C1001 1.428 . S
H996 C992 0.930 . S
H997 C994 0.929 . S
S998 N999 1.613 . S
S998 N1000 1.610 . S
N999 S998 1.613 . S
N999 C1002 1.350 . S
N1000 S998 1.610 . S
N1000 C1001 1.351 . S
C1001 C995 1.428 . S
C1001 N1000 1.351 . S
C1001 C1002 1.434 . S
C1002 C993 1.429 . S
C1002 N999 1.350 . S
C1002 C1001 1.434 . S
C1003 C1004 1.369 . S
C1003 C1005 1.419 . S
C1003 H1007 0.930 . S
C1004 C1003 1.369 . S
C1004 C1013 1.429 . S
C1005 C1003 1.419 . S
C1005 C1006 1.363 . S
C1005 H1008 0.929 . S
C1006 C1005 1.363 . S
C1006 C1012 1.428 . S
H1007 C1003 0.930 . S
H1008 C1005 0.929 . S
S1009 N1010 1.613 1_545 S
S1009 N1011 1.610 1_545 S
N1010 S1009 1.613 1_565 S
N1010 C1013 1.350 . S
N1011 S1009 1.610 1_565 S
N1011 C1012 1.351 . S
C1012 C1006 1.428 . S
C1012 N1011 1.351 . S
C1012 C1013 1.434 . S
C1013 C1004 1.429 . S
C1013 N1010 1.350 . S
C1013 C1012 1.434 . S
C1014 C1015 1.369 . S
C1014 C1016 1.419 . S
C1014 H1018 0.930 . S
C1015 C1014 1.369 . S
C1015 C1024 1.429 . S
C1016 C1014 1.419 . S
C1016 C1017 1.363 . S
C1016 H1019 0.929 . S
C1017 C1016 1.363 . S
C1017 C1023 1.428 . S
H1018 C1014 0.930 . S
H1019 C1016 0.929 . S
S1020 N1021 1.613 . S
S1020 N1022 1.610 . S
N1021 S1020 1.613 . S
N1021 C1024 1.350 . S
N1022 S1020 1.610 . S
N1022 C1023 1.351 . S
C1023 C1017 1.428 . S
C1023 N1022 1.351 . S
C1023 C1024 1.434 . S
C1024 C1015 1.429 . S
C1024 N1021 1.350 . S
C1024 C1023 1.434 . S
C1025 C1026 1.369 . S
C1025 C1027 1.419 . S
C1025 H1029 0.930 . S
C1026 C1025 1.369 . S
C1026 C1035 1.429 . S
C1027 C1025 1.419 . S
C1027 C1028 1.363 . S
C1027 H1030 0.929 . S
C1028 C1027 1.363 . S
C1028 C1034 1.428 . S
H1029 C1025 0.930 . S
H1030 C1027 0.929 . S
S1031 N1032 1.613 . S
S1031 N1033 1.610 . S
N1032 S1031 1.613 . S
N1032 C1035 1.350 . S
N1033 S1031 1.610 . S
N1033 C1034 1.351 . S
C1034 C1028 1.428 . S
C1034 N1033 1.351 . S
C1034 C1035 1.434 . S
C1035 C1026 1.429 . S
C1035 N1032 1.350 . S
C1035 C1034 1.434 . S
C1036 C1037 1.369 . S
C1036 C1038 1.419 . S
C1036 H1040 0.930 . S
C1037 C1036 1.369 . S
C1037 C1046 1.429 . S
C1038 C1036 1.419 . S
C1038 C1039 1.363 . S
C1038 H1041 0.929 . S
C1039 C1038 1.363 . S
C1039 C1045 1.428 . S
H1040 C1036 0.930 . S
H1041 C1038 0.929 . S
S1042 N1043 1.613 . S
S1042 N1044 1.610 . S
N1043 S1042 1.613 . S
N1043 C1046 1.350 . S
N1044 S1042 1.610 . S
N1044 C1045 1.351 . S
C1045 C1039 1.428 . S
C1045 N1044 1.351 . S
C1045 C1046 1.434 . S
C1046 C1037 1.429 . S
C1046 N1043 1.350 . S
C1046 C1045 1.434 . S
C1047 C1048 1.369 . S
C1047 C1049 1.419 . S
C1047 H1051 0.930 . S
C1048 C1047 1.369 . S
C1048 C1057 1.429 . S
C1049 C1047 1.419 . S
C1049 C1050 1.363 . S
C1049 H1052 0.929 . S
C1050 C1049 1.363 . S
C1050 C1056 1.428 . S
H1051 C1047 0.930 . S
H1052 C1049 0.929 . S
S1053 N1054 1.613 . S
S1053 N1055 1.610 1_655 S
N1054 S1053 1.613 . S
N1054 C1057 1.350 . S
N1055 S1053 1.610 1_455 S
N1055 C1056 1.351 1_455 S
C1056 C1050 1.428 . S
C1056 N1055 1.351 1_655 S
C1056 C1057 1.434 . S
C1057 C1048 1.429 . S
C1057 N1054 1.350 . S
C1057 C1056 1.434 . S
C1058 C1059 1.369 . S
C1058 C1060 1.419 . S
C1058 H1062 0.930 . S
C1059 C1058 1.369 . S
C1059 C1068 1.429 . S
C1060 C1058 1.419 . S
C1060 C1061 1.363 . S
C1060 H1063 0.929 . S
C1061 C1060 1.363 . S
C1061 C1067 1.428 . S
H1062 C1058 0.930 . S
H1063 C1060 0.929 . S
S1064 N1065 1.613 . S
S1064 N1066 1.610 . S
N1065 S1064 1.613 . S
N1065 C1068 1.350 . S
N1066 S1064 1.610 . S
N1066 C1067 1.351 . S
C1067 C1061 1.428 . S
C1067 N1066 1.351 . S
C1067 C1068 1.434 . S
C1068 C1059 1.429 . S
C1068 N1065 1.350 . S
C1068 C1067 1.434 . S
C1069 C1070 1.369 . S
C1069 C1071 1.419 . S
C1069 H1073 0.930 . S
C1070 C1069 1.369 . S
C1070 C1079 1.429 . S
C1071 C1069 1.419 . S
C1071 C1072 1.363 . S
C1071 H1074 0.929 . S
C1072 C1071 1.363 . S
C1072 C1078 1.428 . S
H1073 C1069 0.930 . S
H1074 C1071 0.929 . S
S1075 N1076 1.613 . S
S1075 N1077 1.610 . S
N1076 S1075 1.613 . S
N1076 C1079 1.350 . S
N1077 S1075 1.610 . S
N1077 C1078 1.351 . S
C1078 C1072 1.428 . S
C1078 N1077 1.351 . S
C1078 C1079 1.434 . S
C1079 C1070 1.429 . S
C1079 N1076 1.350 . S
C1079 C1078 1.434 . S
C1080 C1081 1.369 . S
C1080 C1082 1.419 . S
C1080 H1084 0.930 . S
C1081 C1080 1.369 . S
C1081 C1090 1.429 . S
C1082 C1080 1.419 . S
C1082 C1083 1.351 1_556 S
C1082 H1085 0.929 . S
C1083 C1082 1.351 1_554 S
C1083 C1089 1.428 . S
H1084 C1080 0.930 . S
H1085 C1082 0.929 . S
S1086 N1087 1.613 1_554 S
S1086 N1088 1.610 . S
N1087 S1086 1.613 1_556 S
N1087 C1090 1.350 . S
N1088 S1086 1.610 . S
N1088 C1089 1.359 . S
C1089 C1083 1.428 . S
C1089 N1088 1.359 . S
C1089 C1090 1.421 1_554 S
C1090 C1081 1.429 . S
C1090 N1087 1.350 . S
C1090 C1089 1.421 1_556 S
C1091 C1092 1.369 . S
C1091 C1093 1.419 . S
C1091 H1095 0.930 . S
C1092 C1091 1.369 . S
C1092 C1101 1.429 . S
C1093 C1091 1.419 . S
C1093 C1094 1.363 . S
C1093 H1096 0.929 . S
C1094 C1093 1.363 . S
C1094 C1100 1.428 . S
H1095 C1091 0.930 . S
H1096 C1093 0.929 . S
S1097 N1098 1.613 . S
S1097 N1099 1.610 . S
N1098 S1097 1.613 . S
N1098 C1101 1.350 . S
N1099 S1097 1.610 . S
N1099 C1100 1.351 . S
C1100 C1094 1.428 . S
C1100 N1099 1.351 . S
C1100 C1101 1.434 . S
C1101 C1092 1.429 . S
C1101 N1098 1.350 . S
C1101 C1100 1.434 . S
C1102 C1103 1.369 . S
C1102 C1104 1.419 . S
C1102 H1106 0.930 . S
C1103 C1102 1.369 . S
C1103 C1112 1.429 . S
C1104 C1102 1.419 . S
C1104 C1105 1.363 . S
C1104 H1107 0.929 . S
C1105 C1104 1.363 . S
C1105 C1111 1.428 . S
H1106 C1102 0.930 . S
H1107 C1104 0.929 . S
S1108 N1109 1.613 . S
S1108 N1110 1.610 . S
N1109 S1108 1.613 . S
N1109 C1112 1.350 . S
N1110 S1108 1.610 . S
N1110 C1111 1.351 . S
C1111 C1105 1.428 . S
C1111 N1110 1.351 . S
C1111 C1112 1.434 . S
C1112 C1103 1.429 . S
C1112 N1109 1.350 . S
C1112 C1111 1.434 . S
C1113 C1114 1.369 . S
C1113 C1115 1.419 . S
C1113 H1117 0.930 . S
C1114 C1113 1.369 . S
C1114 C1123 1.429 . S
C1115 C1113 1.419 . S
C1115 C1116 1.363 . S
C1115 H1118 0.929 . S
C1116 C1115 1.363 . S
C1116 C1122 1.428 . S
H1117 C1113 0.930 . S
H1118 C1115 0.929 . S
S1119 N1120 1.613 . S
S1119 N1121 1.610 . S
N1120 S1119 1.613 . S
N1120 C1123 1.350 . S
N1121 S1119 1.610 . S
N1121 C1122 1.351 . S
C1122 C1116 1.428 . S
C1122 N1121 1.351 . S
C1122 C1123 1.434 . S
C1123 C1114 1.429 . S
C1123 N1120 1.350 . S
C1123 C1122 1.434 . S
C1124 C1125 1.369 . S
C1124 C1126 1.419 . S
C1124 H1128 0.930 . S
C1125 C1124 1.369 . S
C1125 C1134 1.429 . S
C1126 C1124 1.419 . S
C1126 C1127 1.348 1_554 S
C1126 H1129 0.929 . S
C1127 C1126 1.348 1_556 S
C1127 C1133 1.425 1_556 S
H1128 C1124 0.930 . S
H1129 C1126 0.929 . S
S1130 N1131 1.613 1_556 S
S1130 N1132 1.610 . S
N1131 S1130 1.613 1_554 S
N1131 C1134 1.350 . S
N1132 S1130 1.610 . S
N1132 C1133 1.332 1_556 S
C1133 C1127 1.425 1_554 S
C1133 N1132 1.332 1_554 S
C1133 C1134 1.458 . S
C1134 C1125 1.429 . S
C1134 N1131 1.350 . S
C1134 C1133 1.458 . S
C1135 C1136 1.369 . S
C1135 C1137 1.419 . S
C1135 H1139 0.930 . S
C1136 C1135 1.369 . S
C1136 C1145 1.429 . S
C1137 C1135 1.419 . S
C1137 C1138 1.363 . S
C1137 H1140 0.929 . S
C1138 C1137 1.363 . S
C1138 C1144 1.428 . S
H1139 C1135 0.930 . S
H1140 C1137 0.929 . S
S1141 N1142 1.613 . S
S1141 N1143 1.610 . S
N1142 S1141 1.613 . S
N1142 C1145 1.350 . S
N1143 S1141 1.610 . S
N1143 C1144 1.351 . S
C1144 C1138 1.428 . S
C1144 N1143 1.351 . S
C1144 C1145 1.434 . S
C1145 C1136 1.429 . S
C1145 N1142 1.350 . S
C1145 C1144 1.434 . S
C1146 C1147 1.369 . S
C1146 C1148 1.419 . S
C1146 H1150 0.930 . S
C1147 C1146 1.369 . S
C1147 C1156 1.429 . S
C1148 C1146 1.419 . S
C1148 C1149 1.363 . S
C1148 H1151 0.929 . S
C1149 C1148 1.363 . S
C1149 C1155 1.428 . S
H1150 C1146 0.930 . S
H1151 C1148 0.929 . S
S1152 N1153 1.613 . S
S1152 N1154 1.610 . S
N1153 S1152 1.613 . S
N1153 C1156 1.350 . S
N1154 S1152 1.610 . S
N1154 C1155 1.351 . S
C1155 C1149 1.428 . S
C1155 N1154 1.351 . S
C1155 C1156 1.434 . S
C1156 C1147 1.429 . S
C1156 N1153 1.350 . S
C1156 C1155 1.434 . S
C1157 C1158 1.369 . S
C1157 C1159 1.419 . S
C1157 H1161 0.930 . S
C1158 C1157 1.369 . S
C1158 C1167 1.429 . S
C1159 C1157 1.419 . S
C1159 C1160 1.363 . S
C1159 H1162 0.929 . S
C1160 C1159 1.363 . S
C1160 C1166 1.428 . S
H1161 C1157 0.930 . S
H1162 C1159 0.929 . S
S1163 N1164 1.613 . S
S1163 N1165 1.610 . S
N1164 S1163 1.613 . S
N1164 C1167 1.350 . S
N1165 S1163 1.610 . S
N1165 C1166 1.351 . S
C1166 C1160 1.428 . S
C1166 N1165 1.351 . S
C1166 C1167 1.434 . S
C1167 C1158 1.429 . S
C1167 N1164 1.350 . S
C1167 C1166 1.434 . S
C641 C11 0.335 . S
C643 C287 0.666 . S
C652 C51 2.108 . S
C654 C167 2.116 . S
C663 C207 1.328 . S
C665 C87 1.167 . S
C674 C131 2.991 . S
C676 C251 2.902 . S
C685 C456 0.641 . S
C687 C162 0.356 . S
C696 C322 2.111 . S
C698 C16 2.118 . S
C707 C416 1.344 . S
C709 C256 1.152 . S
C718 C82 2.902 . S
C720 C362 2.991 . S
C729 C367 0.642 . S
C731 C491 0.361 . S
C740 C411 2.106 . S
C742 C567 2.116 . S
C751 C527 1.167 . S
C753 C327 1.333 . S
C762 C451 2.989 . S
C764 C611 2.903 1_554 S
C773 C562 0.343 . S
C775 C136 0.653 . S
C784 C496 2.117 . S
C786 C202 2.107 . S
C795 C56 1.345 . S
C797 C616 1.153 . S
C806 C282 2.988 . S
C808 C522 2.904 1_556 S
C817 C530 0.927 . S
C819 C19 0.944 . S
C828 C459 1.615 . S
C830 C59 1.302 . S
C839 C499 0.954 . S
C841 C90 0.936 . S
C850 C419 1.299 . S
C852 C139 1.613 . S
C861 C170 0.942 . S
C863 C619 0.923 1_655 S
C872 C370 1.620 . S
C874 C210 1.293 . S
C883 C259 0.919 . S
C885 C570 0.941 . S
C894 C290 1.611 . S
C896 C330 1.302 1_455 S
C905 C10 1.946 . S
C907 C179 1.955 . S
C916 C50 2.358 . S
C918 C219 2.353 . S
C927 C250 2.017 1_565 S
C929 C99 2.021 1_545 S
C938 C130 1.613 . S
C940 C299 1.615 . S
C949 C410 2.356 . S
C951 C339 2.354 . S
C960 C450 1.619 . S
C962 C379 1.612 . S
C971 C490 1.956 . S
C973 C579 1.949 . S
C982 C610 2.029 1_455 S
C984 C539 2.022 . S
C993 C7 2.831 . S
C995 C291 2.912 . S
C1004 C47 1.058 . S
C1006 C171 1.149 . S
C1015 C211 3.681 1_556 S
C1017 C91 3.648 . S
C1026 C247 0.892 . S
C1028 C127 0.910 . S
C1037 C442 2.913 . S
C1039 C176 2.833 . S
C1048 C336 1.040 . S
C1050 C2 1.155 . S
C1059 C402 3.682 1_554 S
C1061 C242 3.647 . S
C1070 C96 0.893 . S
C1072 C376 0.909 . S
C1081 C487 2.830 . S
C1083 C371 2.928 . S
C1092 C571 1.146 . S
C1094 C407 1.058 . S
C1103 C531 3.649 1_655 S
C1105 C331 3.681 . S
C1114 C607 0.883 . S
C1116 C447 0.909 . S
C1125 C576 2.834 . S
C1127 C122 2.929 . S
C1136 C216 1.052 . S
C1138 C482 1.148 . S
C1147 C42 3.681 . S
C1149 C602 3.648 . S
C1158 C536 0.897 . S
C1160 C296 0.891 . S
