# Generated by pormake.
# Topology tfs, (6)-cn, num edge types: 1
# Building blocks:
#     Node 0, Type 0, BuildingBlock: MIDCAF_clean_sbu_0, # of connection points: 6
#     Node 1, Type 0, BuildingBlock: MIDCAF_clean_sbu_0, # of connection points: 6
#     Node 2, Type 0, BuildingBlock: MIDCAF_clean_sbu_0, # of connection points: 6
#     Node 3, Type 0, BuildingBlock: MIDCAF_clean_sbu_0, # of connection points: 6
#     Node 4, Type 0, BuildingBlock: MIDCAF_clean_sbu_0, # of connection points: 6
#     Node 5, Type 0, BuildingBlock: MIDCAF_clean_sbu_0, # of connection points: 6
#     Edge 6, Type (0, 0), BuildingBlock: XIVTED_clean_linker_0, # of connection points: 2
#     Edge 7, Type (0, 0), BuildingBlock: XIVTED_clean_linker_0, # of connection points: 2
#     Edge 8, Type (0, 0), BuildingBlock: XIVTED_clean_linker_0, # of connection points: 2
#     Edge 9, Type (0, 0), BuildingBlock: XIVTED_clean_linker_0, # of connection points: 2
#     Edge 10, Type (0, 0), BuildingBlock: XIVTED_clean_linker_0, # of connection points: 2
#     Edge 11, Type (0, 0), BuildingBlock: XIVTED_clean_linker_0, # of connection points: 2
#     Edge 12, Type (0, 0), BuildingBlock: XIVTED_clean_linker_0, # of connection points: 2
#     Edge 13, Type (0, 0), BuildingBlock: XIVTED_clean_linker_0, # of connection points: 2
#     Edge 14, Type (0, 0), BuildingBlock: XIVTED_clean_linker_0, # of connection points: 2
#     Edge 15, Type (0, 0), BuildingBlock: XIVTED_clean_linker_0, # of connection points: 2
#     Edge 16, Type (0, 0), BuildingBlock: XIVTED_clean_linker_0, # of connection points: 2
#     Edge 17, Type (0, 0), BuildingBlock: XIVTED_clean_linker_0, # of connection points: 2
#     Edge 18, Type (0, 0), BuildingBlock: XIVTED_clean_linker_0, # of connection points: 2
#     Edge 19, Type (0, 0), BuildingBlock: XIVTED_clean_linker_0, # of connection points: 2
#     Edge 20, Type (0, 0), BuildingBlock: XIVTED_clean_linker_0, # of connection points: 2
#     Edge 21, Type (0, 0), BuildingBlock: XIVTED_clean_linker_0, # of connection points: 2
#     Edge 22, Type (0, 0), BuildingBlock: XIVTED_clean_linker_0, # of connection points: 2
#     Edge 23, Type (0, 0), BuildingBlock: XIVTED_clean_linker_0, # of connection points: 2
# Relax obj value: 0.134
# Max RMSD: 0.124
# Mean RMSD: 0.124
data_MOF--net-tfs--node1-MIDCAF_clean_sbu_0--edge1-XIVTED_clean_linker_0
_symmetry_space_group_name_H-M    P1
_symmetry_Int_Tables_number       1
_symmetry_cell_setting            triclinic
loop_
_symmetry_equiv_pos_as_xyz
'x, y, z'
_cell_length_a     42.059551
_cell_length_b     42.262727
_cell_length_c     15.366651
_cell_angle_alpha  90.157649
_cell_angle_beta   89.99901
_cell_angle_gamma 120.22002
loop_
_atom_site_label
_atom_site_type_symbol
_atom_site_fract_x
_atom_site_fract_y
_atom_site_fract_z
_atom_type_partial_charge
Zn0 Zn 0.16101 0.41108 0.87239 0.0
Zn1 Zn 0.27367 0.43718 0.01859 0.0
Zn2 Zn 0.2148 0.41965 0.95179 0.0
C3 C 0.27341 0.39761 0.88276 0.0
C4 C 0.22286 0.39091 0.13953 0.0
O5 O 0.2191 0.47405 0.91833 0.0
O6 O 0.17204 0.45923 0.8308 0.0
C7 C 0.18432 0.37497 0.76924 0.0
O8 O 0.24008 0.39137 0.88261 0.0
O9 O 0.29749 0.42358 0.92786 0.0
O10 O 0.25634 0.40465 0.11992 0.0
O11 O 0.20105 0.39437 0.08611 0.0
O12 O 0.15567 0.37678 0.78109 0.0
O13 O 0.21075 0.38993 0.82544 0.0
O14 O 0.16799 0.38625 0.04028 0.0
O15 O 0.12541 0.39048 0.96565 0.0
C16 C 0.13466 0.37929 0.03144 0.0
O17 O 0.25075 0.48091 0.96281 0.0
O18 O 0.29645 0.48895 0.04826 0.0
C19 C 0.20039 0.48353 0.86886 0.0
C20 C 0.28027 0.50222 0.00627 0.0
Zn21 Zn 0.72006 0.14335 0.85032 0.0
Zn22 Zn 0.82892 0.26331 0.11892 0.0
Zn23 Zn 0.79588 0.21249 0.02834 0.0
C24 C 0.8797 0.2713 0.99907 0.0
C25 C 0.81553 0.20448 0.22341 0.0
O26 O 0.74511 0.21514 0.97395 0.0
O27 O 0.7027 0.17914 0.87154 0.0
C28 C 0.80444 0.19111 0.85968 0.0
O29 O 0.85327 0.23892 0.98032 0.0
O30 O 0.87371 0.29142 0.04915 0.0
O31 O 0.83562 0.23878 0.219 0.0
O32 O 0.79449 0.18673 0.15848 0.0
O33 O 0.77233 0.17492 0.89039 0.0
O34 O 0.82903 0.21329 0.91246 0.0
O35 O 0.77239 0.15854 0.09171 0.0
O36 O 0.74843 0.15495 0.96588 0.0
C37 C 0.74962 0.13844 0.03317 0.0
O38 O 0.77155 0.24837 0.02669 0.0
O39 O 0.79827 0.28538 0.13798 0.0
C40 C 0.71595 0.20585 0.92587 0.0
C41 C 0.7753 0.27457 0.07667 0.0
Zn42 Zn 0.58294 0.83971 0.12597 0.0
Zn43 Zn 0.56598 0.7421 0.93531 0.0
Zn44 Zn 0.57917 0.79308 0.02727 0.0
C45 C 0.6027 0.73342 0.06586 0.0
C46 C 0.61334 0.80019 0.83667 0.0
O47 O 0.52314 0.78353 0.06601 0.0
O48 O 0.53352 0.82115 0.17609 0.0
C49 C 0.62387 0.81615 0.20869 0.0
O50 O 0.60919 0.76623 0.0798 0.0
O51 O 0.57675 0.71267 0.01567 0.0
O52 O 0.60286 0.76666 0.84318 0.0
O53 O 0.60523 0.81617 0.89727 0.0
O54 O 0.62166 0.84476 0.20602 0.0
O55 O 0.60829 0.79167 0.14858 0.0
O56 O 0.61094 0.8455 0.95629 0.0
O57 O 0.59776 0.87922 0.0422 0.0
C58 C 0.61271 0.8761 0.97429 0.0
O59 O 0.51849 0.75476 0.01092 0.0
O60 O 0.51446 0.72047 0.89827 0.0
C61 C 0.51102 0.7963 0.12601 0.0
C62 C 0.49887 0.72955 0.95481 0.0
Zn63 Zn 0.73414 0.5673 0.13016 0.0
Zn64 Zn 0.84511 0.57829 0.98403 0.0
Zn65 Zn 0.79137 0.58181 0.04981 0.0
C66 C 0.87661 0.62447 0.12197 0.0
C67 C 0.82309 0.6159 0.86565 0.0
O68 O 0.74594 0.52072 0.05589 0.0
O69 O 0.70099 0.51442 0.14162 0.0
C70 C 0.79142 0.61121 0.24243 0.0
O71 O 0.8432 0.61817 0.12686 0.0
O72 O 0.88443 0.60674 0.06855 0.0
O73 O 0.84581 0.60515 0.87833 0.0
O74 O 0.79869 0.61007 0.92388 0.0
O75 O 0.75689 0.59531 0.23588 0.0
O76 O 0.81065 0.60899 0.17981 0.0
O77 O 0.77087 0.61298 0.97635 0.0
O78 O 0.71863 0.59223 0.04815 0.0
C79 C 0.74038 0.61244 0.98974 0.0
O80 O 0.77944 0.52429 0.02888 0.0
O81 O 0.82805 0.52604 0.96836 0.0
C82 C 0.71406 0.50013 0.09181 0.0
C83 C 0.79578 0.50778 0.99749 0.0
Zn84 Zn 0.14756 0.72337 0.03441 0.0
Zn85 Zn 0.26033 0.83583 0.97177 0.0
Zn86 Zn 0.204 0.78154 0.01126 0.0
C87 C 0.21762 0.86203 0.01233 0.0
C88 C 0.23156 0.7948 0.82192 0.0
O89 O 0.20051 0.73748 0.92271 0.0
O90 O 0.15438 0.68614 0.97446 0.0
C91 C 0.18904 0.74766 0.19128 0.0
O92 O 0.19479 0.82867 0.99062 0.0
O93 O 0.24949 0.87013 0.03639 0.0
O94 O 0.25104 0.82824 0.84244 0.0
O95 O 0.21447 0.77087 0.88139 0.0
O96 O 0.15642 0.72738 0.16429 0.0
O97 O 0.21431 0.76894 0.13817 0.0
O98 O 0.15636 0.79018 0.03701 0.0
O99 O 0.11286 0.73753 0.98557 0.0
C100 C 0.12242 0.76882 0.01592 0.0
O101 O 0.24857 0.78654 0.09994 0.0
O102 O 0.29615 0.82378 0.01944 0.0
C103 C 0.18181 0.70213 0.92501 0.0
C104 C 0.2831 0.80161 0.08181 0.0
Zn105 Zn 0.43429 0.28212 0.79903 0.0
Zn106 Zn 0.41766 0.15069 0.04606 0.0
Zn107 Zn 0.41149 0.19774 0.96646 0.0
C108 C 0.36885 0.10986 0.91967 0.0
C109 C 0.38212 0.17811 0.15704 0.0
O110 O 0.47041 0.24863 0.93363 0.0
O111 O 0.48516 0.29565 0.83907 0.0
C112 C 0.38877 0.19728 0.79325 0.0
O113 O 0.37431 0.14228 0.9039 0.0
O114 O 0.38805 0.10571 0.97655 0.0
O115 O 0.39277 0.15508 0.15106 0.0
O116 O 0.38657 0.19935 0.09255 0.0
O117 O 0.40766 0.22858 0.82695 0.0
O118 O 0.38152 0.17083 0.84442 0.0
O119 O 0.3822 0.22334 0.02558 0.0
O120 O 0.4098 0.25106 0.90808 0.0
C121 C 0.3886 0.24816 0.96982 0.0
O122 O 0.47052 0.21649 0.97414 0.0
O123 O 0.47164 0.1731 0.05139 0.0
C124 C 0.49429 0.27932 0.89544 0.0
C125 C 0.48856 0.20306 0.01113 0.0
H126 H 0.31787 0.22828 0.01948 0.0
H127 H 0.33448 0.40761 0.79879 0.0
H128 H 0.41638 0.31619 0.90542 0.0
H129 H 0.2343 0.32479 0.91798 0.0
H130 H 0.36133 0.36876 0.81908 0.0
H131 H 0.28459 0.26013 0.97743 0.0
C132 C 0.33264 0.25465 0.98765 0.0
C133 C 0.36992 0.26977 0.9662 0.0
C134 C 0.33316 0.35855 0.83922 0.0
C135 C 0.33203 0.30543 0.91509 0.0
C136 C 0.31758 0.38047 0.82575 0.0
C137 C 0.28216 0.36935 0.85649 0.0
C138 C 0.31338 0.32548 0.88521 0.0
C139 C 0.26162 0.33418 0.89252 0.0
C140 C 0.31355 0.27246 0.96223 0.0
C141 C 0.38762 0.30355 0.92307 0.0
N142 N 0.27783 0.31377 0.9079 0.0
N143 N 0.36855 0.32005 0.89869 0.0
H144 H 0.09942 0.39525 0.15606 0.0
H145 H 0.93674 0.33984 0.97338 0.0
H146 H 0.09807 0.30538 0.02084 0.0
H147 H 0.91097 0.22799 0.00391 0.0
H148 H 0.00032 0.36062 0.0137 0.0
H149 H 0.03237 0.36358 0.14696 0.0
C150 C 0.08485 0.3678 0.12912 0.0
C151 C 0.10421 0.35349 0.08613 0.0
C152 C 0.98079 0.33149 0.01148 0.0
C153 C 0.02818 0.31826 0.07062 0.0
C154 C 0.9448 0.31962 0.98599 0.0
C155 C 0.91856 0.28219 0.98585 0.0
C156 C 0.99073 0.30578 0.03709 0.0
C157 C 0.93047 0.25713 0.00287 0.0
C158 C 0.04669 0.35032 0.12111 0.0
C159 C 0.08397 0.31766 0.05295 0.0
N160 N 0.96583 0.26939 0.02871 0.0
N161 N 0.0469 0.30174 0.04226 0.0
H162 H 0.68026 0.09631 0.97769 0.0
H163 H 0.68687 0.91114 0.97958 0.0
H164 H 0.77265 0.09024 0.07828 0.0
H165 H 0.59572 0.92064 0.88521 0.0
H166 H 0.72333 0.97789 0.99391 0.0
H167 H 0.65113 0.03238 0.9341 0.0
C168 C 0.69391 0.08102 0.99281 0.0
C169 C 0.72855 0.09825 0.03288 0.0
C170 C 0.69577 0.9655 0.96732 0.0
C171 C 0.69605 0.02519 0.97992 0.0
C172 C 0.67531 0.92746 0.95674 0.0
C173 C 0.63826 0.91052 0.93139 0.0
C174 C 0.67888 0.98636 0.95172 0.0
C175 C 0.62427 0.93276 0.90468 0.0
C176 C 0.67758 0.04467 0.96652 0.0
C177 C 0.74549 0.07757 0.04939 0.0
N178 N 0.64427 0.9695 0.9175 0.0
N179 N 0.72911 0.042 0.02233 0.0
H180 H 0.78113 0.68619 0.0126 0.0
H181 H 0.58956 0.6657 0.10629 0.0
H182 H 0.6796 0.6009 0.90324 0.0
H183 H 0.67788 0.77519 0.05375 0.0
H184 H 0.62979 0.64203 0.06609 0.0
H185 H 0.75113 0.72222 0.0431 0.0
C186 C 0.75323 0.67603 0.99001 0.0
C187 C 0.73266 0.64037 0.95586 0.0
C188 C 0.64062 0.67133 0.06492 0.0
C189 C 0.69794 0.68017 0.9952 0.0
C190 C 0.61796 0.68492 0.08987 0.0
C191 C 0.63031 0.72242 0.08299 0.0
C192 C 0.67613 0.69537 0.03374 0.0
C193 C 0.66738 0.74608 0.0605 0.0
C194 C 0.73592 0.69621 0.00949 0.0
C195 C 0.69638 0.62821 0.92973 0.0
N196 N 0.68902 0.73212 0.03531 0.0
N197 N 0.6798 0.64745 0.95268 0.0
H198 H 0.06856 0.77411 0.92966 0.0
H199 H 0.93113 0.63154 0.23099 0.0
H200 H 0.10481 0.76565 0.1859 0.0
H201 H 0.89645 0.69379 0.07743 0.0
H202 H 0.99453 0.68303 0.22602 0.0
H203 H 0.006 0.74976 0.98608 0.0
C204 C 0.06375 0.76906 0.99883 0.0
C205 C 0.09212 0.77261 0.05343 0.0
C206 C 0.97287 0.68609 0.19637 0.0
C207 C 0.02004 0.74221 0.11733 0.0
C208 C 0.93656 0.65682 0.20024 0.0
C209 C 0.90834 0.65857 0.15581 0.0
C210 C 0.98126 0.7167 0.14456 0.0
C211 C 0.91725 0.69157 0.11401 0.0
C212 C 0.02789 0.75465 0.03091 0.0
C213 C 0.08393 0.76412 0.14198 0.0
N214 N 0.95306 0.71881 0.10675 0.0
N215 N 0.04847 0.74814 0.17056 0.0
H216 H 0.21307 0.91472 0.10543 0.0
H217 H 0.29812 0.09224 0.94683 0.0
H218 H 0.22249 0.88266 0.84506 0.0
H219 H 0.36364 0.05008 0.83708 0.0
H220 H 0.24544 0.02938 0.95473 0.0
H221 H 0.24015 0.9783 0.05616 0.0
C222 C 0.21877 0.92071 0.03681 0.0
C223 C 0.21473 0.8932 0.97889 0.0
C224 C 0.27098 0.03413 0.92594 0.0
C225 C 0.248 0.96618 0.92322 0.0
C226 C 0.30086 0.06998 0.92006 0.0
C227 C 0.33519 0.07637 0.89039 0.0
C228 C 0.27536 0.00463 0.90031 0.0
C229 C 0.33755 0.04636 0.85938 0.0
C230 C 0.23469 0.95711 0.00883 0.0
C231 C 0.2243 0.90289 0.89132 0.0
N232 N 0.30814 0.01178 0.86563 0.0
N233 N 0.24182 0.93872 0.86688 0.0
H234 H 0.24257 0.70174 0.9753 0.0
H235 H 0.18761 0.51472 0.72885 0.0
H236 H 0.15128 0.64977 0.79774 0.0
H237 H 0.23098 0.53889 0.99005 0.0
H238 H 0.19192 0.57467 0.72277 0.0
H239 H 0.25703 0.65323 0.947 0.0
C240 C 0.22685 0.68113 0.9268 0.0
C241 C 0.19642 0.68014 0.88695 0.0
C242 C 0.20138 0.56716 0.78046 0.0
C243 C 0.21174 0.62402 0.85664 0.0
C244 C 0.199 0.53306 0.7841 0.0
C245 C 0.20954 0.52205 0.85971 0.0
C246 C 0.21459 0.59056 0.85276 0.0
C247 C 0.22377 0.54675 0.92957 0.0
C248 C 0.23461 0.65311 0.91202 0.0
C249 C 0.17537 0.65169 0.82845 0.0
N250 N 0.22575 0.57985 0.9246 0.0
N251 N 0.18332 0.62456 0.81522 0.0
H252 H 0.53689 0.21452 0.14054 0.0
H253 H 0.68669 0.23072 0.80459 0.0
H254 H 0.53103 0.2297 0.86514 0.0
H255 H 0.69225 0.21742 0.08101 0.0
H256 H 0.63774 0.24507 0.82861 0.0
H257 H 0.60103 0.23048 0.12398 0.0
C258 C 0.54952 0.22206 0.0768 0.0
C259 C 0.52882 0.22066 0.00399 0.0
C260 C 0.65025 0.23995 0.88429 0.0
C261 C 0.60177 0.23785 0.98379 0.0
C262 C 0.67822 0.23186 0.87057 0.0
C263 C 0.69352 0.2231 0.94103 0.0
C264 C 0.63693 0.23836 0.96897 0.0
C265 C 0.68141 0.22447 0.02511 0.0
C266 C 0.5861 0.23112 0.06725 0.0
C267 C 0.54625 0.23061 0.92284 0.0
N268 N 0.65347 0.23142 0.03667 0.0
N269 N 0.58161 0.23816 0.91457 0.0
H270 H 0.44885 0.70062 0.82328 0.0
H271 H 0.30729 0.55038 0.14024 0.0
H272 H 0.45779 0.70701 0.10296 0.0
H273 H 0.29572 0.54449 0.86122 0.0
H274 H 0.35231 0.61559 0.12922 0.0
H275 H 0.38445 0.6524 0.83653 0.0
C276 C 0.43688 0.69244 0.88752 0.0
C277 C 0.45856 0.70748 0.96218 0.0
C278 C 0.33933 0.60041 0.07038 0.0
C279 C 0.38533 0.65185 0.978 0.0
C280 C 0.31355 0.56323 0.07676 0.0
C281 C 0.29822 0.54226 0.00143 0.0
C282 C 0.35063 0.61636 0.98778 0.0
C283 C 0.30709 0.55991 0.92071 0.0
C284 C 0.40014 0.66494 0.8951 0.0
C285 C 0.44191 0.69608 0.04384 0.0
N286 N 0.33341 0.59589 0.91578 0.0
N287 N 0.40642 0.66846 0.04959 0.0
H288 H 0.79374 0.46354 0.86656 0.0
H289 H 0.74661 0.30274 0.19048 0.0
H290 H 0.75826 0.46133 0.13062 0.0
H291 H 0.76725 0.29799 0.91749 0.0
H292 H 0.73664 0.35391 0.16203 0.0
H293 H 0.77199 0.39797 0.87539 0.0
C294 C 0.78073 0.44895 0.92591 0.0
C295 C 0.77778 0.46762 0.99807 0.0
C296 C 0.7424 0.34118 0.1078 0.0
C297 C 0.75347 0.39295 0.00949 0.0
C298 C 0.74794 0.31188 0.12405 0.0
C299 C 0.75816 0.29659 0.05631 0.0
C300 C 0.74825 0.3559 0.02356 0.0
C301 C 0.7595 0.30921 0.97144 0.0
C302 C 0.76817 0.41154 0.93088 0.0
C303 C 0.76077 0.44773 0.07345 0.0
N304 N 0.7555 0.33878 0.95769 0.0
N305 N 0.74973 0.41152 0.07768 0.0
H306 H 0.32367 0.8182 0.23326 0.0
H307 H 0.46083 0.77305 0.99404 0.0
H308 H 0.29724 0.75532 0.99648 0.0
H309 H 0.47286 0.7986 0.26805 0.0
H310 H 0.39839 0.76243 0.99942 0.0
H311 H 0.37558 0.80755 0.25629 0.0
C312 C 0.32778 0.80073 0.1885 0.0
C313 C 0.30571 0.78667 0.11414 0.0
C314 C 0.41427 0.76956 0.05904 0.0
C315 C 0.36544 0.77581 0.1374 0.0
C316 C 0.44985 0.77513 0.05608 0.0
C317 C 0.47169 0.78552 0.13116 0.0
C318 C 0.40079 0.77588 0.13701 0.0
C319 C 0.45674 0.79017 0.20877 0.0
C320 C 0.35753 0.79494 0.20103 0.0
C321 C 0.31288 0.76543 0.05609 0.0
N322 N 0.42237 0.78579 0.20951 0.0
N323 N 0.34236 0.76108 0.06821 0.0
H324 H 0.66544 0.44513 0.19701 0.0
H325 H 0.55589 0.31818 0.79713 0.0
H326 H 0.7074 0.46578 0.93492 0.0
H327 H 0.52051 0.29055 0.06308 0.0
H328 H 0.61616 0.3662 0.84844 0.0
H329 H 0.61757 0.38373 0.15289 0.0
C330 C 0.66503 0.43641 0.13043 0.0
C331 C 0.69044 0.4607 0.06953 0.0
C332 C 0.59561 0.34919 0.89584 0.0
C333 C 0.63494 0.39045 0.01774 0.0
C334 C 0.5612 0.32159 0.86651 0.0
C335 C 0.53307 0.30037 0.9259 0.0
C336 C 0.60184 0.35632 0.98545 0.0
C337 C 0.54143 0.30611 0.01502 0.0
C338 C 0.63761 0.4013 0.10521 0.0
C339 C 0.68853 0.44793 0.98414 0.0
N340 N 0.57478 0.33397 0.04206 0.0
N341 N 0.66091 0.41395 0.96049 0.0
H342 H 0.1294 0.33178 0.65675 0.0
H343 H 0.26243 0.37422 0.25119 0.0
H344 H 0.24771 0.38938 0.68123 0.0
H345 H 0.15899 0.37222 0.23254 0.0
H346 H 0.25167 0.36057 0.4057 0.0
H347 H 0.13533 0.3268 0.50014 0.0
C348 C 0.1567 0.34252 0.62966 0.0
C349 C 0.18821 0.36165 0.68248 0.0
C350 C 0.2311 0.36259 0.36757 0.0
C351 C 0.1949 0.35578 0.50247 0.0
C352 C 0.23704 0.3703 0.27902 0.0
C353 C 0.21177 0.37499 0.22831 0.0
C354 C 0.19935 0.35884 0.40638 0.0
C355 C 0.17926 0.36899 0.26862 0.0
C356 C 0.15993 0.33987 0.54 0.0
C357 C 0.2227 0.37453 0.64338 0.0
N358 N 0.1741 0.36149 0.35559 0.0
N359 N 0.22515 0.37174 0.55541 0.0
H360 H 0.7581 0.13501 0.75384 0.0
H361 H 0.87511 0.22152 0.322 0.0
H362 H 0.86412 0.23395 0.75258 0.0
H363 H 0.75708 0.15283 0.32059 0.0
H364 H 0.87558 0.21307 0.47903 0.0
H365 H 0.76195 0.12986 0.59683 0.0
C366 C 0.78234 0.15574 0.72069 0.0
C367 C 0.81043 0.18561 0.76666 0.0
C368 C 0.84965 0.19916 0.44431 0.0
C369 C 0.8153 0.17909 0.58575 0.0
C370 C 0.84932 0.20352 0.35442 0.0
C371 C 0.81594 0.1879 0.308 0.0
C372 C 0.81634 0.17879 0.48873 0.0
C373 C 0.78341 0.16508 0.35349 0.0
C374 C 0.7845 0.15254 0.6308 0.0
C375 C 0.84169 0.21069 0.71997 0.0
N376 N 0.78437 0.16161 0.44171 0.0
N377 N 0.84315 0.20702 0.63188 0.0
H378 H 0.67867 0.81753 0.76004 0.0
H379 H 0.58346 0.75729 0.31106 0.0
H380 H 0.57562 0.81335 0.71455 0.0
H381 H 0.68594 0.85975 0.30289 0.0
H382 H 0.58687 0.75912 0.4707 0.0
H383 H 0.68868 0.81983 0.60127 0.0
C384 C 0.65901 0.81878 0.71672 0.0
C385 C 0.62681 0.81644 0.75029 0.0
C386 C 0.60921 0.78048 0.4335 0.0
C387 C 0.63662 0.81594 0.57028 0.0
C388 C 0.60772 0.77906 0.34256 0.0
C389 C 0.63462 0.80825 0.29371 0.0
C390 C 0.63826 0.81078 0.47551 0.0
C391 C 0.66488 0.83652 0.33834 0.0
C392 C 0.66442 0.81938 0.62655 0.0
C393 C 0.6013 0.81632 0.69136 0.0
N394 N 0.66577 0.83734 0.42701 0.0
N395 N 0.60631 0.81516 0.60418 0.0
H396 H 0.76796 0.62148 0.78175 0.0
H397 H 0.76893 0.64946 0.34025 0.0
H398 H 0.87948 0.64419 0.74986 0.0
H399 H 0.84854 0.61374 0.3367 0.0
H400 H 0.78069 0.66334 0.495 0.0
H401 H 0.76609 0.63293 0.62624 0.0
C402 C 0.79239 0.62999 0.74276 0.0
C403 C 0.82367 0.63137 0.77875 0.0
C404 C 0.79578 0.65268 0.46063 0.0
C405 C 0.82192 0.64448 0.60064 0.0
C406 C 0.78953 0.64525 0.37194 0.0
C407 C 0.80735 0.6298 0.32605 0.0
C408 C 0.81984 0.64428 0.50421 0.0
C409 C 0.83411 0.62544 0.36977 0.0
C410 C 0.79141 0.63658 0.6537 0.0
C411 C 0.85449 0.6422 0.72467 0.0
N412 N 0.83913 0.63209 0.45706 0.0
N413 N 0.85256 0.64754 0.63825 0.0
H414 H 0.14358 0.70313 0.31869 0.0
H415 H 0.18726 0.72632 0.75408 0.0
H416 H 0.25343 0.79385 0.27553 0.0
H417 H 0.26784 0.83682 0.68073 0.0
H418 H 0.17991 0.70821 0.60265 0.0
H419 H 0.15522 0.70931 0.47415 0.0
C420 C 0.17045 0.72388 0.34189 0.0
C421 C 0.1975 0.74813 0.28415 0.0
C422 C 0.19887 0.73651 0.6193 0.0
C423 C 0.21144 0.75491 0.46221 0.0
C424 C 0.20355 0.74683 0.70632 0.0
C425 C 0.22806 0.78325 0.73037 0.0
C426 C 0.21832 0.76301 0.55561 0.0
C427 C 0.24831 0.80853 0.66504 0.0
C428 C 0.17727 0.72716 0.43089 0.0
C429 C 0.23178 0.77455 0.3177 0.0
N430 N 0.24279 0.79795 0.58036 0.0
N431 N 0.2376 0.77756 0.40483 0.0
H432 H 0.39485 0.25043 0.68271 0.0
H433 H 0.33713 0.12217 0.26207 0.0
H434 H 0.35771 0.13494 0.69071 0.0
H435 H 0.39705 0.24004 0.24989 0.0
H436 H 0.33059 0.12555 0.41906 0.0
H437 H 0.38348 0.24582 0.52663 0.0
C438 C 0.38423 0.22399 0.65182 0.0
C439 C 0.37801 0.19313 0.70001 0.0
C440 C 0.3445 0.15072 0.38211 0.0
C441 C 0.36433 0.18766 0.5202 0.0
C442 C 0.34791 0.14885 0.29227 0.0
C443 C 0.36781 0.18091 0.24293 0.0
C444 C 0.36129 0.18496 0.42351 0.0
C445 C 0.3813 0.21469 0.28535 0.0
C446 C 0.37757 0.22142 0.56242 0.0
C447 C 0.36327 0.15949 0.65618 0.0
N448 N 0.37833 0.21585 0.37362 0.0
N449 N 0.35722 0.15772 0.5686 0.0
loop_
_geom_bond_atom_site_label_1
_geom_bond_atom_site_label_2
_geom_bond_distance
_geom_bond_site_symmetry_2
_ccdc_geom_bond_type
Zn0 O6 1.920 . S
Zn0 O12 1.898 . S
Zn0 O15 1.905 . S
Zn1 O9 1.905 . S
Zn1 O10 1.898 . S
Zn1 O18 1.920 . S
Zn2 O5 2.080 . S
Zn2 O8 2.114 . S
Zn2 O11 2.120 . S
Zn2 O13 2.120 1_554 S
Zn2 O14 2.114 1_554 S
Zn2 O17 2.080 1_554 S
C3 O8 1.166 . S
C3 O9 1.182 . S
C4 O10 1.167 . S
C4 O11 1.299 . S
O5 Zn2 2.080 . S
O5 C19 1.305 1_554 S
O6 Zn0 1.920 . S
O6 C19 1.234 . S
C7 O12 1.167 . S
C7 O13 1.299 . S
O8 Zn2 2.114 . S
O8 C3 1.166 . S
O9 Zn1 1.905 . S
O9 C3 1.182 . S
O10 Zn1 1.898 . S
O10 C4 1.167 . S
O11 Zn2 2.120 . S
O11 C4 1.299 . S
O12 Zn0 1.898 . S
O12 C7 1.167 . S
O13 Zn2 2.120 1_556 S
O13 C7 1.299 . S
O14 Zn2 2.114 1_556 S
O14 C16 1.166 . S
O15 Zn0 1.905 . S
O15 C16 1.182 . S
C16 O14 1.166 . S
C16 O15 1.182 . S
O17 Zn2 2.080 1_556 S
O17 C20 1.305 1_556 S
O18 Zn1 1.920 . S
O18 C20 1.234 . S
C19 O5 1.305 1_556 S
C19 O6 1.234 . S
C20 O17 1.305 1_554 S
C20 O18 1.234 . S
Zn21 O27 1.920 . S
Zn21 O33 1.898 . S
Zn21 O36 1.905 . S
Zn22 O30 1.905 . S
Zn22 O31 1.898 . S
Zn22 O39 1.920 . S
Zn23 O26 2.080 . S
Zn23 O29 2.114 . S
Zn23 O32 2.120 . S
Zn23 O34 2.120 1_554 S
Zn23 O35 2.114 1_554 S
Zn23 O38 2.080 1_554 S
C24 O29 1.166 . S
C24 O30 1.182 . S
C25 O31 1.167 . S
C25 O32 1.299 . S
O26 Zn23 2.080 . S
O26 C40 1.305 1_554 S
O27 Zn21 1.920 . S
O27 C40 1.234 . S
C28 O33 1.167 . S
C28 O34 1.299 . S
O29 Zn23 2.114 . S
O29 C24 1.166 . S
O30 Zn22 1.905 . S
O30 C24 1.182 . S
O31 Zn22 1.898 . S
O31 C25 1.167 . S
O32 Zn23 2.120 . S
O32 C25 1.299 . S
O33 Zn21 1.898 . S
O33 C28 1.167 . S
O34 Zn23 2.120 1_556 S
O34 C28 1.299 . S
O35 Zn23 2.114 1_556 S
O35 C37 1.166 . S
O36 Zn21 1.905 . S
O36 C37 1.182 . S
C37 O35 1.166 . S
C37 O36 1.182 . S
O38 Zn23 2.080 1_556 S
O38 C41 1.305 1_556 S
O39 Zn22 1.920 . S
O39 C41 1.234 . S
C40 O26 1.305 1_556 S
C40 O27 1.234 . S
C41 O38 1.305 1_554 S
C41 O39 1.234 . S
Zn42 O48 1.920 . S
Zn42 O54 1.898 . S
Zn42 O57 1.905 . S
Zn43 O51 1.905 . S
Zn43 O52 1.898 . S
Zn43 O60 1.920 . S
Zn44 O47 2.080 1_554 S
Zn44 O50 2.114 1_554 S
Zn44 O53 2.120 1_554 S
Zn44 O55 2.120 . S
Zn44 O56 2.114 . S
Zn44 O59 2.080 . S
C45 O50 1.166 . S
C45 O51 1.182 . S
C46 O52 1.167 . S
C46 O53 1.299 . S
O47 Zn44 2.080 1_556 S
O47 C61 1.305 1_556 S
O48 Zn42 1.920 . S
O48 C61 1.234 . S
C49 O54 1.167 . S
C49 O55 1.299 . S
O50 Zn44 2.114 1_556 S
O50 C45 1.166 . S
O51 Zn43 1.905 . S
O51 C45 1.182 . S
O52 Zn43 1.898 . S
O52 C46 1.167 . S
O53 Zn44 2.120 1_556 S
O53 C46 1.299 . S
O54 Zn42 1.898 . S
O54 C49 1.167 . S
O55 Zn44 2.120 . S
O55 C49 1.299 . S
O56 Zn44 2.114 . S
O56 C58 1.166 . S
O57 Zn42 1.905 . S
O57 C58 1.182 . S
C58 O56 1.166 . S
C58 O57 1.182 . S
O59 Zn44 2.080 . S
O59 C62 1.305 1_554 S
O60 Zn43 1.920 . S
O60 C62 1.234 . S
C61 O47 1.305 1_554 S
C61 O48 1.234 . S
C62 O59 1.305 1_556 S
C62 O60 1.234 . S
Zn63 O69 1.920 . S
Zn63 O75 1.898 . S
Zn63 O78 1.905 . S
Zn64 O72 1.905 . S
Zn64 O73 1.898 . S
Zn64 O81 1.920 . S
Zn65 O68 2.080 1_554 S
Zn65 O71 2.114 1_554 S
Zn65 O74 2.120 1_554 S
Zn65 O76 2.120 . S
Zn65 O77 2.114 . S
Zn65 O80 2.080 . S
C66 O71 1.166 . S
C66 O72 1.182 . S
C67 O73 1.167 . S
C67 O74 1.299 . S
O68 Zn65 2.080 1_556 S
O68 C82 1.305 1_556 S
O69 Zn63 1.920 . S
O69 C82 1.234 . S
C70 O75 1.167 . S
C70 O76 1.299 . S
O71 Zn65 2.114 1_556 S
O71 C66 1.166 . S
O72 Zn64 1.905 . S
O72 C66 1.182 . S
O73 Zn64 1.898 . S
O73 C67 1.167 . S
O74 Zn65 2.120 1_556 S
O74 C67 1.299 . S
O75 Zn63 1.898 . S
O75 C70 1.167 . S
O76 Zn65 2.120 . S
O76 C70 1.299 . S
O77 Zn65 2.114 . S
O77 C79 1.166 . S
O78 Zn63 1.905 . S
O78 C79 1.182 . S
C79 O77 1.166 . S
C79 O78 1.182 . S
O80 Zn65 2.080 . S
O80 C83 1.305 1_554 S
O81 Zn64 1.920 . S
O81 C83 1.234 . S
C82 O68 1.305 1_554 S
C82 O69 1.234 . S
C83 O80 1.305 1_556 S
C83 O81 1.234 . S
Zn84 O90 1.920 . S
Zn84 O96 1.898 . S
Zn84 O99 1.905 . S
Zn85 O93 1.905 . S
Zn85 O94 1.898 . S
Zn85 O102 1.920 . S
Zn86 O89 2.080 1_554 S
Zn86 O92 2.114 1_554 S
Zn86 O95 2.120 1_554 S
Zn86 O97 2.120 . S
Zn86 O98 2.114 . S
Zn86 O101 2.080 . S
C87 O92 1.166 . S
C87 O93 1.182 . S
C88 O94 1.167 . S
C88 O95 1.299 . S
O89 Zn86 2.080 1_556 S
O89 C103 1.305 1_556 S
O90 Zn84 1.920 . S
O90 C103 1.234 . S
C91 O96 1.167 . S
C91 O97 1.299 . S
O92 Zn86 2.114 1_556 S
O92 C87 1.166 . S
O93 Zn85 1.905 . S
O93 C87 1.182 . S
O94 Zn85 1.898 . S
O94 C88 1.167 . S
O95 Zn86 2.120 1_556 S
O95 C88 1.299 . S
O96 Zn84 1.898 . S
O96 C91 1.167 . S
O97 Zn86 2.120 . S
O97 C91 1.299 . S
O98 Zn86 2.114 . S
O98 C100 1.166 . S
O99 Zn84 1.905 . S
O99 C100 1.182 . S
C100 O98 1.166 . S
C100 O99 1.182 . S
O101 Zn86 2.080 . S
O101 C104 1.305 1_554 S
O102 Zn85 1.920 . S
O102 C104 1.234 . S
C103 O89 1.305 1_554 S
C103 O90 1.234 . S
C104 O101 1.305 1_556 S
C104 O102 1.234 . S
Zn105 O111 1.920 . S
Zn105 O117 1.898 . S
Zn105 O120 1.905 . S
Zn106 O114 1.905 . S
Zn106 O115 1.898 . S
Zn106 O123 1.920 . S
Zn107 O110 2.080 . S
Zn107 O113 2.114 . S
Zn107 O116 2.120 . S
Zn107 O118 2.120 1_554 S
Zn107 O119 2.114 1_554 S
Zn107 O122 2.080 1_554 S
C108 O113 1.166 . S
C108 O114 1.182 . S
C109 O115 1.167 . S
C109 O116 1.299 . S
O110 Zn107 2.080 . S
O110 C124 1.305 1_554 S
O111 Zn105 1.920 . S
O111 C124 1.234 . S
C112 O117 1.167 . S
C112 O118 1.299 . S
O113 Zn107 2.114 . S
O113 C108 1.166 . S
O114 Zn106 1.905 . S
O114 C108 1.182 . S
O115 Zn106 1.898 . S
O115 C109 1.167 . S
O116 Zn107 2.120 . S
O116 C109 1.299 . S
O117 Zn105 1.898 . S
O117 C112 1.167 . S
O118 Zn107 2.120 1_556 S
O118 C112 1.299 . S
O119 Zn107 2.114 1_556 S
O119 C121 1.166 . S
O120 Zn105 1.905 . S
O120 C121 1.182 . S
C121 O119 1.166 . S
C121 O120 1.182 . S
O122 Zn107 2.080 1_556 S
O122 C125 1.305 1_556 S
O123 Zn106 1.920 . S
O123 C125 1.234 . S
C124 O110 1.305 1_556 S
C124 O111 1.234 . S
C125 O122 1.305 1_554 S
C125 O123 1.234 . S
H126 C132 0.930 . S
H127 C136 0.930 . S
H128 C141 0.929 1_556 S
H129 C139 0.929 1_554 S
H130 C134 0.929 . S
H131 C140 0.929 . S
C132 H126 0.930 . S
C132 C133 1.367 . S
C132 C140 1.378 . S
C133 C132 1.367 . S
C133 C141 1.433 . S
C134 H130 0.929 . S
C134 C136 1.378 . S
C134 C138 1.350 . S
C135 C138 1.463 1_554 S
C135 C140 1.350 . S
C135 N143 1.427 1_554 S
C136 H127 0.930 . S
C136 C134 1.378 . S
C136 C137 1.367 . S
C137 C136 1.367 . S
C137 C139 1.433 . S
C138 C134 1.350 . S
C138 C135 1.463 1_556 S
C138 N142 1.427 1_556 S
C139 H129 0.929 1_556 S
C139 C137 1.433 . S
C139 N142 1.384 1_556 S
C140 H131 0.929 . S
C140 C132 1.378 . S
C140 C135 1.350 . S
C141 H128 0.929 1_554 S
C141 C133 1.433 . S
C141 N143 1.384 1_554 S
N142 C138 1.427 1_554 S
N142 C139 1.384 1_554 S
N143 C135 1.427 1_556 S
N143 C141 1.384 1_556 S
H144 C150 0.930 . S
H145 C154 0.930 . S
H146 C159 0.929 . S
H147 C157 0.929 . S
H148 C152 0.929 . S
H149 C158 0.929 . S
C150 H144 0.930 . S
C150 C151 1.367 . S
C150 C158 1.378 . S
C151 C150 1.367 . S
C151 C159 1.433 1_554 S
C152 H148 0.929 . S
C152 C154 1.378 . S
C152 C156 1.350 . S
C153 C156 1.463 1_454 S
C153 C158 1.350 . S
C153 N161 1.427 1_554 S
C154 H145 0.930 . S
C154 C152 1.378 . S
C154 C155 1.367 . S
C155 C154 1.367 . S
C155 C157 1.433 1_556 S
C156 C152 1.350 . S
C156 C153 1.463 1_656 S
C156 N160 1.427 1_556 S
C157 H147 0.929 . S
C157 C155 1.433 1_554 S
C157 N160 1.384 . S
C158 H149 0.929 . S
C158 C150 1.378 . S
C158 C153 1.350 . S
C159 H146 0.929 . S
C159 C151 1.433 1_556 S
C159 N161 1.384 . S
N160 C156 1.427 1_554 S
N160 C157 1.384 . S
N161 C153 1.427 1_556 S
N161 C159 1.384 . S
H162 C168 0.930 . S
H163 C172 0.930 . S
H164 C177 0.929 . S
H165 C175 0.929 . S
H166 C170 0.929 . S
H167 C176 0.929 . S
C168 H162 0.930 . S
C168 C169 1.367 1_556 S
C168 C176 1.378 . S
C169 C168 1.367 1_554 S
C169 C177 1.433 . S
C170 H166 0.929 . S
C170 C172 1.378 . S
C170 C174 1.350 1_554 S
C171 C174 1.463 1_544 S
C171 C176 1.350 1_554 S
C171 N179 1.427 . S
C172 H163 0.930 . S
C172 C170 1.378 . S
C172 C173 1.367 1_554 S
C173 C172 1.367 1_556 S
C173 C175 1.433 . S
C174 C170 1.350 1_556 S
C174 C171 1.463 1_566 S
C174 N178 1.427 . S
C175 H165 0.929 . S
C175 C173 1.433 . S
C175 N178 1.384 . S
C176 H167 0.929 . S
C176 C168 1.378 . S
C176 C171 1.350 1_556 S
C177 H164 0.929 . S
C177 C169 1.433 . S
C177 N179 1.384 . S
N178 C174 1.427 . S
N178 C175 1.384 . S
N179 C171 1.427 . S
N179 C177 1.384 . S
H180 C186 0.930 . S
H181 C190 0.930 . S
H182 C195 0.929 . S
H183 C193 0.929 . S
H184 C188 0.929 . S
H185 C194 0.929 . S
C186 H180 0.930 . S
C186 C187 1.367 . S
C186 C194 1.378 . S
C187 C186 1.367 . S
C187 C195 1.433 1_556 S
C188 H184 0.929 . S
C188 C190 1.378 . S
C188 C192 1.350 . S
C189 C192 1.463 1_556 S
C189 C194 1.350 . S
C189 N197 1.427 1_556 S
C190 H181 0.930 . S
C190 C188 1.378 . S
C190 C191 1.367 . S
C191 C190 1.367 . S
C191 C193 1.433 1_554 S
C192 C188 1.350 . S
C192 C189 1.463 1_554 S
C192 N196 1.427 1_554 S
C193 H183 0.929 . S
C193 C191 1.433 1_556 S
C193 N196 1.384 . S
C194 H185 0.929 . S
C194 C186 1.378 . S
C194 C189 1.350 . S
C195 H182 0.929 . S
C195 C187 1.433 1_554 S
C195 N197 1.384 . S
N196 C192 1.427 1_556 S
N196 C193 1.384 . S
N197 C189 1.427 1_554 S
N197 C195 1.384 . S
H198 C204 0.930 . S
H199 C208 0.930 . S
H200 C213 0.929 . S
H201 C211 0.929 . S
H202 C206 0.929 . S
H203 C212 0.929 . S
C204 H198 0.930 . S
C204 C205 1.367 . S
C204 C212 1.378 . S
C205 C204 1.367 . S
C205 C213 1.433 1_556 S
C206 H202 0.929 . S
C206 C208 1.378 . S
C206 C210 1.350 . S
C207 C210 1.463 1_456 S
C207 C212 1.350 . S
C207 N215 1.427 1_556 S
C208 H199 0.930 . S
C208 C206 1.378 . S
C208 C209 1.367 . S
C209 C208 1.367 . S
C209 C211 1.433 1_554 S
C210 C206 1.350 . S
C210 C207 1.463 1_654 S
C210 N214 1.427 1_554 S
C211 H201 0.929 . S
C211 C209 1.433 1_556 S
C211 N214 1.384 . S
C212 H203 0.929 . S
C212 C204 1.378 . S
C212 C207 1.350 . S
C213 H200 0.929 . S
C213 C205 1.433 1_554 S
C213 N215 1.384 . S
N214 C210 1.427 1_556 S
N214 C211 1.384 . S
N215 C207 1.427 1_554 S
N215 C213 1.384 . S
H216 C222 0.930 . S
H217 C226 0.930 . S
H218 C231 0.929 . S
H219 C229 0.929 . S
H220 C224 0.929 . S
H221 C230 0.929 . S
C222 H216 0.930 . S
C222 C223 1.367 . S
C222 C230 1.378 . S
C223 C222 1.367 . S
C223 C231 1.433 1_554 S
C224 H220 0.929 . S
C224 C226 1.378 . S
C224 C228 1.350 . S
C225 C228 1.463 1_564 S
C225 C230 1.350 . S
C225 N233 1.427 1_554 S
C226 H217 0.930 . S
C226 C224 1.378 . S
C226 C227 1.367 . S
C227 C226 1.367 . S
C227 C229 1.433 1_556 S
C228 C224 1.350 . S
C228 C225 1.463 1_546 S
C228 N232 1.427 1_556 S
C229 H219 0.929 . S
C229 C227 1.433 1_554 S
C229 N232 1.384 . S
C230 H221 0.929 . S
C230 C222 1.378 . S
C230 C225 1.350 . S
C231 H218 0.929 . S
C231 C223 1.433 1_556 S
C231 N233 1.384 . S
N232 C228 1.427 1_554 S
N232 C229 1.384 . S
N233 C225 1.427 1_556 S
N233 C231 1.384 . S
H234 C240 0.930 . S
H235 C244 0.930 . S
H236 C249 0.929 . S
H237 C247 0.929 . S
H238 C242 0.929 . S
H239 C248 0.929 . S
C240 H234 0.930 . S
C240 C241 1.367 . S
C240 C248 1.378 . S
C241 C240 1.367 . S
C241 C249 1.433 1_554 S
C242 H238 0.929 . S
C242 C244 1.378 . S
C242 C246 1.350 . S
C243 C246 1.463 1_554 S
C243 C248 1.350 . S
C243 N251 1.427 1_554 S
C244 H235 0.930 . S
C244 C242 1.378 . S
C244 C245 1.367 . S
C245 C244 1.367 . S
C245 C247 1.433 1_556 S
C246 C242 1.350 . S
C246 C243 1.463 1_556 S
C246 N250 1.427 1_556 S
C247 H237 0.929 . S
C247 C245 1.433 1_554 S
C247 N250 1.384 . S
C248 H239 0.929 . S
C248 C240 1.378 . S
C248 C243 1.350 . S
C249 H236 0.929 . S
C249 C241 1.433 1_556 S
C249 N251 1.384 . S
N250 C246 1.427 1_554 S
N250 C247 1.384 . S
N251 C243 1.427 1_556 S
N251 C249 1.384 . S
H252 C258 0.930 . S
H253 C262 0.930 . S
H254 C267 0.929 . S
H255 C265 0.929 . S
H256 C260 0.929 . S
H257 C266 0.929 . S
C258 H252 0.930 . S
C258 C259 1.367 . S
C258 C266 1.378 . S
C259 C258 1.367 . S
C259 C267 1.433 1_554 S
C260 H256 0.929 . S
C260 C262 1.378 . S
C260 C264 1.350 . S
C261 C264 1.463 1_554 S
C261 C266 1.350 . S
C261 N269 1.427 1_554 S
C262 H253 0.930 . S
C262 C260 1.378 . S
C262 C263 1.367 . S
C263 C262 1.367 . S
C263 C265 1.433 1_556 S
C264 C260 1.350 . S
C264 C261 1.463 1_556 S
C264 N268 1.427 1_556 S
C265 H255 0.929 . S
C265 C263 1.433 1_554 S
C265 N268 1.384 . S
C266 H257 0.929 . S
C266 C258 1.378 . S
C266 C261 1.350 . S
C267 H254 0.929 . S
C267 C259 1.433 1_556 S
C267 N269 1.384 . S
N268 C264 1.427 1_554 S
N268 C265 1.384 . S
N269 C261 1.427 1_556 S
N269 C267 1.384 . S
H270 C276 0.930 . S
H271 C280 0.930 . S
H272 C285 0.929 . S
H273 C283 0.929 . S
H274 C278 0.929 . S
H275 C284 0.929 . S
C276 H270 0.930 . S
C276 C277 1.367 . S
C276 C284 1.378 . S
C277 C276 1.367 . S
C277 C285 1.433 1_556 S
C278 H274 0.929 . S
C278 C280 1.378 . S
C278 C282 1.350 . S
C279 C282 1.463 1_556 S
C279 C284 1.350 . S
C279 N287 1.427 1_556 S
C280 H271 0.930 . S
C280 C278 1.378 . S
C280 C281 1.367 . S
C281 C280 1.367 . S
C281 C283 1.433 1_554 S
C282 C278 1.350 . S
C282 C279 1.463 1_554 S
C282 N286 1.427 1_554 S
C283 H273 0.929 . S
C283 C281 1.433 1_556 S
C283 N286 1.384 . S
C284 H275 0.929 . S
C284 C276 1.378 . S
C284 C279 1.350 . S
C285 H272 0.929 . S
C285 C277 1.433 1_554 S
C285 N287 1.384 . S
N286 C282 1.427 1_556 S
N286 C283 1.384 . S
N287 C279 1.427 1_554 S
N287 C285 1.384 . S
H288 C294 0.930 . S
H289 C298 0.930 . S
H290 C303 0.929 . S
H291 C301 0.929 . S
H292 C296 0.929 . S
H293 C302 0.929 . S
C294 H288 0.930 . S
C294 C295 1.367 . S
C294 C302 1.378 . S
C295 C294 1.367 . S
C295 C303 1.433 1_556 S
C296 H292 0.929 . S
C296 C298 1.378 . S
C296 C300 1.350 . S
C297 C300 1.463 1_556 S
C297 C302 1.350 . S
C297 N305 1.427 1_556 S
C298 H289 0.930 . S
C298 C296 1.378 . S
C298 C299 1.367 . S
C299 C298 1.367 . S
C299 C301 1.433 1_554 S
C300 C296 1.350 . S
C300 C297 1.463 1_554 S
C300 N304 1.427 1_554 S
C301 H291 0.929 . S
C301 C299 1.433 1_556 S
C301 N304 1.384 . S
C302 H293 0.929 . S
C302 C294 1.378 . S
C302 C297 1.350 . S
C303 H290 0.929 . S
C303 C295 1.433 1_554 S
C303 N305 1.384 . S
N304 C300 1.427 1_556 S
N304 C301 1.384 . S
N305 C297 1.427 1_554 S
N305 C303 1.384 . S
H306 C312 0.930 . S
H307 C316 0.930 . S
H308 C321 0.929 . S
H309 C319 0.929 . S
H310 C314 0.929 . S
H311 C320 0.929 . S
C312 H306 0.930 . S
C312 C313 1.367 1_554 S
C312 C320 1.378 . S
C313 C312 1.367 1_556 S
C313 C321 1.433 . S
C314 H310 0.929 . S
C314 C316 1.378 . S
C314 C318 1.350 1_556 S
C315 C318 1.463 1_556 S
C315 C320 1.350 1_556 S
C315 N323 1.427 . S
C316 H307 0.930 . S
C316 C314 1.378 . S
C316 C317 1.367 1_556 S
C317 C316 1.367 1_554 S
C317 C319 1.433 . S
C318 C314 1.350 1_554 S
C318 C315 1.463 1_554 S
C318 N322 1.427 . S
C319 H309 0.929 . S
C319 C317 1.433 . S
C319 N322 1.384 . S
C320 H311 0.929 . S
C320 C312 1.378 . S
C320 C315 1.350 1_554 S
C321 H308 0.929 . S
C321 C313 1.433 . S
C321 N323 1.384 . S
N322 C318 1.427 . S
N322 C319 1.384 . S
N323 C315 1.427 . S
N323 C321 1.384 . S
H324 C330 0.930 . S
H325 C334 0.930 . S
H326 C339 0.929 . S
H327 C337 0.929 . S
H328 C332 0.929 . S
H329 C338 0.929 . S
C330 H324 0.930 . S
C330 C331 1.367 . S
C330 C338 1.378 . S
C331 C330 1.367 . S
C331 C339 1.433 1_554 S
C332 H328 0.929 . S
C332 C334 1.378 . S
C332 C336 1.350 . S
C333 C336 1.463 1_554 S
C333 C338 1.350 . S
C333 N341 1.427 1_554 S
C334 H325 0.930 . S
C334 C332 1.378 . S
C334 C335 1.367 . S
C335 C334 1.367 . S
C335 C337 1.433 1_556 S
C336 C332 1.350 . S
C336 C333 1.463 1_556 S
C336 N340 1.427 1_556 S
C337 H327 0.929 . S
C337 C335 1.433 1_554 S
C337 N340 1.384 . S
C338 H329 0.929 . S
C338 C330 1.378 . S
C338 C333 1.350 . S
C339 H326 0.929 . S
C339 C331 1.433 1_556 S
C339 N341 1.384 . S
N340 C336 1.427 1_554 S
N340 C337 1.384 . S
N341 C333 1.427 1_556 S
N341 C339 1.384 . S
H342 C348 0.930 . S
H343 C352 0.930 . S
H344 C357 0.929 . S
H345 C355 0.929 . S
H346 C350 0.929 . S
H347 C356 0.929 . S
C348 H342 0.930 . S
C348 C349 1.367 . S
C348 C356 1.378 . S
C349 C348 1.367 . S
C349 C357 1.433 . S
C350 H346 0.929 . S
C350 C352 1.378 . S
C350 C354 1.350 . S
C351 C354 1.463 . S
C351 C356 1.350 . S
C351 N359 1.427 . S
C352 H343 0.930 . S
C352 C350 1.378 . S
C352 C353 1.367 . S
C353 C352 1.367 . S
C353 C355 1.433 . S
C354 C350 1.350 . S
C354 C351 1.463 . S
C354 N358 1.427 . S
C355 H345 0.929 . S
C355 C353 1.433 . S
C355 N358 1.384 . S
C356 H347 0.929 . S
C356 C348 1.378 . S
C356 C351 1.350 . S
C357 H344 0.929 . S
C357 C349 1.433 . S
C357 N359 1.384 . S
N358 C354 1.427 . S
N358 C355 1.384 . S
N359 C351 1.427 . S
N359 C357 1.384 . S
H360 C366 0.930 . S
H361 C370 0.930 . S
H362 C375 0.929 . S
H363 C373 0.929 . S
H364 C368 0.929 . S
H365 C374 0.929 . S
C366 H360 0.930 . S
C366 C367 1.367 . S
C366 C374 1.378 . S
C367 C366 1.367 . S
C367 C375 1.433 . S
C368 H364 0.929 . S
C368 C370 1.378 . S
C368 C372 1.350 . S
C369 C372 1.463 . S
C369 C374 1.350 . S
C369 N377 1.427 . S
C370 H361 0.930 . S
C370 C368 1.378 . S
C370 C371 1.367 . S
C371 C370 1.367 . S
C371 C373 1.433 . S
C372 C368 1.350 . S
C372 C369 1.463 . S
C372 N376 1.427 . S
C373 H363 0.929 . S
C373 C371 1.433 . S
C373 N376 1.384 . S
C374 H365 0.929 . S
C374 C366 1.378 . S
C374 C369 1.350 . S
C375 H362 0.929 . S
C375 C367 1.433 . S
C375 N377 1.384 . S
N376 C372 1.427 . S
N376 C373 1.384 . S
N377 C369 1.427 . S
N377 C375 1.384 . S
H378 C384 0.930 . S
H379 C388 0.930 . S
H380 C393 0.929 . S
H381 C391 0.929 . S
H382 C386 0.929 . S
H383 C392 0.929 . S
C384 H378 0.930 . S
C384 C385 1.367 . S
C384 C392 1.378 . S
C385 C384 1.367 . S
C385 C393 1.433 . S
C386 H382 0.929 . S
C386 C388 1.378 . S
C386 C390 1.350 . S
C387 C390 1.463 . S
C387 C392 1.350 . S
C387 N395 1.427 . S
C388 H379 0.930 . S
C388 C386 1.378 . S
C388 C389 1.367 . S
C389 C388 1.367 . S
C389 C391 1.433 . S
C390 C386 1.350 . S
C390 C387 1.463 . S
C390 N394 1.427 . S
C391 H381 0.929 . S
C391 C389 1.433 . S
C391 N394 1.384 . S
C392 H383 0.929 . S
C392 C384 1.378 . S
C392 C387 1.350 . S
C393 H380 0.929 . S
C393 C385 1.433 . S
C393 N395 1.384 . S
N394 C390 1.427 . S
N394 C391 1.384 . S
N395 C387 1.427 . S
N395 C393 1.384 . S
H396 C402 0.930 . S
H397 C406 0.930 . S
H398 C411 0.929 . S
H399 C409 0.929 . S
H400 C404 0.929 . S
H401 C410 0.929 . S
C402 H396 0.930 . S
C402 C403 1.367 . S
C402 C410 1.378 . S
C403 C402 1.367 . S
C403 C411 1.433 . S
C404 H400 0.929 . S
C404 C406 1.378 . S
C404 C408 1.350 . S
C405 C408 1.463 . S
C405 C410 1.350 . S
C405 N413 1.427 . S
C406 H397 0.930 . S
C406 C404 1.378 . S
C406 C407 1.367 . S
C407 C406 1.367 . S
C407 C409 1.433 . S
C408 C404 1.350 . S
C408 C405 1.463 . S
C408 N412 1.427 . S
C409 H399 0.929 . S
C409 C407 1.433 . S
C409 N412 1.384 . S
C410 H401 0.929 . S
C410 C402 1.378 . S
C410 C405 1.350 . S
C411 H398 0.929 . S
C411 C403 1.433 . S
C411 N413 1.384 . S
N412 C408 1.427 . S
N412 C409 1.384 . S
N413 C405 1.427 . S
N413 C411 1.384 . S
H414 C420 0.930 . S
H415 C424 0.930 . S
H416 C429 0.929 . S
H417 C427 0.929 . S
H418 C422 0.929 . S
H419 C428 0.929 . S
C420 H414 0.930 . S
C420 C421 1.367 . S
C420 C428 1.378 . S
C421 C420 1.367 . S
C421 C429 1.433 . S
C422 H418 0.929 . S
C422 C424 1.378 . S
C422 C426 1.350 . S
C423 C426 1.463 . S
C423 C428 1.350 . S
C423 N431 1.427 . S
C424 H415 0.930 . S
C424 C422 1.378 . S
C424 C425 1.367 . S
C425 C424 1.367 . S
C425 C427 1.433 . S
C426 C422 1.350 . S
C426 C423 1.463 . S
C426 N430 1.427 . S
C427 H417 0.929 . S
C427 C425 1.433 . S
C427 N430 1.384 . S
C428 H419 0.929 . S
C428 C420 1.378 . S
C428 C423 1.350 . S
C429 H416 0.929 . S
C429 C421 1.433 . S
C429 N431 1.384 . S
N430 C426 1.427 . S
N430 C427 1.384 . S
N431 C423 1.427 . S
N431 C429 1.384 . S
H432 C438 0.930 . S
H433 C442 0.930 . S
H434 C447 0.929 . S
H435 C445 0.929 . S
H436 C440 0.929 . S
H437 C446 0.929 . S
C438 H432 0.930 . S
C438 C439 1.367 . S
C438 C446 1.378 . S
C439 C438 1.367 . S
C439 C447 1.433 . S
C440 H436 0.929 . S
C440 C442 1.378 . S
C440 C444 1.350 . S
C441 C444 1.463 . S
C441 C446 1.350 . S
C441 N449 1.427 . S
C442 H433 0.930 . S
C442 C440 1.378 . S
C442 C443 1.367 . S
C443 C442 1.367 . S
C443 C445 1.433 . S
C444 C440 1.350 . S
C444 C441 1.463 . S
C444 N448 1.427 . S
C445 H435 0.929 . S
C445 C443 1.433 . S
C445 N448 1.384 . S
C446 H437 0.929 . S
C446 C438 1.378 . S
C446 C441 1.350 . S
C447 H434 0.929 . S
C447 C439 1.433 . S
C447 N449 1.384 . S
N448 C444 1.427 . S
N448 C445 1.384 . S
N449 C441 1.427 . S
N449 C447 1.384 . S
C133 C121 1.290 1_554 S
C137 C3 1.275 1_556 S
C151 C16 1.291 1_554 S
C155 C24 1.293 1_556 S
C169 C37 1.269 1_554 S
C173 C58 1.283 1_556 S
C187 C79 1.294 1_556 S
C191 C45 1.283 1_554 S
C205 C100 1.293 1_556 S
C209 C66 1.292 1_554 S
C223 C87 1.285 1_554 S
C227 C108 1.294 1_556 S
C241 C103 1.432 . S
C245 C19 1.435 . S
C259 C125 1.437 . S
C263 C40 1.430 . S
C277 C62 1.428 . S
C281 C20 1.443 . S
C295 C83 1.428 . S
C299 C41 1.442 . S
C313 C104 1.444 . S
C317 C61 1.436 . S
C331 C82 1.430 . S
C335 C124 1.437 . S
C349 C7 1.292 . S
C353 C4 1.286 . S
C367 C28 1.285 . S
C371 C25 1.290 . S
C385 C46 1.311 . S
C389 C49 1.304 . S
C403 C67 1.295 . S
C407 C70 1.305 . S
C421 C91 1.299 . S
C425 C88 1.290 . S
C439 C112 1.288 . S
C443 C109 1.296 . S
