# Generated by pormake.
# Topology wjn, (5)-cn, num edge types: 1
# Building blocks:
#     Node 0, Type 0, BuildingBlock: BEQFEK_clean_sbu_0, # of connection points: 5
#     Node 1, Type 0, BuildingBlock: BEQFEK_clean_sbu_0, # of connection points: 5
#     Node 2, Type 0, BuildingBlock: BEQFEK_clean_sbu_0, # of connection points: 5
#     Node 3, Type 0, BuildingBlock: BEQFEK_clean_sbu_0, # of connection points: 5
#     Node 4, Type 0, BuildingBlock: BEQFEK_clean_sbu_0, # of connection points: 5
#     Node 5, Type 0, BuildingBlock: BEQFEK_clean_sbu_0, # of connection points: 5
#     Node 6, Type 0, BuildingBlock: BEQFEK_clean_sbu_0, # of connection points: 5
#     Node 7, Type 0, BuildingBlock: BEQFEK_clean_sbu_0, # of connection points: 5
#     Node 8, Type 0, BuildingBlock: BEQFEK_clean_sbu_0, # of connection points: 5
#     Node 9, Type 0, BuildingBlock: BEQFEK_clean_sbu_0, # of connection points: 5
#     Node 10, Type 0, BuildingBlock: BEQFEK_clean_sbu_0, # of connection points: 5
#     Node 11, Type 0, BuildingBlock: BEQFEK_clean_sbu_0, # of connection points: 5
#     Edge 12, Type (0, 0), BuildingBlock: TEMPAE_clean_linker_10, # of connection points: 2
#     Edge 13, Type (0, 0), BuildingBlock: TEMPAE_clean_linker_10, # of connection points: 2
#     Edge 14, Type (0, 0), BuildingBlock: TEMPAE_clean_linker_10, # of connection points: 2
#     Edge 15, Type (0, 0), BuildingBlock: TEMPAE_clean_linker_10, # of connection points: 2
#     Edge 16, Type (0, 0), BuildingBlock: TEMPAE_clean_linker_10, # of connection points: 2
#     Edge 17, Type (0, 0), BuildingBlock: TEMPAE_clean_linker_10, # of connection points: 2
#     Edge 18, Type (0, 0), BuildingBlock: TEMPAE_clean_linker_10, # of connection points: 2
#     Edge 19, Type (0, 0), BuildingBlock: TEMPAE_clean_linker_10, # of connection points: 2
#     Edge 20, Type (0, 0), BuildingBlock: TEMPAE_clean_linker_10, # of connection points: 2
#     Edge 21, Type (0, 0), BuildingBlock: TEMPAE_clean_linker_10, # of connection points: 2
#     Edge 22, Type (0, 0), BuildingBlock: TEMPAE_clean_linker_10, # of connection points: 2
#     Edge 23, Type (0, 0), BuildingBlock: TEMPAE_clean_linker_10, # of connection points: 2
#     Edge 24, Type (0, 0), BuildingBlock: TEMPAE_clean_linker_10, # of connection points: 2
#     Edge 25, Type (0, 0), BuildingBlock: TEMPAE_clean_linker_10, # of connection points: 2
#     Edge 26, Type (0, 0), BuildingBlock: TEMPAE_clean_linker_10, # of connection points: 2
#     Edge 27, Type (0, 0), BuildingBlock: TEMPAE_clean_linker_10, # of connection points: 2
#     Edge 28, Type (0, 0), BuildingBlock: TEMPAE_clean_linker_10, # of connection points: 2
#     Edge 29, Type (0, 0), BuildingBlock: TEMPAE_clean_linker_10, # of connection points: 2
#     Edge 30, Type (0, 0), BuildingBlock: TEMPAE_clean_linker_10, # of connection points: 2
#     Edge 31, Type (0, 0), BuildingBlock: TEMPAE_clean_linker_10, # of connection points: 2
#     Edge 32, Type (0, 0), BuildingBlock: TEMPAE_clean_linker_10, # of connection points: 2
#     Edge 33, Type (0, 0), BuildingBlock: TEMPAE_clean_linker_10, # of connection points: 2
#     Edge 34, Type (0, 0), BuildingBlock: TEMPAE_clean_linker_10, # of connection points: 2
#     Edge 35, Type (0, 0), BuildingBlock: TEMPAE_clean_linker_10, # of connection points: 2
#     Edge 36, Type (0, 0), BuildingBlock: TEMPAE_clean_linker_10, # of connection points: 2
#     Edge 37, Type (0, 0), BuildingBlock: TEMPAE_clean_linker_10, # of connection points: 2
#     Edge 38, Type (0, 0), BuildingBlock: TEMPAE_clean_linker_10, # of connection points: 2
#     Edge 39, Type (0, 0), BuildingBlock: TEMPAE_clean_linker_10, # of connection points: 2
#     Edge 40, Type (0, 0), BuildingBlock: TEMPAE_clean_linker_10, # of connection points: 2
#     Edge 41, Type (0, 0), BuildingBlock: TEMPAE_clean_linker_10, # of connection points: 2
# Relax obj value: 0.377
# Max RMSD: 0.197
# Mean RMSD: 0.197
data_MOF--net-wjn--node1-BEQFEK_clean_sbu_0--edge1-TEMPAE_clean_linker_10
_symmetry_space_group_name_H-M    P1
_symmetry_Int_Tables_number       1
_symmetry_cell_setting            triclinic
loop_
_symmetry_equiv_pos_as_xyz
'x, y, z'
_cell_length_a     35.477556
_cell_length_b     35.423436
_cell_length_c     76.646253
_cell_angle_alpha  90.007884
_cell_angle_beta   90.004712
_cell_angle_gamma 120.04755
loop_
_atom_site_label
_atom_site_type_symbol
_atom_site_fract_x
_atom_site_fract_y
_atom_site_fract_z
_atom_type_partial_charge
Co0 Co 0.14092 0.42433 0.10909 0.0
Co1 Co 0.2167 0.4156 0.12447 0.0
C2 C 0.20212 0.48746 0.13613 0.0
O3 O 0.16969 0.47235 0.1259 0.0
O4 O 0.22532 0.46936 0.13726 0.0
C5 C 0.12081 0.47724 0.0902 0.0
O6 O 0.16195 0.50474 0.09364 0.0
C7 C 0.30701 0.44026 0.13106 0.0
C8 C 0.30441 0.3767 0.13224 0.0
C9 C 0.33283 0.42133 0.13284 0.0
N10 N 0.2653 0.40836 0.12957 0.0
N11 N 0.26386 0.3704 0.13045 0.0
C12 C 0.32188 0.48768 0.12885 0.0
H13 H 0.29842 0.49188 0.12067 0.0
H14 H 0.35464 0.50524 0.12276 0.0
H15 H 0.3236 0.50224 0.14185 0.0
C16 C 0.17871 0.42093 0.07609 0.0
N17 N 0.17917 0.42125 0.09358 0.0
N18 N 0.21369 0.42059 0.09935 0.0
C19 C 0.23751 0.42159 0.08529 0.0
C20 C 0.21613 0.42259 0.07016 0.0
C21 C 0.14111 0.41476 0.06505 0.0
H22 H 0.10995 0.39514 0.0721 0.0
H23 H 0.14527 0.44705 0.06166 0.0
H24 H 0.13969 0.39779 0.05268 0.0
O25 O 0.10831 0.36968 0.12135 0.0
O26 O 0.16123 0.36322 0.13404 0.0
H27 H 0.27556 0.39376 0.09397 0.0
H28 H 0.29232 0.42127 0.0731 0.0
C29 C 0.27987 0.42217 0.08628 0.0
H30 H 0.30417 0.45219 0.09309 0.0
H31 H 0.23539 0.34025 0.12923 0.0
O32 O 0.10291 0.43849 0.09597 0.0
C33 C 0.12072 0.34923 0.13127 0.0
Co34 Co 0.70834 0.15032 0.43353 0.0
Co35 Co 0.79507 0.21603 0.4515 0.0
C36 C 0.71116 0.21988 0.45532 0.0
O37 O 0.69093 0.18883 0.4446 0.0
O38 O 0.75076 0.23288 0.45924 0.0
C39 C 0.63681 0.11829 0.40991 0.0
O40 O 0.64587 0.15905 0.40911 0.0
C41 C 0.8631 0.30603 0.45521 0.0
C42 C 0.91737 0.30232 0.46759 0.0
C43 C 0.90556 0.33154 0.46114 0.0
N44 N 0.8507 0.26389 0.45784 0.0
N45 N 0.88323 0.26177 0.46524 0.0
C46 C 0.83269 0.32066 0.44862 0.0
H47 H 0.80911 0.31579 0.45909 0.0
H48 H 0.81396 0.30021 0.43733 0.0
H49 H 0.8494 0.3555 0.44496 0.0
C50 C 0.76356 0.17403 0.40252 0.0
N51 N 0.75751 0.17958 0.41942 0.0
N52 N 0.79505 0.20691 0.42666 0.0
C53 C 0.82654 0.21967 0.41435 0.0
C54 C 0.80738 0.19879 0.39873 0.0
C55 C 0.72796 0.14516 0.39013 0.0
H56 H 0.70994 0.11151 0.39538 0.0
H57 H 0.70535 0.1579 0.3886 0.0
H58 H 0.74022 0.1442 0.37695 0.0
O59 O 0.71831 0.11706 0.45167 0.0
O60 O 0.78159 0.16091 0.46453 0.0
H61 H 0.88387 0.23711 0.4293 0.0
H62 H 0.89387 0.25029 0.40627 0.0
C63 C 0.87405 0.24892 0.41771 0.0
H64 H 0.88031 0.28224 0.42063 0.0
H65 H 0.88213 0.23273 0.46869 0.0
O66 O 0.65936 0.10822 0.41965 0.0
C67 C 0.74736 0.12343 0.46291 0.0
Co68 Co 0.57835 0.71647 0.77197 0.0
Co69 Co 0.59042 0.8018 0.78809 0.0
C70 C 0.515 0.71322 0.79832 0.0
O71 O 0.52847 0.6952 0.78769 0.0
O72 O 0.53546 0.75461 0.80004 0.0
C73 C 0.532 0.64241 0.75196 0.0
O74 O 0.50327 0.65545 0.75275 0.0
C75 C 0.56349 0.86673 0.78977 0.0
C76 C 0.61705 0.92136 0.80408 0.0
C77 C 0.57729 0.90839 0.7961 0.0
N78 N 0.59381 0.85591 0.79364 0.0
N79 N 0.62582 0.88868 0.80218 0.0
C80 C 0.52106 0.83633 0.78109 0.0
H81 H 0.51378 0.80213 0.7821 0.0
H82 H 0.52306 0.84454 0.76704 0.0
H83 H 0.49422 0.83953 0.787 0.0
C84 C 0.59021 0.76279 0.73917 0.0
N85 N 0.58308 0.75921 0.75648 0.0
N86 N 0.59098 0.79693 0.7629 0.0
C87 C 0.60434 0.82621 0.74964 0.0
C88 C 0.60412 0.80525 0.73424 0.0
C89 C 0.58729 0.7271 0.72767 0.0
H90 H 0.55284 0.70098 0.72666 0.0
H91 H 0.59862 0.73816 0.71419 0.0
H92 H 0.60676 0.71353 0.73331 0.0
O93 O 0.63287 0.73949 0.7852 0.0
O94 O 0.64203 0.7999 0.79809 0.0
H95 H 0.64248 0.89262 0.74052 0.0
H96 H 0.5954 0.88093 0.75336 0.0
C97 C 0.62255 0.87417 0.75195 0.0
H98 H 0.64268 0.88548 0.76395 0.0
H99 H 0.65345 0.88863 0.80682 0.0
O100 O 0.56871 0.66495 0.7593 0.0
C101 C 0.65461 0.77245 0.79502 0.0
Co102 Co 0.85909 0.58027 0.10934 0.0
Co103 Co 0.77823 0.58471 0.12131 0.0
C104 C 0.79149 0.51265 0.13369 0.0
O105 O 0.82696 0.52994 0.12517 0.0
O106 O 0.76723 0.52965 0.13347 0.0
C107 C 0.88572 0.53091 0.09145 0.0
O108 O 0.84454 0.50164 0.09379 0.0
C109 C 0.68679 0.55896 0.12662 0.0
C110 C 0.68835 0.62206 0.12585 0.0
C111 C 0.66052 0.57755 0.12763 0.0
N112 N 0.72827 0.59098 0.12452 0.0
N113 N 0.72903 0.62867 0.12414 0.0
C114 C 0.67246 0.5114 0.12598 0.0
H115 H 0.69441 0.50584 0.11741 0.0
H116 H 0.63854 0.49196 0.12111 0.0
H117 H 0.67404 0.5001 0.13932 0.0
C118 C 0.82837 0.58594 0.07485 0.0
N119 N 0.82408 0.58427 0.09227 0.0
N120 N 0.78738 0.58238 0.09658 0.0
C121 C 0.7659 0.58062 0.08168 0.0
C122 C 0.79123 0.58219 0.06743 0.0
C123 C 0.86895 0.59491 0.06534 0.0
H124 H 0.89809 0.61486 0.07351 0.0
H125 H 0.86717 0.56362 0.062 0.0
H126 H 0.87229 0.61266 0.05298 0.0
O127 O 0.88816 0.63383 0.1226 0.0
O128 O 0.83085 0.63663 0.13289 0.0
H129 H 0.72317 0.60533 0.08695 0.0
H130 H 0.70913 0.57167 0.06758 0.0
C131 C 0.72163 0.57592 0.08113 0.0
H132 H 0.69883 0.54742 0.08909 0.0
H133 H 0.75722 0.65881 0.12239 0.0
O134 O 0.90095 0.56903 0.09763 0.0
C135 C 0.87206 0.65218 0.13173 0.0
Co136 Co 0.27542 0.8619 0.44454 0.0
Co137 Co 0.18901 0.78125 0.45656 0.0
C138 C 0.27517 0.79423 0.46841 0.0
O139 O 0.29405 0.82926 0.4596 0.0
O140 O 0.23378 0.77121 0.46858 0.0
C141 C 0.34894 0.89321 0.42381 0.0
O142 O 0.33301 0.85133 0.42101 0.0
C143 C 0.12394 0.68922 0.46326 0.0
C144 C 0.06263 0.68658 0.4557 0.0
C145 C 0.07968 0.66066 0.46086 0.0
N146 N 0.13277 0.72985 0.45924 0.0
N147 N 0.09581 0.72808 0.45499 0.0
C148 C 0.15709 0.67878 0.47023 0.0
H149 H 0.18099 0.68393 0.45984 0.0
H150 H 0.14209 0.64498 0.47526 0.0
H151 H 0.17465 0.70116 0.48118 0.0
C152 C 0.23744 0.83253 0.40992 0.0
N153 N 0.23595 0.82771 0.42734 0.0
N154 N 0.20101 0.791 0.43175 0.0
C155 C 0.18053 0.76988 0.41688 0.0
C156 C 0.20348 0.79561 0.40262 0.0
C157 C 0.2673 0.87383 0.40035 0.0
H158 H 0.2795 0.90242 0.40914 0.0
H159 H 0.29502 0.87167 0.39481 0.0
H160 H 0.24991 0.87848 0.38925 0.0
O161 O 0.25042 0.88958 0.45815 0.0
O162 O 0.18879 0.83366 0.46818 0.0
H163 H 0.11187 0.72845 0.41933 0.0
H164 H 0.13647 0.71085 0.40307 0.0
C165 C 0.14087 0.72559 0.41623 0.0
H166 H 0.14343 0.70408 0.42609 0.0
H167 H 0.09349 0.75498 0.45094 0.0
O168 O 0.3289 0.90598 0.43372 0.0
C169 C 0.21568 0.87475 0.46705 0.0
Co170 Co 0.39646 0.26652 0.77909 0.0
Co171 Co 0.40202 0.18412 0.78796 0.0
C172 C 0.47354 0.27176 0.79859 0.0
O173 O 0.45262 0.28839 0.79165 0.0
O174 O 0.45827 0.23069 0.79822 0.0
C175 C 0.43014 0.33902 0.75845 0.0
O176 O 0.45641 0.32413 0.75457 0.0
C177 C 0.4322 0.1209 0.79316 0.0
C178 C 0.37499 0.05945 0.78445 0.0
C179 C 0.41748 0.07697 0.79027 0.0
N180 N 0.40016 0.1291 0.78892 0.0
N181 N 0.36595 0.0921 0.78387 0.0
C182 C 0.47488 0.15413 0.80085 0.0
H183 H 0.46886 0.1713 0.81164 0.0
H184 H 0.49457 0.17851 0.79073 0.0
H185 H 0.49337 0.13913 0.80618 0.0
C186 C 0.3821 0.23057 0.74386 0.0
N187 N 0.38872 0.2281 0.76096 0.0
N188 N 0.39734 0.19667 0.76379 0.0
C189 C 0.39989 0.1803 0.74812 0.0
C190 C 0.3907 0.2018 0.73496 0.0
C191 C 0.36341 0.25663 0.73618 0.0
H192 H 0.34608 0.26453 0.7463 0.0
H193 H 0.38958 0.28723 0.73039 0.0
H194 H 0.34033 0.23791 0.72553 0.0
O195 O 0.34863 0.23909 0.7951 0.0
O196 O 0.35156 0.17989 0.8027 0.0
H197 H 0.38507 0.11413 0.74699 0.0
H198 H 0.42854 0.1502 0.73266 0.0
C199 C 0.41393 0.14725 0.74575 0.0
H200 H 0.43774 0.15127 0.756 0.0
H201 H 0.33672 0.08936 0.77964 0.0
O202 O 0.39957 0.31851 0.76932 0.0
C203 C 0.33427 0.20407 0.80376 0.0
Co204 Co 0.55084 0.84546 0.57442 0.0
Co205 Co 0.57306 0.78142 0.55567 0.0
C206 C 0.48748 0.78176 0.54997 0.0
O207 O 0.49713 0.81101 0.56146 0.0
O208 O 0.51371 0.768 0.54638 0.0
C209 C 0.51029 0.87883 0.59737 0.0
O210 O 0.47487 0.84053 0.59578 0.0
C211 C 0.54965 0.69162 0.54904 0.0
C212 C 0.61181 0.69594 0.54163 0.0
C213 C 0.56806 0.66654 0.54448 0.0
N214 N 0.58082 0.73386 0.54877 0.0
N215 N 0.61793 0.73632 0.54421 0.0
C216 C 0.50408 0.67572 0.55517 0.0
H217 H 0.50358 0.69882 0.56482 0.0
H218 H 0.48992 0.64279 0.56109 0.0
H219 H 0.48372 0.67385 0.54385 0.0
C220 C 0.57409 0.81432 0.60546 0.0
N221 N 0.56544 0.81155 0.5883 0.0
N222 N 0.5783 0.78662 0.58074 0.0
C223 C 0.59694 0.77369 0.59304 0.0
C224 C 0.59501 0.79126 0.60905 0.0
C225 C 0.56446 0.84043 0.61823 0.0
H226 H 0.58412 0.87559 0.61499 0.0
H227 H 0.52945 0.83001 0.61751 0.0
H228 H 0.57154 0.8355 0.63186 0.0
O229 O 0.59846 0.88088 0.5579 0.0
O230 O 0.6178 0.83764 0.54447 0.0
H231 H 0.64496 0.76621 0.57913 0.0
H232 H 0.63509 0.74465 0.60117 0.0
C233 C 0.61973 0.74878 0.58925 0.0
H234 H 0.59594 0.71623 0.58398 0.0
H235 H 0.6476 0.76543 0.5433 0.0
O236 O 0.54451 0.88676 0.58914 0.0
C237 C 0.62242 0.87542 0.547 0.0
Co238 Co 0.71005 0.56468 0.895 0.0
Co239 Co 0.7964 0.57221 0.88268 0.0
C240 C 0.71099 0.49345 0.87394 0.0
O241 O 0.69223 0.50927 0.883 0.0
O242 O 0.75227 0.51429 0.87206 0.0
C243 C 0.64098 0.52551 0.91787 0.0
O244 O 0.65929 0.50194 0.92119 0.0
C245 C 0.86546 0.5502 0.87874 0.0
C246 C 0.92473 0.61526 0.87818 0.0
C247 C 0.91056 0.57102 0.87779 0.0
N248 N 0.85355 0.58071 0.87952 0.0
N249 N 0.88913 0.61953 0.87909 0.0
C250 C 0.83434 0.50231 0.88058 0.0
H251 H 0.80592 0.49659 0.88859 0.0
H252 H 0.85042 0.48561 0.88667 0.0
H253 H 0.82241 0.4881 0.86745 0.0
C254 C 0.75314 0.58613 0.92867 0.0
N255 N 0.75338 0.57908 0.91149 0.0
N256 N 0.7873 0.57538 0.90744 0.0
C257 C 0.8082 0.57679 0.92247 0.0
C258 C 0.78651 0.58301 0.93644 0.0
C259 C 0.72407 0.59975 0.93749 0.0
H260 H 0.71107 0.61383 0.92792 0.0
H261 H 0.69677 0.57147 0.9441 0.0
H262 H 0.74255 0.62444 0.9477 0.0
O263 O 0.72812 0.60985 0.8779 0.0
O264 O 0.79234 0.62003 0.86911 0.0
H265 H 0.87458 0.59727 0.91674 0.0
H266 H 0.85553 0.56841 0.93722 0.0
C267 C 0.84648 0.57003 0.9235 0.0
H268 H 0.83879 0.53941 0.91665 0.0
H269 H 0.88914 0.64895 0.87985 0.0
O270 O 0.65792 0.55586 0.90664 0.0
C271 C 0.76187 0.6294 0.86844 0.0
Co272 Co 0.12469 0.72791 0.22961 0.0
Co273 Co 0.21373 0.8063 0.21858 0.0
C274 C 0.19369 0.71587 0.21096 0.0
O275 O 0.15673 0.70162 0.21823 0.0
O276 O 0.22051 0.75669 0.21004 0.0
C277 C 0.08256 0.65902 0.25235 0.0
O278 O 0.12318 0.67105 0.25614 0.0
C279 C 0.30777 0.86667 0.21272 0.0
C280 C 0.3134 0.9301 0.21912 0.0
C281 C 0.33774 0.91088 0.21455 0.0
N282 N 0.2678 0.86011 0.21638 0.0
N283 N 0.27143 0.89826 0.22003 0.0
C284 C 0.31623 0.83147 0.2066 0.0
H285 H 0.29228 0.812 0.19635 0.0
H286 H 0.31196 0.80949 0.21768 0.0
H287 H 0.34934 0.84489 0.20104 0.0
C288 C 0.15044 0.76986 0.26378 0.0
N289 N 0.1575 0.76929 0.2466 0.0
N290 N 0.19791 0.79861 0.24292 0.0
C291 C 0.21889 0.81639 0.25812 0.0
C292 C 0.18926 0.79827 0.27184 0.0
C293 C 0.10677 0.74602 0.27248 0.0
H294 H 0.08021 0.73658 0.26285 0.0
H295 H 0.10288 0.71664 0.27926 0.0
H296 H 0.10433 0.76715 0.2826 0.0
O297 O 0.10517 0.75339 0.21224 0.0
O298 O 0.16795 0.80946 0.20316 0.0
H299 H 0.27382 0.88056 0.2566 0.0
H300 H 0.27868 0.84673 0.27297 0.0
C301 C 0.26683 0.84703 0.25959 0.0
H302 H 0.28446 0.83812 0.24998 0.0
H303 H 0.24533 0.90238 0.22359 0.0
O304 O 0.0746 0.67951 0.2407 0.0
C305 C 0.12635 0.78626 0.20246 0.0
Co306 Co 0.44056 0.1523 0.56225 0.0
Co307 Co 0.42048 0.22375 0.55011 0.0
C308 C 0.50177 0.22384 0.53872 0.0
O309 O 0.49114 0.19102 0.54839 0.0
O310 O 0.47719 0.2404 0.53755 0.0
C311 C 0.48914 0.12778 0.58336 0.0
O312 O 0.51031 0.1693 0.58756 0.0
C313 C 0.4401 0.31361 0.54546 0.0
C314 C 0.37533 0.30813 0.5463 0.0
C315 C 0.41943 0.33799 0.54487 0.0
N316 N 0.40973 0.27123 0.54702 0.0
N317 N 0.37101 0.26812 0.54741 0.0
C318 C 0.48809 0.33058 0.54644 0.0
H319 H 0.49481 0.31007 0.55541 0.0
H320 H 0.50587 0.3649 0.55103 0.0
H321 H 0.50022 0.32901 0.53327 0.0
C322 C 0.42238 0.17479 0.59665 0.0
N323 N 0.42731 0.1811 0.57934 0.0
N324 N 0.42298 0.21458 0.57494 0.0
C325 C 0.4174 0.23218 0.58975 0.0
C326 C 0.41748 0.20763 0.60399 0.0
C327 C 0.41631 0.1348 0.6059 0.0
H328 H 0.40473 0.10696 0.59674 0.0
H329 H 0.4475 0.14152 0.61188 0.0
H330 H 0.39221 0.12574 0.61661 0.0
O331 O 0.39123 0.12 0.54697 0.0
O332 O 0.37186 0.16811 0.53861 0.0
H333 H 0.38105 0.26393 0.58433 0.0
H334 H 0.414 0.28332 0.60385 0.0
C335 C 0.41266 0.27178 0.59028 0.0
H336 H 0.43896 0.29819 0.58248 0.0
H337 H 0.34173 0.23883 0.54889 0.0
O338 O 0.4571 0.11311 0.57291 0.0
C339 C 0.36632 0.12944 0.53845 0.0
Co340 Co 0.27985 0.40493 0.89795 0.0
Co341 Co 0.20027 0.41202 0.88634 0.0
C342 C 0.28915 0.48141 0.87627 0.0
O343 O 0.30419 0.46057 0.88451 0.0
O344 O 0.24823 0.46686 0.87562 0.0
C345 C 0.34841 0.43708 0.92112 0.0
O346 O 0.3356 0.46569 0.92351 0.0
C347 C 0.13749 0.4429 0.88191 0.0
C348 C 0.07487 0.38093 0.8834 0.0
C349 C 0.09264 0.42559 0.88169 0.0
N350 N 0.14572 0.40989 0.88358 0.0
N351 N 0.10813 0.37296 0.88436 0.0
C352 C 0.17194 0.49007 0.88212 0.0
H353 H 0.20033 0.49482 0.88991 0.0
H354 H 0.15916 0.51045 0.88761 0.0
H355 H 0.18307 0.50087 0.86856 0.0
C356 C 0.23958 0.39278 0.93214 0.0
N357 N 0.23937 0.39872 0.91487 0.0
N358 N 0.2098 0.4092 0.91094 0.0
C359 C 0.19262 0.41384 0.92605 0.0
C360 C 0.21169 0.40412 0.94 0.0
C361 C 0.26269 0.37245 0.94109 0.0
H362 H 0.27163 0.35458 0.93162 0.0
H363 H 0.29225 0.39776 0.94781 0.0
H364 H 0.24128 0.3494 0.95128 0.0
O365 O 0.25393 0.35581 0.8824 0.0
O366 O 0.19637 0.35957 0.87317 0.0
H367 H 0.12939 0.40487 0.92128 0.0
H368 H 0.15521 0.43583 0.9408 0.0
C369 C 0.16076 0.42968 0.92711 0.0
H370 H 0.17298 0.46006 0.91939 0.0
H371 H 0.10522 0.34235 0.88597 0.0
O372 O 0.32905 0.407 0.90992 0.0
C373 C 0.21975 0.34134 0.87321 0.0
Co374 Co 0.84831 0.28819 0.23587 0.0
Co375 Co 0.78091 0.19926 0.22011 0.0
C376 C 0.77984 0.28347 0.21268 0.0
O377 O 0.81065 0.304 0.22341 0.0
O378 O 0.7655 0.24308 0.20967 0.0
C379 C 0.87444 0.36073 0.25738 0.0
O380 O 0.83222 0.34517 0.25843 0.0
C381 C 0.69132 0.12795 0.21905 0.0
C382 C 0.69535 0.07698 0.20397 0.0
C383 C 0.66615 0.086 0.21244 0.0
N384 N 0.73317 0.14268 0.21482 0.0
N385 N 0.73546 0.11202 0.20586 0.0
C386 C 0.67598 0.15504 0.22832 0.0
H387 H 0.7011 0.19003 0.22794 0.0
H388 H 0.66971 0.14512 0.24221 0.0
H389 H 0.64528 0.15016 0.22241 0.0
C390 C 0.82576 0.23837 0.26835 0.0
N391 N 0.81859 0.24195 0.25136 0.0
N392 N 0.79021 0.20347 0.24509 0.0
C393 C 0.77857 0.17379 0.25812 0.0
C394 C 0.80092 0.19518 0.27322 0.0
C395 C 0.85741 0.27543 0.27961 0.0
H396 H 0.84496 0.29811 0.28177 0.0
H397 H 0.86173 0.26471 0.29264 0.0
H398 H 0.88953 0.29307 0.27306 0.0
O399 O 0.88136 0.27435 0.219 0.0
O400 O 0.83562 0.20857 0.20824 0.0
H401 H 0.75384 0.10761 0.267 0.0
H402 H 0.7161 0.11717 0.25471 0.0
C403 C 0.75061 0.1256 0.25578 0.0
H404 H 0.75965 0.11536 0.24354 0.0
H405 H 0.76427 0.11523 0.20085 0.0
O406 O 0.88886 0.34057 0.24841 0.0
C407 C 0.87358 0.24231 0.20913 0.0
C408 C 0.5909 0.52119 0.1413 0.0
C409 C 0.61263 0.55524 0.12931 0.0
C410 C 0.54535 0.49922 0.14274 0.0
C411 C 0.52105 0.51142 0.1318 0.0
C412 C 0.54297 0.54621 0.11983 0.0
C413 C 0.58861 0.56803 0.11887 0.0
C414 C 0.52323 0.46287 0.1559 0.0
C415 C 0.51818 0.55984 0.10781 0.0
C416 C 0.40265 0.42795 0.12275 0.0
C417 C 0.38087 0.44334 0.13323 0.0
C418 C 0.44831 0.44977 0.12219 0.0
C419 C 0.47265 0.48731 0.13265 0.0
C420 C 0.45072 0.50219 0.14366 0.0
C421 C 0.40501 0.48011 0.14374 0.0
C422 C 0.4705 0.4332 0.11013 0.0
C423 C 0.47552 0.54157 0.15524 0.0
H424 H 0.6096 0.51199 0.14968 0.0
H425 H 0.60548 0.59443 0.10961 0.0
H426 H 0.50274 0.46976 0.16481 0.0
H427 H 0.50132 0.43178 0.14911 0.0
H428 H 0.54692 0.45839 0.16382 0.0
H429 H 0.54013 0.58765 0.0993 0.0
H430 H 0.4959 0.53197 0.09942 0.0
H431 H 0.49778 0.56929 0.11554 0.0
H432 H 0.38392 0.39953 0.1146 0.0
H433 H 0.38811 0.49148 0.15211 0.0
H434 H 0.49267 0.42575 0.11767 0.0
H435 H 0.49071 0.45883 0.1005 0.0
H436 H 0.44686 0.40339 0.10295 0.0
H437 H 0.49806 0.53695 0.16383 0.0
H438 H 0.45357 0.54791 0.16352 0.0
H439 H 0.49564 0.57087 0.14715 0.0
C440 C 0.01236 0.58992 0.46751 0.0
C441 C 0.05546 0.61232 0.46153 0.0
C442 C 0.9884 0.5441 0.46766 0.0
C443 C 0.00812 0.52018 0.46173 0.0
C444 C 0.05157 0.54267 0.4556 0.0
C445 C 0.07441 0.58842 0.45528 0.0
C446 C 0.94184 0.52128 0.47397 0.0
C447 C 0.07384 0.51843 0.4492 0.0
C448 C 0.95722 0.40161 0.47589 0.0
C449 C 0.93303 0.37966 0.46107 0.0
C450 C 0.98226 0.44737 0.47624 0.0
C451 C 0.98285 0.47162 0.46144 0.0
C452 C 0.95937 0.44945 0.44628 0.0
C453 C 0.93547 0.40371 0.44618 0.0
C454 C 0.00779 0.46979 0.49247 0.0
C455 C 0.95906 0.47403 0.43023 0.0
H456 H 0.99736 0.60828 0.47207 0.0
H457 H 0.10691 0.60543 0.4498 0.0
H458 H 0.91985 0.50047 0.46341 0.0
H459 H 0.93789 0.49955 0.48509 0.0
H460 H 0.93132 0.5446 0.47819 0.0
H461 H 0.10859 0.54077 0.44587 0.0
H462 H 0.07206 0.49518 0.45932 0.0
H463 H 0.05693 0.49907 0.43745 0.0
H464 H 0.95597 0.38298 0.48731 0.0
H465 H 0.91868 0.38673 0.43439 0.0
H466 H 0.99596 0.49092 0.498 0.0
H467 H 0.04269 0.49117 0.48916 0.0
H468 H 0.00507 0.44621 0.50264 0.0
H469 H 0.94699 0.49657 0.43364 0.0
H470 H 0.93822 0.45189 0.41968 0.0
H471 H 0.99263 0.49419 0.42513 0.0
C472 C 0.4849 0.07228 0.78578 0.0
C473 C 0.44179 0.05321 0.79167 0.0
C474 C 0.50793 0.04967 0.7867 0.0
C475 C 0.48705 0.00665 0.79339 0.0
C476 C 0.44329 0.987 0.79914 0.0
C477 C 0.42112 0.01049 0.79813 0.0
C478 C 0.55444 0.07165 0.78033 0.0
C479 C 0.41982 0.94107 0.80623 0.0
C480 C 0.53138 0.93287 0.78029 0.0
C481 C 0.55466 0.93394 0.79524 0.0
C482 C 0.50909 0.95623 0.77955 0.0
C483 C 0.51067 0.98183 0.79401 0.0
C484 C 0.53498 0.98388 0.809 0.0
C485 C 0.55681 0.95999 0.8094 0.0
C486 C 0.48385 0.9535 0.76327 0.0
C487 C 0.5377 0.01109 0.82462 0.0
H488 H 0.50044 0.10464 0.78011 0.0
H489 H 0.3876 0.99552 0.8025 0.0
H490 H 0.5761 0.07197 0.79085 0.0
H491 H 0.55718 0.05306 0.76924 0.0
H492 H 0.56637 0.10575 0.77604 0.0
H493 H 0.386 0.93072 0.81036 0.0
H494 H 0.41865 0.91802 0.79615 0.0
H495 H 0.43783 0.9385 0.81758 0.0
H496 H 0.5311 0.91436 0.76902 0.0
H497 H 0.57507 0.96117 0.82094 0.0
H498 H 0.49678 0.98645 0.75752 0.0
H499 H 0.44918 0.94123 0.76658 0.0
H500 H 0.48546 0.93168 0.75324 0.0
H501 H 0.55136 0.04565 0.82068 0.0
H502 H 0.55826 0.00948 0.8352 0.0
H503 H 0.50459 -0.00023 0.82988 0.0
C504 C 0.50723 0.59423 0.53474 0.0
C505 C 0.54655 0.61845 0.54377 0.0
C506 C 0.48601 0.54848 0.53424 0.0
C507 C 0.50413 0.52647 0.54332 0.0
C508 C 0.54394 0.55092 0.55245 0.0
C509 C 0.56501 0.59671 0.55234 0.0
C510 C 0.44429 0.52371 0.52397 0.0
C511 C 0.56385 0.52871 0.56259 0.0
C512 C 0.42825 0.40808 0.55611 0.0
C513 C 0.43984 0.38597 0.54405 0.0
C514 C 0.44908 0.45385 0.55609 0.0
C515 C 0.48134 0.47788 0.54337 0.0
C516 C 0.49216 0.45545 0.53083 0.0
C517 C 0.47159 0.40975 0.53145 0.0
C518 C 0.43726 0.47653 0.5699 0.0
C519 C 0.52549 0.47973 0.51678 0.0
H520 H 0.49332 0.61118 0.5279 0.0
H521 H 0.59537 0.61554 0.55937 0.0
H522 H 0.44759 0.50245 0.51418 0.0
H523 H 0.41719 0.50221 0.53281 0.0
H524 H 0.43539 0.54577 0.5171 0.0
H525 H 0.59457 0.5524 0.56923 0.0
H526 H 0.54046 0.50679 0.57258 0.0
H527 H 0.57079 0.50816 0.55375 0.0
H528 H 0.40378 0.38958 0.56589 0.0
H529 H 0.48009 0.39249 0.52199 0.0
H530 H 0.42533 0.49688 0.5637 0.0
H531 H 0.4666 0.49871 0.57762 0.0
H532 H 0.41178 0.45315 0.57894 0.0
H533 H 0.51634 0.50077 0.50931 0.0
H534 H 0.52875 0.45734 0.50755 0.0
H535 H 0.55773 0.5014 0.52279 0.0
C536 C 0.97592 0.56863 0.88819 0.0
C537 C 0.93869 0.55125 0.87765 0.0
C538 C 0.00226 0.54947 0.88872 0.0
C539 C 0.99154 0.51262 0.87816 0.0
C540 C 0.95465 0.49578 0.86709 0.0
C541 C 0.92853 0.51521 0.86703 0.0
C542 C 0.04098 0.56804 0.90086 0.0
C543 C 0.94259 0.45704 0.85541 0.0
C544 C 0.07935 0.48334 0.86927 0.0
C545 C 0.06765 0.44871 0.88091 0.0
C546 C 0.05485 0.50448 0.8682 0.0
C547 C 0.01806 0.4908 0.87913 0.0
C548 C 0.00629 0.45593 0.89095 0.0
C549 C 0.03099 0.43502 0.89156 0.0
C550 C 0.06797 0.54103 0.85522 0.0
C551 C 0.96764 0.44074 0.90298 0.0
H552 H 0.9838 0.59658 0.89639 0.0
H553 H 0.90032 0.50241 0.85856 0.0
H554 H 0.03688 0.54297 0.91055 0.0
H555 H 0.07114 0.57706 0.89341 0.0
H556 H 0.04534 0.59729 0.90797 0.0
H557 H 0.91407 0.44918 0.847 0.0
H558 H 0.97056 0.46349 0.84693 0.0
H559 H 0.93486 0.42801 0.86345 0.0
H560 H 0.10708 0.49328 0.86073 0.0
H561 H 0.02192 0.40821 0.90056 0.0
H562 H 0.07449 0.57129 0.86208 0.0
H563 H 0.04089 0.53264 0.84594 0.0
H564 H 0.09746 0.54779 0.84769 0.0
H565 H 0.97152 0.46832 0.91115 0.0
H566 H 0.96347 0.41386 0.91169 0.0
H567 H 0.93745 0.42925 0.89521 0.0
C568 C 0.40942 0.91488 0.21996 0.0
C569 C 0.38589 0.93386 0.21336 0.0
C570 C 0.45514 0.93737 0.21954 0.0
C571 C 0.47787 0.98028 0.21275 0.0
C572 C 0.45426 -0.00027 0.2062 0.0
C573 C 0.40856 0.97629 0.20662 0.0
C574 C 0.47911 0.9155 0.22666 0.0
C575 C 0.4773 0.0456 0.19903 0.0
C576 C 0.59405 0.05652 0.2276 0.0
C577 C 0.61812 0.0573 0.21297 0.0
C578 C 0.54843 0.03139 0.22775 0.0
C579 C 0.52634 0.00553 0.21304 0.0
C580 C 0.55054 0.00467 0.19852 0.0
C581 C 0.59616 0.03059 0.19865 0.0
C582 C 0.52384 0.03308 0.24354 0.0
C583 C 0.5282 0.97696 0.18272 0.0
H584 H 0.3922 0.88286 0.22589 0.0
H585 H 0.39048 0.99126 0.2017 0.0
H586 H 0.50234 0.91622 0.21679 0.0
H587 H 0.49839 0.93351 0.23827 0.0
H588 H 0.45663 0.88107 0.23045 0.0
H589 H 0.4542 0.0557 0.19414 0.0
H590 H 0.49786 0.06879 0.20935 0.0
H591 H 0.49925 0.04825 0.1882 0.0
H592 H 0.61074 0.07527 0.23906 0.0
H593 H 0.61461 0.03067 0.18736 0.0
H594 H 0.50339 -0.00013 0.24898 0.0
H595 H 0.50164 0.04522 0.23969 0.0
H596 H 0.54591 0.0546 0.25396 0.0
H597 H 0.50677 0.9425 0.18667 0.0
H598 H 0.55177 0.97833 0.17284 0.0
H599 H 0.5072 0.98813 0.17654 0.0
C600 C 0.94521 0.54573 0.07086 0.0
C601 C 0.91517 0.51869 0.08341 0.0
C602 C 0.979 0.53882 0.06559 0.0
C603 C 0.98391 0.50606 0.074 0.0
C604 C 0.95142 0.47652 0.08565 0.0
C605 C 0.91669 0.48275 0.08992 0.0
C606 C 0.01108 0.56868 0.05212 0.0
C607 C 0.9557 0.44136 0.09508 0.0
C608 C 0.06481 0.46866 0.06891 0.0
C609 C 0.09375 0.49259 0.0823 0.0
C610 C 0.03169 0.47708 0.06412 0.0
C611 C 0.02636 0.50803 0.0738 0.0
C612 C 0.05808 0.53488 0.08627 0.0
C613 C 0.09218 0.52732 0.09009 0.0
C614 C 0.00048 0.45029 0.04982 0.0
C615 C 0.05333 0.56799 0.09706 0.0
H616 H 0.94323 0.57314 0.06565 0.0
H617 H 0.893 0.46196 0.09958 0.0
H618 H 0.03772 0.59773 0.05866 0.0
H619 H 0.02567 0.55217 0.04475 0.0
H620 H 0.99516 0.5803 0.04277 0.0
H621 H 0.92696 0.42068 0.1034 0.0
H622 H 0.95966 0.42001 0.08559 0.0
H623 H 0.98511 0.45652 0.1035 0.0
H624 H 0.06688 0.44219 0.06274 0.0
H625 H 0.11497 0.54562 0.10044 0.0
H626 H 0.98654 0.46845 0.04323 0.0
H627 H 0.9733 0.42003 0.05545 0.0
H628 H 0.01693 0.44057 0.03994 0.0
H629 H 0.04976 0.59116 0.08848 0.0
H630 H 0.08167 0.58694 0.10581 0.0
H631 H 0.02354 0.55112 0.10522 0.0
C632 C 0.56847 0.09205 0.39262 0.0
C633 C 0.59821 0.08332 0.40115 0.0
C634 C 0.52633 0.05801 0.38894 0.0
C635 C 0.51404 0.01541 0.3946 0.0
C636 C 0.5462 0.00568 0.40015 0.0
C637 C 0.58828 0.03998 0.40327 0.0
C638 C 0.49349 0.0684 0.38124 0.0
C639 C 0.5348 0.96009 0.40539 0.0
C640 C 0.417 0.96375 0.42435 0.0
C641 C 0.3893 0.92542 0.4154 0.0
C642 C 0.45709 0.99407 0.4173 0.0
C643 C 0.46891 0.98647 0.40052 0.0
C644 C 0.43963 0.949 0.3909 0.0
C645 C 0.40033 0.91823 0.39867 0.0
C646 C 0.48752 0.03312 0.4283 0.0
C647 C 0.44964 0.94033 0.3727 0.0
H648 H 0.57671 0.12544 0.39012 0.0
H649 H 0.61201 0.03292 0.40902 0.0
H650 H 0.46918 0.04075 0.37323 0.0
H651 H 0.47585 0.07419 0.39191 0.0
H652 H 0.50962 0.09825 0.37304 0.0
H653 H 0.56426 0.95729 0.40761 0.0
H654 H 0.51545 0.95089 0.41763 0.0
H655 H 0.51466 0.93641 0.39517 0.0
H656 H 0.4081 0.96912 0.43727 0.0
H657 H 0.3782 0.88876 0.39163 0.0
H658 H 0.49445 0.06368 0.42161 0.0
H659 H 0.51895 0.03398 0.4302 0.0
H660 H 0.47376 0.03275 0.44136 0.0
H661 H 0.4765 0.96978 0.36644 0.0
H662 H 0.42016 0.92779 0.36436 0.0
H663 H 0.45864 0.91453 0.3732 0.0
C664 C 0.42461 0.40557 0.76022 0.0
C665 C 0.43713 0.37985 0.75083 0.0
C666 C 0.43778 0.448 0.75485 0.0
C667 C 0.46294 0.46428 0.73944 0.0
C668 C 0.47112 0.43654 0.72882 0.0
C669 C 0.45884 0.39464 0.73487 0.0
C670 C 0.42841 0.47659 0.76664 0.0
C671 C 0.49538 0.45175 0.71177 0.0
C672 C 0.4826 0.57742 0.73408 0.0
C673 C 0.52031 0.60006 0.74424 0.0
C674 C 0.46628 0.53341 0.72999 0.0
C675 C 0.48747 0.51188 0.73683 0.0
C676 C 0.52835 0.53603 0.74519 0.0
C677 C 0.54458 0.58018 0.74861 0.0
C678 C 0.42434 0.50917 0.71986 0.0
C679 C 0.55236 0.51433 0.75249 0.0
H680 H 0.40729 0.39373 0.77246 0.0
H681 H 0.46732 0.37401 0.72735 0.0
H682 H 0.4594 0.50336 0.77201 0.0
H683 H 0.41264 0.49171 0.75917 0.0
H684 H 0.40687 0.45816 0.77774 0.0
H685 H 0.48387 0.42421 0.7024 0.0
H686 H 0.49153 0.47811 0.70575 0.0
H687 H 0.53056 0.46434 0.71407 0.0
H688 H 0.46461 0.59331 0.73013 0.0
H689 H 0.57437 0.59799 0.75609 0.0
H690 H 0.39649 0.49426 0.72906 0.0
H691 H 0.42368 0.48263 0.71192 0.0
H692 H 0.41969 0.53155 0.71113 0.0
H693 H 0.5334 0.49248 0.76343 0.0
H694 H 0.58525 0.53837 0.75742 0.0
H695 H 0.55601 0.49405 0.74237 0.0
C696 C 0.47071 0.91307 0.61076 0.0
C697 C 0.51002 0.9145 0.60704 0.0
C698 C 0.47039 0.95175 0.61418 0.0
C699 C 0.51007 0.99189 0.6134 0.0
C700 C 0.54997 0.99216 0.61329 0.0
C701 C 0.54951 0.95312 0.61005 0.0
C702 C 0.4273 0.95028 0.61559 0.0
C703 C 0.59304 0.03422 0.61339 0.0
C704 C 0.50072 0.06556 0.58059 0.0
C705 C 0.5003 0.09722 0.59123 0.0
C706 C 0.50579 0.03226 0.58774 0.0
C707 C 0.50926 0.03005 0.60612 0.0
C708 C 0.51034 0.06296 0.61693 0.0
C709 C 0.50626 0.09672 0.60926 0.0
C710 C 0.50587 0.9987 0.57554 0.0
C711 C 0.51323 0.06154 0.63654 0.0
H712 H 0.44011 0.88286 0.60918 0.0
H713 H 0.58014 0.95386 0.60807 0.0
H714 H 0.42981 0.97613 0.62451 0.0
H715 H 0.41764 0.95601 0.60251 0.0
H716 H 0.40132 0.91803 0.62037 0.0
H717 H 0.61986 0.02887 0.61778 0.0
H718 H 0.60059 0.0477 0.59995 0.0
H719 H 0.59188 0.05882 0.62198 0.0
H720 H 0.49638 0.06654 0.56662 0.0
H721 H 0.50551 0.12134 0.61743 0.0
H722 H 0.47673 0.96635 0.57798 0.0
H723 H 0.53514 0.99571 0.57783 0.0
H724 H 0.50561 0.00708 0.56159 0.0
H725 H 0.47979 0.04311 0.64197 0.0
H726 H 0.52916 0.0949 0.64218 0.0
H727 H 0.53126 0.04508 0.64081 0.0
C728 C 0.4065 0.47267 0.94367 0.0
C729 C 0.38579 0.44069 0.93078 0.0
C730 C 0.44801 0.48337 0.94962 0.0
C731 C 0.46905 0.46265 0.94192 0.0
C732 C 0.44506 0.42526 0.93136 0.0
C733 C 0.40335 0.41459 0.92594 0.0
C734 C 0.4714 0.52062 0.96226 0.0
C735 C 0.46573 0.40098 0.92337 0.0
C736 C 0.57449 0.53098 0.91887 0.0
C737 C 0.60035 0.51605 0.9265 0.0
C738 C 0.53253 0.51678 0.92494 0.0
C739 C 0.51657 0.48766 0.93931 0.0
C740 C 0.54437 0.47648 0.94833 0.0
C741 C 0.58611 0.49046 0.94164 0.0
C742 C 0.50417 0.52991 0.91486 0.0
C743 C 0.52958 0.44886 0.96462 0.0
H744 H 0.39186 0.49142 0.94819 0.0
H745 H 0.38645 0.38845 0.91658 0.0
H746 H 0.49497 0.51629 0.97031 0.0
H747 H 0.48973 0.55163 0.95492 0.0
H748 H 0.44798 0.52354 0.97098 0.0
H749 H 0.44107 0.36931 0.91763 0.0
H750 H 0.48846 0.42113 0.91285 0.0
H751 H 0.48475 0.39467 0.93323 0.0
H752 H 0.5859 0.55152 0.90736 0.0
H753 H 0.60704 0.48043 0.94794 0.0
H754 H 0.49093 0.54518 0.9237 0.0
H755 H 0.47623 0.50067 0.90896 0.0
H756 H 0.52222 0.5534 0.90422 0.0
H757 H 0.52521 0.46761 0.97524 0.0
H758 H 0.55351 0.43933 0.969 0.0
H759 H 0.49763 0.41893 0.96258 0.0
C760 C 0.006 0.5992 0.25273 0.0
C761 C 0.04668 0.62101 0.26089 0.0
C762 C 0.97438 0.55785 0.25837 0.0
C763 C 0.98372 0.53868 0.27272 0.0
C764 C 0.02191 0.56354 0.28265 0.0
C765 C 0.05365 0.60438 0.27638 0.0
C766 C 0.93347 0.53276 0.2476 0.0
C767 C 0.0311 0.5455 0.29889 0.0
C768 C 0.89078 0.42403 0.27664 0.0
C769 C 0.90513 0.40309 0.26513 0.0
C770 C 0.91844 0.46767 0.28135 0.0
C771 C 0.96037 0.49068 0.27381 0.0
C772 C 0.97636 0.46822 0.26369 0.0
C773 C 0.9486 0.42442 0.2597 0.0
C774 C 0.90133 0.48961 0.29324 0.0
C775 C 0.02108 0.49139 0.2554 0.0
H776 H 0.00017 0.61268 0.24101 0.0
H777 H 0.08455 0.62223 0.28315 0.0
H778 H 0.93411 0.50543 0.24079 0.0
H779 H 0.90434 0.5186 0.25612 0.0
H780 H 0.92991 0.55357 0.23765 0.0
H781 H 0.05244 0.57216 0.30799 0.0
H782 H 0.00051 0.52248 0.30575 0.0
H783 H 0.04823 0.52764 0.29531 0.0
H784 H 0.8575 0.40705 0.28135 0.0
H785 H 0.96011 0.40797 0.25113 0.0
H786 H 0.88095 0.49925 0.28559 0.0
H787 H 0.928 0.51914 0.29954 0.0
H788 H 0.88029 0.46664 0.30353 0.0
H789 H 0.02303 0.51591 0.24587 0.0
H790 H 0.02886 0.4686 0.24846 0.0
H791 H 0.04642 0.50892 0.26545 0.0
C792 C 0.23952 0.69849 0.19101 0.0
C793 C 0.20372 0.68421 0.2023 0.0
C794 C 0.24582 0.66863 0.18108 0.0
C795 C 0.2157 0.62336 0.18246 0.0
C796 C 0.181 0.60867 0.19457 0.0
C797 C 0.17542 0.63916 0.20429 0.0
C798 C 0.28332 0.68574 0.16838 0.0
C799 C 0.1482 0.56075 0.19658 0.0
C800 C 0.19023 0.54959 0.14304 0.0
C801 C 0.21065 0.52549 0.1472 0.0
C802 C 0.19307 0.58245 0.15409 0.0
C803 C 0.21696 0.59179 0.16984 0.0
C804 C 0.23927 0.56897 0.17382 0.0
C805 C 0.23595 0.53611 0.16243 0.0
C806 C 0.16896 0.60601 0.14918 0.0
C807 C 0.26518 0.57804 0.19044 0.0
H808 H 0.26172 0.73311 0.18938 0.0
H809 H 0.14789 0.62759 0.21308 0.0
H810 H 0.30064 0.66705 0.16949 0.0
H811 H 0.27066 0.68152 0.15486 0.0
H812 H 0.30702 0.72088 0.17051 0.0
H813 H 0.12596 0.55429 0.2078 0.0
H814 H 0.12831 0.54858 0.18453 0.0
H815 H 0.16502 0.54174 0.19839 0.0
H816 H 0.17098 0.54211 0.13122 0.0
H817 H 0.25184 0.51772 0.16576 0.0
H818 H 0.1914 0.6418 0.14944 0.0
H819 H 0.14281 0.59846 0.15884 0.0
H820 H 0.15395 0.59668 0.13601 0.0
H821 H 0.28778 0.61358 0.19199 0.0
H822 H 0.28428 0.561 0.19079 0.0
H823 H 0.24275 0.56711 0.20179 0.0
C824 C 0.70559 0.26906 0.47778 0.0
C825 C 0.68594 0.23638 0.46503 0.0
C826 C 0.68019 0.27857 0.48914 0.0
C827 C 0.63414 0.25407 0.48801 0.0
C828 C 0.61445 0.22355 0.4743 0.0
C829 C 0.64054 0.21551 0.46289 0.0
C830 C 0.70258 0.31272 0.50309 0.0
C831 C 0.56553 0.19628 0.47261 0.0
C832 C 0.56558 0.21782 0.52895 0.0
C833 C 0.54094 0.23874 0.52746 0.0
C834 C 0.59759 0.22448 0.51671 0.0
C835 C 0.60639 0.25382 0.50272 0.0
C836 C 0.58445 0.27803 0.50194 0.0
C837 C 0.55154 0.26986 0.51421 0.0
C838 C 0.61967 0.1975 0.51808 0.0
C839 C 0.59402 0.31087 0.48764 0.0
H840 H 0.74063 0.28589 0.47942 0.0
H841 H 0.62485 0.19058 0.45298 0.0
H842 H 0.68587 0.33182 0.50501 0.0
H843 H 0.70135 0.29661 0.51565 0.0
H844 H 0.73729 0.33543 0.49982 0.0
H845 H 0.55541 0.17691 0.46036 0.0
H846 H 0.55225 0.17342 0.48381 0.0
H847 H 0.55059 0.21726 0.47294 0.0
H848 H 0.55836 0.19421 0.53926 0.0
H849 H 0.53312 0.28658 0.51302 0.0
H850 H 0.65555 0.21886 0.51787 0.0
H851 H 0.61055 0.17522 0.5067 0.0
H852 H 0.61054 0.17755 0.53018 0.0
H853 H 0.62935 0.32934 0.48461 0.0
H854 H 0.58311 0.33427 0.49125 0.0
H855 H 0.57656 0.29363 0.4756 0.0
C856 C 0.45142 0.6398 0.80528 0.0
C857 C 0.47664 0.68434 0.80943 0.0
C858 C 0.41864 0.61018 0.81649 0.0
C859 C 0.41039 0.62514 0.83238 0.0
C860 C 0.43416 0.67037 0.8363 0.0
C861 C 0.467 0.69947 0.82478 0.0
C862 C 0.3942 0.5624 0.81165 0.0
C863 C 0.42624 0.68775 0.85303 0.0
C864 C 0.30511 0.54252 0.85516 0.0
C865 C 0.32009 0.52167 0.86649 0.0
C866 C 0.33427 0.57777 0.8446 0.0
C867 C 0.37952 0.5926 0.84533 0.0
C868 C 0.39493 0.573 0.85733 0.0
C869 C 0.36518 0.53797 0.86771 0.0
C870 C 0.31641 0.59784 0.83209 0.0
C871 C 0.4428 0.58762 0.85863 0.0
H872 H 0.45811 0.62763 0.79339 0.0
H873 H 0.48619 0.73372 0.82814 0.0
H874 H 0.40208 0.54362 0.8211 0.0
H875 H 0.35858 0.54948 0.81234 0.0
H876 H 0.40243 0.55642 0.79833 0.0
H877 H 0.44347 0.72396 0.85324 0.0
H878 H 0.39089 0.67504 0.85492 0.0
H879 H 0.43774 0.67641 0.86425 0.0
H880 H 0.27045 0.53047 0.85413 0.0
H881 H 0.37737 0.52255 0.87649 0.0
H882 H 0.31981 0.58906 0.81852 0.0
H883 H 0.3352 0.63393 0.83305 0.0
H884 H 0.28149 0.5865 0.83457 0.0
H885 H 0.45381 0.57971 0.84631 0.0
H886 H 0.44997 0.57168 0.8696 0.0
H887 H 0.46222 0.62348 0.86041 0.0
C888 C 0.80928 0.45744 0.14541 0.0
C889 C 0.77992 0.47306 0.14436 0.0
C890 C 0.8012 0.4222 0.1562 0.0
C891 C 0.76243 0.40131 0.16618 0.0
C892 C 0.73162 0.4155 0.16464 0.0
C893 C 0.74083 0.4514 0.15383 0.0
C894 C 0.83526 0.4086 0.15748 0.0
C895 C 0.68956 0.39365 0.17479 0.0
C896 C 0.74463 0.29486 0.18606 0.0
C897 C 0.76545 0.3095 0.20225 0.0
C898 C 0.74005 0.32353 0.17461 0.0
C899 C 0.757 0.36784 0.17941 0.0
C900 C 0.77481 0.38166 0.19629 0.0
C901 C 0.7785 0.35236 0.20748 0.0
C902 C 0.71987 0.30716 0.1569 0.0
C903 C 0.79347 0.42848 0.20205 0.0
H904 H 0.83948 0.47353 0.1381 0.0
H905 H 0.71771 0.46285 0.15303 0.0
H906 H 0.84873 0.41456 0.17092 0.0
H907 H 0.82043 0.3732 0.15484 0.0
H908 H 0.86258 0.42665 0.1482 0.0
H909 H 0.66647 0.4042 0.17033 0.0
H910 H 0.67366 0.35767 0.17357 0.0
H911 H 0.69646 0.40176 0.18884 0.0
H912 H 0.73423 0.26183 0.18189 0.0
H913 H 0.79405 0.36397 0.22006 0.0
H914 H 0.74593 0.31891 0.1469 0.0
H915 H 0.69802 0.31997 0.15341 0.0
H916 H 0.70106 0.27096 0.15638 0.0
H917 H 0.82341 0.4496 0.19444 0.0
H918 H 0.80197 0.43295 0.21614 0.0
H919 H 0.77005 0.43989 0.19949 0.0
C920 C 0.34774 0.81039 0.47995 0.0
C921 C 0.30245 0.78217 0.47924 0.0
C922 C 0.37416 0.80242 0.49119 0.0
C923 C 0.35516 0.76495 0.50198 0.0
C924 C 0.30985 0.73507 0.50074 0.0
C925 C 0.28397 0.74415 0.48946 0.0
C926 C 0.42226 0.83538 0.4921 0.0
C927 C 0.28845 0.69435 0.51177 0.0
C928 C 0.44072 0.74549 0.52353 0.0
C929 C 0.44777 0.7685 0.53923 0.0
C930 C 0.40817 0.74092 0.51174 0.0
C931 C 0.38242 0.76012 0.51569 0.0
C932 C 0.38722 0.78037 0.5321 0.0
C933 C 0.41951 0.78403 0.54367 0.0
C934 C 0.40342 0.71815 0.49456 0.0
C935 C 0.36067 0.80141 0.53693 0.0
H936 H 0.36265 0.83973 0.47207 0.0
H937 H 0.24919 0.72188 0.48894 0.0
H938 H 0.43038 0.85073 0.50522 0.0
H939 H 0.44168 0.81906 0.49018 0.0
H940 H 0.43237 0.86154 0.48217 0.0
H941 H 0.25459 0.67142 0.50747 0.0
H942 H 0.30751 0.67732 0.51132 0.0
H943 H 0.28753 0.7033 0.52557 0.0
H944 H 0.46206 0.73304 0.52 0.0
H945 H 0.42411 0.80133 0.55586 0.0
H946 H 0.41854 0.74282 0.48406 0.0
H947 H 0.36855 0.69688 0.49119 0.0
H948 H 0.41949 0.69812 0.49479 0.0
H949 H 0.37051 0.83049 0.52858 0.0
H950 H 0.36516 0.81191 0.5508 0.0
H951 H 0.32555 0.7786 0.53458 0.0
C952 C 0.6965 0.44364 0.84819 0.0
C953 C 0.68273 0.45276 0.864 0.0
C954 C 0.66658 0.4105 0.83699 0.0
C955 C 0.62201 0.38594 0.84177 0.0
C956 C 0.60881 0.3929 0.85831 0.0
C957 C 0.63922 0.42608 0.86918 0.0
C958 C 0.68216 0.40383 0.81957 0.0
C959 C 0.56182 0.36743 0.86408 0.0
C960 C 0.5317 0.34628 0.80798 0.0
C961 C 0.51486 0.30096 0.80807 0.0
C962 C 0.56785 0.37434 0.81822 0.0
C963 C 0.58809 0.35693 0.82888 0.0
C964 C 0.57274 0.3115 0.82839 0.0
C965 C 0.5363 0.28405 0.81802 0.0
C966 C 0.58305 0.42253 0.81824 0.0
C967 C 0.59357 0.29162 0.8394 0.0
H968 H 0.72999 0.46406 0.84405 0.0
H969 H 0.62832 0.43249 0.88146 0.0
H970 H 0.66805 0.36857 0.81676 0.0
H971 H 0.67114 0.41776 0.80912 0.0
H972 H 0.71823 0.41991 0.819 0.0
H973 H 0.55764 0.37365 0.87795 0.0
H974 H 0.5419 0.37665 0.85588 0.0
H975 H 0.5488 0.33195 0.86232 0.0
H976 H 0.51584 0.35994 0.80024 0.0
H977 H 0.52387 0.24921 0.81815 0.0
H978 H 0.6186 0.44179 0.81579 0.0
H979 H 0.57698 0.4322 0.83126 0.0
H980 H 0.56609 0.43136 0.80826 0.0
H981 H 0.62953 0.31054 0.83808 0.0
H982 H 0.58193 0.25713 0.83581 0.0
H983 H 0.58578 0.29276 0.85335 0.0
C984 C 0.25402 0.44062 0.96658 0.0
C985 C 0.21319 0.41419 0.95882 0.0
C986 C 0.25888 0.44418 0.98472 0.0
C987 C 0.22169 0.42201 0.99545 0.0
C988 C 0.1799 0.39736 0.98768 0.0
C989 C 0.17616 0.39335 0.96937 0.0
C990 C 0.30402 0.47039 0.99239 0.0
C991 C 0.13934 0.37433 0.99871 0.0
C992 C 0.23153 0.39442 0.04271 0.0
C993 C 0.22887 0.42752 0.05157 0.0
C994 C 0.23094 0.3931 0.02434 0.0
C995 C 0.22662 0.42508 0.01479 0.0
C996 C 0.22629 0.45978 0.02377 0.0
C997 C 0.22807 0.46087 0.04202 0.0
C998 C 0.2328 0.35637 0.01518 0.0
C999 C 0.2212 0.49423 0.01419 0.0
H1000 H 0.28264 0.45727 0.95836 0.0
H1001 H 0.14468 0.37274 0.96337 0.0
H1002 H 0.30602 0.49677 1.00082 0.0
H1003 H 0.31112 0.4491 1.00074 0.0
H1004 H 0.32961 0.48525 0.98219 0.0
H1005 H 0.10921 0.35884 0.99069 0.0
H1006 H 0.14042 0.34876 0.00669 0.0
H1007 H 0.13769 0.39773 0.00788 0.0
H1008 H 0.23146 0.3683 0.05011 0.0
H1009 H 0.22571 0.48632 0.04895 0.0
H1010 H 0.25789 0.36948 0.00476 0.0
H1011 H 0.20104 0.33461 0.00884 0.0
H1012 H 0.24028 0.33665 0.02431 0.0
H1013 H 0.24653 0.50978 0.00396 0.0
H1014 H 0.22338 0.52004 0.02307 0.0
H1015 H 0.1891 0.47883 0.00754 0.0
C1016 C 0.76869 0.16713 0.30236 0.0
C1017 C 0.80248 0.17773 0.29053 0.0
C1018 C 0.77561 0.1662 0.32037 0.0
C1019 C 0.81755 0.17696 0.32656 0.0
C1020 C 0.85041 0.18345 0.31448 0.0
C1021 C 0.84222 0.18313 0.29654 0.0
C1022 C 0.7391 0.1573 0.33282 0.0
C1023 C 0.89556 0.19524 0.32042 0.0
C1024 C 0.83787 0.23385 0.37023 0.0
C1025 C 0.82683 0.19914 0.38166 0.0
C1026 C 0.839 0.2281 0.35214 0.0
C1027 C 0.82791 0.18642 0.34546 0.0
C1028 C 0.82135 0.15272 0.35713 0.0
C1029 C 0.82151 0.15975 0.37516 0.0
C1030 C 0.84791 0.26545 0.34013 0.0
C1031 C 0.80924 0.1078 0.35068 0.0
H1032 H 0.73806 0.16312 0.29766 0.0
H1033 H 0.86841 0.19166 0.28729 0.0
H1034 H 0.73574 0.13311 0.3428 0.0
H1035 H 0.74667 0.1878 0.33976 0.0
H1036 H 0.70743 0.14482 0.32598 0.0
H1037 H 0.91445 0.19098 0.30981 0.0
H1038 H 0.91328 0.22992 0.32456 0.0
H1039 H 0.89427 0.17527 0.33179 0.0
H1040 H 0.8417 0.26417 0.37529 0.0
H1041 H 0.81251 0.13279 0.38409 0.0
H1042 H 0.81703 0.25916 0.33393 0.0
H1043 H 0.87056 0.26834 0.32955 0.0
H1044 H 0.86209 0.297 0.34723 0.0
H1045 H 0.77442 0.09028 0.3468 0.0
H1046 H 0.81394 0.08837 0.36093 0.0
H1047 H 0.82864 0.10959 0.33904 0.0
C1048 C 0.64911 0.83543 0.63154 0.0
C1049 C 0.61687 0.79411 0.62579 0.0
C1050 C 0.65733 0.84463 0.6494 0.0
C1051 C 0.63354 0.81125 0.6617 0.0
C1052 C 0.60507 0.76809 0.65578 0.0
C1053 C 0.59664 0.76012 0.63783 0.0
C1054 C 0.68766 0.89107 0.65502 0.0
C1055 C 0.58039 0.73116 0.66847 0.0
C1056 C 0.65697 0.8214 0.71029 0.0
C1057 C 0.62085 0.82314 0.71672 0.0
C1058 C 0.66333 0.82009 0.69227 0.0
C1059 C 0.63361 0.82203 0.68051 0.0
C1060 C 0.60043 0.82948 0.68703 0.0
C1061 C 0.59411 0.82942 0.70513 0.0
C1062 C 0.69889 0.81185 0.68599 0.0
C1063 C 0.56932 0.83384 0.6749 0.0
H1064 H 0.66431 0.86184 0.62217 0.0
H1065 H 0.57143 0.72832 0.63338 0.0
H1066 H 0.6681 0.90627 0.65885 0.0
H1067 H 0.70734 0.89243 0.66649 0.0
H1068 H 0.70999 0.91079 0.64431 0.0
H1069 H 0.56447 0.69889 0.66188 0.0
H1070 H 0.60258 0.73136 0.67873 0.0
H1071 H 0.55487 0.73539 0.67504 0.0
H1072 H 0.67737 0.81613 0.71936 0.0
H1073 H 0.56614 0.83059 0.71015 0.0
H1074 H 0.715 0.83127 0.67416 0.0
H1075 H 0.68435 0.77689 0.68248 0.0
H1076 H 0.72394 0.81958 0.69621 0.0
H1077 H 0.58762 0.85805 0.66453 0.0
H1078 H 0.54848 0.84408 0.6819 0.0
H1079 H 0.54791 0.8021 0.66842 0.0
C1080 C 0.82645 0.60511 0.96509 0.0
C1081 C 0.7892 0.5774 0.95546 0.0
C1082 C 0.82533 0.60443 0.98348 0.0
C1083 C 0.78577 0.57617 0.99227 0.0
C1084 C 0.74856 0.54733 0.9825 0.0
C1085 C 0.75107 0.54769 0.96428 0.0
C1086 C 0.86609 0.6346 0.99351 0.0
C1087 C 0.70559 0.51712 0.99124 0.0
C1088 C 0.7886 0.54587 0.03949 0.0
C1089 C 0.78155 0.57626 0.0485 0.0
C1090 C 0.79041 0.54578 0.02125 0.0
C1091 C 0.7833 0.57577 0.01169 0.0
C1092 C 0.77322 0.60465 0.02068 0.0
C1093 C 0.77296 0.60493 0.03907 0.0
C1094 C 0.80178 0.51481 0.01227 0.0
C1095 C 0.76396 0.63607 0.01089 0.0
H1096 H 0.85581 0.62826 0.95828 0.0
H1097 H 0.72238 0.52574 0.9568 0.0
H1098 H 0.86104 0.65864 1.00089 0.0
H1099 H 0.8734 0.61578 1.00315 0.0
H1100 H 0.89474 0.65256 0.98481 0.0
H1101 H 0.67937 0.49772 0.98167 0.0
H1102 H 0.70915 0.49433 1.00008 0.0
H1103 H 0.69529 0.53633 0.99935 0.0
H1104 H 0.79488 0.52342 0.04682 0.0
H1105 H 0.76795 0.62869 0.04603 0.0
H1106 H 0.832 0.5336 0.00451 0.0
H1107 H 0.77556 0.4935 1.00306 0.0
H1108 H 0.8068 0.49384 0.02166 0.0
H1109 H 0.79355 0.65997 0.00373 0.0
H1110 H 0.7537 0.65416 0.01972 0.0
H1111 H 0.73797 0.61826 1.00107 0.0
C1112 C 0.23362 0.79144 0.37404 0.0
C1113 C 0.19788 0.78657 0.38367 0.0
C1114 C 0.23378 0.79284 0.35577 0.0
C1115 C 0.19701 0.78881 0.34689 0.0
C1116 C 0.15981 0.78158 0.35655 0.0
C1117 C 0.16073 0.78064 0.37491 0.0
C1118 C 0.27399 0.80035 0.34604 0.0
C1119 C 0.11976 0.7765 0.3475 0.0
C1120 C 0.21226 0.83568 0.30091 0.0
C1121 C 0.19717 0.79801 0.29078 0.0
C1122 C 0.21283 0.83329 0.31926 0.0
C1123 C 0.19771 0.79227 0.3275 0.0
C1124 C 0.18382 0.75448 0.31718 0.0
C1125 C 0.18411 0.75793 0.29898 0.0
C1126 C 0.22854 0.87441 0.32984 0.0
C1127 C 0.16761 0.71019 0.32536 0.0
H1128 H 0.26236 0.79598 0.38089 0.0
H1129 H 0.13336 0.77743 0.38241 0.0
H1130 H 0.26541 0.77408 0.33632 0.0
H1131 H 0.28806 0.83159 0.33878 0.0
H1132 H 0.29935 0.80155 0.35491 0.0
H1133 H 0.09281 0.7688 0.35678 0.0
H1134 H 0.12791 0.8071 0.34052 0.0
H1135 H 0.1082 0.75017 0.33759 0.0
H1136 H 0.2221 0.86656 0.29454 0.0
H1137 H 0.17287 0.72885 0.29107 0.0
H1138 H 0.25519 0.87885 0.33871 0.0
H1139 H 0.20163 0.87167 0.33812 0.0
H1140 H 0.24053 0.90384 0.32148 0.0
H1141 H 0.19331 0.71064 0.33375 0.0
H1142 H 0.1578 0.684 0.31546 0.0
H1143 H 0.13918 0.70197 0.33386 0.0
C1144 C 0.4216 0.24275 0.70742 0.0
C1145 C 0.39716 0.2024 0.71582 0.0
C1146 C 0.42435 0.24585 0.68921 0.0
C1147 C 0.40333 0.20743 0.67905 0.0
C1148 C 0.37994 0.16629 0.68746 0.0
C1149 C 0.37691 0.16426 0.70582 0.0
C1150 C 0.44956 0.29036 0.68086 0.0
C1151 C 0.35796 0.12453 0.67706 0.0
C1152 C 0.38134 0.21568 0.63083 0.0
C1153 C 0.41634 0.21445 0.62301 0.0
C1154 C 0.37687 0.21401 0.64913 0.0
C1155 C 0.40783 0.21044 0.65969 0.0
C1156 C 0.4439 0.2106 0.65176 0.0
C1157 C 0.44792 0.21312 0.63357 0.0
C1158 C 0.33852 0.21494 0.65715 0.0
C1159 C 0.47761 0.20676 0.66245 0.0
H1160 H 0.43839 0.27223 0.71516 0.0
H1161 H 0.35799 0.13309 0.7123 0.0
H1162 H 0.47764 0.29296 0.67347 0.0
H1163 H 0.42858 0.29509 0.67141 0.0
H1164 H 0.46195 0.31715 0.69061 0.0
H1165 H 0.34155 0.09522 0.68554 0.0
H1166 H 0.33343 0.12478 0.66816 0.0
H1167 H 0.38229 0.12194 0.66882 0.0
H1168 H 0.35667 0.21618 0.62265 0.0
H1169 H 0.4752 0.21249 0.62749 0.0
H1170 H 0.34998 0.2415 0.66695 0.0
H1171 H 0.31754 0.18382 0.66409 0.0
H1172 H 0.31852 0.21985 0.64724 0.0
H1173 H 0.49313 0.2341 0.67189 0.0
H1174 H 0.50348 0.20693 0.65422 0.0
H1175 H 0.46175 0.17607 0.67011 0.0
C1176 C 0.94146 0.28863 0.19258 0.0
C1177 C 0.90945 0.24676 0.19782 0.0
C1178 C 0.97601 0.29504 0.18184 0.0
C1179 C 0.97949 0.25868 0.1764 0.0
C1180 C 0.94778 0.2162 0.1819 0.0
C1181 C 0.91269 0.21065 0.19241 0.0
C1182 C 0.00826 0.34091 0.17598 0.0
C1183 C 0.95124 0.17687 0.17688 0.0
C1184 C 0.04361 0.29115 0.13483 0.0
C1185 C 0.08629 0.31248 0.14138 0.0
C1186 C 0.00778 0.26824 0.1459 0.0
C1187 C 0.01487 0.26615 0.16395 0.0
C1188 C 0.05789 0.28187 0.17012 0.0
C1189 C 0.09334 0.30521 0.15875 0.0
C1190 C 0.96266 0.25185 0.13861 0.0
C1191 C 0.06674 0.27865 0.18914 0.0
H1192 H 0.93898 0.31667 0.1966 0.0
H1193 H 0.88828 0.17828 0.19663 0.0
H1194 H 0.04156 0.34984 0.18027 0.0
H1195 H 0.00858 0.34283 0.16153 0.0
H1196 H 0.00053 0.36546 0.18126 0.0
H1197 H 0.92224 0.14586 0.18101 0.0
H1198 H 0.95533 0.17591 0.16257 0.0
H1199 H 0.98054 0.17912 0.18309 0.0
H1200 H 0.038 0.29584 0.12129 0.0
H1201 H 0.12624 0.32117 0.16388 0.0
H1202 H 0.95172 0.27535 0.14196 0.0
H1203 H 0.93899 0.2199 0.14435 0.0
H1204 H 0.96196 0.24849 0.12418 0.0
H1205 H 0.06565 0.30508 0.1965 0.0
H1206 H 0.09939 0.28217 0.19109 0.0
H1207 H 0.04164 0.24705 0.19473 0.0
C1208 C 0.67637 0.90942 0.52225 0.0
C1209 C 0.65331 0.91365 0.53629 0.0
C1210 C 0.70032 0.94445 0.5107 0.0
C1211 C 0.70066 0.98433 0.5131 0.0
C1212 C 0.6799 0.9896 0.5279 0.0
C1213 C 0.65687 0.95446 0.53932 0.0
C1214 C 0.72299 0.93787 0.49534 0.0
C1215 C 0.67895 0.03125 0.53097 0.0
C1216 C 0.76882 0.08949 0.48729 0.0
C1217 C 0.73855 0.08653 0.47477 0.0
C1218 C 0.75813 0.05528 0.49927 0.0
C1219 C 0.71596 0.01776 0.49892 0.0
C1220 C 0.68601 0.01407 0.48592 0.0
C1221 C 0.69776 0.04812 0.47399 0.0
C1222 C 0.79136 0.05997 0.51266 0.0
C1223 C 0.64047 0.97508 0.48512 0.0
H1224 H 0.67433 0.87829 0.51986 0.0
H1225 H 0.63982 0.95856 0.55024 0.0
H1226 H 0.70354 0.93293 0.48335 0.0
H1227 H 0.75549 0.9671 0.49326 0.0
H1228 H 0.72704 0.90897 0.49712 0.0
H1229 H 0.66521 0.03175 0.54394 0.0
H1230 H 0.71218 0.05996 0.53001 0.0
H1231 H 0.65874 0.03481 0.52077 0.0
H1232 H 0.80053 0.11876 0.48795 0.0
H1233 H 0.67399 0.04506 0.46438 0.0
H1234 H 0.79222 0.02918 0.51383 0.0
H1235 H 0.78222 0.06689 0.52561 0.0
H1236 H 0.82452 0.08691 0.50936 0.0
H1237 H 0.64173 0.94447 0.48442 0.0
H1238 H 0.62178 0.97628 0.47371 0.0
H1239 H 0.62243 0.97364 0.49717 0.0
C1240 C 0.69811 0.7839 0.82211 0.0
C1241 C 0.69244 0.77506 0.80421 0.0
C1242 C 0.72344 0.77151 0.83208 0.0
C1243 C 0.74347 0.75018 0.82383 0.0
C1244 C 0.74344 0.74788 0.80541 0.0
C1245 C 0.71739 0.75982 0.79581 0.0
C1246 C 0.72361 0.77566 0.85166 0.0
C1247 C 0.76576 0.72708 0.796 0.0
C1248 C 0.79711 0.70129 0.8523 0.0
C1249 C 0.76144 0.6596 0.85529 0.0
C1250 C 0.79256 0.73143 0.84171 0.0
C1251 C 0.75149 0.7192 0.83411 0.0
C1252 C 0.71623 0.67629 0.83653 0.0
C1253 C 0.72176 0.64725 0.847 0.0
C1254 C 0.83104 0.77664 0.83935 0.0
C1255 C 0.67192 0.66115 0.82852 0.0
H1256 H 0.67918 0.79608 0.82862 0.0
H1257 H 0.71376 0.75384 0.78187 0.0
H1258 H 0.69944 0.74375 0.85735 0.0
H1259 H 0.75601 0.78463 0.8571 0.0
H1260 H 0.7149 0.80041 0.85576 0.0
H1261 H 0.77179 0.73715 0.78208 0.0
H1262 H 0.7972 0.73568 0.80232 0.0
H1263 H 0.7447 0.69107 0.79648 0.0
H1264 H 0.82775 0.71093 0.85881 0.0
H1265 H 0.69429 0.61477 0.84914 0.0
H1266 H 0.82836 0.79911 0.84869 0.0
H1267 H 0.83191 0.78914 0.82599 0.0
H1268 H 0.86224 0.77742 0.84191 0.0
H1269 H 0.6586 0.68171 0.83328 0.0
H1270 H 0.64813 0.62661 0.83168 0.0
H1271 H 0.67471 0.66445 0.81412 0.0
C1272 C 0.09298 0.7661 0.17347 0.0
C1273 C 0.10106 0.79156 0.18846 0.0
C1274 C 0.05539 0.75326 0.16343 0.0
C1275 C 0.02569 0.76719 0.16831 0.0
C1276 C 0.03659 0.7973 0.1822 0.0
C1277 C 0.07375 0.80838 0.1924 0.0
C1278 C 0.04508 0.72072 0.14889 0.0
C1279 C 0.00709 0.81468 0.18732 0.0
C1280 C 0.93358 0.72789 0.13544 0.0
C1281 C 0.90277 0.68821 0.14296 0.0
C1282 C 0.97211 0.75668 0.14438 0.0
C1283 C 0.98076 0.74432 0.16082 0.0
C1284 C 0.94814 0.70565 0.16893 0.0
C1285 C 0.90931 0.67835 0.15996 0.0
C1286 C 0.00494 0.79846 0.1356 0.0
C1287 C 0.956 0.69065 0.18631 0.0
H1288 H 0.11356 0.75225 0.17071 0.0
H1289 H 0.07951 0.82739 0.2042 0.0
H1290 H 0.01686 0.68881 0.15271 0.0
H1291 H 0.03594 0.73152 0.13685 0.0
H1292 H 0.07299 0.71584 0.14588 0.0
H1293 H 0.02485 0.84523 0.19503 0.0
H1294 H 0.99268 0.82106 0.17562 0.0
H1295 H 0.98 0.79017 0.19545 0.0
H1296 H 0.92882 0.73515 0.12215 0.0
H1297 H 0.8859 0.64714 0.16556 0.0
H1298 H 0.03012 0.79356 0.12912 0.0
H1299 H 0.02157 0.82517 0.14525 0.0
H1300 H 0.98938 0.80868 0.12551 0.0
H1301 H 0.98227 0.6825 0.18491 0.0
H1302 H 0.92639 0.66144 0.19134 0.0
H1303 H 0.96693 0.71704 0.19613 0.0
C1304 C 0.34342 0.06468 0.51978 0.0
C1305 C 0.33296 0.09432 0.52733 0.0
C1306 C 0.31274 0.02843 0.51039 0.0
C1307 C 0.26975 0.02082 0.50857 0.0
C1308 C 0.25875 0.05074 0.51606 0.0
C1309 C 0.2908 0.08766 0.52518 0.0
C1310 C 0.32664 0.99821 0.50243 0.0
C1311 C 0.21341 0.04398 0.5145 0.0
C1312 C 0.2244 0.94825 0.46954 0.0
C1313 C 0.21052 0.90739 0.47721 0.0
C1314 C 0.23819 0.9857 0.47979 0.0
C1315 C 0.23803 0.98211 0.49817 0.0
C1316 C 0.21747 0.94002 0.5059 0.0
C1317 C 0.20411 0.90292 0.49529 0.0
C1318 C 0.25894 0.02958 0.4709 0.0
C1319 C 0.21478 0.93463 0.52544 0.0
H1320 H 0.37609 0.06986 0.52126 0.0
H1321 H 0.2825 0.11036 0.53108 0.0
H1322 H 0.30693 0.96496 0.50795 0.0
H1323 H 0.32107 0.99582 0.48812 0.0
H1324 H 0.36156 0.00936 0.50481 0.0
H1325 H 0.2067 0.06164 0.52491 0.0
H1326 H 0.21004 0.05672 0.50173 0.0
H1327 H 0.18841 0.00886 0.51513 0.0
H1328 H 0.22886 0.95168 0.45551 0.0
H1329 H 0.19325 0.87141 0.50129 0.0
H1330 H 0.29491 0.04488 0.47162 0.0
H1331 H 0.24976 0.05163 0.47752 0.0
H1332 H 0.24946 0.02668 0.45694 0.0
H1333 H 0.24665 0.94074 0.53052 0.0
H1334 H 0.18951 0.90112 0.5293 0.0
H1335 H 0.2074 0.95849 0.53167 0.0
C1336 C 0.19567 0.26366 0.8673 0.0
C1337 C 0.21176 0.30614 0.86099 0.0
C1338 C 0.20353 0.23367 0.85826 0.0
C1339 C 0.22964 0.24733 0.84303 0.0
C1340 C 0.24281 0.28913 0.83592 0.0
C1341 C 0.2333 0.31784 0.84494 0.0
C1342 C 0.18712 0.18887 0.86588 0.0
C1343 C 0.27107 0.30547 0.81982 0.0
C1344 C 0.31522 0.21682 0.83303 0.0
C1345 C 0.30088 0.19645 0.81682 0.0
C1346 C 0.29021 0.23009 0.84266 0.0
C1347 C 0.24941 0.22181 0.83603 0.0
C1348 C 0.23233 0.19594 0.82084 0.0
C1349 C 0.25872 0.18432 0.81118 0.0
C1350 C 0.31003 0.25776 0.85872 0.0
C1351 C 0.18814 0.1844 0.8138 0.0
H1352 H 0.17974 0.25491 0.87992 0.0
H1353 H 0.24661 0.35107 0.84032 0.0
H1354 H 0.17835 0.16408 0.85546 0.0
H1355 H 0.21306 0.18892 0.87398 0.0
H1356 H 0.15828 0.17915 0.87435 0.0
H1357 H 0.2761 0.33752 0.81536 0.0
H1358 H 0.30339 0.30902 0.82264 0.0
H1359 H 0.2563 0.28175 0.80899 0.0
H1360 H 0.34821 0.22704 0.83717 0.0
H1361 H 0.24788 0.1692 0.79848 0.0
H1362 H 0.28632 0.24609 0.86962 0.0
H1363 H 0.3188 0.29193 0.85587 0.0
H1364 H 0.33985 0.25764 0.86307 0.0
H1365 H 0.16461 0.1774 0.82457 0.0
H1366 H 0.17513 0.15566 0.805 0.0
H1367 H 0.19079 0.21232 0.80624 0.0
loop_
_geom_bond_atom_site_label_1
_geom_bond_atom_site_label_2
_geom_bond_distance
_geom_bond_site_symmetry_2
_ccdc_geom_bond_type
Co0 O3 1.970 . S
Co0 N17 1.989 . S
Co0 O25 1.967 . S
Co0 O32 1.920 . S
Co1 O4 1.966 . S
Co1 N10 2.022 . S
Co1 N18 1.993 . S
Co1 O26 1.941 . S
C2 O3 1.258 . S
C2 O4 1.263 . S
O3 Co0 1.970 . S
O3 C2 1.258 . S
O4 Co1 1.966 . S
O4 C2 1.263 . S
C5 O6 1.235 . S
C5 O32 1.289 . S
O6 C5 1.235 . S
C7 C9 1.400 . S
C7 N10 1.351 . S
C7 C12 1.501 . S
C8 C9 1.387 . S
C8 N11 1.341 . S
C9 C7 1.400 . S
C9 C8 1.387 . S
N10 Co1 2.022 . S
N10 C7 1.351 . S
N10 N11 1.365 . S
N11 C8 1.341 . S
N11 N10 1.365 . S
N11 H31 0.862 . S
C12 C7 1.501 . S
C12 H13 0.961 . S
C12 H14 0.961 . S
C12 H15 0.960 . S
H13 C12 0.961 . S
H14 C12 0.961 . S
H15 C12 0.960 . S
C16 N17 1.342 . S
C16 C20 1.401 . S
C16 C21 1.499 . S
N17 Co0 1.989 . S
N17 C16 1.342 . S
N17 N18 1.388 . S
N18 Co1 1.993 . S
N18 N17 1.388 . S
N18 C19 1.346 . S
C19 N18 1.346 . S
C19 C20 1.396 . S
C19 C29 1.510 . S
C20 C16 1.401 . S
C20 C19 1.396 . S
C21 C16 1.499 . S
C21 H22 0.959 . S
C21 H23 0.960 . S
C21 H24 0.961 . S
H22 C21 0.959 . S
H23 C21 0.960 . S
H24 C21 0.961 . S
O25 Co0 1.967 . S
O25 C33 1.258 . S
O26 Co1 1.941 . S
O26 C33 1.266 . S
H27 C29 0.959 . S
H28 C29 0.961 . S
C29 C19 1.510 . S
C29 H27 0.959 . S
C29 H28 0.961 . S
C29 H30 0.960 . S
H30 C29 0.960 . S
H31 N11 0.862 . S
O32 Co0 1.920 . S
O32 C5 1.289 . S
C33 O25 1.258 . S
C33 O26 1.266 . S
Co34 O37 1.970 . S
Co34 N51 1.989 . S
Co34 O59 1.967 . S
Co34 O66 1.920 . S
Co35 O38 1.966 . S
Co35 N44 2.022 . S
Co35 N52 1.993 . S
Co35 O60 1.941 . S
C36 O37 1.258 . S
C36 O38 1.263 . S
O37 Co34 1.970 . S
O37 C36 1.258 . S
O38 Co35 1.966 . S
O38 C36 1.263 . S
C39 O40 1.235 . S
C39 O66 1.289 . S
O40 C39 1.235 . S
C41 C43 1.400 . S
C41 N44 1.351 . S
C41 C46 1.501 . S
C42 C43 1.387 . S
C42 N45 1.341 . S
C43 C41 1.400 . S
C43 C42 1.387 . S
N44 Co35 2.022 . S
N44 C41 1.351 . S
N44 N45 1.365 . S
N45 C42 1.341 . S
N45 N44 1.365 . S
N45 H65 0.862 . S
C46 C41 1.501 . S
C46 H47 0.961 . S
C46 H48 0.961 . S
C46 H49 0.960 . S
H47 C46 0.961 . S
H48 C46 0.961 . S
H49 C46 0.960 . S
C50 N51 1.342 . S
C50 C54 1.401 . S
C50 C55 1.499 . S
N51 Co34 1.989 . S
N51 C50 1.342 . S
N51 N52 1.388 . S
N52 Co35 1.993 . S
N52 N51 1.388 . S
N52 C53 1.346 . S
C53 N52 1.346 . S
C53 C54 1.396 . S
C53 C63 1.510 . S
C54 C50 1.401 . S
C54 C53 1.396 . S
C55 C50 1.499 . S
C55 H56 0.959 . S
C55 H57 0.960 . S
C55 H58 0.961 . S
H56 C55 0.959 . S
H57 C55 0.960 . S
H58 C55 0.961 . S
O59 Co34 1.967 . S
O59 C67 1.258 . S
O60 Co35 1.941 . S
O60 C67 1.266 . S
H61 C63 0.959 . S
H62 C63 0.961 . S
C63 C53 1.510 . S
C63 H61 0.959 . S
C63 H62 0.961 . S
C63 H64 0.960 . S
H64 C63 0.960 . S
H65 N45 0.862 . S
O66 Co34 1.920 . S
O66 C39 1.289 . S
C67 O59 1.258 . S
C67 O60 1.266 . S
Co68 O71 1.970 . S
Co68 N85 1.989 . S
Co68 O93 1.967 . S
Co68 O100 1.920 . S
Co69 O72 1.966 . S
Co69 N78 2.022 . S
Co69 N86 1.993 . S
Co69 O94 1.941 . S
C70 O71 1.258 . S
C70 O72 1.263 . S
O71 Co68 1.970 . S
O71 C70 1.258 . S
O72 Co69 1.966 . S
O72 C70 1.263 . S
C73 O74 1.235 . S
C73 O100 1.289 . S
O74 C73 1.235 . S
C75 C77 1.400 . S
C75 N78 1.351 . S
C75 C80 1.501 . S
C76 C77 1.387 . S
C76 N79 1.341 . S
C77 C75 1.400 . S
C77 C76 1.387 . S
N78 Co69 2.022 . S
N78 C75 1.351 . S
N78 N79 1.365 . S
N79 C76 1.341 . S
N79 N78 1.365 . S
N79 H99 0.862 . S
C80 C75 1.501 . S
C80 H81 0.961 . S
C80 H82 0.961 . S
C80 H83 0.960 . S
H81 C80 0.961 . S
H82 C80 0.961 . S
H83 C80 0.960 . S
C84 N85 1.342 . S
C84 C88 1.401 . S
C84 C89 1.499 . S
N85 Co68 1.989 . S
N85 C84 1.342 . S
N85 N86 1.388 . S
N86 Co69 1.993 . S
N86 N85 1.388 . S
N86 C87 1.346 . S
C87 N86 1.346 . S
C87 C88 1.396 . S
C87 C97 1.510 . S
C88 C84 1.401 . S
C88 C87 1.396 . S
C89 C84 1.499 . S
C89 H90 0.959 . S
C89 H91 0.960 . S
C89 H92 0.961 . S
H90 C89 0.959 . S
H91 C89 0.960 . S
H92 C89 0.961 . S
O93 Co68 1.967 . S
O93 C101 1.258 . S
O94 Co69 1.941 . S
O94 C101 1.266 . S
H95 C97 0.959 . S
H96 C97 0.961 . S
C97 C87 1.510 . S
C97 H95 0.959 . S
C97 H96 0.961 . S
C97 H98 0.960 . S
H98 C97 0.960 . S
H99 N79 0.862 . S
O100 Co68 1.920 . S
O100 C73 1.289 . S
C101 O93 1.258 . S
C101 O94 1.266 . S
Co102 O105 1.970 . S
Co102 N119 1.989 . S
Co102 O127 1.967 . S
Co102 O134 1.920 . S
Co103 O106 1.966 . S
Co103 N112 2.022 . S
Co103 N120 1.993 . S
Co103 O128 1.941 . S
C104 O105 1.258 . S
C104 O106 1.263 . S
O105 Co102 1.970 . S
O105 C104 1.258 . S
O106 Co103 1.966 . S
O106 C104 1.263 . S
C107 O108 1.235 . S
C107 O134 1.289 . S
O108 C107 1.235 . S
C109 C111 1.400 . S
C109 N112 1.351 . S
C109 C114 1.501 . S
C110 C111 1.387 . S
C110 N113 1.341 . S
C111 C109 1.400 . S
C111 C110 1.387 . S
N112 Co103 2.022 . S
N112 C109 1.351 . S
N112 N113 1.365 . S
N113 C110 1.341 . S
N113 N112 1.365 . S
N113 H133 0.862 . S
C114 C109 1.501 . S
C114 H115 0.961 . S
C114 H116 0.961 . S
C114 H117 0.960 . S
H115 C114 0.961 . S
H116 C114 0.961 . S
H117 C114 0.960 . S
C118 N119 1.342 . S
C118 C122 1.401 . S
C118 C123 1.499 . S
N119 Co102 1.989 . S
N119 C118 1.342 . S
N119 N120 1.388 . S
N120 Co103 1.993 . S
N120 N119 1.388 . S
N120 C121 1.346 . S
C121 N120 1.346 . S
C121 C122 1.396 . S
C121 C131 1.510 . S
C122 C118 1.401 . S
C122 C121 1.396 . S
C123 C118 1.499 . S
C123 H124 0.959 . S
C123 H125 0.960 . S
C123 H126 0.961 . S
H124 C123 0.959 . S
H125 C123 0.960 . S
H126 C123 0.961 . S
O127 Co102 1.967 . S
O127 C135 1.258 . S
O128 Co103 1.941 . S
O128 C135 1.266 . S
H129 C131 0.959 . S
H130 C131 0.961 . S
C131 C121 1.510 . S
C131 H129 0.959 . S
C131 H130 0.961 . S
C131 H132 0.960 . S
H132 C131 0.960 . S
H133 N113 0.862 . S
O134 Co102 1.920 . S
O134 C107 1.289 . S
C135 O127 1.258 . S
C135 O128 1.266 . S
Co136 O139 1.970 . S
Co136 N153 1.989 . S
Co136 O161 1.967 . S
Co136 O168 1.920 . S
Co137 O140 1.966 . S
Co137 N146 2.022 . S
Co137 N154 1.993 . S
Co137 O162 1.941 . S
C138 O139 1.258 . S
C138 O140 1.263 . S
O139 Co136 1.970 . S
O139 C138 1.258 . S
O140 Co137 1.966 . S
O140 C138 1.263 . S
C141 O142 1.235 . S
C141 O168 1.289 . S
O142 C141 1.235 . S
C143 C145 1.400 . S
C143 N146 1.351 . S
C143 C148 1.501 . S
C144 C145 1.387 . S
C144 N147 1.341 . S
C145 C143 1.400 . S
C145 C144 1.387 . S
N146 Co137 2.022 . S
N146 C143 1.351 . S
N146 N147 1.365 . S
N147 C144 1.341 . S
N147 N146 1.365 . S
N147 H167 0.862 . S
C148 C143 1.501 . S
C148 H149 0.961 . S
C148 H150 0.961 . S
C148 H151 0.960 . S
H149 C148 0.961 . S
H150 C148 0.961 . S
H151 C148 0.960 . S
C152 N153 1.342 . S
C152 C156 1.401 . S
C152 C157 1.499 . S
N153 Co136 1.989 . S
N153 C152 1.342 . S
N153 N154 1.388 . S
N154 Co137 1.993 . S
N154 N153 1.388 . S
N154 C155 1.346 . S
C155 N154 1.346 . S
C155 C156 1.396 . S
C155 C165 1.510 . S
C156 C152 1.401 . S
C156 C155 1.396 . S
C157 C152 1.499 . S
C157 H158 0.959 . S
C157 H159 0.960 . S
C157 H160 0.961 . S
H158 C157 0.959 . S
H159 C157 0.960 . S
H160 C157 0.961 . S
O161 Co136 1.967 . S
O161 C169 1.258 . S
O162 Co137 1.941 . S
O162 C169 1.266 . S
H163 C165 0.959 . S
H164 C165 0.961 . S
C165 C155 1.510 . S
C165 H163 0.959 . S
C165 H164 0.961 . S
C165 H166 0.960 . S
H166 C165 0.960 . S
H167 N147 0.862 . S
O168 Co136 1.920 . S
O168 C141 1.289 . S
C169 O161 1.258 . S
C169 O162 1.266 . S
Co170 O173 1.970 . S
Co170 N187 1.989 . S
Co170 O195 1.967 . S
Co170 O202 1.920 . S
Co171 O174 1.966 . S
Co171 N180 2.022 . S
Co171 N188 1.993 . S
Co171 O196 1.941 . S
C172 O173 1.258 . S
C172 O174 1.263 . S
O173 Co170 1.970 . S
O173 C172 1.258 . S
O174 Co171 1.966 . S
O174 C172 1.263 . S
C175 O176 1.235 . S
C175 O202 1.289 . S
O176 C175 1.235 . S
C177 C179 1.400 . S
C177 N180 1.351 . S
C177 C182 1.501 . S
C178 C179 1.387 . S
C178 N181 1.341 . S
C179 C177 1.400 . S
C179 C178 1.387 . S
N180 Co171 2.022 . S
N180 C177 1.351 . S
N180 N181 1.365 . S
N181 C178 1.341 . S
N181 N180 1.365 . S
N181 H201 0.862 . S
C182 C177 1.501 . S
C182 H183 0.961 . S
C182 H184 0.961 . S
C182 H185 0.960 . S
H183 C182 0.961 . S
H184 C182 0.961 . S
H185 C182 0.960 . S
C186 N187 1.342 . S
C186 C190 1.401 . S
C186 C191 1.499 . S
N187 Co170 1.989 . S
N187 C186 1.342 . S
N187 N188 1.388 . S
N188 Co171 1.993 . S
N188 N187 1.388 . S
N188 C189 1.346 . S
C189 N188 1.346 . S
C189 C190 1.396 . S
C189 C199 1.510 . S
C190 C186 1.401 . S
C190 C189 1.396 . S
C191 C186 1.499 . S
C191 H192 0.959 . S
C191 H193 0.960 . S
C191 H194 0.961 . S
H192 C191 0.959 . S
H193 C191 0.960 . S
H194 C191 0.961 . S
O195 Co170 1.967 . S
O195 C203 1.258 . S
O196 Co171 1.941 . S
O196 C203 1.266 . S
H197 C199 0.959 . S
H198 C199 0.961 . S
C199 C189 1.510 . S
C199 H197 0.959 . S
C199 H198 0.961 . S
C199 H200 0.960 . S
H200 C199 0.960 . S
H201 N181 0.862 . S
O202 Co170 1.920 . S
O202 C175 1.289 . S
C203 O195 1.258 . S
C203 O196 1.266 . S
Co204 O207 1.970 . S
Co204 N221 1.989 . S
Co204 O229 1.967 . S
Co204 O236 1.920 . S
Co205 O208 1.966 . S
Co205 N214 2.022 . S
Co205 N222 1.993 . S
Co205 O230 1.941 . S
C206 O207 1.258 . S
C206 O208 1.263 . S
O207 Co204 1.970 . S
O207 C206 1.258 . S
O208 Co205 1.966 . S
O208 C206 1.263 . S
C209 O210 1.235 . S
C209 O236 1.289 . S
O210 C209 1.235 . S
C211 C213 1.400 . S
C211 N214 1.351 . S
C211 C216 1.501 . S
C212 C213 1.387 . S
C212 N215 1.341 . S
C213 C211 1.400 . S
C213 C212 1.387 . S
N214 Co205 2.022 . S
N214 C211 1.351 . S
N214 N215 1.365 . S
N215 C212 1.341 . S
N215 N214 1.365 . S
N215 H235 0.862 . S
C216 C211 1.501 . S
C216 H217 0.961 . S
C216 H218 0.961 . S
C216 H219 0.960 . S
H217 C216 0.961 . S
H218 C216 0.961 . S
H219 C216 0.960 . S
C220 N221 1.342 . S
C220 C224 1.401 . S
C220 C225 1.499 . S
N221 Co204 1.989 . S
N221 C220 1.342 . S
N221 N222 1.388 . S
N222 Co205 1.993 . S
N222 N221 1.388 . S
N222 C223 1.346 . S
C223 N222 1.346 . S
C223 C224 1.396 . S
C223 C233 1.510 . S
C224 C220 1.401 . S
C224 C223 1.396 . S
C225 C220 1.499 . S
C225 H226 0.959 . S
C225 H227 0.960 . S
C225 H228 0.961 . S
H226 C225 0.959 . S
H227 C225 0.960 . S
H228 C225 0.961 . S
O229 Co204 1.967 . S
O229 C237 1.258 . S
O230 Co205 1.941 . S
O230 C237 1.266 . S
H231 C233 0.959 . S
H232 C233 0.961 . S
C233 C223 1.510 . S
C233 H231 0.959 . S
C233 H232 0.961 . S
C233 H234 0.960 . S
H234 C233 0.960 . S
H235 N215 0.862 . S
O236 Co204 1.920 . S
O236 C209 1.289 . S
C237 O229 1.258 . S
C237 O230 1.266 . S
Co238 O241 1.970 . S
Co238 N255 1.989 . S
Co238 O263 1.967 . S
Co238 O270 1.920 . S
Co239 O242 1.966 . S
Co239 N248 2.022 . S
Co239 N256 1.993 . S
Co239 O264 1.941 . S
C240 O241 1.258 . S
C240 O242 1.263 . S
O241 Co238 1.970 . S
O241 C240 1.258 . S
O242 Co239 1.966 . S
O242 C240 1.263 . S
C243 O244 1.235 . S
C243 O270 1.289 . S
O244 C243 1.235 . S
C245 C247 1.400 . S
C245 N248 1.351 . S
C245 C250 1.501 . S
C246 C247 1.387 . S
C246 N249 1.341 . S
C247 C245 1.400 . S
C247 C246 1.387 . S
N248 Co239 2.022 . S
N248 C245 1.351 . S
N248 N249 1.365 . S
N249 C246 1.341 . S
N249 N248 1.365 . S
N249 H269 0.862 . S
C250 C245 1.501 . S
C250 H251 0.961 . S
C250 H252 0.961 . S
C250 H253 0.960 . S
H251 C250 0.961 . S
H252 C250 0.961 . S
H253 C250 0.960 . S
C254 N255 1.342 . S
C254 C258 1.401 . S
C254 C259 1.499 . S
N255 Co238 1.989 . S
N255 C254 1.342 . S
N255 N256 1.388 . S
N256 Co239 1.993 . S
N256 N255 1.388 . S
N256 C257 1.346 . S
C257 N256 1.346 . S
C257 C258 1.396 . S
C257 C267 1.510 . S
C258 C254 1.401 . S
C258 C257 1.396 . S
C259 C254 1.499 . S
C259 H260 0.959 . S
C259 H261 0.960 . S
C259 H262 0.961 . S
H260 C259 0.959 . S
H261 C259 0.960 . S
H262 C259 0.961 . S
O263 Co238 1.967 . S
O263 C271 1.258 . S
O264 Co239 1.941 . S
O264 C271 1.266 . S
H265 C267 0.959 . S
H266 C267 0.961 . S
C267 C257 1.510 . S
C267 H265 0.959 . S
C267 H266 0.961 . S
C267 H268 0.960 . S
H268 C267 0.960 . S
H269 N249 0.862 . S
O270 Co238 1.920 . S
O270 C243 1.289 . S
C271 O263 1.258 . S
C271 O264 1.266 . S
Co272 O275 1.970 . S
Co272 N289 1.989 . S
Co272 O297 1.967 . S
Co272 O304 1.920 . S
Co273 O276 1.966 . S
Co273 N282 2.022 . S
Co273 N290 1.993 . S
Co273 O298 1.941 . S
C274 O275 1.258 . S
C274 O276 1.263 . S
O275 Co272 1.970 . S
O275 C274 1.258 . S
O276 Co273 1.966 . S
O276 C274 1.263 . S
C277 O278 1.235 . S
C277 O304 1.289 . S
O278 C277 1.235 . S
C279 C281 1.400 . S
C279 N282 1.351 . S
C279 C284 1.501 . S
C280 C281 1.387 . S
C280 N283 1.341 . S
C281 C279 1.400 . S
C281 C280 1.387 . S
N282 Co273 2.022 . S
N282 C279 1.351 . S
N282 N283 1.365 . S
N283 C280 1.341 . S
N283 N282 1.365 . S
N283 H303 0.862 . S
C284 C279 1.501 . S
C284 H285 0.961 . S
C284 H286 0.961 . S
C284 H287 0.960 . S
H285 C284 0.961 . S
H286 C284 0.961 . S
H287 C284 0.960 . S
C288 N289 1.342 . S
C288 C292 1.401 . S
C288 C293 1.499 . S
N289 Co272 1.989 . S
N289 C288 1.342 . S
N289 N290 1.388 . S
N290 Co273 1.993 . S
N290 N289 1.388 . S
N290 C291 1.346 . S
C291 N290 1.346 . S
C291 C292 1.396 . S
C291 C301 1.510 . S
C292 C288 1.401 . S
C292 C291 1.396 . S
C293 C288 1.499 . S
C293 H294 0.959 . S
C293 H295 0.960 . S
C293 H296 0.961 . S
H294 C293 0.959 . S
H295 C293 0.960 . S
H296 C293 0.961 . S
O297 Co272 1.967 . S
O297 C305 1.258 . S
O298 Co273 1.941 . S
O298 C305 1.266 . S
H299 C301 0.959 . S
H300 C301 0.961 . S
C301 C291 1.510 . S
C301 H299 0.959 . S
C301 H300 0.961 . S
C301 H302 0.960 . S
H302 C301 0.960 . S
H303 N283 0.862 . S
O304 Co272 1.920 . S
O304 C277 1.289 . S
C305 O297 1.258 . S
C305 O298 1.266 . S
Co306 O309 1.970 . S
Co306 N323 1.989 . S
Co306 O331 1.967 . S
Co306 O338 1.920 . S
Co307 O310 1.966 . S
Co307 N316 2.022 . S
Co307 N324 1.993 . S
Co307 O332 1.941 . S
C308 O309 1.258 . S
C308 O310 1.263 . S
O309 Co306 1.970 . S
O309 C308 1.258 . S
O310 Co307 1.966 . S
O310 C308 1.263 . S
C311 O312 1.235 . S
C311 O338 1.289 . S
O312 C311 1.235 . S
C313 C315 1.400 . S
C313 N316 1.351 . S
C313 C318 1.501 . S
C314 C315 1.387 . S
C314 N317 1.341 . S
C315 C313 1.400 . S
C315 C314 1.387 . S
N316 Co307 2.022 . S
N316 C313 1.351 . S
N316 N317 1.365 . S
N317 C314 1.341 . S
N317 N316 1.365 . S
N317 H337 0.862 . S
C318 C313 1.501 . S
C318 H319 0.961 . S
C318 H320 0.961 . S
C318 H321 0.960 . S
H319 C318 0.961 . S
H320 C318 0.961 . S
H321 C318 0.960 . S
C322 N323 1.342 . S
C322 C326 1.401 . S
C322 C327 1.499 . S
N323 Co306 1.989 . S
N323 C322 1.342 . S
N323 N324 1.388 . S
N324 Co307 1.993 . S
N324 N323 1.388 . S
N324 C325 1.346 . S
C325 N324 1.346 . S
C325 C326 1.396 . S
C325 C335 1.510 . S
C326 C322 1.401 . S
C326 C325 1.396 . S
C327 C322 1.499 . S
C327 H328 0.959 . S
C327 H329 0.960 . S
C327 H330 0.961 . S
H328 C327 0.959 . S
H329 C327 0.960 . S
H330 C327 0.961 . S
O331 Co306 1.967 . S
O331 C339 1.258 . S
O332 Co307 1.941 . S
O332 C339 1.266 . S
H333 C335 0.959 . S
H334 C335 0.961 . S
C335 C325 1.510 . S
C335 H333 0.959 . S
C335 H334 0.961 . S
C335 H336 0.960 . S
H336 C335 0.960 . S
H337 N317 0.862 . S
O338 Co306 1.920 . S
O338 C311 1.289 . S
C339 O331 1.258 . S
C339 O332 1.266 . S
Co340 O343 1.970 . S
Co340 N357 1.989 . S
Co340 O365 1.967 . S
Co340 O372 1.920 . S
Co341 O344 1.966 . S
Co341 N350 2.022 . S
Co341 N358 1.993 . S
Co341 O366 1.941 . S
C342 O343 1.258 . S
C342 O344 1.263 . S
O343 Co340 1.970 . S
O343 C342 1.258 . S
O344 Co341 1.966 . S
O344 C342 1.263 . S
C345 O346 1.235 . S
C345 O372 1.289 . S
O346 C345 1.235 . S
C347 C349 1.400 . S
C347 N350 1.351 . S
C347 C352 1.501 . S
C348 C349 1.387 . S
C348 N351 1.341 . S
C349 C347 1.400 . S
C349 C348 1.387 . S
N350 Co341 2.022 . S
N350 C347 1.351 . S
N350 N351 1.365 . S
N351 C348 1.341 . S
N351 N350 1.365 . S
N351 H371 0.862 . S
C352 C347 1.501 . S
C352 H353 0.961 . S
C352 H354 0.961 . S
C352 H355 0.960 . S
H353 C352 0.961 . S
H354 C352 0.961 . S
H355 C352 0.960 . S
C356 N357 1.342 . S
C356 C360 1.401 . S
C356 C361 1.499 . S
N357 Co340 1.989 . S
N357 C356 1.342 . S
N357 N358 1.388 . S
N358 Co341 1.993 . S
N358 N357 1.388 . S
N358 C359 1.346 . S
C359 N358 1.346 . S
C359 C360 1.396 . S
C359 C369 1.510 . S
C360 C356 1.401 . S
C360 C359 1.396 . S
C361 C356 1.499 . S
C361 H362 0.959 . S
C361 H363 0.960 . S
C361 H364 0.961 . S
H362 C361 0.959 . S
H363 C361 0.960 . S
H364 C361 0.961 . S
O365 Co340 1.967 . S
O365 C373 1.258 . S
O366 Co341 1.941 . S
O366 C373 1.266 . S
H367 C369 0.959 . S
H368 C369 0.961 . S
C369 C359 1.510 . S
C369 H367 0.959 . S
C369 H368 0.961 . S
C369 H370 0.960 . S
H370 C369 0.960 . S
H371 N351 0.862 . S
O372 Co340 1.920 . S
O372 C345 1.289 . S
C373 O365 1.258 . S
C373 O366 1.266 . S
Co374 O377 1.970 . S
Co374 N391 1.989 . S
Co374 O399 1.967 . S
Co374 O406 1.920 . S
Co375 O378 1.966 . S
Co375 N384 2.022 . S
Co375 N392 1.993 . S
Co375 O400 1.941 . S
C376 O377 1.258 . S
C376 O378 1.263 . S
O377 Co374 1.970 . S
O377 C376 1.258 . S
O378 Co375 1.966 . S
O378 C376 1.263 . S
C379 O380 1.235 . S
C379 O406 1.289 . S
O380 C379 1.235 . S
C381 C383 1.400 . S
C381 N384 1.351 . S
C381 C386 1.501 . S
C382 C383 1.387 . S
C382 N385 1.341 . S
C383 C381 1.400 . S
C383 C382 1.387 . S
N384 Co375 2.022 . S
N384 C381 1.351 . S
N384 N385 1.365 . S
N385 C382 1.341 . S
N385 N384 1.365 . S
N385 H405 0.862 . S
C386 C381 1.501 . S
C386 H387 0.961 . S
C386 H388 0.961 . S
C386 H389 0.960 . S
H387 C386 0.961 . S
H388 C386 0.961 . S
H389 C386 0.960 . S
C390 N391 1.342 . S
C390 C394 1.401 . S
C390 C395 1.499 . S
N391 Co374 1.989 . S
N391 C390 1.342 . S
N391 N392 1.388 . S
N392 Co375 1.993 . S
N392 N391 1.388 . S
N392 C393 1.346 . S
C393 N392 1.346 . S
C393 C394 1.396 . S
C393 C403 1.510 . S
C394 C390 1.401 . S
C394 C393 1.396 . S
C395 C390 1.499 . S
C395 H396 0.959 . S
C395 H397 0.960 . S
C395 H398 0.961 . S
H396 C395 0.959 . S
H397 C395 0.960 . S
H398 C395 0.961 . S
O399 Co374 1.967 . S
O399 C407 1.258 . S
O400 Co375 1.941 . S
O400 C407 1.266 . S
H401 C403 0.959 . S
H402 C403 0.961 . S
C403 C393 1.510 . S
C403 H401 0.959 . S
C403 H402 0.961 . S
C403 H404 0.960 . S
H404 C403 0.960 . S
H405 N385 0.862 . S
O406 Co374 1.920 . S
O406 C379 1.289 . S
C407 O399 1.258 . S
C407 O400 1.266 . S
C408 C409 1.391 . S
C408 C410 1.394 . S
C408 H424 0.931 . S
C409 C408 1.391 . S
C409 C413 1.376 . S
C410 C408 1.394 . S
C410 C411 1.369 . S
C410 C414 1.531 . S
C411 C410 1.369 . S
C411 C412 1.410 . S
C411 C419 1.503 . S
C412 C411 1.410 . S
C412 C413 1.392 . S
C412 C415 1.511 . S
C413 C409 1.376 . S
C413 C412 1.392 . S
C413 H425 0.929 . S
C414 C410 1.531 . S
C414 H426 0.960 . S
C414 H427 0.962 . S
C414 H428 0.960 . S
C415 C412 1.511 . S
C415 H429 0.961 . S
C415 H430 0.961 . S
C415 H431 0.961 . S
C416 C417 1.370 . S
C416 C418 1.363 . S
C416 H432 0.931 . S
C417 C416 1.370 . S
C417 C421 1.408 . S
C418 C416 1.363 . S
C418 C419 1.370 . S
C418 C422 1.524 . S
C419 C411 1.503 . S
C419 C418 1.370 . S
C419 C420 1.403 . S
C420 C419 1.403 . S
C420 C421 1.404 . S
C420 C423 1.539 . S
C421 C417 1.408 . S
C421 C420 1.404 . S
C421 H433 0.930 . S
C422 C418 1.524 . S
C422 H434 0.956 . S
C422 H435 0.961 . S
C422 H436 0.961 . S
C423 C420 1.539 . S
C423 H437 0.958 . S
C423 H438 0.961 . S
C423 H439 0.960 . S
H424 C408 0.931 . S
H425 C413 0.929 . S
H426 C414 0.960 . S
H427 C414 0.962 . S
H428 C414 0.960 . S
H429 C415 0.961 . S
H430 C415 0.961 . S
H431 C415 0.961 . S
H432 C416 0.931 . S
H433 C421 0.930 . S
H434 C422 0.956 . S
H435 C422 0.961 . S
H436 C422 0.961 . S
H437 C423 0.958 . S
H438 C423 0.961 . S
H439 C423 0.960 . S
C440 C441 1.391 . S
C440 C442 1.394 . S
C440 H456 0.931 . S
C441 C440 1.391 . S
C441 C445 1.376 . S
C442 C440 1.394 . S
C442 C443 1.369 . S
C442 C446 1.531 1_455 S
C443 C442 1.369 . S
C443 C444 1.410 . S
C443 C451 1.503 1_455 S
C444 C443 1.410 . S
C444 C445 1.392 . S
C444 C447 1.511 . S
C445 C441 1.376 . S
C445 C444 1.392 . S
C445 H457 0.929 . S
C446 C442 1.531 1_655 S
C446 H458 0.960 . S
C446 H459 0.962 . S
C446 H460 0.960 . S
C447 C444 1.511 . S
C447 H461 0.961 . S
C447 H462 0.961 . S
C447 H463 0.961 . S
C448 C449 1.370 . S
C448 C450 1.363 . S
C448 H464 0.931 . S
C449 C448 1.370 . S
C449 C453 1.408 . S
C450 C448 1.363 . S
C450 C451 1.381 . S
C450 C454 1.513 1_655 S
C451 C443 1.503 1_655 S
C451 C450 1.381 . S
C451 C452 1.403 . S
C452 C451 1.403 . S
C452 C453 1.404 . S
C452 C455 1.539 . S
C453 C449 1.408 . S
C453 C452 1.404 . S
C453 H465 0.930 . S
C454 C450 1.513 1_455 S
C454 H466 0.956 . S
C454 H467 0.961 . S
C454 H468 0.961 . S
C455 C452 1.539 . S
C455 H469 0.958 . S
C455 H470 0.961 . S
C455 H471 0.960 . S
H456 C440 0.931 . S
H457 C445 0.929 . S
H458 C446 0.960 . S
H459 C446 0.962 . S
H460 C446 0.960 . S
H461 C447 0.961 . S
H462 C447 0.961 . S
H463 C447 0.961 . S
H464 C448 0.931 . S
H465 C453 0.930 . S
H466 C454 0.956 . S
H467 C454 0.961 . S
H468 C454 0.961 . S
H469 C455 0.958 . S
H470 C455 0.961 . S
H471 C455 0.960 . S
C472 C473 1.391 . S
C472 C474 1.394 . S
C472 H488 0.931 . S
C473 C472 1.391 . S
C473 C477 1.376 . S
C474 C472 1.394 . S
C474 C475 1.369 . S
C474 C478 1.531 . S
C475 C474 1.369 . S
C475 C476 1.410 1_545 S
C475 C483 1.503 1_545 S
C476 C475 1.410 1_565 S
C476 C477 1.392 1_565 S
C476 C479 1.511 . S
C477 C473 1.376 . S
C477 C476 1.392 1_545 S
C477 H489 0.929 . S
C478 C474 1.531 . S
C478 H490 0.960 . S
C478 H491 0.962 . S
C478 H492 0.960 . S
C479 C476 1.511 . S
C479 H493 0.961 . S
C479 H494 0.961 . S
C479 H495 0.961 . S
C480 C481 1.370 . S
C480 C482 1.363 . S
C480 H496 0.931 . S
C481 C480 1.370 . S
C481 C485 1.408 . S
C482 C480 1.363 . S
C482 C483 1.370 . S
C482 C486 1.524 . S
C483 C475 1.503 1_565 S
C483 C482 1.370 . S
C483 C484 1.403 . S
C484 C483 1.403 . S
C484 C485 1.404 . S
C484 C487 1.528 1_565 S
C485 C481 1.408 . S
C485 C484 1.404 . S
C485 H497 0.930 . S
C486 C482 1.524 . S
C486 H498 0.956 1_565 S
C486 H499 0.961 . S
C486 H500 0.961 . S
C487 C484 1.528 1_545 S
C487 H501 0.973 . S
C487 H502 0.943 1_545 S
C487 H503 0.975 . S
H488 C472 0.931 . S
H489 C477 0.929 . S
H490 C478 0.960 . S
H491 C478 0.962 . S
H492 C478 0.960 . S
H493 C479 0.961 . S
H494 C479 0.961 . S
H495 C479 0.961 . S
H496 C480 0.931 . S
H497 C485 0.930 . S
H498 C486 0.956 1_545 S
H499 C486 0.961 . S
H500 C486 0.961 . S
H501 C487 0.973 . S
H502 C487 0.943 1_565 S
H503 C487 0.975 . S
C504 C505 1.391 . S
C504 C506 1.394 . S
C504 H520 0.931 . S
C505 C504 1.391 . S
C505 C509 1.376 . S
C506 C504 1.394 . S
C506 C507 1.369 . S
C506 C510 1.531 . S
C507 C506 1.369 . S
C507 C508 1.410 . S
C507 C515 1.503 . S
C508 C507 1.410 . S
C508 C509 1.392 . S
C508 C511 1.511 . S
C509 C505 1.376 . S
C509 C508 1.392 . S
C509 H521 0.929 . S
C510 C506 1.531 . S
C510 H522 0.960 . S
C510 H523 0.962 . S
C510 H524 0.960 . S
C511 C508 1.511 . S
C511 H525 0.961 . S
C511 H526 0.961 . S
C511 H527 0.961 . S
C512 C513 1.370 . S
C512 C514 1.363 . S
C512 H528 0.931 . S
C513 C512 1.370 . S
C513 C517 1.408 . S
C514 C512 1.363 . S
C514 C515 1.370 . S
C514 C518 1.524 . S
C515 C507 1.503 . S
C515 C514 1.370 . S
C515 C516 1.403 . S
C516 C515 1.403 . S
C516 C517 1.404 . S
C516 C519 1.539 . S
C517 C513 1.408 . S
C517 C516 1.404 . S
C517 H529 0.930 . S
C518 C514 1.524 . S
C518 H530 0.956 . S
C518 H531 0.961 . S
C518 H532 0.961 . S
C519 C516 1.539 . S
C519 H533 0.958 . S
C519 H534 0.961 . S
C519 H535 0.960 . S
H520 C504 0.931 . S
H521 C509 0.929 . S
H522 C510 0.960 . S
H523 C510 0.962 . S
H524 C510 0.960 . S
H525 C511 0.961 . S
H526 C511 0.961 . S
H527 C511 0.961 . S
H528 C512 0.931 . S
H529 C517 0.930 . S
H530 C518 0.956 . S
H531 C518 0.961 . S
H532 C518 0.961 . S
H533 C519 0.958 . S
H534 C519 0.961 . S
H535 C519 0.960 . S
C536 C537 1.391 . S
C536 C538 1.394 1_655 S
C536 H552 0.931 . S
C537 C536 1.391 . S
C537 C541 1.376 . S
C538 C536 1.394 1_455 S
C538 C539 1.369 1_455 S
C538 C542 1.531 . S
C539 C538 1.369 1_655 S
C539 C540 1.410 . S
C539 C547 1.503 1_655 S
C540 C539 1.410 . S
C540 C541 1.392 . S
C540 C543 1.511 . S
C541 C537 1.376 . S
C541 C540 1.392 . S
C541 H553 0.929 . S
C542 C538 1.531 . S
C542 H554 0.960 . S
C542 H555 0.962 . S
C542 H556 0.960 . S
C543 C540 1.511 . S
C543 H557 0.961 . S
C543 H558 0.961 . S
C543 H559 0.961 . S
C544 C545 1.370 . S
C544 C546 1.363 . S
C544 H560 0.931 . S
C545 C544 1.370 . S
C545 C549 1.408 . S
C546 C544 1.363 . S
C546 C547 1.370 . S
C546 C550 1.524 . S
C547 C539 1.503 1_455 S
C547 C546 1.370 . S
C547 C548 1.403 . S
C548 C547 1.403 . S
C548 C549 1.404 . S
C548 C551 1.539 1_455 S
C549 C545 1.408 . S
C549 C548 1.404 . S
C549 H561 0.930 . S
C550 C546 1.524 . S
C550 H562 0.956 . S
C550 H563 0.961 . S
C550 H564 0.961 . S
C551 C548 1.539 1_655 S
C551 H565 0.956 1_655 S
C551 H566 0.961 . S
C551 H567 0.960 . S
H552 C536 0.931 . S
H553 C541 0.929 . S
H554 C542 0.960 . S
H555 C542 0.962 . S
H556 C542 0.960 . S
H557 C543 0.961 . S
H558 C543 0.961 . S
H559 C543 0.961 . S
H560 C544 0.931 . S
H561 C549 0.930 . S
H562 C550 0.956 . S
H563 C550 0.961 . S
H564 C550 0.961 . S
H565 C551 0.956 1_455 S
H566 C551 0.961 . S
H567 C551 0.960 . S
C568 C569 1.391 . S
C568 C570 1.394 . S
C568 H584 0.931 . S
C569 C568 1.391 . S
C569 C573 1.376 . S
C570 C568 1.394 . S
C570 C571 1.369 . S
C570 C574 1.531 . S
C571 C570 1.369 . S
C571 C572 1.410 . S
C571 C579 1.503 1_565 S
C572 C571 1.410 . S
C572 C573 1.392 . S
C572 C575 1.511 . S
C573 C569 1.376 . S
C573 C572 1.392 . S
C573 H585 0.929 . S
C574 C570 1.531 . S
C574 H586 0.960 . S
C574 H587 0.962 . S
C574 H588 0.960 . S
C575 C572 1.511 . S
C575 H589 0.961 1_565 S
C575 H590 0.961 1_565 S
C575 H591 0.961 . S
C576 C577 1.370 . S
C576 C578 1.363 . S
C576 H592 0.931 . S
C577 C576 1.370 . S
C577 C581 1.408 . S
C578 C576 1.363 . S
C578 C579 1.370 . S
C578 C582 1.524 . S
C579 C571 1.503 1_545 S
C579 C578 1.370 . S
C579 C580 1.403 1_545 S
C580 C579 1.403 1_565 S
C580 C581 1.404 1_565 S
C580 C583 1.539 . S
C581 C577 1.408 . S
C581 C580 1.404 1_545 S
C581 H593 0.930 . S
C582 C578 1.524 . S
C582 H594 0.956 . S
C582 H595 0.961 . S
C582 H596 0.961 . S
C583 C580 1.539 . S
C583 H597 0.958 . S
C583 H598 0.961 . S
C583 H599 0.960 . S
H584 C568 0.931 . S
H585 C573 0.929 . S
H586 C574 0.960 . S
H587 C574 0.962 . S
H588 C574 0.960 . S
H589 C575 0.961 1_545 S
H590 C575 0.961 1_545 S
H591 C575 0.961 . S
H592 C576 0.931 . S
H593 C581 0.930 . S
H594 C582 0.956 . S
H595 C582 0.961 . S
H596 C582 0.961 . S
H597 C583 0.958 . S
H598 C583 0.961 . S
H599 C583 0.960 . S
C600 C601 1.391 . S
C600 C602 1.394 1_655 S
C600 H616 0.931 . S
C601 C600 1.391 . S
C601 C605 1.376 . S
C602 C600 1.394 1_455 S
C602 C603 1.369 1_455 S
C602 C606 1.531 . S
C603 C602 1.369 1_655 S
C603 C604 1.410 . S
C603 C611 1.503 1_655 S
C604 C603 1.410 . S
C604 C605 1.392 . S
C604 C607 1.511 . S
C605 C601 1.376 . S
C605 C604 1.392 . S
C605 H617 0.929 . S
C606 C602 1.531 . S
C606 H618 0.960 . S
C606 H619 0.962 . S
C606 H620 0.960 . S
C607 C604 1.511 . S
C607 H621 0.961 . S
C607 H622 0.961 . S
C607 H623 0.961 . S
C608 C609 1.370 . S
C608 C610 1.363 . S
C608 H624 0.931 . S
C609 C608 1.370 . S
C609 C613 1.408 . S
C610 C608 1.363 . S
C610 C611 1.370 . S
C610 C614 1.524 1_455 S
C611 C603 1.503 1_455 S
C611 C610 1.370 . S
C611 C612 1.403 . S
C612 C611 1.403 . S
C612 C613 1.404 . S
C612 C615 1.539 . S
C613 C609 1.408 . S
C613 C612 1.404 . S
C613 H625 0.930 . S
C614 C610 1.524 1_655 S
C614 H626 0.956 . S
C614 H627 0.961 . S
C614 H628 0.961 . S
C615 C612 1.539 . S
C615 H629 0.958 . S
C615 H630 0.961 . S
C615 H631 0.960 . S
H616 C600 0.931 . S
H617 C605 0.929 . S
H618 C606 0.960 . S
H619 C606 0.962 . S
H620 C606 0.960 . S
H621 C607 0.961 . S
H622 C607 0.961 . S
H623 C607 0.961 . S
H624 C608 0.931 . S
H625 C613 0.930 . S
H626 C614 0.956 . S
H627 C614 0.961 . S
H628 C614 0.961 . S
H629 C615 0.958 . S
H630 C615 0.961 . S
H631 C615 0.960 . S
C632 C633 1.391 . S
C632 C634 1.394 . S
C632 H648 0.931 . S
C633 C632 1.391 . S
C633 C637 1.376 . S
C634 C632 1.394 . S
C634 C635 1.369 . S
C634 C638 1.531 . S
C635 C634 1.369 . S
C635 C636 1.410 . S
C635 C643 1.503 1_545 S
C636 C635 1.410 . S
C636 C637 1.392 . S
C636 C639 1.511 1_545 S
C637 C633 1.376 . S
C637 C636 1.392 . S
C637 H649 0.929 . S
C638 C634 1.531 . S
C638 H650 0.960 . S
C638 H651 0.962 . S
C638 H652 0.960 . S
C639 C636 1.511 1_565 S
C639 H653 0.961 . S
C639 H654 0.961 . S
C639 H655 0.961 . S
C640 C641 1.370 . S
C640 C642 1.363 . S
C640 H656 0.931 . S
C641 C640 1.370 . S
C641 C645 1.408 . S
C642 C640 1.363 . S
C642 C643 1.370 . S
C642 C646 1.524 1_565 S
C643 C635 1.503 1_565 S
C643 C642 1.370 . S
C643 C644 1.403 . S
C644 C643 1.403 . S
C644 C645 1.404 . S
C644 C647 1.539 . S
C645 C641 1.408 . S
C645 C644 1.404 . S
C645 H657 0.930 . S
C646 C642 1.524 1_545 S
C646 H658 0.956 . S
C646 H659 0.961 . S
C646 H660 0.961 . S
C647 C644 1.539 . S
C647 H661 0.958 . S
C647 H662 0.961 . S
C647 H663 0.960 . S
H648 C632 0.931 . S
H649 C637 0.929 . S
H650 C638 0.960 . S
H651 C638 0.962 . S
H652 C638 0.960 . S
H653 C639 0.961 . S
H654 C639 0.961 . S
H655 C639 0.961 . S
H656 C640 0.931 . S
H657 C645 0.930 . S
H658 C646 0.956 . S
H659 C646 0.961 . S
H660 C646 0.961 . S
H661 C647 0.958 . S
H662 C647 0.961 . S
H663 C647 0.960 . S
C664 C665 1.391 . S
C664 C666 1.394 . S
C664 H680 0.931 . S
C665 C664 1.391 . S
C665 C669 1.376 . S
C666 C664 1.394 . S
C666 C667 1.369 . S
C666 C670 1.531 . S
C667 C666 1.369 . S
C667 C668 1.410 . S
C667 C675 1.503 . S
C668 C667 1.410 . S
C668 C669 1.392 . S
C668 C671 1.511 . S
C669 C665 1.376 . S
C669 C668 1.392 . S
C669 H681 0.929 . S
C670 C666 1.531 . S
C670 H682 0.960 . S
C670 H683 0.962 . S
C670 H684 0.960 . S
C671 C668 1.511 . S
C671 H685 0.961 . S
C671 H686 0.961 . S
C671 H687 0.961 . S
C672 C673 1.370 . S
C672 C674 1.363 . S
C672 H688 0.931 . S
C673 C672 1.370 . S
C673 C677 1.408 . S
C674 C672 1.363 . S
C674 C675 1.370 . S
C674 C678 1.524 . S
C675 C667 1.503 . S
C675 C674 1.370 . S
C675 C676 1.403 . S
C676 C675 1.403 . S
C676 C677 1.404 . S
C676 C679 1.539 . S
C677 C673 1.408 . S
C677 C676 1.404 . S
C677 H689 0.930 . S
C678 C674 1.524 . S
C678 H690 0.956 . S
C678 H691 0.961 . S
C678 H692 0.961 . S
C679 C676 1.539 . S
C679 H693 0.958 . S
C679 H694 0.961 . S
C679 H695 0.960 . S
H680 C664 0.931 . S
H681 C669 0.929 . S
H682 C670 0.960 . S
H683 C670 0.962 . S
H684 C670 0.960 . S
H685 C671 0.961 . S
H686 C671 0.961 . S
H687 C671 0.961 . S
H688 C672 0.931 . S
H689 C677 0.930 . S
H690 C678 0.956 . S
H691 C678 0.961 . S
H692 C678 0.961 . S
H693 C679 0.958 . S
H694 C679 0.961 . S
H695 C679 0.960 . S
C696 C697 1.391 . S
C696 C698 1.394 . S
C696 H712 0.931 . S
C697 C696 1.391 . S
C697 C701 1.376 . S
C698 C696 1.394 . S
C698 C699 1.369 . S
C698 C702 1.531 . S
C699 C698 1.369 . S
C699 C700 1.410 1_565 S
C699 C707 1.503 1_565 S
C700 C699 1.410 1_545 S
C700 C701 1.392 1_545 S
C700 C703 1.511 . S
C701 C697 1.376 . S
C701 C700 1.392 1_565 S
C701 H713 0.929 . S
C702 C698 1.531 . S
C702 H714 0.960 . S
C702 H715 0.962 . S
C702 H716 0.960 . S
C703 C700 1.511 . S
C703 H717 0.961 . S
C703 H718 0.961 . S
C703 H719 0.961 . S
C704 C705 1.370 . S
C704 C706 1.363 . S
C704 H720 0.931 . S
C705 C704 1.370 . S
C705 C709 1.408 . S
C706 C704 1.363 . S
C706 C707 1.370 . S
C706 C710 1.524 1_545 S
C707 C699 1.503 1_545 S
C707 C706 1.370 . S
C707 C708 1.403 . S
C708 C707 1.403 . S
C708 C709 1.404 . S
C708 C711 1.539 . S
C709 C705 1.408 . S
C709 C708 1.404 . S
C709 H721 0.930 . S
C710 C706 1.524 1_565 S
C710 H722 0.956 . S
C710 H723 0.961 1_565 S
C710 H724 0.961 1_565 S
C711 C708 1.539 . S
C711 H725 0.958 . S
C711 H726 0.961 . S
C711 H727 0.960 . S
H712 C696 0.931 . S
H713 C701 0.929 . S
H714 C702 0.960 . S
H715 C702 0.962 . S
H716 C702 0.960 . S
H717 C703 0.961 . S
H718 C703 0.961 . S
H719 C703 0.961 . S
H720 C704 0.931 . S
H721 C709 0.930 . S
H722 C710 0.956 . S
H723 C710 0.961 1_545 S
H724 C710 0.961 1_545 S
H725 C711 0.958 . S
H726 C711 0.961 . S
H727 C711 0.960 . S
C728 C729 1.391 . S
C728 C730 1.394 . S
C728 H744 0.931 . S
C729 C728 1.391 . S
C729 C733 1.376 . S
C730 C728 1.394 . S
C730 C731 1.369 . S
C730 C734 1.531 . S
C731 C730 1.369 . S
C731 C732 1.410 . S
C731 C739 1.503 . S
C732 C731 1.410 . S
C732 C733 1.392 . S
C732 C735 1.511 . S
C733 C729 1.376 . S
C733 C732 1.392 . S
C733 H745 0.929 . S
C734 C730 1.531 . S
C734 H746 0.960 . S
C734 H747 0.962 . S
C734 H748 0.960 . S
C735 C732 1.511 . S
C735 H749 0.961 . S
C735 H750 0.961 . S
C735 H751 0.961 . S
C736 C737 1.370 . S
C736 C738 1.363 . S
C736 H752 0.931 . S
C737 C736 1.370 . S
C737 C741 1.408 . S
C738 C736 1.363 . S
C738 C739 1.370 . S
C738 C742 1.524 . S
C739 C731 1.503 . S
C739 C738 1.370 . S
C739 C740 1.403 . S
C740 C739 1.403 . S
C740 C741 1.404 . S
C740 C743 1.539 . S
C741 C737 1.408 . S
C741 C740 1.404 . S
C741 H753 0.930 . S
C742 C738 1.524 . S
C742 H754 0.956 . S
C742 H755 0.961 . S
C742 H756 0.961 . S
C743 C740 1.539 . S
C743 H757 0.958 . S
C743 H758 0.961 . S
C743 H759 0.960 . S
H744 C728 0.931 . S
H745 C733 0.929 . S
H746 C734 0.960 . S
H747 C734 0.962 . S
H748 C734 0.960 . S
H749 C735 0.961 . S
H750 C735 0.961 . S
H751 C735 0.961 . S
H752 C736 0.931 . S
H753 C741 0.930 . S
H754 C742 0.956 . S
H755 C742 0.961 . S
H756 C742 0.961 . S
H757 C743 0.958 . S
H758 C743 0.961 . S
H759 C743 0.960 . S
C760 C761 1.391 . S
C760 C762 1.394 1_455 S
C760 H776 0.931 . S
C761 C760 1.391 . S
C761 C765 1.376 . S
C762 C760 1.394 1_655 S
C762 C763 1.369 1_655 S
C762 C766 1.531 . S
C763 C762 1.369 1_455 S
C763 C764 1.410 . S
C763 C771 1.503 1_455 S
C764 C763 1.410 . S
C764 C765 1.392 . S
C764 C767 1.511 . S
C765 C761 1.376 . S
C765 C764 1.392 . S
C765 H777 0.929 . S
C766 C762 1.531 . S
C766 H778 0.960 . S
C766 H779 0.962 . S
C766 H780 0.960 . S
C767 C764 1.511 . S
C767 H781 0.961 . S
C767 H782 0.961 . S
C767 H783 0.961 . S
C768 C769 1.370 . S
C768 C770 1.363 . S
C768 H784 0.931 . S
C769 C768 1.370 . S
C769 C773 1.408 . S
C770 C768 1.363 . S
C770 C771 1.370 . S
C770 C774 1.524 . S
C771 C763 1.503 1_655 S
C771 C770 1.370 . S
C771 C772 1.403 . S
C772 C771 1.403 . S
C772 C773 1.404 . S
C772 C775 1.542 . S
C773 C769 1.408 . S
C773 C772 1.404 . S
C773 H785 0.930 . S
C774 C770 1.524 . S
C774 H786 0.956 . S
C774 H787 0.961 1_655 S
C774 H788 0.961 . S
C775 C772 1.542 . S
C775 H789 0.967 . S
C775 H790 0.955 1_655 S
C775 H791 0.954 1_655 S
H776 C760 0.931 . S
H777 C765 0.929 . S
H778 C766 0.960 . S
H779 C766 0.962 . S
H780 C766 0.960 . S
H781 C767 0.961 . S
H782 C767 0.961 . S
H783 C767 0.961 . S
H784 C768 0.931 . S
H785 C773 0.930 . S
H786 C774 0.956 . S
H787 C774 0.961 1_455 S
H788 C774 0.961 . S
H789 C775 0.967 . S
H790 C775 0.955 1_455 S
H791 C775 0.954 1_455 S
C792 C793 1.391 . S
C792 C794 1.394 . S
C792 H808 0.931 . S
C793 C792 1.391 . S
C793 C797 1.376 . S
C794 C792 1.394 . S
C794 C795 1.369 . S
C794 C798 1.531 . S
C795 C794 1.369 . S
C795 C796 1.410 . S
C795 C803 1.503 . S
C796 C795 1.410 . S
C796 C797 1.392 . S
C796 C799 1.511 . S
C797 C793 1.376 . S
C797 C796 1.392 . S
C797 H809 0.929 . S
C798 C794 1.531 . S
C798 H810 0.960 . S
C798 H811 0.962 . S
C798 H812 0.960 . S
C799 C796 1.511 . S
C799 H813 0.961 . S
C799 H814 0.961 . S
C799 H815 0.961 . S
C800 C801 1.370 . S
C800 C802 1.363 . S
C800 H816 0.931 . S
C801 C800 1.370 . S
C801 C805 1.408 . S
C802 C800 1.363 . S
C802 C803 1.370 . S
C802 C806 1.524 . S
C803 C795 1.503 . S
C803 C802 1.370 . S
C803 C804 1.403 . S
C804 C803 1.403 . S
C804 C805 1.404 . S
C804 C807 1.539 . S
C805 C801 1.408 . S
C805 C804 1.404 . S
C805 H817 0.930 . S
C806 C802 1.524 . S
C806 H818 0.956 . S
C806 H819 0.961 . S
C806 H820 0.961 . S
C807 C804 1.539 . S
C807 H821 0.958 . S
C807 H822 0.961 . S
C807 H823 0.960 . S
H808 C792 0.931 . S
H809 C797 0.929 . S
H810 C798 0.960 . S
H811 C798 0.962 . S
H812 C798 0.960 . S
H813 C799 0.961 . S
H814 C799 0.961 . S
H815 C799 0.961 . S
H816 C800 0.931 . S
H817 C805 0.930 . S
H818 C806 0.956 . S
H819 C806 0.961 . S
H820 C806 0.961 . S
H821 C807 0.958 . S
H822 C807 0.961 . S
H823 C807 0.960 . S
C824 C825 1.391 . S
C824 C826 1.394 . S
C824 H840 0.931 . S
C825 C824 1.391 . S
C825 C829 1.376 . S
C826 C824 1.394 . S
C826 C827 1.369 . S
C826 C830 1.531 . S
C827 C826 1.369 . S
C827 C828 1.410 . S
C827 C835 1.503 . S
C828 C827 1.410 . S
C828 C829 1.392 . S
C828 C831 1.511 . S
C829 C825 1.376 . S
C829 C828 1.392 . S
C829 H841 0.929 . S
C830 C826 1.531 . S
C830 H842 0.960 . S
C830 H843 0.962 . S
C830 H844 0.960 . S
C831 C828 1.511 . S
C831 H845 0.961 . S
C831 H846 0.961 . S
C831 H847 0.961 . S
C832 C833 1.370 . S
C832 C834 1.363 . S
C832 H848 0.931 . S
C833 C832 1.370 . S
C833 C837 1.408 . S
C834 C832 1.363 . S
C834 C835 1.370 . S
C834 C838 1.524 . S
C835 C827 1.503 . S
C835 C834 1.370 . S
C835 C836 1.403 . S
C836 C835 1.403 . S
C836 C837 1.404 . S
C836 C839 1.539 . S
C837 C833 1.408 . S
C837 C836 1.404 . S
C837 H849 0.930 . S
C838 C834 1.524 . S
C838 H850 0.956 . S
C838 H851 0.961 . S
C838 H852 0.961 . S
C839 C836 1.539 . S
C839 H853 0.958 . S
C839 H854 0.961 . S
C839 H855 0.960 . S
H840 C824 0.931 . S
H841 C829 0.929 . S
H842 C830 0.960 . S
H843 C830 0.962 . S
H844 C830 0.960 . S
H845 C831 0.961 . S
H846 C831 0.961 . S
H847 C831 0.961 . S
H848 C832 0.931 . S
H849 C837 0.930 . S
H850 C838 0.956 . S
H851 C838 0.961 . S
H852 C838 0.961 . S
H853 C839 0.958 . S
H854 C839 0.961 . S
H855 C839 0.960 . S
C856 C857 1.391 . S
C856 C858 1.394 . S
C856 H872 0.931 . S
C857 C856 1.391 . S
C857 C861 1.376 . S
C858 C856 1.394 . S
C858 C859 1.369 . S
C858 C862 1.531 . S
C859 C858 1.369 . S
C859 C860 1.410 . S
C859 C867 1.503 . S
C860 C859 1.410 . S
C860 C861 1.392 . S
C860 C863 1.511 . S
C861 C857 1.376 . S
C861 C860 1.392 . S
C861 H873 0.929 . S
C862 C858 1.531 . S
C862 H874 0.960 . S
C862 H875 0.962 . S
C862 H876 0.960 . S
C863 C860 1.511 . S
C863 H877 0.961 . S
C863 H878 0.961 . S
C863 H879 0.961 . S
C864 C865 1.370 . S
C864 C866 1.363 . S
C864 H880 0.931 . S
C865 C864 1.370 . S
C865 C869 1.408 . S
C866 C864 1.363 . S
C866 C867 1.370 . S
C866 C870 1.524 . S
C867 C859 1.503 . S
C867 C866 1.370 . S
C867 C868 1.403 . S
C868 C867 1.403 . S
C868 C869 1.404 . S
C868 C871 1.539 . S
C869 C865 1.408 . S
C869 C868 1.404 . S
C869 H881 0.930 . S
C870 C866 1.524 . S
C870 H882 0.956 . S
C870 H883 0.961 . S
C870 H884 0.961 . S
C871 C868 1.539 . S
C871 H885 0.958 . S
C871 H886 0.961 . S
C871 H887 0.960 . S
H872 C856 0.931 . S
H873 C861 0.929 . S
H874 C862 0.960 . S
H875 C862 0.962 . S
H876 C862 0.960 . S
H877 C863 0.961 . S
H878 C863 0.961 . S
H879 C863 0.961 . S
H880 C864 0.931 . S
H881 C869 0.930 . S
H882 C870 0.956 . S
H883 C870 0.961 . S
H884 C870 0.961 . S
H885 C871 0.958 . S
H886 C871 0.961 . S
H887 C871 0.960 . S
C888 C889 1.391 . S
C888 C890 1.394 . S
C888 H904 0.931 . S
C889 C888 1.391 . S
C889 C893 1.376 . S
C890 C888 1.394 . S
C890 C891 1.369 . S
C890 C894 1.531 . S
C891 C890 1.369 . S
C891 C892 1.410 . S
C891 C899 1.503 . S
C892 C891 1.410 . S
C892 C893 1.392 . S
C892 C895 1.511 . S
C893 C889 1.376 . S
C893 C892 1.392 . S
C893 H905 0.929 . S
C894 C890 1.531 . S
C894 H906 0.960 . S
C894 H907 0.962 . S
C894 H908 0.960 . S
C895 C892 1.511 . S
C895 H909 0.961 . S
C895 H910 0.961 . S
C895 H911 0.961 . S
C896 C897 1.370 . S
C896 C898 1.363 . S
C896 H912 0.931 . S
C897 C896 1.370 . S
C897 C901 1.408 . S
C898 C896 1.363 . S
C898 C899 1.370 . S
C898 C902 1.524 . S
C899 C891 1.503 . S
C899 C898 1.370 . S
C899 C900 1.403 . S
C900 C899 1.403 . S
C900 C901 1.404 . S
C900 C903 1.539 . S
C901 C897 1.408 . S
C901 C900 1.404 . S
C901 H913 0.930 . S
C902 C898 1.524 . S
C902 H914 0.956 . S
C902 H915 0.961 . S
C902 H916 0.961 . S
C903 C900 1.539 . S
C903 H917 0.958 . S
C903 H918 0.961 . S
C903 H919 0.960 . S
H904 C888 0.931 . S
H905 C893 0.929 . S
H906 C894 0.960 . S
H907 C894 0.962 . S
H908 C894 0.960 . S
H909 C895 0.961 . S
H910 C895 0.961 . S
H911 C895 0.961 . S
H912 C896 0.931 . S
H913 C901 0.930 . S
H914 C902 0.956 . S
H915 C902 0.961 . S
H916 C902 0.961 . S
H917 C903 0.958 . S
H918 C903 0.961 . S
H919 C903 0.960 . S
C920 C921 1.391 . S
C920 C922 1.394 . S
C920 H936 0.931 . S
C921 C920 1.391 . S
C921 C925 1.376 . S
C922 C920 1.394 . S
C922 C923 1.369 . S
C922 C926 1.531 . S
C923 C922 1.369 . S
C923 C924 1.410 . S
C923 C931 1.503 . S
C924 C923 1.410 . S
C924 C925 1.392 . S
C924 C927 1.511 . S
C925 C921 1.376 . S
C925 C924 1.392 . S
C925 H937 0.929 . S
C926 C922 1.531 . S
C926 H938 0.960 . S
C926 H939 0.962 . S
C926 H940 0.960 . S
C927 C924 1.511 . S
C927 H941 0.961 . S
C927 H942 0.961 . S
C927 H943 0.961 . S
C928 C929 1.370 . S
C928 C930 1.363 . S
C928 H944 0.931 . S
C929 C928 1.370 . S
C929 C933 1.408 . S
C930 C928 1.363 . S
C930 C931 1.370 . S
C930 C934 1.524 . S
C931 C923 1.503 . S
C931 C930 1.370 . S
C931 C932 1.403 . S
C932 C931 1.403 . S
C932 C933 1.404 . S
C932 C935 1.539 . S
C933 C929 1.408 . S
C933 C932 1.404 . S
C933 H945 0.930 . S
C934 C930 1.524 . S
C934 H946 0.956 . S
C934 H947 0.961 . S
C934 H948 0.961 . S
C935 C932 1.539 . S
C935 H949 0.958 . S
C935 H950 0.961 . S
C935 H951 0.960 . S
H936 C920 0.931 . S
H937 C925 0.929 . S
H938 C926 0.960 . S
H939 C926 0.962 . S
H940 C926 0.960 . S
H941 C927 0.961 . S
H942 C927 0.961 . S
H943 C927 0.961 . S
H944 C928 0.931 . S
H945 C933 0.930 . S
H946 C934 0.956 . S
H947 C934 0.961 . S
H948 C934 0.961 . S
H949 C935 0.958 . S
H950 C935 0.961 . S
H951 C935 0.960 . S
C952 C953 1.391 . S
C952 C954 1.394 . S
C952 H968 0.931 . S
C953 C952 1.391 . S
C953 C957 1.376 . S
C954 C952 1.394 . S
C954 C955 1.369 . S
C954 C958 1.531 . S
C955 C954 1.369 . S
C955 C956 1.410 . S
C955 C963 1.503 . S
C956 C955 1.410 . S
C956 C957 1.392 . S
C956 C959 1.511 . S
C957 C953 1.376 . S
C957 C956 1.392 . S
C957 H969 0.929 . S
C958 C954 1.531 . S
C958 H970 0.960 . S
C958 H971 0.962 . S
C958 H972 0.960 . S
C959 C956 1.511 . S
C959 H973 0.961 . S
C959 H974 0.961 . S
C959 H975 0.961 . S
C960 C961 1.370 . S
C960 C962 1.363 . S
C960 H976 0.931 . S
C961 C960 1.370 . S
C961 C965 1.408 . S
C962 C960 1.363 . S
C962 C963 1.370 . S
C962 C966 1.524 . S
C963 C955 1.503 . S
C963 C962 1.370 . S
C963 C964 1.403 . S
C964 C963 1.403 . S
C964 C965 1.404 . S
C964 C967 1.539 . S
C965 C961 1.408 . S
C965 C964 1.404 . S
C965 H977 0.930 . S
C966 C962 1.524 . S
C966 H978 0.956 . S
C966 H979 0.961 . S
C966 H980 0.961 . S
C967 C964 1.539 . S
C967 H981 0.958 . S
C967 H982 0.961 . S
C967 H983 0.960 . S
H968 C952 0.931 . S
H969 C957 0.929 . S
H970 C958 0.960 . S
H971 C958 0.962 . S
H972 C958 0.960 . S
H973 C959 0.961 . S
H974 C959 0.961 . S
H975 C959 0.961 . S
H976 C960 0.931 . S
H977 C965 0.930 . S
H978 C966 0.956 . S
H979 C966 0.961 . S
H980 C966 0.961 . S
H981 C967 0.958 . S
H982 C967 0.961 . S
H983 C967 0.960 . S
C984 C985 1.391 . S
C984 C986 1.394 . S
C984 H1000 0.931 . S
C985 C984 1.391 . S
C985 C989 1.376 . S
C986 C984 1.394 . S
C986 C987 1.369 . S
C986 C990 1.531 . S
C987 C986 1.369 . S
C987 C988 1.410 . S
C987 C995 1.503 1_556 S
C988 C987 1.410 . S
C988 C989 1.392 . S
C988 C991 1.511 . S
C989 C985 1.376 . S
C989 C988 1.392 . S
C989 H1001 0.929 . S
C990 C986 1.531 . S
C990 H1002 0.960 1_556 S
C990 H1003 0.962 . S
C990 H1004 0.960 . S
C991 C988 1.511 . S
C991 H1005 0.961 . S
C991 H1006 0.904 1_556 S
C991 H1007 0.961 . S
C992 C993 1.370 . S
C992 C994 1.363 . S
C992 H1008 0.931 . S
C993 C992 1.370 . S
C993 C997 1.408 . S
C994 C992 1.363 . S
C994 C995 1.370 . S
C994 C998 1.524 . S
C995 C987 1.503 1_554 S
C995 C994 1.370 . S
C995 C996 1.403 . S
C996 C995 1.403 . S
C996 C997 1.404 . S
C996 C999 1.539 . S
C997 C993 1.408 . S
C997 C996 1.404 . S
C997 H1009 0.930 . S
C998 C994 1.524 . S
C998 H1010 0.956 . S
C998 H1011 0.969 . S
C998 H1012 0.961 . S
C999 C996 1.539 . S
C999 H1013 0.958 . S
C999 H1014 0.961 . S
C999 H1015 0.960 1_554 S
H1000 C984 0.931 . S
H1001 C989 0.929 . S
H1002 C990 0.960 1_554 S
H1003 C990 0.962 . S
H1004 C990 0.960 . S
H1005 C991 0.961 . S
H1006 C991 0.904 1_554 S
H1007 C991 0.961 . S
H1008 C992 0.931 . S
H1009 C997 0.930 . S
H1010 C998 0.956 . S
H1011 C998 0.969 . S
H1012 C998 0.961 . S
H1013 C999 0.958 . S
H1014 C999 0.961 . S
H1015 C999 0.960 1_556 S
C1016 C1017 1.391 . S
C1016 C1018 1.394 . S
C1016 H1032 0.931 . S
C1017 C1016 1.391 . S
C1017 C1021 1.376 . S
C1018 C1016 1.394 . S
C1018 C1019 1.369 . S
C1018 C1022 1.531 . S
C1019 C1018 1.369 . S
C1019 C1020 1.410 . S
C1019 C1027 1.503 . S
C1020 C1019 1.410 . S
C1020 C1021 1.392 . S
C1020 C1023 1.511 . S
C1021 C1017 1.376 . S
C1021 C1020 1.392 . S
C1021 H1033 0.929 . S
C1022 C1018 1.531 . S
C1022 H1034 0.960 . S
C1022 H1035 0.962 . S
C1022 H1036 0.960 . S
C1023 C1020 1.511 . S
C1023 H1037 0.961 . S
C1023 H1038 0.961 . S
C1023 H1039 0.961 . S
C1024 C1025 1.370 . S
C1024 C1026 1.363 . S
C1024 H1040 0.931 . S
C1025 C1024 1.370 . S
C1025 C1029 1.408 . S
C1026 C1024 1.363 . S
C1026 C1027 1.370 . S
C1026 C1030 1.524 . S
C1027 C1019 1.503 . S
C1027 C1026 1.370 . S
C1027 C1028 1.403 . S
C1028 C1027 1.403 . S
C1028 C1029 1.404 . S
C1028 C1031 1.539 . S
C1029 C1025 1.408 . S
C1029 C1028 1.404 . S
C1029 H1041 0.930 . S
C1030 C1026 1.524 . S
C1030 H1042 0.956 . S
C1030 H1043 0.961 . S
C1030 H1044 0.961 . S
C1031 C1028 1.539 . S
C1031 H1045 0.958 . S
C1031 H1046 0.961 . S
C1031 H1047 0.960 . S
H1032 C1016 0.931 . S
H1033 C1021 0.929 . S
H1034 C1022 0.960 . S
H1035 C1022 0.962 . S
H1036 C1022 0.960 . S
H1037 C1023 0.961 . S
H1038 C1023 0.961 . S
H1039 C1023 0.961 . S
H1040 C1024 0.931 . S
H1041 C1029 0.930 . S
H1042 C1030 0.956 . S
H1043 C1030 0.961 . S
H1044 C1030 0.961 . S
H1045 C1031 0.958 . S
H1046 C1031 0.961 . S
H1047 C1031 0.960 . S
C1048 C1049 1.391 . S
C1048 C1050 1.394 . S
C1048 H1064 0.931 . S
C1049 C1048 1.391 . S
C1049 C1053 1.376 . S
C1050 C1048 1.394 . S
C1050 C1051 1.369 . S
C1050 C1054 1.531 . S
C1051 C1050 1.369 . S
C1051 C1052 1.410 . S
C1051 C1059 1.503 . S
C1052 C1051 1.410 . S
C1052 C1053 1.392 . S
C1052 C1055 1.511 . S
C1053 C1049 1.376 . S
C1053 C1052 1.392 . S
C1053 H1065 0.929 . S
C1054 C1050 1.531 . S
C1054 H1066 0.960 . S
C1054 H1067 0.962 . S
C1054 H1068 0.960 . S
C1055 C1052 1.511 . S
C1055 H1069 0.961 . S
C1055 H1070 0.961 . S
C1055 H1071 0.961 . S
C1056 C1057 1.370 . S
C1056 C1058 1.363 . S
C1056 H1072 0.931 . S
C1057 C1056 1.370 . S
C1057 C1061 1.408 . S
C1058 C1056 1.363 . S
C1058 C1059 1.370 . S
C1058 C1062 1.524 . S
C1059 C1051 1.503 . S
C1059 C1058 1.370 . S
C1059 C1060 1.403 . S
C1060 C1059 1.403 . S
C1060 C1061 1.404 . S
C1060 C1063 1.539 . S
C1061 C1057 1.408 . S
C1061 C1060 1.404 . S
C1061 H1073 0.930 . S
C1062 C1058 1.524 . S
C1062 H1074 0.956 . S
C1062 H1075 0.961 . S
C1062 H1076 0.961 . S
C1063 C1060 1.539 . S
C1063 H1077 0.958 . S
C1063 H1078 0.961 . S
C1063 H1079 0.960 . S
H1064 C1048 0.931 . S
H1065 C1053 0.929 . S
H1066 C1054 0.960 . S
H1067 C1054 0.962 . S
H1068 C1054 0.960 . S
H1069 C1055 0.961 . S
H1070 C1055 0.961 . S
H1071 C1055 0.961 . S
H1072 C1056 0.931 . S
H1073 C1061 0.930 . S
H1074 C1062 0.956 . S
H1075 C1062 0.961 . S
H1076 C1062 0.961 . S
H1077 C1063 0.958 . S
H1078 C1063 0.961 . S
H1079 C1063 0.960 . S
C1080 C1081 1.391 . S
C1080 C1082 1.394 . S
C1080 H1096 0.931 . S
C1081 C1080 1.391 . S
C1081 C1085 1.376 . S
C1082 C1080 1.394 . S
C1082 C1083 1.369 . S
C1082 C1086 1.531 . S
C1083 C1082 1.369 . S
C1083 C1084 1.410 . S
C1083 C1091 1.503 1_556 S
C1084 C1083 1.410 . S
C1084 C1085 1.392 . S
C1084 C1087 1.511 . S
C1085 C1081 1.376 . S
C1085 C1084 1.392 . S
C1085 H1097 0.929 . S
C1086 C1082 1.531 . S
C1086 H1098 0.960 1_556 S
C1086 H1099 0.962 . S
C1086 H1100 0.960 . S
C1087 C1084 1.511 . S
C1087 H1101 0.961 . S
C1087 H1102 0.961 1_556 S
C1087 H1103 0.961 . S
C1088 C1089 1.370 . S
C1088 C1090 1.363 . S
C1088 H1104 0.931 . S
C1089 C1088 1.370 . S
C1089 C1093 1.408 . S
C1090 C1088 1.363 . S
C1090 C1091 1.370 . S
C1090 C1094 1.524 . S
C1091 C1083 1.503 1_554 S
C1091 C1090 1.370 . S
C1091 C1092 1.403 . S
C1092 C1091 1.403 . S
C1092 C1093 1.404 . S
C1092 C1095 1.539 . S
C1093 C1089 1.408 . S
C1093 C1092 1.404 . S
C1093 H1105 0.930 . S
C1094 C1090 1.524 . S
C1094 H1106 0.956 1_554 S
C1094 H1107 0.961 1_554 S
C1094 H1108 0.961 . S
C1095 C1092 1.539 . S
C1095 H1109 0.958 . S
C1095 H1110 0.961 . S
C1095 H1111 0.960 . S
H1096 C1080 0.931 . S
H1097 C1085 0.929 . S
H1098 C1086 0.960 1_554 S
H1099 C1086 0.962 . S
H1100 C1086 0.960 . S
H1101 C1087 0.961 . S
H1102 C1087 0.961 1_554 S
H1103 C1087 0.961 . S
H1104 C1088 0.931 . S
H1105 C1093 0.930 . S
H1106 C1094 0.956 1_556 S
H1107 C1094 0.961 1_556 S
H1108 C1094 0.961 . S
H1109 C1095 0.958 . S
H1110 C1095 0.961 . S
H1111 C1095 0.960 . S
C1112 C1113 1.391 . S
C1112 C1114 1.394 . S
C1112 H1128 0.931 . S
C1113 C1112 1.391 . S
C1113 C1117 1.376 . S
C1114 C1112 1.394 . S
C1114 C1115 1.369 . S
C1114 C1118 1.531 . S
C1115 C1114 1.369 . S
C1115 C1116 1.410 . S
C1115 C1123 1.503 . S
C1116 C1115 1.410 . S
C1116 C1117 1.392 . S
C1116 C1119 1.511 . S
C1117 C1113 1.376 . S
C1117 C1116 1.392 . S
C1117 H1129 0.929 . S
C1118 C1114 1.531 . S
C1118 H1130 0.960 . S
C1118 H1131 0.962 . S
C1118 H1132 0.960 . S
C1119 C1116 1.511 . S
C1119 H1133 0.961 . S
C1119 H1134 0.961 . S
C1119 H1135 0.961 . S
C1120 C1121 1.370 . S
C1120 C1122 1.363 . S
C1120 H1136 0.931 . S
C1121 C1120 1.370 . S
C1121 C1125 1.408 . S
C1122 C1120 1.363 . S
C1122 C1123 1.370 . S
C1122 C1126 1.524 . S
C1123 C1115 1.503 . S
C1123 C1122 1.370 . S
C1123 C1124 1.403 . S
C1124 C1123 1.403 . S
C1124 C1125 1.404 . S
C1124 C1127 1.539 . S
C1125 C1121 1.408 . S
C1125 C1124 1.404 . S
C1125 H1137 0.930 . S
C1126 C1122 1.524 . S
C1126 H1138 0.956 . S
C1126 H1139 0.961 . S
C1126 H1140 0.961 . S
C1127 C1124 1.539 . S
C1127 H1141 0.958 . S
C1127 H1142 0.961 . S
C1127 H1143 0.960 . S
H1128 C1112 0.931 . S
H1129 C1117 0.929 . S
H1130 C1118 0.960 . S
H1131 C1118 0.962 . S
H1132 C1118 0.960 . S
H1133 C1119 0.961 . S
H1134 C1119 0.961 . S
H1135 C1119 0.961 . S
H1136 C1120 0.931 . S
H1137 C1125 0.930 . S
H1138 C1126 0.956 . S
H1139 C1126 0.961 . S
H1140 C1126 0.961 . S
H1141 C1127 0.958 . S
H1142 C1127 0.961 . S
H1143 C1127 0.960 . S
C1144 C1145 1.391 . S
C1144 C1146 1.394 . S
C1144 H1160 0.931 . S
C1145 C1144 1.391 . S
C1145 C1149 1.376 . S
C1146 C1144 1.394 . S
C1146 C1147 1.369 . S
C1146 C1150 1.531 . S
C1147 C1146 1.369 . S
C1147 C1148 1.410 . S
C1147 C1155 1.503 . S
C1148 C1147 1.410 . S
C1148 C1149 1.392 . S
C1148 C1151 1.511 . S
C1149 C1145 1.376 . S
C1149 C1148 1.392 . S
C1149 H1161 0.929 . S
C1150 C1146 1.531 . S
C1150 H1162 0.960 . S
C1150 H1163 0.962 . S
C1150 H1164 0.960 . S
C1151 C1148 1.511 . S
C1151 H1165 0.961 . S
C1151 H1166 0.961 . S
C1151 H1167 0.961 . S
C1152 C1153 1.370 . S
C1152 C1154 1.363 . S
C1152 H1168 0.931 . S
C1153 C1152 1.370 . S
C1153 C1157 1.408 . S
C1154 C1152 1.363 . S
C1154 C1155 1.370 . S
C1154 C1158 1.524 . S
C1155 C1147 1.503 . S
C1155 C1154 1.370 . S
C1155 C1156 1.403 . S
C1156 C1155 1.403 . S
C1156 C1157 1.404 . S
C1156 C1159 1.539 . S
C1157 C1153 1.408 . S
C1157 C1156 1.404 . S
C1157 H1169 0.930 . S
C1158 C1154 1.524 . S
C1158 H1170 0.956 . S
C1158 H1171 0.961 . S
C1158 H1172 0.961 . S
C1159 C1156 1.539 . S
C1159 H1173 0.958 . S
C1159 H1174 0.961 . S
C1159 H1175 0.960 . S
H1160 C1144 0.931 . S
H1161 C1149 0.929 . S
H1162 C1150 0.960 . S
H1163 C1150 0.962 . S
H1164 C1150 0.960 . S
H1165 C1151 0.961 . S
H1166 C1151 0.961 . S
H1167 C1151 0.961 . S
H1168 C1152 0.931 . S
H1169 C1157 0.930 . S
H1170 C1158 0.956 . S
H1171 C1158 0.961 . S
H1172 C1158 0.961 . S
H1173 C1159 0.958 . S
H1174 C1159 0.961 . S
H1175 C1159 0.960 . S
C1176 C1177 1.391 . S
C1176 C1178 1.394 . S
C1176 H1192 0.931 . S
C1177 C1176 1.391 . S
C1177 C1181 1.376 . S
C1178 C1176 1.394 . S
C1178 C1179 1.369 . S
C1178 C1182 1.531 . S
C1179 C1178 1.369 . S
C1179 C1180 1.410 . S
C1179 C1187 1.503 1_655 S
C1180 C1179 1.410 . S
C1180 C1181 1.392 . S
C1180 C1183 1.511 . S
C1181 C1177 1.376 . S
C1181 C1180 1.392 . S
C1181 H1193 0.929 . S
C1182 C1178 1.531 . S
C1182 H1194 0.960 1_655 S
C1182 H1195 0.962 . S
C1182 H1196 0.960 . S
C1183 C1180 1.511 . S
C1183 H1197 0.961 . S
C1183 H1198 0.961 1_655 S
C1183 H1199 0.961 1_655 S
C1184 C1185 1.370 . S
C1184 C1186 1.363 . S
C1184 H1200 0.931 . S
C1185 C1184 1.370 . S
C1185 C1189 1.408 . S
C1186 C1184 1.363 . S
C1186 C1187 1.370 . S
C1186 C1190 1.524 1_455 S
C1187 C1179 1.503 1_455 S
C1187 C1186 1.370 . S
C1187 C1188 1.403 . S
C1188 C1187 1.403 . S
C1188 C1189 1.404 . S
C1188 C1191 1.539 . S
C1189 C1185 1.408 . S
C1189 C1188 1.404 . S
C1189 H1201 0.930 . S
C1190 C1186 1.524 1_655 S
C1190 H1202 0.956 . S
C1190 H1203 0.961 . S
C1190 H1204 0.961 . S
C1191 C1188 1.539 . S
C1191 H1205 0.958 . S
C1191 H1206 0.961 . S
C1191 H1207 0.960 . S
H1192 C1176 0.931 . S
H1193 C1181 0.929 . S
H1194 C1182 0.960 1_455 S
H1195 C1182 0.962 . S
H1196 C1182 0.960 . S
H1197 C1183 0.961 . S
H1198 C1183 0.961 1_455 S
H1199 C1183 0.961 1_455 S
H1200 C1184 0.931 . S
H1201 C1189 0.930 . S
H1202 C1190 0.956 . S
H1203 C1190 0.961 . S
H1204 C1190 0.961 . S
H1205 C1191 0.958 . S
H1206 C1191 0.961 . S
H1207 C1191 0.960 . S
C1208 C1209 1.391 . S
C1208 C1210 1.394 . S
C1208 H1224 0.931 . S
C1209 C1208 1.391 . S
C1209 C1213 1.376 . S
C1210 C1208 1.394 . S
C1210 C1211 1.369 . S
C1210 C1214 1.531 . S
C1211 C1210 1.369 . S
C1211 C1212 1.410 . S
C1211 C1219 1.503 1_565 S
C1212 C1211 1.410 . S
C1212 C1213 1.392 . S
C1212 C1215 1.511 1_565 S
C1213 C1209 1.376 . S
C1213 C1212 1.392 . S
C1213 H1225 0.929 . S
C1214 C1210 1.531 . S
C1214 H1226 0.960 . S
C1214 H1227 0.962 . S
C1214 H1228 0.960 . S
C1215 C1212 1.511 1_545 S
C1215 H1229 0.961 . S
C1215 H1230 0.961 . S
C1215 H1231 0.961 . S
C1216 C1217 1.370 . S
C1216 C1218 1.363 . S
C1216 H1232 0.931 . S
C1217 C1216 1.370 . S
C1217 C1221 1.408 . S
C1218 C1216 1.363 . S
C1218 C1219 1.370 . S
C1218 C1222 1.524 . S
C1219 C1211 1.503 1_545 S
C1219 C1218 1.370 . S
C1219 C1220 1.403 . S
C1220 C1219 1.403 . S
C1220 C1221 1.404 . S
C1220 C1223 1.539 1_545 S
C1221 C1217 1.408 . S
C1221 C1220 1.404 . S
C1221 H1233 0.930 . S
C1222 C1218 1.524 . S
C1222 H1234 0.956 . S
C1222 H1235 0.961 . S
C1222 H1236 0.961 . S
C1223 C1220 1.539 1_565 S
C1223 H1237 0.958 . S
C1223 H1238 0.961 1_565 S
C1223 H1239 0.960 . S
H1224 C1208 0.931 . S
H1225 C1213 0.929 . S
H1226 C1214 0.960 . S
H1227 C1214 0.962 . S
H1228 C1214 0.960 . S
H1229 C1215 0.961 . S
H1230 C1215 0.961 . S
H1231 C1215 0.961 . S
H1232 C1216 0.931 . S
H1233 C1221 0.930 . S
H1234 C1222 0.956 . S
H1235 C1222 0.961 . S
H1236 C1222 0.961 . S
H1237 C1223 0.958 . S
H1238 C1223 0.961 1_545 S
H1239 C1223 0.960 . S
C1240 C1241 1.391 . S
C1240 C1242 1.394 . S
C1240 H1256 0.931 . S
C1241 C1240 1.391 . S
C1241 C1245 1.376 . S
C1242 C1240 1.394 . S
C1242 C1243 1.369 . S
C1242 C1246 1.531 . S
C1243 C1242 1.369 . S
C1243 C1244 1.410 . S
C1243 C1251 1.503 . S
C1244 C1243 1.410 . S
C1244 C1245 1.392 . S
C1244 C1247 1.511 . S
C1245 C1241 1.376 . S
C1245 C1244 1.392 . S
C1245 H1257 0.929 . S
C1246 C1242 1.531 . S
C1246 H1258 0.960 . S
C1246 H1259 0.962 . S
C1246 H1260 0.960 . S
C1247 C1244 1.511 . S
C1247 H1261 0.961 . S
C1247 H1262 0.961 . S
C1247 H1263 0.961 . S
C1248 C1249 1.370 . S
C1248 C1250 1.363 . S
C1248 H1264 0.931 . S
C1249 C1248 1.370 . S
C1249 C1253 1.408 . S
C1250 C1248 1.363 . S
C1250 C1251 1.370 . S
C1250 C1254 1.524 . S
C1251 C1243 1.503 . S
C1251 C1250 1.370 . S
C1251 C1252 1.403 . S
C1252 C1251 1.403 . S
C1252 C1253 1.404 . S
C1252 C1255 1.539 . S
C1253 C1249 1.408 . S
C1253 C1252 1.404 . S
C1253 H1265 0.930 . S
C1254 C1250 1.524 . S
C1254 H1266 0.956 . S
C1254 H1267 0.961 . S
C1254 H1268 0.961 . S
C1255 C1252 1.539 . S
C1255 H1269 0.958 . S
C1255 H1270 0.961 . S
C1255 H1271 0.960 . S
H1256 C1240 0.931 . S
H1257 C1245 0.929 . S
H1258 C1246 0.960 . S
H1259 C1246 0.962 . S
H1260 C1246 0.960 . S
H1261 C1247 0.961 . S
H1262 C1247 0.961 . S
H1263 C1247 0.961 . S
H1264 C1248 0.931 . S
H1265 C1253 0.930 . S
H1266 C1254 0.956 . S
H1267 C1254 0.961 . S
H1268 C1254 0.961 . S
H1269 C1255 0.958 . S
H1270 C1255 0.961 . S
H1271 C1255 0.960 . S
C1272 C1273 1.391 . S
C1272 C1274 1.394 . S
C1272 H1288 0.931 . S
C1273 C1272 1.391 . S
C1273 C1277 1.376 . S
C1274 C1272 1.394 . S
C1274 C1275 1.369 . S
C1274 C1278 1.531 . S
C1275 C1274 1.369 . S
C1275 C1276 1.410 . S
C1275 C1283 1.503 1_455 S
C1276 C1275 1.410 . S
C1276 C1277 1.392 . S
C1276 C1279 1.511 . S
C1277 C1273 1.376 . S
C1277 C1276 1.392 . S
C1277 H1289 0.929 . S
C1278 C1274 1.531 . S
C1278 H1290 0.960 1_455 S
C1278 H1291 0.962 . S
C1278 H1292 0.960 . S
C1279 C1276 1.511 . S
C1279 H1293 0.961 . S
C1279 H1294 0.961 1_455 S
C1279 H1295 0.961 1_455 S
C1280 C1281 1.370 . S
C1280 C1282 1.363 . S
C1280 H1296 0.931 . S
C1281 C1280 1.370 . S
C1281 C1285 1.408 . S
C1282 C1280 1.363 . S
C1282 C1283 1.370 . S
C1282 C1286 1.524 1_655 S
C1283 C1275 1.503 1_655 S
C1283 C1282 1.370 . S
C1283 C1284 1.403 . S
C1284 C1283 1.403 . S
C1284 C1285 1.404 . S
C1284 C1287 1.539 . S
C1285 C1281 1.408 . S
C1285 C1284 1.404 . S
C1285 H1297 0.930 . S
C1286 C1282 1.524 1_455 S
C1286 H1298 0.956 . S
C1286 H1299 0.961 . S
C1286 H1300 0.961 . S
C1287 C1284 1.539 . S
C1287 H1301 0.958 . S
C1287 H1302 0.961 . S
C1287 H1303 0.960 . S
H1288 C1272 0.931 . S
H1289 C1277 0.929 . S
H1290 C1278 0.960 1_655 S
H1291 C1278 0.962 . S
H1292 C1278 0.960 . S
H1293 C1279 0.961 . S
H1294 C1279 0.961 1_655 S
H1295 C1279 0.961 1_655 S
H1296 C1280 0.931 . S
H1297 C1285 0.930 . S
H1298 C1286 0.956 . S
H1299 C1286 0.961 . S
H1300 C1286 0.961 . S
H1301 C1287 0.958 . S
H1302 C1287 0.961 . S
H1303 C1287 0.960 . S
C1304 C1305 1.391 . S
C1304 C1306 1.394 . S
C1304 H1320 0.931 . S
C1305 C1304 1.391 . S
C1305 C1309 1.376 . S
C1306 C1304 1.394 . S
C1306 C1307 1.369 . S
C1306 C1310 1.531 1_545 S
C1307 C1306 1.369 . S
C1307 C1308 1.410 . S
C1307 C1315 1.503 1_545 S
C1308 C1307 1.410 . S
C1308 C1309 1.392 . S
C1308 C1311 1.511 . S
C1309 C1305 1.376 . S
C1309 C1308 1.392 . S
C1309 H1321 0.929 . S
C1310 C1306 1.531 1_565 S
C1310 H1322 0.960 . S
C1310 H1323 0.962 . S
C1310 H1324 0.960 . S
C1311 C1308 1.511 . S
C1311 H1325 0.961 . S
C1311 H1326 0.961 . S
C1311 H1327 0.961 . S
C1312 C1313 1.370 . S
C1312 C1314 1.363 . S
C1312 H1328 0.931 . S
C1313 C1312 1.370 . S
C1313 C1317 1.408 . S
C1314 C1312 1.363 . S
C1314 C1315 1.370 . S
C1314 C1318 1.524 1_565 S
C1315 C1307 1.503 1_565 S
C1315 C1314 1.370 . S
C1315 C1316 1.403 . S
C1316 C1315 1.403 . S
C1316 C1317 1.404 . S
C1316 C1319 1.539 . S
C1317 C1313 1.408 . S
C1317 C1316 1.404 . S
C1317 H1329 0.930 . S
C1318 C1314 1.524 1_545 S
C1318 H1330 0.956 . S
C1318 H1331 0.961 . S
C1318 H1332 0.961 . S
C1319 C1316 1.539 . S
C1319 H1333 0.958 . S
C1319 H1334 0.961 . S
C1319 H1335 0.960 . S
H1320 C1304 0.931 . S
H1321 C1309 0.929 . S
H1322 C1310 0.960 . S
H1323 C1310 0.962 . S
H1324 C1310 0.960 . S
H1325 C1311 0.961 . S
H1326 C1311 0.961 . S
H1327 C1311 0.961 . S
H1328 C1312 0.931 . S
H1329 C1317 0.930 . S
H1330 C1318 0.956 . S
H1331 C1318 0.961 . S
H1332 C1318 0.961 . S
H1333 C1319 0.958 . S
H1334 C1319 0.961 . S
H1335 C1319 0.960 . S
C1336 C1337 1.391 . S
C1336 C1338 1.394 . S
C1336 H1352 0.931 . S
C1337 C1336 1.391 . S
C1337 C1341 1.376 . S
C1338 C1336 1.394 . S
C1338 C1339 1.369 . S
C1338 C1342 1.531 . S
C1339 C1338 1.369 . S
C1339 C1340 1.410 . S
C1339 C1347 1.503 . S
C1340 C1339 1.410 . S
C1340 C1341 1.392 . S
C1340 C1343 1.511 . S
C1341 C1337 1.376 . S
C1341 C1340 1.392 . S
C1341 H1353 0.929 . S
C1342 C1338 1.531 . S
C1342 H1354 0.960 . S
C1342 H1355 0.962 . S
C1342 H1356 0.960 . S
C1343 C1340 1.511 . S
C1343 H1357 0.961 . S
C1343 H1358 0.961 . S
C1343 H1359 0.961 . S
C1344 C1345 1.370 . S
C1344 C1346 1.363 . S
C1344 H1360 0.931 . S
C1345 C1344 1.370 . S
C1345 C1349 1.408 . S
C1346 C1344 1.363 . S
C1346 C1347 1.370 . S
C1346 C1350 1.524 . S
C1347 C1339 1.503 . S
C1347 C1346 1.370 . S
C1347 C1348 1.403 . S
C1348 C1347 1.403 . S
C1348 C1349 1.404 . S
C1348 C1351 1.539 . S
C1349 C1345 1.408 . S
C1349 C1348 1.404 . S
C1349 H1361 0.930 . S
C1350 C1346 1.524 . S
C1350 H1362 0.956 . S
C1350 H1363 0.961 . S
C1350 H1364 0.961 . S
C1351 C1348 1.539 . S
C1351 H1365 0.958 . S
C1351 H1366 0.961 . S
C1351 H1367 0.960 . S
H1352 C1336 0.931 . S
H1353 C1341 0.929 . S
H1354 C1342 0.960 . S
H1355 C1342 0.962 . S
H1356 C1342 0.960 . S
H1357 C1343 0.961 . S
H1358 C1343 0.961 . S
H1359 C1343 0.961 . S
H1360 C1344 0.931 . S
H1361 C1349 0.930 . S
H1362 C1350 0.956 . S
H1363 C1350 0.961 . S
H1364 C1350 0.961 . S
H1365 C1351 0.958 . S
H1366 C1351 0.961 . S
H1367 C1351 0.960 . S
C409 C111 1.469 . S
C417 C9 1.480 . S
C441 C145 1.468 . S
C449 C43 1.480 . S
C473 C179 1.476 . S
C481 C77 1.478 . S
C505 C213 1.472 . S
C513 C315 1.479 . S
C537 C247 1.477 . S
C545 C349 1.476 . S
C569 C281 1.480 . S
C577 C383 1.475 . S
C601 C107 0.536 . S
C609 C5 0.483 . S
C633 C39 0.596 . S
C641 C141 0.475 . S
C665 C175 0.434 . S
C673 C73 0.527 . S
C697 C209 0.562 . S
C705 C311 0.503 . S
C729 C345 0.535 . S
C737 C243 0.516 . S
C761 C277 0.468 . S
C769 C379 0.510 . S
C793 C274 1.372 . S
C801 C2 1.404 . S
C825 C36 1.393 . S
C833 C308 1.410 . S
C857 C70 1.364 . S
C865 C342 1.395 . S
C889 C104 1.415 . S
C897 C376 1.391 . S
C921 C138 1.415 . S
C929 C206 1.391 . S
C953 C240 1.424 . S
C961 C172 1.401 . S
C985 C360 1.652 . S
C993 C20 1.650 . S
C1017 C394 1.666 . S
C1025 C54 1.661 . S
C1049 C224 1.640 . S
C1057 C88 1.657 . S
C1081 C258 1.651 . S
C1089 C122 1.661 . S
C1113 C156 1.654 . S
C1121 C292 1.651 . S
C1145 C190 1.638 . S
C1153 C326 1.650 . S
C1177 C407 1.188 . S
C1185 C33 1.208 . S
C1209 C237 1.175 . S
C1217 C67 1.189 . S
C1241 C101 1.164 . S
C1249 C271 1.193 . S
C1273 C305 1.191 . S
C1281 C135 1.210 . S
C1305 C339 1.224 . S
C1313 C169 1.220 . S
C1337 C373 1.238 . S
C1345 C203 1.222 . S
