# Generated by pormake.
# Topology ure, (4)-cn, num edge types: 1
# Building blocks:
#     Node 0, Type 0, BuildingBlock: KUFVIS_clean_sbu_0, # of connection points: 4
#     Node 1, Type 0, BuildingBlock: KUFVIS_clean_sbu_0, # of connection points: 4
#     Node 2, Type 0, BuildingBlock: KUFVIS_clean_sbu_0, # of connection points: 4
#     Node 3, Type 0, BuildingBlock: KUFVIS_clean_sbu_0, # of connection points: 4
#     Node 4, Type 0, BuildingBlock: KUFVIS_clean_sbu_0, # of connection points: 4
#     Node 5, Type 0, BuildingBlock: KUFVIS_clean_sbu_0, # of connection points: 4
#     Node 6, Type 0, BuildingBlock: KUFVIS_clean_sbu_0, # of connection points: 4
#     Node 7, Type 0, BuildingBlock: KUFVIS_clean_sbu_0, # of connection points: 4
#     Node 8, Type 0, BuildingBlock: KUFVIS_clean_sbu_0, # of connection points: 4
#     Node 9, Type 0, BuildingBlock: KUFVIS_clean_sbu_0, # of connection points: 4
#     Node 10, Type 0, BuildingBlock: KUFVIS_clean_sbu_0, # of connection points: 4
#     Node 11, Type 0, BuildingBlock: KUFVIS_clean_sbu_0, # of connection points: 4
#     Node 12, Type 0, BuildingBlock: KUFVIS_clean_sbu_0, # of connection points: 4
#     Node 13, Type 0, BuildingBlock: KUFVIS_clean_sbu_0, # of connection points: 4
#     Node 14, Type 0, BuildingBlock: KUFVIS_clean_sbu_0, # of connection points: 4
#     Node 15, Type 0, BuildingBlock: KUFVIS_clean_sbu_0, # of connection points: 4
#     Edge 16, Type (0, 0), BuildingBlock: KIFKEQ_clean_linker_1, # of connection points: 2
#     Edge 17, Type (0, 0), BuildingBlock: KIFKEQ_clean_linker_1, # of connection points: 2
#     Edge 18, Type (0, 0), BuildingBlock: KIFKEQ_clean_linker_1, # of connection points: 2
#     Edge 19, Type (0, 0), BuildingBlock: KIFKEQ_clean_linker_1, # of connection points: 2
#     Edge 20, Type (0, 0), BuildingBlock: KIFKEQ_clean_linker_1, # of connection points: 2
#     Edge 21, Type (0, 0), BuildingBlock: KIFKEQ_clean_linker_1, # of connection points: 2
#     Edge 22, Type (0, 0), BuildingBlock: KIFKEQ_clean_linker_1, # of connection points: 2
#     Edge 23, Type (0, 0), BuildingBlock: KIFKEQ_clean_linker_1, # of connection points: 2
#     Edge 24, Type (0, 0), BuildingBlock: KIFKEQ_clean_linker_1, # of connection points: 2
#     Edge 25, Type (0, 0), BuildingBlock: KIFKEQ_clean_linker_1, # of connection points: 2
#     Edge 26, Type (0, 0), BuildingBlock: KIFKEQ_clean_linker_1, # of connection points: 2
#     Edge 27, Type (0, 0), BuildingBlock: KIFKEQ_clean_linker_1, # of connection points: 2
#     Edge 28, Type (0, 0), BuildingBlock: KIFKEQ_clean_linker_1, # of connection points: 2
#     Edge 29, Type (0, 0), BuildingBlock: KIFKEQ_clean_linker_1, # of connection points: 2
#     Edge 30, Type (0, 0), BuildingBlock: KIFKEQ_clean_linker_1, # of connection points: 2
#     Edge 31, Type (0, 0), BuildingBlock: KIFKEQ_clean_linker_1, # of connection points: 2
#     Edge 32, Type (0, 0), BuildingBlock: KIFKEQ_clean_linker_1, # of connection points: 2
#     Edge 33, Type (0, 0), BuildingBlock: KIFKEQ_clean_linker_1, # of connection points: 2
#     Edge 34, Type (0, 0), BuildingBlock: KIFKEQ_clean_linker_1, # of connection points: 2
#     Edge 35, Type (0, 0), BuildingBlock: KIFKEQ_clean_linker_1, # of connection points: 2
#     Edge 36, Type (0, 0), BuildingBlock: KIFKEQ_clean_linker_1, # of connection points: 2
#     Edge 37, Type (0, 0), BuildingBlock: KIFKEQ_clean_linker_1, # of connection points: 2
#     Edge 38, Type (0, 0), BuildingBlock: KIFKEQ_clean_linker_1, # of connection points: 2
#     Edge 39, Type (0, 0), BuildingBlock: KIFKEQ_clean_linker_1, # of connection points: 2
#     Edge 40, Type (0, 0), BuildingBlock: KIFKEQ_clean_linker_1, # of connection points: 2
#     Edge 41, Type (0, 0), BuildingBlock: KIFKEQ_clean_linker_1, # of connection points: 2
#     Edge 42, Type (0, 0), BuildingBlock: KIFKEQ_clean_linker_1, # of connection points: 2
#     Edge 43, Type (0, 0), BuildingBlock: KIFKEQ_clean_linker_1, # of connection points: 2
#     Edge 44, Type (0, 0), BuildingBlock: KIFKEQ_clean_linker_1, # of connection points: 2
#     Edge 45, Type (0, 0), BuildingBlock: KIFKEQ_clean_linker_1, # of connection points: 2
#     Edge 46, Type (0, 0), BuildingBlock: KIFKEQ_clean_linker_1, # of connection points: 2
#     Edge 47, Type (0, 0), BuildingBlock: KIFKEQ_clean_linker_1, # of connection points: 2
# Relax obj value: 0.170
# Max RMSD: 0.110
# Mean RMSD: 0.107
data_MOF--net-ure--node1-KUFVIS_clean_sbu_0--edge1-KIFKEQ_clean_linker_1
_symmetry_space_group_name_H-M    P1
_symmetry_Int_Tables_number       1
_symmetry_cell_setting            triclinic
loop_
_symmetry_equiv_pos_as_xyz
'x, y, z'
_cell_length_a     27.985507
_cell_length_b     32.711954
_cell_length_c     32.686894
_cell_angle_alpha  89.943313
_cell_angle_beta   89.991002
_cell_angle_gamma 89.985869
loop_
_atom_site_label
_atom_site_type_symbol
_atom_site_fract_x
_atom_site_fract_y
_atom_site_fract_z
_atom_type_partial_charge
Mn0 Mn 0.24923 0.294 0.29148 0.0
Mn1 Mn 0.28493 0.33742 0.20289 0.0
C2 C 0.32267 0.27788 0.26353 0.0
C3 C 0.24586 0.29663 0.36305 0.0
C4 C 0.21231 0.2686 0.20684 0.0
O5 O 0.20442 0.34303 0.28585 0.0
O6 O 0.23453 0.37138 0.22836 0.0
C7 C 0.33145 0.408 0.24276 0.0
N8 N 0.33346 0.37648 0.21562 0.0
C9 C 0.41691 0.38875 0.20277 0.0
C10 C 0.41558 0.42166 0.23019 0.0
C11 C 0.37276 0.43107 0.25056 0.0
C12 C 0.37483 0.36636 0.19683 0.0
H13 H 0.29876 0.41503 0.25884 0.0
C14 C 0.20559 0.37114 0.25868 0.0
O15 O 0.21607 0.27432 0.34226 0.0
O16 O 0.2765 0.31782 0.34229 0.0
N17 N 0.33439 0.30819 0.17492 0.0
C18 C 0.3316 0.2719 0.15465 0.0
C19 C 0.37201 0.25688 0.13407 0.0
C20 C 0.41478 0.27936 0.13445 0.0
C21 C 0.41676 0.31668 0.15542 0.0
C22 C 0.37509 0.33049 0.17471 0.0
H23 H 0.29881 0.25451 0.15424 0.0
O24 O 0.30287 0.25338 0.28974 0.0
O25 O 0.2988 0.31062 0.25474 0.0
O26 O 0.21399 0.2631 0.2456 0.0
O27 O 0.23602 0.29631 0.18799 0.0
C28 C 0.45877 0.34017 0.15884 0.0
C29 C 0.45895 0.37603 0.18276 0.0
H30 H 0.44735 0.43956 0.23625 0.0
H31 H 0.37157 0.45615 0.27208 0.0
H32 H 0.37025 0.22799 0.11804 0.0
H33 H 0.44598 0.26749 0.11887 0.0
H34 H 0.49152 0.33028 0.14425 0.0
H35 H 0.4919 0.39301 0.18641 0.0
Mn36 Mn 0.00036 0.03945 0.54674 0.0
Mn37 Mn 0.95525 0.95229 0.58631 0.0
C38 C 0.92463 0.01712 0.52853 0.0
C39 C 0.00932 0.11068 0.55152 0.0
C40 C 0.02978 0.95341 0.51861 0.0
O41 O 0.04365 0.02914 0.59632 0.0
O42 O 0.00691 0.97331 0.62167 0.0
C43 C 0.9109 0.99233 0.65793 0.0
N44 N 0.90736 0.96649 0.62543 0.0
C45 C 0.82341 0.95639 0.63756 0.0
C46 C 0.82628 0.98238 0.67155 0.0
C47 C 0.8701 1.00087 0.68143 0.0
C48 C 0.86501 0.94981 0.61471 0.0
H49 H 0.94448 1.00673 0.66548 0.0
C50 C 0.03887 1.00124 0.62349 0.0
O51 O 0.03796 0.08881 0.52912 0.0
O52 O 0.97691 0.0911 0.57186 0.0
N53 N 0.90415 0.92844 0.55565 0.0
C54 C 0.90585 0.90934 0.51865 0.0
C55 C 0.86439 0.8909 0.50302 0.0
C56 C 0.82176 0.89208 0.52568 0.0
C57 C 0.8209 0.91183 0.56371 0.0
C58 C 0.86349 0.92911 0.57801 0.0
H59 H 0.9386 0.90812 0.50123 0.0
O60 O 0.94743 0.04258 0.50522 0.0
O61 O 0.94686 1.00572 0.56128 0.0
O62 O 0.03253 0.99235 0.51484 0.0
O63 O 0.00315 0.93576 0.54512 0.0
C64 C 0.77924 0.91582 0.58757 0.0
C65 C 0.78041 0.93842 0.62429 0.0
H66 H 0.79493 0.98886 0.68989 0.0
H67 H 0.87249 0.02136 0.70732 0.0
H68 H 0.86528 0.87579 0.4736 0.0
H69 H 0.78988 0.87792 0.51348 0.0
H70 H 0.74576 0.90278 0.57736 0.0
H71 H 0.74775 0.94278 0.64145 0.0
Mn72 Mn 0.24624 0.73792 0.79062 0.0
Mn73 Mn 0.20637 0.69376 0.70382 0.0
C74 C 0.1723 0.75477 0.76415 0.0
C75 C 0.25087 0.73704 0.8623 0.0
C76 C 0.27951 0.76231 0.70415 0.0
O77 O 0.28928 0.68789 0.7854 0.0
O78 O 0.25882 0.66064 0.72762 0.0
C79 C 0.16351 0.6228 0.7462 0.0
N80 N 0.15939 0.65414 0.71897 0.0
C81 C 0.07576 0.64012 0.70905 0.0
C82 C 0.0793 0.60731 0.7365 0.0
C83 C 0.12326 0.5989 0.75547 0.0
C84 C 0.11691 0.66333 0.70155 0.0
H85 H 0.1971 0.61643 0.76114 0.0
C86 C 0.28801 0.66034 0.75776 0.0
O87 O 0.28149 0.75758 0.8405 0.0
O88 O 0.21908 0.71634 0.84245 0.0
N89 N 0.15486 0.7219 0.67743 0.0
C90 C 0.15581 0.75796 0.65656 0.0
C91 C 0.11407 0.77205 0.63729 0.0
C92 C 0.0719 0.74886 0.63953 0.0
C93 C 0.07183 0.71178 0.66104 0.0
C94 C 0.1147 0.69894 0.67904 0.0
H95 H 0.18815 0.77587 0.65468 0.0
O96 O 0.19384 0.77969 0.78888 0.0
O97 O 0.19496 0.72137 0.7556 0.0
O98 O 0.28141 0.76685 0.74307 0.0
O99 O 0.25327 0.73549 0.68658 0.0
C100 C 0.03063 0.68754 0.66615 0.0
C101 C 0.03251 0.65187 0.69039 0.0
H102 H 0.04837 0.58873 0.74367 0.0
H103 H 0.12618 0.57392 0.77699 0.0
H104 H 0.11435 0.80076 0.62082 0.0
H105 H 0.03972 0.75997 0.62489 0.0
H106 H 0.99698 0.69665 0.65258 0.0
H107 H 0.00022 0.63426 0.69529 0.0
Mn108 Mn 0.49459 0.99166 0.04392 0.0
Mn109 Mn 0.53472 0.07814 0.0883 0.0
C110 C 0.56943 0.01711 0.02799 0.0
C111 C 0.48803 0.92028 0.04601 0.0
C112 C 0.46227 0.07805 0.01908 0.0
O113 O 0.45025 0.99796 0.09308 0.0
O114 O 0.48241 0.05441 0.12155 0.0
C115 C 0.57773 0.03553 0.15904 0.0
N116 N 0.58178 0.0629 0.1278 0.0
C117 C 0.66564 0.07204 0.14114 0.0
C118 C 0.66224 0.04434 0.17376 0.0
C119 C 0.61814 0.02578 0.18254 0.0
C120 C 0.62431 0.08005 0.11836 0.0
H121 H 0.54406 0.02077 0.16555 0.0
C122 C 0.45231 0.02497 0.12121 0.0
O123 O 0.45916 0.94219 0.02381 0.0
O124 O 0.51967 0.93983 0.06719 0.0
N125 N 0.58609 0.10449 0.06001 0.0
C126 C 0.58492 0.12567 0.02411 0.0
C127 C 0.62656 0.14508 1.01002 0.0
C128 C 0.66886 0.1426 0.033 0.0
C129 C 0.66919 0.12069 0.06987 0.0
C130 C 0.62637 0.10271 0.08281 0.0
H131 H 0.55246 0.12776 1.00638 0.0
O132 O 0.54818 0.99216 1.00313 0.0
O133 O 0.54609 0.02626 0.06092 0.0
O134 O 0.46107 0.03923 1.01384 0.0
O135 O 0.48763 0.09542 0.04665 0.0
C136 C 0.71059 0.11511 0.09375 0.0
C137 C 0.70891 0.09042 0.12911 0.0
H138 H 0.69334 0.03677 0.19199 0.0
H139 H 0.61529 1.0041 0.20741 0.0
H140 H 0.62608 0.16186 0.98147 0.0
H141 H 0.70096 0.15739 0.02194 0.0
H142 H 0.74426 0.12854 0.08449 0.0
H143 H 0.74136 0.08487 0.1462 0.0
Mn144 Mn 0.24577 0.73802 0.24347 0.0
Mn145 Mn 0.28679 0.69535 0.3307 0.0
C146 C 0.31977 0.75581 0.26931 0.0
C147 C 0.24064 0.73647 0.17183 0.0
C148 C 0.21272 0.76318 0.32975 0.0
O149 O 0.20339 0.68759 0.24963 0.0
O150 O 0.23465 0.6615 0.30768 0.0
C151 C 0.33029 0.62439 0.28889 0.0
N152 N 0.33415 0.65597 0.31582 0.0
C153 C 0.418 0.6428 0.32552 0.0
C154 C 0.41476 0.6098 0.29834 0.0
C155 C 0.37081 0.60083 0.27962 0.0
C156 C 0.3766 0.66571 0.33294 0.0
H157 H 0.2967 0.61762 0.27415 0.0
C158 C 0.20524 0.66045 0.27772 0.0
O159 O 0.20991 0.75689 0.1936 0.0
O160 O 0.27279 0.71616 0.19172 0.0
N161 N 0.33809 0.72424 0.35643 0.0
C162 C 0.3368 0.7605 0.37686 0.0
C163 C 0.37844 0.77511 0.39586 0.0
C164 C 0.42084 0.75222 0.39381 0.0
C165 C 0.42127 0.71491 0.37275 0.0
C166 C 0.3785 0.70157 0.355 0.0
H167 H 0.30426 0.77817 0.37861 0.0
O168 O 0.29774 0.78026 0.24438 0.0
O169 O 0.29751 0.72236 0.27845 0.0
O170 O 0.21057 0.7672 0.29077 0.0
O171 O 0.23944 0.73686 0.34761 0.0
C172 C 0.46271 0.69092 0.36784 0.0
C173 C 0.46116 0.65504 0.34397 0.0
H174 H 0.44591 0.59147 0.2912 0.0
H175 H 0.36813 0.57567 0.25828 0.0
H176 H 0.37788 0.80398 0.41198 0.0
H177 H 0.45291 0.76373 0.40828 0.0
H178 H 0.49629 0.70038 0.38126 0.0
H179 H 0.49363 0.63765 0.33919 0.0
Mn180 Mn 0.49365 0.03865 0.48842 0.0
Mn181 Mn 0.53495 0.95166 0.44597 0.0
C182 C 0.56785 1.01319 0.50631 0.0
C183 C 0.48855 0.11018 0.48602 0.0
C184 C 0.46068 0.95248 0.51372 0.0
O185 O 0.4512 0.03223 0.43809 0.0
O186 O 0.48307 0.97465 0.41169 0.0
C187 C 0.57904 0.99363 0.37532 0.0
N188 N 0.58263 0.96658 0.40688 0.0
C189 C 0.66676 0.95758 0.39475 0.0
C190 C 0.6638 0.98481 0.36171 0.0
C191 C 0.61984 1.00327 0.35224 0.0
C192 C 0.62507 0.9497 0.4171 0.0
H193 H 0.54544 1.00823 0.36823 0.0
C194 C 0.4534 1.00441 0.41076 0.0
O195 O 0.45784 0.08873 0.50684 0.0
O196 O 0.52062 0.09003 0.46594 0.0
N197 N 0.58597 0.92604 0.47535 0.0
C198 C 0.58437 0.90579 0.51177 0.0
C199 C 0.62597 0.88715 0.52693 0.0
C200 C 0.66868 0.88945 0.50447 0.0
C201 C 0.66944 0.91041 0.46705 0.0
C202 C 0.62666 0.92769 0.45308 0.0
H203 H 0.55162 0.90392 0.52914 0.0
O204 O 0.5457 0.03811 0.53066 0.0
O205 O 0.5455 1.00382 0.47297 0.0
O206 O 0.45862 0.99142 0.51797 0.0
O207 O 0.48728 0.93479 0.48722 0.0
C208 C 0.71123 0.91581 0.44363 0.0
C209 C 0.70996 0.93973 0.40773 0.0
H210 H 0.6952 0.99227 0.3438 0.0
H211 H 0.61738 0.02472 0.3271 0.0
H212 H 0.62516 0.87114 0.55591 0.0
H213 H 0.70073 0.87532 0.51644 0.0
H214 H 0.74487 0.90289 0.45361 0.0
H215 H 0.74271 0.94525 0.39105 0.0
Mn216 Mn 0.2504 0.29477 0.74301 0.0
Mn217 Mn 0.20828 0.33812 0.82946 0.0
C218 C 0.17504 0.27866 0.76709 0.0
C219 C 0.25869 0.29734 0.67173 0.0
C220 C 0.28049 0.26874 0.82971 0.0
O221 O 0.29457 0.34378 0.75057 0.0
O222 O 0.26136 0.37138 0.80706 0.0
C223 C 0.16672 0.40956 0.78701 0.0
N224 N 0.16187 0.37807 0.81397 0.0
C225 C 0.07814 0.39237 0.82274 0.0
C226 C 0.08241 0.42534 0.79556 0.0
C227 C 0.12681 0.43368 0.77731 0.0
C228 C 0.11898 0.3689 0.83063 0.0
H229 H 0.20066 0.41586 0.77261 0.0
C230 C 0.29203 0.37146 0.77802 0.0
O231 O 0.28703 0.27502 0.69401 0.0
O232 O 0.22661 0.31845 0.69087 0.0
N233 N 0.15605 0.30985 0.85458 0.0
C234 C 0.1564 0.27365 0.87522 0.0
C235 C 0.11429 0.25974 0.89402 0.0
C236 C 0.07238 0.28325 0.89154 0.0
C237 C 0.07288 0.32041 0.87018 0.0
C238 C 0.11611 0.33308 0.85273 0.0
H239 H 0.18858 0.25555 0.87738 0.0
O240 O 0.19686 0.25405 0.74223 0.0
O241 O 0.19808 0.3115 0.77696 0.0
O242 O 0.28279 0.2642 0.79083 0.0
O243 O 0.25464 0.29601 0.84706 0.0
C244 C 0.03195 0.34495 0.86478 0.0
C245 C 0.03448 0.38074 0.84077 0.0
H246 H 0.05174 0.44414 0.78808 0.0
H247 H 0.13034 0.45879 0.75603 0.0
H248 H 0.11412 0.23096 0.91038 0.0
H249 H 0.03998 0.27237 0.90598 0.0
H250 H -0.00197 0.336 0.87794 0.0
H251 H 0.00241 0.39857 0.8356 0.0
Mn252 Mn 0.00136 0.99366 0.98773 0.0
Mn253 Mn 0.95808 0.08215 0.94965 0.0
C254 C 0.92602 0.01654 1.00625 0.0
C255 C 0.01006 0.92263 0.98174 0.0
C256 C 0.03319 0.07845 0.0166 0.0
O257 O 0.04491 1.0046 0.93839 0.0
O258 O 0.00826 0.06055 0.91307 0.0
C259 C 0.91088 0.04464 0.87804 0.0
N260 N 0.90882 0.06977 0.91118 0.0
C261 C 0.82486 0.08173 0.90086 0.0
C262 C 0.82624 0.05656 0.8662 0.0
C263 C 0.86929 0.03741 0.85514 0.0
C264 C 0.8672 0.08702 0.92306 0.0
H265 H 0.94388 0.02977 0.86954 0.0
C266 C 0.04001 0.03243 0.91114 0.0
O267 O 0.03868 0.94405 1.00456 0.0
O268 O 0.97767 0.94256 0.96166 0.0
N269 N 0.90839 0.10633 0.9818 0.0
C270 C 0.91138 0.12415 0.01937 0.0
C271 C 0.87064 0.14253 0.03645 0.0
C272 C 0.82738 0.14257 1.01466 0.0
C273 C 0.8252 0.12413 0.97601 0.0
C274 C 0.86711 0.10682 0.96029 0.0
H275 H 0.94458 0.1243 0.0362 0.0
O276 O 0.94827 0.99023 0.02903 0.0
O277 O 0.94857 0.02836 0.97378 0.0
O278 O 0.03378 0.03956 0.02071 0.0
O279 O 0.00774 0.0972 0.99001 0.0
C280 C 0.78283 0.12137 0.95291 0.0
C281 C 0.7826 0.09995 0.91549 0.0
H282 H 0.79428 0.05107 0.84833 0.0
H283 H 0.87048 0.0174 0.82881 0.0
H284 H 0.87256 0.15659 0.06636 0.0
H285 H 0.79598 0.15652 0.02805 0.0
H286 H 0.74988 0.13451 0.96418 0.0
H287 H 0.7494 0.09661 0.89888 0.0
Mn288 Mn 0.74374 0.23481 0.73962 0.0
Mn289 Mn 0.78743 0.198 0.82854 0.0
C290 C 0.81888 0.25408 0.76229 0.0
C291 C 0.73542 0.22778 0.66859 0.0
C292 C 0.71208 0.26464 0.82419 0.0
O293 O 0.70035 0.18557 0.75129 0.0
O294 O 0.73729 0.16119 0.80751 0.0
C295 C 0.83474 0.1263 0.79134 0.0
N296 N 0.83676 0.15956 0.8163 0.0
C297 C 0.92078 0.14953 0.82811 0.0
C298 C 0.91946 0.11474 0.80312 0.0
C299 C 0.87639 0.10346 0.78416 0.0
C300 C 0.87839 0.17165 0.83336 0.0
H301 H 0.80172 0.11765 0.7766 0.0
C302 C 0.70537 0.15882 0.77959 0.0
O303 O 0.70654 0.25077 0.68959 0.0
O304 O 0.76773 0.20807 0.68896 0.0
N305 N 0.83706 0.23039 0.85239 0.0
C306 C 0.8339 0.26793 0.87021 0.0
C307 C 0.87456 0.28508 0.88863 0.0
C308 C 0.91789 0.2634 0.88872 0.0
C309 C 0.92022 0.22476 0.8703 0.0
C310 C 0.87839 0.20895 0.85297 0.0
H311 H 0.80064 0.28465 0.87038 0.0
O312 O 0.79652 0.2763 0.73557 0.0
O313 O 0.79664 0.22163 0.7745 0.0
O314 O 0.71122 0.26825 0.7852 0.0
O315 O 0.73773 0.2384 0.84321 0.0
C316 C 0.96265 0.20173 0.86761 0.0
C317 C 0.963 0.16431 0.84625 0.0
H318 H 0.95146 0.09691 0.79768 0.0
H319 H 0.87522 0.07699 0.76435 0.0
H320 H 0.87252 0.31497 0.90269 0.0
H321 H 0.94919 0.27683 0.90274 0.0
H322 H 0.99557 0.21308 0.88073 0.0
H323 H 0.99625 0.14778 0.8429 0.0
Mn324 Mn -0.00107 0.54263 0.98799 0.0
Mn325 Mn 0.0354 0.45327 0.94676 0.0
C326 C 0.07241 0.51534 1.00505 0.0
C327 C 0.99499 0.61412 0.98357 0.0
C328 C 0.96202 0.45856 1.01496 0.0
O329 O 0.95454 0.53565 0.93885 0.0
O330 O 0.98571 0.47811 0.91153 0.0
C331 C 0.08336 0.49107 0.87565 0.0
N332 N 0.08464 0.46479 0.90795 0.0
C333 C 0.16801 0.45067 0.89664 0.0
C334 C 0.1674 0.47716 0.86292 0.0
C335 C 0.12504 0.49783 0.85272 0.0
C336 C 0.12562 0.44583 0.91892 0.0
H337 H 0.05097 0.50727 0.86789 0.0
C338 C 0.95649 0.50822 0.91106 0.0
O339 O 0.96528 0.59363 1.0063 0.0
O340 O 0.02593 0.59309 0.96299 0.0
N341 N 0.08424 0.42594 0.9774 0.0
C342 C 0.08084 0.40692 1.01439 0.0
C343 C 0.12091 0.38663 0.03049 0.0
C344 C 0.16394 0.386 1.00836 0.0
C345 C 0.16653 0.40565 0.9703 0.0
C346 C 0.12522 0.42478 0.95548 0.0
H347 H 0.04786 0.40729 0.03152 0.0
O348 O 0.0524 0.54205 0.02884 0.0
O349 O 0.04878 0.50574 0.97243 0.0
O350 O 0.96378 0.49734 0.01995 0.0
O351 O 0.9858 0.43938 0.98757 0.0
C352 C 0.20882 0.40795 0.947 0.0
C353 C 0.20964 0.43066 0.9103 0.0
H354 H 0.19945 0.48241 0.84508 0.0
H355 H 0.12445 0.51868 0.82705 0.0
H356 H 0.11868 0.37163 0.05995 0.0
H357 H 0.1949 0.37071 0.02108 0.0
H358 H 0.24131 0.39346 0.95767 0.0
H359 H 0.24281 0.43349 0.89344 0.0
Mn360 Mn 0.75141 0.79637 0.24358 0.0
Mn361 Mn 0.70777 0.83462 0.33186 0.0
C362 C 0.67603 0.77804 0.26654 0.0
C363 C 0.7591 0.80248 0.17232 0.0
C364 C 0.78177 0.76659 0.32885 0.0
O365 O 0.79515 0.84547 0.25413 0.0
O366 O 0.75941 0.8701 0.31076 0.0
C367 C 0.66335 0.90708 0.29342 0.0
N368 N 0.6599 0.87415 0.31875 0.0
C369 C 0.57608 0.88638 0.32968 0.0
C370 C 0.57887 0.92073 0.30413 0.0
C371 C 0.62256 0.93078 0.2855 0.0
C372 C 0.61766 0.86329 0.3356 0.0
H373 H 0.69683 0.9148 0.2789 0.0
C374 C 0.79096 0.8722 0.28246 0.0
O375 O 0.78802 0.77953 0.19339 0.0
O376 O 0.7272 0.82256 0.1927 0.0
N377 N 0.65676 0.80381 0.3558 0.0
C378 C 0.65847 0.76651 0.37434 0.0
C379 C 0.61708 0.75068 0.39279 0.0
C380 C 0.57452 0.77344 0.39222 0.0
C381 C 0.57366 0.81182 0.37311 0.0
C382 C 0.61618 0.82628 0.35576 0.0
H383 H 0.69114 0.74897 0.37506 0.0
O384 O 0.69829 0.75512 0.2404 0.0
O385 O 0.69853 0.81052 0.27816 0.0
O386 O 0.78408 0.76351 0.28981 0.0
O387 O 0.75558 0.79293 0.34718 0.0
C388 C 0.53207 0.83589 0.36982 0.0
C389 C 0.53319 0.87302 0.34785 0.0
H390 H 0.54754 0.93925 0.2981 0.0
H391 H 0.62491 0.957 0.26543 0.0
H392 H 0.61797 0.721 0.40743 0.0
H393 H 0.54267 0.76103 0.40631 0.0
H394 H 0.49868 0.82558 0.383 0.0
H395 H 0.50059 0.89053 0.34423 0.0
Mn396 Mn -0.00081 0.49107 0.54436 0.0
Mn397 Mn 0.03893 0.57945 0.58558 0.0
C398 C 0.07347 0.51673 0.52715 0.0
C399 C 0.99377 0.41952 0.54853 0.0
C400 C 0.96576 0.57639 0.51695 0.0
O401 O 0.95534 0.49872 0.59369 0.0
O402 O 0.98741 0.55627 0.62009 0.0
C403 C 0.08354 0.54056 0.65773 0.0
N404 N 0.08671 0.5665 0.62525 0.0
C405 C 0.17012 0.57868 0.63836 0.0
C406 C 0.16756 0.55256 0.67229 0.0
C407 C 0.12422 0.53305 0.68169 0.0
C408 C 0.12862 0.58436 0.61509 0.0
H409 H 0.05036 0.52532 0.66495 0.0
C410 C 0.95758 0.52663 0.62096 0.0
O411 O 0.96433 0.44053 0.526 0.0
O412 O 0.02516 0.44006 0.56903 0.0
N413 N 0.08956 0.60534 0.55583 0.0
C414 C 0.08774 0.62473 0.51895 0.0
C415 C 0.12886 0.64416 0.50378 0.0
C416 C 0.17128 0.64366 0.52675 0.0
C417 C 0.17221 0.62372 0.56472 0.0
C418 C 0.12995 0.60542 0.57856 0.0
H419 H 0.05521 0.62531 0.50121 0.0
O420 O 0.05241 0.49076 0.50323 0.0
O421 O 0.05042 0.52669 0.55996 0.0
O422 O 0.96479 0.53742 0.51286 0.0
O423 O 0.99119 0.59466 0.54385 0.0
C424 C 0.21371 0.62047 0.58892 0.0
C425 C 0.21274 0.59773 0.62561 0.0
H426 H 0.19881 0.54677 0.69099 0.0
H427 H 0.12204 0.51259 0.70759 0.0
H428 H 0.12789 0.65943 0.47441 0.0
H429 H 0.203 0.6584 0.51482 0.0
H430 H 0.24691 0.6343 0.57902 0.0
H431 H 0.24527 0.59423 0.64324 0.0
Mn432 Mn 0.50096 0.54052 0.04199 0.0
Mn433 Mn 0.46394 0.4516 0.08381 0.0
C434 C 0.42753 0.51328 0.02481 0.0
C435 C 0.50479 0.61197 0.04548 0.0
C436 C 0.53752 0.45613 1.01576 0.0
O437 O 0.545 0.5339 0.09147 0.0
O438 O 0.5139 0.47631 0.11876 0.0
C439 C 0.41641 0.49066 0.1544 0.0
N440 N 0.41487 0.46389 0.12254 0.0
C441 C 0.33132 0.45075 0.13396 0.0
C442 C 0.33222 0.47765 0.1673 0.0
C443 C 0.3748 0.4981 0.17722 0.0
C444 C 0.37366 0.44522 0.11179 0.0
H445 H 0.44897 0.5067 0.16189 0.0
C446 C 0.54308 0.50641 0.11927 0.0
O447 O 0.53476 0.59128 0.02322 0.0
O448 O 0.47379 0.59115 0.06622 0.0
N449 N 0.4148 0.42437 0.05354 0.0
C450 C 0.41796 0.40496 0.01678 0.0
C451 C 0.37766 0.38488 1.00093 0.0
C452 C 0.33462 0.38485 0.02306 0.0
C453 C 0.33228 0.4049 0.0609 0.0
C454 C 0.37382 0.42378 0.07549 0.0
H455 H 0.45095 0.40488 0.99964 0.0
O456 O 0.44783 0.53968 1.00082 0.0
O457 O 0.45091 0.5039 0.05765 0.0
O458 O 0.5362 0.49492 1.01073 0.0
O459 O 0.51337 0.43708 0.04304 0.0
C460 C 0.29001 0.40785 0.08414 0.0
C461 C 0.28945 0.43098 0.12053 0.0
H462 H 0.30022 0.48341 0.18505 0.0
H463 H 0.37562 0.51933 0.20256 0.0
H464 H 0.3797 0.36957 0.97164 0.0
H465 H 0.30348 0.36973 1.01052 0.0
H466 H 0.25735 0.39356 0.07365 0.0
H467 H 0.2563 0.43433 0.13733 0.0
Mn468 Mn 0.74172 0.79561 0.7926 0.0
Mn469 Mn 0.78341 0.83323 0.70326 0.0
C470 C 0.81647 0.77695 0.7687 0.0
C471 C 0.73516 0.80223 0.86386 0.0
C472 C 0.7088 0.76607 0.70826 0.0
O473 O 0.69775 0.84469 0.78193 0.0
O474 O 0.73322 0.86953 0.72517 0.0
C475 C 0.83057 0.90513 0.74014 0.0
N476 N 0.83254 0.87198 0.71503 0.0
C477 C 0.91631 0.88261 0.70237 0.0
C478 C 0.91502 0.91724 0.72757 0.0
C479 C 0.87212 0.92817 0.74704 0.0
C480 C 0.87404 0.86025 0.69745 0.0
H481 H 0.79769 0.9135 0.75528 0.0
C482 C 0.70189 0.87156 0.75364 0.0
O483 O 0.7059 0.77919 0.84331 0.0
O484 O 0.76671 0.82222 0.84295 0.0
N485 N 0.83301 0.80132 0.67864 0.0
C486 C 0.83001 0.76377 0.66082 0.0
C487 C 0.87062 0.74687 0.64207 0.0
C488 C 0.91375 0.76882 0.64163 0.0
C489 C 0.91592 0.80748 0.66 0.0
C490 C 0.87413 0.82302 0.67771 0.0
H491 H 0.79691 0.74681 0.66098 0.0
O492 O 0.79485 0.7544 0.79557 0.0
O493 O 0.79374 0.80935 0.75702 0.0
O494 O 0.70853 0.76224 0.74725 0.0
O495 O 0.73394 0.79254 0.68908 0.0
C496 C 0.95818 0.83076 0.66235 0.0
C497 C 0.95844 0.86817 0.68376 0.0
H498 H 0.94695 0.93521 0.73281 0.0
H499 H 0.871 0.9545 0.76704 0.0
H500 H 0.86872 0.71696 0.62805 0.0
H501 H 0.94508 0.75554 0.62744 0.0
H502 H 0.99104 0.8196 0.64893 0.0
H503 H 0.99157 0.88496 0.68676 0.0
Mn504 Mn 0.75205 0.23626 0.28892 0.0
Mn505 Mn 0.71201 0.19898 0.19902 0.0
C506 C 0.67795 0.25542 0.26384 0.0
C507 C 0.7574 0.22939 0.36021 0.0
C508 C 0.78713 0.2657 0.20515 0.0
O509 O 0.79582 0.18694 0.27895 0.0
O510 O 0.76124 0.16215 0.22185 0.0
C511 C 0.66302 0.12778 0.23559 0.0
N512 N 0.6621 0.16073 0.21012 0.0
C513 C 0.5784 0.15104 0.1964 0.0
C514 C 0.57864 0.11659 0.22193 0.0
C515 C 0.62095 0.10533 0.24214 0.0
C516 C 0.62113 0.17287 0.1919 0.0
H517 H 0.69543 0.11916 0.25131 0.0
C518 C 0.79192 0.15994 0.25083 0.0
O519 O 0.78713 0.25234 0.34001 0.0
O520 O 0.72591 0.20972 0.33895 0.0
N521 N 0.66338 0.23135 0.17352 0.0
C522 C 0.66725 0.26886 0.15567 0.0
C523 C 0.62726 0.28615 0.13628 0.0
C524 C 0.58383 0.26466 0.13529 0.0
C525 C 0.58075 0.22604 0.15373 0.0
C526 C 0.62197 0.21007 0.17204 0.0
H527 H 0.70057 0.28548 0.15626 0.0
O528 O 0.69916 0.27779 0.29107 0.0
O529 O 0.70071 0.22293 0.25255 0.0
O530 O 0.78642 0.2695 0.24412 0.0
O531 O 0.76234 0.23929 0.18556 0.0
C532 C 0.53809 0.20323 0.15558 0.0
C533 C 0.53685 0.16585 0.17711 0.0
H534 H 0.54631 0.09907 0.22693 0.0
H535 H 0.62121 0.07919 0.26246 0.0
H536 H 0.62987 0.31603 0.1222 0.0
H537 H 0.55296 0.27825 0.12064 0.0
H538 H 0.50567 0.21474 0.14166 0.0
H539 H 0.50342 0.14935 0.17965 0.0
Mn540 Mn 0.50157 0.49071 0.48755 0.0
Mn541 Mn 0.46412 0.57987 0.44648 0.0
C542 C 0.42883 0.51836 0.506 0.0
C543 C 0.50436 0.41916 0.48481 0.0
C544 C 0.53863 0.57512 0.51365 0.0
O545 O 0.54411 0.49677 0.43708 0.0
O546 O 0.5142 0.55551 0.41132 0.0
C547 C 0.41685 0.54108 0.37561 0.0
N548 N 0.41508 0.5675 0.40775 0.0
C549 C 0.33138 0.58015 0.39655 0.0
C550 C 0.33249 0.55353 0.36299 0.0
C551 C 0.37528 0.53353 0.35279 0.0
C552 C 0.37371 0.58582 0.41869 0.0
H553 H 0.44955 0.52536 0.36788 0.0
C554 C 0.54265 0.5249 0.40992 0.0
O555 O 0.53578 0.43985 0.50553 0.0
O556 O 0.47281 0.44006 0.46477 0.0
N557 N 0.41482 0.60676 0.47691 0.0
C558 C 0.41788 0.62602 0.51376 0.0
C559 C 0.37739 0.64568 0.52982 0.0
C560 C 0.33428 0.64545 0.50781 0.0
C561 C 0.33204 0.62559 0.46987 0.0
C562 C 0.37375 0.60709 0.45508 0.0
H563 H 0.45092 0.62626 0.53082 0.0
O564 O 0.44974 0.49218 0.52988 0.0
O565 O 0.45141 0.52751 0.47269 0.0
O566 O 0.53815 0.53621 0.51782 0.0
O567 O 0.51345 0.59444 0.48726 0.0
C568 C 0.28975 0.62246 0.44669 0.0
C569 C 0.28934 0.59954 0.41017 0.0
H570 H 0.30052 0.54769 0.34525 0.0
H571 H 0.37628 0.51255 0.32724 0.0
H572 H 0.37934 0.66084 0.55919 0.0
H573 H 0.30299 0.66023 0.52053 0.0
H574 H 0.25698 0.63649 0.45729 0.0
H575 H 0.2562 0.59608 0.3934 0.0
H576 H 0.19918 0.18653 0.2175 0.0
H577 H 0.1607 0.28717 0.13885 0.0
H578 H 0.15851 0.13917 0.17171 0.0
H579 H 0.11686 0.24083 0.09462 0.0
H580 H 0.08096 0.1485 0.99871 0.0
H581 H 0.12441 0.19288 0.04514 0.0
H582 H 0.08966 0.11201 0.14578 0.0
H583 H 0.04936 0.06617 0.09817 0.0
C584 C 0.181 0.19858 0.19083 0.0
C585 C 0.18318 0.24047 0.18166 0.0
C586 C 0.15742 0.17144 0.1645 0.0
C587 C 0.13442 0.1857 0.12881 0.0
C588 C 0.13524 0.22808 0.12081 0.0
C589 C 0.15991 0.25493 0.14649 0.0
C590 C 0.08315 0.14009 0.03073 0.0
C591 C 0.06196 0.10385 0.04481 0.0
C592 C 0.10759 0.16584 0.05765 0.0
C593 C 0.11026 0.15678 0.09978 0.0
C594 C 0.08928 0.12007 0.11367 0.0
C595 C 0.06593 0.0937 0.08641 0.0
H596 H 0.03631 0.87006 0.52031 0.0
H597 H 0.08535 0.97542 0.45225 0.0
H598 H 0.07872 0.82535 0.4737 0.0
H599 H 0.12872 0.9301 0.4056 0.0
H600 H 0.15898 0.83031 0.30719 0.0
H601 H 0.11533 0.87723 0.35199 0.0
H602 H 0.16033 0.80724 0.45722 0.0
H603 H 0.20304 0.76033 0.41295 0.0
C604 C 0.05637 0.88386 0.49555 0.0
C605 C 0.05745 0.9266 0.49034 0.0
C606 C 0.08093 0.85805 0.46882 0.0
C607 C 0.10736 0.87405 0.43595 0.0
C608 C 0.10837 0.91674 0.43042 0.0
C609 C 0.08382 0.94274 0.45738 0.0
C610 C 0.1593 0.82478 0.33986 0.0
C611 C 0.18443 0.79126 0.35627 0.0
C612 C 0.13461 0.85191 0.36557 0.0
C613 C 0.13421 0.846 0.40823 0.0
C614 C 0.15926 0.81247 0.4245 0.0
C615 C 0.18399 0.78556 0.39897 0.0
H616 H 0.406 0.97447 0.58054 0.0
H617 H 0.45241 0.86927 0.51108 0.0
H618 H 0.36287 0.92919 0.62743 0.0
H619 H 0.41034 0.82455 0.55797 0.0
H620 H 0.3338 0.82932 0.72596 0.0
H621 H 0.37669 0.87622 0.68055 0.0
H622 H 0.32949 0.80652 0.57597 0.0
H623 H 0.28764 0.7596 0.62084 0.0
C624 C 0.40695 0.94183 0.57512 0.0
C625 C 0.43259 0.92572 0.54176 0.0
C626 C 0.38257 0.91584 0.60224 0.0
C627 C 0.38303 0.87319 0.59647 0.0
C628 C 0.40857 0.85723 0.56308 0.0
C629 C 0.43293 0.88304 0.53618 0.0
C630 C 0.33285 0.82385 0.6933 0.0
C631 C 0.30737 0.79039 0.67726 0.0
C632 C 0.35709 0.85098 0.66724 0.0
C633 C 0.35665 0.84514 0.62457 0.0
C634 C 0.33124 0.81168 0.60867 0.0
C635 C 0.30701 0.78476 0.63455 0.0
H636 H 0.40923 0.05653 0.95128 0.0
H637 H 0.45239 0.16114 0.02309 0.0
H638 H 0.36558 0.1019 0.90493 0.0
H639 H 0.40969 0.20603 0.97669 0.0
H640 H 0.28639 0.27006 0.91326 0.0
H641 H 0.32855 0.22312 0.958 0.0
H642 H 0.37907 0.15575 0.853 0.0
H643 H 0.33601 0.2026 0.80777 0.0
C644 C 0.40939 0.08908 0.9573 0.0
C645 C 0.43427 0.10498 0.99117 0.0
C646 C 0.38467 0.11513 0.93051 0.0
C647 C 0.38402 0.15765 0.93708 0.0
C648 C 0.4088 0.17343 0.97096 0.0
C649 C 0.43354 0.14755 0.99756 0.0
C650 C 0.30653 0.24538 0.89946 0.0
C651 C 0.30783 0.24039 0.85668 0.0
C652 C 0.33093 0.21846 0.92526 0.0
C653 C 0.35739 0.18568 0.90917 0.0
C654 C 0.35865 0.18045 0.86644 0.0
C655 C 0.33425 0.20754 0.84049 0.0
H656 H 0.69695 0.34625 0.81168 0.0
H657 H 0.66399 0.24728 0.89418 0.0
H658 H 0.65789 0.39438 0.85784 0.0
H659 H 0.6218 0.29427 0.93889 0.0
H660 H 0.58903 0.38802 0.03379 0.0
H661 H 0.6317 0.34354 0.98687 0.0
H662 H 0.58964 0.42118 0.88573 0.0
H663 H 0.55013 0.4672 0.93365 0.0
C664 C 0.68029 0.33473 0.8393 0.0
C665 C 0.68354 0.29312 0.84943 0.0
C666 C 0.65769 0.36229 0.86585 0.0
C667 C 0.63683 0.34868 0.90274 0.0
C668 C 0.63863 0.30653 0.91172 0.0
C669 C 0.6623 0.27931 0.88578 0.0
C670 C 0.58954 0.39575 1.00155 0.0
C671 C 0.56646 0.4311 0.98737 0.0
C672 C 0.6135 0.36993 0.97437 0.0
C673 C 0.61373 0.37799 0.93197 0.0
C674 C 0.59108 0.41392 0.918 0.0
C675 C 0.56822 0.44038 0.94546 0.0
H676 H 0.94896 0.46964 0.09712 0.0
H677 H 0.9107 0.39049 0.99694 0.0
H678 H 0.90961 0.42329 0.14501 0.0
H679 H 0.8684 0.34565 0.04381 0.0
H680 H 0.8371 0.24883 0.13599 0.0
H681 H 0.87949 0.29629 0.09185 0.0
H682 H 0.84105 0.39587 0.17255 0.0
H683 H 0.80163 0.34732 0.21815 0.0
C684 C 0.93106 0.44277 0.08529 0.0
C685 C 0.93296 0.43358 0.04337 0.0
C686 C 0.90833 0.41611 0.11272 0.0
C687 C 0.88606 0.38005 0.09871 0.0
C688 C 0.88636 0.37213 0.05632 0.0
C689 C 0.9101 0.39817 0.02917 0.0
C690 C 0.83833 0.28083 0.14448 0.0
C691 C 0.81622 0.29437 0.18052 0.0
C692 C 0.86212 0.30832 0.11885 0.0
C693 C 0.86322 0.35046 0.12785 0.0
C694 C 0.8417 0.36379 0.16453 0.0
C695 C 0.81893 0.33598 0.19076 0.0
H696 H 0.91268 0.5536 0.44933 0.0
H697 H 0.95557 0.65933 0.51963 0.0
H698 H 0.86856 0.5984 0.40246 0.0
H699 H 0.91261 0.70342 0.4729 0.0
H700 H 0.78789 0.76613 0.41222 0.0
H701 H 0.83038 0.7187 0.45595 0.0
H702 H 0.88105 0.65329 0.34979 0.0
H703 H 0.83748 0.70083 0.30535 0.0
C704 C 0.91268 0.58622 0.45491 0.0
C705 C 0.93752 0.60264 0.48857 0.0
C706 C 0.88773 0.61191 0.42784 0.0
C707 C 0.88684 0.6545 0.43402 0.0
C708 C 0.91183 0.67075 0.46753 0.0
C709 C 0.93672 0.64529 0.49435 0.0
C710 C 0.80809 0.7418 0.39788 0.0
C711 C 0.80937 0.73766 0.35501 0.0
C712 C 0.83268 0.71457 0.42313 0.0
C713 C 0.85943 0.68229 0.40644 0.0
C714 C 0.8605 0.67769 0.36363 0.0
C715 C 0.83585 0.70515 0.33817 0.0
H716 H 0.58752 0.64502 0.49708 0.0
H717 H 0.55324 0.56181 0.59517 0.0
H718 H 0.62896 0.68934 0.54494 0.0
H719 H 0.59152 0.60752 0.64407 0.0
H720 H 0.69684 0.68384 0.71914 0.0
H721 H 0.65897 0.63576 0.67218 0.0
H722 H 0.61703 0.73684 0.59446 0.0
H723 H 0.65802 0.78389 0.63989 0.0
C724 C 0.58883 0.63633 0.52906 0.0
C725 C 0.56736 0.59993 0.54238 0.0
C726 C 0.61204 0.66205 0.55679 0.0
C727 C 0.61311 0.65278 0.59894 0.0
C728 C 0.59223 0.61576 0.61202 0.0
C729 C 0.5701 0.58946 0.58398 0.0
C730 C 0.67907 0.69557 0.69213 0.0
C731 C 0.68037 0.7375 0.68307 0.0
C732 C 0.6572 0.66805 0.6651 0.0
C733 C 0.63517 0.68198 0.62884 0.0
C734 C 0.63485 0.72439 0.62107 0.0
C735 C 0.65778 0.75163 0.64746 0.0
H736 H 0.21003 0.23933 0.41614 0.0
H737 H 0.28464 0.35483 0.41232 0.0
H738 H 0.21637 0.239 0.49109 0.0
H739 H 0.28991 0.35482 0.48697 0.0
H740 H 0.22667 0.35719 0.62099 0.0
H741 H 0.22419 0.35682 0.54625 0.0
H742 H 0.29072 0.23784 0.54513 0.0
H743 H 0.29433 0.23855 0.62027 0.0
C744 C 0.22734 0.26476 0.43129 0.0
C745 C 0.2467 0.29715 0.40838 0.0
C746 C 0.23132 0.26439 0.47407 0.0
C747 C 0.2538 0.29681 0.49469 0.0
C748 C 0.27238 0.32949 0.47181 0.0
C749 C 0.26932 0.32945 0.42911 0.0
C750 C 0.2412 0.3311 0.60483 0.0
C751 C 0.2608 0.29792 0.62646 0.0
C752 C 0.23978 0.33094 0.56208 0.0
C753 C 0.25697 0.2972 0.54002 0.0
C754 C 0.2769 0.26407 0.56152 0.0
C755 C 0.27931 0.26463 0.60439 0.0
H756 H 0.05129 0.09253 0.85456 0.0
H757 H 0.09089 0.96742 0.87959 0.0
H758 H 0.07273 0.08407 0.78382 0.0
H759 H 0.11625 0.95949 0.80858 0.0
H760 H 0.04946 0.94105 0.68012 0.0
H761 H 0.07156 0.9493 0.75069 0.0
H762 H 0.11685 0.07333 0.72565 0.0
H763 H 0.09097 0.06566 0.65475 0.0
C764 C 0.06609 0.06344 0.84517 0.0
C765 C 0.06758 0.03019 0.87243 0.0
C766 C 0.07921 0.05868 0.80434 0.0
C767 C 0.0951 0.02062 0.78969 0.0
C768 C 0.10254 0.98887 0.81829 0.0
C769 C 0.08854 0.99349 0.85923 0.0
C770 C 0.06486 0.96995 0.68937 0.0
C771 C 0.06674 1.00317 0.66205 0.0
C772 C 0.07831 0.97458 0.73012 0.0
C773 C 0.09488 1.01246 0.74467 0.0
C774 C 0.10263 0.04412 0.71602 0.0
C775 C 0.08833 0.03963 0.67514 0.0
H776 H 0.32046 0.76477 0.91485 0.0
H777 H 0.17896 0.7121 0.91245 0.0
H778 H 0.31756 0.76614 0.98987 0.0
H779 H 0.17597 0.71387 0.98693 0.0
H780 H 0.1709 0.76428 0.11941 0.0
H781 H 0.17371 0.76605 0.04441 0.0
H782 H 0.31519 0.71348 0.04704 0.0
H783 H 0.31229 0.71133 0.12152 0.0
C784 C 0.2888 0.75358 0.93028 0.0
C785 C 0.25009 0.73816 0.90769 0.0
C786 C 0.28715 0.75427 0.97318 0.0
C787 C 0.24643 0.74022 0.99429 0.0
C788 C 0.2076 0.72529 0.9716 0.0
C789 C 0.20954 0.724 0.92889 0.0
C790 C 0.20251 0.75307 0.10392 0.0
C791 C 0.24122 0.7375 0.12643 0.0
C792 C 0.20411 0.754 0.06102 0.0
C793 C 0.24479 0.74004 0.03983 0.0
C794 C 0.28359 0.72486 0.06244 0.0
C795 C 0.2817 0.72334 0.10515 0.0
H796 H 0.40695 0.94553 0.36757 0.0
H797 H 0.44172 0.07388 0.36681 0.0
H798 H 0.38278 0.94964 0.29611 0.0
H799 H 0.42182 0.07779 0.29487 0.0
H800 H 0.4029 0.08216 0.16428 0.0
H801 H 0.37945 0.07715 0.2359 0.0
H802 H 0.42416 0.95034 0.23663 0.0
H803 H 0.44325 0.95501 0.16457 0.0
C804 C 0.40826 0.97488 0.3522 0.0
C805 C 0.42622 1.00939 0.37251 0.0
C806 C 0.39516 0.9772 0.31101 0.0
C807 C 0.40158 1.01373 0.28879 0.0
C808 C 0.41572 0.04906 0.31043 0.0
C809 C 0.42735 0.04696 0.35195 0.0
C810 C 0.4055 0.05283 0.17957 0.0
C811 C 0.42482 0.01897 0.15911 0.0
C812 C 0.39287 0.05002 0.22085 0.0
C813 C 0.40122 1.01371 0.24297 0.0
C814 C 0.4166 0.97886 0.22117 0.0
C815 C 0.42772 0.9814 0.17956 0.0
H816 H 0.38755 0.33492 0.28295 0.0
H817 H 0.3732 0.21443 0.23106 0.0
H818 H 0.47416 0.33058 0.27673 0.0
H819 H 0.4604 0.20978 0.22452 0.0
H820 H 0.61196 0.19877 0.28131 0.0
H821 H 0.52553 0.20426 0.27471 0.0
H822 H 0.54126 0.32718 0.22789 0.0
H823 H 0.62844 0.32144 0.23506 0.0
C824 C 0.40318 0.30787 0.26928 0.0
C825 C 0.37418 0.27544 0.25637 0.0
C826 C 0.45265 0.30539 0.26565 0.0
C827 C 0.47405 0.27003 0.24972 0.0
C828 C 0.44483 0.23745 0.23682 0.0
C829 C 0.39516 0.24002 0.24048 0.0
C830 C 0.59683 0.22665 0.26892 0.0
C831 C 0.62639 0.2593 0.25758 0.0
C832 C 0.54746 0.22977 0.26502 0.0
C833 C 0.52667 0.26593 0.25026 0.0
C834 C 0.5564 0.29891 0.23928 0.0
C835 C 0.60603 0.29572 0.2433 0.0
H836 H 0.95938 0.36593 0.49106 0.0
H837 H 0.02916 0.37068 0.60874 0.0
H838 H 0.96573 0.291 0.49167 0.0
H839 H 0.03437 0.29607 0.60972 0.0
H840 H 0.97559 0.16096 0.61119 0.0
H841 H 0.97136 0.23563 0.6106 0.0
H842 H 0.0396 0.23777 0.49226 0.0
H843 H 0.04499 0.1628 0.49323 0.0
C844 C 0.97551 0.35097 0.51721 0.0
C845 C 0.99368 0.37417 0.54987 0.0
C846 C 0.97952 0.30819 0.51739 0.0
C847 C 0.00076 0.28779 0.55066 0.0
C848 C 0.0178 0.31097 0.58372 0.0
C849 C 0.01479 0.35367 0.58312 0.0
C850 C 0.99019 0.17735 0.58522 0.0
C851 C 0.01082 0.15601 0.55232 0.0
C852 C 0.98773 0.22008 0.58491 0.0
C853 C 0.00483 0.24244 0.55126 0.0
C854 C 0.02579 0.22121 0.51842 0.0
C855 C 0.02926 0.1784 0.51916 0.0
H856 H 0.86643 0.711 0.74072 0.0
H857 H 0.88212 0.83376 0.78668 0.0
H858 H 0.95361 0.70554 0.73382 0.0
H859 H 0.96865 0.82853 0.78041 0.0
H860 H 0.12067 0.81877 0.73395 0.0
H861 H 0.03331 0.82356 0.72986 0.0
H862 H 0.02125 0.70238 0.78176 0.0
H863 H 0.108 0.69797 0.78573 0.0
C864 C 0.88869 0.73678 0.74902 0.0
C865 C 0.86811 0.77317 0.76303 0.0
C866 C 0.93833 0.73375 0.74517 0.0
C867 C 0.96785 0.76686 0.75607 0.0
C868 C 0.94687 0.80292 0.77078 0.0
C869 C 0.89746 0.8059 0.77448 0.0
C870 C 0.09903 0.79317 0.74391 0.0
C871 C 0.12051 0.75758 0.75895 0.0
C872 C 0.04925 0.7958 0.74163 0.0
C873 C 0.02048 0.76308 0.75499 0.0
C874 C 0.04239 0.72766 0.77031 0.0
C875 C 0.09194 0.72513 0.77262 0.0
H876 H 0.4661 0.661 0.10394 0.0
H877 H 0.54047 0.66516 0.98824 0.0
H878 H 0.46021 0.73557 0.10389 0.0
H879 H 0.5335 0.74002 0.98784 0.0
H880 H 0.45355 0.86833 0.98713 0.0
H881 H 0.45855 0.79329 0.98654 0.0
H882 H 0.52486 0.79547 0.10566 0.0
H883 H 0.521 0.87009 0.10592 0.0
C884 C 0.48127 0.67786 0.07853 0.0
C885 C 0.50396 0.65725 0.04616 0.0
C886 C 0.47786 0.72051 0.07853 0.0
C887 C 0.49612 0.74345 0.04575 0.0
C888 C 0.51877 0.72295 1.01331 0.0
C889 C 0.52312 0.68023 1.01372 0.0
C890 C 0.46884 0.85269 1.01325 0.0
C891 C 0.48686 0.87502 0.04656 0.0
C892 C 0.47204 0.80988 1.01277 0.0
C893 C 0.49229 0.78871 0.04599 0.0
C894 C 0.50904 0.81103 0.07971 0.0
C895 C 0.50683 0.85372 0.0798 0.0
H896 H 0.61076 0.83496 0.24751 0.0
H897 H 0.6254 0.71221 0.29401 0.0
H898 H 0.52411 0.82997 0.25288 0.0
H899 H 0.53815 0.70697 0.29991 0.0
H900 H 0.38432 0.69922 0.24781 0.0
H901 H 0.47105 0.70381 0.2517 0.0
H902 H 0.45866 0.82528 0.30264 0.0
H903 H 0.37129 0.82031 0.29858 0.0
C904 C 0.59516 0.80715 0.2596 0.0
C905 C 0.62426 0.77435 0.27147 0.0
C906 C 0.54568 0.80431 0.26278 0.0
C907 C 0.52436 0.76831 0.27735 0.0
C908 C 0.55365 0.73514 0.28866 0.0
C909 C 0.60335 0.73803 0.28536 0.0
C910 C 0.4003 0.72652 0.26063 0.0
C911 C 0.37162 0.75896 0.2741 0.0
C912 C 0.44985 0.72915 0.26291 0.0
C913 C 0.47168 0.76466 0.27801 0.0
C914 C 0.4428 0.79745 0.29103 0.0
C915 C 0.39301 0.79472 0.28878 0.0
H916 H 0.56032 0.15953 0.45966 0.0
H917 H 0.41933 0.16344 0.51336 0.0
H918 H 0.56407 0.23386 0.46074 0.0
H919 H 0.42301 0.23844 0.51404 0.0
H920 H 0.43117 0.37053 0.45939 0.0
H921 H 0.42628 0.29608 0.46128 0.0
H922 H 0.56781 0.29052 0.51354 0.0
H923 H 0.57261 0.36531 0.51204 0.0
C924 C 0.52997 0.17627 0.4716 0.0
C925 C 0.4894 0.15553 0.48635 0.0
C926 C 0.53235 0.21891 0.47248 0.0
C927 C 0.49397 0.24201 0.48761 0.0
C928 C 0.4531 0.2214 0.50204 0.0
C929 C 0.451 0.17853 0.50175 0.0
C930 C 0.46134 0.35348 0.47124 0.0
C931 C 0.50243 0.37384 0.4854 0.0
C932 C 0.45831 0.31082 0.47262 0.0
C933 C 0.49658 0.28745 0.48762 0.0
C934 C 0.53782 0.30775 0.5016 0.0
C935 C 0.54057 0.35053 0.50081 0.0
H936 H 0.12345 0.21426 0.79615 0.0
H937 H 0.11053 0.33566 0.74592 0.0
H938 H 0.03617 0.20899 0.79953 0.0
H939 H 0.02369 0.33078 0.74917 0.0
H940 H 0.86832 0.32059 0.78967 0.0
H941 H 0.95547 0.32683 0.7961 0.0
H942 H 0.97172 0.20396 0.74947 0.0
H943 H 0.88521 0.19792 0.74379 0.0
C944 C 0.10174 0.2399 0.78638 0.0
C945 C 0.12317 0.27578 0.77198 0.0
C946 C 0.05197 0.23698 0.78823 0.0
C947 C 0.02305 0.2697 0.77508 0.0
C948 C 0.0449 0.30545 0.76043 0.0
C949 C 0.0945 0.30826 0.75854 0.0
C950 C 0.89084 0.29501 0.78123 0.0
C951 C 0.87059 0.25841 0.76743 0.0
C952 C 0.94049 0.2985 0.78478 0.0
C953 C 0.97039 0.26565 0.77378 0.0
C954 C 0.9497 0.2294 0.75917 0.0
C955 C 0.90029 0.22595 0.7558 0.0
H956 H 0.97555 0.87279 0.92191 0.0
H957 H 0.04707 0.87021 0.03893 0.0
H958 H 0.97209 0.79803 0.92183 0.0
H959 H 0.04239 0.79526 0.03925 0.0
H960 H 0.96009 0.66787 0.04046 0.0
H961 H 0.96657 0.74273 0.03974 0.0
H962 H 0.03731 0.73733 0.9226 0.0
H963 H 0.03204 0.66266 0.92371 0.0
C964 C 0.99076 0.85623 0.94751 0.0
C965 C 0.01172 0.87735 0.98038 0.0
C966 C 0.98875 0.81348 0.94743 0.0
C967 C 0.00664 0.79097 0.98067 0.0
C968 C 0.02799 0.81198 1.01341 0.0
C969 C 0.03101 0.85477 1.01305 0.0
C970 C 0.97677 0.68271 1.01449 0.0
C971 C 0.99549 0.65942 0.98213 0.0
C972 C 0.98081 0.72545 1.01424 0.0
C973 C 0.00263 0.7457 0.98119 0.0
C974 C 0.0203 0.72247 0.94841 0.0
C975 C 0.01726 0.67977 0.9491 0.0
H976 H 0.15445 0.41358 0.20216 0.0
H977 H 0.19818 0.41494 0.32857 0.0
H978 H 0.13085 0.48512 0.20694 0.0
H979 H 0.17861 0.48695 0.33297 0.0
H980 H 0.19336 0.61616 0.20849 0.0
H981 H 0.17388 0.54411 0.20528 0.0
H982 H 0.13552 0.54597 0.33365 0.0
H983 H 0.15895 0.61761 0.33703 0.0
C984 C 0.15773 0.42907 0.23132 0.0
C985 C 0.17809 0.40895 0.265 0.0
C986 C 0.14497 0.47029 0.23397 0.0
C987 C 0.15405 0.49266 0.26995 0.0
C988 C 0.17048 0.47121 0.30472 0.0
C989 C 0.18186 0.42966 0.30234 0.0
C990 C 0.17914 0.60144 0.2356 0.0
C991 C 0.17799 0.62223 0.27302 0.0
C992 C 0.16779 0.55986 0.2339 0.0
C993 C 0.15402 0.53842 0.26951 0.0
C994 C 0.14757 0.5608 0.30589 0.0
C995 C 0.16026 0.60207 0.30778 0.0
H996 H 0.65193 0.1268 0.71623 0.0
H997 H 0.69558 0.1032 0.84074 0.0
H998 H 0.62474 0.05615 0.71025 0.0
H999 H 0.67234 0.03287 0.83412 0.0
H1000 H 0.65261 0.90423 0.81902 0.0
H1001 H 0.62729 0.97528 0.8259 0.0
H1002 H 0.66678 0.9972 0.69971 0.0
H1003 H 0.68785 0.92632 0.69233 0.0
C1004 C 0.65486 0.10684 0.74257 0.0
C1005 C 0.67738 0.12032 0.77849 0.0
C1006 C 0.63978 0.0661 0.73908 0.0
C1007 C 0.64772 0.03796 0.77117 0.0
C1008 C 0.66536 0.05299 0.80852 0.0
C1009 C 0.67953 0.09361 0.81219 0.0
C1010 C 0.65402 0.92396 0.79242 0.0
C1011 C 0.67388 0.91 0.75555 0.0
C1012 C 0.64009 0.96494 0.79642 0.0
C1013 C 0.64666 0.99283 0.76387 0.0
C1014 C 0.66113 0.97731 0.72572 0.0
C1015 C 0.67406 0.93641 0.72158 0.0
H1016 H 0.36274 0.53245 0.08193 0.0
H1017 H 0.37686 0.48217 0.96064 0.0
H1018 H 0.27617 0.52625 0.0777 0.0
H1019 H 0.28956 0.47565 0.9561 0.0
H1020 H 0.12265 0.4841 0.06943 0.0
H1021 H 0.20982 0.47648 0.07395 0.0
H1022 H 0.22394 0.52621 0.95195 0.0
H1023 H 0.13745 0.53344 0.94772 0.0
C1024 C 0.34706 0.51917 0.0547 0.0
C1025 C 0.37598 0.50662 0.02205 0.0
C1026 C 0.29763 0.51555 0.05229 0.0
C1027 C 0.27617 0.49997 0.0168 0.0
C1028 C 0.30525 0.48762 0.98389 0.0
C1029 C 0.35494 0.49128 0.98639 0.0
C1030 C 0.14469 0.49281 0.04361 0.0
C1031 C 0.12387 0.50819 1.00784 0.0
C1032 C 0.19431 0.48851 0.04609 0.0
C1033 C 0.22356 0.5003 1.01306 0.0
C1034 C 0.20233 0.51594 0.97747 0.0
C1035 C 0.15295 0.52017 0.97506 0.0
H1036 H 0.80533 0.10382 0.19072 0.0
H1037 H 0.84086 0.12805 0.31688 0.0
H1038 H 0.82624 0.03308 0.19941 0.0
H1039 H 0.86638 0.05721 0.32502 0.0
H1040 H 0.80303 0.928 0.34307 0.0
H1041 H 0.82432 0.99874 0.33497 0.0
H1042 H 0.86823 0.97473 0.21025 0.0
H1043 H 0.84233 0.90393 0.21771 0.0
C1044 C 0.81903 0.0942 0.22016 0.0
C1045 C 0.81939 0.12123 0.25357 0.0
C1046 C 0.83194 0.05337 0.22507 0.0
C1047 C 0.84677 0.03849 0.26343 0.0
C1048 C 0.85329 0.06695 0.29543 0.0
C1049 C 0.83927 0.10785 0.29068 0.0
C1050 C 0.81768 0.93764 0.31398 0.0
C1051 C 0.81894 0.91069 0.28053 0.0
C1052 C 0.83078 0.97847 0.30942 0.0
C1053 C 0.84671 0.99339 0.2714 0.0
C1054 C 0.85423 0.96496 0.23954 0.0
C1055 C 0.84001 0.92408 0.24391 0.0
H1056 H 0.86067 0.99798 0.94921 0.0
H1057 H 0.87522 0.04319 0.07242 0.0
H1058 H 0.77399 1.00289 0.9544 0.0
H1059 H 0.7879 0.04845 0.07792 0.0
H1060 H 0.6339 0.99515 0.08471 0.0
H1061 H 0.72073 0.99958 0.08042 0.0
H1062 H 0.70844 0.05278 0.95978 0.0
H1063 H 0.6211 0.0482 0.96443 0.0
C1064 C 0.84505 1.00973 0.97716 0.0
C1065 C 0.87417 0.02141 1.01001 0.0
C1066 C 0.79553 1.0126 0.98014 0.0
C1067 C 0.77414 0.02661 1.01634 0.0
C1068 C 0.80343 0.03767 0.04958 0.0
C1069 C 0.85319 0.03475 0.04653 0.0
C1070 C 0.64993 1.0086 0.05769 0.0
C1071 C 0.62128 0.02254 0.02539 0.0
C1072 C 0.69953 1.01116 0.05522 0.0
C1073 C 0.72141 0.02704 0.02 0.0
C1074 C 0.69255 0.04058 0.98739 0.0
C1075 C 0.64277 0.03804 0.98996 0.0
H1076 H 0.29785 0.61659 0.82751 0.0
H1077 H 0.33744 0.61787 0.70009 0.0
H1078 H 0.31876 0.54496 0.83195 0.0
H1079 H 0.36273 0.54677 0.70486 0.0
H1080 H 0.30383 0.41484 0.70834 0.0
H1081 H 0.32239 0.48693 0.70429 0.0
H1082 H 0.36172 0.48641 0.83249 0.0
H1083 H 0.33874 0.41471 0.83676 0.0
C1084 C 0.31351 0.60194 0.80098 0.0
C1085 C 0.31571 0.62251 0.76343 0.0
C1086 C 0.32574 0.56059 0.8034 0.0
C1087 C 0.34157 0.53916 0.76844 0.0
C1088 C 0.34904 0.56148 0.73209 0.0
C1089 C 0.3353 0.60248 0.7294 0.0
C1090 C 0.31809 0.42988 0.73522 0.0
C1091 C 0.31954 0.40944 0.77288 0.0
C1092 C 0.32891 0.47152 0.73305 0.0
C1093 C 0.34256 0.4934 0.76839 0.0
C1094 C 0.34961 0.47131 0.80494 0.0
C1095 C 0.33726 0.42998 0.80734 0.0
H1096 H 0.12391 0.54674 0.46234 0.0
H1097 H 0.13852 0.49784 0.58425 0.0
H1098 H 0.2111 0.55367 0.4576 0.0
H1099 H 0.22509 0.50428 0.57976 0.0
H1100 H 0.37816 0.54848 0.57071 0.0
H1101 H 0.29083 0.55432 0.57562 0.0
H1102 H 0.27738 0.50435 0.45375 0.0
H1103 H 0.36394 0.49886 0.44915 0.0
C1104 C 0.14593 0.53789 0.48812 0.0
C1105 C 0.12506 0.5229 0.52403 0.0
C1106 C 0.19557 0.54179 0.48552 0.0
C1107 C 0.22479 0.52997 0.51856 0.0
C1108 C 0.20351 0.51457 0.55424 0.0
C1109 C 0.1541 0.51077 0.55678 0.0
C1110 C 0.35621 0.53933 0.54501 0.0
C1111 C 0.37722 0.52442 0.50915 0.0
C1112 C 0.3065 0.5426 0.54771 0.0
C1113 C 0.27739 0.53029 0.5148 0.0
C1114 C 0.29883 0.51504 0.47916 0.0
C1115 C 0.34827 0.51182 0.47655 0.0
H1116 H 0.7011 0.74517 0.91801 0.0
H1117 H 0.77133 0.86253 0.91212 0.0
H1118 H 0.70949 0.7454 0.9928 0.0
H1119 H 0.77861 0.86312 0.98668 0.0
H1120 H 0.72495 0.86326 0.12356 0.0
H1121 H 0.71831 0.86374 0.04897 0.0
H1122 H 0.78495 0.74491 0.04384 0.0
H1123 H 0.79273 0.74479 0.11871 0.0
C1124 C 0.71766 0.77123 0.9327 0.0
C1125 C 0.73544 0.80387 0.90921 0.0
C1126 C 0.72287 0.77117 0.9754 0.0
C1127 C 0.74498 0.80416 0.99545 0.0
C1128 C 0.76142 0.83732 0.97203 0.0
C1129 C 0.75719 0.83696 0.92938 0.0
C1130 C 0.73873 0.83743 0.10651 0.0
C1131 C 0.75956 0.80404 0.12698 0.0
C1132 C 0.73487 0.83773 0.06383 0.0
C1133 C 0.75075 0.80423 0.04068 0.0
C1134 C 0.77204 0.77097 0.06103 0.0
C1135 C 0.7769 0.77107 0.10377 0.0
H1136 H 0.55175 0.45561 0.36523 0.0
H1137 H 0.59025 0.58319 0.36681 0.0
H1138 H 0.57076 0.45213 0.29301 0.0
H1139 H 0.61315 0.57944 0.29501 0.0
H1140 H 0.59177 0.44876 0.16228 0.0
H1141 H 0.61435 0.45285 0.23414 0.0
H1142 H 0.57012 0.57973 0.23584 0.0
H1143 H 0.55149 0.57594 0.16355 0.0
C1144 C 0.56673 0.48239 0.35049 0.0
C1145 C 0.56925 0.51968 0.3714 0.0
C1146 C 0.57779 0.48053 0.30882 0.0
C1147 C 0.59267 0.51581 0.28739 0.0
C1148 C 0.60029 0.55196 0.30984 0.0
C1149 C 0.5879 0.55405 0.3512 0.0
C1150 C 0.58903 0.47792 0.17783 0.0
C1151 C 0.56996 0.51206 0.15755 0.0
C1152 C 0.6012 0.48018 0.21923 0.0
C1153 C 0.59287 0.51627 0.24161 0.0
C1154 C 0.57766 0.55139 0.22008 0.0
C1155 C 0.56684 0.54936 0.17838 0.0
H1156 H 0.7201 0.16905 0.40801 0.0
H1157 H 0.79198 0.28564 0.41472 0.0
H1158 H 0.71309 0.16777 0.48264 0.0
H1159 H 0.78376 0.28475 0.48949 0.0
H1160 H 0.70007 0.28482 0.61519 0.0
H1161 H 0.70686 0.28477 0.54029 0.0
H1162 H 0.77557 0.16679 0.54496 0.0
H1163 H 0.77 0.16723 0.61969 0.0
C1164 C 0.73461 0.19431 0.42545 0.0
C1165 C 0.75679 0.22739 0.40552 0.0
C1166 C 0.73053 0.19355 0.46813 0.0
C1167 C 0.74754 0.2263 0.49174 0.0
C1168 C 0.76999 0.25929 0.47192 0.0
C1169 C 0.77506 0.25961 0.42923 0.0
C1170 C 0.71617 0.25872 0.60017 0.0
C1171 C 0.73446 0.22602 0.62328 0.0
C1172 C 0.72042 0.25887 0.55741 0.0
C1173 C 0.74203 0.22589 0.53695 0.0
C1174 C 0.75877 0.19257 0.55997 0.0
C1175 C 0.75554 0.19286 0.6027 0.0
H1176 H 0.94612 0.45746 0.66536 0.0
H1177 H 0.91104 0.58577 0.66372 0.0
H1178 H 0.92676 0.45416 0.73747 0.0
H1179 H 0.88754 0.58226 0.73539 0.0
H1180 H 0.94881 0.57778 0.86675 0.0
H1181 H 0.92999 0.58186 0.79456 0.0
H1182 H 0.88403 0.45542 0.79648 0.0
H1183 H 0.90706 0.45097 0.86822 0.0
C1184 C 0.93173 0.48448 0.68006 0.0
C1185 C 0.93033 0.52188 0.65918 0.0
C1186 C 0.92046 0.48273 0.72168 0.0
C1187 C 0.90644 0.51824 0.74308 0.0
C1188 C 0.89978 0.55457 0.72061 0.0
C1189 C 0.91247 0.55654 0.67931 0.0
C1190 C 0.93308 0.55136 0.85198 0.0
C1191 C 0.92961 0.51405 0.87282 0.0
C1192 C 0.92211 0.55356 0.81032 0.0
C1193 C 0.90634 0.51864 0.78887 0.0
C1194 C 0.89765 0.48259 0.8113 0.0
C1195 C 0.91006 0.48012 0.85264 0.0
H1196 H 0.85926 0.03742 0.58503 0.0
H1197 H 0.8738 0.98953 0.46283 0.0
H1198 H 0.77255 0.0324 0.57999 0.0
H1199 H 0.78652 0.9841 0.45751 0.0
H1200 H 0.63206 0.03513 0.44943 0.0
H1201 H 0.71891 0.03223 0.45399 0.0
H1202 H 0.70739 0.98208 0.57598 0.0
H1203 H 0.61999 0.98487 0.57096 0.0
C1204 C 0.84363 0.02514 0.55732 0.0
C1205 C 0.87274 1.01269 0.52474 0.0
C1206 C 0.79411 0.02219 0.55445 0.0
C1207 C 0.77274 1.00728 0.51861 0.0
C1208 C 0.80203 0.99558 0.48557 0.0
C1209 C 0.85177 0.99861 0.48852 0.0
C1210 C 0.64828 0.02261 0.47681 0.0
C1211 C 0.61982 1.0089 0.50935 0.0
C1212 C 0.69789 0.02096 0.47944 0.0
C1213 C 0.72001 1.00632 0.51508 0.0
C1214 C 0.69135 0.99323 0.54801 0.0
C1215 C 0.64151 0.99476 0.54524 0.0
loop_
_geom_bond_atom_site_label_1
_geom_bond_atom_site_label_2
_geom_bond_distance
_geom_bond_site_symmetry_2
_ccdc_geom_bond_type
Mn0 O5 2.095 . S
Mn0 O15 2.162 . S
Mn0 O16 2.297 . S
Mn0 O24 2.385 . S
Mn0 O25 2.209 . S
Mn0 O26 2.094 . S
Mn1 O6 2.121 . S
Mn1 N8 2.257 . S
Mn1 N17 2.282 . S
Mn1 O25 2.215 . S
Mn1 O27 2.117 . S
C2 O24 1.234 . S
C2 O25 1.283 . S
C3 O15 1.281 . S
C3 O16 1.236 . S
C4 O26 1.240 . S
C4 O27 1.264 . S
O5 Mn0 2.095 . S
O5 C14 1.250 . S
O6 Mn1 2.121 . S
O6 C14 1.258 . S
C7 N8 1.326 . S
C7 C11 1.460 . S
C7 H13 0.929 . S
N8 Mn1 2.257 . S
N8 C7 1.326 . S
N8 C12 1.362 . S
C9 C10 1.258 . S
C9 C12 1.431 . S
C9 C29 1.449 . S
C10 C9 1.258 . S
C10 C11 1.477 . S
C10 H30 0.931 . S
C11 C7 1.460 . S
C11 C10 1.477 . S
C11 H31 0.930 . S
C12 N8 1.362 . S
C12 C9 1.431 . S
C12 C22 1.476 . S
H13 C7 0.929 . S
C14 O5 1.250 . S
C14 O6 1.258 . S
O15 Mn0 2.162 . S
O15 C3 1.281 . S
O16 Mn0 2.297 . S
O16 C3 1.236 . S
N17 Mn1 2.282 . S
N17 C18 1.328 . S
N17 C22 1.318 . S
C18 N17 1.328 . S
C18 C19 1.457 . S
C18 H23 0.929 . S
C19 C18 1.457 . S
C19 C20 1.291 . S
C19 H32 0.931 . S
C20 C19 1.291 . S
C20 C21 1.373 . S
C20 H33 0.929 . S
C21 C20 1.373 . S
C21 C22 1.396 . S
C21 C28 1.403 . S
C22 C12 1.476 . S
C22 N17 1.318 . S
C22 C21 1.396 . S
H23 C18 0.929 . S
O24 Mn0 2.385 . S
O24 C2 1.234 . S
O25 Mn0 2.209 . S
O25 Mn1 2.215 . S
O25 C2 1.283 . S
O26 Mn0 2.094 . S
O26 C4 1.240 . S
O27 Mn1 2.117 . S
O27 C4 1.264 . S
C28 C21 1.403 . S
C28 C29 1.399 . S
C28 H34 0.929 . S
C29 C9 1.449 . S
C29 C28 1.399 . S
C29 H35 0.930 . S
H30 C10 0.931 . S
H31 C11 0.930 . S
H32 C19 0.931 . S
H33 C20 0.929 . S
H34 C28 0.929 . S
H35 C29 0.930 . S
Mn36 O41 2.095 . S
Mn36 O51 2.162 . S
Mn36 O52 2.297 1_455 S
Mn36 O60 2.385 1_455 S
Mn36 O61 2.209 1_455 S
Mn36 O62 2.094 1_545 S
Mn37 O42 2.121 . S
Mn37 N44 2.257 . S
Mn37 N53 2.282 . S
Mn37 O61 2.215 1_565 S
Mn37 O63 2.117 1_655 S
C38 O60 1.234 . S
C38 O61 1.283 . S
C39 O51 1.281 . S
C39 O52 1.236 1_455 S
C40 O62 1.240 . S
C40 O63 1.264 . S
O41 Mn36 2.095 . S
O41 C50 1.250 1_545 S
O42 Mn37 2.121 . S
O42 C50 1.258 1_655 S
C43 N44 1.326 . S
C43 C47 1.460 . S
C43 H49 0.929 . S
N44 Mn37 2.257 . S
N44 C43 1.326 . S
N44 C48 1.362 . S
C45 C46 1.258 . S
C45 C48 1.431 . S
C45 C65 1.449 . S
C46 C45 1.258 . S
C46 C47 1.477 . S
C46 H66 0.931 . S
C47 C43 1.460 . S
C47 C46 1.477 . S
C47 H67 0.930 . S
C48 N44 1.362 . S
C48 C45 1.431 . S
C48 C58 1.476 . S
H49 C43 0.929 . S
C50 O41 1.250 1_565 S
C50 O42 1.258 1_455 S
O51 Mn36 2.162 . S
O51 C39 1.281 . S
O52 Mn36 2.297 1_655 S
O52 C39 1.236 1_655 S
N53 Mn37 2.282 . S
N53 C54 1.328 . S
N53 C58 1.318 . S
C54 N53 1.328 . S
C54 C55 1.457 . S
C54 H59 0.929 . S
C55 C54 1.457 . S
C55 C56 1.291 . S
C55 H68 0.931 . S
C56 C55 1.291 . S
C56 C57 1.373 . S
C56 H69 0.929 . S
C57 C56 1.373 . S
C57 C58 1.396 . S
C57 C64 1.403 . S
C58 C48 1.476 . S
C58 N53 1.318 . S
C58 C57 1.396 . S
H59 C54 0.929 . S
O60 Mn36 2.385 1_655 S
O60 C38 1.234 . S
O61 Mn36 2.209 1_655 S
O61 Mn37 2.215 1_545 S
O61 C38 1.283 . S
O62 Mn36 2.094 1_565 S
O62 C40 1.240 . S
O63 Mn37 2.117 1_455 S
O63 C40 1.264 . S
C64 C57 1.403 . S
C64 C65 1.399 . S
C64 H70 0.929 . S
C65 C45 1.449 . S
C65 C64 1.399 . S
C65 H71 0.930 . S
H66 C46 0.931 . S
H67 C47 0.930 . S
H68 C55 0.931 . S
H69 C56 0.929 . S
H70 C64 0.929 . S
H71 C65 0.930 . S
Mn72 O77 2.095 . S
Mn72 O87 2.162 . S
Mn72 O88 2.297 . S
Mn72 O96 2.385 . S
Mn72 O97 2.209 . S
Mn72 O98 2.094 . S
Mn73 O78 2.121 . S
Mn73 N80 2.257 . S
Mn73 N89 2.282 . S
Mn73 O97 2.215 . S
Mn73 O99 2.117 . S
C74 O96 1.234 . S
C74 O97 1.283 . S
C75 O87 1.281 . S
C75 O88 1.236 . S
C76 O98 1.240 . S
C76 O99 1.264 . S
O77 Mn72 2.095 . S
O77 C86 1.250 . S
O78 Mn73 2.121 . S
O78 C86 1.258 . S
C79 N80 1.326 . S
C79 C83 1.460 . S
C79 H85 0.929 . S
N80 Mn73 2.257 . S
N80 C79 1.326 . S
N80 C84 1.362 . S
C81 C82 1.258 . S
C81 C84 1.431 . S
C81 C101 1.449 . S
C82 C81 1.258 . S
C82 C83 1.477 . S
C82 H102 0.931 . S
C83 C79 1.460 . S
C83 C82 1.477 . S
C83 H103 0.930 . S
C84 N80 1.362 . S
C84 C81 1.431 . S
C84 C94 1.476 . S
H85 C79 0.929 . S
C86 O77 1.250 . S
C86 O78 1.258 . S
O87 Mn72 2.162 . S
O87 C75 1.281 . S
O88 Mn72 2.297 . S
O88 C75 1.236 . S
N89 Mn73 2.282 . S
N89 C90 1.328 . S
N89 C94 1.318 . S
C90 N89 1.328 . S
C90 C91 1.457 . S
C90 H95 0.929 . S
C91 C90 1.457 . S
C91 C92 1.291 . S
C91 H104 0.931 . S
C92 C91 1.291 . S
C92 C93 1.373 . S
C92 H105 0.929 . S
C93 C92 1.373 . S
C93 C94 1.396 . S
C93 C100 1.403 . S
C94 C84 1.476 . S
C94 N89 1.318 . S
C94 C93 1.396 . S
H95 C90 0.929 . S
O96 Mn72 2.385 . S
O96 C74 1.234 . S
O97 Mn72 2.209 . S
O97 Mn73 2.215 . S
O97 C74 1.283 . S
O98 Mn72 2.094 . S
O98 C76 1.240 . S
O99 Mn73 2.117 . S
O99 C76 1.264 . S
C100 C93 1.403 . S
C100 C101 1.399 . S
C100 H106 0.929 . S
C101 C81 1.449 . S
C101 C100 1.399 . S
C101 H107 0.923 1_455 S
H102 C82 0.931 . S
H103 C83 0.930 . S
H104 C91 0.931 . S
H105 C92 0.929 . S
H106 C100 0.929 . S
H107 C101 0.923 1_655 S
Mn108 O113 2.095 . S
Mn108 O123 2.162 . S
Mn108 O124 2.297 . S
Mn108 O132 2.385 1_554 S
Mn108 O133 2.209 . S
Mn108 O134 2.094 1_564 S
Mn109 O114 2.121 . S
Mn109 N116 2.257 . S
Mn109 N125 2.282 . S
Mn109 O133 2.215 1_545 S
Mn109 O135 2.117 . S
C110 O132 1.234 1_554 S
C110 O133 1.283 . S
C111 O123 1.281 . S
C111 O124 1.236 . S
C112 O134 1.241 . S
C112 O135 1.253 1_556 S
O113 Mn108 2.095 . S
O113 C122 1.250 1_565 S
O114 Mn109 2.121 . S
O114 C122 1.258 . S
C115 N116 1.326 . S
C115 C119 1.460 . S
C115 H121 0.929 . S
N116 Mn109 2.257 . S
N116 C115 1.326 . S
N116 C120 1.362 . S
C117 C118 1.258 . S
C117 C120 1.431 . S
C117 C137 1.449 . S
C118 C117 1.258 . S
C118 C119 1.477 . S
C118 H138 0.931 . S
C119 C115 1.460 . S
C119 C118 1.477 . S
C119 H139 0.930 . S
C120 N116 1.362 . S
C120 C117 1.431 . S
C120 C130 1.476 . S
H121 C115 0.929 . S
C122 O113 1.250 1_545 S
C122 O114 1.258 . S
O123 Mn108 2.162 . S
O123 C111 1.281 . S
O124 Mn108 2.297 . S
O124 C111 1.236 . S
N125 Mn109 2.282 . S
N125 C126 1.328 1_554 S
N125 C130 1.318 . S
C126 N125 1.328 1_556 S
C126 C127 1.457 . S
C126 H131 0.929 . S
C127 C126 1.457 . S
C127 C128 1.291 . S
C127 H140 0.931 . S
C128 C127 1.291 . S
C128 C129 1.373 1_556 S
C128 H141 0.929 . S
C129 C128 1.373 1_554 S
C129 C130 1.396 . S
C129 C136 1.403 . S
C130 C120 1.476 . S
C130 N125 1.318 . S
C130 C129 1.396 . S
H131 C126 0.929 . S
O132 Mn108 2.385 1_556 S
O132 C110 1.234 1_556 S
O133 Mn108 2.209 . S
O133 Mn109 2.215 1_565 S
O133 C110 1.283 . S
O134 Mn108 2.094 1_546 S
O134 C112 1.241 . S
O135 Mn109 2.117 . S
O135 C112 1.253 1_554 S
C136 C129 1.403 . S
C136 C137 1.399 . S
C136 H142 0.929 . S
C137 C117 1.449 . S
C137 C136 1.399 . S
C137 H143 0.930 . S
H138 C118 0.931 . S
H139 C119 0.930 . S
H140 C127 0.931 . S
H141 C128 0.929 . S
H142 C136 0.929 . S
H143 C137 0.930 . S
Mn144 O149 2.095 . S
Mn144 O159 2.162 . S
Mn144 O160 2.297 . S
Mn144 O168 2.385 . S
Mn144 O169 2.209 . S
Mn144 O170 2.094 . S
Mn145 O150 2.121 . S
Mn145 N152 2.257 . S
Mn145 N161 2.282 . S
Mn145 O169 2.215 . S
Mn145 O171 2.117 . S
C146 O168 1.234 . S
C146 O169 1.283 . S
C147 O159 1.281 . S
C147 O160 1.236 . S
C148 O170 1.240 . S
C148 O171 1.264 . S
O149 Mn144 2.095 . S
O149 C158 1.250 . S
O150 Mn145 2.121 . S
O150 C158 1.258 . S
C151 N152 1.326 . S
C151 C155 1.460 . S
C151 H157 0.929 . S
N152 Mn145 2.257 . S
N152 C151 1.326 . S
N152 C156 1.362 . S
C153 C154 1.258 . S
C153 C156 1.431 . S
C153 C173 1.449 . S
C154 C153 1.258 . S
C154 C155 1.477 . S
C154 H174 0.931 . S
C155 C151 1.460 . S
C155 C154 1.477 . S
C155 H175 0.930 . S
C156 N152 1.362 . S
C156 C153 1.431 . S
C156 C166 1.476 . S
H157 C151 0.929 . S
C158 O149 1.250 . S
C158 O150 1.258 . S
O159 Mn144 2.162 . S
O159 C147 1.281 . S
O160 Mn144 2.297 . S
O160 C147 1.236 . S
N161 Mn145 2.282 . S
N161 C162 1.328 . S
N161 C166 1.318 . S
C162 N161 1.328 . S
C162 C163 1.457 . S
C162 H167 0.929 . S
C163 C162 1.457 . S
C163 C164 1.291 . S
C163 H176 0.931 . S
C164 C163 1.291 . S
C164 C165 1.373 . S
C164 H177 0.929 . S
C165 C164 1.373 . S
C165 C166 1.396 . S
C165 C172 1.403 . S
C166 C156 1.476 . S
C166 N161 1.318 . S
C166 C165 1.396 . S
H167 C162 0.929 . S
O168 Mn144 2.385 . S
O168 C146 1.234 . S
O169 Mn144 2.209 . S
O169 Mn145 2.215 . S
O169 C146 1.283 . S
O170 Mn144 2.094 . S
O170 C148 1.240 . S
O171 Mn145 2.117 . S
O171 C148 1.264 . S
C172 C165 1.403 . S
C172 C173 1.399 . S
C172 H178 0.929 . S
C173 C153 1.449 . S
C173 C172 1.399 . S
C173 H179 0.930 . S
H174 C154 0.931 . S
H175 C155 0.930 . S
H176 C163 0.931 . S
H177 C164 0.929 . S
H178 C172 0.929 . S
H179 C173 0.930 . S
Mn180 O185 2.095 . S
Mn180 O195 2.162 . S
Mn180 O196 2.297 . S
Mn180 O204 2.385 . S
Mn180 O205 2.209 . S
Mn180 O206 2.094 1_545 S
Mn181 O186 2.121 . S
Mn181 N188 2.257 . S
Mn181 N197 2.282 . S
Mn181 O205 2.215 1_565 S
Mn181 O207 2.117 . S
C182 O204 1.234 . S
C182 O205 1.283 . S
C183 O195 1.281 . S
C183 O196 1.236 . S
C184 O206 1.240 . S
C184 O207 1.264 . S
O185 Mn180 2.095 . S
O185 C194 1.250 1_545 S
O186 Mn181 2.121 . S
O186 C194 1.258 . S
C187 N188 1.326 . S
C187 C191 1.460 . S
C187 H193 0.929 . S
N188 Mn181 2.257 . S
N188 C187 1.326 . S
N188 C192 1.362 . S
C189 C190 1.258 . S
C189 C192 1.431 . S
C189 C209 1.449 . S
C190 C189 1.258 . S
C190 C191 1.477 . S
C190 H210 0.931 . S
C191 C187 1.460 . S
C191 C190 1.477 . S
C191 H211 0.930 . S
C192 N188 1.362 . S
C192 C189 1.431 . S
C192 C202 1.476 . S
H193 C187 0.929 . S
C194 O185 1.250 1_565 S
C194 O186 1.258 . S
O195 Mn180 2.162 . S
O195 C183 1.281 . S
O196 Mn180 2.297 . S
O196 C183 1.236 . S
N197 Mn181 2.282 . S
N197 C198 1.328 . S
N197 C202 1.318 . S
C198 N197 1.328 . S
C198 C199 1.457 . S
C198 H203 0.929 . S
C199 C198 1.457 . S
C199 C200 1.291 . S
C199 H212 0.931 . S
C200 C199 1.291 . S
C200 C201 1.373 . S
C200 H213 0.929 . S
C201 C200 1.373 . S
C201 C202 1.396 . S
C201 C208 1.403 . S
C202 C192 1.476 . S
C202 N197 1.318 . S
C202 C201 1.396 . S
H203 C198 0.929 . S
O204 Mn180 2.385 . S
O204 C182 1.234 . S
O205 Mn180 2.209 . S
O205 Mn181 2.215 1_545 S
O205 C182 1.283 . S
O206 Mn180 2.094 1_565 S
O206 C184 1.240 . S
O207 Mn181 2.117 . S
O207 C184 1.264 . S
C208 C201 1.403 . S
C208 C209 1.399 . S
C208 H214 0.929 . S
C209 C189 1.449 . S
C209 C208 1.399 . S
C209 H215 0.930 . S
H210 C190 0.931 . S
H211 C191 0.930 . S
H212 C199 0.931 . S
H213 C200 0.929 . S
H214 C208 0.929 . S
H215 C209 0.930 . S
Mn216 O221 2.095 . S
Mn216 O231 2.162 . S
Mn216 O232 2.297 . S
Mn216 O240 2.385 . S
Mn216 O241 2.209 . S
Mn216 O242 2.094 . S
Mn217 O222 2.121 . S
Mn217 N224 2.257 . S
Mn217 N233 2.282 . S
Mn217 O241 2.215 . S
Mn217 O243 2.117 . S
C218 O240 1.234 . S
C218 O241 1.283 . S
C219 O231 1.281 . S
C219 O232 1.236 . S
C220 O242 1.240 . S
C220 O243 1.264 . S
O221 Mn216 2.095 . S
O221 C230 1.250 . S
O222 Mn217 2.121 . S
O222 C230 1.258 . S
C223 N224 1.326 . S
C223 C227 1.460 . S
C223 H229 0.929 . S
N224 Mn217 2.257 . S
N224 C223 1.326 . S
N224 C228 1.362 . S
C225 C226 1.258 . S
C225 C228 1.431 . S
C225 C245 1.449 . S
C226 C225 1.258 . S
C226 C227 1.477 . S
C226 H246 0.931 . S
C227 C223 1.460 . S
C227 C226 1.477 . S
C227 H247 0.930 . S
C228 N224 1.362 . S
C228 C225 1.431 . S
C228 C238 1.476 . S
H229 C223 0.929 . S
C230 O221 1.250 . S
C230 O222 1.258 . S
O231 Mn216 2.162 . S
O231 C219 1.281 . S
O232 Mn216 2.297 . S
O232 C219 1.236 . S
N233 Mn217 2.282 . S
N233 C234 1.328 . S
N233 C238 1.318 . S
C234 N233 1.328 . S
C234 C235 1.457 . S
C234 H239 0.929 . S
C235 C234 1.457 . S
C235 C236 1.291 . S
C235 H248 0.931 . S
C236 C235 1.291 . S
C236 C237 1.373 . S
C236 H249 0.929 . S
C237 C236 1.373 . S
C237 C238 1.396 . S
C237 C244 1.403 . S
C238 C228 1.476 . S
C238 N233 1.318 . S
C238 C237 1.396 . S
H239 C234 0.929 . S
O240 Mn216 2.385 . S
O240 C218 1.234 . S
O241 Mn216 2.209 . S
O241 Mn217 2.215 . S
O241 C218 1.283 . S
O242 Mn216 2.094 . S
O242 C220 1.240 . S
O243 Mn217 2.117 . S
O243 C220 1.264 . S
C244 C237 1.403 . S
C244 C245 1.399 . S
C244 H250 0.929 . S
C245 C225 1.449 . S
C245 C244 1.399 . S
C245 H251 0.923 1_455 S
H246 C226 0.931 . S
H247 C227 0.930 . S
H248 C235 0.931 . S
H249 C236 0.929 . S
H250 C244 0.929 . S
H251 C245 0.923 1_655 S
Mn252 O257 2.095 . S
Mn252 O267 2.162 . S
Mn252 O268 2.297 1_455 S
Mn252 O276 2.385 1_456 S
Mn252 O277 2.209 1_455 S
Mn252 O278 2.094 1_566 S
Mn253 O258 2.121 . S
Mn253 N260 2.257 . S
Mn253 N269 2.282 . S
Mn253 O277 2.215 1_545 S
Mn253 O279 2.117 1_655 S
C254 O276 1.234 1_556 S
C254 O277 1.283 . S
C255 O267 1.281 . S
C255 O268 1.236 1_455 S
C256 O278 1.241 . S
C256 O279 1.251 1_554 S
O257 Mn252 2.095 . S
O257 C266 1.250 1_565 S
O258 Mn253 2.121 . S
O258 C266 1.258 1_655 S
C259 N260 1.326 . S
C259 C263 1.460 . S
C259 H265 0.929 . S
N260 Mn253 2.257 . S
N260 C259 1.326 . S
N260 C264 1.362 . S
C261 C262 1.258 . S
C261 C264 1.431 . S
C261 C281 1.449 . S
C262 C261 1.258 . S
C262 C263 1.477 . S
C262 H282 0.931 . S
C263 C259 1.460 . S
C263 C262 1.477 . S
C263 H283 0.930 . S
C264 N260 1.362 . S
C264 C261 1.431 . S
C264 C274 1.476 . S
H265 C259 0.929 . S
C266 O257 1.250 1_545 S
C266 O258 1.258 1_455 S
O267 Mn252 2.162 . S
O267 C255 1.281 . S
O268 Mn252 2.297 1_655 S
O268 C255 1.236 1_655 S
N269 Mn253 2.282 . S
N269 C270 1.328 1_556 S
N269 C274 1.318 . S
C270 N269 1.328 1_554 S
C270 C271 1.457 . S
C270 H275 0.929 . S
C271 C270 1.457 . S
C271 C272 1.291 . S
C271 H284 0.931 . S
C272 C271 1.291 . S
C272 C273 1.373 1_554 S
C272 H285 0.929 . S
C273 C272 1.373 1_556 S
C273 C274 1.396 . S
C273 C280 1.403 . S
C274 C264 1.476 . S
C274 N269 1.318 . S
C274 C273 1.396 . S
H275 C270 0.929 . S
O276 Mn252 2.385 1_654 S
O276 C254 1.234 1_554 S
O277 Mn252 2.209 1_655 S
O277 Mn253 2.215 1_565 S
O277 C254 1.283 . S
O278 Mn252 2.094 1_544 S
O278 C256 1.241 . S
O279 Mn253 2.117 1_455 S
O279 C256 1.251 1_556 S
C280 C273 1.403 . S
C280 C281 1.399 . S
C280 H286 0.943 . S
C281 C261 1.449 . S
C281 C280 1.399 . S
C281 H287 0.930 . S
H282 C262 0.931 . S
H283 C263 0.930 . S
H284 C271 0.931 . S
H285 C272 0.929 . S
H286 C280 0.943 . S
H287 C281 0.930 . S
Mn288 O293 2.095 . S
Mn288 O303 2.162 . S
Mn288 O304 2.297 . S
Mn288 O312 2.385 . S
Mn288 O313 2.209 . S
Mn288 O314 2.094 . S
Mn289 O294 2.121 . S
Mn289 N296 2.257 . S
Mn289 N305 2.282 . S
Mn289 O313 2.215 . S
Mn289 O315 2.117 . S
C290 O312 1.234 . S
C290 O313 1.283 . S
C291 O303 1.281 . S
C291 O304 1.236 . S
C292 O314 1.240 . S
C292 O315 1.264 . S
O293 Mn288 2.095 . S
O293 C302 1.250 . S
O294 Mn289 2.121 . S
O294 C302 1.258 . S
C295 N296 1.326 . S
C295 C299 1.460 . S
C295 H301 0.929 . S
N296 Mn289 2.257 . S
N296 C295 1.326 . S
N296 C300 1.362 . S
C297 C298 1.258 . S
C297 C300 1.431 . S
C297 C317 1.449 . S
C298 C297 1.258 . S
C298 C299 1.477 . S
C298 H318 0.931 . S
C299 C295 1.460 . S
C299 C298 1.477 . S
C299 H319 0.930 . S
C300 N296 1.362 . S
C300 C297 1.431 . S
C300 C310 1.476 . S
H301 C295 0.929 . S
C302 O293 1.250 . S
C302 O294 1.258 . S
O303 Mn288 2.162 . S
O303 C291 1.281 . S
O304 Mn288 2.297 . S
O304 C291 1.236 . S
N305 Mn289 2.282 . S
N305 C306 1.328 . S
N305 C310 1.318 . S
C306 N305 1.328 . S
C306 C307 1.457 . S
C306 H311 0.929 . S
C307 C306 1.457 . S
C307 C308 1.291 . S
C307 H320 0.931 . S
C308 C307 1.291 . S
C308 C309 1.373 . S
C308 H321 0.929 . S
C309 C308 1.373 . S
C309 C310 1.396 . S
C309 C316 1.403 . S
C310 C300 1.476 . S
C310 N305 1.318 . S
C310 C309 1.396 . S
H311 C306 0.929 . S
O312 Mn288 2.385 . S
O312 C290 1.234 . S
O313 Mn288 2.209 . S
O313 Mn289 2.215 . S
O313 C290 1.283 . S
O314 Mn288 2.094 . S
O314 C292 1.240 . S
O315 Mn289 2.117 . S
O315 C292 1.264 . S
C316 C309 1.403 . S
C316 C317 1.399 . S
C316 H322 0.929 . S
C317 C297 1.449 . S
C317 C316 1.399 . S
C317 H323 0.923 1_655 S
H318 C298 0.931 . S
H319 C299 0.930 . S
H320 C307 0.931 . S
H321 C308 0.929 . S
H322 C316 0.929 . S
H323 C317 0.923 1_455 S
Mn324 O329 2.095 . S
Mn324 O339 2.162 . S
Mn324 O340 2.297 1_655 S
Mn324 O348 2.385 1_656 S
Mn324 O349 2.209 1_655 S
Mn324 O350 2.094 1_556 S
Mn325 O330 2.121 . S
Mn325 N332 2.257 . S
Mn325 N341 2.282 . S
Mn325 O349 2.215 . S
Mn325 O351 2.117 1_455 S
C326 O348 1.234 1_556 S
C326 O349 1.283 . S
C327 O339 1.281 . S
C327 O340 1.236 1_655 S
C328 O350 1.241 . S
C328 O351 1.251 1_554 S
O329 Mn324 2.095 . S
O329 C338 1.250 . S
O330 Mn325 2.121 . S
O330 C338 1.258 1_455 S
C331 N332 1.326 . S
C331 C335 1.460 . S
C331 H337 0.929 . S
N332 Mn325 2.257 . S
N332 C331 1.326 . S
N332 C336 1.362 . S
C333 C334 1.258 . S
C333 C336 1.431 . S
C333 C353 1.449 . S
C334 C333 1.258 . S
C334 C335 1.477 . S
C334 H354 0.931 . S
C335 C331 1.460 . S
C335 C334 1.477 . S
C335 H355 0.930 . S
C336 N332 1.362 . S
C336 C333 1.431 . S
C336 C346 1.476 . S
H337 C331 0.929 . S
C338 O329 1.250 . S
C338 O330 1.258 1_655 S
O339 Mn324 2.162 . S
O339 C327 1.281 . S
O340 Mn324 2.297 1_455 S
O340 C327 1.236 1_455 S
N341 Mn325 2.282 . S
N341 C342 1.328 1_556 S
N341 C346 1.318 . S
C342 N341 1.328 1_554 S
C342 C343 1.457 . S
C342 H347 0.929 . S
C343 C342 1.457 . S
C343 C344 1.291 . S
C343 H356 0.931 . S
C344 C343 1.291 . S
C344 C345 1.373 1_554 S
C344 H357 0.929 . S
C345 C344 1.373 1_556 S
C345 C346 1.396 . S
C345 C352 1.403 . S
C346 C336 1.476 . S
C346 N341 1.318 . S
C346 C345 1.396 . S
H347 C342 0.929 . S
O348 Mn324 2.385 1_454 S
O348 C326 1.234 1_554 S
O349 Mn324 2.209 1_455 S
O349 Mn325 2.215 . S
O349 C326 1.283 . S
O350 Mn324 2.094 1_554 S
O350 C328 1.241 . S
O351 Mn325 2.117 1_655 S
O351 C328 1.251 1_556 S
C352 C345 1.403 . S
C352 C353 1.399 . S
C352 H358 0.943 . S
C353 C333 1.449 . S
C353 C352 1.399 . S
C353 H359 0.930 . S
H354 C334 0.931 . S
H355 C335 0.930 . S
H356 C343 0.931 . S
H357 C344 0.929 . S
H358 C352 0.943 . S
H359 C353 0.930 . S
Mn360 O365 2.095 . S
Mn360 O375 2.162 . S
Mn360 O376 2.297 . S
Mn360 O384 2.385 . S
Mn360 O385 2.209 . S
Mn360 O386 2.094 . S
Mn361 O366 2.121 . S
Mn361 N368 2.257 . S
Mn361 N377 2.282 . S
Mn361 O385 2.215 . S
Mn361 O387 2.117 . S
C362 O384 1.234 . S
C362 O385 1.283 . S
C363 O375 1.281 . S
C363 O376 1.236 . S
C364 O386 1.240 . S
C364 O387 1.264 . S
O365 Mn360 2.095 . S
O365 C374 1.250 . S
O366 Mn361 2.121 . S
O366 C374 1.258 . S
C367 N368 1.326 . S
C367 C371 1.460 . S
C367 H373 0.929 . S
N368 Mn361 2.257 . S
N368 C367 1.326 . S
N368 C372 1.362 . S
C369 C370 1.258 . S
C369 C372 1.431 . S
C369 C389 1.449 . S
C370 C369 1.258 . S
C370 C371 1.477 . S
C370 H390 0.931 . S
C371 C367 1.460 . S
C371 C370 1.477 . S
C371 H391 0.930 . S
C372 N368 1.362 . S
C372 C369 1.431 . S
C372 C382 1.476 . S
H373 C367 0.929 . S
C374 O365 1.250 . S
C374 O366 1.258 . S
O375 Mn360 2.162 . S
O375 C363 1.281 . S
O376 Mn360 2.297 . S
O376 C363 1.236 . S
N377 Mn361 2.282 . S
N377 C378 1.328 . S
N377 C382 1.318 . S
C378 N377 1.328 . S
C378 C379 1.457 . S
C378 H383 0.929 . S
C379 C378 1.457 . S
C379 C380 1.291 . S
C379 H392 0.931 . S
C380 C379 1.291 . S
C380 C381 1.373 . S
C380 H393 0.929 . S
C381 C380 1.373 . S
C381 C382 1.396 . S
C381 C388 1.403 . S
C382 C372 1.476 . S
C382 N377 1.318 . S
C382 C381 1.396 . S
H383 C378 0.929 . S
O384 Mn360 2.385 . S
O384 C362 1.234 . S
O385 Mn360 2.209 . S
O385 Mn361 2.215 . S
O385 C362 1.283 . S
O386 Mn360 2.094 . S
O386 C364 1.240 . S
O387 Mn361 2.117 . S
O387 C364 1.264 . S
C388 C381 1.403 . S
C388 C389 1.399 . S
C388 H394 0.929 . S
C389 C369 1.449 . S
C389 C388 1.399 . S
C389 H395 0.930 . S
H390 C370 0.931 . S
H391 C371 0.930 . S
H392 C379 0.931 . S
H393 C380 0.929 . S
H394 C388 0.929 . S
H395 C389 0.930 . S
Mn396 O401 2.095 . S
Mn396 O411 2.162 . S
Mn396 O412 2.297 1_655 S
Mn396 O420 2.385 1_655 S
Mn396 O421 2.209 1_655 S
Mn396 O422 2.094 . S
Mn397 O402 2.121 . S
Mn397 N404 2.257 . S
Mn397 N413 2.282 . S
Mn397 O421 2.215 . S
Mn397 O423 2.117 1_455 S
C398 O420 1.234 . S
C398 O421 1.283 . S
C399 O411 1.281 . S
C399 O412 1.236 1_655 S
C400 O422 1.240 . S
C400 O423 1.264 . S
O401 Mn396 2.095 . S
O401 C410 1.250 . S
O402 Mn397 2.121 . S
O402 C410 1.258 1_455 S
C403 N404 1.326 . S
C403 C407 1.460 . S
C403 H409 0.929 . S
N404 Mn397 2.257 . S
N404 C403 1.326 . S
N404 C408 1.362 . S
C405 C406 1.258 . S
C405 C408 1.431 . S
C405 C425 1.449 . S
C406 C405 1.258 . S
C406 C407 1.477 . S
C406 H426 0.931 . S
C407 C403 1.460 . S
C407 C406 1.477 . S
C407 H427 0.930 . S
C408 N404 1.362 . S
C408 C405 1.431 . S
C408 C418 1.476 . S
H409 C403 0.929 . S
C410 O401 1.250 . S
C410 O402 1.258 1_655 S
O411 Mn396 2.162 . S
O411 C399 1.281 . S
O412 Mn396 2.297 1_455 S
O412 C399 1.236 1_455 S
N413 Mn397 2.282 . S
N413 C414 1.328 . S
N413 C418 1.318 . S
C414 N413 1.328 . S
C414 C415 1.457 . S
C414 H419 0.929 . S
C415 C414 1.457 . S
C415 C416 1.291 . S
C415 H428 0.931 . S
C416 C415 1.291 . S
C416 C417 1.373 . S
C416 H429 0.929 . S
C417 C416 1.373 . S
C417 C418 1.396 . S
C417 C424 1.403 . S
C418 C408 1.476 . S
C418 N413 1.318 . S
C418 C417 1.396 . S
H419 C414 0.929 . S
O420 Mn396 2.385 1_455 S
O420 C398 1.234 . S
O421 Mn396 2.209 1_455 S
O421 Mn397 2.215 . S
O421 C398 1.283 . S
O422 Mn396 2.094 . S
O422 C400 1.240 . S
O423 Mn397 2.117 1_655 S
O423 C400 1.264 . S
C424 C417 1.403 . S
C424 C425 1.399 . S
C424 H430 0.929 . S
C425 C405 1.449 . S
C425 C424 1.399 . S
C425 H431 0.930 . S
H426 C406 0.931 . S
H427 C407 0.930 . S
H428 C415 0.931 . S
H429 C416 0.929 . S
H430 C424 0.929 . S
H431 C425 0.930 . S
Mn432 O437 2.095 . S
Mn432 O447 2.162 . S
Mn432 O448 2.297 . S
Mn432 O456 2.385 1_554 S
Mn432 O457 2.209 . S
Mn432 O458 2.094 1_554 S
Mn433 O438 2.121 . S
Mn433 N440 2.257 . S
Mn433 N449 2.282 . S
Mn433 O457 2.215 . S
Mn433 O459 2.117 . S
C434 O456 1.234 1_554 S
C434 O457 1.283 . S
C435 O447 1.281 . S
C435 O448 1.236 . S
C436 O458 1.241 . S
C436 O459 1.253 1_556 S
O437 Mn432 2.095 . S
O437 C446 1.250 . S
O438 Mn433 2.121 . S
O438 C446 1.258 . S
C439 N440 1.326 . S
C439 C443 1.460 . S
C439 H445 0.929 . S
N440 Mn433 2.257 . S
N440 C439 1.326 . S
N440 C444 1.362 . S
C441 C442 1.258 . S
C441 C444 1.431 . S
C441 C461 1.449 . S
C442 C441 1.258 . S
C442 C443 1.477 . S
C442 H462 0.931 . S
C443 C439 1.460 . S
C443 C442 1.477 . S
C443 H463 0.930 . S
C444 N440 1.362 . S
C444 C441 1.431 . S
C444 C454 1.476 . S
H445 C439 0.929 . S
C446 O437 1.250 . S
C446 O438 1.258 . S
O447 Mn432 2.162 . S
O447 C435 1.281 . S
O448 Mn432 2.297 . S
O448 C435 1.236 . S
N449 Mn433 2.282 . S
N449 C450 1.328 1_554 S
N449 C454 1.318 . S
C450 N449 1.328 1_556 S
C450 C451 1.457 . S
C450 H455 0.929 . S
C451 C450 1.457 . S
C451 C452 1.291 . S
C451 H464 0.931 . S
C452 C451 1.291 . S
C452 C453 1.373 1_556 S
C452 H465 0.929 . S
C453 C452 1.373 1_554 S
C453 C454 1.396 . S
C453 C460 1.403 . S
C454 C444 1.476 . S
C454 N449 1.318 . S
C454 C453 1.396 . S
H455 C450 0.929 . S
O456 Mn432 2.385 1_556 S
O456 C434 1.234 1_556 S
O457 Mn432 2.209 . S
O457 Mn433 2.215 . S
O457 C434 1.283 . S
O458 Mn432 2.094 1_556 S
O458 C436 1.241 . S
O459 Mn433 2.117 . S
O459 C436 1.253 1_554 S
C460 C453 1.403 . S
C460 C461 1.399 . S
C460 H466 0.929 . S
C461 C441 1.449 . S
C461 C460 1.399 . S
C461 H467 0.930 . S
H462 C442 0.931 . S
H463 C443 0.930 . S
H464 C451 0.931 . S
H465 C452 0.929 . S
H466 C460 0.929 . S
H467 C461 0.930 . S
Mn468 O473 2.095 . S
Mn468 O483 2.162 . S
Mn468 O484 2.297 . S
Mn468 O492 2.385 . S
Mn468 O493 2.209 . S
Mn468 O494 2.094 . S
Mn469 O474 2.121 . S
Mn469 N476 2.257 . S
Mn469 N485 2.282 . S
Mn469 O493 2.215 . S
Mn469 O495 2.117 . S
C470 O492 1.234 . S
C470 O493 1.283 . S
C471 O483 1.281 . S
C471 O484 1.236 . S
C472 O494 1.240 . S
C472 O495 1.264 . S
O473 Mn468 2.095 . S
O473 C482 1.250 . S
O474 Mn469 2.121 . S
O474 C482 1.258 . S
C475 N476 1.326 . S
C475 C479 1.460 . S
C475 H481 0.929 . S
N476 Mn469 2.257 . S
N476 C475 1.326 . S
N476 C480 1.362 . S
C477 C478 1.258 . S
C477 C480 1.431 . S
C477 C497 1.449 . S
C478 C477 1.258 . S
C478 C479 1.477 . S
C478 H498 0.931 . S
C479 C475 1.460 . S
C479 C478 1.477 . S
C479 H499 0.930 . S
C480 N476 1.362 . S
C480 C477 1.431 . S
C480 C490 1.476 . S
H481 C475 0.929 . S
C482 O473 1.250 . S
C482 O474 1.258 . S
O483 Mn468 2.162 . S
O483 C471 1.281 . S
O484 Mn468 2.297 . S
O484 C471 1.236 . S
N485 Mn469 2.282 . S
N485 C486 1.328 . S
N485 C490 1.318 . S
C486 N485 1.328 . S
C486 C487 1.457 . S
C486 H491 0.929 . S
C487 C486 1.457 . S
C487 C488 1.291 . S
C487 H500 0.931 . S
C488 C487 1.291 . S
C488 C489 1.373 . S
C488 H501 0.929 . S
C489 C488 1.373 . S
C489 C490 1.396 . S
C489 C496 1.403 . S
C490 C480 1.476 . S
C490 N485 1.318 . S
C490 C489 1.396 . S
H491 C486 0.929 . S
O492 Mn468 2.385 . S
O492 C470 1.234 . S
O493 Mn468 2.209 . S
O493 Mn469 2.215 . S
O493 C470 1.283 . S
O494 Mn468 2.094 . S
O494 C472 1.240 . S
O495 Mn469 2.117 . S
O495 C472 1.264 . S
C496 C489 1.403 . S
C496 C497 1.399 . S
C496 H502 0.929 . S
C497 C477 1.449 . S
C497 C496 1.399 . S
C497 H503 0.923 1_655 S
H498 C478 0.931 . S
H499 C479 0.930 . S
H500 C487 0.931 . S
H501 C488 0.929 . S
H502 C496 0.929 . S
H503 C497 0.923 1_455 S
Mn504 O509 2.095 . S
Mn504 O519 2.162 . S
Mn504 O520 2.297 . S
Mn504 O528 2.385 . S
Mn504 O529 2.209 . S
Mn504 O530 2.094 . S
Mn505 O510 2.121 . S
Mn505 N512 2.257 . S
Mn505 N521 2.282 . S
Mn505 O529 2.215 . S
Mn505 O531 2.117 . S
C506 O528 1.234 . S
C506 O529 1.283 . S
C507 O519 1.281 . S
C507 O520 1.236 . S
C508 O530 1.240 . S
C508 O531 1.264 . S
O509 Mn504 2.095 . S
O509 C518 1.250 . S
O510 Mn505 2.121 . S
O510 C518 1.258 . S
C511 N512 1.326 . S
C511 C515 1.460 . S
C511 H517 0.929 . S
N512 Mn505 2.257 . S
N512 C511 1.326 . S
N512 C516 1.362 . S
C513 C514 1.258 . S
C513 C516 1.431 . S
C513 C533 1.449 . S
C514 C513 1.258 . S
C514 C515 1.477 . S
C514 H534 0.931 . S
C515 C511 1.460 . S
C515 C514 1.477 . S
C515 H535 0.930 . S
C516 N512 1.362 . S
C516 C513 1.431 . S
C516 C526 1.476 . S
H517 C511 0.929 . S
C518 O509 1.250 . S
C518 O510 1.258 . S
O519 Mn504 2.162 . S
O519 C507 1.281 . S
O520 Mn504 2.297 . S
O520 C507 1.236 . S
N521 Mn505 2.282 . S
N521 C522 1.328 . S
N521 C526 1.318 . S
C522 N521 1.328 . S
C522 C523 1.457 . S
C522 H527 0.929 . S
C523 C522 1.457 . S
C523 C524 1.291 . S
C523 H536 0.931 . S
C524 C523 1.291 . S
C524 C525 1.373 . S
C524 H537 0.929 . S
C525 C524 1.373 . S
C525 C526 1.396 . S
C525 C532 1.403 . S
C526 C516 1.476 . S
C526 N521 1.318 . S
C526 C525 1.396 . S
H527 C522 0.929 . S
O528 Mn504 2.385 . S
O528 C506 1.234 . S
O529 Mn504 2.209 . S
O529 Mn505 2.215 . S
O529 C506 1.283 . S
O530 Mn504 2.094 . S
O530 C508 1.240 . S
O531 Mn505 2.117 . S
O531 C508 1.264 . S
C532 C525 1.403 . S
C532 C533 1.399 . S
C532 H538 0.929 . S
C533 C513 1.449 . S
C533 C532 1.399 . S
C533 H539 0.930 . S
H534 C514 0.931 . S
H535 C515 0.930 . S
H536 C523 0.931 . S
H537 C524 0.929 . S
H538 C532 0.929 . S
H539 C533 0.930 . S
Mn540 O545 2.095 . S
Mn540 O555 2.162 . S
Mn540 O556 2.297 . S
Mn540 O564 2.385 . S
Mn540 O565 2.209 . S
Mn540 O566 2.094 . S
Mn541 O546 2.121 . S
Mn541 N548 2.257 . S
Mn541 N557 2.282 . S
Mn541 O565 2.215 . S
Mn541 O567 2.117 . S
C542 O564 1.234 . S
C542 O565 1.283 . S
C543 O555 1.281 . S
C543 O556 1.236 . S
C544 O566 1.240 . S
C544 O567 1.264 . S
O545 Mn540 2.095 . S
O545 C554 1.250 . S
O546 Mn541 2.121 . S
O546 C554 1.258 . S
C547 N548 1.326 . S
C547 C551 1.460 . S
C547 H553 0.929 . S
N548 Mn541 2.257 . S
N548 C547 1.326 . S
N548 C552 1.362 . S
C549 C550 1.258 . S
C549 C552 1.431 . S
C549 C569 1.449 . S
C550 C549 1.258 . S
C550 C551 1.477 . S
C550 H570 0.931 . S
C551 C547 1.460 . S
C551 C550 1.477 . S
C551 H571 0.930 . S
C552 N548 1.362 . S
C552 C549 1.431 . S
C552 C562 1.476 . S
H553 C547 0.929 . S
C554 O545 1.250 . S
C554 O546 1.258 . S
O555 Mn540 2.162 . S
O555 C543 1.281 . S
O556 Mn540 2.297 . S
O556 C543 1.236 . S
N557 Mn541 2.282 . S
N557 C558 1.328 . S
N557 C562 1.318 . S
C558 N557 1.328 . S
C558 C559 1.457 . S
C558 H563 0.929 . S
C559 C558 1.457 . S
C559 C560 1.291 . S
C559 H572 0.931 . S
C560 C559 1.291 . S
C560 C561 1.373 . S
C560 H573 0.929 . S
C561 C560 1.373 . S
C561 C562 1.396 . S
C561 C568 1.403 . S
C562 C552 1.476 . S
C562 N557 1.318 . S
C562 C561 1.396 . S
H563 C558 0.929 . S
O564 Mn540 2.385 . S
O564 C542 1.234 . S
O565 Mn540 2.209 . S
O565 Mn541 2.215 . S
O565 C542 1.283 . S
O566 Mn540 2.094 . S
O566 C544 1.240 . S
O567 Mn541 2.117 . S
O567 C544 1.264 . S
C568 C561 1.403 . S
C568 C569 1.399 . S
C568 H574 0.929 . S
C569 C549 1.449 . S
C569 C568 1.399 . S
C569 H575 0.930 . S
H570 C550 0.931 . S
H571 C551 0.930 . S
H572 C559 0.931 . S
H573 C560 0.929 . S
H574 C568 0.929 . S
H575 C569 0.930 . S
H576 C584 0.950 . S
H577 C589 0.950 . S
H578 C586 0.950 . S
H579 C588 0.950 . S
H580 C590 0.950 . S
H581 C592 0.950 . S
H582 C594 0.950 . S
H583 C595 0.950 . S
C584 H576 0.950 . S
C584 C585 1.386 . S
C584 C586 1.391 . S
C585 C584 1.386 . S
C585 C589 1.393 . S
C586 H578 0.950 . S
C586 C584 1.391 . S
C586 C587 1.400 . S
C587 C586 1.400 . S
C587 C588 1.398 . S
C587 C593 1.491 . S
C588 H579 0.950 . S
C588 C587 1.398 . S
C588 C589 1.391 . S
C589 H577 0.950 . S
C589 C585 1.393 . S
C589 C588 1.391 . S
C590 H580 0.950 . S
C590 C591 1.386 . S
C590 C592 1.391 . S
C591 C590 1.386 . S
C591 C595 1.393 . S
C592 H581 0.950 . S
C592 C590 1.391 . S
C592 C593 1.400 . S
C593 C587 1.491 . S
C593 C592 1.400 . S
C593 C594 1.398 . S
C594 H582 0.950 . S
C594 C593 1.398 . S
C594 C595 1.391 . S
C595 H583 0.950 . S
C595 C591 1.393 . S
C595 C594 1.391 . S
H596 C604 0.950 . S
H597 C609 0.950 . S
H598 C606 0.950 . S
H599 C608 0.950 . S
H600 C610 0.950 . S
H601 C612 0.950 . S
H602 C614 0.950 . S
H603 C615 0.950 . S
C604 H596 0.950 . S
C604 C605 1.386 . S
C604 C606 1.391 . S
C605 C604 1.386 . S
C605 C609 1.393 . S
C606 H598 0.950 . S
C606 C604 1.391 . S
C606 C607 1.400 . S
C607 C606 1.400 . S
C607 C608 1.398 . S
C607 C613 1.491 . S
C608 H599 0.950 . S
C608 C607 1.398 . S
C608 C609 1.391 . S
C609 H597 0.950 . S
C609 C605 1.393 . S
C609 C608 1.391 . S
C610 H600 0.950 . S
C610 C611 1.386 . S
C610 C612 1.391 . S
C611 C610 1.386 . S
C611 C615 1.393 . S
C612 H601 0.950 . S
C612 C610 1.391 . S
C612 C613 1.400 . S
C613 C607 1.491 . S
C613 C612 1.400 . S
C613 C614 1.398 . S
C614 H602 0.950 . S
C614 C613 1.398 . S
C614 C615 1.391 . S
C615 H603 0.950 . S
C615 C611 1.393 . S
C615 C614 1.391 . S
H616 C624 0.950 . S
H617 C629 0.950 . S
H618 C626 0.950 . S
H619 C628 0.950 . S
H620 C630 0.950 . S
H621 C632 0.950 . S
H622 C634 0.950 . S
H623 C635 0.950 . S
C624 H616 0.950 . S
C624 C625 1.386 . S
C624 C626 1.391 . S
C625 C624 1.386 . S
C625 C629 1.393 . S
C626 H618 0.950 . S
C626 C624 1.391 . S
C626 C627 1.400 . S
C627 C626 1.400 . S
C627 C628 1.398 . S
C627 C633 1.491 . S
C628 H619 0.950 . S
C628 C627 1.398 . S
C628 C629 1.391 . S
C629 H617 0.950 . S
C629 C625 1.393 . S
C629 C628 1.391 . S
C630 H620 0.950 . S
C630 C631 1.386 . S
C630 C632 1.391 . S
C631 C630 1.386 . S
C631 C635 1.393 . S
C632 H621 0.950 . S
C632 C630 1.391 . S
C632 C633 1.400 . S
C633 C627 1.491 . S
C633 C632 1.400 . S
C633 C634 1.398 . S
C634 H622 0.950 . S
C634 C633 1.398 . S
C634 C635 1.391 . S
C635 H623 0.950 . S
C635 C631 1.393 . S
C635 C634 1.391 . S
H636 C644 0.950 . S
H637 C649 0.950 . S
H638 C646 0.950 . S
H639 C648 0.950 . S
H640 C650 0.950 . S
H641 C652 0.950 . S
H642 C654 0.950 . S
H643 C655 0.950 . S
C644 H636 0.950 . S
C644 C645 1.386 . S
C644 C646 1.391 . S
C645 C644 1.386 . S
C645 C649 1.393 . S
C646 H638 0.950 . S
C646 C644 1.391 . S
C646 C647 1.400 . S
C647 C646 1.400 . S
C647 C648 1.398 . S
C647 C653 1.491 . S
C648 H639 0.950 . S
C648 C647 1.398 . S
C648 C649 1.391 . S
C649 H637 0.950 . S
C649 C645 1.393 . S
C649 C648 1.391 . S
C650 H640 0.950 . S
C650 C651 1.386 . S
C650 C652 1.391 . S
C651 C650 1.386 . S
C651 C655 1.393 . S
C652 H641 0.950 . S
C652 C650 1.391 . S
C652 C653 1.400 . S
C653 C647 1.491 . S
C653 C652 1.400 . S
C653 C654 1.398 . S
C654 H642 0.950 . S
C654 C653 1.398 . S
C654 C655 1.391 . S
C655 H643 0.950 . S
C655 C651 1.393 . S
C655 C654 1.391 . S
H656 C664 0.950 . S
H657 C669 0.950 . S
H658 C666 0.950 . S
H659 C668 0.950 . S
H660 C670 0.950 1_554 S
H661 C672 0.950 . S
H662 C674 0.950 . S
H663 C675 0.950 . S
C664 H656 0.950 . S
C664 C665 1.386 . S
C664 C666 1.391 . S
C665 C664 1.386 . S
C665 C669 1.393 . S
C666 H658 0.950 . S
C666 C664 1.391 . S
C666 C667 1.400 . S
C667 C666 1.400 . S
C667 C668 1.398 . S
C667 C673 1.491 . S
C668 H659 0.950 . S
C668 C667 1.398 . S
C668 C669 1.391 . S
C669 H657 0.950 . S
C669 C665 1.393 . S
C669 C668 1.391 . S
C670 H660 0.950 1_556 S
C670 C671 1.386 . S
C670 C672 1.391 . S
C671 C670 1.386 . S
C671 C675 1.393 . S
C672 H661 0.950 . S
C672 C670 1.391 . S
C672 C673 1.400 . S
C673 C667 1.491 . S
C673 C672 1.400 . S
C673 C674 1.398 . S
C674 H662 0.950 . S
C674 C673 1.398 . S
C674 C675 1.391 . S
C675 H663 0.950 . S
C675 C671 1.393 . S
C675 C674 1.391 . S
H676 C684 0.950 . S
H677 C689 0.950 1_556 S
H678 C686 0.950 . S
H679 C688 0.950 . S
H680 C690 0.950 . S
H681 C692 0.950 . S
H682 C694 0.950 . S
H683 C695 0.950 . S
C684 H676 0.950 . S
C684 C685 1.386 . S
C684 C686 1.391 . S
C685 C684 1.386 . S
C685 C689 1.393 . S
C686 H678 0.950 . S
C686 C684 1.391 . S
C686 C687 1.400 . S
C687 C686 1.400 . S
C687 C688 1.398 . S
C687 C693 1.491 . S
C688 H679 0.950 . S
C688 C687 1.398 . S
C688 C689 1.391 . S
C689 H677 0.950 1_554 S
C689 C685 1.393 . S
C689 C688 1.391 . S
C690 H680 0.950 . S
C690 C691 1.386 . S
C690 C692 1.391 . S
C691 C690 1.386 . S
C691 C695 1.393 . S
C692 H681 0.950 . S
C692 C690 1.391 . S
C692 C693 1.400 . S
C693 C687 1.491 . S
C693 C692 1.400 . S
C693 C694 1.398 . S
C694 H682 0.950 . S
C694 C693 1.398 . S
C694 C695 1.391 . S
C695 H683 0.950 . S
C695 C691 1.393 . S
C695 C694 1.391 . S
H696 C704 0.950 . S
H697 C709 0.950 . S
H698 C706 0.950 . S
H699 C708 0.950 . S
H700 C710 0.950 . S
H701 C712 0.950 . S
H702 C714 0.950 . S
H703 C715 0.950 . S
C704 H696 0.950 . S
C704 C705 1.386 . S
C704 C706 1.391 . S
C705 C704 1.386 . S
C705 C709 1.393 . S
C706 H698 0.950 . S
C706 C704 1.391 . S
C706 C707 1.400 . S
C707 C706 1.400 . S
C707 C708 1.398 . S
C707 C713 1.491 . S
C708 H699 0.950 . S
C708 C707 1.398 . S
C708 C709 1.391 . S
C709 H697 0.950 . S
C709 C705 1.393 . S
C709 C708 1.391 . S
C710 H700 0.950 . S
C710 C711 1.386 . S
C710 C712 1.391 . S
C711 C710 1.386 . S
C711 C715 1.393 . S
C712 H701 0.950 . S
C712 C710 1.391 . S
C712 C713 1.400 . S
C713 C707 1.491 . S
C713 C712 1.400 . S
C713 C714 1.398 . S
C714 H702 0.950 . S
C714 C713 1.398 . S
C714 C715 1.391 . S
C715 H703 0.950 . S
C715 C711 1.393 . S
C715 C714 1.391 . S
H716 C724 0.950 . S
H717 C729 0.950 . S
H718 C726 0.950 . S
H719 C728 0.950 . S
H720 C730 0.950 . S
H721 C732 0.950 . S
H722 C734 0.950 . S
H723 C735 0.950 . S
C724 H716 0.950 . S
C724 C725 1.386 . S
C724 C726 1.391 . S
C725 C724 1.386 . S
C725 C729 1.393 . S
C726 H718 0.950 . S
C726 C724 1.391 . S
C726 C727 1.400 . S
C727 C726 1.400 . S
C727 C728 1.398 . S
C727 C733 1.491 . S
C728 H719 0.950 . S
C728 C727 1.398 . S
C728 C729 1.391 . S
C729 H717 0.950 . S
C729 C725 1.393 . S
C729 C728 1.391 . S
C730 H720 0.950 . S
C730 C731 1.386 . S
C730 C732 1.391 . S
C731 C730 1.386 . S
C731 C735 1.393 . S
C732 H721 0.950 . S
C732 C730 1.391 . S
C732 C733 1.400 . S
C733 C727 1.491 . S
C733 C732 1.400 . S
C733 C734 1.398 . S
C734 H722 0.950 . S
C734 C733 1.398 . S
C734 C735 1.391 . S
C735 H723 0.950 . S
C735 C731 1.393 . S
C735 C734 1.391 . S
H736 C744 0.950 . S
H737 C749 0.950 . S
H738 C746 0.950 . S
H739 C748 0.950 . S
H740 C750 0.950 . S
H741 C752 0.950 . S
H742 C754 0.950 . S
H743 C755 0.950 . S
C744 H736 0.950 . S
C744 C745 1.386 . S
C744 C746 1.391 . S
C745 C744 1.386 . S
C745 C749 1.393 . S
C746 H738 0.950 . S
C746 C744 1.391 . S
C746 C747 1.400 . S
C747 C746 1.400 . S
C747 C748 1.398 . S
C747 C753 1.491 . S
C748 H739 0.950 . S
C748 C747 1.398 . S
C748 C749 1.391 . S
C749 H737 0.950 . S
C749 C745 1.393 . S
C749 C748 1.391 . S
C750 H740 0.950 . S
C750 C751 1.386 . S
C750 C752 1.391 . S
C751 C750 1.386 . S
C751 C755 1.393 . S
C752 H741 0.950 . S
C752 C750 1.391 . S
C752 C753 1.400 . S
C753 C747 1.491 . S
C753 C752 1.400 . S
C753 C754 1.398 . S
C754 H742 0.950 . S
C754 C753 1.398 . S
C754 C755 1.391 . S
C755 H743 0.950 . S
C755 C751 1.393 . S
C755 C754 1.391 . S
H756 C764 0.950 . S
H757 C769 0.950 . S
H758 C766 0.950 . S
H759 C768 0.950 . S
H760 C770 0.950 . S
H761 C772 0.950 . S
H762 C774 0.950 . S
H763 C775 0.950 . S
C764 H756 0.950 . S
C764 C765 1.386 1_655 S
C764 C766 1.391 . S
C765 C764 1.386 1_455 S
C765 C769 1.393 1_545 S
C766 H758 0.950 . S
C766 C764 1.391 . S
C766 C767 1.400 1_655 S
C767 C766 1.400 1_455 S
C767 C768 1.398 1_545 S
C767 C773 1.491 1_545 S
C768 H759 0.950 . S
C768 C767 1.398 1_565 S
C768 C769 1.391 . S
C769 H757 0.950 . S
C769 C765 1.393 1_565 S
C769 C768 1.391 . S
C770 H760 0.950 . S
C770 C771 1.386 . S
C770 C772 1.391 . S
C771 C770 1.386 . S
C771 C775 1.393 1_465 S
C772 H761 0.950 . S
C772 C770 1.391 . S
C772 C773 1.400 . S
C773 C767 1.491 1_565 S
C773 C772 1.400 . S
C773 C774 1.398 1_465 S
C774 H762 0.950 . S
C774 C773 1.398 1_645 S
C774 C775 1.391 . S
C775 H763 0.950 . S
C775 C771 1.393 1_645 S
C775 C774 1.391 . S
H776 C784 0.950 . S
H777 C789 0.950 . S
H778 C786 0.950 . S
H779 C788 0.950 . S
H780 C790 0.950 . S
H781 C792 0.950 . S
H782 C794 0.950 . S
H783 C795 0.950 . S
C784 H776 0.950 . S
C784 C785 1.386 . S
C784 C786 1.391 . S
C785 C784 1.386 . S
C785 C789 1.393 . S
C786 H778 0.950 . S
C786 C784 1.391 . S
C786 C787 1.400 . S
C787 C786 1.400 . S
C787 C788 1.398 . S
C787 C793 1.491 1_556 S
C788 H779 0.950 . S
C788 C787 1.398 . S
C788 C789 1.391 . S
C789 H777 0.950 . S
C789 C785 1.393 . S
C789 C788 1.391 . S
C790 H780 0.950 . S
C790 C791 1.386 . S
C790 C792 1.391 . S
C791 C790 1.386 . S
C791 C795 1.393 . S
C792 H781 0.950 . S
C792 C790 1.391 . S
C792 C793 1.400 . S
C793 C787 1.491 1_554 S
C793 C792 1.400 . S
C793 C794 1.398 . S
C794 H782 0.950 . S
C794 C793 1.398 . S
C794 C795 1.391 . S
C795 H783 0.950 . S
C795 C791 1.393 . S
C795 C794 1.391 . S
H796 C804 0.950 . S
H797 C809 0.950 . S
H798 C806 0.950 . S
H799 C808 0.950 . S
H800 C810 0.950 . S
H801 C812 0.950 . S
H802 C814 0.950 . S
H803 C815 0.950 . S
C804 H796 0.950 . S
C804 C805 1.384 . S
C804 C806 1.391 . S
C805 C804 1.384 . S
C805 C809 1.394 1_565 S
C806 H798 0.950 . S
C806 C804 1.391 . S
C806 C807 1.398 1_565 S
C807 C806 1.398 1_545 S
C807 C808 1.401 . S
C807 C813 1.491 1_545 S
C808 H799 0.950 . S
C808 C807 1.401 . S
C808 C809 1.391 . S
C809 H797 0.950 . S
C809 C805 1.394 1_545 S
C809 C808 1.391 . S
C810 H800 0.950 . S
C810 C811 1.384 . S
C810 C812 1.391 . S
C811 C810 1.384 . S
C811 C815 1.394 1_545 S
C812 H801 0.950 . S
C812 C810 1.391 . S
C812 C813 1.398 1_545 S
C813 C807 1.491 1_565 S
C813 C812 1.398 1_565 S
C813 C814 1.401 . S
C814 H802 0.950 . S
C814 C813 1.401 . S
C814 C815 1.391 . S
C815 H803 0.950 . S
C815 C811 1.394 1_565 S
C815 C814 1.391 . S
H816 C824 0.950 . S
H817 C829 0.950 . S
H818 C826 0.950 . S
H819 C828 0.950 . S
H820 C830 0.950 . S
H821 C832 0.950 . S
H822 C834 0.950 . S
H823 C835 0.950 . S
C824 H816 0.950 . S
C824 C825 1.386 . S
C824 C826 1.391 . S
C825 C824 1.386 . S
C825 C829 1.393 . S
C826 H818 0.950 . S
C826 C824 1.391 . S
C826 C827 1.400 . S
C827 C826 1.400 . S
C827 C828 1.398 . S
C827 C833 1.491 . S
C828 H819 0.950 . S
C828 C827 1.398 . S
C828 C829 1.391 . S
C829 H817 0.950 . S
C829 C825 1.393 . S
C829 C828 1.391 . S
C830 H820 0.950 . S
C830 C831 1.386 . S
C830 C832 1.391 . S
C831 C830 1.386 . S
C831 C835 1.393 . S
C832 H821 0.950 . S
C832 C830 1.391 . S
C832 C833 1.400 . S
C833 C827 1.491 . S
C833 C832 1.400 . S
C833 C834 1.398 . S
C834 H822 0.950 . S
C834 C833 1.398 . S
C834 C835 1.391 . S
C835 H823 0.950 . S
C835 C831 1.393 . S
C835 C834 1.391 . S
H836 C844 0.950 . S
H837 C849 0.950 . S
H838 C846 0.950 . S
H839 C848 0.950 . S
H840 C850 0.950 . S
H841 C852 0.950 . S
H842 C854 0.950 . S
H843 C855 0.950 . S
C844 H836 0.950 . S
C844 C845 1.386 1_455 S
C844 C846 1.391 . S
C845 C844 1.386 1_655 S
C845 C849 1.393 . S
C846 H838 0.950 . S
C846 C844 1.391 . S
C846 C847 1.400 1_455 S
C847 C846 1.400 1_655 S
C847 C848 1.398 . S
C847 C853 1.491 1_655 S
C848 H839 0.950 . S
C848 C847 1.398 . S
C848 C849 1.391 . S
C849 H837 0.950 . S
C849 C845 1.393 . S
C849 C848 1.391 . S
C850 H840 0.950 . S
C850 C851 1.386 1_655 S
C850 C852 1.391 . S
C851 C850 1.386 1_455 S
C851 C855 1.393 . S
C852 H841 0.950 . S
C852 C850 1.391 . S
C852 C853 1.400 1_655 S
C853 C847 1.491 1_455 S
C853 C852 1.400 1_455 S
C853 C854 1.398 . S
C854 H842 0.950 . S
C854 C853 1.398 . S
C854 C855 1.391 . S
C855 H843 0.950 . S
C855 C851 1.393 . S
C855 C854 1.391 . S
H856 C864 0.950 . S
H857 C869 0.950 . S
H858 C866 0.950 . S
H859 C868 0.950 . S
H860 C870 0.950 . S
H861 C872 0.950 . S
H862 C874 0.950 . S
H863 C875 0.950 . S
C864 H856 0.950 . S
C864 C865 1.386 . S
C864 C866 1.391 . S
C865 C864 1.386 . S
C865 C869 1.393 . S
C866 H858 0.950 . S
C866 C864 1.391 . S
C866 C867 1.400 . S
C867 C866 1.400 . S
C867 C868 1.398 . S
C867 C873 1.491 1_655 S
C868 H859 0.950 . S
C868 C867 1.398 . S
C868 C869 1.391 . S
C869 H857 0.950 . S
C869 C865 1.393 . S
C869 C868 1.391 . S
C870 H860 0.950 . S
C870 C871 1.386 . S
C870 C872 1.391 . S
C871 C870 1.386 . S
C871 C875 1.393 . S
C872 H861 0.950 . S
C872 C870 1.391 . S
C872 C873 1.400 . S
C873 C867 1.491 1_455 S
C873 C872 1.400 . S
C873 C874 1.398 . S
C874 H862 0.950 . S
C874 C873 1.398 . S
C874 C875 1.391 . S
C875 H863 0.950 . S
C875 C871 1.393 . S
C875 C874 1.391 . S
H876 C884 0.950 . S
H877 C889 0.950 1_556 S
H878 C886 0.950 . S
H879 C888 0.950 1_556 S
H880 C890 0.950 1_556 S
H881 C892 0.950 1_556 S
H882 C894 0.950 . S
H883 C895 0.950 . S
C884 H876 0.950 . S
C884 C885 1.386 . S
C884 C886 1.391 . S
C885 C884 1.386 . S
C885 C889 1.393 . S
C886 H878 0.950 . S
C886 C884 1.391 . S
C886 C887 1.400 . S
C887 C886 1.400 . S
C887 C888 1.398 . S
C887 C893 1.491 . S
C888 H879 0.950 1_554 S
C888 C887 1.398 . S
C888 C889 1.391 . S
C889 H877 0.950 1_554 S
C889 C885 1.393 . S
C889 C888 1.391 . S
C890 H880 0.950 1_554 S
C890 C891 1.386 . S
C890 C892 1.391 . S
C891 C890 1.386 . S
C891 C895 1.393 . S
C892 H881 0.950 1_554 S
C892 C890 1.391 . S
C892 C893 1.400 . S
C893 C887 1.491 . S
C893 C892 1.400 . S
C893 C894 1.398 . S
C894 H882 0.950 . S
C894 C893 1.398 . S
C894 C895 1.391 . S
C895 H883 0.950 . S
C895 C891 1.393 . S
C895 C894 1.391 . S
H896 C904 0.950 . S
H897 C909 0.950 . S
H898 C906 0.950 . S
H899 C908 0.950 . S
H900 C910 0.950 . S
H901 C912 0.950 . S
H902 C914 0.950 . S
H903 C915 0.950 . S
C904 H896 0.950 . S
C904 C905 1.386 . S
C904 C906 1.391 . S
C905 C904 1.386 . S
C905 C909 1.393 . S
C906 H898 0.950 . S
C906 C904 1.391 . S
C906 C907 1.400 . S
C907 C906 1.400 . S
C907 C908 1.398 . S
C907 C913 1.491 . S
C908 H899 0.950 . S
C908 C907 1.398 . S
C908 C909 1.391 . S
C909 H897 0.950 . S
C909 C905 1.393 . S
C909 C908 1.391 . S
C910 H900 0.950 . S
C910 C911 1.386 . S
C910 C912 1.391 . S
C911 C910 1.386 . S
C911 C915 1.393 . S
C912 H901 0.950 . S
C912 C910 1.391 . S
C912 C913 1.400 . S
C913 C907 1.491 . S
C913 C912 1.400 . S
C913 C914 1.398 . S
C914 H902 0.950 . S
C914 C913 1.398 . S
C914 C915 1.391 . S
C915 H903 0.950 . S
C915 C911 1.393 . S
C915 C914 1.391 . S
H916 C924 0.950 . S
H917 C929 0.950 . S
H918 C926 0.950 . S
H919 C928 0.950 . S
H920 C930 0.950 . S
H921 C932 0.950 . S
H922 C934 0.950 . S
H923 C935 0.950 . S
C924 H916 0.950 . S
C924 C925 1.386 . S
C924 C926 1.391 . S
C925 C924 1.386 . S
C925 C929 1.393 . S
C926 H918 0.950 . S
C926 C924 1.391 . S
C926 C927 1.400 . S
C927 C926 1.400 . S
C927 C928 1.398 . S
C927 C933 1.491 . S
C928 H919 0.950 . S
C928 C927 1.398 . S
C928 C929 1.391 . S
C929 H917 0.950 . S
C929 C925 1.393 . S
C929 C928 1.391 . S
C930 H920 0.950 . S
C930 C931 1.386 . S
C930 C932 1.391 . S
C931 C930 1.386 . S
C931 C935 1.393 . S
C932 H921 0.950 . S
C932 C930 1.391 . S
C932 C933 1.400 . S
C933 C927 1.491 . S
C933 C932 1.400 . S
C933 C934 1.398 . S
C934 H922 0.950 . S
C934 C933 1.398 . S
C934 C935 1.391 . S
C935 H923 0.950 . S
C935 C931 1.393 . S
C935 C934 1.391 . S
H936 C944 0.950 . S
H937 C949 0.950 . S
H938 C946 0.950 . S
H939 C948 0.950 . S
H940 C950 0.950 . S
H941 C952 0.950 . S
H942 C954 0.950 . S
H943 C955 0.950 . S
C944 H936 0.950 . S
C944 C945 1.386 . S
C944 C946 1.391 . S
C945 C944 1.386 . S
C945 C949 1.393 . S
C946 H938 0.950 . S
C946 C944 1.391 . S
C946 C947 1.400 . S
C947 C946 1.400 . S
C947 C948 1.398 . S
C947 C953 1.491 1_455 S
C948 H939 0.950 . S
C948 C947 1.398 . S
C948 C949 1.391 . S
C949 H937 0.950 . S
C949 C945 1.393 . S
C949 C948 1.391 . S
C950 H940 0.950 . S
C950 C951 1.386 . S
C950 C952 1.391 . S
C951 C950 1.386 . S
C951 C955 1.393 . S
C952 H941 0.950 . S
C952 C950 1.391 . S
C952 C953 1.400 . S
C953 C947 1.491 1_655 S
C953 C952 1.400 . S
C953 C954 1.398 . S
C954 H942 0.950 . S
C954 C953 1.398 . S
C954 C955 1.391 . S
C955 H943 0.950 . S
C955 C951 1.393 . S
C955 C954 1.391 . S
H956 C964 0.950 . S
H957 C969 0.950 1_554 S
H958 C966 0.950 . S
H959 C968 0.950 1_554 S
H960 C970 0.950 1_554 S
H961 C972 0.950 1_554 S
H962 C974 0.950 . S
H963 C975 0.950 . S
C964 H956 0.950 . S
C964 C965 1.386 . S
C964 C966 1.391 . S
C965 C964 1.386 . S
C965 C969 1.393 1_455 S
C966 H958 0.950 . S
C966 C964 1.391 . S
C966 C967 1.400 . S
C967 C966 1.400 . S
C967 C968 1.398 1_455 S
C967 C973 1.491 1_455 S
C968 H959 0.950 1_556 S
C968 C967 1.398 1_655 S
C968 C969 1.391 . S
C969 H957 0.950 1_556 S
C969 C965 1.393 1_655 S
C969 C968 1.391 . S
C970 H960 0.950 1_556 S
C970 C971 1.386 . S
C970 C972 1.391 . S
C971 C970 1.386 . S
C971 C975 1.393 1_655 S
C972 H961 0.950 1_556 S
C972 C970 1.391 . S
C972 C973 1.400 . S
C973 C967 1.491 1_655 S
C973 C972 1.400 . S
C973 C974 1.398 1_655 S
C974 H962 0.950 . S
C974 C973 1.398 1_455 S
C974 C975 1.391 . S
C975 H963 0.950 . S
C975 C971 1.393 1_455 S
C975 C974 1.391 . S
H976 C984 0.950 . S
H977 C989 0.950 . S
H978 C986 0.950 . S
H979 C988 0.950 . S
H980 C990 0.950 . S
H981 C992 0.950 . S
H982 C994 0.950 . S
H983 C995 0.950 . S
C984 H976 0.950 . S
C984 C985 1.386 . S
C984 C986 1.391 . S
C985 C984 1.386 . S
C985 C989 1.393 . S
C986 H978 0.950 . S
C986 C984 1.391 . S
C986 C987 1.400 . S
C987 C986 1.400 . S
C987 C988 1.398 . S
C987 C993 1.491 . S
C988 H979 0.950 . S
C988 C987 1.398 . S
C988 C989 1.391 . S
C989 H977 0.950 . S
C989 C985 1.393 . S
C989 C988 1.391 . S
C990 H980 0.950 . S
C990 C991 1.386 . S
C990 C992 1.391 . S
C991 C990 1.386 . S
C991 C995 1.393 . S
C992 H981 0.950 . S
C992 C990 1.391 . S
C992 C993 1.400 . S
C993 C987 1.491 . S
C993 C992 1.400 . S
C993 C994 1.398 . S
C994 H982 0.950 . S
C994 C993 1.398 . S
C994 C995 1.391 . S
C995 H983 0.950 . S
C995 C991 1.393 . S
C995 C994 1.391 . S
H996 C1004 0.950 . S
H997 C1009 0.950 . S
H998 C1006 0.950 . S
H999 C1008 0.950 . S
H1000 C1010 0.950 . S
H1001 C1012 0.950 . S
H1002 C1014 0.950 . S
H1003 C1015 0.950 . S
C1004 H996 0.950 . S
C1004 C1005 1.386 . S
C1004 C1006 1.391 . S
C1005 C1004 1.386 . S
C1005 C1009 1.393 . S
C1006 H998 0.950 . S
C1006 C1004 1.391 . S
C1006 C1007 1.400 . S
C1007 C1006 1.400 . S
C1007 C1008 1.398 . S
C1007 C1013 1.491 1_545 S
C1008 H999 0.950 . S
C1008 C1007 1.398 . S
C1008 C1009 1.391 . S
C1009 H997 0.950 . S
C1009 C1005 1.393 . S
C1009 C1008 1.391 . S
C1010 H1000 0.950 . S
C1010 C1011 1.386 . S
C1010 C1012 1.391 . S
C1011 C1010 1.386 . S
C1011 C1015 1.393 . S
C1012 H1001 0.950 . S
C1012 C1010 1.391 . S
C1012 C1013 1.400 . S
C1013 C1007 1.491 1_565 S
C1013 C1012 1.400 . S
C1013 C1014 1.398 . S
C1014 H1002 0.950 . S
C1014 C1013 1.398 . S
C1014 C1015 1.391 . S
C1015 H1003 0.950 . S
C1015 C1011 1.393 . S
C1015 C1014 1.391 . S
H1016 C1024 0.950 . S
H1017 C1029 0.949 1_556 S
H1018 C1026 0.950 . S
H1019 C1028 0.950 . S
H1020 C1030 0.950 . S
H1021 C1032 0.950 . S
H1022 C1034 0.950 . S
H1023 C1035 0.948 1_554 S
C1024 H1016 0.950 . S
C1024 C1025 1.386 . S
C1024 C1026 1.391 . S
C1025 C1024 1.386 . S
C1025 C1029 1.393 . S
C1026 H1018 0.950 . S
C1026 C1024 1.391 . S
C1026 C1027 1.400 . S
C1027 C1026 1.400 . S
C1027 C1028 1.398 1_554 S
C1027 C1033 1.489 1_554 S
C1028 H1019 0.950 . S
C1028 C1027 1.398 1_556 S
C1028 C1029 1.391 1_556 S
C1029 H1017 0.949 1_554 S
C1029 C1025 1.393 . S
C1029 C1028 1.391 1_554 S
C1030 H1020 0.950 . S
C1030 C1031 1.386 . S
C1030 C1032 1.391 . S
C1031 C1030 1.386 . S
C1031 C1035 1.397 . S
C1032 H1021 0.950 . S
C1032 C1030 1.391 . S
C1032 C1033 1.405 . S
C1033 C1027 1.489 1_556 S
C1033 C1032 1.405 . S
C1033 C1034 1.396 1_556 S
C1034 H1022 0.950 . S
C1034 C1033 1.396 1_554 S
C1034 C1035 1.388 1_554 S
C1035 H1023 0.948 1_556 S
C1035 C1031 1.397 . S
C1035 C1034 1.388 1_556 S
H1036 C1044 0.950 . S
H1037 C1049 0.950 . S
H1038 C1046 0.950 . S
H1039 C1048 0.950 . S
H1040 C1050 0.950 . S
H1041 C1052 0.950 . S
H1042 C1054 0.950 . S
H1043 C1055 0.950 . S
C1044 H1036 0.950 . S
C1044 C1045 1.386 . S
C1044 C1046 1.391 . S
C1045 C1044 1.386 . S
C1045 C1049 1.393 . S
C1046 H1038 0.950 . S
C1046 C1044 1.391 . S
C1046 C1047 1.400 . S
C1047 C1046 1.400 . S
C1047 C1048 1.398 . S
C1047 C1053 1.491 1_545 S
C1048 H1039 0.950 . S
C1048 C1047 1.398 . S
C1048 C1049 1.391 . S
C1049 H1037 0.950 . S
C1049 C1045 1.393 . S
C1049 C1048 1.391 . S
C1050 H1040 0.950 . S
C1050 C1051 1.386 . S
C1050 C1052 1.391 . S
C1051 C1050 1.386 . S
C1051 C1055 1.393 . S
C1052 H1041 0.950 . S
C1052 C1050 1.391 . S
C1052 C1053 1.400 . S
C1053 C1047 1.491 1_565 S
C1053 C1052 1.400 . S
C1053 C1054 1.398 . S
C1054 H1042 0.950 . S
C1054 C1053 1.398 . S
C1054 C1055 1.391 . S
C1055 H1043 0.950 . S
C1055 C1051 1.393 . S
C1055 C1054 1.391 . S
H1056 C1064 0.950 . S
H1057 C1069 0.950 . S
H1058 C1066 0.950 . S
H1059 C1068 0.950 . S
H1060 C1070 0.950 . S
H1061 C1072 0.950 . S
H1062 C1074 0.950 . S
H1063 C1075 0.950 . S
C1064 H1056 0.950 . S
C1064 C1065 1.386 1_545 S
C1064 C1066 1.391 . S
C1065 C1064 1.386 1_565 S
C1065 C1069 1.393 1_556 S
C1066 H1058 0.950 . S
C1066 C1064 1.391 . S
C1066 C1067 1.400 1_545 S
C1067 C1066 1.400 1_565 S
C1067 C1068 1.398 1_556 S
C1067 C1073 1.491 1_556 S
C1068 H1059 0.950 . S
C1068 C1067 1.398 1_554 S
C1068 C1069 1.391 . S
C1069 H1057 0.950 . S
C1069 C1065 1.393 1_554 S
C1069 C1068 1.391 . S
C1070 H1060 0.950 . S
C1070 C1071 1.386 . S
C1070 C1072 1.391 . S
C1071 C1070 1.386 . S
C1071 C1075 1.393 1_564 S
C1072 H1061 0.950 . S
C1072 C1070 1.391 . S
C1072 C1073 1.400 . S
C1073 C1067 1.491 1_554 S
C1073 C1072 1.400 . S
C1073 C1074 1.398 1_564 S
C1074 H1062 0.950 . S
C1074 C1073 1.398 1_546 S
C1074 C1075 1.391 . S
C1075 H1063 0.950 . S
C1075 C1071 1.393 1_546 S
C1075 C1074 1.391 . S
H1076 C1084 0.950 . S
H1077 C1089 0.950 . S
H1078 C1086 0.950 . S
H1079 C1088 0.950 . S
H1080 C1090 0.950 . S
H1081 C1092 0.950 . S
H1082 C1094 0.950 . S
H1083 C1095 0.950 . S
C1084 H1076 0.950 . S
C1084 C1085 1.386 . S
C1084 C1086 1.391 . S
C1085 C1084 1.386 . S
C1085 C1089 1.393 . S
C1086 H1078 0.950 . S
C1086 C1084 1.391 . S
C1086 C1087 1.400 . S
C1087 C1086 1.400 . S
C1087 C1088 1.398 . S
C1087 C1093 1.491 . S
C1088 H1079 0.950 . S
C1088 C1087 1.398 . S
C1088 C1089 1.391 . S
C1089 H1077 0.950 . S
C1089 C1085 1.393 . S
C1089 C1088 1.391 . S
C1090 H1080 0.950 . S
C1090 C1091 1.386 . S
C1090 C1092 1.391 . S
C1091 C1090 1.386 . S
C1091 C1095 1.393 . S
C1092 H1081 0.950 . S
C1092 C1090 1.391 . S
C1092 C1093 1.400 . S
C1093 C1087 1.491 . S
C1093 C1092 1.400 . S
C1093 C1094 1.398 . S
C1094 H1082 0.950 . S
C1094 C1093 1.398 . S
C1094 C1095 1.391 . S
C1095 H1083 0.950 . S
C1095 C1091 1.393 . S
C1095 C1094 1.391 . S
H1096 C1104 0.950 . S
H1097 C1109 0.950 . S
H1098 C1106 0.950 . S
H1099 C1108 0.950 . S
H1100 C1110 0.950 . S
H1101 C1112 0.950 . S
H1102 C1114 0.950 . S
H1103 C1115 0.950 . S
C1104 H1096 0.950 . S
C1104 C1105 1.386 . S
C1104 C1106 1.391 . S
C1105 C1104 1.386 . S
C1105 C1109 1.393 . S
C1106 H1098 0.950 . S
C1106 C1104 1.391 . S
C1106 C1107 1.400 . S
C1107 C1106 1.400 . S
C1107 C1108 1.398 . S
C1107 C1113 1.491 . S
C1108 H1099 0.950 . S
C1108 C1107 1.398 . S
C1108 C1109 1.391 . S
C1109 H1097 0.950 . S
C1109 C1105 1.393 . S
C1109 C1108 1.391 . S
C1110 H1100 0.950 . S
C1110 C1111 1.386 . S
C1110 C1112 1.391 . S
C1111 C1110 1.386 . S
C1111 C1115 1.393 . S
C1112 H1101 0.950 . S
C1112 C1110 1.391 . S
C1112 C1113 1.400 . S
C1113 C1107 1.491 . S
C1113 C1112 1.400 . S
C1113 C1114 1.398 . S
C1114 H1102 0.950 . S
C1114 C1113 1.398 . S
C1114 C1115 1.391 . S
C1115 H1103 0.950 . S
C1115 C1111 1.393 . S
C1115 C1114 1.391 . S
H1116 C1124 0.950 . S
H1117 C1129 0.950 . S
H1118 C1126 0.950 . S
H1119 C1128 0.950 . S
H1120 C1130 0.950 . S
H1121 C1132 0.950 . S
H1122 C1134 0.950 . S
H1123 C1135 0.950 . S
C1124 H1116 0.950 . S
C1124 C1125 1.386 . S
C1124 C1126 1.391 . S
C1125 C1124 1.386 . S
C1125 C1129 1.393 . S
C1126 H1118 0.950 . S
C1126 C1124 1.391 . S
C1126 C1127 1.400 . S
C1127 C1126 1.400 . S
C1127 C1128 1.398 . S
C1127 C1133 1.491 1_556 S
C1128 H1119 0.950 . S
C1128 C1127 1.398 . S
C1128 C1129 1.391 . S
C1129 H1117 0.950 . S
C1129 C1125 1.393 . S
C1129 C1128 1.391 . S
C1130 H1120 0.950 . S
C1130 C1131 1.386 . S
C1130 C1132 1.391 . S
C1131 C1130 1.386 . S
C1131 C1135 1.393 . S
C1132 H1121 0.950 . S
C1132 C1130 1.391 . S
C1132 C1133 1.400 . S
C1133 C1127 1.491 1_554 S
C1133 C1132 1.400 . S
C1133 C1134 1.398 . S
C1134 H1122 0.950 . S
C1134 C1133 1.398 . S
C1134 C1135 1.391 . S
C1135 H1123 0.950 . S
C1135 C1131 1.393 . S
C1135 C1134 1.391 . S
H1136 C1144 0.950 . S
H1137 C1149 0.950 . S
H1138 C1146 0.950 . S
H1139 C1148 0.950 . S
H1140 C1150 0.950 . S
H1141 C1152 0.950 . S
H1142 C1154 0.950 . S
H1143 C1155 0.950 . S
C1144 H1136 0.950 . S
C1144 C1145 1.386 . S
C1144 C1146 1.391 . S
C1145 C1144 1.386 . S
C1145 C1149 1.393 . S
C1146 H1138 0.950 . S
C1146 C1144 1.391 . S
C1146 C1147 1.400 . S
C1147 C1146 1.400 . S
C1147 C1148 1.398 . S
C1147 C1153 1.491 . S
C1148 H1139 0.950 . S
C1148 C1147 1.398 . S
C1148 C1149 1.391 . S
C1149 H1137 0.950 . S
C1149 C1145 1.393 . S
C1149 C1148 1.391 . S
C1150 H1140 0.950 . S
C1150 C1151 1.386 . S
C1150 C1152 1.391 . S
C1151 C1150 1.386 . S
C1151 C1155 1.393 . S
C1152 H1141 0.950 . S
C1152 C1150 1.391 . S
C1152 C1153 1.400 . S
C1153 C1147 1.491 . S
C1153 C1152 1.400 . S
C1153 C1154 1.398 . S
C1154 H1142 0.950 . S
C1154 C1153 1.398 . S
C1154 C1155 1.391 . S
C1155 H1143 0.950 . S
C1155 C1151 1.393 . S
C1155 C1154 1.391 . S
H1156 C1164 0.950 . S
H1157 C1169 0.950 . S
H1158 C1166 0.950 . S
H1159 C1168 0.950 . S
H1160 C1170 0.950 . S
H1161 C1172 0.950 . S
H1162 C1174 0.950 . S
H1163 C1175 0.950 . S
C1164 H1156 0.950 . S
C1164 C1165 1.386 . S
C1164 C1166 1.391 . S
C1165 C1164 1.386 . S
C1165 C1169 1.393 . S
C1166 H1158 0.950 . S
C1166 C1164 1.391 . S
C1166 C1167 1.400 . S
C1167 C1166 1.400 . S
C1167 C1168 1.398 . S
C1167 C1173 1.491 . S
C1168 H1159 0.950 . S
C1168 C1167 1.398 . S
C1168 C1169 1.391 . S
C1169 H1157 0.950 . S
C1169 C1165 1.393 . S
C1169 C1168 1.391 . S
C1170 H1160 0.950 . S
C1170 C1171 1.386 . S
C1170 C1172 1.391 . S
C1171 C1170 1.386 . S
C1171 C1175 1.393 . S
C1172 H1161 0.950 . S
C1172 C1170 1.391 . S
C1172 C1173 1.400 . S
C1173 C1167 1.491 . S
C1173 C1172 1.400 . S
C1173 C1174 1.398 . S
C1174 H1162 0.950 . S
C1174 C1173 1.398 . S
C1174 C1175 1.391 . S
C1175 H1163 0.950 . S
C1175 C1171 1.393 . S
C1175 C1174 1.391 . S
H1176 C1184 0.950 . S
H1177 C1189 0.950 . S
H1178 C1186 0.950 . S
H1179 C1188 0.950 . S
H1180 C1190 0.950 . S
H1181 C1192 0.950 . S
H1182 C1194 0.950 . S
H1183 C1195 0.950 . S
C1184 H1176 0.950 . S
C1184 C1185 1.386 . S
C1184 C1186 1.391 . S
C1185 C1184 1.386 . S
C1185 C1189 1.393 . S
C1186 H1178 0.950 . S
C1186 C1184 1.391 . S
C1186 C1187 1.400 . S
C1187 C1186 1.400 . S
C1187 C1188 1.398 . S
C1187 C1193 1.491 . S
C1188 H1179 0.950 . S
C1188 C1187 1.398 . S
C1188 C1189 1.391 . S
C1189 H1177 0.950 . S
C1189 C1185 1.393 . S
C1189 C1188 1.391 . S
C1190 H1180 0.950 . S
C1190 C1191 1.386 . S
C1190 C1192 1.391 . S
C1191 C1190 1.386 . S
C1191 C1195 1.393 . S
C1192 H1181 0.950 . S
C1192 C1190 1.391 . S
C1192 C1193 1.400 . S
C1193 C1187 1.491 . S
C1193 C1192 1.400 . S
C1193 C1194 1.398 . S
C1194 H1182 0.950 . S
C1194 C1193 1.398 . S
C1194 C1195 1.391 . S
C1195 H1183 0.950 . S
C1195 C1191 1.393 . S
C1195 C1194 1.391 . S
H1196 C1204 0.950 . S
H1197 C1209 0.950 . S
H1198 C1206 0.950 . S
H1199 C1208 0.950 . S
H1200 C1210 0.950 . S
H1201 C1212 0.950 . S
H1202 C1214 0.950 . S
H1203 C1215 0.950 . S
C1204 H1196 0.950 . S
C1204 C1205 1.386 . S
C1204 C1206 1.391 . S
C1205 C1204 1.386 . S
C1205 C1209 1.393 1_545 S
C1206 H1198 0.950 . S
C1206 C1204 1.391 . S
C1206 C1207 1.400 . S
C1207 C1206 1.400 . S
C1207 C1208 1.398 1_545 S
C1207 C1213 1.491 . S
C1208 H1199 0.950 . S
C1208 C1207 1.398 1_565 S
C1208 C1209 1.391 . S
C1209 H1197 0.950 . S
C1209 C1205 1.393 1_565 S
C1209 C1208 1.391 . S
C1210 H1200 0.950 . S
C1210 C1211 1.386 1_565 S
C1210 C1212 1.391 . S
C1211 C1210 1.386 1_545 S
C1211 C1215 1.393 . S
C1212 H1201 0.950 . S
C1212 C1210 1.391 . S
C1212 C1213 1.400 1_565 S
C1213 C1207 1.491 . S
C1213 C1212 1.400 1_545 S
C1213 C1214 1.398 . S
C1214 H1202 0.950 . S
C1214 C1213 1.398 . S
C1214 C1215 1.391 . S
C1215 H1203 0.950 . S
C1215 C1211 1.393 . S
C1215 C1214 1.391 . S
C585 C4 1.850 . S
C591 C256 1.869 . S
C605 C40 1.847 . S
C611 C148 1.848 . S
C625 C184 1.831 . S
C631 C76 1.832 . S
C645 C112 1.850 . S
C651 C220 1.836 . S
C665 C292 1.838 . S
C671 C436 1.851 . S
C685 C328 1.872 . S
C691 C508 1.857 . S
C705 C400 1.853 . S
C711 C364 1.853 . S
C725 C544 1.826 . S
C731 C472 1.827 . S
C745 C3 1.248 . S
C751 C219 1.249 . S
C765 C266 1.020 . S
C771 C50 1.009 . S
C785 C75 1.252 . S
C791 C147 1.251 . S
C805 C194 1.027 . S
C811 C122 1.005 . S
C825 C2 1.403 . S
C831 C506 1.407 . S
C845 C399 1.257 . S
C851 C39 1.257 . S
C865 C470 1.365 . S
C871 C74 1.365 . S
C885 C435 1.249 . S
C891 C111 1.250 . S
C905 C362 1.401 . S
C911 C146 1.408 . S
C925 C183 1.241 . S
C931 C543 1.243 . S
C945 C218 1.369 . S
C951 C290 1.362 . S
C965 C255 1.264 . S
C971 C327 1.263 . S
C985 C14 1.017 . S
C991 C158 1.025 . S
C1005 C302 1.021 . S
C1011 C482 1.043 . S
C1025 C434 1.345 . S
C1031 C326 1.343 . S
C1045 C518 1.025 . S
C1051 C374 1.016 . S
C1065 C254 1.341 . S
C1071 C110 1.344 . S
C1085 C86 1.015 . S
C1091 C230 1.040 . S
C1105 C398 1.346 . S
C1111 C542 1.338 . S
C1125 C471 1.249 . S
C1131 C363 1.248 . S
C1145 C554 1.004 . S
C1151 C446 1.001 . S
C1165 C507 1.257 . S
C1171 C291 1.257 . S
C1185 C410 1.008 . S
C1191 C338 1.033 . S
C1205 C38 1.344 . S
C1211 C182 1.343 . S
