# Generated by pormake.
# Topology snp, (6)-cn, num edge types: 1
# Building blocks:
#     Node 0, Type 0, BuildingBlock: BETDAH_clean_sbu_0, # of connection points: 6
#     Node 1, Type 0, BuildingBlock: BETDAH_clean_sbu_0, # of connection points: 6
#     Node 2, Type 0, BuildingBlock: BETDAH_clean_sbu_0, # of connection points: 6
#     Node 3, Type 0, BuildingBlock: BETDAH_clean_sbu_0, # of connection points: 6
#     Edge 4, Type (0, 0), BuildingBlock: FUNLAD_clean_linker_0, # of connection points: 2
#     Edge 5, Type (0, 0), BuildingBlock: FUNLAD_clean_linker_0, # of connection points: 2
#     Edge 6, Type (0, 0), BuildingBlock: FUNLAD_clean_linker_0, # of connection points: 2
#     Edge 7, Type (0, 0), BuildingBlock: FUNLAD_clean_linker_0, # of connection points: 2
#     Edge 8, Type (0, 0), BuildingBlock: FUNLAD_clean_linker_0, # of connection points: 2
#     Edge 9, Type (0, 0), BuildingBlock: FUNLAD_clean_linker_0, # of connection points: 2
#     Edge 10, Type (0, 0), BuildingBlock: FUNLAD_clean_linker_0, # of connection points: 2
#     Edge 11, Type (0, 0), BuildingBlock: FUNLAD_clean_linker_0, # of connection points: 2
#     Edge 12, Type (0, 0), BuildingBlock: FUNLAD_clean_linker_0, # of connection points: 2
#     Edge 13, Type (0, 0), BuildingBlock: FUNLAD_clean_linker_0, # of connection points: 2
#     Edge 14, Type (0, 0), BuildingBlock: FUNLAD_clean_linker_0, # of connection points: 2
#     Edge 15, Type (0, 0), BuildingBlock: FUNLAD_clean_linker_0, # of connection points: 2
# Relax obj value: 0.602
# Max RMSD: 0.174
# Mean RMSD: 0.174
data_MOF--net-snp--node1-BETDAH_clean_sbu_0--edge1-FUNLAD_clean_linker_0
_symmetry_space_group_name_H-M    P1
_symmetry_Int_Tables_number       1
_symmetry_cell_setting            triclinic
loop_
_symmetry_equiv_pos_as_xyz
'x, y, z'
_cell_length_a     27.997588
_cell_length_b     28.500794
_cell_length_c     33.425729
_cell_angle_alpha  90.066861
_cell_angle_beta   89.621124
_cell_angle_gamma 92.668644
loop_
_atom_site_label
_atom_site_type_symbol
_atom_site_fract_x
_atom_site_fract_y
_atom_site_fract_z
_atom_type_partial_charge
Ho0 Ho 0.24635 0.9946 0.15663 0.0
Ho1 Ho 0.27915 0.09257 1.13646 0.0
C2 C 0.24738 0.07421 0.22814 0.0
C3 C 0.24338 0.90812 0.18027 0.0
C4 C 0.26775 0.88113 0.21056 0.0
C5 C 0.26529 0.83199 0.20866 0.0
C6 C 0.29176 0.80578 0.23515 0.0
C7 C 0.32121 0.82843 0.26388 0.0
C8 C 0.32342 0.87787 0.26558 0.0
C9 C 0.29705 0.904 0.23903 0.0
C10 C 0.17613 0.05023 1.13204 0.0
C11 C 0.2455 0.01966 1.06306 0.0
C12 C 0.30151 0.17791 1.11484 0.0
C13 C 0.29099 0.2174 1.08884 0.0
C14 C 0.2811 0.21154 1.04803 0.0
C15 C 0.2772 0.25095 1.02359 0.0
C16 C 0.28298 0.29655 1.03972 0.0
C17 C 0.29057 0.30198 1.08093 0.0
C18 C 0.29464 0.26271 1.10522 0.0
C19 C 0.35038 0.0387 0.16385 0.0
O20 O 0.2499 0.02867 0.21935 0.0
O21 O 0.2528 0.10602 0.19943 0.0
O22 O 0.21353 0.9389 0.1931 0.0
O23 O 0.27139 0.92459 0.15171 0.0
O24 O 0.17572 1.0053 1.12519 0.0
O25 O 0.21078 0.06068 0.1542 0.0
O26 O 0.25441 0.06422 1.07445 0.0
O27 O 0.24586 0.98535 1.08966 0.0
O28 O 0.32056 0.1412 1.09887 0.0
O29 O 0.27032 0.16709 0.14285 0.0
O30 O 0.34354 0.08139 0.17428 0.0
O31 O 0.31789 0.02602 1.1395 0.0
H32 H 0.24343 0.81391 0.18631 0.0
H33 H 0.28953 0.76784 0.23287 0.0
H34 H 0.34499 0.89642 0.28783 0.0
H35 H 0.29982 0.94201 0.24046 0.0
H36 H 0.2777 0.17676 1.03494 0.0
H37 H 0.27055 0.24583 0.99196 0.0
H38 H 0.29549 0.3366 1.09411 0.0
H39 H 0.30233 0.26778 1.13671 0.0
Ho40 Ho 0.11953 0.2758 0.65405 0.0
Ho41 Ho 0.02259 0.23411 0.62679 0.0
C42 C 0.0418 0.23378 0.72103 0.0
C43 C 0.18292 0.33704 0.6796 0.0
C44 C 0.18332 0.37371 0.71043 0.0
C45 C 0.2103 0.41582 0.70452 0.0
C46 C 0.21288 0.44992 0.73465 0.0
C47 C 0.18867 0.44219 0.77126 0.0
C48 C 0.1594 0.40093 0.77588 0.0
C49 C 0.15657 0.3672 0.7457 0.0
C50 C 0.12166 0.18354 0.63854 0.0
C51 C 0.11004 0.24287 0.56058 0.0
C52 C 0.94706 0.18918 0.59964 0.0
C53 C 0.8995 0.19994 0.58496 0.0
C54 C 0.89224 0.24114 0.56339 0.0
C55 C 0.84727 0.24915 0.54761 0.0
C56 C 0.80869 0.21628 0.55339 0.0
C57 C 0.81579 0.17612 0.57664 0.0
C58 C 0.86087 0.168 0.59217 0.0
C59 C 0.02814 0.3297 0.63768 0.0
O60 O 0.07626 0.26667 0.71329 0.0
O61 O 0.02147 0.21015 0.69108 0.0
O62 O 0.17976 0.29343 0.69217 0.0
O63 O 0.15528 0.3443 0.64914 0.0
O64 O 0.15942 0.21196 0.63906 0.0
O65 O 0.08652 0.20478 0.65287 0.0
O66 O 0.06643 0.22595 0.56996 0.0
O67 O 0.13657 0.26732 0.58716 0.0
O68 O 0.95454 0.19704 0.63757 0.0
O69 O 0.98369 0.20243 0.57723 0.0
O70 O 0.99007 0.30349 0.64469 0.0
O71 O 0.05891 0.30419 0.62282 0.0
H72 H 0.2303 0.42181 0.67699 0.0
H73 H 0.23515 0.48151 0.72982 0.0
H74 H 0.14079 0.39308 0.80374 0.0
H75 H 0.13476 0.33531 0.75057 0.0
H76 H 0.92157 0.2665 0.55786 0.0
H77 H 0.8434 0.2801 0.52938 0.0
H78 H 0.78677 0.15043 0.58214 0.0
H79 H 0.86578 0.13627 0.60919 0.0
Ho80 Ho 0.86293 0.0958 0.15701 0.0
Ho81 Ho 0.88898 1.0026 1.12919 0.0
C82 C 0.90239 0.0271 0.22273 0.0
C83 C 0.81068 0.16682 0.16979 0.0
C84 C 0.77251 0.1792 0.19813 0.0
C85 C 0.72729 0.15549 0.19799 0.0
C86 C 0.69363 0.16427 0.22785 0.0
C87 C 0.70421 0.19772 0.25777 0.0
C88 C 0.74815 0.22366 0.25618 0.0
C89 C 0.78194 0.21444 0.22669 0.0
C90 C 0.95833 0.09478 0.14424 0.0
C91 C 0.88467 0.07931 1.05875 0.0
C92 C 0.91812 0.91852 1.11889 0.0
C93 C 0.8963 0.87514 1.10216 0.0
C94 C 0.85638 0.87674 1.07722 0.0
C95 C 0.83539 0.83537 1.06165 0.0
C96 C 0.85379 0.79158 1.07091 0.0
C97 C 0.89316 0.79014 1.09675 0.0
C98 C 0.91421 0.83167 1.11229 0.0
C99 C 0.79298 0.013 1.13682 0.0
O100 O 0.87011 0.05926 0.21756 0.0
O101 O 0.92262 0.00883 0.19077 0.0
O102 O 0.85335 0.16317 0.18502 0.0
O103 O 0.80003 0.13377 0.14361 0.0
O104 O 0.9384 0.11819 0.17282 0.0
O105 O 0.92582 0.07217 1.12554 0.0
O106 O 0.8963 0.03601 1.06783 0.0
O107 O 0.86925 0.10754 1.08778 0.0
O108 O 0.89841 0.93273 0.15192 0.0
O109 O 0.92723 0.95287 1.0937 0.0
O110 O 0.81259 0.99083 1.10777 0.0
O111 O 0.82501 0.02706 0.16077 0.0
H112 H 0.71829 0.12934 0.17549 0.0
H113 H 0.65987 0.14409 0.22816 0.0
H114 H 0.75757 0.24933 0.27907 0.0
H115 H 0.81618 0.2338 0.22706 0.0
H116 H 0.84183 0.91003 1.06936 0.0
H117 H 0.80578 0.83793 1.04121 0.0
H118 H 0.90797 0.75698 1.10464 0.0
H119 H 0.94462 0.82989 1.13202 0.0
Ho120 Ho 0.98677 0.84953 0.66383 0.0
Ho121 Ho 0.08862 0.86014 0.63566 0.0
C122 C 0.07072 0.87933 0.72844 0.0
C123 C 0.90728 0.81354 0.69246 0.0
C124 C 0.89277 0.77966 0.72369 0.0
C125 C 0.84922 0.75377 0.72016 0.0
C126 C 0.83518 0.72058 0.74918 0.0
C127 C 0.86456 0.71282 0.78226 0.0
C128 C 0.90868 0.73845 0.7852 0.0
C129 C 0.92276 0.77139 0.75606 0.0
C130 C 1.01193 0.93781 0.64068 0.0
C131 C 1.004 0.86678 0.56823 0.0
C132 C 0.17341 0.8743 0.60581 0.0
C133 C 0.20777 0.8435 0.58682 0.0
C134 C 0.19356 0.81261 0.55596 0.0
C135 C 0.22653 0.78385 0.53807 0.0
C136 C 0.27437 0.78482 0.55095 0.0
C137 C 0.28806 0.81473 0.5828 0.0
C138 C 0.25506 0.8439 0.60046 0.0
C139 C 0.05857 0.76972 0.65486 0.0
O140 O 0.02994 0.85392 0.72289 0.0
O141 O 0.09589 0.89387 0.69676 0.0
O142 O 0.92648 0.85396 0.70429 0.0
O143 O 0.92999 0.79582 0.66216 0.0
O144 O 0.96821 0.92028 0.6408 0.0
O145 O 0.03787 0.90961 0.65863 0.0
O146 O 0.05035 0.87124 0.57651 0.0
O147 O 0.97219 0.8549 0.59673 0.0
O148 O 0.16524 0.86659 0.64375 0.0
O149 O 0.13436 0.88177 0.586 0.0
O150 O 0.10073 0.7881 0.66126 0.0
O151 O 0.03528 0.79963 0.63659 0.0
H152 H 0.82603 0.75928 0.69493 0.0
H153 H 0.80127 0.70117 0.74578 0.0
H154 H 0.93183 0.73411 0.81062 0.0
H155 H 0.95683 0.79068 0.75899 0.0
H156 H 0.15712 0.81109 0.54516 0.0
H157 H 0.21473 0.76214 0.5131 0.0
H158 H 0.3244 0.81606 0.59378 0.0
H159 H 0.26654 0.86702 0.62466 0.0
C160 C 1.00492 0.10021 1.0811 0.0
C161 C 0.99556 0.11892 1.11917 0.0
C162 C 0.02654 0.12814 1.05138 0.0
C163 C 0.04188 0.17457 1.05966 0.0
C164 C 0.0352 0.19284 1.09816 0.0
C165 C 1.01195 0.16528 1.12773 0.0
C166 C 0.07148 0.20099 1.02971 0.0
C167 C 0.11687 0.18973 1.02249 0.0
C168 C 0.13896 0.15412 1.04742 0.0
C169 C 0.13353 0.10637 1.03731 0.0
C170 C 0.14214 0.07191 1.0658 0.0
C171 C 0.15802 0.08499 1.10415 0.0
H172 H 0.15774 0.20381 1.09429 0.0
C173 C 0.16402 0.13285 1.11382 0.0
C174 C 0.15468 0.16712 1.08568 0.0
H175 H 0.17609 0.14378 0.14326 0.0
H176 H 0.99274 0.06472 1.07344 0.0
H177 H 0.03192 0.11328 1.02194 0.0
H178 H 0.04803 0.22828 1.10529 0.0
H179 H 1.00491 0.18096 0.15658 0.0
H180 H 0.05631 0.22964 1.01347 0.0
H181 H 0.13833 0.20904 1.0003 0.0
H182 H 0.12026 0.09582 1.00813 0.0
H183 H 0.13753 0.03524 1.05754 0.0
C184 C 0.07891 0.97399 0.60043 0.0
C185 C 0.0296 0.9674 0.60724 0.0
C186 C 0.09583 0.9913 0.56376 0.0
C187 C 0.06364 1.00289 0.53369 0.0
C188 C 1.01442 0.99827 0.54099 0.0
C189 C 0.99747 0.98132 0.5778 0.0
C190 C 0.08157 0.02617 0.49687 0.0
C191 C 0.10455 0.06854 0.49823 0.0
C192 C 0.10892 0.09583 0.53587 0.0
C193 C 0.1541 0.11125 0.54935 0.0
C194 C 0.15853 0.13617 0.58518 0.0
C195 C 0.1177 0.14651 0.60781 0.0
H196 H 0.03278 0.09435 0.54874 0.0
C197 C 0.07272 0.12881 0.59538 0.0
C198 C 0.06822 0.10489 0.55909 0.0
H199 H 0.04078 0.1365 0.61211 0.0
H200 H 0.10434 0.96373 0.62271 0.0
H201 H 0.13406 0.9958 0.55881 0.0
H202 H 0.98923 0.00828 0.51843 0.0
H203 H 0.95919 0.97659 0.58228 0.0
H204 H 0.07691 0.00824 0.46839 0.0
H205 H 0.12133 0.08268 0.47119 0.0
H206 H 0.18584 0.10445 0.53196 0.0
H207 H 0.19375 0.14953 0.59402 0.0
C208 C 0.70742 0.99666 1.11591 0.0
C209 C 0.74052 0.01377 0.14453 0.0
C210 C 0.65791 0.99794 1.12302 0.0
C211 C 0.64024 0.0163 0.15913 0.0
C212 C 0.67361 0.03305 0.18773 0.0
C213 C 0.72298 0.03159 0.18066 0.0
C214 C 0.58789 0.02127 0.16754 0.0
C215 C 0.55157 0.99745 0.14847 0.0
C216 C 0.49915 1.00444 0.15582 0.0
C217 C 0.46515 0.98364 1.12943 0.0
C218 C 0.41618 0.99208 1.1332 0.0
C219 C 0.39992 0.02168 0.16353 0.0
H220 H 0.50589 0.04755 0.20962 0.0
C221 C 0.43334 0.0404 0.19117 0.0
C222 C 0.48209 0.03182 0.18759 0.0
H223 H 0.42193 0.0631 0.21509 0.0
H224 H 0.71981 0.98275 1.08771 0.0
H225 H 0.63388 0.98559 1.09969 0.0
H226 H 0.66147 0.04769 0.21573 0.0
H227 H 0.74744 0.04496 0.2034 0.0
H228 H 0.57965 0.04616 0.19078 0.0
H229 H 0.56025 0.97211 1.12562 0.0
H230 H 0.47667 0.96189 1.10491 0.0
H231 H 0.39146 0.97721 1.1113 0.0
C232 C 0.99765 0.40845 0.6591 0.0
C233 C 0.03225 0.38218 0.63952 0.0
C234 C 1.00275 0.4579 0.66118 0.0
C235 C 0.04276 0.4822 0.64379 0.0
C236 C 0.0769 0.4557 0.62403 0.0
C237 C 0.07144 0.40665 0.62149 0.0
C238 C 0.05188 0.53451 0.64688 0.0
C239 C 0.01786 0.5663 0.65224 0.0
C240 C 0.02862 0.61855 0.65381 0.0
C241 C 0.99353 0.64958 0.64214 0.0
C242 C 1.0028 0.69857 0.64265 0.0
C243 C 0.04718 0.71793 0.6556 0.0
H244 H 0.1003 0.61582 0.67789 0.0
C245 C 0.08177 0.68699 0.66837 0.0
C246 C 0.07274 0.6381 0.66743 0.0
H247 H 0.11625 0.70058 0.67883 0.0
H248 H 0.96692 0.39073 0.67323 0.0
H249 H 0.97598 0.47676 0.67725 0.0
H250 H 0.10804 0.47308 0.6102 0.0
H251 H 0.098 0.3879 0.60507 0.0
H252 H 0.08861 0.54746 0.64233 0.0
H253 H 0.98056 0.55407 0.65328 0.0
H254 H 0.95901 0.63585 0.63186 0.0
H255 H 0.97535 0.72122 0.63256 0.0
C256 C 0.10318 0.20106 0.49304 0.0
C257 C 0.13068 0.22905 0.52023 0.0
C258 C 0.12282 0.18443 0.45688 0.0
C259 C 0.17081 0.19541 0.4461 0.0
C260 C 0.19793 0.22443 0.47269 0.0
C261 C 0.17848 0.24056 0.50917 0.0
C262 C 0.19293 0.17956 0.40679 0.0
C263 C 0.17938 0.13974 0.38617 0.0
C264 C 0.201 0.12352 0.34676 0.0
C265 C 0.19615 0.07563 0.33572 0.0
C266 C 0.21274 0.05931 0.29834 0.0
C267 C 0.23402 0.09043 0.26995 0.0
H268 H 0.22739 0.1917 0.32527 0.0
C269 C 0.23927 0.13833 0.28107 0.0
C270 C 0.22343 0.15453 0.31877 0.0
H271 H 0.25517 0.16374 0.26028 0.0
H272 H 0.06624 0.19114 0.49993 0.0
H273 H 0.09998 0.16334 0.43721 0.0
H274 H 0.23481 0.23428 0.46547 0.0
H275 H 0.2012 0.26172 0.52889 0.0
H276 H 0.22311 0.20092 0.39539 0.0
H277 H 0.1518 0.11651 0.39941 0.0
H278 H 0.17891 0.05051 0.35609 0.0
H279 H 0.20747 0.02236 0.29123 0.0
C280 C 0.9918 0.18356 0.77043 0.0
C281 C 0.02557 0.22127 0.76353 0.0
C282 C 0.9756 0.17112 0.80935 0.0
C283 C 0.99238 0.19587 0.8435 0.0
C284 C 0.02596 0.2338 0.83662 0.0
C285 C 0.04242 0.24612 0.79755 0.0
C286 C 0.97491 0.1844 0.88615 0.0
C287 C 0.95145 0.14338 0.89778 0.0
C288 C 0.93397 0.12975 0.93987 0.0
C289 C 0.92116 0.0821 0.94757 0.0
C290 C 0.90421 0.06658 0.98535 0.0
C291 C 0.89821 0.09804 1.01735 0.0
H292 H 0.93686 0.19868 0.96768 0.0
C293 C 0.91023 0.14605 1.00983 0.0
C294 C 0.92805 0.16165 0.97184 0.0
H295 H 0.90716 0.17152 1.03366 0.0
H296 H 0.9774 0.16332 0.74548 0.0
H297 H 0.94916 0.14244 0.8122 0.0
H298 H 0.03977 0.25416 0.86172 0.0
H299 H 0.06816 0.27539 0.79404 0.0
H300 H 0.98321 0.21056 0.90899 0.0
H301 H 0.94585 0.11636 0.87521 0.0
H302 H 0.92479 0.05619 0.92413 0.0
H303 H 0.89599 0.02939 0.98953 0.0
C304 C 0.02002 0.8939 0.49599 0.0
C305 C 0.98718 0.88174 0.52707 0.0
C306 C 1.00498 0.91315 0.45928 0.0
C307 C 0.95627 0.9211 0.45202 0.0
C308 C 0.92355 0.90825 0.48295 0.0
C309 C 0.93854 0.88888 0.5195 0.0
C310 C 0.93786 0.94368 0.41383 0.0
C311 C 0.96312 0.95067 0.37904 0.0
C312 C 0.94515 0.97164 0.34009 0.0
C313 C 0.97194 0.96526 0.30479 0.0
C314 C 0.95813 0.98362 0.2677 0.0
C315 C 0.91706 0.0101 0.2639 0.0
H316 H 0.8823 1.00509 0.36281 0.0
C317 C 0.8903 0.01747 0.29925 0.0
C318 C 0.90393 0.99839 0.33667 0.0
H319 H 0.85836 0.03741 0.29794 0.0
H320 H 0.05788 0.88982 0.50039 0.0
H321 H 0.03207 0.92284 0.43724 0.0
H322 H 0.88584 0.91373 0.47906 0.0
H323 H 0.91189 0.88082 0.5424 0.0
H324 H 0.90093 0.95367 0.41435 0.0
H325 H 0.99924 0.93854 0.37796 0.0
H326 H 1.00396 0.94536 0.3057 0.0
H327 H 0.9801 0.97686 0.24172 0.0
C328 C 0.12726 0.9269 0.77464 0.0
C329 C 0.08813 0.89404 0.76994 0.0
C330 C 0.14438 0.94079 0.81288 0.0
C331 C 0.12331 0.92215 0.84828 0.0
C332 C 0.08428 0.88924 0.84353 0.0
C333 C 0.06681 0.87573 0.80528 0.0
C334 C 0.14186 0.93393 0.89029 0.0
C335 C 0.171 0.97189 0.90077 0.0
C336 C 0.18965 0.98322 0.94283 0.0
C337 C 0.2078 0.02917 0.952 0.0
C338 C 0.2264 0.0411 0.99025 0.0
C339 C 0.22839 1.00732 1.02092 0.0
H340 H 0.17935 0.91346 0.96824 0.0
C341 C 0.21076 0.96122 1.01158 0.0
C342 C 0.19175 0.94942 0.97352 0.0
H343 H 0.21111 0.93385 1.03399 0.0
H344 H 0.14505 0.94208 0.74852 0.0
H345 H 0.17485 0.96547 0.81439 0.0
H346 H 0.067 0.87366 0.86973 0.0
H347 H 0.03684 0.85041 0.80347 0.0
H348 H 0.12939 0.91031 0.91396 0.0
H349 H 0.18092 0.99725 0.87764 0.0
H350 H 0.20725 0.05637 0.92943 0.0
H351 H 0.23895 0.07701 0.99583 0.0
C352 C 0.78588 0.74229 1.04182 0.0
C353 C 0.8349 0.74861 1.05013 0.0
C354 C 0.76982 0.70878 1.01386 0.0
C355 C 0.80234 0.68085 0.99376 0.0
C356 C 0.85065 0.68359 1.00561 0.0
C357 C 0.86667 0.71714 1.03348 0.0
C358 C 0.78738 0.65926 0.955 0.0
C359 C 0.81581 0.63209 0.93312 0.0
C360 C 0.82215 0.63953 0.88931 0.0
C361 C 0.78749 0.66036 0.86566 0.0
C362 C 0.80047 0.68142 0.82922 0.0
C363 C 0.84801 0.68123 0.8154 0.0
H364 H 0.89514 0.61745 0.89008 0.0
C365 C 0.88076 0.65481 0.83641 0.0
C366 C 0.86789 0.63411 0.87297 0.0
H367 H 0.91722 0.65252 0.82582 0.0
H368 H 0.76032 0.76528 1.05496 0.0
H369 H 0.73243 0.70742 1.00555 0.0
H370 H 0.87735 0.66334 0.99093 0.0
H371 H 0.90469 0.72106 1.03915 0.0
H372 H 0.7576 0.67546 0.94077 0.0
H373 H 0.84369 0.61378 0.94815 0.0
H374 H 0.75116 0.66331 0.87619 0.0
H375 H 0.77404 0.70083 0.81354 0.0
C376 C 0.39317 0.81629 0.30646 0.0
C377 C 0.34737 0.80092 0.29362 0.0
C378 C 0.41386 0.79564 0.33961 0.0
C379 C 0.38934 0.75913 0.36053 0.0
C380 C 0.34542 0.74091 0.3453 0.0
C381 C 0.32475 0.76162 0.31221 0.0
C382 C 0.40436 0.74927 0.40217 0.0
C383 C 0.3839 0.71437 0.42447 0.0
C384 C 0.36683 0.72306 0.46599 0.0
C385 C 0.32531 0.69789 0.47901 0.0
C386 C 0.2973 0.71544 0.50979 0.0
C387 C 0.31028 0.75863 0.52802 0.0
H388 H 0.41698 0.78091 0.4814 0.0
C389 C 0.35545 0.77986 0.51918 0.0
C390 C 0.3838 0.7619 0.48879 0.0
H391 H 0.36724 0.81266 0.5331 0.0
H392 H 0.41205 0.8458 0.29211 0.0
H393 H 0.44763 0.81047 0.3506 0.0
H394 H 0.32461 0.71345 0.3606 0.0
H395 H 0.28935 0.749 0.3032 0.0
H396 H 0.42407 0.77809 0.41669 0.0
H397 H 0.36758 0.68407 0.40921 0.0
H398 H 0.31187 0.66713 0.4628 0.0
H399 H 0.26368 0.69703 0.51713 0.0
C400 C 0.24746 0.487 0.81452 0.0
C401 C 0.19982 0.47193 0.80689 0.0
C402 C 0.26187 0.49762 0.85351 0.0
C403 C 0.22908 0.4918 0.8854 0.0
C404 C 0.18023 0.48594 0.87664 0.0
C405 C 0.16561 0.47627 0.83753 0.0
C406 C 0.24465 0.4793 0.92629 0.0
C407 C 0.28376 0.45407 0.93137 0.0
C408 C 0.28665 0.41705 0.9623 0.0
C409 C 0.31232 0.37735 0.95266 0.0
C410 C 0.31087 0.33832 0.97774 0.0
C411 C 0.28417 0.3383 1.01338 0.0
H412 H 0.24196 0.44819 1.00764 0.0
C413 C 0.26017 0.37877 1.0241 0.0
C414 C 0.26132 0.41786 0.99877 0.0
H415 H 0.2397 0.37982 1.05167 0.0
H416 H 0.2748 0.48544 0.79157 0.0
H417 H 0.29952 0.50516 0.85898 0.0
H418 H 0.15387 0.48298 0.9005 0.0
H419 H 0.1282 0.46717 0.8322 0.0
H420 H 0.21754 0.47927 0.94966 0.0
H421 H 0.30959 0.45223 0.90712 0.0
H422 H 0.33226 0.37574 0.92482 0.0
H423 H 0.33071 0.3081 0.9692 0.0
C424 C 0.65815 0.16072 0.31455 0.0
C425 C 0.67313 0.20151 0.29355 0.0
C426 C 0.64151 0.16386 0.35388 0.0
C427 C 0.63982 0.20772 0.37292 0.0
C428 C 0.64825 0.24869 0.3499 0.0
C429 C 0.66525 0.24554 0.31064 0.0
C430 C 0.63908 0.20843 0.41742 0.0
C431 C 0.66301 0.24244 0.43827 0.0
C432 C 0.68935 0.23335 0.47574 0.0
C433 C 0.70887 0.27195 0.49724 0.0
C434 C 0.74525 0.26611 0.52498 0.0
C435 C 0.76316 0.22151 0.53154 0.0
H436 H 0.6911 0.15739 0.46892 0.0
C437 C 0.74065 0.18236 0.51272 0.0
C438 C 0.70418 0.18814 0.48517 0.0
H439 H 0.75373 0.14752 0.5167 0.0
H440 H 0.66355 0.12625 0.30208 0.0
H441 H 0.63457 0.13169 0.37062 0.0
H442 H 0.64496 0.28323 0.36277 0.0
H443 H 0.67524 0.27755 0.29459 0.0
H444 H 0.62878 0.17564 0.43234 0.0
H445 H 0.67192 0.27603 0.42422 0.0
H446 H 0.69825 0.30716 0.4906 0.0
H447 H 0.76109 0.29689 0.53967 0.0
loop_
_geom_bond_atom_site_label_1
_geom_bond_atom_site_label_2
_geom_bond_distance
_geom_bond_site_symmetry_2
_ccdc_geom_bond_type
Ho0 C3 2.811 1_545 S
Ho0 O20 2.322 . S
Ho0 O22 2.378 1_545 S
Ho0 O23 2.524 . S
Ho0 O24 2.381 . S
Ho0 O25 2.669 1_554 S
Ho0 O27 2.346 1_554 S
Ho0 O31 2.305 . S
Ho1 C12 2.811 . S
Ho1 O21 2.346 1_556 S
Ho1 O25 2.305 . S
Ho1 O26 2.322 . S
Ho1 O28 2.378 . S
Ho1 O29 2.524 . S
Ho1 O30 2.381 . S
Ho1 O31 2.669 1_556 S
C2 O20 1.259 . S
C2 O21 1.268 . S
C3 Ho0 2.811 1_565 S
C3 C4 1.488 . S
C3 O22 1.215 . S
C3 O23 1.289 1_565 S
C4 C3 1.488 . S
C4 C5 1.348 . S
C4 C9 1.413 . S
C5 C4 1.348 . S
C5 C6 1.442 . S
C5 H32 0.933 . S
C6 C5 1.442 . S
C6 C7 1.381 . S
C6 H33 0.931 . S
C7 C6 1.381 . S
C7 C8 1.321 . S
C8 C7 1.321 . S
C8 C9 1.403 . S
C8 H34 0.934 . S
C9 C4 1.413 . S
C9 C8 1.403 . S
C9 H35 0.930 . S
C10 O24 1.275 . S
C10 O25 1.256 1_554 S
C11 O26 1.259 . S
C11 O27 1.268 . S
C12 Ho1 2.811 . S
C12 C13 1.488 . S
C12 O28 1.215 . S
C12 O29 1.289 . S
C13 C12 1.488 . S
C13 C14 1.348 . S
C13 C18 1.413 . S
C14 C13 1.348 . S
C14 C15 1.442 . S
C14 H36 0.930 . S
C15 C14 1.442 . S
C15 C16 1.381 . S
C15 H37 0.931 . S
C16 C15 1.381 . S
C16 C17 1.321 . S
C17 C16 1.321 . S
C17 C18 1.403 . S
C17 H38 0.934 . S
C18 C13 1.413 . S
C18 C17 1.403 . S
C18 H39 0.930 . S
C19 O30 1.275 1_554 S
C19 O31 1.256 . S
O20 Ho0 2.322 . S
O20 C2 1.259 . S
O21 Ho1 2.346 1_554 S
O21 C2 1.268 . S
O22 Ho0 2.378 1_565 S
O22 C3 1.215 . S
O23 Ho0 2.524 . S
O23 C3 1.289 1_545 S
O24 Ho0 2.381 . S
O24 C10 1.275 . S
O25 Ho0 2.669 1_556 S
O25 Ho1 2.305 . S
O25 C10 1.256 1_556 S
O26 Ho1 2.322 . S
O26 C11 1.259 . S
O27 Ho0 2.346 1_556 S
O27 C11 1.268 . S
O28 Ho1 2.378 . S
O28 C12 1.215 . S
O29 Ho1 2.524 . S
O29 C12 1.289 . S
O30 Ho1 2.381 . S
O30 C19 1.275 1_556 S
O31 Ho0 2.305 . S
O31 Ho1 2.669 1_554 S
O31 C19 1.256 . S
H32 C5 0.933 . S
H33 C6 0.931 . S
H34 C8 0.934 . S
H35 C9 0.930 . S
H36 C14 0.930 . S
H37 C15 0.931 . S
H38 C17 0.934 . S
H39 C18 0.930 . S
Ho40 C43 2.811 . S
Ho40 O60 2.322 1_455 S
Ho40 O62 2.378 . S
Ho40 O63 2.524 . S
Ho40 O64 2.381 . S
Ho40 O65 2.669 1_455 S
Ho40 O67 2.346 . S
Ho40 O71 2.305 . S
Ho41 C52 2.811 . S
Ho41 O61 2.346 . S
Ho41 O65 2.305 . S
Ho41 O66 2.322 1_655 S
Ho41 O68 2.378 . S
Ho41 O69 2.524 . S
Ho41 O70 2.381 . S
Ho41 O71 2.669 1_655 S
C42 O60 1.259 . S
C42 O61 1.268 . S
C43 Ho40 2.811 . S
C43 C44 1.488 . S
C43 O62 1.215 . S
C43 O63 1.289 . S
C44 C43 1.488 . S
C44 C45 1.348 . S
C44 C49 1.413 . S
C45 C44 1.348 . S
C45 C46 1.442 . S
C45 H72 0.930 . S
C46 C45 1.442 . S
C46 C47 1.381 . S
C46 H73 0.931 . S
C47 C46 1.381 . S
C47 C48 1.321 . S
C48 C47 1.321 . S
C48 C49 1.403 . S
C48 H74 0.934 . S
C49 C44 1.413 . S
C49 C48 1.403 . S
C49 H75 0.930 . S
C50 O64 1.275 . S
C50 O65 1.256 1_455 S
C51 O66 1.259 . S
C51 O67 1.268 . S
C52 Ho41 2.811 . S
C52 C53 1.488 . S
C52 O68 1.215 . S
C52 O69 1.289 . S
C53 C52 1.488 . S
C53 C54 1.348 . S
C53 C58 1.413 . S
C54 C53 1.348 . S
C54 C55 1.442 . S
C54 H76 0.930 . S
C55 C54 1.442 . S
C55 C56 1.381 . S
C55 H77 0.931 . S
C56 C55 1.381 . S
C56 C57 1.321 . S
C57 C56 1.321 . S
C57 C58 1.403 . S
C57 H78 0.934 . S
C58 C53 1.413 . S
C58 C57 1.403 . S
C58 H79 0.930 . S
C59 O70 1.275 . S
C59 O71 1.256 1_655 S
O60 Ho40 2.322 1_655 S
O60 C42 1.259 . S
O61 Ho41 2.346 . S
O61 C42 1.268 . S
O62 Ho40 2.378 . S
O62 C43 1.215 . S
O63 Ho40 2.524 . S
O63 C43 1.289 . S
O64 Ho40 2.381 . S
O64 C50 1.275 . S
O65 Ho40 2.669 1_655 S
O65 Ho41 2.305 . S
O65 C50 1.256 1_655 S
O66 Ho41 2.322 1_455 S
O66 C51 1.259 . S
O67 Ho40 2.346 . S
O67 C51 1.268 . S
O68 Ho41 2.378 . S
O68 C52 1.215 . S
O69 Ho41 2.524 . S
O69 C52 1.289 . S
O70 Ho41 2.381 . S
O70 C59 1.275 . S
O71 Ho40 2.305 . S
O71 Ho41 2.669 1_455 S
O71 C59 1.256 1_455 S
H72 C45 0.930 . S
H73 C46 0.931 . S
H74 C48 0.934 . S
H75 C49 0.930 . S
H76 C54 0.930 . S
H77 C55 0.931 . S
H78 C57 0.934 . S
H79 C58 0.930 . S
Ho80 C83 2.811 . S
Ho80 O100 2.322 1_545 S
Ho80 O102 2.378 . S
Ho80 O103 2.524 . S
Ho80 O104 2.381 . S
Ho80 O105 2.669 1_544 S
Ho80 O107 2.346 1_554 S
Ho80 O111 2.305 . S
Ho81 C92 2.811 . S
Ho81 O101 2.346 1_556 S
Ho81 O105 2.305 . S
Ho81 O106 2.322 1_565 S
Ho81 O108 2.378 . S
Ho81 O109 2.524 . S
Ho81 O110 2.381 . S
Ho81 O111 2.669 1_566 S
C82 O100 1.259 . S
C82 O101 1.268 . S
C83 Ho80 2.811 . S
C83 C84 1.488 . S
C83 O102 1.215 . S
C83 O103 1.289 . S
C84 C83 1.488 . S
C84 C85 1.348 . S
C84 C89 1.413 . S
C85 C84 1.348 . S
C85 C86 1.442 . S
C85 H112 0.930 . S
C86 C85 1.442 . S
C86 C87 1.381 . S
C86 H113 0.931 . S
C87 C86 1.381 . S
C87 C88 1.321 . S
C88 C87 1.321 . S
C88 C89 1.403 . S
C88 H114 0.934 . S
C89 C84 1.413 . S
C89 C88 1.403 . S
C89 H115 0.930 . S
C90 O104 1.275 . S
C90 O105 1.256 1_544 S
C91 O106 1.259 . S
C91 O107 1.268 . S
C92 Ho81 2.811 . S
C92 C93 1.488 . S
C92 O108 1.215 . S
C92 O109 1.289 . S
C93 C92 1.488 . S
C93 C94 1.348 . S
C93 C98 1.413 . S
C94 C93 1.348 . S
C94 C95 1.442 . S
C94 H116 0.930 . S
C95 C94 1.442 . S
C95 C96 1.381 . S
C95 H117 0.931 . S
C96 C95 1.381 . S
C96 C97 1.321 . S
C97 C96 1.321 . S
C97 C98 1.403 . S
C97 H118 0.934 . S
C98 C93 1.413 . S
C98 C97 1.403 . S
C98 H119 0.930 . S
C99 O110 1.275 1_554 S
C99 O111 1.256 1_565 S
O100 Ho80 2.322 1_565 S
O100 C82 1.259 . S
O101 Ho81 2.346 1_554 S
O101 C82 1.268 . S
O102 Ho80 2.378 . S
O102 C83 1.215 . S
O103 Ho80 2.524 . S
O103 C83 1.289 . S
O104 Ho80 2.381 . S
O104 C90 1.275 . S
O105 Ho80 2.669 1_566 S
O105 Ho81 2.305 . S
O105 C90 1.256 1_566 S
O106 Ho81 2.322 1_545 S
O106 C91 1.259 . S
O107 Ho80 2.346 1_556 S
O107 C91 1.268 . S
O108 Ho81 2.378 . S
O108 C92 1.215 . S
O109 Ho81 2.524 . S
O109 C92 1.289 . S
O110 Ho81 2.381 . S
O110 C99 1.275 1_556 S
O111 Ho80 2.305 . S
O111 Ho81 2.669 1_544 S
O111 C99 1.256 1_545 S
H112 C85 0.930 . S
H113 C86 0.931 . S
H114 C88 0.934 . S
H115 C89 0.930 . S
H116 C94 0.930 . S
H117 C95 0.931 . S
H118 C97 0.934 . S
H119 C98 0.930 . S
Ho120 C123 2.811 1_455 S
Ho120 O140 2.322 . S
Ho120 O142 2.378 1_455 S
Ho120 O143 2.524 . S
Ho120 O144 2.381 . S
Ho120 O145 2.669 . S
Ho120 O147 2.346 . S
Ho120 O151 2.305 . S
Ho121 C132 2.811 . S
Ho121 O141 2.346 . S
Ho121 O145 2.305 . S
Ho121 O146 2.322 . S
Ho121 O148 2.378 . S
Ho121 O149 2.524 . S
Ho121 O150 2.381 . S
Ho121 O151 2.669 . S
C122 O140 1.259 . S
C122 O141 1.268 . S
C123 Ho120 2.811 1_655 S
C123 C124 1.488 . S
C123 O142 1.215 . S
C123 O143 1.289 1_655 S
C124 C123 1.488 . S
C124 C125 1.348 . S
C124 C129 1.413 . S
C125 C124 1.348 . S
C125 C126 1.442 . S
C125 H152 0.933 . S
C126 C125 1.442 . S
C126 C127 1.381 . S
C126 H153 0.931 . S
C127 C126 1.381 . S
C127 C128 1.321 . S
C128 C127 1.321 . S
C128 C129 1.403 . S
C128 H154 0.934 . S
C129 C124 1.413 . S
C129 C128 1.403 . S
C129 H155 0.930 . S
C130 O144 1.275 . S
C130 O145 1.256 . S
C131 O146 1.259 . S
C131 O147 1.268 . S
C132 Ho121 2.811 . S
C132 C133 1.488 . S
C132 O148 1.215 . S
C132 O149 1.289 . S
C133 C132 1.488 . S
C133 C134 1.348 . S
C133 C138 1.413 . S
C134 C133 1.348 . S
C134 C135 1.442 . S
C134 H156 0.930 . S
C135 C134 1.442 . S
C135 C136 1.381 . S
C135 H157 0.931 . S
C136 C135 1.381 . S
C136 C137 1.321 . S
C137 C136 1.321 . S
C137 C138 1.403 . S
C137 H158 0.934 . S
C138 C133 1.413 . S
C138 C137 1.403 . S
C138 H159 0.930 . S
C139 O150 1.275 . S
C139 O151 1.256 . S
O140 Ho120 2.322 . S
O140 C122 1.259 . S
O141 Ho121 2.346 . S
O141 C122 1.268 . S
O142 Ho120 2.378 1_655 S
O142 C123 1.215 . S
O143 Ho120 2.524 . S
O143 C123 1.289 1_455 S
O144 Ho120 2.381 . S
O144 C130 1.275 . S
O145 Ho120 2.669 . S
O145 Ho121 2.305 . S
O145 C130 1.256 . S
O146 Ho121 2.322 . S
O146 C131 1.259 . S
O147 Ho120 2.346 . S
O147 C131 1.268 . S
O148 Ho121 2.378 . S
O148 C132 1.215 . S
O149 Ho121 2.524 . S
O149 C132 1.289 . S
O150 Ho121 2.381 . S
O150 C139 1.275 . S
O151 Ho120 2.305 . S
O151 Ho121 2.669 . S
O151 C139 1.256 . S
H152 C125 0.933 . S
H153 C126 0.931 . S
H154 C128 0.934 . S
H155 C129 0.930 . S
H156 C134 0.930 . S
H157 C135 0.931 . S
H158 C137 0.934 . S
H159 C138 0.930 . S
C160 C161 1.395 . S
C160 C162 1.383 . S
C160 H176 0.951 . S
C161 C160 1.395 . S
C161 C165 1.364 1_566 S
C162 C160 1.383 . S
C162 C163 1.402 1_565 S
C162 H177 0.951 . S
C163 C162 1.402 1_545 S
C163 C164 1.375 1_556 S
C163 C166 1.482 1_655 S
C164 C163 1.375 1_554 S
C164 C165 1.367 . S
C164 H178 0.951 . S
C165 C161 1.364 1_544 S
C165 C164 1.367 . S
C165 H179 0.950 . S
C166 C163 1.482 1_455 S
C166 C167 1.309 . S
C166 H180 0.936 1_556 S
C167 C166 1.309 . S
C167 C168 1.479 . S
C167 H181 0.950 . S
C168 C167 1.479 . S
C168 C169 1.375 . S
C168 C174 1.404 1_556 S
C169 C168 1.375 . S
C169 C170 1.369 . S
C169 H182 0.950 . S
C170 C169 1.369 . S
C170 C171 1.392 . S
C170 H183 0.951 . S
C171 C170 1.392 . S
C171 C173 1.384 1_556 S
H172 C174 0.949 . S
C173 C171 1.384 1_554 S
C173 C174 1.385 . S
C173 H175 0.950 . S
C174 C168 1.404 1_554 S
C174 H172 0.949 . S
C174 C173 1.385 . S
H175 C173 0.950 . S
H176 C160 0.951 . S
H177 C162 0.951 . S
H178 C164 0.951 . S
H179 C165 0.950 . S
H180 C166 0.936 1_554 S
H181 C167 0.950 . S
H182 C169 0.950 . S
H183 C170 0.951 . S
C184 C185 1.386 . S
C184 C186 1.383 . S
C184 H200 0.951 . S
C185 C184 1.386 . S
C185 C189 1.383 . S
C186 C184 1.383 . S
C186 C187 1.402 . S
C186 H201 0.951 . S
C187 C186 1.402 . S
C187 C188 1.375 . S
C187 C190 1.481 1_565 S
C188 C187 1.375 . S
C188 C189 1.367 . S
C188 H202 0.951 . S
C189 C185 1.383 . S
C189 C188 1.367 . S
C189 H203 0.950 . S
C190 C187 1.481 1_545 S
C190 C191 1.297 . S
C190 H204 0.950 . S
C191 C190 1.297 . S
C191 C192 1.479 . S
C191 H205 0.950 . S
C192 C191 1.479 . S
C192 C193 1.375 1_455 S
C192 C198 1.404 . S
C193 C192 1.375 1_655 S
C193 C194 1.369 . S
C193 H206 0.950 . S
C194 C193 1.369 . S
C194 C195 1.392 . S
C194 H207 0.951 . S
C195 C194 1.392 . S
C195 C197 1.384 1_655 S
H196 C198 0.949 . S
C197 C195 1.384 1_455 S
C197 C198 1.385 . S
C197 H199 0.950 . S
C198 C192 1.404 . S
C198 H196 0.949 . S
C198 C197 1.385 . S
H199 C197 0.950 . S
H200 C184 0.951 . S
H201 C186 0.951 . S
H202 C188 0.951 . S
H203 C189 0.950 . S
H204 C190 0.950 . S
H205 C191 0.950 . S
H206 C193 0.950 . S
H207 C194 0.951 . S
C208 C209 1.390 . S
C208 C210 1.384 . S
C208 H224 0.945 1_554 S
C209 C208 1.390 . S
C209 C213 1.383 1_565 S
C210 C208 1.384 . S
C210 C211 1.402 1_565 S
C210 H225 0.951 1_554 S
C211 C210 1.402 1_545 S
C211 C212 1.375 . S
C211 C214 1.481 . S
C212 C211 1.375 . S
C212 C213 1.367 . S
C212 H226 0.951 . S
C213 C209 1.383 1_545 S
C213 C212 1.367 . S
C213 H227 0.950 . S
C214 C211 1.481 . S
C214 C215 1.297 . S
C214 H228 0.950 . S
C215 C214 1.297 . S
C215 C216 1.479 . S
C215 H229 0.950 1_545 S
C216 C215 1.479 . S
C216 C217 1.375 . S
C216 C222 1.404 . S
C217 C216 1.375 . S
C217 C218 1.368 . S
C217 H230 0.950 1_544 S
C218 C217 1.368 . S
C218 C219 1.391 . S
C218 H231 0.952 1_554 S
C219 C218 1.391 . S
C219 C221 1.384 . S
H220 C222 0.949 . S
C221 C219 1.384 . S
C221 C222 1.385 . S
C221 H223 0.950 . S
C222 C216 1.404 . S
C222 H220 0.949 . S
C222 C221 1.385 . S
H223 C221 0.950 . S
H224 C208 0.945 1_556 S
H225 C210 0.951 1_556 S
H226 C212 0.951 . S
H227 C213 0.950 . S
H228 C214 0.950 . S
H229 C215 0.950 1_565 S
H230 C217 0.950 1_566 S
H231 C218 0.952 1_556 S
C232 C233 1.386 . S
C232 C234 1.383 . S
C232 H248 0.951 . S
C233 C232 1.386 . S
C233 C237 1.383 1_655 S
C234 C232 1.383 . S
C234 C235 1.402 1_655 S
C234 H249 0.951 . S
C235 C234 1.402 1_455 S
C235 C236 1.375 . S
C235 C238 1.481 . S
C236 C235 1.375 . S
C236 C237 1.367 . S
C236 H250 0.951 . S
C237 C233 1.383 1_455 S
C237 C236 1.367 . S
C237 H251 0.950 . S
C238 C235 1.481 . S
C238 C239 1.297 . S
C238 H252 0.950 . S
C239 C238 1.297 . S
C239 C240 1.479 . S
C239 H253 0.950 1_455 S
C240 C239 1.479 . S
C240 C241 1.375 . S
C240 C246 1.404 . S
C241 C240 1.375 . S
C241 C242 1.369 . S
C241 H254 0.950 1_455 S
C242 C241 1.369 . S
C242 C243 1.392 . S
C242 H255 0.951 . S
C243 C242 1.392 . S
C243 C245 1.384 . S
H244 C246 0.949 . S
C245 C243 1.384 . S
C245 C246 1.385 . S
C245 H247 0.950 . S
C246 C240 1.404 . S
C246 H244 0.949 . S
C246 C245 1.385 . S
H247 C245 0.950 . S
H248 C232 0.951 . S
H249 C234 0.951 . S
H250 C236 0.951 . S
H251 C237 0.950 . S
H252 C238 0.950 . S
H253 C239 0.950 1_655 S
H254 C241 0.950 1_655 S
H255 C242 0.951 . S
C256 C257 1.386 . S
C256 C258 1.383 . S
C256 H272 0.951 . S
C257 C256 1.386 . S
C257 C261 1.383 . S
C258 C256 1.383 . S
C258 C259 1.402 . S
C258 H273 0.951 . S
C259 C258 1.402 . S
C259 C260 1.375 . S
C259 C262 1.481 . S
C260 C259 1.375 . S
C260 C261 1.367 . S
C260 H274 0.951 . S
C261 C257 1.383 . S
C261 C260 1.367 . S
C261 H275 0.950 . S
C262 C259 1.481 . S
C262 C263 1.297 . S
C262 H276 0.950 . S
C263 C262 1.297 . S
C263 C264 1.479 . S
C263 H277 0.950 . S
C264 C263 1.479 . S
C264 C265 1.375 . S
C264 C270 1.404 . S
C265 C264 1.375 . S
C265 C266 1.369 . S
C265 H278 0.950 . S
C266 C265 1.369 . S
C266 C267 1.392 . S
C266 H279 0.951 . S
C267 C266 1.392 . S
C267 C269 1.384 . S
H268 C270 0.949 . S
C269 C267 1.384 . S
C269 C270 1.385 . S
C269 H271 0.950 . S
C270 C264 1.404 . S
C270 H268 0.949 . S
C270 C269 1.385 . S
H271 C269 0.950 . S
H272 C256 0.951 . S
H273 C258 0.951 . S
H274 C260 0.951 . S
H275 C261 0.950 . S
H276 C262 0.950 . S
H277 C263 0.950 . S
H278 C265 0.950 . S
H279 C266 0.951 . S
C280 C281 1.386 . S
C280 C282 1.383 . S
C280 H296 0.951 . S
C281 C280 1.386 . S
C281 C285 1.383 . S
C282 C280 1.383 . S
C282 C283 1.402 . S
C282 H297 0.951 . S
C283 C282 1.402 . S
C283 C284 1.375 . S
C283 C286 1.481 . S
C284 C283 1.375 . S
C284 C285 1.367 . S
C284 H298 0.951 . S
C285 C281 1.383 . S
C285 C284 1.367 . S
C285 H299 0.950 . S
C286 C283 1.481 . S
C286 C287 1.297 . S
C286 H300 0.950 . S
C287 C286 1.297 . S
C287 C288 1.479 . S
C287 H301 0.950 . S
C288 C287 1.479 . S
C288 C289 1.375 . S
C288 C294 1.404 . S
C289 C288 1.375 . S
C289 C290 1.369 . S
C289 H302 0.950 . S
C290 C289 1.369 . S
C290 C291 1.392 . S
C290 H303 0.951 . S
C291 C290 1.392 . S
C291 C293 1.384 . S
H292 C294 0.949 . S
C293 C291 1.384 . S
C293 C294 1.385 . S
C293 H295 0.950 . S
C294 C288 1.404 . S
C294 H292 0.949 . S
C294 C293 1.385 . S
H295 C293 0.950 . S
H296 C280 0.951 . S
H297 C282 0.951 . S
H298 C284 0.951 . S
H299 C285 0.950 . S
H300 C286 0.950 . S
H301 C287 0.950 . S
H302 C289 0.950 . S
H303 C290 0.951 . S
C304 C305 1.386 . S
C304 C306 1.383 . S
C304 H320 0.951 1_655 S
C305 C304 1.386 . S
C305 C309 1.383 . S
C306 C304 1.383 . S
C306 C307 1.402 . S
C306 H321 0.951 . S
C307 C306 1.402 . S
C307 C308 1.375 . S
C307 C310 1.481 . S
C308 C307 1.375 . S
C308 C309 1.367 . S
C308 H322 0.951 . S
C309 C305 1.383 . S
C309 C308 1.367 . S
C309 H323 0.950 . S
C310 C307 1.481 . S
C310 C311 1.297 . S
C310 H324 0.950 . S
C311 C310 1.297 . S
C311 C312 1.479 . S
C311 H325 0.950 . S
C312 C311 1.479 . S
C312 C313 1.375 . S
C312 C318 1.404 . S
C313 C312 1.375 . S
C313 C314 1.369 . S
C313 H326 0.950 . S
C314 C313 1.369 . S
C314 C315 1.392 . S
C314 H327 0.951 . S
C315 C314 1.392 . S
C315 C317 1.384 . S
H316 C318 0.949 . S
C317 C315 1.384 . S
C317 C318 1.385 . S
C317 H319 0.950 . S
C318 C312 1.404 . S
C318 H316 0.949 . S
C318 C317 1.385 . S
H319 C317 0.950 . S
H320 C304 0.951 1_455 S
H321 C306 0.951 . S
H322 C308 0.951 . S
H323 C309 0.950 . S
H324 C310 0.950 . S
H325 C311 0.950 . S
H326 C313 0.950 . S
H327 C314 0.951 . S
C328 C329 1.386 . S
C328 C330 1.383 . S
C328 H344 0.951 . S
C329 C328 1.386 . S
C329 C333 1.383 . S
C330 C328 1.383 . S
C330 C331 1.402 . S
C330 H345 0.951 . S
C331 C330 1.402 . S
C331 C332 1.375 . S
C331 C334 1.481 . S
C332 C331 1.375 . S
C332 C333 1.367 . S
C332 H346 0.951 . S
C333 C329 1.383 . S
C333 C332 1.367 . S
C333 H347 0.950 . S
C334 C331 1.481 . S
C334 C335 1.297 . S
C334 H348 0.950 . S
C335 C334 1.297 . S
C335 C336 1.479 . S
C335 H349 0.950 . S
C336 C335 1.479 . S
C336 C337 1.375 . S
C336 C342 1.404 . S
C337 C336 1.375 . S
C337 C338 1.369 . S
C337 H350 0.950 . S
C338 C337 1.369 . S
C338 C339 1.392 . S
C338 H351 0.951 1_565 S
C339 C338 1.392 . S
C339 C341 1.384 . S
H340 C342 0.949 . S
C341 C339 1.384 . S
C341 C342 1.385 . S
C341 H343 0.950 . S
C342 C336 1.404 . S
C342 H340 0.949 . S
C342 C341 1.385 . S
H343 C341 0.950 . S
H344 C328 0.951 . S
H345 C330 0.951 . S
H346 C332 0.951 . S
H347 C333 0.950 . S
H348 C334 0.950 . S
H349 C335 0.950 . S
H350 C337 0.950 . S
H351 C338 0.951 1_545 S
C352 C353 1.386 . S
C352 C354 1.383 . S
C352 H368 0.951 . S
C353 C352 1.386 . S
C353 C357 1.383 . S
C354 C352 1.383 . S
C354 C355 1.402 . S
C354 H369 0.951 . S
C355 C354 1.402 . S
C355 C356 1.375 . S
C355 C358 1.481 . S
C356 C355 1.375 . S
C356 C357 1.367 . S
C356 H370 0.951 . S
C357 C353 1.383 . S
C357 C356 1.367 . S
C357 H371 0.950 . S
C358 C355 1.481 . S
C358 C359 1.297 . S
C358 H372 0.950 . S
C359 C358 1.297 . S
C359 C360 1.479 . S
C359 H373 0.950 . S
C360 C359 1.479 . S
C360 C361 1.375 . S
C360 C366 1.404 . S
C361 C360 1.375 . S
C361 C362 1.369 . S
C361 H374 0.950 . S
C362 C361 1.369 . S
C362 C363 1.392 . S
C362 H375 0.951 . S
C363 C362 1.392 . S
C363 C365 1.384 . S
H364 C366 0.949 . S
C365 C363 1.384 . S
C365 C366 1.385 . S
C365 H367 0.950 . S
C366 C360 1.404 . S
C366 H364 0.949 . S
C366 C365 1.385 . S
H367 C365 0.950 . S
H368 C352 0.951 . S
H369 C354 0.951 . S
H370 C356 0.951 . S
H371 C357 0.950 . S
H372 C358 0.950 . S
H373 C359 0.950 . S
H374 C361 0.950 . S
H375 C362 0.951 . S
C376 C377 1.386 . S
C376 C378 1.383 . S
C376 H392 0.951 . S
C377 C376 1.386 . S
C377 C381 1.383 . S
C378 C376 1.383 . S
C378 C379 1.402 . S
C378 H393 0.951 . S
C379 C378 1.402 . S
C379 C380 1.375 . S
C379 C382 1.481 . S
C380 C379 1.375 . S
C380 C381 1.367 . S
C380 H394 0.951 . S
C381 C377 1.383 . S
C381 C380 1.367 . S
C381 H395 0.950 . S
C382 C379 1.481 . S
C382 C383 1.297 . S
C382 H396 0.950 . S
C383 C382 1.297 . S
C383 C384 1.479 . S
C383 H397 0.950 . S
C384 C383 1.479 . S
C384 C385 1.375 . S
C384 C390 1.404 . S
C385 C384 1.375 . S
C385 C386 1.369 . S
C385 H398 0.950 . S
C386 C385 1.369 . S
C386 C387 1.392 . S
C386 H399 0.951 . S
C387 C386 1.392 . S
C387 C389 1.384 . S
H388 C390 0.949 . S
C389 C387 1.384 . S
C389 C390 1.385 . S
C389 H391 0.950 . S
C390 C384 1.404 . S
C390 H388 0.949 . S
C390 C389 1.385 . S
H391 C389 0.950 . S
H392 C376 0.951 . S
H393 C378 0.951 . S
H394 C380 0.951 . S
H395 C381 0.950 . S
H396 C382 0.950 . S
H397 C383 0.950 . S
H398 C385 0.950 . S
H399 C386 0.951 . S
C400 C401 1.386 . S
C400 C402 1.383 . S
C400 H416 0.951 . S
C401 C400 1.386 . S
C401 C405 1.383 . S
C402 C400 1.383 . S
C402 C403 1.402 . S
C402 H417 0.951 . S
C403 C402 1.402 . S
C403 C404 1.375 . S
C403 C406 1.481 . S
C404 C403 1.375 . S
C404 C405 1.367 . S
C404 H418 0.951 . S
C405 C401 1.383 . S
C405 C404 1.367 . S
C405 H419 0.950 . S
C406 C403 1.481 . S
C406 C407 1.297 . S
C406 H420 0.950 . S
C407 C406 1.297 . S
C407 C408 1.479 . S
C407 H421 0.950 . S
C408 C407 1.479 . S
C408 C409 1.375 . S
C408 C414 1.404 . S
C409 C408 1.375 . S
C409 C410 1.369 . S
C409 H422 0.950 . S
C410 C409 1.369 . S
C410 C411 1.392 . S
C410 H423 0.951 . S
C411 C410 1.392 . S
C411 C413 1.384 . S
H412 C414 0.949 . S
C413 C411 1.384 . S
C413 C414 1.385 . S
C413 H415 0.950 . S
C414 C408 1.404 . S
C414 H412 0.949 . S
C414 C413 1.385 . S
H415 C413 0.950 . S
H416 C400 0.951 . S
H417 C402 0.951 . S
H418 C404 0.951 . S
H419 C405 0.950 . S
H420 C406 0.950 . S
H421 C407 0.950 . S
H422 C409 0.950 . S
H423 C410 0.951 . S
C424 C425 1.386 . S
C424 C426 1.383 . S
C424 H440 0.951 . S
C425 C424 1.386 . S
C425 C429 1.383 . S
C426 C424 1.383 . S
C426 C427 1.402 . S
C426 H441 0.951 . S
C427 C426 1.402 . S
C427 C428 1.375 . S
C427 C430 1.481 . S
C428 C427 1.375 . S
C428 C429 1.367 . S
C428 H442 0.951 . S
C429 C425 1.383 . S
C429 C428 1.367 . S
C429 H443 0.950 . S
C430 C427 1.481 . S
C430 C431 1.297 . S
C430 H444 0.950 . S
C431 C430 1.297 . S
C431 C432 1.479 . S
C431 H445 0.950 . S
C432 C431 1.479 . S
C432 C433 1.375 . S
C432 C438 1.404 . S
C433 C432 1.375 . S
C433 C434 1.369 . S
C433 H446 0.950 . S
C434 C433 1.369 . S
C434 C435 1.392 . S
C434 H447 0.951 . S
C435 C434 1.392 . S
C435 C437 1.384 . S
H436 C438 0.949 . S
C437 C435 1.384 . S
C437 C438 1.385 . S
C437 H439 0.950 . S
C438 C432 1.404 . S
C438 H436 0.949 . S
C438 C437 1.385 . S
H439 C437 0.950 . S
H440 C424 0.951 . S
H441 C426 0.951 . S
H442 C428 0.951 . S
H443 C429 0.950 . S
H444 C430 0.950 . S
H445 C431 0.950 . S
H446 C433 0.950 . S
H447 C434 0.951 . S
C161 C90 0.583 1_566 S
C171 C10 0.801 1_556 S
C185 C130 0.739 . S
C195 C50 0.579 1_655 S
C209 C99 0.863 . S
C219 C19 0.880 . S
C233 C59 0.863 . S
C243 C139 0.881 . S
C257 C51 4.613 . S
C267 C2 4.490 . S
C281 C42 4.508 . S
C291 C91 4.599 . S
C305 C131 4.613 1_655 S
C315 C82 4.506 . S
C329 C122 4.503 . S
C339 C11 4.599 1_565 S
C353 C96 1.016 . S
C363 C127 1.064 . S
C377 C7 1.086 . S
C387 C136 1.122 . S
C401 C47 1.085 . S
C411 C16 1.078 . S
C425 C87 1.058 . S
C435 C56 1.102 . S
