# Generated by pormake.
# Topology neb, (4)-cn, num edge types: 1
# Building blocks:
#     Node 0, Type 0, BuildingBlock: ICAMEG_clean_sbu_1, # of connection points: 4
#     Node 1, Type 0, BuildingBlock: ICAMEG_clean_sbu_1, # of connection points: 4
#     Node 2, Type 0, BuildingBlock: ICAMEG_clean_sbu_1, # of connection points: 4
#     Node 3, Type 0, BuildingBlock: ICAMEG_clean_sbu_1, # of connection points: 4
#     Node 4, Type 0, BuildingBlock: ICAMEG_clean_sbu_1, # of connection points: 4
#     Node 5, Type 0, BuildingBlock: ICAMEG_clean_sbu_1, # of connection points: 4
#     Node 6, Type 0, BuildingBlock: ICAMEG_clean_sbu_1, # of connection points: 4
#     Node 7, Type 0, BuildingBlock: ICAMEG_clean_sbu_1, # of connection points: 4
#     Node 8, Type 0, BuildingBlock: ICAMEG_clean_sbu_1, # of connection points: 4
#     Node 9, Type 0, BuildingBlock: ICAMEG_clean_sbu_1, # of connection points: 4
#     Node 10, Type 0, BuildingBlock: ICAMEG_clean_sbu_1, # of connection points: 4
#     Node 11, Type 0, BuildingBlock: ICAMEG_clean_sbu_1, # of connection points: 4
#     Node 12, Type 0, BuildingBlock: ICAMEG_clean_sbu_1, # of connection points: 4
#     Node 13, Type 0, BuildingBlock: ICAMEG_clean_sbu_1, # of connection points: 4
#     Node 14, Type 0, BuildingBlock: ICAMEG_clean_sbu_1, # of connection points: 4
#     Node 15, Type 0, BuildingBlock: ICAMEG_clean_sbu_1, # of connection points: 4
#     Edge 16, Type (0, 0), BuildingBlock: AJUNOK_clean_linker_0, # of connection points: 2
#     Edge 17, Type (0, 0), BuildingBlock: AJUNOK_clean_linker_0, # of connection points: 2
#     Edge 18, Type (0, 0), BuildingBlock: AJUNOK_clean_linker_0, # of connection points: 2
#     Edge 19, Type (0, 0), BuildingBlock: AJUNOK_clean_linker_0, # of connection points: 2
#     Edge 20, Type (0, 0), BuildingBlock: AJUNOK_clean_linker_0, # of connection points: 2
#     Edge 21, Type (0, 0), BuildingBlock: AJUNOK_clean_linker_0, # of connection points: 2
#     Edge 22, Type (0, 0), BuildingBlock: AJUNOK_clean_linker_0, # of connection points: 2
#     Edge 23, Type (0, 0), BuildingBlock: AJUNOK_clean_linker_0, # of connection points: 2
#     Edge 24, Type (0, 0), BuildingBlock: AJUNOK_clean_linker_0, # of connection points: 2
#     Edge 25, Type (0, 0), BuildingBlock: AJUNOK_clean_linker_0, # of connection points: 2
#     Edge 26, Type (0, 0), BuildingBlock: AJUNOK_clean_linker_0, # of connection points: 2
#     Edge 27, Type (0, 0), BuildingBlock: AJUNOK_clean_linker_0, # of connection points: 2
#     Edge 28, Type (0, 0), BuildingBlock: AJUNOK_clean_linker_0, # of connection points: 2
#     Edge 29, Type (0, 0), BuildingBlock: AJUNOK_clean_linker_0, # of connection points: 2
#     Edge 30, Type (0, 0), BuildingBlock: AJUNOK_clean_linker_0, # of connection points: 2
#     Edge 31, Type (0, 0), BuildingBlock: AJUNOK_clean_linker_0, # of connection points: 2
#     Edge 32, Type (0, 0), BuildingBlock: AJUNOK_clean_linker_0, # of connection points: 2
#     Edge 33, Type (0, 0), BuildingBlock: AJUNOK_clean_linker_0, # of connection points: 2
#     Edge 34, Type (0, 0), BuildingBlock: AJUNOK_clean_linker_0, # of connection points: 2
#     Edge 35, Type (0, 0), BuildingBlock: AJUNOK_clean_linker_0, # of connection points: 2
#     Edge 36, Type (0, 0), BuildingBlock: AJUNOK_clean_linker_0, # of connection points: 2
#     Edge 37, Type (0, 0), BuildingBlock: AJUNOK_clean_linker_0, # of connection points: 2
#     Edge 38, Type (0, 0), BuildingBlock: AJUNOK_clean_linker_0, # of connection points: 2
#     Edge 39, Type (0, 0), BuildingBlock: AJUNOK_clean_linker_0, # of connection points: 2
#     Edge 40, Type (0, 0), BuildingBlock: AJUNOK_clean_linker_0, # of connection points: 2
#     Edge 41, Type (0, 0), BuildingBlock: AJUNOK_clean_linker_0, # of connection points: 2
#     Edge 42, Type (0, 0), BuildingBlock: AJUNOK_clean_linker_0, # of connection points: 2
#     Edge 43, Type (0, 0), BuildingBlock: AJUNOK_clean_linker_0, # of connection points: 2
#     Edge 44, Type (0, 0), BuildingBlock: AJUNOK_clean_linker_0, # of connection points: 2
#     Edge 45, Type (0, 0), BuildingBlock: AJUNOK_clean_linker_0, # of connection points: 2
#     Edge 46, Type (0, 0), BuildingBlock: AJUNOK_clean_linker_0, # of connection points: 2
#     Edge 47, Type (0, 0), BuildingBlock: AJUNOK_clean_linker_0, # of connection points: 2
# Relax obj value: 0.005
# Max RMSD: 0.054
# Mean RMSD: 0.054
data_MOF--net-neb--node1-ICAMEG_clean_sbu_1--edge1-AJUNOK_clean_linker_0
_symmetry_space_group_name_H-M    P1
_symmetry_Int_Tables_number       1
_symmetry_cell_setting            triclinic
loop_
_symmetry_equiv_pos_as_xyz
'x, y, z'
_cell_length_a     30.883066
_cell_length_b     18.20681
_cell_length_c     62.844666
_cell_angle_alpha  90.222229
_cell_angle_beta   102.65078
_cell_angle_gamma 89.880131
loop_
_atom_site_label
_atom_site_type_symbol
_atom_site_fract_x
_atom_site_fract_y
_atom_site_fract_z
_atom_type_partial_charge
Co0 Co 0.16796 0.08627 0.42775 0.0
Co1 Co 0.08873 0.18232 0.44625 0.0
O2 O 0.11032 0.09011 0.43594 0.0
C3 C 0.10991 0.9745 0.39813 0.0
O4 O 0.07578 0.98595 0.407 0.0
C5 C 0.06982 0.07336 0.47827 0.0
O6 O 0.11132 0.05183 0.48135 0.0
O7 O 0.14271 0.18713 0.47022 0.0
O8 O 0.19343 0.16061 0.45079 0.0
H9 H 0.10395 0.44115 0.47504 0.0
H10 H 0.12636 0.95121 0.44192 0.0
O11 O 0.14582 1.01075 0.40435 0.0
H12 H 0.27654 0.96322 0.48872 0.0
H13 H 0.29537 0.96461 0.40306 0.0
H14 H 0.23258 0.19983 0.42131 0.0
H15 H 0.25111 0.05768 0.46087 0.0
H16 H 0.22454 0.96754 0.41505 0.0
O17 O 0.05593 0.12503 0.46493 0.0
H18 H 0.12949 0.32689 0.46054 0.0
H19 H 1.00233 0.23103 0.4555 0.0
H20 H 0.30381 0.19924 0.40967 0.0
H21 H 0.1506 0.85531 0.46929 0.0
H22 H 0.33563 0.08102 0.40041 0.0
H23 H 0.22625 0.86072 0.49302 0.0
O24 O 0.14801 0.16626 0.40622 0.0
H25 H 0.95791 0.05827 0.39787 0.0
H26 H 0.0426 0.28901 0.4128 0.0
H27 H 0.97798 0.28289 0.38188 0.0
H28 H 0.93498 0.16697 0.37429 0.0
H29 H 0.0232 0.06649 0.42846 0.0
H30 H 0.97546 0.34427 0.47001 0.0
H31 H 0.02641 0.4504 0.47987 0.0
O32 O 0.11991 0.24315 0.42766 0.0
C33 C 0.18267 0.18707 0.46777 0.0
C34 C 0.08139 0.39536 0.47075 0.0
C35 C 1.00931 0.34094 0.46796 0.0
N36 N 0.06741 0.27237 0.45709 0.0
C37 C 0.09564 0.33052 0.46248 0.0
C38 C 0.02474 0.2769 0.45978 0.0
C39 C 0.0379 0.40048 0.47348 0.0
C40 C 0.15959 0.95347 0.45168 0.0
N41 N 0.18757 1.00924 0.44917 0.0
C42 C 0.17304 0.89917 0.46739 0.0
C43 C 0.21542 0.90235 0.48075 0.0
C44 C 0.24363 0.9598 0.47834 0.0
C45 C 0.22901 1.01315 0.46247 0.0
C46 C 0.28188 0.01646 0.40709 0.0
C47 C 0.24635 0.14809 0.41747 0.0
C48 C 0.24169 0.01852 0.41382 0.0
N49 N 0.22451 0.0838 0.41901 0.0
C50 C 0.28665 0.14813 0.41082 0.0
C51 C 0.30446 0.08179 0.40561 0.0
C52 C 0.13531 0.22994 0.41082 0.0
C53 C 0.97635 0.10911 0.40102 0.0
C54 C 0.02433 0.23815 0.40953 0.0
C55 C 0.98763 0.23514 0.39203 0.0
C56 C 0.96353 0.17009 0.38778 0.0
N57 N 0.0368 0.17802 0.4224 0.0
C58 C 0.0133 0.11412 0.41835 0.0
Co59 Co 0.0814 0.09331 0.82454 0.0
Co60 Co 0.16997 0.1664 0.80816 0.0
O61 O 0.13958 0.0833 0.81758 0.0
C62 C 0.13352 1.0044 0.86108 0.0
O63 O 0.16406 0.05576 0.86468 0.0
C64 C 0.20067 0.10351 0.77009 0.0
O65 O 0.18104 0.15893 0.75851 0.0
O66 O 0.11735 0.18307 0.7837 0.0
O67 O 0.06282 0.17039 0.80178 0.0
H68 H 0.17945 0.42165 0.77945 0.0
H69 H 0.11512 0.94975 0.81243 0.0
O70 O 0.09793 1.01377 0.84675 0.0
H71 H 0.97054 0.98405 0.76151 0.0
H72 H 0.94405 0.99782 0.84596 0.0
H73 H 0.02365 0.21884 0.8304 0.0
H74 H 0.99925 0.07756 0.78947 0.0
H75 H 0.0163 0.98683 0.83557 0.0
O76 O 0.19719 0.09641 0.78984 0.0
H77 H 0.14278 0.31638 0.79265 0.0
H78 H 0.26213 0.19262 0.80187 0.0
H79 H 0.95131 0.23226 0.84055 0.0
H80 H 0.08745 0.85439 0.78487 0.0
H81 H 0.911 0.12122 0.84843 0.0
H82 H 0.01464 0.8712 0.75916 0.0
O83 O 0.10491 0.17191 0.84635 0.0
H84 H 0.28219 1.0091 0.8579 0.0
H85 H 0.22791 0.26177 0.84167 0.0
H86 H 0.29057 0.23968 0.87272 0.0
H87 H 0.31843 0.11255 0.88092 0.0
H88 H 0.21895 0.03375 0.8273 0.0
H89 H 0.30014 0.29667 0.78881 0.0
H90 H 0.25874 0.41225 0.7775 0.0
O91 O 0.14432 0.23661 0.82692 0.0
C92 C 0.07695 0.19143 0.78519 0.0
C93 C 0.19787 0.37163 0.78435 0.0
C94 C 0.26561 0.30151 0.78963 0.0
N95 N 0.2003 0.24852 0.79813 0.0
C96 C 0.17727 0.3118 0.79184 0.0
C97 C 0.24392 0.24281 0.79703 0.0
C98 C 0.24235 0.36631 0.78327 0.0
C99 C 0.08327 0.95727 0.80141 0.0
N100 N 0.0586 0.01879 0.80278 0.0
C101 C 0.06783 0.90317 0.78579 0.0
C102 C 0.027 0.91265 0.77136 0.0
C103 C 1.00224 0.97593 0.77267 0.0
C104 C 0.01871 0.02878 0.78853 0.0
C105 C 0.96127 0.04661 0.84255 0.0
C106 C 1.00622 0.17021 0.83368 0.0
C107 C 1.00227 0.04076 0.83672 0.0
N108 N 0.02409 0.10213 0.83226 0.0
C109 C 0.96531 0.17818 0.83948 0.0
C110 C 0.94273 0.11586 0.84391 0.0
C111 C 0.12443 0.23103 0.84268 0.0
C112 C 0.27058 0.06482 0.85442 0.0
C113 C 0.23949 0.20635 0.84521 0.0
C114 C 0.27517 0.19415 0.86278 0.0
C115 C 0.29081 0.12283 0.86736 0.0
N116 N 0.22005 0.1493 0.83244 0.0
C117 C 0.23498 0.07918 0.83698 0.0
Co118 Co 0.84449 0.93129 0.57394 0.0
Co119 Co 0.91832 0.82881 0.55355 0.0
O120 O 0.90097 0.92256 0.56477 0.0
C121 C 0.90692 0.04025 0.60244 0.0
O122 O 0.93984 0.02557 0.59297 0.0
C123 C 0.94168 0.93802 0.52243 0.0
O124 O 0.90139 0.96518 0.51952 0.0
O125 O 0.86334 0.8309 0.53009 0.0
O126 O 0.81524 0.85937 0.55082 0.0
H127 H 0.89092 0.57381 0.52263 0.0
H128 H 0.88932 0.06177 0.55883 0.0
O129 O 0.87038 1.00499 0.59734 0.0
H130 H 0.73602 0.06556 0.51539 0.0
H131 H 0.72317 0.06427 0.60072 0.0
H132 H 0.77813 0.82329 0.58203 0.0
H133 H 0.76043 0.9684 0.54244 0.0
H134 H 0.79258 0.05501 0.58757 0.0
O135 O 0.95262 0.88313 0.53492 0.0
H136 H 0.87086 0.69054 0.53796 0.0
H137 H 1.00208 0.76994 0.54358 0.0
H138 H 0.70835 0.83017 0.59488 0.0
H139 H 0.86612 0.16048 0.53236 0.0
H140 H 0.68038 0.95134 0.60432 0.0
H141 H 0.78889 0.1631 0.5103 0.0
O142 O 0.86306 0.84904 0.59498 0.0
H143 H 0.05565 0.93684 0.60126 0.0
H144 H 0.96165 0.71605 0.58577 0.0
H145 H 0.02813 0.71376 0.61577 0.0
H146 H 0.0758 0.82462 0.62362 0.0
H147 H 0.98855 0.93705 0.57158 0.0
H148 H 0.0235 0.65431 0.52811 0.0
H149 H 0.96775 0.55508 0.51757 0.0
O150 O 0.88583 0.77063 0.57215 0.0
C151 C 0.82387 0.83335 0.53329 0.0
C152 C 0.91555 0.61656 0.52719 0.0
C153 C 0.98993 0.66178 0.53023 0.0
N154 N 0.93529 0.73703 0.54176 0.0
C155 C 0.9044 0.68278 0.53593 0.0
C156 C 0.97756 0.72729 0.53892 0.0
C157 C 0.95864 0.60611 0.52434 0.0
C158 C 0.85545 0.06302 0.5499 0.0
N159 N 0.82604 1.01017 0.55294 0.0
C160 C 0.84257 0.1189 0.53464 0.0
C161 C 0.7993 0.12021 0.52221 0.0
C162 C 0.76965 0.06555 0.52506 0.0
C163 C 0.78373 1.01057 0.54047 0.0
C164 C 0.73493 1.01117 0.59659 0.0
C165 C 0.76611 0.87628 0.58599 0.0
C166 C 0.77428 1.00554 0.58918 0.0
N167 N 0.78919 0.9387 0.58378 0.0
C168 C 0.7266 0.87981 0.59331 0.0
C169 C 0.71094 0.9478 0.59861 0.0
C170 C 0.87206 0.78418 0.58945 0.0
C171 C 0.03517 0.88818 0.59799 0.0
C172 C 0.98197 0.76477 0.58919 0.0
C173 C 0.01969 0.76302 0.60615 0.0
C174 C 0.04643 0.82522 0.61054 0.0
N175 N 0.97115 0.82674 0.57693 0.0
C176 C 0.99716 0.88794 0.58118 0.0
Co177 Co 0.93873 0.93602 0.17543 0.0
Co178 Co 0.84989 0.87359 0.19383 0.0
O179 O 0.8816 0.953 0.18327 0.0
C180 C 0.88736 0.03036 0.13972 0.0
O181 O 0.85355 0.98523 0.13749 0.0
C182 C 0.82365 0.93937 0.23219 0.0
O183 O 0.84391 0.88344 0.24321 0.0
O184 O 0.90307 0.85591 0.21776 0.0
O185 O 0.95628 0.85947 0.19863 0.0
H186 H 0.83648 0.62269 0.22481 0.0
H187 H 0.91111 0.08446 0.18712 0.0
O188 O 0.92382 0.015 0.15282 0.0
H189 H 0.05619 0.03993 0.23663 0.0
H190 H 0.07679 1.01414 0.15126 0.0
H191 H 0.9911 0.80393 0.16925 0.0
H192 H 0.02276 0.94658 0.20951 0.0
H193 H 1.00645 0.03408 0.16292 0.0
O194 O 0.82538 0.94705 0.21223 0.0
H195 H 0.87441 0.72334 0.21015 0.0
H196 H 0.75793 0.85444 0.20122 0.0
H197 H 0.06142 0.78156 0.15781 0.0
H198 H 0.94356 0.17966 0.21384 0.0
H199 H 0.10478 0.88713 0.14871 0.0
H200 H 0.01664 0.15772 0.23885 0.0
O201 O 0.91141 0.8575 0.15423 0.0
H202 H 0.73552 0.03109 0.14543 0.0
H203 H 0.79159 0.77859 0.16054 0.0
H204 H 0.72781 0.80091 0.13001 0.0
H205 H 0.69916 0.92785 0.12236 0.0
H206 H 0.79967 1.00649 0.17562 0.0
H207 H 0.71869 0.75506 0.21574 0.0
H208 H 0.75804 0.6382 0.2277 0.0
O209 O 0.87291 0.79957 0.17544 0.0
C210 C 0.94262 0.8424 0.21573 0.0
C211 C 0.81895 0.67331 0.21963 0.0
C212 C 0.75285 0.74759 0.21454 0.0
N213 N 0.81845 0.79473 0.2048 0.0
C214 C 0.84027 0.73053 0.21131 0.0
C215 C 0.77522 0.80362 0.20629 0.0
C216 C 0.77495 0.68206 0.22125 0.0
C217 C 0.94305 0.07462 0.19784 0.0
N218 N 0.96523 1.01033 0.19654 0.0
C219 C 0.9612 0.12869 0.21299 0.0
C220 C 1.00219 0.11632 0.22702 0.0
C221 C 0.0244 0.05027 0.22578 0.0
C222 C 1.00526 0.99754 0.21039 0.0
C223 C 0.05821 0.96769 0.1552 0.0
C224 C 0.00986 0.8502 0.16543 0.0
C225 C 0.01828 0.97862 0.16176 0.0
N226 N 0.99475 0.92024 0.16687 0.0
C227 C 0.04963 0.83717 0.15892 0.0
C228 C 0.07392 0.89642 0.15379 0.0
C229 C 0.89143 0.80058 0.15917 0.0
C230 C 0.74757 0.97548 0.14866 0.0
C231 C 0.77959 0.8341 0.15723 0.0
C232 C 0.74333 0.84634 0.13996 0.0
C233 C 0.72725 0.91757 0.13569 0.0
N234 N 0.79921 0.89115 0.16997 0.0
C235 C 0.78375 0.96117 0.16581 0.0
Co236 Co 0.17981 0.59491 0.92939 0.0
Co237 Co 0.10138 0.69278 0.94771 0.0
O238 O 0.12183 0.60003 0.9372 0.0
C239 C 0.12066 0.48586 0.8993 0.0
O240 O 0.08656 0.49931 0.90803 0.0
C241 C 0.07755 0.58146 0.97788 0.0
O242 O 0.11819 0.55569 0.98099 0.0
O243 O 0.15444 0.69305 0.9721 0.0
O244 O 0.20563 0.66845 0.9528 0.0
H245 H 0.12183 0.94781 0.97922 0.0
H246 H 0.13703 0.4596 0.94266 0.0
O247 O 0.15725 0.52018 0.90573 0.0
H248 H 0.28631 0.46855 0.99045 0.0
H249 H 0.30688 0.47063 0.90513 0.0
H250 H 0.24574 0.70703 0.92357 0.0
H251 H 0.26194 0.5647 0.963 0.0
H252 H 0.23562 0.47508 0.9167 0.0
O253 O 0.06629 0.6365 0.96549 0.0
H254 H 0.14534 0.83315 0.96409 0.0
H255 H 0.01476 0.7478 0.95522 0.0
H256 H 0.3174 0.70492 0.91235 0.0
H257 H 0.16028 0.36196 0.96958 0.0
H258 H 0.3484 0.58609 0.903 0.0
H259 H 0.23547 0.36582 0.9938 0.0
O260 O 0.16082 0.67561 0.90799 0.0
H261 H 0.96966 0.57807 0.89734 0.0
H262 H 0.05866 0.80363 0.91467 0.0
H263 H 0.99507 0.80239 0.88319 0.0
H264 H 0.94991 0.68909 0.87438 0.0
H265 H 0.03401 0.58137 0.9285 0.0
H266 H 0.98982 0.86141 0.97036 0.0
H267 H 0.04355 0.96252 0.98248 0.0
O268 O 0.13476 0.75297 0.92999 0.0
C269 C 0.19456 0.69333 0.96991 0.0
C270 C 0.09809 0.90417 0.974 0.0
C271 C 0.02404 0.85563 0.96907 0.0
N272 N 0.0815 0.78354 0.95885 0.0
C273 C 0.11121 0.83906 0.9654 0.0
C274 C 0.03839 0.79124 0.9606 0.0
C275 C 0.05419 0.91236 0.97584 0.0
C276 C 0.17007 0.46123 0.95265 0.0
N277 N 0.19838 0.51706 0.95065 0.0
C278 C 0.18296 0.40593 0.9681 0.0
C279 C 0.22508 0.40824 0.98173 0.0
C280 C 0.25361 0.46582 0.97986 0.0
C281 C 0.23957 0.52013 0.96423 0.0
C282 C 0.29376 0.52273 0.9092 0.0
C283 C 0.25915 0.65504 0.91968 0.0
C284 C 0.25334 0.52565 0.9157 0.0
N285 N 0.23662 0.59125 0.92094 0.0
C286 C 0.29969 0.65421 0.91328 0.0
C287 C 0.31704 0.58753 0.90801 0.0
C288 C 0.14909 0.73957 0.91287 0.0
C289 C 0.98908 0.62777 0.901 0.0
C290 C 0.03948 0.75386 0.91086 0.0
C291 C 1.00334 0.75363 0.89306 0.0
C292 C 0.97802 0.69006 0.88812 0.0
N293 N 0.05025 0.69242 0.92337 0.0
C294 C 0.02552 0.62998 0.91865 0.0
Co295 Co 0.07583 0.58481 0.32243 0.0
Co296 Co 0.16315 0.66179 0.30596 0.0
O297 O 0.13356 0.5769 0.31494 0.0
C298 C 0.12765 0.49353 0.35872 0.0
O299 O 0.15791 0.54522 0.36315 0.0
C300 C 0.19345 0.60317 0.26721 0.0
O301 O 0.17373 0.65943 0.25606 0.0
O302 O 0.10994 0.68003 0.28186 0.0
O303 O 0.05651 0.6642 0.30045 0.0
H304 H 0.17113 0.92035 0.27941 0.0
H305 H 0.10946 0.44317 0.30895 0.0
O306 O 0.09288 0.5031 0.34387 0.0
H307 H 0.96432 0.48045 0.25877 0.0
H308 H 0.93909 0.48367 0.34316 0.0
H309 H 0.01939 0.70831 0.33132 0.0
H310 H 0.99318 0.57132 0.2875 0.0
H311 H 0.01068 0.47559 0.33199 0.0
O312 O 0.19016 0.59428 0.28692 0.0
H313 H 0.13508 0.81275 0.29175 0.0
H314 H 0.25484 0.69072 0.29944 0.0
H315 H 0.94783 0.71893 0.34238 0.0
H316 H 0.08162 0.35033 0.28062 0.0
H317 H 0.90708 0.60603 0.34833 0.0
H318 H 1.00854 0.36867 0.25526 0.0
O319 O 0.09972 0.66151 0.34483 0.0
H320 H 0.27689 0.50221 0.354 0.0
H321 H 0.22111 0.75508 0.34003 0.0
H322 H 0.28433 0.73139 0.37068 0.0
H323 H 0.31293 0.60417 0.37775 0.0
H324 H 0.21316 0.5284 0.32379 0.0
H325 H 0.29221 0.79706 0.28719 0.0
H326 H 0.2503 0.91298 0.27711 0.0
O327 O 0.13763 0.7294 0.32544 0.0
C328 C 0.06981 0.68788 0.2839 0.0
C329 C 0.18977 0.87018 0.28378 0.0
C330 C 0.25772 0.80102 0.28817 0.0
N331 N 0.19284 0.74561 0.29642 0.0
C332 C 0.16951 0.80903 0.29077 0.0
C333 C 0.23639 0.74101 0.29511 0.0
C334 C 0.23418 0.86601 0.2825 0.0
C335 C 0.07748 0.45131 0.29809 0.0
N336 N 0.05276 0.51226 0.30008 0.0
C337 C 0.06195 0.39865 0.28203 0.0
C338 C 0.02097 0.409 0.2678 0.0
C339 C 0.99615 0.47168 0.26976 0.0
C340 C 0.01271 0.52309 0.28604 0.0
C341 C 0.95643 0.53327 0.34053 0.0
C342 C 1.00182 0.65893 0.33379 0.0
C343 C 0.99701 0.52905 0.33422 0.0
N344 N 0.01895 0.59147 0.33071 0.0
C345 C 0.96132 0.66528 0.34009 0.0
C346 C 0.9385 0.60193 0.34344 0.0
C347 C 0.11837 0.72173 0.34135 0.0
C348 C 0.26494 0.55797 0.35101 0.0
C349 C 0.23304 0.69962 0.34307 0.0
C350 C 0.26902 0.68651 0.36042 0.0
C351 C 0.28507 0.61515 0.36436 0.0
N352 N 0.21371 0.64341 0.32989 0.0
C353 C 0.22904 0.57321 0.33382 0.0
Co354 Co 0.85356 0.44064 0.06987 0.0
Co355 Co 0.92995 0.33314 0.05274 0.0
O356 O 0.91146 0.4275 0.0627 0.0
C357 C 0.87709 0.52074 0.11189 0.0
O358 O 0.85824 0.46624 0.12009 0.0
C359 C 0.94956 0.43865 0.02043 0.0
O360 O 0.90832 0.46108 0.01778 0.0
O361 O 0.87554 0.33016 0.02899 0.0
O362 O 0.82484 0.36692 0.04734 0.0
H363 H 0.90722 0.07284 0.02573 0.0
H364 H 0.90265 0.5694 0.05862 0.0
O365 O 0.88091 0.51694 0.09213 0.0
H366 H 0.75941 0.57091 0.00531 0.0
H367 H 0.72857 0.58822 0.08868 0.0
H368 H 0.78358 0.33958 0.07765 0.0
H369 H 0.77576 0.4757 0.03373 0.0
H370 H 0.80084 0.57108 0.07869 0.0
O371 O 0.96338 0.3863 0.03353 0.0
H372 H 0.88528 0.19056 0.03982 0.0
H373 H 0.01421 0.27676 0.04286 0.0
H374 H 0.71106 0.35426 0.08754 0.0
H375 H 0.88741 0.6663 0.03067 0.0
H376 H 0.68312 0.47929 0.09315 0.0
H377 H 0.8154 0.66728 0.00369 0.0
O378 O 0.86828 0.35957 0.09175 0.0
H379 H 0.06351 0.45224 0.10043 0.0
H380 H 0.97477 0.22539 0.0861 0.0
H381 H 0.04035 0.22893 0.11659 0.0
H382 H 0.08534 0.3429 0.12387 0.0
H383 H 0.99734 0.44656 0.07023 0.0
H384 H 0.0375 0.16 0.02873 0.0
H385 H 0.98384 0.05699 0.02008 0.0
O386 O 0.89783 0.27777 0.07203 0.0
C387 C 0.83539 0.33571 0.03096 0.0
C388 C 0.93096 0.11723 0.0295 0.0
C389 C 1.00405 0.16621 0.03114 0.0
N390 N 0.94848 0.24038 0.04226 0.0
C391 C 0.91876 0.18399 0.03754 0.0
C392 C 0.99064 0.23225 0.0391 0.0
C393 C 0.97393 0.10841 0.02631 0.0
C394 C 0.87096 0.57015 0.04718 0.0
N395 N 0.83997 0.5174 0.04801 0.0
C396 C 0.86263 0.62489 0.03129 0.0
C397 C 0.82227 0.62529 0.01612 0.0
C398 C 0.79086 0.5712 0.01701 0.0
C399 C 0.80036 0.5173 0.03312 0.0
C400 C 0.74037 0.53345 0.08627 0.0
C401 C 0.77164 0.39419 0.08003 0.0
C402 C 0.78127 0.52339 0.08062 0.0
N403 N 0.79643 0.45436 0.07756 0.0
C404 C 0.73055 0.40215 0.08564 0.0
C405 C 0.71489 0.47232 0.08878 0.0
C406 C 0.8806 0.29451 0.08807 0.0
C407 C 0.04425 0.40219 0.09737 0.0
C408 C 0.9941 0.27527 0.08918 0.0
C409 C 0.03126 0.27688 0.10645 0.0
C410 C 0.05647 0.34084 0.11053 0.0
N411 N 0.98238 0.33562 0.07631 0.0
C412 C 1.00684 0.3986 0.08026 0.0
Co413 Co 0.93075 0.43622 0.67815 0.0
Co414 Co 0.84907 0.33878 0.6939 0.0
O415 O 0.87214 0.43105 0.68517 0.0
C416 C 0.87515 0.52026 0.641 0.0
O417 O 0.84821 0.464 0.63614 0.0
C418 C 0.83042 0.44301 0.72757 0.0
O419 O 0.87208 0.46387 0.73127 0.0
O420 O 0.90285 0.32862 0.71805 0.0
O421 O 0.95532 0.35875 0.70008 0.0
H422 H 0.86033 0.07518 0.71793 0.0
H423 H 0.8876 0.57078 0.69045 0.0
O424 O 0.9089 0.51625 0.6567 0.0
H425 H 0.03051 0.55326 0.7437 0.0
H426 H 0.06044 0.56788 0.65909 0.0
H427 H 0.99624 0.3266 0.66967 0.0
H428 H 0.00998 0.46114 0.71441 0.0
H429 H 0.98823 0.55952 0.6696 0.0
O430 O 0.81657 0.39362 0.71337 0.0
H431 H 0.88776 0.19149 0.70585 0.0
H432 H 0.76165 0.29062 0.70198 0.0
H433 H 0.06858 0.33244 0.65924 0.0
H434 H 0.907 0.66455 0.71937 0.0
H435 H 0.10122 0.45377 0.65392 0.0
H436 H 0.97885 0.65602 0.7463 0.0
O437 O 0.91326 0.35776 0.65539 0.0
H438 H 0.72296 0.47725 0.64684 0.0
H439 H 0.79955 0.23836 0.65925 0.0
H440 H 0.73507 0.25197 0.62852 0.0
H441 H 0.69616 0.3721 0.62219 0.0
H442 H 0.7879 0.46131 0.67726 0.0
H443 H 0.73295 0.17551 0.71416 0.0
H444 H 0.78238 0.06667 0.72216 0.0
O445 O 0.87939 0.28094 0.67426 0.0
C446 C 0.94337 0.32997 0.71635 0.0
C447 C 0.83842 0.12217 0.71444 0.0
C448 C 0.76696 0.17851 0.71235 0.0
N449 N 0.82629 0.24768 0.70308 0.0
C450 C 0.85375 0.18815 0.70755 0.0
C451 C 0.78344 0.24361 0.70551 0.0
C452 C 0.7947 0.11745 0.71683 0.0
C453 C 0.91911 0.56701 0.70198 0.0
N454 N 0.94766 0.51057 0.70068 0.0
C455 C 0.92984 0.62015 0.71837 0.0
C456 C 0.97013 0.61527 0.7335 0.0
C457 C 0.9991 0.55761 0.73206 0.0
C458 C 0.98724 0.50543 0.71547 0.0
C459 C 0.04665 0.51469 0.66145 0.0
C460 C 0.01028 0.37962 0.66748 0.0
C461 C 1.00575 0.50958 0.66738 0.0
N462 N 0.98822 0.44259 0.6705 0.0
C463 C 0.05124 0.38257 0.66154 0.0
C464 C 0.06951 0.45065 0.65854 0.0
C465 C 0.89816 0.29418 0.6585 0.0
C466 C 0.73957 0.42459 0.64945 0.0
C467 C 0.78304 0.29088 0.65653 0.0
C468 C 0.74641 0.29822 0.63914 0.0
C469 C 0.72459 0.36561 0.63561 0.0
N470 N 0.79748 0.34892 0.67007 0.0
C471 C 0.77629 0.41519 0.66668 0.0
Co472 Co 0.66741 0.09932 0.92761 0.0
Co473 Co 0.59451 0.21168 0.94593 0.0
O474 O 0.61049 0.11634 0.93554 0.0
C475 C 0.64017 0.02332 0.88514 0.0
O476 O 0.65894 0.07775 0.87689 0.0
C477 C 0.57199 0.10632 0.97806 0.0
O478 O 0.61209 0.07871 0.98053 0.0
O479 O 0.65013 0.21212 0.96926 0.0
O480 O 0.69865 0.16984 0.95035 0.0
H481 H 0.62414 0.47085 0.97291 0.0
H482 H 0.61489 0.97443 0.93861 0.0
O483 O 0.63741 0.02616 0.90506 0.0
H484 H 0.75986 0.95764 0.99025 0.0
H485 H 0.78623 0.94258 0.90639 0.0
H486 H 0.73936 0.19499 0.91914 0.0
H487 H 0.74514 0.05599 0.96279 0.0
H488 H 0.71583 0.96507 0.91775 0.0
O489 O 0.56078 0.16114 0.96557 0.0
H490 H 0.64285 0.35104 0.95882 0.0
H491 H 0.51202 0.27446 0.95626 0.0
H492 H 0.80995 0.175 0.90777 0.0
H493 H 0.62843 0.87432 0.96557 0.0
H494 H 0.83386 0.04801 0.90133 0.0
H495 H 0.70134 0.86556 0.99169 0.0
O496 O 0.65491 0.18254 0.9063 0.0
H497 H 0.45677 0.09831 0.90014 0.0
H498 H 0.54926 0.32122 0.91312 0.0
H499 H 0.48182 0.32051 0.88367 0.0
H500 H 0.43486 0.20854 0.87711 0.0
H501 H 0.52488 0.1011 0.92921 0.0
H502 H 0.49197 0.39319 0.9705 0.0
H503 H 0.54822 0.49253 0.97886 0.0
O504 O 0.62638 0.26481 0.92609 0.0
C505 C 0.68985 0.20296 0.96683 0.0
C506 C 0.59932 0.42804 0.9693 0.0
C507 C 0.52517 0.38441 0.96799 0.0
N508 N 0.57855 0.30577 0.95669 0.0
C509 C 0.6097 0.36009 0.96129 0.0
C510 C 0.53677 0.31715 0.96001 0.0
C511 C 0.55673 0.44014 0.97265 0.0
C512 C 0.6469 0.97046 0.94972 0.0
N513 N 0.67934 0.02065 0.94893 0.0
C514 C 0.65428 0.91388 0.96504 0.0
C515 C 0.69516 0.90908 0.97972 0.0
C516 C 0.72799 0.96075 0.97893 0.0
C517 C 0.7194 0.01655 0.96338 0.0
C518 C 0.77624 0.99816 0.90919 0.0
C519 C 0.74948 0.13956 0.91637 0.0
C520 C 0.73642 1.01126 0.91565 0.0
N521 N 0.72351 0.08135 0.91921 0.0
C522 C 0.78953 0.12858 0.90994 0.0
C523 C 0.80292 0.05733 0.90634 0.0
C524 C 0.64387 0.24833 0.91007 0.0
C525 C 0.47692 0.14745 0.90286 0.0
C526 C 0.5293 0.2721 0.91024 0.0
C527 C 0.491 0.27211 0.8936 0.0
C528 C 0.46466 0.2093 0.88993 0.0
N529 N 0.54102 0.21134 0.92292 0.0
C530 C 0.51548 0.14943 0.91933 0.0
Co531 Co 0.58508 0.0925 0.32325 0.0
Co532 Co 0.6675 0.18161 0.30524 0.0
O533 O 0.64292 0.0932 0.31551 0.0
C534 C 0.64319 0.9854 0.35393 0.0
O535 O 0.67701 0.99559 0.34482 0.0
C536 C 0.69859 0.12187 0.26675 0.0
O537 O 0.67731 0.17547 0.25491 0.0
O538 O 0.61341 0.1905 0.2813 0.0
O539 O 0.56058 0.16413 0.29947 0.0
H540 H 0.66114 0.43874 0.27596 0.0
H541 H 0.62743 0.95526 0.31036 0.0
O542 O 0.60683 0.02026 0.34744 0.0
H543 H 0.47702 0.96116 0.26367 0.0
H544 H 0.45688 0.97751 0.34855 0.0
H545 H 0.52056 0.20847 0.32846 0.0
H546 H 0.50215 0.05962 0.29039 0.0
H547 H 0.52792 0.97702 0.33673 0.0
O548 O 0.69679 0.11606 0.28674 0.0
H549 H 0.63151 0.32784 0.29009 0.0
H550 H 0.75635 0.22154 0.297 0.0
H551 H 0.44921 0.21136 0.33995 0.0
H552 H 0.6035 0.85537 0.28416 0.0
H553 H 0.41691 0.09526 0.35013 0.0
H554 H 0.52771 0.85756 0.2605 0.0
O555 O 0.60441 0.17508 0.34396 0.0
H556 H 0.79529 0.04734 0.3528 0.0
H557 H 0.71839 0.28535 0.33845 0.0
H558 H 0.78395 0.27507 0.3687 0.0
H559 H 0.82313 0.15544 0.37598 0.0
H560 H 0.72913 0.05998 0.32297 0.0
H561 H 0.78736 0.33135 0.28296 0.0
H562 H 0.73961 0.44096 0.27232 0.0
O563 O 0.63912 0.24716 0.32414 0.0
C564 C 0.57292 0.19102 0.28303 0.0
C565 C 0.68229 0.39134 0.28055 0.0
C566 C 0.75312 0.33107 0.28448 0.0
N567 N 0.69215 0.2683 0.29439 0.0
C568 C 0.66569 0.32838 0.28857 0.0
C569 C 0.73539 0.26907 0.29243 0.0
C570 C 0.72632 0.39255 0.27851 0.0
C571 C 0.59419 0.95644 0.30059 0.0
N572 N 0.56592 1.01269 0.30255 0.0
C573 C 0.5809 0.89974 0.28555 0.0
C574 C 0.53843 0.90109 0.27225 0.0
C575 C 0.51 0.95914 0.27402 0.0
C576 C 0.52446 1.01485 0.28924 0.0
C577 C 0.47054 0.02843 0.3441 0.0
C578 C 0.50654 0.15763 0.33266 0.0
C579 C 0.51082 0.02854 0.33744 0.0
N580 N 0.5282 0.09262 0.33169 0.0
C581 C 0.4662 0.15964 0.33924 0.0
C582 C 0.44813 0.09451 0.34497 0.0
C583 C 0.62031 0.23708 0.34011 0.0
C584 C 0.77853 0.09978 0.34981 0.0
C585 C 0.73472 0.23284 0.34169 0.0
C586 C 0.77209 0.22748 0.35877 0.0
C587 C 0.79409 0.1604 0.36282 0.0
N588 N 0.7196 0.17314 0.32897 0.0
C589 C 0.74106 0.10728 0.33288 0.0
Co590 Co 0.35046 0.9465 0.07328 0.0
Co591 Co 0.42806 0.85202 0.05315 0.0
O592 O 0.40695 0.94382 0.06395 0.0
C593 C 0.40902 0.05969 0.10221 0.0
O594 O 0.44284 0.04883 0.09306 0.0
C595 C 0.44472 0.96338 0.02121 0.0
O596 O 0.40353 0.98566 0.01901 0.0
O597 O 0.37261 0.84617 0.02996 0.0
O598 O 0.324 0.87119 0.05068 0.0
H599 H 0.41236 0.59258 0.02487 0.0
H600 H 0.38959 0.08259 0.05842 0.0
O601 O 0.37336 0.02268 0.09628 0.0
H602 H 0.2378 0.0672 0.01345 0.0
H603 H 0.22441 0.06681 0.09949 0.0
H604 H 0.28927 0.83168 0.08269 0.0
H605 H 0.26549 0.97335 0.04118 0.0
H606 H 0.29349 0.06472 0.08592 0.0
O607 O 0.45891 0.90986 0.03377 0.0
H608 H 0.38731 0.70695 0.03952 0.0
H609 H 0.51329 0.80447 0.0423 0.0
H610 H 0.21992 0.83132 0.09602 0.0
H611 H 0.3631 0.17805 0.03117 0.0
H612 H 0.18698 0.94952 0.10451 0.0
H613 H 0.28663 0.1709 0.00835 0.0
O614 O 0.3725 0.86699 0.09471 0.0
H615 H 0.56081 0.97822 0.09927 0.0
H616 H 0.47726 0.74595 0.08593 0.0
H617 H 0.54418 0.7528 0.1156 0.0
H618 H 0.58658 0.86951 0.12238 0.0
H619 H 0.49341 0.96918 0.0699 0.0
H620 H 0.5396 0.69121 0.02754 0.0
H621 H 0.48903 0.58415 0.01878 0.0
O622 O 0.39901 0.79085 0.0725 0.0
C623 C 0.33331 0.84465 0.03337 0.0
C624 C 0.43475 0.63879 0.02867 0.0
C625 C 0.50614 0.69418 0.03015 0.0
N626 N 0.44885 0.76229 0.04188 0.0
C627 C 0.42078 0.70371 0.03702 0.0
C628 C 0.49101 0.75825 0.03845 0.0
C629 C 0.47775 0.63412 0.02524 0.0
C630 C 0.35605 0.07955 0.04904 0.0
N631 N 0.32891 0.02301 0.05195 0.0
C632 C 0.3413 0.13362 0.0334 0.0
C633 C 0.29847 0.12946 0.02056 0.0
C634 C 0.27108 0.07132 0.0234 0.0
C635 C 0.287 0.01823 0.03917 0.0
C636 C 0.23831 1.01496 0.09575 0.0
C637 C 0.27504 0.88338 0.08621 0.0
C638 C 0.27746 1.0134 0.08807 0.0
N639 N 0.29514 0.94813 0.08321 0.0
C640 C 0.23579 0.88282 0.09381 0.0
C641 C 0.21735 0.94914 0.09858 0.0
C642 C 0.38473 0.80348 0.0897 0.0
C643 C 0.54265 0.92704 0.09647 0.0
C644 C 0.49529 0.79713 0.08886 0.0
C645 C 0.53328 0.80058 0.10565 0.0
C646 C 0.55707 0.86605 0.10944 0.0
N647 N 0.48136 0.85721 0.07619 0.0
C648 C 0.50449 0.92157 0.07983 0.0
Co649 Co 0.43534 0.92665 0.67502 0.0
Co650 Co 0.34985 0.85907 0.69508 0.0
O651 O 0.37913 0.94052 0.684 0.0
C652 C 0.38112 0.02075 0.64002 0.0
O653 O 0.34791 0.97443 0.63789 0.0
C654 C 0.32538 0.92328 0.73425 0.0
O655 O 0.34679 0.86802 0.74515 0.0
O656 O 0.40466 0.84276 0.71825 0.0
O657 O 0.45531 0.84958 0.69771 0.0
H658 H 0.34249 0.60622 0.72589 0.0
H659 H 0.40669 0.07282 0.68799 0.0
O660 O 0.41803 1.00632 0.65285 0.0
H661 H 0.55495 0.03206 0.73497 0.0
H662 H 0.56947 1.01233 0.64866 0.0
H663 H 0.48863 0.79726 0.6674 0.0
H664 H 0.52115 0.9391 0.70781 0.0
H665 H 0.50026 0.02843 0.66163 0.0
O666 O 0.32571 0.93072 0.71411 0.0
H667 H 0.37761 0.7093 0.71078 0.0
H668 H 0.2596 0.83551 0.70413 0.0
H669 H 0.55789 0.77875 0.65466 0.0
H670 H 0.43947 0.16767 0.71477 0.0
H671 H 0.59882 0.88677 0.64518 0.0
H672 H 0.51414 0.14762 0.7385 0.0
O673 O 0.40774 0.84808 0.65391 0.0
H674 H 0.23088 1.01301 0.64835 0.0
H675 H 0.29112 0.76253 0.66244 0.0
H676 H 0.22553 0.78299 0.63272 0.0
H677 H 0.19481 0.9089 0.62558 0.0
H678 H 0.29683 0.9903 0.67771 0.0
H679 H 0.22316 0.73366 0.71913 0.0
H680 H 0.2647 0.61802 0.73017 0.0
O681 O 0.37257 0.787 0.67599 0.0
C682 C 0.4437 0.83089 0.7152 0.0
C683 C 0.32402 0.6563 0.72112 0.0
C684 C 0.25705 0.72781 0.71732 0.0
N685 N 0.32072 0.77837 0.70653 0.0
C686 C 0.34374 0.71488 0.71254 0.0
C687 C 0.27785 0.78525 0.70881 0.0
C688 C 0.28038 0.66296 0.72352 0.0
C689 C 0.43931 0.06383 0.69815 0.0
N690 N 0.46217 1.0008 0.69612 0.0
C691 C 0.45766 0.11768 0.71334 0.0
C692 C 0.49954 0.10638 0.72665 0.0
C693 C 0.52245 0.04159 0.72468 0.0
C694 C 0.5031 0.98906 0.70928 0.0
C695 C 0.55196 0.96482 0.65277 0.0
C696 C 0.50632 0.8446 0.66342 0.0
C697 C 0.51266 0.97358 0.66006 0.0
N698 N 0.49047 0.91385 0.66538 0.0
C699 C 0.5455 0.83375 0.65616 0.0
C700 C 0.56843 0.89437 0.65082 0.0
C701 C 0.3896 0.78974 0.65924 0.0
C702 C 0.24383 0.95784 0.65136 0.0
C703 C 0.27817 0.8176 0.65936 0.0
C704 C 0.2409 0.82878 0.64255 0.0
C705 C 0.22366 0.89943 0.63856 0.0
N706 N 0.29764 0.87511 0.67194 0.0
C707 C 0.28104 0.94458 0.66805 0.0
Co708 Co 0.67079 0.5945 0.42796 0.0
Co709 Co 0.58832 0.68297 0.44668 0.0
O710 O 0.61278 0.59425 0.43594 0.0
C711 C 0.6127 0.49027 0.3963 0.0
O712 O 0.57773 0.50731 0.40393 0.0
C713 C 0.57317 0.56785 0.47796 0.0
O714 O 0.6145 0.5464 0.48009 0.0
O715 O 0.64264 0.69219 0.4704 0.0
O716 O 0.69488 0.66635 0.45179 0.0
H717 H 0.59614 0.94 0.4767 0.0
H718 H 0.63031 0.45404 0.43877 0.0
O719 O 0.6499 0.52159 0.40363 0.0
H720 H 0.7772 0.46672 0.48878 0.0
H721 H 0.80116 0.481 0.4038 0.0
H722 H 0.73457 0.71151 0.42304 0.0
H723 H 0.75243 0.56499 0.46204 0.0
H724 H 0.72931 0.47972 0.41484 0.0
O725 O 0.55864 0.62195 0.46573 0.0
H726 H 0.62493 0.82919 0.46183 0.0
H727 H 0.5005 0.72319 0.45609 0.0
H728 H 0.80663 0.71516 0.41226 0.0
H729 H 0.65399 0.35429 0.46499 0.0
H730 H 0.84041 0.59931 0.40254 0.0
H731 H 0.72793 0.36013 0.49032 0.0
O732 O 0.65115 0.67718 0.4074 0.0
H733 H 0.45954 0.54682 0.40063 0.0
H734 H 0.53605 0.78523 0.41349 0.0
H735 H 0.46979 0.77333 0.3837 0.0
H736 H 0.43085 0.65339 0.37715 0.0
H737 H 0.52642 0.56105 0.43002 0.0
H738 H 0.47038 0.83285 0.47093 0.0
H739 H 0.51828 0.94238 0.4813 0.0
O740 O 0.61614 0.74757 0.42763 0.0
C741 C 0.6829 0.69297 0.46841 0.0
C742 C 0.57488 0.89273 0.47217 0.0
C743 C 0.50431 0.83258 0.46894 0.0
N744 N 0.56433 0.77001 0.45787 0.0
C745 C 0.59098 0.82983 0.46371 0.0
C746 C 0.52157 0.77061 0.46055 0.0
C747 C 0.53121 0.89401 0.47476 0.0
C748 C 0.66284 0.45661 0.44933 0.0
N749 N 0.69022 0.51484 0.44842 0.0
C750 C 0.67595 0.40008 0.46433 0.0
C751 C 0.71738 0.40348 0.47858 0.0
C752 C 0.74502 0.46325 0.47773 0.0
C753 C 0.73076 0.5188 0.46252 0.0
C754 C 0.78681 0.53184 0.40803 0.0
C755 C 0.74913 0.66079 0.41895 0.0
C756 C 0.74606 0.5315 0.41424 0.0
N757 N 0.72784 0.59546 0.41972 0.0
C758 C 0.78992 0.66323 0.41281 0.0
C759 C 0.80883 0.59823 0.40733 0.0
C760 C 0.63498 0.73878 0.41164 0.0
C761 C 0.47626 0.59933 0.40328 0.0
C762 C 0.51989 0.73267 0.41054 0.0
C763 C 0.48208 0.72634 0.39374 0.0
C764 C 0.46021 0.6591 0.39009 0.0
N765 N 0.53562 0.67374 0.42334 0.0
C766 C 0.51415 0.60777 0.41993 0.0
Co767 Co 0.60157 0.60073 0.82317 0.0
Co768 Co 0.67655 0.69257 0.80097 0.0
O769 O 0.65821 0.60296 0.81385 0.0
C770 C 0.66216 0.49447 0.85343 0.0
O771 O 0.69531 0.50443 0.84378 0.0
C772 C 0.70046 0.57568 0.7716 0.0
O773 O 0.66026 0.54833 0.76867 0.0
O774 O 0.62149 0.68737 0.77753 0.0
O775 O 0.57333 0.66863 0.79888 0.0
H776 H 0.65073 0.94021 0.76528 0.0
H777 H 0.64453 0.464 0.81017 0.0
O778 O 0.62628 0.53127 0.84779 0.0
H779 H 0.49093 0.45981 0.76708 0.0
H780 H 0.47857 0.48356 0.85225 0.0
H781 H 0.53715 0.71536 0.82962 0.0
H782 H 0.51681 0.56159 0.79247 0.0
H783 H 0.54778 0.48443 0.83878 0.0
O784 O 0.71076 0.63246 0.78344 0.0
H785 H 0.63 0.82881 0.78281 0.0
H786 H 0.76088 0.74511 0.7902 0.0
H787 H 0.46764 0.71684 0.84281 0.0
H788 H 0.61985 0.36076 0.78537 0.0
H789 H 0.43784 0.60032 0.85421 0.0
H790 H 0.54246 0.3579 0.7635 0.0
O791 O 0.62136 0.68685 0.84275 0.0
H792 H 0.81252 0.58904 0.85084 0.0
H793 H 0.7212 0.81113 0.83094 0.0
H794 H 0.78769 0.81729 0.86087 0.0
H795 H 0.83403 0.70577 0.87093 0.0
H796 H 0.74542 0.5851 0.82118 0.0
H797 H 0.78299 0.85541 0.77262 0.0
H798 H 0.72774 0.95411 0.76007 0.0
O799 O 0.64471 0.75689 0.81844 0.0
C800 C 0.58205 0.68866 0.78082 0.0
C801 C 0.67513 0.89764 0.7707 0.0
C802 C 0.74932 0.85001 0.77479 0.0
N803 N 0.69418 0.78036 0.78757 0.0
C804 C 0.6636 0.83439 0.78067 0.0
C805 C 0.73657 0.78748 0.78467 0.0
C806 C 0.71833 0.90538 0.76777 0.0
C807 C 0.61058 0.46283 0.80132 0.0
N808 N 0.5819 0.51813 0.80356 0.0
C809 C 0.59686 0.4043 0.78701 0.0
C810 C 0.55351 0.40283 0.77469 0.0
C811 C 0.52461 0.45994 0.77669 0.0
C812 C 0.53951 0.51752 0.79117 0.0
C813 C 0.49112 0.53466 0.84725 0.0
C814 C 0.52432 0.66435 0.83444 0.0
C815 C 0.53035 0.53555 0.83964 0.0
N816 N 0.54626 0.59981 0.83314 0.0
C817 C 0.48497 0.66556 0.84194 0.0
C818 C 0.46829 0.60018 0.84835 0.0
C819 C 0.63167 0.74942 0.8362 0.0
C820 C 0.79262 0.63801 0.8466 0.0
C821 C 0.74091 0.76215 0.83534 0.0
C822 C 0.77866 0.76608 0.85225 0.0
C823 C 0.80465 0.70351 0.85788 0.0
N824 N 0.72935 0.6977 0.82432 0.0
C825 C 0.75461 0.63612 0.8298 0.0
Co826 Co 0.35003 0.43066 0.57018 0.0
Co827 Co 0.42107 0.31702 0.55145 0.0
O828 O 0.40659 0.41331 0.56197 0.0
C829 C 0.37718 0.51008 0.61207 0.0
O830 O 0.35864 0.45588 0.62056 0.0
C831 C 0.44548 0.42167 0.51996 0.0
O832 O 0.40553 0.44984 0.51756 0.0
O833 O 0.36605 0.3203 0.52798 0.0
O834 O 0.31841 0.35819 0.54793 0.0
H835 H 0.3872 0.06042 0.52289 0.0
H836 H 0.40074 0.55591 0.5581 0.0
O837 O 0.38006 0.50591 0.59217 0.0
H838 H 0.25475 0.56671 0.50712 0.0
H839 H 0.23008 0.58649 0.59075 0.0
H840 H 0.28001 0.33417 0.58023 0.0
H841 H 0.2711 0.47017 0.53511 0.0
H842 H 0.30053 0.56466 0.57936 0.0
O843 O 0.45636 0.36651 0.53234 0.0
H844 H 0.37028 0.18037 0.53751 0.0
H845 H 0.50291 0.25048 0.54159 0.0
H846 H 0.20933 0.35354 0.59159 0.0
H847 H 0.38554 0.65428 0.53061 0.0
H848 H 0.18388 0.48046 0.59689 0.0
H849 H 0.31211 0.66 0.50481 0.0
O850 O 0.3646 0.34929 0.59195 0.0
H851 H 0.55983 0.42101 0.59906 0.0
H852 H 0.46203 0.20453 0.58425 0.0
H853 H 0.5279 0.20101 0.61456 0.0
H854 H 0.57749 0.30969 0.62207 0.0
H855 H 0.49317 0.42263 0.5691 0.0
H856 H 0.52122 0.13146 0.52687 0.0
H857 H 0.46314 0.03533 0.51746 0.0
O858 O 0.38731 0.26471 0.57065 0.0
C859 C 0.3266 0.32741 0.53093 0.0
C860 C 0.41281 0.10183 0.52695 0.0
C861 C 0.488 0.14173 0.52915 0.0
N862 N 0.43557 0.22247 0.54041 0.0
C863 C 0.40344 0.16987 0.53526 0.0
C864 C 0.47739 0.20917 0.5374 0.0
C865 C 0.45541 0.08781 0.52389 0.0
C866 C 0.36849 0.55866 0.54715 0.0
N867 N 0.33671 0.50777 0.54841 0.0
C868 C 0.36017 0.61421 0.53152 0.0
C869 C 0.31901 0.61728 0.51702 0.0
C870 C 0.28684 0.56493 0.5183 0.0
C871 C 0.29635 0.51018 0.53414 0.0
C872 C 0.24074 0.53093 0.58843 0.0
C873 C 0.2692 0.38957 0.5825 0.0
C874 C 0.28057 0.5182 0.58195 0.0
N875 N 0.29426 0.44814 0.57896 0.0
C876 C 0.22912 0.4002 0.58893 0.0
C877 C 0.21486 0.47142 0.59189 0.0
C878 C 0.37343 0.28302 0.58759 0.0
C879 C 0.53856 0.37324 0.5959 0.0
C880 C 0.48331 0.25219 0.58745 0.0
C881 C 0.52065 0.24978 0.60461 0.0
C882 C 0.54843 0.31078 0.60882 0.0
N883 N 0.47387 0.31363 0.57482 0.0
C884 C 0.50085 0.37375 0.57891 0.0
Co885 Co 0.44203 0.45068 0.17786 0.0
Co886 Co 0.35146 0.37587 0.19246 0.0
O887 O 0.38332 0.45988 0.18443 0.0
C888 C 0.3911 0.53841 0.14087 0.0
O889 O 0.36064 0.48692 0.1374 0.0
C890 C 0.32114 0.42985 0.23132 0.0
O891 O 0.34068 0.3717 0.24143 0.0
O892 O 0.40328 0.35348 0.21686 0.0
O893 O 0.45974 0.37263 0.20038 0.0
H894 H 0.33745 0.11671 0.21735 0.0
H895 H 0.40883 0.59595 0.18894 0.0
O896 O 0.42609 0.53053 0.15572 0.0
H897 H 0.54918 0.55685 0.24276 0.0
H898 H 0.58088 0.54877 0.15858 0.0
H899 H 0.50064 0.32608 0.17223 0.0
H900 H 0.52172 0.46398 0.2144 0.0
H901 H 0.50767 0.55841 0.16805 0.0
O902 O 0.32464 0.44271 0.21182 0.0
H903 H 0.37622 0.22306 0.2061 0.0
H904 H 0.25816 0.35018 0.19712 0.0
H905 H 0.57389 0.31399 0.16297 0.0
H906 H 0.43534 0.69068 0.21689 0.0
H907 H 0.61453 0.42589 0.15606 0.0
H908 H 0.50598 0.6714 0.24407 0.0
O909 O 0.41993 0.3729 0.15554 0.0
H910 H 0.24098 0.54364 0.14563 0.0
H911 H 0.29487 0.28864 0.15635 0.0
H912 H 0.23376 0.31791 0.12519 0.0
H913 H 0.20624 0.44624 0.11971 0.0
H914 H 0.30248 0.51201 0.17642 0.0
H915 H 0.21804 0.24501 0.20817 0.0
H916 H 0.25773 0.12721 0.21839 0.0
O917 O 0.37686 0.30828 0.17303 0.0
C918 C 0.44407 0.34642 0.21592 0.0
C919 C 0.31976 0.1677 0.2129 0.0
C920 C 0.25274 0.23967 0.20772 0.0
N921 N 0.31948 0.29271 0.20084 0.0
C922 C 0.34156 0.22817 0.20653 0.0
C923 C 0.27562 0.29898 0.20143 0.0
C924 C 0.27504 0.17362 0.21348 0.0
C925 C 0.43973 0.58732 0.20063 0.0
N926 N 0.4638 0.52463 0.19994 0.0
C927 C 0.45452 0.64108 0.21645 0.0
C928 C 0.49413 0.6302 0.23171 0.0
C929 C 0.51838 0.56594 0.231 0.0
C930 C 0.50258 0.51343 0.21493 0.0
C931 C 0.56352 0.49962 0.16158 0.0
C932 C 0.51819 0.37507 0.16936 0.0
C933 C 0.522 0.50471 0.16689 0.0
N934 N 0.49999 0.44287 0.17081 0.0
C935 C 0.55963 0.36786 0.16408 0.0
C936 C 0.58239 0.43066 0.16018 0.0
C937 C 0.39905 0.3142 0.15819 0.0
C938 C 0.25257 0.48747 0.14788 0.0
C939 C 0.28342 0.34461 0.15401 0.0
C940 C 0.24861 0.36086 0.13637 0.0
C941 C 0.23315 0.43284 0.13332 0.0
N942 N 0.30222 0.39839 0.16828 0.0
C943 C 0.28727 0.46913 0.16535 0.0
C944 C 0.29699 0.25554 0.49667 0.0
C945 C 0.28892 0.29373 0.51491 0.0
C946 C 0.26256 0.22112 0.48176 0.0
C947 C 0.21832 0.2229 0.48438 0.0
H948 H 0.33028 0.25171 0.49383 0.0
H949 H 0.271 0.19288 0.46802 0.0
S950 S 0.17882 0.31621 0.52926 0.0
N951 N 0.2327 0.33183 0.53458 0.0
N952 N 0.16838 0.26667 0.50669 0.0
C953 C 0.20964 0.26091 0.50252 0.0
C954 C 0.24473 0.29639 0.5177 0.0
C955 C 0.96228 0.0262 0.49559 0.0
C956 C 0.97513 0.97154 0.51149 0.0
C957 C 0.99308 0.05847 0.48503 0.0
C958 C 0.03823 0.03774 0.48991 0.0
H959 H 0.92805 0.04419 0.49112 0.0
H960 H 0.98115 0.10003 0.47286 0.0
S961 S 0.08966 0.89877 0.53085 0.0
N962 N 0.0368 0.89939 0.532 0.0
N963 N 0.0943 0.95963 0.5121 0.0
C964 C 0.05166 0.98344 0.50587 0.0
C965 C 0.02029 0.95056 0.51666 0.0
C966 C 0.26959 0.02553 0.73174 0.0
C967 C 0.29513 0.96995 0.74415 0.0
C968 C 0.23874 0.06728 0.7401 0.0
C969 C 0.23185 0.05533 0.76124 0.0
H970 H 0.27314 0.03685 0.7153 0.0
H971 H 0.22031 0.10954 0.72984 0.0
S972 S 0.29004 0.91614 0.80054 0.0
N973 N 0.31133 0.90541 0.77884 0.0
N974 N 0.25334 0.98296 0.79439 0.0
C975 C 0.2571 0.99974 0.77383 0.0
C976 C 0.28871 0.95748 0.76536 0.0
C977 C 0.99932 0.23338 0.76885 0.0
C978 C 0.04419 0.22774 0.76734 0.0
C979 C 0.96719 0.26606 0.75237 0.0
C980 C 0.97831 0.2952 0.7336 0.0
H981 H 0.98853 0.21228 0.78292 0.0
H982 H 0.93333 0.26854 0.75448 0.0
S983 S 0.09134 0.2961 0.72167 0.0
N984 N 0.09807 0.25528 0.74554 0.0
N985 N 0.03809 0.31654 0.71459 0.0
C986 C 0.02319 0.29039 0.7319 0.0
C987 C 0.05593 0.25686 0.74872 0.0
C988 C 0.79572 0.76528 0.49817 0.0
C989 C 0.78693 0.79927 0.51691 0.0
C990 C 0.76202 0.73091 0.48283 0.0
C991 C 0.71778 0.72877 0.48544 0.0
H992 H 0.82903 0.76472 0.49527 0.0
H993 H 0.77102 0.7059 0.46874 0.0
S994 S 0.67661 0.80943 0.53166 0.0
N995 N 0.73011 0.82836 0.53718 0.0
N996 N 0.66709 0.7639 0.50837 0.0
C997 C 0.70838 0.76247 0.50409 0.0
C998 C 0.74277 0.79761 0.51977 0.0
C999 C 0.74248 0.09198 0.23848 0.0
C1000 C 0.72929 0.07322 0.25783 0.0
C1001 C 0.77352 0.04928 0.23053 0.0
C1002 C 0.79288 0.98615 0.24165 0.0
H1003 H 0.72917 0.14058 0.22947 0.0
H1004 H 0.78239 0.06606 0.21552 0.0
S1005 S 0.76761 0.91039 0.29242 0.0
N1006 N 0.73648 0.98469 0.28732 0.0
N1007 N 0.79515 0.90569 0.27273 0.0
C1008 C 0.77966 0.9664 0.26093 0.0
C1009 C 0.7478 1.00948 0.2689 0.0
C1010 C 0.01841 0.79055 0.23159 0.0
C1011 C 0.97424 0.80328 0.23344 0.0
C1012 C 0.04904 0.75374 0.24789 0.0
C1013 C 0.03694 0.7277 0.26682 0.0
H1014 H 0.0297 0.80901 0.21736 0.0
H1015 H 0.08244 0.74554 0.24555 0.0
S1016 S 0.92523 0.7465 0.27976 0.0
N1017 N 0.9201 0.7862 0.25582 0.0
N1018 N 0.97713 0.71814 0.28641 0.0
C1019 C 0.99282 0.74027 0.2689 0.0
C1020 C 0.96168 0.77763 0.25227 0.0
C1021 C 0.30633 0.773 0.99866 0.0
C1022 C 0.29731 0.80623 0.01748 0.0
C1023 C 0.2732 0.73577 0.98367 0.0
C1024 C 0.22943 0.72993 0.98677 0.0
H1025 H 0.3393 0.77568 0.99539 0.0
H1026 H 0.28212 0.71188 0.96941 0.0
S1027 S 0.18825 0.80526 0.03369 0.0
N1028 N 0.24094 0.82922 0.03851 0.0
N1029 N 0.1792 0.75939 0.01048 0.0
C1030 C 0.22 0.76205 0.00564 0.0
C1031 C 0.2537 0.8001 0.02091 0.0
C1032 C 0.0562 0.48547 0.00232 0.0
C1033 C 0.04412 0.54594 0.9884 0.0
C1034 C 0.02538 0.45103 0.0124 0.0
C1035 C 0.98102 0.47544 0.00902 0.0
H1036 H 0.08982 0.46439 0.00555 0.0
H1037 H 0.03665 0.40492 0.02303 0.0
S1038 S 0.93188 0.63114 0.97382 0.0
N1039 N 0.98405 0.62813 0.97154 0.0
N1040 N 0.92656 0.5639 0.99057 0.0
C1041 C 0.96835 0.53563 0.99506 0.0
C1042 C 0.99972 0.57068 0.98475 0.0
C1043 C 0.26696 0.53427 0.22974 0.0
C1044 C 0.28969 0.47414 0.24115 0.0
C1045 C 0.23534 0.57445 0.23803 0.0
C1046 C 0.22487 0.55633 0.25809 0.0
H1047 H 0.27345 0.55056 0.21418 0.0
H1048 H 0.21933 0.62062 0.22865 0.0
S1049 S 0.27392 0.40244 0.29425 0.0
N1050 N 0.29888 0.39801 0.2736 0.0
N1051 N 0.23935 0.47249 0.28892 0.0
C1052 C 0.24707 0.49586 0.26958 0.0
C1053 C 0.27946 0.4552 0.26122 0.0
C1054 C 0.71972 0.27589 0.00098 0.0
C1055 C 0.72766 0.23517 0.98314 0.0
C1056 C 0.75461 0.30836 0.01616 0.0
C1057 C 0.79914 0.30189 0.01421 0.0
H1058 H 0.68621 0.28316 0.00327 0.0
H1059 H 0.74635 0.33881 0.02958 0.0
S1060 S 0.83843 0.20095 0.97053 0.0
N1061 N 0.78413 0.1901 0.96456 0.0
N1062 N 0.84915 0.25137 0.9929 0.0
C1063 C 0.80765 0.26145 0.99645 0.0
C1064 C 0.77216 0.22809 0.98102 0.0
C1065 C 0.72215 0.48732 0.74483 0.0
C1066 C 0.73447 0.54148 0.76103 0.0
C1067 C 0.75338 0.45591 0.73426 0.0
C1068 C 0.79846 0.47703 0.73944 0.0
H1069 H 0.68796 0.46941 0.74005 0.0
H1070 H 0.74182 0.4149 0.7218 0.0
S1071 S 0.84867 0.61416 0.78147 0.0
N1072 N 0.79568 0.61284 0.78235 0.0
N1073 N 0.85391 0.55444 0.76238 0.0
C1074 C 0.8114 0.53045 0.75581 0.0
C1075 C 0.77961 0.56241 0.76661 0.0
C1076 C 0.55149 1.01338 0.00361 0.0
C1077 C 0.53882 0.07186 0.989 0.0
C1078 C 0.52085 0.97892 0.0138 0.0
C1079 C 0.47599 1.00117 0.00983 0.0
H1080 H 0.58544 0.99376 0.00727 0.0
H1081 H 0.53268 0.93437 0.02494 0.0
S1082 S 0.42518 0.15088 0.97261 0.0
N1083 N 0.47769 0.14989 0.97083 0.0
N1084 N 0.42044 0.08541 0.99004 0.0
C1085 C 0.46275 0.05952 0.99523 0.0
C1086 C 0.494 0.09469 0.98481 0.0
C1087 C 0.52069 0.30013 0.2323 0.0
C1088 C 0.47549 0.30526 0.23322 0.0
C1089 C 0.55156 0.26258 0.24823 0.0
C1090 C 0.53883 0.22802 0.26587 0.0
H1091 H 0.53276 0.32563 0.21919 0.0
H1092 H 0.58582 0.26131 0.2467 0.0
S1093 S 0.42417 0.22266 0.27567 0.0
N1094 N 0.41945 0.27068 0.25309 0.0
N1095 N 0.47711 0.20034 0.283 0.0
C1096 C 0.49357 0.23188 0.26689 0.0
C1097 C 0.46208 0.27031 0.25061 0.0
C1098 C 0.52118 0.78381 0.72899 0.0
C1099 C 0.4775 0.79239 0.73208 0.0
C1100 C 0.55432 0.74935 0.74456 0.0
C1101 C 0.54545 0.72133 0.76398 0.0
H1102 H 0.53029 0.80436 0.71443 0.0
H1103 H 0.58733 0.74547 0.74137 0.0
S1104 S 0.43585 0.72571 0.77963 0.0
N1105 N 0.42688 0.76729 0.7558 0.0
N1106 N 0.48874 0.70237 0.78502 0.0
C1107 C 0.50161 0.72809 0.76711 0.0
C1108 C 0.46784 0.76354 0.75122 0.0
C1109 C 0.46716 0.51919 0.49626 0.0
C1110 C 0.47879 0.45639 0.50922 0.0
C1111 C 0.49795 0.55449 0.48641 0.0
C1112 C 0.54194 0.52881 0.48905 0.0
H1113 H 0.43396 0.54182 0.49372 0.0
H1114 H 0.4869 0.6026 0.47663 0.0
S1115 S 0.58962 0.366 0.52129 0.0
N1116 N 0.5378 0.36968 0.52413 0.0
N1117 N 0.59544 0.43599 0.50554 0.0
C1118 C 0.55413 0.46591 0.50191 0.0
C1119 C 0.52268 0.4298 0.51199 0.0
C1120 C 0.08915 0.78621 0.37108 0.0
C1121 C 0.11575 0.78737 0.35547 0.0
C1122 C 0.08588 0.84785 0.38426 0.0
C1123 C 0.10957 0.91277 0.38258 0.0
H1124 H 0.07066 0.73731 0.37321 0.0
H1125 H 0.06568 0.84378 0.39629 0.0
S1126 S 0.18191 0.94728 0.34373 0.0
N1127 N 0.16443 0.8622 0.33858 0.0
N1128 N 0.159 0.97596 0.36363 0.0
C1129 C 0.13566 0.91532 0.3669 0.0
C1130 C 0.13856 0.85329 0.3533 0.0
C1131 C 0.16003 0.35718 0.40522 0.0
C1132 C 0.13818 0.29255 0.39644 0.0
C1133 C 0.15807 0.42126 0.39266 0.0
C1134 C 0.13291 0.42354 0.37112 0.0
H1135 H 0.1781 0.35851 0.42208 0.0
H1136 H 0.17488 0.47006 0.40018 0.0
S1137 S 0.06976 0.26784 0.34072 0.0
N1138 N 0.09177 0.23359 0.36497 0.0
N1139 N 0.0865 0.35407 0.34146 0.0
C1140 C 0.11143 0.35852 0.36211 0.0
C1141 C 0.11446 0.29297 0.37476 0.0
C1142 C 0.09639 0.29811 0.87231 0.0
C1143 C 0.1227 0.29757 0.85657 0.0
C1144 C 0.09444 0.36016 0.88552 0.0
C1145 C 0.11922 0.4238 0.88377 0.0
H1146 H 0.07717 0.25019 0.87455 0.0
H1147 H 0.0744 0.35737 0.89765 0.0
S1148 S 0.191 0.45407 0.84443 0.0
N1149 N 0.17198 0.3698 0.83932 0.0
N1150 N 0.1692 0.48417 0.86456 0.0
C1151 C 0.14497 0.42475 0.86794 0.0
C1152 C 0.14645 0.36236 0.85425 0.0
C1153 C 0.17347 0.86616 0.9064 0.0
C1154 C 0.15043 0.8019 0.89822 0.0
C1155 C 0.16911 0.93085 0.89401 0.0
C1156 C 0.14026 0.93415 0.87333 0.0
H1157 H 0.19424 0.86679 0.92272 0.0
H1158 H 0.1871 0.97929 0.90104 0.0
S1159 S 0.07242 0.77971 0.84483 0.0
N1160 N 0.09884 0.74431 0.86824 0.0
N1161 N 0.08892 0.86598 0.84515 0.0
C1162 C 0.11747 0.86949 0.86493 0.0
C1163 C 0.12298 0.80331 0.87733 0.0
C1164 C 0.8814 0.16392 0.64663 0.0
C1165 C 0.90283 0.23069 0.644 0.0
C1166 C 0.88407 0.1026 0.63352 0.0
C1167 C 0.90909 0.1041 0.6174 0.0
H1168 H 0.86177 0.1585 0.65885 0.0
H1169 H 0.86605 0.05348 0.636 0.0
S1170 S 0.97275 0.26343 0.60384 0.0
N1171 N 0.95056 0.29369 0.62386 0.0
N1172 N 0.9564 0.17728 0.5995 0.0
C1173 C 0.9317 0.16946 0.61477 0.0
C1174 C 0.92833 0.23291 0.62795 0.0
C1175 C 0.88629 0.65565 0.63771 0.0
C1176 C 0.86822 0.58911 0.62806 0.0
C1177 C 0.88486 0.72033 0.62546 0.0
C1178 C 0.86603 0.72046 0.60302 0.0
H1179 H 0.90268 0.65745 0.65482 0.0
H1180 H 0.90065 0.7694 0.63334 0.0
S1181 S 0.81127 0.56326 0.57013 0.0
N1182 N 0.82821 0.52938 0.59492 0.0
N1183 N 0.82632 0.65044 0.57184 0.0
C1184 C 0.84627 0.65537 0.59334 0.0
C1185 C 0.84707 0.58985 0.60587 0.0
C1186 C 0.87213 0.59887 0.14403 0.0
C1187 C 0.88556 0.59155 0.12416 0.0
C1188 C 0.87457 0.66623 0.15498 0.0
C1189 C 0.89085 0.73017 0.14678 0.0
H1190 H 0.85844 0.55251 0.15107 0.0
H1191 H 0.86304 0.66775 0.17005 0.0
S1192 S 0.9333 0.74025 0.09599 0.0
N1193 N 0.91789 0.65379 0.09711 0.0
N1194 N 0.92272 0.78065 0.11788 0.0
C1195 C 0.90581 0.72346 0.12725 0.0
C1196 C 0.90312 0.65432 0.11593 0.0
C1197 C 0.85081 0.11017 0.10825 0.0
C1198 C 0.88321 0.10123 0.12767 0.0
C1199 C 0.84833 0.17517 0.09602 0.0
C1200 C 0.87708 0.23438 0.10317 0.0
H1201 H 0.82835 0.06564 0.10199 0.0
H1202 H 0.82466 0.17838 0.08053 0.0
S1203 S 0.96606 0.24158 0.15323 0.0
N1204 N 0.94395 0.15925 0.15364 0.0
N1205 N 0.93781 0.28152 0.13093 0.0
C1206 C 0.90829 0.22763 0.12288 0.0
C1207 C 0.91169 0.16105 0.13508 0.0
C1208 C 0.63099 0.88644 0.83885 0.0
C1209 C 0.62797 0.81783 0.8488 0.0
C1210 C 0.63248 0.95237 0.85047 0.0
C1211 C 0.63092 0.95327 0.87263 0.0
H1212 H 0.63337 0.88965 0.82194 0.0
H1213 H 0.63628 1.00301 0.84207 0.0
S1214 S 0.61899 0.78953 0.9061 0.0
N1215 N 0.62037 0.75532 0.88189 0.0
N1216 N 0.62304 0.87943 0.90383 0.0
C1217 C 0.62551 0.88544 0.8826 0.0
C1218 C 0.62406 0.81782 0.87068 0.0
C1219 C 0.63369 0.3801 0.89859 0.0
C1220 C 0.65151 0.31015 0.89573 0.0
C1221 C 0.63867 0.43958 0.88531 0.0
C1222 C 0.66266 0.43281 0.86884 0.0
H1223 H 0.61497 0.38936 0.91103 0.0
H1224 H 0.62313 0.49136 0.88783 0.0
S1225 S 0.71771 0.26364 0.85477 0.0
N1226 N 0.69514 0.23867 0.87513 0.0
N1227 N 0.70538 0.35144 0.8505 0.0
C1228 C 0.68195 0.36426 0.86609 0.0
C1229 C 0.67615 0.30282 0.87941 0.0
C1230 C 0.63946 0.3668 0.35224 0.0
C1231 C 0.61647 0.30129 0.35441 0.0
C1232 C 0.63745 0.42789 0.36562 0.0
C1233 C 0.61133 0.42708 0.3813 0.0
H1234 H 0.65974 0.37108 0.34027 0.0
H1235 H 0.65655 0.47629 0.36365 0.0
S1236 S 0.54412 0.27081 0.3937 0.0
N1237 N 0.56676 0.24005 0.3739 0.0
N1238 N 0.56181 0.35609 0.39839 0.0
C1239 C 0.58737 0.36298 0.38344 0.0
C1240 C 0.59024 0.29987 0.37018 0.0
C1241 C 0.66271 0.7989 0.38112 0.0
C1242 C 0.63885 0.8039 0.39782 0.0
C1243 C 0.66574 0.85896 0.36755 0.0
C1244 C 0.64446 0.92588 0.36994 0.0
H1245 H 0.67889 0.74805 0.37833 0.0
H1246 H 0.6835 0.85203 0.3546 0.0
S1247 S 0.58131 0.9713 0.41202 0.0
N1248 N 0.59671 0.88508 0.41685 0.0
N1249 N 0.60112 0.9958 0.39078 0.0
C1250 C 0.62158 0.93259 0.38679 0.0
C1251 C 0.61915 0.87224 0.40088 0.0
C1252 C 0.43058 0.24766 0.12953 0.0
C1253 C 0.40203 0.24821 0.14426 0.0
C1254 C 0.43418 0.18557 0.11657 0.0
C1255 C 0.4091 0.12174 0.11767 0.0
H1256 H 0.45029 0.2956 0.1279 0.0
H1257 H 0.45583 0.18846 0.10517 0.0
S1258 S 0.33145 0.09181 0.15429 0.0
N1259 N 0.34976 0.17632 0.15967 0.0
N1260 N 0.35641 0.06136 0.13532 0.0
C1261 C 0.3812 0.12083 0.13258 0.0
C1262 C 0.3777 0.18348 0.14584 0.0
C1263 C 0.40766 0.67166 0.1371 0.0
C1264 C 0.38515 0.60749 0.1281 0.0
C1265 C 0.40517 0.73688 0.12506 0.0
C1266 C 0.3807 0.73978 0.10348 0.0
H1267 H 0.42796 0.67129 0.15352 0.0
H1268 H 0.42413 0.78418 0.13231 0.0
S1269 S 0.31413 0.58946 0.0725 0.0
N1270 N 0.33572 0.55294 0.09653 0.0
N1271 N 0.3322 0.67502 0.07374 0.0
C1272 C 0.35714 0.67706 0.09444 0.0
C1273 C 0.35897 0.61104 0.1068 0.0
C1274 C 0.37835 0.65381 0.65602 0.0
C1275 C 0.38996 0.71958 0.64684 0.0
C1276 C 0.37647 0.58656 0.64505 0.0
C1277 C 0.38583 0.58114 0.62421 0.0
H1278 H 0.37008 0.65377 0.67189 0.0
H1279 H 0.36638 0.53864 0.6529 0.0
S1280 S 0.42082 0.73547 0.5932 0.0
N1281 N 0.41334 0.77412 0.61595 0.0
N1282 N 0.40952 0.64744 0.59513 0.0
C1283 C 0.39898 0.64586 0.615 0.0
C1284 C 0.4011 0.71492 0.62633 0.0
C1285 C 0.34215 0.16283 0.59556 0.0
C1286 C 0.36982 0.22331 0.60282 0.0
C1287 C 0.34468 0.09844 0.60806 0.0
C1288 C 0.37614 0.09138 0.62786 0.0
H1289 H 0.31931 0.16462 0.57979 0.0
H1290 H 0.32319 0.05283 0.60168 0.0
S1291 S 0.45599 0.23535 0.65386 0.0
N1292 N 0.42845 0.27357 0.63111 0.0
N1293 N 0.43476 0.15236 0.65432 0.0
C1294 C 0.40344 0.15247 0.6354 0.0
C1295 C 0.39991 0.21848 0.62294 0.0
loop_
_geom_bond_atom_site_label_1
_geom_bond_atom_site_label_2
_geom_bond_distance
_geom_bond_site_symmetry_2
_ccdc_geom_bond_type
Co0 O2 2.143 . S
Co0 O8 2.074 . S
Co0 O11 2.093 1_545 S
Co0 O24 2.097 . S
Co0 N41 2.151 1_545 S
Co0 N49 2.214 . S
Co1 O2 2.160 . S
Co1 O7 2.058 . S
Co1 O17 2.057 . S
Co1 O32 2.037 . S
Co1 N36 2.145 . S
Co1 N57 2.257 . S
O2 Co0 2.143 . S
O2 Co1 2.160 . S
C3 O4 1.278 . S
C3 O11 1.224 . S
O4 C3 1.278 . S
C5 O6 1.245 . S
C5 O17 1.232 . S
O6 C5 1.245 . S
O7 Co1 2.058 . S
O7 C33 1.269 . S
O8 Co0 2.074 . S
O8 C33 1.257 . S
H9 C34 0.930 . S
H10 C40 0.930 . S
O11 Co0 2.093 1_565 S
O11 C3 1.224 . S
H12 C44 0.929 . S
H13 C46 0.930 . S
H14 C47 0.930 . S
H15 C45 0.929 . S
H16 C48 0.928 . S
O17 Co1 2.057 . S
O17 C5 1.232 . S
H18 C37 0.929 . S
H19 C38 0.929 . S
H20 C50 0.931 . S
H21 C42 0.929 . S
H22 C51 0.930 . S
H23 C43 0.931 . S
O24 Co0 2.097 . S
O24 C52 1.214 . S
H25 C53 0.929 . S
H26 C54 0.929 . S
H27 C55 0.930 . S
H28 C56 0.929 . S
H29 C58 0.930 . S
H30 C35 0.948 . S
H31 C39 0.930 1_655 S
O32 Co1 2.037 . S
O32 C52 1.234 . S
C33 O7 1.269 . S
C33 O8 1.257 . S
C34 H9 0.930 . S
C34 C37 1.388 . S
C34 C39 1.418 . S
C35 H30 0.948 . S
C35 C38 1.392 1_655 S
C35 C39 1.346 1_655 S
N36 Co1 2.145 . S
N36 C37 1.397 . S
N36 C38 1.334 . S
C37 H18 0.929 . S
C37 C34 1.388 . S
C37 N36 1.397 . S
C38 H19 0.929 . S
C38 C35 1.392 1_455 S
C38 N36 1.334 . S
C39 H31 0.930 1_455 S
C39 C34 1.418 . S
C39 C35 1.346 1_455 S
C40 H10 0.930 . S
C40 N41 1.330 . S
C40 C42 1.446 . S
N41 Co0 2.151 1_565 S
N41 C40 1.330 . S
N41 C45 1.418 1_565 S
C42 H21 0.929 . S
C42 C40 1.446 . S
C42 C43 1.332 . S
C43 H23 0.931 . S
C43 C42 1.332 . S
C43 C44 1.267 . S
C44 H12 0.929 . S
C44 C43 1.267 . S
C44 C45 1.251 1_565 S
C45 H15 0.929 . S
C45 N41 1.418 1_545 S
C45 C44 1.251 1_545 S
C46 H13 0.930 . S
C46 C48 1.406 . S
C46 C51 1.261 . S
C47 H14 0.930 . S
C47 N49 1.325 . S
C47 C50 1.357 . S
C48 H16 0.928 . S
C48 C46 1.406 . S
C48 N49 1.261 . S
N49 Co0 2.214 . S
N49 C47 1.325 . S
N49 C48 1.261 . S
C50 H20 0.931 . S
C50 C47 1.357 . S
C50 C51 1.312 . S
C51 H22 0.930 . S
C51 C46 1.261 . S
C51 C50 1.312 . S
C52 O24 1.214 . S
C52 O32 1.234 . S
C53 H25 0.929 . S
C53 C56 1.391 . S
C53 C58 1.391 1_655 S
C54 H26 0.929 . S
C54 C55 1.390 1_455 S
C54 N57 1.391 . S
C55 H27 0.930 . S
C55 C54 1.390 1_655 S
C55 C56 1.392 . S
C56 H28 0.929 . S
C56 C53 1.391 . S
C56 C55 1.392 . S
N57 Co1 2.257 . S
N57 C54 1.391 . S
N57 C58 1.388 . S
C58 H29 0.930 . S
C58 C53 1.391 1_455 S
C58 N57 1.388 . S
Co59 O61 2.143 . S
Co59 O67 2.074 . S
Co59 O70 2.093 1_545 S
Co59 O83 2.097 . S
Co59 N100 2.151 1_545 S
Co59 N108 2.214 . S
Co60 O61 2.160 . S
Co60 O66 2.058 . S
Co60 O76 2.057 . S
Co60 O91 2.037 . S
Co60 N95 2.145 . S
Co60 N116 2.257 . S
O61 Co59 2.143 . S
O61 Co60 2.160 . S
C62 O63 1.278 . S
C62 O70 1.224 . S
O63 C62 1.278 . S
C64 O65 1.245 . S
C64 O76 1.232 . S
O65 C64 1.245 . S
O66 Co60 2.058 . S
O66 C92 1.269 . S
O67 Co59 2.074 . S
O67 C92 1.257 . S
H68 C93 0.930 . S
H69 C99 0.930 . S
O70 Co59 2.093 1_565 S
O70 C62 1.224 . S
H71 C103 0.929 . S
H72 C105 0.930 . S
H73 C106 0.930 . S
H74 C104 0.939 . S
H75 C107 0.928 . S
O76 Co60 2.057 . S
O76 C64 1.232 . S
H77 C96 0.929 . S
H78 C97 0.929 . S
H79 C109 0.931 . S
H80 C101 0.929 . S
H81 C110 0.930 . S
H82 C102 0.931 . S
O83 Co59 2.097 . S
O83 C111 1.214 . S
H84 C112 0.929 . S
H85 C113 0.929 . S
H86 C114 0.930 . S
H87 C115 0.929 . S
H88 C117 0.930 . S
H89 C94 0.930 . S
H90 C98 0.930 . S
O91 Co60 2.037 . S
O91 C111 1.234 . S
C92 O66 1.269 . S
C92 O67 1.257 . S
C93 H68 0.930 . S
C93 C96 1.388 . S
C93 C98 1.418 . S
C94 H89 0.930 . S
C94 C97 1.404 . S
C94 C98 1.353 . S
N95 Co60 2.145 . S
N95 C96 1.397 . S
N95 C97 1.334 . S
C96 H77 0.929 . S
C96 C93 1.388 . S
C96 N95 1.397 . S
C97 H78 0.929 . S
C97 C94 1.404 . S
C97 N95 1.334 . S
C98 H90 0.930 . S
C98 C93 1.418 . S
C98 C94 1.353 . S
C99 H69 0.930 . S
C99 N100 1.330 . S
C99 C101 1.446 . S
N100 Co59 2.151 1_565 S
N100 C99 1.330 . S
N100 C104 1.400 1_465 S
C101 H80 0.929 . S
C101 C99 1.446 . S
C101 C102 1.332 1_455 S
C102 H82 0.931 . S
C102 C101 1.332 1_655 S
C102 C103 1.267 . S
C103 H71 0.929 . S
C103 C102 1.267 . S
C103 C104 1.260 1_565 S
C104 H74 0.939 . S
C104 N100 1.400 1_645 S
C104 C103 1.260 1_545 S
C105 H72 0.930 . S
C105 C107 1.406 . S
C105 C110 1.261 . S
C106 H73 0.930 . S
C106 N108 1.325 . S
C106 C109 1.357 1_455 S
C107 H75 0.928 . S
C107 C105 1.406 . S
C107 N108 1.261 1_655 S
N108 Co59 2.214 . S
N108 C106 1.325 . S
N108 C107 1.261 1_455 S
C109 H79 0.931 . S
C109 C106 1.357 1_655 S
C109 C110 1.312 . S
C110 H81 0.930 . S
C110 C105 1.261 . S
C110 C109 1.312 . S
C111 O83 1.214 . S
C111 O91 1.234 . S
C112 H84 0.929 . S
C112 C115 1.391 . S
C112 C117 1.391 . S
C113 H85 0.929 . S
C113 C114 1.390 . S
C113 N116 1.391 . S
C114 H86 0.930 . S
C114 C113 1.390 . S
C114 C115 1.392 . S
C115 H87 0.929 . S
C115 C112 1.391 . S
C115 C114 1.392 . S
N116 Co60 2.257 . S
N116 C113 1.391 . S
N116 C117 1.388 . S
C117 H88 0.930 . S
C117 C112 1.391 . S
C117 N116 1.388 . S
Co118 O120 2.143 . S
Co118 O126 2.074 . S
Co118 O129 2.093 1_565 S
Co118 O142 2.097 . S
Co118 N159 2.151 1_565 S
Co118 N167 2.214 . S
Co119 O120 2.160 . S
Co119 O125 2.058 . S
Co119 O135 2.057 . S
Co119 O150 2.037 . S
Co119 N154 2.145 . S
Co119 N175 2.257 . S
O120 Co118 2.143 . S
O120 Co119 2.160 . S
C121 O122 1.278 . S
C121 O129 1.224 . S
O122 C121 1.278 . S
C123 O124 1.245 . S
C123 O135 1.232 . S
O124 C123 1.245 . S
O125 Co119 2.058 . S
O125 C151 1.269 . S
O126 Co118 2.074 . S
O126 C151 1.257 . S
H127 C152 0.930 . S
H128 C158 0.930 . S
O129 Co118 2.093 1_545 S
O129 C121 1.224 . S
H130 C162 0.929 . S
H131 C164 0.930 . S
H132 C165 0.930 . S
H133 C163 0.929 . S
H134 C166 0.928 . S
O135 Co119 2.057 . S
O135 C123 1.232 . S
H136 C155 0.929 . S
H137 C156 0.929 . S
H138 C168 0.931 . S
H139 C160 0.929 . S
H140 C169 0.930 . S
H141 C161 0.931 . S
O142 Co118 2.097 . S
O142 C170 1.214 . S
H143 C171 0.929 . S
H144 C172 0.929 . S
H145 C173 0.930 . S
H146 C174 0.929 . S
H147 C176 0.930 . S
H148 C153 0.948 . S
H149 C157 0.930 1_455 S
O150 Co119 2.037 . S
O150 C170 1.234 . S
C151 O125 1.269 . S
C151 O126 1.257 . S
C152 H127 0.930 . S
C152 C155 1.388 . S
C152 C157 1.418 . S
C153 H148 0.948 . S
C153 C156 1.392 1_455 S
C153 C157 1.346 1_455 S
N154 Co119 2.145 . S
N154 C155 1.397 . S
N154 C156 1.334 . S
C155 H136 0.929 . S
C155 C152 1.388 . S
C155 N154 1.397 . S
C156 H137 0.929 . S
C156 C153 1.392 1_655 S
C156 N154 1.334 . S
C157 H149 0.930 1_655 S
C157 C152 1.418 . S
C157 C153 1.346 1_655 S
C158 H128 0.930 . S
C158 N159 1.330 . S
C158 C160 1.446 . S
N159 Co118 2.151 1_545 S
N159 C158 1.330 . S
N159 C163 1.418 1_545 S
C160 H139 0.929 . S
C160 C158 1.446 . S
C160 C161 1.332 . S
C161 H141 0.931 . S
C161 C160 1.332 . S
C161 C162 1.267 . S
C162 H130 0.929 . S
C162 C161 1.267 . S
C162 C163 1.251 1_545 S
C163 H133 0.929 . S
C163 N159 1.418 1_565 S
C163 C162 1.251 1_565 S
C164 H131 0.930 . S
C164 C166 1.406 . S
C164 C169 1.261 . S
C165 H132 0.930 . S
C165 N167 1.325 . S
C165 C168 1.357 . S
C166 H134 0.928 . S
C166 C164 1.406 . S
C166 N167 1.261 . S
N167 Co118 2.214 . S
N167 C165 1.325 . S
N167 C166 1.261 . S
C168 H138 0.931 . S
C168 C165 1.357 . S
C168 C169 1.312 . S
C169 H140 0.930 . S
C169 C164 1.261 . S
C169 C168 1.312 . S
C170 O142 1.214 . S
C170 O150 1.234 . S
C171 H143 0.929 . S
C171 C174 1.391 . S
C171 C176 1.391 1_455 S
C172 H144 0.929 . S
C172 C173 1.390 1_655 S
C172 N175 1.391 . S
C173 H145 0.930 . S
C173 C172 1.390 1_455 S
C173 C174 1.392 . S
C174 H146 0.929 . S
C174 C171 1.391 . S
C174 C173 1.392 . S
N175 Co119 2.257 . S
N175 C172 1.391 . S
N175 C176 1.388 . S
C176 H147 0.930 . S
C176 C171 1.391 1_655 S
C176 N175 1.388 . S
Co177 O179 2.143 . S
Co177 O185 2.074 . S
Co177 O188 2.093 1_565 S
Co177 O201 2.097 . S
Co177 N218 2.151 1_565 S
Co177 N226 2.214 . S
Co178 O179 2.160 . S
Co178 O184 2.058 . S
Co178 O194 2.057 . S
Co178 O209 2.037 . S
Co178 N213 2.145 . S
Co178 N234 2.257 . S
O179 Co177 2.143 . S
O179 Co178 2.160 . S
C180 O181 1.278 . S
C180 O188 1.224 . S
O181 C180 1.278 . S
C182 O183 1.245 . S
C182 O194 1.232 . S
O183 C182 1.245 . S
O184 Co178 2.058 . S
O184 C210 1.269 . S
O185 Co177 2.074 . S
O185 C210 1.257 . S
H186 C211 0.930 . S
H187 C217 0.930 . S
O188 Co177 2.093 1_545 S
O188 C180 1.224 . S
H189 C221 0.929 . S
H190 C223 0.930 . S
H191 C224 0.930 . S
H192 C222 0.939 . S
H193 C225 0.928 . S
O194 Co178 2.057 . S
O194 C182 1.232 . S
H195 C214 0.929 . S
H196 C215 0.929 . S
H197 C227 0.931 . S
H198 C219 0.929 . S
H199 C228 0.930 . S
H200 C220 0.931 . S
O201 Co177 2.097 . S
O201 C229 1.214 . S
H202 C230 0.929 . S
H203 C231 0.929 . S
H204 C232 0.930 . S
H205 C233 0.929 . S
H206 C235 0.930 . S
H207 C212 0.930 . S
H208 C216 0.930 . S
O209 Co178 2.037 . S
O209 C229 1.234 . S
C210 O184 1.269 . S
C210 O185 1.257 . S
C211 H186 0.930 . S
C211 C214 1.388 . S
C211 C216 1.418 . S
C212 H207 0.930 . S
C212 C215 1.404 . S
C212 C216 1.353 . S
N213 Co178 2.145 . S
N213 C214 1.397 . S
N213 C215 1.334 . S
C214 H195 0.929 . S
C214 C211 1.388 . S
C214 N213 1.397 . S
C215 H196 0.929 . S
C215 C212 1.404 . S
C215 N213 1.334 . S
C216 H208 0.930 . S
C216 C211 1.418 . S
C216 C212 1.353 . S
C217 H187 0.930 . S
C217 N218 1.330 . S
C217 C219 1.446 . S
N218 Co177 2.151 1_545 S
N218 C217 1.330 . S
N218 C222 1.400 1_645 S
C219 H198 0.929 . S
C219 C217 1.446 . S
C219 C220 1.332 1_655 S
C220 H200 0.931 . S
C220 C219 1.332 1_455 S
C220 C221 1.267 . S
C221 H189 0.929 . S
C221 C220 1.267 . S
C221 C222 1.260 1_545 S
C222 H192 0.939 . S
C222 N218 1.400 1_465 S
C222 C221 1.260 1_565 S
C223 H190 0.930 . S
C223 C225 1.406 . S
C223 C228 1.261 . S
C224 H191 0.930 . S
C224 N226 1.325 . S
C224 C227 1.357 1_655 S
C225 H193 0.928 . S
C225 C223 1.406 . S
C225 N226 1.261 1_455 S
N226 Co177 2.214 . S
N226 C224 1.325 . S
N226 C225 1.261 1_655 S
C227 H197 0.931 . S
C227 C224 1.357 1_455 S
C227 C228 1.312 . S
C228 H199 0.930 . S
C228 C223 1.261 . S
C228 C227 1.312 . S
C229 O201 1.214 . S
C229 O209 1.234 . S
C230 H202 0.929 . S
C230 C233 1.391 . S
C230 C235 1.391 . S
C231 H203 0.929 . S
C231 C232 1.390 . S
C231 N234 1.391 . S
C232 H204 0.930 . S
C232 C231 1.390 . S
C232 C233 1.392 . S
C233 H205 0.929 . S
C233 C230 1.391 . S
C233 C232 1.392 . S
N234 Co178 2.257 . S
N234 C231 1.391 . S
N234 C235 1.388 . S
C235 H206 0.930 . S
C235 C230 1.391 . S
C235 N234 1.388 . S
Co236 O238 2.143 . S
Co236 O244 2.074 . S
Co236 O247 2.093 . S
Co236 O260 2.097 . S
Co236 N277 2.151 . S
Co236 N285 2.214 . S
Co237 O238 2.160 . S
Co237 O243 2.058 . S
Co237 O253 2.057 . S
Co237 O268 2.037 . S
Co237 N272 2.145 . S
Co237 N293 2.257 . S
O238 Co236 2.143 . S
O238 Co237 2.160 . S
C239 O240 1.278 . S
C239 O247 1.224 . S
O240 C239 1.278 . S
C241 O242 1.245 . S
C241 O253 1.232 . S
O242 C241 1.245 . S
O243 Co237 2.058 . S
O243 C269 1.269 . S
O244 Co236 2.074 . S
O244 C269 1.257 . S
H245 C270 0.930 . S
H246 C276 0.930 . S
O247 Co236 2.093 . S
O247 C239 1.224 . S
H248 C280 0.929 . S
H249 C282 0.930 . S
H250 C283 0.930 . S
H251 C281 0.929 . S
H252 C284 0.928 . S
O253 Co237 2.057 . S
O253 C241 1.232 . S
H254 C273 0.929 . S
H255 C274 0.929 . S
H256 C286 0.931 . S
H257 C278 0.929 . S
H258 C287 0.930 . S
H259 C279 0.931 . S
O260 Co236 2.097 . S
O260 C288 1.214 . S
H261 C289 0.929 . S
H262 C290 0.929 . S
H263 C291 0.930 . S
H264 C292 0.929 . S
H265 C294 0.930 . S
H266 C271 0.948 . S
H267 C275 0.930 1_655 S
O268 Co237 2.037 . S
O268 C288 1.234 . S
C269 O243 1.269 . S
C269 O244 1.257 . S
C270 H245 0.930 . S
C270 C273 1.388 . S
C270 C275 1.418 . S
C271 H266 0.948 . S
C271 C274 1.392 1_655 S
C271 C275 1.346 1_655 S
N272 Co237 2.145 . S
N272 C273 1.397 . S
N272 C274 1.334 . S
C273 H254 0.929 . S
C273 C270 1.388 . S
C273 N272 1.397 . S
C274 H255 0.929 . S
C274 C271 1.392 1_455 S
C274 N272 1.334 . S
C275 H267 0.930 1_455 S
C275 C270 1.418 . S
C275 C271 1.346 1_455 S
C276 H246 0.930 . S
C276 N277 1.330 . S
C276 C278 1.446 . S
N277 Co236 2.151 . S
N277 C276 1.330 . S
N277 C281 1.418 . S
C278 H257 0.929 . S
C278 C276 1.446 . S
C278 C279 1.332 . S
C279 H259 0.931 . S
C279 C278 1.332 . S
C279 C280 1.267 . S
C280 H248 0.929 . S
C280 C279 1.267 . S
C280 C281 1.251 . S
C281 H251 0.929 . S
C281 N277 1.418 . S
C281 C280 1.251 . S
C282 H249 0.930 . S
C282 C284 1.406 . S
C282 C287 1.261 . S
C283 H250 0.930 . S
C283 N285 1.325 . S
C283 C286 1.357 . S
C284 H252 0.928 . S
C284 C282 1.406 . S
C284 N285 1.261 . S
N285 Co236 2.214 . S
N285 C283 1.325 . S
N285 C284 1.261 . S
C286 H256 0.931 . S
C286 C283 1.357 . S
C286 C287 1.312 . S
C287 H258 0.930 . S
C287 C282 1.261 . S
C287 C286 1.312 . S
C288 O260 1.214 . S
C288 O268 1.234 . S
C289 H261 0.929 . S
C289 C292 1.391 . S
C289 C294 1.391 1_655 S
C290 H262 0.929 . S
C290 C291 1.390 1_455 S
C290 N293 1.391 . S
C291 H263 0.930 . S
C291 C290 1.390 1_655 S
C291 C292 1.392 . S
C292 H264 0.929 . S
C292 C289 1.391 . S
C292 C291 1.392 . S
N293 Co237 2.257 . S
N293 C290 1.391 . S
N293 C294 1.388 . S
C294 H265 0.930 . S
C294 C289 1.391 1_455 S
C294 N293 1.388 . S
Co295 O297 2.143 . S
Co295 O303 2.074 . S
Co295 O306 2.093 . S
Co295 O319 2.097 . S
Co295 N336 2.151 . S
Co295 N344 2.214 . S
Co296 O297 2.160 . S
Co296 O302 2.058 . S
Co296 O312 2.057 . S
Co296 O327 2.037 . S
Co296 N331 2.145 . S
Co296 N352 2.257 . S
O297 Co295 2.143 . S
O297 Co296 2.160 . S
C298 O299 1.278 . S
C298 O306 1.224 . S
O299 C298 1.278 . S
C300 O301 1.245 . S
C300 O312 1.232 . S
O301 C300 1.245 . S
O302 Co296 2.058 . S
O302 C328 1.269 . S
O303 Co295 2.074 . S
O303 C328 1.257 . S
H304 C329 0.930 . S
H305 C335 0.930 . S
O306 Co295 2.093 . S
O306 C298 1.224 . S
H307 C339 0.929 . S
H308 C341 0.930 . S
H309 C342 0.930 . S
H310 C340 0.940 . S
H311 C343 0.928 . S
O312 Co296 2.057 . S
O312 C300 1.232 . S
H313 C332 0.929 . S
H314 C333 0.929 . S
H315 C345 0.931 . S
H316 C337 0.929 . S
H317 C346 0.930 . S
H318 C338 0.931 . S
O319 Co295 2.097 . S
O319 C347 1.214 . S
H320 C348 0.929 . S
H321 C349 0.929 . S
H322 C350 0.930 . S
H323 C351 0.929 . S
H324 C353 0.930 . S
H325 C330 0.930 . S
H326 C334 0.930 . S
O327 Co296 2.037 . S
O327 C347 1.234 . S
C328 O302 1.269 . S
C328 O303 1.257 . S
C329 H304 0.930 . S
C329 C332 1.388 . S
C329 C334 1.418 . S
C330 H325 0.930 . S
C330 C333 1.404 . S
C330 C334 1.353 . S
N331 Co296 2.145 . S
N331 C332 1.397 . S
N331 C333 1.334 . S
C332 H313 0.929 . S
C332 C329 1.388 . S
C332 N331 1.397 . S
C333 H314 0.929 . S
C333 C330 1.404 . S
C333 N331 1.334 . S
C334 H326 0.930 . S
C334 C329 1.418 . S
C334 C330 1.353 . S
C335 H305 0.930 . S
C335 N336 1.330 . S
C335 C337 1.446 . S
N336 Co295 2.151 . S
N336 C335 1.330 . S
N336 C340 1.399 1_455 S
C337 H316 0.929 . S
C337 C335 1.446 . S
C337 C338 1.332 1_455 S
C338 H318 0.931 . S
C338 C337 1.332 1_655 S
C338 C339 1.267 . S
C339 H307 0.929 . S
C339 C338 1.267 . S
C339 C340 1.260 . S
C340 H310 0.940 . S
C340 N336 1.399 1_655 S
C340 C339 1.260 . S
C341 H308 0.930 . S
C341 C343 1.406 . S
C341 C346 1.261 . S
C342 H309 0.930 . S
C342 N344 1.325 . S
C342 C345 1.357 1_455 S
C343 H311 0.928 . S
C343 C341 1.406 . S
C343 N344 1.261 1_655 S
N344 Co295 2.214 . S
N344 C342 1.325 . S
N344 C343 1.261 1_455 S
C345 H315 0.931 . S
C345 C342 1.357 1_655 S
C345 C346 1.312 . S
C346 H317 0.930 . S
C346 C341 1.261 . S
C346 C345 1.312 . S
C347 O319 1.214 . S
C347 O327 1.234 . S
C348 H320 0.929 . S
C348 C351 1.391 . S
C348 C353 1.391 . S
C349 H321 0.929 . S
C349 C350 1.390 . S
C349 N352 1.391 . S
C350 H322 0.930 . S
C350 C349 1.390 . S
C350 C351 1.392 . S
C351 H323 0.929 . S
C351 C348 1.391 . S
C351 C350 1.392 . S
N352 Co296 2.257 . S
N352 C349 1.391 . S
N352 C353 1.388 . S
C353 H324 0.930 . S
C353 C348 1.391 . S
C353 N352 1.388 . S
Co354 O356 2.143 . S
Co354 O362 2.074 . S
Co354 O365 2.093 . S
Co354 O378 2.097 . S
Co354 N395 2.151 . S
Co354 N403 2.214 . S
Co355 O356 2.160 . S
Co355 O361 2.058 . S
Co355 O371 2.057 . S
Co355 O386 2.037 . S
Co355 N390 2.145 . S
Co355 N411 2.257 . S
O356 Co354 2.143 . S
O356 Co355 2.160 . S
C357 O358 1.278 . S
C357 O365 1.224 . S
O358 C357 1.278 . S
C359 O360 1.245 . S
C359 O371 1.232 . S
O360 C359 1.245 . S
O361 Co355 2.058 . S
O361 C387 1.269 . S
O362 Co354 2.074 . S
O362 C387 1.257 . S
H363 C388 0.930 . S
H364 C394 0.930 . S
O365 Co354 2.093 . S
O365 C357 1.224 . S
H366 C398 0.929 . S
H367 C400 0.930 . S
H368 C401 0.930 . S
H369 C399 0.929 . S
H370 C402 0.928 . S
O371 Co355 2.057 . S
O371 C359 1.232 . S
H372 C391 0.929 . S
H373 C392 0.929 . S
H374 C404 0.931 . S
H375 C396 0.929 . S
H376 C405 0.930 . S
H377 C397 0.931 . S
O378 Co354 2.097 . S
O378 C406 1.214 . S
H379 C407 0.929 . S
H380 C408 0.929 . S
H381 C409 0.930 . S
H382 C410 0.929 . S
H383 C412 0.930 . S
H384 C389 0.948 . S
H385 C393 0.930 1_455 S
O386 Co355 2.037 . S
O386 C406 1.234 . S
C387 O361 1.269 . S
C387 O362 1.257 . S
C388 H363 0.930 . S
C388 C391 1.388 . S
C388 C393 1.418 . S
C389 H384 0.948 . S
C389 C392 1.392 1_455 S
C389 C393 1.346 1_455 S
N390 Co355 2.145 . S
N390 C391 1.397 . S
N390 C392 1.334 . S
C391 H372 0.929 . S
C391 C388 1.388 . S
C391 N390 1.397 . S
C392 H373 0.929 . S
C392 C389 1.392 1_655 S
C392 N390 1.334 . S
C393 H385 0.930 1_655 S
C393 C388 1.418 . S
C393 C389 1.346 1_655 S
C394 H364 0.930 . S
C394 N395 1.330 . S
C394 C396 1.446 . S
N395 Co354 2.151 . S
N395 C394 1.330 . S
N395 C399 1.418 . S
C396 H375 0.929 . S
C396 C394 1.446 . S
C396 C397 1.332 . S
C397 H377 0.931 . S
C397 C396 1.332 . S
C397 C398 1.267 . S
C398 H366 0.929 . S
C398 C397 1.267 . S
C398 C399 1.251 . S
C399 H369 0.929 . S
C399 N395 1.418 . S
C399 C398 1.251 . S
C400 H367 0.930 . S
C400 C402 1.406 . S
C400 C405 1.261 . S
C401 H368 0.930 . S
C401 N403 1.325 . S
C401 C404 1.357 . S
C402 H370 0.928 . S
C402 C400 1.406 . S
C402 N403 1.261 . S
N403 Co354 2.214 . S
N403 C401 1.325 . S
N403 C402 1.261 . S
C404 H374 0.931 . S
C404 C401 1.357 . S
C404 C405 1.312 . S
C405 H376 0.930 . S
C405 C400 1.261 . S
C405 C404 1.312 . S
C406 O378 1.214 . S
C406 O386 1.234 . S
C407 H379 0.929 . S
C407 C410 1.391 . S
C407 C412 1.391 1_455 S
C408 H380 0.929 . S
C408 C409 1.390 1_655 S
C408 N411 1.391 . S
C409 H381 0.930 . S
C409 C408 1.390 1_455 S
C409 C410 1.392 . S
C410 H382 0.929 . S
C410 C407 1.391 . S
C410 C409 1.392 . S
N411 Co355 2.257 . S
N411 C408 1.391 . S
N411 C412 1.388 . S
C412 H383 0.930 . S
C412 C407 1.391 1_655 S
C412 N411 1.388 . S
Co413 O415 2.143 . S
Co413 O421 2.074 . S
Co413 O424 2.093 . S
Co413 O437 2.097 . S
Co413 N454 2.151 . S
Co413 N462 2.214 . S
Co414 O415 2.160 . S
Co414 O420 2.058 . S
Co414 O430 2.057 . S
Co414 O445 2.037 . S
Co414 N449 2.145 . S
Co414 N470 2.257 . S
O415 Co413 2.143 . S
O415 Co414 2.160 . S
C416 O417 1.278 . S
C416 O424 1.224 . S
O417 C416 1.278 . S
C418 O419 1.245 . S
C418 O430 1.232 . S
O419 C418 1.245 . S
O420 Co414 2.058 . S
O420 C446 1.269 . S
O421 Co413 2.074 . S
O421 C446 1.257 . S
H422 C447 0.930 . S
H423 C453 0.930 . S
O424 Co413 2.093 . S
O424 C416 1.224 . S
H425 C457 0.929 . S
H426 C459 0.930 . S
H427 C460 0.930 . S
H428 C458 0.940 . S
H429 C461 0.928 . S
O430 Co414 2.057 . S
O430 C418 1.232 . S
H431 C450 0.929 . S
H432 C451 0.929 . S
H433 C463 0.931 . S
H434 C455 0.929 . S
H435 C464 0.930 . S
H436 C456 0.931 . S
O437 Co413 2.097 . S
O437 C465 1.214 . S
H438 C466 0.929 . S
H439 C467 0.929 . S
H440 C468 0.930 . S
H441 C469 0.929 . S
H442 C471 0.930 . S
H443 C448 0.930 . S
H444 C452 0.930 . S
O445 Co414 2.037 . S
O445 C465 1.234 . S
C446 O420 1.269 . S
C446 O421 1.257 . S
C447 H422 0.930 . S
C447 C450 1.388 . S
C447 C452 1.418 . S
C448 H443 0.930 . S
C448 C451 1.404 . S
C448 C452 1.353 . S
N449 Co414 2.145 . S
N449 C450 1.397 . S
N449 C451 1.334 . S
C450 H431 0.929 . S
C450 C447 1.388 . S
C450 N449 1.397 . S
C451 H432 0.929 . S
C451 C448 1.404 . S
C451 N449 1.334 . S
C452 H444 0.930 . S
C452 C447 1.418 . S
C452 C448 1.353 . S
C453 H423 0.930 . S
C453 N454 1.330 . S
C453 C455 1.446 . S
N454 Co413 2.151 . S
N454 C453 1.330 . S
N454 C458 1.399 1_655 S
C455 H434 0.929 . S
C455 C453 1.446 . S
C455 C456 1.332 1_655 S
C456 H436 0.931 . S
C456 C455 1.332 1_455 S
C456 C457 1.267 . S
C457 H425 0.929 . S
C457 C456 1.267 . S
C457 C458 1.260 . S
C458 H428 0.940 . S
C458 N454 1.399 1_455 S
C458 C457 1.260 . S
C459 H426 0.930 . S
C459 C461 1.406 . S
C459 C464 1.261 . S
C460 H427 0.930 . S
C460 N462 1.325 . S
C460 C463 1.357 1_655 S
C461 H429 0.928 . S
C461 C459 1.406 . S
C461 N462 1.261 1_455 S
N462 Co413 2.214 . S
N462 C460 1.325 . S
N462 C461 1.261 1_655 S
C463 H433 0.931 . S
C463 C460 1.357 1_455 S
C463 C464 1.312 . S
C464 H435 0.930 . S
C464 C459 1.261 . S
C464 C463 1.312 . S
C465 O437 1.214 . S
C465 O445 1.234 . S
C466 H438 0.929 . S
C466 C469 1.391 . S
C466 C471 1.391 . S
C467 H439 0.929 . S
C467 C468 1.390 . S
C467 N470 1.391 . S
C468 H440 0.930 . S
C468 C467 1.390 . S
C468 C469 1.392 . S
C469 H441 0.929 . S
C469 C466 1.391 . S
C469 C468 1.392 . S
N470 Co414 2.257 . S
N470 C467 1.391 . S
N470 C471 1.388 . S
C471 H442 0.930 . S
C471 C466 1.391 . S
C471 N470 1.388 . S
Co472 O474 2.143 . S
Co472 O480 2.074 . S
Co472 O483 2.093 1_545 S
Co472 O496 2.097 . S
Co472 N513 2.151 1_545 S
Co472 N521 2.214 . S
Co473 O474 2.160 . S
Co473 O479 2.058 . S
Co473 O489 2.057 . S
Co473 O504 2.037 . S
Co473 N508 2.145 . S
Co473 N529 2.257 . S
O474 Co472 2.143 . S
O474 Co473 2.160 . S
C475 O476 1.278 . S
C475 O483 1.224 . S
O476 C475 1.278 . S
C477 O478 1.245 . S
C477 O489 1.232 . S
O478 C477 1.245 . S
O479 Co473 2.058 . S
O479 C505 1.269 . S
O480 Co472 2.074 . S
O480 C505 1.257 . S
H481 C506 0.930 . S
H482 C512 0.930 . S
O483 Co472 2.093 1_565 S
O483 C475 1.224 . S
H484 C516 0.929 . S
H485 C518 0.930 . S
H486 C519 0.930 . S
H487 C517 0.929 . S
H488 C520 0.928 . S
O489 Co473 2.057 . S
O489 C477 1.232 . S
H490 C509 0.929 . S
H491 C510 0.929 . S
H492 C522 0.931 . S
H493 C514 0.929 . S
H494 C523 0.930 . S
H495 C515 0.931 . S
O496 Co472 2.097 . S
O496 C524 1.214 . S
H497 C525 0.929 . S
H498 C526 0.929 . S
H499 C527 0.930 . S
H500 C528 0.929 . S
H501 C530 0.930 . S
H502 C507 0.930 . S
H503 C511 0.930 . S
O504 Co473 2.037 . S
O504 C524 1.234 . S
C505 O479 1.269 . S
C505 O480 1.257 . S
C506 H481 0.930 . S
C506 C509 1.388 . S
C506 C511 1.418 . S
C507 H502 0.930 . S
C507 C510 1.404 . S
C507 C511 1.353 . S
N508 Co473 2.145 . S
N508 C509 1.397 . S
N508 C510 1.334 . S
C509 H490 0.929 . S
C509 C506 1.388 . S
C509 N508 1.397 . S
C510 H491 0.929 . S
C510 C507 1.404 . S
C510 N508 1.334 . S
C511 H503 0.930 . S
C511 C506 1.418 . S
C511 C507 1.353 . S
C512 H482 0.930 . S
C512 N513 1.330 . S
C512 C514 1.446 . S
N513 Co472 2.151 1_565 S
N513 C512 1.330 . S
N513 C517 1.418 1_565 S
C514 H493 0.929 . S
C514 C512 1.446 . S
C514 C515 1.332 . S
C515 H495 0.931 . S
C515 C514 1.332 . S
C515 C516 1.267 . S
C516 H484 0.929 . S
C516 C515 1.267 . S
C516 C517 1.251 1_565 S
C517 H487 0.929 . S
C517 N513 1.418 1_545 S
C517 C516 1.251 1_545 S
C518 H485 0.930 . S
C518 C520 1.406 . S
C518 C523 1.261 . S
C519 H486 0.930 . S
C519 N521 1.325 . S
C519 C522 1.357 . S
C520 H488 0.928 . S
C520 C518 1.406 . S
C520 N521 1.261 . S
N521 Co472 2.214 . S
N521 C519 1.325 . S
N521 C520 1.261 . S
C522 H492 0.931 . S
C522 C519 1.357 . S
C522 C523 1.312 . S
C523 H494 0.930 . S
C523 C518 1.261 . S
C523 C522 1.312 . S
C524 O496 1.214 . S
C524 O504 1.234 . S
C525 H497 0.929 . S
C525 C528 1.391 . S
C525 C530 1.391 . S
C526 H498 0.929 . S
C526 C527 1.390 . S
C526 N529 1.391 . S
C527 H499 0.930 . S
C527 C526 1.390 . S
C527 C528 1.392 . S
C528 H500 0.929 . S
C528 C525 1.391 . S
C528 C527 1.392 . S
N529 Co473 2.257 . S
N529 C526 1.391 . S
N529 C530 1.388 . S
C530 H501 0.930 . S
C530 C525 1.391 . S
C530 N529 1.388 . S
Co531 O533 2.143 . S
Co531 O539 2.074 . S
Co531 O542 2.093 1_545 S
Co531 O555 2.097 . S
Co531 N572 2.151 1_545 S
Co531 N580 2.214 . S
Co532 O533 2.160 . S
Co532 O538 2.058 . S
Co532 O548 2.057 . S
Co532 O563 2.037 . S
Co532 N567 2.145 . S
Co532 N588 2.257 . S
O533 Co531 2.143 . S
O533 Co532 2.160 . S
C534 O535 1.278 . S
C534 O542 1.224 . S
O535 C534 1.278 . S
C536 O537 1.245 . S
C536 O548 1.232 . S
O537 C536 1.245 . S
O538 Co532 2.058 . S
O538 C564 1.269 . S
O539 Co531 2.074 . S
O539 C564 1.257 . S
H540 C565 0.930 . S
H541 C571 0.930 . S
O542 Co531 2.093 1_565 S
O542 C534 1.224 . S
H543 C575 0.929 . S
H544 C577 0.930 . S
H545 C578 0.930 . S
H546 C576 0.929 . S
H547 C579 0.928 . S
O548 Co532 2.057 . S
O548 C536 1.232 . S
H549 C568 0.929 . S
H550 C569 0.929 . S
H551 C581 0.931 . S
H552 C573 0.929 . S
H553 C582 0.930 . S
H554 C574 0.931 . S
O555 Co531 2.097 . S
O555 C583 1.214 . S
H556 C584 0.929 . S
H557 C585 0.929 . S
H558 C586 0.930 . S
H559 C587 0.929 . S
H560 C589 0.930 . S
H561 C566 0.930 . S
H562 C570 0.930 . S
O563 Co532 2.037 . S
O563 C583 1.234 . S
C564 O538 1.269 . S
C564 O539 1.257 . S
C565 H540 0.930 . S
C565 C568 1.388 . S
C565 C570 1.418 . S
C566 H561 0.930 . S
C566 C569 1.404 . S
C566 C570 1.353 . S
N567 Co532 2.145 . S
N567 C568 1.397 . S
N567 C569 1.334 . S
C568 H549 0.929 . S
C568 C565 1.388 . S
C568 N567 1.397 . S
C569 H550 0.929 . S
C569 C566 1.404 . S
C569 N567 1.334 . S
C570 H562 0.930 . S
C570 C565 1.418 . S
C570 C566 1.353 . S
C571 H541 0.930 . S
C571 N572 1.330 . S
C571 C573 1.446 . S
N572 Co531 2.151 1_565 S
N572 C571 1.330 . S
N572 C576 1.418 1_565 S
C573 H552 0.929 . S
C573 C571 1.446 . S
C573 C574 1.332 . S
C574 H554 0.931 . S
C574 C573 1.332 . S
C574 C575 1.267 . S
C575 H543 0.929 . S
C575 C574 1.267 . S
C575 C576 1.251 1_565 S
C576 H546 0.929 . S
C576 N572 1.418 1_545 S
C576 C575 1.251 1_545 S
C577 H544 0.930 . S
C577 C579 1.406 . S
C577 C582 1.261 . S
C578 H545 0.930 . S
C578 N580 1.325 . S
C578 C581 1.357 . S
C579 H547 0.928 . S
C579 C577 1.406 . S
C579 N580 1.261 . S
N580 Co531 2.214 . S
N580 C578 1.325 . S
N580 C579 1.261 . S
C581 H551 0.931 . S
C581 C578 1.357 . S
C581 C582 1.312 . S
C582 H553 0.930 . S
C582 C577 1.261 . S
C582 C581 1.312 . S
C583 O555 1.214 . S
C583 O563 1.234 . S
C584 H556 0.929 . S
C584 C587 1.391 . S
C584 C589 1.391 . S
C585 H557 0.929 . S
C585 C586 1.390 . S
C585 N588 1.391 . S
C586 H558 0.930 . S
C586 C585 1.390 . S
C586 C587 1.392 . S
C587 H559 0.929 . S
C587 C584 1.391 . S
C587 C586 1.392 . S
N588 Co532 2.257 . S
N588 C585 1.391 . S
N588 C589 1.388 . S
C589 H560 0.930 . S
C589 C584 1.391 . S
C589 N588 1.388 . S
Co590 O592 2.143 . S
Co590 O598 2.074 . S
Co590 O601 2.093 1_565 S
Co590 O614 2.097 . S
Co590 N631 2.151 1_565 S
Co590 N639 2.214 . S
Co591 O592 2.160 . S
Co591 O597 2.058 . S
Co591 O607 2.057 . S
Co591 O622 2.037 . S
Co591 N626 2.145 . S
Co591 N647 2.257 . S
O592 Co590 2.143 . S
O592 Co591 2.160 . S
C593 O594 1.278 . S
C593 O601 1.224 . S
O594 C593 1.278 . S
C595 O596 1.245 . S
C595 O607 1.232 . S
O596 C595 1.245 . S
O597 Co591 2.058 . S
O597 C623 1.269 . S
O598 Co590 2.074 . S
O598 C623 1.257 . S
H599 C624 0.930 . S
H600 C630 0.930 . S
O601 Co590 2.093 1_545 S
O601 C593 1.224 . S
H602 C634 0.929 . S
H603 C636 0.930 . S
H604 C637 0.930 . S
H605 C635 0.929 . S
H606 C638 0.928 . S
O607 Co591 2.057 . S
O607 C595 1.232 . S
H608 C627 0.929 . S
H609 C628 0.929 . S
H610 C640 0.931 . S
H611 C632 0.929 . S
H612 C641 0.930 . S
H613 C633 0.931 . S
O614 Co590 2.097 . S
O614 C642 1.214 . S
H615 C643 0.929 . S
H616 C644 0.929 . S
H617 C645 0.930 . S
H618 C646 0.929 . S
H619 C648 0.930 . S
H620 C625 0.930 . S
H621 C629 0.930 . S
O622 Co591 2.037 . S
O622 C642 1.234 . S
C623 O597 1.269 . S
C623 O598 1.257 . S
C624 H599 0.930 . S
C624 C627 1.388 . S
C624 C629 1.418 . S
C625 H620 0.930 . S
C625 C628 1.404 . S
C625 C629 1.353 . S
N626 Co591 2.145 . S
N626 C627 1.397 . S
N626 C628 1.334 . S
C627 H608 0.929 . S
C627 C624 1.388 . S
C627 N626 1.397 . S
C628 H609 0.929 . S
C628 C625 1.404 . S
C628 N626 1.334 . S
C629 H621 0.930 . S
C629 C624 1.418 . S
C629 C625 1.353 . S
C630 H600 0.930 . S
C630 N631 1.330 . S
C630 C632 1.446 . S
N631 Co590 2.151 1_545 S
N631 C630 1.330 . S
N631 C635 1.418 1_545 S
C632 H611 0.929 . S
C632 C630 1.446 . S
C632 C633 1.332 . S
C633 H613 0.931 . S
C633 C632 1.332 . S
C633 C634 1.267 . S
C634 H602 0.929 . S
C634 C633 1.267 . S
C634 C635 1.251 1_545 S
C635 H605 0.929 . S
C635 N631 1.418 1_565 S
C635 C634 1.251 1_565 S
C636 H603 0.930 . S
C636 C638 1.406 . S
C636 C641 1.261 . S
C637 H604 0.930 . S
C637 N639 1.325 . S
C637 C640 1.357 . S
C638 H606 0.928 . S
C638 C636 1.406 . S
C638 N639 1.261 . S
N639 Co590 2.214 . S
N639 C637 1.325 . S
N639 C638 1.261 . S
C640 H610 0.931 . S
C640 C637 1.357 . S
C640 C641 1.312 . S
C641 H612 0.930 . S
C641 C636 1.261 . S
C641 C640 1.312 . S
C642 O614 1.214 . S
C642 O622 1.234 . S
C643 H615 0.929 . S
C643 C646 1.391 . S
C643 C648 1.391 . S
C644 H616 0.929 . S
C644 C645 1.390 . S
C644 N647 1.391 . S
C645 H617 0.930 . S
C645 C644 1.390 . S
C645 C646 1.392 . S
C646 H618 0.929 . S
C646 C643 1.391 . S
C646 C645 1.392 . S
N647 Co591 2.257 . S
N647 C644 1.391 . S
N647 C648 1.388 . S
C648 H619 0.930 . S
C648 C643 1.391 . S
C648 N647 1.388 . S
Co649 O651 2.143 . S
Co649 O657 2.074 . S
Co649 O660 2.093 1_565 S
Co649 O673 2.097 . S
Co649 N690 2.151 1_565 S
Co649 N698 2.214 . S
Co650 O651 2.160 . S
Co650 O656 2.058 . S
Co650 O666 2.057 . S
Co650 O681 2.037 . S
Co650 N685 2.145 . S
Co650 N706 2.257 . S
O651 Co649 2.143 . S
O651 Co650 2.160 . S
C652 O653 1.278 . S
C652 O660 1.224 . S
O653 C652 1.278 . S
C654 O655 1.245 . S
C654 O666 1.232 . S
O655 C654 1.245 . S
O656 Co650 2.058 . S
O656 C682 1.269 . S
O657 Co649 2.074 . S
O657 C682 1.257 . S
H658 C683 0.930 . S
H659 C689 0.930 . S
O660 Co649 2.093 1_545 S
O660 C652 1.224 . S
H661 C693 0.929 . S
H662 C695 0.930 . S
H663 C696 0.930 . S
H664 C694 0.929 . S
H665 C697 0.928 . S
O666 Co650 2.057 . S
O666 C654 1.232 . S
H667 C686 0.929 . S
H668 C687 0.929 . S
H669 C699 0.931 . S
H670 C691 0.929 . S
H671 C700 0.930 . S
H672 C692 0.931 . S
O673 Co649 2.097 . S
O673 C701 1.214 . S
H674 C702 0.929 . S
H675 C703 0.929 . S
H676 C704 0.930 . S
H677 C705 0.929 . S
H678 C707 0.930 . S
H679 C684 0.930 . S
H680 C688 0.930 . S
O681 Co650 2.037 . S
O681 C701 1.234 . S
C682 O656 1.269 . S
C682 O657 1.257 . S
C683 H658 0.930 . S
C683 C686 1.388 . S
C683 C688 1.418 . S
C684 H679 0.930 . S
C684 C687 1.404 . S
C684 C688 1.353 . S
N685 Co650 2.145 . S
N685 C686 1.397 . S
N685 C687 1.334 . S
C686 H667 0.929 . S
C686 C683 1.388 . S
C686 N685 1.397 . S
C687 H668 0.929 . S
C687 C684 1.404 . S
C687 N685 1.334 . S
C688 H680 0.930 . S
C688 C683 1.418 . S
C688 C684 1.353 . S
C689 H659 0.930 . S
C689 N690 1.330 . S
C689 C691 1.446 . S
N690 Co649 2.151 1_545 S
N690 C689 1.330 . S
N690 C694 1.418 1_545 S
C691 H670 0.929 . S
C691 C689 1.446 . S
C691 C692 1.332 . S
C692 H672 0.931 . S
C692 C691 1.332 . S
C692 C693 1.267 . S
C693 H661 0.929 . S
C693 C692 1.267 . S
C693 C694 1.251 1_545 S
C694 H664 0.929 . S
C694 N690 1.418 1_565 S
C694 C693 1.251 1_565 S
C695 H662 0.930 . S
C695 C697 1.406 . S
C695 C700 1.261 . S
C696 H663 0.930 . S
C696 N698 1.325 . S
C696 C699 1.357 . S
C697 H665 0.928 . S
C697 C695 1.406 . S
C697 N698 1.261 . S
N698 Co649 2.214 . S
N698 C696 1.325 . S
N698 C697 1.261 . S
C699 H669 0.931 . S
C699 C696 1.357 . S
C699 C700 1.312 . S
C700 H671 0.930 . S
C700 C695 1.261 . S
C700 C699 1.312 . S
C701 O673 1.214 . S
C701 O681 1.234 . S
C702 H674 0.929 . S
C702 C705 1.391 . S
C702 C707 1.391 . S
C703 H675 0.929 . S
C703 C704 1.390 . S
C703 N706 1.391 . S
C704 H676 0.930 . S
C704 C703 1.390 . S
C704 C705 1.392 . S
C705 H677 0.929 . S
C705 C702 1.391 . S
C705 C704 1.392 . S
N706 Co650 2.257 . S
N706 C703 1.391 . S
N706 C707 1.388 . S
C707 H678 0.930 . S
C707 C702 1.391 . S
C707 N706 1.388 . S
Co708 O710 2.143 . S
Co708 O716 2.074 . S
Co708 O719 2.093 . S
Co708 O732 2.097 . S
Co708 N749 2.151 . S
Co708 N757 2.214 . S
Co709 O710 2.160 . S
Co709 O715 2.058 . S
Co709 O725 2.057 . S
Co709 O740 2.037 . S
Co709 N744 2.145 . S
Co709 N765 2.257 . S
O710 Co708 2.143 . S
O710 Co709 2.160 . S
C711 O712 1.278 . S
C711 O719 1.224 . S
O712 C711 1.278 . S
C713 O714 1.245 . S
C713 O725 1.232 . S
O714 C713 1.245 . S
O715 Co709 2.058 . S
O715 C741 1.269 . S
O716 Co708 2.074 . S
O716 C741 1.257 . S
H717 C742 0.930 . S
H718 C748 0.930 . S
O719 Co708 2.093 . S
O719 C711 1.224 . S
H720 C752 0.929 . S
H721 C754 0.930 . S
H722 C755 0.930 . S
H723 C753 0.929 . S
H724 C756 0.928 . S
O725 Co709 2.057 . S
O725 C713 1.232 . S
H726 C745 0.929 . S
H727 C746 0.929 . S
H728 C758 0.931 . S
H729 C750 0.929 . S
H730 C759 0.930 . S
H731 C751 0.931 . S
O732 Co708 2.097 . S
O732 C760 1.214 . S
H733 C761 0.929 . S
H734 C762 0.929 . S
H735 C763 0.930 . S
H736 C764 0.929 . S
H737 C766 0.930 . S
H738 C743 0.930 . S
H739 C747 0.930 . S
O740 Co709 2.037 . S
O740 C760 1.234 . S
C741 O715 1.269 . S
C741 O716 1.257 . S
C742 H717 0.930 . S
C742 C745 1.388 . S
C742 C747 1.418 . S
C743 H738 0.930 . S
C743 C746 1.404 . S
C743 C747 1.353 . S
N744 Co709 2.145 . S
N744 C745 1.397 . S
N744 C746 1.334 . S
C745 H726 0.929 . S
C745 C742 1.388 . S
C745 N744 1.397 . S
C746 H727 0.929 . S
C746 C743 1.404 . S
C746 N744 1.334 . S
C747 H739 0.930 . S
C747 C742 1.418 . S
C747 C743 1.353 . S
C748 H718 0.930 . S
C748 N749 1.330 . S
C748 C750 1.446 . S
N749 Co708 2.151 . S
N749 C748 1.330 . S
N749 C753 1.418 . S
C750 H729 0.929 . S
C750 C748 1.446 . S
C750 C751 1.332 . S
C751 H731 0.931 . S
C751 C750 1.332 . S
C751 C752 1.267 . S
C752 H720 0.929 . S
C752 C751 1.267 . S
C752 C753 1.251 . S
C753 H723 0.929 . S
C753 N749 1.418 . S
C753 C752 1.251 . S
C754 H721 0.930 . S
C754 C756 1.406 . S
C754 C759 1.261 . S
C755 H722 0.930 . S
C755 N757 1.325 . S
C755 C758 1.357 . S
C756 H724 0.928 . S
C756 C754 1.406 . S
C756 N757 1.261 . S
N757 Co708 2.214 . S
N757 C755 1.325 . S
N757 C756 1.261 . S
C758 H728 0.931 . S
C758 C755 1.357 . S
C758 C759 1.312 . S
C759 H730 0.930 . S
C759 C754 1.261 . S
C759 C758 1.312 . S
C760 O732 1.214 . S
C760 O740 1.234 . S
C761 H733 0.929 . S
C761 C764 1.391 . S
C761 C766 1.391 . S
C762 H734 0.929 . S
C762 C763 1.390 . S
C762 N765 1.391 . S
C763 H735 0.930 . S
C763 C762 1.390 . S
C763 C764 1.392 . S
C764 H736 0.929 . S
C764 C761 1.391 . S
C764 C763 1.392 . S
N765 Co709 2.257 . S
N765 C762 1.391 . S
N765 C766 1.388 . S
C766 H737 0.930 . S
C766 C761 1.391 . S
C766 N765 1.388 . S
Co767 O769 2.143 . S
Co767 O775 2.074 . S
Co767 O778 2.093 . S
Co767 O791 2.097 . S
Co767 N808 2.151 . S
Co767 N816 2.214 . S
Co768 O769 2.160 . S
Co768 O774 2.058 . S
Co768 O784 2.057 . S
Co768 O799 2.037 . S
Co768 N803 2.145 . S
Co768 N824 2.257 . S
O769 Co767 2.143 . S
O769 Co768 2.160 . S
C770 O771 1.278 . S
C770 O778 1.224 . S
O771 C770 1.278 . S
C772 O773 1.245 . S
C772 O784 1.232 . S
O773 C772 1.245 . S
O774 Co768 2.058 . S
O774 C800 1.269 . S
O775 Co767 2.074 . S
O775 C800 1.257 . S
H776 C801 0.930 . S
H777 C807 0.930 . S
O778 Co767 2.093 . S
O778 C770 1.224 . S
H779 C811 0.929 . S
H780 C813 0.930 . S
H781 C814 0.930 . S
H782 C812 0.929 . S
H783 C815 0.928 . S
O784 Co768 2.057 . S
O784 C772 1.232 . S
H785 C804 0.929 . S
H786 C805 0.929 . S
H787 C817 0.931 . S
H788 C809 0.929 . S
H789 C818 0.930 . S
H790 C810 0.931 . S
O791 Co767 2.097 . S
O791 C819 1.214 . S
H792 C820 0.929 . S
H793 C821 0.929 . S
H794 C822 0.930 . S
H795 C823 0.929 . S
H796 C825 0.930 . S
H797 C802 0.930 . S
H798 C806 0.930 . S
O799 Co768 2.037 . S
O799 C819 1.234 . S
C800 O774 1.269 . S
C800 O775 1.257 . S
C801 H776 0.930 . S
C801 C804 1.388 . S
C801 C806 1.418 . S
C802 H797 0.930 . S
C802 C805 1.404 . S
C802 C806 1.353 . S
N803 Co768 2.145 . S
N803 C804 1.397 . S
N803 C805 1.334 . S
C804 H785 0.929 . S
C804 C801 1.388 . S
C804 N803 1.397 . S
C805 H786 0.929 . S
C805 C802 1.404 . S
C805 N803 1.334 . S
C806 H798 0.930 . S
C806 C801 1.418 . S
C806 C802 1.353 . S
C807 H777 0.930 . S
C807 N808 1.330 . S
C807 C809 1.446 . S
N808 Co767 2.151 . S
N808 C807 1.330 . S
N808 C812 1.418 . S
C809 H788 0.929 . S
C809 C807 1.446 . S
C809 C810 1.332 . S
C810 H790 0.931 . S
C810 C809 1.332 . S
C810 C811 1.267 . S
C811 H779 0.929 . S
C811 C810 1.267 . S
C811 C812 1.251 . S
C812 H782 0.929 . S
C812 N808 1.418 . S
C812 C811 1.251 . S
C813 H780 0.930 . S
C813 C815 1.406 . S
C813 C818 1.261 . S
C814 H781 0.930 . S
C814 N816 1.325 . S
C814 C817 1.357 . S
C815 H783 0.928 . S
C815 C813 1.406 . S
C815 N816 1.261 . S
N816 Co767 2.214 . S
N816 C814 1.325 . S
N816 C815 1.261 . S
C817 H787 0.931 . S
C817 C814 1.357 . S
C817 C818 1.312 . S
C818 H789 0.930 . S
C818 C813 1.261 . S
C818 C817 1.312 . S
C819 O791 1.214 . S
C819 O799 1.234 . S
C820 H792 0.929 . S
C820 C823 1.391 . S
C820 C825 1.391 . S
C821 H793 0.929 . S
C821 C822 1.390 . S
C821 N824 1.391 . S
C822 H794 0.930 . S
C822 C821 1.390 . S
C822 C823 1.392 . S
C823 H795 0.929 . S
C823 C820 1.391 . S
C823 C822 1.392 . S
N824 Co768 2.257 . S
N824 C821 1.391 . S
N824 C825 1.388 . S
C825 H796 0.930 . S
C825 C820 1.391 . S
C825 N824 1.388 . S
Co826 O828 2.143 . S
Co826 O834 2.074 . S
Co826 O837 2.093 . S
Co826 O850 2.097 . S
Co826 N867 2.151 . S
Co826 N875 2.214 . S
Co827 O828 2.160 . S
Co827 O833 2.058 . S
Co827 O843 2.057 . S
Co827 O858 2.037 . S
Co827 N862 2.145 . S
Co827 N883 2.257 . S
O828 Co826 2.143 . S
O828 Co827 2.160 . S
C829 O830 1.278 . S
C829 O837 1.224 . S
O830 C829 1.278 . S
C831 O832 1.245 . S
C831 O843 1.232 . S
O832 C831 1.245 . S
O833 Co827 2.058 . S
O833 C859 1.269 . S
O834 Co826 2.074 . S
O834 C859 1.257 . S
H835 C860 0.930 . S
H836 C866 0.930 . S
O837 Co826 2.093 . S
O837 C829 1.224 . S
H838 C870 0.929 . S
H839 C872 0.930 . S
H840 C873 0.930 . S
H841 C871 0.929 . S
H842 C874 0.928 . S
O843 Co827 2.057 . S
O843 C831 1.232 . S
H844 C863 0.929 . S
H845 C864 0.929 . S
H846 C876 0.931 . S
H847 C868 0.929 . S
H848 C877 0.930 . S
H849 C869 0.931 . S
O850 Co826 2.097 . S
O850 C878 1.214 . S
H851 C879 0.929 . S
H852 C880 0.929 . S
H853 C881 0.930 . S
H854 C882 0.929 . S
H855 C884 0.930 . S
H856 C861 0.930 . S
H857 C865 0.930 . S
O858 Co827 2.037 . S
O858 C878 1.234 . S
C859 O833 1.269 . S
C859 O834 1.257 . S
C860 H835 0.930 . S
C860 C863 1.388 . S
C860 C865 1.418 . S
C861 H856 0.930 . S
C861 C864 1.404 . S
C861 C865 1.353 . S
N862 Co827 2.145 . S
N862 C863 1.397 . S
N862 C864 1.334 . S
C863 H844 0.929 . S
C863 C860 1.388 . S
C863 N862 1.397 . S
C864 H845 0.929 . S
C864 C861 1.404 . S
C864 N862 1.334 . S
C865 H857 0.930 . S
C865 C860 1.418 . S
C865 C861 1.353 . S
C866 H836 0.930 . S
C866 N867 1.330 . S
C866 C868 1.446 . S
N867 Co826 2.151 . S
N867 C866 1.330 . S
N867 C871 1.418 . S
C868 H847 0.929 . S
C868 C866 1.446 . S
C868 C869 1.332 . S
C869 H849 0.931 . S
C869 C868 1.332 . S
C869 C870 1.267 . S
C870 H838 0.929 . S
C870 C869 1.267 . S
C870 C871 1.251 . S
C871 H841 0.929 . S
C871 N867 1.418 . S
C871 C870 1.251 . S
C872 H839 0.930 . S
C872 C874 1.406 . S
C872 C877 1.261 . S
C873 H840 0.930 . S
C873 N875 1.325 . S
C873 C876 1.357 . S
C874 H842 0.928 . S
C874 C872 1.406 . S
C874 N875 1.261 . S
N875 Co826 2.214 . S
N875 C873 1.325 . S
N875 C874 1.261 . S
C876 H846 0.931 . S
C876 C873 1.357 . S
C876 C877 1.312 . S
C877 H848 0.930 . S
C877 C872 1.261 . S
C877 C876 1.312 . S
C878 O850 1.214 . S
C878 O858 1.234 . S
C879 H851 0.929 . S
C879 C882 1.391 . S
C879 C884 1.391 . S
C880 H852 0.929 . S
C880 C881 1.390 . S
C880 N883 1.391 . S
C881 H853 0.930 . S
C881 C880 1.390 . S
C881 C882 1.392 . S
C882 H854 0.929 . S
C882 C879 1.391 . S
C882 C881 1.392 . S
N883 Co827 2.257 . S
N883 C880 1.391 . S
N883 C884 1.388 . S
C884 H855 0.930 . S
C884 C879 1.391 . S
C884 N883 1.388 . S
Co885 O887 2.143 . S
Co885 O893 2.074 . S
Co885 O896 2.093 . S
Co885 O909 2.097 . S
Co885 N926 2.151 . S
Co885 N934 2.214 . S
Co886 O887 2.160 . S
Co886 O892 2.058 . S
Co886 O902 2.057 . S
Co886 O917 2.037 . S
Co886 N921 2.145 . S
Co886 N942 2.257 . S
O887 Co885 2.143 . S
O887 Co886 2.160 . S
C888 O889 1.278 . S
C888 O896 1.224 . S
O889 C888 1.278 . S
C890 O891 1.245 . S
C890 O902 1.232 . S
O891 C890 1.245 . S
O892 Co886 2.058 . S
O892 C918 1.269 . S
O893 Co885 2.074 . S
O893 C918 1.257 . S
H894 C919 0.930 . S
H895 C925 0.930 . S
O896 Co885 2.093 . S
O896 C888 1.224 . S
H897 C929 0.929 . S
H898 C931 0.930 . S
H899 C932 0.930 . S
H900 C930 0.929 . S
H901 C933 0.928 . S
O902 Co886 2.057 . S
O902 C890 1.232 . S
H903 C922 0.929 . S
H904 C923 0.929 . S
H905 C935 0.931 . S
H906 C927 0.929 . S
H907 C936 0.930 . S
H908 C928 0.931 . S
O909 Co885 2.097 . S
O909 C937 1.214 . S
H910 C938 0.929 . S
H911 C939 0.929 . S
H912 C940 0.930 . S
H913 C941 0.929 . S
H914 C943 0.930 . S
H915 C920 0.930 . S
H916 C924 0.930 . S
O917 Co886 2.037 . S
O917 C937 1.234 . S
C918 O892 1.269 . S
C918 O893 1.257 . S
C919 H894 0.930 . S
C919 C922 1.388 . S
C919 C924 1.418 . S
C920 H915 0.930 . S
C920 C923 1.404 . S
C920 C924 1.353 . S
N921 Co886 2.145 . S
N921 C922 1.397 . S
N921 C923 1.334 . S
C922 H903 0.929 . S
C922 C919 1.388 . S
C922 N921 1.397 . S
C923 H904 0.929 . S
C923 C920 1.404 . S
C923 N921 1.334 . S
C924 H916 0.930 . S
C924 C919 1.418 . S
C924 C920 1.353 . S
C925 H895 0.930 . S
C925 N926 1.330 . S
C925 C927 1.446 . S
N926 Co885 2.151 . S
N926 C925 1.330 . S
N926 C930 1.418 . S
C927 H906 0.929 . S
C927 C925 1.446 . S
C927 C928 1.332 . S
C928 H908 0.931 . S
C928 C927 1.332 . S
C928 C929 1.267 . S
C929 H897 0.929 . S
C929 C928 1.267 . S
C929 C930 1.251 . S
C930 H900 0.929 . S
C930 N926 1.418 . S
C930 C929 1.251 . S
C931 H898 0.930 . S
C931 C933 1.406 . S
C931 C936 1.261 . S
C932 H899 0.930 . S
C932 N934 1.325 . S
C932 C935 1.357 . S
C933 H901 0.928 . S
C933 C931 1.406 . S
C933 N934 1.261 . S
N934 Co885 2.214 . S
N934 C932 1.325 . S
N934 C933 1.261 . S
C935 H905 0.931 . S
C935 C932 1.357 . S
C935 C936 1.312 . S
C936 H907 0.930 . S
C936 C931 1.261 . S
C936 C935 1.312 . S
C937 O909 1.214 . S
C937 O917 1.234 . S
C938 H910 0.929 . S
C938 C941 1.391 . S
C938 C943 1.391 . S
C939 H911 0.929 . S
C939 C940 1.390 . S
C939 N942 1.391 . S
C940 H912 0.930 . S
C940 C939 1.390 . S
C940 C941 1.392 . S
C941 H913 0.929 . S
C941 C938 1.391 . S
C941 C940 1.392 . S
N942 Co886 2.257 . S
N942 C939 1.391 . S
N942 C943 1.388 . S
C943 H914 0.930 . S
C943 C938 1.391 . S
C943 N942 1.388 . S
C944 C945 1.369 . S
C944 C946 1.419 . S
C944 H948 0.930 . S
C945 C944 1.369 . S
C945 C954 1.429 . S
C946 C944 1.419 . S
C946 C947 1.363 . S
C946 H949 0.929 . S
C947 C946 1.363 . S
C947 C953 1.428 . S
H948 C944 0.930 . S
H949 C946 0.929 . S
S950 N951 1.613 . S
S950 N952 1.610 . S
N951 S950 1.613 . S
N951 C954 1.350 . S
N952 S950 1.610 . S
N952 C953 1.351 . S
C953 C947 1.428 . S
C953 N952 1.351 . S
C953 C954 1.434 . S
C954 C945 1.429 . S
C954 N951 1.350 . S
C954 C953 1.434 . S
C955 C956 1.369 1_545 S
C955 C957 1.419 . S
C955 H959 0.930 . S
C956 C955 1.369 1_565 S
C956 C965 1.429 1_655 S
C957 C955 1.419 . S
C957 C958 1.363 1_655 S
C957 H960 0.929 . S
C958 C957 1.363 1_455 S
C958 C964 1.428 1_545 S
H959 C955 0.930 . S
H960 C957 0.929 . S
S961 N962 1.613 . S
S961 N963 1.610 . S
N962 S961 1.613 . S
N962 C965 1.350 . S
N963 S961 1.610 . S
N963 C964 1.351 . S
C964 C958 1.428 1_565 S
C964 N963 1.351 . S
C964 C965 1.434 . S
C965 C956 1.429 1_455 S
C965 N962 1.350 . S
C965 C964 1.434 . S
C966 C967 1.369 . S
C966 C968 1.419 1_565 S
C966 H970 0.930 . S
C967 C966 1.369 . S
C967 C976 1.429 . S
C968 C966 1.419 1_545 S
C968 C969 1.363 . S
C968 H971 0.929 . S
C969 C968 1.363 . S
C969 C975 1.428 . S
H970 C966 0.930 . S
H971 C968 0.929 . S
S972 N973 1.613 . S
S972 N974 1.610 1_565 S
N973 S972 1.613 . S
N973 C976 1.350 . S
N974 S972 1.610 1_545 S
N974 C975 1.351 . S
C975 C969 1.428 . S
C975 N974 1.351 . S
C975 C976 1.434 1_545 S
C976 C967 1.429 . S
C976 N973 1.350 . S
C976 C975 1.434 1_565 S
C977 C978 1.369 1_655 S
C977 C979 1.419 . S
C977 H981 0.930 . S
C978 C977 1.369 1_455 S
C978 C987 1.429 . S
C979 C977 1.419 . S
C979 C980 1.363 . S
C979 H982 0.929 . S
C980 C979 1.363 . S
C980 C986 1.428 1_655 S
H981 C977 0.930 . S
H982 C979 0.929 . S
S983 N984 1.613 . S
S983 N985 1.610 . S
N984 S983 1.613 . S
N984 C987 1.350 . S
N985 S983 1.610 . S
N985 C986 1.351 . S
C986 C980 1.428 1_455 S
C986 N985 1.351 . S
C986 C987 1.434 . S
C987 C978 1.429 . S
C987 N984 1.350 . S
C987 C986 1.434 . S
C988 C989 1.369 . S
C988 C990 1.419 . S
C988 H992 0.930 . S
C989 C988 1.369 . S
C989 C998 1.429 . S
C990 C988 1.419 . S
C990 C991 1.363 . S
C990 H993 0.929 . S
C991 C990 1.363 . S
C991 C997 1.428 . S
H992 C988 0.930 . S
H993 C990 0.929 . S
S994 N995 1.613 . S
S994 N996 1.610 . S
N995 S994 1.613 . S
N995 C998 1.350 . S
N996 S994 1.610 . S
N996 C997 1.351 . S
C997 C991 1.428 . S
C997 N996 1.351 . S
C997 C998 1.434 . S
C998 C989 1.429 . S
C998 N995 1.350 . S
C998 C997 1.434 . S
C999 C1000 1.369 . S
C999 C1001 1.419 . S
C999 H1003 0.930 . S
C1000 C999 1.369 . S
C1000 C1009 1.429 1_545 S
C1001 C999 1.419 . S
C1001 C1002 1.363 1_545 S
C1001 H1004 0.929 . S
C1002 C1001 1.363 1_565 S
C1002 C1008 1.428 . S
H1003 C999 0.930 . S
H1004 C1001 0.929 . S
S1005 N1006 1.613 . S
S1005 N1007 1.610 . S
N1006 S1005 1.613 . S
N1006 C1009 1.350 . S
N1007 S1005 1.610 . S
N1007 C1008 1.351 . S
C1008 C1002 1.428 . S
C1008 N1007 1.351 . S
C1008 C1009 1.434 . S
C1009 C1000 1.429 1_565 S
C1009 N1006 1.350 . S
C1009 C1008 1.434 . S
C1010 C1011 1.369 1_455 S
C1010 C1012 1.419 . S
C1010 H1014 0.930 . S
C1011 C1010 1.369 1_655 S
C1011 C1020 1.429 . S
C1012 C1010 1.419 . S
C1012 C1013 1.363 . S
C1012 H1015 0.929 . S
C1013 C1012 1.363 . S
C1013 C1019 1.428 1_455 S
H1014 C1010 0.930 . S
H1015 C1012 0.929 . S
S1016 N1017 1.613 . S
S1016 N1018 1.610 . S
N1017 S1016 1.613 . S
N1017 C1020 1.350 . S
N1018 S1016 1.610 . S
N1018 C1019 1.351 . S
C1019 C1013 1.428 1_655 S
C1019 N1018 1.351 . S
C1019 C1020 1.434 . S
C1020 C1011 1.429 . S
C1020 N1017 1.350 . S
C1020 C1019 1.434 . S
C1021 C1022 1.369 . S
C1021 C1023 1.419 1_554 S
C1021 H1025 0.930 . S
C1022 C1021 1.369 . S
C1022 C1031 1.429 . S
C1023 C1021 1.419 1_556 S
C1023 C1024 1.363 . S
C1023 H1026 0.929 . S
C1024 C1023 1.363 . S
C1024 C1030 1.428 . S
H1025 C1021 0.930 . S
H1026 C1023 0.929 . S
S1027 N1028 1.613 . S
S1027 N1029 1.610 1_554 S
N1028 S1027 1.613 . S
N1028 C1031 1.350 . S
N1029 S1027 1.610 1_556 S
N1029 C1030 1.351 . S
C1030 C1024 1.428 . S
C1030 N1029 1.351 . S
C1030 C1031 1.434 1_556 S
C1031 C1022 1.429 . S
C1031 N1028 1.350 . S
C1031 C1030 1.434 1_554 S
C1032 C1033 1.369 1_655 S
C1032 C1034 1.419 . S
C1032 H1036 0.930 . S
C1033 C1032 1.369 1_455 S
C1033 C1042 1.429 1_556 S
C1034 C1032 1.419 . S
C1034 C1035 1.363 1_556 S
C1034 H1037 0.929 . S
C1035 C1034 1.363 1_554 S
C1035 C1041 1.428 1_655 S
H1036 C1032 0.930 . S
H1037 C1034 0.929 . S
S1038 N1039 1.613 . S
S1038 N1040 1.610 . S
N1039 S1038 1.613 . S
N1039 C1042 1.350 . S
N1040 S1038 1.610 . S
N1040 C1041 1.351 . S
C1041 C1035 1.428 1_455 S
C1041 N1040 1.351 . S
C1041 C1042 1.434 . S
C1042 C1033 1.429 1_554 S
C1042 N1039 1.350 . S
C1042 C1041 1.434 . S
C1043 C1044 1.369 . S
C1043 C1045 1.419 . S
C1043 H1047 0.930 . S
C1044 C1043 1.369 . S
C1044 C1053 1.429 . S
C1045 C1043 1.419 . S
C1045 C1046 1.363 . S
C1045 H1048 0.929 . S
C1046 C1045 1.363 . S
C1046 C1052 1.428 . S
H1047 C1043 0.930 . S
H1048 C1045 0.929 . S
S1049 N1050 1.613 . S
S1049 N1051 1.610 . S
N1050 S1049 1.613 . S
N1050 C1053 1.350 . S
N1051 S1049 1.610 . S
N1051 C1052 1.351 . S
C1052 C1046 1.428 . S
C1052 N1051 1.351 . S
C1052 C1053 1.434 . S
C1053 C1044 1.429 . S
C1053 N1050 1.350 . S
C1053 C1052 1.434 . S
C1054 C1055 1.369 1_554 S
C1054 C1056 1.419 . S
C1054 H1058 0.930 . S
C1055 C1054 1.369 1_556 S
C1055 C1064 1.429 . S
C1056 C1054 1.419 . S
C1056 C1057 1.363 . S
C1056 H1059 0.929 . S
C1057 C1056 1.363 . S
C1057 C1063 1.428 1_554 S
H1058 C1054 0.930 . S
H1059 C1056 0.929 . S
S1060 N1061 1.613 . S
S1060 N1062 1.610 . S
N1061 S1060 1.613 . S
N1061 C1064 1.350 . S
N1062 S1060 1.610 . S
N1062 C1063 1.351 . S
C1063 C1057 1.428 1_556 S
C1063 N1062 1.351 . S
C1063 C1064 1.434 . S
C1064 C1055 1.429 . S
C1064 N1061 1.350 . S
C1064 C1063 1.434 . S
C1065 C1066 1.369 . S
C1065 C1067 1.419 . S
C1065 H1069 0.930 . S
C1066 C1065 1.369 . S
C1066 C1075 1.429 . S
C1067 C1065 1.419 . S
C1067 C1068 1.363 . S
C1067 H1070 0.929 . S
C1068 C1067 1.363 . S
C1068 C1074 1.428 . S
H1069 C1065 0.930 . S
H1070 C1067 0.929 . S
S1071 N1072 1.613 . S
S1071 N1073 1.610 . S
N1072 S1071 1.613 . S
N1072 C1075 1.350 . S
N1073 S1071 1.610 . S
N1073 C1074 1.351 . S
C1074 C1068 1.428 . S
C1074 N1073 1.351 . S
C1074 C1075 1.434 . S
C1075 C1066 1.429 . S
C1075 N1072 1.350 . S
C1075 C1074 1.434 . S
C1076 C1077 1.369 1_564 S
C1076 C1078 1.419 . S
C1076 H1080 0.930 . S
C1077 C1076 1.369 1_546 S
C1077 C1086 1.429 . S
C1078 C1076 1.419 . S
C1078 C1079 1.363 . S
C1078 H1081 0.929 . S
C1079 C1078 1.363 . S
C1079 C1085 1.428 1_564 S
H1080 C1076 0.930 . S
H1081 C1078 0.929 . S
S1082 N1083 1.613 . S
S1082 N1084 1.610 . S
N1083 S1082 1.613 . S
N1083 C1086 1.350 . S
N1084 S1082 1.610 . S
N1084 C1085 1.351 . S
C1085 C1079 1.428 1_546 S
C1085 N1084 1.351 . S
C1085 C1086 1.434 . S
C1086 C1077 1.429 . S
C1086 N1083 1.350 . S
C1086 C1085 1.434 . S
C1087 C1088 1.369 . S
C1087 C1089 1.419 . S
C1087 H1091 0.930 . S
C1088 C1087 1.369 . S
C1088 C1097 1.429 . S
C1089 C1087 1.419 . S
C1089 C1090 1.363 . S
C1089 H1092 0.929 . S
C1090 C1089 1.363 . S
C1090 C1096 1.428 . S
H1091 C1087 0.930 . S
H1092 C1089 0.929 . S
S1093 N1094 1.613 . S
S1093 N1095 1.610 . S
N1094 S1093 1.613 . S
N1094 C1097 1.350 . S
N1095 S1093 1.610 . S
N1095 C1096 1.351 . S
C1096 C1090 1.428 . S
C1096 N1095 1.351 . S
C1096 C1097 1.434 . S
C1097 C1088 1.429 . S
C1097 N1094 1.350 . S
C1097 C1096 1.434 . S
C1098 C1099 1.369 . S
C1098 C1100 1.419 . S
C1098 H1102 0.930 . S
C1099 C1098 1.369 . S
C1099 C1108 1.429 . S
C1100 C1098 1.419 . S
C1100 C1101 1.363 . S
C1100 H1103 0.929 . S
C1101 C1100 1.363 . S
C1101 C1107 1.428 . S
H1102 C1098 0.930 . S
H1103 C1100 0.929 . S
S1104 N1105 1.613 . S
S1104 N1106 1.610 . S
N1105 S1104 1.613 . S
N1105 C1108 1.350 . S
N1106 S1104 1.610 . S
N1106 C1107 1.351 . S
C1107 C1101 1.428 . S
C1107 N1106 1.351 . S
C1107 C1108 1.434 . S
C1108 C1099 1.429 . S
C1108 N1105 1.350 . S
C1108 C1107 1.434 . S
C1109 C1110 1.369 . S
C1109 C1111 1.419 . S
C1109 H1113 0.930 . S
C1110 C1109 1.369 . S
C1110 C1119 1.429 . S
C1111 C1109 1.419 . S
C1111 C1112 1.363 . S
C1111 H1114 0.929 . S
C1112 C1111 1.363 . S
C1112 C1118 1.428 . S
H1113 C1109 0.930 . S
H1114 C1111 0.929 . S
S1115 N1116 1.613 . S
S1115 N1117 1.610 . S
N1116 S1115 1.613 . S
N1116 C1119 1.350 . S
N1117 S1115 1.610 . S
N1117 C1118 1.351 . S
C1118 C1112 1.428 . S
C1118 N1117 1.351 . S
C1118 C1119 1.434 . S
C1119 C1110 1.429 . S
C1119 N1116 1.350 . S
C1119 C1118 1.434 . S
C1120 C1121 1.369 . S
C1120 C1122 1.419 . S
C1120 H1124 0.930 . S
C1121 C1120 1.369 . S
C1121 C1130 1.429 . S
C1122 C1120 1.419 . S
C1122 C1123 1.363 . S
C1122 H1125 0.929 . S
C1123 C1122 1.363 . S
C1123 C1129 1.428 . S
H1124 C1120 0.930 . S
H1125 C1122 0.929 . S
S1126 N1127 1.613 . S
S1126 N1128 1.610 . S
N1127 S1126 1.613 . S
N1127 C1130 1.350 . S
N1128 S1126 1.610 . S
N1128 C1129 1.351 . S
C1129 C1123 1.428 . S
C1129 N1128 1.351 . S
C1129 C1130 1.434 . S
C1130 C1121 1.429 . S
C1130 N1127 1.350 . S
C1130 C1129 1.434 . S
C1131 C1132 1.369 . S
C1131 C1133 1.419 . S
C1131 H1135 0.930 . S
C1132 C1131 1.369 . S
C1132 C1141 1.429 . S
C1133 C1131 1.419 . S
C1133 C1134 1.363 . S
C1133 H1136 0.929 . S
C1134 C1133 1.363 . S
C1134 C1140 1.428 . S
H1135 C1131 0.930 . S
H1136 C1133 0.929 . S
S1137 N1138 1.613 . S
S1137 N1139 1.610 . S
N1138 S1137 1.613 . S
N1138 C1141 1.350 . S
N1139 S1137 1.610 . S
N1139 C1140 1.351 . S
C1140 C1134 1.428 . S
C1140 N1139 1.351 . S
C1140 C1141 1.434 . S
C1141 C1132 1.429 . S
C1141 N1138 1.350 . S
C1141 C1140 1.434 . S
C1142 C1143 1.369 . S
C1142 C1144 1.419 . S
C1142 H1146 0.930 . S
C1143 C1142 1.369 . S
C1143 C1152 1.429 . S
C1144 C1142 1.419 . S
C1144 C1145 1.363 . S
C1144 H1147 0.929 . S
C1145 C1144 1.363 . S
C1145 C1151 1.428 . S
H1146 C1142 0.930 . S
H1147 C1144 0.929 . S
S1148 N1149 1.613 . S
S1148 N1150 1.610 . S
N1149 S1148 1.613 . S
N1149 C1152 1.350 . S
N1150 S1148 1.610 . S
N1150 C1151 1.351 . S
C1151 C1145 1.428 . S
C1151 N1150 1.351 . S
C1151 C1152 1.434 . S
C1152 C1143 1.429 . S
C1152 N1149 1.350 . S
C1152 C1151 1.434 . S
C1153 C1154 1.369 . S
C1153 C1155 1.419 . S
C1153 H1157 0.930 . S
C1154 C1153 1.369 . S
C1154 C1163 1.429 . S
C1155 C1153 1.419 . S
C1155 C1156 1.363 . S
C1155 H1158 0.929 . S
C1156 C1155 1.363 . S
C1156 C1162 1.428 . S
H1157 C1153 0.930 . S
H1158 C1155 0.929 . S
S1159 N1160 1.613 . S
S1159 N1161 1.610 . S
N1160 S1159 1.613 . S
N1160 C1163 1.350 . S
N1161 S1159 1.610 . S
N1161 C1162 1.351 . S
C1162 C1156 1.428 . S
C1162 N1161 1.351 . S
C1162 C1163 1.434 . S
C1163 C1154 1.429 . S
C1163 N1160 1.350 . S
C1163 C1162 1.434 . S
C1164 C1165 1.369 . S
C1164 C1166 1.419 . S
C1164 H1168 0.930 . S
C1165 C1164 1.369 . S
C1165 C1174 1.429 . S
C1166 C1164 1.419 . S
C1166 C1167 1.363 . S
C1166 H1169 0.929 . S
C1167 C1166 1.363 . S
C1167 C1173 1.428 . S
H1168 C1164 0.930 . S
H1169 C1166 0.929 . S
S1170 N1171 1.613 . S
S1170 N1172 1.610 . S
N1171 S1170 1.613 . S
N1171 C1174 1.350 . S
N1172 S1170 1.610 . S
N1172 C1173 1.351 . S
C1173 C1167 1.428 . S
C1173 N1172 1.351 . S
C1173 C1174 1.434 . S
C1174 C1165 1.429 . S
C1174 N1171 1.350 . S
C1174 C1173 1.434 . S
C1175 C1176 1.369 . S
C1175 C1177 1.419 . S
C1175 H1179 0.930 . S
C1176 C1175 1.369 . S
C1176 C1185 1.429 . S
C1177 C1175 1.419 . S
C1177 C1178 1.363 . S
C1177 H1180 0.929 . S
C1178 C1177 1.363 . S
C1178 C1184 1.428 . S
H1179 C1175 0.930 . S
H1180 C1177 0.929 . S
S1181 N1182 1.613 . S
S1181 N1183 1.610 . S
N1182 S1181 1.613 . S
N1182 C1185 1.350 . S
N1183 S1181 1.610 . S
N1183 C1184 1.351 . S
C1184 C1178 1.428 . S
C1184 N1183 1.351 . S
C1184 C1185 1.434 . S
C1185 C1176 1.429 . S
C1185 N1182 1.350 . S
C1185 C1184 1.434 . S
C1186 C1187 1.369 . S
C1186 C1188 1.419 . S
C1186 H1190 0.930 . S
C1187 C1186 1.369 . S
C1187 C1196 1.429 . S
C1188 C1186 1.419 . S
C1188 C1189 1.363 . S
C1188 H1191 0.929 . S
C1189 C1188 1.363 . S
C1189 C1195 1.428 . S
H1190 C1186 0.930 . S
H1191 C1188 0.929 . S
S1192 N1193 1.613 . S
S1192 N1194 1.610 . S
N1193 S1192 1.613 . S
N1193 C1196 1.350 . S
N1194 S1192 1.610 . S
N1194 C1195 1.351 . S
C1195 C1189 1.428 . S
C1195 N1194 1.351 . S
C1195 C1196 1.434 . S
C1196 C1187 1.429 . S
C1196 N1193 1.350 . S
C1196 C1195 1.434 . S
C1197 C1198 1.369 . S
C1197 C1199 1.419 . S
C1197 H1201 0.930 . S
C1198 C1197 1.369 . S
C1198 C1207 1.429 . S
C1199 C1197 1.419 . S
C1199 C1200 1.363 . S
C1199 H1202 0.929 . S
C1200 C1199 1.363 . S
C1200 C1206 1.428 . S
H1201 C1197 0.930 . S
H1202 C1199 0.929 . S
S1203 N1204 1.613 . S
S1203 N1205 1.610 . S
N1204 S1203 1.613 . S
N1204 C1207 1.350 . S
N1205 S1203 1.610 . S
N1205 C1206 1.351 . S
C1206 C1200 1.428 . S
C1206 N1205 1.351 . S
C1206 C1207 1.434 . S
C1207 C1198 1.429 . S
C1207 N1204 1.350 . S
C1207 C1206 1.434 . S
C1208 C1209 1.369 . S
C1208 C1210 1.419 . S
C1208 H1212 0.930 . S
C1209 C1208 1.369 . S
C1209 C1218 1.429 . S
C1210 C1208 1.419 . S
C1210 C1211 1.363 . S
C1210 H1213 0.929 . S
C1211 C1210 1.363 . S
C1211 C1217 1.428 . S
H1212 C1208 0.930 . S
H1213 C1210 0.929 . S
S1214 N1215 1.613 . S
S1214 N1216 1.610 . S
N1215 S1214 1.613 . S
N1215 C1218 1.350 . S
N1216 S1214 1.610 . S
N1216 C1217 1.351 . S
C1217 C1211 1.428 . S
C1217 N1216 1.351 . S
C1217 C1218 1.434 . S
C1218 C1209 1.429 . S
C1218 N1215 1.350 . S
C1218 C1217 1.434 . S
C1219 C1220 1.369 . S
C1219 C1221 1.419 . S
C1219 H1223 0.930 . S
C1220 C1219 1.369 . S
C1220 C1229 1.429 . S
C1221 C1219 1.419 . S
C1221 C1222 1.363 . S
C1221 H1224 0.929 . S
C1222 C1221 1.363 . S
C1222 C1228 1.428 . S
H1223 C1219 0.930 . S
H1224 C1221 0.929 . S
S1225 N1226 1.613 . S
S1225 N1227 1.610 . S
N1226 S1225 1.613 . S
N1226 C1229 1.350 . S
N1227 S1225 1.610 . S
N1227 C1228 1.351 . S
C1228 C1222 1.428 . S
C1228 N1227 1.351 . S
C1228 C1229 1.434 . S
C1229 C1220 1.429 . S
C1229 N1226 1.350 . S
C1229 C1228 1.434 . S
C1230 C1231 1.369 . S
C1230 C1232 1.419 . S
C1230 H1234 0.930 . S
C1231 C1230 1.369 . S
C1231 C1240 1.429 . S
C1232 C1230 1.419 . S
C1232 C1233 1.363 . S
C1232 H1235 0.929 . S
C1233 C1232 1.363 . S
C1233 C1239 1.428 . S
H1234 C1230 0.930 . S
H1235 C1232 0.929 . S
S1236 N1237 1.613 . S
S1236 N1238 1.610 . S
N1237 S1236 1.613 . S
N1237 C1240 1.350 . S
N1238 S1236 1.610 . S
N1238 C1239 1.351 . S
C1239 C1233 1.428 . S
C1239 N1238 1.351 . S
C1239 C1240 1.434 . S
C1240 C1231 1.429 . S
C1240 N1237 1.350 . S
C1240 C1239 1.434 . S
C1241 C1242 1.369 . S
C1241 C1243 1.419 . S
C1241 H1245 0.930 . S
C1242 C1241 1.369 . S
C1242 C1251 1.429 . S
C1243 C1241 1.419 . S
C1243 C1244 1.363 . S
C1243 H1246 0.929 . S
C1244 C1243 1.363 . S
C1244 C1250 1.428 . S
H1245 C1241 0.930 . S
H1246 C1243 0.929 . S
S1247 N1248 1.613 . S
S1247 N1249 1.610 . S
N1248 S1247 1.613 . S
N1248 C1251 1.350 . S
N1249 S1247 1.610 . S
N1249 C1250 1.351 . S
C1250 C1244 1.428 . S
C1250 N1249 1.351 . S
C1250 C1251 1.434 . S
C1251 C1242 1.429 . S
C1251 N1248 1.350 . S
C1251 C1250 1.434 . S
C1252 C1253 1.369 . S
C1252 C1254 1.419 . S
C1252 H1256 0.930 . S
C1253 C1252 1.369 . S
C1253 C1262 1.429 . S
C1254 C1252 1.419 . S
C1254 C1255 1.363 . S
C1254 H1257 0.929 . S
C1255 C1254 1.363 . S
C1255 C1261 1.428 . S
H1256 C1252 0.930 . S
H1257 C1254 0.929 . S
S1258 N1259 1.613 . S
S1258 N1260 1.610 . S
N1259 S1258 1.613 . S
N1259 C1262 1.350 . S
N1260 S1258 1.610 . S
N1260 C1261 1.351 . S
C1261 C1255 1.428 . S
C1261 N1260 1.351 . S
C1261 C1262 1.434 . S
C1262 C1253 1.429 . S
C1262 N1259 1.350 . S
C1262 C1261 1.434 . S
C1263 C1264 1.369 . S
C1263 C1265 1.419 . S
C1263 H1267 0.930 . S
C1264 C1263 1.369 . S
C1264 C1273 1.429 . S
C1265 C1263 1.419 . S
C1265 C1266 1.363 . S
C1265 H1268 0.929 . S
C1266 C1265 1.363 . S
C1266 C1272 1.428 . S
H1267 C1263 0.930 . S
H1268 C1265 0.929 . S
S1269 N1270 1.613 . S
S1269 N1271 1.610 . S
N1270 S1269 1.613 . S
N1270 C1273 1.350 . S
N1271 S1269 1.610 . S
N1271 C1272 1.351 . S
C1272 C1266 1.428 . S
C1272 N1271 1.351 . S
C1272 C1273 1.434 . S
C1273 C1264 1.429 . S
C1273 N1270 1.350 . S
C1273 C1272 1.434 . S
C1274 C1275 1.369 . S
C1274 C1276 1.419 . S
C1274 H1278 0.930 . S
C1275 C1274 1.369 . S
C1275 C1284 1.429 . S
C1276 C1274 1.419 . S
C1276 C1277 1.363 . S
C1276 H1279 0.929 . S
C1277 C1276 1.363 . S
C1277 C1283 1.428 . S
H1278 C1274 0.930 . S
H1279 C1276 0.929 . S
S1280 N1281 1.613 . S
S1280 N1282 1.610 . S
N1281 S1280 1.613 . S
N1281 C1284 1.350 . S
N1282 S1280 1.610 . S
N1282 C1283 1.351 . S
C1283 C1277 1.428 . S
C1283 N1282 1.351 . S
C1283 C1284 1.434 . S
C1284 C1275 1.429 . S
C1284 N1281 1.350 . S
C1284 C1283 1.434 . S
C1285 C1286 1.369 . S
C1285 C1287 1.419 . S
C1285 H1289 0.930 . S
C1286 C1285 1.369 . S
C1286 C1295 1.429 . S
C1287 C1285 1.419 . S
C1287 C1288 1.363 . S
C1287 H1290 0.929 . S
C1288 C1287 1.363 . S
C1288 C1294 1.428 . S
H1289 C1285 0.930 . S
H1290 C1287 0.929 . S
S1291 N1292 1.613 . S
S1291 N1293 1.610 . S
N1292 S1291 1.613 . S
N1292 C1295 1.350 . S
N1293 S1291 1.610 . S
N1293 C1294 1.351 . S
C1294 C1288 1.428 . S
C1294 N1293 1.351 . S
C1294 C1295 1.434 . S
C1295 C1286 1.429 . S
C1295 N1292 1.350 . S
C1295 C1294 1.434 . S
C945 C859 1.513 . S
C947 C33 1.513 . S
C956 C123 1.508 . S
C958 C5 1.508 . S
C967 C654 1.507 . S
C969 C64 1.509 . S
C978 C92 1.513 . S
C980 C446 1.513 . S
C989 C151 1.513 . S
C991 C741 1.513 . S
C1000 C536 1.508 . S
C1002 C182 1.508 . S
C1011 C210 1.513 . S
C1013 C328 1.513 . S
C1022 C623 1.513 . S
C1024 C269 1.513 . S
C1033 C241 1.507 . S
C1035 C359 1.508 . S
C1044 C890 1.507 . S
C1046 C300 1.509 . S
C1055 C505 1.513 . S
C1057 C387 1.513 . S
C1066 C772 1.507 . S
C1068 C418 1.509 . S
C1077 C477 1.508 . S
C1079 C595 1.508 . S
C1088 C918 1.513 . S
C1090 C564 1.513 . S
C1099 C682 1.513 . S
C1101 C800 1.513 . S
C1110 C831 1.507 . S
C1112 C713 1.509 . S
C1121 C347 1.573 . S
C1123 C3 1.564 . S
C1132 C52 1.573 . S
C1134 C298 1.565 . S
C1143 C111 1.573 . S
C1145 C239 1.564 . S
C1154 C288 1.573 . S
C1156 C62 1.566 . S
C1165 C465 1.573 . S
C1167 C121 1.566 . S
C1176 C416 1.564 . S
C1178 C170 1.574 . S
C1187 C357 1.566 . S
C1189 C229 1.573 . S
C1198 C180 1.566 . S
C1200 C406 1.573 . S
C1209 C819 1.573 . S
C1211 C475 1.566 . S
C1220 C524 1.574 . S
C1222 C770 1.566 . S
C1231 C583 1.573 . S
C1233 C711 1.566 . S
C1242 C760 1.573 . S
C1244 C534 1.564 . S
C1253 C937 1.573 . S
C1255 C593 1.564 . S
C1264 C888 1.564 . S
C1266 C642 1.574 . S
C1275 C701 1.573 . S
C1277 C829 1.564 . S
C1286 C878 1.573 . S
C1288 C652 1.564 . S
