# Generated by pormake.
# Topology wjd, (6)-cn, num edge types: 1
# Building blocks:
#     Node 0, Type 0, BuildingBlock: PAMTUU_clean_sbu_0, # of connection points: 6
#     Node 1, Type 0, BuildingBlock: PAMTUU_clean_sbu_0, # of connection points: 6
#     Node 2, Type 0, BuildingBlock: PAMTUU_clean_sbu_0, # of connection points: 6
#     Node 3, Type 0, BuildingBlock: PAMTUU_clean_sbu_0, # of connection points: 6
#     Node 4, Type 0, BuildingBlock: PAMTUU_clean_sbu_0, # of connection points: 6
#     Node 5, Type 0, BuildingBlock: PAMTUU_clean_sbu_0, # of connection points: 6
#     Node 6, Type 0, BuildingBlock: PAMTUU_clean_sbu_0, # of connection points: 6
#     Node 7, Type 0, BuildingBlock: PAMTUU_clean_sbu_0, # of connection points: 6
#     Node 8, Type 0, BuildingBlock: PAMTUU_clean_sbu_0, # of connection points: 6
#     Node 9, Type 0, BuildingBlock: PAMTUU_clean_sbu_0, # of connection points: 6
#     Node 10, Type 0, BuildingBlock: PAMTUU_clean_sbu_0, # of connection points: 6
#     Node 11, Type 0, BuildingBlock: PAMTUU_clean_sbu_0, # of connection points: 6
#     Edge 12, Type (0, 0), BuildingBlock: ZUJKAS_clean_linker_0, # of connection points: 2
#     Edge 13, Type (0, 0), BuildingBlock: ZUJKAS_clean_linker_0, # of connection points: 2
#     Edge 14, Type (0, 0), BuildingBlock: ZUJKAS_clean_linker_0, # of connection points: 2
#     Edge 15, Type (0, 0), BuildingBlock: ZUJKAS_clean_linker_0, # of connection points: 2
#     Edge 16, Type (0, 0), BuildingBlock: ZUJKAS_clean_linker_0, # of connection points: 2
#     Edge 17, Type (0, 0), BuildingBlock: ZUJKAS_clean_linker_0, # of connection points: 2
#     Edge 18, Type (0, 0), BuildingBlock: ZUJKAS_clean_linker_0, # of connection points: 2
#     Edge 19, Type (0, 0), BuildingBlock: ZUJKAS_clean_linker_0, # of connection points: 2
#     Edge 20, Type (0, 0), BuildingBlock: ZUJKAS_clean_linker_0, # of connection points: 2
#     Edge 21, Type (0, 0), BuildingBlock: ZUJKAS_clean_linker_0, # of connection points: 2
#     Edge 22, Type (0, 0), BuildingBlock: ZUJKAS_clean_linker_0, # of connection points: 2
#     Edge 23, Type (0, 0), BuildingBlock: ZUJKAS_clean_linker_0, # of connection points: 2
#     Edge 24, Type (0, 0), BuildingBlock: ZUJKAS_clean_linker_0, # of connection points: 2
#     Edge 25, Type (0, 0), BuildingBlock: ZUJKAS_clean_linker_0, # of connection points: 2
#     Edge 26, Type (0, 0), BuildingBlock: ZUJKAS_clean_linker_0, # of connection points: 2
#     Edge 27, Type (0, 0), BuildingBlock: ZUJKAS_clean_linker_0, # of connection points: 2
#     Edge 28, Type (0, 0), BuildingBlock: ZUJKAS_clean_linker_0, # of connection points: 2
#     Edge 29, Type (0, 0), BuildingBlock: ZUJKAS_clean_linker_0, # of connection points: 2
#     Edge 30, Type (0, 0), BuildingBlock: ZUJKAS_clean_linker_0, # of connection points: 2
#     Edge 31, Type (0, 0), BuildingBlock: ZUJKAS_clean_linker_0, # of connection points: 2
#     Edge 32, Type (0, 0), BuildingBlock: ZUJKAS_clean_linker_0, # of connection points: 2
#     Edge 33, Type (0, 0), BuildingBlock: ZUJKAS_clean_linker_0, # of connection points: 2
#     Edge 34, Type (0, 0), BuildingBlock: ZUJKAS_clean_linker_0, # of connection points: 2
#     Edge 35, Type (0, 0), BuildingBlock: ZUJKAS_clean_linker_0, # of connection points: 2
#     Edge 36, Type (0, 0), BuildingBlock: ZUJKAS_clean_linker_0, # of connection points: 2
#     Edge 37, Type (0, 0), BuildingBlock: ZUJKAS_clean_linker_0, # of connection points: 2
#     Edge 38, Type (0, 0), BuildingBlock: ZUJKAS_clean_linker_0, # of connection points: 2
#     Edge 39, Type (0, 0), BuildingBlock: ZUJKAS_clean_linker_0, # of connection points: 2
#     Edge 40, Type (0, 0), BuildingBlock: ZUJKAS_clean_linker_0, # of connection points: 2
#     Edge 41, Type (0, 0), BuildingBlock: ZUJKAS_clean_linker_0, # of connection points: 2
#     Edge 42, Type (0, 0), BuildingBlock: ZUJKAS_clean_linker_0, # of connection points: 2
#     Edge 43, Type (0, 0), BuildingBlock: ZUJKAS_clean_linker_0, # of connection points: 2
#     Edge 44, Type (0, 0), BuildingBlock: ZUJKAS_clean_linker_0, # of connection points: 2
#     Edge 45, Type (0, 0), BuildingBlock: ZUJKAS_clean_linker_0, # of connection points: 2
#     Edge 46, Type (0, 0), BuildingBlock: ZUJKAS_clean_linker_0, # of connection points: 2
#     Edge 47, Type (0, 0), BuildingBlock: ZUJKAS_clean_linker_0, # of connection points: 2
# Relax obj value: 0.083
# Max RMSD: 0.198
# Mean RMSD: 0.198
data_MOF--net-wjd--node1-PAMTUU_clean_sbu_0--edge1-ZUJKAS_clean_linker_0
_symmetry_space_group_name_H-M    P1
_symmetry_Int_Tables_number       1
_symmetry_cell_setting            triclinic
loop_
_symmetry_equiv_pos_as_xyz
'x, y, z'
_cell_length_a     48.771552
_cell_length_b     48.923553
_cell_length_c     70.759946
_cell_angle_alpha  89.997978
_cell_angle_beta   89.951016
_cell_angle_gamma 119.95689
loop_
_atom_site_label
_atom_site_type_symbol
_atom_site_fract_x
_atom_site_fract_y
_atom_site_fract_z
_atom_type_partial_charge
Tb0 Tb 0.32895 0.10175 0.13187 0.0
Tb1 Tb 0.36984 0.17494 0.11645 0.0
C2 C 0.35929 0.15923 0.15956 0.0
C3 C 0.25839 0.02458 0.14239 0.0
C4 C 0.1921 0.9838 0.1428 0.0
C5 C 0.21211 0.97708 0.15379 0.0
C6 C 0.24495 0.9973 0.15357 0.0
C7 C 0.23851 0.03174 0.13173 0.0
C8 C 0.20573 1.0116 0.13193 0.0
C9 C 0.29307 0.04475 0.14124 0.0
O10 O 0.2943 0.11397 0.12133 0.0
O11 O 0.32397 0.16758 0.12466 0.0
O12 O 0.34339 0.14414 0.09272 0.0
O13 O 0.34769 0.10316 0.104 0.0
O14 O 0.37757 0.22105 0.11658 0.0
O15 O 0.40449 0.2083 0.09804 0.0
O16 O 0.40324 0.15793 0.11818 0.0
O17 O 0.37795 0.11453 0.13785 0.0
O18 O 0.33373 0.13261 0.15517 0.0
O19 O 0.38006 0.17672 0.1466 0.0
C20 C 0.29654 0.1418 0.12276 0.0
O21 O 0.30431 0.05399 0.12429 0.0
O22 O 0.30629 0.06779 0.15336 0.0
C23 C 0.3425 0.11718 0.08991 0.0
C24 C 0.43038 0.26094 0.10993 0.0
C25 C 0.48399 0.32054 0.11771 0.0
C26 C 0.48176 0.30466 0.10068 0.0
C27 C 0.4552 0.27529 0.09681 0.0
C28 C 0.43292 0.27633 0.12719 0.0
C29 C 0.45937 0.30578 0.13101 0.0
C30 C 0.40122 0.23131 0.10482 0.0
C31 C 0.40349 0.13614 0.12899 0.0
H32 H 0.2024 0.95613 0.16254 0.0
H33 H 0.25988 0.9914 0.16192 0.0
H34 H 0.2484 0.05255 0.12287 0.0
H35 H 0.19119 0.01736 0.1231 0.0
H36 H 0.50048 0.31497 0.09025 0.0
H37 H 0.45382 0.26401 0.08339 0.0
H38 H 0.41417 0.26602 0.13761 0.0
H39 H 0.46001 0.31737 0.14417 0.0
Tb40 Tb 0.83238 0.65896 0.40321 0.0
Tb41 Tb 0.79902 0.69887 0.38735 0.0
C42 C 0.79823 0.6837 0.42911 0.0
C43 C 0.85987 0.60038 0.41378 0.0
C44 C 0.86708 0.54707 0.40833 0.0
C45 C 0.88116 0.56723 0.42387 0.0
C46 C 0.87758 0.59357 0.42654 0.0
C47 C 0.84514 0.58009 0.39843 0.0
C48 C 0.84864 0.55356 0.39575 0.0
C49 C 0.85886 0.62973 0.41632 0.0
O50 O 0.78284 0.62395 0.39984 0.0
O51 O 0.76367 0.64971 0.38123 0.0
O52 O 0.82771 0.69633 0.36476 0.0
O53 O 0.8255 0.64988 0.37281 0.0
O54 O 0.77739 0.72506 0.3948 0.0
O55 O 0.78465 0.71836 0.36551 0.0
O56 O 0.84534 0.73402 0.39853 0.0
O57 O 0.87071 0.7054 0.39614 0.0
O58 O 0.82514 0.68406 0.42673 0.0
O59 O 0.7798 0.67853 0.41461 0.0
C60 C 0.76066 0.62391 0.38921 0.0
O61 O 0.87013 0.64996 0.40248 0.0
O62 O 0.83298 0.62737 0.42324 0.0
C63 C 0.82932 0.67119 0.36011 0.0
C64 C 0.78929 0.76723 0.37442 0.0
C65 C 0.81154 0.83271 0.37286 0.0
C66 C 0.78135 0.8109 0.36587 0.0
C67 C 0.77029 0.77843 0.36672 0.0
C68 C 0.81985 0.78891 0.38073 0.0
C69 C 0.83087 0.82132 0.38 0.0
C70 C 0.77617 0.73314 0.37742 0.0
C71 C 0.87148 0.73242 0.39785 0.0
H72 H 0.89501 0.56266 0.43402 0.0
H73 H 0.88911 0.60896 0.43848 0.0
H74 H 0.83146 0.58508 0.38838 0.0
H75 H 0.83763 0.53864 0.38358 0.0
H76 H 0.76577 0.81886 0.36043 0.0
H77 H 0.74655 0.76205 0.36189 0.0
H78 H 0.83482 0.78068 0.38672 0.0
H79 H 0.85438 0.83746 0.38526 0.0
Tb80 Tb 0.9298 0.23334 0.13375 0.0
Tb81 Tb 0.85807 0.20175 0.11608 0.0
C82 C 0.87175 0.21297 0.16013 0.0
C83 C 1.00819 0.24309 0.14319 0.0
C84 C 0.05107 0.22054 0.13916 0.0
C85 C 0.05871 0.24711 0.15047 0.0
C86 C 0.03744 0.25827 0.15245 0.0
C87 C 1.00039 0.21661 0.13189 0.0
C88 C 0.02163 0.20545 0.12988 0.0
C89 C 0.98562 0.25447 0.14556 0.0
O90 O 0.90728 0.1824 0.13771 0.0
O91 O 0.87247 0.16656 0.11299 0.0
O92 O 0.89211 0.2246 0.09284 0.0
O93 O 0.93176 0.21848 0.10528 0.0
O94 O 0.81236 0.16261 0.1136 0.0
O95 O 0.82555 0.20558 0.09827 0.0
O96 O 0.86859 0.24721 0.12702 0.0
O97 O 0.9228 0.27257 0.12515 0.0
O98 O 0.90099 0.23488 0.15648 0.0
O99 O 0.85287 0.1941 0.1468 0.0
C100 C 0.88808 0.16051 0.12585 0.0
O101 O 0.97854 0.26438 0.13021 0.0
O102 O 0.96045 0.23618 0.15545 0.0
C103 C 0.91885 0.22439 0.09084 0.0
C104 C 0.77186 0.17496 0.10762 0.0
C105 C 0.71141 0.16701 0.11557 0.0
C106 C 0.72294 0.17166 0.09691 0.0
C107 C 0.75278 0.17553 0.09301 0.0
C108 C 0.76075 0.17079 0.12634 0.0
C109 C 0.73074 0.16673 0.13026 0.0
C110 C 0.80258 0.17761 0.10281 0.0
C111 C 0.89611 0.27325 0.12605 0.0
H112 H 0.08095 0.25904 0.15804 0.0
H113 H 0.04374 0.27862 0.16132 0.0
H114 H 0.97783 0.20456 0.12464 0.0
H115 H 1.01511 0.1852 0.12089 0.0
H116 H 0.70858 0.17159 0.08523 0.0
H117 H 0.76082 0.17858 0.07848 0.0
H118 H 0.77512 0.17041 0.13789 0.0
H119 H 0.72274 0.16355 0.14479 0.0
Tb120 Tb 0.37149 0.17062 0.4025 0.0
Tb121 Tb 0.33008 0.09883 0.38521 0.0
C122 C 0.33263 0.11077 0.42799 0.0
C123 C 0.43006 0.25709 0.40991 0.0
C124 C 0.48199 0.31709 0.40089 0.0
C125 C 0.45589 0.31435 0.41101 0.0
C126 C 0.43026 0.28469 0.41547 0.0
C127 C 0.4558 0.25955 0.39957 0.0
C128 C 0.48159 0.28929 0.39516 0.0
C129 C 0.40284 0.22627 0.41529 0.0
O130 O 0.40592 0.1591 0.3917 0.0
O131 O 0.3763 0.10504 0.39362 0.0
O132 O 0.36059 0.12654 0.36233 0.0
O133 O 0.36927 0.17525 0.37171 0.0
O134 O 0.31115 0.05012 0.38942 0.0
O135 O 0.30157 0.06789 0.36386 0.0
O136 O 0.3029 0.12273 0.38076 0.0
O137 O 0.32201 0.15678 0.40574 0.0
O138 O 0.35995 0.13699 0.42593 0.0
O139 O 0.31365 0.09826 0.41359 0.0
C140 C 0.40393 0.13137 0.39262 0.0
O141 O 0.37749 0.21614 0.40498 0.0
O142 O 0.40857 0.20364 0.41953 0.0
C143 C 0.3687 0.15588 0.35852 0.0
C144 C 0.25987 0.02125 0.3767 0.0
C145 C 0.19427 0.97955 0.38169 0.0
C146 C 0.2139 0.96876 0.3741 0.0
C147 C 0.24638 0.98944 0.37163 0.0
C148 C 0.24053 0.03216 0.38438 0.0
C149 C 0.20807 1.01155 0.38681 0.0
C150 C 0.29403 0.04297 0.37412 0.0
C151 C 0.30045 0.14194 0.39274 0.0
H152 H 0.45554 0.33516 0.41588 0.0
H153 H 0.41065 0.28331 0.42347 0.0
H154 H 0.45604 0.23853 0.395 0.0
H155 H 0.50114 0.29053 0.38719 0.0
H156 H 0.20426 0.94422 0.37028 0.0
H157 H 0.26098 0.98057 0.3658 0.0
H158 H 0.25055 0.05668 0.38842 0.0
H159 H 0.19372 0.02083 0.39247 0.0
Tb160 Tb 0.79713 0.70304 0.13319 0.0
Tb161 Tb 0.83182 0.66441 0.11719 0.0
C162 C 0.82677 0.67472 0.16043 0.0
C163 C 0.78413 0.76976 0.14528 0.0
C164 C 0.80563 0.83513 0.14475 0.0
C165 C 0.77304 0.81295 0.14516 0.0
C166 C 0.76243 0.7806 0.14538 0.0
C167 C 0.81668 0.7917 0.14548 0.0
C168 C 0.82735 0.82413 0.14528 0.0
C169 C 0.77249 0.73584 0.14286 0.0
O170 O 0.84364 0.73926 0.12305 0.0
O171 O 0.86938 0.71089 0.12492 0.0
O172 O 0.82571 0.69013 0.09363 0.0
O173 O 0.77986 0.68409 0.10538 0.0
O174 O 0.87056 0.65694 0.11805 0.0
O175 O 0.83299 0.63216 0.09789 0.0
O176 O 0.78187 0.62975 0.11897 0.0
O177 O 0.76269 0.6536 0.13908 0.0
O178 O 0.82484 0.69983 0.15614 0.0
O179 O 0.82362 0.65409 0.14742 0.0
C180 C 0.86986 0.73786 0.12383 0.0
O181 O 0.77356 0.72733 0.12558 0.0
O182 O 0.78237 0.72242 0.15486 0.0
C183 C 0.79896 0.69003 0.09109 0.0
C184 C 0.86046 0.60596 0.10895 0.0
C185 C 0.86793 0.5524 0.1135 0.0
C186 C 0.84232 0.55034 0.10313 0.0
C187 C 0.83869 0.57683 0.10082 0.0
C188 C 0.88571 0.60784 0.11957 0.0
C189 C 0.88933 0.58143 0.12188 0.0
C190 C 0.85889 0.63503 0.10515 0.0
C191 C 0.75958 0.62861 0.13002 0.0
H192 H 0.75568 0.8206 0.14506 0.0
H193 H 0.73722 0.76401 0.14511 0.0
H194 H 0.83378 0.78373 0.14523 0.0
H195 H 0.85259 0.84052 0.14481 0.0
H196 H 0.82558 0.52848 0.0963 0.0
H197 H 0.81922 0.57461 0.09233 0.0
H198 H 0.90313 0.62997 0.12585 0.0
H199 H 0.90904 0.58383 0.13019 0.0
Tb200 Tb 0.85953 0.19758 0.40248 0.0
Tb201 Tb 0.93057 0.23009 0.38341 0.0
C202 C 0.92172 0.22021 0.42649 0.0
C203 C 0.7732 0.16803 0.41345 0.0
C204 C 0.71181 0.15873 0.40718 0.0
C205 C 0.71788 0.14422 0.42253 0.0
C206 C 0.74821 0.14883 0.4256 0.0
C207 C 0.7675 0.18268 0.3981 0.0
C208 C 0.73706 0.17812 0.39501 0.0
C209 C 0.80475 0.17201 0.41709 0.0
O210 O 0.86895 0.24308 0.39222 0.0
O211 O 0.92328 0.26877 0.39287 0.0
O212 O 0.90059 0.23196 0.36164 0.0
O213 O 0.85304 0.19062 0.37171 0.0
O214 O 0.97909 0.26283 0.38562 0.0
O215 O 0.96047 0.23247 0.36125 0.0
O216 O 0.90805 0.17918 0.37906 0.0
O217 O 0.87488 0.16306 0.4046 0.0
O218 O 0.89462 0.21993 0.42526 0.0
O219 O 0.93437 0.21522 0.41153 0.0
C220 C 0.89644 0.26921 0.39262 0.0
O221 O 0.81427 0.15776 0.4055 0.0
O222 O 0.82742 0.20039 0.42114 0.0
C223 C 0.87126 0.21002 0.35832 0.0
C224 C 1.01029 0.24313 0.3724 0.0
C225 C 0.05607 0.2241 0.37552 0.0
C226 C 0.05391 0.23889 0.35898 0.0
C227 C 0.03126 0.24838 0.35746 0.0
C228 C 1.0122 0.22817 0.38888 0.0
C229 C 0.03499 0.21892 0.39047 0.0
C230 C 0.98589 0.25233 0.3704 0.0
C231 C 0.88965 0.15716 0.39113 0.0
H232 H 0.69925 0.12962 0.43239 0.0
H233 H 0.75218 0.13739 0.43756 0.0
H234 H 0.78653 0.19752 0.38852 0.0
H235 H 0.73322 0.18944 0.38296 0.0
H236 H 0.06998 0.24345 0.34728 0.0
H237 H 0.03004 0.25973 0.34459 0.0
H238 H 0.99596 0.22348 0.4005 0.0
H239 H 0.03577 0.20722 0.40329 0.0
Tb240 Tb 0.18456 0.3615 0.61554 0.0
Tb241 Tb 0.1134 0.32214 0.63468 0.0
C242 C 0.12275 0.33072 0.59114 0.0
C243 C 0.26992 0.42046 0.60374 0.0
C244 C 0.33044 0.4741 0.60914 0.0
C245 C 0.32375 0.45521 0.5929 0.0
C246 C 0.29385 0.4287 0.59026 0.0
C247 C 0.27611 0.43944 0.61984 0.0
C248 C 0.3061 0.46609 0.62249 0.0
C249 C 0.23951 0.39104 0.60113 0.0
O250 O 0.16638 0.39385 0.61685 0.0
O251 O 0.12899 0.37172 0.64047 0.0
O252 O 0.14796 0.32938 0.65618 0.0
O253 O 0.19072 0.37481 0.64545 0.0
O254 O 0.06474 0.30684 0.63397 0.0
O255 O 0.08445 0.29284 0.65659 0.0
O256 O 0.1225 0.28666 0.62218 0.0
O257 O 0.17661 0.3153 0.62343 0.0
O258 O 0.15134 0.33444 0.59274 0.0
O259 O 0.10808 0.33345 0.60588 0.0
C260 C 0.14775 0.39579 0.62957 0.0
O261 O 0.23122 0.37016 0.61454 0.0
O262 O 0.21558 0.39354 0.59517 0.0
C263 C 0.17497 0.3552 0.65929 0.0
C264 C 0.03394 0.25515 0.64592 0.0
C265 C 0.9879 0.1908 0.64193 0.0
C266 C 0.98867 0.20766 0.65822 0.0
C267 C 1.01147 0.23957 0.66017 0.0
C268 C 0.03337 0.23844 0.62965 0.0
C269 C 1.01045 0.2066 0.62762 0.0
C270 C 0.0586 0.28836 0.64851 0.0
C271 C 0.15018 0.2882 0.62228 0.0
H272 H 0.34166 0.46093 0.58216 0.0
H273 H 0.28952 0.41434 0.57775 0.0
H274 H 0.25795 0.43335 0.63047 0.0
H275 H 0.31046 0.47995 0.63522 0.0
H276 H 0.97146 0.19626 0.6694 0.0
H277 H 1.01167 0.25204 0.67287 0.0
H278 H 0.05079 0.24996 0.61857 0.0
H279 H 1.01073 0.19419 0.61502 0.0
Tb280 Tb 0.2439 0.92661 0.88619 0.0
Tb281 Tb 0.21018 0.8539 0.90275 0.0
C282 C 0.21525 0.86787 0.85949 0.0
C283 C 0.25401 1.00526 0.87574 0.0
C284 C 0.23238 0.04912 0.87699 0.0
C285 C 0.2537 0.0512 0.86288 0.0
C286 C 0.2645 0.02951 0.86231 0.0
C287 C 0.23215 1.00266 0.88958 0.0
C288 C 0.22157 0.02446 0.89025 0.0
C289 C 0.26637 0.9832 0.87549 0.0
O290 O 0.19807 0.91657 0.89747 0.0
O291 O 0.1724 0.86269 0.89493 0.0
O292 O 0.21527 0.88599 0.9259 0.0
O293 O 0.26083 0.92641 0.91434 0.0
O294 O 0.17246 0.80734 0.90203 0.0
O295 O 0.2091 0.82189 0.9231 0.0
O296 O 0.26045 0.86994 0.90108 0.0
O297 O 0.27853 0.91175 0.88015 0.0
O298 O 0.21659 0.89468 0.86359 0.0
O299 O 0.21836 0.85064 0.87267 0.0
C300 C 0.17184 0.88909 0.89669 0.0
O301 O 0.27168 0.97495 0.89195 0.0
O302 O 0.25224 0.95905 0.86422 0.0
C303 C 0.24151 0.91294 0.92849 0.0
C304 C 0.18278 0.76818 0.91361 0.0
C305 C 0.17608 0.70785 0.90841 0.0
C306 C 0.16331 0.71447 0.92444 0.0
C307 C 0.16663 0.74429 0.92699 0.0
C308 C 0.19622 0.76209 0.89775 0.0
C309 C 0.19295 0.73217 0.89519 0.0
C310 C 0.18346 0.7984 0.91603 0.0
C311 C 0.28228 0.89055 0.8896 0.0
H312 H 0.26261 0.07005 0.85254 0.0
H313 H 0.28131 0.03189 0.85151 0.0
H314 H 0.22349 0.98396 0.90001 0.0
H315 H 0.20482 0.02195 0.90113 0.0
H316 H 0.15071 0.69655 0.93507 0.0
H317 H 0.15611 0.74857 0.93932 0.0
H318 H 0.20867 0.78025 0.88722 0.0
H319 H 0.20291 0.72784 0.88263 0.0
Tb320 Tb 0.67152 0.82381 0.61608 0.0
Tb321 Tb 0.71212 0.79307 0.63431 0.0
C322 C 0.71018 0.80127 0.59128 0.0
C323 C 0.61285 0.85132 0.60706 0.0
C324 C 0.5609 0.85986 0.61553 0.0
C325 C 0.57724 0.87044 0.59826 0.0
C326 C 0.60288 0.86619 0.5941 0.0
C327 C 0.59677 0.84064 0.62433 0.0
C328 C 0.57103 0.84491 0.62855 0.0
C329 C 0.64041 0.8479 0.60233 0.0
O330 O 0.6367 0.77852 0.62735 0.0
O331 O 0.66585 0.75348 0.62581 0.0
O332 O 0.68155 0.79158 0.65685 0.0
O333 O 0.67427 0.83219 0.64674 0.0
O334 O 0.72889 0.76119 0.63167 0.0
O335 O 0.74153 0.79222 0.65577 0.0
O336 O 0.73996 0.84421 0.63786 0.0
O337 O 0.72107 0.85873 0.61252 0.0
O338 O 0.6831 0.80089 0.5931 0.0
O339 O 0.72889 0.80732 0.6058 0.0
C340 C 0.63837 0.7526 0.62666 0.0
O341 O 0.66523 0.86304 0.61307 0.0
O342 O 0.63484 0.81953 0.59845 0.0
C343 C 0.67416 0.8135 0.66023 0.0
C344 C 0.78105 0.78294 0.64347 0.0
C345 C 0.84633 0.80437 0.63863 0.0
C346 C 0.83104 0.79102 0.65589 0.0
C347 C 0.79875 0.78039 0.65826 0.0
C348 C 0.79616 0.79635 0.62625 0.0
C349 C 0.82839 0.8068 0.62383 0.0
C350 C 0.74728 0.77269 0.64639 0.0
C351 C 0.74268 0.86552 0.62552 0.0
H352 H 0.57053 0.88251 0.58803 0.0
H353 H 0.61513 0.87476 0.58074 0.0
H354 H 0.60417 0.82909 0.63453 0.0
H355 H 0.55884 0.83618 0.64189 0.0
H356 H 0.84412 0.78922 0.66773 0.0
H357 H 0.78763 0.77045 0.67172 0.0
H358 H 0.78307 0.79881 0.61466 0.0
H359 H 0.83913 0.81651 0.61026 0.0
Tb360 Tb 0.11185 0.32685 0.88376 0.0
Tb361 Tb 0.18354 0.36639 0.90165 0.0
C362 C 0.17007 0.3647 0.85751 0.0
C363 C 0.03179 0.25967 0.87412 0.0
C364 C 0.98624 0.19506 0.87785 0.0
C365 C 0.98792 0.21167 0.86125 0.0
C366 C 1.01045 0.24368 0.85943 0.0
C367 C 0.03033 0.24318 0.8907 0.0
C368 C 1.00766 0.21122 0.89258 0.0
C369 C 0.05601 0.29314 0.87174 0.0
O370 O 0.13459 0.29853 0.87957 0.0
O371 O 0.16868 0.31676 0.90463 0.0
O372 O 0.14927 0.35511 0.92481 0.0
O373 O 0.10954 0.30968 0.91216 0.0
O374 O 0.22898 0.37204 0.90437 0.0
O375 O 0.21622 0.40237 0.91946 0.0
O376 O 0.17336 0.40161 0.89076 0.0
O377 O 0.11914 0.37309 0.89258 0.0
O378 O 0.14074 0.35721 0.86114 0.0
O379 O 0.18902 0.36474 0.87086 0.0
C380 C 0.15345 0.29547 0.89156 0.0
O381 O 0.06333 0.3108 0.8868 0.0
O382 O 0.08109 0.29851 0.86221 0.0
C383 C 0.12249 0.32823 0.92669 0.0
C384 C 0.27046 0.42467 0.91022 0.0
C385 C 0.33236 0.47631 0.90413 0.0
C386 C 0.30914 0.4807 0.9132 0.0
C387 C 0.27863 0.45521 0.91627 0.0
C388 C 0.29354 0.42034 0.90095 0.0
C389 C 0.32402 0.44582 0.89789 0.0
C390 C 0.23909 0.39706 0.91496 0.0
C391 C 0.14587 0.40029 0.89166 0.0
H392 H 0.97157 0.19998 0.84972 0.0
H393 H 1.01129 0.25596 0.8465 0.0
H394 H 0.04684 0.25494 0.90215 0.0
H395 H 1.00723 0.19902 0.90545 0.0
H396 H 0.31478 0.50372 0.91845 0.0
H397 H 0.26165 0.45936 0.92373 0.0
H398 H 0.28822 0.39711 0.8963 0.0
H399 H 0.34112 0.44158 0.89065 0.0
Tb400 Tb 0.21147 0.84837 0.61673 0.0
Tb401 Tb 0.24268 0.92195 0.63169 0.0
C402 C 0.24444 0.90618 0.59016 0.0
C403 C 0.18807 0.76301 0.60997 0.0
C404 C 0.18361 0.70443 0.61848 0.0
C405 C 0.18362 0.71356 0.59961 0.0
C406 C 0.18574 0.7425 0.59543 0.0
C407 C 0.18893 0.75442 0.62883 0.0
C408 C 0.18659 0.72534 0.63304 0.0
C409 C 0.18746 0.79208 0.60516 0.0
O410 O 0.2615 0.86479 0.62047 0.0
O411 O 0.27905 0.90985 0.6387 0.0
O412 O 0.21539 0.89126 0.6548 0.0
O413 O 0.21857 0.84738 0.64714 0.0
O414 O 0.26433 0.96934 0.62348 0.0
O415 O 0.25439 0.95652 0.65283 0.0
O416 O 0.19606 0.90908 0.62031 0.0
O417 O 0.172 0.85528 0.6231 0.0
O418 O 0.21803 0.87928 0.59257 0.0
O419 O 0.26243 0.92024 0.6047 0.0
C420 C 0.28309 0.88742 0.63109 0.0
O421 O 0.17416 0.80166 0.61744 0.0
O422 O 0.21326 0.81552 0.59816 0.0
C423 C 0.21469 0.86502 0.6597 0.0
C424 C 0.24896 0.99934 0.64178 0.0
C425 C 0.22431 0.0408 0.64135 0.0
C426 C 0.25269 0.04898 0.65095 0.0
C427 C 0.26488 0.02841 0.65116 0.0
C428 C 0.22029 0.99077 0.63259 0.0
C429 C 0.20802 1.01121 0.63242 0.0
C430 C 0.26339 0.97914 0.64044 0.0
C431 C 0.17044 0.88109 0.62113 0.0
H432 H 0.18105 0.69791 0.58807 0.0
H433 H 0.18487 0.74858 0.5808 0.0
H434 H 0.19086 0.76993 0.64031 0.0
H435 H 0.18708 0.71921 0.64769 0.0
H436 H 0.26564 0.07141 0.65817 0.0
H437 H 0.28708 0.0355 0.6583 0.0
H438 H 0.2079 0.96867 0.62502 0.0
H439 H 0.18638 1.00428 0.62467 0.0
Tb440 Tb 0.71368 0.79661 0.88413 0.0
Tb441 Tb 0.67173 0.82577 0.90241 0.0
C442 C 0.67448 0.81549 0.8583 0.0
C443 C 0.7841 0.78996 0.87464 0.0
C444 C 0.84956 0.81365 0.87983 0.0
C445 C 0.83116 0.78598 0.86925 0.0
C446 C 0.79871 0.77427 0.86668 0.0
C447 C 0.80226 0.81755 0.88519 0.0
C448 C 0.83468 0.8293 0.88775 0.0
C449 C 0.75 0.77767 0.87197 0.0
O450 O 0.74057 0.8478 0.88063 0.0
O451 O 0.72097 0.86161 0.90597 0.0
O452 O 0.68411 0.80363 0.92546 0.0
O453 O 0.73023 0.81108 0.91264 0.0
O454 O 0.66427 0.86421 0.90552 0.0
O455 O 0.63424 0.82021 0.91987 0.0
O456 O 0.63779 0.78001 0.8913 0.0
O457 O 0.66807 0.75617 0.89267 0.0
O458 O 0.68251 0.79406 0.86171 0.0
O459 O 0.67438 0.83413 0.87175 0.0
C460 C 0.74279 0.86884 0.89302 0.0
O461 O 0.73262 0.76657 0.88712 0.0
O462 O 0.74259 0.79581 0.86238 0.0
C463 C 0.71147 0.80457 0.9272 0.0
C464 C 0.6107 0.85034 0.91048 0.0
C465 C 0.55784 0.85723 0.9017 0.0
C466 C 0.56274 0.85013 0.92023 0.0
C467 C 0.58891 0.8468 0.92455 0.0
C468 C 0.60569 0.85694 0.89187 0.0
C469 C 0.57958 0.86048 0.88754 0.0
C470 C 0.63889 0.84818 0.91574 0.0
C471 C 0.64023 0.75451 0.89197 0.0
H472 H 0.8419 0.77355 0.86276 0.0
H473 H 0.78505 0.75299 0.85846 0.0
H474 H 0.79131 0.82994 0.89149 0.0
H475 H 0.848 0.85039 0.89617 0.0
H476 H 0.5467 0.84782 0.93152 0.0
H477 H 0.59236 0.84184 0.93901 0.0
H478 H 0.62206 0.85962 0.8807 0.0
H479 H 0.5763 0.86557 0.87309 0.0
H480 H 0.03801 0.15902 0.13836 0.0
H481 H 0.07564 0.13984 0.13555 0.0
H482 H 0.1528 0.23573 0.13256 0.0
H483 H 0.11547 0.25511 0.13509 0.0
H484 H 0.12137 0.15105 0.10666 0.0
H485 H 0.17746 0.19665 0.17639 0.0
H486 H 0.13979 0.19265 0.17 0.0
H487 H 0.17601 0.2259 0.16178 0.0
C488 C 0.06297 0.17604 0.13694 0.0
C489 C 0.07372 0.20866 0.13711 0.0
C490 C 0.08442 0.16502 0.13541 0.0
C491 C 0.11702 0.18636 0.13416 0.0
C492 C 0.12778 0.21886 0.13393 0.0
H493 H 0.29404 0.19609 0.12166 0.0
H494 H 0.24783 0.20244 0.12416 0.0
C495 C 0.1064 0.2299 0.13542 0.0
C496 C 0.14 0.17493 0.13311 0.0
H497 H 0.20502 0.18093 0.15513 0.0
C498 C 0.13943 0.15717 0.11736 0.0
C499 C 0.16334 0.18273 0.14717 0.0
C500 C 0.1641 0.20026 0.16489 0.0
C501 C 0.16271 0.1485 0.11482 0.0
C502 C 0.18682 0.15752 0.12851 0.0
C503 C 0.18657 0.17416 0.1446 0.0
C504 C 0.21414 0.15249 0.12577 0.0
C505 C 0.16225 0.13106 0.09714 0.0
C506 C 0.21055 0.12214 0.12566 0.0
C507 C 0.23716 0.11832 0.12421 0.0
C508 C 0.26773 0.14484 0.12295 0.0
C509 C 0.27096 0.17508 0.12271 0.0
C510 C 0.24452 0.17882 0.12413 0.0
H511 H 0.14491 0.13011 0.0866 0.0
H512 H 0.18608 0.14245 0.09052 0.0
H513 H 0.15574 0.10652 0.10087 0.0
H514 H 0.18731 0.10149 0.12715 0.0
H515 H 0.23382 0.09474 0.12452 0.0
H516 H 0.15353 0.932 0.35808 0.0
H517 H 0.09717 0.89516 0.36273 0.0
H518 H 0.09963 0.94079 0.41534 0.0
H519 H 0.15637 0.97698 0.4112 0.0
H520 H 0.06866 0.87739 0.41897 0.0
H521 H 0.0227 0.90925 0.35634 0.0
H522 H 0.05241 0.8994 0.35019 0.0
H523 H 0.06277 0.93344 0.36469 0.0
C524 C 0.14219 0.93417 0.3707 0.0
C525 C 0.15962 0.95757 0.38425 0.0
C526 C 0.10978 0.91334 0.3732 0.0
C527 C 0.09394 0.91558 0.38919 0.0
C528 C 0.11124 0.93881 0.40278 0.0
H529 H 0.88606 0.79484 0.39887 0.0
H530 H 0.93903 0.84196 0.3985 0.0
C531 C 0.14368 0.95963 0.40032 0.0
C532 C 0.05978 0.89253 0.39221 0.0
H533 H 0.9872 0.85948 0.371 0.0
C534 C 0.05081 0.8738 0.40859 0.0
C535 C 0.03628 0.88814 0.37887 0.0
C536 C 0.04394 0.90886 0.36164 0.0
C537 C 1.01938 0.84978 0.41149 0.0
C538 C 0.99634 0.84396 0.39752 0.0
C539 C 1.00492 0.86374 0.38162 0.0
C540 C 0.96408 0.81585 0.39838 0.0
C541 C 1.0112 0.83056 0.42941 0.0
C542 C 0.96059 0.78564 0.39824 0.0
C543 C 0.93057 0.75886 0.39837 0.0
C544 C 0.90311 0.76151 0.39851 0.0
C545 C 0.90659 0.79186 0.39872 0.0
C546 C 0.93685 0.81882 0.39852 0.0
H547 H 0.02809 0.84388 0.44095 0.0
H548 H 0.98686 0.82341 0.43425 0.0
H549 H 1.01254 0.80891 0.42674 0.0
H550 H 0.98118 0.78272 0.39773 0.0
H551 H 0.92903 0.73599 0.39814 0.0
H552 H 0.84572 0.10781 0.10642 0.0
H553 H 0.83562 0.05392 0.11013 0.0
H554 H 0.90935 0.08566 0.15208 0.0
H555 H 0.91932 0.13966 0.1487 0.0
H556 H 0.87464 0.02866 0.105 0.0
H557 H 0.83413 0.01459 0.17961 0.0
H558 H 0.83876 0.04679 0.16493 0.0
H559 H 0.87282 0.04777 0.17539 0.0
C560 C 0.85988 0.10343 0.11642 0.0
C561 C 0.88317 0.1281 0.12737 0.0
C562 C 0.85405 0.07255 0.11852 0.0
C563 C 0.87132 0.06562 0.13162 0.0
C564 C 0.89521 0.09031 0.1422 0.0
H565 H 0.85519 0.88474 0.16307 0.0
H566 H 0.87337 0.94117 0.15964 0.0
C567 C 0.90099 0.12122 0.14017 0.0
C568 C 0.86418 0.03252 0.13412 0.0
H569 H 0.83817 0.97244 0.16626 0.0
C570 C 0.8667 0.01639 0.1184 0.0
C571 C 0.85388 0.01652 0.15163 0.0
C572 C 0.84943 0.03214 0.16883 0.0
C573 C 0.85919 0.98473 0.1197 0.0
C574 C 0.84844 0.96862 0.13712 0.0
C575 C 0.84647 0.98488 0.15293 0.0
C576 C 0.83785 0.93453 0.13901 0.0
C577 C 0.86301 0.96884 0.10243 0.0
C578 C 0.81166 0.91209 0.12872 0.0
C579 C 0.80126 0.87993 0.13064 0.0
C580 C 0.81674 0.86946 0.14296 0.0
C581 C 0.84293 0.89201 0.15333 0.0
C582 C 0.85325 0.92424 0.15145 0.0
H583 H 0.8793 0.98631 0.09193 0.0
H584 H 0.87216 0.95287 0.1063 0.0
H585 H 0.83962 0.9545 0.09557 0.0
H586 H 0.7991 0.91945 0.11927 0.0
H587 H 0.78126 0.86328 0.12227 0.0
H588 H 0.25483 0.12168 0.3652 0.0
H589 H 0.21254 0.13456 0.36198 0.0
H590 H 0.24214 0.18742 0.41398 0.0
H591 H 0.28481 0.17537 0.4171 0.0
H592 H 0.16224 0.12292 0.38467 0.0
H593 H 0.24292 0.25187 0.37785 0.0
H594 H 0.25672 0.22391 0.37633 0.0
H595 H 0.24955 0.23583 0.39901 0.0
C596 C 0.25233 0.13603 0.37597 0.0
C597 C 0.27347 0.14779 0.3913 0.0
C598 C 0.22813 0.14336 0.3741 0.0
C599 C 0.22461 0.16256 0.38751 0.0
C600 C 0.24494 0.17332 0.40318 0.0
H601 H 0.09433 0.23185 0.40569 0.0
H602 H 0.13426 0.21559 0.40835 0.0
C603 C 0.26922 0.16621 0.405 0.0
C604 C 0.19974 0.17139 0.38516 0.0
H605 H 0.18828 0.23473 0.38233 0.0
C606 C 0.16794 0.14736 0.38402 0.0
C607 C 0.20721 0.20331 0.38424 0.0
C608 C 0.24097 0.23021 0.38423 0.0
C609 C 0.1434 0.15441 0.38247 0.0
C610 C 0.1509 0.1863 0.38191 0.0
C611 C 0.18265 0.21031 0.38289 0.0
C612 C 0.12613 0.1953 0.38036 0.0
C613 C 0.10956 0.12779 0.38183 0.0
C614 C 0.10855 0.18947 0.36367 0.0
C615 C 0.08582 0.19883 0.36208 0.0
C616 C 0.08019 0.21409 0.37718 0.0
C617 C 0.09785 0.21983 0.39389 0.0
C618 C 0.12074 0.21069 0.39541 0.0
H619 H 0.1074 0.10486 0.38588 0.0
H620 H 0.0945 0.13273 0.3914 0.0
H621 H 0.10029 0.1256 0.36726 0.0
H622 H 0.11262 0.17793 0.35181 0.0
H623 H 0.07244 0.19386 0.34908 0.0
H624 H 0.1438 0.99745 0.14194 0.0
H625 H 0.08683 0.96027 0.13968 0.0
H626 H 0.10478 0.88247 0.13959 0.0
H627 H 0.16158 0.91929 0.1416 0.0
H628 H 0.05327 0.91465 0.11147 0.0
H629 H 0.03877 0.8588 0.18163 0.0
H630 H 0.07323 0.89589 0.17544 0.0
H631 H 0.06993 0.85926 0.16787 0.0
C632 C 0.13563 0.97242 0.1414 0.0
C633 C 0.15733 0.96138 0.1421 0.0
C634 C 0.10306 0.95122 0.14018 0.0
C635 C 0.09153 0.9186 0.13977 0.0
C636 C 0.11309 0.90752 0.14033 0.0
H637 H 0.92772 0.74226 0.12345 0.0
H638 H 0.97934 0.78904 0.12724 0.0
C639 C 0.1456 0.92864 0.14154 0.0
C640 C 0.05707 0.89593 0.13826 0.0
H641 H 0.99697 0.83072 0.15936 0.0
C642 C 0.04075 0.89658 0.12206 0.0
C643 C 0.04075 0.87255 0.15217 0.0
C644 C 0.05646 0.8717 0.17035 0.0
C645 C 1.00902 0.87331 0.11892 0.0
C646 C 0.99326 0.84907 0.13242 0.0
C647 C 1.00918 0.84928 0.14898 0.0
C648 C 0.96145 0.82146 0.1289 0.0
C649 C 0.99304 0.87382 0.10079 0.0
C650 C 0.9341 0.82418 0.12833 0.0
C651 C 0.90416 0.79721 0.12614 0.0
C652 C 0.90121 0.76716 0.12457 0.0
C653 C 0.92888 0.76488 0.12471 0.0
C654 C 0.95854 0.79165 0.12689 0.0
H655 H 1.00977 0.89192 0.09073 0.0
H656 H 0.9821 0.85036 0.09383 0.0
H657 H 0.97386 0.87905 0.10402 0.0
H658 H 0.93584 0.84699 0.13003 0.0
H659 H 0.8834 0.79983 0.12608 0.0
H660 H 0.84157 0.87381 0.40191 0.0
H661 H 0.85681 0.92952 0.40386 0.0
H662 H 0.82096 0.9251 0.34758 0.0
H663 H 0.80542 0.8692 0.34557 0.0
H664 H 0.89709 0.98094 0.38236 0.0
H665 H 0.77431 0.95973 0.37803 0.0
H666 H 0.78289 0.92833 0.38196 0.0
H667 H 0.7855 0.94382 0.35857 0.0
C668 C 0.8372 0.88475 0.38986 0.0
C669 C 0.82216 0.867 0.3736 0.0
C670 C 0.84583 0.91658 0.39102 0.0
C671 C 0.83959 0.93139 0.37599 0.0
C672 C 0.82535 0.914 0.35954 0.0
H673 H 0.91558 0.13507 0.36499 0.0
H674 H 0.90473 0.08083 0.36108 0.0
C675 C 0.81653 0.88207 0.35839 0.0
C676 C 0.84771 0.9649 0.37772 0.0
H677 H 0.81556 1.01297 0.37767 0.0
C678 C 0.87928 0.98797 0.3813 0.0
C679 C 0.82439 0.974 0.3766 0.0
C680 C 0.78983 0.95018 0.37376 0.0
C681 C 0.88817 0.01988 0.3837 0.0
C682 C 0.86494 0.02903 0.38219 0.0
C683 C 0.83338 1.00595 0.37867 0.0
C684 C 0.87257 0.06223 0.38483 0.0
C685 C 0.92218 0.04339 0.38832 0.0
C686 C 0.85784 0.06976 0.39933 0.0
C687 C 0.86386 0.10066 0.40156 0.0
C688 C 0.88464 0.12474 0.38925 0.0
C689 C 0.89956 0.11718 0.37478 0.0
C690 C 0.89351 0.08619 0.37257 0.0
H691 H 0.93523 0.03162 0.39344 0.0
H692 H 0.93423 0.05696 0.3754 0.0
H693 H 0.92362 0.06034 0.39926 0.0
H694 H 0.84153 0.05163 0.40892 0.0
H695 H 0.85187 0.10553 0.41283 0.0
H696 H 0.25893 0.1044 0.63497 0.0
H697 H 0.23962 0.14153 0.63106 0.0
H698 H 0.14379 0.06606 0.63938 0.0
H699 H 0.16299 0.02877 0.64379 0.0
H700 H 0.19585 0.13804 0.6032 0.0
H701 H 0.1519 0.13537 0.67618 0.0
H702 H 0.17888 0.12129 0.6707 0.0
H703 H 0.13774 0.09784 0.66478 0.0
C704 C 0.23379 0.09574 0.63633 0.0
C705 C 0.21255 0.06359 0.63982 0.0
C706 C 0.22277 0.11697 0.63393 0.0
C707 C 0.1903 0.10663 0.63509 0.0
C708 C 0.16898 0.07463 0.63867 0.0
H709 H 0.10239 0.22646 0.62667 0.0
H710 H 0.10799 0.17923 0.62819 0.0
C711 C 0.17999 0.05332 0.64103 0.0
C712 C 0.17897 0.12937 0.63192 0.0
H713 H 0.14557 0.16775 0.65404 0.0
C714 C 0.18466 0.14438 0.61428 0.0
C715 C 0.16405 0.13735 0.64631 0.0
C716 C 0.1579 0.12236 0.66563 0.0
C717 C 0.17652 0.16768 0.61078 0.0
C718 C 0.16287 0.17668 0.62542 0.0
C719 C 0.15601 0.1608 0.64283 0.0
C720 C 0.15862 0.2046 0.62356 0.0
C721 C 0.18291 0.18269 0.59145 0.0
C722 C 0.18517 0.23443 0.62055 0.0
C723 C 0.18209 0.26125 0.6197 0.0
C724 C 0.15235 0.25898 0.62195 0.0
C725 C 0.1256 0.22901 0.62477 0.0
C726 C 0.12877 0.20204 0.6257 0.0
H727 H 0.18351 0.16678 0.58046 0.0
H728 H 0.16469 0.18895 0.58751 0.0
H729 H 0.20634 0.20459 0.59151 0.0
H730 H 0.20852 0.2371 0.61925 0.0
H731 H 0.20326 0.28388 0.61754 0.0
H732 H 0.15792 0.93715 0.89386 0.0
H733 H 0.10504 0.93193 0.8935 0.0
H734 H 0.0624 0.83127 0.90042 0.0
H735 H 0.11444 0.83612 0.90094 0.0
H736 H 0.05489 0.89509 0.86765 0.0
H737 H 1.01868 0.85535 0.94131 0.0
H738 H 0.05948 0.87458 0.93369 0.0
H739 H 0.03368 0.83314 0.92938 0.0
C740 C 0.13726 0.91398 0.89553 0.0
C741 C 0.14047 0.88708 0.89744 0.0
C742 C 0.1071 0.91104 0.89528 0.0
C743 C 0.07982 0.88125 0.89723 0.0
C744 C 0.0831 0.85455 0.89929 0.0
H745 H 0.8794 0.78003 0.88736 0.0
H746 H 0.93602 0.80017 0.89176 0.0
C747 C 0.11299 0.8574 0.89944 0.0
C748 C 0.04761 0.87724 0.8961 0.0
H749 H 0.97669 0.84348 0.91927 0.0
C750 C 0.03789 0.8844 0.87905 0.0
C751 C 0.0255 0.86322 0.91098 0.0
C752 C 0.03492 0.8564 0.92994 0.0
C753 C 1.00618 0.87623 0.8761 0.0
C754 C 0.98378 0.86092 0.89071 0.0
C755 C 0.99383 0.855 0.90803 0.0
C756 C 0.94949 0.84918 0.88797 0.0
C757 C 0.99657 0.88256 0.85706 0.0
C758 C 0.9382 0.87008 0.88452 0.0
C759 C 0.90581 0.8586 0.88188 0.0
C760 C 0.88405 0.82599 0.88268 0.0
C761 C 0.8955 0.8052 0.88633 0.0
C762 C 0.92784 0.8167 0.889 0.0
H763 H 1.01524 0.88873 0.84621 0.0
H764 H 0.9744 0.86167 0.85211 0.0
H765 H 0.9921 0.90262 0.8583 0.0
H766 H 0.95443 0.89527 0.88395 0.0
H767 H 0.89785 0.87526 0.87898 0.0
H768 H 0.75945 0.91353 0.60018 0.0
H769 H 0.80304 0.96782 0.60253 0.0
H770 H 0.83083 0.94607 0.65575 0.0
H771 H 0.78771 0.89145 0.6533 0.0
H772 H 0.81243 1.01104 0.62907 0.0
H773 H 0.91471 0.99097 0.62857 0.0
H774 H 0.87526 0.96059 0.62224 0.0
H775 H 0.88633 0.96923 0.6467 0.0
C776 C 0.77501 0.92015 0.61231 0.0
C777 C 0.7701 0.89806 0.62653 0.0
C778 C 0.79993 0.95125 0.61363 0.0
C779 C 0.82052 0.96099 0.62918 0.0
C780 C 0.81577 0.93898 0.64339 0.0
H781 H 0.96857 0.14412 0.66855 0.0
H782 H 0.92802 0.08841 0.6653 0.0
C783 C 0.79095 0.90776 0.64201 0.0
C784 C 0.84586 0.99456 0.63094 0.0
H785 H 0.92564 0.04282 0.63646 0.0
C786 C 0.83719 0.01796 0.63056 0.0
C787 C 0.87821 1.00363 0.63291 0.0
C788 C 0.88928 0.97982 0.63245 0.0
C789 C 0.85986 0.05007 0.63235 0.0
C790 C 0.89209 0.05907 0.63446 0.0
C791 C 0.90085 0.03577 0.63489 0.0
C792 C 0.91703 0.09264 0.63622 0.0
C793 C 0.84917 0.07418 0.6323 0.0
C794 C 0.92448 0.11334 0.62088 0.0
C795 C 0.94763 0.14514 0.62267 0.0
C796 C 0.96369 0.15686 0.63989 0.0
C797 C 0.95634 0.13593 0.65518 0.0
C798 C 0.93334 0.10408 0.65332 0.0
H799 H 0.82316 0.06311 0.6342 0.0
H800 H 0.86119 0.09184 0.64367 0.0
H801 H 0.8556 0.08689 0.61858 0.0
H802 H 0.91232 0.10488 0.60751 0.0
H803 H 0.9526 0.16068 0.61067 0.0
H804 H 0.18423 0.27721 0.91644 0.0
H805 H 0.19458 0.23336 0.9132 0.0
H806 H 0.14484 0.2078 0.86008 0.0
H807 H 0.13407 0.25148 0.8632 0.0
H808 H 0.14308 0.16237 0.90461 0.0
H809 H 0.24056 0.22386 0.85225 0.0
H810 H 0.23024 0.24533 0.86887 0.0
H811 H 0.20473 0.22556 0.84926 0.0
C812 C 0.17532 0.26222 0.90409 0.0
C813 C 0.15837 0.26795 0.89005 0.0
C814 C 0.18124 0.23715 0.9023 0.0
C815 C 0.17063 0.21755 0.88636 0.0
C816 C 0.15333 0.22282 0.87244 0.0
H817 H 0.21307 0.07297 0.84815 0.0
H818 H 0.19616 0.11238 0.85024 0.0
C819 C 0.14715 0.24774 0.87429 0.0
C820 C 0.17814 0.19188 0.8842 0.0
H821 H 0.22779 0.1726 0.8613 0.0
C822 C 0.16153 0.16448 0.89512 0.0
C823 C 0.20204 0.19472 0.87171 0.0
C824 C 0.22065 0.22394 0.85984 0.0
C825 C 0.16815 0.13967 0.89384 0.0
C826 C 0.19272 0.14281 0.88172 0.0
C827 C 0.20903 0.17017 0.87062 0.0
C828 C 0.2023 0.11834 0.88055 0.0
C829 C 0.14831 0.11013 0.90524 0.0
C830 C 0.21178 0.10881 0.89682 0.0
C831 C 0.22122 0.08616 0.89567 0.0
C832 C 0.22192 0.07292 0.87816 0.0
C833 C 0.21292 0.08284 0.86183 0.0
C834 C 0.20317 0.10529 0.86302 0.0
H835 H 0.12485 0.10735 0.90878 0.0
H836 H 0.14455 0.08877 0.89752 0.0
H837 H 0.16059 0.11165 0.91873 0.0
H838 H 0.21231 0.11921 0.91042 0.0
H839 H 0.22859 0.07946 0.90845 0.0
H840 H 0.15413 0.92694 0.62682 0.0
H841 H 0.10058 0.91963 0.62829 0.0
H842 H 0.06116 0.82077 0.61585 0.0
H843 H 0.11423 0.82779 0.61425 0.0
H844 H 0.03342 0.8522 0.59516 0.0
H845 H 0.03834 0.87151 0.67295 0.0
H846 H 0.07 0.90143 0.65901 0.0
H847 H 0.06577 0.86293 0.66083 0.0
C848 C 0.13411 0.90376 0.62417 0.0
C849 C 0.13855 0.87795 0.62051 0.0
C850 C 0.10351 0.89957 0.62514 0.0
C851 C 0.0769 0.86957 0.62239 0.0
C852 C 0.08134 0.84409 0.61808 0.0
H853 H 0.88037 0.77768 0.6522 0.0
H854 H 0.93673 0.79623 0.648 0.0
C855 C 0.11177 0.84818 0.61723 0.0
C856 C 0.04424 0.86408 0.62453 0.0
H857 H 0.99062 0.85871 0.65758 0.0
C858 C 0.02412 0.85397 0.60875 0.0
C859 C 0.03211 0.86603 0.64234 0.0
C860 C 0.05248 0.87585 0.65984 0.0
C861 C 0.99208 0.84542 0.61035 0.0
C862 C 0.9799 0.84712 0.62819 0.0
C863 C 1.0001 0.85758 0.64392 0.0
C864 C 0.94588 0.83661 0.63096 0.0
C865 C 0.97116 0.83359 0.59311 0.0
C866 C 0.9324 0.85339 0.62294 0.0
C867 C 0.9002 0.84306 0.62548 0.0
C868 C 0.88078 0.81566 0.63608 0.0
C869 C 0.89456 0.79908 0.64419 0.0
C870 C 0.92678 0.80954 0.64172 0.0
H871 H 0.98291 0.8288 0.58114 0.0
H872 H 0.94872 0.81164 0.59647 0.0
H873 H 0.96509 0.8516 0.58851 0.0
H874 H 0.94685 0.87459 0.6148 0.0
H875 H 0.89064 0.85679 0.61932 0.0
H876 H 0.96931 0.1482 0.8516 0.0
H877 H 0.92905 0.09234 0.85465 0.0
H878 H 0.90904 0.10899 0.9115 0.0
H879 H 0.94899 0.16492 0.90851 0.0
H880 H 0.92518 0.04723 0.88404 0.0
H881 H 0.82178 0.06612 0.883 0.0
H882 H 0.86032 0.09521 0.87431 0.0
H883 H 0.85296 0.0901 0.89927 0.0
C884 C 0.95619 0.14001 0.86471 0.0
C885 C 0.96223 0.16103 0.87979 0.0
C886 C 0.93336 0.10808 0.86646 0.0
C887 C 0.91591 0.09665 0.88323 0.0
C888 C 0.92207 0.11744 0.89837 0.0
H889 H 0.75773 0.91693 0.918 0.0
H890 H 0.80103 0.97139 0.91591 0.0
C891 C 0.94505 0.14932 0.89669 0.0
C892 C 0.89115 0.06298 0.88485 0.0
H893 H 0.81131 0.0143 0.88886 0.0
C894 C 0.90025 0.03993 0.88505 0.0
C895 C 0.85872 0.05365 0.88622 0.0
C896 C 0.84766 0.07745 0.88556 0.0
C897 C 0.87776 1.00772 0.88694 0.0
C898 C 0.84524 0.99832 0.88818 0.0
C899 C 0.83622 0.02148 0.88793 0.0
C900 C 0.82006 0.96468 0.88981 0.0
C901 C 0.88913 0.98419 0.88808 0.0
C902 C 0.81628 0.94267 0.87583 0.0
C903 C 0.79162 0.91136 0.87705 0.0
C904 C 0.76996 0.90154 0.89215 0.0
C905 C 0.77391 0.92363 0.90616 0.0
C906 C 0.79867 0.95483 0.90498 0.0
H907 H 0.91436 0.9956 0.89243 0.0
H908 H 0.87471 0.96499 0.89824 0.0
H909 H 0.88703 0.9735 0.87395 0.0
H910 H 0.83201 0.94984 0.86374 0.0
H911 H 0.78917 0.89505 0.86595 0.0
H912 H 0.38044 0.2124 0.34285 0.0
H913 H 0.38755 0.22671 0.3092 0.0
H914 H 0.37953 0.13711 0.2955 0.0
H915 H 0.37316 0.12299 0.32876 0.0
H916 H 0.42659 0.18594 0.2752 0.0
H917 H 0.31394 0.18877 0.27181 0.0
H918 H 0.34303 0.21498 0.28846 0.0
H919 H 0.32421 0.17308 0.29194 0.0
C920 C 0.38054 0.19593 0.33267 0.0
C921 C 0.37589 0.16641 0.33854 0.0
C922 C 0.38441 0.20406 0.31344 0.0
C923 C 0.38356 0.18276 0.29979 0.0
C924 C 0.38021 0.15391 0.30574 0.0
H925 H 0.32079 0.12842 0.18941 0.0
H926 H 0.33056 0.14123 0.22279 0.0
C927 C 0.37642 0.14583 0.32484 0.0
C928 C 0.38456 0.18917 0.27919 0.0
H929 H 0.34001 0.19316 0.24322 0.0
C930 C 0.408 0.18811 0.26818 0.0
C931 C 0.36013 0.19178 0.27009 0.0
C932 C 0.33372 0.19202 0.28109 0.0
C933 C 0.40676 0.18786 0.24834 0.0
C934 C 0.38171 0.18936 0.23924 0.0
C935 C 0.35926 0.19217 0.25024 0.0
C936 C 0.37581 0.18356 0.21863 0.0
C937 C 0.43106 0.18388 0.23732 0.0
C938 C 0.39781 0.20341 0.20504 0.0
C939 C 0.39236 0.19601 0.18575 0.0
C940 C 0.36473 0.16873 0.17975 0.0
C941 C 0.34241 0.14955 0.19343 0.0
C942 C 0.34789 0.15689 0.21259 0.0
H943 H 0.44556 0.17773 0.24659 0.0
H944 H 0.4194 0.16516 0.22646 0.0
H945 H 0.44721 0.20629 0.22995 0.0
H946 H 0.41929 0.22442 0.20936 0.0
H947 H 0.40996 0.21139 0.17559 0.0
H948 H 0.82097 0.61755 0.3421 0.0
H949 H 0.8258 0.61068 0.30803 0.0
H950 H 0.85351 0.70818 0.29856 0.0
H951 H 0.84902 0.71528 0.33219 0.0
H952 H 0.79188 0.62028 0.27877 0.0
H953 H 0.92057 0.69895 0.26914 0.0
H954 H 0.90289 0.68421 0.29204 0.0
H955 H 0.90282 0.7179 0.28184 0.0
C956 C 0.82859 0.63761 0.33277 0.0
C957 C 0.83464 0.66697 0.33991 0.0
C958 C 0.83124 0.63363 0.31331 0.0
C959 C 0.84049 0.65905 0.30077 0.0
C960 C 0.847 0.68839 0.30797 0.0
H961 H 0.84276 0.71653 0.18947 0.0
H962 H 0.8474 0.70779 0.2229 0.0
C963 C 0.84418 0.69233 0.32726 0.0
C964 C 0.84141 0.655 0.28 0.0
H965 H 0.8882 0.68913 0.24132 0.0
C966 C 0.81309 0.63471 0.27055 0.0
C967 C 0.86912 0.6738 0.2693 0.0
C968 C 0.90064 0.6947 0.27862 0.0
C969 C 0.81124 0.63447 0.25069 0.0
C970 C 0.83854 0.65479 0.24006 0.0
C971 C 0.86726 0.67367 0.24949 0.0
C972 C 0.83697 0.65962 0.21944 0.0
C973 C 0.77971 0.61402 0.24127 0.0
C974 C 0.83007 0.63555 0.20626 0.0
C975 C 0.82746 0.6405 0.18695 0.0
C976 C 0.8316 0.66959 0.18056 0.0
C977 C 0.83922 0.69377 0.19383 0.0
C978 C 0.84197 0.68886 0.213 0.0
H979 H 0.76004 0.60271 0.25165 0.0
H980 H 0.7744 0.62822 0.23123 0.0
H981 H 0.78063 0.59516 0.23308 0.0
H982 H 0.8265 0.61291 0.21091 0.0
H983 H 0.82159 0.6214 0.17712 0.0
H984 H 0.90004 0.25406 0.18922 0.0
H985 H 0.88551 0.24645 0.22252 0.0
H986 H 0.80418 0.15601 0.20995 0.0
H987 H 0.81872 0.16335 0.17627 0.0
H988 H 0.82775 0.23423 0.24108 0.0
H989 H 0.85485 0.13698 0.2503 0.0
H990 H 0.86865 0.16289 0.23005 0.0
H991 H 0.82773 0.13314 0.23187 0.0
C992 C 0.87892 0.23256 0.19342 0.0
C993 C 0.8607 0.20918 0.18004 0.0
C994 C 0.8706 0.22831 0.21251 0.0
C995 C 0.844 0.20053 0.21876 0.0
C996 C 0.82505 0.17747 0.20544 0.0
H997 H 0.8203 0.15916 0.3415 0.0
H998 H 0.80561 0.1533 0.30785 0.0
C999 C 0.83329 0.18179 0.1862 0.0
C1000 C 0.83735 0.19586 0.23937 0.0
H1001 H 0.84502 0.15766 0.27768 0.0
C1002 C 0.83092 0.21708 0.24906 0.0
C1003 C 0.8413 0.17336 0.24978 0.0
C1004 C 0.84867 0.15031 0.24009 0.0
C1005 C 0.82984 0.2174 0.2689 0.0
C1006 C 0.83597 0.19637 0.27935 0.0
C1007 C 0.84037 0.17379 0.26966 0.0
C1008 C 0.84227 0.2003 0.30003 0.0
C1009 C 0.82304 0.24092 0.27849 0.0
C1010 C 0.86765 0.22859 0.30679 0.0
C1011 C 0.8761 0.23192 0.32583 0.0
C1012 C 0.85947 0.20699 0.33865 0.0
C1013 C 0.83345 0.17887 0.33202 0.0
C1014 C 0.8251 0.17546 0.3128 0.0
H1015 H 0.80833 0.24702 0.26937 0.0
H1016 H 0.81069 0.23174 0.29219 0.0
H1017 H 0.8457 0.26296 0.28121 0.0
H1018 H 0.88171 0.24784 0.29719 0.0
H1019 H 0.89624 0.25394 0.3304 0.0
H1020 H 0.15075 0.31589 0.68948 0.0
H1021 H 0.16469 0.3274 0.72253 0.0
H1022 H 0.23933 0.42085 0.70788 0.0
H1023 H 0.22483 0.40968 0.67429 0.0
H1024 H 0.21819 0.34376 0.74249 0.0
H1025 H 0.18772 0.43925 0.74574 0.0
H1026 H 0.17779 0.41337 0.72563 0.0
H1027 H 0.21786 0.44443 0.72914 0.0
C1028 C 0.17027 0.33895 0.69312 0.0
C1029 C 0.18642 0.362 0.67915 0.0
C1030 C 0.17831 0.34543 0.71213 0.0
C1031 C 0.20277 0.37512 0.71781 0.0
C1032 C 0.21996 0.39794 0.70389 0.0
H1033 H 0.22863 0.3806 0.8426 0.0
H1034 H 0.24439 0.38922 0.80916 0.0
C1035 C 0.21181 0.39145 0.68469 0.0
C1036 C 0.20858 0.38175 0.73841 0.0
H1037 H 0.19798 0.42221 0.77437 0.0
C1038 C 0.21439 0.36132 0.74949 0.0
C1039 C 0.20343 0.40457 0.74752 0.0
C1040 C 0.19614 0.42658 0.73649 0.0
C1041 C 0.21317 0.36168 0.76934 0.0
C1042 C 0.20676 0.38366 0.77844 0.0
C1043 C 0.20297 0.40543 0.76739 0.0
C1044 C 0.19917 0.38142 0.79899 0.0
C1045 C 0.21649 0.33702 0.7803 0.0
C1046 C 0.16902 0.37536 0.80451 0.0
C1047 C 0.16013 0.37081 0.8235 0.0
C1048 C 0.18114 0.37212 0.83758 0.0
C1049 C 0.21178 0.3792 0.83214 0.0
C1050 C 0.22076 0.38394 0.81301 0.0
H1051 H 0.21568 0.31836 0.77097 0.0
H1052 H 0.23954 0.34841 0.7878 0.0
H1053 H 0.19741 0.32566 0.79103 0.0
H1054 H 0.1519 0.37328 0.79402 0.0
H1055 H 0.13637 0.36556 0.82704 0.0
H1056 H 0.20222 0.89525 0.83001 0.0
H1057 H 0.20109 0.88375 0.79651 0.0
H1058 H 0.21881 0.80777 0.80911 0.0
H1059 H 0.22011 0.81919 0.84311 0.0
H1060 H 0.25763 0.88276 0.77798 0.0
H1061 H 0.13997 0.77407 0.76944 0.0
H1062 H 0.14674 0.80195 0.78811 0.0
H1063 H 0.16504 0.77809 0.78925 0.0
C1064 C 0.20561 0.87584 0.82581 0.0
C1065 C 0.21146 0.85825 0.83932 0.0
C1066 C 0.2049 0.86931 0.8066 0.0
C1067 C 0.20984 0.84495 0.80036 0.0
C1068 C 0.21474 0.82657 0.81371 0.0
H1069 H 0.21786 0.81612 0.677 0.0
H1070 H 0.21727 0.80638 0.71116 0.0
C1071 C 0.21548 0.83313 0.83309 0.0
C1072 C 0.2119 0.84081 0.77977 0.0
H1073 H 0.16756 0.79972 0.7416 0.0
C1074 C 0.23825 0.86421 0.77003 0.0
C1075 C 0.1866 0.81658 0.76949 0.0
C1076 C 0.15785 0.79112 0.77947 0.0
C1077 C 0.23931 0.86492 0.75022 0.0
C1078 C 0.21315 0.84187 0.7399 0.0
C1079 C 0.18754 0.81736 0.74959 0.0
C1080 C 0.21073 0.84537 0.71926 0.0
C1081 C 0.26787 0.89109 0.74044 0.0
C1082 C 0.20646 0.86995 0.7126 0.0
C1083 C 0.20672 0.87553 0.69326 0.0
C1084 C 0.21127 0.85662 0.68007 0.0
C1085 C 0.21436 0.83116 0.68676 0.0
C1086 C 0.21402 0.82554 0.70624 0.0
H1087 H 0.2888 0.9021 0.74992 0.0
H1088 H 0.27396 0.88216 0.7276 0.0
H1089 H 0.26247 0.90965 0.73599 0.0
H1090 H 0.2036 0.88533 0.72244 0.0
H1091 H 0.20405 0.89521 0.68871 0.0
H1092 H 0.67352 0.86451 0.6763 0.0
H1093 H 0.66658 0.87222 0.70996 0.0
H1094 H 0.65178 0.77955 0.72242 0.0
H1095 H 0.65848 0.77161 0.68914 0.0
H1096 H 0.6084 0.79509 0.74092 0.0
H1097 H 0.73519 0.88668 0.75034 0.0
H1098 H 0.71321 0.89233 0.73182 0.0
H1099 H 0.72173 0.86075 0.73011 0.0
C1100 C 0.66839 0.84566 0.6862 0.0
C1101 C 0.66682 0.81755 0.68005 0.0
C1102 C 0.66464 0.85018 0.70542 0.0
C1103 C 0.65904 0.82659 0.71871 0.0
C1104 C 0.65618 0.7981 0.71243 0.0
H1105 H 0.65589 0.77195 0.83023 0.0
H1106 H 0.64829 0.77868 0.79692 0.0
C1107 C 0.66013 0.79367 0.69337 0.0
C1108 C 0.65736 0.8314 0.7393 0.0
H1109 H 0.70416 0.86736 0.77768 0.0
C1110 C 0.62916 0.81134 0.74894 0.0
C1111 C 0.68445 0.85268 0.74975 0.0
C1112 C 0.71549 0.87431 0.7401 0.0
C1113 C 0.62773 0.81094 0.76878 0.0
C1114 C 0.65535 0.83075 0.77925 0.0
C1115 C 0.68302 0.85222 0.76962 0.0
C1116 C 0.65722 0.82645 0.7999 0.0
C1117 C 0.59691 0.78858 0.77838 0.0
C1118 C 0.66493 0.85117 0.81273 0.0
C1119 C 0.66921 0.84734 0.83198 0.0
C1120 C 0.6665 0.81894 0.83855 0.0
C1121 C 0.65824 0.79415 0.82566 0.0
C1122 C 0.65365 0.79787 0.80659 0.0
H1123 H 0.57636 0.78292 0.76912 0.0
H1124 H 0.59652 0.76618 0.7816 0.0
H1125 H 0.59415 0.79862 0.79185 0.0
H1126 H 0.66808 0.87353 0.80781 0.0
H1127 H 0.67578 0.86693 0.84154 0.0
H1128 H 0.20031 0.90782 0.95679 0.0
H1129 H 0.21234 0.9433 0.98404 0.0
H1130 H 0.31078 0.99335 0.9679 0.0
H1131 H 0.29893 0.95874 0.94071 0.0
H1132 H 0.25137 0.95776 0.01453 0.0
H1133 H 0.29166 0.06464 0.97082 0.0
H1134 H 0.27079 0.02539 0.96097 0.0
H1135 H 0.31282 0.04452 0.96505 0.0
C1136 C 0.22454 0.92617 0.95922 0.0
C1137 C 0.24861 0.93066 0.94651 0.0
C1138 C 0.23136 0.94656 0.97471 0.0
C1139 C 0.26232 0.97166 0.97768 0.0
C1140 C 0.28654 0.97492 0.96556 0.0
H1141 H 0.35576 0.07287 0.07711 0.0
H1142 H 0.33362 0.03864 0.0497 0.0
C1143 C 0.27975 0.95486 0.9501 0.0
C1144 C 0.26984 0.99443 0.99348 0.0
H1145 H 0.3084 0.07339 1.0034 0.0
C1146 C 0.26344 0.98301 0.01208 0.0
C1147 C 0.28491 0.02743 0.99033 0.0
C1148 C 0.29012 0.0412 0.9707 0.0
C1149 C 0.27337 1.0037 0.0276 0.0
C1150 C 0.29087 0.03673 0.02445 0.0
C1151 C 0.29556 0.04813 1.00585 0.0
C1152 C 0.306 0.05952 0.04025 0.0
C1153 C 0.26516 0.9899 0.04724 0.0
C1154 C 0.29949 0.08412 0.04345 0.0
C1155 C 0.31269 0.10429 0.05906 0.0
C1156 C 0.33255 0.10008 0.07167 0.0
C1157 C 0.34023 0.0765 0.06781 0.0
C1158 C 0.32733 0.05667 0.05222 0.0
H1159 H 0.2435 0.96624 0.04718 0.0
H1160 H 0.28486 0.98704 0.05278 0.0
H1161 H 0.26137 1.00546 0.05703 0.0
H1162 H 0.28342 0.08706 0.03423 0.0
H1163 H 0.30625 0.12217 0.06172 0.0
H1164 H 0.83619 0.71392 0.45985 0.0
H1165 H 0.82205 0.7343 0.48772 0.0
H1166 H 0.7265 0.69427 0.46703 0.0
H1167 H 0.74042 0.67436 0.43926 0.0
H1168 H 0.75177 0.75634 0.47692 0.0
H1169 H 0.76984 0.68991 0.53453 0.0
H1170 H 0.80335 0.71115 0.51923 0.0
H1171 H 0.76744 0.67884 0.50999 0.0
C1172 C 0.81204 0.70897 0.46145 0.0
C1173 C 0.78948 0.69253 0.44731 0.0
C1174 C 0.80396 0.72061 0.47739 0.0
C1175 C 0.77311 0.7157 0.47955 0.0
C1176 C 0.75043 0.69847 0.4657 0.0
H1177 H 0.67311 0.77108 0.56025 0.0
H1178 H 0.68816 0.75131 0.53251 0.0
C1179 C 0.75847 0.68701 0.44982 0.0
C1180 C 0.76454 0.72974 0.4956 0.0
H1181 H 0.75886 0.73002 0.54372 0.0
C1182 C 0.75325 0.75052 0.49153 0.0
C1183 C 0.76644 0.72217 0.51467 0.0
C1184 C 0.77715 0.69909 0.51994 0.0
C1185 C 0.74423 0.76421 0.50597 0.0
C1186 C 0.74603 0.75656 0.52504 0.0
C1187 C 0.75742 0.73587 0.52911 0.0
C1188 C 0.73697 0.77023 0.54106 0.0
C1189 C 0.73353 0.7873 0.50069 0.0
C1190 C 0.75927 0.78743 0.5551 0.0
C1191 C 0.75072 0.79858 0.57092 0.0
C1192 C 0.71954 0.79272 0.57319 0.0
C1193 C 0.69736 0.77628 0.55886 0.0
C1194 C 0.70597 0.76499 0.54298 0.0
H1195 H 0.74116 0.79673 0.48617 0.0
H1196 H 0.70731 0.77515 0.50118 0.0
H1197 H 0.74295 0.80738 0.51075 0.0
H1198 H 0.78332 0.79188 0.55395 0.0
H1199 H 0.76853 0.81129 0.58159 0.0
H1200 H 0.12674 0.36602 0.95674 0.0
H1201 H 0.09218 0.35061 0.98465 0.0
H1202 H 0.0437 0.25401 0.96549 0.0
H1203 H 0.07728 0.26935 0.93751 0.0
H1204 H 1.00214 0.27091 0.97559 0.0
H1205 H 0.09186 0.30627 0.03238 0.0
H1206 H 0.09862 0.33793 0.01676 0.0
H1207 H 0.10119 0.30483 1.00787 0.0
C1208 C 0.10908 0.34143 0.95868 0.0
C1209 C 0.10487 0.31894 0.9449 0.0
C1210 C 0.08931 0.3326 0.97467 0.0
C1211 C 0.06536 0.30102 0.97735 0.0
C1212 C 0.06183 0.27851 0.9638 0.0
H1213 H 0.96467 0.21149 0.07981 0.0
H1214 H 0.99825 0.2304 0.05184 0.0
C1215 C 0.08121 0.28734 0.9478 0.0
C1216 C 0.04303 0.29121 0.99374 0.0
H1217 H 0.03923 0.28907 0.042 0.0
C1218 C 1.01029 0.27491 0.99012 0.0
C1219 C 0.05351 0.29615 0.01274 0.0
C1220 C 0.08819 0.31198 0.01773 0.0
C1221 C 0.98787 0.26309 1.00485 0.0
C1222 C 0.99834 0.2684 0.02385 0.0
C1223 C 0.03108 0.28509 0.02747 0.0
C1224 C 0.97603 0.25546 0.04023 0.0
C1225 C 0.95322 0.24402 0.99984 0.0
C1226 C 0.95177 0.26272 0.04303 0.0
C1227 C 0.93201 0.25141 0.059 0.0
C1228 C 0.93651 0.2331 0.07264 0.0
C1229 C 0.96049 0.22554 0.06962 0.0
C1230 C 0.97988 0.23648 0.05363 0.0
H1231 H 0.94969 0.23489 0.98514 0.0
H1232 H 0.94046 0.22373 1.00961 0.0
H1233 H 0.94242 0.25925 1.00095 0.0
H1234 H 0.94865 0.27786 0.03317 0.0
H1235 H 0.9141 0.25805 0.06103 0.0
H1236 H 0.27418 0.06322 0.4379 0.0
H1237 H 0.25942 0.02912 0.46555 0.0
H1238 H 0.35489 0.08257 0.48661 0.0
H1239 H 0.36991 0.11734 0.45887 0.0
H1240 H 0.28372 0.99123 0.47536 0.0
H1241 H 0.30241 0.07538 0.53324 0.0
H1242 H 0.30038 0.08441 0.50872 0.0
H1243 H 0.33604 0.0874 0.51805 0.0
C1244 C 0.29205 0.06814 0.44851 0.0
C1245 C 0.32331 0.09311 0.44614 0.0
C1246 C 0.28352 0.04847 0.46432 0.0
C1247 C 0.30593 0.05325 0.47823 0.0
C1248 C 0.33701 0.07869 0.47623 0.0
H1249 H 0.30245 0.95347 0.57971 0.0
H1250 H 0.31648 0.98702 0.55183 0.0
C1251 C 0.3456 0.09857 0.46036 0.0
C1252 C 0.29689 0.03046 0.49418 0.0
H1253 H 0.29142 0.02424 0.54229 0.0
C1254 C 0.2853 0.99843 0.49 0.0
C1255 C 0.29888 0.03981 0.51328 0.0
C1256 C 0.30982 0.07356 0.51866 0.0
C1257 C 0.27624 0.97564 0.50438 0.0
C1258 C 0.27832 0.98501 0.52347 0.0
C1259 C 0.28981 0.01703 0.52764 0.0
C1260 C 0.26974 0.96234 0.53946 0.0
C1261 C 0.26529 0.94189 0.49901 0.0
C1262 C 0.23881 0.93672 0.54169 0.0
C1263 C 0.23067 0.91714 0.55769 0.0
C1264 C 0.25327 0.92314 0.5718 0.0
C1265 C 0.28438 0.94821 0.56917 0.0
C1266 C 0.29248 0.96753 0.55323 0.0
H1267 H 0.27244 0.94001 0.48436 0.0
H1268 H 0.27497 0.93115 0.50885 0.0
H1269 H 0.23908 0.92798 0.4998 0.0
H1270 H 0.22068 0.93251 0.53141 0.0
H1271 H 0.20645 0.89827 0.5594 0.0
H1272 H 0.83733 0.71996 0.06032 0.0
H1273 H 0.82357 0.74046 0.03228 0.0
H1274 H 0.72801 0.70118 0.05286 0.0
H1275 H 0.74142 0.68102 0.08068 0.0
H1276 H 0.77564 0.70998 1.00403 0.0
H1277 H 0.75626 0.79481 0.04578 0.0
H1278 H 0.77653 0.77544 0.05523 0.0
H1279 H 0.73402 0.75487 0.05409 0.0
C1280 C 0.81332 0.7154 0.05872 0.0
C1281 C 0.7906 0.69912 0.07285 0.0
C1282 C 0.80551 0.72723 0.04275 0.0
C1283 C 0.77494 0.72304 0.04072 0.0
C1284 C 0.75194 0.70546 0.05435 0.0
H1285 H 0.67521 0.77556 0.95879 0.0
H1286 H 0.69081 0.75623 0.98654 0.0
C1287 C 0.75968 0.69377 0.07023 0.0
C1288 C 0.76678 0.73712 0.02453 0.0
H1289 H 0.73926 0.78733 0.01374 0.0
C1290 C 0.76795 0.72709 1.00612 0.0
C1291 C 0.75653 0.75932 0.02728 0.0
C1292 C 0.756 0.772 0.04664 0.0
C1293 C 0.75845 0.73807 0.99046 0.0
C1294 C 0.74807 0.76017 0.99322 0.0
C1295 C 0.74705 0.77031 0.01163 0.0
C1296 C 0.73895 0.77357 0.9771 0.0
C1297 C 0.75887 0.72528 0.97112 0.0
C1298 C 0.76108 0.79073 0.96295 0.0
C1299 C 0.75228 0.80176 0.94719 0.0
C1300 C 0.72115 0.79617 0.94523 0.0
C1301 C 0.69935 0.7803 0.95986 0.0
C1302 C 0.70821 0.76914 0.97568 0.0
H1303 H 0.75891 0.70262 0.972 0.0
H1304 H 0.73813 0.72151 0.96264 0.0
H1305 H 0.78065 0.7425 0.96354 0.0
H1306 H 0.78514 0.79522 0.96396 0.0
H1307 H 0.76987 0.81418 0.93634 0.0
H1308 H 0.13471 0.30668 0.55874 0.0
H1309 H 0.10187 0.28829 0.53001 0.0
H1310 H 0.03811 0.31599 0.55397 0.0
H1311 H 0.07048 0.33445 0.5823 0.0
H1312 H 0.03656 0.24102 0.52811 0.0
H1313 H 0.05491 0.35536 0.50125 0.0
H1314 H 0.08075 0.35272 0.51851 0.0
H1315 H 0.04339 0.34843 0.52566 0.0
C1316 C 0.11399 0.30931 0.55772 0.0
C1317 C 0.10534 0.32212 0.57285 0.0
C1318 C 0.09515 0.29866 0.54135 0.0
C1319 C 0.06768 0.30109 0.53972 0.0
C1320 C 0.05944 0.31435 0.55468 0.0
H1321 H 0.9129 0.2458 0.45913 0.0
H1322 H 0.94721 0.26371 0.48718 0.0
C1323 C 0.07799 0.32476 0.57098 0.0
C1324 C 0.04648 0.28844 0.52295 0.0
H1325 H 1.01169 0.30904 0.48805 0.0
C1326 C 0.03138 0.25593 0.51922 0.0
C1327 C 0.03939 0.30782 0.51146 0.0
C1328 C 0.05566 0.34307 0.51428 0.0
C1329 C 1.00891 0.2422 0.50464 0.0
C1330 C 1.00169 0.26157 0.49322 0.0
C1331 C 1.01695 0.29411 0.49688 0.0
C1332 C 0.97949 0.24881 0.47687 0.0
C1333 C 0.99249 0.20693 0.50192 0.0
C1334 C 0.98607 0.23439 0.46178 0.0
C1335 C 0.96656 0.22413 0.44585 0.0
C1336 C 0.93997 0.22817 0.44448 0.0
C1337 C 0.93298 0.24208 0.45976 0.0
C1338 C 0.95269 0.25248 0.47575 0.0
H1339 H 0.99349 0.19472 0.51492 0.0
H1340 H 0.96731 0.1973 0.4979 0.0
H1341 H 1.00446 0.20142 0.49043 0.0
H1342 H 1.00687 0.23182 0.46207 0.0
H1343 H 0.97279 0.21357 0.4344 0.0
H1344 H 0.66624 0.12438 0.13987 0.0
H1345 H 0.61207 0.11418 0.14457 0.0
H1346 H 0.62952 0.18805 0.10491 0.0
H1347 H 0.6835 0.19841 0.10016 0.0
H1348 H 0.58811 0.15303 0.15657 0.0
H1349 H 0.55087 0.1119 0.08321 0.0
H1350 H 0.58686 0.11631 0.09327 0.0
H1351 H 0.58573 0.15013 0.08425 0.0
C1352 C 0.65864 0.13867 0.13229 0.0
C1353 C 0.67914 0.16199 0.11946 0.0
C1354 C 0.62762 0.13271 0.13494 0.0
C1355 C 0.6165 0.14988 0.12478 0.0
C1356 C 0.63728 0.17392 0.11252 0.0
H1357 H 0.45993 0.17759 0.11274 0.0
H1358 H 0.50944 0.17709 0.11354 0.0
C1359 C 0.66817 0.17982 0.10983 0.0
C1360 C 0.58319 0.14274 0.12678 0.0
H1361 H 0.51712 0.12482 0.10099 0.0
C1362 C 0.57237 0.1464 0.1445 0.0
C1363 C 0.56255 0.13375 0.11105 0.0
C1364 C 0.57194 0.12746 0.09192 0.0
C1365 C 0.54212 0.14306 0.14664 0.0
C1366 C 0.52218 0.13561 0.1307 0.0
C1367 C 0.53251 0.13067 0.11319 0.0
C1368 C 0.49183 0.13581 0.13134 0.0
C1369 C 0.53221 0.14895 0.1657 0.0
C1370 C 0.46528 0.11271 0.14119 0.0
C1371 C 0.4365 0.11279 0.14075 0.0
C1372 C 0.43387 0.13599 0.13042 0.0
C1373 C 0.46079 0.15924 0.12082 0.0
C1374 C 0.48928 0.15905 0.12123 0.0
H1375 H 0.55185 0.15817 0.17612 0.0
H1376 H 0.52363 0.16605 0.16438 0.0
H1377 H 0.51238 0.12654 0.17125 0.0
H1378 H 0.46666 0.09433 0.14892 0.0
H1379 H 0.4163 0.09452 0.14827 0.0
H1380 H 0.75214 0.56538 0.39577 0.0
H1381 H 0.70313 0.51496 0.39495 0.0
H1382 H 0.65232 0.5616 0.37712 0.0
H1383 H 0.70182 0.61264 0.37764 0.0
H1384 H 0.65096 0.49923 0.41687 0.0
H1385 H 0.61907 0.48673 0.34069 0.0
H1386 H 0.6581 0.51489 0.34913 0.0
H1387 H 0.62606 0.52279 0.35165 0.0
C1388 C 0.73066 0.56506 0.39149 0.0
C1389 C 0.73095 0.5932 0.38687 0.0
C1390 C 0.7026 0.53609 0.39102 0.0
C1391 C 0.674 0.53436 0.3859 0.0
C1392 C 0.67417 0.56225 0.38081 0.0
H1393 H 0.48212 0.37083 0.38952 0.0
H1394 H 0.52784 0.42386 0.38548 0.0
C1395 C 0.70247 0.59143 0.38117 0.0
C1396 C 0.64409 0.50348 0.38718 0.0
H1397 H 0.58275 0.44694 0.36129 0.0
C1398 C 0.63606 0.48785 0.4047 0.0
C1399 C 0.6245 0.48867 0.37134 0.0
C1400 C 0.63237 0.50392 0.35208 0.0
C1401 C 0.60928 0.4578 0.40678 0.0
C1402 C 0.59013 0.44264 0.39087 0.0
C1403 C 0.5976 0.45853 0.37344 0.0
C1404 C 0.56254 0.41013 0.39214 0.0
C1405 C 0.60157 0.4426 0.42608 0.0
C1406 C 0.56689 0.38464 0.39681 0.0
C1407 C 0.54083 0.35433 0.39919 0.0
C1408 C 0.50982 0.34885 0.39694 0.0
C1409 C 0.50563 0.37429 0.39166 0.0
C1410 C 0.53173 0.40459 0.38921 0.0
H1411 H 0.6136 0.46019 0.4375 0.0
H1412 H 0.57566 0.43009 0.42872 0.0
H1413 H 0.60964 0.42506 0.42685 0.0
H1414 H 0.59049 0.3883 0.39889 0.0
H1415 H 0.54497 0.3354 0.40336 0.0
H1416 H 0.94713 0.3335 0.12234 0.0
H1417 H 0.94616 0.38324 0.12155 0.0
H1418 H 0.84478 0.3316 0.12837 0.0
H1419 H 0.84546 0.28227 0.12939 0.0
H1420 H 0.91371 0.40149 0.09615 0.0
H1421 H 0.87246 0.39871 0.16944 0.0
H1422 H 0.8882 0.37411 0.1617 0.0
H1423 H 0.8478 0.36302 0.15664 0.0
C1424 C 0.92468 0.33278 0.12384 0.0
C1425 C 0.89642 0.30381 0.12603 0.0
C1426 C 0.92416 0.36122 0.12335 0.0
C1427 C 0.89545 0.3612 0.12522 0.0
C1428 C 0.8673 0.33232 0.12733 0.0
H1429 H 0.82324 0.49013 0.11914 0.0
H1430 H 0.83165 0.44492 0.12166 0.0
C1431 C 0.86776 0.30403 0.12779 0.0
C1432 C 0.89435 0.39102 0.12428 0.0
H1433 H 0.86827 0.43444 0.14818 0.0
C1434 C 0.90417 0.40896 0.10761 0.0
C1435 C 0.88179 0.40068 0.13922 0.0
C1436 C 0.87224 0.3833 0.15783 0.0
C1437 C 0.90064 0.43559 0.1052 0.0
C1438 C 0.8874 0.44482 0.11999 0.0
C1439 C 0.87821 0.42725 0.13681 0.0
C1440 C 0.88248 0.47238 0.11822 0.0
C1441 C 0.91006 0.45295 0.08658 0.0
C1442 C 0.90826 0.5029 0.11563 0.0
C1443 C 0.90351 0.52876 0.11408 0.0
C1444 C 0.87286 0.52473 0.11521 0.0
C1445 C 0.8471 0.4941 0.11795 0.0
C1446 C 0.85189 0.46824 0.11952 0.0
H1447 H 0.91244 0.43855 0.07524 0.0
H1448 H 0.89246 0.45972 0.08204 0.0
H1449 H 0.93327 0.47484 0.08821 0.0
H1450 H 0.93212 0.50678 0.1149 0.0
H1451 H 0.92389 0.55191 0.11178 0.0
H1452 H 0.46332 0.1804 0.38593 0.0
H1453 H 0.51336 0.1809 0.38751 0.0
H1454 H 0.46391 0.08182 0.40133 0.0
H1455 H 0.41314 0.08093 0.3995 0.0
H1456 H 0.53829 0.16755 0.41856 0.0
H1457 H 0.52403 0.08688 0.35933 0.0
H1458 H 0.49865 0.10365 0.36221 0.0
H1459 H 0.49294 0.07104 0.37668 0.0
C1460 C 0.46284 0.15852 0.38917 0.0
C1461 C 0.43403 0.13056 0.3926 0.0
C1462 C 0.49162 0.15891 0.39007 0.0
C1463 C 0.4925 0.13139 0.39439 0.0
C1464 C 0.46383 0.10325 0.39763 0.0
H1465 H 0.65485 0.10395 0.41113 0.0
H1466 H 0.60163 0.09672 0.40824 0.0
C1467 C 0.43482 0.1028 0.39666 0.0
C1468 C 0.52371 0.13303 0.39633 0.0
H1469 H 0.57059 0.10615 0.37767 0.0
C1470 C 0.54532 0.1541 0.40961 0.0
C1471 C 0.53287 0.11539 0.38471 0.0
C1472 C 0.51108 0.09313 0.36981 0.0
C1473 C 0.57578 0.15809 0.41158 0.0
C1474 C 0.58521 0.14097 0.39972 0.0
C1475 C 0.56342 0.11941 0.38668 0.0
C1476 C 0.61762 0.14522 0.40068 0.0
C1477 C 0.59745 0.18036 0.42655 0.0
C1478 C 0.64438 0.17475 0.397 0.0
C1479 C 0.67489 0.17904 0.39876 0.0
C1480 C 0.67933 0.15383 0.40418 0.0
C1481 C 0.65239 0.12404 0.40728 0.0
C1482 C 0.6219 0.11978 0.4055 0.0
H1483 H 0.58408 0.18501 0.43759 0.0
H1484 H 0.61132 0.17078 0.43346 0.0
H1485 H 0.61431 0.20323 0.41988 0.0
H1486 H 0.64167 0.19461 0.39292 0.0
H1487 H 0.69501 0.20232 0.39633 0.0
H1488 H 0.51487 0.36901 0.09242 0.0
H1489 H 0.55993 0.42148 0.0982 0.0
H1490 H 0.55904 0.39861 0.15713 0.0
H1491 H 0.51494 0.34544 0.15131 0.0
H1492 H 0.56599 0.46898 0.12115 0.0
H1493 H 0.65032 0.42977 0.14295 0.0
H1494 H 0.61275 0.40345 0.1321 0.0
H1495 H 0.61464 0.41338 0.15671 0.0
C1496 C 0.52455 0.37485 0.10656 0.0
C1497 C 0.51138 0.35272 0.12134 0.0
C1498 C 0.55012 0.40505 0.10989 0.0
C1499 C 0.56317 0.41391 0.12805 0.0
C1500 C 0.54978 0.39216 0.14292 0.0
H1501 H 0.70636 0.61337 0.1514 0.0
H1502 H 0.65751 0.56193 0.15329 0.0
C1503 C 0.52429 0.36183 0.13959 0.0
C1504 C 0.59089 0.44586 0.13122 0.0
H1505 H 0.66866 0.48434 0.14433 0.0
C1506 C 0.58841 0.47239 0.12633 0.0
C1507 C 0.62018 0.45025 0.13788 0.0
C1508 C 0.62486 0.42275 0.14256 0.0
C1509 C 0.61456 0.5031 0.12751 0.0
C1510 C 0.64386 0.50745 0.1341 0.0
C1511 C 0.64611 0.48098 0.13944 0.0
C1512 C 0.67331 0.53872 0.13364 0.0
C1513 C 0.61098 0.53047 0.12089 0.0
C1514 C 0.69862 0.54258 0.12235 0.0
C1515 C 0.72646 0.57165 0.12137 0.0
C1516 C 0.72981 0.59777 0.13168 0.0
C1517 C 0.70454 0.59385 0.1432 0.0
C1518 C 0.67654 0.56451 0.14421 0.0
H1519 H 0.58877 0.52253 0.11278 0.0
H1520 H 0.61046 0.54399 0.13333 0.0
H1521 H 0.63131 0.54666 0.11186 0.0
H1522 H 0.69672 0.52307 0.11407 0.0
H1523 H 0.7453 0.57356 0.11236 0.0
H1524 H 0.82374 0.48682 0.39719 0.0
H1525 H 0.83218 0.44176 0.39334 0.0
H1526 H 0.93036 0.50056 0.40837 0.0
H1527 H 0.92216 0.5456 0.41225 0.0
H1528 H 0.87305 0.43318 0.36981 0.0
H1529 H 0.90137 0.42721 0.44516 0.0
H1530 H 0.884 0.45027 0.43728 0.0
H1531 H 0.92568 0.465 0.4343 0.0
C1532 C 0.84717 0.49021 0.39956 0.0
C1533 C 0.87218 0.51977 0.40524 0.0
C1534 C 0.85194 0.4644 0.39742 0.0
C1535 C 0.88176 0.4676 0.40094 0.0
C1536 C 0.90695 0.49728 0.40607 0.0
H1537 H 0.94673 0.32917 0.39839 0.0
H1538 H 0.94544 0.37875 0.3993 0.0
C1539 C 0.9022 0.52302 0.40828 0.0
C1540 C 0.88653 0.43995 0.39915 0.0
H1541 H 0.90757 0.39326 0.42396 0.0
C1542 C 0.88059 0.42446 0.38166 0.0
C1543 C 0.89652 0.42863 0.41459 0.0
C1544 C 0.90201 0.44342 0.43394 0.0
C1545 C 0.88438 0.39802 0.37918 0.0
C1546 C 0.89396 0.38648 0.39468 0.0
C1547 C 0.90042 0.40226 0.41208 0.0
C1548 C 0.89532 0.35686 0.39346 0.0
C1549 C 0.87826 0.38273 0.35996 0.0
C1550 C 0.86757 0.32815 0.39005 0.0
C1551 C 0.86819 0.29993 0.3896 0.0
C1552 C 0.89661 0.29968 0.3926 0.0
C1553 C 0.92449 0.32852 0.39594 0.0
C1554 C 0.92379 0.35684 0.3965 0.0
H1555 H 0.87984 0.39913 0.3486 0.0
H1556 H 0.89533 0.37456 0.35684 0.0
H1557 H 0.85405 0.3619 0.35969 0.0
H1558 H 0.84524 0.32749 0.38802 0.0
H1559 H 0.8462 0.27825 0.38701 0.0
H1560 H 0.14633 0.66234 0.64576 0.0
H1561 H 0.13867 0.60967 0.65209 0.0
H1562 H 0.20363 0.6222 0.60711 0.0
H1563 H 0.21181 0.67494 0.60091 0.0
H1564 H 0.11621 0.55788 0.62637 0.0
H1565 H 0.23671 0.59383 0.65233 0.0
H1566 H 0.22166 0.62085 0.65104 0.0
H1567 H 0.23645 0.61158 0.63016 0.0
C1568 C 0.15935 0.65406 0.6374 0.0
C1569 C 0.17978 0.67291 0.62286 0.0
C1570 C 0.15478 0.62388 0.64097 0.0
C1571 C 0.17085 0.61215 0.63023 0.0
C1572 C 0.19134 0.63095 0.61577 0.0
H1573 H 0.1836 0.44918 0.60904 0.0
H1574 H 0.18655 0.50003 0.61171 0.0
C1575 C 0.19578 0.66099 0.61213 0.0
C1576 C 0.16558 0.57989 0.6336 0.0
H1577 H 0.20461 0.53984 0.64322 0.0
C1578 C 0.13537 0.55384 0.63034 0.0
C1579 C 0.19058 0.57472 0.63889 0.0
C1580 C 0.22311 0.60171 0.64349 0.0
C1581 C 0.12995 0.52278 0.63117 0.0
C1582 C 0.15533 0.5177 0.63567 0.0
C1583 C 0.18518 0.54374 0.63972 0.0
C1584 C 0.15243 0.48603 0.6344 0.0
C1585 C 0.0976 0.49576 0.62628 0.0
C1586 C 0.13221 0.46101 0.64635 0.0
C1587 C 0.13034 0.43148 0.64485 0.0
C1588 C 0.14876 0.42658 0.63141 0.0
C1589 C 0.16897 0.45185 0.61956 0.0
C1590 C 0.17079 0.48112 0.62107 0.0
H1591 H 0.08211 0.50402 0.62004 0.0
H1592 H 0.09954 0.47948 0.61614 0.0
H1593 H 0.08602 0.4822 0.63929 0.0
H1594 H 0.11815 0.46441 0.65694 0.0
H1595 H 0.11466 0.41264 0.65426 0.0
H1596 H 0.29556 0.84737 0.90503 0.0
H1597 H 0.34433 0.8455 0.90302 0.0
H1598 H 0.38578 0.92851 0.8678 0.0
H1599 H 0.33672 0.93093 0.86991 0.0
H1600 H 0.37493 0.8398 0.8712 0.0
H1601 H 0.45171 0.95137 0.91009 0.0
H1602 H 0.40908 0.93249 0.91045 0.0
H1603 H 0.43077 0.95424 0.88998 0.0
C1604 C 0.31495 0.86541 0.89686 0.0
C1605 C 0.31214 0.88948 0.88773 0.0
C1606 C 0.34288 0.86419 0.8957 0.0
C1607 C 0.36887 0.88703 0.88546 0.0
C1608 C 0.36619 0.91092 0.87606 0.0
H1609 H 0.55676 0.90279 0.87956 0.0
H1610 H 0.51174 0.91074 0.87332 0.0
C1611 C 0.33807 0.91216 0.87719 0.0
C1612 C 0.39843 0.88524 0.88478 0.0
H1613 H 0.47509 0.92177 0.90018 0.0
C1614 C 0.39691 0.85787 0.87739 0.0
C1615 C 0.42715 0.90885 0.89281 0.0
C1616 C 0.42994 0.93834 0.90142 0.0
C1617 C 0.42304 0.85314 0.87817 0.0
C1618 C 0.45135 0.87617 0.88685 0.0
C1619 C 0.45333 0.9041 0.89359 0.0
C1620 C 0.47847 0.87084 0.89005 0.0
C1621 C 0.42002 0.82339 0.86981 0.0
C1622 C 0.47479 0.84591 0.90162 0.0
C1623 C 0.50039 0.84129 0.90519 0.0
C1624 C 0.53034 0.86157 0.89731 0.0
C1625 C 0.53394 0.88649 0.88565 0.0
C1626 C 0.5083 0.89119 0.88216 0.0
H1627 H 0.40083 0.81291 0.8591 0.0
H1628 H 0.44254 0.82803 0.8631 0.0
H1629 H 0.41417 0.80575 0.88121 0.0
H1630 H 0.45213 0.8302 0.90811 0.0
H1631 H 0.49671 0.82175 0.91412 0.0
H1632 H 0.57947 0.74263 0.63485 0.0
H1633 H 0.52908 0.69365 0.63288 0.0
H1634 H 0.57739 0.64406 0.61584 0.0
H1635 H 0.62842 0.69327 0.61813 0.0
H1636 H 0.50273 0.65811 0.6016 0.0
H1637 H 0.51823 0.58605 0.65665 0.0
H1638 H 0.54422 0.62814 0.65473 0.0
H1639 H 0.54866 0.60185 0.63892 0.0
C1640 C 0.57958 0.72132 0.63084 0.0
C1641 C 0.60813 0.72197 0.62663 0.0
C1642 C 0.55062 0.69325 0.62972 0.0
C1643 C 0.54932 0.66503 0.62436 0.0
C1644 C 0.57777 0.66538 0.62037 0.0
H1645 H 0.38765 0.47804 0.60221 0.0
H1646 H 0.44061 0.52395 0.60573 0.0
C1647 C 0.60695 0.69357 0.62161 0.0
C1648 C 0.51793 0.63589 0.62208 0.0
H1649 H 0.47164 0.56036 0.63811 0.0
C1650 C 0.49595 0.63677 0.60962 0.0
C1651 C 0.50905 0.60796 0.63248 0.0
C1652 C 0.53112 0.60587 0.64658 0.0
C1653 C 0.46549 0.61062 0.60726 0.0
C1654 C 0.45646 0.58285 0.61784 0.0
C1655 C 0.47854 0.58171 0.63008 0.0
C1656 C 0.4242 0.55476 0.61629 0.0
C1657 C 0.44337 0.6128 0.59323 0.0
C1658 C 0.3973 0.55661 0.62136 0.0
C1659 C 0.36692 0.53041 0.61928 0.0
C1660 C 0.36278 0.50176 0.61209 0.0
C1661 C 0.38987 0.49985 0.60745 0.0
C1662 C 0.42022 0.52602 0.60959 0.0
H1663 H 0.45632 0.6323 0.58295 0.0
H1664 H 0.42979 0.59036 0.58529 0.0
H1665 H 0.42626 0.61741 0.60092 0.0
H1666 H 0.39981 0.5784 0.62686 0.0
H1667 H 0.34665 0.53281 0.62293 0.0
H1668 H 0.12225 0.65111 0.91456 0.0
H1669 H 0.11505 0.59815 0.9112 0.0
H1670 H 0.21131 0.63823 0.89171 0.0
H1671 H 0.21901 0.69139 0.8955 0.0
H1672 H 0.12193 0.56748 0.87904 0.0
H1673 H 0.20604 0.58127 0.93606 0.0
H1674 H 0.1909 0.608 0.93321 0.0
H1675 H 0.22229 0.61147 0.91825 0.0
C1676 C 0.14202 0.64872 0.90972 0.0
C1677 C 0.17135 0.67558 0.90551 0.0
C1678 C 0.13776 0.61839 0.90766 0.0
C1679 C 0.16276 0.61424 0.90147 0.0
C1680 C 0.19184 0.64091 0.89681 0.0
H1681 H 0.19535 0.45893 0.88412 0.0
H1682 H 0.19686 0.50932 0.88599 0.0
C1683 C 0.19611 0.67128 0.89881 0.0
C1684 C 0.15848 0.58202 0.90006 0.0
H1685 H 0.18621 0.53519 0.91727 0.0
C1686 C 0.13585 0.5603 0.88745 0.0
C1687 C 0.17652 0.57267 0.91114 0.0
C1688 C 0.20011 0.59442 0.92556 0.0
C1689 C 0.13154 0.52981 0.88516 0.0
C1690 C 0.14993 0.52064 0.89605 0.0
C1691 C 0.17217 0.54223 0.90888 0.0
C1692 C 0.14768 0.48932 0.89389 0.0
C1693 C 0.10807 0.50808 0.87069 0.0
C1694 C 0.11938 0.46106 0.8976 0.0
C1695 C 0.11833 0.4319 0.89644 0.0
C1696 C 0.14569 0.43057 0.89176 0.0
C1697 C 0.17381 0.45894 0.88786 0.0
C1698 C 0.17477 0.48789 0.88891 0.0
H1699 H 0.10157 0.52112 0.86045 0.0
H1700 H 0.11769 0.49514 0.86276 0.0
H1701 H 0.08615 0.49049 0.878 0.0
H1702 H 0.0983 0.46158 0.90182 0.0
H1703 H 0.09637 0.41055 0.89966 0.0
H1704 H 0.29381 0.83858 0.62512 0.0
H1705 H 0.34359 0.83862 0.62707 0.0
H1706 H 0.39108 0.9357 0.64516 0.0
H1707 H 0.34086 0.93601 0.64312 0.0
H1708 H 0.4217 0.92339 0.61519 0.0
H1709 H 0.39371 0.83754 0.67318 0.0
H1710 H 0.36377 0.82312 0.65521 0.0
H1711 H 0.37109 0.85702 0.66899 0.0
C1712 C 0.3147 0.85998 0.62969 0.0
C1713 C 0.31327 0.88737 0.63393 0.0
C1714 C 0.34317 0.85983 0.63095 0.0
C1715 C 0.37102 0.88699 0.63652 0.0
C1716 C 0.36979 0.91437 0.64098 0.0
H1717 H 0.54561 0.87693 0.6493 0.0
H1718 H 0.50154 0.88625 0.65576 0.0
C1719 C 0.34108 0.91449 0.63986 0.0
C1720 C 0.4015 0.88693 0.63634 0.0
H1721 H 0.43652 0.84592 0.65257 0.0
C1722 C 0.42517 0.90681 0.62358 0.0
C1723 C 0.40623 0.86554 0.64742 0.0
C1724 C 0.38248 0.84481 0.66211 0.0
C1725 C 0.45264 0.90472 0.62091 0.0
C1726 C 0.45636 0.88183 0.63107 0.0
C1727 C 0.4335 0.86315 0.64457 0.0
C1728 C 0.48304 0.876 0.62728 0.0
C1729 C 0.4773 0.92685 0.60706 0.0
C1730 C 0.48688 0.86641 0.60925 0.0
C1731 C 0.51186 0.86086 0.60554 0.0
C1732 C 0.53358 0.86463 0.61981 0.0
C1733 C 0.52925 0.87357 0.638 0.0
C1734 C 0.50418 0.87911 0.6417 0.0
H1735 H 0.47576 0.94853 0.60486 0.0
H1736 H 0.50154 0.93378 0.61196 0.0
H1737 H 0.47339 0.91483 0.59321 0.0
H1738 H 0.47037 0.86297 0.59803 0.0
H1739 H 0.51397 0.85333 0.59149 0.0
H1740 H 0.58011 0.74353 0.88708 0.0
H1741 H 0.53075 0.69343 0.88805 0.0
H1742 H 0.58253 0.64448 0.8973 0.0
H1743 H 0.63257 0.695 0.89654 0.0
H1744 H 0.51041 0.63975 0.86519 0.0
H1745 H 0.51754 0.61324 0.94092 0.0
H1746 H 0.54227 0.65194 0.93091 0.0
H1747 H 0.5509 0.62091 0.92639 0.0
C1748 C 0.58123 0.72222 0.88934 0.0
C1749 C 0.61047 0.72343 0.89184 0.0
C1750 C 0.55285 0.6935 0.88984 0.0
C1751 C 0.55285 0.66521 0.89297 0.0
C1752 C 0.58194 0.6661 0.89517 0.0
H1753 H 0.38827 0.47617 0.9083 0.0
H1754 H 0.4422 0.52035 0.9044 0.0
C1755 C 0.61053 0.69497 0.89461 0.0
C1756 C 0.52214 0.6351 0.89389 0.0
H1757 H 0.4725 0.57654 0.92404 0.0
C1758 C 0.5022 0.62581 0.87802 0.0
C1759 C 0.51144 0.61689 0.91062 0.0
C1760 C 0.53145 0.62623 0.92827 0.0
C1761 C 0.47179 0.59904 0.87849 0.0
C1762 C 0.46069 0.58138 0.8954 0.0
C1763 C 0.48096 0.59014 0.91111 0.0
C1764 C 0.42783 0.55435 0.89727 0.0
C1765 C 0.45189 0.58986 0.8608 0.0
C1766 C 0.40172 0.55875 0.89473 0.0
C1767 C 0.37082 0.53348 0.89681 0.0
C1768 C 0.36529 0.50321 0.9016 0.0
C1769 C 0.39155 0.49896 0.90427 0.0
C1770 C 0.42245 0.52427 0.90219 0.0
H1771 H 0.46674 0.59962 0.84793 0.0
H1772 H 0.43751 0.56382 0.85936 0.0
H1773 H 0.43556 0.59946 0.8615 0.0
H1774 H 0.40524 0.58186 0.8913 0.0
H1775 H 0.35125 0.53764 0.89453 0.0
loop_
_geom_bond_atom_site_label_1
_geom_bond_atom_site_label_2
_geom_bond_distance
_geom_bond_site_symmetry_2
_ccdc_geom_bond_type
Tb0 C9 2.764 . S
Tb0 O10 2.325 . S
Tb0 O13 2.303 . S
Tb0 O17 2.322 . S
Tb0 O18 2.349 . S
Tb0 O21 2.415 . S
Tb0 O22 2.399 . S
Tb1 O11 2.322 . S
Tb1 O12 2.349 . S
Tb1 O14 2.415 . S
Tb1 O15 2.399 . S
Tb1 O16 2.325 . S
Tb1 O19 2.303 . S
Tb1 C30 2.764 . S
C2 O18 1.261 . S
C2 O19 1.257 . S
C3 C6 1.358 . S
C3 C7 1.332 . S
C3 C9 1.504 . S
C4 C5 1.373 . S
C4 C8 1.308 . S
C5 C4 1.373 . S
C5 C6 1.429 1_565 S
C5 H32 0.932 . S
C6 C3 1.358 . S
C6 C5 1.429 1_545 S
C6 H33 0.930 . S
C7 C3 1.332 . S
C7 C8 1.394 1_545 S
C7 H34 0.932 . S
C8 C4 1.308 . S
C8 C7 1.394 1_565 S
C8 H35 0.929 . S
C9 Tb0 2.764 . S
C9 C3 1.504 . S
C9 O21 1.239 . S
C9 O22 1.263 . S
O10 Tb0 2.325 . S
O10 C20 1.236 . S
O11 Tb1 2.322 . S
O11 C20 1.257 . S
O12 Tb1 2.349 . S
O12 C23 1.261 . S
O13 Tb0 2.303 . S
O13 C23 1.257 . S
O14 Tb1 2.415 . S
O14 C30 1.239 . S
O15 Tb1 2.399 . S
O15 C30 1.263 . S
O16 Tb1 2.325 . S
O16 C31 1.236 . S
O17 Tb0 2.322 . S
O17 C31 1.257 . S
O18 Tb0 2.349 . S
O18 C2 1.261 . S
O19 Tb1 2.303 . S
O19 C2 1.257 . S
C20 O10 1.236 . S
C20 O11 1.257 . S
O21 Tb0 2.415 . S
O21 C9 1.239 . S
O22 Tb0 2.399 . S
O22 C9 1.263 . S
C23 O12 1.261 . S
C23 O13 1.257 . S
C24 C27 1.358 . S
C24 C28 1.332 . S
C24 C30 1.504 . S
C25 C26 1.373 . S
C25 C29 1.308 . S
C26 C25 1.373 . S
C26 C27 1.429 . S
C26 H36 0.932 . S
C27 C24 1.358 . S
C27 C26 1.429 . S
C27 H37 0.930 . S
C28 C24 1.332 . S
C28 C29 1.394 . S
C28 H38 0.932 . S
C29 C25 1.308 . S
C29 C28 1.394 . S
C29 H39 0.929 . S
C30 Tb1 2.764 . S
C30 O14 1.239 . S
C30 O15 1.263 . S
C30 C24 1.504 . S
C31 O16 1.236 . S
C31 O17 1.257 . S
H32 C5 0.932 . S
H33 C6 0.930 . S
H34 C7 0.932 . S
H35 C8 0.929 . S
H36 C26 0.932 . S
H37 C27 0.930 . S
H38 C28 0.932 . S
H39 C29 0.929 . S
Tb40 C49 2.764 . S
Tb40 O50 2.325 . S
Tb40 O53 2.303 . S
Tb40 O57 2.322 . S
Tb40 O58 2.349 . S
Tb40 O61 2.415 . S
Tb40 O62 2.399 . S
Tb41 O51 2.322 . S
Tb41 O52 2.349 . S
Tb41 O54 2.415 . S
Tb41 O55 2.399 . S
Tb41 O56 2.325 . S
Tb41 O59 2.303 . S
Tb41 C70 2.764 . S
C42 O58 1.261 . S
C42 O59 1.257 . S
C43 C46 1.358 . S
C43 C47 1.332 . S
C43 C49 1.504 . S
C44 C45 1.373 . S
C44 C48 1.308 . S
C45 C44 1.373 . S
C45 C46 1.429 . S
C45 H72 0.932 . S
C46 C43 1.358 . S
C46 C45 1.429 . S
C46 H73 0.930 . S
C47 C43 1.332 . S
C47 C48 1.394 . S
C47 H74 0.932 . S
C48 C44 1.308 . S
C48 C47 1.394 . S
C48 H75 0.929 . S
C49 Tb40 2.764 . S
C49 C43 1.504 . S
C49 O61 1.239 . S
C49 O62 1.263 . S
O50 Tb40 2.325 . S
O50 C60 1.236 . S
O51 Tb41 2.322 . S
O51 C60 1.257 . S
O52 Tb41 2.349 . S
O52 C63 1.261 . S
O53 Tb40 2.303 . S
O53 C63 1.257 . S
O54 Tb41 2.415 . S
O54 C70 1.239 . S
O55 Tb41 2.399 . S
O55 C70 1.263 . S
O56 Tb41 2.325 . S
O56 C71 1.236 . S
O57 Tb40 2.322 . S
O57 C71 1.257 . S
O58 Tb40 2.349 . S
O58 C42 1.261 . S
O59 Tb41 2.303 . S
O59 C42 1.257 . S
C60 O50 1.236 . S
C60 O51 1.257 . S
O61 Tb40 2.415 . S
O61 C49 1.239 . S
O62 Tb40 2.399 . S
O62 C49 1.263 . S
C63 O52 1.261 . S
C63 O53 1.257 . S
C64 C67 1.358 . S
C64 C68 1.332 . S
C64 C70 1.504 . S
C65 C66 1.373 . S
C65 C69 1.308 . S
C66 C65 1.373 . S
C66 C67 1.429 . S
C66 H76 0.932 . S
C67 C64 1.358 . S
C67 C66 1.429 . S
C67 H77 0.930 . S
C68 C64 1.332 . S
C68 C69 1.394 . S
C68 H78 0.932 . S
C69 C65 1.308 . S
C69 C68 1.394 . S
C69 H79 0.929 . S
C70 Tb41 2.764 . S
C70 O54 1.239 . S
C70 O55 1.263 . S
C70 C64 1.504 . S
C71 O56 1.236 . S
C71 O57 1.257 . S
H72 C45 0.932 . S
H73 C46 0.930 . S
H74 C47 0.932 . S
H75 C48 0.929 . S
H76 C66 0.932 . S
H77 C67 0.930 . S
H78 C68 0.932 . S
H79 C69 0.929 . S
Tb80 C89 2.764 . S
Tb80 O90 2.325 . S
Tb80 O93 2.303 . S
Tb80 O97 2.322 . S
Tb80 O98 2.349 . S
Tb80 O101 2.415 . S
Tb80 O102 2.399 . S
Tb81 O91 2.322 . S
Tb81 O92 2.349 . S
Tb81 O94 2.415 . S
Tb81 O95 2.399 . S
Tb81 O96 2.325 . S
Tb81 O99 2.303 . S
Tb81 C110 2.764 . S
C82 O98 1.261 . S
C82 O99 1.257 . S
C83 C86 1.358 . S
C83 C87 1.332 . S
C83 C89 1.504 . S
C84 C85 1.373 . S
C84 C88 1.308 . S
C85 C84 1.373 . S
C85 C86 1.429 1_455 S
C85 H112 0.932 . S
C86 C83 1.358 . S
C86 C85 1.429 1_655 S
C86 H113 0.930 . S
C87 C83 1.332 . S
C87 C88 1.394 1_655 S
C87 H114 0.932 . S
C88 C84 1.308 . S
C88 C87 1.394 1_455 S
C88 H115 0.929 . S
C89 Tb80 2.764 . S
C89 C83 1.504 . S
C89 O101 1.239 . S
C89 O102 1.263 . S
O90 Tb80 2.325 . S
O90 C100 1.236 . S
O91 Tb81 2.322 . S
O91 C100 1.257 . S
O92 Tb81 2.349 . S
O92 C103 1.261 . S
O93 Tb80 2.303 . S
O93 C103 1.257 . S
O94 Tb81 2.415 . S
O94 C110 1.239 . S
O95 Tb81 2.399 . S
O95 C110 1.263 . S
O96 Tb81 2.325 . S
O96 C111 1.236 . S
O97 Tb80 2.322 . S
O97 C111 1.257 . S
O98 Tb80 2.349 . S
O98 C82 1.261 . S
O99 Tb81 2.303 . S
O99 C82 1.257 . S
C100 O90 1.236 . S
C100 O91 1.257 . S
O101 Tb80 2.415 . S
O101 C89 1.239 . S
O102 Tb80 2.399 . S
O102 C89 1.263 . S
C103 O92 1.261 . S
C103 O93 1.257 . S
C104 C107 1.358 . S
C104 C108 1.332 . S
C104 C110 1.504 . S
C105 C106 1.373 . S
C105 C109 1.308 . S
C106 C105 1.373 . S
C106 C107 1.429 . S
C106 H116 0.932 . S
C107 C104 1.358 . S
C107 C106 1.429 . S
C107 H117 0.930 . S
C108 C104 1.332 . S
C108 C109 1.394 . S
C108 H118 0.932 . S
C109 C105 1.308 . S
C109 C108 1.394 . S
C109 H119 0.929 . S
C110 Tb81 2.764 . S
C110 O94 1.239 . S
C110 O95 1.263 . S
C110 C104 1.504 . S
C111 O96 1.236 . S
C111 O97 1.257 . S
H112 C85 0.932 . S
H113 C86 0.930 . S
H114 C87 0.932 . S
H115 C88 0.929 . S
H116 C106 0.932 . S
H117 C107 0.930 . S
H118 C108 0.932 . S
H119 C109 0.929 . S
Tb120 C129 2.764 . S
Tb120 O130 2.325 . S
Tb120 O133 2.303 . S
Tb120 O137 2.322 . S
Tb120 O138 2.349 . S
Tb120 O141 2.415 . S
Tb120 O142 2.399 . S
Tb121 O131 2.322 . S
Tb121 O132 2.349 . S
Tb121 O134 2.415 . S
Tb121 O135 2.399 . S
Tb121 O136 2.325 . S
Tb121 O139 2.303 . S
Tb121 C150 2.764 . S
C122 O138 1.261 . S
C122 O139 1.257 . S
C123 C126 1.358 . S
C123 C127 1.332 . S
C123 C129 1.504 . S
C124 C125 1.373 . S
C124 C128 1.308 . S
C125 C124 1.373 . S
C125 C126 1.429 . S
C125 H152 0.932 . S
C126 C123 1.358 . S
C126 C125 1.429 . S
C126 H153 0.930 . S
C127 C123 1.332 . S
C127 C128 1.394 . S
C127 H154 0.932 . S
C128 C124 1.308 . S
C128 C127 1.394 . S
C128 H155 0.929 . S
C129 Tb120 2.764 . S
C129 C123 1.504 . S
C129 O141 1.239 . S
C129 O142 1.263 . S
O130 Tb120 2.325 . S
O130 C140 1.236 . S
O131 Tb121 2.322 . S
O131 C140 1.257 . S
O132 Tb121 2.349 . S
O132 C143 1.261 . S
O133 Tb120 2.303 . S
O133 C143 1.257 . S
O134 Tb121 2.415 . S
O134 C150 1.239 . S
O135 Tb121 2.399 . S
O135 C150 1.263 . S
O136 Tb121 2.325 . S
O136 C151 1.236 . S
O137 Tb120 2.322 . S
O137 C151 1.257 . S
O138 Tb120 2.349 . S
O138 C122 1.261 . S
O139 Tb121 2.303 . S
O139 C122 1.257 . S
C140 O130 1.236 . S
C140 O131 1.257 . S
O141 Tb120 2.415 . S
O141 C129 1.239 . S
O142 Tb120 2.399 . S
O142 C129 1.263 . S
C143 O132 1.261 . S
C143 O133 1.257 . S
C144 C147 1.358 . S
C144 C148 1.332 . S
C144 C150 1.504 . S
C145 C146 1.373 . S
C145 C149 1.308 . S
C146 C145 1.373 . S
C146 C147 1.429 1_565 S
C146 H156 0.932 . S
C147 C144 1.358 . S
C147 C146 1.429 1_545 S
C147 H157 0.930 . S
C148 C144 1.332 . S
C148 C149 1.394 1_545 S
C148 H158 0.932 . S
C149 C145 1.308 . S
C149 C148 1.394 1_565 S
C149 H159 0.929 . S
C150 Tb121 2.764 . S
C150 O134 1.239 . S
C150 O135 1.263 . S
C150 C144 1.504 . S
C151 O136 1.236 . S
C151 O137 1.257 . S
H152 C125 0.932 . S
H153 C126 0.930 . S
H154 C127 0.932 . S
H155 C128 0.929 . S
H156 C146 0.932 . S
H157 C147 0.930 . S
H158 C148 0.932 . S
H159 C149 0.929 . S
Tb160 C169 2.764 . S
Tb160 O170 2.325 . S
Tb160 O173 2.303 . S
Tb160 O177 2.322 . S
Tb160 O178 2.349 . S
Tb160 O181 2.415 . S
Tb160 O182 2.399 . S
Tb161 O171 2.322 . S
Tb161 O172 2.349 . S
Tb161 O174 2.415 . S
Tb161 O175 2.399 . S
Tb161 O176 2.325 . S
Tb161 O179 2.303 . S
Tb161 C190 2.764 . S
C162 O178 1.261 . S
C162 O179 1.257 . S
C163 C166 1.358 . S
C163 C167 1.332 . S
C163 C169 1.504 . S
C164 C165 1.373 . S
C164 C168 1.308 . S
C165 C164 1.373 . S
C165 C166 1.429 . S
C165 H192 0.932 . S
C166 C163 1.358 . S
C166 C165 1.429 . S
C166 H193 0.930 . S
C167 C163 1.332 . S
C167 C168 1.394 . S
C167 H194 0.932 . S
C168 C164 1.308 . S
C168 C167 1.394 . S
C168 H195 0.929 . S
C169 Tb160 2.764 . S
C169 C163 1.504 . S
C169 O181 1.239 . S
C169 O182 1.263 . S
O170 Tb160 2.325 . S
O170 C180 1.236 . S
O171 Tb161 2.322 . S
O171 C180 1.257 . S
O172 Tb161 2.349 . S
O172 C183 1.261 . S
O173 Tb160 2.303 . S
O173 C183 1.257 . S
O174 Tb161 2.415 . S
O174 C190 1.239 . S
O175 Tb161 2.399 . S
O175 C190 1.263 . S
O176 Tb161 2.325 . S
O176 C191 1.236 . S
O177 Tb160 2.322 . S
O177 C191 1.257 . S
O178 Tb160 2.349 . S
O178 C162 1.261 . S
O179 Tb161 2.303 . S
O179 C162 1.257 . S
C180 O170 1.236 . S
C180 O171 1.257 . S
O181 Tb160 2.415 . S
O181 C169 1.239 . S
O182 Tb160 2.399 . S
O182 C169 1.263 . S
C183 O172 1.261 . S
C183 O173 1.257 . S
C184 C187 1.358 . S
C184 C188 1.332 . S
C184 C190 1.504 . S
C185 C186 1.373 . S
C185 C189 1.308 . S
C186 C185 1.373 . S
C186 C187 1.429 . S
C186 H196 0.932 . S
C187 C184 1.358 . S
C187 C186 1.429 . S
C187 H197 0.930 . S
C188 C184 1.332 . S
C188 C189 1.394 . S
C188 H198 0.932 . S
C189 C185 1.308 . S
C189 C188 1.394 . S
C189 H199 0.929 . S
C190 Tb161 2.764 . S
C190 O174 1.239 . S
C190 O175 1.263 . S
C190 C184 1.504 . S
C191 O176 1.236 . S
C191 O177 1.257 . S
H192 C165 0.932 . S
H193 C166 0.930 . S
H194 C167 0.932 . S
H195 C168 0.929 . S
H196 C186 0.932 . S
H197 C187 0.930 . S
H198 C188 0.932 . S
H199 C189 0.929 . S
Tb200 C209 2.764 . S
Tb200 O210 2.325 . S
Tb200 O213 2.303 . S
Tb200 O217 2.322 . S
Tb200 O218 2.349 . S
Tb200 O221 2.415 . S
Tb200 O222 2.399 . S
Tb201 O211 2.322 . S
Tb201 O212 2.349 . S
Tb201 O214 2.415 . S
Tb201 O215 2.399 . S
Tb201 O216 2.325 . S
Tb201 O219 2.303 . S
Tb201 C230 2.764 . S
C202 O218 1.261 . S
C202 O219 1.257 . S
C203 C206 1.358 . S
C203 C207 1.332 . S
C203 C209 1.504 . S
C204 C205 1.373 . S
C204 C208 1.308 . S
C205 C204 1.373 . S
C205 C206 1.429 . S
C205 H232 0.932 . S
C206 C203 1.358 . S
C206 C205 1.429 . S
C206 H233 0.930 . S
C207 C203 1.332 . S
C207 C208 1.394 . S
C207 H234 0.932 . S
C208 C204 1.308 . S
C208 C207 1.394 . S
C208 H235 0.929 . S
C209 Tb200 2.764 . S
C209 C203 1.504 . S
C209 O221 1.239 . S
C209 O222 1.263 . S
O210 Tb200 2.325 . S
O210 C220 1.236 . S
O211 Tb201 2.322 . S
O211 C220 1.257 . S
O212 Tb201 2.349 . S
O212 C223 1.261 . S
O213 Tb200 2.303 . S
O213 C223 1.257 . S
O214 Tb201 2.415 . S
O214 C230 1.239 . S
O215 Tb201 2.399 . S
O215 C230 1.263 . S
O216 Tb201 2.325 . S
O216 C231 1.236 . S
O217 Tb200 2.322 . S
O217 C231 1.257 . S
O218 Tb200 2.349 . S
O218 C202 1.261 . S
O219 Tb201 2.303 . S
O219 C202 1.257 . S
C220 O210 1.236 . S
C220 O211 1.257 . S
O221 Tb200 2.415 . S
O221 C209 1.239 . S
O222 Tb200 2.399 . S
O222 C209 1.263 . S
C223 O212 1.261 . S
C223 O213 1.257 . S
C224 C227 1.358 . S
C224 C228 1.332 . S
C224 C230 1.504 . S
C225 C226 1.373 . S
C225 C229 1.308 . S
C226 C225 1.373 . S
C226 C227 1.429 1_455 S
C226 H236 0.932 . S
C227 C224 1.358 . S
C227 C226 1.429 1_655 S
C227 H237 0.930 . S
C228 C224 1.332 . S
C228 C229 1.394 1_655 S
C228 H238 0.932 . S
C229 C225 1.308 . S
C229 C228 1.394 1_455 S
C229 H239 0.929 . S
C230 Tb201 2.764 . S
C230 O214 1.239 . S
C230 O215 1.263 . S
C230 C224 1.504 . S
C231 O216 1.236 . S
C231 O217 1.257 . S
H232 C205 0.932 . S
H233 C206 0.930 . S
H234 C207 0.932 . S
H235 C208 0.929 . S
H236 C226 0.932 . S
H237 C227 0.930 . S
H238 C228 0.932 . S
H239 C229 0.929 . S
Tb240 C249 2.764 . S
Tb240 O250 2.325 . S
Tb240 O253 2.303 . S
Tb240 O257 2.322 . S
Tb240 O258 2.349 . S
Tb240 O261 2.415 . S
Tb240 O262 2.399 . S
Tb241 O251 2.322 . S
Tb241 O252 2.349 . S
Tb241 O254 2.415 . S
Tb241 O255 2.399 . S
Tb241 O256 2.325 . S
Tb241 O259 2.303 . S
Tb241 C270 2.764 . S
C242 O258 1.261 . S
C242 O259 1.257 . S
C243 C246 1.358 . S
C243 C247 1.332 . S
C243 C249 1.504 . S
C244 C245 1.373 . S
C244 C248 1.308 . S
C245 C244 1.373 . S
C245 C246 1.429 . S
C245 H272 0.932 . S
C246 C243 1.358 . S
C246 C245 1.429 . S
C246 H273 0.930 . S
C247 C243 1.332 . S
C247 C248 1.394 . S
C247 H274 0.932 . S
C248 C244 1.308 . S
C248 C247 1.394 . S
C248 H275 0.929 . S
C249 Tb240 2.764 . S
C249 C243 1.504 . S
C249 O261 1.239 . S
C249 O262 1.263 . S
O250 Tb240 2.325 . S
O250 C260 1.236 . S
O251 Tb241 2.322 . S
O251 C260 1.257 . S
O252 Tb241 2.349 . S
O252 C263 1.261 . S
O253 Tb240 2.303 . S
O253 C263 1.257 . S
O254 Tb241 2.415 . S
O254 C270 1.239 . S
O255 Tb241 2.399 . S
O255 C270 1.263 . S
O256 Tb241 2.325 . S
O256 C271 1.236 . S
O257 Tb240 2.322 . S
O257 C271 1.257 . S
O258 Tb240 2.349 . S
O258 C242 1.261 . S
O259 Tb241 2.303 . S
O259 C242 1.257 . S
C260 O250 1.236 . S
C260 O251 1.257 . S
O261 Tb240 2.415 . S
O261 C249 1.239 . S
O262 Tb240 2.399 . S
O262 C249 1.263 . S
C263 O252 1.261 . S
C263 O253 1.257 . S
C264 C267 1.358 . S
C264 C268 1.332 . S
C264 C270 1.504 . S
C265 C266 1.373 . S
C265 C269 1.308 . S
C266 C265 1.373 . S
C266 C267 1.429 1_655 S
C266 H276 0.932 . S
C267 C264 1.358 . S
C267 C266 1.429 1_455 S
C267 H277 0.930 . S
C268 C264 1.332 . S
C268 C269 1.394 1_455 S
C268 H278 0.932 . S
C269 C265 1.308 . S
C269 C268 1.394 1_655 S
C269 H279 0.929 . S
C270 Tb241 2.764 . S
C270 O254 1.239 . S
C270 O255 1.263 . S
C270 C264 1.504 . S
C271 O256 1.236 . S
C271 O257 1.257 . S
H272 C245 0.932 . S
H273 C246 0.930 . S
H274 C247 0.932 . S
H275 C248 0.929 . S
H276 C266 0.932 . S
H277 C267 0.930 . S
H278 C268 0.932 . S
H279 C269 0.929 . S
Tb280 C289 2.764 . S
Tb280 O290 2.325 . S
Tb280 O293 2.303 . S
Tb280 O297 2.322 . S
Tb280 O298 2.349 . S
Tb280 O301 2.415 . S
Tb280 O302 2.399 . S
Tb281 O291 2.322 . S
Tb281 O292 2.349 . S
Tb281 O294 2.415 . S
Tb281 O295 2.399 . S
Tb281 O296 2.325 . S
Tb281 O299 2.303 . S
Tb281 C310 2.764 . S
C282 O298 1.261 . S
C282 O299 1.257 . S
C283 C286 1.358 . S
C283 C287 1.332 . S
C283 C289 1.504 . S
C284 C285 1.373 . S
C284 C288 1.308 . S
C285 C284 1.373 . S
C285 C286 1.429 1_545 S
C285 H312 0.932 . S
C286 C283 1.358 . S
C286 C285 1.429 1_565 S
C286 H313 0.930 . S
C287 C283 1.332 . S
C287 C288 1.394 1_565 S
C287 H314 0.932 . S
C288 C284 1.308 . S
C288 C287 1.394 1_545 S
C288 H315 0.929 . S
C289 Tb280 2.764 . S
C289 C283 1.504 . S
C289 O301 1.239 . S
C289 O302 1.263 . S
O290 Tb280 2.325 . S
O290 C300 1.236 . S
O291 Tb281 2.322 . S
O291 C300 1.257 . S
O292 Tb281 2.349 . S
O292 C303 1.261 . S
O293 Tb280 2.303 . S
O293 C303 1.257 . S
O294 Tb281 2.415 . S
O294 C310 1.239 . S
O295 Tb281 2.399 . S
O295 C310 1.263 . S
O296 Tb281 2.325 . S
O296 C311 1.236 . S
O297 Tb280 2.322 . S
O297 C311 1.257 . S
O298 Tb280 2.349 . S
O298 C282 1.261 . S
O299 Tb281 2.303 . S
O299 C282 1.257 . S
C300 O290 1.236 . S
C300 O291 1.257 . S
O301 Tb280 2.415 . S
O301 C289 1.239 . S
O302 Tb280 2.399 . S
O302 C289 1.263 . S
C303 O292 1.261 . S
C303 O293 1.257 . S
C304 C307 1.358 . S
C304 C308 1.332 . S
C304 C310 1.504 . S
C305 C306 1.373 . S
C305 C309 1.308 . S
C306 C305 1.373 . S
C306 C307 1.429 . S
C306 H316 0.932 . S
C307 C304 1.358 . S
C307 C306 1.429 . S
C307 H317 0.930 . S
C308 C304 1.332 . S
C308 C309 1.394 . S
C308 H318 0.932 . S
C309 C305 1.308 . S
C309 C308 1.394 . S
C309 H319 0.929 . S
C310 Tb281 2.764 . S
C310 O294 1.239 . S
C310 O295 1.263 . S
C310 C304 1.504 . S
C311 O296 1.236 . S
C311 O297 1.257 . S
H312 C285 0.932 . S
H313 C286 0.930 . S
H314 C287 0.932 . S
H315 C288 0.929 . S
H316 C306 0.932 . S
H317 C307 0.930 . S
H318 C308 0.932 . S
H319 C309 0.929 . S
Tb320 C329 2.764 . S
Tb320 O330 2.325 . S
Tb320 O333 2.303 . S
Tb320 O337 2.322 . S
Tb320 O338 2.349 . S
Tb320 O341 2.415 . S
Tb320 O342 2.399 . S
Tb321 O331 2.322 . S
Tb321 O332 2.349 . S
Tb321 O334 2.415 . S
Tb321 O335 2.399 . S
Tb321 O336 2.325 . S
Tb321 O339 2.303 . S
Tb321 C350 2.764 . S
C322 O338 1.261 . S
C322 O339 1.257 . S
C323 C326 1.358 . S
C323 C327 1.332 . S
C323 C329 1.504 . S
C324 C325 1.373 . S
C324 C328 1.308 . S
C325 C324 1.373 . S
C325 C326 1.429 . S
C325 H352 0.932 . S
C326 C323 1.358 . S
C326 C325 1.429 . S
C326 H353 0.930 . S
C327 C323 1.332 . S
C327 C328 1.394 . S
C327 H354 0.932 . S
C328 C324 1.308 . S
C328 C327 1.394 . S
C328 H355 0.929 . S
C329 Tb320 2.764 . S
C329 C323 1.504 . S
C329 O341 1.239 . S
C329 O342 1.263 . S
O330 Tb320 2.325 . S
O330 C340 1.236 . S
O331 Tb321 2.322 . S
O331 C340 1.257 . S
O332 Tb321 2.349 . S
O332 C343 1.261 . S
O333 Tb320 2.303 . S
O333 C343 1.257 . S
O334 Tb321 2.415 . S
O334 C350 1.239 . S
O335 Tb321 2.399 . S
O335 C350 1.263 . S
O336 Tb321 2.325 . S
O336 C351 1.236 . S
O337 Tb320 2.322 . S
O337 C351 1.257 . S
O338 Tb320 2.349 . S
O338 C322 1.261 . S
O339 Tb321 2.303 . S
O339 C322 1.257 . S
C340 O330 1.236 . S
C340 O331 1.257 . S
O341 Tb320 2.415 . S
O341 C329 1.239 . S
O342 Tb320 2.399 . S
O342 C329 1.263 . S
C343 O332 1.261 . S
C343 O333 1.257 . S
C344 C347 1.358 . S
C344 C348 1.332 . S
C344 C350 1.504 . S
C345 C346 1.373 . S
C345 C349 1.308 . S
C346 C345 1.373 . S
C346 C347 1.429 . S
C346 H356 0.932 . S
C347 C344 1.358 . S
C347 C346 1.429 . S
C347 H357 0.930 . S
C348 C344 1.332 . S
C348 C349 1.394 . S
C348 H358 0.932 . S
C349 C345 1.308 . S
C349 C348 1.394 . S
C349 H359 0.929 . S
C350 Tb321 2.764 . S
C350 O334 1.239 . S
C350 O335 1.263 . S
C350 C344 1.504 . S
C351 O336 1.236 . S
C351 O337 1.257 . S
H352 C325 0.932 . S
H353 C326 0.930 . S
H354 C327 0.932 . S
H355 C328 0.929 . S
H356 C346 0.932 . S
H357 C347 0.930 . S
H358 C348 0.932 . S
H359 C349 0.929 . S
Tb360 C369 2.764 . S
Tb360 O370 2.325 . S
Tb360 O373 2.303 . S
Tb360 O377 2.322 . S
Tb360 O378 2.349 . S
Tb360 O381 2.415 . S
Tb360 O382 2.399 . S
Tb361 O371 2.322 . S
Tb361 O372 2.349 . S
Tb361 O374 2.415 . S
Tb361 O375 2.399 . S
Tb361 O376 2.325 . S
Tb361 O379 2.303 . S
Tb361 C390 2.764 . S
C362 O378 1.261 . S
C362 O379 1.257 . S
C363 C366 1.358 . S
C363 C367 1.332 . S
C363 C369 1.504 . S
C364 C365 1.373 . S
C364 C368 1.308 . S
C365 C364 1.373 . S
C365 C366 1.429 1_655 S
C365 H392 0.932 . S
C366 C363 1.358 . S
C366 C365 1.429 1_455 S
C366 H393 0.930 . S
C367 C363 1.332 . S
C367 C368 1.394 1_455 S
C367 H394 0.932 . S
C368 C364 1.308 . S
C368 C367 1.394 1_655 S
C368 H395 0.929 . S
C369 Tb360 2.764 . S
C369 C363 1.504 . S
C369 O381 1.239 . S
C369 O382 1.263 . S
O370 Tb360 2.325 . S
O370 C380 1.236 . S
O371 Tb361 2.322 . S
O371 C380 1.257 . S
O372 Tb361 2.349 . S
O372 C383 1.261 . S
O373 Tb360 2.303 . S
O373 C383 1.257 . S
O374 Tb361 2.415 . S
O374 C390 1.239 . S
O375 Tb361 2.399 . S
O375 C390 1.263 . S
O376 Tb361 2.325 . S
O376 C391 1.236 . S
O377 Tb360 2.322 . S
O377 C391 1.257 . S
O378 Tb360 2.349 . S
O378 C362 1.261 . S
O379 Tb361 2.303 . S
O379 C362 1.257 . S
C380 O370 1.236 . S
C380 O371 1.257 . S
O381 Tb360 2.415 . S
O381 C369 1.239 . S
O382 Tb360 2.399 . S
O382 C369 1.263 . S
C383 O372 1.261 . S
C383 O373 1.257 . S
C384 C387 1.358 . S
C384 C388 1.332 . S
C384 C390 1.504 . S
C385 C386 1.373 . S
C385 C389 1.308 . S
C386 C385 1.373 . S
C386 C387 1.429 . S
C386 H396 0.932 . S
C387 C384 1.358 . S
C387 C386 1.429 . S
C387 H397 0.930 . S
C388 C384 1.332 . S
C388 C389 1.394 . S
C388 H398 0.932 . S
C389 C385 1.308 . S
C389 C388 1.394 . S
C389 H399 0.929 . S
C390 Tb361 2.764 . S
C390 O374 1.239 . S
C390 O375 1.263 . S
C390 C384 1.504 . S
C391 O376 1.236 . S
C391 O377 1.257 . S
H392 C365 0.932 . S
H393 C366 0.930 . S
H394 C367 0.932 . S
H395 C368 0.929 . S
H396 C386 0.932 . S
H397 C387 0.930 . S
H398 C388 0.932 . S
H399 C389 0.929 . S
Tb400 C409 2.764 . S
Tb400 O410 2.325 . S
Tb400 O413 2.303 . S
Tb400 O417 2.322 . S
Tb400 O418 2.349 . S
Tb400 O421 2.415 . S
Tb400 O422 2.399 . S
Tb401 O411 2.322 . S
Tb401 O412 2.349 . S
Tb401 O414 2.415 . S
Tb401 O415 2.399 . S
Tb401 O416 2.325 . S
Tb401 O419 2.303 . S
Tb401 C430 2.764 . S
C402 O418 1.261 . S
C402 O419 1.257 . S
C403 C406 1.358 . S
C403 C407 1.332 . S
C403 C409 1.504 . S
C404 C405 1.373 . S
C404 C408 1.308 . S
C405 C404 1.373 . S
C405 C406 1.429 . S
C405 H432 0.932 . S
C406 C403 1.358 . S
C406 C405 1.429 . S
C406 H433 0.930 . S
C407 C403 1.332 . S
C407 C408 1.394 . S
C407 H434 0.932 . S
C408 C404 1.308 . S
C408 C407 1.394 . S
C408 H435 0.929 . S
C409 Tb400 2.764 . S
C409 C403 1.504 . S
C409 O421 1.239 . S
C409 O422 1.263 . S
O410 Tb400 2.325 . S
O410 C420 1.236 . S
O411 Tb401 2.322 . S
O411 C420 1.257 . S
O412 Tb401 2.349 . S
O412 C423 1.261 . S
O413 Tb400 2.303 . S
O413 C423 1.257 . S
O414 Tb401 2.415 . S
O414 C430 1.239 . S
O415 Tb401 2.399 . S
O415 C430 1.263 . S
O416 Tb401 2.325 . S
O416 C431 1.236 . S
O417 Tb400 2.322 . S
O417 C431 1.257 . S
O418 Tb400 2.349 . S
O418 C402 1.261 . S
O419 Tb401 2.303 . S
O419 C402 1.257 . S
C420 O410 1.236 . S
C420 O411 1.257 . S
O421 Tb400 2.415 . S
O421 C409 1.239 . S
O422 Tb400 2.399 . S
O422 C409 1.263 . S
C423 O412 1.261 . S
C423 O413 1.257 . S
C424 C427 1.358 . S
C424 C428 1.332 . S
C424 C430 1.504 . S
C425 C426 1.373 . S
C425 C429 1.308 . S
C426 C425 1.373 . S
C426 C427 1.429 1_545 S
C426 H436 0.932 . S
C427 C424 1.358 . S
C427 C426 1.429 1_565 S
C427 H437 0.930 . S
C428 C424 1.332 . S
C428 C429 1.394 1_565 S
C428 H438 0.932 . S
C429 C425 1.308 . S
C429 C428 1.394 1_545 S
C429 H439 0.929 . S
C430 Tb401 2.764 . S
C430 O414 1.239 . S
C430 O415 1.263 . S
C430 C424 1.504 . S
C431 O416 1.236 . S
C431 O417 1.257 . S
H432 C405 0.932 . S
H433 C406 0.930 . S
H434 C407 0.932 . S
H435 C408 0.929 . S
H436 C426 0.932 . S
H437 C427 0.930 . S
H438 C428 0.932 . S
H439 C429 0.929 . S
Tb440 C449 2.764 . S
Tb440 O450 2.325 . S
Tb440 O453 2.303 . S
Tb440 O457 2.322 . S
Tb440 O458 2.349 . S
Tb440 O461 2.415 . S
Tb440 O462 2.399 . S
Tb441 O451 2.322 . S
Tb441 O452 2.349 . S
Tb441 O454 2.415 . S
Tb441 O455 2.399 . S
Tb441 O456 2.325 . S
Tb441 O459 2.303 . S
Tb441 C470 2.764 . S
C442 O458 1.261 . S
C442 O459 1.257 . S
C443 C446 1.358 . S
C443 C447 1.332 . S
C443 C449 1.504 . S
C444 C445 1.373 . S
C444 C448 1.308 . S
C445 C444 1.373 . S
C445 C446 1.429 . S
C445 H472 0.932 . S
C446 C443 1.358 . S
C446 C445 1.429 . S
C446 H473 0.930 . S
C447 C443 1.332 . S
C447 C448 1.394 . S
C447 H474 0.932 . S
C448 C444 1.308 . S
C448 C447 1.394 . S
C448 H475 0.929 . S
C449 Tb440 2.764 . S
C449 C443 1.504 . S
C449 O461 1.239 . S
C449 O462 1.263 . S
O450 Tb440 2.325 . S
O450 C460 1.236 . S
O451 Tb441 2.322 . S
O451 C460 1.257 . S
O452 Tb441 2.349 . S
O452 C463 1.261 . S
O453 Tb440 2.303 . S
O453 C463 1.257 . S
O454 Tb441 2.415 . S
O454 C470 1.239 . S
O455 Tb441 2.399 . S
O455 C470 1.263 . S
O456 Tb441 2.325 . S
O456 C471 1.236 . S
O457 Tb440 2.322 . S
O457 C471 1.257 . S
O458 Tb440 2.349 . S
O458 C442 1.261 . S
O459 Tb441 2.303 . S
O459 C442 1.257 . S
C460 O450 1.236 . S
C460 O451 1.257 . S
O461 Tb440 2.415 . S
O461 C449 1.239 . S
O462 Tb440 2.399 . S
O462 C449 1.263 . S
C463 O452 1.261 . S
C463 O453 1.257 . S
C464 C467 1.358 . S
C464 C468 1.332 . S
C464 C470 1.504 . S
C465 C466 1.373 . S
C465 C469 1.308 . S
C466 C465 1.373 . S
C466 C467 1.429 . S
C466 H476 0.932 . S
C467 C464 1.358 . S
C467 C466 1.429 . S
C467 H477 0.930 . S
C468 C464 1.332 . S
C468 C469 1.394 . S
C468 H478 0.932 . S
C469 C465 1.308 . S
C469 C468 1.394 . S
C469 H479 0.929 . S
C470 Tb441 2.764 . S
C470 O454 1.239 . S
C470 O455 1.263 . S
C470 C464 1.504 . S
C471 O456 1.236 . S
C471 O457 1.257 . S
H472 C445 0.932 . S
H473 C446 0.930 . S
H474 C447 0.932 . S
H475 C448 0.929 . S
H476 C466 0.932 . S
H477 C467 0.930 . S
H478 C468 0.932 . S
H479 C469 0.929 . S
H480 C488 0.929 . S
H481 C490 0.930 . S
H482 C492 0.930 . S
H483 C495 0.929 . S
H484 C498 0.930 . S
H485 C500 0.960 . S
H486 C500 0.960 . S
H487 C500 0.960 . S
C488 H480 0.929 . S
C488 C489 1.377 . S
C488 C490 1.384 . S
C489 C488 1.377 . S
C489 C495 1.390 . S
C490 H481 0.930 . S
C490 C488 1.384 . S
C490 C491 1.372 . S
C491 C490 1.372 . S
C491 C492 1.400 . S
C491 C496 1.490 . S
C492 H482 0.930 . S
C492 C491 1.400 . S
C492 C495 1.386 . S
H493 C509 0.930 . S
H494 C510 0.931 . S
C495 H483 0.929 . S
C495 C489 1.390 . S
C495 C492 1.386 . S
C496 C491 1.490 . S
C496 C498 1.395 . S
C496 C499 1.403 . S
H497 C503 0.930 . S
C498 H484 0.930 . S
C498 C496 1.395 . S
C498 C501 1.403 . S
C499 C496 1.403 . S
C499 C500 1.524 . S
C499 C503 1.400 . S
C500 H485 0.960 . S
C500 H486 0.960 . S
C500 H487 0.960 . S
C500 C499 1.524 . S
C501 C498 1.403 . S
C501 C502 1.392 . S
C501 C505 1.495 . S
C502 C501 1.392 . S
C502 C503 1.385 . S
C502 C504 1.478 . S
C503 H497 0.930 . S
C503 C499 1.400 . S
C503 C502 1.385 . S
C504 C502 1.478 . S
C504 C506 1.381 . S
C504 C510 1.383 . S
C505 C501 1.495 . S
C505 H511 0.959 . S
C505 H512 0.961 . S
C505 H513 0.960 . S
C506 C504 1.381 . S
C506 C507 1.394 . S
C506 H514 0.930 . S
C507 C506 1.394 . S
C507 C508 1.383 . S
C507 H515 0.929 . S
C508 C507 1.383 . S
C508 C509 1.377 . S
C509 H493 0.930 . S
C509 C508 1.377 . S
C509 C510 1.379 . S
C510 H494 0.931 . S
C510 C504 1.383 . S
C510 C509 1.379 . S
H511 C505 0.959 . S
H512 C505 0.961 . S
H513 C505 0.960 . S
H514 C506 0.930 . S
H515 C507 0.929 . S
H516 C524 0.929 . S
H517 C526 0.930 . S
H518 C528 0.930 . S
H519 C531 0.929 . S
H520 C534 0.930 . S
H521 C536 0.960 1_655 S
H522 C536 0.960 . S
H523 C536 0.960 . S
C524 H516 0.929 . S
C524 C525 1.377 . S
C524 C526 1.384 . S
C525 C524 1.377 . S
C525 C531 1.390 . S
C526 H517 0.930 . S
C526 C524 1.384 . S
C526 C527 1.372 . S
C527 C526 1.372 . S
C527 C528 1.400 . S
C527 C532 1.490 . S
C528 H518 0.930 . S
C528 C527 1.400 . S
C528 C531 1.386 . S
H529 C545 0.930 . S
H530 C546 0.931 . S
C531 H519 0.929 . S
C531 C525 1.390 . S
C531 C528 1.386 . S
C532 C527 1.490 . S
C532 C534 1.395 . S
C532 C535 1.403 . S
H533 C539 0.930 . S
C534 H520 0.930 . S
C534 C532 1.395 . S
C534 C537 1.403 . S
C535 C532 1.403 . S
C535 C536 1.524 . S
C535 C539 1.400 1_455 S
C536 H521 0.960 1_455 S
C536 H522 0.960 . S
C536 H523 0.960 . S
C536 C535 1.524 . S
C537 C534 1.403 . S
C537 C538 1.392 1_455 S
C537 C541 1.495 . S
C538 C537 1.392 1_655 S
C538 C539 1.385 . S
C538 C540 1.478 . S
C539 H533 0.930 . S
C539 C535 1.400 1_655 S
C539 C538 1.385 . S
C540 C538 1.478 . S
C540 C542 1.381 . S
C540 C546 1.383 . S
C541 C537 1.495 . S
C541 H547 0.959 . S
C541 H548 0.961 1_455 S
C541 H549 0.960 1_455 S
C542 C540 1.381 . S
C542 C543 1.394 . S
C542 H550 0.930 . S
C543 C542 1.394 . S
C543 C544 1.383 . S
C543 H551 0.929 . S
C544 C543 1.383 . S
C544 C545 1.377 . S
C545 H529 0.930 . S
C545 C544 1.377 . S
C545 C546 1.379 . S
C546 H530 0.931 . S
C546 C540 1.383 . S
C546 C545 1.379 . S
H547 C541 0.959 . S
H548 C541 0.961 1_655 S
H549 C541 0.960 1_655 S
H550 C542 0.930 . S
H551 C543 0.929 . S
H552 C560 0.929 . S
H553 C562 0.930 . S
H554 C564 0.930 . S
H555 C567 0.929 . S
H556 C570 0.930 1_545 S
H557 C572 0.960 . S
H558 C572 0.960 . S
H559 C572 0.960 . S
C560 H552 0.929 . S
C560 C561 1.377 . S
C560 C562 1.384 . S
C561 C560 1.377 . S
C561 C567 1.390 . S
C562 H553 0.930 . S
C562 C560 1.384 . S
C562 C563 1.372 . S
C563 C562 1.372 . S
C563 C564 1.400 . S
C563 C568 1.490 . S
C564 H554 0.930 . S
C564 C563 1.400 . S
C564 C567 1.386 . S
H565 C581 0.930 . S
H566 C582 0.931 . S
C567 H555 0.929 . S
C567 C561 1.390 . S
C567 C564 1.386 . S
C568 C563 1.490 . S
C568 C570 1.395 1_545 S
C568 C571 1.403 . S
H569 C575 0.930 . S
C570 H556 0.930 1_565 S
C570 C568 1.395 1_565 S
C570 C573 1.403 . S
C571 C568 1.403 . S
C571 C572 1.524 . S
C571 C575 1.400 1_545 S
C572 H557 0.960 . S
C572 H558 0.960 . S
C572 H559 0.960 . S
C572 C571 1.524 . S
C573 C570 1.403 . S
C573 C574 1.392 . S
C573 C577 1.495 . S
C574 C573 1.392 . S
C574 C575 1.385 . S
C574 C576 1.478 . S
C575 H569 0.930 . S
C575 C571 1.400 1_565 S
C575 C574 1.385 . S
C576 C574 1.478 . S
C576 C578 1.381 . S
C576 C582 1.383 . S
C577 C573 1.495 . S
C577 H583 0.959 . S
C577 H584 0.961 . S
C577 H585 0.960 . S
C578 C576 1.381 . S
C578 C579 1.394 . S
C578 H586 0.930 . S
C579 C578 1.394 . S
C579 C580 1.383 . S
C579 H587 0.929 . S
C580 C579 1.383 . S
C580 C581 1.377 . S
C581 H565 0.930 . S
C581 C580 1.377 . S
C581 C582 1.379 . S
C582 H566 0.931 . S
C582 C576 1.383 . S
C582 C581 1.379 . S
H583 C577 0.959 . S
H584 C577 0.961 . S
H585 C577 0.960 . S
H586 C578 0.930 . S
H587 C579 0.929 . S
H588 C596 0.929 . S
H589 C598 0.930 . S
H590 C600 0.930 . S
H591 C603 0.929 . S
H592 C606 0.930 . S
H593 C608 0.960 . S
H594 C608 0.960 . S
H595 C608 0.960 . S
C596 H588 0.929 . S
C596 C597 1.377 . S
C596 C598 1.384 . S
C597 C596 1.377 . S
C597 C603 1.390 . S
C598 H589 0.930 . S
C598 C596 1.384 . S
C598 C599 1.372 . S
C599 C598 1.372 . S
C599 C600 1.400 . S
C599 C604 1.490 . S
C600 H590 0.930 . S
C600 C599 1.400 . S
C600 C603 1.386 . S
H601 C617 0.930 . S
H602 C618 0.931 . S
C603 H591 0.929 . S
C603 C597 1.390 . S
C603 C600 1.386 . S
C604 C599 1.490 . S
C604 C606 1.395 . S
C604 C607 1.403 . S
H605 C611 0.930 . S
C606 H592 0.930 . S
C606 C604 1.395 . S
C606 C609 1.403 . S
C607 C604 1.403 . S
C607 C608 1.524 . S
C607 C611 1.400 . S
C608 H593 0.960 . S
C608 H594 0.960 . S
C608 H595 0.960 . S
C608 C607 1.524 . S
C609 C606 1.403 . S
C609 C610 1.392 . S
C609 C613 1.495 . S
C610 C609 1.392 . S
C610 C611 1.385 . S
C610 C612 1.478 . S
C611 H605 0.930 . S
C611 C607 1.400 . S
C611 C610 1.385 . S
C612 C610 1.478 . S
C612 C614 1.381 . S
C612 C618 1.383 . S
C613 C609 1.495 . S
C613 H619 0.959 . S
C613 H620 0.961 . S
C613 H621 0.960 . S
C614 C612 1.381 . S
C614 C615 1.394 . S
C614 H622 0.930 . S
C615 C614 1.394 . S
C615 C616 1.383 . S
C615 H623 0.929 . S
C616 C615 1.383 . S
C616 C617 1.377 . S
C617 H601 0.930 . S
C617 C616 1.377 . S
C617 C618 1.379 . S
C618 H602 0.931 . S
C618 C612 1.383 . S
C618 C617 1.379 . S
H619 C613 0.959 . S
H620 C613 0.961 . S
H621 C613 0.960 . S
H622 C614 0.930 . S
H623 C615 0.929 . S
H624 C632 0.929 . S
H625 C634 0.930 . S
H626 C636 0.930 . S
H627 C639 0.929 . S
H628 C642 0.930 . S
H629 C644 0.960 . S
H630 C644 0.960 . S
H631 C644 0.960 . S
C632 H624 0.929 . S
C632 C633 1.377 . S
C632 C634 1.384 . S
C633 C632 1.377 . S
C633 C639 1.390 . S
C634 H625 0.930 . S
C634 C632 1.384 . S
C634 C635 1.372 . S
C635 C634 1.372 . S
C635 C636 1.400 . S
C635 C640 1.490 . S
C636 H626 0.930 . S
C636 C635 1.400 . S
C636 C639 1.386 . S
H637 C653 0.930 . S
H638 C654 0.931 . S
C639 H627 0.929 . S
C639 C633 1.390 . S
C639 C636 1.386 . S
C640 C635 1.490 . S
C640 C642 1.395 . S
C640 C643 1.403 . S
H641 C647 0.930 . S
C642 H628 0.930 . S
C642 C640 1.395 . S
C642 C645 1.388 1_455 S
C643 C640 1.403 . S
C643 C644 1.524 . S
C643 C647 1.400 1_455 S
C644 H629 0.960 . S
C644 H630 0.960 . S
C644 H631 0.960 . S
C644 C643 1.524 . S
C645 C642 1.388 1_655 S
C645 C646 1.405 . S
C645 C649 1.498 . S
C646 C645 1.405 . S
C646 C647 1.385 . S
C646 C648 1.478 . S
C647 H641 0.930 . S
C647 C643 1.400 1_655 S
C647 C646 1.385 . S
C648 C646 1.478 . S
C648 C650 1.381 . S
C648 C654 1.383 . S
C649 C645 1.498 . S
C649 H655 0.959 1_655 S
C649 H656 0.961 . S
C649 H657 0.960 . S
C650 C648 1.381 . S
C650 C651 1.394 . S
C650 H658 0.930 . S
C651 C650 1.394 . S
C651 C652 1.383 . S
C651 H659 0.929 . S
C652 C651 1.383 . S
C652 C653 1.377 . S
C653 H637 0.930 . S
C653 C652 1.377 . S
C653 C654 1.379 . S
C654 H638 0.931 . S
C654 C648 1.383 . S
C654 C653 1.379 . S
H655 C649 0.959 1_455 S
H656 C649 0.961 . S
H657 C649 0.960 . S
H658 C650 0.930 . S
H659 C651 0.929 . S
H660 C668 0.929 . S
H661 C670 0.930 . S
H662 C672 0.930 . S
H663 C675 0.929 . S
H664 C678 0.930 . S
H665 C680 0.960 . S
H666 C680 0.960 . S
H667 C680 0.960 . S
C668 H660 0.929 . S
C668 C669 1.377 . S
C668 C670 1.384 . S
C669 C668 1.377 . S
C669 C675 1.390 . S
C670 H661 0.930 . S
C670 C668 1.384 . S
C670 C671 1.372 . S
C671 C670 1.372 . S
C671 C672 1.400 . S
C671 C676 1.490 . S
C672 H662 0.930 . S
C672 C671 1.400 . S
C672 C675 1.386 . S
H673 C689 0.930 . S
H674 C690 0.931 . S
C675 H663 0.929 . S
C675 C669 1.390 . S
C675 C672 1.386 . S
C676 C671 1.490 . S
C676 C678 1.395 . S
C676 C679 1.403 . S
H677 C683 0.930 . S
C678 H664 0.930 . S
C678 C676 1.395 . S
C678 C681 1.403 1_565 S
C679 C676 1.403 . S
C679 C680 1.524 . S
C679 C683 1.400 1_565 S
C680 H665 0.960 . S
C680 H666 0.960 . S
C680 H667 0.960 . S
C680 C679 1.524 . S
C681 C678 1.403 1_545 S
C681 C682 1.392 . S
C681 C685 1.495 . S
C682 C681 1.392 . S
C682 C683 1.385 . S
C682 C684 1.478 . S
C683 H677 0.930 . S
C683 C679 1.400 1_545 S
C683 C682 1.385 . S
C684 C682 1.478 . S
C684 C686 1.381 . S
C684 C690 1.383 . S
C685 C681 1.495 . S
C685 H691 0.959 . S
C685 H692 0.961 . S
C685 H693 0.960 . S
C686 C684 1.381 . S
C686 C687 1.394 . S
C686 H694 0.930 . S
C687 C686 1.394 . S
C687 C688 1.383 . S
C687 H695 0.929 . S
C688 C687 1.383 . S
C688 C689 1.377 . S
C689 H673 0.930 . S
C689 C688 1.377 . S
C689 C690 1.379 . S
C690 H674 0.931 . S
C690 C684 1.383 . S
C690 C689 1.379 . S
H691 C685 0.959 . S
H692 C685 0.961 . S
H693 C685 0.960 . S
H694 C686 0.930 . S
H695 C687 0.929 . S
H696 C704 0.929 . S
H697 C706 0.930 . S
H698 C708 0.930 . S
H699 C711 0.929 . S
H700 C714 0.930 . S
H701 C716 0.960 . S
H702 C716 0.960 . S
H703 C716 0.960 . S
C704 H696 0.929 . S
C704 C705 1.377 . S
C704 C706 1.384 . S
C705 C704 1.377 . S
C705 C711 1.390 . S
C706 H697 0.930 . S
C706 C704 1.384 . S
C706 C707 1.372 . S
C707 C706 1.372 . S
C707 C708 1.400 . S
C707 C712 1.490 . S
C708 H698 0.930 . S
C708 C707 1.400 . S
C708 C711 1.386 . S
H709 C725 0.930 . S
H710 C726 0.931 . S
C711 H699 0.929 . S
C711 C705 1.390 . S
C711 C708 1.386 . S
C712 C707 1.490 . S
C712 C714 1.395 . S
C712 C715 1.403 . S
H713 C719 0.930 . S
C714 H700 0.930 . S
C714 C712 1.395 . S
C714 C717 1.403 . S
C715 C712 1.403 . S
C715 C716 1.524 . S
C715 C719 1.400 . S
C716 H701 0.960 . S
C716 H702 0.960 . S
C716 H703 0.960 . S
C716 C715 1.524 . S
C717 C714 1.403 . S
C717 C718 1.392 . S
C717 C721 1.495 . S
C718 C717 1.392 . S
C718 C719 1.385 . S
C718 C720 1.478 . S
C719 H713 0.930 . S
C719 C715 1.400 . S
C719 C718 1.385 . S
C720 C718 1.478 . S
C720 C722 1.381 . S
C720 C726 1.383 . S
C721 C717 1.495 . S
C721 H727 0.959 . S
C721 H728 0.961 . S
C721 H729 0.960 . S
C722 C720 1.381 . S
C722 C723 1.394 . S
C722 H730 0.930 . S
C723 C722 1.394 . S
C723 C724 1.383 . S
C723 H731 0.929 . S
C724 C723 1.383 . S
C724 C725 1.377 . S
C725 H709 0.930 . S
C725 C724 1.377 . S
C725 C726 1.379 . S
C726 H710 0.931 . S
C726 C720 1.383 . S
C726 C725 1.379 . S
H727 C721 0.959 . S
H728 C721 0.961 . S
H729 C721 0.960 . S
H730 C722 0.930 . S
H731 C723 0.929 . S
H732 C740 0.929 . S
H733 C742 0.930 . S
H734 C744 0.930 . S
H735 C747 0.929 . S
H736 C750 0.930 . S
H737 C752 0.960 . S
H738 C752 0.960 1_455 S
H739 C752 0.960 1_455 S
C740 H732 0.929 . S
C740 C741 1.377 . S
C740 C742 1.384 . S
C741 C740 1.377 . S
C741 C747 1.390 . S
C742 H733 0.930 . S
C742 C740 1.384 . S
C742 C743 1.372 . S
C743 C742 1.372 . S
C743 C744 1.400 . S
C743 C748 1.490 . S
C744 H734 0.930 . S
C744 C743 1.400 . S
C744 C747 1.386 . S
H745 C761 0.930 . S
H746 C762 0.931 . S
C747 H735 0.929 . S
C747 C741 1.390 . S
C747 C744 1.386 . S
C748 C743 1.490 . S
C748 C750 1.395 . S
C748 C751 1.403 1_455 S
H749 C755 0.930 . S
C750 H736 0.930 . S
C750 C748 1.395 . S
C750 C753 1.403 1_455 S
C751 C748 1.403 1_655 S
C751 C752 1.524 . S
C751 C755 1.400 . S
C752 H737 0.960 . S
C752 H738 0.960 1_655 S
C752 H739 0.960 1_655 S
C752 C751 1.524 . S
C753 C750 1.403 1_655 S
C753 C754 1.392 . S
C753 C757 1.495 . S
C754 C753 1.392 . S
C754 C755 1.385 . S
C754 C756 1.478 . S
C755 H749 0.930 . S
C755 C751 1.400 . S
C755 C754 1.385 . S
C756 C754 1.478 . S
C756 C758 1.381 . S
C756 C762 1.383 . S
C757 C753 1.495 . S
C757 H763 0.959 1_655 S
C757 H764 0.961 . S
C757 H765 0.960 . S
C758 C756 1.381 . S
C758 C759 1.394 . S
C758 H766 0.930 . S
C759 C758 1.394 . S
C759 C760 1.383 . S
C759 H767 0.929 . S
C760 C759 1.383 . S
C760 C761 1.377 . S
C761 H745 0.930 . S
C761 C760 1.377 . S
C761 C762 1.379 . S
C762 H746 0.931 . S
C762 C756 1.383 . S
C762 C761 1.379 . S
H763 C757 0.959 1_455 S
H764 C757 0.961 . S
H765 C757 0.960 . S
H766 C758 0.930 . S
H767 C759 0.929 . S
H768 C776 0.929 . S
H769 C778 0.930 . S
H770 C780 0.930 . S
H771 C783 0.929 . S
H772 C786 0.930 1_565 S
H773 C788 0.960 . S
H774 C788 0.960 . S
H775 C788 0.960 . S
C776 H768 0.929 . S
C776 C777 1.377 . S
C776 C778 1.384 . S
C777 C776 1.377 . S
C777 C783 1.390 . S
C778 H769 0.930 . S
C778 C776 1.384 . S
C778 C779 1.372 . S
C779 C778 1.372 . S
C779 C780 1.400 . S
C779 C784 1.490 . S
C780 H770 0.930 . S
C780 C779 1.400 . S
C780 C783 1.386 . S
H781 C797 0.930 . S
H782 C798 0.931 . S
C783 H771 0.929 . S
C783 C777 1.390 . S
C783 C780 1.386 . S
C784 C779 1.490 . S
C784 C786 1.393 1_565 S
C784 C787 1.403 . S
H785 C791 0.930 . S
C786 H772 0.930 1_545 S
C786 C784 1.393 1_545 S
C786 C789 1.405 . S
C787 C784 1.403 . S
C787 C788 1.524 . S
C787 C791 1.400 1_565 S
C788 H773 0.960 . S
C788 H774 0.960 . S
C788 H775 0.960 . S
C788 C787 1.524 . S
C789 C786 1.405 . S
C789 C790 1.392 . S
C789 C793 1.495 . S
C790 C789 1.392 . S
C790 C791 1.385 . S
C790 C792 1.478 . S
C791 H785 0.930 . S
C791 C787 1.400 1_545 S
C791 C790 1.385 . S
C792 C790 1.478 . S
C792 C794 1.381 . S
C792 C798 1.383 . S
C793 C789 1.495 . S
C793 H799 0.959 . S
C793 H800 0.961 . S
C793 H801 0.960 . S
C794 C792 1.381 . S
C794 C795 1.394 . S
C794 H802 0.930 . S
C795 C794 1.394 . S
C795 C796 1.383 . S
C795 H803 0.929 . S
C796 C795 1.383 . S
C796 C797 1.377 . S
C797 H781 0.930 . S
C797 C796 1.377 . S
C797 C798 1.379 . S
C798 H782 0.931 . S
C798 C792 1.383 . S
C798 C797 1.379 . S
H799 C793 0.959 . S
H800 C793 0.961 . S
H801 C793 0.960 . S
H802 C794 0.930 . S
H803 C795 0.929 . S
H804 C812 0.929 . S
H805 C814 0.930 . S
H806 C816 0.930 . S
H807 C819 0.929 . S
H808 C822 0.930 . S
H809 C824 0.960 . S
H810 C824 0.960 . S
H811 C824 0.960 . S
C812 H804 0.929 . S
C812 C813 1.377 . S
C812 C814 1.384 . S
C813 C812 1.377 . S
C813 C819 1.390 . S
C814 H805 0.930 . S
C814 C812 1.384 . S
C814 C815 1.372 . S
C815 C814 1.372 . S
C815 C816 1.400 . S
C815 C820 1.490 . S
C816 H806 0.930 . S
C816 C815 1.400 . S
C816 C819 1.386 . S
H817 C833 0.930 . S
H818 C834 0.931 . S
C819 H807 0.929 . S
C819 C813 1.390 . S
C819 C816 1.386 . S
C820 C815 1.490 . S
C820 C822 1.395 . S
C820 C823 1.403 . S
H821 C827 0.930 . S
C822 H808 0.930 . S
C822 C820 1.395 . S
C822 C825 1.403 . S
C823 C820 1.403 . S
C823 C824 1.524 . S
C823 C827 1.400 . S
C824 H809 0.960 . S
C824 H810 0.960 . S
C824 H811 0.960 . S
C824 C823 1.524 . S
C825 C822 1.403 . S
C825 C826 1.392 . S
C825 C829 1.495 . S
C826 C825 1.392 . S
C826 C827 1.385 . S
C826 C828 1.478 . S
C827 H821 0.930 . S
C827 C823 1.400 . S
C827 C826 1.385 . S
C828 C826 1.478 . S
C828 C830 1.381 . S
C828 C834 1.383 . S
C829 C825 1.495 . S
C829 H835 0.959 . S
C829 H836 0.961 . S
C829 H837 0.960 . S
C830 C828 1.381 . S
C830 C831 1.394 . S
C830 H838 0.930 . S
C831 C830 1.394 . S
C831 C832 1.383 . S
C831 H839 0.929 . S
C832 C831 1.383 . S
C832 C833 1.377 . S
C833 H817 0.930 . S
C833 C832 1.377 . S
C833 C834 1.379 . S
C834 H818 0.931 . S
C834 C828 1.383 . S
C834 C833 1.379 . S
H835 C829 0.959 . S
H836 C829 0.961 . S
H837 C829 0.960 . S
H838 C830 0.930 . S
H839 C831 0.929 . S
H840 C848 0.929 . S
H841 C850 0.930 . S
H842 C852 0.930 . S
H843 C855 0.929 . S
H844 C858 0.930 1_455 S
H845 C860 0.960 . S
H846 C860 0.960 . S
H847 C860 0.960 . S
C848 H840 0.929 . S
C848 C849 1.377 . S
C848 C850 1.384 . S
C849 C848 1.377 . S
C849 C855 1.390 . S
C850 H841 0.930 . S
C850 C848 1.384 . S
C850 C851 1.372 . S
C851 C850 1.372 . S
C851 C852 1.400 . S
C851 C856 1.490 . S
C852 H842 0.930 . S
C852 C851 1.400 . S
C852 C855 1.386 . S
H853 C869 0.930 . S
H854 C870 0.931 . S
C855 H843 0.929 . S
C855 C849 1.390 . S
C855 C852 1.386 . S
C856 C851 1.490 . S
C856 C858 1.395 1_455 S
C856 C859 1.403 . S
H857 C863 0.930 . S
C858 H844 0.930 1_655 S
C858 C856 1.395 1_655 S
C858 C861 1.403 . S
C859 C856 1.403 . S
C859 C860 1.524 . S
C859 C863 1.400 1_455 S
C860 H845 0.960 . S
C860 H846 0.960 . S
C860 H847 0.960 . S
C860 C859 1.524 . S
C861 C858 1.403 . S
C861 C862 1.392 . S
C861 C865 1.495 . S
C862 C861 1.392 . S
C862 C863 1.385 . S
C862 C864 1.478 . S
C863 H857 0.930 . S
C863 C859 1.400 1_655 S
C863 C862 1.385 . S
C864 C862 1.478 . S
C864 C866 1.381 . S
C864 C870 1.383 . S
C865 C861 1.495 . S
C865 H871 0.959 . S
C865 H872 0.961 . S
C865 H873 0.960 . S
C866 C864 1.381 . S
C866 C867 1.394 . S
C866 H874 0.930 . S
C867 C866 1.394 . S
C867 C868 1.383 . S
C867 H875 0.929 . S
C868 C867 1.383 . S
C868 C869 1.377 . S
C869 H853 0.930 . S
C869 C868 1.377 . S
C869 C870 1.379 . S
C870 H854 0.931 . S
C870 C864 1.383 . S
C870 C869 1.379 . S
H871 C865 0.959 . S
H872 C865 0.961 . S
H873 C865 0.960 . S
H874 C866 0.930 . S
H875 C867 0.929 . S
H876 C884 0.929 . S
H877 C886 0.930 . S
H878 C888 0.930 . S
H879 C891 0.929 . S
H880 C894 0.930 . S
H881 C896 0.960 . S
H882 C896 0.960 . S
H883 C896 0.960 . S
C884 H876 0.929 . S
C884 C885 1.377 . S
C884 C886 1.384 . S
C885 C884 1.377 . S
C885 C891 1.390 . S
C886 H877 0.930 . S
C886 C884 1.384 . S
C886 C887 1.372 . S
C887 C886 1.372 . S
C887 C888 1.400 . S
C887 C892 1.490 . S
C888 H878 0.930 . S
C888 C887 1.400 . S
C888 C891 1.386 . S
H889 C905 0.930 . S
H890 C906 0.931 . S
C891 H879 0.929 . S
C891 C885 1.390 . S
C891 C888 1.386 . S
C892 C887 1.490 . S
C892 C894 1.395 . S
C892 C895 1.403 . S
H893 C899 0.930 . S
C894 H880 0.930 . S
C894 C892 1.395 . S
C894 C897 1.403 1_545 S
C895 C892 1.403 . S
C895 C896 1.524 . S
C895 C899 1.399 1_545 S
C896 H881 0.960 . S
C896 H882 0.960 . S
C896 H883 0.960 . S
C896 C895 1.524 . S
C897 C894 1.403 1_565 S
C897 C898 1.392 . S
C897 C901 1.495 . S
C898 C897 1.392 . S
C898 C899 1.387 . S
C898 C900 1.478 . S
C899 H893 0.930 . S
C899 C895 1.399 1_565 S
C899 C898 1.387 . S
C900 C898 1.478 . S
C900 C902 1.381 . S
C900 C906 1.383 . S
C901 C897 1.495 . S
C901 H907 0.959 . S
C901 H908 0.961 . S
C901 H909 0.960 . S
C902 C900 1.381 . S
C902 C903 1.394 . S
C902 H910 0.930 . S
C903 C902 1.394 . S
C903 C904 1.383 . S
C903 H911 0.929 . S
C904 C903 1.383 . S
C904 C905 1.377 . S
C905 H889 0.930 . S
C905 C904 1.377 . S
C905 C906 1.379 . S
C906 H890 0.931 . S
C906 C900 1.383 . S
C906 C905 1.379 . S
H907 C901 0.959 . S
H908 C901 0.961 . S
H909 C901 0.960 . S
H910 C902 0.930 . S
H911 C903 0.929 . S
H912 C920 0.929 . S
H913 C922 0.930 . S
H914 C924 0.930 . S
H915 C927 0.929 . S
H916 C930 0.930 . S
H917 C932 0.960 . S
H918 C932 0.960 . S
H919 C932 0.960 . S
C920 H912 0.929 . S
C920 C921 1.377 . S
C920 C922 1.384 . S
C921 C920 1.377 . S
C921 C927 1.390 . S
C922 H913 0.930 . S
C922 C920 1.384 . S
C922 C923 1.372 . S
C923 C922 1.372 . S
C923 C924 1.400 . S
C923 C928 1.490 . S
C924 H914 0.930 . S
C924 C923 1.400 . S
C924 C927 1.386 . S
H925 C941 0.930 . S
H926 C942 0.931 . S
C927 H915 0.929 . S
C927 C921 1.390 . S
C927 C924 1.386 . S
C928 C923 1.490 . S
C928 C930 1.395 . S
C928 C931 1.403 . S
H929 C935 0.930 . S
C930 H916 0.930 . S
C930 C928 1.395 . S
C930 C933 1.403 . S
C931 C928 1.403 . S
C931 C932 1.524 . S
C931 C935 1.400 . S
C932 H917 0.960 . S
C932 H918 0.960 . S
C932 H919 0.960 . S
C932 C931 1.524 . S
C933 C930 1.403 . S
C933 C934 1.392 . S
C933 C937 1.495 . S
C934 C933 1.392 . S
C934 C935 1.385 . S
C934 C936 1.478 . S
C935 H929 0.930 . S
C935 C931 1.400 . S
C935 C934 1.385 . S
C936 C934 1.478 . S
C936 C938 1.381 . S
C936 C942 1.383 . S
C937 C933 1.495 . S
C937 H943 0.959 . S
C937 H944 0.961 . S
C937 H945 0.960 . S
C938 C936 1.381 . S
C938 C939 1.394 . S
C938 H946 0.930 . S
C939 C938 1.394 . S
C939 C940 1.383 . S
C939 H947 0.929 . S
C940 C939 1.383 . S
C940 C941 1.377 . S
C941 H925 0.930 . S
C941 C940 1.377 . S
C941 C942 1.379 . S
C942 H926 0.931 . S
C942 C936 1.383 . S
C942 C941 1.379 . S
H943 C937 0.959 . S
H944 C937 0.961 . S
H945 C937 0.960 . S
H946 C938 0.930 . S
H947 C939 0.929 . S
H948 C956 0.929 . S
H949 C958 0.930 . S
H950 C960 0.930 . S
H951 C963 0.929 . S
H952 C966 0.930 . S
H953 C968 0.960 . S
H954 C968 0.960 . S
H955 C968 0.960 . S
C956 H948 0.929 . S
C956 C957 1.377 . S
C956 C958 1.384 . S
C957 C956 1.377 . S
C957 C963 1.390 . S
C958 H949 0.930 . S
C958 C956 1.384 . S
C958 C959 1.372 . S
C959 C958 1.372 . S
C959 C960 1.400 . S
C959 C964 1.490 . S
C960 H950 0.930 . S
C960 C959 1.400 . S
C960 C963 1.386 . S
H961 C977 0.930 . S
H962 C978 0.931 . S
C963 H951 0.929 . S
C963 C957 1.390 . S
C963 C960 1.386 . S
C964 C959 1.490 . S
C964 C966 1.395 . S
C964 C967 1.403 . S
H965 C971 0.930 . S
C966 H952 0.930 . S
C966 C964 1.395 . S
C966 C969 1.403 . S
C967 C964 1.403 . S
C967 C968 1.524 . S
C967 C971 1.400 . S
C968 H953 0.960 . S
C968 H954 0.960 . S
C968 H955 0.960 . S
C968 C967 1.524 . S
C969 C966 1.403 . S
C969 C970 1.392 . S
C969 C973 1.495 . S
C970 C969 1.392 . S
C970 C971 1.385 . S
C970 C972 1.478 . S
C971 H965 0.930 . S
C971 C967 1.400 . S
C971 C970 1.385 . S
C972 C970 1.478 . S
C972 C974 1.381 . S
C972 C978 1.383 . S
C973 C969 1.495 . S
C973 H979 0.959 . S
C973 H980 0.961 . S
C973 H981 0.960 . S
C974 C972 1.381 . S
C974 C975 1.394 . S
C974 H982 0.930 . S
C975 C974 1.394 . S
C975 C976 1.383 . S
C975 H983 0.929 . S
C976 C975 1.383 . S
C976 C977 1.377 . S
C977 H961 0.930 . S
C977 C976 1.377 . S
C977 C978 1.379 . S
C978 H962 0.931 . S
C978 C972 1.383 . S
C978 C977 1.379 . S
H979 C973 0.959 . S
H980 C973 0.961 . S
H981 C973 0.960 . S
H982 C974 0.930 . S
H983 C975 0.929 . S
H984 C992 0.929 . S
H985 C994 0.930 . S
H986 C996 0.930 . S
H987 C999 0.929 . S
H988 C1002 0.930 . S
H989 C1004 0.960 . S
H990 C1004 0.960 . S
H991 C1004 0.960 . S
C992 H984 0.929 . S
C992 C993 1.377 . S
C992 C994 1.384 . S
C993 C992 1.377 . S
C993 C999 1.390 . S
C994 H985 0.930 . S
C994 C992 1.384 . S
C994 C995 1.372 . S
C995 C994 1.372 . S
C995 C996 1.400 . S
C995 C1000 1.490 . S
C996 H986 0.930 . S
C996 C995 1.400 . S
C996 C999 1.386 . S
H997 C1013 0.930 . S
H998 C1014 0.931 . S
C999 H987 0.929 . S
C999 C993 1.390 . S
C999 C996 1.386 . S
C1000 C995 1.490 . S
C1000 C1002 1.395 . S
C1000 C1003 1.403 . S
H1001 C1007 0.930 . S
C1002 H988 0.930 . S
C1002 C1000 1.395 . S
C1002 C1005 1.403 . S
C1003 C1000 1.403 . S
C1003 C1004 1.524 . S
C1003 C1007 1.400 . S
C1004 H989 0.960 . S
C1004 H990 0.960 . S
C1004 H991 0.960 . S
C1004 C1003 1.524 . S
C1005 C1002 1.403 . S
C1005 C1006 1.392 . S
C1005 C1009 1.495 . S
C1006 C1005 1.392 . S
C1006 C1007 1.385 . S
C1006 C1008 1.478 . S
C1007 H1001 0.930 . S
C1007 C1003 1.400 . S
C1007 C1006 1.385 . S
C1008 C1006 1.478 . S
C1008 C1010 1.381 . S
C1008 C1014 1.383 . S
C1009 C1005 1.495 . S
C1009 H1015 0.959 . S
C1009 H1016 0.961 . S
C1009 H1017 0.960 . S
C1010 C1008 1.381 . S
C1010 C1011 1.394 . S
C1010 H1018 0.930 . S
C1011 C1010 1.394 . S
C1011 C1012 1.383 . S
C1011 H1019 0.929 . S
C1012 C1011 1.383 . S
C1012 C1013 1.377 . S
C1013 H997 0.930 . S
C1013 C1012 1.377 . S
C1013 C1014 1.379 . S
C1014 H998 0.931 . S
C1014 C1008 1.383 . S
C1014 C1013 1.379 . S
H1015 C1009 0.959 . S
H1016 C1009 0.961 . S
H1017 C1009 0.960 . S
H1018 C1010 0.930 . S
H1019 C1011 0.929 . S
H1020 C1028 0.929 . S
H1021 C1030 0.930 . S
H1022 C1032 0.930 . S
H1023 C1035 0.929 . S
H1024 C1038 0.930 . S
H1025 C1040 0.960 . S
H1026 C1040 0.960 . S
H1027 C1040 0.960 . S
C1028 H1020 0.929 . S
C1028 C1029 1.377 . S
C1028 C1030 1.384 . S
C1029 C1028 1.377 . S
C1029 C1035 1.390 . S
C1030 H1021 0.930 . S
C1030 C1028 1.384 . S
C1030 C1031 1.372 . S
C1031 C1030 1.372 . S
C1031 C1032 1.400 . S
C1031 C1036 1.490 . S
C1032 H1022 0.930 . S
C1032 C1031 1.400 . S
C1032 C1035 1.386 . S
H1033 C1049 0.930 . S
H1034 C1050 0.931 . S
C1035 H1023 0.929 . S
C1035 C1029 1.390 . S
C1035 C1032 1.386 . S
C1036 C1031 1.490 . S
C1036 C1038 1.395 . S
C1036 C1039 1.403 . S
H1037 C1043 0.930 . S
C1038 H1024 0.930 . S
C1038 C1036 1.395 . S
C1038 C1041 1.403 . S
C1039 C1036 1.403 . S
C1039 C1040 1.524 . S
C1039 C1043 1.400 . S
C1040 H1025 0.960 . S
C1040 H1026 0.960 . S
C1040 H1027 0.960 . S
C1040 C1039 1.524 . S
C1041 C1038 1.403 . S
C1041 C1042 1.392 . S
C1041 C1045 1.495 . S
C1042 C1041 1.392 . S
C1042 C1043 1.385 . S
C1042 C1044 1.478 . S
C1043 H1037 0.930 . S
C1043 C1039 1.400 . S
C1043 C1042 1.385 . S
C1044 C1042 1.478 . S
C1044 C1046 1.381 . S
C1044 C1050 1.383 . S
C1045 C1041 1.495 . S
C1045 H1051 0.959 . S
C1045 H1052 0.961 . S
C1045 H1053 0.960 . S
C1046 C1044 1.381 . S
C1046 C1047 1.394 . S
C1046 H1054 0.930 . S
C1047 C1046 1.394 . S
C1047 C1048 1.383 . S
C1047 H1055 0.929 . S
C1048 C1047 1.383 . S
C1048 C1049 1.377 . S
C1049 H1033 0.930 . S
C1049 C1048 1.377 . S
C1049 C1050 1.379 . S
C1050 H1034 0.931 . S
C1050 C1044 1.383 . S
C1050 C1049 1.379 . S
H1051 C1045 0.959 . S
H1052 C1045 0.961 . S
H1053 C1045 0.960 . S
H1054 C1046 0.930 . S
H1055 C1047 0.929 . S
H1056 C1064 0.929 . S
H1057 C1066 0.930 . S
H1058 C1068 0.930 . S
H1059 C1071 0.929 . S
H1060 C1074 0.930 . S
H1061 C1076 0.960 . S
H1062 C1076 0.960 . S
H1063 C1076 0.960 . S
C1064 H1056 0.929 . S
C1064 C1065 1.377 . S
C1064 C1066 1.384 . S
C1065 C1064 1.377 . S
C1065 C1071 1.390 . S
C1066 H1057 0.930 . S
C1066 C1064 1.384 . S
C1066 C1067 1.372 . S
C1067 C1066 1.372 . S
C1067 C1068 1.400 . S
C1067 C1072 1.490 . S
C1068 H1058 0.930 . S
C1068 C1067 1.400 . S
C1068 C1071 1.386 . S
H1069 C1085 0.930 . S
H1070 C1086 0.931 . S
C1071 H1059 0.929 . S
C1071 C1065 1.390 . S
C1071 C1068 1.386 . S
C1072 C1067 1.490 . S
C1072 C1074 1.395 . S
C1072 C1075 1.403 . S
H1073 C1079 0.930 . S
C1074 H1060 0.930 . S
C1074 C1072 1.395 . S
C1074 C1077 1.403 . S
C1075 C1072 1.403 . S
C1075 C1076 1.524 . S
C1075 C1079 1.400 . S
C1076 H1061 0.960 . S
C1076 H1062 0.960 . S
C1076 H1063 0.960 . S
C1076 C1075 1.524 . S
C1077 C1074 1.403 . S
C1077 C1078 1.392 . S
C1077 C1081 1.495 . S
C1078 C1077 1.392 . S
C1078 C1079 1.385 . S
C1078 C1080 1.478 . S
C1079 H1073 0.930 . S
C1079 C1075 1.400 . S
C1079 C1078 1.385 . S
C1080 C1078 1.478 . S
C1080 C1082 1.381 . S
C1080 C1086 1.383 . S
C1081 C1077 1.495 . S
C1081 H1087 0.959 . S
C1081 H1088 0.961 . S
C1081 H1089 0.960 . S
C1082 C1080 1.381 . S
C1082 C1083 1.394 . S
C1082 H1090 0.930 . S
C1083 C1082 1.394 . S
C1083 C1084 1.383 . S
C1083 H1091 0.929 . S
C1084 C1083 1.383 . S
C1084 C1085 1.377 . S
C1085 H1069 0.930 . S
C1085 C1084 1.377 . S
C1085 C1086 1.379 . S
C1086 H1070 0.931 . S
C1086 C1080 1.383 . S
C1086 C1085 1.379 . S
H1087 C1081 0.959 . S
H1088 C1081 0.961 . S
H1089 C1081 0.960 . S
H1090 C1082 0.930 . S
H1091 C1083 0.929 . S
H1092 C1100 0.929 . S
H1093 C1102 0.930 . S
H1094 C1104 0.930 . S
H1095 C1107 0.929 . S
H1096 C1110 0.930 . S
H1097 C1112 0.960 . S
H1098 C1112 0.960 . S
H1099 C1112 0.960 . S
C1100 H1092 0.929 . S
C1100 C1101 1.377 . S
C1100 C1102 1.384 . S
C1101 C1100 1.377 . S
C1101 C1107 1.390 . S
C1102 H1093 0.930 . S
C1102 C1100 1.384 . S
C1102 C1103 1.372 . S
C1103 C1102 1.372 . S
C1103 C1104 1.400 . S
C1103 C1108 1.490 . S
C1104 H1094 0.930 . S
C1104 C1103 1.400 . S
C1104 C1107 1.386 . S
H1105 C1121 0.930 . S
H1106 C1122 0.931 . S
C1107 H1095 0.929 . S
C1107 C1101 1.390 . S
C1107 C1104 1.386 . S
C1108 C1103 1.490 . S
C1108 C1110 1.395 . S
C1108 C1111 1.403 . S
H1109 C1115 0.930 . S
C1110 H1096 0.930 . S
C1110 C1108 1.395 . S
C1110 C1113 1.403 . S
C1111 C1108 1.403 . S
C1111 C1112 1.524 . S
C1111 C1115 1.400 . S
C1112 H1097 0.960 . S
C1112 H1098 0.960 . S
C1112 H1099 0.960 . S
C1112 C1111 1.524 . S
C1113 C1110 1.403 . S
C1113 C1114 1.392 . S
C1113 C1117 1.495 . S
C1114 C1113 1.392 . S
C1114 C1115 1.385 . S
C1114 C1116 1.478 . S
C1115 H1109 0.930 . S
C1115 C1111 1.400 . S
C1115 C1114 1.385 . S
C1116 C1114 1.478 . S
C1116 C1118 1.381 . S
C1116 C1122 1.383 . S
C1117 C1113 1.495 . S
C1117 H1123 0.959 . S
C1117 H1124 0.961 . S
C1117 H1125 0.960 . S
C1118 C1116 1.381 . S
C1118 C1119 1.394 . S
C1118 H1126 0.930 . S
C1119 C1118 1.394 . S
C1119 C1120 1.383 . S
C1119 H1127 0.929 . S
C1120 C1119 1.383 . S
C1120 C1121 1.377 . S
C1121 H1105 0.930 . S
C1121 C1120 1.377 . S
C1121 C1122 1.379 . S
C1122 H1106 0.931 . S
C1122 C1116 1.383 . S
C1122 C1121 1.379 . S
H1123 C1117 0.959 . S
H1124 C1117 0.961 . S
H1125 C1117 0.960 . S
H1126 C1118 0.930 . S
H1127 C1119 0.929 . S
H1128 C1136 0.929 . S
H1129 C1138 0.930 . S
H1130 C1140 0.930 . S
H1131 C1143 0.929 . S
H1132 C1146 0.930 . S
H1133 C1148 0.960 . S
H1134 C1148 0.960 . S
H1135 C1148 0.960 1_565 S
C1136 H1128 0.929 . S
C1136 C1137 1.377 . S
C1136 C1138 1.384 . S
C1137 C1136 1.377 . S
C1137 C1143 1.390 . S
C1138 H1129 0.930 . S
C1138 C1136 1.384 . S
C1138 C1139 1.372 . S
C1139 C1138 1.372 . S
C1139 C1140 1.400 . S
C1139 C1144 1.490 . S
C1140 H1130 0.930 . S
C1140 C1139 1.400 . S
C1140 C1143 1.386 . S
H1141 C1157 0.930 . S
H1142 C1158 0.931 . S
C1143 H1131 0.929 . S
C1143 C1137 1.390 . S
C1143 C1140 1.386 . S
C1144 C1139 1.490 . S
C1144 C1146 1.395 1_556 S
C1144 C1147 1.403 1_565 S
H1145 C1151 0.937 . S
C1146 H1132 0.930 . S
C1146 C1144 1.395 1_554 S
C1146 C1149 1.403 . S
C1147 C1144 1.403 1_545 S
C1147 C1148 1.524 . S
C1147 C1151 1.440 . S
C1148 H1133 0.960 . S
C1148 H1134 0.960 . S
C1148 H1135 0.960 1_545 S
C1148 C1147 1.524 . S
C1149 C1146 1.403 . S
C1149 C1150 1.392 1_565 S
C1149 C1153 1.495 . S
C1150 C1149 1.392 1_545 S
C1150 C1151 1.340 1_554 S
C1150 C1152 1.478 . S
C1151 H1145 0.937 . S
C1151 C1147 1.440 . S
C1151 C1150 1.340 1_556 S
C1152 C1150 1.478 . S
C1152 C1154 1.381 . S
C1152 C1158 1.383 . S
C1153 C1149 1.495 . S
C1153 H1159 0.959 . S
C1153 H1160 0.961 . S
C1153 H1161 0.927 1_565 S
C1154 C1152 1.381 . S
C1154 C1155 1.394 . S
C1154 H1162 0.930 . S
C1155 C1154 1.394 . S
C1155 C1156 1.383 . S
C1155 H1163 0.929 . S
C1156 C1155 1.383 . S
C1156 C1157 1.377 . S
C1157 H1141 0.930 . S
C1157 C1156 1.377 . S
C1157 C1158 1.379 . S
C1158 H1142 0.931 . S
C1158 C1152 1.383 . S
C1158 C1157 1.379 . S
H1159 C1153 0.959 . S
H1160 C1153 0.961 . S
H1161 C1153 0.927 1_545 S
H1162 C1154 0.930 . S
H1163 C1155 0.929 . S
H1164 C1172 0.929 . S
H1165 C1174 0.930 . S
H1166 C1176 0.930 . S
H1167 C1179 0.929 . S
H1168 C1182 0.930 . S
H1169 C1184 0.960 . S
H1170 C1184 0.960 . S
H1171 C1184 0.960 . S
C1172 H1164 0.929 . S
C1172 C1173 1.377 . S
C1172 C1174 1.384 . S
C1173 C1172 1.377 . S
C1173 C1179 1.390 . S
C1174 H1165 0.930 . S
C1174 C1172 1.384 . S
C1174 C1175 1.372 . S
C1175 C1174 1.372 . S
C1175 C1176 1.400 . S
C1175 C1180 1.490 . S
C1176 H1166 0.930 . S
C1176 C1175 1.400 . S
C1176 C1179 1.386 . S
H1177 C1193 0.930 . S
H1178 C1194 0.931 . S
C1179 H1167 0.929 . S
C1179 C1173 1.390 . S
C1179 C1176 1.386 . S
C1180 C1175 1.490 . S
C1180 C1182 1.395 . S
C1180 C1183 1.403 . S
H1181 C1187 0.930 . S
C1182 H1168 0.930 . S
C1182 C1180 1.395 . S
C1182 C1185 1.403 . S
C1183 C1180 1.403 . S
C1183 C1184 1.524 . S
C1183 C1187 1.400 . S
C1184 H1169 0.960 . S
C1184 H1170 0.960 . S
C1184 H1171 0.960 . S
C1184 C1183 1.524 . S
C1185 C1182 1.403 . S
C1185 C1186 1.392 . S
C1185 C1189 1.495 . S
C1186 C1185 1.392 . S
C1186 C1187 1.385 . S
C1186 C1188 1.478 . S
C1187 H1181 0.930 . S
C1187 C1183 1.400 . S
C1187 C1186 1.385 . S
C1188 C1186 1.478 . S
C1188 C1190 1.381 . S
C1188 C1194 1.383 . S
C1189 C1185 1.495 . S
C1189 H1195 0.959 . S
C1189 H1196 0.961 . S
C1189 H1197 0.960 . S
C1190 C1188 1.381 . S
C1190 C1191 1.394 . S
C1190 H1198 0.930 . S
C1191 C1190 1.394 . S
C1191 C1192 1.383 . S
C1191 H1199 0.929 . S
C1192 C1191 1.383 . S
C1192 C1193 1.377 . S
C1193 H1177 0.930 . S
C1193 C1192 1.377 . S
C1193 C1194 1.379 . S
C1194 H1178 0.931 . S
C1194 C1188 1.383 . S
C1194 C1193 1.379 . S
H1195 C1189 0.959 . S
H1196 C1189 0.961 . S
H1197 C1189 0.960 . S
H1198 C1190 0.930 . S
H1199 C1191 0.929 . S
H1200 C1208 0.929 . S
H1201 C1210 0.930 . S
H1202 C1212 0.930 . S
H1203 C1215 0.929 . S
H1204 C1218 0.930 . S
H1205 C1220 0.960 . S
H1206 C1220 0.960 . S
H1207 C1220 0.960 . S
C1208 H1200 0.929 . S
C1208 C1209 1.377 . S
C1208 C1210 1.384 . S
C1209 C1208 1.377 . S
C1209 C1215 1.390 . S
C1210 H1201 0.930 . S
C1210 C1208 1.384 . S
C1210 C1211 1.372 . S
C1211 C1210 1.372 . S
C1211 C1212 1.400 . S
C1211 C1216 1.490 . S
C1212 H1202 0.930 . S
C1212 C1211 1.400 . S
C1212 C1215 1.386 . S
H1213 C1229 0.930 . S
H1214 C1230 0.931 . S
C1215 H1203 0.929 . S
C1215 C1209 1.390 . S
C1215 C1212 1.386 . S
C1216 C1211 1.490 . S
C1216 C1218 1.395 1_455 S
C1216 C1219 1.403 1_556 S
H1217 C1223 0.930 . S
C1218 H1204 0.930 . S
C1218 C1216 1.395 1_655 S
C1218 C1221 1.403 . S
C1219 C1216 1.403 1_554 S
C1219 C1220 1.524 . S
C1219 C1223 1.400 . S
C1220 H1205 0.960 . S
C1220 H1206 0.960 . S
C1220 H1207 0.960 . S
C1220 C1219 1.524 . S
C1221 C1218 1.403 . S
C1221 C1222 1.392 1_556 S
C1221 C1225 1.495 . S
C1222 C1221 1.392 1_554 S
C1222 C1223 1.385 1_655 S
C1222 C1224 1.478 . S
C1223 H1217 0.930 . S
C1223 C1219 1.400 . S
C1223 C1222 1.385 1_455 S
C1224 C1222 1.478 . S
C1224 C1226 1.381 . S
C1224 C1230 1.383 . S
C1225 C1221 1.495 . S
C1225 H1231 0.959 . S
C1225 H1232 0.961 . S
C1225 H1233 0.960 . S
C1226 C1224 1.381 . S
C1226 C1227 1.394 . S
C1226 H1234 0.930 . S
C1227 C1226 1.394 . S
C1227 C1228 1.383 . S
C1227 H1235 0.929 . S
C1228 C1227 1.383 . S
C1228 C1229 1.377 . S
C1229 H1213 0.930 . S
C1229 C1228 1.377 . S
C1229 C1230 1.379 . S
C1230 H1214 0.931 . S
C1230 C1224 1.383 . S
C1230 C1229 1.379 . S
H1231 C1225 0.959 . S
H1232 C1225 0.961 . S
H1233 C1225 0.960 . S
H1234 C1226 0.930 . S
H1235 C1227 0.929 . S
H1236 C1244 0.929 . S
H1237 C1246 0.930 . S
H1238 C1248 0.930 . S
H1239 C1251 0.929 . S
H1240 C1254 0.930 . S
H1241 C1256 0.960 . S
H1242 C1256 0.960 . S
H1243 C1256 0.960 . S
C1244 H1236 0.929 . S
C1244 C1245 1.377 . S
C1244 C1246 1.384 . S
C1245 C1244 1.377 . S
C1245 C1251 1.390 . S
C1246 H1237 0.930 . S
C1246 C1244 1.384 . S
C1246 C1247 1.372 . S
C1247 C1246 1.372 . S
C1247 C1248 1.400 . S
C1247 C1252 1.490 . S
C1248 H1238 0.930 . S
C1248 C1247 1.400 . S
C1248 C1251 1.386 . S
H1249 C1265 0.930 . S
H1250 C1266 0.931 . S
C1251 H1239 0.929 . S
C1251 C1245 1.390 . S
C1251 C1248 1.386 . S
C1252 C1247 1.490 . S
C1252 C1254 1.395 1_545 S
C1252 C1255 1.403 . S
H1253 C1259 0.930 . S
C1254 H1240 0.930 . S
C1254 C1252 1.395 1_565 S
C1254 C1257 1.403 . S
C1255 C1252 1.403 . S
C1255 C1256 1.524 . S
C1255 C1259 1.400 . S
C1256 H1241 0.960 . S
C1256 H1242 0.960 . S
C1256 H1243 0.960 . S
C1256 C1255 1.524 . S
C1257 C1254 1.403 . S
C1257 C1258 1.392 . S
C1257 C1261 1.495 . S
C1258 C1257 1.392 . S
C1258 C1259 1.385 1_565 S
C1258 C1260 1.478 . S
C1259 H1253 0.930 . S
C1259 C1255 1.400 . S
C1259 C1258 1.385 1_545 S
C1260 C1258 1.478 . S
C1260 C1262 1.381 . S
C1260 C1266 1.383 . S
C1261 C1257 1.495 . S
C1261 H1267 0.959 . S
C1261 H1268 0.961 . S
C1261 H1269 0.960 . S
C1262 C1260 1.381 . S
C1262 C1263 1.394 . S
C1262 H1270 0.930 . S
C1263 C1262 1.394 . S
C1263 C1264 1.383 . S
C1263 H1271 0.929 . S
C1264 C1263 1.383 . S
C1264 C1265 1.377 . S
C1265 H1249 0.930 . S
C1265 C1264 1.377 . S
C1265 C1266 1.379 . S
C1266 H1250 0.931 . S
C1266 C1260 1.383 . S
C1266 C1265 1.379 . S
H1267 C1261 0.959 . S
H1268 C1261 0.961 . S
H1269 C1261 0.960 . S
H1270 C1262 0.930 . S
H1271 C1263 0.929 . S
H1272 C1280 0.929 . S
H1273 C1282 0.930 . S
H1274 C1284 0.930 . S
H1275 C1287 0.929 . S
H1276 C1290 0.930 . S
H1277 C1292 0.960 . S
H1278 C1292 0.960 . S
H1279 C1292 0.960 . S
C1280 H1272 0.929 . S
C1280 C1281 1.377 . S
C1280 C1282 1.384 . S
C1281 C1280 1.377 . S
C1281 C1287 1.390 . S
C1282 H1273 0.930 . S
C1282 C1280 1.384 . S
C1282 C1283 1.372 . S
C1283 C1282 1.372 . S
C1283 C1284 1.400 . S
C1283 C1288 1.490 . S
C1284 H1274 0.930 . S
C1284 C1283 1.400 . S
C1284 C1287 1.386 . S
H1285 C1301 0.930 . S
H1286 C1302 0.931 . S
C1287 H1275 0.929 . S
C1287 C1281 1.390 . S
C1287 C1284 1.386 . S
C1288 C1283 1.490 . S
C1288 C1290 1.395 1_554 S
C1288 C1291 1.403 . S
H1289 C1295 0.930 . S
C1290 H1276 0.930 . S
C1290 C1288 1.395 1_556 S
C1290 C1293 1.403 . S
C1291 C1288 1.403 . S
C1291 C1292 1.524 . S
C1291 C1295 1.382 1_554 S
C1292 H1277 0.960 . S
C1292 H1278 0.960 . S
C1292 H1279 0.960 . S
C1292 C1291 1.524 . S
C1293 C1290 1.403 . S
C1293 C1294 1.392 . S
C1293 C1297 1.495 . S
C1294 C1293 1.392 . S
C1294 C1295 1.403 . S
C1294 C1296 1.478 . S
C1295 H1289 0.930 . S
C1295 C1291 1.382 1_556 S
C1295 C1294 1.403 . S
C1296 C1294 1.478 . S
C1296 C1298 1.381 . S
C1296 C1302 1.383 . S
C1297 C1293 1.495 . S
C1297 H1303 0.959 . S
C1297 H1304 0.961 . S
C1297 H1305 0.960 . S
C1298 C1296 1.381 . S
C1298 C1299 1.394 . S
C1298 H1306 0.930 . S
C1299 C1298 1.394 . S
C1299 C1300 1.383 . S
C1299 H1307 0.929 . S
C1300 C1299 1.383 . S
C1300 C1301 1.377 . S
C1301 H1285 0.930 . S
C1301 C1300 1.377 . S
C1301 C1302 1.379 . S
C1302 H1286 0.931 . S
C1302 C1296 1.383 . S
C1302 C1301 1.379 . S
H1303 C1297 0.959 . S
H1304 C1297 0.961 . S
H1305 C1297 0.960 . S
H1306 C1298 0.930 . S
H1307 C1299 0.929 . S
H1308 C1316 0.929 . S
H1309 C1318 0.930 . S
H1310 C1320 0.930 . S
H1311 C1323 0.929 . S
H1312 C1326 0.930 . S
H1313 C1328 0.960 . S
H1314 C1328 0.960 . S
H1315 C1328 0.960 . S
C1316 H1308 0.929 . S
C1316 C1317 1.377 . S
C1316 C1318 1.384 . S
C1317 C1316 1.377 . S
C1317 C1323 1.390 . S
C1318 H1309 0.930 . S
C1318 C1316 1.384 . S
C1318 C1319 1.372 . S
C1319 C1318 1.372 . S
C1319 C1320 1.400 . S
C1319 C1324 1.490 . S
C1320 H1310 0.930 . S
C1320 C1319 1.400 . S
C1320 C1323 1.386 . S
H1321 C1337 0.930 . S
H1322 C1338 0.931 . S
C1323 H1311 0.929 . S
C1323 C1317 1.390 . S
C1323 C1320 1.386 . S
C1324 C1319 1.490 . S
C1324 C1326 1.395 . S
C1324 C1327 1.403 1_455 S
H1325 C1331 0.930 . S
C1326 H1312 0.930 . S
C1326 C1324 1.395 . S
C1326 C1329 1.403 . S
C1327 C1324 1.403 1_655 S
C1327 C1328 1.524 . S
C1327 C1331 1.400 . S
C1328 H1313 0.960 . S
C1328 H1314 0.960 . S
C1328 H1315 0.960 . S
C1328 C1327 1.524 . S
C1329 C1326 1.403 . S
C1329 C1330 1.392 1_455 S
C1329 C1333 1.495 . S
C1330 C1329 1.392 1_655 S
C1330 C1331 1.385 . S
C1330 C1332 1.478 . S
C1331 H1325 0.930 . S
C1331 C1327 1.400 . S
C1331 C1330 1.385 . S
C1332 C1330 1.478 . S
C1332 C1334 1.381 . S
C1332 C1338 1.383 . S
C1333 C1329 1.495 . S
C1333 H1339 0.959 . S
C1333 H1340 0.961 . S
C1333 H1341 0.960 . S
C1334 C1332 1.381 . S
C1334 C1335 1.394 . S
C1334 H1342 0.930 . S
C1335 C1334 1.394 . S
C1335 C1336 1.383 . S
C1335 H1343 0.929 . S
C1336 C1335 1.383 . S
C1336 C1337 1.377 . S
C1337 H1321 0.930 . S
C1337 C1336 1.377 . S
C1337 C1338 1.379 . S
C1338 H1322 0.931 . S
C1338 C1332 1.383 . S
C1338 C1337 1.379 . S
H1339 C1333 0.959 . S
H1340 C1333 0.961 . S
H1341 C1333 0.960 . S
H1342 C1334 0.930 . S
H1343 C1335 0.929 . S
H1344 C1352 0.929 . S
H1345 C1354 0.930 . S
H1346 C1356 0.930 . S
H1347 C1359 0.929 . S
H1348 C1362 0.930 . S
H1349 C1364 0.960 . S
H1350 C1364 0.960 . S
H1351 C1364 0.960 . S
C1352 H1344 0.929 . S
C1352 C1353 1.377 . S
C1352 C1354 1.384 . S
C1353 C1352 1.377 . S
C1353 C1359 1.390 . S
C1354 H1345 0.930 . S
C1354 C1352 1.384 . S
C1354 C1355 1.372 . S
C1355 C1354 1.372 . S
C1355 C1356 1.400 . S
C1355 C1360 1.490 . S
C1356 H1346 0.930 . S
C1356 C1355 1.400 . S
C1356 C1359 1.386 . S
H1357 C1373 0.930 . S
H1358 C1374 0.931 . S
C1359 H1347 0.929 . S
C1359 C1353 1.390 . S
C1359 C1356 1.386 . S
C1360 C1355 1.490 . S
C1360 C1362 1.395 . S
C1360 C1363 1.403 . S
H1361 C1367 0.930 . S
C1362 H1348 0.930 . S
C1362 C1360 1.395 . S
C1362 C1365 1.403 . S
C1363 C1360 1.403 . S
C1363 C1364 1.524 . S
C1363 C1367 1.400 . S
C1364 H1349 0.960 . S
C1364 H1350 0.960 . S
C1364 H1351 0.960 . S
C1364 C1363 1.524 . S
C1365 C1362 1.403 . S
C1365 C1366 1.392 . S
C1365 C1369 1.495 . S
C1366 C1365 1.392 . S
C1366 C1367 1.385 . S
C1366 C1368 1.478 . S
C1367 H1361 0.930 . S
C1367 C1363 1.400 . S
C1367 C1366 1.385 . S
C1368 C1366 1.478 . S
C1368 C1370 1.381 . S
C1368 C1374 1.383 . S
C1369 C1365 1.495 . S
C1369 H1375 0.959 . S
C1369 H1376 0.961 . S
C1369 H1377 0.960 . S
C1370 C1368 1.381 . S
C1370 C1371 1.394 . S
C1370 H1378 0.930 . S
C1371 C1370 1.394 . S
C1371 C1372 1.383 . S
C1371 H1379 0.929 . S
C1372 C1371 1.383 . S
C1372 C1373 1.377 . S
C1373 H1357 0.930 . S
C1373 C1372 1.377 . S
C1373 C1374 1.379 . S
C1374 H1358 0.931 . S
C1374 C1368 1.383 . S
C1374 C1373 1.379 . S
H1375 C1369 0.959 . S
H1376 C1369 0.961 . S
H1377 C1369 0.960 . S
H1378 C1370 0.930 . S
H1379 C1371 0.929 . S
H1380 C1388 0.929 . S
H1381 C1390 0.930 . S
H1382 C1392 0.930 . S
H1383 C1395 0.929 . S
H1384 C1398 0.930 . S
H1385 C1400 0.960 . S
H1386 C1400 0.960 . S
H1387 C1400 0.960 . S
C1388 H1380 0.929 . S
C1388 C1389 1.377 . S
C1388 C1390 1.384 . S
C1389 C1388 1.377 . S
C1389 C1395 1.390 . S
C1390 H1381 0.930 . S
C1390 C1388 1.384 . S
C1390 C1391 1.372 . S
C1391 C1390 1.372 . S
C1391 C1392 1.400 . S
C1391 C1396 1.490 . S
C1392 H1382 0.930 . S
C1392 C1391 1.400 . S
C1392 C1395 1.386 . S
H1393 C1409 0.930 . S
H1394 C1410 0.931 . S
C1395 H1383 0.929 . S
C1395 C1389 1.390 . S
C1395 C1392 1.386 . S
C1396 C1391 1.490 . S
C1396 C1398 1.395 . S
C1396 C1399 1.403 . S
H1397 C1403 0.930 . S
C1398 H1384 0.930 . S
C1398 C1396 1.395 . S
C1398 C1401 1.403 . S
C1399 C1396 1.403 . S
C1399 C1400 1.524 . S
C1399 C1403 1.400 . S
C1400 H1385 0.960 . S
C1400 H1386 0.960 . S
C1400 H1387 0.960 . S
C1400 C1399 1.524 . S
C1401 C1398 1.403 . S
C1401 C1402 1.392 . S
C1401 C1405 1.495 . S
C1402 C1401 1.392 . S
C1402 C1403 1.385 . S
C1402 C1404 1.478 . S
C1403 H1397 0.930 . S
C1403 C1399 1.400 . S
C1403 C1402 1.385 . S
C1404 C1402 1.478 . S
C1404 C1406 1.381 . S
C1404 C1410 1.383 . S
C1405 C1401 1.495 . S
C1405 H1411 0.959 . S
C1405 H1412 0.961 . S
C1405 H1413 0.960 . S
C1406 C1404 1.381 . S
C1406 C1407 1.394 . S
C1406 H1414 0.930 . S
C1407 C1406 1.394 . S
C1407 C1408 1.383 . S
C1407 H1415 0.929 . S
C1408 C1407 1.383 . S
C1408 C1409 1.377 . S
C1409 H1393 0.930 . S
C1409 C1408 1.377 . S
C1409 C1410 1.379 . S
C1410 H1394 0.931 . S
C1410 C1404 1.383 . S
C1410 C1409 1.379 . S
H1411 C1405 0.959 . S
H1412 C1405 0.961 . S
H1413 C1405 0.960 . S
H1414 C1406 0.930 . S
H1415 C1407 0.929 . S
H1416 C1424 0.929 . S
H1417 C1426 0.930 . S
H1418 C1428 0.930 . S
H1419 C1431 0.929 . S
H1420 C1434 0.930 . S
H1421 C1436 0.960 . S
H1422 C1436 0.960 . S
H1423 C1436 0.960 . S
C1424 H1416 0.929 . S
C1424 C1425 1.377 . S
C1424 C1426 1.384 . S
C1425 C1424 1.377 . S
C1425 C1431 1.390 . S
C1426 H1417 0.930 . S
C1426 C1424 1.384 . S
C1426 C1427 1.372 . S
C1427 C1426 1.372 . S
C1427 C1428 1.400 . S
C1427 C1432 1.490 . S
C1428 H1418 0.930 . S
C1428 C1427 1.400 . S
C1428 C1431 1.386 . S
H1429 C1445 0.930 . S
H1430 C1446 0.931 . S
C1431 H1419 0.929 . S
C1431 C1425 1.390 . S
C1431 C1428 1.386 . S
C1432 C1427 1.490 . S
C1432 C1434 1.395 . S
C1432 C1435 1.403 . S
H1433 C1439 0.930 . S
C1434 H1420 0.930 . S
C1434 C1432 1.395 . S
C1434 C1437 1.403 . S
C1435 C1432 1.403 . S
C1435 C1436 1.524 . S
C1435 C1439 1.400 . S
C1436 H1421 0.960 . S
C1436 H1422 0.960 . S
C1436 H1423 0.960 . S
C1436 C1435 1.524 . S
C1437 C1434 1.403 . S
C1437 C1438 1.392 . S
C1437 C1441 1.495 . S
C1438 C1437 1.392 . S
C1438 C1439 1.385 . S
C1438 C1440 1.478 . S
C1439 H1433 0.930 . S
C1439 C1435 1.400 . S
C1439 C1438 1.385 . S
C1440 C1438 1.478 . S
C1440 C1442 1.381 . S
C1440 C1446 1.383 . S
C1441 C1437 1.495 . S
C1441 H1447 0.959 . S
C1441 H1448 0.961 . S
C1441 H1449 0.960 . S
C1442 C1440 1.381 . S
C1442 C1443 1.394 . S
C1442 H1450 0.930 . S
C1443 C1442 1.394 . S
C1443 C1444 1.383 . S
C1443 H1451 0.929 . S
C1444 C1443 1.383 . S
C1444 C1445 1.377 . S
C1445 H1429 0.930 . S
C1445 C1444 1.377 . S
C1445 C1446 1.379 . S
C1446 H1430 0.931 . S
C1446 C1440 1.383 . S
C1446 C1445 1.379 . S
H1447 C1441 0.959 . S
H1448 C1441 0.961 . S
H1449 C1441 0.960 . S
H1450 C1442 0.930 . S
H1451 C1443 0.929 . S
H1452 C1460 0.929 . S
H1453 C1462 0.930 . S
H1454 C1464 0.930 . S
H1455 C1467 0.929 . S
H1456 C1470 0.930 . S
H1457 C1472 0.960 . S
H1458 C1472 0.960 . S
H1459 C1472 0.960 . S
C1460 H1452 0.929 . S
C1460 C1461 1.377 . S
C1460 C1462 1.384 . S
C1461 C1460 1.377 . S
C1461 C1467 1.390 . S
C1462 H1453 0.930 . S
C1462 C1460 1.384 . S
C1462 C1463 1.372 . S
C1463 C1462 1.372 . S
C1463 C1464 1.400 . S
C1463 C1468 1.490 . S
C1464 H1454 0.930 . S
C1464 C1463 1.400 . S
C1464 C1467 1.386 . S
H1465 C1481 0.930 . S
H1466 C1482 0.931 . S
C1467 H1455 0.929 . S
C1467 C1461 1.390 . S
C1467 C1464 1.386 . S
C1468 C1463 1.490 . S
C1468 C1470 1.395 . S
C1468 C1471 1.403 . S
H1469 C1475 0.930 . S
C1470 H1456 0.930 . S
C1470 C1468 1.395 . S
C1470 C1473 1.403 . S
C1471 C1468 1.403 . S
C1471 C1472 1.524 . S
C1471 C1475 1.400 . S
C1472 H1457 0.960 . S
C1472 H1458 0.960 . S
C1472 H1459 0.960 . S
C1472 C1471 1.524 . S
C1473 C1470 1.403 . S
C1473 C1474 1.392 . S
C1473 C1477 1.495 . S
C1474 C1473 1.392 . S
C1474 C1475 1.385 . S
C1474 C1476 1.478 . S
C1475 H1469 0.930 . S
C1475 C1471 1.400 . S
C1475 C1474 1.385 . S
C1476 C1474 1.478 . S
C1476 C1478 1.381 . S
C1476 C1482 1.383 . S
C1477 C1473 1.495 . S
C1477 H1483 0.959 . S
C1477 H1484 0.961 . S
C1477 H1485 0.960 . S
C1478 C1476 1.381 . S
C1478 C1479 1.394 . S
C1478 H1486 0.930 . S
C1479 C1478 1.394 . S
C1479 C1480 1.383 . S
C1479 H1487 0.929 . S
C1480 C1479 1.383 . S
C1480 C1481 1.377 . S
C1481 H1465 0.930 . S
C1481 C1480 1.377 . S
C1481 C1482 1.379 . S
C1482 H1466 0.931 . S
C1482 C1476 1.383 . S
C1482 C1481 1.379 . S
H1483 C1477 0.959 . S
H1484 C1477 0.961 . S
H1485 C1477 0.960 . S
H1486 C1478 0.930 . S
H1487 C1479 0.929 . S
H1488 C1496 0.929 . S
H1489 C1498 0.930 . S
H1490 C1500 0.930 . S
H1491 C1503 0.929 . S
H1492 C1506 0.930 . S
H1493 C1508 0.960 . S
H1494 C1508 0.960 . S
H1495 C1508 0.960 . S
C1496 H1488 0.929 . S
C1496 C1497 1.377 . S
C1496 C1498 1.384 . S
C1497 C1496 1.377 . S
C1497 C1503 1.390 . S
C1498 H1489 0.930 . S
C1498 C1496 1.384 . S
C1498 C1499 1.372 . S
C1499 C1498 1.372 . S
C1499 C1500 1.400 . S
C1499 C1504 1.490 . S
C1500 H1490 0.930 . S
C1500 C1499 1.400 . S
C1500 C1503 1.386 . S
H1501 C1517 0.930 . S
H1502 C1518 0.931 . S
C1503 H1491 0.929 . S
C1503 C1497 1.390 . S
C1503 C1500 1.386 . S
C1504 C1499 1.490 . S
C1504 C1506 1.395 . S
C1504 C1507 1.403 . S
H1505 C1511 0.930 . S
C1506 H1492 0.930 . S
C1506 C1504 1.395 . S
C1506 C1509 1.403 . S
C1507 C1504 1.403 . S
C1507 C1508 1.524 . S
C1507 C1511 1.400 . S
C1508 H1493 0.960 . S
C1508 H1494 0.960 . S
C1508 H1495 0.960 . S
C1508 C1507 1.524 . S
C1509 C1506 1.403 . S
C1509 C1510 1.392 . S
C1509 C1513 1.495 . S
C1510 C1509 1.392 . S
C1510 C1511 1.385 . S
C1510 C1512 1.478 . S
C1511 H1505 0.930 . S
C1511 C1507 1.400 . S
C1511 C1510 1.385 . S
C1512 C1510 1.478 . S
C1512 C1514 1.381 . S
C1512 C1518 1.383 . S
C1513 C1509 1.495 . S
C1513 H1519 0.959 . S
C1513 H1520 0.961 . S
C1513 H1521 0.960 . S
C1514 C1512 1.381 . S
C1514 C1515 1.394 . S
C1514 H1522 0.930 . S
C1515 C1514 1.394 . S
C1515 C1516 1.383 . S
C1515 H1523 0.929 . S
C1516 C1515 1.383 . S
C1516 C1517 1.377 . S
C1517 H1501 0.930 . S
C1517 C1516 1.377 . S
C1517 C1518 1.379 . S
C1518 H1502 0.931 . S
C1518 C1512 1.383 . S
C1518 C1517 1.379 . S
H1519 C1513 0.959 . S
H1520 C1513 0.961 . S
H1521 C1513 0.960 . S
H1522 C1514 0.930 . S
H1523 C1515 0.929 . S
H1524 C1532 0.929 . S
H1525 C1534 0.930 . S
H1526 C1536 0.930 . S
H1527 C1539 0.929 . S
H1528 C1542 0.930 . S
H1529 C1544 0.960 . S
H1530 C1544 0.960 . S
H1531 C1544 0.960 . S
C1532 H1524 0.929 . S
C1532 C1533 1.377 . S
C1532 C1534 1.384 . S
C1533 C1532 1.377 . S
C1533 C1539 1.390 . S
C1534 H1525 0.930 . S
C1534 C1532 1.384 . S
C1534 C1535 1.372 . S
C1535 C1534 1.372 . S
C1535 C1536 1.400 . S
C1535 C1540 1.490 . S
C1536 H1526 0.930 . S
C1536 C1535 1.400 . S
C1536 C1539 1.386 . S
H1537 C1553 0.930 . S
H1538 C1554 0.931 . S
C1539 H1527 0.929 . S
C1539 C1533 1.390 . S
C1539 C1536 1.386 . S
C1540 C1535 1.490 . S
C1540 C1542 1.395 . S
C1540 C1543 1.403 . S
H1541 C1547 0.930 . S
C1542 H1528 0.930 . S
C1542 C1540 1.395 . S
C1542 C1545 1.403 . S
C1543 C1540 1.403 . S
C1543 C1544 1.524 . S
C1543 C1547 1.400 . S
C1544 H1529 0.960 . S
C1544 H1530 0.960 . S
C1544 H1531 0.960 . S
C1544 C1543 1.524 . S
C1545 C1542 1.403 . S
C1545 C1546 1.392 . S
C1545 C1549 1.495 . S
C1546 C1545 1.392 . S
C1546 C1547 1.385 . S
C1546 C1548 1.478 . S
C1547 H1541 0.930 . S
C1547 C1543 1.400 . S
C1547 C1546 1.385 . S
C1548 C1546 1.478 . S
C1548 C1550 1.381 . S
C1548 C1554 1.383 . S
C1549 C1545 1.495 . S
C1549 H1555 0.959 . S
C1549 H1556 0.961 . S
C1549 H1557 0.960 . S
C1550 C1548 1.381 . S
C1550 C1551 1.394 . S
C1550 H1558 0.930 . S
C1551 C1550 1.394 . S
C1551 C1552 1.383 . S
C1551 H1559 0.929 . S
C1552 C1551 1.383 . S
C1552 C1553 1.377 . S
C1553 H1537 0.930 . S
C1553 C1552 1.377 . S
C1553 C1554 1.379 . S
C1554 H1538 0.931 . S
C1554 C1548 1.383 . S
C1554 C1553 1.379 . S
H1555 C1549 0.959 . S
H1556 C1549 0.961 . S
H1557 C1549 0.960 . S
H1558 C1550 0.930 . S
H1559 C1551 0.929 . S
H1560 C1568 0.929 . S
H1561 C1570 0.930 . S
H1562 C1572 0.930 . S
H1563 C1575 0.929 . S
H1564 C1578 0.930 . S
H1565 C1580 0.960 . S
H1566 C1580 0.960 . S
H1567 C1580 0.960 . S
C1568 H1560 0.929 . S
C1568 C1569 1.377 . S
C1568 C1570 1.384 . S
C1569 C1568 1.377 . S
C1569 C1575 1.390 . S
C1570 H1561 0.930 . S
C1570 C1568 1.384 . S
C1570 C1571 1.372 . S
C1571 C1570 1.372 . S
C1571 C1572 1.400 . S
C1571 C1576 1.490 . S
C1572 H1562 0.930 . S
C1572 C1571 1.400 . S
C1572 C1575 1.386 . S
H1573 C1589 0.930 . S
H1574 C1590 0.931 . S
C1575 H1563 0.929 . S
C1575 C1569 1.390 . S
C1575 C1572 1.386 . S
C1576 C1571 1.490 . S
C1576 C1578 1.395 . S
C1576 C1579 1.403 . S
H1577 C1583 0.930 . S
C1578 H1564 0.930 . S
C1578 C1576 1.395 . S
C1578 C1581 1.403 . S
C1579 C1576 1.403 . S
C1579 C1580 1.524 . S
C1579 C1583 1.400 . S
C1580 H1565 0.960 . S
C1580 H1566 0.960 . S
C1580 H1567 0.960 . S
C1580 C1579 1.524 . S
C1581 C1578 1.403 . S
C1581 C1582 1.392 . S
C1581 C1585 1.495 . S
C1582 C1581 1.392 . S
C1582 C1583 1.385 . S
C1582 C1584 1.478 . S
C1583 H1577 0.930 . S
C1583 C1579 1.400 . S
C1583 C1582 1.385 . S
C1584 C1582 1.478 . S
C1584 C1586 1.381 . S
C1584 C1590 1.383 . S
C1585 C1581 1.495 . S
C1585 H1591 0.959 . S
C1585 H1592 0.961 . S
C1585 H1593 0.960 . S
C1586 C1584 1.381 . S
C1586 C1587 1.394 . S
C1586 H1594 0.930 . S
C1587 C1586 1.394 . S
C1587 C1588 1.383 . S
C1587 H1595 0.929 . S
C1588 C1587 1.383 . S
C1588 C1589 1.377 . S
C1589 H1573 0.930 . S
C1589 C1588 1.377 . S
C1589 C1590 1.379 . S
C1590 H1574 0.931 . S
C1590 C1584 1.383 . S
C1590 C1589 1.379 . S
H1591 C1585 0.959 . S
H1592 C1585 0.961 . S
H1593 C1585 0.960 . S
H1594 C1586 0.930 . S
H1595 C1587 0.929 . S
H1596 C1604 0.929 . S
H1597 C1606 0.930 . S
H1598 C1608 0.930 . S
H1599 C1611 0.929 . S
H1600 C1614 0.930 . S
H1601 C1616 0.960 . S
H1602 C1616 0.960 . S
H1603 C1616 0.960 . S
C1604 H1596 0.929 . S
C1604 C1605 1.377 . S
C1604 C1606 1.384 . S
C1605 C1604 1.377 . S
C1605 C1611 1.390 . S
C1606 H1597 0.930 . S
C1606 C1604 1.384 . S
C1606 C1607 1.372 . S
C1607 C1606 1.372 . S
C1607 C1608 1.400 . S
C1607 C1612 1.490 . S
C1608 H1598 0.930 . S
C1608 C1607 1.400 . S
C1608 C1611 1.386 . S
H1609 C1625 0.930 . S
H1610 C1626 0.931 . S
C1611 H1599 0.929 . S
C1611 C1605 1.390 . S
C1611 C1608 1.386 . S
C1612 C1607 1.490 . S
C1612 C1614 1.395 . S
C1612 C1615 1.403 . S
H1613 C1619 0.930 . S
C1614 H1600 0.930 . S
C1614 C1612 1.395 . S
C1614 C1617 1.403 . S
C1615 C1612 1.403 . S
C1615 C1616 1.524 . S
C1615 C1619 1.400 . S
C1616 H1601 0.960 . S
C1616 H1602 0.960 . S
C1616 H1603 0.960 . S
C1616 C1615 1.524 . S
C1617 C1614 1.403 . S
C1617 C1618 1.392 . S
C1617 C1621 1.495 . S
C1618 C1617 1.392 . S
C1618 C1619 1.385 . S
C1618 C1620 1.478 . S
C1619 H1613 0.930 . S
C1619 C1615 1.400 . S
C1619 C1618 1.385 . S
C1620 C1618 1.478 . S
C1620 C1622 1.381 . S
C1620 C1626 1.383 . S
C1621 C1617 1.495 . S
C1621 H1627 0.959 . S
C1621 H1628 0.961 . S
C1621 H1629 0.960 . S
C1622 C1620 1.381 . S
C1622 C1623 1.394 . S
C1622 H1630 0.930 . S
C1623 C1622 1.394 . S
C1623 C1624 1.383 . S
C1623 H1631 0.929 . S
C1624 C1623 1.383 . S
C1624 C1625 1.377 . S
C1625 H1609 0.930 . S
C1625 C1624 1.377 . S
C1625 C1626 1.379 . S
C1626 H1610 0.931 . S
C1626 C1620 1.383 . S
C1626 C1625 1.379 . S
H1627 C1621 0.959 . S
H1628 C1621 0.961 . S
H1629 C1621 0.960 . S
H1630 C1622 0.930 . S
H1631 C1623 0.929 . S
H1632 C1640 0.929 . S
H1633 C1642 0.930 . S
H1634 C1644 0.930 . S
H1635 C1647 0.929 . S
H1636 C1650 0.930 . S
H1637 C1652 0.960 . S
H1638 C1652 0.960 . S
H1639 C1652 0.960 . S
C1640 H1632 0.929 . S
C1640 C1641 1.377 . S
C1640 C1642 1.384 . S
C1641 C1640 1.377 . S
C1641 C1647 1.390 . S
C1642 H1633 0.930 . S
C1642 C1640 1.384 . S
C1642 C1643 1.372 . S
C1643 C1642 1.372 . S
C1643 C1644 1.400 . S
C1643 C1648 1.490 . S
C1644 H1634 0.930 . S
C1644 C1643 1.400 . S
C1644 C1647 1.386 . S
H1645 C1661 0.930 . S
H1646 C1662 0.931 . S
C1647 H1635 0.929 . S
C1647 C1641 1.390 . S
C1647 C1644 1.386 . S
C1648 C1643 1.490 . S
C1648 C1650 1.395 . S
C1648 C1651 1.403 . S
H1649 C1655 0.930 . S
C1650 H1636 0.930 . S
C1650 C1648 1.395 . S
C1650 C1653 1.403 . S
C1651 C1648 1.403 . S
C1651 C1652 1.524 . S
C1651 C1655 1.400 . S
C1652 H1637 0.960 . S
C1652 H1638 0.960 . S
C1652 H1639 0.960 . S
C1652 C1651 1.524 . S
C1653 C1650 1.403 . S
C1653 C1654 1.392 . S
C1653 C1657 1.495 . S
C1654 C1653 1.392 . S
C1654 C1655 1.385 . S
C1654 C1656 1.478 . S
C1655 H1649 0.930 . S
C1655 C1651 1.400 . S
C1655 C1654 1.385 . S
C1656 C1654 1.478 . S
C1656 C1658 1.381 . S
C1656 C1662 1.383 . S
C1657 C1653 1.495 . S
C1657 H1663 0.959 . S
C1657 H1664 0.961 . S
C1657 H1665 0.960 . S
C1658 C1656 1.381 . S
C1658 C1659 1.394 . S
C1658 H1666 0.930 . S
C1659 C1658 1.394 . S
C1659 C1660 1.383 . S
C1659 H1667 0.929 . S
C1660 C1659 1.383 . S
C1660 C1661 1.377 . S
C1661 H1645 0.930 . S
C1661 C1660 1.377 . S
C1661 C1662 1.379 . S
C1662 H1646 0.931 . S
C1662 C1656 1.383 . S
C1662 C1661 1.379 . S
H1663 C1657 0.959 . S
H1664 C1657 0.961 . S
H1665 C1657 0.960 . S
H1666 C1658 0.930 . S
H1667 C1659 0.929 . S
H1668 C1676 0.929 . S
H1669 C1678 0.930 . S
H1670 C1680 0.930 . S
H1671 C1683 0.929 . S
H1672 C1686 0.930 . S
H1673 C1688 0.960 . S
H1674 C1688 0.960 . S
H1675 C1688 0.960 . S
C1676 H1668 0.929 . S
C1676 C1677 1.377 . S
C1676 C1678 1.384 . S
C1677 C1676 1.377 . S
C1677 C1683 1.390 . S
C1678 H1669 0.930 . S
C1678 C1676 1.384 . S
C1678 C1679 1.372 . S
C1679 C1678 1.372 . S
C1679 C1680 1.400 . S
C1679 C1684 1.490 . S
C1680 H1670 0.930 . S
C1680 C1679 1.400 . S
C1680 C1683 1.386 . S
H1681 C1697 0.930 . S
H1682 C1698 0.931 . S
C1683 H1671 0.929 . S
C1683 C1677 1.390 . S
C1683 C1680 1.386 . S
C1684 C1679 1.490 . S
C1684 C1686 1.395 . S
C1684 C1687 1.403 . S
H1685 C1691 0.930 . S
C1686 H1672 0.930 . S
C1686 C1684 1.395 . S
C1686 C1689 1.403 . S
C1687 C1684 1.403 . S
C1687 C1688 1.524 . S
C1687 C1691 1.400 . S
C1688 H1673 0.960 . S
C1688 H1674 0.960 . S
C1688 H1675 0.960 . S
C1688 C1687 1.524 . S
C1689 C1686 1.403 . S
C1689 C1690 1.392 . S
C1689 C1693 1.495 . S
C1690 C1689 1.392 . S
C1690 C1691 1.385 . S
C1690 C1692 1.478 . S
C1691 H1685 0.930 . S
C1691 C1687 1.400 . S
C1691 C1690 1.385 . S
C1692 C1690 1.478 . S
C1692 C1694 1.381 . S
C1692 C1698 1.383 . S
C1693 C1689 1.495 . S
C1693 H1699 0.959 . S
C1693 H1700 0.961 . S
C1693 H1701 0.960 . S
C1694 C1692 1.381 . S
C1694 C1695 1.394 . S
C1694 H1702 0.930 . S
C1695 C1694 1.394 . S
C1695 C1696 1.383 . S
C1695 H1703 0.929 . S
C1696 C1695 1.383 . S
C1696 C1697 1.377 . S
C1697 H1681 0.930 . S
C1697 C1696 1.377 . S
C1697 C1698 1.379 . S
C1698 H1682 0.931 . S
C1698 C1692 1.383 . S
C1698 C1697 1.379 . S
H1699 C1693 0.959 . S
H1700 C1693 0.961 . S
H1701 C1693 0.960 . S
H1702 C1694 0.930 . S
H1703 C1695 0.929 . S
H1704 C1712 0.929 . S
H1705 C1714 0.930 . S
H1706 C1716 0.930 . S
H1707 C1719 0.929 . S
H1708 C1722 0.930 . S
H1709 C1724 0.960 . S
H1710 C1724 0.960 . S
H1711 C1724 0.960 . S
C1712 H1704 0.929 . S
C1712 C1713 1.377 . S
C1712 C1714 1.384 . S
C1713 C1712 1.377 . S
C1713 C1719 1.390 . S
C1714 H1705 0.930 . S
C1714 C1712 1.384 . S
C1714 C1715 1.372 . S
C1715 C1714 1.372 . S
C1715 C1716 1.400 . S
C1715 C1720 1.490 . S
C1716 H1706 0.930 . S
C1716 C1715 1.400 . S
C1716 C1719 1.386 . S
H1717 C1733 0.930 . S
H1718 C1734 0.931 . S
C1719 H1707 0.929 . S
C1719 C1713 1.390 . S
C1719 C1716 1.386 . S
C1720 C1715 1.490 . S
C1720 C1722 1.395 . S
C1720 C1723 1.403 . S
H1721 C1727 0.930 . S
C1722 H1708 0.930 . S
C1722 C1720 1.395 . S
C1722 C1725 1.403 . S
C1723 C1720 1.403 . S
C1723 C1724 1.524 . S
C1723 C1727 1.400 . S
C1724 H1709 0.960 . S
C1724 H1710 0.960 . S
C1724 H1711 0.960 . S
C1724 C1723 1.524 . S
C1725 C1722 1.403 . S
C1725 C1726 1.392 . S
C1725 C1729 1.495 . S
C1726 C1725 1.392 . S
C1726 C1727 1.385 . S
C1726 C1728 1.478 . S
C1727 H1721 0.930 . S
C1727 C1723 1.400 . S
C1727 C1726 1.385 . S
C1728 C1726 1.478 . S
C1728 C1730 1.381 . S
C1728 C1734 1.383 . S
C1729 C1725 1.495 . S
C1729 H1735 0.959 . S
C1729 H1736 0.961 . S
C1729 H1737 0.960 . S
C1730 C1728 1.381 . S
C1730 C1731 1.394 . S
C1730 H1738 0.930 . S
C1731 C1730 1.394 . S
C1731 C1732 1.383 . S
C1731 H1739 0.929 . S
C1732 C1731 1.383 . S
C1732 C1733 1.377 . S
C1733 H1717 0.930 . S
C1733 C1732 1.377 . S
C1733 C1734 1.379 . S
C1734 H1718 0.931 . S
C1734 C1728 1.383 . S
C1734 C1733 1.379 . S
H1735 C1729 0.959 . S
H1736 C1729 0.961 . S
H1737 C1729 0.960 . S
H1738 C1730 0.930 . S
H1739 C1731 0.929 . S
H1740 C1748 0.929 . S
H1741 C1750 0.930 . S
H1742 C1752 0.930 . S
H1743 C1755 0.929 . S
H1744 C1758 0.930 . S
H1745 C1760 0.960 . S
H1746 C1760 0.960 . S
H1747 C1760 0.960 . S
C1748 H1740 0.929 . S
C1748 C1749 1.377 . S
C1748 C1750 1.384 . S
C1749 C1748 1.377 . S
C1749 C1755 1.390 . S
C1750 H1741 0.930 . S
C1750 C1748 1.384 . S
C1750 C1751 1.372 . S
C1751 C1750 1.372 . S
C1751 C1752 1.400 . S
C1751 C1756 1.490 . S
C1752 H1742 0.930 . S
C1752 C1751 1.400 . S
C1752 C1755 1.386 . S
H1753 C1769 0.930 . S
H1754 C1770 0.931 . S
C1755 H1743 0.929 . S
C1755 C1749 1.390 . S
C1755 C1752 1.386 . S
C1756 C1751 1.490 . S
C1756 C1758 1.395 . S
C1756 C1759 1.403 . S
H1757 C1763 0.930 . S
C1758 H1744 0.930 . S
C1758 C1756 1.395 . S
C1758 C1761 1.403 . S
C1759 C1756 1.403 . S
C1759 C1760 1.524 . S
C1759 C1763 1.400 . S
C1760 H1745 0.960 . S
C1760 H1746 0.960 . S
C1760 H1747 0.960 . S
C1760 C1759 1.524 . S
C1761 C1758 1.403 . S
C1761 C1762 1.392 . S
C1761 C1765 1.495 . S
C1762 C1761 1.392 . S
C1762 C1763 1.385 . S
C1762 C1764 1.478 . S
C1763 H1757 0.930 . S
C1763 C1759 1.400 . S
C1763 C1762 1.385 . S
C1764 C1762 1.478 . S
C1764 C1766 1.381 . S
C1764 C1770 1.383 . S
C1765 C1761 1.495 . S
C1765 H1771 0.959 . S
C1765 H1772 0.961 . S
C1765 H1773 0.960 . S
C1766 C1764 1.381 . S
C1766 C1767 1.394 . S
C1766 H1774 0.930 . S
C1767 C1766 1.394 . S
C1767 C1768 1.383 . S
C1767 H1775 0.929 . S
C1768 C1767 1.383 . S
C1768 C1769 1.377 . S
C1769 H1753 0.930 . S
C1769 C1768 1.377 . S
C1769 C1770 1.379 . S
C1770 H1754 0.931 . S
C1770 C1764 1.383 . S
C1770 C1769 1.379 . S
H1771 C1765 0.959 . S
H1772 C1765 0.961 . S
H1773 C1765 0.960 . S
H1774 C1766 0.930 . S
H1775 C1767 0.929 . S
C489 C84 1.118 . S
C508 C20 1.133 . S
C525 C145 1.117 . S
C544 C71 1.092 . S
C561 C100 1.107 . S
C580 C164 1.119 . S
C597 C151 1.107 . S
C616 C225 1.098 . S
C633 C4 1.114 . S
C652 C180 1.124 . S
C669 C65 1.118 . S
C688 C231 1.133 . S
C705 C425 1.120 . S
C724 C271 1.110 . S
C741 C300 1.114 . S
C760 C444 1.102 . S
C777 C351 1.114 . S
C796 C265 1.134 . S
C813 C380 1.109 . S
C832 C284 1.095 . S
C849 C431 1.116 . S
C868 C345 1.117 . S
C885 C364 1.120 . S
C904 C460 1.128 . S
C921 C143 1.769 . S
C940 C2 1.795 . S
C957 C63 1.775 . S
C976 C162 1.787 . S
C993 C82 1.768 . S
C1012 C223 1.786 . S
C1029 C263 1.776 . S
C1048 C362 1.743 . S
C1065 C282 1.769 . S
C1084 C423 1.769 . S
C1101 C343 1.774 . S
C1120 C442 1.793 . S
C1137 C303 2.265 . S
C1156 C23 2.259 . S
C1173 C42 2.267 . S
C1192 C322 2.264 . S
C1209 C383 2.265 . S
C1228 C103 2.266 . S
C1245 C122 2.267 . S
C1264 C402 2.267 . S
C1281 C183 2.265 . S
C1300 C463 2.261 . S
C1317 C242 2.264 . S
C1336 C202 2.259 . S
C1353 C105 1.526 . S
C1372 C31 1.520 . S
C1389 C60 1.524 . S
C1408 C124 1.536 . S
C1425 C111 1.524 . S
C1444 C185 1.518 . S
C1461 C140 1.525 . S
C1480 C204 1.534 . S
C1497 C25 1.531 . S
C1516 C191 1.524 . S
C1533 C44 1.531 . S
C1552 C220 1.527 . S
C1569 C404 1.527 . S
C1588 C260 1.521 . S
C1605 C311 1.520 . S
C1624 C465 1.531 . S
C1641 C340 1.525 . S
C1660 C244 1.532 . S
C1677 C305 1.531 . S
C1696 C391 1.526 . S
C1713 C420 1.519 . S
C1732 C324 1.520 . S
C1749 C471 1.519 . S
C1768 C385 1.524 . S
