# Generated by pormake.
# Topology wkx, (5)-cn, num edge types: 1
# Building blocks:
#     Node 0, Type 0, BuildingBlock: BEQFEK_clean_sbu_0, # of connection points: 5
#     Node 1, Type 0, BuildingBlock: BEQFEK_clean_sbu_0, # of connection points: 5
#     Node 2, Type 0, BuildingBlock: BEQFEK_clean_sbu_0, # of connection points: 5
#     Node 3, Type 0, BuildingBlock: BEQFEK_clean_sbu_0, # of connection points: 5
#     Node 4, Type 0, BuildingBlock: BEQFEK_clean_sbu_0, # of connection points: 5
#     Node 5, Type 0, BuildingBlock: BEQFEK_clean_sbu_0, # of connection points: 5
#     Node 6, Type 0, BuildingBlock: BEQFEK_clean_sbu_0, # of connection points: 5
#     Node 7, Type 0, BuildingBlock: BEQFEK_clean_sbu_0, # of connection points: 5
#     Node 8, Type 0, BuildingBlock: BEQFEK_clean_sbu_0, # of connection points: 5
#     Node 9, Type 0, BuildingBlock: BEQFEK_clean_sbu_0, # of connection points: 5
#     Node 10, Type 0, BuildingBlock: BEQFEK_clean_sbu_0, # of connection points: 5
#     Node 11, Type 0, BuildingBlock: BEQFEK_clean_sbu_0, # of connection points: 5
#     Edge 12, Type (0, 0), BuildingBlock: ZUJKAS_clean_linker_0, # of connection points: 2
#     Edge 13, Type (0, 0), BuildingBlock: ZUJKAS_clean_linker_0, # of connection points: 2
#     Edge 14, Type (0, 0), BuildingBlock: ZUJKAS_clean_linker_0, # of connection points: 2
#     Edge 15, Type (0, 0), BuildingBlock: ZUJKAS_clean_linker_0, # of connection points: 2
#     Edge 16, Type (0, 0), BuildingBlock: ZUJKAS_clean_linker_0, # of connection points: 2
#     Edge 17, Type (0, 0), BuildingBlock: ZUJKAS_clean_linker_0, # of connection points: 2
#     Edge 18, Type (0, 0), BuildingBlock: ZUJKAS_clean_linker_0, # of connection points: 2
#     Edge 19, Type (0, 0), BuildingBlock: ZUJKAS_clean_linker_0, # of connection points: 2
#     Edge 20, Type (0, 0), BuildingBlock: ZUJKAS_clean_linker_0, # of connection points: 2
#     Edge 21, Type (0, 0), BuildingBlock: ZUJKAS_clean_linker_0, # of connection points: 2
#     Edge 22, Type (0, 0), BuildingBlock: ZUJKAS_clean_linker_0, # of connection points: 2
#     Edge 23, Type (0, 0), BuildingBlock: ZUJKAS_clean_linker_0, # of connection points: 2
#     Edge 24, Type (0, 0), BuildingBlock: ZUJKAS_clean_linker_0, # of connection points: 2
#     Edge 25, Type (0, 0), BuildingBlock: ZUJKAS_clean_linker_0, # of connection points: 2
#     Edge 26, Type (0, 0), BuildingBlock: ZUJKAS_clean_linker_0, # of connection points: 2
#     Edge 27, Type (0, 0), BuildingBlock: ZUJKAS_clean_linker_0, # of connection points: 2
#     Edge 28, Type (0, 0), BuildingBlock: ZUJKAS_clean_linker_0, # of connection points: 2
#     Edge 29, Type (0, 0), BuildingBlock: ZUJKAS_clean_linker_0, # of connection points: 2
#     Edge 30, Type (0, 0), BuildingBlock: ZUJKAS_clean_linker_0, # of connection points: 2
#     Edge 31, Type (0, 0), BuildingBlock: ZUJKAS_clean_linker_0, # of connection points: 2
#     Edge 32, Type (0, 0), BuildingBlock: ZUJKAS_clean_linker_0, # of connection points: 2
#     Edge 33, Type (0, 0), BuildingBlock: ZUJKAS_clean_linker_0, # of connection points: 2
#     Edge 34, Type (0, 0), BuildingBlock: ZUJKAS_clean_linker_0, # of connection points: 2
#     Edge 35, Type (0, 0), BuildingBlock: ZUJKAS_clean_linker_0, # of connection points: 2
#     Edge 36, Type (0, 0), BuildingBlock: ZUJKAS_clean_linker_0, # of connection points: 2
#     Edge 37, Type (0, 0), BuildingBlock: ZUJKAS_clean_linker_0, # of connection points: 2
#     Edge 38, Type (0, 0), BuildingBlock: ZUJKAS_clean_linker_0, # of connection points: 2
#     Edge 39, Type (0, 0), BuildingBlock: ZUJKAS_clean_linker_0, # of connection points: 2
#     Edge 40, Type (0, 0), BuildingBlock: ZUJKAS_clean_linker_0, # of connection points: 2
#     Edge 41, Type (0, 0), BuildingBlock: ZUJKAS_clean_linker_0, # of connection points: 2
# Relax obj value: 0.414
# Max RMSD: 0.258
# Mean RMSD: 0.258
data_MOF--net-wkx--node1-BEQFEK_clean_sbu_0--edge1-ZUJKAS_clean_linker_0
_symmetry_space_group_name_H-M    P1
_symmetry_Int_Tables_number       1
_symmetry_cell_setting            triclinic
loop_
_symmetry_equiv_pos_as_xyz
'x, y, z'
_cell_length_a     43.648006
_cell_length_b     43.652675
_cell_length_c     98.72053
_cell_angle_alpha  89.985352
_cell_angle_beta   90.006172
_cell_angle_gamma 119.98186
loop_
_atom_site_label
_atom_site_type_symbol
_atom_site_fract_x
_atom_site_fract_y
_atom_site_fract_z
_atom_type_partial_charge
Co0 Co 0.22915 0.15587 0.43118 0.0
Co1 Co 0.31036 0.19329 0.43668 0.0
C2 C 0.26602 0.22271 0.44746 0.0
O3 O 0.23874 0.19804 0.44174 0.0
O4 O 0.29604 0.2247 0.44628 0.0
C5 C 0.15905 0.1452 0.42661 0.0
O6 O 0.17147 0.17675 0.43195 0.0
C7 C 0.38372 0.24942 0.43504 0.0
C8 C 0.41294 0.22078 0.43833 0.0
C9 C 0.4175 0.25399 0.43568 0.0
N10 N 0.36036 0.21517 0.43723 0.0
N11 N 0.37791 0.19819 0.43932 0.0
C12 C 0.37331 0.27604 0.43105 0.0
H13 H 0.34632 0.26259 0.42661 0.0
H14 H 0.39239 0.29523 0.42365 0.0
H15 H 0.37312 0.29071 0.44019 0.0
C16 C 0.2526 0.15375 0.40346 0.0
N17 N 0.25972 0.16619 0.41624 0.0
N18 N 0.29401 0.18195 0.41838 0.0
C19 C 0.30989 0.18008 0.40691 0.0
C20 C 0.28421 0.16203 0.39706 0.0
C21 C 0.21588 0.12912 0.39849 0.0
H22 H 0.20246 0.10655 0.40561 0.0
H23 H 0.20064 0.14323 0.39837 0.0
H24 H 0.21559 0.11874 0.38822 0.0
O25 O 0.23387 0.12273 0.44354 0.0
O26 O 0.29169 0.14924 0.44735 0.0
H27 H 0.35521 0.17624 0.41241 0.0
H28 H 0.35619 0.19088 0.39518 0.0
C29 C 0.34855 0.19256 0.40576 0.0
H30 H 0.364 0.22041 0.40916 0.0
H31 H 0.36595 0.17104 0.44112 0.0
O32 O 0.17931 0.1323 0.42518 0.0
C33 C 0.26047 0.12356 0.44924 0.0
Co34 Co 0.06873 0.23174 0.59691 0.0
Co35 Co 0.11373 0.31207 0.60397 0.0
C36 C 0.03771 0.26752 0.6129 0.0
O37 O 0.03462 0.24077 0.60659 0.0
O38 O 0.0668 0.29679 0.6128 0.0
C39 C 0.01234 0.15987 0.59398 0.0
O40 O 0.99515 0.16976 0.60215 0.0
C41 C 0.13253 0.38565 0.60052 0.0
C42 C 0.18537 0.41462 0.61003 0.0
C43 C 0.16024 0.41936 0.60326 0.0
N44 N 0.14116 0.36211 0.60523 0.0
N45 N 0.17269 0.37952 0.61096 0.0
C46 C 0.09776 0.37567 0.59402 0.0
H47 H 0.07747 0.3484 0.59688 0.0
H48 H 0.10067 0.37651 0.58285 0.0
H49 H 0.08888 0.39452 0.59698 0.0
C50 C 0.09805 0.25793 0.56981 0.0
N51 N 0.0916 0.26385 0.5826 0.0
N52 N 0.11154 0.29762 0.58549 0.0
C53 C 0.132 0.31421 0.57462 0.0
C54 C 0.12399 0.28965 0.56428 0.0
C55 C 0.08415 0.22166 0.56402 0.0
H56 H 0.09371 0.20697 0.57026 0.0
H57 H 0.05483 0.2071 0.56451 0.0
H58 H 0.09265 0.22239 0.55339 0.0
O59 O 0.10459 0.23481 0.61011 0.0
O60 O 0.13742 0.29204 0.61485 0.0
H61 H 0.17882 0.35661 0.5835 0.0
H62 H 0.17719 0.35899 0.56521 0.0
C63 C 0.16135 0.35192 0.57465 0.0
H64 H 0.15003 0.36953 0.57556 0.0
H65 H 0.18562 0.36746 0.61546 0.0
O66 O 0.0435 0.18239 0.59022 0.0
C67 C 0.13028 0.26017 0.61638 0.0
Co68 Co 0.83978 0.07994 0.76503 0.0
Co69 Co 0.80231 0.12357 0.77078 0.0
C70 C 0.77208 0.04821 0.78044 0.0
O71 O 0.79705 0.04585 0.77485 0.0
O72 O 0.77051 0.07655 0.77958 0.0
C73 C 0.85256 0.02235 0.75916 0.0
O74 O 0.82037 0.00168 0.76372 0.0
C75 C 0.74595 0.13975 0.76698 0.0
C76 C 0.76974 0.19457 0.77457 0.0
C77 C 0.73914 0.16732 0.76891 0.0
N78 N 0.77883 0.15024 0.77135 0.0
N79 N 0.79292 0.18295 0.77595 0.0
C80 C 0.72316 0.105 0.76014 0.0
H81 H 0.73962 0.09426 0.7561 0.0
H82 H 0.70775 0.1079 0.75179 0.0
H83 H 0.70446 0.08587 0.76764 0.0
C84 C 0.84224 0.10618 0.73746 0.0
N85 N 0.82998 0.101 0.75024 0.0
N86 N 0.81548 0.12063 0.75253 0.0
C87 C 0.81871 0.13958 0.74124 0.0
C88 C 0.83595 0.13113 0.73131 0.0
C89 C 0.86204 0.08946 0.73164 0.0
H90 H 0.84776 0.06077 0.73398 0.0
H91 H 0.86499 0.09301 0.72049 0.0
H92 H 0.88862 0.10147 0.73638 0.0
O93 O 0.87165 0.11701 0.77796 0.0
O94 O 0.84537 0.14844 0.78204 0.0
H95 H 0.82172 0.18605 0.74983 0.0
H96 H 0.82168 0.18559 0.73152 0.0
C97 C 0.81065 0.16911 0.74073 0.0
H98 H 0.78157 0.15785 0.74082 0.0
H99 H 0.81848 0.19747 0.77985 0.0
O100 O 0.86507 0.05562 0.75883 0.0
C101 C 0.87076 0.14243 0.78394 0.0
Co102 Co 0.76165 0.84552 0.92816 0.0
Co103 Co 0.68135 0.80531 0.93544 0.0
C104 C 0.72938 0.77924 0.945 0.0
O105 O 0.75528 0.80476 0.93897 0.0
O106 O 0.69845 0.77529 0.94433 0.0
C107 C 0.82981 0.8556 0.92075 0.0
O108 O 0.81663 0.82256 0.92456 0.0
C109 C 0.6088 0.74759 0.93408 0.0
C110 C 0.57823 0.77309 0.94034 0.0
C111 C 0.57458 0.74117 0.93607 0.0
N112 N 0.63141 0.78158 0.93705 0.0
N113 N 0.61309 0.79668 0.9409 0.0
C114 C 0.62026 0.72333 0.92818 0.0
H115 H 0.64705 0.73882 0.92367 0.0
H116 H 0.60125 0.70599 0.92035 0.0
H117 H 0.62144 0.7065 0.93636 0.0
C118 C 0.73386 0.84465 0.90106 0.0
N119 N 0.72883 0.83293 0.91393 0.0
N120 N 0.69489 0.81668 0.91682 0.0
C121 C 0.67714 0.81774 0.90578 0.0
C122 C 0.70122 0.83549 0.89539 0.0
C123 C 0.76963 0.86961 0.89533 0.0
H124 H 0.78346 0.89285 0.90213 0.0
H125 H 0.78554 0.85621 0.89497 0.0
H126 H 0.76821 0.87896 0.88504 0.0
O127 O 0.7571 0.87878 0.9405 0.0
O128 O 0.7002 0.84937 0.94615 0.0
H129 H 0.63215 0.81967 0.91327 0.0
H130 H 0.62939 0.80853 0.89546 0.0
C131 C 0.63832 0.80504 0.90557 0.0
H132 H 0.6235 0.77658 0.90819 0.0
H133 H 0.62435 0.82323 0.94365 0.0
O134 O 0.8106 0.86988 0.92118 0.0
C135 C 0.73094 0.87646 0.9471 0.0
Co136 Co 0.91304 0.76563 0.09788 0.0
Co137 Co 0.87385 0.68439 0.10285 0.0
C138 C 0.94702 0.73178 0.11358 0.0
O139 O 0.94725 0.75844 0.10831 0.0
O140 O 0.9205 0.7008 0.11211 0.0
C141 C 0.97001 0.83397 0.09011 0.0
O142 O 0.9889 0.81822 0.08931 0.0
C143 C 0.86074 0.61258 0.09987 0.0
C144 C 0.80415 0.58038 0.10522 0.0
C145 C 0.83326 0.57792 0.10116 0.0
N146 N 0.84838 0.63428 0.10307 0.0
N147 N 0.81462 0.61496 0.10633 0.0
C148 C 0.89732 0.62545 0.09459 0.0
H149 H 0.90844 0.65254 0.09038 0.0
H150 H 0.8972 0.60738 0.08666 0.0
H151 H 0.91457 0.62651 0.10305 0.0
C152 C 0.89056 0.74299 0.06983 0.0
N153 N 0.89509 0.7358 0.08269 0.0
N154 N 0.87749 0.7014 0.08465 0.0
C155 C 0.86074 0.68554 0.07302 0.0
C156 C 0.8686 0.71137 0.06321 0.0
C157 C 0.9024 0.77961 0.06479 0.0
H158 H 0.89283 0.79289 0.07179 0.0
H159 H 0.93173 0.79506 0.06479 0.0
H160 H 0.89255 0.77963 0.05444 0.0
O161 O 0.87381 0.7577 0.11003 0.0
O162 O 0.84673 0.70001 0.11415 0.0
H163 H 0.81366 0.63861 0.0791 0.0
H164 H 0.82414 0.63972 0.06129 0.0
C165 C 0.83538 0.64674 0.07165 0.0
H166 H 0.8493 0.63196 0.07391 0.0
H167 H 0.79864 0.62539 0.10916 0.0
O168 O 0.93725 0.81592 0.0929 0.0
C169 C 0.84969 0.73026 0.11592 0.0
Co170 Co 0.14672 0.91639 0.26542 0.0
Co171 Co 0.18816 0.87668 0.27043 0.0
C172 C 0.21468 0.95039 0.28088 0.0
O173 O 0.18868 0.95112 0.27543 0.0
O174 O 0.21834 0.92331 0.27971 0.0
C175 C 0.13478 0.97248 0.25661 0.0
O176 O 0.16909 0.99073 0.25455 0.0
C177 C 0.24652 0.86295 0.26748 0.0
C178 C 0.22174 0.80647 0.27307 0.0
C179 C 0.25335 0.83522 0.26883 0.0
N180 N 0.21261 0.85102 0.27078 0.0
N181 N 0.19795 0.81735 0.27421 0.0
C182 C 0.27031 0.89927 0.26199 0.0
H183 H 0.25444 0.91071 0.25797 0.0
H184 H 0.28751 0.89856 0.25386 0.0
H185 H 0.28728 0.91659 0.27028 0.0
C186 C 0.14503 0.89184 0.23749 0.0
N187 N 0.15767 0.89744 0.25024 0.0
N188 N 0.17487 0.88022 0.25222 0.0
C189 C 0.17355 0.86288 0.24071 0.0
C190 C 0.15463 0.86967 0.23096 0.0
C191 C 0.11941 0.90272 0.23257 0.0
H192 H 0.0979 0.8948 0.24012 0.0
H193 H 0.13328 0.93195 0.23164 0.0
H194 H 0.10762 0.89072 0.22266 0.0
O195 O 0.11582 0.87791 0.27795 0.0
O196 O 0.14514 0.84929 0.2815 0.0
H197 H 0.17386 0.81601 0.24679 0.0
H198 H 0.18395 0.82695 0.22904 0.0
C199 C 0.18753 0.83793 0.23942 0.0
H200 H 0.21613 0.8521 0.24183 0.0
H201 H 0.17156 0.80167 0.27713 0.0
O202 O 0.12056 0.9405 0.26048 0.0
C203 C 0.11845 0.85307 0.28358 0.0
Co204 Co 0.84477 0.76268 0.40834 0.0
Co205 Co 0.80419 0.68133 0.40347 0.0
C206 C 0.77785 0.72864 0.39246 0.0
O207 O 0.80318 0.75551 0.39811 0.0
O208 O 0.77473 0.69811 0.39368 0.0
C209 C 0.8574 0.83137 0.41661 0.0
O210 O 0.82289 0.81613 0.41788 0.0
C211 C 0.74622 0.60892 0.40755 0.0
C212 C 0.77018 0.57742 0.40066 0.0
C213 C 0.73948 0.57444 0.40603 0.0
N214 N 0.77949 0.63107 0.40347 0.0
N215 N 0.79365 0.61211 0.39932 0.0
C216 C 0.72139 0.62095 0.41234 0.0
H217 H 0.72978 0.64791 0.40858 0.0
H218 H 0.72171 0.62188 0.42356 0.0
H219 H 0.69399 0.60236 0.40893 0.0
C220 C 0.84551 0.74041 0.43639 0.0
N221 N 0.83335 0.73298 0.42358 0.0
N222 N 0.81719 0.69859 0.42164 0.0
C223 C 0.81913 0.68302 0.43319 0.0
C224 C 0.83694 0.70898 0.44295 0.0
C225 C 0.86997 0.77715 0.44137 0.0
H226 H 0.89296 0.79044 0.43443 0.0
H227 H 0.85592 0.79243 0.44123 0.0
H228 H 0.87967 0.7774 0.45177 0.0
O229 O 0.8758 0.75471 0.396 0.0
O230 O 0.8475 0.69671 0.39261 0.0
H231 H 0.82036 0.63707 0.42643 0.0
H232 H 0.81391 0.63806 0.44453 0.0
C233 C 0.8075 0.64456 0.43444 0.0
H234 H 0.77851 0.62875 0.43295 0.0
H235 H 0.8194 0.62287 0.39562 0.0
O236 O 0.87134 0.81295 0.41328 0.0
C237 C 0.87386 0.72739 0.39051 0.0
Co238 Co 0.08395 0.84403 0.57607 0.0
Co239 Co 0.1255 0.80547 0.56849 0.0
C240 C 0.05046 0.77805 0.55935 0.0
O241 O 0.04924 0.80278 0.56566 0.0
O242 O 0.07823 0.77536 0.55963 0.0
C243 C 0.02641 0.85515 0.58346 0.0
O244 O 0.0061 0.82242 0.57938 0.0
C245 C 0.14052 0.74793 0.56996 0.0
C246 C 0.19637 0.77322 0.56345 0.0
C247 C 0.16829 0.74147 0.56796 0.0
N248 N 0.15173 0.78177 0.56678 0.0
N249 N 0.18502 0.79674 0.56277 0.0
C250 C 0.10506 0.72391 0.5761 0.0
H251 H 0.09382 0.73956 0.58052 0.0
H252 H 0.10709 0.70702 0.58405 0.0
H253 H 0.08679 0.7066 0.56809 0.0
C254 C 0.11141 0.84315 0.60313 0.0
N255 N 0.10507 0.83203 0.59018 0.0
N256 N 0.1234 0.81654 0.58713 0.0
C257 C 0.14248 0.81775 0.59811 0.0
C258 C 0.13546 0.83456 0.60864 0.0
C259 C 0.09939 0.86683 0.60918 0.0
H260 H 0.1093 0.89103 0.60288 0.0
H261 H 0.07006 0.85308 0.60904 0.0
H262 H 0.10886 0.87463 0.61971 0.0
O263 O 0.12075 0.87695 0.5633 0.0
O264 O 0.15057 0.84973 0.55794 0.0
H265 H 0.18944 0.82065 0.59013 0.0
H266 H 0.18286 0.81073 0.60808 0.0
C267 C 0.16948 0.80616 0.59812 0.0
H268 H 0.15635 0.77755 0.59579 0.0
H269 H 0.20018 0.82318 0.55986 0.0
O270 O 0.05983 0.86874 0.58318 0.0
C271 C 0.14542 0.87587 0.5568 0.0
Co272 Co 0.23023 0.06935 0.74053 0.0
Co273 Co 0.31104 0.11715 0.73492 0.0
C274 C 0.2696 0.04134 0.72522 0.0
O275 O 0.24169 0.03694 0.73099 0.0
O276 O 0.29835 0.07089 0.72594 0.0
C277 C 0.15783 0.0147 0.74016 0.0
O278 O 0.16817 0.00312 0.72984 0.0
C279 C 0.38489 0.13867 0.73985 0.0
C280 C 0.41334 0.19018 0.72933 0.0
C281 C 0.41851 0.16634 0.73687 0.0
N282 N 0.36109 0.14603 0.73445 0.0
N283 N 0.3782 0.17688 0.7282 0.0
C284 C 0.37518 0.10466 0.74691 0.0
H285 H 0.34768 0.08415 0.74441 0.0
H286 H 0.37678 0.10893 0.75802 0.0
H287 H 0.39377 0.09534 0.74409 0.0
C288 C 0.25244 0.09678 0.76806 0.0
N289 N 0.26037 0.09193 0.75537 0.0
N290 N 0.29426 0.11333 0.75311 0.0
C291 C 0.30886 0.13326 0.7643 0.0
C292 C 0.28277 0.12341 0.77417 0.0
C293 C 0.21576 0.07818 0.77377 0.0
H294 H 0.20268 0.04962 0.77127 0.0
H295 H 0.21599 0.08131 0.78494 0.0
H296 H 0.20017 0.08916 0.76909 0.0
O297 O 0.23341 0.10539 0.72745 0.0
O298 O 0.2909 0.14011 0.72363 0.0
H299 H 0.3507 0.17983 0.75499 0.0
H300 H 0.34816 0.18306 0.77315 0.0
C301 C 0.34516 0.1651 0.76467 0.0
H302 H 0.36491 0.15643 0.76594 0.0
H303 H 0.36588 0.18867 0.72304 0.0
O304 O 0.18034 0.04235 0.74639 0.0
C305 C 0.25888 0.1319 0.72158 0.0
Co306 Co 0.15366 0.23299 0.90845 0.0
Co307 Co 0.19224 0.31375 0.90194 0.0
C308 C 0.21979 0.26675 0.89195 0.0
O309 O 0.1953 0.2403 0.89812 0.0
O310 O 0.22196 0.29694 0.8925 0.0
C311 C 0.14195 0.16336 0.91455 0.0
O312 O 0.17437 0.1757 0.91009 0.0
C313 C 0.24933 0.38647 0.90531 0.0
C314 C 0.22636 0.41723 0.89664 0.0
C315 C 0.25635 0.42067 0.90288 0.0
N316 N 0.21648 0.3639 0.90094 0.0
N317 N 0.2029 0.38239 0.89571 0.0
C318 C 0.27372 0.37513 0.9112 0.0
H319 H 0.26551 0.34766 0.90816 0.0
H320 H 0.27274 0.37587 0.92241 0.0
H321 H 0.30136 0.39328 0.90793 0.0
C322 C 0.15309 0.25869 0.93584 0.0
N323 N 0.16517 0.26478 0.92302 0.0
N324 N 0.18052 0.29884 0.92041 0.0
C325 C 0.17812 0.31553 0.93155 0.0
C326 C 0.16079 0.29066 0.94174 0.0
C327 C 0.12907 0.22236 0.94132 0.0
H328 H 0.10528 0.20877 0.93478 0.0
H329 H 0.14286 0.20683 0.94099 0.0
H330 H 0.12054 0.22286 0.95185 0.0
O331 O 0.12102 0.23821 0.89586 0.0
O332 O 0.14808 0.29579 0.89142 0.0
H333 H 0.17557 0.3598 0.92354 0.0
H334 H 0.18182 0.36138 0.94173 0.0
C335 C 0.18865 0.35385 0.93194 0.0
H336 H 0.21759 0.37017 0.93054 0.0
H337 H 0.17758 0.37123 0.89155 0.0
O338 O 0.12875 0.18354 0.91494 0.0
C339 C 0.12204 0.2646 0.88988 0.0
Co340 Co 0.91783 0.15275 0.0739 0.0
Co341 Co 0.87644 0.19255 0.06863 0.0
C342 C 0.95063 0.22005 0.0582 0.0
O343 O 0.9522 0.1946 0.06374 0.0
O344 O 0.92306 0.22289 0.05935 0.0
C345 C 0.97472 0.14076 0.08161 0.0
O346 O 0.9943 0.17537 0.08217 0.0
C347 C 0.86155 0.24987 0.07314 0.0
C348 C 0.80832 0.22847 0.06416 0.0
C349 C 0.83494 0.25776 0.07072 0.0
N350 N 0.85092 0.21725 0.06839 0.0
N351 N 0.8191 0.20457 0.06303 0.0
C352 C 0.89726 0.27342 0.07918 0.0
H353 H 0.91593 0.2642 0.07641 0.0
H354 H 0.89506 0.27279 0.09038 0.0
H355 H 0.90776 0.30113 0.07577 0.0
C356 C 0.89397 0.15168 0.1018 0.0
N357 N 0.89878 0.16376 0.08899 0.0
N358 N 0.87979 0.17905 0.08685 0.0
C359 C 0.86155 0.17645 0.09827 0.0
C360 C 0.87017 0.15928 0.10817 0.0
C361 C 0.90724 0.12817 0.10696 0.0
H362 H 0.89729 0.10457 0.10033 0.0
H363 H 0.93655 0.14255 0.10645 0.0
H364 H 0.89874 0.11938 0.11752 0.0
O365 O 0.87913 0.12126 0.06152 0.0
O366 O 0.8499 0.14979 0.05734 0.0
H367 H 0.815 0.17525 0.09066 0.0
H368 H 0.81906 0.17834 0.10895 0.0
C369 C 0.83375 0.18687 0.09924 0.0
H370 H 0.84645 0.21601 0.09855 0.0
H371 H 0.80483 0.17968 0.05853 0.0
O372 O 0.94192 0.12661 0.07898 0.0
C373 C 0.8543 0.12334 0.05561 0.0
Co374 Co 0.76133 0.91483 0.24256 0.0
Co375 Co 0.6805 0.87587 0.2365 0.0
C376 C 0.7294 0.94894 0.22583 0.0
O377 O 0.75543 0.94927 0.23172 0.0
O378 O 0.69833 0.92233 0.22686 0.0
C379 C 0.82987 0.97185 0.24997 0.0
O380 O 0.81506 0.9916 0.24906 0.0
C381 C 0.60822 0.86201 0.23993 0.0
C382 C 0.57665 0.8077 0.23187 0.0
C383 C 0.57378 0.835 0.23773 0.0
N384 N 0.63033 0.85092 0.23577 0.0
N385 N 0.61135 0.81851 0.23092 0.0
C386 C 0.62023 0.89827 0.2454 0.0
H387 H 0.62005 0.89742 0.25663 0.0
H388 H 0.60218 0.90783 0.24205 0.0
H389 H 0.64761 0.91702 0.24209 0.0
C390 C 0.73642 0.89111 0.2702 0.0
N391 N 0.7302 0.89695 0.25738 0.0
N392 N 0.696 0.87918 0.25496 0.0
C393 C 0.67931 0.86087 0.26624 0.0
C394 C 0.70435 0.86793 0.27632 0.0
C395 C 0.77267 0.90222 0.27548 0.0
H396 H 0.78541 0.89135 0.26881 0.0
H397 H 0.78898 0.93149 0.27513 0.0
H398 H 0.77216 0.89306 0.28599 0.0
O399 O 0.75395 0.87519 0.23069 0.0
O400 O 0.69658 0.84815 0.22585 0.0
H401 H 0.63393 0.81441 0.25864 0.0
H402 H 0.63316 0.82029 0.2768 0.0
C403 C 0.64072 0.83405 0.26688 0.0
H404 H 0.62513 0.84743 0.26535 0.0
H405 H 0.62208 0.80372 0.227 0.0
O406 O 0.81117 0.93863 0.24823 0.0
C407 C 0.7269 0.85094 0.22464 0.0
H408 H 0.10513 0.1568 0.43402 0.0
H409 H 0.04143 0.11543 0.43171 0.0
H410 H 0.0636 0.04228 0.41052 0.0
H411 H 0.12687 0.08324 0.41266 0.0
H412 H 0.00559 0.04979 0.3996 0.0
H413 H 0.99633 0.02351 0.45525 0.0
H414 H 0.01414 0.06823 0.4493 0.0
H415 H 0.03859 0.04571 0.44677 0.0
C416 C 0.09637 0.13215 0.42866 0.0
C417 C 0.12096 0.123 0.42368 0.0
C418 C 0.06003 0.10858 0.4274 0.0
C419 C 0.04798 0.07576 0.42108 0.0
C420 C 0.07247 0.06754 0.41543 0.0
H421 H 0.92652 0.87084 0.40958 0.0
H422 H 0.96402 0.93472 0.41069 0.0
C423 C 0.10862 0.09089 0.41673 0.0
C424 C 0.01032 0.04808 0.42127 0.0
H425 H 0.9516 0.981 0.44152 0.0
C426 C 0.99311 0.03538 0.40882 0.0
C427 C 0.99408 0.02952 0.43333 0.0
C428 C 0.01157 0.04219 0.44696 0.0
C429 C 0.96177 0.00274 0.40797 0.0
C430 C 0.94771 0.98242 0.41984 0.0
C431 C 0.96267 0.99682 0.43246 0.0
C432 C 0.9235 0.94396 0.419 0.0
C433 C 0.94552 0.98878 0.39427 0.0
C434 C 0.88847 0.92809 0.4236 0.0
C435 C 0.86668 0.89127 0.42292 0.0
C436 C 0.88002 0.87007 0.41788 0.0
C437 C 0.91538 0.8863 0.41354 0.0
C438 C 0.93681 0.92284 0.41407 0.0
H439 H 0.95255 0.01065 0.38695 0.0
H440 H 0.95564 0.97178 0.39024 0.0
H441 H 0.91626 0.97254 0.39501 0.0
H442 H 0.87802 0.94413 0.4276 0.0
H443 H 0.83955 0.87944 0.42636 0.0
H444 H 0.05921 0.91954 0.59574 0.0
H445 H 0.03668 0.96022 0.59846 0.0
H446 H 0.93664 0.88281 0.58131 0.0
H447 H 0.95911 0.84172 0.57848 0.0
H448 H 0.96747 0.9487 0.5685 0.0
H449 H 0.96482 0.96434 0.62393 0.0
H450 H 0.00584 0.96823 0.61851 0.0
H451 H 0.96525 0.92697 0.61625 0.0
C452 C 0.03219 0.91087 0.59277 0.0
C453 C 0.01099 0.87754 0.58683 0.0
C454 C 0.01924 0.93404 0.59444 0.0
C455 C 0.98486 0.92431 0.59023 0.0
C456 C 0.96314 0.8906 0.58472 0.0
H457 H 0.9515 0.10348 0.60364 0.0
H458 H 0.93306 0.04081 0.60126 0.0
C459 C 0.97601 0.86721 0.58314 0.0
C460 C 0.97371 0.95116 0.59021 0.0
H461 H 0.97419 0.01476 0.61031 0.0
C462 C 0.96794 0.96261 0.57767 0.0
C463 C 0.97366 0.96882 0.60219 0.0
C464 C 0.97735 0.95619 0.61599 0.0
C465 C 0.96546 0.99335 0.5767 0.0
C466 C 0.96934 0.01316 0.58854 0.0
C467 C 0.97169 -0.0002 0.6012 0.0
C468 C 0.97616 0.04989 0.58795 0.0
C469 C 0.96024 0.0051 0.56295 0.0
C470 C 0.00611 0.07565 0.58104 0.0
C471 C 0.01677 0.11139 0.58239 0.0
C472 C -0.00218 0.12206 0.59079 0.0
C473 C 0.96672 0.09611 0.59712 0.0
C474 C 0.9561 0.0603 0.59577 0.0
H475 H 0.94507 0.98205 0.55616 0.0
H476 H 0.94614 0.0203 0.5637 0.0
H477 H 0.98645 0.02223 0.55821 0.0
H478 H 0.02245 0.06829 0.57519 0.0
H479 H 0.04079 0.13071 0.57735 0.0
H480 H 0.91665 0.05684 0.7467 0.0
H481 H 0.95687 0.03468 0.74217 0.0
H482 H 0.88051 0.93252 0.7581 0.0
H483 H 0.83991 0.95474 0.76286 0.0
H484 H 0.94647 0.95866 0.76939 0.0
H485 H 0.95833 0.96823 0.71377 0.0
H486 H 0.96396 0.00864 0.72075 0.0
H487 H 0.92222 0.96831 0.7227 0.0
C488 C 0.90812 0.0295 0.74909 0.0
C489 C 0.87517 0.00758 0.7552 0.0
C490 C 0.93102 0.01676 0.74636 0.0
C491 C 0.92141 0.98178 0.74958 0.0
C492 C 0.88821 0.95949 0.75541 0.0
H493 H 0.10223 0.95771 0.72797 0.0
H494 H 0.03922 0.93673 0.73122 0.0
C495 C 0.86511 0.97223 0.75811 0.0
C496 C 0.9479 0.97036 0.7481 0.0
H497 H 0.01058 0.97639 0.72602 0.0
C498 C 0.95993 0.96151 0.75984 0.0
C499 C 0.96487 0.97317 0.7356 0.0
C500 C 0.95136 0.97971 0.72248 0.0
C501 C 0.99075 0.95903 0.75963 0.0
C502 C 0.01019 0.96629 0.74744 0.0
C503 C 0.99605 0.97144 0.73544 0.0
C504 C 0.04726 0.97393 0.7472 0.0
C505 C 0.00292 0.95015 0.77258 0.0
C506 C 0.07262 0.00138 0.75527 0.0
C507 C 0.10854 0.01337 0.75347 0.0
C508 C 0.11983 -0.00154 0.74341 0.0
C509 C 0.09436 0.96985 0.73577 0.0
C510 C 0.05835 0.95776 0.73762 0.0
H511 H 0.97996 0.93214 0.77899 0.0
H512 H 0.0191 0.9375 0.77056 0.0
H513 H 0.0191 0.97478 0.77845 0.0
H514 H 0.06482 0.01495 0.76247 0.0
H515 H 0.12746 0.03544 0.75953 0.0
H516 H 0.86245 0.91911 0.90785 0.0
H517 H 0.92591 0.95974 0.90591 0.0
H518 H 0.94675 0.88317 0.92505 0.0
H519 H 0.88296 0.84208 0.92701 0.0
H520 H 0.9784 0.94973 0.93786 0.0
H521 H 0.00692 0.96464 0.88298 0.0
H522 H 0.96803 0.96701 0.88692 0.0
H523 H 0.96854 0.92664 0.89008 0.0
C524 C 0.88051 0.91058 0.91138 0.0
C525 C 0.8678 0.87756 0.91766 0.0
C526 C 0.91676 0.9337 0.91016 0.0
C527 C 0.94095 0.92425 0.9152 0.0
C528 C 0.92842 0.89072 0.92098 0.0
H529 H 0.15321 0.10922 0.90742 0.0
H530 H 0.11096 0.0457 0.90923 0.0
C531 C 0.89203 0.86734 0.92208 0.0
C532 C 0.97871 0.95148 0.91603 0.0
H533 H 0.04427 0.01597 0.89698 0.0
C534 C 0.99335 0.96363 0.92892 0.0
C535 C -0.00165 0.9692 0.90438 0.0
C536 C 0.98477 0.95595 0.89031 0.0
C537 C 0.02559 0.99519 0.93046 0.0
C538 C 0.04325 0.01499 0.91882 0.0
C539 C 0.03043 0.00092 0.90591 0.0
C540 C 0.07126 0.05245 0.91974 0.0
C541 C 0.0395 0.00806 0.94453 0.0
C542 C 0.06299 0.0771 0.92521 0.0
C543 C 0.08679 0.11323 0.92409 0.0
C544 C 0.11931 0.12535 0.91747 0.0
C545 C 0.12836 0.10062 0.91261 0.0
C546 C 0.10431 0.06437 0.91363 0.0
H547 H 0.03067 0.98557 0.9517 0.0
H548 H 0.06885 0.02382 0.94463 0.0
H549 H 0.02903 0.02507 0.94822 0.0
H550 H 0.03732 0.06845 0.92972 0.0
H551 H 0.07914 0.13166 0.92798 0.0
H552 H 0.03746 0.8815 0.08162 0.0
H553 H 0.06504 0.94635 0.08075 0.0
H554 H 0.96849 0.93832 0.09573 0.0
H555 H 0.94082 0.87431 0.09647 0.0
H556 H 0.03505 0.98473 0.06569 0.0
H557 H 0.04949 0.01391 0.12052 0.0
H558 H 0.04803 0.97496 0.11344 0.0
H559 H 0.00773 0.97567 0.11651 0.0
C560 C 0.02222 0.89367 0.08474 0.0
C561 C 0.98697 0.87282 0.0891 0.0
C562 C 0.03806 0.9306 0.0843 0.0
C563 C 0.01899 0.94694 0.08848 0.0
C564 C 0.98386 0.92614 0.09276 0.0
H565 H 0.94394 0.07101 0.0755 0.0
H566 H 0.97012 0.03335 0.07641 0.0
C567 C 0.96797 0.8895 0.09304 0.0
C568 C 0.03376 0.98549 0.0875 0.0
H569 H 0.03553 0.05158 0.10642 0.0
C570 C 0.03677 9e-05 0.07459 0.0
C571 C 0.03658 0.00565 0.09911 0.0
C572 C 0.03566 0.99186 0.11319 0.0
C573 C 0.0375 0.03235 0.07301 0.0
C574 C 0.03495 0.04991 0.08461 0.0
C575 C 0.03704 0.03778 0.09753 0.0
C576 C 0.02113 0.07447 0.08355 0.0
C577 C 0.03745 0.04569 0.05893 0.0
C578 C 0.04101 0.10993 0.0876 0.0
C579 C 0.02604 0.13181 0.08704 0.0
C580 C 0.99085 0.11814 0.08271 0.0
C581 C 0.97106 0.08242 0.07891 0.0
C582 C 0.98608 0.06089 0.07929 0.0
H583 H 0.0508 0.0368 0.05164 0.0
H584 H 0.0097 0.03494 0.05552 0.0
H585 H 0.05077 0.07502 0.05874 0.0
H586 H 0.06795 0.12059 0.09112 0.0
H587 H 0.04188 0.15923 0.09006 0.0
H588 H 0.15137 0.03591 0.24467 0.0
H589 H 0.11366 0.06302 0.24349 0.0
H590 H 0.03197 0.97456 0.26553 0.0
H591 H 0.06869 0.94736 0.26662 0.0
H592 H 0.04194 0.02718 0.23172 0.0
H593 H 0.04177 0.06377 0.28523 0.0
H594 H 0.07746 0.05959 0.27784 0.0
H595 H 0.03791 0.02101 0.28369 0.0
C596 C 0.12542 0.02245 0.24931 0.0
C597 C 0.11291 0.98946 0.25569 0.0
C598 C 0.10409 0.03802 0.24869 0.0
C599 C 0.07049 0.02113 0.25471 0.0
C600 C 0.05821 0.9884 0.26112 0.0
H601 H 0.86808 0.93823 0.24993 0.0
H602 H 0.93208 0.96477 0.25013 0.0
C603 C 0.07911 0.97269 0.26158 0.0
C604 C 0.0459 0.03487 0.25334 0.0
H605 H 0.98574 0.0425 0.27289 0.0
C606 C 0.03053 0.03222 0.24062 0.0
C607 C 0.03136 0.04186 0.26492 0.0
C608 C 0.04826 0.0471 0.27868 0.0
C609 C -0.00188 0.03138 0.2395 0.0
C610 C 0.98108 0.0332 0.25138 0.0
C611 C -0.00119 0.04075 0.26382 0.0
C612 C 0.94254 0.01859 0.25153 0.0
C613 C 0.98048 0.02481 0.22584 0.0
C614 C 0.92743 0.04024 0.25262 0.0
C615 C 0.89056 0.0251 0.25247 0.0
C616 C 0.8686 0.98817 0.25137 0.0
C617 C 0.88412 0.96673 0.25074 0.0
C618 C 0.92071 0.98183 0.25079 0.0
H619 H 0.00014 0.03351 0.21749 0.0
H620 H 0.96181 0.99605 0.22464 0.0
H621 H 0.96518 0.0388 0.22496 0.0
H622 H 0.94408 0.06869 0.25334 0.0
H623 H 0.87934 0.04228 0.25298 0.0
H624 H 0.69367 0.56012 0.42731 0.0
H625 H 0.63946 0.50457 0.43208 0.0
H626 H 0.65914 0.45618 0.39765 0.0
H627 H 0.71296 0.51218 0.39247 0.0
H628 H 0.58056 0.46199 0.40865 0.0
H629 H 0.64283 0.39437 0.43542 0.0
H630 H 0.66253 0.44194 0.43565 0.0
H631 H 0.66352 0.42015 0.42043 0.0
C632 C 0.6861 0.53805 0.42053 0.0
C633 C 0.70698 0.54086 0.40925 0.0
C634 C 0.65539 0.5062 0.4234 0.0
C635 C 0.64548 0.47658 0.41517 0.0
C636 C 0.66655 0.47894 0.40408 0.0
H637 H 0.47369 0.25969 0.4217 0.0
H638 H 0.52929 0.31383 0.41648 0.0
C639 C 0.69719 0.51085 0.40116 0.0
C640 C 0.61262 0.44332 0.41806 0.0
H641 H 0.58085 0.36267 0.43302 0.0
C642 C 0.58046 0.44019 0.41397 0.0
C643 C 0.61299 0.41511 0.42488 0.0
C644 C 0.64722 0.41776 0.42943 0.0
C645 C 0.54831 0.40922 0.41651 0.0
C646 C 0.54849 0.38119 0.42366 0.0
C647 C 0.58082 0.38428 0.42761 0.0
C648 C 0.51535 0.34847 0.42714 0.0
C649 C 0.51456 0.40659 0.4113 0.0
C650 C 0.48957 0.34999 0.43514 0.0
C651 C 0.45781 0.31923 0.43805 0.0
C652 C 0.45149 0.28644 0.43309 0.0
C653 C 0.47789 0.28474 0.42555 0.0
C654 C 0.50955 0.31557 0.42256 0.0
H655 H 0.51977 0.42546 0.40287 0.0
H656 H 0.49581 0.37943 0.40768 0.0
H657 H 0.50167 0.41311 0.41961 0.0
H658 H 0.49403 0.37499 0.43915 0.0
H659 H 0.43839 0.32108 0.44427 0.0
H660 H 0.18771 0.47886 0.61867 0.0
H661 H 0.1924 0.53572 0.6128 0.0
H662 H 0.14591 0.49409 0.57375 0.0
H663 H 0.1419 0.43769 0.57941 0.0
H664 H 0.20873 0.56399 0.57369 0.0
H665 H 0.10477 0.55047 0.60985 0.0
H666 H 0.1394 0.54412 0.61669 0.0
H667 H 0.10912 0.51322 0.60456 0.0
C668 C 0.1785 0.48193 0.60884 0.0
C669 C 0.16347 0.45363 0.59964 0.0
C670 C 0.18107 0.51426 0.60554 0.0
C671 C 0.16894 0.51874 0.59294 0.0
C672 C 0.155 0.49089 0.58358 0.0
H673 H 0.11599 0.67256 0.56442 0.0
H674 H 0.11789 0.61931 0.57058 0.0
C675 C 0.15228 0.45857 0.5869 0.0
C676 C 0.17045 0.55235 0.58949 0.0
H677 H 0.13411 0.60349 0.5973 0.0
C678 C 0.19258 0.5728 0.57887 0.0
C679 C 0.14902 0.56335 0.59622 0.0
C680 C 0.12399 0.54163 0.60741 0.0
C681 C 0.19385 0.60419 0.57478 0.0
C682 C 0.17258 0.6153 0.58157 0.0
C683 C 0.15047 0.59484 0.59219 0.0
C684 C 0.17209 0.64762 0.57757 0.0
C685 C 0.21725 0.62482 0.56305 0.0
C686 C 0.202 0.68105 0.57945 0.0
C687 C 0.20084 0.71154 0.57611 0.0
C688 C 0.16962 0.70902 0.57097 0.0
C689 C 0.13998 0.67543 0.56882 0.0
C690 C 0.14113 0.64498 0.57219 0.0
H691 H 0.22657 0.60919 0.55726 0.0
H692 H 0.20299 0.6333 0.55604 0.0
H693 H 0.24077 0.64895 0.56695 0.0
H694 H 0.22602 0.68355 0.58372 0.0
H695 H 0.2241 0.73711 0.57785 0.0
H696 H 0.43856 0.14864 0.76057 0.0
H697 H 0.49523 0.15249 0.76555 0.0
H698 H 0.53404 0.19785 0.7261 0.0
H699 H 0.47693 0.19318 0.72091 0.0
H700 H 0.54472 0.14062 0.7329 0.0
H701 H 0.59109 0.24215 0.77347 0.0
H702 H 0.54718 0.2055 0.77596 0.0
H703 H 0.5561 0.23476 0.76183 0.0
C704 C 0.45893 0.15895 0.75288 0.0
C705 C 0.45308 0.16984 0.74023 0.0
C706 C 0.4915 0.16169 0.75583 0.0
C707 C 0.51882 0.17568 0.74622 0.0
C708 C 0.51324 0.18706 0.73365 0.0
H709 H 0.73598 0.22469 0.7601 0.0
H710 H 0.68318 0.22791 0.75409 0.0
C711 C 0.48071 0.18444 0.73072 0.0
C712 C 0.55266 0.17694 0.74908 0.0
H713 H 0.62303 0.21145 0.77073 0.0
C714 C 0.562 0.15628 0.7411 0.0
C715 C 0.57522 0.19771 0.7597 0.0
C716 C 0.56715 0.22157 0.76817 0.0
C717 C 0.59293 0.15503 0.74373 0.0
C718 C 0.61476 0.17469 0.75468 0.0
C719 C 0.60598 0.19617 0.76241 0.0
C720 C 0.64656 0.17281 0.7584 0.0
C721 C 0.60207 0.13278 0.73474 0.0
C722 C 0.64325 0.14095 0.76306 0.0
C723 C 0.67326 0.13907 0.76655 0.0
C724 C 0.70711 0.169 0.76535 0.0
C725 C 0.71025 0.20112 0.761 0.0
C726 C 0.68019 0.203 0.75755 0.0
H727 H 0.58753 0.12638 0.72496 0.0
H728 H 0.6309 0.14652 0.73261 0.0
H729 H 0.59477 0.10754 0.73997 0.0
H730 H 0.61739 0.11762 0.76413 0.0
H731 H 0.66978 0.11437 0.77043 0.0
H732 H 0.2888 0.48036 0.8876 0.0
H733 H 0.34226 0.53632 0.89326 0.0
H734 H 0.34853 0.4929 0.93172 0.0
H735 H 0.29491 0.43735 0.92625 0.0
H736 H 0.35656 0.56372 0.93226 0.0
H737 H 0.4443 0.54884 0.89514 0.0
H738 H 0.40305 0.54281 0.88873 0.0
H739 H 0.40287 0.51188 0.90075 0.0
C740 C 0.30169 0.48282 0.89724 0.0
C741 C 0.28839 0.45427 0.90633 0.0
C742 C 0.33218 0.51463 0.90043 0.0
C743 C 0.34949 0.51836 0.9128 0.0
C744 C 0.33568 0.49026 0.92205 0.0
H745 H 0.55823 0.67238 0.93996 0.0
H746 H 0.50286 0.61885 0.9343 0.0
C747 C 0.30535 0.45842 0.91884 0.0
C748 C 0.38206 0.55159 0.91616 0.0
H749 H 0.46913 0.60203 0.90765 0.0
C750 C 0.38119 0.57224 0.92688 0.0
C751 C 0.41406 0.56222 0.90917 0.0
C752 C 0.41645 0.54026 0.89786 0.0
C753 C 0.41166 0.60355 0.93075 0.0
C754 C 0.44357 0.61436 0.92366 0.0
C755 C 0.44447 0.59361 0.91299 0.0
C756 C 0.47661 0.64682 0.92732 0.0
C757 C 0.40975 0.62452 0.94254 0.0
C758 C 0.48 0.68015 0.92525 0.0
C759 C 0.5118 0.7108 0.92829 0.0
C760 C 0.54074 0.70853 0.9333 0.0
C761 C 0.53693 0.67505 0.93563 0.0
C762 C 0.50519 0.64444 0.93255 0.0
H763 H 0.38513 0.60915 0.94854 0.0
H764 H 0.43288 0.63299 0.94934 0.0
H765 H 0.41032 0.64867 0.93867 0.0
H766 H 0.45826 0.68244 0.9211 0.0
H767 H 0.51397 0.73627 0.92643 0.0
H768 H 0.80954 0.29133 0.05513 0.0
H769 H 0.80877 0.34583 0.06044 0.0
H770 H 0.85718 0.35148 0.09914 0.0
H771 H 0.85742 0.29677 0.09401 0.0
H772 H 0.79536 0.36128 0.09922 0.0
H773 H 0.89964 0.44689 0.06228 0.0
H774 H 0.86422 0.40587 0.05582 0.0
H775 H 0.89414 0.40522 0.06813 0.0
C776 C 0.82006 0.30428 0.06475 0.0
C777 C 0.83441 0.29042 0.07401 0.0
C778 C 0.81975 0.33539 0.06774 0.0
C779 C 0.83347 0.35283 0.08007 0.0
C780 C 0.84691 0.33853 0.08949 0.0
H781 H 0.88664 0.56305 0.10556 0.0
H782 H 0.88613 0.50805 0.10042 0.0
C783 C 0.84743 0.30756 0.08648 0.0
C784 C 0.83352 0.38587 0.08323 0.0
H785 H 0.87073 0.47253 0.074 0.0
C786 C 0.81179 0.38564 0.09373 0.0
C787 C 0.85529 0.41751 0.07608 0.0
C788 C 0.8799 0.41921 0.065 0.0
C789 C 0.81095 0.41636 0.09719 0.0
C790 C 0.83226 0.44786 0.08989 0.0
C791 C 0.8543 0.44818 0.0795 0.0
C792 C 0.83233 0.48094 0.09298 0.0
C793 C 0.78768 0.41511 0.10873 0.0
C794 C 0.80227 0.48379 0.09042 0.0
C795 C 0.80267 0.51537 0.09315 0.0
C796 C 0.83326 0.54467 0.09835 0.0
C797 C 0.86316 0.5415 0.10107 0.0
C798 C 0.86278 0.50996 0.09829 0.0
H799 H 0.77845 0.39095 0.11502 0.0
H800 H 0.80201 0.43873 0.11533 0.0
H801 H 0.7641 0.41519 0.10457 0.0
H802 H 0.77863 0.46169 0.08621 0.0
H803 H 0.7792 0.51702 0.09099 0.0
H804 H 0.32227 0.88826 0.27226 0.0
H805 H 0.37581 0.88663 0.26639 0.0
H806 H 0.3124 0.7781 0.25369 0.0
H807 H 0.2585 0.77979 0.25908 0.0
H808 H 0.37437 0.79811 0.27294 0.0
H809 H 0.40554 0.87777 0.22563 0.0
H810 H 0.39379 0.89411 0.24034 0.0
H811 H 0.36134 0.85365 0.23256 0.0
C812 C 0.31958 0.86433 0.2679 0.0
C813 C 0.2861 0.8345 0.26573 0.0
C814 C 0.35022 0.86335 0.2647 0.0
C815 C 0.34783 0.83241 0.25945 0.0
C816 C 0.31459 0.80226 0.25765 0.0
H817 H 0.51365 0.80565 0.22272 0.0
H818 H 0.45765 0.8033 0.22809 0.0
C819 C 0.28393 0.80329 0.26075 0.0
C820 C 0.38016 0.83149 0.25595 0.0
H821 H 0.4479 0.86295 0.23318 0.0
C822 C 0.39047 0.81217 0.26424 0.0
C823 C 0.40067 0.84963 0.24452 0.0
C824 C 0.38984 0.86984 0.23515 0.0
C825 C 0.42143 0.81106 0.26152 0.0
C826 C 0.44248 0.82997 0.25028 0.0
C827 C 0.43171 0.84868 0.24183 0.0
C828 C 0.47601 0.83095 0.24717 0.0
C829 C 0.43128 0.78953 0.27061 0.0
C830 C 0.50471 0.84741 0.25611 0.0
C831 C 0.53661 0.84884 0.25306 0.0
C832 C 0.54037 0.83413 0.24096 0.0
C833 C 0.51147 0.81738 0.23208 0.0
C834 C 0.47959 0.81607 0.23511 0.0
H835 H 0.40845 0.7702 0.27677 0.0
H836 H 0.44144 0.77502 0.26457 0.0
H837 H 0.45254 0.80753 0.27764 0.0
H838 H 0.50244 0.85923 0.26543 0.0
H839 H 0.55799 0.86084 0.26031 0.0
H840 H 0.2193 0.01483 0.28331 0.0
H841 H 0.24465 0.05619 0.30207 0.0
H842 H 0.28589 0.99314 0.31912 0.0
H843 H 0.25994 0.95101 0.30038 0.0
H844 H 0.24456 0.00395 0.33686 0.0
H845 H 0.34127 0.13236 0.31432 0.0
H846 H 0.29941 0.11289 0.3058 0.0
H847 H 0.32512 0.09101 0.30538 0.0
C848 C 0.23458 0.01015 0.29083 0.0
C849 C 0.23733 0.97938 0.29037 0.0
C850 C 0.24932 0.03407 0.30154 0.0
C851 C 0.26744 0.028 0.31199 0.0
C852 C 0.27215 -0.00154 0.31114 0.0
H853 H 0.31446 0.12103 0.39357 0.0
H854 H 0.31558 0.09051 0.37289 0.0
C855 C 0.25744 0.97447 0.30038 0.0
C856 C 0.2769 0.04967 0.32456 0.0
H857 H 0.31781 0.13482 0.33619 0.0
C858 C 0.26116 0.03251 0.33677 0.0
C859 C 0.29828 0.08698 0.32442 0.0
C860 C 0.31726 0.10685 0.31179 0.0
C861 C 0.26487 0.05165 0.34868 0.0
C862 C 0.28541 0.08902 0.34845 0.0
C863 C 0.30199 0.10619 0.33634 0.0
C864 C 0.2885 0.1106 0.36056 0.0
C865 C 0.24537 0.03177 0.36125 0.0
C866 C 0.27422 0.13317 0.36035 0.0
C867 C 0.27395 0.15095 0.37212 0.0
C868 C 0.28809 0.14656 0.38425 0.0
C869 C 0.30364 0.12509 0.38431 0.0
C870 C 0.30399 0.10739 0.37255 0.0
H871 H 0.2247 0.00411 0.35895 0.0
H872 H 0.26443 0.03087 0.36845 0.0
H873 H 0.23267 0.04524 0.36636 0.0
H874 H 0.26221 0.1361 0.3512 0.0
H875 H 0.26187 0.16741 0.37184 0.0
H876 H 0.31183 0.26533 0.46727 0.0
H877 H 0.29706 0.29046 0.48671 0.0
H878 H 0.19349 0.25505 0.46993 0.0
H879 H 0.20814 0.23062 0.45043 0.0
H880 H 0.22155 0.32051 0.48316 0.0
H881 H 0.23023 0.21985 0.515 0.0
H882 H 0.26975 0.24975 0.50595 0.0
H883 H 0.23101 0.21879 0.49675 0.0
C884 C 0.28627 0.26376 0.46753 0.0
C885 C 0.26095 0.24537 0.45739 0.0
C886 C 0.27775 0.27786 0.47872 0.0
C887 C 0.24382 0.27376 0.47994 0.0
C888 C 0.21971 0.25823 0.46927 0.0
H889 H 0.09977 0.27697 0.53833 0.0
H890 H 0.13236 0.27832 0.51786 0.0
C891 C 0.22815 0.24418 0.45811 0.0
C892 C 0.23188 0.2823 0.49277 0.0
H893 H 0.21145 0.25553 0.52568 0.0
C894 C 0.21968 0.3066 0.4925 0.0
C895 C 0.22924 0.26396 0.50495 0.0
C896 C 0.24045 0.23641 0.50574 0.0
C897 C 0.20458 0.31276 0.50403 0.0
C898 C 0.20105 0.29366 0.51608 0.0
C899 C 0.21421 0.27018 0.51645 0.0
C900 C 0.18218 0.29604 0.52822 0.0
C901 C 0.19251 0.3396 0.50321 0.0
C902 C 0.19913 0.30505 0.54088 0.0
C903 C 0.18045 0.304 0.55255 0.0
C904 C 0.14448 0.29385 0.55177 0.0
C905 C 0.1276 0.28526 0.53912 0.0
C906 C 0.14627 0.28628 0.52743 0.0
H907 H 0.20651 0.35919 0.49502 0.0
H908 H 0.16379 0.3258 0.5009 0.0
H909 H 0.19691 0.35393 0.51295 0.0
H910 H 0.22667 0.31225 0.54176 0.0
H911 H 0.19385 0.31015 0.56225 0.0
H912 H 0.80322 0.14174 0.70959 0.0
H913 H 0.83046 0.16978 0.68779 0.0
H914 H 0.9323 0.19199 0.70281 0.0
H915 H 0.90541 0.16448 0.72448 0.0
H916 H 0.89506 0.24283 0.68167 0.0
H917 H 0.90922 0.1271 0.66791 0.0
H918 H 0.87858 0.12491 0.6807 0.0
H919 H 0.92488 0.14495 0.68453 0.0
C920 C 0.83146 0.15302 0.70822 0.0
C921 C 0.85218 0.15046 0.71857 0.0
C922 C 0.84696 0.16901 0.69583 0.0
C923 C 0.8833 0.18256 0.69367 0.0
C924 C 0.90416 0.18134 0.70423 0.0
H925 H 0.04202 0.30667 0.63526 0.0
H926 H -0.0008 0.28815 0.65377 0.0
C927 C 0.88876 0.16549 0.71656 0.0
C928 C 0.8995 0.196 0.6802 0.0
H929 H 0.94048 0.17853 0.65442 0.0
C930 C 0.90465 0.22867 0.67559 0.0
C931 C 0.9116 0.17726 0.67225 0.0
C932 C 0.9056 0.14145 0.6765 0.0
C933 C 0.92291 0.24373 0.66342 0.0
C934 C 0.93656 0.22574 0.65581 0.0
C935 C 0.93012 0.19244 0.66023 0.0
C936 C 0.95912 0.24119 0.64359 0.0
C937 C 0.92747 0.27874 0.65887 0.0
C938 C 0.95063 0.22154 0.63154 0.0
C939 C 0.97521 0.23188 0.62101 0.0
C940 C 0.00888 0.26212 0.62229 0.0
C941 C 0.01626 0.28339 0.6339 0.0
C942 C 0.9917 0.27284 0.6445 0.0
H943 H 0.9066 0.28335 0.66318 0.0
H944 H 0.95344 0.30034 0.66245 0.0
H945 H 0.92679 0.28022 0.64765 0.0
H946 H 0.92567 0.19706 0.63058 0.0
H947 H 0.96857 0.21502 0.61217 0.0
H948 H 0.76297 0.98178 0.78238 0.0
H949 H 0.73592 0.94026 0.801 0.0
H950 H 0.7007 0.00766 0.81868 0.0
H951 H 0.72842 0.04996 0.8001 0.0
H952 H 0.74032 0.9937 0.83604 0.0
H953 H 0.63823 0.8677 0.8136 0.0
H954 H 0.67962 0.88516 0.80485 0.0
H955 H 0.65616 0.90935 0.80472 0.0
C956 C 0.74866 0.98743 0.79001 0.0
C957 C 0.74819 0.01944 0.78979 0.0
C958 C 0.73291 0.96341 0.80064 0.0
C959 C 0.71602 0.97063 0.81123 0.0
C960 C 0.71346 0.00145 0.81059 0.0
H961 H 0.6713 0.87704 0.8928 0.0
H962 H 0.66875 0.9077 0.87238 0.0
C963 C 0.7292 0.02555 0.79992 0.0
C964 C 0.70589 0.94874 0.82375 0.0
H965 H 0.66199 0.86341 0.83521 0.0
C966 C 0.72259 0.9653 0.83592 0.0
C967 C 0.68301 0.91164 0.82357 0.0
C968 C 0.66297 0.89249 0.811 0.0
C969 C 0.71847 0.94568 0.84773 0.0
C970 C 0.69651 0.90845 0.84745 0.0
C971 C 0.67887 0.89194 0.8354 0.0
C972 C 0.69337 0.88628 0.85937 0.0
C973 C 0.73913 0.96483 0.86023 0.0
C974 C 0.70656 0.86283 0.85869 0.0
C975 C 0.70761 0.84498 0.87031 0.0
C976 C 0.69536 0.8502 0.88276 0.0
C977 C 0.68062 0.87235 0.88329 0.0
C978 C 0.67947 0.89011 0.87167 0.0
H979 H 0.76041 0.99222 0.85792 0.0
H980 H 0.72096 0.96638 0.8677 0.0
H981 H 0.75125 0.95039 0.86501 0.0
H982 H 0.71736 0.85943 0.8493 0.0
H983 H 0.71912 0.82805 0.86968 0.0
H984 H 0.78935 0.77457 0.94647 0.0
H985 H 0.80826 0.7519 0.96532 0.0
H986 H 0.70709 0.71404 0.98464 0.0
H987 H 0.68772 0.73662 0.96571 0.0
H988 H 0.81042 0.78014 0.99154 0.0
H989 H 0.73018 0.63328 0.99124 0.0
H990 H 0.73647 0.65965 0.97627 0.0
H991 H 0.70637 0.6568 0.98924 0.0
C992 C 0.77066 0.76058 0.95452 0.0
C993 C 0.7371 0.75777 0.95462 0.0
C994 C 0.78157 0.74762 0.96531 0.0
C995 C 0.75914 0.73132 0.97639 0.0
C996 C 0.72468 0.72613 0.97611 0.0
H997 H 0.79832 0.68408 0.05816 0.0
H998 H 0.77088 0.68609 0.03669 0.0
C999 C 0.71366 0.73909 0.96527 0.0
C1000 C 0.7737 0.72459 0.98892 0.0
H1001 H 0.76698 0.66001 0.01036 0.0
C1002 C 0.80106 0.75384 0.99561 0.0
C1003 C 0.76109 0.69034 0.99431 0.0
C1004 C 0.73206 0.65808 0.98739 0.0
C1005 C 0.81608 0.74989 0.00757 0.0
C1006 C 0.80409 0.71558 0.01284 0.0
C1007 C 0.77639 0.68626 0.00624 0.0
C1008 C 0.81981 0.71006 0.02532 0.0
C1009 C 0.84406 0.7827 0.01464 0.0
C1010 C 0.85618 0.72168 0.02594 0.0
C1011 C 0.87182 0.72069 0.03817 0.0
C1012 C 0.85128 0.70754 0.04993 0.0
C1013 C 0.81461 0.69406 0.04916 0.0
C1014 C 0.79897 0.69527 0.03694 0.0
H1015 H 0.84319 0.80667 0.01146 0.0
H1016 H 0.84091 0.78005 0.02581 0.0
H1017 H 0.87057 0.78681 0.01202 0.0
H1018 H 0.87267 0.73255 0.01704 0.0
H1019 H 0.90015 0.73117 0.03856 0.0
H1020 H 0.94998 0.68535 0.13172 0.0
H1021 H 0.99117 0.7006 0.15076 0.0
H1022 H 0.04918 0.80851 0.13675 0.0
H1023 H 0.009 0.79347 0.11761 0.0
H1024 H 0.09315 0.78643 0.14758 0.0
H1025 H 0.98051 0.75498 0.18217 0.0
H1026 H 0.97545 0.71907 0.17173 0.0
H1027 H 0.97699 0.75715 0.16404 0.0
C1028 C 0.97203 0.71211 0.13249 0.0
C1029 C 0.97577 0.7383 0.12324 0.0
C1030 C 0.99537 0.72087 0.14347 0.0
C1031 C 0.02266 0.75594 0.1454 0.0
C1032 C 0.02814 0.78136 0.13556 0.0
H1033 H 0.16049 0.89868 0.20601 0.0
H1034 H 0.13104 0.86797 0.18501 0.0
C1035 C 0.00501 0.77266 0.12461 0.0
C1036 C 0.0437 0.76729 0.15812 0.0
H1037 H 0.03657 0.77802 0.19205 0.0
C1038 C 0.08077 0.78426 0.15733 0.0
C1039 C 0.02755 0.76467 0.17085 0.0
C1040 C 0.98798 0.74827 0.17232 0.0
C1041 C 0.10209 0.79909 0.16886 0.0
C1042 C 0.08594 0.79728 0.18149 0.0
C1043 C 0.04889 0.77932 0.18236 0.0
C1044 C 0.10673 0.81551 0.19378 0.0
C1045 C 0.14172 0.81672 0.16742 0.0
C1046 C 0.10266 0.79634 0.20572 0.0
C1047 C 0.11934 0.81388 0.2177 0.0
C1048 C 0.14021 0.85092 0.21797 0.0
C1049 C 0.14479 0.87007 0.20599 0.0
C1050 C 0.12817 0.85253 0.194 0.0
H1051 H 0.14933 0.807 0.15834 0.0
H1052 H 0.15283 0.84565 0.16625 0.0
H1053 H 0.15386 0.81212 0.17651 0.0
H1054 H 0.08594 0.76783 0.20584 0.0
H1055 H 0.11492 0.79859 0.22688 0.0
H1056 H 0.98436 0.77006 0.55887 0.0
H1057 H 0.94207 0.74725 0.54025 0.0
H1058 H 0.00798 0.71511 0.51925 0.0
H1059 H 0.05066 0.73788 0.53793 0.0
H1060 H 0.96634 0.77814 0.5142 0.0
H1061 H 0.9054 0.6318 0.51268 0.0
H1062 H 0.92523 0.65732 0.52784 0.0
H1063 H 0.95275 0.65687 0.51444 0.0
C1064 C 0.98951 0.75727 0.55049 0.0
C1065 C 0.02116 0.75617 0.54985 0.0
C1066 C 0.96523 0.74423 0.53984 0.0
C1067 C 0.97186 0.72954 0.52836 0.0
C1068 C 0.0021 0.72595 0.52809 0.0
H1069 H 0.88304 0.68498 0.44704 0.0
H1070 H 0.91396 0.6873 0.46814 0.0
C1071 C 0.0265 0.739 0.53879 0.0
C1072 C 0.94991 0.7229 0.51603 0.0
H1073 H 0.8932 0.65883 0.49419 0.0
C1074 C 0.95016 0.75201 0.50987 0.0
C1075 C 0.92927 0.6889 0.51031 0.0
C1076 C 0.92779 0.65678 0.51667 0.0
C1077 C 0.93056 0.74816 0.49811 0.0
C1078 C 0.90926 0.71405 0.4925 0.0
C1079 C 0.90925 0.6849 0.49857 0.0
C1080 C 0.8875 0.70859 0.48019 0.0
C1081 C 0.93364 0.78089 0.49159 0.0
C1082 C 0.86154 0.71866 0.48005 0.0
C1083 C 0.84405 0.71749 0.46802 0.0
C1084 C 0.85181 0.70566 0.45598 0.0
C1085 C 0.87642 0.69387 0.45625 0.0
C1086 C 0.8941 0.69526 0.46827 0.0
H1087 H 0.95795 0.80523 0.49489 0.0
H1088 H 0.93399 0.77923 0.48037 0.0
H1089 H 0.91056 0.78353 0.49456 0.0
H1090 H 0.85553 0.7284 0.48917 0.0
H1091 H 0.82516 0.72671 0.46801 0.0
H1092 H 0.20621 0.87966 0.61123 0.0
H1093 H 0.23873 0.90935 0.63191 0.0
H1094 H 0.14244 0.85322 0.65509 0.0
H1095 H 0.11005 0.82321 0.63442 0.0
H1096 H 0.22311 0.95296 0.64725 0.0
H1097 H 0.21445 0.84436 0.67905 0.0
H1098 H 0.20669 0.83996 0.66099 0.0
H1099 H 0.17257 0.83564 0.67237 0.0
C1100 C 0.19229 0.87301 0.62082 0.0
C1101 C 0.15577 0.84897 0.62132 0.0
C1102 C 0.2108 0.89005 0.6326 0.0
C1103 C 0.19315 0.88315 0.64509 0.0
C1104 C 0.1568 0.85837 0.64564 0.0
H1105 H 0.21366 0.97434 0.72233 0.0
H1106 H 0.20133 0.93509 0.70306 0.0
C1107 C 0.13827 0.8414 0.63384 0.0
C1108 C 0.21172 0.90458 0.65721 0.0
H1109 H 0.22981 0.89868 0.69048 0.0
C1110 C 0.22518 0.94123 0.65664 0.0
C1111 C 0.21424 0.88916 0.66946 0.0
C1112 C 0.20152 0.85015 0.67052 0.0
C1113 C 0.23941 0.96266 0.66815 0.0
C1114 C 0.24109 0.94714 0.68053 0.0
C1115 C 0.22872 0.91061 0.68099 0.0
C1116 C 0.25191 0.96777 0.69335 0.0
C1117 C 0.25058 0.00138 0.6671 0.0
C1118 C 0.2853 -0.00172 0.69474 0.0
C1119 C 0.29243 0.0211 0.70577 0.0
C1120 C 0.26632 0.01361 0.71563 0.0
C1121 C 0.23425 0.98126 0.71485 0.0
C1122 C 0.22713 0.95866 0.70382 0.0
H1123 H 0.2407 0.00742 0.65768 0.0
H1124 H 0.24075 0.00982 0.6759 0.0
H1125 H 0.27988 0.01737 0.66703 0.0
H1126 H 0.30519 0.00536 0.68695 0.0
H1127 H 0.3175 0.04561 0.70609 0.0
H1128 H 0.23466 0.21308 0.89259 0.0
H1129 H 0.25805 0.19375 0.87408 0.0
H1130 H 0.27628 0.28466 0.85058 0.0
H1131 H 0.25368 0.30463 0.86923 0.0
H1132 H 0.2242 0.17463 0.85055 0.0
H1133 H 0.36279 0.27824 0.8408 0.0
H1134 H 0.34011 0.27618 0.85638 0.0
H1135 H 0.33324 0.29561 0.84143 0.0
C1136 C 0.2447 0.22958 0.88365 0.0
C1137 C 0.24207 0.26027 0.88235 0.0
C1138 C 0.25804 0.21846 0.87306 0.0
C1139 C 0.26896 0.23768 0.8609 0.0
C1140 C 0.26868 0.26967 0.85993 0.0
H1141 H 0.24192 0.1518 0.78097 0.0
H1142 H 0.24165 0.1802 0.80229 0.0
C1143 C 0.25564 0.28105 0.87061 0.0
C1144 C 0.27538 0.22157 0.84872 0.0
H1145 H 0.33307 0.23671 0.82272 0.0
C1146 C 0.24826 0.18809 0.8446 0.0
C1147 C 0.30678 0.23894 0.84093 0.0
C1148 C 0.33754 0.27408 0.84518 0.0
C1149 C 0.25115 0.17203 0.83275 0.0
C1150 C 0.28174 0.19013 0.82461 0.0
C1151 C 0.30948 0.22305 0.82891 0.0
C1152 C 0.28432 0.17561 0.81134 0.0
C1153 C 0.22124 0.13582 0.82898 0.0
C1154 C 0.30919 0.16462 0.80918 0.0
C1155 C 0.30927 0.14818 0.79698 0.0
C1156 C 0.28449 0.14259 0.7868 0.0
C1157 C 0.26069 0.15499 0.78879 0.0
C1158 C 0.26062 0.17134 0.80093 0.0
H1159 H 0.20436 0.12182 0.83786 0.0
H1160 H 0.20434 0.13862 0.82125 0.0
H1161 H 0.23149 0.11925 0.82461 0.0
H1162 H 0.32782 0.16784 0.81707 0.0
H1163 H 0.32803 0.13907 0.79561 0.0
H1164 H 0.01599 0.22675 0.05572 0.0
H1165 H 0.05691 0.2527 0.03682 0.0
H1166 H 0.99093 0.29038 0.01969 0.0
H1167 H 0.94938 0.26401 0.03857 0.0
H1168 H 0.00292 0.24842 1.00227 0.0
H1169 H 0.13036 0.3506 0.02388 0.0
H1170 H 0.11213 0.30938 0.03282 0.0
H1171 H 0.08895 0.33381 0.03284 0.0
C1172 C 0.01059 0.24141 0.04815 0.0
C1173 C 0.9792 0.24304 0.04863 0.0
C1174 C 0.03422 0.25647 0.03736 0.0
C1175 C 0.02717 0.27372 0.02686 0.0
C1176 C 0.99699 0.27734 0.02772 0.0
H1177 H 0.11596 0.31674 0.94458 0.0
H1178 H 0.08543 0.31816 0.96522 0.0
C1179 C 0.97333 0.26236 0.03856 0.0
C1180 C 0.04848 0.28324 0.01421 0.0
H1181 H 0.13319 0.32706 1.00213 0.0
C1182 C 0.03132 0.26616 1.00217 0.0
C1183 C 0.08557 0.30608 0.01413 0.0
C1184 C 0.1053 0.32628 0.02659 0.0
C1185 C 0.05035 0.26999 0.99022 0.0
C1186 C 0.08758 0.29217 0.99021 0.0
C1187 C 0.10468 0.31006 1.00215 0.0
C1188 C 0.10919 0.29553 0.97807 0.0
C1189 C 0.03056 0.24886 0.9779 0.0
C1190 C 0.13388 0.28385 0.97857 0.0
C1191 C 0.15175 0.28357 0.96683 0.0
C1192 C 0.14531 0.29509 0.95444 0.0
C1193 C 0.12165 0.30806 0.95406 0.0
C1194 C 0.10393 0.30852 0.9658 0.0
H1195 H 0.00365 0.22706 0.9805 0.0
H1196 H 0.02767 0.26653 0.97057 0.0
H1197 H 0.0452 0.23735 0.97282 0.0
H1198 H 0.1384 0.27376 0.98793 0.0
H1199 H 0.16984 0.27339 0.96734 0.0
H1200 H 0.78876 0.01389 0.22448 0.0
H1201 H 0.8077 0.05544 0.20561 0.0
H1202 H 0.7076 0.99055 0.18575 0.0
H1203 H 0.68818 0.94878 0.20474 0.0
H1204 H 0.81311 0.03198 0.17989 0.0
H1205 H 0.72689 0.09194 0.17866 0.0
H1206 H 0.73215 0.07127 0.19366 0.0
H1207 H 0.7043 0.04455 0.18006 0.0
C1208 C 0.77031 0.00887 0.21629 0.0
C1209 C 0.73702 0.9778 0.21608 0.0
C1210 C 0.78123 0.03269 0.20549 0.0
C1211 C 0.75912 0.02615 0.19426 0.0
C1212 C 0.72493 0.99643 0.1944 0.0
H1213 H 0.80051 0.11147 0.11232 0.0
H1214 H 0.77253 0.08093 0.13356 0.0
C1215 C 0.71387 0.97253 0.20527 0.0
C1216 C 0.77378 0.04772 0.18179 0.0
H1217 H 0.7647 0.10306 0.15972 0.0
C1218 C 0.80266 0.04772 0.17554 0.0
C1219 C 0.75981 0.06783 0.17603 0.0
C1220 C 0.72924 0.06925 0.18247 0.0
C1221 C 0.81787 0.06704 0.16366 0.0
C1222 C 0.80438 0.0877 0.158 0.0
C1223 C 0.7752 0.08746 0.16414 0.0
C1224 C 0.82012 0.10916 0.14558 0.0
C1225 C 0.84773 0.06442 0.1571 0.0
C1226 C 0.85583 0.13594 0.14538 0.0
C1227 C 0.87177 0.15327 0.13328 0.0
C1228 C 0.85215 0.14447 0.12123 0.0
C1229 C 0.81603 0.11893 0.12154 0.0
C1230 C 0.8001 0.10147 0.13364 0.0
H1231 H 0.84858 0.04065 0.16058 0.0
H1232 H 0.84525 0.0634 0.14589 0.0
H1233 H 0.87327 0.08806 0.15984 0.0
H1234 H 0.87164 0.14272 0.15451 0.0
H1235 H 0.89968 0.17286 0.13324 0.0
H1236 H 0.73117 0.68242 0.37359 0.0
H1237 H 0.70473 0.69728 0.3546 0.0
H1238 H 0.74859 0.80351 0.36991 0.0
H1239 H 0.77432 0.78884 0.38898 0.0
H1240 H 0.68176 0.7781 0.35864 0.0
H1241 H 0.77053 0.75743 0.32406 0.0
H1242 H 0.7408 0.71979 0.33405 0.0
H1243 H 0.77527 0.7585 0.34223 0.0
C1244 C 0.73444 0.70868 0.3731 0.0
C1245 C 0.75537 0.73458 0.38271 0.0
C1246 C 0.71957 0.71722 0.36217 0.0
C1247 C 0.72549 0.75179 0.36064 0.0
C1248 C 0.74392 0.77677 0.3708 0.0
H1249 H 0.72242 0.89462 0.30182 0.0
H1250 H 0.7218 0.86296 0.32246 0.0
C1251 C 0.75869 0.76829 0.38171 0.0
C1252 C 0.71542 0.7632 0.34802 0.0
H1253 H 0.73532 0.77812 0.31432 0.0
C1254 C 0.69316 0.77777 0.34891 0.0
C1255 C 0.73046 0.76295 0.33533 0.0
C1256 C 0.75582 0.74912 0.3338 0.0
C1257 C 0.68591 0.79248 0.33752 0.0
C1258 C 0.70178 0.79312 0.32495 0.0
C1259 C 0.72311 0.77755 0.32396 0.0
C1260 C 0.69849 0.81156 0.31284 0.0
C1261 C 0.66143 0.8073 0.33907 0.0
C1262 C 0.68589 0.79334 0.30053 0.0
C1263 C 0.68645 0.81147 0.28875 0.0
C1264 C 0.69974 0.84814 0.28906 0.0
C1265 C 0.71167 0.86626 0.3014 0.0
C1266 C 0.71111 0.84815 0.31319 0.0
H1267 H 0.64339 0.79535 0.34786 0.0
H1268 H 0.67739 0.83623 0.34083 0.0
H1269 H 0.64531 0.80276 0.32979 0.0
H1270 H 0.67641 0.76522 0.29998 0.0
H1271 H 0.6777 0.79704 0.2793 0.0
H1272 H 0.19746 0.06718 0.4572 0.0
H1273 H 0.18757 0.02517 0.4753 0.0
H1274 H 0.30011 0.07393 0.4816 0.0
H1275 H 0.3104 0.11658 0.46361 0.0
H1276 H 0.21114 0.97659 0.4793 0.0
H1277 H 0.26201 0.08165 0.5188 0.0
H1278 H 0.25185 0.08907 0.50182 0.0
H1279 H 0.29176 0.08797 0.50511 0.0
C1280 C 0.22019 0.06885 0.46232 0.0
C1281 C 0.25471 0.09555 0.45906 0.0
C1282 C 0.21447 0.04476 0.47266 0.0
C1283 C 0.24308 0.04689 0.47992 0.0
C1284 C 0.27766 0.07233 0.47627 0.0
H1285 H 0.19906 0.88196 0.54049 0.0
H1286 H 0.22867 0.92479 0.52226 0.0
C1287 C 0.28345 0.09655 0.46594 0.0
C1288 C 0.23623 0.02336 0.49168 0.0
H1289 H 0.24007 0.02318 0.52622 0.0
C1290 C 0.21782 0.98669 0.48956 0.0
C1291 C 0.24478 0.0368 0.50503 0.0
C1292 C 0.26345 0.07599 0.50792 0.0
C1293 C 0.20674 0.96297 0.50048 0.0
C1294 C 0.21486 0.97642 0.51384 0.0
C1295 C 0.23419 0.01308 0.51594 0.0
C1296 C 0.20035 0.95296 0.52576 0.0
C1297 C 0.18492 0.92382 0.49766 0.0
C1298 C 0.17585 0.95569 0.53412 0.0
C1299 C 0.15907 0.93151 0.54458 0.0
C1300 C 0.16652 0.9041 0.54689 0.0
C1301 C 0.19246 0.90255 0.53892 0.0
C1302 C 0.2093 0.92686 0.52846 0.0
H1303 H 0.17545 0.9183 0.48701 0.0
H1304 H 0.20127 0.9113 0.49951 0.0
H1305 H 0.16164 0.91117 0.5045 0.0
H1306 H 0.16873 0.9758 0.53222 0.0
H1307 H 0.13941 0.93364 0.55056 0.0
H1308 H 0.18373 0.30649 0.633 0.0
H1309 H 0.21439 0.29236 0.6505 0.0
H1310 H 0.1539 0.18197 0.6398 0.0
H1311 H 0.12332 0.19573 0.62222 0.0
H1312 H 0.18179 0.24789 0.67251 0.0
H1313 H 0.25536 0.19992 0.64168 0.0
H1314 H 0.23717 0.22559 0.63459 0.0
H1315 H 0.20925 0.17889 0.63742 0.0
C1316 C 0.17727 0.27924 0.63423 0.0
C1317 C 0.151 0.25222 0.6262 0.0
C1318 C 0.19481 0.27126 0.64424 0.0
C1319 C 0.18669 0.23621 0.64633 0.0
C1320 C 0.16105 0.20929 0.63817 0.0
H1321 H 0.19418 0.12347 0.71514 0.0
H1322 H 0.18048 0.15382 0.69746 0.0
C1323 C 0.14344 0.2172 0.62818 0.0
C1324 C 0.20292 0.22723 0.65767 0.0
H1325 H 0.24782 0.18407 0.66522 0.0
C1326 C 0.19667 0.23438 0.67093 0.0
C1327 C 0.22269 0.21005 0.65556 0.0
C1328 C 0.23185 0.20346 0.64154 0.0
C1329 C 0.20821 0.22323 0.68217 0.0
C1330 C 0.22603 0.20408 0.68005 0.0
C1331 C 0.23382 0.19848 0.6668 0.0
C1332 C 0.23493 0.18775 0.69139 0.0
C1333 C 0.20088 0.23168 0.6962 0.0
C1334 C 0.27008 0.19658 0.69374 0.0
C1335 C 0.27806 0.17918 0.70383 0.0
C1336 C 0.2509 0.15236 0.71164 0.0
C1337 C 0.21576 0.14403 0.70936 0.0
C1338 C 0.20786 0.1615 0.69931 0.0
H1339 H 0.19679 0.25484 0.69612 0.0
H1340 H 0.17641 0.20865 0.70017 0.0
H1341 H 0.22291 0.23719 0.70324 0.0
H1342 H 0.29129 0.21665 0.68767 0.0
H1343 H 0.3054 0.18622 0.7053 0.0
H1344 H 0.87502 0.19508 0.80037 0.0
H1345 H 0.91851 0.2267 0.81821 0.0
H1346 H 0.97237 0.16956 0.80814 0.0
H1347 H 0.92947 0.13816 0.79026 0.0
H1348 H 0.93048 0.19542 0.8404 0.0
H1349 H 0.05358 0.27138 0.81078 0.0
H1350 H 0.01019 0.25217 0.8032 0.0
H1351 H 0.03022 0.22541 0.80627 0.0
C1352 C 0.89644 0.18963 0.8018 0.0
C1353 C 0.89871 0.16402 0.79389 0.0
C1354 C 0.92122 0.20771 0.81201 0.0
C1355 C 0.94887 0.20078 0.81437 0.0
C1356 C 0.95166 0.17586 0.8063 0.0
H1357 H 0.06311 0.20181 0.88349 0.0
H1358 H 0.01949 0.19111 0.86598 0.0
C1359 C 0.92693 0.15774 0.79613 0.0
C1360 C 0.9732 0.21725 0.82595 0.0
H1361 H 0.06072 0.26146 0.8343 0.0
C1362 C 0.95895 0.21041 0.83908 0.0
C1363 C 0.01027 0.23725 0.8242 0.0
C1364 C 0.02697 0.24732 0.81034 0.0
C1365 C 0.98093 0.22124 0.85053 0.0
C1366 C 0.01802 0.23884 0.84876 0.0
C1367 C 0.03224 0.24757 0.83564 0.0
C1368 C 0.0425 0.24613 0.86024 0.0
C1369 C 0.96422 0.21321 0.8644 0.0
C1370 C 0.07009 0.28061 0.86277 0.0
C1371 C 0.09529 0.28684 0.87274 0.0
C1372 C 0.0935 0.25859 0.88028 0.0
C1373 C 0.06527 0.22419 0.87792 0.0
C1374 C 0.04012 0.21803 0.86797 0.0
H1375 H 0.9375 0.21045 0.86414 0.0
H1376 H 0.9612 0.1878 0.86805 0.0
H1377 H 0.98085 0.23422 0.87178 0.0
H1378 H 0.07249 0.30261 0.85686 0.0
H1379 H 0.11667 0.31367 0.87428 0.0
H1380 H 0.82069 0.13013 0.03349 0.0
H1381 H 0.79241 0.08733 0.0152 0.0
H1382 H 0.80902 0.01141 0.03722 0.0
H1383 H 0.83886 0.05474 0.05521 0.0
H1384 H 0.83303 0.01807 0.01288 0.0
H1385 H 0.69886 0.00091 0.00925 0.0
H1386 H 0.73257 0.04649 0.00794 0.0
H1387 H 0.7277 0.02269 0.02344 0.0
C1388 C 0.81761 0.10404 0.03455 0.0
C1389 C 0.83213 0.09578 0.04571 0.0
C1390 C 0.80121 0.07949 0.02412 0.0
C1391 C 0.79821 0.04597 0.02488 0.0
C1392 C 0.81106 0.03712 0.0364 0.0
H1393 H 0.69001 0.8712 0.96887 0.0
H1394 H 0.70521 0.91387 0.98726 0.0
C1395 C 0.82808 0.06186 0.04667 0.0
C1396 C 0.78553 0.02164 0.01309 0.0
H1397 H 0.71817 0.98056 0.99027 0.0
C1398 C 0.80774 0.00966 0.00803 0.0
C1399 C 0.75247 0.01046 0.00679 0.0
C1400 C 0.72639 0.02052 0.01223 0.0
C1401 C 0.79799 0.98697 0.99685 0.0
C1402 C 0.7657 0.9771 0.99015 0.0
C1403 C 0.74321 0.98871 0.99527 0.0
C1404 C 0.75435 0.95348 0.97819 0.0
C1405 C 0.82206 0.9731 0.9926 0.0
C1406 C 0.77618 0.96221 0.96672 0.0
C1407 C 0.76792 0.93764 0.95632 0.0
C1408 C 0.73718 0.90427 0.95705 0.0
C1409 C 0.71396 0.89667 0.96804 0.0
C1410 C 0.72258 0.92103 0.97855 0.0
H1411 H 0.83984 0.97478 1.00098 0.0
H1412 H 0.80664 0.94514 0.98923 0.0
H1413 H 0.83894 0.98927 0.98407 0.0
H1414 H 0.80029 0.98757 0.96604 0.0
H1415 H 0.78603 0.94445 0.94787 0.0
H1416 H 0.83506 0.78396 0.11778 0.0
H1417 H 0.80581 0.79573 0.13651 0.0
H1418 H 0.78557 0.69885 0.15594 0.0
H1419 H 0.81366 0.6862 0.13697 0.0
H1420 H 0.73115 0.71225 0.15984 0.0
H1421 H 0.86006 0.8308 0.17166 0.0
H1422 H 0.84515 0.83197 0.15485 0.0
H1423 H 0.85566 0.79831 0.15938 0.0
C1424 C 0.82385 0.76487 0.12593 0.0
C1425 C 0.82714 0.73446 0.12603 0.0
C1426 C 0.8073 0.77169 0.13664 0.0
C1427 C 0.79452 0.74868 0.14778 0.0
C1428 C 0.79556 0.71709 0.14748 0.0
H1429 H 0.77814 0.83268 0.22518 0.0
H1430 H 0.79087 0.80096 0.20772 0.0
C1431 C 0.81162 0.70993 0.13664 0.0
C1432 C 0.78271 0.75899 0.16015 0.0
H1433 H 0.81015 0.82487 0.18355 0.0
C1434 C 0.74841 0.73675 0.16511 0.0
C1435 C 0.80565 0.79047 0.1672 0.0
C1436 C 0.84379 0.81406 0.1631 0.0
C1437 C 0.73605 0.74579 0.17673 0.0
C1438 C 0.75837 0.77832 0.1833 0.0
C1439 C 0.79293 0.80001 0.1785 0.0
C1440 C 0.74661 0.7914 0.19493 0.0
C1441 C 0.6995 0.72017 0.18191 0.0
C1442 C 0.71688 0.79565 0.19377 0.0
C1443 C 0.70916 0.81316 0.20388 0.0
C1444 C 0.73161 0.82754 0.21514 0.0
C1445 C 0.76054 0.82208 0.21655 0.0
C1446 C 0.7678 0.80394 0.20659 0.0
H1447 H 0.69125 0.69258 0.17891 0.0
H1448 H 0.69808 0.72132 0.19312 0.0
H1449 H 0.68028 0.7269 0.17744 0.0
H1450 H 0.70067 0.78711 0.18473 0.0
H1451 H 0.68684 0.81725 0.20248 0.0
H1452 H 0.93252 0.78894 0.38302 0.0
H1453 H 0.97406 0.79745 0.36497 0.0
H1454 H 0.92016 0.68496 0.35783 0.0
H1455 H 0.8778 0.67608 0.3758 0.0
H1456 H 0.01987 0.77113 0.36045 0.0
H1457 H 0.91459 0.72609 0.32109 0.0
H1458 H 0.90776 0.73574 0.33823 0.0
H1459 H 0.90774 0.69547 0.33451 0.0
C1460 C 0.92958 0.76589 0.37773 0.0
C1461 C 0.90151 0.73186 0.38074 0.0
C1462 C 0.95345 0.77082 0.36743 0.0
C1463 C 0.9498 0.7419 0.35994 0.0
C1464 C 0.92299 0.70767 0.36335 0.0
H1465 H 0.11478 0.79727 0.29778 0.0
H1466 H 0.07263 0.76285 0.31566 0.0
C1467 C 0.89894 0.70267 0.37366 0.0
C1468 C 0.97301 0.74842 0.34809 0.0
H1469 H 0.97296 0.74966 0.31353 0.0
C1470 C 0.0097 0.76591 0.35017 0.0
C1471 C 0.95947 0.74172 0.33473 0.0
C1472 C 0.92028 0.72395 0.33191 0.0
C1473 C 0.03336 0.7785 0.33924 0.0
C1474 C 0.01982 0.77281 0.32588 0.0
C1475 C 0.98313 0.75376 0.32379 0.0
C1476 C 0.04304 0.79035 0.31412 0.0
C1477 C 0.07255 0.79971 0.34209 0.0
C1478 C 0.03938 0.81611 0.30698 0.0
C1479 C 0.06314 0.83559 0.29672 0.0
C1480 C 0.0911 0.8297 0.29341 0.0
C1481 C 0.09374 0.80271 0.30017 0.0
C1482 C 0.0698 0.7831 0.31042 0.0
H1483 H 0.07821 0.80675 0.35298 0.0
H1484 H 0.08509 0.78396 0.33919 0.0
H1485 H 0.08507 0.82445 0.33603 0.0
H1486 H 0.01881 0.82201 0.30967 0.0
H1487 H 0.06017 0.85601 0.29169 0.0
loop_
_geom_bond_atom_site_label_1
_geom_bond_atom_site_label_2
_geom_bond_distance
_geom_bond_site_symmetry_2
_ccdc_geom_bond_type
Co0 O3 1.970 . S
Co0 N17 1.989 . S
Co0 O25 1.967 . S
Co0 O32 1.920 . S
Co1 O4 1.966 . S
Co1 N10 2.022 . S
Co1 N18 1.993 . S
Co1 O26 1.941 . S
C2 O3 1.258 . S
C2 O4 1.263 . S
O3 Co0 1.970 . S
O3 C2 1.258 . S
O4 Co1 1.966 . S
O4 C2 1.263 . S
C5 O6 1.235 . S
C5 O32 1.289 . S
O6 C5 1.235 . S
C7 C9 1.400 . S
C7 N10 1.351 . S
C7 C12 1.501 . S
C8 C9 1.387 . S
C8 N11 1.341 . S
C9 C7 1.400 . S
C9 C8 1.387 . S
N10 Co1 2.022 . S
N10 C7 1.351 . S
N10 N11 1.365 . S
N11 C8 1.341 . S
N11 N10 1.365 . S
N11 H31 0.862 . S
C12 C7 1.501 . S
C12 H13 0.961 . S
C12 H14 0.961 . S
C12 H15 0.960 . S
H13 C12 0.961 . S
H14 C12 0.961 . S
H15 C12 0.960 . S
C16 N17 1.342 . S
C16 C20 1.401 . S
C16 C21 1.499 . S
N17 Co0 1.989 . S
N17 C16 1.342 . S
N17 N18 1.388 . S
N18 Co1 1.993 . S
N18 N17 1.388 . S
N18 C19 1.346 . S
C19 N18 1.346 . S
C19 C20 1.396 . S
C19 C29 1.510 . S
C20 C16 1.401 . S
C20 C19 1.396 . S
C21 C16 1.499 . S
C21 H22 0.959 . S
C21 H23 0.960 . S
C21 H24 0.961 . S
H22 C21 0.959 . S
H23 C21 0.960 . S
H24 C21 0.961 . S
O25 Co0 1.967 . S
O25 C33 1.258 . S
O26 Co1 1.941 . S
O26 C33 1.266 . S
H27 C29 0.959 . S
H28 C29 0.961 . S
C29 C19 1.510 . S
C29 H27 0.959 . S
C29 H28 0.961 . S
C29 H30 0.960 . S
H30 C29 0.960 . S
H31 N11 0.862 . S
O32 Co0 1.920 . S
O32 C5 1.289 . S
C33 O25 1.258 . S
C33 O26 1.266 . S
Co34 O37 1.970 . S
Co34 N51 1.989 . S
Co34 O59 1.967 . S
Co34 O66 1.920 . S
Co35 O38 1.966 . S
Co35 N44 2.022 . S
Co35 N52 1.993 . S
Co35 O60 1.941 . S
C36 O37 1.258 . S
C36 O38 1.263 . S
O37 Co34 1.970 . S
O37 C36 1.258 . S
O38 Co35 1.966 . S
O38 C36 1.263 . S
C39 O40 1.235 . S
C39 O66 1.289 . S
O40 C39 1.235 . S
C41 C43 1.400 . S
C41 N44 1.351 . S
C41 C46 1.501 . S
C42 C43 1.387 . S
C42 N45 1.341 . S
C43 C41 1.400 . S
C43 C42 1.387 . S
N44 Co35 2.022 . S
N44 C41 1.351 . S
N44 N45 1.365 . S
N45 C42 1.341 . S
N45 N44 1.365 . S
N45 H65 0.862 . S
C46 C41 1.501 . S
C46 H47 0.961 . S
C46 H48 0.961 . S
C46 H49 0.960 . S
H47 C46 0.961 . S
H48 C46 0.961 . S
H49 C46 0.960 . S
C50 N51 1.342 . S
C50 C54 1.401 . S
C50 C55 1.499 . S
N51 Co34 1.989 . S
N51 C50 1.342 . S
N51 N52 1.388 . S
N52 Co35 1.993 . S
N52 N51 1.388 . S
N52 C53 1.346 . S
C53 N52 1.346 . S
C53 C54 1.396 . S
C53 C63 1.510 . S
C54 C50 1.401 . S
C54 C53 1.396 . S
C55 C50 1.499 . S
C55 H56 0.959 . S
C55 H57 0.960 . S
C55 H58 0.961 . S
H56 C55 0.959 . S
H57 C55 0.960 . S
H58 C55 0.961 . S
O59 Co34 1.967 . S
O59 C67 1.258 . S
O60 Co35 1.941 . S
O60 C67 1.266 . S
H61 C63 0.959 . S
H62 C63 0.961 . S
C63 C53 1.510 . S
C63 H61 0.959 . S
C63 H62 0.961 . S
C63 H64 0.960 . S
H64 C63 0.960 . S
H65 N45 0.862 . S
O66 Co34 1.920 . S
O66 C39 1.289 . S
C67 O59 1.258 . S
C67 O60 1.266 . S
Co68 O71 1.970 . S
Co68 N85 1.989 . S
Co68 O93 1.967 . S
Co68 O100 1.920 . S
Co69 O72 1.966 . S
Co69 N78 2.022 . S
Co69 N86 1.993 . S
Co69 O94 1.941 . S
C70 O71 1.258 . S
C70 O72 1.263 . S
O71 Co68 1.970 . S
O71 C70 1.258 . S
O72 Co69 1.966 . S
O72 C70 1.263 . S
C73 O74 1.235 . S
C73 O100 1.289 . S
O74 C73 1.235 . S
C75 C77 1.400 . S
C75 N78 1.351 . S
C75 C80 1.501 . S
C76 C77 1.387 . S
C76 N79 1.341 . S
C77 C75 1.400 . S
C77 C76 1.387 . S
N78 Co69 2.022 . S
N78 C75 1.351 . S
N78 N79 1.365 . S
N79 C76 1.341 . S
N79 N78 1.365 . S
N79 H99 0.862 . S
C80 C75 1.501 . S
C80 H81 0.961 . S
C80 H82 0.961 . S
C80 H83 0.960 . S
H81 C80 0.961 . S
H82 C80 0.961 . S
H83 C80 0.960 . S
C84 N85 1.342 . S
C84 C88 1.401 . S
C84 C89 1.499 . S
N85 Co68 1.989 . S
N85 C84 1.342 . S
N85 N86 1.388 . S
N86 Co69 1.993 . S
N86 N85 1.388 . S
N86 C87 1.346 . S
C87 N86 1.346 . S
C87 C88 1.396 . S
C87 C97 1.510 . S
C88 C84 1.401 . S
C88 C87 1.396 . S
C89 C84 1.499 . S
C89 H90 0.959 . S
C89 H91 0.960 . S
C89 H92 0.961 . S
H90 C89 0.959 . S
H91 C89 0.960 . S
H92 C89 0.961 . S
O93 Co68 1.967 . S
O93 C101 1.258 . S
O94 Co69 1.941 . S
O94 C101 1.266 . S
H95 C97 0.959 . S
H96 C97 0.961 . S
C97 C87 1.510 . S
C97 H95 0.959 . S
C97 H96 0.961 . S
C97 H98 0.960 . S
H98 C97 0.960 . S
H99 N79 0.862 . S
O100 Co68 1.920 . S
O100 C73 1.289 . S
C101 O93 1.258 . S
C101 O94 1.266 . S
Co102 O105 1.970 . S
Co102 N119 1.989 . S
Co102 O127 1.967 . S
Co102 O134 1.920 . S
Co103 O106 1.966 . S
Co103 N112 2.022 . S
Co103 N120 1.993 . S
Co103 O128 1.941 . S
C104 O105 1.258 . S
C104 O106 1.263 . S
O105 Co102 1.970 . S
O105 C104 1.258 . S
O106 Co103 1.966 . S
O106 C104 1.263 . S
C107 O108 1.235 . S
C107 O134 1.289 . S
O108 C107 1.235 . S
C109 C111 1.400 . S
C109 N112 1.351 . S
C109 C114 1.501 . S
C110 C111 1.387 . S
C110 N113 1.341 . S
C111 C109 1.400 . S
C111 C110 1.387 . S
N112 Co103 2.022 . S
N112 C109 1.351 . S
N112 N113 1.365 . S
N113 C110 1.341 . S
N113 N112 1.365 . S
N113 H133 0.862 . S
C114 C109 1.501 . S
C114 H115 0.961 . S
C114 H116 0.961 . S
C114 H117 0.960 . S
H115 C114 0.961 . S
H116 C114 0.961 . S
H117 C114 0.960 . S
C118 N119 1.342 . S
C118 C122 1.401 . S
C118 C123 1.499 . S
N119 Co102 1.989 . S
N119 C118 1.342 . S
N119 N120 1.388 . S
N120 Co103 1.993 . S
N120 N119 1.388 . S
N120 C121 1.346 . S
C121 N120 1.346 . S
C121 C122 1.396 . S
C121 C131 1.510 . S
C122 C118 1.401 . S
C122 C121 1.396 . S
C123 C118 1.499 . S
C123 H124 0.959 . S
C123 H125 0.960 . S
C123 H126 0.961 . S
H124 C123 0.959 . S
H125 C123 0.960 . S
H126 C123 0.961 . S
O127 Co102 1.967 . S
O127 C135 1.258 . S
O128 Co103 1.941 . S
O128 C135 1.266 . S
H129 C131 0.959 . S
H130 C131 0.961 . S
C131 C121 1.510 . S
C131 H129 0.959 . S
C131 H130 0.961 . S
C131 H132 0.960 . S
H132 C131 0.960 . S
H133 N113 0.862 . S
O134 Co102 1.920 . S
O134 C107 1.289 . S
C135 O127 1.258 . S
C135 O128 1.266 . S
Co136 O139 1.970 . S
Co136 N153 1.989 . S
Co136 O161 1.967 . S
Co136 O168 1.920 . S
Co137 O140 1.966 . S
Co137 N146 2.022 . S
Co137 N154 1.993 . S
Co137 O162 1.941 . S
C138 O139 1.258 . S
C138 O140 1.263 . S
O139 Co136 1.970 . S
O139 C138 1.258 . S
O140 Co137 1.966 . S
O140 C138 1.263 . S
C141 O142 1.235 . S
C141 O168 1.289 . S
O142 C141 1.235 . S
C143 C145 1.400 . S
C143 N146 1.351 . S
C143 C148 1.501 . S
C144 C145 1.387 . S
C144 N147 1.341 . S
C145 C143 1.400 . S
C145 C144 1.387 . S
N146 Co137 2.022 . S
N146 C143 1.351 . S
N146 N147 1.365 . S
N147 C144 1.341 . S
N147 N146 1.365 . S
N147 H167 0.862 . S
C148 C143 1.501 . S
C148 H149 0.961 . S
C148 H150 0.961 . S
C148 H151 0.960 . S
H149 C148 0.961 . S
H150 C148 0.961 . S
H151 C148 0.960 . S
C152 N153 1.342 . S
C152 C156 1.401 . S
C152 C157 1.499 . S
N153 Co136 1.989 . S
N153 C152 1.342 . S
N153 N154 1.388 . S
N154 Co137 1.993 . S
N154 N153 1.388 . S
N154 C155 1.346 . S
C155 N154 1.346 . S
C155 C156 1.396 . S
C155 C165 1.510 . S
C156 C152 1.401 . S
C156 C155 1.396 . S
C157 C152 1.499 . S
C157 H158 0.959 . S
C157 H159 0.960 . S
C157 H160 0.961 . S
H158 C157 0.959 . S
H159 C157 0.960 . S
H160 C157 0.961 . S
O161 Co136 1.967 . S
O161 C169 1.258 . S
O162 Co137 1.941 . S
O162 C169 1.266 . S
H163 C165 0.959 . S
H164 C165 0.961 . S
C165 C155 1.510 . S
C165 H163 0.959 . S
C165 H164 0.961 . S
C165 H166 0.960 . S
H166 C165 0.960 . S
H167 N147 0.862 . S
O168 Co136 1.920 . S
O168 C141 1.289 . S
C169 O161 1.258 . S
C169 O162 1.266 . S
Co170 O173 1.970 . S
Co170 N187 1.989 . S
Co170 O195 1.967 . S
Co170 O202 1.920 . S
Co171 O174 1.966 . S
Co171 N180 2.022 . S
Co171 N188 1.993 . S
Co171 O196 1.941 . S
C172 O173 1.258 . S
C172 O174 1.263 . S
O173 Co170 1.970 . S
O173 C172 1.258 . S
O174 Co171 1.966 . S
O174 C172 1.263 . S
C175 O176 1.235 . S
C175 O202 1.289 . S
O176 C175 1.235 . S
C177 C179 1.400 . S
C177 N180 1.351 . S
C177 C182 1.501 . S
C178 C179 1.387 . S
C178 N181 1.341 . S
C179 C177 1.400 . S
C179 C178 1.387 . S
N180 Co171 2.022 . S
N180 C177 1.351 . S
N180 N181 1.365 . S
N181 C178 1.341 . S
N181 N180 1.365 . S
N181 H201 0.862 . S
C182 C177 1.501 . S
C182 H183 0.961 . S
C182 H184 0.961 . S
C182 H185 0.960 . S
H183 C182 0.961 . S
H184 C182 0.961 . S
H185 C182 0.960 . S
C186 N187 1.342 . S
C186 C190 1.401 . S
C186 C191 1.499 . S
N187 Co170 1.989 . S
N187 C186 1.342 . S
N187 N188 1.388 . S
N188 Co171 1.993 . S
N188 N187 1.388 . S
N188 C189 1.346 . S
C189 N188 1.346 . S
C189 C190 1.396 . S
C189 C199 1.510 . S
C190 C186 1.401 . S
C190 C189 1.396 . S
C191 C186 1.499 . S
C191 H192 0.959 . S
C191 H193 0.960 . S
C191 H194 0.961 . S
H192 C191 0.959 . S
H193 C191 0.960 . S
H194 C191 0.961 . S
O195 Co170 1.967 . S
O195 C203 1.258 . S
O196 Co171 1.941 . S
O196 C203 1.266 . S
H197 C199 0.959 . S
H198 C199 0.961 . S
C199 C189 1.510 . S
C199 H197 0.959 . S
C199 H198 0.961 . S
C199 H200 0.960 . S
H200 C199 0.960 . S
H201 N181 0.862 . S
O202 Co170 1.920 . S
O202 C175 1.289 . S
C203 O195 1.258 . S
C203 O196 1.266 . S
Co204 O207 1.970 . S
Co204 N221 1.989 . S
Co204 O229 1.967 . S
Co204 O236 1.920 . S
Co205 O208 1.966 . S
Co205 N214 2.022 . S
Co205 N222 1.993 . S
Co205 O230 1.941 . S
C206 O207 1.258 . S
C206 O208 1.263 . S
O207 Co204 1.970 . S
O207 C206 1.258 . S
O208 Co205 1.966 . S
O208 C206 1.263 . S
C209 O210 1.235 . S
C209 O236 1.289 . S
O210 C209 1.235 . S
C211 C213 1.400 . S
C211 N214 1.351 . S
C211 C216 1.501 . S
C212 C213 1.387 . S
C212 N215 1.341 . S
C213 C211 1.400 . S
C213 C212 1.387 . S
N214 Co205 2.022 . S
N214 C211 1.351 . S
N214 N215 1.365 . S
N215 C212 1.341 . S
N215 N214 1.365 . S
N215 H235 0.862 . S
C216 C211 1.501 . S
C216 H217 0.961 . S
C216 H218 0.961 . S
C216 H219 0.960 . S
H217 C216 0.961 . S
H218 C216 0.961 . S
H219 C216 0.960 . S
C220 N221 1.342 . S
C220 C224 1.401 . S
C220 C225 1.499 . S
N221 Co204 1.989 . S
N221 C220 1.342 . S
N221 N222 1.388 . S
N222 Co205 1.993 . S
N222 N221 1.388 . S
N222 C223 1.346 . S
C223 N222 1.346 . S
C223 C224 1.396 . S
C223 C233 1.510 . S
C224 C220 1.401 . S
C224 C223 1.396 . S
C225 C220 1.499 . S
C225 H226 0.959 . S
C225 H227 0.960 . S
C225 H228 0.961 . S
H226 C225 0.959 . S
H227 C225 0.960 . S
H228 C225 0.961 . S
O229 Co204 1.967 . S
O229 C237 1.258 . S
O230 Co205 1.941 . S
O230 C237 1.266 . S
H231 C233 0.959 . S
H232 C233 0.961 . S
C233 C223 1.510 . S
C233 H231 0.959 . S
C233 H232 0.961 . S
C233 H234 0.960 . S
H234 C233 0.960 . S
H235 N215 0.862 . S
O236 Co204 1.920 . S
O236 C209 1.289 . S
C237 O229 1.258 . S
C237 O230 1.266 . S
Co238 O241 1.970 . S
Co238 N255 1.989 . S
Co238 O263 1.967 . S
Co238 O270 1.920 . S
Co239 O242 1.966 . S
Co239 N248 2.022 . S
Co239 N256 1.993 . S
Co239 O264 1.941 . S
C240 O241 1.258 . S
C240 O242 1.263 . S
O241 Co238 1.970 . S
O241 C240 1.258 . S
O242 Co239 1.966 . S
O242 C240 1.263 . S
C243 O244 1.235 . S
C243 O270 1.289 . S
O244 C243 1.235 . S
C245 C247 1.400 . S
C245 N248 1.351 . S
C245 C250 1.501 . S
C246 C247 1.387 . S
C246 N249 1.341 . S
C247 C245 1.400 . S
C247 C246 1.387 . S
N248 Co239 2.022 . S
N248 C245 1.351 . S
N248 N249 1.365 . S
N249 C246 1.341 . S
N249 N248 1.365 . S
N249 H269 0.862 . S
C250 C245 1.501 . S
C250 H251 0.961 . S
C250 H252 0.961 . S
C250 H253 0.960 . S
H251 C250 0.961 . S
H252 C250 0.961 . S
H253 C250 0.960 . S
C254 N255 1.342 . S
C254 C258 1.401 . S
C254 C259 1.499 . S
N255 Co238 1.989 . S
N255 C254 1.342 . S
N255 N256 1.388 . S
N256 Co239 1.993 . S
N256 N255 1.388 . S
N256 C257 1.346 . S
C257 N256 1.346 . S
C257 C258 1.396 . S
C257 C267 1.510 . S
C258 C254 1.401 . S
C258 C257 1.396 . S
C259 C254 1.499 . S
C259 H260 0.959 . S
C259 H261 0.960 . S
C259 H262 0.961 . S
H260 C259 0.959 . S
H261 C259 0.960 . S
H262 C259 0.961 . S
O263 Co238 1.967 . S
O263 C271 1.258 . S
O264 Co239 1.941 . S
O264 C271 1.266 . S
H265 C267 0.959 . S
H266 C267 0.961 . S
C267 C257 1.510 . S
C267 H265 0.959 . S
C267 H266 0.961 . S
C267 H268 0.960 . S
H268 C267 0.960 . S
H269 N249 0.862 . S
O270 Co238 1.920 . S
O270 C243 1.289 . S
C271 O263 1.258 . S
C271 O264 1.266 . S
Co272 O275 1.970 . S
Co272 N289 1.989 . S
Co272 O297 1.967 . S
Co272 O304 1.920 . S
Co273 O276 1.966 . S
Co273 N282 2.022 . S
Co273 N290 1.993 . S
Co273 O298 1.941 . S
C274 O275 1.258 . S
C274 O276 1.263 . S
O275 Co272 1.970 . S
O275 C274 1.258 . S
O276 Co273 1.966 . S
O276 C274 1.263 . S
C277 O278 1.235 . S
C277 O304 1.289 . S
O278 C277 1.235 . S
C279 C281 1.400 . S
C279 N282 1.351 . S
C279 C284 1.501 . S
C280 C281 1.387 . S
C280 N283 1.341 . S
C281 C279 1.400 . S
C281 C280 1.387 . S
N282 Co273 2.022 . S
N282 C279 1.351 . S
N282 N283 1.365 . S
N283 C280 1.341 . S
N283 N282 1.365 . S
N283 H303 0.862 . S
C284 C279 1.501 . S
C284 H285 0.961 . S
C284 H286 0.961 . S
C284 H287 0.960 . S
H285 C284 0.961 . S
H286 C284 0.961 . S
H287 C284 0.960 . S
C288 N289 1.342 . S
C288 C292 1.401 . S
C288 C293 1.499 . S
N289 Co272 1.989 . S
N289 C288 1.342 . S
N289 N290 1.388 . S
N290 Co273 1.993 . S
N290 N289 1.388 . S
N290 C291 1.346 . S
C291 N290 1.346 . S
C291 C292 1.396 . S
C291 C301 1.510 . S
C292 C288 1.401 . S
C292 C291 1.396 . S
C293 C288 1.499 . S
C293 H294 0.959 . S
C293 H295 0.960 . S
C293 H296 0.961 . S
H294 C293 0.959 . S
H295 C293 0.960 . S
H296 C293 0.961 . S
O297 Co272 1.967 . S
O297 C305 1.258 . S
O298 Co273 1.941 . S
O298 C305 1.266 . S
H299 C301 0.959 . S
H300 C301 0.961 . S
C301 C291 1.510 . S
C301 H299 0.959 . S
C301 H300 0.961 . S
C301 H302 0.960 . S
H302 C301 0.960 . S
H303 N283 0.862 . S
O304 Co272 1.920 . S
O304 C277 1.289 . S
C305 O297 1.258 . S
C305 O298 1.266 . S
Co306 O309 1.970 . S
Co306 N323 1.989 . S
Co306 O331 1.967 . S
Co306 O338 1.920 . S
Co307 O310 1.966 . S
Co307 N316 2.022 . S
Co307 N324 1.993 . S
Co307 O332 1.941 . S
C308 O309 1.258 . S
C308 O310 1.263 . S
O309 Co306 1.970 . S
O309 C308 1.258 . S
O310 Co307 1.966 . S
O310 C308 1.263 . S
C311 O312 1.235 . S
C311 O338 1.289 . S
O312 C311 1.235 . S
C313 C315 1.400 . S
C313 N316 1.351 . S
C313 C318 1.501 . S
C314 C315 1.387 . S
C314 N317 1.341 . S
C315 C313 1.400 . S
C315 C314 1.387 . S
N316 Co307 2.022 . S
N316 C313 1.351 . S
N316 N317 1.365 . S
N317 C314 1.341 . S
N317 N316 1.365 . S
N317 H337 0.862 . S
C318 C313 1.501 . S
C318 H319 0.961 . S
C318 H320 0.961 . S
C318 H321 0.960 . S
H319 C318 0.961 . S
H320 C318 0.961 . S
H321 C318 0.960 . S
C322 N323 1.342 . S
C322 C326 1.401 . S
C322 C327 1.499 . S
N323 Co306 1.989 . S
N323 C322 1.342 . S
N323 N324 1.388 . S
N324 Co307 1.993 . S
N324 N323 1.388 . S
N324 C325 1.346 . S
C325 N324 1.346 . S
C325 C326 1.396 . S
C325 C335 1.510 . S
C326 C322 1.401 . S
C326 C325 1.396 . S
C327 C322 1.499 . S
C327 H328 0.959 . S
C327 H329 0.960 . S
C327 H330 0.961 . S
H328 C327 0.959 . S
H329 C327 0.960 . S
H330 C327 0.961 . S
O331 Co306 1.967 . S
O331 C339 1.258 . S
O332 Co307 1.941 . S
O332 C339 1.266 . S
H333 C335 0.959 . S
H334 C335 0.961 . S
C335 C325 1.510 . S
C335 H333 0.959 . S
C335 H334 0.961 . S
C335 H336 0.960 . S
H336 C335 0.960 . S
H337 N317 0.862 . S
O338 Co306 1.920 . S
O338 C311 1.289 . S
C339 O331 1.258 . S
C339 O332 1.266 . S
Co340 O343 1.970 . S
Co340 N357 1.989 . S
Co340 O365 1.967 . S
Co340 O372 1.920 . S
Co341 O344 1.966 . S
Co341 N350 2.022 . S
Co341 N358 1.993 . S
Co341 O366 1.941 . S
C342 O343 1.258 . S
C342 O344 1.263 . S
O343 Co340 1.970 . S
O343 C342 1.258 . S
O344 Co341 1.966 . S
O344 C342 1.263 . S
C345 O346 1.235 . S
C345 O372 1.289 . S
O346 C345 1.235 . S
C347 C349 1.400 . S
C347 N350 1.351 . S
C347 C352 1.501 . S
C348 C349 1.387 . S
C348 N351 1.341 . S
C349 C347 1.400 . S
C349 C348 1.387 . S
N350 Co341 2.022 . S
N350 C347 1.351 . S
N350 N351 1.365 . S
N351 C348 1.341 . S
N351 N350 1.365 . S
N351 H371 0.862 . S
C352 C347 1.501 . S
C352 H353 0.961 . S
C352 H354 0.961 . S
C352 H355 0.960 . S
H353 C352 0.961 . S
H354 C352 0.961 . S
H355 C352 0.960 . S
C356 N357 1.342 . S
C356 C360 1.401 . S
C356 C361 1.499 . S
N357 Co340 1.989 . S
N357 C356 1.342 . S
N357 N358 1.388 . S
N358 Co341 1.993 . S
N358 N357 1.388 . S
N358 C359 1.346 . S
C359 N358 1.346 . S
C359 C360 1.396 . S
C359 C369 1.510 . S
C360 C356 1.401 . S
C360 C359 1.396 . S
C361 C356 1.499 . S
C361 H362 0.959 . S
C361 H363 0.960 . S
C361 H364 0.961 . S
H362 C361 0.959 . S
H363 C361 0.960 . S
H364 C361 0.961 . S
O365 Co340 1.967 . S
O365 C373 1.258 . S
O366 Co341 1.941 . S
O366 C373 1.266 . S
H367 C369 0.959 . S
H368 C369 0.961 . S
C369 C359 1.510 . S
C369 H367 0.959 . S
C369 H368 0.961 . S
C369 H370 0.960 . S
H370 C369 0.960 . S
H371 N351 0.862 . S
O372 Co340 1.920 . S
O372 C345 1.289 . S
C373 O365 1.258 . S
C373 O366 1.266 . S
Co374 O377 1.970 . S
Co374 N391 1.989 . S
Co374 O399 1.967 . S
Co374 O406 1.920 . S
Co375 O378 1.966 . S
Co375 N384 2.022 . S
Co375 N392 1.993 . S
Co375 O400 1.941 . S
C376 O377 1.258 . S
C376 O378 1.263 . S
O377 Co374 1.970 . S
O377 C376 1.258 . S
O378 Co375 1.966 . S
O378 C376 1.263 . S
C379 O380 1.235 . S
C379 O406 1.289 . S
O380 C379 1.235 . S
C381 C383 1.400 . S
C381 N384 1.351 . S
C381 C386 1.501 . S
C382 C383 1.387 . S
C382 N385 1.341 . S
C383 C381 1.400 . S
C383 C382 1.387 . S
N384 Co375 2.022 . S
N384 C381 1.351 . S
N384 N385 1.365 . S
N385 C382 1.341 . S
N385 N384 1.365 . S
N385 H405 0.862 . S
C386 C381 1.501 . S
C386 H387 0.961 . S
C386 H388 0.961 . S
C386 H389 0.960 . S
H387 C386 0.961 . S
H388 C386 0.961 . S
H389 C386 0.960 . S
C390 N391 1.342 . S
C390 C394 1.401 . S
C390 C395 1.499 . S
N391 Co374 1.989 . S
N391 C390 1.342 . S
N391 N392 1.388 . S
N392 Co375 1.993 . S
N392 N391 1.388 . S
N392 C393 1.346 . S
C393 N392 1.346 . S
C393 C394 1.396 . S
C393 C403 1.510 . S
C394 C390 1.401 . S
C394 C393 1.396 . S
C395 C390 1.499 . S
C395 H396 0.959 . S
C395 H397 0.960 . S
C395 H398 0.961 . S
H396 C395 0.959 . S
H397 C395 0.960 . S
H398 C395 0.961 . S
O399 Co374 1.967 . S
O399 C407 1.258 . S
O400 Co375 1.941 . S
O400 C407 1.266 . S
H401 C403 0.959 . S
H402 C403 0.961 . S
C403 C393 1.510 . S
C403 H401 0.959 . S
C403 H402 0.961 . S
C403 H404 0.960 . S
H404 C403 0.960 . S
H405 N385 0.862 . S
O406 Co374 1.920 . S
O406 C379 1.289 . S
C407 O399 1.258 . S
C407 O400 1.266 . S
H408 C416 0.929 . S
H409 C418 0.930 . S
H410 C420 0.930 . S
H411 C423 0.929 . S
H412 C426 0.930 1_545 S
H413 C428 0.960 . S
H414 C428 0.960 . S
H415 C428 0.960 . S
C416 H408 0.929 . S
C416 C417 1.377 . S
C416 C418 1.384 . S
C417 C416 1.377 . S
C417 C423 1.390 . S
C418 H409 0.930 . S
C418 C416 1.384 . S
C418 C419 1.372 . S
C419 C418 1.372 . S
C419 C420 1.400 . S
C419 C424 1.490 1_545 S
C420 H410 0.930 . S
C420 C419 1.400 . S
C420 C423 1.386 . S
H421 C437 0.930 . S
H422 C438 0.931 . S
C423 H411 0.929 . S
C423 C417 1.390 . S
C423 C420 1.386 . S
C424 C419 1.490 1_565 S
C424 C426 1.395 . S
C424 C427 1.403 . S
H425 C431 0.930 . S
C426 H412 0.930 1_565 S
C426 C424 1.395 . S
C426 C429 1.403 . S
C427 C424 1.403 . S
C427 C428 1.524 . S
C427 C431 1.400 . S
C428 H413 0.960 . S
C428 H414 0.960 . S
C428 H415 0.960 . S
C428 C427 1.524 . S
C429 C426 1.403 . S
C429 C430 1.392 . S
C429 C433 1.495 1_455 S
C430 C429 1.392 . S
C430 C431 1.385 . S
C430 C432 1.478 1_455 S
C431 H425 0.930 . S
C431 C427 1.400 . S
C431 C430 1.385 . S
C432 C430 1.478 1_655 S
C432 C434 1.381 . S
C432 C438 1.383 . S
C433 C429 1.495 1_655 S
C433 H439 0.959 . S
C433 H440 0.961 . S
C433 H441 0.960 . S
C434 C432 1.381 . S
C434 C435 1.394 . S
C434 H442 0.930 . S
C435 C434 1.394 . S
C435 C436 1.383 . S
C435 H443 0.929 . S
C436 C435 1.383 . S
C436 C437 1.377 . S
C437 H421 0.930 . S
C437 C436 1.377 . S
C437 C438 1.379 . S
C438 H422 0.931 . S
C438 C432 1.383 . S
C438 C437 1.379 . S
H439 C433 0.959 . S
H440 C433 0.961 . S
H441 C433 0.960 . S
H442 C434 0.930 . S
H443 C435 0.929 . S
H444 C452 0.929 . S
H445 C454 0.930 . S
H446 C456 0.930 . S
H447 C459 0.929 . S
H448 C462 0.930 1_565 S
H449 C464 0.960 . S
H450 C464 0.960 . S
H451 C464 0.960 . S
C452 H444 0.929 . S
C452 C453 1.377 . S
C452 C454 1.384 . S
C453 C452 1.377 . S
C453 C459 1.390 . S
C454 H445 0.930 . S
C454 C452 1.384 . S
C454 C455 1.372 . S
C455 C454 1.372 . S
C455 C456 1.400 . S
C455 C460 1.490 1_565 S
C456 H446 0.930 . S
C456 C455 1.400 . S
C456 C459 1.386 . S
H457 C473 0.930 . S
H458 C474 0.931 . S
C459 H447 0.929 . S
C459 C453 1.390 . S
C459 C456 1.386 . S
C460 C455 1.490 1_545 S
C460 C462 1.395 . S
C460 C463 1.403 . S
H461 C467 0.930 . S
C462 H448 0.930 1_545 S
C462 C460 1.395 . S
C462 C465 1.403 . S
C463 C460 1.403 . S
C463 C464 1.524 . S
C463 C467 1.400 . S
C464 H449 0.960 . S
C464 H450 0.960 . S
C464 H451 0.960 . S
C464 C463 1.524 . S
C465 C462 1.403 . S
C465 C466 1.392 . S
C465 C469 1.495 . S
C466 C465 1.392 . S
C466 C467 1.385 . S
C466 C468 1.478 . S
C467 H461 0.930 . S
C467 C463 1.400 . S
C467 C466 1.385 . S
C468 C466 1.478 . S
C468 C470 1.381 . S
C468 C474 1.383 . S
C469 C465 1.495 . S
C469 H475 0.959 . S
C469 H476 0.961 . S
C469 H477 0.960 . S
C470 C468 1.381 . S
C470 C471 1.394 . S
C470 H478 0.930 . S
C471 C470 1.394 . S
C471 C472 1.383 . S
C471 H479 0.929 . S
C472 C471 1.383 . S
C472 C473 1.377 . S
C473 H457 0.930 . S
C473 C472 1.377 . S
C473 C474 1.379 . S
C474 H458 0.931 . S
C474 C468 1.383 . S
C474 C473 1.379 . S
H475 C469 0.959 . S
H476 C469 0.961 . S
H477 C469 0.960 . S
H478 C470 0.930 . S
H479 C471 0.929 . S
H480 C488 0.929 . S
H481 C490 0.930 . S
H482 C492 0.930 . S
H483 C495 0.929 . S
H484 C498 0.930 . S
H485 C500 0.960 . S
H486 C500 0.960 . S
H487 C500 0.960 1_655 S
C488 H480 0.929 . S
C488 C489 1.377 . S
C488 C490 1.384 . S
C489 C488 1.377 . S
C489 C495 1.390 . S
C490 H481 0.930 . S
C490 C488 1.384 . S
C490 C491 1.372 . S
C491 C490 1.372 . S
C491 C492 1.400 . S
C491 C496 1.490 1_655 S
C492 H482 0.930 . S
C492 C491 1.400 . S
C492 C495 1.386 . S
H493 C509 0.930 . S
H494 C510 0.931 . S
C495 H483 0.929 . S
C495 C489 1.390 . S
C495 C492 1.386 . S
C496 C491 1.490 1_455 S
C496 C498 1.395 . S
C496 C499 1.403 . S
H497 C503 0.930 . S
C498 H484 0.930 . S
C498 C496 1.395 . S
C498 C501 1.403 . S
C499 C496 1.403 . S
C499 C500 1.524 . S
C499 C503 1.400 . S
C500 H485 0.960 . S
C500 H486 0.960 . S
C500 H487 0.960 1_455 S
C500 C499 1.524 . S
C501 C498 1.403 . S
C501 C502 1.392 . S
C501 C505 1.495 . S
C502 C501 1.392 . S
C502 C503 1.385 . S
C502 C504 1.478 . S
C503 H497 0.930 . S
C503 C499 1.400 . S
C503 C502 1.385 . S
C504 C502 1.478 . S
C504 C506 1.381 . S
C504 C510 1.383 . S
C505 C501 1.495 . S
C505 H511 0.959 . S
C505 H512 0.961 . S
C505 H513 0.960 . S
C506 C504 1.381 . S
C506 C507 1.394 . S
C506 H514 0.930 . S
C507 C506 1.394 . S
C507 C508 1.383 . S
C507 H515 0.929 . S
C508 C507 1.383 . S
C508 C509 1.377 . S
C509 H493 0.930 . S
C509 C508 1.377 . S
C509 C510 1.379 . S
C510 H494 0.931 . S
C510 C504 1.383 . S
C510 C509 1.379 . S
H511 C505 0.959 . S
H512 C505 0.961 . S
H513 C505 0.960 . S
H514 C506 0.930 . S
H515 C507 0.929 . S
H516 C524 0.929 . S
H517 C526 0.930 . S
H518 C528 0.930 . S
H519 C531 0.929 . S
H520 C534 0.930 . S
H521 C536 0.960 . S
H522 C536 0.960 . S
H523 C536 0.960 . S
C524 H516 0.929 . S
C524 C525 1.377 . S
C524 C526 1.384 . S
C525 C524 1.377 . S
C525 C531 1.390 . S
C526 H517 0.930 . S
C526 C524 1.384 . S
C526 C527 1.372 . S
C527 C526 1.372 . S
C527 C528 1.400 . S
C527 C532 1.490 1_565 S
C528 H518 0.930 . S
C528 C527 1.400 . S
C528 C531 1.386 . S
H529 C545 0.930 . S
H530 C546 0.931 . S
C531 H519 0.929 . S
C531 C525 1.390 . S
C531 C528 1.386 . S
C532 C527 1.490 1_545 S
C532 C534 1.395 . S
C532 C535 1.403 . S
H533 C539 0.930 1_455 S
C534 H520 0.930 . S
C534 C532 1.395 . S
C534 C537 1.403 . S
C535 C532 1.403 . S
C535 C536 1.524 1_545 S
C535 C539 1.400 . S
C536 H521 0.960 . S
C536 H522 0.960 . S
C536 H523 0.960 . S
C536 C535 1.524 1_565 S
C537 C534 1.403 . S
C537 C538 1.392 . S
C537 C541 1.495 . S
C538 C537 1.392 . S
C538 C539 1.385 . S
C538 C540 1.478 1_655 S
C539 H533 0.930 1_655 S
C539 C535 1.400 . S
C539 C538 1.385 . S
C540 C538 1.478 1_455 S
C540 C542 1.381 . S
C540 C546 1.383 . S
C541 C537 1.495 . S
C541 H547 0.959 . S
C541 H548 0.961 . S
C541 H549 0.960 . S
C542 C540 1.381 . S
C542 C543 1.394 . S
C542 H550 0.930 . S
C543 C542 1.394 . S
C543 C544 1.383 . S
C543 H551 0.929 . S
C544 C543 1.383 . S
C544 C545 1.377 . S
C545 H529 0.930 . S
C545 C544 1.377 . S
C545 C546 1.379 . S
C546 H530 0.931 . S
C546 C540 1.383 . S
C546 C545 1.379 . S
H547 C541 0.959 . S
H548 C541 0.961 . S
H549 C541 0.960 . S
H550 C542 0.930 . S
H551 C543 0.929 . S
H552 C560 0.929 . S
H553 C562 0.930 . S
H554 C564 0.930 . S
H555 C567 0.929 . S
H556 C570 0.930 . S
H557 C572 0.960 . S
H558 C572 0.960 . S
H559 C572 0.960 . S
C560 H552 0.929 . S
C560 C561 1.377 . S
C560 C562 1.384 . S
C561 C560 1.377 . S
C561 C567 1.390 . S
C562 H553 0.930 . S
C562 C560 1.384 . S
C562 C563 1.372 . S
C563 C562 1.372 . S
C563 C564 1.400 . S
C563 C568 1.490 . S
C564 H554 0.930 . S
C564 C563 1.400 . S
C564 C567 1.386 . S
H565 C581 0.930 . S
H566 C582 0.931 . S
C567 H555 0.929 . S
C567 C561 1.390 . S
C567 C564 1.386 . S
C568 C563 1.490 . S
C568 C570 1.395 . S
C568 C571 1.403 . S
H569 C575 0.930 . S
C570 H556 0.930 . S
C570 C568 1.395 . S
C570 C573 1.403 . S
C571 C568 1.403 . S
C571 C572 1.524 . S
C571 C575 1.400 . S
C572 H557 0.960 . S
C572 H558 0.960 . S
C572 H559 0.960 . S
C572 C571 1.524 . S
C573 C570 1.403 . S
C573 C574 1.392 . S
C573 C577 1.495 . S
C574 C573 1.392 . S
C574 C575 1.385 . S
C574 C576 1.478 1_565 S
C575 H569 0.930 . S
C575 C571 1.400 . S
C575 C574 1.385 . S
C576 C574 1.478 1_545 S
C576 C578 1.381 . S
C576 C582 1.383 . S
C577 C573 1.495 . S
C577 H583 0.959 . S
C577 H584 0.961 . S
C577 H585 0.960 1_565 S
C578 C576 1.381 . S
C578 C579 1.394 . S
C578 H586 0.930 . S
C579 C578 1.394 . S
C579 C580 1.383 . S
C579 H587 0.929 . S
C580 C579 1.383 . S
C580 C581 1.377 . S
C581 H565 0.930 . S
C581 C580 1.377 . S
C581 C582 1.379 . S
C582 H566 0.931 . S
C582 C576 1.383 . S
C582 C581 1.379 . S
H583 C577 0.959 . S
H584 C577 0.961 . S
H585 C577 0.960 1_545 S
H586 C578 0.930 . S
H587 C579 0.929 . S
H588 C596 0.929 . S
H589 C598 0.930 . S
H590 C600 0.930 . S
H591 C603 0.929 . S
H592 C606 0.930 . S
H593 C608 0.960 . S
H594 C608 0.960 1_455 S
H595 C608 0.960 . S
C596 H588 0.929 . S
C596 C597 1.377 . S
C596 C598 1.384 . S
C597 C596 1.377 . S
C597 C603 1.390 . S
C598 H589 0.930 . S
C598 C596 1.384 . S
C598 C599 1.372 . S
C599 C598 1.372 . S
C599 C600 1.400 . S
C599 C604 1.490 1_455 S
C600 H590 0.930 . S
C600 C599 1.400 . S
C600 C603 1.386 . S
H601 C617 0.930 . S
H602 C618 0.931 . S
C603 H591 0.929 . S
C603 C597 1.390 . S
C603 C600 1.386 . S
C604 C599 1.490 1_655 S
C604 C606 1.395 . S
C604 C607 1.403 . S
H605 C611 0.930 . S
C606 H592 0.930 . S
C606 C604 1.395 . S
C606 C609 1.403 . S
C607 C604 1.403 . S
C607 C608 1.524 . S
C607 C611 1.400 . S
C608 H593 0.960 . S
C608 H594 0.960 1_655 S
C608 H595 0.960 . S
C608 C607 1.524 . S
C609 C606 1.403 . S
C609 C610 1.392 . S
C609 C613 1.495 . S
C610 C609 1.392 . S
C610 C611 1.385 . S
C610 C612 1.478 . S
C611 H605 0.930 . S
C611 C607 1.400 . S
C611 C610 1.385 . S
C612 C610 1.478 . S
C612 C614 1.381 . S
C612 C618 1.383 . S
C613 C609 1.495 . S
C613 H619 0.959 . S
C613 H620 0.961 . S
C613 H621 0.960 . S
C614 C612 1.381 . S
C614 C615 1.394 . S
C614 H622 0.930 . S
C615 C614 1.394 . S
C615 C616 1.383 . S
C615 H623 0.929 . S
C616 C615 1.383 . S
C616 C617 1.377 . S
C617 H601 0.930 . S
C617 C616 1.377 . S
C617 C618 1.379 . S
C618 H602 0.931 . S
C618 C612 1.383 . S
C618 C617 1.379 . S
H619 C613 0.959 . S
H620 C613 0.961 . S
H621 C613 0.960 . S
H622 C614 0.930 . S
H623 C615 0.929 . S
H624 C632 0.929 . S
H625 C634 0.930 . S
H626 C636 0.930 . S
H627 C639 0.929 . S
H628 C642 0.930 . S
H629 C644 0.960 . S
H630 C644 0.960 . S
H631 C644 0.960 . S
C632 H624 0.929 . S
C632 C633 1.377 . S
C632 C634 1.384 . S
C633 C632 1.377 . S
C633 C639 1.390 . S
C634 H625 0.930 . S
C634 C632 1.384 . S
C634 C635 1.372 . S
C635 C634 1.372 . S
C635 C636 1.400 . S
C635 C640 1.490 . S
C636 H626 0.930 . S
C636 C635 1.400 . S
C636 C639 1.386 . S
H637 C653 0.930 . S
H638 C654 0.931 . S
C639 H627 0.929 . S
C639 C633 1.390 . S
C639 C636 1.386 . S
C640 C635 1.490 . S
C640 C642 1.395 . S
C640 C643 1.403 . S
H641 C647 0.930 . S
C642 H628 0.930 . S
C642 C640 1.395 . S
C642 C645 1.403 . S
C643 C640 1.403 . S
C643 C644 1.524 . S
C643 C647 1.400 . S
C644 H629 0.960 . S
C644 H630 0.960 . S
C644 H631 0.960 . S
C644 C643 1.524 . S
C645 C642 1.403 . S
C645 C646 1.392 . S
C645 C649 1.495 . S
C646 C645 1.392 . S
C646 C647 1.385 . S
C646 C648 1.478 . S
C647 H641 0.930 . S
C647 C643 1.400 . S
C647 C646 1.385 . S
C648 C646 1.478 . S
C648 C650 1.381 . S
C648 C654 1.383 . S
C649 C645 1.495 . S
C649 H655 0.959 . S
C649 H656 0.961 . S
C649 H657 0.960 . S
C650 C648 1.381 . S
C650 C651 1.394 . S
C650 H658 0.930 . S
C651 C650 1.394 . S
C651 C652 1.383 . S
C651 H659 0.929 . S
C652 C651 1.383 . S
C652 C653 1.377 . S
C653 H637 0.930 . S
C653 C652 1.377 . S
C653 C654 1.379 . S
C654 H638 0.931 . S
C654 C648 1.383 . S
C654 C653 1.379 . S
H655 C649 0.959 . S
H656 C649 0.961 . S
H657 C649 0.960 . S
H658 C650 0.930 . S
H659 C651 0.929 . S
H660 C668 0.929 . S
H661 C670 0.930 . S
H662 C672 0.930 . S
H663 C675 0.929 . S
H664 C678 0.930 . S
H665 C680 0.960 . S
H666 C680 0.960 . S
H667 C680 0.960 . S
C668 H660 0.929 . S
C668 C669 1.377 . S
C668 C670 1.384 . S
C669 C668 1.377 . S
C669 C675 1.390 . S
C670 H661 0.930 . S
C670 C668 1.384 . S
C670 C671 1.372 . S
C671 C670 1.372 . S
C671 C672 1.400 . S
C671 C676 1.490 . S
C672 H662 0.930 . S
C672 C671 1.400 . S
C672 C675 1.386 . S
H673 C689 0.930 . S
H674 C690 0.931 . S
C675 H663 0.929 . S
C675 C669 1.390 . S
C675 C672 1.386 . S
C676 C671 1.490 . S
C676 C678 1.395 . S
C676 C679 1.403 . S
H677 C683 0.930 . S
C678 H664 0.930 . S
C678 C676 1.395 . S
C678 C681 1.403 . S
C679 C676 1.403 . S
C679 C680 1.524 . S
C679 C683 1.400 . S
C680 H665 0.960 . S
C680 H666 0.960 . S
C680 H667 0.960 . S
C680 C679 1.524 . S
C681 C678 1.403 . S
C681 C682 1.392 . S
C681 C685 1.495 . S
C682 C681 1.392 . S
C682 C683 1.385 . S
C682 C684 1.478 . S
C683 H677 0.930 . S
C683 C679 1.400 . S
C683 C682 1.385 . S
C684 C682 1.478 . S
C684 C686 1.381 . S
C684 C690 1.383 . S
C685 C681 1.495 . S
C685 H691 0.959 . S
C685 H692 0.961 . S
C685 H693 0.960 . S
C686 C684 1.381 . S
C686 C687 1.394 . S
C686 H694 0.930 . S
C687 C686 1.394 . S
C687 C688 1.383 . S
C687 H695 0.929 . S
C688 C687 1.383 . S
C688 C689 1.377 . S
C689 H673 0.930 . S
C689 C688 1.377 . S
C689 C690 1.379 . S
C690 H674 0.931 . S
C690 C684 1.383 . S
C690 C689 1.379 . S
H691 C685 0.959 . S
H692 C685 0.961 . S
H693 C685 0.960 . S
H694 C686 0.930 . S
H695 C687 0.929 . S
H696 C704 0.929 . S
H697 C706 0.930 . S
H698 C708 0.930 . S
H699 C711 0.929 . S
H700 C714 0.930 . S
H701 C716 0.960 . S
H702 C716 0.960 . S
H703 C716 0.960 . S
C704 H696 0.929 . S
C704 C705 1.377 . S
C704 C706 1.384 . S
C705 C704 1.377 . S
C705 C711 1.390 . S
C706 H697 0.930 . S
C706 C704 1.384 . S
C706 C707 1.372 . S
C707 C706 1.372 . S
C707 C708 1.400 . S
C707 C712 1.490 . S
C708 H698 0.930 . S
C708 C707 1.400 . S
C708 C711 1.386 . S
H709 C725 0.930 . S
H710 C726 0.931 . S
C711 H699 0.929 . S
C711 C705 1.390 . S
C711 C708 1.386 . S
C712 C707 1.490 . S
C712 C714 1.395 . S
C712 C715 1.403 . S
H713 C719 0.930 . S
C714 H700 0.930 . S
C714 C712 1.395 . S
C714 C717 1.403 . S
C715 C712 1.403 . S
C715 C716 1.524 . S
C715 C719 1.400 . S
C716 H701 0.960 . S
C716 H702 0.960 . S
C716 H703 0.960 . S
C716 C715 1.524 . S
C717 C714 1.403 . S
C717 C718 1.392 . S
C717 C721 1.495 . S
C718 C717 1.392 . S
C718 C719 1.385 . S
C718 C720 1.478 . S
C719 H713 0.930 . S
C719 C715 1.400 . S
C719 C718 1.385 . S
C720 C718 1.478 . S
C720 C722 1.381 . S
C720 C726 1.383 . S
C721 C717 1.495 . S
C721 H727 0.959 . S
C721 H728 0.961 . S
C721 H729 0.960 . S
C722 C720 1.381 . S
C722 C723 1.394 . S
C722 H730 0.930 . S
C723 C722 1.394 . S
C723 C724 1.383 . S
C723 H731 0.929 . S
C724 C723 1.383 . S
C724 C725 1.377 . S
C725 H709 0.930 . S
C725 C724 1.377 . S
C725 C726 1.379 . S
C726 H710 0.931 . S
C726 C720 1.383 . S
C726 C725 1.379 . S
H727 C721 0.959 . S
H728 C721 0.961 . S
H729 C721 0.960 . S
H730 C722 0.930 . S
H731 C723 0.929 . S
H732 C740 0.929 . S
H733 C742 0.930 . S
H734 C744 0.930 . S
H735 C747 0.929 . S
H736 C750 0.930 . S
H737 C752 0.960 . S
H738 C752 0.960 . S
H739 C752 0.960 . S
C740 H732 0.929 . S
C740 C741 1.377 . S
C740 C742 1.384 . S
C741 C740 1.377 . S
C741 C747 1.390 . S
C742 H733 0.930 . S
C742 C740 1.384 . S
C742 C743 1.372 . S
C743 C742 1.372 . S
C743 C744 1.400 . S
C743 C748 1.490 . S
C744 H734 0.930 . S
C744 C743 1.400 . S
C744 C747 1.386 . S
H745 C761 0.930 . S
H746 C762 0.931 . S
C747 H735 0.929 . S
C747 C741 1.390 . S
C747 C744 1.386 . S
C748 C743 1.490 . S
C748 C750 1.395 . S
C748 C751 1.403 . S
H749 C755 0.930 . S
C750 H736 0.930 . S
C750 C748 1.395 . S
C750 C753 1.403 . S
C751 C748 1.403 . S
C751 C752 1.524 . S
C751 C755 1.400 . S
C752 H737 0.960 . S
C752 H738 0.960 . S
C752 H739 0.960 . S
C752 C751 1.524 . S
C753 C750 1.403 . S
C753 C754 1.392 . S
C753 C757 1.495 . S
C754 C753 1.392 . S
C754 C755 1.385 . S
C754 C756 1.478 . S
C755 H749 0.930 . S
C755 C751 1.400 . S
C755 C754 1.385 . S
C756 C754 1.478 . S
C756 C758 1.381 . S
C756 C762 1.383 . S
C757 C753 1.495 . S
C757 H763 0.959 . S
C757 H764 0.961 . S
C757 H765 0.960 . S
C758 C756 1.381 . S
C758 C759 1.394 . S
C758 H766 0.930 . S
C759 C758 1.394 . S
C759 C760 1.383 . S
C759 H767 0.929 . S
C760 C759 1.383 . S
C760 C761 1.377 . S
C761 H745 0.930 . S
C761 C760 1.377 . S
C761 C762 1.379 . S
C762 H746 0.931 . S
C762 C756 1.383 . S
C762 C761 1.379 . S
H763 C757 0.959 . S
H764 C757 0.961 . S
H765 C757 0.960 . S
H766 C758 0.930 . S
H767 C759 0.929 . S
H768 C776 0.929 . S
H769 C778 0.930 . S
H770 C780 0.930 . S
H771 C783 0.929 . S
H772 C786 0.930 . S
H773 C788 0.960 . S
H774 C788 0.960 . S
H775 C788 0.960 . S
C776 H768 0.929 . S
C776 C777 1.377 . S
C776 C778 1.384 . S
C777 C776 1.377 . S
C777 C783 1.390 . S
C778 H769 0.930 . S
C778 C776 1.384 . S
C778 C779 1.372 . S
C779 C778 1.372 . S
C779 C780 1.400 . S
C779 C784 1.490 . S
C780 H770 0.930 . S
C780 C779 1.400 . S
C780 C783 1.386 . S
H781 C797 0.930 . S
H782 C798 0.931 . S
C783 H771 0.929 . S
C783 C777 1.390 . S
C783 C780 1.386 . S
C784 C779 1.490 . S
C784 C786 1.395 . S
C784 C787 1.403 . S
H785 C791 0.930 . S
C786 H772 0.930 . S
C786 C784 1.395 . S
C786 C789 1.403 . S
C787 C784 1.403 . S
C787 C788 1.524 . S
C787 C791 1.400 . S
C788 H773 0.960 . S
C788 H774 0.960 . S
C788 H775 0.960 . S
C788 C787 1.524 . S
C789 C786 1.403 . S
C789 C790 1.392 . S
C789 C793 1.495 . S
C790 C789 1.392 . S
C790 C791 1.385 . S
C790 C792 1.478 . S
C791 H785 0.930 . S
C791 C787 1.400 . S
C791 C790 1.385 . S
C792 C790 1.478 . S
C792 C794 1.381 . S
C792 C798 1.383 . S
C793 C789 1.495 . S
C793 H799 0.959 . S
C793 H800 0.961 . S
C793 H801 0.960 . S
C794 C792 1.381 . S
C794 C795 1.394 . S
C794 H802 0.930 . S
C795 C794 1.394 . S
C795 C796 1.383 . S
C795 H803 0.929 . S
C796 C795 1.383 . S
C796 C797 1.377 . S
C797 H781 0.930 . S
C797 C796 1.377 . S
C797 C798 1.379 . S
C798 H782 0.931 . S
C798 C792 1.383 . S
C798 C797 1.379 . S
H799 C793 0.959 . S
H800 C793 0.961 . S
H801 C793 0.960 . S
H802 C794 0.930 . S
H803 C795 0.929 . S
H804 C812 0.929 . S
H805 C814 0.930 . S
H806 C816 0.930 . S
H807 C819 0.929 . S
H808 C822 0.930 . S
H809 C824 0.960 . S
H810 C824 0.960 . S
H811 C824 0.960 . S
C812 H804 0.929 . S
C812 C813 1.377 . S
C812 C814 1.384 . S
C813 C812 1.377 . S
C813 C819 1.390 . S
C814 H805 0.930 . S
C814 C812 1.384 . S
C814 C815 1.372 . S
C815 C814 1.372 . S
C815 C816 1.400 . S
C815 C820 1.490 . S
C816 H806 0.930 . S
C816 C815 1.400 . S
C816 C819 1.386 . S
H817 C833 0.930 . S
H818 C834 0.931 . S
C819 H807 0.929 . S
C819 C813 1.390 . S
C819 C816 1.386 . S
C820 C815 1.490 . S
C820 C822 1.395 . S
C820 C823 1.403 . S
H821 C827 0.930 . S
C822 H808 0.930 . S
C822 C820 1.395 . S
C822 C825 1.403 . S
C823 C820 1.403 . S
C823 C824 1.524 . S
C823 C827 1.400 . S
C824 H809 0.960 . S
C824 H810 0.960 . S
C824 H811 0.960 . S
C824 C823 1.524 . S
C825 C822 1.403 . S
C825 C826 1.392 . S
C825 C829 1.495 . S
C826 C825 1.392 . S
C826 C827 1.385 . S
C826 C828 1.478 . S
C827 H821 0.930 . S
C827 C823 1.400 . S
C827 C826 1.385 . S
C828 C826 1.478 . S
C828 C830 1.381 . S
C828 C834 1.383 . S
C829 C825 1.495 . S
C829 H835 0.959 . S
C829 H836 0.961 . S
C829 H837 0.960 . S
C830 C828 1.381 . S
C830 C831 1.394 . S
C830 H838 0.930 . S
C831 C830 1.394 . S
C831 C832 1.383 . S
C831 H839 0.929 . S
C832 C831 1.383 . S
C832 C833 1.377 . S
C833 H817 0.930 . S
C833 C832 1.377 . S
C833 C834 1.379 . S
C834 H818 0.931 . S
C834 C828 1.383 . S
C834 C833 1.379 . S
H835 C829 0.959 . S
H836 C829 0.961 . S
H837 C829 0.960 . S
H838 C830 0.930 . S
H839 C831 0.929 . S
H840 C848 0.929 . S
H841 C850 0.930 . S
H842 C852 0.930 . S
H843 C855 0.929 . S
H844 C858 0.930 1_565 S
H845 C860 0.960 . S
H846 C860 0.960 . S
H847 C860 0.960 . S
C848 H840 0.929 . S
C848 C849 1.377 . S
C848 C850 1.384 . S
C849 C848 1.377 . S
C849 C855 1.390 . S
C850 H841 0.930 . S
C850 C848 1.384 . S
C850 C851 1.372 . S
C851 C850 1.372 . S
C851 C852 1.400 1_565 S
C851 C856 1.490 1_565 S
C852 H842 0.930 . S
C852 C851 1.400 1_545 S
C852 C855 1.386 1_545 S
H853 C869 0.930 . S
H854 C870 0.931 . S
C855 H843 0.929 . S
C855 C849 1.390 . S
C855 C852 1.386 1_565 S
C856 C851 1.490 1_545 S
C856 C858 1.395 . S
C856 C859 1.403 . S
H857 C863 0.930 . S
C858 H844 0.930 1_545 S
C858 C856 1.395 . S
C858 C861 1.403 . S
C859 C856 1.403 . S
C859 C860 1.524 . S
C859 C863 1.400 . S
C860 H845 0.960 . S
C860 H846 0.960 . S
C860 H847 0.960 . S
C860 C859 1.524 . S
C861 C858 1.403 . S
C861 C862 1.392 . S
C861 C865 1.495 . S
C862 C861 1.392 . S
C862 C863 1.385 . S
C862 C864 1.478 . S
C863 H857 0.930 . S
C863 C859 1.400 . S
C863 C862 1.385 . S
C864 C862 1.478 . S
C864 C866 1.381 . S
C864 C870 1.383 . S
C865 C861 1.495 . S
C865 H871 0.959 1_545 S
C865 H872 0.961 . S
C865 H873 0.960 . S
C866 C864 1.381 . S
C866 C867 1.394 . S
C866 H874 0.930 . S
C867 C866 1.394 . S
C867 C868 1.383 . S
C867 H875 0.929 . S
C868 C867 1.383 . S
C868 C869 1.377 . S
C869 H853 0.930 . S
C869 C868 1.377 . S
C869 C870 1.379 . S
C870 H854 0.931 . S
C870 C864 1.383 . S
C870 C869 1.379 . S
H871 C865 0.959 1_565 S
H872 C865 0.961 . S
H873 C865 0.960 . S
H874 C866 0.930 . S
H875 C867 0.929 . S
H876 C884 0.929 . S
H877 C886 0.930 . S
H878 C888 0.930 . S
H879 C891 0.929 . S
H880 C894 0.930 . S
H881 C896 0.960 . S
H882 C896 0.960 . S
H883 C896 0.960 . S
C884 H876 0.929 . S
C884 C885 1.377 . S
C884 C886 1.384 . S
C885 C884 1.377 . S
C885 C891 1.390 . S
C886 H877 0.930 . S
C886 C884 1.384 . S
C886 C887 1.372 . S
C887 C886 1.372 . S
C887 C888 1.400 . S
C887 C892 1.490 . S
C888 H878 0.930 . S
C888 C887 1.400 . S
C888 C891 1.386 . S
H889 C905 0.930 . S
H890 C906 0.931 . S
C891 H879 0.929 . S
C891 C885 1.390 . S
C891 C888 1.386 . S
C892 C887 1.490 . S
C892 C894 1.395 . S
C892 C895 1.403 . S
H893 C899 0.930 . S
C894 H880 0.930 . S
C894 C892 1.395 . S
C894 C897 1.403 . S
C895 C892 1.403 . S
C895 C896 1.524 . S
C895 C899 1.400 . S
C896 H881 0.960 . S
C896 H882 0.960 . S
C896 H883 0.960 . S
C896 C895 1.524 . S
C897 C894 1.403 . S
C897 C898 1.392 . S
C897 C901 1.495 . S
C898 C897 1.392 . S
C898 C899 1.385 . S
C898 C900 1.478 . S
C899 H893 0.930 . S
C899 C895 1.400 . S
C899 C898 1.385 . S
C900 C898 1.478 . S
C900 C902 1.381 . S
C900 C906 1.383 . S
C901 C897 1.495 . S
C901 H907 0.959 . S
C901 H908 0.961 . S
C901 H909 0.960 . S
C902 C900 1.381 . S
C902 C903 1.394 . S
C902 H910 0.930 . S
C903 C902 1.394 . S
C903 C904 1.383 . S
C903 H911 0.929 . S
C904 C903 1.383 . S
C904 C905 1.377 . S
C905 H889 0.930 . S
C905 C904 1.377 . S
C905 C906 1.379 . S
C906 H890 0.931 . S
C906 C900 1.383 . S
C906 C905 1.379 . S
H907 C901 0.959 . S
H908 C901 0.961 . S
H909 C901 0.960 . S
H910 C902 0.930 . S
H911 C903 0.929 . S
H912 C920 0.929 . S
H913 C922 0.930 . S
H914 C924 0.930 . S
H915 C927 0.929 . S
H916 C930 0.930 . S
H917 C932 0.960 . S
H918 C932 0.960 . S
H919 C932 0.960 . S
C920 H912 0.929 . S
C920 C921 1.377 . S
C920 C922 1.384 . S
C921 C920 1.377 . S
C921 C927 1.390 . S
C922 H913 0.930 . S
C922 C920 1.384 . S
C922 C923 1.372 . S
C923 C922 1.372 . S
C923 C924 1.400 . S
C923 C928 1.490 . S
C924 H914 0.930 . S
C924 C923 1.400 . S
C924 C927 1.386 . S
H925 C941 0.930 . S
H926 C942 0.931 . S
C927 H915 0.929 . S
C927 C921 1.390 . S
C927 C924 1.386 . S
C928 C923 1.490 . S
C928 C930 1.395 . S
C928 C931 1.403 . S
H929 C935 0.930 . S
C930 H916 0.930 . S
C930 C928 1.395 . S
C930 C933 1.403 . S
C931 C928 1.403 . S
C931 C932 1.524 . S
C931 C935 1.400 . S
C932 H917 0.960 . S
C932 H918 0.960 . S
C932 H919 0.960 . S
C932 C931 1.524 . S
C933 C930 1.403 . S
C933 C934 1.392 . S
C933 C937 1.495 . S
C934 C933 1.392 . S
C934 C935 1.385 . S
C934 C936 1.478 1_655 S
C935 H929 0.930 . S
C935 C931 1.400 . S
C935 C934 1.385 . S
C936 C934 1.478 1_455 S
C936 C938 1.381 1_455 S
C936 C942 1.383 . S
C937 C933 1.495 . S
C937 H943 0.959 . S
C937 H944 0.961 1_655 S
C937 H945 0.960 . S
C938 C936 1.381 1_655 S
C938 C939 1.394 1_655 S
C938 H946 0.930 . S
C939 C938 1.394 1_455 S
C939 C940 1.383 . S
C939 H947 0.941 . S
C940 C939 1.383 . S
C940 C941 1.377 . S
C941 H925 0.930 . S
C941 C940 1.377 . S
C941 C942 1.379 . S
C942 H926 0.931 . S
C942 C936 1.383 . S
C942 C941 1.379 . S
H943 C937 0.959 . S
H944 C937 0.961 1_455 S
H945 C937 0.960 . S
H946 C938 0.930 . S
H947 C939 0.941 . S
H948 C956 0.929 . S
H949 C958 0.930 . S
H950 C960 0.930 . S
H951 C963 0.929 . S
H952 C966 0.930 1_545 S
H953 C968 0.960 . S
H954 C968 0.960 . S
H955 C968 0.960 . S
C956 H948 0.929 . S
C956 C957 1.377 . S
C956 C958 1.384 . S
C957 C956 1.377 . S
C957 C963 1.390 . S
C958 H949 0.930 . S
C958 C956 1.384 . S
C958 C959 1.372 . S
C959 C958 1.372 . S
C959 C960 1.400 1_545 S
C959 C964 1.490 1_545 S
C960 H950 0.930 . S
C960 C959 1.400 1_565 S
C960 C963 1.386 1_565 S
H961 C977 0.930 . S
H962 C978 0.931 . S
C963 H951 0.929 . S
C963 C957 1.390 . S
C963 C960 1.386 1_545 S
C964 C959 1.490 1_565 S
C964 C966 1.395 . S
C964 C967 1.403 . S
H965 C971 0.930 . S
C966 H952 0.930 1_565 S
C966 C964 1.395 . S
C966 C969 1.403 . S
C967 C964 1.403 . S
C967 C968 1.524 . S
C967 C971 1.400 . S
C968 H953 0.960 . S
C968 H954 0.960 . S
C968 H955 0.960 . S
C968 C967 1.524 . S
C969 C966 1.403 . S
C969 C970 1.392 . S
C969 C973 1.495 . S
C970 C969 1.392 . S
C970 C971 1.385 . S
C970 C972 1.478 . S
C971 H965 0.930 . S
C971 C967 1.400 . S
C971 C970 1.385 . S
C972 C970 1.478 . S
C972 C974 1.381 . S
C972 C978 1.383 . S
C973 C969 1.495 . S
C973 H979 0.959 1_565 S
C973 H980 0.961 . S
C973 H981 0.960 . S
C974 C972 1.381 . S
C974 C975 1.394 . S
C974 H982 0.930 . S
C975 C974 1.394 . S
C975 C976 1.383 . S
C975 H983 0.929 . S
C976 C975 1.383 . S
C976 C977 1.377 . S
C977 H961 0.930 . S
C977 C976 1.377 . S
C977 C978 1.379 . S
C978 H962 0.931 . S
C978 C972 1.383 . S
C978 C977 1.379 . S
H979 C973 0.959 1_545 S
H980 C973 0.961 . S
H981 C973 0.960 . S
H982 C974 0.930 . S
H983 C975 0.929 . S
H984 C992 0.929 . S
H985 C994 0.930 . S
H986 C996 0.930 . S
H987 C999 0.929 . S
H988 C1002 0.930 . S
H989 C1004 0.960 . S
H990 C1004 0.960 . S
H991 C1004 0.960 . S
C992 H984 0.929 . S
C992 C993 1.377 . S
C992 C994 1.384 . S
C993 C992 1.377 . S
C993 C999 1.390 . S
C994 H985 0.930 . S
C994 C992 1.384 . S
C994 C995 1.372 . S
C995 C994 1.372 . S
C995 C996 1.400 . S
C995 C1000 1.490 . S
C996 H986 0.930 . S
C996 C995 1.400 . S
C996 C999 1.386 . S
H997 C1013 0.930 . S
H998 C1014 0.931 . S
C999 H987 0.929 . S
C999 C993 1.390 . S
C999 C996 1.386 . S
C1000 C995 1.490 . S
C1000 C1002 1.395 . S
C1000 C1003 1.403 . S
H1001 C1007 0.930 . S
C1002 H988 0.930 . S
C1002 C1000 1.395 . S
C1002 C1005 1.403 1_556 S
C1003 C1000 1.403 . S
C1003 C1004 1.524 . S
C1003 C1007 1.400 1_556 S
C1004 H989 0.960 . S
C1004 H990 0.960 . S
C1004 H991 0.960 . S
C1004 C1003 1.524 . S
C1005 C1002 1.403 1_554 S
C1005 C1006 1.392 . S
C1005 C1009 1.495 . S
C1006 C1005 1.392 . S
C1006 C1007 1.385 . S
C1006 C1008 1.478 . S
C1007 H1001 0.930 . S
C1007 C1003 1.400 1_554 S
C1007 C1006 1.385 . S
C1008 C1006 1.478 . S
C1008 C1010 1.381 . S
C1008 C1014 1.383 . S
C1009 C1005 1.495 . S
C1009 H1015 0.959 . S
C1009 H1016 0.961 . S
C1009 H1017 0.960 . S
C1010 C1008 1.381 . S
C1010 C1011 1.394 . S
C1010 H1018 0.930 . S
C1011 C1010 1.394 . S
C1011 C1012 1.383 . S
C1011 H1019 0.929 . S
C1012 C1011 1.383 . S
C1012 C1013 1.377 . S
C1013 H997 0.930 . S
C1013 C1012 1.377 . S
C1013 C1014 1.379 . S
C1014 H998 0.931 . S
C1014 C1008 1.383 . S
C1014 C1013 1.379 . S
H1015 C1009 0.959 . S
H1016 C1009 0.961 . S
H1017 C1009 0.960 . S
H1018 C1010 0.930 . S
H1019 C1011 0.929 . S
H1020 C1028 0.929 . S
H1021 C1030 0.930 . S
H1022 C1032 0.930 . S
H1023 C1035 0.929 . S
H1024 C1038 0.930 . S
H1025 C1040 0.960 . S
H1026 C1040 0.960 . S
H1027 C1040 0.960 . S
C1028 H1020 0.929 . S
C1028 C1029 1.377 . S
C1028 C1030 1.384 . S
C1029 C1028 1.377 . S
C1029 C1035 1.390 . S
C1030 H1021 0.930 . S
C1030 C1028 1.384 . S
C1030 C1031 1.372 . S
C1031 C1030 1.372 . S
C1031 C1032 1.400 . S
C1031 C1036 1.490 1_655 S
C1032 H1022 0.930 . S
C1032 C1031 1.400 . S
C1032 C1035 1.386 . S
H1033 C1049 0.930 . S
H1034 C1050 0.931 . S
C1035 H1023 0.929 . S
C1035 C1029 1.390 . S
C1035 C1032 1.386 . S
C1036 C1031 1.490 1_455 S
C1036 C1038 1.395 . S
C1036 C1039 1.403 . S
H1037 C1043 0.930 . S
C1038 H1024 0.930 . S
C1038 C1036 1.395 . S
C1038 C1041 1.403 . S
C1039 C1036 1.403 . S
C1039 C1040 1.524 1_455 S
C1039 C1043 1.400 . S
C1040 H1025 0.960 . S
C1040 H1026 0.960 . S
C1040 H1027 0.960 . S
C1040 C1039 1.524 1_655 S
C1041 C1038 1.403 . S
C1041 C1042 1.392 . S
C1041 C1045 1.495 . S
C1042 C1041 1.392 . S
C1042 C1043 1.385 . S
C1042 C1044 1.478 . S
C1043 H1037 0.930 . S
C1043 C1039 1.400 . S
C1043 C1042 1.385 . S
C1044 C1042 1.478 . S
C1044 C1046 1.381 . S
C1044 C1050 1.383 . S
C1045 C1041 1.495 . S
C1045 H1051 0.959 . S
C1045 H1052 0.961 . S
C1045 H1053 0.960 . S
C1046 C1044 1.381 . S
C1046 C1047 1.394 . S
C1046 H1054 0.930 . S
C1047 C1046 1.394 . S
C1047 C1048 1.383 . S
C1047 H1055 0.929 . S
C1048 C1047 1.383 . S
C1048 C1049 1.377 . S
C1049 H1033 0.930 . S
C1049 C1048 1.377 . S
C1049 C1050 1.379 . S
C1050 H1034 0.931 . S
C1050 C1044 1.383 . S
C1050 C1049 1.379 . S
H1051 C1045 0.959 . S
H1052 C1045 0.961 . S
H1053 C1045 0.960 . S
H1054 C1046 0.930 . S
H1055 C1047 0.929 . S
H1056 C1064 0.929 . S
H1057 C1066 0.930 1_655 S
H1058 C1068 0.930 . S
H1059 C1071 0.929 . S
H1060 C1074 0.930 1_455 S
H1061 C1076 0.960 . S
H1062 C1076 0.960 . S
H1063 C1076 0.960 . S
C1064 H1056 0.929 . S
C1064 C1065 1.377 . S
C1064 C1066 1.384 . S
C1065 C1064 1.377 . S
C1065 C1071 1.390 . S
C1066 H1057 0.930 1_455 S
C1066 C1064 1.384 . S
C1066 C1067 1.363 . S
C1067 C1066 1.363 . S
C1067 C1068 1.422 . S
C1067 C1072 1.478 1_455 S
C1068 H1058 0.930 . S
C1068 C1067 1.422 . S
C1068 C1071 1.386 . S
H1069 C1085 0.930 . S
H1070 C1086 0.931 . S
C1071 H1059 0.929 . S
C1071 C1065 1.390 . S
C1071 C1068 1.386 . S
C1072 C1067 1.478 1_655 S
C1072 C1074 1.395 . S
C1072 C1075 1.403 . S
H1073 C1079 0.930 . S
C1074 H1060 0.930 1_655 S
C1074 C1072 1.395 . S
C1074 C1077 1.403 . S
C1075 C1072 1.403 . S
C1075 C1076 1.524 . S
C1075 C1079 1.400 . S
C1076 H1061 0.960 . S
C1076 H1062 0.960 . S
C1076 H1063 0.960 . S
C1076 C1075 1.524 . S
C1077 C1074 1.403 . S
C1077 C1078 1.392 . S
C1077 C1081 1.495 . S
C1078 C1077 1.392 . S
C1078 C1079 1.385 . S
C1078 C1080 1.478 . S
C1079 H1073 0.930 . S
C1079 C1075 1.400 . S
C1079 C1078 1.385 . S
C1080 C1078 1.478 . S
C1080 C1082 1.381 . S
C1080 C1086 1.383 . S
C1081 C1077 1.495 . S
C1081 H1087 0.959 . S
C1081 H1088 0.961 . S
C1081 H1089 0.960 . S
C1082 C1080 1.381 . S
C1082 C1083 1.394 . S
C1082 H1090 0.930 . S
C1083 C1082 1.394 . S
C1083 C1084 1.383 . S
C1083 H1091 0.929 . S
C1084 C1083 1.383 . S
C1084 C1085 1.377 . S
C1085 H1069 0.930 . S
C1085 C1084 1.377 . S
C1085 C1086 1.379 . S
C1086 H1070 0.931 . S
C1086 C1080 1.383 . S
C1086 C1085 1.379 . S
H1087 C1081 0.959 . S
H1088 C1081 0.961 . S
H1089 C1081 0.960 . S
H1090 C1082 0.930 . S
H1091 C1083 0.929 . S
H1092 C1100 0.929 . S
H1093 C1102 0.930 . S
H1094 C1104 0.930 . S
H1095 C1107 0.929 . S
H1096 C1110 0.930 . S
H1097 C1112 0.960 . S
H1098 C1112 0.960 . S
H1099 C1112 0.960 . S
C1100 H1092 0.929 . S
C1100 C1101 1.377 . S
C1100 C1102 1.384 . S
C1101 C1100 1.377 . S
C1101 C1107 1.390 . S
C1102 H1093 0.930 . S
C1102 C1100 1.384 . S
C1102 C1103 1.372 . S
C1103 C1102 1.372 . S
C1103 C1104 1.400 . S
C1103 C1108 1.490 . S
C1104 H1094 0.930 . S
C1104 C1103 1.400 . S
C1104 C1107 1.386 . S
H1105 C1121 0.930 1_565 S
H1106 C1122 0.931 . S
C1107 H1095 0.929 . S
C1107 C1101 1.390 . S
C1107 C1104 1.386 . S
C1108 C1103 1.490 . S
C1108 C1110 1.395 . S
C1108 C1111 1.403 . S
H1109 C1115 0.930 . S
C1110 H1096 0.930 . S
C1110 C1108 1.395 . S
C1110 C1113 1.403 . S
C1111 C1108 1.403 . S
C1111 C1112 1.524 . S
C1111 C1115 1.400 . S
C1112 H1097 0.960 . S
C1112 H1098 0.960 . S
C1112 H1099 0.960 . S
C1112 C1111 1.524 . S
C1113 C1110 1.403 . S
C1113 C1114 1.392 . S
C1113 C1117 1.495 1_565 S
C1114 C1113 1.392 . S
C1114 C1115 1.385 . S
C1114 C1116 1.478 1_565 S
C1115 H1109 0.930 . S
C1115 C1111 1.400 . S
C1115 C1114 1.385 . S
C1116 C1114 1.478 1_545 S
C1116 C1118 1.381 . S
C1116 C1122 1.383 1_545 S
C1117 C1113 1.495 1_545 S
C1117 H1123 0.959 . S
C1117 H1124 0.961 . S
C1117 H1125 0.960 . S
C1118 C1116 1.381 . S
C1118 C1119 1.394 . S
C1118 H1126 0.930 . S
C1119 C1118 1.394 . S
C1119 C1120 1.383 . S
C1119 H1127 0.929 . S
C1120 C1119 1.383 . S
C1120 C1121 1.377 . S
C1121 H1105 0.930 1_545 S
C1121 C1120 1.377 . S
C1121 C1122 1.379 1_545 S
C1122 H1106 0.931 . S
C1122 C1116 1.383 1_565 S
C1122 C1121 1.379 1_565 S
H1123 C1117 0.959 . S
H1124 C1117 0.961 . S
H1125 C1117 0.960 . S
H1126 C1118 0.930 . S
H1127 C1119 0.929 . S
H1128 C1136 0.929 . S
H1129 C1138 0.930 . S
H1130 C1140 0.930 . S
H1131 C1143 0.929 . S
H1132 C1146 0.930 . S
H1133 C1148 0.960 . S
H1134 C1148 0.960 . S
H1135 C1148 0.960 . S
C1136 H1128 0.929 . S
C1136 C1137 1.377 . S
C1136 C1138 1.384 . S
C1137 C1136 1.377 . S
C1137 C1143 1.390 . S
C1138 H1129 0.930 . S
C1138 C1136 1.384 . S
C1138 C1139 1.372 . S
C1139 C1138 1.372 . S
C1139 C1140 1.400 . S
C1139 C1144 1.490 . S
C1140 H1130 0.930 . S
C1140 C1139 1.400 . S
C1140 C1143 1.386 . S
H1141 C1157 0.930 . S
H1142 C1158 0.931 . S
C1143 H1131 0.929 . S
C1143 C1137 1.390 . S
C1143 C1140 1.386 . S
C1144 C1139 1.490 . S
C1144 C1146 1.395 . S
C1144 C1147 1.403 . S
H1145 C1151 0.930 . S
C1146 H1132 0.930 . S
C1146 C1144 1.395 . S
C1146 C1149 1.403 . S
C1147 C1144 1.403 . S
C1147 C1148 1.524 . S
C1147 C1151 1.400 . S
C1148 H1133 0.960 . S
C1148 H1134 0.960 . S
C1148 H1135 0.960 . S
C1148 C1147 1.524 . S
C1149 C1146 1.403 . S
C1149 C1150 1.392 . S
C1149 C1153 1.495 . S
C1150 C1149 1.392 . S
C1150 C1151 1.385 . S
C1150 C1152 1.478 . S
C1151 H1145 0.930 . S
C1151 C1147 1.400 . S
C1151 C1150 1.385 . S
C1152 C1150 1.478 . S
C1152 C1154 1.381 . S
C1152 C1158 1.383 . S
C1153 C1149 1.495 . S
C1153 H1159 0.959 . S
C1153 H1160 0.961 . S
C1153 H1161 0.960 . S
C1154 C1152 1.381 . S
C1154 C1155 1.394 . S
C1154 H1162 0.930 . S
C1155 C1154 1.394 . S
C1155 C1156 1.383 . S
C1155 H1163 0.929 . S
C1156 C1155 1.383 . S
C1156 C1157 1.377 . S
C1157 H1141 0.930 . S
C1157 C1156 1.377 . S
C1157 C1158 1.379 . S
C1158 H1142 0.931 . S
C1158 C1152 1.383 . S
C1158 C1157 1.379 . S
H1159 C1153 0.959 . S
H1160 C1153 0.961 . S
H1161 C1153 0.960 . S
H1162 C1154 0.930 . S
H1163 C1155 0.929 . S
H1164 C1172 0.929 . S
H1165 C1174 0.930 . S
H1166 C1176 0.930 . S
H1167 C1179 0.929 . S
H1168 C1182 0.929 1_655 S
H1169 C1184 0.960 . S
H1170 C1184 0.960 . S
H1171 C1184 0.960 . S
C1172 H1164 0.929 . S
C1172 C1173 1.377 . S
C1172 C1174 1.384 . S
C1173 C1172 1.377 . S
C1173 C1179 1.390 . S
C1174 H1165 0.930 . S
C1174 C1172 1.384 . S
C1174 C1175 1.372 . S
C1175 C1174 1.372 . S
C1175 C1176 1.400 1_655 S
C1175 C1180 1.490 1_655 S
C1176 H1166 0.930 . S
C1176 C1175 1.400 1_455 S
C1176 C1179 1.386 1_455 S
H1177 C1193 0.930 . S
H1178 C1194 0.931 . S
C1179 H1167 0.929 . S
C1179 C1173 1.390 . S
C1179 C1176 1.386 1_655 S
C1180 C1175 1.490 1_455 S
C1180 C1182 1.410 . S
C1180 C1183 1.403 . S
H1181 C1187 0.937 . S
C1182 H1168 0.929 1_455 S
C1182 C1180 1.410 . S
C1182 C1185 1.388 1_554 S
C1183 C1180 1.403 . S
C1183 C1184 1.524 . S
C1183 C1187 1.333 1_554 S
C1184 H1169 0.960 . S
C1184 H1170 0.960 . S
C1184 H1171 0.960 . S
C1184 C1183 1.524 . S
C1185 C1182 1.388 1_556 S
C1185 C1186 1.392 . S
C1185 C1189 1.495 . S
C1186 C1185 1.392 . S
C1186 C1187 1.450 . S
C1186 C1188 1.478 . S
C1187 H1181 0.937 . S
C1187 C1183 1.333 1_556 S
C1187 C1186 1.450 . S
C1188 C1186 1.478 . S
C1188 C1190 1.381 . S
C1188 C1194 1.383 . S
C1189 C1185 1.495 . S
C1189 H1195 0.959 1_455 S
C1189 H1196 0.961 . S
C1189 H1197 0.960 . S
C1190 C1188 1.381 . S
C1190 C1191 1.394 . S
C1190 H1198 0.930 . S
C1191 C1190 1.394 . S
C1191 C1192 1.383 . S
C1191 H1199 0.929 . S
C1192 C1191 1.383 . S
C1192 C1193 1.377 . S
C1193 H1177 0.930 . S
C1193 C1192 1.377 . S
C1193 C1194 1.379 . S
C1194 H1178 0.931 . S
C1194 C1188 1.383 . S
C1194 C1193 1.379 . S
H1195 C1189 0.959 1_655 S
H1196 C1189 0.961 . S
H1197 C1189 0.960 . S
H1198 C1190 0.930 . S
H1199 C1191 0.929 . S
H1200 C1208 0.929 . S
H1201 C1210 0.930 . S
H1202 C1212 0.930 . S
H1203 C1215 0.929 . S
H1204 C1218 0.930 . S
H1205 C1220 0.960 . S
H1206 C1220 0.960 . S
H1207 C1220 0.960 . S
C1208 H1200 0.929 . S
C1208 C1209 1.377 . S
C1208 C1210 1.384 1_565 S
C1209 C1208 1.377 . S
C1209 C1215 1.390 . S
C1210 H1201 0.930 . S
C1210 C1208 1.384 1_545 S
C1210 C1211 1.374 1_545 S
C1211 C1210 1.374 1_565 S
C1211 C1212 1.403 . S
C1211 C1216 1.485 1_565 S
C1212 H1202 0.930 . S
C1212 C1211 1.403 . S
C1212 C1215 1.386 . S
H1213 C1229 0.930 . S
H1214 C1230 0.931 . S
C1215 H1203 0.929 . S
C1215 C1209 1.390 . S
C1215 C1212 1.386 . S
C1216 C1211 1.485 1_545 S
C1216 C1218 1.395 . S
C1216 C1219 1.403 . S
H1217 C1223 0.930 . S
C1218 H1204 0.930 . S
C1218 C1216 1.395 . S
C1218 C1221 1.403 . S
C1219 C1216 1.403 . S
C1219 C1220 1.524 . S
C1219 C1223 1.400 . S
C1220 H1205 0.960 . S
C1220 H1206 0.960 . S
C1220 H1207 0.960 . S
C1220 C1219 1.524 . S
C1221 C1218 1.403 . S
C1221 C1222 1.392 . S
C1221 C1225 1.495 . S
C1222 C1221 1.392 . S
C1222 C1223 1.385 . S
C1222 C1224 1.478 . S
C1223 H1217 0.930 . S
C1223 C1219 1.400 . S
C1223 C1222 1.385 . S
C1224 C1222 1.478 . S
C1224 C1226 1.381 . S
C1224 C1230 1.383 . S
C1225 C1221 1.495 . S
C1225 H1231 0.959 . S
C1225 H1232 0.961 . S
C1225 H1233 0.960 . S
C1226 C1224 1.381 . S
C1226 C1227 1.394 . S
C1226 H1234 0.930 . S
C1227 C1226 1.394 . S
C1227 C1228 1.383 . S
C1227 H1235 0.929 . S
C1228 C1227 1.383 . S
C1228 C1229 1.377 . S
C1229 H1213 0.930 . S
C1229 C1228 1.377 . S
C1229 C1230 1.379 . S
C1230 H1214 0.931 . S
C1230 C1224 1.383 . S
C1230 C1229 1.379 . S
H1231 C1225 0.959 . S
H1232 C1225 0.961 . S
H1233 C1225 0.960 . S
H1234 C1226 0.930 . S
H1235 C1227 0.929 . S
H1236 C1244 0.929 . S
H1237 C1246 0.930 . S
H1238 C1248 0.930 . S
H1239 C1251 0.929 . S
H1240 C1254 0.930 . S
H1241 C1256 0.960 . S
H1242 C1256 0.960 . S
H1243 C1256 0.960 . S
C1244 H1236 0.929 . S
C1244 C1245 1.377 . S
C1244 C1246 1.384 . S
C1245 C1244 1.377 . S
C1245 C1251 1.390 . S
C1246 H1237 0.930 . S
C1246 C1244 1.384 . S
C1246 C1247 1.372 . S
C1247 C1246 1.372 . S
C1247 C1248 1.400 . S
C1247 C1252 1.490 . S
C1248 H1238 0.930 . S
C1248 C1247 1.400 . S
C1248 C1251 1.386 . S
H1249 C1265 0.930 . S
H1250 C1266 0.931 . S
C1251 H1239 0.929 . S
C1251 C1245 1.390 . S
C1251 C1248 1.386 . S
C1252 C1247 1.490 . S
C1252 C1254 1.395 . S
C1252 C1255 1.403 . S
H1253 C1259 0.930 . S
C1254 H1240 0.930 . S
C1254 C1252 1.395 . S
C1254 C1257 1.403 . S
C1255 C1252 1.403 . S
C1255 C1256 1.524 . S
C1255 C1259 1.400 . S
C1256 H1241 0.960 . S
C1256 H1242 0.960 . S
C1256 H1243 0.960 . S
C1256 C1255 1.524 . S
C1257 C1254 1.403 . S
C1257 C1258 1.392 . S
C1257 C1261 1.495 . S
C1258 C1257 1.392 . S
C1258 C1259 1.385 . S
C1258 C1260 1.478 . S
C1259 H1253 0.930 . S
C1259 C1255 1.400 . S
C1259 C1258 1.385 . S
C1260 C1258 1.478 . S
C1260 C1262 1.381 . S
C1260 C1266 1.383 . S
C1261 C1257 1.495 . S
C1261 H1267 0.959 . S
C1261 H1268 0.961 . S
C1261 H1269 0.960 . S
C1262 C1260 1.381 . S
C1262 C1263 1.394 . S
C1262 H1270 0.930 . S
C1263 C1262 1.394 . S
C1263 C1264 1.383 . S
C1263 H1271 0.929 . S
C1264 C1263 1.383 . S
C1264 C1265 1.377 . S
C1265 H1249 0.930 . S
C1265 C1264 1.377 . S
C1265 C1266 1.379 . S
C1266 H1250 0.931 . S
C1266 C1260 1.383 . S
C1266 C1265 1.379 . S
H1267 C1261 0.959 . S
H1268 C1261 0.961 . S
H1269 C1261 0.960 . S
H1270 C1262 0.930 . S
H1271 C1263 0.929 . S
H1272 C1280 0.929 . S
H1273 C1282 0.930 . S
H1274 C1284 0.930 . S
H1275 C1287 0.929 . S
H1276 C1290 0.930 . S
H1277 C1292 0.960 . S
H1278 C1292 0.960 . S
H1279 C1292 0.960 . S
C1280 H1272 0.929 . S
C1280 C1281 1.377 . S
C1280 C1282 1.384 . S
C1281 C1280 1.377 . S
C1281 C1287 1.390 . S
C1282 H1273 0.930 . S
C1282 C1280 1.384 . S
C1282 C1283 1.372 . S
C1283 C1282 1.372 . S
C1283 C1284 1.400 . S
C1283 C1288 1.490 . S
C1284 H1274 0.930 . S
C1284 C1283 1.400 . S
C1284 C1287 1.386 . S
H1285 C1301 0.930 . S
H1286 C1302 0.931 . S
C1287 H1275 0.929 . S
C1287 C1281 1.390 . S
C1287 C1284 1.386 . S
C1288 C1283 1.490 . S
C1288 C1290 1.395 1_545 S
C1288 C1291 1.403 . S
H1289 C1295 0.930 . S
C1290 H1276 0.930 . S
C1290 C1288 1.395 1_565 S
C1290 C1293 1.403 . S
C1291 C1288 1.403 . S
C1291 C1292 1.524 . S
C1291 C1295 1.400 . S
C1292 H1277 0.960 . S
C1292 H1278 0.960 . S
C1292 H1279 0.960 . S
C1292 C1291 1.524 . S
C1293 C1290 1.403 . S
C1293 C1294 1.392 . S
C1293 C1297 1.495 . S
C1294 C1293 1.392 . S
C1294 C1295 1.385 1_565 S
C1294 C1296 1.478 . S
C1295 H1289 0.930 . S
C1295 C1291 1.400 . S
C1295 C1294 1.385 1_545 S
C1296 C1294 1.478 . S
C1296 C1298 1.381 . S
C1296 C1302 1.383 . S
C1297 C1293 1.495 . S
C1297 H1303 0.959 . S
C1297 H1304 0.961 . S
C1297 H1305 0.960 . S
C1298 C1296 1.381 . S
C1298 C1299 1.394 . S
C1298 H1306 0.930 . S
C1299 C1298 1.394 . S
C1299 C1300 1.383 . S
C1299 H1307 0.929 . S
C1300 C1299 1.383 . S
C1300 C1301 1.377 . S
C1301 H1285 0.930 . S
C1301 C1300 1.377 . S
C1301 C1302 1.379 . S
C1302 H1286 0.931 . S
C1302 C1296 1.383 . S
C1302 C1301 1.379 . S
H1303 C1297 0.959 . S
H1304 C1297 0.961 . S
H1305 C1297 0.960 . S
H1306 C1298 0.930 . S
H1307 C1299 0.929 . S
H1308 C1316 0.929 . S
H1309 C1318 0.930 . S
H1310 C1320 0.930 . S
H1311 C1323 0.929 . S
H1312 C1326 0.930 . S
H1313 C1328 0.960 . S
H1314 C1328 0.960 . S
H1315 C1328 0.960 . S
C1316 H1308 0.929 . S
C1316 C1317 1.377 . S
C1316 C1318 1.384 . S
C1317 C1316 1.377 . S
C1317 C1323 1.390 . S
C1318 H1309 0.930 . S
C1318 C1316 1.384 . S
C1318 C1319 1.372 . S
C1319 C1318 1.372 . S
C1319 C1320 1.400 . S
C1319 C1324 1.490 . S
C1320 H1310 0.930 . S
C1320 C1319 1.400 . S
C1320 C1323 1.386 . S
H1321 C1337 0.930 . S
H1322 C1338 0.931 . S
C1323 H1311 0.929 . S
C1323 C1317 1.390 . S
C1323 C1320 1.386 . S
C1324 C1319 1.490 . S
C1324 C1326 1.395 . S
C1324 C1327 1.403 . S
H1325 C1331 0.930 . S
C1326 H1312 0.930 . S
C1326 C1324 1.395 . S
C1326 C1329 1.403 . S
C1327 C1324 1.403 . S
C1327 C1328 1.524 . S
C1327 C1331 1.400 . S
C1328 H1313 0.960 . S
C1328 H1314 0.960 . S
C1328 H1315 0.960 . S
C1328 C1327 1.524 . S
C1329 C1326 1.403 . S
C1329 C1330 1.392 . S
C1329 C1333 1.495 . S
C1330 C1329 1.392 . S
C1330 C1331 1.385 . S
C1330 C1332 1.478 . S
C1331 H1325 0.930 . S
C1331 C1327 1.400 . S
C1331 C1330 1.385 . S
C1332 C1330 1.478 . S
C1332 C1334 1.381 . S
C1332 C1338 1.383 . S
C1333 C1329 1.495 . S
C1333 H1339 0.959 . S
C1333 H1340 0.961 . S
C1333 H1341 0.960 . S
C1334 C1332 1.381 . S
C1334 C1335 1.394 . S
C1334 H1342 0.930 . S
C1335 C1334 1.394 . S
C1335 C1336 1.383 . S
C1335 H1343 0.929 . S
C1336 C1335 1.383 . S
C1336 C1337 1.377 . S
C1337 H1321 0.930 . S
C1337 C1336 1.377 . S
C1337 C1338 1.379 . S
C1338 H1322 0.931 . S
C1338 C1332 1.383 . S
C1338 C1337 1.379 . S
H1339 C1333 0.959 . S
H1340 C1333 0.961 . S
H1341 C1333 0.960 . S
H1342 C1334 0.930 . S
H1343 C1335 0.929 . S
H1344 C1352 0.929 . S
H1345 C1354 0.930 . S
H1346 C1356 0.930 . S
H1347 C1359 0.929 . S
H1348 C1362 0.930 . S
H1349 C1364 0.960 . S
H1350 C1364 0.960 . S
H1351 C1364 0.960 . S
C1352 H1344 0.929 . S
C1352 C1353 1.377 . S
C1352 C1354 1.384 . S
C1353 C1352 1.377 . S
C1353 C1359 1.390 . S
C1354 H1345 0.930 . S
C1354 C1352 1.384 . S
C1354 C1355 1.372 . S
C1355 C1354 1.372 . S
C1355 C1356 1.400 . S
C1355 C1360 1.490 . S
C1356 H1346 0.930 . S
C1356 C1355 1.400 . S
C1356 C1359 1.386 . S
H1357 C1373 0.930 . S
H1358 C1374 0.931 . S
C1359 H1347 0.929 . S
C1359 C1353 1.390 . S
C1359 C1356 1.386 . S
C1360 C1355 1.490 . S
C1360 C1362 1.395 . S
C1360 C1363 1.403 1_655 S
H1361 C1367 0.930 . S
C1362 H1348 0.930 . S
C1362 C1360 1.395 . S
C1362 C1365 1.403 . S
C1363 C1360 1.403 1_455 S
C1363 C1364 1.524 . S
C1363 C1367 1.400 . S
C1364 H1349 0.960 . S
C1364 H1350 0.960 . S
C1364 H1351 0.960 . S
C1364 C1363 1.524 . S
C1365 C1362 1.403 . S
C1365 C1366 1.392 1_655 S
C1365 C1369 1.495 . S
C1366 C1365 1.392 1_455 S
C1366 C1367 1.385 . S
C1366 C1368 1.478 . S
C1367 H1361 0.930 . S
C1367 C1363 1.400 . S
C1367 C1366 1.385 . S
C1368 C1366 1.478 . S
C1368 C1370 1.381 . S
C1368 C1374 1.383 . S
C1369 C1365 1.495 . S
C1369 H1375 0.959 . S
C1369 H1376 0.961 . S
C1369 H1377 0.960 . S
C1370 C1368 1.381 . S
C1370 C1371 1.394 . S
C1370 H1378 0.930 . S
C1371 C1370 1.394 . S
C1371 C1372 1.383 . S
C1371 H1379 0.929 . S
C1372 C1371 1.383 . S
C1372 C1373 1.377 . S
C1373 H1357 0.930 . S
C1373 C1372 1.377 . S
C1373 C1374 1.379 . S
C1374 H1358 0.931 . S
C1374 C1368 1.383 . S
C1374 C1373 1.379 . S
H1375 C1369 0.959 . S
H1376 C1369 0.961 . S
H1377 C1369 0.960 . S
H1378 C1370 0.930 . S
H1379 C1371 0.929 . S
H1380 C1388 0.929 . S
H1381 C1390 0.930 . S
H1382 C1392 0.930 . S
H1383 C1395 0.929 . S
H1384 C1398 0.938 . S
H1385 C1400 0.960 . S
H1386 C1400 0.960 1_545 S
H1387 C1400 0.960 . S
C1388 H1380 0.929 . S
C1388 C1389 1.377 . S
C1388 C1390 1.384 . S
C1389 C1388 1.377 . S
C1389 C1395 1.390 . S
C1390 H1381 0.930 . S
C1390 C1388 1.384 . S
C1390 C1391 1.372 . S
C1391 C1390 1.372 . S
C1391 C1392 1.400 . S
C1391 C1396 1.490 . S
C1392 H1382 0.930 . S
C1392 C1391 1.400 . S
C1392 C1395 1.386 . S
H1393 C1409 0.930 . S
H1394 C1410 0.931 . S
C1395 H1383 0.929 . S
C1395 C1389 1.390 . S
C1395 C1392 1.386 . S
C1396 C1391 1.490 . S
C1396 C1398 1.429 . S
C1396 C1399 1.405 . S
H1397 C1403 0.930 . S
C1398 H1384 0.938 . S
C1398 C1396 1.429 . S
C1398 C1401 1.364 1_554 S
C1399 C1396 1.405 . S
C1399 C1400 1.527 1_545 S
C1399 C1403 1.393 1_544 S
C1400 H1385 0.960 . S
C1400 H1386 0.960 1_565 S
C1400 H1387 0.960 . S
C1400 C1399 1.527 1_565 S
C1401 C1398 1.364 1_556 S
C1401 C1402 1.392 1_545 S
C1401 C1405 1.495 . S
C1402 C1401 1.392 1_565 S
C1402 C1403 1.385 . S
C1402 C1404 1.478 . S
C1403 H1397 0.930 . S
C1403 C1399 1.393 1_566 S
C1403 C1402 1.385 . S
C1404 C1402 1.478 . S
C1404 C1406 1.381 . S
C1404 C1410 1.383 . S
C1405 C1401 1.495 . S
C1405 H1411 0.959 . S
C1405 H1412 0.961 1_545 S
C1405 H1413 0.960 . S
C1406 C1404 1.381 . S
C1406 C1407 1.394 . S
C1406 H1414 0.930 . S
C1407 C1406 1.394 . S
C1407 C1408 1.383 . S
C1407 H1415 0.929 . S
C1408 C1407 1.383 . S
C1408 C1409 1.377 . S
C1409 H1393 0.930 . S
C1409 C1408 1.377 . S
C1409 C1410 1.379 . S
C1410 H1394 0.931 . S
C1410 C1404 1.383 . S
C1410 C1409 1.379 . S
H1411 C1405 0.959 . S
H1412 C1405 0.961 1_565 S
H1413 C1405 0.960 . S
H1414 C1406 0.930 . S
H1415 C1407 0.929 . S
H1416 C1424 0.929 . S
H1417 C1426 0.930 . S
H1418 C1428 0.930 . S
H1419 C1431 0.929 . S
H1420 C1434 0.930 . S
H1421 C1436 0.960 . S
H1422 C1436 0.960 . S
H1423 C1436 0.960 . S
C1424 H1416 0.929 . S
C1424 C1425 1.377 . S
C1424 C1426 1.384 . S
C1425 C1424 1.377 . S
C1425 C1431 1.390 . S
C1426 H1417 0.930 . S
C1426 C1424 1.384 . S
C1426 C1427 1.372 . S
C1427 C1426 1.372 . S
C1427 C1428 1.400 . S
C1427 C1432 1.490 . S
C1428 H1418 0.930 . S
C1428 C1427 1.400 . S
C1428 C1431 1.386 . S
H1429 C1445 0.930 . S
H1430 C1446 0.931 . S
C1431 H1419 0.929 . S
C1431 C1425 1.390 . S
C1431 C1428 1.386 . S
C1432 C1427 1.490 . S
C1432 C1434 1.395 . S
C1432 C1435 1.403 . S
H1433 C1439 0.930 . S
C1434 H1420 0.930 . S
C1434 C1432 1.395 . S
C1434 C1437 1.403 . S
C1435 C1432 1.403 . S
C1435 C1436 1.524 . S
C1435 C1439 1.400 . S
C1436 H1421 0.960 . S
C1436 H1422 0.960 . S
C1436 H1423 0.960 . S
C1436 C1435 1.524 . S
C1437 C1434 1.403 . S
C1437 C1438 1.392 . S
C1437 C1441 1.495 . S
C1438 C1437 1.392 . S
C1438 C1439 1.385 . S
C1438 C1440 1.478 . S
C1439 H1433 0.930 . S
C1439 C1435 1.400 . S
C1439 C1438 1.385 . S
C1440 C1438 1.478 . S
C1440 C1442 1.381 . S
C1440 C1446 1.383 . S
C1441 C1437 1.495 . S
C1441 H1447 0.959 . S
C1441 H1448 0.961 . S
C1441 H1449 0.960 . S
C1442 C1440 1.381 . S
C1442 C1443 1.394 . S
C1442 H1450 0.930 . S
C1443 C1442 1.394 . S
C1443 C1444 1.383 . S
C1443 H1451 0.929 . S
C1444 C1443 1.383 . S
C1444 C1445 1.377 . S
C1445 H1429 0.930 . S
C1445 C1444 1.377 . S
C1445 C1446 1.379 . S
C1446 H1430 0.931 . S
C1446 C1440 1.383 . S
C1446 C1445 1.379 . S
H1447 C1441 0.959 . S
H1448 C1441 0.961 . S
H1449 C1441 0.960 . S
H1450 C1442 0.930 . S
H1451 C1443 0.929 . S
H1452 C1460 0.929 . S
H1453 C1462 0.930 . S
H1454 C1464 0.930 . S
H1455 C1467 0.929 . S
H1456 C1470 0.930 . S
H1457 C1472 0.960 . S
H1458 C1472 0.960 . S
H1459 C1472 0.960 . S
C1460 H1452 0.929 . S
C1460 C1461 1.377 . S
C1460 C1462 1.384 . S
C1461 C1460 1.377 . S
C1461 C1467 1.390 . S
C1462 H1453 0.930 . S
C1462 C1460 1.384 . S
C1462 C1463 1.372 . S
C1463 C1462 1.372 . S
C1463 C1464 1.400 . S
C1463 C1468 1.490 . S
C1464 H1454 0.930 . S
C1464 C1463 1.400 . S
C1464 C1467 1.386 . S
H1465 C1481 0.930 . S
H1466 C1482 0.931 . S
C1467 H1455 0.929 . S
C1467 C1461 1.390 . S
C1467 C1464 1.386 . S
C1468 C1463 1.490 . S
C1468 C1470 1.395 1_655 S
C1468 C1471 1.403 . S
H1469 C1475 0.930 . S
C1470 H1456 0.930 . S
C1470 C1468 1.395 1_455 S
C1470 C1473 1.403 . S
C1471 C1468 1.403 . S
C1471 C1472 1.524 . S
C1471 C1475 1.400 . S
C1472 H1457 0.960 . S
C1472 H1458 0.960 . S
C1472 H1459 0.960 . S
C1472 C1471 1.524 . S
C1473 C1470 1.403 . S
C1473 C1474 1.392 . S
C1473 C1477 1.495 . S
C1474 C1473 1.392 . S
C1474 C1475 1.385 1_455 S
C1474 C1476 1.478 . S
C1475 H1469 0.930 . S
C1475 C1471 1.400 . S
C1475 C1474 1.385 1_655 S
C1476 C1474 1.478 . S
C1476 C1478 1.381 . S
C1476 C1482 1.383 . S
C1477 C1473 1.495 . S
C1477 H1483 0.959 . S
C1477 H1484 0.961 . S
C1477 H1485 0.960 . S
C1478 C1476 1.381 . S
C1478 C1479 1.394 . S
C1478 H1486 0.930 . S
C1479 C1478 1.394 . S
C1479 C1480 1.383 . S
C1479 H1487 0.929 . S
C1480 C1479 1.383 . S
C1480 C1481 1.377 . S
C1481 H1465 0.930 . S
C1481 C1480 1.377 . S
C1481 C1482 1.379 . S
C1482 H1466 0.931 . S
C1482 C1476 1.383 . S
C1482 C1481 1.379 . S
H1483 C1477 0.959 . S
H1484 C1477 0.961 . S
H1485 C1477 0.960 . S
H1486 C1478 0.930 . S
H1487 C1479 0.929 . S
C417 C5 0.352 . S
C436 C209 0.377 . S
C453 C243 0.348 . S
C472 C39 0.353 . S
C489 C73 0.344 . S
C508 C277 0.341 . S
C525 C107 0.340 . S
C544 C311 0.343 . S
C561 C141 0.352 . S
C580 C345 0.394 . S
C597 C175 0.350 . S
C616 C379 0.393 . S
C633 C213 1.189 . S
C652 C9 1.215 . S
C669 C43 1.186 . S
C688 C247 1.168 . S
C705 C281 1.192 . S
C724 C77 1.218 . S
C741 C315 1.188 . S
C760 C111 1.161 . S
C777 C349 1.190 . S
C796 C145 1.159 . S
C813 C179 1.196 . S
C832 C383 1.178 . S
C849 C172 1.382 . S
C868 C20 1.351 . S
C885 C2 1.383 . S
C904 C54 1.385 . S
C921 C88 1.366 . S
C940 C36 1.390 . S
C957 C70 1.381 . S
C976 C122 1.351 . S
C993 C104 1.387 . S
C1012 C156 1.334 . S
C1029 C138 1.383 . S
C1048 C190 1.386 . S
C1065 C240 1.386 . S
C1084 C224 1.333 . S
C1101 C258 1.366 . S
C1120 C274 1.362 . S
C1137 C308 1.387 . S
C1156 C292 1.359 . S
C1173 C342 1.382 . S
C1192 C326 1.355 . S
C1209 C376 1.388 . S
C1228 C360 1.336 . S
C1245 C206 1.382 . S
C1264 C394 1.386 . S
C1281 C33 1.225 . S
C1300 C271 1.214 . S
C1317 C67 1.233 . S
C1336 C305 1.206 . S
C1353 C101 1.233 . S
C1372 C339 1.213 . S
C1389 C373 1.232 . S
C1408 C135 1.201 . S
C1425 C169 1.224 . S
C1444 C407 1.251 . S
C1461 C237 1.222 . S
C1480 C203 1.236 . S
