# Generated by pormake.
# Topology rob, (6)-cn, num edge types: 1
# Building blocks:
#     Node 0, Type 0, BuildingBlock: PAMTOO_clean_sbu_0, # of connection points: 6
#     Node 1, Type 0, BuildingBlock: PAMTOO_clean_sbu_0, # of connection points: 6
#     Node 2, Type 0, BuildingBlock: PAMTOO_clean_sbu_0, # of connection points: 6
#     Node 3, Type 0, BuildingBlock: PAMTOO_clean_sbu_0, # of connection points: 6
#     Edge 4, Type (0, 0), BuildingBlock: FUNLAD_clean_linker_1, # of connection points: 2
#     Edge 5, Type (0, 0), BuildingBlock: FUNLAD_clean_linker_1, # of connection points: 2
#     Edge 6, Type (0, 0), BuildingBlock: FUNLAD_clean_linker_1, # of connection points: 2
#     Edge 7, Type (0, 0), BuildingBlock: FUNLAD_clean_linker_1, # of connection points: 2
#     Edge 8, Type (0, 0), BuildingBlock: FUNLAD_clean_linker_1, # of connection points: 2
#     Edge 9, Type (0, 0), BuildingBlock: FUNLAD_clean_linker_1, # of connection points: 2
#     Edge 10, Type (0, 0), BuildingBlock: FUNLAD_clean_linker_1, # of connection points: 2
#     Edge 11, Type (0, 0), BuildingBlock: FUNLAD_clean_linker_1, # of connection points: 2
#     Edge 12, Type (0, 0), BuildingBlock: FUNLAD_clean_linker_1, # of connection points: 2
#     Edge 13, Type (0, 0), BuildingBlock: FUNLAD_clean_linker_1, # of connection points: 2
#     Edge 14, Type (0, 0), BuildingBlock: FUNLAD_clean_linker_1, # of connection points: 2
#     Edge 15, Type (0, 0), BuildingBlock: FUNLAD_clean_linker_1, # of connection points: 2
# Relax obj value: 0.078
# Max RMSD: 0.194
# Mean RMSD: 0.194
data_MOF--net-rob--node1-PAMTOO_clean_sbu_0--edge1-FUNLAD_clean_linker_1
_symmetry_space_group_name_H-M    P1
_symmetry_Int_Tables_number       1
_symmetry_cell_setting            triclinic
loop_
_symmetry_equiv_pos_as_xyz
'x, y, z'
_cell_length_a     16.69705
_cell_length_b     26.395457
_cell_length_c     37.092001
_cell_angle_alpha  101.35263
_cell_angle_beta   89.800518
_cell_angle_gamma 90.059842
loop_
_atom_site_label
_atom_site_type_symbol
_atom_site_fract_x
_atom_site_fract_y
_atom_site_fract_z
_atom_type_partial_charge
Dy0 Dy 0.34021 0.2116 0.97658 0.0
Dy1 Dy 0.20067 0.27947 0.02881 0.0
C2 C 0.34646 0.33281 0.99546 0.0
O3 O 0.38984 0.23026 0.03381 0.0
O4 O 0.27018 0.23786 0.06493 0.0
O5 O 0.46289 0.20284 0.95769 0.0
O6 O 0.3739 0.14607 0.93462 0.0
O7 O 0.1544 0.19886 1.01177 0.0
O8 O 0.27326 0.15435 1.00179 0.0
O9 O 0.17564 0.29264 0.97222 0.0
O10 O 0.23547 0.2185 0.94065 0.0
O11 O 0.0779 0.29439 0.04685 0.0
O12 O 0.17354 0.34312 0.07321 0.0
C13 C 0.348 0.23121 0.064 0.0
O14 O 0.35098 0.2926 0.96866 0.0
O15 O 0.30488 0.33156 0.02533 0.0
C16 C 0.46562 0.17213 0.89399 0.0
C17 C 0.50344 0.19013 0.82343 0.0
C18 C 0.44436 0.21956 0.84503 0.0
C19 C 0.42538 0.21054 0.87985 0.0
C20 C 0.52459 0.1424 0.87269 0.0
C21 C 0.5436 0.15131 0.83761 0.0
C22 C 0.44559 0.1642 0.93107 0.0
C23 C 0.19591 0.15584 1.00813 0.0
C24 C 0.18788 0.25833 0.94184 0.0
C25 C 0.06887 0.32523 0.11091 0.0
C26 C 0.01855 0.31816 0.18245 0.0
C27 C 0.07606 0.28358 0.16373 0.0
C28 C 0.10096 0.28719 0.1283 0.0
C29 C 0.01081 0.35919 0.12915 0.0
C30 C 0.98552 0.35548 0.16454 0.0
C31 C 0.0982 0.33075 0.07448 0.0
H32 H 0.41278 0.24982 0.83497 0.0
H33 H 0.37952 0.23386 0.89593 0.0
H34 H 0.5564 0.11272 0.88329 0.0
H35 H 0.59082 0.1286 0.82226 0.0
H36 H 0.10124 0.25323 0.17596 0.0
H37 H 0.14559 0.26041 0.1145 0.0
H38 H 0.98544 0.38881 0.11613 0.0
H39 H 0.94056 0.38223 0.17813 0.0
Dy40 Dy 0.79699 0.7373 1.00381 0.0
Dy41 Dy 0.65841 0.8019 0.05881 0.0
C42 C 0.80168 0.85877 0.02933 0.0
O43 O 0.82518 0.72081 0.05958 0.0
O44 O 0.76482 0.79333 0.09331 0.0
O45 O 0.90859 0.73834 0.97417 0.0
O46 O 0.84122 0.66748 0.96867 0.0
O47 O 0.64838 0.71881 0.0619 0.0
O48 O 0.69025 0.68615 1.00331 0.0
O49 O 0.60324 0.78796 1.0028 0.0
O50 O 0.71897 0.77523 0.9682 0.0
O51 O 0.54018 0.80709 0.08335 0.0
O52 O 0.62565 0.86909 0.09938 0.0
C53 C 0.81216 0.75316 0.09094 0.0
O54 O 0.84314 0.81616 0.02764 0.0
O55 O 0.72367 0.85909 0.03293 0.0
C56 C 0.90606 0.68482 0.91557 0.0
C57 C 0.92086 0.68058 0.83899 0.0
C58 C 0.98695 0.66963 0.8598 0.0
C59 C 0.97954 0.67202 0.89775 0.0
C60 C 0.83955 0.69431 0.89482 0.0
C61 C 0.84686 0.69201 0.85692 0.0
C62 C 0.90023 0.69122 0.95592 0.0
C63 C 0.65037 0.68139 0.03299 0.0
C64 C 0.64159 0.78429 0.97136 0.0
C65 C 0.54592 0.84651 0.14591 0.0
C66 C 0.52479 0.84073 0.22049 0.0
C67 C 0.46879 0.86712 0.20257 0.0
C68 C 0.4794 0.86991 0.16551 0.0
C69 C 0.60196 0.82051 0.16375 0.0
C70 C 0.59177 0.818 0.20073 0.0
C71 C 0.55769 0.8491 0.10701 0.0
H72 H 0.04446 0.65906 0.84705 0.0
H73 H 0.03151 0.66442 0.91327 0.0
H74 H 0.78225 0.70424 0.90806 0.0
H75 H 0.79487 0.70029 0.84168 0.0
H76 H 0.41747 0.88627 0.21708 0.0
H77 H 0.43584 0.8904 0.1522 0.0
H78 H 0.6537 0.8021 0.14905 0.0
H79 H 0.63591 0.79759 0.2138 0.0
Dy80 Dy 0.31379 0.75654 0.54751 0.0
Dy81 Dy 0.15408 0.70862 0.49907 0.0
C82 C 0.29887 0.63856 0.51145 0.0
O83 O 0.32951 0.78073 0.49347 0.0
O84 O 0.25093 0.71765 0.45915 0.0
O85 O 0.42426 0.74093 0.57316 0.0
O86 O 0.38564 0.81991 0.57653 0.0
O87 O 0.15243 0.79448 0.50561 0.0
O88 O 0.21591 0.81459 0.56107 0.0
O89 O 0.11444 0.71466 0.55776 0.0
O90 O 0.23928 0.7194 0.58507 0.0
O91 O 0.03471 0.71696 0.47807 0.0
O92 O 0.10122 0.64637 0.45986 0.0
C93 C 0.30472 0.75442 0.46166 0.0
O94 O 0.3443 0.67955 0.51337 0.0
O95 O 0.22087 0.6428 0.51428 0.0
C96 C 0.4533 0.79946 0.62765 0.0
C97 C 0.49099 0.81055 0.70289 0.0
C98 C 0.41355 0.79525 0.69011 0.0
C99 C 0.39505 0.78963 0.65276 0.0
C100 C 0.52946 0.81635 0.64039 0.0
C101 C 0.54799 0.82211 0.67771 0.0
C102 C 0.43666 0.78925 0.588 0.0
C103 C 0.16801 0.82707 0.53633 0.0
C104 C 0.16123 0.71336 0.58617 0.0
C105 C 0.02644 0.67721 0.41523 0.0
C106 C 0.00668 0.67983 0.3399 0.0
C107 C 0.0776 0.69778 0.35831 0.0
C108 C 0.08711 0.69692 0.39559 0.0
C109 C 0.95533 0.65916 0.39709 0.0
C110 C 0.94532 0.66053 0.35971 0.0
C111 C 0.03937 0.67372 0.45403 0.0
H112 H 0.36707 0.78752 0.70867 0.0
H113 H 0.33567 0.77682 0.64337 0.0
H114 H 0.57512 0.82411 0.62136 0.0
H115 H 0.60781 0.83437 0.68678 0.0
H116 H 0.12587 0.71275 0.34382 0.0
H117 H 0.14241 0.71115 0.40897 0.0
H118 H 0.90804 0.64342 0.41167 0.0
H119 H 0.89051 0.64528 0.3463 0.0
Dy120 Dy 0.83977 0.27767 0.53201 0.0
Dy121 Dy 0.71002 0.20977 0.47473 0.0
C122 C 0.86077 0.15672 0.50429 0.0
O123 O 0.89529 0.26982 0.4761 0.0
O124 O 0.78105 0.25489 0.44095 0.0
O125 O 0.95754 0.28865 0.5564 0.0
O126 O 0.86304 0.34362 0.57523 0.0
O127 O 0.65622 0.28764 0.4957 0.0
O128 O 0.77165 0.33488 0.50748 0.0
O129 O 0.69241 0.18594 0.52875 0.0
O130 O 0.73196 0.26266 0.56434 0.0
O131 O 0.58735 0.19136 0.45836 0.0
O132 O 0.68543 0.15085 0.42701 0.0
C133 C 0.8574 0.26693 0.44472 0.0
O134 O 0.86404 0.19475 0.53296 0.0
O135 O 0.81688 0.15951 0.47555 0.0
C136 C 0.94933 0.32308 0.61978 0.0
C137 C 0.9708 0.31666 0.69399 0.0
C138 C 0.91864 0.28261 0.67158 0.0
C139 C 0.90796 0.28573 0.63476 0.0
C140 C 0.00218 0.35689 0.64191 0.0
C141 C 0.01303 0.3537 0.67882 0.0
C142 C 0.93458 0.32775 0.58157 0.0
C143 C 0.69447 0.33199 0.50124 0.0
C144 C 0.69405 0.21836 0.56042 0.0
C145 C 0.57225 0.16723 0.39408 0.0
C146 C 0.50965 0.17815 0.32549 0.0
C147 C 0.56803 0.21286 0.34329 0.0
C148 C 0.59873 0.20747 0.37734 0.0
C149 C 0.51384 0.13291 0.37676 0.0
C150 C 0.48285 0.13832 0.34276 0.0
C151 C 0.60851 0.15919 0.4285 0.0
H152 H 0.88606 0.25352 0.6826 0.0
H153 H 0.86668 0.25937 0.61807 0.0
H154 H 0.03406 0.38619 0.63081 0.0
H155 H 0.05269 0.38101 0.69565 0.0
H156 H 0.592 0.24343 0.33089 0.0
H157 H 0.64441 0.23409 0.39029 0.0
H158 H 0.4931 0.10143 0.38924 0.0
H159 H 0.43837 0.11086 0.32972 0.0
H160 H 0.57369 0.63164 0.05962 0.0
C161 C 0.60534 0.6339 0.0343 0.0
H162 H 0.62968 0.59636 0.97957 0.0
H163 H 0.50656 0.40849 0.06397 0.0
H164 H 0.63243 0.42207 0.09694 0.0
H165 H 0.72346 0.49261 0.08869 0.0
H166 H 0.6887 0.55041 0.04784 0.0
C167 C 0.60097 0.59422 1.00556 0.0
C168 C 0.55072 0.54842 1.00773 0.0
C169 C 0.57249 0.51469 0.03148 0.0
C170 C 0.52077 0.47344 0.03567 0.0
C171 C 0.54365 0.44045 0.05971 0.0
C172 C 0.61582 0.44774 0.07877 0.0
C173 C 0.66697 0.48753 0.0742 0.0
C174 C 0.646 0.52065 0.05082 0.0
H175 H 0.42425 0.37904 0.96635 0.0
C176 C 0.39172 0.37939 0.99186 0.0
H177 H 0.36698 0.42135 0.04538 0.0
H178 H 0.49341 0.60461 0.95867 0.0
H179 H 0.36871 0.59009 0.92483 0.0
H180 H 0.27826 0.51904 0.9326 0.0
H181 H 0.3121 0.46191 0.97406 0.0
C182 C 0.39625 0.42101 0.01912 0.0
C183 C 0.44845 0.46531 0.01545 0.0
C184 C 0.42734 0.49848 0.99122 0.0
C185 C 0.47896 0.53985 0.98712 0.0
C186 C 0.45644 0.57256 0.96284 0.0
C187 C 0.38496 0.56471 0.94327 0.0
C188 C 0.33409 0.52466 0.9476 0.0
C189 C 0.35452 0.49194 0.97135 0.0
H190 H 0.29652 0.55358 0.50504 0.0
C191 C 0.33558 0.58689 0.50646 0.0
H192 H 0.45524 0.61336 0.50765 0.0
H193 H 0.58635 0.42139 0.56823 0.0
H194 H 0.58664 0.48687 0.6241 0.0
H195 H 0.5259 0.57239 0.62548 0.0
H196 H 0.46382 0.5927 0.57104 0.0
C197 C 0.41534 0.58028 0.50488 0.0
C198 C 0.45196 0.52867 0.50354 0.0
C199 C 0.48967 0.51789 0.53535 0.0
C200 C 0.52624 0.46902 0.53433 0.0
C201 C 0.56021 0.45848 0.56703 0.0
C202 C 0.56018 0.49559 0.59943 0.0
C203 C 0.52588 0.5437 0.60022 0.0
C204 C 0.49064 0.55488 0.56871 0.0
H205 H 0.68392 0.41628 0.50622 0.0
C206 C 0.6501 0.38038 0.50201 0.0
H207 H 0.53523 0.34624 0.49402 0.0
H208 H 0.38603 0.53737 0.4375 0.0
H209 H 0.38482 0.47163 0.38167 0.0
H210 H 0.44849 0.38685 0.37981 0.0
H211 H 0.51395 0.36732 0.43376 0.0
C212 C 0.56999 0.38174 0.49907 0.0
C213 C 0.52703 0.43159 0.50111 0.0
C214 C 0.48781 0.44198 0.46951 0.0
C215 C 0.45055 0.49072 0.47066 0.0
C216 C 0.41401 0.50069 0.43837 0.0
C217 C 0.4132 0.46338 0.40607 0.0
C218 C 0.4491 0.41565 0.40501 0.0
C219 C 0.48634 0.40492 0.43622 0.0
H220 H 0.19075 0.07247 1.00847 0.0
C221 C 0.1551 0.10749 1.01128 0.0
H222 H 0.03882 0.13968 0.01917 0.0
H223 H 0.87826 0.92119 0.95833 0.0
H224 H 0.859 0.96295 0.90636 0.0
H225 H 0.92008 0.04784 0.90542 0.0
H226 H 0.00122 0.09128 0.9564 0.0
C227 C 0.07601 0.10551 0.0174 0.0
C228 C 0.03613 0.05581 0.01914 0.0
C229 C 0.98738 0.0316 0.98951 0.0
C230 C 0.95108 0.98314 0.99035 0.0
C231 C 0.90539 0.95873 0.95967 0.0
C232 C 0.8943 0.98211 0.92951 0.0
C233 C 0.92877 0.02986 0.92895 0.0
C234 C 0.97509 0.05441 0.95844 0.0
H235 H 0.80671 0.94214 0.0291 0.0
C236 C 0.84275 0.90746 0.02738 0.0
H237 H 0.9597 0.87605 0.02219 0.0
H238 H 0.12145 0.09392 0.08163 0.0
H239 H 0.1404 0.05235 0.13376 0.0
H240 H 0.07837 0.96782 0.13499 0.0
H241 H 0.99671 0.92449 0.08416 0.0
C242 C 0.92237 0.90995 0.02297 0.0
C243 C 0.96225 0.95969 0.02125 0.0
C244 C 0.01101 0.98392 0.05088 0.0
C245 C 0.04753 0.0323 0.04997 0.0
C246 C 0.09377 0.05657 0.08049 0.0
C247 C 0.10476 0.03328 0.1107 0.0
C248 C 0.06977 0.98572 0.11142 0.0
C249 C 0.02316 0.96122 0.08201 0.0
H250 H 0.89576 0.07676 0.48078 0.0
C251 C 0.90457 0.10832 0.50415 0.0
H252 H 0.96202 0.13215 0.55538 0.0
H253 H 0.99352 0.89998 0.57719 0.0
H254 H 0.90407 0.93674 0.62701 0.0
H255 H 0.85456 0.0261 0.63343 0.0
H256 H 0.89402 0.07911 0.58993 0.0
C257 C 0.95393 0.10162 0.53134 0.0
C258 C 0.99319 0.05072 0.5304 0.0
C259 C 0.97149 0.0208 0.55674 0.0
C260 C 0.00111 0.96953 0.55338 0.0
C261 C 0.97501 0.93963 0.57899 0.0
C262 C 0.92307 0.96013 0.60761 0.0
C263 C 0.89511 0.01041 0.6112 0.0
C264 C 0.9184 0.04046 0.58604 0.0
H265 H 0.15297 0.90714 0.56706 0.0
C266 C 0.13436 0.8797 0.54269 0.0
H267 H 0.06534 0.86783 0.49416 0.0
H268 H 0.05761 0.10082 0.47902 0.0
H269 H 0.14733 0.06424 0.42912 0.0
H270 H 0.19464 0.97431 0.42186 0.0
H271 H 0.15476 0.92099 0.46506 0.0
C272 C 0.08263 0.89452 0.51911 0.0
C273 C 0.05369 0.94874 0.52404 0.0
C274 C 0.07735 0.97928 0.49838 0.0
C275 C 0.04813 0.03059 0.5019 0.0
C276 C 0.07544 0.06094 0.47679 0.0
C277 C 0.12759 0.04059 0.44822 0.0
C278 C 0.15454 0.99005 0.44423 0.0
C279 C 0.13062 0.95973 0.46911 0.0
H280 H 0.44318 0.14745 0.27432 0.0
C281 C 0.47766 0.18043 0.28841 0.0
H282 H 0.51776 0.25564 0.28478 0.0
H283 H 0.44891 0.13837 0.11115 0.0
H284 H 0.56109 0.08338 0.11874 0.0
H285 H 0.62847 0.09165 0.1787 0.0
H286 H 0.58254 0.15408 0.23163 0.0
C287 C 0.48837 0.2204 0.27128 0.0
C288 C 0.45419 0.21939 0.23412 0.0
C289 C 0.48479 0.18471 0.20296 0.0
C290 C 0.44902 0.1821 0.16787 0.0
C291 C 0.47656 0.14414 0.13795 0.0
C292 C 0.54051 0.1119 0.142 0.0
C293 C 0.57821 0.1164 0.17579 0.0
C294 C 0.5509 0.15224 0.20601 0.0
H295 H 0.45372 0.2317 0.09986 0.0
C296 C 0.38931 0.22582 0.09812 0.0
H297 H 0.28387 0.20956 0.1252 0.0
H298 H 0.38027 0.28931 0.2883 0.0
H299 H 0.27047 0.34626 0.28051 0.0
H300 H 0.214 0.34583 0.21909 0.0
H301 H 0.26652 0.28839 0.16522 0.0
C302 C 0.34834 0.21522 0.12708 0.0
C303 C 0.38599 0.21649 0.1636 0.0
C304 C 0.35631 0.25173 0.19472 0.0
C305 C 0.38999 0.25284 0.23003 0.0
C306 C 0.35764 0.28734 0.26076 0.0
C307 C 0.29455 0.32024 0.2567 0.0
C308 C 0.2627 0.31996 0.22214 0.0
C309 C 0.2932 0.28645 0.19143 0.0
H310 H 0.56968 0.82748 0.27395 0.0
C311 C 0.51617 0.83609 0.25962 0.0
H312 H 0.39023 0.8453 0.26383 0.0
H313 H 0.46916 0.71646 0.39623 0.0
H314 H 0.51282 0.64665 0.34739 0.0
H315 H 0.51926 0.65859 0.28313 0.0
H316 H 0.48424 0.74057 0.2675 0.0
C317 C 0.44535 0.83759 0.27718 0.0
C318 C 0.43951 0.82914 0.31567 0.0
C319 C 0.45643 0.77993 0.32389 0.0
C320 C 0.44797 0.77199 0.36055 0.0
C321 C 0.47046 0.72366 0.36851 0.0
C322 C 0.49629 0.68341 0.3408 0.0
C323 C 0.50026 0.69022 0.30466 0.0
C324 C 0.48048 0.73774 0.29612 0.0
H325 H 0.30955 0.74452 0.40159 0.0
C326 C 0.33592 0.76574 0.42689 0.0
H327 H 0.41874 0.82363 0.4498 0.0
H328 H 0.40965 0.92911 0.30998 0.0
H329 H 0.36691 0.99886 0.35911 0.0
H330 H 0.34601 0.98386 0.42202 0.0
H331 H 0.3671 0.89908 0.43624 0.0
C332 C 0.39314 0.80093 0.42489 0.0
C333 C 0.41733 0.81206 0.38842 0.0
C334 C 0.40364 0.86176 0.38054 0.0
C335 C 0.41497 0.87031 0.34414 0.0
C336 C 0.4012 0.92038 0.33705 0.0
C337 C 0.37675 0.96077 0.36499 0.0
C338 C 0.36494 0.95231 0.40041 0.0
C339 C 0.37749 0.90342 0.40821 0.0
H340 H 0.53139 0.79484 0.94056 0.0
C341 C 0.59598 0.79007 0.93832 0.0
H342 H 0.69645 0.78169 0.90285 0.0
H343 H 0.52138 0.69444 0.75538 0.0
H344 H 0.58137 0.61628 0.76817 0.0
H345 H 0.64271 0.6153 0.82844 0.0
H346 H 0.64471 0.69256 0.87621 0.0
C347 C 0.63222 0.7879 0.9056 0.0
C348 C 0.5866 0.78785 0.8712 0.0
C349 C 0.58385 0.74201 0.84388 0.0
C350 C 0.54718 0.74235 0.80939 0.0
C351 C 0.54743 0.69629 0.78227 0.0
C352 C 0.58178 0.6511 0.78922 0.0
C353 C 0.61639 0.65056 0.82312 0.0
C354 C 0.61741 0.69528 0.85026 0.0
H355 H 0.56943 0.83587 0.75111 0.0
C356 C 0.51527 0.81426 0.74191 0.0
H357 H 0.42765 0.76378 0.7566 0.0
H358 H 0.58326 0.88285 0.91711 0.0
H359 H 0.51906 0.96025 0.90519 0.0
H360 H 0.4488 0.95954 0.84669 0.0
H361 H 0.44338 0.88154 0.7995 0.0
C362 C 0.47818 0.78899 0.76541 0.0
C363 C 0.51259 0.78847 0.80236 0.0
C364 C 0.51266 0.83386 0.83018 0.0
C365 C 0.55081 0.83378 0.86445 0.0
C366 C 0.5533 0.8803 0.89102 0.0
C367 C 0.51691 0.92509 0.88448 0.0
C368 C 0.47752 0.92473 0.8515 0.0
C369 C 0.4752 0.87977 0.82458 0.0
H370 H 0.65609 0.1617 0.59344 0.0
C371 C 0.65911 0.20272 0.59307 0.0
H372 H 0.6369 0.27849 0.62141 0.0
H373 H 0.46594 0.11364 0.71771 0.0
H374 H 0.38811 0.08036 0.66305 0.0
H375 H 0.40854 0.11384 0.60612 0.0
H376 H 0.50765 0.18006 0.60333 0.0
C377 C 0.6345 0.23767 0.62245 0.0
C378 C 0.61211 0.22267 0.65798 0.0
C379 C 0.55185 0.18503 0.65946 0.0
C380 C 0.53774 0.16721 0.69274 0.0
C381 C 0.47857 0.12886 0.69325 0.0
C382 C 0.43331 0.10951 0.66211 0.0
C383 C 0.445 0.12824 0.63003 0.0
C384 C 0.50301 0.16578 0.62864 0.0
H385 H 0.50414 0.24065 0.78247 0.0
C386 C 0.52355 0.20319 0.78727 0.0
H387 H 0.57914 0.13269 0.76233 0.0
H388 H 0.72453 0.30057 0.66656 0.0
H389 H 0.79219 0.33907 0.7227 0.0
H390 H 0.7697 0.30665 0.77985 0.0
H391 H 0.67585 0.23713 0.78149 0.0
C392 C 0.56309 0.17175 0.76009 0.0
C393 C 0.58095 0.18874 0.72492 0.0
C394 C 0.63833 0.22812 0.72399 0.0
C395 C 0.65316 0.24561 0.69065 0.0
C396 C 0.70999 0.28565 0.69089 0.0
C397 C 0.74998 0.308 0.72299 0.0
C398 C 0.73709 0.2899 0.75519 0.0
C399 C 0.68254 0.25017 0.75578 0.0
H400 H 0.83228 0.77325 0.15035 0.0
C401 C 0.84679 0.74464 0.12584 0.0
H402 H 0.90118 0.67241 0.10587 0.0
H403 H 0.0055 0.77212 0.28248 0.0
H404 H 0.07085 0.84012 0.25815 0.0
H405 H 0.06797 0.8406 0.19173 0.0
H406 H -0.0026 0.77362 0.14943 0.0
C407 C 0.88895 0.70267 0.12965 0.0
C408 C 0.91 0.69443 0.16733 0.0
C409 C 0.95646 0.73157 0.19137 0.0
C410 C 0.96268 0.72929 0.22932 0.0
C411 C 0.00268 0.76997 0.25313 0.0
C412 C 0.03993 0.80965 0.23956 0.0
C413 C 0.03798 0.81007 0.20221 0.0
C414 C 0.99675 0.77164 0.17828 0.0
H415 H 0.05589 0.68029 0.28443 0.0
C416 C 0.00043 0.68058 0.29996 0.0
H417 H 0.87437 0.68621 0.29745 0.0
H418 H 0.82248 0.61418 0.12834 0.0
H419 H 0.76668 0.54204 0.15151 0.0
H420 H 0.78544 0.53473 0.21618 0.0
H421 H 0.85916 0.60005 0.25834 0.0
C422 C 0.93079 0.68524 0.28271 0.0
C423 C 0.92749 0.68751 0.24273 0.0
C424 C 0.88604 0.64834 0.21807 0.0
C425 C 0.87675 0.65197 0.18047 0.0
C426 C 0.83247 0.61315 0.15697 0.0
C427 C 0.80002 0.57144 0.1699 0.0
C428 C 0.81047 0.56737 0.20634 0.0
C429 C 0.85279 0.60524 0.23027 0.0
H430 H 0.96543 0.28793 0.41614 0.0
C431 C 0.90256 0.27746 0.41265 0.0
H432 H 0.80675 0.2603 0.37512 0.0
H433 H 0.0386 0.38846 0.27946 0.0
H434 H 0.00818 0.46401 0.32638 0.0
H435 H 0.93359 0.45567 0.38245 0.0
H436 H 0.88992 0.3717 0.39221 0.0
C437 C 0.86868 0.27271 0.37931 0.0
C438 C 0.91576 0.27841 0.34619 0.0
C439 C 0.93943 0.32794 0.34066 0.0
C440 C 0.98008 0.33297 0.30774 0.0
C441 C 0.00532 0.38266 0.3034 0.0
C442 C 0.98867 0.4263 0.33021 0.0
C443 C 0.94685 0.42158 0.36183 0.0
C444 C 0.92233 0.3731 0.36714 0.0
H445 H 0.93099 0.33217 0.22825 0.0
C446 C 0.98917 0.31524 0.21989 0.0
H447 H 0.0895 0.27705 0.2372 0.0
H448 H 0.8826 0.17771 0.34909 0.0
H449 H 0.91269 0.10229 0.30208 0.0
H450 H 0.98062 0.11119 0.24448 0.0
H451 H 0.019 0.19552 0.23354 0.0
C452 C 0.03075 0.29376 0.24406 0.0
C453 C 0.99487 0.28864 0.28 0.0
C454 C 0.9733 0.23902 0.28604 0.0
C455 C 0.93353 0.23392 0.31911 0.0
C456 C 0.91228 0.18388 0.32433 0.0
C457 C 0.92934 0.14023 0.2976 0.0
C458 C 0.96764 0.14524 0.26519 0.0
C459 C 0.9894 0.19392 0.25929 0.0
H460 H 0.92425 0.30365 0.7473 0.0
C461 C 0.97746 0.31395 0.73338 0.0
H462 H 0.10123 0.32955 0.73783 0.0
H463 H 0.14082 0.39773 0.90713 0.0
H464 H 0.17343 0.47638 0.88591 0.0
H465 H 0.14938 0.48365 0.82158 0.0
H466 H 0.0936 0.41198 0.77789 0.0
C467 C 0.04733 0.32001 0.75159 0.0
C468 C 0.05337 0.31663 0.79121 0.0
C469 C 0.08368 0.35952 0.81677 0.0
C470 C 0.09562 0.35583 0.85415 0.0
C471 C 0.12925 0.39854 0.87859 0.0
C472 C 0.14835 0.44402 0.86678 0.0
C473 C 0.13489 0.44809 0.83055 0.0
C474 C 0.10304 0.40651 0.80572 0.0
H475 H 0.17218 0.23825 0.88214 0.0
C476 C 0.15243 0.2649 0.90677 0.0
H477 H 0.08171 0.33042 0.92761 0.0
H478 H 0.00218 0.22408 0.74944 0.0
H479 H 0.95559 0.14947 0.77222 0.0
H480 H 0.95776 0.14852 0.8386 0.0
H481 H 0.00954 0.22185 0.88234 0.0
C482 C 0.10056 0.30258 0.90348 0.0
C483 C 0.07535 0.30967 0.86617 0.0
C484 C 0.03861 0.26847 0.84136 0.0
C485 C 0.03124 0.27082 0.80352 0.0
C486 C 0.00358 0.22633 0.77881 0.0
C487 C 0.97752 0.1828 0.79149 0.0
C488 C 0.97918 0.18213 0.82881 0.0
C489 C 0.00958 0.22427 0.85356 0.0
H490 H 0.1703 0.70756 0.64417 0.0
C491 C 0.1278 0.70666 0.62188 0.0
H492 H 0.00506 0.69986 0.60746 0.0
H493 H 0.95906 0.59293 0.74893 0.0
H494 H 0.94182 0.51864 0.69943 0.0
H495 H 0.96048 0.52639 0.63473 0.0
H496 H 0.99704 0.60862 0.61912 0.0
C497 C 0.04951 0.70196 0.62901 0.0
C498 C 0.02338 0.69946 0.66721 0.0
C499 C -0.00071 0.65175 0.67587 0.0
C500 C 0.98741 0.6475 0.71326 0.0
C501 C 0.96727 0.59868 0.72109 0.0
C502 C 0.9575 0.55564 0.69292 0.0
C503 C 0.96811 0.55998 0.65648 0.0
C504 C 0.9891 0.60733 0.6479 0.0
H505 H 0.8711 0.67827 0.7832 0.0
C506 C 0.9265 0.68056 0.79879 0.0
H507 H 0.05142 0.69305 0.79649 0.0
H508 H 0.05595 0.79838 0.65965 0.0
H509 H 0.0694 0.87351 0.70886 0.0
H510 H 0.04999 0.86623 0.77361 0.0
H511 H 0.01673 0.78384 0.78956 0.0
C512 C 0.99574 0.68645 0.78131 0.0
C513 C -0.00163 0.69133 0.74188 0.0
C514 C 0.0178 0.73974 0.73297 0.0
C515 C 0.02972 0.74389 0.69565 0.0
C516 C 0.04801 0.79288 0.68759 0.0
C517 C 0.05539 0.83637 0.71555 0.0
C518 C 0.04441 0.83227 0.752 0.0
C519 C 0.02564 0.78469 0.76078 0.0
loop_
_geom_bond_atom_site_label_1
_geom_bond_atom_site_label_2
_geom_bond_distance
_geom_bond_site_symmetry_2
_ccdc_geom_bond_type
Dy0 O3 2.307 1_556 S
Dy0 O5 2.395 . S
Dy0 O6 2.379 . S
Dy0 O8 2.339 . S
Dy0 O10 2.298 . S
Dy0 O14 2.275 . S
Dy0 C22 2.738 . S
Dy1 O4 2.298 . S
Dy1 O7 2.275 . S
Dy1 O9 2.307 1_554 S
Dy1 O11 2.395 . S
Dy1 O12 2.379 . S
Dy1 O15 2.339 . S
Dy1 C31 2.738 . S
C2 O14 1.254 1_554 S
C2 O15 1.257 . S
O3 Dy0 2.307 1_554 S
O3 C13 1.266 . S
O4 Dy1 2.298 . S
O4 C13 1.236 . S
O5 Dy0 2.395 . S
O5 C22 1.255 . S
O6 Dy0 2.379 . S
O6 C22 1.249 . S
O7 Dy1 2.275 . S
O7 C23 1.254 1_554 S
O8 Dy0 2.339 . S
O8 C23 1.257 . S
O9 Dy1 2.307 1_556 S
O9 C24 1.266 . S
O10 Dy0 2.298 . S
O10 C24 1.236 . S
O11 Dy1 2.395 . S
O11 C31 1.255 . S
O12 Dy1 2.379 . S
O12 C31 1.249 . S
C13 O3 1.266 . S
C13 O4 1.236 . S
O14 Dy0 2.275 . S
O14 C2 1.254 1_556 S
O15 Dy1 2.339 . S
O15 C2 1.257 . S
C16 C19 1.344 . S
C16 C20 1.328 . S
C16 C22 1.516 . S
C17 C18 1.304 . S
C17 C21 1.323 . S
C18 C17 1.304 . S
C18 C19 1.371 . S
C18 H32 0.930 . S
C19 C16 1.344 . S
C19 C18 1.371 . S
C19 H33 0.931 . S
C20 C16 1.328 . S
C20 C21 1.433 . S
C20 H34 0.931 . S
C21 C17 1.323 . S
C21 C20 1.433 . S
C21 H35 0.933 . S
C22 Dy0 2.738 . S
C22 O5 1.255 . S
C22 O6 1.249 . S
C22 C16 1.516 . S
C23 O7 1.254 1_556 S
C23 O8 1.257 . S
C24 O9 1.266 . S
C24 O10 1.236 . S
C25 C28 1.344 . S
C25 C29 1.328 . S
C25 C31 1.516 . S
C26 C27 1.305 1_655 S
C26 C30 1.324 1_655 S
C27 C26 1.305 1_455 S
C27 C28 1.371 . S
C27 H36 0.930 . S
C28 C25 1.344 . S
C28 C27 1.371 . S
C28 H37 0.931 . S
C29 C25 1.328 . S
C29 C30 1.433 . S
C29 H38 0.931 . S
C30 C26 1.324 1_455 S
C30 C29 1.433 . S
C30 H39 0.933 . S
C31 Dy1 2.738 . S
C31 O11 1.255 . S
C31 O12 1.249 . S
C31 C25 1.516 . S
H32 C18 0.930 . S
H33 C19 0.931 . S
H34 C20 0.931 . S
H35 C21 0.933 . S
H36 C27 0.930 . S
H37 C28 0.931 . S
H38 C29 0.931 . S
H39 C30 0.933 . S
Dy40 O43 2.307 1_556 S
Dy40 O45 2.395 . S
Dy40 O46 2.379 . S
Dy40 O48 2.339 . S
Dy40 O50 2.298 . S
Dy40 O54 2.275 . S
Dy40 C62 2.738 . S
Dy41 O44 2.298 . S
Dy41 O47 2.275 . S
Dy41 O49 2.307 1_554 S
Dy41 O51 2.395 . S
Dy41 O52 2.379 . S
Dy41 O55 2.339 . S
Dy41 C71 2.738 . S
C42 O54 1.254 1_554 S
C42 O55 1.257 . S
O43 Dy40 2.307 1_554 S
O43 C53 1.266 . S
O44 Dy41 2.298 . S
O44 C53 1.236 . S
O45 Dy40 2.395 . S
O45 C62 1.255 . S
O46 Dy40 2.379 . S
O46 C62 1.249 . S
O47 Dy41 2.275 . S
O47 C63 1.254 1_554 S
O48 Dy40 2.339 . S
O48 C63 1.257 . S
O49 Dy41 2.307 1_556 S
O49 C64 1.266 . S
O50 Dy40 2.298 . S
O50 C64 1.236 . S
O51 Dy41 2.395 . S
O51 C71 1.255 . S
O52 Dy41 2.379 . S
O52 C71 1.249 . S
C53 O43 1.266 . S
C53 O44 1.236 . S
O54 Dy40 2.275 . S
O54 C42 1.254 1_556 S
O55 Dy41 2.339 . S
O55 C42 1.257 . S
C56 C59 1.344 . S
C56 C60 1.328 . S
C56 C62 1.516 . S
C57 C58 1.305 1_455 S
C57 C61 1.324 1_455 S
C58 C57 1.305 1_655 S
C58 C59 1.371 . S
C58 H72 0.930 . S
C59 C56 1.344 . S
C59 C58 1.371 . S
C59 H73 0.931 . S
C60 C56 1.328 . S
C60 C61 1.433 . S
C60 H74 0.931 . S
C61 C57 1.324 1_655 S
C61 C60 1.433 . S
C61 H75 0.933 . S
C62 Dy40 2.738 . S
C62 O45 1.255 . S
C62 O46 1.249 . S
C62 C56 1.516 . S
C63 O47 1.254 1_556 S
C63 O48 1.257 . S
C64 O49 1.266 . S
C64 O50 1.236 . S
C65 C68 1.344 . S
C65 C69 1.328 . S
C65 C71 1.516 . S
C66 C67 1.304 . S
C66 C70 1.323 . S
C67 C66 1.304 . S
C67 C68 1.371 . S
C67 H76 0.930 . S
C68 C65 1.344 . S
C68 C67 1.371 . S
C68 H77 0.931 . S
C69 C65 1.328 . S
C69 C70 1.433 . S
C69 H78 0.931 . S
C70 C66 1.323 . S
C70 C69 1.433 . S
C70 H79 0.933 . S
C71 Dy41 2.738 . S
C71 O51 1.255 . S
C71 O52 1.249 . S
C71 C65 1.516 . S
H72 C58 0.930 . S
H73 C59 0.931 . S
H74 C60 0.931 . S
H75 C61 0.933 . S
H76 C67 0.930 . S
H77 C68 0.931 . S
H78 C69 0.931 . S
H79 C70 0.933 . S
Dy80 O83 2.307 . S
Dy80 O85 2.395 . S
Dy80 O86 2.379 . S
Dy80 O88 2.339 . S
Dy80 O90 2.298 . S
Dy80 O94 2.275 . S
Dy80 C102 2.738 . S
Dy81 O84 2.298 . S
Dy81 O87 2.275 . S
Dy81 O89 2.307 . S
Dy81 O91 2.395 . S
Dy81 O92 2.379 . S
Dy81 O95 2.339 . S
Dy81 C111 2.738 . S
C82 O94 1.254 . S
C82 O95 1.257 . S
O83 Dy80 2.307 . S
O83 C93 1.266 . S
O84 Dy81 2.298 . S
O84 C93 1.236 . S
O85 Dy80 2.395 . S
O85 C102 1.255 . S
O86 Dy80 2.379 . S
O86 C102 1.249 . S
O87 Dy81 2.275 . S
O87 C103 1.254 . S
O88 Dy80 2.339 . S
O88 C103 1.257 . S
O89 Dy81 2.307 . S
O89 C104 1.266 . S
O90 Dy80 2.298 . S
O90 C104 1.236 . S
O91 Dy81 2.395 . S
O91 C111 1.255 . S
O92 Dy81 2.379 . S
O92 C111 1.249 . S
C93 O83 1.266 . S
C93 O84 1.236 . S
O94 Dy80 2.275 . S
O94 C82 1.254 . S
O95 Dy81 2.339 . S
O95 C82 1.257 . S
C96 C99 1.344 . S
C96 C100 1.328 . S
C96 C102 1.516 . S
C97 C98 1.304 . S
C97 C101 1.323 . S
C98 C97 1.304 . S
C98 C99 1.371 . S
C98 H112 0.930 . S
C99 C96 1.344 . S
C99 C98 1.371 . S
C99 H113 0.931 . S
C100 C96 1.328 . S
C100 C101 1.433 . S
C100 H114 0.931 . S
C101 C97 1.323 . S
C101 C100 1.433 . S
C101 H115 0.933 . S
C102 Dy80 2.738 . S
C102 O85 1.255 . S
C102 O86 1.249 . S
C102 C96 1.516 . S
C103 O87 1.254 . S
C103 O88 1.257 . S
C104 O89 1.266 . S
C104 O90 1.236 . S
C105 C108 1.344 . S
C105 C109 1.328 . S
C105 C111 1.516 . S
C106 C107 1.305 1_655 S
C106 C110 1.324 1_655 S
C107 C106 1.305 1_455 S
C107 C108 1.371 . S
C107 H116 0.930 . S
C108 C105 1.344 . S
C108 C107 1.371 . S
C108 H117 0.931 . S
C109 C105 1.328 . S
C109 C110 1.433 . S
C109 H118 0.931 . S
C110 C106 1.324 1_455 S
C110 C109 1.433 . S
C110 H119 0.933 . S
C111 Dy81 2.738 . S
C111 O91 1.255 . S
C111 O92 1.249 . S
C111 C105 1.516 . S
H112 C98 0.930 . S
H113 C99 0.931 . S
H114 C100 0.931 . S
H115 C101 0.933 . S
H116 C107 0.930 . S
H117 C108 0.931 . S
H118 C109 0.931 . S
H119 C110 0.933 . S
Dy120 O123 2.307 . S
Dy120 O125 2.395 . S
Dy120 O126 2.379 . S
Dy120 O128 2.339 . S
Dy120 O130 2.298 . S
Dy120 O134 2.275 . S
Dy120 C142 2.738 . S
Dy121 O124 2.298 . S
Dy121 O127 2.275 . S
Dy121 O129 2.307 . S
Dy121 O131 2.395 . S
Dy121 O132 2.379 . S
Dy121 O135 2.339 . S
Dy121 C151 2.738 . S
C122 O134 1.254 . S
C122 O135 1.257 . S
O123 Dy120 2.307 . S
O123 C133 1.266 . S
O124 Dy121 2.298 . S
O124 C133 1.236 . S
O125 Dy120 2.395 . S
O125 C142 1.255 . S
O126 Dy120 2.379 . S
O126 C142 1.249 . S
O127 Dy121 2.275 . S
O127 C143 1.254 . S
O128 Dy120 2.339 . S
O128 C143 1.257 . S
O129 Dy121 2.307 . S
O129 C144 1.266 . S
O130 Dy120 2.298 . S
O130 C144 1.236 . S
O131 Dy121 2.395 . S
O131 C151 1.255 . S
O132 Dy121 2.379 . S
O132 C151 1.249 . S
C133 O123 1.266 . S
C133 O124 1.236 . S
O134 Dy120 2.275 . S
O134 C122 1.254 . S
O135 Dy121 2.339 . S
O135 C122 1.257 . S
C136 C139 1.344 . S
C136 C140 1.328 . S
C136 C142 1.516 . S
C137 C138 1.305 1_455 S
C137 C141 1.324 1_455 S
C138 C137 1.305 1_655 S
C138 C139 1.371 . S
C138 H152 0.930 . S
C139 C136 1.344 . S
C139 C138 1.371 . S
C139 H153 0.931 . S
C140 C136 1.328 . S
C140 C141 1.433 . S
C140 H154 0.931 . S
C141 C137 1.324 1_655 S
C141 C140 1.433 . S
C141 H155 0.933 . S
C142 Dy120 2.738 . S
C142 O125 1.255 . S
C142 O126 1.249 . S
C142 C136 1.516 . S
C143 O127 1.254 . S
C143 O128 1.257 . S
C144 O129 1.266 . S
C144 O130 1.236 . S
C145 C148 1.344 . S
C145 C149 1.328 . S
C145 C151 1.516 . S
C146 C147 1.304 . S
C146 C150 1.323 . S
C147 C146 1.304 . S
C147 C148 1.371 . S
C147 H156 0.930 . S
C148 C145 1.344 . S
C148 C147 1.371 . S
C148 H157 0.931 . S
C149 C145 1.328 . S
C149 C150 1.433 . S
C149 H158 0.931 . S
C150 C146 1.323 . S
C150 C149 1.433 . S
C150 H159 0.933 . S
C151 Dy121 2.738 . S
C151 O131 1.255 . S
C151 O132 1.249 . S
C151 C145 1.516 . S
H152 C138 0.930 . S
H153 C139 0.931 . S
H154 C140 0.931 . S
H155 C141 0.933 . S
H156 C147 0.930 . S
H157 C148 0.931 . S
H158 C149 0.931 . S
H159 C150 0.933 . S
H160 C161 0.951 . S
C161 H160 0.951 . S
C161 C167 1.265 1_554 S
H162 C167 0.950 . S
H163 C171 0.949 . S
H164 C172 0.950 . S
H165 C173 0.951 . S
H166 C174 0.951 . S
C167 C161 1.265 1_556 S
C167 H162 0.950 . S
C167 C168 1.478 . S
C168 C167 1.478 . S
C168 C169 1.397 1_556 S
C168 C185 1.394 . S
C169 C168 1.397 1_554 S
C169 C170 1.438 . S
C169 C174 1.429 . S
C170 C169 1.438 . S
C170 C171 1.428 . S
C170 C183 1.394 . S
C171 H163 0.949 . S
C171 C170 1.428 . S
C171 C172 1.345 . S
C172 H164 0.950 . S
C172 C171 1.345 . S
C172 C173 1.424 . S
C173 H165 0.951 . S
C173 C172 1.424 . S
C173 C174 1.347 . S
C174 H166 0.951 . S
C174 C169 1.429 . S
C174 C173 1.347 . S
H175 C176 0.952 . S
C176 H175 0.952 . S
C176 C182 1.265 1_556 S
H177 C182 0.950 . S
H178 C186 0.949 . S
H179 C187 0.950 . S
H180 C188 0.951 . S
H181 C189 0.951 . S
C182 C176 1.265 1_554 S
C182 H177 0.950 . S
C182 C183 1.478 . S
C183 C170 1.394 . S
C183 C182 1.478 . S
C183 C184 1.397 1_554 S
C184 C183 1.397 1_556 S
C184 C185 1.438 . S
C184 C189 1.429 . S
C185 C168 1.394 . S
C185 C184 1.438 . S
C185 C186 1.428 . S
C186 H178 0.949 . S
C186 C185 1.428 . S
C186 C187 1.345 . S
C187 H179 0.950 . S
C187 C186 1.345 . S
C187 C188 1.424 . S
C188 H180 0.951 . S
C188 C187 1.424 . S
C188 C189 1.347 . S
C189 H181 0.951 . S
C189 C184 1.429 . S
C189 C188 1.347 . S
H190 C191 0.951 . S
C191 H190 0.951 . S
C191 C197 1.265 . S
H192 C197 0.950 . S
H193 C201 0.949 . S
H194 C202 0.950 . S
H195 C203 0.951 . S
H196 C204 0.951 . S
C197 C191 1.265 . S
C197 H192 0.950 . S
C197 C198 1.478 . S
C198 C197 1.478 . S
C198 C199 1.397 . S
C198 C215 1.394 . S
C199 C198 1.397 . S
C199 C200 1.438 . S
C199 C204 1.429 . S
C200 C199 1.438 . S
C200 C201 1.428 . S
C200 C213 1.394 . S
C201 H193 0.949 . S
C201 C200 1.428 . S
C201 C202 1.345 . S
C202 H194 0.950 . S
C202 C201 1.345 . S
C202 C203 1.424 . S
C203 H195 0.951 . S
C203 C202 1.424 . S
C203 C204 1.347 . S
C204 H196 0.951 . S
C204 C199 1.429 . S
C204 C203 1.347 . S
H205 C206 0.951 . S
C206 H205 0.951 . S
C206 C212 1.265 . S
H207 C212 0.950 . S
H208 C216 0.949 . S
H209 C217 0.950 . S
H210 C218 0.951 . S
H211 C219 0.951 . S
C212 C206 1.265 . S
C212 H207 0.950 . S
C212 C213 1.478 . S
C213 C200 1.394 . S
C213 C212 1.478 . S
C213 C214 1.397 . S
C214 C213 1.397 . S
C214 C215 1.438 . S
C214 C219 1.429 . S
C215 C198 1.394 . S
C215 C214 1.438 . S
C215 C216 1.428 . S
C216 H208 0.949 . S
C216 C215 1.428 . S
C216 C217 1.345 . S
C217 H209 0.950 . S
C217 C216 1.345 . S
C217 C218 1.424 . S
C218 H210 0.951 . S
C218 C217 1.424 . S
C218 C219 1.347 . S
C219 H211 0.951 . S
C219 C214 1.429 . S
C219 C218 1.347 . S
H220 C221 0.954 . S
C221 H220 0.954 . S
C221 C227 1.264 1_554 S
H222 C227 0.950 . S
H223 C231 0.949 . S
H224 C232 0.950 . S
H225 C233 0.951 . S
H226 C234 0.952 1_455 S
C227 C221 1.264 1_556 S
C227 H222 0.950 . S
C227 C228 1.478 . S
C228 C227 1.478 . S
C228 C229 1.397 . S
C228 C245 1.394 1_556 S
C229 C228 1.397 . S
C229 C230 1.437 1_445 S
C229 C234 1.429 1_455 S
C230 C229 1.437 1_665 S
C230 C231 1.428 . S
C230 C243 1.394 1_556 S
C231 H223 0.949 . S
C231 C230 1.428 . S
C231 C232 1.345 . S
C232 H224 0.950 . S
C232 C231 1.345 . S
C232 C233 1.424 1_565 S
C233 H225 0.951 . S
C233 C232 1.424 1_545 S
C233 C234 1.346 . S
C234 H226 0.952 1_655 S
C234 C229 1.429 1_655 S
C234 C233 1.346 . S
H235 C236 0.946 1_556 S
C236 H235 0.946 1_554 S
C236 C242 1.266 . S
H237 C242 0.950 . S
H238 C246 0.949 . S
H239 C247 0.950 . S
H240 C248 0.951 . S
H241 C249 0.952 1_655 S
C242 C236 1.266 . S
C242 H237 0.950 . S
C242 C243 1.478 . S
C243 C230 1.394 1_554 S
C243 C242 1.478 . S
C243 C244 1.397 . S
C244 C243 1.397 . S
C244 C245 1.437 1_665 S
C244 C249 1.429 1_655 S
C245 C228 1.394 1_554 S
C245 C244 1.437 1_445 S
C245 C246 1.428 . S
C246 H238 0.949 . S
C246 C245 1.428 . S
C246 C247 1.345 . S
C247 H239 0.950 . S
C247 C246 1.345 . S
C247 C248 1.424 1_545 S
C248 H240 0.951 . S
C248 C247 1.424 1_565 S
C248 C249 1.346 . S
C249 H241 0.952 1_455 S
C249 C244 1.429 1_455 S
C249 C248 1.346 . S
H250 C251 0.951 . S
C251 H250 0.951 . S
C251 C257 1.265 . S
H252 C257 0.950 . S
H253 C261 0.949 . S
H254 C262 0.950 . S
H255 C263 0.951 . S
H256 C264 0.951 1_655 S
C257 C251 1.265 . S
C257 H252 0.950 . S
C257 C258 1.478 . S
C258 C257 1.478 . S
C258 C259 1.397 1_655 S
C258 C275 1.394 . S
C259 C258 1.397 1_455 S
C259 C260 1.438 1_545 S
C259 C264 1.429 . S
C260 C259 1.438 1_565 S
C260 C261 1.428 . S
C260 C273 1.394 . S
C261 H253 0.949 . S
C261 C260 1.428 . S
C261 C262 1.345 1_565 S
C262 H254 0.950 . S
C262 C261 1.345 1_545 S
C262 C263 1.424 . S
C263 H255 0.951 . S
C263 C262 1.424 . S
C263 C264 1.347 . S
C264 H256 0.951 1_455 S
C264 C259 1.429 . S
C264 C263 1.347 . S
H265 C266 0.951 . S
C266 H265 0.951 . S
C266 C272 1.265 . S
H267 C272 0.950 . S
H268 C276 0.949 . S
H269 C277 0.950 . S
H270 C278 0.951 . S
H271 C279 0.951 1_455 S
C272 C266 1.265 . S
C272 H267 0.950 . S
C272 C273 1.478 . S
C273 C260 1.394 . S
C273 C272 1.478 . S
C273 C274 1.397 1_455 S
C274 C273 1.397 1_655 S
C274 C275 1.438 1_565 S
C274 C279 1.429 . S
C275 C258 1.394 . S
C275 C274 1.438 1_545 S
C275 C276 1.428 . S
C276 H268 0.949 . S
C276 C275 1.428 . S
C276 C277 1.345 1_545 S
C277 H269 0.950 . S
C277 C276 1.345 1_565 S
C277 C278 1.424 . S
C278 H270 0.951 . S
C278 C277 1.424 . S
C278 C279 1.347 . S
C279 H271 0.951 1_655 S
C279 C274 1.429 . S
C279 C278 1.347 . S
H280 C281 0.951 . S
C281 H280 0.951 . S
C281 C287 1.265 . S
H282 C287 0.950 . S
H283 C291 0.949 . S
H284 C292 0.950 . S
H285 C293 0.951 . S
H286 C294 0.951 . S
C287 C281 1.265 . S
C287 H282 0.950 . S
C287 C288 1.478 . S
C288 C287 1.478 . S
C288 C289 1.397 . S
C288 C305 1.394 . S
C289 C288 1.397 . S
C289 C290 1.438 . S
C289 C294 1.429 . S
C290 C289 1.438 . S
C290 C291 1.428 . S
C290 C303 1.394 . S
C291 H283 0.949 . S
C291 C290 1.428 . S
C291 C292 1.345 . S
C292 H284 0.950 . S
C292 C291 1.345 . S
C292 C293 1.424 . S
C293 H285 0.951 . S
C293 C292 1.424 . S
C293 C294 1.347 . S
C294 H286 0.951 . S
C294 C289 1.429 . S
C294 C293 1.347 . S
H295 C296 0.951 . S
C296 H295 0.951 . S
C296 C302 1.265 . S
H297 C302 0.950 . S
H298 C306 0.949 . S
H299 C307 0.950 . S
H300 C308 0.951 . S
H301 C309 0.951 . S
C302 C296 1.265 . S
C302 H297 0.950 . S
C302 C303 1.478 . S
C303 C290 1.394 . S
C303 C302 1.478 . S
C303 C304 1.397 . S
C304 C303 1.397 . S
C304 C305 1.438 . S
C304 C309 1.429 . S
C305 C288 1.394 . S
C305 C304 1.438 . S
C305 C306 1.428 . S
C306 H298 0.949 . S
C306 C305 1.428 . S
C306 C307 1.345 . S
C307 H299 0.950 . S
C307 C306 1.345 . S
C307 C308 1.424 . S
C308 H300 0.951 . S
C308 C307 1.424 . S
C308 C309 1.347 . S
C309 H301 0.951 . S
C309 C304 1.429 . S
C309 C308 1.347 . S
H310 C311 0.951 . S
C311 H310 0.951 . S
C311 C317 1.265 . S
H312 C317 0.950 . S
H313 C321 0.949 . S
H314 C322 0.950 . S
H315 C323 0.951 . S
H316 C324 0.951 . S
C317 C311 1.265 . S
C317 H312 0.950 . S
C317 C318 1.478 . S
C318 C317 1.478 . S
C318 C319 1.397 . S
C318 C335 1.394 . S
C319 C318 1.397 . S
C319 C320 1.438 . S
C319 C324 1.429 . S
C320 C319 1.438 . S
C320 C321 1.428 . S
C320 C333 1.394 . S
C321 H313 0.949 . S
C321 C320 1.428 . S
C321 C322 1.345 . S
C322 H314 0.950 . S
C322 C321 1.345 . S
C322 C323 1.424 . S
C323 H315 0.951 . S
C323 C322 1.424 . S
C323 C324 1.347 . S
C324 H316 0.951 . S
C324 C319 1.429 . S
C324 C323 1.347 . S
H325 C326 0.951 . S
C326 H325 0.951 . S
C326 C332 1.265 . S
H327 C332 0.950 . S
H328 C336 0.949 . S
H329 C337 0.950 . S
H330 C338 0.951 . S
H331 C339 0.951 . S
C332 C326 1.265 . S
C332 H327 0.950 . S
C332 C333 1.478 . S
C333 C320 1.394 . S
C333 C332 1.478 . S
C333 C334 1.397 . S
C334 C333 1.397 . S
C334 C335 1.438 . S
C334 C339 1.429 . S
C335 C318 1.394 . S
C335 C334 1.438 . S
C335 C336 1.428 . S
C336 H328 0.949 . S
C336 C335 1.428 . S
C336 C337 1.345 . S
C337 H329 0.950 . S
C337 C336 1.345 . S
C337 C338 1.424 . S
C338 H330 0.951 . S
C338 C337 1.424 . S
C338 C339 1.347 . S
C339 H331 0.951 . S
C339 C334 1.429 . S
C339 C338 1.347 . S
H340 C341 0.951 . S
C341 H340 0.951 . S
C341 C347 1.265 . S
H342 C347 0.950 . S
H343 C351 0.949 . S
H344 C352 0.950 . S
H345 C353 0.951 . S
H346 C354 0.951 . S
C347 C341 1.265 . S
C347 H342 0.950 . S
C347 C348 1.478 . S
C348 C347 1.478 . S
C348 C349 1.397 . S
C348 C365 1.394 . S
C349 C348 1.397 . S
C349 C350 1.438 . S
C349 C354 1.429 . S
C350 C349 1.438 . S
C350 C351 1.428 . S
C350 C363 1.394 . S
C351 H343 0.949 . S
C351 C350 1.428 . S
C351 C352 1.345 . S
C352 H344 0.950 . S
C352 C351 1.345 . S
C352 C353 1.424 . S
C353 H345 0.951 . S
C353 C352 1.424 . S
C353 C354 1.347 . S
C354 H346 0.951 . S
C354 C349 1.429 . S
C354 C353 1.347 . S
H355 C356 0.951 . S
C356 H355 0.951 . S
C356 C362 1.265 . S
H357 C362 0.950 . S
H358 C366 0.949 . S
H359 C367 0.950 . S
H360 C368 0.951 . S
H361 C369 0.951 . S
C362 C356 1.265 . S
C362 H357 0.950 . S
C362 C363 1.478 . S
C363 C350 1.394 . S
C363 C362 1.478 . S
C363 C364 1.397 . S
C364 C363 1.397 . S
C364 C365 1.438 . S
C364 C369 1.429 . S
C365 C348 1.394 . S
C365 C364 1.438 . S
C365 C366 1.428 . S
C366 H358 0.949 . S
C366 C365 1.428 . S
C366 C367 1.345 . S
C367 H359 0.950 . S
C367 C366 1.345 . S
C367 C368 1.424 . S
C368 H360 0.951 . S
C368 C367 1.424 . S
C368 C369 1.347 . S
C369 H361 0.951 . S
C369 C364 1.429 . S
C369 C368 1.347 . S
H370 C371 0.951 . S
C371 H370 0.951 . S
C371 C377 1.265 . S
H372 C377 0.950 . S
H373 C381 0.949 . S
H374 C382 0.950 . S
H375 C383 0.951 . S
H376 C384 0.951 . S
C377 C371 1.265 . S
C377 H372 0.950 . S
C377 C378 1.478 . S
C378 C377 1.478 . S
C378 C379 1.397 . S
C378 C395 1.394 . S
C379 C378 1.397 . S
C379 C380 1.438 . S
C379 C384 1.429 . S
C380 C379 1.438 . S
C380 C381 1.428 . S
C380 C393 1.394 . S
C381 H373 0.949 . S
C381 C380 1.428 . S
C381 C382 1.345 . S
C382 H374 0.950 . S
C382 C381 1.345 . S
C382 C383 1.424 . S
C383 H375 0.951 . S
C383 C382 1.424 . S
C383 C384 1.347 . S
C384 H376 0.951 . S
C384 C379 1.429 . S
C384 C383 1.347 . S
H385 C386 0.951 . S
C386 H385 0.951 . S
C386 C392 1.265 . S
H387 C392 0.950 . S
H388 C396 0.949 . S
H389 C397 0.950 . S
H390 C398 0.951 . S
H391 C399 0.951 . S
C392 C386 1.265 . S
C392 H387 0.950 . S
C392 C393 1.478 . S
C393 C380 1.394 . S
C393 C392 1.478 . S
C393 C394 1.397 . S
C394 C393 1.397 . S
C394 C395 1.438 . S
C394 C399 1.429 . S
C395 C378 1.394 . S
C395 C394 1.438 . S
C395 C396 1.428 . S
C396 H388 0.949 . S
C396 C395 1.428 . S
C396 C397 1.345 . S
C397 H389 0.950 . S
C397 C396 1.345 . S
C397 C398 1.424 . S
C398 H390 0.951 . S
C398 C397 1.424 . S
C398 C399 1.347 . S
C399 H391 0.951 . S
C399 C394 1.429 . S
C399 C398 1.347 . S
H400 C401 0.951 . S
C401 H400 0.951 . S
C401 C407 1.265 . S
H402 C407 0.950 . S
H403 C411 0.949 . S
H404 C412 0.950 1_455 S
H405 C413 0.951 1_455 S
H406 C414 0.951 . S
C407 C401 1.265 . S
C407 H402 0.950 . S
C407 C408 1.478 . S
C408 C407 1.478 . S
C408 C409 1.397 . S
C408 C425 1.394 . S
C409 C408 1.397 . S
C409 C410 1.438 . S
C409 C414 1.429 . S
C410 C409 1.438 . S
C410 C411 1.428 . S
C410 C423 1.394 . S
C411 H403 0.949 . S
C411 C410 1.428 . S
C411 C412 1.345 . S
C412 H404 0.950 1_655 S
C412 C411 1.345 . S
C412 C413 1.424 . S
C413 H405 0.951 1_655 S
C413 C412 1.424 . S
C413 C414 1.347 . S
C414 H406 0.951 . S
C414 C409 1.429 . S
C414 C413 1.347 . S
H415 C416 0.951 1_455 S
C416 H415 0.951 1_655 S
C416 C422 1.265 . S
H417 C422 0.950 . S
H418 C426 0.949 . S
H419 C427 0.950 . S
H420 C428 0.951 . S
H421 C429 0.951 . S
C422 C416 1.265 . S
C422 H417 0.950 . S
C422 C423 1.478 . S
C423 C410 1.394 . S
C423 C422 1.478 . S
C423 C424 1.397 . S
C424 C423 1.397 . S
C424 C425 1.438 . S
C424 C429 1.429 . S
C425 C408 1.394 . S
C425 C424 1.438 . S
C425 C426 1.428 . S
C426 H418 0.949 . S
C426 C425 1.428 . S
C426 C427 1.345 . S
C427 H419 0.950 . S
C427 C426 1.345 . S
C427 C428 1.424 . S
C428 H420 0.951 . S
C428 C427 1.424 . S
C428 C429 1.347 . S
C429 H421 0.951 . S
C429 C424 1.429 . S
C429 C428 1.347 . S
H430 C431 0.951 . S
C431 H430 0.951 . S
C431 C437 1.265 . S
H432 C437 0.950 . S
H433 C441 0.949 . S
H434 C442 0.950 . S
H435 C443 0.951 . S
H436 C444 0.951 . S
C437 C431 1.265 . S
C437 H432 0.950 . S
C437 C438 1.478 . S
C438 C437 1.478 . S
C438 C439 1.397 . S
C438 C455 1.394 . S
C439 C438 1.397 . S
C439 C440 1.438 . S
C439 C444 1.429 . S
C440 C439 1.438 . S
C440 C441 1.428 . S
C440 C453 1.394 . S
C441 H433 0.949 . S
C441 C440 1.428 . S
C441 C442 1.345 . S
C442 H434 0.950 . S
C442 C441 1.345 . S
C442 C443 1.424 . S
C443 H435 0.951 . S
C443 C442 1.424 . S
C443 C444 1.347 . S
C444 H436 0.951 . S
C444 C439 1.429 . S
C444 C443 1.347 . S
H445 C446 0.951 . S
C446 H445 0.951 . S
C446 C452 1.265 . S
H447 C452 0.950 1_455 S
H448 C456 0.949 . S
H449 C457 0.950 . S
H450 C458 0.951 . S
H451 C459 0.951 . S
C452 C446 1.265 . S
C452 H447 0.950 1_655 S
C452 C453 1.478 . S
C453 C440 1.394 . S
C453 C452 1.478 . S
C453 C454 1.397 . S
C454 C453 1.397 . S
C454 C455 1.438 . S
C454 C459 1.429 . S
C455 C438 1.394 . S
C455 C454 1.438 . S
C455 C456 1.428 . S
C456 H448 0.949 . S
C456 C455 1.428 . S
C456 C457 1.345 . S
C457 H449 0.950 . S
C457 C456 1.345 . S
C457 C458 1.424 . S
C458 H450 0.951 . S
C458 C457 1.424 . S
C458 C459 1.347 . S
C459 H451 0.951 . S
C459 C454 1.429 . S
C459 C458 1.347 . S
H460 C461 0.951 1_655 S
C461 H460 0.951 1_455 S
C461 C467 1.265 . S
H462 C467 0.950 . S
H463 C471 0.949 . S
H464 C472 0.950 . S
H465 C473 0.951 . S
H466 C474 0.951 . S
C467 C461 1.265 . S
C467 H462 0.950 . S
C467 C468 1.478 . S
C468 C467 1.478 . S
C468 C469 1.397 . S
C468 C485 1.394 . S
C469 C468 1.397 . S
C469 C470 1.438 . S
C469 C474 1.429 . S
C470 C469 1.438 . S
C470 C471 1.428 . S
C470 C483 1.394 . S
C471 H463 0.949 . S
C471 C470 1.428 . S
C471 C472 1.345 . S
C472 H464 0.950 . S
C472 C471 1.345 . S
C472 C473 1.424 . S
C473 H465 0.951 . S
C473 C472 1.424 . S
C473 C474 1.347 . S
C474 H466 0.951 . S
C474 C469 1.429 . S
C474 C473 1.347 . S
H475 C476 0.951 . S
C476 H475 0.951 . S
C476 C482 1.265 . S
H477 C482 0.950 . S
H478 C486 0.949 . S
H479 C487 0.950 . S
H480 C488 0.951 . S
H481 C489 0.951 . S
C482 C476 1.265 . S
C482 H477 0.950 . S
C482 C483 1.478 . S
C483 C470 1.394 . S
C483 C482 1.478 . S
C483 C484 1.397 . S
C484 C483 1.397 . S
C484 C485 1.438 . S
C484 C489 1.429 . S
C485 C468 1.394 . S
C485 C484 1.438 . S
C485 C486 1.428 . S
C486 H478 0.949 . S
C486 C485 1.428 . S
C486 C487 1.345 1_455 S
C487 H479 0.950 . S
C487 C486 1.345 1_655 S
C487 C488 1.424 . S
C488 H480 0.951 . S
C488 C487 1.424 . S
C488 C489 1.347 1_655 S
C489 H481 0.951 . S
C489 C484 1.429 . S
C489 C488 1.347 1_455 S
H490 C491 0.951 . S
C491 H490 0.951 . S
C491 C497 1.265 . S
H492 C497 0.950 . S
H493 C501 0.949 . S
H494 C502 0.950 1_655 S
H495 C503 0.951 . S
H496 C504 0.951 . S
C497 C491 1.265 . S
C497 H492 0.950 . S
C497 C498 1.478 . S
C498 C497 1.478 . S
C498 C499 1.397 . S
C498 C515 1.394 . S
C499 C498 1.397 . S
C499 C500 1.438 . S
C499 C504 1.429 . S
C500 C499 1.438 . S
C500 C501 1.428 . S
C500 C513 1.394 . S
C501 H493 0.949 . S
C501 C500 1.428 . S
C501 C502 1.345 . S
C502 H494 0.950 1_455 S
C502 C501 1.345 . S
C502 C503 1.424 . S
C503 H495 0.951 . S
C503 C502 1.424 . S
C503 C504 1.347 . S
C504 H496 0.951 . S
C504 C499 1.429 . S
C504 C503 1.347 . S
H505 C506 0.951 1_655 S
C506 H505 0.951 1_455 S
C506 C512 1.265 . S
H507 C512 0.950 . S
H508 C516 0.949 . S
H509 C517 0.950 . S
H510 C518 0.951 . S
H511 C519 0.951 . S
C512 C506 1.265 . S
C512 H507 0.950 . S
C512 C513 1.478 . S
C513 C500 1.394 . S
C513 C512 1.478 . S
C513 C514 1.397 . S
C514 C513 1.397 . S
C514 C515 1.438 . S
C514 C519 1.429 . S
C515 C498 1.394 . S
C515 C514 1.438 . S
C515 C516 1.428 . S
C516 H508 0.949 . S
C516 C515 1.428 . S
C516 C517 1.345 . S
C517 H509 0.950 . S
C517 C516 1.345 . S
C517 C518 1.424 . S
C518 H510 0.951 . S
C518 C517 1.424 . S
C518 C519 1.347 . S
C519 H511 0.951 . S
C519 C514 1.429 . S
C519 C518 1.347 . S
C161 C63 1.547 1_554 S
C176 C2 1.545 1_556 S
C191 C82 1.533 . S
C206 C143 1.533 . S
C221 C23 1.538 1_554 S
C236 C42 1.545 . S
C251 C122 1.536 . S
C266 C103 1.536 . S
C281 C146 1.235 . S
C296 C13 1.228 . S
C311 C66 1.177 . S
C326 C93 1.200 . S
C341 C64 1.237 . S
C356 C97 1.215 . S
C371 C144 1.205 . S
C386 C17 1.159 . S
C401 C53 1.205 . S
C416 C106 1.158 . S
C431 C133 1.231 . S
C446 C26 1.229 . S
C461 C137 1.161 . S
C476 C24 1.204 . S
C491 C104 1.203 . S
C506 C57 1.165 . S
