# Generated by pormake.
# Topology tfs, (6)-cn, num edge types: 1
# Building blocks:
#     Node 0, Type 0, BuildingBlock: BETFEN_clean_sbu_0, # of connection points: 6
#     Node 1, Type 0, BuildingBlock: BETFEN_clean_sbu_0, # of connection points: 6
#     Node 2, Type 0, BuildingBlock: BETFEN_clean_sbu_0, # of connection points: 6
#     Node 3, Type 0, BuildingBlock: BETFEN_clean_sbu_0, # of connection points: 6
#     Node 4, Type 0, BuildingBlock: BETFEN_clean_sbu_0, # of connection points: 6
#     Node 5, Type 0, BuildingBlock: BETFEN_clean_sbu_0, # of connection points: 6
#     Edge 6, Type (0, 0), BuildingBlock: XIVTED_clean_linker_0, # of connection points: 2
#     Edge 7, Type (0, 0), BuildingBlock: XIVTED_clean_linker_0, # of connection points: 2
#     Edge 8, Type (0, 0), BuildingBlock: XIVTED_clean_linker_0, # of connection points: 2
#     Edge 9, Type (0, 0), BuildingBlock: XIVTED_clean_linker_0, # of connection points: 2
#     Edge 10, Type (0, 0), BuildingBlock: XIVTED_clean_linker_0, # of connection points: 2
#     Edge 11, Type (0, 0), BuildingBlock: XIVTED_clean_linker_0, # of connection points: 2
#     Edge 12, Type (0, 0), BuildingBlock: XIVTED_clean_linker_0, # of connection points: 2
#     Edge 13, Type (0, 0), BuildingBlock: XIVTED_clean_linker_0, # of connection points: 2
#     Edge 14, Type (0, 0), BuildingBlock: XIVTED_clean_linker_0, # of connection points: 2
#     Edge 15, Type (0, 0), BuildingBlock: XIVTED_clean_linker_0, # of connection points: 2
#     Edge 16, Type (0, 0), BuildingBlock: XIVTED_clean_linker_0, # of connection points: 2
#     Edge 17, Type (0, 0), BuildingBlock: XIVTED_clean_linker_0, # of connection points: 2
#     Edge 18, Type (0, 0), BuildingBlock: XIVTED_clean_linker_0, # of connection points: 2
#     Edge 19, Type (0, 0), BuildingBlock: XIVTED_clean_linker_0, # of connection points: 2
#     Edge 20, Type (0, 0), BuildingBlock: XIVTED_clean_linker_0, # of connection points: 2
#     Edge 21, Type (0, 0), BuildingBlock: XIVTED_clean_linker_0, # of connection points: 2
#     Edge 22, Type (0, 0), BuildingBlock: XIVTED_clean_linker_0, # of connection points: 2
#     Edge 23, Type (0, 0), BuildingBlock: XIVTED_clean_linker_0, # of connection points: 2
# Relax obj value: 0.560
# Max RMSD: 0.459
# Mean RMSD: 0.360
data_MOF--net-tfs--node1-BETFEN_clean_sbu_0--edge1-XIVTED_clean_linker_0
_symmetry_space_group_name_H-M    P1
_symmetry_Int_Tables_number       1
_symmetry_cell_setting            triclinic
loop_
_symmetry_equiv_pos_as_xyz
'x, y, z'
_cell_length_a     50.950718
_cell_length_b     46.876193
_cell_length_c     12.919693
_cell_angle_alpha  101.83118
_cell_angle_beta   80.656315
_cell_angle_gamma 112.37344
loop_
_atom_site_label
_atom_site_type_symbol
_atom_site_fract_x
_atom_site_fract_y
_atom_site_fract_z
_atom_type_partial_charge
Pr0 Pr 0.23794 0.39063 0.29327 0.0
Pr1 Pr 0.22036 0.43791 0.20554 0.0
C2 C 0.25536 0.36181 0.41242 0.0
C3 C 0.244 0.33772 0.48174 0.0
C4 C 0.22249 0.30891 0.45157 0.0
C5 C 0.21555 0.2845 0.50959 0.0
C6 C 0.23001 0.28853 0.59857 0.0
C7 C 0.24967 0.31834 0.63365 0.0
C8 C 0.2566 0.34268 0.57558 0.0
C9 C 0.24632 0.38863 0.07523 0.0
C10 C 0.1707 0.36752 0.25154 0.0
C11 C 0.20141 0.46401 0.08134 0.0
C12 C 0.21197 0.48579 0.00443 0.0
C13 C 0.23954 0.49279 0.95242 0.0
C14 C 0.25003 0.51583 0.88694 0.0
C15 C 0.23328 0.53266 0.8745 0.0
C16 C 0.20513 0.52428 0.92312 0.0
C17 C 0.1946 0.501 -0.0129 0.0
C18 C 0.2125 0.44023 0.42365 0.0
C19 C 0.28646 0.4626 0.26075 0.0
O20 O 0.25165 0.38837 0.44865 0.0
O21 O 0.2527 0.35244 0.3105 0.0
O22 O 0.25148 0.41255 0.1442 0.0
O23 O 0.23602 0.36315 0.11747 0.0
O24 O 0.17845 0.39178 0.20038 0.0
O25 O 0.18901 0.36322 0.30268 0.0
O26 O 0.20462 0.43699 0.05115 0.0
O27 O 0.20637 0.47611 0.18036 0.0
O28 O 0.2073 0.41645 0.35435 0.0
O29 O 0.22211 0.46574 0.38158 0.0
O30 O 0.27846 0.43789 0.30989 0.0
O31 O 0.26909 0.46647 0.20368 0.0
H32 H 0.21202 0.30477 0.38043 0.0
H33 H 0.19994 0.26201 0.48165 0.0
H34 H 0.2614 0.32233 0.70128 0.0
H35 H 0.273 0.36488 0.6008 0.0
H36 H 0.25326 0.48126 0.96545 0.0
H37 H 0.27162 0.52129 0.84964 0.0
H38 H 0.19168 0.53695 0.91756 0.0
H39 H 0.17324 0.4958 0.02678 0.0
Pr40 Pr 0.83184 0.2324 0.62699 0.0
Pr41 Pr 0.7723 0.21953 0.54675 0.0
C42 C 0.88185 0.24575 0.70493 0.0
C43 C 0.91205 0.25854 0.66166 0.0
C44 C 0.92313 0.28673 0.62014 0.0
C45 C 0.951 0.29696 0.57097 0.0
C46 C 0.96838 0.2791 0.5612 0.0
C47 C 0.95725 0.25107 0.60408 0.0
C48 C 0.9295 0.24101 0.65396 0.0
C49 C 0.83271 0.2395 0.41827 0.0
C50 C 0.79584 0.16169 0.51843 0.0
C51 C 0.72435 0.20585 0.45475 0.0
C52 C 0.69697 0.20944 0.49734 0.0
C53 C 0.67149 0.18728 0.46031 0.0
C54 C 0.64519 0.1883 0.50932 0.0
C55 C 0.64394 0.21155 0.59627 0.0
C56 C 0.66958 0.23406 0.63186 0.0
C57 C 0.69583 0.2329 0.58329 0.0
C58 C 0.76895 0.21111 0.75376 0.0
C59 C 0.80351 0.28854 0.68291 0.0
O60 O 0.86702 0.21793 0.65869 0.0
O61 O 0.86749 0.26458 0.728 0.0
O62 O 0.81844 0.24816 0.49729 0.0
O63 O 0.84921 0.22775 0.44625 0.0
O64 O 0.78399 0.17507 0.46841 0.0
O65 O 0.81131 0.17795 0.59822 0.0
O66 O 0.74652 0.23154 0.44634 0.0
O67 O 0.72986 0.18534 0.4937 0.0
O68 O 0.78541 0.20384 0.67921 0.0
O69 O 0.75232 0.22225 0.72285 0.0
O70 O 0.82156 0.27756 0.70947 0.0
O71 O 0.78435 0.27213 0.61514 0.0
H72 H 0.91016 0.3007 0.62407 0.0
H73 H 0.95889 0.31891 0.54075 0.0
H74 H 0.96969 0.23637 0.5969 0.0
H75 H 0.92138 0.21904 0.68433 0.0
H76 H 0.67194 0.16876 0.39501 0.0
H77 H 0.62583 0.17084 0.47927 0.0
H78 H 0.66936 0.25204 0.69933 0.0
H79 H 0.71524 0.24987 0.61472 0.0
Pr80 Pr 0.65536 0.78039 0.40955 0.0
Pr81 Pr 0.61386 0.71597 0.28378 0.0
C82 C 0.68504 0.83203 0.53764 0.0
C83 C 0.69772 0.86553 0.52888 0.0
C84 C 0.69712 0.87577 0.43481 0.0
C85 C 0.70912 0.90759 0.42643 0.0
C86 C 0.72193 0.92986 0.51213 0.0
C87 C 0.72231 0.91937 0.60646 0.0
C88 C 0.71032 0.88751 0.61464 0.0
C89 C 0.67126 0.7674 0.19361 0.0
C90 C 0.66333 0.71335 0.41095 0.0
C91 C 0.58014 0.66714 0.15656 0.0
C92 C 0.54972 0.64668 0.16606 0.0
C93 C 0.52863 0.65892 0.21404 0.0
C94 C 0.50002 0.63931 0.22554 0.0
C95 C 0.49182 0.60693 0.19034 0.0
C96 C 0.51303 0.59471 0.14287 0.0
C97 C 0.54167 0.61442 0.13064 0.0
C98 C 0.59638 0.72942 0.49816 0.0
C99 C 0.6116 0.78453 0.25744 0.0
O100 O 0.69689 0.81399 0.47283 0.0
O101 O 0.65716 0.81995 0.54577 0.0
O102 O 0.66051 0.74753 0.25582 0.0
O103 O 0.67739 0.79552 0.24641 0.0
O104 O 0.64935 0.70109 0.32494 0.0
O105 O 0.66481 0.74097 0.46634 0.0
O106 O 0.58565 0.69629 0.14843 0.0
O107 O 0.5964 0.66414 0.21901 0.0
O108 O 0.60847 0.74901 0.43587 0.0
O109 O 0.58873 0.70149 0.44446 0.0
O110 O 0.62585 0.79872 0.34179 0.0
O111 O 0.60721 0.75504 0.21638 0.0
H112 H 0.68742 0.8591 0.36768 0.0
H113 H 0.7087 0.91466 0.35223 0.0
H114 H 0.73154 0.93581 0.67469 0.0
H115 H 0.71082 0.88006 0.6881 0.0
H116 H 0.53428 0.68367 0.24358 0.0
H117 H 0.48435 0.64945 0.26385 0.0
H118 H 0.50745 0.56994 0.11408 0.0
H119 H 0.55758 0.60443 0.09394 0.0
Pr120 Pr 0.80965 0.56277 0.6564 0.0
Pr121 Pr 0.75166 0.53848 0.80302 0.0
C122 C 0.85236 0.58358 0.50579 0.0
C123 C 0.88358 0.59558 0.48984 0.0
C124 C 0.90003 0.60663 0.57667 0.0
C125 C 0.92971 0.62006 0.56048 0.0
C126 C 0.9434 0.62258 0.45714 0.0
C127 C 0.92674 0.61074 0.37037 0.0
C128 C 0.89707 0.59739 0.38672 0.0
C129 C 0.81306 0.58255 0.87393 0.0
C130 C 0.75857 0.59337 0.67161 0.0
C131 C 0.70887 0.52295 0.9569 0.0
C132 C 0.67947 0.52209 0.97218 0.0
C133 C 0.66555 0.51995 0.88434 0.0
C134 C 0.63697 0.51693 0.89728 0.0
C135 C 0.62181 0.51638 -0.00132 0.0
C136 C 0.63645 0.52042 0.08737 0.0
C137 C 0.66506 0.52313 0.07405 0.0
C138 C 0.74849 0.51814 0.58495 0.0
C139 C 0.79736 0.5007 0.76395 0.0
O140 O 0.8409 0.60163 0.57237 0.0
O141 O 0.8397 0.55396 0.51413 0.0
O142 O 0.7933 0.58032 0.82233 0.0
O143 O 0.83373 0.57706 0.81029 0.0
O144 O 0.74571 0.58065 0.7569 0.0
O145 O 0.78072 0.58762 0.61551 0.0
O146 O 0.71429 0.50241 0.87963 0.0
O147 O 0.72866 0.5508 0.96074 0.0
O148 O 0.76818 0.52094 0.63777 0.0
O149 O 0.72754 0.52333 0.6479 0.0
O150 O 0.81089 0.51534 0.68247 0.0
O151 O 0.77766 0.50887 0.82961 0.0
H152 H 0.88988 0.60545 0.65696 0.0
H153 H 0.94185 0.62923 0.6291 0.0
H154 H 0.93662 0.61185 0.28975 0.0
H155 H 0.88462 0.58888 0.31887 0.0
H156 H 0.67652 0.51959 0.80514 0.0
H157 H 0.62649 0.51338 0.82674 0.0
H158 H 0.62562 0.52063 0.16673 0.0
H159 H 0.67575 0.52535 0.14289 0.0
Pr160 Pr 0.29053 0.79995 0.18589 0.0
Pr161 Pr 0.35116 0.81875 0.04737 0.0
C162 C 0.24532 0.78578 0.33195 0.0
C163 C 0.21432 0.76984 0.3395 0.0
C164 C 0.19986 0.75585 0.24806 0.0
C165 C 0.17037 0.73977 0.25716 0.0
C166 C 0.15498 0.73736 0.35788 0.0
C167 C 0.16968 0.75174 0.44906 0.0
C168 C 0.1991 0.76783 0.43982 0.0
C169 C 0.29333 0.82385 0.0021 0.0
C170 C 0.34497 0.86376 0.27158 0.0
C171 C 0.39813 0.83533 0.91079 0.0
C172 C 0.42834 0.84622 0.92838 0.0
C173 C 0.43616 0.85456 0.0326 0.0
C174 C 0.46362 0.85886 0.05237 0.0
C175 C 0.4839 0.855 0.96809 0.0
C176 C 0.4765 0.84892 0.8631 0.0
C177 C 0.44883 0.84432 0.84349 0.0
C178 C 0.34854 0.79277 0.22664 0.0
C179 C 0.29862 0.75128 0.97375 0.0
O180 O 0.25546 0.81218 0.29408 0.0
O181 O 0.26038 0.76794 0.29713 0.0
O182 O 0.31252 0.8333 0.06477 0.0
O183 O 0.27018 0.80398 0.04214 0.0
O184 O 0.35879 0.86346 0.17575 0.0
O185 O 0.32093 0.84114 0.29516 0.0
O186 O 0.38362 0.80637 0.92443 0.0
O187 O 0.38471 0.85438 0.95458 0.0
O188 O 0.32909 0.78489 0.16603 0.0
O189 O 0.37183 0.81237 0.18664 0.0
O190 O 0.28422 0.75394 0.06774 0.0
O191 O 0.32221 0.77369 0.94356 0.0
H192 H 0.21143 0.75711 0.16993 0.0
H193 H 0.15971 0.72869 0.1855 0.0
H194 H 0.15841 0.75072 0.52766 0.0
H195 H 0.21003 0.77855 0.51113 0.0
H196 H 0.42054 0.85598 0.09925 0.0
H197 H 0.46821 0.86307 0.13423 0.0
H198 H 0.49169 0.84634 0.79618 0.0
H199 H 0.4431 0.83786 0.7625 0.0
Pr200 Pr 0.37681 0.16365 0.87579 0.0
Pr201 Pr 0.39736 0.22559 0.78181 0.0
C202 C 0.36549 0.11738 -0.01241 0.0
C203 C 0.37564 0.09116 0.96704 0.0
C204 C 0.35596 0.06111 0.97645 0.0
C205 C 0.36234 0.03494 0.92514 0.0
C206 C 0.38856 0.0385 0.86361 0.0
C207 C 0.40939 0.06862 0.86453 0.0
C208 C 0.40291 0.09478 0.91515 0.0
C209 C 0.38985 0.15691 0.65654 0.0
C210 C 0.3309 0.18001 0.78366 0.0
C211 C 0.40607 0.27459 0.6858 0.0
C212 C 0.41595 0.30847 0.72336 0.0
C213 C 0.43778 0.32878 0.66334 0.0
C214 C 0.45072 0.36017 0.7063 0.0
C215 C 0.44198 0.37174 0.81014 0.0
C216 C 0.41869 0.3518 0.86691 0.0
C217 C 0.40591 0.32041 0.82426 0.0
C218 C 0.38544 0.23087 0.002 0.0
C219 C 0.44736 0.20693 0.84544 0.0
O220 O 0.34917 0.11621 0.91716 0.0
O221 O 0.3843 0.14539 0.01354 0.0
O222 O 0.40326 0.17867 0.72389 0.0
O223 O 0.36895 0.13589 0.70223 0.0
O224 O 0.35313 0.19372 0.71965 0.0
O225 O 0.33455 0.17163 0.8701 0.0
O226 O 0.42509 0.26159 0.67793 0.0
O227 O 0.38105 0.25802 0.72715 0.0
O228 O 0.3711 0.21036 0.93398 0.0
O229 O 0.4069 0.25132 0.95655 0.0
O230 O 0.42674 0.18497 0.89297 0.0
O231 O 0.44186 0.2241 0.78882 0.0
H232 H 0.33473 0.05787 0.01524 0.0
H233 H 0.34568 1.01216 0.92574 0.0
H234 H 0.42997 0.07213 0.81967 0.0
H235 H 0.41842 0.11778 0.90624 0.0
H236 H 0.44587 0.32 0.58555 0.0
H237 H 0.46884 0.37474 0.66083 0.0
H238 H 0.41123 0.36008 0.94645 0.0
H239 H 0.38909 0.30524 0.8725 0.0
H240 H 0.28815 0.18693 0.9334 0.0
H241 H 0.23035 0.28346 0.80719 0.0
H242 H 0.311 0.17437 0.59537 0.0
H243 H 0.22799 0.23138 0.48971 0.0
H244 H 0.24332 0.24494 0.86675 0.0
H245 H 0.24953 0.20259 0.90391 0.0
C246 C 0.28449 0.18663 0.85282 0.0
C247 C 0.3031 0.18013 0.76671 0.0
C248 C 0.23882 0.2411 0.78501 0.0
C249 C 0.25985 0.19888 0.73262 0.0
C250 C 0.23167 0.26338 0.7507 0.0
C251 C 0.22876 0.26112 0.64276 0.0
C252 C 0.24325 0.21652 0.71046 0.0
C253 C 0.23018 0.2343 0.57354 0.0
C254 C 0.26274 0.19603 0.83611 0.0
C255 C 0.29745 0.1799 0.66399 0.0
N256 N 0.23805 0.21354 0.60802 0.0
N257 N 0.27658 0.18962 0.64993 0.0
H258 H 0.12435 0.37402 0.18838 0.0
H259 H 1.01624 0.27267 0.61029 0.0
H260 H 0.14668 0.31927 0.36621 0.0
H261 H 0.98817 0.30933 0.38599 0.0
H262 H 0.06409 0.28954 0.51957 0.0
H263 H 0.07428 0.34991 0.2544 0.0
C264 C 0.11874 0.35654 0.23959 0.0
C265 C 0.13993 0.34893 0.27237 0.0
C266 C 0.04744 0.29377 0.48972 0.0
C267 C 0.08268 0.32172 0.34989 0.0
C268 C 1.01997 0.284 0.54141 0.0
C269 C 0.99787 0.28949 0.5062 0.0
C270 C 0.0532 0.30951 0.40236 0.0
C271 C 1.00448 0.30499 0.41753 0.0
C272 C 0.09013 0.3429 0.27773 0.0
C273 C 0.13125 0.32613 0.33915 0.0
N274 N 0.03152 0.31457 0.3691 0.0
N275 N 0.10344 0.31368 0.37658 0.0
H276 H 0.75504 0.11756 0.3949 0.0
H277 H 0.77105 0.97364 0.59045 0.0
H278 H 0.8184 0.12709 0.59745 0.0
H279 H 0.70238 0.96379 0.41321 0.0
H280 H 0.79104 0.02937 0.57995 0.0
H281 H 0.73844 0.06068 0.38392 0.0
C282 C 0.76575 0.10773 0.43577 0.0
C283 C 0.78807 0.12723 0.49773 0.0
C284 C 0.77164 1.01503 0.54301 0.0
C285 C 0.76896 0.06212 0.48631 0.0
C286 C 0.76007 0.98316 0.54964 0.0
C287 C 0.73481 0.96383 0.50336 0.0
C288 C 0.75795 0.02792 0.48964 0.0
C289 C 0.722 0.97759 0.44938 0.0
C290 C 0.75613 0.07524 0.43 0.0
C291 C 0.80102 0.11308 0.54924 0.0
N292 N 0.73362 1.00874 0.44442 0.0
N293 N 0.79119 0.08151 0.54286 0.0
H294 H 0.78556 0.64406 0.56807 0.0
H295 H 0.6463 0.65017 0.39739 0.0
H296 H 0.70238 0.58457 0.68314 0.0
H297 H 0.71329 0.73622 0.50468 0.0
H298 H 0.67021 0.62108 0.46013 0.0
H299 H 0.76286 0.67417 0.50275 0.0
C300 C 0.76259 0.63737 0.57943 0.0
C301 C 0.7458 0.6121 0.63205 0.0
C302 C 0.67965 0.64633 0.4694 0.0
C303 C 0.71992 0.64554 0.55531 0.0
C304 C 0.66614 0.66288 0.4334 0.0
C305 C 0.67785 0.6956 0.44629 0.0
C306 C 0.70543 0.66256 0.51559 0.0
C307 C 0.70352 0.711 0.49401 0.0
C308 C 0.74973 0.65453 0.54258 0.0
C309 C 0.7161 0.60421 0.64435 0.0
N310 N 0.71667 0.69431 0.52608 0.0
N311 N 0.70407 0.62066 0.60524 0.0
H312 H 0.11444 0.73708 0.24096 0.0
H313 H 0.98464 0.61841 0.55988 0.0
H314 H 0.12447 0.69729 0.49845 0.0
H315 H 0.97384 0.66265 0.31605 0.0
H316 H 0.03612 0.64573 0.53414 0.0
H317 H 0.06306 0.70817 0.26157 0.0
C318 C 0.10586 0.72213 0.30141 0.0
C319 C 0.12379 0.71969 0.36829 0.0
C320 C 1.02249 0.64941 0.48609 0.0
C321 C 0.06498 0.68671 0.39292 0.0
C322 C 0.99307 0.63393 0.50112 0.0
C323 C 0.97483 0.63824 0.44016 0.0
C324 C 0.03385 0.6694 0.4095 0.0
C325 C 0.98706 0.65827 0.36391 0.0
C326 C 0.07651 0.70576 0.31354 0.0
C327 C 0.11143 0.70024 0.44614 0.0
N328 N 1.01577 0.67313 0.35093 0.0
N329 N 0.08282 0.68453 0.45628 0.0
H330 H 0.38966 0.91979 0.26028 0.0
H331 H 0.37077 0.97659 0.88635 0.0
H332 H 0.32855 0.86473 0.48314 0.0
H333 H 0.4129 0.03955 0.65865 0.0
H334 H 0.36591 0.93246 0.74253 0.0
H335 H 0.40798 0.96133 0.40936 0.0
C336 C 0.38022 0.91636 0.34026 0.0
C337 C 0.35725 0.88898 0.35897 0.0
C338 C 0.37666 0.95598 0.72458 0.0
C339 C 0.37837 0.93589 0.52915 0.0
C340 C 0.37945 0.98117 0.80662 0.0
C341 C 0.39179 1.01187 0.78454 0.0
C342 C 0.38625 0.96155 0.61975 0.0
C343 C 0.40325 1.01635 0.67989 0.0
C344 C 0.39073 0.93997 0.42516 0.0
C345 C 0.346 0.88561 0.46442 0.0
N346 N 0.39981 0.99147 0.60111 0.0
N347 N 0.35661 0.90879 0.54527 0.0
H348 H 0.24424 0.71168 0.94606 0.0
H349 H 0.20816 0.55682 0.75754 0.0
H350 H 0.33188 0.72162 0.84783 0.0
H351 H 0.28778 0.57577 0.883 0.0
H352 H 0.22481 0.61144 0.73186 0.0
H353 H 0.22942 0.65673 0.86574 0.0
C354 C 0.26026 0.7024 0.90473 0.0
C355 C 0.28927 0.7209 0.90436 0.0
C356 C 0.23875 0.60332 0.76296 0.0
C357 C 0.27264 0.65818 0.81334 0.0
C358 C 0.22931 0.5722 0.77791 0.0
C359 C 0.24607 0.56187 0.82677 0.0
C360 C 0.2652 0.62406 0.79633 0.0
C361 C 0.27381 0.58256 0.8467 0.0
C362 C 0.25181 0.67113 0.85793 0.0
C363 C 0.30928 0.70796 0.84981 0.0
N364 N 0.28229 0.61284 0.83327 0.0
N365 N 0.30064 0.67702 0.80939 0.0
H366 H 0.46782 0.16222 0.86673 0.0
H367 H 0.62785 0.26234 0.66545 0.0
H368 H 0.49515 0.25719 0.80912 0.0
H369 H 0.59649 0.16228 0.65103 0.0
H370 H 0.58141 0.26276 0.74975 0.0
H371 H 0.51708 0.16412 0.82195 0.0
C372 C 0.48427 0.18369 0.84715 0.0
C373 C 0.47736 0.20951 0.84075 0.0
C374 C 0.58472 0.24072 0.72861 0.0
C375 C 0.53355 0.21173 0.78848 0.0
C376 C 0.61126 0.24047 0.68079 0.0
C377 C 0.61601 0.21219 0.65022 0.0
C378 C 0.5627 0.2125 0.7467 0.0
C379 C 0.59361 0.18455 0.67153 0.0
C380 C 0.51231 0.18466 0.82061 0.0
C381 C 0.49949 0.23664 0.81404 0.0
N382 N 0.56792 0.18538 0.71819 0.0
N383 N 0.52651 0.23697 0.78821 0.0
H384 H 0.4446 0.61729 0.15668 0.0
H385 H 0.33192 0.45771 0.33578 0.0
H386 H 0.46933 0.54914 0.2542 0.0
H387 H 0.30967 0.51824 0.18399 0.0
H388 H 0.3818 0.49302 0.32196 0.0
H389 H 0.39464 0.58329 0.18069 0.0
C390 C 0.43953 0.59523 0.18367 0.0
C391 C 0.46129 0.58612 0.20345 0.0
C392 C 0.36596 0.4986 0.29203 0.0
C393 C 0.40391 0.54687 0.23091 0.0
C394 C 0.33742 0.47852 0.30037 0.0
C395 C 0.31646 0.4849 0.26078 0.0
C396 C 0.37365 0.52542 0.24444 0.0
C397 C 0.32501 0.51223 0.21536 0.0
C398 C 0.41097 0.57573 0.19687 0.0
C399 C 0.45334 0.55701 0.23689 0.0
N400 N 0.35286 0.5314 0.20842 0.0
N401 N 0.42534 0.5385 0.24985 0.0
H402 H 0.76411 0.45607 0.88498 0.0
H403 H 0.85149 0.34146 0.70013 0.0
H404 H 0.84082 0.47987 0.67028 0.0
H405 H 0.75984 0.30934 0.75354 0.0
H406 H 0.85304 0.39583 0.73727 0.0
H407 H 0.76802 0.40581 0.88613 0.0
C408 C 0.78207 0.45103 0.83941 0.0
C409 C 0.80201 0.4722 0.7764 0.0
C410 C 0.83269 0.37681 0.74259 0.0
C411 C 0.80663 0.41461 0.77846 0.0
C412 C 0.8318 0.34592 0.7225 0.0
C413 C 0.80549 0.32103 0.72409 0.0
C414 C 0.80712 0.38266 0.76687 0.0
C415 C 0.78054 0.32793 0.75154 0.0
C416 C 0.78418 0.42223 0.83991 0.0
C417 C 0.82481 0.46417 0.71914 0.0
N418 N 0.78196 0.35807 0.77199 0.0
N419 N 0.82646 0.43594 0.7212 0.0
H420 H 0.51103 0.81576 0.85943 0.0
H421 H 0.60236 0.83957 0.3357 0.0
H422 H 0.5179 0.88871 0.13065 0.0
H423 H 0.59446 0.76861 0.05815 0.0
H424 H 0.57803 0.86368 0.25087 0.0
H425 H 0.54887 0.80505 0.91694 0.0
C426 C 0.52089 0.83012 0.92979 0.0
C427 C 0.51077 0.85289 -0.00895 0.0
C428 C 0.58196 0.84304 0.20825 0.0
C429 C 0.55371 0.83978 0.05993 0.0
C430 C 0.59582 0.82929 0.25665 0.0
C431 C 0.59987 0.80167 0.20494 0.0
C432 C 0.57228 0.82908 0.10751 0.0
C433 C 0.59122 0.78949 0.10216 0.0
C434 C 0.5424 0.82369 0.96341 0.0
C435 C 0.52439 0.87032 0.08238 0.0
N436 N 0.57765 0.80309 0.05743 0.0
N437 N 0.54481 0.86304 0.11509 0.0
H438 H 0.58223 0.47969 0.13402 0.0
H439 H 0.46857 0.42701 0.72988 0.0
H440 H 0.58902 0.5319 0.88524 0.0
H441 H 0.45696 0.38663 0.01341 0.0
H442 H 0.50717 0.47269 0.80596 0.0
H443 H 0.53158 0.45408 0.11692 0.0
C444 C 0.57305 0.48652 0.07768 0.0
C445 C 0.59028 0.50733 0.00849 0.0
C446 C 0.49568 0.45419 0.85267 0.0
C447 C 0.53209 0.47693 -0.01437 0.0
C448 C 0.47372 0.42803 0.80898 0.0
C449 C 0.45995 0.40261 0.86416 0.0
C450 C 0.50414 0.45464 0.95146 0.0
C451 C 0.46702 0.40552 0.96743 0.0
C452 C 0.54397 0.47159 0.06731 0.0
C453 C 0.57682 0.51503 0.93722 0.0
N454 N 0.48902 0.43071 0.00667 0.0
N455 N 0.54866 0.4992 0.92557 0.0
H456 H 0.28366 0.43248 0.96606 0.0
H457 H 0.17615 0.39589 0.53189 0.0
H458 H 0.2061 0.35171 0.9402 0.0
H459 H 0.25386 0.47653 0.55565 0.0
H460 H 0.18633 0.38001 0.68415 0.0
H461 H 0.27487 0.44707 0.80805 0.0
C462 C 0.26517 0.41734 0.92471 0.0
C463 C 0.24549 0.39095 0.96526 0.0
C464 C 0.20097 0.40146 0.65755 0.0
C465 C 0.2346 0.40822 0.7886 0.0
C466 C 0.19494 0.41079 0.57193 0.0
C467 C 0.21418 0.43758 0.53245 0.0
C468 C 0.22653 0.41903 0.7035 0.0
C469 C 0.23838 0.45596 0.58523 0.0
C470 C 0.25996 0.4259 0.83567 0.0
C471 C 0.2218 0.37212 0.91034 0.0
N472 N 0.2441 0.44609 0.66792 0.0
N473 N 0.21672 0.38145 0.82524 0.0
H474 H 0.83246 0.18851 0.27098 0.0
H475 H 0.73925 0.22875 0.93329 0.0
H476 H 0.80369 0.26655 0.34453 0.0
H477 H 0.789 0.17061 0.80515 0.0
H478 H 0.7445 0.22336 0.11226 0.0
H479 H 0.80246 0.16694 0.12235 0.0
C480 C 0.8203 0.20133 0.25409 0.0
C481 C 0.82081 0.22956 0.31719 0.0
C482 C 0.75363 0.21114 0.04458 0.0
C483 C 0.78582 0.20459 0.15402 0.0
C484 C 0.7507 0.21432 0.94313 0.0
C485 C 0.7652 0.20164 0.85649 0.0
C486 C 0.77168 0.19593 0.05711 0.0
C487 C 0.77888 0.18215 0.87147 0.0
C488 C 0.80268 0.18867 0.17188 0.0
C489 C 0.80408 0.24493 0.2957 0.0
N490 N 0.78252 0.18054 0.97087 0.0
N491 N 0.78722 0.23222 0.21558 0.0
H492 H 0.64777 0.71044 0.07383 0.0
H493 H 0.61186 0.78451 0.63499 0.0
H494 H 0.67851 0.80948 0.06512 0.0
H495 H 0.59575 0.68627 0.61073 0.0
H496 H 0.63266 0.79402 0.80296 0.0
H497 H 0.62687 0.7007 0.90681 0.0
C498 C 0.65061 0.73004 0.03546 0.0
C499 C 0.66461 0.76075 0.08319 0.0
C500 C 0.62455 0.7704 0.76068 0.0
C501 C 0.64041 0.74999 0.89457 0.0
C502 C 0.61275 0.76507 0.66534 0.0
C503 C 0.60302 0.73487 0.60813 0.0
C504 C 0.62627 0.74516 0.79849 0.0
C505 C 0.60335 0.71005 0.6521 0.0
C506 C 0.63848 0.72454 0.9409 0.0
C507 C 0.66774 0.78542 0.03083 0.0
N508 N 0.61512 0.71579 0.74435 0.0
N509 N 0.65541 0.77951 0.93965 0.0
H510 H 0.72186 0.54249 0.47796 0.0
H511 H 0.83733 0.55402 0.9732 0.0
H512 H 0.78947 0.50613 0.44182 0.0
H513 H 0.77569 0.5992 0.02508 0.0
H514 H 0.82022 0.53629 0.14526 0.0
H515 H 0.73941 0.56076 0.30652 0.0
C516 C 0.74 0.53774 0.43266 0.0
C517 C 0.7544 0.52297 0.47366 0.0
C518 C 0.81057 0.5503 0.11953 0.0
C519 C 0.77491 0.54429 0.27974 0.0
C520 C 0.82058 0.56074 0.02202 0.0
C521 C 0.80758 0.57773 -0.0149 0.0
C522 C 0.78743 0.55694 0.17991 0.0
C523 C 0.78588 0.58568 0.05069 0.0
C524 C 0.75026 0.54855 0.3357 0.0
C525 C 0.77795 0.51765 0.41277 0.0
N526 N 0.77622 0.57492 0.1447 0.0
N527 N 0.78762 0.5285 0.31905 0.0
H528 H 0.30205 0.7543 0.33179 0.0
H529 H 0.34047 0.86092 0.89529 0.0
H530 H 0.38175 0.83075 0.38223 0.0
H531 H 0.26177 0.78264 0.84711 0.0
H532 H 0.35578 0.85084 0.7061 0.0
H533 H 0.28742 0.763 0.5222 0.0
C534 C 0.31649 0.77272 0.38341 0.0
C535 C 0.34264 0.79241 0.34151 0.0
C536 C 0.33511 0.83592 0.73688 0.0
C537 C 0.32643 0.80248 0.55818 0.0
C538 C 0.32637 0.84181 0.84447 0.0
C539 C 0.30009 0.82234 0.88664 0.0
C540 C 0.31735 0.81038 0.67146 0.0
C541 C 0.28225 0.79821 0.81765 0.0
C542 C 0.3082 0.77773 0.49176 0.0
C543 C 0.3612 0.81523 0.41146 0.0
N544 N 0.29134 0.79273 0.71346 0.0
N545 N 0.35258 0.81991 0.51645 0.0
H546 H 0.43505 0.19409 0.54745 0.0
H547 H 0.34079 0.19247 0.10999 0.0
H548 H 0.34748 0.1325 0.52325 0.0
H549 H 0.42913 0.25201 0.12863 0.0
H550 H 0.34255 0.17084 0.26373 0.0
H551 H 0.434 0.21377 0.38843 0.0
C552 C 0.41581 0.18418 0.50664 0.0
C553 C 0.39126 0.16184 0.54783 0.0
C554 C 0.36149 0.18885 0.23502 0.0
C555 C 0.38961 0.18474 0.36864 0.0
C556 C 0.36039 0.20144 0.14829 0.0
C557 C 0.38488 0.22394 0.10736 0.0
C558 C 0.38729 0.19886 0.28057 0.0
C559 C 0.40978 0.2348 0.1587 0.0
C560 C 0.41512 0.19564 0.41678 0.0
C561 C 0.36685 0.14967 0.49309 0.0
N562 N 0.41044 0.22188 0.24256 0.0
N563 N 0.3665 0.16165 0.40652 0.0
loop_
_geom_bond_atom_site_label_1
_geom_bond_atom_site_label_2
_geom_bond_distance
_geom_bond_site_symmetry_2
_ccdc_geom_bond_type
Pr0 C2 2.880 1_556 S
Pr0 O20 2.562 1_556 S
Pr0 O21 2.490 . S
Pr0 O22 2.695 . S
Pr0 O23 2.512 . S
Pr0 O25 2.437 . S
Pr0 O28 2.436 1_556 S
Pr0 O30 2.438 . S
Pr1 C11 2.880 1_554 S
Pr1 O22 2.436 1_554 S
Pr1 O24 2.438 . S
Pr1 O26 2.562 1_554 S
Pr1 O27 2.490 . S
Pr1 O28 2.695 . S
Pr1 O29 2.512 . S
Pr1 O31 2.437 . S
C2 Pr0 2.880 1_554 S
C2 C3 1.491 . S
C2 O20 1.254 . S
C2 O21 1.225 1_554 S
C3 C2 1.491 . S
C3 C4 1.392 1_554 S
C3 C8 1.356 . S
C4 C3 1.392 1_556 S
C4 C5 1.368 . S
C4 H32 0.929 . S
C5 C4 1.368 . S
C5 C6 1.386 1_556 S
C5 H33 0.929 . S
C6 C5 1.386 1_554 S
C6 C7 1.373 . S
C7 C6 1.373 . S
C7 C8 1.409 . S
C7 H34 0.931 . S
C8 C3 1.356 . S
C8 C7 1.409 . S
C8 H35 0.930 . S
C9 O22 1.270 . S
C9 O23 1.248 . S
C10 O24 1.267 . S
C10 O25 1.278 1_554 S
C11 Pr1 2.880 1_556 S
C11 C12 1.491 . S
C11 O26 1.254 . S
C11 O27 1.225 1_556 S
C12 C11 1.491 . S
C12 C13 1.392 1_556 S
C12 C17 1.356 . S
C13 C12 1.392 1_554 S
C13 C14 1.368 . S
C13 H36 0.929 . S
C14 C13 1.368 . S
C14 C15 1.386 1_554 S
C14 H37 0.929 . S
C15 C14 1.386 1_556 S
C15 C16 1.373 . S
C16 C15 1.373 . S
C16 C17 1.409 . S
C16 H38 0.931 . S
C17 C12 1.356 . S
C17 C16 1.409 . S
C17 H39 0.930 . S
C18 O28 1.270 . S
C18 O29 1.248 . S
C19 O30 1.267 . S
C19 O31 1.278 1_556 S
O20 Pr0 2.562 1_554 S
O20 C2 1.254 . S
O21 Pr0 2.490 . S
O21 C2 1.225 1_556 S
O22 Pr0 2.695 . S
O22 Pr1 2.436 1_556 S
O22 C9 1.270 . S
O23 Pr0 2.512 . S
O23 C9 1.248 . S
O24 Pr1 2.438 . S
O24 C10 1.267 . S
O25 Pr0 2.437 . S
O25 C10 1.278 1_556 S
O26 Pr1 2.562 1_556 S
O26 C11 1.254 . S
O27 Pr1 2.490 . S
O27 C11 1.225 1_554 S
O28 Pr0 2.436 1_554 S
O28 Pr1 2.695 . S
O28 C18 1.270 . S
O29 Pr1 2.512 . S
O29 C18 1.248 . S
O30 Pr0 2.438 . S
O30 C19 1.267 . S
O31 Pr1 2.437 . S
O31 C19 1.278 1_554 S
H32 C4 0.929 . S
H33 C5 0.929 . S
H34 C7 0.931 . S
H35 C8 0.930 . S
H36 C13 0.929 . S
H37 C14 0.929 . S
H38 C16 0.931 . S
H39 C17 0.930 . S
Pr40 C42 2.880 . S
Pr40 O60 2.562 . S
Pr40 O61 2.490 . S
Pr40 O62 2.695 . S
Pr40 O63 2.512 . S
Pr40 O65 2.437 . S
Pr40 O68 2.436 1_556 S
Pr40 O70 2.438 . S
Pr41 C51 2.880 1_556 S
Pr41 O62 2.436 . S
Pr41 O64 2.438 . S
Pr41 O66 2.562 . S
Pr41 O67 2.490 1_556 S
Pr41 O68 2.695 1_556 S
Pr41 O69 2.512 1_556 S
Pr41 O71 2.437 1_556 S
C42 Pr40 2.880 . S
C42 C43 1.491 . S
C42 O60 1.254 . S
C42 O61 1.225 . S
C43 C42 1.491 . S
C43 C44 1.392 . S
C43 C48 1.356 . S
C44 C43 1.392 . S
C44 C45 1.368 . S
C44 H72 0.929 . S
C45 C44 1.368 . S
C45 C46 1.386 . S
C45 H73 0.929 . S
C46 C45 1.386 . S
C46 C47 1.373 . S
C47 C46 1.373 . S
C47 C48 1.409 . S
C47 H74 0.931 . S
C48 C43 1.356 . S
C48 C47 1.409 . S
C48 H75 0.930 . S
C49 O62 1.270 . S
C49 O63 1.248 . S
C50 O64 1.267 . S
C50 O65 1.278 . S
C51 Pr41 2.880 1_554 S
C51 C52 1.491 . S
C51 O66 1.254 1_554 S
C51 O67 1.225 . S
C52 C51 1.491 . S
C52 C53 1.392 . S
C52 C57 1.356 1_554 S
C53 C52 1.392 . S
C53 C54 1.368 . S
C53 H76 0.929 . S
C54 C53 1.368 . S
C54 C55 1.386 . S
C54 H77 0.929 . S
C55 C54 1.386 . S
C55 C56 1.373 1_554 S
C56 C55 1.373 1_556 S
C56 C57 1.409 . S
C56 H78 0.931 . S
C57 C52 1.356 1_556 S
C57 C56 1.409 . S
C57 H79 0.930 . S
C58 O68 1.270 . S
C58 O69 1.248 . S
C59 O70 1.267 1_554 S
C59 O71 1.278 . S
O60 Pr40 2.562 . S
O60 C42 1.254 . S
O61 Pr40 2.490 . S
O61 C42 1.225 . S
O62 Pr40 2.695 . S
O62 Pr41 2.436 . S
O62 C49 1.270 . S
O63 Pr40 2.512 . S
O63 C49 1.248 . S
O64 Pr41 2.438 . S
O64 C50 1.267 . S
O65 Pr40 2.437 . S
O65 C50 1.278 . S
O66 Pr41 2.562 . S
O66 C51 1.254 1_556 S
O67 Pr41 2.490 1_554 S
O67 C51 1.225 . S
O68 Pr40 2.436 1_554 S
O68 Pr41 2.695 1_554 S
O68 C58 1.270 . S
O69 Pr41 2.512 1_554 S
O69 C58 1.248 . S
O70 Pr40 2.438 . S
O70 C59 1.267 1_556 S
O71 Pr41 2.437 1_554 S
O71 C59 1.278 . S
H72 C44 0.929 . S
H73 C45 0.929 . S
H74 C47 0.931 . S
H75 C48 0.930 . S
H76 C53 0.929 . S
H77 C54 0.929 . S
H78 C56 0.931 . S
H79 C57 0.930 . S
Pr80 C82 2.880 . S
Pr80 O100 2.562 . S
Pr80 O101 2.490 . S
Pr80 O102 2.695 1_554 S
Pr80 O103 2.512 1_554 S
Pr80 O105 2.437 . S
Pr80 O108 2.436 . S
Pr80 O110 2.438 . S
Pr81 C91 2.880 1_554 S
Pr81 O102 2.436 1_554 S
Pr81 O104 2.438 . S
Pr81 O106 2.562 1_554 S
Pr81 O107 2.490 . S
Pr81 O108 2.695 . S
Pr81 O109 2.512 . S
Pr81 O111 2.437 . S
C82 Pr80 2.880 . S
C82 C83 1.491 . S
C82 O100 1.254 . S
C82 O101 1.225 . S
C83 C82 1.491 . S
C83 C84 1.392 . S
C83 C88 1.356 . S
C84 C83 1.392 . S
C84 C85 1.368 . S
C84 H112 0.929 . S
C85 C84 1.368 . S
C85 C86 1.386 . S
C85 H113 0.929 . S
C86 C85 1.386 . S
C86 C87 1.373 . S
C87 C86 1.373 . S
C87 C88 1.409 . S
C87 H114 0.931 . S
C88 C83 1.356 . S
C88 C87 1.409 . S
C88 H115 0.930 . S
C89 O102 1.270 . S
C89 O103 1.248 . S
C90 O104 1.267 . S
C90 O105 1.278 . S
C91 Pr81 2.880 1_556 S
C91 C92 1.491 . S
C91 O106 1.254 . S
C91 O107 1.225 1_556 S
C92 C91 1.491 . S
C92 C93 1.392 1_556 S
C92 C97 1.356 . S
C93 C92 1.392 1_554 S
C93 C94 1.368 1_554 S
C93 H116 0.929 . S
C94 C93 1.368 1_556 S
C94 C95 1.386 . S
C94 H117 0.929 1_556 S
C95 C94 1.386 . S
C95 C96 1.373 . S
C96 C95 1.373 . S
C96 C97 1.409 . S
C96 H118 0.931 . S
C97 C92 1.356 . S
C97 C96 1.409 . S
C97 H119 0.930 . S
C98 O108 1.270 . S
C98 O109 1.248 . S
C99 O110 1.267 . S
C99 O111 1.278 . S
O100 Pr80 2.562 . S
O100 C82 1.254 . S
O101 Pr80 2.490 . S
O101 C82 1.225 . S
O102 Pr80 2.695 1_556 S
O102 Pr81 2.436 1_556 S
O102 C89 1.270 . S
O103 Pr80 2.512 1_556 S
O103 C89 1.248 . S
O104 Pr81 2.438 . S
O104 C90 1.267 . S
O105 Pr80 2.437 . S
O105 C90 1.278 . S
O106 Pr81 2.562 1_556 S
O106 C91 1.254 . S
O107 Pr81 2.490 . S
O107 C91 1.225 1_554 S
O108 Pr80 2.436 . S
O108 Pr81 2.695 . S
O108 C98 1.270 . S
O109 Pr81 2.512 . S
O109 C98 1.248 . S
O110 Pr80 2.438 . S
O110 C99 1.267 . S
O111 Pr81 2.437 . S
O111 C99 1.278 . S
H112 C84 0.929 . S
H113 C85 0.929 . S
H114 C87 0.931 . S
H115 C88 0.930 . S
H116 C93 0.929 . S
H117 C94 0.929 1_554 S
H118 C96 0.931 . S
H119 C97 0.930 . S
Pr120 C122 2.880 . S
Pr120 O140 2.562 . S
Pr120 O141 2.490 1_556 S
Pr120 O142 2.695 1_556 S
Pr120 O143 2.512 1_556 S
Pr120 O145 2.437 1_556 S
Pr120 O148 2.436 . S
Pr120 O150 2.438 1_556 S
Pr121 C131 2.880 . S
Pr121 O142 2.436 . S
Pr121 O144 2.438 1_554 S
Pr121 O146 2.562 . S
Pr121 O147 2.490 1_554 S
Pr121 O148 2.695 1_554 S
Pr121 O149 2.512 1_554 S
Pr121 O151 2.437 1_554 S
C122 Pr120 2.880 . S
C122 C123 1.491 . S
C122 O140 1.254 . S
C122 O141 1.225 1_556 S
C123 C122 1.491 . S
C123 C124 1.392 . S
C123 C128 1.356 . S
C124 C123 1.392 . S
C124 C125 1.368 . S
C124 H152 0.929 1_556 S
C125 C124 1.368 . S
C125 C126 1.386 . S
C125 H153 0.929 . S
C126 C125 1.386 . S
C126 C127 1.373 . S
C127 C126 1.373 . S
C127 C128 1.409 . S
C127 H154 0.931 . S
C128 C123 1.356 . S
C128 C127 1.409 . S
C128 H155 0.930 . S
C129 O142 1.270 . S
C129 O143 1.248 . S
C130 O144 1.267 . S
C130 O145 1.278 1_556 S
C131 Pr121 2.880 . S
C131 C132 1.491 . S
C131 O146 1.254 . S
C131 O147 1.225 1_554 S
C132 C131 1.491 . S
C132 C133 1.392 . S
C132 C137 1.356 . S
C133 C132 1.392 . S
C133 C134 1.368 . S
C133 H156 0.929 1_554 S
C134 C133 1.368 . S
C134 C135 1.386 . S
C134 H157 0.929 . S
C135 C134 1.386 . S
C135 C136 1.373 . S
C136 C135 1.373 . S
C136 C137 1.409 . S
C136 H158 0.931 . S
C137 C132 1.356 . S
C137 C136 1.409 . S
C137 H159 0.930 . S
C138 O148 1.270 . S
C138 O149 1.248 . S
C139 O150 1.267 . S
C139 O151 1.278 1_554 S
O140 Pr120 2.562 . S
O140 C122 1.254 . S
O141 Pr120 2.490 1_554 S
O141 C122 1.225 1_554 S
O142 Pr120 2.695 1_554 S
O142 Pr121 2.436 . S
O142 C129 1.270 . S
O143 Pr120 2.512 1_554 S
O143 C129 1.248 . S
O144 Pr121 2.438 1_556 S
O144 C130 1.267 . S
O145 Pr120 2.437 1_554 S
O145 C130 1.278 1_554 S
O146 Pr121 2.562 . S
O146 C131 1.254 . S
O147 Pr121 2.490 1_556 S
O147 C131 1.225 1_556 S
O148 Pr120 2.436 . S
O148 Pr121 2.695 1_556 S
O148 C138 1.270 . S
O149 Pr121 2.512 1_556 S
O149 C138 1.248 . S
O150 Pr120 2.438 1_554 S
O150 C139 1.267 . S
O151 Pr121 2.437 1_556 S
O151 C139 1.278 1_556 S
H152 C124 0.929 1_554 S
H153 C125 0.929 . S
H154 C127 0.931 . S
H155 C128 0.930 . S
H156 C133 0.929 1_556 S
H157 C134 0.929 . S
H158 C136 0.931 . S
H159 C137 0.930 . S
Pr160 C162 2.880 . S
Pr160 O180 2.562 . S
Pr160 O181 2.490 1_554 S
Pr160 O182 2.695 1_554 S
Pr160 O183 2.512 1_554 S
Pr160 O185 2.437 . S
Pr160 O188 2.436 . S
Pr160 O190 2.438 1_554 S
Pr161 C171 2.880 . S
Pr161 O182 2.436 . S
Pr161 O184 2.438 1_556 S
Pr161 O186 2.562 . S
Pr161 O187 2.490 1_556 S
Pr161 O188 2.695 1_556 S
Pr161 O189 2.512 1_556 S
Pr161 O191 2.437 . S
C162 Pr160 2.880 . S
C162 C163 1.491 . S
C162 O180 1.254 . S
C162 O181 1.225 1_554 S
C163 C162 1.491 . S
C163 C164 1.392 . S
C163 C168 1.356 . S
C164 C163 1.392 . S
C164 C165 1.368 . S
C164 H192 0.929 1_554 S
C165 C164 1.368 . S
C165 C166 1.386 . S
C165 H193 0.929 . S
C166 C165 1.386 . S
C166 C167 1.373 . S
C167 C166 1.373 . S
C167 C168 1.409 . S
C167 H194 0.931 . S
C168 C163 1.356 . S
C168 C167 1.409 . S
C168 H195 0.930 . S
C169 O182 1.270 . S
C169 O183 1.248 . S
C170 O184 1.267 . S
C170 O185 1.278 . S
C171 Pr161 2.880 . S
C171 C172 1.491 . S
C171 O186 1.254 . S
C171 O187 1.225 1_556 S
C172 C171 1.491 . S
C172 C173 1.392 . S
C172 C177 1.356 . S
C173 C172 1.392 . S
C173 C174 1.368 . S
C173 H196 0.929 1_556 S
C174 C173 1.368 . S
C174 C175 1.386 . S
C174 H197 0.929 . S
C175 C174 1.386 . S
C175 C176 1.373 . S
C176 C175 1.373 . S
C176 C177 1.409 . S
C176 H198 0.931 . S
C177 C172 1.356 . S
C177 C176 1.409 . S
C177 H199 0.930 . S
C178 O188 1.270 . S
C178 O189 1.248 . S
C179 O190 1.267 . S
C179 O191 1.278 . S
O180 Pr160 2.562 . S
O180 C162 1.254 . S
O181 Pr160 2.490 1_556 S
O181 C162 1.225 1_556 S
O182 Pr160 2.695 1_556 S
O182 Pr161 2.436 . S
O182 C169 1.270 . S
O183 Pr160 2.512 1_556 S
O183 C169 1.248 . S
O184 Pr161 2.438 1_554 S
O184 C170 1.267 . S
O185 Pr160 2.437 . S
O185 C170 1.278 . S
O186 Pr161 2.562 . S
O186 C171 1.254 . S
O187 Pr161 2.490 1_554 S
O187 C171 1.225 1_554 S
O188 Pr160 2.436 . S
O188 Pr161 2.695 1_554 S
O188 C178 1.270 . S
O189 Pr161 2.512 1_554 S
O189 C178 1.248 . S
O190 Pr160 2.438 1_556 S
O190 C179 1.267 . S
O191 Pr161 2.437 . S
O191 C179 1.278 . S
H192 C164 0.929 1_556 S
H193 C165 0.929 . S
H194 C167 0.931 . S
H195 C168 0.930 . S
H196 C173 0.929 1_554 S
H197 C174 0.929 . S
H198 C176 0.931 . S
H199 C177 0.930 . S
Pr200 C202 2.880 . S
Pr200 O220 2.562 1_556 S
Pr200 O221 2.490 . S
Pr200 O222 2.695 . S
Pr200 O223 2.512 . S
Pr200 O225 2.437 . S
Pr200 O228 2.436 1_556 S
Pr200 O230 2.438 . S
Pr201 C211 2.880 . S
Pr201 O222 2.436 1_554 S
Pr201 O224 2.438 . S
Pr201 O226 2.562 1_554 S
Pr201 O227 2.490 . S
Pr201 O228 2.695 . S
Pr201 O229 2.512 . S
Pr201 O231 2.437 . S
C202 Pr200 2.880 . S
C202 C203 1.491 . S
C202 O220 1.254 1_556 S
C202 O221 1.225 . S
C203 C202 1.491 . S
C203 C204 1.392 . S
C203 C208 1.356 . S
C204 C203 1.392 . S
C204 C205 1.368 . S
C204 H232 0.929 . S
C205 C204 1.368 . S
C205 C206 1.386 1_545 S
C205 H233 0.929 1_545 S
C206 C205 1.386 1_565 S
C206 C207 1.373 1_565 S
C207 C206 1.373 1_545 S
C207 C208 1.409 . S
C207 H234 0.931 1_556 S
C208 C203 1.356 . S
C208 C207 1.409 . S
C208 H235 0.930 1_556 S
C209 O222 1.270 . S
C209 O223 1.248 . S
C210 O224 1.267 1_556 S
C210 O225 1.278 . S
C211 Pr201 2.880 . S
C211 C212 1.491 . S
C211 O226 1.254 1_554 S
C211 O227 1.225 . S
C212 C211 1.491 . S
C212 C213 1.392 . S
C212 C217 1.356 . S
C213 C212 1.392 . S
C213 C214 1.368 . S
C213 H236 0.929 . S
C214 C213 1.368 . S
C214 C215 1.386 . S
C214 H237 0.929 . S
C215 C214 1.386 . S
C215 C216 1.373 . S
C216 C215 1.373 . S
C216 C217 1.409 . S
C216 H238 0.931 1_554 S
C217 C212 1.356 . S
C217 C216 1.409 . S
C217 H239 0.930 1_554 S
C218 O228 1.270 . S
C218 O229 1.248 . S
C219 O230 1.267 1_554 S
C219 O231 1.278 . S
O220 Pr200 2.562 1_554 S
O220 C202 1.254 1_554 S
O221 Pr200 2.490 . S
O221 C202 1.225 . S
O222 Pr200 2.695 . S
O222 Pr201 2.436 1_556 S
O222 C209 1.270 . S
O223 Pr200 2.512 . S
O223 C209 1.248 . S
O224 Pr201 2.438 . S
O224 C210 1.267 1_554 S
O225 Pr200 2.437 . S
O225 C210 1.278 . S
O226 Pr201 2.562 1_556 S
O226 C211 1.254 1_556 S
O227 Pr201 2.490 . S
O227 C211 1.225 . S
O228 Pr200 2.436 1_554 S
O228 Pr201 2.695 . S
O228 C218 1.270 . S
O229 Pr201 2.512 . S
O229 C218 1.248 . S
O230 Pr200 2.438 . S
O230 C219 1.267 1_556 S
O231 Pr201 2.437 . S
O231 C219 1.278 . S
H232 C204 0.929 . S
H233 C205 0.929 1_565 S
H234 C207 0.931 1_554 S
H235 C208 0.930 1_554 S
H236 C213 0.929 . S
H237 C214 0.929 . S
H238 C216 0.931 1_556 S
H239 C217 0.930 1_556 S
H240 C246 0.930 . S
H241 C250 0.930 . S
H242 C255 0.929 . S
H243 C253 0.929 . S
H244 C248 0.929 . S
H245 C254 0.929 . S
C246 H240 0.930 . S
C246 C247 1.367 . S
C246 C254 1.378 . S
C247 C246 1.367 . S
C247 C255 1.433 . S
C248 H244 0.929 . S
C248 C250 1.378 . S
C248 C252 1.350 . S
C249 C252 1.463 . S
C249 C254 1.350 . S
C249 N257 1.427 . S
C250 H241 0.930 . S
C250 C248 1.378 . S
C250 C251 1.367 . S
C251 C250 1.367 . S
C251 C253 1.433 . S
C252 C248 1.350 . S
C252 C249 1.463 . S
C252 N256 1.427 . S
C253 H243 0.929 . S
C253 C251 1.433 . S
C253 N256 1.384 . S
C254 H245 0.929 . S
C254 C246 1.378 . S
C254 C249 1.350 . S
C255 H242 0.929 . S
C255 C247 1.433 . S
C255 N257 1.384 . S
N256 C252 1.427 . S
N256 C253 1.384 . S
N257 C249 1.427 . S
N257 C255 1.384 . S
H258 C264 0.930 . S
H259 C268 0.930 . S
H260 C273 0.929 . S
H261 C271 0.929 . S
H262 C266 0.929 . S
H263 C272 0.929 . S
C264 H258 0.930 . S
C264 C265 1.367 . S
C264 C272 1.378 . S
C265 C264 1.367 . S
C265 C273 1.433 . S
C266 H262 0.929 . S
C266 C268 1.378 . S
C266 C270 1.350 . S
C267 C270 1.463 . S
C267 C272 1.350 . S
C267 N275 1.427 . S
C268 H259 0.930 . S
C268 C266 1.378 . S
C268 C269 1.367 1_455 S
C269 C268 1.367 1_655 S
C269 C271 1.433 . S
C270 C266 1.350 . S
C270 C267 1.463 . S
C270 N274 1.427 . S
C271 H261 0.929 . S
C271 C269 1.433 . S
C271 N274 1.384 1_655 S
C272 H263 0.929 . S
C272 C264 1.378 . S
C272 C267 1.350 . S
C273 H260 0.929 . S
C273 C265 1.433 . S
C273 N275 1.384 . S
N274 C270 1.427 . S
N274 C271 1.384 1_455 S
N275 C267 1.427 . S
N275 C273 1.384 . S
H276 C282 0.930 . S
H277 C286 0.930 . S
H278 C291 0.929 . S
H279 C289 0.929 . S
H280 C284 0.929 . S
H281 C290 0.929 . S
C282 H276 0.930 . S
C282 C283 1.367 . S
C282 C290 1.378 . S
C283 C282 1.367 . S
C283 C291 1.433 . S
C284 H280 0.929 . S
C284 C286 1.378 1_545 S
C284 C288 1.350 . S
C285 C288 1.463 . S
C285 C290 1.350 . S
C285 N293 1.427 . S
C286 H277 0.930 . S
C286 C284 1.378 1_565 S
C286 C287 1.367 . S
C287 C286 1.367 . S
C287 C289 1.433 . S
C288 C284 1.350 . S
C288 C285 1.463 . S
C288 N292 1.427 . S
C289 H279 0.929 . S
C289 C287 1.433 . S
C289 N292 1.384 1_565 S
C290 H281 0.929 . S
C290 C282 1.378 . S
C290 C285 1.350 . S
C291 H278 0.929 . S
C291 C283 1.433 . S
C291 N293 1.384 . S
N292 C288 1.427 . S
N292 C289 1.384 1_545 S
N293 C285 1.427 . S
N293 C291 1.384 . S
H294 C300 0.930 . S
H295 C304 0.930 . S
H296 C309 0.929 . S
H297 C307 0.929 . S
H298 C302 0.929 . S
H299 C308 0.929 . S
C300 H294 0.930 . S
C300 C301 1.367 . S
C300 C308 1.378 . S
C301 C300 1.367 . S
C301 C309 1.433 . S
C302 H298 0.929 . S
C302 C304 1.378 . S
C302 C306 1.350 . S
C303 C306 1.463 . S
C303 C308 1.350 . S
C303 N311 1.427 . S
C304 H295 0.930 . S
C304 C302 1.378 . S
C304 C305 1.367 . S
C305 C304 1.367 . S
C305 C307 1.433 . S
C306 C302 1.350 . S
C306 C303 1.463 . S
C306 N310 1.427 . S
C307 H297 0.929 . S
C307 C305 1.433 . S
C307 N310 1.384 . S
C308 H299 0.929 . S
C308 C300 1.378 . S
C308 C303 1.350 . S
C309 H296 0.929 . S
C309 C301 1.433 . S
C309 N311 1.384 . S
N310 C306 1.427 . S
N310 C307 1.384 . S
N311 C303 1.427 . S
N311 C309 1.384 . S
H312 C318 0.930 . S
H313 C322 0.930 . S
H314 C327 0.929 . S
H315 C325 0.929 . S
H316 C320 0.929 1_455 S
H317 C326 0.929 . S
C318 H312 0.930 . S
C318 C319 1.367 . S
C318 C326 1.378 . S
C319 C318 1.367 . S
C319 C327 1.433 . S
C320 H316 0.929 1_655 S
C320 C322 1.378 . S
C320 C324 1.349 1_655 S
C321 C324 1.459 . S
C321 C326 1.350 . S
C321 N329 1.427 . S
C322 H313 0.930 . S
C322 C320 1.378 . S
C322 C323 1.367 . S
C323 C322 1.367 . S
C323 C325 1.433 . S
C324 C320 1.349 1_455 S
C324 C321 1.459 . S
C324 N328 1.431 1_455 S
C325 H315 0.929 . S
C325 C323 1.433 . S
C325 N328 1.384 . S
C326 H317 0.929 . S
C326 C318 1.378 . S
C326 C321 1.350 . S
C327 H314 0.929 . S
C327 C319 1.433 . S
C327 N329 1.384 . S
N328 C324 1.431 1_655 S
N328 C325 1.384 . S
N329 C321 1.427 . S
N329 C327 1.384 . S
H330 C336 0.930 . S
H331 C340 0.930 . S
H332 C345 0.929 . S
H333 C343 0.929 . S
H334 C338 0.929 . S
H335 C344 0.929 . S
C336 H330 0.930 . S
C336 C337 1.367 . S
C336 C344 1.378 . S
C337 C336 1.367 . S
C337 C345 1.433 . S
C338 H334 0.929 . S
C338 C340 1.378 . S
C338 C342 1.350 . S
C339 C342 1.463 . S
C339 C344 1.350 . S
C339 N347 1.427 . S
C340 H331 0.930 . S
C340 C338 1.378 . S
C340 C341 1.367 . S
C341 C340 1.367 . S
C341 C343 1.433 . S
C342 C338 1.350 . S
C342 C339 1.463 . S
C342 N346 1.427 . S
C343 H333 0.929 . S
C343 C341 1.433 . S
C343 N346 1.384 . S
C344 H335 0.929 . S
C344 C336 1.378 . S
C344 C339 1.350 . S
C345 H332 0.929 . S
C345 C337 1.433 . S
C345 N347 1.384 . S
N346 C342 1.427 . S
N346 C343 1.384 . S
N347 C339 1.427 . S
N347 C345 1.384 . S
H348 C354 0.930 . S
H349 C358 0.930 . S
H350 C363 0.929 . S
H351 C361 0.929 1_554 S
H352 C356 0.929 . S
H353 C362 0.929 1_554 S
C354 H348 0.930 . S
C354 C355 1.367 1_554 S
C354 C362 1.378 1_554 S
C355 C354 1.367 1_556 S
C355 C363 1.433 . S
C356 H352 0.929 . S
C356 C358 1.378 . S
C356 C360 1.350 . S
C357 C360 1.463 . S
C357 C362 1.350 . S
C357 N365 1.427 . S
C358 H349 0.930 . S
C358 C356 1.378 . S
C358 C359 1.367 . S
C359 C358 1.367 . S
C359 C361 1.433 . S
C360 C356 1.350 . S
C360 C357 1.463 . S
C360 N364 1.427 . S
C361 H351 0.929 1_556 S
C361 C359 1.433 . S
C361 N364 1.384 . S
C362 H353 0.929 1_556 S
C362 C354 1.378 1_556 S
C362 C357 1.350 . S
C363 H350 0.929 . S
C363 C355 1.433 . S
C363 N365 1.384 . S
N364 C360 1.427 . S
N364 C361 1.384 . S
N365 C357 1.427 . S
N365 C363 1.384 . S
H366 C372 0.930 . S
H367 C376 0.930 . S
H368 C381 0.929 . S
H369 C379 0.929 . S
H370 C374 0.929 . S
H371 C380 0.929 . S
C372 H366 0.930 . S
C372 C373 1.367 . S
C372 C380 1.378 . S
C373 C372 1.367 . S
C373 C381 1.433 1_554 S
C374 H370 0.929 . S
C374 C376 1.378 . S
C374 C378 1.350 1_556 S
C375 C378 1.463 . S
C375 C380 1.350 . S
C375 N383 1.427 1_554 S
C376 H367 0.930 . S
C376 C374 1.378 . S
C376 C377 1.367 1_556 S
C377 C376 1.367 1_554 S
C377 C379 1.433 . S
C378 C374 1.350 1_554 S
C378 C375 1.463 . S
C378 N382 1.427 . S
C379 H369 0.929 . S
C379 C377 1.433 . S
C379 N382 1.384 . S
C380 H371 0.929 . S
C380 C372 1.378 . S
C380 C375 1.350 . S
C381 H368 0.929 . S
C381 C373 1.433 1_556 S
C381 N383 1.384 . S
N382 C378 1.427 . S
N382 C379 1.384 . S
N383 C375 1.427 1_556 S
N383 C381 1.384 . S
H384 C390 0.930 1_554 S
H385 C394 0.930 . S
H386 C399 0.929 . S
H387 C397 0.929 . S
H388 C392 0.929 . S
H389 C398 0.929 1_554 S
C390 H384 0.930 1_556 S
C390 C391 1.367 . S
C390 C398 1.378 . S
C391 C390 1.367 . S
C391 C399 1.433 . S
C392 H388 0.929 . S
C392 C394 1.378 . S
C392 C396 1.350 . S
C393 C396 1.463 . S
C393 C398 1.350 . S
C393 N401 1.427 . S
C394 H385 0.930 . S
C394 C392 1.378 . S
C394 C395 1.367 . S
C395 C394 1.367 . S
C395 C397 1.433 1_556 S
C396 C392 1.350 . S
C396 C393 1.463 . S
C396 N400 1.427 . S
C397 H387 0.929 . S
C397 C395 1.433 1_554 S
C397 N400 1.384 1_554 S
C398 H389 0.929 1_556 S
C398 C390 1.378 . S
C398 C393 1.350 . S
C399 H386 0.929 . S
C399 C391 1.433 . S
C399 N401 1.384 . S
N400 C396 1.427 . S
N400 C397 1.384 1_556 S
N401 C393 1.427 . S
N401 C399 1.384 . S
H402 C408 0.930 . S
H403 C412 0.930 . S
H404 C417 0.929 . S
H405 C415 0.929 . S
H406 C410 0.929 . S
H407 C416 0.929 . S
C408 H402 0.930 . S
C408 C409 1.367 . S
C408 C416 1.378 . S
C409 C408 1.367 . S
C409 C417 1.433 1_554 S
C410 H406 0.929 . S
C410 C412 1.378 . S
C410 C414 1.350 1_556 S
C411 C414 1.463 . S
C411 C416 1.350 . S
C411 N419 1.427 1_554 S
C412 H403 0.930 . S
C412 C410 1.378 . S
C412 C413 1.367 1_556 S
C413 C412 1.367 1_554 S
C413 C415 1.433 . S
C414 C410 1.350 1_554 S
C414 C411 1.463 . S
C414 N418 1.427 . S
C415 H405 0.929 . S
C415 C413 1.433 . S
C415 N418 1.384 . S
C416 H407 0.929 . S
C416 C408 1.378 . S
C416 C411 1.350 . S
C417 H404 0.929 . S
C417 C409 1.433 1_556 S
C417 N419 1.384 . S
N418 C414 1.427 . S
N418 C415 1.384 . S
N419 C411 1.427 1_556 S
N419 C417 1.384 . S
H420 C426 0.930 . S
H421 C430 0.930 1_554 S
H422 C435 0.929 . S
H423 C433 0.929 . S
H424 C428 0.929 . S
H425 C434 0.929 . S
C426 H420 0.930 . S
C426 C427 1.367 . S
C426 C434 1.378 . S
C427 C426 1.367 . S
C427 C435 1.433 . S
C428 H424 0.929 . S
C428 C430 1.378 . S
C428 C432 1.350 . S
C429 C432 1.463 . S
C429 C434 1.350 . S
C429 N437 1.427 . S
C430 H421 0.930 1_556 S
C430 C428 1.378 . S
C430 C431 1.367 . S
C431 C430 1.367 . S
C431 C433 1.433 . S
C432 C428 1.350 . S
C432 C429 1.463 . S
C432 N436 1.427 . S
C433 H423 0.929 . S
C433 C431 1.433 . S
C433 N436 1.384 . S
C434 H425 0.929 . S
C434 C426 1.378 . S
C434 C429 1.350 . S
C435 H422 0.929 . S
C435 C427 1.433 . S
C435 N437 1.384 . S
N436 C432 1.427 . S
N436 C433 1.384 . S
N437 C429 1.427 . S
N437 C435 1.384 . S
H438 C444 0.930 . S
H439 C448 0.930 . S
H440 C453 0.929 . S
H441 C451 0.929 1_556 S
H442 C446 0.929 . S
H443 C452 0.929 . S
C444 H438 0.930 . S
C444 C445 1.367 . S
C444 C452 1.378 . S
C445 C444 1.367 . S
C445 C453 1.433 . S
C446 H442 0.929 . S
C446 C448 1.378 . S
C446 C450 1.350 . S
C447 C450 1.463 . S
C447 C452 1.350 . S
C447 N455 1.427 . S
C448 H439 0.930 . S
C448 C446 1.378 . S
C448 C449 1.367 . S
C449 C448 1.367 . S
C449 C451 1.433 . S
C450 C446 1.350 . S
C450 C447 1.463 . S
C450 N454 1.427 . S
C451 H441 0.929 1_554 S
C451 C449 1.433 . S
C451 N454 1.384 . S
C452 H443 0.929 . S
C452 C444 1.378 . S
C452 C447 1.350 . S
C453 H440 0.929 . S
C453 C445 1.433 . S
C453 N455 1.384 . S
N454 C450 1.427 . S
N454 C451 1.384 . S
N455 C447 1.427 . S
N455 C453 1.384 . S
H456 C462 0.930 . S
H457 C466 0.930 . S
H458 C471 0.929 . S
H459 C469 0.929 . S
H460 C464 0.929 . S
H461 C470 0.929 . S
C462 H456 0.930 . S
C462 C463 1.367 . S
C462 C470 1.378 . S
C463 C462 1.367 . S
C463 C471 1.433 . S
C464 H460 0.929 . S
C464 C466 1.378 . S
C464 C468 1.350 . S
C465 C468 1.463 . S
C465 C470 1.350 . S
C465 N473 1.427 . S
C466 H457 0.930 . S
C466 C464 1.378 . S
C466 C467 1.367 . S
C467 C466 1.367 . S
C467 C469 1.433 . S
C468 C464 1.350 . S
C468 C465 1.463 . S
C468 N472 1.427 . S
C469 H459 0.929 . S
C469 C467 1.433 . S
C469 N472 1.384 . S
C470 H461 0.929 . S
C470 C462 1.378 . S
C470 C465 1.350 . S
C471 H458 0.929 . S
C471 C463 1.433 . S
C471 N473 1.384 . S
N472 C468 1.427 . S
N472 C469 1.384 . S
N473 C465 1.427 . S
N473 C471 1.384 . S
H474 C480 0.930 . S
H475 C484 0.930 . S
H476 C489 0.929 . S
H477 C487 0.929 . S
H478 C482 0.929 . S
H479 C488 0.929 . S
C480 H474 0.930 . S
C480 C481 1.367 . S
C480 C488 1.378 . S
C481 C480 1.367 . S
C481 C489 1.433 . S
C482 H478 0.929 . S
C482 C484 1.378 . S
C482 C486 1.350 . S
C483 C486 1.463 . S
C483 C488 1.350 . S
C483 N491 1.427 . S
C484 H475 0.930 . S
C484 C482 1.378 . S
C484 C485 1.367 . S
C485 C484 1.367 . S
C485 C487 1.433 . S
C486 C482 1.350 . S
C486 C483 1.463 . S
C486 N490 1.427 . S
C487 H477 0.929 . S
C487 C485 1.433 . S
C487 N490 1.384 . S
C488 H479 0.929 . S
C488 C480 1.378 . S
C488 C483 1.350 . S
C489 H476 0.929 . S
C489 C481 1.433 . S
C489 N491 1.384 . S
N490 C486 1.427 . S
N490 C487 1.384 . S
N491 C483 1.427 . S
N491 C489 1.384 . S
H492 C498 0.930 . S
H493 C502 0.930 . S
H494 C507 0.929 . S
H495 C505 0.929 . S
H496 C500 0.929 . S
H497 C506 0.929 . S
C498 H492 0.930 . S
C498 C499 1.367 . S
C498 C506 1.378 . S
C499 C498 1.367 . S
C499 C507 1.433 . S
C500 H496 0.929 . S
C500 C502 1.378 . S
C500 C504 1.350 . S
C501 C504 1.463 . S
C501 C506 1.350 . S
C501 N509 1.427 . S
C502 H493 0.930 . S
C502 C500 1.378 . S
C502 C503 1.367 . S
C503 C502 1.367 . S
C503 C505 1.433 . S
C504 C500 1.350 . S
C504 C501 1.463 . S
C504 N508 1.427 . S
C505 H495 0.929 . S
C505 C503 1.433 . S
C505 N508 1.384 . S
C506 H497 0.929 . S
C506 C498 1.378 . S
C506 C501 1.350 . S
C507 H494 0.929 . S
C507 C499 1.433 . S
C507 N509 1.384 . S
N508 C504 1.427 . S
N508 C505 1.384 . S
N509 C501 1.427 . S
N509 C507 1.384 . S
H510 C516 0.930 . S
H511 C520 0.930 . S
H512 C525 0.929 . S
H513 C523 0.929 . S
H514 C518 0.929 . S
H515 C524 0.929 . S
C516 H510 0.930 . S
C516 C517 1.367 . S
C516 C524 1.378 . S
C517 C516 1.367 . S
C517 C525 1.433 . S
C518 H514 0.929 . S
C518 C520 1.378 . S
C518 C522 1.350 . S
C519 C522 1.463 . S
C519 C524 1.350 . S
C519 N527 1.427 . S
C520 H511 0.930 . S
C520 C518 1.378 . S
C520 C521 1.367 . S
C521 C520 1.367 . S
C521 C523 1.433 . S
C522 C518 1.350 . S
C522 C519 1.463 . S
C522 N526 1.427 . S
C523 H513 0.929 . S
C523 C521 1.433 . S
C523 N526 1.384 . S
C524 H515 0.929 . S
C524 C516 1.378 . S
C524 C519 1.350 . S
C525 H512 0.929 . S
C525 C517 1.433 . S
C525 N527 1.384 . S
N526 C522 1.427 . S
N526 C523 1.384 . S
N527 C519 1.427 . S
N527 C525 1.384 . S
H528 C534 0.930 . S
H529 C538 0.930 . S
H530 C543 0.929 . S
H531 C541 0.929 . S
H532 C536 0.929 . S
H533 C542 0.929 . S
C534 H528 0.930 . S
C534 C535 1.367 . S
C534 C542 1.378 . S
C535 C534 1.367 . S
C535 C543 1.433 . S
C536 H532 0.929 . S
C536 C538 1.378 . S
C536 C540 1.350 . S
C537 C540 1.463 . S
C537 C542 1.350 . S
C537 N545 1.427 . S
C538 H529 0.930 . S
C538 C536 1.378 . S
C538 C539 1.367 . S
C539 C538 1.367 . S
C539 C541 1.433 . S
C540 C536 1.350 . S
C540 C537 1.463 . S
C540 N544 1.427 . S
C541 H531 0.929 . S
C541 C539 1.433 . S
C541 N544 1.384 . S
C542 H533 0.929 . S
C542 C534 1.378 . S
C542 C537 1.350 . S
C543 H530 0.929 . S
C543 C535 1.433 . S
C543 N545 1.384 . S
N544 C540 1.427 . S
N544 C541 1.384 . S
N545 C537 1.427 . S
N545 C543 1.384 . S
H546 C552 0.930 . S
H547 C556 0.930 . S
H548 C561 0.929 . S
H549 C559 0.929 . S
H550 C554 0.929 . S
H551 C560 0.929 . S
C552 H546 0.930 . S
C552 C553 1.367 . S
C552 C560 1.378 . S
C553 C552 1.367 . S
C553 C561 1.433 . S
C554 H550 0.929 . S
C554 C556 1.378 . S
C554 C558 1.350 . S
C555 C558 1.463 . S
C555 C560 1.350 . S
C555 N563 1.427 . S
C556 H547 0.930 . S
C556 C554 1.378 . S
C556 C557 1.367 . S
C557 C556 1.367 . S
C557 C559 1.433 . S
C558 C554 1.350 . S
C558 C555 1.463 . S
C558 N562 1.427 . S
C559 H549 0.929 . S
C559 C557 1.433 . S
C559 N562 1.384 . S
C560 H551 0.929 . S
C560 C552 1.378 . S
C560 C555 1.350 . S
C561 H548 0.929 . S
C561 C553 1.433 . S
C561 N563 1.384 . S
N562 C558 1.427 . S
N562 C559 1.384 . S
N563 C555 1.427 . S
N563 C561 1.384 . S
C247 C210 2.617 . S
C251 C6 2.575 . S
C265 C10 3.706 . S
C269 C46 3.618 . S
C283 C50 3.585 . S
C287 C86 3.388 . S
C301 C130 3.107 . S
C305 C90 3.121 . S
C319 C166 2.397 . S
C323 C126 2.258 . S
C337 C170 3.273 . S
C341 C206 2.857 . S
C355 C179 1.203 . S
C359 C15 1.251 . S
C373 C219 2.469 . S
C377 C55 2.406 . S
C391 C95 3.174 . S
C395 C19 3.191 . S
C409 C139 3.706 . S
C413 C59 3.730 . S
C427 C175 1.999 . S
C431 C99 2.092 1_556 S
C445 C135 0.827 . S
C449 C215 0.839 . S
C463 C9 0.413 . S
C467 C18 0.413 . S
C481 C49 0.473 . S
C485 C58 0.473 . S
C499 C89 0.528 . S
C503 C98 0.528 . S
C517 C138 0.508 . S
C521 C129 0.508 . S
C535 C178 0.392 . S
C539 C169 0.392 . S
C553 C209 0.610 . S
C557 C218 0.610 . S
