# Generated by pormake.
# Topology tsi, (8)-cn, num edge types: 1
# Building blocks:
#     Node 0, Type 0, BuildingBlock: TAGTUT_clean_sbu_1, # of connection points: 8
#     Node 1, Type 0, BuildingBlock: TAGTUT_clean_sbu_1, # of connection points: 8
#     Node 2, Type 0, BuildingBlock: TAGTUT_clean_sbu_1, # of connection points: 8
#     Node 3, Type 0, BuildingBlock: TAGTUT_clean_sbu_1, # of connection points: 8
#     Edge 4, Type (0, 0), BuildingBlock: UVAHIK_clean_linker_0, # of connection points: 2
#     Edge 5, Type (0, 0), BuildingBlock: UVAHIK_clean_linker_0, # of connection points: 2
#     Edge 6, Type (0, 0), BuildingBlock: UVAHIK_clean_linker_0, # of connection points: 2
#     Edge 7, Type (0, 0), BuildingBlock: UVAHIK_clean_linker_0, # of connection points: 2
#     Edge 8, Type (0, 0), BuildingBlock: UVAHIK_clean_linker_0, # of connection points: 2
#     Edge 9, Type (0, 0), BuildingBlock: UVAHIK_clean_linker_0, # of connection points: 2
#     Edge 10, Type (0, 0), BuildingBlock: UVAHIK_clean_linker_0, # of connection points: 2
#     Edge 11, Type (0, 0), BuildingBlock: UVAHIK_clean_linker_0, # of connection points: 2
#     Edge 12, Type (0, 0), BuildingBlock: UVAHIK_clean_linker_0, # of connection points: 2
#     Edge 13, Type (0, 0), BuildingBlock: UVAHIK_clean_linker_0, # of connection points: 2
#     Edge 14, Type (0, 0), BuildingBlock: UVAHIK_clean_linker_0, # of connection points: 2
#     Edge 15, Type (0, 0), BuildingBlock: UVAHIK_clean_linker_0, # of connection points: 2
#     Edge 16, Type (0, 0), BuildingBlock: UVAHIK_clean_linker_0, # of connection points: 2
#     Edge 17, Type (0, 0), BuildingBlock: UVAHIK_clean_linker_0, # of connection points: 2
#     Edge 18, Type (0, 0), BuildingBlock: UVAHIK_clean_linker_0, # of connection points: 2
#     Edge 19, Type (0, 0), BuildingBlock: UVAHIK_clean_linker_0, # of connection points: 2
# Relax obj value: 0.133
# Max RMSD: 0.247
# Mean RMSD: 0.247
data_MOF--net-tsi--node1-TAGTUT_clean_sbu_1--edge1-UVAHIK_clean_linker_0
_symmetry_space_group_name_H-M    P1
_symmetry_Int_Tables_number       1
_symmetry_cell_setting            triclinic
loop_
_symmetry_equiv_pos_as_xyz
'x, y, z'
_cell_length_a     19.746049
_cell_length_b     20.323511
_cell_length_c     81.408464
_cell_angle_alpha  93.1506
_cell_angle_beta   91.914247
_cell_angle_gamma 111.67482
loop_
_atom_site_label
_atom_site_type_symbol
_atom_site_fract_x
_atom_site_fract_y
_atom_site_fract_z
_atom_type_partial_charge
C0 C 0.03369 0.22433 0.42708 0.0
C1 C -0.00389 0.4045 0.41259 0.0
C2 C 0.85705 0.22649 0.35778 0.0
Mg3 Mg 0.11102 0.3423 0.4038 0.0
O4 O 0.04324 0.27825 0.38855 0.0
Mg5 Mg 0.93779 0.23846 0.39338 0.0
Mg6 Mg 0.0329 0.2987 0.36527 0.0
O7 O 0.02143 0.31554 0.34187 0.0
Mg8 Mg 0.96376 0.2332 0.32901 0.0
Mg9 Mg 0.12599 0.36115 0.33661 0.0
C10 C 0.21135 0.3603 0.37297 0.0
C11 C 0.08563 0.46915 0.36193 0.0
O12 O 0.97498 0.20899 0.41793 0.0
O13 O 0.09445 0.27218 0.42373 0.0
O14 O 0.9463 0.34521 0.40717 0.0
O15 O 0.06361 0.41812 0.41043 0.0
O16 O 0.2057 0.36823 0.3886 0.0
O17 O 0.15494 0.33361 0.3629 0.0
C18 C 0.97406 0.12779 0.36808 0.0
O19 O 0.01351 0.18005 0.36015 0.0
O20 O 0.93889 0.13703 0.38038 0.0
O21 O 0.07787 0.37908 0.3109 0.0
O22 O 0.96659 0.29012 0.30797 0.0
O23 O 0.1301 0.26004 0.32411 0.0
C24 C 0.01605 0.34485 0.3029 0.0
O25 O 0.02466 0.16765 0.32206 0.0
O26 O 0.86578 0.20465 0.34315 0.0
C27 C 0.09259 0.19537 0.3195 0.0
O28 O 0.91135 0.26618 0.3674 0.0
O29 O 0.05113 0.41717 0.37051 0.0
O30 O 0.11768 0.46023 0.34907 0.0
C31 C 0.97719 0.65394 0.68709 0.0
C32 C 0.90536 0.80818 0.67136 0.0
C33 C 0.79246 0.65182 0.61636 0.0
Mg34 Mg 0.03468 0.77062 0.66225 0.0
O35 O 0.97805 0.69076 0.64854 0.0
Mg36 Mg 0.87252 0.64442 0.65296 0.0
Mg37 Mg 0.97027 0.71124 0.62527 0.0
O38 O 0.96341 0.7352 0.60217 0.0
Mg39 Mg 0.89713 0.67366 0.58629 0.0
Mg40 Mg 0.06969 0.77511 0.59811 0.0
C41 C 0.14534 0.7815 0.63414 0.0
C42 C 0.03019 0.883 0.62362 0.0
O43 O 0.91624 0.62161 0.67861 0.0
O44 O 0.0279 0.70942 0.68269 0.0
O45 O 0.86786 0.74425 0.66613 0.0
O46 O 0.97377 0.8359 0.66933 0.0
O47 O 0.13473 0.80079 0.64885 0.0
O48 O 0.09219 0.74382 0.62399 0.0
C49 C 0.91626 0.53971 0.62736 0.0
O50 O 0.9525 0.59302 0.61933 0.0
O51 O 0.88196 0.54686 0.63999 0.0
O52 O 0.0367 0.80816 0.57356 0.0
O53 O 0.91769 0.74635 0.56685 0.0
O54 O 0.06202 0.66949 0.58385 0.0
C55 C 0.97929 0.79428 0.56405 0.0
O56 O 0.94452 0.59781 0.57969 0.0
O57 O 0.80003 0.64662 0.60074 0.0
C58 C 0.01227 0.61093 0.57799 0.0
O59 O 0.8478 0.67589 0.62677 0.0
O60 O -0.01066 0.82967 0.63107 0.0
O61 O 0.06727 0.8752 0.61156 0.0
C62 C 0.51561 0.71681 0.92619 0.0
C63 C 0.48199 0.89807 0.91103 0.0
C64 C 0.34886 0.72294 0.8557 0.0
Mg65 Mg 0.59737 0.83501 0.90333 0.0
O66 O 0.53129 0.77161 0.88769 0.0
Mg67 Mg 0.42497 0.73225 0.89177 0.0
Mg68 Mg 0.52416 0.79359 0.86442 0.0
O69 O 0.51592 0.81204 0.84103 0.0
Mg70 Mg 0.45902 0.73105 0.82766 0.0
Mg71 Mg 0.62136 0.85771 0.8365 0.0
C72 C 0.70194 0.85413 0.87328 0.0
C73 C 0.57811 0.96454 0.86156 0.0
O74 O 0.45821 0.70176 0.91661 0.0
O75 O 0.57712 0.76452 0.92324 0.0
O76 O 0.43246 0.8389 0.90545 0.0
O77 O 0.54976 0.91128 0.90935 0.0
O78 O 0.69437 0.86096 0.88886 0.0
O79 O 0.64661 0.82851 0.86289 0.0
C80 C 0.46418 0.62233 0.86682 0.0
O81 O 0.50482 0.67497 0.85914 0.0
O82 O 0.42741 0.63109 0.87885 0.0
O83 O 0.57737 0.8781 0.81062 0.0
O84 O 0.46572 0.79009 0.80684 0.0
O85 O 0.62573 0.75673 0.8239 0.0
C86 C 0.51642 0.84501 0.8022 0.0
O87 O 0.51977 0.66503 0.82104 0.0
O88 O 0.359 0.70232 0.84107 0.0
C89 C 0.58818 0.69242 0.81898 0.0
O90 O 0.40237 0.76123 0.86568 0.0
O91 O 0.54214 0.91199 0.86983 0.0
O92 O 0.61211 0.95637 0.84897 0.0
C93 C 0.47489 0.1524 0.18615 0.0
C94 C 0.39876 0.3037 0.17046 0.0
C95 C 0.28176 0.14425 0.11623 0.0
Mg96 Mg 0.52797 0.26699 0.16071 0.0
O97 O 0.47076 0.18585 0.14744 0.0
Mg98 Mg 0.36596 0.13944 0.15248 0.0
Mg99 Mg 0.46019 0.20483 0.12415 0.0
O100 O 0.45053 0.22731 0.10102 0.0
Mg101 Mg 0.38284 0.16489 0.0855 0.0
Mg102 Mg 0.55607 0.2676 0.09633 0.0
C103 C 0.63574 0.27664 0.13198 0.0
C104 C 0.51909 0.37626 0.12208 0.0
O105 O 0.41325 0.11894 0.17801 0.0
O106 O 0.52451 0.20778 0.18137 0.0
O107 O 0.36136 0.23939 0.16551 0.0
O108 O 0.46678 0.33179 0.16802 0.0
O109 O 0.62632 0.29702 0.14669 0.0
O110 O 0.58193 0.23768 0.12214 0.0
C111 C 0.4073 0.03374 0.12668 0.0
O112 O 0.44225 0.08657 0.11838 0.0
O113 O 0.37468 0.04149 0.13954 0.0
O114 O 0.5196 0.29947 0.07198 0.0
O115 O 0.40012 0.23702 0.066 0.0
O116 O 0.54762 0.16183 0.08204 0.0
C117 C 0.46103 0.28512 0.06284 0.0
O118 O 0.43016 0.08946 0.07846 0.0
O119 O 0.28768 0.13792 0.10057 0.0
C120 C 0.49771 0.10303 0.07637 0.0
O121 O 0.33804 0.16939 0.12636 0.0
O122 O 0.47928 0.32331 0.12978 0.0
O123 O 0.55475 0.36797 0.10979 0.0
C124 C 0.03562 0.50855 0.43328 0.0
C125 C 0.97971 0.44661 0.42626 0.0
C126 C 0.03641 0.52987 0.44993 0.0
C127 C 0.97449 0.44022 0.48746 0.0
H128 H 0.0609 0.62927 0.50915 0.0
C129 C 0.97463 0.50703 0.55731 0.0
C130 C 0.02982 0.56924 0.56442 0.0
C131 C 0.97482 0.48586 0.54069 0.0
C132 C 0.03795 0.57601 0.50326 0.0
H133 H 0.874 0.36669 0.43045 0.0
H134 H 0.8746 0.40514 0.45929 0.0
H135 H 0.03705 0.61479 0.47933 0.0
H136 H 0.13532 0.65001 0.56047 0.0
H137 H 0.13651 0.61178 0.53167 0.0
H138 H 0.97541 0.40142 0.51138 0.0
C139 C 0.91952 0.43518 0.45213 0.0
C140 C 0.02359 0.56783 0.48618 0.0
C141 C 0.91866 0.41389 0.43547 0.0
C142 C 0.09122 0.60252 0.55536 0.0
C143 C 0.09137 0.58137 0.53873 0.0
C144 C -0.0111 0.4484 0.50454 0.0
C145 C 0.98082 0.49017 0.45979 0.0
C146 C -0.00854 0.49983 0.47807 0.0
C147 C 0.03071 0.526 0.53095 0.0
C148 C 0.02083 0.5164 0.51266 0.0
H149 H 0.08295 0.53581 0.42647 0.0
H150 H 0.08404 0.57317 0.45536 0.0
H151 H 0.95146 0.38696 0.48157 0.0
H152 H 0.92705 0.47941 0.56402 0.0
H153 H 0.92763 0.4423 0.53517 0.0
C154 C 0.69589 0.68712 0.80512 0.0
C155 C 0.61945 0.66315 0.80552 0.0
C156 C 0.72909 0.6981 0.79008 0.0
C157 C 0.69514 0.67951 0.74436 0.0
H158 H 0.83942 0.87178 0.74735 0.0
C159 C 0.79762 0.81161 0.68556 0.0
C160 C 0.87405 0.83609 0.68506 0.0
C161 C 0.76477 0.7999 0.70063 0.0
C162 C 0.79947 0.81799 0.7463 0.0
H163 H 0.5181 0.61952 0.79047 0.0
H164 H 0.57565 0.63756 0.76435 0.0
H165 H 0.79051 0.81625 0.77238 0.0
H166 H 0.97568 0.87952 0.70001 0.0
H167 H 0.9187 0.86024 0.7262 0.0
H168 H 0.70406 0.68129 0.71828 0.0
C169 C 0.6103 0.64945 0.77557 0.0
C170 C 0.77189 0.78574 0.76066 0.0
C171 C 0.57711 0.63814 0.79063 0.0
C172 C 0.91666 0.86058 0.69993 0.0
C173 C 0.88382 0.84856 0.71502 0.0
C174 C 0.72271 0.71177 0.73 0.0
C175 C 0.68638 0.68457 0.7752 0.0
C176 C 0.71944 0.71602 0.75989 0.0
C177 C 0.80781 0.81318 0.71545 0.0
C178 C 0.7751 0.78151 0.73077 0.0
H179 H 0.72998 0.70626 0.81641 0.0
H180 H 0.78801 0.72283 0.79019 0.0
H181 H 0.65514 0.62574 0.74331 0.0
H182 H 0.76331 0.79283 0.67429 0.0
H183 H 0.70588 0.77496 0.70058 0.0
C184 C 0.57148 0.68503 0.95124 0.0
C185 C 0.50981 0.67578 0.94088 0.0
C186 C 0.56535 0.64369 0.96469 0.0
C187 C 0.44823 0.47376 0.97981 0.0
H188 H 0.54799 0.55628 0.02211 0.0
C189 C 0.40191 0.31838 0.03852 0.0
C190 C 0.46469 0.3276 0.04849 0.0
C191 C 0.40609 0.36085 0.02535 0.0
C192 C 0.52033 0.53239 0.01032 0.0
H193 H 0.39295 0.61705 0.93681 0.0
H194 H 0.38256 0.54596 0.96024 0.0
H195 H 0.55909 0.63185 -0.00071 0.0
H196 H 0.5814 0.38781 0.0522 0.0
H197 H 0.58845 0.46077 0.02926 0.0
H198 H 0.40966 0.37426 0.99082 0.0
C199 C 0.43578 0.58416 0.95783 0.0
C200 C 0.52678 0.57563 -0.00273 0.0
C201 C 0.44182 0.62531 0.94443 0.0
C202 C 0.53174 0.37943 0.04487 0.0
C203 C 0.53585 0.42171 0.03177 0.0
C204 C 0.44178 0.43052 0.99286 0.0
C205 C 0.49751 0.59239 0.968 0.0
C206 C 0.49089 0.54672 0.98188 0.0
C207 C 0.47307 0.41329 0.02195 0.0
C208 C 0.478 0.45936 0.00822 0.0
H209 H 0.62461 0.72341 0.94885 0.0
H210 H 0.61399 0.6508 0.97229 0.0
H211 H 0.42076 0.44981 0.968 0.0
H212 H 0.34943 0.27902 0.04098 0.0
H213 H 0.3567 0.35353 0.01803 0.0
C214 C 0.94682 0.39897 0.28687 0.0
C215 C -0.00277 0.36519 0.28695 0.0
C216 C 0.89017 0.37914 0.27464 0.0
C217 C 0.81025 0.26359 0.23626 0.0
H218 H 0.63089 0.21456 0.25924 0.0
C219 C 0.5434 0.09606 0.20169 0.0
C220 C 0.49334 0.13024 0.20191 0.0
C221 C 0.59997 0.11448 0.21391 0.0
C222 C 0.68038 0.22795 0.25263 0.0
H223 H 0.03569 0.29354 0.27304 0.0
H224 H 0.93845 0.26021 0.25147 0.0
H225 H 0.74717 0.28444 0.27391 0.0
H226 H 0.45527 0.20091 0.2163 0.0
H227 H 0.55238 0.23192 0.23781 0.0
H228 H 0.74347 0.2073 0.21497 0.0
C229 C 0.94132 0.30109 0.26088 0.0
C230 C 0.74705 0.26878 0.26097 0.0
C231 C -0.002 0.32112 0.27312 0.0
C232 C 0.49272 0.17308 0.21598 0.0
C233 C 0.54935 0.19176 0.22819 0.0
C234 C 0.74355 0.22283 0.22791 0.0
C235 C 0.8837 0.32564 0.26229 0.0
C236 C 0.8128 0.28733 0.25287 0.0
C237 C 0.60674 0.16702 0.22653 0.0
C238 C 0.67776 0.20444 0.236 0.0
H239 H 0.94468 0.43255 0.2975 0.0
H240 H 0.84771 0.40063 0.27577 0.0
H241 H 0.85978 0.27701 0.22967 0.0
H242 H 0.54538 0.06337 0.19088 0.0
H243 H 0.64216 0.09275 0.21258 0.0
C244 C 0.29223 0.30653 0.18528 0.0
C245 C 0.3685 0.33217 0.18426 0.0
C246 C 0.26148 0.29605 0.2006 0.0
C247 C 0.31354 0.24951 0.24061 0.0
H248 H 0.12471 0.24704 0.2528 0.0
C249 C 0.19872 0.19074 0.30482 0.0
C250 C 0.12248 0.16554 0.30586 0.0
C251 C 0.22933 0.2004 0.28947 0.0
C252 C 0.17694 0.24605 0.24942 0.0
H253 H 0.47177 0.3792 0.19852 0.0
H254 H 0.41811 0.36328 0.22521 0.0
H255 H 0.17722 0.30381 0.22816 0.0
H256 H 0.01906 0.11812 0.29167 0.0
H257 H 0.07246 0.1326 0.26495 0.0
H258 H 0.31328 0.19181 0.26188 0.0
C259 C 0.3821 0.34829 0.21417 0.0
C260 C 0.20736 0.27936 0.23537 0.0
C261 C 0.41283 0.35898 0.19883 0.0
C262 C 0.07799 0.13807 0.29134 0.0
C263 C 0.10857 0.14793 0.27597 0.0
C264 C 0.28312 0.2162 0.25466 0.0
C265 C 0.30653 0.3119 0.21517 0.0
C266 C 0.27615 0.28169 0.2308 0.0
C267 C 0.18415 0.1841 0.27491 0.0
C268 C 0.21436 0.21394 0.25924 0.0
H269 H 0.25663 0.28567 0.17425 0.0
H270 H 0.20298 0.26868 0.20088 0.0
H271 H 0.36579 0.24857 0.23723 0.0
H272 H 0.23444 0.21207 0.31581 0.0
H273 H 0.28784 0.2276 0.28915 0.0
C274 C -0.00937 0.67146 0.71695 0.0
C275 C -0.0064 0.63013 0.70281 0.0
C276 C 0.04687 0.69128 0.72928 0.0
C277 C 0.22156 0.67367 0.74255 0.0
H278 H 0.29169 0.87949 0.74744 0.0
C279 C 0.50307 0.82473 0.77236 0.0
C280 C 0.49998 0.86722 0.78628 0.0
C281 C 0.44717 0.80425 0.75995 0.0
C282 C 0.27287 0.8221 0.74621 0.0
H283 H 0.04888 0.56615 0.69184 0.0
H284 H 0.14572 0.59863 0.71346 0.0
H285 H 0.1714 0.81246 0.73421 0.0
H286 H 0.44468 0.93214 0.79677 0.0
H287 H 0.34838 0.89841 0.77502 0.0
H288 H 0.32295 0.68328 0.75459 0.0
C289 C 0.10144 0.61733 0.71502 0.0
C290 C 0.20351 0.78351 0.73882 0.0
C291 C 0.0451 0.59759 0.70271 0.0
C292 C 0.44859 0.89985 0.78606 0.0
C293 C 0.39255 0.8794 0.77368 0.0
C294 C 0.29091 0.71226 0.74996 0.0
C295 C 0.10605 0.66914 0.72765 0.0
C296 C 0.17691 0.7088 0.73694 0.0
C297 C 0.38809 0.82675 0.76127 0.0
C298 C 0.31747 0.78699 0.75187 0.0
H299 H 0.95167 0.69758 0.71725 0.0
H300 H 0.0478 0.72958 0.73916 0.0
H301 H 0.20272 0.61627 0.74129 0.0
H302 H 0.54193 0.79848 0.77232 0.0
H303 H 0.44645 0.76534 0.75023 0.0
C304 C 0.40258 0.90799 0.93341 0.0
C305 C 0.46431 0.94061 0.9244 0.0
C306 C 0.40233 0.92954 0.95001 0.0
C307 C 0.50515 0.06201 0.98424 0.0
H308 H 0.45708 0.89517 0.00928 0.0
C309 C 0.5751 0.09515 0.05336 0.0
C310 C 0.51421 0.06171 0.06255 0.0
C311 C 0.57429 0.07449 0.03666 0.0
C312 C 0.47049 0.94227 0.00249 0.0
H313 H 0.56737 0.03007 0.92477 0.0
H314 H 0.56659 0.06789 0.95357 0.0
H315 H 0.43309 0.88117 0.97948 0.0
H316 H 0.41129 0.9721 0.06225 0.0
H317 H 0.41024 0.93585 0.03329 0.0
H318 H 0.54262 0.12312 0.00725 0.0
C319 C 0.51929 0.02445 0.94805 0.0
C320 C 0.45605 0.93435 0.98542 0.0
C321 C 0.51959 0.00287 0.93146 0.0
C322 C 0.45851 0.99984 0.05545 0.0
C323 C 0.45775 0.97917 0.03876 0.0
C324 C 0.51957 0.06994 0.00131 0.0
C325 C 0.46319 0.98469 0.95778 0.0
C326 C 0.47313 0.99412 0.97607 0.0
C327 C 0.51318 0.01946 0.02894 0.0
C328 C 0.50259 0.01016 0.01065 0.0
H329 H 0.35832 0.86057 0.92833 0.0
H330 H 0.35701 0.89947 0.95707 0.0
H331 H 0.51869 0.10909 0.97743 0.0
H332 H 0.61958 0.14237 0.05844 0.0
H333 H 0.6191 0.10499 0.02952 0.0
C334 C 0.96336 0.13166 0.44543 0.0
C335 C 0.03031 0.18322 0.44167 0.0
C336 C 0.95948 0.09031 0.4587 0.0
C337 C 0.0534 0.083 0.49773 0.0
H338 H 0.93761 0.8813 0.49135 0.0
C339 C 0.05303 0.88824 0.54632 0.0
C340 C 0.98521 0.8367 0.5496 0.0
C341 C 0.05922 0.93004 0.53304 0.0
C342 C 0.96946 0.93762 0.49336 0.0
H343 H 0.14557 0.23256 0.44913 0.0
H344 H 0.13866 0.15964 0.4724 0.0
H345 H 0.94877 0.95639 0.46845 0.0
H346 H 0.8708 0.78827 0.54133 0.0
H347 H 0.88166 0.86198 0.51811 0.0
H348 H 0.07386 0.06425 0.52267 0.0
C349 C 0.08921 0.15178 0.46504 0.0
C350 C 0.97596 0.98058 0.48026 0.0
C351 C 0.09319 0.19332 0.4517 0.0
C352 C 0.92382 0.8274 0.53914 0.0
C353 C 0.93009 0.86938 0.52581 0.0
C354 C 0.04686 0.04002 0.51084 0.0
C355 C 0.02238 0.0994 0.46854 0.0
C356 C 0.01769 0.05374 0.48234 0.0
C357 C -0.00219 0.9214 0.52271 0.0
C358 C 0.00466 0.96693 0.50879 0.0
H359 H 0.91361 0.12266 0.43808 0.0
H360 H 0.90698 0.0513 0.46129 0.0
H361 H 0.08512 0.13935 0.49973 0.0
H362 H 0.10167 0.89667 0.55405 0.0
H363 H 0.11234 0.96887 0.5308 0.0
C364 C 0.0305 0.04657 0.3552 0.0
C365 C 0.97586 0.05616 0.36457 0.0
C366 C 0.04025 0.98166 0.35456 0.0
C367 C 0.00647 0.82663 0.37914 0.0
H368 H 0.06032 0.74392 0.34012 0.0
C369 C 0.0276 0.54832 0.37519 0.0
C370 C 0.08217 0.53998 0.36559 0.0
C371 C 0.01623 0.6125 0.37592 0.0
C372 C 0.04626 0.76683 0.35119 0.0
H373 H 0.88522 0.00337 0.37956 0.0
H374 H 0.90155 0.89039 0.37818 0.0
H375 H 0.03333 0.85113 0.3384 0.0
H376 H 0.17147 0.5943 0.35041 0.0
H377 H 0.15266 0.70596 0.352 0.0
H378 H 0.01961 0.74238 0.39194 0.0
C379 C 0.9381 0.93346 0.37172 0.0
C380 C 0.0306 0.82819 0.35018 0.0
C381 C 0.92841 0.99814 0.37238 0.0
C382 C 0.12822 0.59854 0.35772 0.0
C383 C 0.11708 0.66247 0.35851 0.0
C384 C 0.0222 0.76525 0.38016 0.0
C385 C -0.00453 0.92509 0.36323 0.0
C386 C 0.01058 0.85888 0.36414 0.0
C387 C 0.05945 0.66951 0.36714 0.0
C388 C 0.04261 0.7348 0.36621 0.0
H389 H 0.06819 0.0902 0.34909 0.0
H390 H 0.08509 0.977 0.34793 0.0
H391 H -0.00756 0.84963 0.39021 0.0
H392 H -0.00884 0.50422 0.38139 0.0
H393 H 0.97135 0.6162 0.3827 0.0
C394 C 0.27787 0.81814 0.64237 0.0
C395 C 0.22027 0.78878 0.63026 0.0
C396 C 0.34248 0.80579 0.64096 0.0
C397 C 0.39861 0.66704 0.62297 0.0
H398 H 0.59432 0.79599 0.6371 0.0
C399 C 0.65808 0.61202 0.61063 0.0
C400 C 0.71907 0.64237 0.6218 0.0
C401 C 0.59338 0.62239 0.61345 0.0
C402 C 0.53969 0.75898 0.63343 0.0
H403 H 0.18919 0.7314 0.60619 0.0
H404 H 0.30244 0.71102 0.60366 0.0
H405 H 0.49473 0.8397 0.63646 0.0
H406 H 0.7571 0.70015 0.64559 0.0
H407 H 0.64363 0.71705 0.65071 0.0
H408 H 0.44345 0.58637 0.61988 0.0
C409 C 0.29651 0.74152 0.61448 0.0
C410 C 0.48288 0.78424 0.63291 0.0
C411 C 0.23192 0.75388 0.61586 0.0
C412 C 0.71138 0.6764 0.63672 0.0
C413 C 0.64662 0.68689 0.63955 0.0
C414 C 0.45533 0.64176 0.62351 0.0
C415 C 0.35076 0.76422 0.6274 0.0
C416 C 0.41192 0.73867 0.62752 0.0
C417 C 0.58838 0.6631 0.62754 0.0
C418 C 0.52659 0.68757 0.62862 0.0
H419 H 0.2711 0.84595 0.65355 0.0
H420 H 0.38354 0.82435 0.65108 0.0
H421 H 0.34405 0.6302 0.61917 0.0
H422 H 0.66199 0.58487 0.59908 0.0
H423 H 0.54947 0.60321 0.60396 0.0
C424 C 0.52199 0.54156 0.85428 0.0
C425 C 0.46638 0.55079 0.86335 0.0
C426 C 0.53185 0.4767 0.8537 0.0
C427 C 0.49555 0.32069 0.87811 0.0
H428 H 0.55411 0.23974 0.83949 0.0
C429 C 0.51814 0.04291 0.87441 0.0
C430 C 0.57399 0.03518 0.86517 0.0
C431 C 0.50637 0.1069 0.87503 0.0
C432 C 0.5387 0.26215 0.85046 0.0
H433 H 0.37424 0.49737 0.87789 0.0
H434 H 0.39077 0.38449 0.87663 0.0
H435 H 0.52703 0.34684 0.8376 0.0
H436 H 0.66495 0.09041 0.8505 0.0
H437 H 0.6454 0.2017 0.85189 0.0
H438 H 0.50742 0.23604 0.89098 0.0
C439 C 0.42797 0.4278 0.87034 0.0
C440 C 0.52299 0.32346 0.84934 0.0
C441 C 0.41817 0.49245 0.87093 0.0
C442 C 0.62076 0.09416 0.85754 0.0
C443 C 0.60919 0.15789 0.85821 0.0
C444 C 0.51131 0.25936 0.87923 0.0
C445 C 0.48622 0.41977 0.86215 0.0
C446 C 0.50131 0.35354 0.86315 0.0
C447 C 0.55042 0.16435 0.86648 0.0
C448 C 0.53342 0.22954 0.86543 0.0
H449 H 0.56027 0.58542 0.84834 0.0
H450 H 0.57739 0.47233 0.84731 0.0
H451 H 0.48021 0.34318 0.88907 0.0
H452 H 0.48109 0.99849 0.88041 0.0
H453 H 0.46061 0.11013 0.88153 0.0
C454 C 0.20358 0.17864 0.13566 0.0
C455 C 0.20923 0.13649 0.1219 0.0
C456 C 0.1393 0.19105 0.13779 0.0
C457 C -0.00588 0.20491 0.11118 0.0
H458 H 0.90721 0.22986 0.15186 0.0
C459 C 0.72116 0.24537 0.11404 0.0
C460 C 0.71053 0.28468 0.12779 0.0
C461 C 0.78683 0.23498 0.11274 0.0
C462 C 0.93181 0.22438 0.14043 0.0
H463 H 0.14929 0.0667 0.10086 0.0
H464 H 0.03675 0.08728 0.10477 0.0
H465 H 0.00567 0.18446 0.15236 0.0
H466 H 0.76386 0.35164 0.1498 0.0
H467 H 0.87893 0.3347 0.14728 0.0
H468 H 0.92084 0.24513 0.09923 0.0
C469 C 0.08266 0.11253 0.1136 0.0
C470 C -0.01232 0.19776 0.14072 0.0
C471 C 0.14683 0.10024 0.11146 0.0
C472 C 0.76977 0.32003 0.13919 0.0
C473 C 0.8355 0.30978 0.13785 0.0
C474 C 0.93856 0.23176 0.11089 0.0
C475 C 0.07976 0.16122 0.12622 0.0
C476 C 0.01888 0.18715 0.12607 0.0
C477 C 0.84331 0.26422 0.12508 0.0
C478 C 0.90646 0.2414 0.12549 0.0
H479 H 0.25075 0.20763 0.14385 0.0
H480 H 0.13852 0.22862 0.14768 0.0
H481 H 0.01852 0.19907 0.09974 0.0
H482 H 0.67693 0.21779 0.10496 0.0
H483 H 0.79113 0.19974 0.1027 0.0
C484 C 0.07672 0.01337 0.62011 0.0
C485 C 0.02751 0.95426 0.62727 0.0
C486 C 0.06626 0.0777 0.62058 0.0
C487 C 0.91825 0.14562 0.62343 0.0
H488 H 0.07633 0.32988 0.62749 0.0
C489 C 0.87227 0.40944 0.63062 0.0
C490 C 0.92031 0.46921 0.62347 0.0
C491 C 0.88348 0.34552 0.62978 0.0
C492 C 0.0317 0.27876 0.62606 0.0
H493 H 0.93134 0.91806 0.64154 0.0
H494 H 0.91367 0.03105 0.64258 0.0
H495 H 0.10275 0.22304 0.63081 0.0
H496 H 0.01529 0.50727 0.60889 0.0
H497 H 0.03457 0.39486 0.60727 0.0
H498 H 0.84718 0.2013 0.61872 0.0
C499 C 0.95961 0.02695 0.6363 0.0
C500 C 0.04679 0.21754 0.62807 0.0
C501 C 0.97023 0.96244 0.63587 0.0
C502 C 0.97733 0.46226 0.61455 0.0
C503 C -0.01117 0.39812 0.61378 0.0
C504 C 0.90317 0.20681 0.62142 0.0
C505 C 0.0063 0.08465 0.62823 0.0
C506 C -0.00979 0.15021 0.62683 0.0
C507 C 0.94311 0.33962 0.62177 0.0
C508 C 0.95966 0.27416 0.62277 0.0
H509 H 0.12167 0.00911 0.61344 0.0
H510 H 0.10313 0.12082 0.61419 0.0
H511 H 0.87356 0.09454 0.62202 0.0
H512 H 0.82753 0.41277 0.63752 0.0
H513 H 0.84742 0.3018 0.63614 0.0
C514 C 0.83627 0.89356 0.87914 0.0
C515 C 0.77539 0.86318 0.86793 0.0
C516 C 0.90096 0.88303 0.87639 0.0
C517 C 0.95478 0.74618 0.8566 0.0
H518 H 0.15048 0.87528 0.87071 0.0
C519 C 0.21624 0.68657 0.84761 0.0
C520 C 0.27413 0.71622 0.85963 0.0
C521 C 0.15174 0.69912 0.84903 0.0
C522 C 0.09591 0.83834 0.86695 0.0
H523 H 0.73768 0.80527 0.84414 0.0
H524 H 0.85107 0.78799 0.83918 0.0
H525 H 0.05098 0.91898 0.86999 0.0
H526 H 0.30593 0.7745 0.88359 0.0
H527 H 0.19287 0.79519 0.88617 0.0
H528 H -0.00022 0.66548 0.85363 0.0
C529 C 0.84797 0.81827 0.85031 0.0
C530 C 0.03913 0.86355 0.86641 0.0
C531 C 0.78324 0.82894 0.85305 0.0
C532 C 0.26295 0.75176 0.87398 0.0
C533 C 0.19846 0.7643 0.87539 0.0
C534 C 0.01163 0.72098 0.85712 0.0
C535 C 0.90607 0.84212 0.86235 0.0
C536 C 0.96786 0.81765 0.86134 0.0
C537 C 0.14386 0.74118 0.86255 0.0
C538 C 0.08264 0.76667 0.86245 0.0
H539 H 0.83229 0.92091 0.89065 0.0
H540 H 0.94477 0.90228 0.8859 0.0
H541 H 0.90014 0.7091 0.85296 0.0
H542 H 0.22265 0.6583 0.83646 0.0
H543 H 0.11043 0.68025 0.83897 0.0
C544 C 0.56541 0.5064 0.11837 0.0
C545 C 0.5168 0.44762 0.12575 0.0
C546 C 0.55509 0.57079 0.1189 0.0
C547 C 0.40773 0.63921 0.12238 0.0
H548 H 0.5662 0.82321 0.12584 0.0
C549 C 0.36343 0.90364 0.1301 0.0
C550 C 0.41077 0.96308 0.12272 0.0
C551 C 0.37426 0.83954 0.12911 0.0
C552 C 0.52145 0.77216 0.12458 0.0
H553 H 0.42192 0.41203 0.14043 0.0
H554 H 0.40454 0.52516 0.14157 0.0
H555 H 0.59264 0.7163 0.12902 0.0
H556 H 0.50398 1.0004 0.10758 0.0
H557 H 0.52265 0.88769 0.10574 0.0
H558 H 0.33653 0.69505 0.118 0.0
C559 C 0.44987 0.52075 0.13509 0.0
C560 C 0.53655 0.7109 0.12651 0.0
C561 C 0.46034 0.45618 0.13461 0.0
C562 C 0.46661 0.95565 0.11343 0.0
C563 C 0.47775 0.89135 0.11252 0.0
C564 C 0.39264 0.70043 0.12046 0.0
C565 C 0.49589 0.57811 0.12681 0.0
C566 C 0.47984 0.64369 0.12548 0.0
C567 C 0.43282 0.83319 0.12074 0.0
C568 C 0.44928 0.76767 0.12159 0.0
H569 H 0.60972 0.50183 0.11151 0.0
H570 H 0.59141 0.61365 0.11234 0.0
H571 H 0.36292 0.58819 0.12115 0.0
H572 H 0.31958 0.90737 0.13727 0.0
H573 H 0.33884 0.79607 0.13565 0.0
C574 C 0.72282 0.183 0.35084 0.0
C575 C 0.78255 0.21918 0.36205 0.0
C576 C 0.65728 0.19365 0.35216 0.0
C577 C 0.55558 0.2743 0.37882 0.0
H578 H 0.48699 0.31807 0.3371 0.0
C579 C 0.34636 0.40476 0.37768 0.0
C580 C 0.28388 0.36776 0.36733 0.0
C581 C 0.41063 0.39255 0.37562 0.0
C582 C 0.50539 0.30577 0.34881 0.0
H583 H 0.81728 0.28811 0.38456 0.0
H584 H 0.70339 0.3068 0.3868 0.0
H585 H 0.58547 0.27274 0.33779 0.0
H586 H 0.24231 0.29535 0.34557 0.0
H587 H 0.35464 0.27442 0.3419 0.0
H588 H 0.47594 0.30783 0.38985 0.0
C589 C 0.70717 0.27061 0.37692 0.0
C590 C 0.56127 0.27919 0.34921 0.0
C591 C 0.77266 0.25984 0.37563 0.0
C592 C 0.28951 0.32487 0.35371 0.0
C593 C 0.35387 0.31252 0.35166 0.0
C594 C 0.49996 0.30108 0.37842 0.0
C595 C 0.65017 0.24043 0.36473 0.0
C596 C 0.58713 0.2634 0.36424 0.0
C597 C 0.41354 0.34319 0.36317 0.0
C598 C 0.47463 0.31753 0.36343 0.0
H599 H 0.72817 0.15037 0.34037 0.0
H600 H 0.61344 0.16802 0.34286 0.0
H601 H 0.57372 0.26192 0.39055 0.0
H602 H 0.34395 0.43891 0.38816 0.0
H603 H 0.45663 0.41847 0.38439 0.0
loop_
_geom_bond_atom_site_label_1
_geom_bond_atom_site_label_2
_geom_bond_distance
_geom_bond_site_symmetry_2
_ccdc_geom_bond_type
C0 O12 1.241 1_455 S
C0 O13 1.280 . S
C1 O14 1.277 . S
C1 O15 1.245 1_655 S
C2 O26 1.247 . S
C2 O28 1.289 . S
Mg3 O4 1.926 . S
Mg3 O13 1.984 . S
Mg3 O15 1.988 . S
Mg3 O16 2.061 . S
O4 Mg3 1.926 . S
O4 Mg5 1.986 1_455 S
O4 Mg6 1.917 . S
Mg5 O4 1.986 1_655 S
Mg5 O12 2.042 . S
Mg5 O14 2.041 . S
Mg5 O20 2.038 . S
Mg5 O28 2.238 . S
Mg6 O4 1.917 . S
Mg6 O7 1.917 1_455 S
Mg6 O17 2.106 . S
Mg6 O19 2.079 . S
Mg6 O28 2.106 1_455 S
Mg6 O29 2.079 . S
O7 Mg6 1.917 1_655 S
O7 Mg8 1.926 . S
O7 Mg9 1.986 1_655 S
Mg8 O7 1.926 . S
Mg8 O22 1.984 . S
Mg8 O25 1.988 . S
Mg8 O26 2.061 . S
Mg9 O7 1.986 1_455 S
Mg9 O17 2.238 . S
Mg9 O21 2.042 . S
Mg9 O23 2.041 . S
Mg9 O30 2.038 . S
C10 O16 1.247 . S
C10 O17 1.289 . S
C11 O29 1.245 . S
C11 O30 1.274 . S
O12 C0 1.241 1_655 S
O12 Mg5 2.042 . S
O13 C0 1.280 . S
O13 Mg3 1.984 . S
O14 C1 1.277 . S
O14 Mg5 2.041 . S
O15 C1 1.245 1_455 S
O15 Mg3 1.988 . S
O16 Mg3 2.061 . S
O16 C10 1.247 . S
O17 Mg6 2.106 . S
O17 Mg9 2.238 . S
O17 C10 1.289 . S
C18 O19 1.245 1_655 S
C18 O20 1.274 . S
O19 Mg6 2.079 . S
O19 C18 1.245 1_455 S
O20 Mg5 2.038 . S
O20 C18 1.274 . S
O21 Mg9 2.042 . S
O21 C24 1.241 1_455 S
O22 Mg8 1.984 . S
O22 C24 1.280 . S
O23 Mg9 2.041 . S
O23 C27 1.277 . S
C24 O21 1.241 1_655 S
C24 O22 1.280 . S
O25 Mg8 1.988 . S
O25 C27 1.245 1_655 S
O26 C2 1.247 . S
O26 Mg8 2.061 . S
C27 O23 1.277 . S
C27 O25 1.245 1_455 S
O28 C2 1.289 . S
O28 Mg5 2.238 . S
O28 Mg6 2.106 1_655 S
O29 Mg6 2.079 . S
O29 C11 1.245 . S
O30 Mg9 2.038 . S
O30 C11 1.274 . S
C31 O43 1.241 1_455 S
C31 O44 1.280 . S
C32 O45 1.277 . S
C32 O46 1.245 1_655 S
C33 O57 1.247 . S
C33 O59 1.289 . S
Mg34 O35 1.926 . S
Mg34 O44 1.984 . S
Mg34 O46 1.988 . S
Mg34 O47 2.061 . S
O35 Mg34 1.926 . S
O35 Mg36 1.986 1_455 S
O35 Mg37 1.917 . S
Mg36 O35 1.986 1_655 S
Mg36 O43 2.042 . S
Mg36 O45 2.041 . S
Mg36 O51 2.038 . S
Mg36 O59 2.238 . S
Mg37 O35 1.917 . S
Mg37 O38 1.917 1_455 S
Mg37 O48 2.106 . S
Mg37 O50 2.079 1_455 S
Mg37 O59 2.106 1_455 S
Mg37 O60 2.079 . S
O38 Mg37 1.917 1_655 S
O38 Mg39 1.926 . S
O38 Mg40 1.986 1_655 S
Mg39 O38 1.926 . S
Mg39 O53 1.984 . S
Mg39 O56 1.988 . S
Mg39 O57 2.061 . S
Mg40 O38 1.986 1_455 S
Mg40 O48 2.238 . S
Mg40 O52 2.042 . S
Mg40 O54 2.041 . S
Mg40 O61 2.038 . S
C41 O47 1.247 . S
C41 O48 1.289 . S
C42 O60 1.245 . S
C42 O61 1.274 . S
O43 C31 1.241 1_655 S
O43 Mg36 2.042 . S
O44 C31 1.280 . S
O44 Mg34 1.984 . S
O45 C32 1.277 . S
O45 Mg36 2.041 . S
O46 C32 1.245 1_455 S
O46 Mg34 1.988 . S
O47 Mg34 2.061 . S
O47 C41 1.247 . S
O48 Mg37 2.106 . S
O48 Mg40 2.238 . S
O48 C41 1.289 . S
C49 O50 1.245 . S
C49 O51 1.274 . S
O50 Mg37 2.079 1_655 S
O50 C49 1.245 . S
O51 Mg36 2.038 . S
O51 C49 1.274 . S
O52 Mg40 2.042 . S
O52 C55 1.241 1_455 S
O53 Mg39 1.984 . S
O53 C55 1.280 . S
O54 Mg40 2.041 . S
O54 C58 1.277 . S
C55 O52 1.241 1_655 S
C55 O53 1.280 . S
O56 Mg39 1.988 . S
O56 C58 1.245 1_655 S
O57 C33 1.247 . S
O57 Mg39 2.061 . S
C58 O54 1.277 . S
C58 O56 1.245 1_455 S
O59 C33 1.289 . S
O59 Mg36 2.238 . S
O59 Mg37 2.106 1_655 S
O60 Mg37 2.079 . S
O60 C42 1.245 . S
O61 Mg40 2.038 . S
O61 C42 1.274 . S
C62 O74 1.241 . S
C62 O75 1.280 . S
C63 O76 1.277 . S
C63 O77 1.245 . S
C64 O88 1.247 . S
C64 O90 1.289 . S
Mg65 O66 1.926 . S
Mg65 O75 1.984 . S
Mg65 O77 1.988 . S
Mg65 O78 2.061 . S
O66 Mg65 1.926 . S
O66 Mg67 1.986 . S
O66 Mg68 1.917 . S
Mg67 O66 1.986 . S
Mg67 O74 2.042 . S
Mg67 O76 2.041 . S
Mg67 O82 2.038 . S
Mg67 O90 2.238 . S
Mg68 O66 1.917 . S
Mg68 O69 1.917 . S
Mg68 O79 2.106 . S
Mg68 O81 2.079 . S
Mg68 O90 2.106 . S
Mg68 O91 2.079 . S
O69 Mg68 1.917 . S
O69 Mg70 1.926 . S
O69 Mg71 1.986 . S
Mg70 O69 1.926 . S
Mg70 O84 1.984 . S
Mg70 O87 1.988 . S
Mg70 O88 2.061 . S
Mg71 O69 1.986 . S
Mg71 O79 2.238 . S
Mg71 O83 2.042 . S
Mg71 O85 2.041 . S
Mg71 O92 2.038 . S
C72 O78 1.247 . S
C72 O79 1.289 . S
C73 O91 1.245 . S
C73 O92 1.274 . S
O74 C62 1.241 . S
O74 Mg67 2.042 . S
O75 C62 1.280 . S
O75 Mg65 1.984 . S
O76 C63 1.277 . S
O76 Mg67 2.041 . S
O77 C63 1.245 . S
O77 Mg65 1.988 . S
O78 Mg65 2.061 . S
O78 C72 1.247 . S
O79 Mg68 2.106 . S
O79 Mg71 2.238 . S
O79 C72 1.289 . S
C80 O81 1.245 . S
C80 O82 1.274 . S
O81 Mg68 2.079 . S
O81 C80 1.245 . S
O82 Mg67 2.038 . S
O82 C80 1.274 . S
O83 Mg71 2.042 . S
O83 C86 1.241 . S
O84 Mg70 1.984 . S
O84 C86 1.280 . S
O85 Mg71 2.041 . S
O85 C89 1.277 . S
C86 O83 1.241 . S
C86 O84 1.280 . S
O87 Mg70 1.988 . S
O87 C89 1.245 . S
O88 C64 1.247 . S
O88 Mg70 2.061 . S
C89 O85 1.277 . S
C89 O87 1.245 . S
O90 C64 1.289 . S
O90 Mg67 2.238 . S
O90 Mg68 2.106 . S
O91 Mg68 2.079 . S
O91 C73 1.245 . S
O92 Mg71 2.038 . S
O92 C73 1.274 . S
C93 O105 1.241 . S
C93 O106 1.280 . S
C94 O107 1.277 . S
C94 O108 1.245 . S
C95 O119 1.247 . S
C95 O121 1.289 . S
Mg96 O97 1.926 . S
Mg96 O106 1.984 . S
Mg96 O108 1.988 . S
Mg96 O109 2.061 . S
O97 Mg96 1.926 . S
O97 Mg98 1.986 . S
O97 Mg99 1.917 . S
Mg98 O97 1.986 . S
Mg98 O105 2.042 . S
Mg98 O107 2.041 . S
Mg98 O113 2.038 . S
Mg98 O121 2.238 . S
Mg99 O97 1.917 . S
Mg99 O100 1.917 . S
Mg99 O110 2.106 . S
Mg99 O112 2.079 . S
Mg99 O121 2.106 . S
Mg99 O122 2.079 . S
O100 Mg99 1.917 . S
O100 Mg101 1.926 . S
O100 Mg102 1.986 . S
Mg101 O100 1.926 . S
Mg101 O115 1.984 . S
Mg101 O118 1.988 . S
Mg101 O119 2.061 . S
Mg102 O100 1.986 . S
Mg102 O110 2.238 . S
Mg102 O114 2.042 . S
Mg102 O116 2.041 . S
Mg102 O123 2.038 . S
C103 O109 1.247 . S
C103 O110 1.289 . S
C104 O122 1.245 . S
C104 O123 1.274 . S
O105 C93 1.241 . S
O105 Mg98 2.042 . S
O106 C93 1.280 . S
O106 Mg96 1.984 . S
O107 C94 1.277 . S
O107 Mg98 2.041 . S
O108 C94 1.245 . S
O108 Mg96 1.988 . S
O109 Mg96 2.061 . S
O109 C103 1.247 . S
O110 Mg99 2.106 . S
O110 Mg102 2.238 . S
O110 C103 1.289 . S
C111 O112 1.245 . S
C111 O113 1.274 . S
O112 Mg99 2.079 . S
O112 C111 1.245 . S
O113 Mg98 2.038 . S
O113 C111 1.274 . S
O114 Mg102 2.042 . S
O114 C117 1.241 . S
O115 Mg101 1.984 . S
O115 C117 1.280 . S
O116 Mg102 2.041 . S
O116 C120 1.277 . S
C117 O114 1.241 . S
C117 O115 1.280 . S
O118 Mg101 1.988 . S
O118 C120 1.245 . S
O119 C95 1.247 . S
O119 Mg101 2.061 . S
C120 O116 1.277 . S
C120 O118 1.245 . S
O121 C95 1.289 . S
O121 Mg98 2.238 . S
O121 Mg99 2.106 . S
O122 Mg99 2.079 . S
O122 C104 1.245 . S
O123 Mg102 2.038 . S
O123 C104 1.274 . S
C124 C125 1.349 . S
C124 C126 1.327 . S
C124 H149 0.950 . S
C125 C124 1.349 . S
C125 C141 1.349 1_655 S
C126 C124 1.327 . S
C126 C145 1.429 . S
C126 H150 0.950 . S
C127 C144 1.574 . S
C127 C146 1.368 1_455 S
C127 H151 0.949 . S
H128 C132 0.949 . S
C129 C130 1.349 . S
C129 C131 1.327 . S
C129 H152 0.950 . S
C130 C129 1.349 . S
C130 C142 1.349 . S
C131 C129 1.327 . S
C131 C147 1.429 . S
C131 H153 0.950 . S
C132 H128 0.949 . S
C132 C140 1.574 . S
C132 C148 1.368 1_655 S
H133 C141 0.950 . S
H134 C139 0.950 . S
H135 C140 0.949 . S
H136 C142 0.950 1_655 S
H137 C143 0.950 . S
H138 C144 0.949 . S
C139 H134 0.950 . S
C139 C141 1.327 . S
C139 C145 1.429 1_455 S
C140 C132 1.574 . S
C140 H135 0.949 . S
C140 C146 1.368 . S
C141 C125 1.349 1_455 S
C141 H133 0.950 . S
C141 C139 1.327 . S
C142 C130 1.349 . S
C142 H136 0.950 1_455 S
C142 C143 1.327 1_455 S
C143 H137 0.950 . S
C143 C142 1.327 1_655 S
C143 C147 1.429 1_655 S
C144 C127 1.574 . S
C144 H138 0.949 . S
C144 C148 1.368 . S
C145 C126 1.429 . S
C145 C139 1.429 1_655 S
C145 C146 1.523 . S
C146 C127 1.368 1_655 S
C146 C140 1.368 . S
C146 C145 1.523 . S
C147 C131 1.429 . S
C147 C143 1.429 1_455 S
C147 C148 1.523 . S
C148 C132 1.368 1_455 S
C148 C144 1.368 . S
C148 C147 1.523 . S
H149 C124 0.950 . S
H150 C126 0.950 . S
H151 C127 0.949 . S
H152 C129 0.950 . S
H153 C131 0.950 . S
C154 C155 1.349 . S
C154 C156 1.327 . S
C154 H179 0.950 . S
C155 C154 1.349 . S
C155 C171 1.349 . S
C156 C154 1.327 . S
C156 C175 1.429 . S
C156 H180 0.950 . S
C157 C174 1.574 . S
C157 C176 1.368 . S
C157 H181 0.949 . S
H158 C162 0.949 . S
C159 C160 1.349 . S
C159 C161 1.327 . S
C159 H182 0.950 . S
C160 C159 1.349 . S
C160 C172 1.349 . S
C161 C159 1.327 . S
C161 C177 1.429 . S
C161 H183 0.950 . S
C162 H158 0.949 . S
C162 C170 1.574 . S
C162 C178 1.368 . S
H163 C171 0.950 . S
H164 C169 0.950 . S
H165 C170 0.949 . S
H166 C172 0.950 . S
H167 C173 0.950 . S
H168 C174 0.949 . S
C169 H164 0.950 . S
C169 C171 1.327 . S
C169 C175 1.429 . S
C170 C162 1.574 . S
C170 H165 0.949 . S
C170 C176 1.368 . S
C171 C155 1.349 . S
C171 H163 0.950 . S
C171 C169 1.327 . S
C172 C160 1.349 . S
C172 H166 0.950 . S
C172 C173 1.327 . S
C173 H167 0.950 . S
C173 C172 1.327 . S
C173 C177 1.429 . S
C174 C157 1.574 . S
C174 H168 0.949 . S
C174 C178 1.368 . S
C175 C156 1.429 . S
C175 C169 1.429 . S
C175 C176 1.523 . S
C176 C157 1.368 . S
C176 C170 1.368 . S
C176 C175 1.523 . S
C177 C161 1.429 . S
C177 C173 1.429 . S
C177 C178 1.523 . S
C178 C162 1.368 . S
C178 C174 1.368 . S
C178 C177 1.523 . S
H179 C154 0.950 . S
H180 C156 0.950 . S
H181 C157 0.949 . S
H182 C159 0.950 . S
H183 C161 0.950 . S
C184 C185 1.349 . S
C184 C186 1.327 . S
C184 H209 0.950 . S
C185 C184 1.349 . S
C185 C201 1.349 . S
C186 C184 1.327 . S
C186 C205 1.429 . S
C186 H210 0.950 . S
C187 C204 1.574 1_556 S
C187 C206 1.368 . S
C187 H211 0.949 . S
H188 C192 0.949 . S
C189 C190 1.349 . S
C189 C191 1.327 . S
C189 H212 0.950 . S
C190 C189 1.349 . S
C190 C202 1.349 . S
C191 C189 1.327 . S
C191 C207 1.429 . S
C191 H213 0.950 . S
C192 H188 0.949 . S
C192 C200 1.574 1_554 S
C192 C208 1.368 . S
H193 C201 0.950 . S
H194 C199 0.950 . S
H195 C200 0.949 . S
H196 C202 0.950 . S
H197 C203 0.950 . S
H198 C204 0.949 . S
C199 H194 0.950 . S
C199 C201 1.327 . S
C199 C205 1.429 . S
C200 C192 1.574 1_556 S
C200 H195 0.949 . S
C200 C206 1.368 . S
C201 C185 1.349 . S
C201 H193 0.950 . S
C201 C199 1.327 . S
C202 C190 1.349 . S
C202 H196 0.950 . S
C202 C203 1.327 . S
C203 H197 0.950 . S
C203 C202 1.327 . S
C203 C207 1.429 . S
C204 C187 1.574 1_554 S
C204 H198 0.949 . S
C204 C208 1.368 . S
C205 C186 1.429 . S
C205 C199 1.429 . S
C205 C206 1.523 . S
C206 C187 1.368 . S
C206 C200 1.368 . S
C206 C205 1.523 . S
C207 C191 1.429 . S
C207 C203 1.429 . S
C207 C208 1.523 . S
C208 C192 1.368 . S
C208 C204 1.368 . S
C208 C207 1.523 . S
H209 C184 0.950 . S
H210 C186 0.950 . S
H211 C187 0.949 . S
H212 C189 0.950 . S
H213 C191 0.950 . S
C214 C215 1.349 . S
C214 C216 1.327 . S
C214 H239 0.950 . S
C215 C214 1.349 . S
C215 C231 1.349 . S
C216 C214 1.327 . S
C216 C235 1.429 . S
C216 H240 0.950 . S
C217 C234 1.574 . S
C217 C236 1.368 . S
C217 H241 0.949 . S
H218 C222 0.949 . S
C219 C220 1.349 . S
C219 C221 1.327 . S
C219 H242 0.950 . S
C220 C219 1.349 . S
C220 C232 1.349 . S
C221 C219 1.327 . S
C221 C237 1.429 . S
C221 H243 0.950 . S
C222 H218 0.949 . S
C222 C230 1.574 . S
C222 C238 1.368 . S
H223 C231 0.950 . S
H224 C229 0.950 . S
H225 C230 0.949 . S
H226 C232 0.950 . S
H227 C233 0.950 . S
H228 C234 0.949 . S
C229 H224 0.950 . S
C229 C231 1.327 . S
C229 C235 1.429 . S
C230 C222 1.574 . S
C230 H225 0.949 . S
C230 C236 1.368 . S
C231 C215 1.349 . S
C231 H223 0.950 . S
C231 C229 1.327 . S
C232 C220 1.349 . S
C232 H226 0.950 . S
C232 C233 1.327 . S
C233 H227 0.950 . S
C233 C232 1.327 . S
C233 C237 1.429 . S
C234 C217 1.574 . S
C234 H228 0.949 . S
C234 C238 1.368 . S
C235 C216 1.429 . S
C235 C229 1.429 . S
C235 C236 1.523 . S
C236 C217 1.368 . S
C236 C230 1.368 . S
C236 C235 1.523 . S
C237 C221 1.429 . S
C237 C233 1.429 . S
C237 C238 1.523 . S
C238 C222 1.368 . S
C238 C234 1.368 . S
C238 C237 1.523 . S
H239 C214 0.950 . S
H240 C216 0.950 . S
H241 C217 0.949 . S
H242 C219 0.950 . S
H243 C221 0.950 . S
C244 C245 1.349 . S
C244 C246 1.327 . S
C244 H269 0.950 . S
C245 C244 1.349 . S
C245 C261 1.349 . S
C246 C244 1.327 . S
C246 C265 1.429 . S
C246 H270 0.950 . S
C247 C264 1.574 . S
C247 C266 1.368 . S
C247 H271 0.949 . S
H248 C252 0.949 . S
C249 C250 1.349 . S
C249 C251 1.327 . S
C249 H272 0.950 . S
C250 C249 1.349 . S
C250 C262 1.349 . S
C251 C249 1.327 . S
C251 C267 1.429 . S
C251 H273 0.950 . S
C252 H248 0.949 . S
C252 C260 1.574 . S
C252 C268 1.368 . S
H253 C261 0.950 . S
H254 C259 0.950 . S
H255 C260 0.949 . S
H256 C262 0.950 . S
H257 C263 0.950 . S
H258 C264 0.949 . S
C259 H254 0.950 . S
C259 C261 1.327 . S
C259 C265 1.429 . S
C260 C252 1.574 . S
C260 H255 0.949 . S
C260 C266 1.368 . S
C261 C245 1.349 . S
C261 H253 0.950 . S
C261 C259 1.327 . S
C262 C250 1.349 . S
C262 H256 0.950 . S
C262 C263 1.327 . S
C263 H257 0.950 . S
C263 C262 1.327 . S
C263 C267 1.429 . S
C264 C247 1.574 . S
C264 H258 0.949 . S
C264 C268 1.368 . S
C265 C246 1.429 . S
C265 C259 1.429 . S
C265 C266 1.523 . S
C266 C247 1.368 . S
C266 C260 1.368 . S
C266 C265 1.523 . S
C267 C251 1.429 . S
C267 C263 1.429 . S
C267 C268 1.523 . S
C268 C252 1.368 . S
C268 C264 1.368 . S
C268 C267 1.523 . S
H269 C244 0.950 . S
H270 C246 0.950 . S
H271 C247 0.949 . S
H272 C249 0.950 . S
H273 C251 0.950 . S
C274 C275 1.349 . S
C274 C276 1.327 . S
C274 H299 0.950 . S
C275 C274 1.349 . S
C275 C291 1.349 . S
C276 C274 1.327 . S
C276 C295 1.429 . S
C276 H300 0.950 . S
C277 C294 1.574 . S
C277 C296 1.368 . S
C277 H301 0.949 . S
H278 C282 0.949 . S
C279 C280 1.349 . S
C279 C281 1.327 . S
C279 H302 0.950 . S
C280 C279 1.349 . S
C280 C292 1.349 . S
C281 C279 1.327 . S
C281 C297 1.429 . S
C281 H303 0.950 . S
C282 H278 0.949 . S
C282 C290 1.574 . S
C282 C298 1.368 . S
H283 C291 0.950 . S
H284 C289 0.950 . S
H285 C290 0.949 . S
H286 C292 0.950 . S
H287 C293 0.950 . S
H288 C294 0.949 . S
C289 H284 0.950 . S
C289 C291 1.327 . S
C289 C295 1.429 . S
C290 C282 1.574 . S
C290 H285 0.949 . S
C290 C296 1.368 . S
C291 C275 1.349 . S
C291 H283 0.950 . S
C291 C289 1.327 . S
C292 C280 1.349 . S
C292 H286 0.950 . S
C292 C293 1.327 . S
C293 H287 0.950 . S
C293 C292 1.327 . S
C293 C297 1.429 . S
C294 C277 1.574 . S
C294 H288 0.949 . S
C294 C298 1.368 . S
C295 C276 1.429 . S
C295 C289 1.429 . S
C295 C296 1.523 . S
C296 C277 1.368 . S
C296 C290 1.368 . S
C296 C295 1.523 . S
C297 C281 1.429 . S
C297 C293 1.429 . S
C297 C298 1.523 . S
C298 C282 1.368 . S
C298 C294 1.368 . S
C298 C297 1.523 . S
H299 C274 0.950 . S
H300 C276 0.950 . S
H301 C277 0.949 . S
H302 C279 0.950 . S
H303 C281 0.950 . S
C304 C305 1.349 . S
C304 C306 1.327 . S
C304 H329 0.950 . S
C305 C304 1.349 . S
C305 C321 1.349 . S
C306 C304 1.327 . S
C306 C325 1.429 . S
C306 H330 0.950 . S
C307 C324 1.574 1_556 S
C307 C326 1.368 1_545 S
C307 H331 0.949 . S
H308 C312 0.949 . S
C309 C310 1.349 . S
C309 C311 1.327 . S
C309 H332 0.950 . S
C310 C309 1.349 . S
C310 C322 1.349 . S
C311 C309 1.327 . S
C311 C327 1.429 . S
C311 H333 0.950 . S
C312 H308 0.949 . S
C312 C320 1.574 1_554 S
C312 C328 1.368 1_565 S
H313 C321 0.950 . S
H314 C319 0.950 1_545 S
H315 C320 0.949 . S
H316 C322 0.950 . S
H317 C323 0.950 1_565 S
H318 C324 0.949 . S
C319 H314 0.950 1_565 S
C319 C321 1.327 . S
C319 C325 1.429 . S
C320 C312 1.574 1_556 S
C320 H315 0.949 . S
C320 C326 1.368 . S
C321 C305 1.349 . S
C321 H313 0.950 . S
C321 C319 1.327 . S
C322 C310 1.349 . S
C322 H316 0.950 . S
C322 C323 1.327 . S
C323 H317 0.950 1_545 S
C323 C322 1.327 . S
C323 C327 1.429 . S
C324 C307 1.574 1_554 S
C324 H318 0.949 . S
C324 C328 1.368 . S
C325 C306 1.429 . S
C325 C319 1.429 . S
C325 C326 1.523 . S
C326 C307 1.368 1_565 S
C326 C320 1.368 . S
C326 C325 1.523 . S
C327 C311 1.429 . S
C327 C323 1.429 . S
C327 C328 1.523 . S
C328 C312 1.368 1_545 S
C328 C324 1.368 . S
C328 C327 1.523 . S
H329 C304 0.950 . S
H330 C306 0.950 . S
H331 C307 0.949 . S
H332 C309 0.950 . S
H333 C311 0.950 . S
C334 C335 1.349 . S
C334 C336 1.327 . S
C334 H359 0.950 . S
C335 C334 1.349 . S
C335 C351 1.349 . S
C336 C334 1.327 . S
C336 C355 1.429 . S
C336 H360 0.950 1_545 S
C337 C354 1.574 . S
C337 C356 1.368 1_655 S
C337 H361 0.949 . S
H338 C342 0.949 . S
C339 C340 1.349 . S
C339 C341 1.327 . S
C339 H362 0.950 . S
C340 C339 1.349 . S
C340 C352 1.349 . S
C341 C339 1.327 . S
C341 C357 1.429 . S
C341 H363 0.950 1_565 S
C342 H338 0.949 . S
C342 C350 1.574 . S
C342 C358 1.368 1_455 S
H343 C351 0.950 . S
H344 C349 0.950 . S
H345 C350 0.949 . S
H346 C352 0.950 . S
H347 C353 0.950 1_455 S
H348 C354 0.949 . S
C349 H344 0.950 . S
C349 C351 1.327 . S
C349 C355 1.429 . S
C350 C342 1.574 . S
C350 H345 0.949 . S
C350 C356 1.368 1_565 S
C351 C335 1.349 . S
C351 H343 0.950 . S
C351 C349 1.327 . S
C352 C340 1.349 . S
C352 H346 0.950 . S
C352 C353 1.327 . S
C353 H347 0.950 1_655 S
C353 C352 1.327 . S
C353 C357 1.429 . S
C354 C337 1.574 . S
C354 H348 0.949 . S
C354 C358 1.368 1_545 S
C355 C336 1.429 . S
C355 C349 1.429 . S
C355 C356 1.523 . S
C356 C337 1.368 1_455 S
C356 C350 1.368 1_545 S
C356 C355 1.523 . S
C357 C341 1.429 . S
C357 C353 1.429 . S
C357 C358 1.523 . S
C358 C342 1.368 1_655 S
C358 C354 1.368 1_565 S
C358 C357 1.523 . S
H359 C334 0.950 . S
H360 C336 0.950 1_565 S
H361 C337 0.949 . S
H362 C339 0.950 . S
H363 C341 0.950 1_545 S
C364 C365 1.349 1_455 S
C364 C366 1.327 1_545 S
C364 H389 0.950 . S
C365 C364 1.349 1_655 S
C365 C381 1.349 1_545 S
C366 C364 1.327 1_565 S
C366 C385 1.429 . S
C366 H390 0.950 . S
C367 C384 1.574 . S
C367 C386 1.368 1_655 S
C367 H391 0.949 . S
H368 C372 0.949 . S
C369 C370 1.349 1_655 S
C369 C371 1.327 . S
C369 H392 0.950 . S
C370 C369 1.349 1_455 S
C370 C382 1.349 . S
C371 C369 1.327 . S
C371 C387 1.429 1_655 S
C371 H393 0.950 . S
C372 H368 0.949 . S
C372 C380 1.574 . S
C372 C388 1.368 . S
H373 C381 0.950 . S
H374 C379 0.950 . S
H375 C380 0.949 . S
H376 C382 0.950 . S
H377 C383 0.950 . S
H378 C384 0.949 . S
C379 H374 0.950 . S
C379 C381 1.327 . S
C379 C385 1.429 1_655 S
C380 C372 1.574 . S
C380 H375 0.949 . S
C380 C386 1.368 . S
C381 C365 1.349 1_565 S
C381 H373 0.950 . S
C381 C379 1.327 . S
C382 C370 1.349 . S
C382 H376 0.950 . S
C382 C383 1.327 . S
C383 H377 0.950 . S
C383 C382 1.327 . S
C383 C387 1.429 . S
C384 C367 1.574 . S
C384 H378 0.949 . S
C384 C388 1.368 1_655 S
C385 C366 1.429 . S
C385 C379 1.429 1_455 S
C385 C386 1.523 . S
C386 C367 1.368 1_455 S
C386 C380 1.368 . S
C386 C385 1.523 . S
C387 C371 1.429 1_455 S
C387 C383 1.429 . S
C387 C388 1.523 . S
C388 C372 1.368 . S
C388 C384 1.368 1_455 S
C388 C387 1.523 . S
H389 C364 0.950 . S
H390 C366 0.950 . S
H391 C367 0.949 . S
H392 C369 0.950 . S
H393 C371 0.950 . S
C394 C395 1.349 . S
C394 C396 1.327 . S
C394 H419 0.950 . S
C395 C394 1.349 . S
C395 C411 1.349 . S
C396 C394 1.327 . S
C396 C415 1.429 . S
C396 H420 0.950 . S
C397 C414 1.574 . S
C397 C416 1.368 . S
C397 H421 0.949 . S
H398 C402 0.949 . S
C399 C400 1.349 . S
C399 C401 1.327 . S
C399 H422 0.950 . S
C400 C399 1.349 . S
C400 C412 1.349 . S
C401 C399 1.327 . S
C401 C417 1.429 . S
C401 H423 0.950 . S
C402 H398 0.949 . S
C402 C410 1.574 . S
C402 C418 1.368 . S
H403 C411 0.950 . S
H404 C409 0.950 . S
H405 C410 0.949 . S
H406 C412 0.950 . S
H407 C413 0.950 . S
H408 C414 0.949 . S
C409 H404 0.950 . S
C409 C411 1.327 . S
C409 C415 1.429 . S
C410 C402 1.574 . S
C410 H405 0.949 . S
C410 C416 1.368 . S
C411 C395 1.349 . S
C411 H403 0.950 . S
C411 C409 1.327 . S
C412 C400 1.349 . S
C412 H406 0.950 . S
C412 C413 1.327 . S
C413 H407 0.950 . S
C413 C412 1.327 . S
C413 C417 1.429 . S
C414 C397 1.574 . S
C414 H408 0.949 . S
C414 C418 1.368 . S
C415 C396 1.429 . S
C415 C409 1.429 . S
C415 C416 1.523 . S
C416 C397 1.368 . S
C416 C410 1.368 . S
C416 C415 1.523 . S
C417 C401 1.429 . S
C417 C413 1.429 . S
C417 C418 1.523 . S
C418 C402 1.368 . S
C418 C414 1.368 . S
C418 C417 1.523 . S
H419 C394 0.950 . S
H420 C396 0.950 . S
H421 C397 0.949 . S
H422 C399 0.950 . S
H423 C401 0.950 . S
C424 C425 1.349 . S
C424 C426 1.327 . S
C424 H449 0.950 . S
C425 C424 1.349 . S
C425 C441 1.349 . S
C426 C424 1.327 . S
C426 C445 1.429 . S
C426 H450 0.950 . S
C427 C444 1.574 . S
C427 C446 1.368 . S
C427 H451 0.949 . S
H428 C432 0.949 . S
C429 C430 1.349 1_545 S
C429 C431 1.327 . S
C429 H452 0.950 1_545 S
C430 C429 1.349 1_565 S
C430 C442 1.349 1_565 S
C431 C429 1.327 . S
C431 C447 1.429 . S
C431 H453 0.950 . S
C432 H428 0.949 . S
C432 C440 1.574 . S
C432 C448 1.368 . S
H433 C441 0.950 . S
H434 C439 0.950 . S
H435 C440 0.949 . S
H436 C442 0.950 . S
H437 C443 0.950 . S
H438 C444 0.949 . S
C439 H434 0.950 . S
C439 C441 1.327 . S
C439 C445 1.429 . S
C440 C432 1.574 . S
C440 H435 0.949 . S
C440 C446 1.368 . S
C441 C425 1.349 . S
C441 H433 0.950 . S
C441 C439 1.327 . S
C442 C430 1.349 1_545 S
C442 H436 0.950 . S
C442 C443 1.327 . S
C443 H437 0.950 . S
C443 C442 1.327 . S
C443 C447 1.429 . S
C444 C427 1.574 . S
C444 H438 0.949 . S
C444 C448 1.368 . S
C445 C426 1.429 . S
C445 C439 1.429 . S
C445 C446 1.523 . S
C446 C427 1.368 . S
C446 C440 1.368 . S
C446 C445 1.523 . S
C447 C431 1.429 . S
C447 C443 1.429 . S
C447 C448 1.523 . S
C448 C432 1.368 . S
C448 C444 1.368 . S
C448 C447 1.523 . S
H449 C424 0.950 . S
H450 C426 0.950 . S
H451 C427 0.949 . S
H452 C429 0.950 1_565 S
H453 C431 0.950 . S
C454 C455 1.349 . S
C454 C456 1.327 . S
C454 H479 0.950 . S
C455 C454 1.349 . S
C455 C471 1.349 . S
C456 C454 1.327 . S
C456 C475 1.429 . S
C456 H480 0.950 . S
C457 C474 1.574 1_455 S
C457 C476 1.368 . S
C457 H481 0.949 . S
H458 C462 0.949 . S
C459 C460 1.349 . S
C459 C461 1.327 . S
C459 H482 0.950 . S
C460 C459 1.349 . S
C460 C472 1.349 . S
C461 C459 1.327 . S
C461 C477 1.429 . S
C461 H483 0.950 . S
C462 H458 0.949 . S
C462 C470 1.574 1_655 S
C462 C478 1.368 . S
H463 C471 0.950 . S
H464 C469 0.950 . S
H465 C470 0.949 . S
H466 C472 0.950 . S
H467 C473 0.950 . S
H468 C474 0.949 . S
C469 H464 0.950 . S
C469 C471 1.327 . S
C469 C475 1.429 . S
C470 C462 1.574 1_455 S
C470 H465 0.949 . S
C470 C476 1.368 . S
C471 C455 1.349 . S
C471 H463 0.950 . S
C471 C469 1.327 . S
C472 C460 1.349 . S
C472 H466 0.950 . S
C472 C473 1.327 . S
C473 H467 0.950 . S
C473 C472 1.327 . S
C473 C477 1.429 . S
C474 C457 1.574 1_655 S
C474 H468 0.949 . S
C474 C478 1.368 . S
C475 C456 1.429 . S
C475 C469 1.429 . S
C475 C476 1.523 . S
C476 C457 1.368 . S
C476 C470 1.368 . S
C476 C475 1.523 . S
C477 C461 1.429 . S
C477 C473 1.429 . S
C477 C478 1.523 . S
C478 C462 1.368 . S
C478 C474 1.368 . S
C478 C477 1.523 . S
H479 C454 0.950 . S
H480 C456 0.950 . S
H481 C457 0.949 . S
H482 C459 0.950 . S
H483 C461 0.950 . S
C484 C485 1.349 1_545 S
C484 C486 1.327 . S
C484 H509 0.950 . S
C485 C484 1.349 1_565 S
C485 C501 1.349 1_455 S
C486 C484 1.327 . S
C486 C505 1.429 . S
C486 H510 0.950 . S
C487 C504 1.574 . S
C487 C506 1.368 1_655 S
C487 H511 0.949 . S
H488 C492 0.949 . S
C489 C490 1.349 . S
C489 C491 1.327 . S
C489 H512 0.950 . S
C490 C489 1.349 . S
C490 C502 1.349 1_655 S
C491 C489 1.327 . S
C491 C507 1.429 . S
C491 H513 0.950 . S
C492 H488 0.949 . S
C492 C500 1.574 . S
C492 C508 1.360 1_455 S
H493 C501 0.950 . S
H494 C499 0.950 . S
H495 C500 0.949 . S
H496 C502 0.950 . S
H497 C503 0.950 . S
H498 C504 0.949 . S
C499 H494 0.950 . S
C499 C501 1.327 1_545 S
C499 C505 1.429 1_655 S
C500 C492 1.574 . S
C500 H495 0.949 . S
C500 C506 1.368 . S
C501 C485 1.349 1_655 S
C501 H493 0.950 . S
C501 C499 1.327 1_565 S
C502 C490 1.349 1_455 S
C502 H496 0.950 . S
C502 C503 1.327 . S
C503 H497 0.950 . S
C503 C502 1.327 . S
C503 C507 1.429 1_455 S
C504 C487 1.574 . S
C504 H498 0.949 . S
C504 C508 1.373 . S
C505 C486 1.429 . S
C505 C499 1.429 1_455 S
C505 C506 1.523 . S
C506 C487 1.368 1_455 S
C506 C500 1.368 . S
C506 C505 1.523 . S
C507 C491 1.429 . S
C507 C503 1.429 1_655 S
C507 C508 1.528 . S
C508 C492 1.360 1_655 S
C508 C504 1.373 . S
C508 C507 1.528 . S
H509 C484 0.950 . S
H510 C486 0.950 . S
H511 C487 0.949 . S
H512 C489 0.950 . S
H513 C491 0.950 . S
C514 C515 1.349 . S
C514 C516 1.327 . S
C514 H539 0.950 . S
C515 C514 1.349 . S
C515 C531 1.349 . S
C516 C514 1.327 . S
C516 C535 1.429 . S
C516 H540 0.950 . S
C517 C534 1.574 1_655 S
C517 C536 1.368 . S
C517 H541 0.949 . S
H518 C522 0.949 . S
C519 C520 1.349 . S
C519 C521 1.327 . S
C519 H542 0.950 . S
C520 C519 1.349 . S
C520 C532 1.349 . S
C521 C519 1.327 . S
C521 C537 1.429 . S
C521 H543 0.950 . S
C522 H518 0.949 . S
C522 C530 1.574 1_455 S
C522 C538 1.368 . S
H523 C531 0.950 . S
H524 C529 0.950 . S
H525 C530 0.949 . S
H526 C532 0.950 . S
H527 C533 0.950 . S
H528 C534 0.949 . S
C529 H524 0.950 . S
C529 C531 1.327 . S
C529 C535 1.429 . S
C530 C522 1.574 1_655 S
C530 H525 0.949 . S
C530 C536 1.368 . S
C531 C515 1.349 . S
C531 H523 0.950 . S
C531 C529 1.327 . S
C532 C520 1.349 . S
C532 H526 0.950 . S
C532 C533 1.327 . S
C533 H527 0.950 . S
C533 C532 1.327 . S
C533 C537 1.429 . S
C534 C517 1.574 1_455 S
C534 H528 0.949 . S
C534 C538 1.368 . S
C535 C516 1.429 . S
C535 C529 1.429 . S
C535 C536 1.523 . S
C536 C517 1.368 . S
C536 C530 1.368 . S
C536 C535 1.523 . S
C537 C521 1.429 . S
C537 C533 1.429 . S
C537 C538 1.523 . S
C538 C522 1.368 . S
C538 C534 1.368 . S
C538 C537 1.523 . S
H539 C514 0.950 . S
H540 C516 0.950 . S
H541 C517 0.949 . S
H542 C519 0.950 . S
H543 C521 0.950 . S
C544 C545 1.349 . S
C544 C546 1.327 . S
C544 H569 0.950 . S
C545 C544 1.349 . S
C545 C561 1.349 . S
C546 C544 1.327 . S
C546 C565 1.429 . S
C546 H570 0.950 . S
C547 C564 1.574 . S
C547 C566 1.368 . S
C547 H571 0.949 . S
H548 C552 0.949 . S
C549 C550 1.349 1_565 S
C549 C551 1.327 . S
C549 H572 0.950 . S
C550 C549 1.349 1_545 S
C550 C562 1.349 . S
C551 C549 1.327 . S
C551 C567 1.429 . S
C551 H573 0.950 . S
C552 H548 0.949 . S
C552 C560 1.574 . S
C552 C568 1.368 . S
H553 C561 0.950 . S
H554 C559 0.950 . S
H555 C560 0.949 . S
H556 C562 0.950 . S
H557 C563 0.950 . S
H558 C564 0.949 . S
C559 H554 0.950 . S
C559 C561 1.327 . S
C559 C565 1.429 . S
C560 C552 1.574 . S
C560 H555 0.949 . S
C560 C566 1.368 . S
C561 C545 1.349 . S
C561 H553 0.950 . S
C561 C559 1.327 . S
C562 C550 1.349 . S
C562 H556 0.950 . S
C562 C563 1.327 1_545 S
C563 H557 0.950 . S
C563 C562 1.327 1_565 S
C563 C567 1.429 . S
C564 C547 1.574 . S
C564 H558 0.949 . S
C564 C568 1.368 . S
C565 C546 1.429 . S
C565 C559 1.429 . S
C565 C566 1.523 . S
C566 C547 1.368 . S
C566 C560 1.368 . S
C566 C565 1.523 . S
C567 C551 1.429 . S
C567 C563 1.429 . S
C567 C568 1.523 . S
C568 C552 1.368 . S
C568 C564 1.368 . S
C568 C567 1.523 . S
H569 C544 0.950 . S
H570 C546 0.950 . S
H571 C547 0.949 . S
H572 C549 0.950 . S
H573 C551 0.950 . S
C574 C575 1.349 . S
C574 C576 1.327 . S
C574 H599 0.950 . S
C575 C574 1.349 . S
C575 C591 1.349 . S
C576 C574 1.327 . S
C576 C595 1.429 . S
C576 H600 0.950 . S
C577 C594 1.574 . S
C577 C596 1.368 . S
C577 H601 0.949 . S
H578 C582 0.949 . S
C579 C580 1.349 . S
C579 C581 1.327 . S
C579 H602 0.950 . S
C580 C579 1.349 . S
C580 C592 1.349 . S
C581 C579 1.327 . S
C581 C597 1.429 . S
C581 H603 0.950 . S
C582 H578 0.949 . S
C582 C590 1.574 . S
C582 C598 1.368 . S
H583 C591 0.950 . S
H584 C589 0.950 . S
H585 C590 0.949 . S
H586 C592 0.950 . S
H587 C593 0.950 . S
H588 C594 0.949 . S
C589 H584 0.950 . S
C589 C591 1.327 . S
C589 C595 1.429 . S
C590 C582 1.574 . S
C590 H585 0.949 . S
C590 C596 1.368 . S
C591 C575 1.349 . S
C591 H583 0.950 . S
C591 C589 1.327 . S
C592 C580 1.349 . S
C592 H586 0.950 . S
C592 C593 1.327 . S
C593 H587 0.950 . S
C593 C592 1.327 . S
C593 C597 1.429 . S
C594 C577 1.574 . S
C594 H588 0.949 . S
C594 C598 1.368 . S
C595 C576 1.429 . S
C595 C589 1.429 . S
C595 C596 1.523 . S
C596 C577 1.368 . S
C596 C590 1.368 . S
C596 C595 1.523 . S
C597 C581 1.429 . S
C597 C593 1.429 . S
C597 C598 1.523 . S
C598 C582 1.368 . S
C598 C594 1.368 . S
C598 C597 1.523 . S
H599 C574 0.950 . S
H600 C576 0.950 . S
H601 C577 0.949 . S
H602 C579 0.950 . S
H603 C581 0.950 . S
C125 C1 1.214 . S
C130 C58 1.214 . S
C155 C89 1.832 . S
C160 C32 1.832 . S
C185 C62 1.296 . S
C190 C117 1.296 . S
C215 C24 1.268 . S
C220 C93 1.268 . S
C245 C94 1.832 . S
C250 C27 1.832 . S
C275 C31 1.268 . S
C280 C86 1.268 . S
C305 C63 1.213 . S
C310 C120 1.213 . S
C335 C0 1.297 . S
C340 C55 1.297 . S
C365 C18 1.627 . S
C370 C11 1.627 . S
C395 C41 1.216 . S
C400 C33 1.216 . S
C425 C80 1.627 . S
C430 C73 1.627 . S
C455 C95 1.216 . S
C460 C103 1.216 . S
C485 C42 1.627 . S
C490 C49 1.627 . S
C515 C72 1.216 . S
C520 C64 1.216 . S
C545 C104 1.627 . S
C550 C111 1.627 . S
C575 C2 1.216 . S
C580 C10 1.216 . S
