# Generated by pormake.
# Topology zfs, (5)-cn, num edge types: 1
# Building blocks:
#     Node 0, Type 0, BuildingBlock: XOMCOT_clean_sbu_0, # of connection points: 5
#     Node 1, Type 0, BuildingBlock: XOMCOT_clean_sbu_0, # of connection points: 5
#     Node 2, Type 0, BuildingBlock: XOMCOT_clean_sbu_0, # of connection points: 5
#     Node 3, Type 0, BuildingBlock: XOMCOT_clean_sbu_0, # of connection points: 5
#     Node 4, Type 0, BuildingBlock: XOMCOT_clean_sbu_0, # of connection points: 5
#     Node 5, Type 0, BuildingBlock: XOMCOT_clean_sbu_0, # of connection points: 5
#     Node 6, Type 0, BuildingBlock: XOMCOT_clean_sbu_0, # of connection points: 5
#     Node 7, Type 0, BuildingBlock: XOMCOT_clean_sbu_0, # of connection points: 5
#     Edge 8, Type (0, 0), BuildingBlock: AJUNOK_clean_linker_0, # of connection points: 2
#     Edge 9, Type (0, 0), BuildingBlock: AJUNOK_clean_linker_0, # of connection points: 2
#     Edge 10, Type (0, 0), BuildingBlock: AJUNOK_clean_linker_0, # of connection points: 2
#     Edge 11, Type (0, 0), BuildingBlock: AJUNOK_clean_linker_0, # of connection points: 2
#     Edge 12, Type (0, 0), BuildingBlock: AJUNOK_clean_linker_0, # of connection points: 2
#     Edge 13, Type (0, 0), BuildingBlock: AJUNOK_clean_linker_0, # of connection points: 2
#     Edge 14, Type (0, 0), BuildingBlock: AJUNOK_clean_linker_0, # of connection points: 2
#     Edge 15, Type (0, 0), BuildingBlock: AJUNOK_clean_linker_0, # of connection points: 2
#     Edge 16, Type (0, 0), BuildingBlock: AJUNOK_clean_linker_0, # of connection points: 2
#     Edge 17, Type (0, 0), BuildingBlock: AJUNOK_clean_linker_0, # of connection points: 2
#     Edge 18, Type (0, 0), BuildingBlock: AJUNOK_clean_linker_0, # of connection points: 2
#     Edge 19, Type (0, 0), BuildingBlock: AJUNOK_clean_linker_0, # of connection points: 2
#     Edge 20, Type (0, 0), BuildingBlock: AJUNOK_clean_linker_0, # of connection points: 2
#     Edge 21, Type (0, 0), BuildingBlock: AJUNOK_clean_linker_0, # of connection points: 2
#     Edge 22, Type (0, 0), BuildingBlock: AJUNOK_clean_linker_0, # of connection points: 2
#     Edge 23, Type (0, 0), BuildingBlock: AJUNOK_clean_linker_0, # of connection points: 2
#     Edge 24, Type (0, 0), BuildingBlock: AJUNOK_clean_linker_0, # of connection points: 2
#     Edge 25, Type (0, 0), BuildingBlock: AJUNOK_clean_linker_0, # of connection points: 2
#     Edge 26, Type (0, 0), BuildingBlock: AJUNOK_clean_linker_0, # of connection points: 2
#     Edge 27, Type (0, 0), BuildingBlock: AJUNOK_clean_linker_0, # of connection points: 2
# Relax obj value: 0.155
# Max RMSD: 0.166
# Mean RMSD: 0.166
data_MOF--net-zfs--node1-XOMCOT_clean_sbu_0--edge1-AJUNOK_clean_linker_0
_symmetry_space_group_name_H-M    P1
_symmetry_Int_Tables_number       1
_symmetry_cell_setting            triclinic
loop_
_symmetry_equiv_pos_as_xyz
'x, y, z'
_cell_length_a     25.512043
_cell_length_b     25.206612
_cell_length_c     31.432126
_cell_angle_alpha  89.755424
_cell_angle_beta   89.785329
_cell_angle_gamma 90.268844
loop_
_atom_site_label
_atom_site_type_symbol
_atom_site_fract_x
_atom_site_fract_y
_atom_site_fract_z
_atom_type_partial_charge
Co0 Co 0.07956 0.24924 0.19774 0.0
C1 C 1.02486 0.25407 0.11766 0.0
C2 C 0.99309 0.19377 0.15804 0.0
C3 C 0.98045 0.18194 0.11664 0.0
N4 N 1.02212 0.23867 0.15869 0.0
N5 N 1.00184 0.21938 0.09122 0.0
H6 H 0.05207 0.28356 0.10613 0.0
H7 H 0.98903 0.16658 0.18451 0.0
C8 C 0.98596 0.2335 0.25571 0.0
O9 O 0.9602 0.26695 0.23146 0.0
N10 N 0.13743 0.25845 0.23543 0.0
C11 C 0.17506 0.29607 0.23301 0.0
C12 C 0.20381 0.29455 0.26999 0.0
C13 C 0.14398 0.23412 0.27296 0.0
N14 N 0.1834 0.25613 0.29505 0.0
C15 C 0.06535 0.36 0.17599 0.0
C16 C 0.04958 0.39521 0.25812 0.0
C17 C 0.05402 0.43296 0.22536 0.0
C18 C 0.06065 0.41442 0.18369 0.0
C19 C 0.0536 0.341 0.24895 0.0
N20 N 0.06103 0.32361 0.20815 0.0
H21 H 0.07572 0.34795 0.14441 0.0
H22 H 0.05395 0.31335 0.27526 0.0
H23 H 0.17936 0.32439 0.20727 0.0
H24 H 0.11948 0.20205 0.28446 0.0
O25 O 0.12751 0.25777 0.14969 0.0
O26 O 0.10715 0.18109 0.17966 0.0
O27 O 1.03393 0.22306 0.24704 0.0
C28 C 0.13217 0.20633 0.14956 0.0
H29 H 0.96253 0.14544 0.10616 0.0
H30 H 0.23523 0.32131 0.2788 0.0
H31 H 0.04556 0.40746 0.29095 0.0
H32 H 0.06382 0.44178 0.15716 0.0
Co33 Co 0.82806 0.08174 0.44681 0.0
C34 C 0.80833 1.02953 0.36782 0.0
C35 C 0.87627 0.99793 0.39802 0.0
C36 C 0.87885 0.98667 0.35535 0.0
N37 N 0.83225 1.0255 0.40579 0.0
N38 N 0.83731 1.00906 0.33604 0.0
H39 H 0.77621 0.05642 0.36223 0.0
H40 H 0.9084 0.99453 0.42015 0.0
C41 C 0.85206 0.98229 0.49862 0.0
O42 O 0.82451 0.95427 0.47148 0.0
N43 N 0.82273 0.13963 0.48562 0.0
C44 C 0.79086 0.18176 0.48079 0.0
C45 C 0.79367 0.2124 0.51666 0.0
C46 C 0.84499 0.14519 0.52395 0.0
N47 N 0.82744 0.18904 0.54356 0.0
C48 C 0.71663 0.09037 0.43328 0.0
C49 C 0.68442 1.03283 0.50355 0.0
C50 C 0.64613 0.05978 0.48004 0.0
C51 C 0.66318 0.08829 0.44395 0.0
C52 C 0.73748 1.03877 0.49345 0.0
N53 N 0.75355 0.06639 0.45814 0.0
H54 H 0.72837 0.11402 0.40617 0.0
H55 H 0.76477 1.02263 0.51575 0.0
H56 H 0.76642 0.18921 0.45341 0.0
H57 H 0.87216 0.11725 0.53779 0.0
O58 O 0.82283 0.13241 0.39951 0.0
O59 O 0.89687 0.10608 0.42828 0.0
O60 O 0.85399 1.033 0.49467 0.0
C61 C 0.87385 0.13367 0.39888 0.0
H62 H 0.9121 0.96952 0.33933 0.0
H63 H 0.77256 0.24878 0.52267 0.0
H64 H 0.67415 1.00791 0.53041 0.0
H65 H 0.63583 0.11048 0.42465 0.0
Co66 Co 1.00196 0.83816 0.69607 0.0
C67 C 0.05171 0.81819 0.61478 0.0
C68 C 0.09346 0.8776 0.64903 0.0
C69 C 0.10706 0.88133 0.60664 0.0
N70 N 0.05801 0.8382 0.65417 0.0
N71 N 0.07901 0.84506 0.58505 0.0
H72 H 1.02011 0.79187 0.60626 0.0
H73 H 0.10271 0.90672 0.67291 0.0
C74 C 0.0984 0.85525 0.75014 0.0
O75 O 0.12243 0.81843 0.72807 0.0
N76 N 0.94531 0.83823 0.73621 0.0
C77 C 0.90531 0.8031 0.73698 0.0
C78 C 0.87998 0.80706 0.77549 0.0
C79 C 0.94334 0.86382 0.77358 0.0
N80 N 0.90443 0.84483 0.79833 0.0
C81 C 1.01051 0.72451 0.68422 0.0
C82 C 1.02814 0.69953 0.76866 0.0
C83 C 1.02348 0.65829 0.73921 0.0
C84 C 1.01512 0.67128 0.69647 0.0
C85 C 1.02438 0.75231 0.75494 0.0
N86 N 1.01633 0.7646 0.71297 0.0
H87 H 0.99946 0.73284 0.652 0.0
H88 H 1.02555 0.78314 0.77865 0.0
H89 H 0.89763 0.77397 0.71259 0.0
H90 H 0.97195 0.89277 0.78389 0.0
O91 O 0.95135 0.82684 0.65071 0.0
O92 O 0.97831 0.90543 0.67234 0.0
O93 O 0.05093 0.86727 0.74148 0.0
C94 C 0.95035 0.87813 0.6456 0.0
H95 H 0.13087 0.91217 0.59235 0.0
H96 H 0.84782 0.78248 0.78668 0.0
H97 H 1.03363 0.691 0.80215 0.0
H98 H 1.00966 0.64041 0.673 0.0
Co99 Co 0.24563 1.0054 0.9457 0.0
C100 C 0.26827 0.06352 0.86814 0.0
C101 C 0.20889 0.1027 0.90392 0.0
C102 C 0.20815 0.12176 0.86273 0.0
N103 N 0.24653 0.06562 0.90721 0.0
N104 N 0.2447 0.09574 0.84002 0.0
H105 H 0.29318 1.03166 0.85799 0.0
H106 H 0.17943 0.10997 0.92791 0.0
C107 C 0.23091 0.09905 0.00485 0.0
O108 O 0.26613 0.12534 0.9825 0.0
N109 N 0.24548 0.9444 0.9822 0.0
C110 C 0.27993 0.90412 0.9799 0.0
C111 C 0.27531 0.87385 0.01616 0.0
C112 C 0.21954 0.93764 0.01905 0.0
N113 N 0.23782 0.89554 0.04077 0.0
C114 C 0.35718 1.00866 0.9321 0.0
C115 C 0.3849 1.03014 0.01519 0.0
C116 C 0.42445 1.02231 0.98494 0.0
C117 C 0.41008 1.01176 0.94291 0.0
C118 C 0.3323 1.02642 0.00305 0.0
N119 N 0.31876 1.01744 0.96157 0.0
H120 H 0.3476 0.9962 0.90045 0.0
H121 H 0.30277 1.02827 0.02763 0.0
H122 H 0.3088 0.89924 0.95495 0.0
H123 H 0.19028 0.96463 0.03098 0.0
O124 O 0.25511 0.95828 0.89742 0.0
O125 O 0.17829 0.98409 0.92189 0.0
O126 O 0.21868 0.05139 0.99454 0.0
C127 C 0.20441 0.95764 0.89339 0.0
H128 H 0.17866 0.14733 0.8492 0.0
H129 H 0.29928 0.84016 0.02473 0.0
H130 H 0.39453 1.03667 0.0483 0.0
H131 H 0.43955 1.0045 0.91875 0.0
Co132 Co 0.07991 0.83958 0.30906 0.0
C133 C 1.02382 0.81862 0.38734 0.0
C134 C 0.9873 0.88056 0.35201 0.0
C135 C 0.97184 0.88418 0.39392 0.0
N136 N 1.02087 0.83975 0.34794 0.0
N137 N 0.99668 0.84633 0.4163 0.0
H138 H 0.0537 0.79108 0.39685 0.0
H139 H 0.98151 0.91089 0.32814 0.0
C140 C 0.98723 0.8565 0.25073 0.0
O141 O 0.96224 0.8191 0.27198 0.0
N142 N 0.13964 0.83929 0.27206 0.0
C143 C 0.17966 0.80473 0.274 0.0
C144 C 0.20996 0.81088 0.23807 0.0
C145 C 0.14625 0.86644 0.23562 0.0
N146 N 0.18866 0.84958 0.21404 0.0
C147 C 0.07259 0.72594 0.32228 0.0
C148 C 0.05405 0.69945 0.23848 0.0
C149 C 0.05783 0.6587 0.26876 0.0
C150 C 0.06699 0.67252 0.31114 0.0
C151 C 0.05897 0.7525 0.25111 0.0
N152 N 0.06667 0.76556 0.29288 0.0
H153 H 0.08452 0.73476 0.35416 0.0
H154 H 0.05862 0.78286 0.22681 0.0
H155 H 0.18439 0.77477 0.29841 0.0
H156 H 0.11946 0.89617 0.22414 0.0
O157 O 0.12685 0.82966 0.35723 0.0
O158 O 0.10174 0.90748 0.33259 0.0
O159 O 1.03439 0.86833 0.26098 0.0
C160 C 0.1275 0.88108 0.36127 0.0
H161 H 0.94989 0.9162 0.40769 0.0
H162 H 0.24264 0.78616 0.22889 0.0
H163 H 0.04821 0.69034 0.20518 0.0
H164 H 0.07225 0.6421 0.33518 0.0
Co165 Co 0.24057 0.08918 0.55993 0.0
C166 C 0.25955 1.03509 0.63877 0.0
C167 C 0.1892 1.00713 0.60961 0.0
C168 C 0.18658 0.9964 0.65248 0.0
N169 N 0.23462 1.03264 0.60116 0.0
N170 N 0.23029 1.01553 0.67097 0.0
H171 H 0.29274 0.06083 0.64396 0.0
H172 H 0.15641 1.00532 0.58795 0.0
C173 C 0.21755 0.99021 0.50893 0.0
O174 O 0.24621 0.96358 0.53622 0.0
N175 N 0.24702 0.14701 0.52071 0.0
C176 C 0.28207 0.18706 0.52347 0.0
C177 C 0.2778 0.21842 0.48786 0.0
C178 C 0.22134 0.15465 0.48404 0.0
N179 N 0.23952 0.198 0.4635 0.0
C180 C 0.35163 0.09355 0.5747 0.0
C181 C 0.38381 1.04204 0.50197 0.0
C182 C 0.42244 0.06324 0.52884 0.0
C183 C 0.40512 0.09035 0.56522 0.0
C184 C 0.33052 0.04881 0.51139 0.0
N185 N 0.31456 0.07256 0.5483 0.0
H186 H 0.34027 0.11615 0.60222 0.0
H187 H 0.3029 1.03677 0.48757 0.0
H188 H 0.30966 0.19244 0.54912 0.0
H189 H 0.19147 0.1282 0.47186 0.0
O190 O 0.24871 0.13902 0.60669 0.0
O191 O 0.17275 0.11566 0.57949 0.0
O192 O 0.21362 1.04075 0.5126 0.0
C193 C 0.19794 0.142 0.60854 0.0
H194 H 0.15186 0.98347 0.66941 0.0
H195 H 0.30128 0.25304 0.48009 0.0
H196 H 0.39434 1.02148 0.47304 0.0
H197 H 0.43214 0.11124 0.58565 0.0
Co198 Co 0.98936 0.24805 0.80738 0.0
C199 C 0.04115 0.25105 0.88903 0.0
C200 C 0.07285 0.19064 0.8494 0.0
C201 C 0.0851 0.17915 0.89099 0.0
N202 N 0.04449 0.23563 0.84814 0.0
N203 N 0.06421 0.21684 0.91601 0.0
H204 H 1.01409 0.28064 0.89992 0.0
H205 H 0.07742 0.16361 0.82304 0.0
C206 C 0.08627 0.23531 0.7535 0.0
O207 O 0.11071 0.26608 0.78069 0.0
N208 N 0.93357 0.25904 0.76823 0.0
C209 C 0.89644 0.29678 0.76998 0.0
C210 C 0.86641 0.29327 0.73383 0.0
C211 C 0.92565 0.23272 0.73193 0.0
N212 N 0.88506 0.25297 0.71017 0.0
C213 C 1.00127 0.35845 0.8322 0.0
C214 C 1.02521 0.39628 0.75179 0.0
C215 C 1.01873 0.43299 0.78475 0.0
C216 C 1.00755 0.41316 0.82562 0.0
C217 C 1.01941 0.34194 0.75985 0.0
N218 N 1.0084 0.32313 0.79985 0.0
H219 H 0.98754 0.34531 0.86281 0.0
H220 H 1.02061 0.3154 0.73304 0.0
H221 H 0.89279 0.3259 0.79499 0.0
H222 H 0.94969 0.20007 0.72127 0.0
O223 O 0.93898 0.25256 0.85426 0.0
O224 O 0.96115 0.17862 0.82139 0.0
O225 O 1.03737 0.22539 0.75877 0.0
C226 C 0.93437 0.20116 0.85152 0.0
H227 H 0.10291 0.14292 0.90174 0.0
H228 H 0.83508 0.31976 0.72476 0.0
H229 H 1.0323 0.40948 0.71943 0.0
H230 H 1.0023 0.43969 0.85227 0.0
Co231 Co 0.8267 1.00774 0.06171 0.0
C232 C 0.79952 0.05988 0.1395 0.0
C233 C 0.85331 0.10779 0.10345 0.0
C234 C 0.85274 0.12538 0.14495 0.0
N235 N 0.82096 0.06572 0.1007 0.0
N236 N 0.82031 0.09364 0.16779 0.0
H237 H 0.77627 1.0256 0.1486 0.0
H238 H 0.88042 0.1201 0.07881 0.0
C239 C 0.83217 0.06019 0.97489 0.0
O240 O 0.79844 1.02466 0.96116 0.0
N241 N 0.83268 0.94794 0.02362 0.0
C242 C 0.80603 0.90163 0.02559 0.0
C243 C 0.82142 0.87013 0.99248 0.0
C244 C 0.86634 0.94238 0.99084 0.0
N245 N 0.85919 0.89588 0.9705 0.0
C246 C 0.71819 0.97687 0.06648 0.0
C247 C 0.67787 0.06275 0.02295 0.0
C248 C 0.64426 1.02086 0.03421 0.0
C249 C 0.66466 0.97852 0.05772 0.0
C250 C 0.73135 0.05934 0.03238 0.0
N251 N 0.75163 1.01462 0.05073 0.0
H252 H 0.73241 0.94544 0.08657 0.0
H253 H 0.75613 0.09292 0.02496 0.0
H254 H 0.77736 0.89055 0.04919 0.0
H255 H 0.89449 0.97239 0.98121 0.0
O256 O 0.82462 0.95782 0.10917 0.0
O257 O 0.89701 0.99325 0.08287 0.0
O258 O 0.8464 0.05972 0.01402 0.0
C259 C 0.87529 0.96243 0.11132 0.0
H260 H 0.87909 0.15459 0.15832 0.0
H261 H 0.80393 0.83247 0.98401 0.0
H262 H 0.66317 0.0974 0.00644 0.0
H263 H 0.63937 0.94703 0.06947 0.0
C264 C 1.01976 0.56676 0.27509 0.0
C265 C 0.05598 0.60188 0.25604 0.0
C266 C 1.01887 0.51255 0.26461 0.0
C267 C 0.05458 0.49114 0.235 0.0
H268 H 0.99178 0.5814 0.29819 0.0
H269 H 0.98986 0.48722 0.27979 0.0
S270 S 0.16065 0.56604 0.17946 0.0
N271 N 0.12992 0.61133 0.20784 0.0
N272 N 0.12963 0.50958 0.18907 0.0
C273 C 0.09158 0.52598 0.2163 0.0
C274 C 0.09195 0.58122 0.2266 0.0
C275 C 0.54925 0.06112 0.46287 0.0
C276 C 0.58937 0.05952 0.49357 0.0
C277 C 0.49602 0.0622 0.47448 0.0
C278 C 0.47979 0.06017 0.51745 0.0
H279 H 0.5588 0.06156 0.42929 0.0
H280 H 0.4675 0.06553 0.44923 0.0
S281 S 0.56867 0.0542 0.6109 0.0
N282 N 0.60843 0.05836 0.56955 0.0
N283 N 0.50904 0.05316 0.59092 0.0
C284 C 0.51944 0.05699 0.54856 0.0
C285 C 0.57378 0.05826 0.5368 0.0
C286 C 0.06049 0.56623 0.73653 0.0
C287 C 1.02356 0.60185 0.75318 0.0
C288 C 0.05944 0.51217 0.74775 0.0
C289 C 1.02093 0.49137 0.77562 0.0
H290 H 0.09038 0.5803 0.7146 0.0
H291 H 0.08896 0.4864 0.73428 0.0
S292 S 0.91295 0.56826 0.82527 0.0
N293 N 0.9467 0.61286 0.79782 0.0
N294 N 0.94322 0.51126 0.81781 0.0
C295 C 0.98354 0.52687 0.79222 0.0
C296 C 0.98519 0.58201 0.78124 0.0
C297 C 0.50299 0.06499 0.01868 0.0
C298 C 0.48039 1.02144 0.99761 0.0
C299 C 0.55619 0.06495 0.03012 0.0
C300 C 0.58826 1.02094 0.02152 0.0
H301 H 0.47951 0.09953 0.02589 0.0
H302 H 0.5722 0.09926 0.04624 0.0
S303 S 0.54756 0.89684 0.96761 0.0
N304 N 0.49383 0.93304 0.96915 0.0
N305 N 0.59358 0.93297 0.99047 0.0
C306 C 0.56592 0.97711 1.0007 0.0
C307 C 0.51207 0.97735 0.98878 0.0
C308 C 0.26358 0.2272 0.39151 0.0
C309 C 0.22483 0.21557 0.42205 0.0
C310 C 0.24979 0.24143 0.35002 0.0
C311 C 0.19694 0.24449 0.33816 0.0
H312 H 0.30468 0.22375 0.39952 0.0
H313 H 0.28045 0.24871 0.32678 0.0
S314 S 0.08126 0.22589 0.40862 0.0
N315 N 0.13211 0.21279 0.43922 0.0
N316 N 0.10583 0.24081 0.36135 0.0
C317 C 0.1579 0.23526 0.36903 0.0
C318 C 0.17198 0.22039 0.41104 0.0
C319 C 0.89363 0.20653 0.5977 0.0
C320 C 0.84098 0.20623 0.58526 0.0
C321 C 0.90773 0.22243 0.63851 0.0
C322 C 0.86948 0.23795 0.66824 0.0
H323 H 0.92401 0.1949 0.57551 0.0
H324 H 0.9489 0.22302 0.64675 0.0
S325 S 0.72578 0.23957 0.6518 0.0
N326 N 0.75022 0.22019 0.60571 0.0
N327 N 0.77668 0.24945 0.68316 0.0
C328 C 0.81658 0.23726 0.65625 0.0
C329 C 0.8023 0.22144 0.61451 0.0
C330 C 0.88532 0.9224 0.89803 0.0
C331 C 0.87773 0.88231 0.92876 0.0
C332 C 0.89476 0.90986 0.85545 0.0
C333 C 0.89658 0.85687 0.84226 0.0
H334 H 0.88177 0.96368 0.90656 0.0
H335 H 0.89901 0.94166 0.83239 0.0
S336 S 0.88978 0.73748 0.91116 0.0
N337 N 0.88039 0.78765 0.94392 0.0
N338 N 0.89743 0.76414 0.86345 0.0
C339 C 0.89231 0.81642 0.87286 0.0
C340 C 0.88314 0.82915 0.91628 0.0
C341 C 0.1741 0.88248 0.09841 0.0
C342 C 0.22628 0.88317 0.08425 0.0
C343 C 0.16206 0.8721 0.14104 0.0
C344 C 0.20196 0.86262 0.17089 0.0
H345 H 0.1425 0.88945 0.07619 0.0
H346 H 0.12123 0.87048 0.15048 0.0
S347 S 0.34502 0.867 0.15056 0.0
N348 N 0.31827 0.87802 0.1036 0.0
N349 N 0.29561 0.8588 0.18407 0.0
C350 C 0.25435 0.86473 0.1573 0.0
C351 C 0.26656 0.87499 0.11385 0.0
C352 C 1.02352 0.26343 0.0238 0.0
C353 C 1.01516 0.21618 0.04673 0.0
C354 C 0.04279 0.26294 0.98231 0.0
C355 C 0.05294 0.21511 0.96103 0.0
H356 H 1.01538 0.30141 0.03831 0.0
H357 H 0.04882 0.30063 0.96636 0.0
S358 S 0.04003 0.07973 0.00753 0.0
N359 N 1.02231 0.11988 0.04625 0.0
N360 N 0.0541 0.11858 0.96665 0.0
C361 C 0.04519 0.16719 0.98359 0.0
C362 C 1.02692 0.1678 0.02664 0.0
C363 C 0.78092 0.06258 0.23467 0.0
C364 C 0.82552 0.07902 0.21178 0.0
C365 C 0.78539 1.03784 0.27442 0.0
C366 C 0.83466 1.02854 0.29289 0.0
H367 H 0.74235 0.06765 0.22102 0.0
H368 H 0.74995 1.02582 0.29097 0.0
S369 S 0.96398 0.06345 0.24511 0.0
N370 N 0.9207 0.0827 0.20951 0.0
N371 N 0.92936 1.03907 0.28512 0.0
C372 C 0.87977 0.0453 0.27036 0.0
C373 C 0.87512 0.07004 0.2297 0.0
C374 C 0.04774 0.79976 0.52107 0.0
C375 C 0.06238 0.84712 0.54135 0.0
C376 C 1.02317 0.80025 0.48145 0.0
C377 C 1.01248 0.84809 0.46019 0.0
H378 H 0.05481 0.76194 0.53641 0.0
H379 H 1.01325 0.76276 0.46675 0.0
S380 S 0.0432 0.98354 0.49929 0.0
N381 N 0.06323 0.94362 0.53759 0.0
N382 N 1.01975 0.94443 0.46189 0.0
C383 C 1.0271 0.89597 0.47992 0.0
C384 C 0.05167 0.8955 0.52065 0.0
C385 C 0.18959 0.05346 0.73537 0.0
C386 C 0.2343 1.0345 0.71397 0.0
C387 C 0.19351 0.07705 0.77542 0.0
C388 C 0.24237 0.08319 0.79545 0.0
H389 H 0.15123 0.05076 0.72097 0.0
H390 H 0.15774 0.0887 0.79138 0.0
S391 S 0.37144 1.04315 0.75192 0.0
N392 N 0.32889 1.02436 0.71545 0.0
N393 N 0.33656 0.07138 0.78986 0.0
C394 C 0.28749 0.06629 0.77368 0.0
C395 C 0.28338 1.04121 0.73333 0.0
C396 C 0.17548 0.20624 0.07749 0.0
C397 C 0.15921 0.178 0.11407 0.0
C398 C 0.19853 0.18039 0.04255 0.0
C399 C 0.20597 0.12506 0.0424 0.0
H400 H 0.1698 0.24873 0.07547 0.0
H401 H 0.20995 0.20397 0.01512 0.0
S402 S 0.17337 1.03281 0.13108 0.0
N403 N 0.15404 0.09137 0.14833 0.0
N404 N 0.19753 1.04328 0.08298 0.0
C405 C 0.19037 0.09637 0.07886 0.0
C406 C 0.16702 0.12267 0.11455 0.0
C407 C 0.90682 0.22187 0.30329 0.0
C408 C 0.95895 0.2081 0.29311 0.0
C409 C 0.8799 0.19826 0.33771 0.0
C410 C 0.90398 0.16015 0.36388 0.0
H411 H 0.88625 0.25104 0.28435 0.0
H412 H 0.83979 0.21 0.34381 0.0
S413 S 0.03836 0.10666 0.3496 0.0
N414 N 1.0325 0.15132 0.31138 0.0
N415 N 0.98234 0.10772 0.37599 0.0
C416 C 0.95593 0.14568 0.35407 0.0
C417 C 0.98324 0.16942 0.31882 0.0
C418 C 0.89437 0.98433 0.57133 0.0
C419 C 0.87727 0.95515 0.53577 0.0
C420 C 0.91723 0.95919 0.60683 0.0
C421 C 0.92384 0.90372 0.60847 0.0
H422 H 0.88979 1.027 0.572 0.0
H423 H 0.92975 0.98354 0.63325 0.0
S424 S 0.89011 0.80931 0.52226 0.0
N425 N 0.87185 0.86764 0.50363 0.0
N426 N 0.91402 0.82078 0.57005 0.0
C427 C 0.90777 0.87417 0.57284 0.0
C428 C 0.88476 0.89973 0.53666 0.0
C429 C 0.09789 0.89956 0.82185 0.0
C430 C 0.126 0.88207 0.78591 0.0
C431 C 0.12345 0.92362 0.85648 0.0
C432 C 0.17819 0.93136 0.85659 0.0
H433 H 0.05586 0.89381 0.82364 0.0
H434 H 0.10006 0.93592 0.88349 0.0
S435 S 0.26903 0.89831 0.76797 0.0
N436 N 0.21113 0.87777 0.7513 0.0
N437 N 0.25903 0.92307 0.81584 0.0
C438 C 0.20654 0.91531 0.82029 0.0
C439 C 0.18052 0.89065 0.78517 0.0
C440 C 0.15611 0.96372 0.4 0.0
C441 C 0.15141 0.90796 0.39887 0.0
C442 C 0.17686 0.99008 0.43568 0.0
C443 C 0.19373 0.96186 0.4719 0.0
H444 H 0.14378 0.98736 0.37301 0.0
H445 H 0.18016 1.03291 0.4346 0.0
S446 S 0.18504 0.8157 0.48698 0.0
N447 N 0.16235 0.82578 0.43854 0.0
N448 N 0.20081 0.87491 0.50527 0.0
C449 C 0.18797 0.90617 0.47158 0.0
C450 C 0.16701 0.87938 0.43524 0.0
C451 C 0.1154 0.17293 0.64516 0.0
C452 C 0.17044 0.16823 0.64485 0.0
C453 C 0.08849 0.1945 0.68026 0.0
C454 C 0.11545 0.21243 0.71658 0.0
H455 H 0.09274 0.15951 0.61817 0.0
H456 H 0.04618 0.19734 0.67879 0.0
S457 S 0.25936 0.20553 0.73335 0.0
N458 N 0.25066 0.18124 0.68522 0.0
N459 N 0.20041 0.22156 0.75068 0.0
C460 C 0.17045 0.20748 0.71684 0.0
C461 C 0.19781 0.18549 0.68119 0.0
C462 C 0.88502 0.11854 0.87118 0.0
C463 C 0.90442 0.16865 0.88302 0.0
C464 C 0.86031 0.08479 0.90081 0.0
C465 C 0.85565 0.09873 0.94401 0.0
H466 H 0.88905 0.10512 0.83863 0.0
H467 H 0.84579 0.04688 0.8898 0.0
S468 S 0.89682 0.22695 0.99108 0.0
N469 N 0.91432 0.23203 0.94056 0.0
N470 N 0.8699 0.1676 0.9966 0.0
C471 C 0.87411 0.14911 0.95622 0.0
C472 C 0.89796 0.18425 0.92569 0.0
C473 C 0.90844 0.87044 0.20399 0.0
C474 C 0.96034 0.88441 0.21466 0.0
C475 C 0.8817 0.89561 0.17054 0.0
C476 C 0.90561 0.9357 0.14578 0.0
H477 H 0.88791 0.83975 0.22169 0.0
H478 H 0.84182 0.88328 0.164 0.0
S479 S 0.03998 0.98918 0.16097 0.0
N480 N 1.03387 0.94296 0.19804 0.0
N481 N 0.98393 0.98931 0.13494 0.0
C482 C 0.95734 0.95038 0.15601 0.0
C483 C 0.98452 0.92507 0.19042 0.0
loop_
_geom_bond_atom_site_label_1
_geom_bond_atom_site_label_2
_geom_bond_distance
_geom_bond_site_symmetry_2
_ccdc_geom_bond_type
Co0 N4 2.148 . S
Co0 N10 2.128 . S
Co0 N20 2.194 . S
Co0 O25 2.351 . S
Co0 O26 2.155 . S
Co0 O27 2.096 . S
C1 N4 1.301 . S
C1 N5 1.328 1_455 S
C1 H6 0.930 . S
C2 C3 1.333 . S
C2 N4 1.317 1_655 S
C2 H7 0.930 . S
C3 C2 1.333 . S
C3 N5 1.350 . S
C3 H29 0.931 . S
N4 Co0 2.148 . S
N4 C1 1.301 . S
N4 C2 1.317 1_455 S
N5 C1 1.328 1_655 S
N5 C3 1.350 . S
H6 C1 0.930 . S
H7 C2 0.930 . S
C8 O9 1.224 . S
C8 O27 1.247 1_655 S
O9 C8 1.224 . S
N10 Co0 2.128 . S
N10 C11 1.355 . S
N10 C13 1.311 . S
C11 N10 1.355 . S
C11 C12 1.363 . S
C11 H23 0.929 . S
C12 C11 1.363 . S
C12 N14 1.375 . S
C12 H30 0.931 . S
C13 N10 1.311 . S
C13 N14 1.347 . S
C13 H24 0.929 . S
N14 C12 1.375 . S
N14 C13 1.347 . S
C15 C18 1.365 . S
C15 N20 1.328 . S
C15 H21 0.929 . S
C16 C17 1.362 . S
C16 C19 1.378 . S
C16 H31 0.929 . S
C17 C16 1.362 . S
C17 C18 1.366 . S
C18 C15 1.365 . S
C18 C17 1.366 . S
C18 H32 0.930 . S
C19 C16 1.378 . S
C19 N20 1.315 . S
C19 H22 0.930 . S
N20 Co0 2.194 . S
N20 C15 1.328 . S
N20 C19 1.315 . S
H21 C15 0.929 . S
H22 C19 0.930 . S
H23 C11 0.929 . S
H24 C13 0.929 . S
O25 Co0 2.351 . S
O25 C28 1.244 . S
O26 Co0 2.155 . S
O26 C28 1.240 . S
O27 Co0 2.096 . S
O27 C8 1.247 1_455 S
C28 O25 1.244 . S
C28 O26 1.240 . S
H29 C3 0.931 . S
H30 C12 0.931 . S
H31 C16 0.929 . S
H32 C18 0.930 . S
Co33 N37 2.148 . S
Co33 N43 2.128 . S
Co33 N53 2.194 . S
Co33 O58 2.351 . S
Co33 O59 2.155 . S
Co33 O60 2.096 . S
C34 N37 1.301 . S
C34 N38 1.328 1_545 S
C34 H39 0.930 . S
C35 C36 1.333 . S
C35 N37 1.317 1_565 S
C35 H40 0.930 . S
C36 C35 1.333 . S
C36 N38 1.350 . S
C36 H62 0.931 . S
N37 Co33 2.148 . S
N37 C34 1.301 . S
N37 C35 1.317 1_545 S
N38 C34 1.328 1_565 S
N38 C36 1.350 . S
H39 C34 0.930 . S
H40 C35 0.930 . S
C41 O42 1.224 . S
C41 O60 1.247 1_565 S
O42 C41 1.224 . S
N43 Co33 2.128 . S
N43 C44 1.355 . S
N43 C46 1.311 . S
C44 N43 1.355 . S
C44 C45 1.363 . S
C44 H56 0.929 . S
C45 C44 1.363 . S
C45 N47 1.375 . S
C45 H63 0.931 . S
C46 N43 1.311 . S
C46 N47 1.347 . S
C46 H57 0.929 . S
N47 C45 1.375 . S
N47 C46 1.347 . S
C48 C51 1.365 . S
C48 N53 1.328 . S
C48 H54 0.929 . S
C49 C50 1.362 . S
C49 C52 1.378 . S
C49 H64 0.929 . S
C50 C49 1.362 . S
C50 C51 1.366 . S
C51 C48 1.365 . S
C51 C50 1.366 . S
C51 H65 0.930 . S
C52 C49 1.378 . S
C52 N53 1.315 . S
C52 H55 0.930 . S
N53 Co33 2.194 . S
N53 C48 1.328 . S
N53 C52 1.315 . S
H54 C48 0.929 . S
H55 C52 0.930 . S
H56 C44 0.929 . S
H57 C46 0.929 . S
O58 Co33 2.351 . S
O58 C61 1.244 . S
O59 Co33 2.155 . S
O59 C61 1.240 . S
O60 Co33 2.096 . S
O60 C41 1.247 1_545 S
C61 O58 1.244 . S
C61 O59 1.240 . S
H62 C36 0.931 . S
H63 C45 0.931 . S
H64 C49 0.929 . S
H65 C51 0.930 . S
Co66 N70 2.148 . S
Co66 N76 2.128 . S
Co66 N86 2.194 . S
Co66 O91 2.351 . S
Co66 O92 2.155 . S
Co66 O93 2.096 . S
C67 N70 1.301 . S
C67 N71 1.328 1_655 S
C67 H72 0.930 . S
C68 C69 1.333 . S
C68 N70 1.317 1_455 S
C68 H73 0.930 . S
C69 C68 1.333 . S
C69 N71 1.350 . S
C69 H95 0.931 . S
N70 Co66 2.148 . S
N70 C67 1.301 . S
N70 C68 1.317 1_655 S
N71 C67 1.328 1_455 S
N71 C69 1.350 . S
H72 C67 0.930 . S
H73 C68 0.930 . S
C74 O75 1.224 . S
C74 O93 1.247 1_455 S
O75 C74 1.224 . S
N76 Co66 2.128 . S
N76 C77 1.355 . S
N76 C79 1.311 . S
C77 N76 1.355 . S
C77 C78 1.363 . S
C77 H89 0.929 . S
C78 C77 1.363 . S
C78 N80 1.375 . S
C78 H96 0.931 . S
C79 N76 1.311 . S
C79 N80 1.347 . S
C79 H90 0.929 . S
N80 C78 1.375 . S
N80 C79 1.347 . S
C81 C84 1.365 . S
C81 N86 1.328 . S
C81 H87 0.929 . S
C82 C83 1.362 . S
C82 C85 1.378 . S
C82 H97 0.929 . S
C83 C82 1.362 . S
C83 C84 1.366 . S
C84 C81 1.365 . S
C84 C83 1.366 . S
C84 H98 0.930 . S
C85 C82 1.378 . S
C85 N86 1.315 . S
C85 H88 0.930 . S
N86 Co66 2.194 . S
N86 C81 1.328 . S
N86 C85 1.315 . S
H87 C81 0.929 . S
H88 C85 0.930 . S
H89 C77 0.929 . S
H90 C79 0.929 . S
O91 Co66 2.351 . S
O91 C94 1.244 . S
O92 Co66 2.155 . S
O92 C94 1.240 . S
O93 Co66 2.096 . S
O93 C74 1.247 1_655 S
C94 O91 1.244 . S
C94 O92 1.240 . S
H95 C69 0.931 . S
H96 C78 0.931 . S
H97 C82 0.929 . S
H98 C84 0.930 . S
Co99 N103 2.148 . S
Co99 N109 2.128 1_556 S
Co99 N119 2.194 . S
Co99 O124 2.351 . S
Co99 O125 2.155 . S
Co99 O126 2.096 . S
C100 N103 1.301 . S
C100 N104 1.328 1_565 S
C100 H105 0.930 . S
C101 C102 1.333 . S
C101 N103 1.317 1_545 S
C101 H106 0.930 . S
C102 C101 1.333 . S
C102 N104 1.350 . S
C102 H128 0.931 . S
N103 Co99 2.148 . S
N103 C100 1.301 . S
N103 C101 1.317 1_565 S
N104 C100 1.328 1_545 S
N104 C102 1.350 . S
H105 C100 0.930 . S
H106 C101 0.930 . S
C107 O108 1.224 . S
C107 O126 1.247 1_544 S
O108 C107 1.224 . S
N109 Co99 2.128 1_554 S
N109 C110 1.355 . S
N109 C112 1.311 . S
C110 N109 1.355 . S
C110 C111 1.363 . S
C110 H122 0.929 1_554 S
C111 C110 1.363 . S
C111 N113 1.375 . S
C111 H129 0.931 . S
C112 N109 1.311 . S
C112 N113 1.347 . S
C112 H123 0.929 . S
N113 C111 1.375 . S
N113 C112 1.347 . S
C114 C117 1.365 . S
C114 N119 1.328 . S
C114 H120 0.929 . S
C115 C116 1.362 . S
C115 C118 1.378 . S
C115 H130 0.929 1_556 S
C116 C115 1.362 . S
C116 C117 1.366 . S
C117 C114 1.365 . S
C117 C116 1.366 . S
C117 H131 0.930 . S
C118 C115 1.378 . S
C118 N119 1.315 . S
C118 H121 0.930 . S
N119 Co99 2.194 . S
N119 C114 1.328 . S
N119 C118 1.315 . S
H120 C114 0.929 . S
H121 C118 0.930 . S
H122 C110 0.929 1_556 S
H123 C112 0.929 . S
O124 Co99 2.351 . S
O124 C127 1.244 . S
O125 Co99 2.155 . S
O125 C127 1.240 . S
O126 Co99 2.096 . S
O126 C107 1.247 1_566 S
C127 O124 1.244 . S
C127 O125 1.240 . S
H128 C102 0.931 . S
H129 C111 0.931 . S
H130 C115 0.929 1_554 S
H131 C117 0.930 . S
Co132 N136 2.148 . S
Co132 N142 2.128 . S
Co132 N152 2.194 . S
Co132 O157 2.351 . S
Co132 O158 2.155 . S
Co132 O159 2.096 . S
C133 N136 1.301 . S
C133 N137 1.328 1_455 S
C133 H138 0.930 . S
C134 C135 1.333 . S
C134 N136 1.317 1_655 S
C134 H139 0.930 . S
C135 C134 1.333 . S
C135 N137 1.350 . S
C135 H161 0.931 . S
N136 Co132 2.148 . S
N136 C133 1.301 . S
N136 C134 1.317 1_455 S
N137 C133 1.328 1_655 S
N137 C135 1.350 . S
H138 C133 0.930 . S
H139 C134 0.930 . S
C140 O141 1.224 . S
C140 O159 1.247 1_655 S
O141 C140 1.224 . S
N142 Co132 2.128 . S
N142 C143 1.355 . S
N142 C145 1.311 . S
C143 N142 1.355 . S
C143 C144 1.363 . S
C143 H155 0.929 . S
C144 C143 1.363 . S
C144 N146 1.375 . S
C144 H162 0.931 . S
C145 N142 1.311 . S
C145 N146 1.347 . S
C145 H156 0.929 . S
N146 C144 1.375 . S
N146 C145 1.347 . S
C147 C150 1.365 . S
C147 N152 1.328 . S
C147 H153 0.929 . S
C148 C149 1.362 . S
C148 C151 1.378 . S
C148 H163 0.929 . S
C149 C148 1.362 . S
C149 C150 1.366 . S
C150 C147 1.365 . S
C150 C149 1.366 . S
C150 H164 0.930 . S
C151 C148 1.378 . S
C151 N152 1.315 . S
C151 H154 0.930 . S
N152 Co132 2.194 . S
N152 C147 1.328 . S
N152 C151 1.315 . S
H153 C147 0.929 . S
H154 C151 0.930 . S
H155 C143 0.929 . S
H156 C145 0.929 . S
O157 Co132 2.351 . S
O157 C160 1.244 . S
O158 Co132 2.155 . S
O158 C160 1.240 . S
O159 Co132 2.096 . S
O159 C140 1.247 1_455 S
C160 O157 1.244 . S
C160 O158 1.240 . S
H161 C135 0.931 . S
H162 C144 0.931 . S
H163 C148 0.929 . S
H164 C150 0.930 . S
Co165 N169 2.148 . S
Co165 N175 2.128 . S
Co165 N185 2.194 . S
Co165 O190 2.351 . S
Co165 O191 2.155 . S
Co165 O192 2.096 . S
C166 N169 1.301 . S
C166 N170 1.328 1_545 S
C166 H171 0.930 . S
C167 C168 1.333 . S
C167 N169 1.317 1_565 S
C167 H172 0.930 . S
C168 C167 1.333 . S
C168 N170 1.350 . S
C168 H194 0.931 . S
N169 Co165 2.148 . S
N169 C166 1.301 . S
N169 C167 1.317 1_545 S
N170 C166 1.328 1_565 S
N170 C168 1.350 . S
H171 C166 0.930 . S
H172 C167 0.930 . S
C173 O174 1.224 . S
C173 O192 1.247 1_565 S
O174 C173 1.224 . S
N175 Co165 2.128 . S
N175 C176 1.355 . S
N175 C178 1.311 . S
C176 N175 1.355 . S
C176 C177 1.363 . S
C176 H188 0.929 . S
C177 C176 1.363 . S
C177 N179 1.375 . S
C177 H195 0.931 . S
C178 N175 1.311 . S
C178 N179 1.347 . S
C178 H189 0.929 . S
N179 C177 1.375 . S
N179 C178 1.347 . S
C180 C183 1.365 . S
C180 N185 1.328 . S
C180 H186 0.929 . S
C181 C182 1.362 . S
C181 C184 1.378 . S
C181 H196 0.929 . S
C182 C181 1.362 . S
C182 C183 1.366 . S
C183 C180 1.365 . S
C183 C182 1.366 . S
C183 H197 0.930 . S
C184 C181 1.378 . S
C184 N185 1.315 . S
C184 H187 0.930 . S
N185 Co165 2.194 . S
N185 C180 1.328 . S
N185 C184 1.315 . S
H186 C180 0.929 . S
H187 C184 0.930 . S
H188 C176 0.929 . S
H189 C178 0.929 . S
O190 Co165 2.351 . S
O190 C193 1.244 . S
O191 Co165 2.155 . S
O191 C193 1.240 . S
O192 Co165 2.096 . S
O192 C173 1.247 1_545 S
C193 O190 1.244 . S
C193 O191 1.240 . S
H194 C168 0.931 . S
H195 C177 0.931 . S
H196 C181 0.929 . S
H197 C183 0.930 . S
Co198 N202 2.148 . S
Co198 N208 2.128 . S
Co198 N218 2.194 . S
Co198 O223 2.351 . S
Co198 O224 2.155 . S
Co198 O225 2.096 . S
C199 N202 1.301 . S
C199 N203 1.328 1_655 S
C199 H204 0.930 . S
C200 C201 1.333 . S
C200 N202 1.317 1_455 S
C200 H205 0.930 . S
C201 C200 1.333 . S
C201 N203 1.350 . S
C201 H227 0.931 . S
N202 Co198 2.148 . S
N202 C199 1.301 . S
N202 C200 1.317 1_655 S
N203 C199 1.328 1_455 S
N203 C201 1.350 . S
H204 C199 0.930 . S
H205 C200 0.930 . S
C206 O207 1.224 . S
C206 O225 1.247 1_455 S
O207 C206 1.224 . S
N208 Co198 2.128 . S
N208 C209 1.355 . S
N208 C211 1.311 . S
C209 N208 1.355 . S
C209 C210 1.363 . S
C209 H221 0.929 . S
C210 C209 1.363 . S
C210 N212 1.375 . S
C210 H228 0.931 . S
C211 N208 1.311 . S
C211 N212 1.347 . S
C211 H222 0.929 . S
N212 C210 1.375 . S
N212 C211 1.347 . S
C213 C216 1.365 . S
C213 N218 1.328 . S
C213 H219 0.929 . S
C214 C215 1.362 . S
C214 C217 1.378 . S
C214 H229 0.929 . S
C215 C214 1.362 . S
C215 C216 1.366 . S
C216 C213 1.365 . S
C216 C215 1.366 . S
C216 H230 0.930 . S
C217 C214 1.378 . S
C217 N218 1.315 . S
C217 H220 0.930 . S
N218 Co198 2.194 . S
N218 C213 1.328 . S
N218 C217 1.315 . S
H219 C213 0.929 . S
H220 C217 0.930 . S
H221 C209 0.929 . S
H222 C211 0.929 . S
O223 Co198 2.351 . S
O223 C226 1.244 . S
O224 Co198 2.155 . S
O224 C226 1.240 . S
O225 Co198 2.096 . S
O225 C206 1.247 1_655 S
C226 O223 1.244 . S
C226 O224 1.240 . S
H227 C201 0.931 . S
H228 C210 0.931 . S
H229 C214 0.929 . S
H230 C216 0.930 . S
Co231 N235 2.148 . S
Co231 N241 2.128 1_554 S
Co231 N251 2.194 . S
Co231 O256 2.351 . S
Co231 O257 2.155 . S
Co231 O258 2.096 . S
C232 N235 1.301 . S
C232 N236 1.328 1_565 S
C232 H237 0.930 . S
C233 C234 1.333 . S
C233 N235 1.317 1_545 S
C233 H238 0.930 . S
C234 C233 1.333 . S
C234 N236 1.350 . S
C234 H260 0.931 . S
N235 Co231 2.148 . S
N235 C232 1.301 . S
N235 C233 1.317 1_565 S
N236 C232 1.328 1_545 S
N236 C234 1.350 . S
H237 C232 0.930 . S
H238 C233 0.930 . S
C239 O240 1.224 . S
C239 O258 1.247 1_546 S
O240 C239 1.224 . S
N241 Co231 2.128 1_556 S
N241 C242 1.355 . S
N241 C244 1.311 . S
C242 N241 1.355 . S
C242 C243 1.363 . S
C242 H254 0.929 1_556 S
C243 C242 1.363 . S
C243 N245 1.375 . S
C243 H261 0.931 . S
C244 N241 1.311 . S
C244 N245 1.347 . S
C244 H255 0.929 . S
N245 C243 1.375 . S
N245 C244 1.347 . S
C246 C249 1.365 . S
C246 N251 1.328 . S
C246 H252 0.929 . S
C247 C248 1.362 . S
C247 C250 1.378 . S
C247 H262 0.929 1_554 S
C248 C247 1.362 . S
C248 C249 1.366 . S
C249 C246 1.365 . S
C249 C248 1.366 . S
C249 H263 0.930 . S
C250 C247 1.378 . S
C250 N251 1.315 . S
C250 H253 0.930 . S
N251 Co231 2.194 . S
N251 C246 1.328 . S
N251 C250 1.315 . S
H252 C246 0.929 . S
H253 C250 0.930 . S
H254 C242 0.929 1_554 S
H255 C244 0.929 . S
O256 Co231 2.351 . S
O256 C259 1.244 . S
O257 Co231 2.155 . S
O257 C259 1.240 . S
O258 Co231 2.096 . S
O258 C239 1.247 1_564 S
C259 O256 1.244 . S
C259 O257 1.240 . S
H260 C234 0.931 . S
H261 C243 0.931 . S
H262 C247 0.929 1_556 S
H263 C249 0.930 . S
C264 C265 1.369 . S
C264 C266 1.419 . S
C264 H268 0.930 . S
C265 C264 1.369 . S
C265 C274 1.429 . S
C266 C264 1.419 . S
C266 C267 1.363 . S
C266 H269 0.929 . S
C267 C266 1.363 . S
C267 C273 1.428 . S
H268 C264 0.930 . S
H269 C266 0.929 . S
S270 N271 1.613 . S
S270 N272 1.610 . S
N271 S270 1.613 . S
N271 C274 1.350 . S
N272 S270 1.610 . S
N272 C273 1.351 . S
C273 C267 1.428 . S
C273 N272 1.351 . S
C273 C274 1.434 . S
C274 C265 1.429 . S
C274 N271 1.350 . S
C274 C273 1.434 . S
C275 C276 1.369 . S
C275 C277 1.419 . S
C275 H279 0.930 . S
C276 C275 1.369 . S
C276 C285 1.429 . S
C277 C275 1.419 . S
C277 C278 1.363 . S
C277 H280 0.929 . S
C278 C277 1.363 . S
C278 C284 1.428 . S
H279 C275 0.930 . S
H280 C277 0.929 . S
S281 N282 1.613 . S
S281 N283 1.610 . S
N282 S281 1.613 . S
N282 C285 1.350 . S
N283 S281 1.610 . S
N283 C284 1.351 . S
C284 C278 1.428 . S
C284 N283 1.351 . S
C284 C285 1.434 . S
C285 C276 1.429 . S
C285 N282 1.350 . S
C285 C284 1.434 . S
C286 C287 1.369 . S
C286 C288 1.419 . S
C286 H290 0.930 . S
C287 C286 1.369 . S
C287 C296 1.429 . S
C288 C286 1.419 . S
C288 C289 1.363 . S
C288 H291 0.929 . S
C289 C288 1.363 . S
C289 C295 1.428 . S
H290 C286 0.930 . S
H291 C288 0.929 . S
S292 N293 1.613 . S
S292 N294 1.610 . S
N293 S292 1.613 . S
N293 C296 1.350 . S
N294 S292 1.610 . S
N294 C295 1.351 . S
C295 C289 1.428 . S
C295 N294 1.351 . S
C295 C296 1.434 . S
C296 C287 1.429 . S
C296 N293 1.350 . S
C296 C295 1.434 . S
C297 C298 1.369 1_554 S
C297 C299 1.419 . S
C297 H301 0.930 . S
C298 C297 1.369 1_556 S
C298 C307 1.429 . S
C299 C297 1.419 . S
C299 C300 1.363 . S
C299 H302 0.929 . S
C300 C299 1.363 . S
C300 C306 1.428 1_554 S
H301 C297 0.930 . S
H302 C299 0.929 . S
S303 N304 1.613 . S
S303 N305 1.610 . S
N304 S303 1.613 . S
N304 C307 1.350 . S
N305 S303 1.610 . S
N305 C306 1.351 . S
C306 C300 1.428 1_556 S
C306 N305 1.351 . S
C306 C307 1.434 . S
C307 C298 1.429 . S
C307 N304 1.350 . S
C307 C306 1.434 . S
C308 C309 1.369 . S
C308 C310 1.419 . S
C308 H312 0.930 . S
C309 C308 1.369 . S
C309 C318 1.429 . S
C310 C308 1.419 . S
C310 C311 1.363 . S
C310 H313 0.929 . S
C311 C310 1.363 . S
C311 C317 1.428 . S
H312 C308 0.930 . S
H313 C310 0.929 . S
S314 N315 1.613 . S
S314 N316 1.610 . S
N315 S314 1.613 . S
N315 C318 1.350 . S
N316 S314 1.610 . S
N316 C317 1.351 . S
C317 C311 1.428 . S
C317 N316 1.351 . S
C317 C318 1.434 . S
C318 C309 1.429 . S
C318 N315 1.350 . S
C318 C317 1.434 . S
C319 C320 1.369 . S
C319 C321 1.419 . S
C319 H323 0.930 . S
C320 C319 1.369 . S
C320 C329 1.429 . S
C321 C319 1.419 . S
C321 C322 1.363 . S
C321 H324 0.929 . S
C322 C321 1.363 . S
C322 C328 1.428 . S
H323 C319 0.930 . S
H324 C321 0.929 . S
S325 N326 1.613 . S
S325 N327 1.610 . S
N326 S325 1.613 . S
N326 C329 1.350 . S
N327 S325 1.610 . S
N327 C328 1.351 . S
C328 C322 1.428 . S
C328 N327 1.351 . S
C328 C329 1.434 . S
C329 C320 1.429 . S
C329 N326 1.350 . S
C329 C328 1.434 . S
C330 C331 1.369 . S
C330 C332 1.419 . S
C330 H334 0.930 . S
C331 C330 1.369 . S
C331 C340 1.429 . S
C332 C330 1.419 . S
C332 C333 1.363 . S
C332 H335 0.929 . S
C333 C332 1.363 . S
C333 C339 1.428 . S
H334 C330 0.930 . S
H335 C332 0.929 . S
S336 N337 1.613 . S
S336 N338 1.610 . S
N337 S336 1.613 . S
N337 C340 1.350 . S
N338 S336 1.610 . S
N338 C339 1.351 . S
C339 C333 1.428 . S
C339 N338 1.351 . S
C339 C340 1.434 . S
C340 C331 1.429 . S
C340 N337 1.350 . S
C340 C339 1.434 . S
C341 C342 1.369 . S
C341 C343 1.419 . S
C341 H345 0.930 . S
C342 C341 1.369 . S
C342 C351 1.429 . S
C343 C341 1.419 . S
C343 C344 1.363 . S
C343 H346 0.929 . S
C344 C343 1.363 . S
C344 C350 1.428 . S
H345 C341 0.930 . S
H346 C343 0.929 . S
S347 N348 1.613 . S
S347 N349 1.610 . S
N348 S347 1.613 . S
N348 C351 1.350 . S
N349 S347 1.610 . S
N349 C350 1.351 . S
C350 C344 1.428 . S
C350 N349 1.351 . S
C350 C351 1.434 . S
C351 C342 1.429 . S
C351 N348 1.350 . S
C351 C350 1.434 . S
C352 C353 1.369 1_455 S
C352 C354 1.419 1_554 S
C352 H356 0.930 . S
C353 C352 1.369 1_655 S
C353 C362 1.429 . S
C354 C352 1.419 1_556 S
C354 C355 1.363 . S
C354 H357 0.929 . S
C355 C354 1.363 . S
C355 C361 1.428 1_455 S
H356 C352 0.930 . S
H357 C354 0.929 . S
S358 N359 1.613 1_556 S
S358 N360 1.610 . S
N359 S358 1.613 1_554 S
N359 C362 1.350 . S
N360 S358 1.610 . S
N360 C361 1.351 . S
C361 C355 1.428 1_655 S
C361 N360 1.351 . S
C361 C362 1.434 1_556 S
C362 C353 1.429 . S
C362 N359 1.350 . S
C362 C361 1.434 1_554 S
C363 C364 1.369 . S
C363 C365 1.419 . S
C363 H367 0.930 . S
C364 C363 1.369 . S
C364 C373 1.429 1_545 S
C365 C363 1.419 . S
C365 C366 1.363 1_545 S
C365 H368 0.929 . S
C366 C365 1.363 1_565 S
C366 C372 1.428 . S
H367 C363 0.930 . S
H368 C365 0.929 . S
S369 N370 1.613 . S
S369 N371 1.610 . S
N370 S369 1.613 . S
N370 C373 1.350 . S
N371 S369 1.610 . S
N371 C372 1.351 . S
C372 C366 1.428 . S
C372 N371 1.351 . S
C372 C373 1.434 . S
C373 C364 1.429 1_565 S
C373 N370 1.350 . S
C373 C372 1.434 . S
C374 C375 1.369 1_655 S
C374 C376 1.419 . S
C374 H378 0.930 . S
C375 C374 1.369 1_455 S
C375 C384 1.429 . S
C376 C374 1.419 . S
C376 C377 1.363 . S
C376 H379 0.929 . S
C377 C376 1.363 . S
C377 C383 1.428 1_655 S
H378 C374 0.930 . S
H379 C376 0.929 . S
S380 N381 1.613 . S
S380 N382 1.610 . S
N381 S380 1.613 . S
N381 C384 1.350 . S
N382 S380 1.610 . S
N382 C383 1.351 . S
C383 C377 1.428 1_455 S
C383 N382 1.351 . S
C383 C384 1.434 . S
C384 C375 1.429 . S
C384 N381 1.350 . S
C384 C383 1.434 . S
C385 C386 1.369 1_545 S
C385 C387 1.419 . S
C385 H389 0.930 . S
C386 C385 1.369 1_565 S
C386 C395 1.429 . S
C387 C385 1.419 . S
C387 C388 1.363 . S
C387 H390 0.929 . S
C388 C387 1.363 . S
C388 C394 1.428 1_545 S
H389 C385 0.930 . S
H390 C387 0.929 . S
S391 N392 1.613 . S
S391 N393 1.610 . S
N392 S391 1.613 . S
N392 C395 1.350 . S
N393 S391 1.610 . S
N393 C394 1.351 . S
C394 C388 1.428 1_565 S
C394 N393 1.351 . S
C394 C395 1.434 . S
C395 C386 1.429 . S
C395 N392 1.350 . S
C395 C394 1.434 . S
C396 C397 1.369 . S
C396 C398 1.419 . S
C396 H400 0.930 . S
C397 C396 1.369 . S
C397 C406 1.429 . S
C398 C396 1.419 . S
C398 C399 1.363 . S
C398 H401 0.929 . S
C399 C398 1.363 . S
C399 C405 1.428 . S
H400 C396 0.930 . S
H401 C398 0.929 . S
S402 N403 1.613 . S
S402 N404 1.610 . S
N403 S402 1.613 . S
N403 C406 1.350 . S
N404 S402 1.610 . S
N404 C405 1.351 . S
C405 C399 1.428 . S
C405 N404 1.351 . S
C405 C406 1.434 . S
C406 C397 1.429 . S
C406 N403 1.350 . S
C406 C405 1.434 . S
C407 C408 1.369 . S
C407 C409 1.419 . S
C407 H411 0.930 . S
C408 C407 1.369 . S
C408 C417 1.429 . S
C409 C407 1.419 . S
C409 C410 1.363 . S
C409 H412 0.929 . S
C410 C409 1.363 . S
C410 C416 1.428 . S
H411 C407 0.930 . S
H412 C409 0.929 . S
S413 N414 1.613 . S
S413 N415 1.610 . S
N414 S413 1.613 . S
N414 C417 1.350 . S
N415 S413 1.610 . S
N415 C416 1.351 . S
C416 C410 1.428 . S
C416 N415 1.351 . S
C416 C417 1.434 . S
C417 C408 1.429 . S
C417 N414 1.350 . S
C417 C416 1.434 . S
C418 C419 1.369 . S
C418 C420 1.419 . S
C418 H422 0.930 . S
C419 C418 1.369 . S
C419 C428 1.429 . S
C420 C418 1.419 . S
C420 C421 1.363 . S
C420 H423 0.929 . S
C421 C420 1.363 . S
C421 C427 1.428 . S
H422 C418 0.930 . S
H423 C420 0.929 . S
S424 N425 1.613 . S
S424 N426 1.610 . S
N425 S424 1.613 . S
N425 C428 1.350 . S
N426 S424 1.610 . S
N426 C427 1.351 . S
C427 C421 1.428 . S
C427 N426 1.351 . S
C427 C428 1.434 . S
C428 C419 1.429 . S
C428 N425 1.350 . S
C428 C427 1.434 . S
C429 C430 1.369 . S
C429 C431 1.419 . S
C429 H433 0.930 . S
C430 C429 1.369 . S
C430 C439 1.429 . S
C431 C429 1.419 . S
C431 C432 1.363 . S
C431 H434 0.929 . S
C432 C431 1.363 . S
C432 C438 1.428 . S
H433 C429 0.930 . S
H434 C431 0.929 . S
S435 N436 1.613 . S
S435 N437 1.610 . S
N436 S435 1.613 . S
N436 C439 1.350 . S
N437 S435 1.610 . S
N437 C438 1.351 . S
C438 C432 1.428 . S
C438 N437 1.351 . S
C438 C439 1.434 . S
C439 C430 1.429 . S
C439 N436 1.350 . S
C439 C438 1.434 . S
C440 C441 1.369 . S
C440 C442 1.419 . S
C440 H444 0.930 . S
C441 C440 1.369 . S
C441 C450 1.429 . S
C442 C440 1.419 . S
C442 C443 1.363 . S
C442 H445 0.929 . S
C443 C442 1.363 . S
C443 C449 1.428 . S
H444 C440 0.930 . S
H445 C442 0.929 . S
S446 N447 1.613 . S
S446 N448 1.610 . S
N447 S446 1.613 . S
N447 C450 1.350 . S
N448 S446 1.610 . S
N448 C449 1.351 . S
C449 C443 1.428 . S
C449 N448 1.351 . S
C449 C450 1.434 . S
C450 C441 1.429 . S
C450 N447 1.350 . S
C450 C449 1.434 . S
C451 C452 1.369 . S
C451 C453 1.419 . S
C451 H455 0.930 . S
C452 C451 1.369 . S
C452 C461 1.429 . S
C453 C451 1.419 . S
C453 C454 1.363 . S
C453 H456 0.929 . S
C454 C453 1.363 . S
C454 C460 1.428 . S
H455 C451 0.930 . S
H456 C453 0.929 . S
S457 N458 1.613 . S
S457 N459 1.610 . S
N458 S457 1.613 . S
N458 C461 1.350 . S
N459 S457 1.610 . S
N459 C460 1.351 . S
C460 C454 1.428 . S
C460 N459 1.351 . S
C460 C461 1.434 . S
C461 C452 1.429 . S
C461 N458 1.350 . S
C461 C460 1.434 . S
C462 C463 1.369 . S
C462 C464 1.419 . S
C462 H466 0.930 . S
C463 C462 1.369 . S
C463 C472 1.429 . S
C464 C462 1.419 . S
C464 C465 1.363 . S
C464 H467 0.929 . S
C465 C464 1.363 . S
C465 C471 1.428 . S
H466 C462 0.930 . S
H467 C464 0.929 . S
S468 N469 1.613 . S
S468 N470 1.610 . S
N469 S468 1.613 . S
N469 C472 1.350 . S
N470 S468 1.610 . S
N470 C471 1.351 . S
C471 C465 1.428 . S
C471 N470 1.351 . S
C471 C472 1.434 . S
C472 C463 1.429 . S
C472 N469 1.350 . S
C472 C471 1.434 . S
C473 C474 1.369 . S
C473 C475 1.419 . S
C473 H477 0.930 . S
C474 C473 1.369 . S
C474 C483 1.429 . S
C475 C473 1.419 . S
C475 C476 1.363 . S
C475 H478 0.929 . S
C476 C475 1.363 . S
C476 C482 1.428 . S
H477 C473 0.930 . S
H478 C475 0.929 . S
S479 N480 1.613 . S
S479 N481 1.610 . S
N480 S479 1.613 . S
N480 C483 1.350 . S
N481 S479 1.610 . S
N481 C482 1.351 . S
C482 C476 1.428 . S
C482 N481 1.351 . S
C482 C483 1.434 . S
C483 C474 1.429 . S
C483 N480 1.350 . S
C483 C482 1.434 . S
C265 C149 1.488 . S
C267 C17 1.490 . S
C276 C50 1.485 . S
C278 C182 1.488 . S
C287 C83 1.490 . S
C289 C215 1.488 . S
C298 C116 1.490 . S
C300 C248 1.488 . S
C309 N179 0.842 . S
C311 N14 0.850 . S
C320 N47 0.844 . S
C322 N212 0.840 . S
C331 N245 0.838 . S
C333 N80 0.850 . S
C342 N113 0.849 . S
C344 N146 0.838 . S
C353 N5 1.328 . S
C355 N203 1.327 . S
C364 N236 1.326 . S
C366 N38 1.332 . S
C375 N71 1.326 . S
C377 N137 1.328 . S
C386 N170 1.333 . S
C388 N104 1.327 . S
C397 C28 1.948 . S
C399 C107 1.953 . S
C408 C8 1.955 . S
C410 C61 1.945 . S
C419 C41 1.953 . S
C421 C94 1.948 . S
C430 C74 1.956 . S
C432 C127 1.948 . S
C441 C160 1.948 . S
C443 C173 1.956 . S
C452 C193 1.947 . S
C454 C206 1.956 . S
C463 C226 1.949 . S
C465 C239 1.955 . S
C474 C140 1.956 . S
C476 C259 1.945 . S
