# Generated by pormake.
# Topology fna, (5)-cn, num edge types: 1
# Building blocks:
#     Node 0, Type 0, BuildingBlock: BEQFEK_clean_sbu_0, # of connection points: 5
#     Node 1, Type 0, BuildingBlock: BEQFEK_clean_sbu_0, # of connection points: 5
#     Node 2, Type 0, BuildingBlock: BEQFEK_clean_sbu_0, # of connection points: 5
#     Node 3, Type 0, BuildingBlock: BEQFEK_clean_sbu_0, # of connection points: 5
#     Node 4, Type 0, BuildingBlock: BEQFEK_clean_sbu_0, # of connection points: 5
#     Node 5, Type 0, BuildingBlock: BEQFEK_clean_sbu_0, # of connection points: 5
#     Node 6, Type 0, BuildingBlock: BEQFEK_clean_sbu_0, # of connection points: 5
#     Node 7, Type 0, BuildingBlock: BEQFEK_clean_sbu_0, # of connection points: 5
#     Node 8, Type 0, BuildingBlock: BEQFEK_clean_sbu_0, # of connection points: 5
#     Node 9, Type 0, BuildingBlock: BEQFEK_clean_sbu_0, # of connection points: 5
#     Node 10, Type 0, BuildingBlock: BEQFEK_clean_sbu_0, # of connection points: 5
#     Node 11, Type 0, BuildingBlock: BEQFEK_clean_sbu_0, # of connection points: 5
#     Edge 12, Type (0, 0), None
#     Edge 13, Type (0, 0), None
#     Edge 14, Type (0, 0), None
#     Edge 15, Type (0, 0), None
#     Edge 16, Type (0, 0), None
#     Edge 17, Type (0, 0), None
#     Edge 18, Type (0, 0), None
#     Edge 19, Type (0, 0), None
#     Edge 20, Type (0, 0), None
#     Edge 21, Type (0, 0), None
#     Edge 22, Type (0, 0), None
#     Edge 23, Type (0, 0), None
#     Edge 24, Type (0, 0), None
#     Edge 25, Type (0, 0), None
#     Edge 26, Type (0, 0), None
#     Edge 27, Type (0, 0), None
#     Edge 28, Type (0, 0), None
#     Edge 29, Type (0, 0), None
#     Edge 30, Type (0, 0), None
#     Edge 31, Type (0, 0), None
#     Edge 32, Type (0, 0), None
#     Edge 33, Type (0, 0), None
#     Edge 34, Type (0, 0), None
#     Edge 35, Type (0, 0), None
#     Edge 36, Type (0, 0), None
#     Edge 37, Type (0, 0), None
#     Edge 38, Type (0, 0), None
#     Edge 39, Type (0, 0), None
#     Edge 40, Type (0, 0), None
#     Edge 41, Type (0, 0), None
# Relax obj value: 0.706
# Max RMSD: 0.283
# Mean RMSD: 0.283
data_MOF--net-fna--node1-BEQFEK_clean_sbu_0--edge1-none
_symmetry_space_group_name_H-M    P1
_symmetry_Int_Tables_number       1
_symmetry_cell_setting            triclinic
loop_
_symmetry_equiv_pos_as_xyz
'x, y, z'
_cell_length_a     21.878525
_cell_length_b     21.879286
_cell_length_c     23.550331
_cell_angle_alpha  89.999965
_cell_angle_beta   89.999544
_cell_angle_gamma 120.00094
loop_
_atom_site_label
_atom_site_type_symbol
_atom_site_fract_x
_atom_site_fract_y
_atom_site_fract_z
_atom_type_partial_charge
Co0 Co 0.41896 0.42021 0.48509 0.0
Co1 Co 0.36916 0.32559 0.37584 0.0
C2 C 0.49786 0.4757 0.38196 0.0
O3 O 0.49173 0.48408 0.43435 0.0
O4 O 0.45413 0.41954 0.35559 0.0
C5 C 0.50201 0.50176 0.58566 0.0
O6 O 0.55816 0.54213 0.55509 0.0
C7 C 0.39556 0.2289 0.30823 0.0
C8 C 0.29953 0.17248 0.25612 0.0
C9 C 0.36102 0.17261 0.27086 0.0
N10 N 0.35553 0.25904 0.31647 0.0
N11 N 0.2989 0.22604 0.28403 0.0
C12 C 0.46478 0.2525 0.33711 0.0
H13 H 0.48205 0.30232 0.36085 0.0
H14 H 0.46036 0.2112 0.36673 0.0
H15 H 0.50516 0.26042 0.30492 0.0
C16 C 0.42151 0.29729 0.52995 0.0
N17 N 0.4143 0.33258 0.4862 0.0
N18 N 0.38289 0.28865 0.44399 0.0
C19 C 0.36459 0.22288 0.46126 0.0
C20 C 0.38892 0.22704 0.51612 0.0
C21 C 0.46231 0.33002 0.58284 0.0
H22 H 0.50781 0.38281 0.57345 0.0
H23 H 0.48261 0.29712 0.6016 0.0
H24 H 0.4266 0.33393 0.614 0.0
O25 O 0.32173 0.40424 0.46603 0.0
O26 O 0.2845 0.33495 0.38933 0.0
H27 H 0.28202 0.11411 0.46009 0.0
H28 H 0.34737 0.13774 0.40606 0.0
C29 C 0.3162 0.15646 0.42981 0.0
H30 H 0.28277 0.16568 0.39961 0.0
H31 H 0.25782 0.23727 0.2835 0.0
O32 O 0.44476 0.45614 0.56236 0.0
C33 C 0.27428 0.36896 0.4288 0.0
Co34 Co 1.01236 0.41492 0.65175 0.0
Co35 Co 0.05717 0.36511 0.5425 0.0
C36 C 0.03579 0.49383 0.54862 0.0
O37 O 0.02127 0.48769 0.60101 0.0
O38 O 0.04821 0.4501 0.52225 0.0
C39 C 1.01386 0.49796 0.75233 0.0
O40 O 0.02965 0.55411 0.72177 0.0
C41 C 0.18026 0.39144 0.47496 0.0
C42 C 0.14062 0.29542 0.42281 0.0
C43 C 0.202 0.35681 0.43767 0.0
N44 N 0.11008 0.35147 0.48314 0.0
N45 N 0.08643 0.29485 0.45067 0.0
C46 C 0.22591 0.46066 0.50383 0.0
H47 H 0.19337 0.47794 0.52757 0.0
H48 H 0.26278 0.45622 0.53344 0.0
H49 H 0.25836 0.50102 0.47163 0.0
C50 C 0.13784 0.41747 0.69661 0.0
N51 N 0.09533 0.41026 0.65286 0.0
N52 N 0.10783 0.37882 0.61065 0.0
C53 C 0.1553 0.36052 0.62793 0.0
C54 C 0.17547 0.38486 0.68278 0.0
C55 C 0.14593 0.45828 0.7495 0.0
H56 H 0.13863 0.50378 0.74011 0.0
H57 H 0.19912 0.47858 0.76825 0.0
H58 H 0.10632 0.42258 0.78066 0.0
O59 O 0.9311 0.31769 0.6327 0.0
O60 O 0.96314 0.28047 0.55598 0.0
H61 H 0.18138 0.27787 0.62679 0.0
H62 H 0.22322 0.34323 0.57279 0.0
C63 C 0.17329 0.31209 0.5965 0.0
H64 H 0.13066 0.2787 0.56627 0.0
H65 H 0.03409 0.25383 0.45009 0.0
O66 O 1.00223 0.44072 0.72903 0.0
C67 C 0.91892 0.27024 0.59546 0.0
Co68 Co 0.61105 1.00829 0.81842 0.0
Co69 Co 0.70567 0.05311 0.70917 0.0
C70 C 0.55556 0.03171 0.71529 0.0
O71 O 0.54718 0.01719 0.76768 0.0
O72 O 0.61172 0.04414 0.68892 0.0
C73 C 0.5295 1.00978 0.919 0.0
O74 O 0.48912 0.02556 0.88843 0.0
C75 C 0.80243 0.17622 0.64163 0.0
C76 C 0.85882 0.13659 0.58947 0.0
C77 C 0.85879 0.19796 0.60434 0.0
N78 N 0.77222 0.10603 0.64981 0.0
N79 N 0.8052 0.08239 0.61733 0.0
C80 C 0.77885 0.22185 0.67051 0.0
H81 H 0.72903 0.18931 0.69425 0.0
H82 H 0.82016 0.25874 0.70011 0.0
H83 H 0.77092 0.25429 0.63831 0.0
C84 C 0.73397 0.13378 0.86328 0.0
N85 N 0.69868 0.09127 0.81953 0.0
N86 N 0.74262 0.10377 0.77732 0.0
C87 C 0.80838 0.15125 0.7946 0.0
C88 C 0.80422 0.17142 0.84945 0.0
C89 C 0.70124 0.14186 0.91617 0.0
H90 H 0.64844 0.13456 0.90677 0.0
H91 H 0.73413 0.19505 0.93492 0.0
H92 H 0.69733 0.10225 0.94733 0.0
O93 O 0.62702 0.92704 0.79937 0.0
O94 O 0.6963 0.95909 0.72265 0.0
H95 H 0.91713 0.17735 0.79346 0.0
H96 H 0.89359 0.21917 0.73946 0.0
C97 C 0.87482 0.16925 0.76317 0.0
H98 H 0.86558 0.12662 0.73294 0.0
H99 H 0.79389 0.03007 0.61675 0.0
O100 O 0.57512 0.99816 0.8957 0.0
C101 C 0.6623 0.91487 0.76213 0.0
Co102 Co 0.61637 0.607 -0.01492 0.0
Co103 Co 0.66617 0.70162 0.87583 0.0
C104 C 0.53746 0.55152 0.88195 0.0
O105 O 0.54359 0.54313 0.93434 0.0
O106 O 0.58119 0.60767 0.85558 0.0
C107 C 0.53332 0.52544 0.08565 0.0
O108 O 0.47717 0.48507 0.05508 0.0
C109 C 0.63984 0.79838 0.8083 0.0
C110 C 0.73585 0.85476 0.75614 0.0
C111 C 0.67445 0.85474 0.77101 0.0
N112 N 0.67981 0.76817 0.81647 0.0
N113 N 0.73643 0.80115 0.784 0.0
C114 C 0.57061 0.7748 0.83717 0.0
H115 H 0.55334 0.72498 0.86091 0.0
H116 H 0.57505 0.81611 0.86679 0.0
H117 H 0.53025 0.76688 0.80498 0.0
C118 C 0.61381 0.72992 0.02995 0.0
N119 N 0.62103 0.69463 -0.01381 0.0
N120 N 0.65246 0.73857 0.94399 0.0
C121 C 0.67075 0.80433 -0.03873 0.0
C122 C 0.64641 0.80017 0.01612 0.0
C123 C 0.57298 0.69718 0.08283 0.0
H124 H 0.52749 0.64439 0.07343 0.0
H125 H 0.55267 0.73007 0.10157 0.0
H126 H 0.60868 0.69327 0.114 0.0
O127 O 0.71359 0.62297 -0.03397 0.0
O128 O 0.75083 0.69225 0.88931 0.0
H129 H 0.7534 0.91307 -0.03987 0.0
H130 H 0.68803 0.88954 0.90613 0.0
C131 C 0.71918 0.87076 0.92984 0.0
H132 H 0.75257 0.86153 0.8996 0.0
H133 H 0.77745 0.78984 0.78341 0.0
O134 O 0.59056 0.57107 0.06235 0.0
C135 C 0.76104 0.65824 0.92879 0.0
Co136 Co 0.023 0.61231 0.15175 0.0
Co137 Co 0.97817 0.6621 0.04249 0.0
C138 C 0.99957 0.5334 0.04862 0.0
O139 O 1.0141 0.53954 0.10101 0.0
O140 O 0.98714 0.57712 0.02225 0.0
C141 C 0.02152 0.52929 0.25233 0.0
O142 O 1.00576 0.47314 0.22177 0.0
C143 C 0.85506 0.63577 -0.02504 0.0
C144 C 0.8947 0.73178 0.92281 0.0
C145 C 0.83332 0.67039 0.93767 0.0
N146 N 0.92525 0.67574 -0.01686 0.0
N147 N 0.9489 0.73236 -0.04934 0.0
C148 C 0.80942 0.56655 0.00383 0.0
H149 H 0.84196 0.54927 0.02757 0.0
H150 H 0.77254 0.57098 0.03344 0.0
H151 H 0.77698 0.52618 -0.02837 0.0
C152 C 0.8975 0.60971 0.19661 0.0
N153 N 0.94001 0.61695 0.15286 0.0
N154 N 0.9275 0.64838 0.11065 0.0
C155 C 0.88002 0.66666 0.12794 0.0
C156 C 0.85985 0.64231 0.18278 0.0
C157 C 0.88942 0.5689 0.24949 0.0
H158 H 0.89674 0.52342 0.2401 0.0
H159 H 0.83622 0.54858 0.26824 0.0
H160 H 0.92902 0.6046 0.28066 0.0
O161 O 0.10424 0.70954 0.13269 0.0
O162 O 0.07219 0.74676 0.05598 0.0
H163 H 0.85393 0.7493 0.1268 0.0
H164 H 0.81209 0.68394 0.07281 0.0
C165 C 0.86201 0.71509 0.09651 0.0
H166 H 0.90464 0.74848 0.06627 0.0
H167 H 1.00123 0.77338 -0.04992 0.0
O168 O 0.03313 0.58652 0.22903 0.0
C169 C 0.11642 0.75699 0.09545 0.0
Co170 Co 0.42428 0.01897 0.31842 0.0
Co171 Co 0.32966 0.97413 0.20916 0.0
C172 C 0.47975 0.99549 0.21529 0.0
O173 O 0.48814 1.01003 0.26768 0.0
O174 O 0.4236 0.98306 0.18892 0.0
C175 C 0.50582 0.01745 0.41898 0.0
O176 O 0.54618 1.00166 0.38841 0.0
C177 C 0.2329 0.85102 0.14163 0.0
C178 C 0.17651 0.89064 0.08947 0.0
C179 C 0.17654 0.82927 0.10434 0.0
N180 N 0.2631 0.92121 0.1498 0.0
N181 N 0.23013 0.94484 0.11733 0.0
C182 C 0.25649 0.80539 0.17051 0.0
H183 H 0.30629 0.83794 0.19426 0.0
H184 H 0.21516 0.76849 0.2001 0.0
H185 H 0.26444 0.77297 0.13831 0.0
C186 C 0.30134 0.8935 0.36329 0.0
N187 N 0.33663 0.93601 0.31954 0.0
N188 N 0.2927 0.92349 0.27733 0.0
C189 C 0.22693 0.87601 0.2946 0.0
C190 C 0.23109 0.85585 0.34946 0.0
C191 C 0.33407 0.88542 0.41618 0.0
H192 H 0.38686 0.89272 0.40678 0.0
H193 H 0.30117 0.83223 0.43493 0.0
H194 H 0.33798 0.92504 0.44734 0.0
O195 O 0.40835 0.10025 0.29933 0.0
O196 O 0.33908 0.06817 0.22261 0.0
H197 H 0.11817 0.84988 0.29344 0.0
H198 H 0.14174 0.80807 0.23945 0.0
C199 C 0.1605 0.85799 0.26316 0.0
H200 H 0.16973 0.90061 0.23292 0.0
H201 H 0.24143 0.99717 0.11674 0.0
O202 O 0.46022 0.02909 0.39569 0.0
C203 C 0.3731 0.11242 0.26207 0.0
Co204 Co 0.61106 0.61232 0.24791 0.0
Co205 Co 0.70567 0.66212 0.35717 0.0
C206 C 0.55557 0.53342 0.35105 0.0
O207 O 0.54719 0.53955 0.29866 0.0
O208 O 0.61172 0.57714 0.37742 0.0
C209 C 0.52951 0.52925 0.14736 0.0
O210 O 0.48922 0.47308 0.17793 0.0
C211 C 0.80236 0.63572 0.42477 0.0
C212 C 0.85878 0.73174 0.47689 0.0
C213 C 0.85866 0.67025 0.46214 0.0
N214 N 0.77221 0.67574 0.41653 0.0
N215 N 0.80522 0.73237 0.44899 0.0
C216 C 0.77877 0.5665 0.39589 0.0
H217 H 0.72893 0.54922 0.37217 0.0
H218 H 0.82006 0.57094 0.36625 0.0
H219 H 0.77088 0.52613 0.42807 0.0
C220 C 0.73398 0.60973 0.20307 0.0
N221 N 0.69869 0.61698 0.2468 0.0
N222 N 0.74261 0.64839 0.28902 0.0
C223 C 0.80838 0.66664 0.27177 0.0
C224 C 0.80421 0.64224 0.21694 0.0
C225 C 0.70126 0.56895 0.15017 0.0
H226 H 0.64847 0.52344 0.15955 0.0
H227 H 0.73416 0.54868 0.1314 0.0
H228 H 0.69733 0.60466 0.11903 0.0
O229 O 0.62703 0.70955 0.26697 0.0
O230 O 0.69631 0.74677 0.34368 0.0
H231 H 0.91713 0.74926 0.27292 0.0
H232 H 0.89357 0.6839 0.32693 0.0
C233 C 0.87481 0.71506 0.30321 0.0
H234 H 0.86558 0.74846 0.33343 0.0
H235 H 0.79398 0.77344 0.44951 0.0
O236 O 0.57511 0.58651 0.17065 0.0
C237 C 0.66231 0.757 0.30421 0.0
Co238 Co 1.01231 0.60702 0.41458 0.0
Co239 Co 0.05714 0.70162 0.52385 0.0
C240 C 0.03579 0.55155 0.51771 0.0
O241 O 0.02126 0.54316 0.46533 0.0
O242 O 0.0482 0.60769 0.54409 0.0
C243 C 1.01389 0.52549 0.31405 0.0
O244 O 0.0298 0.48522 0.34463 0.0
C245 C 0.18023 0.79831 0.59145 0.0
C246 C 0.14063 0.85473 0.64357 0.0
C247 C 0.202 0.85461 0.62881 0.0
N248 N 0.11006 0.76817 0.58321 0.0
N249 N 0.08644 0.80117 0.61566 0.0
C250 C 0.22586 0.77472 0.56256 0.0
H251 H 0.1933 0.7249 0.53883 0.0
H252 H 0.26272 0.81602 0.53293 0.0
H253 H 0.25833 0.76682 0.59474 0.0
C254 C 0.13781 0.72998 0.36973 0.0
N255 N 0.09527 0.69467 0.41347 0.0
N256 N 0.10779 0.73858 0.45569 0.0
C257 C 0.15529 0.80435 0.43844 0.0
C258 C 0.17551 0.8002 0.38361 0.0
C259 C 0.14586 0.69727 0.31682 0.0
H260 H 0.13861 0.64449 0.3262 0.0
H261 H 0.19904 0.73019 0.29804 0.0
H262 H 0.1062 0.69331 0.2857 0.0
O263 O 0.93103 0.62294 0.43367 0.0
O264 O 0.96309 0.6922 0.51039 0.0
H265 H 0.18144 0.91311 0.43963 0.0
H266 H 0.22322 0.88951 0.49363 0.0
C267 C 0.17331 0.87077 0.4699 0.0
H268 H 0.13067 0.86153 0.50012 0.0
H269 H 0.03413 0.78993 0.61619 0.0
O270 O 1.00219 0.57106 0.33732 0.0
C271 C 0.91885 0.65818 0.47093 0.0
Co272 Co 0.41891 1.00824 0.58125 0.0
Co273 Co 0.36913 0.05309 0.69052 0.0
C274 C 0.49784 0.03171 0.68438 0.0
O275 O 0.4917 0.01718 0.632 0.0
O276 O 0.45412 0.04414 0.71075 0.0
C277 C 0.502 1.00981 0.4807 0.0
O278 O 0.55818 0.02571 0.51127 0.0
C279 C 0.39554 0.17618 0.75811 0.0
C280 C 0.29952 0.13658 0.81023 0.0
C281 C 0.36101 0.19794 0.79548 0.0
N282 N 0.35551 0.10601 0.74988 0.0
N283 N 0.29888 0.08239 0.78233 0.0
C284 C 0.46476 0.2218 0.72923 0.0
H285 H 0.48203 0.18924 0.70549 0.0
H286 H 0.46033 0.25867 0.6996 0.0
H287 H 0.50514 0.25426 0.76141 0.0
C288 C 0.42148 0.13375 0.5364 0.0
N289 N 0.41423 0.09121 0.58013 0.0
N290 N 0.38283 0.10373 0.62236 0.0
C291 C 0.36458 0.15124 0.60511 0.0
C292 C 0.38897 0.17147 0.55028 0.0
C293 C 0.46224 0.1418 0.48349 0.0
H294 H 0.50775 0.13453 0.49287 0.0
H295 H 0.4825 0.19497 0.46471 0.0
H296 H 0.42651 0.10214 0.45237 0.0
O297 O 0.32169 0.92697 0.60033 0.0
O298 O 0.2845 0.95905 0.67706 0.0
H299 H 0.28198 0.1774 0.60628 0.0
H300 H 0.34735 0.21918 0.66028 0.0
C301 C 0.31618 0.16927 0.63656 0.0
H302 H 0.28277 0.12663 0.66678 0.0
H303 H 0.2578 0.03008 0.78286 0.0
O304 O 0.44473 0.99812 0.50398 0.0
C305 C 0.27427 0.9148 0.6376 0.0
Co306 Co 0.42428 0.41484 0.74792 0.0
Co307 Co 0.32966 0.36507 0.85718 0.0
C308 C 0.47974 0.49379 0.85104 0.0
O309 O 0.48813 0.48764 0.79866 0.0
O310 O 0.42359 0.45007 0.87741 0.0
C311 C 0.50582 0.49794 0.64737 0.0
O312 O 0.5461 0.55411 0.67795 0.0
C313 C 0.23297 0.39147 0.92478 0.0
C314 C 0.17654 0.29545 -0.0231 0.0
C315 C 0.17667 0.35694 -0.03786 0.0
N316 N 0.26311 0.35145 0.91654 0.0
N317 N 0.2301 0.29482 0.94899 0.0
C318 C 0.25657 0.46069 0.89589 0.0
H319 H 0.30639 0.47796 0.87216 0.0
H320 H 0.21527 0.45625 0.86626 0.0
H321 H 0.26447 0.50106 0.92808 0.0
C322 C 0.30133 0.41741 0.70306 0.0
N323 N 0.33663 0.41016 0.7468 0.0
N324 N 0.2927 0.37876 0.78902 0.0
C325 C 0.22694 0.36052 0.77177 0.0
C326 C 0.2311 0.3849 0.71694 0.0
C327 C 0.33405 0.45818 0.65016 0.0
H328 H 0.38684 0.50369 0.65954 0.0
H329 H 0.30115 0.47845 0.63138 0.0
H330 H 0.33799 0.42246 0.61902 0.0
O331 O 0.40834 0.31763 0.767 0.0
O332 O 0.33907 0.28044 0.84372 0.0
H333 H 0.11818 0.27792 0.77295 0.0
H334 H 0.14177 0.34329 0.82694 0.0
C335 C 0.16051 0.31212 0.80322 0.0
H336 H 0.16973 0.27871 0.83345 0.0
H337 H 0.24133 0.25374 0.94952 0.0
O338 O 0.46023 0.44067 0.67065 0.0
C339 C 0.37309 0.27021 0.80427 0.0
Co340 Co 0.02304 0.42021 0.91458 0.0
Co341 Co 0.97819 0.3256 0.02385 0.0
C342 C 0.99957 0.47568 0.01771 0.0
O343 O 1.01411 0.48407 -0.03467 0.0
O344 O 0.98714 0.41954 0.04409 0.0
C345 C 0.02149 0.50176 0.81405 0.0
O346 O 1.0056 0.54204 0.84462 0.0
C347 C 0.85509 0.22891 0.09144 0.0
C348 C 0.89469 0.17249 0.14357 0.0
C349 C 0.83332 0.17261 0.12881 0.0
N350 N 0.92526 0.25905 0.08321 0.0
N351 N 0.94888 0.22605 0.11566 0.0
C352 C 0.80946 0.2525 0.06256 0.0
H353 H 0.84202 0.30232 0.03882 0.0
H354 H 0.7726 0.2112 0.03293 0.0
H355 H 0.777 0.26041 0.09474 0.0
C356 C 0.89752 0.29728 0.86973 0.0
N357 N 0.94007 0.33257 0.91347 0.0
N358 N 0.92754 0.28865 -0.04431 0.0
C359 C 0.88002 0.22289 0.93844 0.0
C360 C 0.8598 0.22705 0.88361 0.0
C361 C 0.88948 0.33 0.81683 0.0
H362 H 0.89675 0.38278 0.82621 0.0
H363 H 0.8363 0.29709 0.79805 0.0
H364 H 0.92914 0.33394 0.7857 0.0
O365 O 0.10431 0.40427 0.93367 0.0
O366 O 0.07223 0.335 0.01039 0.0
H367 H 0.85386 0.11413 0.93961 0.0
H368 H 0.81207 0.13772 -0.00639 0.0
C369 C 0.86199 0.15646 -0.03011 0.0
H370 H 0.90462 0.16568 0.00012 0.0
H371 H 1.00119 0.23728 0.11619 0.0
O372 O 0.03317 0.45617 0.83732 0.0
C373 C 0.11648 0.36902 -0.02907 0.0
Co374 Co 0.61641 0.01896 0.08126 0.0
Co375 Co 0.66619 0.97413 0.19052 0.0
C376 C 0.53747 0.99549 0.18439 0.0
O377 O 0.54362 1.01002 0.132 0.0
O378 O 0.58119 0.98307 0.21076 0.0
C379 C 0.53332 0.01741 -0.01929 0.0
O380 O 0.47715 1.00152 0.01129 0.0
C381 C 0.63985 0.85102 0.25805 0.0
C382 C 0.73586 0.89065 0.31021 0.0
C383 C 0.67446 0.82928 0.29533 0.0
N384 N 0.67982 0.92121 0.24988 0.0
N385 N 0.73644 0.94485 0.28236 0.0
C386 C 0.57063 0.80539 0.22916 0.0
H387 H 0.55335 0.83793 0.20543 0.0
H388 H 0.57507 0.76852 0.19954 0.0
H389 H 0.53026 0.77293 0.26135 0.0
C390 C 0.61384 0.89345 0.03641 0.0
N391 N 0.6211 0.936 0.08014 0.0
N392 N 0.65251 0.92349 0.12236 0.0
C393 C 0.67076 0.87598 0.1051 0.0
C394 C 0.64636 0.85574 0.05027 0.0
C395 C 0.57306 0.8854 -0.01649 0.0
H396 H 0.52755 0.89267 -0.00711 0.0
H397 H 0.55278 0.83222 -0.03526 0.0
H398 H 0.60877 0.92504 -0.04763 0.0
O399 O 0.71363 0.10024 0.10034 0.0
O400 O 0.75082 0.06818 0.17707 0.0
H401 H 0.75344 0.84993 0.10624 0.0
H402 H 0.68805 0.80803 0.16021 0.0
C403 C 0.7192 0.85798 0.13653 0.0
H404 H 0.75257 0.90059 0.16678 0.0
H405 H 0.77746 0.99718 0.28295 0.0
O406 O 0.59059 0.02909 0.00399 0.0
C407 C 0.76105 0.11242 0.13761 0.0
loop_
_geom_bond_atom_site_label_1
_geom_bond_atom_site_label_2
_geom_bond_distance
_geom_bond_site_symmetry_2
_ccdc_geom_bond_type
Co0 O3 1.970 . S
Co0 N17 1.989 . S
Co0 O25 1.967 . S
Co0 O32 1.920 . S
Co1 O4 1.966 . S
Co1 N10 2.022 . S
Co1 N18 1.993 . S
Co1 O26 1.941 . S
C2 O3 1.258 . S
C2 O4 1.263 . S
O3 Co0 1.970 . S
O3 C2 1.258 . S
O4 Co1 1.966 . S
O4 C2 1.263 . S
C5 O6 1.235 . S
C5 O32 1.289 . S
O6 C5 1.235 . S
C7 C9 1.400 . S
C7 N10 1.351 . S
C7 C12 1.501 . S
C8 C9 1.387 . S
C8 N11 1.341 . S
C9 C7 1.400 . S
C9 C8 1.387 . S
N10 Co1 2.022 . S
N10 C7 1.351 . S
N10 N11 1.365 . S
N11 C8 1.341 . S
N11 N10 1.365 . S
N11 H31 0.862 . S
C12 C7 1.501 . S
C12 H13 0.961 . S
C12 H14 0.961 . S
C12 H15 0.960 . S
H13 C12 0.961 . S
H14 C12 0.961 . S
H15 C12 0.960 . S
C16 N17 1.342 . S
C16 C20 1.401 . S
C16 C21 1.499 . S
N17 Co0 1.989 . S
N17 C16 1.342 . S
N17 N18 1.388 . S
N18 Co1 1.993 . S
N18 N17 1.388 . S
N18 C19 1.346 . S
C19 N18 1.346 . S
C19 C20 1.396 . S
C19 C29 1.510 . S
C20 C16 1.401 . S
C20 C19 1.396 . S
C21 C16 1.499 . S
C21 H22 0.959 . S
C21 H23 0.960 . S
C21 H24 0.961 . S
H22 C21 0.959 . S
H23 C21 0.960 . S
H24 C21 0.961 . S
O25 Co0 1.967 . S
O25 C33 1.258 . S
O26 Co1 1.941 . S
O26 C33 1.266 . S
H27 C29 0.959 . S
H28 C29 0.961 . S
C29 C19 1.510 . S
C29 H27 0.959 . S
C29 H28 0.961 . S
C29 H30 0.960 . S
H30 C29 0.960 . S
H31 N11 0.862 . S
O32 Co0 1.920 . S
O32 C5 1.289 . S
C33 O25 1.258 . S
C33 O26 1.266 . S
Co34 O37 1.970 . S
Co34 N51 1.989 . S
Co34 O59 1.967 1_455 S
Co34 O66 1.920 1_455 S
Co35 O38 1.966 . S
Co35 N44 2.022 . S
Co35 N52 1.993 . S
Co35 O60 1.941 1_455 S
C36 O37 1.258 . S
C36 O38 1.263 . S
O37 Co34 1.970 . S
O37 C36 1.258 . S
O38 Co35 1.966 . S
O38 C36 1.263 . S
C39 O40 1.235 . S
C39 O66 1.289 1_455 S
O40 C39 1.235 . S
C41 C43 1.400 . S
C41 N44 1.351 . S
C41 C46 1.501 . S
C42 C43 1.387 . S
C42 N45 1.341 . S
C43 C41 1.400 . S
C43 C42 1.387 . S
N44 Co35 2.022 . S
N44 C41 1.351 . S
N44 N45 1.365 . S
N45 C42 1.341 . S
N45 N44 1.365 . S
N45 H65 0.862 . S
C46 C41 1.501 . S
C46 H47 0.961 . S
C46 H48 0.961 . S
C46 H49 0.960 . S
H47 C46 0.961 . S
H48 C46 0.961 . S
H49 C46 0.960 . S
C50 N51 1.342 . S
C50 C54 1.401 . S
C50 C55 1.499 . S
N51 Co34 1.989 . S
N51 C50 1.342 . S
N51 N52 1.388 . S
N52 Co35 1.993 . S
N52 N51 1.388 . S
N52 C53 1.346 . S
C53 N52 1.346 . S
C53 C54 1.396 . S
C53 C63 1.510 . S
C54 C50 1.401 . S
C54 C53 1.396 . S
C55 C50 1.499 . S
C55 H56 0.959 . S
C55 H57 0.960 . S
C55 H58 0.961 . S
H56 C55 0.959 . S
H57 C55 0.960 . S
H58 C55 0.961 . S
O59 Co34 1.967 1_655 S
O59 C67 1.258 . S
O60 Co35 1.941 1_655 S
O60 C67 1.266 . S
H61 C63 0.959 . S
H62 C63 0.961 . S
C63 C53 1.510 . S
C63 H61 0.959 . S
C63 H62 0.961 . S
C63 H64 0.960 . S
H64 C63 0.960 . S
H65 N45 0.862 . S
O66 Co34 1.920 1_655 S
O66 C39 1.289 1_655 S
C67 O59 1.258 . S
C67 O60 1.266 . S
Co68 O71 1.970 . S
Co68 N85 1.989 . S
Co68 O93 1.967 1_545 S
Co68 O100 1.920 1_545 S
Co69 O72 1.966 . S
Co69 N78 2.022 . S
Co69 N86 1.993 . S
Co69 O94 1.941 1_545 S
C70 O71 1.258 . S
C70 O72 1.263 . S
O71 Co68 1.970 . S
O71 C70 1.258 . S
O72 Co69 1.966 . S
O72 C70 1.263 . S
C73 O74 1.235 . S
C73 O100 1.289 1_545 S
O74 C73 1.235 . S
C75 C77 1.400 . S
C75 N78 1.351 . S
C75 C80 1.501 . S
C76 C77 1.387 . S
C76 N79 1.341 . S
C77 C75 1.400 . S
C77 C76 1.387 . S
N78 Co69 2.022 . S
N78 C75 1.351 . S
N78 N79 1.365 . S
N79 C76 1.341 . S
N79 N78 1.365 . S
N79 H99 0.862 . S
C80 C75 1.501 . S
C80 H81 0.961 . S
C80 H82 0.961 . S
C80 H83 0.960 . S
H81 C80 0.961 . S
H82 C80 0.961 . S
H83 C80 0.960 . S
C84 N85 1.342 . S
C84 C88 1.401 . S
C84 C89 1.499 . S
N85 Co68 1.989 . S
N85 C84 1.342 . S
N85 N86 1.388 . S
N86 Co69 1.993 . S
N86 N85 1.388 . S
N86 C87 1.346 . S
C87 N86 1.346 . S
C87 C88 1.396 . S
C87 C97 1.510 . S
C88 C84 1.401 . S
C88 C87 1.396 . S
C89 C84 1.499 . S
C89 H90 0.959 . S
C89 H91 0.960 . S
C89 H92 0.961 . S
H90 C89 0.959 . S
H91 C89 0.960 . S
H92 C89 0.961 . S
O93 Co68 1.967 1_565 S
O93 C101 1.258 . S
O94 Co69 1.941 1_565 S
O94 C101 1.266 . S
H95 C97 0.959 . S
H96 C97 0.961 . S
C97 C87 1.510 . S
C97 H95 0.959 . S
C97 H96 0.961 . S
C97 H98 0.960 . S
H98 C97 0.960 . S
H99 N79 0.862 . S
O100 Co68 1.920 1_565 S
O100 C73 1.289 1_565 S
C101 O93 1.258 . S
C101 O94 1.266 . S
Co102 O105 1.970 1_554 S
Co102 N119 1.989 . S
Co102 O127 1.967 1_554 S
Co102 O134 1.920 . S
Co103 O106 1.966 . S
Co103 N112 2.022 . S
Co103 N120 1.993 . S
Co103 O128 1.941 . S
C104 O105 1.258 . S
C104 O106 1.263 . S
O105 Co102 1.970 1_556 S
O105 C104 1.258 . S
O106 Co103 1.966 . S
O106 C104 1.263 . S
C107 O108 1.235 . S
C107 O134 1.289 . S
O108 C107 1.235 . S
C109 C111 1.400 . S
C109 N112 1.351 . S
C109 C114 1.501 . S
C110 C111 1.387 . S
C110 N113 1.341 . S
C111 C109 1.400 . S
C111 C110 1.387 . S
N112 Co103 2.022 . S
N112 C109 1.351 . S
N112 N113 1.365 . S
N113 C110 1.341 . S
N113 N112 1.365 . S
N113 H133 0.862 . S
C114 C109 1.501 . S
C114 H115 0.961 . S
C114 H116 0.961 . S
C114 H117 0.960 . S
H115 C114 0.961 . S
H116 C114 0.961 . S
H117 C114 0.960 . S
C118 N119 1.342 . S
C118 C122 1.401 . S
C118 C123 1.499 . S
N119 Co102 1.989 . S
N119 C118 1.342 . S
N119 N120 1.388 1_554 S
N120 Co103 1.993 . S
N120 N119 1.388 1_556 S
N120 C121 1.346 . S
C121 N120 1.346 . S
C121 C122 1.396 1_556 S
C121 C131 1.510 . S
C122 C118 1.401 . S
C122 C121 1.396 1_554 S
C123 C118 1.499 . S
C123 H124 0.959 . S
C123 H125 0.960 . S
C123 H126 0.961 . S
H124 C123 0.959 . S
H125 C123 0.960 . S
H126 C123 0.961 . S
O127 Co102 1.967 1_556 S
O127 C135 1.258 . S
O128 Co103 1.941 . S
O128 C135 1.266 . S
H129 C131 0.959 . S
H130 C131 0.961 . S
C131 C121 1.510 . S
C131 H129 0.959 . S
C131 H130 0.961 . S
C131 H132 0.960 . S
H132 C131 0.960 . S
H133 N113 0.862 . S
O134 Co102 1.920 . S
O134 C107 1.289 . S
C135 O127 1.258 . S
C135 O128 1.266 . S
Co136 O139 1.970 . S
Co136 N153 1.989 . S
Co136 O161 1.967 1_655 S
Co136 O168 1.920 1_655 S
Co137 O140 1.966 . S
Co137 N146 2.022 1_554 S
Co137 N154 1.993 . S
Co137 O162 1.941 1_655 S
C138 O139 1.258 . S
C138 O140 1.263 . S
O139 Co136 1.970 . S
O139 C138 1.258 . S
O140 Co137 1.966 . S
O140 C138 1.263 . S
C141 O142 1.235 . S
C141 O168 1.289 1_655 S
O142 C141 1.235 . S
C143 C145 1.400 . S
C143 N146 1.351 . S
C143 C148 1.501 . S
C144 C145 1.387 . S
C144 N147 1.341 . S
C145 C143 1.400 . S
C145 C144 1.387 . S
N146 Co137 2.022 1_556 S
N146 C143 1.351 . S
N146 N147 1.365 . S
N147 C144 1.341 . S
N147 N146 1.365 . S
N147 H167 0.862 1_556 S
C148 C143 1.501 . S
C148 H149 0.961 . S
C148 H150 0.961 . S
C148 H151 0.960 . S
H149 C148 0.961 . S
H150 C148 0.961 . S
H151 C148 0.960 . S
C152 N153 1.342 . S
C152 C156 1.401 . S
C152 C157 1.499 . S
N153 Co136 1.989 . S
N153 C152 1.342 . S
N153 N154 1.388 . S
N154 Co137 1.993 . S
N154 N153 1.388 . S
N154 C155 1.346 . S
C155 N154 1.346 . S
C155 C156 1.396 . S
C155 C165 1.510 . S
C156 C152 1.401 . S
C156 C155 1.396 . S
C157 C152 1.499 . S
C157 H158 0.959 . S
C157 H159 0.960 . S
C157 H160 0.961 . S
H158 C157 0.959 . S
H159 C157 0.960 . S
H160 C157 0.961 . S
O161 Co136 1.967 1_455 S
O161 C169 1.258 . S
O162 Co137 1.941 1_455 S
O162 C169 1.266 . S
H163 C165 0.959 . S
H164 C165 0.961 . S
C165 C155 1.510 . S
C165 H163 0.959 . S
C165 H164 0.961 . S
C165 H166 0.960 . S
H166 C165 0.960 . S
H167 N147 0.862 1_554 S
O168 Co136 1.920 1_455 S
O168 C141 1.289 1_455 S
C169 O161 1.258 . S
C169 O162 1.266 . S
Co170 O173 1.970 . S
Co170 N187 1.989 . S
Co170 O195 1.967 1_565 S
Co170 O202 1.920 1_565 S
Co171 O174 1.966 . S
Co171 N180 2.022 . S
Co171 N188 1.993 . S
Co171 O196 1.941 1_565 S
C172 O173 1.258 . S
C172 O174 1.263 . S
O173 Co170 1.970 . S
O173 C172 1.258 . S
O174 Co171 1.966 . S
O174 C172 1.263 . S
C175 O176 1.235 . S
C175 O202 1.289 1_565 S
O176 C175 1.235 . S
C177 C179 1.400 . S
C177 N180 1.351 . S
C177 C182 1.501 . S
C178 C179 1.387 . S
C178 N181 1.341 . S
C179 C177 1.400 . S
C179 C178 1.387 . S
N180 Co171 2.022 . S
N180 C177 1.351 . S
N180 N181 1.365 . S
N181 C178 1.341 . S
N181 N180 1.365 . S
N181 H201 0.862 . S
C182 C177 1.501 . S
C182 H183 0.961 . S
C182 H184 0.961 . S
C182 H185 0.960 . S
H183 C182 0.961 . S
H184 C182 0.961 . S
H185 C182 0.960 . S
C186 N187 1.342 . S
C186 C190 1.401 . S
C186 C191 1.499 . S
N187 Co170 1.989 . S
N187 C186 1.342 . S
N187 N188 1.388 . S
N188 Co171 1.993 . S
N188 N187 1.388 . S
N188 C189 1.346 . S
C189 N188 1.346 . S
C189 C190 1.396 . S
C189 C199 1.510 . S
C190 C186 1.401 . S
C190 C189 1.396 . S
C191 C186 1.499 . S
C191 H192 0.959 . S
C191 H193 0.960 . S
C191 H194 0.961 . S
H192 C191 0.959 . S
H193 C191 0.960 . S
H194 C191 0.961 . S
O195 Co170 1.967 1_545 S
O195 C203 1.258 . S
O196 Co171 1.941 1_545 S
O196 C203 1.266 . S
H197 C199 0.959 . S
H198 C199 0.961 . S
C199 C189 1.510 . S
C199 H197 0.959 . S
C199 H198 0.961 . S
C199 H200 0.960 . S
H200 C199 0.960 . S
H201 N181 0.862 . S
O202 Co170 1.920 1_545 S
O202 C175 1.289 1_545 S
C203 O195 1.258 . S
C203 O196 1.266 . S
Co204 O207 1.970 . S
Co204 N221 1.989 . S
Co204 O229 1.967 . S
Co204 O236 1.920 . S
Co205 O208 1.966 . S
Co205 N214 2.022 . S
Co205 N222 1.993 . S
Co205 O230 1.941 . S
C206 O207 1.258 . S
C206 O208 1.263 . S
O207 Co204 1.970 . S
O207 C206 1.258 . S
O208 Co205 1.966 . S
O208 C206 1.263 . S
C209 O210 1.235 . S
C209 O236 1.289 . S
O210 C209 1.235 . S
C211 C213 1.400 . S
C211 N214 1.351 . S
C211 C216 1.501 . S
C212 C213 1.387 . S
C212 N215 1.341 . S
C213 C211 1.400 . S
C213 C212 1.387 . S
N214 Co205 2.022 . S
N214 C211 1.351 . S
N214 N215 1.365 . S
N215 C212 1.341 . S
N215 N214 1.365 . S
N215 H235 0.862 . S
C216 C211 1.501 . S
C216 H217 0.961 . S
C216 H218 0.961 . S
C216 H219 0.960 . S
H217 C216 0.961 . S
H218 C216 0.961 . S
H219 C216 0.960 . S
C220 N221 1.342 . S
C220 C224 1.401 . S
C220 C225 1.499 . S
N221 Co204 1.989 . S
N221 C220 1.342 . S
N221 N222 1.388 . S
N222 Co205 1.993 . S
N222 N221 1.388 . S
N222 C223 1.346 . S
C223 N222 1.346 . S
C223 C224 1.396 . S
C223 C233 1.510 . S
C224 C220 1.401 . S
C224 C223 1.396 . S
C225 C220 1.499 . S
C225 H226 0.959 . S
C225 H227 0.960 . S
C225 H228 0.961 . S
H226 C225 0.959 . S
H227 C225 0.960 . S
H228 C225 0.961 . S
O229 Co204 1.967 . S
O229 C237 1.258 . S
O230 Co205 1.941 . S
O230 C237 1.266 . S
H231 C233 0.959 . S
H232 C233 0.961 . S
C233 C223 1.510 . S
C233 H231 0.959 . S
C233 H232 0.961 . S
C233 H234 0.960 . S
H234 C233 0.960 . S
H235 N215 0.862 . S
O236 Co204 1.920 . S
O236 C209 1.289 . S
C237 O229 1.258 . S
C237 O230 1.266 . S
Co238 O241 1.970 . S
Co238 N255 1.989 . S
Co238 O263 1.967 1_455 S
Co238 O270 1.920 1_455 S
Co239 O242 1.966 . S
Co239 N248 2.022 . S
Co239 N256 1.993 . S
Co239 O264 1.941 1_455 S
C240 O241 1.258 . S
C240 O242 1.263 . S
O241 Co238 1.970 . S
O241 C240 1.258 . S
O242 Co239 1.966 . S
O242 C240 1.263 . S
C243 O244 1.235 . S
C243 O270 1.289 1_455 S
O244 C243 1.235 . S
C245 C247 1.400 . S
C245 N248 1.351 . S
C245 C250 1.501 . S
C246 C247 1.387 . S
C246 N249 1.341 . S
C247 C245 1.400 . S
C247 C246 1.387 . S
N248 Co239 2.022 . S
N248 C245 1.351 . S
N248 N249 1.365 . S
N249 C246 1.341 . S
N249 N248 1.365 . S
N249 H269 0.862 . S
C250 C245 1.501 . S
C250 H251 0.961 . S
C250 H252 0.961 . S
C250 H253 0.960 . S
H251 C250 0.961 . S
H252 C250 0.961 . S
H253 C250 0.960 . S
C254 N255 1.342 . S
C254 C258 1.401 . S
C254 C259 1.499 . S
N255 Co238 1.989 . S
N255 C254 1.342 . S
N255 N256 1.388 . S
N256 Co239 1.993 . S
N256 N255 1.388 . S
N256 C257 1.346 . S
C257 N256 1.346 . S
C257 C258 1.396 . S
C257 C267 1.510 . S
C258 C254 1.401 . S
C258 C257 1.396 . S
C259 C254 1.499 . S
C259 H260 0.959 . S
C259 H261 0.960 . S
C259 H262 0.961 . S
H260 C259 0.959 . S
H261 C259 0.960 . S
H262 C259 0.961 . S
O263 Co238 1.967 1_655 S
O263 C271 1.258 . S
O264 Co239 1.941 1_655 S
O264 C271 1.266 . S
H265 C267 0.959 . S
H266 C267 0.961 . S
C267 C257 1.510 . S
C267 H265 0.959 . S
C267 H266 0.961 . S
C267 H268 0.960 . S
H268 C267 0.960 . S
H269 N249 0.862 . S
O270 Co238 1.920 1_655 S
O270 C243 1.289 1_655 S
C271 O263 1.258 . S
C271 O264 1.266 . S
Co272 O275 1.970 . S
Co272 N289 1.989 . S
Co272 O297 1.967 1_545 S
Co272 O304 1.920 1_545 S
Co273 O276 1.966 . S
Co273 N282 2.022 . S
Co273 N290 1.993 . S
Co273 O298 1.941 1_545 S
C274 O275 1.258 . S
C274 O276 1.263 . S
O275 Co272 1.970 . S
O275 C274 1.258 . S
O276 Co273 1.966 . S
O276 C274 1.263 . S
C277 O278 1.235 . S
C277 O304 1.289 1_545 S
O278 C277 1.235 . S
C279 C281 1.400 . S
C279 N282 1.351 . S
C279 C284 1.501 . S
C280 C281 1.387 . S
C280 N283 1.341 . S
C281 C279 1.400 . S
C281 C280 1.387 . S
N282 Co273 2.022 . S
N282 C279 1.351 . S
N282 N283 1.365 . S
N283 C280 1.341 . S
N283 N282 1.365 . S
N283 H303 0.862 . S
C284 C279 1.501 . S
C284 H285 0.961 . S
C284 H286 0.961 . S
C284 H287 0.960 . S
H285 C284 0.961 . S
H286 C284 0.961 . S
H287 C284 0.960 . S
C288 N289 1.342 . S
C288 C292 1.401 . S
C288 C293 1.499 . S
N289 Co272 1.989 . S
N289 C288 1.342 . S
N289 N290 1.388 . S
N290 Co273 1.993 . S
N290 N289 1.388 . S
N290 C291 1.346 . S
C291 N290 1.346 . S
C291 C292 1.396 . S
C291 C301 1.510 . S
C292 C288 1.401 . S
C292 C291 1.396 . S
C293 C288 1.499 . S
C293 H294 0.959 . S
C293 H295 0.960 . S
C293 H296 0.961 . S
H294 C293 0.959 . S
H295 C293 0.960 . S
H296 C293 0.961 . S
O297 Co272 1.967 1_565 S
O297 C305 1.258 . S
O298 Co273 1.941 1_565 S
O298 C305 1.266 . S
H299 C301 0.959 . S
H300 C301 0.961 . S
C301 C291 1.510 . S
C301 H299 0.959 . S
C301 H300 0.961 . S
C301 H302 0.960 . S
H302 C301 0.960 . S
H303 N283 0.862 . S
O304 Co272 1.920 1_565 S
O304 C277 1.289 1_565 S
C305 O297 1.258 . S
C305 O298 1.266 . S
Co306 O309 1.970 . S
Co306 N323 1.989 . S
Co306 O331 1.967 . S
Co306 O338 1.920 . S
Co307 O310 1.966 . S
Co307 N316 2.022 1_556 S
Co307 N324 1.993 . S
Co307 O332 1.941 . S
C308 O309 1.258 . S
C308 O310 1.263 . S
O309 Co306 1.970 . S
O309 C308 1.258 . S
O310 Co307 1.966 . S
O310 C308 1.263 . S
C311 O312 1.235 . S
C311 O338 1.289 . S
O312 C311 1.235 . S
C313 C315 1.400 . S
C313 N316 1.351 . S
C313 C318 1.501 . S
C314 C315 1.387 . S
C314 N317 1.341 . S
C315 C313 1.400 . S
C315 C314 1.387 . S
N316 Co307 2.022 1_554 S
N316 C313 1.351 . S
N316 N317 1.365 . S
N317 C314 1.341 . S
N317 N316 1.365 . S
N317 H337 0.862 1_554 S
C318 C313 1.501 . S
C318 H319 0.961 . S
C318 H320 0.961 . S
C318 H321 0.960 . S
H319 C318 0.961 . S
H320 C318 0.961 . S
H321 C318 0.960 . S
C322 N323 1.342 . S
C322 C326 1.401 . S
C322 C327 1.499 . S
N323 Co306 1.989 . S
N323 C322 1.342 . S
N323 N324 1.388 . S
N324 Co307 1.993 . S
N324 N323 1.388 . S
N324 C325 1.346 . S
C325 N324 1.346 . S
C325 C326 1.396 . S
C325 C335 1.510 . S
C326 C322 1.401 . S
C326 C325 1.396 . S
C327 C322 1.499 . S
C327 H328 0.959 . S
C327 H329 0.960 . S
C327 H330 0.961 . S
H328 C327 0.959 . S
H329 C327 0.960 . S
H330 C327 0.961 . S
O331 Co306 1.967 . S
O331 C339 1.258 . S
O332 Co307 1.941 . S
O332 C339 1.266 . S
H333 C335 0.959 . S
H334 C335 0.961 . S
C335 C325 1.510 . S
C335 H333 0.959 . S
C335 H334 0.961 . S
C335 H336 0.960 . S
H336 C335 0.960 . S
H337 N317 0.862 1_556 S
O338 Co306 1.920 . S
O338 C311 1.289 . S
C339 O331 1.258 . S
C339 O332 1.266 . S
Co340 O343 1.970 1_556 S
Co340 N357 1.989 . S
Co340 O365 1.967 1_656 S
Co340 O372 1.920 1_655 S
Co341 O344 1.966 . S
Co341 N350 2.022 . S
Co341 N358 1.993 . S
Co341 O366 1.941 1_655 S
C342 O343 1.258 . S
C342 O344 1.263 . S
O343 Co340 1.970 1_554 S
O343 C342 1.258 . S
O344 Co341 1.966 . S
O344 C342 1.263 . S
C345 O346 1.235 . S
C345 O372 1.289 1_655 S
O346 C345 1.235 . S
C347 C349 1.400 . S
C347 N350 1.351 . S
C347 C352 1.501 . S
C348 C349 1.387 . S
C348 N351 1.341 . S
C349 C347 1.400 . S
C349 C348 1.387 . S
N350 Co341 2.022 . S
N350 C347 1.351 . S
N350 N351 1.365 . S
N351 C348 1.341 . S
N351 N350 1.365 . S
N351 H371 0.862 . S
C352 C347 1.501 . S
C352 H353 0.961 . S
C352 H354 0.961 . S
C352 H355 0.960 . S
H353 C352 0.961 . S
H354 C352 0.961 . S
H355 C352 0.960 . S
C356 N357 1.342 . S
C356 C360 1.401 . S
C356 C361 1.499 . S
N357 Co340 1.989 . S
N357 C356 1.342 . S
N357 N358 1.388 1_556 S
N358 Co341 1.993 . S
N358 N357 1.388 1_554 S
N358 C359 1.346 . S
C359 N358 1.346 . S
C359 C360 1.396 1_554 S
C359 C369 1.510 . S
C360 C356 1.401 . S
C360 C359 1.396 1_556 S
C361 C356 1.499 . S
C361 H362 0.959 . S
C361 H363 0.960 . S
C361 H364 0.961 . S
H362 C361 0.959 . S
H363 C361 0.960 . S
H364 C361 0.961 . S
O365 Co340 1.967 1_454 S
O365 C373 1.258 . S
O366 Co341 1.941 1_455 S
O366 C373 1.266 . S
H367 C369 0.959 . S
H368 C369 0.961 . S
C369 C359 1.510 . S
C369 H367 0.959 . S
C369 H368 0.961 . S
C369 H370 0.960 . S
H370 C369 0.960 . S
H371 N351 0.862 . S
O372 Co340 1.920 1_455 S
O372 C345 1.289 1_455 S
C373 O365 1.258 . S
C373 O366 1.266 . S
Co374 O377 1.970 . S
Co374 N391 1.989 . S
Co374 O399 1.967 1_565 S
Co374 O406 1.920 1_565 S
Co375 O378 1.966 . S
Co375 N384 2.022 . S
Co375 N392 1.993 . S
Co375 O400 1.941 1_565 S
C376 O377 1.258 . S
C376 O378 1.263 . S
O377 Co374 1.970 . S
O377 C376 1.258 . S
O378 Co375 1.966 . S
O378 C376 1.263 . S
C379 O380 1.235 . S
C379 O406 1.289 1_565 S
O380 C379 1.235 . S
C381 C383 1.400 . S
C381 N384 1.351 . S
C381 C386 1.501 . S
C382 C383 1.387 . S
C382 N385 1.341 . S
C383 C381 1.400 . S
C383 C382 1.387 . S
N384 Co375 2.022 . S
N384 C381 1.351 . S
N384 N385 1.365 . S
N385 C382 1.341 . S
N385 N384 1.365 . S
N385 H405 0.862 . S
C386 C381 1.501 . S
C386 H387 0.961 . S
C386 H388 0.961 . S
C386 H389 0.960 . S
H387 C386 0.961 . S
H388 C386 0.961 . S
H389 C386 0.960 . S
C390 N391 1.342 . S
C390 C394 1.401 . S
C390 C395 1.499 . S
N391 Co374 1.989 . S
N391 C390 1.342 . S
N391 N392 1.388 . S
N392 Co375 1.993 . S
N392 N391 1.388 . S
N392 C393 1.346 . S
C393 N392 1.346 . S
C393 C394 1.396 . S
C393 C403 1.510 . S
C394 C390 1.401 . S
C394 C393 1.396 . S
C395 C390 1.499 . S
C395 H396 0.959 . S
C395 H397 0.960 . S
C395 H398 0.961 . S
H396 C395 0.959 . S
H397 C395 0.960 . S
H398 C395 0.961 . S
O399 Co374 1.967 1_545 S
O399 C407 1.258 . S
O400 Co375 1.941 1_545 S
O400 C407 1.266 . S
H401 C403 0.959 . S
H402 C403 0.961 . S
C403 C393 1.510 . S
C403 H401 0.959 . S
C403 H402 0.961 . S
C403 H404 0.960 . S
H404 C403 0.960 . S
H405 N385 0.862 . S
O406 Co374 1.920 1_545 S
O406 C379 1.289 1_545 S
C407 O399 1.258 . S
C407 O400 1.266 . S
C292 C20 1.294 . S
C54 C326 1.294 . S
C88 C360 1.294 . S
C122 C394 1.294 . S
C156 C224 1.294 . S
C190 C258 1.294 . S
C9 C203 2.394 . S
C33 C43 2.394 . S
C77 C67 2.394 . S
C101 C111 2.394 . S
C135 C145 2.394 . S
C179 C169 2.394 . S
C271 C213 2.394 . S
C305 C247 2.394 . S
C339 C281 2.394 . S
C373 C315 2.394 . S
C407 C349 2.394 . S
C383 C237 2.394 . S
C2 C206 1.402 . S
C36 C240 1.403 . S
C70 C274 1.403 . S
C104 C308 1.403 . S
C342 C138 1.403 . S
C172 C376 1.403 . S
C311 C5 1.761 . S
C39 C345 1.761 1_455 S
C73 C379 1.761 1_546 S
C107 C209 1.761 . S
C141 C243 1.761 1_655 S
C277 C175 1.761 1_545 S
