# Generated by pormake.
# Topology una, (4)-cn, num edge types: 1
# Building blocks:
#     Node 0, Type 0, BuildingBlock: QUQFOY_clean_sbu_1, # of connection points: 4
#     Node 1, Type 0, BuildingBlock: QUQFOY_clean_sbu_1, # of connection points: 4
#     Node 2, Type 0, BuildingBlock: QUQFOY_clean_sbu_1, # of connection points: 4
#     Node 3, Type 0, BuildingBlock: QUQFOY_clean_sbu_1, # of connection points: 4
#     Node 4, Type 0, BuildingBlock: QUQFOY_clean_sbu_1, # of connection points: 4
#     Node 5, Type 0, BuildingBlock: QUQFOY_clean_sbu_1, # of connection points: 4
#     Node 6, Type 0, BuildingBlock: QUQFOY_clean_sbu_1, # of connection points: 4
#     Node 7, Type 0, BuildingBlock: QUQFOY_clean_sbu_1, # of connection points: 4
#     Node 8, Type 0, BuildingBlock: QUQFOY_clean_sbu_1, # of connection points: 4
#     Node 9, Type 0, BuildingBlock: QUQFOY_clean_sbu_1, # of connection points: 4
#     Node 10, Type 0, BuildingBlock: QUQFOY_clean_sbu_1, # of connection points: 4
#     Node 11, Type 0, BuildingBlock: QUQFOY_clean_sbu_1, # of connection points: 4
#     Edge 12, Type (0, 0), BuildingBlock: EZIPEK_clean_linker_0, # of connection points: 2
#     Edge 13, Type (0, 0), BuildingBlock: EZIPEK_clean_linker_0, # of connection points: 2
#     Edge 14, Type (0, 0), BuildingBlock: EZIPEK_clean_linker_0, # of connection points: 2
#     Edge 15, Type (0, 0), BuildingBlock: EZIPEK_clean_linker_0, # of connection points: 2
#     Edge 16, Type (0, 0), BuildingBlock: EZIPEK_clean_linker_0, # of connection points: 2
#     Edge 17, Type (0, 0), BuildingBlock: EZIPEK_clean_linker_0, # of connection points: 2
#     Edge 18, Type (0, 0), BuildingBlock: EZIPEK_clean_linker_0, # of connection points: 2
#     Edge 19, Type (0, 0), BuildingBlock: EZIPEK_clean_linker_0, # of connection points: 2
#     Edge 20, Type (0, 0), BuildingBlock: EZIPEK_clean_linker_0, # of connection points: 2
#     Edge 21, Type (0, 0), BuildingBlock: EZIPEK_clean_linker_0, # of connection points: 2
#     Edge 22, Type (0, 0), BuildingBlock: EZIPEK_clean_linker_0, # of connection points: 2
#     Edge 23, Type (0, 0), BuildingBlock: EZIPEK_clean_linker_0, # of connection points: 2
#     Edge 24, Type (0, 0), BuildingBlock: EZIPEK_clean_linker_0, # of connection points: 2
#     Edge 25, Type (0, 0), BuildingBlock: EZIPEK_clean_linker_0, # of connection points: 2
#     Edge 26, Type (0, 0), BuildingBlock: EZIPEK_clean_linker_0, # of connection points: 2
#     Edge 27, Type (0, 0), BuildingBlock: EZIPEK_clean_linker_0, # of connection points: 2
#     Edge 28, Type (0, 0), BuildingBlock: EZIPEK_clean_linker_0, # of connection points: 2
#     Edge 29, Type (0, 0), BuildingBlock: EZIPEK_clean_linker_0, # of connection points: 2
#     Edge 30, Type (0, 0), BuildingBlock: EZIPEK_clean_linker_0, # of connection points: 2
#     Edge 31, Type (0, 0), BuildingBlock: EZIPEK_clean_linker_0, # of connection points: 2
#     Edge 32, Type (0, 0), BuildingBlock: EZIPEK_clean_linker_0, # of connection points: 2
#     Edge 33, Type (0, 0), BuildingBlock: EZIPEK_clean_linker_0, # of connection points: 2
#     Edge 34, Type (0, 0), BuildingBlock: EZIPEK_clean_linker_0, # of connection points: 2
#     Edge 35, Type (0, 0), BuildingBlock: EZIPEK_clean_linker_0, # of connection points: 2
# Relax obj value: 0.112
# Max RMSD: 0.096
# Mean RMSD: 0.096
data_MOF--net-una--node1-QUQFOY_clean_sbu_1--edge1-EZIPEK_clean_linker_0
_symmetry_space_group_name_H-M    P1
_symmetry_Int_Tables_number       1
_symmetry_cell_setting            triclinic
loop_
_symmetry_equiv_pos_as_xyz
'x, y, z'
_cell_length_a     43.160736
_cell_length_b     43.318977
_cell_length_c     16.530689
_cell_angle_alpha  90.052962
_cell_angle_beta   90.052299
_cell_angle_gamma 119.83994
loop_
_atom_site_label
_atom_site_type_symbol
_atom_site_fract_x
_atom_site_fract_y
_atom_site_fract_z
_atom_type_partial_charge
O0 O 0.15619 0.49895 0.13069 0.0
Cd1 Cd 0.15258 0.45087 0.09624 0.0
Cd2 Cd 0.21601 0.49353 0.02991 0.0
O3 O 0.19889 0.52977 0.04268 0.0
O4 O 0.10192 0.41504 0.06495 0.0
O5 O 0.14608 0.44201 0.97691 0.0
C6 C 0.11254 0.4209 0.99058 0.0
C7 C 0.24636 0.49507 0.91376 0.0
C8 C 0.17584 0.5279 0.09308 0.0
C9 C 0.21461 0.44944 0.17102 0.0
O10 O 0.23277 0.47704 0.12851 0.0
O11 O 0.18072 0.43153 0.1633 0.0
O12 O 0.26101 0.51969 0.96762 0.0
O13 O 0.21383 0.47004 0.9242 0.0
O14 O 0.68899 0.13241 0.30985 0.0
Cd15 Cd 0.73382 0.12794 0.28432 0.0
Cd16 Cd 0.75369 0.18673 0.19749 0.0
O17 O 0.70092 0.1722 0.21393 0.0
O18 O 0.72031 0.07705 0.26256 0.0
O19 O 0.73692 0.11808 0.16684 0.0
C20 C 0.7246 0.08516 0.18651 0.0
C21 C 0.78262 0.2179 0.08195 0.0
C22 C 0.67992 0.15119 0.26746 0.0
C23 C 0.79656 0.19182 0.34872 0.0
O24 O 0.78847 0.20649 0.2927 0.0
O25 O 0.77935 0.15808 0.35608 0.0
O26 O 0.77343 0.23223 0.13818 0.0
O27 O 0.773 0.18464 0.0884 0.0
O28 O 0.59854 0.67012 0.47338 0.0
Cd29 Cd 0.6444 0.71715 0.44084 0.0
Cd30 Cd 0.59668 0.73465 0.38813 0.0
O31 O 0.56234 0.68107 0.39996 0.0
O32 O 0.6827 0.7051 0.41524 0.0
O33 O 0.65491 0.71918 0.32203 0.0
C34 C 0.67708 0.70838 0.33975 0.0
C35 C 0.59652 0.76386 0.27218 0.0
C36 C 0.56791 0.65994 0.44248 0.0
C37 C 0.64299 0.77797 0.5245 0.0
O38 O 0.6137 0.76722 0.48724 0.0
O39 O 0.66217 0.76369 0.51077 0.0
O40 O 0.57094 0.75345 0.3239 0.0
O41 O 0.62151 0.75629 0.28451 0.0
O42 O 0.95818 0.57378 0.63615 0.0
Cd43 Cd 0.96175 0.62171 0.60135 0.0
Cd44 Cd 0.89827 0.57883 0.53505 0.0
O45 O 0.91533 0.54256 0.5484 0.0
O46 O 1.01262 0.65728 0.57183 0.0
O47 O 0.96891 0.63073 0.48219 0.0
C48 C 1.00243 0.65153 0.49707 0.0
C49 C 0.86807 0.5773 0.4185 0.0
C50 C 0.93855 0.54471 0.59875 0.0
C51 C 0.89982 0.62325 0.67585 0.0
O52 O 0.88163 0.59556 0.63342 0.0
O53 O 0.93369 0.6412 0.66814 0.0
O54 O 0.85331 0.55274 0.47231 0.0
O55 O 0.90064 0.60224 0.42923 0.0
O56 O 0.42278 0.93723 0.80923 0.0
Cd57 Cd 0.37825 0.94114 0.77494 0.0
Cd58 Cd 0.35786 0.87862 0.70778 0.0
O59 O 0.41131 0.89533 0.71922 0.0
O60 O 0.3925 0.99218 0.75246 0.0
O61 O 0.37789 0.95148 0.65652 0.0
C62 C 0.38946 0.98428 0.67634 0.0
C63 C 0.32788 0.84943 0.59161 0.0
C64 C 0.43231 0.91788 0.77056 0.0
C65 C 0.31525 0.87918 0.84936 0.0
O66 O 0.32515 0.86121 0.80707 0.0
O67 O 0.33067 0.91288 0.84126 0.0
O68 O 0.33846 0.83431 0.64301 0.0
O69 O 0.33576 0.88194 0.60407 0.0
O70 O 0.51584 0.40175 0.96994 0.0
Cd71 Cd 0.46987 0.35481 0.93686 0.0
Cd72 Cd 0.51753 0.33705 0.88476 0.0
O73 O 0.55216 0.39056 0.89773 0.0
O74 O 0.43167 0.36702 0.91127 0.0
O75 O 0.45925 0.35274 0.81801 0.0
C76 C 0.43716 0.36363 0.83578 0.0
C77 C 0.51761 0.30785 0.76849 0.0
C78 C 0.54658 0.41176 0.94 0.0
C79 C 0.47086 0.29382 0.02047 0.0
O80 O 0.50012 0.30435 0.9834 0.0
O81 O 0.45188 0.30831 0.0067 0.0
O82 O 0.54308 0.31799 0.82061 0.0
O83 O 0.49282 0.31571 0.7806 0.0
O84 O 0.59452 0.93787 0.78494 0.0
Cd85 Cd 0.64298 0.94177 0.81848 0.0
Cd86 Cd 0.6006 0.8784 0.8849 0.0
O87 O 0.5639 0.8951 0.87274 0.0
O88 O 0.67877 0.99228 0.84982 0.0
O89 O 0.6522 0.94814 0.93772 0.0
C90 C 0.67316 0.98161 0.92414 0.0
C91 C 0.59937 0.84804 0.0006 0.0
C92 C 0.56555 0.91806 0.82264 0.0
C93 C 0.64466 0.88033 0.74265 0.0
O94 O 0.61721 0.86206 0.7858 0.0
O95 O 0.66243 0.9141 0.75027 0.0
O96 O 0.57469 0.83337 0.94669 0.0
O97 O 0.62427 0.88056 0.99049 0.0
O98 O 0.68766 0.57432 0.94946 0.0
Cd99 Cd 0.73508 0.62086 0.97827 0.0
Cd100 Cd 0.75428 0.57345 0.02904 0.0
O101 O 0.70089 0.5381 0.01565 0.0
O102 O 0.72285 0.65888 0.00636 0.0
O103 O 0.73922 0.63203 0.09681 0.0
C104 C 0.72781 0.65386 0.08118 0.0
C105 C 0.78376 0.57358 0.14519 0.0
C106 C 0.67863 0.54351 0.97697 0.0
C107 C 0.79659 0.62049 0.89278 0.0
O108 O 0.787 0.59171 0.93066 0.0
O109 O 0.78122 0.63869 0.90611 0.0
O110 O 0.77423 0.54853 0.09245 0.0
O111 O 0.77519 0.59783 0.13366 0.0
O112 O 0.1556 0.66953 0.10625 0.0
Cd113 Cd 0.15135 0.71375 0.14018 0.0
Cd114 Cd 0.2143 0.73462 0.20707 0.0
O115 O 0.1979 0.68143 0.19592 0.0
O116 O 0.10006 0.69927 0.16274 0.0
O117 O 0.14102 0.71422 0.25858 0.0
C118 C 0.10806 0.70248 0.23883 0.0
C119 C 0.24344 0.76472 0.32316 0.0
C120 C 0.17524 0.6603 0.14489 0.0
C121 C 0.2132 0.77677 0.06541 0.0
O122 O 0.23146 0.76718 0.10767 0.0
O123 O 0.17936 0.76112 0.07359 0.0
O124 O 0.2588 0.75436 0.27185 0.0
O125 O 0.21072 0.75657 0.31065 0.0
O126 O 0.51886 0.13389 0.27967 0.0
Cd127 Cd 0.47061 0.1301 0.31394 0.0
Cd128 Cd 0.51337 0.19351 0.37997 0.0
O129 O 0.55002 0.17681 0.3671 0.0
O130 O 0.43505 0.07938 0.34348 0.0
O131 O 0.46134 0.12301 0.43305 0.0
C132 C 0.44063 0.08957 0.41821 0.0
C133 C 0.51461 0.22371 0.49615 0.0
C134 C 0.548 0.15365 0.31698 0.0
C135 C 0.46887 0.1915 0.23844 0.0
O136 O 0.49653 0.20978 0.28117 0.0
O137 O 0.45097 0.15775 0.24632 0.0
O138 O 0.53926 0.23846 0.44238 0.0
O139 O 0.48975 0.19117 0.48563 0.0
O140 O 0.42667 0.49746 0.44687 0.0
Cd141 Cd 0.37903 0.451 0.47448 0.0
Cd142 Cd 0.36 0.49857 0.52513 0.0
O143 O 0.41341 0.53375 0.51274 0.0
O144 O 0.39107 0.41283 0.50243 0.0
O145 O 0.37469 0.43968 0.5929 0.0
C146 C 0.38608 0.41784 0.57725 0.0
C147 C 0.33053 0.49852 0.64099 0.0
C148 C 0.43573 0.52827 0.47467 0.0
C149 C 0.31775 0.45174 0.38824 0.0
O150 O 0.32739 0.48051 0.42635 0.0
O151 O 0.333 0.43343 0.40163 0.0
O152 O 0.34016 0.5236 0.58843 0.0
O153 O 0.33896 0.47417 0.6294 0.0
O154 O 0.96085 0.40484 0.60499 0.0
Cd155 Cd 0.9657 0.36033 0.6302 0.0
Cd156 Cd 0.9064 0.33993 0.71629 0.0
O157 O 0.92065 0.39246 0.70051 0.0
O158 O 1.01685 0.37415 0.65214 0.0
O159 O 0.97554 0.35713 0.74767 0.0
C160 C 1.00863 0.36966 0.72814 0.0
C161 C 0.87508 0.31067 0.83143 0.0
C162 C 0.94178 0.4136 0.64733 0.0
C163 C 0.90201 0.29764 0.56491 0.0
O164 O 0.887 0.30547 0.62068 0.0
O165 O 0.93589 0.315 0.55802 0.0
O166 O 0.86062 0.31978 0.77529 0.0
O167 O 0.90854 0.32054 0.82513 0.0
C168 C 0.263 0.43472 0.19544 0.0
C169 C 0.23449 0.43854 0.22721 0.0
C170 C 0.25427 0.43532 0.36448 0.0
C171 C 0.28663 0.43936 0.33257 0.0
N172 N 0.32231 0.44304 0.21707 0.0
N173 N 0.2031 0.44323 0.34311 0.0
C174 C 0.29087 0.43832 0.24779 0.0
C175 C 0.22961 0.43823 0.31214 0.0
N176 N 0.26325 0.4276 0.11496 0.0
N177 N 0.24733 0.4288 0.4452 0.0
H178 H 0.18431 0.44518 0.30716 0.0
H179 H 0.20107 0.44776 0.40426 0.0
H180 H 0.26482 0.42617 0.48451 0.0
H181 H 0.22297 0.42254 0.47147 0.0
H182 H 0.28157 0.42159 0.08891 0.0
H183 H 0.24283 0.42426 0.07573 0.0
H184 H 0.32875 0.44703 0.15585 0.0
H185 H 0.34296 0.44503 0.2535 0.0
C186 C 0.88017 0.24004 0.48411 0.0
C187 C 0.87815 0.27099 0.50367 0.0
C188 C 0.81948 0.24467 0.43888 0.0
C189 C 0.8232 0.21588 0.40977 0.0
N190 N 0.86009 0.18883 0.39506 0.0
N191 N 0.8504 0.30655 0.47714 0.0
C192 C 0.85439 0.21416 0.4298 0.0
C193 C 0.84917 0.27442 0.47404 0.0
N194 N 0.90569 0.23462 0.51931 0.0
N195 N 0.78712 0.2432 0.43538 0.0
H196 H 0.87266 0.3297 0.49819 0.0
H197 H 0.83117 0.31101 0.44992 0.0
H198 H 0.76399 0.22088 0.41443 0.0
H199 H 0.78245 0.2623 0.46221 0.0
H200 H 0.9061 0.21087 0.51394 0.0
H201 H 0.92488 0.25289 0.5589 0.0
H202 H 0.88403 0.18862 0.40079 0.0
H203 H 0.84189 0.16959 0.35546 0.0
C204 C 0.65794 0.84083 0.54816 0.0
C205 C 0.6548 0.80895 0.57996 0.0
C206 C 0.66013 0.8327 0.71711 0.0
C207 C 0.65553 0.86071 0.68578 0.0
N208 N 0.64918 0.89127 0.57048 0.0
N209 N 0.65257 0.77393 0.69533 0.0
C210 C 0.65499 0.86526 0.6009 0.0
C211 C 0.65657 0.80499 0.66466 0.0
N212 N 0.66375 0.84759 0.46722 0.0
N213 N 0.66796 0.83278 0.79726 0.0
H214 H 0.65055 0.75336 0.65885 0.0
H215 H 0.64912 0.76767 0.75666 0.0
H216 H 0.67126 0.85309 0.83655 0.0
H217 H 0.67459 0.81488 0.82287 0.0
H218 H 0.66938 0.87167 0.44093 0.0
H219 H 0.66644 0.83029 0.42758 0.0
H220 H 0.64401 0.893 0.50961 0.0
H221 H 0.64722 0.9099 0.60676 0.0
C222 C 0.88483 0.63433 0.81704 0.0
C223 C 0.87998 0.63414 0.7321 0.0
C224 C 0.82352 0.63418 0.75258 0.0
C225 C 0.82773 0.63298 0.83735 0.0
N226 N 0.867 0.64343 0.95023 0.0
N227 N 0.85121 0.64517 0.61996 0.0
C228 C 0.86011 0.63706 0.86939 0.0
C229 C 0.85144 0.63794 0.70034 0.0
N230 N 0.91141 0.62937 0.84796 0.0
N231 N 0.79207 0.62945 0.72172 0.0
H232 H 0.87166 0.64859 0.58083 0.0
H233 H 0.83287 0.65118 0.59393 0.0
H234 H 0.77137 0.62731 0.75806 0.0
H235 H 0.78568 0.62558 0.66041 0.0
H236 H 0.91343 0.62474 0.90903 0.0
H237 H 0.93027 0.6276 0.81199 0.0
H238 H 0.89136 0.6497 0.97663 0.0
H239 H 0.84946 0.64593 0.98956 0.0
C240 C 0.28876 0.86412 0.99012 0.0
C241 C 0.28446 0.85932 0.90514 0.0
C242 C 0.22804 0.80323 0.92468 0.0
C243 C 0.23287 0.80752 0.00966 0.0
N244 N 0.26092 0.847 0.12237 0.0
N245 N 0.24491 0.83105 0.79246 0.0
C246 C 0.26099 0.83975 0.04195 0.0
C247 C 0.25226 0.83106 0.87286 0.0
N248 N 0.32015 0.89041 0.02165 0.0
N249 N 0.20189 0.77181 0.89313 0.0
H250 H 0.26193 0.85151 0.75365 0.0
H251 H 0.22058 0.81294 0.76624 0.0
H252 H 0.18342 0.75093 0.9288 0.0
H253 H 0.19995 0.76557 0.8318 0.0
H254 H 0.32646 0.89238 0.08296 0.0
H255 H 0.34098 0.909 0.98598 0.0
H256 H 0.27889 0.87132 0.1486 0.0
H257 H 0.24051 0.82987 0.16121 0.0
C258 C 0.45824 0.20636 0.09679 0.0
C259 C 0.45794 0.21108 0.18168 0.0
C260 C 0.45728 0.26699 0.1606 0.0
C261 C 0.45888 0.26287 0.07589 0.0
N262 N 0.44947 0.224 0.96312 0.0
N263 N 0.44602 0.2394 0.29323 0.0
C264 C 0.45542 0.23084 0.04407 0.0
C265 C 0.45363 0.23928 0.21304 0.0
N266 N 0.46371 0.18012 0.06636 0.0
N267 N 0.46155 0.29817 0.19126 0.0
H268 H 0.44267 0.2191 0.33251 0.0
H269 H 0.43961 0.25746 0.31891 0.0
H270 H 0.46364 0.31874 0.15479 0.0
H271 H 0.46513 0.30452 0.25259 0.0
H272 H 0.46872 0.17822 0.00547 0.0
H273 H 0.46553 0.16143 0.10262 0.0
H274 H 0.44362 0.19984 0.9368 0.0
H275 H 0.4469 0.24135 0.9235 0.0
C276 C 0.20666 0.59324 0.12191 0.0
C277 C 0.1742 0.5608 0.11039 0.0
C278 C 0.14118 0.59301 0.12809 0.0
C279 C 0.17396 0.62587 0.12813 0.0
N280 N 0.23747 0.65673 0.10151 0.0
N281 N 0.11048 0.53112 0.08665 0.0
C282 C 0.20659 0.62584 0.11808 0.0
C283 C 0.14133 0.56095 0.10911 0.0
N284 N 0.2375 0.59306 0.13975 0.0
N285 N 0.11015 0.592 0.14951 0.0
H286 H 0.10946 0.5074 0.07027 0.0
H287 H 0.08658 0.53103 0.0768 0.0
H288 H 0.10904 0.61459 0.16641 0.0
H289 H 0.08622 0.56832 0.15826 0.0
H290 H 0.26112 0.61602 0.15559 0.0
H291 H 0.23844 0.56968 0.1484 0.0
H292 H 0.26125 0.65736 0.08671 0.0
H293 H 0.23835 0.681 0.0928 0.0
C294 C 0.61258 0.11815 0.28449 0.0
C295 C 0.64566 0.15065 0.28253 0.0
C296 C 0.6134 0.18375 0.28667 0.0
C297 C 0.58082 0.15166 0.30003 0.0
N298 N 0.55074 0.08847 0.32726 0.0
N299 N 0.67736 0.21434 0.30399 0.0
C300 C 0.58068 0.1188 0.30318 0.0
C301 C 0.64603 0.18347 0.29007 0.0
N302 N 0.61123 0.08685 0.26521 0.0
N303 N 0.61326 0.21438 0.26757 0.0
H304 H 0.70175 0.21517 0.31194 0.0
H305 H 0.67839 0.23837 0.31719 0.0
H306 H 0.58981 0.21541 0.25962 0.0
H307 H 0.63621 0.23764 0.25021 0.0
H308 H 0.58733 0.06297 0.25782 0.0
H309 H 0.63372 0.08536 0.24862 0.0
H310 H 0.55051 0.06469 0.33861 0.0
H311 H 0.52709 0.0878 0.34341 0.0
C312 C 0.4881 0.57088 0.38904 0.0
C313 C 0.47292 0.55825 0.4665 0.0
C314 C 0.5229 0.61058 0.53051 0.0
C315 C 0.5382 0.62296 0.45317 0.0
N316 N 0.54104 0.61048 0.3122 0.0
N317 N 0.48052 0.5608 0.61145 0.0
C318 C 0.52259 0.60158 0.38349 0.0
C319 C 0.49189 0.57645 0.53744 0.0
N320 N 0.46881 0.55502 0.3207 0.0
N321 N 0.53666 0.63216 0.59673 0.0
H322 H 0.45807 0.53571 0.61878 0.0
H323 H 0.49519 0.57105 0.66448 0.0
H324 H 0.55946 0.65725 0.59446 0.0
H325 H 0.52402 0.62631 0.65279 0.0
H326 H 0.47688 0.56565 0.26301 0.0
H327 H 0.44334 0.5327 0.32181 0.0
H328 H 0.53264 0.59417 0.2612 0.0
H329 H 0.56661 0.63253 0.30663 0.0
C330 C 0.97384 0.51247 0.61276 0.0
C331 C 0.94075 0.51213 0.61576 0.0
C332 C 0.90911 0.44714 0.62505 0.0
C333 C 0.94213 0.44767 0.63265 0.0
N334 N 1.00612 0.48224 0.65061 0.0
N335 N 0.87777 0.47946 0.64774 0.0
C336 C 0.97465 0.48074 0.63117 0.0
C337 C 0.90863 0.47954 0.62875 0.0
N338 N 1.00424 0.54244 0.58909 0.0
N339 N 0.87824 0.41586 0.61073 0.0
H340 H 0.87659 0.50274 0.65586 0.0
H341 H 0.85446 0.45649 0.66482 0.0
H342 H 0.87755 0.39165 0.6025 0.0
H343 H 0.85408 0.41473 0.59746 0.0
H344 H 1.02818 0.54283 0.57782 0.0
H345 H 1.0048 0.56598 0.5732 0.0
H346 H 1.02999 0.5061 0.65833 0.0
H347 H 1.00772 0.45987 0.66703 0.0
C348 C 0.46713 0.88693 0.79769 0.0
C349 C 0.46692 0.91935 0.78768 0.0
C350 C 0.53205 0.95213 0.80715 0.0
C351 C 0.53239 0.91948 0.80568 0.0
N352 N 0.50031 0.85642 0.77604 0.0
N353 N 0.50066 0.98298 0.76679 0.0
C354 C 0.49993 0.88704 0.794 0.0
C355 C 0.4998 0.95211 0.78804 0.0
N356 N 0.43618 0.85606 0.81402 0.0
N357 N 0.56186 0.98292 0.82989 0.0
H358 H 0.47794 0.98397 0.74986 0.0
H359 H 0.52437 1.0069 0.75825 0.0
H360 H 0.5857 0.98404 0.84645 0.0
H361 H 0.56181 1.00665 0.83984 0.0
H362 H 0.43566 0.83242 0.82879 0.0
H363 H 0.41175 0.85505 0.82256 0.0
H364 H 0.47734 0.83284 0.76007 0.0
H365 H 0.52384 0.85562 0.76741 0.0
C366 C 0.59252 0.47011 0.88246 0.0
C367 C 0.5764 0.44867 0.95162 0.0
C368 C 0.62214 0.49508 0.03762 0.0
C369 C 0.64157 0.5134 0.96741 0.0
N370 N 0.64673 0.51676 0.82181 0.0
N371 N 0.577 0.43927 0.09532 0.0
C372 C 0.62696 0.50082 0.88937 0.0
C373 C 0.59119 0.46094 0.02955 0.0
N374 N 0.57459 0.46129 0.81036 0.0
N375 N 0.633 0.51064 0.112 0.0
H376 H 0.55427 0.41416 0.09222 0.0
H377 H 0.58926 0.44507 0.15191 0.0
H378 H 0.65539 0.53573 0.12013 0.0
H379 H 0.61799 0.50031 0.16443 0.0
H380 H 0.58336 0.47766 0.7596 0.0
H381 H 0.54907 0.43925 0.80374 0.0
H382 H 0.63909 0.50617 0.76386 0.0
H383 H 0.67217 0.53909 0.82392 0.0
C384 C 0.27487 0.49398 0.69751 0.0
C385 C 0.30868 0.4968 0.71086 0.0
C386 C 0.29884 0.49321 0.8568 0.0
C387 C 0.26715 0.49478 0.84368 0.0
N388 N 0.22747 0.50207 0.75277 0.0
N389 N 0.35561 0.50456 0.80245 0.0
C390 C 0.25572 0.49654 0.76434 0.0
C391 C 0.32145 0.49782 0.79032 0.0
N392 N 0.26042 0.48747 0.62147 0.0
N393 N 0.30664 0.48595 0.93221 0.0
H394 H 0.37318 0.50846 0.75518 0.0
H395 H 0.36759 0.50945 0.85929 0.0
H396 H 0.29038 0.4817 0.98241 0.0
H397 H 0.32735 0.48074 0.94353 0.0
H398 H 0.23425 0.48133 0.6097 0.0
H399 H 0.27332 0.4848 0.57088 0.0
H400 H 0.22047 0.50749 0.69642 0.0
H401 H 0.21288 0.50438 0.8003 0.0
C402 C 0.79928 0.26655 0.98088 0.0
C403 C 0.80553 0.24012 0.01502 0.0
C404 C 0.85565 0.25764 0.92256 0.0
C405 C 0.85282 0.28758 0.89808 0.0
N406 N 0.82689 0.3251 0.92143 0.0
N407 N 0.84675 0.21782 0.03287 0.0
C408 C 0.82609 0.29345 0.93241 0.0
C409 C 0.83572 0.23762 0.99018 0.0
N410 N 0.76736 0.2654 0.99211 0.0
N411 N 0.87569 0.24695 0.87955 0.0
H412 H 0.83481 0.20465 0.08644 0.0
H413 H 0.87055 0.21809 0.02013 0.0
H414 H 0.88879 0.25898 0.82596 0.0
H415 H 0.87566 0.22334 0.89203 0.0
H416 H 0.76073 0.28259 0.96261 0.0
H417 H 0.74603 0.24475 0.02284 0.0
H418 H 0.80947 0.33144 0.9511 0.0
H419 H 0.84747 0.34649 0.89075 0.0
C420 C 0.59794 0.77358 0.12295 0.0
C421 C 0.59811 0.78574 0.2026 0.0
C422 C 0.59729 0.83808 0.14981 0.0
C423 C 0.59985 0.82727 0.07039 0.0
N424 N 0.61024 0.78908 0.98144 0.0
N425 N 0.60557 0.83289 0.29288 0.0
C426 C 0.60234 0.79622 0.05686 0.0
C427 C 0.59993 0.81895 0.21646 0.0
N428 N 0.59215 0.73991 0.11024 0.0
N429 N 0.59094 0.8657 0.16156 0.0
H430 H 0.60817 0.81996 0.34341 0.0
H431 H 0.61102 0.8587 0.30522 0.0
H432 H 0.58863 0.8803 0.11415 0.0
H433 H 0.58487 0.87216 0.21782 0.0
H434 H 0.58786 0.72827 0.05315 0.0
H435 H 0.58844 0.72234 0.1572 0.0
H436 H 0.61615 0.76893 0.96987 0.0
H437 H 0.61426 0.80536 0.93152 0.0
C438 C 0.85865 0.57569 0.26898 0.0
C439 C 0.8473 0.57762 0.34825 0.0
C440 C 0.79301 0.57459 0.29462 0.0
C441 C 0.80568 0.57541 0.2152 0.0
N442 N 0.85387 0.58457 0.12606 0.0
N443 N 0.80799 0.58678 0.43649 0.0
C444 C 0.83947 0.57817 0.20203 0.0
C445 C 0.81567 0.57931 0.36118 0.0
N446 N 0.88684 0.57007 0.25757 0.0
N447 N 0.75887 0.56791 0.30665 0.0
H448 H 0.82431 0.59113 0.48673 0.0
H449 H 0.78734 0.59207 0.44765 0.0
H450 H 0.74124 0.56389 0.25933 0.0
H451 H 0.74696 0.56317 0.36347 0.0
H452 H 0.89376 0.56452 0.20127 0.0
H453 H 0.90147 0.56783 0.30519 0.0
H454 H 0.88002 0.59064 0.11441 0.0
H455 H 0.84097 0.58721 0.0754 0.0
C456 C 0.29484 0.82056 0.37702 0.0
C457 C 0.26382 0.78723 0.39211 0.0
C458 C 0.27213 0.79786 0.53771 0.0
C459 C 0.30542 0.82897 0.52264 0.0
N460 N 0.35109 0.86773 0.42895 0.0
N461 N 0.22521 0.74156 0.48583 0.0
C462 C 0.31747 0.83989 0.44254 0.0
C463 C 0.25291 0.77519 0.47221 0.0
N464 N 0.30204 0.83427 0.30043 0.0
N465 N 0.25834 0.79059 0.61428 0.0
H466 H 0.21053 0.72404 0.43934 0.0
H467 H 0.21869 0.72992 0.54293 0.0
H468 H 0.27146 0.80673 0.66392 0.0
H469 H 0.23249 0.77047 0.62744 0.0
H470 H 0.32205 0.86011 0.28725 0.0
H471 H 0.28594 0.82106 0.25076 0.0
H472 H 0.3628 0.8743 0.37187 0.0
H473 H 0.36859 0.88249 0.47544 0.0
C474 C 0.51378 0.25259 0.71229 0.0
C475 C 0.51592 0.28596 0.69872 0.0
C476 C 0.51185 0.27562 0.55285 0.0
C477 C 0.51409 0.24442 0.56615 0.0
N478 N 0.52252 0.20569 0.6572 0.0
N479 N 0.52242 0.33203 0.60674 0.0
C480 C 0.5164 0.23346 0.64553 0.0
C481 C 0.51634 0.29826 0.61915 0.0
N482 N 0.50787 0.23854 0.78852 0.0
N483 N 0.5041 0.28292 0.47743 0.0
H484 H 0.5262 0.3496 0.65386 0.0
H485 H 0.5269 0.34374 0.54978 0.0
H486 H 0.49996 0.26663 0.42738 0.0
H487 H 0.49839 0.30321 0.46598 0.0
H488 H 0.50219 0.21264 0.80057 0.0
H489 H 0.50524 0.25145 0.83909 0.0
H490 H 0.52841 0.19909 0.7135 0.0
H491 H 0.52484 0.1911 0.60972 0.0
C492 C 0.06393 0.36994 0.91041 0.0
C493 C 0.08651 0.4071 0.92222 0.0
C494 C 0.06156 0.41903 0.80016 0.0
C495 C 1.03677 0.38202 0.79212 0.0
N496 N 1.01188 0.32227 0.84345 0.0
N497 N 0.10174 0.4672 0.88816 0.0
C498 C 1.03716 0.35748 0.84866 0.0
C499 C 0.08417 0.43169 0.86936 0.0
N500 N 0.06906 0.34656 0.95607 0.0
N501 N 0.0634 0.44238 0.74218 0.0
H502 H 0.11778 0.47773 0.93933 0.0
H503 H 0.09773 0.48595 0.8577 0.0
H504 H 1.04589 0.43514 0.69339 0.0
H505 H 0.08399 0.46871 0.73919 0.0
H506 H 1.05615 0.31928 0.94524 0.0
H507 H 0.08851 0.35477 0.00115 0.0
H508 H 1.00782 0.30371 0.88814 0.0
H509 H 0.99351 0.31179 0.79607 0.0
C510 C 0.72431 1.03017 0.004 0.0
C511 C 0.68702 1.00749 0.9926 0.0
C512 C 0.6751 1.03217 0.11504 0.0
C513 C 0.71222 0.05707 0.12265 0.0
N514 N 0.77211 0.0822 0.0706 0.0
N515 N 0.62666 0.99187 0.02757 0.0
C516 C 0.7368 0.05684 0.06575 0.0
C517 C 0.66235 1.00962 0.04589 0.0
N518 N 0.74779 1.02525 0.95792 0.0
N519 N 0.65173 1.0302 0.17336 0.0
H520 H 0.61604 0.97584 0.97649 0.0
H521 H 0.60782 0.99572 0.05836 0.0
H522 H 0.659 0.04766 0.22211 0.0
H523 H 0.62537 1.00955 0.17664 0.0
H524 H 0.7752 0.03827 0.9684 0.0
H525 H 0.73956 1.00587 0.91282 0.0
H526 H 0.79066 0.08635 0.02567 0.0
H527 H 0.78263 0.10051 0.11796 0.0
C528 C 0.68697 0.6446 0.19769 0.0
C529 C 0.71576 0.66854 0.14788 0.0
C530 C 0.71813 0.71922 0.22102 0.0
C531 C 0.69152 0.69515 0.27512 0.0
N532 N 0.65292 0.63487 0.32074 0.0
N533 N 0.76166 0.72833 0.1168 0.0
C534 C 0.67687 0.65784 0.26548 0.0
C535 C 0.73207 0.70583 0.16057 0.0
N536 N 0.66767 0.60935 0.17709 0.0
N537 N 0.72981 0.75482 0.22703 0.0
H538 H 0.77243 0.71935 0.07232 0.0
H539 H 0.77712 0.75547 0.12838 0.0
H540 H 0.72138 0.76558 0.27272 0.0
H541 H 0.7461 0.77344 0.18424 0.0
H542 H 0.64395 0.59121 0.20528 0.0
H543 H 0.67327 0.59867 0.12639 0.0
H544 H 0.64501 0.60793 0.32317 0.0
H545 H 0.64249 0.64293 0.36782 0.0
C546 C 0.0796 0.71464 0.35939 0.0
C547 C 0.07978 0.69016 0.30227 0.0
C548 C 1.03105 0.6406 0.37643 0.0
C549 C 1.02892 0.66523 0.42975 0.0
N550 N 1.04741 0.72588 0.46542 0.0
N551 N 1.0523 0.63014 0.24965 0.0
C552 C 1.0523 0.70234 0.41967 0.0
C553 C 1.05427 0.6533 0.3084 0.0
N554 N 0.10555 0.74966 0.3561 0.0
N555 N 1.01262 0.60498 0.39366 0.0
H556 H 0.07013 0.63746 0.20158 0.0
H557 H 1.03134 0.60403 0.24525 0.0
H558 H 0.9961 0.59437 0.44394 0.0
H559 H 1.01636 0.58611 0.36286 0.0
H560 H 0.10966 0.76802 0.40142 0.0
H561 H 0.12442 0.7601 0.30984 0.0
H562 H 0.06098 0.75324 0.45565 0.0
H563 H 1.02752 0.71781 0.50928 0.0
C564 C 0.38963 0.03978 0.49534 0.0
C565 C 0.42687 0.06321 0.48559 0.0
C566 C 0.43878 0.03806 0.60721 0.0
C567 C 0.40181 1.01249 0.61299 0.0
N568 N 0.34218 0.98658 0.55857 0.0
N569 N 0.48735 0.07975 0.52237 0.0
C570 C 0.37729 1.01256 0.55559 0.0
C571 C 0.45157 0.06123 0.53924 0.0
N572 N 0.366 0.04452 0.44929 0.0
N573 N 0.46196 0.04014 0.66625 0.0
H574 H 0.49803 0.09625 0.47217 0.0
H575 H 0.5063 0.07614 0.55343 0.0
H576 H 0.45461 1.02237 0.7143 0.0
H577 H 0.48812 0.06111 0.67088 0.0
H578 H 0.33852 1.03088 0.45879 0.0
H579 H 0.37409 0.06434 0.40545 0.0
H580 H 0.32381 0.98241 0.51306 0.0
H581 H 0.33169 0.96776 0.60479 0.0
C582 C 0.38194 0.36595 0.65653 0.0
C583 C 0.3982 0.40322 0.64394 0.0
C584 C 0.4372 0.41407 0.76165 0.0
C585 C 0.42261 0.37678 0.77118 0.0
N586 N 0.38433 0.31706 0.72291 0.0
N587 N 0.4463 0.46245 0.67331 0.0
C588 C 0.39597 0.35264 0.71698 0.0
C589 C 0.42703 0.42723 0.69385 0.0
N590 N 0.35233 0.3434 0.61265 0.0
N591 N 0.46117 0.43711 0.81702 0.0
H592 H 0.44068 0.47306 0.62254 0.0
H593 H 0.47004 0.48063 0.70159 0.0
H594 H 0.47166 0.42912 0.8641 0.0
H595 H 0.46902 0.46404 0.81952 0.0
H596 H 0.33691 0.31626 0.62413 0.0
H597 H 0.34151 0.35232 0.56815 0.0
H598 H 0.368 0.29838 0.68007 0.0
H599 H 0.3928 0.30635 0.76861 0.0
loop_
_geom_bond_atom_site_label_1
_geom_bond_atom_site_label_2
_geom_bond_distance
_geom_bond_site_symmetry_2
_ccdc_geom_bond_type
O0 Cd1 2.223 . S
O0 C8 1.315 . S
Cd1 O0 2.223 . S
Cd1 O4 2.297 . S
Cd1 O5 2.439 1_554 S
Cd1 O11 2.240 . S
Cd2 O3 2.240 1_556 S
Cd2 O10 2.223 1_556 S
Cd2 O12 2.297 . S
Cd2 O13 2.439 . S
O3 Cd2 2.240 1_554 S
O3 C8 1.279 . S
O4 Cd1 2.297 . S
O4 C6 1.247 1_554 S
O5 Cd1 2.439 1_556 S
O5 C6 1.208 . S
C6 O4 1.247 1_556 S
C6 O5 1.208 . S
C7 O12 1.247 . S
C7 O13 1.208 . S
C8 O0 1.315 . S
C8 O3 1.279 . S
C9 O10 1.315 . S
C9 O11 1.279 . S
O10 Cd2 2.223 1_554 S
O10 C9 1.315 . S
O11 Cd1 2.240 . S
O11 C9 1.279 . S
O12 Cd2 2.297 . S
O12 C7 1.247 . S
O13 Cd2 2.439 . S
O13 C7 1.208 . S
O14 Cd15 2.223 . S
O14 C22 1.315 . S
Cd15 O14 2.223 . S
Cd15 O18 2.297 . S
Cd15 O19 2.439 . S
Cd15 O25 2.240 . S
Cd16 O17 2.240 . S
Cd16 O24 2.223 . S
Cd16 O26 2.297 . S
Cd16 O27 2.439 . S
O17 Cd16 2.240 . S
O17 C22 1.279 . S
O18 Cd15 2.297 . S
O18 C20 1.247 . S
O19 Cd15 2.439 . S
O19 C20 1.208 . S
C20 O18 1.247 . S
C20 O19 1.208 . S
C21 O26 1.247 . S
C21 O27 1.208 . S
C22 O14 1.315 . S
C22 O17 1.279 . S
C23 O24 1.315 . S
C23 O25 1.279 . S
O24 Cd16 2.223 . S
O24 C23 1.315 . S
O25 Cd15 2.240 . S
O25 C23 1.279 . S
O26 Cd16 2.297 . S
O26 C21 1.247 . S
O27 Cd16 2.439 . S
O27 C21 1.208 . S
O28 Cd29 2.223 . S
O28 C36 1.315 . S
Cd29 O28 2.223 . S
Cd29 O32 2.297 . S
Cd29 O33 2.439 . S
Cd29 O39 2.240 . S
Cd30 O31 2.240 . S
Cd30 O38 2.223 . S
Cd30 O40 2.297 . S
Cd30 O41 2.439 . S
O31 Cd30 2.240 . S
O31 C36 1.279 . S
O32 Cd29 2.297 . S
O32 C34 1.247 . S
O33 Cd29 2.439 . S
O33 C34 1.208 . S
C34 O32 1.247 . S
C34 O33 1.208 . S
C35 O40 1.247 . S
C35 O41 1.208 . S
C36 O28 1.315 . S
C36 O31 1.279 . S
C37 O38 1.315 . S
C37 O39 1.279 . S
O38 Cd30 2.223 . S
O38 C37 1.315 . S
O39 Cd29 2.240 . S
O39 C37 1.279 . S
O40 Cd30 2.297 . S
O40 C35 1.247 . S
O41 Cd30 2.439 . S
O41 C35 1.208 . S
O42 Cd43 2.223 . S
O42 C50 1.315 . S
Cd43 O42 2.223 . S
Cd43 O46 2.297 . S
Cd43 O47 2.439 . S
Cd43 O53 2.240 . S
Cd44 O45 2.240 . S
Cd44 O52 2.223 . S
Cd44 O54 2.297 . S
Cd44 O55 2.439 . S
O45 Cd44 2.240 . S
O45 C50 1.279 . S
O46 Cd43 2.297 . S
O46 C48 1.247 . S
O47 Cd43 2.439 . S
O47 C48 1.208 . S
C48 O46 1.247 . S
C48 O47 1.208 . S
C49 O54 1.247 . S
C49 O55 1.208 . S
C50 O42 1.315 . S
C50 O45 1.279 . S
C51 O52 1.315 . S
C51 O53 1.279 . S
O52 Cd44 2.223 . S
O52 C51 1.315 . S
O53 Cd43 2.240 . S
O53 C51 1.279 . S
O54 Cd44 2.297 . S
O54 C49 1.247 . S
O55 Cd44 2.439 . S
O55 C49 1.208 . S
O56 Cd57 2.223 . S
O56 C64 1.315 . S
Cd57 O56 2.223 . S
Cd57 O60 2.297 . S
Cd57 O61 2.439 . S
Cd57 O67 2.240 . S
Cd58 O59 2.240 . S
Cd58 O66 2.223 . S
Cd58 O68 2.297 . S
Cd58 O69 2.439 . S
O59 Cd58 2.240 . S
O59 C64 1.279 . S
O60 Cd57 2.297 . S
O60 C62 1.247 . S
O61 Cd57 2.439 . S
O61 C62 1.208 . S
C62 O60 1.247 . S
C62 O61 1.208 . S
C63 O68 1.247 . S
C63 O69 1.208 . S
C64 O56 1.315 . S
C64 O59 1.279 . S
C65 O66 1.315 . S
C65 O67 1.279 . S
O66 Cd58 2.223 . S
O66 C65 1.315 . S
O67 Cd57 2.240 . S
O67 C65 1.279 . S
O68 Cd58 2.297 . S
O68 C63 1.247 . S
O69 Cd58 2.439 . S
O69 C63 1.208 . S
O70 Cd71 2.223 . S
O70 C78 1.315 . S
Cd71 O70 2.223 . S
Cd71 O74 2.297 . S
Cd71 O75 2.439 . S
Cd71 O81 2.240 . S
Cd72 O73 2.240 . S
Cd72 O80 2.223 . S
Cd72 O82 2.297 . S
Cd72 O83 2.439 . S
O73 Cd72 2.240 . S
O73 C78 1.279 . S
O74 Cd71 2.297 . S
O74 C76 1.247 . S
O75 Cd71 2.439 . S
O75 C76 1.208 . S
C76 O74 1.247 . S
C76 O75 1.208 . S
C77 O82 1.247 . S
C77 O83 1.208 . S
C78 O70 1.315 . S
C78 O73 1.279 . S
C79 O80 1.315 . S
C79 O81 1.279 . S
O80 Cd72 2.223 . S
O80 C79 1.315 . S
O81 Cd71 2.240 . S
O81 C79 1.279 . S
O82 Cd72 2.297 . S
O82 C77 1.247 . S
O83 Cd72 2.439 . S
O83 C77 1.208 . S
O84 Cd85 2.223 . S
O84 C92 1.315 . S
Cd85 O84 2.223 . S
Cd85 O88 2.297 . S
Cd85 O89 2.439 . S
Cd85 O95 2.240 . S
Cd86 O87 2.240 . S
Cd86 O94 2.223 . S
Cd86 O96 2.297 . S
Cd86 O97 2.439 1_556 S
O87 Cd86 2.240 . S
O87 C92 1.279 . S
O88 Cd85 2.297 . S
O88 C90 1.247 . S
O89 Cd85 2.439 . S
O89 C90 1.208 . S
C90 O88 1.247 . S
C90 O89 1.208 . S
C91 O96 1.247 1_554 S
C91 O97 1.208 . S
C92 O84 1.315 . S
C92 O87 1.279 . S
C93 O94 1.315 . S
C93 O95 1.279 . S
O94 Cd86 2.223 . S
O94 C93 1.315 . S
O95 Cd85 2.240 . S
O95 C93 1.279 . S
O96 Cd86 2.297 . S
O96 C91 1.247 1_556 S
O97 Cd86 2.439 1_554 S
O97 C91 1.208 . S
O98 Cd99 2.223 . S
O98 C106 1.315 . S
Cd99 O98 2.223 . S
Cd99 O102 2.297 1_556 S
Cd99 O103 2.439 1_556 S
Cd99 O109 2.240 . S
Cd100 O101 2.240 . S
Cd100 O108 2.223 1_554 S
Cd100 O110 2.297 . S
Cd100 O111 2.439 . S
O101 Cd100 2.240 . S
O101 C106 1.279 1_554 S
O102 Cd99 2.297 1_554 S
O102 C104 1.247 . S
O103 Cd99 2.439 1_554 S
O103 C104 1.208 . S
C104 O102 1.247 . S
C104 O103 1.208 . S
C105 O110 1.247 . S
C105 O111 1.208 . S
C106 O98 1.315 . S
C106 O101 1.279 1_556 S
C107 O108 1.315 . S
C107 O109 1.279 . S
O108 Cd100 2.223 1_556 S
O108 C107 1.315 . S
O109 Cd99 2.240 . S
O109 C107 1.279 . S
O110 Cd100 2.297 . S
O110 C105 1.247 . S
O111 Cd100 2.439 . S
O111 C105 1.208 . S
O112 Cd113 2.223 . S
O112 C120 1.315 . S
Cd113 O112 2.223 . S
Cd113 O116 2.297 . S
Cd113 O117 2.439 . S
Cd113 O123 2.240 . S
Cd114 O115 2.240 . S
Cd114 O122 2.223 . S
Cd114 O124 2.297 . S
Cd114 O125 2.439 . S
O115 Cd114 2.240 . S
O115 C120 1.279 . S
O116 Cd113 2.297 . S
O116 C118 1.247 . S
O117 Cd113 2.439 . S
O117 C118 1.208 . S
C118 O116 1.247 . S
C118 O117 1.208 . S
C119 O124 1.247 . S
C119 O125 1.208 . S
C120 O112 1.315 . S
C120 O115 1.279 . S
C121 O122 1.315 . S
C121 O123 1.279 . S
O122 Cd114 2.223 . S
O122 C121 1.315 . S
O123 Cd113 2.240 . S
O123 C121 1.279 . S
O124 Cd114 2.297 . S
O124 C119 1.247 . S
O125 Cd114 2.439 . S
O125 C119 1.208 . S
O126 Cd127 2.223 . S
O126 C134 1.315 . S
Cd127 O126 2.223 . S
Cd127 O130 2.297 . S
Cd127 O131 2.439 . S
Cd127 O137 2.240 . S
Cd128 O129 2.240 . S
Cd128 O136 2.223 . S
Cd128 O138 2.297 . S
Cd128 O139 2.439 . S
O129 Cd128 2.240 . S
O129 C134 1.279 . S
O130 Cd127 2.297 . S
O130 C132 1.247 . S
O131 Cd127 2.439 . S
O131 C132 1.208 . S
C132 O130 1.247 . S
C132 O131 1.208 . S
C133 O138 1.247 . S
C133 O139 1.208 . S
C134 O126 1.315 . S
C134 O129 1.279 . S
C135 O136 1.315 . S
C135 O137 1.279 . S
O136 Cd128 2.223 . S
O136 C135 1.315 . S
O137 Cd127 2.240 . S
O137 C135 1.279 . S
O138 Cd128 2.297 . S
O138 C133 1.247 . S
O139 Cd128 2.439 . S
O139 C133 1.208 . S
O140 Cd141 2.223 . S
O140 C148 1.315 . S
Cd141 O140 2.223 . S
Cd141 O144 2.297 . S
Cd141 O145 2.439 . S
Cd141 O151 2.240 . S
Cd142 O143 2.240 . S
Cd142 O150 2.223 . S
Cd142 O152 2.297 . S
Cd142 O153 2.439 . S
O143 Cd142 2.240 . S
O143 C148 1.279 . S
O144 Cd141 2.297 . S
O144 C146 1.247 . S
O145 Cd141 2.439 . S
O145 C146 1.208 . S
C146 O144 1.247 . S
C146 O145 1.208 . S
C147 O152 1.247 . S
C147 O153 1.208 . S
C148 O140 1.315 . S
C148 O143 1.279 . S
C149 O150 1.315 . S
C149 O151 1.279 . S
O150 Cd142 2.223 . S
O150 C149 1.315 . S
O151 Cd141 2.240 . S
O151 C149 1.279 . S
O152 Cd142 2.297 . S
O152 C147 1.247 . S
O153 Cd142 2.439 . S
O153 C147 1.208 . S
O154 Cd155 2.223 . S
O154 C162 1.315 . S
Cd155 O154 2.223 . S
Cd155 O158 2.297 . S
Cd155 O159 2.439 . S
Cd155 O165 2.240 . S
Cd156 O157 2.240 . S
Cd156 O164 2.223 . S
Cd156 O166 2.297 . S
Cd156 O167 2.439 . S
O157 Cd156 2.240 . S
O157 C162 1.279 . S
O158 Cd155 2.297 . S
O158 C160 1.247 . S
O159 Cd155 2.439 . S
O159 C160 1.208 . S
C160 O158 1.247 . S
C160 O159 1.208 . S
C161 O166 1.247 . S
C161 O167 1.208 . S
C162 O154 1.315 . S
C162 O157 1.279 . S
C163 O164 1.315 . S
C163 O165 1.279 . S
O164 Cd156 2.223 . S
O164 C163 1.315 . S
O165 Cd155 2.240 . S
O165 C163 1.279 . S
O166 Cd156 2.297 . S
O166 C161 1.247 . S
O167 Cd156 2.439 . S
O167 C161 1.208 . S
C168 C169 1.363 . S
C168 C174 1.379 . S
C168 N176 1.356 . S
C169 C168 1.363 . S
C169 C175 1.363 . S
C170 C171 1.363 . S
C170 C175 1.379 . S
C170 N177 1.356 . S
C171 C170 1.363 . S
C171 C174 1.363 . S
N172 C174 1.356 . S
N172 H184 0.984 . S
N172 H185 0.985 . S
N173 C175 1.356 . S
N173 H178 0.984 . S
N173 H179 0.985 . S
C174 C168 1.379 . S
C174 C171 1.363 . S
C174 N172 1.356 . S
C175 C169 1.363 . S
C175 C170 1.379 . S
C175 N173 1.356 . S
N176 C168 1.356 . S
N176 H182 0.984 . S
N176 H183 0.984 . S
N177 C170 1.356 . S
N177 H180 0.984 . S
N177 H181 0.985 . S
H178 N173 0.984 . S
H179 N173 0.985 . S
H180 N177 0.984 . S
H181 N177 0.985 . S
H182 N176 0.984 . S
H183 N176 0.984 . S
H184 N172 0.984 . S
H185 N172 0.985 . S
C186 C187 1.363 . S
C186 C192 1.379 . S
C186 N194 1.356 . S
C187 C186 1.363 . S
C187 C193 1.363 . S
C188 C189 1.363 . S
C188 C193 1.379 . S
C188 N195 1.356 . S
C189 C188 1.363 . S
C189 C192 1.363 . S
N190 C192 1.356 . S
N190 H202 0.984 . S
N190 H203 0.985 . S
N191 C193 1.356 . S
N191 H196 0.984 . S
N191 H197 0.985 . S
C192 C186 1.379 . S
C192 C189 1.363 . S
C192 N190 1.356 . S
C193 C187 1.363 . S
C193 C188 1.379 . S
C193 N191 1.356 . S
N194 C186 1.356 . S
N194 H200 0.984 . S
N194 H201 0.984 . S
N195 C188 1.356 . S
N195 H198 0.984 . S
N195 H199 0.985 . S
H196 N191 0.984 . S
H197 N191 0.985 . S
H198 N195 0.984 . S
H199 N195 0.985 . S
H200 N194 0.984 . S
H201 N194 0.984 . S
H202 N190 0.984 . S
H203 N190 0.985 . S
C204 C205 1.363 . S
C204 C210 1.379 . S
C204 N212 1.356 . S
C205 C204 1.363 . S
C205 C211 1.363 . S
C206 C207 1.363 . S
C206 C211 1.379 . S
C206 N213 1.356 . S
C207 C206 1.363 . S
C207 C210 1.363 . S
N208 C210 1.356 . S
N208 H220 0.984 . S
N208 H221 0.985 . S
N209 C211 1.356 . S
N209 H214 0.984 . S
N209 H215 0.985 . S
C210 C204 1.379 . S
C210 C207 1.363 . S
C210 N208 1.356 . S
C211 C205 1.363 . S
C211 C206 1.379 . S
C211 N209 1.356 . S
N212 C204 1.356 . S
N212 H218 0.984 . S
N212 H219 0.984 . S
N213 C206 1.356 . S
N213 H216 0.984 . S
N213 H217 0.985 . S
H214 N209 0.984 . S
H215 N209 0.985 . S
H216 N213 0.984 . S
H217 N213 0.985 . S
H218 N212 0.984 . S
H219 N212 0.984 . S
H220 N208 0.984 . S
H221 N208 0.985 . S
C222 C223 1.363 . S
C222 C228 1.379 . S
C222 N230 1.356 . S
C223 C222 1.363 . S
C223 C229 1.363 . S
C224 C225 1.363 . S
C224 C229 1.379 . S
C224 N231 1.356 . S
C225 C224 1.363 . S
C225 C228 1.363 . S
N226 C228 1.356 . S
N226 H238 0.984 . S
N226 H239 0.985 . S
N227 C229 1.356 . S
N227 H232 0.984 . S
N227 H233 0.985 . S
C228 C222 1.379 . S
C228 C225 1.363 . S
C228 N226 1.356 . S
C229 C223 1.363 . S
C229 C224 1.379 . S
C229 N227 1.356 . S
N230 C222 1.356 . S
N230 H236 0.984 . S
N230 H237 0.984 . S
N231 C224 1.356 . S
N231 H234 0.984 . S
N231 H235 0.985 . S
H232 N227 0.984 . S
H233 N227 0.985 . S
H234 N231 0.984 . S
H235 N231 0.985 . S
H236 N230 0.984 . S
H237 N230 0.984 . S
H238 N226 0.984 . S
H239 N226 0.985 . S
C240 C241 1.363 . S
C240 C246 1.379 1_556 S
C240 N248 1.356 . S
C241 C240 1.363 . S
C241 C247 1.363 . S
C242 C243 1.363 1_556 S
C242 C247 1.379 . S
C242 N249 1.356 . S
C243 C242 1.363 1_554 S
C243 C246 1.363 . S
N244 C246 1.356 . S
N244 H256 0.984 . S
N244 H257 0.985 . S
N245 C247 1.356 . S
N245 H250 0.984 . S
N245 H251 0.985 . S
C246 C240 1.379 1_554 S
C246 C243 1.363 . S
C246 N244 1.356 . S
C247 C241 1.363 . S
C247 C242 1.379 . S
C247 N245 1.356 . S
N248 C240 1.356 . S
N248 H254 0.984 1_556 S
N248 H255 0.984 . S
N249 C242 1.356 . S
N249 H252 0.984 . S
N249 H253 0.985 . S
H250 N245 0.984 . S
H251 N245 0.985 . S
H252 N249 0.984 . S
H253 N249 0.985 . S
H254 N248 0.984 1_554 S
H255 N248 0.984 . S
H256 N244 0.984 . S
H257 N244 0.985 . S
C258 C259 1.363 . S
C258 C264 1.379 . S
C258 N266 1.356 . S
C259 C258 1.363 . S
C259 C265 1.363 . S
C260 C261 1.363 . S
C260 C265 1.379 . S
C260 N267 1.356 . S
C261 C260 1.363 . S
C261 C264 1.363 . S
N262 C264 1.356 1_556 S
N262 H274 0.984 . S
N262 H275 0.985 . S
N263 C265 1.356 . S
N263 H268 0.984 . S
N263 H269 0.985 . S
C264 C258 1.379 . S
C264 C261 1.363 . S
C264 N262 1.356 1_554 S
C265 C259 1.363 . S
C265 C260 1.379 . S
C265 N263 1.356 . S
N266 C258 1.356 . S
N266 H272 0.984 . S
N266 H273 0.984 . S
N267 C260 1.356 . S
N267 H270 0.984 . S
N267 H271 0.985 . S
H268 N263 0.984 . S
H269 N263 0.985 . S
H270 N267 0.984 . S
H271 N267 0.985 . S
H272 N266 0.984 . S
H273 N266 0.984 . S
H274 N262 0.984 . S
H275 N262 0.985 . S
C276 C277 1.363 . S
C276 C282 1.379 . S
C276 N284 1.356 . S
C277 C276 1.363 . S
C277 C283 1.363 . S
C278 C279 1.363 . S
C278 C283 1.379 . S
C278 N285 1.356 . S
C279 C278 1.363 . S
C279 C282 1.363 . S
N280 C282 1.356 . S
N280 H292 0.984 1_554 S
N280 H293 0.985 . S
N281 C283 1.356 . S
N281 H286 0.984 . S
N281 H287 0.985 . S
C282 C276 1.379 . S
C282 C279 1.363 . S
C282 N280 1.356 . S
C283 C277 1.363 . S
C283 C278 1.379 . S
C283 N281 1.356 . S
N284 C276 1.356 . S
N284 H290 0.984 1_554 S
N284 H291 0.984 . S
N285 C278 1.356 . S
N285 H288 0.984 . S
N285 H289 0.985 . S
H286 N281 0.984 . S
H287 N281 0.985 . S
H288 N285 0.984 . S
H289 N285 0.985 . S
H290 N284 0.984 1_556 S
H291 N284 0.984 . S
H292 N280 0.984 1_556 S
H293 N280 0.985 . S
C294 C295 1.363 . S
C294 C300 1.379 . S
C294 N302 1.356 . S
C295 C294 1.363 . S
C295 C301 1.363 . S
C296 C297 1.363 . S
C296 C301 1.379 . S
C296 N303 1.356 . S
C297 C296 1.363 . S
C297 C300 1.363 . S
N298 C300 1.356 . S
N298 H310 0.984 . S
N298 H311 0.985 . S
N299 C301 1.356 . S
N299 H304 0.984 . S
N299 H305 0.985 . S
C300 C294 1.379 . S
C300 C297 1.363 . S
C300 N298 1.356 . S
C301 C295 1.363 . S
C301 C296 1.379 . S
C301 N299 1.356 . S
N302 C294 1.356 . S
N302 H308 0.984 . S
N302 H309 0.984 . S
N303 C296 1.356 . S
N303 H306 0.984 . S
N303 H307 0.985 . S
H304 N299 0.984 . S
H305 N299 0.985 . S
H306 N303 0.984 . S
H307 N303 0.985 . S
H308 N302 0.984 . S
H309 N302 0.984 . S
H310 N298 0.984 . S
H311 N298 0.985 . S
C312 C313 1.363 . S
C312 C318 1.379 . S
C312 N320 1.356 . S
C313 C312 1.363 . S
C313 C319 1.363 . S
C314 C315 1.363 . S
C314 C319 1.379 . S
C314 N321 1.356 . S
C315 C314 1.363 . S
C315 C318 1.363 . S
N316 C318 1.356 . S
N316 H328 0.984 . S
N316 H329 0.985 . S
N317 C319 1.356 . S
N317 H322 0.984 . S
N317 H323 0.985 . S
C318 C312 1.379 . S
C318 C315 1.363 . S
C318 N316 1.356 . S
C319 C313 1.363 . S
C319 C314 1.379 . S
C319 N317 1.356 . S
N320 C312 1.356 . S
N320 H326 0.984 . S
N320 H327 0.984 . S
N321 C314 1.356 . S
N321 H324 0.984 . S
N321 H325 0.985 . S
H322 N317 0.984 . S
H323 N317 0.985 . S
H324 N321 0.984 . S
H325 N321 0.985 . S
H326 N320 0.984 . S
H327 N320 0.984 . S
H328 N316 0.984 . S
H329 N316 0.985 . S
C330 C331 1.363 . S
C330 C336 1.379 . S
C330 N338 1.356 . S
C331 C330 1.363 . S
C331 C337 1.363 . S
C332 C333 1.363 . S
C332 C337 1.379 . S
C332 N339 1.356 . S
C333 C332 1.363 . S
C333 C336 1.363 . S
N334 C336 1.356 . S
N334 H346 0.984 . S
N334 H347 0.985 . S
N335 C337 1.356 . S
N335 H340 0.984 . S
N335 H341 0.985 . S
C336 C330 1.379 . S
C336 C333 1.363 . S
C336 N334 1.356 . S
C337 C331 1.363 . S
C337 C332 1.379 . S
C337 N335 1.356 . S
N338 C330 1.356 . S
N338 H344 0.984 . S
N338 H345 0.984 . S
N339 C332 1.356 . S
N339 H342 0.984 . S
N339 H343 0.985 . S
H340 N335 0.984 . S
H341 N335 0.985 . S
H342 N339 0.984 . S
H343 N339 0.985 . S
H344 N338 0.984 . S
H345 N338 0.984 . S
H346 N334 0.984 . S
H347 N334 0.985 . S
C348 C349 1.363 . S
C348 C354 1.379 . S
C348 N356 1.356 . S
C349 C348 1.363 . S
C349 C355 1.363 . S
C350 C351 1.363 . S
C350 C355 1.379 . S
C350 N357 1.356 . S
C351 C350 1.363 . S
C351 C354 1.363 . S
N352 C354 1.356 . S
N352 H364 0.984 . S
N352 H365 0.985 . S
N353 C355 1.356 . S
N353 H358 0.984 . S
N353 H359 0.985 . S
C354 C348 1.379 . S
C354 C351 1.363 . S
C354 N352 1.356 . S
C355 C349 1.363 . S
C355 C350 1.379 . S
C355 N353 1.356 . S
N356 C348 1.356 . S
N356 H362 0.984 . S
N356 H363 0.984 . S
N357 C350 1.356 . S
N357 H360 0.984 . S
N357 H361 0.985 . S
H358 N353 0.984 . S
H359 N353 0.985 . S
H360 N357 0.984 . S
H361 N357 0.985 . S
H362 N356 0.984 . S
H363 N356 0.984 . S
H364 N352 0.984 . S
H365 N352 0.985 . S
C366 C367 1.363 . S
C366 C372 1.379 . S
C366 N374 1.356 . S
C367 C366 1.363 . S
C367 C373 1.363 1_556 S
C368 C369 1.363 1_554 S
C368 C373 1.379 . S
C368 N375 1.356 . S
C369 C368 1.363 1_556 S
C369 C372 1.363 . S
N370 C372 1.356 . S
N370 H382 0.984 . S
N370 H383 0.985 . S
N371 C373 1.356 . S
N371 H376 0.984 . S
N371 H377 0.985 . S
C372 C366 1.379 . S
C372 C369 1.363 . S
C372 N370 1.356 . S
C373 C367 1.363 1_554 S
C373 C368 1.379 . S
C373 N371 1.356 . S
N374 C366 1.356 . S
N374 H380 0.984 . S
N374 H381 0.984 . S
N375 C368 1.356 . S
N375 H378 0.984 . S
N375 H379 0.985 . S
H376 N371 0.984 . S
H377 N371 0.985 . S
H378 N375 0.984 . S
H379 N375 0.985 . S
H380 N374 0.984 . S
H381 N374 0.984 . S
H382 N370 0.984 . S
H383 N370 0.985 . S
C384 C385 1.363 . S
C384 C390 1.379 . S
C384 N392 1.356 . S
C385 C384 1.363 . S
C385 C391 1.363 . S
C386 C387 1.363 . S
C386 C391 1.379 . S
C386 N393 1.356 . S
C387 C386 1.363 . S
C387 C390 1.363 . S
N388 C390 1.356 . S
N388 H400 0.984 . S
N388 H401 0.985 . S
N389 C391 1.356 . S
N389 H394 0.984 . S
N389 H395 0.985 . S
C390 C384 1.379 . S
C390 C387 1.363 . S
C390 N388 1.356 . S
C391 C385 1.363 . S
C391 C386 1.379 . S
C391 N389 1.356 . S
N392 C384 1.356 . S
N392 H398 0.984 . S
N392 H399 0.984 . S
N393 C386 1.356 . S
N393 H396 0.984 . S
N393 H397 0.985 . S
H394 N389 0.984 . S
H395 N389 0.985 . S
H396 N393 0.984 . S
H397 N393 0.985 . S
H398 N392 0.984 . S
H399 N392 0.984 . S
H400 N388 0.984 . S
H401 N388 0.985 . S
C402 C403 1.363 . S
C402 C408 1.379 1_554 S
C402 N410 1.356 . S
C403 C402 1.363 . S
C403 C409 1.363 1_554 S
C404 C405 1.363 . S
C404 C409 1.379 . S
C404 N411 1.356 . S
C405 C404 1.363 . S
C405 C408 1.363 . S
N406 C408 1.356 . S
N406 H418 0.984 . S
N406 H419 0.985 . S
N407 C409 1.356 1_554 S
N407 H412 0.984 . S
N407 H413 0.985 1_554 S
C408 C402 1.379 1_556 S
C408 C405 1.363 . S
C408 N406 1.356 . S
C409 C403 1.363 1_556 S
C409 C404 1.379 . S
C409 N407 1.356 1_556 S
N410 C402 1.356 . S
N410 H416 0.984 . S
N410 H417 0.984 . S
N411 C404 1.356 . S
N411 H414 0.984 . S
N411 H415 0.985 . S
H412 N407 0.984 . S
H413 N407 0.985 1_556 S
H414 N411 0.984 . S
H415 N411 0.985 . S
H416 N410 0.984 . S
H417 N410 0.984 . S
H418 N406 0.984 . S
H419 N406 0.985 . S
C420 C421 1.363 . S
C420 C426 1.379 . S
C420 N428 1.356 . S
C421 C420 1.363 . S
C421 C427 1.363 . S
C422 C423 1.363 . S
C422 C427 1.379 . S
C422 N429 1.356 . S
C423 C422 1.363 . S
C423 C426 1.363 . S
N424 C426 1.356 1_556 S
N424 H436 0.984 . S
N424 H437 0.985 . S
N425 C427 1.356 . S
N425 H430 0.984 . S
N425 H431 0.985 . S
C426 C420 1.379 . S
C426 C423 1.363 . S
C426 N424 1.356 1_554 S
C427 C421 1.363 . S
C427 C422 1.379 . S
C427 N425 1.356 . S
N428 C420 1.356 . S
N428 H434 0.984 . S
N428 H435 0.984 . S
N429 C422 1.356 . S
N429 H432 0.984 . S
N429 H433 0.985 . S
H430 N425 0.984 . S
H431 N425 0.985 . S
H432 N429 0.984 . S
H433 N429 0.985 . S
H434 N428 0.984 . S
H435 N428 0.984 . S
H436 N424 0.984 . S
H437 N424 0.985 . S
C438 C439 1.363 . S
C438 C444 1.379 . S
C438 N446 1.356 . S
C439 C438 1.363 . S
C439 C445 1.363 . S
C440 C441 1.363 . S
C440 C445 1.379 . S
C440 N447 1.356 . S
C441 C440 1.363 . S
C441 C444 1.363 . S
N442 C444 1.356 . S
N442 H454 0.984 . S
N442 H455 0.985 . S
N443 C445 1.356 . S
N443 H448 0.984 . S
N443 H449 0.985 . S
C444 C438 1.379 . S
C444 C441 1.363 . S
C444 N442 1.356 . S
C445 C439 1.363 . S
C445 C440 1.379 . S
C445 N443 1.356 . S
N446 C438 1.356 . S
N446 H452 0.984 . S
N446 H453 0.984 . S
N447 C440 1.356 . S
N447 H450 0.984 . S
N447 H451 0.985 . S
H448 N443 0.984 . S
H449 N443 0.985 . S
H450 N447 0.984 . S
H451 N447 0.985 . S
H452 N446 0.984 . S
H453 N446 0.984 . S
H454 N442 0.984 . S
H455 N442 0.985 . S
C456 C457 1.363 . S
C456 C462 1.379 . S
C456 N464 1.356 . S
C457 C456 1.363 . S
C457 C463 1.363 . S
C458 C459 1.363 . S
C458 C463 1.379 . S
C458 N465 1.356 . S
C459 C458 1.363 . S
C459 C462 1.363 . S
N460 C462 1.356 . S
N460 H472 0.984 . S
N460 H473 0.985 . S
N461 C463 1.356 . S
N461 H466 0.984 . S
N461 H467 0.985 . S
C462 C456 1.379 . S
C462 C459 1.363 . S
C462 N460 1.356 . S
C463 C457 1.363 . S
C463 C458 1.379 . S
C463 N461 1.356 . S
N464 C456 1.356 . S
N464 H470 0.984 . S
N464 H471 0.984 . S
N465 C458 1.356 . S
N465 H468 0.984 . S
N465 H469 0.985 . S
H466 N461 0.984 . S
H467 N461 0.985 . S
H468 N465 0.984 . S
H469 N465 0.985 . S
H470 N464 0.984 . S
H471 N464 0.984 . S
H472 N460 0.984 . S
H473 N460 0.985 . S
C474 C475 1.363 . S
C474 C480 1.379 . S
C474 N482 1.356 . S
C475 C474 1.363 . S
C475 C481 1.363 . S
C476 C477 1.363 . S
C476 C481 1.379 . S
C476 N483 1.356 . S
C477 C476 1.363 . S
C477 C480 1.363 . S
N478 C480 1.356 . S
N478 H490 0.984 . S
N478 H491 0.985 . S
N479 C481 1.356 . S
N479 H484 0.984 . S
N479 H485 0.985 . S
C480 C474 1.379 . S
C480 C477 1.363 . S
C480 N478 1.356 . S
C481 C475 1.363 . S
C481 C476 1.379 . S
C481 N479 1.356 . S
N482 C474 1.356 . S
N482 H488 0.984 . S
N482 H489 0.984 . S
N483 C476 1.356 . S
N483 H486 0.984 . S
N483 H487 0.985 . S
H484 N479 0.984 . S
H485 N479 0.985 . S
H486 N483 0.984 . S
H487 N483 0.985 . S
H488 N482 0.984 . S
H489 N482 0.984 . S
H490 N478 0.984 . S
H491 N478 0.985 . S
C492 C493 1.363 . S
C492 C498 1.379 1_455 S
C492 N500 1.356 . S
C493 C492 1.363 . S
C493 C499 1.363 . S
C494 C495 1.363 . S
C494 C499 1.379 1_655 S
C494 N501 1.356 . S
C495 C494 1.363 . S
C495 C498 1.363 . S
N496 C498 1.356 . S
N496 H508 0.984 . S
N496 H509 0.985 . S
N497 C499 1.356 . S
N497 H502 0.984 . S
N497 H503 0.985 . S
C498 C492 1.379 1_655 S
C498 C495 1.363 . S
C498 N496 1.356 . S
C499 C493 1.363 . S
C499 C494 1.379 1_455 S
C499 N497 1.356 . S
N500 C492 1.356 . S
N500 H506 0.984 . S
N500 H507 0.984 1_556 S
N501 C494 1.356 . S
N501 H504 0.984 . S
N501 H505 0.985 . S
H502 N497 0.984 . S
H503 N497 0.985 . S
H504 N501 0.984 . S
H505 N501 0.985 . S
H506 N500 0.984 . S
H507 N500 0.984 1_554 S
H508 N496 0.984 . S
H509 N496 0.985 . S
C510 C511 1.363 . S
C510 C516 1.379 1_566 S
C510 N518 1.356 . S
C511 C510 1.363 . S
C511 C517 1.363 1_556 S
C512 C513 1.363 . S
C512 C517 1.379 1_545 S
C512 N519 1.356 . S
C513 C512 1.363 . S
C513 C516 1.363 . S
N514 C516 1.356 . S
N514 H526 0.984 . S
N514 H527 0.985 . S
N515 C517 1.356 . S
N515 H520 0.984 1_554 S
N515 H521 0.985 . S
C516 C510 1.379 1_544 S
C516 C513 1.363 . S
C516 N514 1.356 . S
C517 C511 1.363 1_554 S
C517 C512 1.379 1_565 S
C517 N515 1.356 . S
N518 C510 1.356 . S
N518 H524 0.984 . S
N518 H525 0.984 . S
N519 C512 1.356 . S
N519 H522 0.984 . S
N519 H523 0.985 . S
H520 N515 0.984 1_556 S
H521 N515 0.985 . S
H522 N519 0.984 . S
H523 N519 0.985 . S
H524 N518 0.984 . S
H525 N518 0.984 . S
H526 N514 0.984 . S
H527 N514 0.985 . S
C528 C529 1.363 . S
C528 C534 1.379 . S
C528 N536 1.356 . S
C529 C528 1.363 . S
C529 C535 1.363 . S
C530 C531 1.363 . S
C530 C535 1.379 . S
C530 N537 1.356 . S
C531 C530 1.363 . S
C531 C534 1.363 . S
N532 C534 1.356 . S
N532 H544 0.984 . S
N532 H545 0.985 . S
N533 C535 1.356 . S
N533 H538 0.984 . S
N533 H539 0.985 . S
C534 C528 1.379 . S
C534 C531 1.363 . S
C534 N532 1.356 . S
C535 C529 1.363 . S
C535 C530 1.379 . S
C535 N533 1.356 . S
N536 C528 1.356 . S
N536 H542 0.984 . S
N536 H543 0.984 . S
N537 C530 1.356 . S
N537 H540 0.984 . S
N537 H541 0.985 . S
H538 N533 0.984 . S
H539 N533 0.985 . S
H540 N537 0.984 . S
H541 N537 0.985 . S
H542 N536 0.984 . S
H543 N536 0.984 . S
H544 N532 0.984 . S
H545 N532 0.985 . S
C546 C547 1.363 . S
C546 C552 1.379 . S
C546 N554 1.356 . S
C547 C546 1.363 . S
C547 C553 1.363 1_455 S
C548 C549 1.363 . S
C548 C553 1.379 . S
C548 N555 1.356 . S
C549 C548 1.363 . S
C549 C552 1.363 1_655 S
N550 C552 1.356 1_655 S
N550 H562 0.984 1_655 S
N550 H563 0.985 . S
N551 C553 1.356 1_455 S
N551 H556 0.984 . S
N551 H557 0.985 1_455 S
C552 C546 1.379 . S
C552 C549 1.363 1_455 S
C552 N550 1.356 1_455 S
C553 C547 1.363 1_655 S
C553 C548 1.379 . S
C553 N551 1.356 1_655 S
N554 C546 1.356 . S
N554 H560 0.984 . S
N554 H561 0.984 . S
N555 C548 1.356 . S
N555 H558 0.984 . S
N555 H559 0.985 . S
H556 N551 0.984 . S
H557 N551 0.985 1_655 S
H558 N555 0.984 . S
H559 N555 0.985 . S
H560 N554 0.984 . S
H561 N554 0.984 . S
H562 N550 0.984 1_455 S
H563 N550 0.985 . S
C564 C565 1.363 1_565 S
C564 C570 1.379 . S
C564 N572 1.356 1_565 S
C565 C564 1.363 1_545 S
C565 C571 1.363 . S
C566 C567 1.363 1_545 S
C566 C571 1.379 . S
C566 N573 1.356 1_545 S
C567 C566 1.363 1_565 S
C567 C570 1.363 . S
N568 C570 1.356 . S
N568 H580 0.984 . S
N568 H581 0.985 . S
N569 C571 1.356 . S
N569 H574 0.984 . S
N569 H575 0.985 . S
C570 C564 1.379 . S
C570 C567 1.363 . S
C570 N568 1.356 . S
C571 C565 1.363 . S
C571 C566 1.379 . S
C571 N569 1.356 . S
N572 C564 1.356 1_545 S
N572 H578 0.984 1_545 S
N572 H579 0.984 . S
N573 C566 1.356 1_565 S
N573 H576 0.984 . S
N573 H577 0.985 1_565 S
H574 N569 0.984 . S
H575 N569 0.985 . S
H576 N573 0.984 . S
H577 N573 0.985 1_545 S
H578 N572 0.984 1_565 S
H579 N572 0.984 . S
H580 N568 0.984 . S
H581 N568 0.985 . S
C582 C583 1.363 . S
C582 C588 1.379 . S
C582 N590 1.356 . S
C583 C582 1.363 . S
C583 C589 1.363 . S
C584 C585 1.363 . S
C584 C589 1.379 . S
C584 N591 1.356 . S
C585 C584 1.363 . S
C585 C588 1.363 . S
N586 C588 1.356 . S
N586 H598 0.984 . S
N586 H599 0.985 . S
N587 C589 1.356 . S
N587 H592 0.984 . S
N587 H593 0.985 . S
C588 C582 1.379 . S
C588 C585 1.363 . S
C588 N586 1.356 . S
C589 C583 1.363 . S
C589 C584 1.379 . S
C589 N587 1.356 . S
N590 C582 1.356 . S
N590 H596 0.984 . S
N590 H597 0.984 . S
N591 C584 1.356 . S
N591 H594 0.984 . S
N591 H595 0.985 . S
H592 N587 0.984 . S
H593 N587 0.985 . S
H594 N591 0.984 . S
H595 N591 0.985 . S
H596 N590 0.984 . S
H597 N590 0.984 . S
H598 N586 0.984 . S
H599 N586 0.985 . S
C169 C9 1.962 . S
C171 C149 1.962 . S
C187 C163 1.962 . S
C189 C23 1.962 . S
C205 C37 1.962 . S
C207 C93 1.962 . S
C223 C51 1.962 . S
C225 C107 1.962 . S
C241 C65 1.962 . S
C243 C121 1.962 . S
C259 C135 1.962 . S
C261 C79 1.962 1_554 S
C277 C8 1.650 . S
C279 C120 1.650 . S
C295 C22 1.650 . S
C297 C134 1.650 . S
C313 C148 1.650 . S
C315 C36 1.650 . S
C331 C50 1.650 . S
C333 C162 1.650 . S
C349 C64 1.650 . S
C351 C92 1.650 . S
C367 C78 1.650 . S
C369 C106 1.650 . S
C385 C147 0.940 . S
C387 C7 0.940 . S
C403 C21 0.941 . S
C405 C161 0.941 . S
C421 C35 0.941 . S
C423 C91 0.941 . S
C439 C49 0.940 . S
C441 C105 0.940 . S
C457 C119 0.941 . S
C459 C63 0.941 . S
C475 C77 0.941 . S
C477 C133 0.941 . S
C493 C6 1.597 . S
C495 C160 1.597 . S
C511 C90 1.597 . S
C513 C20 1.597 . S
C529 C104 1.597 . S
C531 C34 1.597 . S
C547 C118 1.598 . S
C549 C48 1.598 . S
C565 C132 1.597 . S
C567 C62 1.597 . S
C583 C146 1.597 . S
C585 C76 1.597 . S
