# Generated by pormake.
# Topology uoc, (4)-cn, num edge types: 1
# Building blocks:
#     Node 0, Type 0, BuildingBlock: CEKHIL_clean_sbu_0, # of connection points: 4
#     Node 1, Type 0, BuildingBlock: CEKHIL_clean_sbu_0, # of connection points: 4
#     Node 2, Type 0, BuildingBlock: CEKHIL_clean_sbu_0, # of connection points: 4
#     Node 3, Type 0, BuildingBlock: CEKHIL_clean_sbu_0, # of connection points: 4
#     Node 4, Type 0, BuildingBlock: CEKHIL_clean_sbu_0, # of connection points: 4
#     Node 5, Type 0, BuildingBlock: CEKHIL_clean_sbu_0, # of connection points: 4
#     Node 6, Type 0, BuildingBlock: CEKHIL_clean_sbu_0, # of connection points: 4
#     Node 7, Type 0, BuildingBlock: CEKHIL_clean_sbu_0, # of connection points: 4
#     Edge 8, Type (0, 0), BuildingBlock: TEMPAE_clean_linker_10, # of connection points: 2
#     Edge 9, Type (0, 0), BuildingBlock: TEMPAE_clean_linker_10, # of connection points: 2
#     Edge 10, Type (0, 0), BuildingBlock: TEMPAE_clean_linker_10, # of connection points: 2
#     Edge 11, Type (0, 0), BuildingBlock: TEMPAE_clean_linker_10, # of connection points: 2
#     Edge 12, Type (0, 0), BuildingBlock: TEMPAE_clean_linker_10, # of connection points: 2
#     Edge 13, Type (0, 0), BuildingBlock: TEMPAE_clean_linker_10, # of connection points: 2
#     Edge 14, Type (0, 0), BuildingBlock: TEMPAE_clean_linker_10, # of connection points: 2
#     Edge 15, Type (0, 0), BuildingBlock: TEMPAE_clean_linker_10, # of connection points: 2
#     Edge 16, Type (0, 0), BuildingBlock: TEMPAE_clean_linker_10, # of connection points: 2
#     Edge 17, Type (0, 0), BuildingBlock: TEMPAE_clean_linker_10, # of connection points: 2
#     Edge 18, Type (0, 0), BuildingBlock: TEMPAE_clean_linker_10, # of connection points: 2
#     Edge 19, Type (0, 0), BuildingBlock: TEMPAE_clean_linker_10, # of connection points: 2
#     Edge 20, Type (0, 0), BuildingBlock: TEMPAE_clean_linker_10, # of connection points: 2
#     Edge 21, Type (0, 0), BuildingBlock: TEMPAE_clean_linker_10, # of connection points: 2
#     Edge 22, Type (0, 0), BuildingBlock: TEMPAE_clean_linker_10, # of connection points: 2
#     Edge 23, Type (0, 0), BuildingBlock: TEMPAE_clean_linker_10, # of connection points: 2
# Relax obj value: 0.097
# Max RMSD: 0.108
# Mean RMSD: 0.108
data_MOF--net-uoc--node1-CEKHIL_clean_sbu_0--edge1-TEMPAE_clean_linker_10
_symmetry_space_group_name_H-M    P1
_symmetry_Int_Tables_number       1
_symmetry_cell_setting            triclinic
loop_
_symmetry_equiv_pos_as_xyz
'x, y, z'
_cell_length_a     27.325943
_cell_length_b     27.336718
_cell_length_c     55.210945
_cell_angle_alpha  89.987464
_cell_angle_beta   89.954051
_cell_angle_gamma 92.576278
loop_
_atom_site_label
_atom_site_type_symbol
_atom_site_fract_x
_atom_site_fract_y
_atom_site_fract_z
_atom_type_partial_charge
Co0 Co 0.11145 0.2657 0.11178 0.0
O1 O 0.11916 0.33575 0.11085 0.0
O2 O 0.05359 0.29444 0.12499 0.0
C3 C 0.13786 0.25249 0.07391 0.0
O4 O 0.09022 0.19343 0.11429 0.0
Co5 Co 0.20337 0.20356 0.1075 0.0
O6 O 0.15397 0.14855 0.10384 0.0
C7 C 0.18311 0.25267 0.15342 0.0
C8 C 0.0757 0.33655 0.12023 0.0
C9 C 0.10891 0.15214 0.10926 0.0
O10 O 0.14145 0.26451 0.14499 0.0
O11 O 0.21541 0.23199 0.14066 0.0
O12 O 0.09298 0.26425 0.07776 0.0
O13 O 0.16635 0.25439 0.09261 0.0
Co14 Co 0.76253 0.61432 0.37264 0.0
O15 O 0.83249 0.62406 0.37305 0.0
O16 O 0.79273 0.55749 0.35915 0.0
C17 C 0.75013 0.6401 0.41068 0.0
O18 O 0.69067 0.59104 0.37057 0.0
Co19 Co 0.69686 0.70346 0.37813 0.0
O20 O 0.64525 0.65159 0.38464 0.0
C21 C 0.74491 0.68571 0.33146 0.0
C22 C 0.83439 0.58069 0.3637 0.0
C23 C 0.64971 0.6074 0.37791 0.0
O24 O 0.75942 0.64475 0.33959 0.0
O25 O 0.72279 0.71651 0.34453 0.0
O26 O 0.76269 0.59555 0.40666 0.0
O27 O 0.75028 0.6686 0.392 0.0
Co28 Co 0.38636 0.23366 0.6115 0.0
O29 O 0.3776 0.16367 0.6108 0.0
O30 O 0.44403 0.20418 0.62444 0.0
C31 C 0.35925 0.24666 0.57376 0.0
O32 O 0.40864 0.30571 0.61375 0.0
Co33 Co 0.2958 0.2977 0.6074 0.0
O34 O 0.34651 0.3505 0.60099 0.0
C35 C 0.31604 0.2488 0.65349 0.0
C36 C 0.42121 0.16232 0.61994 0.0
C37 C 0.39119 0.34661 0.60705 0.0
O38 O 0.35705 0.23558 0.64483 0.0
O39 O 0.2842 0.27052 0.64089 0.0
O40 O 0.40407 0.23444 0.57735 0.0
O41 O 0.33126 0.24557 0.59266 0.0
Co42 Co 0.73386 0.8832 0.87376 0.0
O43 O 0.66387 0.87377 0.87546 0.0
O44 O 0.70317 0.94027 0.86106 0.0
C45 C 0.74988 0.85695 0.91133 0.0
O46 O 0.80531 0.90673 0.87054 0.0
Co47 Co 0.79927 0.7935 0.87684 0.0
O48 O 0.85404 0.84365 0.87712 0.0
C49 C 0.74679 0.81225 0.83175 0.0
C50 C 0.66173 0.91723 0.86618 0.0
C51 C 0.84778 0.88885 0.87311 0.0
O52 O 0.73424 0.8535 0.84042 0.0
O53 O 0.7691 0.78065 0.84419 0.0
O54 O 0.73649 0.9014 0.90778 0.0
O55 O 0.74783 0.82852 0.8926 0.0
Co56 Co 0.61544 0.7677 0.61244 0.0
O57 O 0.62558 0.83756 0.61197 0.0
O58 O 0.55847 0.79817 0.6256 0.0
C59 C 0.64185 0.75454 0.57459 0.0
O60 O 0.5919 0.69596 0.61447 0.0
Co61 Co 0.70498 0.70223 0.60789 0.0
O62 O 0.65326 0.65054 0.60126 0.0
C63 C 0.68565 0.75057 0.6542 0.0
C64 C 0.58205 0.83967 0.62115 0.0
C65 C 0.6087 0.65497 0.60746 0.0
O66 O 0.64484 0.76459 0.6457 0.0
O67 O 0.71718 0.72872 0.64146 0.0
O68 O 0.59742 0.76778 0.57837 0.0
O69 O 0.67008 0.75498 0.59339 0.0
Co70 Co 0.26721 0.11363 0.87293 0.0
O71 O 0.3372 0.12327 0.87428 0.0
O72 O 0.29789 0.05639 0.86038 0.0
C73 C 0.25173 0.14045 0.91047 0.0
O74 O 0.19576 0.08991 0.8701 0.0
Co75 Co 0.20166 0.20328 0.87596 0.0
O76 O 0.14694 0.15306 0.87643 0.0
C77 C 0.25406 0.18421 0.83084 0.0
C78 C 0.33935 0.07962 0.86524 0.0
C79 C 0.15329 0.10781 0.87265 0.0
O80 O 0.26628 0.14282 0.83947 0.0
O81 O 0.23215 0.21604 0.84334 0.0
O82 O 0.26515 0.09598 0.90704 0.0
O83 O 0.2534 0.16857 0.89162 0.0
Co84 Co 0.88252 0.73151 0.11379 0.0
O85 O 0.87137 0.66172 0.11312 0.0
O86 O 0.93826 0.70006 0.12757 0.0
C87 C 0.85816 0.74499 0.07563 0.0
O88 O 0.90717 0.8028 0.11633 0.0
Co89 Co 0.79523 0.79945 0.10793 0.0
O90 O 0.8486 0.84942 0.10111 0.0
C91 C 0.81084 0.75073 0.15467 0.0
C92 C 0.91439 0.6589 0.12277 0.0
C93 C 0.89218 0.84387 0.10848 0.0
O94 O 0.85134 0.7349 0.14663 0.0
O95 O 0.78099 0.774 0.14155 0.0
O96 O 0.90225 0.73133 0.07992 0.0
O97 O 0.82911 0.74527 0.09412 0.0
Co98 Co 0.22847 0.3842 0.37301 0.0
O99 O 0.15843 0.37537 0.37395 0.0
O100 O 0.1987 0.44161 0.35993 0.0
C101 C 0.24208 0.35778 0.41082 0.0
O102 O 0.30055 0.40661 0.37051 0.0
Co103 Co 0.2927 0.29383 0.37727 0.0
O104 O 0.34553 0.34465 0.38327 0.0
C105 C 0.24388 0.31362 0.33111 0.0
C106 C 0.1569 0.41884 0.36467 0.0
C107 C 0.34156 0.38927 0.37712 0.0
O108 O 0.23012 0.35442 0.33977 0.0
O109 O 0.26604 0.28212 0.34373 0.0
O110 O 0.22962 0.40246 0.40707 0.0
O111 O 0.24071 0.32944 0.39206 0.0
C112 C 0.20438 0.23027 0.04551 0.0
C113 C 0.1545 0.23618 0.04995 0.0
C114 C 0.22061 0.2152 0.0227 0.0
C115 C 0.18601 0.20525 0.00407 0.0
C116 C 0.13556 0.21079 0.00853 0.0
C117 C 0.12043 0.22649 0.0314 0.0
C118 C 0.27476 0.21007 0.01851 0.0
C119 C 0.09756 0.19987 0.98919 0.0
C120 C 0.22917 0.20704 0.93872 0.0
C121 C 0.23442 0.15711 0.93425 0.0
C122 C 0.2137 0.22331 0.96145 0.0
C123 C 0.20256 0.18867 0.97994 0.0
C124 C 0.20718 0.13814 0.9754 0.0
C125 C 0.22341 0.12299 0.95262 0.0
C126 C 0.20963 0.27753 0.96575 0.0
C127 C 0.1949 0.10011 -0.00543 0.0
H128 H 0.23081 0.23784 0.0598 0.0
H129 H 0.08179 0.23079 0.03481 0.0
H130 H 0.28191 0.17178 0.01346 0.0
H131 H 0.28733 0.23378 0.00321 0.0
H132 H 0.29695 0.2201 0.03477 0.0
H133 H 0.05976 0.20567 -0.00434 0.0
H134 H 0.105 0.22359 0.97318 0.0
H135 H 0.09958 0.16136 0.98306 0.0
H136 H 0.23779 0.2335 0.92454 0.0
H137 H 0.22714 0.0843 0.94916 0.0
H138 H 0.23352 0.28944 0.98109 0.0
H139 H 0.1715 0.28542 0.97081 0.0
H140 H 0.22019 0.29969 0.94955 0.0
H141 H 0.2186 0.10658 0.01066 0.0
H142 H 0.19969 0.06222 0.98797 0.0
H143 H 0.15641 0.10312 0.00061 0.0
C144 C 0.75771 0.65848 0.28892 0.0
C145 C 0.75286 0.69679 0.30552 0.0
C146 C 0.7648 0.66798 0.2642 0.0
C147 C 0.76818 0.71703 0.25597 0.0
C148 C 0.76335 0.75592 0.27261 0.0
C149 C 0.7552 0.74529 0.2972 0.0
C150 C 0.76892 0.62552 0.24692 0.0
C151 C 0.7678 0.8087 0.26452 0.0
C152 C 0.83758 0.73789 0.19721 0.0
C153 C 0.7994 0.74297 0.18057 0.0
C154 C 0.82789 0.73072 0.2219 0.0
C155 C 0.77876 0.72746 0.23006 0.0
C156 C 0.73999 0.73255 0.21337 0.0
C157 C 0.75082 0.74083 0.1888 0.0
C158 C 0.87024 0.72643 0.23923 0.0
C159 C 0.68714 0.72826 0.22139 0.0
H160 H 0.75535 0.62087 0.29521 0.0
H161 H 0.75165 0.77501 0.30999 0.0
H162 H 0.74185 0.62823 0.23207 0.0
H163 H 0.80584 0.62673 0.23852 0.0
H164 H 0.76276 0.58954 0.25606 0.0
H165 H 0.76238 0.83463 0.27968 0.0
H166 H 0.80458 0.81664 0.25653 0.0
H167 H 0.74044 0.81548 0.25022 0.0
H168 H 0.87525 0.74013 0.19098 0.0
H169 H 0.72123 0.74457 0.17596 0.0
H170 H 0.86881 0.68953 0.24764 0.0
H171 H 0.86757 0.75353 0.25408 0.0
H172 H 0.9063 0.73239 0.23014 0.0
H173 H 0.67904 0.69153 0.22937 0.0
H174 H 0.66132 0.73373 0.20619 0.0
H175 H 0.68034 0.75565 0.23568 0.0
C176 C 0.37588 0.27257 0.53112 0.0
C177 C 0.34221 0.26302 0.54988 0.0
C178 C 0.36026 0.28834 0.50835 0.0
C179 C 0.30973 0.29405 0.50422 0.0
C180 C 0.27555 0.28428 0.52308 0.0
C181 C 0.29227 0.26916 0.54578 0.0
C182 C 0.39782 0.29909 0.48875 0.0
C183 C 0.22133 0.28957 0.51925 0.0
C184 C 0.27098 0.37577 0.45282 0.0
C185 C 0.25946 0.34143 0.43463 0.0
C186 C 0.28786 0.36088 0.47551 0.0
C187 C 0.2926 0.3104 0.48016 0.0
C188 C 0.28087 0.27555 0.46187 0.0
C189 C 0.26476 0.29155 0.43921 0.0
C190 C 0.30076 0.39913 0.49448 0.0
C191 C 0.28504 0.22137 0.46628 0.0
H192 H 0.41457 0.26812 0.53429 0.0
H193 H 0.26615 0.26171 0.56024 0.0
H194 H 0.39003 0.2752 0.47285 0.0
H195 H 0.39565 0.33754 0.48254 0.0
H196 H 0.43577 0.29337 0.49499 0.0
H197 H 0.19952 0.27983 0.53569 0.0
H198 H 0.21419 0.32783 0.51413 0.0
H199 H 0.20829 0.2657 0.50411 0.0
H200 H 0.26725 0.41443 0.44926 0.0
H201 H 0.2558 0.26492 0.42517 0.0
H202 H 0.33942 0.39615 0.50021 0.0
H203 H 0.27755 0.39286 0.51078 0.0
H204 H 0.29579 0.43694 0.48782 0.0
H205 H 0.32332 0.21352 0.47105 0.0
H206 H 0.27397 0.19902 0.45023 0.0
H207 H 0.26163 0.20966 0.48185 0.0
C208 C 0.72817 0.84056 0.78988 0.0
C209 C 0.73702 0.80201 0.80584 0.0
C210 C 0.72091 0.83196 0.76509 0.0
C211 C 0.72165 0.78352 0.75611 0.0
C212 C 0.72994 0.74434 0.77214 0.0
C213 C 0.73795 0.7541 0.79681 0.0
C214 C 0.71282 0.87476 0.74847 0.0
C215 C 0.73002 0.6921 0.76325 0.0
C216 C 0.65613 0.75955 0.69656 0.0
C217 C 0.69538 0.75854 0.68022 0.0
C218 C 0.66427 0.76652 0.72139 0.0
C219 C 0.71279 0.7739 0.72999 0.0
C220 C 0.75261 0.77316 0.71357 0.0
C221 C 0.74344 0.76484 0.68887 0.0
C222 C 0.62094 0.76598 0.73842 0.0
C223 C 0.80478 0.78196 0.72206 0.0
H224 H 0.72783 0.87776 0.79666 0.0
H225 H 0.74456 0.72412 0.80905 0.0
H226 H 0.74076 0.87603 0.73386 0.0
H227 H 0.67643 0.87022 0.73967 0.0
H228 H 0.71474 0.91033 0.75823 0.0
H229 H 0.73652 0.66575 0.77811 0.0
H230 H 0.69438 0.68189 0.75459 0.0
H231 H 0.75884 0.68844 0.7493 0.0
H232 H 0.61891 0.75409 0.68997 0.0
H233 H 0.77381 0.76428 0.67623 0.0
H234 H 0.61891 0.80209 0.74743 0.0
H235 H 0.62544 0.73828 0.75285 0.0
H236 H 0.58571 0.7576 0.72894 0.0
H237 H 0.80905 0.81849 0.73076 0.0
H238 H 0.83159 0.78025 0.70697 0.0
H239 H 0.81382 0.75436 0.73589 0.0
C240 C 0.23625 0.25596 0.29589 0.0
C241 C 0.2352 0.30373 0.30509 0.0
C242 C 0.22834 0.24655 0.27118 0.0
C243 C 0.22007 0.28596 0.25527 0.0
C244 C 0.2195 0.33428 0.2644 0.0
C245 C 0.22664 0.34253 0.28921 0.0
C246 C 0.22828 0.19443 0.26213 0.0
C247 C 0.21151 0.37733 0.24792 0.0
C248 C 0.24114 0.26785 0.18793 0.0
C249 C 0.19299 0.26145 0.17939 0.0
C250 C 0.25056 0.27607 0.21262 0.0
C251 C 0.21092 0.2767 0.22914 0.0
C252 C 0.1623 0.2695 0.22064 0.0
C253 C 0.1539 0.26254 0.19583 0.0
C254 C 0.30283 0.2847 0.22099 0.0
C255 C 0.11914 0.26898 0.23778 0.0
H256 H 0.24265 0.22581 0.30807 0.0
H257 H 0.22624 0.37962 0.29612 0.0
H258 H 0.19246 0.18431 0.25362 0.0
H259 H 0.2568 0.19095 0.248 0.0
H260 H 0.23511 0.16791 0.27686 0.0
H261 H 0.21381 0.4128 0.25777 0.0
H262 H 0.23923 0.37856 0.23321 0.0
H263 H 0.17496 0.37314 0.23924 0.0
H264 H 0.27141 0.26724 0.17525 0.0
H265 H 0.11662 0.25704 0.18934 0.0
H266 H 0.31201 0.25679 0.23464 0.0
H267 H 0.30721 0.32103 0.22988 0.0
H268 H 0.32946 0.2833 0.20582 0.0
H269 H 0.12358 0.24096 0.25206 0.0
H270 H 0.08377 0.26104 0.22835 0.0
H271 H 0.11747 0.30494 0.24696 0.0
C272 C 0.62358 0.72846 0.53219 0.0
C273 C 0.6579 0.73718 0.55072 0.0
C274 C 0.63814 0.71178 0.5094 0.0
C275 C 0.68827 0.70426 0.50502 0.0
C276 C 0.72309 0.71302 0.52367 0.0
C277 C 0.70741 0.72912 0.54639 0.0
C278 C 0.5999 0.70218 0.49003 0.0
C279 C 0.77693 0.7058 0.51955 0.0
C280 C 0.72266 0.62206 0.45295 0.0
C281 C 0.73437 0.65641 0.43477 0.0
C282 C 0.70725 0.6371 0.47589 0.0
C283 C 0.70432 0.6877 0.48081 0.0
C284 C 0.71644 0.72254 0.46255 0.0
C285 C 0.73094 0.70642 0.43965 0.0
C286 C 0.69379 0.5989 0.49482 0.0
C287 C 0.71427 0.77683 0.46724 0.0
H288 H 0.5852 0.73435 0.53553 0.0
H289 H 0.73401 0.73587 0.56069 0.0
H290 H 0.60788 0.72612 0.47416 0.0
H291 H 0.60095 0.66373 0.48368 0.0
H292 H 0.56229 0.70877 0.49655 0.0
H293 H 0.7993 0.71446 0.53591 0.0
H294 H 0.78259 0.66735 0.51421 0.0
H295 H 0.79055 0.7295 0.50444 0.0
H296 H 0.72498 0.58332 0.44915 0.0
H297 H 0.74013 0.73305 0.42562 0.0
H298 H 0.6554 0.60284 0.50081 0.0
H299 H 0.71747 0.60434 0.51099 0.0
H300 H 0.69759 0.56103 0.488 0.0
H301 H 0.67641 0.78593 0.47223 0.0
H302 H 0.72582 0.79914 0.45124 0.0
H303 H 0.73829 0.78745 0.48274 0.0
C304 C 0.34548 0.2353 0.69559 0.0
C305 C 0.30627 0.23983 0.67948 0.0
C306 C 0.33727 0.22753 0.72037 0.0
C307 C 0.28865 0.22312 0.72917 0.0
C308 C 0.24885 0.22732 0.713 0.0
C309 C 0.25816 0.23618 0.68834 0.0
C310 C 0.38065 0.22418 0.73714 0.0
C311 C 0.19649 0.22186 0.7217 0.0
C312 C 0.26961 0.15572 0.78869 0.0
C313 C 0.26382 0.19447 0.80495 0.0
C314 C 0.27696 0.16453 0.76392 0.0
C315 C 0.27956 0.21331 0.75528 0.0
C316 C 0.27434 0.25264 0.77161 0.0
C317 C 0.26604 0.24272 0.79625 0.0
C318 C 0.28157 0.12162 0.74696 0.0
C319 C 0.27793 0.30518 0.7631 0.0
H320 H 0.38279 0.23862 0.68888 0.0
H321 H 0.22776 0.23942 0.67593 0.0
H322 H 0.37857 0.25182 0.75178 0.0
H323 H 0.38002 0.18764 0.7459 0.0
H324 H 0.41615 0.23012 0.72752 0.0
H325 H 0.16972 0.22581 0.70678 0.0
H326 H 0.18986 0.18538 0.73022 0.0
H327 H 0.18962 0.24975 0.73574 0.0
H328 H 0.26744 0.11831 0.79526 0.0
H329 H 0.26181 0.27281 0.80875 0.0
H330 H 0.31793 0.12376 0.73798 0.0
H331 H 0.25347 0.12283 0.7325 0.0
H332 H 0.27721 0.08588 0.75648 0.0
H333 H 0.31399 0.31309 0.75434 0.0
H334 H 0.27354 0.33156 0.77816 0.0
H335 H 0.24938 0.31134 0.7493 0.0
C336 C 0.79361 0.76872 0.04657 0.0
C337 C 0.84307 0.76158 0.05147 0.0
C338 C 0.77867 0.78401 0.02359 0.0
C339 C 0.81419 0.79296 0.00526 0.0
C340 C 0.86426 0.7863 0.01019 0.0
C341 C 0.87808 0.77035 0.03323 0.0
C342 C 0.72487 0.79034 0.01891 0.0
C343 C 0.90321 0.79621 0.99117 0.0
C344 C 0.77209 0.79063 0.93978 0.0
C345 C 0.7674 0.84056 0.9351 0.0
C346 C 0.78735 0.77458 0.96258 0.0
C347 C 0.79887 0.80942 0.98091 0.0
C348 C 0.79508 0.85995 0.9761 0.0
C349 C 0.77901 0.87491 0.95328 0.0
C350 C 0.7905 0.72034 0.96715 0.0
C351 C 0.8078 0.89819 -0.0049 0.0
H352 H 0.76645 0.76188 0.06063 0.0
H353 H 0.91642 0.76516 0.03702 0.0
H354 H 0.71883 0.82873 0.01358 0.0
H355 H 0.71233 0.76658 0.00363 0.0
H356 H 0.70187 0.78118 0.03502 0.0
H357 H 0.94059 0.78981 -0.00197 0.0
H358 H 0.89599 0.77235 0.97521 0.0
H359 H 0.90217 0.83468 0.98485 0.0
H360 H 0.76303 0.76401 0.92575 0.0
H361 H 0.77577 0.9136 0.94964 0.0
H362 H 0.76578 0.70902 0.9823 0.0
H363 H 0.82826 0.71199 0.97265 0.0
H364 H 0.78035 0.69804 0.95095 0.0
H365 H 0.78333 0.89285 0.01101 0.0
H366 H 0.80439 0.93605 0.9882 0.0
H367 H 0.84588 0.8942 0.00152 0.0
C368 C 0.09785 0.06077 0.10723 0.0
C369 C 0.07714 0.10661 0.10985 0.0
C370 C 0.06859 0.0173 0.10735 0.0
C371 C 0.01729 0.01953 0.11012 0.0
C372 C 0.99607 0.06553 0.11293 0.0
C373 C 0.02625 0.10852 0.11279 0.0
C374 C 0.09258 0.96896 0.10426 0.0
C375 C 0.94145 0.0693 0.11598 0.0
C376 C 0.93509 0.91359 0.08742 0.0
C377 C 0.92596 0.88717 0.10877 0.0
C378 C 0.96559 0.95627 0.08751 0.0
C379 C 0.9858 0.97371 0.10968 0.0
C380 C 0.97619 0.94718 0.13135 0.0
C381 C 0.94695 0.90363 0.13055 0.0
C382 C 0.97617 0.98267 0.06393 0.0
C383 C 0.99605 0.96526 0.1554 0.0
H384 H 0.13711 0.0587 0.10504 0.0
H385 H 0.00984 0.14367 0.11478 0.0
H386 H 0.08407 0.9449 0.12003 0.0
H387 H 0.07775 0.94986 0.08793 0.0
H388 H 0.13301 0.9735 0.10242 0.0
H389 H 0.93083 0.1077 0.1186 0.0
H390 H 0.92216 0.05413 0.09979 0.0
H391 H 0.92852 0.04723 0.13179 0.0
H392 H 0.91868 0.90052 0.07061 0.0
H393 H 0.93917 0.88324 0.14707 0.0
H394 H 0.0163 0.9862 0.06083 0.0
H395 H 0.96258 0.02026 0.0648 0.0
H396 H 0.95884 0.96341 0.0482 0.0
H397 H 0.03665 0.96819 0.15482 0.0
H398 H 0.98453 0.94074 0.17062 0.0
H399 H 0.98318 0.00245 0.15913 0.0
C400 C 0.10441 0.4797 0.34434 0.0
C401 C 0.10945 0.4416 0.361 0.0
C402 C 0.05926 0.50186 0.3415 0.0
C403 C 0.01893 0.48649 0.35623 0.0
C404 C 0.02388 0.44765 0.37288 0.0
C405 C 0.06884 0.42528 0.3748 0.0
C406 C 0.05494 0.54222 0.32308 0.0
C407 C 0.9823 0.43097 0.38941 0.0
C408 C 0.92312 0.57659 0.37292 0.0
C409 C 0.88208 0.5583 0.36002 0.0
C410 C 0.96817 0.55431 0.37131 0.0
C411 C 0.97275 0.51338 0.35592 0.0
C412 C 0.93202 0.49602 0.34198 0.0
C413 C 0.88683 0.51828 0.34447 0.0
C414 C 0.01023 0.57326 0.38696 0.0
C415 C 0.93591 0.4533 0.32489 0.0
H416 H 0.13565 0.49203 0.33347 0.0
H417 H 0.07266 0.39596 0.3878 0.0
H418 H 0.0222 0.53493 0.31153 0.0
H419 H 0.05003 0.57753 0.33247 0.0
H420 H 0.08783 0.54622 0.31128 0.0
H421 H 0.99179 0.39946 0.40093 0.0
H422 H 0.97243 0.46162 0.40138 0.0
H423 H 0.94933 0.42025 0.37863 0.0
H424 H 0.91961 0.60742 0.38505 0.0
H425 H 0.85528 0.50434 0.33431 0.0
H426 H 0.04294 0.58227 0.37564 0.0
H427 H 0.02034 0.54441 0.39995 0.0
H428 H 0.0011 0.60641 0.39737 0.0
H429 H 0.9685 0.45888 0.31303 0.0
H430 H 0.90283 0.44792 0.31334 0.0
H431 H 0.94077 0.41927 0.33539 0.0
C432 C 0.41218 0.43117 0.59204 0.0
C433 C 0.42366 0.39145 0.60676 0.0
C434 C 0.44184 0.47439 0.59178 0.0
C435 C 0.48354 0.47836 0.60694 0.0
C436 C 0.49531 0.43846 0.6219 0.0
C437 C 0.46548 0.39524 0.62145 0.0
C438 C 0.42866 0.51571 0.57518 0.0
C439 C 0.53916 0.4416 0.63855 0.0
C440 C 0.58593 0.57161 0.59151 0.0
C441 C 0.57565 0.6106 0.60695 0.0
C442 C 0.55593 0.52863 0.59113 0.0
C443 C 0.51516 0.52411 0.60692 0.0
C444 C 0.50452 0.56334 0.62255 0.0
C445 C 0.53463 0.60638 0.6222 0.0
C446 C 0.56786 0.48809 0.57381 0.0
C447 C 0.46173 0.55957 0.63987 0.0
H448 H 0.38014 0.4283 0.58046 0.0
H449 H 0.47436 0.36479 0.63298 0.0
H450 H 0.42198 0.54899 0.58596 0.0
H451 H 0.45963 0.52498 0.56275 0.0
H452 H 0.39552 0.50642 0.56418 0.0
H453 H 0.54271 0.40772 0.64941 0.0
H454 H 0.57317 0.44819 0.62783 0.0
H455 H 0.53622 0.47303 0.6511 0.0
H456 H 0.61732 0.57487 0.5795 0.0
H457 H 0.52672 0.63628 0.63427 0.0
H458 H 0.53597 0.47927 0.5619 0.0
H459 H 0.57544 0.45437 0.58406 0.0
H460 H 0.60011 0.49794 0.56225 0.0
H461 H 0.42708 0.55324 0.62966 0.0
H462 H 0.4588 0.59308 0.65106 0.0
H463 H 0.46551 0.52775 0.6521 0.0
C464 C 0.60865 0.97759 0.84602 0.0
C465 C 0.61413 0.9398 0.86281 0.0
C466 C 0.56352 -0.00018 0.84344 0.0
C467 C 0.52366 0.98485 0.85855 0.0
C468 C 0.52904 0.94633 0.87534 0.0
C469 C 0.57399 0.92385 0.87702 0.0
C470 C 0.55871 0.03982 0.82486 0.0
C471 C 0.48791 0.93008 0.89223 0.0
C472 C 0.42802 0.07553 0.87476 0.0
C473 C 0.387 0.057 0.86193 0.0
C474 C 0.47299 0.05302 0.87335 0.0
C475 C 0.47743 0.0116 0.85826 0.0
C476 C 0.43668 0.99391 0.84445 0.0
C477 C 0.39164 0.01645 0.84671 0.0
C478 C 0.51516 0.07239 0.8888 0.0
C479 C 0.44042 0.95061 0.8277 0.0
H480 H 0.63955 0.98962 0.83486 0.0
H481 H 0.57819 0.89477 0.89011 0.0
H482 H 0.52582 0.03215 0.81346 0.0
H483 H 0.55377 0.07527 0.83411 0.0
H484 H 0.59139 0.04376 0.81291 0.0
H485 H 0.49772 0.89887 0.90388 0.0
H486 H 0.47832 0.96103 0.90407 0.0
H487 H 0.45467 0.91906 0.88171 0.0
H488 H 0.42457 0.10678 0.88663 0.0
H489 H 0.36009 0.00233 0.83659 0.0
H490 H 0.54774 0.0812 0.87736 0.0
H491 H 0.52546 0.04386 0.90192 0.0
H492 H 0.50608 0.10576 0.89905 0.0
H493 H 0.47271 0.95597 0.81563 0.0
H494 H 0.40711 0.94463 0.81636 0.0
H495 H 0.44574 0.917 0.83845 0.0
C496 C 0.97635 0.60561 0.14168 0.0
C497 C 0.93581 0.61078 0.12651 0.0
C498 C 0.99818 0.56021 0.14396 0.0
C499 C 0.97979 0.51963 0.13022 0.0
C500 C 0.93814 0.52451 0.11536 0.0
C501 C 0.91635 0.56983 0.11392 0.0
C502 C 0.04174 0.55601 0.1605 0.0
C503 C 0.91804 0.48258 0.09996 0.0
C504 C 0.06739 0.42419 0.10998 0.0
C505 C 0.05225 0.38356 0.12402 0.0
C506 C 0.04464 0.46886 0.11218 0.0
C507 C 0.00665 0.4735 0.12935 0.0
C508 C 0.99235 0.43308 0.14424 0.0
C509 C 0.01484 0.3882 0.14112 0.0
C510 C 0.06013 0.51055 0.09548 0.0
C511 C 0.95292 0.43711 0.1632 0.0
H512 H 0.99119 0.63709 0.15162 0.0
H513 H 0.88508 0.57363 0.10211 0.0
H514 H 0.03683 0.52317 0.17222 0.0
H515 H 0.07526 0.55148 0.14953 0.0
H516 H 0.04763 0.58884 0.17217 0.0
H517 H 0.88406 0.49173 0.09023 0.0
H518 H 0.94588 0.47269 0.08637 0.0
H519 H 0.90999 0.44973 0.11131 0.0
H520 H 0.09615 0.42064 0.09664 0.0
H521 H 0.00344 0.35691 0.15215 0.0
H522 H 0.07169 0.54339 0.10617 0.0
H523 H 0.02864 0.52057 0.0841 0.0
H524 H 0.09079 0.50115 0.08335 0.0
H525 H 0.96094 0.46957 0.17485 0.0
H526 H 0.94942 0.404 0.17485 0.0
H527 H 0.91716 0.44236 0.15431 0.0
C528 C 0.42743 0.40869 0.39079 0.0
C529 C 0.38646 0.42179 0.37733 0.0
C530 C 0.47059 0.43844 0.39105 0.0
C531 C 0.47319 0.48209 0.37725 0.0
C532 C 0.43206 0.49554 0.36356 0.0
C533 C 0.38901 0.46542 0.36393 0.0
C534 C 0.51332 0.42328 0.40623 0.0
C535 C 0.43368 0.54157 0.34841 0.0
C536 C 0.56736 0.58239 0.39447 0.0
C537 C 0.60536 0.57433 0.37805 0.0
C538 C 0.52438 0.55235 0.39455 0.0
C539 C 0.51879 0.51397 0.37744 0.0
C540 C 0.55698 0.50571 0.36076 0.0
C541 C 0.60012 0.53566 0.36145 0.0
C542 C 0.48503 0.56159 0.41301 0.0
C543 C 0.55202 0.4656 0.34201 0.0
H544 H 0.42566 0.37526 0.40138 0.0
H545 H 0.35762 0.47566 0.35339 0.0
H546 H 0.54579 0.4185 0.39454 0.0
H547 H 0.52338 0.45242 0.41954 0.0
H548 H 0.50513 0.38856 0.41619 0.0
H549 H 0.39897 0.5463 0.33839 0.0
H550 H 0.44084 0.57405 0.36014 0.0
H551 H 0.4642 0.54068 0.33517 0.0
H552 H 0.57146 0.612 0.40748 0.0
H553 H 0.62926 0.52957 0.34862 0.0
H554 H 0.47731 0.52813 0.42399 0.0
H555 H 0.45051 0.57021 0.4037 0.0
H556 H 0.49554 0.59229 0.42541 0.0
H557 H 0.54669 0.42951 0.35104 0.0
H558 H 0.58464 0.46461 0.33002 0.0
H559 H 0.5192 0.47092 0.33064 0.0
C560 C 0.42733 0.07414 0.61021 0.0
C561 C 0.44403 0.11497 0.62371 0.0
C562 C 0.44967 0.02921 0.61224 0.0
C563 C 0.4889 0.02455 0.62867 0.0
C564 C 0.50469 0.06512 0.64311 0.0
C565 C 0.48252 0.11023 0.64017 0.0
C566 C 0.43254 0.98734 0.59602 0.0
C567 C 0.54549 0.0611 0.66131 0.0
C568 C 0.52042 0.89257 0.64065 0.0
C569 C 0.55998 0.88747 0.62483 0.0
C570 C 0.49852 0.9379 0.6432 0.0
C571 C 0.51573 0.97838 0.62903 0.0
C572 C 0.55623 0.97345 0.61337 0.0
C573 C 0.57821 0.92827 0.61172 0.0
C574 C 0.45631 0.9422 0.6606 0.0
C575 C 0.57497 0.01523 0.59747 0.0
H576 H 0.3977 0.07772 0.59737 0.0
H577 H 0.49514 0.14165 0.6508 0.0
H578 H 0.46292 0.97714 0.58393 0.0
H579 H 0.42196 0.95463 0.60704 0.0
H580 H 0.4008 0.99666 0.58462 0.0
H581 H 0.54973 0.09416 0.67295 0.0
H582 H 0.53849 0.02854 0.67303 0.0
H583 H 0.5806 0.05609 0.65173 0.0
H584 H 0.50659 0.86119 0.65099 0.0
H585 H 0.6087 0.92445 0.59939 0.0
H586 H 0.42197 0.9469 0.65033 0.0
H587 H 0.46229 0.975 0.67225 0.0
H588 H 0.45123 0.90937 0.67235 0.0
H589 H 0.54587 0.02524 0.58461 0.0
H590 H 0.60788 0.00587 0.5869 0.0
H591 H 0.58432 0.04806 0.60861 0.0
C592 C 0.89401 0.96574 0.88482 0.0
C593 C 0.89158 0.92201 0.87162 0.0
C594 C 0.93699 0.99588 0.88492 0.0
C595 C 0.97761 0.98271 0.87073 0.0
C596 C 0.97457 0.93926 0.85675 0.0
C597 C 0.93185 0.90888 0.85776 0.0
C598 C 0.9394 0.04107 0.90066 0.0
C599 C 0.01637 0.92489 0.84073 0.0
C600 C 0.07132 0.08496 0.85564 0.0
C601 C 0.1096 0.0746 0.87138 0.0
C602 C 0.02862 0.05454 0.85475 0.0
C603 C 0.02348 0.0141 0.87073 0.0
C604 C 0.06206 0.00386 0.88685 0.0
C605 C 0.10517 0.0338 0.88664 0.0
C606 C 0.9891 0.0656 0.83672 0.0
C607 C 0.05731 0.96206 0.9047 0.0
H608 H 0.86289 0.97542 0.89574 0.0
H609 H 0.92965 0.87507 0.84747 0.0
H610 H 0.97025 0.03914 0.91364 0.0
H611 H 0.94651 0.07418 0.88937 0.0
H612 H 0.90503 0.04549 0.91104 0.0
H613 H 0.00695 0.89158 0.82987 0.0
H614 H 0.02684 0.95534 0.8282 0.0
H615 H 0.04896 0.91783 0.85195 0.0
H616 H 0.07511 0.11658 0.84381 0.0
H617 H 0.13478 0.02636 0.89899 0.0
H618 H 0.95511 0.07469 0.84638 0.0
H619 H 0.98024 0.03282 0.82541 0.0
H620 H 8e-05 0.09667 0.82461 0.0
H621 H 0.0247 0.96643 0.91637 0.0
H622 H 0.09012 0.95991 0.91647 0.0
H623 H 0.05174 0.92682 0.89493 0.0
loop_
_geom_bond_atom_site_label_1
_geom_bond_atom_site_label_2
_geom_bond_distance
_geom_bond_site_symmetry_2
_ccdc_geom_bond_type
Co0 O1 2.216 . S
Co0 O2 2.091 . S
Co0 O4 2.004 . S
Co0 O10 2.021 . S
Co0 O12 2.137 . S
Co0 O13 2.244 . S
O1 Co0 2.216 . S
O1 C8 1.247 . S
O2 Co0 2.091 . S
O2 C8 1.261 . S
C3 O12 1.247 . S
C3 O13 1.272 . S
O4 Co0 2.004 . S
O4 C9 1.259 . S
Co5 O6 2.061 . S
Co5 O11 2.052 . S
Co5 O13 2.135 . S
O6 Co5 2.061 . S
O6 C9 1.235 . S
C7 O10 1.238 . S
C7 O11 1.241 . S
C8 O1 1.247 . S
C8 O2 1.261 . S
C9 O4 1.259 . S
C9 O6 1.235 . S
O10 Co0 2.021 . S
O10 C7 1.238 . S
O11 Co5 2.052 . S
O11 C7 1.241 . S
O12 Co0 2.137 . S
O12 C3 1.247 . S
O13 Co0 2.244 . S
O13 C3 1.272 . S
O13 Co5 2.135 . S
Co14 O15 2.216 . S
Co14 O16 2.091 . S
Co14 O18 2.004 . S
Co14 O24 2.021 . S
Co14 O26 2.137 . S
Co14 O27 2.244 . S
O15 Co14 2.216 . S
O15 C22 1.247 . S
O16 Co14 2.091 . S
O16 C22 1.261 . S
C17 O26 1.247 . S
C17 O27 1.272 . S
O18 Co14 2.004 . S
O18 C23 1.259 . S
Co19 O20 2.061 . S
Co19 O25 2.052 . S
Co19 O27 2.135 . S
O20 Co19 2.061 . S
O20 C23 1.235 . S
C21 O24 1.238 . S
C21 O25 1.241 . S
C22 O15 1.247 . S
C22 O16 1.261 . S
C23 O18 1.259 . S
C23 O20 1.235 . S
O24 Co14 2.021 . S
O24 C21 1.238 . S
O25 Co19 2.052 . S
O25 C21 1.241 . S
O26 Co14 2.137 . S
O26 C17 1.247 . S
O27 Co14 2.244 . S
O27 C17 1.272 . S
O27 Co19 2.135 . S
Co28 O29 2.216 . S
Co28 O30 2.091 . S
Co28 O32 2.004 . S
Co28 O38 2.021 . S
Co28 O40 2.137 . S
Co28 O41 2.244 . S
O29 Co28 2.216 . S
O29 C36 1.247 . S
O30 Co28 2.091 . S
O30 C36 1.261 . S
C31 O40 1.247 . S
C31 O41 1.272 . S
O32 Co28 2.004 . S
O32 C37 1.259 . S
Co33 O34 2.061 . S
Co33 O39 2.052 . S
Co33 O41 2.135 . S
O34 Co33 2.061 . S
O34 C37 1.235 . S
C35 O38 1.238 . S
C35 O39 1.241 . S
C36 O29 1.247 . S
C36 O30 1.261 . S
C37 O32 1.259 . S
C37 O34 1.235 . S
O38 Co28 2.021 . S
O38 C35 1.238 . S
O39 Co33 2.052 . S
O39 C35 1.241 . S
O40 Co28 2.137 . S
O40 C31 1.247 . S
O41 Co28 2.244 . S
O41 C31 1.272 . S
O41 Co33 2.135 . S
Co42 O43 2.216 . S
Co42 O44 2.091 . S
Co42 O46 2.004 . S
Co42 O52 2.021 . S
Co42 O54 2.137 . S
Co42 O55 2.244 . S
O43 Co42 2.216 . S
O43 C50 1.247 . S
O44 Co42 2.091 . S
O44 C50 1.261 . S
C45 O54 1.247 . S
C45 O55 1.272 . S
O46 Co42 2.004 . S
O46 C51 1.259 . S
Co47 O48 2.061 . S
Co47 O53 2.052 . S
Co47 O55 2.135 . S
O48 Co47 2.061 . S
O48 C51 1.235 . S
C49 O52 1.238 . S
C49 O53 1.241 . S
C50 O43 1.247 . S
C50 O44 1.261 . S
C51 O46 1.259 . S
C51 O48 1.235 . S
O52 Co42 2.021 . S
O52 C49 1.238 . S
O53 Co47 2.052 . S
O53 C49 1.241 . S
O54 Co42 2.137 . S
O54 C45 1.247 . S
O55 Co42 2.244 . S
O55 C45 1.272 . S
O55 Co47 2.135 . S
Co56 O57 2.216 . S
Co56 O58 2.091 . S
Co56 O60 2.004 . S
Co56 O66 2.021 . S
Co56 O68 2.137 . S
Co56 O69 2.244 . S
O57 Co56 2.216 . S
O57 C64 1.247 . S
O58 Co56 2.091 . S
O58 C64 1.261 . S
C59 O68 1.247 . S
C59 O69 1.272 . S
O60 Co56 2.004 . S
O60 C65 1.259 . S
Co61 O62 2.061 . S
Co61 O67 2.052 . S
Co61 O69 2.135 . S
O62 Co61 2.061 . S
O62 C65 1.235 . S
C63 O66 1.238 . S
C63 O67 1.241 . S
C64 O57 1.247 . S
C64 O58 1.261 . S
C65 O60 1.259 . S
C65 O62 1.235 . S
O66 Co56 2.021 . S
O66 C63 1.238 . S
O67 Co61 2.052 . S
O67 C63 1.241 . S
O68 Co56 2.137 . S
O68 C59 1.247 . S
O69 Co56 2.244 . S
O69 C59 1.272 . S
O69 Co61 2.135 . S
Co70 O71 2.216 . S
Co70 O72 2.091 . S
Co70 O74 2.004 . S
Co70 O80 2.021 . S
Co70 O82 2.137 . S
Co70 O83 2.244 . S
O71 Co70 2.216 . S
O71 C78 1.247 . S
O72 Co70 2.091 . S
O72 C78 1.261 . S
C73 O82 1.247 . S
C73 O83 1.272 . S
O74 Co70 2.004 . S
O74 C79 1.259 . S
Co75 O76 2.061 . S
Co75 O81 2.052 . S
Co75 O83 2.135 . S
O76 Co75 2.061 . S
O76 C79 1.235 . S
C77 O80 1.238 . S
C77 O81 1.241 . S
C78 O71 1.247 . S
C78 O72 1.261 . S
C79 O74 1.259 . S
C79 O76 1.235 . S
O80 Co70 2.021 . S
O80 C77 1.238 . S
O81 Co75 2.052 . S
O81 C77 1.241 . S
O82 Co70 2.137 . S
O82 C73 1.247 . S
O83 Co70 2.244 . S
O83 C73 1.272 . S
O83 Co75 2.135 . S
Co84 O85 2.216 . S
Co84 O86 2.091 . S
Co84 O88 2.004 . S
Co84 O94 2.021 . S
Co84 O96 2.137 . S
Co84 O97 2.244 . S
O85 Co84 2.216 . S
O85 C92 1.247 . S
O86 Co84 2.091 . S
O86 C92 1.261 . S
C87 O96 1.247 . S
C87 O97 1.272 . S
O88 Co84 2.004 . S
O88 C93 1.259 . S
Co89 O90 2.061 . S
Co89 O95 2.052 . S
Co89 O97 2.135 . S
O90 Co89 2.061 . S
O90 C93 1.235 . S
C91 O94 1.238 . S
C91 O95 1.241 . S
C92 O85 1.247 . S
C92 O86 1.261 . S
C93 O88 1.259 . S
C93 O90 1.235 . S
O94 Co84 2.021 . S
O94 C91 1.238 . S
O95 Co89 2.052 . S
O95 C91 1.241 . S
O96 Co84 2.137 . S
O96 C87 1.247 . S
O97 Co84 2.244 . S
O97 C87 1.272 . S
O97 Co89 2.135 . S
Co98 O99 2.216 . S
Co98 O100 2.091 . S
Co98 O102 2.004 . S
Co98 O108 2.021 . S
Co98 O110 2.137 . S
Co98 O111 2.244 . S
O99 Co98 2.216 . S
O99 C106 1.247 . S
O100 Co98 2.091 . S
O100 C106 1.261 . S
C101 O110 1.247 . S
C101 O111 1.272 . S
O102 Co98 2.004 . S
O102 C107 1.259 . S
Co103 O104 2.061 . S
Co103 O109 2.052 . S
Co103 O111 2.135 . S
O104 Co103 2.061 . S
O104 C107 1.235 . S
C105 O108 1.238 . S
C105 O109 1.241 . S
C106 O99 1.247 . S
C106 O100 1.261 . S
C107 O102 1.259 . S
C107 O104 1.235 . S
O108 Co98 2.021 . S
O108 C105 1.238 . S
O109 Co103 2.052 . S
O109 C105 1.241 . S
O110 Co98 2.137 . S
O110 C101 1.247 . S
O111 Co98 2.244 . S
O111 C101 1.272 . S
O111 Co103 2.135 . S
C112 C113 1.391 . S
C112 C114 1.394 . S
C112 H128 0.931 . S
C113 C112 1.391 . S
C113 C117 1.376 . S
C114 C112 1.394 . S
C114 C115 1.369 . S
C114 C118 1.531 . S
C115 C114 1.369 . S
C115 C116 1.410 . S
C115 C123 1.503 1_554 S
C116 C115 1.410 . S
C116 C117 1.392 . S
C116 C119 1.511 . S
C117 C113 1.376 . S
C117 C116 1.392 . S
C117 H129 0.929 . S
C118 C114 1.531 . S
C118 H130 0.960 . S
C118 H131 0.962 . S
C118 H132 0.960 . S
C119 C116 1.511 . S
C119 H133 0.961 . S
C119 H134 0.961 1_554 S
C119 H135 0.957 1_554 S
C120 C121 1.370 . S
C120 C122 1.363 . S
C120 H136 0.931 . S
C121 C120 1.370 . S
C121 C125 1.408 . S
C122 C120 1.363 . S
C122 C123 1.370 . S
C122 C126 1.524 . S
C123 C115 1.503 1_556 S
C123 C122 1.370 . S
C123 C124 1.403 . S
C124 C123 1.403 . S
C124 C125 1.404 . S
C124 C127 1.539 . S
C125 C121 1.408 . S
C125 C124 1.404 . S
C125 H137 0.930 . S
C126 C122 1.524 . S
C126 H138 0.937 1_556 S
C126 H139 0.961 . S
C126 H140 0.961 . S
C127 C124 1.539 . S
C127 H141 0.958 . S
C127 H142 0.961 . S
C127 H143 0.968 . S
H128 C112 0.931 . S
H129 C117 0.929 . S
H130 C118 0.960 . S
H131 C118 0.962 . S
H132 C118 0.960 . S
H133 C119 0.961 . S
H134 C119 0.961 1_556 S
H135 C119 0.957 1_556 S
H136 C120 0.931 . S
H137 C125 0.930 . S
H138 C126 0.937 1_554 S
H139 C126 0.961 . S
H140 C126 0.961 . S
H141 C127 0.958 . S
H142 C127 0.961 . S
H143 C127 0.968 . S
C144 C145 1.391 . S
C144 C146 1.394 . S
C144 H160 0.931 . S
C145 C144 1.391 . S
C145 C149 1.376 . S
C146 C144 1.394 . S
C146 C147 1.369 . S
C146 C150 1.531 . S
C147 C146 1.369 . S
C147 C148 1.410 . S
C147 C155 1.503 . S
C148 C147 1.410 . S
C148 C149 1.392 . S
C148 C151 1.511 . S
C149 C145 1.376 . S
C149 C148 1.392 . S
C149 H161 0.929 . S
C150 C146 1.531 . S
C150 H162 0.960 . S
C150 H163 0.962 . S
C150 H164 0.960 . S
C151 C148 1.511 . S
C151 H165 0.961 . S
C151 H166 0.961 . S
C151 H167 0.961 . S
C152 C153 1.370 . S
C152 C154 1.363 . S
C152 H168 0.931 . S
C153 C152 1.370 . S
C153 C157 1.408 . S
C154 C152 1.363 . S
C154 C155 1.370 . S
C154 C158 1.524 . S
C155 C147 1.503 . S
C155 C154 1.370 . S
C155 C156 1.403 . S
C156 C155 1.403 . S
C156 C157 1.404 . S
C156 C159 1.539 . S
C157 C153 1.408 . S
C157 C156 1.404 . S
C157 H169 0.930 . S
C158 C154 1.524 . S
C158 H170 0.956 . S
C158 H171 0.961 . S
C158 H172 0.961 . S
C159 C156 1.539 . S
C159 H173 0.958 . S
C159 H174 0.961 . S
C159 H175 0.960 . S
H160 C144 0.931 . S
H161 C149 0.929 . S
H162 C150 0.960 . S
H163 C150 0.962 . S
H164 C150 0.960 . S
H165 C151 0.961 . S
H166 C151 0.961 . S
H167 C151 0.961 . S
H168 C152 0.931 . S
H169 C157 0.930 . S
H170 C158 0.956 . S
H171 C158 0.961 . S
H172 C158 0.961 . S
H173 C159 0.958 . S
H174 C159 0.961 . S
H175 C159 0.960 . S
C176 C177 1.391 . S
C176 C178 1.394 . S
C176 H192 0.931 . S
C177 C176 1.391 . S
C177 C181 1.376 . S
C178 C176 1.394 . S
C178 C179 1.369 . S
C178 C182 1.531 . S
C179 C178 1.369 . S
C179 C180 1.410 . S
C179 C187 1.503 . S
C180 C179 1.410 . S
C180 C181 1.392 . S
C180 C183 1.511 . S
C181 C177 1.376 . S
C181 C180 1.392 . S
C181 H193 0.929 . S
C182 C178 1.531 . S
C182 H194 0.960 . S
C182 H195 0.962 . S
C182 H196 0.960 . S
C183 C180 1.511 . S
C183 H197 0.961 . S
C183 H198 0.961 . S
C183 H199 0.961 . S
C184 C185 1.370 . S
C184 C186 1.363 . S
C184 H200 0.931 . S
C185 C184 1.370 . S
C185 C189 1.408 . S
C186 C184 1.363 . S
C186 C187 1.370 . S
C186 C190 1.524 . S
C187 C179 1.503 . S
C187 C186 1.370 . S
C187 C188 1.403 . S
C188 C187 1.403 . S
C188 C189 1.404 . S
C188 C191 1.539 . S
C189 C185 1.408 . S
C189 C188 1.404 . S
C189 H201 0.930 . S
C190 C186 1.524 . S
C190 H202 0.956 . S
C190 H203 0.961 . S
C190 H204 0.961 . S
C191 C188 1.539 . S
C191 H205 0.958 . S
C191 H206 0.961 . S
C191 H207 0.960 . S
H192 C176 0.931 . S
H193 C181 0.929 . S
H194 C182 0.960 . S
H195 C182 0.962 . S
H196 C182 0.960 . S
H197 C183 0.961 . S
H198 C183 0.961 . S
H199 C183 0.961 . S
H200 C184 0.931 . S
H201 C189 0.930 . S
H202 C190 0.956 . S
H203 C190 0.961 . S
H204 C190 0.961 . S
H205 C191 0.958 . S
H206 C191 0.961 . S
H207 C191 0.960 . S
C208 C209 1.391 . S
C208 C210 1.394 . S
C208 H224 0.931 . S
C209 C208 1.391 . S
C209 C213 1.376 . S
C210 C208 1.394 . S
C210 C211 1.369 . S
C210 C214 1.531 . S
C211 C210 1.369 . S
C211 C212 1.410 . S
C211 C219 1.503 . S
C212 C211 1.410 . S
C212 C213 1.392 . S
C212 C215 1.511 . S
C213 C209 1.376 . S
C213 C212 1.392 . S
C213 H225 0.929 . S
C214 C210 1.531 . S
C214 H226 0.960 . S
C214 H227 0.962 . S
C214 H228 0.960 . S
C215 C212 1.511 . S
C215 H229 0.961 . S
C215 H230 0.961 . S
C215 H231 0.961 . S
C216 C217 1.370 . S
C216 C218 1.363 . S
C216 H232 0.931 . S
C217 C216 1.370 . S
C217 C221 1.408 . S
C218 C216 1.363 . S
C218 C219 1.370 . S
C218 C222 1.524 . S
C219 C211 1.503 . S
C219 C218 1.370 . S
C219 C220 1.403 . S
C220 C219 1.403 . S
C220 C221 1.404 . S
C220 C223 1.539 . S
C221 C217 1.408 . S
C221 C220 1.404 . S
C221 H233 0.930 . S
C222 C218 1.524 . S
C222 H234 0.956 . S
C222 H235 0.961 . S
C222 H236 0.961 . S
C223 C220 1.539 . S
C223 H237 0.958 . S
C223 H238 0.961 . S
C223 H239 0.960 . S
H224 C208 0.931 . S
H225 C213 0.929 . S
H226 C214 0.960 . S
H227 C214 0.962 . S
H228 C214 0.960 . S
H229 C215 0.961 . S
H230 C215 0.961 . S
H231 C215 0.961 . S
H232 C216 0.931 . S
H233 C221 0.930 . S
H234 C222 0.956 . S
H235 C222 0.961 . S
H236 C222 0.961 . S
H237 C223 0.958 . S
H238 C223 0.961 . S
H239 C223 0.960 . S
C240 C241 1.391 . S
C240 C242 1.394 . S
C240 H256 0.931 . S
C241 C240 1.391 . S
C241 C245 1.376 . S
C242 C240 1.394 . S
C242 C243 1.369 . S
C242 C246 1.531 . S
C243 C242 1.369 . S
C243 C244 1.410 . S
C243 C251 1.503 . S
C244 C243 1.410 . S
C244 C245 1.392 . S
C244 C247 1.511 . S
C245 C241 1.376 . S
C245 C244 1.392 . S
C245 H257 0.929 . S
C246 C242 1.531 . S
C246 H258 0.960 . S
C246 H259 0.962 . S
C246 H260 0.960 . S
C247 C244 1.511 . S
C247 H261 0.961 . S
C247 H262 0.961 . S
C247 H263 0.961 . S
C248 C249 1.370 . S
C248 C250 1.363 . S
C248 H264 0.931 . S
C249 C248 1.370 . S
C249 C253 1.408 . S
C250 C248 1.363 . S
C250 C251 1.370 . S
C250 C254 1.524 . S
C251 C243 1.503 . S
C251 C250 1.370 . S
C251 C252 1.403 . S
C252 C251 1.403 . S
C252 C253 1.404 . S
C252 C255 1.539 . S
C253 C249 1.408 . S
C253 C252 1.404 . S
C253 H265 0.930 . S
C254 C250 1.524 . S
C254 H266 0.956 . S
C254 H267 0.961 . S
C254 H268 0.961 . S
C255 C252 1.539 . S
C255 H269 0.958 . S
C255 H270 0.961 . S
C255 H271 0.960 . S
H256 C240 0.931 . S
H257 C245 0.929 . S
H258 C246 0.960 . S
H259 C246 0.962 . S
H260 C246 0.960 . S
H261 C247 0.961 . S
H262 C247 0.961 . S
H263 C247 0.961 . S
H264 C248 0.931 . S
H265 C253 0.930 . S
H266 C254 0.956 . S
H267 C254 0.961 . S
H268 C254 0.961 . S
H269 C255 0.958 . S
H270 C255 0.961 . S
H271 C255 0.960 . S
C272 C273 1.391 . S
C272 C274 1.394 . S
C272 H288 0.931 . S
C273 C272 1.391 . S
C273 C277 1.376 . S
C274 C272 1.394 . S
C274 C275 1.369 . S
C274 C278 1.531 . S
C275 C274 1.369 . S
C275 C276 1.410 . S
C275 C283 1.503 . S
C276 C275 1.410 . S
C276 C277 1.392 . S
C276 C279 1.511 . S
C277 C273 1.376 . S
C277 C276 1.392 . S
C277 H289 0.929 . S
C278 C274 1.531 . S
C278 H290 0.960 . S
C278 H291 0.962 . S
C278 H292 0.960 . S
C279 C276 1.511 . S
C279 H293 0.961 . S
C279 H294 0.961 . S
C279 H295 0.961 . S
C280 C281 1.370 . S
C280 C282 1.363 . S
C280 H296 0.931 . S
C281 C280 1.370 . S
C281 C285 1.408 . S
C282 C280 1.363 . S
C282 C283 1.370 . S
C282 C286 1.524 . S
C283 C275 1.503 . S
C283 C282 1.370 . S
C283 C284 1.403 . S
C284 C283 1.403 . S
C284 C285 1.404 . S
C284 C287 1.539 . S
C285 C281 1.408 . S
C285 C284 1.404 . S
C285 H297 0.930 . S
C286 C282 1.524 . S
C286 H298 0.956 . S
C286 H299 0.961 . S
C286 H300 0.961 . S
C287 C284 1.539 . S
C287 H301 0.958 . S
C287 H302 0.961 . S
C287 H303 0.960 . S
H288 C272 0.931 . S
H289 C277 0.929 . S
H290 C278 0.960 . S
H291 C278 0.962 . S
H292 C278 0.960 . S
H293 C279 0.961 . S
H294 C279 0.961 . S
H295 C279 0.961 . S
H296 C280 0.931 . S
H297 C285 0.930 . S
H298 C286 0.956 . S
H299 C286 0.961 . S
H300 C286 0.961 . S
H301 C287 0.958 . S
H302 C287 0.961 . S
H303 C287 0.960 . S
C304 C305 1.391 . S
C304 C306 1.394 . S
C304 H320 0.931 . S
C305 C304 1.391 . S
C305 C309 1.376 . S
C306 C304 1.394 . S
C306 C307 1.369 . S
C306 C310 1.531 . S
C307 C306 1.369 . S
C307 C308 1.410 . S
C307 C315 1.503 . S
C308 C307 1.410 . S
C308 C309 1.392 . S
C308 C311 1.511 . S
C309 C305 1.376 . S
C309 C308 1.392 . S
C309 H321 0.929 . S
C310 C306 1.531 . S
C310 H322 0.960 . S
C310 H323 0.962 . S
C310 H324 0.960 . S
C311 C308 1.511 . S
C311 H325 0.961 . S
C311 H326 0.961 . S
C311 H327 0.961 . S
C312 C313 1.370 . S
C312 C314 1.363 . S
C312 H328 0.931 . S
C313 C312 1.370 . S
C313 C317 1.408 . S
C314 C312 1.363 . S
C314 C315 1.370 . S
C314 C318 1.524 . S
C315 C307 1.503 . S
C315 C314 1.370 . S
C315 C316 1.403 . S
C316 C315 1.403 . S
C316 C317 1.404 . S
C316 C319 1.539 . S
C317 C313 1.408 . S
C317 C316 1.404 . S
C317 H329 0.930 . S
C318 C314 1.524 . S
C318 H330 0.956 . S
C318 H331 0.961 . S
C318 H332 0.961 . S
C319 C316 1.539 . S
C319 H333 0.958 . S
C319 H334 0.961 . S
C319 H335 0.960 . S
H320 C304 0.931 . S
H321 C309 0.929 . S
H322 C310 0.960 . S
H323 C310 0.962 . S
H324 C310 0.960 . S
H325 C311 0.961 . S
H326 C311 0.961 . S
H327 C311 0.961 . S
H328 C312 0.931 . S
H329 C317 0.930 . S
H330 C318 0.956 . S
H331 C318 0.961 . S
H332 C318 0.961 . S
H333 C319 0.958 . S
H334 C319 0.961 . S
H335 C319 0.960 . S
C336 C337 1.391 . S
C336 C338 1.394 . S
C336 H352 0.931 . S
C337 C336 1.391 . S
C337 C341 1.376 . S
C338 C336 1.394 . S
C338 C339 1.369 . S
C338 C342 1.531 . S
C339 C338 1.369 . S
C339 C340 1.410 . S
C339 C347 1.503 1_554 S
C340 C339 1.410 . S
C340 C341 1.392 . S
C340 C343 1.511 . S
C341 C337 1.376 . S
C341 C340 1.392 . S
C341 H353 0.929 . S
C342 C338 1.531 . S
C342 H354 0.960 . S
C342 H355 0.962 . S
C342 H356 0.960 . S
C343 C340 1.511 . S
C343 H357 0.961 . S
C343 H358 0.961 1_554 S
C343 H359 0.959 1_554 S
C344 C345 1.370 . S
C344 C346 1.363 . S
C344 H360 0.931 . S
C345 C344 1.370 . S
C345 C349 1.408 . S
C346 C344 1.363 . S
C346 C347 1.370 . S
C346 C350 1.524 . S
C347 C339 1.503 1_556 S
C347 C346 1.370 . S
C347 C348 1.403 . S
C348 C347 1.403 . S
C348 C349 1.404 . S
C348 C351 1.539 . S
C349 C345 1.408 . S
C349 C348 1.404 . S
C349 H361 0.930 . S
C350 C346 1.524 . S
C350 H362 0.950 1_556 S
C350 H363 0.961 . S
C350 H364 0.961 . S
C351 C348 1.539 . S
C351 H365 0.958 . S
C351 H366 0.961 . S
C351 H367 0.960 1_556 S
H352 C336 0.931 . S
H353 C341 0.929 . S
H354 C342 0.960 . S
H355 C342 0.962 . S
H356 C342 0.960 . S
H357 C343 0.961 . S
H358 C343 0.961 1_556 S
H359 C343 0.959 1_556 S
H360 C344 0.931 . S
H361 C349 0.930 . S
H362 C350 0.950 1_554 S
H363 C350 0.961 . S
H364 C350 0.961 . S
H365 C351 0.958 . S
H366 C351 0.961 . S
H367 C351 0.960 1_554 S
C368 C369 1.391 . S
C368 C370 1.394 . S
C368 H384 0.931 . S
C369 C368 1.391 . S
C369 C373 1.376 . S
C370 C368 1.394 . S
C370 C371 1.369 . S
C370 C374 1.531 1_545 S
C371 C370 1.369 . S
C371 C372 1.410 1_455 S
C371 C379 1.503 1_445 S
C372 C371 1.410 1_655 S
C372 C373 1.392 1_655 S
C372 C375 1.511 . S
C373 C369 1.376 . S
C373 C372 1.392 1_455 S
C373 H385 0.929 . S
C374 C370 1.531 1_565 S
C374 H386 0.960 . S
C374 H387 0.962 . S
C374 H388 0.960 . S
C375 C372 1.511 . S
C375 H389 0.961 . S
C375 H390 0.961 . S
C375 H391 0.961 . S
C376 C377 1.370 . S
C376 C378 1.363 . S
C376 H392 0.931 . S
C377 C376 1.370 . S
C377 C381 1.408 . S
C378 C376 1.363 . S
C378 C379 1.370 . S
C378 C382 1.524 1_655 S
C379 C371 1.503 1_665 S
C379 C378 1.370 . S
C379 C380 1.403 . S
C380 C379 1.403 . S
C380 C381 1.404 . S
C380 C383 1.539 . S
C381 C377 1.408 . S
C381 C380 1.404 . S
C381 H393 0.930 . S
C382 C378 1.524 1_455 S
C382 H394 0.956 . S
C382 H395 0.981 . S
C382 H396 0.961 . S
C383 C380 1.539 . S
C383 H397 0.958 . S
C383 H398 0.961 . S
C383 H399 0.960 1_565 S
H384 C368 0.931 . S
H385 C373 0.929 . S
H386 C374 0.960 . S
H387 C374 0.962 . S
H388 C374 0.960 . S
H389 C375 0.961 . S
H390 C375 0.961 . S
H391 C375 0.961 . S
H392 C376 0.931 . S
H393 C381 0.930 . S
H394 C382 0.956 . S
H395 C382 0.981 . S
H396 C382 0.961 . S
H397 C383 0.958 . S
H398 C383 0.961 . S
H399 C383 0.960 1_545 S
C400 C401 1.391 . S
C400 C402 1.394 . S
C400 H416 0.931 . S
C401 C400 1.391 . S
C401 C405 1.376 . S
C402 C400 1.394 . S
C402 C403 1.369 . S
C402 C406 1.531 . S
C403 C402 1.369 . S
C403 C404 1.410 . S
C403 C411 1.503 1_455 S
C404 C403 1.410 . S
C404 C405 1.392 . S
C404 C407 1.511 1_455 S
C405 C401 1.376 . S
C405 C404 1.392 . S
C405 H417 0.929 . S
C406 C402 1.531 . S
C406 H418 0.960 . S
C406 H419 0.962 . S
C406 H420 0.960 . S
C407 C404 1.511 1_655 S
C407 H421 0.961 1_655 S
C407 H422 0.961 . S
C407 H423 0.961 . S
C408 C409 1.370 . S
C408 C410 1.363 . S
C408 H424 0.931 . S
C409 C408 1.370 . S
C409 C413 1.408 . S
C410 C408 1.363 . S
C410 C411 1.370 . S
C410 C414 1.524 1_655 S
C411 C403 1.503 1_655 S
C411 C410 1.370 . S
C411 C412 1.403 . S
C412 C411 1.403 . S
C412 C413 1.404 . S
C412 C415 1.539 . S
C413 C409 1.408 . S
C413 C412 1.404 . S
C413 H425 0.930 . S
C414 C410 1.524 1_455 S
C414 H426 0.956 . S
C414 H427 0.961 . S
C414 H428 0.961 . S
C415 C412 1.539 . S
C415 H429 0.958 . S
C415 H430 0.961 . S
C415 H431 0.960 . S
H416 C400 0.931 . S
H417 C405 0.929 . S
H418 C406 0.960 . S
H419 C406 0.962 . S
H420 C406 0.960 . S
H421 C407 0.961 1_455 S
H422 C407 0.961 . S
H423 C407 0.961 . S
H424 C408 0.931 . S
H425 C413 0.930 . S
H426 C414 0.956 . S
H427 C414 0.961 . S
H428 C414 0.961 . S
H429 C415 0.958 . S
H430 C415 0.961 . S
H431 C415 0.960 . S
C432 C433 1.391 . S
C432 C434 1.394 . S
C432 H448 0.931 . S
C433 C432 1.391 . S
C433 C437 1.376 . S
C434 C432 1.394 . S
C434 C435 1.369 . S
C434 C438 1.531 . S
C435 C434 1.369 . S
C435 C436 1.410 . S
C435 C443 1.503 . S
C436 C435 1.410 . S
C436 C437 1.392 . S
C436 C439 1.511 . S
C437 C433 1.376 . S
C437 C436 1.392 . S
C437 H449 0.929 . S
C438 C434 1.531 . S
C438 H450 0.960 . S
C438 H451 0.962 . S
C438 H452 0.960 . S
C439 C436 1.511 . S
C439 H453 0.961 . S
C439 H454 0.961 . S
C439 H455 0.961 . S
C440 C441 1.370 . S
C440 C442 1.363 . S
C440 H456 0.931 . S
C441 C440 1.370 . S
C441 C445 1.408 . S
C442 C440 1.363 . S
C442 C443 1.370 . S
C442 C446 1.524 . S
C443 C435 1.503 . S
C443 C442 1.370 . S
C443 C444 1.403 . S
C444 C443 1.403 . S
C444 C445 1.404 . S
C444 C447 1.539 . S
C445 C441 1.408 . S
C445 C444 1.404 . S
C445 H457 0.930 . S
C446 C442 1.524 . S
C446 H458 0.956 . S
C446 H459 0.961 . S
C446 H460 0.961 . S
C447 C444 1.539 . S
C447 H461 0.958 . S
C447 H462 0.961 . S
C447 H463 0.960 . S
H448 C432 0.931 . S
H449 C437 0.929 . S
H450 C438 0.960 . S
H451 C438 0.962 . S
H452 C438 0.960 . S
H453 C439 0.961 . S
H454 C439 0.961 . S
H455 C439 0.961 . S
H456 C440 0.931 . S
H457 C445 0.930 . S
H458 C446 0.956 . S
H459 C446 0.961 . S
H460 C446 0.961 . S
H461 C447 0.958 . S
H462 C447 0.961 . S
H463 C447 0.960 . S
C464 C465 1.391 . S
C464 C466 1.394 . S
C464 H480 0.931 . S
C465 C464 1.391 . S
C465 C469 1.376 . S
C466 C464 1.394 . S
C466 C467 1.369 . S
C466 C470 1.531 . S
C467 C466 1.369 . S
C467 C468 1.410 . S
C467 C475 1.503 1_565 S
C468 C467 1.410 . S
C468 C469 1.392 . S
C468 C471 1.511 . S
C469 C465 1.376 . S
C469 C468 1.392 . S
C469 H481 0.929 . S
C470 C466 1.531 . S
C470 H482 0.960 . S
C470 H483 0.962 1_565 S
C470 H484 0.960 . S
C471 C468 1.511 . S
C471 H485 0.961 . S
C471 H486 0.961 . S
C471 H487 0.961 . S
C472 C473 1.370 . S
C472 C474 1.363 . S
C472 H488 0.931 . S
C473 C472 1.370 . S
C473 C477 1.408 . S
C474 C472 1.363 . S
C474 C475 1.370 . S
C474 C478 1.524 . S
C475 C467 1.503 1_545 S
C475 C474 1.370 . S
C475 C476 1.403 1_545 S
C476 C475 1.403 1_565 S
C476 C477 1.404 1_565 S
C476 C479 1.539 . S
C477 C473 1.408 . S
C477 C476 1.404 1_545 S
C477 H489 0.930 . S
C478 C474 1.524 . S
C478 H490 0.956 . S
C478 H491 0.961 . S
C478 H492 0.961 . S
C479 C476 1.539 . S
C479 H493 0.958 . S
C479 H494 0.961 . S
C479 H495 0.960 . S
H480 C464 0.931 . S
H481 C469 0.929 . S
H482 C470 0.960 . S
H483 C470 0.962 1_545 S
H484 C470 0.960 . S
H485 C471 0.961 . S
H486 C471 0.961 . S
H487 C471 0.961 . S
H488 C472 0.931 . S
H489 C477 0.930 . S
H490 C478 0.956 . S
H491 C478 0.961 . S
H492 C478 0.961 . S
H493 C479 0.958 . S
H494 C479 0.961 . S
H495 C479 0.960 . S
C496 C497 1.391 . S
C496 C498 1.394 1_655 S
C496 H512 0.931 . S
C497 C496 1.391 . S
C497 C501 1.376 . S
C498 C496 1.394 1_455 S
C498 C499 1.369 1_455 S
C498 C502 1.531 . S
C499 C498 1.369 1_655 S
C499 C500 1.410 . S
C499 C507 1.503 1_655 S
C500 C499 1.410 . S
C500 C501 1.392 . S
C500 C503 1.511 . S
C501 C497 1.376 . S
C501 C500 1.392 . S
C501 H513 0.929 . S
C502 C498 1.531 . S
C502 H514 0.960 . S
C502 H515 0.962 . S
C502 H516 0.960 . S
C503 C500 1.511 . S
C503 H517 0.961 . S
C503 H518 0.961 . S
C503 H519 0.961 . S
C504 C505 1.370 . S
C504 C506 1.363 . S
C504 H520 0.931 . S
C505 C504 1.370 . S
C505 C509 1.408 . S
C506 C504 1.363 . S
C506 C507 1.370 . S
C506 C510 1.524 . S
C507 C499 1.503 1_455 S
C507 C506 1.370 . S
C507 C508 1.403 . S
C508 C507 1.403 . S
C508 C509 1.404 . S
C508 C511 1.539 . S
C509 C505 1.408 . S
C509 C508 1.404 . S
C509 H521 0.930 . S
C510 C506 1.524 . S
C510 H522 0.956 . S
C510 H523 0.961 1_455 S
C510 H524 0.961 . S
C511 C508 1.539 . S
C511 H525 0.958 . S
C511 H526 0.961 . S
C511 H527 0.960 1_455 S
H512 C496 0.931 . S
H513 C501 0.929 . S
H514 C502 0.960 . S
H515 C502 0.962 . S
H516 C502 0.960 . S
H517 C503 0.961 . S
H518 C503 0.961 . S
H519 C503 0.961 . S
H520 C504 0.931 . S
H521 C509 0.930 . S
H522 C510 0.956 . S
H523 C510 0.961 1_655 S
H524 C510 0.961 . S
H525 C511 0.958 . S
H526 C511 0.961 . S
H527 C511 0.960 1_655 S
C528 C529 1.391 . S
C528 C530 1.394 . S
C528 H544 0.931 . S
C529 C528 1.391 . S
C529 C533 1.376 . S
C530 C528 1.394 . S
C530 C531 1.369 . S
C530 C534 1.531 . S
C531 C530 1.369 . S
C531 C532 1.410 . S
C531 C539 1.503 . S
C532 C531 1.410 . S
C532 C533 1.392 . S
C532 C535 1.511 . S
C533 C529 1.376 . S
C533 C532 1.392 . S
C533 H545 0.929 . S
C534 C530 1.531 . S
C534 H546 0.960 . S
C534 H547 0.962 . S
C534 H548 0.960 . S
C535 C532 1.511 . S
C535 H549 0.961 . S
C535 H550 0.961 . S
C535 H551 0.961 . S
C536 C537 1.370 . S
C536 C538 1.363 . S
C536 H552 0.931 . S
C537 C536 1.370 . S
C537 C541 1.408 . S
C538 C536 1.363 . S
C538 C539 1.370 . S
C538 C542 1.524 . S
C539 C531 1.503 . S
C539 C538 1.370 . S
C539 C540 1.403 . S
C540 C539 1.403 . S
C540 C541 1.404 . S
C540 C543 1.539 . S
C541 C537 1.408 . S
C541 C540 1.404 . S
C541 H553 0.930 . S
C542 C538 1.524 . S
C542 H554 0.956 . S
C542 H555 0.961 . S
C542 H556 0.961 . S
C543 C540 1.539 . S
C543 H557 0.958 . S
C543 H558 0.961 . S
C543 H559 0.960 . S
H544 C528 0.931 . S
H545 C533 0.929 . S
H546 C534 0.960 . S
H547 C534 0.962 . S
H548 C534 0.960 . S
H549 C535 0.961 . S
H550 C535 0.961 . S
H551 C535 0.961 . S
H552 C536 0.931 . S
H553 C541 0.930 . S
H554 C542 0.956 . S
H555 C542 0.961 . S
H556 C542 0.961 . S
H557 C543 0.958 . S
H558 C543 0.961 . S
H559 C543 0.960 . S
C560 C561 1.391 . S
C560 C562 1.394 . S
C560 H576 0.931 . S
C561 C560 1.391 . S
C561 C565 1.376 . S
C562 C560 1.394 . S
C562 C563 1.369 . S
C562 C566 1.531 1_545 S
C563 C562 1.369 . S
C563 C564 1.410 . S
C563 C571 1.503 1_545 S
C564 C563 1.410 . S
C564 C565 1.392 . S
C564 C567 1.511 . S
C565 C561 1.376 . S
C565 C564 1.392 . S
C565 H577 0.929 . S
C566 C562 1.531 1_565 S
C566 H578 0.960 . S
C566 H579 0.962 . S
C566 H580 0.956 1_565 S
C567 C564 1.511 . S
C567 H581 0.961 . S
C567 H582 0.961 . S
C567 H583 0.961 . S
C568 C569 1.370 . S
C568 C570 1.363 . S
C568 H584 0.931 . S
C569 C568 1.370 . S
C569 C573 1.408 . S
C570 C568 1.363 . S
C570 C571 1.370 . S
C570 C574 1.524 . S
C571 C563 1.503 1_565 S
C571 C570 1.370 . S
C571 C572 1.403 . S
C572 C571 1.403 . S
C572 C573 1.404 . S
C572 C575 1.539 1_565 S
C573 C569 1.408 . S
C573 C572 1.404 . S
C573 H585 0.930 . S
C574 C570 1.524 . S
C574 H586 0.956 . S
C574 H587 0.961 . S
C574 H588 0.961 . S
C575 C572 1.539 1_545 S
C575 H589 0.958 . S
C575 H590 0.961 . S
C575 H591 0.960 . S
H576 C560 0.931 . S
H577 C565 0.929 . S
H578 C566 0.960 . S
H579 C566 0.962 . S
H580 C566 0.956 1_545 S
H581 C567 0.961 . S
H582 C567 0.961 . S
H583 C567 0.961 . S
H584 C568 0.931 . S
H585 C573 0.930 . S
H586 C574 0.956 . S
H587 C574 0.961 . S
H588 C574 0.961 . S
H589 C575 0.958 . S
H590 C575 0.961 . S
H591 C575 0.960 . S
C592 C593 1.391 . S
C592 C594 1.394 . S
C592 H608 0.931 . S
C593 C592 1.391 . S
C593 C597 1.376 . S
C594 C592 1.394 . S
C594 C595 1.369 . S
C594 C598 1.531 1_565 S
C595 C594 1.369 . S
C595 C596 1.410 . S
C595 C603 1.503 1_665 S
C596 C595 1.410 . S
C596 C597 1.392 . S
C596 C599 1.511 1_655 S
C597 C593 1.376 . S
C597 C596 1.392 . S
C597 H609 0.929 . S
C598 C594 1.531 1_545 S
C598 H610 0.960 . S
C598 H611 0.962 . S
C598 H612 0.960 . S
C599 C596 1.511 1_455 S
C599 H613 0.961 . S
C599 H614 0.961 . S
C599 H615 0.961 . S
C600 C601 1.370 . S
C600 C602 1.363 . S
C600 H616 0.931 . S
C601 C600 1.370 . S
C601 C605 1.408 . S
C602 C600 1.363 . S
C602 C603 1.370 . S
C602 C606 1.524 1_455 S
C603 C595 1.503 1_445 S
C603 C602 1.370 . S
C603 C604 1.403 . S
C604 C603 1.403 . S
C604 C605 1.404 . S
C604 C607 1.539 1_545 S
C605 C601 1.408 . S
C605 C604 1.404 . S
C605 H617 0.930 . S
C606 C602 1.524 1_655 S
C606 H618 0.956 . S
C606 H619 0.961 . S
C606 H620 0.956 1_655 S
C607 C604 1.539 1_565 S
C607 H621 0.958 . S
C607 H622 0.961 . S
C607 H623 0.960 . S
H608 C592 0.931 . S
H609 C597 0.929 . S
H610 C598 0.960 . S
H611 C598 0.962 . S
H612 C598 0.960 . S
H613 C599 0.961 . S
H614 C599 0.961 . S
H615 C599 0.961 . S
H616 C600 0.931 . S
H617 C605 0.930 . S
H618 C606 0.956 . S
H619 C606 0.961 . S
H620 C606 0.956 1_455 S
H621 C607 0.958 . S
H622 C607 0.961 . S
H623 C607 0.960 . S
C113 C3 1.193 . S
C121 C73 1.204 . S
C145 C21 1.209 . S
C153 C91 1.232 . S
C177 C31 1.224 . S
C185 C101 1.222 . S
C209 C49 1.215 . S
C217 C63 1.238 . S
C241 C105 1.243 . S
C249 C7 1.225 . S
C273 C59 1.234 . S
C281 C17 1.217 . S
C305 C35 1.211 . S
C313 C77 1.229 . S
C337 C87 1.193 . S
C345 C45 1.204 . S
C369 C9 1.584 . S
C377 C93 1.580 . S
C401 C106 1.585 . S
C409 C22 1.573 . S
C433 C37 1.578 . S
C441 C65 1.583 . S
C465 C50 1.587 . S
C473 C78 1.573 . S
C497 C92 1.574 . S
C505 C8 1.576 . S
C529 C107 1.583 . S
C537 C23 1.581 . S
C561 C36 1.566 . S
C569 C64 1.583 . S
C593 C51 1.567 . S
C601 C79 1.579 . S
