# Generated by pormake.
# Topology wio, (6)-cn, num edge types: 1
# Building blocks:
#     Node 0, Type 0, BuildingBlock: FUNLAD_clean_sbu_0, # of connection points: 6
#     Node 1, Type 0, BuildingBlock: FUNLAD_clean_sbu_0, # of connection points: 6
#     Node 2, Type 0, BuildingBlock: FUNLAD_clean_sbu_0, # of connection points: 6
#     Node 3, Type 0, BuildingBlock: FUNLAD_clean_sbu_0, # of connection points: 6
#     Node 4, Type 0, BuildingBlock: FUNLAD_clean_sbu_0, # of connection points: 6
#     Node 5, Type 0, BuildingBlock: FUNLAD_clean_sbu_0, # of connection points: 6
#     Node 6, Type 0, BuildingBlock: FUNLAD_clean_sbu_0, # of connection points: 6
#     Node 7, Type 0, BuildingBlock: FUNLAD_clean_sbu_0, # of connection points: 6
#     Node 8, Type 0, BuildingBlock: FUNLAD_clean_sbu_0, # of connection points: 6
#     Node 9, Type 0, BuildingBlock: FUNLAD_clean_sbu_0, # of connection points: 6
#     Node 10, Type 0, BuildingBlock: FUNLAD_clean_sbu_0, # of connection points: 6
#     Node 11, Type 0, BuildingBlock: FUNLAD_clean_sbu_0, # of connection points: 6
#     Node 12, Type 0, BuildingBlock: FUNLAD_clean_sbu_0, # of connection points: 6
#     Node 13, Type 0, BuildingBlock: FUNLAD_clean_sbu_0, # of connection points: 6
#     Node 14, Type 0, BuildingBlock: FUNLAD_clean_sbu_0, # of connection points: 6
#     Node 15, Type 0, BuildingBlock: FUNLAD_clean_sbu_0, # of connection points: 6
#     Node 16, Type 0, BuildingBlock: FUNLAD_clean_sbu_0, # of connection points: 6
#     Node 17, Type 0, BuildingBlock: FUNLAD_clean_sbu_0, # of connection points: 6
#     Node 18, Type 0, BuildingBlock: FUNLAD_clean_sbu_0, # of connection points: 6
#     Node 19, Type 0, BuildingBlock: FUNLAD_clean_sbu_0, # of connection points: 6
#     Node 20, Type 0, BuildingBlock: FUNLAD_clean_sbu_0, # of connection points: 6
#     Node 21, Type 0, BuildingBlock: FUNLAD_clean_sbu_0, # of connection points: 6
#     Node 22, Type 0, BuildingBlock: FUNLAD_clean_sbu_0, # of connection points: 6
#     Node 23, Type 0, BuildingBlock: FUNLAD_clean_sbu_0, # of connection points: 6
#     Node 24, Type 0, BuildingBlock: FUNLAD_clean_sbu_0, # of connection points: 6
#     Node 25, Type 0, BuildingBlock: FUNLAD_clean_sbu_0, # of connection points: 6
#     Node 26, Type 0, BuildingBlock: FUNLAD_clean_sbu_0, # of connection points: 6
#     Node 27, Type 0, BuildingBlock: FUNLAD_clean_sbu_0, # of connection points: 6
#     Node 28, Type 0, BuildingBlock: FUNLAD_clean_sbu_0, # of connection points: 6
#     Node 29, Type 0, BuildingBlock: FUNLAD_clean_sbu_0, # of connection points: 6
#     Node 30, Type 0, BuildingBlock: FUNLAD_clean_sbu_0, # of connection points: 6
#     Node 31, Type 0, BuildingBlock: FUNLAD_clean_sbu_0, # of connection points: 6
#     Edge 32, Type (0, 0), BuildingBlock: AJUNOK_clean_linker_0, # of connection points: 2
#     Edge 33, Type (0, 0), BuildingBlock: AJUNOK_clean_linker_0, # of connection points: 2
#     Edge 34, Type (0, 0), BuildingBlock: AJUNOK_clean_linker_0, # of connection points: 2
#     Edge 35, Type (0, 0), BuildingBlock: AJUNOK_clean_linker_0, # of connection points: 2
#     Edge 36, Type (0, 0), BuildingBlock: AJUNOK_clean_linker_0, # of connection points: 2
#     Edge 37, Type (0, 0), BuildingBlock: AJUNOK_clean_linker_0, # of connection points: 2
#     Edge 38, Type (0, 0), BuildingBlock: AJUNOK_clean_linker_0, # of connection points: 2
#     Edge 39, Type (0, 0), BuildingBlock: AJUNOK_clean_linker_0, # of connection points: 2
#     Edge 40, Type (0, 0), BuildingBlock: AJUNOK_clean_linker_0, # of connection points: 2
#     Edge 41, Type (0, 0), BuildingBlock: AJUNOK_clean_linker_0, # of connection points: 2
#     Edge 42, Type (0, 0), BuildingBlock: AJUNOK_clean_linker_0, # of connection points: 2
#     Edge 43, Type (0, 0), BuildingBlock: AJUNOK_clean_linker_0, # of connection points: 2
#     Edge 44, Type (0, 0), BuildingBlock: AJUNOK_clean_linker_0, # of connection points: 2
#     Edge 45, Type (0, 0), BuildingBlock: AJUNOK_clean_linker_0, # of connection points: 2
#     Edge 46, Type (0, 0), BuildingBlock: AJUNOK_clean_linker_0, # of connection points: 2
#     Edge 47, Type (0, 0), BuildingBlock: AJUNOK_clean_linker_0, # of connection points: 2
#     Edge 48, Type (0, 0), BuildingBlock: AJUNOK_clean_linker_0, # of connection points: 2
#     Edge 49, Type (0, 0), BuildingBlock: AJUNOK_clean_linker_0, # of connection points: 2
#     Edge 50, Type (0, 0), BuildingBlock: AJUNOK_clean_linker_0, # of connection points: 2
#     Edge 51, Type (0, 0), BuildingBlock: AJUNOK_clean_linker_0, # of connection points: 2
#     Edge 52, Type (0, 0), BuildingBlock: AJUNOK_clean_linker_0, # of connection points: 2
#     Edge 53, Type (0, 0), BuildingBlock: AJUNOK_clean_linker_0, # of connection points: 2
#     Edge 54, Type (0, 0), BuildingBlock: AJUNOK_clean_linker_0, # of connection points: 2
#     Edge 55, Type (0, 0), BuildingBlock: AJUNOK_clean_linker_0, # of connection points: 2
#     Edge 56, Type (0, 0), BuildingBlock: AJUNOK_clean_linker_0, # of connection points: 2
#     Edge 57, Type (0, 0), BuildingBlock: AJUNOK_clean_linker_0, # of connection points: 2
#     Edge 58, Type (0, 0), BuildingBlock: AJUNOK_clean_linker_0, # of connection points: 2
#     Edge 59, Type (0, 0), BuildingBlock: AJUNOK_clean_linker_0, # of connection points: 2
#     Edge 60, Type (0, 0), BuildingBlock: AJUNOK_clean_linker_0, # of connection points: 2
#     Edge 61, Type (0, 0), BuildingBlock: AJUNOK_clean_linker_0, # of connection points: 2
#     Edge 62, Type (0, 0), BuildingBlock: AJUNOK_clean_linker_0, # of connection points: 2
#     Edge 63, Type (0, 0), BuildingBlock: AJUNOK_clean_linker_0, # of connection points: 2
#     Edge 64, Type (0, 0), BuildingBlock: AJUNOK_clean_linker_0, # of connection points: 2
#     Edge 65, Type (0, 0), BuildingBlock: AJUNOK_clean_linker_0, # of connection points: 2
#     Edge 66, Type (0, 0), BuildingBlock: AJUNOK_clean_linker_0, # of connection points: 2
#     Edge 67, Type (0, 0), BuildingBlock: AJUNOK_clean_linker_0, # of connection points: 2
#     Edge 68, Type (0, 0), BuildingBlock: AJUNOK_clean_linker_0, # of connection points: 2
#     Edge 69, Type (0, 0), BuildingBlock: AJUNOK_clean_linker_0, # of connection points: 2
#     Edge 70, Type (0, 0), BuildingBlock: AJUNOK_clean_linker_0, # of connection points: 2
#     Edge 71, Type (0, 0), BuildingBlock: AJUNOK_clean_linker_0, # of connection points: 2
#     Edge 72, Type (0, 0), BuildingBlock: AJUNOK_clean_linker_0, # of connection points: 2
#     Edge 73, Type (0, 0), BuildingBlock: AJUNOK_clean_linker_0, # of connection points: 2
#     Edge 74, Type (0, 0), BuildingBlock: AJUNOK_clean_linker_0, # of connection points: 2
#     Edge 75, Type (0, 0), BuildingBlock: AJUNOK_clean_linker_0, # of connection points: 2
#     Edge 76, Type (0, 0), BuildingBlock: AJUNOK_clean_linker_0, # of connection points: 2
#     Edge 77, Type (0, 0), BuildingBlock: AJUNOK_clean_linker_0, # of connection points: 2
#     Edge 78, Type (0, 0), BuildingBlock: AJUNOK_clean_linker_0, # of connection points: 2
#     Edge 79, Type (0, 0), BuildingBlock: AJUNOK_clean_linker_0, # of connection points: 2
#     Edge 80, Type (0, 0), BuildingBlock: AJUNOK_clean_linker_0, # of connection points: 2
#     Edge 81, Type (0, 0), BuildingBlock: AJUNOK_clean_linker_0, # of connection points: 2
#     Edge 82, Type (0, 0), BuildingBlock: AJUNOK_clean_linker_0, # of connection points: 2
#     Edge 83, Type (0, 0), BuildingBlock: AJUNOK_clean_linker_0, # of connection points: 2
#     Edge 84, Type (0, 0), BuildingBlock: AJUNOK_clean_linker_0, # of connection points: 2
#     Edge 85, Type (0, 0), BuildingBlock: AJUNOK_clean_linker_0, # of connection points: 2
#     Edge 86, Type (0, 0), BuildingBlock: AJUNOK_clean_linker_0, # of connection points: 2
#     Edge 87, Type (0, 0), BuildingBlock: AJUNOK_clean_linker_0, # of connection points: 2
#     Edge 88, Type (0, 0), BuildingBlock: AJUNOK_clean_linker_0, # of connection points: 2
#     Edge 89, Type (0, 0), BuildingBlock: AJUNOK_clean_linker_0, # of connection points: 2
#     Edge 90, Type (0, 0), BuildingBlock: AJUNOK_clean_linker_0, # of connection points: 2
#     Edge 91, Type (0, 0), BuildingBlock: AJUNOK_clean_linker_0, # of connection points: 2
#     Edge 92, Type (0, 0), BuildingBlock: AJUNOK_clean_linker_0, # of connection points: 2
#     Edge 93, Type (0, 0), BuildingBlock: AJUNOK_clean_linker_0, # of connection points: 2
#     Edge 94, Type (0, 0), BuildingBlock: AJUNOK_clean_linker_0, # of connection points: 2
#     Edge 95, Type (0, 0), BuildingBlock: AJUNOK_clean_linker_0, # of connection points: 2
#     Edge 96, Type (0, 0), BuildingBlock: AJUNOK_clean_linker_0, # of connection points: 2
#     Edge 97, Type (0, 0), BuildingBlock: AJUNOK_clean_linker_0, # of connection points: 2
#     Edge 98, Type (0, 0), BuildingBlock: AJUNOK_clean_linker_0, # of connection points: 2
#     Edge 99, Type (0, 0), BuildingBlock: AJUNOK_clean_linker_0, # of connection points: 2
#     Edge 100, Type (0, 0), BuildingBlock: AJUNOK_clean_linker_0, # of connection points: 2
#     Edge 101, Type (0, 0), BuildingBlock: AJUNOK_clean_linker_0, # of connection points: 2
#     Edge 102, Type (0, 0), BuildingBlock: AJUNOK_clean_linker_0, # of connection points: 2
#     Edge 103, Type (0, 0), BuildingBlock: AJUNOK_clean_linker_0, # of connection points: 2
#     Edge 104, Type (0, 0), BuildingBlock: AJUNOK_clean_linker_0, # of connection points: 2
#     Edge 105, Type (0, 0), BuildingBlock: AJUNOK_clean_linker_0, # of connection points: 2
#     Edge 106, Type (0, 0), BuildingBlock: AJUNOK_clean_linker_0, # of connection points: 2
#     Edge 107, Type (0, 0), BuildingBlock: AJUNOK_clean_linker_0, # of connection points: 2
#     Edge 108, Type (0, 0), BuildingBlock: AJUNOK_clean_linker_0, # of connection points: 2
#     Edge 109, Type (0, 0), BuildingBlock: AJUNOK_clean_linker_0, # of connection points: 2
#     Edge 110, Type (0, 0), BuildingBlock: AJUNOK_clean_linker_0, # of connection points: 2
#     Edge 111, Type (0, 0), BuildingBlock: AJUNOK_clean_linker_0, # of connection points: 2
#     Edge 112, Type (0, 0), BuildingBlock: AJUNOK_clean_linker_0, # of connection points: 2
#     Edge 113, Type (0, 0), BuildingBlock: AJUNOK_clean_linker_0, # of connection points: 2
#     Edge 114, Type (0, 0), BuildingBlock: AJUNOK_clean_linker_0, # of connection points: 2
#     Edge 115, Type (0, 0), BuildingBlock: AJUNOK_clean_linker_0, # of connection points: 2
#     Edge 116, Type (0, 0), BuildingBlock: AJUNOK_clean_linker_0, # of connection points: 2
#     Edge 117, Type (0, 0), BuildingBlock: AJUNOK_clean_linker_0, # of connection points: 2
#     Edge 118, Type (0, 0), BuildingBlock: AJUNOK_clean_linker_0, # of connection points: 2
#     Edge 119, Type (0, 0), BuildingBlock: AJUNOK_clean_linker_0, # of connection points: 2
#     Edge 120, Type (0, 0), BuildingBlock: AJUNOK_clean_linker_0, # of connection points: 2
#     Edge 121, Type (0, 0), BuildingBlock: AJUNOK_clean_linker_0, # of connection points: 2
#     Edge 122, Type (0, 0), BuildingBlock: AJUNOK_clean_linker_0, # of connection points: 2
#     Edge 123, Type (0, 0), BuildingBlock: AJUNOK_clean_linker_0, # of connection points: 2
#     Edge 124, Type (0, 0), BuildingBlock: AJUNOK_clean_linker_0, # of connection points: 2
#     Edge 125, Type (0, 0), BuildingBlock: AJUNOK_clean_linker_0, # of connection points: 2
#     Edge 126, Type (0, 0), BuildingBlock: AJUNOK_clean_linker_0, # of connection points: 2
#     Edge 127, Type (0, 0), BuildingBlock: AJUNOK_clean_linker_0, # of connection points: 2
# Relax obj value: 1.000
# Max RMSD: 0.238
# Mean RMSD: 0.238
data_MOF--net-wio--node1-FUNLAD_clean_sbu_0--edge1-AJUNOK_clean_linker_0
_symmetry_space_group_name_H-M    P1
_symmetry_Int_Tables_number       1
_symmetry_cell_setting            triclinic
loop_
_symmetry_equiv_pos_as_xyz
'x, y, z'
_cell_length_a     46.528782
_cell_length_b     46.556182
_cell_length_c     24.556577
_cell_angle_alpha  89.444332
_cell_angle_beta   90.366169
_cell_angle_gamma 89.933906
loop_
_atom_site_label
_atom_site_type_symbol
_atom_site_fract_x
_atom_site_fract_y
_atom_site_fract_z
_atom_type_partial_charge
C0 C 0.13683 0.11144 0.37001 0.0
N1 N 0.19166 0.18318 0.40358 0.0
C2 C 0.17061 0.19792 0.37602 0.0
C3 C 0.16914 0.22811 0.37675 0.0
C4 C 0.18949 0.24418 0.40612 0.0
C5 C 0.21076 0.22846 0.43511 0.0
C6 C 0.2115 0.19806 0.43324 0.0
Zn7 Zn 0.19505 0.13828 0.38427 0.0
C8 C 0.19514 0.0915 0.48005 0.0
N9 N 0.20476 0.05047 0.33775 0.0
C10 C 0.17877 0.03751 0.33953 0.0
C11 C 0.22104 0.04946 0.29211 0.0
C12 C 0.20713 0.04696 0.2423 0.0
C13 C 0.17742 0.04179 0.24199 0.0
C14 C 0.16358 0.03489 0.29117 0.0
Zn15 Zn 0.20038 0.09174 0.3626 0.0
O16 O 0.14888 0.13499 0.3827 0.0
C17 C 0.19708 0.13123 0.26277 0.0
O18 O 0.15282 0.08994 0.35956 0.0
H19 H 0.24273 0.05774 0.29249 0.0
H20 H 0.15551 0.18641 0.35076 0.0
H21 H 0.16718 0.03641 0.37756 0.0
O22 O 0.19384 0.15151 0.29674 0.0
O23 O 0.20089 0.10604 0.28103 0.0
H24 H 0.22864 0.18653 0.45391 0.0
O25 O 0.24559 0.09458 0.36511 0.0
O26 O 0.24347 0.14055 0.38152 0.0
O27 O 0.19961 0.07613 0.43919 0.0
O28 O 0.19346 0.11915 0.47328 0.0
C29 C 0.2586 0.11825 0.37088 0.0
H30 H 0.15286 0.23875 0.35215 0.0
H31 H 0.22706 0.23958 0.45842 0.0
H32 H 0.21868 0.05253 0.20562 0.0
H33 H 0.14072 1.03071 0.29272 0.0
C34 C 0.16169 0.86912 0.63871 0.0
N35 N 0.09958 0.9332 0.64159 0.0
C36 C 0.08692 0.91096 0.61466 0.0
C37 C 0.05732 0.90706 0.61485 0.0
C38 C 0.03979 0.92668 0.64139 0.0
C39 C 0.05288 0.94999 0.66822 0.0
C40 C 0.08312 0.95273 0.66826 0.0
Zn41 Zn 0.14425 0.93183 0.63206 0.0
C42 C 0.18301 0.93021 0.73469 0.0
N43 N 0.22915 0.91357 0.60819 0.0
C44 C 0.23337 0.89235 0.55371 0.0
C45 C 0.24863 0.94173 0.62885 0.0
C46 C 0.27903 0.95451 0.58869 0.0
C47 C 0.28792 0.9329 0.52078 0.0
C48 C 0.26203 0.89954 0.50469 0.0
Zn49 Zn 0.18894 0.92271 0.61701 0.0
O50 O 0.14046 0.88526 0.64855 0.0
C51 C 0.15818 0.92209 0.51087 0.0
O52 O 0.18442 0.88034 0.6222 0.0
H53 H 0.24232 0.95358 0.66439 0.0
H54 H 0.09971 0.89604 0.59179 0.0
H55 H 0.21827 0.87534 0.54526 0.0
O56 O 0.13634 0.92595 0.5413 0.0
O57 O 0.18251 0.92089 0.53317 0.0
H58 H 0.09326 0.97053 0.68885 0.0
O59 O 0.19495 0.97048 0.60826 0.0
O60 O 0.14865 0.97824 0.61438 0.0
O61 O 0.19848 0.92225 0.6963 0.0
O62 O 0.15724 0.93869 0.72291 0.0
C63 C 0.17387 0.98819 0.60553 0.0
H64 H 0.0481 0.88923 0.59273 0.0
H65 H 0.03989 0.96583 0.68874 0.0
H66 H 0.29399 0.96967 0.60628 0.0
H67 H 0.26723 0.88367 0.47429 0.0
C68 C 0.41316 0.9554 0.87434 0.0
N69 N 0.35923 0.88428 0.89347 0.0
C70 C 0.38079 0.87071 0.86636 0.0
C71 C 0.38496 0.84111 0.87115 0.0
C72 C 0.36714 0.82456 0.90485 0.0
C73 C 0.34507 0.83893 0.93298 0.0
C74 C 0.34144 0.86891 0.92666 0.0
Zn75 Zn 0.35507 0.92797 0.87139 0.0
C76 C 0.349 0.97349 0.96849 0.0
N77 N 0.34962 1.01508 0.8228 0.0
C78 C 0.37216 1.03029 0.84247 0.0
C79 C 0.34343 1.01514 0.76879 0.0
C80 C 0.3653 1.02074 0.73229 0.0
C81 C 0.3923 1.02862 0.75282 0.0
C82 C 0.39477 0.03652 0.8077 0.0
Zn83 Zn 0.35065 0.97424 0.85135 0.0
O84 O 0.40075 0.93125 0.87778 0.0
C85 C 0.36369 0.93602 0.75231 0.0
O86 O 0.39756 0.97755 0.86643 0.0
H87 H 0.32503 1.00325 0.75411 0.0
H88 H 0.39453 0.88265 0.83909 0.0
H89 H 0.37608 1.03071 0.88587 0.0
O90 O 0.36086 0.9145 0.7842 0.0
O91 O 0.35985 0.96057 0.77188 0.0
H92 H 0.32409 0.8797 0.94731 0.0
O93 O 0.30487 0.96999 0.83563 0.0
O94 O 0.30619 0.92495 0.86144 0.0
O95 O 0.34314 0.98951 0.92819 0.0
O96 O 0.35364 0.94646 0.95981 0.0
C97 C 0.29148 0.9464 0.84303 0.0
H98 H 0.40154 0.83119 0.84693 0.0
H99 H 0.33062 0.82709 0.95927 0.0
H100 H 0.36233 1.01432 0.69046 0.0
H101 H 0.41508 0.04319 0.82499 0.0
C102 C 0.37935 0.18964 0.14924 0.0
N103 N 0.44417 0.1245 0.1614 0.0
C104 C 0.45624 0.1418 0.19969 0.0
C105 C 0.48625 0.14483 0.20316 0.0
C106 C 0.50407 0.13029 0.16639 0.0
C107 C 0.49106 0.1116 0.12907 0.0
C108 C 0.46106 0.10903 0.12725 0.0
Zn109 Zn 0.40055 0.12726 0.14191 0.0
C110 C 0.35766 0.12224 0.23919 0.0
N111 N 0.3107 0.13602 0.10725 0.0
C112 C 0.30824 0.15814 0.07202 0.0
C113 C 0.29854 0.11023 0.09526 0.0
C114 C 0.29603 0.10257 0.04065 0.0
C115 C 0.30448 0.12284 1.00135 0.0
C116 C 0.30946 0.15152 0.01797 0.0
Zn117 Zn 0.35416 0.13298 0.12275 0.0
O118 O 0.40222 0.17451 0.15306 0.0
C119 C 0.39487 0.14325 0.02092 0.0
O120 O 0.3559 0.17693 0.13968 0.0
H121 H 0.2971 0.09369 0.12638 0.0
H122 H 0.44259 0.15437 0.22585 0.0
H123 H 0.31393 0.17962 0.08414 0.0
O124 O 0.41355 0.13478 0.0558 0.0
O125 O 0.36868 0.14405 0.03676 0.0
H126 H 0.45122 0.09571 0.09649 0.0
O127 O 0.35257 0.08719 0.10762 0.0
O128 O 0.39765 0.07922 0.12621 0.0
O129 O 0.34094 0.12538 0.19928 0.0
O130 O 0.38494 0.1215 0.23054 0.0
C131 C 0.37317 0.06934 0.1112 0.0
H132 H 0.49536 0.15938 0.23274 0.0
H133 H 0.50394 0.09947 0.10076 0.0
H134 H 0.29154 0.08053 0.0298 0.0
H135 H 0.31762 0.16819 0.99137 0.0
C136 C 0.13724 0.92742 0.14671 0.0
N137 N 0.20213 0.86977 0.14878 0.0
C138 C 0.18176 0.85598 0.17926 0.0
C139 C 0.17827 0.82612 0.17789 0.0
C140 C 0.19535 0.80923 0.14393 0.0
C141 C 0.21683 0.82364 0.11359 0.0
C142 C 0.21976 0.85397 0.11633 0.0
Zn143 Zn 0.19799 0.91576 0.15388 0.0
C144 C 0.20477 0.95393 0.05803 0.0
N145 N 0.17265 1.00268 0.1738 0.0
C146 C 0.13845 1.00406 0.19773 0.0
C147 C 0.18914 1.02595 0.13098 0.0
C148 C 0.16998 0.05765 0.10273 0.0
C149 C 0.12903 0.0617 0.12341 0.0
C150 C 0.11363 0.03336 0.17683 0.0
Zn151 Zn 0.19081 0.96152 0.17961 0.0
O152 O 0.15379 0.90789 0.13043 0.0
C153 C 0.18082 0.93131 0.27818 0.0
O154 O 0.14815 0.94938 0.16752 0.0
H155 H 0.21065 1.02142 0.11713 0.0
H156 H 0.16713 0.86815 0.20391 0.0
H157 H 0.13051 0.9874 0.22456 0.0
O158 O 0.18627 0.91104 0.24437 0.0
O159 O 0.18283 0.95715 0.26187 0.0
H160 H 0.2356 0.86478 0.09147 0.0
O161 O 0.23741 0.97048 0.19463 0.0
O162 O 0.24356 0.9243 0.17745 0.0
O163 O 0.19799 0.96806 0.09911 0.0
O164 O 0.20841 0.92667 0.06422 0.0
C165 C 0.25444 0.9486 0.1914 0.0
H166 H 0.16202 0.8164 0.20346 0.0
H167 H 0.23075 0.8117 0.08683 0.0
H168 H 0.17934 0.07049 0.07049 0.0
H169 H 0.09112 1.03277 0.18754 0.0
C170 C 0.37621 0.89238 0.40308 0.0
N171 N 0.45019 0.94561 0.38545 0.0
C172 C 0.46399 0.9242 0.41353 0.0
C173 C 0.49397 0.92128 0.41139 0.0
C174 C 0.51038 0.94055 0.3801 0.0
C175 C 0.49561 0.96235 0.35109 0.0
C176 C 0.46546 0.96448 0.35426 0.0
Zn177 Zn 0.40585 0.95034 0.39959 0.0
C178 C 0.36414 0.95764 0.29668 0.0
N179 N 0.32088 0.96339 0.42372 0.0
C180 C 0.29879 0.93786 0.39579 0.0
C181 C 0.3158 0.98921 0.47203 0.0
C182 C 0.28129 0.99288 0.50994 0.0
C183 C 0.24485 0.95372 0.48188 0.0
C184 C 0.26046 0.93143 0.4169 0.0
Zn185 Zn 0.36056 0.9567 0.41145 0.0
O186 O 0.40058 0.90386 0.39403 0.0
C187 C 0.39025 0.94757 0.5192 0.0
O188 O 0.35497 0.90919 0.41113 0.0
H189 H 0.33373 1.00128 0.48762 0.0
H190 H 0.45182 0.90971 0.43915 0.0
H191 H 0.30743 0.92362 0.36549 0.0
O192 O 0.41323 0.94408 0.49148 0.0
O193 O 0.36767 0.95415 0.49353 0.0
H194 H 0.45436 0.98163 0.33278 0.0
O195 O 0.36525 1.00186 0.41321 0.0
O196 O 0.41158 0.99868 0.41123 0.0
O197 O 0.34844 0.95961 0.33691 0.0
O198 O 0.39149 0.95419 0.30533 0.0
C199 C 0.38918 1.01426 0.41757 0.0
H200 H 0.50427 0.90459 0.43557 0.0
H201 H 0.50727 0.97773 0.32641 0.0
H202 H 0.27956 1.00625 0.54536 0.0
H203 H 0.24839 0.91388 0.39942 0.0
C204 C 0.44893 0.13991 0.6587 0.0
N205 N 0.37891 0.19556 0.64063 0.0
C206 C 0.40094 0.21261 0.65764 0.0
C207 C 0.39951 0.24236 0.65254 0.0
C208 C 0.37431 0.25569 0.6334 0.0
C209 C 0.35158 0.2378 0.61621 0.0
C210 C 0.35441 0.20764 0.61987 0.0
Zn211 Zn 0.38592 0.15159 0.65487 0.0
C212 C 0.38801 0.11235 0.55944 0.0
N213 N 0.41315 0.06573 0.69083 0.0
C214 C 0.44075 0.06374 0.73609 0.0
C215 C 0.40377 0.04176 0.64229 0.0
C216 C 0.42467 1.00829 0.63271 0.0
C217 C 0.45904 1.00328 0.68036 0.0
C218 C 0.46568 1.03271 0.73703 0.0
Zn219 Zn 0.39596 0.10714 0.6836 0.0
O220 O 0.43207 0.15876 0.63907 0.0
C221 C 0.40108 0.14317 0.78234 0.0
O222 O 0.43828 0.11778 0.67967 0.0
H223 H 0.38603 0.04625 0.6149 0.0
H224 H 0.41982 0.20339 0.67653 0.0
H225 H 0.44506 0.08148 0.76288 0.0
O226 O 0.39367 0.16193 0.74598 0.0
O227 O 0.40128 0.11688 0.76808 0.0
H228 H 0.3368 0.19402 0.60731 0.0
O229 O 0.3477 0.09773 0.68952 0.0
O230 O 0.33858 0.14279 0.66845 0.0
O231 O 0.39451 0.09765 0.60095 0.0
O232 O 0.38067 0.13865 0.56628 0.0
C233 C 0.32877 0.11772 0.68044 0.0
H234 H 0.4182 0.25475 0.66411 0.0
H235 H 0.33164 0.24696 0.60108 0.0
H236 H 0.42077 0.99463 0.59812 0.0
H237 H 0.48501 1.03283 0.76174 0.0
C238 C 0.20281 0.18068 0.8949 0.0
N239 N 0.13657 0.119 0.89082 0.0
C240 C 0.12373 0.13917 0.92242 0.0
C241 C 0.09386 0.14188 0.92407 0.0
C242 C 0.07643 0.12378 0.89278 0.0
C243 C 0.09002 0.10274 0.86096 0.0
C244 C 0.12028 0.10074 0.86045 0.0
Zn245 Zn 0.18148 0.11815 0.89816 0.0
C246 C 0.21948 0.11358 0.80058 0.0
N247 N 0.26871 0.12086 0.92119 0.0
C248 C 0.28754 0.15166 0.91472 0.0
C249 C 0.27872 0.08704 0.90678 0.0
C250 C 0.31391 0.07898 0.8801 0.0
C251 C 0.33956 0.1131 0.8666 0.0
C252 C 0.32507 0.15127 0.89039 0.0
Zn253 Zn 0.22576 0.12328 0.92434 0.0
O254 O 0.18072 0.16492 0.88921 0.0
C255 C 0.19814 0.12981 0.02414 0.0
O256 O 0.22654 0.16844 0.90612 0.0
H257 H 0.26434 0.06916 0.90799 0.0
H258 H 0.13669 0.15325 0.94722 0.0
H259 H 0.27761 0.17208 0.92293 0.0
O260 O 0.17722 0.12334 0.99174 0.0
O261 O 0.22312 0.1325 1.00462 0.0
H262 H 0.13066 0.08454 0.83615 0.0
O263 O 0.22286 0.07811 0.94804 0.0
O264 O 0.18164 0.06995 0.90951 0.0
O265 O 0.23271 0.11464 0.8448 0.0
O266 O 0.19187 0.11446 0.80375 0.0
C267 C 0.2034 0.06016 0.93578 0.0
H268 H 0.08449 0.15783 0.95043 0.0
H269 H 0.07741 0.08817 0.83641 0.0
H270 H 0.32006 0.05743 0.86958 0.0
H271 H 0.33512 0.1714 0.88116 0.0
C272 C 0.80129 0.92807 0.69864 0.0
N273 N 0.87846 0.97446 0.67313 0.0
C274 C 0.84901 0.99622 0.67685 0.0
C275 C 0.85133 0.03479 0.69245 0.0
C276 C 0.90228 0.05139 0.71094 0.0
C277 C 0.93138 1.018 0.69274 0.0
C278 C 0.91534 0.98086 0.67836 0.0
Zn279 Zn 0.86337 0.93806 0.66652 0.0
C280 C 0.87572 0.90574 0.76699 0.0
N281 N 0.8498 0.85478 0.6332 0.0
C282 C 0.83288 0.84121 0.59592 0.0
C283 C 0.86777 0.83927 0.66631 0.0
C284 C 0.8695 0.80958 0.66312 0.0
C285 C 0.85263 0.79483 0.62541 0.0
C286 C 0.83391 0.81097 0.59143 0.0
Zn287 Zn 0.85481 0.89844 0.64941 0.0
O288 O 0.82336 0.9425 0.71381 0.0
C289 C 0.84769 0.94652 0.55689 0.0
O290 O 0.80613 0.90793 0.66399 0.0
H291 H 0.88142 0.84987 0.69547 0.0
H292 H 0.82761 0.98787 0.67206 0.0
H293 H 0.81883 0.85368 0.56954 0.0
O294 O 0.83997 0.95486 0.60228 0.0
O295 O 0.85592 0.91984 0.55622 0.0
H296 H 0.93011 0.9631 0.67916 0.0
O297 O 0.90203 0.89038 0.64238 0.0
O298 O 0.90083 0.93449 0.61791 0.0
O299 O 0.85818 0.88909 0.74184 0.0
O300 O 0.88628 0.92622 0.73942 0.0
C301 C 0.91534 0.91197 0.62372 0.0
H302 H 0.83224 0.04665 0.70096 0.0
H303 H 0.95433 1.02059 0.69812 0.0
H304 H 0.88395 0.7982 0.6906 0.0
H305 H 0.8206 0.80043 0.56133 0.0
C306 C 0.8746 0.06265 0.46092 0.0
N307 N 0.82684 0.14422 0.46821 0.0
C308 C 0.80414 0.12632 0.47135 0.0
C309 C 0.78434 0.13148 0.51147 0.0
C310 C 0.79353 0.14958 0.55426 0.0
C311 C 0.80644 0.17484 0.53463 0.0
C312 C 0.82561 0.17078 0.49177 0.0
Zn313 Zn 0.86353 0.12877 0.44065 0.0
C314 C 0.90886 0.13776 0.53302 0.0
N315 N 0.94966 0.1109 0.39115 0.0
C316 C 0.96076 0.09037 0.35794 0.0
C317 C 0.96769 0.13015 0.41531 0.0
C318 C 0.99738 0.1292 0.40776 0.0
C319 C 1.00975 0.1084 0.37425 0.0
C320 C 0.99081 0.08883 0.3487 0.0
Zn321 Zn 0.90648 0.11737 0.41719 0.0
O322 O 0.85766 0.08338 0.47398 0.0
C323 C 0.85548 0.11421 0.32927 0.0
O324 O 0.8974 0.06967 0.43437 0.0
H325 H 0.95926 0.14637 0.44193 0.0
H326 H 0.80287 0.10718 0.44688 0.0
H327 H 0.94652 0.07504 0.33891 0.0
O328 O 0.84208 0.11665 0.37317 0.0
O329 O 0.88337 0.11455 0.33104 0.0
H330 H 0.84263 0.18628 0.48624 0.0
O331 O 0.91366 0.16454 0.40346 0.0
O332 O 0.8676 0.16979 0.40667 0.0
O333 O 0.92458 0.12209 0.503 0.0
O334 O 0.88416 0.14385 0.51439 0.0
C335 C 0.89187 0.181 0.39984 0.0
H336 H 0.76574 0.11782 0.51321 0.0
H337 H 0.81008 0.19276 0.56162 0.0
H338 H 1.01061 0.14453 0.4293 0.0
H339 H 0.99899 0.07262 0.32157 0.0
C340 C 0.74866 0.12414 0.20778 0.0
N341 N 0.6726 0.07105 0.22746 0.0
C342 C 0.67301 0.05458 0.18243 0.0
C343 C 0.64749 0.04979 0.15393 0.0
C344 C 0.62058 0.05504 0.17891 0.0
C345 C 0.62148 0.06657 0.23209 0.0
C346 C 0.6479 0.07307 0.25668 0.0
Zn347 Zn 0.6859 0.11139 0.20454 0.0
C348 C 0.68228 0.14965 0.29481 0.0
N349 N 0.69687 0.20047 0.15005 0.0
C350 C 0.72106 0.21281 0.12918 0.0
C351 C 0.67486 0.21768 0.16682 0.0
C352 C 0.67602 0.24769 0.16138 0.0
C353 C 0.70048 0.26123 0.13994 0.0
C354 C 0.72337 0.24307 0.12414 0.0
Zn355 Zn 0.6911 0.15561 0.16858 0.0
O356 O 0.73115 0.10349 0.21694 0.0
C357 C 0.69085 0.11053 0.07912 0.0
O358 O 0.73846 0.14768 0.18722 0.0
H359 H 0.65625 0.20837 0.18607 0.0
H360 H 0.69329 0.05003 0.16293 0.0
H361 H 0.73895 0.19935 0.11774 0.0
O362 O 0.68837 0.09787 0.12399 0.0
O363 O 0.69436 0.13802 0.07995 0.0
H364 H 0.64784 0.08403 0.29527 0.0
O365 O 0.64493 0.1614 0.15233 0.0
O366 O 0.64143 0.1203 0.19382 0.0
O367 O 0.6855 0.16848 0.25687 0.0
O368 O 0.68291 0.12347 0.28296 0.0
C369 C 0.62928 0.14142 0.17108 0.0
H370 H 0.6492 0.04021 0.11413 0.0
H371 H 0.60212 0.0705 0.255 0.0
H372 H 0.65767 0.26016 0.17424 0.0
H373 H 0.7433 0.25204 0.10926 0.0
C374 C 0.67169 1.00574 0.95256 0.0
N375 N 0.72529 0.93789 0.9263 0.0
C376 C 0.74478 0.96757 0.92888 0.0
C377 C 0.77844 0.96891 0.96363 0.0
C378 C 0.79299 0.93028 0.99899 0.0
C379 C 0.7625 0.89596 0.98983 0.0
C380 C 0.73083 0.90486 0.95093 0.0
Zn381 Zn 0.68667 0.94703 0.91906 0.0
C382 C 0.65628 0.92745 0.02042 0.0
N383 N 0.60028 0.95335 0.889 0.0
C384 C 0.58807 0.97371 0.85587 0.0
C385 C 0.58334 0.93459 0.91718 0.0
C386 C 0.55338 0.93572 0.91297 0.0
C387 C 0.53999 0.95645 0.87953 0.0
C388 C 0.55787 0.9756 0.85044 0.0
Zn389 Zn 0.64446 0.94891 0.90653 0.0
O390 O 0.69033 0.98661 0.96395 0.0
C391 C 0.69005 0.95926 0.80976 0.0
O392 O 0.6502 0.99779 0.92286 0.0
H393 H 0.59304 0.91873 0.94396 0.0
H394 H 0.73653 0.98758 0.91266 0.0
H395 H 0.60166 0.98867 0.83402 0.0
O396 O 0.69885 0.9698 0.85298 0.0
O397 O 0.66415 0.94914 0.81265 0.0
H398 H 0.71428 0.88875 0.94884 0.0
O399 O 0.63997 0.90333 0.89761 0.0
O400 O 0.68467 0.90721 0.87559 0.0
O401 O 0.63532 0.94153 0.99838 0.0
O402 O 0.6785 0.92455 0.99191 0.0
C403 C 0.66284 0.89143 0.88171 0.0
H404 H 0.79095 0.98857 0.96342 0.0
H405 H 0.7663 0.87402 1.00333 0.0
H406 H 0.54074 0.92068 0.9367 0.0
H407 H 0.54867 0.99173 0.82347 0.0
C408 C 0.82889 0.14156 0.85501 0.0
N409 N 0.89621 0.07818 0.85049 0.0
C410 C 0.86291 0.0674 0.83631 0.0
C411 C 0.85623 0.03577 0.79774 0.0
C412 C 0.88993 1.0135 0.77351 0.0
C413 C 0.92898 1.02941 0.79582 0.0
C414 C 0.92813 0.06287 0.83533 0.0
Zn415 Zn 0.89247 0.11698 0.86825 0.0
C416 C 0.90687 0.15216 0.76898 0.0
N417 N 0.89525 0.20084 0.91131 0.0
C418 C 0.88072 0.21419 0.95166 0.0
C419 C 0.91489 0.21535 0.8805 0.0
C420 C 0.91926 0.24461 0.88699 0.0
C421 C 0.90305 0.25938 0.92514 0.0
C422 C 0.88442 0.24374 0.95949 0.0
Zn423 Zn 0.8908 0.15883 0.88943 0.0
O424 O 0.84599 0.12271 0.83596 0.0
C425 C 0.88218 0.11177 0.98079 0.0
O426 O 0.84092 0.16115 0.88368 0.0
H427 H 0.92664 0.20454 0.84898 0.0
H428 H 0.84473 0.07621 0.85715 0.0
H429 H 0.86552 0.20224 0.97612 0.0
O430 O 0.87611 0.10084 0.93614 0.0
O431 O 0.89017 0.1384 0.97982 0.0
H432 H 0.9483 0.07271 0.84603 0.0
O433 O 0.93756 0.15782 0.89314 0.0
O434 O 0.93529 0.11192 0.90049 0.0
O435 O 0.89484 0.17164 0.79789 0.0
O436 O 0.91012 0.12787 0.79145 0.0
C437 C 0.95054 0.13425 0.90015 0.0
H438 H 0.83498 1.02638 0.79767 0.0
H439 H 0.94861 1.01694 0.79392 0.0
H440 H 0.93343 0.25594 0.85931 0.0
H441 H 0.87139 0.25465 0.9893 0.0
C442 C 0.6975 0.06406 0.61457 0.0
N443 N 0.7612 0.12507 0.62046 0.0
C444 C 0.77925 0.09539 0.59936 0.0
C445 C 0.8158 0.08796 0.62465 0.0
C446 C 0.83121 0.11504 0.67915 0.0
C447 C 0.80773 0.14908 0.69568 0.0
C448 C 0.7725 0.15102 0.66335 0.0
Zn449 Zn 0.71922 0.12618 0.61905 0.0
C450 C 0.6898 0.13417 0.52504 0.0
N451 N 0.63359 0.12676 0.66295 0.0
C452 C 0.61685 0.10562 0.68445 0.0
C453 C 0.62145 0.15071 0.64015 0.0
C454 C 0.5918 0.1547 0.6399 0.0
C455 C 0.57383 0.13315 0.66054 0.0
C456 C 0.58678 0.10832 0.68337 0.0
Zn457 Zn 0.67758 0.12378 0.6533 0.0
O458 O 0.72001 0.0794 0.61462 0.0
C459 C 0.71564 0.12593 0.74897 0.0
O460 O 0.6746 0.07604 0.63229 0.0
H461 H 0.63467 0.16666 0.62051 0.0
H462 H 0.76876 0.07958 0.57422 0.0
H463 H 0.62673 0.08636 0.70101 0.0
O464 O 0.7258 0.12929 0.70266 0.0
O465 O 0.68932 0.11751 0.74891 0.0
H466 H 0.75883 0.16868 0.6742 0.0
O467 O 0.68054 0.16991 0.66721 0.0
O468 O 0.71861 0.17175 0.61603 0.0
O469 O 0.67053 0.1338 0.56241 0.0
O470 O 0.71526 0.12712 0.53748 0.0
C471 C 0.69942 0.18478 0.64252 0.0
H472 H 0.82606 0.06792 0.61494 0.0
H473 H 0.81461 0.16452 0.72552 0.0
H474 H 0.58318 0.17458 0.62342 0.0
H475 H 0.57381 0.09092 0.69937 0.0
C476 C 0.7574 0.94259 0.32813 0.0
N477 N 0.68461 1.0016 0.30295 0.0
C478 C 0.68668 0.9988 0.24842 0.0
C479 C 0.66202 0.99243 0.21791 0.0
C480 C 0.63456 0.99482 0.24203 0.0
C481 C 0.63391 1.00659 0.29506 0.0
C482 C 0.65954 1.01137 0.32376 0.0
Zn483 Zn 0.69439 0.96251 0.3393 0.0
C484 C 0.68202 0.91586 0.25113 0.0
N485 N 0.70173 0.87458 0.3995 0.0
C486 C 0.72118 0.85693 0.37526 0.0
C487 C 0.68034 0.86307 0.43075 0.0
C488 C 0.67682 0.83313 0.43532 0.0
C489 C 0.69591 0.81462 0.4089 0.0
C490 C 0.7189 0.82691 0.38014 0.0
Zn491 Zn 0.69798 0.91708 0.3688 0.0
O492 O 0.74086 0.96393 0.3164 0.0
C493 C 0.70356 0.96909 0.45638 0.0
O494 O 0.7459 0.92078 0.35199 0.0
H495 H 0.66482 0.87696 0.44979 0.0
H496 H 0.70755 0.99753 0.23046 0.0
H497 H 0.73748 0.86596 0.34906 0.0
O498 O 0.70348 0.98351 0.41239 0.0
O499 O 0.70211 0.94127 0.45314 0.0
H500 H 0.65845 1.01695 0.36637 0.0
O501 O 0.65181 0.91375 0.38071 0.0
O502 O 0.64976 0.95937 0.36332 0.0
O503 O 0.69079 0.89753 0.2864 0.0
O504 O 0.68255 0.94195 0.2643 0.0
C505 C 0.63687 0.93641 0.37588 0.0
H506 H 0.66489 0.98638 0.17595 0.0
H507 H 0.61411 1.01188 0.31521 0.0
H508 H 0.65903 0.82452 0.45855 0.0
H509 H 0.73422 0.81339 0.35941 0.0
C510 C 0.88871 0.99802 0.08559 0.0
N511 N 0.82385 0.93824 0.12405 0.0
C512 C 0.81534 0.97052 0.10059 0.0
C513 C 0.78356 0.97728 0.06184 0.0
C514 C 0.75532 0.94218 0.05236 0.0
C515 C 0.77201 0.90342 0.08766 0.0
C516 C 0.80629 0.90696 0.12269 0.0
Zn517 Zn 0.86597 0.93858 0.11294 0.0
C518 C 0.89012 0.92324 1.00551 0.0
N519 N 0.95256 0.93578 0.13379 0.0
C520 C 0.96734 0.95513 0.16417 0.0
C521 C 0.96663 0.91497 0.10579 0.0
C522 C 0.99643 0.91235 0.10907 0.0
C523 C 1.01238 0.93181 0.14023 0.0
C524 C 0.99743 0.95373 0.16748 0.0
Zn525 Zn 0.90862 0.93692 0.12327 0.0
O526 O 0.86887 0.98085 0.07176 0.0
C527 C 0.87106 0.94944 0.22492 0.0
O528 O 0.90905 0.98693 0.11454 0.0
H529 H 0.95479 0.9003 0.08031 0.0
H530 H 0.82705 0.9889 0.11477 0.0
H531 H 0.95586 0.9719 0.18512 0.0
O532 O 0.86059 0.96062 0.18339 0.0
O533 O 0.89503 0.93612 0.21767 0.0
H534 H 0.81555 0.88773 0.13975 0.0
O535 O 0.90918 0.8903 0.12778 0.0
O536 O 0.86478 0.89488 0.14988 0.0
O537 O 0.91244 0.93292 0.0308 0.0
O538 O 0.86716 0.91965 0.03299 0.0
C539 C 0.88616 0.87839 0.14296 0.0
H540 H 0.7776 0.99899 0.05001 0.0
H541 H 0.76019 0.88337 0.08962 0.0
H542 H 1.00684 0.89511 0.08739 0.0
H543 H 1.0088 0.96993 0.19041 0.0
C544 C 0.62993 0.64519 0.90681 0.0
N545 N 0.69211 0.70921 0.90472 0.0
C546 C 0.67212 0.72138 0.87073 0.0
C547 C 0.66721 0.7507 0.87001 0.0
C548 C 0.68314 0.76843 0.90407 0.0
C549 C 0.70427 0.75595 0.9383 0.0
C550 C 0.70831 0.7259 0.9383 0.0
Zn551 Zn 0.69279 0.66521 0.89245 0.0
C552 C 0.69879 0.62142 0.98993 0.0
N553 N 0.67637 0.58564 0.85892 0.0
C554 C 0.6449 0.57944 0.82687 0.0
C555 C 0.70829 0.57008 0.85144 0.0
C556 C 0.71369 0.54265 0.80136 0.0
C557 C 0.67973 0.5311 0.75724 0.0
C558 C 0.64278 0.55223 0.77348 0.0
Zn559 Zn 0.6844 0.62344 0.87738 0.0
O560 O 0.64427 0.66764 0.89558 0.0
C561 C 0.67729 0.65665 0.7733 0.0
O562 O 0.64382 0.6222 0.91114 0.0
H563 H 0.7257 0.57552 0.87823 0.0
H564 H 0.65971 0.70842 0.84312 0.0
H565 H 0.62642 0.5929 0.83356 0.0
O566 O 0.69244 0.67416 0.80098 0.0
O567 O 0.66675 0.63567 0.79909 0.0
H568 H 0.72436 0.71607 0.96456 0.0
O569 O 0.72875 0.62334 0.84309 0.0
O570 O 0.74082 0.66228 0.88608 0.0
O571 O 0.70057 0.60718 0.94726 0.0
O572 O 0.69355 0.64871 0.98472 0.0
C573 C 0.7485 0.64058 0.85794 0.0
H574 H 0.65127 0.75953 0.84211 0.0
H575 H 0.71725 0.76922 0.96479 0.0
H576 H 0.73392 0.5314 0.79966 0.0
H577 H 0.62197 0.54497 0.75914 0.0
C578 C 0.70028 0.38863 0.11977 0.0
N579 N 0.63212 0.44776 0.14161 0.0
C580 C 0.6196 0.42654 0.17203 0.0
C581 C 0.58945 0.42346 0.17308 0.0
C582 C 0.57181 0.44241 0.14277 0.0
C583 C 0.58533 0.46457 0.11333 0.0
C584 C 0.61539 0.46669 0.11289 0.0
Zn585 Zn 0.67653 0.44823 0.12379 0.0
C586 C 0.7205 0.44851 0.22139 0.0
N587 N 0.76527 0.45281 0.08294 0.0
C588 C 0.77604 0.42588 0.08805 0.0
C589 C 0.76954 0.46831 0.03675 0.0
C590 C 0.77307 0.45358 0.98854 0.0
C591 C 0.77419 0.42341 0.9905 0.0
C592 C 0.77856 0.40973 0.04119 0.0
Zn593 Zn 0.72292 0.45195 0.10267 0.0
O594 O 0.67718 0.40191 0.13064 0.0
C595 C 0.68534 0.44628 1.00065 0.0
O596 O 0.72211 0.40351 0.10571 0.0
H597 H 0.76377 0.49079 0.03488 0.0
H598 H 0.63293 0.41129 0.19407 0.0
H599 H 0.77518 0.41489 0.12703 0.0
O600 O 0.6648 0.44423 0.0348 0.0
O601 O 0.71043 0.4507 0.01932 0.0
H602 H 0.62534 0.48284 0.08737 0.0
O603 O 0.72237 0.49875 0.09904 0.0
O604 O 0.67636 0.49731 0.11492 0.0
O605 O 0.73671 0.45202 0.18113 0.0
O606 O 0.693 0.44827 0.21329 0.0
C607 C 0.69872 0.51227 0.10336 0.0
H608 H 0.58006 0.40633 0.19721 0.0
H609 H 0.57278 0.47967 0.08918 0.0
H610 H 0.77184 0.46558 0.9511 0.0
H611 H 0.78068 0.38661 0.04461 0.0
C612 C 0.94036 0.44073 0.38404 0.0
N613 N 0.88504 0.36737 0.40044 0.0
C614 C 0.90681 0.35435 0.37306 0.0
C615 C 0.91006 0.32445 0.3741 0.0
C616 C 0.8908 0.30729 0.40371 0.0
C617 C 0.86882 0.32128 0.43267 0.0
C618 C 0.8663 0.35141 0.43048 0.0
Zn619 Zn 0.87986 0.41138 0.38471 0.0
C620 C 0.87501 0.45161 0.4843 0.0
N621 N 0.87262 0.49985 0.3526 0.0
C622 C 0.89274 0.51631 0.32857 0.0
C623 C 0.84527 0.51058 0.35714 0.0
C624 C 0.8354 0.52975 0.31627 0.0
C625 C 0.85478 0.53494 0.27339 0.0
C626 C 0.88285 0.53838 0.29574 0.0
Zn627 Zn 0.87998 0.45771 0.36518 0.0
O628 O 0.92701 0.41694 0.39008 0.0
C629 C 0.88816 0.42205 0.26209 0.0
O630 O 0.92557 0.46331 0.37511 0.0
H631 H 0.83031 0.50102 0.38521 0.0
H632 H 0.92118 0.36706 0.34824 0.0
H633 H 0.91542 0.51172 0.33256 0.0
O634 O 0.88408 0.40192 0.29682 0.0
O635 O 0.88751 0.44794 0.2789 0.0
H636 H 0.84885 0.36192 0.45136 0.0
O637 O 0.83445 0.45177 0.35369 0.0
O638 O 0.83171 0.40652 0.37453 0.0
O639 O 0.87442 0.46853 0.44424 0.0
O640 O 0.87676 0.42444 0.47519 0.0
C641 C 0.81906 0.42955 0.35861 0.0
H642 H 0.92681 0.31484 0.34987 0.0
H643 H 0.85339 0.30899 0.4561 0.0
H644 H 0.81251 0.53257 0.31024 0.0
H645 H 0.89803 0.55429 0.28195 0.0
C646 C 0.86611 0.66974 0.63968 0.0
N647 N 0.9384 0.61463 0.66317 0.0
C648 C 0.95355 0.63373 0.6323 0.0
C649 C 0.98362 0.63337 0.63196 0.0
C650 C 0.99901 0.61366 0.66476 0.0
C651 C 0.98291 0.5944 0.69707 0.0
C652 C 0.95257 0.59515 0.69547 0.0
Zn653 Zn 0.89402 0.61276 0.64556 0.0
C654 C 0.85158 0.60934 0.74386 0.0
N655 N 0.80494 0.60388 0.61547 0.0
C656 C 0.7896 0.62866 0.62058 0.0
C657 C 0.79248 0.58129 0.58925 0.0
C658 C 0.77109 0.58778 0.55092 0.0
C659 C 0.77123 0.6168 0.53485 0.0
C660 C 0.76988 0.63517 0.57956 0.0
Zn661 Zn 0.84802 0.6069 0.62646 0.0
O662 O 0.89108 0.65889 0.64534 0.0
C663 C 0.88438 0.6185 0.52437 0.0
O664 O 0.84489 0.65285 0.63491 0.0
H665 H 0.80157 0.55998 0.59073 0.0
H666 H 0.94231 0.64861 0.60564 0.0
H667 H 0.79524 0.64454 0.65043 0.0
O668 O 0.90477 0.61562 0.55889 0.0
O669 O 0.85858 0.61491 0.54074 0.0
H670 H 0.94041 0.57957 0.71875 0.0
O671 O 0.85162 0.5622 0.61499 0.0
O672 O 0.89658 0.56399 0.63997 0.0
O673 O 0.83638 0.60081 0.70495 0.0
O674 O 0.8783 0.61477 0.73472 0.0
C675 C 0.87518 0.54918 0.62268 0.0
H676 H 0.99465 0.64798 0.60468 0.0
H677 H 0.99365 0.57874 0.72299 0.0
H678 H 0.76394 0.5712 0.52332 0.0
H679 H 0.7614 0.65667 0.57617 0.0
C680 C 0.63435 0.4333 0.63033 0.0
N681 N 0.69801 0.37066 0.63303 0.0
C682 C 0.68243 0.35576 0.67057 0.0
C683 C 0.68246 0.32586 0.67165 0.0
C684 C 0.69791 0.31055 0.6326 0.0
C685 C 0.71388 0.32634 0.59394 0.0
C686 C 0.7137 0.35658 0.59499 0.0
Zn687 Zn 0.69594 0.41479 0.64282 0.0
C688 C 0.70247 0.45403 0.54183 0.0
N689 N 0.69039 0.50114 0.64648 0.0
C690 C 0.65714 0.51763 0.64302 0.0
C691 C 0.72365 0.51295 0.66639 0.0
C692 C 0.72946 0.54832 0.69939 0.0
C693 C 0.68214 0.57646 0.70959 0.0
C694 C 0.64953 0.5552 0.66898 0.0
Zn695 Zn 0.69212 0.45766 0.65447 0.0
O696 O 0.64872 0.41084 0.64199 0.0
C697 C 0.68265 0.42967 0.76139 0.0
O698 O 0.64838 0.45638 0.62269 0.0
H699 H 0.74271 0.5008 0.65801 0.0
H700 H 0.66991 0.36705 0.70042 0.0
H701 H 0.63889 0.50604 0.6276 0.0
O702 O 0.69545 0.4096 0.73542 0.0
O703 O 0.67457 0.45154 0.73406 0.0
H704 H 0.72609 0.36873 0.56561 0.0
O705 O 0.73432 0.45713 0.69215 0.0
O706 O 0.7454 0.41871 0.64807 0.0
O707 O 0.7112 0.46651 0.58311 0.0
O708 O 0.69284 0.42833 0.54929 0.0
C709 C 0.7537 0.43965 0.67794 0.0
H710 H 0.67069 0.31489 0.70354 0.0
H711 H 0.72623 0.31547 0.5631 0.0
H712 H 0.74996 0.55464 0.71682 0.0
H713 H 0.62774 0.56323 0.66847 0.0
C714 C 0.88855 0.3827 0.89375 0.0
N715 N 0.94432 0.45277 0.89516 0.0
C716 C 0.95944 0.43013 0.91674 0.0
C717 C 0.98946 0.4287 0.91468 0.0
C718 C 1.0058 0.45187 0.89474 0.0
C719 C 0.98986 0.47561 0.87379 0.0
C720 C 0.95922 0.4755 0.87381 0.0
Zn721 Zn 0.89817 0.44547 0.90083 0.0
C722 C 0.85907 0.44961 0.80292 0.0
N723 N 0.81194 0.41726 0.91981 0.0
C724 C 0.81075 0.38377 0.94735 0.0
C725 C 0.78824 0.43304 0.87631 0.0
C726 C 0.75619 0.41346 0.85173 0.0
C727 C 0.75223 0.37315 0.87748 0.0
C728 C 0.78111 0.35891 0.93082 0.0
Zn729 Zn 0.85252 0.43521 0.92413 0.0
O730 O 0.90816 0.40047 0.88223 0.0
C731 C 0.88477 0.42557 0.02449 0.0
O732 O 0.86495 0.39257 0.90959 0.0
H733 H 0.79287 0.45397 0.85928 0.0
H734 H 0.94834 0.41246 0.93593 0.0
H735 H 0.82792 0.37623 0.9737 0.0
O736 O 0.90458 0.43435 0.99182 0.0
O737 O 0.85894 0.42557 1.00712 0.0
H738 H 0.94755 0.4937 0.85712 0.0
O739 O 0.84101 0.48126 0.94112 0.0
O740 O 0.88583 0.49215 0.92064 0.0
O741 O 0.84499 0.4431 0.8444 0.0
O742 O 0.88629 0.45375 0.80921 0.0
C743 C 0.86057 0.50069 0.93536 0.0
H744 H 0.99948 0.40895 0.92832 0.0
H745 H 1.00086 0.49429 0.85773 0.0
H746 H 0.74495 0.42057 0.81562 0.0
H747 H 0.78207 0.33669 0.94347 0.0
C748 C 0.92492 0.62085 0.15493 0.0
N749 N 0.86648 0.69106 0.15218 0.0
C750 C 0.88851 0.70393 0.17964 0.0
C751 C 0.89223 0.73387 0.17832 0.0
C752 C 0.87307 0.75151 0.14872 0.0
C753 C 0.8502 0.73783 0.12125 0.0
C754 C 0.84736 0.70756 0.12328 0.0
Zn755 Zn 0.86402 0.64543 0.16207 0.0
C756 C 0.85511 0.60659 0.06126 0.0
N757 N 0.86596 0.55674 0.18069 0.0
C758 C 0.89466 0.53487 0.1924 0.0
C759 C 0.83288 0.54797 0.15814 0.0
C760 C 0.8235 0.51114 0.14344 0.0
C761 C 0.85446 0.48235 0.15345 0.0
C762 C 0.89136 0.49583 0.18316 0.0
Zn763 Zn 0.86721 0.59948 0.18245 0.0
O764 O 0.90999 0.64358 0.14895 0.0
C765 C 0.87915 0.62766 0.28609 0.0
O766 O 0.91203 0.59759 0.1663 0.0
H767 H 0.81734 0.56402 0.14658 0.0
H768 H 0.90329 0.69096 0.2035 0.0
H769 H 0.91562 0.54387 0.20106 0.0
O770 O 0.8738 0.64989 0.25569 0.0
O771 O 0.87706 0.60318 0.2643 0.0
H772 H 0.82973 0.69736 0.10207 0.0
O773 O 0.82047 0.60248 0.20322 0.0
O774 O 0.81666 0.6473 0.17804 0.0
O775 O 0.85868 0.59201 0.10336 0.0
O776 O 0.85582 0.63417 0.06735 0.0
C777 C 0.80453 0.62458 0.19644 0.0
H778 H 0.90978 0.74316 0.20135 0.0
H779 H 0.83476 0.75039 0.09796 0.0
H780 H 0.8035 0.50598 0.12302 0.0
H781 H 0.91042 0.48288 0.18461 0.0
C782 C 0.68396 0.68856 0.41204 0.0
N783 N 0.61557 0.62653 0.40264 0.0
C784 C 0.60091 0.6515 0.39219 0.0
C785 C 0.57077 0.65223 0.39 0.0
C786 C 0.55472 0.62708 0.39811 0.0
C787 C 0.57012 0.6015 0.40846 0.0
C788 C 0.60042 0.6017 0.41058 0.0
Zn789 Zn 0.6619 0.62723 0.40926 0.0
C790 C 0.69605 0.62313 0.30988 0.0
N791 N 0.7504 0.63226 0.40543 0.0
C792 C 0.76009 0.65849 0.38661 0.0
C793 C 0.7618 0.60801 0.38229 0.0
C794 C 0.7857 0.61029 0.34806 0.0
C795 C 0.80184 0.6357 0.35306 0.0
C796 C 0.7842 0.66007 0.35285 0.0
Zn797 Zn 0.70791 0.62905 0.43277 0.0
O798 O 0.66178 0.67495 0.39612 0.0
C799 C 0.68176 0.6379 0.53556 0.0
O800 O 0.70495 0.67386 0.42897 0.0
H801 H 0.75171 0.58735 0.38728 0.0
H802 H 0.61215 0.67137 0.38549 0.0
H803 H 0.74985 0.67837 0.3965 0.0
O804 O 0.66032 0.63531 0.50199 0.0
O805 O 0.7073 0.63433 0.51765 0.0
H806 H 0.61158 0.58184 0.41918 0.0
O807 O 0.71023 0.58214 0.44269 0.0
O808 O 0.66424 0.57884 0.42567 0.0
O809 O 0.7102 0.62639 0.35216 0.0
O810 O 0.6688 0.6207 0.31556 0.0
C811 C 0.6879 0.56636 0.4392 0.0
H812 H 0.5601 0.67248 0.38142 0.0
H813 H 0.55889 0.58152 0.41598 0.0
H814 H 0.7955 0.59079 0.33314 0.0
H815 H 0.79279 0.68098 0.3423 0.0
C816 C 0.32428 0.44646 0.18293 0.0
N817 N 0.39706 0.50463 0.17496 0.0
C818 C 0.37126 0.51986 0.13604 0.0
C819 C 0.37575 0.55538 0.1068 0.0
C820 C 0.41274 0.57516 0.1228 0.0
C821 C 0.44002 0.55531 0.17266 0.0
C822 C 0.42931 0.51844 0.19494 0.0
Zn823 Zn 0.38882 0.46354 0.17497 0.0
C824 C 0.39413 0.43395 0.27202 0.0
N825 N 0.37961 0.37626 0.1343 0.0
C826 C 0.35953 0.36181 0.10472 0.0
C827 C 0.39998 0.36157 0.16352 0.0
C828 C 0.40045 0.33156 0.16486 0.0
C829 C 0.37973 0.31594 0.13595 0.0
C830 C 0.35929 0.33154 0.10479 0.0
Zn831 Zn 0.38178 0.42082 0.14351 0.0
O832 O 0.3413 0.46776 0.19042 0.0
C833 C 0.37745 0.46077 0.04823 0.0
O834 O 0.33503 0.42378 0.16196 0.0
H835 H 0.4158 0.37316 0.18701 0.0
H836 H 0.35161 0.5085 0.12724 0.0
H837 H 0.3435 0.37368 0.08165 0.0
O838 O 0.38325 0.4715 0.09302 0.0
O839 O 0.37341 0.43344 0.04957 0.0
H840 H 0.4444 0.50529 0.21776 0.0
O841 O 0.42904 0.41729 0.12771 0.0
O842 O 0.43316 0.459 0.16484 0.0
O843 O 0.38919 0.41399 0.23701 0.0
O844 O 0.39526 0.45963 0.25552 0.0
C845 C 0.44515 0.43764 0.14367 0.0
H846 H 0.36033 0.5644 0.0785 0.0
H847 H 0.46149 0.56336 0.17991 0.0
H848 H 0.41651 0.32069 0.18968 0.0
H849 H 0.34322 0.3205 0.08079 0.0
C850 C 0.37948 0.57675 0.95066 0.0
N851 N 0.32245 0.64477 0.96568 0.0
C852 C 0.30743 0.61222 0.96958 0.0
C853 C 0.27988 0.6044 0.01889 0.0
C854 C 0.26787 0.63617 0.06696 0.0
C855 C 0.28839 0.67407 0.05526 0.0
C856 C 0.31565 0.67469 1.00139 0.0
Zn857 Zn 0.35981 0.63995 0.94086 0.0
C858 C 0.39904 0.65563 0.03627 0.0
N859 N 0.44368 0.63681 0.89086 0.0
C860 C 0.45909 0.61972 0.92549 0.0
C861 C 0.45722 0.65457 0.85482 0.0
C862 C 0.48751 0.65564 0.85345 0.0
C863 C 0.50388 0.63883 0.89042 0.0
C864 C 0.48896 0.62091 0.92688 0.0
Zn865 Zn 0.40133 0.63919 0.91542 0.0
O866 O 0.36205 0.59432 0.9722 0.0
C867 C 0.35036 0.63549 0.8268 0.0
O868 O 0.39881 0.58843 0.92057 0.0
H869 H 0.44469 0.66884 0.82897 0.0
H870 H 0.31345 0.59548 0.9417 0.0
H871 H 0.44813 0.60651 0.95519 0.0
O872 O 0.34089 0.62537 0.8706 0.0
O873 O 0.37744 0.64214 0.82717 0.0
H874 H 0.32794 0.69404 0.99465 0.0
O875 O 0.40358 0.68567 0.91141 0.0
O876 O 0.35698 0.68354 0.9118 0.0
O877 O 0.41812 0.64395 1.00597 0.0
O878 O 0.37398 0.6564 0.01668 0.0
C879 C 0.37956 0.69863 0.90842 0.0
H880 H 0.26762 0.58473 1.01599 0.0
H881 H 0.28062 0.69408 0.07191 0.0
H882 H 0.49793 0.66995 0.82476 0.0
H883 H 0.50005 0.60869 0.95829 0.0
C884 C 0.24198 0.64779 0.70093 0.0
N885 N 0.19889 0.57147 0.71302 0.0
C886 C 0.22745 0.57575 0.71736 0.0
C887 C 0.24257 0.56234 0.75942 0.0
C888 C 0.22983 0.5344 0.77314 0.0
C889 C 0.20507 0.5244 0.74488 0.0
C890 C 0.18791 0.54491 0.71941 0.0
Zn891 Zn 0.18316 0.60816 0.69095 0.0
C892 C 0.16767 0.64172 0.78004 0.0
N893 N 0.17426 0.68754 0.63015 0.0
C894 C 0.1899 0.70325 0.59411 0.0
C895 C 0.15279 0.69959 0.65963 0.0
C896 C 0.14721 0.7288 0.6558 0.0
C897 C 0.16428 0.74587 0.62206 0.0
C898 C 0.18515 0.7328 0.58926 0.0
Zn899 Zn 0.18455 0.64708 0.6532 0.0
O900 O 0.22491 0.63063 0.72497 0.0
C901 C 0.19732 0.60256 0.56986 0.0
O902 O 0.2323 0.65888 0.65699 0.0
H903 H 0.14113 0.68693 0.6891 0.0
H904 H 0.23763 0.58993 0.6888 0.0
H905 H 0.20708 0.6932 0.5717 0.0
O906 O 0.20087 0.59339 0.61754 0.0
O907 O 0.18846 0.62864 0.56515 0.0
H908 H 0.16591 0.5403 0.70808 0.0
O909 O 0.1392 0.637 0.65008 0.0
O910 O 0.14148 0.59103 0.66716 0.0
O911 O 0.17813 0.65988 0.74531 0.0
O912 O 0.16516 0.61603 0.76531 0.0
C913 C 0.12621 0.6132 0.6564 0.0
H914 H 0.28881 0.56691 0.80434 0.0
H915 H 0.19574 0.50365 0.75361 0.0
H916 H 0.13124 0.73824 0.68213 0.0
H917 H 0.19866 0.74555 0.56262 0.0
C918 C 0.19768 0.49268 0.44755 0.0
N919 N 0.26029 0.42132 0.44767 0.0
C920 C 0.27185 0.44774 0.45299 0.0
C921 C 0.27369 0.45867 0.5048 0.0
C922 C 0.26897 0.43998 0.54911 0.0
C923 C 0.26622 0.41038 0.54024 0.0
C924 C 0.26325 0.40109 0.4873 0.0
Zn925 Zn 0.21849 0.42766 0.42964 0.0
C926 C 0.17978 0.41884 0.52825 0.0
N927 N 0.12868 0.43866 0.38712 0.0
C928 C 0.11556 0.45991 0.35739 0.0
C929 C 0.11238 0.41838 0.41286 0.0
C930 C 0.08227 0.41915 0.41048 0.0
C931 C 0.0679 0.44096 0.38109 0.0
C932 C 0.0852 0.46132 0.3535 0.0
Zn933 Zn 0.17336 0.43597 0.40658 0.0
O934 O 0.21826 0.47475 0.45595 0.0
C935 C 0.21958 0.44317 0.31263 0.0
O936 O 0.17546 0.48314 0.42269 0.0
H937 H 0.12268 0.40183 0.43719 0.0
H938 H 0.27149 0.46264 0.4189 0.0
H939 H 0.1285 0.47617 0.33754 0.0
O940 O 0.23407 0.43883 0.35506 0.0
O941 O 0.19178 0.44266 0.3169 0.0
H942 H 0.25631 0.37927 0.48031 0.0
O943 O 0.17122 0.3883 0.39476 0.0
O944 O 0.21734 0.38349 0.40687 0.0
O945 O 0.16095 0.42935 0.49537 0.0
O946 O 0.20486 0.41487 0.50984 0.0
C947 C 0.1932 0.37186 0.39779 0.0
H948 H 0.27559 0.48164 0.50919 0.0
H949 H 0.26305 0.39529 0.5734 0.0
H950 H 0.07035 0.40308 0.43307 0.0
H951 H 0.07549 0.47825 0.32911 0.0
C952 C 0.30492 0.63591 0.35671 0.0
N953 N 0.36776 0.572 0.33168 0.0
C954 C 0.34587 0.56099 0.3012 0.0
C955 C 0.35255 0.54259 0.25863 0.0
C956 C 0.38185 0.5385 0.24793 0.0
C957 C 0.40075 0.53996 0.2929 0.0
C958 C 0.39299 0.55749 0.33538 0.0
Zn959 Zn 0.36758 0.61318 0.35984 0.0
C960 C 0.38063 0.65876 0.26766 0.0
N961 N 0.36785 0.70315 0.41435 0.0
C962 C 0.34668 0.71767 0.44091 0.0
C963 C 0.38985 0.71838 0.39139 0.0
C964 C 0.39078 0.74853 0.39273 0.0
C965 C 0.36903 0.76439 0.41834 0.0
C966 C 0.34706 0.74816 0.44395 0.0
Zn967 Zn 0.36712 0.65866 0.38926 0.0
O968 O 0.32135 0.615 0.34546 0.0
C969 C 0.36401 0.60725 0.47832 0.0
O970 O 0.31708 0.65837 0.37684 0.0
H971 H 0.40626 0.70733 0.36878 0.0
H972 H 0.32438 0.56945 0.30364 0.0
H973 H 0.32888 0.70586 0.45822 0.0
O974 O 0.36129 0.59382 0.43435 0.0
O975 O 0.36531 0.63515 0.47576 0.0
H976 H 0.40871 0.56239 0.36633 0.0
O977 O 0.41446 0.65688 0.39824 0.0
O978 O 0.41309 0.61204 0.37372 0.0
O979 O 0.37353 0.67668 0.30421 0.0
O980 O 0.37837 0.63227 0.28003 0.0
C981 C 0.4278 0.6336 0.38809 0.0
H982 H 0.33651 0.53896 0.22733 0.0
H983 H 0.42314 0.53399 0.29099 0.0
H984 H 0.40807 0.75931 0.37153 0.0
H985 H 0.33005 0.75879 0.46579 0.0
C986 C 0.18018 0.55926 0.111 0.0
N987 N 0.23843 0.61916 0.17768 0.0
C988 C 0.25151 0.58728 0.15347 0.0
C989 C 0.28671 0.58429 0.11853 0.0
C990 C 0.3132 0.63269 0.11371 0.0
C991 C 0.291 0.66289 0.1589 0.0
C992 C 0.25392 0.65294 0.18485 0.0
Zn993 Zn 0.20181 0.62204 0.12205 0.0
C994 C 0.16397 0.62931 0.01846 0.0
N995 N 0.1114 0.62109 0.15773 0.0
C996 C 0.09743 0.60135 0.18916 0.0
C997 C 0.09634 0.64136 0.12907 0.0
C998 C 0.0664 0.64203 0.13004 0.0
C999 C 0.0512 0.62207 0.16185 0.0
C1000 C 0.06719 0.60153 0.19196 0.0
Zn1001 Zn 0.15521 0.6211 0.14135 0.0
O1002 O 0.20134 0.57615 0.10535 0.0
C1003 C 0.19689 0.61825 0.24559 0.0
O1004 O 0.15686 0.57064 0.12942 0.0
H1005 H 0.10752 0.65665 0.10352 0.0
H1006 H 0.23991 0.5678 0.16192 0.0
H1007 H 0.10963 0.58512 0.21108 0.0
O1008 O 0.21302 0.61616 0.20471 0.0
O1009 O 0.16964 0.62013 0.23587 0.0
H1010 H 0.24113 0.67026 0.20068 0.0
O1011 O 0.15575 0.66928 0.1472 0.0
O1012 O 0.20175 0.66768 0.13244 0.0
O1013 O 0.1428 0.62566 0.05047 0.0
O1014 O 0.18854 0.62834 0.03995 0.0
C1015 C 0.17957 0.6826 0.14125 0.0
H1016 H 0.29375 0.56488 0.09851 0.0
H1017 H 0.29791 0.68482 0.16209 0.0
H1018 H 0.05529 0.6576 0.10451 0.0
H1019 H 0.05644 0.58564 0.21702 0.0
C1020 C 0.25685 0.42382 0.86488 0.0
N1021 N 0.20716 0.49647 0.87855 0.0
C1022 C 0.23971 0.49756 0.91048 0.0
C1023 C 0.26039 0.53114 0.91462 0.0
C1024 C 0.24213 0.56565 0.87668 0.0
C1025 C 0.20309 0.56001 0.84516 0.0
C1026 C 0.1882 0.52319 0.84982 0.0
Zn1027 Zn 0.19544 0.45535 0.86807 0.0
C1028 C 0.18595 0.42425 0.76705 0.0
N1029 N 0.18827 0.36691 0.90835 0.0
C1030 C 0.2072 0.35283 0.9417 0.0
C1031 C 0.16976 0.35186 0.87618 0.0
C1032 C 0.1708 0.32171 0.87484 0.0
C1033 C 0.19118 0.30664 0.90662 0.0
C1034 C 0.20889 0.3227 0.94171 0.0
Zn1035 Zn 0.19296 0.41114 0.89489 0.0
O1036 O 0.24332 0.44707 0.85481 0.0
C1037 C 0.19499 0.45088 0.99206 0.0
O1038 O 0.24178 0.40357 0.88577 0.0
H1039 H 0.1551 0.36327 0.84932 0.0
H1040 H 0.24861 0.47868 0.93016 0.0
H1041 H 0.22199 0.36503 0.96654 0.0
O1042 O 0.19703 0.46443 0.94847 0.0
O1043 O 0.19475 0.4233 0.98847 0.0
H1044 H 0.16702 0.51889 0.8334 0.0
O1045 O 0.1459 0.41828 0.89977 0.0
O1046 O 0.14949 0.46342 0.87414 0.0
O1047 O 0.18791 0.40416 0.80332 0.0
O1048 O 0.18952 0.45019 0.78223 0.0
C1049 C 0.13368 0.44229 0.88839 0.0
H1050 H 0.2795 0.53289 0.93975 0.0
H1051 H 0.1899 0.57788 0.83182 0.0
H1052 H 0.15666 0.3104 0.8472 0.0
H1053 H 0.22441 0.31212 0.96813 0.0
C1054 C 0.37981 0.50401 0.61546 0.0
N1055 N 0.31174 0.44811 0.60818 0.0
C1056 C 0.3006 0.48286 0.60069 0.0
C1057 C 0.26892 0.49629 0.63917 0.0
C1058 C 0.25 0.46742 0.68828 0.0
C1059 C 0.26486 0.42787 0.68692 0.0
C1060 C 0.29673 0.42159 0.64535 0.0
Zn1061 Zn 0.35517 0.44019 0.6054 0.0
C1062 C 0.38512 0.4412 0.50786 0.0
N1063 N 0.44615 0.43917 0.64645 0.0
C1064 C 0.46238 0.46234 0.63129 0.0
C1065 C 0.45975 0.41404 0.66046 0.0
C1066 C 0.49013 0.41177 0.65948 0.0
C1067 C 0.50714 0.43562 0.64471 0.0
C1068 C 0.49256 0.4611 0.63062 0.0
Zn1069 Zn 0.3998 0.44264 0.63703 0.0
O1070 O 0.3585 0.48757 0.60873 0.0
C1071 C 0.36261 0.43046 0.7346 0.0
O1072 O 0.40297 0.49175 0.63135 0.0
H1073 H 0.4472 0.39537 0.67144 0.0
H1074 H 0.31186 0.49719 0.57359 0.0
H1075 H 0.45225 0.48196 0.61778 0.0
O1076 O 0.34997 0.42959 0.68939 0.0
O1077 O 0.38845 0.44056 0.73271 0.0
H1078 H 0.30692 0.40083 0.64779 0.0
O1079 O 0.3949 0.39583 0.63753 0.0
O1080 O 0.35253 0.39505 0.5968 0.0
O1081 O 0.40516 0.44083 0.54449 0.0
O1082 O 0.35913 0.44413 0.52253 0.0
C1083 C 0.37373 0.38159 0.618 0.0
H1084 H 0.26324 0.51881 0.63971 0.0
H1085 H 0.25725 0.41178 0.71517 0.0
H1086 H 0.50019 0.39153 0.67043 0.0
H1087 H 0.50438 0.47992 0.61747 0.0
C1088 C 0.30255 0.14608 0.33896 0.0
C1089 C 0.28998 0.11981 0.35492 0.0
C1090 C 0.3284 0.14696 0.30883 0.0
C1091 C 0.34306 0.1217 0.29327 0.0
H1092 H 0.29107 0.16601 0.34528 0.0
H1093 H 0.33519 0.1675 0.29226 0.0
S1094 S 0.32189 0.04757 0.33167 0.0
N1095 N 0.29687 0.06791 0.35915 0.0
N1096 N 0.34444 0.0699 0.30151 0.0
C1097 C 0.33231 0.09559 0.31371 0.0
C1098 C 0.30611 0.09458 0.34463 0.0
C1099 C 0.16043 0.06075 0.53136 0.0
C1100 C 0.18758 0.07443 0.53046 0.0
C1101 C 0.1558 0.03412 0.55865 0.0
C1102 C 0.17824 1.01914 0.58578 0.0
H1103 H 0.14312 0.06939 0.50638 0.0
H1104 H 0.13484 1.02422 0.55493 0.0
S1105 S 0.25215 0.04803 0.60468 0.0
N1106 N 0.23614 0.07251 0.56597 0.0
N1107 N 0.22804 1.02259 0.61559 0.0
C1108 C 0.20498 0.03359 0.5885 0.0
C1109 C 0.20945 0.06101 0.56147 0.0
C1110 C 0.24277 0.91941 0.83702 0.0
C1111 C 0.2596 0.94417 0.82661 0.0
C1112 C 0.21445 0.91625 0.81496 0.0
C1113 C 0.20081 0.93816 0.78352 0.0
H1114 H 0.25216 0.90152 0.85934 0.0
H1115 H 0.20413 0.89549 0.81862 0.0
S1116 S 0.23488 1.0054 0.73978 0.0
N1117 N 0.25993 0.98954 0.77731 0.0
N1118 N 0.20637 0.98495 0.74391 0.0
C1119 C 0.21639 0.9636 0.77703 0.0
C1120 C 0.24574 0.96612 0.79581 0.0
C1121 C 0.33378 1.00554 0.04537 0.0
C1122 C 0.35563 0.98919 0.02083 0.0
C1123 C 0.33992 1.02948 0.07877 0.0
C1124 C 0.36836 0.03908 0.08897 0.0
H1125 H 0.31152 1.00117 0.03523 0.0
H1126 H 0.32191 0.04185 0.09359 0.0
S1127 S 0.43383 1.00377 0.03524 0.0
N1128 N 0.40721 0.9842 1.0107 0.0
N1129 N 0.41876 1.02871 0.07308 0.0
C1130 C 0.39054 1.02182 0.0676 0.0
C1131 C 0.3842 0.99729 0.03352 0.0
C1132 C 0.32964 0.97957 0.23025 0.0
C1133 C 0.34645 0.95522 0.24521 0.0
C1134 C 0.30069 0.97744 0.2113 0.0
C1135 C 0.28664 0.9507 0.2054 0.0
H1136 H 0.33785 1.00079 0.23917 0.0
H1137 H 0.2888 0.9971 0.2038 0.0
S1138 S 0.3211 0.87986 0.23435 0.0
N1139 N 0.34658 0.90327 0.24884 0.0
N1140 N 0.29333 0.89896 0.21252 0.0
C1141 C 0.3039 0.92609 0.21588 0.0
C1142 C 0.33333 0.92839 0.23526 0.0
C1143 C 0.36332 0.05711 0.45809 0.0
C1144 C 0.38944 0.04463 0.4402 0.0
C1145 C 0.36255 0.0819 0.4909 0.0
C1146 C 0.3878 0.09627 0.50656 0.0
H1147 H 0.34306 0.04662 0.44994 0.0
H1148 H 0.34214 0.08839 0.50788 0.0
S1149 S 0.46123 0.07753 0.45984 0.0
N1150 N 0.44088 0.05204 0.43363 0.0
N1151 N 0.43946 0.09872 0.49417 0.0
C1152 C 0.41379 0.08587 0.48445 0.0
C1153 C 0.41462 0.06027 0.45152 0.0
C1154 C 0.24834 0.13507 0.71994 0.0
C1155 C 0.23922 0.11071 0.7507 0.0
C1156 C 0.27587 0.13646 0.69333 0.0
C1157 C 0.2964 0.1137 0.69597 0.0
H1158 H 0.23529 0.15433 0.72056 0.0
H1159 H 0.28187 0.15649 0.67378 0.0
S1160 S 0.28549 0.04779 0.77729 0.0
N1161 N 0.2549 0.06484 0.78475 0.0
N1162 N 0.3048 0.06672 0.73436 0.0
C1163 C 0.28682 0.08901 0.72423 0.0
C1164 C 0.25909 0.08777 0.75145 0.0
C1165 C 0.23164 0.99433 1.01642 0.0
C1166 C 0.21088 0.97257 1.00875 0.0
C1167 C 0.22949 1.02163 0.99097 0.0
C1168 C 0.20652 1.02906 0.9555 0.0
H1169 H 0.2482 0.99135 0.04724 0.0
H1170 H 0.24533 0.03762 1.00199 0.0
S1171 S 0.15089 0.9775 0.90854 0.0
N1172 N 0.16941 0.95891 0.9546 0.0
N1173 N 0.16574 1.00972 0.9056 0.0
C1174 C 0.18736 1.00652 0.94251 0.0
C1175 C 0.1895 0.97856 0.96908 0.0
C1176 C 0.74542 0.91973 0.71408 0.0
C1177 C 0.771 0.93634 0.7205 0.0
C1178 C 0.71823 0.92767 0.73822 0.0
C1179 C 0.7146 0.95339 0.76841 0.0
H1180 H 0.74661 0.89971 0.69215 0.0
H1181 H 0.70042 0.91283 0.73532 0.0
S1182 S 0.77443 1.004 0.79948 0.0
N1183 N 0.78993 0.97921 0.76263 0.0
N1184 N 0.74021 0.99532 0.80127 0.0
C1185 C 0.73987 0.97055 0.77234 0.0
C1186 C 0.76737 0.96183 0.75053 0.0
C1187 C 0.84059 1.02404 0.50098 0.0
C1188 C 0.86722 1.03091 0.47652 0.0
C1189 C 0.83355 0.99582 0.51973 0.0
C1190 C 0.85242 0.97176 0.51604 0.0
H1191 H 0.82507 0.04098 0.50769 0.0
H1192 H 0.81335 0.99323 0.54093 0.0
S1193 S 0.92371 0.97616 0.44871 0.0
N1194 N 0.91164 1.00952 0.44445 0.0
N1195 N 0.89877 0.95734 0.48079 0.0
C1196 C 0.87858 0.97786 0.48889 0.0
C1197 C 0.88577 1.00686 0.46912 0.0
C1198 C 0.7908 0.09418 0.2442 0.0
C1199 C 0.78003 0.1211 0.22596 0.0
C1200 C 0.81796 0.09122 0.27035 0.0
C1201 C 0.83634 0.11487 0.27938 0.0
H1202 H 0.77739 0.07525 0.24121 0.0
H1203 H 0.82352 0.0705 0.28793 0.0
S1204 S 0.81972 0.19006 0.23784 0.0
N1205 N 0.79135 0.17186 0.21681 0.0
N1206 N 0.84172 0.16622 0.26595 0.0
C1207 C 0.82663 0.1416 0.25847 0.0
C1208 C 0.79887 0.14472 0.23188 0.0
C1209 C 0.70411 0.04576 0.98888 0.0
C1210 C 0.67613 0.03629 0.97429 0.0
C1211 C 0.70925 0.0722 1.01591 0.0
C1212 C 0.68683 0.0912 0.03004 0.0
H1213 H 0.72239 1.03196 0.98141 0.0
H1214 H 0.73095 0.07676 0.02954 0.0
S1215 S 0.60934 0.07692 1.0036 0.0
N1216 N 0.62557 0.04889 0.97664 0.0
N1217 N 0.63509 0.09763 0.02807 0.0
C1218 C 0.65882 0.08238 1.01437 0.0
C1219 C 0.65354 0.05546 0.98641 0.0
C1220 C 0.7815 0.16261 0.81387 0.0
C1221 C 0.79593 0.14036 0.84253 0.0
C1222 C 0.75335 0.15903 0.79086 0.0
C1223 C 0.73681 0.13338 0.79625 0.0
H1224 H 0.79291 0.18237 0.80522 0.0
H1225 H 0.74518 0.17613 0.7649 0.0
S1226 S 0.75895 0.07344 0.88886 0.0
N1227 N 0.78747 0.09465 0.88838 0.0
N1228 N 0.73464 0.08898 0.84879 0.0
C1229 C 0.74888 0.11314 0.83342 0.0
C1230 C 0.77818 0.11629 0.85525 0.0
C1231 C 0.72475 1.02321 0.56756 0.0
C1232 C 0.69817 0.035 0.58496 0.0
C1233 C 0.72652 0.99997 0.53032 0.0
C1234 C 0.70185 0.98639 0.50883 0.0
H1235 H 0.74468 1.033 0.58063 0.0
H1236 H 0.74753 0.99366 0.51587 0.0
S1237 S 0.62677 1.00746 0.54092 0.0
N1238 N 0.64636 1.02983 0.57751 0.0
N1239 N 0.64975 0.98658 0.50888 0.0
C1240 C 0.67517 0.99701 0.52756 0.0
C1241 C 0.67331 1.02088 0.56522 0.0
C1242 C 0.83287 0.97073 0.28481 0.0
C1243 C 0.849 0.94602 0.27046 0.0
C1244 C 0.80424 0.96934 0.3049 0.0
C1245 C 0.78951 0.94307 0.31262 0.0
H1246 H 0.84167 0.99179 0.27598 0.0
H1247 H 0.79312 0.98935 0.31243 0.0
S1248 S 0.82118 0.87143 0.28328 0.0
N1249 N 0.8472 0.89403 0.26711 0.0
N1250 N 0.79436 0.89127 0.3058 0.0
C1251 C 0.80577 0.91801 0.30138 0.0
C1252 C 0.83499 0.9195 0.28033 0.0
C1253 C 0.90804 0.07835 0.04915 0.0
C1254 C 0.88208 0.08988 0.0273 0.0
C1255 C 0.91004 0.04954 0.07048 0.0
C1256 C 0.88654 1.03008 0.06877 0.0
H1257 H 0.92757 0.09087 0.04597 0.0
H1258 H 0.93069 0.04195 0.08528 0.0
S1259 S 0.81387 0.04921 1.01387 0.0
N1260 N 0.83226 0.07927 1.00797 0.0
N1261 N 0.83635 1.02579 0.0415 0.0
C1262 C 0.86048 0.0418 0.04784 0.0
C1263 C 0.85817 0.07126 0.02925 0.0
C1264 C 0.79708 0.65523 0.81666 0.0
C1265 C 0.77957 0.63439 0.84227 0.0
C1266 C 0.82365 0.64777 0.79181 0.0
C1267 C 0.83433 0.6192 0.79192 0.0
H1268 H 0.78919 0.67701 0.81198 0.0
H1269 H 0.83447 0.66401 0.76763 0.0
S1270 S 0.79895 0.55723 0.85948 0.0
N1271 N 0.77722 0.58447 0.87147 0.0
N1272 N 0.82586 0.57072 0.82405 0.0
C1273 C 0.81808 0.59884 0.82105 0.0
C1274 C 0.79118 0.60632 0.84616 0.0
C1275 C 0.7232 0.58836 0.05723 0.0
C1276 C 0.69769 0.60262 0.04057 0.0
C1277 C 0.72311 0.56033 0.0809 0.0
C1278 C 0.69748 0.54444 0.08902 0.0
H1279 H 0.74377 0.59781 0.04703 0.0
H1280 H 0.74367 0.55033 0.08971 0.0
S1281 S 0.62436 0.57201 0.05571 0.0
N1282 N 0.64578 0.59858 0.03715 0.0
N1283 N 0.64546 0.54665 0.08133 0.0
C1284 C 0.67166 0.55917 0.07614 0.0
C1285 C 0.67183 0.58783 0.05224 0.0
C1286 C 0.75044 0.41361 0.27563 0.0
C1287 C 0.73602 0.44049 0.27335 0.0
C1288 C 0.77566 0.409 0.30758 0.0
C1289 C 0.78802 0.43117 0.33867 0.0
H1290 H 0.74377 0.39675 0.24821 0.0
H1291 H 0.78691 0.38874 0.30392 0.0
S1292 S 0.75737 0.50461 0.35155 0.0
N1293 N 0.73528 0.48872 0.30853 0.0
N1294 N 0.78139 0.48015 0.36953 0.0
C1295 C 0.77238 0.45732 0.34017 0.0
C1296 C 0.74688 0.46196 0.30745 0.0
C1297 C 0.85206 0.50227 0.59394 0.0
C1298 C 0.87743 0.51837 0.60334 0.0
C1299 C 0.85191 0.47701 0.56217 0.0
C1300 C 0.87718 0.46618 0.5385 0.0
H1301 H 0.83158 0.51042 0.60779 0.0
H1302 H 0.83137 0.46756 0.55162 0.0
S1303 S 0.94984 0.49827 0.55384 0.0
N1304 N 0.92898 0.51979 0.58931 0.0
N1305 N 0.92867 0.47274 0.53017 0.0
C1306 C 0.90301 0.48067 0.5515 0.0
C1307 C 0.90318 0.50649 0.58366 0.0
C1308 C 0.78998 0.4683 0.73295 0.0
C1309 C 0.78455 0.44476 0.69826 0.0
C1310 C 0.81689 0.47279 0.75855 0.0
C1311 C 0.84036 0.45379 0.75257 0.0
H1312 H 0.77276 0.48293 0.74308 0.0
H1313 H 0.81829 0.48974 0.78841 0.0
S1314 S 0.84094 0.39332 0.65473 0.0
N1315 N 0.80762 0.40561 0.65039 0.0
N1316 N 0.85761 0.41328 0.7005 0.0
C1317 C 0.83632 0.43185 0.71368 0.0
C1318 C 0.80875 0.42748 0.68646 0.0
C1319 C 0.82918 0.56631 1.01325 0.0
C1320 C 0.85054 0.58813 1.01025 0.0
C1321 C 0.83133 0.53948 0.98581 0.0
C1322 C 0.855 0.53233 0.95253 0.0
H1323 H 0.81174 0.56879 0.04185 0.0
H1324 H 0.81518 0.52335 0.99428 0.0
S1325 S 0.91531 0.58265 0.92306 0.0
N1326 N 0.89526 0.60079 0.96617 0.0
N1327 N 0.89857 0.5519 0.91251 0.0
C1328 C 0.875 0.55511 0.94418 0.0
C1329 C 0.87307 0.58228 0.97343 0.0
C1330 C 0.75707 0.64927 0.2226 0.0
C1331 C 0.77266 0.62383 0.21235 0.0
C1332 C 0.72903 0.6488 0.24565 0.0
C1333 C 0.71446 0.62295 0.25918 0.0
H1334 H 0.76736 0.66988 0.21646 0.0
H1335 H 0.71986 0.66908 0.25814 0.0
S1336 S 0.74362 0.55012 0.233 0.0
N1337 N 0.76942 0.57174 0.21189 0.0
N1338 N 0.71761 0.57109 0.25508 0.0
C1339 C 0.72894 0.59745 0.24484 0.0
C1340 C 0.75757 0.59783 0.2217 0.0
C1341 C 0.72066 0.4923 0.47896 0.0
C1342 C 0.6972 0.4748 0.49475 0.0
C1343 C 0.71722 0.52099 0.45979 0.0
C1344 C 0.69 0.5342 0.45354 0.0
H1345 H 0.74235 0.48471 0.48674 0.0
H1346 H 0.73646 0.53343 0.45216 0.0
S1347 S 0.6209 0.49848 0.48797 0.0
N1348 N 0.64528 0.47362 0.50211 0.0
N1349 N 0.63869 0.52653 0.46398 0.0
C1350 C 0.66611 0.51656 0.4662 0.0
C1351 C 0.66971 0.48732 0.4868 0.0
C1352 C 0.25185 0.42014 0.24368 0.0
C1353 C 0.23767 0.44533 0.26129 0.0
C1354 C 0.27853 0.4208 0.21556 0.0
C1355 C 0.29322 0.44674 0.20395 0.0
H1356 H 0.24345 0.39938 0.25596 0.0
H1357 H 0.28865 0.4005 0.20617 0.0
S1358 S 0.2643 0.51928 0.23375 0.0
N1359 N 0.23986 0.49738 0.25958 0.0
N1360 N 0.28929 0.49866 0.20702 0.0
C1361 C 0.27843 0.47219 0.21785 0.0
C1362 C 0.2511 0.47148 0.24628 0.0
C1363 C 0.35056 0.50407 1.01069 0.0
C1364 C 0.37233 0.48321 1.00232 0.0
C1365 C 0.35232 0.53296 0.99083 0.0
C1366 C 0.37638 0.54377 0.96187 0.0
H1367 H 0.3328 0.49869 0.03719 0.0
H1368 H 0.33509 0.54749 1.00141 0.0
S1369 S 0.43397 0.49597 0.90918 0.0
N1370 N 0.41518 0.47434 0.94923 0.0
N1371 N 0.41843 0.5279 0.91211 0.0
C1372 C 0.39623 0.52219 0.94607 0.0
C1373 C 0.39432 0.49247 0.96633 0.0
C1374 C 0.27431 0.65921 0.78164 0.0
C1375 C 0.27203 0.65332 0.72561 0.0
C1376 C 0.30045 0.65593 0.8111 0.0
C1377 C 0.32649 0.64621 0.78733 0.0
H1378 H 0.25507 0.66434 0.80422 0.0
H1379 H 0.29969 0.65946 0.85452 0.0
S1380 S 0.33487 0.6358 0.6387 0.0
N1381 N 0.30026 0.64326 0.64487 0.0
N1382 N 0.34897 0.63652 0.70063 0.0
C1383 C 0.32553 0.6437 0.73 0.0
C1384 C 0.2986 0.64748 0.6993 0.0
C1385 C 0.22249 0.55901 0.53119 0.0
C1386 C 0.20031 0.57979 0.52546 0.0
C1387 C 0.222 0.53208 0.50435 0.0
C1388 C 0.19904 0.52355 0.47013 0.0
H1389 H 0.23987 0.56293 0.55967 0.0
H1390 H 0.23935 0.51721 0.51289 0.0
S1391 S 0.13544 0.56974 0.4387 0.0
N1392 N 0.15473 0.58962 0.48067 0.0
N1393 N 0.15369 0.53963 0.43032 0.0
C1394 C 0.17712 0.54454 0.46209 0.0
C1395 C 0.17777 0.57224 0.48944 0.0
C1396 C 0.22647 0.65164 0.30445 0.0
C1397 C 0.21401 0.62392 0.29781 0.0
C1398 C 0.25477 0.65602 0.3265 0.0
C1399 C 0.27239 0.6329 0.34425 0.0
H1400 H 0.21556 0.67002 0.2865 0.0
H1401 H 0.2636 0.67752 0.32576 0.0
S1402 S 0.24756 0.55694 0.35178 0.0
N1403 N 0.22053 0.57375 0.3213 0.0
N1404 N 0.27207 0.58169 0.36413 0.0
C1405 C 0.25883 0.60559 0.34404 0.0
C1406 C 0.23029 0.60123 0.3211 0.0
C1407 C 0.16417 0.4817 0.0548 0.0
C1408 C 0.19165 0.47022 0.04168 0.0
C1409 C 0.16036 0.50914 0.08024 0.0
C1410 C 0.18378 0.52754 0.09253 0.0
H1411 H 0.14514 0.47035 0.04135 0.0
H1412 H 0.13869 0.51676 0.0869 0.0
S1413 S 0.26049 0.50833 0.06583 0.0
N1414 N 0.24254 0.47994 0.04494 0.0
N1415 N 0.23602 0.53075 0.08876 0.0
C1416 C 0.21137 0.51579 0.08075 0.0
C1417 C 0.21509 0.48767 0.0566 0.0
C1418 C 0.33826 0.43939 0.83006 0.0
C1419 C 0.34344 0.42177 0.78417 0.0
C1420 C 0.31103 0.43927 0.85807 0.0
C1421 C 0.28833 0.41986 0.84515 0.0
H1422 H 0.35358 0.4561 0.83981 0.0
H1423 H 0.30719 0.45569 0.88809 0.0
S1424 S 0.29639 0.35996 0.74756 0.0
N1425 N 0.32644 0.37843 0.7402 0.0
N1426 N 0.27769 0.37676 0.79455 0.0
C1427 C 0.2958 0.3986 0.80715 0.0
C1428 C 0.32268 0.39963 0.7771 0.0
C1429 C 0.40067 0.54866 0.56628 0.0
C1430 C 0.37776 0.53539 0.59467 0.0
C1431 C 0.39675 0.5742 0.53416 0.0
C1432 C 0.36973 0.58821 0.52823 0.0
H1433 H 0.42141 0.53809 0.56547 0.0
H1434 H 0.41471 0.58178 0.51015 0.0
S1435 S 0.30302 0.56406 0.59598 0.0
N1436 N 0.32758 0.54132 0.6192 0.0
N1437 N 0.3198 0.58606 0.5539 0.0
C1438 C 0.34704 0.57574 0.55771 0.0
C1439 C 0.35119 0.55049 0.59212 0.0
C1440 C 0.21627 0.32247 0.39438 0.0
C1441 C 0.19105 0.3394 0.39634 0.0
C1442 C 0.21552 0.29215 0.39787 0.0
C1443 C 0.18951 0.27687 0.4037 0.0
H1444 H 0.23703 0.33275 0.39048 0.0
H1445 H 0.23566 0.28056 0.39543 0.0
S1446 S 0.1172 0.31064 0.41393 0.0
N1447 N 0.13913 0.33818 0.40588 0.0
N1448 N 0.13769 0.28165 0.41326 0.0
C1449 C 0.16406 0.29352 0.40585 0.0
C1450 C 0.16483 0.32449 0.40201 0.0
C1451 C 0.99467 0.89754 0.65433 0.0
C1452 C 1.00804 0.92319 0.63695 0.0
C1453 C 0.96491 0.89311 0.64712 0.0
C1454 C 0.94747 0.91386 0.62095 0.0
H1455 H 1.00728 0.88096 0.67451 0.0
H1456 H 0.95541 0.87371 0.66369 0.0
S1457 S 0.97303 0.98346 0.56285 0.0
N1458 N 1.00211 0.96879 0.59006 0.0
N1459 N 0.94688 0.96016 0.57346 0.0
C1460 C 0.96116 0.9389 0.60063 0.0
C1461 C 0.99116 0.94372 0.60966 0.0
C1462 C 0.34693 0.77416 0.90401 0.0
C1463 C 0.37092 0.79247 0.90779 0.0
C1464 C 0.35005 0.74408 0.90311 0.0
C1465 C 0.37732 0.73076 0.90593 0.0
H1466 H 0.3255 0.78315 0.90068 0.0
H1467 H 0.33076 0.73115 0.90029 0.0
S1468 S 0.4471 0.76876 0.91937 0.0
N1469 N 0.42298 0.79479 0.91699 0.0
N1470 N 0.42881 0.73855 0.91422 0.0
C1471 C 0.4015 0.74879 0.91014 0.0
C1472 C 0.39832 0.77945 0.91135 0.0
C1473 C 0.55172 0.13217 0.21551 0.0
C1474 C 0.53595 0.13483 0.16662 0.0
C1475 C 0.58178 0.13526 0.21651 0.0
C1476 C 0.59734 0.14197 0.169 0.0
H1477 H 0.54081 0.12683 0.25311 0.0
H1478 H 0.59306 0.13204 0.25484 0.0
S1479 S 0.56655 0.15152 0.03055 0.0
N1480 N 0.53839 0.14466 0.06923 0.0
N1481 N 0.59478 0.15109 0.07172 0.0
C1482 C 0.5819 0.14528 0.12005 0.0
C1483 C 0.55129 0.14153 0.11872 0.0
C1484 C 0.21407 0.75781 0.14263 0.0
C1485 C 0.19062 0.77698 0.14129 0.0
C1486 C 0.21011 0.72771 0.14319 0.0
C1487 C 0.18246 0.71497 0.14257 0.0
H1488 H 0.2358 0.7661 0.14424 0.0
H1489 H 0.22914 0.7143 0.14422 0.0
S1490 S 0.11369 0.75525 0.13386 0.0
N1491 N 0.13847 0.78061 0.13539 0.0
N1492 N 0.13122 0.72443 0.13753 0.0
C1493 C 0.1588 0.73385 0.14032 0.0
C1494 C 0.16282 0.76458 0.1394 0.0
C1495 C 0.58975 0.96232 0.38781 0.0
C1496 C 0.60475 0.93631 0.3804 0.0
C1497 C 0.55949 0.96349 0.38738 0.0
C1498 C 0.54269 0.93867 0.37971 0.0
H1499 H 0.60149 0.9821 0.39401 0.0
H1500 H 0.54916 0.98405 0.39354 0.0
S1501 S 0.57116 0.86515 0.35717 0.0
N1502 N 0.60023 0.88507 0.36462 0.0
N1503 N 0.54359 0.88722 0.36362 0.0
C1504 C 0.55739 0.91244 0.37271 0.0
C1505 C 0.58826 0.91126 0.37317 0.0
C1506 C 0.35937 0.33272 0.58345 0.0
C1507 C 0.37312 0.34968 0.62304 0.0
C1508 C 0.35923 0.30247 0.58746 0.0
C1509 C 0.37233 0.28796 0.63183 0.0
H1510 H 0.34926 0.34287 0.54835 0.0
H1511 H 0.3494 0.2904 0.55481 0.0
S1512 S 0.40666 0.32304 0.7513 0.0
N1513 N 0.39773 0.34997 0.71042 0.0
N1514 N 0.39598 0.29369 0.71996 0.0
C1515 C 0.38463 0.30497 0.67327 0.0
C1516 C 0.38541 0.3356 0.66837 0.0
C1517 C 1.02665 0.10278 0.90323 0.0
C1518 C 0.04434 0.12688 0.8944 0.0
C1519 C 0.99656 0.10549 0.90695 0.0
C1520 C 0.98271 0.13239 0.90142 0.0
H1521 H 0.03617 0.08166 0.90804 0.0
H1522 H 0.98406 0.08621 0.91385 0.0
S1523 S 1.01923 0.20218 0.87632 0.0
N1524 N 0.04568 0.17854 0.87929 0.0
N1525 N 0.98947 0.18365 0.88628 0.0
C1526 C 1.00023 0.15667 0.89273 0.0
C1527 C 1.03085 0.15391 0.88914 0.0
C1528 C 0.88248 0.74977 0.62483 0.0
C1529 C 0.85509 0.76282 0.62353 0.0
C1530 C 0.88579 0.71988 0.63043 0.0
C1531 C 0.86186 0.70156 0.63501 0.0
H1532 H 0.90165 0.76287 0.62219 0.0
H1533 H 0.90737 0.71113 0.63123 0.0
S1534 S 0.78529 0.72487 0.63353 0.0
N1535 N 0.80358 0.75506 0.62695 0.0
N1536 N 0.80956 0.69902 0.63712 0.0
C1537 C 0.83427 0.71433 0.63279 0.0
C1538 C 0.83095 0.74483 0.62697 0.0
C1539 C 0.08784 0.13476 0.36512 0.0
C1540 C 0.10451 0.10947 0.36738 0.0
C1541 C 0.05758 0.13398 0.36485 0.0
C1542 C 0.04212 0.10788 0.36762 0.0
H1543 H 0.09826 0.15556 0.36374 0.0
H1544 H 0.04618 0.15427 0.36306 0.0
S1545 S 0.07534 0.03524 0.37331 0.0
N1546 N 0.10307 0.0573 0.37078 0.0
N1547 N 0.04641 0.05584 0.3719 0.0
C1548 C 0.05851 0.08232 0.36863 0.0
C1549 C 0.0895 0.08313 0.36828 0.0
C1550 C 0.6883 0.342 0.16894 0.0
C1551 C 0.70164 0.35629 0.12496 0.0
C1552 C 0.68862 0.31168 0.17418 0.0
C1553 C 0.70169 0.29386 0.13495 0.0
H1554 H 0.6777 0.35441 0.20006 0.0
H1555 H 0.67848 0.3022 0.20958 0.0
S1556 S 0.73622 0.32028 1.00855 0.0
N1557 N 0.72711 0.34998 0.0403 0.0
N1558 N 0.72603 0.29344 0.04803 0.0
C1559 C 0.7145 0.30797 0.09025 0.0
C1560 C 0.71487 0.33889 0.08576 0.0
C1561 C 0.46169 0.9314 0.87104 0.0
C1562 C 0.44545 0.95687 0.87563 0.0
C1563 C 0.49193 0.93167 0.87109 0.0
C1564 C 0.50766 0.95741 0.8757 0.0
H1565 H 0.45097 0.91088 0.86709 0.0
H1566 H 0.50311 0.91137 0.8674 0.0
S1567 S 0.4759 1.03001 0.891 0.0
N1568 N 0.44774 1.00863 0.88621 0.0
N1569 N 0.50446 1.00913 0.88628 0.0
C1570 C 0.49179 0.9831 0.88006 0.0
C1571 C 0.46085 0.98282 0.88014 0.0
C1572 C 0.92052 0.33925 0.90848 0.0
C1573 C 0.89322 0.35099 0.89655 0.0
C1574 C 0.92395 0.30956 0.91922 0.0
C1575 C 0.90013 0.29087 0.91877 0.0
H1576 H 0.93914 0.35312 0.91109 0.0
H1577 H 0.94521 0.30123 0.92823 0.0
S1578 S 0.8255 0.3093 0.88072 0.0
N1579 N 0.84281 0.34017 0.88043 0.0
N1580 N 0.84967 0.28515 0.89825 0.0
C1581 C 0.8733 0.30203 0.90454 0.0
C1582 C 0.86975 0.33187 0.89414 0.0
C1583 C 0.49565 0.13039 0.70417 0.0
C1584 C 0.48059 0.14238 0.65949 0.0
C1585 C 0.52559 0.12783 0.7042 0.0
C1586 C 0.5419 0.13681 0.65918 0.0
H1587 H 0.48409 0.12241 0.73939 0.0
H1588 H 0.53598 0.11864 0.73991 0.0
S1589 S 0.51245 0.16873 0.53083 0.0
N1590 N 0.48386 0.16328 0.56905 0.0
N1591 N 0.54027 0.15767 0.56759 0.0
C1592 C 0.52704 0.14912 0.61415 0.0
C1593 C 0.49639 0.15213 0.61468 0.0
C1594 C 0.66852 0.76902 0.38636 0.0
C1595 C 0.69218 0.78267 0.41142 0.0
C1596 C 0.66566 0.73872 0.38673 0.0
C1597 C 0.68625 0.72086 0.41259 0.0
H1598 H 0.65238 0.78187 0.36546 0.0
H1599 H 0.64738 0.72926 0.36616 0.0
S1600 S 0.7506 0.74669 0.48911 0.0
N1601 N 0.73546 0.77632 0.46522 0.0
N1602 N 0.73017 0.72008 0.46771 0.0
C1603 C 0.70953 0.73463 0.43925 0.0
C1604 C 0.71248 0.76526 0.43818 0.0
C1605 C 0.06031 0.92235 0.09619 0.0
C1606 C 0.04437 0.92922 0.14319 0.0
C1607 C 0.09045 0.9201 0.09775 0.0
C1608 C 0.10568 0.92492 0.14621 0.0
H1609 H 0.04951 0.91943 0.05746 0.0
H1610 H 0.10193 0.91582 0.06044 0.0
S1611 S 0.07477 0.94086 0.28145 0.0
N1612 N 0.04659 0.93847 0.24055 0.0
N1613 N 0.10305 0.93517 0.24279 0.0
C1614 C 0.09016 0.93105 0.19363 0.0
C1615 C 0.05958 0.93302 0.1923 0.0
C1616 C 0.69961 0.81845 0.88355 0.0
C1617 C 0.67779 0.79982 0.90092 0.0
C1618 C 0.69401 0.84769 0.87392 0.0
C1619 C 0.66647 0.85963 0.88238 0.0
H1620 H 0.72103 0.81024 0.87626 0.0
H1621 H 0.71172 0.86115 0.86097 0.0
S1622 S 0.60172 0.81928 0.92627 0.0
N1623 N 0.6274 0.7948 0.92445 0.0
N1624 N 0.61695 0.84984 0.90782 0.0
C1625 C 0.64435 0.84098 0.89901 0.0
C1626 C 0.65002 0.81113 0.90813 0.0
C1627 C 0.52264 0.46453 0.15023 0.0
C1628 C 0.53954 0.43989 0.14219 0.0
C1629 C 0.49248 0.46336 0.14933 0.0
C1630 C 0.4774 0.4375 0.14004 0.0
H1631 H 0.53282 0.48501 0.15804 0.0
H1632 H 0.48091 0.48315 0.15628 0.0
S1633 S 0.51134 0.36687 0.11362 0.0
N1634 N 0.53886 0.38879 0.12242 0.0
N1635 N 0.4821 0.38662 0.1209 0.0
C1636 C 0.49397 0.41269 0.13091 0.0
C1637 C 0.52493 0.41385 0.13216 0.0
C1638 C 0.86719 0.25909 0.39211 0.0
C1639 C 0.89237 0.27507 0.40115 0.0
C1640 C 0.86775 0.22899 0.38908 0.0
C1641 C 0.89352 0.21312 0.39524 0.0
H1642 H 0.84673 0.26996 0.38706 0.0
H1643 H 0.84748 0.21803 0.38286 0.0
S1644 S 0.96567 0.24448 0.41962 0.0
N1645 N 0.94409 0.27264 0.41593 0.0
N1646 N 0.94506 0.21606 0.41029 0.0
C1647 C 0.91901 0.2288 0.4033 0.0
C1648 C 0.91846 0.25966 0.40627 0.0
C1649 C 0.04732 0.58747 0.66241 0.0
C1650 C 1.03149 0.6134 0.6643 0.0
C1651 C 0.07775 0.58728 0.65919 0.0
C1652 C 0.09374 0.61301 0.65719 0.0
H1653 H 0.0361 0.56711 0.6626 0.0
H1654 H 0.08878 0.5668 0.65804 0.0
S1655 S 0.06283 0.68676 0.66605 0.0
N1656 N 0.03465 0.66539 0.66856 0.0
N1657 N 0.09077 0.66527 0.66 0.0
C1658 C 0.07801 0.63903 0.65976 0.0
C1659 C 0.0473 0.63917 0.66396 0.0
C1660 C 0.72329 0.26273 0.62689 0.0
C1661 C 0.69765 0.27838 0.63362 0.0
C1662 C 0.7237 0.23257 0.63056 0.0
C1663 C 0.69858 0.21675 0.64188 0.0
H1664 H 0.74333 0.27388 0.61955 0.0
H1665 H 0.74398 0.22156 0.62487 0.0
S1666 S 0.62536 0.24702 0.65834 0.0
N1667 N 0.64598 0.27533 0.64783 0.0
N1668 N 0.64713 0.21903 0.65747 0.0
C1669 C 0.67278 0.23207 0.64837 0.0
C1670 C 0.67222 0.26271 0.6435 0.0
C1671 C 0.05535 0.46457 0.85488 0.0
C1672 C 0.03878 0.45063 0.8955 0.0
C1673 C 0.08579 0.46235 0.85339 0.0
C1674 C 0.10137 0.44548 0.89157 0.0
H1675 H 0.04476 0.47691 0.82302 0.0
H1676 H 0.09718 0.47335 0.82101 0.0
S1677 S 0.07006 0.40736 1.01036 0.0
N1678 N 0.04206 0.4221 0.97939 0.0
N1679 N 0.09815 0.41615 0.97315 0.0
C1680 C 0.08541 0.43187 0.93278 0.0
C1681 C 0.0546 0.43488 0.93561 0.0
C1682 C 0.85692 0.83266 0.15782 0.0
C1683 C 0.88363 0.84599 0.14732 0.0
C1684 C 0.85359 0.80244 0.15753 0.0
C1685 C 0.87688 0.78383 0.14746 0.0
H1686 H 0.83818 0.84562 0.16587 0.0
H1687 H 0.83256 0.79355 0.16594 0.0
S1688 S 0.95151 0.8071 0.117 0.0
N1689 N 0.93394 0.83748 0.12613 0.0
N1690 N 0.92769 0.78125 0.1259 0.0
C1691 C 0.90377 0.79678 0.13734 0.0
C1692 C 0.90713 0.82754 0.13722 0.0
C1693 C 0.50692 0.65026 0.42141 0.0
C1694 C 0.52227 0.62792 0.39596 0.0
C1695 C 0.47661 0.65201 0.41886 0.0
C1696 C 0.4601 0.63144 0.39089 0.0
H1697 H 0.51843 0.66653 0.44394 0.0
H1698 H 0.46605 0.66958 0.4393 0.0
S1699 S 0.48963 0.56982 0.31344 0.0
N1700 N 0.51834 0.58564 0.33918 0.0
N1701 N 0.46188 0.58862 0.33478 0.0
C1702 C 0.47521 0.60911 0.36481 0.0
C1703 C 0.50604 0.6074 0.3673 0.0
C1704 C 0.4052 0.23741 0.1426 0.0
C1705 C 0.37959 0.22185 0.15039 0.0
C1706 C 0.40506 0.26764 0.13762 0.0
C1707 C 0.3793 0.2837 0.1401 0.0
H1708 H 0.42547 0.22615 0.13893 0.0
H1709 H 0.42531 0.2785 0.13084 0.0
S1710 S 0.30664 0.25369 0.16505 0.0
N1711 N 0.32784 0.22528 0.16367 0.0
N1712 N 0.32779 0.28162 0.15476 0.0
C1713 C 0.35368 0.26845 0.14926 0.0
C1714 C 0.35379 0.23775 0.15439 0.0
C1715 C 0.58097 0.66864 0.8945 0.0
C1716 C 0.59772 0.64411 0.90651 0.0
C1717 C 0.55079 0.66686 0.88849 0.0
C1718 C 0.53615 0.64038 0.89319 0.0
H1719 H 0.59122 0.68935 0.88931 0.0
H1720 H 0.53885 0.68646 0.88068 0.0
S1721 S 0.57007 0.56936 0.92128 0.0
N1722 N 0.59686 0.59243 0.9239 0.0
N1723 N 0.54138 0.5888 0.90661 0.0
C1724 C 0.55281 0.61566 0.9039 0.0
C1725 C 0.58317 0.6176 0.9122 0.0
C1726 C 0.13585 0.8222 0.63048 0.0
C1727 C 0.16094 0.83763 0.64273 0.0
C1728 C 0.13695 0.79231 0.62347 0.0
C1729 C 0.16318 0.77729 0.62798 0.0
H1730 H 0.11565 0.83335 0.62396 0.0
H1731 H 0.11736 0.78096 0.61327 0.0
S1732 S 0.23387 0.80742 0.66771 0.0
N1733 N 0.21199 0.8353 0.66533 0.0
N1734 N 0.21392 0.77948 0.65144 0.0
C1735 C 0.18799 0.79235 0.64297 0.0
C1736 C 0.18687 0.82246 0.65067 0.0
C1737 C 0.98887 0.4161 0.37988 0.0
C1738 C 0.97281 0.44167 0.38415 0.0
C1739 C 1.01919 0.41625 0.37784 0.0
C1740 C 0.03527 0.44196 0.38035 0.0
H1741 H 0.97794 0.39562 0.3774 0.0
H1742 H 1.0301 0.39583 0.37383 0.0
S1743 S 1.00385 0.515 0.39432 0.0
N1744 N 0.97558 0.49363 0.39178 0.0
N1745 N 1.03222 0.49386 0.38941 0.0
C1746 C 1.01946 0.46775 0.38494 0.0
C1747 C 0.98848 0.46761 0.3866 0.0
C1748 C 0.39798 0.84242 0.41304 0.0
C1749 C 0.37331 0.85991 0.40708 0.0
C1750 C 0.39623 0.81216 0.41801 0.0
C1751 C 0.36969 0.79728 0.41666 0.0
H1752 H 0.41908 0.85222 0.4145 0.0
H1753 H 0.41612 0.80036 0.42327 0.0
S1754 S 0.29832 0.83273 0.39993 0.0
N1755 N 0.32124 0.85977 0.40006 0.0
N1756 N 0.31791 0.80331 0.4072 0.0
C1757 C 0.34476 0.81457 0.41064 0.0
C1758 C 0.34657 0.84556 0.4063 0.0
C1759 C 1.00344 0.59636 0.15671 0.0
C1760 C 1.01894 0.62222 0.16138 0.0
C1761 C 0.97321 0.59616 0.15341 0.0
C1762 C 0.95707 0.62182 0.15421 0.0
H1763 H 1.01477 0.57606 0.1548 0.0
H1764 H 0.96241 0.57563 0.15023 0.0
S1765 S 0.98703 0.69529 0.16964 0.0
N1766 N 1.01551 0.67414 0.16995 0.0
N1767 N 0.95912 0.67384 0.16197 0.0
C1768 C 0.9723 0.64784 0.15911 0.0
C1769 C 1.00304 0.64801 0.16317 0.0
C1770 C 0.17035 0.2564 0.90063 0.0
C1771 C 0.19458 0.27459 0.90171 0.0
C1772 C 0.17317 0.2263 0.89683 0.0
C1773 C 0.20034 0.2129 0.89371 0.0
H1774 H 0.14899 0.26545 0.90393 0.0
H1775 H 0.15381 0.2134 0.89762 0.0
S1776 S 0.27049 0.25091 0.88856 0.0
N1777 N 0.24661 0.27691 0.89469 0.0
N1778 N 0.25189 0.22075 0.88796 0.0
C1779 C 0.22467 0.23094 0.89296 0.0
C1780 C 0.22181 0.26156 0.89689 0.0
C1781 C 0.58485 0.41132 0.61282 0.0
C1782 C 0.60198 0.43372 0.63375 0.0
C1783 C 0.55441 0.4117 0.61711 0.0
C1784 C 0.53972 0.43435 0.64306 0.0
H1785 H 0.595 0.39355 0.59225 0.0
H1786 H 0.54227 0.39436 0.59906 0.0
S1787 S 0.57488 0.49544 0.71338 0.0
N1788 N 0.60187 0.4773 0.68716 0.0
N1789 N 0.54548 0.47805 0.69529 0.0
C1790 C 0.55682 0.45616 0.66611 0.0
C1791 C 0.58761 0.45583 0.66149 0.0
C1792 C 0.14927 0.07908 0.19952 0.0
C1793 C 0.15946 0.04843 0.19155 0.0
C1794 C 0.12739 0.08629 0.14806 0.0
C1795 C 0.11381 0.07048 0.09203 0.0
H1796 H 0.15344 0.09309 0.23344 0.0
H1797 H 0.11894 0.10843 0.15299 0.0
S1798 S 0.12212 0.99295 0.03594 0.0
N1799 N 0.14435 0.99066 0.08921 0.0
N1800 N 0.10846 1.02605 0.03176 0.0
C1801 C 0.12096 0.03875 0.07518 0.0
C1802 C 0.14204 1.01791 0.10845 0.0
C1803 C 0.30646 0.90774 0.56494 0.0
C1804 C 0.3128 0.92622 0.51487 0.0
C1805 C 0.27618 0.90635 0.59115 0.0
C1806 C 0.24063 0.94023 0.53678 0.0
H1807 H 0.32358 0.8947 0.58227 0.0
H1808 H 0.27327 0.89266 0.62732 0.0
S1809 S 0.2489 1.00092 0.42242 0.0
N1810 N 0.27643 0.97523 0.42941 0.0
N1811 N 0.23078 0.99635 0.48106 0.0
C1812 C 0.24627 0.96164 0.49206 0.0
C1813 C 0.28935 0.94806 0.48659 0.0
C1814 C 0.42503 0.9894 0.73945 0.0
C1815 C 0.41912 1.0202 0.72164 0.0
C1816 C 0.45428 0.97938 0.70728 0.0
C1817 C 0.47831 0.99262 0.66259 0.0
H1818 H 0.41287 0.9761 0.76701 0.0
H1819 H 0.4593 0.95684 0.71932 0.0
S1820 S 0.4847 0.06755 0.59135 0.0
N1821 N 0.45452 0.07278 0.62606 0.0
N1822 N 0.49673 0.03426 0.60298 0.0
C1823 C 0.47678 1.02396 0.63791 0.0
C1824 C 0.45242 0.04687 0.6519 0.0
C1825 C 0.32715 0.11723 0.81555 0.0
C1826 C 0.35864 0.1081 0.84126 0.0
C1827 C 0.29557 0.12052 0.8458 0.0
C1828 C 0.3151 0.11326 0.94566 0.0
H1829 H 0.32788 0.12652 0.77537 0.0
H1830 H 0.27794 0.13186 0.82591 0.0
S1831 S 0.38654 0.07588 0.97811 0.0
N1832 N 0.38923 0.08506 0.91306 0.0
N1833 N 0.35565 0.08843 1.00147 0.0
C1834 C 0.34549 0.1016 0.95646 0.0
C1835 C 0.36462 0.0998 0.9028 0.0
C1836 C 0.89116 0.99806 0.84151 0.0
C1837 C 0.88858 0.98814 0.78302 0.0
C1838 C 0.89333 1.03005 0.85639 0.0
C1839 C 0.89521 0.06159 0.76643 0.0
H1840 H 0.89337 0.98247 0.8738 0.0
H1841 H 0.89337 0.03573 0.89967 0.0
S1842 S 0.8857 0.04583 0.60678 0.0
N1843 N 0.88929 1.01779 0.65274 0.0
N1844 N 0.88097 0.07302 0.64808 0.0
C1845 C 0.89456 0.05342 0.70641 0.0
C1846 C 0.88729 1.01036 0.73076 0.0
C1847 C 0.8536 0.12566 0.65898 0.0
C1848 C 0.84386 0.10624 0.71433 0.0
C1849 C 0.83964 0.14191 0.6051 0.0
C1850 C 0.80773 0.13535 0.60672 0.0
H1851 H 0.87695 0.12805 0.65695 0.0
H1852 H 0.85139 0.15549 0.57852 0.0
S1853 S 0.77257 0.06926 0.75019 0.0
N1854 N 0.80636 0.0774 0.76567 0.0
N1855 N 0.76189 0.0895 0.69828 0.0
C1856 C 0.78607 0.10547 0.68921 0.0
C1857 C 0.8125 0.09716 0.72681 0.0
C1858 C 0.59981 1.01748 0.12336 0.0
C1859 C 0.59336 0.041 0.15709 0.0
C1860 C 0.61019 0.99274 0.15092 0.0
C1861 C 0.60735 0.99145 0.20865 0.0
H1862 H 0.60581 1.02102 0.08131 0.0
H1863 H 0.62475 0.97888 0.12943 0.0
S1864 S 0.54476 1.02666 0.27225 0.0
N1865 N 0.5531 0.04752 0.21957 0.0
N1866 N 0.5674 0.99913 0.27188 0.0
C1867 C 0.58263 1.00605 0.22678 0.0
C1868 C 0.57478 1.03173 0.19861 0.0
C1869 C 0.80259 0.92439 0.96937 0.0
C1870 C 0.80367 0.93297 0.04248 0.0
C1871 C 0.77243 0.9267 0.92252 0.0
C1872 C 0.74489 0.94092 1.00929 0.0
H1873 H 0.82298 0.91373 0.94493 0.0
H1874 H 0.76979 0.92263 0.87908 0.0
S1875 S 0.73741 0.95791 0.18098 0.0
N1876 N 0.77303 0.95129 0.18212 0.0
N1877 N 0.72203 0.95533 0.11839 0.0
C1878 C 0.7454 0.94676 0.08447 0.0
C1879 C 0.7757 0.94554 0.12899 0.0
C1880 C 0.66903 0.50922 0.81564 0.0
C1881 C 0.67522 0.50581 0.75574 0.0
C1882 C 0.67091 0.53852 0.84338 0.0
C1883 C 0.68393 0.57882 0.77104 0.0
H1884 H 0.66134 0.4911 0.83908 0.0
H1885 H 0.66694 0.53931 0.88736 0.0
S1886 S 0.70957 0.57869 0.61608 0.0
N1887 N 0.69363 0.54743 0.64264 0.0
N1888 N 0.71665 0.59752 0.67293 0.0
C1889 C 0.69158 0.57667 0.71176 0.0
C1890 C 0.68584 0.53182 0.71547 0.0
C1891 C 0.72775 0.37259 0.90315 0.0
C1892 C 0.74286 0.35742 0.84819 0.0
C1893 C 0.73571 0.39566 0.95146 0.0
C1894 C 0.76641 0.40511 0.94128 0.0
H1895 H 0.70544 0.36483 0.90977 0.0
H1896 H 0.72206 0.4009 0.98531 0.0
S1897 S 0.81723 0.36866 0.77965 0.0
N1898 N 0.78512 0.35288 0.78233 0.0
N1899 N 0.82142 0.39011 0.83315 0.0
C1900 C 0.79583 0.38551 0.85841 0.0
C1901 C 0.7743 0.36402 0.82854 0.0
C1902 C 0.84177 0.46464 0.188 0.0
C1903 C 0.8536 0.46439 0.12362 0.0
C1904 C 0.83805 0.48708 0.23852 0.0
C1905 C 0.85138 0.51571 0.22007 0.0
H1906 H 0.8322 0.44379 0.20032 0.0
H1907 H 0.82759 0.48121 0.27564 0.0
S1908 S 0.89921 0.51927 0.04271 0.0
N1909 N 0.88299 0.48757 0.04821 0.0
N1910 N 0.8868 0.54087 0.09046 0.0
C1911 C 0.86881 0.52238 0.11762 0.0
C1912 C 0.86636 0.49104 0.09257 0.0
C1913 C 0.8274 0.60779 0.42325 0.0
C1914 C 0.82402 0.63496 0.39855 0.0
C1915 C 0.80995 0.60152 0.46778 0.0
C1916 C 0.79479 0.62385 0.4948 0.0
H1917 H 0.83444 0.58975 0.39921 0.0
H1918 H 0.80706 0.57901 0.47738 0.0
S1919 S 0.81407 0.70116 0.47789 0.0
N1920 N 0.82872 0.6849 0.4255 0.0
N1921 N 0.798 0.67566 0.51347 0.0
C1922 C 0.80474 0.65213 0.48387 0.0
C1923 C 0.82195 0.65716 0.43699 0.0
C1924 C 0.38858 0.58304 0.20006 0.0
C1925 C 0.39278 0.5514 0.19411 0.0
C1926 C 0.40224 0.59772 0.14545 0.0
C1927 C 0.42058 0.58902 0.08883 0.0
H1928 H 0.37538 0.59337 0.22893 0.0
H1929 H 0.39108 0.61849 0.14289 0.0
S1930 S 0.44914 0.51545 0.03975 0.0
N1931 N 0.42915 0.50433 0.09173 0.0
N1932 N 0.44518 0.55081 0.03145 0.0
C1933 C 0.42709 0.5572 0.07252 0.0
C1934 C 0.41723 0.52978 0.10715 0.0
C1935 C 0.24596 0.64912 1.01065 0.0
C1936 C 0.24267 0.64024 0.06966 0.0
C1937 C 0.27522 0.64874 0.98215 0.0
C1938 C 0.3157 0.63341 0.05247 0.0
H1939 H 0.22794 0.65874 0.98953 0.0
H1940 H 0.27584 0.65467 0.93888 0.0
S1941 S 0.31623 0.60174 0.20453 0.0
N1942 N 0.28481 0.61759 0.17969 0.0
N1943 N 0.33521 0.5977 0.1474 0.0
C1944 C 0.31367 0.62352 0.11119 0.0
C1945 C 0.26861 0.62794 0.10865 0.0
C1946 C 0.22254 0.56789 0.94225 0.0
C1947 C 0.24185 0.58529 0.90588 0.0
C1948 C 0.21308 0.53796 0.9246 0.0
C1949 C 0.23709 0.5243 0.83201 0.0
H1950 H 0.21459 0.57674 0.97989 0.0
H1951 H 0.19718 0.52688 0.95008 0.0
S1952 S 0.28763 0.58152 0.72887 0.0
N1953 N 0.26603 0.59904 0.8 0.0
N1954 N 0.2833 0.53742 0.75585 0.0
C1955 C 0.26647 0.53387 0.81797 0.0
C1956 C 0.25612 0.57425 0.84814 0.0
C1957 C 0.23104 0.45523 0.60764 0.0
C1958 C 0.26319 0.45143 0.6053 0.0
C1959 C 0.22462 0.46695 0.66983 0.0
C1960 C 0.24249 0.47473 0.72839 0.0
H1961 H 0.21587 0.45459 0.57454 0.0
H1962 H 0.20135 0.47247 0.67227 0.0
S1963 S 0.32263 0.48797 0.75668 0.0
N1964 N 0.32395 0.47513 0.6943 0.0
N1965 N 0.28933 0.48369 0.7796 0.0
C1966 C 0.27566 0.47402 0.73482 0.0
C1967 C 0.29649 0.46527 0.68767 0.0
C1968 C 0.21828 0.11913 0.11624 0.0
C1969 C 0.19571 0.13113 0.08494 0.0
C1970 C 0.21899 0.12085 0.17317 0.0
C1971 C 0.19749 0.13523 0.20226 0.0
H1972 H 0.23553 0.10769 0.09645 0.0
H1973 H 0.23647 0.11029 0.19486 0.0
S1974 S 0.13357 0.171 0.14067 0.0
N1975 N 0.15109 0.15825 0.08769 0.0
N1976 N 0.1526 0.16185 0.19531 0.0
C1977 C 0.17484 0.14784 0.17182 0.0
C1978 C 0.17384 0.14561 0.11319 0.0
C1979 C 0.14738 0.94384 0.41856 0.0
C1980 C 0.15729 0.92043 0.45004 0.0
C1981 C 0.15433 0.94651 0.36277 0.0
C1982 C 0.17123 0.92577 0.33575 0.0
H1983 H 0.13588 0.96119 0.43789 0.0
H1984 H 0.14706 0.96556 0.34098 0.0
S1985 S 0.20067 0.85934 0.39921 0.0
N1986 N 0.18369 0.8754 0.44937 0.0
N1987 N 0.19601 0.88009 0.3449 0.0
C1988 C 0.1798 0.90147 0.36612 0.0
C1989 C 0.17309 0.89897 0.42304 0.0
C1990 C 0.35563 0.95408 0.65824 0.0
C1991 C 0.37041 0.93476 0.69264 0.0
C1992 C 0.3637 0.95875 0.60411 0.0
C1993 C 0.38696 0.94414 0.58005 0.0
H1994 H 0.33766 0.9663 0.67371 0.0
H1995 H 0.35109 0.97407 0.58057 0.0
S1996 S 0.43394 0.89165 0.65268 0.0
N1997 N 0.41061 0.9015 0.69954 0.0
N1998 N 0.42521 0.9094 0.59624 0.0
C1999 C 0.40231 0.9247 0.61386 0.0
C2000 C 0.39409 0.9201 0.67016 0.0
C2001 C 0.38984 0.17041 0.87058 0.0
C2002 C 0.40684 0.15049 0.8423 0.0
C2003 C 0.38706 0.16923 0.9286 0.0
C2004 C 0.4029 0.14957 0.96136 0.0
H2005 H 0.37656 0.18523 0.84734 0.0
H2006 H 0.37143 0.18303 0.94774 0.0
S2007 S 0.46193 0.10395 0.90901 0.0
N2008 N 0.44669 0.1172 0.85323 0.0
N2009 N 0.4443 0.11773 0.96078 0.0
C2010 C 0.4249 0.1346 0.93405 0.0
C2011 C 0.42624 0.13434 0.87503 0.0
C2012 C 0.89897 0.89203 0.85966 0.0
C2013 C 0.87822 0.90747 0.82863 0.0
C2014 C 0.90373 0.89752 0.91628 0.0
C2015 C 0.88869 0.91941 0.94399 0.0
H2016 H 0.91176 0.87572 0.84005 0.0
H2017 H 0.91907 0.88435 0.93855 0.0
S2018 S 0.83389 0.96754 0.88042 0.0
N2019 N 0.84293 0.94567 0.83088 0.0
N2020 N 0.85395 0.95801 0.93347 0.0
C2021 C 0.86902 0.93568 0.91247 0.0
C2022 C 0.86323 0.92921 0.85613 0.0
C2023 C 0.93071 0.1321 0.68422 0.0
C2024 C 0.91517 0.1549 0.70894 0.0
C2025 C 0.9314 0.12817 0.62685 0.0
C2026 C 0.91684 0.14699 0.59075 0.0
H2027 H 0.94028 0.11544 0.70955 0.0
H2028 H 0.94103 0.10873 0.61133 0.0
S2029 S 0.88067 0.21478 0.63184 0.0
N2030 N 0.89015 0.19977 0.69053 0.0
N2031 N 0.89255 0.19326 0.58378 0.0
C2032 C 0.90526 0.17227 0.6143 0.0
C2033 C 0.90418 0.17607 0.6729 0.0
C2034 C 0.6593 0.13736 0.43952 0.0
C2035 C 0.68423 0.14493 0.46846 0.0
C2036 C 0.65714 0.14257 0.38295 0.0
C2037 C 0.67947 0.15611 0.35353 0.0
H2038 H 0.64241 0.12539 0.45967 0.0
H2039 H 0.63883 0.13384 0.36122 0.0
S2040 S 0.74705 0.1844 0.41215 0.0
N2041 N 0.73007 0.17013 0.4647 0.0
N2042 N 0.72575 0.17964 0.35894 0.0
C2043 C 0.70315 0.16622 0.383 0.0
C2044 C 0.70559 0.16066 0.4403 0.0
C2045 C 0.68503 0.90515 0.09814 0.0
C2046 C 0.65852 0.91703 0.07942 0.0
C2047 C 0.69162 0.9014 0.15408 0.0
C2048 C 0.67183 0.90879 0.1944 0.0
H2049 H 0.702 0.90057 0.06954 0.0
H2050 H 0.71325 0.8951 0.16566 0.0
S2051 S 0.59467 0.92452 0.16785 0.0
N2052 N 0.60906 0.92505 0.10637 0.0
N2053 N 0.62141 0.91861 0.21126 0.0
C2054 C 0.64372 0.91586 0.17634 0.0
C2055 C 0.63698 0.91963 0.11907 0.0
C2056 C 0.69842 0.6666 0.67951 0.0
C2057 C 0.67532 0.65692 0.71161 0.0
C2058 C 0.69947 0.66138 0.62277 0.0
C2059 C 0.67774 0.646 0.59489 0.0
H2060 H 0.71653 0.67715 0.69867 0.0
H2061 H 0.71768 0.66943 0.60046 0.0
S2062 S 0.60955 0.62153 0.65759 0.0
N2063 N 0.62798 0.63489 0.70916 0.0
N2064 N 0.63017 0.62521 0.60343 0.0
C2065 C 0.65345 0.63829 0.62569 0.0
C2066 C 0.65231 0.64355 0.68357 0.0
C2067 C 0.66386 0.41745 0.85772 0.0
C2068 C 0.68323 0.43203 0.82286 0.0
C2069 C 0.66323 0.42276 0.91497 0.0
C2070 C 0.68187 0.44297 0.93957 0.0
H2071 H 0.649 0.40202 0.84069 0.0
H2072 H 0.64862 0.41047 0.94016 0.0
S2073 S 0.73614 0.48668 0.86699 0.0
N2074 N 0.72096 0.46777 0.81823 0.0
N2075 N 0.71945 0.47772 0.92341 0.0
C2076 C 0.70076 0.4577 0.90471 0.0
C2077 C 0.7015 0.4523 0.84731 0.0
C2078 C 0.91345 0.42951 0.1136 0.0
C2079 C 0.89047 0.41748 0.08371 0.0
C2080 C 0.91413 0.42844 0.17148 0.0
C2081 C 0.89172 0.41586 0.20206 0.0
H2082 H 0.92986 0.44171 0.09257 0.0
H2083 H 0.93155 0.43909 0.19261 0.0
S2084 S 0.83118 0.37421 0.14403 0.0
N2085 N 0.8482 0.38681 0.09004 0.0
N2086 N 0.84944 0.38562 0.19748 0.0
C2087 C 0.87099 0.4003 0.17267 0.0
C2088 C 0.8703 0.4011 0.11395 0.0
C2089 C 0.89036 0.60154 0.3745 0.0
C2090 C 0.88663 0.62815 0.3468 0.0
C2091 C 0.89202 0.59889 0.43146 0.0
C2092 C 0.89034 0.62293 0.46476 0.0
H2093 H 0.89005 0.58194 0.35267 0.0
H2094 H 0.89239 0.57756 0.44955 0.0
S2095 S 0.89369 0.69861 0.41526 0.0
N2096 N 0.89019 0.67985 0.35868 0.0
N2097 N 0.89348 0.67511 0.46629 0.0
C2098 C 0.89113 0.65016 0.43849 0.0
C2099 C 0.88928 0.65279 0.37957 0.0
C2100 C 0.37411 0.41581 0.36109 0.0
C2101 C 0.39641 0.42936 0.33232 0.0
C2102 C 0.3713 0.41916 0.41797 0.0
C2103 C 0.39091 0.43576 0.44877 0.0
H2104 H 0.35756 0.40429 0.3391 0.0
H2105 H 0.35304 0.40926 0.43784 0.0
S2106 S 0.45409 0.47419 0.39336 0.0
N2107 N 0.43912 0.45918 0.33951 0.0
N2108 N 0.43429 0.46446 0.44601 0.0
C2109 C 0.41421 0.44796 0.42097 0.0
C2110 C 0.41679 0.44504 0.36298 0.0
C2111 C 0.41799 0.65706 0.18995 0.0
C2112 C 0.39161 0.66767 0.21126 0.0
C2113 C 0.42403 0.65759 0.1325 0.0
C2114 C 0.40281 0.66698 0.09463 0.0
H2115 H 0.43264 0.64557 0.21682 0.0
H2116 H 0.44273 0.64617 0.11808 0.0
S2117 S 0.34378 0.71661 0.13276 0.0
N2118 N 0.35368 0.70194 0.19157 0.0
N2119 N 0.36403 0.70171 0.08589 0.0
C2120 C 0.38082 0.68422 0.11716 0.0
C2121 C 0.37522 0.6845 0.1749 0.0
C2122 C 0.18998 0.63849 0.87124 0.0
C2123 C 0.16586 0.64644 0.84029 0.0
C2124 C 0.18804 0.63233 0.92715 0.0
C2125 C 0.16239 0.63482 0.95717 0.0
H2126 H 0.21033 0.63479 0.8512 0.0
H2127 H 0.2071 0.62442 0.94677 0.0
S2128 S 0.09207 0.65477 0.89531 0.0
N2129 N 0.11439 0.65528 0.84311 0.0
N2130 N 0.11153 0.64623 0.94973 0.0
C2131 C 0.13785 0.64332 0.92696 0.0
C2132 C 0.1395 0.64858 0.86862 0.0
C2133 C 0.16051 0.4359 0.67694 0.0
C2134 C 0.17945 0.41805 0.70756 0.0
C2135 C 0.15843 0.43442 0.6192 0.0
C2136 C 0.17509 0.41485 0.58916 0.0
H2137 H 0.1486 0.45257 0.69747 0.0
H2138 H 0.14537 0.45021 0.59784 0.0
S2139 S 0.22298 0.35896 0.65022 0.0
N2140 N 0.21129 0.37691 0.70339 0.0
N2141 N 0.20771 0.37412 0.59623 0.0
C2142 C 0.19183 0.39501 0.61994 0.0
C2143 C 0.19379 0.39646 0.67858 0.0
loop_
_geom_bond_atom_site_label_1
_geom_bond_atom_site_label_2
_geom_bond_distance
_geom_bond_site_symmetry_2
_ccdc_geom_bond_type
C0 O16 1.251 . S
C0 O18 1.254 . S
N1 C2 1.333 . S
N1 C6 1.307 . S
N1 Zn7 2.020 . S
C2 N1 1.333 . S
C2 C3 1.379 . S
C2 H20 0.952 . S
C3 C2 1.379 . S
C3 C4 1.390 . S
C3 H30 0.949 . S
C4 C3 1.390 . S
C4 C5 1.357 . S
C5 C4 1.357 . S
C5 C6 1.370 . S
C5 H31 0.950 . S
C6 N1 1.307 . S
C6 C5 1.370 . S
C6 H24 0.948 . S
Zn7 N1 2.020 . S
Zn7 O16 2.039 . S
Zn7 O22 2.034 . S
Zn7 O26 2.025 . S
Zn7 O28 2.024 . S
C8 O27 1.246 . S
C8 O28 1.249 . S
N9 C10 1.307 . S
N9 C11 1.333 . S
N9 Zn15 2.020 . S
C10 N9 1.307 . S
C10 C14 1.370 . S
C10 H21 0.948 . S
C11 N9 1.333 . S
C11 C12 1.379 . S
C11 H19 0.952 . S
C12 C11 1.379 . S
C12 C13 1.392 . S
C12 H32 0.949 . S
C13 C12 1.392 . S
C13 C14 1.359 . S
C14 C10 1.370 . S
C14 C13 1.359 . S
C14 H33 0.950 . S
Zn15 N9 2.020 . S
Zn15 O18 2.025 . S
Zn15 O23 2.024 . S
Zn15 O25 2.039 . S
Zn15 O27 2.034 . S
O16 C0 1.251 . S
O16 Zn7 2.039 . S
C17 O22 1.246 . S
C17 O23 1.249 . S
O18 C0 1.254 . S
O18 Zn15 2.025 . S
H19 C11 0.952 . S
H20 C2 0.952 . S
H21 C10 0.948 . S
O22 Zn7 2.034 . S
O22 C17 1.246 . S
O23 Zn15 2.024 . S
O23 C17 1.249 . S
H24 C6 0.948 . S
O25 Zn15 2.039 . S
O25 C29 1.251 . S
O26 Zn7 2.025 . S
O26 C29 1.254 . S
O27 C8 1.246 . S
O27 Zn15 2.034 . S
O28 Zn7 2.024 . S
O28 C8 1.249 . S
C29 O25 1.251 . S
C29 O26 1.254 . S
H30 C3 0.949 . S
H31 C5 0.950 . S
H32 C12 0.949 . S
H33 C14 0.950 . S
C34 O50 1.251 . S
C34 O52 1.254 . S
N35 C36 1.333 . S
N35 C40 1.307 . S
N35 Zn41 2.020 . S
C36 N35 1.333 . S
C36 C37 1.379 . S
C36 H54 0.952 . S
C37 C36 1.379 . S
C37 C38 1.390 . S
C37 H64 0.949 . S
C38 C37 1.390 . S
C38 C39 1.357 . S
C39 C38 1.357 . S
C39 C40 1.370 . S
C39 H65 0.950 . S
C40 N35 1.307 . S
C40 C39 1.370 . S
C40 H58 0.948 . S
Zn41 N35 2.020 . S
Zn41 O50 2.039 . S
Zn41 O56 2.034 . S
Zn41 O60 2.025 . S
Zn41 O62 2.024 . S
C42 O61 1.246 . S
C42 O62 1.249 . S
N43 C44 1.307 . S
N43 C45 1.333 . S
N43 Zn49 2.020 . S
C44 N43 1.307 . S
C44 C48 1.370 . S
C44 H55 0.948 . S
C45 N43 1.333 . S
C45 C46 1.379 . S
C45 H53 0.952 . S
C46 C45 1.379 . S
C46 C47 1.390 . S
C46 H66 0.949 . S
C47 C46 1.390 . S
C47 C48 1.357 . S
C48 C44 1.370 . S
C48 C47 1.357 . S
C48 H67 0.950 . S
Zn49 N43 2.020 . S
Zn49 O52 2.025 . S
Zn49 O57 2.024 . S
Zn49 O59 2.039 . S
Zn49 O61 2.034 . S
O50 C34 1.251 . S
O50 Zn41 2.039 . S
C51 O56 1.246 . S
C51 O57 1.249 . S
O52 C34 1.254 . S
O52 Zn49 2.025 . S
H53 C45 0.952 . S
H54 C36 0.952 . S
H55 C44 0.948 . S
O56 Zn41 2.034 . S
O56 C51 1.246 . S
O57 Zn49 2.024 . S
O57 C51 1.249 . S
H58 C40 0.948 . S
O59 Zn49 2.039 . S
O59 C63 1.251 . S
O60 Zn41 2.025 . S
O60 C63 1.254 . S
O61 C42 1.246 . S
O61 Zn49 2.034 . S
O62 Zn41 2.024 . S
O62 C42 1.249 . S
C63 O59 1.251 . S
C63 O60 1.254 . S
H64 C37 0.949 . S
H65 C39 0.950 . S
H66 C46 0.949 . S
H67 C48 0.950 . S
C68 O84 1.251 . S
C68 O86 1.254 . S
N69 C70 1.333 . S
N69 C74 1.307 . S
N69 Zn75 2.020 . S
C70 N69 1.333 . S
C70 C71 1.379 . S
C70 H88 0.952 . S
C71 C70 1.379 . S
C71 C72 1.390 . S
C71 H98 0.949 . S
C72 C71 1.390 . S
C72 C73 1.357 . S
C73 C72 1.357 . S
C73 C74 1.370 . S
C73 H99 0.950 . S
C74 N69 1.307 . S
C74 C73 1.370 . S
C74 H92 0.948 . S
Zn75 N69 2.020 . S
Zn75 O84 2.039 . S
Zn75 O90 2.034 . S
Zn75 O94 2.025 . S
Zn75 O96 2.024 . S
C76 O95 1.246 . S
C76 O96 1.249 . S
N77 C78 1.307 . S
N77 C79 1.333 . S
N77 Zn83 2.020 . S
C78 N77 1.307 . S
C78 C82 1.370 . S
C78 H89 0.948 . S
C79 N77 1.333 . S
C79 C80 1.379 . S
C79 H87 0.952 . S
C80 C79 1.379 . S
C80 C81 1.392 . S
C80 H100 0.949 . S
C81 C80 1.392 . S
C81 C82 1.359 . S
C82 C78 1.370 . S
C82 C81 1.359 . S
C82 H101 0.950 . S
Zn83 N77 2.020 . S
Zn83 O86 2.025 . S
Zn83 O91 2.024 . S
Zn83 O93 2.039 . S
Zn83 O95 2.034 . S
O84 C68 1.251 . S
O84 Zn75 2.039 . S
C85 O90 1.246 . S
C85 O91 1.249 . S
O86 C68 1.254 . S
O86 Zn83 2.025 . S
H87 C79 0.952 . S
H88 C70 0.952 . S
H89 C78 0.948 . S
O90 Zn75 2.034 . S
O90 C85 1.246 . S
O91 Zn83 2.024 . S
O91 C85 1.249 . S
H92 C74 0.948 . S
O93 Zn83 2.039 . S
O93 C97 1.251 . S
O94 Zn75 2.025 . S
O94 C97 1.254 . S
O95 C76 1.246 . S
O95 Zn83 2.034 . S
O96 Zn75 2.024 . S
O96 C76 1.249 . S
C97 O93 1.251 . S
C97 O94 1.254 . S
H98 C71 0.949 . S
H99 C73 0.950 . S
H100 C80 0.949 . S
H101 C82 0.950 . S
C102 O118 1.251 . S
C102 O120 1.254 . S
N103 C104 1.333 . S
N103 C108 1.307 . S
N103 Zn109 2.020 . S
C104 N103 1.333 . S
C104 C105 1.379 . S
C104 H122 0.952 . S
C105 C104 1.379 . S
C105 C106 1.390 . S
C105 H132 0.949 . S
C106 C105 1.390 . S
C106 C107 1.357 . S
C107 C106 1.357 . S
C107 C108 1.370 . S
C107 H133 0.950 . S
C108 N103 1.307 . S
C108 C107 1.370 . S
C108 H126 0.948 . S
Zn109 N103 2.020 . S
Zn109 O118 2.039 . S
Zn109 O124 2.034 . S
Zn109 O128 2.025 . S
Zn109 O130 2.024 . S
C110 O129 1.246 . S
C110 O130 1.249 . S
N111 C112 1.307 . S
N111 C113 1.333 . S
N111 Zn117 2.020 . S
C112 N111 1.307 . S
C112 C116 1.370 . S
C112 H123 0.948 . S
C113 N111 1.333 . S
C113 C114 1.379 . S
C113 H121 0.952 . S
C114 C113 1.379 . S
C114 C115 1.390 . S
C114 H134 0.949 . S
C115 C114 1.390 . S
C115 C116 1.357 . S
C116 C112 1.370 . S
C116 C115 1.357 . S
C116 H135 0.950 1_554 S
Zn117 N111 2.020 . S
Zn117 O120 2.025 . S
Zn117 O125 2.024 . S
Zn117 O127 2.039 . S
Zn117 O129 2.034 . S
O118 C102 1.251 . S
O118 Zn109 2.039 . S
C119 O124 1.254 . S
C119 O125 1.250 . S
O120 C102 1.254 . S
O120 Zn117 2.025 . S
H121 C113 0.952 . S
H122 C104 0.952 . S
H123 C112 0.948 . S
O124 Zn109 2.034 . S
O124 C119 1.254 . S
O125 Zn117 2.024 . S
O125 C119 1.250 . S
H126 C108 0.948 . S
O127 Zn117 2.039 . S
O127 C131 1.251 . S
O128 Zn109 2.025 . S
O128 C131 1.254 . S
O129 C110 1.246 . S
O129 Zn117 2.034 . S
O130 Zn109 2.024 . S
O130 C110 1.249 . S
C131 O127 1.251 . S
C131 O128 1.254 . S
H132 C105 0.949 . S
H133 C107 0.950 . S
H134 C114 0.949 . S
H135 C116 0.950 1_556 S
C136 O152 1.251 . S
C136 O154 1.254 . S
N137 C138 1.333 . S
N137 C142 1.307 . S
N137 Zn143 2.020 . S
C138 N137 1.333 . S
C138 C139 1.379 . S
C138 H156 0.952 . S
C139 C138 1.379 . S
C139 C140 1.390 . S
C139 H166 0.949 . S
C140 C139 1.390 . S
C140 C141 1.357 . S
C141 C140 1.357 . S
C141 C142 1.370 . S
C141 H167 0.950 . S
C142 N137 1.307 . S
C142 C141 1.370 . S
C142 H160 0.948 . S
Zn143 N137 2.020 . S
Zn143 O152 2.039 . S
Zn143 O158 2.034 . S
Zn143 O162 2.025 . S
Zn143 O164 2.024 . S
C144 O163 1.246 . S
C144 O164 1.249 . S
N145 C146 1.307 . S
N145 C147 1.333 . S
N145 Zn151 2.020 . S
C146 N145 1.307 . S
C146 C150 1.370 . S
C146 H157 0.948 . S
C147 N145 1.333 . S
C147 C148 1.379 . S
C147 H155 0.952 . S
C148 C147 1.379 . S
C148 C149 1.392 . S
C148 H168 0.949 . S
C149 C148 1.392 . S
C149 C150 1.359 . S
C150 C146 1.370 . S
C150 C149 1.359 . S
C150 H169 0.950 . S
Zn151 N145 2.020 . S
Zn151 O154 2.025 . S
Zn151 O159 2.024 . S
Zn151 O161 2.039 . S
Zn151 O163 2.034 . S
O152 C136 1.251 . S
O152 Zn143 2.039 . S
C153 O158 1.246 . S
C153 O159 1.249 . S
O154 C136 1.254 . S
O154 Zn151 2.025 . S
H155 C147 0.952 . S
H156 C138 0.952 . S
H157 C146 0.948 . S
O158 Zn143 2.034 . S
O158 C153 1.246 . S
O159 Zn151 2.024 . S
O159 C153 1.249 . S
H160 C142 0.948 . S
O161 Zn151 2.039 . S
O161 C165 1.251 . S
O162 Zn143 2.025 . S
O162 C165 1.254 . S
O163 C144 1.246 . S
O163 Zn151 2.034 . S
O164 Zn143 2.024 . S
O164 C144 1.249 . S
C165 O161 1.251 . S
C165 O162 1.254 . S
H166 C139 0.949 . S
H167 C141 0.950 . S
H168 C148 0.949 . S
H169 C150 0.950 . S
C170 O186 1.251 . S
C170 O188 1.254 . S
N171 C172 1.333 . S
N171 C176 1.307 . S
N171 Zn177 2.020 . S
C172 N171 1.333 . S
C172 C173 1.379 . S
C172 H190 0.952 . S
C173 C172 1.379 . S
C173 C174 1.390 . S
C173 H200 0.949 . S
C174 C173 1.390 . S
C174 C175 1.357 . S
C175 C174 1.357 . S
C175 C176 1.370 . S
C175 H201 0.950 . S
C176 N171 1.307 . S
C176 C175 1.370 . S
C176 H194 0.948 . S
Zn177 N171 2.020 . S
Zn177 O186 2.039 . S
Zn177 O192 2.034 . S
Zn177 O196 2.025 . S
Zn177 O198 2.024 . S
C178 O197 1.246 . S
C178 O198 1.249 . S
N179 C180 1.307 . S
N179 C181 1.333 . S
N179 Zn185 2.020 . S
C180 N179 1.307 . S
C180 C184 1.370 . S
C180 H191 0.948 . S
C181 N179 1.333 . S
C181 C182 1.379 . S
C181 H189 0.952 . S
C182 C181 1.379 . S
C182 C183 1.390 . S
C182 H202 0.949 . S
C183 C182 1.390 . S
C183 C184 1.357 . S
C184 C180 1.370 . S
C184 C183 1.357 . S
C184 H203 0.950 . S
Zn185 N179 2.020 . S
Zn185 O188 2.025 . S
Zn185 O193 2.024 . S
Zn185 O195 2.039 . S
Zn185 O197 2.034 . S
O186 C170 1.251 . S
O186 Zn177 2.039 . S
C187 O192 1.246 . S
C187 O193 1.249 . S
O188 C170 1.254 . S
O188 Zn185 2.025 . S
H189 C181 0.952 . S
H190 C172 0.952 . S
H191 C180 0.948 . S
O192 Zn177 2.034 . S
O192 C187 1.246 . S
O193 Zn185 2.024 . S
O193 C187 1.249 . S
H194 C176 0.948 . S
O195 Zn185 2.039 . S
O195 C199 1.251 . S
O196 Zn177 2.025 . S
O196 C199 1.254 . S
O197 C178 1.246 . S
O197 Zn185 2.034 . S
O198 Zn177 2.024 . S
O198 C178 1.249 . S
C199 O195 1.251 . S
C199 O196 1.254 . S
H200 C173 0.949 . S
H201 C175 0.950 . S
H202 C182 0.949 . S
H203 C184 0.950 . S
C204 O220 1.251 . S
C204 O222 1.254 . S
N205 C206 1.333 . S
N205 C210 1.307 . S
N205 Zn211 2.020 . S
C206 N205 1.333 . S
C206 C207 1.379 . S
C206 H224 0.952 . S
C207 C206 1.379 . S
C207 C208 1.390 . S
C207 H234 0.949 . S
C208 C207 1.390 . S
C208 C209 1.357 . S
C209 C208 1.357 . S
C209 C210 1.370 . S
C209 H235 0.950 . S
C210 N205 1.307 . S
C210 C209 1.370 . S
C210 H228 0.948 . S
Zn211 N205 2.020 . S
Zn211 O220 2.039 . S
Zn211 O226 2.034 . S
Zn211 O230 2.025 . S
Zn211 O232 2.024 . S
C212 O231 1.246 . S
C212 O232 1.249 . S
N213 C214 1.307 . S
N213 C215 1.333 . S
N213 Zn219 2.020 . S
C214 N213 1.307 . S
C214 C218 1.370 . S
C214 H225 0.948 . S
C215 N213 1.333 . S
C215 C216 1.379 . S
C215 H223 0.952 . S
C216 C215 1.379 . S
C216 C217 1.392 . S
C216 H236 0.949 . S
C217 C216 1.392 . S
C217 C218 1.359 . S
C218 C214 1.370 . S
C218 C217 1.359 . S
C218 H237 0.950 . S
Zn219 N213 2.020 . S
Zn219 O222 2.025 . S
Zn219 O227 2.024 . S
Zn219 O229 2.039 . S
Zn219 O231 2.034 . S
O220 C204 1.251 . S
O220 Zn211 2.039 . S
C221 O226 1.246 . S
C221 O227 1.249 . S
O222 C204 1.254 . S
O222 Zn219 2.025 . S
H223 C215 0.952 . S
H224 C206 0.952 . S
H225 C214 0.948 . S
O226 Zn211 2.034 . S
O226 C221 1.246 . S
O227 Zn219 2.024 . S
O227 C221 1.249 . S
H228 C210 0.948 . S
O229 Zn219 2.039 . S
O229 C233 1.251 . S
O230 Zn211 2.025 . S
O230 C233 1.254 . S
O231 C212 1.246 . S
O231 Zn219 2.034 . S
O232 Zn211 2.024 . S
O232 C212 1.249 . S
C233 O229 1.251 . S
C233 O230 1.254 . S
H234 C207 0.949 . S
H235 C209 0.950 . S
H236 C216 0.949 . S
H237 C218 0.950 . S
C238 O254 1.251 . S
C238 O256 1.254 . S
N239 C240 1.333 . S
N239 C244 1.307 . S
N239 Zn245 2.020 . S
C240 N239 1.333 . S
C240 C241 1.379 . S
C240 H258 0.952 . S
C241 C240 1.379 . S
C241 C242 1.390 . S
C241 H268 0.949 . S
C242 C241 1.390 . S
C242 C243 1.357 . S
C243 C242 1.357 . S
C243 C244 1.370 . S
C243 H269 0.950 . S
C244 N239 1.307 . S
C244 C243 1.370 . S
C244 H262 0.948 . S
Zn245 N239 2.020 . S
Zn245 O254 2.039 . S
Zn245 O260 2.034 . S
Zn245 O264 2.025 . S
Zn245 O266 2.024 . S
C246 O265 1.246 . S
C246 O266 1.249 . S
N247 C248 1.307 . S
N247 C249 1.333 . S
N247 Zn253 2.020 . S
C248 N247 1.307 . S
C248 C252 1.370 . S
C248 H259 0.948 . S
C249 N247 1.333 . S
C249 C250 1.379 . S
C249 H257 0.952 . S
C250 C249 1.379 . S
C250 C251 1.390 . S
C250 H270 0.949 . S
C251 C250 1.390 . S
C251 C252 1.357 . S
C252 C248 1.370 . S
C252 C251 1.357 . S
C252 H271 0.950 1_556 S
Zn253 N247 2.020 . S
Zn253 O256 2.025 . S
Zn253 O261 2.024 . S
Zn253 O263 2.039 . S
Zn253 O265 2.034 . S
O254 C238 1.251 . S
O254 Zn245 2.039 . S
C255 O260 1.254 . S
C255 O261 1.250 . S
O256 C238 1.254 . S
O256 Zn253 2.025 . S
H257 C249 0.952 . S
H258 C240 0.952 . S
H259 C248 0.948 . S
O260 Zn245 2.034 . S
O260 C255 1.254 . S
O261 Zn253 2.024 . S
O261 C255 1.250 . S
H262 C244 0.948 . S
O263 Zn253 2.039 . S
O263 C267 1.251 . S
O264 Zn245 2.025 . S
O264 C267 1.254 . S
O265 C246 1.246 . S
O265 Zn253 2.034 . S
O266 Zn245 2.024 . S
O266 C246 1.249 . S
C267 O263 1.251 . S
C267 O264 1.254 . S
H268 C241 0.949 . S
H269 C243 0.950 . S
H270 C250 0.949 . S
H271 C252 0.950 1_554 S
C272 O288 1.251 . S
C272 O290 1.254 . S
N273 C274 1.333 . S
N273 C278 1.307 . S
N273 Zn279 2.020 . S
C274 N273 1.333 . S
C274 C275 1.379 . S
C274 H292 0.952 . S
C275 C274 1.379 . S
C275 C276 1.392 . S
C275 H302 0.949 . S
C276 C275 1.392 . S
C276 C277 1.359 . S
C277 C276 1.359 . S
C277 C278 1.370 . S
C277 H303 0.950 . S
C278 N273 1.307 . S
C278 C277 1.370 . S
C278 H296 0.948 . S
Zn279 N273 2.020 . S
Zn279 O288 2.039 . S
Zn279 O294 2.034 . S
Zn279 O298 2.025 . S
Zn279 O300 2.024 . S
C280 O299 1.246 . S
C280 O300 1.249 . S
N281 C282 1.307 . S
N281 C283 1.333 . S
N281 Zn287 2.020 . S
C282 N281 1.307 . S
C282 C286 1.370 . S
C282 H293 0.948 . S
C283 N281 1.333 . S
C283 C284 1.379 . S
C283 H291 0.952 . S
C284 C283 1.379 . S
C284 C285 1.390 . S
C284 H304 0.949 . S
C285 C284 1.390 . S
C285 C286 1.357 . S
C286 C282 1.370 . S
C286 C285 1.357 . S
C286 H305 0.950 . S
Zn287 N281 2.020 . S
Zn287 O290 2.025 . S
Zn287 O295 2.024 . S
Zn287 O297 2.039 . S
Zn287 O299 2.034 . S
O288 C272 1.251 . S
O288 Zn279 2.039 . S
C289 O294 1.246 . S
C289 O295 1.249 . S
O290 C272 1.254 . S
O290 Zn287 2.025 . S
H291 C283 0.952 . S
H292 C274 0.952 . S
H293 C282 0.948 . S
O294 Zn279 2.034 . S
O294 C289 1.246 . S
O295 Zn287 2.024 . S
O295 C289 1.249 . S
H296 C278 0.948 . S
O297 Zn287 2.039 . S
O297 C301 1.251 . S
O298 Zn279 2.025 . S
O298 C301 1.254 . S
O299 C280 1.246 . S
O299 Zn287 2.034 . S
O300 Zn279 2.024 . S
O300 C280 1.249 . S
C301 O297 1.251 . S
C301 O298 1.254 . S
H302 C275 0.949 . S
H303 C277 0.950 . S
H304 C284 0.949 . S
H305 C286 0.950 . S
C306 O322 1.251 . S
C306 O324 1.254 . S
N307 C308 1.333 . S
N307 C312 1.307 . S
N307 Zn313 2.020 . S
C308 N307 1.333 . S
C308 C309 1.379 . S
C308 H326 0.952 . S
C309 C308 1.379 . S
C309 C310 1.390 . S
C309 H336 0.949 . S
C310 C309 1.390 . S
C310 C311 1.357 . S
C311 C310 1.357 . S
C311 C312 1.370 . S
C311 H337 0.950 . S
C312 N307 1.307 . S
C312 C311 1.370 . S
C312 H330 0.948 . S
Zn313 N307 2.020 . S
Zn313 O322 2.039 . S
Zn313 O328 2.034 . S
Zn313 O332 2.025 . S
Zn313 O334 2.024 . S
C314 O333 1.246 . S
C314 O334 1.249 . S
N315 C316 1.307 . S
N315 C317 1.333 . S
N315 Zn321 2.020 . S
C316 N315 1.307 . S
C316 C320 1.370 . S
C316 H327 0.948 . S
C317 N315 1.333 . S
C317 C318 1.379 . S
C317 H325 0.952 . S
C318 C317 1.379 . S
C318 C319 1.390 . S
C318 H338 0.949 . S
C319 C318 1.390 . S
C319 C320 1.357 . S
C320 C316 1.370 . S
C320 C319 1.357 . S
C320 H339 0.950 . S
Zn321 N315 2.020 . S
Zn321 O324 2.025 . S
Zn321 O329 2.024 . S
Zn321 O331 2.039 . S
Zn321 O333 2.034 . S
O322 C306 1.251 . S
O322 Zn313 2.039 . S
C323 O328 1.246 . S
C323 O329 1.249 . S
O324 C306 1.254 . S
O324 Zn321 2.025 . S
H325 C317 0.952 . S
H326 C308 0.952 . S
H327 C316 0.948 . S
O328 Zn313 2.034 . S
O328 C323 1.246 . S
O329 Zn321 2.024 . S
O329 C323 1.249 . S
H330 C312 0.948 . S
O331 Zn321 2.039 . S
O331 C335 1.251 . S
O332 Zn313 2.025 . S
O332 C335 1.254 . S
O333 C314 1.246 . S
O333 Zn321 2.034 . S
O334 Zn313 2.024 . S
O334 C314 1.249 . S
C335 O331 1.251 . S
C335 O332 1.254 . S
H336 C309 0.949 . S
H337 C311 0.950 . S
H338 C318 0.949 . S
H339 C320 0.950 . S
C340 O356 1.251 . S
C340 O358 1.254 . S
N341 C342 1.333 . S
N341 C346 1.307 . S
N341 Zn347 2.020 . S
C342 N341 1.333 . S
C342 C343 1.379 . S
C342 H360 0.952 . S
C343 C342 1.379 . S
C343 C344 1.392 . S
C343 H370 0.949 . S
C344 C343 1.392 . S
C344 C345 1.359 . S
C345 C344 1.359 . S
C345 C346 1.370 . S
C345 H371 0.950 . S
C346 N341 1.307 . S
C346 C345 1.370 . S
C346 H364 0.948 . S
Zn347 N341 2.020 . S
Zn347 O356 2.039 . S
Zn347 O362 2.034 . S
Zn347 O366 2.025 . S
Zn347 O368 2.024 . S
C348 O367 1.246 . S
C348 O368 1.249 . S
N349 C350 1.307 . S
N349 C351 1.333 . S
N349 Zn355 2.020 . S
C350 N349 1.307 . S
C350 C354 1.370 . S
C350 H361 0.948 . S
C351 N349 1.333 . S
C351 C352 1.379 . S
C351 H359 0.952 . S
C352 C351 1.379 . S
C352 C353 1.390 . S
C352 H372 0.949 . S
C353 C352 1.390 . S
C353 C354 1.357 . S
C354 C350 1.370 . S
C354 C353 1.357 . S
C354 H373 0.950 . S
Zn355 N349 2.020 . S
Zn355 O358 2.025 . S
Zn355 O363 2.024 . S
Zn355 O365 2.039 . S
Zn355 O367 2.034 . S
O356 C340 1.251 . S
O356 Zn347 2.039 . S
C357 O362 1.246 . S
C357 O363 1.249 . S
O358 C340 1.254 . S
O358 Zn355 2.025 . S
H359 C351 0.952 . S
H360 C342 0.952 . S
H361 C350 0.948 . S
O362 Zn347 2.034 . S
O362 C357 1.246 . S
O363 Zn355 2.024 . S
O363 C357 1.249 . S
H364 C346 0.948 . S
O365 Zn355 2.039 . S
O365 C369 1.251 . S
O366 Zn347 2.025 . S
O366 C369 1.254 . S
O367 C348 1.246 . S
O367 Zn355 2.034 . S
O368 Zn347 2.024 . S
O368 C348 1.249 . S
C369 O365 1.251 . S
C369 O366 1.254 . S
H370 C343 0.949 . S
H371 C345 0.950 . S
H372 C352 0.949 . S
H373 C354 0.950 . S
C374 O390 1.251 . S
C374 O392 1.254 . S
N375 C376 1.333 . S
N375 C380 1.307 . S
N375 Zn381 2.020 . S
C376 N375 1.333 . S
C376 C377 1.379 . S
C376 H394 0.952 . S
C377 C376 1.379 . S
C377 C378 1.390 . S
C377 H404 0.949 . S
C378 C377 1.390 . S
C378 C379 1.357 . S
C379 C378 1.357 . S
C379 C380 1.370 . S
C379 H405 0.950 1_556 S
C380 N375 1.307 . S
C380 C379 1.370 . S
C380 H398 0.948 . S
Zn381 N375 2.020 . S
Zn381 O390 2.039 . S
Zn381 O396 2.034 . S
Zn381 O400 2.025 . S
Zn381 O402 2.024 . S
C382 O401 1.254 . S
C382 O402 1.250 . S
N383 C384 1.307 . S
N383 C385 1.333 . S
N383 Zn389 2.020 . S
C384 N383 1.307 . S
C384 C388 1.370 . S
C384 H395 0.948 . S
C385 N383 1.333 . S
C385 C386 1.379 . S
C385 H393 0.952 . S
C386 C385 1.379 . S
C386 C387 1.390 . S
C386 H406 0.949 . S
C387 C386 1.390 . S
C387 C388 1.357 . S
C388 C384 1.370 . S
C388 C387 1.357 . S
C388 H407 0.950 . S
Zn389 N383 2.020 . S
Zn389 O392 2.025 . S
Zn389 O397 2.024 . S
Zn389 O399 2.039 . S
Zn389 O401 2.034 . S
O390 C374 1.251 . S
O390 Zn381 2.039 . S
C391 O396 1.246 . S
C391 O397 1.249 . S
O392 C374 1.254 . S
O392 Zn389 2.025 . S
H393 C385 0.952 . S
H394 C376 0.952 . S
H395 C384 0.948 . S
O396 Zn381 2.034 . S
O396 C391 1.246 . S
O397 Zn389 2.024 . S
O397 C391 1.249 . S
H398 C380 0.948 . S
O399 Zn389 2.039 . S
O399 C403 1.251 . S
O400 Zn381 2.025 . S
O400 C403 1.254 . S
O401 C382 1.254 . S
O401 Zn389 2.034 . S
O402 Zn381 2.024 . S
O402 C382 1.250 . S
C403 O399 1.251 . S
C403 O400 1.254 . S
H404 C377 0.949 . S
H405 C379 0.950 1_554 S
H406 C386 0.949 . S
H407 C388 0.950 . S
C408 O424 1.251 . S
C408 O426 1.254 . S
N409 C410 1.333 . S
N409 C414 1.307 . S
N409 Zn415 2.020 . S
C410 N409 1.333 . S
C410 C411 1.379 . S
C410 H428 0.952 . S
C411 C410 1.379 . S
C411 C412 1.392 . S
C411 H438 0.949 . S
C412 C411 1.392 . S
C412 C413 1.359 . S
C413 C412 1.359 . S
C413 C414 1.370 . S
C413 H439 0.950 . S
C414 N409 1.307 . S
C414 C413 1.370 . S
C414 H432 0.948 . S
Zn415 N409 2.020 . S
Zn415 O424 2.039 . S
Zn415 O430 2.034 . S
Zn415 O434 2.025 . S
Zn415 O436 2.024 . S
C416 O435 1.246 . S
C416 O436 1.249 . S
N417 C418 1.307 . S
N417 C419 1.333 . S
N417 Zn423 2.020 . S
C418 N417 1.307 . S
C418 C422 1.370 . S
C418 H429 0.948 . S
C419 N417 1.333 . S
C419 C420 1.379 . S
C419 H427 0.952 . S
C420 C419 1.379 . S
C420 C421 1.390 . S
C420 H440 0.949 . S
C421 C420 1.390 . S
C421 C422 1.357 . S
C422 C418 1.370 . S
C422 C421 1.357 . S
C422 H441 0.950 . S
Zn423 N417 2.020 . S
Zn423 O426 2.025 . S
Zn423 O431 2.024 . S
Zn423 O433 2.039 . S
Zn423 O435 2.034 . S
O424 C408 1.251 . S
O424 Zn415 2.039 . S
C425 O430 1.246 . S
C425 O431 1.249 . S
O426 C408 1.254 . S
O426 Zn423 2.025 . S
H427 C419 0.952 . S
H428 C410 0.952 . S
H429 C418 0.948 . S
O430 Zn415 2.034 . S
O430 C425 1.246 . S
O431 Zn423 2.024 . S
O431 C425 1.249 . S
H432 C414 0.948 . S
O433 Zn423 2.039 . S
O433 C437 1.251 . S
O434 Zn415 2.025 . S
O434 C437 1.254 . S
O435 C416 1.246 . S
O435 Zn423 2.034 . S
O436 Zn415 2.024 . S
O436 C416 1.249 . S
C437 O433 1.251 . S
C437 O434 1.254 . S
H438 C411 0.949 . S
H439 C413 0.950 . S
H440 C420 0.949 . S
H441 C422 0.950 . S
C442 O458 1.251 . S
C442 O460 1.254 . S
N443 C444 1.333 . S
N443 C448 1.307 . S
N443 Zn449 2.020 . S
C444 N443 1.333 . S
C444 C445 1.379 . S
C444 H462 0.952 . S
C445 C444 1.379 . S
C445 C446 1.390 . S
C445 H472 0.949 . S
C446 C445 1.390 . S
C446 C447 1.357 . S
C447 C446 1.357 . S
C447 C448 1.370 . S
C447 H473 0.950 . S
C448 N443 1.307 . S
C448 C447 1.370 . S
C448 H466 0.948 . S
Zn449 N443 2.020 . S
Zn449 O458 2.039 . S
Zn449 O464 2.034 . S
Zn449 O468 2.025 . S
Zn449 O470 2.024 . S
C450 O469 1.246 . S
C450 O470 1.249 . S
N451 C452 1.307 . S
N451 C453 1.333 . S
N451 Zn457 2.020 . S
C452 N451 1.307 . S
C452 C456 1.370 . S
C452 H463 0.948 . S
C453 N451 1.333 . S
C453 C454 1.379 . S
C453 H461 0.952 . S
C454 C453 1.379 . S
C454 C455 1.390 . S
C454 H474 0.949 . S
C455 C454 1.390 . S
C455 C456 1.357 . S
C456 C452 1.370 . S
C456 C455 1.357 . S
C456 H475 0.950 . S
Zn457 N451 2.020 . S
Zn457 O460 2.025 . S
Zn457 O465 2.024 . S
Zn457 O467 2.039 . S
Zn457 O469 2.034 . S
O458 C442 1.251 . S
O458 Zn449 2.039 . S
C459 O464 1.246 . S
C459 O465 1.249 . S
O460 C442 1.254 . S
O460 Zn457 2.025 . S
H461 C453 0.952 . S
H462 C444 0.952 . S
H463 C452 0.948 . S
O464 Zn449 2.034 . S
O464 C459 1.246 . S
O465 Zn457 2.024 . S
O465 C459 1.249 . S
H466 C448 0.948 . S
O467 Zn457 2.039 . S
O467 C471 1.251 . S
O468 Zn449 2.025 . S
O468 C471 1.254 . S
O469 C450 1.246 . S
O469 Zn457 2.034 . S
O470 Zn449 2.024 . S
O470 C450 1.249 . S
C471 O467 1.251 . S
C471 O468 1.254 . S
H472 C445 0.949 . S
H473 C447 0.950 . S
H474 C454 0.949 . S
H475 C456 0.950 . S
C476 O492 1.251 . S
C476 O494 1.254 . S
N477 C478 1.333 . S
N477 C482 1.307 . S
N477 Zn483 2.020 . S
C478 N477 1.333 . S
C478 C479 1.379 . S
C478 H496 0.952 . S
C479 C478 1.379 . S
C479 C480 1.392 . S
C479 H506 0.949 . S
C480 C479 1.392 . S
C480 C481 1.359 . S
C481 C480 1.359 . S
C481 C482 1.370 . S
C481 H507 0.950 . S
C482 N477 1.307 . S
C482 C481 1.370 . S
C482 H500 0.948 . S
Zn483 N477 2.020 . S
Zn483 O492 2.039 . S
Zn483 O498 2.034 . S
Zn483 O502 2.025 . S
Zn483 O504 2.024 . S
C484 O503 1.246 . S
C484 O504 1.249 . S
N485 C486 1.307 . S
N485 C487 1.333 . S
N485 Zn491 2.020 . S
C486 N485 1.307 . S
C486 C490 1.370 . S
C486 H497 0.948 . S
C487 N485 1.333 . S
C487 C488 1.379 . S
C487 H495 0.952 . S
C488 C487 1.379 . S
C488 C489 1.390 . S
C488 H508 0.949 . S
C489 C488 1.390 . S
C489 C490 1.357 . S
C490 C486 1.370 . S
C490 C489 1.357 . S
C490 H509 0.950 . S
Zn491 N485 2.020 . S
Zn491 O494 2.025 . S
Zn491 O499 2.024 . S
Zn491 O501 2.039 . S
Zn491 O503 2.034 . S
O492 C476 1.251 . S
O492 Zn483 2.039 . S
C493 O498 1.246 . S
C493 O499 1.249 . S
O494 C476 1.254 . S
O494 Zn491 2.025 . S
H495 C487 0.952 . S
H496 C478 0.952 . S
H497 C486 0.948 . S
O498 Zn483 2.034 . S
O498 C493 1.246 . S
O499 Zn491 2.024 . S
O499 C493 1.249 . S
H500 C482 0.948 . S
O501 Zn491 2.039 . S
O501 C505 1.251 . S
O502 Zn483 2.025 . S
O502 C505 1.254 . S
O503 C484 1.246 . S
O503 Zn491 2.034 . S
O504 Zn483 2.024 . S
O504 C484 1.249 . S
C505 O501 1.251 . S
C505 O502 1.254 . S
H506 C479 0.949 . S
H507 C481 0.950 . S
H508 C488 0.949 . S
H509 C490 0.950 . S
C510 O526 1.251 . S
C510 O528 1.254 . S
N511 C512 1.333 . S
N511 C516 1.307 . S
N511 Zn517 2.020 . S
C512 N511 1.333 . S
C512 C513 1.379 . S
C512 H530 0.952 . S
C513 C512 1.379 . S
C513 C514 1.390 . S
C513 H540 0.949 . S
C514 C513 1.390 . S
C514 C515 1.357 . S
C515 C514 1.357 . S
C515 C516 1.370 . S
C515 H541 0.950 1_554 S
C516 N511 1.307 . S
C516 C515 1.370 . S
C516 H534 0.948 . S
Zn517 N511 2.020 . S
Zn517 O526 2.039 . S
Zn517 O532 2.034 . S
Zn517 O536 2.025 . S
Zn517 O538 2.024 . S
C518 O537 1.254 . S
C518 O538 1.250 . S
N519 C520 1.307 . S
N519 C521 1.333 . S
N519 Zn525 2.020 . S
C520 N519 1.307 . S
C520 C524 1.370 . S
C520 H531 0.948 . S
C521 N519 1.333 . S
C521 C522 1.379 . S
C521 H529 0.952 . S
C522 C521 1.379 . S
C522 C523 1.390 . S
C522 H542 0.949 . S
C523 C522 1.390 . S
C523 C524 1.357 . S
C524 C520 1.370 . S
C524 C523 1.357 . S
C524 H543 0.950 . S
Zn525 N519 2.020 . S
Zn525 O528 2.025 . S
Zn525 O533 2.024 . S
Zn525 O535 2.039 . S
Zn525 O537 2.034 . S
O526 C510 1.251 . S
O526 Zn517 2.039 . S
C527 O532 1.246 . S
C527 O533 1.249 . S
O528 C510 1.254 . S
O528 Zn525 2.025 . S
H529 C521 0.952 . S
H530 C512 0.952 . S
H531 C520 0.948 . S
O532 Zn517 2.034 . S
O532 C527 1.246 . S
O533 Zn525 2.024 . S
O533 C527 1.249 . S
H534 C516 0.948 . S
O535 Zn525 2.039 . S
O535 C539 1.251 . S
O536 Zn517 2.025 . S
O536 C539 1.254 . S
O537 C518 1.254 . S
O537 Zn525 2.034 . S
O538 Zn517 2.024 . S
O538 C518 1.250 . S
C539 O535 1.251 . S
C539 O536 1.254 . S
H540 C513 0.949 . S
H541 C515 0.950 1_556 S
H542 C522 0.949 . S
H543 C524 0.950 . S
C544 O560 1.251 . S
C544 O562 1.254 . S
N545 C546 1.333 . S
N545 C550 1.307 . S
N545 Zn551 2.020 . S
C546 N545 1.333 . S
C546 C547 1.379 . S
C546 H564 0.952 . S
C547 C546 1.379 . S
C547 C548 1.390 . S
C547 H574 0.949 . S
C548 C547 1.390 . S
C548 C549 1.357 . S
C549 C548 1.357 . S
C549 C550 1.370 . S
C549 H575 0.950 . S
C550 N545 1.307 . S
C550 C549 1.370 . S
C550 H568 0.948 . S
Zn551 N545 2.020 . S
Zn551 O560 2.039 . S
Zn551 O566 2.034 . S
Zn551 O570 2.025 . S
Zn551 O572 2.024 . S
C552 O571 1.246 . S
C552 O572 1.249 . S
N553 C554 1.307 . S
N553 C555 1.333 . S
N553 Zn559 2.020 . S
C554 N553 1.307 . S
C554 C558 1.370 . S
C554 H565 0.948 . S
C555 N553 1.333 . S
C555 C556 1.379 . S
C555 H563 0.952 . S
C556 C555 1.379 . S
C556 C557 1.390 . S
C556 H576 0.949 . S
C557 C556 1.390 . S
C557 C558 1.357 . S
C558 C554 1.370 . S
C558 C557 1.357 . S
C558 H577 0.950 . S
Zn559 N553 2.020 . S
Zn559 O562 2.025 . S
Zn559 O567 2.024 . S
Zn559 O569 2.039 . S
Zn559 O571 2.034 . S
O560 C544 1.251 . S
O560 Zn551 2.039 . S
C561 O566 1.246 . S
C561 O567 1.249 . S
O562 C544 1.254 . S
O562 Zn559 2.025 . S
H563 C555 0.952 . S
H564 C546 0.952 . S
H565 C554 0.948 . S
O566 Zn551 2.034 . S
O566 C561 1.246 . S
O567 Zn559 2.024 . S
O567 C561 1.249 . S
H568 C550 0.948 . S
O569 Zn559 2.039 . S
O569 C573 1.251 . S
O570 Zn551 2.025 . S
O570 C573 1.254 . S
O571 C552 1.246 . S
O571 Zn559 2.034 . S
O572 Zn551 2.024 . S
O572 C552 1.249 . S
C573 O569 1.251 . S
C573 O570 1.254 . S
H574 C547 0.949 . S
H575 C549 0.950 . S
H576 C556 0.949 . S
H577 C558 0.950 . S
C578 O594 1.251 . S
C578 O596 1.254 . S
N579 C580 1.333 . S
N579 C584 1.307 . S
N579 Zn585 2.020 . S
C580 N579 1.333 . S
C580 C581 1.379 . S
C580 H598 0.952 . S
C581 C580 1.379 . S
C581 C582 1.390 . S
C581 H608 0.949 . S
C582 C581 1.390 . S
C582 C583 1.357 . S
C583 C582 1.357 . S
C583 C584 1.370 . S
C583 H609 0.950 . S
C584 N579 1.307 . S
C584 C583 1.370 . S
C584 H602 0.948 . S
Zn585 N579 2.020 . S
Zn585 O594 2.039 . S
Zn585 O600 2.034 . S
Zn585 O604 2.025 . S
Zn585 O606 2.024 . S
C586 O605 1.246 . S
C586 O606 1.249 . S
N587 C588 1.307 . S
N587 C589 1.333 . S
N587 Zn593 2.020 . S
C588 N587 1.307 . S
C588 C592 1.370 . S
C588 H599 0.948 . S
C589 N587 1.333 . S
C589 C590 1.379 . S
C589 H597 0.952 . S
C590 C589 1.379 . S
C590 C591 1.390 . S
C590 H610 0.949 . S
C591 C590 1.390 . S
C591 C592 1.357 . S
C592 C588 1.370 . S
C592 C591 1.357 . S
C592 H611 0.950 1_554 S
Zn593 N587 2.020 . S
Zn593 O596 2.025 . S
Zn593 O601 2.024 . S
Zn593 O603 2.039 . S
Zn593 O605 2.034 . S
O594 C578 1.251 . S
O594 Zn585 2.039 . S
C595 O600 1.254 . S
C595 O601 1.250 . S
O596 C578 1.254 . S
O596 Zn593 2.025 . S
H597 C589 0.952 . S
H598 C580 0.952 . S
H599 C588 0.948 . S
O600 Zn585 2.034 . S
O600 C595 1.254 . S
O601 Zn593 2.024 . S
O601 C595 1.250 . S
H602 C584 0.948 . S
O603 Zn593 2.039 . S
O603 C607 1.251 . S
O604 Zn585 2.025 . S
O604 C607 1.254 . S
O605 C586 1.246 . S
O605 Zn593 2.034 . S
O606 Zn585 2.024 . S
O606 C586 1.249 . S
C607 O603 1.251 . S
C607 O604 1.254 . S
H608 C581 0.949 . S
H609 C583 0.950 . S
H610 C590 0.949 . S
H611 C592 0.950 1_556 S
C612 O628 1.251 . S
C612 O630 1.254 . S
N613 C614 1.333 . S
N613 C618 1.307 . S
N613 Zn619 2.020 . S
C614 N613 1.333 . S
C614 C615 1.379 . S
C614 H632 0.952 . S
C615 C614 1.379 . S
C615 C616 1.390 . S
C615 H642 0.949 . S
C616 C615 1.390 . S
C616 C617 1.357 . S
C617 C616 1.357 . S
C617 C618 1.370 . S
C617 H643 0.950 . S
C618 N613 1.307 . S
C618 C617 1.370 . S
C618 H636 0.948 . S
Zn619 N613 2.020 . S
Zn619 O628 2.039 . S
Zn619 O634 2.034 . S
Zn619 O638 2.025 . S
Zn619 O640 2.024 . S
C620 O639 1.246 . S
C620 O640 1.249 . S
N621 C622 1.307 . S
N621 C623 1.333 . S
N621 Zn627 2.020 . S
C622 N621 1.307 . S
C622 C626 1.370 . S
C622 H633 0.948 . S
C623 N621 1.333 . S
C623 C624 1.379 . S
C623 H631 0.952 . S
C624 C623 1.379 . S
C624 C625 1.390 . S
C624 H644 0.949 . S
C625 C624 1.390 . S
C625 C626 1.357 . S
C626 C622 1.370 . S
C626 C625 1.357 . S
C626 H645 0.950 . S
Zn627 N621 2.020 . S
Zn627 O630 2.025 . S
Zn627 O635 2.024 . S
Zn627 O637 2.039 . S
Zn627 O639 2.034 . S
O628 C612 1.251 . S
O628 Zn619 2.039 . S
C629 O634 1.246 . S
C629 O635 1.249 . S
O630 C612 1.254 . S
O630 Zn627 2.025 . S
H631 C623 0.952 . S
H632 C614 0.952 . S
H633 C622 0.948 . S
O634 Zn619 2.034 . S
O634 C629 1.246 . S
O635 Zn627 2.024 . S
O635 C629 1.249 . S
H636 C618 0.948 . S
O637 Zn627 2.039 . S
O637 C641 1.251 . S
O638 Zn619 2.025 . S
O638 C641 1.254 . S
O639 C620 1.246 . S
O639 Zn627 2.034 . S
O640 Zn619 2.024 . S
O640 C620 1.249 . S
C641 O637 1.251 . S
C641 O638 1.254 . S
H642 C615 0.949 . S
H643 C617 0.950 . S
H644 C624 0.949 . S
H645 C626 0.950 . S
C646 O662 1.251 . S
C646 O664 1.254 . S
N647 C648 1.333 . S
N647 C652 1.307 . S
N647 Zn653 2.020 . S
C648 N647 1.333 . S
C648 C649 1.379 . S
C648 H666 0.952 . S
C649 C648 1.379 . S
C649 C650 1.390 . S
C649 H676 0.949 . S
C650 C649 1.390 . S
C650 C651 1.357 . S
C651 C650 1.357 . S
C651 C652 1.370 . S
C651 H677 0.950 . S
C652 N647 1.307 . S
C652 C651 1.370 . S
C652 H670 0.948 . S
Zn653 N647 2.020 . S
Zn653 O662 2.039 . S
Zn653 O668 2.034 . S
Zn653 O672 2.025 . S
Zn653 O674 2.024 . S
C654 O673 1.246 . S
C654 O674 1.249 . S
N655 C656 1.307 . S
N655 C657 1.333 . S
N655 Zn661 2.020 . S
C656 N655 1.307 . S
C656 C660 1.370 . S
C656 H667 0.948 . S
C657 N655 1.333 . S
C657 C658 1.379 . S
C657 H665 0.952 . S
C658 C657 1.379 . S
C658 C659 1.390 . S
C658 H678 0.949 . S
C659 C658 1.390 . S
C659 C660 1.357 . S
C660 C656 1.370 . S
C660 C659 1.357 . S
C660 H679 0.950 . S
Zn661 N655 2.020 . S
Zn661 O664 2.025 . S
Zn661 O669 2.024 . S
Zn661 O671 2.039 . S
Zn661 O673 2.034 . S
O662 C646 1.251 . S
O662 Zn653 2.039 . S
C663 O668 1.246 . S
C663 O669 1.249 . S
O664 C646 1.254 . S
O664 Zn661 2.025 . S
H665 C657 0.952 . S
H666 C648 0.952 . S
H667 C656 0.948 . S
O668 Zn653 2.034 . S
O668 C663 1.246 . S
O669 Zn661 2.024 . S
O669 C663 1.249 . S
H670 C652 0.948 . S
O671 Zn661 2.039 . S
O671 C675 1.251 . S
O672 Zn653 2.025 . S
O672 C675 1.254 . S
O673 C654 1.246 . S
O673 Zn661 2.034 . S
O674 Zn653 2.024 . S
O674 C654 1.249 . S
C675 O671 1.251 . S
C675 O672 1.254 . S
H676 C649 0.949 . S
H677 C651 0.950 . S
H678 C658 0.949 . S
H679 C660 0.950 . S
C680 O696 1.251 . S
C680 O698 1.254 . S
N681 C682 1.333 . S
N681 C686 1.307 . S
N681 Zn687 2.020 . S
C682 N681 1.333 . S
C682 C683 1.379 . S
C682 H700 0.952 . S
C683 C682 1.379 . S
C683 C684 1.390 . S
C683 H710 0.949 . S
C684 C683 1.390 . S
C684 C685 1.357 . S
C685 C684 1.357 . S
C685 C686 1.370 . S
C685 H711 0.950 . S
C686 N681 1.307 . S
C686 C685 1.370 . S
C686 H704 0.948 . S
Zn687 N681 2.020 . S
Zn687 O696 2.039 . S
Zn687 O702 2.034 . S
Zn687 O706 2.025 . S
Zn687 O708 2.024 . S
C688 O707 1.246 . S
C688 O708 1.249 . S
N689 C690 1.307 . S
N689 C691 1.333 . S
N689 Zn695 2.020 . S
C690 N689 1.307 . S
C690 C694 1.370 . S
C690 H701 0.948 . S
C691 N689 1.333 . S
C691 C692 1.379 . S
C691 H699 0.952 . S
C692 C691 1.379 . S
C692 C693 1.390 . S
C692 H712 0.949 . S
C693 C692 1.390 . S
C693 C694 1.357 . S
C694 C690 1.370 . S
C694 C693 1.357 . S
C694 H713 0.950 . S
Zn695 N689 2.020 . S
Zn695 O698 2.025 . S
Zn695 O703 2.024 . S
Zn695 O705 2.039 . S
Zn695 O707 2.034 . S
O696 C680 1.251 . S
O696 Zn687 2.039 . S
C697 O702 1.246 . S
C697 O703 1.249 . S
O698 C680 1.254 . S
O698 Zn695 2.025 . S
H699 C691 0.952 . S
H700 C682 0.952 . S
H701 C690 0.948 . S
O702 Zn687 2.034 . S
O702 C697 1.246 . S
O703 Zn695 2.024 . S
O703 C697 1.249 . S
H704 C686 0.948 . S
O705 Zn695 2.039 . S
O705 C709 1.251 . S
O706 Zn687 2.025 . S
O706 C709 1.254 . S
O707 C688 1.246 . S
O707 Zn695 2.034 . S
O708 Zn687 2.024 . S
O708 C688 1.249 . S
C709 O705 1.251 . S
C709 O706 1.254 . S
H710 C683 0.949 . S
H711 C685 0.950 . S
H712 C692 0.949 . S
H713 C694 0.950 . S
C714 O730 1.251 . S
C714 O732 1.254 . S
N715 C716 1.333 . S
N715 C720 1.307 . S
N715 Zn721 2.020 . S
C716 N715 1.333 . S
C716 C717 1.379 . S
C716 H734 0.952 . S
C717 C716 1.379 . S
C717 C718 1.390 . S
C717 H744 0.949 . S
C718 C717 1.390 . S
C718 C719 1.357 . S
C719 C718 1.357 . S
C719 C720 1.370 . S
C719 H745 0.950 . S
C720 N715 1.307 . S
C720 C719 1.370 . S
C720 H738 0.948 . S
Zn721 N715 2.020 . S
Zn721 O730 2.039 . S
Zn721 O736 2.034 . S
Zn721 O740 2.025 . S
Zn721 O742 2.024 . S
C722 O741 1.246 . S
C722 O742 1.249 . S
N723 C724 1.307 . S
N723 C725 1.333 . S
N723 Zn729 2.020 . S
C724 N723 1.307 . S
C724 C728 1.370 . S
C724 H735 0.948 . S
C725 N723 1.333 . S
C725 C726 1.379 . S
C725 H733 0.952 . S
C726 C725 1.379 . S
C726 C727 1.390 . S
C726 H746 0.949 . S
C727 C726 1.390 . S
C727 C728 1.357 . S
C728 C724 1.370 . S
C728 C727 1.357 . S
C728 H747 0.950 1_556 S
Zn729 N723 2.020 . S
Zn729 O732 2.025 . S
Zn729 O737 2.024 . S
Zn729 O739 2.039 . S
Zn729 O741 2.034 . S
O730 C714 1.251 . S
O730 Zn721 2.039 . S
C731 O736 1.254 . S
C731 O737 1.250 . S
O732 C714 1.254 . S
O732 Zn729 2.025 . S
H733 C725 0.952 . S
H734 C716 0.952 . S
H735 C724 0.948 . S
O736 Zn721 2.034 . S
O736 C731 1.254 . S
O737 Zn729 2.024 . S
O737 C731 1.250 . S
H738 C720 0.948 . S
O739 Zn729 2.039 . S
O739 C743 1.251 . S
O740 Zn721 2.025 . S
O740 C743 1.254 . S
O741 C722 1.246 . S
O741 Zn729 2.034 . S
O742 Zn721 2.024 . S
O742 C722 1.249 . S
C743 O739 1.251 . S
C743 O740 1.254 . S
H744 C717 0.949 . S
H745 C719 0.950 . S
H746 C726 0.949 . S
H747 C728 0.950 1_554 S
C748 O764 1.251 . S
C748 O766 1.254 . S
N749 C750 1.333 . S
N749 C754 1.307 . S
N749 Zn755 2.020 . S
C750 N749 1.333 . S
C750 C751 1.379 . S
C750 H768 0.952 . S
C751 C750 1.379 . S
C751 C752 1.390 . S
C751 H778 0.949 . S
C752 C751 1.390 . S
C752 C753 1.357 . S
C753 C752 1.357 . S
C753 C754 1.370 . S
C753 H779 0.950 . S
C754 N749 1.307 . S
C754 C753 1.370 . S
C754 H772 0.948 . S
Zn755 N749 2.020 . S
Zn755 O764 2.039 . S
Zn755 O770 2.034 . S
Zn755 O774 2.025 . S
Zn755 O776 2.024 . S
C756 O775 1.246 . S
C756 O776 1.249 . S
N757 C758 1.307 . S
N757 C759 1.333 . S
N757 Zn763 2.020 . S
C758 N757 1.307 . S
C758 C762 1.370 . S
C758 H769 0.948 . S
C759 N757 1.333 . S
C759 C760 1.379 . S
C759 H767 0.952 . S
C760 C759 1.379 . S
C760 C761 1.390 . S
C760 H780 0.949 . S
C761 C760 1.390 . S
C761 C762 1.357 . S
C762 C758 1.370 . S
C762 C761 1.357 . S
C762 H781 0.950 . S
Zn763 N757 2.020 . S
Zn763 O766 2.025 . S
Zn763 O771 2.024 . S
Zn763 O773 2.039 . S
Zn763 O775 2.034 . S
O764 C748 1.251 . S
O764 Zn755 2.039 . S
C765 O770 1.246 . S
C765 O771 1.249 . S
O766 C748 1.254 . S
O766 Zn763 2.025 . S
H767 C759 0.952 . S
H768 C750 0.952 . S
H769 C758 0.948 . S
O770 Zn755 2.034 . S
O770 C765 1.246 . S
O771 Zn763 2.024 . S
O771 C765 1.249 . S
H772 C754 0.948 . S
O773 Zn763 2.039 . S
O773 C777 1.251 . S
O774 Zn755 2.025 . S
O774 C777 1.254 . S
O775 C756 1.246 . S
O775 Zn763 2.034 . S
O776 Zn755 2.024 . S
O776 C756 1.249 . S
C777 O773 1.251 . S
C777 O774 1.254 . S
H778 C751 0.949 . S
H779 C753 0.950 . S
H780 C760 0.949 . S
H781 C762 0.950 . S
C782 O798 1.251 . S
C782 O800 1.254 . S
N783 C784 1.333 . S
N783 C788 1.307 . S
N783 Zn789 2.020 . S
C784 N783 1.333 . S
C784 C785 1.379 . S
C784 H802 0.952 . S
C785 C784 1.379 . S
C785 C786 1.390 . S
C785 H812 0.949 . S
C786 C785 1.390 . S
C786 C787 1.357 . S
C787 C786 1.357 . S
C787 C788 1.370 . S
C787 H813 0.950 . S
C788 N783 1.307 . S
C788 C787 1.370 . S
C788 H806 0.948 . S
Zn789 N783 2.020 . S
Zn789 O798 2.039 . S
Zn789 O804 2.034 . S
Zn789 O808 2.025 . S
Zn789 O810 2.024 . S
C790 O809 1.246 . S
C790 O810 1.249 . S
N791 C792 1.307 . S
N791 C793 1.333 . S
N791 Zn797 2.020 . S
C792 N791 1.307 . S
C792 C796 1.370 . S
C792 H803 0.948 . S
C793 N791 1.333 . S
C793 C794 1.379 . S
C793 H801 0.952 . S
C794 C793 1.379 . S
C794 C795 1.390 . S
C794 H814 0.949 . S
C795 C794 1.390 . S
C795 C796 1.357 . S
C796 C792 1.370 . S
C796 C795 1.357 . S
C796 H815 0.950 . S
Zn797 N791 2.020 . S
Zn797 O800 2.025 . S
Zn797 O805 2.024 . S
Zn797 O807 2.039 . S
Zn797 O809 2.034 . S
O798 C782 1.251 . S
O798 Zn789 2.039 . S
C799 O804 1.246 . S
C799 O805 1.249 . S
O800 C782 1.254 . S
O800 Zn797 2.025 . S
H801 C793 0.952 . S
H802 C784 0.952 . S
H803 C792 0.948 . S
O804 Zn789 2.034 . S
O804 C799 1.246 . S
O805 Zn797 2.024 . S
O805 C799 1.249 . S
H806 C788 0.948 . S
O807 Zn797 2.039 . S
O807 C811 1.251 . S
O808 Zn789 2.025 . S
O808 C811 1.254 . S
O809 C790 1.246 . S
O809 Zn797 2.034 . S
O810 Zn789 2.024 . S
O810 C790 1.249 . S
C811 O807 1.251 . S
C811 O808 1.254 . S
H812 C785 0.949 . S
H813 C787 0.950 . S
H814 C794 0.949 . S
H815 C796 0.950 . S
C816 O832 1.251 . S
C816 O834 1.254 . S
N817 C818 1.333 . S
N817 C822 1.307 . S
N817 Zn823 2.020 . S
C818 N817 1.333 . S
C818 C819 1.379 . S
C818 H836 0.952 . S
C819 C818 1.379 . S
C819 C820 1.390 . S
C819 H846 0.949 . S
C820 C819 1.390 . S
C820 C821 1.357 . S
C821 C820 1.357 . S
C821 C822 1.370 . S
C821 H847 0.950 . S
C822 N817 1.307 . S
C822 C821 1.370 . S
C822 H840 0.948 . S
Zn823 N817 2.020 . S
Zn823 O832 2.039 . S
Zn823 O838 2.034 . S
Zn823 O842 2.025 . S
Zn823 O844 2.024 . S
C824 O843 1.246 . S
C824 O844 1.249 . S
N825 C826 1.307 . S
N825 C827 1.333 . S
N825 Zn831 2.020 . S
C826 N825 1.307 . S
C826 C830 1.370 . S
C826 H837 0.948 . S
C827 N825 1.333 . S
C827 C828 1.379 . S
C827 H835 0.952 . S
C828 C827 1.379 . S
C828 C829 1.390 . S
C828 H848 0.949 . S
C829 C828 1.390 . S
C829 C830 1.357 . S
C830 C826 1.370 . S
C830 C829 1.357 . S
C830 H849 0.950 . S
Zn831 N825 2.020 . S
Zn831 O834 2.025 . S
Zn831 O839 2.024 . S
Zn831 O841 2.039 . S
Zn831 O843 2.034 . S
O832 C816 1.251 . S
O832 Zn823 2.039 . S
C833 O838 1.246 . S
C833 O839 1.249 . S
O834 C816 1.254 . S
O834 Zn831 2.025 . S
H835 C827 0.952 . S
H836 C818 0.952 . S
H837 C826 0.948 . S
O838 Zn823 2.034 . S
O838 C833 1.246 . S
O839 Zn831 2.024 . S
O839 C833 1.249 . S
H840 C822 0.948 . S
O841 Zn831 2.039 . S
O841 C845 1.251 . S
O842 Zn823 2.025 . S
O842 C845 1.254 . S
O843 C824 1.246 . S
O843 Zn831 2.034 . S
O844 Zn823 2.024 . S
O844 C824 1.249 . S
C845 O841 1.251 . S
C845 O842 1.254 . S
H846 C819 0.949 . S
H847 C821 0.950 . S
H848 C828 0.949 . S
H849 C830 0.950 . S
C850 O866 1.251 . S
C850 O868 1.254 . S
N851 C852 1.333 . S
N851 C856 1.307 . S
N851 Zn857 2.020 . S
C852 N851 1.333 . S
C852 C853 1.379 . S
C852 H870 0.952 . S
C853 C852 1.379 . S
C853 C854 1.390 . S
C853 H880 0.949 . S
C854 C853 1.390 . S
C854 C855 1.357 . S
C855 C854 1.357 . S
C855 C856 1.370 . S
C855 H881 0.950 1_556 S
C856 N851 1.307 . S
C856 C855 1.370 . S
C856 H874 0.948 . S
Zn857 N851 2.020 . S
Zn857 O866 2.039 . S
Zn857 O872 2.034 . S
Zn857 O876 2.025 . S
Zn857 O878 2.024 . S
C858 O877 1.254 . S
C858 O878 1.250 . S
N859 C860 1.307 . S
N859 C861 1.333 . S
N859 Zn865 2.020 . S
C860 N859 1.307 . S
C860 C864 1.370 . S
C860 H871 0.948 . S
C861 N859 1.333 . S
C861 C862 1.379 . S
C861 H869 0.952 . S
C862 C861 1.379 . S
C862 C863 1.390 . S
C862 H882 0.949 . S
C863 C862 1.390 . S
C863 C864 1.357 . S
C864 C860 1.370 . S
C864 C863 1.357 . S
C864 H883 0.950 . S
Zn865 N859 2.020 . S
Zn865 O868 2.025 . S
Zn865 O873 2.024 . S
Zn865 O875 2.039 . S
Zn865 O877 2.034 . S
O866 C850 1.251 . S
O866 Zn857 2.039 . S
C867 O872 1.246 . S
C867 O873 1.249 . S
O868 C850 1.254 . S
O868 Zn865 2.025 . S
H869 C861 0.952 . S
H870 C852 0.952 . S
H871 C860 0.948 . S
O872 Zn857 2.034 . S
O872 C867 1.246 . S
O873 Zn865 2.024 . S
O873 C867 1.249 . S
H874 C856 0.948 . S
O875 Zn865 2.039 . S
O875 C879 1.251 . S
O876 Zn857 2.025 . S
O876 C879 1.254 . S
O877 C858 1.254 . S
O877 Zn865 2.034 . S
O878 Zn857 2.024 . S
O878 C858 1.250 . S
C879 O875 1.251 . S
C879 O876 1.254 . S
H880 C853 0.949 . S
H881 C855 0.950 1_554 S
H882 C862 0.949 . S
H883 C864 0.950 . S
C884 O900 1.251 . S
C884 O902 1.254 . S
N885 C886 1.333 . S
N885 C890 1.307 . S
N885 Zn891 2.020 . S
C886 N885 1.333 . S
C886 C887 1.379 . S
C886 H904 0.952 . S
C887 C886 1.379 . S
C887 C888 1.390 . S
C887 H914 0.949 . S
C888 C887 1.390 . S
C888 C889 1.357 . S
C889 C888 1.357 . S
C889 C890 1.370 . S
C889 H915 0.950 . S
C890 N885 1.307 . S
C890 C889 1.370 . S
C890 H908 0.948 . S
Zn891 N885 2.020 . S
Zn891 O900 2.039 . S
Zn891 O906 2.034 . S
Zn891 O910 2.025 . S
Zn891 O912 2.024 . S
C892 O911 1.246 . S
C892 O912 1.249 . S
N893 C894 1.307 . S
N893 C895 1.333 . S
N893 Zn899 2.020 . S
C894 N893 1.307 . S
C894 C898 1.370 . S
C894 H905 0.948 . S
C895 N893 1.333 . S
C895 C896 1.379 . S
C895 H903 0.952 . S
C896 C895 1.379 . S
C896 C897 1.390 . S
C896 H916 0.949 . S
C897 C896 1.390 . S
C897 C898 1.357 . S
C898 C894 1.370 . S
C898 C897 1.357 . S
C898 H917 0.950 . S
Zn899 N893 2.020 . S
Zn899 O902 2.025 . S
Zn899 O907 2.024 . S
Zn899 O909 2.039 . S
Zn899 O911 2.034 . S
O900 C884 1.251 . S
O900 Zn891 2.039 . S
C901 O906 1.246 . S
C901 O907 1.249 . S
O902 C884 1.254 . S
O902 Zn899 2.025 . S
H903 C895 0.952 . S
H904 C886 0.952 . S
H905 C894 0.948 . S
O906 Zn891 2.034 . S
O906 C901 1.246 . S
O907 Zn899 2.024 . S
O907 C901 1.249 . S
H908 C890 0.948 . S
O909 Zn899 2.039 . S
O909 C913 1.251 . S
O910 Zn891 2.025 . S
O910 C913 1.254 . S
O911 C892 1.246 . S
O911 Zn899 2.034 . S
O912 Zn891 2.024 . S
O912 C892 1.249 . S
C913 O909 1.251 . S
C913 O910 1.254 . S
H914 C887 0.949 . S
H915 C889 0.950 . S
H916 C896 0.949 . S
H917 C898 0.950 . S
C918 O934 1.251 . S
C918 O936 1.254 . S
N919 C920 1.333 . S
N919 C924 1.307 . S
N919 Zn925 2.020 . S
C920 N919 1.333 . S
C920 C921 1.379 . S
C920 H938 0.952 . S
C921 C920 1.379 . S
C921 C922 1.390 . S
C921 H948 0.949 . S
C922 C921 1.390 . S
C922 C923 1.357 . S
C923 C922 1.357 . S
C923 C924 1.370 . S
C923 H949 0.950 . S
C924 N919 1.307 . S
C924 C923 1.370 . S
C924 H942 0.948 . S
Zn925 N919 2.020 . S
Zn925 O934 2.039 . S
Zn925 O940 2.034 . S
Zn925 O944 2.025 . S
Zn925 O946 2.024 . S
C926 O945 1.246 . S
C926 O946 1.249 . S
N927 C928 1.307 . S
N927 C929 1.333 . S
N927 Zn933 2.020 . S
C928 N927 1.307 . S
C928 C932 1.370 . S
C928 H939 0.948 . S
C929 N927 1.333 . S
C929 C930 1.379 . S
C929 H937 0.952 . S
C930 C929 1.379 . S
C930 C931 1.390 . S
C930 H950 0.949 . S
C931 C930 1.390 . S
C931 C932 1.357 . S
C932 C928 1.370 . S
C932 C931 1.357 . S
C932 H951 0.950 . S
Zn933 N927 2.020 . S
Zn933 O936 2.025 . S
Zn933 O941 2.024 . S
Zn933 O943 2.039 . S
Zn933 O945 2.034 . S
O934 C918 1.251 . S
O934 Zn925 2.039 . S
C935 O940 1.246 . S
C935 O941 1.249 . S
O936 C918 1.254 . S
O936 Zn933 2.025 . S
H937 C929 0.952 . S
H938 C920 0.952 . S
H939 C928 0.948 . S
O940 Zn925 2.034 . S
O940 C935 1.246 . S
O941 Zn933 2.024 . S
O941 C935 1.249 . S
H942 C924 0.948 . S
O943 Zn933 2.039 . S
O943 C947 1.251 . S
O944 Zn925 2.025 . S
O944 C947 1.254 . S
O945 C926 1.246 . S
O945 Zn933 2.034 . S
O946 Zn925 2.024 . S
O946 C926 1.249 . S
C947 O943 1.251 . S
C947 O944 1.254 . S
H948 C921 0.949 . S
H949 C923 0.950 . S
H950 C930 0.949 . S
H951 C932 0.950 . S
C952 O968 1.251 . S
C952 O970 1.254 . S
N953 C954 1.333 . S
N953 C958 1.307 . S
N953 Zn959 2.020 . S
C954 N953 1.333 . S
C954 C955 1.379 . S
C954 H972 0.952 . S
C955 C954 1.379 . S
C955 C956 1.390 . S
C955 H982 0.949 . S
C956 C955 1.390 . S
C956 C957 1.357 . S
C957 C956 1.357 . S
C957 C958 1.370 . S
C957 H983 0.950 . S
C958 N953 1.307 . S
C958 C957 1.370 . S
C958 H976 0.948 . S
Zn959 N953 2.020 . S
Zn959 O968 2.039 . S
Zn959 O974 2.034 . S
Zn959 O978 2.025 . S
Zn959 O980 2.024 . S
C960 O979 1.246 . S
C960 O980 1.249 . S
N961 C962 1.307 . S
N961 C963 1.333 . S
N961 Zn967 2.020 . S
C962 N961 1.307 . S
C962 C966 1.370 . S
C962 H973 0.948 . S
C963 N961 1.333 . S
C963 C964 1.379 . S
C963 H971 0.952 . S
C964 C963 1.379 . S
C964 C965 1.390 . S
C964 H984 0.949 . S
C965 C964 1.390 . S
C965 C966 1.357 . S
C966 C962 1.370 . S
C966 C965 1.357 . S
C966 H985 0.950 . S
Zn967 N961 2.020 . S
Zn967 O970 2.025 . S
Zn967 O975 2.024 . S
Zn967 O977 2.039 . S
Zn967 O979 2.034 . S
O968 C952 1.251 . S
O968 Zn959 2.039 . S
C969 O974 1.246 . S
C969 O975 1.249 . S
O970 C952 1.254 . S
O970 Zn967 2.025 . S
H971 C963 0.952 . S
H972 C954 0.952 . S
H973 C962 0.948 . S
O974 Zn959 2.034 . S
O974 C969 1.246 . S
O975 Zn967 2.024 . S
O975 C969 1.249 . S
H976 C958 0.948 . S
O977 Zn967 2.039 . S
O977 C981 1.251 . S
O978 Zn959 2.025 . S
O978 C981 1.254 . S
O979 C960 1.246 . S
O979 Zn967 2.034 . S
O980 Zn959 2.024 . S
O980 C960 1.249 . S
C981 O977 1.251 . S
C981 O978 1.254 . S
H982 C955 0.949 . S
H983 C957 0.950 . S
H984 C964 0.949 . S
H985 C966 0.950 . S
C986 O1002 1.251 . S
C986 O1004 1.254 . S
N987 C988 1.333 . S
N987 C992 1.307 . S
N987 Zn993 2.020 . S
C988 N987 1.333 . S
C988 C989 1.379 . S
C988 H1006 0.952 . S
C989 C988 1.379 . S
C989 C990 1.390 . S
C989 H1016 0.949 . S
C990 C989 1.390 . S
C990 C991 1.357 . S
C991 C990 1.357 . S
C991 C992 1.370 . S
C991 H1017 0.950 1_554 S
C992 N987 1.307 . S
C992 C991 1.370 . S
C992 H1010 0.948 . S
Zn993 N987 2.020 . S
Zn993 O1002 2.039 . S
Zn993 O1008 2.034 . S
Zn993 O1012 2.025 . S
Zn993 O1014 2.024 . S
C994 O1013 1.254 . S
C994 O1014 1.250 . S
N995 C996 1.307 . S
N995 C997 1.333 . S
N995 Zn1001 2.020 . S
C996 N995 1.307 . S
C996 C1000 1.370 . S
C996 H1007 0.948 . S
C997 N995 1.333 . S
C997 C998 1.379 . S
C997 H1005 0.952 . S
C998 C997 1.379 . S
C998 C999 1.390 . S
C998 H1018 0.949 . S
C999 C998 1.390 . S
C999 C1000 1.357 . S
C1000 C996 1.370 . S
C1000 C999 1.357 . S
C1000 H1019 0.950 . S
Zn1001 N995 2.020 . S
Zn1001 O1004 2.025 . S
Zn1001 O1009 2.024 . S
Zn1001 O1011 2.039 . S
Zn1001 O1013 2.034 . S
O1002 C986 1.251 . S
O1002 Zn993 2.039 . S
C1003 O1008 1.246 . S
C1003 O1009 1.249 . S
O1004 C986 1.254 . S
O1004 Zn1001 2.025 . S
H1005 C997 0.952 . S
H1006 C988 0.952 . S
H1007 C996 0.948 . S
O1008 Zn993 2.034 . S
O1008 C1003 1.246 . S
O1009 Zn1001 2.024 . S
O1009 C1003 1.249 . S
H1010 C992 0.948 . S
O1011 Zn1001 2.039 . S
O1011 C1015 1.251 . S
O1012 Zn993 2.025 . S
O1012 C1015 1.254 . S
O1013 C994 1.254 . S
O1013 Zn1001 2.034 . S
O1014 Zn993 2.024 . S
O1014 C994 1.250 . S
C1015 O1011 1.251 . S
C1015 O1012 1.254 . S
H1016 C989 0.949 . S
H1017 C991 0.950 1_556 S
H1018 C998 0.949 . S
H1019 C1000 0.950 . S
C1020 O1036 1.251 . S
C1020 O1038 1.254 . S
N1021 C1022 1.333 . S
N1021 C1026 1.307 . S
N1021 Zn1027 2.020 . S
C1022 N1021 1.333 . S
C1022 C1023 1.379 . S
C1022 H1040 0.952 . S
C1023 C1022 1.379 . S
C1023 C1024 1.390 . S
C1023 H1050 0.949 . S
C1024 C1023 1.390 . S
C1024 C1025 1.357 . S
C1025 C1024 1.357 . S
C1025 C1026 1.370 . S
C1025 H1051 0.950 . S
C1026 N1021 1.307 . S
C1026 C1025 1.370 . S
C1026 H1044 0.948 . S
Zn1027 N1021 2.020 . S
Zn1027 O1036 2.039 . S
Zn1027 O1042 2.034 . S
Zn1027 O1046 2.025 . S
Zn1027 O1048 2.024 . S
C1028 O1047 1.246 . S
C1028 O1048 1.249 . S
N1029 C1030 1.307 . S
N1029 C1031 1.333 . S
N1029 Zn1035 2.020 . S
C1030 N1029 1.307 . S
C1030 C1034 1.370 . S
C1030 H1041 0.948 . S
C1031 N1029 1.333 . S
C1031 C1032 1.379 . S
C1031 H1039 0.952 . S
C1032 C1031 1.379 . S
C1032 C1033 1.390 . S
C1032 H1052 0.949 . S
C1033 C1032 1.390 . S
C1033 C1034 1.357 . S
C1034 C1030 1.370 . S
C1034 C1033 1.357 . S
C1034 H1053 0.950 . S
Zn1035 N1029 2.020 . S
Zn1035 O1038 2.025 . S
Zn1035 O1043 2.024 . S
Zn1035 O1045 2.039 . S
Zn1035 O1047 2.034 . S
O1036 C1020 1.251 . S
O1036 Zn1027 2.039 . S
C1037 O1042 1.246 . S
C1037 O1043 1.249 . S
O1038 C1020 1.254 . S
O1038 Zn1035 2.025 . S
H1039 C1031 0.952 . S
H1040 C1022 0.952 . S
H1041 C1030 0.948 . S
O1042 Zn1027 2.034 . S
O1042 C1037 1.246 . S
O1043 Zn1035 2.024 . S
O1043 C1037 1.249 . S
H1044 C1026 0.948 . S
O1045 Zn1035 2.039 . S
O1045 C1049 1.251 . S
O1046 Zn1027 2.025 . S
O1046 C1049 1.254 . S
O1047 C1028 1.246 . S
O1047 Zn1035 2.034 . S
O1048 Zn1027 2.024 . S
O1048 C1028 1.249 . S
C1049 O1045 1.251 . S
C1049 O1046 1.254 . S
H1050 C1023 0.949 . S
H1051 C1025 0.950 . S
H1052 C1032 0.949 . S
H1053 C1034 0.950 . S
C1054 O1070 1.251 . S
C1054 O1072 1.254 . S
N1055 C1056 1.333 . S
N1055 C1060 1.307 . S
N1055 Zn1061 2.020 . S
C1056 N1055 1.333 . S
C1056 C1057 1.379 . S
C1056 H1074 0.952 . S
C1057 C1056 1.379 . S
C1057 C1058 1.390 . S
C1057 H1084 0.949 . S
C1058 C1057 1.390 . S
C1058 C1059 1.357 . S
C1059 C1058 1.357 . S
C1059 C1060 1.370 . S
C1059 H1085 0.950 . S
C1060 N1055 1.307 . S
C1060 C1059 1.370 . S
C1060 H1078 0.948 . S
Zn1061 N1055 2.020 . S
Zn1061 O1070 2.039 . S
Zn1061 O1076 2.034 . S
Zn1061 O1080 2.025 . S
Zn1061 O1082 2.024 . S
C1062 O1081 1.246 . S
C1062 O1082 1.249 . S
N1063 C1064 1.307 . S
N1063 C1065 1.333 . S
N1063 Zn1069 2.020 . S
C1064 N1063 1.307 . S
C1064 C1068 1.370 . S
C1064 H1075 0.948 . S
C1065 N1063 1.333 . S
C1065 C1066 1.379 . S
C1065 H1073 0.952 . S
C1066 C1065 1.379 . S
C1066 C1067 1.390 . S
C1066 H1086 0.949 . S
C1067 C1066 1.390 . S
C1067 C1068 1.357 . S
C1068 C1064 1.370 . S
C1068 C1067 1.357 . S
C1068 H1087 0.950 . S
Zn1069 N1063 2.020 . S
Zn1069 O1072 2.025 . S
Zn1069 O1077 2.024 . S
Zn1069 O1079 2.039 . S
Zn1069 O1081 2.034 . S
O1070 C1054 1.251 . S
O1070 Zn1061 2.039 . S
C1071 O1076 1.246 . S
C1071 O1077 1.249 . S
O1072 C1054 1.254 . S
O1072 Zn1069 2.025 . S
H1073 C1065 0.952 . S
H1074 C1056 0.952 . S
H1075 C1064 0.948 . S
O1076 Zn1061 2.034 . S
O1076 C1071 1.246 . S
O1077 Zn1069 2.024 . S
O1077 C1071 1.249 . S
H1078 C1060 0.948 . S
O1079 Zn1069 2.039 . S
O1079 C1083 1.251 . S
O1080 Zn1061 2.025 . S
O1080 C1083 1.254 . S
O1081 C1062 1.246 . S
O1081 Zn1069 2.034 . S
O1082 Zn1061 2.024 . S
O1082 C1062 1.249 . S
C1083 O1079 1.251 . S
C1083 O1080 1.254 . S
H1084 C1057 0.949 . S
H1085 C1059 0.950 . S
H1086 C1066 0.949 . S
H1087 C1068 0.950 . S
C1088 C1089 1.369 . S
C1088 C1090 1.419 . S
C1088 H1092 0.930 . S
C1089 C1088 1.369 . S
C1089 C1098 1.429 . S
C1090 C1088 1.419 . S
C1090 C1091 1.363 . S
C1090 H1093 0.929 . S
C1091 C1090 1.363 . S
C1091 C1097 1.428 . S
H1092 C1088 0.930 . S
H1093 C1090 0.929 . S
S1094 N1095 1.613 . S
S1094 N1096 1.610 . S
N1095 S1094 1.613 . S
N1095 C1098 1.350 . S
N1096 S1094 1.610 . S
N1096 C1097 1.351 . S
C1097 C1091 1.428 . S
C1097 N1096 1.351 . S
C1097 C1098 1.434 . S
C1098 C1089 1.429 . S
C1098 N1095 1.350 . S
C1098 C1097 1.434 . S
C1099 C1100 1.369 . S
C1099 C1101 1.419 . S
C1099 H1103 0.930 . S
C1100 C1099 1.369 . S
C1100 C1109 1.429 . S
C1101 C1099 1.419 . S
C1101 C1102 1.363 . S
C1101 H1104 0.899 1_545 S
C1102 C1101 1.363 . S
C1102 C1108 1.428 . S
H1103 C1099 0.930 . S
H1104 C1101 0.899 1_565 S
S1105 N1106 1.613 . S
S1105 N1107 1.610 . S
N1106 S1105 1.613 . S
N1106 C1109 1.350 . S
N1107 S1105 1.610 . S
N1107 C1108 1.351 . S
C1108 C1102 1.428 . S
C1108 N1107 1.351 . S
C1108 C1109 1.434 . S
C1109 C1100 1.429 . S
C1109 N1106 1.350 . S
C1109 C1108 1.434 . S
C1110 C1111 1.369 . S
C1110 C1112 1.419 . S
C1110 H1114 0.930 . S
C1111 C1110 1.369 . S
C1111 C1120 1.429 . S
C1112 C1110 1.419 . S
C1112 C1113 1.363 . S
C1112 H1115 0.929 . S
C1113 C1112 1.363 . S
C1113 C1119 1.428 . S
H1114 C1110 0.930 . S
H1115 C1112 0.929 . S
S1116 N1117 1.613 . S
S1116 N1118 1.610 . S
N1117 S1116 1.613 . S
N1117 C1120 1.350 . S
N1118 S1116 1.610 . S
N1118 C1119 1.351 . S
C1119 C1113 1.428 . S
C1119 N1118 1.351 . S
C1119 C1120 1.434 . S
C1120 C1111 1.429 . S
C1120 N1117 1.350 . S
C1120 C1119 1.434 . S
C1121 C1122 1.369 1_554 S
C1121 C1123 1.419 . S
C1121 H1125 0.930 . S
C1122 C1121 1.369 1_556 S
C1122 C1131 1.429 . S
C1123 C1121 1.419 . S
C1123 C1124 1.363 . S
C1123 H1126 0.929 . S
C1124 C1123 1.363 . S
C1124 C1130 1.428 . S
H1125 C1121 0.930 . S
H1126 C1123 0.929 . S
S1127 N1128 1.613 . S
S1127 N1129 1.610 1_565 S
N1128 S1127 1.613 . S
N1128 C1131 1.350 . S
N1129 S1127 1.610 1_545 S
N1129 C1130 1.351 1_546 S
C1130 C1124 1.428 . S
C1130 N1129 1.351 1_564 S
C1130 C1131 1.434 1_554 S
C1131 C1122 1.429 . S
C1131 N1128 1.350 . S
C1131 C1130 1.434 1_556 S
C1132 C1133 1.369 . S
C1132 C1134 1.419 . S
C1132 H1136 0.930 . S
C1133 C1132 1.369 . S
C1133 C1142 1.429 . S
C1134 C1132 1.419 . S
C1134 C1135 1.363 . S
C1134 H1137 0.929 . S
C1135 C1134 1.363 . S
C1135 C1141 1.428 . S
H1136 C1132 0.930 . S
H1137 C1134 0.929 . S
S1138 N1139 1.613 . S
S1138 N1140 1.610 . S
N1139 S1138 1.613 . S
N1139 C1142 1.350 . S
N1140 S1138 1.610 . S
N1140 C1141 1.351 . S
C1141 C1135 1.428 . S
C1141 N1140 1.351 . S
C1141 C1142 1.434 . S
C1142 C1133 1.429 . S
C1142 N1139 1.350 . S
C1142 C1141 1.434 . S
C1143 C1144 1.369 . S
C1143 C1145 1.419 . S
C1143 H1147 0.930 . S
C1144 C1143 1.369 . S
C1144 C1153 1.429 . S
C1145 C1143 1.419 . S
C1145 C1146 1.363 . S
C1145 H1148 0.929 . S
C1146 C1145 1.363 . S
C1146 C1152 1.428 . S
H1147 C1143 0.930 . S
H1148 C1145 0.929 . S
S1149 N1150 1.613 . S
S1149 N1151 1.610 . S
N1150 S1149 1.613 . S
N1150 C1153 1.350 . S
N1151 S1149 1.610 . S
N1151 C1152 1.351 . S
C1152 C1146 1.428 . S
C1152 N1151 1.351 . S
C1152 C1153 1.434 . S
C1153 C1144 1.429 . S
C1153 N1150 1.350 . S
C1153 C1152 1.434 . S
C1154 C1155 1.369 . S
C1154 C1156 1.419 . S
C1154 H1158 0.930 . S
C1155 C1154 1.369 . S
C1155 C1164 1.429 . S
C1156 C1154 1.419 . S
C1156 C1157 1.363 . S
C1156 H1159 0.929 . S
C1157 C1156 1.363 . S
C1157 C1163 1.428 . S
H1158 C1154 0.930 . S
H1159 C1156 0.929 . S
S1160 N1161 1.613 . S
S1160 N1162 1.610 . S
N1161 S1160 1.613 . S
N1161 C1164 1.350 . S
N1162 S1160 1.610 . S
N1162 C1163 1.351 . S
C1163 C1157 1.428 . S
C1163 N1162 1.351 . S
C1163 C1164 1.434 . S
C1164 C1155 1.429 . S
C1164 N1161 1.350 . S
C1164 C1163 1.434 . S
C1165 C1166 1.369 . S
C1165 C1167 1.419 . S
C1165 H1169 0.930 . S
C1166 C1165 1.369 . S
C1166 C1175 1.429 1_554 S
C1167 C1165 1.419 . S
C1167 C1168 1.363 1_554 S
C1167 H1170 0.929 1_565 S
C1168 C1167 1.363 1_556 S
C1168 C1174 1.428 . S
H1169 C1165 0.930 . S
H1170 C1167 0.929 1_545 S
S1171 N1172 1.613 . S
S1171 N1173 1.610 . S
N1172 S1171 1.613 . S
N1172 C1175 1.350 . S
N1173 S1171 1.610 . S
N1173 C1174 1.351 . S
C1174 C1168 1.428 . S
C1174 N1173 1.351 . S
C1174 C1175 1.434 . S
C1175 C1166 1.429 1_556 S
C1175 N1172 1.350 . S
C1175 C1174 1.434 . S
C1176 C1177 1.369 . S
C1176 C1178 1.419 . S
C1176 H1180 0.930 . S
C1177 C1176 1.369 . S
C1177 C1186 1.429 . S
C1178 C1176 1.419 . S
C1178 C1179 1.363 . S
C1178 H1181 0.929 . S
C1179 C1178 1.363 . S
C1179 C1185 1.428 . S
H1180 C1176 0.930 . S
H1181 C1178 0.929 . S
S1182 N1183 1.613 . S
S1182 N1184 1.610 . S
N1183 S1182 1.613 . S
N1183 C1186 1.350 . S
N1184 S1182 1.610 . S
N1184 C1185 1.351 . S
C1185 C1179 1.428 . S
C1185 N1184 1.351 . S
C1185 C1186 1.434 . S
C1186 C1177 1.429 . S
C1186 N1183 1.350 . S
C1186 C1185 1.434 . S
C1187 C1188 1.369 . S
C1187 C1189 1.419 . S
C1187 H1191 0.930 . S
C1188 C1187 1.369 . S
C1188 C1197 1.429 . S
C1189 C1187 1.419 . S
C1189 C1190 1.363 . S
C1189 H1192 0.929 . S
C1190 C1189 1.363 . S
C1190 C1196 1.428 . S
H1191 C1187 0.930 . S
H1192 C1189 0.929 . S
S1193 N1194 1.613 . S
S1193 N1195 1.610 . S
N1194 S1193 1.613 . S
N1194 C1197 1.350 . S
N1195 S1193 1.610 . S
N1195 C1196 1.351 . S
C1196 C1190 1.428 . S
C1196 N1195 1.351 . S
C1196 C1197 1.434 . S
C1197 C1188 1.429 . S
C1197 N1194 1.350 . S
C1197 C1196 1.434 . S
C1198 C1199 1.369 . S
C1198 C1200 1.419 . S
C1198 H1202 0.930 . S
C1199 C1198 1.369 . S
C1199 C1208 1.429 . S
C1200 C1198 1.419 . S
C1200 C1201 1.363 . S
C1200 H1203 0.929 . S
C1201 C1200 1.363 . S
C1201 C1207 1.428 . S
H1202 C1198 0.930 . S
H1203 C1200 0.929 . S
S1204 N1205 1.613 . S
S1204 N1206 1.610 . S
N1205 S1204 1.613 . S
N1205 C1208 1.350 . S
N1206 S1204 1.610 . S
N1206 C1207 1.351 . S
C1207 C1201 1.428 . S
C1207 N1206 1.351 . S
C1207 C1208 1.434 . S
C1208 C1199 1.429 . S
C1208 N1205 1.350 . S
C1208 C1207 1.434 . S
C1209 C1210 1.369 . S
C1209 C1211 1.419 . S
C1209 H1213 0.930 . S
C1210 C1209 1.369 . S
C1210 C1219 1.429 1_556 S
C1211 C1209 1.419 . S
C1211 C1212 1.363 1_556 S
C1211 H1214 0.929 . S
C1212 C1211 1.363 1_554 S
C1212 C1218 1.428 . S
H1213 C1209 0.930 . S
H1214 C1211 0.929 . S
S1215 N1216 1.613 1_545 S
S1215 N1217 1.610 . S
N1216 S1215 1.613 1_565 S
N1216 C1219 1.350 1_565 S
N1217 S1215 1.610 . S
N1217 C1218 1.351 . S
C1218 C1212 1.428 . S
C1218 N1217 1.351 . S
C1218 C1219 1.434 . S
C1219 C1210 1.429 1_554 S
C1219 N1216 1.350 1_545 S
C1219 C1218 1.434 . S
C1220 C1221 1.369 . S
C1220 C1222 1.419 . S
C1220 H1224 0.930 . S
C1221 C1220 1.369 . S
C1221 C1230 1.429 . S
C1222 C1220 1.419 . S
C1222 C1223 1.363 . S
C1222 H1225 0.929 . S
C1223 C1222 1.363 . S
C1223 C1229 1.428 . S
H1224 C1220 0.930 . S
H1225 C1222 0.929 . S
S1226 N1227 1.613 . S
S1226 N1228 1.610 . S
N1227 S1226 1.613 . S
N1227 C1230 1.350 . S
N1228 S1226 1.610 . S
N1228 C1229 1.351 . S
C1229 C1223 1.428 . S
C1229 N1228 1.351 . S
C1229 C1230 1.434 . S
C1230 C1221 1.429 . S
C1230 N1227 1.350 . S
C1230 C1229 1.434 . S
C1231 C1232 1.369 . S
C1231 C1233 1.419 . S
C1231 H1235 0.931 1_565 S
C1232 C1231 1.369 . S
C1232 C1241 1.429 . S
C1233 C1231 1.419 . S
C1233 C1234 1.363 . S
C1233 H1236 0.929 . S
C1234 C1233 1.363 . S
C1234 C1240 1.428 . S
H1235 C1231 0.931 1_545 S
H1236 C1233 0.929 . S
S1237 N1238 1.613 . S
S1237 N1239 1.610 . S
N1238 S1237 1.613 . S
N1238 C1241 1.350 . S
N1239 S1237 1.610 . S
N1239 C1240 1.351 . S
C1240 C1234 1.428 . S
C1240 N1239 1.351 . S
C1240 C1241 1.434 . S
C1241 C1232 1.429 . S
C1241 N1238 1.350 . S
C1241 C1240 1.434 . S
C1242 C1243 1.369 . S
C1242 C1244 1.419 . S
C1242 H1246 0.930 . S
C1243 C1242 1.369 . S
C1243 C1252 1.429 . S
C1244 C1242 1.419 . S
C1244 C1245 1.363 . S
C1244 H1247 0.929 . S
C1245 C1244 1.363 . S
C1245 C1251 1.428 . S
H1246 C1242 0.930 . S
H1247 C1244 0.929 . S
S1248 N1249 1.613 . S
S1248 N1250 1.610 . S
N1249 S1248 1.613 . S
N1249 C1252 1.350 . S
N1250 S1248 1.610 . S
N1250 C1251 1.351 . S
C1251 C1245 1.428 . S
C1251 N1250 1.351 . S
C1251 C1252 1.434 . S
C1252 C1243 1.429 . S
C1252 N1249 1.350 . S
C1252 C1251 1.434 . S
C1253 C1254 1.369 1_554 S
C1253 C1255 1.419 . S
C1253 H1257 0.930 . S
C1254 C1253 1.369 1_556 S
C1254 C1263 1.429 . S
C1255 C1253 1.419 . S
C1255 C1256 1.363 . S
C1255 H1258 0.929 . S
C1256 C1255 1.363 . S
C1256 C1262 1.428 1_554 S
H1257 C1253 0.930 . S
H1258 C1255 0.929 . S
S1259 N1260 1.613 . S
S1259 N1261 1.610 1_545 S
N1260 S1259 1.613 . S
N1260 C1263 1.350 . S
N1261 S1259 1.610 1_565 S
N1261 C1262 1.351 1_565 S
C1262 C1256 1.428 1_556 S
C1262 N1261 1.351 1_545 S
C1262 C1263 1.434 . S
C1263 C1254 1.429 . S
C1263 N1260 1.350 . S
C1263 C1262 1.434 . S
C1264 C1265 1.369 . S
C1264 C1266 1.419 . S
C1264 H1268 0.930 . S
C1265 C1264 1.369 . S
C1265 C1274 1.429 . S
C1266 C1264 1.419 . S
C1266 C1267 1.363 . S
C1266 H1269 0.929 . S
C1267 C1266 1.363 . S
C1267 C1273 1.428 . S
H1268 C1264 0.930 . S
H1269 C1266 0.929 . S
S1270 N1271 1.613 . S
S1270 N1272 1.610 . S
N1271 S1270 1.613 . S
N1271 C1274 1.350 . S
N1272 S1270 1.610 . S
N1272 C1273 1.351 . S
C1273 C1267 1.428 . S
C1273 N1272 1.351 . S
C1273 C1274 1.434 . S
C1274 C1265 1.429 . S
C1274 N1271 1.350 . S
C1274 C1273 1.434 . S
C1275 C1276 1.369 . S
C1275 C1277 1.419 . S
C1275 H1279 0.930 . S
C1276 C1275 1.369 . S
C1276 C1285 1.429 1_556 S
C1277 C1275 1.419 . S
C1277 C1278 1.363 1_556 S
C1277 H1280 0.929 . S
C1278 C1277 1.363 1_554 S
C1278 C1284 1.428 . S
H1279 C1275 0.930 . S
H1280 C1277 0.929 . S
S1281 N1282 1.613 . S
S1281 N1283 1.610 . S
N1282 S1281 1.613 . S
N1282 C1285 1.350 . S
N1283 S1281 1.610 . S
N1283 C1284 1.351 . S
C1284 C1278 1.428 . S
C1284 N1283 1.351 . S
C1284 C1285 1.434 . S
C1285 C1276 1.429 1_554 S
C1285 N1282 1.350 . S
C1285 C1284 1.434 . S
C1286 C1287 1.369 . S
C1286 C1288 1.419 . S
C1286 H1290 0.930 . S
C1287 C1286 1.369 . S
C1287 C1296 1.429 . S
C1288 C1286 1.419 . S
C1288 C1289 1.363 . S
C1288 H1291 0.929 . S
C1289 C1288 1.363 . S
C1289 C1295 1.428 . S
H1290 C1286 0.930 . S
H1291 C1288 0.929 . S
S1292 N1293 1.613 . S
S1292 N1294 1.610 . S
N1293 S1292 1.613 . S
N1293 C1296 1.350 . S
N1294 S1292 1.610 . S
N1294 C1295 1.351 . S
C1295 C1289 1.428 . S
C1295 N1294 1.351 . S
C1295 C1296 1.434 . S
C1296 C1287 1.429 . S
C1296 N1293 1.350 . S
C1296 C1295 1.434 . S
C1297 C1298 1.369 . S
C1297 C1299 1.419 . S
C1297 H1301 0.930 . S
C1298 C1297 1.369 . S
C1298 C1307 1.429 . S
C1299 C1297 1.419 . S
C1299 C1300 1.363 . S
C1299 H1302 0.929 . S
C1300 C1299 1.363 . S
C1300 C1306 1.428 . S
H1301 C1297 0.930 . S
H1302 C1299 0.929 . S
S1303 N1304 1.613 . S
S1303 N1305 1.610 . S
N1304 S1303 1.613 . S
N1304 C1307 1.350 . S
N1305 S1303 1.610 . S
N1305 C1306 1.351 . S
C1306 C1300 1.428 . S
C1306 N1305 1.351 . S
C1306 C1307 1.434 . S
C1307 C1298 1.429 . S
C1307 N1304 1.350 . S
C1307 C1306 1.434 . S
C1308 C1309 1.369 . S
C1308 C1310 1.419 . S
C1308 H1312 0.930 . S
C1309 C1308 1.369 . S
C1309 C1318 1.429 . S
C1310 C1308 1.419 . S
C1310 C1311 1.363 . S
C1310 H1313 0.929 . S
C1311 C1310 1.363 . S
C1311 C1317 1.428 . S
H1312 C1308 0.930 . S
H1313 C1310 0.929 . S
S1314 N1315 1.613 . S
S1314 N1316 1.610 . S
N1315 S1314 1.613 . S
N1315 C1318 1.350 . S
N1316 S1314 1.610 . S
N1316 C1317 1.351 . S
C1317 C1311 1.428 . S
C1317 N1316 1.351 . S
C1317 C1318 1.434 . S
C1318 C1309 1.429 . S
C1318 N1315 1.350 . S
C1318 C1317 1.434 . S
C1319 C1320 1.369 1_556 S
C1319 C1321 1.419 . S
C1319 H1323 0.930 . S
C1320 C1319 1.369 1_554 S
C1320 C1329 1.429 . S
C1321 C1319 1.419 . S
C1321 C1322 1.363 . S
C1321 H1324 0.929 . S
C1322 C1321 1.363 . S
C1322 C1328 1.428 1_556 S
H1323 C1319 0.930 . S
H1324 C1321 0.929 . S
S1325 N1326 1.613 . S
S1325 N1327 1.610 . S
N1326 S1325 1.613 . S
N1326 C1329 1.350 . S
N1327 S1325 1.610 . S
N1327 C1328 1.351 . S
C1328 C1322 1.428 1_554 S
C1328 N1327 1.351 . S
C1328 C1329 1.434 . S
C1329 C1320 1.429 . S
C1329 N1326 1.350 . S
C1329 C1328 1.434 . S
C1330 C1331 1.369 . S
C1330 C1332 1.419 . S
C1330 H1334 0.930 . S
C1331 C1330 1.369 . S
C1331 C1340 1.429 . S
C1332 C1330 1.419 . S
C1332 C1333 1.363 . S
C1332 H1335 0.929 . S
C1333 C1332 1.363 . S
C1333 C1339 1.428 . S
H1334 C1330 0.930 . S
H1335 C1332 0.929 . S
S1336 N1337 1.613 . S
S1336 N1338 1.610 . S
N1337 S1336 1.613 . S
N1337 C1340 1.350 . S
N1338 S1336 1.610 . S
N1338 C1339 1.351 . S
C1339 C1333 1.428 . S
C1339 N1338 1.351 . S
C1339 C1340 1.434 . S
C1340 C1331 1.429 . S
C1340 N1337 1.350 . S
C1340 C1339 1.434 . S
C1341 C1342 1.369 . S
C1341 C1343 1.419 . S
C1341 H1345 0.930 . S
C1342 C1341 1.369 . S
C1342 C1351 1.429 . S
C1343 C1341 1.419 . S
C1343 C1344 1.363 . S
C1343 H1346 0.929 . S
C1344 C1343 1.363 . S
C1344 C1350 1.428 . S
H1345 C1341 0.930 . S
H1346 C1343 0.929 . S
S1347 N1348 1.613 . S
S1347 N1349 1.610 . S
N1348 S1347 1.613 . S
N1348 C1351 1.350 . S
N1349 S1347 1.610 . S
N1349 C1350 1.351 . S
C1350 C1344 1.428 . S
C1350 N1349 1.351 . S
C1350 C1351 1.434 . S
C1351 C1342 1.429 . S
C1351 N1348 1.350 . S
C1351 C1350 1.434 . S
C1352 C1353 1.369 . S
C1352 C1354 1.419 . S
C1352 H1356 0.930 . S
C1353 C1352 1.369 . S
C1353 C1362 1.429 . S
C1354 C1352 1.419 . S
C1354 C1355 1.363 . S
C1354 H1357 0.929 . S
C1355 C1354 1.363 . S
C1355 C1361 1.428 . S
H1356 C1352 0.930 . S
H1357 C1354 0.929 . S
S1358 N1359 1.613 . S
S1358 N1360 1.610 . S
N1359 S1358 1.613 . S
N1359 C1362 1.350 . S
N1360 S1358 1.610 . S
N1360 C1361 1.351 . S
C1361 C1355 1.428 . S
C1361 N1360 1.351 . S
C1361 C1362 1.434 . S
C1362 C1353 1.429 . S
C1362 N1359 1.350 . S
C1362 C1361 1.434 . S
C1363 C1364 1.369 1_556 S
C1363 C1365 1.419 . S
C1363 H1367 0.930 . S
C1364 C1363 1.369 1_554 S
C1364 C1373 1.429 1_554 S
C1365 C1363 1.419 . S
C1365 C1366 1.363 . S
C1365 H1368 0.929 . S
C1366 C1365 1.363 . S
C1366 C1372 1.428 . S
H1367 C1363 0.930 . S
H1368 C1365 0.929 . S
S1369 N1370 1.613 . S
S1369 N1371 1.610 1_554 S
N1370 S1369 1.613 . S
N1370 C1373 1.350 1_554 S
N1371 S1369 1.610 1_556 S
N1371 C1372 1.351 . S
C1372 C1366 1.428 . S
C1372 N1371 1.351 . S
C1372 C1373 1.434 . S
C1373 C1364 1.429 1_556 S
C1373 N1370 1.350 1_556 S
C1373 C1372 1.434 . S
C1374 C1375 1.369 . S
C1374 C1376 1.419 . S
C1374 H1378 0.930 . S
C1375 C1374 1.369 . S
C1375 C1384 1.429 . S
C1376 C1374 1.419 . S
C1376 C1377 1.363 . S
C1376 H1379 0.929 . S
C1377 C1376 1.363 . S
C1377 C1383 1.428 . S
H1378 C1374 0.930 . S
H1379 C1376 0.929 . S
S1380 N1381 1.613 . S
S1380 N1382 1.610 . S
N1381 S1380 1.613 . S
N1381 C1384 1.350 . S
N1382 S1380 1.610 . S
N1382 C1383 1.351 . S
C1383 C1377 1.428 . S
C1383 N1382 1.351 . S
C1383 C1384 1.434 . S
C1384 C1375 1.429 . S
C1384 N1381 1.350 . S
C1384 C1383 1.434 . S
C1385 C1386 1.369 . S
C1385 C1387 1.419 . S
C1385 H1389 0.930 . S
C1386 C1385 1.369 . S
C1386 C1395 1.429 . S
C1387 C1385 1.419 . S
C1387 C1388 1.363 . S
C1387 H1390 0.929 . S
C1388 C1387 1.363 . S
C1388 C1394 1.428 . S
H1389 C1385 0.930 . S
H1390 C1387 0.929 . S
S1391 N1392 1.613 . S
S1391 N1393 1.610 . S
N1392 S1391 1.613 . S
N1392 C1395 1.350 . S
N1393 S1391 1.610 . S
N1393 C1394 1.351 . S
C1394 C1388 1.428 . S
C1394 N1393 1.351 . S
C1394 C1395 1.434 . S
C1395 C1386 1.429 . S
C1395 N1392 1.350 . S
C1395 C1394 1.434 . S
C1396 C1397 1.369 . S
C1396 C1398 1.419 . S
C1396 H1400 0.930 . S
C1397 C1396 1.369 . S
C1397 C1406 1.429 . S
C1398 C1396 1.419 . S
C1398 C1399 1.363 . S
C1398 H1401 0.929 . S
C1399 C1398 1.363 . S
C1399 C1405 1.428 . S
H1400 C1396 0.930 . S
H1401 C1398 0.929 . S
S1402 N1403 1.613 . S
S1402 N1404 1.610 . S
N1403 S1402 1.613 . S
N1403 C1406 1.350 . S
N1404 S1402 1.610 . S
N1404 C1405 1.351 . S
C1405 C1399 1.428 . S
C1405 N1404 1.351 . S
C1405 C1406 1.434 . S
C1406 C1397 1.429 . S
C1406 N1403 1.350 . S
C1406 C1405 1.434 . S
C1407 C1408 1.369 . S
C1407 C1409 1.419 1_556 S
C1407 H1411 0.930 . S
C1408 C1407 1.369 . S
C1408 C1417 1.429 1_556 S
C1409 C1407 1.419 1_554 S
C1409 C1410 1.363 . S
C1409 H1412 0.929 1_554 S
C1410 C1409 1.363 . S
C1410 C1416 1.428 . S
H1411 C1407 0.930 . S
H1412 C1409 0.929 1_556 S
S1413 N1414 1.613 . S
S1413 N1415 1.610 . S
N1414 S1413 1.613 . S
N1414 C1417 1.350 . S
N1415 S1413 1.610 . S
N1415 C1416 1.351 . S
C1416 C1410 1.428 . S
C1416 N1415 1.351 . S
C1416 C1417 1.434 . S
C1417 C1408 1.429 1_554 S
C1417 N1414 1.350 . S
C1417 C1416 1.434 . S
C1418 C1419 1.369 . S
C1418 C1420 1.419 . S
C1418 H1422 0.930 . S
C1419 C1418 1.369 . S
C1419 C1428 1.429 . S
C1420 C1418 1.419 . S
C1420 C1421 1.363 . S
C1420 H1423 0.929 . S
C1421 C1420 1.363 . S
C1421 C1427 1.428 . S
H1422 C1418 0.930 . S
H1423 C1420 0.929 . S
S1424 N1425 1.613 . S
S1424 N1426 1.610 . S
N1425 S1424 1.613 . S
N1425 C1428 1.350 . S
N1426 S1424 1.610 . S
N1426 C1427 1.351 . S
C1427 C1421 1.428 . S
C1427 N1426 1.351 . S
C1427 C1428 1.434 . S
C1428 C1419 1.429 . S
C1428 N1425 1.350 . S
C1428 C1427 1.434 . S
C1429 C1430 1.369 . S
C1429 C1431 1.419 . S
C1429 H1433 0.930 . S
C1430 C1429 1.369 . S
C1430 C1439 1.429 . S
C1431 C1429 1.419 . S
C1431 C1432 1.363 . S
C1431 H1434 0.929 . S
C1432 C1431 1.363 . S
C1432 C1438 1.428 . S
H1433 C1429 0.930 . S
H1434 C1431 0.929 . S
S1435 N1436 1.613 . S
S1435 N1437 1.610 . S
N1436 S1435 1.613 . S
N1436 C1439 1.350 . S
N1437 S1435 1.610 . S
N1437 C1438 1.351 . S
C1438 C1432 1.428 . S
C1438 N1437 1.351 . S
C1438 C1439 1.434 . S
C1439 C1430 1.429 . S
C1439 N1436 1.350 . S
C1439 C1438 1.434 . S
C1440 C1441 1.369 . S
C1440 C1442 1.419 . S
C1440 H1444 0.930 . S
C1441 C1440 1.369 . S
C1441 C1450 1.429 . S
C1442 C1440 1.419 . S
C1442 C1443 1.363 . S
C1442 H1445 0.929 . S
C1443 C1442 1.363 . S
C1443 C1449 1.428 . S
H1444 C1440 0.930 . S
H1445 C1442 0.929 . S
S1446 N1447 1.613 . S
S1446 N1448 1.610 . S
N1447 S1446 1.613 . S
N1447 C1450 1.350 . S
N1448 S1446 1.610 . S
N1448 C1449 1.351 . S
C1449 C1443 1.428 . S
C1449 N1448 1.351 . S
C1449 C1450 1.434 . S
C1450 C1441 1.429 . S
C1450 N1447 1.350 . S
C1450 C1449 1.434 . S
C1451 C1452 1.369 . S
C1451 C1453 1.419 . S
C1451 H1455 0.930 . S
C1452 C1451 1.369 . S
C1452 C1461 1.429 . S
C1453 C1451 1.419 . S
C1453 C1454 1.363 . S
C1453 H1456 0.929 . S
C1454 C1453 1.363 . S
C1454 C1460 1.428 . S
H1455 C1451 0.930 . S
H1456 C1453 0.929 . S
S1457 N1458 1.613 . S
S1457 N1459 1.610 . S
N1458 S1457 1.613 . S
N1458 C1461 1.350 . S
N1459 S1457 1.610 . S
N1459 C1460 1.351 . S
C1460 C1454 1.428 . S
C1460 N1459 1.351 . S
C1460 C1461 1.434 . S
C1461 C1452 1.429 . S
C1461 N1458 1.350 . S
C1461 C1460 1.434 . S
C1462 C1463 1.369 . S
C1462 C1464 1.419 . S
C1462 H1466 0.930 . S
C1463 C1462 1.369 . S
C1463 C1472 1.429 . S
C1464 C1462 1.419 . S
C1464 C1465 1.363 . S
C1464 H1467 0.929 . S
C1465 C1464 1.363 . S
C1465 C1471 1.428 . S
H1466 C1462 0.930 . S
H1467 C1464 0.929 . S
S1468 N1469 1.613 . S
S1468 N1470 1.610 . S
N1469 S1468 1.613 . S
N1469 C1472 1.350 . S
N1470 S1468 1.610 . S
N1470 C1471 1.351 . S
C1471 C1465 1.428 . S
C1471 N1470 1.351 . S
C1471 C1472 1.434 . S
C1472 C1463 1.429 . S
C1472 N1469 1.350 . S
C1472 C1471 1.434 . S
C1473 C1474 1.369 . S
C1473 C1475 1.419 . S
C1473 H1477 0.930 . S
C1474 C1473 1.369 . S
C1474 C1483 1.429 . S
C1475 C1473 1.419 . S
C1475 C1476 1.363 . S
C1475 H1478 0.929 . S
C1476 C1475 1.363 . S
C1476 C1482 1.428 . S
H1477 C1473 0.930 . S
H1478 C1475 0.929 . S
S1479 N1480 1.613 . S
S1479 N1481 1.610 . S
N1480 S1479 1.613 . S
N1480 C1483 1.350 . S
N1481 S1479 1.610 . S
N1481 C1482 1.351 . S
C1482 C1476 1.428 . S
C1482 N1481 1.351 . S
C1482 C1483 1.434 . S
C1483 C1474 1.429 . S
C1483 N1480 1.350 . S
C1483 C1482 1.434 . S
C1484 C1485 1.369 . S
C1484 C1486 1.419 . S
C1484 H1488 0.930 . S
C1485 C1484 1.369 . S
C1485 C1494 1.429 . S
C1486 C1484 1.419 . S
C1486 C1487 1.363 . S
C1486 H1489 0.929 . S
C1487 C1486 1.363 . S
C1487 C1493 1.428 . S
H1488 C1484 0.930 . S
H1489 C1486 0.929 . S
S1490 N1491 1.613 1_556 S
S1490 N1492 1.610 1_556 S
N1491 S1490 1.613 1_554 S
N1491 C1494 1.350 . S
N1492 S1490 1.610 1_554 S
N1492 C1493 1.351 . S
C1493 C1487 1.428 . S
C1493 N1492 1.351 . S
C1493 C1494 1.434 . S
C1494 C1485 1.429 . S
C1494 N1491 1.350 . S
C1494 C1493 1.434 . S
C1495 C1496 1.369 . S
C1495 C1497 1.419 . S
C1495 H1499 0.930 . S
C1496 C1495 1.369 . S
C1496 C1505 1.429 . S
C1497 C1495 1.419 . S
C1497 C1498 1.363 . S
C1497 H1500 0.929 . S
C1498 C1497 1.363 . S
C1498 C1504 1.428 . S
H1499 C1495 0.930 . S
H1500 C1497 0.929 . S
S1501 N1502 1.613 . S
S1501 N1503 1.610 . S
N1502 S1501 1.613 . S
N1502 C1505 1.350 . S
N1503 S1501 1.610 . S
N1503 C1504 1.351 . S
C1504 C1498 1.428 . S
C1504 N1503 1.351 . S
C1504 C1505 1.434 . S
C1505 C1496 1.429 . S
C1505 N1502 1.350 . S
C1505 C1504 1.434 . S
C1506 C1507 1.369 . S
C1506 C1508 1.419 . S
C1506 H1510 0.930 . S
C1507 C1506 1.369 . S
C1507 C1516 1.429 . S
C1508 C1506 1.419 . S
C1508 C1509 1.363 . S
C1508 H1511 0.929 . S
C1509 C1508 1.363 . S
C1509 C1515 1.428 . S
H1510 C1506 0.930 . S
H1511 C1508 0.929 . S
S1512 N1513 1.613 . S
S1512 N1514 1.610 . S
N1513 S1512 1.613 . S
N1513 C1516 1.350 . S
N1514 S1512 1.610 . S
N1514 C1515 1.351 . S
C1515 C1509 1.428 . S
C1515 N1514 1.351 . S
C1515 C1516 1.434 . S
C1516 C1507 1.429 . S
C1516 N1513 1.350 . S
C1516 C1515 1.434 . S
C1517 C1518 1.369 . S
C1517 C1519 1.419 . S
C1517 H1521 0.930 . S
C1518 C1517 1.369 . S
C1518 C1527 1.429 . S
C1519 C1517 1.419 . S
C1519 C1520 1.363 . S
C1519 H1522 0.929 . S
C1520 C1519 1.363 . S
C1520 C1526 1.428 . S
H1521 C1517 0.930 . S
H1522 C1519 0.929 . S
S1523 N1524 1.613 . S
S1523 N1525 1.610 . S
N1524 S1523 1.613 . S
N1524 C1527 1.350 . S
N1525 S1523 1.610 . S
N1525 C1526 1.351 . S
C1526 C1520 1.428 . S
C1526 N1525 1.351 . S
C1526 C1527 1.434 . S
C1527 C1518 1.429 . S
C1527 N1524 1.350 . S
C1527 C1526 1.434 . S
C1528 C1529 1.369 . S
C1528 C1530 1.419 . S
C1528 H1532 0.930 . S
C1529 C1528 1.369 . S
C1529 C1538 1.429 . S
C1530 C1528 1.419 . S
C1530 C1531 1.363 . S
C1530 H1533 0.929 . S
C1531 C1530 1.363 . S
C1531 C1537 1.428 . S
H1532 C1528 0.930 . S
H1533 C1530 0.929 . S
S1534 N1535 1.613 . S
S1534 N1536 1.610 . S
N1535 S1534 1.613 . S
N1535 C1538 1.350 . S
N1536 S1534 1.610 . S
N1536 C1537 1.351 . S
C1537 C1531 1.428 . S
C1537 N1536 1.351 . S
C1537 C1538 1.434 . S
C1538 C1529 1.429 . S
C1538 N1535 1.350 . S
C1538 C1537 1.434 . S
C1539 C1540 1.369 . S
C1539 C1541 1.419 . S
C1539 H1543 0.930 . S
C1540 C1539 1.369 . S
C1540 C1549 1.429 . S
C1541 C1539 1.419 . S
C1541 C1542 1.363 . S
C1541 H1544 0.929 . S
C1542 C1541 1.363 . S
C1542 C1548 1.428 . S
H1543 C1539 0.930 . S
H1544 C1541 0.929 . S
S1545 N1546 1.613 . S
S1545 N1547 1.610 . S
N1546 S1545 1.613 . S
N1546 C1549 1.350 . S
N1547 S1545 1.610 . S
N1547 C1548 1.351 . S
C1548 C1542 1.428 . S
C1548 N1547 1.351 . S
C1548 C1549 1.434 . S
C1549 C1540 1.429 . S
C1549 N1546 1.350 . S
C1549 C1548 1.434 . S
C1550 C1551 1.369 . S
C1550 C1552 1.419 . S
C1550 H1554 0.930 . S
C1551 C1550 1.369 . S
C1551 C1560 1.429 . S
C1552 C1550 1.419 . S
C1552 C1553 1.363 . S
C1552 H1555 0.929 . S
C1553 C1552 1.363 . S
C1553 C1559 1.428 . S
H1554 C1550 0.930 . S
H1555 C1552 0.929 . S
S1556 N1557 1.613 1_556 S
S1556 N1558 1.610 . S
N1557 S1556 1.613 1_554 S
N1557 C1560 1.350 . S
N1558 S1556 1.610 . S
N1558 C1559 1.351 1_556 S
C1559 C1553 1.428 . S
C1559 N1558 1.351 1_554 S
C1559 C1560 1.434 . S
C1560 C1551 1.429 . S
C1560 N1557 1.350 . S
C1560 C1559 1.434 . S
C1561 C1562 1.369 . S
C1561 C1563 1.419 . S
C1561 H1565 0.930 . S
C1562 C1561 1.369 . S
C1562 C1571 1.429 . S
C1563 C1561 1.419 . S
C1563 C1564 1.363 . S
C1563 H1566 0.929 . S
C1564 C1563 1.363 . S
C1564 C1570 1.428 . S
H1565 C1561 0.930 . S
H1566 C1563 0.929 . S
S1567 N1568 1.613 . S
S1567 N1569 1.610 . S
N1568 S1567 1.613 . S
N1568 C1571 1.350 . S
N1569 S1567 1.610 . S
N1569 C1570 1.351 . S
C1570 C1564 1.428 . S
C1570 N1569 1.351 . S
C1570 C1571 1.434 . S
C1571 C1562 1.429 . S
C1571 N1568 1.350 . S
C1571 C1570 1.434 . S
C1572 C1573 1.369 . S
C1572 C1574 1.419 . S
C1572 H1576 0.930 . S
C1573 C1572 1.369 . S
C1573 C1582 1.429 . S
C1574 C1572 1.419 . S
C1574 C1575 1.363 . S
C1574 H1577 0.929 . S
C1575 C1574 1.363 . S
C1575 C1581 1.428 . S
H1576 C1572 0.930 . S
H1577 C1574 0.929 . S
S1578 N1579 1.613 . S
S1578 N1580 1.610 . S
N1579 S1578 1.613 . S
N1579 C1582 1.350 . S
N1580 S1578 1.610 . S
N1580 C1581 1.351 . S
C1581 C1575 1.428 . S
C1581 N1580 1.351 . S
C1581 C1582 1.434 . S
C1582 C1573 1.429 . S
C1582 N1579 1.350 . S
C1582 C1581 1.434 . S
C1583 C1584 1.369 . S
C1583 C1585 1.419 . S
C1583 H1587 0.930 . S
C1584 C1583 1.369 . S
C1584 C1593 1.429 . S
C1585 C1583 1.419 . S
C1585 C1586 1.363 . S
C1585 H1588 0.929 . S
C1586 C1585 1.363 . S
C1586 C1592 1.428 . S
H1587 C1583 0.930 . S
H1588 C1585 0.929 . S
S1589 N1590 1.613 . S
S1589 N1591 1.610 . S
N1590 S1589 1.613 . S
N1590 C1593 1.350 . S
N1591 S1589 1.610 . S
N1591 C1592 1.351 . S
C1592 C1586 1.428 . S
C1592 N1591 1.351 . S
C1592 C1593 1.434 . S
C1593 C1584 1.429 . S
C1593 N1590 1.350 . S
C1593 C1592 1.434 . S
C1594 C1595 1.369 . S
C1594 C1596 1.419 . S
C1594 H1598 0.930 . S
C1595 C1594 1.369 . S
C1595 C1604 1.429 . S
C1596 C1594 1.419 . S
C1596 C1597 1.363 . S
C1596 H1599 0.929 . S
C1597 C1596 1.363 . S
C1597 C1603 1.428 . S
H1598 C1594 0.930 . S
H1599 C1596 0.929 . S
S1600 N1601 1.613 . S
S1600 N1602 1.610 . S
N1601 S1600 1.613 . S
N1601 C1604 1.350 . S
N1602 S1600 1.610 . S
N1602 C1603 1.351 . S
C1603 C1597 1.428 . S
C1603 N1602 1.351 . S
C1603 C1604 1.434 . S
C1604 C1595 1.429 . S
C1604 N1601 1.350 . S
C1604 C1603 1.434 . S
C1605 C1606 1.369 . S
C1605 C1607 1.419 . S
C1605 H1609 0.930 . S
C1606 C1605 1.369 . S
C1606 C1615 1.429 . S
C1607 C1605 1.419 . S
C1607 C1608 1.363 . S
C1607 H1610 0.929 . S
C1608 C1607 1.363 . S
C1608 C1614 1.428 . S
H1609 C1605 0.930 . S
H1610 C1607 0.929 . S
S1611 N1612 1.613 . S
S1611 N1613 1.610 . S
N1612 S1611 1.613 . S
N1612 C1615 1.350 . S
N1613 S1611 1.610 . S
N1613 C1614 1.351 . S
C1614 C1608 1.428 . S
C1614 N1613 1.351 . S
C1614 C1615 1.434 . S
C1615 C1606 1.429 . S
C1615 N1612 1.350 . S
C1615 C1614 1.434 . S
C1616 C1617 1.369 . S
C1616 C1618 1.419 . S
C1616 H1620 0.930 . S
C1617 C1616 1.369 . S
C1617 C1626 1.429 . S
C1618 C1616 1.419 . S
C1618 C1619 1.363 . S
C1618 H1621 0.929 . S
C1619 C1618 1.363 . S
C1619 C1625 1.428 . S
H1620 C1616 0.930 . S
H1621 C1618 0.929 . S
S1622 N1623 1.613 . S
S1622 N1624 1.610 . S
N1623 S1622 1.613 . S
N1623 C1626 1.350 . S
N1624 S1622 1.610 . S
N1624 C1625 1.351 . S
C1625 C1619 1.428 . S
C1625 N1624 1.351 . S
C1625 C1626 1.434 . S
C1626 C1617 1.429 . S
C1626 N1623 1.350 . S
C1626 C1625 1.434 . S
C1627 C1628 1.369 . S
C1627 C1629 1.419 . S
C1627 H1631 0.930 . S
C1628 C1627 1.369 . S
C1628 C1637 1.429 . S
C1629 C1627 1.419 . S
C1629 C1630 1.363 . S
C1629 H1632 0.929 . S
C1630 C1629 1.363 . S
C1630 C1636 1.428 . S
H1631 C1627 0.930 . S
H1632 C1629 0.929 . S
S1633 N1634 1.613 . S
S1633 N1635 1.610 . S
N1634 S1633 1.613 . S
N1634 C1637 1.350 . S
N1635 S1633 1.610 . S
N1635 C1636 1.351 . S
C1636 C1630 1.428 . S
C1636 N1635 1.351 . S
C1636 C1637 1.434 . S
C1637 C1628 1.429 . S
C1637 N1634 1.350 . S
C1637 C1636 1.434 . S
C1638 C1639 1.369 . S
C1638 C1640 1.419 . S
C1638 H1642 0.930 . S
C1639 C1638 1.369 . S
C1639 C1648 1.429 . S
C1640 C1638 1.419 . S
C1640 C1641 1.363 . S
C1640 H1643 0.929 . S
C1641 C1640 1.363 . S
C1641 C1647 1.428 . S
H1642 C1638 0.930 . S
H1643 C1640 0.929 . S
S1644 N1645 1.613 . S
S1644 N1646 1.610 . S
N1645 S1644 1.613 . S
N1645 C1648 1.350 . S
N1646 S1644 1.610 . S
N1646 C1647 1.351 . S
C1647 C1641 1.428 . S
C1647 N1646 1.351 . S
C1647 C1648 1.434 . S
C1648 C1639 1.429 . S
C1648 N1645 1.350 . S
C1648 C1647 1.434 . S
C1649 C1650 1.369 . S
C1649 C1651 1.419 . S
C1649 H1653 0.930 . S
C1650 C1649 1.369 . S
C1650 C1659 1.429 . S
C1651 C1649 1.419 . S
C1651 C1652 1.363 . S
C1651 H1654 0.929 . S
C1652 C1651 1.363 . S
C1652 C1658 1.428 . S
H1653 C1649 0.930 . S
H1654 C1651 0.929 . S
S1655 N1656 1.613 . S
S1655 N1657 1.610 . S
N1656 S1655 1.613 . S
N1656 C1659 1.350 . S
N1657 S1655 1.610 . S
N1657 C1658 1.351 . S
C1658 C1652 1.428 . S
C1658 N1657 1.351 . S
C1658 C1659 1.434 . S
C1659 C1650 1.429 . S
C1659 N1656 1.350 . S
C1659 C1658 1.434 . S
C1660 C1661 1.369 . S
C1660 C1662 1.419 . S
C1660 H1664 0.930 . S
C1661 C1660 1.369 . S
C1661 C1670 1.429 . S
C1662 C1660 1.419 . S
C1662 C1663 1.363 . S
C1662 H1665 0.929 . S
C1663 C1662 1.363 . S
C1663 C1669 1.428 . S
H1664 C1660 0.930 . S
H1665 C1662 0.929 . S
S1666 N1667 1.613 . S
S1666 N1668 1.610 . S
N1667 S1666 1.613 . S
N1667 C1670 1.350 . S
N1668 S1666 1.610 . S
N1668 C1669 1.351 . S
C1669 C1663 1.428 . S
C1669 N1668 1.351 . S
C1669 C1670 1.434 . S
C1670 C1661 1.429 . S
C1670 N1667 1.350 . S
C1670 C1669 1.434 . S
C1671 C1672 1.369 . S
C1671 C1673 1.419 . S
C1671 H1675 0.930 . S
C1672 C1671 1.369 . S
C1672 C1681 1.429 . S
C1673 C1671 1.419 . S
C1673 C1674 1.363 . S
C1673 H1676 0.929 . S
C1674 C1673 1.363 . S
C1674 C1680 1.428 . S
H1675 C1671 0.930 . S
H1676 C1673 0.929 . S
S1677 N1678 1.613 . S
S1677 N1679 1.610 . S
N1678 S1677 1.613 . S
N1678 C1681 1.350 . S
N1679 S1677 1.610 . S
N1679 C1680 1.351 . S
C1680 C1674 1.428 . S
C1680 N1679 1.351 . S
C1680 C1681 1.434 . S
C1681 C1672 1.429 . S
C1681 N1678 1.350 . S
C1681 C1680 1.434 . S
C1682 C1683 1.369 . S
C1682 C1684 1.419 . S
C1682 H1686 0.930 . S
C1683 C1682 1.369 . S
C1683 C1692 1.429 . S
C1684 C1682 1.419 . S
C1684 C1685 1.363 . S
C1684 H1687 0.929 . S
C1685 C1684 1.363 . S
C1685 C1691 1.428 . S
H1686 C1682 0.930 . S
H1687 C1684 0.929 . S
S1688 N1689 1.613 1_556 S
S1688 N1690 1.610 1_556 S
N1689 S1688 1.613 1_554 S
N1689 C1692 1.350 . S
N1690 S1688 1.610 1_554 S
N1690 C1691 1.351 . S
C1691 C1685 1.428 . S
C1691 N1690 1.351 . S
C1691 C1692 1.434 . S
C1692 C1683 1.429 . S
C1692 N1689 1.350 . S
C1692 C1691 1.434 . S
C1693 C1694 1.369 . S
C1693 C1695 1.419 . S
C1693 H1697 0.930 . S
C1694 C1693 1.369 . S
C1694 C1703 1.429 . S
C1695 C1693 1.419 . S
C1695 C1696 1.363 . S
C1695 H1698 0.929 . S
C1696 C1695 1.363 . S
C1696 C1702 1.428 . S
H1697 C1693 0.930 . S
H1698 C1695 0.929 . S
S1699 N1700 1.613 . S
S1699 N1701 1.610 . S
N1700 S1699 1.613 . S
N1700 C1703 1.350 . S
N1701 S1699 1.610 . S
N1701 C1702 1.351 . S
C1702 C1696 1.428 . S
C1702 N1701 1.351 . S
C1702 C1703 1.434 . S
C1703 C1694 1.429 . S
C1703 N1700 1.350 . S
C1703 C1702 1.434 . S
C1704 C1705 1.369 . S
C1704 C1706 1.419 . S
C1704 H1708 0.930 . S
C1705 C1704 1.369 . S
C1705 C1714 1.429 . S
C1706 C1704 1.419 . S
C1706 C1707 1.363 . S
C1706 H1709 0.929 . S
C1707 C1706 1.363 . S
C1707 C1713 1.428 . S
H1708 C1704 0.930 . S
H1709 C1706 0.929 . S
S1710 N1711 1.613 . S
S1710 N1712 1.610 . S
N1711 S1710 1.613 . S
N1711 C1714 1.350 . S
N1712 S1710 1.610 . S
N1712 C1713 1.351 . S
C1713 C1707 1.428 . S
C1713 N1712 1.351 . S
C1713 C1714 1.434 . S
C1714 C1705 1.429 . S
C1714 N1711 1.350 . S
C1714 C1713 1.434 . S
C1715 C1716 1.369 . S
C1715 C1717 1.419 . S
C1715 H1719 0.930 . S
C1716 C1715 1.369 . S
C1716 C1725 1.429 . S
C1717 C1715 1.419 . S
C1717 C1718 1.363 . S
C1717 H1720 0.929 . S
C1718 C1717 1.363 . S
C1718 C1724 1.428 . S
H1719 C1715 0.930 . S
H1720 C1717 0.929 . S
S1721 N1722 1.613 . S
S1721 N1723 1.610 . S
N1722 S1721 1.613 . S
N1722 C1725 1.350 . S
N1723 S1721 1.610 . S
N1723 C1724 1.351 . S
C1724 C1718 1.428 . S
C1724 N1723 1.351 . S
C1724 C1725 1.434 . S
C1725 C1716 1.429 . S
C1725 N1722 1.350 . S
C1725 C1724 1.434 . S
C1726 C1727 1.369 . S
C1726 C1728 1.419 . S
C1726 H1730 0.930 . S
C1727 C1726 1.369 . S
C1727 C1736 1.429 . S
C1728 C1726 1.419 . S
C1728 C1729 1.363 . S
C1728 H1731 0.929 . S
C1729 C1728 1.363 . S
C1729 C1735 1.428 . S
H1730 C1726 0.930 . S
H1731 C1728 0.929 . S
S1732 N1733 1.613 . S
S1732 N1734 1.610 . S
N1733 S1732 1.613 . S
N1733 C1736 1.350 . S
N1734 S1732 1.610 . S
N1734 C1735 1.351 . S
C1735 C1729 1.428 . S
C1735 N1734 1.351 . S
C1735 C1736 1.434 . S
C1736 C1727 1.429 . S
C1736 N1733 1.350 . S
C1736 C1735 1.434 . S
C1737 C1738 1.369 . S
C1737 C1739 1.419 . S
C1737 H1741 0.930 . S
C1738 C1737 1.369 . S
C1738 C1747 1.429 . S
C1739 C1737 1.419 . S
C1739 C1740 1.363 . S
C1739 H1742 0.929 . S
C1740 C1739 1.363 . S
C1740 C1746 1.428 . S
H1741 C1737 0.930 . S
H1742 C1739 0.929 . S
S1743 N1744 1.613 . S
S1743 N1745 1.610 . S
N1744 S1743 1.613 . S
N1744 C1747 1.350 . S
N1745 S1743 1.610 . S
N1745 C1746 1.351 . S
C1746 C1740 1.428 . S
C1746 N1745 1.351 . S
C1746 C1747 1.434 . S
C1747 C1738 1.429 . S
C1747 N1744 1.350 . S
C1747 C1746 1.434 . S
C1748 C1749 1.369 . S
C1748 C1750 1.419 . S
C1748 H1752 0.930 . S
C1749 C1748 1.369 . S
C1749 C1758 1.429 . S
C1750 C1748 1.419 . S
C1750 C1751 1.363 . S
C1750 H1753 0.929 . S
C1751 C1750 1.363 . S
C1751 C1757 1.428 . S
H1752 C1748 0.930 . S
H1753 C1750 0.929 . S
S1754 N1755 1.613 . S
S1754 N1756 1.610 . S
N1755 S1754 1.613 . S
N1755 C1758 1.350 . S
N1756 S1754 1.610 . S
N1756 C1757 1.351 . S
C1757 C1751 1.428 . S
C1757 N1756 1.351 . S
C1757 C1758 1.434 . S
C1758 C1749 1.429 . S
C1758 N1755 1.350 . S
C1758 C1757 1.434 . S
C1759 C1760 1.369 . S
C1759 C1761 1.419 . S
C1759 H1763 0.930 . S
C1760 C1759 1.369 . S
C1760 C1769 1.429 . S
C1761 C1759 1.419 . S
C1761 C1762 1.363 . S
C1761 H1764 0.929 . S
C1762 C1761 1.363 . S
C1762 C1768 1.428 . S
H1763 C1759 0.930 . S
H1764 C1761 0.929 . S
S1765 N1766 1.613 . S
S1765 N1767 1.610 . S
N1766 S1765 1.613 . S
N1766 C1769 1.350 . S
N1767 S1765 1.610 . S
N1767 C1768 1.351 . S
C1768 C1762 1.428 . S
C1768 N1767 1.351 . S
C1768 C1769 1.434 . S
C1769 C1760 1.429 . S
C1769 N1766 1.350 . S
C1769 C1768 1.434 . S
C1770 C1771 1.369 . S
C1770 C1772 1.419 . S
C1770 H1774 0.930 . S
C1771 C1770 1.369 . S
C1771 C1780 1.429 . S
C1772 C1770 1.419 . S
C1772 C1773 1.363 . S
C1772 H1775 0.929 . S
C1773 C1772 1.363 . S
C1773 C1779 1.428 . S
H1774 C1770 0.930 . S
H1775 C1772 0.929 . S
S1776 N1777 1.613 . S
S1776 N1778 1.610 . S
N1777 S1776 1.613 . S
N1777 C1780 1.350 . S
N1778 S1776 1.610 . S
N1778 C1779 1.351 . S
C1779 C1773 1.428 . S
C1779 N1778 1.351 . S
C1779 C1780 1.434 . S
C1780 C1771 1.429 . S
C1780 N1777 1.350 . S
C1780 C1779 1.434 . S
C1781 C1782 1.369 . S
C1781 C1783 1.419 . S
C1781 H1785 0.930 . S
C1782 C1781 1.369 . S
C1782 C1791 1.429 . S
C1783 C1781 1.419 . S
C1783 C1784 1.363 . S
C1783 H1786 0.929 . S
C1784 C1783 1.363 . S
C1784 C1790 1.428 . S
H1785 C1781 0.930 . S
H1786 C1783 0.929 . S
S1787 N1788 1.613 . S
S1787 N1789 1.610 . S
N1788 S1787 1.613 . S
N1788 C1791 1.350 . S
N1789 S1787 1.610 . S
N1789 C1790 1.351 . S
C1790 C1784 1.428 . S
C1790 N1789 1.351 . S
C1790 C1791 1.434 . S
C1791 C1782 1.429 . S
C1791 N1788 1.350 . S
C1791 C1790 1.434 . S
C1792 C1793 1.369 . S
C1792 C1794 1.419 1_565 S
C1792 H1796 0.930 . S
C1793 C1792 1.369 . S
C1793 C1802 1.429 . S
C1794 C1792 1.419 1_545 S
C1794 C1795 1.363 . S
C1794 H1797 0.929 . S
C1795 C1794 1.363 . S
C1795 C1801 1.428 . S
H1796 C1792 0.930 . S
H1797 C1794 0.929 . S
S1798 N1799 1.613 . S
S1798 N1800 1.610 1_565 S
N1799 S1798 1.613 . S
N1799 C1802 1.350 . S
N1800 S1798 1.610 1_545 S
N1800 C1801 1.351 . S
C1801 C1795 1.428 . S
C1801 N1800 1.351 . S
C1801 C1802 1.434 1_545 S
C1802 C1793 1.429 . S
C1802 N1799 1.350 . S
C1802 C1801 1.434 1_565 S
C1803 C1804 1.369 . S
C1803 C1805 1.419 . S
C1803 H1807 0.930 . S
C1804 C1803 1.369 . S
C1804 C1813 1.429 . S
C1805 C1803 1.419 . S
C1805 C1806 1.363 . S
C1805 H1808 0.929 . S
C1806 C1805 1.363 . S
C1806 C1812 1.428 . S
H1807 C1803 0.930 . S
H1808 C1805 0.929 . S
S1809 N1810 1.613 . S
S1809 N1811 1.610 . S
N1810 S1809 1.613 . S
N1810 C1813 1.350 . S
N1811 S1809 1.610 . S
N1811 C1812 1.351 . S
C1812 C1806 1.428 . S
C1812 N1811 1.351 . S
C1812 C1813 1.434 . S
C1813 C1804 1.429 . S
C1813 N1810 1.350 . S
C1813 C1812 1.434 . S
C1814 C1815 1.369 . S
C1814 C1816 1.419 1_545 S
C1814 H1818 0.930 . S
C1815 C1814 1.369 . S
C1815 C1824 1.429 . S
C1816 C1814 1.419 1_565 S
C1816 C1817 1.363 . S
C1816 H1819 0.929 . S
C1817 C1816 1.363 . S
C1817 C1823 1.428 . S
H1818 C1814 0.930 . S
H1819 C1816 0.929 . S
S1820 N1821 1.613 . S
S1820 N1822 1.610 1_545 S
N1821 S1820 1.613 . S
N1821 C1824 1.350 . S
N1822 S1820 1.610 1_565 S
N1822 C1823 1.351 . S
C1823 C1817 1.428 . S
C1823 N1822 1.351 . S
C1823 C1824 1.434 1_565 S
C1824 C1815 1.429 . S
C1824 N1821 1.350 . S
C1824 C1823 1.434 1_545 S
C1825 C1826 1.369 . S
C1825 C1827 1.419 . S
C1825 H1829 0.930 . S
C1826 C1825 1.369 . S
C1826 C1835 1.429 1_556 S
C1827 C1825 1.419 . S
C1827 C1828 1.363 1_556 S
C1827 H1830 0.929 . S
C1828 C1827 1.363 1_554 S
C1828 C1834 1.428 . S
H1829 C1825 0.930 . S
H1830 C1827 0.929 . S
S1831 N1832 1.613 . S
S1831 N1833 1.610 . S
N1832 S1831 1.613 . S
N1832 C1835 1.350 . S
N1833 S1831 1.610 . S
N1833 C1834 1.351 . S
C1834 C1828 1.428 . S
C1834 N1833 1.351 . S
C1834 C1835 1.434 . S
C1835 C1826 1.429 1_554 S
C1835 N1832 1.350 . S
C1835 C1834 1.434 . S
C1836 C1837 1.369 . S
C1836 C1838 1.419 1_565 S
C1836 H1840 0.930 . S
C1837 C1836 1.369 . S
C1837 C1846 1.429 . S
C1838 C1836 1.419 1_545 S
C1838 C1839 1.363 . S
C1838 H1841 0.929 . S
C1839 C1838 1.363 . S
C1839 C1845 1.428 . S
H1840 C1836 0.930 . S
H1841 C1838 0.929 . S
S1842 N1843 1.613 . S
S1842 N1844 1.610 1_565 S
N1843 S1842 1.613 . S
N1843 C1846 1.350 . S
N1844 S1842 1.610 1_545 S
N1844 C1845 1.351 . S
C1845 C1839 1.428 . S
C1845 N1844 1.351 . S
C1845 C1846 1.434 1_545 S
C1846 C1837 1.429 . S
C1846 N1843 1.350 . S
C1846 C1845 1.434 1_565 S
C1847 C1848 1.369 . S
C1847 C1849 1.419 . S
C1847 H1851 0.930 . S
C1848 C1847 1.369 . S
C1848 C1857 1.429 . S
C1849 C1847 1.419 . S
C1849 C1850 1.363 . S
C1849 H1852 0.929 . S
C1850 C1849 1.363 . S
C1850 C1856 1.428 . S
H1851 C1847 0.930 . S
H1852 C1849 0.929 . S
S1853 N1854 1.613 . S
S1853 N1855 1.610 . S
N1854 S1853 1.613 . S
N1854 C1857 1.350 . S
N1855 S1853 1.610 . S
N1855 C1856 1.351 . S
C1856 C1850 1.428 . S
C1856 N1855 1.351 . S
C1856 C1857 1.434 . S
C1857 C1848 1.429 . S
C1857 N1854 1.350 . S
C1857 C1856 1.434 . S
C1858 C1859 1.369 . S
C1858 C1860 1.419 1_565 S
C1858 H1862 0.930 . S
C1859 C1858 1.369 . S
C1859 C1868 1.429 . S
C1860 C1858 1.419 1_545 S
C1860 C1861 1.363 . S
C1860 H1863 0.929 . S
C1861 C1860 1.363 . S
C1861 C1867 1.428 . S
H1862 C1858 0.930 . S
H1863 C1860 0.929 . S
S1864 N1865 1.613 . S
S1864 N1866 1.610 1_565 S
N1865 S1864 1.613 . S
N1865 C1868 1.350 . S
N1866 S1864 1.610 1_545 S
N1866 C1867 1.351 . S
C1867 C1861 1.428 . S
C1867 N1866 1.351 . S
C1867 C1868 1.434 1_545 S
C1868 C1859 1.429 . S
C1868 N1865 1.350 . S
C1868 C1867 1.434 1_565 S
C1869 C1870 1.369 . S
C1869 C1871 1.419 . S
C1869 H1873 0.930 . S
C1870 C1869 1.369 . S
C1870 C1879 1.429 1_556 S
C1871 C1869 1.419 . S
C1871 C1872 1.363 1_556 S
C1871 H1874 0.929 . S
C1872 C1871 1.363 1_554 S
C1872 C1878 1.428 . S
H1873 C1869 0.930 . S
H1874 C1871 0.929 . S
S1875 N1876 1.613 . S
S1875 N1877 1.610 . S
N1876 S1875 1.613 . S
N1876 C1879 1.350 . S
N1877 S1875 1.610 . S
N1877 C1878 1.351 . S
C1878 C1872 1.428 . S
C1878 N1877 1.351 . S
C1878 C1879 1.434 . S
C1879 C1870 1.429 1_554 S
C1879 N1876 1.350 . S
C1879 C1878 1.434 . S
C1880 C1881 1.369 . S
C1880 C1882 1.419 . S
C1880 H1884 0.930 . S
C1881 C1880 1.369 . S
C1881 C1890 1.429 . S
C1882 C1880 1.419 . S
C1882 C1883 1.363 . S
C1882 H1885 0.929 . S
C1883 C1882 1.363 . S
C1883 C1889 1.428 . S
H1884 C1880 0.930 . S
H1885 C1882 0.929 . S
S1886 N1887 1.613 . S
S1886 N1888 1.610 . S
N1887 S1886 1.613 . S
N1887 C1890 1.350 . S
N1888 S1886 1.610 . S
N1888 C1889 1.351 . S
C1889 C1883 1.428 . S
C1889 N1888 1.351 . S
C1889 C1890 1.434 . S
C1890 C1881 1.429 . S
C1890 N1887 1.350 . S
C1890 C1889 1.434 . S
C1891 C1892 1.369 1_554 S
C1891 C1893 1.419 . S
C1891 H1895 0.930 . S
C1892 C1891 1.369 1_556 S
C1892 C1901 1.429 . S
C1893 C1891 1.419 . S
C1893 C1894 1.363 . S
C1893 H1896 0.929 . S
C1894 C1893 1.363 . S
C1894 C1900 1.428 1_554 S
H1895 C1891 0.930 . S
H1896 C1893 0.929 . S
S1897 N1898 1.613 . S
S1897 N1899 1.610 . S
N1898 S1897 1.613 . S
N1898 C1901 1.350 . S
N1899 S1897 1.610 . S
N1899 C1900 1.351 . S
C1900 C1894 1.428 1_556 S
C1900 N1899 1.351 . S
C1900 C1901 1.434 . S
C1901 C1892 1.429 . S
C1901 N1898 1.350 . S
C1901 C1900 1.434 . S
C1902 C1903 1.369 . S
C1902 C1904 1.419 . S
C1902 H1906 0.930 . S
C1903 C1902 1.369 . S
C1903 C1912 1.429 . S
C1904 C1902 1.419 . S
C1904 C1905 1.363 . S
C1904 H1907 0.929 . S
C1905 C1904 1.363 . S
C1905 C1911 1.428 . S
H1906 C1902 0.930 . S
H1907 C1904 0.929 . S
S1908 N1909 1.613 . S
S1908 N1910 1.610 . S
N1909 S1908 1.613 . S
N1909 C1912 1.350 . S
N1910 S1908 1.610 . S
N1910 C1911 1.351 . S
C1911 C1905 1.428 . S
C1911 N1910 1.351 . S
C1911 C1912 1.434 . S
C1912 C1903 1.429 . S
C1912 N1909 1.350 . S
C1912 C1911 1.434 . S
C1913 C1914 1.369 . S
C1913 C1915 1.419 . S
C1913 H1917 0.930 . S
C1914 C1913 1.369 . S
C1914 C1923 1.429 . S
C1915 C1913 1.419 . S
C1915 C1916 1.363 . S
C1915 H1918 0.929 . S
C1916 C1915 1.363 . S
C1916 C1922 1.428 . S
H1917 C1913 0.930 . S
H1918 C1915 0.929 . S
S1919 N1920 1.613 . S
S1919 N1921 1.610 . S
N1920 S1919 1.613 . S
N1920 C1923 1.350 . S
N1921 S1919 1.610 . S
N1921 C1922 1.351 . S
C1922 C1916 1.428 . S
C1922 N1921 1.351 . S
C1922 C1923 1.434 . S
C1923 C1914 1.429 . S
C1923 N1920 1.350 . S
C1923 C1922 1.434 . S
C1924 C1925 1.369 . S
C1924 C1926 1.419 . S
C1924 H1928 0.930 . S
C1925 C1924 1.369 . S
C1925 C1934 1.429 . S
C1926 C1924 1.419 . S
C1926 C1927 1.363 . S
C1926 H1929 0.929 . S
C1927 C1926 1.363 . S
C1927 C1933 1.428 . S
H1928 C1924 0.930 . S
H1929 C1926 0.929 . S
S1930 N1931 1.613 . S
S1930 N1932 1.610 . S
N1931 S1930 1.613 . S
N1931 C1934 1.350 . S
N1932 S1930 1.610 . S
N1932 C1933 1.351 . S
C1933 C1927 1.428 . S
C1933 N1932 1.351 . S
C1933 C1934 1.434 . S
C1934 C1925 1.429 . S
C1934 N1931 1.350 . S
C1934 C1933 1.434 . S
C1935 C1936 1.369 . S
C1935 C1937 1.419 . S
C1935 H1939 0.930 . S
C1936 C1935 1.369 . S
C1936 C1945 1.429 1_556 S
C1937 C1935 1.419 . S
C1937 C1938 1.363 1_556 S
C1937 H1940 0.929 . S
C1938 C1937 1.363 1_554 S
C1938 C1944 1.428 . S
H1939 C1935 0.930 . S
H1940 C1937 0.929 . S
S1941 N1942 1.613 . S
S1941 N1943 1.610 . S
N1942 S1941 1.613 . S
N1942 C1945 1.350 . S
N1943 S1941 1.610 . S
N1943 C1944 1.351 . S
C1944 C1938 1.428 . S
C1944 N1943 1.351 . S
C1944 C1945 1.434 . S
C1945 C1936 1.429 1_554 S
C1945 N1942 1.350 . S
C1945 C1944 1.434 . S
C1946 C1947 1.369 . S
C1946 C1948 1.419 . S
C1946 H1950 0.930 . S
C1947 C1946 1.369 . S
C1947 C1956 1.429 . S
C1948 C1946 1.419 . S
C1948 C1949 1.363 . S
C1948 H1951 0.929 . S
C1949 C1948 1.363 . S
C1949 C1955 1.428 . S
H1950 C1946 0.930 . S
H1951 C1948 0.929 . S
S1952 N1953 1.613 . S
S1952 N1954 1.610 . S
N1953 S1952 1.613 . S
N1953 C1956 1.350 . S
N1954 S1952 1.610 . S
N1954 C1955 1.351 . S
C1955 C1949 1.428 . S
C1955 N1954 1.351 . S
C1955 C1956 1.434 . S
C1956 C1947 1.429 . S
C1956 N1953 1.350 . S
C1956 C1955 1.434 . S
C1957 C1958 1.369 . S
C1957 C1959 1.419 . S
C1957 H1961 0.930 . S
C1958 C1957 1.369 . S
C1958 C1967 1.429 . S
C1959 C1957 1.419 . S
C1959 C1960 1.363 . S
C1959 H1962 0.929 . S
C1960 C1959 1.363 . S
C1960 C1966 1.428 . S
H1961 C1957 0.930 . S
H1962 C1959 0.929 . S
S1963 N1964 1.613 . S
S1963 N1965 1.610 . S
N1964 S1963 1.613 . S
N1964 C1967 1.350 . S
N1965 S1963 1.610 . S
N1965 C1966 1.351 . S
C1966 C1960 1.428 . S
C1966 N1965 1.351 . S
C1966 C1967 1.434 . S
C1967 C1958 1.429 . S
C1967 N1964 1.350 . S
C1967 C1966 1.434 . S
C1968 C1969 1.369 . S
C1968 C1970 1.419 . S
C1968 H1972 0.930 . S
C1969 C1968 1.369 . S
C1969 C1978 1.429 . S
C1970 C1968 1.419 . S
C1970 C1971 1.363 . S
C1970 H1973 0.929 . S
C1971 C1970 1.363 . S
C1971 C1977 1.428 . S
H1972 C1968 0.930 . S
H1973 C1970 0.929 . S
S1974 N1975 1.613 . S
S1974 N1976 1.610 . S
N1975 S1974 1.613 . S
N1975 C1978 1.350 . S
N1976 S1974 1.610 . S
N1976 C1977 1.351 . S
C1977 C1971 1.428 . S
C1977 N1976 1.351 . S
C1977 C1978 1.434 . S
C1978 C1969 1.429 . S
C1978 N1975 1.350 . S
C1978 C1977 1.434 . S
C1979 C1980 1.369 . S
C1979 C1981 1.419 . S
C1979 H1983 0.930 . S
C1980 C1979 1.369 . S
C1980 C1989 1.429 . S
C1981 C1979 1.419 . S
C1981 C1982 1.363 . S
C1981 H1984 0.929 . S
C1982 C1981 1.363 . S
C1982 C1988 1.428 . S
H1983 C1979 0.930 . S
H1984 C1981 0.929 . S
S1985 N1986 1.613 . S
S1985 N1987 1.610 . S
N1986 S1985 1.613 . S
N1986 C1989 1.350 . S
N1987 S1985 1.610 . S
N1987 C1988 1.351 . S
C1988 C1982 1.428 . S
C1988 N1987 1.351 . S
C1988 C1989 1.434 . S
C1989 C1980 1.429 . S
C1989 N1986 1.350 . S
C1989 C1988 1.434 . S
C1990 C1991 1.369 . S
C1990 C1992 1.419 . S
C1990 H1994 0.930 . S
C1991 C1990 1.369 . S
C1991 C2000 1.429 . S
C1992 C1990 1.419 . S
C1992 C1993 1.363 . S
C1992 H1995 0.929 . S
C1993 C1992 1.363 . S
C1993 C1999 1.428 . S
H1994 C1990 0.930 . S
H1995 C1992 0.929 . S
S1996 N1997 1.613 . S
S1996 N1998 1.610 . S
N1997 S1996 1.613 . S
N1997 C2000 1.350 . S
N1998 S1996 1.610 . S
N1998 C1999 1.351 . S
C1999 C1993 1.428 . S
C1999 N1998 1.351 . S
C1999 C2000 1.434 . S
C2000 C1991 1.429 . S
C2000 N1997 1.350 . S
C2000 C1999 1.434 . S
C2001 C2002 1.369 . S
C2001 C2003 1.419 . S
C2001 H2005 0.930 . S
C2002 C2001 1.369 . S
C2002 C2011 1.429 . S
C2003 C2001 1.419 . S
C2003 C2004 1.363 . S
C2003 H2006 0.929 . S
C2004 C2003 1.363 . S
C2004 C2010 1.428 . S
H2005 C2001 0.930 . S
H2006 C2003 0.929 . S
S2007 N2008 1.613 . S
S2007 N2009 1.610 . S
N2008 S2007 1.613 . S
N2008 C2011 1.350 . S
N2009 S2007 1.610 . S
N2009 C2010 1.351 . S
C2010 C2004 1.428 . S
C2010 N2009 1.351 . S
C2010 C2011 1.434 . S
C2011 C2002 1.429 . S
C2011 N2008 1.350 . S
C2011 C2010 1.434 . S
C2012 C2013 1.369 . S
C2012 C2014 1.419 . S
C2012 H2016 0.930 . S
C2013 C2012 1.369 . S
C2013 C2022 1.429 . S
C2014 C2012 1.419 . S
C2014 C2015 1.363 . S
C2014 H2017 0.929 . S
C2015 C2014 1.363 . S
C2015 C2021 1.428 . S
H2016 C2012 0.930 . S
H2017 C2014 0.929 . S
S2018 N2019 1.613 . S
S2018 N2020 1.610 . S
N2019 S2018 1.613 . S
N2019 C2022 1.350 . S
N2020 S2018 1.610 . S
N2020 C2021 1.351 . S
C2021 C2015 1.428 . S
C2021 N2020 1.351 . S
C2021 C2022 1.434 . S
C2022 C2013 1.429 . S
C2022 N2019 1.350 . S
C2022 C2021 1.434 . S
C2023 C2024 1.369 . S
C2023 C2025 1.419 . S
C2023 H2027 0.930 . S
C2024 C2023 1.369 . S
C2024 C2033 1.429 . S
C2025 C2023 1.419 . S
C2025 C2026 1.363 . S
C2025 H2028 0.929 . S
C2026 C2025 1.363 . S
C2026 C2032 1.428 . S
H2027 C2023 0.930 . S
H2028 C2025 0.929 . S
S2029 N2030 1.613 . S
S2029 N2031 1.610 . S
N2030 S2029 1.613 . S
N2030 C2033 1.350 . S
N2031 S2029 1.610 . S
N2031 C2032 1.351 . S
C2032 C2026 1.428 . S
C2032 N2031 1.351 . S
C2032 C2033 1.434 . S
C2033 C2024 1.429 . S
C2033 N2030 1.350 . S
C2033 C2032 1.434 . S
C2034 C2035 1.369 . S
C2034 C2036 1.419 . S
C2034 H2038 0.930 . S
C2035 C2034 1.369 . S
C2035 C2044 1.429 . S
C2036 C2034 1.419 . S
C2036 C2037 1.363 . S
C2036 H2039 0.929 . S
C2037 C2036 1.363 . S
C2037 C2043 1.428 . S
H2038 C2034 0.930 . S
H2039 C2036 0.929 . S
S2040 N2041 1.613 . S
S2040 N2042 1.610 . S
N2041 S2040 1.613 . S
N2041 C2044 1.350 . S
N2042 S2040 1.610 . S
N2042 C2043 1.351 . S
C2043 C2037 1.428 . S
C2043 N2042 1.351 . S
C2043 C2044 1.434 . S
C2044 C2035 1.429 . S
C2044 N2041 1.350 . S
C2044 C2043 1.434 . S
C2045 C2046 1.369 . S
C2045 C2047 1.419 . S
C2045 H2049 0.930 . S
C2046 C2045 1.369 . S
C2046 C2055 1.429 . S
C2047 C2045 1.419 . S
C2047 C2048 1.363 . S
C2047 H2050 0.929 . S
C2048 C2047 1.363 . S
C2048 C2054 1.428 . S
H2049 C2045 0.930 . S
H2050 C2047 0.929 . S
S2051 N2052 1.613 . S
S2051 N2053 1.610 . S
N2052 S2051 1.613 . S
N2052 C2055 1.350 . S
N2053 S2051 1.610 . S
N2053 C2054 1.351 . S
C2054 C2048 1.428 . S
C2054 N2053 1.351 . S
C2054 C2055 1.434 . S
C2055 C2046 1.429 . S
C2055 N2052 1.350 . S
C2055 C2054 1.434 . S
C2056 C2057 1.369 . S
C2056 C2058 1.419 . S
C2056 H2060 0.930 . S
C2057 C2056 1.369 . S
C2057 C2066 1.429 . S
C2058 C2056 1.419 . S
C2058 C2059 1.363 . S
C2058 H2061 0.929 . S
C2059 C2058 1.363 . S
C2059 C2065 1.428 . S
H2060 C2056 0.930 . S
H2061 C2058 0.929 . S
S2062 N2063 1.613 . S
S2062 N2064 1.610 . S
N2063 S2062 1.613 . S
N2063 C2066 1.350 . S
N2064 S2062 1.610 . S
N2064 C2065 1.351 . S
C2065 C2059 1.428 . S
C2065 N2064 1.351 . S
C2065 C2066 1.434 . S
C2066 C2057 1.429 . S
C2066 N2063 1.350 . S
C2066 C2065 1.434 . S
C2067 C2068 1.369 . S
C2067 C2069 1.419 . S
C2067 H2071 0.930 . S
C2068 C2067 1.369 . S
C2068 C2077 1.429 . S
C2069 C2067 1.419 . S
C2069 C2070 1.363 . S
C2069 H2072 0.929 . S
C2070 C2069 1.363 . S
C2070 C2076 1.428 . S
H2071 C2067 0.930 . S
H2072 C2069 0.929 . S
S2073 N2074 1.613 . S
S2073 N2075 1.610 . S
N2074 S2073 1.613 . S
N2074 C2077 1.350 . S
N2075 S2073 1.610 . S
N2075 C2076 1.351 . S
C2076 C2070 1.428 . S
C2076 N2075 1.351 . S
C2076 C2077 1.434 . S
C2077 C2068 1.429 . S
C2077 N2074 1.350 . S
C2077 C2076 1.434 . S
C2078 C2079 1.369 . S
C2078 C2080 1.419 . S
C2078 H2082 0.930 . S
C2079 C2078 1.369 . S
C2079 C2088 1.429 . S
C2080 C2078 1.419 . S
C2080 C2081 1.363 . S
C2080 H2083 0.929 . S
C2081 C2080 1.363 . S
C2081 C2087 1.428 . S
H2082 C2078 0.930 . S
H2083 C2080 0.929 . S
S2084 N2085 1.613 . S
S2084 N2086 1.610 . S
N2085 S2084 1.613 . S
N2085 C2088 1.350 . S
N2086 S2084 1.610 . S
N2086 C2087 1.351 . S
C2087 C2081 1.428 . S
C2087 N2086 1.351 . S
C2087 C2088 1.434 . S
C2088 C2079 1.429 . S
C2088 N2085 1.350 . S
C2088 C2087 1.434 . S
C2089 C2090 1.369 . S
C2089 C2091 1.419 . S
C2089 H2093 0.930 . S
C2090 C2089 1.369 . S
C2090 C2099 1.429 . S
C2091 C2089 1.419 . S
C2091 C2092 1.363 . S
C2091 H2094 0.929 . S
C2092 C2091 1.363 . S
C2092 C2098 1.428 . S
H2093 C2089 0.930 . S
H2094 C2091 0.929 . S
S2095 N2096 1.613 . S
S2095 N2097 1.610 . S
N2096 S2095 1.613 . S
N2096 C2099 1.350 . S
N2097 S2095 1.610 . S
N2097 C2098 1.351 . S
C2098 C2092 1.428 . S
C2098 N2097 1.351 . S
C2098 C2099 1.434 . S
C2099 C2090 1.429 . S
C2099 N2096 1.350 . S
C2099 C2098 1.434 . S
C2100 C2101 1.369 . S
C2100 C2102 1.419 . S
C2100 H2104 0.930 . S
C2101 C2100 1.369 . S
C2101 C2110 1.429 . S
C2102 C2100 1.419 . S
C2102 C2103 1.363 . S
C2102 H2105 0.929 . S
C2103 C2102 1.363 . S
C2103 C2109 1.428 . S
H2104 C2100 0.930 . S
H2105 C2102 0.929 . S
S2106 N2107 1.613 . S
S2106 N2108 1.610 . S
N2107 S2106 1.613 . S
N2107 C2110 1.350 . S
N2108 S2106 1.610 . S
N2108 C2109 1.351 . S
C2109 C2103 1.428 . S
C2109 N2108 1.351 . S
C2109 C2110 1.434 . S
C2110 C2101 1.429 . S
C2110 N2107 1.350 . S
C2110 C2109 1.434 . S
C2111 C2112 1.369 . S
C2111 C2113 1.419 . S
C2111 H2115 0.930 . S
C2112 C2111 1.369 . S
C2112 C2121 1.429 . S
C2113 C2111 1.419 . S
C2113 C2114 1.363 . S
C2113 H2116 0.929 . S
C2114 C2113 1.363 . S
C2114 C2120 1.428 . S
H2115 C2111 0.930 . S
H2116 C2113 0.929 . S
S2117 N2118 1.613 . S
S2117 N2119 1.610 . S
N2118 S2117 1.613 . S
N2118 C2121 1.350 . S
N2119 S2117 1.610 . S
N2119 C2120 1.351 . S
C2120 C2114 1.428 . S
C2120 N2119 1.351 . S
C2120 C2121 1.434 . S
C2121 C2112 1.429 . S
C2121 N2118 1.350 . S
C2121 C2120 1.434 . S
C2122 C2123 1.369 . S
C2122 C2124 1.419 . S
C2122 H2126 0.930 . S
C2123 C2122 1.369 . S
C2123 C2132 1.429 . S
C2124 C2122 1.419 . S
C2124 C2125 1.363 . S
C2124 H2127 0.929 . S
C2125 C2124 1.363 . S
C2125 C2131 1.428 . S
H2126 C2122 0.930 . S
H2127 C2124 0.929 . S
S2128 N2129 1.613 . S
S2128 N2130 1.610 . S
N2129 S2128 1.613 . S
N2129 C2132 1.350 . S
N2130 S2128 1.610 . S
N2130 C2131 1.351 . S
C2131 C2125 1.428 . S
C2131 N2130 1.351 . S
C2131 C2132 1.434 . S
C2132 C2123 1.429 . S
C2132 N2129 1.350 . S
C2132 C2131 1.434 . S
C2133 C2134 1.369 . S
C2133 C2135 1.419 . S
C2133 H2137 0.930 . S
C2134 C2133 1.369 . S
C2134 C2143 1.429 . S
C2135 C2133 1.419 . S
C2135 C2136 1.363 . S
C2135 H2138 0.929 . S
C2136 C2135 1.363 . S
C2136 C2142 1.428 . S
H2137 C2133 0.930 . S
H2138 C2135 0.929 . S
S2139 N2140 1.613 . S
S2139 N2141 1.610 . S
N2140 S2139 1.613 . S
N2140 C2143 1.350 . S
N2141 S2139 1.610 . S
N2141 C2142 1.351 . S
C2142 C2136 1.428 . S
C2142 N2141 1.351 . S
C2142 C2143 1.434 . S
C2143 C2134 1.429 . S
C2143 N2140 1.350 . S
C2143 C2142 1.434 . S
C1089 C29 2.716 . S
C1091 C110 2.565 . S
C1100 C8 2.565 . S
C1102 C63 2.715 1_545 S
C1111 C97 2.713 . S
C1113 C42 2.560 . S
C1122 C76 2.559 . S
C1124 C131 2.714 1_565 S
C1133 C178 2.565 . S
C1135 C165 2.715 . S
C1144 C199 2.714 1_545 S
C1146 C212 2.559 . S
C1155 C246 2.560 . S
C1157 C233 2.714 . S
C1166 C144 2.565 . S
C1168 C267 2.715 1_565 S
C1177 C272 2.713 . S
C1179 C391 2.559 . S
C1188 C306 2.716 1_565 S
C1190 C289 2.561 . S
C1199 C340 2.716 . S
C1201 C323 2.560 . S
C1210 C374 2.715 1_545 S
C1212 C357 2.559 . S
C1221 C408 2.714 . S
C1223 C459 2.564 . S
C1232 C442 2.715 1_565 S
C1234 C493 2.565 . S
C1243 C527 2.560 . S
C1245 C476 2.716 . S
C1254 C425 2.559 . S
C1256 C510 2.714 1_545 S
C1265 C573 2.714 . S
C1267 C654 2.564 . S
C1276 C552 2.565 . S
C1278 C607 2.716 . S
C1287 C586 2.564 . S
C1289 C641 2.714 . S
C1298 C675 2.716 . S
C1300 C620 2.561 . S
C1309 C709 2.716 . S
C1311 C722 2.564 . S
C1320 C756 2.560 . S
C1322 C743 2.715 . S
C1331 C777 2.715 . S
C1333 C790 2.565 . S
C1342 C688 2.558 . S
C1344 C811 2.714 . S
C1353 C935 2.565 . S
C1355 C816 2.715 . S
C1364 C833 2.559 . S
C1366 C850 2.715 . S
C1375 C884 2.716 . S
C1377 C867 2.563 . S
C1386 C901 2.565 . S
C1388 C918 2.715 . S
C1397 C1003 2.565 . S
C1399 C952 2.715 . S
C1408 C1037 2.565 . S
C1410 C986 2.715 . S
C1419 C1071 2.558 . S
C1421 C1020 2.714 . S
C1430 C1054 2.715 . S
C1432 C969 2.565 . S
C1441 C947 1.624 . S
C1443 C4 1.612 . S
C1452 C38 1.612 1_655 S
C1454 C301 1.624 . S
C1463 C72 1.606 . S
C1465 C879 1.629 . S
C1474 C106 1.607 . S
C1476 C369 1.628 . S
C1485 C140 1.611 . S
C1487 C1015 1.626 . S
C1496 C505 1.628 . S
C1498 C174 1.609 . S
C1507 C1083 1.631 . S
C1509 C208 1.605 . S
C1518 C242 1.608 1_655 S
C1520 C437 1.628 . S
C1529 C285 1.604 . S
C1531 C646 1.629 . S
C1540 C0 1.626 . S
C1542 C319 1.608 1_455 S
C1551 C578 1.624 . S
C1553 C353 1.612 . S
C1562 C68 1.623 . S
C1564 C387 1.611 . S
C1573 C714 1.623 . S
C1575 C421 1.611 . S
C1584 C204 1.630 . S
C1586 C455 1.605 . S
C1595 C489 1.613 . S
C1597 C782 1.623 . S
C1606 C523 1.614 1_455 S
C1608 C136 1.623 . S
C1617 C548 1.606 . S
C1619 C403 1.629 . S
C1628 C582 1.604 . S
C1630 C845 1.630 . S
C1639 C616 1.607 . S
C1641 C335 1.629 . S
C1650 C650 1.612 1_455 S
C1652 C913 1.625 . S
C1661 C684 1.611 . S
C1663 C471 1.626 . S
C1672 C718 1.604 1_455 S
C1674 C1049 1.630 . S
C1683 C539 1.623 . S
C1685 C752 1.612 . S
C1694 C786 1.614 . S
C1696 C981 1.623 . S
C1705 C102 1.625 . S
C1707 C829 1.609 . S
C1716 C544 1.622 . S
C1718 C863 1.612 . S
C1727 C34 1.625 . S
C1729 C897 1.609 . S
C1738 C612 1.623 . S
C1740 C931 1.611 1_655 S
C1749 C170 1.623 . S
C1751 C965 1.612 . S
C1760 C999 1.614 1_655 S
C1762 C748 1.624 . S
C1771 C1033 1.604 . S
C1773 C238 1.629 . S
C1782 C680 1.622 . S
C1784 C1067 1.613 . S
C1793 C13 1.401 1_565 S
C1795 C149 1.391 1_545 S
C1804 C47 1.404 . S
C1806 C183 1.397 . S
C1815 C81 1.399 1_545 S
C1817 C217 1.391 1_565 S
C1826 C251 1.402 . S
C1828 C115 1.399 . S
C1837 C412 1.401 1_565 S
C1839 C276 1.391 1_545 S
C1848 C446 1.395 . S
C1850 C310 1.404 . S
C1859 C344 1.393 1_565 S
C1861 C480 1.395 1_545 S
C1870 C378 1.405 . S
C1872 C514 1.395 . S
C1881 C557 1.404 . S
C1883 C693 1.397 . S
C1892 C727 1.395 . S
C1894 C591 1.402 . S
C1903 C761 1.394 . S
C1905 C625 1.403 . S
C1914 C795 1.400 . S
C1916 C659 1.398 . S
C1925 C956 1.404 . S
C1927 C820 1.395 . S
C1936 C854 1.405 . S
C1938 C990 1.395 . S
C1947 C1024 1.405 . S
C1949 C888 1.396 . S
C1958 C922 1.404 . S
C1960 C1058 1.395 . S
C1969 C255 2.024 1_554 S
C1971 C17 2.040 . S
C1980 C51 2.032 . S
C1982 C153 2.040 . S
C1991 C85 2.039 . S
C1993 C187 2.037 . S
C2002 C221 2.034 . S
C2004 C119 2.025 1_556 S
C2013 C280 2.033 . S
C2015 C518 2.025 1_556 S
C2024 C416 2.041 . S
C2026 C314 2.033 . S
C2035 C450 2.037 . S
C2037 C348 2.039 . S
C2046 C382 2.029 1_554 S
C2048 C484 2.033 . S
C2057 C561 2.032 . S
C2059 C799 2.038 . S
C2068 C697 2.038 . S
C2070 C595 2.022 1_556 S
C2079 C731 2.022 1_554 S
C2081 C629 2.040 . S
C2090 C765 2.038 . S
C2092 C663 2.037 . S
C2101 C824 2.032 . S
C2103 C1062 2.040 . S
C2112 C960 2.040 . S
C2114 C858 2.022 1_554 S
C2123 C892 2.037 . S
C2125 C994 2.028 1_556 S
C2134 C1028 2.040 . S
C2136 C926 2.033 . S
