# Generated by pormake.
# Topology upa, (4)-cn, num edge types: 1
# Building blocks:
#     Node 0, Type 0, BuildingBlock: QUQFOY_clean_sbu_3, # of connection points: 4
#     Node 1, Type 0, BuildingBlock: QUQFOY_clean_sbu_3, # of connection points: 4
#     Node 2, Type 0, BuildingBlock: QUQFOY_clean_sbu_3, # of connection points: 4
#     Node 3, Type 0, BuildingBlock: QUQFOY_clean_sbu_3, # of connection points: 4
#     Node 4, Type 0, BuildingBlock: QUQFOY_clean_sbu_3, # of connection points: 4
#     Node 5, Type 0, BuildingBlock: QUQFOY_clean_sbu_3, # of connection points: 4
#     Node 6, Type 0, BuildingBlock: QUQFOY_clean_sbu_3, # of connection points: 4
#     Node 7, Type 0, BuildingBlock: QUQFOY_clean_sbu_3, # of connection points: 4
#     Edge 8, Type (0, 0), BuildingBlock: EZIPEK_clean_linker_0, # of connection points: 2
#     Edge 9, Type (0, 0), BuildingBlock: EZIPEK_clean_linker_0, # of connection points: 2
#     Edge 10, Type (0, 0), BuildingBlock: EZIPEK_clean_linker_0, # of connection points: 2
#     Edge 11, Type (0, 0), BuildingBlock: EZIPEK_clean_linker_0, # of connection points: 2
#     Edge 12, Type (0, 0), BuildingBlock: EZIPEK_clean_linker_0, # of connection points: 2
#     Edge 13, Type (0, 0), BuildingBlock: EZIPEK_clean_linker_0, # of connection points: 2
#     Edge 14, Type (0, 0), BuildingBlock: EZIPEK_clean_linker_0, # of connection points: 2
#     Edge 15, Type (0, 0), BuildingBlock: EZIPEK_clean_linker_0, # of connection points: 2
#     Edge 16, Type (0, 0), BuildingBlock: EZIPEK_clean_linker_0, # of connection points: 2
#     Edge 17, Type (0, 0), BuildingBlock: EZIPEK_clean_linker_0, # of connection points: 2
#     Edge 18, Type (0, 0), BuildingBlock: EZIPEK_clean_linker_0, # of connection points: 2
#     Edge 19, Type (0, 0), BuildingBlock: EZIPEK_clean_linker_0, # of connection points: 2
#     Edge 20, Type (0, 0), BuildingBlock: EZIPEK_clean_linker_0, # of connection points: 2
#     Edge 21, Type (0, 0), BuildingBlock: EZIPEK_clean_linker_0, # of connection points: 2
#     Edge 22, Type (0, 0), BuildingBlock: EZIPEK_clean_linker_0, # of connection points: 2
#     Edge 23, Type (0, 0), BuildingBlock: EZIPEK_clean_linker_0, # of connection points: 2
# Relax obj value: 0.207
# Max RMSD: 0.129
# Mean RMSD: 0.129
data_MOF--net-upa--node1-QUQFOY_clean_sbu_3--edge1-EZIPEK_clean_linker_0
_symmetry_space_group_name_H-M    P1
_symmetry_Int_Tables_number       1
_symmetry_cell_setting            triclinic
loop_
_symmetry_equiv_pos_as_xyz
'x, y, z'
_cell_length_a     19.360473
_cell_length_b     19.464564
_cell_length_c     33.726004
_cell_angle_alpha  90.183276
_cell_angle_beta   90.51267
_cell_angle_gamma 89.539873
loop_
_atom_site_label
_atom_site_type_symbol
_atom_site_fract_x
_atom_site_fract_y
_atom_site_fract_z
_atom_type_partial_charge
C0 C 0.07815 0.27882 0.3081 0.0
O1 O 0.06443 0.29577 0.34368 0.0
Cd2 Cd 0.12903 0.26547 0.402 0.0
O3 O 0.13582 0.25076 0.29885 0.0
Cd4 Cd 0.24827 0.21266 0.32986 0.0
C5 C 0.13709 0.09593 0.36986 0.0
O6 O 0.24334 0.28852 0.38474 0.0
O7 O 0.33217 0.22261 0.38594 0.0
O8 O 0.31397 0.25386 0.27397 0.0
C9 C 0.29363 0.2643 0.40443 0.0
O10 O 0.11216 0.14242 0.39243 0.0
C11 C 0.35183 0.20013 0.27158 0.0
O12 O 0.18656 0.10785 0.34615 0.0
O13 O 0.33918 0.15121 0.29525 0.0
C14 C 0.15434 0.58171 0.78665 0.0
O15 O 0.13457 0.56311 0.82072 0.0
Cd16 Cd 0.18055 0.60496 0.88144 0.0
O17 O 0.19666 0.6314 0.78361 0.0
Cd18 Cd 0.25441 0.71844 0.82789 0.0
C19 C 0.35096 0.58176 0.85777 0.0
O20 O 0.17139 0.72729 0.88217 0.0
O21 O 0.27369 0.7651 0.89375 0.0
O22 O 0.22416 0.8161 0.78525 0.0
C23 C 0.21254 0.75742 0.90582 0.0
O24 O 0.29914 0.56347 0.87803 0.0
C25 C 0.28478 0.84083 0.78535 0.0
O26 O 0.34867 0.63519 0.83603 0.0
O27 O 0.33153 0.80681 0.80341 0.0
C28 C 0.97213 0.68118 0.29319 0.0
O29 O 0.96509 0.63666 0.32018 0.0
Cd30 Cd 0.91817 0.68782 0.37844 0.0
O31 O 0.93185 0.73324 0.29139 0.0
Cd32 Cd 0.82467 0.7805 0.32278 0.0
C33 C 0.96441 0.85713 0.35889 0.0
O34 O 0.795 0.70362 0.37684 0.0
O35 O 0.77222 0.81199 0.38469 0.0
O36 O 0.74038 0.74926 0.27224 0.0
C37 C 0.76907 0.75134 0.39811 0.0
O38 O 0.97735 0.79994 0.37579 0.0
C39 C 0.71833 0.81027 0.26665 0.0
O40 O 0.91046 0.86586 0.33753 0.0
O41 O 0.748 0.85822 0.2858 0.0
C42 C 0.77139 0.44242 0.79748 0.0
O43 O 0.79832 0.44992 0.83166 0.0
Cd44 Cd 0.764 0.38392 0.8866 0.0
O45 O 0.73397 0.39032 0.78902 0.0
Cd46 Cd 0.69317 0.28061 0.82152 0.0
C47 C 0.5907 0.40228 0.86225 0.0
O48 O 0.7864 0.26785 0.8682 0.0
O49 O 0.69518 0.21476 0.88443 0.0
O50 O 0.71962 0.19926 0.76765 0.0
C51 C 0.75807 0.22737 0.89212 0.0
O52 O 0.64207 0.41971 0.88382 0.0
C53 C 0.65984 0.17252 0.76766 0.0
O54 O 0.5949 0.35219 0.83807 0.0
O55 O 0.61559 0.19755 0.79129 0.0
C56 C 0.57748 0.20029 0.1602 0.0
O57 O 0.55927 0.18732 0.12465 0.0
Cd58 Cd 0.61796 0.22457 0.06654 0.0
O59 O 0.63587 0.22754 0.16841 0.0
Cd60 Cd 0.74362 0.27197 0.13721 0.0
C61 C 0.62896 0.39281 0.10286 0.0
O62 O 0.73518 0.20239 0.0795 0.0
O63 O 0.82267 0.2689 0.08006 0.0
O64 O 0.822 0.22056 0.18585 0.0
C65 C 0.78451 0.22834 0.06049 0.0
O66 O 0.60124 0.34582 0.08176 0.0
C67 C 0.85071 0.27705 0.19525 0.0
O68 O 0.68319 0.38092 0.12356 0.0
O69 O 0.82781 0.33131 0.17868 0.0
C70 C 0.30102 0.0802 0.69214 0.0
O71 O 0.32182 0.06103 0.65824 0.0
Cd72 Cd 0.27707 0.10221 0.59708 0.0
O73 O 0.25865 0.13065 0.69486 0.0
Cd74 Cd 0.20215 0.21898 0.65041 0.0
C75 C 0.10514 0.08382 0.62104 0.0
O76 O 0.28632 0.22455 0.59722 0.0
O77 O 0.18565 0.26643 0.58384 0.0
O78 O 0.23153 0.3164 0.69344 0.0
C79 C 0.24724 0.25606 0.57291 0.0
O80 O 0.15743 0.06259 0.60176 0.0
C81 C 0.17085 0.34199 0.693 0.0
O82 O 0.10737 0.13845 0.64187 0.0
O83 O 0.12453 0.30868 0.67448 0.0
C84 C 0.48238 0.82653 0.16144 0.0
O85 O 0.48584 0.84725 0.12578 0.0
Cd86 Cd 0.42144 0.79843 0.07134 0.0
O87 O 0.43314 0.78834 0.1729 0.0
Cd88 Cd 0.32651 0.73324 0.1463 0.0
C89 C 0.45376 0.63406 0.10578 0.0
O90 O 0.3031 0.79934 0.08707 0.0
O91 O 0.24808 0.70464 0.09268 0.0
O92 O 0.24214 0.77272 0.19463 0.0
C93 C 0.26194 0.75624 0.0716 0.0
O94 O 0.464 0.68135 0.08049 0.0
C95 C 0.22257 0.71224 0.20316 0.0
O96 O 0.40777 0.63968 0.13249 0.0
O97 O 0.25581 0.66205 0.18819 0.0
C98 C 0.64367 0.94389 0.66342 0.0
O99 O 0.63714 0.95878 0.62689 0.0
Cd100 Cd 0.69107 0.90579 0.57079 0.0
O101 O 0.67994 0.89162 0.6738 0.0
Cd102 Cd 0.74755 0.794 0.64423 0.0
C103 C 0.8547 0.92327 0.61194 0.0
O104 O 0.68551 0.78665 0.58288 0.0
O105 O 0.76878 0.71411 0.58909 0.0
O106 O 0.70145 0.70916 0.68915 0.0
C107 C 0.72399 0.74198 0.56669 0.0
O108 O 0.80739 0.94258 0.58783 0.0
C109 C 0.76038 0.68536 0.69938 0.0
O110 O 0.84663 0.87147 0.63462 0.0
O111 O 0.81349 0.71552 0.68626 0.0
C112 C 0.07311 0.00823 0.32962 0.0
C113 C 0.10012 0.02993 0.36689 0.0
C114 C 0.03725 0.93779 0.39978 0.0
C115 C 0.01484 0.91343 0.36213 0.0
N116 N 0.0302 0.91264 0.29115 0.0
N117 N 0.11959 0.00712 0.43634 0.0
C118 C 0.03873 0.94458 0.327 0.0
C119 C 0.086 0.99189 0.40167 0.0
N120 N 0.07564 0.05008 0.29716 0.0
N121 N 0.00946 0.912 0.43367 0.0
H122 H 0.15547 0.04649 0.43857 0.0
H123 H 0.11686 0.97696 0.46172 0.0
H124 H 0.97125 0.87468 0.43368 0.0
H125 H 0.01996 0.93177 0.46174 0.0
H126 H 0.04997 0.03887 0.27065 0.0
H127 H 0.09639 0.09928 0.29772 0.0
H128 H 0.05259 0.93052 0.26519 0.0
H129 H 0.00769 0.86436 0.28814 0.0
C130 C 0.4443 0.51969 0.89543 0.0
C131 C 0.41379 0.53795 0.85857 0.0
C132 C 0.50457 0.4741 0.8241 0.0
C133 C 0.52875 0.44752 0.86102 0.0
N134 N 0.51182 0.43523 0.93141 0.0
N135 N 0.40656 0.51971 0.78769 0.0
C136 C 0.49599 0.46765 0.89663 0.0
C137 C 0.4415 0.51161 0.82278 0.0
N138 N 0.42639 0.55416 0.92915 0.0
N139 N 0.54315 0.46686 0.79056 0.0
H140 H 0.35891 0.54478 0.7854 0.0
H141 H 0.42154 0.49526 0.76156 0.0
H142 H 0.59152 0.44306 0.79016 0.0
H143 H 0.53062 0.49153 0.76404 0.0
H144 H 0.45412 0.54882 0.95552 0.0
H145 H 0.38984 0.59383 0.92957 0.0
H146 H 0.48311 0.44269 0.95707 0.0
H147 H 0.54834 0.39568 0.93349 0.0
C148 C 0.58192 0.49709 0.14036 0.0
C149 C 0.59377 0.4611 0.10405 0.0
C150 C 0.50819 0.5345 0.0709 0.0
C151 C 0.50076 0.57393 0.10579 0.0
N152 N 0.54495 0.60393 0.17075 0.0
N153 N 0.58513 0.46344 0.03254 0.0
C154 C 0.54204 0.55876 0.13966 0.0
C155 C 0.56214 0.48539 0.06862 0.0
N156 N 0.60482 0.47153 0.17585 0.0
N157 N 0.46175 0.54109 0.04048 0.0
H158 H 0.62765 0.43059 0.02946 0.0
H159 H 0.56743 0.48489 0.00601 0.0
H160 H 0.42058 0.57601 0.04092 0.0
H161 H 0.45977 0.50555 0.01738 0.0
H162 H 0.58957 0.49208 0.20301 0.0
H163 H 0.63382 0.42677 0.17901 0.0
H164 H 0.58026 0.59886 0.19409 0.0
H165 H 0.5172 0.65004 0.17135 0.0
C166 C 0.00856 0.03188 0.58167 0.0
C167 C 0.04054 0.04393 0.61896 0.0
C168 C 0.9462 0.98451 0.65195 0.0
C169 C 0.91933 0.96399 0.61439 0.0
N170 N 0.93268 0.95962 0.54307 0.0
N171 N 0.04712 0.02037 0.68916 0.0
C172 C 0.95263 0.98535 0.57908 0.0
C173 C 0.01152 0.01698 0.65402 0.0
N174 N 0.02992 0.06677 0.5489 0.0
N175 N 0.90784 0.97701 0.68548 0.0
H176 H 0.09569 0.04278 0.69191 0.0
H177 H 0.03137 0.99501 0.71466 0.0
H178 H 0.85771 0.95789 0.68526 0.0
H179 H 0.92261 0.9973 0.71287 0.0
H180 H 1.00379 0.06555 0.52178 0.0
H181 H 0.06957 0.10268 0.54979 0.0
H182 H 0.95947 0.96865 0.51704 0.0
H183 H 0.89328 0.92417 0.53941 0.0
C184 C 0.30124 0.3208 0.47144 0.0
C185 C 0.28941 0.2611 0.44813 0.0
C186 C 0.24757 0.2003 0.5064 0.0
C187 C 0.26379 0.25796 0.53029 0.0
N188 N 0.31408 0.37001 0.5375 0.0
N189 N 0.26397 0.13927 0.44514 0.0
C190 C 0.29329 0.31738 0.5134 0.0
C191 C 0.26716 0.19932 0.46616 0.0
N192 N 0.319 0.38081 0.45339 0.0
N193 N 0.20917 0.14798 0.5214 0.0
H194 H 0.26904 0.13562 0.41455 0.0
H195 H 0.26119 0.09158 0.45896 0.0
H196 H 0.19125 0.14788 0.55035 0.0
H197 H 0.18896 0.10836 0.50411 0.0
H198 H 0.32103 0.42797 0.46797 0.0
H199 H 0.32824 0.38411 0.42302 0.0
H200 H 0.342 0.41201 0.52764 0.0
H201 H 0.30744 0.36933 0.56818 0.0
C202 C 0.18879 0.70503 0.97101 0.0
C203 C 0.19886 0.76506 0.94874 0.0
C204 C 0.22841 0.82514 0.01041 0.0
C205 C 0.23794 0.7605 0.02956 0.0
N206 N 0.24432 0.63609 0.0206 0.0
N207 N 0.22713 0.88516 0.94743 0.0
C208 C 0.2223 0.69931 0.00806 0.0
C209 C 0.21816 0.8263 0.96857 0.0
N210 N 0.14826 0.6534 0.95698 0.0
N211 N 0.2263 0.88473 0.03185 0.0
H212 H 0.21542 0.88819 0.91719 0.0
H213 H 0.24872 0.92941 0.95965 0.0
H214 H 0.2275 0.88581 0.06273 0.0
H215 H 0.21469 0.93223 0.01916 0.0
H216 H 0.13827 0.60944 0.97354 0.0
H217 H 0.11664 0.65998 0.9321 0.0
H218 H 0.23626 0.59172 0.00379 0.0
H219 H 0.27943 0.62889 0.04381 0.0
C220 C 0.79999 0.76163 0.50864 0.0
C221 C 0.7347 0.74163 0.52337 0.0
C222 C 0.69141 0.7254 0.45537 0.0
C223 C 0.75782 0.74193 0.441 0.0
N224 N 0.87774 0.76711 0.45333 0.0
N225 N 0.62107 0.69561 0.51206 0.0
C226 C 0.81293 0.7566 0.46756 0.0
C227 C 0.68099 0.72109 0.49708 0.0
N228 N 0.84827 0.79 0.53355 0.0
N229 N 0.63813 0.71574 0.42913 0.0
H230 H 0.61185 0.69232 0.54243 0.0
H231 H 0.58253 0.6733 0.49473 0.0
H232 H 0.64489 0.71623 0.39846 0.0
H233 H 0.58678 0.71105 0.4375 0.0
H234 H 0.89563 0.80863 0.52434 0.0
H235 H 0.83925 0.80115 0.56325 0.0
H236 H 0.92231 0.76664 0.47083 0.0
H237 H 0.88752 0.77238 0.42335 0.0
C238 C 0.76466 0.15824 0.95527 0.0
C239 C 0.78624 0.21574 0.9329 0.0
C240 C 0.80962 0.27936 -0.00658 0.0
C241 C 0.78934 0.22214 0.01661 0.0
N242 N 0.76926 0.09969 0.01865 0.0
N243 N 0.86579 0.31117 0.93299 0.0
C244 C 0.77344 0.159 -0.00272 0.0
C245 C 0.82118 0.26967 0.95258 0.0
N246 N 0.73636 0.10296 0.93636 0.0
N247 N 0.81255 0.34422 0.00892 0.0
H248 H 0.88249 0.30054 0.90433 0.0
H249 H 0.89418 0.34922 0.94749 0.0
H250 H 0.79522 0.35703 0.03714 0.0
H251 H 0.82277 0.38705 -0.00854 0.0
H252 H 0.71163 0.06339 0.95119 0.0
H253 H 0.73639 0.09793 0.90553 0.0
H254 H 0.76319 0.05147 0.00566 0.0
H255 H 0.77949 0.0976 0.04903 0.0
C256 C 0.48561 0.13611 0.19693 0.0
C257 C 0.52388 0.19707 0.19126 0.0
C258 C 0.45725 0.25399 0.24328 0.0
C259 C 0.41199 0.19718 0.24463 0.0
N260 N 0.37713 0.08728 0.21775 0.0
N261 N 0.53147 0.32008 0.20158 0.0
C262 C 0.42467 0.13867 0.22028 0.0
C263 C 0.50596 0.25773 0.21245 0.0
N264 N 0.50792 0.07576 0.18048 0.0
N265 N 0.45565 0.30353 0.27209 0.0
H266 H 0.5631 0.32675 0.17711 0.0
H267 H 0.5142 0.36624 0.21392 0.0
H268 H 0.42363 0.30105 0.29672 0.0
H269 H 0.49207 0.34262 0.27391 0.0
H270 H 0.48564 0.02847 0.18653 0.0
H271 H 0.55289 0.07219 0.16374 0.0
H272 H 0.3808 0.04679 0.19759 0.0
H273 H 0.33049 0.08847 0.23293 0.0
C274 C 0.2609 0.96783 0.77945 0.0
C275 C 0.29954 0.90876 0.76743 0.0
C276 C 0.36498 0.98021 0.72179 0.0
C277 C 0.31577 0.03361 0.72666 0.0
N278 N 0.24361 0.09154 0.77394 0.0
N279 N 0.38895 0.85856 0.72653 0.0
C280 C 0.27123 0.03166 0.75971 0.0
C281 C 0.35301 0.91517 0.73914 0.0
N282 N 0.21441 0.9627 0.80957 0.0
N283 N 0.42416 0.99301 0.70154 0.0
H284 H 0.38044 0.80923 0.73724 0.0
H285 H 0.42315 0.85954 0.70287 0.0
H286 H 0.43512 0.04215 0.69113 0.0
H287 H 0.46516 0.95821 0.6996 0.0
H288 H 0.1783 1.00061 0.81651 0.0
H289 H 0.21076 0.91932 0.82747 0.0
H290 H 0.21278 0.09511 0.79895 0.0
H291 H 0.25924 0.13936 0.76366 0.0
C292 C 0.66676 0.80143 0.19888 0.0
C293 C 0.6606 0.8242 0.23856 0.0
C294 C 0.54177 0.8633 0.22462 0.0
C295 C 0.54502 0.83131 0.18689 0.0
N296 N 0.60759 0.75814 0.14095 0.0
N297 N 0.59003 0.87089 0.29107 0.0
C298 C 0.60687 0.79769 0.17457 0.0
C299 C 0.59775 0.85439 0.25192 0.0
N300 N 0.73023 0.78446 0.18414 0.0
N301 N 0.48552 0.90264 0.23414 0.0
H302 H 0.62927 0.86455 0.31213 0.0
H303 H 0.54307 0.88584 0.30333 0.0
H304 H 0.44371 0.90956 0.21477 0.0
H305 H 0.483 0.93316 0.25951 0.0
H306 H 0.73873 0.77429 0.15422 0.0
H307 H 0.77559 0.78769 0.20097 0.0
H308 H 0.64887 0.72612 0.13347 0.0
H309 H 0.56476 0.75132 0.12252 0.0
C310 C 0.6557 0.04484 0.75835 0.0
C311 C 0.6431 0.11174 0.74304 0.0
C312 C 0.59676 0.06155 0.68176 0.0
C313 C 0.6222 0.99623 0.69396 0.0
N314 N 0.63786 0.9222 0.75023 0.0
N315 N 0.59944 0.18519 0.69102 0.0
C316 C 0.64031 0.98657 0.73436 0.0
C317 C 0.61199 0.12051 0.70517 0.0
N318 N 0.68469 0.03712 0.7952 0.0
N319 N 0.55402 0.06617 0.64943 0.0
H320 H 0.60827 0.22942 0.70782 0.0
H321 H 0.58453 0.19527 0.66186 0.0
H322 H 0.53477 0.02258 0.63519 0.0
H323 H 0.52969 0.11145 0.64043 0.0
H324 H 0.70265 0.99026 0.80613 0.0
H325 H 0.69477 0.07848 0.81409 0.0
H326 H 0.64563 0.9118 0.7802 0.0
H327 H 0.61863 0.88048 0.73418 0.0
C328 C 0.02528 0.31775 0.24329 0.0
C329 C 0.02074 0.27932 0.27874 0.0
C330 C 0.90202 0.24715 0.26156 0.0
C331 C 0.9089 0.27936 0.22419 0.0
N332 N 0.98258 0.33386 0.17623 0.0
N333 N 0.96107 0.19319 0.31673 0.0
C334 C 0.97199 0.31184 0.21413 0.0
C335 C 0.96088 0.23994 0.28653 0.0
N336 N 0.07954 0.36107 0.23787 0.0
N337 N 0.83874 0.22583 0.27406 0.0
H338 H 1.00382 0.18416 0.33505 0.0
H339 H 0.9214 0.15813 0.32087 0.0
H340 H 0.7936 0.23244 0.25735 0.0
H341 H 0.8299 0.20838 0.30274 0.0
H342 H 0.0818 0.39598 0.21458 0.0
H343 H 0.11955 0.36627 0.25857 0.0
H344 H 0.03004 0.35149 0.16633 0.0
H345 H 0.94618 0.32824 0.15352 0.0
C346 C 0.19347 0.46879 0.69902 0.0
C347 C 0.15556 0.41007 0.71108 0.0
C348 C 0.09025 0.48204 0.75738 0.0
C349 C 0.13881 0.53515 0.75221 0.0
N350 N 0.2087 0.59252 0.70425 0.0
N351 N 0.06693 0.36059 0.75204 0.0
C352 C 0.1825 0.53282 0.71877 0.0
C353 C 0.10236 0.41693 0.73962 0.0
N354 N 0.2401 0.46313 0.66894 0.0
N355 N 0.03156 0.49517 0.77832 0.0
H356 H 0.07544 0.31129 0.74089 0.0
H357 H 0.03308 0.36167 0.77588 0.0
H358 H 0.02032 0.54422 0.78927 0.0
H359 H 0.99092 0.46065 0.78046 0.0
H360 H 0.27583 0.50084 0.66212 0.0
H361 H 0.24449 0.41945 0.65113 0.0
H362 H 0.23838 0.59573 0.67878 0.0
H363 H 0.19273 0.64047 0.71475 0.0
C364 C 0.15961 0.71579 0.26772 0.0
C365 C 0.15949 0.70066 0.22664 0.0
C366 C 0.03627 0.67086 0.22905 0.0
C367 C 0.0373 0.6827 0.27049 0.0
N368 N 0.10118 0.70839 0.33071 0.0
N369 N 0.10093 0.65777 0.16814 0.0
C370 C 0.09943 0.7026 0.29026 0.0
C371 C 0.09879 0.67605 0.20733 0.0
N372 N 0.21694 0.74414 0.28501 0.0
N373 N 0.97504 0.65637 0.21039 0.0
H374 H 0.14401 0.66514 0.15039 0.0
H375 H 0.06139 0.6319 0.15347 0.0
H376 H 0.92912 0.64896 0.2257 0.0
H377 H 0.96849 0.65522 0.17974 0.0
H378 H 0.21778 0.765 0.31345 0.0
H379 H 0.26327 0.75085 0.27001 0.0
H380 H 0.14637 0.71454 0.34722 0.0
H381 H 0.0581 0.70234 0.34854 0.0
C382 C 0.72975 0.56165 0.78376 0.0
C383 C 0.76915 0.50348 0.77148 0.0
C384 C 0.80093 0.56356 0.71073 0.0
C385 C 0.76645 0.62367 0.7248 0.0
N386 N 0.71053 0.68425 0.77823 0.0
N387 N 0.85095 0.45207 0.7268 0.0
C388 C 0.7343 0.62391 0.76231 0.0
C389 C 0.80737 0.50526 0.73595 0.0
N390 N 0.68616 0.55688 0.81529 0.0
N391 N 0.82445 0.56085 0.67265 0.0
H392 H 0.85569 0.40821 0.74437 0.0
H393 H 0.88619 0.45377 0.70368 0.0
H394 H 0.81963 0.60171 0.65289 0.0
H395 H 0.84336 0.51611 0.6595 0.0
H396 H 0.65013 0.5948 0.82256 0.0
H397 H 0.68125 0.51245 0.83209 0.0
H398 H 0.6934 0.68881 0.80732 0.0
H399 H 0.7143 0.73137 0.76379 0.0
loop_
_geom_bond_atom_site_label_1
_geom_bond_atom_site_label_2
_geom_bond_distance
_geom_bond_site_symmetry_2
_ccdc_geom_bond_type
C0 O1 1.306 . S
C0 O3 1.160 . S
O1 C0 1.306 . S
O1 Cd2 2.228 . S
Cd2 O1 2.228 . S
Cd2 O6 2.273 . S
Cd2 O10 2.277 . S
O3 C0 1.160 . S
O3 Cd4 2.203 . S
Cd4 O3 2.203 . S
Cd4 O6 2.411 . S
Cd4 O7 2.333 . S
Cd4 O8 2.352 . S
Cd4 O12 2.277 . S
Cd4 O13 2.356 . S
C5 O10 1.209 . S
C5 O12 1.226 . S
O6 Cd2 2.273 . S
O6 Cd4 2.411 . S
O6 C9 1.320 . S
O7 Cd4 2.333 . S
O7 C9 1.214 . S
O8 Cd4 2.352 . S
O8 C11 1.258 . S
C9 O6 1.320 . S
C9 O7 1.214 . S
O10 Cd2 2.277 . S
O10 C5 1.209 . S
C11 O8 1.258 . S
C11 O13 1.282 . S
O12 Cd4 2.277 . S
O12 C5 1.226 . S
O13 Cd4 2.356 . S
O13 C11 1.282 . S
C14 O15 1.306 . S
C14 O17 1.160 . S
O15 C14 1.306 . S
O15 Cd16 2.228 . S
Cd16 O15 2.228 . S
Cd16 O20 2.273 . S
Cd16 O24 2.277 . S
O17 C14 1.160 . S
O17 Cd18 2.203 . S
Cd18 O17 2.203 . S
Cd18 O20 2.411 . S
Cd18 O21 2.333 . S
Cd18 O22 2.352 . S
Cd18 O26 2.277 . S
Cd18 O27 2.356 . S
C19 O24 1.209 . S
C19 O26 1.226 . S
O20 Cd16 2.273 . S
O20 Cd18 2.411 . S
O20 C23 1.320 . S
O21 Cd18 2.333 . S
O21 C23 1.214 . S
O22 Cd18 2.352 . S
O22 C25 1.258 . S
C23 O20 1.320 . S
C23 O21 1.214 . S
O24 Cd16 2.277 . S
O24 C19 1.209 . S
C25 O22 1.258 . S
C25 O27 1.282 . S
O26 Cd18 2.277 . S
O26 C19 1.226 . S
O27 Cd18 2.356 . S
O27 C25 1.282 . S
C28 O29 1.306 . S
C28 O31 1.160 . S
O29 C28 1.306 . S
O29 Cd30 2.228 . S
Cd30 O29 2.228 . S
Cd30 O34 2.273 . S
Cd30 O38 2.277 . S
O31 C28 1.160 . S
O31 Cd32 2.203 . S
Cd32 O31 2.203 . S
Cd32 O34 2.411 . S
Cd32 O35 2.333 . S
Cd32 O36 2.352 . S
Cd32 O40 2.277 . S
Cd32 O41 2.356 . S
C33 O38 1.209 . S
C33 O40 1.226 . S
O34 Cd30 2.273 . S
O34 Cd32 2.411 . S
O34 C37 1.320 . S
O35 Cd32 2.333 . S
O35 C37 1.214 . S
O36 Cd32 2.352 . S
O36 C39 1.258 . S
C37 O34 1.320 . S
C37 O35 1.214 . S
O38 Cd30 2.277 . S
O38 C33 1.209 . S
C39 O36 1.258 . S
C39 O41 1.282 . S
O40 Cd32 2.277 . S
O40 C33 1.226 . S
O41 Cd32 2.356 . S
O41 C39 1.282 . S
C42 O43 1.306 . S
C42 O45 1.160 . S
O43 C42 1.306 . S
O43 Cd44 2.228 . S
Cd44 O43 2.228 . S
Cd44 O48 2.273 . S
Cd44 O52 2.277 . S
O45 C42 1.160 . S
O45 Cd46 2.203 . S
Cd46 O45 2.203 . S
Cd46 O48 2.411 . S
Cd46 O49 2.333 . S
Cd46 O50 2.352 . S
Cd46 O54 2.277 . S
Cd46 O55 2.356 . S
C47 O52 1.209 . S
C47 O54 1.226 . S
O48 Cd44 2.273 . S
O48 Cd46 2.411 . S
O48 C51 1.320 . S
O49 Cd46 2.333 . S
O49 C51 1.214 . S
O50 Cd46 2.352 . S
O50 C53 1.258 . S
C51 O48 1.320 . S
C51 O49 1.214 . S
O52 Cd44 2.277 . S
O52 C47 1.209 . S
C53 O50 1.258 . S
C53 O55 1.282 . S
O54 Cd46 2.277 . S
O54 C47 1.226 . S
O55 Cd46 2.356 . S
O55 C53 1.282 . S
C56 O57 1.306 . S
C56 O59 1.160 . S
O57 C56 1.306 . S
O57 Cd58 2.228 . S
Cd58 O57 2.228 . S
Cd58 O62 2.273 . S
Cd58 O66 2.277 . S
O59 C56 1.160 . S
O59 Cd60 2.203 . S
Cd60 O59 2.203 . S
Cd60 O62 2.411 . S
Cd60 O63 2.333 . S
Cd60 O64 2.352 . S
Cd60 O68 2.277 . S
Cd60 O69 2.356 . S
C61 O66 1.209 . S
C61 O68 1.226 . S
O62 Cd58 2.273 . S
O62 Cd60 2.411 . S
O62 C65 1.320 . S
O63 Cd60 2.333 . S
O63 C65 1.214 . S
O64 Cd60 2.352 . S
O64 C67 1.258 . S
C65 O62 1.320 . S
C65 O63 1.214 . S
O66 Cd58 2.277 . S
O66 C61 1.209 . S
C67 O64 1.258 . S
C67 O69 1.282 . S
O68 Cd60 2.277 . S
O68 C61 1.226 . S
O69 Cd60 2.356 . S
O69 C67 1.282 . S
C70 O71 1.306 . S
C70 O73 1.160 . S
O71 C70 1.306 . S
O71 Cd72 2.228 . S
Cd72 O71 2.228 . S
Cd72 O76 2.273 . S
Cd72 O80 2.277 . S
O73 C70 1.160 . S
O73 Cd74 2.203 . S
Cd74 O73 2.203 . S
Cd74 O76 2.411 . S
Cd74 O77 2.333 . S
Cd74 O78 2.352 . S
Cd74 O82 2.277 . S
Cd74 O83 2.356 . S
C75 O80 1.209 . S
C75 O82 1.226 . S
O76 Cd72 2.273 . S
O76 Cd74 2.411 . S
O76 C79 1.320 . S
O77 Cd74 2.333 . S
O77 C79 1.214 . S
O78 Cd74 2.352 . S
O78 C81 1.258 . S
C79 O76 1.320 . S
C79 O77 1.214 . S
O80 Cd72 2.277 . S
O80 C75 1.209 . S
C81 O78 1.258 . S
C81 O83 1.282 . S
O82 Cd74 2.277 . S
O82 C75 1.226 . S
O83 Cd74 2.356 . S
O83 C81 1.282 . S
C84 O85 1.306 . S
C84 O87 1.160 . S
O85 C84 1.306 . S
O85 Cd86 2.228 . S
Cd86 O85 2.228 . S
Cd86 O90 2.273 . S
Cd86 O94 2.277 . S
O87 C84 1.160 . S
O87 Cd88 2.203 . S
Cd88 O87 2.203 . S
Cd88 O90 2.411 . S
Cd88 O91 2.333 . S
Cd88 O92 2.352 . S
Cd88 O96 2.277 . S
Cd88 O97 2.356 . S
C89 O94 1.209 . S
C89 O96 1.226 . S
O90 Cd86 2.273 . S
O90 Cd88 2.411 . S
O90 C93 1.320 . S
O91 Cd88 2.333 . S
O91 C93 1.214 . S
O92 Cd88 2.352 . S
O92 C95 1.258 . S
C93 O90 1.320 . S
C93 O91 1.214 . S
O94 Cd86 2.277 . S
O94 C89 1.209 . S
C95 O92 1.258 . S
C95 O97 1.282 . S
O96 Cd88 2.277 . S
O96 C89 1.226 . S
O97 Cd88 2.356 . S
O97 C95 1.282 . S
C98 O99 1.306 . S
C98 O101 1.160 . S
O99 C98 1.306 . S
O99 Cd100 2.228 . S
Cd100 O99 2.228 . S
Cd100 O104 2.273 . S
Cd100 O108 2.277 . S
O101 C98 1.160 . S
O101 Cd102 2.203 . S
Cd102 O101 2.203 . S
Cd102 O104 2.411 . S
Cd102 O105 2.333 . S
Cd102 O106 2.352 . S
Cd102 O110 2.277 . S
Cd102 O111 2.356 . S
C103 O108 1.209 . S
C103 O110 1.226 . S
O104 Cd100 2.273 . S
O104 Cd102 2.411 . S
O104 C107 1.320 . S
O105 Cd102 2.333 . S
O105 C107 1.214 . S
O106 Cd102 2.352 . S
O106 C109 1.258 . S
C107 O104 1.320 . S
C107 O105 1.214 . S
O108 Cd100 2.277 . S
O108 C103 1.209 . S
C109 O106 1.258 . S
C109 O111 1.282 . S
O110 Cd102 2.277 . S
O110 C103 1.226 . S
O111 Cd102 2.356 . S
O111 C109 1.282 . S
C112 C113 1.352 1_655 S
C112 C118 1.389 1_545 S
C112 N120 1.353 1_655 S
C113 C112 1.352 1_455 S
C113 C119 1.363 . S
C114 C115 1.352 1_455 S
C114 C119 1.389 1_565 S
C114 N121 1.353 1_455 S
C115 C114 1.352 1_655 S
C115 C118 1.363 . S
N116 C118 1.356 . S
N116 H128 0.984 1_565 S
N116 H129 0.985 . S
N117 C119 1.356 . S
N117 H122 0.984 . S
N117 H123 0.985 1_545 S
C118 C112 1.389 1_565 S
C118 C115 1.363 . S
C118 N116 1.356 . S
C119 C113 1.363 . S
C119 C114 1.389 1_545 S
C119 N117 1.356 . S
N120 C112 1.353 1_455 S
N120 H126 0.984 1_455 S
N120 H127 0.984 . S
N121 C114 1.353 1_655 S
N121 H124 0.984 . S
N121 H125 0.985 1_655 S
H122 N117 0.984 . S
H123 N117 0.985 1_565 S
H124 N121 0.984 . S
H125 N121 0.985 1_455 S
H126 N120 0.984 1_655 S
H127 N120 0.984 . S
H128 N116 0.984 1_545 S
H129 N116 0.985 . S
C130 C131 1.363 . S
C130 C136 1.379 . S
C130 N138 1.356 . S
C131 C130 1.363 . S
C131 C137 1.363 . S
C132 C133 1.363 . S
C132 C137 1.379 . S
C132 N139 1.356 . S
C133 C132 1.363 . S
C133 C136 1.363 . S
N134 C136 1.356 . S
N134 H146 0.984 . S
N134 H147 0.985 . S
N135 C137 1.356 . S
N135 H140 0.984 . S
N135 H141 0.985 . S
C136 C130 1.379 . S
C136 C133 1.363 . S
C136 N134 1.356 . S
C137 C131 1.363 . S
C137 C132 1.379 . S
C137 N135 1.356 . S
N138 C130 1.356 . S
N138 H144 0.984 . S
N138 H145 0.984 . S
N139 C132 1.356 . S
N139 H142 0.984 . S
N139 H143 0.985 . S
H140 N135 0.984 . S
H141 N135 0.985 . S
H142 N139 0.984 . S
H143 N139 0.985 . S
H144 N138 0.984 . S
H145 N138 0.984 . S
H146 N134 0.984 . S
H147 N134 0.985 . S
C148 C149 1.363 . S
C148 C154 1.379 . S
C148 N156 1.356 . S
C149 C148 1.363 . S
C149 C155 1.363 . S
C150 C151 1.363 . S
C150 C155 1.379 . S
C150 N157 1.356 . S
C151 C150 1.363 . S
C151 C154 1.363 . S
N152 C154 1.356 . S
N152 H164 0.984 . S
N152 H165 0.985 . S
N153 C155 1.356 . S
N153 H158 0.984 . S
N153 H159 0.985 . S
C154 C148 1.379 . S
C154 C151 1.363 . S
C154 N152 1.356 . S
C155 C149 1.363 . S
C155 C150 1.379 . S
C155 N153 1.356 . S
N156 C148 1.356 . S
N156 H162 0.984 . S
N156 H163 0.984 . S
N157 C150 1.356 . S
N157 H160 0.984 . S
N157 H161 0.985 . S
H158 N153 0.984 . S
H159 N153 0.985 . S
H160 N157 0.984 . S
H161 N157 0.985 . S
H162 N156 0.984 . S
H163 N156 0.984 . S
H164 N152 0.984 . S
H165 N152 0.985 . S
C166 C167 1.363 . S
C166 C172 1.389 1_455 S
C166 N174 1.356 . S
C167 C166 1.363 . S
C167 C173 1.352 1_545 S
C168 C169 1.363 . S
C168 C173 1.389 1_655 S
C168 N175 1.356 . S
C169 C168 1.363 . S
C169 C172 1.352 1_565 S
N170 C172 1.353 1_565 S
N170 H182 0.984 1_565 S
N170 H183 0.985 . S
N171 C173 1.353 1_545 S
N171 H176 0.984 . S
N171 H177 0.985 1_545 S
C172 C166 1.389 1_655 S
C172 C169 1.352 1_545 S
C172 N170 1.353 1_545 S
C173 C167 1.352 1_565 S
C173 C168 1.389 1_455 S
C173 N171 1.353 1_565 S
N174 C166 1.356 . S
N174 H180 0.984 1_455 S
N174 H181 0.984 . S
N175 C168 1.356 . S
N175 H178 0.984 . S
N175 H179 0.985 1_655 S
H176 N171 0.984 . S
H177 N171 0.985 1_565 S
H178 N175 0.984 . S
H179 N175 0.985 1_455 S
H180 N174 0.984 1_655 S
H181 N174 0.984 . S
H182 N170 0.984 1_545 S
H183 N170 0.985 . S
C184 C185 1.363 . S
C184 C190 1.379 . S
C184 N192 1.356 . S
C185 C184 1.363 . S
C185 C191 1.363 . S
C186 C187 1.363 . S
C186 C191 1.379 . S
C186 N193 1.356 . S
C187 C186 1.363 . S
C187 C190 1.363 . S
N188 C190 1.356 . S
N188 H200 0.984 . S
N188 H201 0.985 . S
N189 C191 1.356 . S
N189 H194 0.984 . S
N189 H195 0.985 . S
C190 C184 1.379 . S
C190 C187 1.363 . S
C190 N188 1.356 . S
C191 C185 1.363 . S
C191 C186 1.379 . S
C191 N189 1.356 . S
N192 C184 1.356 . S
N192 H198 0.984 . S
N192 H199 0.984 . S
N193 C186 1.356 . S
N193 H196 0.984 . S
N193 H197 0.985 . S
H194 N189 0.984 . S
H195 N189 0.985 . S
H196 N193 0.984 . S
H197 N193 0.985 . S
H198 N192 0.984 . S
H199 N192 0.984 . S
H200 N188 0.984 . S
H201 N188 0.985 . S
C202 C203 1.363 . S
C202 C208 1.379 1_556 S
C202 N210 1.356 . S
C203 C202 1.363 . S
C203 C209 1.363 . S
C204 C205 1.363 . S
C204 C209 1.379 1_554 S
C204 N211 1.356 . S
C205 C204 1.363 . S
C205 C208 1.363 . S
N206 C208 1.356 . S
N206 H218 0.984 . S
N206 H219 0.985 . S
N207 C209 1.356 . S
N207 H212 0.984 . S
N207 H213 0.985 . S
C208 C202 1.379 1_554 S
C208 C205 1.363 . S
C208 N206 1.356 . S
C209 C203 1.363 . S
C209 C204 1.379 1_556 S
C209 N207 1.356 . S
N210 C202 1.356 . S
N210 H216 0.984 . S
N210 H217 0.984 . S
N211 C204 1.356 . S
N211 H214 0.984 . S
N211 H215 0.985 . S
H212 N207 0.984 . S
H213 N207 0.985 . S
H214 N211 0.984 . S
H215 N211 0.985 . S
H216 N210 0.984 . S
H217 N210 0.984 . S
H218 N206 0.984 . S
H219 N206 0.985 . S
C220 C221 1.363 . S
C220 C226 1.379 . S
C220 N228 1.356 . S
C221 C220 1.363 . S
C221 C227 1.363 . S
C222 C223 1.363 . S
C222 C227 1.379 . S
C222 N229 1.356 . S
C223 C222 1.363 . S
C223 C226 1.363 . S
N224 C226 1.356 . S
N224 H236 0.984 . S
N224 H237 0.985 . S
N225 C227 1.356 . S
N225 H230 0.984 . S
N225 H231 0.985 . S
C226 C220 1.379 . S
C226 C223 1.363 . S
C226 N224 1.356 . S
C227 C221 1.363 . S
C227 C222 1.379 . S
C227 N225 1.356 . S
N228 C220 1.356 . S
N228 H234 0.984 . S
N228 H235 0.984 . S
N229 C222 1.356 . S
N229 H232 0.984 . S
N229 H233 0.985 . S
H230 N225 0.984 . S
H231 N225 0.985 . S
H232 N229 0.984 . S
H233 N229 0.985 . S
H234 N228 0.984 . S
H235 N228 0.984 . S
H236 N224 0.984 . S
H237 N224 0.985 . S
C238 C239 1.363 . S
C238 C244 1.379 1_556 S
C238 N246 1.356 . S
C239 C238 1.363 . S
C239 C245 1.363 . S
C240 C241 1.363 . S
C240 C245 1.379 1_554 S
C240 N247 1.356 . S
C241 C240 1.363 . S
C241 C244 1.363 . S
N242 C244 1.356 . S
N242 H254 0.984 . S
N242 H255 0.985 . S
N243 C245 1.356 . S
N243 H248 0.984 . S
N243 H249 0.985 . S
C244 C238 1.379 1_554 S
C244 C241 1.363 . S
C244 N242 1.356 . S
C245 C239 1.363 . S
C245 C240 1.379 1_556 S
C245 N243 1.356 . S
N246 C238 1.356 . S
N246 H252 0.984 . S
N246 H253 0.984 . S
N247 C240 1.356 . S
N247 H250 0.984 . S
N247 H251 0.985 . S
H248 N243 0.984 . S
H249 N243 0.985 . S
H250 N247 0.984 . S
H251 N247 0.985 . S
H252 N246 0.984 . S
H253 N246 0.984 . S
H254 N242 0.984 . S
H255 N242 0.985 . S
C256 C257 1.363 . S
C256 C262 1.379 . S
C256 N264 1.356 . S
C257 C256 1.363 . S
C257 C263 1.363 . S
C258 C259 1.363 . S
C258 C263 1.379 . S
C258 N265 1.356 . S
C259 C258 1.363 . S
C259 C262 1.363 . S
N260 C262 1.356 . S
N260 H272 0.984 . S
N260 H273 0.985 . S
N261 C263 1.356 . S
N261 H266 0.984 . S
N261 H267 0.985 . S
C262 C256 1.379 . S
C262 C259 1.363 . S
C262 N260 1.356 . S
C263 C257 1.363 . S
C263 C258 1.379 . S
C263 N261 1.356 . S
N264 C256 1.356 . S
N264 H270 0.984 . S
N264 H271 0.984 . S
N265 C258 1.356 . S
N265 H268 0.984 . S
N265 H269 0.985 . S
H266 N261 0.984 . S
H267 N261 0.985 . S
H268 N265 0.984 . S
H269 N265 0.985 . S
H270 N264 0.984 . S
H271 N264 0.984 . S
H272 N260 0.984 . S
H273 N260 0.985 . S
C274 C275 1.363 . S
C274 C280 1.379 . S
C274 N282 1.356 . S
C275 C274 1.363 . S
C275 C281 1.363 . S
C276 C277 1.363 . S
C276 C281 1.379 . S
C276 N283 1.356 . S
C277 C276 1.363 . S
C277 C280 1.363 . S
N278 C280 1.356 1_545 S
N278 H290 0.984 . S
N278 H291 0.985 . S
N279 C281 1.356 . S
N279 H284 0.984 . S
N279 H285 0.985 . S
C280 C274 1.379 . S
C280 C277 1.363 . S
C280 N278 1.356 1_565 S
C281 C275 1.363 . S
C281 C276 1.379 . S
C281 N279 1.356 . S
N282 C274 1.356 . S
N282 H288 0.984 . S
N282 H289 0.984 . S
N283 C276 1.356 . S
N283 H286 0.984 . S
N283 H287 0.985 . S
H284 N279 0.984 . S
H285 N279 0.985 . S
H286 N283 0.984 . S
H287 N283 0.985 . S
H288 N282 0.984 . S
H289 N282 0.984 . S
H290 N278 0.984 . S
H291 N278 0.985 . S
C292 C293 1.363 . S
C292 C298 1.379 . S
C292 N300 1.356 . S
C293 C292 1.363 . S
C293 C299 1.363 . S
C294 C295 1.363 . S
C294 C299 1.379 . S
C294 N301 1.356 . S
C295 C294 1.363 . S
C295 C298 1.363 . S
N296 C298 1.356 . S
N296 H308 0.984 . S
N296 H309 0.985 . S
N297 C299 1.356 . S
N297 H302 0.984 . S
N297 H303 0.985 . S
C298 C292 1.379 . S
C298 C295 1.363 . S
C298 N296 1.356 . S
C299 C293 1.363 . S
C299 C294 1.379 . S
C299 N297 1.356 . S
N300 C292 1.356 . S
N300 H306 0.984 . S
N300 H307 0.984 . S
N301 C294 1.356 . S
N301 H304 0.984 . S
N301 H305 0.985 . S
H302 N297 0.984 . S
H303 N297 0.985 . S
H304 N301 0.984 . S
H305 N301 0.985 . S
H306 N300 0.984 . S
H307 N300 0.984 . S
H308 N296 0.984 . S
H309 N296 0.985 . S
C310 C311 1.363 . S
C310 C316 1.379 . S
C310 N318 1.356 . S
C311 C310 1.363 . S
C311 C317 1.363 . S
C312 C313 1.363 . S
C312 C317 1.379 . S
C312 N319 1.356 . S
C313 C312 1.363 . S
C313 C316 1.363 . S
N314 C316 1.356 1_565 S
N314 H326 0.984 . S
N314 H327 0.985 . S
N315 C317 1.356 . S
N315 H320 0.984 . S
N315 H321 0.985 . S
C316 C310 1.379 . S
C316 C313 1.363 . S
C316 N314 1.356 1_545 S
C317 C311 1.363 . S
C317 C312 1.379 . S
C317 N315 1.356 . S
N318 C310 1.356 . S
N318 H324 0.984 . S
N318 H325 0.984 . S
N319 C312 1.356 . S
N319 H322 0.984 . S
N319 H323 0.985 . S
H320 N315 0.984 . S
H321 N315 0.985 . S
H322 N319 0.984 . S
H323 N319 0.985 . S
H324 N318 0.984 . S
H325 N318 0.984 . S
H326 N314 0.984 . S
H327 N314 0.985 . S
C328 C329 1.363 . S
C328 C334 1.379 . S
C328 N336 1.356 . S
C329 C328 1.363 . S
C329 C335 1.363 . S
C330 C331 1.363 . S
C330 C335 1.379 . S
C330 N337 1.356 . S
C331 C330 1.363 . S
C331 C334 1.363 . S
N332 C334 1.356 . S
N332 H344 0.984 . S
N332 H345 0.985 . S
N333 C335 1.356 . S
N333 H338 0.974 1_655 S
N333 H339 0.985 . S
C334 C328 1.379 . S
C334 C331 1.363 . S
C334 N332 1.356 . S
C335 C329 1.363 . S
C335 C330 1.379 . S
C335 N333 1.356 . S
N336 C328 1.356 . S
N336 H342 0.984 . S
N336 H343 0.984 1_655 S
N337 C330 1.356 . S
N337 H340 0.984 . S
N337 H341 0.985 . S
H338 N333 0.974 1_455 S
H339 N333 0.985 . S
H340 N337 0.984 . S
H341 N337 0.985 . S
H342 N336 0.984 . S
H343 N336 0.984 1_455 S
H344 N332 0.984 . S
H345 N332 0.985 . S
C346 C347 1.363 . S
C346 C352 1.379 . S
C346 N354 1.356 . S
C347 C346 1.363 . S
C347 C353 1.363 . S
C348 C349 1.363 . S
C348 C353 1.379 . S
C348 N355 1.356 . S
C349 C348 1.363 . S
C349 C352 1.363 . S
N350 C352 1.356 . S
N350 H362 0.984 . S
N350 H363 0.985 . S
N351 C353 1.356 . S
N351 H356 0.984 . S
N351 H357 0.985 . S
C352 C346 1.379 . S
C352 C349 1.363 . S
C352 N350 1.356 . S
C353 C347 1.363 . S
C353 C348 1.379 . S
C353 N351 1.356 . S
N354 C346 1.356 . S
N354 H360 0.984 . S
N354 H361 0.984 . S
N355 C348 1.356 . S
N355 H358 0.984 . S
N355 H359 0.985 . S
H356 N351 0.984 . S
H357 N351 0.985 . S
H358 N355 0.984 . S
H359 N355 0.985 . S
H360 N354 0.984 . S
H361 N354 0.984 . S
H362 N350 0.984 . S
H363 N350 0.985 . S
C364 C365 1.363 . S
C364 C370 1.379 . S
C364 N372 1.356 . S
C365 C364 1.363 . S
C365 C371 1.363 . S
C366 C367 1.363 . S
C366 C371 1.379 . S
C366 N373 1.356 . S
C367 C366 1.363 . S
C367 C370 1.363 . S
N368 C370 1.356 . S
N368 H380 0.984 . S
N368 H381 0.985 . S
N369 C371 1.356 . S
N369 H374 0.984 . S
N369 H375 0.985 . S
C370 C364 1.379 . S
C370 C367 1.363 . S
C370 N368 1.356 . S
C371 C365 1.363 . S
C371 C366 1.379 . S
C371 N369 1.356 . S
N372 C364 1.356 . S
N372 H378 0.984 . S
N372 H379 0.984 . S
N373 C366 1.356 . S
N373 H376 0.984 1_455 S
N373 H377 0.985 . S
H374 N369 0.984 . S
H375 N369 0.985 . S
H376 N373 0.984 1_655 S
H377 N373 0.985 . S
H378 N372 0.984 . S
H379 N372 0.984 . S
H380 N368 0.984 . S
H381 N368 0.985 . S
C382 C383 1.363 . S
C382 C388 1.379 . S
C382 N390 1.356 . S
C383 C382 1.363 . S
C383 C389 1.363 . S
C384 C385 1.363 . S
C384 C389 1.379 . S
C384 N391 1.356 . S
C385 C384 1.363 . S
C385 C388 1.363 . S
N386 C388 1.356 . S
N386 H398 0.984 . S
N386 H399 0.985 . S
N387 C389 1.356 . S
N387 H392 0.984 . S
N387 H393 0.985 . S
C388 C382 1.379 . S
C388 C385 1.363 . S
C388 N386 1.356 . S
C389 C383 1.363 . S
C389 C384 1.379 . S
C389 N387 1.356 . S
N390 C382 1.356 . S
N390 H396 0.984 . S
N390 H397 0.984 . S
N391 C384 1.356 . S
N391 H394 0.984 . S
N391 H395 0.985 . S
H392 N387 0.984 . S
H393 N387 0.985 . S
H394 N391 0.984 . S
H395 N391 0.985 . S
H396 N390 0.984 . S
H397 N390 0.984 . S
H398 N386 0.984 . S
H399 N386 0.985 . S
C113 C5 0.779 . S
C115 C33 0.779 . S
C131 C19 0.779 . S
C133 C47 0.779 . S
C149 C61 0.779 . S
C151 C89 0.779 . S
C167 C75 0.779 . S
C169 C103 0.779 . S
C185 C9 1.449 . S
C187 C79 1.449 . S
C203 C23 1.449 . S
C205 C93 1.449 . S
C221 C107 1.449 . S
C223 C37 1.449 . S
C239 C51 1.449 . S
C241 C65 1.449 . S
C257 C56 1.710 . S
C259 C11 1.770 . S
C275 C25 1.770 . S
C277 C70 1.710 1_565 S
C293 C39 1.770 . S
C295 C84 1.710 . S
C311 C53 1.770 . S
C313 C98 1.710 1_545 S
C329 C0 1.710 1_655 S
C331 C67 1.770 . S
C347 C81 1.770 . S
C349 C14 1.710 . S
C365 C95 1.770 . S
C367 C28 1.710 1_455 S
C383 C42 1.710 . S
C385 C109 1.770 . S
