# Generated by pormake.
# Topology ana, (4)-cn, num edge types: 1
# Building blocks:
#     Node 0, Type 0, BuildingBlock: QUQFOY_clean_sbu_1, # of connection points: 4
#     Node 1, Type 0, BuildingBlock: QUQFOY_clean_sbu_1, # of connection points: 4
#     Node 2, Type 0, BuildingBlock: QUQFOY_clean_sbu_1, # of connection points: 4
#     Node 3, Type 0, BuildingBlock: QUQFOY_clean_sbu_1, # of connection points: 4
#     Node 4, Type 0, BuildingBlock: QUQFOY_clean_sbu_1, # of connection points: 4
#     Node 5, Type 0, BuildingBlock: QUQFOY_clean_sbu_1, # of connection points: 4
#     Node 6, Type 0, BuildingBlock: QUQFOY_clean_sbu_1, # of connection points: 4
#     Node 7, Type 0, BuildingBlock: QUQFOY_clean_sbu_1, # of connection points: 4
#     Node 8, Type 0, BuildingBlock: QUQFOY_clean_sbu_1, # of connection points: 4
#     Node 9, Type 0, BuildingBlock: QUQFOY_clean_sbu_1, # of connection points: 4
#     Node 10, Type 0, BuildingBlock: QUQFOY_clean_sbu_1, # of connection points: 4
#     Node 11, Type 0, BuildingBlock: QUQFOY_clean_sbu_1, # of connection points: 4
#     Node 12, Type 0, BuildingBlock: QUQFOY_clean_sbu_1, # of connection points: 4
#     Node 13, Type 0, BuildingBlock: QUQFOY_clean_sbu_1, # of connection points: 4
#     Node 14, Type 0, BuildingBlock: QUQFOY_clean_sbu_1, # of connection points: 4
#     Node 15, Type 0, BuildingBlock: QUQFOY_clean_sbu_1, # of connection points: 4
#     Node 16, Type 0, BuildingBlock: QUQFOY_clean_sbu_1, # of connection points: 4
#     Node 17, Type 0, BuildingBlock: QUQFOY_clean_sbu_1, # of connection points: 4
#     Node 18, Type 0, BuildingBlock: QUQFOY_clean_sbu_1, # of connection points: 4
#     Node 19, Type 0, BuildingBlock: QUQFOY_clean_sbu_1, # of connection points: 4
#     Node 20, Type 0, BuildingBlock: QUQFOY_clean_sbu_1, # of connection points: 4
#     Node 21, Type 0, BuildingBlock: QUQFOY_clean_sbu_1, # of connection points: 4
#     Node 22, Type 0, BuildingBlock: QUQFOY_clean_sbu_1, # of connection points: 4
#     Node 23, Type 0, BuildingBlock: QUQFOY_clean_sbu_1, # of connection points: 4
#     Node 24, Type 0, BuildingBlock: QUQFOY_clean_sbu_1, # of connection points: 4
#     Node 25, Type 0, BuildingBlock: QUQFOY_clean_sbu_1, # of connection points: 4
#     Node 26, Type 0, BuildingBlock: QUQFOY_clean_sbu_1, # of connection points: 4
#     Node 27, Type 0, BuildingBlock: QUQFOY_clean_sbu_1, # of connection points: 4
#     Node 28, Type 0, BuildingBlock: QUQFOY_clean_sbu_1, # of connection points: 4
#     Node 29, Type 0, BuildingBlock: QUQFOY_clean_sbu_1, # of connection points: 4
#     Node 30, Type 0, BuildingBlock: QUQFOY_clean_sbu_1, # of connection points: 4
#     Node 31, Type 0, BuildingBlock: QUQFOY_clean_sbu_1, # of connection points: 4
#     Node 32, Type 0, BuildingBlock: QUQFOY_clean_sbu_1, # of connection points: 4
#     Node 33, Type 0, BuildingBlock: QUQFOY_clean_sbu_1, # of connection points: 4
#     Node 34, Type 0, BuildingBlock: QUQFOY_clean_sbu_1, # of connection points: 4
#     Node 35, Type 0, BuildingBlock: QUQFOY_clean_sbu_1, # of connection points: 4
#     Node 36, Type 0, BuildingBlock: QUQFOY_clean_sbu_1, # of connection points: 4
#     Node 37, Type 0, BuildingBlock: QUQFOY_clean_sbu_1, # of connection points: 4
#     Node 38, Type 0, BuildingBlock: QUQFOY_clean_sbu_1, # of connection points: 4
#     Node 39, Type 0, BuildingBlock: QUQFOY_clean_sbu_1, # of connection points: 4
#     Node 40, Type 0, BuildingBlock: QUQFOY_clean_sbu_1, # of connection points: 4
#     Node 41, Type 0, BuildingBlock: QUQFOY_clean_sbu_1, # of connection points: 4
#     Node 42, Type 0, BuildingBlock: QUQFOY_clean_sbu_1, # of connection points: 4
#     Node 43, Type 0, BuildingBlock: QUQFOY_clean_sbu_1, # of connection points: 4
#     Node 44, Type 0, BuildingBlock: QUQFOY_clean_sbu_1, # of connection points: 4
#     Node 45, Type 0, BuildingBlock: QUQFOY_clean_sbu_1, # of connection points: 4
#     Node 46, Type 0, BuildingBlock: QUQFOY_clean_sbu_1, # of connection points: 4
#     Node 47, Type 0, BuildingBlock: QUQFOY_clean_sbu_1, # of connection points: 4
#     Edge 48, Type (0, 0), BuildingBlock: XUDNAN_clean_linker_2, # of connection points: 2
#     Edge 49, Type (0, 0), BuildingBlock: XUDNAN_clean_linker_2, # of connection points: 2
#     Edge 50, Type (0, 0), BuildingBlock: XUDNAN_clean_linker_2, # of connection points: 2
#     Edge 51, Type (0, 0), BuildingBlock: XUDNAN_clean_linker_2, # of connection points: 2
#     Edge 52, Type (0, 0), BuildingBlock: XUDNAN_clean_linker_2, # of connection points: 2
#     Edge 53, Type (0, 0), BuildingBlock: XUDNAN_clean_linker_2, # of connection points: 2
#     Edge 54, Type (0, 0), BuildingBlock: XUDNAN_clean_linker_2, # of connection points: 2
#     Edge 55, Type (0, 0), BuildingBlock: XUDNAN_clean_linker_2, # of connection points: 2
#     Edge 56, Type (0, 0), BuildingBlock: XUDNAN_clean_linker_2, # of connection points: 2
#     Edge 57, Type (0, 0), BuildingBlock: XUDNAN_clean_linker_2, # of connection points: 2
#     Edge 58, Type (0, 0), BuildingBlock: XUDNAN_clean_linker_2, # of connection points: 2
#     Edge 59, Type (0, 0), BuildingBlock: XUDNAN_clean_linker_2, # of connection points: 2
#     Edge 60, Type (0, 0), BuildingBlock: XUDNAN_clean_linker_2, # of connection points: 2
#     Edge 61, Type (0, 0), BuildingBlock: XUDNAN_clean_linker_2, # of connection points: 2
#     Edge 62, Type (0, 0), BuildingBlock: XUDNAN_clean_linker_2, # of connection points: 2
#     Edge 63, Type (0, 0), BuildingBlock: XUDNAN_clean_linker_2, # of connection points: 2
#     Edge 64, Type (0, 0), BuildingBlock: XUDNAN_clean_linker_2, # of connection points: 2
#     Edge 65, Type (0, 0), BuildingBlock: XUDNAN_clean_linker_2, # of connection points: 2
#     Edge 66, Type (0, 0), BuildingBlock: XUDNAN_clean_linker_2, # of connection points: 2
#     Edge 67, Type (0, 0), BuildingBlock: XUDNAN_clean_linker_2, # of connection points: 2
#     Edge 68, Type (0, 0), BuildingBlock: XUDNAN_clean_linker_2, # of connection points: 2
#     Edge 69, Type (0, 0), BuildingBlock: XUDNAN_clean_linker_2, # of connection points: 2
#     Edge 70, Type (0, 0), BuildingBlock: XUDNAN_clean_linker_2, # of connection points: 2
#     Edge 71, Type (0, 0), BuildingBlock: XUDNAN_clean_linker_2, # of connection points: 2
#     Edge 72, Type (0, 0), BuildingBlock: XUDNAN_clean_linker_2, # of connection points: 2
#     Edge 73, Type (0, 0), BuildingBlock: XUDNAN_clean_linker_2, # of connection points: 2
#     Edge 74, Type (0, 0), BuildingBlock: XUDNAN_clean_linker_2, # of connection points: 2
#     Edge 75, Type (0, 0), BuildingBlock: XUDNAN_clean_linker_2, # of connection points: 2
#     Edge 76, Type (0, 0), BuildingBlock: XUDNAN_clean_linker_2, # of connection points: 2
#     Edge 77, Type (0, 0), BuildingBlock: XUDNAN_clean_linker_2, # of connection points: 2
#     Edge 78, Type (0, 0), BuildingBlock: XUDNAN_clean_linker_2, # of connection points: 2
#     Edge 79, Type (0, 0), BuildingBlock: XUDNAN_clean_linker_2, # of connection points: 2
#     Edge 80, Type (0, 0), BuildingBlock: XUDNAN_clean_linker_2, # of connection points: 2
#     Edge 81, Type (0, 0), BuildingBlock: XUDNAN_clean_linker_2, # of connection points: 2
#     Edge 82, Type (0, 0), BuildingBlock: XUDNAN_clean_linker_2, # of connection points: 2
#     Edge 83, Type (0, 0), BuildingBlock: XUDNAN_clean_linker_2, # of connection points: 2
#     Edge 84, Type (0, 0), BuildingBlock: XUDNAN_clean_linker_2, # of connection points: 2
#     Edge 85, Type (0, 0), BuildingBlock: XUDNAN_clean_linker_2, # of connection points: 2
#     Edge 86, Type (0, 0), BuildingBlock: XUDNAN_clean_linker_2, # of connection points: 2
#     Edge 87, Type (0, 0), BuildingBlock: XUDNAN_clean_linker_2, # of connection points: 2
#     Edge 88, Type (0, 0), BuildingBlock: XUDNAN_clean_linker_2, # of connection points: 2
#     Edge 89, Type (0, 0), BuildingBlock: XUDNAN_clean_linker_2, # of connection points: 2
#     Edge 90, Type (0, 0), BuildingBlock: XUDNAN_clean_linker_2, # of connection points: 2
#     Edge 91, Type (0, 0), BuildingBlock: XUDNAN_clean_linker_2, # of connection points: 2
#     Edge 92, Type (0, 0), BuildingBlock: XUDNAN_clean_linker_2, # of connection points: 2
#     Edge 93, Type (0, 0), BuildingBlock: XUDNAN_clean_linker_2, # of connection points: 2
#     Edge 94, Type (0, 0), BuildingBlock: XUDNAN_clean_linker_2, # of connection points: 2
#     Edge 95, Type (0, 0), BuildingBlock: XUDNAN_clean_linker_2, # of connection points: 2
#     Edge 96, Type (0, 0), BuildingBlock: XUDNAN_clean_linker_2, # of connection points: 2
#     Edge 97, Type (0, 0), BuildingBlock: XUDNAN_clean_linker_2, # of connection points: 2
#     Edge 98, Type (0, 0), BuildingBlock: XUDNAN_clean_linker_2, # of connection points: 2
#     Edge 99, Type (0, 0), BuildingBlock: XUDNAN_clean_linker_2, # of connection points: 2
#     Edge 100, Type (0, 0), BuildingBlock: XUDNAN_clean_linker_2, # of connection points: 2
#     Edge 101, Type (0, 0), BuildingBlock: XUDNAN_clean_linker_2, # of connection points: 2
#     Edge 102, Type (0, 0), BuildingBlock: XUDNAN_clean_linker_2, # of connection points: 2
#     Edge 103, Type (0, 0), BuildingBlock: XUDNAN_clean_linker_2, # of connection points: 2
#     Edge 104, Type (0, 0), BuildingBlock: XUDNAN_clean_linker_2, # of connection points: 2
#     Edge 105, Type (0, 0), BuildingBlock: XUDNAN_clean_linker_2, # of connection points: 2
#     Edge 106, Type (0, 0), BuildingBlock: XUDNAN_clean_linker_2, # of connection points: 2
#     Edge 107, Type (0, 0), BuildingBlock: XUDNAN_clean_linker_2, # of connection points: 2
#     Edge 108, Type (0, 0), BuildingBlock: XUDNAN_clean_linker_2, # of connection points: 2
#     Edge 109, Type (0, 0), BuildingBlock: XUDNAN_clean_linker_2, # of connection points: 2
#     Edge 110, Type (0, 0), BuildingBlock: XUDNAN_clean_linker_2, # of connection points: 2
#     Edge 111, Type (0, 0), BuildingBlock: XUDNAN_clean_linker_2, # of connection points: 2
#     Edge 112, Type (0, 0), BuildingBlock: XUDNAN_clean_linker_2, # of connection points: 2
#     Edge 113, Type (0, 0), BuildingBlock: XUDNAN_clean_linker_2, # of connection points: 2
#     Edge 114, Type (0, 0), BuildingBlock: XUDNAN_clean_linker_2, # of connection points: 2
#     Edge 115, Type (0, 0), BuildingBlock: XUDNAN_clean_linker_2, # of connection points: 2
#     Edge 116, Type (0, 0), BuildingBlock: XUDNAN_clean_linker_2, # of connection points: 2
#     Edge 117, Type (0, 0), BuildingBlock: XUDNAN_clean_linker_2, # of connection points: 2
#     Edge 118, Type (0, 0), BuildingBlock: XUDNAN_clean_linker_2, # of connection points: 2
#     Edge 119, Type (0, 0), BuildingBlock: XUDNAN_clean_linker_2, # of connection points: 2
#     Edge 120, Type (0, 0), BuildingBlock: XUDNAN_clean_linker_2, # of connection points: 2
#     Edge 121, Type (0, 0), BuildingBlock: XUDNAN_clean_linker_2, # of connection points: 2
#     Edge 122, Type (0, 0), BuildingBlock: XUDNAN_clean_linker_2, # of connection points: 2
#     Edge 123, Type (0, 0), BuildingBlock: XUDNAN_clean_linker_2, # of connection points: 2
#     Edge 124, Type (0, 0), BuildingBlock: XUDNAN_clean_linker_2, # of connection points: 2
#     Edge 125, Type (0, 0), BuildingBlock: XUDNAN_clean_linker_2, # of connection points: 2
#     Edge 126, Type (0, 0), BuildingBlock: XUDNAN_clean_linker_2, # of connection points: 2
#     Edge 127, Type (0, 0), BuildingBlock: XUDNAN_clean_linker_2, # of connection points: 2
#     Edge 128, Type (0, 0), BuildingBlock: XUDNAN_clean_linker_2, # of connection points: 2
#     Edge 129, Type (0, 0), BuildingBlock: XUDNAN_clean_linker_2, # of connection points: 2
#     Edge 130, Type (0, 0), BuildingBlock: XUDNAN_clean_linker_2, # of connection points: 2
#     Edge 131, Type (0, 0), BuildingBlock: XUDNAN_clean_linker_2, # of connection points: 2
#     Edge 132, Type (0, 0), BuildingBlock: XUDNAN_clean_linker_2, # of connection points: 2
#     Edge 133, Type (0, 0), BuildingBlock: XUDNAN_clean_linker_2, # of connection points: 2
#     Edge 134, Type (0, 0), BuildingBlock: XUDNAN_clean_linker_2, # of connection points: 2
#     Edge 135, Type (0, 0), BuildingBlock: XUDNAN_clean_linker_2, # of connection points: 2
#     Edge 136, Type (0, 0), BuildingBlock: XUDNAN_clean_linker_2, # of connection points: 2
#     Edge 137, Type (0, 0), BuildingBlock: XUDNAN_clean_linker_2, # of connection points: 2
#     Edge 138, Type (0, 0), BuildingBlock: XUDNAN_clean_linker_2, # of connection points: 2
#     Edge 139, Type (0, 0), BuildingBlock: XUDNAN_clean_linker_2, # of connection points: 2
#     Edge 140, Type (0, 0), BuildingBlock: XUDNAN_clean_linker_2, # of connection points: 2
#     Edge 141, Type (0, 0), BuildingBlock: XUDNAN_clean_linker_2, # of connection points: 2
#     Edge 142, Type (0, 0), BuildingBlock: XUDNAN_clean_linker_2, # of connection points: 2
#     Edge 143, Type (0, 0), BuildingBlock: XUDNAN_clean_linker_2, # of connection points: 2
# Relax obj value: 0.112
# Max RMSD: 0.187
# Mean RMSD: 0.142
data_MOF--net-ana--node1-QUQFOY_clean_sbu_1--edge1-XUDNAN_clean_linker_2
_symmetry_space_group_name_H-M    P1
_symmetry_Int_Tables_number       1
_symmetry_cell_setting            triclinic
loop_
_symmetry_equiv_pos_as_xyz
'x, y, z'
_cell_length_a     66.788268
_cell_length_b     68.703636
_cell_length_c     67.438428
_cell_angle_alpha  91.180172
_cell_angle_beta   91.870528
_cell_angle_gamma 95.761813
loop_
_atom_site_label
_atom_site_type_symbol
_atom_site_fract_x
_atom_site_fract_y
_atom_site_fract_z
_atom_type_partial_charge
O0 O 0.1354 0.12455 0.43569 0.0
Cd1 Cd 0.13612 0.13115 0.40594 0.0
Cd2 Cd 0.12352 0.16467 0.42099 0.0
O3 O 0.13074 0.15355 0.4483 0.0
O4 O 0.15292 0.11153 0.39451 0.0
O5 O 0.1619 0.1434 0.39468 0.0
C6 C 0.1661 0.12583 0.3906 0.0
C7 C 0.1326 0.1971 0.41237 0.0
C8 C 0.1338 0.13575 0.45069 0.0
C9 C 0.09437 0.13867 0.39445 0.0
O10 O 0.09706 0.15264 0.40721 0.0
O11 O 0.10881 0.12875 0.39019 0.0
O12 O 0.11926 0.19275 0.42539 0.0
O13 O 0.14175 0.18304 0.40502 0.0
O14 O 0.10901 0.90709 0.64782 0.0
Cd15 Cd 0.09201 0.8832 0.65846 0.0
Cd16 Cd 0.10394 0.86649 0.62285 0.0
O17 O 0.11738 0.89467 0.61917 0.0
O18 O 0.08944 0.89033 0.6869 0.0
O19 O 0.10468 0.86487 0.67682 0.0
C20 C 0.09929 0.8757 0.6912 0.0
C21 C 0.12153 0.84019 0.61327 0.0
C22 C 0.11784 0.90897 0.63148 0.0
C23 C 0.05908 0.86598 0.6305 0.0
O24 O 0.07302 0.86106 0.61961 0.0
O25 O 0.06325 0.87556 0.64668 0.0
O26 O 0.11407 0.85134 0.60045 0.0
O27 O 0.11947 0.84421 0.63184 0.0
O28 O 0.40862 0.84012 0.90832 0.0
Cd29 Cd 0.38473 0.82799 0.92392 0.0
Cd30 Cd 0.37197 0.8644 0.91531 0.0
O31 O 0.39704 0.86725 0.89786 0.0
O32 O 0.3942 0.8026 0.93169 0.0
O33 O 0.36777 0.80434 0.9115 0.0
C34 C 0.37978 0.79381 0.92081 0.0
C35 C 0.33928 0.86237 0.90209 0.0
C36 C 0.41065 0.85554 0.89819 0.0
C37 C 0.37767 0.8562 0.95794 0.0
O38 O 0.37528 0.86961 0.94563 0.0
O39 O 0.38022 0.83904 0.95182 0.0
O40 O 0.34982 0.8791 0.90474 0.0
O41 O 0.34772 0.84673 0.90625 0.0
O42 O 0.42931 0.14436 0.13924 0.0
Cd43 Cd 0.39836 0.14287 0.13988 0.0
Cd44 Cd 0.40603 0.13777 0.18155 0.0
O45 O 0.43505 0.14028 0.17127 0.0
O46 O 0.38883 0.15386 0.11462 0.0
O47 O 0.38479 0.16749 0.14405 0.0
C48 C 0.38221 0.1677 0.12497 0.0
C49 C 0.40218 0.14771 0.21444 0.0
C50 C 0.44148 0.14272 0.15386 0.0
C51 C 0.37937 0.10638 0.1575 0.0
O52 O 0.38692 0.11318 0.17403 0.0
O53 O 0.38255 0.11557 0.14159 0.0
O54 O 0.41161 0.13289 0.21009 0.0
O55 O 0.39527 0.15757 0.20013 0.0
O56 O 0.10241 0.80815 0.10872 0.0
Cd57 Cd 0.10622 0.83663 0.09915 0.0
Cd58 Cd 0.12614 0.81809 0.07033 0.0
O59 O 0.11714 0.79285 0.08509 0.0
O60 O 0.09004 0.84995 0.11861 0.0
O61 O 0.08283 0.849 0.08642 0.0
C62 C 0.07847 0.85434 0.1041 0.0
C63 C 0.1178 0.82113 0.03692 0.0
C64 C 0.10773 0.79245 0.10115 0.0
C65 C 0.15078 0.84874 0.09478 0.0
O66 O 0.15111 0.83516 0.08175 0.0
O67 O 0.13436 0.85198 0.10267 0.0
O68 O 0.13129 0.81008 0.04264 0.0
O69 O 0.10866 0.83035 0.05024 0.0
O70 O 0.39895 0.8808 0.30828 0.0
Cd71 Cd 0.4056 0.88374 0.33845 0.0
Cd72 Cd 0.43901 0.86885 0.32715 0.0
O73 O 0.42917 0.87498 0.29897 0.0
O74 O 0.38734 0.90286 0.34828 0.0
O75 O 0.42043 0.9094 0.34747 0.0
C76 C 0.40306 0.91532 0.35083 0.0
C77 C 0.47145 0.8788 0.33947 0.0
C78 C 0.41125 0.87847 0.29463 0.0
C79 C 0.41241 0.84399 0.35295 0.0
O80 O 0.42586 0.84415 0.34006 0.0
O81 O 0.40347 0.85921 0.3562 0.0
O82 O 0.46808 0.86515 0.32601 0.0
O83 O 0.45638 0.88763 0.34525 0.0
O84 O 0.32882 0.18405 0.58072 0.0
Cd85 Cd 0.35582 0.19002 0.56742 0.0
Cd86 Cd 0.37066 0.18306 0.60352 0.0
O87 O 0.34106 0.17266 0.60852 0.0
O88 O 0.35148 0.18477 0.53832 0.0
O89 O 0.36965 0.16731 0.55795 0.0
C90 C 0.36204 0.17018 0.54053 0.0
C91 C 0.39678 0.16394 0.61105 0.0
C92 C 0.32614 0.17607 0.59738 0.0
C93 C 0.37641 0.22457 0.58874 0.0
O94 O 0.37766 0.2132 0.60329 0.0
O95 O 0.3694 0.2179 0.57195 0.0
O96 O 0.38841 0.17329 0.62479 0.0
O97 O 0.39005 0.16518 0.59302 0.0
O98 O 0.10509 0.09938 0.8139 0.0
Cd99 Cd 0.10576 0.09855 0.84469 0.0
Cd100 Cd 0.06896 0.11396 0.83816 0.0
O101 O 0.07402 0.10697 0.80906 0.0
O102 O 0.1265 0.0805 0.85139 0.0
O103 O 0.09428 0.07395 0.85778 0.0
C104 C 0.11229 0.06859 0.85811 0.0
C105 C 0.03598 0.11081 0.84916 0.0
C106 C 0.09042 0.10233 0.80221 0.0
C107 C 0.10258 0.13902 0.86059 0.0
O108 O 0.08573 0.13783 0.85114 0.0
O109 O 0.11285 0.1244 0.86111 0.0
O110 O 0.04187 0.12349 0.83626 0.0
O111 O 0.04865 0.09905 0.85529 0.0
O112 O 0.14276 0.45125 0.12861 0.0
Cd113 Cd 0.14157 0.42114 0.1286 0.0
Cd114 Cd 0.17943 0.42755 0.11479 0.0
O115 O 0.17429 0.4566 0.11975 0.0
O116 O 0.12232 0.41167 0.1491 0.0
O117 O 0.15489 0.40788 0.15094 0.0
C118 C 0.13739 0.40541 0.15865 0.0
C119 C 0.21021 0.41646 0.12442 0.0
C120 C 0.15795 0.46308 0.1248 0.0
C121 C 0.14728 0.40424 0.08855 0.0
O122 O 0.16532 0.41208 0.09071 0.0
O123 O 0.13478 0.40592 0.10214 0.0
O124 O 0.20879 0.42806 0.10978 0.0
O125 O 0.19425 0.41177 0.13427 0.0
O126 O 0.64767 0.08791 0.83567 0.0
Cd127 Cd 0.66441 0.07696 0.85807 0.0
Cd128 Cd 0.65663 0.1101 0.87664 0.0
O129 O 0.63933 0.11428 0.85128 0.0
O130 O 0.66551 0.04921 0.84981 0.0
O131 O 0.65176 0.05808 0.87757 0.0
C132 C 0.65625 0.04432 0.8657 0.0
C133 C 0.64256 0.10855 0.90772 0.0
C134 C 0.63847 0.10321 0.83586 0.0
C135 C 0.70001 0.10503 0.86951 0.0
O136 O 0.68761 0.11624 0.87616 0.0
O137 O 0.69381 0.0884 0.86187 0.0
O138 O 0.647 0.12513 0.89942 0.0
O139 O 0.6456 0.09277 0.89801 0.0
O140 O 0.836 0.92151 0.33786 0.0
Cd141 Cd 0.82404 0.92485 0.36538 0.0
Cd142 Cd 0.84506 0.89349 0.37086 0.0
O143 O 0.85707 0.89931 0.34341 0.0
O144 O 0.81494 0.95168 0.36462 0.0
O145 O 0.83894 0.9436 0.38531 0.0
C146 C 0.8285 0.95685 0.37828 0.0
C147 C 0.86206 0.89543 0.4014 0.0
C148 C 0.8496 0.91132 0.33187 0.0
C149 C 0.80031 0.88708 0.37423 0.0
O150 O 0.81656 0.87925 0.37194 0.0
O151 O 0.8001 0.90553 0.37331 0.0
O152 O 0.86234 0.88014 0.38995 0.0
O153 O 0.85359 0.91014 0.39465 0.0
O154 O 0.8069 0.12072 0.12381 0.0
Cd155 Cd 0.83631 0.11454 0.12588 0.0
Cd156 Cd 0.81958 0.08044 0.13946 0.0
O157 O 0.79269 0.09176 0.13174 0.0
O158 O 0.85036 0.13458 0.10906 0.0
O159 O 0.84897 0.10281 0.10234 0.0
C160 C 0.85446 0.12056 0.09737 0.0
C161 C 0.82507 0.04898 0.12868 0.0
C162 C 0.79118 0.10921 0.1264 0.0
C163 C 0.84664 0.1063 0.16791 0.0
O164 O 0.83463 0.09077 0.16554 0.0
O165 O 0.85013 0.11769 0.15355 0.0
O166 O 0.81237 0.05178 0.14218 0.0
O167 O 0.83458 0.0641 0.12092 0.0
O168 O 0.29848 0.61876 0.62622 0.0
Cd169 Cd 0.32952 0.621 0.62795 0.0
Cd170 Cd 0.32389 0.58409 0.6414 0.0
O171 O 0.29384 0.58821 0.63589 0.0
O172 O 0.33988 0.64062 0.60849 0.0
O173 O 0.3448 0.60924 0.60637 0.0
C174 C 0.34736 0.62657 0.59918 0.0
C175 C 0.33645 0.5547 0.63215 0.0
C176 C 0.28671 0.60375 0.63021 0.0
C177 C 0.34518 0.61564 0.66892 0.0
O178 O 0.33835 0.5978 0.66619 0.0
O179 O 0.34338 0.62791 0.65531 0.0
O180 O 0.32427 0.55558 0.6465 0.0
O181 O 0.34093 0.57044 0.6224 0.0
O182 O 0.16558 0.57868 0.34062 0.0
Cd183 Cd 0.18166 0.56865 0.3642 0.0
Cd184 Cd 0.16218 0.59437 0.38505 0.0
O185 O 0.14596 0.59554 0.35852 0.0
O186 O 0.18609 0.54106 0.35794 0.0
O187 O 0.16754 0.54985 0.38268 0.0
C188 C 0.17458 0.53613 0.37241 0.0
C189 C 0.14576 0.59554 0.41507 0.0
C190 C 0.15082 0.58891 0.3418 0.0
C191 C 0.20796 0.60119 0.38253 0.0
O192 O 0.19144 0.60736 0.38739 0.0
O193 O 0.20801 0.58485 0.37339 0.0
O194 O 0.14859 0.61068 0.40418 0.0
O195 O 0.15138 0.57926 0.40841 0.0
O196 O 0.34174 0.41766 0.83114 0.0
Cd197 Cd 0.3248 0.42725 0.85351 0.0
Cd198 Cd 0.33724 0.39585 0.87151 0.0
O199 O 0.3558 0.3948 0.84748 0.0
O200 O 0.32262 0.45529 0.84816 0.0
O201 O 0.33814 0.44512 0.87498 0.0
C202 C 0.33295 0.45941 0.86447 0.0
C203 C 0.34927 0.39503 0.90424 0.0
C204 C 0.35408 0.40477 0.83193 0.0
C205 C 0.29265 0.39631 0.86238 0.0
O206 O 0.30691 0.38656 0.86801 0.0
O207 O 0.29632 0.41368 0.85646 0.0
O208 O 0.34705 0.37942 0.89309 0.0
O209 O 0.34576 0.4114 0.89637 0.0
O210 O 0.87792 0.87574 0.5572 0.0
Cd211 Cd 0.87775 0.86721 0.58634 0.0
Cd212 Cd 0.87706 0.83174 0.56953 0.0
O213 O 0.87061 0.84624 0.54389 0.0
O214 O 0.86288 0.88632 0.60118 0.0
O215 O 0.85172 0.85496 0.59661 0.0
C216 C 0.84879 0.87224 0.60316 0.0
C217 C 0.8621 0.8001 0.5749 0.0
C218 C 0.87364 0.86467 0.54201 0.0
C219 C 0.91491 0.84846 0.59279 0.0
O220 O 0.90638 0.83592 0.58029 0.0
O221 O 0.90543 0.86235 0.5992 0.0
O222 O 0.87405 0.80374 0.56056 0.0
O223 O 0.85774 0.81461 0.58584 0.0
O224 O 0.89058 0.09035 0.3533 0.0
Cd225 Cd 0.9095 0.10983 0.33809 0.0
Cd226 Cd 0.91001 0.12912 0.37363 0.0
O227 O 0.89353 0.1042 0.3832 0.0
O228 O 0.90558 0.09933 0.31041 0.0
O229 O 0.89841 0.12892 0.31943 0.0
C230 C 0.89888 0.11561 0.3057 0.0
C231 C 0.89723 0.15933 0.3766 0.0
C232 C 0.88652 0.0902 0.37157 0.0
C233 C 0.94996 0.12031 0.3584 0.0
O234 O 0.94073 0.12884 0.3717 0.0
O235 O 0.94022 0.11135 0.34387 0.0
O236 O 0.90549 0.15145 0.39161 0.0
O237 O 0.89596 0.14982 0.35979 0.0
O238 O 0.58012 0.15622 0.08977 0.0
Cd239 Cd 0.60652 0.16517 0.07599 0.0
Cd240 Cd 0.61716 0.13185 0.09085 0.0
O241 O 0.59207 0.1333 0.10781 0.0
O242 O 0.60396 0.19259 0.06804 0.0
O243 O 0.62594 0.18494 0.09117 0.0
C244 C 0.61798 0.19814 0.08111 0.0
C245 C 0.64992 0.13371 0.1039 0.0
C246 C 0.57799 0.14381 0.10346 0.0
C247 C 0.61379 0.13304 0.04707 0.0
O248 O 0.61352 0.12177 0.06178 0.0
O249 O 0.61301 0.1513 0.04984 0.0
O250 O 0.63828 0.11752 0.10409 0.0
O251 O 0.64249 0.14906 0.09721 0.0
O252 O 0.55799 0.862 0.86009 0.0
Cd253 Cd 0.58901 0.86509 0.86113 0.0
Cd254 Cd 0.58405 0.87986 0.82462 0.0
O255 O 0.55382 0.87391 0.83029 0.0
O256 O 0.5976 0.84631 0.88092 0.0
O257 O 0.60454 0.84451 0.84907 0.0
C258 C 0.60573 0.83747 0.86666 0.0
C259 C 0.59545 0.8739 0.79289 0.0
C260 C 0.54647 0.86682 0.84605 0.0
C261 C 0.60566 0.90628 0.85674 0.0
O262 O 0.59931 0.90395 0.8388 0.0
O263 O 0.6031 0.89241 0.86883 0.0
O264 O 0.58389 0.8874 0.79631 0.0
O265 O 0.60004 0.86307 0.80745 0.0
O266 O 0.88612 0.20266 0.8986 0.0
Cd267 Cd 0.88292 0.1724 0.89984 0.0
Cd268 Cd 0.86526 0.17977 0.93369 0.0
O269 O 0.87278 0.20864 0.92728 0.0
O270 O 0.90173 0.16322 0.88022 0.0
O271 O 0.90431 0.15747 0.91231 0.0
C272 C 0.91096 0.15548 0.89468 0.0
C273 C 0.87385 0.16761 0.96439 0.0
C274 C 0.88084 0.21476 0.91149 0.0
C275 C 0.83928 0.15781 0.90226 0.0
O276 O 0.83992 0.16618 0.91927 0.0
O277 O 0.85505 0.15799 0.8922 0.0
O278 O 0.85997 0.17926 0.96248 0.0
O279 O 0.88333 0.16313 0.94881 0.0
O280 O 0.57668 0.15449 0.65139 0.0
Cd281 Cd 0.5613 0.13164 0.66534 0.0
Cd282 Cd 0.59929 0.11486 0.65784 0.0
O283 O 0.60272 0.14003 0.64117 0.0
O284 O 0.53409 0.1407 0.66771 0.0
O285 O 0.53964 0.11492 0.64935 0.0
C286 C 0.52722 0.12676 0.65553 0.0
C287 C 0.61403 0.08746 0.64586 0.0
C288 C 0.59259 0.15475 0.64156 0.0
C289 C 0.58633 0.12133 0.70055 0.0
O290 O 0.59963 0.117 0.68858 0.0
O291 O 0.56965 0.12659 0.69419 0.0
O292 O 0.62474 0.10287 0.65276 0.0
O293 O 0.5947 0.08761 0.6453 0.0
O294 O 0.66286 0.81564 0.42412 0.0
Cd295 Cd 0.63457 0.80828 0.43431 0.0
Cd296 Cd 0.62264 0.82755 0.40265 0.0
O297 O 0.65319 0.83638 0.40201 0.0
O298 O 0.63601 0.80561 0.4636 0.0
O299 O 0.62219 0.82968 0.44845 0.0
C300 C 0.62739 0.82158 0.4647 0.0
C301 C 0.59915 0.84962 0.39522 0.0
C302 C 0.66711 0.8285 0.41122 0.0
C303 C 0.61175 0.78349 0.40376 0.0
O304 O 0.61265 0.79909 0.39388 0.0
O305 O 0.61871 0.7838 0.42151 0.0
O306 O 0.60984 0.8427 0.38172 0.0
O307 O 0.6025 0.84479 0.41334 0.0
O308 O 0.88168 0.89903 0.18011 0.0
Cd309 Cd 0.88548 0.89545 0.14995 0.0
Cd310 Cd 0.92008 0.88187 0.16665 0.0
O311 O 0.91102 0.8928 0.19318 0.0
O312 O 0.8607 0.90589 0.1391 0.0
O313 O 0.89109 0.92065 0.13496 0.0
C314 C 0.87182 0.92062 0.13263 0.0
C315 C 0.95184 0.88939 0.15411 0.0
C316 C 0.89359 0.89831 0.19511 0.0
C317 C 0.89248 0.85306 0.14285 0.0
O318 O 0.90625 0.85543 0.15636 0.0
O319 O 0.88363 0.86756 0.13691 0.0
O320 O 0.94917 0.8783 0.16921 0.0
O321 O 0.93653 0.89733 0.14687 0.0
O322 O 0.87879 0.56937 0.87212 0.0
Cd323 Cd 0.87293 0.59817 0.87275 0.0
Cd324 Cd 0.83808 0.58221 0.88737 0.0
O325 O 0.84886 0.55566 0.87986 0.0
O326 O 0.8911 0.61138 0.85311 0.0
O327 O 0.85785 0.60907 0.84994 0.0
C328 C 0.87518 0.61463 0.84286 0.0
C329 C 0.80602 0.59041 0.87806 0.0
C330 C 0.8669 0.55413 0.87495 0.0
C331 C 0.86603 0.60924 0.91442 0.0
O332 O 0.8503 0.59717 0.91259 0.0
O333 O 0.87728 0.6127 0.8998 0.0
O334 O 0.80847 0.57779 0.89162 0.0
O335 O 0.82172 0.59748 0.86891 0.0
O336 O 0.33888 0.92041 0.16787 0.0
Cd337 Cd 0.32271 0.93427 0.14693 0.0
Cd338 Cd 0.33213 0.90068 0.12321 0.0
O339 O 0.34855 0.89662 0.14909 0.0
O340 O 0.31726 0.95831 0.16174 0.0
O341 O 0.33502 0.95913 0.13469 0.0
C342 C 0.32745 0.96844 0.149 0.0
C343 C 0.34712 0.89184 0.09396 0.0
C344 C 0.34874 0.9057 0.16571 0.0
C345 C 0.28833 0.9067 0.12917 0.0
O346 O 0.30101 0.89587 0.12241 0.0
O347 O 0.29416 0.92248 0.1387 0.0
O348 O 0.34004 0.879 0.1062 0.0
O349 O 0.34575 0.91005 0.09823 0.0
O350 O 0.15183 0.08693 0.66555 0.0
Cd351 Cd 0.16907 0.08023 0.64202 0.0
Cd352 Cd 0.14842 0.10762 0.62535 0.0
O353 O 0.13051 0.10425 0.6498 0.0
O354 O 0.17685 0.05347 0.64727 0.0
O355 O 0.15745 0.0603 0.62158 0.0
C356 C 0.16597 0.0475 0.63175 0.0
C357 C 0.13706 0.1052 0.59231 0.0
C358 C 0.13613 0.09597 0.66545 0.0
C359 C 0.19319 0.11689 0.63199 0.0
O360 O 0.17621 0.12336 0.62894 0.0
O361 O 0.19415 0.09906 0.63622 0.0
O362 O 0.13478 0.12053 0.60307 0.0
O363 O 0.14436 0.09066 0.60084 0.0
O364 O 0.18185 0.86817 0.87581 0.0
Cd365 Cd 0.15164 0.8715 0.87374 0.0
Cd366 Cd 0.16684 0.90771 0.86162 0.0
O367 O 0.19444 0.89846 0.87053 0.0
O368 O 0.1394 0.84788 0.88712 0.0
O369 O 0.13745 0.87785 0.89881 0.0
C370 C 0.13368 0.8592 0.90082 0.0
C371 C 0.15674 0.93797 0.87144 0.0
C372 C 0.19695 0.88086 0.87472 0.0
C373 C 0.14235 0.88106 0.83169 0.0
O374 O 0.15382 0.89681 0.83486 0.0
O375 O 0.13852 0.86923 0.84562 0.0
O376 O 0.17057 0.93669 0.8587 0.0
O377 O 0.14931 0.92202 0.87946 0.0
O378 O 0.70097 0.39637 0.37619 0.0
Cd379 Cd 0.67006 0.39354 0.37465 0.0
Cd380 Cd 0.67544 0.4298 0.35904 0.0
O381 O 0.70561 0.42664 0.36579 0.0
O382 O 0.66208 0.37214 0.39302 0.0
O383 O 0.65445 0.40249 0.39759 0.0
C384 C 0.6539 0.38474 0.4037 0.0
C385 C 0.66171 0.45859 0.3682 0.0
C386 C 0.71273 0.41133 0.37215 0.0
C387 C 0.65466 0.39682 0.33304 0.0
O388 O 0.66147 0.41479 0.33449 0.0
O389 O 0.65629 0.38561 0.34761 0.0
O390 O 0.67406 0.45819 0.35393 0.0
O391 O 0.65753 0.44268 0.37778 0.0
O392 O 0.85106 0.42241 0.66438 0.0
Cd393 Cd 0.83512 0.43364 0.64157 0.0
Cd394 Cd 0.8439 0.39935 0.6223 0.0
O395 O 0.86081 0.39692 0.64829 0.0
O396 O 0.83433 0.46136 0.65008 0.0
O397 O 0.84851 0.45257 0.62249 0.0
C398 C 0.84409 0.46629 0.63449 0.0
C399 C 0.85734 0.38872 0.59282 0.0
C400 C 0.86084 0.40751 0.66396 0.0
C401 C 0.80007 0.40552 0.62914 0.0
O402 O 0.81283 0.3945 0.62288 0.0
O403 O 0.80578 0.42223 0.63689 0.0
O404 O 0.85097 0.37667 0.60612 0.0
O405 O 0.85646 0.40716 0.59634 0.0
O406 O 0.66195 0.58761 0.08696 0.0
Cd407 Cd 0.67338 0.57313 0.11037 0.0
Cd408 Cd 0.63685 0.57808 0.12446 0.0
O409 O 0.63416 0.59588 0.10018 0.0
O410 O 0.70229 0.57406 0.1043 0.0
O411 O 0.69147 0.58809 0.13118 0.0
C412 C 0.70627 0.58455 0.12025 0.0
C413 C 0.63441 0.58948 0.1569 0.0
C414 C 0.64624 0.59656 0.08596 0.0
C415 C 0.64639 0.53682 0.11652 0.0
O416 O 0.6329 0.54794 0.12062 0.0
O417 O 0.66408 0.544 0.11277 0.0
O418 O 0.6185 0.58496 0.14569 0.0
O419 O 0.65179 0.58832 0.14929 0.0
O420 O 0.64278 0.63954 0.94111 0.0
Cd421 Cd 0.64294 0.64087 0.91042 0.0
Cd422 Cd 0.6299 0.67678 0.91913 0.0
O423 O 0.63584 0.66962 0.94801 0.0
O424 O 0.66035 0.62033 0.90225 0.0
O425 O 0.66803 0.65187 0.89709 0.0
C426 C 0.67283 0.63412 0.89581 0.0
C427 C 0.63687 0.70909 0.90918 0.0
C428 C 0.63996 0.65294 0.95372 0.0
C429 C 0.60134 0.6468 0.89618 0.0
O430 O 0.60413 0.66293 0.90588 0.0
O431 O 0.61551 0.63582 0.89481 0.0
O432 O 0.62317 0.70423 0.92165 0.0
O433 O 0.64741 0.69563 0.90282 0.0
O434 O 0.58854 0.39977 0.15614 0.0
Cd435 Cd 0.57589 0.37565 0.17012 0.0
Cd436 Cd 0.59043 0.3561 0.13756 0.0
O437 O 0.60425 0.38403 0.13352 0.0
O438 O 0.57545 0.38388 0.19845 0.0
O439 O 0.59329 0.36052 0.18753 0.0
C440 C 0.58818 0.37134 0.20207 0.0
C441 C 0.60741 0.33034 0.12523 0.0
C442 C 0.60048 0.39993 0.14189 0.0
C443 C 0.54476 0.3545 0.14393 0.0
O444 O 0.55948 0.3506 0.13354 0.0
O445 O 0.54774 0.36423 0.16015 0.0
O446 O 0.59954 0.3424 0.11372 0.0
O447 O 0.60613 0.33307 0.14412 0.0
O448 O 0.91566 0.34097 0.40603 0.0
Cd449 Cd 0.88973 0.32899 0.41856 0.0
Cd450 Cd 0.88023 0.36824 0.41282 0.0
O451 O 0.90628 0.36941 0.39671 0.0
O452 O 0.89569 0.30139 0.42181 0.0
O453 O 0.87114 0.30945 0.40192 0.0
C454 C 0.88136 0.29606 0.40905 0.0
C455 C 0.8513 0.38024 0.3994 0.0
C456 C 0.91914 0.35696 0.39705 0.0
C457 C 0.88277 0.35403 0.45469 0.0
O458 O 0.88229 0.36872 0.44357 0.0
O459 O 0.88424 0.3371 0.44727 0.0
O460 O 0.86665 0.39186 0.4057 0.0
O461 O 0.85259 0.36161 0.40011 0.0
O462 O 0.92942 0.65691 0.63342 0.0
Cd463 Cd 0.8989 0.64935 0.63531 0.0
Cd464 Cd 0.91302 0.6352 0.67204 0.0
O465 O 0.94076 0.64606 0.66187 0.0
O466 O 0.88767 0.66115 0.61118 0.0
O467 O 0.88133 0.67097 0.6415 0.0
C468 C 0.87913 0.67285 0.62256 0.0
C469 C 0.90471 0.64113 0.70485 0.0
C470 C 0.94393 0.65437 0.64544 0.0
C471 C 0.89033 0.60617 0.64316 0.0
O472 O 0.89975 0.60924 0.65978 0.0
O473 O 0.88815 0.62014 0.63147 0.0
O474 O 0.91798 0.62948 0.7005 0.0
O475 O 0.89655 0.65009 0.6905 0.0
O476 O 0.61597 0.29838 0.60065 0.0
Cd477 Cd 0.61982 0.32866 0.59963 0.0
Cd478 Cd 0.63886 0.32071 0.5663 0.0
O479 O 0.63063 0.29195 0.57278 0.0
O480 O 0.60142 0.33758 0.61972 0.0
O481 O 0.59831 0.34395 0.58782 0.0
C482 C 0.592 0.34565 0.60562 0.0
C483 C 0.6315 0.33276 0.53521 0.0
C484 C 0.62153 0.28609 0.58814 0.0
C485 C 0.66366 0.34341 0.59809 0.0
O486 O 0.66366 0.33465 0.58133 0.0
O487 O 0.64756 0.34319 0.60765 0.0
O488 O 0.64533 0.32114 0.53779 0.0
O489 O 0.62129 0.33714 0.55034 0.0
O490 O 0.89427 0.38482 0.81121 0.0
Cd491 Cd 0.89688 0.38641 0.84191 0.0
Cd492 Cd 0.93161 0.37017 0.83442 0.0
O493 O 0.92504 0.37743 0.80573 0.0
O494 O 0.87969 0.40698 0.85047 0.0
O495 O 0.91299 0.41028 0.8536 0.0
C496 C 0.89611 0.41777 0.85543 0.0
C497 C 0.96483 0.37343 0.84681 0.0
C498 C 0.90811 0.38201 0.79927 0.0
C499 C 0.89981 0.34616 0.85639 0.0
O500 O 0.91524 0.34645 0.84587 0.0
O501 O 0.89066 0.36142 0.85837 0.0
O502 O 0.95869 0.3608 0.83301 0.0
O503 O 0.95229 0.38517 0.85295 0.0
O504 O 0.84212 0.65731 0.09524 0.0
Cd505 Cd 0.86395 0.67516 0.08157 0.0
Cd506 Cd 0.88134 0.67401 0.11791 0.0
O507 O 0.85443 0.65961 0.12601 0.0
O508 O 0.85491 0.67226 0.05315 0.0
O509 O 0.8842 0.66373 0.06436 0.0
C510 C 0.8715 0.66494 0.0497 0.0
C511 C 0.91008 0.65772 0.12121 0.0
C512 C 0.84055 0.65339 0.11349 0.0
C513 C 0.87554 0.71375 0.10306 0.0
O514 O 0.88336 0.70409 0.11666 0.0
O515 O 0.86664 0.70493 0.08798 0.0
O516 O 0.90284 0.66622 0.13625 0.0
O517 O 0.90106 0.65875 0.10407 0.0
O518 O 0.60782 0.61171 0.3107 0.0
Cd519 Cd 0.59967 0.6121 0.34 0.0
Cd520 Cd 0.56505 0.61682 0.32198 0.0
O521 O 0.57749 0.60644 0.29665 0.0
O522 O 0.62097 0.59865 0.35398 0.0
O523 O 0.58894 0.58657 0.35169 0.0
C524 C 0.60733 0.58448 0.35712 0.0
C525 C 0.53321 0.6073 0.33364 0.0
C526 C 0.59652 0.60777 0.2953 0.0
C527 C 0.58611 0.65111 0.34493 0.0
O528 O 0.57418 0.64528 0.33049 0.0
O529 O 0.59693 0.6392 0.35327 0.0
O530 O 0.53545 0.61698 0.31753 0.0
O531 O 0.54906 0.6013 0.34207 0.0
O532 O 0.64734 0.94485 0.62795 0.0
Cd533 Cd 0.64918 0.91499 0.62932 0.0
Cd534 Cd 0.68317 0.92473 0.60888 0.0
O535 O 0.67701 0.95303 0.61546 0.0
O536 O 0.62879 0.90628 0.64897 0.0
O537 O 0.66128 0.9034 0.65364 0.0
C538 C 0.64321 0.90095 0.66009 0.0
C539 C 0.71455 0.91415 0.61699 0.0
C540 C 0.66073 0.95791 0.62247 0.0
C541 C 0.65056 0.89822 0.58793 0.0
O542 O 0.66675 0.90936 0.58601 0.0
O543 O 0.64184 0.89752 0.6044 0.0
O544 O 0.71223 0.92568 0.60241 0.0
O545 O 0.69909 0.90904 0.62744 0.0
O546 O 0.36664 0.36939 0.05937 0.0
Cd547 Cd 0.36707 0.35992 0.08825 0.0
Cd548 Cd 0.36729 0.32518 0.06969 0.0
O549 O 0.35914 0.34036 0.04507 0.0
O550 O 0.35406 0.37975 0.10389 0.0
O551 O 0.34098 0.34892 0.09948 0.0
C552 C 0.3394 0.36638 0.10639 0.0
C553 C 0.35454 0.2928 0.07454 0.0
C554 C 0.36186 0.35888 0.04389 0.0
C555 C 0.40464 0.34153 0.09343 0.0
O556 O 0.39676 0.32991 0.0798 0.0
O557 O 0.3946 0.3545 0.10084 0.0
O558 O 0.36549 0.29758 0.05971 0.0
O559 O 0.34958 0.30662 0.08609 0.0
O560 O 0.40026 0.59584 0.84711 0.0
Cd561 Cd 0.4181 0.61817 0.83469 0.0
Cd562 Cd 0.41732 0.63302 0.87313 0.0
O563 O 0.40137 0.60638 0.87826 0.0
O564 O 0.41556 0.61016 0.80621 0.0
O565 O 0.40541 0.63777 0.81763 0.0
C566 C 0.40712 0.62586 0.80286 0.0
C567 C 0.40439 0.66091 0.88575 0.0
C568 C 0.39558 0.59343 0.86505 0.0
C569 C 0.45791 0.62765 0.85666 0.0
O570 O 0.44814 0.63393 0.87092 0.0
O571 O 0.44875 0.62051 0.84094 0.0
O572 O 0.4131 0.64919 0.89708 0.0
O573 O 0.40302 0.65684 0.86692 0.0
O574 O 0.08937 0.6725 0.58604 0.0
Cd575 Cd 0.11804 0.67442 0.57543 0.0
Cd576 Cd 0.11725 0.64034 0.59396 0.0
O577 O 0.09183 0.64883 0.60725 0.0
O578 O 0.12121 0.70112 0.56426 0.0
O579 O 0.13852 0.69311 0.59085 0.0
C580 C 0.13391 0.70629 0.57863 0.0
C581 C 0.14648 0.63296 0.61058 0.0
C582 C 0.08207 0.66213 0.59996 0.0
C583 C 0.11915 0.63819 0.55018 0.0
O584 O 0.11407 0.62871 0.5655 0.0
O585 O 0.12348 0.65664 0.55144 0.0
O586 O 0.1303 0.62094 0.61016 0.0
O587 O 0.14558 0.64989 0.60273 0.0
O588 O 0.06826 0.35846 0.36392 0.0
Cd589 Cd 0.09924 0.35912 0.3652 0.0
Cd590 Cd 0.09531 0.37623 0.32806 0.0
O591 O 0.06518 0.37199 0.33472 0.0
O592 O 0.10568 0.33938 0.38512 0.0
O593 O 0.11286 0.33694 0.35341 0.0
C594 C 0.113 0.32969 0.37096 0.0
C595 C 0.10366 0.37281 0.29475 0.0
C596 C 0.05731 0.36472 0.35017 0.0
C597 C 0.11936 0.39962 0.36129 0.0
O598 O 0.11298 0.39825 0.34331 0.0
O599 O 0.11547 0.38561 0.37305 0.0
O600 O 0.09385 0.38684 0.30083 0.0
O601 O 0.10843 0.36018 0.30754 0.0
O602 O 0.39407 0.70049 0.39606 0.0
Cd603 Cd 0.38798 0.67034 0.39825 0.0
Cd604 Cd 0.38051 0.68066 0.43621 0.0
O605 O 0.39197 0.70803 0.42783 0.0
O606 O 0.4023 0.65805 0.37653 0.0
O607 O 0.40942 0.65413 0.4084 0.0
C608 C 0.41308 0.65056 0.39005 0.0
C609 C 0.38672 0.66992 0.46835 0.0
C610 C 0.39531 0.7132 0.41016 0.0
C611 C 0.34566 0.66249 0.40999 0.0
O612 O 0.35178 0.6717 0.42591 0.0
O613 O 0.35803 0.65889 0.39679 0.0
O614 O 0.37627 0.68434 0.46506 0.0
O615 O 0.39472 0.66209 0.45337 0.0
O616 O 0.08228 0.65424 0.16859 0.0
Cd617 Cd 0.07305 0.62564 0.17439 0.0
Cd618 Cd 0.11259 0.62338 0.16626 0.0
O619 O 0.11083 0.65087 0.15409 0.0
O620 O 0.04408 0.62791 0.1785 0.0
O621 O 0.05456 0.61079 0.15356 0.0
C622 C 0.03988 0.61772 0.16243 0.0
C623 C 0.12407 0.59704 0.14924 0.0
C624 C 0.09711 0.66146 0.15893 0.0
C625 C 0.10001 0.61629 0.20803 0.0
O626 O 0.11462 0.62105 0.19687 0.0
O627 O 0.08198 0.61526 0.20121 0.0
O628 O 0.13635 0.61164 0.1558 0.0
O629 O 0.105 0.59798 0.15129 0.0
O630 O 0.16585 0.32468 0.91854 0.0
Cd631 Cd 0.14414 0.31027 0.93528 0.0
Cd632 Cd 0.12024 0.31438 0.90313 0.0
O633 O 0.14594 0.32937 0.89274 0.0
O634 O 0.15278 0.31588 0.9635 0.0
O635 O 0.12494 0.32558 0.9498 0.0
C636 C 0.1371 0.32529 0.96508 0.0
C637 C 0.09077 0.32945 0.89767 0.0
C638 C 0.1632 0.33155 0.90142 0.0
C639 C 0.127 0.27314 0.91544 0.0
O640 O 0.11848 0.28408 0.90347 0.0
O641 O 0.13799 0.28062 0.92995 0.0
O642 O 0.09879 0.32024 0.88364 0.0
O643 O 0.09929 0.32978 0.91516 0.0
O644 O 0.39848 0.39803 0.68778 0.0
Cd645 Cd 0.39996 0.39928 0.6571 0.0
Cd646 Cd 0.43554 0.38367 0.66663 0.0
O647 O 0.42912 0.39055 0.69531 0.0
O648 O 0.3778 0.4155 0.64985 0.0
O649 O 0.40982 0.42483 0.64471 0.0
C650 C 0.39125 0.42861 0.64382 0.0
C651 C 0.46828 0.38861 0.65548 0.0
C652 C 0.4121 0.39505 0.70067 0.0
C653 C 0.40425 0.35861 0.64223 0.0
O654 O 0.41977 0.35931 0.65368 0.0
O655 O 0.39479 0.37363 0.64004 0.0
O656 O 0.46331 0.37584 0.66862 0.0
O657 O 0.45482 0.39955 0.64935 0.0
O658 O 0.37123 0.06396 0.37039 0.0
Cd659 Cd 0.36144 0.09165 0.37295 0.0
Cd660 Cd 0.32908 0.06987 0.3843 0.0
O661 O 0.34195 0.04636 0.37244 0.0
O662 O 0.38266 0.10928 0.3603 0.0
O663 O 0.35136 0.10428 0.34827 0.0
C664 C 0.36943 0.11264 0.34681 0.0
C665 C 0.29861 0.0808 0.37401 0.0
C666 C 0.36073 0.04741 0.3695 0.0
C667 C 0.35104 0.09501 0.4154 0.0
O668 O 0.33952 0.07932 0.41227 0.0
O669 O 0.35957 0.10381 0.40107 0.0
O670 O 0.29909 0.06536 0.38458 0.0
O671 O 0.31552 0.08931 0.36825 0.0
H672 H 0.10673 0.307 0.4034 0.0
H673 H 0.13596 0.3088 0.34687 0.0
H674 H 0.14726 0.27611 0.35289 0.0
H675 H 0.14336 0.28067 0.43083 0.0
H676 H 0.12416 0.26654 0.44411 0.0
H677 H 0.12021 0.2908 0.4362 0.0
H678 H 0.0871 0.27708 0.4175 0.0
H679 H 0.09091 0.25284 0.42539 0.0
H680 H 0.08764 0.25752 0.39935 0.0
H681 H 0.15392 0.24231 0.3646 0.0
H682 H 0.15311 0.20968 0.3796 0.0
H683 H 0.11845 0.23002 0.4278 0.0
C684 C 0.1158 0.30069 0.39242 0.0
C685 C 0.12064 0.31053 0.37474 0.0
C686 C 0.13216 0.30156 0.36056 0.0
C687 C 0.13871 0.28304 0.3639 0.0
C688 C 0.13353 0.27366 0.38144 0.0
C689 C 0.12223 0.28218 0.3954 0.0
C690 C 0.1173 0.26852 0.41229 0.0
C691 C 0.12683 0.27715 0.43203 0.0
C692 C 0.09438 0.26371 0.4137 0.0
C693 C 0.1273 0.25084 0.40554 0.0
C694 C 0.13687 0.25415 0.38788 0.0
C695 C 0.14659 0.23963 0.3785 0.0
C696 C 0.14611 0.22115 0.38717 0.0
C697 C 0.13576 0.21729 0.4049 0.0
C698 C 0.12659 0.23251 0.4143 0.0
H699 H 0.02503 0.88354 0.63971 0.0
H700 H 0.04543 0.8344 0.60727 0.0
H701 H 0.01046 0.82366 0.59635 0.0
H702 H 0.97706 0.8588 0.65511 0.0
H703 H 0.96344 0.87985 0.65135 0.0
H704 H 0.98993 0.88309 0.65806 0.0
H705 H 0.99665 0.90408 0.62705 0.0
H706 H 0.9702 0.90094 0.62027 0.0
H707 H 0.98835 0.89413 0.60287 0.0
H708 H 0.97409 0.81843 0.58833 0.0
H709 H 0.93808 0.82013 0.58131 0.0
H710 H 0.94032 0.8735 0.61745 0.0
C711 C 0.02205 0.87041 0.6305 0.0
C712 C 0.03792 0.85972 0.62441 0.0
C713 C 0.03351 0.84282 0.61206 0.0
C714 C 0.01369 0.83653 0.60587 0.0
C715 C 0.99842 0.8474 0.612 0.0
C716 C 0.00228 0.86407 0.62387 0.0
C717 C 0.98309 0.87367 0.62714 0.0
C718 C 0.97809 0.87386 0.64923 0.0
C719 C 0.98467 0.89443 0.61883 0.0
C720 C 0.96795 0.85986 0.61509 0.0
C721 C 0.97719 0.8447 0.60675 0.0
C722 C 0.96664 0.8302 0.59477 0.0
C723 C 0.94613 0.83135 0.59087 0.0
C724 C 0.93627 0.84699 0.59876 0.0
C725 C 0.94736 0.86132 0.61125 0.0
H726 H 0.37525 0.7708 0.88696 0.0
H727 H 0.38136 0.76888 0.95103 0.0
H728 H 0.38379 0.73331 0.94879 0.0
H729 H 0.34793 0.7203 0.87825 0.0
H730 H 0.36183 0.71608 0.85637 0.0
H731 H 0.35643 0.74053 0.863 0.0
H732 H 0.39448 0.75233 0.86257 0.0
H733 H 0.40002 0.72795 0.85615 0.0
H734 H 0.41199 0.7404 0.87786 0.0
H735 H 0.39008 0.69962 0.93989 0.0
H736 H 0.40026 0.66939 0.92488 0.0
H737 H 0.39154 0.69254 0.86613 0.0
C738 C 0.37628 0.76265 0.90047 0.0
C739 C 0.37768 0.77233 0.91921 0.0
C740 C 0.37996 0.76154 0.9366 0.0
C741 C 0.38132 0.74137 0.93546 0.0
C742 C 0.38056 0.73225 0.91678 0.0
C743 C 0.37806 0.74246 0.89955 0.0
C744 C 0.38029 0.72955 0.88136 0.0
C745 C 0.36043 0.72643 0.86902 0.0
C746 C 0.39773 0.73807 0.86875 0.0
C747 C 0.38511 0.71078 0.89111 0.0
C748 C 0.38482 0.71263 0.91154 0.0
C749 C 0.39005 0.69785 0.92391 0.0
C750 C 0.39592 0.68076 0.91521 0.0
C751 C 0.39665 0.67856 0.89432 0.0
C752 C 0.39087 0.6937 0.88213 0.0
H753 H 0.46213 0.15517 0.12111 0.0
H754 H 0.47007 0.12959 0.17882 0.0
H755 H 0.50589 0.12712 0.17232 0.0
H756 H 0.49405 0.12633 0.09467 0.0
H757 H 0.50423 0.14599 0.07952 0.0
H758 H 0.47931 0.14619 0.08886 0.0
H759 H 0.48928 0.18043 0.10518 0.0
H760 H 0.51421 0.1804 0.09577 0.0
H761 H 0.51096 0.18403 0.12197 0.0
H762 H 0.5404 0.12553 0.1586 0.0
H763 H 0.57175 0.12768 0.13987 0.0
H764 H 0.54157 0.15569 0.0919 0.0
C765 C 0.47142 0.14915 0.13243 0.0
C766 C 0.46326 0.14252 0.15045 0.0
C767 C 0.47598 0.13484 0.16493 0.0
C768 C 0.49634 0.1333 0.16135 0.0
C769 C 0.50383 0.13973 0.14333 0.0
C770 C 0.49183 0.14775 0.12922 0.0
C771 C 0.50362 0.15373 0.11115 0.0
C772 C 0.49477 0.14238 0.09245 0.0
C773 C 0.50457 0.17597 0.10836 0.0
C774 C 0.52405 0.14759 0.11719 0.0
C775 C 0.52384 0.13942 0.13574 0.0
C776 C 0.5408 0.13207 0.14414 0.0
C777 C 0.5585 0.13327 0.13336 0.0
C778 C 0.55913 0.14194 0.11449 0.0
C779 C 0.54162 0.14915 0.10638 0.0
H780 H 0.11857 0.68078 0.12933 0.0
H781 H 0.07654 0.68916 0.17585 0.0
H782 H 0.07485 0.72315 0.16592 0.0
H783 H 0.14532 0.72995 0.1332 0.0
H784 H 0.14812 0.73195 0.1068 0.0
H785 H 0.14687 0.70829 0.118 0.0
H786 H 0.11698 0.69596 0.09402 0.0
H787 H 0.11804 0.71962 0.08287 0.0
H788 H 0.0949 0.70904 0.093 0.0
H789 H 0.07675 0.75568 0.15101 0.0
H790 H 0.08284 0.78578 0.13206 0.0
H791 H 0.12316 0.75712 0.09438 0.0
C792 C 0.10923 0.68987 0.13755 0.0
C793 C 0.0977 0.68227 0.15339 0.0
C794 C 0.08546 0.69458 0.16362 0.0
C795 C 0.08439 0.71395 0.15812 0.0
C796 C 0.09559 0.72089 0.14228 0.0
C797 C 0.10784 0.70935 0.13213 0.0
C798 C 0.11789 0.72056 0.11534 0.0
C799 C 0.14092 0.72282 0.11853 0.0
C800 C 0.11157 0.7107 0.09511 0.0
C801 C 0.10928 0.74009 0.1177 0.0
C802 C 0.0965 0.73988 0.13339 0.0
C803 C 0.08676 0.75609 0.13869 0.0
C804 C 0.09031 0.77313 0.1278 0.0
C805 C 0.10345 0.77386 0.1117 0.0
C806 C 0.11293 0.75701 0.10652 0.0
H807 H 0.50702 0.86907 0.32552 0.0
H808 H 0.48108 0.89588 0.37608 0.0
H809 H 0.51339 0.89569 0.39506 0.0
H810 H 0.5321 0.83662 0.35077 0.0
H811 H 0.55411 0.83808 0.33589 0.0
H812 H 0.53045 0.84371 0.32522 0.0
H813 H 0.54665 0.87786 0.31538 0.0
H814 H 0.57051 0.87226 0.32589 0.0
H815 H 0.55975 0.89396 0.33406 0.0
H816 H 0.54615 0.88643 0.41035 0.0
H817 H 0.57725 0.87143 0.41959 0.0
H818 H 0.58212 0.8524 0.35837 0.0
C819 C 0.50834 0.8755 0.34036 0.0
C820 C 0.4916 0.88253 0.34933 0.0
C821 C 0.49381 0.89062 0.36886 0.0
C822 C 0.51209 0.89053 0.37976 0.0
C823 C 0.52811 0.88271 0.37073 0.0
C824 C 0.52651 0.87574 0.3513 0.0
C825 C 0.54521 0.8666 0.34549 0.0
C826 C 0.54015 0.84498 0.33898 0.0
C827 C 0.55618 0.87838 0.32924 0.0
C828 C 0.55718 0.86856 0.36497 0.0
C829 C 0.54721 0.87803 0.37935 0.0
C830 C 0.55436 0.87951 0.39907 0.0
C831 C 0.57199 0.87089 0.4042 0.0
C832 C 0.58225 0.86101 0.38965 0.0
C833 C 0.57492 0.86029 0.36975 0.0
H834 H 0.39763 0.24382 0.62003 0.0
H835 H 0.36495 0.25363 0.56502 0.0
H836 H 0.36855 0.28914 0.57256 0.0
H837 H 0.37694 0.27887 0.64947 0.0
H838 H 0.39995 0.2868 0.66333 0.0
H839 H 0.3959 0.26225 0.65312 0.0
H840 H 0.42918 0.2676 0.63432 0.0
H841 H 0.43348 0.29209 0.64471 0.0
H842 H 0.43316 0.28813 0.61819 0.0
H843 H 0.37293 0.3233 0.58774 0.0
H844 H 0.38156 0.35398 0.60747 0.0
H845 H 0.41263 0.32178 0.65158 0.0
C846 C 0.3915 0.25346 0.60941 0.0
C847 C 0.38099 0.24594 0.59195 0.0
C848 C 0.37318 0.25905 0.57844 0.0
C849 C 0.37505 0.27924 0.58264 0.0
C850 C 0.38502 0.28611 0.60025 0.0
C851 C 0.39345 0.27365 0.61323 0.0
C852 C 0.40334 0.28473 0.63117 0.0
C853 C 0.39343 0.27774 0.6504 0.0
C854 C 0.42614 0.28304 0.63215 0.0
C855 C 0.39883 0.3053 0.62644 0.0
C856 C 0.38812 0.30581 0.60862 0.0
C857 C 0.38154 0.32312 0.6016 0.0
C858 C 0.38637 0.34043 0.61295 0.0
C859 C 0.39785 0.34026 0.63096 0.0
C860 C 0.40401 0.32241 0.63775 0.0
H861 H 0.0043 0.12828 0.83389 0.0
H862 H 0.02282 0.09516 0.88416 0.0
H863 H 0.9914 0.10111 0.90083 0.0
H864 H 0.98499 0.165 0.86043 0.0
H865 H 0.96413 0.16768 0.84341 0.0
H866 H 0.98664 0.15871 0.83448 0.0
H867 H 0.96583 0.12749 0.81993 0.0
H868 H 0.94315 0.13649 0.82858 0.0
H869 H 0.94958 0.11271 0.83578 0.0
H870 H 0.95996 0.11462 0.91364 0.0
H871 H 0.92995 0.13193 0.92016 0.0
H872 H 0.93221 0.15522 0.86087 0.0
C873 C 0.00155 0.12187 0.84821 0.0
C874 C 0.01595 0.11123 0.85774 0.0
C875 C 0.01187 0.10319 0.87652 0.0
C876 C 0.99412 0.10657 0.88612 0.0
C877 C 0.98054 0.11774 0.87657 0.0
C878 C 0.98393 0.12495 0.85785 0.0
C879 C 0.96761 0.13732 0.8511 0.0
C880 C 0.97638 0.15842 0.84713 0.0
C881 C 0.95585 0.12793 0.83276 0.0
C882 C 0.95479 0.13648 0.86917 0.0
C883 C 0.9624 0.12511 0.88372 0.0
C884 C 0.95369 0.12327 0.90221 0.0
C885 C 0.93673 0.13323 0.90582 0.0
C886 C 0.92867 0.1448 0.89098 0.0
C887 C 0.93783 0.14629 0.87243 0.0
H888 H 0.36749 0.1379 0.23295 0.0
H889 H 0.42871 0.16417 0.24271 0.0
H890 H 0.42459 0.16307 0.27903 0.0
H891 H 0.3453 0.15931 0.27913 0.0
H892 H 0.32986 0.1367 0.28282 0.0
H893 H 0.33583 0.14419 0.25805 0.0
H894 H 0.35014 0.11109 0.25143 0.0
H895 H 0.34452 0.1036 0.27617 0.0
H896 H 0.36986 0.10381 0.26772 0.0
H897 H 0.41615 0.15358 0.3133 0.0
H898 H 0.40418 0.13661 0.34318 0.0
H899 H 0.3484 0.11548 0.31146 0.0
C900 C 0.37957 0.14436 0.24283 0.0
C901 C 0.39816 0.1518 0.23527 0.0
C902 C 0.41419 0.15905 0.2484 0.0
C903 C 0.41195 0.15842 0.269 0.0
C904 C 0.39364 0.15034 0.27611 0.0
C905 C 0.37763 0.14357 0.26343 0.0
C906 C 0.3607 0.13292 0.27467 0.0
C907 C 0.3418 0.14394 0.2736 0.0
C908 C 0.35605 0.1116 0.26704 0.0
C909 C 0.37007 0.13392 0.29548 0.0
C910 C 0.38889 0.14437 0.29604 0.0
C911 C 0.40126 0.14574 0.31315 0.0
C912 C 0.39435 0.13596 0.33004 0.0
C913 C 0.3753 0.12483 0.32969 0.0
C914 C 0.36286 0.12419 0.31229 0.0
H915 H 0.12955 0.15459 0.48665 0.0
H916 H 0.13926 0.09815 0.46044 0.0
H917 H 0.1387 0.08378 0.49359 0.0
H918 H 0.16084 0.15071 0.53038 0.0
H919 H 0.14464 0.16276 0.54645 0.0
H920 H 0.14533 0.16851 0.52054 0.0
H921 H 0.10668 0.15989 0.51712 0.0
H922 H 0.10592 0.15389 0.54299 0.0
H923 H 0.0958 0.13611 0.52433 0.0
H924 H 0.13768 0.07548 0.52953 0.0
H925 H 0.13836 0.07444 0.56612 0.0
H926 H 0.12908 0.13607 0.56912 0.0
C927 C 0.13159 0.13922 0.48786 0.0
C928 C 0.13443 0.12754 0.47086 0.0
C929 C 0.13706 0.10746 0.47318 0.0
C930 C 0.13668 0.0991 0.49196 0.0
C931 C 0.13364 0.11096 0.50835 0.0
C932 C 0.13126 0.13061 0.50654 0.0
C933 C 0.12879 0.14019 0.52664 0.0
C934 C 0.14593 0.1565 0.53127 0.0
C935 C 0.10806 0.14797 0.52783 0.0
C936 C 0.13035 0.1229 0.54002 0.0
C937 C 0.133 0.10615 0.52914 0.0
C938 C 0.1355 0.08848 0.53822 0.0
C939 C 0.13581 0.08801 0.55901 0.0
C940 C 0.13364 0.10512 0.5705 0.0
C941 C 0.13049 0.12267 0.56078 0.0
H942 H 0.13335 0.90627 0.80262 0.0
H943 H 0.13316 0.84456 0.81503 0.0
H944 H 0.12182 0.83616 0.78033 0.0
H945 H 0.08808 0.90067 0.7705 0.0
H946 H 0.09739 0.91978 0.75425 0.0
H947 H 0.1054 0.92075 0.78004 0.0
H948 H 0.14267 0.92318 0.76995 0.0
H949 H 0.13478 0.9221 0.74414 0.0
H950 H 0.15087 0.90465 0.75364 0.0
H951 H 0.11329 0.8348 0.74337 0.0
H952 H 0.10425 0.8405 0.70814 0.0
H953 H 0.10719 0.90283 0.72104 0.0
C954 C 0.13081 0.89099 0.79804 0.0
C955 C 0.13421 0.87605 0.81141 0.0
C956 C 0.13055 0.85621 0.80498 0.0
C957 C 0.12421 0.85131 0.78531 0.0
C958 C 0.12121 0.86642 0.7724 0.0
C959 C 0.12404 0.88584 0.77861 0.0
C960 C 0.11934 0.89929 0.76198 0.0
C961 C 0.10149 0.9108 0.76699 0.0
C962 C 0.13803 0.91312 0.75715 0.0
C963 C 0.11376 0.88443 0.74534 0.0
C964 C 0.11515 0.86556 0.75155 0.0
C965 C 0.11183 0.8495 0.73842 0.0
C966 C 0.1068 0.85284 0.71847 0.0
C967 C 0.10477 0.87204 0.71204 0.0
C968 C 0.10826 0.88796 0.72569 0.0
H969 H 0.36588 0.88868 0.97764 0.0
H970 H 0.38829 0.83228 0.98731 0.0
H971 H 0.38575 0.83706 0.02328 0.0
H972 H 0.39061 0.91369 0.02266 0.0
H973 H 0.36944 0.92724 0.02741 0.0
H974 H 0.37478 0.92047 0.0023 0.0
H975 H 0.33858 0.90327 0.99737 0.0
H976 H 0.33314 0.90995 0.02242 0.0
H977 H 0.32968 0.88464 0.01433 0.0
H978 H 0.37785 0.84588 0.05744 0.0
H979 H 0.36535 0.85879 0.08853 0.0
H980 H 0.3487 0.91005 0.05792 0.0
C981 C 0.37058 0.87752 0.98736 0.0
C982 C 0.3773 0.8601 0.9796 0.0
C983 C 0.38305 0.84572 0.99283 0.0
C984 C 0.38176 0.84832 0.01333 0.0
C985 C 0.37479 0.86543 0.02049 0.0
C986 C 0.36938 0.87987 0.008 0.0
C987 C 0.36123 0.89631 0.01968 0.0
C988 C 0.37483 0.91557 0.0179 0.0
C989 C 0.33936 0.89867 0.01305 0.0
C990 C 0.36244 0.88854 0.04055 0.0
C991 C 0.37045 0.87076 0.04059 0.0
C992 C 0.37185 0.85994 0.0577 0.0
C993 C 0.36464 0.86735 0.07526 0.0
C994 C 0.35624 0.88546 0.07562 0.0
C995 C 0.35544 0.89635 0.05811 0.0
H996 H 0.37977 0.89709 0.28009 0.0
H997 H 0.42806 0.86366 0.26178 0.0
H998 H 0.41698 0.8664 0.22667 0.0
H999 H 0.34236 0.87769 0.24338 0.0
H1000 H 0.33236 0.90082 0.23977 0.0
H1001 H 0.34373 0.89563 0.2634 0.0
H1002 H 0.36832 0.92718 0.26152 0.0
H1003 H 0.35703 0.93247 0.23788 0.0
H1004 H 0.38376 0.9308 0.24021 0.0
H1005 H 0.40001 0.87225 0.19357 0.0
H1006 H 0.37996 0.88268 0.16493 0.0
H1007 H 0.34409 0.91375 0.20509 0.0
C1008 C 0.38794 0.89023 0.26871 0.0
C1009 C 0.40468 0.88004 0.27364 0.0
C1010 C 0.41518 0.87154 0.2583 0.0
C1011 C 0.40897 0.87296 0.23835 0.0
C1012 C 0.39239 0.88314 0.234 0.0
C1013 C 0.38215 0.89178 0.24874 0.0
C1014 C 0.3653 0.90251 0.24013 0.0
C1015 C 0.34472 0.89363 0.24708 0.0
C1016 C 0.36882 0.92454 0.24524 0.0
C1017 C 0.36759 0.8985 0.21822 0.0
C1018 C 0.38317 0.88715 0.21498 0.0
C1019 C 0.38785 0.88123 0.19593 0.0
C1020 C 0.37635 0.88718 0.17977 0.0
C1021 C 0.36056 0.89912 0.18278 0.0
C1022 C 0.35619 0.90479 0.20229 0.0
H1023 H 0.35972 0.17735 0.50082 0.0
H1024 H 0.36849 0.13174 0.54285 0.0
H1025 H 0.36785 0.10751 0.51516 0.0
H1026 H 0.32617 0.14989 0.46771 0.0
H1027 H 0.33643 0.1604 0.44549 0.0
H1028 H 0.33876 0.17438 0.46845 0.0
H1029 H 0.37751 0.17945 0.46545 0.0
H1030 H 0.3753 0.16562 0.44235 0.0
H1031 H 0.39138 0.15846 0.46232 0.0
H1032 H 0.36185 0.08775 0.48335 0.0
H1033 H 0.35569 0.07446 0.44904 0.0
H1034 H 0.35405 0.13333 0.42752 0.0
C1035 C 0.3618 0.16231 0.50414 0.0
C1036 C 0.36409 0.15634 0.52391 0.0
C1037 C 0.36684 0.13659 0.52775 0.0
C1038 C 0.36641 0.12273 0.51215 0.0
C1039 C 0.36368 0.129 0.49282 0.0
C1040 C 0.36189 0.14839 0.48872 0.0
C1041 C 0.35909 0.15129 0.46665 0.0
C1042 C 0.33891 0.15947 0.4618 0.0
C1043 C 0.37688 0.16449 0.45873 0.0
C1044 C 0.359 0.13042 0.45902 0.0
C1045 C 0.36149 0.11775 0.47437 0.0
C1046 C 0.36033 0.09756 0.47116 0.0
C1047 C 0.35671 0.09014 0.4517 0.0
C1048 C 0.35468 0.10294 0.43576 0.0
C1049 C 0.35597 0.12331 0.43947 0.0
H1050 H 0.12192 0.0896 0.78204 0.0
H1051 H 0.06426 0.1128 0.77302 0.0
H1052 H 0.069 0.11277 0.73687 0.0
H1053 H 0.14783 0.11706 0.7453 0.0
H1054 H 0.16218 0.09759 0.73749 0.0
H1055 H 0.1538 0.09861 0.76255 0.0
H1056 H 0.13599 0.06341 0.75819 0.0
H1057 H 0.14437 0.06226 0.73312 0.0
H1058 H 0.11794 0.05777 0.73791 0.0
H1059 H 0.08111 0.11204 0.70167 0.0
H1060 H 0.09902 0.1093 0.67032 0.0
H1061 H 0.14813 0.08582 0.70265 0.0
C1062 C 0.11019 0.09453 0.77249 0.0
C1063 C 0.09272 0.10121 0.78042 0.0
C1064 C 0.07776 0.10755 0.76733 0.0
C1065 C 0.08032 0.10761 0.74676 0.0
C1066 C 0.09783 0.10115 0.73946 0.0
C1067 C 0.11243 0.09457 0.75193 0.0
C1068 C 0.13 0.08866 0.74041 0.0
C1069 C 0.14961 0.10124 0.74682 0.0
C1070 C 0.13219 0.06672 0.74254 0.0
C1071 C 0.12316 0.09319 0.71955 0.0
C1072 C 0.10458 0.10039 0.71926 0.0
C1073 C 0.09559 0.10624 0.70169 0.0
C1074 C 0.10588 0.10468 0.68397 0.0
C1075 C 0.12492 0.09724 0.68397 0.0
C1076 C 0.13351 0.09137 0.70205 0.0
H1077 H 0.11718 0.85523 0.01691 0.0
H1078 H 0.11066 0.79217 0.00903 0.0
H1079 H 0.10827 0.79565 0.97265 0.0
H1080 H 0.08569 0.86723 0.9722 0.0
H1081 H 0.10294 0.88816 0.96671 0.0
H1082 H 0.09977 0.88092 0.99206 0.0
H1083 H 0.13818 0.87883 0.99623 0.0
H1084 H 0.14146 0.88599 0.97096 0.0
H1085 H 0.15035 0.86353 0.97931 0.0
H1086 H 0.11074 0.80557 0.93776 0.0
H1087 H 0.12043 0.82101 0.90643 0.0
H1088 H 0.12747 0.87798 0.93631 0.0
C1089 C 0.11448 0.84224 0.00745 0.0
C1090 C 0.11359 0.82342 0.0156 0.0
C1091 C 0.11103 0.80666 0.00294 0.0
C1092 C 0.10958 0.80852 0.98231 0.0
C1093 C 0.11101 0.82727 0.97461 0.0
C1094 C 0.11351 0.84387 0.98675 0.0
C1095 C 0.11756 0.86215 0.97463 0.0
C1096 C 0.10047 0.8754 0.97651 0.0
C1097 C 0.13811 0.87327 0.98064 0.0
C1098 C 0.11765 0.85315 0.9539 0.0
C1099 C 0.11334 0.83306 0.95424 0.0
C1100 C 0.11386 0.82132 0.93724 0.0
C1101 C 0.11944 0.83024 0.9195 0.0
C1102 C 0.12466 0.85072 0.91888 0.0
C1103 C 0.12325 0.86235 0.93624 0.0
H1104 H 0.32408 0.4015 0.10518 0.0
H1105 H 0.31168 0.34243 0.12608 0.0
H1106 H 0.27849 0.3505 0.13744 0.0
H1107 H 0.29668 0.42729 0.143 0.0
H1108 H 0.28739 0.44346 0.12493 0.0
H1109 H 0.31137 0.43407 0.12181 0.0
H1110 H 0.29938 0.42033 0.08687 0.0
H1111 H 0.27542 0.42963 0.08988 0.0
H1112 H 0.27651 0.40401 0.08421 0.0
H1113 H 0.24562 0.36456 0.14428 0.0
H1114 H 0.21485 0.38185 0.1426 0.0
H1115 H 0.24817 0.43066 0.11459 0.0
C1116 C 0.31464 0.39045 0.11272 0.0
C1117 C 0.32056 0.37146 0.11516 0.0
C1118 C 0.30748 0.35713 0.12432 0.0
C1119 C 0.28867 0.36163 0.13088 0.0
C1120 C 0.28311 0.38043 0.1279 0.0
C1121 C 0.29569 0.39455 0.11887 0.0
C1122 C 0.28529 0.41277 0.11502 0.0
C1123 C 0.29581 0.43044 0.12691 0.0
C1124 C 0.28407 0.41691 0.09268 0.0
C1125 C 0.26472 0.40658 0.12287 0.0
C1126 C 0.26388 0.38809 0.13072 0.0
C1127 C 0.24617 0.37909 0.13829 0.0
C1128 C 0.22879 0.38904 0.13735 0.0
C1129 C 0.22916 0.40758 0.12848 0.0
C1130 C 0.24747 0.41653 0.12152 0.0
H1131 H 0.72009 0.13281 0.8946 0.0
H1132 H 0.7292 0.09082 0.84759 0.0
H1133 H 0.76584 0.10032 0.85028 0.0
H1134 H 0.75924 0.17022 0.8815 0.0
H1135 H 0.7666 0.1766 0.90694 0.0
H1136 H 0.74099 0.16719 0.9006 0.0
H1137 H 0.74341 0.13966 0.92603 0.0
H1138 H 0.76903 0.14895 0.9324 0.0
H1139 H 0.76325 0.12381 0.92424 0.0
H1140 H 0.80141 0.11438 0.85806 0.0
H1141 H 0.83369 0.13097 0.87151 0.0
H1142 H 0.80138 0.16257 0.91448 0.0
C1143 C 0.72978 0.12577 0.88474 0.0
C1144 C 0.72183 0.11117 0.87081 0.0
C1145 C 0.735 0.10204 0.85838 0.0
C1146 C 0.75581 0.10737 0.85976 0.0
C1147 C 0.76319 0.1217 0.87375 0.0
C1148 C 0.7506 0.1307 0.88611 0.0
C1149 C 0.76245 0.14506 0.90045 0.0
C1150 C 0.75699 0.16601 0.89717 0.0
C1151 C 0.75935 0.139 0.92206 0.0
C1152 C 0.78365 0.14271 0.89423 0.0
C1153 C 0.78374 0.12931 0.87869 0.0
C1154 C 0.80155 0.12487 0.87026 0.0
C1155 C 0.81979 0.13438 0.87798 0.0
C1156 C 0.82003 0.14797 0.89409 0.0
C1157 C 0.80169 0.15213 0.90227 0.0
H1158 H 0.12464 0.48194 0.13305 0.0
H1159 H 0.18783 0.4928 0.11943 0.0
H1160 H 0.18533 0.52839 0.12173 0.0
H1161 H 0.10751 0.52269 0.10574 0.0
H1162 H 0.08945 0.5279 0.12391 0.0
H1163 H 0.09597 0.50327 0.1204 0.0
H1164 H 0.10588 0.50193 0.15779 0.0
H1165 H 0.09927 0.52648 0.16143 0.0
H1166 H 0.12411 0.52054 0.16872 0.0
H1167 H 0.17641 0.56279 0.12734 0.0
H1168 H 0.16189 0.59332 0.1363 0.0
H1169 H 0.1043 0.56009 0.14537 0.0
C1170 C 0.13796 0.49176 0.13044 0.0
C1171 C 0.15646 0.4845 0.12605 0.0
C1172 C 0.17349 0.49794 0.12279 0.0
C1173 C 0.17221 0.51821 0.12402 0.0
C1174 C 0.15376 0.52484 0.12838 0.0
C1175 C 0.13693 0.51202 0.13151 0.0
C1176 C 0.11904 0.5229 0.13658 0.0
C1177 C 0.10199 0.51895 0.12071 0.0
C1178 C 0.11165 0.51765 0.15736 0.0
C1179 C 0.12852 0.54387 0.13612 0.0
C1180 C 0.14853 0.54466 0.13128 0.0
C1181 C 0.1607 0.56235 0.13093 0.0
C1182 C 0.15231 0.57962 0.13603 0.0
C1183 C 0.13191 0.57912 0.14133 0.0
C1184 C 0.11983 0.561 0.14101 0.0
H1185 H 0.68344 0.86222 0.3944 0.0
H1186 H 0.6987 0.8069 0.41757 0.0
H1187 H 0.73416 0.81537 0.4092 0.0
H1188 H 0.71739 0.86485 0.35375 0.0
H1189 H 0.72402 0.89086 0.35671 0.0
H1190 H 0.69962 0.88018 0.36378 0.0
H1191 H 0.70609 0.89537 0.39919 0.0
H1192 H 0.73046 0.90616 0.39221 0.0
H1193 H 0.72835 0.89051 0.41332 0.0
H1194 H 0.76764 0.82948 0.39795 0.0
H1195 H 0.79783 0.84959 0.38725 0.0
H1196 H 0.76126 0.89656 0.37291 0.0
C1197 C 0.69424 0.85187 0.39761 0.0
C1198 C 0.68834 0.83386 0.40652 0.0
C1199 C 0.70293 0.82079 0.41078 0.0
C1200 C 0.72307 0.82542 0.406 0.0
C1201 C 0.72838 0.84326 0.39717 0.0
C1202 C 0.71447 0.85639 0.39322 0.0
C1203 C 0.72436 0.87495 0.38451 0.0
C1204 C 0.71584 0.87787 0.36344 0.0
C1205 C 0.72218 0.8928 0.39812 0.0
C1206 C 0.74599 0.87018 0.38418 0.0
C1207 C 0.74791 0.85173 0.39133 0.0
C1208 C 0.76637 0.84397 0.39236 0.0
C1209 C 0.78341 0.85549 0.38617 0.0
C1210 C 0.78191 0.87466 0.37927 0.0
C1211 C 0.76289 0.88199 0.37817 0.0
H1212 H 0.88939 0.95821 0.12785 0.0
H1213 H 0.83257 0.92171 0.12096 0.0
H1214 H 0.81506 0.95087 0.11439 0.0
H1215 H 0.87173 0.99527 0.15427 0.0
H1216 H 0.88661 0.01531 0.14327 0.0
H1217 H 0.89552 0.99148 0.14368 0.0
H1218 H 0.89854 0.99156 0.1055 0.0
H1219 H 0.8898 0.01554 0.10496 0.0
H1220 H 0.877 0.99579 0.08997 0.0
H1221 H 0.80282 0.98364 0.11526 0.0
H1222 H 0.79704 0.01828 0.12076 0.0
H1223 H 0.86146 0.03436 0.12514 0.0
C1224 C 0.87339 0.95631 0.1242 0.0
C1225 C 0.86237 0.93765 0.12482 0.0
C1226 C 0.84136 0.93582 0.12051 0.0
C1227 C 0.83125 0.95232 0.11671 0.0
C1228 C 0.84237 0.97059 0.11703 0.0
C1229 C 0.86303 0.97271 0.12032 0.0
C1230 C 0.87104 0.9942 0.12171 0.0
C1231 C 0.88186 0.99936 0.14193 0.0
C1232 C 0.88492 0.99959 0.1045 0.0
C1233 C 0.85157 0.00374 0.11964 0.0
C1234 C 0.83524 0.9898 0.1168 0.0
C1235 C 0.8155 0.99475 0.11685 0.0
C1236 C 0.81234 0.01441 0.12005 0.0
C1237 C 0.82881 0.02891 0.12288 0.0
C1238 C 0.84866 0.02357 0.1223 0.0
H1239 H 0.18447 0.65195 0.60746 0.0
H1240 H 0.15241 0.59914 0.62961 0.0
H1241 H 0.18479 0.58626 0.63769 0.0
H1242 H 0.22231 0.62896 0.58412 0.0
H1243 H 0.24236 0.64787 0.59033 0.0
H1244 H 0.21679 0.65389 0.5879 0.0
H1245 H 0.21937 0.66918 0.62345 0.0
H1246 H 0.24506 0.66345 0.6259 0.0
H1247 H 0.22709 0.65486 0.64392 0.0
H1248 H 0.22051 0.57795 0.64093 0.0
H1249 H 0.25718 0.57578 0.64123 0.0
H1250 H 0.26608 0.63399 0.61701 0.0
C1251 C 0.18425 0.63787 0.61442 0.0
C1252 C 0.16587 0.62661 0.61799 0.0
C1253 C 0.16628 0.60809 0.62681 0.0
C1254 C 0.18461 0.60061 0.63142 0.0
C1255 C 0.20243 0.61183 0.62718 0.0
C1256 C 0.20243 0.63015 0.61908 0.0
C1257 C 0.22368 0.63889 0.61531 0.0
C1258 C 0.22643 0.64261 0.59309 0.0
C1259 C 0.22912 0.65771 0.6279 0.0
C1260 C 0.23559 0.62251 0.62229 0.0
C1261 C 0.22305 0.60705 0.62909 0.0
C1262 C 0.23051 0.59005 0.63581 0.0
C1263 C 0.25137 0.58892 0.63583 0.0
C1264 C 0.26459 0.60471 0.62918 0.0
C1265 C 0.25645 0.62167 0.62226 0.0
H1266 H 0.1418 0.42603 0.33954 0.0
H1267 H 0.12125 0.41554 0.39907 0.0
H1268 H 0.13572 0.44894 0.40956 0.0
H1269 H 0.18936 0.45607 0.35463 0.0
H1270 H 0.18751 0.47172 0.33366 0.0
H1271 H 0.17732 0.44643 0.33168 0.0
H1272 H 0.14259 0.45712 0.32071 0.0
H1273 H 0.15258 0.4824 0.32281 0.0
H1274 H 0.13073 0.47385 0.33637 0.0
H1275 H 0.14814 0.48521 0.4119 0.0
H1276 H 0.16033 0.51996 0.40675 0.0
H1277 H 0.17451 0.50546 0.34626 0.0
C1278 C 0.1407 0.43061 0.35489 0.0
C1279 C 0.13041 0.41826 0.36851 0.0
C1280 C 0.12923 0.42476 0.38846 0.0
C1281 C 0.13735 0.44371 0.39451 0.0
C1282 C 0.14693 0.45574 0.38052 0.0
C1283 C 0.14898 0.44926 0.36122 0.0
C1284 C 0.1592 0.46516 0.34879 0.0
C1285 C 0.17956 0.4595 0.34178 0.0
C1286 C 0.14545 0.46991 0.33114 0.0
C1287 C 0.162 0.48184 0.3639 0.0
C1288 C 0.15483 0.4762 0.38213 0.0
C1289 C 0.15423 0.48966 0.39783 0.0
C1290 C 0.1611 0.50935 0.39477 0.0
C1291 C 0.16864 0.51529 0.37622 0.0
C1292 C 0.16929 0.50126 0.36075 0.0
H1293 H 0.37145 0.56859 0.84051 0.0
H1294 H 0.39391 0.57642 0.90153 0.0
H1295 H 0.37748 0.54362 0.90919 0.0
H1296 H 0.32267 0.54118 0.85167 0.0
H1297 H 0.323 0.52578 0.82974 0.0
H1298 H 0.33479 0.55056 0.82984 0.0
H1299 H 0.36831 0.53786 0.81957 0.0
H1300 H 0.35669 0.51309 0.81952 0.0
H1301 H 0.37922 0.51993 0.83454 0.0
H1302 H 0.36243 0.50817 0.90871 0.0
H1303 H 0.34809 0.47414 0.90071 0.0
H1304 H 0.3342 0.4908 0.8405 0.0
C1305 C 0.37264 0.56356 0.85558 0.0
C1306 C 0.38398 0.57497 0.87043 0.0
C1307 C 0.38518 0.56791 0.88997 0.0
C1308 C 0.37593 0.54932 0.89444 0.0
C1309 C 0.36524 0.53822 0.87928 0.0
C1310 C 0.3633 0.54525 0.86033 0.0
C1311 C 0.35183 0.53024 0.84642 0.0
C1312 C 0.33189 0.53737 0.83899 0.0
C1313 C 0.36479 0.52497 0.829 0.0
C1314 C 0.34822 0.51337 0.86031 0.0
C1315 C 0.35599 0.5182 0.87922 0.0
C1316 C 0.35591 0.50436 0.89408 0.0
C1317 C 0.3478 0.48508 0.88939 0.0
C1318 C 0.33982 0.47993 0.87007 0.0
C1319 C 0.33979 0.49439 0.85552 0.0
H1320 H 0.87239 0.70803 0.63994 0.0
H1321 H 0.86313 0.67381 0.58507 0.0
H1322 H 0.85103 0.7021 0.56829 0.0
H1323 H 0.82926 0.73974 0.6313 0.0
H1324 H 0.84408 0.76098 0.64201 0.0
H1325 H 0.84762 0.73696 0.65096 0.0
H1326 H 0.88564 0.7428 0.64396 0.0
H1327 H 0.88221 0.76671 0.63497 0.0
H1328 H 0.89327 0.74935 0.61938 0.0
H1329 H 0.84695 0.73494 0.55583 0.0
H1330 H 0.85052 0.77022 0.54879 0.0
H1331 H 0.86116 0.78389 0.61146 0.0
C1332 C 0.86702 0.70631 0.62462 0.0
C1333 C 0.86852 0.68869 0.61384 0.0
C1334 C 0.86202 0.68715 0.59363 0.0
C1335 C 0.85501 0.70312 0.58399 0.0
C1336 C 0.85446 0.72056 0.59477 0.0
C1337 C 0.86009 0.72225 0.61471 0.0
C1338 C 0.86059 0.74331 0.62212 0.0
C1339 C 0.84442 0.74536 0.63751 0.0
C1340 C 0.88168 0.75098 0.63059 0.0
C1341 C 0.85551 0.7533 0.60301 0.0
C1342 C 0.85167 0.73982 0.58749 0.0
C1343 C 0.84926 0.74561 0.56793 0.0
C1344 C 0.85133 0.76565 0.56405 0.0
C1345 C 0.85559 0.77966 0.57964 0.0
C1346 C 0.85709 0.77343 0.59941 0.0
H1347 H 0.97583 0.14236 0.38428 0.0
H1348 H 0.97439 0.09931 0.33607 0.0
H1349 H 0.01141 0.0997 0.33935 0.0
H1350 H 0.022 0.17035 0.37112 0.0
H1351 H 0.03032 0.17532 0.39658 0.0
H1352 H 0.0038 0.17176 0.39013 0.0
H1353 H 0.99913 0.14408 0.41563 0.0
H1354 H 0.02562 0.14755 0.42215 0.0
H1355 H 0.01413 0.12374 0.41403 0.0
H1356 H 0.04876 0.10402 0.34898 0.0
H1357 H 0.08312 0.11262 0.36352 0.0
H1358 H 0.0595 0.15334 0.40463 0.0
C1359 C 0.98326 0.13301 0.37436 0.0
C1360 C 0.97218 0.12076 0.35995 0.0
C1361 C 0.98255 0.10885 0.34722 0.0
C1362 C 0.00358 0.10895 0.34897 0.0
C1363 C 0.01401 0.12116 0.36342 0.0
C1364 C 0.00417 0.13305 0.3758 0.0
C1365 C 0.01876 0.14479 0.39016 0.0
C1366 C 0.01871 0.16686 0.38678 0.0
C1367 C 0.01413 0.13972 0.41177 0.0
C1368 C 0.03834 0.13752 0.38409 0.0
C1369 C 0.03536 0.12389 0.36867 0.0
C1370 C 0.05128 0.11478 0.36098 0.0
C1371 C 0.07073 0.11974 0.36934 0.0
C1372 C 0.07405 0.13372 0.38515 0.0
C1373 C 0.05756 0.14272 0.39246 0.0
H1374 H 0.62181 0.21749 0.11696 0.0
H1375 H 0.62533 0.22593 0.05366 0.0
H1376 H 0.6295 0.26176 0.05936 0.0
H1377 H 0.59053 0.2529 0.1247 0.0
H1378 H 0.6008 0.26143 0.14874 0.0
H1379 H 0.60318 0.23677 0.14048 0.0
H1380 H 0.64191 0.24258 0.14592 0.0
H1381 H 0.63964 0.26733 0.15433 0.0
H1382 H 0.65573 0.26281 0.13415 0.0
H1383 H 0.62802 0.29575 0.07096 0.0
H1384 H 0.61901 0.32583 0.08731 0.0
H1385 H 0.61463 0.29604 0.14335 0.0
C1386 C 0.62433 0.22697 0.10445 0.0
C1387 C 0.62377 0.21913 0.08491 0.0
C1388 C 0.62608 0.23179 0.06873 0.0
C1389 C 0.62853 0.25211 0.07186 0.0
C1390 C 0.6284 0.25951 0.09125 0.0
C1391 C 0.62631 0.24736 0.10732 0.0
C1392 C 0.62345 0.259 0.12622 0.0
C1393 C 0.60329 0.25211 0.13557 0.0
C1394 C 0.64125 0.25786 0.14103 0.0
C1395 C 0.62335 0.27941 0.1181 0.0
C1396 C 0.62676 0.27939 0.09799 0.0
C1397 C 0.62569 0.29605 0.08676 0.0
C1398 C 0.62047 0.31306 0.09619 0.0
C1399 C 0.6162 0.31329 0.11662 0.0
C1400 C 0.61821 0.29639 0.12781 0.0
H1401 H 0.44625 0.84005 0.90422 0.0
H1402 H 0.41698 0.88016 0.86679 0.0
H1403 H 0.44804 0.88581 0.84767 0.0
H1404 H 0.49419 0.86777 0.90718 0.0
H1405 H 0.50802 0.84655 0.90717 0.0
H1406 H 0.48318 0.84507 0.91696 0.0
H1407 H 0.47182 0.8159 0.89282 0.0
H1408 H 0.4966 0.81739 0.88284 0.0
H1409 H 0.47487 0.81872 0.86654 0.0
H1410 H 0.48261 0.88677 0.83266 0.0
H1411 H 0.51849 0.88565 0.82522 0.0
H1412 H 0.52488 0.84584 0.87364 0.0
C1413 C 0.44627 0.84994 0.89191 0.0
C1414 C 0.42915 0.85956 0.88687 0.0
C1415 C 0.42994 0.87264 0.87089 0.0
C1416 C 0.44746 0.87584 0.8599 0.0
C1417 C 0.46403 0.86597 0.86522 0.0
C1418 C 0.46361 0.85346 0.88101 0.0
C1419 C 0.48365 0.8454 0.88447 0.0
C1420 C 0.4928 0.85157 0.90517 0.0
C1421 C 0.4816 0.82303 0.88148 0.0
C1422 C 0.49556 0.85541 0.86823 0.0
C1423 C 0.48394 0.867 0.85708 0.0
C1424 C 0.49182 0.87774 0.84131 0.0
C1425 C 0.51219 0.87694 0.83714 0.0
C1426 C 0.5245 0.86568 0.84887 0.0
C1427 C 0.5159 0.8546 0.86442 0.0
H1428 H 0.9011 0.23364 0.88155 0.0
H1429 H 0.86398 0.24371 0.93168 0.0
H1430 H 0.86404 0.27839 0.92276 0.0
H1431 H 0.93172 0.28038 0.88557 0.0
H1432 H 0.93326 0.28259 0.85906 0.0
H1433 H 0.93054 0.25874 0.86982 0.0
H1434 H 0.89877 0.24924 0.84721 0.0
H1435 H 0.90125 0.27315 0.83656 0.0
H1436 H 0.87809 0.26419 0.84778 0.0
H1437 H 0.86677 0.31181 0.90714 0.0
H1438 H 0.87479 0.34181 0.88798 0.0
H1439 H 0.91068 0.30959 0.84886 0.0
C1440 C 0.89313 0.24315 0.89078 0.0
C1441 C 0.88252 0.23592 0.9073 0.0
C1442 C 0.8723 0.24891 0.91899 0.0
C1443 C 0.87215 0.26862 0.91399 0.0
C1444 C 0.88243 0.27516 0.89736 0.0
C1445 C 0.89296 0.26286 0.88611 0.0
C1446 C 0.90293 0.2735 0.86906 0.0
C1447 C 0.92598 0.27383 0.871 0.0
C1448 C 0.89476 0.26448 0.84897 0.0
C1449 C 0.89627 0.29368 0.8724 0.0
C1450 C 0.88434 0.29437 0.88869 0.0
C1451 C 0.87621 0.31147 0.89442 0.0
C1452 C 0.88073 0.3284 0.88339 0.0
C1453 C 0.8934 0.32807 0.86698 0.0
C1454 C 0.90104 0.31038 0.86139 0.0
H1455 H 0.42054 0.16687 0.64487 0.0
H1456 H 0.41278 0.13678 0.58754 0.0
H1457 H 0.44352 0.12043 0.5946 0.0
H1458 H 0.47228 0.1776 0.64283 0.0
H1459 H 0.47745 0.17462 0.66893 0.0
H1460 H 0.45339 0.18155 0.66058 0.0
H1461 H 0.43548 0.1518 0.6782 0.0
H1462 H 0.45956 0.14475 0.68661 0.0
H1463 H 0.44215 0.12755 0.67257 0.0
H1464 H 0.47671 0.10941 0.60699 0.0
H1465 H 0.51044 0.1067 0.62241 0.0
H1466 H 0.49665 0.14508 0.67088 0.0
C1467 C 0.42503 0.15648 0.63399 0.0
C1468 C 0.41418 0.15292 0.61575 0.0
C1469 C 0.42083 0.13963 0.60167 0.0
C1470 C 0.43821 0.13021 0.60559 0.0
C1471 C 0.44877 0.1343 0.62363 0.0
C1472 C 0.44243 0.14718 0.63756 0.0
C1473 C 0.45742 0.15064 0.65488 0.0
C1474 C 0.46562 0.17238 0.65691 0.0
C1475 C 0.44809 0.14324 0.67421 0.0
C1476 C 0.47346 0.1381 0.6483 0.0
C1477 C 0.46807 0.12846 0.63045 0.0
C1478 C 0.48099 0.11674 0.62107 0.0
C1479 C 0.50009 0.11523 0.62996 0.0
C1480 C 0.50614 0.12566 0.64784 0.0
C1481 C 0.49243 0.13686 0.65725 0.0
H1482 H 0.61985 0.74631 0.41329 0.0
H1483 H 0.58581 0.77864 0.37164 0.0
H1484 H 0.57452 0.74795 0.35313 0.0
H1485 H 0.63758 0.71464 0.37757 0.0
H1486 H 0.63601 0.69338 0.39287 0.0
H1487 H 0.6399 0.71747 0.40421 0.0
H1488 H 0.60838 0.70982 0.42518 0.0
H1489 H 0.60449 0.68561 0.41403 0.0
H1490 H 0.58458 0.70147 0.41293 0.0
H1491 H 0.56838 0.71459 0.3382 0.0
H1492 H 0.56756 0.68017 0.32736 0.0
H1493 H 0.60646 0.669 0.37792 0.0
C1494 C 0.60968 0.74684 0.40052 0.0
C1495 C 0.60356 0.76482 0.39396 0.0
C1496 C 0.59063 0.76502 0.37692 0.0
C1497 C 0.58412 0.74767 0.36634 0.0
C1498 C 0.59076 0.73027 0.37293 0.0
C1499 C 0.60322 0.72965 0.38961 0.0
C1500 C 0.60907 0.70913 0.39273 0.0
C1501 C 0.632 0.70864 0.39178 0.0
C1502 C 0.60115 0.70103 0.41238 0.0
C1503 C 0.59814 0.69839 0.37504 0.0
C1504 C 0.58755 0.7109 0.36396 0.0
C1505 C 0.57651 0.70461 0.34679 0.0
C1506 C 0.57619 0.68499 0.34075 0.0
C1507 C 0.58696 0.67182 0.35177 0.0
C1508 C 0.59809 0.67868 0.36916 0.0
H1509 H 0.06143 0.85905 0.13975 0.0
H1510 H 0.05413 0.87155 0.07729 0.0
H1511 H 0.02264 0.88633 0.08422 0.0
H1512 H 0.0112 0.84351 0.14669 0.0
H1513 H 0.01079 0.85343 0.17161 0.0
H1514 H 0.03395 0.84658 0.16206 0.0
H1515 H 0.05105 0.88157 0.17001 0.0
H1516 H 0.02784 0.88856 0.17954 0.0
H1517 H 0.04004 0.90237 0.1601 0.0
H1518 H 0.99053 0.89753 0.09792 0.0
H1519 H 0.95958 0.90121 0.11626 0.0
H1520 H 0.9879 0.88002 0.16929 0.0
C1521 C 0.05347 0.86527 0.12756 0.0
C1522 C 0.06033 0.86435 0.10801 0.0
C1523 C 0.04919 0.87221 0.09241 0.0
C1524 C 0.03136 0.88072 0.09623 0.0
C1525 C 0.0249 0.88118 0.11571 0.0
C1526 C 0.03562 0.87355 0.13107 0.0
C1527 C 0.0246 0.87394 0.15029 0.0
C1528 C 0.01985 0.85313 0.15811 0.0
C1529 C 0.0366 0.88742 0.1659 0.0
C1530 C 0.0057 0.88251 0.1433 0.0
C1531 C 0.00628 0.88701 0.12342 0.0
C1532 C 0.99002 0.89424 0.11353 0.0
C1533 C 0.97253 0.89637 0.12409 0.0
C1534 C 0.97136 0.89095 0.14421 0.0
C1535 C 0.98838 0.88442 0.15396 0.0
H1536 H 0.60939 0.90345 0.681 0.0
H1537 H 0.66761 0.88059 0.68394 0.0
H1538 H 0.66028 0.86794 0.71739 0.0
H1539 H 0.61087 0.92066 0.73042 0.0
H1540 H 0.58426 0.91498 0.73372 0.0
H1541 H 0.5934 0.92024 0.70942 0.0
H1542 H 0.57575 0.887 0.69604 0.0
H1543 H 0.56664 0.88159 0.72037 0.0
H1544 H 0.58122 0.86471 0.70781 0.0
H1545 H 0.64666 0.85887 0.75129 0.0
H1546 H 0.62964 0.85712 0.78342 0.0
H1547 H 0.58133 0.8874 0.75802 0.0
C1548 C 0.6205 0.89552 0.68852 0.0
C1549 C 0.63898 0.89281 0.67982 0.0
C1550 C 0.65331 0.88274 0.69034 0.0
C1551 C 0.64922 0.87543 0.70927 0.0
C1552 C 0.63082 0.87844 0.71746 0.0
C1553 C 0.61679 0.8884 0.70743 0.0
C1554 C 0.59889 0.89118 0.71995 0.0
C1555 C 0.59674 0.91306 0.7236 0.0
C1556 C 0.57948 0.88048 0.71047 0.0
C1557 C 0.60511 0.88149 0.73877 0.0
C1558 C 0.62338 0.87389 0.737 0.0
C1559 C 0.6323 0.86469 0.75278 0.0
C1560 C 0.6225 0.86367 0.77093 0.0
C1561 C 0.60419 0.87212 0.77317 0.0
C1562 C 0.5953 0.88078 0.75674 0.0
H1563 H 0.87087 0.84524 0.50583 0.0
H1564 H 0.87587 0.9035 0.53293 0.0
H1565 H 0.87656 0.91785 0.49969 0.0
H1566 H 0.90387 0.8572 0.46519 0.0
H1567 H 0.88896 0.84131 0.44755 0.0
H1568 H 0.88937 0.83552 0.4735 0.0
H1569 H 0.85045 0.8343 0.47368 0.0
H1570 H 0.84992 0.83982 0.44771 0.0
H1571 H 0.83834 0.85505 0.46516 0.0
H1572 H 0.87503 0.92585 0.46353 0.0
H1573 H 0.87011 0.92675 0.42709 0.0
H1574 H 0.86743 0.8634 0.42362 0.0
C1575 C 0.87209 0.86102 0.50481 0.0
C1576 C 0.87328 0.87323 0.52203 0.0
C1577 C 0.87494 0.89382 0.51998 0.0
C1578 C 0.87543 0.90213 0.50116 0.0
C1579 C 0.87442 0.88968 0.48452 0.0
C1580 C 0.87276 0.86957 0.48615 0.0
C1581 C 0.87136 0.85944 0.46592 0.0
C1582 C 0.88947 0.84767 0.46287 0.0
C1583 C 0.85133 0.84639 0.46295 0.0
C1584 C 0.87215 0.87699 0.45264 0.0
C1585 C 0.87402 0.89431 0.46366 0.0
C1586 C 0.87382 0.9124 0.45473 0.0
C1587 C 0.87107 0.91278 0.43403 0.0
C1588 C 0.86867 0.89518 0.42251 0.0
C1589 C 0.86971 0.87713 0.43196 0.0
H1590 H 0.85375 0.08183 0.19834 0.0
H1591 H 0.86035 0.14288 0.18214 0.0
H1592 H 0.87425 0.15216 0.21582 0.0
H1593 H 0.83945 0.08878 0.24824 0.0
H1594 H 0.85368 0.06999 0.25805 0.0
H1595 H 0.8442 0.06819 0.23271 0.0
H1596 H 0.88027 0.06546 0.22059 0.0
H1597 H 0.88985 0.06715 0.2459 0.0
H1598 H 0.90021 0.08411 0.22797 0.0
H1599 H 0.88555 0.15486 0.252 0.0
H1600 H 0.89671 0.15036 0.28688 0.0
H1601 H 0.88482 0.08745 0.27835 0.0
C1602 C 0.85816 0.09714 0.20188 0.0
C1603 C 0.8559 0.11165 0.1877 0.0
C1604 C 0.86203 0.13152 0.1928 0.0
C1605 C 0.86985 0.13694 0.21189 0.0
C1606 C 0.87172 0.12228 0.22559 0.0
C1607 C 0.86634 0.10276 0.22072 0.0
C1608 C 0.87037 0.08981 0.23797 0.0
C1609 C 0.85075 0.07853 0.24463 0.0
C1610 C 0.88611 0.07581 0.23279 0.0
C1611 C 0.87866 0.10511 0.25336 0.0
C1612 C 0.87913 0.12377 0.24604 0.0
C1613 C 0.88547 0.1403 0.25784 0.0
C1614 C 0.89169 0.13763 0.27761 0.0
C1615 C 0.89179 0.11858 0.28517 0.0
C1616 C 0.88516 0.10218 0.27285 0.0
H1617 H 0.63558 0.13942 0.93195 0.0
H1618 H 0.63347 0.07605 0.92995 0.0
H1619 H 0.62399 0.07517 0.96507 0.0
H1620 H 0.65782 0.14649 0.97972 0.0
H1621 H 0.64377 0.16651 0.98659 0.0
H1622 H 0.64871 0.16202 0.96092 0.0
H1623 H 0.61047 0.15965 0.95205 0.0
H1624 H 0.60541 0.16424 0.97772 0.0
H1625 H 0.59342 0.14266 0.96491 0.0
H1626 H 0.61721 0.08151 0.00119 0.0
H1627 H 0.61283 0.09448 0.03506 0.0
H1628 H 0.61918 0.15364 0.01298 0.0
C1629 C 0.63284 0.12532 0.93878 0.0
C1630 C 0.63521 0.1078 0.92818 0.0
C1631 C 0.63165 0.08967 0.93775 0.0
C1632 C 0.62627 0.08902 0.95769 0.0
C1633 C 0.6244 0.10661 0.9678 0.0
C1634 C 0.62745 0.12441 0.95861 0.0
C1635 C 0.62533 0.14127 0.97294 0.0
C1636 C 0.64508 0.15486 0.97517 0.0
C1637 C 0.6076 0.15262 0.96652 0.0
C1638 C 0.62097 0.13021 0.99173 0.0
C1639 C 0.62041 0.11023 0.98848 0.0
C1640 C 0.61742 0.09711 0.00386 0.0
C1641 C 0.61499 0.10463 0.02306 0.0
C1642 C 0.61557 0.12508 0.0267 0.0
C1643 C 0.61847 0.13793 0.01071 0.0
H1644 H 0.64376 0.09019 0.7982 0.0
H1645 H 0.60858 0.12787 0.83227 0.0
H1646 H 0.59047 0.13601 0.80133 0.0
H1647 H 0.65 0.12137 0.75678 0.0
H1648 H 0.64856 0.10144 0.73881 0.0
H1649 H 0.6579 0.09804 0.76371 0.0
H1650 H 0.63107 0.06843 0.76727 0.0
H1651 H 0.62163 0.07175 0.74237 0.0
H1652 H 0.60483 0.07153 0.76277 0.0
H1653 H 0.57595 0.13942 0.76638 0.0
H1654 H 0.56795 0.13981 0.73032 0.0
H1655 H 0.6142 0.10114 0.7196 0.0
C1656 C 0.63213 0.10004 0.79923 0.0
C1657 C 0.62742 0.10827 0.81765 0.0
C1658 C 0.61238 0.12138 0.81829 0.0
C1659 C 0.602 0.12602 0.80083 0.0
C1660 C 0.60705 0.1176 0.7829 0.0
C1661 C 0.62191 0.10502 0.782 0.0
C1662 C 0.62516 0.09853 0.76089 0.0
C1663 C 0.64668 0.10525 0.75469 0.0
C1664 C 0.62038 0.07624 0.75817 0.0
C1665 C 0.60978 0.10938 0.74996 0.0
C1666 C 0.59931 0.12014 0.76288 0.0
C1667 C 0.58412 0.13111 0.75614 0.0
C1668 C 0.57965 0.13119 0.73565 0.0
C1669 C 0.59053 0.12058 0.72216 0.0
C1670 C 0.60574 0.10953 0.72951 0.0
H1671 H 0.6391 0.85939 0.47546 0.0
H1672 H 0.61203 0.80457 0.49774 0.0
H1673 H 0.61175 0.81963 0.53143 0.0
H1674 H 0.67293 0.86896 0.51578 0.0
H1675 H 0.67244 0.89515 0.51612 0.0
H1676 H 0.66721 0.88132 0.49327 0.0
H1677 H 0.63291 0.89562 0.48906 0.0
H1678 H 0.63809 0.90962 0.51188 0.0
H1679 H 0.61529 0.89328 0.50877 0.0
H1680 H 0.61607 0.84012 0.56278 0.0
H1681 H 0.62764 0.86327 0.59026 0.0
H1682 H 0.65522 0.90365 0.54806 0.0
C1683 C 0.63255 0.85082 0.48737 0.0
C1684 C 0.62508 0.83104 0.48411 0.0
C1685 C 0.61746 0.81986 0.50005 0.0
C1686 C 0.61722 0.82831 0.51915 0.0
C1687 C 0.62505 0.84779 0.52203 0.0
C1688 C 0.63278 0.85886 0.50662 0.0
C1689 C 0.64259 0.87861 0.51409 0.0
C1690 C 0.66513 0.88115 0.50955 0.0
C1691 C 0.63155 0.89527 0.50544 0.0
C1692 C 0.63945 0.87681 0.53614 0.0
C1693 C 0.62888 0.85912 0.54034 0.0
C1694 C 0.62431 0.85404 0.55968 0.0
C1695 C 0.63092 0.86729 0.57517 0.0
C1696 C 0.64238 0.8852 0.57127 0.0
C1697 C 0.64655 0.89003 0.55147 0.0
H1698 H 0.87769 0.89169 0.31212 0.0
H1699 H 0.8356 0.93548 0.3043 0.0
H1700 H 0.84395 0.93799 0.26926 0.0
H1701 H 0.91541 0.91377 0.27823 0.0
H1702 H 0.92146 0.89044 0.26872 0.0
H1703 H 0.91318 0.89267 0.29377 0.0
H1704 H 0.88449 0.86498 0.2863 0.0
H1705 H 0.89265 0.86269 0.26125 0.0
H1706 H 0.86703 0.86719 0.2657 0.0
H1707 H 0.85419 0.93408 0.2348 0.0
H1708 H 0.86732 0.92494 0.20257 0.0
H1709 H 0.90416 0.88476 0.23186 0.0
C1710 C 0.87043 0.90196 0.30309 0.0
C1711 C 0.85595 0.91335 0.31107 0.0
C1712 C 0.84672 0.92656 0.29866 0.0
C1713 C 0.85138 0.92814 0.27867 0.0
C1714 C 0.86544 0.91658 0.27122 0.0
C1715 C 0.87501 0.90386 0.28299 0.0
C1716 C 0.88915 0.89277 0.27089 0.0
C1717 C 0.9111 0.89771 0.27835 0.0
C1718 C 0.88295 0.87059 0.27104 0.0
C1719 C 0.88564 0.90099 0.25047 0.0
C1720 C 0.87189 0.91471 0.25111 0.0
C1721 C 0.86519 0.92357 0.23411 0.0
C1722 C 0.87267 0.91823 0.21587 0.0
C1723 C 0.88685 0.90428 0.21477 0.0
C1724 C 0.8936 0.89572 0.23235 0.0
H1725 H 0.86677 0.18259 0.00079 0.0
H1726 H 0.88889 0.13263 0.97153 0.0
H1727 H 0.8901 0.11593 0.00371 0.0
H1728 H 0.89654 0.17954 0.04837 0.0
H1729 H 0.87626 0.18718 0.06268 0.0
H1730 H 0.87979 0.19592 0.03789 0.0
H1731 H 0.84293 0.18285 0.02818 0.0
H1732 H 0.83933 0.17398 0.05281 0.0
H1733 H 0.83459 0.15742 0.03172 0.0
H1734 H 0.88325 0.10281 0.03812 0.0
H1735 H 0.87179 0.09567 0.07205 0.0
H1736 H 0.8564 0.15525 0.07865 0.0
C1737 C 0.87233 0.16833 0.00124 0.0
C1738 C 0.87772 0.15885 0.98376 0.0
C1739 C 0.88486 0.14018 0.98485 0.0
C1740 C 0.88555 0.13059 0.00304 0.0
C1741 C 0.87952 0.14012 0.01998 0.0
C1742 C 0.87346 0.15877 0.01925 0.0
C1743 C 0.86664 0.16548 0.03918 0.0
C1744 C 0.88065 0.18307 0.04752 0.0
C1745 C 0.84457 0.17019 0.03788 0.0
C1746 C 0.86893 0.14739 0.05107 0.0
C1747 C 0.87645 0.1329 0.03985 0.0
C1748 C 0.87786 0.11422 0.0472 0.0
C1749 C 0.87126 0.11027 0.06644 0.0
C1750 C 0.8635 0.12499 0.07806 0.0
C1751 C 0.86272 0.14383 0.07032 0.0
H1752 H 0.76963 0.57581 0.89215 0.0
H1753 H 0.79768 0.62241 0.85685 0.0
H1754 H 0.7657 0.63766 0.85536 0.0
H1755 H 0.71907 0.57328 0.86704 0.0
H1756 H 0.70645 0.56841 0.8899 0.0
H1757 H 0.73091 0.56022 0.88635 0.0
H1758 H 0.74435 0.57873 0.91871 0.0
H1759 H 0.72003 0.58711 0.92227 0.0
H1760 H 0.742 0.60456 0.92139 0.0
H1761 H 0.73191 0.65007 0.86159 0.0
H1762 H 0.69828 0.65701 0.87263 0.0
H1763 H 0.69202 0.60148 0.90241 0.0
C1764 C 0.76894 0.58898 0.88372 0.0
C1765 C 0.78616 0.59789 0.87458 0.0
C1766 C 0.78465 0.61523 0.86384 0.0
C1767 C 0.76655 0.62404 0.86296 0.0
C1768 C 0.75001 0.61517 0.87263 0.0
C1769 C 0.75096 0.59784 0.88251 0.0
C1770 C 0.73136 0.5917 0.89241 0.0
C1771 C 0.72136 0.57225 0.88338 0.0
C1772 C 0.73464 0.59046 0.91503 0.0
C1773 C 0.71943 0.60857 0.88705 0.0
C1774 C 0.73041 0.62198 0.87563 0.0
C1775 C 0.72303 0.63947 0.87018 0.0
C1776 C 0.70396 0.64333 0.87658 0.0
C1777 C 0.69244 0.62969 0.88815 0.0
C1778 C 0.70028 0.61203 0.89323 0.0
H1779 H 0.26976 0.87588 0.10647 0.0
H1780 H 0.25741 0.9248 0.14448 0.0
H1781 H 0.221 0.91564 0.13916 0.0
H1782 H 0.22864 0.87957 0.07104 0.0
H1783 H 0.22331 0.85347 0.06747 0.0
H1784 H 0.24853 0.86387 0.07412 0.0
H1785 H 0.24906 0.84158 0.10464 0.0
H1786 H 0.22387 0.83108 0.09806 0.0
H1787 H 0.22949 0.84201 0.12239 0.0
H1788 H 0.18608 0.90096 0.13043 0.0
H1789 H 0.15469 0.88169 0.1186 0.0
H1790 H 0.18955 0.84259 0.08581 0.0
C1791 C 0.25942 0.88467 0.11368 0.0
C1792 C 0.26648 0.90105 0.12591 0.0
C1793 C 0.2524 0.91219 0.13502 0.0
C1794 C 0.23167 0.90713 0.1321 0.0
C1795 C 0.22523 0.89094 0.11996 0.0
C1796 C 0.23864 0.87988 0.11086 0.0
C1797 C 0.2277 0.86313 0.09859 0.0
C1798 C 0.23232 0.86514 0.0765 0.0
C1799 C 0.23283 0.84328 0.10639 0.0
C1800 C 0.20606 0.86644 0.10237 0.0
C1801 C 0.205 0.88256 0.11472 0.0
C1802 C 0.18668 0.88834 0.12067 0.0
C1803 C 0.16894 0.87728 0.11389 0.0
C1804 C 0.16963 0.86064 0.10124 0.0
C1805 C 0.18849 0.85529 0.09534 0.0
H1806 H 0.84552 0.51749 0.87115 0.0
H1807 H 0.90624 0.5469 0.87527 0.0
H1808 H 0.92006 0.51509 0.87313 0.0
H1809 H 0.8556 0.47461 0.89937 0.0
H1810 H 0.83944 0.45784 0.8836 0.0
H1811 H 0.83401 0.48289 0.88657 0.0
H1812 H 0.83434 0.4869 0.84845 0.0
H1813 H 0.83963 0.46186 0.84538 0.0
H1814 H 0.85611 0.48123 0.83518 0.0
H1815 H 0.9276 0.4804 0.87001 0.0
H1816 H 0.92825 0.445 0.86356 0.0
H1817 H 0.86286 0.43773 0.86045 0.0
C1818 C 0.86171 0.5172 0.87173 0.0
C1819 C 0.87477 0.53473 0.87343 0.0
C1820 C 0.89589 0.53372 0.8739 0.0
C1821 C 0.90393 0.5157 0.87281 0.0
C1822 C 0.8907 0.49873 0.87114 0.0
C1823 C 0.87005 0.49927 0.87042 0.0
C1824 C 0.85928 0.47885 0.8675 0.0
C1825 C 0.84632 0.47322 0.88532 0.0
C1826 C 0.8466 0.47711 0.84797 0.0
C1827 C 0.87712 0.46685 0.86652 0.0
C1828 C 0.89508 0.47861 0.8689 0.0
C1829 C 0.91363 0.471 0.86818 0.0
C1830 C 0.91384 0.45086 0.86456 0.0
C1831 C 0.89563 0.43855 0.86153 0.0
C1832 C 0.87705 0.4467 0.86281 0.0
H1833 H 0.23265 0.10907 0.63785 0.0
H1834 H 0.1957 0.15437 0.61902 0.0
H1835 H 0.22613 0.17525 0.61058 0.0
H1836 H 0.27529 0.14306 0.65889 0.0
H1837 H 0.29386 0.12775 0.6505 0.0
H1838 H 0.26928 0.1169 0.6569 0.0
H1839 H 0.26468 0.10001 0.62212 0.0
H1840 H 0.28913 0.11088 0.61556 0.0
H1841 H 0.26726 0.11467 0.60031 0.0
H1842 H 0.25946 0.1894 0.60012 0.0
H1843 H 0.2947 0.19733 0.5908 0.0
H1844 H 0.31093 0.14419 0.61802 0.0
C1845 C 0.23099 0.12353 0.63231 0.0
C1846 C 0.21175 0.13004 0.62909 0.0
C1847 C 0.21024 0.14902 0.62167 0.0
C1848 C 0.22745 0.16103 0.61683 0.0
C1849 C 0.24611 0.15401 0.61973 0.0
C1850 C 0.24809 0.13585 0.62756 0.0
C1851 C 0.26994 0.13159 0.62838 0.0
C1852 C 0.27754 0.12972 0.64995 0.0
C1853 C 0.27292 0.1132 0.61584 0.0
C1854 C 0.27979 0.14994 0.6192 0.0
C1855 C 0.2657 0.16264 0.61434 0.0
C1856 C 0.27073 0.1798 0.60421 0.0
C1857 C 0.29071 0.18412 0.59889 0.0
C1858 C 0.30544 0.17146 0.60391 0.0
C1859 C 0.29997 0.15428 0.61441 0.0
H1860 H 0.17201 0.9742 0.85967 0.0
H1861 H 0.12268 0.94456 0.89124 0.0
H1862 H 0.10684 0.97554 0.89354 0.0
H1863 H 0.17363 0.02164 0.88701 0.0
H1864 H 0.1795 0.03534 0.86508 0.0
H1865 H 0.18777 0.01133 0.86779 0.0
H1866 H 0.16988 1.0003 0.83416 0.0
H1867 H 0.16143 0.02418 0.83141 0.0
H1868 H 0.1434 0.00279 0.8305 0.0
H1869 H 0.0945 0.00903 0.88876 0.0
H1870 H 0.08792 0.04249 0.87923 0.0
H1871 H 0.146 0.05015 0.85189 0.0
C1872 C 0.15808 0.97428 0.86744 0.0
C1873 C 0.14861 0.95695 0.87532 0.0
C1874 C 0.1303 0.95768 0.88522 0.0
C1875 C 0.12117 0.97521 0.88656 0.0
C1876 C 0.13066 0.99193 0.87815 0.0
C1877 C 0.14888 0.99164 0.86904 0.0
C1878 C 0.15559 0.0113 0.8604 0.0
C1879 C 0.17529 0.02044 0.87069 0.0
C1880 C 0.15769 0.00953 0.83778 0.0
C1881 C 0.13806 0.02258 0.86557 0.0
C1882 C 0.12382 0.01121 0.87585 0.0
C1883 C 0.10571 0.01815 0.88102 0.0
C1884 C 0.10208 0.03715 0.8755 0.0
C1885 C 0.11652 0.04901 0.86501 0.0
C1886 C 0.1348 0.0416 0.86022 0.0
H1887 H 0.81339 0.36078 0.39481 0.0
H1888 H 0.84667 0.41788 0.38927 0.0
H1889 H 0.81503 0.43194 0.38053 0.0
H1890 H 0.77608 0.36539 0.35468 0.0
H1891 H 0.75588 0.35283 0.36799 0.0
H1892 H 0.78135 0.34702 0.3723 0.0
H1893 H 0.77851 0.35437 0.40989 0.0
H1894 H 0.7531 0.36032 0.40569 0.0
H1895 H 0.77153 0.37786 0.41799 0.0
H1896 H 0.77945 0.44007 0.37359 0.0
H1897 H 0.74272 0.44156 0.36932 0.0
H1898 H 0.73276 0.37937 0.38047 0.0
C1899 C 0.81407 0.37617 0.39142 0.0
C1900 C 0.83253 0.3882 0.39257 0.0
C1901 C 0.83271 0.40836 0.38841 0.0
C1902 C 0.81482 0.41649 0.38342 0.0
C1903 C 0.79682 0.4043 0.38274 0.0
C1904 C 0.79631 0.38457 0.38661 0.0
C1905 C 0.7749 0.37487 0.38585 0.0
C1906 C 0.77188 0.3591 0.36921 0.0
C1907 C 0.76918 0.36636 0.40606 0.0
C1908 C 0.76346 0.39224 0.38109 0.0
C1909 C 0.77636 0.40906 0.3792 0.0
C1910 C 0.76921 0.42697 0.37498 0.0
C1911 C 0.74831 0.42768 0.3726 0.0
C1912 C 0.73481 0.41062 0.37461 0.0
C1913 C 0.74262 0.39272 0.3789 0.0
H1914 H 0.85081 0.49542 0.66242 0.0
H1915 H 0.85226 0.48392 0.59904 0.0
H1916 H 0.86284 0.51907 0.59394 0.0
H1917 H 0.83286 0.54302 0.66075 0.0
H1918 H 0.84872 0.55266 0.68153 0.0
H1919 H 0.84023 0.52694 0.67986 0.0
H1920 H 0.87722 0.5186 0.68255 0.0
H1921 H 0.88581 0.54429 0.6843 0.0
H1922 H 0.89514 0.52905 0.66532 0.0
H1923 H 0.87258 0.55593 0.59612 0.0
H1924 H 0.88409 0.59039 0.60554 0.0
H1925 H 0.87844 0.57648 0.66768 0.0
C1926 C 0.85317 0.50032 0.64743 0.0
C1927 C 0.8505 0.48708 0.63107 0.0
C1928 C 0.85417 0.49391 0.61174 0.0
C1929 C 0.8601 0.51382 0.60873 0.0
C1930 C 0.86255 0.52653 0.62524 0.0
C1931 C 0.85945 0.51995 0.64423 0.0
C1932 C 0.86421 0.5362 0.65963 0.0
C1933 C 0.84538 0.53992 0.67111 0.0
C1934 C 0.88163 0.53177 0.67378 0.0
C1935 C 0.87045 0.55304 0.64637 0.0
C1936 C 0.86912 0.5473 0.62656 0.0
C1937 C 0.87378 0.56054 0.61159 0.0
C1938 C 0.88021 0.58006 0.61706 0.0
C1939 C 0.88225 0.58601 0.63732 0.0
C1940 C 0.87719 0.57229 0.65208 0.0
H1941 H 0.61543 0.516 0.13481 0.0
H1942 H 0.66719 0.50923 0.09893 0.0
H1943 H 0.66039 0.47329 0.10045 0.0
H1944 H 0.62337 0.47736 0.16724 0.0
H1945 H 0.59699 0.46962 0.16966 0.0
H1946 H 0.60503 0.49475 0.16453 0.0
H1947 H 0.58131 0.49276 0.13319 0.0
H1948 H 0.57312 0.46762 0.13827 0.0
H1949 H 0.58333 0.47392 0.11456 0.0
H1950 H 0.64827 0.43809 0.10642 0.0
H1951 H 0.63244 0.40625 0.11748 0.0
H1952 H 0.5896 0.43638 0.15056 0.0
C1953 C 0.62517 0.50696 0.12704 0.0
C1954 C 0.64175 0.51537 0.11664 0.0
C1955 C 0.65438 0.50306 0.10697 0.0
C1956 C 0.65062 0.48265 0.10771 0.0
C1957 C 0.63427 0.47482 0.11828 0.0
C1958 C 0.6218 0.48659 0.12784 0.0
C1959 C 0.60587 0.47455 0.13903 0.0
C1960 C 0.60795 0.47936 0.16144 0.0
C1961 C 0.58465 0.47738 0.13076 0.0
C1962 C 0.6114 0.45419 0.13436 0.0
C1963 C 0.62769 0.45462 0.12222 0.0
C1964 C 0.63549 0.43756 0.11593 0.0
C1965 C 0.62641 0.41956 0.12227 0.0
C1966 C 0.60986 0.41884 0.13495 0.0
C1967 C 0.60231 0.43643 0.14098 0.0
H1968 H 0.62238 0.74133 0.92512 0.0
H1969 H 0.65523 0.72182 0.87525 0.0
H1970 H 0.65345 0.75402 0.85977 0.0
H1971 H 0.58838 0.76556 0.89842 0.0
H1972 H 0.5875 0.78545 0.91612 0.0
H1973 H 0.59379 0.76205 0.9244 0.0
H1974 H 0.62724 0.77827 0.94061 0.0
H1975 H 0.62094 0.80183 0.93257 0.0
H1976 H 0.64449 0.79322 0.92587 0.0
H1977 H 0.64369 0.78682 0.8478 0.0
H1978 H 0.62915 0.81802 0.84165 0.0
H1979 H 0.60372 0.81579 0.90005 0.0
C1980 C 0.62964 0.74397 0.91117 0.0
C1981 C 0.63897 0.72911 0.90138 0.0
C1982 C 0.64817 0.73308 0.88308 0.0
C1983 C 0.64717 0.7513 0.87416 0.0
C1984 C 0.63722 0.76542 0.88393 0.0
C1985 C 0.62893 0.76203 0.90221 0.0
C1986 C 0.61805 0.77904 0.90919 0.0
C1987 C 0.59561 0.77263 0.9122 0.0
C1988 C 0.6283 0.78866 0.92819 0.0
C1989 C 0.62088 0.79231 0.8917 0.0
C1990 C 0.63203 0.78431 0.87727 0.0
C1991 C 0.63528 0.79338 0.85917 0.0
C1992 C 0.62689 0.81104 0.85577 0.0
C1993 C 0.61545 0.81941 0.87043 0.0
C1994 C 0.61265 0.80994 0.88865 0.0
H1995 H 0.50986 0.37067 0.15232 0.0
H1996 H 0.53317 0.32417 0.11821 0.0
H1997 H 0.4993 0.31475 0.10337 0.0
H1998 H 0.4598 0.34482 0.16086 0.0
H1999 H 0.44709 0.36656 0.15783 0.0
H2000 H 0.47273 0.36849 0.16743 0.0
H2001 H 0.48332 0.39252 0.13966 0.0
H2002 H 0.45777 0.39058 0.12991 0.0
H2003 H 0.47783 0.38519 0.11408 0.0
H2004 H 0.46404 0.31153 0.09075 0.0
H2005 H 0.42896 0.31473 0.08047 0.0
H2006 H 0.42792 0.36395 0.12186 0.0
C2007 C 0.50771 0.35826 0.14204 0.0
C2008 C 0.52409 0.34804 0.1365 0.0
C2009 C 0.52082 0.33217 0.12267 0.0
C2010 C 0.50164 0.32667 0.11421 0.0
C2011 C 0.4859 0.33725 0.11967 0.0
C2012 C 0.48864 0.3527 0.13324 0.0
C2013 C 0.46936 0.36239 0.13543 0.0
C2014 C 0.4618 0.36044 0.15665 0.0
C2015 C 0.47225 0.38395 0.12941 0.0
C2016 C 0.4555 0.35014 0.12071 0.0
C2017 C 0.46537 0.33562 0.11198 0.0
C2018 C 0.45607 0.32275 0.09755 0.0
C2019 C 0.43611 0.32475 0.09178 0.0
C2020 C 0.42561 0.33962 0.10033 0.0
C2021 C 0.43548 0.35241 0.11509 0.0
H2022 H 0.90476 0.18525 0.40775 0.0
H2023 H 0.87415 0.17802 0.34993 0.0
H2024 H 0.86381 0.21155 0.35317 0.0
H2025 H 0.86942 0.215 0.43136 0.0
H2026 H 0.88922 0.23006 0.44479 0.0
H2027 H 0.89239 0.20494 0.43862 0.0
H2028 H 0.92537 0.21605 0.42095 0.0
H2029 H 0.92233 0.24115 0.4271 0.0
H2030 H 0.9249 0.23373 0.40159 0.0
H2031 H 0.85828 0.24682 0.36239 0.0
H2032 H 0.86011 0.28091 0.37563 0.0
H2033 H 0.89533 0.26456 0.42669 0.0
C2034 C 0.8956 0.19056 0.39587 0.0
C2035 C 0.89011 0.17897 0.37865 0.0
C2036 C 0.87845 0.18663 0.3633 0.0
C2037 C 0.87245 0.20562 0.36505 0.0
C2038 C 0.87829 0.21674 0.38221 0.0
C2039 C 0.88968 0.20946 0.39729 0.0
C2040 C 0.89532 0.22468 0.41356 0.0
C2041 C 0.88603 0.21828 0.43325 0.0
C2042 C 0.91834 0.22917 0.41592 0.0
C2043 C 0.88562 0.24183 0.40516 0.0
C2044 C 0.87559 0.23696 0.38722 0.0
C2045 C 0.86599 0.25073 0.37649 0.0
C2046 C 0.86705 0.27003 0.38414 0.0
C2047 C 0.87786 0.27537 0.40217 0.0
C2048 C 0.88693 0.26094 0.41288 0.0
H2049 H 0.97846 0.63749 0.65501 0.0
H2050 H 0.95592 0.6848 0.62207 0.0
H2051 H 0.98981 0.69359 0.60944 0.0
H2052 H 0.02982 0.66182 0.66692 0.0
H2053 H 0.04149 0.63955 0.66319 0.0
H2054 H 0.01617 0.63853 0.67186 0.0
H2055 H 0.00378 0.61497 0.64253 0.0
H2056 H 0.029 0.61599 0.63371 0.0
H2057 H 0.00875 0.62225 0.61749 0.0
H2058 H 0.02485 0.69577 0.59836 0.0
H2059 H 0.05907 0.69078 0.58848 0.0
H2060 H 0.0593 0.64118 0.62743 0.0
C2061 C 0.98084 0.65001 0.64556 0.0
C2062 C 0.96467 0.66064 0.63967 0.0
C2063 C 0.96815 0.67654 0.6268 0.0
C2064 C 0.98734 0.68169 0.61962 0.0
C2065 C 0.00287 0.67068 0.62533 0.0
C2066 C 0.9999 0.65515 0.63797 0.0
C2067 C 0.01878 0.64469 0.64027 0.0
C2068 C 0.02706 0.64625 0.66184 0.0
C2069 C 0.01483 0.62321 0.63306 0.0
C2070 C 0.03265 0.65653 0.62662 0.0
C2071 C 0.02319 0.6716 0.61842 0.0
C2072 C 0.0325 0.68413 0.6048 0.0
C2073 C 0.05196 0.6811 0.59923 0.0
C2074 C 0.06194 0.66556 0.60714 0.0
C2075 C 0.05216 0.65326 0.6212 0.0
H2076 H 0.59738 0.26775 0.61571 0.0
H2077 H 0.63896 0.25648 0.56965 0.0
H2078 H 0.63583 0.22148 0.57792 0.0
H2079 H 0.61467 0.23532 0.65097 0.0
H2080 H 0.59001 0.22735 0.65964 0.0
H2081 H 0.59493 0.25137 0.64961 0.0
H2082 H 0.5653 0.24371 0.62394 0.0
H2083 H 0.5602 0.21969 0.63398 0.0
H2084 H 0.56467 0.22231 0.60791 0.0
H2085 H 0.62987 0.18801 0.59283 0.0
H2086 H 0.61942 0.15826 0.6115 0.0
H2087 H 0.58083 0.19145 0.64675 0.0
C2088 C 0.60571 0.25792 0.60724 0.0
C2089 C 0.61845 0.26488 0.59206 0.0
C2090 C 0.62904 0.25149 0.5813 0.0
C2091 C 0.62742 0.23158 0.58593 0.0
C2092 C 0.61497 0.22526 0.60119 0.0
C2093 C 0.60411 0.23799 0.6115 0.0
C2094 C 0.59182 0.22753 0.62726 0.0
C2095 C 0.59825 0.23589 0.6481 0.0
C2096 C 0.56916 0.22836 0.62301 0.0
C2097 C 0.59768 0.20697 0.62438 0.0
C2098 C 0.61112 0.20595 0.60935 0.0
C2099 C 0.61919 0.18859 0.60451 0.0
C2100 C 0.61324 0.1718 0.61523 0.0
C2101 C 0.59922 0.17249 0.63048 0.0
C2102 C 0.5914 0.19036 0.63503 0.0
H2103 H 0.06769 0.32732 0.86348 0.0
H2104 H 0.07274 0.35431 0.92241 0.0
H2105 H 0.04252 0.37135 0.91475 0.0
H2106 H 0.05039 0.36843 0.83732 0.0
H2107 H 0.0334 0.35302 0.821 0.0
H2108 H 0.05605 0.34405 0.83081 0.0
H2109 H 0.03497 0.31418 0.84521 0.0
H2110 H 0.01232 0.32296 0.83528 0.0
H2111 H 0.01474 0.31818 0.86139 0.0
H2112 H 0.0108 0.38459 0.90057 0.0
H2113 H 0.97923 0.3905 0.88238 0.0
H2114 H 0.99556 0.35426 0.83323 0.0
C2115 C 0.06258 0.33692 0.87477 0.0
C2116 C 0.07261 0.33955 0.89352 0.0
C2117 C 0.06526 0.35208 0.90793 0.0
C2118 C 0.0482 0.3619 0.90367 0.0
C2119 C 0.0387 0.359 0.88495 0.0
C2120 C 0.04561 0.34669 0.87081 0.0
C2121 C 0.03221 0.34509 0.85224 0.0
C2122 C 0.0437 0.35313 0.83428 0.0
C2123 C 0.02301 0.32385 0.84831 0.0
C2124 C 0.01644 0.35818 0.8582 0.0
C2125 C 0.02052 0.36632 0.87699 0.0
C2126 C 0.00755 0.37839 0.8858 0.0
C2127 C 0.98971 0.38175 0.87533 0.0
C2128 C 0.98498 0.37287 0.85639 0.0
C2129 C 0.99879 0.36133 0.84764 0.0
H2130 H 0.89607 0.73772 0.13158 0.0
H2131 H 0.85638 0.73864 0.07937 0.0
H2132 H 0.85628 0.7744 0.08379 0.0
H2133 H 0.87387 0.77342 0.1603 0.0
H2134 H 0.89748 0.78439 0.17112 0.0
H2135 H 0.89475 0.75894 0.1636 0.0
H2136 H 0.92554 0.76486 0.14128 0.0
H2137 H 0.92843 0.79032 0.14881 0.0
H2138 H 0.92579 0.7835 0.12284 0.0
H2139 H 0.85964 0.81006 0.09468 0.0
H2140 H 0.86756 0.84296 0.11023 0.0
H2141 H 0.90545 0.81845 0.15486 0.0
C2142 C 0.88741 0.74541 0.12101 0.0
C2143 C 0.8762 0.73533 0.10514 0.0
C2144 C 0.86512 0.74602 0.09163 0.0
C2145 C 0.86493 0.76634 0.09404 0.0
C2146 C 0.87598 0.77577 0.10996 0.0
C2147 C 0.88713 0.76567 0.12312 0.0
C2148 C 0.89774 0.77924 0.13897 0.0
C2149 C 0.89052 0.77366 0.15972 0.0
C2150 C 0.92074 0.7795 0.1379 0.0
C2151 C 0.89071 0.79854 0.13276 0.0
C2152 C 0.87812 0.79626 0.11603 0.0
C2153 C 0.86955 0.81203 0.10773 0.0
C2154 C 0.8741 0.83065 0.11671 0.0
C2155 C 0.88716 0.83333 0.13374 0.0
C2156 C 0.89547 0.81697 0.14181 0.0
H2157 H 0.42835 0.64626 0.35328 0.0
H2158 H 0.43559 0.62888 0.41436 0.0
H2159 H 0.46463 0.61127 0.40522 0.0
H2160 H 0.44412 0.6015 0.32929 0.0
H2161 H 0.45716 0.61527 0.31032 0.0
H2162 H 0.43532 0.62406 0.32111 0.0
H2163 H 0.45609 0.65705 0.33062 0.0
H2164 H 0.47787 0.64842 0.31977 0.0
H2165 H 0.47915 0.657 0.34527 0.0
H2166 H 0.4949 0.59828 0.38993 0.0
H2167 H 0.52489 0.59334 0.37065 0.0
H2168 H 0.49781 0.61966 0.31976 0.0
C2169 C 0.43574 0.6384 0.36467 0.0
C2170 C 0.42959 0.63882 0.38452 0.0
C2171 C 0.43997 0.62869 0.39905 0.0
C2172 C 0.45642 0.61855 0.39396 0.0
C2173 C 0.46226 0.61865 0.37428 0.0
C2174 C 0.45222 0.62836 0.35988 0.0
C2175 C 0.4626 0.62796 0.34027 0.0
C2176 C 0.44899 0.61651 0.3243 0.0
C2177 C 0.46933 0.64884 0.33361 0.0
C2178 C 0.48043 0.61705 0.34601 0.0
C2179 C 0.47979 0.61145 0.36557 0.0
C2180 C 0.4954 0.60236 0.37452 0.0
C2181 C 0.51236 0.59954 0.36342 0.0
C2182 C 0.51369 0.60601 0.34364 0.0
C2183 C 0.49718 0.6143 0.33474 0.0
H2184 H 0.90748 0.61609 0.81908 0.0
H2185 H 0.84637 0.63199 0.82154 0.0
H2186 H 0.84866 0.64418 0.78729 0.0
H2187 H 0.92807 0.6562 0.7879 0.0
H2188 H 0.94309 0.64046 0.77434 0.0
H2189 H 0.93753 0.63556 0.79983 0.0
H2190 H 0.92243 0.60041 0.7896 0.0
H2191 H 0.92795 0.60519 0.76414 0.0
H2192 H 0.90258 0.59704 0.77071 0.0
H2193 H 0.85714 0.65279 0.75185 0.0
H2194 H 0.86987 0.6544 0.71778 0.0
H2195 H 0.9246 0.63108 0.7385 0.0
C2196 C 0.89473 0.62257 0.8126 0.0
C2197 C 0.87684 0.62336 0.82304 0.0
C2198 C 0.86028 0.63139 0.81383 0.0
C2199 C 0.86148 0.63842 0.79443 0.0
C2200 C 0.87928 0.63716 0.78443 0.0
C2201 C 0.89557 0.62931 0.7932 0.0
C2202 C 0.91222 0.62776 0.77874 0.0
C2203 C 0.93136 0.64078 0.78562 0.0
C2204 C 0.91653 0.60633 0.77562 0.0
C2205 C 0.90265 0.6356 0.76031 0.0
C2206 C 0.88383 0.64132 0.76394 0.0
C2207 C 0.87192 0.64847 0.74891 0.0
C2208 C 0.87929 0.6494 0.72962 0.0
C2209 C 0.89821 0.64287 0.72551 0.0
C2210 C 0.9101 0.63623 0.74119 0.0
H2211 H 0.66036 0.59067 0.04917 0.0
H2212 H 0.62352 0.62762 0.08213 0.0
H2213 H 0.61898 0.64714 0.05208 0.0
H2214 H 0.68537 0.62776 0.01982 0.0
H2215 H 0.68489 0.61234 0.99782 0.0
H2216 H 0.68545 0.60165 0.02197 0.0
H2217 H 0.65305 0.57892 0.01246 0.0
H2218 H 0.65248 0.58942 0.98823 0.0
H2219 H 0.6309 0.58949 0.00358 0.0
H2220 H 0.6197 0.66322 0.01845 0.0
H2221 H 0.62233 0.67233 0.98329 0.0
H2222 H 0.65729 0.62349 0.97239 0.0
C2223 C 0.65135 0.60289 0.05011 0.0
C2224 C 0.6424 0.60776 0.068 0.0
C2225 C 0.63048 0.62366 0.06854 0.0
C2226 C 0.62792 0.63486 0.0516 0.0
C2227 C 0.63719 0.62977 0.03425 0.0
C2228 C 0.64842 0.61397 0.03335 0.0
C2229 C 0.65619 0.611 0.01279 0.0
C2230 C 0.67935 0.61333 0.01313 0.0
C2231 C 0.64764 0.59103 0.00373 0.0
C2232 C 0.64764 0.62765 0.00219 0.0
C2233 C 0.63695 0.63848 0.01484 0.0
C2234 C 0.62795 0.65477 0.00841 0.0
C2235 C 0.62962 0.65989 0.98844 0.0
C2236 C 0.63997 0.64858 0.9751 0.0
C2237 C 0.64921 0.63237 0.9822 0.0
H2238 H 0.59427 0.40092 0.22964 0.0
H2239 H 0.60399 0.34014 0.2192 0.0
H2240 H 0.62104 0.33958 0.25238 0.0
H2241 H 0.64227 0.41466 0.25279 0.0
H2242 H 0.63324 0.43184 0.27008 0.0
H2243 H 0.62038 0.42688 0.24637 0.0
H2244 H 0.58696 0.41739 0.26392 0.0
H2245 H 0.59971 0.42239 0.2877 0.0
H2246 H 0.58605 0.39878 0.28242 0.0
H2247 H 0.63677 0.34589 0.28692 0.0
H2248 H 0.65246 0.35913 0.31877 0.0
H2249 H 0.63474 0.4165 0.30498 0.0
C2250 C 0.59971 0.3874 0.23447 0.0
C2251 C 0.59758 0.37046 0.22207 0.0
C2252 C 0.60538 0.35321 0.22861 0.0
C2253 C 0.61502 0.35277 0.24741 0.0
C2254 C 0.617 0.3698 0.25924 0.0
C2255 C 0.60974 0.38685 0.25292 0.0
C2256 C 0.61494 0.40353 0.2678 0.0
C2257 C 0.62852 0.42021 0.25871 0.0
C2258 C 0.59577 0.41095 0.27594 0.0
C2259 C 0.62626 0.39323 0.28354 0.0
C2260 C 0.62704 0.37372 0.27849 0.0
C2261 C 0.63634 0.36116 0.29097 0.0
C2262 C 0.64516 0.36879 0.30902 0.0
C2263 C 0.64493 0.38885 0.31422 0.0
C2264 C 0.63534 0.40116 0.30127 0.0
H2265 H 0.86158 0.40774 0.55736 0.0
H2266 H 0.86894 0.35253 0.58554 0.0
H2267 H 0.87816 0.3385 0.55362 0.0
H2268 H 0.8385 0.38716 0.51302 0.0
H2269 H 0.85048 0.40503 0.49687 0.0
H2270 H 0.84641 0.41162 0.52229 0.0
H2271 H 0.88448 0.42257 0.52782 0.0
H2272 H 0.88866 0.41613 0.50235 0.0
H2273 H 0.90261 0.40571 0.52211 0.0
H2274 H 0.88417 0.32959 0.5187 0.0
H2275 H 0.88705 0.32631 0.48255 0.0
H2276 H 0.87556 0.38707 0.47627 0.0
C2277 C 0.86554 0.39284 0.55686 0.0
C2278 C 0.86465 0.38125 0.57396 0.0
C2279 C 0.86954 0.36168 0.57265 0.0
C2280 C 0.87484 0.35358 0.55459 0.0
C2281 C 0.87518 0.36522 0.53794 0.0
C2282 C 0.87074 0.38443 0.53885 0.0
C2283 C 0.87112 0.39329 0.51842 0.0
C2284 C 0.8504 0.39964 0.5123 0.0
C2285 C 0.88771 0.41044 0.51763 0.0
C2286 C 0.87612 0.37594 0.50591 0.0
C2287 C 0.87852 0.35997 0.51754 0.0
C2288 C 0.8825 0.34203 0.50943 0.0
C2289 C 0.88405 0.34032 0.48883 0.0
C2290 C 0.88157 0.35643 0.4765 0.0
C2291 C 0.87767 0.37451 0.48526 0.0
H2292 H 0.87984 0.40218 0.78075 0.0
H2293 H 0.92829 0.36634 0.76913 0.0
H2294 H 0.92187 0.36917 0.73305 0.0
H2295 H 0.84646 0.38362 0.74082 0.0
H2296 H 0.8379 0.40705 0.73537 0.0
H2297 H 0.84632 0.40206 0.76021 0.0
H2298 H 0.87227 0.43276 0.76008 0.0
H2299 H 0.86394 0.43784 0.73522 0.0
H2300 H 0.89015 0.4353 0.74061 0.0
H2301 H 0.90894 0.37472 0.69815 0.0
H2302 H 0.89189 0.38431 0.66721 0.0
H2303 H 0.85343 0.41802 0.70203 0.0
C2304 C 0.88907 0.39489 0.77062 0.0
C2305 C 0.90448 0.38395 0.77771 0.0
C2306 C 0.91641 0.37483 0.76399 0.0
C2307 C 0.91286 0.37632 0.74349 0.0
C2308 C 0.89751 0.3872 0.73698 0.0
C2309 C 0.88595 0.39649 0.75015 0.0
C2310 C 0.87064 0.4076 0.73937 0.0
C2311 C 0.84906 0.39959 0.74423 0.0
C2312 C 0.87449 0.42968 0.7441 0.0
C2313 C 0.87523 0.40293 0.71809 0.0
C2314 C 0.89067 0.39104 0.71697 0.0
C2315 C 0.89696 0.38419 0.69883 0.0
C2316 C 0.88719 0.38967 0.68136 0.0
C2317 C 0.87151 0.40205 0.68223 0.0
C2318 C 0.86559 0.40879 0.70086 0.0
H2319 H 0.84026 0.61795 0.94307 0.0
H2320 H 0.90359 0.62258 0.92958 0.0
H2321 H 0.91226 0.6374 0.96295 0.0
H2322 H 0.84243 0.66431 0.96994 0.0
H2323 H 0.82413 0.65532 0.98749 0.0
H2324 H 0.82317 0.64495 0.96269 0.0
H2325 H 0.82481 0.6104 0.97701 0.0
H2326 H 0.82585 0.62066 0.00184 0.0
H2327 H 0.84526 0.6061 0.99394 0.0
H2328 H 0.91386 0.64972 0.99892 0.0
H2329 H 0.90799 0.66176 0.03298 0.0
H2330 H 0.84353 0.65125 0.02131 0.0
C2331 C 0.85596 0.62211 0.94714 0.0
C2332 C 0.87129 0.61902 0.93386 0.0
C2333 C 0.89163 0.62488 0.93957 0.0
C2334 C 0.89669 0.63322 0.95849 0.0
C2335 C 0.88118 0.6359 0.97132 0.0
C2336 C 0.86121 0.6308 0.96573 0.0
C2337 C 0.84732 0.63567 0.98197 0.0
C2338 C 0.83345 0.65098 0.97511 0.0
C2339 C 0.8351 0.6171 0.98911 0.0
C2340 C 0.86258 0.64411 0.9977 0.0
C2341 C 0.88206 0.64393 0.99143 0.0
C2342 C 0.89866 0.65017 0.00388 0.0
C2343 C 0.89521 0.65691 0.02318 0.0
C2344 C 0.87534 0.65764 0.0296 0.0
C2345 C 0.85889 0.65116 0.01665 0.0
H2346 H 0.57761 0.60002 0.25852 0.0
H2347 H 0.63668 0.61082 0.28789 0.0
H2348 H 0.6526 0.6086 0.25563 0.0
H2349 H 0.5914 0.56488 0.22236 0.0
H2350 H 0.57569 0.57323 0.20271 0.0
H2351 H 0.56884 0.57588 0.22816 0.0
H2352 H 0.56766 0.61311 0.22354 0.0
H2353 H 0.57465 0.61059 0.19811 0.0
H2354 H 0.58948 0.62758 0.21477 0.0
H2355 H 0.66232 0.60525 0.22031 0.0
H2356 H 0.66508 0.59939 0.18431 0.0
H2357 H 0.59987 0.5907 0.17772 0.0
C2358 C 0.59389 0.60188 0.25819 0.0
C2359 C 0.60585 0.60562 0.27581 0.0
C2360 C 0.62713 0.60794 0.27466 0.0
C2361 C 0.63636 0.60676 0.25637 0.0
C2362 C 0.62415 0.60324 0.23931 0.0
C2363 C 0.60339 0.60072 0.24002 0.0
C2364 C 0.59382 0.59676 0.21946 0.0
C2365 C 0.58173 0.57648 0.2181 0.0
C2366 C 0.58063 0.61298 0.21363 0.0
C2367 C 0.61245 0.59738 0.20714 0.0
C2368 C 0.62978 0.60123 0.21888 0.0
C2369 C 0.64885 0.60225 0.21094 0.0
C2370 C 0.65027 0.59894 0.19046 0.0
C2371 C 0.63271 0.59464 0.17816 0.0
C2372 C 0.61358 0.59407 0.18667 0.0
H2373 H 0.64484 0.32069 0.49974 0.0
H2374 H 0.61218 0.36522 0.52677 0.0
H2375 H 0.61162 0.38238 0.49483 0.0
H2376 H 0.67637 0.35146 0.47221 0.0
H2377 H 0.67629 0.3352 0.45088 0.0
H2378 H 0.67191 0.32536 0.47503 0.0
H2379 H 0.63803 0.30709 0.462 0.0
H2380 H 0.64238 0.31677 0.4377 0.0
H2381 H 0.61948 0.32061 0.44999 0.0
H2382 H 0.61877 0.39676 0.46097 0.0
H2383 H 0.63102 0.40584 0.42778 0.0
H2384 H 0.65775 0.35098 0.42324 0.0
C2385 C 0.6372 0.33384 0.49886 0.0
C2386 C 0.62855 0.34164 0.5157 0.0
C2387 C 0.61877 0.35892 0.51398 0.0
C2388 C 0.61842 0.36877 0.49592 0.0
C2389 C 0.62761 0.36094 0.47971 0.0
C2390 C 0.63653 0.34367 0.48098 0.0
C2391 C 0.64628 0.33875 0.46185 0.0
C2392 C 0.66906 0.33764 0.46521 0.0
C2393 C 0.63592 0.31967 0.45232 0.0
C2394 C 0.64208 0.35627 0.44979 0.0
C2395 C 0.63123 0.3689 0.46023 0.0
C2396 C 0.62693 0.38678 0.45252 0.0
C2397 C 0.634 0.39185 0.4337 0.0
C2398 C 0.64517 0.37904 0.42286 0.0
C2399 C 0.64897 0.36095 0.43099 0.0
H2400 H 0.75177 0.92978 0.60613 0.0
H2401 H 0.72135 0.88026 0.63561 0.0
H2402 H 0.75335 0.86498 0.63793 0.0
H2403 H 0.7825 0.90407 0.577 0.0
H2404 H 0.80427 0.92183 0.57937 0.0
H2405 H 0.77948 0.92953 0.58164 0.0
H2406 H 0.7898 0.94518 0.61624 0.0
H2407 H 0.8147 0.93759 0.61403 0.0
H2408 H 0.80006 0.93051 0.63517 0.0
H2409 H 0.78762 0.85311 0.63248 0.0
H2410 H 0.82204 0.84725 0.62278 0.0
H2411 H 0.83061 0.90576 0.59962 0.0
C2412 C 0.75192 0.91588 0.6134 0.0
C2413 C 0.73409 0.90617 0.62067 0.0
C2414 C 0.73488 0.88801 0.63006 0.0
C2415 C 0.75298 0.8792 0.6314 0.0
C2416 C 0.77023 0.88897 0.62368 0.0
C2417 C 0.76992 0.90711 0.61523 0.0
C2418 C 0.79033 0.91435 0.60757 0.0
C2419 C 0.78906 0.91763 0.58506 0.0
C2420 C 0.79925 0.93301 0.61893 0.0
C2421 C 0.80203 0.89718 0.61239 0.0
C2422 C 0.79019 0.88263 0.62163 0.0
C2423 C 0.79718 0.86461 0.62573 0.0
C2424 C 0.81671 0.86137 0.62015 0.0
C2425 C 0.82909 0.8762 0.61088 0.0
C2426 C 0.82169 0.89439 0.60726 0.0
H2427 H 0.24621 0.59653 0.37003 0.0
H2428 H 0.2129 0.63289 0.40776 0.0
H2429 H 0.24438 0.65276 0.41784 0.0
H2430 H 0.28976 0.59647 0.40235 0.0
H2431 H 0.3075 0.59788 0.38273 0.0
H2432 H 0.28227 0.58652 0.37798 0.0
H2433 H 0.27754 0.61008 0.34907 0.0
H2434 H 0.30277 0.62153 0.35374 0.0
H2435 H 0.2818 0.63613 0.35367 0.0
H2436 H 0.27896 0.66777 0.42511 0.0
H2437 H 0.31527 0.67806 0.42845 0.0
H2438 H 0.3269 0.63312 0.38527 0.0
C2439 C 0.24556 0.6087 0.38037 0.0
C2440 C 0.22706 0.61313 0.3881 0.0
C2441 C 0.22684 0.62922 0.40156 0.0
C2442 C 0.24465 0.64061 0.40741 0.0
C2443 C 0.26258 0.63586 0.39956 0.0
C2444 C 0.26324 0.6204 0.38626 0.0
C2445 C 0.28467 0.61854 0.38019 0.0
C2446 C 0.29144 0.59868 0.38618 0.0
C2447 C 0.28681 0.62177 0.35784 0.0
C2448 C 0.29589 0.63523 0.3924 0.0
C2449 C 0.28277 0.64495 0.40345 0.0
C2450 C 0.28941 0.6604 0.41643 0.0
C2451 C 0.31008 0.66608 0.41826 0.0
C2452 C 0.3239 0.65643 0.40708 0.0
C2453 C 0.31666 0.6409 0.39384 0.0
H2454 H 0.59767 0.04904 0.64307 0.0
H2455 H 0.65286 0.08663 0.63506 0.0
H2456 H 0.67043 0.05771 0.62696 0.0
H2457 H 0.62096 0.0114 0.66727 0.0
H2458 H 0.60441 0.99157 0.65608 0.0
H2459 H 0.59559 0.01527 0.65957 0.0
H2460 H 0.58611 0.01615 0.62206 0.0
H2461 H 0.59479 0.99238 0.61847 0.0
H2462 H 0.60493 0.01267 0.60411 0.0
H2463 H 0.68237 0.02475 0.62079 0.0
H2464 H 0.68804 0.98987 0.6177 0.0
H2465 H 0.62551 0.97345 0.63104 0.0
C2466 C 0.61335 0.05118 0.63926 0.0
C2467 C 0.62387 0.0701 0.63952 0.0
C2468 C 0.6445 0.07228 0.63489 0.0
C2469 C 0.65461 0.05594 0.63024 0.0
C2470 C 0.64393 0.03747 0.63043 0.0
C2471 C 0.62377 0.03497 0.63484 0.0
C2472 C 0.61615 0.01342 0.63507 0.0
C2473 C 0.60885 0.00758 0.65573 0.0
C2474 C 0.59951 0.00836 0.61896 0.0
C2475 C 0.63519 0.00426 0.63022 0.0
C2476 C 0.65098 0.0184 0.62743 0.0
C2477 C 0.6701 0.01353 0.6229 0.0
C2478 C 0.67317 0.99366 0.62119 0.0
C2479 C 0.65726 0.97887 0.62417 0.0
C2480 C 0.63803 0.98436 0.62874 0.0
H2481 H 0.20326 0.33019 0.91007 0.0
H2482 H 0.16176 0.35701 0.87079 0.0
H2483 H 0.19053 0.37575 0.85539 0.0
H2484 H 0.23842 0.37178 0.9185 0.0
H2485 H 0.26017 0.35822 0.91846 0.0
H2486 H 0.23632 0.34661 0.92589 0.0
H2487 H 0.23821 0.31912 0.89929 0.0
H2488 H 0.26208 0.33067 0.89177 0.0
H2489 H 0.24162 0.3255 0.87374 0.0
H2490 H 0.22385 0.39327 0.84606 0.0
H2491 H 0.25925 0.40676 0.84218 0.0
H2492 H 0.2786 0.3669 0.88634 0.0
C2493 C 0.2002 0.33995 0.89818 0.0
C2494 C 0.1803 0.34224 0.89167 0.0
C2495 C 0.17692 0.35503 0.87597 0.0
C2496 C 0.19315 0.36574 0.86716 0.0
C2497 C 0.2126 0.36323 0.87404 0.0
C2498 C 0.21618 0.35049 0.88905 0.0
C2499 C 0.23845 0.35047 0.89381 0.0
C2500 C 0.24364 0.35717 0.91544 0.0
C2501 C 0.2455 0.33024 0.88938 0.0
C2502 C 0.24686 0.36544 0.87936 0.0
C2503 C 0.23174 0.37271 0.86813 0.0
C2504 C 0.23584 0.3875 0.85457 0.0
C2505 C 0.25594 0.3951 0.8525 0.0
C2506 C 0.27163 0.38771 0.8638 0.0
C2507 C 0.26696 0.37258 0.87724 0.0
H2508 H 0.35645 0.44456 0.65126 0.0
H2509 H 0.4132 0.45615 0.62212 0.0
H2510 H 0.40381 0.48885 0.61289 0.0
H2511 H 0.32534 0.47088 0.61737 0.0
H2512 H 0.31118 0.48 0.63724 0.0
H2513 H 0.32145 0.45684 0.63946 0.0
H2514 H 0.34004 0.469 0.67243 0.0
H2515 H 0.32983 0.49214 0.67034 0.0
H2516 H 0.35668 0.49136 0.67287 0.0
H2517 H 0.38852 0.52104 0.60824 0.0
H2518 H 0.37027 0.55056 0.61103 0.0
H2519 H 0.32456 0.51795 0.64481 0.0
C2520 C 0.36676 0.4538 0.64259 0.0
C2521 C 0.38546 0.44773 0.63717 0.0
C2522 C 0.39874 0.46048 0.6263 0.0
C2523 C 0.39349 0.47903 0.62094 0.0
C2524 C 0.37498 0.48464 0.62671 0.0
C2525 C 0.3619 0.4724 0.63742 0.0
C2526 C 0.34374 0.48239 0.64336 0.0
C2527 C 0.32428 0.4719 0.63378 0.0
C2528 C 0.34252 0.48381 0.66609 0.0
C2529 C 0.34873 0.50231 0.63459 0.0
C2530 C 0.36662 0.50326 0.62473 0.0
C2531 C 0.37446 0.5204 0.61584 0.0
C2532 C 0.36396 0.53708 0.61745 0.0
C2533 C 0.34601 0.53655 0.62813 0.0
C2534 C 0.33822 0.51881 0.63651 0.0
H2535 H 0.7536 0.08834 0.12657 0.0
H2536 H 0.78345 0.14691 0.1201 0.0
H2537 H 0.7505 0.15971 0.11592 0.0
H2538 H 0.71461 0.09247 0.08981 0.0
H2539 H 0.69539 0.07845 0.10316 0.0
H2540 H 0.72134 0.07394 0.10663 0.0
H2541 H 0.71905 0.07992 0.14451 0.0
H2542 H 0.6931 0.08458 0.14114 0.0
H2543 H 0.71091 0.10259 0.15361 0.0
H2544 H 0.71456 0.16625 0.1116 0.0
H2545 H 0.67787 0.1657 0.10562 0.0
H2546 H 0.67105 0.103 0.11459 0.0
C2547 C 0.7532 0.10387 0.12438 0.0
C2548 C 0.77117 0.1166 0.12372 0.0
C2549 C 0.76995 0.13681 0.12065 0.0
C2550 C 0.75128 0.14428 0.11834 0.0
C2551 C 0.7339 0.13138 0.1191 0.0
C2552 C 0.73464 0.11159 0.12194 0.0
C2553 C 0.71366 0.10083 0.12132 0.0
C2554 C 0.71111 0.08552 0.10421 0.0
C2555 C 0.70891 0.09142 0.14134 0.0
C2556 C 0.70108 0.11764 0.1175 0.0
C2557 C 0.71306 0.13515 0.11644 0.0
C2558 C 0.70499 0.15265 0.11248 0.0
C2559 C 0.68412 0.15219 0.10914 0.0
C2560 C 0.67155 0.13434 0.1097 0.0
C2561 C 0.6802 0.11692 0.11424 0.0
H2562 H 0.65465 0.01386 0.83921 0.0
H2563 H 0.64388 0.02796 0.9007 0.0
H2564 H 0.63259 0.99306 0.9062 0.0
H2565 H 0.61134 0.98129 0.8314 0.0
H2566 H 0.6229 0.96498 0.81503 0.0
H2567 H 0.63221 0.99046 0.81678 0.0
H2568 H 0.668 0.9811 0.82583 0.0
H2569 H 0.65877 0.95554 0.82413 0.0
H2570 H 0.67157 0.96552 0.84658 0.0
H2571 H 0.62115 0.95651 0.90426 0.0
H2572 H 0.60799 0.92254 0.89442 0.0
H2573 H 0.62501 0.93375 0.83387 0.0
C2574 C 0.65027 0.00959 0.85395 0.0
C2575 C 0.65033 0.02353 0.86959 0.0
C2576 C 0.64403 0.01744 0.88854 0.0
C2577 C 0.63769 0.99767 0.89181 0.0
C2578 C 0.63766 0.98431 0.87594 0.0
C2579 C 0.64368 0.9901 0.85736 0.0
C2580 C 0.64071 0.97339 0.84231 0.0
C2581 C 0.62591 0.9778 0.8254 0.0
C2582 C 0.66097 0.96861 0.83425 0.0
C2583 C 0.63176 0.9573 0.85521 0.0
C2584 C 0.63042 0.96369 0.87464 0.0
C2585 C 0.62221 0.95134 0.8891 0.0
C2586 C 0.61484 0.93209 0.88341 0.0
C2587 C 0.61544 0.92561 0.86339 0.0
C2588 C 0.62429 0.93834 0.84927 0.0
H2589 H 0.8576 0.06634 0.35138 0.0
H2590 H 0.8893 0.07459 0.40852 0.0
H2591 H 0.87365 0.0423 0.41878 0.0
H2592 H 0.81059 0.03878 0.3703 0.0
H2593 H 0.80768 0.02337 0.34822 0.0
H2594 H 0.81878 0.04831 0.34688 0.0
H2595 H 0.85027 0.03616 0.33108 0.0
H2596 H 0.83939 0.01127 0.33249 0.0
H2597 H 0.86385 0.01853 0.34392 0.0
H2598 H 0.86004 0.00668 0.41984 0.0
H2599 H 0.8472 0.97207 0.41279 0.0
H2600 H 0.8224 0.98828 0.356 0.0
C2601 C 0.86078 0.06158 0.36627 0.0
C2602 C 0.87462 0.07287 0.37918 0.0
C2603 C 0.87856 0.06619 0.3985 0.0
C2604 C 0.86976 0.04788 0.40442 0.0
C2605 C 0.85669 0.03676 0.39102 0.0
C2606 C 0.85186 0.04359 0.3725 0.0
C2607 C 0.83864 0.02836 0.36027 0.0
C2608 C 0.81767 0.03511 0.35618 0.0
C2609 C 0.84865 0.02328 0.34081 0.0
C2610 C 0.83766 0.01148 0.37434 0.0
C2611 C 0.84804 0.01659 0.39207 0.0
C2612 C 0.85133 0.00268 0.4063 0.0
C2613 C 0.84406 0.98307 0.40216 0.0
C2614 C 0.83349 0.97764 0.38404 0.0
C2615 C 0.82986 0.99213 0.37024 0.0
H2616 H 0.35515 0.27676 0.11118 0.0
H2617 H 0.34673 0.26211 0.04847 0.0
H2618 H 0.34788 0.22715 0.05567 0.0
H2619 H 0.39167 0.24689 0.11974 0.0
H2620 H 0.3846 0.23938 0.14421 0.0
H2621 H 0.37814 0.26245 0.13517 0.0
H2622 H 0.34048 0.25248 0.14139 0.0
H2623 H 0.34684 0.22942 0.15078 0.0
H2624 H 0.32837 0.22986 0.13075 0.0
H2625 H 0.35575 0.19525 0.06855 0.0
H2626 H 0.36921 0.16815 0.08628 0.0
H2627 H 0.37378 0.20312 0.14089 0.0
C2628 C 0.35255 0.26604 0.09914 0.0
C2629 C 0.35036 0.27198 0.07932 0.0
C2630 C 0.34804 0.25774 0.06377 0.0
C2631 C 0.34869 0.23787 0.06773 0.0
C2632 C 0.35179 0.23251 0.08733 0.0
C2633 C 0.35353 0.24613 0.10284 0.0
C2634 C 0.35959 0.2369 0.12211 0.0
C2635 C 0.37969 0.24701 0.1308 0.0
C2636 C 0.34282 0.23718 0.13715 0.0
C2637 C 0.36179 0.21622 0.11484 0.0
C2638 C 0.35686 0.21395 0.09479 0.0
C2639 C 0.35926 0.19671 0.08432 0.0
C2640 C 0.36704 0.18143 0.09452 0.0
C2641 C 0.37246 0.18347 0.115 0.0
C2642 C 0.36947 0.20101 0.12532 0.0
H2643 H 0.56615 0.66098 0.90547 0.0
H2644 H 0.59088 0.61924 0.86636 0.0
H2645 H 0.55683 0.61028 0.85104 0.0
H2646 H 0.52037 0.63144 0.91424 0.0
H2647 H 0.50552 0.65193 0.91508 0.0
H2648 H 0.53186 0.65529 0.92226 0.0
H2649 H 0.53756 0.68261 0.89648 0.0
H2650 H 0.51124 0.67929 0.88918 0.0
H2651 H 0.53004 0.67741 0.87085 0.0
H2652 H 0.51978 0.60663 0.83969 0.0
H2653 H 0.48287 0.60668 0.83504 0.0
H2654 H 0.48306 0.64991 0.8829 0.0
C2655 C 0.5645 0.65002 0.8936 0.0
C2656 C 0.58119 0.64091 0.88697 0.0
C2657 C 0.57828 0.62641 0.87164 0.0
C2658 C 0.55904 0.62129 0.86283 0.0
C2659 C 0.54292 0.63068 0.8697 0.0
C2660 C 0.54548 0.6446 0.88489 0.0
C2661 C 0.52577 0.65211 0.89015 0.0
C2662 C 0.52058 0.6474 0.91171 0.0
C2663 C 0.52619 0.67416 0.88643 0.0
C2664 C 0.5116 0.64026 0.87554 0.0
C2665 C 0.52174 0.62812 0.86371 0.0
C2666 C 0.51171 0.61602 0.84893 0.0
C2667 C 0.49077 0.6162 0.84636 0.0
C2668 C 0.48009 0.62823 0.85867 0.0
C2669 C 0.49075 0.64044 0.87335 0.0
H2670 H 0.13576 0.72728 0.61349 0.0
H2671 H 0.14575 0.73234 0.55061 0.0
H2672 H 0.15003 0.76835 0.55447 0.0
H2673 H 0.10455 0.76283 0.61585 0.0
H2674 H 0.11248 0.77274 0.64013 0.0
H2675 H 0.11561 0.74771 0.63389 0.0
H2676 H 0.15377 0.75389 0.64272 0.0
H2677 H 0.15074 0.77899 0.64923 0.0
H2678 H 0.16876 0.77349 0.63113 0.0
H2679 H 0.14693 0.80283 0.56349 0.0
H2680 H 0.13624 0.83362 0.57686 0.0
H2681 H 0.12698 0.80694 0.63402 0.0
C2682 C 0.13987 0.73603 0.6008 0.0
C2683 C 0.14099 0.72715 0.58184 0.0
C2684 C 0.14526 0.73895 0.56529 0.0
C2685 C 0.14774 0.75939 0.56737 0.0
C2686 C 0.14571 0.7678 0.58609 0.0
C2687 C 0.14196 0.75653 0.60259 0.0
C2688 C 0.13729 0.76914 0.62027 0.0
C2689 C 0.11623 0.76272 0.62797 0.0
C2690 C 0.15362 0.76886 0.63682 0.0
C2691 C 0.13802 0.78906 0.61089 0.0
C2692 C 0.14336 0.78799 0.59128 0.0
C2693 C 0.14317 0.80397 0.57893 0.0
C2694 C 0.13698 0.82138 0.58664 0.0
C2695 C 0.13094 0.82271 0.60651 0.0
C2696 C 0.13197 0.80647 0.61891 0.0
H2697 H 0.03395 0.34393 0.37674 0.0
H2698 H 0.03116 0.38604 0.32987 0.0
H2699 H 0.99531 0.38853 0.33641 0.0
H2700 H 0.98351 0.31915 0.36685 0.0
H2701 H 0.97917 0.31523 0.39277 0.0
H2702 H 0.00438 0.31636 0.38383 0.0
H2703 H 0.0158 0.34402 0.40969 0.0
H2704 H 0.99061 0.34309 0.41858 0.0
H2705 H 0.00291 0.36585 0.41019 0.0
H2706 H 0.96031 0.38828 0.34997 0.0
H2707 H 0.92817 0.38283 0.36731 0.0
H2708 H 0.95376 0.33981 0.40405 0.0
C2709 C 0.02577 0.35354 0.36771 0.0
C2710 C 0.03539 0.36482 0.35282 0.0
C2711 C 0.02409 0.37718 0.3413 0.0
C2712 C 0.00374 0.37876 0.34495 0.0
C2713 C 0.99482 0.36769 0.35999 0.0
C2714 C 0.0054 0.35509 0.37097 0.0
C2715 C 0.99235 0.3448 0.38627 0.0
C2716 C 0.98969 0.32257 0.38217 0.0
C2717 C 0.00093 0.34975 0.40743 0.0
C2718 C 0.97287 0.3538 0.38241 0.0
C2719 C 0.97458 0.36706 0.36729 0.0
C2720 C 0.95873 0.37776 0.36168 0.0
C2721 C 0.94058 0.37465 0.37166 0.0
C2722 C 0.93842 0.36081 0.38692 0.0
C2723 C 0.95485 0.35032 0.39229 0.0
H2724 H 0.41865 0.80641 0.34263 0.0
H2725 H 0.39621 0.8414 0.38973 0.0
H2726 H 0.39096 0.81191 0.41013 0.0
H2727 H 0.38319 0.76389 0.34877 0.0
H2728 H 0.40109 0.74682 0.34301 0.0
H2729 H 0.40343 0.77077 0.33245 0.0
H2730 H 0.43999 0.77689 0.34696 0.0
H2731 H 0.43769 0.75303 0.35774 0.0
H2732 H 0.44471 0.77449 0.37322 0.0
H2733 H 0.3895 0.77884 0.42582 0.0
H2734 H 0.38786 0.74397 0.43421 0.0
H2735 H 0.40953 0.73021 0.37606 0.0
C2736 C 0.41261 0.80787 0.35724 0.0
C2737 C 0.40793 0.82621 0.36467 0.0
C2738 C 0.39983 0.82748 0.38374 0.0
C2739 C 0.39692 0.81084 0.39546 0.0
C2740 C 0.40195 0.79304 0.38778 0.0
C2741 C 0.40931 0.79138 0.36898 0.0
C2742 C 0.41276 0.77042 0.36389 0.0
C2743 C 0.39931 0.76251 0.34597 0.0
C2744 C 0.43511 0.76861 0.36024 0.0
C2745 C 0.40627 0.76051 0.38282 0.0
C2746 C 0.40035 0.77387 0.3965 0.0
C2747 C 0.394 0.76825 0.41518 0.0
C2748 C 0.39323 0.74839 0.41984 0.0
C2749 C 0.39854 0.73432 0.40579 0.0
C2750 C 0.40534 0.74058 0.38711 0.0
H2751 H 0.00629 0.62788 0.18001 0.0
H2752 H 0.02717 0.60574 0.12449 0.0
H2753 H 0.99431 0.61046 0.10816 0.0
H2754 H 0.95215 0.60835 0.17266 0.0
H2755 H 0.944 0.62994 0.18423 0.0
H2756 H 0.9676 0.6214 0.192 0.0
H2757 H 0.9859 0.65551 0.18501 0.0
H2758 H 0.96251 0.66407 0.17691 0.0
H2759 H 0.98347 0.66552 0.16064 0.0
H2760 H 0.96098 0.62243 0.09702 0.0
H2761 H 0.92978 0.63873 0.09255 0.0
H2762 H 0.93161 0.65316 0.15558 0.0
C2763 C 0.00377 0.62342 0.16456 0.0
C2764 C 0.01924 0.61637 0.15353 0.0
C2765 C 0.01543 0.61096 0.13328 0.0
C2766 C 0.99684 0.61366 0.12388 0.0
C2767 C 0.98221 0.62154 0.13503 0.0
C2768 C 0.98541 0.62604 0.15503 0.0
C2769 C 0.9682 0.63592 0.1634 0.0
C2770 C 0.95734 0.62313 0.17899 0.0
C2771 C 0.97546 0.65647 0.17198 0.0
C2772 C 0.95511 0.63701 0.14485 0.0
C2773 C 0.96325 0.62846 0.12865 0.0
C2774 C 0.95432 0.62886 0.10968 0.0
C2775 C 0.93666 0.63823 0.10727 0.0
C2776 C 0.92824 0.6472 0.12372 0.0
C2777 C 0.93757 0.64635 0.14271 0.0
H2778 H 0.10115 0.25188 0.88891 0.0
H2779 H 0.14917 0.24599 0.93266 0.0
H2780 H 0.14833 0.21085 0.92358 0.0
H2781 H 0.07349 0.20441 0.89663 0.0
H2782 H 0.06637 0.2008 0.87071 0.0
H2783 H 0.07038 0.22519 0.88135 0.0
H2784 H 0.09653 0.2347 0.85473 0.0
H2785 H 0.09275 0.2103 0.84414 0.0
H2786 H 0.11768 0.22061 0.85205 0.0
H2787 H 0.14352 0.17654 0.90796 0.0
H2788 H 0.13317 0.14561 0.88911 0.0
H2789 H 0.08797 0.17447 0.85644 0.0
C2790 C 0.11137 0.2432 0.89676 0.0
C2791 C 0.12524 0.25172 0.91149 0.0
C2792 C 0.13834 0.23978 0.92138 0.0
C2793 C 0.13804 0.21982 0.91627 0.0
C2794 C 0.12444 0.21199 0.90137 0.0
C2795 C 0.11118 0.22329 0.89196 0.0
C2796 C 0.0981 0.21148 0.87639 0.0
C2797 C 0.07576 0.2104 0.88159 0.0
C2798 C 0.10148 0.21977 0.8556 0.0
C2799 C 0.1062 0.19181 0.87833 0.0
C2800 C 0.12144 0.19234 0.89274 0.0
C2801 C 0.13148 0.17592 0.89675 0.0
C2802 C 0.12558 0.15846 0.88592 0.0
C2803 C 0.10971 0.15757 0.87136 0.0
C2804 C 0.10005 0.17457 0.86755 0.0
H2805 H 0.57235 0.34628 0.64032 0.0
H2806 H 0.5718 0.36889 0.58073 0.0
H2807 H 0.54198 0.38606 0.5884 0.0
H2808 H 0.52024 0.33594 0.6429 0.0
H2809 H 0.51947 0.34239 0.66888 0.0
H2810 H 0.54184 0.33385 0.65917 0.0
H2811 H 0.56279 0.36537 0.67289 0.0
H2812 H 0.54039 0.37409 0.68252 0.0
H2813 H 0.55562 0.38895 0.6659 0.0
H2814 H 0.51083 0.3992 0.60235 0.0
H2815 H 0.47985 0.4045 0.62007 0.0
H2816 H 0.50115 0.37247 0.66998 0.0
C2817 C 0.56617 0.35506 0.62893 0.0
C2818 C 0.57446 0.35636 0.60997 0.0
C2819 C 0.5657 0.36774 0.59539 0.0
C2820 C 0.54885 0.37763 0.59965 0.0
C2821 C 0.541 0.37596 0.61854 0.0
C2822 C 0.54937 0.36485 0.63288 0.0
C2823 C 0.5373 0.36401 0.65147 0.0
C2824 C 0.52923 0.3428 0.65584 0.0
C2825 C 0.54977 0.37369 0.66924 0.0
C2826 C 0.52052 0.37602 0.64524 0.0
C2827 C 0.52304 0.38312 0.62636 0.0
C2828 C 0.50882 0.39386 0.61721 0.0
C2829 C 0.49133 0.39689 0.62742 0.0
C2830 C 0.48814 0.38894 0.6464 0.0
C2831 C 0.50321 0.37884 0.65553 0.0
H2832 H 0.08723 0.3902 0.26307 0.0
H2833 H 0.13478 0.3545 0.2797 0.0
H2834 H 0.14785 0.3573 0.24578 0.0
H2835 H 0.07919 0.37064 0.21174 0.0
H2836 H 0.07423 0.39413 0.20234 0.0
H2837 H 0.06796 0.38786 0.22736 0.0
H2838 H 0.08951 0.4192 0.24058 0.0
H2839 H 0.096 0.42548 0.21567 0.0
H2840 H 0.1156 0.42325 0.23426 0.0
H2841 H 0.15789 0.36759 0.21111 0.0
H2842 H 0.16215 0.38176 0.17783 0.0
H2843 H 0.10678 0.40905 0.18382 0.0
C2844 C 0.1002 0.38269 0.25949 0.0
C2845 C 0.11003 0.37215 0.27398 0.0
C2846 C 0.12695 0.36253 0.26875 0.0
C2847 C 0.1345 0.36411 0.24956 0.0
C2848 C 0.12471 0.37505 0.23574 0.0
C2849 C 0.1077 0.38386 0.24041 0.0
C2850 C 0.10019 0.39522 0.22317 0.0
C2851 C 0.07915 0.38643 0.21571 0.0
C2852 C 0.10035 0.41708 0.22876 0.0
C2853 C 0.11594 0.3919 0.2082 0.0
C2854 C 0.13001 0.38027 0.21569 0.0
C2855 C 0.14675 0.37639 0.20498 0.0
C2856 C 0.14909 0.38456 0.18615 0.0
C2857 C 0.13467 0.39629 0.17818 0.0
C2858 C 0.11785 0.39982 0.18936 0.0
H2859 H 0.3513 0.36196 0.92582 0.0
H2860 H 0.35709 0.42536 0.93139 0.0
H2861 H 0.36142 0.42306 0.96779 0.0
H2862 H 0.32222 0.3531 0.96802 0.0
H2863 H 0.33381 0.33159 0.97517 0.0
H2864 H 0.33272 0.33819 0.94949 0.0
H2865 H 0.37148 0.33849 0.94794 0.0
H2866 H 0.37266 0.33167 0.97357 0.0
H2867 H 0.38746 0.35333 0.96563 0.0
H2868 H 0.36357 0.4137 0.00374 0.0
H2869 H 0.36439 0.39811 0.03637 0.0
H2870 H 0.35643 0.34082 0.0071 0.0
C2871 C 0.35383 0.37539 0.93463 0.0
C2872 C 0.354 0.39386 0.92574 0.0
C2873 C 0.35702 0.41106 0.93786 0.0
C2874 C 0.35945 0.40989 0.95855 0.0
C2875 C 0.35878 0.39143 0.96686 0.0
C2876 C 0.35614 0.37449 0.95526 0.0
C2877 C 0.35524 0.35646 0.96787 0.0
C2878 C 0.33478 0.34412 0.96496 0.0
C2879 C 0.37276 0.34427 0.96349 0.0
C2880 C 0.35764 0.36588 0.9884 0.0
C2881 C 0.35972 0.38605 0.98751 0.0
C2882 C 0.36203 0.39791 0.0046 0.0
C2883 C 0.36242 0.3889 0.02308 0.0
C2884 C 0.36044 0.36822 0.02434 0.0
C2885 C 0.35791 0.35664 0.00669 0.0
H2886 H 0.36205 0.59261 0.69586 0.0
H2887 H 0.35099 0.65278 0.68546 0.0
H2888 H 0.36648 0.66258 0.71853 0.0
H2889 H 0.35152 0.59187 0.74688 0.0
H2890 H 0.37121 0.5768 0.7534 0.0
H2891 H 0.35968 0.57487 0.72885 0.0
H2892 H 0.39473 0.58203 0.71363 0.0
H2893 H 0.40639 0.58395 0.73814 0.0
H2894 H 0.41056 0.60387 0.7213 0.0
H2895 H 0.38131 0.66506 0.75407 0.0
H2896 H 0.39617 0.66032 0.78763 0.0
H2897 H 0.39879 0.59885 0.77302 0.0
C2898 C 0.36291 0.60788 0.70049 0.0
C2899 C 0.35522 0.62193 0.68818 0.0
C2900 C 0.35684 0.64178 0.69468 0.0
C2901 C 0.36556 0.64747 0.71343 0.0
C2902 C 0.37284 0.63315 0.72529 0.0
C2903 C 0.3718 0.61381 0.71892 0.0
C2904 C 0.38074 0.60119 0.73428 0.0
C2905 C 0.36484 0.58525 0.74126 0.0
C2906 C 0.3992 0.59224 0.72636 0.0
C2907 C 0.38672 0.61637 0.75048 0.0
C2908 C 0.38199 0.63472 0.74516 0.0
C2909 C 0.38531 0.65079 0.75827 0.0
C2910 C 0.39369 0.64798 0.77728 0.0
C2911 C 0.39882 0.62929 0.78281 0.0
C2912 C 0.39535 0.6134 0.76913 0.0
H2913 H 0.12552 0.65422 0.51375 0.0
H2914 H 0.11548 0.5985 0.54291 0.0
H2915 H 0.11866 0.58119 0.51086 0.0
H2916 H 0.09821 0.63885 0.46732 0.0
H2917 H 0.11577 0.65326 0.45243 0.0
H2918 H 0.11153 0.66115 0.47746 0.0
H2919 H 0.14977 0.66237 0.48601 0.0
H2920 H 0.15413 0.65455 0.46103 0.0
H2921 H 0.16258 0.64088 0.48168 0.0
H2922 H 0.12549 0.57005 0.47588 0.0
H2923 H 0.13511 0.56618 0.44097 0.0
H2924 H 0.13953 0.62923 0.43498 0.0
C2925 C 0.12382 0.63838 0.51342 0.0
C2926 C 0.12027 0.62774 0.53087 0.0
C2927 C 0.11816 0.60699 0.52973 0.0
C2928 C 0.11991 0.59702 0.51159 0.0
C2929 C 0.12357 0.60798 0.49469 0.0
C2930 C 0.12538 0.62821 0.49545 0.0
C2931 C 0.12997 0.63661 0.47536 0.0
C2932 C 0.11284 0.64815 0.46769 0.0
C2933 C 0.15032 0.64934 0.47607 0.0
C2934 C 0.1309 0.61797 0.46324 0.0
C2935 C 0.12709 0.60158 0.47458 0.0
C2936 C 0.12824 0.58277 0.46679 0.0
C2937 C 0.13371 0.58071 0.44696 0.0
C2938 C 0.1379 0.59738 0.4352 0.0
C2939 C 0.13613 0.61617 0.44346 0.0
H2940 H 0.13444 0.60494 0.22572 0.0
H2941 H 0.07414 0.61907 0.23819 0.0
H2942 H 0.08052 0.61357 0.27379 0.0
H2943 H 0.13506 0.56593 0.26095 0.0
H2944 H 0.16135 0.57159 0.26776 0.0
H2945 H 0.15215 0.57694 0.24327 0.0
H2946 H 0.16663 0.61319 0.2484 0.0
H2947 H 0.17586 0.60797 0.27291 0.0
H2948 H 0.1594 0.62698 0.26957 0.0
H2949 H 0.09396 0.60797 0.3082 0.0
H2950 H 0.11275 0.60031 0.33877 0.0
H2951 H 0.16349 0.58793 0.30362 0.0
C2952 C 0.12261 0.6069 0.23596 0.0
C2953 C 0.10384 0.61251 0.22923 0.0
C2954 C 0.08862 0.61471 0.24303 0.0
C2955 C 0.09211 0.61168 0.26328 0.0
C2956 C 0.11079 0.60619 0.26945 0.0
C2957 C 0.12571 0.6036 0.25619 0.0
C2958 C 0.14426 0.59716 0.26663 0.0
C2959 C 0.14844 0.57669 0.25921 0.0
C2960 C 0.16262 0.61223 0.26424 0.0
C2961 C 0.13752 0.59678 0.28786 0.0
C2962 C 0.11822 0.60218 0.28918 0.0
C2963 C 0.10901 0.60355 0.30734 0.0
C2964 C 0.11981 0.59923 0.32461 0.0
C2965 C 0.13949 0.59338 0.32354 0.0
C2966 C 0.14837 0.59212 0.30488 0.0
H2967 H 0.17161 0.38601 0.06408 0.0
H2968 H 0.10918 0.3958 0.07203 0.0
H2969 H 0.09937 0.37626 0.04131 0.0
H2970 H 0.1714 0.38827 0.01123 0.0
H2971 H 0.18758 0.369 0.00837 0.0
H2972 H 0.18947 0.38398 0.03069 0.0
H2973 H 0.18362 0.35291 0.05175 0.0
H2974 H 0.18166 0.33782 0.02948 0.0
H2975 H 0.16153 0.33599 0.04672 0.0
H2976 H 0.09691 0.3568 0.00857 0.0
H2977 H 0.10169 0.33731 0.97805 0.0
H2978 H 0.16538 0.33864 0.99345 0.0
C2979 C 0.15588 0.38414 0.05932 0.0
C2980 C 0.14116 0.39256 0.0703 0.0
C2981 C 0.12069 0.38948 0.06378 0.0
C2982 C 0.115 0.37844 0.04636 0.0
C2983 C 0.12993 0.37034 0.03587 0.0
C2984 C 0.14992 0.37289 0.04226 0.0
C2985 C 0.16303 0.36229 0.0287 0.0
C2986 C 0.17879 0.37675 0.01918 0.0
C2987 C 0.17305 0.3463 0.03983 0.0
C2988 C 0.14736 0.35351 0.01351 0.0
C2989 C 0.12836 0.35842 0.01776 0.0
C2990 C 0.11168 0.35268 0.00525 0.0
C2991 C 0.11452 0.34165 0.98796 0.0
C2992 C 0.13384 0.33627 0.98356 0.0
C2993 C 0.15037 0.34222 0.99661 0.0
H2994 H 0.34715 0.41633 0.79409 0.0
H2995 H 0.38832 0.38568 0.83014 0.0
H2996 H 0.40863 0.38095 0.80066 0.0
H2997 H 0.34762 0.38543 0.75095 0.0
H2998 H 0.346 0.40511 0.73389 0.0
H2999 H 0.33536 0.40661 0.75799 0.0
H3000 H 0.35686 0.43972 0.76515 0.0
H3001 H 0.36764 0.43828 0.74109 0.0
H3002 H 0.38381 0.44114 0.7631 0.0
H3003 H 0.42456 0.38005 0.767 0.0
H3004 H 0.43335 0.38073 0.73168 0.0
H3005 H 0.38073 0.41093 0.71793 0.0
C3006 C 0.3605 0.4087 0.79587 0.0
C3007 C 0.36625 0.40148 0.81445 0.0
C3008 C 0.38365 0.39134 0.81604 0.0
C3009 C 0.39531 0.38866 0.79941 0.0
C3010 C 0.38922 0.39607 0.78132 0.0
C3011 C 0.37211 0.40572 0.77945 0.0
C3012 C 0.36831 0.41164 0.75828 0.0
C3013 C 0.34813 0.40159 0.74978 0.0
C3014 C 0.36922 0.43403 0.75683 0.0
C3015 C 0.38596 0.4038 0.74844 0.0
C3016 C 0.39798 0.39504 0.76198 0.0
C3017 C 0.41522 0.38683 0.75628 0.0
C3018 C 0.42012 0.38735 0.7362 0.0
C3019 C 0.40769 0.39584 0.72203 0.0
C3020 C 0.39049 0.40427 0.72837 0.0
H3021 H 0.37466 0.686 0.50266 0.0
H3022 H 0.39962 0.63474 0.47916 0.0
H3023 H 0.39518 0.61881 0.51155 0.0
H3024 H 0.3955 0.68354 0.55434 0.0
H3025 H 0.37308 0.69166 0.56457 0.0
H3026 H 0.38103 0.69984 0.54058 0.0
H3027 H 0.34601 0.68689 0.52525 0.0
H3028 H 0.33802 0.67848 0.54906 0.0
H3029 H 0.33673 0.66158 0.52815 0.0
H3030 H 0.3835 0.60695 0.54515 0.0
H3031 H 0.36754 0.60099 0.57739 0.0
H3032 H 0.35077 0.6604 0.57844 0.0
C3033 C 0.37971 0.67162 0.50444 0.0
C3034 C 0.38755 0.66163 0.48841 0.0
C3035 C 0.39376 0.64274 0.49131 0.0
C3036 C 0.39124 0.63357 0.50964 0.0
C3037 C 0.38274 0.6436 0.52494 0.0
C3038 C 0.37737 0.66235 0.52258 0.0
C3039 C 0.36727 0.66954 0.5407 0.0
C3040 C 0.37998 0.68719 0.55064 0.0
C3041 C 0.34574 0.67439 0.53547 0.0
C3042 C 0.36714 0.65167 0.55342 0.0
C3043 C 0.37625 0.63689 0.5442 0.0
C3044 C 0.37666 0.61855 0.55264 0.0
C3045 C 0.36749 0.61528 0.57091 0.0
C3046 C 0.35801 0.63026 0.5805 0.0
C3047 C 0.3581 0.64871 0.57165 0.0
H3048 H 0.18315 0.09137 0.39129 0.0
H3049 H 0.19418 0.15172 0.37356 0.0
H3050 H 0.22836 0.14555 0.3635 0.0
H3051 H 0.23052 0.08881 0.41353 0.0
H3052 H 0.23245 0.06371 0.4062 0.0
H3053 H 0.20809 0.07215 0.40925 0.0
H3054 H 0.19745 0.06051 0.3733 0.0
H3055 H 0.22184 0.05202 0.37012 0.0
H3056 H 0.2126 0.06913 0.35301 0.0
H3057 H 0.26226 0.13323 0.35765 0.0
H3058 H 0.2935 0.11677 0.35883 0.0
H3059 H 0.26043 0.06493 0.3818 0.0
C3060 C 0.19256 0.10319 0.38484 0.0
C3061 C 0.18591 0.12197 0.38296 0.0
C3062 C 0.19891 0.13718 0.37499 0.0
C3063 C 0.21831 0.13378 0.36917 0.0
C3064 C 0.22451 0.11513 0.37152 0.0
C3065 C 0.21201 0.10011 0.37925 0.0
C3066 C 0.22283 0.08197 0.38209 0.0
C3067 C 0.22352 0.07635 0.40407 0.0
C3068 C 0.2131 0.0649 0.36884 0.0
C3069 C 0.24354 0.08922 0.37518 0.0
C3070 C 0.24413 0.10825 0.36878 0.0
C3071 C 0.2619 0.11828 0.36246 0.0
C3072 C 0.27958 0.10878 0.36315 0.0
C3073 C 0.27943 0.08953 0.37036 0.0
C3074 C 0.26104 0.07958 0.37607 0.0
H3075 H 0.78156 0.37623 0.6049 0.0
H3076 H 0.76962 0.41947 0.64969 0.0
H3077 H 0.73341 0.40764 0.64733 0.0
H3078 H 0.73719 0.38071 0.57467 0.0
H3079 H 0.73343 0.35504 0.56793 0.0
H3080 H 0.75844 0.36651 0.57368 0.0
H3081 H 0.76329 0.34081 0.60058 0.0
H3082 H 0.73827 0.3293 0.59495 0.0
H3083 H 0.74541 0.3375 0.61998 0.0
H3084 H 0.69864 0.39064 0.64049 0.0
H3085 H 0.66744 0.37133 0.62792 0.0
H3086 H 0.70216 0.34029 0.58662 0.0
C3087 C 0.77135 0.38316 0.61428 0.0
C3088 C 0.77839 0.39869 0.62756 0.0
C3089 C 0.76452 0.40755 0.63939 0.0
C3090 C 0.74396 0.4009 0.63822 0.0
C3091 C 0.73754 0.38551 0.625 0.0
C3092 C 0.75079 0.37688 0.61311 0.0
C3093 C 0.73995 0.36107 0.59964 0.0
C3094 C 0.7424 0.36615 0.57768 0.0
C3095 C 0.74716 0.34098 0.60406 0.0
C3096 C 0.71852 0.36212 0.60583 0.0
C3097 C 0.71746 0.37617 0.62061 0.0
C3098 C 0.69926 0.37964 0.62887 0.0
C3099 C 0.68165 0.36856 0.62168 0.0
C3100 C 0.68237 0.35437 0.60624 0.0
C3101 C 0.7011 0.35112 0.59833 0.0
H3102 H 0.36824 0.9323 0.35713 0.0
H3103 H 0.43307 0.94554 0.35507 0.0
H3104 H 0.42924 0.98072 0.35966 0.0
H3105 H 0.35513 0.97293 0.33001 0.0
H3106 H 0.33371 0.97714 0.34451 0.0
H3107 H 0.34151 0.95288 0.34225 0.0
H3108 H 0.34464 0.95086 0.38053 0.0
H3109 H 0.3366 0.97503 0.38292 0.0
H3110 H 0.36008 0.96972 0.39451 0.0
H3111 H 0.4182 0.01456 0.36253 0.0
H3112 H 0.40104 0.04454 0.36579 0.0
H3113 H 0.34331 0.00928 0.36624 0.0
C3114 C 0.38168 0.94255 0.35794 0.0
C3115 C 0.40099 0.93613 0.35579 0.0
C3116 C 0.41814 0.95007 0.35677 0.0
C3117 C 0.41611 0.9701 0.35931 0.0
C3118 C 0.39683 0.97595 0.36093 0.0
C3119 C 0.37992 0.96258 0.36049 0.0
C3120 C 0.36089 0.97274 0.36222 0.0
C3121 C 0.347 0.96868 0.34364 0.0
C3122 C 0.34991 0.96673 0.38117 0.0
C3123 C 0.36972 0.99394 0.36352 0.0
C3124 C 0.39047 0.99546 0.36271 0.0
C3125 C 0.40197 0.01354 0.36331 0.0
C3126 C 0.39204 0.03051 0.36509 0.0
C3127 C 0.37079 0.02933 0.3663 0.0
C3128 C 0.35955 0.01073 0.36537 0.0
H3129 H 0.81498 0.62809 0.0909 0.0
H3130 H 0.82447 0.653 0.15048 0.0
H3131 H 0.79183 0.63594 0.15995 0.0
H3132 H 0.76377 0.63248 0.08588 0.0
H3133 H 0.75763 0.60967 0.07231 0.0
H3134 H 0.78237 0.62247 0.07097 0.0
H3135 H 0.79829 0.59159 0.08272 0.0
H3136 H 0.77356 0.57864 0.08403 0.0
H3137 H 0.79046 0.58039 0.10552 0.0
H3138 H 0.75609 0.61908 0.16139 0.0
H3139 H 0.72177 0.60223 0.15525 0.0
H3140 H 0.73741 0.58733 0.09527 0.0
C3141 C 0.81033 0.62977 0.10602 0.0
C3142 C 0.82215 0.6419 0.11995 0.0
C3143 C 0.81563 0.64368 0.13962 0.0
C3144 C 0.79712 0.63408 0.14511 0.0
C3145 C 0.78562 0.6225 0.13084 0.0
C3146 C 0.79217 0.6201 0.11179 0.0
C3147 C 0.77688 0.60743 0.09898 0.0
C3148 C 0.76975 0.61869 0.08099 0.0
C3149 C 0.7853 0.58838 0.09243 0.0
C3150 C 0.76037 0.60354 0.11357 0.0
C3151 C 0.7656 0.61229 0.1319 0.0
C3152 C 0.752 0.61185 0.14721 0.0
C3153 C 0.73255 0.60231 0.1436 0.0
C3154 C 0.72704 0.59329 0.12488 0.0
C3155 C 0.74128 0.59374 0.10987 0.0
H3156 H 0.6435 0.56993 0.35391 0.0
H3157 H 0.58368 0.55606 0.37608 0.0
H3158 H 0.59258 0.52313 0.38511 0.0
H3159 H 0.64571 0.52495 0.33027 0.0
H3160 H 0.67227 0.52385 0.33514 0.0
H3161 H 0.66237 0.54718 0.33362 0.0
H3162 H 0.67759 0.55696 0.36869 0.0
H3163 H 0.68763 0.53363 0.3703 0.0
H3164 H 0.67153 0.54135 0.38926 0.0
H3165 H 0.60761 0.49082 0.38967 0.0
H3166 H 0.62603 0.46141 0.38654 0.0
H3167 H 0.67483 0.49614 0.35891 0.0
C3168 C 0.63246 0.56018 0.36122 0.0
C3169 C 0.61303 0.56566 0.36468 0.0
C3170 C 0.59874 0.55222 0.37355 0.0
C3171 C 0.60369 0.53352 0.37876 0.0
C3172 C 0.62291 0.52844 0.37478 0.0
C3173 C 0.63701 0.54139 0.36607 0.0
C3174 C 0.65572 0.53176 0.36118 0.0
C3175 C 0.6592 0.53194 0.33873 0.0
C3176 C 0.67421 0.54151 0.37307 0.0
C3177 C 0.64986 0.51123 0.36813 0.0
C3178 C 0.63108 0.50967 0.37634 0.0
C3179 C 0.62237 0.49193 0.38336 0.0
C3180 C 0.63295 0.47532 0.38158 0.0
C3181 C 0.65183 0.4765 0.37247 0.0
C3182 C 0.66043 0.49478 0.36595 0.0
H3183 H 0.23339 0.90389 0.879 0.0
H3184 H 0.20688 0.84346 0.87741 0.0
H3185 H 0.24049 0.83233 0.88232 0.0
H3186 H 0.27911 0.8954 0.8536 0.0
H3187 H 0.29499 0.91283 0.86892 0.0
H3188 H 0.26885 0.91629 0.86444 0.0
H3189 H 0.26363 0.91777 0.90232 0.0
H3190 H 0.28975 0.9144 0.90691 0.0
H3191 H 0.27042 0.89792 0.9174 0.0
H3192 H 0.27663 0.82746 0.88804 0.0
H3193 H 0.31312 0.82939 0.89587 0.0
H3194 H 0.31662 0.89281 0.89428 0.0
C3195 C 0.23468 0.88833 0.87958 0.0
C3196 C 0.21742 0.87458 0.87778 0.0
C3197 C 0.21979 0.85433 0.87879 0.0
C3198 C 0.23886 0.84781 0.8815 0.0
C3199 C 0.25551 0.86168 0.88323 0.0
C3200 C 0.25367 0.88152 0.88242 0.0
C3201 C 0.27403 0.8933 0.88548 0.0
C3202 C 0.27957 0.90515 0.86701 0.0
C3203 C 0.27448 0.90663 0.90414 0.0
C3204 C 0.28749 0.87697 0.88829 0.0
C3205 C 0.27649 0.85886 0.88677 0.0
C3206 C 0.28545 0.84156 0.8892 0.0
C3207 C 0.3062 0.84281 0.89362 0.0
C3208 C 0.31777 0.86123 0.89565 0.0
C3209 C 0.30824 0.87849 0.8927 0.0
H3210 H 0.34905 0.99481 0.12545 0.0
H3211 H 0.31344 0.99073 0.17825 0.0
H3212 H 0.32047 0.0262 0.18416 0.0
H3213 H 0.38727 0.02925 0.14491 0.0
H3214 H 0.39073 0.04279 0.12245 0.0
H3215 H 0.38144 0.01727 0.12108 0.0
H3216 H 0.35007 0.02555 0.10054 0.0
H3217 H 0.35929 0.05113 0.10184 0.0
H3218 H 0.33451 0.04324 0.11025 0.0
H3219 H 0.3342 0.06083 0.18679 0.0
H3220 H 0.35295 0.09354 0.18506 0.0
H3221 H 0.37848 0.07644 0.1298 0.0
C3222 C 0.34248 0.00145 0.13806 0.0
C3223 C 0.33069 0.98997 0.15138 0.0
C3224 C 0.3225 0.99918 0.16781 0.0
C3225 C 0.32635 0.01936 0.17129 0.0
C3226 C 0.33825 0.0302 0.1581 0.0
C3227 C 0.34607 0.02169 0.1417 0.0
C3228 C 0.35921 0.0367 0.13047 0.0
C3229 C 0.38095 0.03117 0.12969 0.0
C3230 C 0.35023 0.03931 0.10953 0.0
C3231 C 0.35799 0.05479 0.14348 0.0
C3232 C 0.34574 0.05065 0.15929 0.0
C3233 C 0.3435 0.06441 0.17428 0.0
C3234 C 0.35424 0.08289 0.17321 0.0
C3235 C 0.36686 0.08749 0.15717 0.0
C3236 C 0.3685 0.07338 0.14194 0.0
H3237 H 0.1354 0.93691 0.65751 0.0
H3238 H 0.1229 0.92469 0.59474 0.0
H3239 H 0.1366 0.95852 0.58732 0.0
H3240 H 0.12187 0.98428 0.65911 0.0
H3241 H 0.14166 0.99384 0.67653 0.0
H3242 H 0.13253 0.96831 0.67657 0.0
H3243 H 0.16874 0.95894 0.67188 0.0
H3244 H 0.17803 0.98449 0.67191 0.0
H3245 H 0.18292 0.96864 0.65138 0.0
H3246 H 0.14715 0.99506 0.58757 0.0
H3247 H 0.15681 0.03028 0.59513 0.0
H3248 H 0.16502 0.01745 0.65736 0.0
C3249 C 0.13585 0.94127 0.64217 0.0
C3250 C 0.12805 0.92827 0.62668 0.0
C3251 C 0.12893 0.93443 0.60679 0.0
C3252 C 0.13663 0.9536 0.60246 0.0
C3253 C 0.14383 0.9662 0.61816 0.0
C3254 C 0.14387 0.96014 0.63758 0.0
C3255 C 0.15193 0.97657 0.65184 0.0
C3256 C 0.13605 0.98101 0.66689 0.0
C3257 C 0.17158 0.97188 0.66237 0.0
C3258 C 0.15576 0.99306 0.63751 0.0
C3259 C 0.15096 0.98686 0.61814 0.0
C3260 C 0.15144 0.99997 0.6026 0.0
C3261 C 0.15688 0.01992 0.60701 0.0
C3262 C 0.16202 0.02644 0.62674 0.0
C3263 C 0.16173 0.01276 0.64206 0.0
loop_
_geom_bond_atom_site_label_1
_geom_bond_atom_site_label_2
_geom_bond_distance
_geom_bond_site_symmetry_2
_ccdc_geom_bond_type
O0 Cd1 2.223 . S
O0 C8 1.315 . S
Cd1 O0 2.223 . S
Cd1 O4 2.297 . S
Cd1 O5 2.439 . S
Cd1 O11 2.240 . S
Cd2 O3 2.240 . S
Cd2 O10 2.223 . S
Cd2 O12 2.297 . S
Cd2 O13 2.439 . S
O3 Cd2 2.240 . S
O3 C8 1.279 . S
O4 Cd1 2.297 . S
O4 C6 1.247 . S
O5 Cd1 2.439 . S
O5 C6 1.208 . S
C6 O4 1.247 . S
C6 O5 1.208 . S
C7 O12 1.247 . S
C7 O13 1.208 . S
C8 O0 1.315 . S
C8 O3 1.279 . S
C9 O10 1.315 . S
C9 O11 1.279 . S
O10 Cd2 2.223 . S
O10 C9 1.315 . S
O11 Cd1 2.240 . S
O11 C9 1.279 . S
O12 Cd2 2.297 . S
O12 C7 1.247 . S
O13 Cd2 2.439 . S
O13 C7 1.208 . S
O14 Cd15 2.223 . S
O14 C22 1.315 . S
Cd15 O14 2.223 . S
Cd15 O18 2.297 . S
Cd15 O19 2.439 . S
Cd15 O25 2.240 . S
Cd16 O17 2.240 . S
Cd16 O24 2.223 . S
Cd16 O26 2.297 . S
Cd16 O27 2.439 . S
O17 Cd16 2.240 . S
O17 C22 1.279 . S
O18 Cd15 2.297 . S
O18 C20 1.247 . S
O19 Cd15 2.439 . S
O19 C20 1.208 . S
C20 O18 1.247 . S
C20 O19 1.208 . S
C21 O26 1.247 . S
C21 O27 1.208 . S
C22 O14 1.315 . S
C22 O17 1.279 . S
C23 O24 1.315 . S
C23 O25 1.279 . S
O24 Cd16 2.223 . S
O24 C23 1.315 . S
O25 Cd15 2.240 . S
O25 C23 1.279 . S
O26 Cd16 2.297 . S
O26 C21 1.247 . S
O27 Cd16 2.439 . S
O27 C21 1.208 . S
O28 Cd29 2.223 . S
O28 C36 1.315 . S
Cd29 O28 2.223 . S
Cd29 O32 2.297 . S
Cd29 O33 2.439 . S
Cd29 O39 2.240 . S
Cd30 O31 2.240 . S
Cd30 O38 2.223 . S
Cd30 O40 2.297 . S
Cd30 O41 2.439 . S
O31 Cd30 2.240 . S
O31 C36 1.279 . S
O32 Cd29 2.297 . S
O32 C34 1.247 . S
O33 Cd29 2.439 . S
O33 C34 1.208 . S
C34 O32 1.247 . S
C34 O33 1.208 . S
C35 O40 1.247 . S
C35 O41 1.208 . S
C36 O28 1.315 . S
C36 O31 1.279 . S
C37 O38 1.315 . S
C37 O39 1.279 . S
O38 Cd30 2.223 . S
O38 C37 1.315 . S
O39 Cd29 2.240 . S
O39 C37 1.279 . S
O40 Cd30 2.297 . S
O40 C35 1.247 . S
O41 Cd30 2.439 . S
O41 C35 1.208 . S
O42 Cd43 2.223 . S
O42 C50 1.315 . S
Cd43 O42 2.223 . S
Cd43 O46 2.297 . S
Cd43 O47 2.439 . S
Cd43 O53 2.240 . S
Cd44 O45 2.240 . S
Cd44 O52 2.223 . S
Cd44 O54 2.297 . S
Cd44 O55 2.439 . S
O45 Cd44 2.240 . S
O45 C50 1.279 . S
O46 Cd43 2.297 . S
O46 C48 1.247 . S
O47 Cd43 2.439 . S
O47 C48 1.208 . S
C48 O46 1.247 . S
C48 O47 1.208 . S
C49 O54 1.247 . S
C49 O55 1.208 . S
C50 O42 1.315 . S
C50 O45 1.279 . S
C51 O52 1.315 . S
C51 O53 1.279 . S
O52 Cd44 2.223 . S
O52 C51 1.315 . S
O53 Cd43 2.240 . S
O53 C51 1.279 . S
O54 Cd44 2.297 . S
O54 C49 1.247 . S
O55 Cd44 2.439 . S
O55 C49 1.208 . S
O56 Cd57 2.223 . S
O56 C64 1.315 . S
Cd57 O56 2.223 . S
Cd57 O60 2.297 . S
Cd57 O61 2.439 . S
Cd57 O67 2.240 . S
Cd58 O59 2.240 . S
Cd58 O66 2.223 . S
Cd58 O68 2.297 . S
Cd58 O69 2.439 . S
O59 Cd58 2.240 . S
O59 C64 1.279 . S
O60 Cd57 2.297 . S
O60 C62 1.247 . S
O61 Cd57 2.439 . S
O61 C62 1.208 . S
C62 O60 1.247 . S
C62 O61 1.208 . S
C63 O68 1.247 . S
C63 O69 1.208 . S
C64 O56 1.315 . S
C64 O59 1.279 . S
C65 O66 1.315 . S
C65 O67 1.279 . S
O66 Cd58 2.223 . S
O66 C65 1.315 . S
O67 Cd57 2.240 . S
O67 C65 1.279 . S
O68 Cd58 2.297 . S
O68 C63 1.247 . S
O69 Cd58 2.439 . S
O69 C63 1.208 . S
O70 Cd71 2.223 . S
O70 C78 1.315 . S
Cd71 O70 2.223 . S
Cd71 O74 2.297 . S
Cd71 O75 2.439 . S
Cd71 O81 2.240 . S
Cd72 O73 2.240 . S
Cd72 O80 2.223 . S
Cd72 O82 2.297 . S
Cd72 O83 2.439 . S
O73 Cd72 2.240 . S
O73 C78 1.279 . S
O74 Cd71 2.297 . S
O74 C76 1.247 . S
O75 Cd71 2.439 . S
O75 C76 1.208 . S
C76 O74 1.247 . S
C76 O75 1.208 . S
C77 O82 1.247 . S
C77 O83 1.208 . S
C78 O70 1.315 . S
C78 O73 1.279 . S
C79 O80 1.315 . S
C79 O81 1.279 . S
O80 Cd72 2.223 . S
O80 C79 1.315 . S
O81 Cd71 2.240 . S
O81 C79 1.279 . S
O82 Cd72 2.297 . S
O82 C77 1.247 . S
O83 Cd72 2.439 . S
O83 C77 1.208 . S
O84 Cd85 2.223 . S
O84 C92 1.315 . S
Cd85 O84 2.223 . S
Cd85 O88 2.297 . S
Cd85 O89 2.439 . S
Cd85 O95 2.240 . S
Cd86 O87 2.240 . S
Cd86 O94 2.223 . S
Cd86 O96 2.297 . S
Cd86 O97 2.439 . S
O87 Cd86 2.240 . S
O87 C92 1.279 . S
O88 Cd85 2.297 . S
O88 C90 1.247 . S
O89 Cd85 2.439 . S
O89 C90 1.208 . S
C90 O88 1.247 . S
C90 O89 1.208 . S
C91 O96 1.247 . S
C91 O97 1.208 . S
C92 O84 1.315 . S
C92 O87 1.279 . S
C93 O94 1.315 . S
C93 O95 1.279 . S
O94 Cd86 2.223 . S
O94 C93 1.315 . S
O95 Cd85 2.240 . S
O95 C93 1.279 . S
O96 Cd86 2.297 . S
O96 C91 1.247 . S
O97 Cd86 2.439 . S
O97 C91 1.208 . S
O98 Cd99 2.223 . S
O98 C106 1.315 . S
Cd99 O98 2.223 . S
Cd99 O102 2.297 . S
Cd99 O103 2.439 . S
Cd99 O109 2.240 . S
Cd100 O101 2.240 . S
Cd100 O108 2.223 . S
Cd100 O110 2.297 . S
Cd100 O111 2.439 . S
O101 Cd100 2.240 . S
O101 C106 1.279 . S
O102 Cd99 2.297 . S
O102 C104 1.247 . S
O103 Cd99 2.439 . S
O103 C104 1.208 . S
C104 O102 1.247 . S
C104 O103 1.208 . S
C105 O110 1.247 . S
C105 O111 1.208 . S
C106 O98 1.315 . S
C106 O101 1.279 . S
C107 O108 1.315 . S
C107 O109 1.279 . S
O108 Cd100 2.223 . S
O108 C107 1.315 . S
O109 Cd99 2.240 . S
O109 C107 1.279 . S
O110 Cd100 2.297 . S
O110 C105 1.247 . S
O111 Cd100 2.439 . S
O111 C105 1.208 . S
O112 Cd113 2.223 . S
O112 C120 1.315 . S
Cd113 O112 2.223 . S
Cd113 O116 2.297 . S
Cd113 O117 2.439 . S
Cd113 O123 2.240 . S
Cd114 O115 2.240 . S
Cd114 O122 2.223 . S
Cd114 O124 2.297 . S
Cd114 O125 2.439 . S
O115 Cd114 2.240 . S
O115 C120 1.279 . S
O116 Cd113 2.297 . S
O116 C118 1.247 . S
O117 Cd113 2.439 . S
O117 C118 1.208 . S
C118 O116 1.247 . S
C118 O117 1.208 . S
C119 O124 1.247 . S
C119 O125 1.208 . S
C120 O112 1.315 . S
C120 O115 1.279 . S
C121 O122 1.315 . S
C121 O123 1.279 . S
O122 Cd114 2.223 . S
O122 C121 1.315 . S
O123 Cd113 2.240 . S
O123 C121 1.279 . S
O124 Cd114 2.297 . S
O124 C119 1.247 . S
O125 Cd114 2.439 . S
O125 C119 1.208 . S
O126 Cd127 2.223 . S
O126 C134 1.315 . S
Cd127 O126 2.223 . S
Cd127 O130 2.297 . S
Cd127 O131 2.439 . S
Cd127 O137 2.240 . S
Cd128 O129 2.240 . S
Cd128 O136 2.223 . S
Cd128 O138 2.297 . S
Cd128 O139 2.439 . S
O129 Cd128 2.240 . S
O129 C134 1.279 . S
O130 Cd127 2.297 . S
O130 C132 1.247 . S
O131 Cd127 2.439 . S
O131 C132 1.208 . S
C132 O130 1.247 . S
C132 O131 1.208 . S
C133 O138 1.247 . S
C133 O139 1.208 . S
C134 O126 1.315 . S
C134 O129 1.279 . S
C135 O136 1.315 . S
C135 O137 1.279 . S
O136 Cd128 2.223 . S
O136 C135 1.315 . S
O137 Cd127 2.240 . S
O137 C135 1.279 . S
O138 Cd128 2.297 . S
O138 C133 1.247 . S
O139 Cd128 2.439 . S
O139 C133 1.208 . S
O140 Cd141 2.223 . S
O140 C148 1.315 . S
Cd141 O140 2.223 . S
Cd141 O144 2.297 . S
Cd141 O145 2.439 . S
Cd141 O151 2.240 . S
Cd142 O143 2.240 . S
Cd142 O150 2.223 . S
Cd142 O152 2.297 . S
Cd142 O153 2.439 . S
O143 Cd142 2.240 . S
O143 C148 1.279 . S
O144 Cd141 2.297 . S
O144 C146 1.247 . S
O145 Cd141 2.439 . S
O145 C146 1.208 . S
C146 O144 1.247 . S
C146 O145 1.208 . S
C147 O152 1.247 . S
C147 O153 1.208 . S
C148 O140 1.315 . S
C148 O143 1.279 . S
C149 O150 1.315 . S
C149 O151 1.279 . S
O150 Cd142 2.223 . S
O150 C149 1.315 . S
O151 Cd141 2.240 . S
O151 C149 1.279 . S
O152 Cd142 2.297 . S
O152 C147 1.247 . S
O153 Cd142 2.439 . S
O153 C147 1.208 . S
O154 Cd155 2.223 . S
O154 C162 1.315 . S
Cd155 O154 2.223 . S
Cd155 O158 2.297 . S
Cd155 O159 2.439 . S
Cd155 O165 2.240 . S
Cd156 O157 2.240 . S
Cd156 O164 2.223 . S
Cd156 O166 2.297 . S
Cd156 O167 2.439 . S
O157 Cd156 2.240 . S
O157 C162 1.279 . S
O158 Cd155 2.297 . S
O158 C160 1.247 . S
O159 Cd155 2.439 . S
O159 C160 1.208 . S
C160 O158 1.247 . S
C160 O159 1.208 . S
C161 O166 1.247 . S
C161 O167 1.208 . S
C162 O154 1.315 . S
C162 O157 1.279 . S
C163 O164 1.315 . S
C163 O165 1.279 . S
O164 Cd156 2.223 . S
O164 C163 1.315 . S
O165 Cd155 2.240 . S
O165 C163 1.279 . S
O166 Cd156 2.297 . S
O166 C161 1.247 . S
O167 Cd156 2.439 . S
O167 C161 1.208 . S
O168 Cd169 2.223 . S
O168 C176 1.315 . S
Cd169 O168 2.223 . S
Cd169 O172 2.297 . S
Cd169 O173 2.439 . S
Cd169 O179 2.240 . S
Cd170 O171 2.240 . S
Cd170 O178 2.223 . S
Cd170 O180 2.297 . S
Cd170 O181 2.439 . S
O171 Cd170 2.240 . S
O171 C176 1.279 . S
O172 Cd169 2.297 . S
O172 C174 1.247 . S
O173 Cd169 2.439 . S
O173 C174 1.208 . S
C174 O172 1.247 . S
C174 O173 1.208 . S
C175 O180 1.247 . S
C175 O181 1.208 . S
C176 O168 1.315 . S
C176 O171 1.279 . S
C177 O178 1.315 . S
C177 O179 1.279 . S
O178 Cd170 2.223 . S
O178 C177 1.315 . S
O179 Cd169 2.240 . S
O179 C177 1.279 . S
O180 Cd170 2.297 . S
O180 C175 1.247 . S
O181 Cd170 2.439 . S
O181 C175 1.208 . S
O182 Cd183 2.223 . S
O182 C190 1.315 . S
Cd183 O182 2.223 . S
Cd183 O186 2.297 . S
Cd183 O187 2.439 . S
Cd183 O193 2.240 . S
Cd184 O185 2.240 . S
Cd184 O192 2.223 . S
Cd184 O194 2.297 . S
Cd184 O195 2.439 . S
O185 Cd184 2.240 . S
O185 C190 1.279 . S
O186 Cd183 2.297 . S
O186 C188 1.247 . S
O187 Cd183 2.439 . S
O187 C188 1.208 . S
C188 O186 1.247 . S
C188 O187 1.208 . S
C189 O194 1.247 . S
C189 O195 1.208 . S
C190 O182 1.315 . S
C190 O185 1.279 . S
C191 O192 1.315 . S
C191 O193 1.279 . S
O192 Cd184 2.223 . S
O192 C191 1.315 . S
O193 Cd183 2.240 . S
O193 C191 1.279 . S
O194 Cd184 2.297 . S
O194 C189 1.247 . S
O195 Cd184 2.439 . S
O195 C189 1.208 . S
O196 Cd197 2.223 . S
O196 C204 1.315 . S
Cd197 O196 2.223 . S
Cd197 O200 2.297 . S
Cd197 O201 2.439 . S
Cd197 O207 2.240 . S
Cd198 O199 2.240 . S
Cd198 O206 2.223 . S
Cd198 O208 2.297 . S
Cd198 O209 2.439 . S
O199 Cd198 2.240 . S
O199 C204 1.279 . S
O200 Cd197 2.297 . S
O200 C202 1.247 . S
O201 Cd197 2.439 . S
O201 C202 1.208 . S
C202 O200 1.247 . S
C202 O201 1.208 . S
C203 O208 1.247 . S
C203 O209 1.208 . S
C204 O196 1.315 . S
C204 O199 1.279 . S
C205 O206 1.315 . S
C205 O207 1.279 . S
O206 Cd198 2.223 . S
O206 C205 1.315 . S
O207 Cd197 2.240 . S
O207 C205 1.279 . S
O208 Cd198 2.297 . S
O208 C203 1.247 . S
O209 Cd198 2.439 . S
O209 C203 1.208 . S
O210 Cd211 2.223 . S
O210 C218 1.315 . S
Cd211 O210 2.223 . S
Cd211 O214 2.297 . S
Cd211 O215 2.439 . S
Cd211 O221 2.240 . S
Cd212 O213 2.240 . S
Cd212 O220 2.223 . S
Cd212 O222 2.297 . S
Cd212 O223 2.439 . S
O213 Cd212 2.240 . S
O213 C218 1.279 . S
O214 Cd211 2.297 . S
O214 C216 1.247 . S
O215 Cd211 2.439 . S
O215 C216 1.208 . S
C216 O214 1.247 . S
C216 O215 1.208 . S
C217 O222 1.247 . S
C217 O223 1.208 . S
C218 O210 1.315 . S
C218 O213 1.279 . S
C219 O220 1.315 . S
C219 O221 1.279 . S
O220 Cd212 2.223 . S
O220 C219 1.315 . S
O221 Cd211 2.240 . S
O221 C219 1.279 . S
O222 Cd212 2.297 . S
O222 C217 1.247 . S
O223 Cd212 2.439 . S
O223 C217 1.208 . S
O224 Cd225 2.223 . S
O224 C232 1.315 . S
Cd225 O224 2.223 . S
Cd225 O228 2.297 . S
Cd225 O229 2.439 . S
Cd225 O235 2.240 . S
Cd226 O227 2.240 . S
Cd226 O234 2.223 . S
Cd226 O236 2.297 . S
Cd226 O237 2.439 . S
O227 Cd226 2.240 . S
O227 C232 1.279 . S
O228 Cd225 2.297 . S
O228 C230 1.247 . S
O229 Cd225 2.439 . S
O229 C230 1.208 . S
C230 O228 1.247 . S
C230 O229 1.208 . S
C231 O236 1.247 . S
C231 O237 1.208 . S
C232 O224 1.315 . S
C232 O227 1.279 . S
C233 O234 1.315 . S
C233 O235 1.279 . S
O234 Cd226 2.223 . S
O234 C233 1.315 . S
O235 Cd225 2.240 . S
O235 C233 1.279 . S
O236 Cd226 2.297 . S
O236 C231 1.247 . S
O237 Cd226 2.439 . S
O237 C231 1.208 . S
O238 Cd239 2.223 . S
O238 C246 1.315 . S
Cd239 O238 2.223 . S
Cd239 O242 2.297 . S
Cd239 O243 2.439 . S
Cd239 O249 2.240 . S
Cd240 O241 2.240 . S
Cd240 O248 2.223 . S
Cd240 O250 2.297 . S
Cd240 O251 2.439 . S
O241 Cd240 2.240 . S
O241 C246 1.279 . S
O242 Cd239 2.297 . S
O242 C244 1.247 . S
O243 Cd239 2.439 . S
O243 C244 1.208 . S
C244 O242 1.247 . S
C244 O243 1.208 . S
C245 O250 1.247 . S
C245 O251 1.208 . S
C246 O238 1.315 . S
C246 O241 1.279 . S
C247 O248 1.315 . S
C247 O249 1.279 . S
O248 Cd240 2.223 . S
O248 C247 1.315 . S
O249 Cd239 2.240 . S
O249 C247 1.279 . S
O250 Cd240 2.297 . S
O250 C245 1.247 . S
O251 Cd240 2.439 . S
O251 C245 1.208 . S
O252 Cd253 2.223 . S
O252 C260 1.315 . S
Cd253 O252 2.223 . S
Cd253 O256 2.297 . S
Cd253 O257 2.439 . S
Cd253 O263 2.240 . S
Cd254 O255 2.240 . S
Cd254 O262 2.223 . S
Cd254 O264 2.297 . S
Cd254 O265 2.439 . S
O255 Cd254 2.240 . S
O255 C260 1.279 . S
O256 Cd253 2.297 . S
O256 C258 1.247 . S
O257 Cd253 2.439 . S
O257 C258 1.208 . S
C258 O256 1.247 . S
C258 O257 1.208 . S
C259 O264 1.247 . S
C259 O265 1.208 . S
C260 O252 1.315 . S
C260 O255 1.279 . S
C261 O262 1.315 . S
C261 O263 1.279 . S
O262 Cd254 2.223 . S
O262 C261 1.315 . S
O263 Cd253 2.240 . S
O263 C261 1.279 . S
O264 Cd254 2.297 . S
O264 C259 1.247 . S
O265 Cd254 2.439 . S
O265 C259 1.208 . S
O266 Cd267 2.223 . S
O266 C274 1.315 . S
Cd267 O266 2.223 . S
Cd267 O270 2.297 . S
Cd267 O271 2.439 . S
Cd267 O277 2.240 . S
Cd268 O269 2.240 . S
Cd268 O276 2.223 . S
Cd268 O278 2.297 . S
Cd268 O279 2.439 . S
O269 Cd268 2.240 . S
O269 C274 1.279 . S
O270 Cd267 2.297 . S
O270 C272 1.247 . S
O271 Cd267 2.439 . S
O271 C272 1.208 . S
C272 O270 1.247 . S
C272 O271 1.208 . S
C273 O278 1.247 . S
C273 O279 1.208 . S
C274 O266 1.315 . S
C274 O269 1.279 . S
C275 O276 1.315 . S
C275 O277 1.279 . S
O276 Cd268 2.223 . S
O276 C275 1.315 . S
O277 Cd267 2.240 . S
O277 C275 1.279 . S
O278 Cd268 2.297 . S
O278 C273 1.247 . S
O279 Cd268 2.439 . S
O279 C273 1.208 . S
O280 Cd281 2.223 . S
O280 C288 1.315 . S
Cd281 O280 2.223 . S
Cd281 O284 2.297 . S
Cd281 O285 2.439 . S
Cd281 O291 2.240 . S
Cd282 O283 2.240 . S
Cd282 O290 2.223 . S
Cd282 O292 2.297 . S
Cd282 O293 2.439 . S
O283 Cd282 2.240 . S
O283 C288 1.279 . S
O284 Cd281 2.297 . S
O284 C286 1.247 . S
O285 Cd281 2.439 . S
O285 C286 1.208 . S
C286 O284 1.247 . S
C286 O285 1.208 . S
C287 O292 1.247 . S
C287 O293 1.208 . S
C288 O280 1.315 . S
C288 O283 1.279 . S
C289 O290 1.315 . S
C289 O291 1.279 . S
O290 Cd282 2.223 . S
O290 C289 1.315 . S
O291 Cd281 2.240 . S
O291 C289 1.279 . S
O292 Cd282 2.297 . S
O292 C287 1.247 . S
O293 Cd282 2.439 . S
O293 C287 1.208 . S
O294 Cd295 2.223 . S
O294 C302 1.315 . S
Cd295 O294 2.223 . S
Cd295 O298 2.297 . S
Cd295 O299 2.439 . S
Cd295 O305 2.240 . S
Cd296 O297 2.240 . S
Cd296 O304 2.223 . S
Cd296 O306 2.297 . S
Cd296 O307 2.439 . S
O297 Cd296 2.240 . S
O297 C302 1.279 . S
O298 Cd295 2.297 . S
O298 C300 1.247 . S
O299 Cd295 2.439 . S
O299 C300 1.208 . S
C300 O298 1.247 . S
C300 O299 1.208 . S
C301 O306 1.247 . S
C301 O307 1.208 . S
C302 O294 1.315 . S
C302 O297 1.279 . S
C303 O304 1.315 . S
C303 O305 1.279 . S
O304 Cd296 2.223 . S
O304 C303 1.315 . S
O305 Cd295 2.240 . S
O305 C303 1.279 . S
O306 Cd296 2.297 . S
O306 C301 1.247 . S
O307 Cd296 2.439 . S
O307 C301 1.208 . S
O308 Cd309 2.223 . S
O308 C316 1.315 . S
Cd309 O308 2.223 . S
Cd309 O312 2.297 . S
Cd309 O313 2.439 . S
Cd309 O319 2.240 . S
Cd310 O311 2.240 . S
Cd310 O318 2.223 . S
Cd310 O320 2.297 . S
Cd310 O321 2.439 . S
O311 Cd310 2.240 . S
O311 C316 1.279 . S
O312 Cd309 2.297 . S
O312 C314 1.247 . S
O313 Cd309 2.439 . S
O313 C314 1.208 . S
C314 O312 1.247 . S
C314 O313 1.208 . S
C315 O320 1.247 . S
C315 O321 1.208 . S
C316 O308 1.315 . S
C316 O311 1.279 . S
C317 O318 1.315 . S
C317 O319 1.279 . S
O318 Cd310 2.223 . S
O318 C317 1.315 . S
O319 Cd309 2.240 . S
O319 C317 1.279 . S
O320 Cd310 2.297 . S
O320 C315 1.247 . S
O321 Cd310 2.439 . S
O321 C315 1.208 . S
O322 Cd323 2.223 . S
O322 C330 1.315 . S
Cd323 O322 2.223 . S
Cd323 O326 2.297 . S
Cd323 O327 2.439 . S
Cd323 O333 2.240 . S
Cd324 O325 2.240 . S
Cd324 O332 2.223 . S
Cd324 O334 2.297 . S
Cd324 O335 2.439 . S
O325 Cd324 2.240 . S
O325 C330 1.279 . S
O326 Cd323 2.297 . S
O326 C328 1.247 . S
O327 Cd323 2.439 . S
O327 C328 1.208 . S
C328 O326 1.247 . S
C328 O327 1.208 . S
C329 O334 1.247 . S
C329 O335 1.208 . S
C330 O322 1.315 . S
C330 O325 1.279 . S
C331 O332 1.315 . S
C331 O333 1.279 . S
O332 Cd324 2.223 . S
O332 C331 1.315 . S
O333 Cd323 2.240 . S
O333 C331 1.279 . S
O334 Cd324 2.297 . S
O334 C329 1.247 . S
O335 Cd324 2.439 . S
O335 C329 1.208 . S
O336 Cd337 2.223 . S
O336 C344 1.315 . S
Cd337 O336 2.223 . S
Cd337 O340 2.297 . S
Cd337 O341 2.439 . S
Cd337 O347 2.240 . S
Cd338 O339 2.240 . S
Cd338 O346 2.223 . S
Cd338 O348 2.297 . S
Cd338 O349 2.439 . S
O339 Cd338 2.240 . S
O339 C344 1.279 . S
O340 Cd337 2.297 . S
O340 C342 1.247 . S
O341 Cd337 2.439 . S
O341 C342 1.208 . S
C342 O340 1.247 . S
C342 O341 1.208 . S
C343 O348 1.247 . S
C343 O349 1.208 . S
C344 O336 1.315 . S
C344 O339 1.279 . S
C345 O346 1.315 . S
C345 O347 1.279 . S
O346 Cd338 2.223 . S
O346 C345 1.315 . S
O347 Cd337 2.240 . S
O347 C345 1.279 . S
O348 Cd338 2.297 . S
O348 C343 1.247 . S
O349 Cd338 2.439 . S
O349 C343 1.208 . S
O350 Cd351 2.223 . S
O350 C358 1.315 . S
Cd351 O350 2.223 . S
Cd351 O354 2.297 . S
Cd351 O355 2.439 . S
Cd351 O361 2.240 . S
Cd352 O353 2.240 . S
Cd352 O360 2.223 . S
Cd352 O362 2.297 . S
Cd352 O363 2.439 . S
O353 Cd352 2.240 . S
O353 C358 1.279 . S
O354 Cd351 2.297 . S
O354 C356 1.247 . S
O355 Cd351 2.439 . S
O355 C356 1.208 . S
C356 O354 1.247 . S
C356 O355 1.208 . S
C357 O362 1.247 . S
C357 O363 1.208 . S
C358 O350 1.315 . S
C358 O353 1.279 . S
C359 O360 1.315 . S
C359 O361 1.279 . S
O360 Cd352 2.223 . S
O360 C359 1.315 . S
O361 Cd351 2.240 . S
O361 C359 1.279 . S
O362 Cd352 2.297 . S
O362 C357 1.247 . S
O363 Cd352 2.439 . S
O363 C357 1.208 . S
O364 Cd365 2.223 . S
O364 C372 1.315 . S
Cd365 O364 2.223 . S
Cd365 O368 2.297 . S
Cd365 O369 2.439 . S
Cd365 O375 2.240 . S
Cd366 O367 2.240 . S
Cd366 O374 2.223 . S
Cd366 O376 2.297 . S
Cd366 O377 2.439 . S
O367 Cd366 2.240 . S
O367 C372 1.279 . S
O368 Cd365 2.297 . S
O368 C370 1.247 . S
O369 Cd365 2.439 . S
O369 C370 1.208 . S
C370 O368 1.247 . S
C370 O369 1.208 . S
C371 O376 1.247 . S
C371 O377 1.208 . S
C372 O364 1.315 . S
C372 O367 1.279 . S
C373 O374 1.315 . S
C373 O375 1.279 . S
O374 Cd366 2.223 . S
O374 C373 1.315 . S
O375 Cd365 2.240 . S
O375 C373 1.279 . S
O376 Cd366 2.297 . S
O376 C371 1.247 . S
O377 Cd366 2.439 . S
O377 C371 1.208 . S
O378 Cd379 2.223 . S
O378 C386 1.315 . S
Cd379 O378 2.223 . S
Cd379 O382 2.297 . S
Cd379 O383 2.439 . S
Cd379 O389 2.240 . S
Cd380 O381 2.240 . S
Cd380 O388 2.223 . S
Cd380 O390 2.297 . S
Cd380 O391 2.439 . S
O381 Cd380 2.240 . S
O381 C386 1.279 . S
O382 Cd379 2.297 . S
O382 C384 1.247 . S
O383 Cd379 2.439 . S
O383 C384 1.208 . S
C384 O382 1.247 . S
C384 O383 1.208 . S
C385 O390 1.247 . S
C385 O391 1.208 . S
C386 O378 1.315 . S
C386 O381 1.279 . S
C387 O388 1.315 . S
C387 O389 1.279 . S
O388 Cd380 2.223 . S
O388 C387 1.315 . S
O389 Cd379 2.240 . S
O389 C387 1.279 . S
O390 Cd380 2.297 . S
O390 C385 1.247 . S
O391 Cd380 2.439 . S
O391 C385 1.208 . S
O392 Cd393 2.223 . S
O392 C400 1.315 . S
Cd393 O392 2.223 . S
Cd393 O396 2.297 . S
Cd393 O397 2.439 . S
Cd393 O403 2.240 . S
Cd394 O395 2.240 . S
Cd394 O402 2.223 . S
Cd394 O404 2.297 . S
Cd394 O405 2.439 . S
O395 Cd394 2.240 . S
O395 C400 1.279 . S
O396 Cd393 2.297 . S
O396 C398 1.247 . S
O397 Cd393 2.439 . S
O397 C398 1.208 . S
C398 O396 1.247 . S
C398 O397 1.208 . S
C399 O404 1.247 . S
C399 O405 1.208 . S
C400 O392 1.315 . S
C400 O395 1.279 . S
C401 O402 1.315 . S
C401 O403 1.279 . S
O402 Cd394 2.223 . S
O402 C401 1.315 . S
O403 Cd393 2.240 . S
O403 C401 1.279 . S
O404 Cd394 2.297 . S
O404 C399 1.247 . S
O405 Cd394 2.439 . S
O405 C399 1.208 . S
O406 Cd407 2.223 . S
O406 C414 1.315 . S
Cd407 O406 2.223 . S
Cd407 O410 2.297 . S
Cd407 O411 2.439 . S
Cd407 O417 2.240 . S
Cd408 O409 2.240 . S
Cd408 O416 2.223 . S
Cd408 O418 2.297 . S
Cd408 O419 2.439 . S
O409 Cd408 2.240 . S
O409 C414 1.279 . S
O410 Cd407 2.297 . S
O410 C412 1.247 . S
O411 Cd407 2.439 . S
O411 C412 1.208 . S
C412 O410 1.247 . S
C412 O411 1.208 . S
C413 O418 1.247 . S
C413 O419 1.208 . S
C414 O406 1.315 . S
C414 O409 1.279 . S
C415 O416 1.315 . S
C415 O417 1.279 . S
O416 Cd408 2.223 . S
O416 C415 1.315 . S
O417 Cd407 2.240 . S
O417 C415 1.279 . S
O418 Cd408 2.297 . S
O418 C413 1.247 . S
O419 Cd408 2.439 . S
O419 C413 1.208 . S
O420 Cd421 2.223 . S
O420 C428 1.315 . S
Cd421 O420 2.223 . S
Cd421 O424 2.297 . S
Cd421 O425 2.439 . S
Cd421 O431 2.240 . S
Cd422 O423 2.240 . S
Cd422 O430 2.223 . S
Cd422 O432 2.297 . S
Cd422 O433 2.439 . S
O423 Cd422 2.240 . S
O423 C428 1.279 . S
O424 Cd421 2.297 . S
O424 C426 1.247 . S
O425 Cd421 2.439 . S
O425 C426 1.208 . S
C426 O424 1.247 . S
C426 O425 1.208 . S
C427 O432 1.247 . S
C427 O433 1.208 . S
C428 O420 1.315 . S
C428 O423 1.279 . S
C429 O430 1.315 . S
C429 O431 1.279 . S
O430 Cd422 2.223 . S
O430 C429 1.315 . S
O431 Cd421 2.240 . S
O431 C429 1.279 . S
O432 Cd422 2.297 . S
O432 C427 1.247 . S
O433 Cd422 2.439 . S
O433 C427 1.208 . S
O434 Cd435 2.223 . S
O434 C442 1.315 . S
Cd435 O434 2.223 . S
Cd435 O438 2.297 . S
Cd435 O439 2.439 . S
Cd435 O445 2.240 . S
Cd436 O437 2.240 . S
Cd436 O444 2.223 . S
Cd436 O446 2.297 . S
Cd436 O447 2.439 . S
O437 Cd436 2.240 . S
O437 C442 1.279 . S
O438 Cd435 2.297 . S
O438 C440 1.247 . S
O439 Cd435 2.439 . S
O439 C440 1.208 . S
C440 O438 1.247 . S
C440 O439 1.208 . S
C441 O446 1.247 . S
C441 O447 1.208 . S
C442 O434 1.315 . S
C442 O437 1.279 . S
C443 O444 1.315 . S
C443 O445 1.279 . S
O444 Cd436 2.223 . S
O444 C443 1.315 . S
O445 Cd435 2.240 . S
O445 C443 1.279 . S
O446 Cd436 2.297 . S
O446 C441 1.247 . S
O447 Cd436 2.439 . S
O447 C441 1.208 . S
O448 Cd449 2.223 . S
O448 C456 1.315 . S
Cd449 O448 2.223 . S
Cd449 O452 2.297 . S
Cd449 O453 2.439 . S
Cd449 O459 2.240 . S
Cd450 O451 2.240 . S
Cd450 O458 2.223 . S
Cd450 O460 2.297 . S
Cd450 O461 2.439 . S
O451 Cd450 2.240 . S
O451 C456 1.279 . S
O452 Cd449 2.297 . S
O452 C454 1.247 . S
O453 Cd449 2.439 . S
O453 C454 1.208 . S
C454 O452 1.247 . S
C454 O453 1.208 . S
C455 O460 1.247 . S
C455 O461 1.208 . S
C456 O448 1.315 . S
C456 O451 1.279 . S
C457 O458 1.315 . S
C457 O459 1.279 . S
O458 Cd450 2.223 . S
O458 C457 1.315 . S
O459 Cd449 2.240 . S
O459 C457 1.279 . S
O460 Cd450 2.297 . S
O460 C455 1.247 . S
O461 Cd450 2.439 . S
O461 C455 1.208 . S
O462 Cd463 2.223 . S
O462 C470 1.315 . S
Cd463 O462 2.223 . S
Cd463 O466 2.297 . S
Cd463 O467 2.439 . S
Cd463 O473 2.240 . S
Cd464 O465 2.240 . S
Cd464 O472 2.223 . S
Cd464 O474 2.297 . S
Cd464 O475 2.439 . S
O465 Cd464 2.240 . S
O465 C470 1.279 . S
O466 Cd463 2.297 . S
O466 C468 1.247 . S
O467 Cd463 2.439 . S
O467 C468 1.208 . S
C468 O466 1.247 . S
C468 O467 1.208 . S
C469 O474 1.247 . S
C469 O475 1.208 . S
C470 O462 1.315 . S
C470 O465 1.279 . S
C471 O472 1.315 . S
C471 O473 1.279 . S
O472 Cd464 2.223 . S
O472 C471 1.315 . S
O473 Cd463 2.240 . S
O473 C471 1.279 . S
O474 Cd464 2.297 . S
O474 C469 1.247 . S
O475 Cd464 2.439 . S
O475 C469 1.208 . S
O476 Cd477 2.223 . S
O476 C484 1.315 . S
Cd477 O476 2.223 . S
Cd477 O480 2.297 . S
Cd477 O481 2.439 . S
Cd477 O487 2.240 . S
Cd478 O479 2.240 . S
Cd478 O486 2.223 . S
Cd478 O488 2.297 . S
Cd478 O489 2.439 . S
O479 Cd478 2.240 . S
O479 C484 1.279 . S
O480 Cd477 2.297 . S
O480 C482 1.247 . S
O481 Cd477 2.439 . S
O481 C482 1.208 . S
C482 O480 1.247 . S
C482 O481 1.208 . S
C483 O488 1.247 . S
C483 O489 1.208 . S
C484 O476 1.315 . S
C484 O479 1.279 . S
C485 O486 1.315 . S
C485 O487 1.279 . S
O486 Cd478 2.223 . S
O486 C485 1.315 . S
O487 Cd477 2.240 . S
O487 C485 1.279 . S
O488 Cd478 2.297 . S
O488 C483 1.247 . S
O489 Cd478 2.439 . S
O489 C483 1.208 . S
O490 Cd491 2.223 . S
O490 C498 1.315 . S
Cd491 O490 2.223 . S
Cd491 O494 2.297 . S
Cd491 O495 2.439 . S
Cd491 O501 2.240 . S
Cd492 O493 2.240 . S
Cd492 O500 2.223 . S
Cd492 O502 2.297 . S
Cd492 O503 2.439 . S
O493 Cd492 2.240 . S
O493 C498 1.279 . S
O494 Cd491 2.297 . S
O494 C496 1.247 . S
O495 Cd491 2.439 . S
O495 C496 1.208 . S
C496 O494 1.247 . S
C496 O495 1.208 . S
C497 O502 1.247 . S
C497 O503 1.208 . S
C498 O490 1.315 . S
C498 O493 1.279 . S
C499 O500 1.315 . S
C499 O501 1.279 . S
O500 Cd492 2.223 . S
O500 C499 1.315 . S
O501 Cd491 2.240 . S
O501 C499 1.279 . S
O502 Cd492 2.297 . S
O502 C497 1.247 . S
O503 Cd492 2.439 . S
O503 C497 1.208 . S
O504 Cd505 2.223 . S
O504 C512 1.315 . S
Cd505 O504 2.223 . S
Cd505 O508 2.297 . S
Cd505 O509 2.439 . S
Cd505 O515 2.240 . S
Cd506 O507 2.240 . S
Cd506 O514 2.223 . S
Cd506 O516 2.297 . S
Cd506 O517 2.439 . S
O507 Cd506 2.240 . S
O507 C512 1.279 . S
O508 Cd505 2.297 . S
O508 C510 1.247 . S
O509 Cd505 2.439 . S
O509 C510 1.208 . S
C510 O508 1.247 . S
C510 O509 1.208 . S
C511 O516 1.247 . S
C511 O517 1.208 . S
C512 O504 1.315 . S
C512 O507 1.279 . S
C513 O514 1.315 . S
C513 O515 1.279 . S
O514 Cd506 2.223 . S
O514 C513 1.315 . S
O515 Cd505 2.240 . S
O515 C513 1.279 . S
O516 Cd506 2.297 . S
O516 C511 1.247 . S
O517 Cd506 2.439 . S
O517 C511 1.208 . S
O518 Cd519 2.223 . S
O518 C526 1.315 . S
Cd519 O518 2.223 . S
Cd519 O522 2.297 . S
Cd519 O523 2.439 . S
Cd519 O529 2.240 . S
Cd520 O521 2.240 . S
Cd520 O528 2.223 . S
Cd520 O530 2.297 . S
Cd520 O531 2.439 . S
O521 Cd520 2.240 . S
O521 C526 1.279 . S
O522 Cd519 2.297 . S
O522 C524 1.247 . S
O523 Cd519 2.439 . S
O523 C524 1.208 . S
C524 O522 1.247 . S
C524 O523 1.208 . S
C525 O530 1.247 . S
C525 O531 1.208 . S
C526 O518 1.315 . S
C526 O521 1.279 . S
C527 O528 1.315 . S
C527 O529 1.279 . S
O528 Cd520 2.223 . S
O528 C527 1.315 . S
O529 Cd519 2.240 . S
O529 C527 1.279 . S
O530 Cd520 2.297 . S
O530 C525 1.247 . S
O531 Cd520 2.439 . S
O531 C525 1.208 . S
O532 Cd533 2.223 . S
O532 C540 1.315 . S
Cd533 O532 2.223 . S
Cd533 O536 2.297 . S
Cd533 O537 2.439 . S
Cd533 O543 2.240 . S
Cd534 O535 2.240 . S
Cd534 O542 2.223 . S
Cd534 O544 2.297 . S
Cd534 O545 2.439 . S
O535 Cd534 2.240 . S
O535 C540 1.279 . S
O536 Cd533 2.297 . S
O536 C538 1.247 . S
O537 Cd533 2.439 . S
O537 C538 1.208 . S
C538 O536 1.247 . S
C538 O537 1.208 . S
C539 O544 1.247 . S
C539 O545 1.208 . S
C540 O532 1.315 . S
C540 O535 1.279 . S
C541 O542 1.315 . S
C541 O543 1.279 . S
O542 Cd534 2.223 . S
O542 C541 1.315 . S
O543 Cd533 2.240 . S
O543 C541 1.279 . S
O544 Cd534 2.297 . S
O544 C539 1.247 . S
O545 Cd534 2.439 . S
O545 C539 1.208 . S
O546 Cd547 2.223 . S
O546 C554 1.315 . S
Cd547 O546 2.223 . S
Cd547 O550 2.297 . S
Cd547 O551 2.439 . S
Cd547 O557 2.240 . S
Cd548 O549 2.240 . S
Cd548 O556 2.223 . S
Cd548 O558 2.297 . S
Cd548 O559 2.439 . S
O549 Cd548 2.240 . S
O549 C554 1.279 . S
O550 Cd547 2.297 . S
O550 C552 1.247 . S
O551 Cd547 2.439 . S
O551 C552 1.208 . S
C552 O550 1.247 . S
C552 O551 1.208 . S
C553 O558 1.247 . S
C553 O559 1.208 . S
C554 O546 1.315 . S
C554 O549 1.279 . S
C555 O556 1.315 . S
C555 O557 1.279 . S
O556 Cd548 2.223 . S
O556 C555 1.315 . S
O557 Cd547 2.240 . S
O557 C555 1.279 . S
O558 Cd548 2.297 . S
O558 C553 1.247 . S
O559 Cd548 2.439 . S
O559 C553 1.208 . S
O560 Cd561 2.223 . S
O560 C568 1.315 . S
Cd561 O560 2.223 . S
Cd561 O564 2.297 . S
Cd561 O565 2.439 . S
Cd561 O571 2.240 . S
Cd562 O563 2.240 . S
Cd562 O570 2.223 . S
Cd562 O572 2.297 . S
Cd562 O573 2.439 . S
O563 Cd562 2.240 . S
O563 C568 1.279 . S
O564 Cd561 2.297 . S
O564 C566 1.247 . S
O565 Cd561 2.439 . S
O565 C566 1.208 . S
C566 O564 1.247 . S
C566 O565 1.208 . S
C567 O572 1.247 . S
C567 O573 1.208 . S
C568 O560 1.315 . S
C568 O563 1.279 . S
C569 O570 1.315 . S
C569 O571 1.279 . S
O570 Cd562 2.223 . S
O570 C569 1.315 . S
O571 Cd561 2.240 . S
O571 C569 1.279 . S
O572 Cd562 2.297 . S
O572 C567 1.247 . S
O573 Cd562 2.439 . S
O573 C567 1.208 . S
O574 Cd575 2.223 . S
O574 C582 1.315 . S
Cd575 O574 2.223 . S
Cd575 O578 2.297 . S
Cd575 O579 2.439 . S
Cd575 O585 2.240 . S
Cd576 O577 2.240 . S
Cd576 O584 2.223 . S
Cd576 O586 2.297 . S
Cd576 O587 2.439 . S
O577 Cd576 2.240 . S
O577 C582 1.279 . S
O578 Cd575 2.297 . S
O578 C580 1.247 . S
O579 Cd575 2.439 . S
O579 C580 1.208 . S
C580 O578 1.247 . S
C580 O579 1.208 . S
C581 O586 1.247 . S
C581 O587 1.208 . S
C582 O574 1.315 . S
C582 O577 1.279 . S
C583 O584 1.315 . S
C583 O585 1.279 . S
O584 Cd576 2.223 . S
O584 C583 1.315 . S
O585 Cd575 2.240 . S
O585 C583 1.279 . S
O586 Cd576 2.297 . S
O586 C581 1.247 . S
O587 Cd576 2.439 . S
O587 C581 1.208 . S
O588 Cd589 2.223 . S
O588 C596 1.315 . S
Cd589 O588 2.223 . S
Cd589 O592 2.297 . S
Cd589 O593 2.439 . S
Cd589 O599 2.240 . S
Cd590 O591 2.240 . S
Cd590 O598 2.223 . S
Cd590 O600 2.297 . S
Cd590 O601 2.439 . S
O591 Cd590 2.240 . S
O591 C596 1.279 . S
O592 Cd589 2.297 . S
O592 C594 1.247 . S
O593 Cd589 2.439 . S
O593 C594 1.208 . S
C594 O592 1.247 . S
C594 O593 1.208 . S
C595 O600 1.247 . S
C595 O601 1.208 . S
C596 O588 1.315 . S
C596 O591 1.279 . S
C597 O598 1.315 . S
C597 O599 1.279 . S
O598 Cd590 2.223 . S
O598 C597 1.315 . S
O599 Cd589 2.240 . S
O599 C597 1.279 . S
O600 Cd590 2.297 . S
O600 C595 1.247 . S
O601 Cd590 2.439 . S
O601 C595 1.208 . S
O602 Cd603 2.223 . S
O602 C610 1.315 . S
Cd603 O602 2.223 . S
Cd603 O606 2.297 . S
Cd603 O607 2.439 . S
Cd603 O613 2.240 . S
Cd604 O605 2.240 . S
Cd604 O612 2.223 . S
Cd604 O614 2.297 . S
Cd604 O615 2.439 . S
O605 Cd604 2.240 . S
O605 C610 1.279 . S
O606 Cd603 2.297 . S
O606 C608 1.247 . S
O607 Cd603 2.439 . S
O607 C608 1.208 . S
C608 O606 1.247 . S
C608 O607 1.208 . S
C609 O614 1.247 . S
C609 O615 1.208 . S
C610 O602 1.315 . S
C610 O605 1.279 . S
C611 O612 1.315 . S
C611 O613 1.279 . S
O612 Cd604 2.223 . S
O612 C611 1.315 . S
O613 Cd603 2.240 . S
O613 C611 1.279 . S
O614 Cd604 2.297 . S
O614 C609 1.247 . S
O615 Cd604 2.439 . S
O615 C609 1.208 . S
O616 Cd617 2.223 . S
O616 C624 1.315 . S
Cd617 O616 2.223 . S
Cd617 O620 2.297 . S
Cd617 O621 2.439 . S
Cd617 O627 2.240 . S
Cd618 O619 2.240 . S
Cd618 O626 2.223 . S
Cd618 O628 2.297 . S
Cd618 O629 2.439 . S
O619 Cd618 2.240 . S
O619 C624 1.279 . S
O620 Cd617 2.297 . S
O620 C622 1.247 . S
O621 Cd617 2.439 . S
O621 C622 1.208 . S
C622 O620 1.247 . S
C622 O621 1.208 . S
C623 O628 1.247 . S
C623 O629 1.208 . S
C624 O616 1.315 . S
C624 O619 1.279 . S
C625 O626 1.315 . S
C625 O627 1.279 . S
O626 Cd618 2.223 . S
O626 C625 1.315 . S
O627 Cd617 2.240 . S
O627 C625 1.279 . S
O628 Cd618 2.297 . S
O628 C623 1.247 . S
O629 Cd618 2.439 . S
O629 C623 1.208 . S
O630 Cd631 2.223 . S
O630 C638 1.315 . S
Cd631 O630 2.223 . S
Cd631 O634 2.297 . S
Cd631 O635 2.439 . S
Cd631 O641 2.240 . S
Cd632 O633 2.240 . S
Cd632 O640 2.223 . S
Cd632 O642 2.297 . S
Cd632 O643 2.439 . S
O633 Cd632 2.240 . S
O633 C638 1.279 . S
O634 Cd631 2.297 . S
O634 C636 1.247 . S
O635 Cd631 2.439 . S
O635 C636 1.208 . S
C636 O634 1.247 . S
C636 O635 1.208 . S
C637 O642 1.247 . S
C637 O643 1.208 . S
C638 O630 1.315 . S
C638 O633 1.279 . S
C639 O640 1.315 . S
C639 O641 1.279 . S
O640 Cd632 2.223 . S
O640 C639 1.315 . S
O641 Cd631 2.240 . S
O641 C639 1.279 . S
O642 Cd632 2.297 . S
O642 C637 1.247 . S
O643 Cd632 2.439 . S
O643 C637 1.208 . S
O644 Cd645 2.223 . S
O644 C652 1.315 . S
Cd645 O644 2.223 . S
Cd645 O648 2.297 . S
Cd645 O649 2.439 . S
Cd645 O655 2.240 . S
Cd646 O647 2.240 . S
Cd646 O654 2.223 . S
Cd646 O656 2.297 . S
Cd646 O657 2.439 . S
O647 Cd646 2.240 . S
O647 C652 1.279 . S
O648 Cd645 2.297 . S
O648 C650 1.247 . S
O649 Cd645 2.439 . S
O649 C650 1.208 . S
C650 O648 1.247 . S
C650 O649 1.208 . S
C651 O656 1.247 . S
C651 O657 1.208 . S
C652 O644 1.315 . S
C652 O647 1.279 . S
C653 O654 1.315 . S
C653 O655 1.279 . S
O654 Cd646 2.223 . S
O654 C653 1.315 . S
O655 Cd645 2.240 . S
O655 C653 1.279 . S
O656 Cd646 2.297 . S
O656 C651 1.247 . S
O657 Cd646 2.439 . S
O657 C651 1.208 . S
O658 Cd659 2.223 . S
O658 C666 1.315 . S
Cd659 O658 2.223 . S
Cd659 O662 2.297 . S
Cd659 O663 2.439 . S
Cd659 O669 2.240 . S
Cd660 O661 2.240 . S
Cd660 O668 2.223 . S
Cd660 O670 2.297 . S
Cd660 O671 2.439 . S
O661 Cd660 2.240 . S
O661 C666 1.279 . S
O662 Cd659 2.297 . S
O662 C664 1.247 . S
O663 Cd659 2.439 . S
O663 C664 1.208 . S
C664 O662 1.247 . S
C664 O663 1.208 . S
C665 O670 1.247 . S
C665 O671 1.208 . S
C666 O658 1.315 . S
C666 O661 1.279 . S
C667 O668 1.315 . S
C667 O669 1.279 . S
O668 Cd660 2.223 . S
O668 C667 1.315 . S
O669 Cd659 2.240 . S
O669 C667 1.279 . S
O670 Cd660 2.297 . S
O670 C665 1.247 . S
O671 Cd660 2.439 . S
O671 C665 1.208 . S
H672 C684 0.930 . S
H673 C686 0.930 . S
H674 C687 0.930 . S
H675 C691 0.959 . S
H676 C691 0.959 . S
H677 C691 0.961 . S
H678 C692 0.960 . S
H679 C692 0.961 . S
H680 C692 0.959 . S
H681 C695 0.929 . S
H682 C696 0.931 . S
H683 C698 0.930 . S
C684 H672 0.930 . S
C684 C685 1.399 . S
C684 C689 1.399 . S
C685 C684 1.399 . S
C685 C686 1.376 . S
C686 H673 0.930 . S
C686 C685 1.376 . S
C686 C687 1.388 . S
C687 H674 0.930 . S
C687 C686 1.388 . S
C687 C688 1.390 . S
C688 C687 1.390 . S
C688 C689 1.394 . S
C688 C694 1.465 . S
C689 C684 1.399 . S
C689 C688 1.394 . S
C689 C690 1.516 . S
C690 C689 1.516 . S
C690 C691 1.502 . S
C690 C692 1.561 . S
C690 C693 1.526 . S
C691 H675 0.959 . S
C691 H676 0.959 . S
C691 H677 0.961 . S
C691 C690 1.502 . S
C692 H678 0.960 . S
C692 H679 0.961 . S
C692 H680 0.959 . S
C692 C690 1.561 . S
C693 C690 1.526 . S
C693 C694 1.396 . S
C693 C698 1.390 . S
C694 C688 1.465 . S
C694 C693 1.396 . S
C694 C695 1.399 . S
C695 H681 0.929 . S
C695 C694 1.399 . S
C695 C696 1.385 . S
C696 H682 0.931 . S
C696 C695 1.385 . S
C696 C697 1.389 . S
C697 C696 1.389 . S
C697 C698 1.387 . S
C698 H683 0.930 . S
C698 C693 1.390 . S
C698 C697 1.387 . S
H699 C711 0.930 . S
H700 C713 0.930 . S
H701 C714 0.930 . S
H702 C718 0.959 . S
H703 C718 0.959 . S
H704 C718 0.961 1_455 S
H705 C719 0.960 . S
H706 C719 0.961 1_655 S
H707 C719 0.959 . S
H708 C722 0.929 . S
H709 C723 0.931 . S
H710 C725 0.930 . S
C711 H699 0.930 . S
C711 C712 1.399 . S
C711 C716 1.399 . S
C712 C711 1.399 . S
C712 C713 1.376 . S
C713 H700 0.930 . S
C713 C712 1.376 . S
C713 C714 1.388 . S
C714 H701 0.930 . S
C714 C713 1.388 . S
C714 C715 1.390 . S
C715 C714 1.390 . S
C715 C716 1.394 . S
C715 C721 1.465 1_455 S
C716 C711 1.399 . S
C716 C715 1.394 . S
C716 C717 1.534 . S
C717 C716 1.534 . S
C717 C718 1.494 1_455 S
C717 C719 1.569 . S
C717 C720 1.510 1_455 S
C718 H702 0.959 . S
C718 H703 0.959 . S
C718 H704 0.961 1_655 S
C718 C717 1.494 1_655 S
C719 H705 0.960 . S
C719 H706 0.961 1_455 S
C719 H707 0.959 . S
C719 C717 1.569 . S
C720 C717 1.510 1_655 S
C720 C721 1.396 . S
C720 C725 1.390 . S
C721 C715 1.465 1_655 S
C721 C720 1.396 . S
C721 C722 1.399 . S
C722 H708 0.929 . S
C722 C721 1.399 . S
C722 C723 1.385 . S
C723 H709 0.931 . S
C723 C722 1.385 . S
C723 C724 1.389 . S
C724 C723 1.389 . S
C724 C725 1.387 . S
C725 H710 0.930 . S
C725 C720 1.390 . S
C725 C724 1.387 . S
H726 C738 0.930 . S
H727 C740 0.930 . S
H728 C741 0.930 . S
H729 C745 0.959 . S
H730 C745 0.959 . S
H731 C745 0.961 . S
H732 C746 0.960 . S
H733 C746 0.961 . S
H734 C746 0.959 . S
H735 C749 0.929 . S
H736 C750 0.931 . S
H737 C752 0.930 . S
C738 H726 0.930 . S
C738 C739 1.399 . S
C738 C743 1.399 . S
C739 C738 1.399 . S
C739 C740 1.376 . S
C740 H727 0.930 . S
C740 C739 1.376 . S
C740 C741 1.388 . S
C741 H728 0.930 . S
C741 C740 1.388 . S
C741 C742 1.390 . S
C742 C741 1.390 . S
C742 C743 1.394 . S
C742 C748 1.465 . S
C743 C738 1.399 . S
C743 C742 1.394 . S
C743 C744 1.516 . S
C744 C743 1.516 . S
C744 C745 1.502 . S
C744 C746 1.561 . S
C744 C747 1.526 . S
C745 H729 0.959 . S
C745 H730 0.959 . S
C745 H731 0.961 . S
C745 C744 1.502 . S
C746 H732 0.960 . S
C746 H733 0.961 . S
C746 H734 0.959 . S
C746 C744 1.561 . S
C747 C744 1.526 . S
C747 C748 1.396 . S
C747 C752 1.390 . S
C748 C742 1.465 . S
C748 C747 1.396 . S
C748 C749 1.399 . S
C749 H735 0.929 . S
C749 C748 1.399 . S
C749 C750 1.385 . S
C750 H736 0.931 . S
C750 C749 1.385 . S
C750 C751 1.389 . S
C751 C750 1.389 . S
C751 C752 1.387 . S
C752 H737 0.930 . S
C752 C747 1.390 . S
C752 C751 1.387 . S
H753 C765 0.930 . S
H754 C767 0.930 . S
H755 C768 0.930 . S
H756 C772 0.959 . S
H757 C772 0.959 . S
H758 C772 0.961 . S
H759 C773 0.960 . S
H760 C773 0.961 . S
H761 C773 0.959 . S
H762 C776 0.929 . S
H763 C777 0.931 . S
H764 C779 0.930 . S
C765 H753 0.930 . S
C765 C766 1.399 . S
C765 C770 1.399 . S
C766 C765 1.399 . S
C766 C767 1.376 . S
C767 H754 0.930 . S
C767 C766 1.376 . S
C767 C768 1.388 . S
C768 H755 0.930 . S
C768 C767 1.388 . S
C768 C769 1.390 . S
C769 C768 1.390 . S
C769 C770 1.394 . S
C769 C775 1.465 . S
C770 C765 1.399 . S
C770 C769 1.394 . S
C770 C771 1.516 . S
C771 C770 1.516 . S
C771 C772 1.502 . S
C771 C773 1.561 . S
C771 C774 1.526 . S
C772 H756 0.959 . S
C772 H757 0.959 . S
C772 H758 0.961 . S
C772 C771 1.502 . S
C773 H759 0.960 . S
C773 H760 0.961 . S
C773 H761 0.959 . S
C773 C771 1.561 . S
C774 C771 1.526 . S
C774 C775 1.396 . S
C774 C779 1.390 . S
C775 C769 1.465 . S
C775 C774 1.396 . S
C775 C776 1.399 . S
C776 H762 0.929 . S
C776 C775 1.399 . S
C776 C777 1.385 . S
C777 H763 0.931 . S
C777 C776 1.385 . S
C777 C778 1.389 . S
C778 C777 1.389 . S
C778 C779 1.387 . S
C779 H764 0.930 . S
C779 C774 1.390 . S
C779 C778 1.387 . S
H780 C792 0.930 . S
H781 C794 0.930 . S
H782 C795 0.930 . S
H783 C799 0.959 . S
H784 C799 0.959 . S
H785 C799 0.961 . S
H786 C800 0.960 . S
H787 C800 0.961 . S
H788 C800 0.959 . S
H789 C803 0.929 . S
H790 C804 0.931 . S
H791 C806 0.930 . S
C792 H780 0.930 . S
C792 C793 1.399 . S
C792 C797 1.399 . S
C793 C792 1.399 . S
C793 C794 1.376 . S
C794 H781 0.930 . S
C794 C793 1.376 . S
C794 C795 1.388 . S
C795 H782 0.930 . S
C795 C794 1.388 . S
C795 C796 1.390 . S
C796 C795 1.390 . S
C796 C797 1.394 . S
C796 C802 1.465 . S
C797 C792 1.399 . S
C797 C796 1.394 . S
C797 C798 1.516 . S
C798 C797 1.516 . S
C798 C799 1.502 . S
C798 C800 1.561 . S
C798 C801 1.526 . S
C799 H783 0.959 . S
C799 H784 0.959 . S
C799 H785 0.961 . S
C799 C798 1.502 . S
C800 H786 0.960 . S
C800 H787 0.961 . S
C800 H788 0.959 . S
C800 C798 1.561 . S
C801 C798 1.526 . S
C801 C802 1.396 . S
C801 C806 1.390 . S
C802 C796 1.465 . S
C802 C801 1.396 . S
C802 C803 1.399 . S
C803 H789 0.929 . S
C803 C802 1.399 . S
C803 C804 1.385 . S
C804 H790 0.931 . S
C804 C803 1.385 . S
C804 C805 1.389 . S
C805 C804 1.389 . S
C805 C806 1.387 . S
C806 H791 0.930 . S
C806 C801 1.390 . S
C806 C805 1.387 . S
H807 C819 0.930 . S
H808 C821 0.930 . S
H809 C822 0.930 . S
H810 C826 0.959 . S
H811 C826 0.959 . S
H812 C826 0.961 . S
H813 C827 0.960 . S
H814 C827 0.961 . S
H815 C827 0.959 . S
H816 C830 0.929 . S
H817 C831 0.931 . S
H818 C833 0.930 . S
C819 H807 0.930 . S
C819 C820 1.399 . S
C819 C824 1.399 . S
C820 C819 1.399 . S
C820 C821 1.376 . S
C821 H808 0.930 . S
C821 C820 1.376 . S
C821 C822 1.388 . S
C822 H809 0.930 . S
C822 C821 1.388 . S
C822 C823 1.390 . S
C823 C822 1.390 . S
C823 C824 1.394 . S
C823 C829 1.465 . S
C824 C819 1.399 . S
C824 C823 1.394 . S
C824 C825 1.516 . S
C825 C824 1.516 . S
C825 C826 1.502 . S
C825 C827 1.561 . S
C825 C828 1.526 . S
C826 H810 0.959 . S
C826 H811 0.959 . S
C826 H812 0.961 . S
C826 C825 1.502 . S
C827 H813 0.960 . S
C827 H814 0.961 . S
C827 H815 0.959 . S
C827 C825 1.561 . S
C828 C825 1.526 . S
C828 C829 1.396 . S
C828 C833 1.390 . S
C829 C823 1.465 . S
C829 C828 1.396 . S
C829 C830 1.399 . S
C830 H816 0.929 . S
C830 C829 1.399 . S
C830 C831 1.385 . S
C831 H817 0.931 . S
C831 C830 1.385 . S
C831 C832 1.389 . S
C832 C831 1.389 . S
C832 C833 1.387 . S
C833 H818 0.930 . S
C833 C828 1.390 . S
C833 C832 1.387 . S
H834 C846 0.930 . S
H835 C848 0.930 . S
H836 C849 0.930 . S
H837 C853 0.959 . S
H838 C853 0.959 . S
H839 C853 0.961 . S
H840 C854 0.960 . S
H841 C854 0.961 . S
H842 C854 0.959 . S
H843 C857 0.929 . S
H844 C858 0.931 . S
H845 C860 0.930 . S
C846 H834 0.930 . S
C846 C847 1.399 . S
C846 C851 1.399 . S
C847 C846 1.399 . S
C847 C848 1.376 . S
C848 H835 0.930 . S
C848 C847 1.376 . S
C848 C849 1.388 . S
C849 H836 0.930 . S
C849 C848 1.388 . S
C849 C850 1.390 . S
C850 C849 1.390 . S
C850 C851 1.394 . S
C850 C856 1.465 . S
C851 C846 1.399 . S
C851 C850 1.394 . S
C851 C852 1.516 . S
C852 C851 1.516 . S
C852 C853 1.502 . S
C852 C854 1.561 . S
C852 C855 1.526 . S
C853 H837 0.959 . S
C853 H838 0.959 . S
C853 H839 0.961 . S
C853 C852 1.502 . S
C854 H840 0.960 . S
C854 H841 0.961 . S
C854 H842 0.959 . S
C854 C852 1.561 . S
C855 C852 1.526 . S
C855 C856 1.396 . S
C855 C860 1.390 . S
C856 C850 1.465 . S
C856 C855 1.396 . S
C856 C857 1.399 . S
C857 H843 0.929 . S
C857 C856 1.399 . S
C857 C858 1.385 . S
C858 H844 0.931 . S
C858 C857 1.385 . S
C858 C859 1.389 . S
C859 C858 1.389 . S
C859 C860 1.387 . S
C860 H845 0.930 . S
C860 C855 1.390 . S
C860 C859 1.387 . S
H861 C873 0.930 . S
H862 C875 0.930 . S
H863 C876 0.930 1_655 S
H864 C880 0.959 . S
H865 C880 0.959 . S
H866 C880 0.996 . S
H867 C881 0.960 . S
H868 C881 0.961 . S
H869 C881 0.959 . S
H870 C884 0.929 . S
H871 C885 0.931 . S
H872 C887 0.930 . S
C873 H861 0.930 . S
C873 C874 1.399 . S
C873 C878 1.399 1_455 S
C874 C873 1.399 . S
C874 C875 1.376 . S
C875 H862 0.930 . S
C875 C874 1.376 . S
C875 C876 1.388 . S
C876 H863 0.930 1_455 S
C876 C875 1.388 . S
C876 C877 1.390 1_455 S
C877 C876 1.390 1_655 S
C877 C878 1.394 . S
C877 C883 1.465 . S
C878 C873 1.399 1_655 S
C878 C877 1.394 . S
C878 C879 1.516 . S
C879 C878 1.516 . S
C879 C880 1.502 . S
C879 C881 1.561 . S
C879 C882 1.526 . S
C880 H864 0.959 . S
C880 H865 0.959 . S
C880 H866 0.996 . S
C880 C879 1.502 . S
C881 H867 0.960 . S
C881 H868 0.961 . S
C881 H869 0.959 . S
C881 C879 1.561 . S
C882 C879 1.526 . S
C882 C883 1.396 . S
C882 C887 1.390 . S
C883 C877 1.465 . S
C883 C882 1.396 . S
C883 C884 1.399 . S
C884 H870 0.929 . S
C884 C883 1.399 . S
C884 C885 1.385 . S
C885 H871 0.931 . S
C885 C884 1.385 . S
C885 C886 1.389 . S
C886 C885 1.389 . S
C886 C887 1.387 . S
C887 H872 0.930 . S
C887 C882 1.390 . S
C887 C886 1.387 . S
H888 C900 0.930 . S
H889 C902 0.930 . S
H890 C903 0.930 . S
H891 C907 0.959 . S
H892 C907 0.959 . S
H893 C907 0.961 . S
H894 C908 0.960 . S
H895 C908 0.961 . S
H896 C908 0.959 . S
H897 C911 0.929 . S
H898 C912 0.931 . S
H899 C914 0.930 . S
C900 H888 0.930 . S
C900 C901 1.399 . S
C900 C905 1.399 . S
C901 C900 1.399 . S
C901 C902 1.376 . S
C902 H889 0.930 . S
C902 C901 1.376 . S
C902 C903 1.388 . S
C903 H890 0.930 . S
C903 C902 1.388 . S
C903 C904 1.390 . S
C904 C903 1.390 . S
C904 C905 1.394 . S
C904 C910 1.465 . S
C905 C900 1.399 . S
C905 C904 1.394 . S
C905 C906 1.516 . S
C906 C905 1.516 . S
C906 C907 1.502 . S
C906 C908 1.561 . S
C906 C909 1.526 . S
C907 H891 0.959 . S
C907 H892 0.959 . S
C907 H893 0.961 . S
C907 C906 1.502 . S
C908 H894 0.960 . S
C908 H895 0.961 . S
C908 H896 0.959 . S
C908 C906 1.561 . S
C909 C906 1.526 . S
C909 C910 1.396 . S
C909 C914 1.390 . S
C910 C904 1.465 . S
C910 C909 1.396 . S
C910 C911 1.399 . S
C911 H897 0.929 . S
C911 C910 1.399 . S
C911 C912 1.385 . S
C912 H898 0.931 . S
C912 C911 1.385 . S
C912 C913 1.389 . S
C913 C912 1.389 . S
C913 C914 1.387 . S
C914 H899 0.930 . S
C914 C909 1.390 . S
C914 C913 1.387 . S
H915 C927 0.930 . S
H916 C929 0.930 . S
H917 C930 0.930 . S
H918 C934 0.959 . S
H919 C934 0.959 . S
H920 C934 0.961 . S
H921 C935 0.960 . S
H922 C935 0.961 . S
H923 C935 0.959 . S
H924 C938 0.929 . S
H925 C939 0.931 . S
H926 C941 0.930 . S
C927 H915 0.930 . S
C927 C928 1.399 . S
C927 C932 1.399 . S
C928 C927 1.399 . S
C928 C929 1.376 . S
C929 H916 0.930 . S
C929 C928 1.376 . S
C929 C930 1.388 . S
C930 H917 0.930 . S
C930 C929 1.388 . S
C930 C931 1.390 . S
C931 C930 1.390 . S
C931 C932 1.394 . S
C931 C937 1.465 . S
C932 C927 1.399 . S
C932 C931 1.394 . S
C932 C933 1.516 . S
C933 C932 1.516 . S
C933 C934 1.502 . S
C933 C935 1.561 . S
C933 C936 1.526 . S
C934 H918 0.959 . S
C934 H919 0.959 . S
C934 H920 0.961 . S
C934 C933 1.502 . S
C935 H921 0.960 . S
C935 H922 0.961 . S
C935 H923 0.959 . S
C935 C933 1.561 . S
C936 C933 1.526 . S
C936 C937 1.396 . S
C936 C941 1.390 . S
C937 C931 1.465 . S
C937 C936 1.396 . S
C937 C938 1.399 . S
C938 H924 0.929 . S
C938 C937 1.399 . S
C938 C939 1.385 . S
C939 H925 0.931 . S
C939 C938 1.385 . S
C939 C940 1.389 . S
C940 C939 1.389 . S
C940 C941 1.387 . S
C941 H926 0.930 . S
C941 C936 1.390 . S
C941 C940 1.387 . S
H942 C954 0.930 . S
H943 C956 0.930 . S
H944 C957 0.930 . S
H945 C961 0.959 . S
H946 C961 0.959 . S
H947 C961 0.961 . S
H948 C962 0.960 . S
H949 C962 0.961 . S
H950 C962 0.959 . S
H951 C965 0.929 . S
H952 C966 0.931 . S
H953 C968 0.930 . S
C954 H942 0.930 . S
C954 C955 1.399 . S
C954 C959 1.399 . S
C955 C954 1.399 . S
C955 C956 1.376 . S
C956 H943 0.930 . S
C956 C955 1.376 . S
C956 C957 1.388 . S
C957 H944 0.930 . S
C957 C956 1.388 . S
C957 C958 1.390 . S
C958 C957 1.390 . S
C958 C959 1.394 . S
C958 C964 1.465 . S
C959 C954 1.399 . S
C959 C958 1.394 . S
C959 C960 1.516 . S
C960 C959 1.516 . S
C960 C961 1.502 . S
C960 C962 1.561 . S
C960 C963 1.526 . S
C961 H945 0.959 . S
C961 H946 0.959 . S
C961 H947 0.961 . S
C961 C960 1.502 . S
C962 H948 0.960 . S
C962 H949 0.961 . S
C962 H950 0.959 . S
C962 C960 1.561 . S
C963 C960 1.526 . S
C963 C964 1.396 . S
C963 C968 1.390 . S
C964 C958 1.465 . S
C964 C963 1.396 . S
C964 C965 1.399 . S
C965 H951 0.929 . S
C965 C964 1.399 . S
C965 C966 1.385 . S
C966 H952 0.931 . S
C966 C965 1.385 . S
C966 C967 1.389 . S
C967 C966 1.389 . S
C967 C968 1.387 . S
C968 H953 0.930 . S
C968 C963 1.390 . S
C968 C967 1.387 . S
H969 C981 0.930 . S
H970 C983 0.930 . S
H971 C984 0.930 . S
H972 C988 0.959 . S
H973 C988 0.959 . S
H974 C988 0.961 1_556 S
H975 C989 0.960 1_556 S
H976 C989 0.961 . S
H977 C989 0.959 . S
H978 C992 0.929 . S
H979 C993 0.931 . S
H980 C995 0.930 . S
C981 H969 0.930 . S
C981 C982 1.399 . S
C981 C986 1.399 . S
C982 C981 1.399 . S
C982 C983 1.376 . S
C983 H970 0.930 . S
C983 C982 1.376 . S
C983 C984 1.388 . S
C984 H971 0.930 . S
C984 C983 1.388 . S
C984 C985 1.390 . S
C985 C984 1.390 . S
C985 C986 1.394 . S
C985 C991 1.465 1_556 S
C986 C981 1.399 . S
C986 C985 1.394 . S
C986 C987 1.516 1_556 S
C987 C986 1.516 1_554 S
C987 C988 1.502 . S
C987 C989 1.561 . S
C987 C990 1.526 . S
C988 H972 0.959 . S
C988 H973 0.959 . S
C988 H974 0.961 1_554 S
C988 C987 1.502 . S
C989 H975 0.960 1_554 S
C989 H976 0.961 . S
C989 H977 0.959 . S
C989 C987 1.561 . S
C990 C987 1.526 . S
C990 C991 1.396 . S
C990 C995 1.390 . S
C991 C985 1.465 1_554 S
C991 C990 1.396 . S
C991 C992 1.399 . S
C992 H978 0.929 . S
C992 C991 1.399 . S
C992 C993 1.385 . S
C993 H979 0.931 . S
C993 C992 1.385 . S
C993 C994 1.389 . S
C994 C993 1.389 . S
C994 C995 1.387 . S
C995 H980 0.930 . S
C995 C990 1.390 . S
C995 C994 1.387 . S
H996 C1008 0.930 . S
H997 C1010 0.930 . S
H998 C1011 0.930 . S
H999 C1015 0.959 . S
H1000 C1015 0.959 . S
H1001 C1015 0.961 . S
H1002 C1016 0.960 . S
H1003 C1016 0.961 . S
H1004 C1016 0.959 . S
H1005 C1019 0.929 . S
H1006 C1020 0.931 . S
H1007 C1022 0.930 . S
C1008 H996 0.930 . S
C1008 C1009 1.399 . S
C1008 C1013 1.399 . S
C1009 C1008 1.399 . S
C1009 C1010 1.376 . S
C1010 H997 0.930 . S
C1010 C1009 1.376 . S
C1010 C1011 1.388 . S
C1011 H998 0.930 . S
C1011 C1010 1.388 . S
C1011 C1012 1.390 . S
C1012 C1011 1.390 . S
C1012 C1013 1.394 . S
C1012 C1018 1.465 . S
C1013 C1008 1.399 . S
C1013 C1012 1.394 . S
C1013 C1014 1.516 . S
C1014 C1013 1.516 . S
C1014 C1015 1.502 . S
C1014 C1016 1.561 . S
C1014 C1017 1.526 . S
C1015 H999 0.959 . S
C1015 H1000 0.959 . S
C1015 H1001 0.961 . S
C1015 C1014 1.502 . S
C1016 H1002 0.960 . S
C1016 H1003 0.961 . S
C1016 H1004 0.959 . S
C1016 C1014 1.561 . S
C1017 C1014 1.526 . S
C1017 C1018 1.396 . S
C1017 C1022 1.390 . S
C1018 C1012 1.465 . S
C1018 C1017 1.396 . S
C1018 C1019 1.399 . S
C1019 H1005 0.929 . S
C1019 C1018 1.399 . S
C1019 C1020 1.385 . S
C1020 H1006 0.931 . S
C1020 C1019 1.385 . S
C1020 C1021 1.389 . S
C1021 C1020 1.389 . S
C1021 C1022 1.387 . S
C1022 H1007 0.930 . S
C1022 C1017 1.390 . S
C1022 C1021 1.387 . S
H1023 C1035 0.930 . S
H1024 C1037 0.930 . S
H1025 C1038 0.930 . S
H1026 C1042 0.959 . S
H1027 C1042 0.959 . S
H1028 C1042 0.961 . S
H1029 C1043 0.960 . S
H1030 C1043 0.961 . S
H1031 C1043 0.959 . S
H1032 C1046 0.929 . S
H1033 C1047 0.931 . S
H1034 C1049 0.930 . S
C1035 H1023 0.930 . S
C1035 C1036 1.399 . S
C1035 C1040 1.399 . S
C1036 C1035 1.399 . S
C1036 C1037 1.376 . S
C1037 H1024 0.930 . S
C1037 C1036 1.376 . S
C1037 C1038 1.388 . S
C1038 H1025 0.930 . S
C1038 C1037 1.388 . S
C1038 C1039 1.390 . S
C1039 C1038 1.390 . S
C1039 C1040 1.394 . S
C1039 C1045 1.465 . S
C1040 C1035 1.399 . S
C1040 C1039 1.394 . S
C1040 C1041 1.516 . S
C1041 C1040 1.516 . S
C1041 C1042 1.502 . S
C1041 C1043 1.561 . S
C1041 C1044 1.526 . S
C1042 H1026 0.959 . S
C1042 H1027 0.959 . S
C1042 H1028 0.961 . S
C1042 C1041 1.502 . S
C1043 H1029 0.960 . S
C1043 H1030 0.961 . S
C1043 H1031 0.959 . S
C1043 C1041 1.561 . S
C1044 C1041 1.526 . S
C1044 C1045 1.396 . S
C1044 C1049 1.390 . S
C1045 C1039 1.465 . S
C1045 C1044 1.396 . S
C1045 C1046 1.399 . S
C1046 H1032 0.929 . S
C1046 C1045 1.399 . S
C1046 C1047 1.385 . S
C1047 H1033 0.931 . S
C1047 C1046 1.385 . S
C1047 C1048 1.389 . S
C1048 C1047 1.389 . S
C1048 C1049 1.387 . S
C1049 H1034 0.930 . S
C1049 C1044 1.390 . S
C1049 C1048 1.387 . S
H1050 C1062 0.930 . S
H1051 C1064 0.930 . S
H1052 C1065 0.930 . S
H1053 C1069 0.959 . S
H1054 C1069 0.959 . S
H1055 C1069 0.961 . S
H1056 C1070 0.960 . S
H1057 C1070 0.961 . S
H1058 C1070 0.959 . S
H1059 C1073 0.929 . S
H1060 C1074 0.931 . S
H1061 C1076 0.930 . S
C1062 H1050 0.930 . S
C1062 C1063 1.399 . S
C1062 C1067 1.399 . S
C1063 C1062 1.399 . S
C1063 C1064 1.376 . S
C1064 H1051 0.930 . S
C1064 C1063 1.376 . S
C1064 C1065 1.388 . S
C1065 H1052 0.930 . S
C1065 C1064 1.388 . S
C1065 C1066 1.390 . S
C1066 C1065 1.390 . S
C1066 C1067 1.394 . S
C1066 C1072 1.465 . S
C1067 C1062 1.399 . S
C1067 C1066 1.394 . S
C1067 C1068 1.516 . S
C1068 C1067 1.516 . S
C1068 C1069 1.502 . S
C1068 C1070 1.561 . S
C1068 C1071 1.526 . S
C1069 H1053 0.959 . S
C1069 H1054 0.959 . S
C1069 H1055 0.961 . S
C1069 C1068 1.502 . S
C1070 H1056 0.960 . S
C1070 H1057 0.961 . S
C1070 H1058 0.959 . S
C1070 C1068 1.561 . S
C1071 C1068 1.526 . S
C1071 C1072 1.396 . S
C1071 C1076 1.390 . S
C1072 C1066 1.465 . S
C1072 C1071 1.396 . S
C1072 C1073 1.399 . S
C1073 H1059 0.929 . S
C1073 C1072 1.399 . S
C1073 C1074 1.385 . S
C1074 H1060 0.931 . S
C1074 C1073 1.385 . S
C1074 C1075 1.389 . S
C1075 C1074 1.389 . S
C1075 C1076 1.387 . S
C1076 H1061 0.930 . S
C1076 C1071 1.390 . S
C1076 C1075 1.387 . S
H1077 C1089 0.930 . S
H1078 C1091 0.930 . S
H1079 C1092 0.930 . S
H1080 C1096 0.959 . S
H1081 C1096 0.974 . S
H1082 C1096 0.961 . S
H1083 C1097 0.960 . S
H1084 C1097 0.961 . S
H1085 C1097 0.959 . S
H1086 C1100 0.929 . S
H1087 C1101 0.931 . S
H1088 C1103 0.930 . S
C1089 H1077 0.930 . S
C1089 C1090 1.399 . S
C1089 C1094 1.399 . S
C1090 C1089 1.399 . S
C1090 C1091 1.376 . S
C1091 H1078 0.930 . S
C1091 C1090 1.376 . S
C1091 C1092 1.388 . S
C1092 H1079 0.930 . S
C1092 C1091 1.388 . S
C1092 C1093 1.390 . S
C1093 C1092 1.390 . S
C1093 C1094 1.394 . S
C1093 C1099 1.465 1_554 S
C1094 C1089 1.399 . S
C1094 C1093 1.394 . S
C1094 C1095 1.516 . S
C1095 C1094 1.516 . S
C1095 C1096 1.502 . S
C1095 C1097 1.561 . S
C1095 C1098 1.526 1_554 S
C1096 H1080 0.959 . S
C1096 H1081 0.974 . S
C1096 H1082 0.961 . S
C1096 C1095 1.502 . S
C1097 H1083 0.960 . S
C1097 H1084 0.961 . S
C1097 H1085 0.959 . S
C1097 C1095 1.561 . S
C1098 C1095 1.526 1_556 S
C1098 C1099 1.396 . S
C1098 C1103 1.390 . S
C1099 C1093 1.465 1_556 S
C1099 C1098 1.396 . S
C1099 C1100 1.399 . S
C1100 H1086 0.929 . S
C1100 C1099 1.399 . S
C1100 C1101 1.385 . S
C1101 H1087 0.931 . S
C1101 C1100 1.385 . S
C1101 C1102 1.389 . S
C1102 C1101 1.389 . S
C1102 C1103 1.387 . S
C1103 H1088 0.930 . S
C1103 C1098 1.390 . S
C1103 C1102 1.387 . S
H1104 C1116 0.930 . S
H1105 C1118 0.930 . S
H1106 C1119 0.930 . S
H1107 C1123 0.959 . S
H1108 C1123 0.959 . S
H1109 C1123 0.961 . S
H1110 C1124 0.960 . S
H1111 C1124 0.961 . S
H1112 C1124 0.959 . S
H1113 C1127 0.929 . S
H1114 C1128 0.931 . S
H1115 C1130 0.930 . S
C1116 H1104 0.930 . S
C1116 C1117 1.399 . S
C1116 C1121 1.399 . S
C1117 C1116 1.399 . S
C1117 C1118 1.376 . S
C1118 H1105 0.930 . S
C1118 C1117 1.376 . S
C1118 C1119 1.388 . S
C1119 H1106 0.930 . S
C1119 C1118 1.388 . S
C1119 C1120 1.390 . S
C1120 C1119 1.390 . S
C1120 C1121 1.394 . S
C1120 C1126 1.465 . S
C1121 C1116 1.399 . S
C1121 C1120 1.394 . S
C1121 C1122 1.516 . S
C1122 C1121 1.516 . S
C1122 C1123 1.502 . S
C1122 C1124 1.561 . S
C1122 C1125 1.526 . S
C1123 H1107 0.959 . S
C1123 H1108 0.959 . S
C1123 H1109 0.961 . S
C1123 C1122 1.502 . S
C1124 H1110 0.960 . S
C1124 H1111 0.961 . S
C1124 H1112 0.959 . S
C1124 C1122 1.561 . S
C1125 C1122 1.526 . S
C1125 C1126 1.396 . S
C1125 C1130 1.390 . S
C1126 C1120 1.465 . S
C1126 C1125 1.396 . S
C1126 C1127 1.399 . S
C1127 H1113 0.929 . S
C1127 C1126 1.399 . S
C1127 C1128 1.385 . S
C1128 H1114 0.931 . S
C1128 C1127 1.385 . S
C1128 C1129 1.389 . S
C1129 C1128 1.389 . S
C1129 C1130 1.387 . S
C1130 H1115 0.930 . S
C1130 C1125 1.390 . S
C1130 C1129 1.387 . S
H1131 C1143 0.930 . S
H1132 C1145 0.930 . S
H1133 C1146 0.930 . S
H1134 C1150 0.959 . S
H1135 C1150 0.959 . S
H1136 C1150 0.961 . S
H1137 C1151 0.960 . S
H1138 C1151 0.961 . S
H1139 C1151 0.959 . S
H1140 C1154 0.929 . S
H1141 C1155 0.931 . S
H1142 C1157 0.930 . S
C1143 H1131 0.930 . S
C1143 C1144 1.399 . S
C1143 C1148 1.399 . S
C1144 C1143 1.399 . S
C1144 C1145 1.376 . S
C1145 H1132 0.930 . S
C1145 C1144 1.376 . S
C1145 C1146 1.388 . S
C1146 H1133 0.930 . S
C1146 C1145 1.388 . S
C1146 C1147 1.390 . S
C1147 C1146 1.390 . S
C1147 C1148 1.394 . S
C1147 C1153 1.465 . S
C1148 C1143 1.399 . S
C1148 C1147 1.394 . S
C1148 C1149 1.516 . S
C1149 C1148 1.516 . S
C1149 C1150 1.502 . S
C1149 C1151 1.561 . S
C1149 C1152 1.526 . S
C1150 H1134 0.959 . S
C1150 H1135 0.959 . S
C1150 H1136 0.961 . S
C1150 C1149 1.502 . S
C1151 H1137 0.960 . S
C1151 H1138 0.961 . S
C1151 H1139 0.959 . S
C1151 C1149 1.561 . S
C1152 C1149 1.526 . S
C1152 C1153 1.396 . S
C1152 C1157 1.390 . S
C1153 C1147 1.465 . S
C1153 C1152 1.396 . S
C1153 C1154 1.399 . S
C1154 H1140 0.929 . S
C1154 C1153 1.399 . S
C1154 C1155 1.385 . S
C1155 H1141 0.931 . S
C1155 C1154 1.385 . S
C1155 C1156 1.389 . S
C1156 C1155 1.389 . S
C1156 C1157 1.387 . S
C1157 H1142 0.930 . S
C1157 C1152 1.390 . S
C1157 C1156 1.387 . S
H1158 C1170 0.930 . S
H1159 C1172 0.930 . S
H1160 C1173 0.930 . S
H1161 C1177 0.959 . S
H1162 C1177 0.959 . S
H1163 C1177 0.961 . S
H1164 C1178 0.960 . S
H1165 C1178 0.961 . S
H1166 C1178 0.959 . S
H1167 C1181 0.929 . S
H1168 C1182 0.931 . S
H1169 C1184 0.930 . S
C1170 H1158 0.930 . S
C1170 C1171 1.399 . S
C1170 C1175 1.399 . S
C1171 C1170 1.399 . S
C1171 C1172 1.376 . S
C1172 H1159 0.930 . S
C1172 C1171 1.376 . S
C1172 C1173 1.388 . S
C1173 H1160 0.930 . S
C1173 C1172 1.388 . S
C1173 C1174 1.390 . S
C1174 C1173 1.390 . S
C1174 C1175 1.394 . S
C1174 C1180 1.465 . S
C1175 C1170 1.399 . S
C1175 C1174 1.394 . S
C1175 C1176 1.516 . S
C1176 C1175 1.516 . S
C1176 C1177 1.502 . S
C1176 C1178 1.561 . S
C1176 C1179 1.526 . S
C1177 H1161 0.959 . S
C1177 H1162 0.959 . S
C1177 H1163 0.961 . S
C1177 C1176 1.502 . S
C1178 H1164 0.960 . S
C1178 H1165 0.961 . S
C1178 H1166 0.959 . S
C1178 C1176 1.561 . S
C1179 C1176 1.526 . S
C1179 C1180 1.396 . S
C1179 C1184 1.390 . S
C1180 C1174 1.465 . S
C1180 C1179 1.396 . S
C1180 C1181 1.399 . S
C1181 H1167 0.929 . S
C1181 C1180 1.399 . S
C1181 C1182 1.385 . S
C1182 H1168 0.931 . S
C1182 C1181 1.385 . S
C1182 C1183 1.389 . S
C1183 C1182 1.389 . S
C1183 C1184 1.387 . S
C1184 H1169 0.930 . S
C1184 C1179 1.390 . S
C1184 C1183 1.387 . S
H1185 C1197 0.930 . S
H1186 C1199 0.930 . S
H1187 C1200 0.930 . S
H1188 C1204 0.959 . S
H1189 C1204 0.959 . S
H1190 C1204 0.961 . S
H1191 C1205 0.960 . S
H1192 C1205 0.961 . S
H1193 C1205 0.959 . S
H1194 C1208 0.929 . S
H1195 C1209 0.931 . S
H1196 C1211 0.930 . S
C1197 H1185 0.930 . S
C1197 C1198 1.399 . S
C1197 C1202 1.399 . S
C1198 C1197 1.399 . S
C1198 C1199 1.376 . S
C1199 H1186 0.930 . S
C1199 C1198 1.376 . S
C1199 C1200 1.388 . S
C1200 H1187 0.930 . S
C1200 C1199 1.388 . S
C1200 C1201 1.390 . S
C1201 C1200 1.390 . S
C1201 C1202 1.394 . S
C1201 C1207 1.465 . S
C1202 C1197 1.399 . S
C1202 C1201 1.394 . S
C1202 C1203 1.516 . S
C1203 C1202 1.516 . S
C1203 C1204 1.502 . S
C1203 C1205 1.561 . S
C1203 C1206 1.526 . S
C1204 H1188 0.959 . S
C1204 H1189 0.959 . S
C1204 H1190 0.961 . S
C1204 C1203 1.502 . S
C1205 H1191 0.960 . S
C1205 H1192 0.961 . S
C1205 H1193 0.959 . S
C1205 C1203 1.561 . S
C1206 C1203 1.526 . S
C1206 C1207 1.396 . S
C1206 C1211 1.390 . S
C1207 C1201 1.465 . S
C1207 C1206 1.396 . S
C1207 C1208 1.399 . S
C1208 H1194 0.929 . S
C1208 C1207 1.399 . S
C1208 C1209 1.385 . S
C1209 H1195 0.931 . S
C1209 C1208 1.385 . S
C1209 C1210 1.389 . S
C1210 C1209 1.389 . S
C1210 C1211 1.387 . S
C1211 H1196 0.930 . S
C1211 C1206 1.390 . S
C1211 C1210 1.387 . S
H1212 C1224 0.930 . S
H1213 C1226 0.930 . S
H1214 C1227 0.930 . S
H1215 C1231 0.959 . S
H1216 C1231 0.959 . S
H1217 C1231 0.961 . S
H1218 C1232 0.960 . S
H1219 C1232 0.961 . S
H1220 C1232 0.959 . S
H1221 C1235 0.929 . S
H1222 C1236 0.931 . S
H1223 C1238 0.927 1_545 S
C1224 H1212 0.930 . S
C1224 C1225 1.399 . S
C1224 C1229 1.399 . S
C1225 C1224 1.399 . S
C1225 C1226 1.376 . S
C1226 H1213 0.930 . S
C1226 C1225 1.376 . S
C1226 C1227 1.388 . S
C1227 H1214 0.930 . S
C1227 C1226 1.388 . S
C1227 C1228 1.390 . S
C1228 C1227 1.390 . S
C1228 C1229 1.394 . S
C1228 C1234 1.465 . S
C1229 C1224 1.399 . S
C1229 C1228 1.394 . S
C1229 C1230 1.516 . S
C1230 C1229 1.516 . S
C1230 C1231 1.502 . S
C1230 C1232 1.561 . S
C1230 C1233 1.526 . S
C1231 H1215 0.959 . S
C1231 H1216 0.959 . S
C1231 H1217 0.961 . S
C1231 C1230 1.502 . S
C1232 H1218 0.960 . S
C1232 H1219 0.961 . S
C1232 H1220 0.959 . S
C1232 C1230 1.561 . S
C1233 C1230 1.526 . S
C1233 C1234 1.396 . S
C1233 C1238 1.390 . S
C1234 C1228 1.465 . S
C1234 C1233 1.396 . S
C1234 C1235 1.399 . S
C1235 H1221 0.929 . S
C1235 C1234 1.399 . S
C1235 C1236 1.385 1_565 S
C1236 H1222 0.931 . S
C1236 C1235 1.385 1_545 S
C1236 C1237 1.389 . S
C1237 C1236 1.389 . S
C1237 C1238 1.387 1_545 S
C1238 H1223 0.927 1_565 S
C1238 C1233 1.390 . S
C1238 C1237 1.387 1_565 S
H1239 C1251 0.930 . S
H1240 C1253 0.930 . S
H1241 C1254 0.930 . S
H1242 C1258 0.959 . S
H1243 C1258 0.959 . S
H1244 C1258 0.961 . S
H1245 C1259 0.960 . S
H1246 C1259 0.961 . S
H1247 C1259 0.959 . S
H1248 C1262 0.929 . S
H1249 C1263 0.931 . S
H1250 C1265 0.930 . S
C1251 H1239 0.930 . S
C1251 C1252 1.399 . S
C1251 C1256 1.399 . S
C1252 C1251 1.399 . S
C1252 C1253 1.376 . S
C1253 H1240 0.930 . S
C1253 C1252 1.376 . S
C1253 C1254 1.388 . S
C1254 H1241 0.930 . S
C1254 C1253 1.388 . S
C1254 C1255 1.390 . S
C1255 C1254 1.390 . S
C1255 C1256 1.394 . S
C1255 C1261 1.465 . S
C1256 C1251 1.399 . S
C1256 C1255 1.394 . S
C1256 C1257 1.516 . S
C1257 C1256 1.516 . S
C1257 C1258 1.502 . S
C1257 C1259 1.561 . S
C1257 C1260 1.526 . S
C1258 H1242 0.959 . S
C1258 H1243 0.959 . S
C1258 H1244 0.961 . S
C1258 C1257 1.502 . S
C1259 H1245 0.960 . S
C1259 H1246 0.961 . S
C1259 H1247 0.959 . S
C1259 C1257 1.561 . S
C1260 C1257 1.526 . S
C1260 C1261 1.396 . S
C1260 C1265 1.390 . S
C1261 C1255 1.465 . S
C1261 C1260 1.396 . S
C1261 C1262 1.399 . S
C1262 H1248 0.929 . S
C1262 C1261 1.399 . S
C1262 C1263 1.385 . S
C1263 H1249 0.931 . S
C1263 C1262 1.385 . S
C1263 C1264 1.389 . S
C1264 C1263 1.389 . S
C1264 C1265 1.387 . S
C1265 H1250 0.930 . S
C1265 C1260 1.390 . S
C1265 C1264 1.387 . S
H1266 C1278 0.930 . S
H1267 C1280 0.930 . S
H1268 C1281 0.930 . S
H1269 C1285 0.959 . S
H1270 C1285 0.959 . S
H1271 C1285 0.961 . S
H1272 C1286 0.960 . S
H1273 C1286 0.961 . S
H1274 C1286 0.959 . S
H1275 C1289 0.929 . S
H1276 C1290 0.931 . S
H1277 C1292 0.930 . S
C1278 H1266 0.930 . S
C1278 C1279 1.399 . S
C1278 C1283 1.399 . S
C1279 C1278 1.399 . S
C1279 C1280 1.376 . S
C1280 H1267 0.930 . S
C1280 C1279 1.376 . S
C1280 C1281 1.388 . S
C1281 H1268 0.930 . S
C1281 C1280 1.388 . S
C1281 C1282 1.390 . S
C1282 C1281 1.390 . S
C1282 C1283 1.394 . S
C1282 C1288 1.465 . S
C1283 C1278 1.399 . S
C1283 C1282 1.394 . S
C1283 C1284 1.516 . S
C1284 C1283 1.516 . S
C1284 C1285 1.502 . S
C1284 C1286 1.561 . S
C1284 C1287 1.526 . S
C1285 H1269 0.959 . S
C1285 H1270 0.959 . S
C1285 H1271 0.961 . S
C1285 C1284 1.502 . S
C1286 H1272 0.960 . S
C1286 H1273 0.961 . S
C1286 H1274 0.959 . S
C1286 C1284 1.561 . S
C1287 C1284 1.526 . S
C1287 C1288 1.396 . S
C1287 C1292 1.390 . S
C1288 C1282 1.465 . S
C1288 C1287 1.396 . S
C1288 C1289 1.399 . S
C1289 H1275 0.929 . S
C1289 C1288 1.399 . S
C1289 C1290 1.385 . S
C1290 H1276 0.931 . S
C1290 C1289 1.385 . S
C1290 C1291 1.389 . S
C1291 C1290 1.389 . S
C1291 C1292 1.387 . S
C1292 H1277 0.930 . S
C1292 C1287 1.390 . S
C1292 C1291 1.387 . S
H1293 C1305 0.930 . S
H1294 C1307 0.930 . S
H1295 C1308 0.930 . S
H1296 C1312 0.959 . S
H1297 C1312 0.959 . S
H1298 C1312 0.961 . S
H1299 C1313 0.960 . S
H1300 C1313 0.961 . S
H1301 C1313 0.959 . S
H1302 C1316 0.929 . S
H1303 C1317 0.931 . S
H1304 C1319 0.930 . S
C1305 H1293 0.930 . S
C1305 C1306 1.399 . S
C1305 C1310 1.399 . S
C1306 C1305 1.399 . S
C1306 C1307 1.376 . S
C1307 H1294 0.930 . S
C1307 C1306 1.376 . S
C1307 C1308 1.388 . S
C1308 H1295 0.930 . S
C1308 C1307 1.388 . S
C1308 C1309 1.390 . S
C1309 C1308 1.390 . S
C1309 C1310 1.394 . S
C1309 C1315 1.465 . S
C1310 C1305 1.399 . S
C1310 C1309 1.394 . S
C1310 C1311 1.516 . S
C1311 C1310 1.516 . S
C1311 C1312 1.502 . S
C1311 C1313 1.561 . S
C1311 C1314 1.526 . S
C1312 H1296 0.959 . S
C1312 H1297 0.959 . S
C1312 H1298 0.961 . S
C1312 C1311 1.502 . S
C1313 H1299 0.960 . S
C1313 H1300 0.961 . S
C1313 H1301 0.959 . S
C1313 C1311 1.561 . S
C1314 C1311 1.526 . S
C1314 C1315 1.396 . S
C1314 C1319 1.390 . S
C1315 C1309 1.465 . S
C1315 C1314 1.396 . S
C1315 C1316 1.399 . S
C1316 H1302 0.929 . S
C1316 C1315 1.399 . S
C1316 C1317 1.385 . S
C1317 H1303 0.931 . S
C1317 C1316 1.385 . S
C1317 C1318 1.389 . S
C1318 C1317 1.389 . S
C1318 C1319 1.387 . S
C1319 H1304 0.930 . S
C1319 C1314 1.390 . S
C1319 C1318 1.387 . S
H1320 C1332 0.930 . S
H1321 C1334 0.930 . S
H1322 C1335 0.930 . S
H1323 C1339 0.959 . S
H1324 C1339 0.959 . S
H1325 C1339 0.961 . S
H1326 C1340 0.960 . S
H1327 C1340 0.961 . S
H1328 C1340 0.959 . S
H1329 C1343 0.929 . S
H1330 C1344 0.931 . S
H1331 C1346 0.930 . S
C1332 H1320 0.930 . S
C1332 C1333 1.399 . S
C1332 C1337 1.399 . S
C1333 C1332 1.399 . S
C1333 C1334 1.376 . S
C1334 H1321 0.930 . S
C1334 C1333 1.376 . S
C1334 C1335 1.388 . S
C1335 H1322 0.930 . S
C1335 C1334 1.388 . S
C1335 C1336 1.390 . S
C1336 C1335 1.390 . S
C1336 C1337 1.394 . S
C1336 C1342 1.465 . S
C1337 C1332 1.399 . S
C1337 C1336 1.394 . S
C1337 C1338 1.516 . S
C1338 C1337 1.516 . S
C1338 C1339 1.502 . S
C1338 C1340 1.561 . S
C1338 C1341 1.526 . S
C1339 H1323 0.959 . S
C1339 H1324 0.959 . S
C1339 H1325 0.961 . S
C1339 C1338 1.502 . S
C1340 H1326 0.960 . S
C1340 H1327 0.961 . S
C1340 H1328 0.959 . S
C1340 C1338 1.561 . S
C1341 C1338 1.526 . S
C1341 C1342 1.396 . S
C1341 C1346 1.390 . S
C1342 C1336 1.465 . S
C1342 C1341 1.396 . S
C1342 C1343 1.399 . S
C1343 H1329 0.929 . S
C1343 C1342 1.399 . S
C1343 C1344 1.385 . S
C1344 H1330 0.931 . S
C1344 C1343 1.385 . S
C1344 C1345 1.389 . S
C1345 C1344 1.389 . S
C1345 C1346 1.387 . S
C1346 H1331 0.930 . S
C1346 C1341 1.390 . S
C1346 C1345 1.387 . S
H1347 C1359 0.930 . S
H1348 C1361 0.930 . S
H1349 C1362 0.930 . S
H1350 C1366 0.959 1_455 S
H1351 C1366 0.959 1_455 S
H1352 C1366 0.961 . S
H1353 C1367 0.960 . S
H1354 C1367 0.961 . S
H1355 C1367 0.959 . S
H1356 C1370 0.929 . S
H1357 C1371 0.931 . S
H1358 C1373 0.930 . S
C1359 H1347 0.930 . S
C1359 C1360 1.399 . S
C1359 C1364 1.399 . S
C1360 C1359 1.399 . S
C1360 C1361 1.376 . S
C1361 H1348 0.930 . S
C1361 C1360 1.376 . S
C1361 C1362 1.388 . S
C1362 H1349 0.930 . S
C1362 C1361 1.388 . S
C1362 C1363 1.390 . S
C1363 C1362 1.390 . S
C1363 C1364 1.394 . S
C1363 C1369 1.465 1_655 S
C1364 C1359 1.399 . S
C1364 C1363 1.394 . S
C1364 C1365 1.516 . S
C1365 C1364 1.516 . S
C1365 C1366 1.502 . S
C1365 C1367 1.561 . S
C1365 C1368 1.526 1_655 S
C1366 H1350 0.959 1_655 S
C1366 H1351 0.959 1_655 S
C1366 H1352 0.961 . S
C1366 C1365 1.502 . S
C1367 H1353 0.960 . S
C1367 H1354 0.961 . S
C1367 H1355 0.959 . S
C1367 C1365 1.561 . S
C1368 C1365 1.526 1_455 S
C1368 C1369 1.396 . S
C1368 C1373 1.390 . S
C1369 C1363 1.465 1_455 S
C1369 C1368 1.396 . S
C1369 C1370 1.399 . S
C1370 H1356 0.929 . S
C1370 C1369 1.399 . S
C1370 C1371 1.385 . S
C1371 H1357 0.931 . S
C1371 C1370 1.385 . S
C1371 C1372 1.389 . S
C1372 C1371 1.389 . S
C1372 C1373 1.387 . S
C1373 H1358 0.930 . S
C1373 C1368 1.390 . S
C1373 C1372 1.387 . S
H1374 C1386 0.930 . S
H1375 C1388 0.930 . S
H1376 C1389 0.930 . S
H1377 C1393 0.959 . S
H1378 C1393 0.959 . S
H1379 C1393 0.961 . S
H1380 C1394 0.960 . S
H1381 C1394 0.961 . S
H1382 C1394 0.959 . S
H1383 C1397 0.929 . S
H1384 C1398 0.931 . S
H1385 C1400 0.930 . S
C1386 H1374 0.930 . S
C1386 C1387 1.399 . S
C1386 C1391 1.399 . S
C1387 C1386 1.399 . S
C1387 C1388 1.376 . S
C1388 H1375 0.930 . S
C1388 C1387 1.376 . S
C1388 C1389 1.388 . S
C1389 H1376 0.930 . S
C1389 C1388 1.388 . S
C1389 C1390 1.390 . S
C1390 C1389 1.390 . S
C1390 C1391 1.394 . S
C1390 C1396 1.465 . S
C1391 C1386 1.399 . S
C1391 C1390 1.394 . S
C1391 C1392 1.516 . S
C1392 C1391 1.516 . S
C1392 C1393 1.502 . S
C1392 C1394 1.561 . S
C1392 C1395 1.526 . S
C1393 H1377 0.959 . S
C1393 H1378 0.959 . S
C1393 H1379 0.961 . S
C1393 C1392 1.502 . S
C1394 H1380 0.960 . S
C1394 H1381 0.961 . S
C1394 H1382 0.959 . S
C1394 C1392 1.561 . S
C1395 C1392 1.526 . S
C1395 C1396 1.396 . S
C1395 C1400 1.390 . S
C1396 C1390 1.465 . S
C1396 C1395 1.396 . S
C1396 C1397 1.399 . S
C1397 H1383 0.929 . S
C1397 C1396 1.399 . S
C1397 C1398 1.385 . S
C1398 H1384 0.931 . S
C1398 C1397 1.385 . S
C1398 C1399 1.389 . S
C1399 C1398 1.389 . S
C1399 C1400 1.387 . S
C1400 H1385 0.930 . S
C1400 C1395 1.390 . S
C1400 C1399 1.387 . S
H1401 C1413 0.930 . S
H1402 C1415 0.930 . S
H1403 C1416 0.930 . S
H1404 C1420 0.959 . S
H1405 C1420 0.959 . S
H1406 C1420 0.961 . S
H1407 C1421 0.960 . S
H1408 C1421 0.961 . S
H1409 C1421 0.959 . S
H1410 C1424 0.929 . S
H1411 C1425 0.931 . S
H1412 C1427 0.930 . S
C1413 H1401 0.930 . S
C1413 C1414 1.399 . S
C1413 C1418 1.399 . S
C1414 C1413 1.399 . S
C1414 C1415 1.376 . S
C1415 H1402 0.930 . S
C1415 C1414 1.376 . S
C1415 C1416 1.388 . S
C1416 H1403 0.930 . S
C1416 C1415 1.388 . S
C1416 C1417 1.390 . S
C1417 C1416 1.390 . S
C1417 C1418 1.394 . S
C1417 C1423 1.465 . S
C1418 C1413 1.399 . S
C1418 C1417 1.394 . S
C1418 C1419 1.516 . S
C1419 C1418 1.516 . S
C1419 C1420 1.502 . S
C1419 C1421 1.561 . S
C1419 C1422 1.526 . S
C1420 H1404 0.959 . S
C1420 H1405 0.959 . S
C1420 H1406 0.961 . S
C1420 C1419 1.502 . S
C1421 H1407 0.960 . S
C1421 H1408 0.961 . S
C1421 H1409 0.959 . S
C1421 C1419 1.561 . S
C1422 C1419 1.526 . S
C1422 C1423 1.396 . S
C1422 C1427 1.390 . S
C1423 C1417 1.465 . S
C1423 C1422 1.396 . S
C1423 C1424 1.399 . S
C1424 H1410 0.929 . S
C1424 C1423 1.399 . S
C1424 C1425 1.385 . S
C1425 H1411 0.931 . S
C1425 C1424 1.385 . S
C1425 C1426 1.389 . S
C1426 C1425 1.389 . S
C1426 C1427 1.387 . S
C1427 H1412 0.930 . S
C1427 C1422 1.390 . S
C1427 C1426 1.387 . S
H1428 C1440 0.930 . S
H1429 C1442 0.930 . S
H1430 C1443 0.930 . S
H1431 C1447 0.959 . S
H1432 C1447 0.959 . S
H1433 C1447 0.961 . S
H1434 C1448 0.960 . S
H1435 C1448 0.961 . S
H1436 C1448 0.959 . S
H1437 C1451 0.929 . S
H1438 C1452 0.931 . S
H1439 C1454 0.930 . S
C1440 H1428 0.930 . S
C1440 C1441 1.399 . S
C1440 C1445 1.399 . S
C1441 C1440 1.399 . S
C1441 C1442 1.376 . S
C1442 H1429 0.930 . S
C1442 C1441 1.376 . S
C1442 C1443 1.388 . S
C1443 H1430 0.930 . S
C1443 C1442 1.388 . S
C1443 C1444 1.390 . S
C1444 C1443 1.390 . S
C1444 C1445 1.394 . S
C1444 C1450 1.465 . S
C1445 C1440 1.399 . S
C1445 C1444 1.394 . S
C1445 C1446 1.516 . S
C1446 C1445 1.516 . S
C1446 C1447 1.502 . S
C1446 C1448 1.561 . S
C1446 C1449 1.526 . S
C1447 H1431 0.959 . S
C1447 H1432 0.959 . S
C1447 H1433 0.961 . S
C1447 C1446 1.502 . S
C1448 H1434 0.960 . S
C1448 H1435 0.961 . S
C1448 H1436 0.959 . S
C1448 C1446 1.561 . S
C1449 C1446 1.526 . S
C1449 C1450 1.396 . S
C1449 C1454 1.390 . S
C1450 C1444 1.465 . S
C1450 C1449 1.396 . S
C1450 C1451 1.399 . S
C1451 H1437 0.929 . S
C1451 C1450 1.399 . S
C1451 C1452 1.385 . S
C1452 H1438 0.931 . S
C1452 C1451 1.385 . S
C1452 C1453 1.389 . S
C1453 C1452 1.389 . S
C1453 C1454 1.387 . S
C1454 H1439 0.930 . S
C1454 C1449 1.390 . S
C1454 C1453 1.387 . S
H1455 C1467 0.930 . S
H1456 C1469 0.930 . S
H1457 C1470 0.930 . S
H1458 C1474 0.959 . S
H1459 C1474 0.959 . S
H1460 C1474 0.961 . S
H1461 C1475 0.960 . S
H1462 C1475 0.961 . S
H1463 C1475 0.959 . S
H1464 C1478 0.929 . S
H1465 C1479 0.931 . S
H1466 C1481 0.930 . S
C1467 H1455 0.930 . S
C1467 C1468 1.399 . S
C1467 C1472 1.399 . S
C1468 C1467 1.399 . S
C1468 C1469 1.376 . S
C1469 H1456 0.930 . S
C1469 C1468 1.376 . S
C1469 C1470 1.388 . S
C1470 H1457 0.930 . S
C1470 C1469 1.388 . S
C1470 C1471 1.390 . S
C1471 C1470 1.390 . S
C1471 C1472 1.394 . S
C1471 C1477 1.465 . S
C1472 C1467 1.399 . S
C1472 C1471 1.394 . S
C1472 C1473 1.516 . S
C1473 C1472 1.516 . S
C1473 C1474 1.502 . S
C1473 C1475 1.561 . S
C1473 C1476 1.526 . S
C1474 H1458 0.959 . S
C1474 H1459 0.959 . S
C1474 H1460 0.961 . S
C1474 C1473 1.502 . S
C1475 H1461 0.960 . S
C1475 H1462 0.961 . S
C1475 H1463 0.959 . S
C1475 C1473 1.561 . S
C1476 C1473 1.526 . S
C1476 C1477 1.396 . S
C1476 C1481 1.390 . S
C1477 C1471 1.465 . S
C1477 C1476 1.396 . S
C1477 C1478 1.399 . S
C1478 H1464 0.929 . S
C1478 C1477 1.399 . S
C1478 C1479 1.385 . S
C1479 H1465 0.931 . S
C1479 C1478 1.385 . S
C1479 C1480 1.389 . S
C1480 C1479 1.389 . S
C1480 C1481 1.387 . S
C1481 H1466 0.930 . S
C1481 C1476 1.390 . S
C1481 C1480 1.387 . S
H1482 C1494 0.930 . S
H1483 C1496 0.930 . S
H1484 C1497 0.930 . S
H1485 C1501 0.959 . S
H1486 C1501 0.959 . S
H1487 C1501 0.961 . S
H1488 C1502 0.960 . S
H1489 C1502 0.961 . S
H1490 C1502 0.959 . S
H1491 C1505 0.929 . S
H1492 C1506 0.931 . S
H1493 C1508 0.930 . S
C1494 H1482 0.930 . S
C1494 C1495 1.399 . S
C1494 C1499 1.399 . S
C1495 C1494 1.399 . S
C1495 C1496 1.376 . S
C1496 H1483 0.930 . S
C1496 C1495 1.376 . S
C1496 C1497 1.388 . S
C1497 H1484 0.930 . S
C1497 C1496 1.388 . S
C1497 C1498 1.390 . S
C1498 C1497 1.390 . S
C1498 C1499 1.394 . S
C1498 C1504 1.465 . S
C1499 C1494 1.399 . S
C1499 C1498 1.394 . S
C1499 C1500 1.516 . S
C1500 C1499 1.516 . S
C1500 C1501 1.502 . S
C1500 C1502 1.561 . S
C1500 C1503 1.526 . S
C1501 H1485 0.959 . S
C1501 H1486 0.959 . S
C1501 H1487 0.961 . S
C1501 C1500 1.502 . S
C1502 H1488 0.960 . S
C1502 H1489 0.961 . S
C1502 H1490 0.959 . S
C1502 C1500 1.561 . S
C1503 C1500 1.526 . S
C1503 C1504 1.396 . S
C1503 C1508 1.390 . S
C1504 C1498 1.465 . S
C1504 C1503 1.396 . S
C1504 C1505 1.399 . S
C1505 H1491 0.929 . S
C1505 C1504 1.399 . S
C1505 C1506 1.385 . S
C1506 H1492 0.931 . S
C1506 C1505 1.385 . S
C1506 C1507 1.389 . S
C1507 C1506 1.389 . S
C1507 C1508 1.387 . S
C1508 H1493 0.930 . S
C1508 C1503 1.390 . S
C1508 C1507 1.387 . S
H1509 C1521 0.930 . S
H1510 C1523 0.930 . S
H1511 C1524 0.930 . S
H1512 C1528 0.959 . S
H1513 C1528 0.959 . S
H1514 C1528 0.961 . S
H1515 C1529 0.960 . S
H1516 C1529 0.961 . S
H1517 C1529 0.959 . S
H1518 C1532 0.929 . S
H1519 C1533 0.931 . S
H1520 C1535 0.930 . S
C1521 H1509 0.930 . S
C1521 C1522 1.399 . S
C1521 C1526 1.399 . S
C1522 C1521 1.399 . S
C1522 C1523 1.376 . S
C1523 H1510 0.930 . S
C1523 C1522 1.376 . S
C1523 C1524 1.388 . S
C1524 H1511 0.930 . S
C1524 C1523 1.388 . S
C1524 C1525 1.390 . S
C1525 C1524 1.390 . S
C1525 C1526 1.394 . S
C1525 C1531 1.465 . S
C1526 C1521 1.399 . S
C1526 C1525 1.394 . S
C1526 C1527 1.516 . S
C1527 C1526 1.516 . S
C1527 C1528 1.502 . S
C1527 C1529 1.561 . S
C1527 C1530 1.526 . S
C1528 H1512 0.959 . S
C1528 H1513 0.959 . S
C1528 H1514 0.961 . S
C1528 C1527 1.502 . S
C1529 H1515 0.960 . S
C1529 H1516 0.961 . S
C1529 H1517 0.959 . S
C1529 C1527 1.561 . S
C1530 C1527 1.526 . S
C1530 C1531 1.396 . S
C1530 C1535 1.390 1_455 S
C1531 C1525 1.465 . S
C1531 C1530 1.396 . S
C1531 C1532 1.399 . S
C1532 H1518 0.929 . S
C1532 C1531 1.399 . S
C1532 C1533 1.385 1_455 S
C1533 H1519 0.931 . S
C1533 C1532 1.385 1_655 S
C1533 C1534 1.389 . S
C1534 C1533 1.389 . S
C1534 C1535 1.387 . S
C1535 H1520 0.930 . S
C1535 C1530 1.390 1_655 S
C1535 C1534 1.387 . S
H1536 C1548 0.930 . S
H1537 C1550 0.930 . S
H1538 C1551 0.930 . S
H1539 C1555 0.959 . S
H1540 C1555 0.959 . S
H1541 C1555 0.961 . S
H1542 C1556 0.960 . S
H1543 C1556 0.961 . S
H1544 C1556 0.959 . S
H1545 C1559 0.929 . S
H1546 C1560 0.931 . S
H1547 C1562 0.930 . S
C1548 H1536 0.930 . S
C1548 C1549 1.399 . S
C1548 C1553 1.399 . S
C1549 C1548 1.399 . S
C1549 C1550 1.376 . S
C1550 H1537 0.930 . S
C1550 C1549 1.376 . S
C1550 C1551 1.388 . S
C1551 H1538 0.930 . S
C1551 C1550 1.388 . S
C1551 C1552 1.390 . S
C1552 C1551 1.390 . S
C1552 C1553 1.394 . S
C1552 C1558 1.465 . S
C1553 C1548 1.399 . S
C1553 C1552 1.394 . S
C1553 C1554 1.516 . S
C1554 C1553 1.516 . S
C1554 C1555 1.502 . S
C1554 C1556 1.561 . S
C1554 C1557 1.526 . S
C1555 H1539 0.959 . S
C1555 H1540 0.959 . S
C1555 H1541 0.961 . S
C1555 C1554 1.502 . S
C1556 H1542 0.960 . S
C1556 H1543 0.961 . S
C1556 H1544 0.959 . S
C1556 C1554 1.561 . S
C1557 C1554 1.526 . S
C1557 C1558 1.396 . S
C1557 C1562 1.390 . S
C1558 C1552 1.465 . S
C1558 C1557 1.396 . S
C1558 C1559 1.399 . S
C1559 H1545 0.929 . S
C1559 C1558 1.399 . S
C1559 C1560 1.385 . S
C1560 H1546 0.931 . S
C1560 C1559 1.385 . S
C1560 C1561 1.389 . S
C1561 C1560 1.389 . S
C1561 C1562 1.387 . S
C1562 H1547 0.930 . S
C1562 C1557 1.390 . S
C1562 C1561 1.387 . S
H1563 C1575 0.930 . S
H1564 C1577 0.930 . S
H1565 C1578 0.930 . S
H1566 C1582 0.959 . S
H1567 C1582 0.959 . S
H1568 C1582 0.961 . S
H1569 C1583 0.960 . S
H1570 C1583 0.961 . S
H1571 C1583 0.959 . S
H1572 C1586 0.929 . S
H1573 C1587 0.931 . S
H1574 C1589 0.930 . S
C1575 H1563 0.930 . S
C1575 C1576 1.399 . S
C1575 C1580 1.399 . S
C1576 C1575 1.399 . S
C1576 C1577 1.376 . S
C1577 H1564 0.930 . S
C1577 C1576 1.376 . S
C1577 C1578 1.388 . S
C1578 H1565 0.930 . S
C1578 C1577 1.388 . S
C1578 C1579 1.390 . S
C1579 C1578 1.390 . S
C1579 C1580 1.394 . S
C1579 C1585 1.465 . S
C1580 C1575 1.399 . S
C1580 C1579 1.394 . S
C1580 C1581 1.516 . S
C1581 C1580 1.516 . S
C1581 C1582 1.502 . S
C1581 C1583 1.561 . S
C1581 C1584 1.526 . S
C1582 H1566 0.959 . S
C1582 H1567 0.959 . S
C1582 H1568 0.961 . S
C1582 C1581 1.502 . S
C1583 H1569 0.960 . S
C1583 H1570 0.961 . S
C1583 H1571 0.959 . S
C1583 C1581 1.561 . S
C1584 C1581 1.526 . S
C1584 C1585 1.396 . S
C1584 C1589 1.390 . S
C1585 C1579 1.465 . S
C1585 C1584 1.396 . S
C1585 C1586 1.399 . S
C1586 H1572 0.929 . S
C1586 C1585 1.399 . S
C1586 C1587 1.385 . S
C1587 H1573 0.931 . S
C1587 C1586 1.385 . S
C1587 C1588 1.389 . S
C1588 C1587 1.389 . S
C1588 C1589 1.387 . S
C1589 H1574 0.930 . S
C1589 C1584 1.390 . S
C1589 C1588 1.387 . S
H1590 C1602 0.930 . S
H1591 C1604 0.930 . S
H1592 C1605 0.930 . S
H1593 C1609 0.959 . S
H1594 C1609 0.959 . S
H1595 C1609 0.961 . S
H1596 C1610 0.960 . S
H1597 C1610 0.961 . S
H1598 C1610 0.959 . S
H1599 C1613 0.929 . S
H1600 C1614 0.931 . S
H1601 C1616 0.930 . S
C1602 H1590 0.930 . S
C1602 C1603 1.399 . S
C1602 C1607 1.399 . S
C1603 C1602 1.399 . S
C1603 C1604 1.376 . S
C1604 H1591 0.930 . S
C1604 C1603 1.376 . S
C1604 C1605 1.388 . S
C1605 H1592 0.930 . S
C1605 C1604 1.388 . S
C1605 C1606 1.390 . S
C1606 C1605 1.390 . S
C1606 C1607 1.394 . S
C1606 C1612 1.465 . S
C1607 C1602 1.399 . S
C1607 C1606 1.394 . S
C1607 C1608 1.516 . S
C1608 C1607 1.516 . S
C1608 C1609 1.502 . S
C1608 C1610 1.561 . S
C1608 C1611 1.526 . S
C1609 H1593 0.959 . S
C1609 H1594 0.959 . S
C1609 H1595 0.961 . S
C1609 C1608 1.502 . S
C1610 H1596 0.960 . S
C1610 H1597 0.961 . S
C1610 H1598 0.959 . S
C1610 C1608 1.561 . S
C1611 C1608 1.526 . S
C1611 C1612 1.396 . S
C1611 C1616 1.390 . S
C1612 C1606 1.465 . S
C1612 C1611 1.396 . S
C1612 C1613 1.399 . S
C1613 H1599 0.929 . S
C1613 C1612 1.399 . S
C1613 C1614 1.385 . S
C1614 H1600 0.931 . S
C1614 C1613 1.385 . S
C1614 C1615 1.389 . S
C1615 C1614 1.389 . S
C1615 C1616 1.387 . S
C1616 H1601 0.930 . S
C1616 C1611 1.390 . S
C1616 C1615 1.387 . S
H1617 C1629 0.930 . S
H1618 C1631 0.930 . S
H1619 C1632 0.930 . S
H1620 C1636 0.959 . S
H1621 C1636 0.959 1_554 S
H1622 C1636 0.961 . S
H1623 C1637 0.960 . S
H1624 C1637 0.960 1_554 S
H1625 C1637 0.959 . S
H1626 C1640 0.929 . S
H1627 C1641 0.931 . S
H1628 C1643 0.930 . S
C1629 H1617 0.930 . S
C1629 C1630 1.399 . S
C1629 C1634 1.399 . S
C1630 C1629 1.399 . S
C1630 C1631 1.376 . S
C1631 H1618 0.930 . S
C1631 C1630 1.376 . S
C1631 C1632 1.388 . S
C1632 H1619 0.930 . S
C1632 C1631 1.388 . S
C1632 C1633 1.390 . S
C1633 C1632 1.390 . S
C1633 C1634 1.394 . S
C1633 C1639 1.465 1_556 S
C1634 C1629 1.399 . S
C1634 C1633 1.394 . S
C1634 C1635 1.516 . S
C1635 C1634 1.516 . S
C1635 C1636 1.502 . S
C1635 C1637 1.561 . S
C1635 C1638 1.526 1_556 S
C1636 H1620 0.959 . S
C1636 H1621 0.959 1_556 S
C1636 H1622 0.961 . S
C1636 C1635 1.502 . S
C1637 H1623 0.960 . S
C1637 H1624 0.960 1_556 S
C1637 H1625 0.959 . S
C1637 C1635 1.561 . S
C1638 C1635 1.526 1_554 S
C1638 C1639 1.396 . S
C1638 C1643 1.390 . S
C1639 C1633 1.465 1_554 S
C1639 C1638 1.396 . S
C1639 C1640 1.399 . S
C1640 H1626 0.929 . S
C1640 C1639 1.399 . S
C1640 C1641 1.385 . S
C1641 H1627 0.931 . S
C1641 C1640 1.385 . S
C1641 C1642 1.389 . S
C1642 C1641 1.389 . S
C1642 C1643 1.387 . S
C1643 H1628 0.930 . S
C1643 C1638 1.390 . S
C1643 C1642 1.387 . S
H1644 C1656 0.930 . S
H1645 C1658 0.930 . S
H1646 C1659 0.930 . S
H1647 C1663 0.959 . S
H1648 C1663 0.959 . S
H1649 C1663 0.961 . S
H1650 C1664 0.960 . S
H1651 C1664 0.961 . S
H1652 C1664 0.959 . S
H1653 C1667 0.929 . S
H1654 C1668 0.931 . S
H1655 C1670 0.930 . S
C1656 H1644 0.930 . S
C1656 C1657 1.399 . S
C1656 C1661 1.399 . S
C1657 C1656 1.399 . S
C1657 C1658 1.376 . S
C1658 H1645 0.930 . S
C1658 C1657 1.376 . S
C1658 C1659 1.388 . S
C1659 H1646 0.930 . S
C1659 C1658 1.388 . S
C1659 C1660 1.390 . S
C1660 C1659 1.390 . S
C1660 C1661 1.394 . S
C1660 C1666 1.465 . S
C1661 C1656 1.399 . S
C1661 C1660 1.394 . S
C1661 C1662 1.516 . S
C1662 C1661 1.516 . S
C1662 C1663 1.502 . S
C1662 C1664 1.561 . S
C1662 C1665 1.526 . S
C1663 H1647 0.959 . S
C1663 H1648 0.959 . S
C1663 H1649 0.961 . S
C1663 C1662 1.502 . S
C1664 H1650 0.960 . S
C1664 H1651 0.961 . S
C1664 H1652 0.959 . S
C1664 C1662 1.561 . S
C1665 C1662 1.526 . S
C1665 C1666 1.396 . S
C1665 C1670 1.390 . S
C1666 C1660 1.465 . S
C1666 C1665 1.396 . S
C1666 C1667 1.399 . S
C1667 H1653 0.929 . S
C1667 C1666 1.399 . S
C1667 C1668 1.385 . S
C1668 H1654 0.931 . S
C1668 C1667 1.385 . S
C1668 C1669 1.389 . S
C1669 C1668 1.389 . S
C1669 C1670 1.387 . S
C1670 H1655 0.930 . S
C1670 C1665 1.390 . S
C1670 C1669 1.387 . S
H1671 C1683 0.930 . S
H1672 C1685 0.930 . S
H1673 C1686 0.930 . S
H1674 C1690 0.959 . S
H1675 C1690 0.959 . S
H1676 C1690 0.961 . S
H1677 C1691 0.960 . S
H1678 C1691 0.961 . S
H1679 C1691 0.959 . S
H1680 C1694 0.929 . S
H1681 C1695 0.931 . S
H1682 C1697 0.930 . S
C1683 H1671 0.930 . S
C1683 C1684 1.399 . S
C1683 C1688 1.399 . S
C1684 C1683 1.399 . S
C1684 C1685 1.376 . S
C1685 H1672 0.930 . S
C1685 C1684 1.376 . S
C1685 C1686 1.388 . S
C1686 H1673 0.930 . S
C1686 C1685 1.388 . S
C1686 C1687 1.390 . S
C1687 C1686 1.390 . S
C1687 C1688 1.394 . S
C1687 C1693 1.465 . S
C1688 C1683 1.399 . S
C1688 C1687 1.394 . S
C1688 C1689 1.516 . S
C1689 C1688 1.516 . S
C1689 C1690 1.502 . S
C1689 C1691 1.561 . S
C1689 C1692 1.526 . S
C1690 H1674 0.959 . S
C1690 H1675 0.959 . S
C1690 H1676 0.961 . S
C1690 C1689 1.502 . S
C1691 H1677 0.960 . S
C1691 H1678 0.961 . S
C1691 H1679 0.959 . S
C1691 C1689 1.561 . S
C1692 C1689 1.526 . S
C1692 C1693 1.396 . S
C1692 C1697 1.390 . S
C1693 C1687 1.465 . S
C1693 C1692 1.396 . S
C1693 C1694 1.399 . S
C1694 H1680 0.929 . S
C1694 C1693 1.399 . S
C1694 C1695 1.385 . S
C1695 H1681 0.931 . S
C1695 C1694 1.385 . S
C1695 C1696 1.389 . S
C1696 C1695 1.389 . S
C1696 C1697 1.387 . S
C1697 H1682 0.930 . S
C1697 C1692 1.390 . S
C1697 C1696 1.387 . S
H1698 C1710 0.930 . S
H1699 C1712 0.930 . S
H1700 C1713 0.930 . S
H1701 C1717 0.959 . S
H1702 C1717 0.959 . S
H1703 C1717 0.961 . S
H1704 C1718 0.960 . S
H1705 C1718 0.961 . S
H1706 C1718 0.959 . S
H1707 C1721 0.929 . S
H1708 C1722 0.931 . S
H1709 C1724 0.930 . S
C1710 H1698 0.930 . S
C1710 C1711 1.399 . S
C1710 C1715 1.399 . S
C1711 C1710 1.399 . S
C1711 C1712 1.376 . S
C1712 H1699 0.930 . S
C1712 C1711 1.376 . S
C1712 C1713 1.388 . S
C1713 H1700 0.930 . S
C1713 C1712 1.388 . S
C1713 C1714 1.390 . S
C1714 C1713 1.390 . S
C1714 C1715 1.394 . S
C1714 C1720 1.465 . S
C1715 C1710 1.399 . S
C1715 C1714 1.394 . S
C1715 C1716 1.516 . S
C1716 C1715 1.516 . S
C1716 C1717 1.502 . S
C1716 C1718 1.561 . S
C1716 C1719 1.526 . S
C1717 H1701 0.959 . S
C1717 H1702 0.959 . S
C1717 H1703 0.961 . S
C1717 C1716 1.502 . S
C1718 H1704 0.960 . S
C1718 H1705 0.961 . S
C1718 H1706 0.959 . S
C1718 C1716 1.561 . S
C1719 C1716 1.526 . S
C1719 C1720 1.396 . S
C1719 C1724 1.390 . S
C1720 C1714 1.465 . S
C1720 C1719 1.396 . S
C1720 C1721 1.399 . S
C1721 H1707 0.929 . S
C1721 C1720 1.399 . S
C1721 C1722 1.385 . S
C1722 H1708 0.931 . S
C1722 C1721 1.385 . S
C1722 C1723 1.389 . S
C1723 C1722 1.389 . S
C1723 C1724 1.387 . S
C1724 H1709 0.930 . S
C1724 C1719 1.390 . S
C1724 C1723 1.387 . S
H1725 C1737 0.930 . S
H1726 C1739 0.930 . S
H1727 C1740 0.930 . S
H1728 C1744 0.959 . S
H1729 C1744 0.959 . S
H1730 C1744 0.976 . S
H1731 C1745 0.960 . S
H1732 C1745 0.961 . S
H1733 C1745 0.959 . S
H1734 C1748 0.929 . S
H1735 C1749 0.931 . S
H1736 C1751 0.930 . S
C1737 H1725 0.930 . S
C1737 C1738 1.399 . S
C1737 C1742 1.399 . S
C1738 C1737 1.399 . S
C1738 C1739 1.376 . S
C1739 H1726 0.930 . S
C1739 C1738 1.376 . S
C1739 C1740 1.388 . S
C1740 H1727 0.930 . S
C1740 C1739 1.388 . S
C1740 C1741 1.390 . S
C1741 C1740 1.390 . S
C1741 C1742 1.394 . S
C1741 C1747 1.465 1_556 S
C1742 C1737 1.399 . S
C1742 C1741 1.394 . S
C1742 C1743 1.516 1_556 S
C1743 C1742 1.516 1_554 S
C1743 C1744 1.502 . S
C1743 C1745 1.561 . S
C1743 C1746 1.526 . S
C1744 H1728 0.959 . S
C1744 H1729 0.959 . S
C1744 H1730 0.976 . S
C1744 C1743 1.502 . S
C1745 H1731 0.960 . S
C1745 H1732 0.961 . S
C1745 H1733 0.959 . S
C1745 C1743 1.561 . S
C1746 C1743 1.526 . S
C1746 C1747 1.396 . S
C1746 C1751 1.390 . S
C1747 C1741 1.465 1_554 S
C1747 C1746 1.396 . S
C1747 C1748 1.399 . S
C1748 H1734 0.929 . S
C1748 C1747 1.399 . S
C1748 C1749 1.385 . S
C1749 H1735 0.931 . S
C1749 C1748 1.385 . S
C1749 C1750 1.389 . S
C1750 C1749 1.389 . S
C1750 C1751 1.387 . S
C1751 H1736 0.930 . S
C1751 C1746 1.390 . S
C1751 C1750 1.387 . S
H1752 C1764 0.930 . S
H1753 C1766 0.930 . S
H1754 C1767 0.930 . S
H1755 C1771 0.959 . S
H1756 C1771 0.959 . S
H1757 C1771 0.961 . S
H1758 C1772 0.960 . S
H1759 C1772 0.961 . S
H1760 C1772 0.959 . S
H1761 C1775 0.929 . S
H1762 C1776 0.931 . S
H1763 C1778 0.930 . S
C1764 H1752 0.930 . S
C1764 C1765 1.399 . S
C1764 C1769 1.399 . S
C1765 C1764 1.399 . S
C1765 C1766 1.376 . S
C1766 H1753 0.930 . S
C1766 C1765 1.376 . S
C1766 C1767 1.388 . S
C1767 H1754 0.930 . S
C1767 C1766 1.388 . S
C1767 C1768 1.390 . S
C1768 C1767 1.390 . S
C1768 C1769 1.394 . S
C1768 C1774 1.465 . S
C1769 C1764 1.399 . S
C1769 C1768 1.394 . S
C1769 C1770 1.516 . S
C1770 C1769 1.516 . S
C1770 C1771 1.502 . S
C1770 C1772 1.561 . S
C1770 C1773 1.526 . S
C1771 H1755 0.959 . S
C1771 H1756 0.959 . S
C1771 H1757 0.961 . S
C1771 C1770 1.502 . S
C1772 H1758 0.960 . S
C1772 H1759 0.961 . S
C1772 H1760 0.959 . S
C1772 C1770 1.561 . S
C1773 C1770 1.526 . S
C1773 C1774 1.396 . S
C1773 C1778 1.390 . S
C1774 C1768 1.465 . S
C1774 C1773 1.396 . S
C1774 C1775 1.399 . S
C1775 H1761 0.929 . S
C1775 C1774 1.399 . S
C1775 C1776 1.385 . S
C1776 H1762 0.931 . S
C1776 C1775 1.385 . S
C1776 C1777 1.389 . S
C1777 C1776 1.389 . S
C1777 C1778 1.387 . S
C1778 H1763 0.930 . S
C1778 C1773 1.390 . S
C1778 C1777 1.387 . S
H1779 C1791 0.930 . S
H1780 C1793 0.930 . S
H1781 C1794 0.930 . S
H1782 C1798 0.959 . S
H1783 C1798 0.959 . S
H1784 C1798 0.961 . S
H1785 C1799 0.960 . S
H1786 C1799 0.961 . S
H1787 C1799 0.959 . S
H1788 C1802 0.929 . S
H1789 C1803 0.931 . S
H1790 C1805 0.930 . S
C1791 H1779 0.930 . S
C1791 C1792 1.399 . S
C1791 C1796 1.399 . S
C1792 C1791 1.399 . S
C1792 C1793 1.376 . S
C1793 H1780 0.930 . S
C1793 C1792 1.376 . S
C1793 C1794 1.388 . S
C1794 H1781 0.930 . S
C1794 C1793 1.388 . S
C1794 C1795 1.390 . S
C1795 C1794 1.390 . S
C1795 C1796 1.394 . S
C1795 C1801 1.465 . S
C1796 C1791 1.399 . S
C1796 C1795 1.394 . S
C1796 C1797 1.516 . S
C1797 C1796 1.516 . S
C1797 C1798 1.502 . S
C1797 C1799 1.561 . S
C1797 C1800 1.526 . S
C1798 H1782 0.959 . S
C1798 H1783 0.959 . S
C1798 H1784 0.961 . S
C1798 C1797 1.502 . S
C1799 H1785 0.960 . S
C1799 H1786 0.961 . S
C1799 H1787 0.959 . S
C1799 C1797 1.561 . S
C1800 C1797 1.526 . S
C1800 C1801 1.396 . S
C1800 C1805 1.390 . S
C1801 C1795 1.465 . S
C1801 C1800 1.396 . S
C1801 C1802 1.399 . S
C1802 H1788 0.929 . S
C1802 C1801 1.399 . S
C1802 C1803 1.385 . S
C1803 H1789 0.931 . S
C1803 C1802 1.385 . S
C1803 C1804 1.389 . S
C1804 C1803 1.389 . S
C1804 C1805 1.387 . S
C1805 H1790 0.930 . S
C1805 C1800 1.390 . S
C1805 C1804 1.387 . S
H1806 C1818 0.930 . S
H1807 C1820 0.930 . S
H1808 C1821 0.930 . S
H1809 C1825 0.959 . S
H1810 C1825 0.959 . S
H1811 C1825 0.961 . S
H1812 C1826 0.960 . S
H1813 C1826 0.961 . S
H1814 C1826 0.959 . S
H1815 C1829 0.929 . S
H1816 C1830 0.931 . S
H1817 C1832 0.930 . S
C1818 H1806 0.930 . S
C1818 C1819 1.399 . S
C1818 C1823 1.399 . S
C1819 C1818 1.399 . S
C1819 C1820 1.376 . S
C1820 H1807 0.930 . S
C1820 C1819 1.376 . S
C1820 C1821 1.388 . S
C1821 H1808 0.930 . S
C1821 C1820 1.388 . S
C1821 C1822 1.390 . S
C1822 C1821 1.390 . S
C1822 C1823 1.394 . S
C1822 C1828 1.465 . S
C1823 C1818 1.399 . S
C1823 C1822 1.394 . S
C1823 C1824 1.516 . S
C1824 C1823 1.516 . S
C1824 C1825 1.502 . S
C1824 C1826 1.561 . S
C1824 C1827 1.526 . S
C1825 H1809 0.959 . S
C1825 H1810 0.959 . S
C1825 H1811 0.961 . S
C1825 C1824 1.502 . S
C1826 H1812 0.960 . S
C1826 H1813 0.961 . S
C1826 H1814 0.959 . S
C1826 C1824 1.561 . S
C1827 C1824 1.526 . S
C1827 C1828 1.396 . S
C1827 C1832 1.390 . S
C1828 C1822 1.465 . S
C1828 C1827 1.396 . S
C1828 C1829 1.399 . S
C1829 H1815 0.929 . S
C1829 C1828 1.399 . S
C1829 C1830 1.385 . S
C1830 H1816 0.931 . S
C1830 C1829 1.385 . S
C1830 C1831 1.389 . S
C1831 C1830 1.389 . S
C1831 C1832 1.387 . S
C1832 H1817 0.930 . S
C1832 C1827 1.390 . S
C1832 C1831 1.387 . S
H1833 C1845 0.930 . S
H1834 C1847 0.930 . S
H1835 C1848 0.930 . S
H1836 C1852 0.959 . S
H1837 C1852 0.959 . S
H1838 C1852 0.961 . S
H1839 C1853 0.960 . S
H1840 C1853 0.961 . S
H1841 C1853 0.959 . S
H1842 C1856 0.929 . S
H1843 C1857 0.931 . S
H1844 C1859 0.930 . S
C1845 H1833 0.930 . S
C1845 C1846 1.399 . S
C1845 C1850 1.399 . S
C1846 C1845 1.399 . S
C1846 C1847 1.376 . S
C1847 H1834 0.930 . S
C1847 C1846 1.376 . S
C1847 C1848 1.388 . S
C1848 H1835 0.930 . S
C1848 C1847 1.388 . S
C1848 C1849 1.390 . S
C1849 C1848 1.390 . S
C1849 C1850 1.394 . S
C1849 C1855 1.465 . S
C1850 C1845 1.399 . S
C1850 C1849 1.394 . S
C1850 C1851 1.516 . S
C1851 C1850 1.516 . S
C1851 C1852 1.502 . S
C1851 C1853 1.561 . S
C1851 C1854 1.526 . S
C1852 H1836 0.959 . S
C1852 H1837 0.959 . S
C1852 H1838 0.961 . S
C1852 C1851 1.502 . S
C1853 H1839 0.960 . S
C1853 H1840 0.961 . S
C1853 H1841 0.959 . S
C1853 C1851 1.561 . S
C1854 C1851 1.526 . S
C1854 C1855 1.396 . S
C1854 C1859 1.390 . S
C1855 C1849 1.465 . S
C1855 C1854 1.396 . S
C1855 C1856 1.399 . S
C1856 H1842 0.929 . S
C1856 C1855 1.399 . S
C1856 C1857 1.385 . S
C1857 H1843 0.931 . S
C1857 C1856 1.385 . S
C1857 C1858 1.389 . S
C1858 C1857 1.389 . S
C1858 C1859 1.387 . S
C1859 H1844 0.930 . S
C1859 C1854 1.390 . S
C1859 C1858 1.387 . S
H1860 C1872 0.930 1_565 S
H1861 C1874 0.930 . S
H1862 C1875 0.930 . S
H1863 C1879 0.959 . S
H1864 C1879 0.959 . S
H1865 C1879 0.961 . S
H1866 C1880 0.960 . S
H1867 C1880 0.961 . S
H1868 C1880 0.959 . S
H1869 C1883 0.929 . S
H1870 C1884 0.931 . S
H1871 C1886 0.930 . S
C1872 H1860 0.930 1_545 S
C1872 C1873 1.399 1_545 S
C1872 C1877 1.399 . S
C1873 C1872 1.399 1_565 S
C1873 C1874 1.376 . S
C1874 H1861 0.930 . S
C1874 C1873 1.376 . S
C1874 C1875 1.388 1_565 S
C1875 H1862 0.930 . S
C1875 C1874 1.388 1_545 S
C1875 C1876 1.390 . S
C1876 C1875 1.390 . S
C1876 C1877 1.394 . S
C1876 C1882 1.465 . S
C1877 C1872 1.399 . S
C1877 C1876 1.394 . S
C1877 C1878 1.516 . S
C1878 C1877 1.516 . S
C1878 C1879 1.502 . S
C1878 C1880 1.561 . S
C1878 C1881 1.526 . S
C1879 H1863 0.959 . S
C1879 H1864 0.959 . S
C1879 H1865 0.961 . S
C1879 C1878 1.502 . S
C1880 H1866 0.960 . S
C1880 H1867 0.961 . S
C1880 H1868 0.959 . S
C1880 C1878 1.561 . S
C1881 C1878 1.526 . S
C1881 C1882 1.396 . S
C1881 C1886 1.390 . S
C1882 C1876 1.465 . S
C1882 C1881 1.396 . S
C1882 C1883 1.399 . S
C1883 H1869 0.929 . S
C1883 C1882 1.399 . S
C1883 C1884 1.385 . S
C1884 H1870 0.931 . S
C1884 C1883 1.385 . S
C1884 C1885 1.389 . S
C1885 C1884 1.389 . S
C1885 C1886 1.387 . S
C1886 H1871 0.930 . S
C1886 C1881 1.390 . S
C1886 C1885 1.387 . S
H1887 C1899 0.930 . S
H1888 C1901 0.930 . S
H1889 C1902 0.930 . S
H1890 C1906 0.959 . S
H1891 C1906 0.959 . S
H1892 C1906 0.961 . S
H1893 C1907 0.960 . S
H1894 C1907 0.961 . S
H1895 C1907 0.959 . S
H1896 C1910 0.929 . S
H1897 C1911 0.931 . S
H1898 C1913 0.930 . S
C1899 H1887 0.930 . S
C1899 C1900 1.399 . S
C1899 C1904 1.399 . S
C1900 C1899 1.399 . S
C1900 C1901 1.376 . S
C1901 H1888 0.930 . S
C1901 C1900 1.376 . S
C1901 C1902 1.388 . S
C1902 H1889 0.930 . S
C1902 C1901 1.388 . S
C1902 C1903 1.390 . S
C1903 C1902 1.390 . S
C1903 C1904 1.394 . S
C1903 C1909 1.465 . S
C1904 C1899 1.399 . S
C1904 C1903 1.394 . S
C1904 C1905 1.516 . S
C1905 C1904 1.516 . S
C1905 C1906 1.502 . S
C1905 C1907 1.561 . S
C1905 C1908 1.526 . S
C1906 H1890 0.959 . S
C1906 H1891 0.959 . S
C1906 H1892 0.961 . S
C1906 C1905 1.502 . S
C1907 H1893 0.960 . S
C1907 H1894 0.961 . S
C1907 H1895 0.959 . S
C1907 C1905 1.561 . S
C1908 C1905 1.526 . S
C1908 C1909 1.396 . S
C1908 C1913 1.390 . S
C1909 C1903 1.465 . S
C1909 C1908 1.396 . S
C1909 C1910 1.399 . S
C1910 H1896 0.929 . S
C1910 C1909 1.399 . S
C1910 C1911 1.385 . S
C1911 H1897 0.931 . S
C1911 C1910 1.385 . S
C1911 C1912 1.389 . S
C1912 C1911 1.389 . S
C1912 C1913 1.387 . S
C1913 H1898 0.930 . S
C1913 C1908 1.390 . S
C1913 C1912 1.387 . S
H1914 C1926 0.930 . S
H1915 C1928 0.930 . S
H1916 C1929 0.930 . S
H1917 C1933 0.959 . S
H1918 C1933 0.959 . S
H1919 C1933 0.961 . S
H1920 C1934 0.960 . S
H1921 C1934 0.961 . S
H1922 C1934 0.959 . S
H1923 C1937 0.929 . S
H1924 C1938 0.931 . S
H1925 C1940 0.930 . S
C1926 H1914 0.930 . S
C1926 C1927 1.399 . S
C1926 C1931 1.399 . S
C1927 C1926 1.399 . S
C1927 C1928 1.376 . S
C1928 H1915 0.930 . S
C1928 C1927 1.376 . S
C1928 C1929 1.388 . S
C1929 H1916 0.930 . S
C1929 C1928 1.388 . S
C1929 C1930 1.390 . S
C1930 C1929 1.390 . S
C1930 C1931 1.394 . S
C1930 C1936 1.465 . S
C1931 C1926 1.399 . S
C1931 C1930 1.394 . S
C1931 C1932 1.516 . S
C1932 C1931 1.516 . S
C1932 C1933 1.502 . S
C1932 C1934 1.561 . S
C1932 C1935 1.526 . S
C1933 H1917 0.959 . S
C1933 H1918 0.959 . S
C1933 H1919 0.961 . S
C1933 C1932 1.502 . S
C1934 H1920 0.960 . S
C1934 H1921 0.961 . S
C1934 H1922 0.959 . S
C1934 C1932 1.561 . S
C1935 C1932 1.526 . S
C1935 C1936 1.396 . S
C1935 C1940 1.390 . S
C1936 C1930 1.465 . S
C1936 C1935 1.396 . S
C1936 C1937 1.399 . S
C1937 H1923 0.929 . S
C1937 C1936 1.399 . S
C1937 C1938 1.385 . S
C1938 H1924 0.931 . S
C1938 C1937 1.385 . S
C1938 C1939 1.389 . S
C1939 C1938 1.389 . S
C1939 C1940 1.387 . S
C1940 H1925 0.930 . S
C1940 C1935 1.390 . S
C1940 C1939 1.387 . S
H1941 C1953 0.930 . S
H1942 C1955 0.930 . S
H1943 C1956 0.930 . S
H1944 C1960 0.959 . S
H1945 C1960 0.959 . S
H1946 C1960 0.961 . S
H1947 C1961 0.960 . S
H1948 C1961 0.961 . S
H1949 C1961 0.959 . S
H1950 C1964 0.929 . S
H1951 C1965 0.931 . S
H1952 C1967 0.930 . S
C1953 H1941 0.930 . S
C1953 C1954 1.399 . S
C1953 C1958 1.399 . S
C1954 C1953 1.399 . S
C1954 C1955 1.376 . S
C1955 H1942 0.930 . S
C1955 C1954 1.376 . S
C1955 C1956 1.388 . S
C1956 H1943 0.930 . S
C1956 C1955 1.388 . S
C1956 C1957 1.390 . S
C1957 C1956 1.390 . S
C1957 C1958 1.394 . S
C1957 C1963 1.465 . S
C1958 C1953 1.399 . S
C1958 C1957 1.394 . S
C1958 C1959 1.516 . S
C1959 C1958 1.516 . S
C1959 C1960 1.502 . S
C1959 C1961 1.561 . S
C1959 C1962 1.526 . S
C1960 H1944 0.959 . S
C1960 H1945 0.959 . S
C1960 H1946 0.961 . S
C1960 C1959 1.502 . S
C1961 H1947 0.960 . S
C1961 H1948 0.961 . S
C1961 H1949 0.959 . S
C1961 C1959 1.561 . S
C1962 C1959 1.526 . S
C1962 C1963 1.396 . S
C1962 C1967 1.390 . S
C1963 C1957 1.465 . S
C1963 C1962 1.396 . S
C1963 C1964 1.399 . S
C1964 H1950 0.929 . S
C1964 C1963 1.399 . S
C1964 C1965 1.385 . S
C1965 H1951 0.931 . S
C1965 C1964 1.385 . S
C1965 C1966 1.389 . S
C1966 C1965 1.389 . S
C1966 C1967 1.387 . S
C1967 H1952 0.930 . S
C1967 C1962 1.390 . S
C1967 C1966 1.387 . S
H1968 C1980 0.930 . S
H1969 C1982 0.930 . S
H1970 C1983 0.930 . S
H1971 C1987 0.959 . S
H1972 C1987 0.959 . S
H1973 C1987 0.961 . S
H1974 C1988 0.960 . S
H1975 C1988 0.961 . S
H1976 C1988 0.959 . S
H1977 C1991 0.929 . S
H1978 C1992 0.931 . S
H1979 C1994 0.930 . S
C1980 H1968 0.930 . S
C1980 C1981 1.399 . S
C1980 C1985 1.399 . S
C1981 C1980 1.399 . S
C1981 C1982 1.376 . S
C1982 H1969 0.930 . S
C1982 C1981 1.376 . S
C1982 C1983 1.388 . S
C1983 H1970 0.930 . S
C1983 C1982 1.388 . S
C1983 C1984 1.390 . S
C1984 C1983 1.390 . S
C1984 C1985 1.394 . S
C1984 C1990 1.465 . S
C1985 C1980 1.399 . S
C1985 C1984 1.394 . S
C1985 C1986 1.516 . S
C1986 C1985 1.516 . S
C1986 C1987 1.502 . S
C1986 C1988 1.561 . S
C1986 C1989 1.526 . S
C1987 H1971 0.959 . S
C1987 H1972 0.959 . S
C1987 H1973 0.961 . S
C1987 C1986 1.502 . S
C1988 H1974 0.960 . S
C1988 H1975 0.961 . S
C1988 H1976 0.959 . S
C1988 C1986 1.561 . S
C1989 C1986 1.526 . S
C1989 C1990 1.396 . S
C1989 C1994 1.390 . S
C1990 C1984 1.465 . S
C1990 C1989 1.396 . S
C1990 C1991 1.399 . S
C1991 H1977 0.929 . S
C1991 C1990 1.399 . S
C1991 C1992 1.385 . S
C1992 H1978 0.931 . S
C1992 C1991 1.385 . S
C1992 C1993 1.389 . S
C1993 C1992 1.389 . S
C1993 C1994 1.387 . S
C1994 H1979 0.930 . S
C1994 C1989 1.390 . S
C1994 C1993 1.387 . S
H1995 C2007 0.930 . S
H1996 C2009 0.930 . S
H1997 C2010 0.930 . S
H1998 C2014 0.959 . S
H1999 C2014 0.959 . S
H2000 C2014 0.961 . S
H2001 C2015 0.960 . S
H2002 C2015 0.961 . S
H2003 C2015 0.959 . S
H2004 C2018 0.929 . S
H2005 C2019 0.931 . S
H2006 C2021 0.930 . S
C2007 H1995 0.930 . S
C2007 C2008 1.399 . S
C2007 C2012 1.399 . S
C2008 C2007 1.399 . S
C2008 C2009 1.376 . S
C2009 H1996 0.930 . S
C2009 C2008 1.376 . S
C2009 C2010 1.388 . S
C2010 H1997 0.930 . S
C2010 C2009 1.388 . S
C2010 C2011 1.390 . S
C2011 C2010 1.390 . S
C2011 C2012 1.394 . S
C2011 C2017 1.465 . S
C2012 C2007 1.399 . S
C2012 C2011 1.394 . S
C2012 C2013 1.516 . S
C2013 C2012 1.516 . S
C2013 C2014 1.502 . S
C2013 C2015 1.561 . S
C2013 C2016 1.526 . S
C2014 H1998 0.959 . S
C2014 H1999 0.959 . S
C2014 H2000 0.961 . S
C2014 C2013 1.502 . S
C2015 H2001 0.960 . S
C2015 H2002 0.961 . S
C2015 H2003 0.959 . S
C2015 C2013 1.561 . S
C2016 C2013 1.526 . S
C2016 C2017 1.396 . S
C2016 C2021 1.390 . S
C2017 C2011 1.465 . S
C2017 C2016 1.396 . S
C2017 C2018 1.399 . S
C2018 H2004 0.929 . S
C2018 C2017 1.399 . S
C2018 C2019 1.385 . S
C2019 H2005 0.931 . S
C2019 C2018 1.385 . S
C2019 C2020 1.389 . S
C2020 C2019 1.389 . S
C2020 C2021 1.387 . S
C2021 H2006 0.930 . S
C2021 C2016 1.390 . S
C2021 C2020 1.387 . S
H2022 C2034 0.930 . S
H2023 C2036 0.930 . S
H2024 C2037 0.930 . S
H2025 C2041 0.959 . S
H2026 C2041 0.959 . S
H2027 C2041 0.961 . S
H2028 C2042 0.960 . S
H2029 C2042 0.961 . S
H2030 C2042 0.959 . S
H2031 C2045 0.929 . S
H2032 C2046 0.931 . S
H2033 C2048 0.930 . S
C2034 H2022 0.930 . S
C2034 C2035 1.399 . S
C2034 C2039 1.399 . S
C2035 C2034 1.399 . S
C2035 C2036 1.376 . S
C2036 H2023 0.930 . S
C2036 C2035 1.376 . S
C2036 C2037 1.388 . S
C2037 H2024 0.930 . S
C2037 C2036 1.388 . S
C2037 C2038 1.390 . S
C2038 C2037 1.390 . S
C2038 C2039 1.394 . S
C2038 C2044 1.465 . S
C2039 C2034 1.399 . S
C2039 C2038 1.394 . S
C2039 C2040 1.516 . S
C2040 C2039 1.516 . S
C2040 C2041 1.502 . S
C2040 C2042 1.561 . S
C2040 C2043 1.526 . S
C2041 H2025 0.959 . S
C2041 H2026 0.959 . S
C2041 H2027 0.961 . S
C2041 C2040 1.502 . S
C2042 H2028 0.960 . S
C2042 H2029 0.961 . S
C2042 H2030 0.959 . S
C2042 C2040 1.561 . S
C2043 C2040 1.526 . S
C2043 C2044 1.396 . S
C2043 C2048 1.390 . S
C2044 C2038 1.465 . S
C2044 C2043 1.396 . S
C2044 C2045 1.399 . S
C2045 H2031 0.929 . S
C2045 C2044 1.399 . S
C2045 C2046 1.385 . S
C2046 H2032 0.931 . S
C2046 C2045 1.385 . S
C2046 C2047 1.389 . S
C2047 C2046 1.389 . S
C2047 C2048 1.387 . S
C2048 H2033 0.930 . S
C2048 C2043 1.390 . S
C2048 C2047 1.387 . S
H2049 C2061 0.930 . S
H2050 C2063 0.930 . S
H2051 C2064 0.930 . S
H2052 C2068 0.959 . S
H2053 C2068 0.959 . S
H2054 C2068 0.961 . S
H2055 C2069 0.960 . S
H2056 C2069 0.961 . S
H2057 C2069 0.959 . S
H2058 C2072 0.929 . S
H2059 C2073 0.931 . S
H2060 C2075 0.930 . S
C2061 H2049 0.930 . S
C2061 C2062 1.399 . S
C2061 C2066 1.399 1_655 S
C2062 C2061 1.399 . S
C2062 C2063 1.376 . S
C2063 H2050 0.930 . S
C2063 C2062 1.376 . S
C2063 C2064 1.388 . S
C2064 H2051 0.930 . S
C2064 C2063 1.388 . S
C2064 C2065 1.390 1_655 S
C2065 C2064 1.390 1_455 S
C2065 C2066 1.394 . S
C2065 C2071 1.465 . S
C2066 C2061 1.399 1_455 S
C2066 C2065 1.394 . S
C2066 C2067 1.516 . S
C2067 C2066 1.516 . S
C2067 C2068 1.502 . S
C2067 C2069 1.561 . S
C2067 C2070 1.526 . S
C2068 H2052 0.959 . S
C2068 H2053 0.959 . S
C2068 H2054 0.961 . S
C2068 C2067 1.502 . S
C2069 H2055 0.960 . S
C2069 H2056 0.961 . S
C2069 H2057 0.959 . S
C2069 C2067 1.561 . S
C2070 C2067 1.526 . S
C2070 C2071 1.396 . S
C2070 C2075 1.390 . S
C2071 C2065 1.465 . S
C2071 C2070 1.396 . S
C2071 C2072 1.399 . S
C2072 H2058 0.929 . S
C2072 C2071 1.399 . S
C2072 C2073 1.385 . S
C2073 H2059 0.931 . S
C2073 C2072 1.385 . S
C2073 C2074 1.389 . S
C2074 C2073 1.389 . S
C2074 C2075 1.387 . S
C2075 H2060 0.930 . S
C2075 C2070 1.390 . S
C2075 C2074 1.387 . S
H2076 C2088 0.930 . S
H2077 C2090 0.930 . S
H2078 C2091 0.930 . S
H2079 C2095 0.959 . S
H2080 C2095 0.959 . S
H2081 C2095 0.961 . S
H2082 C2096 0.960 . S
H2083 C2096 0.961 . S
H2084 C2096 0.959 . S
H2085 C2099 0.929 . S
H2086 C2100 0.931 . S
H2087 C2102 0.930 . S
C2088 H2076 0.930 . S
C2088 C2089 1.399 . S
C2088 C2093 1.399 . S
C2089 C2088 1.399 . S
C2089 C2090 1.376 . S
C2090 H2077 0.930 . S
C2090 C2089 1.376 . S
C2090 C2091 1.388 . S
C2091 H2078 0.930 . S
C2091 C2090 1.388 . S
C2091 C2092 1.390 . S
C2092 C2091 1.390 . S
C2092 C2093 1.394 . S
C2092 C2098 1.465 . S
C2093 C2088 1.399 . S
C2093 C2092 1.394 . S
C2093 C2094 1.516 . S
C2094 C2093 1.516 . S
C2094 C2095 1.502 . S
C2094 C2096 1.561 . S
C2094 C2097 1.526 . S
C2095 H2079 0.959 . S
C2095 H2080 0.959 . S
C2095 H2081 0.961 . S
C2095 C2094 1.502 . S
C2096 H2082 0.960 . S
C2096 H2083 0.961 . S
C2096 H2084 0.959 . S
C2096 C2094 1.561 . S
C2097 C2094 1.526 . S
C2097 C2098 1.396 . S
C2097 C2102 1.390 . S
C2098 C2092 1.465 . S
C2098 C2097 1.396 . S
C2098 C2099 1.399 . S
C2099 H2085 0.929 . S
C2099 C2098 1.399 . S
C2099 C2100 1.385 . S
C2100 H2086 0.931 . S
C2100 C2099 1.385 . S
C2100 C2101 1.389 . S
C2101 C2100 1.389 . S
C2101 C2102 1.387 . S
C2102 H2087 0.930 . S
C2102 C2097 1.390 . S
C2102 C2101 1.387 . S
H2103 C2115 0.930 . S
H2104 C2117 0.930 . S
H2105 C2118 0.930 . S
H2106 C2122 0.959 . S
H2107 C2122 0.959 . S
H2108 C2122 0.961 . S
H2109 C2123 0.960 . S
H2110 C2123 0.961 . S
H2111 C2123 0.959 . S
H2112 C2126 0.929 . S
H2113 C2127 0.931 . S
H2114 C2129 0.930 . S
C2115 H2103 0.930 . S
C2115 C2116 1.399 . S
C2115 C2120 1.399 . S
C2116 C2115 1.399 . S
C2116 C2117 1.376 . S
C2117 H2104 0.930 . S
C2117 C2116 1.376 . S
C2117 C2118 1.388 . S
C2118 H2105 0.930 . S
C2118 C2117 1.388 . S
C2118 C2119 1.390 . S
C2119 C2118 1.390 . S
C2119 C2120 1.394 . S
C2119 C2125 1.465 . S
C2120 C2115 1.399 . S
C2120 C2119 1.394 . S
C2120 C2121 1.516 . S
C2121 C2120 1.516 . S
C2121 C2122 1.502 . S
C2121 C2123 1.561 . S
C2121 C2124 1.483 1_455 S
C2122 H2106 0.959 . S
C2122 H2107 0.959 . S
C2122 H2108 0.961 . S
C2122 C2121 1.502 . S
C2123 H2109 0.960 . S
C2123 H2110 0.961 . S
C2123 H2111 0.959 . S
C2123 C2121 1.561 . S
C2124 C2121 1.483 1_655 S
C2124 C2125 1.382 1_655 S
C2124 C2129 1.442 . S
C2125 C2119 1.465 . S
C2125 C2124 1.382 1_455 S
C2125 C2126 1.399 1_455 S
C2126 H2112 0.929 . S
C2126 C2125 1.399 1_655 S
C2126 C2127 1.385 . S
C2127 H2113 0.931 . S
C2127 C2126 1.385 . S
C2127 C2128 1.389 . S
C2128 C2127 1.389 . S
C2128 C2129 1.387 . S
C2129 H2114 0.930 . S
C2129 C2124 1.442 . S
C2129 C2128 1.387 . S
H2130 C2142 0.930 . S
H2131 C2144 0.930 . S
H2132 C2145 0.930 . S
H2133 C2149 0.959 . S
H2134 C2149 0.959 . S
H2135 C2149 0.961 . S
H2136 C2150 0.960 . S
H2137 C2150 0.961 . S
H2138 C2150 0.959 . S
H2139 C2153 0.929 . S
H2140 C2154 0.931 . S
H2141 C2156 0.930 . S
C2142 H2130 0.930 . S
C2142 C2143 1.399 . S
C2142 C2147 1.399 . S
C2143 C2142 1.399 . S
C2143 C2144 1.376 . S
C2144 H2131 0.930 . S
C2144 C2143 1.376 . S
C2144 C2145 1.388 . S
C2145 H2132 0.930 . S
C2145 C2144 1.388 . S
C2145 C2146 1.390 . S
C2146 C2145 1.390 . S
C2146 C2147 1.394 . S
C2146 C2152 1.465 . S
C2147 C2142 1.399 . S
C2147 C2146 1.394 . S
C2147 C2148 1.516 . S
C2148 C2147 1.516 . S
C2148 C2149 1.502 . S
C2148 C2150 1.561 . S
C2148 C2151 1.526 . S
C2149 H2133 0.959 . S
C2149 H2134 0.959 . S
C2149 H2135 0.961 . S
C2149 C2148 1.502 . S
C2150 H2136 0.960 . S
C2150 H2137 0.961 . S
C2150 H2138 0.959 . S
C2150 C2148 1.561 . S
C2151 C2148 1.526 . S
C2151 C2152 1.396 . S
C2151 C2156 1.390 . S
C2152 C2146 1.465 . S
C2152 C2151 1.396 . S
C2152 C2153 1.399 . S
C2153 H2139 0.929 . S
C2153 C2152 1.399 . S
C2153 C2154 1.385 . S
C2154 H2140 0.931 . S
C2154 C2153 1.385 . S
C2154 C2155 1.389 . S
C2155 C2154 1.389 . S
C2155 C2156 1.387 . S
C2156 H2141 0.930 . S
C2156 C2151 1.390 . S
C2156 C2155 1.387 . S
H2157 C2169 0.930 . S
H2158 C2171 0.930 . S
H2159 C2172 0.930 . S
H2160 C2176 0.959 . S
H2161 C2176 0.959 . S
H2162 C2176 0.961 . S
H2163 C2177 0.960 . S
H2164 C2177 0.961 . S
H2165 C2177 0.959 . S
H2166 C2180 0.929 . S
H2167 C2181 0.931 . S
H2168 C2183 0.930 . S
C2169 H2157 0.930 . S
C2169 C2170 1.399 . S
C2169 C2174 1.399 . S
C2170 C2169 1.399 . S
C2170 C2171 1.376 . S
C2171 H2158 0.930 . S
C2171 C2170 1.376 . S
C2171 C2172 1.388 . S
C2172 H2159 0.930 . S
C2172 C2171 1.388 . S
C2172 C2173 1.390 . S
C2173 C2172 1.390 . S
C2173 C2174 1.394 . S
C2173 C2179 1.465 . S
C2174 C2169 1.399 . S
C2174 C2173 1.394 . S
C2174 C2175 1.516 . S
C2175 C2174 1.516 . S
C2175 C2176 1.502 . S
C2175 C2177 1.561 . S
C2175 C2178 1.526 . S
C2176 H2160 0.959 . S
C2176 H2161 0.959 . S
C2176 H2162 0.961 . S
C2176 C2175 1.502 . S
C2177 H2163 0.960 . S
C2177 H2164 0.961 . S
C2177 H2165 0.959 . S
C2177 C2175 1.561 . S
C2178 C2175 1.526 . S
C2178 C2179 1.396 . S
C2178 C2183 1.390 . S
C2179 C2173 1.465 . S
C2179 C2178 1.396 . S
C2179 C2180 1.399 . S
C2180 H2166 0.929 . S
C2180 C2179 1.399 . S
C2180 C2181 1.385 . S
C2181 H2167 0.931 . S
C2181 C2180 1.385 . S
C2181 C2182 1.389 . S
C2182 C2181 1.389 . S
C2182 C2183 1.387 . S
C2183 H2168 0.930 . S
C2183 C2178 1.390 . S
C2183 C2182 1.387 . S
H2184 C2196 0.930 . S
H2185 C2198 0.930 . S
H2186 C2199 0.930 . S
H2187 C2203 0.959 . S
H2188 C2203 0.959 . S
H2189 C2203 0.961 . S
H2190 C2204 0.960 . S
H2191 C2204 0.961 . S
H2192 C2204 0.959 . S
H2193 C2207 0.929 . S
H2194 C2208 0.931 . S
H2195 C2210 0.930 . S
C2196 H2184 0.930 . S
C2196 C2197 1.399 . S
C2196 C2201 1.399 . S
C2197 C2196 1.399 . S
C2197 C2198 1.376 . S
C2198 H2185 0.930 . S
C2198 C2197 1.376 . S
C2198 C2199 1.388 . S
C2199 H2186 0.930 . S
C2199 C2198 1.388 . S
C2199 C2200 1.390 . S
C2200 C2199 1.390 . S
C2200 C2201 1.394 . S
C2200 C2206 1.465 . S
C2201 C2196 1.399 . S
C2201 C2200 1.394 . S
C2201 C2202 1.516 . S
C2202 C2201 1.516 . S
C2202 C2203 1.502 . S
C2202 C2204 1.561 . S
C2202 C2205 1.526 . S
C2203 H2187 0.959 . S
C2203 H2188 0.959 . S
C2203 H2189 0.961 . S
C2203 C2202 1.502 . S
C2204 H2190 0.960 . S
C2204 H2191 0.961 . S
C2204 H2192 0.959 . S
C2204 C2202 1.561 . S
C2205 C2202 1.526 . S
C2205 C2206 1.396 . S
C2205 C2210 1.390 . S
C2206 C2200 1.465 . S
C2206 C2205 1.396 . S
C2206 C2207 1.399 . S
C2207 H2193 0.929 . S
C2207 C2206 1.399 . S
C2207 C2208 1.385 . S
C2208 H2194 0.931 . S
C2208 C2207 1.385 . S
C2208 C2209 1.389 . S
C2209 C2208 1.389 . S
C2209 C2210 1.387 . S
C2210 H2195 0.930 . S
C2210 C2205 1.390 . S
C2210 C2209 1.387 . S
H2211 C2223 0.930 . S
H2212 C2225 0.930 . S
H2213 C2226 0.930 . S
H2214 C2230 0.959 . S
H2215 C2230 0.959 1_556 S
H2216 C2230 0.961 . S
H2217 C2231 0.960 . S
H2218 C2231 0.961 1_556 S
H2219 C2231 0.959 . S
H2220 C2234 0.929 . S
H2221 C2235 0.931 . S
H2222 C2237 0.930 . S
C2223 H2211 0.930 . S
C2223 C2224 1.399 . S
C2223 C2228 1.399 . S
C2224 C2223 1.399 . S
C2224 C2225 1.376 . S
C2225 H2212 0.930 . S
C2225 C2224 1.376 . S
C2225 C2226 1.388 . S
C2226 H2213 0.930 . S
C2226 C2225 1.388 . S
C2226 C2227 1.390 . S
C2227 C2226 1.390 . S
C2227 C2228 1.394 . S
C2227 C2233 1.465 . S
C2228 C2223 1.399 . S
C2228 C2227 1.394 . S
C2228 C2229 1.516 . S
C2229 C2228 1.516 . S
C2229 C2230 1.502 . S
C2229 C2231 1.561 . S
C2229 C2232 1.558 . S
C2230 H2214 0.959 . S
C2230 H2215 0.959 1_554 S
C2230 H2216 0.961 . S
C2230 C2229 1.502 . S
C2231 H2217 0.960 . S
C2231 H2218 0.961 1_554 S
C2231 H2219 0.959 . S
C2231 C2229 1.561 . S
C2232 C2229 1.558 . S
C2232 C2233 1.430 . S
C2232 C2237 1.333 1_554 S
C2233 C2227 1.465 . S
C2233 C2232 1.430 . S
C2233 C2234 1.399 . S
C2234 H2220 0.929 . S
C2234 C2233 1.399 . S
C2234 C2235 1.385 1_554 S
C2235 H2221 0.931 . S
C2235 C2234 1.385 1_556 S
C2235 C2236 1.389 . S
C2236 C2235 1.389 . S
C2236 C2237 1.387 . S
C2237 H2222 0.930 . S
C2237 C2232 1.333 1_556 S
C2237 C2236 1.387 . S
H2238 C2250 0.930 . S
H2239 C2252 0.930 . S
H2240 C2253 0.930 . S
H2241 C2257 0.959 . S
H2242 C2257 0.959 . S
H2243 C2257 0.961 . S
H2244 C2258 0.960 . S
H2245 C2258 0.961 . S
H2246 C2258 0.959 . S
H2247 C2261 0.929 . S
H2248 C2262 0.931 . S
H2249 C2264 0.930 . S
C2250 H2238 0.930 . S
C2250 C2251 1.399 . S
C2250 C2255 1.399 . S
C2251 C2250 1.399 . S
C2251 C2252 1.376 . S
C2252 H2239 0.930 . S
C2252 C2251 1.376 . S
C2252 C2253 1.388 . S
C2253 H2240 0.930 . S
C2253 C2252 1.388 . S
C2253 C2254 1.390 . S
C2254 C2253 1.390 . S
C2254 C2255 1.394 . S
C2254 C2260 1.465 . S
C2255 C2250 1.399 . S
C2255 C2254 1.394 . S
C2255 C2256 1.516 . S
C2256 C2255 1.516 . S
C2256 C2257 1.502 . S
C2256 C2258 1.561 . S
C2256 C2259 1.526 . S
C2257 H2241 0.959 . S
C2257 H2242 0.959 . S
C2257 H2243 0.961 . S
C2257 C2256 1.502 . S
C2258 H2244 0.960 . S
C2258 H2245 0.961 . S
C2258 H2246 0.959 . S
C2258 C2256 1.561 . S
C2259 C2256 1.526 . S
C2259 C2260 1.396 . S
C2259 C2264 1.390 . S
C2260 C2254 1.465 . S
C2260 C2259 1.396 . S
C2260 C2261 1.399 . S
C2261 H2247 0.929 . S
C2261 C2260 1.399 . S
C2261 C2262 1.385 . S
C2262 H2248 0.931 . S
C2262 C2261 1.385 . S
C2262 C2263 1.389 . S
C2263 C2262 1.389 . S
C2263 C2264 1.387 . S
C2264 H2249 0.930 . S
C2264 C2259 1.390 . S
C2264 C2263 1.387 . S
H2265 C2277 0.930 . S
H2266 C2279 0.930 . S
H2267 C2280 0.930 . S
H2268 C2284 0.959 . S
H2269 C2284 0.959 . S
H2270 C2284 0.961 . S
H2271 C2285 0.960 . S
H2272 C2285 0.961 . S
H2273 C2285 0.959 . S
H2274 C2288 0.929 . S
H2275 C2289 0.931 . S
H2276 C2291 0.930 . S
C2277 H2265 0.930 . S
C2277 C2278 1.399 . S
C2277 C2282 1.399 . S
C2278 C2277 1.399 . S
C2278 C2279 1.376 . S
C2279 H2266 0.930 . S
C2279 C2278 1.376 . S
C2279 C2280 1.388 . S
C2280 H2267 0.930 . S
C2280 C2279 1.388 . S
C2280 C2281 1.390 . S
C2281 C2280 1.390 . S
C2281 C2282 1.394 . S
C2281 C2287 1.465 . S
C2282 C2277 1.399 . S
C2282 C2281 1.394 . S
C2282 C2283 1.516 . S
C2283 C2282 1.516 . S
C2283 C2284 1.502 . S
C2283 C2285 1.561 . S
C2283 C2286 1.526 . S
C2284 H2268 0.959 . S
C2284 H2269 0.959 . S
C2284 H2270 0.961 . S
C2284 C2283 1.502 . S
C2285 H2271 0.960 . S
C2285 H2272 0.961 . S
C2285 H2273 0.959 . S
C2285 C2283 1.561 . S
C2286 C2283 1.526 . S
C2286 C2287 1.396 . S
C2286 C2291 1.390 . S
C2287 C2281 1.465 . S
C2287 C2286 1.396 . S
C2287 C2288 1.399 . S
C2288 H2274 0.929 . S
C2288 C2287 1.399 . S
C2288 C2289 1.385 . S
C2289 H2275 0.931 . S
C2289 C2288 1.385 . S
C2289 C2290 1.389 . S
C2290 C2289 1.389 . S
C2290 C2291 1.387 . S
C2291 H2276 0.930 . S
C2291 C2286 1.390 . S
C2291 C2290 1.387 . S
H2292 C2304 0.930 . S
H2293 C2306 0.930 . S
H2294 C2307 0.930 . S
H2295 C2311 0.959 . S
H2296 C2311 0.959 . S
H2297 C2311 0.961 . S
H2298 C2312 0.960 . S
H2299 C2312 0.961 . S
H2300 C2312 0.959 . S
H2301 C2315 0.929 . S
H2302 C2316 0.931 . S
H2303 C2318 0.930 . S
C2304 H2292 0.930 . S
C2304 C2305 1.399 . S
C2304 C2309 1.399 . S
C2305 C2304 1.399 . S
C2305 C2306 1.376 . S
C2306 H2293 0.930 . S
C2306 C2305 1.376 . S
C2306 C2307 1.388 . S
C2307 H2294 0.930 . S
C2307 C2306 1.388 . S
C2307 C2308 1.390 . S
C2308 C2307 1.390 . S
C2308 C2309 1.394 . S
C2308 C2314 1.465 . S
C2309 C2304 1.399 . S
C2309 C2308 1.394 . S
C2309 C2310 1.516 . S
C2310 C2309 1.516 . S
C2310 C2311 1.502 . S
C2310 C2312 1.561 . S
C2310 C2313 1.526 . S
C2311 H2295 0.959 . S
C2311 H2296 0.959 . S
C2311 H2297 0.961 . S
C2311 C2310 1.502 . S
C2312 H2298 0.960 . S
C2312 H2299 0.961 . S
C2312 H2300 0.959 . S
C2312 C2310 1.561 . S
C2313 C2310 1.526 . S
C2313 C2314 1.396 . S
C2313 C2318 1.390 . S
C2314 C2308 1.465 . S
C2314 C2313 1.396 . S
C2314 C2315 1.399 . S
C2315 H2301 0.929 . S
C2315 C2314 1.399 . S
C2315 C2316 1.385 . S
C2316 H2302 0.931 . S
C2316 C2315 1.385 . S
C2316 C2317 1.389 . S
C2317 C2316 1.389 . S
C2317 C2318 1.387 . S
C2318 H2303 0.930 . S
C2318 C2313 1.390 . S
C2318 C2317 1.387 . S
H2319 C2331 0.930 . S
H2320 C2333 0.930 . S
H2321 C2334 0.930 . S
H2322 C2338 0.959 . S
H2323 C2338 0.959 . S
H2324 C2338 0.961 . S
H2325 C2339 0.960 . S
H2326 C2339 0.961 . S
H2327 C2339 0.959 . S
H2328 C2342 0.929 . S
H2329 C2343 0.931 . S
H2330 C2345 0.930 . S
C2331 H2319 0.930 . S
C2331 C2332 1.399 . S
C2331 C2336 1.399 . S
C2332 C2331 1.399 . S
C2332 C2333 1.376 . S
C2333 H2320 0.930 . S
C2333 C2332 1.376 . S
C2333 C2334 1.388 . S
C2334 H2321 0.930 . S
C2334 C2333 1.388 . S
C2334 C2335 1.390 . S
C2335 C2334 1.390 . S
C2335 C2336 1.394 . S
C2335 C2341 1.465 . S
C2336 C2331 1.399 . S
C2336 C2335 1.394 . S
C2336 C2337 1.516 . S
C2337 C2336 1.516 . S
C2337 C2338 1.502 . S
C2337 C2339 1.561 . S
C2337 C2340 1.526 . S
C2338 H2322 0.959 . S
C2338 H2323 0.959 . S
C2338 H2324 0.961 . S
C2338 C2337 1.502 . S
C2339 H2325 0.960 . S
C2339 H2326 0.961 . S
C2339 H2327 0.959 . S
C2339 C2337 1.561 . S
C2340 C2337 1.526 . S
C2340 C2341 1.396 . S
C2340 C2345 1.390 1_556 S
C2341 C2335 1.465 . S
C2341 C2340 1.396 . S
C2341 C2342 1.399 1_556 S
C2342 H2328 0.929 . S
C2342 C2341 1.399 1_554 S
C2342 C2343 1.385 . S
C2343 H2329 0.931 . S
C2343 C2342 1.385 . S
C2343 C2344 1.389 . S
C2344 C2343 1.389 . S
C2344 C2345 1.387 . S
C2345 H2330 0.930 . S
C2345 C2340 1.390 1_554 S
C2345 C2344 1.387 . S
H2346 C2358 0.930 . S
H2347 C2360 0.930 . S
H2348 C2361 0.930 . S
H2349 C2365 0.959 . S
H2350 C2365 0.959 . S
H2351 C2365 0.961 . S
H2352 C2366 0.960 . S
H2353 C2366 0.961 . S
H2354 C2366 0.959 . S
H2355 C2369 0.929 . S
H2356 C2370 0.931 . S
H2357 C2372 0.930 . S
C2358 H2346 0.930 . S
C2358 C2359 1.399 . S
C2358 C2363 1.399 . S
C2359 C2358 1.399 . S
C2359 C2360 1.376 . S
C2360 H2347 0.930 . S
C2360 C2359 1.376 . S
C2360 C2361 1.388 . S
C2361 H2348 0.930 . S
C2361 C2360 1.388 . S
C2361 C2362 1.390 . S
C2362 C2361 1.390 . S
C2362 C2363 1.394 . S
C2362 C2368 1.465 . S
C2363 C2358 1.399 . S
C2363 C2362 1.394 . S
C2363 C2364 1.516 . S
C2364 C2363 1.516 . S
C2364 C2365 1.502 . S
C2364 C2366 1.561 . S
C2364 C2367 1.526 . S
C2365 H2349 0.959 . S
C2365 H2350 0.959 . S
C2365 H2351 0.961 . S
C2365 C2364 1.502 . S
C2366 H2352 0.960 . S
C2366 H2353 0.961 . S
C2366 H2354 0.959 . S
C2366 C2364 1.561 . S
C2367 C2364 1.526 . S
C2367 C2368 1.396 . S
C2367 C2372 1.390 . S
C2368 C2362 1.465 . S
C2368 C2367 1.396 . S
C2368 C2369 1.399 . S
C2369 H2355 0.929 . S
C2369 C2368 1.399 . S
C2369 C2370 1.385 . S
C2370 H2356 0.931 . S
C2370 C2369 1.385 . S
C2370 C2371 1.389 . S
C2371 C2370 1.389 . S
C2371 C2372 1.387 . S
C2372 H2357 0.930 . S
C2372 C2367 1.390 . S
C2372 C2371 1.387 . S
H2373 C2385 0.930 . S
H2374 C2387 0.930 . S
H2375 C2388 0.930 . S
H2376 C2392 0.959 . S
H2377 C2392 0.959 . S
H2378 C2392 0.961 . S
H2379 C2393 0.960 . S
H2380 C2393 0.961 . S
H2381 C2393 0.959 . S
H2382 C2396 0.929 . S
H2383 C2397 0.931 . S
H2384 C2399 0.930 . S
C2385 H2373 0.930 . S
C2385 C2386 1.399 . S
C2385 C2390 1.399 . S
C2386 C2385 1.399 . S
C2386 C2387 1.376 . S
C2387 H2374 0.930 . S
C2387 C2386 1.376 . S
C2387 C2388 1.388 . S
C2388 H2375 0.930 . S
C2388 C2387 1.388 . S
C2388 C2389 1.390 . S
C2389 C2388 1.390 . S
C2389 C2390 1.394 . S
C2389 C2395 1.465 . S
C2390 C2385 1.399 . S
C2390 C2389 1.394 . S
C2390 C2391 1.516 . S
C2391 C2390 1.516 . S
C2391 C2392 1.502 . S
C2391 C2393 1.561 . S
C2391 C2394 1.526 . S
C2392 H2376 0.959 . S
C2392 H2377 0.959 . S
C2392 H2378 0.961 . S
C2392 C2391 1.502 . S
C2393 H2379 0.960 . S
C2393 H2380 0.961 . S
C2393 H2381 0.959 . S
C2393 C2391 1.561 . S
C2394 C2391 1.526 . S
C2394 C2395 1.396 . S
C2394 C2399 1.390 . S
C2395 C2389 1.465 . S
C2395 C2394 1.396 . S
C2395 C2396 1.399 . S
C2396 H2382 0.929 . S
C2396 C2395 1.399 . S
C2396 C2397 1.385 . S
C2397 H2383 0.931 . S
C2397 C2396 1.385 . S
C2397 C2398 1.389 . S
C2398 C2397 1.389 . S
C2398 C2399 1.387 . S
C2399 H2384 0.930 . S
C2399 C2394 1.390 . S
C2399 C2398 1.387 . S
H2400 C2412 0.930 . S
H2401 C2414 0.930 . S
H2402 C2415 0.930 . S
H2403 C2419 0.959 . S
H2404 C2419 0.959 . S
H2405 C2419 0.961 . S
H2406 C2420 0.960 . S
H2407 C2420 0.961 . S
H2408 C2420 0.959 . S
H2409 C2423 0.929 . S
H2410 C2424 0.931 . S
H2411 C2426 0.930 . S
C2412 H2400 0.930 . S
C2412 C2413 1.399 . S
C2412 C2417 1.399 . S
C2413 C2412 1.399 . S
C2413 C2414 1.376 . S
C2414 H2401 0.930 . S
C2414 C2413 1.376 . S
C2414 C2415 1.388 . S
C2415 H2402 0.930 . S
C2415 C2414 1.388 . S
C2415 C2416 1.390 . S
C2416 C2415 1.390 . S
C2416 C2417 1.394 . S
C2416 C2422 1.465 . S
C2417 C2412 1.399 . S
C2417 C2416 1.394 . S
C2417 C2418 1.516 . S
C2418 C2417 1.516 . S
C2418 C2419 1.502 . S
C2418 C2420 1.561 . S
C2418 C2421 1.526 . S
C2419 H2403 0.959 . S
C2419 H2404 0.959 . S
C2419 H2405 0.961 . S
C2419 C2418 1.502 . S
C2420 H2406 0.960 . S
C2420 H2407 0.961 . S
C2420 H2408 0.959 . S
C2420 C2418 1.561 . S
C2421 C2418 1.526 . S
C2421 C2422 1.396 . S
C2421 C2426 1.390 . S
C2422 C2416 1.465 . S
C2422 C2421 1.396 . S
C2422 C2423 1.399 . S
C2423 H2409 0.929 . S
C2423 C2422 1.399 . S
C2423 C2424 1.385 . S
C2424 H2410 0.931 . S
C2424 C2423 1.385 . S
C2424 C2425 1.389 . S
C2425 C2424 1.389 . S
C2425 C2426 1.387 . S
C2426 H2411 0.930 . S
C2426 C2421 1.390 . S
C2426 C2425 1.387 . S
H2427 C2439 0.930 . S
H2428 C2441 0.930 . S
H2429 C2442 0.930 . S
H2430 C2446 0.959 . S
H2431 C2446 0.959 . S
H2432 C2446 0.961 . S
H2433 C2447 0.960 . S
H2434 C2447 0.961 . S
H2435 C2447 0.959 . S
H2436 C2450 0.929 . S
H2437 C2451 0.931 . S
H2438 C2453 0.930 . S
C2439 H2427 0.930 . S
C2439 C2440 1.399 . S
C2439 C2444 1.399 . S
C2440 C2439 1.399 . S
C2440 C2441 1.376 . S
C2441 H2428 0.930 . S
C2441 C2440 1.376 . S
C2441 C2442 1.388 . S
C2442 H2429 0.930 . S
C2442 C2441 1.388 . S
C2442 C2443 1.390 . S
C2443 C2442 1.390 . S
C2443 C2444 1.394 . S
C2443 C2449 1.465 . S
C2444 C2439 1.399 . S
C2444 C2443 1.394 . S
C2444 C2445 1.516 . S
C2445 C2444 1.516 . S
C2445 C2446 1.502 . S
C2445 C2447 1.561 . S
C2445 C2448 1.526 . S
C2446 H2430 0.959 . S
C2446 H2431 0.959 . S
C2446 H2432 0.961 . S
C2446 C2445 1.502 . S
C2447 H2433 0.960 . S
C2447 H2434 0.961 . S
C2447 H2435 0.959 . S
C2447 C2445 1.561 . S
C2448 C2445 1.526 . S
C2448 C2449 1.396 . S
C2448 C2453 1.390 . S
C2449 C2443 1.465 . S
C2449 C2448 1.396 . S
C2449 C2450 1.399 . S
C2450 H2436 0.929 . S
C2450 C2449 1.399 . S
C2450 C2451 1.385 . S
C2451 H2437 0.931 . S
C2451 C2450 1.385 . S
C2451 C2452 1.389 . S
C2452 C2451 1.389 . S
C2452 C2453 1.387 . S
C2453 H2438 0.930 . S
C2453 C2448 1.390 . S
C2453 C2452 1.387 . S
H2454 C2466 0.930 . S
H2455 C2468 0.930 . S
H2456 C2469 0.930 . S
H2457 C2473 0.959 . S
H2458 C2473 0.959 1_565 S
H2459 C2473 0.961 . S
H2460 C2474 0.960 1_545 S
H2461 C2474 0.961 . S
H2462 C2474 0.959 . S
H2463 C2477 0.917 1_545 S
H2464 C2478 0.931 . S
H2465 C2480 0.930 . S
C2466 H2454 0.930 . S
C2466 C2467 1.399 . S
C2466 C2471 1.399 . S
C2467 C2466 1.399 . S
C2467 C2468 1.376 . S
C2468 H2455 0.930 . S
C2468 C2467 1.376 . S
C2468 C2469 1.388 . S
C2469 H2456 0.930 . S
C2469 C2468 1.388 . S
C2469 C2470 1.390 . S
C2470 C2469 1.390 . S
C2470 C2471 1.394 . S
C2470 C2476 1.465 . S
C2471 C2466 1.399 . S
C2471 C2470 1.394 . S
C2471 C2472 1.516 . S
C2472 C2471 1.516 . S
C2472 C2473 1.502 . S
C2472 C2474 1.561 1_545 S
C2472 C2475 1.526 1_545 S
C2473 H2457 0.959 . S
C2473 H2458 0.959 1_545 S
C2473 H2459 0.961 . S
C2473 C2472 1.502 . S
C2474 H2460 0.960 1_565 S
C2474 H2461 0.961 . S
C2474 H2462 0.959 . S
C2474 C2472 1.561 1_565 S
C2475 C2472 1.526 1_565 S
C2475 C2476 1.396 1_565 S
C2475 C2480 1.390 . S
C2476 C2470 1.465 . S
C2476 C2475 1.396 1_545 S
C2476 C2477 1.399 1_545 S
C2477 H2463 0.917 1_565 S
C2477 C2476 1.399 1_565 S
C2477 C2478 1.385 . S
C2478 H2464 0.931 . S
C2478 C2477 1.385 . S
C2478 C2479 1.389 . S
C2479 C2478 1.389 . S
C2479 C2480 1.387 . S
C2480 H2465 0.930 . S
C2480 C2475 1.390 . S
C2480 C2479 1.387 . S
H2481 C2493 0.930 . S
H2482 C2495 0.930 . S
H2483 C2496 0.930 . S
H2484 C2500 0.959 . S
H2485 C2500 0.959 . S
H2486 C2500 0.961 . S
H2487 C2501 0.960 . S
H2488 C2501 0.961 . S
H2489 C2501 0.959 . S
H2490 C2504 0.929 . S
H2491 C2505 0.931 . S
H2492 C2507 0.930 . S
C2493 H2481 0.930 . S
C2493 C2494 1.399 . S
C2493 C2498 1.399 . S
C2494 C2493 1.399 . S
C2494 C2495 1.376 . S
C2495 H2482 0.930 . S
C2495 C2494 1.376 . S
C2495 C2496 1.388 . S
C2496 H2483 0.930 . S
C2496 C2495 1.388 . S
C2496 C2497 1.390 . S
C2497 C2496 1.390 . S
C2497 C2498 1.394 . S
C2497 C2503 1.465 . S
C2498 C2493 1.399 . S
C2498 C2497 1.394 . S
C2498 C2499 1.516 . S
C2499 C2498 1.516 . S
C2499 C2500 1.502 . S
C2499 C2501 1.561 . S
C2499 C2502 1.526 . S
C2500 H2484 0.959 . S
C2500 H2485 0.959 . S
C2500 H2486 0.961 . S
C2500 C2499 1.502 . S
C2501 H2487 0.960 . S
C2501 H2488 0.961 . S
C2501 H2489 0.959 . S
C2501 C2499 1.561 . S
C2502 C2499 1.526 . S
C2502 C2503 1.396 . S
C2502 C2507 1.390 . S
C2503 C2497 1.465 . S
C2503 C2502 1.396 . S
C2503 C2504 1.399 . S
C2504 H2490 0.929 . S
C2504 C2503 1.399 . S
C2504 C2505 1.385 . S
C2505 H2491 0.931 . S
C2505 C2504 1.385 . S
C2505 C2506 1.389 . S
C2506 C2505 1.389 . S
C2506 C2507 1.387 . S
C2507 H2492 0.930 . S
C2507 C2502 1.390 . S
C2507 C2506 1.387 . S
H2508 C2520 0.930 . S
H2509 C2522 0.930 . S
H2510 C2523 0.930 . S
H2511 C2527 0.959 . S
H2512 C2527 0.959 . S
H2513 C2527 0.961 . S
H2514 C2528 0.960 . S
H2515 C2528 0.961 . S
H2516 C2528 0.959 . S
H2517 C2531 0.929 . S
H2518 C2532 0.931 . S
H2519 C2534 0.930 . S
C2520 H2508 0.930 . S
C2520 C2521 1.399 . S
C2520 C2525 1.399 . S
C2521 C2520 1.399 . S
C2521 C2522 1.376 . S
C2522 H2509 0.930 . S
C2522 C2521 1.376 . S
C2522 C2523 1.388 . S
C2523 H2510 0.930 . S
C2523 C2522 1.388 . S
C2523 C2524 1.390 . S
C2524 C2523 1.390 . S
C2524 C2525 1.394 . S
C2524 C2530 1.465 . S
C2525 C2520 1.399 . S
C2525 C2524 1.394 . S
C2525 C2526 1.516 . S
C2526 C2525 1.516 . S
C2526 C2527 1.502 . S
C2526 C2528 1.561 . S
C2526 C2529 1.526 . S
C2527 H2511 0.959 . S
C2527 H2512 0.959 . S
C2527 H2513 0.961 . S
C2527 C2526 1.502 . S
C2528 H2514 0.960 . S
C2528 H2515 0.961 . S
C2528 H2516 0.959 . S
C2528 C2526 1.561 . S
C2529 C2526 1.526 . S
C2529 C2530 1.396 . S
C2529 C2534 1.390 . S
C2530 C2524 1.465 . S
C2530 C2529 1.396 . S
C2530 C2531 1.399 . S
C2531 H2517 0.929 . S
C2531 C2530 1.399 . S
C2531 C2532 1.385 . S
C2532 H2518 0.931 . S
C2532 C2531 1.385 . S
C2532 C2533 1.389 . S
C2533 C2532 1.389 . S
C2533 C2534 1.387 . S
C2534 H2519 0.930 . S
C2534 C2529 1.390 . S
C2534 C2533 1.387 . S
H2535 C2547 0.930 . S
H2536 C2549 0.930 . S
H2537 C2550 0.930 . S
H2538 C2554 0.959 . S
H2539 C2554 0.959 . S
H2540 C2554 0.961 . S
H2541 C2555 0.960 . S
H2542 C2555 0.961 . S
H2543 C2555 0.959 . S
H2544 C2558 0.929 . S
H2545 C2559 0.931 . S
H2546 C2561 0.930 . S
C2547 H2535 0.930 . S
C2547 C2548 1.399 . S
C2547 C2552 1.399 . S
C2548 C2547 1.399 . S
C2548 C2549 1.376 . S
C2549 H2536 0.930 . S
C2549 C2548 1.376 . S
C2549 C2550 1.388 . S
C2550 H2537 0.930 . S
C2550 C2549 1.388 . S
C2550 C2551 1.390 . S
C2551 C2550 1.390 . S
C2551 C2552 1.394 . S
C2551 C2557 1.465 . S
C2552 C2547 1.399 . S
C2552 C2551 1.394 . S
C2552 C2553 1.516 . S
C2553 C2552 1.516 . S
C2553 C2554 1.502 . S
C2553 C2555 1.561 . S
C2553 C2556 1.526 . S
C2554 H2538 0.959 . S
C2554 H2539 0.959 . S
C2554 H2540 0.961 . S
C2554 C2553 1.502 . S
C2555 H2541 0.960 . S
C2555 H2542 0.961 . S
C2555 H2543 0.959 . S
C2555 C2553 1.561 . S
C2556 C2553 1.526 . S
C2556 C2557 1.396 . S
C2556 C2561 1.390 . S
C2557 C2551 1.465 . S
C2557 C2556 1.396 . S
C2557 C2558 1.399 . S
C2558 H2544 0.929 . S
C2558 C2557 1.399 . S
C2558 C2559 1.385 . S
C2559 H2545 0.931 . S
C2559 C2558 1.385 . S
C2559 C2560 1.389 . S
C2560 C2559 1.389 . S
C2560 C2561 1.387 . S
C2561 H2546 0.930 . S
C2561 C2556 1.390 . S
C2561 C2560 1.387 . S
H2562 C2574 0.930 . S
H2563 C2576 0.930 . S
H2564 C2577 0.930 1_565 S
H2565 C2581 0.959 . S
H2566 C2581 0.959 . S
H2567 C2581 0.961 . S
H2568 C2582 0.960 . S
H2569 C2582 0.961 . S
H2570 C2582 0.959 . S
H2571 C2585 0.929 . S
H2572 C2586 0.931 . S
H2573 C2588 0.930 . S
C2574 H2562 0.930 . S
C2574 C2575 1.399 . S
C2574 C2579 1.399 1_545 S
C2575 C2574 1.399 . S
C2575 C2576 1.376 . S
C2576 H2563 0.930 . S
C2576 C2575 1.376 . S
C2576 C2577 1.388 . S
C2577 H2564 0.930 1_545 S
C2577 C2576 1.388 . S
C2577 C2578 1.390 1_545 S
C2578 C2577 1.390 1_565 S
C2578 C2579 1.394 . S
C2578 C2584 1.465 . S
C2579 C2574 1.399 1_565 S
C2579 C2578 1.394 . S
C2579 C2580 1.516 . S
C2580 C2579 1.516 . S
C2580 C2581 1.502 . S
C2580 C2582 1.561 . S
C2580 C2583 1.526 . S
C2581 H2565 0.959 . S
C2581 H2566 0.959 . S
C2581 H2567 0.961 . S
C2581 C2580 1.502 . S
C2582 H2568 0.960 . S
C2582 H2569 0.961 . S
C2582 H2570 0.959 . S
C2582 C2580 1.561 . S
C2583 C2580 1.526 . S
C2583 C2584 1.396 . S
C2583 C2588 1.390 . S
C2584 C2578 1.465 . S
C2584 C2583 1.396 . S
C2584 C2585 1.399 . S
C2585 H2571 0.929 . S
C2585 C2584 1.399 . S
C2585 C2586 1.385 . S
C2586 H2572 0.931 . S
C2586 C2585 1.385 . S
C2586 C2587 1.389 . S
C2587 C2586 1.389 . S
C2587 C2588 1.387 . S
C2588 H2573 0.930 . S
C2588 C2583 1.390 . S
C2588 C2587 1.387 . S
H2589 C2601 0.930 . S
H2590 C2603 0.930 . S
H2591 C2604 0.930 . S
H2592 C2608 0.959 . S
H2593 C2608 0.955 1_565 S
H2594 C2608 0.961 . S
H2595 C2609 0.960 . S
H2596 C2609 0.961 1_565 S
H2597 C2609 0.959 . S
H2598 C2612 0.929 1_545 S
H2599 C2613 0.931 . S
H2600 C2615 0.930 . S
C2601 H2589 0.930 . S
C2601 C2602 1.399 . S
C2601 C2606 1.399 . S
C2602 C2601 1.399 . S
C2602 C2603 1.376 . S
C2603 H2590 0.930 . S
C2603 C2602 1.376 . S
C2603 C2604 1.388 . S
C2604 H2591 0.930 . S
C2604 C2603 1.388 . S
C2604 C2605 1.390 . S
C2605 C2604 1.390 . S
C2605 C2606 1.394 . S
C2605 C2611 1.465 . S
C2606 C2601 1.399 . S
C2606 C2605 1.394 . S
C2606 C2607 1.516 . S
C2607 C2606 1.516 . S
C2607 C2608 1.502 . S
C2607 C2609 1.561 . S
C2607 C2610 1.526 1_545 S
C2608 H2592 0.959 . S
C2608 H2593 0.955 1_545 S
C2608 H2594 0.961 . S
C2608 C2607 1.502 . S
C2609 H2595 0.960 . S
C2609 H2596 0.961 1_545 S
C2609 H2597 0.959 . S
C2609 C2607 1.561 . S
C2610 C2607 1.526 1_565 S
C2610 C2611 1.396 1_565 S
C2610 C2615 1.390 . S
C2611 C2605 1.465 . S
C2611 C2610 1.396 1_545 S
C2611 C2612 1.399 1_545 S
C2612 H2598 0.929 1_565 S
C2612 C2611 1.399 1_565 S
C2612 C2613 1.385 . S
C2613 H2599 0.931 . S
C2613 C2612 1.385 . S
C2613 C2614 1.389 . S
C2614 C2613 1.389 . S
C2614 C2615 1.387 . S
C2615 H2600 0.930 . S
C2615 C2610 1.390 . S
C2615 C2614 1.387 . S
H2616 C2628 0.930 . S
H2617 C2630 0.930 . S
H2618 C2631 0.930 . S
H2619 C2635 0.959 . S
H2620 C2635 0.959 . S
H2621 C2635 0.961 . S
H2622 C2636 0.960 . S
H2623 C2636 0.961 . S
H2624 C2636 0.959 . S
H2625 C2639 0.929 . S
H2626 C2640 0.931 . S
H2627 C2642 0.930 . S
C2628 H2616 0.930 . S
C2628 C2629 1.399 . S
C2628 C2633 1.399 . S
C2629 C2628 1.399 . S
C2629 C2630 1.376 . S
C2630 H2617 0.930 . S
C2630 C2629 1.376 . S
C2630 C2631 1.388 . S
C2631 H2618 0.930 . S
C2631 C2630 1.388 . S
C2631 C2632 1.390 . S
C2632 C2631 1.390 . S
C2632 C2633 1.394 . S
C2632 C2638 1.465 . S
C2633 C2628 1.399 . S
C2633 C2632 1.394 . S
C2633 C2634 1.516 . S
C2634 C2633 1.516 . S
C2634 C2635 1.502 . S
C2634 C2636 1.561 . S
C2634 C2637 1.526 . S
C2635 H2619 0.959 . S
C2635 H2620 0.959 . S
C2635 H2621 0.961 . S
C2635 C2634 1.502 . S
C2636 H2622 0.960 . S
C2636 H2623 0.961 . S
C2636 H2624 0.959 . S
C2636 C2634 1.561 . S
C2637 C2634 1.526 . S
C2637 C2638 1.396 . S
C2637 C2642 1.390 . S
C2638 C2632 1.465 . S
C2638 C2637 1.396 . S
C2638 C2639 1.399 . S
C2639 H2625 0.929 . S
C2639 C2638 1.399 . S
C2639 C2640 1.385 . S
C2640 H2626 0.931 . S
C2640 C2639 1.385 . S
C2640 C2641 1.389 . S
C2641 C2640 1.389 . S
C2641 C2642 1.387 . S
C2642 H2627 0.930 . S
C2642 C2637 1.390 . S
C2642 C2641 1.387 . S
H2643 C2655 0.930 . S
H2644 C2657 0.930 . S
H2645 C2658 0.930 . S
H2646 C2662 0.959 . S
H2647 C2662 0.959 . S
H2648 C2662 0.961 . S
H2649 C2663 0.960 . S
H2650 C2663 0.961 . S
H2651 C2663 0.959 . S
H2652 C2666 0.929 . S
H2653 C2667 0.931 . S
H2654 C2669 0.930 . S
C2655 H2643 0.930 . S
C2655 C2656 1.399 . S
C2655 C2660 1.399 . S
C2656 C2655 1.399 . S
C2656 C2657 1.376 . S
C2657 H2644 0.930 . S
C2657 C2656 1.376 . S
C2657 C2658 1.388 . S
C2658 H2645 0.930 . S
C2658 C2657 1.388 . S
C2658 C2659 1.390 . S
C2659 C2658 1.390 . S
C2659 C2660 1.394 . S
C2659 C2665 1.465 . S
C2660 C2655 1.399 . S
C2660 C2659 1.394 . S
C2660 C2661 1.516 . S
C2661 C2660 1.516 . S
C2661 C2662 1.502 . S
C2661 C2663 1.561 . S
C2661 C2664 1.526 . S
C2662 H2646 0.959 . S
C2662 H2647 0.959 . S
C2662 H2648 0.961 . S
C2662 C2661 1.502 . S
C2663 H2649 0.960 . S
C2663 H2650 0.961 . S
C2663 H2651 0.959 . S
C2663 C2661 1.561 . S
C2664 C2661 1.526 . S
C2664 C2665 1.396 . S
C2664 C2669 1.390 . S
C2665 C2659 1.465 . S
C2665 C2664 1.396 . S
C2665 C2666 1.399 . S
C2666 H2652 0.929 . S
C2666 C2665 1.399 . S
C2666 C2667 1.385 . S
C2667 H2653 0.931 . S
C2667 C2666 1.385 . S
C2667 C2668 1.389 . S
C2668 C2667 1.389 . S
C2668 C2669 1.387 . S
C2669 H2654 0.930 . S
C2669 C2664 1.390 . S
C2669 C2668 1.387 . S
H2670 C2682 0.930 . S
H2671 C2684 0.930 . S
H2672 C2685 0.930 . S
H2673 C2689 0.959 . S
H2674 C2689 0.959 . S
H2675 C2689 0.961 . S
H2676 C2690 0.960 . S
H2677 C2690 0.961 . S
H2678 C2690 0.959 . S
H2679 C2693 0.929 . S
H2680 C2694 0.931 . S
H2681 C2696 0.930 . S
C2682 H2670 0.930 . S
C2682 C2683 1.399 . S
C2682 C2687 1.399 . S
C2683 C2682 1.399 . S
C2683 C2684 1.376 . S
C2684 H2671 0.930 . S
C2684 C2683 1.376 . S
C2684 C2685 1.388 . S
C2685 H2672 0.930 . S
C2685 C2684 1.388 . S
C2685 C2686 1.390 . S
C2686 C2685 1.390 . S
C2686 C2687 1.394 . S
C2686 C2692 1.465 . S
C2687 C2682 1.399 . S
C2687 C2686 1.394 . S
C2687 C2688 1.516 . S
C2688 C2687 1.516 . S
C2688 C2689 1.502 . S
C2688 C2690 1.561 . S
C2688 C2691 1.526 . S
C2689 H2673 0.959 . S
C2689 H2674 0.959 . S
C2689 H2675 0.961 . S
C2689 C2688 1.502 . S
C2690 H2676 0.960 . S
C2690 H2677 0.961 . S
C2690 H2678 0.959 . S
C2690 C2688 1.561 . S
C2691 C2688 1.526 . S
C2691 C2692 1.396 . S
C2691 C2696 1.390 . S
C2692 C2686 1.465 . S
C2692 C2691 1.396 . S
C2692 C2693 1.399 . S
C2693 H2679 0.929 . S
C2693 C2692 1.399 . S
C2693 C2694 1.385 . S
C2694 H2680 0.931 . S
C2694 C2693 1.385 . S
C2694 C2695 1.389 . S
C2695 C2694 1.389 . S
C2695 C2696 1.387 . S
C2696 H2681 0.930 . S
C2696 C2691 1.390 . S
C2696 C2695 1.387 . S
H2697 C2709 0.930 . S
H2698 C2711 0.930 . S
H2699 C2712 0.930 . S
H2700 C2716 0.959 . S
H2701 C2716 0.959 . S
H2702 C2716 0.967 . S
H2703 C2717 0.960 . S
H2704 C2717 0.961 . S
H2705 C2717 0.959 . S
H2706 C2720 0.929 . S
H2707 C2721 0.931 . S
H2708 C2723 0.930 . S
C2709 H2697 0.930 . S
C2709 C2710 1.399 . S
C2709 C2714 1.399 1_455 S
C2710 C2709 1.399 . S
C2710 C2711 1.376 . S
C2711 H2698 0.930 . S
C2711 C2710 1.376 . S
C2711 C2712 1.388 1_455 S
C2712 H2699 0.930 . S
C2712 C2711 1.388 1_655 S
C2712 C2713 1.390 . S
C2713 C2712 1.390 . S
C2713 C2714 1.394 . S
C2713 C2719 1.465 . S
C2714 C2709 1.399 1_655 S
C2714 C2713 1.394 . S
C2714 C2715 1.516 . S
C2715 C2714 1.516 . S
C2715 C2716 1.502 . S
C2715 C2717 1.561 . S
C2715 C2718 1.526 . S
C2716 H2700 0.959 . S
C2716 H2701 0.959 . S
C2716 H2702 0.967 . S
C2716 C2715 1.502 . S
C2717 H2703 0.960 . S
C2717 H2704 0.961 . S
C2717 H2705 0.959 . S
C2717 C2715 1.561 . S
C2718 C2715 1.526 . S
C2718 C2719 1.396 . S
C2718 C2723 1.390 . S
C2719 C2713 1.465 . S
C2719 C2718 1.396 . S
C2719 C2720 1.399 . S
C2720 H2706 0.929 . S
C2720 C2719 1.399 . S
C2720 C2721 1.385 . S
C2721 H2707 0.931 . S
C2721 C2720 1.385 . S
C2721 C2722 1.389 . S
C2722 C2721 1.389 . S
C2722 C2723 1.387 . S
C2723 H2708 0.930 . S
C2723 C2718 1.390 . S
C2723 C2722 1.387 . S
H2724 C2736 0.930 . S
H2725 C2738 0.930 . S
H2726 C2739 0.930 . S
H2727 C2743 0.959 . S
H2728 C2743 0.959 . S
H2729 C2743 0.961 . S
H2730 C2744 0.960 . S
H2731 C2744 0.961 . S
H2732 C2744 0.959 . S
H2733 C2747 0.929 . S
H2734 C2748 0.931 . S
H2735 C2750 0.930 . S
C2736 H2724 0.930 . S
C2736 C2737 1.399 . S
C2736 C2741 1.399 . S
C2737 C2736 1.399 . S
C2737 C2738 1.376 . S
C2738 H2725 0.930 . S
C2738 C2737 1.376 . S
C2738 C2739 1.388 . S
C2739 H2726 0.930 . S
C2739 C2738 1.388 . S
C2739 C2740 1.390 . S
C2740 C2739 1.390 . S
C2740 C2741 1.394 . S
C2740 C2746 1.465 . S
C2741 C2736 1.399 . S
C2741 C2740 1.394 . S
C2741 C2742 1.516 . S
C2742 C2741 1.516 . S
C2742 C2743 1.502 . S
C2742 C2744 1.561 . S
C2742 C2745 1.526 . S
C2743 H2727 0.959 . S
C2743 H2728 0.959 . S
C2743 H2729 0.961 . S
C2743 C2742 1.502 . S
C2744 H2730 0.960 . S
C2744 H2731 0.961 . S
C2744 H2732 0.959 . S
C2744 C2742 1.561 . S
C2745 C2742 1.526 . S
C2745 C2746 1.396 . S
C2745 C2750 1.390 . S
C2746 C2740 1.465 . S
C2746 C2745 1.396 . S
C2746 C2747 1.399 . S
C2747 H2733 0.929 . S
C2747 C2746 1.399 . S
C2747 C2748 1.385 . S
C2748 H2734 0.931 . S
C2748 C2747 1.385 . S
C2748 C2749 1.389 . S
C2749 C2748 1.389 . S
C2749 C2750 1.387 . S
C2750 H2735 0.930 . S
C2750 C2745 1.390 . S
C2750 C2749 1.387 . S
H2751 C2763 0.930 . S
H2752 C2765 0.930 . S
H2753 C2766 0.930 . S
H2754 C2770 0.959 . S
H2755 C2770 0.959 . S
H2756 C2770 0.961 1_455 S
H2757 C2771 0.943 1_455 S
H2758 C2771 0.979 . S
H2759 C2771 0.955 1_455 S
H2760 C2774 0.929 . S
H2761 C2775 0.931 . S
H2762 C2777 0.930 . S
C2763 H2751 0.930 . S
C2763 C2764 1.399 . S
C2763 C2768 1.399 . S
C2764 C2763 1.399 . S
C2764 C2765 1.376 . S
C2765 H2752 0.930 . S
C2765 C2764 1.376 . S
C2765 C2766 1.388 . S
C2766 H2753 0.930 . S
C2766 C2765 1.388 . S
C2766 C2767 1.390 . S
C2767 C2766 1.390 . S
C2767 C2768 1.394 . S
C2767 C2773 1.465 1_455 S
C2768 C2763 1.399 . S
C2768 C2767 1.394 . S
C2768 C2769 1.516 1_455 S
C2769 C2768 1.516 1_655 S
C2769 C2770 1.502 . S
C2769 C2771 1.563 . S
C2769 C2772 1.526 . S
C2770 H2754 0.959 . S
C2770 H2755 0.959 . S
C2770 H2756 0.961 1_655 S
C2770 C2769 1.502 . S
C2771 H2757 0.943 1_655 S
C2771 H2758 0.979 . S
C2771 H2759 0.955 1_655 S
C2771 C2769 1.563 . S
C2772 C2769 1.526 . S
C2772 C2773 1.396 . S
C2772 C2777 1.390 . S
C2773 C2767 1.465 1_655 S
C2773 C2772 1.396 . S
C2773 C2774 1.399 . S
C2774 H2760 0.929 . S
C2774 C2773 1.399 . S
C2774 C2775 1.385 . S
C2775 H2761 0.931 . S
C2775 C2774 1.385 . S
C2775 C2776 1.389 . S
C2776 C2775 1.389 . S
C2776 C2777 1.387 . S
C2777 H2762 0.930 . S
C2777 C2772 1.390 . S
C2777 C2776 1.387 . S
H2778 C2790 0.930 . S
H2779 C2792 0.930 . S
H2780 C2793 0.930 . S
H2781 C2797 0.959 . S
H2782 C2797 0.959 . S
H2783 C2797 0.961 . S
H2784 C2798 0.960 . S
H2785 C2798 0.961 . S
H2786 C2798 0.959 . S
H2787 C2801 0.929 . S
H2788 C2802 0.931 . S
H2789 C2804 0.930 . S
C2790 H2778 0.930 . S
C2790 C2791 1.399 . S
C2790 C2795 1.399 . S
C2791 C2790 1.399 . S
C2791 C2792 1.376 . S
C2792 H2779 0.930 . S
C2792 C2791 1.376 . S
C2792 C2793 1.388 . S
C2793 H2780 0.930 . S
C2793 C2792 1.388 . S
C2793 C2794 1.390 . S
C2794 C2793 1.390 . S
C2794 C2795 1.394 . S
C2794 C2800 1.465 . S
C2795 C2790 1.399 . S
C2795 C2794 1.394 . S
C2795 C2796 1.516 . S
C2796 C2795 1.516 . S
C2796 C2797 1.502 . S
C2796 C2798 1.561 . S
C2796 C2799 1.526 . S
C2797 H2781 0.959 . S
C2797 H2782 0.959 . S
C2797 H2783 0.961 . S
C2797 C2796 1.502 . S
C2798 H2784 0.960 . S
C2798 H2785 0.961 . S
C2798 H2786 0.959 . S
C2798 C2796 1.561 . S
C2799 C2796 1.526 . S
C2799 C2800 1.396 . S
C2799 C2804 1.390 . S
C2800 C2794 1.465 . S
C2800 C2799 1.396 . S
C2800 C2801 1.399 . S
C2801 H2787 0.929 . S
C2801 C2800 1.399 . S
C2801 C2802 1.385 . S
C2802 H2788 0.931 . S
C2802 C2801 1.385 . S
C2802 C2803 1.389 . S
C2803 C2802 1.389 . S
C2803 C2804 1.387 . S
C2804 H2789 0.930 . S
C2804 C2799 1.390 . S
C2804 C2803 1.387 . S
H2805 C2817 0.930 . S
H2806 C2819 0.930 . S
H2807 C2820 0.930 . S
H2808 C2824 0.959 . S
H2809 C2824 0.959 . S
H2810 C2824 0.961 . S
H2811 C2825 0.960 . S
H2812 C2825 0.961 . S
H2813 C2825 0.959 . S
H2814 C2828 0.929 . S
H2815 C2829 0.931 . S
H2816 C2831 0.930 . S
C2817 H2805 0.930 . S
C2817 C2818 1.399 . S
C2817 C2822 1.399 . S
C2818 C2817 1.399 . S
C2818 C2819 1.376 . S
C2819 H2806 0.930 . S
C2819 C2818 1.376 . S
C2819 C2820 1.388 . S
C2820 H2807 0.930 . S
C2820 C2819 1.388 . S
C2820 C2821 1.390 . S
C2821 C2820 1.390 . S
C2821 C2822 1.394 . S
C2821 C2827 1.465 . S
C2822 C2817 1.399 . S
C2822 C2821 1.394 . S
C2822 C2823 1.516 . S
C2823 C2822 1.516 . S
C2823 C2824 1.502 . S
C2823 C2825 1.561 . S
C2823 C2826 1.526 . S
C2824 H2808 0.959 . S
C2824 H2809 0.959 . S
C2824 H2810 0.961 . S
C2824 C2823 1.502 . S
C2825 H2811 0.960 . S
C2825 H2812 0.961 . S
C2825 H2813 0.959 . S
C2825 C2823 1.561 . S
C2826 C2823 1.526 . S
C2826 C2827 1.396 . S
C2826 C2831 1.390 . S
C2827 C2821 1.465 . S
C2827 C2826 1.396 . S
C2827 C2828 1.399 . S
C2828 H2814 0.929 . S
C2828 C2827 1.399 . S
C2828 C2829 1.385 . S
C2829 H2815 0.931 . S
C2829 C2828 1.385 . S
C2829 C2830 1.389 . S
C2830 C2829 1.389 . S
C2830 C2831 1.387 . S
C2831 H2816 0.930 . S
C2831 C2826 1.390 . S
C2831 C2830 1.387 . S
H2832 C2844 0.930 . S
H2833 C2846 0.930 . S
H2834 C2847 0.930 . S
H2835 C2851 0.959 . S
H2836 C2851 0.959 . S
H2837 C2851 0.961 . S
H2838 C2852 0.960 . S
H2839 C2852 0.961 . S
H2840 C2852 0.959 . S
H2841 C2855 0.929 . S
H2842 C2856 0.931 . S
H2843 C2858 0.930 . S
C2844 H2832 0.930 . S
C2844 C2845 1.399 . S
C2844 C2849 1.399 . S
C2845 C2844 1.399 . S
C2845 C2846 1.376 . S
C2846 H2833 0.930 . S
C2846 C2845 1.376 . S
C2846 C2847 1.388 . S
C2847 H2834 0.930 . S
C2847 C2846 1.388 . S
C2847 C2848 1.390 . S
C2848 C2847 1.390 . S
C2848 C2849 1.394 . S
C2848 C2854 1.465 . S
C2849 C2844 1.399 . S
C2849 C2848 1.394 . S
C2849 C2850 1.516 . S
C2850 C2849 1.516 . S
C2850 C2851 1.502 . S
C2850 C2852 1.561 . S
C2850 C2853 1.526 . S
C2851 H2835 0.959 . S
C2851 H2836 0.959 . S
C2851 H2837 0.961 . S
C2851 C2850 1.502 . S
C2852 H2838 0.960 . S
C2852 H2839 0.961 . S
C2852 H2840 0.959 . S
C2852 C2850 1.561 . S
C2853 C2850 1.526 . S
C2853 C2854 1.396 . S
C2853 C2858 1.390 . S
C2854 C2848 1.465 . S
C2854 C2853 1.396 . S
C2854 C2855 1.399 . S
C2855 H2841 0.929 . S
C2855 C2854 1.399 . S
C2855 C2856 1.385 . S
C2856 H2842 0.931 . S
C2856 C2855 1.385 . S
C2856 C2857 1.389 . S
C2857 C2856 1.389 . S
C2857 C2858 1.387 . S
C2858 H2843 0.930 . S
C2858 C2853 1.390 . S
C2858 C2857 1.387 . S
H2859 C2871 0.930 . S
H2860 C2873 0.930 . S
H2861 C2874 0.930 . S
H2862 C2878 0.959 . S
H2863 C2878 0.959 1_554 S
H2864 C2878 0.961 . S
H2865 C2879 0.960 . S
H2866 C2879 0.961 . S
H2867 C2879 0.959 . S
H2868 C2882 0.929 . S
H2869 C2883 0.931 . S
H2870 C2885 0.930 . S
C2871 H2859 0.930 . S
C2871 C2872 1.399 . S
C2871 C2876 1.399 . S
C2872 C2871 1.399 . S
C2872 C2873 1.376 . S
C2873 H2860 0.930 . S
C2873 C2872 1.376 . S
C2873 C2874 1.388 . S
C2874 H2861 0.930 . S
C2874 C2873 1.388 . S
C2874 C2875 1.390 . S
C2875 C2874 1.390 . S
C2875 C2876 1.394 . S
C2875 C2881 1.465 1_556 S
C2876 C2871 1.399 . S
C2876 C2875 1.394 . S
C2876 C2877 1.516 . S
C2877 C2876 1.516 . S
C2877 C2878 1.502 . S
C2877 C2879 1.561 . S
C2877 C2880 1.526 1_556 S
C2878 H2862 0.959 . S
C2878 H2863 0.959 1_556 S
C2878 H2864 0.961 . S
C2878 C2877 1.502 . S
C2879 H2865 0.960 . S
C2879 H2866 0.961 . S
C2879 H2867 0.959 . S
C2879 C2877 1.561 . S
C2880 C2877 1.526 1_554 S
C2880 C2881 1.396 . S
C2880 C2885 1.390 . S
C2881 C2875 1.465 1_554 S
C2881 C2880 1.396 . S
C2881 C2882 1.399 . S
C2882 H2868 0.929 . S
C2882 C2881 1.399 . S
C2882 C2883 1.385 . S
C2883 H2869 0.931 . S
C2883 C2882 1.385 . S
C2883 C2884 1.389 . S
C2884 C2883 1.389 . S
C2884 C2885 1.387 . S
C2885 H2870 0.930 . S
C2885 C2880 1.390 . S
C2885 C2884 1.387 . S
H2886 C2898 0.930 . S
H2887 C2900 0.930 . S
H2888 C2901 0.930 . S
H2889 C2905 0.959 . S
H2890 C2905 0.959 . S
H2891 C2905 0.961 . S
H2892 C2906 0.960 . S
H2893 C2906 0.961 . S
H2894 C2906 0.959 . S
H2895 C2909 0.929 . S
H2896 C2910 0.931 . S
H2897 C2912 0.930 . S
C2898 H2886 0.930 . S
C2898 C2899 1.399 . S
C2898 C2903 1.399 . S
C2899 C2898 1.399 . S
C2899 C2900 1.376 . S
C2900 H2887 0.930 . S
C2900 C2899 1.376 . S
C2900 C2901 1.388 . S
C2901 H2888 0.930 . S
C2901 C2900 1.388 . S
C2901 C2902 1.390 . S
C2902 C2901 1.390 . S
C2902 C2903 1.394 . S
C2902 C2908 1.465 . S
C2903 C2898 1.399 . S
C2903 C2902 1.394 . S
C2903 C2904 1.516 . S
C2904 C2903 1.516 . S
C2904 C2905 1.502 . S
C2904 C2906 1.561 . S
C2904 C2907 1.526 . S
C2905 H2889 0.959 . S
C2905 H2890 0.959 . S
C2905 H2891 0.961 . S
C2905 C2904 1.502 . S
C2906 H2892 0.960 . S
C2906 H2893 0.961 . S
C2906 H2894 0.959 . S
C2906 C2904 1.561 . S
C2907 C2904 1.526 . S
C2907 C2908 1.396 . S
C2907 C2912 1.390 . S
C2908 C2902 1.465 . S
C2908 C2907 1.396 . S
C2908 C2909 1.399 . S
C2909 H2895 0.929 . S
C2909 C2908 1.399 . S
C2909 C2910 1.385 . S
C2910 H2896 0.931 . S
C2910 C2909 1.385 . S
C2910 C2911 1.389 . S
C2911 C2910 1.389 . S
C2911 C2912 1.387 . S
C2912 H2897 0.930 . S
C2912 C2907 1.390 . S
C2912 C2911 1.387 . S
H2913 C2925 0.930 . S
H2914 C2927 0.930 . S
H2915 C2928 0.930 . S
H2916 C2932 0.959 . S
H2917 C2932 0.959 . S
H2918 C2932 0.961 . S
H2919 C2933 0.960 . S
H2920 C2933 0.961 . S
H2921 C2933 0.959 . S
H2922 C2936 0.929 . S
H2923 C2937 0.931 . S
H2924 C2939 0.930 . S
C2925 H2913 0.930 . S
C2925 C2926 1.399 . S
C2925 C2930 1.399 . S
C2926 C2925 1.399 . S
C2926 C2927 1.376 . S
C2927 H2914 0.930 . S
C2927 C2926 1.376 . S
C2927 C2928 1.388 . S
C2928 H2915 0.930 . S
C2928 C2927 1.388 . S
C2928 C2929 1.390 . S
C2929 C2928 1.390 . S
C2929 C2930 1.394 . S
C2929 C2935 1.465 . S
C2930 C2925 1.399 . S
C2930 C2929 1.394 . S
C2930 C2931 1.516 . S
C2931 C2930 1.516 . S
C2931 C2932 1.502 . S
C2931 C2933 1.561 . S
C2931 C2934 1.526 . S
C2932 H2916 0.959 . S
C2932 H2917 0.959 . S
C2932 H2918 0.961 . S
C2932 C2931 1.502 . S
C2933 H2919 0.960 . S
C2933 H2920 0.961 . S
C2933 H2921 0.959 . S
C2933 C2931 1.561 . S
C2934 C2931 1.526 . S
C2934 C2935 1.396 . S
C2934 C2939 1.390 . S
C2935 C2929 1.465 . S
C2935 C2934 1.396 . S
C2935 C2936 1.399 . S
C2936 H2922 0.929 . S
C2936 C2935 1.399 . S
C2936 C2937 1.385 . S
C2937 H2923 0.931 . S
C2937 C2936 1.385 . S
C2937 C2938 1.389 . S
C2938 C2937 1.389 . S
C2938 C2939 1.387 . S
C2939 H2924 0.930 . S
C2939 C2934 1.390 . S
C2939 C2938 1.387 . S
H2940 C2952 0.930 . S
H2941 C2954 0.930 . S
H2942 C2955 0.930 . S
H2943 C2959 0.959 . S
H2944 C2959 0.959 . S
H2945 C2959 0.961 . S
H2946 C2960 0.960 . S
H2947 C2960 0.961 . S
H2948 C2960 0.959 . S
H2949 C2963 0.929 . S
H2950 C2964 0.931 . S
H2951 C2966 0.930 . S
C2952 H2940 0.930 . S
C2952 C2953 1.399 . S
C2952 C2957 1.399 . S
C2953 C2952 1.399 . S
C2953 C2954 1.376 . S
C2954 H2941 0.930 . S
C2954 C2953 1.376 . S
C2954 C2955 1.388 . S
C2955 H2942 0.930 . S
C2955 C2954 1.388 . S
C2955 C2956 1.390 . S
C2956 C2955 1.390 . S
C2956 C2957 1.394 . S
C2956 C2962 1.465 . S
C2957 C2952 1.399 . S
C2957 C2956 1.394 . S
C2957 C2958 1.516 . S
C2958 C2957 1.516 . S
C2958 C2959 1.502 . S
C2958 C2960 1.561 . S
C2958 C2961 1.526 . S
C2959 H2943 0.959 . S
C2959 H2944 0.959 . S
C2959 H2945 0.961 . S
C2959 C2958 1.502 . S
C2960 H2946 0.960 . S
C2960 H2947 0.961 . S
C2960 H2948 0.959 . S
C2960 C2958 1.561 . S
C2961 C2958 1.526 . S
C2961 C2962 1.396 . S
C2961 C2966 1.390 . S
C2962 C2956 1.465 . S
C2962 C2961 1.396 . S
C2962 C2963 1.399 . S
C2963 H2949 0.929 . S
C2963 C2962 1.399 . S
C2963 C2964 1.385 . S
C2964 H2950 0.931 . S
C2964 C2963 1.385 . S
C2964 C2965 1.389 . S
C2965 C2964 1.389 . S
C2965 C2966 1.387 . S
C2966 H2951 0.930 . S
C2966 C2961 1.390 . S
C2966 C2965 1.387 . S
H2967 C2979 0.930 . S
H2968 C2981 0.930 . S
H2969 C2982 0.930 . S
H2970 C2986 0.959 . S
H2971 C2986 0.959 . S
H2972 C2986 0.961 . S
H2973 C2987 0.960 . S
H2974 C2987 0.961 1_556 S
H2975 C2987 0.959 . S
H2976 C2990 0.948 . S
H2977 C2991 0.931 . S
H2978 C2993 0.930 . S
C2979 H2967 0.930 . S
C2979 C2980 1.399 . S
C2979 C2984 1.399 . S
C2980 C2979 1.399 . S
C2980 C2981 1.376 . S
C2981 H2968 0.930 . S
C2981 C2980 1.376 . S
C2981 C2982 1.388 . S
C2982 H2969 0.930 . S
C2982 C2981 1.388 . S
C2982 C2983 1.390 . S
C2983 C2982 1.390 . S
C2983 C2984 1.394 . S
C2983 C2989 1.465 . S
C2984 C2979 1.399 . S
C2984 C2983 1.394 . S
C2984 C2985 1.516 . S
C2985 C2984 1.516 . S
C2985 C2986 1.502 . S
C2985 C2987 1.561 . S
C2985 C2988 1.526 . S
C2986 H2970 0.959 . S
C2986 H2971 0.959 . S
C2986 H2972 0.961 . S
C2986 C2985 1.502 . S
C2987 H2973 0.960 . S
C2987 H2974 0.961 1_554 S
C2987 H2975 0.959 . S
C2987 C2985 1.561 . S
C2988 C2985 1.526 . S
C2988 C2989 1.396 . S
C2988 C2993 1.390 1_554 S
C2989 C2983 1.465 . S
C2989 C2988 1.396 . S
C2989 C2990 1.420 . S
C2990 H2976 0.948 . S
C2990 C2989 1.420 . S
C2990 C2991 1.346 1_554 S
C2991 H2977 0.931 . S
C2991 C2990 1.346 1_556 S
C2991 C2992 1.389 . S
C2992 C2991 1.389 . S
C2992 C2993 1.387 . S
C2993 H2978 0.930 . S
C2993 C2988 1.390 1_556 S
C2993 C2992 1.387 . S
H2994 C3006 0.930 . S
H2995 C3008 0.930 . S
H2996 C3009 0.930 . S
H2997 C3013 0.959 . S
H2998 C3013 0.959 . S
H2999 C3013 0.961 . S
H3000 C3014 0.960 . S
H3001 C3014 0.961 . S
H3002 C3014 0.959 . S
H3003 C3017 0.929 . S
H3004 C3018 0.931 . S
H3005 C3020 0.930 . S
C3006 H2994 0.930 . S
C3006 C3007 1.399 . S
C3006 C3011 1.399 . S
C3007 C3006 1.399 . S
C3007 C3008 1.376 . S
C3008 H2995 0.930 . S
C3008 C3007 1.376 . S
C3008 C3009 1.388 . S
C3009 H2996 0.930 . S
C3009 C3008 1.388 . S
C3009 C3010 1.390 . S
C3010 C3009 1.390 . S
C3010 C3011 1.394 . S
C3010 C3016 1.465 . S
C3011 C3006 1.399 . S
C3011 C3010 1.394 . S
C3011 C3012 1.516 . S
C3012 C3011 1.516 . S
C3012 C3013 1.502 . S
C3012 C3014 1.561 . S
C3012 C3015 1.526 . S
C3013 H2997 0.959 . S
C3013 H2998 0.959 . S
C3013 H2999 0.961 . S
C3013 C3012 1.502 . S
C3014 H3000 0.960 . S
C3014 H3001 0.961 . S
C3014 H3002 0.959 . S
C3014 C3012 1.561 . S
C3015 C3012 1.526 . S
C3015 C3016 1.396 . S
C3015 C3020 1.390 . S
C3016 C3010 1.465 . S
C3016 C3015 1.396 . S
C3016 C3017 1.399 . S
C3017 H3003 0.929 . S
C3017 C3016 1.399 . S
C3017 C3018 1.385 . S
C3018 H3004 0.931 . S
C3018 C3017 1.385 . S
C3018 C3019 1.389 . S
C3019 C3018 1.389 . S
C3019 C3020 1.387 . S
C3020 H3005 0.930 . S
C3020 C3015 1.390 . S
C3020 C3019 1.387 . S
H3021 C3033 0.930 . S
H3022 C3035 0.930 . S
H3023 C3036 0.930 . S
H3024 C3040 0.959 . S
H3025 C3040 0.959 . S
H3026 C3040 0.961 . S
H3027 C3041 0.960 . S
H3028 C3041 0.961 . S
H3029 C3041 0.959 . S
H3030 C3044 0.929 . S
H3031 C3045 0.931 . S
H3032 C3047 0.930 . S
C3033 H3021 0.930 . S
C3033 C3034 1.399 . S
C3033 C3038 1.399 . S
C3034 C3033 1.399 . S
C3034 C3035 1.376 . S
C3035 H3022 0.930 . S
C3035 C3034 1.376 . S
C3035 C3036 1.388 . S
C3036 H3023 0.930 . S
C3036 C3035 1.388 . S
C3036 C3037 1.390 . S
C3037 C3036 1.390 . S
C3037 C3038 1.394 . S
C3037 C3043 1.465 . S
C3038 C3033 1.399 . S
C3038 C3037 1.394 . S
C3038 C3039 1.516 . S
C3039 C3038 1.516 . S
C3039 C3040 1.502 . S
C3039 C3041 1.561 . S
C3039 C3042 1.526 . S
C3040 H3024 0.959 . S
C3040 H3025 0.959 . S
C3040 H3026 0.961 . S
C3040 C3039 1.502 . S
C3041 H3027 0.960 . S
C3041 H3028 0.961 . S
C3041 H3029 0.959 . S
C3041 C3039 1.561 . S
C3042 C3039 1.526 . S
C3042 C3043 1.396 . S
C3042 C3047 1.390 . S
C3043 C3037 1.465 . S
C3043 C3042 1.396 . S
C3043 C3044 1.399 . S
C3044 H3030 0.929 . S
C3044 C3043 1.399 . S
C3044 C3045 1.385 . S
C3045 H3031 0.931 . S
C3045 C3044 1.385 . S
C3045 C3046 1.389 . S
C3046 C3045 1.389 . S
C3046 C3047 1.387 . S
C3047 H3032 0.930 . S
C3047 C3042 1.390 . S
C3047 C3046 1.387 . S
H3048 C3060 0.930 . S
H3049 C3062 0.930 . S
H3050 C3063 0.930 . S
H3051 C3067 0.959 . S
H3052 C3067 0.959 . S
H3053 C3067 0.961 . S
H3054 C3068 0.960 . S
H3055 C3068 0.961 . S
H3056 C3068 0.959 . S
H3057 C3071 0.929 . S
H3058 C3072 0.931 . S
H3059 C3074 0.930 . S
C3060 H3048 0.930 . S
C3060 C3061 1.399 . S
C3060 C3065 1.399 . S
C3061 C3060 1.399 . S
C3061 C3062 1.376 . S
C3062 H3049 0.930 . S
C3062 C3061 1.376 . S
C3062 C3063 1.388 . S
C3063 H3050 0.930 . S
C3063 C3062 1.388 . S
C3063 C3064 1.390 . S
C3064 C3063 1.390 . S
C3064 C3065 1.394 . S
C3064 C3070 1.465 . S
C3065 C3060 1.399 . S
C3065 C3064 1.394 . S
C3065 C3066 1.516 . S
C3066 C3065 1.516 . S
C3066 C3067 1.502 . S
C3066 C3068 1.561 . S
C3066 C3069 1.526 . S
C3067 H3051 0.959 . S
C3067 H3052 0.959 . S
C3067 H3053 0.961 . S
C3067 C3066 1.502 . S
C3068 H3054 0.960 . S
C3068 H3055 0.961 . S
C3068 H3056 0.959 . S
C3068 C3066 1.561 . S
C3069 C3066 1.526 . S
C3069 C3070 1.396 . S
C3069 C3074 1.390 . S
C3070 C3064 1.465 . S
C3070 C3069 1.396 . S
C3070 C3071 1.399 . S
C3071 H3057 0.929 . S
C3071 C3070 1.399 . S
C3071 C3072 1.385 . S
C3072 H3058 0.931 . S
C3072 C3071 1.385 . S
C3072 C3073 1.389 . S
C3073 C3072 1.389 . S
C3073 C3074 1.387 . S
C3074 H3059 0.930 . S
C3074 C3069 1.390 . S
C3074 C3073 1.387 . S
H3075 C3087 0.930 . S
H3076 C3089 0.930 . S
H3077 C3090 0.930 . S
H3078 C3094 0.959 . S
H3079 C3094 0.959 . S
H3080 C3094 0.961 . S
H3081 C3095 0.960 . S
H3082 C3095 0.961 . S
H3083 C3095 0.959 . S
H3084 C3098 0.929 . S
H3085 C3099 0.931 . S
H3086 C3101 0.930 . S
C3087 H3075 0.930 . S
C3087 C3088 1.399 . S
C3087 C3092 1.399 . S
C3088 C3087 1.399 . S
C3088 C3089 1.376 . S
C3089 H3076 0.930 . S
C3089 C3088 1.376 . S
C3089 C3090 1.388 . S
C3090 H3077 0.930 . S
C3090 C3089 1.388 . S
C3090 C3091 1.390 . S
C3091 C3090 1.390 . S
C3091 C3092 1.394 . S
C3091 C3097 1.465 . S
C3092 C3087 1.399 . S
C3092 C3091 1.394 . S
C3092 C3093 1.516 . S
C3093 C3092 1.516 . S
C3093 C3094 1.502 . S
C3093 C3095 1.561 . S
C3093 C3096 1.526 . S
C3094 H3078 0.959 . S
C3094 H3079 0.959 . S
C3094 H3080 0.961 . S
C3094 C3093 1.502 . S
C3095 H3081 0.960 . S
C3095 H3082 0.961 . S
C3095 H3083 0.959 . S
C3095 C3093 1.561 . S
C3096 C3093 1.526 . S
C3096 C3097 1.396 . S
C3096 C3101 1.390 . S
C3097 C3091 1.465 . S
C3097 C3096 1.396 . S
C3097 C3098 1.399 . S
C3098 H3084 0.929 . S
C3098 C3097 1.399 . S
C3098 C3099 1.385 . S
C3099 H3085 0.931 . S
C3099 C3098 1.385 . S
C3099 C3100 1.389 . S
C3100 C3099 1.389 . S
C3100 C3101 1.387 . S
C3101 H3086 0.930 . S
C3101 C3096 1.390 . S
C3101 C3100 1.387 . S
H3102 C3114 0.930 . S
H3103 C3116 0.930 . S
H3104 C3117 0.930 . S
H3105 C3121 0.959 . S
H3106 C3121 0.959 . S
H3107 C3121 0.961 . S
H3108 C3122 0.960 . S
H3109 C3122 0.961 . S
H3110 C3122 0.959 . S
H3111 C3125 0.929 . S
H3112 C3126 0.931 . S
H3113 C3128 0.930 . S
C3114 H3102 0.930 . S
C3114 C3115 1.399 . S
C3114 C3119 1.399 . S
C3115 C3114 1.399 . S
C3115 C3116 1.376 . S
C3116 H3103 0.930 . S
C3116 C3115 1.376 . S
C3116 C3117 1.388 . S
C3117 H3104 0.930 . S
C3117 C3116 1.388 . S
C3117 C3118 1.390 . S
C3118 C3117 1.390 . S
C3118 C3119 1.394 . S
C3118 C3124 1.465 . S
C3119 C3114 1.399 . S
C3119 C3118 1.394 . S
C3119 C3120 1.516 . S
C3120 C3119 1.516 . S
C3120 C3121 1.502 . S
C3120 C3122 1.561 . S
C3120 C3123 1.525 1_565 S
C3121 H3105 0.959 . S
C3121 H3106 0.959 . S
C3121 H3107 0.961 . S
C3121 C3120 1.502 . S
C3122 H3108 0.960 . S
C3122 H3109 0.961 . S
C3122 H3110 0.959 . S
C3122 C3120 1.561 . S
C3123 C3120 1.525 1_545 S
C3123 C3124 1.396 1_545 S
C3123 C3128 1.391 . S
C3124 C3118 1.465 . S
C3124 C3123 1.396 1_565 S
C3124 C3125 1.399 1_565 S
C3125 H3111 0.929 . S
C3125 C3124 1.399 1_545 S
C3125 C3126 1.385 . S
C3126 H3112 0.931 . S
C3126 C3125 1.385 . S
C3126 C3127 1.389 . S
C3127 C3126 1.389 . S
C3127 C3128 1.387 . S
C3128 H3113 0.930 . S
C3128 C3123 1.391 . S
C3128 C3127 1.387 . S
H3129 C3141 0.930 . S
H3130 C3143 0.930 . S
H3131 C3144 0.930 . S
H3132 C3148 0.959 . S
H3133 C3148 0.959 . S
H3134 C3148 0.961 . S
H3135 C3149 0.960 . S
H3136 C3149 0.961 . S
H3137 C3149 0.959 . S
H3138 C3152 0.929 . S
H3139 C3153 0.931 . S
H3140 C3155 0.930 . S
C3141 H3129 0.930 . S
C3141 C3142 1.399 . S
C3141 C3146 1.399 . S
C3142 C3141 1.399 . S
C3142 C3143 1.376 . S
C3143 H3130 0.930 . S
C3143 C3142 1.376 . S
C3143 C3144 1.388 . S
C3144 H3131 0.930 . S
C3144 C3143 1.388 . S
C3144 C3145 1.390 . S
C3145 C3144 1.390 . S
C3145 C3146 1.394 . S
C3145 C3151 1.465 . S
C3146 C3141 1.399 . S
C3146 C3145 1.394 . S
C3146 C3147 1.516 . S
C3147 C3146 1.516 . S
C3147 C3148 1.502 . S
C3147 C3149 1.561 . S
C3147 C3150 1.526 . S
C3148 H3132 0.959 . S
C3148 H3133 0.959 . S
C3148 H3134 0.961 . S
C3148 C3147 1.502 . S
C3149 H3135 0.960 . S
C3149 H3136 0.961 . S
C3149 H3137 0.959 . S
C3149 C3147 1.561 . S
C3150 C3147 1.526 . S
C3150 C3151 1.396 . S
C3150 C3155 1.390 . S
C3151 C3145 1.465 . S
C3151 C3150 1.396 . S
C3151 C3152 1.399 . S
C3152 H3138 0.929 . S
C3152 C3151 1.399 . S
C3152 C3153 1.385 . S
C3153 H3139 0.931 . S
C3153 C3152 1.385 . S
C3153 C3154 1.389 . S
C3154 C3153 1.389 . S
C3154 C3155 1.387 . S
C3155 H3140 0.930 . S
C3155 C3150 1.390 . S
C3155 C3154 1.387 . S
H3156 C3168 0.930 . S
H3157 C3170 0.930 . S
H3158 C3171 0.930 . S
H3159 C3175 0.959 . S
H3160 C3175 0.959 . S
H3161 C3175 0.961 . S
H3162 C3176 0.960 . S
H3163 C3176 0.961 . S
H3164 C3176 0.959 . S
H3165 C3179 0.929 . S
H3166 C3180 0.931 . S
H3167 C3182 0.930 . S
C3168 H3156 0.930 . S
C3168 C3169 1.399 . S
C3168 C3173 1.399 . S
C3169 C3168 1.399 . S
C3169 C3170 1.376 . S
C3170 H3157 0.930 . S
C3170 C3169 1.376 . S
C3170 C3171 1.388 . S
C3171 H3158 0.930 . S
C3171 C3170 1.388 . S
C3171 C3172 1.390 . S
C3172 C3171 1.390 . S
C3172 C3173 1.394 . S
C3172 C3178 1.465 . S
C3173 C3168 1.399 . S
C3173 C3172 1.394 . S
C3173 C3174 1.516 . S
C3174 C3173 1.516 . S
C3174 C3175 1.502 . S
C3174 C3176 1.561 . S
C3174 C3177 1.526 . S
C3175 H3159 0.959 . S
C3175 H3160 0.959 . S
C3175 H3161 0.961 . S
C3175 C3174 1.502 . S
C3176 H3162 0.960 . S
C3176 H3163 0.961 . S
C3176 H3164 0.959 . S
C3176 C3174 1.561 . S
C3177 C3174 1.526 . S
C3177 C3178 1.396 . S
C3177 C3182 1.390 . S
C3178 C3172 1.465 . S
C3178 C3177 1.396 . S
C3178 C3179 1.399 . S
C3179 H3165 0.929 . S
C3179 C3178 1.399 . S
C3179 C3180 1.385 . S
C3180 H3166 0.931 . S
C3180 C3179 1.385 . S
C3180 C3181 1.389 . S
C3181 C3180 1.389 . S
C3181 C3182 1.387 . S
C3182 H3167 0.930 . S
C3182 C3177 1.390 . S
C3182 C3181 1.387 . S
H3183 C3195 0.930 . S
H3184 C3197 0.930 . S
H3185 C3198 0.930 . S
H3186 C3202 0.959 . S
H3187 C3202 0.959 . S
H3188 C3202 0.961 . S
H3189 C3203 0.960 . S
H3190 C3203 0.961 . S
H3191 C3203 0.959 . S
H3192 C3206 0.929 . S
H3193 C3207 0.931 . S
H3194 C3209 0.930 . S
C3195 H3183 0.930 . S
C3195 C3196 1.399 . S
C3195 C3200 1.399 . S
C3196 C3195 1.399 . S
C3196 C3197 1.376 . S
C3197 H3184 0.930 . S
C3197 C3196 1.376 . S
C3197 C3198 1.388 . S
C3198 H3185 0.930 . S
C3198 C3197 1.388 . S
C3198 C3199 1.390 . S
C3199 C3198 1.390 . S
C3199 C3200 1.394 . S
C3199 C3205 1.465 . S
C3200 C3195 1.399 . S
C3200 C3199 1.394 . S
C3200 C3201 1.516 . S
C3201 C3200 1.516 . S
C3201 C3202 1.502 . S
C3201 C3203 1.561 . S
C3201 C3204 1.526 . S
C3202 H3186 0.959 . S
C3202 H3187 0.959 . S
C3202 H3188 0.961 . S
C3202 C3201 1.502 . S
C3203 H3189 0.960 . S
C3203 H3190 0.961 . S
C3203 H3191 0.959 . S
C3203 C3201 1.561 . S
C3204 C3201 1.526 . S
C3204 C3205 1.396 . S
C3204 C3209 1.390 . S
C3205 C3199 1.465 . S
C3205 C3204 1.396 . S
C3205 C3206 1.399 . S
C3206 H3192 0.929 . S
C3206 C3205 1.399 . S
C3206 C3207 1.385 . S
C3207 H3193 0.931 . S
C3207 C3206 1.385 . S
C3207 C3208 1.389 . S
C3208 C3207 1.389 . S
C3208 C3209 1.387 . S
C3209 H3194 0.930 . S
C3209 C3204 1.390 . S
C3209 C3208 1.387 . S
H3210 C3222 0.930 . S
H3211 C3224 0.930 . S
H3212 C3225 0.941 . S
H3213 C3229 0.959 . S
H3214 C3229 0.959 . S
H3215 C3229 0.961 . S
H3216 C3230 0.960 . S
H3217 C3230 0.961 . S
H3218 C3230 0.959 . S
H3219 C3233 0.929 . S
H3220 C3234 0.931 . S
H3221 C3236 0.930 . S
C3222 H3210 0.930 . S
C3222 C3223 1.399 . S
C3222 C3227 1.387 1_565 S
C3223 C3222 1.399 . S
C3223 C3224 1.376 . S
C3224 H3211 0.930 . S
C3224 C3223 1.376 . S
C3224 C3225 1.388 . S
C3225 H3212 0.941 . S
C3225 C3224 1.388 . S
C3225 C3226 1.390 1_565 S
C3226 C3225 1.390 1_545 S
C3226 C3227 1.399 . S
C3226 C3232 1.465 . S
C3227 C3222 1.387 1_545 S
C3227 C3226 1.399 . S
C3227 C3228 1.525 . S
C3228 C3227 1.525 . S
C3228 C3229 1.502 . S
C3228 C3230 1.561 . S
C3228 C3231 1.526 . S
C3229 H3213 0.959 . S
C3229 H3214 0.959 . S
C3229 H3215 0.961 . S
C3229 C3228 1.502 . S
C3230 H3216 0.960 . S
C3230 H3217 0.961 . S
C3230 H3218 0.959 . S
C3230 C3228 1.561 . S
C3231 C3228 1.526 . S
C3231 C3232 1.396 . S
C3231 C3236 1.390 . S
C3232 C3226 1.465 . S
C3232 C3231 1.396 . S
C3232 C3233 1.399 . S
C3233 H3219 0.929 . S
C3233 C3232 1.399 . S
C3233 C3234 1.385 . S
C3234 H3220 0.931 . S
C3234 C3233 1.385 . S
C3234 C3235 1.389 . S
C3235 C3234 1.389 . S
C3235 C3236 1.387 . S
C3236 H3221 0.930 . S
C3236 C3231 1.390 . S
C3236 C3235 1.387 . S
H3237 C3249 0.930 . S
H3238 C3251 0.930 . S
H3239 C3252 0.930 . S
H3240 C3256 0.959 . S
H3241 C3256 0.959 . S
H3242 C3256 0.961 . S
H3243 C3257 0.960 . S
H3244 C3257 0.983 . S
H3245 C3257 0.959 . S
H3246 C3260 0.929 1_565 S
H3247 C3261 0.931 . S
H3248 C3263 0.930 . S
C3249 H3237 0.930 . S
C3249 C3250 1.399 . S
C3249 C3254 1.399 . S
C3250 C3249 1.399 . S
C3250 C3251 1.376 . S
C3251 H3238 0.930 . S
C3251 C3250 1.376 . S
C3251 C3252 1.388 . S
C3252 H3239 0.930 . S
C3252 C3251 1.388 . S
C3252 C3253 1.390 . S
C3253 C3252 1.390 . S
C3253 C3254 1.394 . S
C3253 C3259 1.465 . S
C3254 C3249 1.399 . S
C3254 C3253 1.394 . S
C3254 C3255 1.516 . S
C3255 C3254 1.516 . S
C3255 C3256 1.502 . S
C3255 C3257 1.561 . S
C3255 C3258 1.546 . S
C3256 H3240 0.959 . S
C3256 H3241 0.959 . S
C3256 H3242 0.961 . S
C3256 C3255 1.502 . S
C3257 H3243 0.960 . S
C3257 H3244 0.983 . S
C3257 H3245 0.959 . S
C3257 C3255 1.561 . S
C3258 C3255 1.546 . S
C3258 C3259 1.411 . S
C3258 C3263 1.359 1_565 S
C3259 C3253 1.465 . S
C3259 C3258 1.411 . S
C3259 C3260 1.399 1_565 S
C3260 H3246 0.929 1_545 S
C3260 C3259 1.399 1_545 S
C3260 C3261 1.385 . S
C3261 H3247 0.931 . S
C3261 C3260 1.385 . S
C3261 C3262 1.389 . S
C3262 C3261 1.389 . S
C3262 C3263 1.387 . S
C3263 H3248 0.930 . S
C3263 C3258 1.359 1_545 S
C3263 C3262 1.387 . S
C685 C594 1.265 . S
C697 C7 1.250 . S
C712 C23 1.497 . S
C724 C219 1.455 . S
C739 C34 1.184 . S
C751 C567 1.281 . S
C766 C50 1.522 . S
C778 C246 1.515 . S
C793 C624 1.547 . S
C805 C64 1.595 . S
C820 C77 1.456 . S
C832 C301 1.508 . S
C847 C93 1.645 . S
C859 C653 1.594 . S
C874 C105 1.433 . S
C886 C272 1.498 . S
C901 C49 1.166 . S
C913 C664 1.168 . S
C928 C8 1.377 . S
C940 C357 1.428 . S
C955 C373 1.367 . S
C967 C20 1.377 . S
C982 C37 1.512 . S
C994 C343 1.527 . S
C1009 C78 1.719 . S
C1021 C344 1.691 . S
C1036 C90 1.561 . S
C1048 C667 1.539 . S
C1063 C106 1.635 . S
C1075 C358 1.632 . S
C1090 C63 1.346 . S
C1102 C370 1.351 . S
C1117 C552 1.171 . S
C1129 C119 1.160 . S
C1144 C135 1.699 . S
C1156 C275 1.650 . S
C1171 C120 1.463 . S
C1183 C623 1.443 . S
C1198 C302 1.697 . S
C1210 C149 1.761 . S
C1225 C314 1.342 . S
C1237 C161 1.291 . S
C1252 C581 1.194 . S
C1264 C176 1.248 . S
C1279 C597 1.449 . S
C1291 C188 1.448 . S
C1306 C568 1.398 . S
C1318 C202 1.422 . S
C1333 C468 1.221 . S
C1345 C217 1.140 . S
C1360 C233 1.538 . S
C1372 C9 1.526 . S
C1387 C244 1.312 . S
C1399 C441 1.389 . S
C1414 C36 1.466 . S
C1426 C260 1.485 . S
C1441 C274 1.588 . S
C1453 C499 1.577 . S
C1468 C91 1.519 . S
C1480 C286 1.459 . S
C1495 C303 1.613 . S
C1507 C527 1.600 . S
C1522 C62 1.485 . S
C1534 C315 1.445 . S
C1549 C538 1.223 . S
C1561 C259 1.228 . S
C1576 C218 1.405 . S
C1588 C147 1.462 . S
C1603 C163 1.269 . S
C1615 C230 1.295 . S
C1630 C133 1.521 . S
C1642 C247 1.509 . S
C1657 C134 1.629 . S
C1669 C289 1.690 . S
C1684 C300 1.509 . S
C1696 C541 1.535 . S
C1711 C148 1.636 . S
C1723 C316 1.644 . S
C1738 C273 1.351 . S
C1750 C160 1.370 . S
C1765 C329 1.212 . S
C1777 C426 1.250 . S
C1792 C345 1.664 . S
C1804 C65 1.618 . S
C1819 C330 1.406 . S
C1831 C496 1.432 . S
C1846 C359 1.696 . S
C1858 C92 1.629 . S
C1873 C371 1.333 . S
C1885 C104 1.329 . S
C1900 C455 1.255 . S
C1912 C386 1.305 . S
C1927 C398 1.428 . S
C1939 C471 1.446 . S
C1954 C415 1.760 . S
C1966 C442 1.720 . S
C1981 C427 1.390 . S
C1993 C258 1.418 . S
C2008 C443 1.509 . S
C2020 C555 1.481 . S
C2035 C231 1.310 . S
C2047 C454 1.266 . S
C2062 C470 1.448 . S
C2074 C582 1.422 . S
C2089 C484 1.620 . S
C2101 C288 1.583 . S
C2116 C637 1.482 . S
C2128 C497 1.388 . S
C2143 C513 1.652 . S
C2155 C317 1.585 . S
C2170 C608 1.347 . S
C2182 C525 1.327 . S
C2197 C328 1.206 . S
C2209 C469 1.207 . S
C2224 C414 1.652 . S
C2236 C428 1.656 . S
C2251 C440 1.504 . S
C2263 C387 1.439 . S
C2278 C399 1.545 . S
C2290 C457 1.543 . S
C2305 C498 1.712 . S
C2317 C400 1.683 . S
C2332 C331 1.388 . S
C2344 C510 1.437 . S
C2359 C526 1.364 . S
C2371 C413 1.413 . S
C2386 C483 1.425 . S
C2398 C384 1.428 . S
C2413 C539 1.149 . S
C2425 C216 1.151 . S
C2440 C191 1.613 . S
C2452 C611 1.523 . S
C2467 C287 1.474 . S
C2479 C540 1.481 . S
C2494 C638 1.663 . S
C2506 C205 1.684 . S
C2521 C650 1.346 . S
C2533 C175 1.309 . S
C2548 C162 1.229 . S
C2560 C245 1.273 . S
C2575 C132 1.454 . S
C2587 C261 1.507 . S
C2602 C232 1.488 . S
C2614 C146 1.499 . S
C2629 C553 1.209 . S
C2641 C48 1.252 . S
C2656 C429 1.467 . S
C2668 C569 1.539 . S
C2683 C580 1.179 . S
C2695 C21 1.266 . S
C2710 C596 1.512 . S
C2722 C456 1.474 . S
C2737 C79 1.629 . S
C2749 C610 1.629 . S
C2764 C622 1.376 . S
C2776 C511 1.413 . S
C2791 C639 1.654 . S
C2803 C107 1.590 . S
C2818 C482 1.504 . S
C2830 C651 1.455 . S
C2845 C595 1.250 . S
C2857 C118 1.241 . S
C2872 C203 1.379 . S
C2884 C554 1.371 . S
C2899 C177 1.323 . S
C2911 C566 1.362 . S
C2926 C583 1.523 . S
C2938 C189 1.552 . S
C2953 C625 1.751 . S
C2965 C190 1.698 . S
C2980 C121 1.532 . S
C2992 C636 1.546 . S
C3007 C204 1.608 . S
C3019 C652 1.617 . S
C3034 C609 1.349 . S
C3046 C174 1.357 . S
C3061 C6 1.164 . S
C3073 C665 1.182 . S
C3088 C401 1.701 . S
C3100 C485 1.658 . S
C3115 C76 1.471 . S
C3127 C666 1.412 . S
C3142 C512 1.438 . S
C3154 C412 1.448 . S
C3169 C524 1.247 . S
C3181 C385 1.256 . S
C3196 C372 1.221 . S
C3208 C35 1.241 . S
C3223 C342 1.416 . S
C3235 C51 1.428 . S
C3250 C22 1.491 . S
C3262 C356 1.400 . S
