# Generated by pormake.
# Topology dmp, (4)-cn, num edge types: 1
# Building blocks:
#     Node 0, Type 0, BuildingBlock: KUFVIS_clean_sbu_0, # of connection points: 4
#     Node 1, Type 0, BuildingBlock: KUFVIS_clean_sbu_0, # of connection points: 4
#     Node 2, Type 0, BuildingBlock: KUFVIS_clean_sbu_0, # of connection points: 4
#     Node 3, Type 0, BuildingBlock: KUFVIS_clean_sbu_0, # of connection points: 4
#     Edge 4, Type (0, 0), BuildingBlock: XIVTED_clean_linker_0, # of connection points: 2
#     Edge 5, Type (0, 0), BuildingBlock: XIVTED_clean_linker_0, # of connection points: 2
#     Edge 6, Type (0, 0), BuildingBlock: XIVTED_clean_linker_0, # of connection points: 2
#     Edge 7, Type (0, 0), BuildingBlock: XIVTED_clean_linker_0, # of connection points: 2
#     Edge 8, Type (0, 0), BuildingBlock: XIVTED_clean_linker_0, # of connection points: 2
#     Edge 9, Type (0, 0), BuildingBlock: XIVTED_clean_linker_0, # of connection points: 2
#     Edge 10, Type (0, 0), BuildingBlock: XIVTED_clean_linker_0, # of connection points: 2
#     Edge 11, Type (0, 0), BuildingBlock: XIVTED_clean_linker_0, # of connection points: 2
# Relax obj value: 0.123
# Max RMSD: 0.219
# Mean RMSD: 0.219
data_MOF--net-dmp--node1-KUFVIS_clean_sbu_0--edge1-XIVTED_clean_linker_0
_symmetry_space_group_name_H-M    P1
_symmetry_Int_Tables_number       1
_symmetry_cell_setting            triclinic
loop_
_symmetry_equiv_pos_as_xyz
'x, y, z'
_cell_length_a     39.349854
_cell_length_b     18.672085
_cell_length_c     15.678483
_cell_angle_alpha  89.974253
_cell_angle_beta   90.070169
_cell_angle_gamma 94.693661
loop_
_atom_site_label
_atom_site_type_symbol
_atom_site_fract_x
_atom_site_fract_y
_atom_site_fract_z
_atom_type_partial_charge
Mn0 Mn 0.1037 0.23053 0.33911 0.0
Mn1 Mn 0.16017 0.20367 0.18222 0.0
C2 C 0.15022 0.31046 0.32082 0.0
C3 C 0.05527 0.28354 0.38372 0.0
C4 C 0.15904 0.12576 0.35223 0.0
O5 O 0.07783 0.15542 0.26493 0.0
O6 O 0.11623 0.14692 0.15972 0.0
C7 C 0.12484 0.27266 0.04114 0.0
N8 N 0.15326 0.26766 0.08973 0.0
C9 C 0.18387 0.36312 0.01121 0.0
C10 C 0.155 0.36892 0.95995 0.0
C11 C 0.12535 0.32356 0.9751 0.0
C12 C 0.18192 0.31112 0.07579 0.0
H13 H 0.10193 0.23817 0.05283 0.0
C14 C 0.08703 0.13048 0.19356 0.0
O15 O 0.06635 0.23003 0.42581 0.0
O16 O 0.0705 0.30119 0.3128 0.0
N17 N 0.20394 0.25569 0.19431 0.0
C18 C 0.22923 0.24497 0.25124 0.0
C19 C 0.26038 0.28716 0.24598 0.0
C20 C 0.26542 0.33918 0.18153 0.0
C21 C 0.23934 0.34815 0.12245 0.0
C22 C 0.2089 0.30419 0.13054 0.0
H23 H 0.22563 0.20487 0.30059 0.0
O24 O 0.1338 0.30768 0.39235 0.0
O25 O 0.13842 0.26771 0.26027 0.0
O26 O 0.13449 0.15589 0.38679 0.0
O27 O 0.16957 0.1381 0.27616 0.0
C28 C 0.24204 0.40014 0.05711 0.0
C29 C 0.2143 0.40771 0.00166 0.0
H30 H 0.15522 0.40838 0.90923 0.0
H31 H 0.1029 0.32797 0.93608 0.0
H32 H 0.28044 0.27967 0.29162 0.0
H33 H 0.28935 0.37215 0.17824 0.0
H34 H 0.26516 0.43525 0.04972 0.0
H35 H 0.21651 0.44844 0.95233 0.0
Mn36 Mn 0.39326 0.74721 0.31044 0.0
Mn37 Mn 0.33638 0.79049 0.16078 0.0
C38 C 0.34157 0.68259 0.30052 0.0
C39 C 0.43798 0.68022 0.35071 0.0
C40 C 0.34648 0.86902 0.32929 0.0
O41 O 0.42219 0.81331 0.23141 0.0
O42 O 0.38262 0.834 0.13259 0.0
C43 C 0.36358 0.71002 0.01685 0.0
N44 N 0.33708 0.72368 0.06855 0.0
C45 C 0.29942 0.63591 0.99554 0.0
C46 C 0.32625 0.6213 0.94113 0.0
C47 C 0.35847 0.65844 0.95194 0.0
C48 C 0.30599 0.68813 0.05883 0.0
H49 H 0.38845 0.73812 0.02519 0.0
C50 C 0.41314 0.84117 0.16151 0.0
O51 O 0.43167 0.73801 0.39216 0.0
O52 O 0.42021 0.6654 0.28252 0.0
N53 N 0.29033 0.75166 0.17825 0.0
C54 C 0.26728 0.77099 0.23704 0.0
C55 C 0.23395 0.73779 0.23595 0.0
C56 C 0.22447 0.68591 0.17366 0.0
C57 C 0.24833 0.66827 0.11239 0.0
C58 C 0.28112 0.70355 0.11628 0.0
H59 H 0.27432 0.81104 0.2848 0.0
O60 O 0.35961 0.6805 0.36943 0.0
O61 O 0.35482 0.72025 0.23717 0.0
O62 O 0.36951 0.83207 0.36025 0.0
O63 O 0.33344 0.85937 0.25507 0.0
C64 C 0.24104 0.61616 0.04854 0.0
C65 C 0.26659 0.59994 0.99025 0.0
H66 H 0.32246 0.5813 0.89125 0.0
H67 H 0.37935 0.6472 0.91048 0.0
H68 H 0.21563 0.75204 0.28317 0.0
H69 H 0.19884 0.65989 0.17357 0.0
H70 H 0.21597 0.58775 0.04417 0.0
H71 H 0.26079 0.55932 0.94192 0.0
Mn72 Mn 0.89319 0.74549 0.69395 0.0
Mn73 Mn 0.83617 0.78944 0.84245 0.0
C74 C 0.84164 0.68047 0.70391 0.0
C75 C 0.93817 0.67878 0.65547 0.0
C76 C 0.84639 0.86696 0.67329 0.0
O77 O 0.92183 0.81279 0.77241 0.0
O78 O 0.8824 0.83253 0.87171 0.0
C79 C 0.86265 0.70882 0.98743 0.0
N80 N 0.83638 0.72271 0.93491 0.0
C81 C 0.79827 0.63534 0.00706 0.0
C82 C 0.82485 0.6205 0.06231 0.0
C83 C 0.85718 0.65733 0.05234 0.0
C84 C 0.80518 0.68748 0.94383 0.0
H85 H 0.8876 0.73668 0.97971 0.0
C86 C 0.91284 0.84023 0.84255 0.0
O87 O 0.93172 0.73599 0.61295 0.0
O88 O 0.9204 0.66446 0.72369 0.0
N89 N 0.79012 0.75104 0.8237 0.0
C90 C 0.76738 0.77043 0.764 0.0
C91 C 0.73399 0.73752 0.76416 0.0
C92 C 0.72415 0.68581 0.82638 0.0
C93 C 0.74771 0.66806 0.88851 0.0
C94 C 0.78057 0.70309 0.88556 0.0
H95 H 0.7747 0.81028 0.71619 0.0
O96 O 0.85983 0.67776 0.63545 0.0
O97 O 0.85472 0.71885 0.76694 0.0
O98 O 0.86915 0.82931 0.64248 0.0
O99 O 0.8337 0.85836 0.74795 0.0
C100 C 0.74007 0.61605 0.95231 0.0
C101 C 0.76535 0.59964 0.01144 0.0
H102 H 0.82079 0.58054 0.11217 0.0
H103 H 0.87787 0.6459 0.09445 0.0
H104 H 0.71591 0.75182 0.71625 0.0
H105 H 0.69848 0.65997 0.82573 0.0
H106 H 0.71495 0.58783 0.95597 0.0
H107 H 0.75928 0.55908 0.05967 0.0
Mn108 Mn 0.6038 0.2286 0.66272 0.0
Mn109 Mn 0.66049 0.20159 0.81953 0.0
C110 C 0.65055 0.30807 0.68074 0.0
C111 C 0.55561 0.28241 0.61748 0.0
C112 C 0.65921 0.12383 0.64951 0.0
O113 O 0.57773 0.15428 0.73731 0.0
O114 O 0.61668 0.14399 0.84104 0.0
C115 C 0.62461 0.26899 0.96063 0.0
N116 N 0.65316 0.26483 0.91242 0.0
C117 C 0.68323 0.3604 0.99203 0.0
C118 C 0.65423 0.36533 0.04288 0.0
C119 C 0.62478 0.3195 0.027 0.0
C120 C 0.68161 0.30877 0.92708 0.0
H121 H 0.60186 0.23415 0.9484 0.0
C122 C 0.58725 0.12834 0.80791 0.0
O123 O 0.56641 0.22839 0.57592 0.0
O124 O 0.57095 0.3001 0.68831 0.0
N125 N 0.70413 0.25437 0.80868 0.0
C126 C 0.72967 0.24421 0.75244 0.0
C127 C 0.76067 0.28685 0.75856 0.0
C128 C 0.76533 0.3387 0.82327 0.0
C129 C 0.73903 0.347 0.88177 0.0
C130 C 0.70875 0.30263 0.87279 0.0
H131 H 0.72638 0.20413 0.70306 0.0
O132 O 0.63417 0.30502 0.60904 0.0
O133 O 0.63866 0.2657 0.74153 0.0
O134 O 0.63418 0.15296 0.61566 0.0
O135 O 0.67028 0.13701 0.72501 0.0
C136 C 0.74138 0.39868 0.94743 0.0
C137 C 0.71347 0.40548 0.00238 0.0
H138 H 0.65419 0.40447 0.09386 0.0
H139 H 0.60224 0.32323 0.06571 0.0
H140 H 0.78091 0.27981 0.71342 0.0
H141 H 0.78915 0.372 0.82726 0.0
H142 H 0.76437 0.4341 0.95549 0.0
H143 H 0.71541 0.44596 0.05198 0.0
H144 H 0.34617 0.01486 0.32692 0.0
H145 H 0.20645 0.17871 0.4644 0.0
H146 H 0.3018 0.82387 0.45101 0.0
H147 H 0.16421 0.98126 0.35046 0.0
H148 H 0.25823 0.12008 0.50101 0.0
H149 H 0.2989 0.08056 0.37938 0.0
C150 C 0.32739 0.98793 0.36898 0.0
C151 C 0.328 0.9145 0.38615 0.0
C152 C 0.23695 0.08892 0.47149 0.0
C153 C 0.27325 0.98757 0.44207 0.0
C154 C 0.20732 0.12185 0.45159 0.0
C155 C 0.18114 0.08429 0.40497 0.0
C156 C 0.23988 0.01782 0.44567 0.0
C157 C 0.1838 0.01153 0.38718 0.0
C158 C 0.30037 0.02515 0.39855 0.0
C159 C 0.30241 0.88097 0.43813 0.0
N160 N 0.21293 0.98067 0.40682 0.0
N161 N 0.27527 0.91705 0.46156 0.0
H162 H 0.15664 0.41043 0.19464 0.0
H163 H 0.2901 0.67408 0.41354 0.0
H164 H 0.20311 0.34148 0.42653 0.0
H165 H 0.32425 0.58218 0.17969 0.0
H166 H 0.24043 0.58519 0.41362 0.0
H167 H 0.20226 0.50881 0.18231 0.0
C168 C 0.17684 0.4155 0.24176 0.0
C169 C 0.17761 0.36652 0.3092 0.0
C170 C 0.2585 0.58609 0.36145 0.0
C171 C 0.22736 0.47923 0.29864 0.0
C172 C 0.28654 0.6362 0.36131 0.0
C173 C 0.31013 0.63645 0.29469 0.0
C174 C 0.25444 0.53653 0.29471 0.0
C175 C 0.30553 0.58509 0.22985 0.0
C176 C 0.20232 0.47153 0.23523 0.0
C177 C 0.20265 0.37726 0.37221 0.0
N178 N 0.27782 0.53688 0.23097 0.0
N179 N 0.2268 0.43281 0.36541 0.0
H180 H 0.65938 0.9782 0.64062 0.0
H181 H 0.80596 0.82084 0.54253 0.0
H182 H 0.71048 0.17568 0.54807 0.0
H183 H 0.84107 0.01134 0.68215 0.0
H184 H 0.75662 0.88184 0.4926 0.0
H185 H 0.70921 0.91492 0.60018 0.0
C186 C 0.68041 0.00734 0.60773 0.0
C187 C 0.68088 0.08175 0.59647 0.0
C188 C 0.77599 0.91114 0.53097 0.0
C189 C 0.73822 0.01116 0.55432 0.0
C190 C 0.80433 0.87694 0.55845 0.0
C191 C 0.82757 0.9116 0.61596 0.0
C192 C 0.7715 0.98069 0.56014 0.0
C193 C 0.82379 0.9833 0.63727 0.0
C194 C 0.70886 0.97147 0.58501 0.0
C195 C 0.70919 0.11793 0.55655 0.0
N196 N 0.79597 0.01541 0.60998 0.0
N197 N 0.73735 0.08281 0.53983 0.0
H198 H 0.79042 0.67221 0.58999 0.0
H199 H 0.65667 0.40782 0.80706 0.0
H200 H 0.82387 0.58054 0.82499 0.0
H201 H 0.70339 0.34001 0.57533 0.0
H202 H 0.70211 0.50651 0.82009 0.0
H203 H 0.74072 0.58343 0.589 0.0
C204 C 0.78669 0.63442 0.64229 0.0
C205 C 0.8101 0.63468 0.70946 0.0
C206 C 0.70226 0.46942 0.76703 0.0
C207 C 0.75437 0.53487 0.7084 0.0
C208 C 0.67688 0.41323 0.76009 0.0
C209 C 0.67778 0.36446 0.69253 0.0
C210 C 0.72733 0.47751 0.70389 0.0
C211 C 0.70283 0.37561 0.62974 0.0
C212 C 0.75863 0.58437 0.64162 0.0
C213 C 0.80529 0.58344 0.77439 0.0
N214 N 0.72689 0.43132 0.63695 0.0
N215 N 0.77756 0.53528 0.77274 0.0
H216 H 0.09722 0.06457 0.04073 0.0
H217 H 0.90404 0.90102 0.99878 0.0
H218 H 0.02044 0.08767 0.23344 0.0
H219 H 0.98082 0.87379 0.80721 0.0
H220 H 0.94671 0.96778 0.0861 0.0
H221 H 0.05545 0.99211 0.95614 0.0
C222 C 0.07163 0.05417 0.06567 0.0
C223 C 0.06236 0.08262 0.1445 0.0
C224 C 0.95427 0.94724 0.02501 0.0
C225 C 0.0143 -0.0003 0.04717 0.0
C226 C 0.92987 0.90915 0.97476 0.0
C227 C 0.93876 0.8818 0.89506 0.0
C228 C 0.98793 0.95835 0.99566 0.0
C229 C 0.97273 0.89395 0.86799 0.0
C230 C 0.04777 0.01277 0.01706 0.0
C231 C 0.0288 0.06703 0.17316 0.0
N232 N 0.99609 0.93144 0.91821 0.0
N233 N 0.00596 0.02685 0.12433 0.0
H234 H 0.59785 0.06137 0.96002 0.0
H235 H 0.40411 0.9026 0.00565 0.0
H236 H 0.5204 0.08678 0.76918 0.0
H237 H 0.48136 0.87319 0.19585 0.0
H238 H 0.44679 0.96831 0.91763 0.0
H239 H 0.55611 0.98958 0.04532 0.0
C240 C 0.57213 0.05157 0.93562 0.0
C241 C 0.56265 0.08052 0.85714 0.0
C242 C 0.45446 0.94754 0.97858 0.0
C243 C 0.51463 -0.00157 0.95528 0.0
C244 C 0.43005 0.91005 0.02925 0.0
C245 C 0.43906 0.88237 0.10876 0.0
C246 C 0.48826 0.95773 0.0073 0.0
C247 C 0.47317 0.89364 0.13524 0.0
C248 C 0.54828 0.01058 0.98464 0.0
C249 C 0.52892 0.06575 0.82917 0.0
N250 N 0.49654 0.93056 0.08461 0.0
N251 N 0.50611 0.02598 0.87839 0.0
H252 H 0.95912 0.56031 0.73577 0.0
H253 H 0.02498 0.39114 0.30407 0.0
H254 H 0.96446 0.67156 0.49424 0.0
H255 H 0.0336 0.29012 0.5499 0.0
H256 H -0.00205 0.48914 0.3719 0.0
H257 H 0.98451 0.45904 0.66943 0.0
C258 C 0.96619 0.56398 0.66906 0.0
C259 C 0.95968 0.62458 0.62043 0.0
C260 C 0.00544 0.4453 0.41106 0.0
C261 C 0.98796 0.50796 0.54365 0.0
C262 C 0.02057 0.38883 0.37224 0.0
C263 C 0.03172 0.33244 0.42147 0.0
C264 C 0.0014 0.44565 0.49995 0.0
C265 C 0.0253 0.33237 0.50949 0.0
C266 C 0.98043 0.50584 0.63111 0.0
C267 C 0.9692 0.62618 0.53426 0.0
N268 N 0.01083 0.38856 0.54611 0.0
N269 N 0.98259 0.56844 0.49845 0.0
H270 H 0.46641 0.67743 0.51024 0.0
H271 H 0.53158 0.28465 0.45281 0.0
H272 H 0.4569 0.55825 0.27443 0.0
H273 H 0.52807 0.39484 0.69419 0.0
H274 H 0.5042 0.38346 0.38517 0.0
H275 H 0.4922 0.57628 0.57632 0.0
C276 C 0.47033 0.63058 0.47191 0.0
C277 C 0.45947 0.6263 0.38675 0.0
C278 C 0.5091 0.38554 0.45313 0.0
C279 C 0.48825 0.50961 0.46238 0.0
C280 C 0.52436 0.32873 0.49192 0.0
C281 C 0.53224 0.3316 0.57919 0.0
C282 C 0.50189 0.44562 0.502 0.0
C283 C 0.52262 0.39046 0.62661 0.0
C284 C 0.48468 0.57242 0.50993 0.0
C285 C 0.46488 0.56385 0.34036 0.0
N286 N 0.5083 0.44537 0.5873 0.0
N287 N 0.47873 0.50785 0.37886 0.0
loop_
_geom_bond_atom_site_label_1
_geom_bond_atom_site_label_2
_geom_bond_distance
_geom_bond_site_symmetry_2
_ccdc_geom_bond_type
Mn0 O5 2.095 . S
Mn0 O15 2.162 . S
Mn0 O16 2.297 . S
Mn0 O24 2.385 . S
Mn0 O25 2.209 . S
Mn0 O26 2.094 . S
Mn1 O6 2.121 . S
Mn1 N8 2.257 . S
Mn1 N17 2.282 . S
Mn1 O25 2.215 . S
Mn1 O27 2.117 . S
C2 O24 1.234 . S
C2 O25 1.283 . S
C3 O15 1.281 . S
C3 O16 1.236 . S
C4 O26 1.240 . S
C4 O27 1.264 . S
O5 Mn0 2.095 . S
O5 C14 1.250 . S
O6 Mn1 2.121 . S
O6 C14 1.258 . S
C7 N8 1.326 1_556 S
C7 C11 1.460 . S
C7 H13 0.929 . S
N8 Mn1 2.257 . S
N8 C7 1.326 1_554 S
N8 C12 1.362 . S
C9 C10 1.258 . S
C9 C12 1.431 1_556 S
C9 C29 1.449 . S
C10 C9 1.258 . S
C10 C11 1.477 . S
C10 H30 0.931 . S
C11 C7 1.460 . S
C11 C10 1.477 . S
C11 H31 0.930 . S
C12 N8 1.362 . S
C12 C9 1.431 1_554 S
C12 C22 1.476 . S
H13 C7 0.929 . S
C14 O5 1.250 . S
C14 O6 1.258 . S
O15 Mn0 2.162 . S
O15 C3 1.281 . S
O16 Mn0 2.297 . S
O16 C3 1.236 . S
N17 Mn1 2.282 . S
N17 C18 1.328 . S
N17 C22 1.318 . S
C18 N17 1.328 . S
C18 C19 1.457 . S
C18 H23 0.929 . S
C19 C18 1.457 . S
C19 C20 1.291 . S
C19 H32 0.931 . S
C20 C19 1.291 . S
C20 C21 1.373 . S
C20 H33 0.929 . S
C21 C20 1.373 . S
C21 C22 1.396 . S
C21 C28 1.403 1_554 S
C22 C12 1.476 . S
C22 N17 1.318 . S
C22 C21 1.396 . S
H23 C18 0.929 . S
O24 Mn0 2.385 . S
O24 C2 1.234 . S
O25 Mn0 2.209 . S
O25 Mn1 2.215 . S
O25 C2 1.283 . S
O26 Mn0 2.094 . S
O26 C4 1.240 . S
O27 Mn1 2.117 . S
O27 C4 1.264 . S
C28 C21 1.403 1_556 S
C28 C29 1.399 . S
C28 H34 0.929 . S
C29 C9 1.449 . S
C29 C28 1.399 . S
C29 H35 0.930 . S
H30 C10 0.931 . S
H31 C11 0.930 . S
H32 C19 0.931 . S
H33 C20 0.929 . S
H34 C28 0.929 . S
H35 C29 0.930 . S
Mn36 O41 2.095 . S
Mn36 O51 2.162 . S
Mn36 O52 2.297 . S
Mn36 O60 2.385 . S
Mn36 O61 2.209 . S
Mn36 O62 2.094 . S
Mn37 O42 2.121 . S
Mn37 N44 2.257 . S
Mn37 N53 2.282 . S
Mn37 O61 2.215 . S
Mn37 O63 2.117 . S
C38 O60 1.234 . S
C38 O61 1.283 . S
C39 O51 1.281 . S
C39 O52 1.236 . S
C40 O62 1.240 . S
C40 O63 1.264 . S
O41 Mn36 2.095 . S
O41 C50 1.250 . S
O42 Mn37 2.121 . S
O42 C50 1.258 . S
C43 N44 1.326 1_556 S
C43 C47 1.460 . S
C43 H49 0.929 . S
N44 Mn37 2.257 . S
N44 C43 1.326 1_554 S
N44 C48 1.362 . S
C45 C46 1.258 . S
C45 C48 1.431 1_556 S
C45 C65 1.449 . S
C46 C45 1.258 . S
C46 C47 1.477 . S
C46 H66 0.931 . S
C47 C43 1.460 . S
C47 C46 1.477 . S
C47 H67 0.930 . S
C48 N44 1.362 . S
C48 C45 1.431 1_554 S
C48 C58 1.476 . S
H49 C43 0.929 . S
C50 O41 1.250 . S
C50 O42 1.258 . S
O51 Mn36 2.162 . S
O51 C39 1.281 . S
O52 Mn36 2.297 . S
O52 C39 1.236 . S
N53 Mn37 2.282 . S
N53 C54 1.328 . S
N53 C58 1.318 . S
C54 N53 1.328 . S
C54 C55 1.457 . S
C54 H59 0.929 . S
C55 C54 1.457 . S
C55 C56 1.291 . S
C55 H68 0.931 . S
C56 C55 1.291 . S
C56 C57 1.373 . S
C56 H69 0.929 . S
C57 C56 1.373 . S
C57 C58 1.396 . S
C57 C64 1.403 1_554 S
C58 C48 1.476 . S
C58 N53 1.318 . S
C58 C57 1.396 . S
H59 C54 0.929 . S
O60 Mn36 2.385 . S
O60 C38 1.234 . S
O61 Mn36 2.209 . S
O61 Mn37 2.215 . S
O61 C38 1.283 . S
O62 Mn36 2.094 . S
O62 C40 1.240 . S
O63 Mn37 2.117 . S
O63 C40 1.264 . S
C64 C57 1.403 1_556 S
C64 C65 1.399 . S
C64 H70 0.929 . S
C65 C45 1.449 . S
C65 C64 1.399 . S
C65 H71 0.930 . S
H66 C46 0.931 . S
H67 C47 0.930 . S
H68 C55 0.931 . S
H69 C56 0.929 . S
H70 C64 0.929 . S
H71 C65 0.930 . S
Mn72 O77 2.095 . S
Mn72 O87 2.162 . S
Mn72 O88 2.297 . S
Mn72 O96 2.385 . S
Mn72 O97 2.209 . S
Mn72 O98 2.094 . S
Mn73 O78 2.121 . S
Mn73 N80 2.257 . S
Mn73 N89 2.282 . S
Mn73 O97 2.215 . S
Mn73 O99 2.117 . S
C74 O96 1.234 . S
C74 O97 1.283 . S
C75 O87 1.281 . S
C75 O88 1.236 . S
C76 O98 1.240 . S
C76 O99 1.264 . S
O77 Mn72 2.095 . S
O77 C86 1.250 . S
O78 Mn73 2.121 . S
O78 C86 1.258 . S
C79 N80 1.326 1_554 S
C79 C83 1.460 . S
C79 H85 0.929 . S
N80 Mn73 2.257 . S
N80 C79 1.326 1_556 S
N80 C84 1.362 . S
C81 C82 1.258 . S
C81 C84 1.431 1_554 S
C81 C101 1.449 . S
C82 C81 1.258 . S
C82 C83 1.477 . S
C82 H102 0.931 . S
C83 C79 1.460 . S
C83 C82 1.477 . S
C83 H103 0.930 . S
C84 N80 1.362 . S
C84 C81 1.431 1_556 S
C84 C94 1.476 . S
H85 C79 0.929 . S
C86 O77 1.250 . S
C86 O78 1.258 . S
O87 Mn72 2.162 . S
O87 C75 1.281 . S
O88 Mn72 2.297 . S
O88 C75 1.236 . S
N89 Mn73 2.282 . S
N89 C90 1.328 . S
N89 C94 1.318 . S
C90 N89 1.328 . S
C90 C91 1.457 . S
C90 H95 0.929 . S
C91 C90 1.457 . S
C91 C92 1.291 . S
C91 H104 0.931 . S
C92 C91 1.291 . S
C92 C93 1.373 . S
C92 H105 0.929 . S
C93 C92 1.373 . S
C93 C94 1.396 . S
C93 C100 1.403 1_556 S
C94 C84 1.476 . S
C94 N89 1.318 . S
C94 C93 1.396 . S
H95 C90 0.929 . S
O96 Mn72 2.385 . S
O96 C74 1.234 . S
O97 Mn72 2.209 . S
O97 Mn73 2.215 . S
O97 C74 1.283 . S
O98 Mn72 2.094 . S
O98 C76 1.240 . S
O99 Mn73 2.117 . S
O99 C76 1.264 . S
C100 C93 1.403 1_554 S
C100 C101 1.399 . S
C100 H106 0.929 . S
C101 C81 1.449 . S
C101 C100 1.399 . S
C101 H107 0.930 . S
H102 C82 0.931 . S
H103 C83 0.930 . S
H104 C91 0.931 . S
H105 C92 0.929 . S
H106 C100 0.929 . S
H107 C101 0.930 . S
Mn108 O113 2.095 . S
Mn108 O123 2.162 . S
Mn108 O124 2.297 . S
Mn108 O132 2.385 . S
Mn108 O133 2.209 . S
Mn108 O134 2.094 . S
Mn109 O114 2.121 . S
Mn109 N116 2.257 . S
Mn109 N125 2.282 . S
Mn109 O133 2.215 . S
Mn109 O135 2.117 . S
C110 O132 1.234 . S
C110 O133 1.283 . S
C111 O123 1.281 . S
C111 O124 1.236 . S
C112 O134 1.240 . S
C112 O135 1.264 . S
O113 Mn108 2.095 . S
O113 C122 1.250 . S
O114 Mn109 2.121 . S
O114 C122 1.258 . S
C115 N116 1.326 1_554 S
C115 C119 1.460 . S
C115 H121 0.929 . S
N116 Mn109 2.257 . S
N116 C115 1.326 1_556 S
N116 C120 1.362 . S
C117 C118 1.258 . S
C117 C120 1.431 1_554 S
C117 C137 1.449 . S
C118 C117 1.258 . S
C118 C119 1.477 . S
C118 H138 0.931 . S
C119 C115 1.460 . S
C119 C118 1.477 . S
C119 H139 0.930 . S
C120 N116 1.362 . S
C120 C117 1.431 1_556 S
C120 C130 1.476 . S
H121 C115 0.929 . S
C122 O113 1.250 . S
C122 O114 1.258 . S
O123 Mn108 2.162 . S
O123 C111 1.281 . S
O124 Mn108 2.297 . S
O124 C111 1.236 . S
N125 Mn109 2.282 . S
N125 C126 1.328 . S
N125 C130 1.318 . S
C126 N125 1.328 . S
C126 C127 1.457 . S
C126 H131 0.929 . S
C127 C126 1.457 . S
C127 C128 1.291 . S
C127 H140 0.931 . S
C128 C127 1.291 . S
C128 C129 1.373 . S
C128 H141 0.929 . S
C129 C128 1.373 . S
C129 C130 1.396 . S
C129 C136 1.403 1_556 S
C130 C120 1.476 . S
C130 N125 1.318 . S
C130 C129 1.396 . S
H131 C126 0.929 . S
O132 Mn108 2.385 . S
O132 C110 1.234 . S
O133 Mn108 2.209 . S
O133 Mn109 2.215 . S
O133 C110 1.283 . S
O134 Mn108 2.094 . S
O134 C112 1.240 . S
O135 Mn109 2.117 . S
O135 C112 1.264 . S
C136 C129 1.403 1_554 S
C136 C137 1.399 . S
C136 H142 0.929 . S
C137 C117 1.449 . S
C137 C136 1.399 . S
C137 H143 0.930 . S
H138 C118 0.931 . S
H139 C119 0.930 . S
H140 C127 0.931 . S
H141 C128 0.929 . S
H142 C136 0.929 . S
H143 C137 0.930 . S
H144 C150 0.930 . S
H145 C154 0.930 . S
H146 C159 0.929 . S
H147 C157 0.929 . S
H148 C152 0.929 1_565 S
H149 C158 0.929 1_545 S
C150 H144 0.930 . S
C150 C151 1.367 . S
C150 C158 1.378 . S
C151 C150 1.367 . S
C151 C159 1.433 . S
C152 H148 0.929 1_545 S
C152 C154 1.378 . S
C152 C156 1.350 . S
C153 C156 1.463 1_565 S
C153 C158 1.350 . S
C153 N161 1.427 . S
C154 H145 0.930 . S
C154 C152 1.378 . S
C154 C155 1.367 . S
C155 C154 1.367 . S
C155 C157 1.433 . S
C156 C152 1.350 . S
C156 C153 1.463 1_545 S
C156 N160 1.427 . S
C157 H147 0.929 . S
C157 C155 1.433 . S
C157 N160 1.384 . S
C158 H149 0.929 1_565 S
C158 C150 1.378 . S
C158 C153 1.350 . S
C159 H146 0.929 . S
C159 C151 1.433 . S
C159 N161 1.384 . S
N160 C156 1.427 . S
N160 C157 1.384 . S
N161 C153 1.427 . S
N161 C159 1.384 . S
H162 C168 0.930 . S
H163 C172 0.930 . S
H164 C177 0.929 . S
H165 C175 0.929 . S
H166 C170 0.929 . S
H167 C176 0.929 . S
C168 H162 0.930 . S
C168 C169 1.367 . S
C168 C176 1.378 . S
C169 C168 1.367 . S
C169 C177 1.433 . S
C170 H166 0.929 . S
C170 C172 1.378 . S
C170 C174 1.350 . S
C171 C174 1.463 . S
C171 C176 1.350 . S
C171 N179 1.427 . S
C172 H163 0.930 . S
C172 C170 1.378 . S
C172 C173 1.367 . S
C173 C172 1.367 . S
C173 C175 1.433 . S
C174 C170 1.350 . S
C174 C171 1.463 . S
C174 N178 1.427 . S
C175 H165 0.929 . S
C175 C173 1.433 . S
C175 N178 1.384 . S
C176 H167 0.929 . S
C176 C168 1.378 . S
C176 C171 1.350 . S
C177 H164 0.929 . S
C177 C169 1.433 . S
C177 N179 1.384 . S
N178 C174 1.427 . S
N178 C175 1.384 . S
N179 C171 1.427 . S
N179 C177 1.384 . S
H180 C186 0.930 . S
H181 C190 0.930 . S
H182 C195 0.929 . S
H183 C193 0.929 . S
H184 C188 0.929 1_545 S
H185 C194 0.929 1_565 S
C186 H180 0.930 . S
C186 C187 1.367 . S
C186 C194 1.378 . S
C187 C186 1.367 . S
C187 C195 1.433 . S
C188 H184 0.929 1_565 S
C188 C190 1.378 . S
C188 C192 1.350 . S
C189 C192 1.463 1_545 S
C189 C194 1.350 . S
C189 N197 1.427 . S
C190 H181 0.930 . S
C190 C188 1.378 . S
C190 C191 1.367 . S
C191 C190 1.367 . S
C191 C193 1.433 . S
C192 C188 1.350 . S
C192 C189 1.463 1_565 S
C192 N196 1.427 . S
C193 H183 0.929 . S
C193 C191 1.433 . S
C193 N196 1.384 . S
C194 H185 0.929 1_545 S
C194 C186 1.378 . S
C194 C189 1.350 . S
C195 H182 0.929 . S
C195 C187 1.433 . S
C195 N197 1.384 . S
N196 C192 1.427 . S
N196 C193 1.384 . S
N197 C189 1.427 . S
N197 C195 1.384 . S
H198 C204 0.930 . S
H199 C208 0.930 . S
H200 C213 0.929 . S
H201 C211 0.929 . S
H202 C206 0.929 . S
H203 C212 0.929 . S
C204 H198 0.930 . S
C204 C205 1.367 . S
C204 C212 1.378 . S
C205 C204 1.367 . S
C205 C213 1.433 . S
C206 H202 0.929 . S
C206 C208 1.378 . S
C206 C210 1.350 . S
C207 C210 1.463 . S
C207 C212 1.350 . S
C207 N215 1.427 . S
C208 H199 0.930 . S
C208 C206 1.378 . S
C208 C209 1.367 . S
C209 C208 1.367 . S
C209 C211 1.433 . S
C210 C206 1.350 . S
C210 C207 1.463 . S
C210 N214 1.427 . S
C211 H201 0.929 . S
C211 C209 1.433 . S
C211 N214 1.384 . S
C212 H203 0.929 . S
C212 C204 1.378 . S
C212 C207 1.350 . S
C213 H200 0.929 . S
C213 C205 1.433 . S
C213 N215 1.384 . S
N214 C210 1.427 . S
N214 C211 1.384 . S
N215 C207 1.427 . S
N215 C213 1.384 . S
H216 C222 0.930 . S
H217 C226 0.930 . S
H218 C231 0.929 . S
H219 C229 0.929 . S
H220 C224 0.929 . S
H221 C230 0.929 . S
C222 H216 0.930 . S
C222 C223 1.367 . S
C222 C230 1.378 1_554 S
C223 C222 1.367 . S
C223 C231 1.433 . S
C224 H220 0.929 . S
C224 C226 1.378 1_554 S
C224 C228 1.350 1_554 S
C225 C228 1.463 1_444 S
C225 C230 1.350 1_554 S
C225 N233 1.427 . S
C226 H217 0.930 . S
C226 C224 1.378 1_556 S
C226 C227 1.367 . S
C227 C226 1.367 . S
C227 C229 1.433 . S
C228 C224 1.350 1_556 S
C228 C225 1.463 1_666 S
C228 N232 1.427 . S
C229 H219 0.929 . S
C229 C227 1.433 . S
C229 N232 1.384 . S
C230 H221 0.929 . S
C230 C222 1.378 1_556 S
C230 C225 1.350 1_556 S
C231 H218 0.929 . S
C231 C223 1.433 . S
C231 N233 1.384 . S
N232 C228 1.427 . S
N232 C229 1.384 . S
N233 C225 1.427 . S
N233 C231 1.384 . S
H234 C240 0.930 . S
H235 C244 0.930 . S
H236 C249 0.929 . S
H237 C247 0.929 . S
H238 C242 0.929 . S
H239 C248 0.929 . S
C240 H234 0.930 . S
C240 C241 1.367 . S
C240 C248 1.378 1_556 S
C241 C240 1.367 . S
C241 C249 1.433 . S
C242 H238 0.929 . S
C242 C244 1.378 1_556 S
C242 C246 1.350 1_556 S
C243 C246 1.463 1_546 S
C243 C248 1.350 1_556 S
C243 N251 1.427 . S
C244 H235 0.930 . S
C244 C242 1.378 1_554 S
C244 C245 1.367 . S
C245 C244 1.367 . S
C245 C247 1.433 . S
C246 C242 1.350 1_554 S
C246 C243 1.463 1_564 S
C246 N250 1.427 . S
C247 H237 0.929 . S
C247 C245 1.433 . S
C247 N250 1.384 . S
C248 H239 0.929 . S
C248 C240 1.378 1_554 S
C248 C243 1.350 1_554 S
C249 H236 0.929 . S
C249 C241 1.433 . S
C249 N251 1.384 . S
N250 C246 1.427 . S
N250 C247 1.384 . S
N251 C243 1.427 . S
N251 C249 1.384 . S
H252 C258 0.930 . S
H253 C262 0.930 . S
H254 C267 0.929 . S
H255 C265 0.929 . S
H256 C260 0.929 . S
H257 C266 0.929 . S
C258 H252 0.930 . S
C258 C259 1.367 . S
C258 C266 1.378 1_655 S
C259 C258 1.367 . S
C259 C267 1.433 . S
C260 H256 0.929 . S
C260 C262 1.378 1_655 S
C260 C264 1.350 1_655 S
C261 C264 1.463 1_655 S
C261 C266 1.350 1_655 S
C261 N269 1.427 . S
C262 H253 0.930 . S
C262 C260 1.378 1_455 S
C262 C263 1.367 . S
C263 C262 1.367 . S
C263 C265 1.433 . S
C264 C260 1.350 1_455 S
C264 C261 1.463 1_455 S
C264 N268 1.427 . S
C265 H255 0.929 . S
C265 C263 1.433 . S
C265 N268 1.384 . S
C266 H257 0.929 . S
C266 C258 1.378 1_455 S
C266 C261 1.350 1_455 S
C267 H254 0.929 . S
C267 C259 1.433 . S
C267 N269 1.384 . S
N268 C264 1.427 . S
N268 C265 1.384 . S
N269 C261 1.427 . S
N269 C267 1.384 . S
H270 C276 0.930 . S
H271 C280 0.930 . S
H272 C285 0.929 . S
H273 C283 0.929 . S
H274 C278 0.929 . S
H275 C284 0.929 . S
C276 H270 0.930 . S
C276 C277 1.367 . S
C276 C284 1.378 . S
C277 C276 1.367 . S
C277 C285 1.433 . S
C278 H274 0.929 . S
C278 C280 1.378 . S
C278 C282 1.350 . S
C279 C282 1.463 . S
C279 C284 1.350 . S
C279 N287 1.427 . S
C280 H271 0.930 . S
C280 C278 1.378 . S
C280 C281 1.367 . S
C281 C280 1.367 . S
C281 C283 1.433 . S
C282 C278 1.350 . S
C282 C279 1.463 . S
C282 N286 1.427 . S
C283 H273 0.929 . S
C283 C281 1.433 . S
C283 N286 1.384 . S
C284 H275 0.929 . S
C284 C276 1.378 . S
C284 C279 1.350 . S
C285 H272 0.929 . S
C285 C277 1.433 . S
C285 N287 1.384 . S
N286 C282 1.427 . S
N286 C283 1.384 . S
N287 C279 1.427 . S
N287 C285 1.384 . S
C151 C40 0.993 . S
C155 C4 1.007 . S
C169 C2 0.909 . S
C173 C38 0.895 . S
C187 C112 0.993 . S
C191 C76 1.007 . S
C205 C74 0.896 . S
C209 C110 0.915 . S
C223 C14 1.492 . S
C227 C86 1.492 . S
C241 C122 1.492 . S
C245 C50 1.492 . S
C259 C75 1.575 . S
C263 C3 1.575 . S
C277 C39 1.577 . S
C281 C111 1.577 . S
