# Generated by pormake.
# Topology tzs, (4)-cn, num edge types: 1
# Building blocks:
#     Node 0, Type 0, BuildingBlock: AZAVOO_clean_sbu_0, # of connection points: 4
#     Node 1, Type 0, BuildingBlock: AZAVOO_clean_sbu_0, # of connection points: 4
#     Node 2, Type 0, BuildingBlock: AZAVOO_clean_sbu_0, # of connection points: 4
#     Node 3, Type 0, BuildingBlock: AZAVOO_clean_sbu_0, # of connection points: 4
#     Node 4, Type 0, BuildingBlock: AZAVOO_clean_sbu_0, # of connection points: 4
#     Node 5, Type 0, BuildingBlock: AZAVOO_clean_sbu_0, # of connection points: 4
#     Node 6, Type 0, BuildingBlock: AZAVOO_clean_sbu_0, # of connection points: 4
#     Node 7, Type 0, BuildingBlock: AZAVOO_clean_sbu_0, # of connection points: 4
#     Node 8, Type 0, BuildingBlock: AZAVOO_clean_sbu_0, # of connection points: 4
#     Node 9, Type 0, BuildingBlock: AZAVOO_clean_sbu_0, # of connection points: 4
#     Node 10, Type 0, BuildingBlock: AZAVOO_clean_sbu_0, # of connection points: 4
#     Node 11, Type 0, BuildingBlock: AZAVOO_clean_sbu_0, # of connection points: 4
#     Node 12, Type 0, BuildingBlock: AZAVOO_clean_sbu_0, # of connection points: 4
#     Node 13, Type 0, BuildingBlock: AZAVOO_clean_sbu_0, # of connection points: 4
#     Node 14, Type 0, BuildingBlock: AZAVOO_clean_sbu_0, # of connection points: 4
#     Node 15, Type 0, BuildingBlock: AZAVOO_clean_sbu_0, # of connection points: 4
#     Edge 16, Type (0, 0), BuildingBlock: TEMPAE_clean_linker_10, # of connection points: 2
#     Edge 17, Type (0, 0), BuildingBlock: TEMPAE_clean_linker_10, # of connection points: 2
#     Edge 18, Type (0, 0), BuildingBlock: TEMPAE_clean_linker_10, # of connection points: 2
#     Edge 19, Type (0, 0), BuildingBlock: TEMPAE_clean_linker_10, # of connection points: 2
#     Edge 20, Type (0, 0), BuildingBlock: TEMPAE_clean_linker_10, # of connection points: 2
#     Edge 21, Type (0, 0), BuildingBlock: TEMPAE_clean_linker_10, # of connection points: 2
#     Edge 22, Type (0, 0), BuildingBlock: TEMPAE_clean_linker_10, # of connection points: 2
#     Edge 23, Type (0, 0), BuildingBlock: TEMPAE_clean_linker_10, # of connection points: 2
#     Edge 24, Type (0, 0), BuildingBlock: TEMPAE_clean_linker_10, # of connection points: 2
#     Edge 25, Type (0, 0), BuildingBlock: TEMPAE_clean_linker_10, # of connection points: 2
#     Edge 26, Type (0, 0), BuildingBlock: TEMPAE_clean_linker_10, # of connection points: 2
#     Edge 27, Type (0, 0), BuildingBlock: TEMPAE_clean_linker_10, # of connection points: 2
#     Edge 28, Type (0, 0), BuildingBlock: TEMPAE_clean_linker_10, # of connection points: 2
#     Edge 29, Type (0, 0), BuildingBlock: TEMPAE_clean_linker_10, # of connection points: 2
#     Edge 30, Type (0, 0), BuildingBlock: TEMPAE_clean_linker_10, # of connection points: 2
#     Edge 31, Type (0, 0), BuildingBlock: TEMPAE_clean_linker_10, # of connection points: 2
#     Edge 32, Type (0, 0), BuildingBlock: TEMPAE_clean_linker_10, # of connection points: 2
#     Edge 33, Type (0, 0), BuildingBlock: TEMPAE_clean_linker_10, # of connection points: 2
#     Edge 34, Type (0, 0), BuildingBlock: TEMPAE_clean_linker_10, # of connection points: 2
#     Edge 35, Type (0, 0), BuildingBlock: TEMPAE_clean_linker_10, # of connection points: 2
#     Edge 36, Type (0, 0), BuildingBlock: TEMPAE_clean_linker_10, # of connection points: 2
#     Edge 37, Type (0, 0), BuildingBlock: TEMPAE_clean_linker_10, # of connection points: 2
#     Edge 38, Type (0, 0), BuildingBlock: TEMPAE_clean_linker_10, # of connection points: 2
#     Edge 39, Type (0, 0), BuildingBlock: TEMPAE_clean_linker_10, # of connection points: 2
#     Edge 40, Type (0, 0), BuildingBlock: TEMPAE_clean_linker_10, # of connection points: 2
#     Edge 41, Type (0, 0), BuildingBlock: TEMPAE_clean_linker_10, # of connection points: 2
#     Edge 42, Type (0, 0), BuildingBlock: TEMPAE_clean_linker_10, # of connection points: 2
#     Edge 43, Type (0, 0), BuildingBlock: TEMPAE_clean_linker_10, # of connection points: 2
#     Edge 44, Type (0, 0), BuildingBlock: TEMPAE_clean_linker_10, # of connection points: 2
#     Edge 45, Type (0, 0), BuildingBlock: TEMPAE_clean_linker_10, # of connection points: 2
#     Edge 46, Type (0, 0), BuildingBlock: TEMPAE_clean_linker_10, # of connection points: 2
#     Edge 47, Type (0, 0), BuildingBlock: TEMPAE_clean_linker_10, # of connection points: 2
# Relax obj value: 0.109
# Max RMSD: 0.118
# Mean RMSD: 0.118
data_MOF--net-tzs--node1-AZAVOO_clean_sbu_0--edge1-TEMPAE_clean_linker_10
_symmetry_space_group_name_H-M    P1
_symmetry_Int_Tables_number       1
_symmetry_cell_setting            triclinic
loop_
_symmetry_equiv_pos_as_xyz
'x, y, z'
_cell_length_a     48.069594
_cell_length_b     48.056383
_cell_length_c     41.619551
_cell_angle_alpha  89.979211
_cell_angle_beta   90.123793
_cell_angle_gamma 90.030265
loop_
_atom_site_label
_atom_site_type_symbol
_atom_site_fract_x
_atom_site_fract_y
_atom_site_fract_z
_atom_type_partial_charge
Mg0 Mg 0.14566 0.35494 0.14437 0.0
O1 O 0.10431 0.34692 0.17011 0.0
O2 O 0.08542 0.30878 0.1485 0.0
Mg3 Mg 0.11418 0.29323 0.10847 0.0
C4 C 0.0849 0.3288 0.16868 0.0
C5 C 0.1745 0.40537 0.17041 0.0
O6 O 0.18429 0.40204 0.14121 0.0
O7 O 0.16547 0.31912 0.17178 0.0
O8 O 0.14768 0.2822 0.14627 0.0
O9 O 0.12484 0.38071 0.10725 0.0
O10 O 0.13135 0.33536 0.10308 0.0
C11 C 0.16388 0.29286 0.16738 0.0
C12 C 0.12157 0.35802 0.09093 0.0
O13 O 0.15786 0.38718 0.18147 0.0
Mg14 Mg 0.64961 0.17252 0.17909 0.0
O15 O 0.65641 0.12675 0.19347 0.0
O16 O 0.69234 0.11135 0.16454 0.0
Mg17 Mg 0.70775 0.1465 0.1319 0.0
C18 C 0.67332 0.10744 0.18546 0.0
C19 C 0.6023 0.19852 0.21079 0.0
O20 O 0.6083 0.21286 0.18481 0.0
O21 O 0.68745 0.18569 0.20821 0.0
O22 O 0.72209 0.17198 0.17617 0.0
O23 O 0.62088 0.15989 0.14047 0.0
O24 O 0.66615 0.16529 0.13369 0.0
C25 C 0.71333 0.18424 0.20149 0.0
C26 C 0.64229 0.15842 0.12181 0.0
O27 O 0.61892 0.17932 0.21938 0.0
Mg28 Mg 0.83941 0.63351 0.1743 0.0
O29 O 0.88497 0.64125 0.18828 0.0
O30 O 0.90122 0.67556 0.15741 0.0
Mg31 Mg 0.86658 0.68888 0.12289 0.0
C32 C 0.90452 0.65765 0.17975 0.0
C33 C 0.81683 0.58614 0.21369 0.0
O34 O 0.8023 0.58563 0.18691 0.0
O35 O 0.8262 0.67337 0.19998 0.0
O36 O 0.84092 0.70563 0.1652 0.0
O37 O 0.85193 0.60289 0.13694 0.0
O38 O 0.84672 0.64791 0.12808 0.0
C39 C 0.82816 0.69873 0.19092 0.0
C40 C 0.85327 0.62368 0.11725 0.0
O41 O 0.83392 0.60598 0.21807 0.0
Mg42 Mg 0.35957 0.84424 0.16632 0.0
O43 O 0.35194 0.88922 0.18289 0.0
O44 O 0.31686 0.90566 0.15315 0.0
Mg45 Mg 0.30289 0.8721 0.11764 0.0
C46 C 0.33514 0.90873 0.17519 0.0
C47 C 0.40523 0.81641 0.20023 0.0
O48 O 0.40034 0.80258 0.17356 0.0
O49 O 0.32075 0.82957 0.19239 0.0
O50 O 0.28727 0.8445 0.15924 0.0
O51 O 0.38947 0.85862 0.12961 0.0
O52 O 0.34439 0.85334 0.12093 0.0
C53 C 0.29516 0.83112 0.18422 0.0
C54 C 0.36847 0.86068 0.11027 0.0
O55 O 0.38858 0.83582 0.20796 0.0
Mg56 Mg 0.14969 0.63661 0.31588 0.0
O57 O 0.1053 0.64421 0.29735 0.0
O58 O 0.088 0.67989 0.32526 0.0
Mg59 Mg 0.12045 0.69409 0.3621 0.0
C60 C 0.08564 0.66125 0.30356 0.0
C61 C 0.17843 0.59075 0.28066 0.0
O62 O 0.19243 0.59401 0.30756 0.0
O63 O 0.16518 0.67521 0.28978 0.0
O64 O 0.14932 0.70918 0.32154 0.0
O65 O 0.13421 0.6073 0.35298 0.0
O66 O 0.13938 0.65253 0.3605 0.0
C67 C 0.16344 0.70092 0.29735 0.0
C68 C 0.13175 0.6287 0.37163 0.0
O69 O 0.15883 0.60765 0.27438 0.0
Mg70 Mg 0.35868 0.15352 0.31276 0.0
O71 O 0.3509 0.10976 0.29203 0.0
O72 O 0.31425 0.09285 0.31867 0.0
Mg73 Mg 0.29939 0.12457 0.35579 0.0
C74 C 0.33327 0.09038 0.29747 0.0
C75 C 0.40452 0.18465 0.28523 0.0
O76 O 0.3968 0.1964 0.3123 0.0
O77 O 0.3214 0.17055 0.28545 0.0
O78 O 0.28616 0.15468 0.31527 0.0
O79 O 0.38676 0.13614 0.3497 0.0
O80 O 0.34153 0.14188 0.35635 0.0
C81 C 0.29546 0.16914 0.29181 0.0
C82 C 0.365 0.13322 0.3676 0.0
O83 O 0.38979 0.16481 0.27424 0.0
Mg84 Mg 0.87146 0.35612 0.36048 0.0
O85 O 0.9113 0.34677 0.33238 0.0
O86 O 0.929 0.30717 0.35168 0.0
Mg87 Mg 0.90059 0.29159 0.39209 0.0
C88 C 0.92985 0.32777 0.33228 0.0
C89 C 0.8426 0.40781 0.33635 0.0
O90 O 0.83307 0.40423 0.36563 0.0
O91 O 0.84866 0.32228 0.3326 0.0
O92 O 0.8655 0.28352 0.3551 0.0
O93 O 0.89552 0.37931 0.39747 0.0
O94 O 0.8861 0.33439 0.40021 0.0
C95 C 0.84913 0.2958 0.33539 0.0
C96 C 0.89797 0.35591 0.41264 0.0
O97 O 0.85935 0.38988 0.32499 0.0
Mg98 Mg 0.64434 0.86035 0.31713 0.0
O99 O 0.6535 0.90384 0.29621 0.0
O100 O 0.69024 0.91977 0.32362 0.0
Mg101 Mg 0.70342 0.88809 0.36179 0.0
C102 C 0.67162 0.92271 0.30192 0.0
C103 C 0.5991 0.82925 0.2875 0.0
O104 O 0.60599 0.81722 0.31475 0.0
O105 O 0.68176 0.84191 0.29161 0.0
O106 O 0.71669 0.85659 0.32287 0.0
O107 O 0.61591 0.8783 0.35334 0.0
O108 O 0.6609 0.87167 0.36113 0.0
C109 C 0.70751 0.84214 0.29931 0.0
C110 C 0.63739 0.88046 0.37196 0.0
O111 O 0.61401 0.84933 0.27755 0.0
Mg112 Mg 0.85392 0.65105 0.8264 0.0
O113 O 0.8449 0.60835 0.80389 0.0
O114 O 0.80687 0.59175 0.82802 0.0
Mg115 Mg 0.79254 0.62274 0.86624 0.0
C116 C 0.82639 0.58949 0.80741 0.0
C117 C 0.90318 0.67917 0.79853 0.0
O118 O 0.89885 0.6905 0.82682 0.0
O119 O 0.8178 0.66995 0.79866 0.0
O120 O 0.78129 0.6542 0.82649 0.0
O121 O 0.88033 0.63171 0.86388 0.0
O122 O 0.83517 0.63894 0.86897 0.0
C123 C 0.79164 0.66902 0.80395 0.0
C124 C 0.85796 0.62923 0.88088 0.0
O125 O 0.88572 0.6614 0.78819 0.0
Mg126 Mg 0.34999 0.85651 0.81912 0.0
O127 O 0.39373 0.84997 0.79827 0.0
O128 O 0.41208 0.81368 0.82433 0.0
Mg129 Mg 0.3811 0.7981 0.86197 0.0
C130 C 0.41368 0.8329 0.8032 0.0
C131 C 0.31868 0.90237 0.78909 0.0
O132 O 0.30678 0.89692 0.8168 0.0
O133 O 0.3339 0.81868 0.79233 0.0
O134 O 0.3508 0.78383 0.82214 0.0
O135 O 0.36656 0.88506 0.85615 0.0
O136 O 0.36214 0.83962 0.86265 0.0
C137 C 0.33589 0.79278 0.79883 0.0
C138 C 0.36991 0.86332 0.87408 0.0
O139 O 0.33829 0.88664 0.77971 0.0
Mg140 Mg 0.13055 0.34065 0.7965 0.0
O141 O 0.13873 0.38661 0.78532 0.0
O142 O 0.17269 0.40138 0.81776 0.0
Mg143 Mg 0.18512 0.36535 0.85078 0.0
C144 C 0.15513 0.40568 0.79524 0.0
C145 C 0.0934 0.31307 0.74603 0.0
O146 O 0.10289 0.29161 0.76227 0.0
O147 O 0.17061 0.32835 0.77131 0.0
O148 O 0.20252 0.3411 0.80763 0.0
O149 O 0.09928 0.35174 0.83382 0.0
O150 O 0.14409 0.34603 0.84351 0.0
C151 C 0.19582 0.32955 0.78104 0.0
C152 C 0.11971 0.35221 0.85411 0.0
O153 O 0.10402 0.33681 0.75153 0.0
Mg154 Mg 0.64669 0.14905 0.82584 0.0
O155 O 0.60154 0.15196 0.8082 0.0
O156 O 0.58279 0.18929 0.83162 0.0
Mg157 Mg 0.61508 0.20887 0.86521 0.0
C158 C 0.58109 0.16848 0.81264 0.0
C159 C 0.67626 0.10078 0.79816 0.0
O160 O 0.68869 0.10677 0.82545 0.0
O161 O 0.65853 0.18534 0.79396 0.0
O162 O 0.64158 0.22159 0.82132 0.0
O163 O 0.63463 0.12287 0.8672 0.0
O164 O 0.63693 0.1688 0.86855 0.0
C165 C 0.6553 0.21151 0.79771 0.0
C166 C 0.63175 0.14575 0.88324 0.0
O167 O 0.65688 0.11667 0.78838 0.0
Mg168 Mg 0.86578 0.3421 0.69637 0.0
O169 O 0.85415 0.38761 0.70354 0.0
O170 O 0.82809 0.40226 0.66246 0.0
Mg171 Mg 0.82415 0.36529 0.62768 0.0
C172 C 0.84029 0.4066 0.6893 0.0
C173 C 0.89527 0.33537 0.7683 0.0
O174 O 0.89146 0.33571 0.79956 0.0
O175 O 0.82161 0.32902 0.70695 0.0
O176 O 0.79683 0.34139 0.66387 0.0
O177 O 0.90451 0.35483 0.66938 0.0
O178 O 0.86342 0.34756 0.64713 0.0
C179 C 0.7987 0.32996 0.6915 0.0
C180 C 0.88896 0.35501 0.64397 0.0
O181 O 0.87423 0.33898 0.75027 0.0
Mg182 Mg 0.65507 0.86664 0.66368 0.0
O183 O 0.61057 0.85806 0.68112 0.0
O184 O 0.59419 0.82283 0.6516 0.0
Mg185 Mg 0.62736 0.80993 0.61513 0.0
C186 C 0.59125 0.84088 0.67386 0.0
C187 C 0.68381 0.91124 0.69914 0.0
O188 O 0.6977 0.9071 0.6724 0.0
O189 O 0.67049 0.82788 0.68905 0.0
O190 O 0.65567 0.79416 0.65621 0.0
O191 O 0.63977 0.89675 0.62764 0.0
O192 O 0.64546 0.85181 0.61836 0.0
C193 C 0.66919 0.80227 0.68101 0.0
C194 C 0.63772 0.87593 0.60808 0.0
O195 O 0.6639 0.89484 0.70581 0.0
Mg196 Mg 0.13817 0.65278 0.66326 0.0
O197 O 0.14548 0.60851 0.68225 0.0
O198 O 0.18105 0.59083 0.65449 0.0
Mg199 Mg 0.19565 0.62295 0.61763 0.0
C200 C 0.1624 0.58871 0.67617 0.0
C201 C 0.0919 0.68173 0.69644 0.0
O202 O 0.09577 0.69487 0.6691 0.0
O203 O 0.17667 0.66818 0.6897 0.0
O204 O 0.21065 0.65176 0.65838 0.0
O205 O 0.10894 0.637 0.62627 0.0
O206 O 0.15418 0.64196 0.61883 0.0
C207 C 0.2024 0.66606 0.68246 0.0
C208 C 0.13035 0.63416 0.60777 0.0
O209 O 0.10882 0.66253 0.70415 0.0
Mg210 Mg 0.34555 0.13644 0.65762 0.0
O211 O 0.38916 0.14366 0.67864 0.0
O212 O 0.40796 0.17887 0.65116 0.0
Mg213 Mg 0.37749 0.19279 0.61199 0.0
C214 C 0.40919 0.16052 0.67333 0.0
C215 C 0.31401 0.09206 0.69096 0.0
O216 O 0.30122 0.09644 0.66348 0.0
O217 O 0.32973 0.17553 0.68206 0.0
O218 O 0.34709 0.20892 0.65047 0.0
O219 O 0.36182 0.10633 0.62199 0.0
O220 O 0.35788 0.15155 0.61342 0.0
C221 C 0.33199 0.2011 0.67407 0.0
C222 C 0.36523 0.1274 0.60303 0.0
O223 O 0.33393 0.10811 0.69874 0.0
C224 C 0.24771 0.18837 0.28233 0.0
C225 C 0.27554 0.18587 0.27254 0.0
C226 C 0.22896 0.20541 0.26555 0.0
C227 C 0.23817 0.22017 0.23815 0.0
C228 C 0.26605 0.21738 0.22774 0.0
C229 C 0.28443 0.20034 0.24512 0.0
C230 C 0.19941 0.20796 0.27746 0.0
C231 C 0.27653 0.23261 0.19843 0.0
C232 C 0.18409 0.24577 0.17846 0.0
C233 C 0.18214 0.27411 0.18636 0.0
C234 C 0.20221 0.22799 0.19513 0.0
C235 C 0.21865 0.23871 0.2205 0.0
C236 C 0.21652 0.26717 0.22895 0.0
C237 C 0.19836 0.28455 0.21171 0.0
C238 C 0.20401 0.19778 0.18535 0.0
C239 C 0.23355 0.27929 0.25608 0.0
H240 H 0.24059 0.17739 0.30353 0.0
H241 H 0.30584 0.19852 0.23729 0.0
H242 H 0.19488 0.22995 0.28365 0.0
H243 H 0.18462 0.2018 0.25823 0.0
H244 H 0.19545 0.19485 0.29896 0.0
H245 H 0.29861 0.22768 0.19304 0.0
H246 H 0.26366 0.22713 0.17719 0.0
H247 H 0.27461 0.2554 0.20207 0.0
H248 H 0.17175 0.23746 0.15886 0.0
H249 H 0.19697 0.30637 0.21809 0.0
H250 H 0.1989 0.1842 0.20607 0.0
H251 H 0.22558 0.19273 0.17793 0.0
H252 H 0.1897 0.19266 0.1652 0.0
H253 H 0.22928 0.26782 0.27869 0.0
H254 H 0.22908 0.30171 0.26004 0.0
H255 H 0.25604 0.27689 0.25085 0.0
C256 C 0.81337 0.29102 0.29166 0.0
C257 C 0.82971 0.27872 0.31578 0.0
C258 C 0.79458 0.27513 0.2734 0.0
C259 C 0.7919 0.24626 0.27951 0.0
C260 C 0.80829 0.2337 0.30377 0.0
C261 C 0.82705 0.25003 0.32152 0.0
C262 C 0.77759 0.28924 0.24755 0.0
C263 C 0.80592 0.203 0.3111 0.0
C264 C 0.72526 0.21108 0.25145 0.0
C265 C 0.73377 0.19859 0.2226 0.0
C266 C 0.74406 0.22626 0.27048 0.0
C267 C 0.77201 0.2292 0.26037 0.0
C268 C 0.78087 0.21625 0.23162 0.0
C269 C 0.7617 0.20104 0.21317 0.0
C270 C 0.7339 0.23955 0.30116 0.0
C271 C 0.81049 0.21897 0.21998 0.0
H272 H 0.81527 0.31312 0.28695 0.0
H273 H 0.83945 0.24028 0.34015 0.0
H274 H 0.7817 0.27934 0.22396 0.0
H275 H 0.75508 0.28667 0.25263 0.0
H276 H 0.78226 0.31182 0.24565 0.0
H277 H 0.82004 0.19644 0.33086 0.0
H278 H 0.78423 0.19786 0.31797 0.0
H279 H 0.81091 0.19065 0.28935 0.0
H280 H 0.70378 0.20926 0.25905 0.0
H281 H 0.76855 0.19156 0.19093 0.0
H282 H 0.73602 0.26249 0.29952 0.0
H283 H 0.74684 0.23257 0.32174 0.0
H284 H 0.71181 0.23444 0.30628 0.0
H285 H 0.81543 0.24119 0.21552 0.0
H286 H 0.81424 0.20709 0.19751 0.0
H287 H 0.82513 0.21142 0.23869 0.0
C288 C 0.79702 0.71423 0.23589 0.0
C289 C 0.81346 0.72082 0.20913 0.0
C290 C 0.78088 0.73467 0.25116 0.0
C291 C 0.78115 0.76231 0.23934 0.0
C292 C 0.79834 0.76929 0.21303 0.0
C293 C 0.81432 0.74852 0.19831 0.0
C294 C 0.76295 0.72652 0.27938 0.0
C295 C 0.79922 0.79855 0.19976 0.0
C296 C 0.71779 0.8071 0.25629 0.0
C297 C 0.727 0.82332 0.28226 0.0
C298 C 0.73532 0.7874 0.24188 0.0
C299 C 0.7627 0.78374 0.25377 0.0
C300 C 0.77236 0.80042 0.27946 0.0
C301 C 0.75444 0.82006 0.29333 0.0
C302 C 0.72439 0.77016 0.21426 0.0
C303 C 0.80143 0.79712 0.29276 0.0
H304 H 0.79622 0.69296 0.2445 0.0
H305 H 0.82699 0.75395 0.17773 0.0
H306 H 0.76748 0.74015 0.30025 0.0
H307 H 0.74069 0.72941 0.27313 0.0
H308 H 0.76618 0.70452 0.2867 0.0
H309 H 0.81467 0.80085 0.18013 0.0
H310 H 0.77841 0.80433 0.19031 0.0
H311 H 0.80443 0.81355 0.21911 0.0
H312 H 0.69668 0.80945 0.24749 0.0
H313 H 0.7618 0.8324 0.31341 0.0
H314 H 0.72458 0.7478 0.22091 0.0
H315 H 0.73806 0.77262 0.19301 0.0
H316 H 0.70285 0.77604 0.20733 0.0
H317 H 0.80418 0.77572 0.30228 0.0
H318 H 0.80598 0.81218 0.31232 0.0
H319 H 0.81696 0.80002 0.27338 0.0
C320 C 0.282 0.79943 0.22963 0.0
C321 C 0.27414 0.8151 0.20263 0.0
C322 C 0.26287 0.78202 0.24525 0.0
C323 C 0.23524 0.78017 0.23356 0.0
C324 C 0.22692 0.79657 0.20702 0.0
C325 C 0.24643 0.81388 0.19192 0.0
C326 C 0.27243 0.76502 0.27372 0.0
C327 C 0.19761 0.79519 0.19393 0.0
C328 C 0.19619 0.71355 0.25282 0.0
C329 C 0.17994 0.72171 0.27915 0.0
C330 C 0.21384 0.73255 0.23733 0.0
C331 C 0.21535 0.76034 0.24849 0.0
C332 C 0.19847 0.76894 0.27443 0.0
C333 C 0.18092 0.74956 0.28939 0.0
C334 C 0.23139 0.7227 0.20952 0.0
C335 C 0.19951 0.79841 0.28697 0.0
H336 H 0.30329 0.80027 0.23819 0.0
H337 H 0.24006 0.8259 0.17114 0.0
H338 H 0.25868 0.76886 0.29463 0.0
H339 H 0.271 0.74253 0.26791 0.0
H340 H 0.2942 0.76984 0.28079 0.0
H341 H 0.19408 0.81031 0.17415 0.0
H342 H 0.19333 0.77394 0.18473 0.0
H343 H 0.18239 0.79937 0.21332 0.0
H344 H 0.19555 0.69216 0.24463 0.0
H345 H 0.16848 0.75615 0.30969 0.0
H346 H 0.25376 0.72447 0.21582 0.0
H347 H 0.22773 0.73605 0.18818 0.0
H348 H 0.22691 0.70075 0.20289 0.0
H349 H 0.2206 0.80295 0.2965 0.0
H350 H 0.18412 0.8021 0.30638 0.0
H351 H 0.19547 0.81337 0.2672 0.0
C352 C 0.69976 0.78956 0.7276 0.0
C353 C 0.68515 0.7815 0.69988 0.0
C354 C 0.71646 0.77055 0.74443 0.0
C355 C 0.71868 0.74283 0.73325 0.0
C356 C 0.70362 0.73438 0.70569 0.0
C357 C 0.68698 0.75379 0.68938 0.0
C358 C 0.73207 0.78024 0.7739 0.0
C359 C 0.70549 0.70498 0.69308 0.0
C360 C 0.78296 0.70259 0.75886 0.0
C361 C 0.77269 0.68664 0.78448 0.0
C362 C 0.76547 0.72059 0.74158 0.0
C363 C 0.73708 0.72279 0.75022 0.0
C364 C 0.72646 0.70639 0.7756 0.0
C365 C 0.74435 0.68847 0.79236 0.0
C366 C 0.77748 0.73764 0.71445 0.0
C367 C 0.6963 0.70822 0.78553 0.0
H368 H 0.69845 0.81086 0.73599 0.0
H369 H 0.67583 0.74732 0.66799 0.0
H370 H 0.7266 0.76704 0.79483 0.0
H371 H 0.75479 0.77808 0.76998 0.0
H372 H 0.7275 0.80228 0.77996 0.0
H373 H 0.69192 0.70155 0.6718 0.0
H374 H 0.72729 0.70024 0.68627 0.0
H375 H 0.69949 0.68998 0.71211 0.0
H376 H 0.80477 0.70128 0.75248 0.0
H377 H 0.73616 0.67628 0.81211 0.0
H378 H 0.77568 0.76012 0.72014 0.0
H379 H 0.76554 0.7339 0.69202 0.0
H380 H 0.79972 0.73274 0.70996 0.0
H381 H 0.69156 0.72963 0.79386 0.0
H382 H 0.6911 0.6934 0.80511 0.0
H383 H 0.68257 0.7039 0.76466 0.0
C384 C 0.25116 0.68295 0.69095 0.0
C385 C 0.22332 0.68206 0.70112 0.0
C386 C 0.27076 0.69983 0.70659 0.0
C387 C 0.26241 0.71609 0.73318 0.0
C388 C 0.2346 0.71468 0.74422 0.0
C389 C 0.21537 0.69773 0.72801 0.0
C390 C 0.30023 0.70083 0.69411 0.0
C391 C 0.22502 0.73156 0.77271 0.0
C392 C 0.31704 0.74473 0.79025 0.0
C393 C 0.31881 0.77263 0.78036 0.0
C394 C 0.29903 0.72599 0.77486 0.0
C395 C 0.28252 0.7353 0.74882 0.0
C396 C 0.28478 0.76316 0.73808 0.0
C397 C 0.30285 0.7815 0.75402 0.0
C398 C 0.29715 0.69642 0.78698 0.0
C399 C 0.26768 0.77375 0.71016 0.0
H400 H 0.25759 0.67096 0.67021 0.0
H401 H 0.19397 0.69713 0.73615 0.0
H402 H 0.30508 0.72216 0.68555 0.0
H403 H 0.31514 0.69592 0.71368 0.0
H404 H 0.30367 0.68603 0.67401 0.0
H405 H 0.20304 0.72716 0.77918 0.0
H406 H 0.23837 0.72715 0.79388 0.0
H407 H 0.22704 0.75408 0.76729 0.0
H408 H 0.32922 0.73762 0.8106 0.0
H409 H 0.30411 0.80295 0.74609 0.0
H410 H 0.30122 0.6816 0.76712 0.0
H411 H 0.27581 0.69223 0.79585 0.0
H412 H 0.31213 0.6922 0.80676 0.0
H413 H 0.2713 0.76063 0.68864 0.0
H414 H 0.27265 0.7957 0.70401 0.0
H415 H 0.24522 0.77233 0.71603 0.0
C416 C 0.24525 0.31436 0.77417 0.0
C417 C 0.21775 0.31486 0.76267 0.0
C418 C 0.26551 0.29765 0.75959 0.0
C419 C 0.25814 0.28112 0.7328 0.0
C420 C 0.23083 0.28249 0.72011 0.0
C421 C 0.21094 0.29935 0.7352 0.0
C422 C 0.29447 0.29681 0.77371 0.0
C423 C 0.2223 0.26529 0.69136 0.0
C424 C 0.31429 0.24984 0.68006 0.0
C425 C 0.31496 0.22219 0.69101 0.0
C426 C 0.29624 0.26941 0.69379 0.0
C427 C 0.27852 0.26118 0.71915 0.0
C428 C 0.27971 0.23359 0.73103 0.0
C429 C 0.29789 0.21442 0.71681 0.0
C430 C 0.29557 0.29868 0.68057 0.0
C431 C 0.26126 0.22413 0.75827 0.0
H432 H 0.25083 0.32636 0.79527 0.0
H433 H 0.18982 0.29964 0.72603 0.0
H434 H 0.29855 0.27586 0.78388 0.0
H435 H 0.31021 0.30053 0.75473 0.0
H436 H 0.29742 0.31249 0.79302 0.0
H437 H 0.20086 0.27017 0.68311 0.0
H438 H 0.23688 0.26885 0.67114 0.0
H439 H 0.22333 0.24286 0.69755 0.0
H440 H 0.32738 0.25611 0.66017 0.0
H441 H 0.29829 0.19318 0.72554 0.0
H442 H 0.29883 0.31397 0.70018 0.0
H443 H 0.27483 0.30296 0.66992 0.0
H444 H 0.31165 0.30213 0.66184 0.0
H445 H 0.26429 0.23778 0.77949 0.0
H446 H 0.26548 0.20228 0.76551 0.0
H447 H 0.2391 0.22583 0.75101 0.0
C448 C 0.66862 0.25974 0.78073 0.0
C449 C 0.67038 0.23085 0.7761 0.0
C450 C 0.68632 0.27802 0.76423 0.0
C451 C 0.70627 0.26713 0.7427 0.0
C452 C 0.70677 0.23824 0.73616 0.0
C453 C 0.68877 0.22045 0.75288 0.0
C454 C 0.68493 0.30877 0.77153 0.0
C455 C 0.72767 0.22584 0.71321 0.0
C456 C 0.74902 0.31391 0.68811 0.0
C457 C 0.77404 0.31595 0.70545 0.0
C458 C 0.72638 0.2987 0.70024 0.0
C459 C 0.7289 0.28521 0.73033 0.0
C460 C 0.75375 0.28792 0.74836 0.0
C461 C 0.77595 0.30327 0.73575 0.0
C462 C 0.7001 0.29642 0.6805 0.0
C463 C 0.75724 0.2739 0.78063 0.0
H464 H 0.65427 0.26807 0.79832 0.0
H465 H 0.69014 0.19821 0.74884 0.0
H466 H 0.70321 0.31481 0.78628 0.0
H467 H 0.68568 0.32114 0.74904 0.0
H468 H 0.66577 0.31435 0.78493 0.0
H469 H 0.72322 0.20362 0.70792 0.0
H470 H 0.72791 0.23759 0.69028 0.0
H471 H 0.74881 0.22732 0.72385 0.0
H472 H 0.74728 0.32369 0.66472 0.0
H473 H 0.79508 0.30481 0.74947 0.0
H474 H 0.68173 0.30201 0.69525 0.0
H475 H 0.69721 0.27458 0.67252 0.0
H476 H 0.70058 0.31004 0.65893 0.0
H477 H 0.74035 0.2804 0.79712 0.0
H478 H 0.77755 0.27886 0.79207 0.0
H479 H 0.75571 0.251 0.77773 0.0
C480 C 0.08801 0.35941 0.90105 0.0
C481 C 0.11509 0.35807 0.88855 0.0
C482 C 0.08351 0.36134 0.93433 0.0
C483 C 0.10663 0.36211 0.95539 0.0
C484 C 0.13395 0.36216 0.94275 0.0
C485 C 0.13782 0.35999 0.90954 0.0
C486 C 0.0541 0.36121 0.94696 0.0
C487 C 0.15922 0.36333 0.96439 0.0
C488 C 0.10639 0.3844 0.04233 0.0
C489 C 0.11061 0.35876 0.05774 0.0
C490 C 0.10261 0.38579 0.00894 0.0
C491 C 0.10286 0.36094 0.99075 0.0
C492 C 0.10423 0.3349 0.0066 0.0
C493 C 0.10821 0.33413 0.03995 0.0
C494 C 0.101 0.41394 0.99296 0.0
C495 C 0.10404 0.30789 0.98808 0.0
H496 H 0.07031 0.35786 0.88497 0.0
H497 H 0.15877 0.35896 0.90019 0.0
H498 H 0.04981 0.34094 0.95872 0.0
H499 H 0.0513 0.37764 0.96537 0.0
H500 H 0.03854 0.36438 0.92752 0.0
H501 H 0.17893 0.36507 0.95063 0.0
H502 H 0.15774 0.38136 0.98094 0.0
H503 H 0.1602 0.34424 0.97935 0.0
H504 H 0.10796 0.40356 0.05596 0.0
H505 H 0.11111 0.31423 0.05172 0.0
H506 H 0.08517 0.41398 0.97352 0.0
H507 H 0.12139 0.41886 0.98185 0.0
H508 H 0.0959 0.43068 0.01039 0.0
H509 H 0.0874 0.30801 0.96957 0.0
H510 H 0.10093 0.28962 0.00404 0.0
H511 H 0.12421 0.30537 0.97547 0.0
C512 C 0.62431 0.17005 0.93545 0.0
C513 C 0.62638 0.14515 0.91813 0.0
C514 C 0.62441 0.16995 0.96911 0.0
C515 C 0.62687 0.14435 0.98573 0.0
C516 C 0.6273 0.11905 0.96841 0.0
C517 C 0.62692 0.11975 0.93475 0.0
C518 C 0.62344 0.19735 0.98684 0.0
C519 C 0.62985 0.09137 0.98534 0.0
C520 C 0.66184 0.15059 0.06698 0.0
C521 C 0.63888 0.151 0.08762 0.0
C522 C 0.65826 0.1472 0.03378 0.0
C523 C 0.63107 0.14438 0.02102 0.0
C524 C 0.60792 0.1435 0.04186 0.0
C525 C 0.61212 0.14672 0.07497 0.0
C526 C 0.6835 0.14786 0.01223 0.0
C527 C 0.57863 0.14054 0.02909 0.0
H528 H 0.62378 0.18973 0.92278 0.0
H529 H 0.6285 0.1004 0.9215 0.0
H530 H 0.60725 0.19676 0.00578 0.0
H531 H 0.6437 0.20112 -0.0011 0.0
H532 H 0.61903 0.21514 0.97054 0.0
H533 H 0.62682 0.07356 0.96869 0.0
H534 H 0.65083 0.08962 -0.00366 0.0
H535 H 0.61444 0.08976 0.00505 0.0
H536 H 0.68255 0.15383 0.07659 0.0
H537 H 0.59424 0.14695 0.0908 0.0
H538 H 0.68283 0.16675 -0.00309 0.0
H539 H 0.68348 0.12956 -0.00401 0.0
H540 H 0.70327 0.14799 0.02609 0.0
H541 H 0.57292 0.15951 0.01537 0.0
H542 H 0.5632 0.13756 0.04862 0.0
H543 H 0.57721 0.12268 0.0123 0.0
C544 C 0.88499 0.61307 0.92858 0.0
C545 C 0.85917 0.6184 0.91404 0.0
C546 C 0.88703 0.6087 0.96181 0.0
C547 C 0.86264 0.60956 0.98072 0.0
C548 C 0.83632 0.61223 0.96572 0.0
C549 C 0.83491 0.61674 0.93252 0.0
C550 C 0.91544 0.60565 0.97691 0.0
C551 C 0.80977 0.61278 0.98505 0.0
C552 C 0.86081 0.59275 0.06974 0.0
C553 C 0.86017 0.61959 0.08302 0.0
C554 C 0.86298 0.5889 0.0364 0.0
C555 C 0.8647 0.61245 0.01611 0.0
C556 C 0.86585 0.63946 0.02959 0.0
C557 C 0.86343 0.64268 0.06285 0.0
C558 C 0.86177 0.5598 0.02285 0.0
C559 C 0.86811 0.66514 0.00877 0.0
H560 H 0.90385 0.61405 0.91438 0.0
H561 H 0.81486 0.62053 0.92143 0.0
H562 H 0.9215 0.62564 0.98829 0.0
H563 H 0.91526 0.58954 -0.004 0.0
H564 H 0.93152 0.60012 0.95887 0.0
H565 H 0.791 0.61104 0.96955 0.0
H566 H 0.80951 0.59558 0.00282 0.0
H567 H 0.80854 0.63264 -0.00142 0.0
H568 H 0.8583 0.57478 0.08521 0.0
H569 H 0.86307 0.66345 0.07284 0.0
H570 H 0.87762 0.55697 0.0038 0.0
H571 H 0.84108 0.55628 0.01171 0.0
H572 H 0.86505 0.54375 0.04171 0.0
H573 H 0.88579 0.66311 0.99185 0.0
H574 H 0.87107 0.68438 0.02316 0.0
H575 H 0.84888 0.66748 -0.00579 0.0
C576 C 0.3994 0.87166 0.06392 0.0
C577 C 0.37245 0.86872 0.07641 0.0
C578 C 0.40373 0.8743 0.03075 0.0
C579 C 0.38054 0.8741 0.00982 0.0
C580 C 0.35324 0.87323 0.02252 0.0
C581 C 0.34954 0.87045 0.05569 0.0
C582 C 0.43311 0.87538 0.01807 0.0
C583 C 0.32793 0.87339 0.00092 0.0
C584 C 0.38164 0.89256 0.92167 0.0
C585 C 0.37911 0.86608 0.90774 0.0
C586 C 0.38423 0.89561 0.95503 0.0
C587 C 0.38443 0.87161 0.97467 0.0
C588 C 0.38448 0.84484 0.96048 0.0
C589 C 0.38173 0.8424 0.92712 0.0
C590 C 0.38442 0.92448 0.96932 0.0
C591 C 0.38516 0.81872 0.98067 0.0
H592 H 0.41723 0.87046 0.07985 0.0
H593 H 0.32868 0.86837 0.06516 0.0
H594 H 0.43854 0.85492 0.00746 0.0
H595 H 0.43505 0.89121 -0.0012 0.0
H596 H 0.44841 0.88017 0.03733 0.0
H597 H 0.30826 0.87529 0.0147 0.0
H598 H 0.32914 0.89086 0.98355 0.0
H599 H 0.32718 0.85378 0.98686 0.0
H600 H 0.37985 0.91098 0.90678 0.0
H601 H 0.38008 0.8219 0.91651 0.0
H602 H 0.39978 0.926 0.98917 0.0
H603 H 0.36362 0.92908 0.97954 0.0
H604 H 0.38928 0.94061 0.95104 0.0
H605 H 0.40189 0.82001 -0.001 0.0
H606 H 0.38851 0.79976 0.96591 0.0
H607 H 0.36511 0.81646 -0.00641 0.0
C608 C 0.15057 0.62246 0.55441 0.0
C609 C 0.12718 0.62468 0.57424 0.0
C610 C 0.14765 0.61863 0.52125 0.0
C611 C 0.12067 0.61717 0.50765 0.0
C612 C 0.09703 0.61719 0.5278 0.0
C613 C 0.10058 0.62092 0.56098 0.0
C614 C 0.17343 0.61828 0.50056 0.0
C615 C 0.06797 0.6154 0.51417 0.0
C616 C 0.12023 0.64906 0.42496 0.0
C617 C 0.12313 0.62552 0.40544 0.0
C618 C 0.11731 0.64646 0.45826 0.0
C619 C 0.11751 0.61965 0.47234 0.0
C620 C 0.11827 0.59573 0.45259 0.0
C621 C 0.12102 0.59896 0.41924 0.0
C622 C 0.11612 0.67252 0.47852 0.0
C623 C 0.11827 0.56681 0.46675 0.0
H624 H 0.17119 0.62512 0.56447 0.0
H625 H 0.08238 0.62242 0.57623 0.0
H626 H 0.17261 0.60075 0.48327 0.0
H627 H 0.17455 0.63784 0.48642 0.0
H628 H 0.19277 0.61642 0.51506 0.0
H629 H 0.05237 0.61048 0.53301 0.0
H630 H 0.06234 0.63566 0.50314 0.0
H631 H 0.06673 0.59937 0.49506 0.0
H632 H 0.1216 0.66964 0.4145 0.0
H633 H 0.12311 0.58064 0.40425 0.0
H634 H 0.13581 0.67473 0.49227 0.0
H635 H 0.09891 0.67114 0.49616 0.0
H636 H 0.11314 0.69154 0.46374 0.0
H637 H 0.13902 0.56239 0.4773 0.0
H638 H 0.11373 0.5507 0.44832 0.0
H639 H 0.10275 0.56506 0.48633 0.0
C640 C 0.37394 0.09676 0.55576 0.0
C641 C 0.37383 0.12348 0.56935 0.0
C642 C 0.37595 0.0932 0.52239 0.0
C643 C 0.37804 0.11693 0.50245 0.0
C644 C 0.38042 0.14372 0.51631 0.0
C645 C 0.3782 0.14667 0.54963 0.0
C646 C 0.37367 0.06429 0.50847 0.0
C647 C 0.38318 0.16954 0.49583 0.0
C648 C 0.39401 0.11711 0.41371 0.0
C649 C 0.36763 0.12293 0.40085 0.0
C650 C 0.39761 0.11291 0.44678 0.0
C651 C 0.37425 0.11453 0.46724 0.0
C652 C 0.34729 0.11791 0.45402 0.0
C653 C 0.34431 0.12213 0.42092 0.0
C654 C 0.42662 0.109 0.45997 0.0
C655 C 0.32179 0.11932 0.4751 0.0
H656 H 0.37069 0.0787 0.57091 0.0
H657 H 0.37844 0.16732 0.55998 0.0
H658 H 0.3524 0.0612 0.49869 0.0
H659 H 0.38852 0.06142 0.48838 0.0
H660 H 0.37759 0.048 0.52688 0.0
H661 H 0.38767 0.18838 0.51041 0.0
H662 H 0.40003 0.1669 0.47793 0.0
H663 H 0.36352 0.17304 0.48238 0.0
H664 H 0.41213 0.11741 0.39825 0.0
H665 H 0.32385 0.12635 0.41112 0.0
H666 H 0.42688 0.09296 0.47915 0.0
H667 H 0.43388 0.12881 0.47081 0.0
H668 H 0.44157 0.10289 0.44092 0.0
H669 H 0.32163 0.10181 0.49246 0.0
H670 H 0.30221 0.11871 0.46088 0.0
H671 H 0.32215 0.13894 0.48916 0.0
C672 C 0.92316 0.37845 0.45842 0.0
C673 C 0.91027 0.35485 0.44521 0.0
C674 C 0.92833 0.38025 0.49158 0.0
C675 C 0.91982 0.35821 0.51186 0.0
C676 C 0.90977 0.33317 0.49813 0.0
C677 C 0.90531 0.33172 0.46489 0.0
C678 C 0.94036 0.40677 0.50513 0.0
C679 C 0.90066 0.30902 0.51883 0.0
C680 C 0.92669 0.35378 0.60268 0.0
C681 C 0.89989 0.36198 0.61189 0.0
C682 C 0.93464 0.35444 0.57015 0.0
C683 C 0.91518 0.36331 0.54667 0.0
C684 C 0.88909 0.37401 0.55645 0.0
C685 C 0.88192 0.37337 0.58895 0.0
C686 C 0.96302 0.34381 0.56089 0.0
C687 C 0.86774 0.38409 0.53239 0.0
H688 H 0.92761 0.39622 0.44322 0.0
H689 H 0.89573 0.31325 0.4548 0.0
H690 H 0.92323 0.42028 0.51375 0.0
H691 H 0.95423 0.40236 0.52586 0.0
H692 H 0.95224 0.41847 0.48666 0.0
H693 H 0.89673 0.28993 0.50446 0.0
H694 H 0.9166 0.30429 0.53731 0.0
H695 H 0.88117 0.31463 0.53154 0.0
H696 H 0.94077 0.34516 0.62048 0.0
H697 H 0.86164 0.38073 0.59619 0.0
H698 H 0.97145 0.35531 0.53993 0.0
H699 H 0.96142 0.32153 0.55416 0.0
H700 H 0.97795 0.34552 0.58122 0.0
H701 H 0.87692 0.40013 0.51646 0.0
H702 H 0.84908 0.3931 0.54416 0.0
H703 H 0.86094 0.36648 0.51701 0.0
C704 C 0.62699 0.90735 0.56201 0.0
C705 C 0.62961 0.88026 0.57426 0.0
C706 C 0.62465 0.91203 0.52886 0.0
C707 C 0.6248 0.88904 0.50769 0.0
C708 C 0.62521 0.86161 0.52013 0.0
C709 C 0.62772 0.85756 0.5533 0.0
C710 C 0.62405 0.94155 0.51647 0.0
C711 C 0.62492 0.83652 0.49827 0.0
C712 C 0.60766 0.8918 0.41914 0.0
C713 C 0.63429 0.88917 0.40572 0.0
C714 C 0.60415 0.89377 0.45249 0.0
C715 C 0.62785 0.89328 0.47264 0.0
C716 C 0.65482 0.89322 0.45902 0.0
C717 C 0.65771 0.89106 0.42566 0.0
C718 C 0.57508 0.89405 0.46615 0.0
C719 C 0.68064 0.89321 0.47977 0.0
H720 H 0.62829 0.92503 0.57812 0.0
H721 H 0.62952 0.83658 0.5626 0.0
H722 H 0.64467 0.94687 0.50623 0.0
H723 H 0.60845 0.94386 0.49698 0.0
H724 H 0.61925 0.95672 0.53581 0.0
H725 H 0.62246 0.81674 0.51181 0.0
H726 H 0.60775 0.83818 0.48052 0.0
H727 H 0.64472 0.83557 0.48465 0.0
H728 H 0.58944 0.89053 0.40382 0.0
H729 H 0.67833 0.88933 0.41544 0.0
H730 H 0.57346 0.90905 0.4863 0.0
H731 H 0.57006 0.87311 0.4758 0.0
H732 H 0.5593 0.89945 0.44764 0.0
H733 H 0.67936 0.90974 0.4983 0.0
H734 H 0.69986 0.89644 0.46547 0.0
H735 H 0.68236 0.87297 0.49247 0.0
C736 C 0.20298 0.54596 0.26983 0.0
C737 C 0.18234 0.56526 0.26128 0.0
C738 C 0.20453 0.5199 0.25479 0.0
C739 C 0.18496 0.51301 0.23064 0.0
C740 C 0.16492 0.53288 0.22083 0.0
C741 C 0.16388 0.55881 0.23624 0.0
C742 C 0.22634 0.49934 0.26569 0.0
C743 C 0.14381 0.52631 0.19499 0.0
C744 C 0.19702 0.45209 0.17449 0.0
C745 C 0.17963 0.43169 0.18788 0.0
C746 C 0.1996 0.47844 0.18864 0.0
C747 C 0.1844 0.48453 0.21683 0.0
C748 C 0.16767 0.4637 0.23117 0.0
C749 C 0.16552 0.43749 0.21654 0.0
C750 C 0.21781 0.50007 0.17282 0.0
C751 C 0.15127 0.4694 0.26137 0.0
H752 H 0.21743 0.55083 0.28905 0.0
H753 H 0.14791 0.57362 0.22944 0.0
H754 H 0.21613 0.48141 0.27765 0.0
H755 H 0.23792 0.49106 0.24475 0.0
H756 H 0.24144 0.50873 0.28278 0.0
H757 H 0.13073 0.5446 0.18877 0.0
H758 H 0.15443 0.51898 0.17292 0.0
H759 H 0.13 0.50924 0.20324 0.0
H760 H 0.20811 0.44774 0.1524 0.0
H761 H 0.15208 0.42184 0.22706 0.0
H762 H 0.23264 0.50894 0.19052 0.0
H763 H 0.20474 0.51745 0.16385 0.0
H764 H 0.22978 0.49142 0.15232 0.0
H765 H 0.16526 0.4772 0.2806 0.0
H766 H 0.1403 0.45059 0.27032 0.0
H767 H 0.13561 0.48587 0.25661 0.0
C768 C 0.55496 0.21965 0.21185 0.0
C769 C 0.57422 0.20086 0.22502 0.0
C770 C 0.52698 0.21927 0.22118 0.0
C771 C 0.51809 0.19981 0.24447 0.0
C772 C 0.53766 0.18173 0.25907 0.0
C773 C 0.56554 0.18243 0.24912 0.0
C774 C 0.50672 0.23891 0.20514 0.0
C775 C 0.52896 0.16097 0.28437 0.0
C776 C 0.44949 0.2104 0.28739 0.0
C777 C 0.4323 0.19095 0.27185 0.0
C778 C 0.47732 0.21391 0.27832 0.0
C779 C 0.48817 0.19776 0.25289 0.0
C780 C 0.47061 0.17903 0.23609 0.0
C781 C 0.44286 0.17579 0.24583 0.0
C782 C 0.49539 0.2341 0.29677 0.0
C783 C 0.48141 0.16175 0.20852 0.0
H784 H 0.56149 0.23404 0.19327 0.0
H785 H 0.58029 0.16788 0.25943 0.0
H786 H 0.49134 0.22681 0.19095 0.0
H787 H 0.49497 0.25082 0.22345 0.0
H788 H 0.51726 0.25386 0.18883 0.0
H789 H 0.54696 0.14952 0.29466 0.0
H790 H 0.51784 0.17169 0.30415 0.0
H791 H 0.51431 0.14566 0.27375 0.0
H792 H 0.44151 0.22229 0.30748 0.0
H793 H 0.4297 0.16077 0.2337 0.0
H794 H 0.50563 0.24887 0.28007 0.0
H795 H 0.51212 0.22255 0.30946 0.0
H796 H 0.48339 0.24618 0.31477 0.0
H797 H 0.49114 0.17538 0.19017 0.0
H798 H 0.46473 0.14933 0.19683 0.0
H799 H 0.49774 0.14732 0.21734 0.0
C800 C 0.79826 0.53958 0.22953 0.0
C801 C 0.81671 0.56167 0.2353 0.0
C802 C 0.80034 0.51458 0.24676 0.0
C803 C 0.82141 0.51159 0.27029 0.0
C804 C 0.8393 0.53423 0.27726 0.0
C805 C 0.83669 0.55905 0.25972 0.0
C806 C 0.78071 0.49099 0.23888 0.0
C807 C 0.86196 0.53185 0.30229 0.0
C808 C 0.81731 0.45304 0.33135 0.0
C809 C 0.83579 0.43348 0.31831 0.0
C810 C 0.81207 0.47839 0.31575 0.0
C811 C 0.82569 0.48434 0.28645 0.0
C812 C 0.8439 0.46445 0.2728 0.0
C813 C 0.84869 0.43922 0.28887 0.0
C814 C 0.79237 0.49902 0.3309 0.0
C815 C 0.85876 0.47005 0.24152 0.0
H816 H 0.78266 0.54148 0.21081 0.0
H817 H 0.85102 0.57601 0.26435 0.0
H818 H 0.79253 0.47351 0.22813 0.0
H819 H 0.77076 0.48303 0.26108 0.0
H820 H 0.76415 0.49737 0.22174 0.0
H821 H 0.87303 0.55187 0.30619 0.0
H822 H 0.85309 0.52482 0.32551 0.0
H823 H 0.87735 0.51597 0.29468 0.0
H824 H 0.80717 0.44875 0.35405 0.0
H825 H 0.86299 0.42423 0.27864 0.0
H826 H 0.7757 0.50471 0.31364 0.0
H827 H 0.80374 0.51841 0.33701 0.0
H828 H 0.78259 0.49075 0.35311 0.0
H829 H 0.84344 0.47472 0.2223 0.0
H830 H 0.87175 0.45217 0.23375 0.0
H831 H 0.87235 0.4886 0.24411 0.0
C832 C 0.56239 0.83792 0.24588 0.0
C833 C 0.57195 0.82276 0.27247 0.0
C834 C 0.53513 0.83447 0.23442 0.0
C835 C 0.51706 0.81552 0.25003 0.0
C836 C 0.52695 0.79932 0.27599 0.0
C837 C 0.55432 0.80306 0.28681 0.0
C838 C 0.52535 0.85182 0.20633 0.0
C839 C 0.5083 0.77889 0.29319 0.0
C840 C 0.44009 0.8313 0.24156 0.0
C841 C 0.43243 0.81334 0.21652 0.0
C842 C 0.46742 0.83156 0.25346 0.0
C843 C 0.48749 0.81348 0.23992 0.0
C844 C 0.47954 0.79434 0.21581 0.0
C845 C 0.45207 0.79443 0.20449 0.0
C846 C 0.4751 0.85198 0.27959 0.0
C847 C 0.50034 0.77468 0.2009 0.0
H848 H 0.57591 0.85311 0.23464 0.0
H849 H 0.56155 0.79116 0.30732 0.0
H850 H 0.51643 0.83824 0.18737 0.0
H851 H 0.50863 0.86615 0.21427 0.0
H852 H 0.54242 0.86438 0.19568 0.0
H853 H 0.51972 0.76657 0.31155 0.0
H854 H 0.49118 0.79027 0.30525 0.0
H855 H 0.49862 0.76434 0.27576 0.0
H856 H 0.42503 0.84591 0.25104 0.0
H857 H 0.44631 0.78037 0.18523 0.0
H858 H 0.49009 0.86746 0.27005 0.0
H859 H 0.48547 0.84103 0.29979 0.0
H860 H 0.45669 0.86327 0.28904 0.0
H861 H 0.51614 0.78678 0.18741 0.0
H862 H 0.49036 0.75967 0.18415 0.0
H863 H 0.51151 0.76284 0.21982 0.0
C864 C 0.84949 0.55997 0.76541 0.0
C865 C 0.82779 0.56391 0.78748 0.0
C866 C 0.85154 0.5353 0.74746 0.0
C867 C 0.83144 0.51408 0.75167 0.0
C868 C 0.80916 0.51817 0.77332 0.0
C869 C 0.8076 0.54299 0.79093 0.0
C870 C 0.87557 0.53169 0.72454 0.0
C871 C 0.7873 0.49602 0.77848 0.0
C872 C 0.82376 0.45624 0.68989 0.0
C873 C 0.83842 0.43443 0.70465 0.0
C874 C 0.82166 0.48246 0.70464 0.0
C875 C 0.83447 0.48694 0.73487 0.0
C876 C 0.84953 0.46514 0.74971 0.0
C877 C 0.85133 0.43921 0.73445 0.0
C878 C 0.80548 0.50526 0.68808 0.0
C879 C 0.86345 0.46908 0.78197 0.0
H880 H 0.86514 0.57599 0.76244 0.0
H881 H 0.79066 0.5458 0.80776 0.0
H882 H 0.88899 0.5143 0.73278 0.0
H883 H 0.86776 0.52617 0.70026 0.0
H884 H 0.88853 0.55077 0.72263 0.0
H885 H 0.77057 0.50297 0.79501 0.0
H886 H 0.77774 0.49006 0.7552 0.0
H887 H 0.79711 0.47707 0.78868 0.0
H888 H 0.81379 0.45283 0.66685 0.0
H889 H 0.86277 0.42259 0.74611 0.0
H890 H 0.81879 0.52393 0.68498 0.0
H891 H 0.78754 0.51151 0.70317 0.0
H892 H 0.79756 0.49874 0.66414 0.0
H893 H 0.87821 0.48681 0.78091 0.0
H894 H 0.87498 0.45025 0.78988 0.0
H895 H 0.84762 0.47418 0.80041 0.0
C896 C 0.56155 0.859 0.71883 0.0
C897 C 0.56468 0.84155 0.69203 0.0
C898 C 0.53684 0.85902 0.7368 0.0
C899 C 0.51468 0.84124 0.72771 0.0
C900 C 0.51748 0.824 0.70036 0.0
C901 C 0.54243 0.82432 0.68291 0.0
C902 C 0.53464 0.87765 0.76589 0.0
C903 C 0.49428 0.80483 0.68981 0.0
C904 C 0.46251 0.81825 0.79073 0.0
C905 C 0.43961 0.83546 0.78405 0.0
C906 C 0.48713 0.8202 0.77285 0.0
C907 C 0.48897 0.83976 0.74752 0.0
C908 C 0.46607 0.85733 0.74071 0.0
C909 C 0.44167 0.85501 0.75907 0.0
C910 C 0.51113 0.80114 0.78092 0.0
C911 C 0.46724 0.87839 0.7138 0.0
H912 H 0.57856 0.87242 0.72611 0.0
H913 H 0.5445 0.81085 0.66217 0.0
H914 H 0.51603 0.89117 0.76385 0.0
H915 H 0.53202 0.86479 0.78782 0.0
H916 H 0.55329 0.89104 0.76903 0.0
H917 H 0.49931 0.79359 0.66724 0.0
H918 H 0.49007 0.78927 0.7089 0.0
H919 H 0.47485 0.81686 0.68607 0.0
H920 H 0.46125 0.80315 0.81002 0.0
H921 H 0.42415 0.86842 0.75368 0.0
H922 H 0.53002 0.81359 0.78633 0.0
H923 H 0.51603 0.78778 0.75996 0.0
H924 H 0.50662 0.78753 0.80186 0.0
H925 H 0.48506 0.89271 0.7175 0.0
H926 H 0.44787 0.8909 0.71201 0.0
H927 H 0.47063 0.86761 0.69057 0.0
C928 C 0.17185 0.45494 0.79016 0.0
C929 C 0.15433 0.43342 0.77953 0.0
C930 C 0.17228 0.48084 0.77457 0.0
C931 C 0.15483 0.48536 0.74764 0.0
C932 C 0.13666 0.464 0.7372 0.0
C933 C 0.1366 0.43831 0.75327 0.0
C934 C 0.19188 0.50316 0.78648 0.0
C935 C 0.11775 0.46804 0.70855 0.0
C936 C 0.14135 0.55961 0.72002 0.0
C937 C 0.16034 0.56233 0.69463 0.0
C938 C 0.13931 0.5347 0.73755 0.0
C939 C 0.15661 0.51194 0.72942 0.0
C940 C 0.17577 0.51452 0.70383 0.0
C941 C 0.17743 0.53965 0.6868 0.0
C942 C 0.1187 0.53273 0.76478 0.0
C943 C 0.19453 0.49068 0.69438 0.0
H944 H 0.18555 0.45149 0.81049 0.0
H945 H 0.12293 0.4219 0.74487 0.0
H946 H 0.20751 0.50793 0.76768 0.0
H947 H 0.18025 0.52264 0.79133 0.0
H948 H 0.20303 0.49687 0.80873 0.0
H949 H 0.10391 0.44986 0.70443 0.0
H950 H 0.10468 0.48682 0.71193 0.0
H951 H 0.13042 0.47145 0.68665 0.0
H952 H 0.12807 0.57698 0.72633 0.0
H953 H 0.19215 0.54143 0.66722 0.0
H954 H 0.12973 0.52784 0.78753 0.0
H955 H 0.10382 0.51552 0.7602 0.0
H956 H 0.10676 0.55231 0.76808 0.0
H957 H 0.2078 0.48459 0.71506 0.0
H958 H 0.20821 0.49601 0.6738 0.0
H959 H 0.18182 0.47226 0.68777 0.0
C960 C 0.43566 0.14143 0.72059 0.0
C961 C 0.43451 0.15919 0.69381 0.0
C962 C 0.45916 0.14085 0.74074 0.0
C963 C 0.48208 0.15837 0.73389 0.0
C964 C 0.48127 0.17594 0.70661 0.0
C965 C 0.45753 0.17617 0.68696 0.0
C966 C 0.45926 0.12188 0.76966 0.0
C967 C 0.50535 0.19485 0.69841 0.0
C968 C 0.53166 0.18104 0.79999 0.0
C969 C 0.55498 0.16424 0.7941 0.0
C970 C 0.5075 0.17871 0.7812 0.0
C971 C 0.50661 0.15918 0.75578 0.0
C972 C 0.52972 0.14159 0.75024 0.0
C973 C 0.55361 0.14428 0.7695 0.0
C974 C 0.48322 0.19775 0.78799 0.0
C975 C 0.52955 0.12054 0.72332 0.0
H976 H 0.41804 0.12821 0.72614 0.0
H977 H 0.45698 0.18988 0.66629 0.0
H978 H 0.47773 0.10807 0.76904 0.0
H979 H 0.46075 0.13446 0.79195 0.0
H980 H 0.44025 0.10878 0.77097 0.0
H981 H 0.50184 0.20653 0.67572 0.0
H982 H 0.50871 0.21003 0.71812 0.0
H983 H 0.52474 0.18252 0.696 0.0
H984 H 0.53238 0.1964 0.81904 0.0
H985 H 0.57146 0.13117 0.76471 0.0
H986 H 0.46392 0.1854 0.79119 0.0
H987 H 0.47981 0.21184 0.76723 0.0
H988 H 0.48657 0.21063 0.80982 0.0
H989 H 0.51094 0.10696 0.72515 0.0
H990 H 0.54845 0.10725 0.72344 0.0
H991 H 0.52831 0.13146 0.69987 0.0
C992 C 0.70108 0.05525 0.79561 0.0
C993 C 0.68191 0.07395 0.7821 0.0
C994 C 0.70428 0.02835 0.78317 0.0
C995 C 0.68801 0.02004 0.75652 0.0
C996 C 0.6695 0.03918 0.7419 0.0
C997 C 0.66665 0.06594 0.7549 0.0
C998 C 0.72429 0.00852 0.79928 0.0
C999 C 0.65202 0.03109 0.71319 0.0
C1000 C 0.70723 0.95711 0.70656 0.0
C1001 C 0.68774 0.93742 0.71723 0.0
C1002 C 0.70824 0.98386 0.71991 0.0
C1003 C 0.68941 0.99098 0.74462 0.0
C1004 C 0.67078 0.97073 0.75676 0.0
C1005 C 0.67015 0.94415 0.74288 0.0
C1006 C 0.72848 0.00488 0.70645 0.0
C1007 C 0.65062 0.97753 0.7834 0.0
H1008 H 0.71303 0.0613 0.81658 0.0
H1009 H 0.65187 0.08031 0.74429 0.0
H1010 H 0.71255 0.99104 0.8102 0.0
H1011 H 0.7387 0.99943 0.78134 0.0
H1012 H 0.73677 0.01881 0.81838 0.0
H1013 H 0.63974 0.04885 0.70363 0.0
H1014 H 0.66548 0.02295 0.69371 0.0
H1015 H 0.63744 0.01419 0.72 0.0
H1016 H 0.72102 0.95204 0.68684 0.0
H1017 H 0.65512 0.92901 0.75134 0.0
H1018 H 0.74045 0.01488 0.72612 0.0
H1019 H 0.71684 0.02156 0.69381 0.0
H1020 H 0.74334 0.99535 0.68927 0.0
H1021 H 0.66185 0.98665 0.8042 0.0
H1022 H 0.63894 0.95892 0.7917 0.0
H1023 H 0.63546 0.99331 0.77487 0.0
C1024 C 0.94959 0.70227 0.79498 0.0
C1025 C 0.92989 0.68394 0.78181 0.0
C1026 C 0.97635 0.70457 0.78191 0.0
C1027 C 0.98355 0.68816 0.75499 0.0
C1028 C 0.96343 0.67046 0.74077 0.0
C1029 C 0.9368 0.66857 0.75434 0.0
C1030 C 0.99721 0.72379 0.7976 0.0
C1031 C 0.97033 0.65281 0.71185 0.0
C1032 C 0.04637 0.70577 0.70396 0.0
C1033 C 0.06574 0.68588 0.71447 0.0
C1034 C 0.01978 0.70734 0.71761 0.0
C1035 C 0.01243 0.68862 0.7424 0.0
C1036 C 0.03232 0.66941 0.7542 0.0
C1037 C 0.05879 0.66828 0.7401 0.0
C1038 C 0.99919 0.72824 0.70457 0.0
C1039 C 0.02528 0.64927 0.78083 0.0
H1040 H 0.9444 0.71433 0.81614 0.0
H1041 H 0.92169 0.65439 0.74401 0.0
H1042 H 0.01448 0.7114 0.80801 0.0
H1043 H 0.00641 0.73799 0.77949 0.0
H1044 H 0.98777 0.7365 0.81702 0.0
H1045 H 0.95197 0.64118 0.70271 0.0
H1046 H 0.97857 0.66604 0.6922 0.0
H1047 H 0.98682 0.63762 0.71825 0.0
H1048 H 0.05162 0.71956 0.68427 0.0
H1049 H 0.07365 0.65291 0.7484 0.0
H1050 H 0.99009 0.74061 0.72444 0.0
H1051 H 0.98181 0.71716 0.69252 0.0
H1052 H 0.00883 0.74272 0.68701 0.0
H1053 H 0.01705 0.66067 0.80195 0.0
H1054 H 0.04357 0.63681 0.78856 0.0
H1055 H 0.00873 0.63481 0.7726 0.0
C1056 C 0.32602 0.05861 0.73487 0.0
C1057 C 0.30907 0.06588 0.70874 0.0
C1058 C 0.32466 0.03191 0.7484 0.0
C1059 C 0.30591 0.01211 0.73546 0.0
C1060 C 0.28763 0.01983 0.71035 0.0
C1061 C 0.2894 0.04667 0.69731 0.0
C1062 C 0.34427 0.02449 0.77548 0.0
C1063 C 0.26722 0.99933 0.69612 0.0
C1064 C 0.32808 0.93694 0.7455 0.0
C1065 C 0.31267 0.92892 0.77251 0.0
C1066 C 0.32533 0.96373 0.7325 0.0
C1067 C 0.30676 0.98288 0.7469 0.0
C1068 C 0.29017 0.97447 0.77318 0.0
C1069 C 0.29329 0.94754 0.78563 0.0
C1070 C 0.34316 0.97191 0.70419 0.0
C1071 C 0.27006 0.99428 0.78904 0.0
H1072 H 0.34118 0.07337 0.74393 0.0
H1073 H 0.27609 0.05218 0.67724 0.0
H1074 H 0.33256 0.0153 0.79583 0.0
H1075 H 0.35933 0.00858 0.76711 0.0
H1076 H 0.35609 0.04282 0.78437 0.0
H1077 H 0.25265 0.00936 0.6789 0.0
H1078 H 0.27874 0.98271 0.6833 0.0
H1079 H 0.25494 0.98916 0.71536 0.0
H1080 H 0.34302 0.92264 0.73517 0.0
H1081 H 0.28119 0.94147 0.80644 0.0
H1082 H 0.35795 0.98848 0.71153 0.0
H1083 H 0.33001 0.98052 0.68464 0.0
H1084 H 0.35525 0.95409 0.69455 0.0
H1085 H 0.2818 0.01132 0.80089 0.0
H1086 H 0.25698 0.98379 0.80739 0.0
H1087 H 0.25625 0.00398 0.77084 0.0
C1088 C 0.05368 0.33543 0.71695 0.0
C1089 C 0.06545 0.31164 0.73104 0.0
C1090 C 0.02475 0.33772 0.71307 0.0
C1091 C 0.00741 0.31588 0.724 0.0
C1092 C 0.01947 0.29034 0.73367 0.0
C1093 C 0.04846 0.28843 0.73679 0.0
C1094 C 0.01276 0.36489 0.70132 0.0
C1095 C 0.00185 0.26638 0.74531 0.0
C1096 C 0.94639 0.33792 0.77509 0.0
C1097 C 0.92361 0.33153 0.75544 0.0
C1098 C 0.97363 0.33325 0.76475 0.0
C1099 C 0.97834 0.32218 0.73368 0.0
C1100 C 0.95545 0.3162 0.71333 0.0
C1101 C 0.92824 0.32054 0.72471 0.0
C1102 C 0.99735 0.33974 0.78749 0.0
C1103 C 0.95969 0.30493 0.67986 0.0
H1104 H 0.06675 0.35323 0.71159 0.0
H1105 H 0.0574 0.26969 0.74698 0.0
H1106 H 0.99352 0.36142 0.6871 0.0
H1107 H 0.00729 0.37804 0.72228 0.0
H1108 H 0.02796 0.37652 0.68637 0.0
H1109 H 0.01362 0.24649 0.74524 0.0
H1110 H 0.99504 0.27063 0.7703 0.0
H1111 H 0.98293 0.26387 0.73033 0.0
H1112 H 0.94292 0.34641 0.79888 0.0
H1113 H 0.91062 0.31469 0.70993 0.0
H1114 H 0.01145 0.35535 0.77654 0.0
H1115 H 0.00973 0.32067 0.79213 0.0
H1116 H 0.99001 0.34801 0.81091 0.0
H1117 H 0.97416 0.31854 0.6663 0.0
H1118 H 0.93983 0.3033 0.66628 0.0
H1119 H 0.96935 0.28401 0.68109 0.0
C1120 C 0.31715 0.04171 0.28662 0.0
C1121 C 0.33497 0.06394 0.27908 0.0
C1122 C 0.31832 0.01653 0.26967 0.0
C1123 C 0.33772 0.01341 0.24442 0.0
C1124 C 0.35588 0.03564 0.2367 0.0
C1125 C 0.35432 0.06063 0.25416 0.0
C1126 C 0.29864 0.9933 0.27869 0.0
C1127 C 0.37676 0.03309 0.20982 0.0
C1128 C 0.35447 0.93933 0.21882 0.0
C1129 C 0.33671 0.93582 0.1923 0.0
C1130 C 0.35546 0.96467 0.23564 0.0
C1131 C 0.33837 0.98706 0.22564 0.0
C1132 C 0.32084 0.98385 0.19854 0.0
C1133 C 0.32018 0.9583 0.18227 0.0
C1134 C 0.37435 0.96728 0.26451 0.0
C1135 C 0.30237 0.00728 0.18706 0.0
H1136 H 0.30217 0.04391 0.30588 0.0
H1137 H 0.3682 0.07762 0.24812 0.0
H1138 H 0.28508 0.98811 0.25794 0.0
H1139 H 0.31057 0.97427 0.28485 0.0
H1140 H 0.28522 0.99882 0.29943 0.0
H1141 H 0.38976 0.05207 0.20723 0.0
H1142 H 0.39063 0.01503 0.21422 0.0
H1143 H 0.3658 0.02922 0.18677 0.0
H1144 H 0.36737 0.92216 0.22678 0.0
H1145 H 0.3065 0.95595 0.16171 0.0
H1146 H 0.36172 0.97094 0.28639 0.0
H1147 H 0.38837 0.98546 0.26165 0.0
H1148 H 0.38723 0.94838 0.26833 0.0
H1149 H 0.287 0.01254 0.20595 0.0
H1150 H 0.29092 0.00187 0.1647 0.0
H1151 H 0.31497 0.02622 0.18255 0.0
C1152 C 0.97582 0.31153 0.311 0.0
C1153 C 0.95281 0.32938 0.30854 0.0
C1154 C 0.99738 0.31238 0.28832 0.0
C1155 C 0.99582 0.33135 0.26236 0.0
C1156 C 0.97278 0.34955 0.2598 0.0
C1157 C 0.95162 0.34844 0.28299 0.0
C1158 C 0.02175 0.29281 0.29204 0.0
C1159 C 0.97027 0.36992 0.23231 0.0
C1160 C 0.06285 0.34859 0.21826 0.0
C1161 C 0.0615 0.33047 0.19184 0.0
C1162 C 0.04149 0.34933 0.24122 0.0
C1163 C 0.01809 0.33171 0.23755 0.0
C1164 C 0.01628 0.31384 0.2106 0.0
C1165 C 0.03804 0.31334 0.18816 0.0
C1166 C 0.04424 0.36854 0.26976 0.0
C1167 C 0.99152 0.29495 0.20567 0.0
H1168 H 0.97704 0.29683 0.33071 0.0
H1169 H 0.93391 0.36226 0.28077 0.0
H1170 H 0.02296 0.27878 0.27093 0.0
H1171 H 0.04146 0.30481 0.29295 0.0
H1172 H 0.02023 0.27988 0.3141 0.0
H1173 H 0.95125 0.38295 0.23405 0.0
H1174 H 0.9887 0.38381 0.23176 0.0
H1175 H 0.96976 0.35849 0.20916 0.0
H1176 H 0.08089 0.36186 0.22141 0.0
H1177 H 0.03668 0.29939 0.16777 0.0
H1178 H 0.04469 0.35617 0.29227 0.0
H1179 H 0.02595 0.38255 0.27112 0.0
H1180 H 0.06339 0.38146 0.26866 0.0
H1181 H 0.99008 0.27991 0.22584 0.0
H1182 H 0.99276 0.28311 0.1828 0.0
H1183 H 0.97204 0.30732 0.20561 0.0
C1184 C 0.65202 0.95306 0.25803 0.0
C1185 C 0.67077 0.94927 0.28358 0.0
C1186 C 0.65099 0.97833 0.24099 0.0
C1187 C 0.66902 1.00038 0.2498 0.0
C1188 C 0.68791 0.99672 0.27558 0.0
C1189 C 0.68861 0.97126 0.29205 0.0
C1190 C 0.63068 0.98142 0.2135 0.0
C1191 C 0.70743 0.01973 0.28581 0.0
C1192 C 0.68775 0.05747 0.19049 0.0
C1193 C 0.67109 0.07967 0.20101 0.0
C1194 C 0.68666 0.03135 0.20555 0.0
C1195 C 0.66858 0.02725 0.23191 0.0
C1196 C 0.65128 0.04933 0.24228 0.0
C1197 C 0.65269 0.07524 0.22667 0.0
C1198 C 0.70534 0.0083 0.19366 0.0
C1199 C 0.63178 0.0458 0.27038 0.0
H1200 H 0.63816 0.93626 0.25125 0.0
H1201 H 0.70312 0.9687 0.31179 0.0
H1202 H 0.61649 0.99916 0.21812 0.0
H1203 H 0.64208 0.98611 0.19099 0.0
H1204 H 0.61798 0.96237 0.20974 0.0
H1205 H 0.7206 0.01369 0.30663 0.0
H1206 H 0.72122 0.02552 0.26554 0.0
H1207 H 0.69535 0.03856 0.29238 0.0
H1208 H 0.70191 0.06051 0.17056 0.0
H1209 H 0.63968 0.09218 0.23498 0.0
H1210 H 0.69288 0.98942 0.18827 0.0
H1211 H 0.72052 0.00262 0.21268 0.0
H1212 H 0.71702 0.01432 0.17173 0.0
H1213 H 0.61797 0.02762 0.26642 0.0
H1214 H 0.61868 0.06451 0.27442 0.0
H1215 H 0.64397 0.04165 0.29254 0.0
C1216 C 0.03669 0.67674 0.29288 0.0
C1217 C 0.05921 0.65942 0.28509 0.0
C1218 C 0.01164 0.67549 0.27559 0.0
C1219 C 0.00897 0.65653 0.24975 0.0
C1220 C 0.03149 0.63888 0.24181 0.0
C1221 C 0.05633 0.64049 0.25959 0.0
C1222 C 0.98805 0.69462 0.28486 0.0
C1223 C 0.02943 0.61844 0.21436 0.0
C1224 C 0.93548 0.63838 0.22305 0.0
C1225 C 0.93169 0.65635 0.19679 0.0
C1226 C 0.96069 0.63783 0.24016 0.0
C1227 C 0.98271 0.65563 0.23076 0.0
C1228 C 0.97925 0.67339 0.20391 0.0
C1229 C 0.95382 0.67356 0.18729 0.0
C1230 C 0.96359 0.61862 0.26869 0.0
C1231 C 0.00228 0.69261 0.19308 0.0
H1232 H 0.03859 0.69138 0.31257 0.0
H1233 H 0.07355 0.62701 0.25333 0.0
H1234 H 0.98269 0.70839 0.26436 0.0
H1235 H 0.96922 0.68224 0.29061 0.0
H1236 H 0.99329 0.70782 0.30593 0.0
H1237 H 0.04866 0.60586 0.21158 0.0
H1238 H 0.01163 0.60413 0.21824 0.0
H1239 H 0.02545 0.62974 0.19156 0.0
H1240 H 0.91858 0.62496 0.23061 0.0
H1241 H 0.95123 0.68744 0.16698 0.0
H1242 H 0.96691 0.63103 0.29084 0.0
H1243 H 0.98204 0.60503 0.2657 0.0
H1244 H 0.94494 0.60528 0.2721 0.0
H1245 H 0.00711 0.70778 0.21239 0.0
H1246 H 0.9967 0.70428 0.17095 0.0
H1247 H 0.02152 0.68054 0.18845 0.0
loop_
_geom_bond_atom_site_label_1
_geom_bond_atom_site_label_2
_geom_bond_distance
_geom_bond_site_symmetry_2
_ccdc_geom_bond_type
Mg0 O1 2.028 . S
Mg0 O7 1.986 . S
Mg0 O9 2.114 . S
Mg0 O10 2.251 . S
Mg0 O13 2.010 . S
O1 Mg0 2.028 . S
O1 C4 1.250 . S
O2 Mg3 2.028 . S
O2 C4 1.248 . S
Mg3 O2 2.028 . S
Mg3 O8 2.032 . S
Mg3 O10 2.079 . S
C4 O1 1.250 . S
C4 O2 1.248 . S
C5 O6 1.264 . S
C5 O13 1.249 . S
O6 C5 1.264 . S
O7 Mg0 1.986 . S
O7 C11 1.246 . S
O8 Mg3 2.032 . S
O8 C11 1.259 . S
O9 Mg0 2.114 . S
O9 C12 1.252 . S
O10 Mg0 2.251 . S
O10 Mg3 2.079 . S
O10 C12 1.273 . S
C11 O7 1.246 . S
C11 O8 1.259 . S
C12 O9 1.252 . S
C12 O10 1.273 . S
O13 Mg0 2.010 . S
O13 C5 1.249 . S
Mg14 O15 2.028 . S
Mg14 O21 1.986 . S
Mg14 O23 2.114 . S
Mg14 O24 2.251 . S
Mg14 O27 2.010 . S
O15 Mg14 2.028 . S
O15 C18 1.250 . S
O16 Mg17 2.028 . S
O16 C18 1.248 . S
Mg17 O16 2.028 . S
Mg17 O22 2.032 . S
Mg17 O24 2.079 . S
C18 O15 1.250 . S
C18 O16 1.248 . S
C19 O20 1.264 . S
C19 O27 1.249 . S
O20 C19 1.264 . S
O21 Mg14 1.986 . S
O21 C25 1.246 . S
O22 Mg17 2.032 . S
O22 C25 1.259 . S
O23 Mg14 2.114 . S
O23 C26 1.252 . S
O24 Mg14 2.251 . S
O24 Mg17 2.079 . S
O24 C26 1.273 . S
C25 O21 1.246 . S
C25 O22 1.259 . S
C26 O23 1.252 . S
C26 O24 1.273 . S
O27 Mg14 2.010 . S
O27 C19 1.249 . S
Mg28 O29 2.028 . S
Mg28 O35 1.986 . S
Mg28 O37 2.114 . S
Mg28 O38 2.251 . S
Mg28 O41 2.010 . S
O29 Mg28 2.028 . S
O29 C32 1.250 . S
O30 Mg31 2.028 . S
O30 C32 1.248 . S
Mg31 O30 2.028 . S
Mg31 O36 2.032 . S
Mg31 O38 2.079 . S
C32 O29 1.250 . S
C32 O30 1.248 . S
C33 O34 1.264 . S
C33 O41 1.249 . S
O34 C33 1.264 . S
O35 Mg28 1.986 . S
O35 C39 1.246 . S
O36 Mg31 2.032 . S
O36 C39 1.259 . S
O37 Mg28 2.114 . S
O37 C40 1.252 . S
O38 Mg28 2.251 . S
O38 Mg31 2.079 . S
O38 C40 1.273 . S
C39 O35 1.246 . S
C39 O36 1.259 . S
C40 O37 1.252 . S
C40 O38 1.273 . S
O41 Mg28 2.010 . S
O41 C33 1.249 . S
Mg42 O43 2.028 . S
Mg42 O49 1.986 . S
Mg42 O51 2.114 . S
Mg42 O52 2.251 . S
Mg42 O55 2.010 . S
O43 Mg42 2.028 . S
O43 C46 1.250 . S
O44 Mg45 2.028 . S
O44 C46 1.248 . S
Mg45 O44 2.028 . S
Mg45 O50 2.032 . S
Mg45 O52 2.079 . S
C46 O43 1.250 . S
C46 O44 1.248 . S
C47 O48 1.264 . S
C47 O55 1.249 . S
O48 C47 1.264 . S
O49 Mg42 1.986 . S
O49 C53 1.246 . S
O50 Mg45 2.032 . S
O50 C53 1.259 . S
O51 Mg42 2.114 . S
O51 C54 1.252 . S
O52 Mg42 2.251 . S
O52 Mg45 2.079 . S
O52 C54 1.273 . S
C53 O49 1.246 . S
C53 O50 1.259 . S
C54 O51 1.252 . S
C54 O52 1.273 . S
O55 Mg42 2.010 . S
O55 C47 1.249 . S
Mg56 O57 2.028 . S
Mg56 O63 1.986 . S
Mg56 O65 2.114 . S
Mg56 O66 2.251 . S
Mg56 O69 2.010 . S
O57 Mg56 2.028 . S
O57 C60 1.250 . S
O58 Mg59 2.028 . S
O58 C60 1.248 . S
Mg59 O58 2.028 . S
Mg59 O64 2.032 . S
Mg59 O66 2.079 . S
C60 O57 1.250 . S
C60 O58 1.248 . S
C61 O62 1.264 . S
C61 O69 1.249 . S
O62 C61 1.264 . S
O63 Mg56 1.986 . S
O63 C67 1.246 . S
O64 Mg59 2.032 . S
O64 C67 1.259 . S
O65 Mg56 2.114 . S
O65 C68 1.252 . S
O66 Mg56 2.251 . S
O66 Mg59 2.079 . S
O66 C68 1.273 . S
C67 O63 1.246 . S
C67 O64 1.259 . S
C68 O65 1.252 . S
C68 O66 1.273 . S
O69 Mg56 2.010 . S
O69 C61 1.249 . S
Mg70 O71 2.028 . S
Mg70 O77 1.986 . S
Mg70 O79 2.114 . S
Mg70 O80 2.251 . S
Mg70 O83 2.010 . S
O71 Mg70 2.028 . S
O71 C74 1.250 . S
O72 Mg73 2.028 . S
O72 C74 1.248 . S
Mg73 O72 2.028 . S
Mg73 O78 2.032 . S
Mg73 O80 2.079 . S
C74 O71 1.250 . S
C74 O72 1.248 . S
C75 O76 1.264 . S
C75 O83 1.249 . S
O76 C75 1.264 . S
O77 Mg70 1.986 . S
O77 C81 1.246 . S
O78 Mg73 2.032 . S
O78 C81 1.259 . S
O79 Mg70 2.114 . S
O79 C82 1.252 . S
O80 Mg70 2.251 . S
O80 Mg73 2.079 . S
O80 C82 1.273 . S
C81 O77 1.246 . S
C81 O78 1.259 . S
C82 O79 1.252 . S
C82 O80 1.273 . S
O83 Mg70 2.010 . S
O83 C75 1.249 . S
Mg84 O85 2.028 . S
Mg84 O91 1.986 . S
Mg84 O93 2.114 . S
Mg84 O94 2.251 . S
Mg84 O97 2.010 . S
O85 Mg84 2.028 . S
O85 C88 1.250 . S
O86 Mg87 2.028 . S
O86 C88 1.248 . S
Mg87 O86 2.028 . S
Mg87 O92 2.032 . S
Mg87 O94 2.079 . S
C88 O85 1.250 . S
C88 O86 1.248 . S
C89 O90 1.264 . S
C89 O97 1.249 . S
O90 C89 1.264 . S
O91 Mg84 1.986 . S
O91 C95 1.246 . S
O92 Mg87 2.032 . S
O92 C95 1.259 . S
O93 Mg84 2.114 . S
O93 C96 1.252 . S
O94 Mg84 2.251 . S
O94 Mg87 2.079 . S
O94 C96 1.273 . S
C95 O91 1.246 . S
C95 O92 1.259 . S
C96 O93 1.252 . S
C96 O94 1.273 . S
O97 Mg84 2.010 . S
O97 C89 1.249 . S
Mg98 O99 2.028 . S
Mg98 O105 1.986 . S
Mg98 O107 2.114 . S
Mg98 O108 2.251 . S
Mg98 O111 2.010 . S
O99 Mg98 2.028 . S
O99 C102 1.250 . S
O100 Mg101 2.028 . S
O100 C102 1.248 . S
Mg101 O100 2.028 . S
Mg101 O106 2.032 . S
Mg101 O108 2.079 . S
C102 O99 1.250 . S
C102 O100 1.248 . S
C103 O104 1.264 . S
C103 O111 1.249 . S
O104 C103 1.264 . S
O105 Mg98 1.986 . S
O105 C109 1.246 . S
O106 Mg101 2.032 . S
O106 C109 1.259 . S
O107 Mg98 2.114 . S
O107 C110 1.252 . S
O108 Mg98 2.251 . S
O108 Mg101 2.079 . S
O108 C110 1.273 . S
C109 O105 1.246 . S
C109 O106 1.259 . S
C110 O107 1.252 . S
C110 O108 1.273 . S
O111 Mg98 2.010 . S
O111 C103 1.249 . S
Mg112 O113 2.028 . S
Mg112 O119 1.986 . S
Mg112 O121 2.114 . S
Mg112 O122 2.251 . S
Mg112 O125 2.010 . S
O113 Mg112 2.028 . S
O113 C116 1.250 . S
O114 Mg115 2.028 . S
O114 C116 1.248 . S
Mg115 O114 2.028 . S
Mg115 O120 2.032 . S
Mg115 O122 2.079 . S
C116 O113 1.250 . S
C116 O114 1.248 . S
C117 O118 1.264 . S
C117 O125 1.249 . S
O118 C117 1.264 . S
O119 Mg112 1.986 . S
O119 C123 1.246 . S
O120 Mg115 2.032 . S
O120 C123 1.259 . S
O121 Mg112 2.114 . S
O121 C124 1.252 . S
O122 Mg112 2.251 . S
O122 Mg115 2.079 . S
O122 C124 1.273 . S
C123 O119 1.246 . S
C123 O120 1.259 . S
C124 O121 1.252 . S
C124 O122 1.273 . S
O125 Mg112 2.010 . S
O125 C117 1.249 . S
Mg126 O127 2.028 . S
Mg126 O133 1.986 . S
Mg126 O135 2.114 . S
Mg126 O136 2.251 . S
Mg126 O139 2.010 . S
O127 Mg126 2.028 . S
O127 C130 1.250 . S
O128 Mg129 2.028 . S
O128 C130 1.248 . S
Mg129 O128 2.028 . S
Mg129 O134 2.032 . S
Mg129 O136 2.079 . S
C130 O127 1.250 . S
C130 O128 1.248 . S
C131 O132 1.264 . S
C131 O139 1.249 . S
O132 C131 1.264 . S
O133 Mg126 1.986 . S
O133 C137 1.246 . S
O134 Mg129 2.032 . S
O134 C137 1.259 . S
O135 Mg126 2.114 . S
O135 C138 1.252 . S
O136 Mg126 2.251 . S
O136 Mg129 2.079 . S
O136 C138 1.273 . S
C137 O133 1.246 . S
C137 O134 1.259 . S
C138 O135 1.252 . S
C138 O136 1.273 . S
O139 Mg126 2.010 . S
O139 C131 1.249 . S
Mg140 O141 2.028 . S
Mg140 O147 1.986 . S
Mg140 O149 2.114 . S
Mg140 O150 2.251 . S
Mg140 O153 2.010 . S
O141 Mg140 2.028 . S
O141 C144 1.250 . S
O142 Mg143 2.028 . S
O142 C144 1.248 . S
Mg143 O142 2.028 . S
Mg143 O148 2.032 . S
Mg143 O150 2.079 . S
C144 O141 1.250 . S
C144 O142 1.248 . S
C145 O146 1.264 . S
C145 O153 1.249 . S
O146 C145 1.264 . S
O147 Mg140 1.986 . S
O147 C151 1.246 . S
O148 Mg143 2.032 . S
O148 C151 1.259 . S
O149 Mg140 2.114 . S
O149 C152 1.252 . S
O150 Mg140 2.251 . S
O150 Mg143 2.079 . S
O150 C152 1.273 . S
C151 O147 1.246 . S
C151 O148 1.259 . S
C152 O149 1.252 . S
C152 O150 1.273 . S
O153 Mg140 2.010 . S
O153 C145 1.249 . S
Mg154 O155 2.028 . S
Mg154 O161 1.986 . S
Mg154 O163 2.114 . S
Mg154 O164 2.251 . S
Mg154 O167 2.010 . S
O155 Mg154 2.028 . S
O155 C158 1.250 . S
O156 Mg157 2.028 . S
O156 C158 1.248 . S
Mg157 O156 2.028 . S
Mg157 O162 2.032 . S
Mg157 O164 2.079 . S
C158 O155 1.250 . S
C158 O156 1.248 . S
C159 O160 1.264 . S
C159 O167 1.249 . S
O160 C159 1.264 . S
O161 Mg154 1.986 . S
O161 C165 1.246 . S
O162 Mg157 2.032 . S
O162 C165 1.259 . S
O163 Mg154 2.114 . S
O163 C166 1.252 . S
O164 Mg154 2.251 . S
O164 Mg157 2.079 . S
O164 C166 1.273 . S
C165 O161 1.246 . S
C165 O162 1.259 . S
C166 O163 1.252 . S
C166 O164 1.273 . S
O167 Mg154 2.010 . S
O167 C159 1.249 . S
Mg168 O169 2.028 . S
Mg168 O175 1.986 . S
Mg168 O177 2.114 . S
Mg168 O178 2.251 . S
Mg168 O181 2.010 . S
O169 Mg168 2.028 . S
O169 C172 1.250 . S
O170 Mg171 2.028 . S
O170 C172 1.248 . S
Mg171 O170 2.028 . S
Mg171 O176 2.032 . S
Mg171 O178 2.079 . S
C172 O169 1.250 . S
C172 O170 1.248 . S
C173 O174 1.264 . S
C173 O181 1.249 . S
O174 C173 1.264 . S
O175 Mg168 1.986 . S
O175 C179 1.246 . S
O176 Mg171 2.032 . S
O176 C179 1.259 . S
O177 Mg168 2.114 . S
O177 C180 1.252 . S
O178 Mg168 2.251 . S
O178 Mg171 2.079 . S
O178 C180 1.273 . S
C179 O175 1.246 . S
C179 O176 1.259 . S
C180 O177 1.252 . S
C180 O178 1.273 . S
O181 Mg168 2.010 . S
O181 C173 1.249 . S
Mg182 O183 2.028 . S
Mg182 O189 1.986 . S
Mg182 O191 2.114 . S
Mg182 O192 2.251 . S
Mg182 O195 2.010 . S
O183 Mg182 2.028 . S
O183 C186 1.250 . S
O184 Mg185 2.028 . S
O184 C186 1.248 . S
Mg185 O184 2.028 . S
Mg185 O190 2.032 . S
Mg185 O192 2.079 . S
C186 O183 1.250 . S
C186 O184 1.248 . S
C187 O188 1.264 . S
C187 O195 1.249 . S
O188 C187 1.264 . S
O189 Mg182 1.986 . S
O189 C193 1.246 . S
O190 Mg185 2.032 . S
O190 C193 1.259 . S
O191 Mg182 2.114 . S
O191 C194 1.252 . S
O192 Mg182 2.251 . S
O192 Mg185 2.079 . S
O192 C194 1.273 . S
C193 O189 1.246 . S
C193 O190 1.259 . S
C194 O191 1.252 . S
C194 O192 1.273 . S
O195 Mg182 2.010 . S
O195 C187 1.249 . S
Mg196 O197 2.028 . S
Mg196 O203 1.986 . S
Mg196 O205 2.114 . S
Mg196 O206 2.251 . S
Mg196 O209 2.010 . S
O197 Mg196 2.028 . S
O197 C200 1.250 . S
O198 Mg199 2.028 . S
O198 C200 1.248 . S
Mg199 O198 2.028 . S
Mg199 O204 2.032 . S
Mg199 O206 2.079 . S
C200 O197 1.250 . S
C200 O198 1.248 . S
C201 O202 1.264 . S
C201 O209 1.249 . S
O202 C201 1.264 . S
O203 Mg196 1.986 . S
O203 C207 1.246 . S
O204 Mg199 2.032 . S
O204 C207 1.259 . S
O205 Mg196 2.114 . S
O205 C208 1.252 . S
O206 Mg196 2.251 . S
O206 Mg199 2.079 . S
O206 C208 1.273 . S
C207 O203 1.246 . S
C207 O204 1.259 . S
C208 O205 1.252 . S
C208 O206 1.273 . S
O209 Mg196 2.010 . S
O209 C201 1.249 . S
Mg210 O211 2.028 . S
Mg210 O217 1.986 . S
Mg210 O219 2.114 . S
Mg210 O220 2.251 . S
Mg210 O223 2.010 . S
O211 Mg210 2.028 . S
O211 C214 1.250 . S
O212 Mg213 2.028 . S
O212 C214 1.248 . S
Mg213 O212 2.028 . S
Mg213 O218 2.032 . S
Mg213 O220 2.079 . S
C214 O211 1.250 . S
C214 O212 1.248 . S
C215 O216 1.264 . S
C215 O223 1.249 . S
O216 C215 1.264 . S
O217 Mg210 1.986 . S
O217 C221 1.246 . S
O218 Mg213 2.032 . S
O218 C221 1.259 . S
O219 Mg210 2.114 . S
O219 C222 1.252 . S
O220 Mg210 2.251 . S
O220 Mg213 2.079 . S
O220 C222 1.273 . S
C221 O217 1.246 . S
C221 O218 1.259 . S
C222 O219 1.252 . S
C222 O220 1.273 . S
O223 Mg210 2.010 . S
O223 C215 1.249 . S
C224 C225 1.391 . S
C224 C226 1.394 . S
C224 H240 0.931 . S
C225 C224 1.391 . S
C225 C229 1.376 . S
C226 C224 1.394 . S
C226 C227 1.369 . S
C226 C230 1.531 . S
C227 C226 1.369 . S
C227 C228 1.410 . S
C227 C235 1.503 . S
C228 C227 1.410 . S
C228 C229 1.392 . S
C228 C231 1.511 . S
C229 C225 1.376 . S
C229 C228 1.392 . S
C229 H241 0.929 . S
C230 C226 1.531 . S
C230 H242 0.960 . S
C230 H243 0.962 . S
C230 H244 0.960 . S
C231 C228 1.511 . S
C231 H245 0.961 . S
C231 H246 0.961 . S
C231 H247 0.961 . S
C232 C233 1.370 . S
C232 C234 1.363 . S
C232 H248 0.931 . S
C233 C232 1.370 . S
C233 C237 1.408 . S
C234 C232 1.363 . S
C234 C235 1.370 . S
C234 C238 1.524 . S
C235 C227 1.503 . S
C235 C234 1.370 . S
C235 C236 1.403 . S
C236 C235 1.403 . S
C236 C237 1.404 . S
C236 C239 1.539 . S
C237 C233 1.408 . S
C237 C236 1.404 . S
C237 H249 0.930 . S
C238 C234 1.524 . S
C238 H250 0.956 . S
C238 H251 0.961 . S
C238 H252 0.961 . S
C239 C236 1.539 . S
C239 H253 0.958 . S
C239 H254 0.961 . S
C239 H255 0.960 . S
H240 C224 0.931 . S
H241 C229 0.929 . S
H242 C230 0.960 . S
H243 C230 0.962 . S
H244 C230 0.960 . S
H245 C231 0.961 . S
H246 C231 0.961 . S
H247 C231 0.961 . S
H248 C232 0.931 . S
H249 C237 0.930 . S
H250 C238 0.956 . S
H251 C238 0.961 . S
H252 C238 0.961 . S
H253 C239 0.958 . S
H254 C239 0.961 . S
H255 C239 0.960 . S
C256 C257 1.391 . S
C256 C258 1.394 . S
C256 H272 0.931 . S
C257 C256 1.391 . S
C257 C261 1.376 . S
C258 C256 1.394 . S
C258 C259 1.369 . S
C258 C262 1.531 . S
C259 C258 1.369 . S
C259 C260 1.410 . S
C259 C267 1.503 . S
C260 C259 1.410 . S
C260 C261 1.392 . S
C260 C263 1.511 . S
C261 C257 1.376 . S
C261 C260 1.392 . S
C261 H273 0.929 . S
C262 C258 1.531 . S
C262 H274 0.960 . S
C262 H275 0.962 . S
C262 H276 0.960 . S
C263 C260 1.511 . S
C263 H277 0.961 . S
C263 H278 0.961 . S
C263 H279 0.961 . S
C264 C265 1.370 . S
C264 C266 1.363 . S
C264 H280 0.931 . S
C265 C264 1.370 . S
C265 C269 1.408 . S
C266 C264 1.363 . S
C266 C267 1.370 . S
C266 C270 1.524 . S
C267 C259 1.503 . S
C267 C266 1.370 . S
C267 C268 1.403 . S
C268 C267 1.403 . S
C268 C269 1.404 . S
C268 C271 1.539 . S
C269 C265 1.408 . S
C269 C268 1.404 . S
C269 H281 0.930 . S
C270 C266 1.524 . S
C270 H282 0.956 . S
C270 H283 0.961 . S
C270 H284 0.961 . S
C271 C268 1.539 . S
C271 H285 0.958 . S
C271 H286 0.961 . S
C271 H287 0.960 . S
H272 C256 0.931 . S
H273 C261 0.929 . S
H274 C262 0.960 . S
H275 C262 0.962 . S
H276 C262 0.960 . S
H277 C263 0.961 . S
H278 C263 0.961 . S
H279 C263 0.961 . S
H280 C264 0.931 . S
H281 C269 0.930 . S
H282 C270 0.956 . S
H283 C270 0.961 . S
H284 C270 0.961 . S
H285 C271 0.958 . S
H286 C271 0.961 . S
H287 C271 0.960 . S
C288 C289 1.391 . S
C288 C290 1.394 . S
C288 H304 0.931 . S
C289 C288 1.391 . S
C289 C293 1.376 . S
C290 C288 1.394 . S
C290 C291 1.369 . S
C290 C294 1.531 . S
C291 C290 1.369 . S
C291 C292 1.410 . S
C291 C299 1.503 . S
C292 C291 1.410 . S
C292 C293 1.392 . S
C292 C295 1.511 . S
C293 C289 1.376 . S
C293 C292 1.392 . S
C293 H305 0.929 . S
C294 C290 1.531 . S
C294 H306 0.960 . S
C294 H307 0.962 . S
C294 H308 0.960 . S
C295 C292 1.511 . S
C295 H309 0.961 . S
C295 H310 0.961 . S
C295 H311 0.961 . S
C296 C297 1.370 . S
C296 C298 1.363 . S
C296 H312 0.931 . S
C297 C296 1.370 . S
C297 C301 1.408 . S
C298 C296 1.363 . S
C298 C299 1.370 . S
C298 C302 1.524 . S
C299 C291 1.503 . S
C299 C298 1.370 . S
C299 C300 1.403 . S
C300 C299 1.403 . S
C300 C301 1.404 . S
C300 C303 1.539 . S
C301 C297 1.408 . S
C301 C300 1.404 . S
C301 H313 0.930 . S
C302 C298 1.524 . S
C302 H314 0.956 . S
C302 H315 0.961 . S
C302 H316 0.961 . S
C303 C300 1.539 . S
C303 H317 0.958 . S
C303 H318 0.961 . S
C303 H319 0.960 . S
H304 C288 0.931 . S
H305 C293 0.929 . S
H306 C294 0.960 . S
H307 C294 0.962 . S
H308 C294 0.960 . S
H309 C295 0.961 . S
H310 C295 0.961 . S
H311 C295 0.961 . S
H312 C296 0.931 . S
H313 C301 0.930 . S
H314 C302 0.956 . S
H315 C302 0.961 . S
H316 C302 0.961 . S
H317 C303 0.958 . S
H318 C303 0.961 . S
H319 C303 0.960 . S
C320 C321 1.391 . S
C320 C322 1.394 . S
C320 H336 0.931 . S
C321 C320 1.391 . S
C321 C325 1.376 . S
C322 C320 1.394 . S
C322 C323 1.369 . S
C322 C326 1.531 . S
C323 C322 1.369 . S
C323 C324 1.410 . S
C323 C331 1.503 . S
C324 C323 1.410 . S
C324 C325 1.392 . S
C324 C327 1.511 . S
C325 C321 1.376 . S
C325 C324 1.392 . S
C325 H337 0.929 . S
C326 C322 1.531 . S
C326 H338 0.960 . S
C326 H339 0.962 . S
C326 H340 0.960 . S
C327 C324 1.511 . S
C327 H341 0.961 . S
C327 H342 0.961 . S
C327 H343 0.961 . S
C328 C329 1.370 . S
C328 C330 1.363 . S
C328 H344 0.931 . S
C329 C328 1.370 . S
C329 C333 1.408 . S
C330 C328 1.363 . S
C330 C331 1.370 . S
C330 C334 1.524 . S
C331 C323 1.503 . S
C331 C330 1.370 . S
C331 C332 1.403 . S
C332 C331 1.403 . S
C332 C333 1.404 . S
C332 C335 1.539 . S
C333 C329 1.408 . S
C333 C332 1.404 . S
C333 H345 0.930 . S
C334 C330 1.524 . S
C334 H346 0.956 . S
C334 H347 0.961 . S
C334 H348 0.961 . S
C335 C332 1.539 . S
C335 H349 0.958 . S
C335 H350 0.961 . S
C335 H351 0.960 . S
H336 C320 0.931 . S
H337 C325 0.929 . S
H338 C326 0.960 . S
H339 C326 0.962 . S
H340 C326 0.960 . S
H341 C327 0.961 . S
H342 C327 0.961 . S
H343 C327 0.961 . S
H344 C328 0.931 . S
H345 C333 0.930 . S
H346 C334 0.956 . S
H347 C334 0.961 . S
H348 C334 0.961 . S
H349 C335 0.958 . S
H350 C335 0.961 . S
H351 C335 0.960 . S
C352 C353 1.391 . S
C352 C354 1.394 . S
C352 H368 0.931 . S
C353 C352 1.391 . S
C353 C357 1.376 . S
C354 C352 1.394 . S
C354 C355 1.369 . S
C354 C358 1.531 . S
C355 C354 1.369 . S
C355 C356 1.410 . S
C355 C363 1.503 . S
C356 C355 1.410 . S
C356 C357 1.392 . S
C356 C359 1.511 . S
C357 C353 1.376 . S
C357 C356 1.392 . S
C357 H369 0.929 . S
C358 C354 1.531 . S
C358 H370 0.960 . S
C358 H371 0.962 . S
C358 H372 0.960 . S
C359 C356 1.511 . S
C359 H373 0.961 . S
C359 H374 0.961 . S
C359 H375 0.961 . S
C360 C361 1.370 . S
C360 C362 1.363 . S
C360 H376 0.931 . S
C361 C360 1.370 . S
C361 C365 1.408 . S
C362 C360 1.363 . S
C362 C363 1.370 . S
C362 C366 1.524 . S
C363 C355 1.503 . S
C363 C362 1.370 . S
C363 C364 1.403 . S
C364 C363 1.403 . S
C364 C365 1.404 . S
C364 C367 1.539 . S
C365 C361 1.408 . S
C365 C364 1.404 . S
C365 H377 0.930 . S
C366 C362 1.524 . S
C366 H378 0.956 . S
C366 H379 0.961 . S
C366 H380 0.961 . S
C367 C364 1.539 . S
C367 H381 0.958 . S
C367 H382 0.961 . S
C367 H383 0.960 . S
H368 C352 0.931 . S
H369 C357 0.929 . S
H370 C358 0.960 . S
H371 C358 0.962 . S
H372 C358 0.960 . S
H373 C359 0.961 . S
H374 C359 0.961 . S
H375 C359 0.961 . S
H376 C360 0.931 . S
H377 C365 0.930 . S
H378 C366 0.956 . S
H379 C366 0.961 . S
H380 C366 0.961 . S
H381 C367 0.958 . S
H382 C367 0.961 . S
H383 C367 0.960 . S
C384 C385 1.391 . S
C384 C386 1.394 . S
C384 H400 0.931 . S
C385 C384 1.391 . S
C385 C389 1.376 . S
C386 C384 1.394 . S
C386 C387 1.369 . S
C386 C390 1.531 . S
C387 C386 1.369 . S
C387 C388 1.410 . S
C387 C395 1.503 . S
C388 C387 1.410 . S
C388 C389 1.392 . S
C388 C391 1.511 . S
C389 C385 1.376 . S
C389 C388 1.392 . S
C389 H401 0.929 . S
C390 C386 1.531 . S
C390 H402 0.960 . S
C390 H403 0.962 . S
C390 H404 0.960 . S
C391 C388 1.511 . S
C391 H405 0.961 . S
C391 H406 0.961 . S
C391 H407 0.961 . S
C392 C393 1.370 . S
C392 C394 1.363 . S
C392 H408 0.931 . S
C393 C392 1.370 . S
C393 C397 1.408 . S
C394 C392 1.363 . S
C394 C395 1.370 . S
C394 C398 1.524 . S
C395 C387 1.503 . S
C395 C394 1.370 . S
C395 C396 1.403 . S
C396 C395 1.403 . S
C396 C397 1.404 . S
C396 C399 1.539 . S
C397 C393 1.408 . S
C397 C396 1.404 . S
C397 H409 0.930 . S
C398 C394 1.524 . S
C398 H410 0.956 . S
C398 H411 0.961 . S
C398 H412 0.961 . S
C399 C396 1.539 . S
C399 H413 0.958 . S
C399 H414 0.961 . S
C399 H415 0.960 . S
H400 C384 0.931 . S
H401 C389 0.929 . S
H402 C390 0.960 . S
H403 C390 0.962 . S
H404 C390 0.960 . S
H405 C391 0.961 . S
H406 C391 0.961 . S
H407 C391 0.961 . S
H408 C392 0.931 . S
H409 C397 0.930 . S
H410 C398 0.956 . S
H411 C398 0.961 . S
H412 C398 0.961 . S
H413 C399 0.958 . S
H414 C399 0.961 . S
H415 C399 0.960 . S
C416 C417 1.391 . S
C416 C418 1.394 . S
C416 H432 0.931 . S
C417 C416 1.391 . S
C417 C421 1.376 . S
C418 C416 1.394 . S
C418 C419 1.369 . S
C418 C422 1.531 . S
C419 C418 1.369 . S
C419 C420 1.410 . S
C419 C427 1.503 . S
C420 C419 1.410 . S
C420 C421 1.392 . S
C420 C423 1.511 . S
C421 C417 1.376 . S
C421 C420 1.392 . S
C421 H433 0.929 . S
C422 C418 1.531 . S
C422 H434 0.960 . S
C422 H435 0.962 . S
C422 H436 0.960 . S
C423 C420 1.511 . S
C423 H437 0.961 . S
C423 H438 0.961 . S
C423 H439 0.961 . S
C424 C425 1.370 . S
C424 C426 1.363 . S
C424 H440 0.931 . S
C425 C424 1.370 . S
C425 C429 1.408 . S
C426 C424 1.363 . S
C426 C427 1.370 . S
C426 C430 1.524 . S
C427 C419 1.503 . S
C427 C426 1.370 . S
C427 C428 1.403 . S
C428 C427 1.403 . S
C428 C429 1.404 . S
C428 C431 1.539 . S
C429 C425 1.408 . S
C429 C428 1.404 . S
C429 H441 0.930 . S
C430 C426 1.524 . S
C430 H442 0.956 . S
C430 H443 0.961 . S
C430 H444 0.961 . S
C431 C428 1.539 . S
C431 H445 0.958 . S
C431 H446 0.961 . S
C431 H447 0.960 . S
H432 C416 0.931 . S
H433 C421 0.929 . S
H434 C422 0.960 . S
H435 C422 0.962 . S
H436 C422 0.960 . S
H437 C423 0.961 . S
H438 C423 0.961 . S
H439 C423 0.961 . S
H440 C424 0.931 . S
H441 C429 0.930 . S
H442 C430 0.956 . S
H443 C430 0.961 . S
H444 C430 0.961 . S
H445 C431 0.958 . S
H446 C431 0.961 . S
H447 C431 0.960 . S
C448 C449 1.391 . S
C448 C450 1.394 . S
C448 H464 0.931 . S
C449 C448 1.391 . S
C449 C453 1.376 . S
C450 C448 1.394 . S
C450 C451 1.369 . S
C450 C454 1.531 . S
C451 C450 1.369 . S
C451 C452 1.410 . S
C451 C459 1.503 . S
C452 C451 1.410 . S
C452 C453 1.392 . S
C452 C455 1.511 . S
C453 C449 1.376 . S
C453 C452 1.392 . S
C453 H465 0.929 . S
C454 C450 1.531 . S
C454 H466 0.960 . S
C454 H467 0.962 . S
C454 H468 0.960 . S
C455 C452 1.511 . S
C455 H469 0.961 . S
C455 H470 0.961 . S
C455 H471 0.961 . S
C456 C457 1.370 . S
C456 C458 1.363 . S
C456 H472 0.931 . S
C457 C456 1.370 . S
C457 C461 1.408 . S
C458 C456 1.363 . S
C458 C459 1.370 . S
C458 C462 1.524 . S
C459 C451 1.503 . S
C459 C458 1.370 . S
C459 C460 1.403 . S
C460 C459 1.403 . S
C460 C461 1.404 . S
C460 C463 1.539 . S
C461 C457 1.408 . S
C461 C460 1.404 . S
C461 H473 0.930 . S
C462 C458 1.524 . S
C462 H474 0.956 . S
C462 H475 0.961 . S
C462 H476 0.961 . S
C463 C460 1.539 . S
C463 H477 0.958 . S
C463 H478 0.961 . S
C463 H479 0.960 . S
H464 C448 0.931 . S
H465 C453 0.929 . S
H466 C454 0.960 . S
H467 C454 0.962 . S
H468 C454 0.960 . S
H469 C455 0.961 . S
H470 C455 0.961 . S
H471 C455 0.961 . S
H472 C456 0.931 . S
H473 C461 0.930 . S
H474 C462 0.956 . S
H475 C462 0.961 . S
H476 C462 0.961 . S
H477 C463 0.958 . S
H478 C463 0.961 . S
H479 C463 0.960 . S
C480 C481 1.391 . S
C480 C482 1.394 . S
C480 H496 0.931 . S
C481 C480 1.391 . S
C481 C485 1.376 . S
C482 C480 1.394 . S
C482 C483 1.369 . S
C482 C486 1.531 . S
C483 C482 1.369 . S
C483 C484 1.410 . S
C483 C491 1.503 1_556 S
C484 C483 1.410 . S
C484 C485 1.392 . S
C484 C487 1.511 . S
C485 C481 1.376 . S
C485 C484 1.392 . S
C485 H497 0.929 . S
C486 C482 1.531 . S
C486 H498 0.960 . S
C486 H499 0.962 . S
C486 H500 0.960 . S
C487 C484 1.511 . S
C487 H501 0.961 . S
C487 H502 0.961 1_556 S
C487 H503 0.961 . S
C488 C489 1.370 . S
C488 C490 1.363 . S
C488 H504 0.931 . S
C489 C488 1.370 . S
C489 C493 1.408 . S
C490 C488 1.363 . S
C490 C491 1.370 . S
C490 C494 1.524 . S
C491 C483 1.503 1_554 S
C491 C490 1.370 . S
C491 C492 1.403 . S
C492 C491 1.403 . S
C492 C493 1.404 . S
C492 C495 1.539 . S
C493 C489 1.408 . S
C493 C492 1.404 . S
C493 H505 0.930 . S
C494 C490 1.524 . S
C494 H506 0.956 . S
C494 H507 0.961 . S
C494 H508 0.961 . S
C495 C492 1.539 . S
C495 H509 0.958 . S
C495 H510 0.961 . S
C495 H511 0.960 1_554 S
H496 C480 0.931 . S
H497 C485 0.929 . S
H498 C486 0.960 . S
H499 C486 0.962 . S
H500 C486 0.960 . S
H501 C487 0.961 . S
H502 C487 0.961 1_554 S
H503 C487 0.961 . S
H504 C488 0.931 . S
H505 C493 0.930 . S
H506 C494 0.956 . S
H507 C494 0.961 . S
H508 C494 0.961 . S
H509 C495 0.958 . S
H510 C495 0.961 . S
H511 C495 0.960 1_556 S
C512 C513 1.391 . S
C512 C514 1.394 . S
C512 H528 0.931 . S
C513 C512 1.391 . S
C513 C517 1.376 . S
C514 C512 1.394 . S
C514 C515 1.369 . S
C514 C518 1.531 . S
C515 C514 1.369 . S
C515 C516 1.410 . S
C515 C523 1.503 1_556 S
C516 C515 1.410 . S
C516 C517 1.392 . S
C516 C519 1.511 . S
C517 C513 1.376 . S
C517 C516 1.392 . S
C517 H529 0.929 . S
C518 C514 1.531 . S
C518 H530 0.960 1_556 S
C518 H531 0.962 . S
C518 H532 0.960 . S
C519 C516 1.511 . S
C519 H533 0.961 . S
C519 H534 0.961 1_556 S
C519 H535 0.961 . S
C520 C521 1.370 . S
C520 C522 1.363 . S
C520 H536 0.931 . S
C521 C520 1.370 . S
C521 C525 1.408 . S
C522 C520 1.363 . S
C522 C523 1.370 . S
C522 C526 1.524 . S
C523 C515 1.503 1_554 S
C523 C522 1.370 . S
C523 C524 1.403 . S
C524 C523 1.403 . S
C524 C525 1.404 . S
C524 C527 1.539 . S
C525 C521 1.408 . S
C525 C524 1.404 . S
C525 H537 0.930 . S
C526 C522 1.524 . S
C526 H538 0.956 1_554 S
C526 H539 0.961 1_554 S
C526 H540 0.961 . S
C527 C524 1.539 . S
C527 H541 0.958 . S
C527 H542 0.961 . S
C527 H543 0.960 . S
H528 C512 0.931 . S
H529 C517 0.929 . S
H530 C518 0.960 1_554 S
H531 C518 0.962 . S
H532 C518 0.960 . S
H533 C519 0.961 . S
H534 C519 0.961 1_554 S
H535 C519 0.961 . S
H536 C520 0.931 . S
H537 C525 0.930 . S
H538 C526 0.956 1_556 S
H539 C526 0.961 1_556 S
H540 C526 0.961 . S
H541 C527 0.958 . S
H542 C527 0.961 . S
H543 C527 0.960 . S
C544 C545 1.391 . S
C544 C546 1.394 . S
C544 H560 0.931 . S
C545 C544 1.391 . S
C545 C549 1.376 . S
C546 C544 1.394 . S
C546 C547 1.369 . S
C546 C550 1.531 . S
C547 C546 1.369 . S
C547 C548 1.410 . S
C547 C555 1.503 1_556 S
C548 C547 1.410 . S
C548 C549 1.392 . S
C548 C551 1.511 . S
C549 C545 1.376 . S
C549 C548 1.392 . S
C549 H561 0.929 . S
C550 C546 1.531 . S
C550 H562 0.978 . S
C550 H563 0.962 . S
C550 H564 0.960 . S
C551 C548 1.511 . S
C551 H565 0.961 . S
C551 H566 0.961 1_556 S
C551 H567 0.961 . S
C552 C553 1.370 . S
C552 C554 1.363 . S
C552 H568 0.931 . S
C553 C552 1.370 . S
C553 C557 1.408 . S
C554 C552 1.363 . S
C554 C555 1.370 . S
C554 C558 1.524 . S
C555 C547 1.503 1_554 S
C555 C554 1.370 . S
C555 C556 1.403 . S
C556 C555 1.403 . S
C556 C557 1.404 . S
C556 C559 1.539 . S
C557 C553 1.408 . S
C557 C556 1.404 . S
C557 H569 0.930 . S
C558 C554 1.524 . S
C558 H570 0.956 . S
C558 H571 0.961 . S
C558 H572 0.961 . S
C559 C556 1.539 . S
C559 H573 0.958 . S
C559 H574 0.961 . S
C559 H575 0.960 1_554 S
H560 C544 0.931 . S
H561 C549 0.929 . S
H562 C550 0.978 . S
H563 C550 0.962 . S
H564 C550 0.960 . S
H565 C551 0.961 . S
H566 C551 0.961 1_554 S
H567 C551 0.961 . S
H568 C552 0.931 . S
H569 C557 0.930 . S
H570 C558 0.956 . S
H571 C558 0.961 . S
H572 C558 0.961 . S
H573 C559 0.958 . S
H574 C559 0.961 . S
H575 C559 0.960 1_556 S
C576 C577 1.391 . S
C576 C578 1.394 . S
C576 H592 0.931 . S
C577 C576 1.391 . S
C577 C581 1.376 . S
C578 C576 1.394 . S
C578 C579 1.369 . S
C578 C582 1.531 . S
C579 C578 1.369 . S
C579 C580 1.410 . S
C579 C587 1.503 1_554 S
C580 C579 1.410 . S
C580 C581 1.392 . S
C580 C583 1.511 . S
C581 C577 1.376 . S
C581 C580 1.392 . S
C581 H593 0.929 . S
C582 C578 1.531 . S
C582 H594 0.960 . S
C582 H595 0.962 . S
C582 H596 0.960 . S
C583 C580 1.511 . S
C583 H597 0.961 . S
C583 H598 0.961 1_554 S
C583 H599 0.961 . S
C584 C585 1.370 . S
C584 C586 1.363 . S
C584 H600 0.931 . S
C585 C584 1.370 . S
C585 C589 1.408 . S
C586 C584 1.363 . S
C586 C587 1.370 . S
C586 C590 1.524 . S
C587 C579 1.503 1_556 S
C587 C586 1.370 . S
C587 C588 1.403 . S
C588 C587 1.403 . S
C588 C589 1.404 . S
C588 C591 1.539 . S
C589 C585 1.408 . S
C589 C588 1.404 . S
C589 H601 0.930 . S
C590 C586 1.524 . S
C590 H602 0.956 . S
C590 H603 0.961 . S
C590 H604 0.961 . S
C591 C588 1.539 . S
C591 H605 0.958 . S
C591 H606 0.961 . S
C591 H607 0.960 1_556 S
H592 C576 0.931 . S
H593 C581 0.929 . S
H594 C582 0.960 . S
H595 C582 0.962 . S
H596 C582 0.960 . S
H597 C583 0.961 . S
H598 C583 0.961 1_556 S
H599 C583 0.961 . S
H600 C584 0.931 . S
H601 C589 0.930 . S
H602 C590 0.956 . S
H603 C590 0.961 . S
H604 C590 0.961 . S
H605 C591 0.958 . S
H606 C591 0.961 . S
H607 C591 0.960 1_554 S
C608 C609 1.391 . S
C608 C610 1.394 . S
C608 H624 0.931 . S
C609 C608 1.391 . S
C609 C613 1.376 . S
C610 C608 1.394 . S
C610 C611 1.369 . S
C610 C614 1.531 . S
C611 C610 1.369 . S
C611 C612 1.410 . S
C611 C619 1.503 . S
C612 C611 1.410 . S
C612 C613 1.392 . S
C612 C615 1.511 . S
C613 C609 1.376 . S
C613 C612 1.392 . S
C613 H625 0.929 . S
C614 C610 1.531 . S
C614 H626 0.960 . S
C614 H627 0.962 . S
C614 H628 0.960 . S
C615 C612 1.511 . S
C615 H629 0.961 . S
C615 H630 0.961 . S
C615 H631 0.961 . S
C616 C617 1.370 . S
C616 C618 1.363 . S
C616 H632 0.931 . S
C617 C616 1.370 . S
C617 C621 1.408 . S
C618 C616 1.363 . S
C618 C619 1.370 . S
C618 C622 1.524 . S
C619 C611 1.503 . S
C619 C618 1.370 . S
C619 C620 1.403 . S
C620 C619 1.403 . S
C620 C621 1.404 . S
C620 C623 1.539 . S
C621 C617 1.408 . S
C621 C620 1.404 . S
C621 H633 0.930 . S
C622 C618 1.524 . S
C622 H634 0.956 . S
C622 H635 0.961 . S
C622 H636 0.961 . S
C623 C620 1.539 . S
C623 H637 0.958 . S
C623 H638 0.961 . S
C623 H639 0.960 . S
H624 C608 0.931 . S
H625 C613 0.929 . S
H626 C614 0.960 . S
H627 C614 0.962 . S
H628 C614 0.960 . S
H629 C615 0.961 . S
H630 C615 0.961 . S
H631 C615 0.961 . S
H632 C616 0.931 . S
H633 C621 0.930 . S
H634 C622 0.956 . S
H635 C622 0.961 . S
H636 C622 0.961 . S
H637 C623 0.958 . S
H638 C623 0.961 . S
H639 C623 0.960 . S
C640 C641 1.391 . S
C640 C642 1.394 . S
C640 H656 0.931 . S
C641 C640 1.391 . S
C641 C645 1.376 . S
C642 C640 1.394 . S
C642 C643 1.369 . S
C642 C646 1.531 . S
C643 C642 1.369 . S
C643 C644 1.410 . S
C643 C651 1.503 . S
C644 C643 1.410 . S
C644 C645 1.392 . S
C644 C647 1.511 . S
C645 C641 1.376 . S
C645 C644 1.392 . S
C645 H657 0.929 . S
C646 C642 1.531 . S
C646 H658 0.960 . S
C646 H659 0.962 . S
C646 H660 0.960 . S
C647 C644 1.511 . S
C647 H661 0.961 . S
C647 H662 0.961 . S
C647 H663 0.961 . S
C648 C649 1.370 . S
C648 C650 1.363 . S
C648 H664 0.931 . S
C649 C648 1.370 . S
C649 C653 1.408 . S
C650 C648 1.363 . S
C650 C651 1.370 . S
C650 C654 1.524 . S
C651 C643 1.503 . S
C651 C650 1.370 . S
C651 C652 1.403 . S
C652 C651 1.403 . S
C652 C653 1.404 . S
C652 C655 1.539 . S
C653 C649 1.408 . S
C653 C652 1.404 . S
C653 H665 0.930 . S
C654 C650 1.524 . S
C654 H666 0.956 . S
C654 H667 0.961 . S
C654 H668 0.961 . S
C655 C652 1.539 . S
C655 H669 0.958 . S
C655 H670 0.961 . S
C655 H671 0.960 . S
H656 C640 0.931 . S
H657 C645 0.929 . S
H658 C646 0.960 . S
H659 C646 0.962 . S
H660 C646 0.960 . S
H661 C647 0.961 . S
H662 C647 0.961 . S
H663 C647 0.961 . S
H664 C648 0.931 . S
H665 C653 0.930 . S
H666 C654 0.956 . S
H667 C654 0.961 . S
H668 C654 0.961 . S
H669 C655 0.958 . S
H670 C655 0.961 . S
H671 C655 0.960 . S
C672 C673 1.391 . S
C672 C674 1.394 . S
C672 H688 0.931 . S
C673 C672 1.391 . S
C673 C677 1.376 . S
C674 C672 1.394 . S
C674 C675 1.369 . S
C674 C678 1.531 . S
C675 C674 1.369 . S
C675 C676 1.410 . S
C675 C683 1.503 . S
C676 C675 1.410 . S
C676 C677 1.392 . S
C676 C679 1.511 . S
C677 C673 1.376 . S
C677 C676 1.392 . S
C677 H689 0.929 . S
C678 C674 1.531 . S
C678 H690 0.960 . S
C678 H691 0.962 . S
C678 H692 0.960 . S
C679 C676 1.511 . S
C679 H693 0.961 . S
C679 H694 0.961 . S
C679 H695 0.961 . S
C680 C681 1.370 . S
C680 C682 1.363 . S
C680 H696 0.931 . S
C681 C680 1.370 . S
C681 C685 1.408 . S
C682 C680 1.363 . S
C682 C683 1.370 . S
C682 C686 1.524 . S
C683 C675 1.503 . S
C683 C682 1.370 . S
C683 C684 1.403 . S
C684 C683 1.403 . S
C684 C685 1.404 . S
C684 C687 1.539 . S
C685 C681 1.408 . S
C685 C684 1.404 . S
C685 H697 0.930 . S
C686 C682 1.524 . S
C686 H698 0.956 . S
C686 H699 0.961 . S
C686 H700 0.961 . S
C687 C684 1.539 . S
C687 H701 0.958 . S
C687 H702 0.961 . S
C687 H703 0.960 . S
H688 C672 0.931 . S
H689 C677 0.929 . S
H690 C678 0.960 . S
H691 C678 0.962 . S
H692 C678 0.960 . S
H693 C679 0.961 . S
H694 C679 0.961 . S
H695 C679 0.961 . S
H696 C680 0.931 . S
H697 C685 0.930 . S
H698 C686 0.956 . S
H699 C686 0.961 . S
H700 C686 0.961 . S
H701 C687 0.958 . S
H702 C687 0.961 . S
H703 C687 0.960 . S
C704 C705 1.391 . S
C704 C706 1.394 . S
C704 H720 0.931 . S
C705 C704 1.391 . S
C705 C709 1.376 . S
C706 C704 1.394 . S
C706 C707 1.369 . S
C706 C710 1.531 . S
C707 C706 1.369 . S
C707 C708 1.410 . S
C707 C715 1.503 . S
C708 C707 1.410 . S
C708 C709 1.392 . S
C708 C711 1.511 . S
C709 C705 1.376 . S
C709 C708 1.392 . S
C709 H721 0.929 . S
C710 C706 1.531 . S
C710 H722 0.960 . S
C710 H723 0.962 . S
C710 H724 0.960 . S
C711 C708 1.511 . S
C711 H725 0.961 . S
C711 H726 0.961 . S
C711 H727 0.961 . S
C712 C713 1.370 . S
C712 C714 1.363 . S
C712 H728 0.931 . S
C713 C712 1.370 . S
C713 C717 1.408 . S
C714 C712 1.363 . S
C714 C715 1.370 . S
C714 C718 1.524 . S
C715 C707 1.503 . S
C715 C714 1.370 . S
C715 C716 1.403 . S
C716 C715 1.403 . S
C716 C717 1.404 . S
C716 C719 1.539 . S
C717 C713 1.408 . S
C717 C716 1.404 . S
C717 H729 0.930 . S
C718 C714 1.524 . S
C718 H730 0.956 . S
C718 H731 0.961 . S
C718 H732 0.961 . S
C719 C716 1.539 . S
C719 H733 0.958 . S
C719 H734 0.961 . S
C719 H735 0.960 . S
H720 C704 0.931 . S
H721 C709 0.929 . S
H722 C710 0.960 . S
H723 C710 0.962 . S
H724 C710 0.960 . S
H725 C711 0.961 . S
H726 C711 0.961 . S
H727 C711 0.961 . S
H728 C712 0.931 . S
H729 C717 0.930 . S
H730 C718 0.956 . S
H731 C718 0.961 . S
H732 C718 0.961 . S
H733 C719 0.958 . S
H734 C719 0.961 . S
H735 C719 0.960 . S
C736 C737 1.391 . S
C736 C738 1.394 . S
C736 H752 0.931 . S
C737 C736 1.391 . S
C737 C741 1.376 . S
C738 C736 1.394 . S
C738 C739 1.369 . S
C738 C742 1.531 . S
C739 C738 1.369 . S
C739 C740 1.410 . S
C739 C747 1.503 . S
C740 C739 1.410 . S
C740 C741 1.392 . S
C740 C743 1.511 . S
C741 C737 1.376 . S
C741 C740 1.392 . S
C741 H753 0.929 . S
C742 C738 1.531 . S
C742 H754 0.960 . S
C742 H755 0.962 . S
C742 H756 0.960 . S
C743 C740 1.511 . S
C743 H757 0.961 . S
C743 H758 0.961 . S
C743 H759 0.961 . S
C744 C745 1.370 . S
C744 C746 1.363 . S
C744 H760 0.931 . S
C745 C744 1.370 . S
C745 C749 1.408 . S
C746 C744 1.363 . S
C746 C747 1.370 . S
C746 C750 1.524 . S
C747 C739 1.503 . S
C747 C746 1.370 . S
C747 C748 1.403 . S
C748 C747 1.403 . S
C748 C749 1.404 . S
C748 C751 1.539 . S
C749 C745 1.408 . S
C749 C748 1.404 . S
C749 H761 0.930 . S
C750 C746 1.524 . S
C750 H762 0.956 . S
C750 H763 0.961 . S
C750 H764 0.961 . S
C751 C748 1.539 . S
C751 H765 0.958 . S
C751 H766 0.961 . S
C751 H767 0.960 . S
H752 C736 0.931 . S
H753 C741 0.929 . S
H754 C742 0.960 . S
H755 C742 0.962 . S
H756 C742 0.960 . S
H757 C743 0.961 . S
H758 C743 0.961 . S
H759 C743 0.961 . S
H760 C744 0.931 . S
H761 C749 0.930 . S
H762 C750 0.956 . S
H763 C750 0.961 . S
H764 C750 0.961 . S
H765 C751 0.958 . S
H766 C751 0.961 . S
H767 C751 0.960 . S
C768 C769 1.391 . S
C768 C770 1.394 . S
C768 H784 0.931 . S
C769 C768 1.391 . S
C769 C773 1.376 . S
C770 C768 1.394 . S
C770 C771 1.369 . S
C770 C774 1.531 . S
C771 C770 1.369 . S
C771 C772 1.410 . S
C771 C779 1.503 . S
C772 C771 1.410 . S
C772 C773 1.392 . S
C772 C775 1.511 . S
C773 C769 1.376 . S
C773 C772 1.392 . S
C773 H785 0.929 . S
C774 C770 1.531 . S
C774 H786 0.960 . S
C774 H787 0.962 . S
C774 H788 0.960 . S
C775 C772 1.511 . S
C775 H789 0.961 . S
C775 H790 0.961 . S
C775 H791 0.961 . S
C776 C777 1.370 . S
C776 C778 1.363 . S
C776 H792 0.931 . S
C777 C776 1.370 . S
C777 C781 1.408 . S
C778 C776 1.363 . S
C778 C779 1.370 . S
C778 C782 1.524 . S
C779 C771 1.503 . S
C779 C778 1.370 . S
C779 C780 1.403 . S
C780 C779 1.403 . S
C780 C781 1.404 . S
C780 C783 1.539 . S
C781 C777 1.408 . S
C781 C780 1.404 . S
C781 H793 0.930 . S
C782 C778 1.524 . S
C782 H794 0.956 . S
C782 H795 0.961 . S
C782 H796 0.961 . S
C783 C780 1.539 . S
C783 H797 0.958 . S
C783 H798 0.961 . S
C783 H799 0.960 . S
H784 C768 0.931 . S
H785 C773 0.929 . S
H786 C774 0.960 . S
H787 C774 0.962 . S
H788 C774 0.960 . S
H789 C775 0.961 . S
H790 C775 0.961 . S
H791 C775 0.961 . S
H792 C776 0.931 . S
H793 C781 0.930 . S
H794 C782 0.956 . S
H795 C782 0.961 . S
H796 C782 0.961 . S
H797 C783 0.958 . S
H798 C783 0.961 . S
H799 C783 0.960 . S
C800 C801 1.391 . S
C800 C802 1.394 . S
C800 H816 0.931 . S
C801 C800 1.391 . S
C801 C805 1.376 . S
C802 C800 1.394 . S
C802 C803 1.369 . S
C802 C806 1.531 . S
C803 C802 1.369 . S
C803 C804 1.410 . S
C803 C811 1.503 . S
C804 C803 1.410 . S
C804 C805 1.392 . S
C804 C807 1.511 . S
C805 C801 1.376 . S
C805 C804 1.392 . S
C805 H817 0.929 . S
C806 C802 1.531 . S
C806 H818 0.960 . S
C806 H819 0.962 . S
C806 H820 0.960 . S
C807 C804 1.511 . S
C807 H821 0.961 . S
C807 H822 0.961 . S
C807 H823 0.961 . S
C808 C809 1.370 . S
C808 C810 1.363 . S
C808 H824 0.931 . S
C809 C808 1.370 . S
C809 C813 1.408 . S
C810 C808 1.363 . S
C810 C811 1.370 . S
C810 C814 1.524 . S
C811 C803 1.503 . S
C811 C810 1.370 . S
C811 C812 1.403 . S
C812 C811 1.403 . S
C812 C813 1.404 . S
C812 C815 1.539 . S
C813 C809 1.408 . S
C813 C812 1.404 . S
C813 H825 0.930 . S
C814 C810 1.524 . S
C814 H826 0.956 . S
C814 H827 0.961 . S
C814 H828 0.961 . S
C815 C812 1.539 . S
C815 H829 0.958 . S
C815 H830 0.961 . S
C815 H831 0.960 . S
H816 C800 0.931 . S
H817 C805 0.929 . S
H818 C806 0.960 . S
H819 C806 0.962 . S
H820 C806 0.960 . S
H821 C807 0.961 . S
H822 C807 0.961 . S
H823 C807 0.961 . S
H824 C808 0.931 . S
H825 C813 0.930 . S
H826 C814 0.956 . S
H827 C814 0.961 . S
H828 C814 0.961 . S
H829 C815 0.958 . S
H830 C815 0.961 . S
H831 C815 0.960 . S
C832 C833 1.391 . S
C832 C834 1.394 . S
C832 H848 0.931 . S
C833 C832 1.391 . S
C833 C837 1.376 . S
C834 C832 1.394 . S
C834 C835 1.369 . S
C834 C838 1.531 . S
C835 C834 1.369 . S
C835 C836 1.410 . S
C835 C843 1.503 . S
C836 C835 1.410 . S
C836 C837 1.392 . S
C836 C839 1.511 . S
C837 C833 1.376 . S
C837 C836 1.392 . S
C837 H849 0.929 . S
C838 C834 1.531 . S
C838 H850 0.960 . S
C838 H851 0.962 . S
C838 H852 0.960 . S
C839 C836 1.511 . S
C839 H853 0.961 . S
C839 H854 0.961 . S
C839 H855 0.961 . S
C840 C841 1.370 . S
C840 C842 1.363 . S
C840 H856 0.931 . S
C841 C840 1.370 . S
C841 C845 1.408 . S
C842 C840 1.363 . S
C842 C843 1.370 . S
C842 C846 1.524 . S
C843 C835 1.503 . S
C843 C842 1.370 . S
C843 C844 1.403 . S
C844 C843 1.403 . S
C844 C845 1.404 . S
C844 C847 1.539 . S
C845 C841 1.408 . S
C845 C844 1.404 . S
C845 H857 0.930 . S
C846 C842 1.524 . S
C846 H858 0.956 . S
C846 H859 0.961 . S
C846 H860 0.961 . S
C847 C844 1.539 . S
C847 H861 0.958 . S
C847 H862 0.961 . S
C847 H863 0.960 . S
H848 C832 0.931 . S
H849 C837 0.929 . S
H850 C838 0.960 . S
H851 C838 0.962 . S
H852 C838 0.960 . S
H853 C839 0.961 . S
H854 C839 0.961 . S
H855 C839 0.961 . S
H856 C840 0.931 . S
H857 C845 0.930 . S
H858 C846 0.956 . S
H859 C846 0.961 . S
H860 C846 0.961 . S
H861 C847 0.958 . S
H862 C847 0.961 . S
H863 C847 0.960 . S
C864 C865 1.391 . S
C864 C866 1.394 . S
C864 H880 0.931 . S
C865 C864 1.391 . S
C865 C869 1.376 . S
C866 C864 1.394 . S
C866 C867 1.369 . S
C866 C870 1.531 . S
C867 C866 1.369 . S
C867 C868 1.410 . S
C867 C875 1.503 . S
C868 C867 1.410 . S
C868 C869 1.392 . S
C868 C871 1.511 . S
C869 C865 1.376 . S
C869 C868 1.392 . S
C869 H881 0.929 . S
C870 C866 1.531 . S
C870 H882 0.960 . S
C870 H883 0.962 . S
C870 H884 0.960 . S
C871 C868 1.511 . S
C871 H885 0.961 . S
C871 H886 0.961 . S
C871 H887 0.961 . S
C872 C873 1.370 . S
C872 C874 1.363 . S
C872 H888 0.931 . S
C873 C872 1.370 . S
C873 C877 1.408 . S
C874 C872 1.363 . S
C874 C875 1.370 . S
C874 C878 1.524 . S
C875 C867 1.503 . S
C875 C874 1.370 . S
C875 C876 1.403 . S
C876 C875 1.403 . S
C876 C877 1.404 . S
C876 C879 1.539 . S
C877 C873 1.408 . S
C877 C876 1.404 . S
C877 H889 0.930 . S
C878 C874 1.524 . S
C878 H890 0.956 . S
C878 H891 0.961 . S
C878 H892 0.961 . S
C879 C876 1.539 . S
C879 H893 0.958 . S
C879 H894 0.961 . S
C879 H895 0.960 . S
H880 C864 0.931 . S
H881 C869 0.929 . S
H882 C870 0.960 . S
H883 C870 0.962 . S
H884 C870 0.960 . S
H885 C871 0.961 . S
H886 C871 0.961 . S
H887 C871 0.961 . S
H888 C872 0.931 . S
H889 C877 0.930 . S
H890 C878 0.956 . S
H891 C878 0.961 . S
H892 C878 0.961 . S
H893 C879 0.958 . S
H894 C879 0.961 . S
H895 C879 0.960 . S
C896 C897 1.391 . S
C896 C898 1.394 . S
C896 H912 0.931 . S
C897 C896 1.391 . S
C897 C901 1.376 . S
C898 C896 1.394 . S
C898 C899 1.369 . S
C898 C902 1.531 . S
C899 C898 1.369 . S
C899 C900 1.410 . S
C899 C907 1.503 . S
C900 C899 1.410 . S
C900 C901 1.392 . S
C900 C903 1.511 . S
C901 C897 1.376 . S
C901 C900 1.392 . S
C901 H913 0.929 . S
C902 C898 1.531 . S
C902 H914 0.960 . S
C902 H915 0.962 . S
C902 H916 0.960 . S
C903 C900 1.511 . S
C903 H917 0.961 . S
C903 H918 0.961 . S
C903 H919 0.961 . S
C904 C905 1.370 . S
C904 C906 1.363 . S
C904 H920 0.931 . S
C905 C904 1.370 . S
C905 C909 1.408 . S
C906 C904 1.363 . S
C906 C907 1.370 . S
C906 C910 1.524 . S
C907 C899 1.503 . S
C907 C906 1.370 . S
C907 C908 1.403 . S
C908 C907 1.403 . S
C908 C909 1.404 . S
C908 C911 1.539 . S
C909 C905 1.408 . S
C909 C908 1.404 . S
C909 H921 0.930 . S
C910 C906 1.524 . S
C910 H922 0.956 . S
C910 H923 0.961 . S
C910 H924 0.961 . S
C911 C908 1.539 . S
C911 H925 0.958 . S
C911 H926 0.961 . S
C911 H927 0.960 . S
H912 C896 0.931 . S
H913 C901 0.929 . S
H914 C902 0.960 . S
H915 C902 0.962 . S
H916 C902 0.960 . S
H917 C903 0.961 . S
H918 C903 0.961 . S
H919 C903 0.961 . S
H920 C904 0.931 . S
H921 C909 0.930 . S
H922 C910 0.956 . S
H923 C910 0.961 . S
H924 C910 0.961 . S
H925 C911 0.958 . S
H926 C911 0.961 . S
H927 C911 0.960 . S
C928 C929 1.391 . S
C928 C930 1.394 . S
C928 H944 0.931 . S
C929 C928 1.391 . S
C929 C933 1.376 . S
C930 C928 1.394 . S
C930 C931 1.369 . S
C930 C934 1.531 . S
C931 C930 1.369 . S
C931 C932 1.410 . S
C931 C939 1.503 . S
C932 C931 1.410 . S
C932 C933 1.392 . S
C932 C935 1.511 . S
C933 C929 1.376 . S
C933 C932 1.392 . S
C933 H945 0.929 . S
C934 C930 1.531 . S
C934 H946 0.960 . S
C934 H947 0.962 . S
C934 H948 0.960 . S
C935 C932 1.511 . S
C935 H949 0.961 . S
C935 H950 0.961 . S
C935 H951 0.961 . S
C936 C937 1.370 . S
C936 C938 1.363 . S
C936 H952 0.931 . S
C937 C936 1.370 . S
C937 C941 1.408 . S
C938 C936 1.363 . S
C938 C939 1.370 . S
C938 C942 1.524 . S
C939 C931 1.503 . S
C939 C938 1.370 . S
C939 C940 1.403 . S
C940 C939 1.403 . S
C940 C941 1.404 . S
C940 C943 1.539 . S
C941 C937 1.408 . S
C941 C940 1.404 . S
C941 H953 0.930 . S
C942 C938 1.524 . S
C942 H954 0.956 . S
C942 H955 0.961 . S
C942 H956 0.961 . S
C943 C940 1.539 . S
C943 H957 0.958 . S
C943 H958 0.961 . S
C943 H959 0.960 . S
H944 C928 0.931 . S
H945 C933 0.929 . S
H946 C934 0.960 . S
H947 C934 0.962 . S
H948 C934 0.960 . S
H949 C935 0.961 . S
H950 C935 0.961 . S
H951 C935 0.961 . S
H952 C936 0.931 . S
H953 C941 0.930 . S
H954 C942 0.956 . S
H955 C942 0.961 . S
H956 C942 0.961 . S
H957 C943 0.958 . S
H958 C943 0.961 . S
H959 C943 0.960 . S
C960 C961 1.391 . S
C960 C962 1.394 . S
C960 H976 0.931 . S
C961 C960 1.391 . S
C961 C965 1.376 . S
C962 C960 1.394 . S
C962 C963 1.369 . S
C962 C966 1.531 . S
C963 C962 1.369 . S
C963 C964 1.410 . S
C963 C971 1.503 . S
C964 C963 1.410 . S
C964 C965 1.392 . S
C964 C967 1.511 . S
C965 C961 1.376 . S
C965 C964 1.392 . S
C965 H977 0.929 . S
C966 C962 1.531 . S
C966 H978 0.960 . S
C966 H979 0.962 . S
C966 H980 0.960 . S
C967 C964 1.511 . S
C967 H981 0.961 . S
C967 H982 0.961 . S
C967 H983 0.961 . S
C968 C969 1.370 . S
C968 C970 1.363 . S
C968 H984 0.931 . S
C969 C968 1.370 . S
C969 C973 1.408 . S
C970 C968 1.363 . S
C970 C971 1.370 . S
C970 C974 1.524 . S
C971 C963 1.503 . S
C971 C970 1.370 . S
C971 C972 1.403 . S
C972 C971 1.403 . S
C972 C973 1.404 . S
C972 C975 1.539 . S
C973 C969 1.408 . S
C973 C972 1.404 . S
C973 H985 0.930 . S
C974 C970 1.524 . S
C974 H986 0.956 . S
C974 H987 0.961 . S
C974 H988 0.961 . S
C975 C972 1.539 . S
C975 H989 0.958 . S
C975 H990 0.961 . S
C975 H991 0.960 . S
H976 C960 0.931 . S
H977 C965 0.929 . S
H978 C966 0.960 . S
H979 C966 0.962 . S
H980 C966 0.960 . S
H981 C967 0.961 . S
H982 C967 0.961 . S
H983 C967 0.961 . S
H984 C968 0.931 . S
H985 C973 0.930 . S
H986 C974 0.956 . S
H987 C974 0.961 . S
H988 C974 0.961 . S
H989 C975 0.958 . S
H990 C975 0.961 . S
H991 C975 0.960 . S
C992 C993 1.391 . S
C992 C994 1.394 . S
C992 H1008 0.931 . S
C993 C992 1.391 . S
C993 C997 1.376 . S
C994 C992 1.394 . S
C994 C995 1.369 . S
C994 C998 1.531 . S
C995 C994 1.369 . S
C995 C996 1.410 . S
C995 C1003 1.503 1_545 S
C996 C995 1.410 . S
C996 C997 1.392 . S
C996 C999 1.511 . S
C997 C993 1.376 . S
C997 C996 1.392 . S
C997 H1009 0.929 . S
C998 C994 1.531 . S
C998 H1010 0.960 1_545 S
C998 H1011 0.962 . S
C998 H1012 0.960 . S
C999 C996 1.511 . S
C999 H1013 0.961 . S
C999 H1014 0.961 . S
C999 H1015 0.961 . S
C1000 C1001 1.370 . S
C1000 C1002 1.363 . S
C1000 H1016 0.931 . S
C1001 C1000 1.370 . S
C1001 C1005 1.408 . S
C1002 C1000 1.363 . S
C1002 C1003 1.370 . S
C1002 C1006 1.524 1_565 S
C1003 C995 1.503 1_565 S
C1003 C1002 1.370 . S
C1003 C1004 1.403 . S
C1004 C1003 1.403 . S
C1004 C1005 1.404 . S
C1004 C1007 1.539 . S
C1005 C1001 1.408 . S
C1005 C1004 1.404 . S
C1005 H1017 0.930 . S
C1006 C1002 1.524 1_545 S
C1006 H1018 0.956 . S
C1006 H1019 0.961 . S
C1006 H1020 0.961 1_545 S
C1007 C1004 1.539 . S
C1007 H1021 0.958 . S
C1007 H1022 0.961 . S
C1007 H1023 0.960 . S
H1008 C992 0.931 . S
H1009 C997 0.929 . S
H1010 C998 0.960 1_565 S
H1011 C998 0.962 . S
H1012 C998 0.960 . S
H1013 C999 0.961 . S
H1014 C999 0.961 . S
H1015 C999 0.961 . S
H1016 C1000 0.931 . S
H1017 C1005 0.930 . S
H1018 C1006 0.956 . S
H1019 C1006 0.961 . S
H1020 C1006 0.961 1_565 S
H1021 C1007 0.958 . S
H1022 C1007 0.961 . S
H1023 C1007 0.960 . S
C1024 C1025 1.391 . S
C1024 C1026 1.394 . S
C1024 H1040 0.931 . S
C1025 C1024 1.391 . S
C1025 C1029 1.376 . S
C1026 C1024 1.394 . S
C1026 C1027 1.369 . S
C1026 C1030 1.531 1_655 S
C1027 C1026 1.369 . S
C1027 C1028 1.410 . S
C1027 C1035 1.503 1_655 S
C1028 C1027 1.410 . S
C1028 C1029 1.392 . S
C1028 C1031 1.511 . S
C1029 C1025 1.376 . S
C1029 C1028 1.392 . S
C1029 H1041 0.929 . S
C1030 C1026 1.531 1_455 S
C1030 H1042 0.960 . S
C1030 H1043 0.962 . S
C1030 H1044 0.960 1_455 S
C1031 C1028 1.511 . S
C1031 H1045 0.961 . S
C1031 H1046 0.961 . S
C1031 H1047 0.961 . S
C1032 C1033 1.370 . S
C1032 C1034 1.363 . S
C1032 H1048 0.931 . S
C1033 C1032 1.370 . S
C1033 C1037 1.408 . S
C1034 C1032 1.363 . S
C1034 C1035 1.370 . S
C1034 C1038 1.524 . S
C1035 C1027 1.503 1_455 S
C1035 C1034 1.370 . S
C1035 C1036 1.403 . S
C1036 C1035 1.403 . S
C1036 C1037 1.404 . S
C1036 C1039 1.539 . S
C1037 C1033 1.408 . S
C1037 C1036 1.404 . S
C1037 H1049 0.930 . S
C1038 C1034 1.524 . S
C1038 H1050 0.956 . S
C1038 H1051 0.961 1_455 S
C1038 H1052 0.961 . S
C1039 C1036 1.539 . S
C1039 H1053 0.958 . S
C1039 H1054 0.961 . S
C1039 H1055 0.960 1_455 S
H1040 C1024 0.931 . S
H1041 C1029 0.929 . S
H1042 C1030 0.960 . S
H1043 C1030 0.962 . S
H1044 C1030 0.960 1_655 S
H1045 C1031 0.961 . S
H1046 C1031 0.961 . S
H1047 C1031 0.961 . S
H1048 C1032 0.931 . S
H1049 C1037 0.930 . S
H1050 C1038 0.956 . S
H1051 C1038 0.961 1_655 S
H1052 C1038 0.961 . S
H1053 C1039 0.958 . S
H1054 C1039 0.961 . S
H1055 C1039 0.960 1_655 S
C1056 C1057 1.391 . S
C1056 C1058 1.394 . S
C1056 H1072 0.931 . S
C1057 C1056 1.391 . S
C1057 C1061 1.376 . S
C1058 C1056 1.394 . S
C1058 C1059 1.369 . S
C1058 C1062 1.531 . S
C1059 C1058 1.369 . S
C1059 C1060 1.410 . S
C1059 C1067 1.503 1_545 S
C1060 C1059 1.410 . S
C1060 C1061 1.392 . S
C1060 C1063 1.511 . S
C1061 C1057 1.376 . S
C1061 C1060 1.392 . S
C1061 H1073 0.929 . S
C1062 C1058 1.531 . S
C1062 H1074 0.960 . S
C1062 H1075 0.962 . S
C1062 H1076 0.960 . S
C1063 C1060 1.511 . S
C1063 H1077 0.961 . S
C1063 H1078 0.961 1_545 S
C1063 H1079 0.961 . S
C1064 C1065 1.370 . S
C1064 C1066 1.363 . S
C1064 H1080 0.931 . S
C1065 C1064 1.370 . S
C1065 C1069 1.408 . S
C1066 C1064 1.363 . S
C1066 C1067 1.370 . S
C1066 C1070 1.524 . S
C1067 C1059 1.503 1_565 S
C1067 C1066 1.370 . S
C1067 C1068 1.403 . S
C1068 C1067 1.403 . S
C1068 C1069 1.404 . S
C1068 C1071 1.539 1_565 S
C1069 C1065 1.408 . S
C1069 C1068 1.404 . S
C1069 H1081 0.930 . S
C1070 C1066 1.524 . S
C1070 H1082 0.956 . S
C1070 H1083 0.961 . S
C1070 H1084 0.961 . S
C1071 C1068 1.539 1_545 S
C1071 H1085 0.958 . S
C1071 H1086 0.961 1_545 S
C1071 H1087 0.960 . S
H1072 C1056 0.931 . S
H1073 C1061 0.929 . S
H1074 C1062 0.960 . S
H1075 C1062 0.962 . S
H1076 C1062 0.960 . S
H1077 C1063 0.961 . S
H1078 C1063 0.961 1_565 S
H1079 C1063 0.961 . S
H1080 C1064 0.931 . S
H1081 C1069 0.930 . S
H1082 C1070 0.956 . S
H1083 C1070 0.961 . S
H1084 C1070 0.961 . S
H1085 C1071 0.958 . S
H1086 C1071 0.961 1_565 S
H1087 C1071 0.960 . S
C1088 C1089 1.391 . S
C1088 C1090 1.394 . S
C1088 H1104 0.931 . S
C1089 C1088 1.391 . S
C1089 C1093 1.376 . S
C1090 C1088 1.394 . S
C1090 C1091 1.369 . S
C1090 C1094 1.531 . S
C1091 C1090 1.369 . S
C1091 C1092 1.410 . S
C1091 C1099 1.503 1_455 S
C1092 C1091 1.410 . S
C1092 C1093 1.392 . S
C1092 C1095 1.511 . S
C1093 C1089 1.376 . S
C1093 C1092 1.392 . S
C1093 H1105 0.929 . S
C1094 C1090 1.531 . S
C1094 H1106 0.960 . S
C1094 H1107 0.962 . S
C1094 H1108 0.960 . S
C1095 C1092 1.511 . S
C1095 H1109 0.961 . S
C1095 H1110 0.961 1_455 S
C1095 H1111 0.961 . S
C1096 C1097 1.370 . S
C1096 C1098 1.363 . S
C1096 H1112 0.931 . S
C1097 C1096 1.370 . S
C1097 C1101 1.408 . S
C1098 C1096 1.363 . S
C1098 C1099 1.370 . S
C1098 C1102 1.524 . S
C1099 C1091 1.503 1_655 S
C1099 C1098 1.370 . S
C1099 C1100 1.403 . S
C1100 C1099 1.403 . S
C1100 C1101 1.404 . S
C1100 C1103 1.536 . S
C1101 C1097 1.408 . S
C1101 C1100 1.404 . S
C1101 H1113 0.930 . S
C1102 C1098 1.524 . S
C1102 H1114 0.956 . S
C1102 H1115 0.961 . S
C1102 H1116 0.961 . S
C1103 C1100 1.536 . S
C1103 H1117 0.960 1_655 S
C1103 H1118 0.959 . S
C1103 H1119 0.963 1_655 S
H1104 C1088 0.931 . S
H1105 C1093 0.929 . S
H1106 C1094 0.960 . S
H1107 C1094 0.962 . S
H1108 C1094 0.960 . S
H1109 C1095 0.961 . S
H1110 C1095 0.961 1_655 S
H1111 C1095 0.961 . S
H1112 C1096 0.931 . S
H1113 C1101 0.930 . S
H1114 C1102 0.956 . S
H1115 C1102 0.961 . S
H1116 C1102 0.961 . S
H1117 C1103 0.960 1_455 S
H1118 C1103 0.959 . S
H1119 C1103 0.963 1_455 S
C1120 C1121 1.391 . S
C1120 C1122 1.394 . S
C1120 H1136 0.931 . S
C1121 C1120 1.391 . S
C1121 C1125 1.376 . S
C1122 C1120 1.394 . S
C1122 C1123 1.369 . S
C1122 C1126 1.531 1_545 S
C1123 C1122 1.369 . S
C1123 C1124 1.410 . S
C1123 C1131 1.503 1_545 S
C1124 C1123 1.410 . S
C1124 C1125 1.392 . S
C1124 C1127 1.511 . S
C1125 C1121 1.376 . S
C1125 C1124 1.392 . S
C1125 H1137 0.929 . S
C1126 C1122 1.531 1_565 S
C1126 H1138 0.960 . S
C1126 H1139 0.962 . S
C1126 H1140 0.960 1_565 S
C1127 C1124 1.511 . S
C1127 H1141 0.961 . S
C1127 H1142 0.961 . S
C1127 H1143 0.961 . S
C1128 C1129 1.370 . S
C1128 C1130 1.363 . S
C1128 H1144 0.931 . S
C1129 C1128 1.370 . S
C1129 C1133 1.408 . S
C1130 C1128 1.363 . S
C1130 C1131 1.370 . S
C1130 C1134 1.524 . S
C1131 C1123 1.503 1_565 S
C1131 C1130 1.370 . S
C1131 C1132 1.403 . S
C1132 C1131 1.403 . S
C1132 C1133 1.404 . S
C1132 C1135 1.539 . S
C1133 C1129 1.408 . S
C1133 C1132 1.404 . S
C1133 H1145 0.930 . S
C1134 C1130 1.524 . S
C1134 H1146 0.956 . S
C1134 H1147 0.961 . S
C1134 H1148 0.961 . S
C1135 C1132 1.539 . S
C1135 H1149 0.958 . S
C1135 H1150 0.961 . S
C1135 H1151 0.960 1_565 S
H1136 C1120 0.931 . S
H1137 C1125 0.929 . S
H1138 C1126 0.960 . S
H1139 C1126 0.962 . S
H1140 C1126 0.960 1_545 S
H1141 C1127 0.961 . S
H1142 C1127 0.961 . S
H1143 C1127 0.961 . S
H1144 C1128 0.931 . S
H1145 C1133 0.930 . S
H1146 C1134 0.956 . S
H1147 C1134 0.961 . S
H1148 C1134 0.961 . S
H1149 C1135 0.958 . S
H1150 C1135 0.961 . S
H1151 C1135 0.960 1_545 S
C1152 C1153 1.391 . S
C1152 C1154 1.394 . S
C1152 H1168 0.931 . S
C1153 C1152 1.391 . S
C1153 C1157 1.376 . S
C1154 C1152 1.394 . S
C1154 C1155 1.369 . S
C1154 C1158 1.531 1_655 S
C1155 C1154 1.369 . S
C1155 C1156 1.410 . S
C1155 C1163 1.503 1_655 S
C1156 C1155 1.410 . S
C1156 C1157 1.392 . S
C1156 C1159 1.511 . S
C1157 C1153 1.376 . S
C1157 C1156 1.392 . S
C1157 H1169 0.929 . S
C1158 C1154 1.531 1_455 S
C1158 H1170 0.960 . S
C1158 H1171 0.962 . S
C1158 H1172 0.960 . S
C1159 C1156 1.511 . S
C1159 H1173 0.961 . S
C1159 H1174 0.961 . S
C1159 H1175 0.961 . S
C1160 C1161 1.370 . S
C1160 C1162 1.363 . S
C1160 H1176 0.931 . S
C1161 C1160 1.370 . S
C1161 C1165 1.408 . S
C1162 C1160 1.363 . S
C1162 C1163 1.370 . S
C1162 C1166 1.524 . S
C1163 C1155 1.503 1_455 S
C1163 C1162 1.370 . S
C1163 C1164 1.403 . S
C1164 C1163 1.403 . S
C1164 C1165 1.404 . S
C1164 C1167 1.539 . S
C1165 C1161 1.408 . S
C1165 C1164 1.404 . S
C1165 H1177 0.930 . S
C1166 C1162 1.524 . S
C1166 H1178 0.956 1_455 S
C1166 H1179 0.961 1_455 S
C1166 H1180 0.961 . S
C1167 C1164 1.539 . S
C1167 H1181 0.958 . S
C1167 H1182 0.961 . S
C1167 H1183 0.960 . S
H1168 C1152 0.931 . S
H1169 C1157 0.929 . S
H1170 C1158 0.960 . S
H1171 C1158 0.962 . S
H1172 C1158 0.960 . S
H1173 C1159 0.961 . S
H1174 C1159 0.961 . S
H1175 C1159 0.961 . S
H1176 C1160 0.931 . S
H1177 C1165 0.930 . S
H1178 C1166 0.956 1_655 S
H1179 C1166 0.961 1_655 S
H1180 C1166 0.961 . S
H1181 C1167 0.958 . S
H1182 C1167 0.961 . S
H1183 C1167 0.960 . S
C1184 C1185 1.391 . S
C1184 C1186 1.394 . S
C1184 H1200 0.931 . S
C1185 C1184 1.391 . S
C1185 C1189 1.376 . S
C1186 C1184 1.394 . S
C1186 C1187 1.369 . S
C1186 C1190 1.531 . S
C1187 C1186 1.369 . S
C1187 C1188 1.410 . S
C1187 C1195 1.503 1_565 S
C1188 C1187 1.410 . S
C1188 C1189 1.392 . S
C1188 C1191 1.514 . S
C1189 C1185 1.376 . S
C1189 C1188 1.392 . S
C1189 H1201 0.929 . S
C1190 C1186 1.531 . S
C1190 H1202 0.960 . S
C1190 H1203 0.962 . S
C1190 H1204 0.960 . S
C1191 C1188 1.514 . S
C1191 H1205 0.961 . S
C1191 H1206 0.957 1_565 S
C1191 H1207 0.961 . S
C1192 C1193 1.370 . S
C1192 C1194 1.363 . S
C1192 H1208 0.931 . S
C1193 C1192 1.370 . S
C1193 C1197 1.408 . S
C1194 C1192 1.363 . S
C1194 C1195 1.370 . S
C1194 C1198 1.524 . S
C1195 C1187 1.503 1_545 S
C1195 C1194 1.370 . S
C1195 C1196 1.403 . S
C1196 C1195 1.403 . S
C1196 C1197 1.404 . S
C1196 C1199 1.539 . S
C1197 C1193 1.408 . S
C1197 C1196 1.404 . S
C1197 H1209 0.930 . S
C1198 C1194 1.524 . S
C1198 H1210 0.956 . S
C1198 H1211 0.961 . S
C1198 H1212 0.961 . S
C1199 C1196 1.539 . S
C1199 H1213 0.958 1_545 S
C1199 H1214 0.961 . S
C1199 H1215 0.960 1_545 S
H1200 C1184 0.931 . S
H1201 C1189 0.929 . S
H1202 C1190 0.960 . S
H1203 C1190 0.962 . S
H1204 C1190 0.960 . S
H1205 C1191 0.961 . S
H1206 C1191 0.957 1_545 S
H1207 C1191 0.961 . S
H1208 C1192 0.931 . S
H1209 C1197 0.930 . S
H1210 C1198 0.956 . S
H1211 C1198 0.961 . S
H1212 C1198 0.961 . S
H1213 C1199 0.958 1_565 S
H1214 C1199 0.961 . S
H1215 C1199 0.960 1_565 S
C1216 C1217 1.391 . S
C1216 C1218 1.394 . S
C1216 H1232 0.931 . S
C1217 C1216 1.391 . S
C1217 C1221 1.376 . S
C1218 C1216 1.394 . S
C1218 C1219 1.369 . S
C1218 C1222 1.531 1_455 S
C1219 C1218 1.369 . S
C1219 C1220 1.410 . S
C1219 C1227 1.503 1_455 S
C1220 C1219 1.410 . S
C1220 C1221 1.392 . S
C1220 C1223 1.511 . S
C1221 C1217 1.376 . S
C1221 C1220 1.392 . S
C1221 H1233 0.929 . S
C1222 C1218 1.531 1_655 S
C1222 H1234 0.960 . S
C1222 H1235 0.962 . S
C1222 H1236 0.960 . S
C1223 C1220 1.511 . S
C1223 H1237 0.961 . S
C1223 H1238 0.961 . S
C1223 H1239 0.961 . S
C1224 C1225 1.370 . S
C1224 C1226 1.363 . S
C1224 H1240 0.931 . S
C1225 C1224 1.370 . S
C1225 C1229 1.408 . S
C1226 C1224 1.363 . S
C1226 C1227 1.370 . S
C1226 C1230 1.540 . S
C1227 C1219 1.503 1_655 S
C1227 C1226 1.370 . S
C1227 C1228 1.403 . S
C1228 C1227 1.403 . S
C1228 C1229 1.404 . S
C1228 C1231 1.539 . S
C1229 C1225 1.408 . S
C1229 C1228 1.404 . S
C1229 H1241 0.930 . S
C1230 C1226 1.540 . S
C1230 H1242 0.952 1_655 S
C1230 H1243 0.941 1_655 S
C1230 H1244 0.969 . S
C1231 C1228 1.539 . S
C1231 H1245 0.958 . S
C1231 H1246 0.961 . S
C1231 H1247 0.960 . S
H1232 C1216 0.931 . S
H1233 C1221 0.929 . S
H1234 C1222 0.960 . S
H1235 C1222 0.962 . S
H1236 C1222 0.960 . S
H1237 C1223 0.961 . S
H1238 C1223 0.961 . S
H1239 C1223 0.961 . S
H1240 C1224 0.931 . S
H1241 C1229 0.930 . S
H1242 C1230 0.952 1_455 S
H1243 C1230 0.941 1_455 S
H1244 C1230 0.969 . S
H1245 C1231 0.958 . S
H1246 C1231 0.961 . S
H1247 C1231 0.960 . S
C225 C81 1.219 . S
C233 C11 1.202 . S
C257 C95 1.215 . S
C265 C25 1.191 . S
C289 C39 1.210 . S
C297 C109 1.189 . S
C321 C53 1.209 . S
C329 C67 1.189 . S
C353 C193 1.221 . S
C361 C123 1.197 . S
C385 C207 1.197 . S
C393 C137 1.209 . S
C417 C151 1.178 . S
C425 C221 1.206 . S
C449 C165 1.180 . S
C457 C179 1.207 . S
C481 C152 1.512 . S
C489 C12 1.531 . S
C513 C166 1.535 . S
C521 C26 1.521 . S
C545 C124 1.510 . S
C553 C40 1.532 . S
C577 C54 1.511 . S
C585 C138 1.531 . S
C609 C208 1.529 . S
C617 C68 1.522 . S
C641 C222 1.510 . S
C649 C82 1.531 . S
C673 C96 1.510 . S
C681 C180 1.532 . S
C705 C194 1.510 . S
C713 C110 1.531 . S
C737 C61 1.060 . S
C745 C5 1.101 . S
C769 C19 1.064 . S
C777 C75 1.102 . S
C801 C33 1.082 . S
C809 C89 1.106 . S
C833 C103 1.006 . S
C841 C47 1.069 . S
C865 C116 1.590 . S
C873 C172 1.602 . S
C897 C186 1.610 . S
C905 C130 1.607 . S
C929 C144 1.609 . S
C937 C200 1.606 . S
C961 C214 1.597 . S
C969 C158 1.605 . S
C993 C159 1.068 . S
C1001 C187 1.103 . S
C1025 C117 1.142 . S
C1033 C201 1.100 . S
C1057 C215 1.109 . S
C1065 C131 1.060 . S
C1089 C145 1.087 . S
C1097 C173 1.054 . S
C1121 C74 1.595 . S
C1129 C46 1.600 . S
C1153 C88 1.589 . S
C1161 C4 1.600 . S
C1185 C102 1.609 . S
C1193 C18 1.606 . S
C1217 C60 1.589 . S
C1225 C32 1.600 . S
