# Generated by pormake.
# Topology atn, (4)-cn, num edge types: 1
# Building blocks:
#     Node 0, Type 0, BuildingBlock: QUQFOY_clean_sbu_1, # of connection points: 4
#     Node 1, Type 0, BuildingBlock: QUQFOY_clean_sbu_1, # of connection points: 4
#     Node 2, Type 0, BuildingBlock: QUQFOY_clean_sbu_1, # of connection points: 4
#     Node 3, Type 0, BuildingBlock: QUQFOY_clean_sbu_1, # of connection points: 4
#     Node 4, Type 0, BuildingBlock: QUQFOY_clean_sbu_1, # of connection points: 4
#     Node 5, Type 0, BuildingBlock: QUQFOY_clean_sbu_1, # of connection points: 4
#     Node 6, Type 0, BuildingBlock: QUQFOY_clean_sbu_1, # of connection points: 4
#     Node 7, Type 0, BuildingBlock: QUQFOY_clean_sbu_1, # of connection points: 4
#     Node 8, Type 0, BuildingBlock: QUQFOY_clean_sbu_1, # of connection points: 4
#     Node 9, Type 0, BuildingBlock: QUQFOY_clean_sbu_1, # of connection points: 4
#     Node 10, Type 0, BuildingBlock: QUQFOY_clean_sbu_1, # of connection points: 4
#     Node 11, Type 0, BuildingBlock: QUQFOY_clean_sbu_1, # of connection points: 4
#     Node 12, Type 0, BuildingBlock: QUQFOY_clean_sbu_1, # of connection points: 4
#     Node 13, Type 0, BuildingBlock: QUQFOY_clean_sbu_1, # of connection points: 4
#     Node 14, Type 0, BuildingBlock: QUQFOY_clean_sbu_1, # of connection points: 4
#     Node 15, Type 0, BuildingBlock: QUQFOY_clean_sbu_1, # of connection points: 4
#     Edge 16, Type (0, 0), BuildingBlock: MIFKUJ_clean_linker_0, # of connection points: 2
#     Edge 17, Type (0, 0), BuildingBlock: MIFKUJ_clean_linker_0, # of connection points: 2
#     Edge 18, Type (0, 0), BuildingBlock: MIFKUJ_clean_linker_0, # of connection points: 2
#     Edge 19, Type (0, 0), BuildingBlock: MIFKUJ_clean_linker_0, # of connection points: 2
#     Edge 20, Type (0, 0), BuildingBlock: MIFKUJ_clean_linker_0, # of connection points: 2
#     Edge 21, Type (0, 0), BuildingBlock: MIFKUJ_clean_linker_0, # of connection points: 2
#     Edge 22, Type (0, 0), BuildingBlock: MIFKUJ_clean_linker_0, # of connection points: 2
#     Edge 23, Type (0, 0), BuildingBlock: MIFKUJ_clean_linker_0, # of connection points: 2
#     Edge 24, Type (0, 0), BuildingBlock: MIFKUJ_clean_linker_0, # of connection points: 2
#     Edge 25, Type (0, 0), BuildingBlock: MIFKUJ_clean_linker_0, # of connection points: 2
#     Edge 26, Type (0, 0), BuildingBlock: MIFKUJ_clean_linker_0, # of connection points: 2
#     Edge 27, Type (0, 0), BuildingBlock: MIFKUJ_clean_linker_0, # of connection points: 2
#     Edge 28, Type (0, 0), BuildingBlock: MIFKUJ_clean_linker_0, # of connection points: 2
#     Edge 29, Type (0, 0), BuildingBlock: MIFKUJ_clean_linker_0, # of connection points: 2
#     Edge 30, Type (0, 0), BuildingBlock: MIFKUJ_clean_linker_0, # of connection points: 2
#     Edge 31, Type (0, 0), BuildingBlock: MIFKUJ_clean_linker_0, # of connection points: 2
#     Edge 32, Type (0, 0), BuildingBlock: MIFKUJ_clean_linker_0, # of connection points: 2
#     Edge 33, Type (0, 0), BuildingBlock: MIFKUJ_clean_linker_0, # of connection points: 2
#     Edge 34, Type (0, 0), BuildingBlock: MIFKUJ_clean_linker_0, # of connection points: 2
#     Edge 35, Type (0, 0), BuildingBlock: MIFKUJ_clean_linker_0, # of connection points: 2
#     Edge 36, Type (0, 0), BuildingBlock: MIFKUJ_clean_linker_0, # of connection points: 2
#     Edge 37, Type (0, 0), BuildingBlock: MIFKUJ_clean_linker_0, # of connection points: 2
#     Edge 38, Type (0, 0), BuildingBlock: MIFKUJ_clean_linker_0, # of connection points: 2
#     Edge 39, Type (0, 0), BuildingBlock: MIFKUJ_clean_linker_0, # of connection points: 2
#     Edge 40, Type (0, 0), BuildingBlock: MIFKUJ_clean_linker_0, # of connection points: 2
#     Edge 41, Type (0, 0), BuildingBlock: MIFKUJ_clean_linker_0, # of connection points: 2
#     Edge 42, Type (0, 0), BuildingBlock: MIFKUJ_clean_linker_0, # of connection points: 2
#     Edge 43, Type (0, 0), BuildingBlock: MIFKUJ_clean_linker_0, # of connection points: 2
#     Edge 44, Type (0, 0), BuildingBlock: MIFKUJ_clean_linker_0, # of connection points: 2
#     Edge 45, Type (0, 0), BuildingBlock: MIFKUJ_clean_linker_0, # of connection points: 2
#     Edge 46, Type (0, 0), BuildingBlock: MIFKUJ_clean_linker_0, # of connection points: 2
#     Edge 47, Type (0, 0), BuildingBlock: MIFKUJ_clean_linker_0, # of connection points: 2
# Relax obj value: 0.042
# Max RMSD: 0.086
# Mean RMSD: 0.086
data_MOF--net-atn--node1-QUQFOY_clean_sbu_1--edge1-MIFKUJ_clean_linker_0
_symmetry_space_group_name_H-M    P1
_symmetry_Int_Tables_number       1
_symmetry_cell_setting            triclinic
loop_
_symmetry_equiv_pos_as_xyz
'x, y, z'
_cell_length_a     79.784803
_cell_length_b     79.813604
_cell_length_c     37.067409
_cell_angle_alpha  89.920755
_cell_angle_beta   90.011144
_cell_angle_gamma 90.005742
loop_
_atom_site_label
_atom_site_type_symbol
_atom_site_fract_x
_atom_site_fract_y
_atom_site_fract_z
_atom_type_partial_charge
O0 O 0.19484 0.37683 0.08228 0.0
Cd1 Cd 0.20826 0.38217 0.03609 0.0
Cd2 Cd 0.18742 0.35898 1.0092 0.0
O3 O 0.17478 0.36165 0.0578 0.0
O4 O 0.2203 0.40334 0.04796 0.0
O5 O 0.20091 0.40173 1.00549 0.0
C6 C 0.21132 0.41074 0.02382 0.0
C7 C 0.17477 0.36144 0.95251 0.0
C8 C 0.18113 0.36883 0.08523 0.0
C9 C 0.22387 0.34991 0.01383 0.0
O10 O 0.20893 0.3446 0.01029 0.0
O11 O 0.22659 0.36524 0.0211 0.0
O12 O 0.1722 0.34852 0.97275 0.0
O13 O 0.18389 0.37343 0.96532 0.0
O14 O 0.62546 0.19245 0.08541 0.0
Cd15 Cd 0.61935 0.20665 0.04076 0.0
Cd16 Cd 0.64416 0.18711 0.01243 0.0
O17 O 0.64284 0.17422 0.06107 0.0
O18 O 0.59759 0.21668 0.05576 0.0
O19 O 0.60009 0.19985 1.00867 0.0
C20 C 0.59062 0.20861 0.0297 0.0
C21 C 0.6446 0.17376 0.95605 0.0
C22 C 0.63476 0.1796 0.08831 0.0
C23 C 0.65046 0.22446 0.01904 0.0
O24 O 0.65641 0.20991 0.01354 0.0
O25 O 0.63517 0.2263 0.0279 0.0
O26 O 0.65735 0.17337 0.97744 0.0
O27 O 0.63115 0.18105 0.9675 0.0
O28 O 0.81043 0.62698 0.08031 0.0
Cd29 Cd 0.79646 0.62183 0.03486 0.0
Cd30 Cd 0.8172 0.64528 1.00735 0.0
O31 O 0.83008 0.64268 0.05573 0.0
O32 O 0.78451 0.60082 0.04839 0.0
O33 O 0.8029 0.60206 1.00391 0.0
C34 C 0.79287 0.59321 0.0236 0.0
C35 C 0.82982 0.64318 0.95054 0.0
C36 C 0.82402 0.63518 0.0831 0.0
C37 C 0.78066 0.65419 0.01351 0.0
O38 O 0.79555 0.65945 1.00889 0.0
O39 O 0.77799 0.63889 0.02127 0.0
O40 O 0.83218 0.65609 0.97085 0.0
O41 O 0.82091 0.63101 0.96331 0.0
O42 O 0.3765 0.81181 0.08372 0.0
Cd43 Cd 0.38256 0.79709 0.0402 0.0
Cd44 Cd 0.35841 0.81615 1.00796 0.0
O45 O 0.35851 0.82881 0.05711 0.0
O46 O 0.40421 0.7864 0.05411 0.0
O47 O 0.40185 0.80407 1.00841 0.0
C48 C 0.41126 0.79473 0.02847 0.0
C49 C 0.36038 0.82969 0.952 0.0
C50 C 0.36659 0.82426 0.08511 0.0
C51 C 0.35164 0.77912 0.01578 0.0
O52 O 0.34606 0.79341 1.0065 0.0
O53 O 0.36633 0.77763 0.02874 0.0
O54 O 0.34696 0.83058 0.9713 0.0
O55 O 0.37309 0.82177 0.96536 0.0
O56 O 0.19452 0.62475 0.9453 0.0
Cd57 Cd 0.20865 0.61941 0.99013 0.0
Cd58 Cd 0.18813 0.6427 0.02022 0.0
O59 O 0.17574 0.64123 0.97068 0.0
O60 O 0.22033 0.59811 0.97784 0.0
O61 O 0.20169 0.60008 0.02177 0.0
C62 C 0.21172 0.5909 1.00286 0.0
C63 C 0.17473 0.64018 0.0762 0.0
C64 C 0.18132 0.63358 0.94301 0.0
C65 C 0.22491 0.65115 0.01447 0.0
O66 O 0.21022 0.65627 0.02192 0.0
O67 O 0.22726 0.63636 1.00284 0.0
O68 O 0.1729 0.65338 0.05643 0.0
O69 O 0.18345 0.62794 0.06322 0.0
O70 O 0.37592 0.19025 0.94445 0.0
Cd71 Cd 0.382 0.20506 0.98809 0.0
Cd72 Cd 0.35798 0.18527 0.01844 0.0
O73 O 0.359 0.17202 0.9704 0.0
O74 O 0.4036 0.21536 0.97283 0.0
O75 O 0.40136 0.19868 0.02029 0.0
C76 C 0.41071 0.20752 0.9991 0.0
C77 C 0.35811 0.17221 0.07507 0.0
C78 C 0.3668 0.17722 0.94261 0.0
C79 C 0.35076 0.22243 0.01017 0.0
O80 O 0.3453 0.20781 0.01709 0.0
O81 O 0.36585 0.22453 1.00017 0.0
O82 O 0.34509 0.17186 0.0545 0.0
O83 O 0.37152 0.17927 0.06269 0.0
O84 O 0.80606 0.37818 0.94293 0.0
Cd85 Cd 0.79285 0.38429 0.98887 0.0
Cd86 Cd 0.81311 0.35987 0.01561 0.0
O87 O 0.8252 0.36135 0.96598 0.0
O88 O 0.78205 0.40596 0.97575 0.0
O89 O 0.80059 0.40361 0.01976 0.0
C90 C 0.79092 0.41303 1.00048 0.0
C91 C 0.82705 0.35946 0.07131 0.0
C92 C 0.81906 0.36914 0.93904 0.0
C93 C 0.77572 0.35309 0.01171 0.0
O94 O 0.79045 0.34734 0.01599 0.0
O95 O 0.77354 0.36838 1.00329 0.0
O96 O 0.82707 0.34663 0.05019 0.0
O97 O 0.81993 0.37301 0.05985 0.0
O98 O 0.62456 0.80866 0.9484 0.0
Cd99 Cd 0.61992 0.79593 0.99577 0.0
Cd100 Cd 0.6432 0.81728 0.02001 0.0
O101 O 0.63986 0.82919 0.97065 0.0
O102 O 0.5984 0.78394 0.98666 0.0
O103 O 0.601 0.80413 0.02706 0.0
C104 C 0.59152 0.79357 0.01029 0.0
C105 C 0.64131 0.83049 0.07616 0.0
C106 C 0.6324 0.82238 0.94407 0.0
C107 C 0.65264 0.78091 0.01714 0.0
O108 O 0.6578 0.79594 0.01951 0.0
O109 O 0.63724 0.77792 0.0109 0.0
O110 O 0.65387 0.83311 0.05495 0.0
O111 O 0.6293 0.82104 0.06458 0.0
O112 O 0.69157 0.87511 0.5816 0.0
Cd113 Cd 0.70648 0.88096 0.53796 0.0
Cd114 Cd 0.68654 0.85718 0.50734 0.0
O115 O 0.67327 0.85837 0.55549 0.0
O116 O 0.71734 0.90216 0.55398 0.0
O117 O 0.70067 0.90074 0.5064 0.0
C118 C 0.7097 0.90968 0.52797 0.0
C119 C 0.67381 0.85935 0.45058 0.0
C120 C 0.67845 0.86612 0.58332 0.0
C121 C 0.72344 0.84938 0.51504 0.0
O122 O 0.7088 0.84396 0.50814 0.0
O123 O 0.72557 0.86443 0.52537 0.0
O124 O 0.67215 0.84608 0.47019 0.0
O125 O 0.68211 0.87179 0.46397 0.0
O126 O 0.12594 0.69089 0.57889 0.0
Cd127 Cd 0.12085 0.70521 0.53389 0.0
Cd128 Cd 0.14491 0.68453 0.5066 0.0
O129 O 0.14272 0.67188 0.55543 0.0
O130 O 0.09993 0.71688 0.54906 0.0
O131 O 0.10088 0.69956 0.50262 0.0
C132 C 0.09218 0.70909 0.52364 0.0
C133 C 0.14342 0.67139 0.45022 0.0
C134 C 0.13466 0.67767 0.58229 0.0
C135 C 0.15318 0.72132 0.51249 0.0
O136 O 0.15856 0.70651 0.50741 0.0
O137 O 0.13792 0.7238 0.52093 0.0
O138 O 0.15626 0.66952 0.47102 0.0
O139 O 0.13096 0.68012 0.46222 0.0
O140 O 0.30686 0.12365 0.57883 0.0
Cd141 Cd 0.29417 0.11848 0.53163 0.0
Cd142 Cd 0.31493 0.14233 0.50692 0.0
O143 O 0.32683 0.1397 0.55639 0.0
O144 O 0.28248 0.09682 0.5408 0.0
O145 O 0.30308 0.09958 0.50121 0.0
C146 C 0.29245 0.09004 0.51769 0.0
C147 C 0.32881 0.14202 0.45134 0.0
C148 C 0.32029 0.132 0.58303 0.0
C149 C 0.27807 0.15047 0.50992 0.0
O150 O 0.29297 0.15595 0.50708 0.0
O151 O 0.27548 0.13507 0.5166 0.0
O152 O 0.32968 0.15477 0.47261 0.0
O153 O 0.32082 0.12893 0.46259 0.0
O154 O 0.87755 0.31052 0.5784 0.0
Cd155 Cd 0.88427 0.29581 0.53533 0.0
Cd156 Cd 0.85915 0.31406 0.5027 0.0
O157 O 0.85879 0.32673 0.55195 0.0
O158 O 0.90614 0.28593 0.55013 0.0
O159 O 0.9035 0.30318 0.50377 0.0
C160 C 0.91308 0.29428 0.52436 0.0
C161 C 0.85876 0.3279 0.44676 0.0
C162 C 0.86715 0.32255 0.57986 0.0
C163 C 0.85424 0.27654 0.51119 0.0
O164 O 0.8482 0.29058 0.50153 0.0
O165 O 0.86891 0.27563 0.52445 0.0
O166 O 0.84565 0.32718 0.46703 0.0
O167 O 0.8725 0.32153 0.45916 0.0
O168 O 0.69425 0.1246 0.45084 0.0
Cd169 Cd 0.70921 0.1185 0.49396 0.0
Cd170 Cd 0.68984 0.14323 0.52516 0.0
O171 O 0.67716 0.14291 0.47589 0.0
O172 O 0.71938 0.09699 0.47784 0.0
O173 O 0.70319 0.09895 0.52605 0.0
C174 C 0.7118 0.08972 0.50424 0.0
C175 C 0.67604 0.14292 0.58106 0.0
C176 C 0.68183 0.13449 0.44851 0.0
C177 C 0.72732 0.14926 0.51759 0.0
O178 O 0.713 0.1549 0.52648 0.0
O179 O 0.72884 0.13456 0.50484 0.0
O180 O 0.67604 0.15604 0.5607 0.0
O181 O 0.68315 0.12954 0.56874 0.0
O182 O 0.87861 0.6924 0.44684 0.0
Cd183 Cd 0.88351 0.70665 0.49202 0.0
Cd184 Cd 0.85949 0.68616 0.51875 0.0
O185 O 0.8621 0.6732 0.4706 0.0
O186 O 0.90471 0.7182 0.47814 0.0
O187 O 0.90307 0.70055 0.524 0.0
C188 C 0.91211 0.71014 0.50371 0.0
C189 C 0.861 0.67353 0.57567 0.0
C190 C 0.87009 0.67902 0.44366 0.0
C191 C 0.85107 0.72279 0.51185 0.0
O192 O 0.84561 0.70796 0.51642 0.0
O193 O 0.86646 0.7253 0.50466 0.0
O194 O 0.84825 0.67127 0.55478 0.0
O195 O 0.87334 0.68239 0.56351 0.0
O196 O 0.30678 0.87673 0.45038 0.0
Cd197 Cd 0.29484 0.88176 0.49845 0.0
Cd198 Cd 0.3161 0.85855 0.52197 0.0
O199 O 0.32778 0.86199 0.47241 0.0
O200 O 0.28274 0.90329 0.4902 0.0
O201 O 0.30392 0.90074 0.52836 0.0
C202 C 0.29295 0.91017 0.51268 0.0
C203 C 0.32946 0.86061 0.57798 0.0
C204 C 0.32058 0.86906 0.44578 0.0
C205 C 0.27973 0.84926 0.52009 0.0
O206 O 0.29474 0.84395 0.52148 0.0
O207 O 0.27684 0.86473 0.51478 0.0
O208 O 0.33204 0.848 0.55695 0.0
O209 O 0.31993 0.87255 0.56632 0.0
O210 O 0.127 0.31058 0.44951 0.0
Cd211 Cd 0.12185 0.29719 0.49581 0.0
Cd212 Cd 0.14625 0.31718 0.52172 0.0
O213 O 0.14384 0.32963 0.47277 0.0
O214 O 0.10019 0.28583 0.48491 0.0
O215 O 0.10283 0.30514 0.52723 0.0
C216 C 0.09331 0.29506 0.50926 0.0
C217 C 0.14493 0.33044 0.57793 0.0
C218 C 0.13579 0.32377 0.44595 0.0
C219 C 0.15378 0.28036 0.51701 0.0
O220 O 0.15964 0.29506 0.52092 0.0
O221 O 0.13835 0.27824 0.50967 0.0
O222 O 0.15777 0.33217 0.55707 0.0
O223 O 0.1324 0.32179 0.56605 0.0
H224 H 0.19103 0.57076 0.043 0.0
H225 H 0.19145 0.54013 0.04667 0.0
H226 H 0.23517 0.53896 0.97818 0.0
H227 H 0.23453 0.56945 0.97362 0.0
H228 H 0.21391 0.51658 0.95604 0.0
H229 H 0.23724 0.53153 0.07095 0.0
H230 H 0.23812 0.54582 0.12987 0.0
H231 H 0.19286 0.52078 0.16189 0.0
H232 H 0.19159 0.5065 0.10296 0.0
H233 H 0.23395 0.43208 0.05417 0.0
H234 H 0.23469 0.46258 0.05001 0.0
H235 H 0.19151 0.4617 0.97993 0.0
H236 H 0.19093 0.43106 0.98334 0.0
H237 H 0.21306 0.48507 0.07144 0.0
H238 H 0.19281 0.49523 0.9231 0.0
H239 H 0.19488 0.48094 0.86428 0.0
H240 H 0.23955 0.45572 0.89937 0.0
H241 H 0.23788 0.47003 0.95819 0.0
C242 C 0.20083 0.56398 0.02904 0.0
C243 C 0.21275 0.57253 1.00804 0.0
C244 C 0.20107 0.54646 0.03118 0.0
C245 C 0.2134 0.5372 0.01283 0.0
C246 C 0.22548 0.54579 0.99242 0.0
C247 C 0.22515 0.56325 0.99 0.0
C248 C 0.21353 0.51857 0.01403 0.0
C249 C 0.21371 0.5097 0.98131 0.0
C250 C 0.21347 0.50954 0.04693 0.0
C251 C 0.21423 0.51807 0.08242 0.0
C252 C 0.22741 0.52917 0.09046 0.0
C253 C 0.22799 0.53725 0.12387 0.0
C254 C 0.21553 0.53424 0.14957 0.0
C255 C 0.20249 0.52311 0.14194 0.0
C256 C 0.20184 0.51501 0.10855 0.0
C257 C 0.2247 0.43834 0.03756 0.0
C258 C 0.2124 0.42913 0.019 0.0
C259 C 0.22509 0.45581 0.03537 0.0
C260 C 0.21319 0.46447 0.01461 0.0
C261 C 0.20097 0.4553 0.99574 0.0
C262 C 0.20064 0.43778 0.99773 0.0
C263 C 0.21344 0.48309 0.01346 0.0
C264 C 0.21323 0.49195 0.04618 0.0
C265 C 0.21387 0.49212 0.98058 0.0
C266 C 0.2151 0.48357 0.94517 0.0
C267 C 0.2031 0.48668 0.91821 0.0
C268 C 0.2042 0.47857 0.88488 0.0
C269 C 0.2173 0.46738 0.87814 0.0
C270 C 0.22937 0.46433 0.90467 0.0
C271 C 0.22834 0.47242 0.93803 0.0
H272 H 0.21813 0.46111 0.85233 0.0
H273 H 0.21601 0.54051 0.17543 0.0
H274 H 0.42935 0.19996 0.05918 0.0
H275 H 0.46007 0.20037 0.0647 0.0
H276 H 0.46425 0.21597 0.95369 0.0
H277 H 0.43371 0.21606 0.9482 0.0
H278 H 0.48536 0.18643 0.97911 0.0
H279 H 0.47052 0.24437 1.00564 0.0
H280 H 0.45515 0.26612 0.03932 0.0
H281 H 0.47669 0.24852 0.13856 0.0
H282 H 0.492 0.2265 0.10547 0.0
H283 H 0.57213 0.20477 0.96794 0.0
H284 H 0.54153 0.205 0.96242 0.0
H285 H 0.53717 0.21163 0.07769 0.0
H286 H 0.56761 0.21263 0.08271 0.0
H287 H 0.51539 0.22955 0.05047 0.0
H288 H 0.53017 0.1723 0.02954 0.0
H289 H 0.54483 0.14861 1.00081 0.0
H290 H 0.52301 0.16155 0.89859 0.0
H291 H 0.50838 0.18545 0.92664 0.0
C292 C 0.43684 0.20356 0.03605 0.0
C293 C 0.42914 0.20806 1.00333 0.0
C294 C 0.45433 0.20377 0.03923 0.0
C295 C 0.46435 0.20817 0.00955 0.0
C296 C 0.4567 0.21251 0.97683 0.0
C297 C 0.43926 0.21265 0.97385 0.0
C298 C 0.48284 0.2083 0.01246 0.0
C299 C 0.49202 0.19591 0.99441 0.0
C300 C 0.49136 0.22038 0.03333 0.0
C301 C 0.48224 0.23368 0.05314 0.0
C302 C 0.47185 0.24504 0.03468 0.0
C303 C 0.46318 0.25744 0.05365 0.0
C304 C 0.4649 0.25867 0.09107 0.0
C305 C 0.47534 0.24753 0.10958 0.0
C306 C 0.48402 0.2351 0.09073 0.0
C307 C 0.56458 0.20634 0.99198 0.0
C308 C 0.5722 0.20871 0.02571 0.0
C309 C 0.54708 0.20632 0.98891 0.0
C310 C 0.5369 0.208 0.01975 0.0
C311 C 0.54462 0.21037 0.05342 0.0
C312 C 0.56206 0.2109 0.0563 0.0
C313 C 0.51823 0.20754 0.01716 0.0
C314 C 0.50891 0.21993 0.03523 0.0
C315 C 0.50957 0.19514 0.99707 0.0
C316 C 0.51832 0.18076 0.98013 0.0
C317 C 0.52859 0.17016 1.00089 0.0
C318 C 0.53688 0.15668 0.98474 0.0
C319 C 0.53489 0.1536 0.94788 0.0
C320 C 0.52456 0.16397 0.92713 0.0
C321 C 0.51626 0.17747 0.94314 0.0
H322 H 0.54132 0.14317 0.93543 0.0
H323 H 0.45818 0.26828 0.10571 0.0
H324 H 0.80663 0.432 0.05218 0.0
H325 H 0.80636 0.4626 0.05796 0.0
H326 H 0.77454 0.46621 0.96414 0.0
H327 H 0.77438 0.4358 0.95881 0.0
H328 H 0.81721 0.48671 0.01548 0.0
H329 H 0.74863 0.49913 0.97021 0.0
H330 H 0.72099 0.48533 0.9732 0.0
H331 H 0.73646 0.45806 0.06742 0.0
H332 H 0.7641 0.47185 0.06529 0.0
H333 H 0.80821 0.57309 0.97341 0.0
H334 H 0.80741 0.54244 0.97017 0.0
H335 H 0.77453 0.54109 0.06255 0.0
H336 H 0.7749 0.57158 0.06532 0.0
H337 H 0.76428 0.51933 0.01595 0.0
H338 H 0.81722 0.53273 0.0694 0.0
H339 H 0.84485 0.54645 0.07365 0.0
H340 H 0.86059 0.52194 0.97632 0.0
H341 H 0.83296 0.50825 0.97124 0.0
C342 C 0.79946 0.43932 0.03301 0.0
C343 C 0.79043 0.43145 1.00521 0.0
C344 C 0.79938 0.45681 0.03622 0.0
C345 C 0.79028 0.46672 0.01172 0.0
C346 C 0.78138 0.45885 0.98382 0.0
C347 C 0.78135 0.44143 0.98076 0.0
C348 C 0.79024 0.4853 0.01482 0.0
C349 C 0.80563 0.49383 0.01563 0.0
C350 C 0.77515 0.49464 0.0156 0.0
C351 C 0.75849 0.48642 0.01736 0.0
C352 C 0.7461 0.49024 0.99165 0.0
C353 C 0.73044 0.48241 0.99318 0.0
C354 C 0.72699 0.47079 0.02042 0.0
C355 C 0.73917 0.46702 0.04626 0.0
C356 C 0.75485 0.47482 0.04487 0.0
C357 C 0.8007 0.56625 0.99281 0.0
C358 C 0.79165 0.57478 0.01966 0.0
C359 C 0.80034 0.54873 0.99109 0.0
C360 C 0.79111 0.53941 0.01647 0.0
C361 C 0.78176 0.54796 0.04268 0.0
C362 C 0.78201 0.56543 0.04425 0.0
C363 C 0.79125 0.52077 0.01613 0.0
C364 C 0.77586 0.51222 0.01576 0.0
C365 C 0.80633 0.51142 0.01674 0.0
C366 C 0.82297 0.5196 0.01976 0.0
C367 C 0.82653 0.53037 0.04876 0.0
C368 C 0.8422 0.53812 0.05134 0.0
C369 C 0.85445 0.5351 0.02522 0.0
C370 C 0.85108 0.52429 0.99651 0.0
C371 C 0.83542 0.51652 0.99378 0.0
H372 H 0.86657 0.54112 0.02727 0.0
H373 H 0.71486 0.46473 0.02153 0.0
H374 H 0.56921 0.77057 0.98468 0.0
H375 H 0.53868 0.77145 0.9884 0.0
H376 H 0.54154 0.81698 0.05073 0.0
H377 H 0.57219 0.81593 0.04788 0.0
H378 H 0.51772 0.79785 0.07666 0.0
H379 H 0.53244 0.8178 0.95977 0.0
H380 H 0.54633 0.81733 0.90036 0.0
H381 H 0.51954 0.77252 0.87245 0.0
H382 H 0.50566 0.77259 0.93192 0.0
H383 H 0.43085 0.81468 0.98537 0.0
H384 H 0.46153 0.8154 0.98271 0.0
H385 H 0.46394 0.77423 0.05808 0.0
H386 H 0.43342 0.77371 0.06151 0.0
H387 H 0.48514 0.79443 0.96282 0.0
H388 H 0.49688 0.77864 0.11392 0.0
H389 H 0.48302 0.78266 0.17277 0.0
H390 H 0.45691 0.82559 0.13122 0.0
H391 H 0.47078 0.82197 0.07231 0.0
C392 C 0.56336 0.78069 0.99951 0.0
C393 C 0.57313 0.79324 0.01582 0.0
C394 C 0.54589 0.78124 1.0014 0.0
C395 C 0.53777 0.79448 0.01917 0.0
C396 C 0.54751 0.80668 0.0367 0.0
C397 C 0.56503 0.80606 0.03508 0.0
C398 C 0.51917 0.79571 0.01883 0.0
C399 C 0.51061 0.79709 0.05176 0.0
C400 C 0.50985 0.79519 0.98629 0.0
C401 C 0.51812 0.79513 0.95043 0.0
C402 C 0.5296 0.80778 0.94107 0.0
C403 C 0.53746 0.80759 0.90737 0.0
C404 C 0.53385 0.79488 0.88268 0.0
C405 C 0.52234 0.78235 0.89162 0.0
C406 C 0.51446 0.78246 0.92531 0.0
C407 C 0.43793 0.80571 1.00116 0.0
C408 C 0.4297 0.79423 0.02386 0.0
C409 C 0.45547 0.80614 0.99963 0.0
C410 C 0.46507 0.79508 0.02072 0.0
C411 C 0.45683 0.78315 0.04221 0.0
C412 C 0.43935 0.78281 0.04397 0.0
C413 C 0.48369 0.79609 0.02071 0.0
C414 C 0.49225 0.79517 0.98771 0.0
C415 C 0.49302 0.79752 0.05311 0.0
C416 C 0.48476 0.79992 0.0886 0.0
C417 C 0.48824 0.78897 0.1174 0.0
C418 C 0.48037 0.79118 0.15076 0.0
C419 C 0.46905 0.80434 0.1557 0.0
C420 C 0.46563 0.81536 0.12732 0.0
C421 C 0.47348 0.81323 0.09393 0.0
H422 H 0.46296 0.80601 0.18153 0.0
H423 H 0.53995 0.79476 0.8566 0.0
H424 H 0.7053 0.07067 0.56433 0.0
H425 H 0.70549 0.0399 0.5687 0.0
H426 H 0.71876 0.03652 0.45624 0.0
H427 H 0.71912 0.0671 0.45188 0.0
H428 H 0.68837 0.0158 0.48724 0.0
H429 H 0.74803 0.02877 0.49941 0.0
H430 H 0.77179 0.04339 0.52802 0.0
H431 H 0.75855 0.02211 0.63061 0.0
H432 H 0.73455 0.00756 0.60263 0.0
H433 H 0.7041 0.92895 0.46787 0.0
H434 H 0.70507 0.95957 0.46357 0.0
H435 H 0.71713 0.96251 0.57698 0.0
H436 H 0.71719 0.93203 0.5807 0.0
H437 H 0.7344 0.98421 0.54625 0.0
H438 H 0.67613 0.97078 0.53915 0.0
H439 H 0.65069 0.95689 0.51607 0.0
H440 H 0.65838 0.97946 0.41216 0.0
H441 H 0.68399 0.99332 0.4345 0.0
C442 C 0.70835 0.06335 0.54064 0.0
C443 C 0.71228 0.07127 0.50782 0.0
C444 C 0.70844 0.04583 0.54317 0.0
C445 C 0.71212 0.03604 0.51275 0.0
C446 C 0.71589 0.04391 0.47996 0.0
C447 C 0.71618 0.06137 0.47761 0.0
C448 C 0.71199 0.01754 0.51492 0.0
C449 C 0.69848 0.00881 0.49979 0.0
C450 C 0.72493 0.00859 0.5323 0.0
C451 C 0.73939 0.01725 0.54903 0.0
C452 C 0.75008 0.02735 0.52813 0.0
C453 C 0.76362 0.03559 0.54421 0.0
C454 C 0.76665 0.03373 0.58113 0.0
C455 C 0.75617 0.02358 0.60202 0.0
C456 C 0.74261 0.01532 0.58607 0.0
C457 C 0.70704 0.93618 0.49176 0.0
C458 C 0.71058 0.92812 0.52459 0.0
C459 C 0.70746 0.95369 0.4894 0.0
C460 C 0.71085 0.96348 0.52014 0.0
C461 C 0.71451 0.95535 0.55283 0.0
C462 C 0.71451 0.93788 0.55495 0.0
C463 C 0.7107 0.98216 0.51843 0.0
C464 C 0.72418 0.99103 0.53369 0.0
C465 C 0.69747 0.99126 0.50193 0.0
C466 C 0.68207 0.98295 0.4884 0.0
C467 C 0.67246 0.97269 0.5113 0.0
C468 C 0.658 0.96483 0.49837 0.0
C469 C 0.65295 0.96725 0.46265 0.0
C470 C 0.66232 0.97757 0.43981 0.0
C471 C 0.6768 0.98544 0.4526 0.0
H472 H 0.64175 0.96116 0.45268 0.0
H473 H 0.77713 0.04012 0.59354 0.0
H474 H 0.93465 0.7217 0.45458 0.0
H475 H 0.96523 0.72174 0.45916 0.0
H476 H 0.96198 0.70119 0.56649 0.0
H477 H 0.93123 0.70062 0.56181 0.0
H478 H 0.98545 0.73532 0.53971 0.0
H479 H 0.97356 0.67445 0.53201 0.0
H480 H 0.95937 0.65051 0.50307 0.0
H481 H 0.98106 0.66401 0.40106 0.0
H482 H 0.99516 0.68819 0.42938 0.0
H483 H 0.07019 0.7178 0.57619 0.0
H484 H 0.03973 0.71838 0.57306 0.0
H485 H 0.04186 0.70429 0.46073 0.0
H486 H 0.07251 0.70269 0.46449 0.0
H487 H 0.0182 0.68804 0.48896 0.0
H488 H 0.0322 0.74601 0.49239 0.0
H489 H 0.04571 0.77181 0.51454 0.0
H490 H 0.0198 0.76695 0.61553 0.0
H491 H 0.00629 0.74099 0.59416 0.0
C492 C 0.9404 0.71727 0.47929 0.0
C493 C 0.93053 0.71115 0.50787 0.0
C494 C 0.95786 0.71727 0.48178 0.0
C495 C 0.96577 0.71139 0.51304 0.0
C496 C 0.95602 0.70571 0.54208 0.0
C497 C 0.93851 0.70539 0.53937 0.0
C498 C 0.98428 0.71104 0.51486 0.0
C499 C 0.99269 0.7249 0.52925 0.0
C500 C 0.99357 0.69779 0.49959 0.0
C501 C 0.98522 0.68322 0.48269 0.0
C502 C 0.97514 0.67241 0.50334 0.0
C503 C 0.96715 0.65878 0.48707 0.0
C504 C 0.96926 0.65578 0.45022 0.0
C505 C 0.9794 0.66637 0.42958 0.0
C506 C 0.9874 0.68003 0.44573 0.0
C507 C 0.06419 0.71495 0.55071 0.0
C508 C 0.07374 0.71033 0.52047 0.0
C509 C 0.04672 0.71538 0.54888 0.0
C510 C 0.03838 0.71177 0.51643 0.0
C511 C 0.04794 0.70719 0.48609 0.0
C512 C 0.06546 0.70635 0.48817 0.0
C513 C 0.01971 0.71226 0.51466 0.0
C514 C 0.01115 0.69849 0.49983 0.0
C515 C 0.01028 0.72583 0.52884 0.0
C516 C 0.01835 0.74147 0.54177 0.0
C517 C 0.02947 0.75038 0.51941 0.0
C518 C 0.03711 0.76504 0.53181 0.0
C519 C 0.03364 0.77099 0.56645 0.0
C520 C 0.02249 0.76232 0.58872 0.0
C521 C 0.01482 0.74764 0.57646 0.0
H522 H 0.03958 0.78235 0.576 0.0
H523 H 0.96307 0.64522 0.43767 0.0
H524 H 0.26588 0.0689 0.52385 0.0
H525 H 0.26626 0.03831 0.52241 0.0
H526 H 0.31953 0.03919 0.50186 0.0
H527 H 0.31891 0.06986 0.50089 0.0
H528 H 0.30773 0.01488 0.46719 0.0
H529 H 0.30127 0.03185 0.58945 0.0
H530 H 0.28893 0.0468 0.64121 0.0
H531 H 0.24226 0.0211 0.62494 0.0
H532 H 0.25425 0.00615 0.57276 0.0
H533 H 0.31887 0.93033 0.53353 0.0
H534 H 0.31922 0.96109 0.53496 0.0
H535 H 0.26696 0.96209 0.50556 0.0
H536 H 0.26662 0.93141 0.50297 0.0
H537 H 0.27969 0.98484 0.5678 0.0
H538 H 0.28852 0.96871 0.44186 0.0
H539 H 0.30349 0.95325 0.39416 0.0
H540 H 0.34958 0.97726 0.42424 0.0
H541 H 0.33491 0.99267 0.47253 0.0
C542 C 0.27761 0.06253 0.51849 0.0
C543 C 0.29238 0.07171 0.51262 0.0
C544 C 0.27787 0.04504 0.51807 0.0
C545 C 0.29303 0.03633 0.51323 0.0
C546 C 0.30768 0.04554 0.50591 0.0
C547 C 0.30733 0.06307 0.5053 0.0
C548 C 0.29361 0.01772 0.51647 0.0
C549 C 0.30177 0.00841 0.48951 0.0
C550 C 0.28587 0.00907 0.54556 0.0
C551 C 0.27862 0.018 0.57699 0.0
C552 C 0.28834 0.02947 0.59677 0.0
C553 C 0.28141 0.03793 0.6262 0.0
C554 C 0.26481 0.03493 0.63631 0.0
C555 C 0.25511 0.02343 0.61705 0.0
C556 C 0.26197 0.01494 0.58757 0.0
C557 C 0.30741 0.93711 0.52788 0.0
C558 C 0.29272 0.92851 0.5181 0.0
C559 C 0.30765 0.95464 0.52856 0.0
C560 C 0.29313 0.96378 0.52021 0.0
C561 C 0.27827 0.95521 0.51206 0.0
C562 C 0.27811 0.93772 0.51056 0.0
C563 C 0.29356 0.98229 0.51844 0.0
C564 C 0.28565 0.99148 0.54569 0.0
C565 C 0.3019 0.99082 0.49025 0.0
C566 C 0.31066 0.98167 0.46106 0.0
C567 C 0.30188 0.97056 0.43854 0.0
C568 C 0.3103 0.96184 0.41135 0.0
C569 C 0.32749 0.96423 0.40625 0.0
C570 C 0.33628 0.97539 0.42827 0.0
C571 C 0.32791 0.98413 0.45553 0.0
H572 H 0.33399 0.95747 0.38518 0.0
H573 H 0.25947 0.0415 0.6591 0.0
H574 H 0.07109 0.27224 0.48276 0.0
H575 H 0.04057 0.27311 0.48599 0.0
H576 H 0.04321 0.31839 0.54918 0.0
H577 H 0.07388 0.31732 0.54689 0.0
H578 H 0.01932 0.29927 0.57435 0.0
H579 H 0.03427 0.31947 0.45788 0.0
H580 H 0.04835 0.3192 0.39867 0.0
H581 H 0.0219 0.27431 0.36993 0.0
H582 H 0.00783 0.27418 0.4292 0.0
H583 H 0.93238 0.31468 0.48164 0.0
H584 H 0.96305 0.31609 0.47959 0.0
H585 H 0.96606 0.275 0.55507 0.0
H586 H 0.93555 0.27381 0.55793 0.0
H587 H 0.9871 0.29567 0.46006 0.0
H588 H 0.99869 0.2799 0.61133 0.0
H589 H 0.98462 0.2837 0.67001 0.0
H590 H 0.95795 0.32622 0.62818 0.0
H591 H 0.97202 0.32283 0.56943 0.0
C592 C 0.0652 0.28231 0.49765 0.0
C593 C 0.07491 0.29478 0.51439 0.0
C594 C 0.04772 0.28285 0.49926 0.0
C595 C 0.03955 0.29603 0.51712 0.0
C596 C 0.04922 0.30815 0.53506 0.0
C597 C 0.06675 0.30752 0.53376 0.0
C598 C 0.02095 0.29722 0.51653 0.0
C599 C 0.01229 0.29849 0.54936 0.0
C600 C 0.01173 0.29668 0.48386 0.0
C601 C 0.0201 0.29674 0.44811 0.0
C602 C 0.03155 0.30948 0.43903 0.0
C603 C 0.03951 0.30941 0.40545 0.0
C604 C 0.03605 0.29673 0.38059 0.0
C605 C 0.02458 0.28411 0.38923 0.0
C606 C 0.01659 0.28411 0.4228 0.0
C607 C 0.93959 0.30589 0.4976 0.0
C608 C 0.93154 0.29422 0.52016 0.0
C609 C 0.95712 0.30671 0.49642 0.0
C610 C 0.96688 0.29587 0.51772 0.0
C611 C 0.95883 0.28377 0.53907 0.0
C612 C 0.94136 0.28304 0.5405 0.0
C613 C 0.98548 0.29723 0.51794 0.0
C614 C 0.99413 0.29647 0.48504 0.0
C615 C 0.99469 0.29873 0.55047 0.0
C616 C 0.9863 0.301 0.58587 0.0
C617 C 0.98988 0.2901 0.6147 0.0
C618 C 0.98189 0.29218 0.64797 0.0
C619 C 0.97036 0.30516 0.65279 0.0
C620 C 0.96683 0.31613 0.62438 0.0
C621 C 0.9748 0.31412 0.59108 0.0
H622 H 0.96418 0.30674 0.67855 0.0
H623 H 0.04223 0.29669 0.3546 0.0
H624 H 0.25754 0.35694 0.01201 0.0
H625 H 0.28081 0.33689 0.01172 0.0
H626 H 0.24558 0.29593 0.01066 0.0
H627 H 0.2223 0.31577 0.01071 0.0
H628 H 0.2705 0.29285 0.06355 0.0
H629 H 0.26578 0.30531 0.93613 0.0
H630 H 0.26521 0.32404 0.88318 0.0
H631 H 0.31492 0.34114 0.90798 0.0
H632 H 0.31569 0.32268 0.96142 0.0
H633 H 0.31695 0.22151 0.02041 0.0
H634 H 0.29744 0.24489 0.02207 0.0
H635 H 0.33837 0.27956 1.00734 0.0
H636 H 0.35808 0.25602 1.00456 0.0
H637 H 0.31284 0.28834 0.96601 0.0
H638 H 0.31893 0.27484 0.09032 0.0
H639 H 0.31996 0.25672 0.14421 0.0
H640 H 0.26857 0.24269 0.1277 0.0
H641 H 0.26729 0.26055 0.0734 0.0
C642 C 0.25475 0.34367 0.01145 0.0
C643 C 0.23805 0.33796 0.01141 0.0
C644 C 0.26806 0.33224 0.01122 0.0
C645 C 0.26489 0.31494 0.01117 0.0
C646 C 0.24827 0.30923 0.01079 0.0
C647 C 0.23498 0.32061 0.01065 0.0
C648 C 0.27883 0.30268 0.01253 0.0
C649 C 0.27969 0.29174 0.04211 0.0
C650 C 0.29115 0.30171 0.98519 0.0
C651 C 0.29071 0.31276 0.95301 0.0
C652 C 0.27653 0.31318 0.93049 0.0
C653 C 0.27618 0.32372 0.90034 0.0
C654 C 0.29 0.33381 0.89228 0.0
C655 C 0.30421 0.33334 0.91429 0.0
C656 C 0.30461 0.32283 0.9445 0.0
C657 C 0.32188 0.23409 0.01774 0.0
C658 C 0.33912 0.23688 0.01256 0.0
C659 C 0.31068 0.24749 0.01885 0.0
C660 C 0.31644 0.26404 0.01549 0.0
C661 C 0.33364 0.26691 0.01016 0.0
C662 C 0.34489 0.25345 1.0087 0.0
C663 C 0.30432 0.27817 0.01672 0.0
C664 C 0.3038 0.28951 0.98772 0.0
C665 C 0.29238 0.27965 0.04482 0.0
C666 C 0.29305 0.26895 0.07762 0.0
C667 C 0.30788 0.26781 0.09804 0.0
C668 C 0.3085 0.25759 0.12868 0.0
C669 C 0.29435 0.24854 0.13933 0.0
C670 C 0.27953 0.24971 0.11941 0.0
C671 C 0.27884 0.25989 0.08872 0.0
H672 H 0.29486 0.24063 0.16306 0.0
H673 H 0.2897 0.34196 0.86893 0.0
H674 H 0.74212 0.36065 1.00743 0.0
H675 H 0.71854 0.3409 1.00754 0.0
H676 H 0.75296 0.29976 0.02148 0.0
H677 H 0.77647 0.31923 0.02159 0.0
H678 H 0.7303 0.29504 0.96514 0.0
H679 H 0.72999 0.31254 0.09065 0.0
H680 H 0.72822 0.33338 0.13956 0.0
H681 H 0.67965 0.34868 0.10195 0.0
H682 H 0.68125 0.32806 0.0525 0.0
H683 H 0.68452 0.22442 0.01423 0.0
H684 H 0.7033 0.24837 0.01123 0.0
H685 H 0.66093 0.28194 0.01386 0.0
H686 H 0.64193 0.25785 0.01813 0.0
H687 H 0.68473 0.29347 0.05612 0.0
H688 H 0.68315 0.27477 0.93464 0.0
H689 H 0.68429 0.25456 0.88446 0.0
H690 H 0.73533 0.24278 0.911 0.0
H691 H 0.73444 0.26275 0.96168 0.0
C692 C 0.74465 0.34741 0.01085 0.0
C693 C 0.76121 0.34153 0.01441 0.0
C694 C 0.73116 0.33616 0.01094 0.0
C695 C 0.73403 0.31888 0.01444 0.0
C696 C 0.75049 0.31304 0.01859 0.0
C697 C 0.76392 0.32423 0.01878 0.0
C698 C 0.72007 0.30665 0.01265 0.0
C699 C 0.72038 0.29461 0.98514 0.0
C700 C 0.70678 0.30655 0.03788 0.0
C701 C 0.70583 0.3189 0.06764 0.0
C702 C 0.719 0.32045 0.09262 0.0
C703 C 0.71802 0.3322 0.12048 0.0
C704 C 0.70386 0.34238 0.12379 0.0
C705 C 0.69063 0.3408 0.09931 0.0
C706 C 0.69156 0.32908 0.07138 0.0
C707 C 0.67912 0.23687 0.01397 0.0
C708 C 0.66169 0.2392 0.01617 0.0
C709 C 0.68991 0.25059 0.01208 0.0
C710 C 0.68354 0.26699 0.01155 0.0
C711 C 0.66613 0.26941 0.01402 0.0
C712 C 0.65529 0.25563 0.01636 0.0
C713 C 0.69523 0.28146 1.0092 0.0
C714 C 0.69448 0.29399 0.03577 0.0
C715 C 0.70803 0.28216 0.98277 0.0
C716 C 0.70868 0.2702 0.95213 0.0
C717 C 0.69459 0.26779 0.92993 0.0
C718 C 0.69519 0.25639 0.90137 0.0
C719 C 0.70986 0.24737 0.89458 0.0
C720 C 0.72397 0.24977 0.91629 0.0
C721 C 0.72343 0.26115 0.94491 0.0
H722 H 0.7103 0.23854 0.87247 0.0
H723 H 0.70311 0.35147 0.14538 0.0
H724 H 0.78226 0.68825 1.00689 0.0
H725 H 0.75913 0.70824 1.00872 0.0
H726 H 0.72383 0.66758 0.01843 0.0
H727 H 0.74695 0.64737 0.01672 0.0
H728 H 0.71376 0.69301 0.96937 0.0
H729 H 0.73328 0.68788 0.09141 0.0
H730 H 0.75465 0.68754 0.13947 0.0
H731 H 0.7676 0.73854 0.11517 0.0
H732 H 0.74647 0.7391 0.06657 0.0
H733 H 0.64626 0.7471 0.01677 0.0
H734 H 0.6667 0.72425 0.0179 0.0
H735 H 0.70697 0.76023 0.02356 0.0
H736 H 0.68669 0.78305 0.02337 0.0
H737 H 0.71318 0.73526 0.06747 0.0
H738 H 0.69583 0.74033 0.9436 0.0
H739 H 0.67557 0.74117 0.89335 0.0
H740 H 0.65956 0.69116 0.91876 0.0
H741 H 0.67959 0.69011 0.96948 0.0
C742 C 0.76959 0.68349 1.00914 0.0
C743 C 0.76648 0.66619 0.01187 0.0
C744 C 0.75639 0.69496 0.01031 0.0
C745 C 0.73981 0.68938 0.01415 0.0
C746 C 0.73656 0.67212 0.01558 0.0
C747 C 0.74979 0.66061 0.01468 0.0
C748 C 0.72599 0.70169 0.01761 0.0
C749 C 0.71344 0.70208 0.99113 0.0
C750 C 0.72581 0.71371 0.04562 0.0
C751 C 0.73838 0.71348 0.07514 0.0
C752 C 0.74077 0.69898 0.09614 0.0
C753 C 0.75282 0.69875 0.12351 0.0
C754 C 0.7625 0.71299 0.13032 0.0
C755 C 0.7601 0.72751 0.10984 0.0
C756 C 0.74807 0.7278 0.08241 0.0
C757 C 0.65946 0.75014 0.01849 0.0
C758 C 0.66482 0.76693 0.01983 0.0
C759 C 0.67114 0.73706 0.01894 0.0
C760 C 0.6884 0.74051 0.02026 0.0
C761 C 0.69373 0.75724 0.02249 0.0
C762 C 0.68209 0.77029 0.0223 0.0
C763 C 0.70101 0.72681 0.01888 0.0
C764 C 0.71336 0.72612 0.04583 0.0
C765 C 0.70108 0.71463 0.99109 0.0
C766 C 0.68906 0.71522 0.96058 0.0
C767 C 0.68789 0.72957 0.93864 0.0
C768 C 0.67647 0.73007 0.91005 0.0
C769 C 0.66625 0.71625 0.90294 0.0
C770 C 0.66747 0.70187 0.92435 0.0
C771 C 0.67885 0.70131 0.95301 0.0
H772 H 0.65742 0.71666 0.88079 0.0
H773 H 0.77184 0.71279 0.1515 0.0
H774 H 0.2539 0.65108 0.97553 0.0
H775 H 0.27649 0.6717 0.97735 0.0
H776 H 0.25118 0.6977 0.06372 0.0
H777 H 0.22807 0.67766 0.06029 0.0
H778 H 0.26132 0.71943 0.02139 0.0
H779 H 0.28871 0.67272 0.07496 0.0
H780 H 0.29854 0.64355 0.0809 0.0
H781 H 0.32769 0.64888 0.98421 0.0
H782 H 0.31787 0.67802 0.97741 0.0
H783 H 0.35272 0.75078 0.05701 0.0
H784 H 0.3322 0.72803 0.05858 0.0
H785 H 0.30534 0.75101 0.97033 0.0
H786 H 0.3253 0.77423 0.9701 0.0
H787 H 0.32168 0.70467 0.01853 0.0
H788 H 0.26428 0.74516 0.97634 0.0
H789 H 0.25463 0.77445 0.98116 0.0
H790 H 0.28557 0.78155 0.07469 0.0
H791 H 0.29524 0.75227 0.07071 0.0
C792 C 0.25325 0.66112 0.99512 0.0
C793 C 0.23924 0.66277 0.01778 0.0
C794 C 0.26624 0.67287 0.99631 0.0
C795 C 0.26575 0.68621 0.02104 0.0
C796 C 0.25189 0.68761 0.04427 0.0
C797 C 0.2387 0.67611 0.04242 0.0
C798 C 0.2792 0.69918 0.02146 0.0
C799 C 0.2745 0.71614 0.02091 0.0
C800 C 0.29649 0.69504 0.02155 0.0
C801 C 0.30243 0.67751 0.02551 0.0
C802 C 0.29712 0.66763 0.05482 0.0
C803 C 0.30271 0.65111 0.05836 0.0
C804 C 0.3137 0.64435 0.0329 0.0
C805 C 0.31916 0.65412 1.00389 0.0
C806 C 0.31361 0.67065 1.0002 0.0
C807 C 0.34249 0.7509 0.03778 0.0
C808 C 0.34048 0.76437 0.01371 0.0
C809 C 0.33077 0.73787 0.03867 0.0
C810 C 0.31695 0.73795 0.01514 0.0
C811 C 0.31556 0.7509 0.98956 0.0
C812 C 0.32704 0.76412 0.98926 0.0
C813 C 0.30374 0.72484 0.01815 0.0
C814 C 0.30848 0.70789 0.01919 0.0
C815 C 0.28649 0.72898 0.02014 0.0
C816 C 0.2806 0.74657 0.02298 0.0
C817 C 0.26897 0.75296 0.99801 0.0
C818 C 0.26351 0.76956 1.00058 0.0
C819 C 0.26952 0.77987 0.02814 0.0
C820 C 0.28097 0.77358 0.05328 0.0
C821 C 0.28645 0.75698 0.05086 0.0
H822 H 0.26529 0.79272 0.03006 0.0
H823 H 0.31801 0.63156 0.0357 0.0
H824 H 0.85828 0.75639 0.51572 0.0
H825 H 0.83834 0.77979 0.51527 0.0
H826 H 0.79721 0.74485 0.5096 0.0
H827 H 0.81692 0.72146 0.51049 0.0
H828 H 0.79586 0.77124 0.45783 0.0
H829 H 0.80442 0.76278 0.58605 0.0
H830 H 0.82154 0.76066 0.64126 0.0
H831 H 0.83944 0.81085 0.62504 0.0
H832 H 0.8226 0.81317 0.5694 0.0
H833 H 0.72294 0.81597 0.49935 0.0
H834 H 0.74652 0.79666 0.49696 0.0
H835 H 0.78053 0.83712 0.52133 0.0
H836 H 0.75683 0.85658 0.52463 0.0
H837 H 0.78823 0.81043 0.56032 0.0
H838 H 0.77837 0.82045 0.4359 0.0
H839 H 0.76201 0.82322 0.37978 0.0
H840 H 0.74792 0.77139 0.38632 0.0
H841 H 0.76401 0.76835 0.44278 0.0
C842 C 0.84499 0.75369 0.51458 0.0
C843 C 0.83919 0.73705 0.51318 0.0
C844 C 0.83363 0.76707 0.51437 0.0
C845 C 0.81633 0.76402 0.51237 0.0
C846 C 0.81053 0.74745 0.51106 0.0
C847 C 0.82182 0.7341 0.51176 0.0
C848 C 0.80414 0.77801 0.5111 0.0
C849 C 0.79408 0.77975 0.4803 0.0
C850 C 0.80231 0.78946 0.5399 0.0
C851 C 0.81242 0.78807 0.57333 0.0
C852 C 0.81214 0.7733 0.59406 0.0
C853 C 0.82176 0.77208 0.62548 0.0
C854 C 0.83162 0.78559 0.63659 0.0
C855 C 0.83183 0.80038 0.61636 0.0
C856 C 0.82224 0.80166 0.58489 0.0
C857 C 0.73542 0.82085 0.50399 0.0
C858 C 0.73797 0.83787 0.51207 0.0
C859 C 0.74893 0.80977 0.50245 0.0
C860 C 0.76535 0.81546 0.50843 0.0
C861 C 0.76798 0.83245 0.5165 0.0
C862 C 0.75442 0.84356 0.51826 0.0
C863 C 0.7796 0.80347 0.50729 0.0
C864 C 0.7901 0.8021 0.53758 0.0
C865 C 0.78199 0.79247 0.47778 0.0
C866 C 0.77231 0.79421 0.44375 0.0
C867 C 0.77169 0.80967 0.42553 0.0
C868 C 0.76248 0.81128 0.39363 0.0
C869 C 0.75391 0.7975 0.37953 0.0
C870 C 0.75456 0.78206 0.39728 0.0
C871 C 0.76374 0.78037 0.42921 0.0
H872 H 0.74678 0.79878 0.35483 0.0
H873 H 0.83905 0.78462 0.66093 0.0
H874 H 0.28155 0.81509 0.52141 0.0
H875 H 0.25843 0.79511 0.5188 0.0
H876 H 0.2229 0.8358 0.51995 0.0
H877 H 0.24601 0.85601 0.52244 0.0
H878 H 0.21396 0.80869 0.56529 0.0
H879 H 0.23043 0.8184 0.44292 0.0
H880 H 0.2505 0.82086 0.3926 0.0
H881 H 0.2644 0.76926 0.40594 0.0
H882 H 0.2446 0.76654 0.45673 0.0
H883 H 0.14616 0.75492 0.51783 0.0
H884 H 0.1661 0.77823 0.51713 0.0
H885 H 0.20685 0.74339 0.50226 0.0
H886 H 0.18705 0.72014 0.50199 0.0
H887 H 0.21144 0.76983 0.46102 0.0
H888 H 0.19708 0.76064 0.58605 0.0
H889 H 0.1779 0.75805 0.63793 0.0
H890 H 0.16067 0.80839 0.62067 0.0
H891 H 0.17961 0.8112 0.56837 0.0
C892 C 0.26883 0.81984 0.52145 0.0
C893 C 0.26564 0.83718 0.52193 0.0
C894 C 0.25563 0.80839 0.5198 0.0
C895 C 0.23898 0.814 0.5187 0.0
C896 C 0.23568 0.83124 0.52062 0.0
C897 C 0.2489 0.84275 0.522 0.0
C898 C 0.22512 0.80179 0.5146 0.0
C899 C 0.2132 0.80037 0.54223 0.0
C900 C 0.22435 0.79079 0.48473 0.0
C901 C 0.23612 0.79231 0.45385 0.0
C902 C 0.23785 0.8076 0.4353 0.0
C903 C 0.24917 0.80904 0.40667 0.0
C904 C 0.25875 0.79524 0.39613 0.0
C905 C 0.25698 0.77995 0.41415 0.0
C906 C 0.2457 0.77844 0.44284 0.0
C907 C 0.15936 0.75223 0.51418 0.0
C908 C 0.165 0.73563 0.51016 0.0
C909 C 0.17075 0.76557 0.51395 0.0
C910 C 0.18802 0.76255 0.51019 0.0
C911 C 0.1936 0.74604 0.50524 0.0
C912 C 0.18224 0.73274 0.50519 0.0
C913 C 0.20039 0.77645 0.5121 0.0
C914 C 0.21205 0.77823 0.48397 0.0
C915 C 0.20097 0.78772 0.5416 0.0
C916 C 0.18961 0.78606 0.57307 0.0
C917 C 0.18911 0.77111 0.59316 0.0
C918 C 0.1783 0.76961 0.62266 0.0
C919 C 0.16803 0.78303 0.63252 0.0
C920 C 0.1686 0.79799 0.61296 0.0
C921 C 0.17937 0.79955 0.5834 0.0
H922 H 0.15967 0.78184 0.65538 0.0
H923 H 0.26751 0.79639 0.37397 0.0
H924 H 0.27964 0.18452 0.50398 0.0
H925 H 0.25657 0.20448 0.5065 0.0
H926 H 0.22118 0.16381 0.51432 0.0
H927 H 0.24431 0.14357 0.512 0.0
H928 H 0.21131 0.19029 0.46627 0.0
H929 H 0.23001 0.18281 0.58808 0.0
H930 H 0.25095 0.18118 0.63689 0.0
H931 H 0.26525 0.23224 0.61706 0.0
H932 H 0.24456 0.23409 0.56773 0.0
H933 H 0.14569 0.24693 0.51431 0.0
H934 H 0.16493 0.22305 0.51486 0.0
H935 H 0.20692 0.25684 0.52404 0.0
H936 H 0.18783 0.28067 0.52447 0.0
H937 H 0.21139 0.23121 0.56695 0.0
H938 H 0.19515 0.23829 0.44244 0.0
H939 H 0.17523 0.24033 0.39174 0.0
H940 H 0.15716 0.19077 0.41475 0.0
H941 H 0.17685 0.18852 0.46591 0.0
C942 C 0.26697 0.17974 0.50591 0.0
C943 C 0.26385 0.16241 0.50803 0.0
C944 C 0.25379 0.1912 0.50746 0.0
C945 C 0.23721 0.18562 0.51106 0.0
C946 C 0.23392 0.16835 0.51168 0.0
C947 C 0.24715 0.15682 0.51041 0.0
C948 C 0.22349 0.19797 0.51533 0.0
C949 C 0.2111 0.19906 0.4886 0.0
C950 C 0.22346 0.20957 0.54415 0.0
C951 C 0.23582 0.20854 0.57401 0.0
C952 C 0.23771 0.19365 0.59394 0.0
C953 C 0.24952 0.19269 0.62173 0.0
C954 C 0.25944 0.20659 0.63002 0.0
C955 C 0.25755 0.22148 0.61059 0.0
C956 C 0.24578 0.2225 0.58274 0.0
C957 C 0.15902 0.24927 0.51668 0.0
C958 C 0.16521 0.26574 0.51922 0.0
C959 C 0.17001 0.2356 0.51679 0.0
C960 C 0.1874 0.23814 0.51896 0.0
C961 C 0.19356 0.25454 0.52232 0.0
C962 C 0.1826 0.26818 0.52249 0.0
C963 C 0.19933 0.22385 0.51742 0.0
C964 C 0.21141 0.22236 0.54477 0.0
C965 C 0.19915 0.21199 0.48899 0.0
C966 C 0.18733 0.21332 0.45825 0.0
C967 C 0.18684 0.22788 0.43686 0.0
C968 C 0.17561 0.22906 0.40802 0.0
C969 C 0.1649 0.21571 0.4001 0.0
C970 C 0.16544 0.20112 0.42096 0.0
C971 C 0.17663 0.19988 0.44987 0.0
H972 H 0.15622 0.21665 0.37775 0.0
H973 H 0.26858 0.20582 0.65155 0.0
H974 H 0.8282 0.27059 0.46534 0.0
H975 H 0.80862 0.24707 0.46673 0.0
H976 H 0.83586 0.22541 0.55596 0.0
H977 H 0.85602 0.24849 0.55333 0.0
H978 H 0.82515 0.20139 0.51695 0.0
H979 H 0.79918 0.24959 0.56785 0.0
H980 H 0.78967 0.27896 0.57066 0.0
H981 H 0.75817 0.27103 0.47831 0.0
H982 H 0.76765 0.24165 0.47468 0.0
H983 H 0.73175 0.17552 0.56352 0.0
H984 H 0.75527 0.19507 0.5656 0.0
H985 H 0.77925 0.16829 0.4786 0.0
H986 H 0.75615 0.14817 0.47788 0.0
H987 H 0.76486 0.21639 0.52126 0.0
H988 H 0.82093 0.17432 0.47719 0.0
H989 H 0.83068 0.14521 0.485 0.0
H990 H 0.80218 0.14096 0.58284 0.0
H991 H 0.79244 0.1701 0.57589 0.0
C992 C 0.83014 0.26068 0.48492 0.0
C993 C 0.84355 0.26144 0.50942 0.0
C994 C 0.81888 0.24729 0.48586 0.0
C995 C 0.82046 0.23466 0.51213 0.0
C996 C 0.8343 0.23501 0.53555 0.0
C997 C 0.84581 0.24822 0.53405 0.0
C998 C 0.80726 0.2216 0.51622 0.0
C999 C 0.81197 0.20466 0.51789 0.0
C1000 C 0.79005 0.22583 0.51863 0.0
C1001 C 0.78424 0.24347 0.52081 0.0
C1002 C 0.7903 0.25414 0.54801 0.0
C1003 C 0.78491 0.27078 0.54977 0.0
C1004 C 0.77336 0.27687 0.52463 0.0
C1005 C 0.76713 0.2663 0.49774 0.0
C1006 C 0.7725 0.24965 0.49584 0.0
C1007 C 0.74217 0.17367 0.54521 0.0
C1008 C 0.74214 0.16031 0.52058 0.0
C1009 C 0.7556 0.18489 0.54632 0.0
C1010 C 0.76916 0.18319 0.52239 0.0
C1011 C 0.76919 0.16972 0.49796 0.0
C1012 C 0.75592 0.15825 0.49742 0.0
C1013 C 0.78268 0.19607 0.52163 0.0
C1014 C 0.77803 0.21304 0.52045 0.0
C1015 C 0.79994 0.19186 0.52126 0.0
C1016 C 0.80583 0.17435 0.52579 0.0
C1017 C 0.81679 0.16719 0.50043 0.0
C1018 C 0.82231 0.15068 0.5047 0.0
C1019 C 0.81701 0.14122 0.53433 0.0
C1020 C 0.80623 0.14828 0.55982 0.0
C1021 C 0.80068 0.16478 0.5557 0.0
H1022 H 0.82129 0.12844 0.53757 0.0
H1023 H 0.7692 0.28976 0.52603 0.0
H1024 H 0.15781 0.3482 0.4239 0.0
H1025 H 0.16247 0.35824 0.36229 0.0
H1026 H 0.12222 0.32679 0.32426 0.0
H1027 H 0.11768 0.3165 0.38545 0.0
H1028 H 0.1491 0.32246 0.2842 0.0
H1029 H 0.11862 0.37009 0.32772 0.0
H1030 H 0.11226 0.39338 0.36916 0.0
H1031 H 0.16041 0.41523 0.34747 0.0
H1032 H 0.16715 0.39194 0.30625 0.0
H1033 H 0.1527 0.35132 0.10372 0.0
H1034 H 0.14185 0.34611 0.1645 0.0
H1035 H 0.1814 0.37646 0.20943 0.0
H1036 H 0.19208 0.38202 0.14901 0.0
H1037 H 0.15298 0.3818 0.24514 0.0
H1038 H 0.1844 0.33351 0.20628 0.0
H1039 H 0.19156 0.3101 0.16574 0.0
H1040 H 0.14231 0.28941 0.17989 0.0
H1041 H 0.13479 0.31284 0.22017 0.0
C1042 C 0.14978 0.34362 0.40251 0.0
C1043 C 0.13743 0.33148 0.40964 0.0
C1044 C 0.15243 0.34941 0.36727 0.0
C1045 C 0.14265 0.34332 0.33857 0.0
C1046 C 0.12996 0.33163 0.34588 0.0
C1047 C 0.12737 0.32578 0.38097 0.0
C1048 C 0.14635 0.34821 0.30063 0.0
C1049 C 0.14963 0.33545 0.27555 0.0
C1050 C 0.14749 0.36514 0.28945 0.0
C1051 C 0.14344 0.37919 0.31413 0.0
C1052 C 0.1279 0.3798 0.33199 0.0
C1053 C 0.12422 0.39301 0.35541 0.0
C1054 C 0.13594 0.40576 0.36101 0.0
C1055 C 0.15135 0.40534 0.34313 0.0
C1056 C 0.1551 0.39214 0.3197 0.0
C1057 C 0.15896 0.35706 0.12649 0.0
C1058 C 0.17336 0.36696 0.12142 0.0
C1059 C 0.15278 0.35401 0.16125 0.0
C1060 C 0.16098 0.36067 0.19162 0.0
C1061 C 0.17488 0.37116 0.18648 0.0
C1062 C 0.18101 0.37427 0.15182 0.0
C1063 C 0.15571 0.35605 0.22884 0.0
C1064 C 0.15223 0.36883 0.25377 0.0
C1065 C 0.15446 0.33912 0.24002 0.0
C1066 C 0.15898 0.32502 0.2159 0.0
C1067 C 0.17506 0.32404 0.20052 0.0
C1068 C 0.17919 0.31076 0.17763 0.0
C1069 C 0.16738 0.29831 0.17015 0.0
C1070 C 0.15143 0.29909 0.18565 0.0
C1071 C 0.14723 0.31235 0.20852 0.0
H1072 H 0.1706 0.28803 0.15243 0.0
H1073 H 0.13306 0.41597 0.37915 0.0
H1074 H 0.68885 0.11777 0.38625 0.0
H1075 H 0.67845 0.12358 0.32582 0.0
H1076 H 0.64639 0.16236 0.36796 0.0
H1077 H 0.65682 0.15666 0.42915 0.0
H1078 H 0.63113 0.14199 0.31305 0.0
H1079 H 0.68132 0.17409 0.3322 0.0
H1080 H 0.71082 0.17834 0.34977 0.0
H1081 H 0.72664 0.14395 0.26757 0.0
H1082 H 0.69719 0.13929 0.24987 0.0
H1083 H 0.61856 0.18769 0.15078 0.0
H1084 H 0.62433 0.17753 0.21144 0.0
H1085 H 0.66177 0.14385 0.16924 0.0
H1086 H 0.65627 0.15425 0.10812 0.0
H1087 H 0.67385 0.1609 0.22461 0.0
H1088 H 0.62398 0.12941 0.20347 0.0
H1089 H 0.59455 0.12471 0.18589 0.0
H1090 H 0.57807 0.15725 0.27093 0.0
H1091 H 0.60743 0.16234 0.28872 0.0
C1092 C 0.67945 0.12744 0.38296 0.0
C1093 C 0.67381 0.13687 0.41267 0.0
C1094 C 0.67354 0.13074 0.34826 0.0
C1095 C 0.66183 0.14354 0.34233 0.0
C1096 C 0.65547 0.15245 0.372 0.0
C1097 C 0.66146 0.14919 0.40692 0.0
C1098 C 0.6571 0.14814 0.30484 0.0
C1099 C 0.64039 0.14634 0.29377 0.0
C1100 C 0.66931 0.15337 0.2795 0.0
C1101 C 0.68704 0.15621 0.28996 0.0
C1102 C 0.69108 0.16732 0.31808 0.0
C1103 C 0.70779 0.16982 0.32802 0.0
C1104 C 0.7206 0.16139 0.30986 0.0
C1105 C 0.71671 0.15046 0.28165 0.0
C1106 C 0.70001 0.14789 0.27163 0.0
C1107 C 0.62789 0.17796 0.15419 0.0
C1108 C 0.637 0.17183 0.12445 0.0
C1109 C 0.63111 0.17208 0.18901 0.0
C1110 C 0.6434 0.15982 0.195 0.0
C1111 C 0.65221 0.15332 0.1653 0.0
C1112 C 0.64901 0.15922 0.13034 0.0
C1113 C 0.64782 0.15472 0.23247 0.0
C1114 C 0.66453 0.15648 0.24368 0.0
C1115 C 0.6356 0.14941 0.25781 0.0
C1116 C 0.61792 0.14637 0.24722 0.0
C1117 C 0.61409 0.13567 0.21824 0.0
C1118 C 0.59742 0.13292 0.20827 0.0
C1119 C 0.58445 0.14071 0.22722 0.0
C1120 C 0.58813 0.15124 0.25625 0.0
C1121 C 0.60478 0.15405 0.26631 0.0
H1122 H 0.57155 0.13856 0.21947 0.0
H1123 H 0.73353 0.16334 0.31759 0.0
H1124 H 0.84841 0.6542 0.42203 0.0
H1125 H 0.84361 0.64426 0.36042 0.0
H1126 H 0.88332 0.67629 0.32186 0.0
H1127 H 0.88803 0.68643 0.38303 0.0
H1128 H 0.85576 0.68062 0.28299 0.0
H1129 H 0.88753 0.63322 0.32442 0.0
H1130 H 0.89445 0.60977 0.36514 0.0
H1131 H 0.84658 0.58728 0.34384 0.0
H1132 H 0.83927 0.61072 0.30335 0.0
H1133 H 0.85204 0.65333 0.1017 0.0
H1134 H 0.863 0.65827 0.16249 0.0
H1135 H 0.82457 0.62633 0.20694 0.0
H1136 H 0.8138 0.62103 0.14653 0.0
H1137 H 0.85311 0.62153 0.24214 0.0
H1138 H 0.8202 0.66915 0.2058 0.0
H1139 H 0.81202 0.69268 0.16636 0.0
H1140 H 0.86069 0.71479 0.17972 0.0
H1141 H 0.86923 0.69126 0.2189 0.0
C1142 C 0.85631 0.65891 0.40054 0.0
C1143 C 0.86854 0.67119 0.4075 0.0
C1144 C 0.85358 0.65319 0.3653 0.0
C1145 C 0.86313 0.65951 0.33644 0.0
C1146 C 0.87574 0.67128 0.34361 0.0
C1147 C 0.87844 0.67704 0.37869 0.0
C1148 C 0.85924 0.65482 0.29851 0.0
C1149 C 0.85549 0.6677 0.27393 0.0
C1150 C 0.8584 0.63796 0.28686 0.0
C1151 C 0.8628 0.62381 0.31108 0.0
C1152 C 0.87843 0.62334 0.32863 0.0
C1153 C 0.88243 0.61004 0.35163 0.0
C1154 C 0.87095 0.59706 0.35714 0.0
C1155 C 0.85545 0.59735 0.33957 0.0
C1156 C 0.85138 0.61063 0.31656 0.0
C1157 C 0.84606 0.64718 0.12436 0.0
C1158 C 0.83194 0.63691 0.11918 0.0
C1159 C 0.85229 0.65008 0.15914 0.0
C1160 C 0.84443 0.6429 0.1894 0.0
C1161 C 0.83083 0.63204 0.1841 0.0
C1162 C 0.82465 0.62909 0.14943 0.0
C1163 C 0.8497 0.64733 0.22669 0.0
C1164 C 0.85359 0.63444 0.25116 0.0
C1165 C 0.85053 0.66419 0.23842 0.0
C1166 C 0.84542 0.67835 0.21493 0.0
C1167 C 0.8292 0.67896 0.2001 0.0
C1168 C 0.82449 0.69231 0.17783 0.0
C1169 C 0.83585 0.70519 0.17045 0.0
C1170 C 0.85192 0.70478 0.18541 0.0
C1171 C 0.8567 0.69145 0.20766 0.0
H1172 H 0.83218 0.71552 0.15321 0.0
H1173 H 0.87407 0.58677 0.37497 0.0
H1174 H 0.30744 0.88174 0.38344 0.0
H1175 H 0.31677 0.87667 0.32181 0.0
H1176 H 0.35831 0.84748 0.36168 0.0
H1177 H 0.34906 0.8525 0.42384 0.0
H1178 H 0.36711 0.86831 0.30384 0.0
H1179 H 0.32513 0.82754 0.33259 0.0
H1180 H 0.29766 0.81769 0.35453 0.0
H1181 H 0.27294 0.84577 0.2712 0.0
H1182 H 0.30027 0.856 0.24908 0.0
H1183 H 0.38453 0.82018 0.1472 0.0
H1184 H 0.37796 0.83087 0.20709 0.0
H1185 H 0.33539 0.85744 0.16378 0.0
H1186 H 0.34181 0.84662 0.10345 0.0
H1187 H 0.32709 0.83913 0.22291 0.0
H1188 H 0.36991 0.87867 0.19227 0.0
H1189 H 0.3977 0.88783 0.17087 0.0
H1190 H 0.42126 0.86122 0.25792 0.0
H1191 H 0.39361 0.85169 0.27958 0.0
C1192 C 0.31867 0.87437 0.37929 0.0
C1193 C 0.32742 0.86741 0.4087 0.0
C1194 C 0.32396 0.87146 0.34395 0.0
C1195 C 0.33809 0.86151 0.33714 0.0
C1196 C 0.34733 0.85516 0.36637 0.0
C1197 C 0.34201 0.85802 0.40186 0.0
C1198 C 0.34266 0.85713 0.29948 0.0
C1199 C 0.35846 0.86177 0.28622 0.0
C1200 C 0.3312 0.84889 0.27632 0.0
C1201 C 0.31474 0.84269 0.28942 0.0
C1202 C 0.31383 0.83173 0.31913 0.0
C1203 C 0.29829 0.82606 0.33157 0.0
C1204 C 0.28356 0.83114 0.31435 0.0
C1205 C 0.28436 0.84187 0.28456 0.0
C1206 C 0.29987 0.8476 0.27204 0.0
C1207 C 0.37388 0.82847 0.1502 0.0
C1208 C 0.36367 0.8325 0.12045 0.0
C1209 C 0.37019 0.83464 0.18453 0.0
C1210 C 0.35624 0.84504 0.18996 0.0
C1211 C 0.34624 0.84945 0.1602 0.0
C1212 C 0.34997 0.84333 0.12571 0.0
C1213 C 0.35157 0.85036 0.22706 0.0
C1214 C 0.33573 0.8458 0.24034 0.0
C1215 C 0.36304 0.85859 0.25024 0.0
C1216 C 0.37969 0.86435 0.23737 0.0
C1217 C 0.38102 0.87466 0.2067 0.0
C1218 C 0.39675 0.87994 0.19455 0.0
C1219 C 0.41124 0.87508 0.21297 0.0
C1220 C 0.41002 0.86496 0.24366 0.0
C1221 C 0.39433 0.85963 0.25591 0.0
H1222 H 0.4234 0.87918 0.20352 0.0
H1223 H 0.27154 0.82673 0.32403 0.0
H1224 H 0.15641 0.65293 0.60445 0.0
H1225 H 0.16119 0.64316 0.6663 0.0
H1226 H 0.12152 0.67535 0.7042 0.0
H1227 H 0.1168 0.68528 0.64285 0.0
H1228 H 0.14911 0.67971 0.74315 0.0
H1229 H 0.11706 0.63248 0.70251 0.0
H1230 H 0.10991 0.60898 0.66223 0.0
H1231 H 0.1576 0.58614 0.68385 0.0
H1232 H 0.16513 0.60963 0.7239 0.0
H1233 H 0.15366 0.65256 0.92516 0.0
H1234 H 0.14242 0.65779 0.86465 0.0
H1235 H 0.17991 0.62511 0.81917 0.0
H1236 H 0.19088 0.61949 0.87921 0.0
H1237 H 0.15143 0.62069 0.7849 0.0
H1238 H 0.18461 0.66835 0.8204 0.0
H1239 H 0.19284 0.69195 0.85947 0.0
H1240 H 0.14417 0.71405 0.84597 0.0
H1241 H 0.13558 0.69045 0.80718 0.0
C1242 C 0.14852 0.65772 0.62586 0.0
C1243 C 0.13629 0.66996 0.61864 0.0
C1244 C 0.15125 0.6521 0.66124 0.0
C1245 C 0.1417 0.65851 0.68997 0.0
C1246 C 0.1291 0.67027 0.68256 0.0
C1247 C 0.1264 0.67591 0.64736 0.0
C1248 C 0.14553 0.6539 0.72801 0.0
C1249 C 0.14932 0.6668 0.75241 0.0
C1250 C 0.14624 0.63706 0.73994 0.0
C1251 C 0.14171 0.62289 0.71596 0.0
C1252 C 0.12608 0.62251 0.69846 0.0
C1253 C 0.12194 0.60918 0.67571 0.0
C1254 C 0.13331 0.59609 0.67042 0.0
C1255 C 0.14881 0.59629 0.68794 0.0
C1256 C 0.15301 0.6096 0.7107 0.0
C1257 C 0.15937 0.64633 0.90232 0.0
C1258 C 0.17328 0.63572 0.90712 0.0
C1259 C 0.15299 0.64939 0.8677 0.0
C1260 C 0.16049 0.64206 0.83721 0.0
C1261 C 0.1739 0.63094 0.84217 0.0
C1262 C 0.18021 0.6278 0.87665 0.0
C1263 C 0.15503 0.6465 0.79997 0.0
C1264 C 0.15103 0.63359 0.7757 0.0
C1265 C 0.15425 0.66334 0.78799 0.0
C1266 C 0.1594 0.67754 0.81125 0.0
C1267 C 0.17563 0.67818 0.826 0.0
C1268 C 0.18036 0.69156 0.84805 0.0
C1269 C 0.16902 0.70447 0.85529 0.0
C1270 C 0.15293 0.70403 0.8404 0.0
C1271 C 0.14813 0.69066 0.81837 0.0
H1272 H 0.1727 0.71482 0.87236 0.0
H1273 H 0.13009 0.58578 0.65279 0.0
H1274 H 0.34643 0.15193 0.60527 0.0
H1275 H 0.35627 0.15627 0.66711 0.0
H1276 H 0.3205 0.11988 0.70564 0.0
H1277 H 0.31046 0.11564 0.64421 0.0
H1278 H 0.31875 0.14788 0.74409 0.0
H1279 H 0.36278 0.11143 0.70419 0.0
H1280 H 0.38549 0.10191 0.66403 0.0
H1281 H 0.41271 0.14735 0.68422 0.0
H1282 H 0.39006 0.15725 0.72414 0.0
H1283 H 0.34628 0.15067 0.92557 0.0
H1284 H 0.34036 0.13949 0.86538 0.0
H1285 H 0.37564 0.17435 0.81902 0.0
H1286 H 0.38188 0.1853 0.87881 0.0
H1287 H 0.3778 0.14505 0.78553 0.0
H1288 H 0.33339 0.18261 0.82023 0.0
H1289 H 0.31069 0.19316 0.85923 0.0
H1290 H 0.28422 0.14665 0.84733 0.0
H1291 H 0.30689 0.13574 0.80862 0.0
C1292 C 0.34081 0.14469 0.62683 0.0
C1293 C 0.3276 0.13349 0.61972 0.0
C1294 C 0.34649 0.14714 0.66219 0.0
C1295 C 0.33917 0.13835 0.69106 0.0
C1296 C 0.32631 0.12684 0.68386 0.0
C1297 C 0.32061 0.12441 0.64863 0.0
C1298 C 0.34412 0.14187 0.72898 0.0
C1299 C 0.33163 0.14695 0.75329 0.0
C1300 C 0.36097 0.14109 0.74081 0.0
C1301 C 0.37465 0.13514 0.71692 0.0
C1302 C 0.37355 0.11945 0.69986 0.0
C1303 C 0.38642 0.11397 0.67718 0.0
C1304 C 0.40052 0.12403 0.67152 0.0
C1305 C 0.40178 0.13957 0.68861 0.0
C1306 C 0.38894 0.14512 0.71129 0.0
C1307 C 0.35295 0.15579 0.90263 0.0
C1308 C 0.36443 0.169 0.90706 0.0
C1309 C 0.34949 0.14944 0.8682 0.0
C1310 C 0.35735 0.15628 0.83757 0.0
C1311 C 0.36939 0.16889 0.84217 0.0
C1312 C 0.37289 0.17519 0.87648 0.0
C1313 C 0.35242 0.15106 0.80055 0.0
C1314 C 0.3649 0.14576 0.77638 0.0
C1315 C 0.33557 0.15175 0.78869 0.0
C1316 C 0.32192 0.15829 0.81189 0.0
C1317 C 0.32279 0.17459 0.82616 0.0
C1318 C 0.30992 0.18064 0.84818 0.0
C1319 C 0.29605 0.17056 0.85585 0.0
C1320 C 0.29499 0.15443 0.84143 0.0
C1321 C 0.30784 0.14831 0.81944 0.0
H1322 H 0.2861 0.17527 0.87289 0.0
H1323 H 0.41047 0.11977 0.65394 0.0
H1324 H 0.8468 0.35094 0.9183 0.0
H1325 H 0.85654 0.34567 0.85655 0.0
H1326 H 0.81682 0.37681 0.81488 0.0
H1327 H 0.80707 0.38218 0.87603 0.0
H1328 H 0.81825 0.34633 0.78118 0.0
H1329 H 0.85617 0.3907 0.81296 0.0
H1330 H 0.8775 0.40484 0.85021 0.0
H1331 H 0.91143 0.36381 0.83362 0.0
H1332 H 0.8902 0.34931 0.79667 0.0
H1333 H 0.84272 0.34546 0.59766 0.0
H1334 H 0.83603 0.35614 0.65793 0.0
H1335 H 0.87758 0.3284 0.70243 0.0
H1336 H 0.88451 0.31795 0.64256 0.0
H1337 H 0.8753 0.35814 0.73442 0.0
H1338 H 0.83778 0.313 0.70634 0.0
H1339 H 0.81675 0.29778 0.67028 0.0
H1340 H 0.78237 0.33883 0.68162 0.0
H1341 H 0.80331 0.35441 0.71735 0.0
C1342 C 0.84026 0.35682 0.89602 0.0
C1343 C 0.82612 0.36695 0.90224 0.0
C1344 C 0.84586 0.35382 0.86074 0.0
C1345 C 0.8374 0.36086 0.83109 0.0
C1346 C 0.82351 0.37121 0.83731 0.0
C1347 C 0.818 0.3743 0.87241 0.0
C1348 C 0.84244 0.35687 0.79346 0.0
C1349 C 0.83065 0.34915 0.77079 0.0
C1350 C 0.85874 0.36015 0.78018 0.0
C1351 C 0.87153 0.36885 0.80235 0.0
C1352 C 0.86812 0.38463 0.81752 0.0
C1353 C 0.88021 0.39272 0.83852 0.0
C1354 C 0.8958 0.38521 0.84436 0.0
C1355 C 0.89934 0.36961 0.82912 0.0
C1356 C 0.88729 0.36145 0.80812 0.0
C1357 C 0.85058 0.34184 0.62018 0.0
C1358 C 0.86406 0.33072 0.61524 0.0
C1359 C 0.84669 0.34788 0.65467 0.0
C1360 C 0.85614 0.34285 0.68485 0.0
C1361 C 0.87007 0.33243 0.67965 0.0
C1362 C 0.87397 0.3264 0.6453 0.0
C1363 C 0.85108 0.34766 0.72208 0.0
C1364 C 0.86287 0.35544 0.74473 0.0
C1365 C 0.83481 0.34429 0.73553 0.0
C1366 C 0.82218 0.33495 0.71415 0.0
C1367 C 0.82579 0.31884 0.70089 0.0
C1368 C 0.81388 0.31014 0.68056 0.0
C1369 C 0.79825 0.31736 0.67357 0.0
C1370 C 0.79449 0.33327 0.687 0.0
C1371 C 0.80637 0.34204 0.7073 0.0
H1372 H 0.78905 0.3106 0.65783 0.0
H1373 H 0.90514 0.3915 0.86062 0.0
H1374 H 0.61615 0.81213 0.88312 0.0
H1375 H 0.62076 0.82155 0.82133 0.0
H1376 H 0.65656 0.85803 0.85899 0.0
H1377 H 0.65189 0.84879 0.92128 0.0
H1378 H 0.6369 0.87051 0.80423 0.0
H1379 H 0.67001 0.82124 0.82638 0.0
H1380 H 0.67491 0.79203 0.84544 0.0
H1381 H 0.64105 0.77459 0.76366 0.0
H1382 H 0.63575 0.80373 0.74444 0.0
H1383 H 0.68553 0.88225 0.6464 0.0
H1384 H 0.67416 0.87661 0.70611 0.0
H1385 H 0.64107 0.83936 0.66112 0.0
H1386 H 0.65264 0.84474 0.60095 0.0
H1387 H 0.65731 0.82736 0.71858 0.0
H1388 H 0.62594 0.87697 0.69331 0.0
H1389 H 0.62158 0.90627 0.6744 0.0
H1390 H 0.65262 0.92329 0.76161 0.0
H1391 H 0.65737 0.89406 0.78077 0.0
C1392 C 0.62488 0.82229 0.87844 0.0
C1393 C 0.63379 0.82958 0.90722 0.0
C1394 C 0.62753 0.82763 0.84301 0.0
C1395 C 0.63923 0.84028 0.83545 0.0
C1396 C 0.64752 0.84819 0.8642 0.0
C1397 C 0.64485 0.84288 0.89979 0.0
C1398 C 0.64345 0.84455 0.79747 0.0
C1399 C 0.64151 0.86113 0.78555 0.0
C1400 C 0.6491 0.83222 0.77287 0.0
C1401 C 0.65235 0.81468 0.78423 0.0
C1402 C 0.66351 0.81118 0.81265 0.0
C1403 C 0.66637 0.79464 0.82345 0.0
C1404 C 0.65826 0.78147 0.80584 0.0
C1405 C 0.6473 0.78481 0.77731 0.0
C1406 C 0.64437 0.80134 0.76644 0.0
C1407 C 0.67568 0.87299 0.64898 0.0
C1408 C 0.67004 0.86391 0.61877 0.0
C1409 C 0.66911 0.86985 0.68324 0.0
C1410 C 0.65664 0.85766 0.68816 0.0
C1411 C 0.65066 0.84885 0.65797 0.0
C1412 C 0.65724 0.85199 0.62356 0.0
C1413 C 0.65079 0.85337 0.72516 0.0
C1414 C 0.65251 0.83675 0.73702 0.0
C1415 C 0.64499 0.86569 0.74966 0.0
C1416 C 0.64211 0.8833 0.73831 0.0
C1417 C 0.63194 0.88695 0.7083 0.0
C1418 C 0.62938 0.90355 0.69757 0.0
C1419 C 0.63685 0.91663 0.71675 0.0
C1420 C 0.64685 0.91314 0.74677 0.0
C1421 C 0.64946 0.89656 0.75761 0.0
H1422 H 0.63485 0.92948 0.70838 0.0
H1423 H 0.6605 0.76867 0.81425 0.0
H1424 H 0.84142 0.64864 0.60361 0.0
H1425 H 0.83859 0.64041 0.66682 0.0
H1426 H 0.87634 0.67659 0.69651 0.0
H1427 H 0.87976 0.68429 0.63297 0.0
H1428 H 0.87981 0.65066 0.73758 0.0
H1429 H 0.83275 0.68443 0.70394 0.0
H1430 H 0.8082 0.69285 0.66779 0.0
H1431 H 0.78386 0.64631 0.69317 0.0
H1432 H 0.80838 0.63752 0.7291 0.0
H1433 H 0.85237 0.66458 0.91944 0.0
H1434 H 0.86006 0.66651 0.85569 0.0
H1435 H 0.82869 0.62392 0.83207 0.0
H1436 H 0.82102 0.62182 0.89594 0.0
H1437 H 0.82227 0.65166 0.78826 0.0
H1438 H 0.87005 0.61969 0.82719 0.0
H1439 H 0.89461 0.61355 0.86537 0.0
H1440 H 0.91753 0.65979 0.83246 0.0
H1441 H 0.89299 0.66633 0.79446 0.0
C1442 C 0.84929 0.65468 0.62355 0.0
C1443 C 0.86073 0.6672 0.61331 0.0
C1444 C 0.84758 0.65005 0.65978 0.0
C1445 C 0.85692 0.65818 0.68676 0.0
C1446 C 0.86891 0.67016 0.67636 0.0
C1447 C 0.87086 0.67457 0.63998 0.0
C1448 C 0.85367 0.65471 0.72575 0.0
C1449 C 0.86723 0.65104 0.74866 0.0
C1450 C 0.83725 0.65499 0.74043 0.0
C1451 C 0.82248 0.66025 0.71888 0.0
C1452 C 0.82221 0.67595 0.70159 0.0
C1453 C 0.8083 0.68079 0.68117 0.0
C1454 C 0.7945 0.6701 0.6781 0.0
C1455 C 0.79457 0.65456 0.69552 0.0
C1456 C 0.80847 0.64965 0.71593 0.0
C1457 C 0.84731 0.65544 0.90081 0.0
C1458 C 0.83606 0.64304 0.9128 0.0
C1459 C 0.85176 0.65654 0.86436 0.0
C1460 C 0.84499 0.64533 0.83909 0.0
C1461 C 0.83408 0.63269 0.85111 0.0
C1462 C 0.82977 0.63146 0.88765 0.0
C1463 C 0.84837 0.64757 0.7999 0.0
C1464 C 0.83482 0.65112 0.77703 0.0
C1465 C 0.86481 0.64751 0.78551 0.0
C1466 C 0.87961 0.64356 0.80821 0.0
C1467 C 0.88026 0.62862 0.82832 0.0
C1468 C 0.89419 0.62505 0.84988 0.0
C1469 C 0.9076 0.63629 0.8514 0.0
C1470 C 0.90713 0.6511 0.83128 0.0
C1471 C 0.89322 0.65473 0.80969 0.0
H1472 H 0.91838 0.63351 0.86812 0.0
H1473 H 0.78373 0.67388 0.66228 0.0
H1474 H 0.31887 0.87945 0.6352 0.0
H1475 H 0.32716 0.87659 0.69835 0.0
H1476 H 0.36354 0.83906 0.66856 0.0
H1477 H 0.35471 0.84134 0.6056 0.0
H1478 H 0.34748 0.82816 0.72259 0.0
H1479 H 0.37409 0.88061 0.69875 0.0
H1480 H 0.37625 0.90987 0.67777 0.0
H1481 H 0.33924 0.92486 0.75537 0.0
H1482 H 0.33669 0.89565 0.77651 0.0
H1483 H 0.38284 0.82276 0.89814 0.0
H1484 H 0.38069 0.83059 0.83433 0.0
H1485 H 0.33612 0.85919 0.85719 0.0
H1486 H 0.33805 0.85129 0.92088 0.0
H1487 H 0.35842 0.87507 0.80702 0.0
H1488 H 0.33102 0.82176 0.82699 0.0
H1489 H 0.32968 0.79247 0.84807 0.0
H1490 H 0.36994 0.77931 0.77666 0.0
H1491 H 0.37168 0.8086 0.75554 0.0
C1492 C 0.32883 0.87079 0.64203 0.0
C1493 C 0.33612 0.86062 0.61536 0.0
C1494 C 0.33364 0.86921 0.67823 0.0
C1495 C 0.34614 0.85771 0.68847 0.0
C1496 C 0.35384 0.84798 0.66156 0.0
C1497 C 0.34883 0.84935 0.62548 0.0
C1498 C 0.35035 0.85494 0.72733 0.0
C1499 C 0.35021 0.83845 0.74074 0.0
C1500 C 0.35357 0.86832 0.75156 0.0
C1501 C 0.3551 0.88591 0.739 0.0
C1502 C 0.36632 0.89013 0.71117 0.0
C1503 C 0.36763 0.90671 0.69928 0.0
C1504 C 0.35786 0.91921 0.71517 0.0
C1505 C 0.34679 0.91516 0.74306 0.0
C1506 C 0.34543 0.8986 0.75504 0.0
C1507 C 0.37275 0.83096 0.88972 0.0
C1508 C 0.36056 0.83632 0.91457 0.0
C1509 C 0.37151 0.83538 0.85322 0.0
C1510 C 0.35816 0.84537 0.84097 0.0
C1511 C 0.34651 0.85148 0.86605 0.0
C1512 C 0.34762 0.8469 0.90244 0.0
C1513 C 0.35559 0.84839 0.80175 0.0
C1514 C 0.35592 0.86486 0.78849 0.0
C1515 C 0.35272 0.83503 0.7775 0.0
C1516 C 0.35161 0.8174 0.79001 0.0
C1517 C 0.33969 0.81265 0.81602 0.0
C1518 C 0.33884 0.79605 0.82793 0.0
C1519 C 0.34976 0.78405 0.8138 0.0
C1520 C 0.36152 0.78862 0.78764 0.0
C1521 C 0.36243 0.80522 0.77568 0.0
H1522 H 0.34908 0.7712 0.82304 0.0
H1523 H 0.35889 0.93204 0.70592 0.0
H1524 H 0.12449 0.32203 0.63446 0.0
H1525 H 0.12749 0.33029 0.6976 0.0
H1526 H 0.16903 0.36232 0.66907 0.0
H1527 H 0.16648 0.35357 0.60618 0.0
H1528 H 0.17747 0.34515 0.72417 0.0
H1529 H 0.12884 0.37754 0.69614 0.0
H1530 H 0.10032 0.38295 0.67329 0.0
H1531 H 0.08006 0.34864 0.75123 0.0
H1532 H 0.10849 0.34286 0.77425 0.0
H1533 H 0.18473 0.38213 0.89757 0.0
H1534 H 0.17744 0.37987 0.83354 0.0
H1535 H 0.14386 0.33906 0.85774 0.0
H1536 H 0.15122 0.34109 0.92172 0.0
H1537 H 0.13112 0.36241 0.8052 0.0
H1538 H 0.18054 0.32927 0.82993 0.0
H1539 H 0.20919 0.32474 0.85294 0.0
H1540 H 0.22799 0.36218 0.78013 0.0
H1541 H 0.19938 0.3671 0.75706 0.0
C1542 C 0.13409 0.33103 0.64155 0.0
C1543 C 0.14525 0.33713 0.61527 0.0
C1544 C 0.13577 0.33582 0.67773 0.0
C1545 C 0.14842 0.34708 0.68831 0.0
C1546 C 0.1592 0.35358 0.66179 0.0
C1547 C 0.15769 0.34862 0.62574 0.0
C1548 C 0.15116 0.3512 0.72718 0.0
C1549 C 0.16734 0.34924 0.74158 0.0
C1550 C 0.13795 0.35619 0.75042 0.0
C1551 C 0.12082 0.35966 0.7367 0.0
C1552 C 0.11832 0.37106 0.70823 0.0
C1553 C 0.10216 0.37421 0.69528 0.0
C1554 C 0.08839 0.36611 0.71074 0.0
C1555 C 0.09074 0.35489 0.73926 0.0
C1556 C 0.10687 0.35168 0.75229 0.0
C1557 C 0.17557 0.37286 0.88938 0.0
C1558 C 0.16862 0.36173 0.91473 0.0
C1559 C 0.17146 0.37156 0.85275 0.0
C1560 C 0.1602 0.35921 0.84085 0.0
C1561 C 0.15256 0.34868 0.86634 0.0
C1562 C 0.15683 0.34983 0.90289 0.0
C1563 C 0.15735 0.35642 0.80168 0.0
C1564 C 0.14119 0.35852 0.78743 0.0
C1565 C 0.17059 0.35172 0.77842 0.0
C1566 C 0.1878 0.34869 0.79207 0.0
C1567 C 0.19076 0.33664 0.81905 0.0
C1568 C 0.207 0.33398 0.83206 0.0
C1569 C 0.2204 0.3432 0.81808 0.0
C1570 C 0.21759 0.35507 0.79098 0.0
C1571 C 0.20137 0.35779 0.77792 0.0
H1572 H 0.23296 0.34113 0.82819 0.0
H1573 H 0.07589 0.36857 0.70068 0.0
H1574 H 0.62037 0.17295 0.90326 0.0
H1575 H 0.62392 0.16494 0.83984 0.0
H1576 H 0.67554 0.15218 0.86064 0.0
H1577 H 0.67212 0.16011 0.92377 0.0
H1578 H 0.67267 0.17259 0.80293 0.0
H1579 H 0.6472 0.12181 0.84521 0.0
H1580 H 0.62553 0.10471 0.87518 0.0
H1581 H 0.58879 0.12205 0.79916 0.0
H1582 H 0.6102 0.13944 0.76902 0.0
H1583 H 0.67512 0.11801 0.63234 0.0
H1584 H 0.66762 0.12088 0.69624 0.0
H1585 H 0.6548 0.1727 0.67845 0.0
H1586 H 0.66222 0.16998 0.61484 0.0
H1587 H 0.63873 0.13113 0.73505 0.0
H1588 H 0.6718 0.19505 0.7482 0.0
H1589 H 0.6945 0.21106 0.71888 0.0
H1590 H 0.71814 0.16518 0.68629 0.0
H1591 H 0.69573 0.14891 0.71587 0.0
C1592 C 0.6324 0.1682 0.89444 0.0
C1593 C 0.64597 0.16721 0.91864 0.0
C1594 C 0.63441 0.1636 0.85817 0.0
C1595 C 0.65001 0.15795 0.84542 0.0
C1596 C 0.66341 0.15655 0.86978 0.0
C1597 C 0.6614 0.16104 0.90596 0.0
C1598 C 0.65274 0.15444 0.8064 0.0
C1599 C 0.66521 0.16353 0.78817 0.0
C1600 C 0.64315 0.14252 0.78706 0.0
C1601 C 0.63027 0.13206 0.80508 0.0
C1602 C 0.63447 0.12209 0.83507 0.0
C1603 C 0.62224 0.11232 0.85205 0.0
C1604 C 0.60578 0.11233 0.83914 0.0
C1605 C 0.60153 0.12208 0.80916 0.0
C1606 C 0.61371 0.13188 0.79209 0.0
C1607 C 0.67043 0.12994 0.6419 0.0
C1608 C 0.6694 0.14379 0.61847 0.0
C1609 C 0.66612 0.13154 0.67842 0.0
C1610 C 0.66084 0.14706 0.69221 0.0
C1611 C 0.65901 0.16066 0.6685 0.0
C1612 C 0.66323 0.15906 0.63206 0.0
C1613 C 0.65847 0.14946 0.7317 0.0
C1614 C 0.64611 0.14021 0.74992 0.0
C1615 C 0.66827 0.16113 0.75124 0.0
C1616 C 0.68199 0.17078 0.73393 0.0
C1617 C 0.68188 0.18838 0.73491 0.0
C1618 C 0.69469 0.1975 0.71823 0.0
C1619 C 0.70772 0.18914 0.70063 0.0
C1620 C 0.70801 0.17164 0.69981 0.0
C1621 C 0.69524 0.16247 0.7165 0.0
H1622 H 0.71761 0.19622 0.6877 0.0
H1623 H 0.59634 0.10476 0.85232 0.0
H1624 H 0.83043 0.33623 0.40977 0.0
H1625 H 0.82787 0.34394 0.34643 0.0
H1626 H 0.88171 0.34292 0.33555 0.0
H1627 H 0.8843 0.33443 0.39888 0.0
H1628 H 0.83581 0.36787 0.30514 0.0
H1629 H 0.89278 0.3305 0.25156 0.0
H1630 H 0.90948 0.30553 0.26754 0.0
H1631 H 0.86743 0.28495 0.32474 0.0
H1632 H 0.85044 0.30968 0.30873 0.0
H1633 H 0.83724 0.38466 0.11688 0.0
H1634 H 0.84607 0.38193 0.17999 0.0
H1635 H 0.83902 0.32837 0.17371 0.0
H1636 H 0.83137 0.33098 0.11041 0.0
H1637 H 0.86363 0.33256 0.21292 0.0
H1638 H 0.80903 0.35827 0.21242 0.0
H1639 H 0.78795 0.37969 0.19671 0.0
H1640 H 0.81774 0.41753 0.2483 0.0
H1641 H 0.8391 0.39635 0.26395 0.0
C1642 C 0.84177 0.33777 0.39405 0.0
C1643 C 0.85757 0.33457 0.40939 0.0
C1644 C 0.84028 0.34225 0.35771 0.0
C1645 C 0.85456 0.3438 0.33578 0.0
C1646 C 0.87045 0.34145 0.35154 0.0
C1647 C 0.87193 0.3367 0.38786 0.0
C1648 C 0.8526 0.34714 0.29629 0.0
C1649 C 0.84198 0.36019 0.28501 0.0
C1650 C 0.86035 0.33699 0.26974 0.0
C1651 C 0.87044 0.32204 0.27935 0.0
C1652 C 0.88711 0.32063 0.2675 0.0
C1653 C 0.89662 0.30652 0.27656 0.0
C1654 C 0.88954 0.29369 0.29727 0.0
C1655 C 0.87292 0.29492 0.30884 0.0
C1656 C 0.86336 0.30899 0.29981 0.0
C1657 C 0.83781 0.37231 0.12894 0.0
C1658 C 0.8336 0.35804 0.10866 0.0
C1659 C 0.84272 0.37074 0.16516 0.0
C1660 C 0.84291 0.35495 0.18221 0.0
C1661 C 0.83908 0.34071 0.16151 0.0
C1662 C 0.83464 0.34222 0.12518 0.0
C1663 C 0.84655 0.3531 0.22166 0.0
C1664 C 0.85757 0.34038 0.23298 0.0
C1665 C 0.83855 0.36304 0.24828 0.0
C1666 C 0.82573 0.37578 0.23897 0.0
C1667 C 0.81112 0.37118 0.2202 0.0
C1668 C 0.79913 0.38327 0.21134 0.0
C1669 C 0.80153 0.39997 0.2214 0.0
C1670 C 0.81592 0.4046 0.24045 0.0
C1671 C 0.82797 0.39256 0.24934 0.0
H1672 H 0.79223 0.40931 0.21451 0.0
H1673 H 0.89692 0.28279 0.30427 0.0
H1674 H 0.66004 0.8562 0.10334 0.0
H1675 H 0.66303 0.86446 0.16647 0.0
H1676 H 0.6269 0.82684 0.19737 0.0
H1677 H 0.62329 0.81911 0.13399 0.0
H1678 H 0.62282 0.85232 0.23883 0.0
H1679 H 0.671 0.82071 0.20264 0.0
H1680 H 0.69559 0.8136 0.16538 0.0
H1681 H 0.71808 0.861 0.19097 0.0
H1682 H 0.6935 0.86848 0.22803 0.0
H1683 H 0.65208 0.83739 0.41879 0.0
H1684 H 0.64411 0.83595 0.35516 0.0
H1685 H 0.67354 0.88009 0.33308 0.0
H1686 H 0.68149 0.88171 0.39689 0.0
H1687 H 0.68075 0.8532 0.28743 0.0
H1688 H 0.63206 0.88274 0.32949 0.0
H1689 H 0.60759 0.88746 0.3688 0.0
H1690 H 0.58626 0.84073 0.33451 0.0
H1691 H 0.61072 0.83561 0.29536 0.0
C1692 C 0.65254 0.84987 0.12353 0.0
C1693 C 0.64151 0.83692 0.11368 0.0
C1694 C 0.65435 0.85451 0.15972 0.0
C1695 C 0.64555 0.84598 0.187 0.0
C1696 C 0.63392 0.83358 0.17698 0.0
C1697 C 0.63186 0.82916 0.14068 0.0
C1698 C 0.649 0.84942 0.22592 0.0
C1699 C 0.63549 0.85236 0.24944 0.0
C1700 C 0.66554 0.8497 0.24 0.0
C1701 C 0.68033 0.84523 0.21777 0.0
C1702 C 0.68113 0.82967 0.20011 0.0
C1703 C 0.69508 0.82556 0.17906 0.0
C1704 C 0.70836 0.83686 0.17573 0.0
C1705 C 0.70776 0.85227 0.19352 0.0
C1706 C 0.69383 0.85645 0.21457 0.0
C1707 C 0.65666 0.84696 0.40053 0.0
C1708 C 0.66743 0.85967 0.41294 0.0
C1709 C 0.65205 0.84613 0.36415 0.0
C1710 C 0.65819 0.85794 0.33934 0.0
C1711 C 0.66864 0.87087 0.35177 0.0
C1712 C 0.67311 0.87182 0.38827 0.0
C1713 C 0.6546 0.85608 0.30015 0.0
C1714 C 0.6681 0.85334 0.27666 0.0
C1715 C 0.63807 0.85563 0.28633 0.0
C1716 C 0.6233 0.85873 0.30971 0.0
C1717 C 0.62222 0.87341 0.33054 0.0
C1718 C 0.60834 0.87617 0.35276 0.0
C1719 C 0.5954 0.86439 0.35421 0.0
C1720 C 0.5963 0.84984 0.33338 0.0
C1721 C 0.61016 0.84701 0.31114 0.0
H1722 H 0.58466 0.86655 0.37143 0.0
H1723 H 0.71915 0.83366 0.15942 0.0
H1724 H 0.16404 0.64736 0.42241 0.0
H1725 H 0.16689 0.63893 0.3594 0.0
H1726 H 0.12704 0.67281 0.32977 0.0
H1727 H 0.12368 0.68077 0.39315 0.0
H1728 H 0.12479 0.64625 0.28963 0.0
H1729 H 0.16969 0.68319 0.3205 0.0
H1730 H 0.19384 0.69354 0.35551 0.0
H1731 H 0.22111 0.64856 0.3313 0.0
H1732 H 0.19702 0.63783 0.29652 0.0
H1733 H 0.15137 0.66087 0.10662 0.0
H1734 H 0.14357 0.66277 0.17036 0.0
H1735 H 0.17625 0.62128 0.19496 0.0
H1736 H 0.18394 0.61914 0.1311 0.0
H1737 H 0.18186 0.6504 0.23726 0.0
H1738 H 0.13601 0.61513 0.20127 0.0
H1739 H 0.11168 0.60706 0.16412 0.0
H1740 H 0.08605 0.65207 0.19535 0.0
H1741 H 0.11033 0.66052 0.2323 0.0
C1742 C 0.15572 0.65285 0.40256 0.0
C1743 C 0.14371 0.66483 0.41277 0.0
C1744 C 0.15743 0.6481 0.36643 0.0
C1745 C 0.14749 0.65554 0.3395 0.0
C1746 C 0.13494 0.66693 0.3499 0.0
C1747 C 0.13303 0.67148 0.38619 0.0
C1748 C 0.15069 0.65202 0.30053 0.0
C1749 C 0.13725 0.64732 0.27818 0.0
C1750 C 0.16697 0.65323 0.28536 0.0
C1751 C 0.18149 0.65963 0.30624 0.0
C1752 C 0.18079 0.67545 0.32287 0.0
C1753 C 0.19448 0.68139 0.34264 0.0
C1754 C 0.20899 0.67169 0.34572 0.0
C1755 C 0.20985 0.65604 0.32895 0.0
C1756 C 0.19619 0.65003 0.30919 0.0
C1757 C 0.15667 0.65195 0.12547 0.0
C1758 C 0.16829 0.63985 0.11377 0.0
C1759 C 0.15217 0.65303 0.1619 0.0
C1760 C 0.15932 0.64216 0.18743 0.0
C1761 C 0.17057 0.62978 0.1757 0.0
C1762 C 0.17489 0.62852 0.13916 0.0
C1763 C 0.15601 0.64456 0.22659 0.0
C1764 C 0.16944 0.64918 0.24888 0.0
C1765 C 0.1397 0.64361 0.24142 0.0
C1766 C 0.12506 0.63853 0.21929 0.0
C1767 C 0.12525 0.62338 0.19997 0.0
C1768 C 0.11145 0.61872 0.179 0.0
C1769 C 0.09735 0.62906 0.17731 0.0
C1770 C 0.09699 0.64407 0.19666 0.0
C1771 C 0.11076 0.64879 0.21765 0.0
H1772 H 0.08668 0.62544 0.16106 0.0
H1773 H 0.21957 0.67631 0.36102 0.0
H1774 H 0.33623 0.17024 0.41341 0.0
H1775 H 0.34369 0.17255 0.34994 0.0
H1776 H 0.34466 0.11861 0.34137 0.0
H1777 H 0.33611 0.11629 0.40469 0.0
H1778 H 0.36729 0.16578 0.30887 0.0
H1779 H 0.33405 0.10591 0.2579 0.0
H1780 H 0.31034 0.08759 0.27449 0.0
H1781 H 0.2866 0.12856 0.32937 0.0
H1782 H 0.31007 0.14715 0.31275 0.0
H1783 H 0.38395 0.16384 0.12079 0.0
H1784 H 0.38185 0.15534 0.18422 0.0
H1785 H 0.32794 0.15916 0.17809 0.0
H1786 H 0.32997 0.1666 0.11457 0.0
H1787 H 0.33391 0.13486 0.21787 0.0
H1788 H 0.35541 0.19106 0.21525 0.0
H1789 H 0.37504 0.21367 0.19871 0.0
H1790 H 0.41522 0.18743 0.25123 0.0
H1791 H 0.39584 0.16456 0.26773 0.0
C1792 C 0.33815 0.15884 0.39812 0.0
C1793 C 0.33545 0.14307 0.41403 0.0
C1794 C 0.34248 0.16018 0.36171 0.0
C1795 C 0.3445 0.14578 0.34035 0.0
C1796 C 0.34274 0.12995 0.3568 0.0
C1797 C 0.33798 0.12862 0.39312 0.0
C1798 C 0.34772 0.14754 0.30078 0.0
C1799 C 0.36002 0.15894 0.28903 0.0
C1800 C 0.33813 0.13888 0.27454 0.0
C1801 C 0.32391 0.12784 0.28448 0.0
C1802 C 0.32375 0.111 0.27345 0.0
C1803 C 0.31036 0.10057 0.28286 0.0
C1804 C 0.297 0.10689 0.3031 0.0
C1805 C 0.29698 0.12366 0.31383 0.0
C1806 C 0.31033 0.13415 0.30446 0.0
C1807 C 0.37166 0.16264 0.13295 0.0
C1808 C 0.35713 0.16591 0.11268 0.0
C1809 C 0.37046 0.15791 0.16933 0.0
C1810 C 0.35473 0.15689 0.18644 0.0
C1811 C 0.34024 0.15977 0.16579 0.0
C1812 C 0.34142 0.16408 0.12934 0.0
C1813 C 0.35318 0.15342 0.22597 0.0
C1814 C 0.34129 0.1416 0.2377 0.0
C1815 C 0.36256 0.1623 0.2522 0.0
C1816 C 0.37423 0.17602 0.24233 0.0
C1817 C 0.36846 0.19006 0.22304 0.0
C1818 C 0.37953 0.20293 0.21371 0.0
C1819 C 0.39638 0.20196 0.22381 0.0
C1820 C 0.40218 0.18814 0.24336 0.0
C1821 C 0.39115 0.17523 0.25272 0.0
H1822 H 0.40493 0.21194 0.21656 0.0
H1823 H 0.28666 0.09879 0.31038 0.0
loop_
_geom_bond_atom_site_label_1
_geom_bond_atom_site_label_2
_geom_bond_distance
_geom_bond_site_symmetry_2
_ccdc_geom_bond_type
O0 Cd1 2.223 . S
O0 C8 1.315 . S
Cd1 O0 2.223 . S
Cd1 O4 2.297 . S
Cd1 O5 2.439 1_554 S
Cd1 O11 2.240 1_554 S
Cd2 O3 2.240 1_556 S
Cd2 O10 2.223 1_556 S
Cd2 O12 2.297 . S
Cd2 O13 2.439 . S
O3 Cd2 2.240 1_554 S
O3 C8 1.279 . S
O4 Cd1 2.297 . S
O4 C6 1.247 . S
O5 Cd1 2.439 1_556 S
O5 C6 1.208 1_556 S
C6 O4 1.247 . S
C6 O5 1.208 1_554 S
C7 O12 1.247 . S
C7 O13 1.208 . S
C8 O0 1.315 . S
C8 O3 1.279 . S
C9 O10 1.315 . S
C9 O11 1.279 1_554 S
O10 Cd2 2.223 1_554 S
O10 C9 1.315 . S
O11 Cd1 2.240 1_556 S
O11 C9 1.279 1_556 S
O12 Cd2 2.297 . S
O12 C7 1.247 . S
O13 Cd2 2.439 . S
O13 C7 1.208 . S
O14 Cd15 2.223 . S
O14 C22 1.315 . S
Cd15 O14 2.223 . S
Cd15 O18 2.297 . S
Cd15 O19 2.439 1_554 S
Cd15 O25 2.240 1_554 S
Cd16 O17 2.240 1_556 S
Cd16 O24 2.223 1_556 S
Cd16 O26 2.297 . S
Cd16 O27 2.439 . S
O17 Cd16 2.240 1_554 S
O17 C22 1.279 . S
O18 Cd15 2.297 . S
O18 C20 1.247 . S
O19 Cd15 2.439 1_556 S
O19 C20 1.208 1_556 S
C20 O18 1.247 . S
C20 O19 1.208 1_554 S
C21 O26 1.247 . S
C21 O27 1.208 . S
C22 O14 1.315 . S
C22 O17 1.279 . S
C23 O24 1.315 . S
C23 O25 1.279 1_554 S
O24 Cd16 2.223 1_554 S
O24 C23 1.315 . S
O25 Cd15 2.240 1_556 S
O25 C23 1.279 1_556 S
O26 Cd16 2.297 . S
O26 C21 1.247 . S
O27 Cd16 2.439 . S
O27 C21 1.208 . S
O28 Cd29 2.223 . S
O28 C36 1.315 . S
Cd29 O28 2.223 . S
Cd29 O32 2.297 . S
Cd29 O33 2.439 1_554 S
Cd29 O39 2.240 1_554 S
Cd30 O31 2.240 1_556 S
Cd30 O38 2.223 1_556 S
Cd30 O40 2.297 . S
Cd30 O41 2.439 . S
O31 Cd30 2.240 1_554 S
O31 C36 1.279 . S
O32 Cd29 2.297 . S
O32 C34 1.247 . S
O33 Cd29 2.439 1_556 S
O33 C34 1.208 1_556 S
C34 O32 1.247 . S
C34 O33 1.208 1_554 S
C35 O40 1.247 . S
C35 O41 1.208 . S
C36 O28 1.315 . S
C36 O31 1.279 . S
C37 O38 1.315 . S
C37 O39 1.279 1_554 S
O38 Cd30 2.223 1_554 S
O38 C37 1.315 . S
O39 Cd29 2.240 1_556 S
O39 C37 1.279 1_556 S
O40 Cd30 2.297 . S
O40 C35 1.247 . S
O41 Cd30 2.439 . S
O41 C35 1.208 . S
O42 Cd43 2.223 . S
O42 C50 1.315 . S
Cd43 O42 2.223 . S
Cd43 O46 2.297 . S
Cd43 O47 2.439 1_554 S
Cd43 O53 2.240 1_554 S
Cd44 O45 2.240 1_556 S
Cd44 O52 2.223 1_556 S
Cd44 O54 2.297 . S
Cd44 O55 2.439 . S
O45 Cd44 2.240 1_554 S
O45 C50 1.279 . S
O46 Cd43 2.297 . S
O46 C48 1.247 . S
O47 Cd43 2.439 1_556 S
O47 C48 1.208 1_556 S
C48 O46 1.247 . S
C48 O47 1.208 1_554 S
C49 O54 1.247 . S
C49 O55 1.208 . S
C50 O42 1.315 . S
C50 O45 1.279 . S
C51 O52 1.315 . S
C51 O53 1.279 1_554 S
O52 Cd44 2.223 1_554 S
O52 C51 1.315 . S
O53 Cd43 2.240 1_556 S
O53 C51 1.279 1_556 S
O54 Cd44 2.297 . S
O54 C49 1.247 . S
O55 Cd44 2.439 . S
O55 C49 1.208 . S
O56 Cd57 2.223 . S
O56 C64 1.315 . S
Cd57 O56 2.223 . S
Cd57 O60 2.297 . S
Cd57 O61 2.439 1_556 S
Cd57 O67 2.240 1_556 S
Cd58 O59 2.240 1_554 S
Cd58 O66 2.223 . S
Cd58 O68 2.297 . S
Cd58 O69 2.439 . S
O59 Cd58 2.240 1_556 S
O59 C64 1.279 . S
O60 Cd57 2.297 . S
O60 C62 1.247 . S
O61 Cd57 2.439 1_554 S
O61 C62 1.208 1_554 S
C62 O60 1.247 . S
C62 O61 1.208 1_556 S
C63 O68 1.247 . S
C63 O69 1.208 . S
C64 O56 1.315 . S
C64 O59 1.279 . S
C65 O66 1.315 . S
C65 O67 1.279 . S
O66 Cd58 2.223 . S
O66 C65 1.315 . S
O67 Cd57 2.240 1_554 S
O67 C65 1.279 . S
O68 Cd58 2.297 . S
O68 C63 1.247 . S
O69 Cd58 2.439 . S
O69 C63 1.208 . S
O70 Cd71 2.223 . S
O70 C78 1.315 . S
Cd71 O70 2.223 . S
Cd71 O74 2.297 . S
Cd71 O75 2.439 1_556 S
Cd71 O81 2.240 1_556 S
Cd72 O73 2.240 1_554 S
Cd72 O80 2.223 . S
Cd72 O82 2.297 . S
Cd72 O83 2.439 . S
O73 Cd72 2.240 1_556 S
O73 C78 1.279 . S
O74 Cd71 2.297 . S
O74 C76 1.247 . S
O75 Cd71 2.439 1_554 S
O75 C76 1.208 1_554 S
C76 O74 1.247 . S
C76 O75 1.208 1_556 S
C77 O82 1.247 . S
C77 O83 1.208 . S
C78 O70 1.315 . S
C78 O73 1.279 . S
C79 O80 1.315 . S
C79 O81 1.279 . S
O80 Cd72 2.223 . S
O80 C79 1.315 . S
O81 Cd71 2.240 1_554 S
O81 C79 1.279 . S
O82 Cd72 2.297 . S
O82 C77 1.247 . S
O83 Cd72 2.439 . S
O83 C77 1.208 . S
O84 Cd85 2.223 . S
O84 C92 1.315 . S
Cd85 O84 2.223 . S
Cd85 O88 2.297 . S
Cd85 O89 2.439 1_556 S
Cd85 O95 2.240 1_556 S
Cd86 O87 2.240 1_554 S
Cd86 O94 2.223 . S
Cd86 O96 2.297 . S
Cd86 O97 2.439 . S
O87 Cd86 2.240 1_556 S
O87 C92 1.279 . S
O88 Cd85 2.297 . S
O88 C90 1.247 . S
O89 Cd85 2.439 1_554 S
O89 C90 1.208 1_554 S
C90 O88 1.247 . S
C90 O89 1.208 1_556 S
C91 O96 1.247 . S
C91 O97 1.208 . S
C92 O84 1.315 . S
C92 O87 1.279 . S
C93 O94 1.315 . S
C93 O95 1.279 . S
O94 Cd86 2.223 . S
O94 C93 1.315 . S
O95 Cd85 2.240 1_554 S
O95 C93 1.279 . S
O96 Cd86 2.297 . S
O96 C91 1.247 . S
O97 Cd86 2.439 . S
O97 C91 1.208 . S
O98 Cd99 2.223 . S
O98 C106 1.315 . S
Cd99 O98 2.223 . S
Cd99 O102 2.297 . S
Cd99 O103 2.439 1_556 S
Cd99 O109 2.240 1_556 S
Cd100 O101 2.240 1_554 S
Cd100 O108 2.223 . S
Cd100 O110 2.297 . S
Cd100 O111 2.439 . S
O101 Cd100 2.240 1_556 S
O101 C106 1.279 . S
O102 Cd99 2.297 . S
O102 C104 1.247 . S
O103 Cd99 2.439 1_554 S
O103 C104 1.208 1_554 S
C104 O102 1.247 . S
C104 O103 1.208 1_556 S
C105 O110 1.247 . S
C105 O111 1.208 . S
C106 O98 1.315 . S
C106 O101 1.279 . S
C107 O108 1.315 . S
C107 O109 1.279 . S
O108 Cd100 2.223 . S
O108 C107 1.315 . S
O109 Cd99 2.240 1_554 S
O109 C107 1.279 . S
O110 Cd100 2.297 . S
O110 C105 1.247 . S
O111 Cd100 2.439 . S
O111 C105 1.208 . S
O112 Cd113 2.223 . S
O112 C120 1.315 . S
Cd113 O112 2.223 . S
Cd113 O116 2.297 . S
Cd113 O117 2.439 . S
Cd113 O123 2.240 . S
Cd114 O115 2.240 . S
Cd114 O122 2.223 . S
Cd114 O124 2.297 . S
Cd114 O125 2.439 . S
O115 Cd114 2.240 . S
O115 C120 1.279 . S
O116 Cd113 2.297 . S
O116 C118 1.247 . S
O117 Cd113 2.439 . S
O117 C118 1.208 . S
C118 O116 1.247 . S
C118 O117 1.208 . S
C119 O124 1.247 . S
C119 O125 1.208 . S
C120 O112 1.315 . S
C120 O115 1.279 . S
C121 O122 1.315 . S
C121 O123 1.279 . S
O122 Cd114 2.223 . S
O122 C121 1.315 . S
O123 Cd113 2.240 . S
O123 C121 1.279 . S
O124 Cd114 2.297 . S
O124 C119 1.247 . S
O125 Cd114 2.439 . S
O125 C119 1.208 . S
O126 Cd127 2.223 . S
O126 C134 1.315 . S
Cd127 O126 2.223 . S
Cd127 O130 2.297 . S
Cd127 O131 2.439 . S
Cd127 O137 2.240 . S
Cd128 O129 2.240 . S
Cd128 O136 2.223 . S
Cd128 O138 2.297 . S
Cd128 O139 2.439 . S
O129 Cd128 2.240 . S
O129 C134 1.279 . S
O130 Cd127 2.297 . S
O130 C132 1.247 . S
O131 Cd127 2.439 . S
O131 C132 1.208 . S
C132 O130 1.247 . S
C132 O131 1.208 . S
C133 O138 1.247 . S
C133 O139 1.208 . S
C134 O126 1.315 . S
C134 O129 1.279 . S
C135 O136 1.315 . S
C135 O137 1.279 . S
O136 Cd128 2.223 . S
O136 C135 1.315 . S
O137 Cd127 2.240 . S
O137 C135 1.279 . S
O138 Cd128 2.297 . S
O138 C133 1.247 . S
O139 Cd128 2.439 . S
O139 C133 1.208 . S
O140 Cd141 2.223 . S
O140 C148 1.315 . S
Cd141 O140 2.223 . S
Cd141 O144 2.297 . S
Cd141 O145 2.439 . S
Cd141 O151 2.240 . S
Cd142 O143 2.240 . S
Cd142 O150 2.223 . S
Cd142 O152 2.297 . S
Cd142 O153 2.439 . S
O143 Cd142 2.240 . S
O143 C148 1.279 . S
O144 Cd141 2.297 . S
O144 C146 1.247 . S
O145 Cd141 2.439 . S
O145 C146 1.208 . S
C146 O144 1.247 . S
C146 O145 1.208 . S
C147 O152 1.247 . S
C147 O153 1.208 . S
C148 O140 1.315 . S
C148 O143 1.279 . S
C149 O150 1.315 . S
C149 O151 1.279 . S
O150 Cd142 2.223 . S
O150 C149 1.315 . S
O151 Cd141 2.240 . S
O151 C149 1.279 . S
O152 Cd142 2.297 . S
O152 C147 1.247 . S
O153 Cd142 2.439 . S
O153 C147 1.208 . S
O154 Cd155 2.223 . S
O154 C162 1.315 . S
Cd155 O154 2.223 . S
Cd155 O158 2.297 . S
Cd155 O159 2.439 . S
Cd155 O165 2.240 . S
Cd156 O157 2.240 . S
Cd156 O164 2.223 . S
Cd156 O166 2.297 . S
Cd156 O167 2.439 . S
O157 Cd156 2.240 . S
O157 C162 1.279 . S
O158 Cd155 2.297 . S
O158 C160 1.247 . S
O159 Cd155 2.439 . S
O159 C160 1.208 . S
C160 O158 1.247 . S
C160 O159 1.208 . S
C161 O166 1.247 . S
C161 O167 1.208 . S
C162 O154 1.315 . S
C162 O157 1.279 . S
C163 O164 1.315 . S
C163 O165 1.279 . S
O164 Cd156 2.223 . S
O164 C163 1.315 . S
O165 Cd155 2.240 . S
O165 C163 1.279 . S
O166 Cd156 2.297 . S
O166 C161 1.247 . S
O167 Cd156 2.439 . S
O167 C161 1.208 . S
O168 Cd169 2.223 . S
O168 C176 1.315 . S
Cd169 O168 2.223 . S
Cd169 O172 2.297 . S
Cd169 O173 2.439 . S
Cd169 O179 2.240 . S
Cd170 O171 2.240 . S
Cd170 O178 2.223 . S
Cd170 O180 2.297 . S
Cd170 O181 2.439 . S
O171 Cd170 2.240 . S
O171 C176 1.279 . S
O172 Cd169 2.297 . S
O172 C174 1.247 . S
O173 Cd169 2.439 . S
O173 C174 1.208 . S
C174 O172 1.247 . S
C174 O173 1.208 . S
C175 O180 1.247 . S
C175 O181 1.208 . S
C176 O168 1.315 . S
C176 O171 1.279 . S
C177 O178 1.315 . S
C177 O179 1.279 . S
O178 Cd170 2.223 . S
O178 C177 1.315 . S
O179 Cd169 2.240 . S
O179 C177 1.279 . S
O180 Cd170 2.297 . S
O180 C175 1.247 . S
O181 Cd170 2.439 . S
O181 C175 1.208 . S
O182 Cd183 2.223 . S
O182 C190 1.315 . S
Cd183 O182 2.223 . S
Cd183 O186 2.297 . S
Cd183 O187 2.439 . S
Cd183 O193 2.240 . S
Cd184 O185 2.240 . S
Cd184 O192 2.223 . S
Cd184 O194 2.297 . S
Cd184 O195 2.439 . S
O185 Cd184 2.240 . S
O185 C190 1.279 . S
O186 Cd183 2.297 . S
O186 C188 1.247 . S
O187 Cd183 2.439 . S
O187 C188 1.208 . S
C188 O186 1.247 . S
C188 O187 1.208 . S
C189 O194 1.247 . S
C189 O195 1.208 . S
C190 O182 1.315 . S
C190 O185 1.279 . S
C191 O192 1.315 . S
C191 O193 1.279 . S
O192 Cd184 2.223 . S
O192 C191 1.315 . S
O193 Cd183 2.240 . S
O193 C191 1.279 . S
O194 Cd184 2.297 . S
O194 C189 1.247 . S
O195 Cd184 2.439 . S
O195 C189 1.208 . S
O196 Cd197 2.223 . S
O196 C204 1.315 . S
Cd197 O196 2.223 . S
Cd197 O200 2.297 . S
Cd197 O201 2.439 . S
Cd197 O207 2.240 . S
Cd198 O199 2.240 . S
Cd198 O206 2.223 . S
Cd198 O208 2.297 . S
Cd198 O209 2.439 . S
O199 Cd198 2.240 . S
O199 C204 1.279 . S
O200 Cd197 2.297 . S
O200 C202 1.247 . S
O201 Cd197 2.439 . S
O201 C202 1.208 . S
C202 O200 1.247 . S
C202 O201 1.208 . S
C203 O208 1.247 . S
C203 O209 1.208 . S
C204 O196 1.315 . S
C204 O199 1.279 . S
C205 O206 1.315 . S
C205 O207 1.279 . S
O206 Cd198 2.223 . S
O206 C205 1.315 . S
O207 Cd197 2.240 . S
O207 C205 1.279 . S
O208 Cd198 2.297 . S
O208 C203 1.247 . S
O209 Cd198 2.439 . S
O209 C203 1.208 . S
O210 Cd211 2.223 . S
O210 C218 1.315 . S
Cd211 O210 2.223 . S
Cd211 O214 2.297 . S
Cd211 O215 2.439 . S
Cd211 O221 2.240 . S
Cd212 O213 2.240 . S
Cd212 O220 2.223 . S
Cd212 O222 2.297 . S
Cd212 O223 2.439 . S
O213 Cd212 2.240 . S
O213 C218 1.279 . S
O214 Cd211 2.297 . S
O214 C216 1.247 . S
O215 Cd211 2.439 . S
O215 C216 1.208 . S
C216 O214 1.247 . S
C216 O215 1.208 . S
C217 O222 1.247 . S
C217 O223 1.208 . S
C218 O210 1.315 . S
C218 O213 1.279 . S
C219 O220 1.315 . S
C219 O221 1.279 . S
O220 Cd212 2.223 . S
O220 C219 1.315 . S
O221 Cd211 2.240 . S
O221 C219 1.279 . S
O222 Cd212 2.297 . S
O222 C217 1.247 . S
O223 Cd212 2.439 . S
O223 C217 1.208 . S
H224 C242 0.951 . S
H225 C244 0.951 . S
H226 C246 0.950 . S
H227 C247 0.950 . S
H228 C249 0.950 . S
H229 C252 0.950 . S
H230 C253 0.950 . S
H231 C255 0.950 . S
H232 C256 0.950 . S
H233 C257 0.956 . S
H234 C259 0.951 1_556 S
H235 C261 0.950 . S
H236 C262 0.950 . S
H237 C264 0.950 . S
H238 C267 0.950 . S
H239 C268 0.950 . S
H240 C270 0.950 . S
H241 C271 0.950 . S
C242 H224 0.951 . S
C242 C243 1.366 1_554 S
C242 C244 1.388 . S
C243 C242 1.366 1_556 S
C243 C247 1.385 . S
C244 H225 0.951 . S
C244 C242 1.388 . S
C244 C245 1.366 . S
C245 C244 1.366 . S
C245 C246 1.414 1_554 S
C245 C248 1.499 . S
C246 H226 0.950 . S
C246 C245 1.414 1_556 S
C246 C247 1.374 . S
C247 H227 0.950 . S
C247 C243 1.385 . S
C247 C246 1.374 . S
C248 C245 1.499 . S
C248 C249 1.373 1_554 S
C248 C250 1.389 . S
C249 H228 0.950 . S
C249 C248 1.373 1_556 S
C249 C265 1.377 . S
C250 C248 1.389 . S
C250 C251 1.524 . S
C250 C264 1.377 . S
C251 C250 1.524 . S
C251 C252 1.397 . S
C251 C256 1.363 . S
C252 H229 0.950 . S
C252 C251 1.397 . S
C252 C253 1.334 . S
C253 H230 0.950 . S
C253 C252 1.334 . S
C253 C254 1.287 . S
C254 C253 1.287 . S
C254 C255 1.524 . S
C254 H273 0.913 . S
C255 H231 0.950 . S
C255 C254 1.524 . S
C255 C256 1.415 . S
C256 H232 0.950 . S
C256 C251 1.363 . S
C256 C255 1.415 . S
C257 H233 0.956 . S
C257 C258 1.366 . S
C257 C259 1.388 . S
C258 C257 1.366 . S
C258 C262 1.385 . S
C259 H234 0.951 1_554 S
C259 C257 1.388 . S
C259 C260 1.366 . S
C260 C259 1.366 . S
C260 C261 1.414 . S
C260 C263 1.499 . S
C261 H235 0.950 . S
C261 C260 1.414 . S
C261 C262 1.374 . S
C262 H236 0.950 . S
C262 C258 1.385 . S
C262 C261 1.374 . S
C263 C260 1.499 . S
C263 C264 1.373 . S
C263 C265 1.389 1_554 S
C264 H237 0.950 . S
C264 C250 1.377 . S
C264 C263 1.373 . S
C265 C249 1.377 . S
C265 C263 1.389 1_556 S
C265 C266 1.524 . S
C266 C265 1.524 . S
C266 C267 1.397 . S
C266 C271 1.363 . S
C267 H238 0.950 . S
C267 C266 1.397 . S
C267 C268 1.334 . S
C268 H239 0.950 . S
C268 C267 1.334 . S
C268 C269 1.287 . S
C269 C268 1.287 . S
C269 C270 1.524 . S
C269 H272 0.999 . S
C270 H240 0.950 . S
C270 C269 1.524 . S
C270 C271 1.415 . S
C271 H241 0.950 . S
C271 C266 1.363 . S
C271 C270 1.415 . S
H272 C269 0.999 . S
H273 C254 0.913 . S
H274 C292 0.951 . S
H275 C294 0.951 . S
H276 C296 0.950 . S
H277 C297 0.950 . S
H278 C299 0.950 . S
H279 C302 0.950 . S
H280 C303 0.950 . S
H281 C305 0.950 . S
H282 C306 0.950 . S
H283 C307 0.951 . S
H284 C309 0.951 . S
H285 C311 0.950 . S
H286 C312 0.950 . S
H287 C314 0.950 . S
H288 C317 0.950 . S
H289 C318 0.950 . S
H290 C320 0.950 . S
H291 C321 0.950 . S
C292 H274 0.951 . S
C292 C293 1.366 1_554 S
C292 C294 1.388 . S
C293 C292 1.366 1_556 S
C293 C297 1.385 . S
C294 H275 0.951 . S
C294 C292 1.388 . S
C294 C295 1.366 . S
C295 C294 1.366 . S
C295 C296 1.414 1_554 S
C295 C298 1.499 . S
C296 H276 0.950 . S
C296 C295 1.414 1_556 S
C296 C297 1.374 . S
C297 H277 0.950 . S
C297 C293 1.385 . S
C297 C296 1.374 . S
C298 C295 1.499 . S
C298 C299 1.373 1_554 S
C298 C300 1.389 . S
C299 H278 0.950 . S
C299 C298 1.373 1_556 S
C299 C315 1.377 . S
C300 C298 1.389 . S
C300 C301 1.524 . S
C300 C314 1.377 . S
C301 C300 1.524 . S
C301 C302 1.397 . S
C301 C306 1.363 . S
C302 H279 0.950 . S
C302 C301 1.397 . S
C302 C303 1.334 . S
C303 H280 0.950 . S
C303 C302 1.334 . S
C303 C304 1.287 . S
C304 C303 1.287 . S
C304 C305 1.524 . S
C304 H323 0.913 . S
C305 H281 0.950 . S
C305 C304 1.524 . S
C305 C306 1.415 . S
C306 H282 0.950 . S
C306 C301 1.363 . S
C306 C305 1.415 . S
C307 H283 0.951 . S
C307 C308 1.366 1_556 S
C307 C309 1.388 . S
C308 C307 1.366 1_554 S
C308 C312 1.385 . S
C309 H284 0.951 . S
C309 C307 1.388 . S
C309 C310 1.366 1_556 S
C310 C309 1.366 1_554 S
C310 C311 1.414 . S
C310 C313 1.499 . S
C311 H285 0.950 . S
C311 C310 1.414 . S
C311 C312 1.374 . S
C312 H286 0.950 . S
C312 C308 1.385 . S
C312 C311 1.374 . S
C313 C310 1.499 . S
C313 C314 1.373 . S
C313 C315 1.389 1_554 S
C314 H287 0.950 . S
C314 C300 1.377 . S
C314 C313 1.373 . S
C315 C299 1.377 . S
C315 C313 1.389 1_556 S
C315 C316 1.524 . S
C316 C315 1.524 . S
C316 C317 1.397 . S
C316 C321 1.363 . S
C317 H288 0.950 . S
C317 C316 1.397 . S
C317 C318 1.334 . S
C318 H289 0.950 . S
C318 C317 1.334 . S
C318 C319 1.287 . S
C319 C318 1.287 . S
C319 C320 1.524 . S
C319 H322 0.999 . S
C320 H290 0.950 . S
C320 C319 1.524 . S
C320 C321 1.415 . S
C321 H291 0.950 . S
C321 C316 1.363 . S
C321 C320 1.415 . S
H322 C319 0.999 . S
H323 C304 0.913 . S
H324 C342 0.951 . S
H325 C344 0.951 . S
H326 C346 0.950 . S
H327 C347 0.950 . S
H328 C349 0.950 1_556 S
H329 C352 0.950 . S
H330 C353 0.950 . S
H331 C355 0.950 . S
H332 C356 0.950 . S
H333 C357 0.951 . S
H334 C359 0.951 . S
H335 C361 0.950 . S
H336 C362 0.950 . S
H337 C364 0.950 . S
H338 C367 0.950 . S
H339 C368 0.950 . S
H340 C370 0.950 . S
H341 C371 0.950 . S
C342 H324 0.951 . S
C342 C343 1.366 1_554 S
C342 C344 1.388 . S
C343 C342 1.366 1_556 S
C343 C347 1.385 . S
C344 H325 0.951 . S
C344 C342 1.388 . S
C344 C345 1.366 1_554 S
C345 C344 1.366 1_556 S
C345 C346 1.414 . S
C345 C348 1.498 1_556 S
C346 H326 0.950 . S
C346 C345 1.414 . S
C346 C347 1.374 . S
C347 H327 0.950 . S
C347 C343 1.385 . S
C347 C346 1.374 . S
C348 C345 1.498 1_554 S
C348 C349 1.374 . S
C348 C350 1.392 . S
C349 H328 0.950 1_554 S
C349 C348 1.374 . S
C349 C365 1.377 . S
C350 C348 1.392 . S
C350 C351 1.524 . S
C350 C364 1.377 . S
C351 C350 1.524 . S
C351 C352 1.397 1_554 S
C351 C356 1.363 . S
C352 H329 0.950 . S
C352 C351 1.397 1_556 S
C352 C353 1.334 . S
C353 H330 0.950 . S
C353 C352 1.334 . S
C353 C354 1.287 . S
C354 C353 1.287 . S
C354 C355 1.524 1_556 S
C354 H373 0.913 . S
C355 H331 0.950 . S
C355 C354 1.524 1_554 S
C355 C356 1.415 . S
C356 H332 0.950 . S
C356 C351 1.363 . S
C356 C355 1.415 . S
C357 H333 0.951 . S
C357 C358 1.366 1_556 S
C357 C359 1.388 . S
C358 C357 1.366 1_554 S
C358 C362 1.385 . S
C359 H334 0.951 . S
C359 C357 1.388 . S
C359 C360 1.366 1_556 S
C360 C359 1.366 1_554 S
C360 C361 1.414 . S
C360 C363 1.499 . S
C361 H335 0.950 . S
C361 C360 1.414 . S
C361 C362 1.374 . S
C362 H336 0.950 . S
C362 C358 1.385 . S
C362 C361 1.374 . S
C363 C360 1.499 . S
C363 C364 1.373 . S
C363 C365 1.389 . S
C364 H337 0.950 . S
C364 C350 1.377 . S
C364 C363 1.373 . S
C365 C349 1.377 . S
C365 C363 1.389 . S
C365 C366 1.524 . S
C366 C365 1.524 . S
C366 C367 1.397 . S
C366 C371 1.363 1_554 S
C367 H338 0.950 . S
C367 C366 1.397 . S
C367 C368 1.334 . S
C368 H339 0.950 . S
C368 C367 1.334 . S
C368 C369 1.287 . S
C369 C368 1.287 . S
C369 C370 1.524 1_554 S
C369 H372 0.999 . S
C370 H340 0.950 . S
C370 C369 1.524 1_556 S
C370 C371 1.415 . S
C371 H341 0.950 . S
C371 C366 1.363 1_556 S
C371 C370 1.415 . S
H372 C369 0.999 . S
H373 C354 0.913 . S
H374 C392 0.951 . S
H375 C394 0.951 . S
H376 C396 0.950 . S
H377 C397 0.950 . S
H378 C399 0.950 . S
H379 C402 0.950 . S
H380 C403 0.950 . S
H381 C405 0.950 . S
H382 C406 0.950 . S
H383 C407 0.951 . S
H384 C409 0.951 . S
H385 C411 0.950 . S
H386 C412 0.950 1_556 S
H387 C414 0.950 . S
H388 C417 0.950 . S
H389 C418 0.950 . S
H390 C420 0.950 . S
H391 C421 0.950 . S
C392 H374 0.951 . S
C392 C393 1.366 . S
C392 C394 1.388 . S
C393 C392 1.366 . S
C393 C397 1.385 1_556 S
C394 H375 0.951 . S
C394 C392 1.388 . S
C394 C395 1.366 . S
C395 C394 1.366 . S
C395 C396 1.414 1_556 S
C395 C398 1.499 1_556 S
C396 H376 0.950 . S
C396 C395 1.414 1_554 S
C396 C397 1.374 . S
C397 H377 0.950 . S
C397 C393 1.385 1_554 S
C397 C396 1.374 . S
C398 C395 1.499 1_554 S
C398 C399 1.373 . S
C398 C400 1.389 1_554 S
C399 H378 0.950 . S
C399 C398 1.373 . S
C399 C415 1.377 . S
C400 C398 1.389 1_556 S
C400 C401 1.524 . S
C400 C414 1.377 . S
C401 C400 1.524 . S
C401 C402 1.397 . S
C401 C406 1.363 . S
C402 H379 0.950 . S
C402 C401 1.397 . S
C402 C403 1.334 . S
C403 H380 0.950 . S
C403 C402 1.334 . S
C403 C404 1.287 . S
C404 C403 1.287 . S
C404 C405 1.524 . S
C404 H423 0.913 . S
C405 H381 0.950 . S
C405 C404 1.524 . S
C405 C406 1.415 . S
C406 H382 0.950 . S
C406 C401 1.363 . S
C406 C405 1.415 . S
C407 H383 0.951 . S
C407 C408 1.366 . S
C407 C409 1.388 . S
C408 C407 1.366 . S
C408 C412 1.384 . S
C409 H384 0.951 . S
C409 C407 1.388 . S
C409 C410 1.366 . S
C410 C409 1.366 . S
C410 C411 1.414 1_554 S
C410 C413 1.499 . S
C411 H385 0.950 . S
C411 C410 1.414 1_556 S
C411 C412 1.374 1_556 S
C412 H386 0.950 1_554 S
C412 C408 1.384 . S
C412 C411 1.374 1_554 S
C413 C410 1.499 . S
C413 C414 1.373 1_554 S
C413 C415 1.389 . S
C414 H387 0.950 . S
C414 C400 1.377 . S
C414 C413 1.373 1_556 S
C415 C399 1.377 . S
C415 C413 1.389 . S
C415 C416 1.524 . S
C416 C415 1.524 . S
C416 C417 1.397 . S
C416 C421 1.363 . S
C417 H388 0.950 . S
C417 C416 1.397 . S
C417 C418 1.334 . S
C418 H389 0.950 . S
C418 C417 1.334 . S
C418 C419 1.287 . S
C419 C418 1.287 . S
C419 C420 1.524 . S
C419 H422 0.999 . S
C420 H390 0.950 . S
C420 C419 1.524 . S
C420 C421 1.415 . S
C421 H391 0.950 . S
C421 C416 1.363 . S
C421 C420 1.415 . S
H422 C419 0.999 . S
H423 C404 0.913 . S
H424 C442 0.951 . S
H425 C444 0.951 . S
H426 C446 0.950 . S
H427 C447 0.950 . S
H428 C449 0.950 . S
H429 C452 0.950 . S
H430 C453 0.950 . S
H431 C455 0.950 . S
H432 C456 0.950 . S
H433 C457 0.951 . S
H434 C459 0.951 . S
H435 C461 0.950 . S
H436 C462 0.950 . S
H437 C464 0.950 . S
H438 C467 0.950 . S
H439 C468 0.950 . S
H440 C470 0.950 . S
H441 C471 0.950 . S
C442 H424 0.951 . S
C442 C443 1.366 . S
C442 C444 1.388 . S
C443 C442 1.366 . S
C443 C447 1.385 . S
C444 H425 0.951 . S
C444 C442 1.388 . S
C444 C445 1.366 . S
C445 C444 1.366 . S
C445 C446 1.414 . S
C445 C448 1.499 . S
C446 H426 0.950 . S
C446 C445 1.414 . S
C446 C447 1.374 . S
C447 H427 0.950 . S
C447 C443 1.385 . S
C447 C446 1.374 . S
C448 C445 1.499 . S
C448 C449 1.373 . S
C448 C450 1.389 . S
C449 H428 0.950 . S
C449 C448 1.373 . S
C449 C465 1.377 1_545 S
C450 C448 1.389 . S
C450 C451 1.524 . S
C450 C464 1.377 1_545 S
C451 C450 1.524 . S
C451 C452 1.397 . S
C451 C456 1.363 . S
C452 H429 0.950 . S
C452 C451 1.397 . S
C452 C453 1.334 . S
C453 H430 0.950 . S
C453 C452 1.334 . S
C453 C454 1.287 . S
C454 C453 1.287 . S
C454 C455 1.524 . S
C454 H473 0.913 . S
C455 H431 0.950 . S
C455 C454 1.524 . S
C455 C456 1.415 . S
C456 H432 0.950 . S
C456 C451 1.363 . S
C456 C455 1.415 . S
C457 H433 0.951 . S
C457 C458 1.366 . S
C457 C459 1.388 . S
C458 C457 1.366 . S
C458 C462 1.385 . S
C459 H434 0.951 . S
C459 C457 1.388 . S
C459 C460 1.366 . S
C460 C459 1.366 . S
C460 C461 1.414 . S
C460 C463 1.499 . S
C461 H435 0.950 . S
C461 C460 1.414 . S
C461 C462 1.374 . S
C462 H436 0.950 . S
C462 C458 1.385 . S
C462 C461 1.374 . S
C463 C460 1.499 . S
C463 C464 1.373 . S
C463 C465 1.389 . S
C464 H437 0.950 . S
C464 C450 1.377 1_565 S
C464 C463 1.373 . S
C465 C449 1.377 1_565 S
C465 C463 1.389 . S
C465 C466 1.524 . S
C466 C465 1.524 . S
C466 C467 1.397 . S
C466 C471 1.363 . S
C467 H438 0.950 . S
C467 C466 1.397 . S
C467 C468 1.334 . S
C468 H439 0.950 . S
C468 C467 1.334 . S
C468 C469 1.287 . S
C469 C468 1.287 . S
C469 C470 1.524 . S
C469 H472 0.999 . S
C470 H440 0.950 . S
C470 C469 1.524 . S
C470 C471 1.415 . S
C471 H441 0.950 . S
C471 C466 1.363 . S
C471 C470 1.415 . S
H472 C469 0.999 . S
H473 C454 0.913 . S
H474 C492 0.951 . S
H475 C494 0.951 . S
H476 C496 0.950 . S
H477 C497 0.950 . S
H478 C499 0.950 . S
H479 C502 0.950 . S
H480 C503 0.950 . S
H481 C505 0.950 . S
H482 C506 0.950 . S
H483 C507 0.951 . S
H484 C509 0.951 . S
H485 C511 0.950 . S
H486 C512 0.950 . S
H487 C514 0.950 . S
H488 C517 0.950 . S
H489 C518 0.950 . S
H490 C520 0.950 . S
H491 C521 0.950 . S
C492 H474 0.951 . S
C492 C493 1.366 . S
C492 C494 1.388 . S
C493 C492 1.366 . S
C493 C497 1.385 . S
C494 H475 0.951 . S
C494 C492 1.388 . S
C494 C495 1.366 . S
C495 C494 1.366 . S
C495 C496 1.414 . S
C495 C498 1.499 . S
C496 H476 0.950 . S
C496 C495 1.414 . S
C496 C497 1.374 . S
C497 H477 0.950 . S
C497 C493 1.385 . S
C497 C496 1.374 . S
C498 C495 1.499 . S
C498 C499 1.373 . S
C498 C500 1.389 . S
C499 H478 0.950 . S
C499 C498 1.373 . S
C499 C515 1.377 1_655 S
C500 C498 1.389 . S
C500 C501 1.524 . S
C500 C514 1.377 1_655 S
C501 C500 1.524 . S
C501 C502 1.397 . S
C501 C506 1.363 . S
C502 H479 0.950 . S
C502 C501 1.397 . S
C502 C503 1.334 . S
C503 H480 0.950 . S
C503 C502 1.334 . S
C503 C504 1.287 . S
C504 C503 1.287 . S
C504 C505 1.524 . S
C504 H523 0.913 . S
C505 H481 0.950 . S
C505 C504 1.524 . S
C505 C506 1.415 . S
C506 H482 0.950 . S
C506 C501 1.363 . S
C506 C505 1.415 . S
C507 H483 0.951 . S
C507 C508 1.366 . S
C507 C509 1.388 . S
C508 C507 1.366 . S
C508 C512 1.385 . S
C509 H484 0.951 . S
C509 C507 1.388 . S
C509 C510 1.366 . S
C510 C509 1.366 . S
C510 C511 1.414 . S
C510 C513 1.499 . S
C511 H485 0.950 . S
C511 C510 1.414 . S
C511 C512 1.374 . S
C512 H486 0.950 . S
C512 C508 1.385 . S
C512 C511 1.374 . S
C513 C510 1.499 . S
C513 C514 1.373 . S
C513 C515 1.389 . S
C514 H487 0.950 . S
C514 C500 1.377 1_455 S
C514 C513 1.373 . S
C515 C499 1.377 1_455 S
C515 C513 1.389 . S
C515 C516 1.524 . S
C516 C515 1.524 . S
C516 C517 1.397 . S
C516 C521 1.363 . S
C517 H488 0.950 . S
C517 C516 1.397 . S
C517 C518 1.334 . S
C518 H489 0.950 . S
C518 C517 1.334 . S
C518 C519 1.287 . S
C519 C518 1.287 . S
C519 C520 1.524 . S
C519 H522 0.999 . S
C520 H490 0.950 . S
C520 C519 1.524 . S
C520 C521 1.415 . S
C521 H491 0.950 . S
C521 C516 1.363 . S
C521 C520 1.415 . S
H522 C519 0.999 . S
H523 C504 0.913 . S
H524 C542 0.951 . S
H525 C544 0.951 . S
H526 C546 0.950 . S
H527 C547 0.950 . S
H528 C549 0.950 . S
H529 C552 0.950 . S
H530 C553 0.950 . S
H531 C555 0.950 . S
H532 C556 0.950 . S
H533 C557 0.951 . S
H534 C559 0.951 . S
H535 C561 0.950 . S
H536 C562 0.950 . S
H537 C564 0.950 . S
H538 C567 0.950 . S
H539 C568 0.950 . S
H540 C570 0.950 . S
H541 C571 0.950 . S
C542 H524 0.951 . S
C542 C543 1.366 . S
C542 C544 1.388 . S
C543 C542 1.366 . S
C543 C547 1.385 . S
C544 H525 0.951 . S
C544 C542 1.388 . S
C544 C545 1.366 . S
C545 C544 1.366 . S
C545 C546 1.414 . S
C545 C548 1.499 . S
C546 H526 0.950 . S
C546 C545 1.414 . S
C546 C547 1.374 . S
C547 H527 0.950 . S
C547 C543 1.385 . S
C547 C546 1.374 . S
C548 C545 1.499 . S
C548 C549 1.373 . S
C548 C550 1.389 . S
C549 H528 0.950 . S
C549 C548 1.373 . S
C549 C565 1.377 1_545 S
C550 C548 1.389 . S
C550 C551 1.524 . S
C550 C564 1.377 1_545 S
C551 C550 1.524 . S
C551 C552 1.397 . S
C551 C556 1.363 . S
C552 H529 0.950 . S
C552 C551 1.397 . S
C552 C553 1.334 . S
C553 H530 0.950 . S
C553 C552 1.334 . S
C553 C554 1.287 . S
C554 C553 1.287 . S
C554 C555 1.524 . S
C554 H573 0.913 . S
C555 H531 0.950 . S
C555 C554 1.524 . S
C555 C556 1.415 . S
C556 H532 0.950 . S
C556 C551 1.363 . S
C556 C555 1.415 . S
C557 H533 0.951 . S
C557 C558 1.366 . S
C557 C559 1.388 . S
C558 C557 1.366 . S
C558 C562 1.385 . S
C559 H534 0.951 . S
C559 C557 1.388 . S
C559 C560 1.366 . S
C560 C559 1.366 . S
C560 C561 1.414 . S
C560 C563 1.499 . S
C561 H535 0.950 . S
C561 C560 1.414 . S
C561 C562 1.374 . S
C562 H536 0.950 . S
C562 C558 1.385 . S
C562 C561 1.374 . S
C563 C560 1.499 . S
C563 C564 1.373 . S
C563 C565 1.389 . S
C564 H537 0.950 . S
C564 C550 1.377 1_565 S
C564 C563 1.373 . S
C565 C549 1.377 1_565 S
C565 C563 1.389 . S
C565 C566 1.524 . S
C566 C565 1.524 . S
C566 C567 1.397 . S
C566 C571 1.363 . S
C567 H538 0.950 . S
C567 C566 1.397 . S
C567 C568 1.334 . S
C568 H539 0.950 . S
C568 C567 1.334 . S
C568 C569 1.287 . S
C569 C568 1.287 . S
C569 C570 1.524 . S
C569 H572 0.999 . S
C570 H540 0.950 . S
C570 C569 1.524 . S
C570 C571 1.415 . S
C571 H541 0.950 . S
C571 C566 1.363 . S
C571 C570 1.415 . S
H572 C569 0.999 . S
H573 C554 0.913 . S
H574 C592 0.951 . S
H575 C594 0.951 . S
H576 C596 0.950 . S
H577 C597 0.950 . S
H578 C599 0.950 . S
H579 C602 0.950 . S
H580 C603 0.950 . S
H581 C605 0.950 . S
H582 C606 0.950 . S
H583 C607 0.951 . S
H584 C609 0.951 . S
H585 C611 0.950 . S
H586 C612 0.950 . S
H587 C614 0.950 . S
H588 C617 0.950 . S
H589 C618 0.950 . S
H590 C620 0.950 . S
H591 C621 0.950 . S
C592 H574 0.951 . S
C592 C593 1.366 . S
C592 C594 1.388 . S
C593 C592 1.366 . S
C593 C597 1.385 . S
C594 H575 0.951 . S
C594 C592 1.388 . S
C594 C595 1.366 . S
C595 C594 1.366 . S
C595 C596 1.414 . S
C595 C598 1.499 . S
C596 H576 0.950 . S
C596 C595 1.414 . S
C596 C597 1.374 . S
C597 H577 0.950 . S
C597 C593 1.385 . S
C597 C596 1.374 . S
C598 C595 1.499 . S
C598 C599 1.373 . S
C598 C600 1.389 . S
C599 H578 0.950 . S
C599 C598 1.373 . S
C599 C615 1.377 1_455 S
C600 C598 1.389 . S
C600 C601 1.524 . S
C600 C614 1.377 1_455 S
C601 C600 1.524 . S
C601 C602 1.397 . S
C601 C606 1.363 . S
C602 H579 0.950 . S
C602 C601 1.397 . S
C602 C603 1.334 . S
C603 H580 0.950 . S
C603 C602 1.334 . S
C603 C604 1.287 . S
C604 C603 1.287 . S
C604 C605 1.524 . S
C604 H623 0.913 . S
C605 H581 0.950 . S
C605 C604 1.524 . S
C605 C606 1.415 . S
C606 H582 0.950 . S
C606 C601 1.363 . S
C606 C605 1.415 . S
C607 H583 0.951 . S
C607 C608 1.366 . S
C607 C609 1.388 . S
C608 C607 1.366 . S
C608 C612 1.385 . S
C609 H584 0.951 . S
C609 C607 1.388 . S
C609 C610 1.366 . S
C610 C609 1.366 . S
C610 C611 1.414 . S
C610 C613 1.499 . S
C611 H585 0.950 . S
C611 C610 1.414 . S
C611 C612 1.374 . S
C612 H586 0.950 . S
C612 C608 1.385 . S
C612 C611 1.374 . S
C613 C610 1.499 . S
C613 C614 1.373 . S
C613 C615 1.389 . S
C614 H587 0.950 . S
C614 C600 1.377 1_655 S
C614 C613 1.373 . S
C615 C599 1.377 1_655 S
C615 C613 1.389 . S
C615 C616 1.524 . S
C616 C615 1.524 . S
C616 C617 1.397 . S
C616 C621 1.363 . S
C617 H588 0.950 . S
C617 C616 1.397 . S
C617 C618 1.334 . S
C618 H589 0.950 . S
C618 C617 1.334 . S
C618 C619 1.287 . S
C619 C618 1.287 . S
C619 C620 1.524 . S
C619 H622 0.999 . S
C620 H590 0.950 . S
C620 C619 1.524 . S
C620 C621 1.415 . S
C621 H591 0.950 . S
C621 C616 1.363 . S
C621 C620 1.415 . S
H622 C619 0.999 . S
H623 C604 0.913 . S
H624 C642 0.951 . S
H625 C644 0.951 . S
H626 C646 0.950 . S
H627 C647 0.950 . S
H628 C649 0.950 . S
H629 C652 0.950 . S
H630 C653 0.950 . S
H631 C655 0.950 . S
H632 C656 0.931 1_554 S
H633 C657 0.951 . S
H634 C659 0.951 . S
H635 C661 0.950 . S
H636 C662 0.950 . S
H637 C664 0.950 . S
H638 C667 0.950 . S
H639 C668 0.950 . S
H640 C670 0.950 . S
H641 C671 0.950 . S
C642 H624 0.951 . S
C642 C643 1.366 . S
C642 C644 1.388 . S
C643 C642 1.366 . S
C643 C647 1.385 1_554 S
C644 H625 0.951 . S
C644 C642 1.388 . S
C644 C645 1.366 . S
C645 C644 1.366 . S
C645 C646 1.414 1_554 S
C645 C648 1.499 . S
C646 H626 0.950 . S
C646 C645 1.414 1_556 S
C646 C647 1.374 . S
C647 H627 0.950 . S
C647 C643 1.385 1_556 S
C647 C646 1.374 . S
C648 C645 1.499 . S
C648 C649 1.373 . S
C648 C650 1.389 1_554 S
C649 H628 0.950 . S
C649 C648 1.373 . S
C649 C665 1.377 . S
C650 C648 1.389 1_556 S
C650 C651 1.524 . S
C650 C664 1.377 . S
C651 C650 1.524 . S
C651 C652 1.397 . S
C651 C656 1.363 . S
C652 H629 0.950 . S
C652 C651 1.397 . S
C652 C653 1.334 . S
C653 H630 0.950 . S
C653 C652 1.334 . S
C653 C654 1.287 . S
C654 C653 1.287 . S
C654 C655 1.524 . S
C654 H673 0.913 . S
C655 H631 0.950 . S
C655 C654 1.524 . S
C655 C656 1.415 . S
C656 H632 0.931 1_556 S
C656 C651 1.363 . S
C656 C655 1.415 . S
C657 H633 0.951 . S
C657 C658 1.366 1_556 S
C657 C659 1.388 . S
C658 C657 1.366 1_554 S
C658 C662 1.385 . S
C659 H634 0.951 . S
C659 C657 1.388 . S
C659 C660 1.366 1_556 S
C660 C659 1.366 1_554 S
C660 C661 1.414 . S
C660 C663 1.499 . S
C661 H635 0.950 . S
C661 C660 1.414 . S
C661 C662 1.374 . S
C662 H636 0.950 . S
C662 C658 1.385 . S
C662 C661 1.374 . S
C663 C660 1.499 . S
C663 C664 1.373 1_554 S
C663 C665 1.389 . S
C664 H637 0.950 . S
C664 C650 1.377 . S
C664 C663 1.373 1_556 S
C665 C649 1.377 . S
C665 C663 1.389 . S
C665 C666 1.524 . S
C666 C665 1.524 . S
C666 C667 1.397 . S
C666 C671 1.363 . S
C667 H638 0.950 . S
C667 C666 1.397 . S
C667 C668 1.334 . S
C668 H639 0.950 . S
C668 C667 1.334 . S
C668 C669 1.287 . S
C669 C668 1.287 . S
C669 C670 1.524 . S
C669 H672 0.999 . S
C670 H640 0.950 . S
C670 C669 1.524 . S
C670 C671 1.415 . S
C671 H641 0.950 . S
C671 C666 1.363 . S
C671 C670 1.415 . S
H672 C669 0.999 . S
H673 C654 0.913 . S
H674 C692 0.951 . S
H675 C694 0.951 . S
H676 C696 0.950 . S
H677 C697 0.950 . S
H678 C699 0.950 . S
H679 C702 0.950 . S
H680 C703 0.950 . S
H681 C705 0.950 1_556 S
H682 C706 0.950 . S
H683 C707 0.951 . S
H684 C709 0.951 . S
H685 C711 0.950 . S
H686 C712 0.950 . S
H687 C714 0.950 . S
H688 C717 0.950 . S
H689 C718 0.950 . S
H690 C720 0.950 . S
H691 C721 0.950 . S
C692 H674 0.951 . S
C692 C693 1.366 1_556 S
C692 C694 1.388 . S
C693 C692 1.366 1_554 S
C693 C697 1.385 . S
C694 H675 0.951 . S
C694 C692 1.388 . S
C694 C695 1.366 1_556 S
C695 C694 1.366 1_554 S
C695 C696 1.414 . S
C695 C698 1.499 . S
C696 H676 0.950 . S
C696 C695 1.414 . S
C696 C697 1.374 . S
C697 H677 0.950 . S
C697 C693 1.385 . S
C697 C696 1.374 . S
C698 C695 1.499 . S
C698 C699 1.373 . S
C698 C700 1.389 . S
C699 H678 0.950 . S
C699 C698 1.373 . S
C699 C715 1.377 . S
C700 C698 1.389 . S
C700 C701 1.524 . S
C700 C714 1.377 . S
C701 C700 1.524 . S
C701 C702 1.397 . S
C701 C706 1.363 1_554 S
C702 H679 0.950 . S
C702 C701 1.397 . S
C702 C703 1.334 . S
C703 H680 0.950 . S
C703 C702 1.334 . S
C703 C704 1.287 . S
C704 C703 1.287 . S
C704 C705 1.524 . S
C704 H723 0.913 . S
C705 H681 0.950 1_554 S
C705 C704 1.524 . S
C705 C706 1.415 1_554 S
C706 H682 0.950 . S
C706 C701 1.363 1_556 S
C706 C705 1.415 1_556 S
C707 H683 0.951 . S
C707 C708 1.366 . S
C707 C709 1.388 . S
C708 C707 1.366 . S
C708 C712 1.385 1_554 S
C709 H684 0.951 . S
C709 C707 1.388 . S
C709 C710 1.366 . S
C710 C709 1.366 . S
C710 C711 1.414 1_554 S
C710 C713 1.499 . S
C711 H685 0.950 . S
C711 C710 1.414 1_556 S
C711 C712 1.374 . S
C712 H686 0.950 . S
C712 C708 1.385 1_556 S
C712 C711 1.374 . S
C713 C710 1.499 . S
C713 C714 1.373 . S
C713 C715 1.389 . S
C714 H687 0.950 . S
C714 C700 1.377 . S
C714 C713 1.373 . S
C715 C699 1.377 . S
C715 C713 1.389 . S
C715 C716 1.524 1_554 S
C716 C715 1.524 1_556 S
C716 C717 1.397 . S
C716 C721 1.363 1_556 S
C717 H688 0.950 . S
C717 C716 1.397 . S
C717 C718 1.334 . S
C718 H689 0.950 . S
C718 C717 1.334 . S
C718 C719 1.287 . S
C719 C718 1.287 . S
C719 C720 1.524 1_556 S
C719 H722 0.999 . S
C720 H690 0.950 . S
C720 C719 1.524 1_554 S
C720 C721 1.415 . S
C721 H691 0.950 . S
C721 C716 1.363 1_554 S
C721 C720 1.415 . S
H722 C719 0.999 . S
H723 C704 0.913 . S
H724 C742 0.951 1_556 S
H725 C744 0.951 1_556 S
H726 C746 0.950 . S
H727 C747 0.950 . S
H728 C749 0.950 . S
H729 C752 0.950 . S
H730 C753 0.950 . S
H731 C755 0.950 . S
H732 C756 0.950 . S
H733 C757 0.951 . S
H734 C759 0.951 . S
H735 C761 0.950 . S
H736 C762 0.950 . S
H737 C764 0.950 . S
H738 C767 0.950 . S
H739 C768 0.950 . S
H740 C770 0.950 . S
H741 C771 0.950 . S
C742 H724 0.951 1_554 S
C742 C743 1.366 . S
C742 C744 1.388 . S
C743 C742 1.366 . S
C743 C747 1.385 . S
C744 H725 0.951 1_554 S
C744 C742 1.388 . S
C744 C745 1.366 . S
C745 C744 1.366 . S
C745 C746 1.414 . S
C745 C748 1.499 . S
C746 H726 0.950 . S
C746 C745 1.414 . S
C746 C747 1.374 . S
C747 H727 0.950 . S
C747 C743 1.385 . S
C747 C746 1.374 . S
C748 C745 1.499 . S
C748 C749 1.373 1_554 S
C748 C750 1.389 . S
C749 H728 0.950 . S
C749 C748 1.373 1_556 S
C749 C765 1.377 . S
C750 C748 1.389 . S
C750 C751 1.524 . S
C750 C764 1.377 . S
C751 C750 1.524 . S
C751 C752 1.397 . S
C751 C756 1.363 . S
C752 H729 0.950 . S
C752 C751 1.397 . S
C752 C753 1.334 . S
C753 H730 0.950 . S
C753 C752 1.334 . S
C753 C754 1.287 . S
C754 C753 1.287 . S
C754 C755 1.524 . S
C754 H773 0.913 . S
C755 H731 0.950 . S
C755 C754 1.524 . S
C755 C756 1.415 . S
C756 H732 0.950 . S
C756 C751 1.363 . S
C756 C755 1.415 . S
C757 H733 0.951 . S
C757 C758 1.366 . S
C757 C759 1.388 . S
C758 C757 1.366 . S
C758 C762 1.385 1_554 S
C759 H734 0.951 . S
C759 C757 1.388 . S
C759 C760 1.366 . S
C760 C759 1.366 . S
C760 C761 1.414 1_554 S
C760 C763 1.499 . S
C761 H735 0.950 . S
C761 C760 1.414 1_556 S
C761 C762 1.374 . S
C762 H736 0.950 . S
C762 C758 1.385 1_556 S
C762 C761 1.374 . S
C763 C760 1.499 . S
C763 C764 1.373 . S
C763 C765 1.389 1_554 S
C764 H737 0.950 . S
C764 C750 1.377 . S
C764 C763 1.373 . S
C765 C749 1.377 . S
C765 C763 1.389 1_556 S
C765 C766 1.524 . S
C766 C765 1.524 . S
C766 C767 1.397 . S
C766 C771 1.363 . S
C767 H738 0.950 . S
C767 C766 1.397 . S
C767 C768 1.334 . S
C768 H739 0.950 . S
C768 C767 1.334 . S
C768 C769 1.287 . S
C769 C768 1.287 . S
C769 C770 1.524 . S
C769 H772 0.999 . S
C770 H740 0.950 . S
C770 C769 1.524 . S
C770 C771 1.415 . S
C771 H741 0.950 . S
C771 C766 1.363 . S
C771 C770 1.415 . S
H772 C769 0.999 . S
H773 C754 0.913 . S
H774 C792 0.951 . S
H775 C794 0.951 . S
H776 C796 0.950 . S
H777 C797 0.950 . S
H778 C799 0.950 . S
H779 C802 0.950 . S
H780 C803 0.950 1_554 S
H781 C805 0.950 . S
H782 C806 0.950 . S
H783 C807 0.951 . S
H784 C809 0.951 . S
H785 C811 0.950 . S
H786 C812 0.950 . S
H787 C814 0.950 . S
H788 C817 0.950 1_556 S
H789 C818 0.950 . S
H790 C820 0.950 . S
H791 C821 0.950 . S
C792 H774 0.951 . S
C792 C793 1.366 1_556 S
C792 C794 1.388 . S
C793 C792 1.366 1_554 S
C793 C797 1.385 . S
C794 H775 0.951 . S
C794 C792 1.388 . S
C794 C795 1.366 1_556 S
C795 C794 1.366 1_554 S
C795 C796 1.414 . S
C795 C798 1.499 . S
C796 H776 0.950 . S
C796 C795 1.414 . S
C796 C797 1.374 . S
C797 H777 0.950 . S
C797 C793 1.385 . S
C797 C796 1.374 . S
C798 C795 1.499 . S
C798 C799 1.373 . S
C798 C800 1.389 1_554 S
C799 H778 0.950 . S
C799 C798 1.373 . S
C799 C815 1.377 . S
C800 C798 1.389 1_556 S
C800 C801 1.524 . S
C800 C814 1.377 . S
C801 C800 1.524 . S
C801 C802 1.397 1_556 S
C801 C806 1.363 . S
C802 H779 0.950 . S
C802 C801 1.397 1_554 S
C802 C803 1.334 1_554 S
C803 H780 0.950 1_556 S
C803 C802 1.334 1_556 S
C803 C804 1.287 . S
C804 C803 1.287 . S
C804 C805 1.524 . S
C804 H823 0.913 . S
C805 H781 0.950 . S
C805 C804 1.524 . S
C805 C806 1.415 . S
C806 H782 0.950 . S
C806 C801 1.363 . S
C806 C805 1.415 . S
C807 H783 0.951 . S
C807 C808 1.366 . S
C807 C809 1.388 . S
C808 C807 1.366 . S
C808 C812 1.385 1_554 S
C809 H784 0.951 . S
C809 C807 1.388 . S
C809 C810 1.366 . S
C810 C809 1.366 . S
C810 C811 1.414 1_554 S
C810 C813 1.499 . S
C811 H785 0.950 . S
C811 C810 1.414 1_556 S
C811 C812 1.374 . S
C812 H786 0.950 . S
C812 C808 1.385 1_556 S
C812 C811 1.374 . S
C813 C810 1.499 . S
C813 C814 1.373 1_554 S
C813 C815 1.389 . S
C814 H787 0.950 . S
C814 C800 1.377 . S
C814 C813 1.373 1_556 S
C815 C799 1.377 . S
C815 C813 1.389 . S
C815 C816 1.524 . S
C816 C815 1.524 . S
C816 C817 1.397 . S
C816 C821 1.363 . S
C817 H788 0.950 1_554 S
C817 C816 1.397 . S
C817 C818 1.334 . S
C818 H789 0.950 . S
C818 C817 1.334 . S
C818 C819 1.287 . S
C819 C818 1.287 . S
C819 C820 1.524 . S
C819 H822 0.999 . S
C820 H790 0.950 . S
C820 C819 1.524 . S
C820 C821 1.415 . S
C821 H791 0.950 . S
C821 C816 1.363 . S
C821 C820 1.415 . S
H822 C819 0.999 . S
H823 C804 0.913 . S
H824 C842 0.951 . S
H825 C844 0.951 . S
H826 C846 0.950 . S
H827 C847 0.950 . S
H828 C849 0.950 . S
H829 C852 0.950 . S
H830 C853 0.950 . S
H831 C855 0.950 . S
H832 C856 0.950 . S
H833 C857 0.951 . S
H834 C859 0.951 . S
H835 C861 0.950 . S
H836 C862 0.950 . S
H837 C864 0.950 . S
H838 C867 0.950 . S
H839 C868 0.950 . S
H840 C870 0.950 . S
H841 C871 0.950 . S
C842 H824 0.951 . S
C842 C843 1.366 . S
C842 C844 1.388 . S
C843 C842 1.366 . S
C843 C847 1.385 . S
C844 H825 0.951 . S
C844 C842 1.388 . S
C844 C845 1.366 . S
C845 C844 1.366 . S
C845 C846 1.414 . S
C845 C848 1.499 . S
C846 H826 0.950 . S
C846 C845 1.414 . S
C846 C847 1.374 . S
C847 H827 0.950 . S
C847 C843 1.385 . S
C847 C846 1.374 . S
C848 C845 1.499 . S
C848 C849 1.373 . S
C848 C850 1.389 . S
C849 H828 0.950 . S
C849 C848 1.373 . S
C849 C865 1.377 . S
C850 C848 1.389 . S
C850 C851 1.524 . S
C850 C864 1.377 . S
C851 C850 1.524 . S
C851 C852 1.397 . S
C851 C856 1.363 . S
C852 H829 0.950 . S
C852 C851 1.397 . S
C852 C853 1.334 . S
C853 H830 0.950 . S
C853 C852 1.334 . S
C853 C854 1.287 . S
C854 C853 1.287 . S
C854 C855 1.524 . S
C854 H873 0.913 . S
C855 H831 0.950 . S
C855 C854 1.524 . S
C855 C856 1.415 . S
C856 H832 0.950 . S
C856 C851 1.363 . S
C856 C855 1.415 . S
C857 H833 0.951 . S
C857 C858 1.366 . S
C857 C859 1.388 . S
C858 C857 1.366 . S
C858 C862 1.385 . S
C859 H834 0.951 . S
C859 C857 1.388 . S
C859 C860 1.366 . S
C860 C859 1.366 . S
C860 C861 1.414 . S
C860 C863 1.499 . S
C861 H835 0.950 . S
C861 C860 1.414 . S
C861 C862 1.374 . S
C862 H836 0.950 . S
C862 C858 1.385 . S
C862 C861 1.374 . S
C863 C860 1.499 . S
C863 C864 1.373 . S
C863 C865 1.389 . S
C864 H837 0.950 . S
C864 C850 1.377 . S
C864 C863 1.373 . S
C865 C849 1.377 . S
C865 C863 1.389 . S
C865 C866 1.524 . S
C866 C865 1.524 . S
C866 C867 1.397 . S
C866 C871 1.363 . S
C867 H838 0.950 . S
C867 C866 1.397 . S
C867 C868 1.334 . S
C868 H839 0.950 . S
C868 C867 1.334 . S
C868 C869 1.287 . S
C869 C868 1.287 . S
C869 C870 1.524 . S
C869 H872 0.999 . S
C870 H840 0.950 . S
C870 C869 1.524 . S
C870 C871 1.415 . S
C871 H841 0.950 . S
C871 C866 1.363 . S
C871 C870 1.415 . S
H872 C869 0.999 . S
H873 C854 0.913 . S
H874 C892 0.951 . S
H875 C894 0.951 . S
H876 C896 0.950 . S
H877 C897 0.950 . S
H878 C899 0.950 . S
H879 C902 0.950 . S
H880 C903 0.950 . S
H881 C905 0.950 . S
H882 C906 0.950 . S
H883 C907 0.951 . S
H884 C909 0.951 . S
H885 C911 0.950 . S
H886 C912 0.950 . S
H887 C914 0.950 . S
H888 C917 0.950 . S
H889 C918 0.950 . S
H890 C920 0.950 . S
H891 C921 0.950 . S
C892 H874 0.951 . S
C892 C893 1.366 . S
C892 C894 1.388 . S
C893 C892 1.366 . S
C893 C897 1.385 . S
C894 H875 0.951 . S
C894 C892 1.388 . S
C894 C895 1.366 . S
C895 C894 1.366 . S
C895 C896 1.414 . S
C895 C898 1.499 . S
C896 H876 0.950 . S
C896 C895 1.414 . S
C896 C897 1.374 . S
C897 H877 0.950 . S
C897 C893 1.385 . S
C897 C896 1.374 . S
C898 C895 1.499 . S
C898 C899 1.373 . S
C898 C900 1.389 . S
C899 H878 0.950 . S
C899 C898 1.373 . S
C899 C915 1.377 . S
C900 C898 1.389 . S
C900 C901 1.524 . S
C900 C914 1.377 . S
C901 C900 1.524 . S
C901 C902 1.397 . S
C901 C906 1.363 . S
C902 H879 0.950 . S
C902 C901 1.397 . S
C902 C903 1.334 . S
C903 H880 0.950 . S
C903 C902 1.334 . S
C903 C904 1.287 . S
C904 C903 1.287 . S
C904 C905 1.524 . S
C904 H923 0.913 . S
C905 H881 0.950 . S
C905 C904 1.524 . S
C905 C906 1.415 . S
C906 H882 0.950 . S
C906 C901 1.363 . S
C906 C905 1.415 . S
C907 H883 0.951 . S
C907 C908 1.366 . S
C907 C909 1.388 . S
C908 C907 1.366 . S
C908 C912 1.385 . S
C909 H884 0.951 . S
C909 C907 1.388 . S
C909 C910 1.366 . S
C910 C909 1.366 . S
C910 C911 1.414 . S
C910 C913 1.499 . S
C911 H885 0.950 . S
C911 C910 1.414 . S
C911 C912 1.374 . S
C912 H886 0.950 . S
C912 C908 1.385 . S
C912 C911 1.374 . S
C913 C910 1.499 . S
C913 C914 1.373 . S
C913 C915 1.389 . S
C914 H887 0.950 . S
C914 C900 1.377 . S
C914 C913 1.373 . S
C915 C899 1.377 . S
C915 C913 1.389 . S
C915 C916 1.524 . S
C916 C915 1.524 . S
C916 C917 1.397 . S
C916 C921 1.363 . S
C917 H888 0.950 . S
C917 C916 1.397 . S
C917 C918 1.334 . S
C918 H889 0.950 . S
C918 C917 1.334 . S
C918 C919 1.287 . S
C919 C918 1.287 . S
C919 C920 1.524 . S
C919 H922 0.999 . S
C920 H890 0.950 . S
C920 C919 1.524 . S
C920 C921 1.415 . S
C921 H891 0.950 . S
C921 C916 1.363 . S
C921 C920 1.415 . S
H922 C919 0.999 . S
H923 C904 0.913 . S
H924 C942 0.951 . S
H925 C944 0.951 . S
H926 C946 0.950 . S
H927 C947 0.950 . S
H928 C949 0.950 . S
H929 C952 0.950 . S
H930 C953 0.950 . S
H931 C955 0.950 . S
H932 C956 0.950 . S
H933 C957 0.951 . S
H934 C959 0.951 . S
H935 C961 0.950 . S
H936 C962 0.950 . S
H937 C964 0.950 . S
H938 C967 0.950 . S
H939 C968 0.950 . S
H940 C970 0.950 . S
H941 C971 0.950 . S
C942 H924 0.951 . S
C942 C943 1.366 . S
C942 C944 1.388 . S
C943 C942 1.366 . S
C943 C947 1.385 . S
C944 H925 0.951 . S
C944 C942 1.388 . S
C944 C945 1.366 . S
C945 C944 1.366 . S
C945 C946 1.414 . S
C945 C948 1.499 . S
C946 H926 0.950 . S
C946 C945 1.414 . S
C946 C947 1.374 . S
C947 H927 0.950 . S
C947 C943 1.385 . S
C947 C946 1.374 . S
C948 C945 1.499 . S
C948 C949 1.373 . S
C948 C950 1.389 . S
C949 H928 0.950 . S
C949 C948 1.373 . S
C949 C965 1.377 . S
C950 C948 1.389 . S
C950 C951 1.524 . S
C950 C964 1.377 . S
C951 C950 1.524 . S
C951 C952 1.397 . S
C951 C956 1.363 . S
C952 H929 0.950 . S
C952 C951 1.397 . S
C952 C953 1.334 . S
C953 H930 0.950 . S
C953 C952 1.334 . S
C953 C954 1.287 . S
C954 C953 1.287 . S
C954 C955 1.524 . S
C954 H973 0.913 . S
C955 H931 0.950 . S
C955 C954 1.524 . S
C955 C956 1.415 . S
C956 H932 0.950 . S
C956 C951 1.363 . S
C956 C955 1.415 . S
C957 H933 0.951 . S
C957 C958 1.366 . S
C957 C959 1.388 . S
C958 C957 1.366 . S
C958 C962 1.385 . S
C959 H934 0.951 . S
C959 C957 1.388 . S
C959 C960 1.366 . S
C960 C959 1.366 . S
C960 C961 1.414 . S
C960 C963 1.499 . S
C961 H935 0.950 . S
C961 C960 1.414 . S
C961 C962 1.374 . S
C962 H936 0.950 . S
C962 C958 1.385 . S
C962 C961 1.374 . S
C963 C960 1.499 . S
C963 C964 1.373 . S
C963 C965 1.389 . S
C964 H937 0.950 . S
C964 C950 1.377 . S
C964 C963 1.373 . S
C965 C949 1.377 . S
C965 C963 1.389 . S
C965 C966 1.524 . S
C966 C965 1.524 . S
C966 C967 1.397 . S
C966 C971 1.363 . S
C967 H938 0.950 . S
C967 C966 1.397 . S
C967 C968 1.334 . S
C968 H939 0.950 . S
C968 C967 1.334 . S
C968 C969 1.287 . S
C969 C968 1.287 . S
C969 C970 1.524 . S
C969 H972 0.999 . S
C970 H940 0.950 . S
C970 C969 1.524 . S
C970 C971 1.415 . S
C971 H941 0.950 . S
C971 C966 1.363 . S
C971 C970 1.415 . S
H972 C969 0.999 . S
H973 C954 0.913 . S
H974 C992 0.951 . S
H975 C994 0.951 . S
H976 C996 0.950 . S
H977 C997 0.950 . S
H978 C999 0.950 . S
H979 C1002 0.950 . S
H980 C1003 0.950 . S
H981 C1005 0.950 . S
H982 C1006 0.950 . S
H983 C1007 0.951 . S
H984 C1009 0.951 . S
H985 C1011 0.950 . S
H986 C1012 0.950 . S
H987 C1014 0.950 . S
H988 C1017 0.950 . S
H989 C1018 0.950 . S
H990 C1020 0.950 . S
H991 C1021 0.950 . S
C992 H974 0.951 . S
C992 C993 1.366 . S
C992 C994 1.388 . S
C993 C992 1.366 . S
C993 C997 1.385 . S
C994 H975 0.951 . S
C994 C992 1.388 . S
C994 C995 1.366 . S
C995 C994 1.366 . S
C995 C996 1.414 . S
C995 C998 1.499 . S
C996 H976 0.950 . S
C996 C995 1.414 . S
C996 C997 1.374 . S
C997 H977 0.950 . S
C997 C993 1.385 . S
C997 C996 1.374 . S
C998 C995 1.499 . S
C998 C999 1.373 . S
C998 C1000 1.389 . S
C999 H978 0.950 . S
C999 C998 1.373 . S
C999 C1015 1.377 . S
C1000 C998 1.389 . S
C1000 C1001 1.524 . S
C1000 C1014 1.377 . S
C1001 C1000 1.524 . S
C1001 C1002 1.397 . S
C1001 C1006 1.363 . S
C1002 H979 0.950 . S
C1002 C1001 1.397 . S
C1002 C1003 1.334 . S
C1003 H980 0.950 . S
C1003 C1002 1.334 . S
C1003 C1004 1.287 . S
C1004 C1003 1.287 . S
C1004 C1005 1.524 . S
C1004 H1023 0.913 . S
C1005 H981 0.950 . S
C1005 C1004 1.524 . S
C1005 C1006 1.415 . S
C1006 H982 0.950 . S
C1006 C1001 1.363 . S
C1006 C1005 1.415 . S
C1007 H983 0.951 . S
C1007 C1008 1.366 . S
C1007 C1009 1.388 . S
C1008 C1007 1.366 . S
C1008 C1012 1.385 . S
C1009 H984 0.951 . S
C1009 C1007 1.388 . S
C1009 C1010 1.366 . S
C1010 C1009 1.366 . S
C1010 C1011 1.414 . S
C1010 C1013 1.499 . S
C1011 H985 0.950 . S
C1011 C1010 1.414 . S
C1011 C1012 1.374 . S
C1012 H986 0.950 . S
C1012 C1008 1.385 . S
C1012 C1011 1.374 . S
C1013 C1010 1.499 . S
C1013 C1014 1.373 . S
C1013 C1015 1.389 . S
C1014 H987 0.950 . S
C1014 C1000 1.377 . S
C1014 C1013 1.373 . S
C1015 C999 1.377 . S
C1015 C1013 1.389 . S
C1015 C1016 1.524 . S
C1016 C1015 1.524 . S
C1016 C1017 1.397 . S
C1016 C1021 1.363 . S
C1017 H988 0.950 . S
C1017 C1016 1.397 . S
C1017 C1018 1.334 . S
C1018 H989 0.950 . S
C1018 C1017 1.334 . S
C1018 C1019 1.287 . S
C1019 C1018 1.287 . S
C1019 C1020 1.524 . S
C1019 H1022 0.999 . S
C1020 H990 0.950 . S
C1020 C1019 1.524 . S
C1020 C1021 1.415 . S
C1021 H991 0.950 . S
C1021 C1016 1.363 . S
C1021 C1020 1.415 . S
H1022 C1019 0.999 . S
H1023 C1004 0.913 . S
H1024 C1042 0.951 . S
H1025 C1044 0.951 . S
H1026 C1046 0.950 . S
H1027 C1047 0.950 . S
H1028 C1049 0.950 . S
H1029 C1052 0.950 . S
H1030 C1053 0.950 . S
H1031 C1055 0.950 . S
H1032 C1056 0.950 . S
H1033 C1057 0.951 . S
H1034 C1059 0.951 . S
H1035 C1061 0.950 . S
H1036 C1062 0.950 . S
H1037 C1064 0.950 . S
H1038 C1067 0.950 . S
H1039 C1068 0.950 . S
H1040 C1070 0.950 . S
H1041 C1071 0.950 . S
C1042 H1024 0.951 . S
C1042 C1043 1.366 . S
C1042 C1044 1.388 . S
C1043 C1042 1.366 . S
C1043 C1047 1.385 . S
C1044 H1025 0.951 . S
C1044 C1042 1.388 . S
C1044 C1045 1.366 . S
C1045 C1044 1.366 . S
C1045 C1046 1.414 . S
C1045 C1048 1.499 . S
C1046 H1026 0.950 . S
C1046 C1045 1.414 . S
C1046 C1047 1.374 . S
C1047 H1027 0.950 . S
C1047 C1043 1.385 . S
C1047 C1046 1.374 . S
C1048 C1045 1.499 . S
C1048 C1049 1.373 . S
C1048 C1050 1.389 . S
C1049 H1028 0.950 . S
C1049 C1048 1.373 . S
C1049 C1065 1.377 . S
C1050 C1048 1.389 . S
C1050 C1051 1.524 . S
C1050 C1064 1.377 . S
C1051 C1050 1.524 . S
C1051 C1052 1.397 . S
C1051 C1056 1.363 . S
C1052 H1029 0.950 . S
C1052 C1051 1.397 . S
C1052 C1053 1.334 . S
C1053 H1030 0.950 . S
C1053 C1052 1.334 . S
C1053 C1054 1.287 . S
C1054 C1053 1.287 . S
C1054 C1055 1.524 . S
C1054 H1073 0.913 . S
C1055 H1031 0.950 . S
C1055 C1054 1.524 . S
C1055 C1056 1.415 . S
C1056 H1032 0.950 . S
C1056 C1051 1.363 . S
C1056 C1055 1.415 . S
C1057 H1033 0.951 . S
C1057 C1058 1.366 . S
C1057 C1059 1.388 . S
C1058 C1057 1.366 . S
C1058 C1062 1.385 . S
C1059 H1034 0.951 . S
C1059 C1057 1.388 . S
C1059 C1060 1.366 . S
C1060 C1059 1.366 . S
C1060 C1061 1.414 . S
C1060 C1063 1.499 . S
C1061 H1035 0.950 . S
C1061 C1060 1.414 . S
C1061 C1062 1.374 . S
C1062 H1036 0.950 . S
C1062 C1058 1.385 . S
C1062 C1061 1.374 . S
C1063 C1060 1.499 . S
C1063 C1064 1.373 . S
C1063 C1065 1.389 . S
C1064 H1037 0.950 . S
C1064 C1050 1.377 . S
C1064 C1063 1.373 . S
C1065 C1049 1.377 . S
C1065 C1063 1.389 . S
C1065 C1066 1.524 . S
C1066 C1065 1.524 . S
C1066 C1067 1.397 . S
C1066 C1071 1.363 . S
C1067 H1038 0.950 . S
C1067 C1066 1.397 . S
C1067 C1068 1.334 . S
C1068 H1039 0.950 . S
C1068 C1067 1.334 . S
C1068 C1069 1.287 . S
C1069 C1068 1.287 . S
C1069 C1070 1.524 . S
C1069 H1072 0.999 . S
C1070 H1040 0.950 . S
C1070 C1069 1.524 . S
C1070 C1071 1.415 . S
C1071 H1041 0.950 . S
C1071 C1066 1.363 . S
C1071 C1070 1.415 . S
H1072 C1069 0.999 . S
H1073 C1054 0.913 . S
H1074 C1092 0.951 . S
H1075 C1094 0.951 . S
H1076 C1096 0.950 . S
H1077 C1097 0.950 . S
H1078 C1099 0.950 . S
H1079 C1102 0.950 . S
H1080 C1103 0.950 . S
H1081 C1105 0.950 . S
H1082 C1106 0.950 . S
H1083 C1107 0.951 . S
H1084 C1109 0.951 . S
H1085 C1111 0.950 . S
H1086 C1112 0.950 . S
H1087 C1114 0.950 . S
H1088 C1117 0.950 . S
H1089 C1118 0.950 . S
H1090 C1120 0.950 . S
H1091 C1121 0.950 . S
C1092 H1074 0.951 . S
C1092 C1093 1.366 . S
C1092 C1094 1.388 . S
C1093 C1092 1.366 . S
C1093 C1097 1.385 . S
C1094 H1075 0.951 . S
C1094 C1092 1.388 . S
C1094 C1095 1.366 . S
C1095 C1094 1.366 . S
C1095 C1096 1.414 . S
C1095 C1098 1.499 . S
C1096 H1076 0.950 . S
C1096 C1095 1.414 . S
C1096 C1097 1.374 . S
C1097 H1077 0.950 . S
C1097 C1093 1.385 . S
C1097 C1096 1.374 . S
C1098 C1095 1.499 . S
C1098 C1099 1.373 . S
C1098 C1100 1.389 . S
C1099 H1078 0.950 . S
C1099 C1098 1.373 . S
C1099 C1115 1.377 . S
C1100 C1098 1.389 . S
C1100 C1101 1.524 . S
C1100 C1114 1.377 . S
C1101 C1100 1.524 . S
C1101 C1102 1.397 . S
C1101 C1106 1.363 . S
C1102 H1079 0.950 . S
C1102 C1101 1.397 . S
C1102 C1103 1.334 . S
C1103 H1080 0.950 . S
C1103 C1102 1.334 . S
C1103 C1104 1.287 . S
C1104 C1103 1.287 . S
C1104 C1105 1.524 . S
C1104 H1123 0.913 . S
C1105 H1081 0.950 . S
C1105 C1104 1.524 . S
C1105 C1106 1.415 . S
C1106 H1082 0.950 . S
C1106 C1101 1.363 . S
C1106 C1105 1.415 . S
C1107 H1083 0.951 . S
C1107 C1108 1.366 . S
C1107 C1109 1.388 . S
C1108 C1107 1.366 . S
C1108 C1112 1.385 . S
C1109 H1084 0.951 . S
C1109 C1107 1.388 . S
C1109 C1110 1.366 . S
C1110 C1109 1.366 . S
C1110 C1111 1.414 . S
C1110 C1113 1.499 . S
C1111 H1085 0.950 . S
C1111 C1110 1.414 . S
C1111 C1112 1.374 . S
C1112 H1086 0.950 . S
C1112 C1108 1.385 . S
C1112 C1111 1.374 . S
C1113 C1110 1.499 . S
C1113 C1114 1.373 . S
C1113 C1115 1.389 . S
C1114 H1087 0.950 . S
C1114 C1100 1.377 . S
C1114 C1113 1.373 . S
C1115 C1099 1.377 . S
C1115 C1113 1.389 . S
C1115 C1116 1.524 . S
C1116 C1115 1.524 . S
C1116 C1117 1.397 . S
C1116 C1121 1.363 . S
C1117 H1088 0.950 . S
C1117 C1116 1.397 . S
C1117 C1118 1.334 . S
C1118 H1089 0.950 . S
C1118 C1117 1.334 . S
C1118 C1119 1.287 . S
C1119 C1118 1.287 . S
C1119 C1120 1.524 . S
C1119 H1122 0.999 . S
C1120 H1090 0.950 . S
C1120 C1119 1.524 . S
C1120 C1121 1.415 . S
C1121 H1091 0.950 . S
C1121 C1116 1.363 . S
C1121 C1120 1.415 . S
H1122 C1119 0.999 . S
H1123 C1104 0.913 . S
H1124 C1142 0.951 . S
H1125 C1144 0.951 . S
H1126 C1146 0.950 . S
H1127 C1147 0.950 . S
H1128 C1149 0.950 . S
H1129 C1152 0.950 . S
H1130 C1153 0.950 . S
H1131 C1155 0.950 . S
H1132 C1156 0.950 . S
H1133 C1157 0.951 . S
H1134 C1159 0.951 . S
H1135 C1161 0.950 . S
H1136 C1162 0.950 . S
H1137 C1164 0.950 . S
H1138 C1167 0.950 . S
H1139 C1168 0.950 . S
H1140 C1170 0.950 . S
H1141 C1171 0.950 . S
C1142 H1124 0.951 . S
C1142 C1143 1.366 . S
C1142 C1144 1.388 . S
C1143 C1142 1.366 . S
C1143 C1147 1.385 . S
C1144 H1125 0.951 . S
C1144 C1142 1.388 . S
C1144 C1145 1.366 . S
C1145 C1144 1.366 . S
C1145 C1146 1.414 . S
C1145 C1148 1.499 . S
C1146 H1126 0.950 . S
C1146 C1145 1.414 . S
C1146 C1147 1.374 . S
C1147 H1127 0.950 . S
C1147 C1143 1.385 . S
C1147 C1146 1.374 . S
C1148 C1145 1.499 . S
C1148 C1149 1.373 . S
C1148 C1150 1.389 . S
C1149 H1128 0.950 . S
C1149 C1148 1.373 . S
C1149 C1165 1.377 . S
C1150 C1148 1.389 . S
C1150 C1151 1.524 . S
C1150 C1164 1.377 . S
C1151 C1150 1.524 . S
C1151 C1152 1.397 . S
C1151 C1156 1.363 . S
C1152 H1129 0.950 . S
C1152 C1151 1.397 . S
C1152 C1153 1.334 . S
C1153 H1130 0.950 . S
C1153 C1152 1.334 . S
C1153 C1154 1.287 . S
C1154 C1153 1.287 . S
C1154 C1155 1.524 . S
C1154 H1173 0.913 . S
C1155 H1131 0.950 . S
C1155 C1154 1.524 . S
C1155 C1156 1.415 . S
C1156 H1132 0.950 . S
C1156 C1151 1.363 . S
C1156 C1155 1.415 . S
C1157 H1133 0.951 . S
C1157 C1158 1.366 . S
C1157 C1159 1.388 . S
C1158 C1157 1.366 . S
C1158 C1162 1.385 . S
C1159 H1134 0.951 . S
C1159 C1157 1.388 . S
C1159 C1160 1.366 . S
C1160 C1159 1.366 . S
C1160 C1161 1.414 . S
C1160 C1163 1.499 . S
C1161 H1135 0.950 . S
C1161 C1160 1.414 . S
C1161 C1162 1.374 . S
C1162 H1136 0.950 . S
C1162 C1158 1.385 . S
C1162 C1161 1.374 . S
C1163 C1160 1.499 . S
C1163 C1164 1.373 . S
C1163 C1165 1.389 . S
C1164 H1137 0.950 . S
C1164 C1150 1.377 . S
C1164 C1163 1.373 . S
C1165 C1149 1.377 . S
C1165 C1163 1.389 . S
C1165 C1166 1.524 . S
C1166 C1165 1.524 . S
C1166 C1167 1.397 . S
C1166 C1171 1.363 . S
C1167 H1138 0.950 . S
C1167 C1166 1.397 . S
C1167 C1168 1.334 . S
C1168 H1139 0.950 . S
C1168 C1167 1.334 . S
C1168 C1169 1.287 . S
C1169 C1168 1.287 . S
C1169 C1170 1.524 . S
C1169 H1172 0.999 . S
C1170 H1140 0.950 . S
C1170 C1169 1.524 . S
C1170 C1171 1.415 . S
C1171 H1141 0.950 . S
C1171 C1166 1.363 . S
C1171 C1170 1.415 . S
H1172 C1169 0.999 . S
H1173 C1154 0.913 . S
H1174 C1192 0.951 . S
H1175 C1194 0.951 . S
H1176 C1196 0.950 . S
H1177 C1197 0.950 . S
H1178 C1199 0.950 . S
H1179 C1202 0.950 . S
H1180 C1203 0.950 . S
H1181 C1205 0.950 . S
H1182 C1206 0.950 . S
H1183 C1207 0.951 . S
H1184 C1209 0.951 . S
H1185 C1211 0.950 . S
H1186 C1212 0.950 . S
H1187 C1214 0.950 . S
H1188 C1217 0.950 . S
H1189 C1218 0.950 . S
H1190 C1220 0.950 . S
H1191 C1221 0.950 . S
C1192 H1174 0.951 . S
C1192 C1193 1.366 . S
C1192 C1194 1.388 . S
C1193 C1192 1.366 . S
C1193 C1197 1.385 . S
C1194 H1175 0.951 . S
C1194 C1192 1.388 . S
C1194 C1195 1.366 . S
C1195 C1194 1.366 . S
C1195 C1196 1.414 . S
C1195 C1198 1.499 . S
C1196 H1176 0.950 . S
C1196 C1195 1.414 . S
C1196 C1197 1.374 . S
C1197 H1177 0.950 . S
C1197 C1193 1.385 . S
C1197 C1196 1.374 . S
C1198 C1195 1.499 . S
C1198 C1199 1.373 . S
C1198 C1200 1.389 . S
C1199 H1178 0.950 . S
C1199 C1198 1.373 . S
C1199 C1215 1.377 . S
C1200 C1198 1.389 . S
C1200 C1201 1.524 . S
C1200 C1214 1.377 . S
C1201 C1200 1.524 . S
C1201 C1202 1.397 . S
C1201 C1206 1.363 . S
C1202 H1179 0.950 . S
C1202 C1201 1.397 . S
C1202 C1203 1.334 . S
C1203 H1180 0.950 . S
C1203 C1202 1.334 . S
C1203 C1204 1.287 . S
C1204 C1203 1.287 . S
C1204 C1205 1.524 . S
C1204 H1223 0.913 . S
C1205 H1181 0.950 . S
C1205 C1204 1.524 . S
C1205 C1206 1.415 . S
C1206 H1182 0.950 . S
C1206 C1201 1.363 . S
C1206 C1205 1.415 . S
C1207 H1183 0.951 . S
C1207 C1208 1.366 . S
C1207 C1209 1.388 . S
C1208 C1207 1.366 . S
C1208 C1212 1.385 . S
C1209 H1184 0.951 . S
C1209 C1207 1.388 . S
C1209 C1210 1.366 . S
C1210 C1209 1.366 . S
C1210 C1211 1.414 . S
C1210 C1213 1.499 . S
C1211 H1185 0.950 . S
C1211 C1210 1.414 . S
C1211 C1212 1.374 . S
C1212 H1186 0.950 . S
C1212 C1208 1.385 . S
C1212 C1211 1.374 . S
C1213 C1210 1.499 . S
C1213 C1214 1.373 . S
C1213 C1215 1.389 . S
C1214 H1187 0.950 . S
C1214 C1200 1.377 . S
C1214 C1213 1.373 . S
C1215 C1199 1.377 . S
C1215 C1213 1.389 . S
C1215 C1216 1.524 . S
C1216 C1215 1.524 . S
C1216 C1217 1.397 . S
C1216 C1221 1.363 . S
C1217 H1188 0.950 . S
C1217 C1216 1.397 . S
C1217 C1218 1.334 . S
C1218 H1189 0.950 . S
C1218 C1217 1.334 . S
C1218 C1219 1.287 . S
C1219 C1218 1.287 . S
C1219 C1220 1.524 . S
C1219 H1222 0.999 . S
C1220 H1190 0.950 . S
C1220 C1219 1.524 . S
C1220 C1221 1.415 . S
C1221 H1191 0.950 . S
C1221 C1216 1.363 . S
C1221 C1220 1.415 . S
H1222 C1219 0.999 . S
H1223 C1204 0.913 . S
H1224 C1242 0.951 . S
H1225 C1244 0.951 . S
H1226 C1246 0.950 . S
H1227 C1247 0.950 . S
H1228 C1249 0.950 . S
H1229 C1252 0.950 . S
H1230 C1253 0.950 . S
H1231 C1255 0.950 . S
H1232 C1256 0.950 . S
H1233 C1257 0.951 . S
H1234 C1259 0.951 . S
H1235 C1261 0.950 . S
H1236 C1262 0.950 . S
H1237 C1264 0.950 . S
H1238 C1267 0.950 . S
H1239 C1268 0.950 . S
H1240 C1270 0.950 . S
H1241 C1271 0.950 . S
C1242 H1224 0.951 . S
C1242 C1243 1.366 . S
C1242 C1244 1.388 . S
C1243 C1242 1.366 . S
C1243 C1247 1.385 . S
C1244 H1225 0.951 . S
C1244 C1242 1.388 . S
C1244 C1245 1.366 . S
C1245 C1244 1.366 . S
C1245 C1246 1.414 . S
C1245 C1248 1.499 . S
C1246 H1226 0.950 . S
C1246 C1245 1.414 . S
C1246 C1247 1.374 . S
C1247 H1227 0.950 . S
C1247 C1243 1.385 . S
C1247 C1246 1.374 . S
C1248 C1245 1.499 . S
C1248 C1249 1.373 . S
C1248 C1250 1.389 . S
C1249 H1228 0.950 . S
C1249 C1248 1.373 . S
C1249 C1265 1.377 . S
C1250 C1248 1.389 . S
C1250 C1251 1.524 . S
C1250 C1264 1.377 . S
C1251 C1250 1.524 . S
C1251 C1252 1.397 . S
C1251 C1256 1.363 . S
C1252 H1229 0.950 . S
C1252 C1251 1.397 . S
C1252 C1253 1.334 . S
C1253 H1230 0.950 . S
C1253 C1252 1.334 . S
C1253 C1254 1.287 . S
C1254 C1253 1.287 . S
C1254 C1255 1.524 . S
C1254 H1273 0.913 . S
C1255 H1231 0.950 . S
C1255 C1254 1.524 . S
C1255 C1256 1.415 . S
C1256 H1232 0.950 . S
C1256 C1251 1.363 . S
C1256 C1255 1.415 . S
C1257 H1233 0.951 . S
C1257 C1258 1.366 . S
C1257 C1259 1.388 . S
C1258 C1257 1.366 . S
C1258 C1262 1.385 . S
C1259 H1234 0.951 . S
C1259 C1257 1.388 . S
C1259 C1260 1.366 . S
C1260 C1259 1.366 . S
C1260 C1261 1.414 . S
C1260 C1263 1.499 . S
C1261 H1235 0.950 . S
C1261 C1260 1.414 . S
C1261 C1262 1.374 . S
C1262 H1236 0.950 . S
C1262 C1258 1.385 . S
C1262 C1261 1.374 . S
C1263 C1260 1.499 . S
C1263 C1264 1.373 . S
C1263 C1265 1.389 . S
C1264 H1237 0.950 . S
C1264 C1250 1.377 . S
C1264 C1263 1.373 . S
C1265 C1249 1.377 . S
C1265 C1263 1.389 . S
C1265 C1266 1.524 . S
C1266 C1265 1.524 . S
C1266 C1267 1.397 . S
C1266 C1271 1.363 . S
C1267 H1238 0.950 . S
C1267 C1266 1.397 . S
C1267 C1268 1.334 . S
C1268 H1239 0.950 . S
C1268 C1267 1.334 . S
C1268 C1269 1.287 . S
C1269 C1268 1.287 . S
C1269 C1270 1.524 . S
C1269 H1272 0.999 . S
C1270 H1240 0.950 . S
C1270 C1269 1.524 . S
C1270 C1271 1.415 . S
C1271 H1241 0.950 . S
C1271 C1266 1.363 . S
C1271 C1270 1.415 . S
H1272 C1269 0.999 . S
H1273 C1254 0.913 . S
H1274 C1292 0.951 . S
H1275 C1294 0.951 . S
H1276 C1296 0.950 . S
H1277 C1297 0.950 . S
H1278 C1299 0.950 . S
H1279 C1302 0.950 . S
H1280 C1303 0.950 . S
H1281 C1305 0.950 . S
H1282 C1306 0.950 . S
H1283 C1307 0.951 . S
H1284 C1309 0.951 . S
H1285 C1311 0.950 . S
H1286 C1312 0.950 . S
H1287 C1314 0.950 . S
H1288 C1317 0.950 . S
H1289 C1318 0.950 . S
H1290 C1320 0.950 . S
H1291 C1321 0.950 . S
C1292 H1274 0.951 . S
C1292 C1293 1.366 . S
C1292 C1294 1.388 . S
C1293 C1292 1.366 . S
C1293 C1297 1.385 . S
C1294 H1275 0.951 . S
C1294 C1292 1.388 . S
C1294 C1295 1.366 . S
C1295 C1294 1.366 . S
C1295 C1296 1.414 . S
C1295 C1298 1.499 . S
C1296 H1276 0.950 . S
C1296 C1295 1.414 . S
C1296 C1297 1.374 . S
C1297 H1277 0.950 . S
C1297 C1293 1.385 . S
C1297 C1296 1.374 . S
C1298 C1295 1.499 . S
C1298 C1299 1.373 . S
C1298 C1300 1.389 . S
C1299 H1278 0.950 . S
C1299 C1298 1.373 . S
C1299 C1315 1.377 . S
C1300 C1298 1.389 . S
C1300 C1301 1.524 . S
C1300 C1314 1.377 . S
C1301 C1300 1.524 . S
C1301 C1302 1.397 . S
C1301 C1306 1.363 . S
C1302 H1279 0.950 . S
C1302 C1301 1.397 . S
C1302 C1303 1.334 . S
C1303 H1280 0.950 . S
C1303 C1302 1.334 . S
C1303 C1304 1.287 . S
C1304 C1303 1.287 . S
C1304 C1305 1.524 . S
C1304 H1323 0.913 . S
C1305 H1281 0.950 . S
C1305 C1304 1.524 . S
C1305 C1306 1.415 . S
C1306 H1282 0.950 . S
C1306 C1301 1.363 . S
C1306 C1305 1.415 . S
C1307 H1283 0.951 . S
C1307 C1308 1.366 . S
C1307 C1309 1.388 . S
C1308 C1307 1.366 . S
C1308 C1312 1.385 . S
C1309 H1284 0.951 . S
C1309 C1307 1.388 . S
C1309 C1310 1.366 . S
C1310 C1309 1.366 . S
C1310 C1311 1.414 . S
C1310 C1313 1.499 . S
C1311 H1285 0.950 . S
C1311 C1310 1.414 . S
C1311 C1312 1.374 . S
C1312 H1286 0.950 . S
C1312 C1308 1.385 . S
C1312 C1311 1.374 . S
C1313 C1310 1.499 . S
C1313 C1314 1.373 . S
C1313 C1315 1.389 . S
C1314 H1287 0.950 . S
C1314 C1300 1.377 . S
C1314 C1313 1.373 . S
C1315 C1299 1.377 . S
C1315 C1313 1.389 . S
C1315 C1316 1.524 . S
C1316 C1315 1.524 . S
C1316 C1317 1.397 . S
C1316 C1321 1.363 . S
C1317 H1288 0.950 . S
C1317 C1316 1.397 . S
C1317 C1318 1.334 . S
C1318 H1289 0.950 . S
C1318 C1317 1.334 . S
C1318 C1319 1.287 . S
C1319 C1318 1.287 . S
C1319 C1320 1.524 . S
C1319 H1322 0.999 . S
C1320 H1290 0.950 . S
C1320 C1319 1.524 . S
C1320 C1321 1.415 . S
C1321 H1291 0.950 . S
C1321 C1316 1.363 . S
C1321 C1320 1.415 . S
H1322 C1319 0.999 . S
H1323 C1304 0.913 . S
H1324 C1342 0.951 . S
H1325 C1344 0.951 . S
H1326 C1346 0.950 . S
H1327 C1347 0.950 . S
H1328 C1349 0.950 . S
H1329 C1352 0.950 . S
H1330 C1353 0.950 . S
H1331 C1355 0.950 . S
H1332 C1356 0.950 . S
H1333 C1357 0.951 . S
H1334 C1359 0.951 . S
H1335 C1361 0.950 . S
H1336 C1362 0.950 . S
H1337 C1364 0.950 . S
H1338 C1367 0.950 . S
H1339 C1368 0.950 . S
H1340 C1370 0.950 . S
H1341 C1371 0.950 . S
C1342 H1324 0.951 . S
C1342 C1343 1.366 . S
C1342 C1344 1.388 . S
C1343 C1342 1.366 . S
C1343 C1347 1.385 . S
C1344 H1325 0.951 . S
C1344 C1342 1.388 . S
C1344 C1345 1.366 . S
C1345 C1344 1.366 . S
C1345 C1346 1.414 . S
C1345 C1348 1.499 . S
C1346 H1326 0.950 . S
C1346 C1345 1.414 . S
C1346 C1347 1.374 . S
C1347 H1327 0.950 . S
C1347 C1343 1.385 . S
C1347 C1346 1.374 . S
C1348 C1345 1.499 . S
C1348 C1349 1.373 . S
C1348 C1350 1.389 . S
C1349 H1328 0.950 . S
C1349 C1348 1.373 . S
C1349 C1365 1.377 . S
C1350 C1348 1.389 . S
C1350 C1351 1.524 . S
C1350 C1364 1.377 . S
C1351 C1350 1.524 . S
C1351 C1352 1.397 . S
C1351 C1356 1.363 . S
C1352 H1329 0.950 . S
C1352 C1351 1.397 . S
C1352 C1353 1.334 . S
C1353 H1330 0.950 . S
C1353 C1352 1.334 . S
C1353 C1354 1.287 . S
C1354 C1353 1.287 . S
C1354 C1355 1.524 . S
C1354 H1373 0.913 . S
C1355 H1331 0.950 . S
C1355 C1354 1.524 . S
C1355 C1356 1.415 . S
C1356 H1332 0.950 . S
C1356 C1351 1.363 . S
C1356 C1355 1.415 . S
C1357 H1333 0.951 . S
C1357 C1358 1.366 . S
C1357 C1359 1.388 . S
C1358 C1357 1.366 . S
C1358 C1362 1.385 . S
C1359 H1334 0.951 . S
C1359 C1357 1.388 . S
C1359 C1360 1.366 . S
C1360 C1359 1.366 . S
C1360 C1361 1.414 . S
C1360 C1363 1.499 . S
C1361 H1335 0.950 . S
C1361 C1360 1.414 . S
C1361 C1362 1.374 . S
C1362 H1336 0.950 . S
C1362 C1358 1.385 . S
C1362 C1361 1.374 . S
C1363 C1360 1.499 . S
C1363 C1364 1.373 . S
C1363 C1365 1.389 . S
C1364 H1337 0.950 . S
C1364 C1350 1.377 . S
C1364 C1363 1.373 . S
C1365 C1349 1.377 . S
C1365 C1363 1.389 . S
C1365 C1366 1.524 . S
C1366 C1365 1.524 . S
C1366 C1367 1.397 . S
C1366 C1371 1.363 . S
C1367 H1338 0.950 . S
C1367 C1366 1.397 . S
C1367 C1368 1.334 . S
C1368 H1339 0.950 . S
C1368 C1367 1.334 . S
C1368 C1369 1.287 . S
C1369 C1368 1.287 . S
C1369 C1370 1.524 . S
C1369 H1372 0.999 . S
C1370 H1340 0.950 . S
C1370 C1369 1.524 . S
C1370 C1371 1.415 . S
C1371 H1341 0.950 . S
C1371 C1366 1.363 . S
C1371 C1370 1.415 . S
H1372 C1369 0.999 . S
H1373 C1354 0.913 . S
H1374 C1392 0.951 . S
H1375 C1394 0.951 . S
H1376 C1396 0.950 . S
H1377 C1397 0.950 . S
H1378 C1399 0.950 . S
H1379 C1402 0.950 . S
H1380 C1403 0.950 . S
H1381 C1405 0.950 . S
H1382 C1406 0.950 . S
H1383 C1407 0.951 . S
H1384 C1409 0.951 . S
H1385 C1411 0.950 . S
H1386 C1412 0.950 . S
H1387 C1414 0.950 . S
H1388 C1417 0.950 . S
H1389 C1418 0.950 . S
H1390 C1420 0.950 . S
H1391 C1421 0.950 . S
C1392 H1374 0.951 . S
C1392 C1393 1.366 . S
C1392 C1394 1.388 . S
C1393 C1392 1.366 . S
C1393 C1397 1.385 . S
C1394 H1375 0.951 . S
C1394 C1392 1.388 . S
C1394 C1395 1.366 . S
C1395 C1394 1.366 . S
C1395 C1396 1.414 . S
C1395 C1398 1.499 . S
C1396 H1376 0.950 . S
C1396 C1395 1.414 . S
C1396 C1397 1.374 . S
C1397 H1377 0.950 . S
C1397 C1393 1.385 . S
C1397 C1396 1.374 . S
C1398 C1395 1.499 . S
C1398 C1399 1.373 . S
C1398 C1400 1.389 . S
C1399 H1378 0.950 . S
C1399 C1398 1.373 . S
C1399 C1415 1.377 . S
C1400 C1398 1.389 . S
C1400 C1401 1.524 . S
C1400 C1414 1.377 . S
C1401 C1400 1.524 . S
C1401 C1402 1.397 . S
C1401 C1406 1.363 . S
C1402 H1379 0.950 . S
C1402 C1401 1.397 . S
C1402 C1403 1.334 . S
C1403 H1380 0.950 . S
C1403 C1402 1.334 . S
C1403 C1404 1.287 . S
C1404 C1403 1.287 . S
C1404 C1405 1.524 . S
C1404 H1423 0.913 . S
C1405 H1381 0.950 . S
C1405 C1404 1.524 . S
C1405 C1406 1.415 . S
C1406 H1382 0.950 . S
C1406 C1401 1.363 . S
C1406 C1405 1.415 . S
C1407 H1383 0.951 . S
C1407 C1408 1.366 . S
C1407 C1409 1.388 . S
C1408 C1407 1.366 . S
C1408 C1412 1.385 . S
C1409 H1384 0.951 . S
C1409 C1407 1.388 . S
C1409 C1410 1.366 . S
C1410 C1409 1.366 . S
C1410 C1411 1.414 . S
C1410 C1413 1.499 . S
C1411 H1385 0.950 . S
C1411 C1410 1.414 . S
C1411 C1412 1.374 . S
C1412 H1386 0.950 . S
C1412 C1408 1.385 . S
C1412 C1411 1.374 . S
C1413 C1410 1.499 . S
C1413 C1414 1.373 . S
C1413 C1415 1.389 . S
C1414 H1387 0.950 . S
C1414 C1400 1.377 . S
C1414 C1413 1.373 . S
C1415 C1399 1.377 . S
C1415 C1413 1.389 . S
C1415 C1416 1.524 . S
C1416 C1415 1.524 . S
C1416 C1417 1.397 . S
C1416 C1421 1.363 . S
C1417 H1388 0.950 . S
C1417 C1416 1.397 . S
C1417 C1418 1.334 . S
C1418 H1389 0.950 . S
C1418 C1417 1.334 . S
C1418 C1419 1.287 . S
C1419 C1418 1.287 . S
C1419 C1420 1.524 . S
C1419 H1422 0.999 . S
C1420 H1390 0.950 . S
C1420 C1419 1.524 . S
C1420 C1421 1.415 . S
C1421 H1391 0.950 . S
C1421 C1416 1.363 . S
C1421 C1420 1.415 . S
H1422 C1419 0.999 . S
H1423 C1404 0.913 . S
H1424 C1442 0.951 . S
H1425 C1444 0.951 . S
H1426 C1446 0.950 . S
H1427 C1447 0.950 . S
H1428 C1449 0.950 . S
H1429 C1452 0.950 . S
H1430 C1453 0.950 . S
H1431 C1455 0.950 . S
H1432 C1456 0.950 . S
H1433 C1457 0.951 . S
H1434 C1459 0.951 . S
H1435 C1461 0.950 . S
H1436 C1462 0.950 . S
H1437 C1464 0.950 . S
H1438 C1467 0.950 . S
H1439 C1468 0.950 . S
H1440 C1470 0.950 . S
H1441 C1471 0.950 . S
C1442 H1424 0.951 . S
C1442 C1443 1.366 . S
C1442 C1444 1.388 . S
C1443 C1442 1.366 . S
C1443 C1447 1.385 . S
C1444 H1425 0.951 . S
C1444 C1442 1.388 . S
C1444 C1445 1.366 . S
C1445 C1444 1.366 . S
C1445 C1446 1.414 . S
C1445 C1448 1.499 . S
C1446 H1426 0.950 . S
C1446 C1445 1.414 . S
C1446 C1447 1.374 . S
C1447 H1427 0.950 . S
C1447 C1443 1.385 . S
C1447 C1446 1.374 . S
C1448 C1445 1.499 . S
C1448 C1449 1.373 . S
C1448 C1450 1.389 . S
C1449 H1428 0.950 . S
C1449 C1448 1.373 . S
C1449 C1465 1.377 . S
C1450 C1448 1.389 . S
C1450 C1451 1.524 . S
C1450 C1464 1.377 . S
C1451 C1450 1.524 . S
C1451 C1452 1.397 . S
C1451 C1456 1.363 . S
C1452 H1429 0.950 . S
C1452 C1451 1.397 . S
C1452 C1453 1.334 . S
C1453 H1430 0.950 . S
C1453 C1452 1.334 . S
C1453 C1454 1.287 . S
C1454 C1453 1.287 . S
C1454 C1455 1.524 . S
C1454 H1473 0.913 . S
C1455 H1431 0.950 . S
C1455 C1454 1.524 . S
C1455 C1456 1.415 . S
C1456 H1432 0.950 . S
C1456 C1451 1.363 . S
C1456 C1455 1.415 . S
C1457 H1433 0.951 . S
C1457 C1458 1.366 . S
C1457 C1459 1.388 . S
C1458 C1457 1.366 . S
C1458 C1462 1.385 . S
C1459 H1434 0.951 . S
C1459 C1457 1.388 . S
C1459 C1460 1.366 . S
C1460 C1459 1.366 . S
C1460 C1461 1.414 . S
C1460 C1463 1.499 . S
C1461 H1435 0.950 . S
C1461 C1460 1.414 . S
C1461 C1462 1.374 . S
C1462 H1436 0.950 . S
C1462 C1458 1.385 . S
C1462 C1461 1.374 . S
C1463 C1460 1.499 . S
C1463 C1464 1.373 . S
C1463 C1465 1.389 . S
C1464 H1437 0.950 . S
C1464 C1450 1.377 . S
C1464 C1463 1.373 . S
C1465 C1449 1.377 . S
C1465 C1463 1.389 . S
C1465 C1466 1.524 . S
C1466 C1465 1.524 . S
C1466 C1467 1.397 . S
C1466 C1471 1.363 . S
C1467 H1438 0.950 . S
C1467 C1466 1.397 . S
C1467 C1468 1.334 . S
C1468 H1439 0.950 . S
C1468 C1467 1.334 . S
C1468 C1469 1.287 . S
C1469 C1468 1.287 . S
C1469 C1470 1.524 . S
C1469 H1472 0.999 . S
C1470 H1440 0.950 . S
C1470 C1469 1.524 . S
C1470 C1471 1.415 . S
C1471 H1441 0.950 . S
C1471 C1466 1.363 . S
C1471 C1470 1.415 . S
H1472 C1469 0.999 . S
H1473 C1454 0.913 . S
H1474 C1492 0.951 . S
H1475 C1494 0.951 . S
H1476 C1496 0.950 . S
H1477 C1497 0.950 . S
H1478 C1499 0.950 . S
H1479 C1502 0.950 . S
H1480 C1503 0.950 . S
H1481 C1505 0.950 . S
H1482 C1506 0.950 . S
H1483 C1507 0.951 . S
H1484 C1509 0.951 . S
H1485 C1511 0.950 . S
H1486 C1512 0.950 . S
H1487 C1514 0.950 . S
H1488 C1517 0.950 . S
H1489 C1518 0.950 . S
H1490 C1520 0.950 . S
H1491 C1521 0.950 . S
C1492 H1474 0.951 . S
C1492 C1493 1.366 . S
C1492 C1494 1.388 . S
C1493 C1492 1.366 . S
C1493 C1497 1.385 . S
C1494 H1475 0.951 . S
C1494 C1492 1.388 . S
C1494 C1495 1.366 . S
C1495 C1494 1.366 . S
C1495 C1496 1.414 . S
C1495 C1498 1.499 . S
C1496 H1476 0.950 . S
C1496 C1495 1.414 . S
C1496 C1497 1.374 . S
C1497 H1477 0.950 . S
C1497 C1493 1.385 . S
C1497 C1496 1.374 . S
C1498 C1495 1.499 . S
C1498 C1499 1.373 . S
C1498 C1500 1.389 . S
C1499 H1478 0.950 . S
C1499 C1498 1.373 . S
C1499 C1515 1.377 . S
C1500 C1498 1.389 . S
C1500 C1501 1.524 . S
C1500 C1514 1.377 . S
C1501 C1500 1.524 . S
C1501 C1502 1.397 . S
C1501 C1506 1.363 . S
C1502 H1479 0.950 . S
C1502 C1501 1.397 . S
C1502 C1503 1.334 . S
C1503 H1480 0.950 . S
C1503 C1502 1.334 . S
C1503 C1504 1.287 . S
C1504 C1503 1.287 . S
C1504 C1505 1.524 . S
C1504 H1523 0.913 . S
C1505 H1481 0.950 . S
C1505 C1504 1.524 . S
C1505 C1506 1.415 . S
C1506 H1482 0.950 . S
C1506 C1501 1.363 . S
C1506 C1505 1.415 . S
C1507 H1483 0.951 . S
C1507 C1508 1.366 . S
C1507 C1509 1.388 . S
C1508 C1507 1.366 . S
C1508 C1512 1.385 . S
C1509 H1484 0.951 . S
C1509 C1507 1.388 . S
C1509 C1510 1.366 . S
C1510 C1509 1.366 . S
C1510 C1511 1.414 . S
C1510 C1513 1.499 . S
C1511 H1485 0.950 . S
C1511 C1510 1.414 . S
C1511 C1512 1.374 . S
C1512 H1486 0.950 . S
C1512 C1508 1.385 . S
C1512 C1511 1.374 . S
C1513 C1510 1.499 . S
C1513 C1514 1.373 . S
C1513 C1515 1.389 . S
C1514 H1487 0.950 . S
C1514 C1500 1.377 . S
C1514 C1513 1.373 . S
C1515 C1499 1.377 . S
C1515 C1513 1.389 . S
C1515 C1516 1.524 . S
C1516 C1515 1.524 . S
C1516 C1517 1.397 . S
C1516 C1521 1.363 . S
C1517 H1488 0.950 . S
C1517 C1516 1.397 . S
C1517 C1518 1.334 . S
C1518 H1489 0.950 . S
C1518 C1517 1.334 . S
C1518 C1519 1.287 . S
C1519 C1518 1.287 . S
C1519 C1520 1.524 . S
C1519 H1522 0.999 . S
C1520 H1490 0.950 . S
C1520 C1519 1.524 . S
C1520 C1521 1.415 . S
C1521 H1491 0.950 . S
C1521 C1516 1.363 . S
C1521 C1520 1.415 . S
H1522 C1519 0.999 . S
H1523 C1504 0.913 . S
H1524 C1542 0.951 . S
H1525 C1544 0.951 . S
H1526 C1546 0.950 . S
H1527 C1547 0.950 . S
H1528 C1549 0.950 . S
H1529 C1552 0.950 . S
H1530 C1553 0.950 . S
H1531 C1555 0.950 . S
H1532 C1556 0.950 . S
H1533 C1557 0.951 . S
H1534 C1559 0.951 . S
H1535 C1561 0.950 . S
H1536 C1562 0.950 . S
H1537 C1564 0.950 . S
H1538 C1567 0.950 . S
H1539 C1568 0.950 . S
H1540 C1570 0.950 . S
H1541 C1571 0.950 . S
C1542 H1524 0.951 . S
C1542 C1543 1.366 . S
C1542 C1544 1.388 . S
C1543 C1542 1.366 . S
C1543 C1547 1.385 . S
C1544 H1525 0.951 . S
C1544 C1542 1.388 . S
C1544 C1545 1.366 . S
C1545 C1544 1.366 . S
C1545 C1546 1.414 . S
C1545 C1548 1.499 . S
C1546 H1526 0.950 . S
C1546 C1545 1.414 . S
C1546 C1547 1.374 . S
C1547 H1527 0.950 . S
C1547 C1543 1.385 . S
C1547 C1546 1.374 . S
C1548 C1545 1.499 . S
C1548 C1549 1.373 . S
C1548 C1550 1.389 . S
C1549 H1528 0.950 . S
C1549 C1548 1.373 . S
C1549 C1565 1.377 . S
C1550 C1548 1.389 . S
C1550 C1551 1.524 . S
C1550 C1564 1.377 . S
C1551 C1550 1.524 . S
C1551 C1552 1.397 . S
C1551 C1556 1.363 . S
C1552 H1529 0.950 . S
C1552 C1551 1.397 . S
C1552 C1553 1.334 . S
C1553 H1530 0.950 . S
C1553 C1552 1.334 . S
C1553 C1554 1.287 . S
C1554 C1553 1.287 . S
C1554 C1555 1.524 . S
C1554 H1573 0.913 . S
C1555 H1531 0.950 . S
C1555 C1554 1.524 . S
C1555 C1556 1.415 . S
C1556 H1532 0.950 . S
C1556 C1551 1.363 . S
C1556 C1555 1.415 . S
C1557 H1533 0.951 . S
C1557 C1558 1.366 . S
C1557 C1559 1.388 . S
C1558 C1557 1.366 . S
C1558 C1562 1.385 . S
C1559 H1534 0.951 . S
C1559 C1557 1.388 . S
C1559 C1560 1.366 . S
C1560 C1559 1.366 . S
C1560 C1561 1.414 . S
C1560 C1563 1.499 . S
C1561 H1535 0.950 . S
C1561 C1560 1.414 . S
C1561 C1562 1.374 . S
C1562 H1536 0.950 . S
C1562 C1558 1.385 . S
C1562 C1561 1.374 . S
C1563 C1560 1.499 . S
C1563 C1564 1.373 . S
C1563 C1565 1.389 . S
C1564 H1537 0.950 . S
C1564 C1550 1.377 . S
C1564 C1563 1.373 . S
C1565 C1549 1.377 . S
C1565 C1563 1.389 . S
C1565 C1566 1.524 . S
C1566 C1565 1.524 . S
C1566 C1567 1.397 . S
C1566 C1571 1.363 . S
C1567 H1538 0.950 . S
C1567 C1566 1.397 . S
C1567 C1568 1.334 . S
C1568 H1539 0.950 . S
C1568 C1567 1.334 . S
C1568 C1569 1.287 . S
C1569 C1568 1.287 . S
C1569 C1570 1.524 . S
C1569 H1572 0.999 . S
C1570 H1540 0.950 . S
C1570 C1569 1.524 . S
C1570 C1571 1.415 . S
C1571 H1541 0.950 . S
C1571 C1566 1.363 . S
C1571 C1570 1.415 . S
H1572 C1569 0.999 . S
H1573 C1554 0.913 . S
H1574 C1592 0.951 . S
H1575 C1594 0.951 . S
H1576 C1596 0.950 . S
H1577 C1597 0.950 . S
H1578 C1599 0.950 . S
H1579 C1602 0.950 . S
H1580 C1603 0.950 . S
H1581 C1605 0.950 . S
H1582 C1606 0.950 . S
H1583 C1607 0.951 . S
H1584 C1609 0.951 . S
H1585 C1611 0.950 . S
H1586 C1612 0.950 . S
H1587 C1614 0.950 . S
H1588 C1617 0.950 . S
H1589 C1618 0.950 . S
H1590 C1620 0.950 . S
H1591 C1621 0.950 . S
C1592 H1574 0.951 . S
C1592 C1593 1.366 . S
C1592 C1594 1.388 . S
C1593 C1592 1.366 . S
C1593 C1597 1.385 . S
C1594 H1575 0.951 . S
C1594 C1592 1.388 . S
C1594 C1595 1.366 . S
C1595 C1594 1.366 . S
C1595 C1596 1.414 . S
C1595 C1598 1.499 . S
C1596 H1576 0.950 . S
C1596 C1595 1.414 . S
C1596 C1597 1.374 . S
C1597 H1577 0.950 . S
C1597 C1593 1.385 . S
C1597 C1596 1.374 . S
C1598 C1595 1.499 . S
C1598 C1599 1.373 . S
C1598 C1600 1.389 . S
C1599 H1578 0.950 . S
C1599 C1598 1.373 . S
C1599 C1615 1.377 . S
C1600 C1598 1.389 . S
C1600 C1601 1.524 . S
C1600 C1614 1.377 . S
C1601 C1600 1.524 . S
C1601 C1602 1.397 . S
C1601 C1606 1.363 . S
C1602 H1579 0.950 . S
C1602 C1601 1.397 . S
C1602 C1603 1.334 . S
C1603 H1580 0.950 . S
C1603 C1602 1.334 . S
C1603 C1604 1.287 . S
C1604 C1603 1.287 . S
C1604 C1605 1.524 . S
C1604 H1623 0.913 . S
C1605 H1581 0.950 . S
C1605 C1604 1.524 . S
C1605 C1606 1.415 . S
C1606 H1582 0.950 . S
C1606 C1601 1.363 . S
C1606 C1605 1.415 . S
C1607 H1583 0.951 . S
C1607 C1608 1.366 . S
C1607 C1609 1.388 . S
C1608 C1607 1.366 . S
C1608 C1612 1.385 . S
C1609 H1584 0.951 . S
C1609 C1607 1.388 . S
C1609 C1610 1.366 . S
C1610 C1609 1.366 . S
C1610 C1611 1.414 . S
C1610 C1613 1.499 . S
C1611 H1585 0.950 . S
C1611 C1610 1.414 . S
C1611 C1612 1.374 . S
C1612 H1586 0.950 . S
C1612 C1608 1.385 . S
C1612 C1611 1.374 . S
C1613 C1610 1.499 . S
C1613 C1614 1.373 . S
C1613 C1615 1.389 . S
C1614 H1587 0.950 . S
C1614 C1600 1.377 . S
C1614 C1613 1.373 . S
C1615 C1599 1.377 . S
C1615 C1613 1.389 . S
C1615 C1616 1.524 . S
C1616 C1615 1.524 . S
C1616 C1617 1.397 . S
C1616 C1621 1.363 . S
C1617 H1588 0.950 . S
C1617 C1616 1.397 . S
C1617 C1618 1.334 . S
C1618 H1589 0.950 . S
C1618 C1617 1.334 . S
C1618 C1619 1.287 . S
C1619 C1618 1.287 . S
C1619 C1620 1.524 . S
C1619 H1622 0.999 . S
C1620 H1590 0.950 . S
C1620 C1619 1.524 . S
C1620 C1621 1.415 . S
C1621 H1591 0.950 . S
C1621 C1616 1.363 . S
C1621 C1620 1.415 . S
H1622 C1619 0.999 . S
H1623 C1604 0.913 . S
H1624 C1642 0.951 . S
H1625 C1644 0.951 . S
H1626 C1646 0.950 . S
H1627 C1647 0.950 . S
H1628 C1649 0.950 . S
H1629 C1652 0.950 . S
H1630 C1653 0.950 . S
H1631 C1655 0.950 . S
H1632 C1656 0.950 . S
H1633 C1657 0.951 . S
H1634 C1659 0.951 . S
H1635 C1661 0.950 . S
H1636 C1662 0.950 . S
H1637 C1664 0.950 . S
H1638 C1667 0.950 . S
H1639 C1668 0.950 . S
H1640 C1670 0.950 . S
H1641 C1671 0.950 . S
C1642 H1624 0.951 . S
C1642 C1643 1.366 . S
C1642 C1644 1.388 . S
C1643 C1642 1.366 . S
C1643 C1647 1.385 . S
C1644 H1625 0.951 . S
C1644 C1642 1.388 . S
C1644 C1645 1.366 . S
C1645 C1644 1.366 . S
C1645 C1646 1.414 . S
C1645 C1648 1.499 . S
C1646 H1626 0.950 . S
C1646 C1645 1.414 . S
C1646 C1647 1.374 . S
C1647 H1627 0.950 . S
C1647 C1643 1.385 . S
C1647 C1646 1.374 . S
C1648 C1645 1.499 . S
C1648 C1649 1.373 . S
C1648 C1650 1.389 . S
C1649 H1628 0.950 . S
C1649 C1648 1.373 . S
C1649 C1665 1.377 . S
C1650 C1648 1.389 . S
C1650 C1651 1.524 . S
C1650 C1664 1.377 . S
C1651 C1650 1.524 . S
C1651 C1652 1.397 . S
C1651 C1656 1.363 . S
C1652 H1629 0.950 . S
C1652 C1651 1.397 . S
C1652 C1653 1.334 . S
C1653 H1630 0.950 . S
C1653 C1652 1.334 . S
C1653 C1654 1.287 . S
C1654 C1653 1.287 . S
C1654 C1655 1.524 . S
C1654 H1673 0.913 . S
C1655 H1631 0.950 . S
C1655 C1654 1.524 . S
C1655 C1656 1.415 . S
C1656 H1632 0.950 . S
C1656 C1651 1.363 . S
C1656 C1655 1.415 . S
C1657 H1633 0.951 . S
C1657 C1658 1.366 . S
C1657 C1659 1.388 . S
C1658 C1657 1.366 . S
C1658 C1662 1.385 . S
C1659 H1634 0.951 . S
C1659 C1657 1.388 . S
C1659 C1660 1.366 . S
C1660 C1659 1.366 . S
C1660 C1661 1.414 . S
C1660 C1663 1.499 . S
C1661 H1635 0.950 . S
C1661 C1660 1.414 . S
C1661 C1662 1.374 . S
C1662 H1636 0.950 . S
C1662 C1658 1.385 . S
C1662 C1661 1.374 . S
C1663 C1660 1.499 . S
C1663 C1664 1.373 . S
C1663 C1665 1.389 . S
C1664 H1637 0.950 . S
C1664 C1650 1.377 . S
C1664 C1663 1.373 . S
C1665 C1649 1.377 . S
C1665 C1663 1.389 . S
C1665 C1666 1.524 . S
C1666 C1665 1.524 . S
C1666 C1667 1.397 . S
C1666 C1671 1.363 . S
C1667 H1638 0.950 . S
C1667 C1666 1.397 . S
C1667 C1668 1.334 . S
C1668 H1639 0.950 . S
C1668 C1667 1.334 . S
C1668 C1669 1.287 . S
C1669 C1668 1.287 . S
C1669 C1670 1.524 . S
C1669 H1672 0.999 . S
C1670 H1640 0.950 . S
C1670 C1669 1.524 . S
C1670 C1671 1.415 . S
C1671 H1641 0.950 . S
C1671 C1666 1.363 . S
C1671 C1670 1.415 . S
H1672 C1669 0.999 . S
H1673 C1654 0.913 . S
H1674 C1692 0.951 . S
H1675 C1694 0.951 . S
H1676 C1696 0.950 . S
H1677 C1697 0.950 . S
H1678 C1699 0.950 . S
H1679 C1702 0.950 . S
H1680 C1703 0.950 . S
H1681 C1705 0.950 . S
H1682 C1706 0.950 . S
H1683 C1707 0.951 . S
H1684 C1709 0.951 . S
H1685 C1711 0.950 . S
H1686 C1712 0.950 . S
H1687 C1714 0.950 . S
H1688 C1717 0.950 . S
H1689 C1718 0.950 . S
H1690 C1720 0.950 . S
H1691 C1721 0.950 . S
C1692 H1674 0.951 . S
C1692 C1693 1.366 . S
C1692 C1694 1.388 . S
C1693 C1692 1.366 . S
C1693 C1697 1.385 . S
C1694 H1675 0.951 . S
C1694 C1692 1.388 . S
C1694 C1695 1.366 . S
C1695 C1694 1.366 . S
C1695 C1696 1.414 . S
C1695 C1698 1.499 . S
C1696 H1676 0.950 . S
C1696 C1695 1.414 . S
C1696 C1697 1.374 . S
C1697 H1677 0.950 . S
C1697 C1693 1.385 . S
C1697 C1696 1.374 . S
C1698 C1695 1.499 . S
C1698 C1699 1.373 . S
C1698 C1700 1.389 . S
C1699 H1678 0.950 . S
C1699 C1698 1.373 . S
C1699 C1715 1.377 . S
C1700 C1698 1.389 . S
C1700 C1701 1.524 . S
C1700 C1714 1.377 . S
C1701 C1700 1.524 . S
C1701 C1702 1.397 . S
C1701 C1706 1.363 . S
C1702 H1679 0.950 . S
C1702 C1701 1.397 . S
C1702 C1703 1.334 . S
C1703 H1680 0.950 . S
C1703 C1702 1.334 . S
C1703 C1704 1.287 . S
C1704 C1703 1.287 . S
C1704 C1705 1.524 . S
C1704 H1723 0.913 . S
C1705 H1681 0.950 . S
C1705 C1704 1.524 . S
C1705 C1706 1.415 . S
C1706 H1682 0.950 . S
C1706 C1701 1.363 . S
C1706 C1705 1.415 . S
C1707 H1683 0.951 . S
C1707 C1708 1.366 . S
C1707 C1709 1.388 . S
C1708 C1707 1.366 . S
C1708 C1712 1.385 . S
C1709 H1684 0.951 . S
C1709 C1707 1.388 . S
C1709 C1710 1.366 . S
C1710 C1709 1.366 . S
C1710 C1711 1.414 . S
C1710 C1713 1.499 . S
C1711 H1685 0.950 . S
C1711 C1710 1.414 . S
C1711 C1712 1.374 . S
C1712 H1686 0.950 . S
C1712 C1708 1.385 . S
C1712 C1711 1.374 . S
C1713 C1710 1.499 . S
C1713 C1714 1.373 . S
C1713 C1715 1.389 . S
C1714 H1687 0.950 . S
C1714 C1700 1.377 . S
C1714 C1713 1.373 . S
C1715 C1699 1.377 . S
C1715 C1713 1.389 . S
C1715 C1716 1.524 . S
C1716 C1715 1.524 . S
C1716 C1717 1.397 . S
C1716 C1721 1.363 . S
C1717 H1688 0.950 . S
C1717 C1716 1.397 . S
C1717 C1718 1.334 . S
C1718 H1689 0.950 . S
C1718 C1717 1.334 . S
C1718 C1719 1.287 . S
C1719 C1718 1.287 . S
C1719 C1720 1.524 . S
C1719 H1722 0.999 . S
C1720 H1690 0.950 . S
C1720 C1719 1.524 . S
C1720 C1721 1.415 . S
C1721 H1691 0.950 . S
C1721 C1716 1.363 . S
C1721 C1720 1.415 . S
H1722 C1719 0.999 . S
H1723 C1704 0.913 . S
H1724 C1742 0.951 . S
H1725 C1744 0.951 . S
H1726 C1746 0.950 . S
H1727 C1747 0.950 . S
H1728 C1749 0.950 . S
H1729 C1752 0.950 . S
H1730 C1753 0.950 . S
H1731 C1755 0.950 . S
H1732 C1756 0.950 . S
H1733 C1757 0.951 . S
H1734 C1759 0.951 . S
H1735 C1761 0.950 . S
H1736 C1762 0.950 . S
H1737 C1764 0.950 . S
H1738 C1767 0.950 . S
H1739 C1768 0.950 . S
H1740 C1770 0.950 . S
H1741 C1771 0.950 . S
C1742 H1724 0.951 . S
C1742 C1743 1.366 . S
C1742 C1744 1.388 . S
C1743 C1742 1.366 . S
C1743 C1747 1.385 . S
C1744 H1725 0.951 . S
C1744 C1742 1.388 . S
C1744 C1745 1.366 . S
C1745 C1744 1.366 . S
C1745 C1746 1.414 . S
C1745 C1748 1.499 . S
C1746 H1726 0.950 . S
C1746 C1745 1.414 . S
C1746 C1747 1.374 . S
C1747 H1727 0.950 . S
C1747 C1743 1.385 . S
C1747 C1746 1.374 . S
C1748 C1745 1.499 . S
C1748 C1749 1.373 . S
C1748 C1750 1.389 . S
C1749 H1728 0.950 . S
C1749 C1748 1.373 . S
C1749 C1765 1.377 . S
C1750 C1748 1.389 . S
C1750 C1751 1.524 . S
C1750 C1764 1.377 . S
C1751 C1750 1.524 . S
C1751 C1752 1.397 . S
C1751 C1756 1.363 . S
C1752 H1729 0.950 . S
C1752 C1751 1.397 . S
C1752 C1753 1.334 . S
C1753 H1730 0.950 . S
C1753 C1752 1.334 . S
C1753 C1754 1.287 . S
C1754 C1753 1.287 . S
C1754 C1755 1.524 . S
C1754 H1773 0.913 . S
C1755 H1731 0.950 . S
C1755 C1754 1.524 . S
C1755 C1756 1.415 . S
C1756 H1732 0.950 . S
C1756 C1751 1.363 . S
C1756 C1755 1.415 . S
C1757 H1733 0.951 . S
C1757 C1758 1.366 . S
C1757 C1759 1.388 . S
C1758 C1757 1.366 . S
C1758 C1762 1.385 . S
C1759 H1734 0.951 . S
C1759 C1757 1.388 . S
C1759 C1760 1.366 . S
C1760 C1759 1.366 . S
C1760 C1761 1.414 . S
C1760 C1763 1.499 . S
C1761 H1735 0.950 . S
C1761 C1760 1.414 . S
C1761 C1762 1.374 . S
C1762 H1736 0.950 . S
C1762 C1758 1.385 . S
C1762 C1761 1.374 . S
C1763 C1760 1.499 . S
C1763 C1764 1.373 . S
C1763 C1765 1.389 . S
C1764 H1737 0.950 . S
C1764 C1750 1.377 . S
C1764 C1763 1.373 . S
C1765 C1749 1.377 . S
C1765 C1763 1.389 . S
C1765 C1766 1.524 . S
C1766 C1765 1.524 . S
C1766 C1767 1.397 . S
C1766 C1771 1.363 . S
C1767 H1738 0.950 . S
C1767 C1766 1.397 . S
C1767 C1768 1.334 . S
C1768 H1739 0.950 . S
C1768 C1767 1.334 . S
C1768 C1769 1.287 . S
C1769 C1768 1.287 . S
C1769 C1770 1.524 . S
C1769 H1772 0.999 . S
C1770 H1740 0.950 . S
C1770 C1769 1.524 . S
C1770 C1771 1.415 . S
C1771 H1741 0.950 . S
C1771 C1766 1.363 . S
C1771 C1770 1.415 . S
H1772 C1769 0.999 . S
H1773 C1754 0.913 . S
H1774 C1792 0.951 . S
H1775 C1794 0.951 . S
H1776 C1796 0.950 . S
H1777 C1797 0.950 . S
H1778 C1799 0.950 . S
H1779 C1802 0.950 . S
H1780 C1803 0.950 . S
H1781 C1805 0.950 . S
H1782 C1806 0.950 . S
H1783 C1807 0.951 . S
H1784 C1809 0.951 . S
H1785 C1811 0.950 . S
H1786 C1812 0.950 . S
H1787 C1814 0.950 . S
H1788 C1817 0.950 . S
H1789 C1818 0.950 . S
H1790 C1820 0.950 . S
H1791 C1821 0.950 . S
C1792 H1774 0.951 . S
C1792 C1793 1.366 . S
C1792 C1794 1.388 . S
C1793 C1792 1.366 . S
C1793 C1797 1.385 . S
C1794 H1775 0.951 . S
C1794 C1792 1.388 . S
C1794 C1795 1.366 . S
C1795 C1794 1.366 . S
C1795 C1796 1.414 . S
C1795 C1798 1.499 . S
C1796 H1776 0.950 . S
C1796 C1795 1.414 . S
C1796 C1797 1.374 . S
C1797 H1777 0.950 . S
C1797 C1793 1.385 . S
C1797 C1796 1.374 . S
C1798 C1795 1.499 . S
C1798 C1799 1.373 . S
C1798 C1800 1.389 . S
C1799 H1778 0.950 . S
C1799 C1798 1.373 . S
C1799 C1815 1.377 . S
C1800 C1798 1.389 . S
C1800 C1801 1.524 . S
C1800 C1814 1.377 . S
C1801 C1800 1.524 . S
C1801 C1802 1.397 . S
C1801 C1806 1.363 . S
C1802 H1779 0.950 . S
C1802 C1801 1.397 . S
C1802 C1803 1.334 . S
C1803 H1780 0.950 . S
C1803 C1802 1.334 . S
C1803 C1804 1.287 . S
C1804 C1803 1.287 . S
C1804 C1805 1.524 . S
C1804 H1823 0.913 . S
C1805 H1781 0.950 . S
C1805 C1804 1.524 . S
C1805 C1806 1.415 . S
C1806 H1782 0.950 . S
C1806 C1801 1.363 . S
C1806 C1805 1.415 . S
C1807 H1783 0.951 . S
C1807 C1808 1.366 . S
C1807 C1809 1.388 . S
C1808 C1807 1.366 . S
C1808 C1812 1.385 . S
C1809 H1784 0.951 . S
C1809 C1807 1.388 . S
C1809 C1810 1.366 . S
C1810 C1809 1.366 . S
C1810 C1811 1.414 . S
C1810 C1813 1.499 . S
C1811 H1785 0.950 . S
C1811 C1810 1.414 . S
C1811 C1812 1.374 . S
C1812 H1786 0.950 . S
C1812 C1808 1.385 . S
C1812 C1811 1.374 . S
C1813 C1810 1.499 . S
C1813 C1814 1.373 . S
C1813 C1815 1.389 . S
C1814 H1787 0.950 . S
C1814 C1800 1.377 . S
C1814 C1813 1.373 . S
C1815 C1799 1.377 . S
C1815 C1813 1.389 . S
C1815 C1816 1.524 . S
C1816 C1815 1.524 . S
C1816 C1817 1.397 . S
C1816 C1821 1.363 . S
C1817 H1788 0.950 . S
C1817 C1816 1.397 . S
C1817 C1818 1.334 . S
C1818 H1789 0.950 . S
C1818 C1817 1.334 . S
C1818 C1819 1.287 . S
C1819 C1818 1.287 . S
C1819 C1820 1.524 . S
C1819 H1822 0.999 . S
C1820 H1790 0.950 . S
C1820 C1819 1.524 . S
C1820 C1821 1.415 . S
C1821 H1791 0.950 . S
C1821 C1816 1.363 . S
C1821 C1820 1.415 . S
H1822 C1819 0.999 . S
H1823 C1804 0.913 . S
C243 C62 1.544 . S
C258 C6 1.544 . S
C293 C76 1.544 . S
C308 C20 1.544 . S
C343 C90 1.544 . S
C358 C34 1.544 . S
C393 C104 1.544 . S
C408 C48 1.544 . S
C443 C174 1.544 . S
C458 C118 1.544 . S
C493 C188 1.544 . S
C508 C132 1.544 . S
C543 C146 1.544 . S
C558 C202 1.544 . S
C593 C216 1.544 . S
C608 C160 1.544 . S
C643 C9 1.525 . S
C658 C79 1.526 . S
C693 C93 1.525 . S
C708 C23 1.526 . S
C743 C37 1.526 . S
C758 C107 1.525 . S
C793 C65 1.525 . S
C808 C51 1.526 . S
C843 C191 1.526 . S
C858 C121 1.526 . S
C893 C205 1.526 . S
C908 C135 1.525 . S
C943 C149 1.526 . S
C958 C219 1.525 . S
C993 C163 1.526 . S
C1008 C177 1.525 . S
C1043 C218 2.019 . S
C1058 C8 2.019 . S
C1093 C176 2.019 . S
C1108 C22 2.019 . S
C1143 C190 2.019 . S
C1158 C36 2.019 . S
C1193 C204 2.019 . S
C1208 C50 2.019 . S
C1243 C134 2.019 . S
C1258 C64 2.019 . S
C1293 C148 2.019 . S
C1308 C78 2.019 . S
C1343 C92 2.019 . S
C1358 C162 2.019 . S
C1393 C106 2.019 . S
C1408 C120 2.019 . S
C1443 C189 0.913 . S
C1458 C35 0.913 . S
C1493 C203 0.912 . S
C1508 C49 0.913 . S
C1543 C217 0.913 . S
C1558 C7 0.913 . S
C1593 C21 0.913 . S
C1608 C175 0.913 . S
C1643 C161 0.913 . S
C1658 C91 0.912 . S
C1693 C105 0.914 . S
C1708 C119 0.913 . S
C1743 C133 0.913 . S
C1758 C63 0.913 . S
C1793 C147 0.912 . S
C1808 C77 0.912 . S
