# Generated by pormake.
# Topology why, (6)-cn, num edge types: 1
# Building blocks:
#     Node 0, Type 0, BuildingBlock: MIFKUJ_clean_sbu_0, # of connection points: 6
#     Node 1, Type 0, BuildingBlock: MIFKUJ_clean_sbu_0, # of connection points: 6
#     Node 2, Type 0, BuildingBlock: MIFKUJ_clean_sbu_0, # of connection points: 6
#     Node 3, Type 0, BuildingBlock: MIFKUJ_clean_sbu_0, # of connection points: 6
#     Node 4, Type 0, BuildingBlock: MIFKUJ_clean_sbu_0, # of connection points: 6
#     Node 5, Type 0, BuildingBlock: MIFKUJ_clean_sbu_0, # of connection points: 6
#     Node 6, Type 0, BuildingBlock: MIFKUJ_clean_sbu_0, # of connection points: 6
#     Node 7, Type 0, BuildingBlock: MIFKUJ_clean_sbu_0, # of connection points: 6
#     Node 8, Type 0, BuildingBlock: MIFKUJ_clean_sbu_0, # of connection points: 6
#     Node 9, Type 0, BuildingBlock: MIFKUJ_clean_sbu_0, # of connection points: 6
#     Node 10, Type 0, BuildingBlock: MIFKUJ_clean_sbu_0, # of connection points: 6
#     Node 11, Type 0, BuildingBlock: MIFKUJ_clean_sbu_0, # of connection points: 6
#     Node 12, Type 0, BuildingBlock: MIFKUJ_clean_sbu_0, # of connection points: 6
#     Node 13, Type 0, BuildingBlock: MIFKUJ_clean_sbu_0, # of connection points: 6
#     Node 14, Type 0, BuildingBlock: MIFKUJ_clean_sbu_0, # of connection points: 6
#     Node 15, Type 0, BuildingBlock: MIFKUJ_clean_sbu_0, # of connection points: 6
#     Edge 16, Type (0, 0), BuildingBlock: EZIPEK_clean_linker_0, # of connection points: 2
#     Edge 17, Type (0, 0), BuildingBlock: EZIPEK_clean_linker_0, # of connection points: 2
#     Edge 18, Type (0, 0), BuildingBlock: EZIPEK_clean_linker_0, # of connection points: 2
#     Edge 19, Type (0, 0), BuildingBlock: EZIPEK_clean_linker_0, # of connection points: 2
#     Edge 20, Type (0, 0), BuildingBlock: EZIPEK_clean_linker_0, # of connection points: 2
#     Edge 21, Type (0, 0), BuildingBlock: EZIPEK_clean_linker_0, # of connection points: 2
#     Edge 22, Type (0, 0), BuildingBlock: EZIPEK_clean_linker_0, # of connection points: 2
#     Edge 23, Type (0, 0), BuildingBlock: EZIPEK_clean_linker_0, # of connection points: 2
#     Edge 24, Type (0, 0), BuildingBlock: EZIPEK_clean_linker_0, # of connection points: 2
#     Edge 25, Type (0, 0), BuildingBlock: EZIPEK_clean_linker_0, # of connection points: 2
#     Edge 26, Type (0, 0), BuildingBlock: EZIPEK_clean_linker_0, # of connection points: 2
#     Edge 27, Type (0, 0), BuildingBlock: EZIPEK_clean_linker_0, # of connection points: 2
#     Edge 28, Type (0, 0), BuildingBlock: EZIPEK_clean_linker_0, # of connection points: 2
#     Edge 29, Type (0, 0), BuildingBlock: EZIPEK_clean_linker_0, # of connection points: 2
#     Edge 30, Type (0, 0), BuildingBlock: EZIPEK_clean_linker_0, # of connection points: 2
#     Edge 31, Type (0, 0), BuildingBlock: EZIPEK_clean_linker_0, # of connection points: 2
#     Edge 32, Type (0, 0), BuildingBlock: EZIPEK_clean_linker_0, # of connection points: 2
#     Edge 33, Type (0, 0), BuildingBlock: EZIPEK_clean_linker_0, # of connection points: 2
#     Edge 34, Type (0, 0), BuildingBlock: EZIPEK_clean_linker_0, # of connection points: 2
#     Edge 35, Type (0, 0), BuildingBlock: EZIPEK_clean_linker_0, # of connection points: 2
#     Edge 36, Type (0, 0), BuildingBlock: EZIPEK_clean_linker_0, # of connection points: 2
#     Edge 37, Type (0, 0), BuildingBlock: EZIPEK_clean_linker_0, # of connection points: 2
#     Edge 38, Type (0, 0), BuildingBlock: EZIPEK_clean_linker_0, # of connection points: 2
#     Edge 39, Type (0, 0), BuildingBlock: EZIPEK_clean_linker_0, # of connection points: 2
#     Edge 40, Type (0, 0), BuildingBlock: EZIPEK_clean_linker_0, # of connection points: 2
#     Edge 41, Type (0, 0), BuildingBlock: EZIPEK_clean_linker_0, # of connection points: 2
#     Edge 42, Type (0, 0), BuildingBlock: EZIPEK_clean_linker_0, # of connection points: 2
#     Edge 43, Type (0, 0), BuildingBlock: EZIPEK_clean_linker_0, # of connection points: 2
#     Edge 44, Type (0, 0), BuildingBlock: EZIPEK_clean_linker_0, # of connection points: 2
#     Edge 45, Type (0, 0), BuildingBlock: EZIPEK_clean_linker_0, # of connection points: 2
#     Edge 46, Type (0, 0), BuildingBlock: EZIPEK_clean_linker_0, # of connection points: 2
#     Edge 47, Type (0, 0), BuildingBlock: EZIPEK_clean_linker_0, # of connection points: 2
#     Edge 48, Type (0, 0), BuildingBlock: EZIPEK_clean_linker_0, # of connection points: 2
#     Edge 49, Type (0, 0), BuildingBlock: EZIPEK_clean_linker_0, # of connection points: 2
#     Edge 50, Type (0, 0), BuildingBlock: EZIPEK_clean_linker_0, # of connection points: 2
#     Edge 51, Type (0, 0), BuildingBlock: EZIPEK_clean_linker_0, # of connection points: 2
#     Edge 52, Type (0, 0), BuildingBlock: EZIPEK_clean_linker_0, # of connection points: 2
#     Edge 53, Type (0, 0), BuildingBlock: EZIPEK_clean_linker_0, # of connection points: 2
#     Edge 54, Type (0, 0), BuildingBlock: EZIPEK_clean_linker_0, # of connection points: 2
#     Edge 55, Type (0, 0), BuildingBlock: EZIPEK_clean_linker_0, # of connection points: 2
#     Edge 56, Type (0, 0), BuildingBlock: EZIPEK_clean_linker_0, # of connection points: 2
#     Edge 57, Type (0, 0), BuildingBlock: EZIPEK_clean_linker_0, # of connection points: 2
#     Edge 58, Type (0, 0), BuildingBlock: EZIPEK_clean_linker_0, # of connection points: 2
#     Edge 59, Type (0, 0), BuildingBlock: EZIPEK_clean_linker_0, # of connection points: 2
#     Edge 60, Type (0, 0), BuildingBlock: EZIPEK_clean_linker_0, # of connection points: 2
#     Edge 61, Type (0, 0), BuildingBlock: EZIPEK_clean_linker_0, # of connection points: 2
#     Edge 62, Type (0, 0), BuildingBlock: EZIPEK_clean_linker_0, # of connection points: 2
#     Edge 63, Type (0, 0), BuildingBlock: EZIPEK_clean_linker_0, # of connection points: 2
# Relax obj value: 0.205
# Max RMSD: 0.177
# Mean RMSD: 0.177
data_MOF--net-why--node1-MIFKUJ_clean_sbu_0--edge1-EZIPEK_clean_linker_0
_symmetry_space_group_name_H-M    P1
_symmetry_Int_Tables_number       1
_symmetry_cell_setting            triclinic
loop_
_symmetry_equiv_pos_as_xyz
'x, y, z'
_cell_length_a     38.855777
_cell_length_b     38.65371
_cell_length_c     23.250354
_cell_angle_alpha  90.12284
_cell_angle_beta   90.207466
_cell_angle_gamma 89.886725
loop_
_atom_site_label
_atom_site_type_symbol
_atom_site_fract_x
_atom_site_fract_y
_atom_site_fract_z
_atom_type_partial_charge
Zn0 Zn 0.30378 0.17052 0.06314 0.0
Zn1 Zn 0.39407 0.1464 0.00613 0.0
C2 C 0.23262 0.14936 0.03329 0.0
O3 O 0.22462 0.15761 0.08638 0.0
C4 C 0.42769 0.19607 0.08655 0.0
O5 O 0.41741 0.17685 0.12967 0.0
O6 O 0.28725 0.20358 0.12398 0.0
O7 O 0.32994 0.13051 0.1029 0.0
O8 O 0.38195 0.11519 0.07031 0.0
C9 C 0.2755 0.19559 0.17303 0.0
O10 O 0.27243 0.16287 0.18731 0.0
O11 O 0.26363 0.15176 0.0165 0.0
C12 C 0.4412 0.14291 0.91606 0.0
O13 O 0.43295 0.17587 0.91483 0.0
O14 O 0.42679 0.12304 0.95215 0.0
O15 O 0.35296 0.16001 0.96123 0.0
O16 O 0.32844 0.20214 0.00832 0.0
O17 O 0.41997 0.18786 0.03518 0.0
C18 C 0.35697 0.11162 0.10492 0.0
C19 C 0.34591 0.19182 0.96579 0.0
Zn20 Zn 0.59021 0.56862 0.33717 0.0
Zn21 Zn 0.61179 0.65031 0.25701 0.0
C22 C 0.5982 0.51227 0.25484 0.0
O23 O 0.56847 0.52351 0.23555 0.0
C24 C 0.57792 0.69619 0.34029 0.0
O25 O 0.60754 0.69797 0.36743 0.0
O26 O 0.56148 0.55152 0.40396 0.0
O27 O 0.62923 0.59747 0.37145 0.0
O28 O 0.64834 0.64038 0.31594 0.0
C29 C 0.53936 0.52771 0.3963 0.0
O30 O 0.53632 0.51332 0.34535 0.0
O31 O 0.61239 0.52714 0.29758 0.0
C32 C 0.60955 0.69639 0.16124 0.0
O33 O 0.57708 0.687 0.16178 0.0
O34 O 0.63048 0.6832 0.19735 0.0
O35 O 0.58931 0.61074 0.21563 0.0
O36 O 0.55528 0.59038 0.28294 0.0
O37 O 0.57477 0.67757 0.29555 0.0
C38 C 0.65048 0.6217 0.36078 0.0
C39 C 0.55937 0.60292 0.23297 0.0
Zn40 Zn 0.19873 0.83228 0.5654 0.0
Zn41 Zn 0.09221 0.83978 0.51714 0.0
C42 C 0.26405 0.8485 0.51817 0.0
O43 O 0.27041 0.8174 0.53818 0.0
C44 C 0.03478 0.80313 0.56902 0.0
O45 O 0.02684 0.83336 0.59123 0.0
O46 O 0.22107 0.80391 0.62914 0.0
O47 O 0.15738 0.86306 0.59649 0.0
O48 O 0.10064 0.87196 0.58292 0.0
C49 C 0.20528 0.79186 0.67252 0.0
O50 O 0.17299 0.80051 0.68112 0.0
O51 O 0.23478 0.86225 0.52715 0.0
C52 C 0.05698 0.84819 0.40898 0.0
O53 O 0.06262 0.81476 0.40539 0.0
O54 O 0.06994 0.86522 0.4506 0.0
O55 O 0.13898 0.82415 0.50625 0.0
O56 O 0.18633 0.79596 0.50448 0.0
O57 O 0.06163 0.79997 0.53835 0.0
C58 C 0.12901 0.87865 0.60876 0.0
C59 C 0.15582 0.79902 0.48665 0.0
Zn60 Zn 0.91676 0.44872 0.82918 0.0
Zn61 Zn 0.90186 0.359 0.76138 0.0
C62 C 0.88873 0.51187 0.78074 0.0
O63 O 0.89314 0.52363 0.83325 0.0
C64 C 0.94188 0.30556 0.82528 0.0
O65 O 0.91842 0.30685 0.86571 0.0
O66 O 0.93966 0.47862 0.88872 0.0
O67 O 0.87994 0.42047 0.86893 0.0
O68 O 0.8713 0.36851 0.82912 0.0
C69 C 0.96237 0.46538 0.92137 0.0
O70 O 0.96921 0.43215 0.91766 0.0
O71 O 0.89538 0.48032 0.7695 0.0
C72 C 0.89048 0.31565 0.66557 0.0
O73 O 0.92421 0.31755 0.6644 0.0
O74 O 0.87384 0.33363 0.70192 0.0
O75 O 0.92315 0.40066 0.72517 0.0
O76 O 0.95622 0.42372 0.79137 0.0
O77 O 0.93962 0.32527 0.78178 0.0
C78 C 0.86454 0.39145 0.86672 0.0
C79 C 0.95297 0.40747 0.74431 0.0
Zn80 Zn 0.58878 0.83966 0.96461 0.0
Zn81 Zn 0.69782 0.84171 0.93389 0.0
C82 C 0.53237 0.80117 0.91771 0.0
O83 O 0.51773 0.8318 0.91604 0.0
C84 C 0.76343 0.85722 0.97987 0.0
O85 O 0.76716 0.82431 0.96724 0.0
O86 O 0.5606 0.85972 0.03073 0.0
O87 O 0.63547 0.82619 0.98339 0.0
O88 O 0.68665 0.80784 -0.00094 0.0
C89 C 0.5549 0.84412 0.07795 0.0
O90 O 0.56979 0.81424 0.08808 0.0
O91 O 0.56383 0.79874 0.93206 0.0
C92 C 0.71732 0.81574 0.81767 0.0
O93 O 0.70354 0.84417 0.79693 0.0
O94 O 0.71778 0.81067 0.87166 0.0
O95 O 0.65598 0.87088 0.90035 0.0
O96 O 0.59837 0.87559 0.9052 0.0
O97 O 0.73544 0.87248 0.96667 0.0
C98 C 0.65499 0.80585 0.01023 0.0
C99 C 0.62744 0.88527 0.88527 0.0
Zn100 Zn 0.40718 0.34628 0.72499 0.0
Zn101 Zn 0.4243 0.43508 0.66749 0.0
C102 C 0.44085 0.29779 0.64773 0.0
O103 O 0.40975 0.28453 0.64715 0.0
C104 C 0.41527 0.50213 0.72701 0.0
O105 O 0.44666 0.50839 0.70912 0.0
O106 O 0.38755 0.30988 0.77787 0.0
O107 O 0.42449 0.38366 0.77867 0.0
O108 O 0.45934 0.41173 0.72086 0.0
C109 C 0.40207 0.2815 0.79136 0.0
O110 O 0.43172 0.27282 0.76867 0.0
O111 O 0.44571 0.32478 0.67805 0.0
C112 C 0.44582 0.48214 0.57487 0.0
O113 O 0.41661 0.49823 0.58458 0.0
O114 O 0.45359 0.45554 0.60423 0.0
O115 O 0.38557 0.40817 0.62743 0.0
O116 O 0.37016 0.35912 0.6705 0.0
O117 O 0.40088 0.47362 0.71374 0.0
C118 C 0.45371 0.39681 0.76858 0.0
C119 C 0.36577 0.38209 0.63233 0.0
Zn120 Zn 0.89534 0.16463 0.48776 0.0
Zn121 Zn 0.80122 0.17746 0.41905 0.0
C122 C 0.95221 0.20712 0.4481 0.0
O123 O 0.96666 0.17714 0.43713 0.0
C124 C 0.74302 0.16819 0.49083 0.0
O125 O 0.74343 0.20212 0.48814 0.0
O126 O 0.92632 0.13747 0.5425 0.0
O127 O 0.85156 0.17864 0.52601 0.0
O128 O 0.82207 0.21362 0.47025 0.0
C129 C 0.93863 0.15151 0.58765 0.0
O130 O 0.92816 0.1826 0.60229 0.0
O131 O 0.9213 0.20789 0.46568 0.0
C132 C 0.7862 0.21114 0.3095 0.0
O133 O 0.81417 0.19549 0.29139 0.0
O134 O 0.77554 0.20582 0.36024 0.0
O135 O 0.83376 0.14331 0.37958 0.0
O136 O 0.88612 0.13517 0.41823 0.0
O137 O 0.76577 0.15089 0.46411 0.0
C138 C 0.84137 0.20891 0.5135 0.0
C139 C 0.8633 0.12881 0.38021 0.0
Zn140 Zn 0.10133 0.64569 0.24258 0.0
Zn141 Zn 0.08454 0.56358 0.17517 0.0
C142 C 0.06796 0.70014 0.17941 0.0
O143 O 0.09934 0.71258 0.17676 0.0
C144 C 0.10964 0.49793 0.21759 0.0
O145 O 0.10502 0.48841 0.16387 0.0
O146 O 0.11955 0.68058 0.29991 0.0
O147 O 0.08009 0.6066 0.28726 0.0
O148 O 0.04656 0.58874 0.21705 0.0
C149 C 0.1029 0.68812 0.34529 0.0
O150 O 0.07413 0.67181 0.35686 0.0
O151 O 0.06303 0.67063 0.20185 0.0
C152 C 0.04286 0.55095 0.07502 0.0
O153 O 0.04301 0.58485 0.07137 0.0
O154 O 0.05948 0.53606 0.11503 0.0
O155 O 0.12313 0.58948 0.13472 0.0
O156 O 0.13859 0.636 0.18517 0.0
O157 O 0.10413 0.52916 0.23218 0.0
C158 C 0.05049 0.59794 0.26906 0.0
C159 C 0.14296 0.61514 0.14354 0.0
Zn160 Zn 0.82001 0.68055 0.58031 0.0
Zn161 Zn 0.88779 0.64803 0.49765 0.0
C162 C 0.75809 0.67147 0.51105 0.0
O163 O 0.75534 0.70498 0.51924 0.0
C164 C 0.94374 0.68489 0.56996 0.0
O165 O 0.94944 0.65826 0.60348 0.0
O166 O 0.79784 0.71306 0.63857 0.0
O167 O 0.84857 0.64454 0.62438 0.0
O168 O 0.87118 0.61247 0.55461 0.0
C169 C 0.77113 0.70771 0.66864 0.0
O170 O 0.75501 0.67798 0.66472 0.0
O171 O 0.78315 0.65516 0.53374 0.0
C172 C 0.9465 0.61578 0.44343 0.0
O173 O 0.95976 0.61884 0.49517 0.0
O174 O 0.91506 0.62374 0.43521 0.0
O175 O 0.8527 0.6771 0.45739 0.0
O176 O 0.84462 0.71387 0.52791 0.0
O177 O 0.92069 0.6835 0.53106 0.0
C178 C 0.8626 0.61653 0.60692 0.0
C179 C 0.8524 0.70806 0.47586 0.0
Zn180 Zn 0.08149 0.05372 0.81744 0.0
Zn181 Zn 0.09328 0.15057 0.75659 0.0
C182 C 0.09142 0.99081 0.75597 0.0
O183 O 0.05896 0.98747 0.77051 0.0
C184 C 0.05271 0.20768 0.79831 0.0
O185 O 0.08313 0.22217 0.80234 0.0
O186 O 0.0546 0.02886 0.87806 0.0
O187 O 0.1148 0.08724 0.85756 0.0
O188 O 0.12338 0.14108 0.8252 0.0
C189 C 0.03851 0.04648 0.91551 0.0
O190 O 0.04224 0.08026 0.91675 0.0
O191 O 0.10778 0.01773 0.77161 0.0
C192 C 0.10264 0.19683 0.66122 0.0
O193 O 0.06988 0.18991 0.65396 0.0
O194 O 0.11921 0.18145 0.70095 0.0
O195 O 0.0797 0.10647 0.71863 0.0
O196 O 0.0443 0.07428 0.76779 0.0
O197 O 0.05063 0.17626 0.78254 0.0
C198 C 0.12955 0.11672 0.86067 0.0
C199 C 0.04934 0.09606 0.72823 0.0
Zn200 Zn 0.68765 0.34129 0.0664 0.0
Zn201 Zn 0.57848 0.34925 0.0513 0.0
C202 C 0.7486 0.34774 0.00101 0.0
O203 O 0.74157 0.31494 0.99212 0.0
C204 C 0.51638 0.3147 0.0844 0.0
O205 O 0.5018 0.34148 0.05962 0.0
O206 O 0.70539 0.30786 0.12556 0.0
O207 O 0.65559 0.37715 0.10535 0.0
O208 O 0.59837 0.38445 0.10448 0.0
C209 C 0.72138 0.31718 0.17065 0.0
O210 O 0.72548 0.35026 0.18176 0.0
O211 O 0.72915 0.36559 0.03353 0.0
C212 C 0.55948 0.38449 0.94405 0.0
O213 O 0.59261 0.38651 0.93393 0.0
O214 O 0.54898 0.37198 0.99123 0.0
O215 O 0.61495 0.3227 0.01243 0.0
O216 O 0.66947 0.3105 0.00252 0.0
O217 O 0.54886 0.3141 0.09138 0.0
C218 C 0.62836 0.39321 0.12107 0.0
C219 C 0.6385 0.3058 0.98774 0.0
Zn220 Zn 0.41999 0.94315 0.31308 0.0
Zn221 Zn 0.41426 0.83365 0.28379 0.0
C222 C 0.4041 0.00656 0.25707 0.0
O223 O 0.43779 0.00696 0.25323 0.0
C224 C 0.4557 0.77483 0.31977 0.0
O225 O 0.42978 0.75631 0.30082 0.0
O226 O 0.45292 0.9595 0.37537 0.0
O227 O 0.38952 0.90313 0.34581 0.0
O228 O 0.37944 0.84622 0.34326 0.0
C229 C 0.45213 0.98877 0.40032 0.0
O230 O 0.42739 0.01077 0.38838 0.0
O231 O 0.38948 0.98172 0.28303 0.0
C232 C 0.40734 0.78969 0.18167 0.0
O233 O 0.44108 0.79138 0.1807 0.0
O234 O 0.39079 0.80676 0.21937 0.0
O235 O 0.43122 0.8793 0.26204 0.0
O236 O 0.4517 0.92986 0.24611 0.0
O237 O 0.45373 0.8076 0.31903 0.0
C238 C 0.37276 0.87644 0.36255 0.0
C239 C 0.4518 0.89799 0.23426 0.0
Zn240 Zn 0.10452 0.35675 0.4951 0.0
Zn241 Zn 0.19248 0.33492 0.41707 0.0
C242 C 0.04456 0.3241 0.44419 0.0
O243 O 0.03679 0.35571 0.42809 0.0
C244 C 0.25198 0.33748 0.49198 0.0
O245 O 0.24519 0.30438 0.49745 0.0
O246 O 0.07906 0.38277 0.55712 0.0
O247 O 0.14755 0.33662 0.52797 0.0
O248 O 0.17023 0.29953 0.4678 0.0
C249 C 0.0616 0.36467 0.59202 0.0
O250 O 0.06391 0.33078 0.58975 0.0
O251 O 0.07251 0.31834 0.47099 0.0
C252 C 0.23924 0.30534 0.33115 0.0
O253 O 0.26263 0.32623 0.35242 0.0
O254 O 0.20877 0.30598 0.35048 0.0
O255 O 0.16244 0.37361 0.38485 0.0
O256 O 0.11308 0.38825 0.42792 0.0
O257 O 0.23319 0.35602 0.45938 0.0
C258 C 0.15365 0.3056 0.51345 0.0
C259 C 0.13545 0.3923 0.3886 0.0
Zn260 Zn 0.91572 0.84682 0.21141 0.0
Zn261 Zn 0.92232 0.95469 0.18185 0.0
C262 C 0.95771 0.79727 0.14207 0.0
O263 O 0.93497 0.79894 0.10026 0.0
C264 C 0.90841 0.02071 0.22757 0.0
O265 O 0.94027 0.0251 0.21048 0.0
O266 O 0.89134 0.82497 0.27876 0.0
O267 O 0.93393 0.89204 0.22817 0.0
O268 O 0.95726 0.94106 0.2444 0.0
C269 C 0.90852 0.80602 0.31315 0.0
O270 O 0.94207 0.80379 0.30743 0.0
O271 O 0.9538 0.81529 0.18729 0.0
C272 C 0.94134 0.98064 0.06813 0.0
O273 O 0.91013 0.97175 0.05206 0.0
O274 O 0.9511 0.97557 0.11954 0.0
O275 O 0.89127 0.91524 0.14639 0.0
O276 O 0.88214 0.85802 0.14913 0.0
O277 O 0.89336 0.99213 0.21756 0.0
C278 C 0.95629 0.90914 0.25497 0.0
C279 C 0.87506 0.88808 0.12954 0.0
Zn280 Zn 0.39783 0.64091 0.98976 0.0
Zn281 Zn 0.31104 0.66508 0.91955 0.0
C282 C 0.44106 0.68398 0.91284 0.0
O283 O 0.43667 0.66088 0.872 0.0
C284 C 0.25333 0.66042 0.99606 0.0
O285 O 0.25605 0.69424 0.9934 0.0
O286 O 0.42883 0.61662 0.04727 0.0
O287 O 0.35712 0.66051 0.03036 0.0
O288 O 0.3361 0.69909 0.97093 0.0
C289 C 0.44606 0.63646 0.08029 0.0
O290 O 0.44051 0.66998 0.0785 0.0
O291 O 0.42678 0.68011 0.96143 0.0
C292 C 0.27354 0.68818 0.81418 0.0
O293 O 0.27483 0.65583 0.79686 0.0
O294 O 0.2868 0.69657 0.86225 0.0
O295 O 0.33888 0.62725 0.87713 0.0
O296 O 0.38659 0.60989 0.92332 0.0
O297 O 0.27412 0.64167 0.96747 0.0
C298 C 0.35149 0.69188 0.01756 0.0
C299 C 0.36522 0.60751 0.88189 0.0
Zn300 Zn 0.59063 0.15804 0.72743 0.0
Zn301 Zn 0.58145 0.05908 0.66995 0.0
C302 C 0.55339 0.20409 0.65239 0.0
O303 O 0.58309 0.20487 0.62562 0.0
C304 C 0.58965 0.99707 0.73761 0.0
O305 O 0.55601 0.99658 0.73207 0.0
O306 O 0.61203 0.19168 0.78357 0.0
O307 O 0.57882 0.11483 0.76954 0.0
O308 O 0.5453 0.07936 0.722 0.0
C309 C 0.59713 0.19697 0.83141 0.0
O310 O 0.56937 0.17935 0.84437 0.0
O311 O 0.54944 0.1839 0.69504 0.0
C312 C 0.56114 0.03225 0.55503 0.0
O313 O 0.59255 0.03931 0.53803 0.0
O314 O 0.55255 0.03774 0.60688 0.0
O315 O 0.61704 0.0922 0.63466 0.0
O316 O 0.62402 0.14697 0.66474 0.0
O317 O 0.60675 0.02106 0.71365 0.0
C318 C 0.54938 0.1019 0.76096 0.0
C319 C 0.63185 0.12166 0.63214 0.0
C320 C 0.48522 0.22199 0.06969 0.0
C321 C 0.45244 0.22457 0.09576 0.0
C322 C 0.46573 0.28373 0.12651 0.0
C323 C 0.49598 0.28281 0.09245 0.0
N324 N 0.53115 0.25255 0.02245 0.0
N325 N 0.40986 0.25839 0.14596 0.0
C326 C 0.5051 0.25225 0.06193 0.0
C327 C 0.44231 0.25547 0.12401 0.0
N328 N 0.49754 0.19041 0.05303 0.0
N329 N 0.45972 0.31136 0.16187 0.0
H330 H 0.39228 0.23803 0.1456 0.0
H331 H 0.39957 0.28159 0.16099 0.0
H332 H 0.47657 0.33228 0.16499 0.0
H333 H 0.43984 0.31214 0.19175 0.0
H334 H 0.52258 0.1865 0.03847 0.0
H335 H 0.48394 0.16756 0.06002 0.0
H336 H 0.53615 0.2319 0.99481 0.0
H337 H 0.54559 0.27442 0.01272 0.0
C338 C 0.51865 0.70778 0.37671 0.0
C339 C 0.54979 0.72043 0.35357 0.0
C340 C 0.51992 0.76948 0.31139 0.0
C341 C 0.48849 0.75766 0.3354 0.0
N342 N 0.45979 0.72074 0.40378 0.0
N343 N 0.58186 0.76933 0.31927 0.0
C344 C 0.48839 0.72838 0.3723 0.0
C345 C 0.55102 0.75352 0.32836 0.0
N346 N 0.51796 0.67581 0.40154 0.0
N347 N 0.52016 0.79345 0.26828 0.0
H348 H 0.60515 0.75827 0.3321 0.0
H349 H 0.58382 0.79481 0.305 0.0
H350 H 0.49793 0.80379 0.25001 0.0
H351 H 0.54241 0.79979 0.24575 0.0
H352 H 0.4953 0.66327 0.41302 0.0
H353 H 0.54026 0.66119 0.40798 0.0
H354 H 0.4592 0.70133 0.43475 0.0
H355 H 0.43765 0.73604 0.40297 0.0
C356 C 0.99944 0.7597 0.62419 0.0
C357 C 0.00987 0.77424 0.57108 0.0
C358 C 0.98099 0.7278 0.51901 0.0
C359 C 0.9672 0.71515 0.5714 0.0
N360 N 0.95781 0.72373 0.67316 0.0
N361 N 0.00053 0.77834 0.46871 0.0
C362 C 0.97489 0.73236 0.624 0.0
C363 C 0.99766 0.76014 0.51868 0.0
N364 N 0.01363 0.77119 0.67453 0.0
N365 N 0.97962 0.70846 0.46982 0.0
H366 H 0.01013 0.80344 0.46781 0.0
H367 H 0.98927 0.7704 0.43011 0.0
H368 H 0.96988 0.68345 0.46862 0.0
H369 H 0.99204 0.71562 0.432 0.0
H370 H 0.00967 0.75903 0.71389 0.0
H371 H 0.03161 0.79117 0.67624 0.0
H372 H 0.96002 0.73774 0.71131 0.0
H373 H 0.93887 0.70468 0.67445 0.0
C374 C 0.96534 0.25193 0.78028 0.0
C375 C 0.96756 0.27724 0.82427 0.0
C376 C 0.02037 0.24997 0.8599 0.0
C377 C 0.02136 0.22868 0.80995 0.0
N378 N 0.99578 0.21256 0.7183 0.0
N379 N 0.99831 0.30238 0.90411 0.0
C380 C 0.99393 0.23014 0.76924 0.0
C381 C 0.99524 0.27669 0.86398 0.0
N382 N 0.93548 0.24821 0.74973 0.0
N383 N 0.04274 0.2439 0.90426 0.0
H384 H 0.98008 0.32203 0.90882 0.0
H385 H 0.02009 0.30563 0.92978 0.0
H386 H 0.06046 0.22359 0.90381 0.0
H387 H 0.04125 0.25653 0.9438 0.0
H388 H 0.93096 0.22787 0.72121 0.0
H389 H 0.91386 0.2634 0.75768 0.0
H390 H 0.97868 0.21659 0.68433 0.0
H391 H 0.01568 0.19587 0.70764 0.0
C392 C 0.51337 0.74322 0.9548 0.0
C393 C 0.51106 0.76951 0.91221 0.0
C394 C 0.4628 0.73872 0.86694 0.0
C395 C 0.46711 0.71152 0.90709 0.0
N396 N 0.50315 0.68321 0.97731 0.0
N397 N 0.48881 0.78813 0.82019 0.0
C398 C 0.49464 0.71228 0.94706 0.0
C399 C 0.48731 0.76604 0.86589 0.0
N400 N 0.53129 0.7485 0.00476 0.0
N401 N 0.43466 0.73927 0.83157 0.0
H402 H 0.50715 0.8077 0.81705 0.0
H403 H 0.4742 0.78485 0.78292 0.0
H404 H 0.41639 0.71953 0.83086 0.0
H405 H 0.42814 0.76046 0.80613 0.0
H406 H 0.53085 0.7312 0.03907 0.0
H407 H 0.54319 0.77175 0.01517 0.0
H408 H 0.52505 0.68145 0.00319 0.0
H409 H 0.49048 0.65974 0.97122 0.0
C410 C 0.46688 0.24249 0.60748 0.0
C411 C 0.47119 0.27691 0.62756 0.0
C412 C 0.53215 0.2655 0.64669 0.0
C413 C 0.52618 0.22959 0.63752 0.0
N414 N 0.48944 0.18385 0.60302 0.0
N415 N 0.51134 0.32406 0.63255 0.0
C416 C 0.49403 0.21809 0.61556 0.0
C417 C 0.50498 0.28942 0.63686 0.0
N418 N 0.43815 0.23413 0.57647 0.0
N419 N 0.56305 0.27667 0.66793 0.0
H420 H 0.49249 0.34151 0.61889 0.0
H421 H 0.53589 0.33476 0.6344 0.0
H422 H 0.58395 0.26034 0.67527 0.0
H423 H 0.56723 0.30185 0.68235 0.0
H424 H 0.43402 0.21008 0.55754 0.0
H425 H 0.42059 0.25288 0.56289 0.0
H426 H 0.46561 0.17289 0.59378 0.0
H427 H 0.50956 0.16595 0.60415 0.0
C428 C 0.99462 0.24454 0.39557 0.0
C429 C 0.97289 0.23944 0.44392 0.0
C430 C 0.99305 0.29445 0.48459 0.0
C431 C 0.01837 0.29648 0.44107 0.0
N432 N 0.04593 0.27189 0.35786 0.0
N433 N 0.95649 0.25729 0.54024 0.0
C434 C 0.01997 0.27103 0.39731 0.0
C435 C 0.97311 0.26397 0.48979 0.0
N436 N 0.99006 0.22506 0.34701 0.0
N437 N 0.98812 0.32159 0.52141 0.0
H438 H 0.94235 0.23505 0.54767 0.0
H439 H 0.95944 0.27234 0.57715 0.0
H440 H 0.00282 0.34401 0.5199 0.0
H441 H 0.96748 0.32314 0.5498 0.0
H442 H 0.00309 0.22969 0.30873 0.0
H443 H 0.97054 0.20673 0.34291 0.0
H444 H 0.05078 0.25177 0.3291 0.0
H445 H 0.06414 0.29169 0.35658 0.0
C446 C 0.03627 0.74057 0.1125 0.0
C447 C 0.03815 0.72277 0.16591 0.0
C448 C 0.98225 0.74667 0.1926 0.0
C449 C 0.98318 0.76886 0.14442 0.0
N450 N 0.01252 0.78945 0.06009 0.0
N451 N 0.01629 0.71657 0.26295 0.0
C452 C 0.01046 0.76638 0.10435 0.0
C453 C 0.01196 0.72768 0.20764 0.0
N454 N 0.05852 0.73228 0.06925 0.0
N455 N 0.95268 0.74346 0.22372 0.0
H456 H 0.0384 0.70412 0.27747 0.0
H457 H 0.9995 0.72336 0.296 0.0
H458 H 0.92975 0.75565 0.21191 0.0
H459 H 0.94996 0.72594 0.25725 0.0
H460 H 0.05633 0.74213 0.02772 0.0
H461 H 0.07723 0.71307 0.07342 0.0
H462 H 0.03386 0.79135 0.03331 0.0
H463 H 0.99382 0.80833 0.05266 0.0
C464 C 0.15047 0.15288 0.94337 0.0
C465 C 0.15477 0.12337 0.90763 0.0
C466 C 0.20718 0.10801 0.96117 0.0
C467 C 0.20523 0.13986 0.99146 0.0
N468 N 0.17841 0.19591 0.00283 0.0
N469 N 0.19058 0.07581 0.8761 0.0
C470 C 0.17772 0.16319 0.98043 0.0
C471 C 0.18395 0.10156 0.91493 0.0
N472 N 0.11992 0.1705 0.94331 0.0
N473 N 0.23062 0.08349 0.97755 0.0
H474 H 0.17487 0.07072 0.84066 0.0
H475 H 0.21339 0.06162 0.8759 0.0
H476 H 0.24778 0.0871 0.01165 0.0
H477 H 0.23081 0.05842 0.96102 0.0
H478 H 0.11424 0.19014 0.97256 0.0
H479 H 0.09886 0.16313 0.91818 0.0
H480 H 0.1609 0.2151 0.99102 0.0
H481 H 0.19842 0.20506 0.02861 0.0
C482 C 0.63325 0.45723 0.13425 0.0
C483 C 0.63086 0.42385 0.15906 0.0
C484 C 0.61397 0.44923 0.25149 0.0
C485 C 0.6148 0.48249 0.22585 0.0
N486 N 0.63425 0.51942 0.14953 0.0
N487 N 0.62801 0.38805 0.24325 0.0
C488 C 0.62745 0.48687 0.16925 0.0
C489 C 0.62436 0.41992 0.21859 0.0
N490 N 0.63951 0.46041 0.07668 0.0
N491 N 0.60148 0.44549 0.30602 0.0
H492 H 0.63564 0.36632 0.21974 0.0
H493 H 0.62654 0.38368 0.28732 0.0
H494 H 0.59456 0.46647 0.3318 0.0
H495 H 0.59632 0.42166 0.32482 0.0
H496 H 0.63736 0.48362 0.05432 0.0
H497 H 0.64543 0.43926 0.05051 0.0
H498 H 0.64612 0.52447 0.11039 0.0
H499 H 0.63089 0.54143 0.17501 0.0
C500 C 0.30985 0.87666 0.38174 0.0
C501 C 0.3438 0.87987 0.40339 0.0
C502 C 0.32224 0.87427 0.50192 0.0
C503 C 0.28954 0.86488 0.47952 0.0
N504 N 0.25191 0.85588 0.3979 0.0
N505 N 0.38314 0.88316 0.4833 0.0
C506 C 0.28298 0.86645 0.4194 0.0
C507 C 0.35017 0.87972 0.46344 0.0
N508 N 0.30353 0.88326 0.32494 0.0
N509 N 0.32632 0.87807 0.56 0.0
H510 H 0.40377 0.8886 0.4562 0.0
H511 H 0.39035 0.87931 0.52596 0.0
H512 H 0.30614 0.8744 0.58886 0.0
H513 H 0.34859 0.88762 0.57926 0.0
H514 H 0.27892 0.88455 0.3072 0.0
H515 H 0.3229 0.89077 0.2966 0.0
H516 H 0.24705 0.8523 0.35423 0.0
H517 H 0.23138 0.84843 0.42377 0.0
C518 C 0.90139 0.57103 0.652 0.0
C519 C 0.86856 0.58754 0.64836 0.0
C520 C 0.84872 0.55361 0.73132 0.0
C521 C 0.88105 0.53653 0.73359 0.0
N522 N 0.93676 0.52524 0.69179 0.0
N523 N 0.80851 0.58748 0.67464 0.0
C524 C 0.90678 0.5439 0.69228 0.0
C525 C 0.84153 0.57693 0.68542 0.0
N526 N 0.92826 0.58247 0.61945 0.0
N527 N 0.82483 0.54757 0.77311 0.0
H528 H 0.80181 0.60291 0.63959 0.0
H529 H 0.7872 0.57801 0.69651 0.0
H530 H 0.82816 0.52901 0.80516 0.0
H531 H 0.80262 0.56239 0.77811 0.0
H532 H 0.95378 0.57534 0.62645 0.0
H533 H 0.92585 0.60092 0.58748 0.0
H534 H 0.95398 0.5254 0.65757 0.0
H535 H 0.94381 0.50788 0.72397 0.0
C536 C 0.82385 0.87849 0.99118 0.0
C537 C 0.79045 0.87459 0.01474 0.0
C538 C 0.81227 0.89298 0.10917 0.0
C539 C 0.84628 0.8908 0.08781 0.0
N540 N 0.88542 0.88302 0.00898 0.0
N541 N 0.75246 0.87682 0.09669 0.0
C542 C 0.85234 0.88454 0.02864 0.0
C543 C 0.78434 0.88223 0.07366 0.0
N544 N 0.82808 0.87655 0.93292 0.0
N545 N 0.80687 0.90498 0.16374 0.0
H546 H 0.73121 0.86921 0.07233 0.0
H547 H 0.74743 0.87768 0.14062 0.0
H548 H 0.827 0.91275 0.19064 0.0
H549 H 0.78259 0.91029 0.1804 0.0
H550 H 0.85114 0.88186 0.91213 0.0
H551 H 0.80751 0.87242 0.90475 0.0
H552 H 0.8921 0.87463 0.96795 0.0
H553 H 0.90655 0.88905 0.03496 0.0
C554 C 0.37135 0.54503 0.85583 0.0
C555 C 0.37175 0.58014 0.8383 0.0
C556 C 0.39274 0.56241 0.74322 0.0
C557 C 0.39735 0.5281 0.76378 0.0
N558 N 0.39405 0.48723 0.84213 0.0
N559 N 0.38509 0.62311 0.76679 0.0
C560 C 0.38705 0.51937 0.82054 0.0
C561 C 0.38267 0.58907 0.78211 0.0
N562 N 0.35548 0.5362 0.90608 0.0
N563 N 0.39719 0.56933 0.68612 0.0
H564 H 0.37735 0.64335 0.79353 0.0
H565 H 0.39692 0.63145 0.72919 0.0
H566 H 0.40412 0.55039 0.65635 0.0
H567 H 0.39085 0.59293 0.6673 0.0
H568 H 0.3512 0.51072 0.91859 0.0
H569 H 0.34353 0.55438 0.93262 0.0
H570 H 0.3911 0.48084 0.88532 0.0
H571 H 0.40537 0.46752 0.81812 0.0
C572 C 0.65325 0.13999 0.53578 0.0
C573 C 0.66046 0.12684 0.59134 0.0
C574 C 0.7225 0.13324 0.57484 0.0
C575 C 0.71504 0.1506 0.52248 0.0
N576 N 0.6742 0.16989 0.45105 0.0
N577 N 0.70088 0.11006 0.66489 0.0
C578 C 0.68062 0.15353 0.50212 0.0
C579 C 0.69486 0.12273 0.61085 0.0
N580 N 0.6202 0.13918 0.51534 0.0
N581 N 0.75597 0.12716 0.59029 0.0
H582 H 0.68132 0.10059 0.69111 0.0
H583 H 0.72483 0.11012 0.68499 0.0
H584 H 0.77688 0.13589 0.56644 0.0
H585 H 0.76332 0.11166 0.62475 0.0
H586 H 0.61322 0.14549 0.47342 0.0
H587 H 0.59971 0.1296 0.53939 0.0
H588 H 0.64974 0.17673 0.43667 0.0
H589 H 0.69369 0.17786 0.42335 0.0
C590 C 0.15229 0.44773 0.3397 0.0
C591 C 0.12932 0.41935 0.34464 0.0
C592 C 0.09177 0.44488 0.27121 0.0
C593 C 0.11639 0.47138 0.26211 0.0
N594 N 0.17221 0.49585 0.28183 0.0
N595 N 0.08066 0.38741 0.30785 0.0
C596 C 0.14726 0.47228 0.29484 0.0
C597 C 0.09998 0.41695 0.3084 0.0
N598 N 0.17812 0.45196 0.37918 0.0
N599 N 0.05993 0.4471 0.24622 0.0
H600 H 0.08615 0.36607 0.33371 0.0
H601 H 0.06119 0.38274 0.27792 0.0
H602 H 0.05254 0.46752 0.21961 0.0
H603 H 0.03971 0.43056 0.2563 0.0
H604 H 0.19335 0.47405 0.38164 0.0
H605 H 0.18253 0.43465 0.41278 0.0
H606 H 0.1968 0.49538 0.29979 0.0
H607 H 0.16932 0.51433 0.24951 0.0
C608 C 0.66995 0.64398 0.45723 0.0
C609 C 0.67826 0.62947 0.40286 0.0
C610 C 0.7398 0.63862 0.422 0.0
C611 C 0.73146 0.65311 0.47643 0.0
N612 N 0.69005 0.66073 0.55211 0.0
N613 N 0.72067 0.60577 0.33861 0.0
C614 C 0.69691 0.65309 0.4959 0.0
C615 C 0.71313 0.62458 0.38684 0.0
N616 N 0.63637 0.65055 0.47098 0.0
N617 N 0.77298 0.63956 0.40284 0.0
H618 H 0.70171 0.59501 0.31222 0.0
H619 H 0.74549 0.5982 0.32741 0.0
H620 H 0.7934 0.64807 0.42825 0.0
H621 H 0.78011 0.63372 0.36081 0.0
H622 H 0.62899 0.66505 0.50667 0.0
H623 H 0.61574 0.64368 0.44456 0.0
H624 H 0.66585 0.65806 0.57066 0.0
H625 H 0.70943 0.66621 0.58182 0.0
C626 C 0.12214 0.96927 0.66727 0.0
C627 C 0.10844 0.96273 0.72279 0.0
C628 C 0.11511 0.90021 0.7076 0.0
C629 C 0.12842 0.90677 0.65207 0.0
N630 N 0.15286 0.94671 0.5844 0.0
N631 N 0.1008 0.92321 0.80173 0.0
C632 C 0.13492 0.94112 0.63396 0.0
C633 C 0.10778 0.92851 0.74484 0.0
N634 N 0.12068 1.00187 0.64462 0.0
N635 N 0.10832 0.86697 0.72387 0.0
H636 H 0.09612 0.9435 0.83036 0.0
H637 H 0.10291 0.89923 0.82174 0.0
H638 H 0.11494 0.84563 0.69863 0.0
H639 H 0.09463 0.86062 0.76078 0.0
H640 H 0.12642 0.00744 0.60194 0.0
H641 H 0.1112 0.02318 0.66709 0.0
H642 H 0.16135 0.97102 0.57153 0.0
H643 H 0.16206 0.92654 0.55879 0.0
C644 C 0.77433 0.38874 0.9294 0.0
C645 C 0.77901 0.36324 0.9727 0.0
C646 C 0.84125 0.36245 0.95424 0.0
C647 C 0.83588 0.38473 0.90678 0.0
N648 N 0.79806 0.41845 0.84657 0.0
N649 N 0.81626 0.32536 0.02705 0.0
C650 C 0.80269 0.39816 0.89417 0.0
C651 C 0.81237 0.3501 0.98553 0.0
N652 N 0.74267 0.40355 0.92132 0.0
N653 N 0.87412 0.35375 0.96987 0.0
H654 H 0.7962 0.31744 0.05359 0.0
H655 H 0.8389 0.31153 0.03392 0.0
H656 H 0.8957 0.36248 0.94765 0.0
H657 H 0.88038 0.34023 0.00712 0.0
H658 H 0.73837 0.42507 0.89544 0.0
H659 H 0.72067 0.39575 0.94317 0.0
H660 H 0.77409 0.42564 0.83043 0.0
H661 H 0.81833 0.42673 0.82076 0.0
C662 C 0.37657 0.02314 0.16378 0.0
C663 C 0.38379 0.03123 0.22212 0.0
C664 C 0.36605 0.09139 0.2066 0.0
C665 C 0.35988 0.08352 0.14781 0.0
N666 N 0.34998 0.04101 0.07393 0.0
N667 N 0.37713 0.06956 0.30288 0.0
C668 C 0.36207 0.04897 0.12764 0.0
C669 C 0.37565 0.06427 0.24483 0.0
N670 N 0.38501 0.99126 0.14239 0.0
N671 N 0.36475 0.12496 0.22506 0.0
H672 H 0.38381 0.04993 0.33153 0.0
H673 H 0.36871 0.09212 0.32296 0.0
H674 H 0.35728 0.14535 0.19848 0.0
H675 H 0.37287 0.13297 0.26566 0.0
H676 H 0.38448 0.98512 0.09878 0.0
H677 H 0.39435 0.97122 0.16812 0.0
H678 H 0.34797 0.01585 0.05822 0.0
H679 H 0.33887 0.05949 0.04692 0.0
C680 C 0.27709 0.37903 0.5645 0.0
C681 C 0.28201 0.35262 0.52262 0.0
C682 C 0.34336 0.34935 0.54758 0.0
C683 C 0.33842 0.37579 0.58914 0.0
N684 N 0.30321 0.42089 0.62946 0.0
N685 N 0.32072 0.3179 0.46561 0.0
C686 C 0.30611 0.39245 0.59478 0.0
C687 C 0.31546 0.33933 0.51161 0.0
N688 N 0.24451 0.38968 0.57802 0.0
N689 N 0.37466 0.33327 0.5435 0.0
H690 H 0.30095 0.30996 0.43836 0.0
H691 H 0.34494 0.31024 0.45139 0.0
H692 H 0.39642 0.34174 0.56583 0.0
H693 H 0.37882 0.31064 0.52015 0.0
H694 H 0.23888 0.4059 0.61252 0.0
H695 H 0.22254 0.38019 0.55755 0.0
H696 H 0.28129 0.43639 0.63118 0.0
H697 H 0.32388 0.43077 0.65304 0.0
C698 C 0.87893 0.10861 0.28088 0.0
C699 C 0.87047 0.10078 0.33866 0.0
C700 C 0.88524 0.03989 0.323 0.0
C701 C 0.89223 0.04735 0.26442 0.0
N702 N 0.88924 0.0868 0.18447 0.0
N703 N 0.85792 0.05834 0.41143 0.0
C704 C 0.88701 0.08115 0.24236 0.0
C705 C 0.87114 0.06616 0.3586 0.0
N706 N 0.88081 0.14233 0.26362 0.0
N707 N 0.89406 0.00846 0.34571 0.0
H708 H 0.84746 0.077 0.43882 0.0
H709 H 0.85438 0.03311 0.42583 0.0
H710 H 0.90493 0.9885 0.32163 0.0
H711 H 0.89338 0.00312 0.38958 0.0
H712 H 0.89042 0.14992 0.22386 0.0
H713 H 0.8752 0.16303 0.29088 0.0
H714 H 0.88247 0.11008 0.165 0.0
H715 H 0.89494 0.06713 0.15516 0.0
C716 C 0.16347 0.645 0.05449 0.0
C717 C 0.17058 0.62285 0.10166 0.0
C718 C 0.23207 0.62312 0.07765 0.0
C719 C 0.22486 0.64475 0.02969 0.0
N720 N 0.1832 0.66928 0.96433 0.0
N721 N 0.20974 0.58522 0.15202 0.0
C722 C 0.19036 0.65363 0.01573 0.0
C723 C 0.20433 0.61005 0.11117 0.0
N724 N 0.13119 0.65859 0.04768 0.0
N725 N 0.26544 0.61654 0.093 0.0
H726 H 0.19002 0.57559 0.17776 0.0
H727 H 0.23299 0.57215 0.15725 0.0
H728 H 0.28644 0.62523 0.06934 0.0
H729 H 0.2725 0.6045 0.13128 0.0
H730 H 0.12536 0.67817 0.01853 0.0
H731 H 0.11049 0.65183 0.07379 0.0
H732 H 0.15834 0.67333 0.94889 0.0
H733 H 0.20217 0.67524 0.93429 0.0
C734 C 0.60678 0.93483 0.74962 0.0
C735 C 0.60709 0.96929 0.771 0.0
C736 C 0.6292 0.94878 0.86407 0.0
C737 C 0.62711 0.91425 0.84357 0.0
N738 N 0.62162 0.87429 0.76485 0.0
N739 N 0.62503 0.01029 0.84337 0.0
C740 C 0.61847 0.9073 0.78545 0.0
C741 C 0.62071 0.97666 0.82648 0.0
N742 N 0.59445 0.92848 0.69546 0.0
N743 N 0.63762 0.95464 0.92042 0.0
H744 H 0.61798 0.03127 0.81779 0.0
H745 H 0.63769 0.01768 0.88091 0.0
H746 H 0.64547 0.93489 0.9481 0.0
H747 H 0.63564 0.97858 0.94064 0.0
H748 H 0.58955 0.90389 0.67918 0.0
H749 H 0.58801 0.94823 0.66686 0.0
H750 H 0.61855 0.86746 0.72185 0.0
H751 H 0.63002 0.85381 0.79052 0.0
C752 C 0.49897 0.11597 0.89846 0.0
C753 C 0.4677 0.12962 0.87632 0.0
C754 C 0.48999 0.12533 0.77811 0.0
C755 C 0.52065 0.11024 0.80014 0.0
N756 N 0.55098 0.08346 0.87917 0.0
N757 N 0.43047 0.14123 0.79543 0.0
C758 C 0.5242 0.10333 0.85975 0.0
C759 C 0.46234 0.13256 0.81616 0.0
N760 N 0.50529 0.11643 0.95633 0.0
N761 N 0.48773 0.13389 0.72121 0.0
H762 H 0.4095 0.1463 0.82207 0.0
H763 H 0.42386 0.1404 0.75202 0.0
H764 H 0.50703 0.12831 0.69159 0.0
H765 H 0.46784 0.14873 0.70402 0.0
H766 H 0.5293 0.11101 0.97425 0.0
H767 H 0.48734 0.12486 0.98643 0.0
H768 H 0.55289 0.07448 0.92126 0.0
H769 H 0.56959 0.07298 0.85198 0.0
C770 C 0.61886 0.71996 0.06186 0.0
C771 C 0.62076 0.72459 0.12238 0.0
C772 C 0.64501 0.78265 0.10914 0.0
C773 C 0.64165 0.77863 0.04878 0.0
N774 N 0.62154 0.74589 0.96695 0.0
N775 N 0.62917 0.76235 0.20389 0.0
C776 C 0.62722 0.74805 0.02493 0.0
C777 C 0.63216 0.75648 0.14613 0.0
N778 N 0.61066 0.68818 0.03976 0.0
N779 N 0.66077 0.81144 0.13109 0.0
H780 H 0.62004 0.74379 0.23239 0.0
H781 H 0.633 0.7864 0.22306 0.0
H782 H 0.66883 0.83204 0.10556 0.0
H783 H 0.66774 0.81412 0.17414 0.0
H784 H 0.61233 0.68191 0.99632 0.0
H785 H 0.60463 0.66697 0.06546 0.0
H786 H 0.60734 0.72623 0.94756 0.0
H787 H 0.62898 0.76513 0.93822 0.0
C788 C 0.01003 0.87441 0.27145 0.0
C789 C 0.98149 0.89273 0.29432 0.0
C790 C 0.00125 0.88011 0.39237 0.0
C791 C 0.03155 0.86461 0.36961 0.0
N792 N 0.06736 0.85145 0.28801 0.0
N793 N 0.95152 0.9168 0.37575 0.0
C794 C 0.03654 0.86275 0.30921 0.0
C795 C 0.97766 0.89679 0.35456 0.0
N796 N 0.01183 0.86821 0.21361 0.0
N797 N 0.99393 0.87729 0.44968 0.0
H798 H 0.93256 0.92785 0.34972 0.0
H799 H 0.94989 0.92437 0.41866 0.0
H800 H 0.01008 0.8651 0.4792 0.0
H801 H 0.97034 0.88427 0.46741 0.0
H802 H 0.02964 0.85144 0.19506 0.0
H803 H 0.99388 0.87785 0.18427 0.0
H804 H 0.07402 0.85258 0.24474 0.0
H805 H 0.08771 0.84382 0.31446 0.0
C806 C 0.84066 0.23765 0.60985 0.0
C807 C 0.85027 0.23857 0.5511 0.0
C808 C 0.87749 0.29515 0.56603 0.0
C809 C 0.87265 0.29145 0.62609 0.0
N810 N 0.85017 0.25898 0.70641 0.0
N811 N 0.87744 0.26821 0.47185 0.0
C812 C 0.85402 0.26288 0.64836 0.0
C813 C 0.86818 0.26756 0.52854 0.0
N814 N 0.81747 0.21353 0.62829 0.0
N815 N 0.89018 0.32555 0.54488 0.0
H816 H 0.87025 0.24926 0.44228 0.0
H817 H 0.89435 0.28621 0.45456 0.0
H818 H 0.89671 0.34642 0.57127 0.0
H819 H 0.8914 0.33146 0.5013 0.0
H820 H 0.80653 0.21376 0.66909 0.0
H821 H 0.80637 0.1952 0.601 0.0
H822 H 0.84149 0.23625 0.72538 0.0
H823 H 0.85745 0.27766 0.73634 0.0
C824 C 0.53747 0.86509 0.17641 0.0
C825 C 0.52845 0.85756 0.1185 0.0
C826 C 0.4696 0.87847 0.13594 0.0
C827 C 0.47784 0.88323 0.19478 0.0
N828 N 0.51794 0.87746 0.27349 0.0
N829 N 0.48436 0.85023 0.04627 0.0
C830 C 0.51133 0.87549 0.21575 0.0
C831 C 0.49407 0.8625 0.09901 0.0
N832 N 0.5712 0.86357 0.19325 0.0
N833 N 0.43854 0.88964 0.11521 0.0
H834 H 0.50073 0.83565 0.02045 0.0
H835 H 0.45936 0.85144 0.0303 0.0
H836 H 0.41956 0.90039 0.14142 0.0
H837 H 0.43249 0.89061 0.07158 0.0
H838 H 0.58002 0.8721 0.23314 0.0
H839 H 0.59104 0.85627 0.16563 0.0
H840 H 0.54058 0.86856 0.29245 0.0
H841 H 0.4996 0.88551 0.30335 0.0
C842 C 0.38847 0.26984 0.89448 0.0
C843 C 0.38679 0.25938 0.83603 0.0
C844 C 0.35345 0.20834 0.8626 0.0
C845 C 0.35838 0.21651 0.9217 0.0
N846 N 0.38405 0.25343 0.99448 0.0
N847 N 0.37201 0.21674 0.76431 0.0
C848 C 0.37653 0.24702 0.93794 0.0
C849 C 0.37071 0.22796 0.82008 0.0
N850 N 0.40162 0.30158 0.90854 0.0
N851 N 0.33064 0.18308 0.84687 0.0
H852 H 0.38298 0.23116 0.73126 0.0
H853 H 0.36449 0.19202 0.75159 0.0
H854 H 0.31586 0.16941 0.87645 0.0
H855 H 0.32348 0.17829 0.8044 0.0
H856 H 0.39953 0.31259 0.94929 0.0
H857 H 0.41275 0.31814 0.87855 0.0
H858 H 0.40112 0.27251 0.00807 0.0
H859 H 0.3755 0.23814 0.02825 0.0
C860 C 0.99028 0.12287 0.71866 0.0
C861 C 0.02 0.10831 0.69251 0.0
C862 C 0.99617 0.12093 0.59713 0.0
C863 C 0.96555 0.13389 0.62297 0.0
N864 N 0.93033 0.13906 0.7078 0.0
N865 N 0.0465 0.08452 0.60742 0.0
C866 C 0.9617 0.13245 0.68365 0.0
C867 C 0.02156 0.10472 0.63192 0.0
N868 N 0.98975 0.12892 0.77661 0.0
N869 N 0.00207 0.12549 0.53982 0.0
H870 H 0.06503 0.07126 0.63133 0.0
H871 H 0.04655 0.07789 0.56396 0.0
H872 H 0.98443 0.1369 0.51219 0.0
H873 H 0.02578 0.1206 0.5206 0.0
H874 H 0.97061 0.14338 0.79678 0.0
H875 H 0.00996 0.12238 0.80409 0.0
H876 H 0.92505 0.13517 0.75119 0.0
H877 H 0.90847 0.14489 0.68347 0.0
C878 C 0.13143 0.73943 0.47734 0.0
C879 C 0.13959 0.7716 0.45167 0.0
C880 C 0.11831 0.7506 0.35885 0.0
C881 C 0.1145 0.71702 0.38263 0.0
N882 N 0.12117 0.67818 0.4631 0.0
N883 N 0.14478 0.8071 0.36706 0.0
C884 C 0.12181 0.71108 0.44168 0.0
C885 C 0.13412 0.77702 0.39214 0.0
N886 N 0.13225 0.73622 0.53588 0.0
N887 N 0.10533 0.75771 0.30546 0.0
H888 H 0.15544 0.82756 0.39036 0.0
H889 H 0.14534 0.81074 0.3227 0.0
H890 H 0.09216 0.73945 0.28089 0.0
H891 H 0.10442 0.78248 0.28801 0.0
H892 H 0.12318 0.71456 0.55759 0.0
H893 H 0.13914 0.75656 0.56314 0.0
H894 H 0.12985 0.67179 0.50415 0.0
H895 H 0.11473 0.65665 0.43824 0.0
C896 C 0.97092 0.63065 0.34617 0.0
C897 C 0.96966 0.60803 0.39425 0.0
C898 C 0.02025 0.57686 0.35775 0.0
C899 C 0.02065 0.59881 0.30883 0.0
N900 N 0.99021 0.63971 0.24861 0.0
N901 N 0.98761 0.55461 0.43842 0.0
C902 C 0.99383 0.62325 0.30025 0.0
C903 C 0.99275 0.57962 0.39786 0.0
N904 N 0.95235 0.66073 0.34592 0.0
N905 N 0.04615 0.55338 0.36592 0.0
H906 H 0.96705 0.55527 0.46715 0.0
H907 H 0.00152 0.53158 0.44002 0.0
H908 H 0.06516 0.54858 0.33534 0.0
H909 H 0.04974 0.53978 0.4041 0.0
H910 H 0.95529 0.67964 0.31473 0.0
H911 H 0.93666 0.66889 0.3795 0.0
H912 H 0.96885 0.65481 0.2382 0.0
H913 H 0.00666 0.63578 0.21401 0.0
C914 C 0.13771 0.25132 0.64686 0.0
C915 C 0.11946 0.22269 0.62326 0.0
C916 C 0.12297 0.24878 0.52729 0.0
C917 C 0.14268 0.27646 0.55055 0.0
N918 N 0.17697 0.2986 0.62912 0.0
N919 N 0.10303 0.18992 0.53915 0.0
C920 C 0.15244 0.27614 0.60937 0.0
C921 C 0.11455 0.22018 0.56286 0.0
N922 N 0.13976 0.25596 0.70502 0.0
N923 N 0.11111 0.25024 0.4719 0.0
H924 H 0.09791 0.16791 0.56356 0.0
H925 H 0.10216 0.18538 0.49499 0.0
H926 H 0.11682 0.27036 0.4438 0.0
H927 H 0.09307 0.23297 0.45526 0.0
H928 H 0.14873 0.27869 0.72395 0.0
H929 H 0.1301 0.23845 0.73461 0.0
H930 H 0.18775 0.29701 0.67013 0.0
H931 H 0.18934 0.31645 0.60274 0.0
C932 C 0.4921 0.36058 0.83245 0.0
C933 C 0.4818 0.3938 0.81233 0.0
C934 C 0.52678 0.42064 0.87246 0.0
C935 C 0.5345 0.38779 0.89621 0.0
N936 N 0.52449 0.3262 0.90066 0.0
N937 N 0.48632 0.45597 0.81871 0.0
C938 C 0.51711 0.35773 0.87675 0.0
C939 C 0.49858 0.424 0.8334 0.0
N940 N 0.47938 0.33147 0.807 0.0
N941 N 0.54637 0.44863 0.88731 0.0
H942 H 0.46545 0.45956 0.79116 0.0
H943 H 0.4948 0.47892 0.8374 0.0
H944 H 0.56622 0.44734 0.91756 0.0
H945 H 0.54473 0.47248 0.86676 0.0
H946 H 0.48941 0.30677 0.81329 0.0
H947 H 0.46028 0.33224 0.77601 0.0
H948 H 0.5089 0.3045 0.89584 0.0
H949 H 0.54562 0.32178 0.92746 0.0
C950 C 0.35214 0.7177 0.11646 0.0
C951 C 0.36214 0.71984 0.05795 0.0
C952 C 0.39404 0.77312 0.07969 0.0
C953 C 0.38895 0.76745 0.13927 0.0
N954 N 0.3645 0.73277 0.21527 0.0
N955 N 0.39407 0.74935 0.98345 0.0
C956 C 0.36812 0.73949 0.15796 0.0
C957 C 0.38321 0.74768 0.03923 0.0
N958 N 0.32613 0.69589 0.13204 0.0
N959 N 0.40798 0.80362 0.06163 0.0
H960 H 0.38584 0.73244 0.95139 0.0
H961 H 0.41323 0.76616 0.96959 0.0
H962 H 0.41521 0.82315 0.09017 0.0
H963 H 0.40894 0.81105 0.01865 0.0
H964 H 0.31526 0.69569 0.17292 0.0
H965 H 0.31271 0.68069 0.10244 0.0
H966 H 0.35375 0.71002 0.23098 0.0
H967 H 0.3741 0.74881 0.24745 0.0
C968 C 0.01023 0.40276 0.61286 0.0
C969 C 0.03714 0.38085 0.63301 0.0
C970 C 0.01042 0.37874 0.72849 0.0
C971 C 0.98359 0.40057 0.7082 0.0
N972 N 0.96335 0.44138 0.63745 0.0
N973 N 0.06776 0.35566 0.71297 0.0
C974 C 0.98518 0.41506 0.6523 0.0
C975 C 0.0387 0.37118 0.69184 0.0
N976 N 0.00725 0.41037 0.55563 0.0
N977 N 0.00831 0.36415 0.78188 0.0
H978 H 0.0893 0.35063 0.68758 0.0
H979 H 0.07196 0.35091 0.75649 0.0
H980 H 0.98881 0.36998 0.811 0.0
H981 H 0.02461 0.3445 0.79606 0.0
H982 H 0.98563 0.42225 0.53782 0.0
H983 H 0.02488 0.40247 0.52468 0.0
H984 H 0.96578 0.45568 0.59977 0.0
H985 H 0.94492 0.45139 0.66546 0.0
C986 C 0.90066 0.78634 0.41516 0.0
C987 C 0.89088 0.78421 0.3564 0.0
C988 C 0.85003 0.7381 0.38038 0.0
C989 C 0.86344 0.73678 0.43722 0.0
N990 N 0.90126 0.76203 0.50985 0.0
N991 N 0.85969 0.75406 0.28134 0.0
C992 C 0.88845 0.76162 0.45501 0.0
C993 C 0.86626 0.75921 0.33853 0.0
N994 N 0.92195 0.81177 0.43483 0.0
N995 N 0.82062 0.72043 0.36702 0.0
H996 H 0.87111 0.76842 0.24874 0.0
H997 H 0.84524 0.73334 0.26587 0.0
H998 H 0.80677 0.70653 0.39752 0.0
H999 H 0.80773 0.72302 0.3279 0.0
H1000 H 0.93154 0.83178 0.40948 0.0
H1001 H 0.93154 0.83178 0.40948 0.0
H1002 H 0.91968 0.77992 0.5235 0.0
H1003 H 0.89442 0.74462 0.54173 0.0
C1004 C 0.50217 0.6053 0.09886 0.0
C1005 C 0.47269 0.62281 0.12027 0.0
C1006 C 0.49973 0.62722 0.21549 0.0
C1007 C 0.52886 0.60856 0.19487 0.0
N1008 N 0.55396 0.57288 0.12049 0.0
N1009 N 0.43976 0.64258 0.20146 0.0
C1010 C 0.52896 0.59559 0.13755 0.0
C1011 C 0.4704 0.63133 0.1794 0.0
N1012 N 0.50543 0.5992 0.04121 0.0
N1013 N 0.50053 0.6427 0.26839 0.0
H1014 H 0.41758 0.64531 0.17641 0.0
H1015 H 0.43533 0.64576 0.24531 0.0
H1016 H 0.52103 0.6404 0.29694 0.0
H1017 H 0.48201 0.66034 0.28223 0.0
H1018 H 0.52833 0.59115 0.02221 0.0
H1019 H 0.48599 0.60428 0.01147 0.0
H1020 H 0.55316 0.55946 0.08163 0.0
H1021 H 0.57389 0.56479 0.1473 0.0
C1022 C 0.63108 0.24284 0.96486 0.0
C1023 C 0.62968 0.27787 0.94664 0.0
C1024 C 0.60523 0.25987 0.85418 0.0
C1025 C 0.60918 0.22472 0.87051 0.0
N1026 N 0.63063 0.18223 0.93736 0.0
N1027 N 0.62256 0.31928 0.87032 0.0
C1028 C 0.62348 0.21604 0.92478 0.0
C1029 C 0.61882 0.28628 0.89018 0.0
N1030 N 0.63855 0.23526 0.02097 0.0
N1031 N 0.58712 0.2681 0.80561 0.0
H1032 H 0.63357 0.33889 0.89513 0.0
H1033 H 0.61803 0.32634 0.82774 0.0
H1034 H 0.57622 0.24944 0.77874 0.0
H1035 H 0.5801 0.29333 0.79502 0.0
H1036 H 0.63612 0.21061 0.03845 0.0
H1037 H 0.64473 0.2541 0.05147 0.0
H1038 H 0.64447 0.17452 0.97357 0.0
H1039 H 0.6252 0.16194 0.9091 0.0
C1040 C 0.24323 0.25034 0.19591 0.0
C1041 C 0.26585 0.22345 0.21393 0.0
C1042 C 0.26863 0.2491 0.3103 0.0
C1043 C 0.24913 0.27774 0.29041 0.0
N1044 N 0.22217 0.30862 0.21243 0.0
N1045 N 0.30586 0.20134 0.28483 0.0
C1046 C 0.23769 0.27926 0.2326 0.0
C1047 C 0.28012 0.22387 0.27025 0.0
N1048 N 0.22575 0.24753 0.14498 0.0
N1049 N 0.2752 0.24532 0.36775 0.0
H1050 H 0.31598 0.1832 0.25631 0.0
H1051 H 0.3196 0.20298 0.3233 0.0
H1052 H 0.26684 0.26302 0.3986 0.0
H1053 H 0.28605 0.22303 0.38532 0.0
H1054 H 0.20636 0.26458 0.1324 0.0
H1055 H 0.2281 0.22625 0.1177 0.0
H1056 H 0.21674 0.31276 0.16908 0.0
H1057 H 0.21739 0.33015 0.23838 0.0
C1058 C 0.47955 0.51695 0.43253 0.0
C1059 C 0.51555 0.51758 0.44321 0.0
C1060 C 0.50509 0.50023 0.54303 0.0
C1061 C 0.46974 0.49485 0.52981 0.0
N1062 N 0.42501 0.49121 0.4575 0.0
N1063 N 0.56316 0.50362 0.50619 0.0
C1064 C 0.45737 0.50137 0.47333 0.0
C1065 C 0.52854 0.5076 0.49787 0.0
N1066 N 0.46627 0.53242 0.3845 0.0
N1067 N 0.51616 0.49966 0.59889 0.0
H1068 H 0.58123 0.50778 0.47393 0.0
H1069 H 0.57367 0.49287 0.54339 0.0
H1070 H 0.49974 0.49552 0.63352 0.0
H1071 H 0.54092 0.50689 0.61126 0.0
H1072 H 0.43993 0.53556 0.37763 0.0
H1073 H 0.48139 0.54557 0.35476 0.0
H1074 H 0.41616 0.49224 0.41517 0.0
H1075 H 0.40833 0.47831 0.48511 0.0
C1076 C 0.20617 0.7335 0.72119 0.0
C1077 C 0.22246 0.76572 0.71011 0.0
C1078 C 0.27385 0.74537 0.76201 0.0
C1079 C 0.25601 0.71492 0.77845 0.0
N1080 N 0.20219 0.68405 0.78445 0.0
N1081 N 0.26939 0.80485 0.73013 0.0
C1082 C 0.22128 0.71014 0.76116 0.0
C1083 C 0.25566 0.77238 0.73338 0.0
N1084 N 0.17724 0.72418 0.69137 0.0
N1085 N 0.30848 0.74801 0.77155 0.0
H1086 H 0.25651 0.82561 0.71114 0.0
H1087 H 0.29192 0.81202 0.75141 0.0
H1088 H 0.32296 0.72851 0.79103 0.0
H1089 H 0.32341 0.76799 0.75503 0.0
H1090 H 0.16648 0.69955 0.69374 0.0
H1091 H 0.16613 0.73953 0.65953 0.0
H1092 H 0.17575 0.68172 0.77786 0.0
H1093 H 0.21192 0.66691 0.81506 0.0
C1094 C 0.98573 0.53056 0.0381 0.0
C1095 C 0.0222 0.53002 0.03441 0.0
C1096 C 0.01906 0.48972 0.95305 0.0
C1097 C 0.98284 0.48777 0.96017 0.0
N1098 N 0.93191 0.50217 0.01421 0.0
N1099 N 0.07419 0.50645 0.99339 0.0
C1100 C 0.96615 0.50728 0.00371 0.0
C1101 C 0.03905 0.50867 0.99352 0.0
N1102 N 0.96981 0.55319 0.07471 0.0
N1103 N 0.03418 0.47501 0.90586 0.0
H1104 H 0.0899 0.52157 0.01978 0.0
H1105 H 0.08775 0.48807 0.96972 0.0
H1106 H 0.02038 0.46173 0.87426 0.0
H1107 H 0.05988 0.47868 0.89497 0.0
H1108 H 0.94341 0.55789 0.07423 0.0
H1109 H 0.98314 0.56907 0.10339 0.0
H1110 H 0.91902 0.51267 0.04933 0.0
H1111 H 0.9168 0.48495 0.99058 0.0
C1112 C 0.7098 0.77329 0.73626 0.0
C1113 C 0.73139 0.78881 0.77838 0.0
C1114 C 0.77811 0.74896 0.75194 0.0
C1115 C 0.75754 0.73567 0.70641 0.0
N1116 N 0.70655 0.74066 0.64743 0.0
N1117 N 0.78815 0.79601 0.81905 0.0
C1118 C 0.72412 0.74936 0.69637 0.0
C1119 C 0.76616 0.77791 0.78424 0.0
N1120 N 0.67527 0.78017 0.73581 0.0
N1121 N 0.80852 0.73313 0.76582 0.0
H1122 H 0.78058 0.81776 0.84244 0.0
H1123 H 0.81458 0.79154 0.82049 0.0
H1124 H 0.818 0.71167 0.74363 0.0
H1125 H 0.82278 0.73926 0.80244 0.0
H1126 H 0.65778 0.76673 0.71014 0.0
H1127 H 0.66353 0.79693 0.76497 0.0
H1128 H 0.68367 0.75258 0.63489 0.0
H1129 H 0.71659 0.7241 0.6163 0.0
C1130 C 0.71736 0.26418 0.23256 0.0
C1131 C 0.73775 0.2906 0.2076 0.0
C1132 C 0.78913 0.26675 0.25436 0.0
C1133 C 0.7695 0.23816 0.27385 0.0
N1134 N 0.71588 0.20677 0.27426 0.0
N1135 N 0.79414 0.31301 0.18515 0.0
C1136 C 0.73381 0.23608 0.26105 0.0
C1137 C 0.77395 0.29081 0.21584 0.0
N1138 N 0.68226 0.26657 0.23081 0.0
N1139 N 0.82177 0.27198 0.27476 0.0
H1140 H 0.78426 0.33089 0.15592 0.0
H1141 H 0.82091 0.31142 0.18459 0.0
H1142 H 0.83359 0.25578 0.30473 0.0
H1143 H 0.83579 0.29438 0.26659 0.0
H1144 H 0.66607 0.25007 0.25341 0.0
H1145 H 0.6693 0.28706 0.21114 0.0
H1146 H 0.69072 0.20229 0.2606 0.0
H1147 H 0.72712 0.18546 0.29443 0.0
C1148 C 0.97907 0.04179 0.95696 0.0
C1149 C 0.01346 0.02933 0.954 0.0
C1150 C 0.99832 0.98152 0.01807 0.0
C1151 C 0.96546 0.99669 0.02696 0.0
N1152 N 0.92709 0.04526 0.01357 0.0
N1153 N 0.0575 0.99081 0.99015 0.0
C1154 C 0.95646 0.02794 -0.0012 0.0
C1155 C 0.02358 1.00007 0.98678 0.0
N1156 N 0.96738 0.06565 0.91816 0.0
N1157 N 0.00506 0.94891 0.03785 0.0
H1158 H 0.07703 0.00437 0.96944 0.0
H1159 H 0.06666 0.97186 0.01812 0.0
H1160 H 0.98691 0.93409 0.05968 0.0
H1161 H 0.02734 0.93526 0.0275 0.0
H1162 H 0.94161 0.07297 0.91512 0.0
H1163 H 0.98244 0.07529 0.88486 0.0
H1164 H 0.92134 0.07005 -0.00125 0.0
H1165 H 0.91011 0.03646 0.04491 0.0
C1166 C 0.51666 0.98877 0.52435 0.0
C1167 C 0.5347 0.02 0.51346 0.0
C1168 C 0.50149 0.02801 0.42456 0.0
C1169 C 0.48078 0.99911 0.43902 0.0
N1170 N 0.46537 0.95463 0.50677 0.0
N1171 N 0.53993 0.07279 0.4587 0.0
C1172 C 0.48753 0.98009 0.48997 0.0
C1173 C 0.52606 0.04053 0.46491 0.0
N1174 N 0.52805 0.96684 0.56639 0.0
N1175 N 0.49858 0.04282 0.3714 0.0
H1176 H 0.55743 0.08344 0.48781 0.0
H1177 H 0.53161 0.09033 0.42766 0.0
H1178 H 0.4813 0.03414 0.34017 0.0
H1179 H 0.51559 0.06147 0.35626 0.0
H1180 H 0.51819 0.94209 0.57252 0.0
H1181 H 0.54961 0.97206 0.59176 0.0
H1182 H 0.46679 0.94247 0.54663 0.0
H1183 H 0.44364 0.94768 0.48298 0.0
loop_
_geom_bond_atom_site_label_1
_geom_bond_atom_site_label_2
_geom_bond_distance
_geom_bond_site_symmetry_2
_ccdc_geom_bond_type
Zn0 O6 1.969 . S
Zn0 O7 1.965 . S
Zn0 O11 2.024 . S
Zn0 O16 1.969 . S
Zn1 O8 1.969 . S
Zn1 O14 1.969 1_554 S
Zn1 O15 1.965 1_554 S
Zn1 O17 2.024 . S
C2 O3 1.229 . S
C2 O11 1.058 . S
O3 C2 1.229 . S
C4 O5 1.229 . S
C4 O17 1.058 . S
O5 C4 1.229 . S
O6 Zn0 1.969 . S
O6 C9 1.267 . S
O7 Zn0 1.965 . S
O7 C18 1.260 . S
O8 Zn1 1.969 . S
O8 C18 1.258 . S
C9 O6 1.267 . S
C9 O10 1.228 . S
O10 C9 1.228 . S
O11 Zn0 2.024 . S
O11 C2 1.058 . S
C12 O13 1.228 . S
C12 O14 1.267 . S
O13 C12 1.228 . S
O14 Zn1 1.969 1_556 S
O14 C12 1.267 . S
O15 Zn1 1.965 1_556 S
O15 C19 1.260 . S
O16 Zn0 1.969 . S
O16 C19 1.258 1_554 S
O17 Zn1 2.024 . S
O17 C4 1.058 . S
C18 O7 1.260 . S
C18 O8 1.258 . S
C19 O15 1.260 . S
C19 O16 1.258 1_556 S
Zn20 O26 1.969 . S
Zn20 O27 1.965 . S
Zn20 O31 2.024 . S
Zn20 O36 1.969 . S
Zn21 O28 1.969 . S
Zn21 O34 1.969 . S
Zn21 O35 1.965 . S
Zn21 O37 2.024 . S
C22 O23 1.229 . S
C22 O31 1.058 . S
O23 C22 1.229 . S
C24 O25 1.229 . S
C24 O37 1.058 . S
O25 C24 1.229 . S
O26 Zn20 1.969 . S
O26 C29 1.267 . S
O27 Zn20 1.965 . S
O27 C38 1.260 . S
O28 Zn21 1.969 . S
O28 C38 1.258 . S
C29 O26 1.267 . S
C29 O30 1.228 . S
O30 C29 1.228 . S
O31 Zn20 2.024 . S
O31 C22 1.058 . S
C32 O33 1.228 . S
C32 O34 1.267 . S
O33 C32 1.228 . S
O34 Zn21 1.969 . S
O34 C32 1.267 . S
O35 Zn21 1.965 . S
O35 C39 1.260 . S
O36 Zn20 1.969 . S
O36 C39 1.258 . S
O37 Zn21 2.024 . S
O37 C24 1.058 . S
C38 O27 1.260 . S
C38 O28 1.258 . S
C39 O35 1.260 . S
C39 O36 1.258 . S
Zn40 O46 1.969 . S
Zn40 O47 1.965 . S
Zn40 O51 2.024 . S
Zn40 O56 1.969 . S
Zn41 O48 1.969 . S
Zn41 O54 1.969 . S
Zn41 O55 1.965 . S
Zn41 O57 2.024 . S
C42 O43 1.229 . S
C42 O51 1.058 . S
O43 C42 1.229 . S
C44 O45 1.229 . S
C44 O57 1.058 . S
O45 C44 1.229 . S
O46 Zn40 1.969 . S
O46 C49 1.267 . S
O47 Zn40 1.965 . S
O47 C58 1.260 . S
O48 Zn41 1.969 . S
O48 C58 1.258 . S
C49 O46 1.267 . S
C49 O50 1.228 . S
O50 C49 1.228 . S
O51 Zn40 2.024 . S
O51 C42 1.058 . S
C52 O53 1.228 . S
C52 O54 1.267 . S
O53 C52 1.228 . S
O54 Zn41 1.969 . S
O54 C52 1.267 . S
O55 Zn41 1.965 . S
O55 C59 1.260 . S
O56 Zn40 1.969 . S
O56 C59 1.258 . S
O57 Zn41 2.024 . S
O57 C44 1.058 . S
C58 O47 1.260 . S
C58 O48 1.258 . S
C59 O55 1.260 . S
C59 O56 1.258 . S
Zn60 O66 1.969 . S
Zn60 O67 1.965 . S
Zn60 O71 2.024 . S
Zn60 O76 1.969 . S
Zn61 O68 1.969 . S
Zn61 O74 1.969 . S
Zn61 O75 1.965 . S
Zn61 O77 2.024 . S
C62 O63 1.229 . S
C62 O71 1.058 . S
O63 C62 1.229 . S
C64 O65 1.229 . S
C64 O77 1.058 . S
O65 C64 1.229 . S
O66 Zn60 1.969 . S
O66 C69 1.267 . S
O67 Zn60 1.965 . S
O67 C78 1.260 . S
O68 Zn61 1.969 . S
O68 C78 1.258 . S
C69 O66 1.267 . S
C69 O70 1.228 . S
O70 C69 1.228 . S
O71 Zn60 2.024 . S
O71 C62 1.058 . S
C72 O73 1.228 . S
C72 O74 1.267 . S
O73 C72 1.228 . S
O74 Zn61 1.969 . S
O74 C72 1.267 . S
O75 Zn61 1.965 . S
O75 C79 1.260 . S
O76 Zn60 1.969 . S
O76 C79 1.258 . S
O77 Zn61 2.024 . S
O77 C64 1.058 . S
C78 O67 1.260 . S
C78 O68 1.258 . S
C79 O75 1.260 . S
C79 O76 1.258 . S
Zn80 O86 1.969 1_556 S
Zn80 O87 1.965 1_556 S
Zn80 O91 2.024 . S
Zn80 O96 1.969 . S
Zn81 O88 1.969 . S
Zn81 O94 1.969 . S
Zn81 O95 1.965 . S
Zn81 O97 2.024 . S
C82 O83 1.229 . S
C82 O91 1.058 . S
O83 C82 1.229 . S
C84 O85 1.229 . S
C84 O97 1.058 . S
O85 C84 1.229 . S
O86 Zn80 1.969 1_554 S
O86 C89 1.267 . S
O87 Zn80 1.965 1_554 S
O87 C98 1.260 . S
O88 Zn81 1.969 . S
O88 C98 1.258 1_556 S
C89 O86 1.267 . S
C89 O90 1.228 . S
O90 C89 1.228 . S
O91 Zn80 2.024 . S
O91 C82 1.058 . S
C92 O93 1.228 . S
C92 O94 1.267 . S
O93 C92 1.228 . S
O94 Zn81 1.969 . S
O94 C92 1.267 . S
O95 Zn81 1.965 . S
O95 C99 1.260 . S
O96 Zn80 1.969 . S
O96 C99 1.258 . S
O97 Zn81 2.024 . S
O97 C84 1.058 . S
C98 O87 1.260 . S
C98 O88 1.258 1_554 S
C99 O95 1.260 . S
C99 O96 1.258 . S
Zn100 O106 1.969 . S
Zn100 O107 1.965 . S
Zn100 O111 2.024 . S
Zn100 O116 1.969 . S
Zn101 O108 1.969 . S
Zn101 O114 1.969 . S
Zn101 O115 1.965 . S
Zn101 O117 2.024 . S
C102 O103 1.229 . S
C102 O111 1.058 . S
O103 C102 1.229 . S
C104 O105 1.229 . S
C104 O117 1.058 . S
O105 C104 1.229 . S
O106 Zn100 1.969 . S
O106 C109 1.267 . S
O107 Zn100 1.965 . S
O107 C118 1.260 . S
O108 Zn101 1.969 . S
O108 C118 1.258 . S
C109 O106 1.267 . S
C109 O110 1.228 . S
O110 C109 1.228 . S
O111 Zn100 2.024 . S
O111 C102 1.058 . S
C112 O113 1.228 . S
C112 O114 1.267 . S
O113 C112 1.228 . S
O114 Zn101 1.969 . S
O114 C112 1.267 . S
O115 Zn101 1.965 . S
O115 C119 1.260 . S
O116 Zn100 1.969 . S
O116 C119 1.258 . S
O117 Zn101 2.024 . S
O117 C104 1.058 . S
C118 O107 1.260 . S
C118 O108 1.258 . S
C119 O115 1.260 . S
C119 O116 1.258 . S
Zn120 O126 1.969 . S
Zn120 O127 1.965 . S
Zn120 O131 2.024 . S
Zn120 O136 1.969 . S
Zn121 O128 1.969 . S
Zn121 O134 1.969 . S
Zn121 O135 1.965 . S
Zn121 O137 2.024 . S
C122 O123 1.229 . S
C122 O131 1.058 . S
O123 C122 1.229 . S
C124 O125 1.229 . S
C124 O137 1.058 . S
O125 C124 1.229 . S
O126 Zn120 1.969 . S
O126 C129 1.267 . S
O127 Zn120 1.965 . S
O127 C138 1.260 . S
O128 Zn121 1.969 . S
O128 C138 1.258 . S
C129 O126 1.267 . S
C129 O130 1.228 . S
O130 C129 1.228 . S
O131 Zn120 2.024 . S
O131 C122 1.058 . S
C132 O133 1.228 . S
C132 O134 1.267 . S
O133 C132 1.228 . S
O134 Zn121 1.969 . S
O134 C132 1.267 . S
O135 Zn121 1.965 . S
O135 C139 1.260 . S
O136 Zn120 1.969 . S
O136 C139 1.258 . S
O137 Zn121 2.024 . S
O137 C124 1.058 . S
C138 O127 1.260 . S
C138 O128 1.258 . S
C139 O135 1.260 . S
C139 O136 1.258 . S
Zn140 O146 1.969 . S
Zn140 O147 1.965 . S
Zn140 O151 2.024 . S
Zn140 O156 1.969 . S
Zn141 O148 1.969 . S
Zn141 O154 1.969 . S
Zn141 O155 1.965 . S
Zn141 O157 2.024 . S
C142 O143 1.229 . S
C142 O151 1.058 . S
O143 C142 1.229 . S
C144 O145 1.229 . S
C144 O157 1.058 . S
O145 C144 1.229 . S
O146 Zn140 1.969 . S
O146 C149 1.267 . S
O147 Zn140 1.965 . S
O147 C158 1.260 . S
O148 Zn141 1.969 . S
O148 C158 1.258 . S
C149 O146 1.267 . S
C149 O150 1.228 . S
O150 C149 1.228 . S
O151 Zn140 2.024 . S
O151 C142 1.058 . S
C152 O153 1.228 . S
C152 O154 1.267 . S
O153 C152 1.228 . S
O154 Zn141 1.969 . S
O154 C152 1.267 . S
O155 Zn141 1.965 . S
O155 C159 1.260 . S
O156 Zn140 1.969 . S
O156 C159 1.258 . S
O157 Zn141 2.024 . S
O157 C144 1.058 . S
C158 O147 1.260 . S
C158 O148 1.258 . S
C159 O155 1.260 . S
C159 O156 1.258 . S
Zn160 O166 1.969 . S
Zn160 O167 1.965 . S
Zn160 O171 2.024 . S
Zn160 O176 1.969 . S
Zn161 O168 1.969 . S
Zn161 O174 1.969 . S
Zn161 O175 1.965 . S
Zn161 O177 2.024 . S
C162 O163 1.229 . S
C162 O171 1.058 . S
O163 C162 1.229 . S
C164 O165 1.229 . S
C164 O177 1.058 . S
O165 C164 1.229 . S
O166 Zn160 1.969 . S
O166 C169 1.267 . S
O167 Zn160 1.965 . S
O167 C178 1.260 . S
O168 Zn161 1.969 . S
O168 C178 1.258 . S
C169 O166 1.267 . S
C169 O170 1.228 . S
O170 C169 1.228 . S
O171 Zn160 2.024 . S
O171 C162 1.058 . S
C172 O173 1.228 . S
C172 O174 1.267 . S
O173 C172 1.228 . S
O174 Zn161 1.969 . S
O174 C172 1.267 . S
O175 Zn161 1.965 . S
O175 C179 1.260 . S
O176 Zn160 1.969 . S
O176 C179 1.258 . S
O177 Zn161 2.024 . S
O177 C164 1.058 . S
C178 O167 1.260 . S
C178 O168 1.258 . S
C179 O175 1.260 . S
C179 O176 1.258 . S
Zn180 O186 1.969 . S
Zn180 O187 1.965 . S
Zn180 O191 2.024 . S
Zn180 O196 1.969 . S
Zn181 O188 1.969 . S
Zn181 O194 1.969 . S
Zn181 O195 1.965 . S
Zn181 O197 2.024 . S
C182 O183 1.228 1_545 S
C182 O191 1.058 . S
O183 C182 1.228 1_565 S
C184 O185 1.229 . S
C184 O197 1.058 . S
O185 C184 1.229 . S
O186 Zn180 1.969 . S
O186 C189 1.267 . S
O187 Zn180 1.965 . S
O187 C198 1.260 . S
O188 Zn181 1.969 . S
O188 C198 1.258 . S
C189 O186 1.267 . S
C189 O190 1.228 . S
O190 C189 1.228 . S
O191 Zn180 2.024 . S
O191 C182 1.058 . S
C192 O193 1.228 . S
C192 O194 1.267 . S
O193 C192 1.228 . S
O194 Zn181 1.969 . S
O194 C192 1.267 . S
O195 Zn181 1.965 . S
O195 C199 1.260 . S
O196 Zn180 1.969 . S
O196 C199 1.258 . S
O197 Zn181 2.024 . S
O197 C184 1.058 . S
C198 O187 1.260 . S
C198 O188 1.258 . S
C199 O195 1.260 . S
C199 O196 1.258 . S
Zn200 O206 1.969 . S
Zn200 O207 1.965 . S
Zn200 O211 2.024 . S
Zn200 O216 1.969 . S
Zn201 O208 1.969 . S
Zn201 O214 1.969 1_554 S
Zn201 O215 1.965 1_554 S
Zn201 O217 2.024 . S
C202 O203 1.229 . S
C202 O211 1.058 . S
O203 C202 1.229 . S
C204 O205 1.229 . S
C204 O217 1.058 . S
O205 C204 1.229 . S
O206 Zn200 1.969 . S
O206 C209 1.267 . S
O207 Zn200 1.965 . S
O207 C218 1.260 . S
O208 Zn201 1.969 . S
O208 C218 1.258 . S
C209 O206 1.267 . S
C209 O210 1.228 . S
O210 C209 1.228 . S
O211 Zn200 2.024 . S
O211 C202 1.058 . S
C212 O213 1.228 . S
C212 O214 1.267 . S
O213 C212 1.228 . S
O214 Zn201 1.969 1_556 S
O214 C212 1.267 . S
O215 Zn201 1.965 1_556 S
O215 C219 1.260 . S
O216 Zn200 1.969 . S
O216 C219 1.258 1_554 S
O217 Zn201 2.024 . S
O217 C204 1.058 . S
C218 O207 1.260 . S
C218 O208 1.258 . S
C219 O215 1.260 . S
C219 O216 1.258 1_556 S
Zn220 O226 1.969 . S
Zn220 O227 1.965 . S
Zn220 O231 2.024 . S
Zn220 O236 1.969 . S
Zn221 O228 1.969 . S
Zn221 O234 1.969 . S
Zn221 O235 1.965 . S
Zn221 O237 2.024 . S
C222 O223 1.228 1_565 S
C222 O231 1.058 . S
O223 C222 1.228 1_545 S
C224 O225 1.229 . S
C224 O237 1.058 . S
O225 C224 1.229 . S
O226 Zn220 1.969 . S
O226 C229 1.267 . S
O227 Zn220 1.965 . S
O227 C238 1.260 . S
O228 Zn221 1.969 . S
O228 C238 1.258 . S
C229 O226 1.267 . S
C229 O230 1.228 . S
O230 C229 1.228 . S
O231 Zn220 2.024 . S
O231 C222 1.058 . S
C232 O233 1.228 . S
C232 O234 1.267 . S
O233 C232 1.228 . S
O234 Zn221 1.969 . S
O234 C232 1.267 . S
O235 Zn221 1.965 . S
O235 C239 1.260 . S
O236 Zn220 1.969 . S
O236 C239 1.258 . S
O237 Zn221 2.024 . S
O237 C224 1.058 . S
C238 O227 1.260 . S
C238 O228 1.258 . S
C239 O235 1.260 . S
C239 O236 1.258 . S
Zn240 O246 1.969 . S
Zn240 O247 1.965 . S
Zn240 O251 2.024 . S
Zn240 O256 1.969 . S
Zn241 O248 1.969 . S
Zn241 O254 1.969 . S
Zn241 O255 1.965 . S
Zn241 O257 2.024 . S
C242 O243 1.229 . S
C242 O251 1.058 . S
O243 C242 1.229 . S
C244 O245 1.229 . S
C244 O257 1.058 . S
O245 C244 1.229 . S
O246 Zn240 1.969 . S
O246 C249 1.267 . S
O247 Zn240 1.965 . S
O247 C258 1.260 . S
O248 Zn241 1.969 . S
O248 C258 1.258 . S
C249 O246 1.267 . S
C249 O250 1.228 . S
O250 C249 1.228 . S
O251 Zn240 2.024 . S
O251 C242 1.058 . S
C252 O253 1.228 . S
C252 O254 1.267 . S
O253 C252 1.228 . S
O254 Zn241 1.969 . S
O254 C252 1.267 . S
O255 Zn241 1.965 . S
O255 C259 1.260 . S
O256 Zn240 1.969 . S
O256 C259 1.258 . S
O257 Zn241 2.024 . S
O257 C244 1.058 . S
C258 O247 1.260 . S
C258 O248 1.258 . S
C259 O255 1.260 . S
C259 O256 1.258 . S
Zn260 O266 1.969 . S
Zn260 O267 1.965 . S
Zn260 O271 2.024 . S
Zn260 O276 1.969 . S
Zn261 O268 1.969 . S
Zn261 O274 1.969 . S
Zn261 O275 1.965 . S
Zn261 O277 2.024 . S
C262 O263 1.229 . S
C262 O271 1.058 . S
O263 C262 1.229 . S
C264 O265 1.228 1_565 S
C264 O277 1.058 . S
O265 C264 1.228 1_545 S
O266 Zn260 1.969 . S
O266 C269 1.267 . S
O267 Zn260 1.965 . S
O267 C278 1.260 . S
O268 Zn261 1.969 . S
O268 C278 1.258 . S
C269 O266 1.267 . S
C269 O270 1.228 . S
O270 C269 1.228 . S
O271 Zn260 2.024 . S
O271 C262 1.058 . S
C272 O273 1.228 . S
C272 O274 1.267 . S
O273 C272 1.228 . S
O274 Zn261 1.969 . S
O274 C272 1.267 . S
O275 Zn261 1.965 . S
O275 C279 1.260 . S
O276 Zn260 1.969 . S
O276 C279 1.258 . S
O277 Zn261 2.024 . S
O277 C264 1.058 . S
C278 O267 1.260 . S
C278 O268 1.258 . S
C279 O275 1.260 . S
C279 O276 1.258 . S
Zn280 O286 1.969 1_556 S
Zn280 O287 1.965 1_556 S
Zn280 O291 2.024 . S
Zn280 O296 1.969 . S
Zn281 O288 1.969 . S
Zn281 O294 1.969 . S
Zn281 O295 1.965 . S
Zn281 O297 2.024 . S
C282 O283 1.229 . S
C282 O291 1.058 . S
O283 C282 1.229 . S
C284 O285 1.229 . S
C284 O297 1.058 . S
O285 C284 1.229 . S
O286 Zn280 1.969 1_554 S
O286 C289 1.267 . S
O287 Zn280 1.965 1_554 S
O287 C298 1.260 . S
O288 Zn281 1.969 . S
O288 C298 1.258 1_556 S
C289 O286 1.267 . S
C289 O290 1.228 . S
O290 C289 1.228 . S
O291 Zn280 2.024 . S
O291 C282 1.058 . S
C292 O293 1.228 . S
C292 O294 1.267 . S
O293 C292 1.228 . S
O294 Zn281 1.969 . S
O294 C292 1.267 . S
O295 Zn281 1.965 . S
O295 C299 1.260 . S
O296 Zn280 1.969 . S
O296 C299 1.258 . S
O297 Zn281 2.024 . S
O297 C284 1.058 . S
C298 O287 1.260 . S
C298 O288 1.258 1_554 S
C299 O295 1.260 . S
C299 O296 1.258 . S
Zn300 O306 1.969 . S
Zn300 O307 1.965 . S
Zn300 O311 2.024 . S
Zn300 O316 1.969 . S
Zn301 O308 1.969 . S
Zn301 O314 1.969 . S
Zn301 O315 1.965 . S
Zn301 O317 2.024 . S
C302 O303 1.229 . S
C302 O311 1.058 . S
O303 C302 1.229 . S
C304 O305 1.228 1_545 S
C304 O317 1.058 . S
O305 C304 1.228 1_565 S
O306 Zn300 1.969 . S
O306 C309 1.267 . S
O307 Zn300 1.965 . S
O307 C318 1.260 . S
O308 Zn301 1.969 . S
O308 C318 1.258 . S
C309 O306 1.267 . S
C309 O310 1.228 . S
O310 C309 1.228 . S
O311 Zn300 2.024 . S
O311 C302 1.058 . S
C312 O313 1.228 . S
C312 O314 1.267 . S
O313 C312 1.228 . S
O314 Zn301 1.969 . S
O314 C312 1.267 . S
O315 Zn301 1.965 . S
O315 C319 1.260 . S
O316 Zn300 1.969 . S
O316 C319 1.258 . S
O317 Zn301 2.024 . S
O317 C304 1.058 . S
C318 O307 1.260 . S
C318 O308 1.258 . S
C319 O315 1.260 . S
C319 O316 1.258 . S
C320 C321 1.363 . S
C320 C326 1.379 . S
C320 N328 1.356 . S
C321 C320 1.363 . S
C321 C327 1.363 . S
C322 C323 1.363 . S
C322 C327 1.379 . S
C322 N329 1.356 . S
C323 C322 1.363 . S
C323 C326 1.363 . S
N324 C326 1.356 . S
N324 H336 0.984 1_554 S
N324 H337 0.985 . S
N325 C327 1.356 . S
N325 H330 0.984 . S
N325 H331 0.985 . S
C326 C320 1.379 . S
C326 C323 1.363 . S
C326 N324 1.356 . S
C327 C321 1.363 . S
C327 C322 1.379 . S
C327 N325 1.356 . S
N328 C320 1.356 . S
N328 H334 0.984 1_554 S
N328 H335 0.984 . S
N329 C322 1.356 . S
N329 H332 0.984 . S
N329 H333 0.985 . S
H330 N325 0.984 . S
H331 N325 0.985 . S
H332 N329 0.984 . S
H333 N329 0.985 . S
H334 N328 0.984 1_556 S
H335 N328 0.984 . S
H336 N324 0.984 1_556 S
H337 N324 0.985 . S
C338 C339 1.363 . S
C338 C344 1.379 . S
C338 N346 1.356 . S
C339 C338 1.363 . S
C339 C345 1.363 . S
C340 C341 1.363 . S
C340 C345 1.379 . S
C340 N347 1.356 . S
C341 C340 1.363 . S
C341 C344 1.363 . S
N342 C344 1.356 . S
N342 H354 0.984 . S
N342 H355 0.985 . S
N343 C345 1.356 . S
N343 H348 0.984 . S
N343 H349 0.985 . S
C344 C338 1.379 . S
C344 C341 1.363 . S
C344 N342 1.356 . S
C345 C339 1.363 . S
C345 C340 1.379 . S
C345 N343 1.356 . S
N346 C338 1.356 . S
N346 H352 0.984 . S
N346 H353 0.984 . S
N347 C340 1.356 . S
N347 H350 0.984 . S
N347 H351 0.985 . S
H348 N343 0.984 . S
H349 N343 0.985 . S
H350 N347 0.984 . S
H351 N347 0.985 . S
H352 N346 0.984 . S
H353 N346 0.984 . S
H354 N342 0.984 . S
H355 N342 0.985 . S
C356 C357 1.363 . S
C356 C362 1.379 . S
C356 N364 1.356 . S
C357 C356 1.363 . S
C357 C363 1.363 1_455 S
C358 C359 1.363 . S
C358 C363 1.379 . S
C358 N365 1.356 . S
C359 C358 1.363 . S
C359 C362 1.363 1_655 S
N360 C362 1.356 . S
N360 H372 0.984 . S
N360 H373 0.985 1_455 S
N361 C363 1.356 . S
N361 H366 0.984 1_655 S
N361 H367 0.985 . S
C362 C356 1.379 . S
C362 C359 1.363 1_455 S
C362 N360 1.356 . S
C363 C357 1.363 1_655 S
C363 C358 1.379 . S
C363 N361 1.356 . S
N364 C356 1.356 . S
N364 H370 0.984 . S
N364 H371 0.984 . S
N365 C358 1.356 . S
N365 H368 0.984 . S
N365 H369 0.985 . S
H366 N361 0.984 1_455 S
H367 N361 0.985 . S
H368 N365 0.984 . S
H369 N365 0.985 . S
H370 N364 0.984 . S
H371 N364 0.984 . S
H372 N360 0.984 . S
H373 N360 0.985 1_655 S
C374 C375 1.363 . S
C374 C380 1.379 1_655 S
C374 N382 1.356 . S
C375 C374 1.363 . S
C375 C381 1.363 . S
C376 C377 1.363 . S
C376 C381 1.379 1_455 S
C376 N383 1.356 . S
C377 C376 1.363 . S
C377 C380 1.363 . S
N378 C380 1.356 . S
N378 H390 0.984 . S
N378 H391 0.985 . S
N379 C381 1.356 . S
N379 H384 0.984 . S
N379 H385 0.985 . S
C380 C374 1.379 1_455 S
C380 C377 1.363 . S
C380 N378 1.356 . S
C381 C375 1.363 . S
C381 C376 1.379 1_655 S
C381 N379 1.356 . S
N382 C374 1.356 . S
N382 H388 0.984 . S
N382 H389 0.984 . S
N383 C376 1.356 . S
N383 H386 0.984 . S
N383 H387 0.985 . S
H384 N379 0.984 . S
H385 N379 0.985 . S
H386 N383 0.984 . S
H387 N383 0.985 . S
H388 N382 0.984 . S
H389 N382 0.984 . S
H390 N378 0.984 . S
H391 N378 0.985 . S
C392 C393 1.363 . S
C392 C398 1.379 . S
C392 N400 1.356 . S
C393 C392 1.363 . S
C393 C399 1.363 . S
C394 C395 1.363 . S
C394 C399 1.379 . S
C394 N401 1.356 . S
C395 C394 1.363 . S
C395 C398 1.363 . S
N396 C398 1.356 . S
N396 H408 0.984 1_556 S
N396 H409 0.985 . S
N397 C399 1.356 . S
N397 H402 0.984 . S
N397 H403 0.985 . S
C398 C392 1.379 . S
C398 C395 1.363 . S
C398 N396 1.356 . S
C399 C393 1.363 . S
C399 C394 1.379 . S
C399 N397 1.356 . S
N400 C392 1.356 . S
N400 H406 0.984 1_556 S
N400 H407 0.984 . S
N401 C394 1.356 . S
N401 H404 0.984 . S
N401 H405 0.985 . S
H402 N397 0.984 . S
H403 N397 0.985 . S
H404 N401 0.984 . S
H405 N401 0.985 . S
H406 N400 0.984 1_554 S
H407 N400 0.984 . S
H408 N396 0.984 1_554 S
H409 N396 0.985 . S
C410 C411 1.363 . S
C410 C416 1.379 . S
C410 N418 1.356 . S
C411 C410 1.363 . S
C411 C417 1.363 . S
C412 C413 1.363 . S
C412 C417 1.379 . S
C412 N419 1.356 . S
C413 C412 1.363 . S
C413 C416 1.363 . S
N414 C416 1.356 . S
N414 H426 0.984 . S
N414 H427 0.985 . S
N415 C417 1.356 . S
N415 H420 0.984 . S
N415 H421 0.985 . S
C416 C410 1.379 . S
C416 C413 1.363 . S
C416 N414 1.356 . S
C417 C411 1.363 . S
C417 C412 1.379 . S
C417 N415 1.356 . S
N418 C410 1.356 . S
N418 H424 0.984 . S
N418 H425 0.984 . S
N419 C412 1.356 . S
N419 H422 0.984 . S
N419 H423 0.985 . S
H420 N415 0.984 . S
H421 N415 0.985 . S
H422 N419 0.984 . S
H423 N419 0.985 . S
H424 N418 0.984 . S
H425 N418 0.984 . S
H426 N414 0.984 . S
H427 N414 0.985 . S
C428 C429 1.363 1_455 S
C428 C434 1.379 . S
C428 N436 1.356 . S
C429 C428 1.363 1_655 S
C429 C435 1.363 . S
C430 C431 1.363 1_655 S
C430 C435 1.379 . S
C430 N437 1.356 . S
C431 C430 1.363 1_455 S
C431 C434 1.363 . S
N432 C434 1.356 . S
N432 H444 0.984 . S
N432 H445 0.985 . S
N433 C435 1.356 . S
N433 H438 0.984 . S
N433 H439 0.985 . S
C434 C428 1.379 . S
C434 C431 1.363 . S
C434 N432 1.356 . S
C435 C429 1.363 . S
C435 C430 1.379 . S
C435 N433 1.356 . S
N436 C428 1.356 . S
N436 H442 0.984 . S
N436 H443 0.984 1_455 S
N437 C430 1.356 . S
N437 H440 0.984 1_655 S
N437 H441 0.985 . S
H438 N433 0.984 . S
H439 N433 0.985 . S
H440 N437 0.984 1_455 S
H441 N437 0.985 . S
H442 N436 0.984 . S
H443 N436 0.984 1_655 S
H444 N432 0.984 . S
H445 N432 0.985 . S
C446 C447 1.363 . S
C446 C452 1.379 1_455 S
C446 N454 1.356 . S
C447 C446 1.363 . S
C447 C453 1.363 . S
C448 C449 1.363 . S
C448 C453 1.379 1_655 S
C448 N455 1.356 . S
C449 C448 1.363 . S
C449 C452 1.363 . S
N450 C452 1.356 . S
N450 H462 0.984 . S
N450 H463 0.985 . S
N451 C453 1.356 . S
N451 H456 0.984 . S
N451 H457 0.985 . S
C452 C446 1.379 1_655 S
C452 C449 1.363 . S
C452 N450 1.356 . S
C453 C447 1.363 . S
C453 C448 1.379 1_455 S
C453 N451 1.356 . S
N454 C446 1.356 . S
N454 H460 0.984 . S
N454 H461 0.984 . S
N455 C448 1.356 . S
N455 H458 0.984 . S
N455 H459 0.985 . S
H456 N451 0.984 . S
H457 N451 0.985 . S
H458 N455 0.984 . S
H459 N455 0.985 . S
H460 N454 0.984 . S
H461 N454 0.984 . S
H462 N450 0.984 . S
H463 N450 0.985 . S
C464 C465 1.363 . S
C464 C470 1.379 . S
C464 N472 1.356 . S
C465 C464 1.363 . S
C465 C471 1.363 . S
C466 C467 1.363 . S
C466 C471 1.379 . S
C466 N473 1.356 1_556 S
C467 C466 1.363 . S
C467 C470 1.363 . S
N468 C470 1.356 . S
N468 H480 0.984 . S
N468 H481 0.985 . S
N469 C471 1.356 . S
N469 H474 0.984 . S
N469 H475 0.985 . S
C470 C464 1.379 . S
C470 C467 1.363 . S
C470 N468 1.356 . S
C471 C465 1.363 . S
C471 C466 1.379 . S
C471 N469 1.356 . S
N472 C464 1.356 . S
N472 H478 0.984 . S
N472 H479 0.984 . S
N473 C466 1.356 1_554 S
N473 H476 0.984 . S
N473 H477 0.985 . S
H474 N469 0.984 . S
H475 N469 0.985 . S
H476 N473 0.984 . S
H477 N473 0.985 . S
H478 N472 0.984 . S
H479 N472 0.984 . S
H480 N468 0.984 . S
H481 N468 0.985 . S
C482 C483 1.363 . S
C482 C488 1.379 . S
C482 N490 1.356 . S
C483 C482 1.363 . S
C483 C489 1.363 . S
C484 C485 1.363 . S
C484 C489 1.379 . S
C484 N491 1.356 . S
C485 C484 1.363 . S
C485 C488 1.363 . S
N486 C488 1.356 . S
N486 H498 0.984 . S
N486 H499 0.985 . S
N487 C489 1.356 . S
N487 H492 0.984 . S
N487 H493 0.985 . S
C488 C482 1.379 . S
C488 C485 1.363 . S
C488 N486 1.356 . S
C489 C483 1.363 . S
C489 C484 1.379 . S
C489 N487 1.356 . S
N490 C482 1.356 . S
N490 H496 0.984 . S
N490 H497 0.984 . S
N491 C484 1.356 . S
N491 H494 0.984 . S
N491 H495 0.985 . S
H492 N487 0.984 . S
H493 N487 0.985 . S
H494 N491 0.984 . S
H495 N491 0.985 . S
H496 N490 0.984 . S
H497 N490 0.984 . S
H498 N486 0.984 . S
H499 N486 0.985 . S
C500 C501 1.363 . S
C500 C506 1.379 . S
C500 N508 1.356 . S
C501 C500 1.363 . S
C501 C507 1.363 . S
C502 C503 1.363 . S
C502 C507 1.379 . S
C502 N509 1.356 . S
C503 C502 1.363 . S
C503 C506 1.363 . S
N504 C506 1.356 . S
N504 H516 0.984 . S
N504 H517 0.985 . S
N505 C507 1.356 . S
N505 H510 0.984 . S
N505 H511 0.985 . S
C506 C500 1.379 . S
C506 C503 1.363 . S
C506 N504 1.356 . S
C507 C501 1.363 . S
C507 C502 1.379 . S
C507 N505 1.356 . S
N508 C500 1.356 . S
N508 H514 0.984 . S
N508 H515 0.984 . S
N509 C502 1.356 . S
N509 H512 0.984 . S
N509 H513 0.985 . S
H510 N505 0.984 . S
H511 N505 0.985 . S
H512 N509 0.984 . S
H513 N509 0.985 . S
H514 N508 0.984 . S
H515 N508 0.984 . S
H516 N504 0.984 . S
H517 N504 0.985 . S
C518 C519 1.363 . S
C518 C524 1.379 . S
C518 N526 1.356 . S
C519 C518 1.363 . S
C519 C525 1.363 . S
C520 C521 1.363 . S
C520 C525 1.379 . S
C520 N527 1.356 . S
C521 C520 1.363 . S
C521 C524 1.363 . S
N522 C524 1.356 . S
N522 H534 0.984 . S
N522 H535 0.985 . S
N523 C525 1.356 . S
N523 H528 0.984 . S
N523 H529 0.985 . S
C524 C518 1.379 . S
C524 C521 1.363 . S
C524 N522 1.356 . S
C525 C519 1.363 . S
C525 C520 1.379 . S
C525 N523 1.356 . S
N526 C518 1.356 . S
N526 H532 0.984 . S
N526 H533 0.984 . S
N527 C520 1.356 . S
N527 H530 0.984 . S
N527 H531 0.985 . S
H528 N523 0.984 . S
H529 N523 0.985 . S
H530 N527 0.984 . S
H531 N527 0.985 . S
H532 N526 0.984 . S
H533 N526 0.984 . S
H534 N522 0.984 . S
H535 N522 0.985 . S
C536 C537 1.363 . S
C536 C542 1.379 . S
C536 N544 1.356 1_554 S
C537 C536 1.363 . S
C537 C543 1.363 . S
C538 C539 1.363 . S
C538 C543 1.379 . S
C538 N545 1.356 . S
C539 C538 1.363 . S
C539 C542 1.363 . S
N540 C542 1.356 . S
N540 H552 0.984 . S
N540 H553 0.985 . S
N541 C543 1.356 . S
N541 H546 0.984 . S
N541 H547 0.985 . S
C542 C536 1.379 . S
C542 C539 1.363 . S
C542 N540 1.356 . S
C543 C537 1.363 . S
C543 C538 1.379 . S
C543 N541 1.356 . S
N544 C536 1.356 1_556 S
N544 H550 0.984 . S
N544 H551 0.984 . S
N545 C538 1.356 . S
N545 H548 0.984 . S
N545 H549 0.985 . S
H546 N541 0.984 . S
H547 N541 0.985 . S
H548 N545 0.984 . S
H549 N545 0.985 . S
H550 N544 0.984 . S
H551 N544 0.984 . S
H552 N540 0.984 . S
H553 N540 0.985 . S
C554 C555 1.363 . S
C554 C560 1.379 . S
C554 N562 1.356 . S
C555 C554 1.363 . S
C555 C561 1.363 . S
C556 C557 1.363 . S
C556 C561 1.379 . S
C556 N563 1.356 . S
C557 C556 1.363 . S
C557 C560 1.363 . S
N558 C560 1.356 . S
N558 H570 0.984 . S
N558 H571 0.985 . S
N559 C561 1.356 . S
N559 H564 0.984 . S
N559 H565 0.985 . S
C560 C554 1.379 . S
C560 C557 1.363 . S
C560 N558 1.356 . S
C561 C555 1.363 . S
C561 C556 1.379 . S
C561 N559 1.356 . S
N562 C554 1.356 . S
N562 H568 0.984 . S
N562 H569 0.984 . S
N563 C556 1.356 . S
N563 H566 0.984 . S
N563 H567 0.985 . S
H564 N559 0.984 . S
H565 N559 0.985 . S
H566 N563 0.984 . S
H567 N563 0.985 . S
H568 N562 0.984 . S
H569 N562 0.984 . S
H570 N558 0.984 . S
H571 N558 0.985 . S
C572 C573 1.363 . S
C572 C578 1.379 . S
C572 N580 1.356 . S
C573 C572 1.363 . S
C573 C579 1.363 . S
C574 C575 1.363 . S
C574 C579 1.379 . S
C574 N581 1.356 . S
C575 C574 1.363 . S
C575 C578 1.363 . S
N576 C578 1.356 . S
N576 H588 0.984 . S
N576 H589 0.985 . S
N577 C579 1.356 . S
N577 H582 0.984 . S
N577 H583 0.985 . S
C578 C572 1.379 . S
C578 C575 1.363 . S
C578 N576 1.356 . S
C579 C573 1.363 . S
C579 C574 1.379 . S
C579 N577 1.356 . S
N580 C572 1.356 . S
N580 H586 0.984 . S
N580 H587 0.984 . S
N581 C574 1.356 . S
N581 H584 0.984 . S
N581 H585 0.985 . S
H582 N577 0.984 . S
H583 N577 0.985 . S
H584 N581 0.984 . S
H585 N581 0.985 . S
H586 N580 0.984 . S
H587 N580 0.984 . S
H588 N576 0.984 . S
H589 N576 0.985 . S
C590 C591 1.363 . S
C590 C596 1.379 . S
C590 N598 1.356 . S
C591 C590 1.363 . S
C591 C597 1.363 . S
C592 C593 1.363 . S
C592 C597 1.379 . S
C592 N599 1.356 . S
C593 C592 1.363 . S
C593 C596 1.363 . S
N594 C596 1.356 . S
N594 H606 0.984 . S
N594 H607 0.985 . S
N595 C597 1.356 . S
N595 H600 0.984 . S
N595 H601 0.985 . S
C596 C590 1.379 . S
C596 C593 1.363 . S
C596 N594 1.356 . S
C597 C591 1.363 . S
C597 C592 1.379 . S
C597 N595 1.356 . S
N598 C590 1.356 . S
N598 H604 0.984 . S
N598 H605 0.984 . S
N599 C592 1.356 . S
N599 H602 0.984 . S
N599 H603 0.985 . S
H600 N595 0.984 . S
H601 N595 0.985 . S
H602 N599 0.984 . S
H603 N599 0.985 . S
H604 N598 0.984 . S
H605 N598 0.984 . S
H606 N594 0.984 . S
H607 N594 0.985 . S
C608 C609 1.363 . S
C608 C614 1.379 . S
C608 N616 1.356 . S
C609 C608 1.363 . S
C609 C615 1.363 . S
C610 C611 1.363 . S
C610 C615 1.379 . S
C610 N617 1.356 . S
C611 C610 1.363 . S
C611 C614 1.363 . S
N612 C614 1.356 . S
N612 H624 0.984 . S
N612 H625 0.985 . S
N613 C615 1.356 . S
N613 H618 0.984 . S
N613 H619 0.985 . S
C614 C608 1.379 . S
C614 C611 1.363 . S
C614 N612 1.356 . S
C615 C609 1.363 . S
C615 C610 1.379 . S
C615 N613 1.356 . S
N616 C608 1.356 . S
N616 H622 0.984 . S
N616 H623 0.984 . S
N617 C610 1.356 . S
N617 H620 0.984 . S
N617 H621 0.985 . S
H618 N613 0.984 . S
H619 N613 0.985 . S
H620 N617 0.984 . S
H621 N617 0.985 . S
H622 N616 0.984 . S
H623 N616 0.984 . S
H624 N612 0.984 . S
H625 N612 0.985 . S
C626 C627 1.363 . S
C626 C632 1.379 . S
C626 N634 1.356 1_565 S
C627 C626 1.363 . S
C627 C633 1.363 . S
C628 C629 1.363 . S
C628 C633 1.379 . S
C628 N635 1.356 . S
C629 C628 1.363 . S
C629 C632 1.363 . S
N630 C632 1.356 . S
N630 H642 0.984 . S
N630 H643 0.985 . S
N631 C633 1.356 . S
N631 H636 0.984 . S
N631 H637 0.985 . S
C632 C626 1.379 . S
C632 C629 1.363 . S
C632 N630 1.356 . S
C633 C627 1.363 . S
C633 C628 1.379 . S
C633 N631 1.356 . S
N634 C626 1.356 1_545 S
N634 H640 0.984 . S
N634 H641 0.984 . S
N635 C628 1.356 . S
N635 H638 0.984 . S
N635 H639 0.985 . S
H636 N631 0.984 . S
H637 N631 0.985 . S
H638 N635 0.984 . S
H639 N635 0.985 . S
H640 N634 0.984 . S
H641 N634 0.984 . S
H642 N630 0.984 . S
H643 N630 0.985 . S
C644 C645 1.363 . S
C644 C650 1.379 . S
C644 N652 1.356 . S
C645 C644 1.363 . S
C645 C651 1.363 . S
C646 C647 1.363 . S
C646 C651 1.379 . S
C646 N653 1.356 . S
C647 C646 1.363 . S
C647 C650 1.363 . S
N648 C650 1.356 . S
N648 H660 0.984 . S
N648 H661 0.985 . S
N649 C651 1.358 . S
N649 H654 0.984 1_556 S
N649 H655 0.984 1_556 S
C650 C644 1.379 . S
C650 C647 1.363 . S
C650 N648 1.356 . S
C651 C645 1.363 . S
C651 C646 1.379 . S
C651 N649 1.358 . S
N652 C644 1.356 . S
N652 H658 0.984 . S
N652 H659 0.984 . S
N653 C646 1.356 . S
N653 H656 0.984 . S
N653 H657 0.985 . S
H654 N649 0.984 1_554 S
H655 N649 0.984 1_554 S
H656 N653 0.984 . S
H657 N653 0.985 . S
H658 N652 0.984 . S
H659 N652 0.984 . S
H660 N648 0.984 . S
H661 N648 0.985 . S
C662 C663 1.363 . S
C662 C668 1.379 . S
C662 N670 1.356 . S
C663 C662 1.363 . S
C663 C669 1.363 . S
C664 C665 1.363 . S
C664 C669 1.379 . S
C664 N671 1.356 . S
C665 C664 1.363 . S
C665 C668 1.363 . S
N666 C668 1.356 . S
N666 H678 0.984 . S
N666 H679 0.985 . S
N667 C669 1.356 . S
N667 H672 0.984 . S
N667 H673 0.985 . S
C668 C662 1.379 . S
C668 C665 1.363 . S
C668 N666 1.356 . S
C669 C663 1.363 . S
C669 C664 1.379 . S
C669 N667 1.356 . S
N670 C662 1.356 . S
N670 H676 0.984 . S
N670 H677 0.984 1_545 S
N671 C664 1.356 . S
N671 H674 0.984 . S
N671 H675 0.985 . S
H672 N667 0.984 . S
H673 N667 0.985 . S
H674 N671 0.984 . S
H675 N671 0.985 . S
H676 N670 0.984 . S
H677 N670 0.984 1_565 S
H678 N666 0.984 . S
H679 N666 0.985 . S
C680 C681 1.363 . S
C680 C686 1.379 . S
C680 N688 1.356 . S
C681 C680 1.363 . S
C681 C687 1.363 . S
C682 C683 1.363 . S
C682 C687 1.379 . S
C682 N689 1.356 . S
C683 C682 1.363 . S
C683 C686 1.363 . S
N684 C686 1.356 . S
N684 H696 0.984 . S
N684 H697 0.985 . S
N685 C687 1.356 . S
N685 H690 0.984 . S
N685 H691 0.985 . S
C686 C680 1.379 . S
C686 C683 1.363 . S
C686 N684 1.356 . S
C687 C681 1.363 . S
C687 C682 1.379 . S
C687 N685 1.356 . S
N688 C680 1.356 . S
N688 H694 0.984 . S
N688 H695 0.984 . S
N689 C682 1.356 . S
N689 H692 0.984 . S
N689 H693 0.985 . S
H690 N685 0.984 . S
H691 N685 0.985 . S
H692 N689 0.984 . S
H693 N689 0.985 . S
H694 N688 0.984 . S
H695 N688 0.984 . S
H696 N684 0.984 . S
H697 N684 0.985 . S
C698 C699 1.363 . S
C698 C704 1.379 . S
C698 N706 1.356 . S
C699 C698 1.363 . S
C699 C705 1.363 . S
C700 C701 1.363 . S
C700 C705 1.379 . S
C700 N707 1.381 . S
C701 C700 1.363 . S
C701 C704 1.363 . S
N702 C704 1.356 . S
N702 H714 0.984 . S
N702 H715 0.985 . S
N703 C705 1.356 . S
N703 H708 0.984 . S
N703 H709 0.985 . S
C704 C698 1.379 . S
C704 C701 1.363 . S
C704 N702 1.356 . S
C705 C699 1.363 . S
C705 C700 1.379 . S
C705 N703 1.356 . S
N706 C698 1.356 . S
N706 H712 0.984 . S
N706 H713 0.984 . S
N707 C700 1.381 . S
N707 H710 0.965 1_545 S
N707 H711 0.979 1_545 S
H708 N703 0.984 . S
H709 N703 0.985 . S
H710 N707 0.965 1_565 S
H711 N707 0.979 1_565 S
H712 N706 0.984 . S
H713 N706 0.984 . S
H714 N702 0.984 . S
H715 N702 0.985 . S
C716 C717 1.363 . S
C716 C722 1.379 . S
C716 N724 1.356 . S
C717 C716 1.363 . S
C717 C723 1.363 . S
C718 C719 1.363 . S
C718 C723 1.379 . S
C718 N725 1.356 . S
C719 C718 1.363 . S
C719 C722 1.363 . S
N720 C722 1.356 1_556 S
N720 H732 0.984 . S
N720 H733 0.985 . S
N721 C723 1.356 . S
N721 H726 0.984 . S
N721 H727 0.985 . S
C722 C716 1.379 . S
C722 C719 1.363 . S
C722 N720 1.356 1_554 S
C723 C717 1.363 . S
C723 C718 1.379 . S
C723 N721 1.356 . S
N724 C716 1.356 . S
N724 H730 0.984 . S
N724 H731 0.984 . S
N725 C718 1.356 . S
N725 H728 0.984 . S
N725 H729 0.985 . S
H726 N721 0.984 . S
H727 N721 0.985 . S
H728 N725 0.984 . S
H729 N725 0.985 . S
H730 N724 0.984 . S
H731 N724 0.984 . S
H732 N720 0.984 . S
H733 N720 0.985 . S
C734 C735 1.363 . S
C734 C740 1.379 . S
C734 N742 1.356 . S
C735 C734 1.363 . S
C735 C741 1.363 . S
C736 C737 1.363 . S
C736 C741 1.379 . S
C736 N743 1.356 . S
C737 C736 1.363 . S
C737 C740 1.363 . S
N738 C740 1.356 . S
N738 H750 0.984 . S
N738 H751 0.985 . S
N739 C741 1.356 1_545 S
N739 H744 0.984 . S
N739 H745 0.985 . S
C740 C734 1.379 . S
C740 C737 1.363 . S
C740 N738 1.356 . S
C741 C735 1.363 . S
C741 C736 1.379 . S
C741 N739 1.356 1_565 S
N742 C734 1.356 . S
N742 H748 0.984 . S
N742 H749 0.984 . S
N743 C736 1.356 . S
N743 H746 0.984 . S
N743 H747 0.985 . S
H744 N739 0.984 . S
H745 N739 0.985 . S
H746 N743 0.984 . S
H747 N743 0.985 . S
H748 N742 0.984 . S
H749 N742 0.984 . S
H750 N738 0.984 . S
H751 N738 0.985 . S
C752 C753 1.363 . S
C752 C758 1.379 . S
C752 N760 1.356 . S
C753 C752 1.363 . S
C753 C759 1.363 . S
C754 C755 1.363 . S
C754 C759 1.379 . S
C754 N761 1.356 . S
C755 C754 1.363 . S
C755 C758 1.363 . S
N756 C758 1.356 . S
N756 H768 0.984 . S
N756 H769 0.985 . S
N757 C759 1.356 . S
N757 H762 0.984 . S
N757 H763 0.985 . S
C758 C752 1.379 . S
C758 C755 1.363 . S
C758 N756 1.356 . S
C759 C753 1.363 . S
C759 C754 1.379 . S
C759 N757 1.356 . S
N760 C752 1.356 . S
N760 H766 0.984 . S
N760 H767 0.984 . S
N761 C754 1.356 . S
N761 H764 0.984 . S
N761 H765 0.985 . S
H762 N757 0.984 . S
H763 N757 0.985 . S
H764 N761 0.984 . S
H765 N761 0.985 . S
H766 N760 0.984 . S
H767 N760 0.984 . S
H768 N756 0.984 . S
H769 N756 0.985 . S
C770 C771 1.363 . S
C770 C776 1.379 . S
C770 N778 1.356 . S
C771 C770 1.363 . S
C771 C777 1.363 . S
C772 C773 1.363 . S
C772 C777 1.379 . S
C772 N779 1.356 . S
C773 C772 1.363 . S
C773 C776 1.363 . S
N774 C776 1.356 . S
N774 H786 0.984 . S
N774 H787 0.985 1_554 S
N775 C777 1.356 . S
N775 H780 0.984 . S
N775 H781 0.985 . S
C776 C770 1.379 . S
C776 C773 1.363 . S
C776 N774 1.356 . S
C777 C771 1.363 . S
C777 C772 1.379 . S
C777 N775 1.356 . S
N778 C770 1.356 . S
N778 H784 0.984 . S
N778 H785 0.984 . S
N779 C772 1.356 . S
N779 H782 0.984 . S
N779 H783 0.985 . S
H780 N775 0.984 . S
H781 N775 0.985 . S
H782 N779 0.984 . S
H783 N779 0.985 . S
H784 N778 0.984 . S
H785 N778 0.984 . S
H786 N774 0.984 . S
H787 N774 0.985 1_556 S
C788 C789 1.363 1_455 S
C788 C794 1.379 . S
C788 N796 1.356 . S
C789 C788 1.363 1_655 S
C789 C795 1.363 . S
C790 C791 1.363 . S
C790 C795 1.379 1_455 S
C790 N797 1.356 . S
C791 C790 1.363 . S
C791 C794 1.363 . S
N792 C794 1.356 . S
N792 H804 0.984 . S
N792 H805 0.985 . S
N793 C795 1.356 . S
N793 H798 0.984 . S
N793 H799 0.985 . S
C794 C788 1.379 . S
C794 C791 1.363 . S
C794 N792 1.356 . S
C795 C789 1.363 . S
C795 C790 1.379 1_655 S
C795 N793 1.356 . S
N796 C788 1.356 . S
N796 H802 0.984 . S
N796 H803 0.984 1_455 S
N797 C790 1.356 . S
N797 H800 0.984 . S
N797 H801 0.985 1_455 S
H798 N793 0.984 . S
H799 N793 0.985 . S
H800 N797 0.984 . S
H801 N797 0.985 1_655 S
H802 N796 0.984 . S
H803 N796 0.984 1_655 S
H804 N792 0.984 . S
H805 N792 0.985 . S
C806 C807 1.363 . S
C806 C812 1.379 . S
C806 N814 1.356 . S
C807 C806 1.363 . S
C807 C813 1.363 . S
C808 C809 1.363 . S
C808 C813 1.379 . S
C808 N815 1.356 . S
C809 C808 1.363 . S
C809 C812 1.363 . S
N810 C812 1.356 . S
N810 H822 0.984 . S
N810 H823 0.985 . S
N811 C813 1.356 . S
N811 H816 0.984 . S
N811 H817 0.985 . S
C812 C806 1.379 . S
C812 C809 1.363 . S
C812 N810 1.356 . S
C813 C807 1.363 . S
C813 C808 1.379 . S
C813 N811 1.356 . S
N814 C806 1.356 . S
N814 H820 0.984 . S
N814 H821 0.984 . S
N815 C808 1.356 . S
N815 H818 0.984 . S
N815 H819 0.985 . S
H816 N811 0.984 . S
H817 N811 0.985 . S
H818 N815 0.984 . S
H819 N815 0.985 . S
H820 N814 0.984 . S
H821 N814 0.984 . S
H822 N810 0.984 . S
H823 N810 0.985 . S
C824 C825 1.363 . S
C824 C830 1.379 . S
C824 N832 1.356 . S
C825 C824 1.363 . S
C825 C831 1.363 . S
C826 C827 1.363 . S
C826 C831 1.379 . S
C826 N833 1.356 . S
C827 C826 1.363 . S
C827 C830 1.363 . S
N828 C830 1.356 . S
N828 H840 0.984 . S
N828 H841 0.985 . S
N829 C831 1.356 . S
N829 H834 0.984 . S
N829 H835 0.985 . S
C830 C824 1.379 . S
C830 C827 1.363 . S
C830 N828 1.356 . S
C831 C825 1.363 . S
C831 C826 1.379 . S
C831 N829 1.356 . S
N832 C824 1.356 . S
N832 H838 0.984 . S
N832 H839 0.984 . S
N833 C826 1.356 . S
N833 H836 0.984 . S
N833 H837 0.985 . S
H834 N829 0.984 . S
H835 N829 0.985 . S
H836 N833 0.984 . S
H837 N833 0.985 . S
H838 N832 0.984 . S
H839 N832 0.984 . S
H840 N828 0.984 . S
H841 N828 0.985 . S
C842 C843 1.363 . S
C842 C848 1.379 . S
C842 N850 1.356 . S
C843 C842 1.363 . S
C843 C849 1.363 . S
C844 C845 1.363 . S
C844 C849 1.379 . S
C844 N851 1.356 . S
C845 C844 1.363 . S
C845 C848 1.363 . S
N846 C848 1.356 1_554 S
N846 H858 0.984 . S
N846 H859 0.985 . S
N847 C849 1.356 . S
N847 H852 0.984 . S
N847 H853 0.985 . S
C848 C842 1.379 . S
C848 C845 1.363 . S
C848 N846 1.356 1_556 S
C849 C843 1.363 . S
C849 C844 1.379 . S
C849 N847 1.356 . S
N850 C842 1.356 . S
N850 H856 0.984 . S
N850 H857 0.984 . S
N851 C844 1.356 . S
N851 H854 0.984 . S
N851 H855 0.985 . S
H852 N847 0.984 . S
H853 N847 0.985 . S
H854 N851 0.984 . S
H855 N851 0.985 . S
H856 N850 0.984 . S
H857 N850 0.984 . S
H858 N846 0.984 . S
H859 N846 0.985 . S
C860 C861 1.363 1_655 S
C860 C866 1.379 . S
C860 N868 1.356 1_655 S
C861 C860 1.363 1_455 S
C861 C867 1.363 . S
C862 C863 1.363 . S
C862 C867 1.379 1_655 S
C862 N869 1.356 . S
C863 C862 1.363 . S
C863 C866 1.363 . S
N864 C866 1.356 . S
N864 H876 0.984 . S
N864 H877 0.985 . S
N865 C867 1.356 . S
N865 H870 0.984 . S
N865 H871 0.985 . S
C866 C860 1.379 . S
C866 C863 1.363 . S
C866 N864 1.356 . S
C867 C861 1.363 . S
C867 C862 1.379 1_455 S
C867 N865 1.356 . S
N868 C860 1.356 1_455 S
N868 H874 0.984 . S
N868 H875 0.984 . S
N869 C862 1.356 . S
N869 H872 0.984 . S
N869 H873 0.985 . S
H870 N865 0.984 . S
H871 N865 0.985 . S
H872 N869 0.984 . S
H873 N869 0.985 . S
H874 N868 0.984 . S
H875 N868 0.984 . S
H876 N864 0.984 . S
H877 N864 0.985 . S
C878 C879 1.363 . S
C878 C884 1.379 . S
C878 N886 1.356 . S
C879 C878 1.363 . S
C879 C885 1.363 . S
C880 C881 1.363 . S
C880 C885 1.379 . S
C880 N887 1.356 . S
C881 C880 1.363 . S
C881 C884 1.363 . S
N882 C884 1.356 . S
N882 H894 0.984 . S
N882 H895 0.985 . S
N883 C885 1.356 . S
N883 H888 0.984 . S
N883 H889 0.985 . S
C884 C878 1.379 . S
C884 C881 1.363 . S
C884 N882 1.356 . S
C885 C879 1.363 . S
C885 C880 1.379 . S
C885 N883 1.356 . S
N886 C878 1.356 . S
N886 H892 0.984 . S
N886 H893 0.984 . S
N887 C880 1.356 . S
N887 H890 0.984 . S
N887 H891 0.985 . S
H888 N883 0.984 . S
H889 N883 0.985 . S
H890 N887 0.984 . S
H891 N887 0.985 . S
H892 N886 0.984 . S
H893 N886 0.984 . S
H894 N882 0.984 . S
H895 N882 0.985 . S
C896 C897 1.363 . S
C896 C902 1.357 1_655 S
C896 N904 1.356 . S
C897 C896 1.363 . S
C897 C903 1.363 . S
C898 C899 1.363 . S
C898 C903 1.379 1_455 S
C898 N905 1.356 . S
C899 C898 1.363 . S
C899 C902 1.375 . S
N900 C902 1.372 . S
N900 H912 0.984 . S
N900 H913 0.985 . S
N901 C903 1.356 . S
N901 H906 0.984 . S
N901 H907 0.985 . S
C902 C896 1.357 1_455 S
C902 C899 1.375 . S
C902 N900 1.372 . S
C903 C897 1.363 . S
C903 C898 1.379 1_655 S
C903 N901 1.356 . S
N904 C896 1.356 . S
N904 H910 0.984 . S
N904 H911 0.984 . S
N905 C898 1.356 . S
N905 H908 0.984 . S
N905 H909 0.985 . S
H906 N901 0.984 . S
H907 N901 0.985 . S
H908 N905 0.984 . S
H909 N905 0.985 . S
H910 N904 0.984 . S
H911 N904 0.984 . S
H912 N900 0.984 . S
H913 N900 0.985 . S
C914 C915 1.363 . S
C914 C920 1.379 . S
C914 N922 1.356 . S
C915 C914 1.363 . S
C915 C921 1.363 . S
C916 C917 1.363 . S
C916 C921 1.379 . S
C916 N923 1.356 . S
C917 C916 1.363 . S
C917 C920 1.363 . S
N918 C920 1.356 . S
N918 H930 0.984 . S
N918 H931 0.985 . S
N919 C921 1.356 . S
N919 H924 0.984 . S
N919 H925 0.985 . S
C920 C914 1.379 . S
C920 C917 1.363 . S
C920 N918 1.356 . S
C921 C915 1.363 . S
C921 C916 1.379 . S
C921 N919 1.356 . S
N922 C914 1.356 . S
N922 H928 0.984 . S
N922 H929 0.984 . S
N923 C916 1.356 . S
N923 H926 0.984 . S
N923 H927 0.985 . S
H924 N919 0.984 . S
H925 N919 0.985 . S
H926 N923 0.984 . S
H927 N923 0.985 . S
H928 N922 0.984 . S
H929 N922 0.984 . S
H930 N918 0.984 . S
H931 N918 0.985 . S
C932 C933 1.363 . S
C932 C938 1.379 . S
C932 N940 1.356 . S
C933 C932 1.363 . S
C933 C939 1.363 . S
C934 C935 1.363 . S
C934 C939 1.379 . S
C934 N941 1.356 . S
C935 C934 1.363 . S
C935 C938 1.363 . S
N936 C938 1.356 . S
N936 H948 0.984 . S
N936 H949 0.985 . S
N937 C939 1.356 . S
N937 H942 0.984 . S
N937 H943 0.985 . S
C938 C932 1.379 . S
C938 C935 1.363 . S
C938 N936 1.356 . S
C939 C933 1.363 . S
C939 C934 1.379 . S
C939 N937 1.356 . S
N940 C932 1.356 . S
N940 H946 0.984 . S
N940 H947 0.984 . S
N941 C934 1.356 . S
N941 H944 0.984 . S
N941 H945 0.985 . S
H942 N937 0.984 . S
H943 N937 0.985 . S
H944 N941 0.984 . S
H945 N941 0.985 . S
H946 N940 0.984 . S
H947 N940 0.984 . S
H948 N936 0.984 . S
H949 N936 0.985 . S
C950 C951 1.363 . S
C950 C956 1.379 . S
C950 N958 1.356 . S
C951 C950 1.363 . S
C951 C957 1.363 . S
C952 C953 1.363 . S
C952 C957 1.379 . S
C952 N959 1.356 . S
C953 C952 1.363 . S
C953 C956 1.363 . S
N954 C956 1.356 . S
N954 H966 0.984 . S
N954 H967 0.985 . S
N955 C957 1.356 1_556 S
N955 H960 0.984 . S
N955 H961 0.985 . S
C956 C950 1.379 . S
C956 C953 1.363 . S
C956 N954 1.356 . S
C957 C951 1.363 . S
C957 C952 1.379 . S
C957 N955 1.356 1_554 S
N958 C950 1.356 . S
N958 H964 0.984 . S
N958 H965 0.984 . S
N959 C952 1.356 . S
N959 H962 0.984 . S
N959 H963 0.985 . S
H960 N955 0.984 . S
H961 N955 0.985 . S
H962 N959 0.984 . S
H963 N959 0.985 . S
H964 N958 0.984 . S
H965 N958 0.984 . S
H966 N954 0.984 . S
H967 N954 0.985 . S
C968 C969 1.363 . S
C968 C974 1.380 . S
C968 N976 1.356 . S
C969 C968 1.363 . S
C969 C975 1.363 . S
C970 C971 1.363 . S
C970 C975 1.379 1_655 S
C970 N977 1.356 . S
C971 C970 1.363 . S
C971 C974 1.362 1_655 S
N972 C974 1.355 1_655 S
N972 H984 0.984 . S
N972 H985 0.985 . S
N973 C975 1.356 . S
N973 H978 0.984 . S
N973 H979 0.985 . S
C974 C968 1.380 . S
C974 C971 1.362 1_455 S
C974 N972 1.355 1_455 S
C975 C969 1.363 . S
C975 C970 1.379 1_455 S
C975 N973 1.356 . S
N976 C968 1.356 . S
N976 H982 0.984 . S
N976 H983 0.984 . S
N977 C970 1.356 . S
N977 H980 0.984 . S
N977 H981 0.985 . S
H978 N973 0.984 . S
H979 N973 0.985 . S
H980 N977 0.984 . S
H981 N977 0.985 . S
H982 N976 0.984 . S
H983 N976 0.984 . S
H984 N972 0.984 . S
H985 N972 0.985 . S
C986 C987 1.363 . S
C986 C992 1.379 . S
C986 N994 1.356 . S
C987 C986 1.363 . S
C987 C993 1.363 . S
C988 C989 1.363 . S
C988 C993 1.379 . S
C988 N995 1.356 . S
C989 C988 1.363 . S
C989 C992 1.363 . S
N990 C992 1.356 . S
N990 H1002 0.984 . S
N990 H1003 0.985 . S
N991 C993 1.356 . S
N991 H996 0.984 . S
N991 H997 0.985 . S
C992 C986 1.379 . S
C992 C989 1.363 . S
C992 N990 1.356 . S
C993 C987 1.363 . S
C993 C988 1.379 . S
C993 N991 1.356 . S
N994 C986 1.356 . S
N994 H1000 0.984 . S
N994 H1001 0.984 . S
N995 C988 1.356 . S
N995 H998 0.984 . S
N995 H999 0.985 . S
H996 N991 0.984 . S
H997 N991 0.985 . S
H998 N995 0.984 . S
H999 N995 0.985 . S
H1000 N994 0.984 . S
H1001 N994 0.984 . S
H1002 N990 0.984 . S
H1003 N990 0.985 . S
C1004 C1005 1.363 . S
C1004 C1010 1.379 . S
C1004 N1012 1.356 . S
C1005 C1004 1.363 . S
C1005 C1011 1.363 . S
C1006 C1007 1.363 . S
C1006 C1011 1.379 . S
C1006 N1013 1.356 . S
C1007 C1006 1.363 . S
C1007 C1010 1.363 . S
N1008 C1010 1.356 . S
N1008 H1020 0.984 . S
N1008 H1021 0.985 . S
N1009 C1011 1.356 . S
N1009 H1014 0.984 . S
N1009 H1015 0.985 . S
C1010 C1004 1.379 . S
C1010 C1007 1.363 . S
C1010 N1008 1.356 . S
C1011 C1005 1.363 . S
C1011 C1006 1.379 . S
C1011 N1009 1.356 . S
N1012 C1004 1.356 . S
N1012 H1018 0.984 . S
N1012 H1019 0.984 . S
N1013 C1006 1.356 . S
N1013 H1016 0.984 . S
N1013 H1017 0.985 . S
H1014 N1009 0.984 . S
H1015 N1009 0.985 . S
H1016 N1013 0.984 . S
H1017 N1013 0.985 . S
H1018 N1012 0.984 . S
H1019 N1012 0.984 . S
H1020 N1008 0.984 . S
H1021 N1008 0.985 . S
C1022 C1023 1.363 . S
C1022 C1028 1.379 . S
C1022 N1030 1.358 . S
C1023 C1022 1.363 . S
C1023 C1029 1.363 . S
C1024 C1025 1.363 . S
C1024 C1029 1.379 . S
C1024 N1031 1.356 . S
C1025 C1024 1.363 . S
C1025 C1028 1.363 . S
N1026 C1028 1.356 . S
N1026 H1038 0.984 . S
N1026 H1039 0.985 . S
N1027 C1029 1.356 . S
N1027 H1032 0.984 . S
N1027 H1033 0.985 . S
C1028 C1022 1.379 . S
C1028 C1025 1.363 . S
C1028 N1026 1.356 . S
C1029 C1023 1.363 . S
C1029 C1024 1.379 . S
C1029 N1027 1.356 . S
N1030 C1022 1.358 . S
N1030 H1036 0.984 1_556 S
N1030 H1037 0.983 1_556 S
N1031 C1024 1.356 . S
N1031 H1034 0.984 . S
N1031 H1035 0.985 . S
H1032 N1027 0.984 . S
H1033 N1027 0.985 . S
H1034 N1031 0.984 . S
H1035 N1031 0.985 . S
H1036 N1030 0.984 1_554 S
H1037 N1030 0.983 1_554 S
H1038 N1026 0.984 . S
H1039 N1026 0.985 . S
C1040 C1041 1.363 . S
C1040 C1046 1.379 . S
C1040 N1048 1.356 . S
C1041 C1040 1.363 . S
C1041 C1047 1.363 . S
C1042 C1043 1.363 . S
C1042 C1047 1.379 . S
C1042 N1049 1.356 . S
C1043 C1042 1.363 . S
C1043 C1046 1.363 . S
N1044 C1046 1.356 . S
N1044 H1056 0.984 . S
N1044 H1057 0.985 . S
N1045 C1047 1.356 . S
N1045 H1050 0.984 . S
N1045 H1051 0.985 . S
C1046 C1040 1.379 . S
C1046 C1043 1.363 . S
C1046 N1044 1.356 . S
C1047 C1041 1.363 . S
C1047 C1042 1.379 . S
C1047 N1045 1.356 . S
N1048 C1040 1.356 . S
N1048 H1054 0.984 . S
N1048 H1055 0.984 . S
N1049 C1042 1.356 . S
N1049 H1052 0.984 . S
N1049 H1053 0.985 . S
H1050 N1045 0.984 . S
H1051 N1045 0.985 . S
H1052 N1049 0.984 . S
H1053 N1049 0.985 . S
H1054 N1048 0.984 . S
H1055 N1048 0.984 . S
H1056 N1044 0.984 . S
H1057 N1044 0.985 . S
C1058 C1059 1.363 . S
C1058 C1064 1.379 . S
C1058 N1066 1.356 . S
C1059 C1058 1.363 . S
C1059 C1065 1.363 . S
C1060 C1061 1.363 . S
C1060 C1065 1.379 . S
C1060 N1067 1.356 . S
C1061 C1060 1.363 . S
C1061 C1064 1.363 . S
N1062 C1064 1.356 . S
N1062 H1074 0.984 . S
N1062 H1075 0.985 . S
N1063 C1065 1.356 . S
N1063 H1068 0.984 . S
N1063 H1069 0.985 . S
C1064 C1058 1.379 . S
C1064 C1061 1.363 . S
C1064 N1062 1.356 . S
C1065 C1059 1.363 . S
C1065 C1060 1.379 . S
C1065 N1063 1.356 . S
N1066 C1058 1.356 . S
N1066 H1072 0.984 . S
N1066 H1073 0.984 . S
N1067 C1060 1.356 . S
N1067 H1070 0.984 . S
N1067 H1071 0.985 . S
H1068 N1063 0.984 . S
H1069 N1063 0.985 . S
H1070 N1067 0.984 . S
H1071 N1067 0.985 . S
H1072 N1066 0.984 . S
H1073 N1066 0.984 . S
H1074 N1062 0.984 . S
H1075 N1062 0.985 . S
C1076 C1077 1.363 . S
C1076 C1082 1.379 . S
C1076 N1084 1.356 . S
C1077 C1076 1.363 . S
C1077 C1083 1.363 . S
C1078 C1079 1.363 . S
C1078 C1083 1.379 . S
C1078 N1085 1.356 . S
C1079 C1078 1.363 . S
C1079 C1082 1.363 . S
N1080 C1082 1.356 . S
N1080 H1092 0.984 . S
N1080 H1093 0.985 . S
N1081 C1083 1.356 . S
N1081 H1086 0.984 . S
N1081 H1087 0.985 . S
C1082 C1076 1.379 . S
C1082 C1079 1.363 . S
C1082 N1080 1.356 . S
C1083 C1077 1.363 . S
C1083 C1078 1.379 . S
C1083 N1081 1.356 . S
N1084 C1076 1.356 . S
N1084 H1090 0.984 . S
N1084 H1091 0.984 . S
N1085 C1078 1.356 . S
N1085 H1088 0.984 . S
N1085 H1089 0.985 . S
H1086 N1081 0.984 . S
H1087 N1081 0.985 . S
H1088 N1085 0.984 . S
H1089 N1085 0.985 . S
H1090 N1084 0.984 . S
H1091 N1084 0.984 . S
H1092 N1080 0.984 . S
H1093 N1080 0.985 . S
C1094 C1095 1.363 1_655 S
C1094 C1100 1.379 . S
C1094 N1102 1.356 . S
C1095 C1094 1.363 1_455 S
C1095 C1101 1.363 1_554 S
C1096 C1097 1.363 1_455 S
C1096 C1101 1.379 . S
C1096 N1103 1.356 . S
C1097 C1096 1.363 1_655 S
C1097 C1100 1.363 1_556 S
N1098 C1100 1.356 1_556 S
N1098 H1110 0.984 1_556 S
N1098 H1111 0.985 . S
N1099 C1101 1.356 1_554 S
N1099 H1104 0.984 . S
N1099 H1105 0.985 1_554 S
C1100 C1094 1.379 . S
C1100 C1097 1.363 1_554 S
C1100 N1098 1.356 1_554 S
C1101 C1095 1.363 1_556 S
C1101 C1096 1.379 . S
C1101 N1099 1.356 1_556 S
N1102 C1094 1.356 . S
N1102 H1108 0.984 . S
N1102 H1109 0.984 1_655 S
N1103 C1096 1.356 . S
N1103 H1106 0.984 1_455 S
N1103 H1107 0.985 . S
H1104 N1099 0.984 . S
H1105 N1099 0.985 1_556 S
H1106 N1103 0.984 1_655 S
H1107 N1103 0.985 . S
H1108 N1102 0.984 . S
H1109 N1102 0.984 1_455 S
H1110 N1098 0.984 1_554 S
H1111 N1098 0.985 . S
C1112 C1113 1.363 . S
C1112 C1118 1.379 . S
C1112 N1120 1.356 . S
C1113 C1112 1.363 . S
C1113 C1119 1.363 . S
C1114 C1115 1.363 . S
C1114 C1119 1.379 . S
C1114 N1121 1.356 . S
C1115 C1114 1.363 . S
C1115 C1118 1.363 . S
N1116 C1118 1.356 . S
N1116 H1128 0.984 . S
N1116 H1129 0.985 . S
N1117 C1119 1.356 . S
N1117 H1122 0.984 . S
N1117 H1123 0.985 . S
C1118 C1112 1.379 . S
C1118 C1115 1.363 . S
C1118 N1116 1.356 . S
C1119 C1113 1.363 . S
C1119 C1114 1.379 . S
C1119 N1117 1.356 . S
N1120 C1112 1.356 . S
N1120 H1126 0.984 . S
N1120 H1127 0.984 . S
N1121 C1114 1.356 . S
N1121 H1124 0.984 . S
N1121 H1125 0.985 . S
H1122 N1117 0.984 . S
H1123 N1117 0.985 . S
H1124 N1121 0.984 . S
H1125 N1121 0.985 . S
H1126 N1120 0.984 . S
H1127 N1120 0.984 . S
H1128 N1116 0.984 . S
H1129 N1116 0.985 . S
C1130 C1131 1.363 . S
C1130 C1136 1.379 . S
C1130 N1138 1.356 . S
C1131 C1130 1.363 . S
C1131 C1137 1.363 . S
C1132 C1133 1.363 . S
C1132 C1137 1.379 . S
C1132 N1139 1.356 . S
C1133 C1132 1.363 . S
C1133 C1136 1.363 . S
N1134 C1136 1.356 . S
N1134 H1146 0.984 . S
N1134 H1147 0.985 . S
N1135 C1137 1.356 . S
N1135 H1140 0.984 . S
N1135 H1141 0.985 . S
C1136 C1130 1.379 . S
C1136 C1133 1.363 . S
C1136 N1134 1.356 . S
C1137 C1131 1.363 . S
C1137 C1132 1.379 . S
C1137 N1135 1.356 . S
N1138 C1130 1.356 . S
N1138 H1144 0.984 . S
N1138 H1145 0.984 . S
N1139 C1132 1.356 . S
N1139 H1142 0.984 . S
N1139 H1143 0.985 . S
H1140 N1135 0.984 . S
H1141 N1135 0.985 . S
H1142 N1139 0.984 . S
H1143 N1139 0.985 . S
H1144 N1138 0.984 . S
H1145 N1138 0.984 . S
H1146 N1134 0.984 . S
H1147 N1134 0.985 . S
C1148 C1149 1.363 1_655 S
C1148 C1154 1.379 1_556 S
C1148 N1156 1.356 1_655 S
C1149 C1148 1.363 1_455 S
C1149 C1155 1.363 1_545 S
C1150 C1151 1.363 1_455 S
C1150 C1155 1.379 1_554 S
C1150 N1157 1.356 1_455 S
C1151 C1150 1.363 1_655 S
C1151 C1154 1.363 1_565 S
N1152 C1154 1.356 . S
N1152 H1164 0.984 . S
N1152 H1165 0.985 . S
N1153 C1155 1.356 . S
N1153 H1158 0.984 . S
N1153 H1159 0.985 . S
C1154 C1148 1.379 1_554 S
C1154 C1151 1.363 1_545 S
C1154 N1152 1.356 . S
C1155 C1149 1.363 1_565 S
C1155 C1150 1.379 1_556 S
C1155 N1153 1.356 . S
N1156 C1148 1.356 1_455 S
N1156 H1162 0.984 1_455 S
N1156 H1163 0.984 . S
N1157 C1150 1.356 1_655 S
N1157 H1160 0.984 . S
N1157 H1161 0.985 1_655 S
H1158 N1153 0.984 . S
H1159 N1153 0.985 . S
H1160 N1157 0.984 . S
H1161 N1157 0.985 1_455 S
H1162 N1156 0.984 1_655 S
H1163 N1156 0.984 . S
H1164 N1152 0.984 . S
H1165 N1152 0.985 . S
C1166 C1167 1.363 1_565 S
C1166 C1172 1.379 . S
C1166 N1174 1.356 . S
C1167 C1166 1.363 1_545 S
C1167 C1173 1.363 . S
C1168 C1169 1.363 1_545 S
C1168 C1173 1.379 . S
C1168 N1175 1.356 . S
C1169 C1168 1.363 1_565 S
C1169 C1172 1.363 . S
N1170 C1172 1.356 . S
N1170 H1182 0.984 . S
N1170 H1183 0.985 . S
N1171 C1173 1.356 . S
N1171 H1176 0.984 . S
N1171 H1177 0.985 . S
C1172 C1166 1.379 . S
C1172 C1169 1.363 . S
C1172 N1170 1.356 . S
C1173 C1167 1.363 . S
C1173 C1168 1.379 . S
C1173 N1171 1.356 . S
N1174 C1166 1.356 . S
N1174 H1180 0.984 . S
N1174 H1181 0.984 . S
N1175 C1168 1.356 . S
N1175 H1178 0.984 . S
N1175 H1179 0.985 . S
H1176 N1171 0.984 . S
H1177 N1171 0.985 . S
H1178 N1175 0.984 . S
H1179 N1175 0.985 . S
H1180 N1174 0.984 . S
H1181 N1174 0.984 . S
H1182 N1170 0.984 . S
H1183 N1170 0.985 . S
C321 C4 1.385 . S
C323 C204 1.385 . S
C339 C24 1.385 . S
C341 C224 1.385 . S
C357 C44 1.385 . S
C359 C164 1.385 . S
C375 C64 1.385 . S
C377 C184 1.385 . S
C393 C82 1.385 . S
C395 C282 1.385 . S
C411 C102 1.385 . S
C413 C302 1.385 . S
C429 C122 1.385 . S
C431 C242 1.385 . S
C447 C142 1.385 . S
C449 C262 1.385 . S
C465 C198 2.060 . S
C467 C2 2.034 1_556 S
C483 C218 2.060 . S
C485 C22 2.034 . S
C501 C238 2.060 . S
C503 C42 2.034 . S
C519 C178 2.060 . S
C521 C62 2.034 . S
C537 C84 2.034 1_554 S
C539 C279 2.060 . S
C555 C299 2.060 . S
C557 C104 2.034 . S
C573 C319 2.060 . S
C575 C124 2.034 . S
C591 C259 2.060 . S
C593 C144 2.034 . S
C609 C38 2.060 . S
C611 C162 2.034 . S
C627 C182 2.034 1_565 S
C629 C58 2.060 . S
C645 C202 2.034 1_556 S
C647 C78 2.060 . S
C663 C222 2.034 1_545 S
C665 C18 2.060 . S
C681 C244 2.034 . S
C683 C119 2.060 . S
C699 C139 2.060 . S
C701 C264 2.034 1_545 S
C717 C159 2.060 . S
C719 C284 2.034 1_554 S
C735 C304 2.034 1_565 S
C737 C99 2.060 . S
C753 C12 1.186 . S
C755 C318 1.210 . S
C771 C32 1.186 . S
C773 C98 1.210 . S
C789 C278 1.210 . S
C791 C52 1.186 . S
C807 C138 1.210 . S
C809 C72 1.186 . S
C825 C89 1.186 . S
C827 C239 1.210 . S
C843 C109 1.186 . S
C845 C19 1.210 . S
C861 C199 1.210 . S
C863 C129 1.186 . S
C879 C59 1.210 . S
C881 C149 1.186 . S
C897 C172 1.186 . S
C899 C158 1.210 . S
C915 C192 1.186 . S
C917 C258 1.210 . S
C933 C118 1.210 . S
C935 C212 1.186 . S
C951 C298 1.210 . S
C953 C232 1.186 . S
C969 C249 1.186 . S
C971 C79 1.210 . S
C987 C269 1.186 . S
C989 C179 1.210 . S
C1005 C289 1.186 . S
C1007 C39 1.210 . S
C1023 C219 1.210 . S
C1025 C309 1.186 . S
C1041 C9 1.695 . S
C1043 C252 1.695 . S
C1059 C29 1.695 . S
C1061 C112 1.695 . S
C1077 C49 1.695 . S
C1079 C292 1.695 . S
C1095 C152 1.695 . S
C1097 C69 1.695 . S
C1113 C92 1.695 . S
C1115 C169 1.695 . S
C1131 C209 1.695 . S
C1133 C132 1.695 . S
C1149 C189 1.695 . S
C1151 C272 1.695 . S
C1167 C312 1.695 . S
C1169 C229 1.695 . S
