# Generated by pormake.
# Topology yfy, (5)-cn, num edge types: 1
# Building blocks:
#     Node 0, Type 0, BuildingBlock: XOMCOT_clean_sbu_0, # of connection points: 5
#     Node 1, Type 0, BuildingBlock: XOMCOT_clean_sbu_0, # of connection points: 5
#     Node 2, Type 0, BuildingBlock: XOMCOT_clean_sbu_0, # of connection points: 5
#     Node 3, Type 0, BuildingBlock: XOMCOT_clean_sbu_0, # of connection points: 5
#     Node 4, Type 0, BuildingBlock: XOMCOT_clean_sbu_0, # of connection points: 5
#     Node 5, Type 0, BuildingBlock: XOMCOT_clean_sbu_0, # of connection points: 5
#     Node 6, Type 0, BuildingBlock: XOMCOT_clean_sbu_0, # of connection points: 5
#     Node 7, Type 0, BuildingBlock: XOMCOT_clean_sbu_0, # of connection points: 5
#     Node 8, Type 0, BuildingBlock: XOMCOT_clean_sbu_0, # of connection points: 5
#     Node 9, Type 0, BuildingBlock: XOMCOT_clean_sbu_0, # of connection points: 5
#     Node 10, Type 0, BuildingBlock: XOMCOT_clean_sbu_0, # of connection points: 5
#     Node 11, Type 0, BuildingBlock: XOMCOT_clean_sbu_0, # of connection points: 5
#     Node 12, Type 0, BuildingBlock: XOMCOT_clean_sbu_0, # of connection points: 5
#     Node 13, Type 0, BuildingBlock: XOMCOT_clean_sbu_0, # of connection points: 5
#     Node 14, Type 0, BuildingBlock: XOMCOT_clean_sbu_0, # of connection points: 5
#     Node 15, Type 0, BuildingBlock: XOMCOT_clean_sbu_0, # of connection points: 5
#     Edge 16, Type (0, 0), BuildingBlock: EZIPEK_clean_linker_0, # of connection points: 2
#     Edge 17, Type (0, 0), BuildingBlock: EZIPEK_clean_linker_0, # of connection points: 2
#     Edge 18, Type (0, 0), BuildingBlock: EZIPEK_clean_linker_0, # of connection points: 2
#     Edge 19, Type (0, 0), BuildingBlock: EZIPEK_clean_linker_0, # of connection points: 2
#     Edge 20, Type (0, 0), BuildingBlock: EZIPEK_clean_linker_0, # of connection points: 2
#     Edge 21, Type (0, 0), BuildingBlock: EZIPEK_clean_linker_0, # of connection points: 2
#     Edge 22, Type (0, 0), BuildingBlock: EZIPEK_clean_linker_0, # of connection points: 2
#     Edge 23, Type (0, 0), BuildingBlock: EZIPEK_clean_linker_0, # of connection points: 2
#     Edge 24, Type (0, 0), BuildingBlock: EZIPEK_clean_linker_0, # of connection points: 2
#     Edge 25, Type (0, 0), BuildingBlock: EZIPEK_clean_linker_0, # of connection points: 2
#     Edge 26, Type (0, 0), BuildingBlock: EZIPEK_clean_linker_0, # of connection points: 2
#     Edge 27, Type (0, 0), BuildingBlock: EZIPEK_clean_linker_0, # of connection points: 2
#     Edge 28, Type (0, 0), BuildingBlock: EZIPEK_clean_linker_0, # of connection points: 2
#     Edge 29, Type (0, 0), BuildingBlock: EZIPEK_clean_linker_0, # of connection points: 2
#     Edge 30, Type (0, 0), BuildingBlock: EZIPEK_clean_linker_0, # of connection points: 2
#     Edge 31, Type (0, 0), BuildingBlock: EZIPEK_clean_linker_0, # of connection points: 2
#     Edge 32, Type (0, 0), BuildingBlock: EZIPEK_clean_linker_0, # of connection points: 2
#     Edge 33, Type (0, 0), BuildingBlock: EZIPEK_clean_linker_0, # of connection points: 2
#     Edge 34, Type (0, 0), BuildingBlock: EZIPEK_clean_linker_0, # of connection points: 2
#     Edge 35, Type (0, 0), BuildingBlock: EZIPEK_clean_linker_0, # of connection points: 2
#     Edge 36, Type (0, 0), BuildingBlock: EZIPEK_clean_linker_0, # of connection points: 2
#     Edge 37, Type (0, 0), BuildingBlock: EZIPEK_clean_linker_0, # of connection points: 2
#     Edge 38, Type (0, 0), BuildingBlock: EZIPEK_clean_linker_0, # of connection points: 2
#     Edge 39, Type (0, 0), BuildingBlock: EZIPEK_clean_linker_0, # of connection points: 2
#     Edge 40, Type (0, 0), BuildingBlock: EZIPEK_clean_linker_0, # of connection points: 2
#     Edge 41, Type (0, 0), BuildingBlock: EZIPEK_clean_linker_0, # of connection points: 2
#     Edge 42, Type (0, 0), BuildingBlock: EZIPEK_clean_linker_0, # of connection points: 2
#     Edge 43, Type (0, 0), BuildingBlock: EZIPEK_clean_linker_0, # of connection points: 2
#     Edge 44, Type (0, 0), BuildingBlock: EZIPEK_clean_linker_0, # of connection points: 2
#     Edge 45, Type (0, 0), BuildingBlock: EZIPEK_clean_linker_0, # of connection points: 2
#     Edge 46, Type (0, 0), BuildingBlock: EZIPEK_clean_linker_0, # of connection points: 2
#     Edge 47, Type (0, 0), BuildingBlock: EZIPEK_clean_linker_0, # of connection points: 2
#     Edge 48, Type (0, 0), BuildingBlock: EZIPEK_clean_linker_0, # of connection points: 2
#     Edge 49, Type (0, 0), BuildingBlock: EZIPEK_clean_linker_0, # of connection points: 2
#     Edge 50, Type (0, 0), BuildingBlock: EZIPEK_clean_linker_0, # of connection points: 2
#     Edge 51, Type (0, 0), BuildingBlock: EZIPEK_clean_linker_0, # of connection points: 2
#     Edge 52, Type (0, 0), BuildingBlock: EZIPEK_clean_linker_0, # of connection points: 2
#     Edge 53, Type (0, 0), BuildingBlock: EZIPEK_clean_linker_0, # of connection points: 2
#     Edge 54, Type (0, 0), BuildingBlock: EZIPEK_clean_linker_0, # of connection points: 2
#     Edge 55, Type (0, 0), BuildingBlock: EZIPEK_clean_linker_0, # of connection points: 2
# Relax obj value: 0.255
# Max RMSD: 0.240
# Mean RMSD: 0.240
data_MOF--net-yfy--node1-XOMCOT_clean_sbu_0--edge1-EZIPEK_clean_linker_0
_symmetry_space_group_name_H-M    P1
_symmetry_Int_Tables_number       1
_symmetry_cell_setting            triclinic
loop_
_symmetry_equiv_pos_as_xyz
'x, y, z'
_cell_length_a     33.087716
_cell_length_b     33.141843
_cell_length_c     37.802005
_cell_angle_alpha  89.867332
_cell_angle_beta   89.84828
_cell_angle_gamma 89.828702
loop_
_atom_site_label
_atom_site_type_symbol
_atom_site_fract_x
_atom_site_fract_y
_atom_site_fract_z
_atom_type_partial_charge
Co0 Co 0.04457 0.31858 0.30988 0.0
C1 C 0.98654 0.24922 0.31165 0.0
C2 C 0.95665 0.30668 0.31119 0.0
C3 C 0.92803 0.27717 0.30759 0.0
N4 N 0.99363 0.2894 0.31305 0.0
N5 N 0.94685 0.24113 0.30766 0.0
H6 H 1.0094 0.22643 0.31458 0.0
H7 H 0.95047 0.33866 0.31236 0.0
C8 C 1.00813 0.40165 0.28889 0.0
O9 O 0.03219 0.42204 0.30955 0.0
N10 N 0.09474 0.34759 0.30369 0.0
C11 C 0.13033 0.34048 0.31998 0.0
C12 C 0.15957 0.36403 0.30428 0.0
C13 C 0.10291 0.3749 0.27824 0.0
N14 N 0.14204 0.38563 0.27819 0.0
C15 C 0.02159 0.31588 0.3834 0.0
C16 C 0.06549 0.38218 0.40477 0.0
C17 C 0.05158 0.35521 0.43038 0.0
C18 C 0.02806 0.32258 0.41954 0.0
C19 C 0.05868 0.3743 0.36896 0.0
N20 N 0.0376 0.34091 0.35805 0.0
H21 H 1.00698 0.28809 0.37621 0.0
H22 H 0.0746 0.39327 0.35067 0.0
H23 H 0.13483 0.31931 0.34143 0.0
H24 H 0.08116 0.38616 0.25947 0.0
O25 O 0.07508 0.27188 0.32468 0.0
O26 O 0.06076 0.28589 0.26895 0.0
O27 O 1.01199 0.36334 0.28527 0.0
C28 C 0.08003 0.26296 0.29159 0.0
H29 H 0.89564 0.28162 0.30618 0.0
H30 H 0.19113 0.3656 0.3116 0.0
H31 H 0.08433 0.40744 0.41223 0.0
H32 H 0.01716 0.30081 0.43871 0.0
Co33 Co 0.80722 0.04673 0.33197 0.0
C34 C 0.88669 1.00585 0.31571 0.0
C35 C 0.84341 0.96691 0.3407 0.0
C36 C 0.877 0.94439 0.33223 0.0
N37 N 0.84938 1.00557 0.33069 0.0
N38 N 0.90405 0.96881 0.31653 0.0
H39 H 0.90085 0.03208 0.30416 0.0
H40 H 0.81589 0.95558 0.35255 0.0
C41 C 0.73259 1.00228 0.30327 0.0
O42 O 0.70733 0.02937 0.31556 0.0
N43 N 0.76463 0.08704 0.33117 0.0
C44 C 0.74914 0.10867 0.35792 0.0
C45 C 0.71909 0.13309 0.34482 0.0
C46 C 0.74503 0.10011 0.30203 0.0
N47 N 0.71435 0.12594 0.30972 0.0
C48 C 0.82294 0.03166 0.40369 0.0
C49 C 0.74419 0.03208 0.42797 0.0
C50 C 0.77558 0.04039 0.45163 0.0
C51 C 0.81538 0.03759 0.43954 0.0
C52 C 0.75314 0.02656 0.39196 0.0
N53 N 0.79206 0.02938 0.37983 0.0
H54 H 0.85389 0.03337 0.39465 0.0
H55 H 0.72833 0.02511 0.37405 0.0
H56 H 0.76066 0.10861 0.38457 0.0
H57 H 0.7536 0.09042 0.27582 0.0
O58 O 0.84434 0.08696 0.34792 0.0
O59 O 0.83215 0.07553 0.2916 0.0
O60 O 0.77094 1.00551 0.30757 0.0
C61 C 0.85057 0.09737 0.31548 0.0
H62 H 0.88119 0.91239 0.33685 0.0
H63 H 0.70372 0.15585 0.36022 0.0
H64 H 0.71301 0.03309 0.43671 0.0
H65 H 0.84049 0.04272 0.4573 0.0
Co66 Co 0.0838 0.82391 0.31447 0.0
C67 C 0.14005 0.89353 0.30298 0.0
C68 C 0.16747 0.84587 0.33299 0.0
C69 C 0.19565 0.87592 0.32804 0.0
N70 N 0.13212 0.8573 0.31816 0.0
N71 N 0.17827 0.90573 0.30921 0.0
H72 H 0.11874 0.91086 0.28753 0.0
H73 H 0.17253 0.81747 0.34644 0.0
C74 C 0.11944 0.74478 0.28299 0.0
O75 O 0.08755 0.72306 0.29061 0.0
N76 N 0.03598 0.79084 0.30855 0.0
C77 C 1.00622 0.78322 0.33213 0.0
C78 C 0.97765 0.75896 0.31625 0.0
C79 C 0.02389 0.77336 0.2782 0.0
N80 N 0.98929 0.75259 0.28254 0.0
C81 C 0.0973 0.82934 0.38803 0.0
C82 C 0.07745 0.75096 0.40564 0.0
C83 C 0.07851 0.78026 0.43226 0.0
C84 C 0.09037 0.81937 0.42338 0.0
C85 C 0.0854 0.76208 0.37047 0.0
N86 N 0.09332 0.80137 0.36171 0.0
H87 H 0.10239 0.86069 0.38154 0.0
H88 H 0.0806 0.7399 0.35042 0.0
H89 H 1.00556 0.79408 0.35907 0.0
H90 H 0.04092 0.77447 0.25372 0.0
O91 O 0.04958 0.86673 0.33105 0.0
O92 O 0.0644 0.8574 0.2748 0.0
O93 O 0.12072 0.78271 0.28991 0.0
C94 C 0.04436 0.87802 0.29869 0.0
H95 H 0.22629 0.87627 0.33799 0.0
H96 H 0.95104 0.74619 0.3286 0.0
H97 H 0.06816 0.7204 0.41168 0.0
H98 H 0.09138 0.84278 0.44332 0.0
Co99 Co 0.31509 0.09559 0.32782 0.0
C100 C 0.24102 0.14409 0.3104 0.0
C101 C 0.27972 0.17462 0.34694 0.0
C102 C 0.24738 0.19947 0.33934 0.0
N103 N 0.27534 0.13934 0.32954 0.0
N104 N 0.22314 0.18011 0.31652 0.0
H105 H 0.22953 0.12237 0.29172 0.0
H106 H 0.30516 0.1822 0.36353 0.0
C107 C 0.39231 0.13908 0.30158 0.0
O108 O 0.41603 0.1104 0.31331 0.0
N109 N 0.35446 0.05226 0.3242 0.0
C110 C 0.36256 0.02341 0.34845 0.0
C111 C 0.38834 0.99533 0.3337 0.0
C112 C 0.37384 0.04025 0.29451 0.0
N113 N 0.3953 1.00616 0.2999 0.0
C114 C 0.29925 0.10407 0.40071 0.0
C115 C 0.37683 0.0925 0.42532 0.0
C116 C 0.34422 0.0862 0.4485 0.0
C117 C 0.30528 0.09414 0.43621 0.0
C118 C 0.36946 0.10288 0.38973 0.0
N119 N 0.33077 0.10613 0.3772 0.0
H120 H 0.26846 0.10595 0.39139 0.0
H121 H 0.39476 0.10372 0.37204 0.0
H122 H 0.34941 0.02202 0.37456 0.0
H123 H 0.37169 0.05568 0.26933 0.0
O124 O 0.27531 0.05612 0.34057 0.0
O125 O 0.28857 0.07344 0.28545 0.0
O126 O 0.35379 0.13714 0.30576 0.0
C127 C 0.26819 0.05053 0.30742 0.0
H128 H 0.24227 0.22964 0.34936 0.0
H129 H 0.40001 0.96837 0.34631 0.0
H130 H 0.40748 0.08681 0.43401 0.0
H131 H 0.27935 0.08988 0.45337 0.0
Co132 Co 0.0426 0.79428 0.70013 0.0
C133 C 0.98974 0.86869 0.70331 0.0
C134 C 0.97101 0.82183 0.73879 0.0
C135 C 0.94688 0.85485 0.74455 0.0
N136 N 0.99763 0.82988 0.71248 0.0
N137 N 0.95883 0.88428 0.72251 0.0
H138 H 1.0066 0.88579 0.68395 0.0
H139 H 0.96985 0.79441 0.75423 0.0
C140 C 1.0099 0.70949 0.72212 0.0
O141 O 0.03917 0.6888 0.70734 0.0
N142 N 0.08783 0.75885 0.69015 0.0
C143 C 0.10997 0.75675 0.6602 0.0
C144 C 0.14259 0.73152 0.66587 0.0
C145 C 0.10821 0.73649 0.71403 0.0
N146 N 0.14158 0.71948 0.69993 0.0
C147 C 0.02492 0.81877 0.62937 0.0
C148 C 0.02047 0.74216 0.60108 0.0
C149 C 0.02736 0.77483 0.57838 0.0
C150 C 0.02747 0.81367 0.5927 0.0
C151 C 0.01856 0.74859 0.6377 0.0
N152 N 0.02267 0.78636 0.65175 0.0
H153 H 0.0293 0.84866 0.63961 0.0
H154 H 0.01878 0.72261 0.65431 0.0
H155 H 0.1041 0.77416 0.6366 0.0
H156 H 0.09944 0.73364 0.74153 0.0
O157 O 0.07699 0.83964 0.68983 0.0
O158 O 0.07031 0.81226 0.74296 0.0
O159 O 1.00854 0.74808 0.72019 0.0
C160 C 0.08757 0.83925 0.72274 0.0
H161 H 0.92265 0.85738 0.76373 0.0
H162 H 0.16637 0.72438 0.64716 0.0
H163 H 0.02008 0.71166 0.59087 0.0
H164 H 0.03237 0.83973 0.57588 0.0
Co165 Co 0.31052 0.03032 0.71054 0.0
C166 C 0.24036 0.96951 0.71053 0.0
C167 C 0.27636 0.97259 0.75753 0.0
C168 C 0.24572 0.94607 0.76372 0.0
N169 N 0.2737 0.98736 0.72427 0.0
N170 N 0.22318 0.94391 0.73436 0.0
H171 H 0.22832 0.97541 0.6845 0.0
H172 H 0.29858 0.98176 0.7768 0.0
C173 C 0.39319 0.99473 0.73412 0.0
O174 O 0.41442 0.02176 0.71682 0.0
N175 N 0.34772 0.07373 0.70122 0.0
C176 C 0.35146 0.09739 0.67232 0.0
C177 C 0.37673 0.12928 0.68044 0.0
C178 C 0.3691 0.09222 0.72669 0.0
N179 N 0.38745 0.12563 0.71467 0.0
C180 C 0.2896 0.01571 0.639 0.0
C181 C 0.36733 1.0061 0.61384 0.0
C182 C 0.33745 0.02013 0.59061 0.0
C183 C 0.29774 0.0224 0.60313 0.0
C184 C 0.35797 1.00047 0.64985 0.0
N185 N 0.32004 1.00857 0.6627 0.0
H186 H 0.25915 0.02108 0.64805 0.0
H187 H 0.38216 0.99242 0.66711 0.0
H188 H 0.33528 0.09307 0.64784 0.0
H189 H 0.37037 0.08194 0.75388 0.0
O190 O 0.2671 0.06538 0.69708 0.0
O191 O 0.29018 0.06124 0.75145 0.0
O192 O 0.35449 0.99548 0.7334 0.0
C193 C 0.26505 0.07811 0.72922 0.0
H194 H 0.23997 0.92979 0.78808 0.0
H195 H 0.38532 0.15388 0.66313 0.0
H196 H 0.39819 1.00232 0.60478 0.0
H197 H 0.27347 0.03173 0.58573 0.0
Co198 Co 0.09428 0.31327 0.69682 0.0
C199 C 0.14135 0.23774 0.71223 0.0
C200 C 0.17581 0.28183 0.6837 0.0
C201 C 0.20081 0.24986 0.6917 0.0
N202 N 0.13832 0.27419 0.69619 0.0
N203 N 0.1791 0.22231 0.70966 0.0
H204 H 0.11691 0.22258 0.72552 0.0
H205 H 0.1847 0.30932 0.6704 0.0
C206 C 0.13334 0.39008 0.72712 0.0
O207 O 0.10321 0.41251 0.71611 0.0
N208 N 0.05091 0.35272 0.69934 0.0
C209 C 0.02822 0.36899 0.67326 0.0
C210 C 0.99842 0.3927 0.68831 0.0
C211 C 0.03418 0.36618 0.72975 0.0
N212 N 1.00256 0.39078 0.72369 0.0
C213 C 0.10741 0.30074 0.62416 0.0
C214 C 0.10881 0.38006 0.60185 0.0
C215 C 0.10224 0.34945 0.57692 0.0
C216 C 0.10368 0.3094 0.58824 0.0
C217 C 0.11266 0.36999 0.63789 0.0
N218 N 0.10928 0.33074 0.64888 0.0
H219 H 0.10561 0.26955 0.63238 0.0
H220 H 0.11474 0.39409 0.6566 0.0
H221 H 0.03141 0.36232 0.64548 0.0
H222 H 0.04475 0.3579 0.75586 0.0
O223 O 0.05562 0.27335 0.68134 0.0
O224 O 0.06843 0.28516 0.7373 0.0
O225 O 0.1338 0.35179 0.72156 0.0
C226 C 0.0469 0.26558 0.71394 0.0
H227 H 0.23261 0.24716 0.68527 0.0
H228 H 0.97494 0.40917 0.67452 0.0
H229 H 0.10859 0.41144 0.59381 0.0
H230 H 0.09953 0.28493 0.56965 0.0
Co231 Co 0.81545 0.07918 0.70901 0.0
C232 C 0.89238 0.13043 0.71148 0.0
C233 C 0.85182 0.13979 0.75476 0.0
C234 C 0.88464 0.1643 0.7595 0.0
N235 N 0.85512 0.11988 0.72372 0.0
N236 N 0.91015 0.1586 0.73231 0.0
H237 H 0.90693 0.11769 0.68847 0.0
H238 H 0.82768 0.13594 0.77371 0.0
C239 C 0.75894 0.14409 0.73431 0.0
O240 O 0.77707 0.16838 0.71185 0.0
N241 N 0.77547 0.03784 0.69879 0.0
C242 C 0.76302 0.02108 0.66811 0.0
C243 C 0.73476 0.99168 0.67547 0.0
C244 C 0.75437 0.01852 0.72422 0.0
N245 N 0.72958 0.9904 0.71074 0.0
C246 C 0.83062 0.11356 0.64102 0.0
C247 C 0.75188 0.10521 0.61851 0.0
C248 C 0.78329 0.10331 0.59365 0.0
C249 C 0.82248 0.11199 0.60484 0.0
C250 C 0.76123 0.10901 0.65452 0.0
N251 N 0.80064 0.10822 0.66553 0.0
H252 H 0.86171 0.11269 0.6486 0.0
H253 H 0.73704 0.1051 0.6733 0.0
H254 H 0.77457 0.02841 0.64234 0.0
H255 H 0.75747 0.02458 0.75221 0.0
O256 O 0.8573 0.04681 0.68754 0.0
O257 O 0.83925 0.04184 0.74367 0.0
O258 O 0.77162 0.10767 0.738 0.0
C259 C 0.86157 0.0285 0.71752 0.0
H260 H 0.88965 0.18467 0.78139 0.0
H261 H 0.7197 0.97236 0.65663 0.0
H262 H 0.72094 0.09962 0.61065 0.0
H263 H 0.84739 0.11169 0.58617 0.0
Co264 Co 0.54711 0.811 0.82892 0.0
C265 C 0.49671 0.73989 0.80733 0.0
C266 C 0.47064 0.76983 0.85197 0.0
C267 C 0.44662 0.73746 0.84348 0.0
N268 N 0.50279 0.77128 0.82974 0.0
N269 N 0.46309 0.71865 0.81551 0.0
H270 H 0.5161 0.73243 0.7855 0.0
H271 H 0.46451 0.79056 0.8733 0.0
C272 C 0.47737 0.86697 0.81099 0.0
O273 O 0.45957 0.85699 0.84074 0.0
N274 N 0.59013 0.85067 0.82622 0.0
C275 C 0.6145 0.86448 0.85211 0.0
C276 C 0.64204 0.89093 0.83764 0.0
C277 C 0.60307 0.8691 0.7964 0.0
N278 N 0.63471 0.89355 0.80273 0.0
C279 C 0.53602 0.80286 0.90269 0.0
C280 C 0.54129 0.88381 0.91901 0.0
C281 C 0.54822 0.85506 0.94564 0.0
C282 C 0.54299 0.81432 0.93757 0.0
C283 C 0.53258 0.87101 0.88447 0.0
N284 N 0.53269 0.83082 0.87616 0.0
H285 H 0.53681 0.77105 0.89652 0.0
H286 H 0.53121 0.89337 0.86386 0.0
H287 H 0.61379 0.85445 0.8792 0.0
H288 H 0.59017 0.86407 0.7705 0.0
O289 O 0.58524 0.77089 0.84556 0.0
O290 O 0.57353 0.7824 0.78921 0.0
O291 O 0.51126 0.85097 0.80229 0.0
C292 C 0.59427 0.76265 0.81309 0.0
H293 H 0.41938 0.72806 0.85707 0.0
H294 H 0.66622 0.90621 0.85137 0.0
H295 H 0.54513 0.91566 0.92436 0.0
H296 H 0.54791 0.7913 0.95751 0.0
Co297 Co 0.32255 0.5397 0.81728 0.0
C298 C 0.38433 0.47832 0.79654 0.0
C299 C 0.35169 0.45913 0.84256 0.0
C300 C 0.37872 0.42927 0.83354 0.0
N301 N 0.35528 0.49036 0.81963 0.0
N302 N 0.39909 0.44139 0.80466 0.0
H303 H 0.39503 0.4961 0.77443 0.0
H304 H 0.33115 0.45764 0.86472 0.0
C305 C 0.25676 0.47706 0.8063 0.0
O306 O 0.2627 0.46395 0.8386 0.0
N307 N 0.29018 0.58794 0.81327 0.0
C308 C 0.2889 0.61982 0.83538 0.0
C309 C 0.26307 0.64839 0.82139 0.0
C310 C 0.26613 0.5977 0.7859 0.0
N311 N 0.24912 0.63429 0.79033 0.0
C312 C 0.33165 0.53225 0.89139 0.0
C313 C 0.25283 0.55112 0.90945 0.0
C314 C 0.28298 0.55306 0.93538 0.0
C315 C 0.3224 0.54205 0.92632 0.0
C316 C 0.26344 0.54117 0.87454 0.0
N317 N 0.30269 0.53269 0.86565 0.0
H318 H 0.36298 0.52729 0.88446 0.0
H319 H 0.24099 0.54433 0.8541 0.0
H320 H 0.30584 0.62221 0.85971 0.0
H321 H 0.26168 0.57881 0.76292 0.0
O322 O 0.36818 0.57232 0.83038 0.0
O323 O 0.35233 0.55826 0.77515 0.0
O324 O 0.27709 0.50709 0.7942 0.0
C325 C 0.37545 0.57799 0.79714 0.0
H326 H 0.38373 0.40115 0.8475 0.0
H327 H 0.25578 0.67756 0.83258 0.0
H328 H 0.22205 0.55986 0.9156 0.0
H329 H 0.3464 0.5433 0.94574 0.0
Co330 Co 0.57612 0.30117 0.8149 0.0
C331 C 0.63815 0.37007 0.81962 0.0
C332 C 0.63411 0.33876 0.77021 0.0
C333 C 0.66089 0.36959 0.76606 0.0
N334 N 0.61908 0.33897 0.80343 0.0
N335 N 0.66355 0.38934 0.79692 0.0
H336 H 0.63364 0.37907 0.84675 0.0
H337 H 0.62537 0.31771 0.74981 0.0
C338 C 0.61742 0.21936 0.7988 0.0
O339 O 0.58824 0.19792 0.81289 0.0
N340 N 0.53312 0.26263 0.82214 0.0
C341 C 0.50819 0.25787 0.8501 0.0
C342 C 0.47744 0.23184 0.84075 0.0
C343 C 0.51658 0.24065 0.79597 0.0
N344 N 0.48289 0.22153 0.80661 0.0
C345 C 0.58375 0.32958 0.88574 0.0
C346 C 0.59293 0.25532 0.91791 0.0
C347 C 0.58153 0.28843 0.93872 0.0
C348 C 0.57887 0.32622 0.92242 0.0
C349 C 0.59845 0.26015 0.88122 0.0
N350 N 0.59182 0.29662 0.86506 0.0
H351 H 0.57718 0.35843 0.87382 0.0
H352 H 0.60451 0.23366 0.86599 0.0
H353 H 0.51093 0.27374 0.8748 0.0
H354 H 0.52835 0.23958 0.76923 0.0
O355 O 0.53795 0.34406 0.82158 0.0
O356 O 0.55049 0.31621 0.76967 0.0
O357 O 0.6158 0.25794 0.79858 0.0
C358 C 0.5304 0.34283 0.78812 0.0
H359 H 0.67736 0.37711 0.74216 0.0
H360 H 0.45219 0.22262 0.8571 0.0
H361 H 0.59556 0.22558 0.92962 0.0
H362 H 0.57018 0.35256 0.93759 0.0
Co363 Co 0.81841 0.5682 0.81944 0.0
C364 C 0.74837 0.62763 0.8204 0.0
C365 C 0.78721 0.63303 0.77535 0.0
C366 C 0.75561 0.6593 0.77098 0.0
N367 N 0.78391 0.61398 0.80689 0.0
N368 N 0.73112 0.65574 0.79913 0.0
H369 H 0.73417 0.61657 0.84419 0.0
H370 H 0.81019 0.62702 0.7558 0.0
C371 C 0.87771 0.63228 0.79834 0.0
O372 O 0.85685 0.65731 0.81825 0.0
N373 N 0.85245 0.52211 0.82856 0.0
C374 C 0.85303 0.49685 0.85655 0.0
C375 C 0.8812 0.46681 0.85002 0.0
C376 C 0.8791 0.50688 0.80523 0.0
N377 N 0.89695 0.47318 0.81753 0.0
C378 C 0.80286 0.5905 0.89078 0.0
C379 C 0.8825 0.58628 0.91237 0.0
C380 C 0.85165 0.58312 0.93765 0.0
C381 C 0.81163 0.58739 0.92672 0.0
C382 C 0.87239 0.58919 0.87642 0.0
N383 N 0.83279 0.58948 0.86584 0.0
H384 H 0.7717 0.5884 0.88325 0.0
H385 H 0.89637 0.58609 0.85719 0.0
H386 H 0.83377 0.49962 0.87955 0.0
H387 H 0.88466 0.51964 0.77928 0.0
O388 O 0.7723 0.53779 0.83463 0.0
O389 O 0.79544 0.53905 0.77957 0.0
O390 O 0.86663 0.5954 0.79594 0.0
C391 C 0.76972 0.52452 0.80258 0.0
H392 H 0.75027 0.67878 0.74843 0.0
H393 H 0.8887 0.44171 0.86718 0.0
H394 H 0.91385 0.58297 0.92004 0.0
H395 H 0.78708 0.58508 0.94565 0.0
Co396 Co 0.5491 0.3185 0.20499 0.0
C397 C 0.48584 0.38745 0.20338 0.0
C398 C 0.49978 0.36225 0.25412 0.0
C399 C 0.4725 0.39278 0.2591 0.0
N400 N 0.50841 0.3583 0.21933 0.0
N401 N 0.4639 0.40871 0.22739 0.0
H402 H 0.48496 0.39347 0.17538 0.0
H403 H 0.51325 0.34434 0.27489 0.0
C404 C 0.47648 0.27023 0.22814 0.0
O405 O 0.45432 0.29546 0.20957 0.0
N406 N 0.5904 0.27818 0.19508 0.0
C407 C 0.6263 0.28378 0.1787 0.0
C408 C 0.65326 0.25486 0.19062 0.0
C409 C 0.59568 0.24492 0.21524 0.0
N410 N 0.63386 0.23086 0.21391 0.0
C411 C 0.52792 0.33867 0.13456 0.0
C412 C 0.52572 0.25999 0.11073 0.0
C413 C 0.53183 0.29129 0.08625 0.0
C414 C 0.53073 0.33102 0.09835 0.0
C415 C 0.52218 0.26905 0.14696 0.0
N416 N 0.52538 0.30798 0.15869 0.0
H417 H 0.5334 0.36914 0.14306 0.0
H418 H 0.52192 0.24439 0.16571 0.0
H419 H 0.63386 0.30951 0.16237 0.0
H420 H 0.57375 0.23388 0.2341 0.0
O421 O 0.58472 0.36074 0.18912 0.0
O422 O 0.58334 0.33797 0.24396 0.0
O423 O 0.51497 0.27489 0.2292 0.0
C424 C 0.59935 0.36246 0.22066 0.0
H425 H 0.46021 0.40301 0.28411 0.0
H426 H 0.68529 0.2535 0.1848 0.0
H427 H 0.52661 0.22882 0.10224 0.0
H428 H 0.53577 0.35588 0.08022 0.0
Co429 Co 0.82092 0.55738 0.20245 0.0
C430 C 0.75467 0.4929 0.20478 0.0
C431 C 0.78165 0.5073 0.25466 0.0
C432 C 0.75148 0.47988 0.26064 0.0
N433 N 0.78404 0.51574 0.21976 0.0
N434 N 0.7345 0.47087 0.22944 0.0
H435 H 0.74742 0.49248 0.17701 0.0
H436 H 0.80013 0.52114 0.27475 0.0
C437 C 0.87343 0.48808 0.22366 0.0
O438 O 0.8472 0.46517 0.20721 0.0
N439 N 0.85749 0.59962 0.18793 0.0
C440 C 0.85213 0.62592 0.16136 0.0
C441 C 0.88123 0.65529 0.16373 0.0
C442 C 0.88953 0.61336 0.20613 0.0
N443 N 0.90598 0.64703 0.19145 0.0
C444 C 0.79919 0.53485 0.13248 0.0
C445 C 0.87802 0.52898 0.10848 0.0
C446 C 0.84704 0.53584 0.08409 0.0
C447 C 0.80712 0.53676 0.09619 0.0
C448 C 0.86885 0.5276 0.14464 0.0
N449 N 0.82992 0.53218 0.15649 0.0
H450 H 0.7687 0.54086 0.14112 0.0
H451 H 0.89379 0.52842 0.16295 0.0
H452 H 0.82702 0.62548 0.14311 0.0
H453 H 0.89835 0.60068 0.23135 0.0
O454 O 0.77574 0.59065 0.18882 0.0
O455 O 0.80385 0.59188 0.24187 0.0
O456 O 0.86803 0.52648 0.2246 0.0
C457 C 0.77689 0.60637 0.22004 0.0
H458 H 0.74217 0.46784 0.28603 0.0
H459 H 0.88096 0.68201 0.14753 0.0
H460 H 0.90929 0.52856 0.09993 0.0
H461 H 0.78249 0.54226 0.07795 0.0
Co462 Co 0.58021 0.82745 0.20427 0.0
C463 C 0.64419 0.7593 0.2033 0.0
C464 C 0.62371 0.77927 0.25416 0.0
C465 C 0.65146 0.74937 0.25942 0.0
N466 N 0.61862 0.7859 0.21918 0.0
N467 N 0.66436 0.73684 0.22767 0.0
H468 H 0.64845 0.75624 0.17513 0.0
H469 H 0.60747 0.79487 0.27484 0.0
C470 C 0.65254 0.87218 0.22859 0.0
O471 O 0.67358 0.84725 0.20878 0.0
N472 N 0.54138 0.8694 0.1939 0.0
C473 C 0.52109 0.87757 0.16383 0.0
C474 C 0.49204 0.90657 0.17103 0.0
C475 C 0.52475 0.89329 0.21876 0.0
N476 N 0.49456 0.916 0.20562 0.0
C477 C 0.60446 0.81015 0.13405 0.0
C478 C 0.61324 0.88998 0.11403 0.0
C479 C 0.60476 0.86104 0.08817 0.0
C480 C 0.60294 0.82049 0.09829 0.0
C481 C 0.61383 0.87844 0.14976 0.0
N482 N 0.60736 0.83913 0.15954 0.0
H483 H 0.59778 0.77935 0.14118 0.0
H484 H 0.61367 0.90201 0.16943 0.0
H485 H 0.52481 0.86114 0.1394 0.0
H486 H 0.53303 0.89236 0.24644 0.0
O487 O 0.54392 0.78724 0.18584 0.0
O488 O 0.54315 0.80812 0.24127 0.0
O489 O 0.61398 0.86868 0.23065 0.0
C490 C 0.52763 0.78509 0.21684 0.0
H491 H 0.66126 0.73727 0.28463 0.0
H492 H 0.46937 0.91797 0.15297 0.0
H493 H 0.61522 0.92162 0.10703 0.0
H494 H 0.59697 0.79724 0.0789 0.0
Co495 Co 0.30832 0.59089 0.19662 0.0
C496 C 0.37628 0.65284 0.20189 0.0
C497 C 0.34598 0.6384 0.25043 0.0
C498 C 0.37623 0.66498 0.258 0.0
N499 N 0.34534 0.63091 0.21533 0.0
N500 N 0.39539 0.67375 0.22765 0.0
H501 H 0.3851 0.65371 0.17443 0.0
H502 H 0.3263 0.62434 0.26959 0.0
C503 C 0.25656 0.66077 0.21851 0.0
O504 O 0.28302 0.68357 0.20199 0.0
N505 N 0.27085 0.55 0.18156 0.0
C506 C 0.279 0.51864 0.16004 0.0
C507 C 0.25299 0.48765 0.16832 0.0
C508 C 0.2388 0.53853 0.20111 0.0
N509 N 0.22851 0.49996 0.19484 0.0
C510 C 0.33175 0.61487 0.12745 0.0
C511 C 0.25348 0.62044 0.10242 0.0
C512 C 0.28492 0.61256 0.07855 0.0
C513 C 0.32459 0.61217 0.09112 0.0
C514 C 0.26187 0.62237 0.13871 0.0
N515 N 0.30049 0.61751 0.15106 0.0
H516 H 0.36205 0.60899 0.13647 0.0
H517 H 0.23657 0.62189 0.15676 0.0
H518 H 0.30493 0.51657 0.14266 0.0
H519 H 0.2266 0.55609 0.22275 0.0
O520 O 0.35331 0.55724 0.18246 0.0
O521 O 0.32497 0.55474 0.23534 0.0
O522 O 0.26163 0.62231 0.21921 0.0
C523 C 0.35213 0.54071 0.21339 0.0
H524 H 0.38411 0.6766 0.28382 0.0
H525 H 0.25457 0.45717 0.15814 0.0
H526 H 0.22239 0.62071 0.09353 0.0
H527 H 0.3496 0.60615 0.07332 0.0
C528 C 0.10575 0.34613 0.47656 0.0
C529 C 0.06574 0.35829 0.46776 0.0
C530 C 0.05065 0.36903 0.53068 0.0
C531 C 0.09108 0.35817 0.53937 0.0
N532 N 0.15927 0.34504 0.52043 0.0
N533 N 1.00282 0.38903 0.48518 0.0
C534 C 0.11933 0.34956 0.51215 0.0
C535 C 0.03905 0.37222 0.49448 0.0
N536 N 0.13018 0.32944 0.45124 0.0
N537 N 0.02276 0.37435 0.557 0.0
H538 H 0.9933 0.39139 0.45896 0.0
H539 H 0.98377 0.40366 0.50302 0.0
H540 H 0.0301 0.37324 0.58374 0.0
H541 H 0.99187 0.37725 0.55244 0.0
H542 H 0.15784 0.31581 0.4568 0.0
H543 H 0.12152 0.32622 0.4249 0.0
H544 H 0.18212 0.34268 0.50155 0.0
H545 H 0.17001 0.34749 0.54627 0.0
C546 C 0.75749 0.10952 0.53101 0.0
C547 C 0.77651 0.08608 0.55768 0.0
C548 C 0.78097 0.0288 0.51658 0.0
C549 C 0.76819 0.0541 0.48865 0.0
N550 N 0.74551 0.11945 0.46838 0.0
N551 N 0.81116 0.02427 0.57442 0.0
C552 C 0.75614 0.09458 0.49568 0.0
C553 C 0.78934 0.04584 0.55018 0.0
N554 N 0.74122 0.14627 0.53931 0.0
N555 N 0.78494 0.98827 0.51086 0.0
H556 H 0.81882 0.03513 0.59926 0.0
H557 H 0.82507 0.99681 0.56873 0.0
H558 H 0.77869 0.97507 0.48644 0.0
H559 H 0.79017 0.96741 0.531 0.0
H560 H 0.72288 0.16273 0.52217 0.0
H561 H 0.74379 0.15926 0.56429 0.0
H562 H 0.74184 0.15052 0.47093 0.0
H563 H 0.74226 0.10934 0.44255 0.0
C564 C 0.07764 0.7557 0.53068 0.0
C565 C 0.03806 0.76882 0.54029 0.0
C566 C 0.02327 0.78418 0.47805 0.0
C567 C 0.06309 0.77187 0.46863 0.0
N568 N 0.12516 0.73825 0.48394 0.0
N569 N 0.97049 0.78668 0.52292 0.0
C570 C 0.08924 0.755 0.49435 0.0
C571 C 1.01001 0.78029 0.5138 0.0
N572 N 0.10487 0.74581 0.55641 0.0
N573 N 0.99856 0.80065 0.45289 0.0
H574 H 0.96 0.78379 0.54886 0.0
H575 H 0.94745 0.79143 0.50469 0.0
H576 H 1.00626 0.8018 0.42614 0.0
H577 H 0.97124 0.81489 0.45855 0.0
H578 H 0.13559 0.74146 0.55177 0.0
H579 H 0.09721 0.74376 0.58302 0.0
H580 H 0.14377 0.72149 0.50059 0.0
H581 H 0.13504 0.73838 0.45771 0.0
C582 C 0.33554 1.01027 0.52436 0.0
C583 C 0.347 0.03419 0.55374 0.0
C584 C 0.36114 0.09135 0.51366 0.0
C585 C 0.34957 0.06745 0.48434 0.0
N586 N 0.33436 1.00186 0.46057 0.0
N587 N 0.37979 0.09408 0.57564 0.0
C588 C 0.3395 0.02612 0.48939 0.0
C589 C 0.36285 0.07362 0.5481 0.0
N590 N 0.31993 0.97264 0.53002 0.0
N591 N 0.36868 0.13153 0.50882 0.0
H592 H 0.38173 0.08221 0.60107 0.0
H593 H 0.39536 0.12113 0.57273 0.0
H594 H 0.3687 0.14523 0.48395 0.0
H595 H 0.3723 0.15188 0.5295 0.0
H596 H 0.30607 0.95555 0.51046 0.0
H597 H 0.31915 0.95909 0.55496 0.0
H598 H 0.33103 0.97069 0.46205 0.0
H599 H 0.33683 1.01251 0.43471 0.0
C600 C 0.60633 0.85592 0.98864 0.0
C601 C 0.56546 0.86623 0.98078 0.0
C602 C 0.55448 0.88573 0.04271 0.0
C603 C 0.5942 0.8721 0.05096 0.0
N604 N 0.66119 0.85569 0.03144 0.0
N605 N 0.50296 0.89807 0.99809 0.0
C606 C 0.6212 0.86099 0.02364 0.0
C607 C 0.54038 0.88378 1.00711 0.0
N608 N 0.63048 0.83982 0.96286 0.0
N609 N 0.5297 0.89888 0.06926 0.0
H610 H 0.49089 0.89517 0.97279 0.0
H611 H 0.4845 0.91481 0.01487 0.0
H612 H 0.54028 0.90509 0.09451 0.0
H613 H 0.49877 0.90361 0.06663 0.0
H614 H 0.65866 0.8269 0.96756 0.0
H615 H 0.62158 0.83768 0.93657 0.0
H616 H 0.68364 0.85091 0.01259 0.0
H617 H 0.67252 0.85976 0.05693 0.0
C618 C 0.27885 0.61152 0.97755 0.0
C619 C 0.2749 0.5694 0.97145 0.0
C620 C 0.26748 0.55766 0.03531 0.0
C621 C 0.27664 0.59897 0.04163 0.0
N622 N 0.29134 0.66549 0.01963 0.0
N623 N 0.26593 0.50194 0.9936 0.0
C624 C 0.28196 0.62609 0.01292 0.0
C625 C 0.2688 0.54242 1.0001 0.0
N626 N 0.27962 0.63749 0.94939 0.0
N627 N 0.25761 0.53299 0.06306 0.0
H628 H 0.26467 0.49008 0.96808 0.0
H629 H 0.26668 0.47985 0.01318 0.0
H630 H 0.25775 0.5425 0.08928 0.0
H631 H 0.24649 0.50386 0.06018 0.0
H632 H 0.27862 0.66874 0.95173 0.0
H633 H 0.27821 0.62777 0.92321 0.0
H634 H 0.30041 0.686 1.00033 0.0
H635 H 0.29182 0.67744 0.04514 0.0
C636 C 0.59852 0.28086 1.00372 0.0
C637 C 0.56889 0.28352 0.97669 0.0
C638 C 0.51496 0.28112 0.02195 0.0
C639 C 0.54452 0.28337 0.04886 0.0
N640 N 0.61444 0.28622 0.06632 0.0
N641 N 0.49873 0.28769 0.95969 0.0
C642 C 0.58636 0.283 0.03998 0.0
C643 C 0.52703 0.28372 0.98574 0.0
N644 N 0.63831 0.27633 0.99465 0.0
N645 N 0.47529 0.27608 0.03115 0.0
H646 H 0.50609 0.28776 0.93293 0.0
H647 H 0.46822 0.29318 0.9644 0.0
H648 H 0.4656 0.27466 0.05741 0.0
H649 H 0.45241 0.27001 0.01312 0.0
H650 H 0.66112 0.26987 0.01269 0.0
H651 H 0.64841 0.27641 0.96849 0.0
H652 H 0.64506 0.29121 0.06188 0.0
H653 H 0.60685 0.28579 0.09312 0.0
C654 C 0.86126 0.58872 0.03794 0.0
C655 C 0.85618 0.5473 0.04677 0.0
C656 C 0.86144 0.52952 0.984 0.0
C657 C 0.85988 0.57118 0.97499 0.0
N658 N 0.85783 0.64081 0.99272 0.0
N659 N 0.85059 0.47796 0.02881 0.0
C660 C 0.8601 0.60092 1.00183 0.0
C661 C 0.85647 0.51753 0.01995 0.0
N662 N 0.86762 0.61628 0.06415 0.0
N663 N 0.86796 0.5015 0.95813 0.0
H664 H 0.84853 0.46806 0.05497 0.0
H665 H 0.84552 0.45525 1.01039 0.0
H666 H 0.87215 0.50934 0.9317 0.0
H667 H 0.87304 0.47101 0.96312 0.0
H668 H 0.87532 0.64626 0.0595 0.0
H669 H 0.86879 0.60831 0.09077 0.0
H670 H 0.8527 0.66389 1.01082 0.0
H671 H 0.85911 0.65075 0.96653 0.0
C672 C 0.14994 0.24814 0.26849 0.0
C673 C 0.1127 0.23355 0.28213 0.0
C674 C 0.14837 0.17934 0.31319 0.0
C675 C 0.18582 0.19538 0.30184 0.0
N676 N 0.22258 0.23794 0.26181 0.0
N677 N 0.07639 0.17552 0.30204 0.0
C678 C 0.18664 0.22751 0.27705 0.0
C679 C 0.11199 0.1958 0.29948 0.0
N680 N 0.15023 0.28245 0.24858 0.0
N681 N 0.14746 0.15022 0.33872 0.0
H682 H 0.05093 0.18561 0.28841 0.0
H683 H 0.07393 0.14663 0.31276 0.0
H684 H 0.17363 0.13923 0.35069 0.0
H685 H 0.12077 0.1399 0.35025 0.0
H686 H 0.17633 0.29808 0.24165 0.0
H687 H 0.12365 0.29531 0.23911 0.0
H688 H 0.22539 0.25911 0.24159 0.0
H689 H 0.24949 0.2229 0.26776 0.0
C690 C 0.86934 0.16695 0.33386 0.0
C691 C 0.87403 0.13532 0.30873 0.0
C692 C 0.92864 0.1748 0.28101 0.0
C693 C 0.92669 0.20272 0.30943 0.0
N694 N 0.90277 0.21848 0.36771 0.0
N695 N 0.91193 0.10775 0.25959 0.0
C696 C 0.89965 0.19623 0.33749 0.0
C697 C 0.90474 0.13877 0.28243 0.0
N698 N 0.8344 0.17085 0.35268 0.0
N699 N 0.95225 0.18335 0.25235 0.0
H700 H 0.89438 0.08176 0.25899 0.0
H701 H 0.93674 0.1069 0.2426 0.0
H702 H 0.97012 0.20919 0.251 0.0
H703 H 0.95197 0.16639 0.22919 0.0
H704 H 0.82845 0.19505 0.3695 0.0
H705 H 0.80934 0.15345 0.34699 0.0
H706 H 0.88551 0.21258 0.39025 0.0
H707 H 0.92568 0.23963 0.3714 0.0
C708 C 0.97778 0.9638 0.3251 0.0
C709 C 0.94344 0.95634 0.30409 0.0
C710 C 0.98221 0.90761 0.26828 0.0
C711 C 1.01534 0.91203 0.29186 0.0
N712 N 0.04976 0.95494 0.33329 0.0
N713 N 0.91462 0.93014 0.25099 0.0
C714 C 1.01475 0.94399 0.31695 0.0
C715 C 0.94649 0.93133 0.27383 0.0
N716 N 0.97419 0.9875 0.35446 0.0
N717 N 0.98412 0.87972 0.24182 0.0
H718 H 0.88862 0.94747 0.25505 0.0
H719 H 0.9147 0.91465 0.2271 0.0
H720 H 1.01035 0.86383 0.23567 0.0
H721 H 0.95993 0.87225 0.22565 0.0
H722 H 0.99665 0.99016 0.37353 0.0
H723 H 0.94755 1.0027 0.36092 0.0
H724 H 0.05239 0.9802 0.34943 0.0
H725 H 0.07719 0.94089 0.32775 0.0
C726 C 0.20309 0.01565 0.31938 0.0
C727 C 0.23807 0.01881 0.2976 0.0
C728 C 0.22495 0.95012 0.27569 0.0
C729 C 0.19537 0.94503 0.30251 0.0
N730 N 0.15823 0.97157 0.35197 0.0
N731 N 0.28079 0.98983 0.25237 0.0
C732 C 0.18444 0.97765 0.32449 0.0
C733 C 0.24816 0.98654 0.27435 0.0
N734 N 0.18784 0.04926 0.33542 0.0
N735 N 0.23073 0.91976 0.25184 0.0
H736 H 0.29746 0.01621 0.24969 0.0
H737 H 0.29211 0.96621 0.23719 0.0
H738 H 0.21418 0.89301 0.25293 0.0
H739 H 0.24942 0.92195 0.22975 0.0
H740 H 0.16024 0.0499 0.34873 0.0
H741 H 0.20091 0.07749 0.33219 0.0
H742 H 0.15256 0.99299 0.3715 0.0
H743 H 0.14469 0.94381 0.35709 0.0
C744 C 0.14888 0.93509 0.73315 0.0
C745 C 0.18821 0.91833 0.73128 0.0
C746 C 0.15958 0.85085 0.73962 0.0
C747 C 0.12031 0.86675 0.73449 0.0
N748 N 0.07669 0.92449 0.72839 0.0
N749 N 0.23141 0.86009 0.72997 0.0
C750 C 0.11475 0.90913 0.73168 0.0
C751 C 0.19359 0.87607 0.7338 0.0
N752 N 0.14434 0.97548 0.73876 0.0
N753 N 0.16438 0.81218 0.75125 0.0
H754 H 0.25668 0.87788 0.7246 0.0
H755 H 0.23708 0.82925 0.72899 0.0
H756 H 0.13991 0.79387 0.75758 0.0
H757 H 0.19214 0.80046 0.75923 0.0
H758 H 0.11658 0.98941 0.74336 0.0
H759 H 0.16903 0.99433 0.74245 0.0
H760 H 0.07059 0.95437 0.7216 0.0
H761 H 0.05122 0.90667 0.73228 0.0
C762 C 0.22492 0.18356 0.74885 0.0
C763 C 0.19406 0.18417 0.72284 0.0
C764 C 0.19895 0.11092 0.7179 0.0
C765 C 0.23577 0.11139 0.73717 0.0
N766 N 0.28135 0.14749 0.77545 0.0
N767 N 0.15247 0.14862 0.6812 0.0
C768 C 0.24768 0.14737 0.75466 0.0
C769 C 0.18055 0.14777 0.70761 0.0
N770 N 0.23209 0.21781 0.7678 0.0
N771 N 0.18219 0.07485 0.70878 0.0
H772 H 0.13913 0.17517 0.6721 0.0
H773 H 0.14486 0.12342 0.66624 0.0
H774 H 0.19565 0.04752 0.71567 0.0
H775 H 0.15356 0.0721 0.69767 0.0
H776 H 0.252 0.21939 0.78899 0.0
H777 H 0.21522 0.24413 0.76401 0.0
H778 H 0.29395 0.17343 0.78614 0.0
H779 H 0.29719 0.12144 0.78209 0.0
C780 C 0.94491 0.21389 0.70098 0.0
C781 C 0.94619 0.18233 0.7261 0.0
C782 C 1.01298 0.20628 0.74656 0.0
C783 C 1.01097 0.23898 0.72206 0.0
N784 N 0.96913 0.27929 0.68325 0.0
N785 N 0.97917 0.14897 0.77438 0.0
C786 C 0.97542 0.24398 0.7011 0.0
C787 C 0.97971 0.17873 0.74933 0.0
N788 N 0.9139 0.21569 0.67721 0.0
N789 N 0.04682 0.20093 0.76662 0.0
H790 H 0.95678 0.12686 0.77509 0.0
H791 H 0.99976 0.14674 0.79504 0.0
H792 H 0.06971 0.22224 0.76816 0.0
H793 H 0.05279 0.17508 0.78138 0.0
H794 H 0.91414 0.23432 0.65499 0.0
H795 H 0.88902 0.19657 0.67804 0.0
H796 H 0.94218 0.28694 0.67075 0.0
H797 H 0.98887 0.30336 0.68483 0.0
C798 C 0.94372 0.95267 0.74549 0.0
C799 C 0.93897 0.9228 0.719 0.0
C800 C 0.8821 0.96016 0.69418 0.0
C801 C 0.88768 0.99156 0.71951 0.0
N802 N 0.92859 0.02086 0.76538 0.0
N803 N 0.90879 0.90097 0.66472 0.0
C804 C 0.91983 0.98868 0.74424 0.0
C805 C 0.91004 0.92779 0.69211 0.0
N806 N 0.97084 0.94612 0.77204 0.0
N807 N 0.84838 0.9596 0.67357 0.0
H808 H 0.92705 0.87537 0.66343 0.0
H809 H 0.89198 0.90574 0.64182 0.0
H810 H 0.8265 0.98171 0.67496 0.0
H811 H 0.83986 0.93527 0.65792 0.0
H812 H 0.973 0.96425 0.79441 0.0
H813 H 0.99 0.92105 0.77236 0.0
H814 H 0.95404 0.02226 0.78146 0.0
H815 H 0.91201 0.04767 0.76487 0.0
C816 C 0.66611 0.7426 0.82563 0.0
C817 C 0.63031 0.73601 0.80558 0.0
C818 C 0.66113 0.67368 0.78209 0.0
C819 C 0.69491 0.67924 0.80462 0.0
N820 N 0.72747 0.71572 0.85129 0.0
N821 N 0.59437 0.69552 0.76322 0.0
C822 C 0.69638 0.71242 0.82775 0.0
C823 C 0.62804 0.70163 0.78319 0.0
N824 N 0.67295 0.77955 0.84007 0.0
N825 N 0.66136 0.64177 0.75928 0.0
H826 H 0.57268 0.71778 0.75947 0.0
H827 H 0.58793 0.66874 0.75014 0.0
H828 H 0.68384 0.61962 0.7599 0.0
H829 H 0.64027 0.63755 0.73928 0.0
H830 H 0.69979 0.78799 0.85226 0.0
H831 H 0.65395 0.80357 0.8349 0.0
H832 H 0.72756 0.73644 0.87197 0.0
H833 H 0.75181 0.69576 0.85202 0.0
C834 C 0.4149 0.68177 0.77747 0.0
C835 C 0.44877 0.68128 0.80038 0.0
C836 C 0.4439 0.60761 0.80491 0.0
C837 C 0.40631 0.60897 0.78711 0.0
N838 N 0.3642 0.64361 0.74517 0.0
N839 N 0.49777 0.64432 0.83425 0.0
C840 C 0.39446 0.64491 0.76957 0.0
C841 C 0.4646 0.64413 0.81283 0.0
N842 N 0.40107 0.718 0.76516 0.0
N843 N 0.4595 0.57087 0.81387 0.0
H844 H 0.51364 0.67062 0.84002 0.0
H845 H 0.50884 0.619 0.84738 0.0
H846 H 0.44489 0.54438 0.80655 0.0
H847 H 0.48782 0.5664 0.82512 0.0
H848 H 0.37396 0.72173 0.75163 0.0
H849 H 0.4165 0.7449 0.76979 0.0
H850 H 0.35661 0.66776 0.72883 0.0
H851 H 0.34941 0.61696 0.73866 0.0
C852 C 0.46159 0.35849 0.76375 0.0
C853 C 0.50047 0.37184 0.77371 0.0
C854 C 0.47273 0.43499 0.79583 0.0
C855 C 0.43323 0.42074 0.78923 0.0
N856 N 0.38915 0.37317 0.76134 0.0
N857 N 0.54397 0.42826 0.78246 0.0
C858 C 0.42743 0.38394 0.77072 0.0
C859 C 0.50613 0.41233 0.78359 0.0
N860 N 0.45779 0.32157 0.74828 0.0
N861 N 0.47847 0.46762 0.81714 0.0
H862 H 0.56857 0.41133 0.77336 0.0
H863 H 0.54958 0.45883 0.7865 0.0
H864 H 0.45463 0.48227 0.82981 0.0
H865 H 0.50694 0.47715 0.82532 0.0
H866 H 0.43062 0.30951 0.73964 0.0
H867 H 0.48289 0.30359 0.74259 0.0
H868 H 0.38183 0.34671 0.74815 0.0
H869 H 0.36438 0.392 0.76605 0.0
C870 C 0.75608 0.4523 0.78789 0.0
C871 C 0.74087 0.49145 0.79514 0.0
C872 C 0.67351 0.46272 0.80652 0.0
C873 C 0.68985 0.42344 0.80227 0.0
N874 N 0.74778 0.38034 0.79658 0.0
N875 N 0.68537 0.53473 0.81154 0.0
C876 C 0.73153 0.41824 0.79517 0.0
C877 C 0.69956 0.49681 0.80452 0.0
N878 N 0.79365 0.44743 0.77348 0.0
N879 N 0.6329 0.46741 0.81128 0.0
H880 H 0.70236 0.5605 0.80634 0.0
H881 H 0.6574 0.54074 0.82304 0.0
H882 H 0.61369 0.44311 0.81541 0.0
H883 H 0.61795 0.49504 0.81007 0.0
H884 H 0.80398 0.41995 0.76361 0.0
H885 H 0.81283 0.47135 0.76768 0.0
H886 H 0.77869 0.37454 0.79506 0.0
H887 H 0.73048 0.35507 0.80307 0.0
C888 C 0.62773 0.43261 0.21949 0.0
C889 C 0.63329 0.39097 0.22765 0.0
C890 C 0.70674 0.40198 0.23143 0.0
C891 C 0.7008 0.44369 0.22517 0.0
N892 N 0.65615 0.50002 0.21695 0.0
N893 N 0.6777 0.33662 0.24492 0.0
C894 C 0.66139 0.45931 0.22008 0.0
C895 C 0.67272 0.3759 0.23492 0.0
N896 N 0.59018 0.44649 0.21054 0.0
N897 N 0.74536 0.38732 0.23267 0.0
H898 H 0.65379 0.31652 0.24648 0.0
H899 H 0.7048 0.32448 0.25398 0.0
H900 H 0.77055 0.40588 0.22947 0.0
H901 H 0.75267 0.3568 0.23385 0.0
H902 H 0.58466 0.47492 0.1998 0.0
H903 H 0.56433 0.42876 0.21248 0.0
H904 H 0.62815 0.51438 0.2177 0.0
H905 H 0.68037 0.51987 0.21533 0.0
C906 C 0.70748 0.63251 0.23125 0.0
C907 C 0.74935 0.64051 0.22834 0.0
C908 C 0.73486 0.71313 0.22368 0.0
C909 C 0.69298 0.70449 0.22302 0.0
N910 N 0.63868 0.6568 0.22351 0.0
N911 N 0.80389 0.68794 0.22233 0.0
C912 C 0.67914 0.66429 0.22599 0.0
C913 C 0.76337 0.6808 0.22491 0.0
N914 N 0.69514 0.59467 0.24056 0.0
N915 N 0.74701 0.75247 0.22429 0.0
H916 H 0.82534 0.66547 0.22683 0.0
H917 H 0.81629 0.71563 0.21526 0.0
H918 H 0.72664 0.77644 0.22214 0.0
H919 H 0.77669 0.76154 0.22845 0.0
H920 H 0.66529 0.58721 0.24624 0.0
H921 H 0.71569 0.57156 0.24608 0.0
H922 H 0.62641 0.62796 0.22225 0.0
H923 H 0.61746 0.67981 0.21997 0.0
C924 C 0.49645 0.72251 0.24307 0.0
C925 C 0.49223 0.7582 0.22254 0.0
C926 C 0.4228 0.73864 0.20733 0.0
C927 C 0.42868 0.70131 0.22446 0.0
N928 N 0.47218 0.65466 0.25481 0.0
N929 N 0.45316 0.79674 0.18015 0.0
C930 C 0.46582 0.69246 0.24143 0.0
C931 C 0.45594 0.76519 0.20318 0.0
N932 N 0.52971 0.71715 0.26389 0.0
N933 N 0.38497 0.7496 0.19645 0.0
H934 H 0.47559 0.81822 0.17765 0.0
H935 H 0.4297 0.80016 0.16204 0.0
H936 H 0.35981 0.73108 0.19965 0.0
H937 H 0.37781 0.77847 0.18741 0.0
H938 H 0.53273 0.6937 0.28206 0.0
H939 H 0.55311 0.73799 0.26509 0.0
H940 H 0.49994 0.64457 0.26429 0.0
H941 H 0.45035 0.63211 0.2536 0.0
C942 C 0.45039 0.48204 0.22595 0.0
C943 C 0.43642 0.44196 0.22202 0.0
C944 C 0.36641 0.46642 0.22104 0.0
C945 C 0.3805 0.50692 0.22152 0.0
N946 N 0.43623 0.55364 0.22109 0.0
N947 N 0.38237 0.39531 0.21287 0.0
C948 C 0.42266 0.51479 0.22298 0.0
C949 C 0.39469 0.43403 0.21868 0.0
N950 N 0.49006 0.48853 0.23384 0.0
N951 N 0.32601 0.45893 0.22334 0.0
H952 H 0.40263 0.37116 0.21167 0.0
H953 H 0.35283 0.38737 0.20668 0.0
H954 H 0.30493 0.48201 0.22514 0.0
H955 H 0.31356 0.43034 0.22637 0.0
H956 H 0.50171 0.51653 0.24082 0.0
H957 H 0.51085 0.46501 0.23597 0.0
H958 H 0.46649 0.56125 0.21759 0.0
H959 H 0.41682 0.57845 0.2213 0.0
C960 C 0.20713 0.47338 0.25415 0.0
C961 C 0.20337 0.47424 0.21652 0.0
C962 C 0.1588 0.41555 0.21954 0.0
C963 C 0.16048 0.41672 0.25701 0.0
N964 N 0.17407 0.45584 0.30909 0.0
N965 N 0.16571 0.45377 0.16526 0.0
C966 C 0.1808 0.44857 0.27403 0.0
C967 C 0.17601 0.44765 0.1998 0.0
N968 N 0.23703 0.49382 0.27125 0.0
N969 N 0.14242 0.38318 0.20269 0.0
H970 H 0.17635 0.47832 0.15067 0.0
H971 H 0.14326 0.4373 0.15254 0.0
H972 H 0.13039 0.35864 0.21619 0.0
H973 H 0.14419 0.37912 0.1754 0.0
H974 H 0.24279 0.49004 0.29816 0.0
H975 H 0.25889 0.51107 0.25876 0.0
H976 H 0.18546 0.4811 0.32205 0.0
H977 H 0.15316 0.43946 0.32398 0.0
C978 C 0.65808 0.17446 0.29782 0.0
C979 C 0.68572 0.14519 0.28544 0.0
C980 C 0.67029 0.16625 0.22451 0.0
C981 C 0.65139 0.20163 0.23791 0.0
N982 N 0.63113 0.24088 0.28919 0.0
N983 N 0.69226 0.09803 0.23752 0.0
C984 C 0.64612 0.20607 0.27508 0.0
C985 C 0.68524 0.13655 0.24862 0.0
N986 N 0.6387 0.16893 0.32932 0.0
N987 N 0.67332 0.16073 0.18883 0.0
H988 H 0.69391 0.0741 0.25543 0.0
H989 H 0.68987 0.08871 0.21134 0.0
H990 H 0.65932 0.17975 0.17058 0.0
H991 H 0.69113 0.13829 0.17739 0.0
H992 H 0.61571 0.188 0.33822 0.0
H993 H 0.64104 0.14181 0.34328 0.0
H994 H 0.63041 0.24608 0.31639 0.0
H995 H 0.62324 0.2659 0.27412 0.0
C996 C 0.93988 0.71414 0.2 0.0
C997 C 0.93703 0.67236 0.20763 0.0
C998 C 0.97802 0.68306 0.2609 0.0
C999 C 0.9718 0.72525 0.25732 0.0
N1000 N 0.9454 0.78131 0.22418 0.0
N1001 N 0.97404 0.61717 0.23303 0.0
C1002 C 0.95239 0.74088 0.22698 0.0
C1003 C 0.96215 0.65658 0.23475 0.0
N1004 N 0.93742 0.72738 0.16596 0.0
N1005 N 0.99865 0.66848 0.28945 0.0
H1006 H 0.96674 0.59909 0.21139 0.0
H1007 H 0.99463 0.60387 0.25028 0.0
H1008 H 1.01249 0.68725 0.30787 0.0
H1009 H 1.00046 0.63797 0.29585 0.0
H1010 H 0.94158 0.75746 0.15875 0.0
H1011 H 0.93936 0.70723 0.14486 0.0
H1012 H 0.92824 0.79389 0.20383 0.0
H1013 H 0.95371 0.80144 0.24402 0.0
C1014 C 0.45767 0.9994 0.26434 0.0
C1015 C 0.41922 0.98448 0.27432 0.0
C1016 C 0.42993 0.92445 0.23776 0.0
C1017 C 0.4674 0.9405 0.22626 0.0
N1018 N 0.51485 0.99495 0.22399 0.0
N1019 N 0.36591 0.93612 0.26766 0.0
C1020 C 0.48051 0.97869 0.2381 0.0
C1021 C 0.40447 0.94794 0.26006 0.0
N1022 N 0.47309 0.03211 0.28144 0.0
N1023 N 0.41972 0.88599 0.22862 0.0
H1024 H 0.34702 0.9525 0.28449 0.0
H1025 H 0.35164 0.91194 0.25546 0.0
H1026 H 0.43779 0.86829 0.21223 0.0
H1027 H 0.39499 0.87066 0.23904 0.0
H1028 H 0.50239 0.0427 0.27779 0.0
H1029 H 0.45751 0.04662 0.30177 0.0
H1030 H 0.52449 0.02424 0.22898 0.0
H1031 H 0.53208 0.9799 0.20494 0.0
C1032 C 0.18339 0.64017 0.7603 0.0
C1033 C 0.22297 0.65479 0.76584 0.0
C1034 C 0.21042 0.7109 0.72492 0.0
C1035 C 0.17096 0.69573 0.71892 0.0
N1036 N 0.12413 0.64084 0.72274 0.0
N1037 N 0.27722 0.6991 0.74956 0.0
C1038 C 0.15874 0.65875 0.73426 0.0
C1039 C 0.23745 0.68867 0.74681 0.0
N1040 N 0.16901 0.60945 0.78088 0.0
N1041 N 0.22143 0.74725 0.71089 0.0
H1042 H 0.29721 0.68391 0.7662 0.0
H1043 H 0.29124 0.72068 0.73377 0.0
H1044 H 0.20206 0.76509 0.69583 0.0
H1045 H 0.24883 0.76126 0.71605 0.0
H1046 H 0.13906 0.59993 0.78052 0.0
H1047 H 0.18634 0.59566 0.80053 0.0
H1048 H 0.11481 0.61226 0.73075 0.0
H1049 H 0.1072 0.65292 0.70201 0.0
C1050 C 0.45131 0.13871 0.74534 0.0
C1051 C 0.41224 0.1519 0.73558 0.0
C1052 C 0.4195 0.21184 0.77294 0.0
C1053 C 0.45748 0.19699 0.78457 0.0
N1054 N 0.50639 0.14349 0.78727 0.0
N1055 N 0.35687 0.19839 0.74154 0.0
C1056 C 0.47254 0.15959 0.77218 0.0
C1057 C 0.39568 0.18788 0.74975 0.0
N1058 N 0.46821 0.10658 0.72821 0.0
N1059 N 0.40687 0.24921 0.78346 0.0
H1060 H 0.33918 0.18158 0.72421 0.0
H1061 H 0.34129 0.22221 0.75321 0.0
H1062 H 0.42377 0.26736 0.80032 0.0
H1063 H 0.38115 0.26355 0.77381 0.0
H1064 H 0.49796 0.09718 0.73183 0.0
H1065 H 0.45335 0.09158 0.70781 0.0
H1066 H 0.5174 0.11475 0.78165 0.0
H1067 H 0.52125 0.15757 0.80814 0.0
C1068 C 0.943 0.38967 0.76302 0.0
C1069 C 0.97749 0.40995 0.74986 0.0
C1070 C 0.96331 0.46727 0.78868 0.0
C1071 C 0.92609 0.44933 0.79837 0.0
N1072 N 0.87849 0.39484 0.79324 0.0
N1073 N 0.01997 0.46847 0.74776 0.0
C1074 C 0.91555 0.4106 0.7855 0.0
C1075 C 0.98766 0.44885 0.76221 0.0
N1076 N 0.93682 0.35029 0.75405 0.0
N1077 N 0.97538 0.50163 0.80544 0.0
H1078 H 0.03825 0.45537 0.72841 0.0
H1079 H 0.02702 0.49844 0.753 0.0
H1080 H 0.95824 0.515 0.82548 0.0
H1081 H 1.00362 0.51479 0.80188 0.0
H1082 H 0.91453 0.33225 0.76533 0.0
H1083 H 0.95622 0.33473 0.73709 0.0
H1084 H 0.86706 0.36889 0.78152 0.0
H1085 H 0.85777 0.40918 0.80979 0.0
C1086 C 0.64286 0.95459 0.7661 0.0
C1087 C 0.65745 0.91652 0.77729 0.0
C1088 C 0.71953 0.92641 0.74294 0.0
C1089 C 0.70402 0.96372 0.73066 0.0
N1090 N 0.64853 1.00975 0.72408 0.0
N1091 N 0.70599 0.86279 0.77275 0.0
C1092 C 0.66478 0.97663 0.74021 0.0
C1093 C 0.69478 0.90135 0.76452 0.0
N1094 N 0.60906 0.97032 0.7816 0.0
N1095 N 0.75828 0.91571 0.7346 0.0
H1096 H 0.68817 0.84409 0.78857 0.0
H1097 H 0.73113 0.84838 0.76198 0.0
H1098 H 0.77648 0.93323 0.71804 0.0
H1099 H 0.77312 0.8909 0.74545 0.0
H1100 H 0.59863 0.99954 0.77706 0.0
H1101 H 0.59348 0.95503 0.8015 0.0
H1102 H 0.61868 0.01897 0.72753 0.0
H1103 H 0.66419 0.02595 0.70474 0.0
C1104 C 0.97703 0.688 0.77918 0.0
C1105 C 0.97747 0.68757 0.74167 0.0
C1106 C 0.91792 0.64315 0.74165 0.0
C1107 C 0.91433 0.64757 0.77904 0.0
N1108 N 0.94138 0.67336 0.83384 0.0
N1109 N 0.94599 0.66875 0.6868 0.0
C1110 C 0.9442 0.66981 0.79788 0.0
C1111 C 0.94751 0.66594 0.72285 0.0
N1112 N 1.00891 0.70455 0.79694 0.0
N1113 N 0.8935 0.61703 0.72375 0.0
H1114 H 0.96739 0.68428 0.67194 0.0
H1115 H 0.92178 0.65862 0.67172 0.0
H1116 H 0.87028 0.60063 0.73532 0.0
H1117 H 0.89846 0.60871 0.69755 0.0
H1118 H 1.01311 0.70209 0.82412 0.0
H1119 H 0.03316 0.71845 0.78415 0.0
H1120 H 0.95816 0.69374 0.84862 0.0
H1121 H 0.92128 0.65657 0.84914 0.0
C1122 C 0.40381 0.92024 0.74796 0.0
C1123 C 0.41479 0.96137 0.75319 0.0
C1124 C 0.47219 0.93892 0.78949 0.0
C1125 C 0.45809 0.89855 0.78824 0.0
N1126 N 0.40754 0.85114 0.76934 0.0
N1127 N 0.4545 1.00974 0.78569 0.0
C1128 C 0.42287 0.88938 0.7685 0.0
C1129 C 0.44772 0.97068 0.77577 0.0
N1130 N 0.3769 0.91022 0.72207 0.0
N1131 N 0.50927 0.94706 0.80335 0.0
H1132 H 0.43615 0.03374 0.77783 0.0
H1133 H 0.47549 0.01779 0.8049 0.0
H1134 H 0.52876 0.92446 0.812 0.0
H1135 H 0.52244 0.97555 0.80238 0.0
H1136 H 0.37085 0.88057 0.71478 0.0
H1137 H 0.36362 0.93132 0.70525 0.0
H1138 H 0.37934 0.8437 0.75908 0.0
H1139 H 0.42192 0.82727 0.78229 0.0
C1140 C 0.15562 0.43123 0.77929 0.0
C1141 C 0.16607 0.41023 0.74784 0.0
C1142 C 0.23674 0.43248 0.75474 0.0
C1143 C 0.22535 0.45643 0.78434 0.0
N1144 N 0.17227 0.48416 0.82077 0.0
N1145 N 0.21525 0.39606 0.70235 0.0
C1146 C 0.18429 0.4573 0.79546 0.0
C1147 C 0.20634 0.41215 0.7347 0.0
N1148 N 0.11858 0.42513 0.79452 0.0
N1149 N 0.27674 0.42796 0.74649 0.0
H1150 H 0.19388 0.38124 0.68692 0.0
H1151 H 0.24282 0.40025 0.68954 0.0
H1152 H 0.29972 0.44271 0.76012 0.0
H1153 H 0.28736 0.40728 0.72793 0.0
H1154 H 0.11064 0.43613 0.81937 0.0
H1155 H 0.09704 0.40569 0.78396 0.0
H1156 H 0.14212 0.4896 0.82719 0.0
H1157 H 0.19217 0.50394 0.83298 0.0
C1158 C 0.69333 0.21061 0.79457 0.0
C1159 C 0.65394 0.19847 0.78419 0.0
C1160 C 0.6841 0.14392 0.7488 0.0
C1161 C 0.72339 0.15981 0.75481 0.0
N1162 N 0.76491 0.21149 0.78118 0.0
N1163 N 0.6124 0.15836 0.74547 0.0
C1164 C 0.7278 0.1942 0.77695 0.0
C1165 C 0.64944 0.16624 0.75985 0.0
N1166 N 0.69809 0.23634 0.82247 0.0
N1167 N 0.67948 0.10754 0.73253 0.0
H1168 H 0.58651 0.17503 0.75145 0.0
H1169 H 0.60814 0.13824 0.72469 0.0
H1170 H 0.70362 0.08978 0.72425 0.0
H1171 H 0.6517 0.09305 0.73074 0.0
H1172 H 0.72608 0.24299 0.83354 0.0
H1173 H 0.67394 0.24777 0.8371 0.0
H1174 H 0.76903 0.23952 0.79305 0.0
H1175 H 0.79142 0.19911 0.77098 0.0
C1176 C 0.97006 0.42459 0.2343 0.0
C1177 C 0.97378 0.42349 0.27167 0.0
C1178 C 0.916 0.47025 0.27707 0.0
C1179 C 0.90987 0.46852 0.23989 0.0
N1180 N 0.92903 0.4406 0.18316 0.0
N1181 N 0.9452 0.43842 0.32892 0.0
C1182 C 0.93626 0.44457 0.21857 0.0
C1183 C 0.9455 0.44467 0.29313 0.0
N1184 N 0.99973 0.40802 0.21366 0.0
N1185 N 0.89351 0.49606 0.29732 0.0
H1186 H 0.96521 0.41887 0.34167 0.0
H1187 H 0.9226 0.44925 0.34563 0.0
H1188 H 0.8703 0.5139 0.28727 0.0
H1189 H 0.89998 0.50222 0.32371 0.0
H1190 H 1.00164 0.4122 0.18641 0.0
H1191 H 0.02443 0.39251 0.22401 0.0
H1192 H 0.94344 0.41932 0.16727 0.0
H1193 H 0.90701 0.45702 0.16975 0.0
C1194 C 0.67117 0.90729 0.28534 0.0
C1195 C 0.67411 0.90488 0.24792 0.0
C1196 C 0.72155 0.96217 0.24779 0.0
C1197 C 0.71537 0.96684 0.28469 0.0
N1198 N 0.68281 0.94562 0.33878 0.0
N1199 N 0.69906 0.93246 0.19279 0.0
C1200 C 0.68967 0.93994 0.30346 0.0
C1201 C 0.69885 0.93271 0.22897 0.0
N1202 N 0.65262 0.87708 0.30388 0.0
N1203 N 0.74898 0.98608 0.23061 0.0
H1204 H 0.68374 0.91123 0.17777 0.0
H1205 H 0.712 0.95502 0.17732 0.0
H1206 H 0.76417 1.00977 0.24278 0.0
H1207 H 0.75886 0.98091 0.20486 0.0
H1208 H 0.65361 0.87433 0.33129 0.0
H1209 H 0.63911 0.85249 0.29176 0.0
H1210 H 0.65994 0.93118 0.35286 0.0
H1211 H 0.69889 0.96625 0.35392 0.0
C1212 C 0.16654 0.73246 0.23147 0.0
C1213 C 0.15516 0.72401 0.26692 0.0
C1214 C 0.21037 0.67399 0.2712 0.0
C1215 C 0.2201 0.68044 0.23492 0.0
N1216 N 0.20184 0.71021 0.17876 0.0
N1217 N 0.16332 0.68391 0.31979 0.0
C1218 C 0.19676 0.70834 0.21465 0.0
C1219 C 0.1761 0.69376 0.28644 0.0
N1220 N 0.14835 0.76354 0.21368 0.0
N1221 N 0.23514 0.65079 0.29183 0.0
H1222 H 0.14109 0.70003 0.33333 0.0
H1223 H 0.17323 0.65843 0.33344 0.0
H1224 H 0.26005 0.63527 0.28201 0.0
H1225 H 0.23294 0.64918 0.31926 0.0
H1226 H 0.15882 0.7747 0.18959 0.0
H1227 H 0.12434 0.78022 0.22404 0.0
H1228 H 0.18281 0.72631 0.16196 0.0
H1229 H 0.22266 0.69252 0.16508 0.0
C1230 C 0.43414 0.20249 0.30243 0.0
C1231 C 0.4114 0.17407 0.2828 0.0
C1232 C 0.43139 0.20833 0.22743 0.0
C1233 C 0.45606 0.23561 0.24693 0.0
N1234 N 0.48502 0.25503 0.30297 0.0
N1235 N 0.39176 0.14653 0.22664 0.0
C1236 C 0.45874 0.23149 0.28441 0.0
C1237 C 0.41072 0.17627 0.2453 0.0
N1238 N 0.43092 0.2027 0.33852 0.0
N1239 N 0.42794 0.21278 0.19158 0.0
H1240 H 0.37532 0.12349 0.23872 0.0
H1241 H 0.39415 0.14304 0.19937 0.0
H1242 H 0.44581 0.23247 0.17682 0.0
H1243 H 0.40637 0.19805 0.1764 0.0
H1244 H 0.44283 0.2252 0.35454 0.0
H1245 H 0.41315 0.18211 0.35247 0.0
H1246 H 0.49224 0.25017 0.32942 0.0
H1247 H 0.50208 0.27788 0.2915 0.0
loop_
_geom_bond_atom_site_label_1
_geom_bond_atom_site_label_2
_geom_bond_distance
_geom_bond_site_symmetry_2
_ccdc_geom_bond_type
Co0 N4 2.148 1_455 S
Co0 N10 2.128 . S
Co0 N20 2.194 . S
Co0 O25 2.351 . S
Co0 O26 2.155 . S
Co0 O27 2.096 . S
C1 N4 1.301 . S
C1 N5 1.328 . S
C1 H6 0.927 1_655 S
C2 C3 1.333 . S
C2 N4 1.317 . S
C2 H7 0.930 . S
C3 C2 1.333 . S
C3 N5 1.350 . S
C3 H29 0.931 . S
N4 Co0 2.148 1_655 S
N4 C1 1.301 . S
N4 C2 1.317 . S
N5 C1 1.328 . S
N5 C3 1.350 . S
H6 C1 0.927 1_455 S
H7 C2 0.930 . S
C8 O9 1.224 . S
C8 O27 1.247 1_655 S
O9 C8 1.224 . S
N10 Co0 2.128 . S
N10 C11 1.355 . S
N10 C13 1.311 . S
C11 N10 1.355 . S
C11 C12 1.363 . S
C11 H23 0.929 . S
C12 C11 1.363 . S
C12 N14 1.375 . S
C12 H30 0.931 . S
C13 N10 1.311 . S
C13 N14 1.347 . S
C13 H24 0.929 . S
N14 C12 1.375 . S
N14 C13 1.347 . S
C15 C18 1.365 . S
C15 N20 1.328 . S
C15 H21 0.929 . S
C16 C17 1.362 . S
C16 C19 1.378 . S
C16 H31 0.929 1_455 S
C17 C16 1.362 . S
C17 C18 1.366 . S
C18 C15 1.365 . S
C18 C17 1.366 . S
C18 H32 0.930 . S
C19 C16 1.378 . S
C19 N20 1.315 . S
C19 H22 0.930 1_455 S
N20 Co0 2.194 . S
N20 C15 1.328 . S
N20 C19 1.315 . S
H21 C15 0.929 . S
H22 C19 0.930 1_655 S
H23 C11 0.929 . S
H24 C13 0.929 . S
O25 Co0 2.351 . S
O25 C28 1.244 . S
O26 Co0 2.155 . S
O26 C28 1.240 . S
O27 Co0 2.096 . S
O27 C8 1.247 1_455 S
C28 O25 1.244 . S
C28 O26 1.240 . S
H29 C3 0.931 . S
H30 C12 0.931 . S
H31 C16 0.929 1_655 S
H32 C18 0.930 . S
Co33 N37 2.148 1_545 S
Co33 N43 2.128 . S
Co33 N53 2.194 . S
Co33 O58 2.351 . S
Co33 O59 2.155 . S
Co33 O60 2.096 . S
C34 N37 1.301 . S
C34 N38 1.328 . S
C34 H39 0.927 1_565 S
C35 C36 1.333 . S
C35 N37 1.317 . S
C35 H40 0.930 . S
C36 C35 1.333 . S
C36 N38 1.350 . S
C36 H62 0.931 . S
N37 Co33 2.148 1_565 S
N37 C34 1.301 . S
N37 C35 1.317 . S
N38 C34 1.328 . S
N38 C36 1.350 . S
H39 C34 0.927 1_545 S
H40 C35 0.930 . S
C41 O42 1.224 . S
C41 O60 1.247 1_565 S
O42 C41 1.224 . S
N43 Co33 2.128 . S
N43 C44 1.355 . S
N43 C46 1.311 . S
C44 N43 1.355 . S
C44 C45 1.363 . S
C44 H56 0.929 . S
C45 C44 1.363 . S
C45 N47 1.375 . S
C45 H63 0.931 . S
C46 N43 1.311 . S
C46 N47 1.347 . S
C46 H57 0.929 . S
N47 C45 1.375 . S
N47 C46 1.347 . S
C48 C51 1.365 . S
C48 N53 1.328 . S
C48 H54 0.929 . S
C49 C50 1.362 . S
C49 C52 1.378 . S
C49 H64 0.929 1_545 S
C50 C49 1.362 . S
C50 C51 1.366 . S
C51 C48 1.365 . S
C51 C50 1.366 . S
C51 H65 0.930 . S
C52 C49 1.378 . S
C52 N53 1.315 . S
C52 H55 0.930 1_545 S
N53 Co33 2.194 . S
N53 C48 1.328 . S
N53 C52 1.315 . S
H54 C48 0.929 . S
H55 C52 0.930 1_565 S
H56 C44 0.929 . S
H57 C46 0.929 . S
O58 Co33 2.351 . S
O58 C61 1.244 . S
O59 Co33 2.155 . S
O59 C61 1.240 . S
O60 Co33 2.096 . S
O60 C41 1.247 1_545 S
C61 O58 1.244 . S
C61 O59 1.240 . S
H62 C36 0.931 . S
H63 C45 0.931 . S
H64 C49 0.929 1_565 S
H65 C51 0.930 . S
Co66 N70 2.148 . S
Co66 N76 2.128 . S
Co66 N86 2.194 . S
Co66 O91 2.351 . S
Co66 O92 2.155 . S
Co66 O93 2.096 . S
C67 N70 1.301 . S
C67 N71 1.328 . S
C67 H72 0.930 . S
C68 C69 1.333 . S
C68 N70 1.317 . S
C68 H73 0.930 . S
C69 C68 1.333 . S
C69 N71 1.350 . S
C69 H95 0.931 . S
N70 Co66 2.148 . S
N70 C67 1.301 . S
N70 C68 1.317 . S
N71 C67 1.328 . S
N71 C69 1.350 . S
H72 C67 0.930 . S
H73 C68 0.930 . S
C74 O75 1.224 . S
C74 O93 1.247 . S
O75 C74 1.224 . S
N76 Co66 2.128 . S
N76 C77 1.355 1_455 S
N76 C79 1.311 . S
C77 N76 1.355 1_655 S
C77 C78 1.363 . S
C77 H89 0.929 . S
C78 C77 1.363 . S
C78 N80 1.375 . S
C78 H96 0.931 . S
C79 N76 1.311 . S
C79 N80 1.347 1_455 S
C79 H90 0.929 . S
N80 C78 1.375 . S
N80 C79 1.347 1_655 S
C81 C84 1.365 . S
C81 N86 1.328 . S
C81 H87 0.929 . S
C82 C83 1.362 . S
C82 C85 1.378 . S
C82 H97 0.929 . S
C83 C82 1.362 . S
C83 C84 1.366 . S
C84 C81 1.365 . S
C84 C83 1.366 . S
C84 H98 0.930 . S
C85 C82 1.378 . S
C85 N86 1.315 . S
C85 H88 0.930 . S
N86 Co66 2.194 . S
N86 C81 1.328 . S
N86 C85 1.315 . S
H87 C81 0.929 . S
H88 C85 0.930 . S
H89 C77 0.929 . S
H90 C79 0.929 . S
O91 Co66 2.351 . S
O91 C94 1.244 . S
O92 Co66 2.155 . S
O92 C94 1.240 . S
O93 Co66 2.096 . S
O93 C74 1.247 . S
C94 O91 1.244 . S
C94 O92 1.240 . S
H95 C69 0.931 . S
H96 C78 0.931 . S
H97 C82 0.929 . S
H98 C84 0.930 . S
Co99 N103 2.148 . S
Co99 N109 2.128 . S
Co99 N119 2.194 . S
Co99 O124 2.351 . S
Co99 O125 2.155 . S
Co99 O126 2.096 . S
C100 N103 1.301 . S
C100 N104 1.328 . S
C100 H105 0.930 . S
C101 C102 1.333 . S
C101 N103 1.317 . S
C101 H106 0.930 . S
C102 C101 1.333 . S
C102 N104 1.350 . S
C102 H128 0.931 . S
N103 Co99 2.148 . S
N103 C100 1.301 . S
N103 C101 1.317 . S
N104 C100 1.328 . S
N104 C102 1.350 . S
H105 C100 0.930 . S
H106 C101 0.930 . S
C107 O108 1.224 . S
C107 O126 1.247 . S
O108 C107 1.224 . S
N109 Co99 2.128 . S
N109 C110 1.355 1_545 S
N109 C112 1.311 . S
C110 N109 1.355 1_565 S
C110 C111 1.363 . S
C110 H122 0.929 . S
C111 C110 1.363 . S
C111 N113 1.375 . S
C111 H129 0.931 . S
C112 N109 1.311 . S
C112 N113 1.347 1_545 S
C112 H123 0.929 . S
N113 C111 1.375 . S
N113 C112 1.347 1_565 S
C114 C117 1.365 . S
C114 N119 1.328 . S
C114 H120 0.929 . S
C115 C116 1.362 . S
C115 C118 1.378 . S
C115 H130 0.929 . S
C116 C115 1.362 . S
C116 C117 1.366 . S
C117 C114 1.365 . S
C117 C116 1.366 . S
C117 H131 0.930 . S
C118 C115 1.378 . S
C118 N119 1.315 . S
C118 H121 0.930 . S
N119 Co99 2.194 . S
N119 C114 1.328 . S
N119 C118 1.315 . S
H120 C114 0.929 . S
H121 C118 0.930 . S
H122 C110 0.929 . S
H123 C112 0.929 . S
O124 Co99 2.351 . S
O124 C127 1.244 . S
O125 Co99 2.155 . S
O125 C127 1.240 . S
O126 Co99 2.096 . S
O126 C107 1.247 . S
C127 O124 1.244 . S
C127 O125 1.240 . S
H128 C102 0.931 . S
H129 C111 0.931 . S
H130 C115 0.929 . S
H131 C117 0.930 . S
Co132 N136 2.148 1_455 S
Co132 N142 2.128 . S
Co132 N152 2.194 . S
Co132 O157 2.351 . S
Co132 O158 2.155 . S
Co132 O159 2.096 . S
C133 N136 1.301 . S
C133 N137 1.328 . S
C133 H138 0.927 1_655 S
C134 C135 1.333 . S
C134 N136 1.317 . S
C134 H139 0.930 . S
C135 C134 1.333 . S
C135 N137 1.350 . S
C135 H161 0.931 . S
N136 Co132 2.148 1_655 S
N136 C133 1.301 . S
N136 C134 1.317 . S
N137 C133 1.328 . S
N137 C135 1.350 . S
H138 C133 0.927 1_455 S
H139 C134 0.930 . S
C140 O141 1.224 . S
C140 O159 1.247 1_655 S
O141 C140 1.224 . S
N142 Co132 2.128 . S
N142 C143 1.355 . S
N142 C145 1.311 . S
C143 N142 1.355 . S
C143 C144 1.363 . S
C143 H155 0.929 . S
C144 C143 1.363 . S
C144 N146 1.375 . S
C144 H162 0.931 . S
C145 N142 1.311 . S
C145 N146 1.347 . S
C145 H156 0.929 . S
N146 C144 1.375 . S
N146 C145 1.347 . S
C147 C150 1.365 . S
C147 N152 1.328 . S
C147 H153 0.929 . S
C148 C149 1.362 . S
C148 C151 1.378 . S
C148 H163 0.929 1_455 S
C149 C148 1.362 . S
C149 C150 1.366 . S
C150 C147 1.365 . S
C150 C149 1.366 . S
C150 H164 0.930 . S
C151 C148 1.378 . S
C151 N152 1.315 . S
C151 H154 0.930 1_455 S
N152 Co132 2.194 . S
N152 C147 1.328 . S
N152 C151 1.315 . S
H153 C147 0.929 . S
H154 C151 0.930 1_655 S
H155 C143 0.929 . S
H156 C145 0.929 . S
O157 Co132 2.351 . S
O157 C160 1.244 . S
O158 Co132 2.155 . S
O158 C160 1.240 . S
O159 Co132 2.096 . S
O159 C140 1.247 1_455 S
C160 O157 1.244 . S
C160 O158 1.240 . S
H161 C135 0.931 . S
H162 C144 0.931 . S
H163 C148 0.929 1_655 S
H164 C150 0.930 . S
Co165 N169 2.148 1_545 S
Co165 N175 2.128 . S
Co165 N185 2.194 . S
Co165 O190 2.351 . S
Co165 O191 2.155 . S
Co165 O192 2.096 . S
C166 N169 1.301 . S
C166 N170 1.328 . S
C166 H171 0.927 1_565 S
C167 C168 1.333 . S
C167 N169 1.317 . S
C167 H172 0.930 . S
C168 C167 1.333 . S
C168 N170 1.350 . S
C168 H194 0.931 . S
N169 Co165 2.148 1_565 S
N169 C166 1.301 . S
N169 C167 1.317 . S
N170 C166 1.328 . S
N170 C168 1.350 . S
H171 C166 0.927 1_545 S
H172 C167 0.930 . S
C173 O174 1.224 . S
C173 O192 1.247 1_565 S
O174 C173 1.224 . S
N175 Co165 2.128 . S
N175 C176 1.355 . S
N175 C178 1.311 . S
C176 N175 1.355 . S
C176 C177 1.363 . S
C176 H188 0.929 . S
C177 C176 1.363 . S
C177 N179 1.375 . S
C177 H195 0.931 . S
C178 N175 1.311 . S
C178 N179 1.347 . S
C178 H189 0.929 . S
N179 C177 1.375 . S
N179 C178 1.347 . S
C180 C183 1.365 . S
C180 N185 1.328 . S
C180 H186 0.929 . S
C181 C182 1.362 . S
C181 C184 1.378 . S
C181 H196 0.929 1_545 S
C182 C181 1.362 . S
C182 C183 1.366 . S
C183 C180 1.365 . S
C183 C182 1.366 . S
C183 H197 0.930 . S
C184 C181 1.378 . S
C184 N185 1.315 . S
C184 H187 0.930 1_545 S
N185 Co165 2.194 . S
N185 C180 1.328 . S
N185 C184 1.315 . S
H186 C180 0.929 . S
H187 C184 0.930 1_565 S
H188 C176 0.929 . S
H189 C178 0.929 . S
O190 Co165 2.351 . S
O190 C193 1.244 . S
O191 Co165 2.155 . S
O191 C193 1.240 . S
O192 Co165 2.096 . S
O192 C173 1.247 1_545 S
C193 O190 1.244 . S
C193 O191 1.240 . S
H194 C168 0.931 . S
H195 C177 0.931 . S
H196 C181 0.929 1_565 S
H197 C183 0.930 . S
Co198 N202 2.148 . S
Co198 N208 2.128 . S
Co198 N218 2.194 . S
Co198 O223 2.351 . S
Co198 O224 2.155 . S
Co198 O225 2.096 . S
C199 N202 1.301 . S
C199 N203 1.328 . S
C199 H204 0.930 . S
C200 C201 1.333 . S
C200 N202 1.317 . S
C200 H205 0.930 . S
C201 C200 1.333 . S
C201 N203 1.350 . S
C201 H227 0.931 . S
N202 Co198 2.148 . S
N202 C199 1.301 . S
N202 C200 1.317 . S
N203 C199 1.328 . S
N203 C201 1.350 . S
H204 C199 0.930 . S
H205 C200 0.930 . S
C206 O207 1.224 . S
C206 O225 1.247 . S
O207 C206 1.224 . S
N208 Co198 2.128 . S
N208 C209 1.355 1_455 S
N208 C211 1.311 . S
C209 N208 1.355 1_655 S
C209 C210 1.363 . S
C209 H221 0.929 . S
C210 C209 1.363 . S
C210 N212 1.375 . S
C210 H228 0.931 . S
C211 N208 1.311 . S
C211 N212 1.347 1_455 S
C211 H222 0.929 . S
N212 C210 1.375 . S
N212 C211 1.347 1_655 S
C213 C216 1.365 . S
C213 N218 1.328 . S
C213 H219 0.929 . S
C214 C215 1.362 . S
C214 C217 1.378 . S
C214 H229 0.929 . S
C215 C214 1.362 . S
C215 C216 1.366 . S
C216 C213 1.365 . S
C216 C215 1.366 . S
C216 H230 0.930 . S
C217 C214 1.378 . S
C217 N218 1.315 . S
C217 H220 0.930 . S
N218 Co198 2.194 . S
N218 C213 1.328 . S
N218 C217 1.315 . S
H219 C213 0.929 . S
H220 C217 0.930 . S
H221 C209 0.929 . S
H222 C211 0.929 . S
O223 Co198 2.351 . S
O223 C226 1.244 . S
O224 Co198 2.155 . S
O224 C226 1.240 . S
O225 Co198 2.096 . S
O225 C206 1.247 . S
C226 O223 1.244 . S
C226 O224 1.240 . S
H227 C201 0.931 . S
H228 C210 0.931 . S
H229 C214 0.929 . S
H230 C216 0.930 . S
Co231 N235 2.148 . S
Co231 N241 2.128 . S
Co231 N251 2.194 . S
Co231 O256 2.351 . S
Co231 O257 2.155 . S
Co231 O258 2.096 . S
C232 N235 1.301 . S
C232 N236 1.328 . S
C232 H237 0.930 . S
C233 C234 1.333 . S
C233 N235 1.317 . S
C233 H238 0.930 . S
C234 C233 1.333 . S
C234 N236 1.350 . S
C234 H260 0.931 . S
N235 Co231 2.148 . S
N235 C232 1.301 . S
N235 C233 1.317 . S
N236 C232 1.328 . S
N236 C234 1.350 . S
H237 C232 0.930 . S
H238 C233 0.930 . S
C239 O240 1.224 . S
C239 O258 1.247 . S
O240 C239 1.224 . S
N241 Co231 2.128 . S
N241 C242 1.355 1_545 S
N241 C244 1.311 . S
C242 N241 1.355 1_565 S
C242 C243 1.363 . S
C242 H254 0.929 . S
C243 C242 1.363 . S
C243 N245 1.375 . S
C243 H261 0.931 . S
C244 N241 1.311 . S
C244 N245 1.347 1_545 S
C244 H255 0.929 . S
N245 C243 1.375 . S
N245 C244 1.347 1_565 S
C246 C249 1.365 . S
C246 N251 1.328 . S
C246 H252 0.929 . S
C247 C248 1.362 . S
C247 C250 1.378 . S
C247 H262 0.929 . S
C248 C247 1.362 . S
C248 C249 1.366 . S
C249 C246 1.365 . S
C249 C248 1.366 . S
C249 H263 0.930 . S
C250 C247 1.378 . S
C250 N251 1.315 . S
C250 H253 0.930 . S
N251 Co231 2.194 . S
N251 C246 1.328 . S
N251 C250 1.315 . S
H252 C246 0.929 . S
H253 C250 0.930 . S
H254 C242 0.929 . S
H255 C244 0.929 . S
O256 Co231 2.351 . S
O256 C259 1.244 . S
O257 Co231 2.155 . S
O257 C259 1.240 . S
O258 Co231 2.096 . S
O258 C239 1.247 . S
C259 O256 1.244 . S
C259 O257 1.240 . S
H260 C234 0.931 . S
H261 C243 0.931 . S
H262 C247 0.929 . S
H263 C249 0.930 . S
Co264 N268 2.148 . S
Co264 N274 2.128 . S
Co264 N284 2.194 . S
Co264 O289 2.351 . S
Co264 O290 2.155 . S
Co264 O291 2.096 . S
C265 N268 1.301 . S
C265 N269 1.328 . S
C265 H270 0.930 . S
C266 C267 1.333 . S
C266 N268 1.317 . S
C266 H271 0.930 . S
C267 C266 1.333 . S
C267 N269 1.350 . S
C267 H293 0.931 . S
N268 Co264 2.148 . S
N268 C265 1.301 . S
N268 C266 1.317 . S
N269 C265 1.328 . S
N269 C267 1.350 . S
H270 C265 0.930 . S
H271 C266 0.930 . S
C272 O273 1.224 . S
C272 O291 1.247 . S
O273 C272 1.224 . S
N274 Co264 2.128 . S
N274 C275 1.355 . S
N274 C277 1.311 . S
C275 N274 1.355 . S
C275 C276 1.363 . S
C275 H287 0.929 . S
C276 C275 1.363 . S
C276 N278 1.375 . S
C276 H294 0.931 . S
C277 N274 1.311 . S
C277 N278 1.347 . S
C277 H288 0.929 . S
N278 C276 1.375 . S
N278 C277 1.347 . S
C279 C282 1.365 . S
C279 N284 1.328 . S
C279 H285 0.929 . S
C280 C281 1.362 . S
C280 C283 1.378 . S
C280 H295 0.929 . S
C281 C280 1.362 . S
C281 C282 1.366 . S
C282 C279 1.365 . S
C282 C281 1.366 . S
C282 H296 0.930 . S
C283 C280 1.378 . S
C283 N284 1.315 . S
C283 H286 0.930 . S
N284 Co264 2.194 . S
N284 C279 1.328 . S
N284 C283 1.315 . S
H285 C279 0.929 . S
H286 C283 0.930 . S
H287 C275 0.929 . S
H288 C277 0.929 . S
O289 Co264 2.351 . S
O289 C292 1.244 . S
O290 Co264 2.155 . S
O290 C292 1.240 . S
O291 Co264 2.096 . S
O291 C272 1.247 . S
C292 O289 1.244 . S
C292 O290 1.240 . S
H293 C267 0.931 . S
H294 C276 0.931 . S
H295 C280 0.929 . S
H296 C282 0.930 . S
Co297 N301 2.148 . S
Co297 N307 2.128 . S
Co297 N317 2.194 . S
Co297 O322 2.351 . S
Co297 O323 2.155 . S
Co297 O324 2.096 . S
C298 N301 1.301 . S
C298 N302 1.328 . S
C298 H303 0.930 . S
C299 C300 1.333 . S
C299 N301 1.317 . S
C299 H304 0.930 . S
C300 C299 1.333 . S
C300 N302 1.350 . S
C300 H326 0.931 . S
N301 Co297 2.148 . S
N301 C298 1.301 . S
N301 C299 1.317 . S
N302 C298 1.328 . S
N302 C300 1.350 . S
H303 C298 0.930 . S
H304 C299 0.930 . S
C305 O306 1.224 . S
C305 O324 1.247 . S
O306 C305 1.224 . S
N307 Co297 2.128 . S
N307 C308 1.355 . S
N307 C310 1.311 . S
C308 N307 1.355 . S
C308 C309 1.363 . S
C308 H320 0.929 . S
C309 C308 1.363 . S
C309 N311 1.375 . S
C309 H327 0.931 . S
C310 N307 1.311 . S
C310 N311 1.347 . S
C310 H321 0.929 . S
N311 C309 1.375 . S
N311 C310 1.347 . S
C312 C315 1.365 . S
C312 N317 1.328 . S
C312 H318 0.929 . S
C313 C314 1.362 . S
C313 C316 1.378 . S
C313 H328 0.929 . S
C314 C313 1.362 . S
C314 C315 1.366 . S
C315 C312 1.365 . S
C315 C314 1.366 . S
C315 H329 0.930 . S
C316 C313 1.378 . S
C316 N317 1.315 . S
C316 H319 0.930 . S
N317 Co297 2.194 . S
N317 C312 1.328 . S
N317 C316 1.315 . S
H318 C312 0.929 . S
H319 C316 0.930 . S
H320 C308 0.929 . S
H321 C310 0.929 . S
O322 Co297 2.351 . S
O322 C325 1.244 . S
O323 Co297 2.155 . S
O323 C325 1.240 . S
O324 Co297 2.096 . S
O324 C305 1.247 . S
C325 O322 1.244 . S
C325 O323 1.240 . S
H326 C300 0.931 . S
H327 C309 0.931 . S
H328 C313 0.929 . S
H329 C315 0.930 . S
Co330 N334 2.148 . S
Co330 N340 2.128 . S
Co330 N350 2.194 . S
Co330 O355 2.351 . S
Co330 O356 2.155 . S
Co330 O357 2.096 . S
C331 N334 1.301 . S
C331 N335 1.328 . S
C331 H336 0.930 . S
C332 C333 1.333 . S
C332 N334 1.317 . S
C332 H337 0.930 . S
C333 C332 1.333 . S
C333 N335 1.350 . S
C333 H359 0.931 . S
N334 Co330 2.148 . S
N334 C331 1.301 . S
N334 C332 1.317 . S
N335 C331 1.328 . S
N335 C333 1.350 . S
H336 C331 0.930 . S
H337 C332 0.930 . S
C338 O339 1.224 . S
C338 O357 1.247 . S
O339 C338 1.224 . S
N340 Co330 2.128 . S
N340 C341 1.355 . S
N340 C343 1.311 . S
C341 N340 1.355 . S
C341 C342 1.363 . S
C341 H353 0.929 . S
C342 C341 1.363 . S
C342 N344 1.375 . S
C342 H360 0.931 . S
C343 N340 1.311 . S
C343 N344 1.347 . S
C343 H354 0.929 . S
N344 C342 1.375 . S
N344 C343 1.347 . S
C345 C348 1.365 . S
C345 N350 1.328 . S
C345 H351 0.929 . S
C346 C347 1.362 . S
C346 C349 1.378 . S
C346 H361 0.929 . S
C347 C346 1.362 . S
C347 C348 1.366 . S
C348 C345 1.365 . S
C348 C347 1.366 . S
C348 H362 0.930 . S
C349 C346 1.378 . S
C349 N350 1.315 . S
C349 H352 0.930 . S
N350 Co330 2.194 . S
N350 C345 1.328 . S
N350 C349 1.315 . S
H351 C345 0.929 . S
H352 C349 0.930 . S
H353 C341 0.929 . S
H354 C343 0.929 . S
O355 Co330 2.351 . S
O355 C358 1.244 . S
O356 Co330 2.155 . S
O356 C358 1.240 . S
O357 Co330 2.096 . S
O357 C338 1.247 . S
C358 O355 1.244 . S
C358 O356 1.240 . S
H359 C333 0.931 . S
H360 C342 0.931 . S
H361 C346 0.929 . S
H362 C348 0.930 . S
Co363 N367 2.148 . S
Co363 N373 2.128 . S
Co363 N383 2.194 . S
Co363 O388 2.351 . S
Co363 O389 2.155 . S
Co363 O390 2.096 . S
C364 N367 1.301 . S
C364 N368 1.328 . S
C364 H369 0.930 . S
C365 C366 1.333 . S
C365 N367 1.317 . S
C365 H370 0.930 . S
C366 C365 1.333 . S
C366 N368 1.350 . S
C366 H392 0.931 . S
N367 Co363 2.148 . S
N367 C364 1.301 . S
N367 C365 1.317 . S
N368 C364 1.328 . S
N368 C366 1.350 . S
H369 C364 0.930 . S
H370 C365 0.930 . S
C371 O372 1.224 . S
C371 O390 1.247 . S
O372 C371 1.224 . S
N373 Co363 2.128 . S
N373 C374 1.355 . S
N373 C376 1.311 . S
C374 N373 1.355 . S
C374 C375 1.363 . S
C374 H386 0.929 . S
C375 C374 1.363 . S
C375 N377 1.375 . S
C375 H393 0.931 . S
C376 N373 1.311 . S
C376 N377 1.347 . S
C376 H387 0.929 . S
N377 C375 1.375 . S
N377 C376 1.347 . S
C378 C381 1.365 . S
C378 N383 1.328 . S
C378 H384 0.929 . S
C379 C380 1.362 . S
C379 C382 1.378 . S
C379 H394 0.929 . S
C380 C379 1.362 . S
C380 C381 1.366 . S
C381 C378 1.365 . S
C381 C380 1.366 . S
C381 H395 0.930 . S
C382 C379 1.378 . S
C382 N383 1.315 . S
C382 H385 0.930 . S
N383 Co363 2.194 . S
N383 C378 1.328 . S
N383 C382 1.315 . S
H384 C378 0.929 . S
H385 C382 0.930 . S
H386 C374 0.929 . S
H387 C376 0.929 . S
O388 Co363 2.351 . S
O388 C391 1.244 . S
O389 Co363 2.155 . S
O389 C391 1.240 . S
O390 Co363 2.096 . S
O390 C371 1.247 . S
C391 O388 1.244 . S
C391 O389 1.240 . S
H392 C366 0.931 . S
H393 C375 0.931 . S
H394 C379 0.929 . S
H395 C381 0.930 . S
Co396 N400 2.148 . S
Co396 N406 2.128 . S
Co396 N416 2.194 . S
Co396 O421 2.351 . S
Co396 O422 2.155 . S
Co396 O423 2.096 . S
C397 N400 1.301 . S
C397 N401 1.328 . S
C397 H402 0.930 . S
C398 C399 1.333 . S
C398 N400 1.317 . S
C398 H403 0.930 . S
C399 C398 1.333 . S
C399 N401 1.350 . S
C399 H425 0.931 . S
N400 Co396 2.148 . S
N400 C397 1.301 . S
N400 C398 1.317 . S
N401 C397 1.328 . S
N401 C399 1.350 . S
H402 C397 0.930 . S
H403 C398 0.930 . S
C404 O405 1.224 . S
C404 O423 1.247 . S
O405 C404 1.224 . S
N406 Co396 2.128 . S
N406 C407 1.355 . S
N406 C409 1.311 . S
C407 N406 1.355 . S
C407 C408 1.363 . S
C407 H419 0.929 . S
C408 C407 1.363 . S
C408 N410 1.375 . S
C408 H426 0.931 . S
C409 N406 1.311 . S
C409 N410 1.347 . S
C409 H420 0.929 . S
N410 C408 1.375 . S
N410 C409 1.347 . S
C411 C414 1.365 . S
C411 N416 1.328 . S
C411 H417 0.929 . S
C412 C413 1.362 . S
C412 C415 1.378 . S
C412 H427 0.929 . S
C413 C412 1.362 . S
C413 C414 1.366 . S
C414 C411 1.365 . S
C414 C413 1.366 . S
C414 H428 0.930 . S
C415 C412 1.378 . S
C415 N416 1.315 . S
C415 H418 0.930 . S
N416 Co396 2.194 . S
N416 C411 1.328 . S
N416 C415 1.315 . S
H417 C411 0.929 . S
H418 C415 0.930 . S
H419 C407 0.929 . S
H420 C409 0.929 . S
O421 Co396 2.351 . S
O421 C424 1.244 . S
O422 Co396 2.155 . S
O422 C424 1.240 . S
O423 Co396 2.096 . S
O423 C404 1.247 . S
C424 O421 1.244 . S
C424 O422 1.240 . S
H425 C399 0.931 . S
H426 C408 0.931 . S
H427 C412 0.929 . S
H428 C414 0.930 . S
Co429 N433 2.148 . S
Co429 N439 2.128 . S
Co429 N449 2.194 . S
Co429 O454 2.351 . S
Co429 O455 2.155 . S
Co429 O456 2.096 . S
C430 N433 1.301 . S
C430 N434 1.328 . S
C430 H435 0.930 . S
C431 C432 1.333 . S
C431 N433 1.317 . S
C431 H436 0.930 . S
C432 C431 1.333 . S
C432 N434 1.350 . S
C432 H458 0.931 . S
N433 Co429 2.148 . S
N433 C430 1.301 . S
N433 C431 1.317 . S
N434 C430 1.328 . S
N434 C432 1.350 . S
H435 C430 0.930 . S
H436 C431 0.930 . S
C437 O438 1.224 . S
C437 O456 1.247 . S
O438 C437 1.224 . S
N439 Co429 2.128 . S
N439 C440 1.355 . S
N439 C442 1.311 . S
C440 N439 1.355 . S
C440 C441 1.363 . S
C440 H452 0.929 . S
C441 C440 1.363 . S
C441 N443 1.375 . S
C441 H459 0.931 . S
C442 N439 1.311 . S
C442 N443 1.347 . S
C442 H453 0.929 . S
N443 C441 1.375 . S
N443 C442 1.347 . S
C444 C447 1.365 . S
C444 N449 1.328 . S
C444 H450 0.929 . S
C445 C446 1.362 . S
C445 C448 1.378 . S
C445 H460 0.929 . S
C446 C445 1.362 . S
C446 C447 1.366 . S
C447 C444 1.365 . S
C447 C446 1.366 . S
C447 H461 0.930 . S
C448 C445 1.378 . S
C448 N449 1.315 . S
C448 H451 0.930 . S
N449 Co429 2.194 . S
N449 C444 1.328 . S
N449 C448 1.315 . S
H450 C444 0.929 . S
H451 C448 0.930 . S
H452 C440 0.929 . S
H453 C442 0.929 . S
O454 Co429 2.351 . S
O454 C457 1.244 . S
O455 Co429 2.155 . S
O455 C457 1.240 . S
O456 Co429 2.096 . S
O456 C437 1.247 . S
C457 O454 1.244 . S
C457 O455 1.240 . S
H458 C432 0.931 . S
H459 C441 0.931 . S
H460 C445 0.929 . S
H461 C447 0.930 . S
Co462 N466 2.148 . S
Co462 N472 2.128 . S
Co462 N482 2.194 . S
Co462 O487 2.351 . S
Co462 O488 2.155 . S
Co462 O489 2.096 . S
C463 N466 1.301 . S
C463 N467 1.328 . S
C463 H468 0.930 . S
C464 C465 1.333 . S
C464 N466 1.317 . S
C464 H469 0.930 . S
C465 C464 1.333 . S
C465 N467 1.350 . S
C465 H491 0.931 . S
N466 Co462 2.148 . S
N466 C463 1.301 . S
N466 C464 1.317 . S
N467 C463 1.328 . S
N467 C465 1.350 . S
H468 C463 0.930 . S
H469 C464 0.930 . S
C470 O471 1.224 . S
C470 O489 1.247 . S
O471 C470 1.224 . S
N472 Co462 2.128 . S
N472 C473 1.355 . S
N472 C475 1.311 . S
C473 N472 1.355 . S
C473 C474 1.363 . S
C473 H485 0.929 . S
C474 C473 1.363 . S
C474 N476 1.375 . S
C474 H492 0.931 . S
C475 N472 1.311 . S
C475 N476 1.347 . S
C475 H486 0.929 . S
N476 C474 1.375 . S
N476 C475 1.347 . S
C477 C480 1.365 . S
C477 N482 1.328 . S
C477 H483 0.929 . S
C478 C479 1.362 . S
C478 C481 1.378 . S
C478 H493 0.929 . S
C479 C478 1.362 . S
C479 C480 1.366 . S
C480 C477 1.365 . S
C480 C479 1.366 . S
C480 H494 0.930 . S
C481 C478 1.378 . S
C481 N482 1.315 . S
C481 H484 0.930 . S
N482 Co462 2.194 . S
N482 C477 1.328 . S
N482 C481 1.315 . S
H483 C477 0.929 . S
H484 C481 0.930 . S
H485 C473 0.929 . S
H486 C475 0.929 . S
O487 Co462 2.351 . S
O487 C490 1.244 . S
O488 Co462 2.155 . S
O488 C490 1.240 . S
O489 Co462 2.096 . S
O489 C470 1.247 . S
C490 O487 1.244 . S
C490 O488 1.240 . S
H491 C465 0.931 . S
H492 C474 0.931 . S
H493 C478 0.929 . S
H494 C480 0.930 . S
Co495 N499 2.148 . S
Co495 N505 2.128 . S
Co495 N515 2.194 . S
Co495 O520 2.351 . S
Co495 O521 2.155 . S
Co495 O522 2.096 . S
C496 N499 1.301 . S
C496 N500 1.328 . S
C496 H501 0.930 . S
C497 C498 1.333 . S
C497 N499 1.317 . S
C497 H502 0.930 . S
C498 C497 1.333 . S
C498 N500 1.350 . S
C498 H524 0.931 . S
N499 Co495 2.148 . S
N499 C496 1.301 . S
N499 C497 1.317 . S
N500 C496 1.328 . S
N500 C498 1.350 . S
H501 C496 0.930 . S
H502 C497 0.930 . S
C503 O504 1.224 . S
C503 O522 1.247 . S
O504 C503 1.224 . S
N505 Co495 2.128 . S
N505 C506 1.355 . S
N505 C508 1.311 . S
C506 N505 1.355 . S
C506 C507 1.363 . S
C506 H518 0.929 . S
C507 C506 1.363 . S
C507 N509 1.375 . S
C507 H525 0.931 . S
C508 N505 1.311 . S
C508 N509 1.347 . S
C508 H519 0.929 . S
N509 C507 1.375 . S
N509 C508 1.347 . S
C510 C513 1.365 . S
C510 N515 1.328 . S
C510 H516 0.929 . S
C511 C512 1.362 . S
C511 C514 1.378 . S
C511 H526 0.929 . S
C512 C511 1.362 . S
C512 C513 1.366 . S
C513 C510 1.365 . S
C513 C512 1.366 . S
C513 H527 0.930 . S
C514 C511 1.378 . S
C514 N515 1.315 . S
C514 H517 0.930 . S
N515 Co495 2.194 . S
N515 C510 1.328 . S
N515 C514 1.315 . S
H516 C510 0.929 . S
H517 C514 0.930 . S
H518 C506 0.929 . S
H519 C508 0.929 . S
O520 Co495 2.351 . S
O520 C523 1.244 . S
O521 Co495 2.155 . S
O521 C523 1.240 . S
O522 Co495 2.096 . S
O522 C503 1.247 . S
C523 O520 1.244 . S
C523 O521 1.240 . S
H524 C498 0.931 . S
H525 C507 0.931 . S
H526 C511 0.929 . S
H527 C513 0.930 . S
C528 C529 1.363 . S
C528 C534 1.379 . S
C528 N536 1.356 . S
C529 C528 1.363 . S
C529 C535 1.363 . S
C530 C531 1.363 . S
C530 C535 1.379 . S
C530 N537 1.356 . S
C531 C530 1.363 . S
C531 C534 1.363 . S
N532 C534 1.356 . S
N532 H544 0.984 . S
N532 H545 0.985 . S
N533 C535 1.356 1_655 S
N533 H538 0.984 . S
N533 H539 0.985 . S
C534 C528 1.379 . S
C534 C531 1.363 . S
C534 N532 1.356 . S
C535 C529 1.363 . S
C535 C530 1.379 . S
C535 N533 1.356 1_455 S
N536 C528 1.356 . S
N536 H542 0.984 . S
N536 H543 0.984 . S
N537 C530 1.356 . S
N537 H540 0.984 . S
N537 H541 0.985 . S
H538 N533 0.984 . S
H539 N533 0.985 . S
H540 N537 0.984 . S
H541 N537 0.985 . S
H542 N536 0.984 . S
H543 N536 0.984 . S
H544 N532 0.984 . S
H545 N532 0.985 . S
C546 C547 1.363 . S
C546 C552 1.379 . S
C546 N554 1.356 . S
C547 C546 1.363 . S
C547 C553 1.363 . S
C548 C549 1.363 . S
C548 C553 1.379 . S
C548 N555 1.356 1_545 S
C549 C548 1.363 . S
C549 C552 1.363 . S
N550 C552 1.356 . S
N550 H562 0.984 . S
N550 H563 0.985 . S
N551 C553 1.356 . S
N551 H556 0.984 . S
N551 H557 0.985 . S
C552 C546 1.379 . S
C552 C549 1.363 . S
C552 N550 1.356 . S
C553 C547 1.363 . S
C553 C548 1.379 . S
C553 N551 1.356 . S
N554 C546 1.356 . S
N554 H560 0.984 . S
N554 H561 0.984 . S
N555 C548 1.356 1_565 S
N555 H558 0.984 . S
N555 H559 0.985 . S
H556 N551 0.984 . S
H557 N551 0.985 . S
H558 N555 0.984 . S
H559 N555 0.985 . S
H560 N554 0.984 . S
H561 N554 0.984 . S
H562 N550 0.984 . S
H563 N550 0.985 . S
C564 C565 1.363 . S
C564 C570 1.379 . S
C564 N572 1.356 . S
C565 C564 1.363 . S
C565 C571 1.363 . S
C566 C567 1.363 . S
C566 C571 1.379 . S
C566 N573 1.356 . S
C567 C566 1.363 . S
C567 C570 1.363 . S
N568 C570 1.356 . S
N568 H580 0.984 . S
N568 H581 0.985 . S
N569 C571 1.356 1_655 S
N569 H574 0.984 . S
N569 H575 0.985 . S
C570 C564 1.379 . S
C570 C567 1.363 . S
C570 N568 1.356 . S
C571 C565 1.363 . S
C571 C566 1.379 . S
C571 N569 1.356 1_455 S
N572 C564 1.356 . S
N572 H578 0.984 . S
N572 H579 0.984 . S
N573 C566 1.356 . S
N573 H576 0.984 . S
N573 H577 0.985 . S
H574 N569 0.984 . S
H575 N569 0.985 . S
H576 N573 0.984 . S
H577 N573 0.985 . S
H578 N572 0.984 . S
H579 N572 0.984 . S
H580 N568 0.984 . S
H581 N568 0.985 . S
C582 C583 1.363 . S
C582 C588 1.379 . S
C582 N590 1.356 1_545 S
C583 C582 1.363 . S
C583 C589 1.363 . S
C584 C585 1.363 . S
C584 C589 1.379 . S
C584 N591 1.356 . S
C585 C584 1.363 . S
C585 C588 1.363 . S
N586 C588 1.356 . S
N586 H598 0.984 1_545 S
N586 H599 0.985 . S
N587 C589 1.356 . S
N587 H592 0.984 . S
N587 H593 0.985 . S
C588 C582 1.379 . S
C588 C585 1.363 . S
C588 N586 1.356 . S
C589 C583 1.363 . S
C589 C584 1.379 . S
C589 N587 1.356 . S
N590 C582 1.356 1_565 S
N590 H596 0.984 . S
N590 H597 0.984 . S
N591 C584 1.356 . S
N591 H594 0.984 . S
N591 H595 0.985 . S
H592 N587 0.984 . S
H593 N587 0.985 . S
H594 N591 0.984 . S
H595 N591 0.985 . S
H596 N590 0.984 . S
H597 N590 0.984 . S
H598 N586 0.984 1_565 S
H599 N586 0.985 . S
C600 C601 1.363 . S
C600 C606 1.379 1_556 S
C600 N608 1.356 . S
C601 C600 1.363 . S
C601 C607 1.363 . S
C602 C603 1.363 . S
C602 C607 1.379 1_554 S
C602 N609 1.356 . S
C603 C602 1.363 . S
C603 C606 1.363 . S
N604 C606 1.356 . S
N604 H616 0.984 . S
N604 H617 0.985 . S
N605 C607 1.356 . S
N605 H610 0.984 . S
N605 H611 0.985 . S
C606 C600 1.379 1_554 S
C606 C603 1.363 . S
C606 N604 1.356 . S
C607 C601 1.363 . S
C607 C602 1.379 1_556 S
C607 N605 1.356 . S
N608 C600 1.356 . S
N608 H614 0.984 . S
N608 H615 0.984 . S
N609 C602 1.356 . S
N609 H612 0.984 . S
N609 H613 0.985 . S
H610 N605 0.984 . S
H611 N605 0.985 . S
H612 N609 0.984 . S
H613 N609 0.985 . S
H614 N608 0.984 . S
H615 N608 0.984 . S
H616 N604 0.984 . S
H617 N604 0.985 . S
C618 C619 1.363 . S
C618 C624 1.379 1_556 S
C618 N626 1.356 . S
C619 C618 1.363 . S
C619 C625 1.363 . S
C620 C621 1.363 . S
C620 C625 1.379 1_554 S
C620 N627 1.356 . S
C621 C620 1.363 . S
C621 C624 1.363 . S
N622 C624 1.356 . S
N622 H634 0.984 . S
N622 H635 0.985 . S
N623 C625 1.356 . S
N623 H628 0.984 . S
N623 H629 0.985 . S
C624 C618 1.379 1_554 S
C624 C621 1.363 . S
C624 N622 1.356 . S
C625 C619 1.363 . S
C625 C620 1.379 1_556 S
C625 N623 1.356 . S
N626 C618 1.356 . S
N626 H632 0.984 . S
N626 H633 0.984 . S
N627 C620 1.356 . S
N627 H630 0.984 . S
N627 H631 0.985 . S
H628 N623 0.984 . S
H629 N623 0.985 . S
H630 N627 0.984 . S
H631 N627 0.985 . S
H632 N626 0.984 . S
H633 N626 0.984 . S
H634 N622 0.984 . S
H635 N622 0.985 . S
C636 C637 1.363 . S
C636 C642 1.379 1_556 S
C636 N644 1.356 . S
C637 C636 1.363 . S
C637 C643 1.363 . S
C638 C639 1.363 . S
C638 C643 1.379 1_554 S
C638 N645 1.356 . S
C639 C638 1.363 . S
C639 C642 1.363 . S
N640 C642 1.356 . S
N640 H652 0.984 . S
N640 H653 0.985 . S
N641 C643 1.356 . S
N641 H646 0.984 . S
N641 H647 0.985 . S
C642 C636 1.379 1_554 S
C642 C639 1.363 . S
C642 N640 1.356 . S
C643 C637 1.363 . S
C643 C638 1.379 1_556 S
C643 N641 1.356 . S
N644 C636 1.356 . S
N644 H650 0.984 . S
N644 H651 0.984 . S
N645 C638 1.356 . S
N645 H648 0.984 . S
N645 H649 0.985 . S
H646 N641 0.984 . S
H647 N641 0.985 . S
H648 N645 0.984 . S
H649 N645 0.985 . S
H650 N644 0.984 . S
H651 N644 0.984 . S
H652 N640 0.984 . S
H653 N640 0.985 . S
C654 C655 1.363 . S
C654 C660 1.379 1_554 S
C654 N662 1.356 . S
C655 C654 1.363 . S
C655 C661 1.363 . S
C656 C657 1.363 . S
C656 C661 1.379 1_556 S
C656 N663 1.356 . S
C657 C656 1.363 . S
C657 C660 1.363 . S
N658 C660 1.356 . S
N658 H670 0.984 . S
N658 H671 0.985 . S
N659 C661 1.356 . S
N659 H664 0.984 . S
N659 H665 0.985 . S
C660 C654 1.379 1_556 S
C660 C657 1.363 . S
C660 N658 1.356 . S
C661 C655 1.363 . S
C661 C656 1.379 1_554 S
C661 N659 1.356 . S
N662 C654 1.356 . S
N662 H668 0.984 . S
N662 H669 0.984 . S
N663 C656 1.356 . S
N663 H666 0.984 . S
N663 H667 0.985 . S
H664 N659 0.984 . S
H665 N659 0.985 . S
H666 N663 0.984 . S
H667 N663 0.985 . S
H668 N662 0.984 . S
H669 N662 0.984 . S
H670 N658 0.984 . S
H671 N658 0.985 . S
C672 C673 1.363 . S
C672 C678 1.379 . S
C672 N680 1.356 . S
C673 C672 1.363 . S
C673 C679 1.363 . S
C674 C675 1.363 . S
C674 C679 1.379 . S
C674 N681 1.356 . S
C675 C674 1.363 . S
C675 C678 1.363 . S
N676 C678 1.356 . S
N676 H688 0.984 . S
N676 H689 0.985 . S
N677 C679 1.356 . S
N677 H682 0.984 . S
N677 H683 0.985 . S
C678 C672 1.379 . S
C678 C675 1.363 . S
C678 N676 1.356 . S
C679 C673 1.363 . S
C679 C674 1.379 . S
C679 N677 1.356 . S
N680 C672 1.356 . S
N680 H686 0.984 . S
N680 H687 0.984 . S
N681 C674 1.356 . S
N681 H684 0.984 . S
N681 H685 0.985 . S
H682 N677 0.984 . S
H683 N677 0.985 . S
H684 N681 0.984 . S
H685 N681 0.985 . S
H686 N680 0.984 . S
H687 N680 0.984 . S
H688 N676 0.984 . S
H689 N676 0.985 . S
C690 C691 1.363 . S
C690 C696 1.379 . S
C690 N698 1.356 . S
C691 C690 1.363 . S
C691 C697 1.363 . S
C692 C693 1.363 . S
C692 C697 1.379 . S
C692 N699 1.356 . S
C693 C692 1.363 . S
C693 C696 1.363 . S
N694 C696 1.356 . S
N694 H706 0.984 . S
N694 H707 0.985 . S
N695 C697 1.356 . S
N695 H700 0.984 . S
N695 H701 0.985 . S
C696 C690 1.379 . S
C696 C693 1.363 . S
C696 N694 1.356 . S
C697 C691 1.363 . S
C697 C692 1.379 . S
C697 N695 1.356 . S
N698 C690 1.356 . S
N698 H704 0.984 . S
N698 H705 0.984 . S
N699 C692 1.356 . S
N699 H702 0.984 . S
N699 H703 0.985 . S
H700 N695 0.984 . S
H701 N695 0.985 . S
H702 N699 0.984 . S
H703 N699 0.985 . S
H704 N698 0.984 . S
H705 N698 0.984 . S
H706 N694 0.984 . S
H707 N694 0.985 . S
C708 C709 1.363 . S
C708 C714 1.379 . S
C708 N716 1.356 . S
C709 C708 1.363 . S
C709 C715 1.363 . S
C710 C711 1.363 . S
C710 C715 1.379 . S
C710 N717 1.356 . S
C711 C710 1.363 . S
C711 C714 1.363 . S
N712 C714 1.356 1_455 S
N712 H724 0.984 . S
N712 H725 0.985 . S
N713 C715 1.356 . S
N713 H718 0.984 . S
N713 H719 0.985 . S
C714 C708 1.379 . S
C714 C711 1.363 . S
C714 N712 1.356 1_655 S
C715 C709 1.363 . S
C715 C710 1.379 . S
C715 N713 1.356 . S
N716 C708 1.356 . S
N716 H722 0.984 . S
N716 H723 0.984 . S
N717 C710 1.356 . S
N717 H720 0.984 . S
N717 H721 0.985 . S
H718 N713 0.984 . S
H719 N713 0.985 . S
H720 N717 0.984 . S
H721 N717 0.985 . S
H722 N716 0.984 . S
H723 N716 0.984 . S
H724 N712 0.984 . S
H725 N712 0.985 . S
C726 C727 1.363 . S
C726 C732 1.379 . S
C726 N734 1.356 1_565 S
C727 C726 1.363 . S
C727 C733 1.363 . S
C728 C729 1.363 . S
C728 C733 1.379 . S
C728 N735 1.356 . S
C729 C728 1.363 . S
C729 C732 1.363 . S
N730 C732 1.356 . S
N730 H742 0.984 . S
N730 H743 0.985 . S
N731 C733 1.356 . S
N731 H736 0.984 1_565 S
N731 H737 0.985 . S
C732 C726 1.379 . S
C732 C729 1.363 . S
C732 N730 1.356 . S
C733 C727 1.363 . S
C733 C728 1.379 . S
C733 N731 1.356 . S
N734 C726 1.356 1_545 S
N734 H740 0.984 . S
N734 H741 0.984 . S
N735 C728 1.356 . S
N735 H738 0.984 . S
N735 H739 0.985 . S
H736 N731 0.984 1_545 S
H737 N731 0.985 . S
H738 N735 0.984 . S
H739 N735 0.985 . S
H740 N734 0.984 . S
H741 N734 0.984 . S
H742 N730 0.984 . S
H743 N730 0.985 . S
C744 C745 1.363 . S
C744 C750 1.379 . S
C744 N752 1.356 . S
C745 C744 1.363 . S
C745 C751 1.363 . S
C746 C747 1.363 . S
C746 C751 1.379 . S
C746 N753 1.356 . S
C747 C746 1.363 . S
C747 C750 1.363 . S
N748 C750 1.356 . S
N748 H760 0.984 . S
N748 H761 0.985 . S
N749 C751 1.356 . S
N749 H754 0.984 . S
N749 H755 0.985 . S
C750 C744 1.379 . S
C750 C747 1.363 . S
C750 N748 1.356 . S
C751 C745 1.363 . S
C751 C746 1.379 . S
C751 N749 1.356 . S
N752 C744 1.356 . S
N752 H758 0.984 . S
N752 H759 0.984 . S
N753 C746 1.356 . S
N753 H756 0.984 . S
N753 H757 0.985 . S
H754 N749 0.984 . S
H755 N749 0.985 . S
H756 N753 0.984 . S
H757 N753 0.985 . S
H758 N752 0.984 . S
H759 N752 0.984 . S
H760 N748 0.984 . S
H761 N748 0.985 . S
C762 C763 1.363 . S
C762 C768 1.379 . S
C762 N770 1.356 . S
C763 C762 1.363 . S
C763 C769 1.363 . S
C764 C765 1.363 . S
C764 C769 1.379 . S
C764 N771 1.356 . S
C765 C764 1.363 . S
C765 C768 1.363 . S
N766 C768 1.356 . S
N766 H778 0.984 . S
N766 H779 0.985 . S
N767 C769 1.356 . S
N767 H772 0.984 . S
N767 H773 0.985 . S
C768 C762 1.379 . S
C768 C765 1.363 . S
C768 N766 1.356 . S
C769 C763 1.363 . S
C769 C764 1.379 . S
C769 N767 1.356 . S
N770 C762 1.356 . S
N770 H776 0.984 . S
N770 H777 0.984 . S
N771 C764 1.356 . S
N771 H774 0.984 . S
N771 H775 0.985 . S
H772 N767 0.984 . S
H773 N767 0.985 . S
H774 N771 0.984 . S
H775 N771 0.985 . S
H776 N770 0.984 . S
H777 N770 0.984 . S
H778 N766 0.984 . S
H779 N766 0.985 . S
C780 C781 1.363 . S
C780 C786 1.379 . S
C780 N788 1.356 . S
C781 C780 1.363 . S
C781 C787 1.363 . S
C782 C783 1.363 . S
C782 C787 1.379 . S
C782 N789 1.356 1_655 S
C783 C782 1.363 . S
C783 C786 1.363 . S
N784 C786 1.356 . S
N784 H796 0.984 . S
N784 H797 0.985 . S
N785 C787 1.356 . S
N785 H790 0.984 . S
N785 H791 0.985 . S
C786 C780 1.379 . S
C786 C783 1.363 . S
C786 N784 1.356 . S
C787 C781 1.363 . S
C787 C782 1.379 . S
C787 N785 1.356 . S
N788 C780 1.356 . S
N788 H794 0.984 . S
N788 H795 0.984 . S
N789 C782 1.356 1_455 S
N789 H792 0.984 . S
N789 H793 0.985 . S
H790 N785 0.984 . S
H791 N785 0.985 . S
H792 N789 0.984 . S
H793 N789 0.985 . S
H794 N788 0.984 . S
H795 N788 0.984 . S
H796 N784 0.984 . S
H797 N784 0.985 . S
C798 C799 1.363 . S
C798 C804 1.379 . S
C798 N806 1.356 . S
C799 C798 1.363 . S
C799 C805 1.363 . S
C800 C801 1.363 . S
C800 C805 1.379 . S
C800 N807 1.356 . S
C801 C800 1.363 . S
C801 C804 1.363 . S
N802 C804 1.356 1_545 S
N802 H814 0.984 . S
N802 H815 0.985 . S
N803 C805 1.356 . S
N803 H808 0.984 . S
N803 H809 0.985 . S
C804 C798 1.379 . S
C804 C801 1.363 . S
C804 N802 1.356 1_565 S
C805 C799 1.363 . S
C805 C800 1.379 . S
C805 N803 1.356 . S
N806 C798 1.356 . S
N806 H812 0.984 . S
N806 H813 0.984 . S
N807 C800 1.356 . S
N807 H810 0.984 1_565 S
N807 H811 0.985 . S
H808 N803 0.984 . S
H809 N803 0.985 . S
H810 N807 0.984 1_545 S
H811 N807 0.985 . S
H812 N806 0.984 . S
H813 N806 0.984 . S
H814 N802 0.984 . S
H815 N802 0.985 . S
C816 C817 1.363 . S
C816 C822 1.379 . S
C816 N824 1.356 . S
C817 C816 1.363 . S
C817 C823 1.363 . S
C818 C819 1.363 . S
C818 C823 1.379 . S
C818 N825 1.356 . S
C819 C818 1.363 . S
C819 C822 1.363 . S
N820 C822 1.356 . S
N820 H832 0.984 . S
N820 H833 0.985 . S
N821 C823 1.356 . S
N821 H826 0.984 . S
N821 H827 0.985 . S
C822 C816 1.379 . S
C822 C819 1.363 . S
C822 N820 1.356 . S
C823 C817 1.363 . S
C823 C818 1.379 . S
C823 N821 1.356 . S
N824 C816 1.356 . S
N824 H830 0.984 . S
N824 H831 0.984 . S
N825 C818 1.356 . S
N825 H828 0.984 . S
N825 H829 0.985 . S
H826 N821 0.984 . S
H827 N821 0.985 . S
H828 N825 0.984 . S
H829 N825 0.985 . S
H830 N824 0.984 . S
H831 N824 0.984 . S
H832 N820 0.984 . S
H833 N820 0.985 . S
C834 C835 1.363 . S
C834 C840 1.379 . S
C834 N842 1.356 . S
C835 C834 1.363 . S
C835 C841 1.363 . S
C836 C837 1.363 . S
C836 C841 1.379 . S
C836 N843 1.356 . S
C837 C836 1.363 . S
C837 C840 1.363 . S
N838 C840 1.356 . S
N838 H850 0.984 . S
N838 H851 0.985 . S
N839 C841 1.356 . S
N839 H844 0.984 . S
N839 H845 0.985 . S
C840 C834 1.379 . S
C840 C837 1.363 . S
C840 N838 1.356 . S
C841 C835 1.363 . S
C841 C836 1.379 . S
C841 N839 1.356 . S
N842 C834 1.356 . S
N842 H848 0.984 . S
N842 H849 0.984 . S
N843 C836 1.356 . S
N843 H846 0.984 . S
N843 H847 0.985 . S
H844 N839 0.984 . S
H845 N839 0.985 . S
H846 N843 0.984 . S
H847 N843 0.985 . S
H848 N842 0.984 . S
H849 N842 0.984 . S
H850 N838 0.984 . S
H851 N838 0.985 . S
C852 C853 1.363 . S
C852 C858 1.379 . S
C852 N860 1.356 . S
C853 C852 1.363 . S
C853 C859 1.363 . S
C854 C855 1.363 . S
C854 C859 1.379 . S
C854 N861 1.356 . S
C855 C854 1.363 . S
C855 C858 1.363 . S
N856 C858 1.356 . S
N856 H868 0.984 . S
N856 H869 0.985 . S
N857 C859 1.356 . S
N857 H862 0.984 . S
N857 H863 0.985 . S
C858 C852 1.379 . S
C858 C855 1.363 . S
C858 N856 1.356 . S
C859 C853 1.363 . S
C859 C854 1.379 . S
C859 N857 1.356 . S
N860 C852 1.356 . S
N860 H866 0.984 . S
N860 H867 0.984 . S
N861 C854 1.356 . S
N861 H864 0.984 . S
N861 H865 0.985 . S
H862 N857 0.984 . S
H863 N857 0.985 . S
H864 N861 0.984 . S
H865 N861 0.985 . S
H866 N860 0.984 . S
H867 N860 0.984 . S
H868 N856 0.984 . S
H869 N856 0.985 . S
C870 C871 1.363 . S
C870 C876 1.379 . S
C870 N878 1.356 . S
C871 C870 1.363 . S
C871 C877 1.363 . S
C872 C873 1.363 . S
C872 C877 1.379 . S
C872 N879 1.356 . S
C873 C872 1.363 . S
C873 C876 1.363 . S
N874 C876 1.356 . S
N874 H886 0.984 . S
N874 H887 0.985 . S
N875 C877 1.356 . S
N875 H880 0.984 . S
N875 H881 0.985 . S
C876 C870 1.379 . S
C876 C873 1.363 . S
C876 N874 1.356 . S
C877 C871 1.363 . S
C877 C872 1.379 . S
C877 N875 1.356 . S
N878 C870 1.356 . S
N878 H884 0.984 . S
N878 H885 0.984 . S
N879 C872 1.356 . S
N879 H882 0.984 . S
N879 H883 0.985 . S
H880 N875 0.984 . S
H881 N875 0.985 . S
H882 N879 0.984 . S
H883 N879 0.985 . S
H884 N878 0.984 . S
H885 N878 0.984 . S
H886 N874 0.984 . S
H887 N874 0.985 . S
C888 C889 1.363 . S
C888 C894 1.379 . S
C888 N896 1.356 . S
C889 C888 1.363 . S
C889 C895 1.363 . S
C890 C891 1.363 . S
C890 C895 1.379 . S
C890 N897 1.356 . S
C891 C890 1.363 . S
C891 C894 1.363 . S
N892 C894 1.356 . S
N892 H904 0.984 . S
N892 H905 0.985 . S
N893 C895 1.356 . S
N893 H898 0.984 . S
N893 H899 0.985 . S
C894 C888 1.379 . S
C894 C891 1.363 . S
C894 N892 1.356 . S
C895 C889 1.363 . S
C895 C890 1.379 . S
C895 N893 1.356 . S
N896 C888 1.356 . S
N896 H902 0.984 . S
N896 H903 0.984 . S
N897 C890 1.356 . S
N897 H900 0.984 . S
N897 H901 0.985 . S
H898 N893 0.984 . S
H899 N893 0.985 . S
H900 N897 0.984 . S
H901 N897 0.985 . S
H902 N896 0.984 . S
H903 N896 0.984 . S
H904 N892 0.984 . S
H905 N892 0.985 . S
C906 C907 1.363 . S
C906 C912 1.379 . S
C906 N914 1.356 . S
C907 C906 1.363 . S
C907 C913 1.363 . S
C908 C909 1.363 . S
C908 C913 1.379 . S
C908 N915 1.356 . S
C909 C908 1.363 . S
C909 C912 1.363 . S
N910 C912 1.356 . S
N910 H922 0.984 . S
N910 H923 0.985 . S
N911 C913 1.356 . S
N911 H916 0.984 . S
N911 H917 0.985 . S
C912 C906 1.379 . S
C912 C909 1.363 . S
C912 N910 1.356 . S
C913 C907 1.363 . S
C913 C908 1.379 . S
C913 N911 1.356 . S
N914 C906 1.356 . S
N914 H920 0.984 . S
N914 H921 0.984 . S
N915 C908 1.356 . S
N915 H918 0.984 . S
N915 H919 0.985 . S
H916 N911 0.984 . S
H917 N911 0.985 . S
H918 N915 0.984 . S
H919 N915 0.985 . S
H920 N914 0.984 . S
H921 N914 0.984 . S
H922 N910 0.984 . S
H923 N910 0.985 . S
C924 C925 1.363 . S
C924 C930 1.379 . S
C924 N932 1.356 . S
C925 C924 1.363 . S
C925 C931 1.363 . S
C926 C927 1.363 . S
C926 C931 1.379 . S
C926 N933 1.356 . S
C927 C926 1.363 . S
C927 C930 1.363 . S
N928 C930 1.356 . S
N928 H940 0.984 . S
N928 H941 0.985 . S
N929 C931 1.356 . S
N929 H934 0.984 . S
N929 H935 0.985 . S
C930 C924 1.379 . S
C930 C927 1.363 . S
C930 N928 1.356 . S
C931 C925 1.363 . S
C931 C926 1.379 . S
C931 N929 1.356 . S
N932 C924 1.356 . S
N932 H938 0.984 . S
N932 H939 0.984 . S
N933 C926 1.356 . S
N933 H936 0.984 . S
N933 H937 0.985 . S
H934 N929 0.984 . S
H935 N929 0.985 . S
H936 N933 0.984 . S
H937 N933 0.985 . S
H938 N932 0.984 . S
H939 N932 0.984 . S
H940 N928 0.984 . S
H941 N928 0.985 . S
C942 C943 1.363 . S
C942 C948 1.379 . S
C942 N950 1.356 . S
C943 C942 1.363 . S
C943 C949 1.363 . S
C944 C945 1.363 . S
C944 C949 1.379 . S
C944 N951 1.356 . S
C945 C944 1.363 . S
C945 C948 1.363 . S
N946 C948 1.356 . S
N946 H958 0.984 . S
N946 H959 0.985 . S
N947 C949 1.356 . S
N947 H952 0.984 . S
N947 H953 0.985 . S
C948 C942 1.379 . S
C948 C945 1.363 . S
C948 N946 1.356 . S
C949 C943 1.363 . S
C949 C944 1.379 . S
C949 N947 1.356 . S
N950 C942 1.356 . S
N950 H956 0.984 . S
N950 H957 0.984 . S
N951 C944 1.356 . S
N951 H954 0.984 . S
N951 H955 0.985 . S
H952 N947 0.984 . S
H953 N947 0.985 . S
H954 N951 0.984 . S
H955 N951 0.985 . S
H956 N950 0.984 . S
H957 N950 0.984 . S
H958 N946 0.984 . S
H959 N946 0.985 . S
C960 C961 1.363 . S
C960 C966 1.379 . S
C960 N968 1.356 . S
C961 C960 1.363 . S
C961 C967 1.363 . S
C962 C963 1.363 . S
C962 C967 1.379 . S
C962 N969 1.356 . S
C963 C962 1.363 . S
C963 C966 1.363 . S
N964 C966 1.356 . S
N964 H976 0.984 . S
N964 H977 0.985 . S
N965 C967 1.356 . S
N965 H970 0.984 . S
N965 H971 0.985 . S
C966 C960 1.379 . S
C966 C963 1.363 . S
C966 N964 1.356 . S
C967 C961 1.363 . S
C967 C962 1.379 . S
C967 N965 1.356 . S
N968 C960 1.356 . S
N968 H974 0.984 . S
N968 H975 0.984 . S
N969 C962 1.356 . S
N969 H972 0.984 . S
N969 H973 0.985 . S
H970 N965 0.984 . S
H971 N965 0.985 . S
H972 N969 0.984 . S
H973 N969 0.985 . S
H974 N968 0.984 . S
H975 N968 0.984 . S
H976 N964 0.984 . S
H977 N964 0.985 . S
C978 C979 1.363 . S
C978 C984 1.379 . S
C978 N986 1.356 . S
C979 C978 1.363 . S
C979 C985 1.363 . S
C980 C981 1.363 . S
C980 C985 1.379 . S
C980 N987 1.356 . S
C981 C980 1.363 . S
C981 C984 1.363 . S
N982 C984 1.356 . S
N982 H994 0.984 . S
N982 H995 0.985 . S
N983 C985 1.356 . S
N983 H988 0.984 . S
N983 H989 0.985 . S
C984 C978 1.379 . S
C984 C981 1.363 . S
C984 N982 1.356 . S
C985 C979 1.363 . S
C985 C980 1.379 . S
C985 N983 1.356 . S
N986 C978 1.356 . S
N986 H992 0.984 . S
N986 H993 0.984 . S
N987 C980 1.356 . S
N987 H990 0.984 . S
N987 H991 0.985 . S
H988 N983 0.984 . S
H989 N983 0.985 . S
H990 N987 0.984 . S
H991 N987 0.985 . S
H992 N986 0.984 . S
H993 N986 0.984 . S
H994 N982 0.984 . S
H995 N982 0.985 . S
C996 C997 1.363 . S
C996 C1002 1.379 . S
C996 N1004 1.356 . S
C997 C996 1.363 . S
C997 C1003 1.363 . S
C998 C999 1.363 . S
C998 C1003 1.379 . S
C998 N1005 1.356 . S
C999 C998 1.363 . S
C999 C1002 1.363 . S
N1000 C1002 1.356 . S
N1000 H1012 0.984 . S
N1000 H1013 0.985 . S
N1001 C1003 1.356 . S
N1001 H1006 0.984 . S
N1001 H1007 0.985 . S
C1002 C996 1.379 . S
C1002 C999 1.363 . S
C1002 N1000 1.356 . S
C1003 C997 1.363 . S
C1003 C998 1.379 . S
C1003 N1001 1.356 . S
N1004 C996 1.356 . S
N1004 H1010 0.984 . S
N1004 H1011 0.984 . S
N1005 C998 1.356 . S
N1005 H1008 0.999 . S
N1005 H1009 0.985 . S
H1006 N1001 0.984 . S
H1007 N1001 0.985 . S
H1008 N1005 0.999 . S
H1009 N1005 0.985 . S
H1010 N1004 0.984 . S
H1011 N1004 0.984 . S
H1012 N1000 0.984 . S
H1013 N1000 0.985 . S
C1014 C1015 1.363 . S
C1014 C1020 1.379 . S
C1014 N1022 1.356 1_565 S
C1015 C1014 1.363 . S
C1015 C1021 1.363 . S
C1016 C1017 1.363 . S
C1016 C1021 1.379 . S
C1016 N1023 1.356 . S
C1017 C1016 1.363 . S
C1017 C1020 1.363 . S
N1018 C1020 1.356 . S
N1018 H1030 0.984 1_565 S
N1018 H1031 0.985 . S
N1019 C1021 1.356 . S
N1019 H1024 0.984 . S
N1019 H1025 0.985 . S
C1020 C1014 1.379 . S
C1020 C1017 1.363 . S
C1020 N1018 1.356 . S
C1021 C1015 1.363 . S
C1021 C1016 1.379 . S
C1021 N1019 1.356 . S
N1022 C1014 1.356 1_545 S
N1022 H1028 0.984 . S
N1022 H1029 0.984 . S
N1023 C1016 1.356 . S
N1023 H1026 0.984 . S
N1023 H1027 0.985 . S
H1024 N1019 0.984 . S
H1025 N1019 0.985 . S
H1026 N1023 0.984 . S
H1027 N1023 0.985 . S
H1028 N1022 0.984 . S
H1029 N1022 0.984 . S
H1030 N1018 0.984 1_545 S
H1031 N1018 0.985 . S
C1032 C1033 1.363 . S
C1032 C1038 1.379 . S
C1032 N1040 1.356 . S
C1033 C1032 1.363 . S
C1033 C1039 1.363 . S
C1034 C1035 1.363 . S
C1034 C1039 1.379 . S
C1034 N1041 1.356 . S
C1035 C1034 1.363 . S
C1035 C1038 1.363 . S
N1036 C1038 1.356 . S
N1036 H1048 0.984 . S
N1036 H1049 0.985 . S
N1037 C1039 1.356 . S
N1037 H1042 0.984 . S
N1037 H1043 0.985 . S
C1038 C1032 1.379 . S
C1038 C1035 1.363 . S
C1038 N1036 1.356 . S
C1039 C1033 1.363 . S
C1039 C1034 1.379 . S
C1039 N1037 1.356 . S
N1040 C1032 1.356 . S
N1040 H1046 0.984 . S
N1040 H1047 0.984 . S
N1041 C1034 1.356 . S
N1041 H1044 0.984 . S
N1041 H1045 0.985 . S
H1042 N1037 0.984 . S
H1043 N1037 0.985 . S
H1044 N1041 0.984 . S
H1045 N1041 0.985 . S
H1046 N1040 0.984 . S
H1047 N1040 0.984 . S
H1048 N1036 0.984 . S
H1049 N1036 0.985 . S
C1050 C1051 1.363 . S
C1050 C1056 1.379 . S
C1050 N1058 1.356 . S
C1051 C1050 1.363 . S
C1051 C1057 1.363 . S
C1052 C1053 1.363 . S
C1052 C1057 1.379 . S
C1052 N1059 1.356 . S
C1053 C1052 1.363 . S
C1053 C1056 1.363 . S
N1054 C1056 1.356 . S
N1054 H1066 0.984 . S
N1054 H1067 0.985 . S
N1055 C1057 1.356 . S
N1055 H1060 0.984 . S
N1055 H1061 0.985 . S
C1056 C1050 1.379 . S
C1056 C1053 1.363 . S
C1056 N1054 1.356 . S
C1057 C1051 1.363 . S
C1057 C1052 1.379 . S
C1057 N1055 1.356 . S
N1058 C1050 1.356 . S
N1058 H1064 0.984 . S
N1058 H1065 0.984 . S
N1059 C1052 1.356 . S
N1059 H1062 0.984 . S
N1059 H1063 0.985 . S
H1060 N1055 0.984 . S
H1061 N1055 0.985 . S
H1062 N1059 0.984 . S
H1063 N1059 0.985 . S
H1064 N1058 0.984 . S
H1065 N1058 0.984 . S
H1066 N1054 0.984 . S
H1067 N1054 0.985 . S
C1068 C1069 1.363 . S
C1068 C1074 1.379 . S
C1068 N1076 1.356 . S
C1069 C1068 1.363 . S
C1069 C1075 1.363 . S
C1070 C1071 1.363 . S
C1070 C1075 1.379 . S
C1070 N1077 1.356 . S
C1071 C1070 1.363 . S
C1071 C1074 1.363 . S
N1072 C1074 1.356 . S
N1072 H1084 0.984 . S
N1072 H1085 0.985 . S
N1073 C1075 1.356 . S
N1073 H1078 0.984 1_655 S
N1073 H1079 0.985 1_655 S
C1074 C1068 1.379 . S
C1074 C1071 1.363 . S
C1074 N1072 1.356 . S
C1075 C1069 1.363 . S
C1075 C1070 1.379 . S
C1075 N1073 1.356 . S
N1076 C1068 1.356 . S
N1076 H1082 0.984 . S
N1076 H1083 0.984 . S
N1077 C1070 1.356 . S
N1077 H1080 0.984 . S
N1077 H1081 0.985 . S
H1078 N1073 0.984 1_455 S
H1079 N1073 0.985 1_455 S
H1080 N1077 0.984 . S
H1081 N1077 0.985 . S
H1082 N1076 0.984 . S
H1083 N1076 0.984 . S
H1084 N1072 0.984 . S
H1085 N1072 0.985 . S
C1086 C1087 1.363 . S
C1086 C1092 1.379 . S
C1086 N1094 1.356 . S
C1087 C1086 1.363 . S
C1087 C1093 1.363 . S
C1088 C1089 1.363 . S
C1088 C1093 1.379 . S
C1088 N1095 1.356 . S
C1089 C1088 1.363 . S
C1089 C1092 1.363 . S
N1090 C1092 1.356 1_545 S
N1090 H1102 0.984 . S
N1090 H1103 0.985 . S
N1091 C1093 1.356 . S
N1091 H1096 0.984 . S
N1091 H1097 0.985 . S
C1092 C1086 1.379 . S
C1092 C1089 1.363 . S
C1092 N1090 1.356 1_565 S
C1093 C1087 1.363 . S
C1093 C1088 1.379 . S
C1093 N1091 1.356 . S
N1094 C1086 1.356 . S
N1094 H1100 0.984 . S
N1094 H1101 0.984 . S
N1095 C1088 1.356 . S
N1095 H1098 0.984 . S
N1095 H1099 0.985 . S
H1096 N1091 0.984 . S
H1097 N1091 0.985 . S
H1098 N1095 0.984 . S
H1099 N1095 0.985 . S
H1100 N1094 0.984 . S
H1101 N1094 0.984 . S
H1102 N1090 0.984 . S
H1103 N1090 0.985 . S
C1104 C1105 1.363 . S
C1104 C1110 1.379 . S
C1104 N1112 1.356 . S
C1105 C1104 1.363 . S
C1105 C1111 1.363 . S
C1106 C1107 1.363 . S
C1106 C1111 1.379 . S
C1106 N1113 1.356 . S
C1107 C1106 1.363 . S
C1107 C1110 1.363 . S
N1108 C1110 1.356 . S
N1108 H1120 0.984 . S
N1108 H1121 0.985 . S
N1109 C1111 1.356 . S
N1109 H1114 0.984 . S
N1109 H1115 0.985 . S
C1110 C1104 1.379 . S
C1110 C1107 1.363 . S
C1110 N1108 1.356 . S
C1111 C1105 1.363 . S
C1111 C1106 1.379 . S
C1111 N1109 1.356 . S
N1112 C1104 1.356 . S
N1112 H1118 0.984 . S
N1112 H1119 0.984 . S
N1113 C1106 1.356 . S
N1113 H1116 0.984 . S
N1113 H1117 0.985 . S
H1114 N1109 0.984 . S
H1115 N1109 0.985 . S
H1116 N1113 0.984 . S
H1117 N1113 0.985 . S
H1118 N1112 0.984 . S
H1119 N1112 0.984 . S
H1120 N1108 0.984 . S
H1121 N1108 0.985 . S
C1122 C1123 1.363 . S
C1122 C1128 1.379 . S
C1122 N1130 1.356 . S
C1123 C1122 1.363 . S
C1123 C1129 1.363 . S
C1124 C1125 1.363 . S
C1124 C1129 1.379 . S
C1124 N1131 1.356 . S
C1125 C1124 1.363 . S
C1125 C1128 1.363 . S
N1126 C1128 1.356 . S
N1126 H1138 0.984 . S
N1126 H1139 0.985 . S
N1127 C1129 1.356 . S
N1127 H1132 0.984 . S
N1127 H1133 0.985 . S
C1128 C1122 1.379 . S
C1128 C1125 1.363 . S
C1128 N1126 1.356 . S
C1129 C1123 1.363 . S
C1129 C1124 1.379 . S
C1129 N1127 1.356 . S
N1130 C1122 1.356 . S
N1130 H1136 0.984 . S
N1130 H1137 0.984 . S
N1131 C1124 1.356 . S
N1131 H1134 0.984 . S
N1131 H1135 0.985 . S
H1132 N1127 0.984 . S
H1133 N1127 0.985 . S
H1134 N1131 0.984 . S
H1135 N1131 0.985 . S
H1136 N1130 0.984 . S
H1137 N1130 0.984 . S
H1138 N1126 0.984 . S
H1139 N1126 0.985 . S
C1140 C1141 1.363 . S
C1140 C1146 1.379 . S
C1140 N1148 1.356 . S
C1141 C1140 1.363 . S
C1141 C1147 1.363 . S
C1142 C1143 1.363 . S
C1142 C1147 1.379 . S
C1142 N1149 1.356 . S
C1143 C1142 1.363 . S
C1143 C1146 1.363 . S
N1144 C1146 1.356 . S
N1144 H1156 0.984 . S
N1144 H1157 0.985 . S
N1145 C1147 1.356 . S
N1145 H1150 0.984 . S
N1145 H1151 0.985 . S
C1146 C1140 1.379 . S
C1146 C1143 1.363 . S
C1146 N1144 1.356 . S
C1147 C1141 1.363 . S
C1147 C1142 1.379 . S
C1147 N1145 1.356 . S
N1148 C1140 1.356 . S
N1148 H1154 0.984 . S
N1148 H1155 0.984 . S
N1149 C1142 1.356 . S
N1149 H1152 0.984 . S
N1149 H1153 0.985 . S
H1150 N1145 0.984 . S
H1151 N1145 0.985 . S
H1152 N1149 0.984 . S
H1153 N1149 0.985 . S
H1154 N1148 0.984 . S
H1155 N1148 0.984 . S
H1156 N1144 0.984 . S
H1157 N1144 0.985 . S
C1158 C1159 1.363 . S
C1158 C1164 1.379 . S
C1158 N1166 1.356 . S
C1159 C1158 1.363 . S
C1159 C1165 1.363 . S
C1160 C1161 1.363 . S
C1160 C1165 1.379 . S
C1160 N1167 1.356 . S
C1161 C1160 1.363 . S
C1161 C1164 1.363 . S
N1162 C1164 1.356 . S
N1162 H1174 0.984 . S
N1162 H1175 0.985 . S
N1163 C1165 1.356 . S
N1163 H1168 0.984 . S
N1163 H1169 0.985 . S
C1164 C1158 1.379 . S
C1164 C1161 1.363 . S
C1164 N1162 1.356 . S
C1165 C1159 1.363 . S
C1165 C1160 1.379 . S
C1165 N1163 1.356 . S
N1166 C1158 1.356 . S
N1166 H1172 0.984 . S
N1166 H1173 0.984 . S
N1167 C1160 1.356 . S
N1167 H1170 0.984 . S
N1167 H1171 0.985 . S
H1168 N1163 0.984 . S
H1169 N1163 0.985 . S
H1170 N1167 0.984 . S
H1171 N1167 0.985 . S
H1172 N1166 0.984 . S
H1173 N1166 0.984 . S
H1174 N1162 0.984 . S
H1175 N1162 0.985 . S
C1176 C1177 1.363 . S
C1176 C1182 1.379 . S
C1176 N1184 1.356 . S
C1177 C1176 1.363 . S
C1177 C1183 1.363 . S
C1178 C1179 1.363 . S
C1178 C1183 1.379 . S
C1178 N1185 1.356 . S
C1179 C1178 1.363 . S
C1179 C1182 1.363 . S
N1180 C1182 1.356 . S
N1180 H1192 0.984 . S
N1180 H1193 0.985 . S
N1181 C1183 1.356 . S
N1181 H1186 0.984 . S
N1181 H1187 0.985 . S
C1182 C1176 1.379 . S
C1182 C1179 1.363 . S
C1182 N1180 1.356 . S
C1183 C1177 1.363 . S
C1183 C1178 1.379 . S
C1183 N1181 1.356 . S
N1184 C1176 1.356 . S
N1184 H1190 0.984 . S
N1184 H1191 0.984 . S
N1185 C1178 1.356 . S
N1185 H1188 0.984 . S
N1185 H1189 0.985 . S
H1186 N1181 0.984 . S
H1187 N1181 0.985 . S
H1188 N1185 0.984 . S
H1189 N1185 0.985 . S
H1190 N1184 0.984 . S
H1191 N1184 0.984 . S
H1192 N1180 0.984 . S
H1193 N1180 0.985 . S
C1194 C1195 1.363 . S
C1194 C1200 1.379 . S
C1194 N1202 1.356 . S
C1195 C1194 1.363 . S
C1195 C1201 1.363 . S
C1196 C1197 1.363 . S
C1196 C1201 1.379 . S
C1196 N1203 1.356 . S
C1197 C1196 1.363 . S
C1197 C1200 1.363 . S
N1198 C1200 1.356 . S
N1198 H1210 0.984 . S
N1198 H1211 0.985 . S
N1199 C1201 1.356 . S
N1199 H1204 0.984 . S
N1199 H1205 0.985 . S
C1200 C1194 1.379 . S
C1200 C1197 1.363 . S
C1200 N1198 1.356 . S
C1201 C1195 1.363 . S
C1201 C1196 1.379 . S
C1201 N1199 1.356 . S
N1202 C1194 1.356 . S
N1202 H1208 0.984 . S
N1202 H1209 0.984 . S
N1203 C1196 1.356 . S
N1203 H1206 0.984 1_565 S
N1203 H1207 0.985 1_565 S
H1204 N1199 0.984 . S
H1205 N1199 0.985 . S
H1206 N1203 0.984 1_545 S
H1207 N1203 0.985 1_545 S
H1208 N1202 0.984 . S
H1209 N1202 0.984 . S
H1210 N1198 0.984 . S
H1211 N1198 0.985 . S
C1212 C1213 1.363 . S
C1212 C1218 1.379 . S
C1212 N1220 1.356 . S
C1213 C1212 1.363 . S
C1213 C1219 1.363 . S
C1214 C1215 1.363 . S
C1214 C1219 1.379 . S
C1214 N1221 1.356 . S
C1215 C1214 1.363 . S
C1215 C1218 1.363 . S
N1216 C1218 1.356 . S
N1216 H1228 0.984 . S
N1216 H1229 0.985 . S
N1217 C1219 1.356 . S
N1217 H1222 0.984 . S
N1217 H1223 0.985 . S
C1218 C1212 1.379 . S
C1218 C1215 1.363 . S
C1218 N1216 1.356 . S
C1219 C1213 1.363 . S
C1219 C1214 1.379 . S
C1219 N1217 1.356 . S
N1220 C1212 1.356 . S
N1220 H1226 0.984 . S
N1220 H1227 0.984 . S
N1221 C1214 1.356 . S
N1221 H1224 0.984 . S
N1221 H1225 0.985 . S
H1222 N1217 0.984 . S
H1223 N1217 0.985 . S
H1224 N1221 0.984 . S
H1225 N1221 0.985 . S
H1226 N1220 0.984 . S
H1227 N1220 0.984 . S
H1228 N1216 0.984 . S
H1229 N1216 0.985 . S
C1230 C1231 1.363 . S
C1230 C1236 1.379 . S
C1230 N1238 1.356 . S
C1231 C1230 1.363 . S
C1231 C1237 1.363 . S
C1232 C1233 1.363 . S
C1232 C1237 1.379 . S
C1232 N1239 1.356 . S
C1233 C1232 1.363 . S
C1233 C1236 1.363 . S
N1234 C1236 1.356 . S
N1234 H1246 0.984 . S
N1234 H1247 0.985 . S
N1235 C1237 1.356 . S
N1235 H1240 0.984 . S
N1235 H1241 0.985 . S
C1236 C1230 1.379 . S
C1236 C1233 1.363 . S
C1236 N1234 1.356 . S
C1237 C1231 1.363 . S
C1237 C1232 1.379 . S
C1237 N1235 1.356 . S
N1238 C1230 1.356 . S
N1238 H1244 0.984 . S
N1238 H1245 0.984 . S
N1239 C1232 1.356 . S
N1239 H1242 0.984 . S
N1239 H1243 0.985 . S
H1240 N1235 0.984 . S
H1241 N1235 0.985 . S
H1242 N1239 0.984 . S
H1243 N1239 0.985 . S
H1244 N1238 0.984 . S
H1245 N1238 0.984 . S
H1246 N1234 0.984 . S
H1247 N1234 0.985 . S
C529 C17 1.589 . S
C531 C215 1.589 . S
C547 C248 1.589 . S
C549 C50 1.589 . S
C565 C149 1.589 . S
C567 C83 1.589 . S
C583 C182 1.589 . S
C585 C116 1.589 . S
C601 C281 1.589 . S
C603 C479 1.589 . S
C619 C314 1.589 . S
C621 C512 1.589 . S
C637 C347 1.589 . S
C639 C413 1.589 . S
C655 C446 1.589 . S
C657 C380 1.589 . S
C673 C28 1.571 . S
C675 N104 1.559 . S
C691 C61 1.571 . S
C693 N5 1.559 . S
C709 N38 1.559 . S
C711 C94 1.571 1_655 S
C727 C127 1.571 1_565 S
C729 N71 1.559 . S
C745 N170 1.559 . S
C747 C160 1.571 . S
C763 N203 1.559 . S
C765 C193 1.571 . S
C781 N236 1.559 . S
C783 C226 1.571 1_655 S
C799 N137 1.559 . S
C801 C259 1.571 1_565 S
C817 C292 1.571 . S
C819 N368 1.559 . S
C835 N269 1.559 . S
C837 C325 1.571 . S
C853 C358 1.571 . S
C855 N302 1.559 . S
C871 C391 1.571 . S
C873 N335 1.559 . S
C889 C424 1.571 . S
C891 N434 1.559 . S
C907 C457 1.571 . S
C909 N467 1.559 . S
C925 C490 1.571 . S
C927 N500 1.559 . S
C943 N401 1.559 . S
C945 C523 1.571 . S
C961 N509 1.284 . S
C963 N14 1.284 . S
C979 N47 1.284 . S
C981 N410 1.284 . S
C997 N443 1.284 . S
C999 N80 1.284 . S
C1015 N113 1.284 . S
C1017 N476 1.284 . S
C1033 N311 1.284 . S
C1035 N146 1.284 . S
C1051 N179 1.284 . S
C1053 N344 1.284 . S
C1069 N212 1.284 . S
C1071 N377 1.284 . S
C1087 N278 1.284 . S
C1089 N245 1.284 . S
C1105 C140 1.636 . S
C1107 C371 1.636 . S
C1123 C173 1.636 . S
C1125 C272 1.636 . S
C1141 C206 1.636 . S
C1143 C305 1.636 . S
C1159 C338 1.636 . S
C1161 C239 1.636 . S
C1177 C8 1.636 . S
C1179 C437 1.636 . S
C1195 C470 1.636 . S
C1197 C41 1.636 . S
C1213 C74 1.636 . S
C1215 C503 1.636 . S
C1231 C107 1.636 . S
C1233 C404 1.636 . S
