# Generated by pormake.
# Topology ecv, (8)-cn, num edge types: 1
# Building blocks:
#     Node 0, Type 0, BuildingBlock: EBIMEJ_clean_sbu_0, # of connection points: 8
#     Node 1, Type 0, BuildingBlock: EBIMEJ_clean_sbu_0, # of connection points: 8
#     Node 2, Type 0, BuildingBlock: EBIMEJ_clean_sbu_0, # of connection points: 8
#     Node 3, Type 0, BuildingBlock: EBIMEJ_clean_sbu_0, # of connection points: 8
#     Node 4, Type 0, BuildingBlock: EBIMEJ_clean_sbu_0, # of connection points: 8
#     Node 5, Type 0, BuildingBlock: EBIMEJ_clean_sbu_0, # of connection points: 8
#     Node 6, Type 0, BuildingBlock: EBIMEJ_clean_sbu_0, # of connection points: 8
#     Node 7, Type 0, BuildingBlock: EBIMEJ_clean_sbu_0, # of connection points: 8
#     Node 8, Type 0, BuildingBlock: EBIMEJ_clean_sbu_0, # of connection points: 8
#     Node 9, Type 0, BuildingBlock: EBIMEJ_clean_sbu_0, # of connection points: 8
#     Node 10, Type 0, BuildingBlock: EBIMEJ_clean_sbu_0, # of connection points: 8
#     Node 11, Type 0, BuildingBlock: EBIMEJ_clean_sbu_0, # of connection points: 8
#     Node 12, Type 0, BuildingBlock: EBIMEJ_clean_sbu_0, # of connection points: 8
#     Node 13, Type 0, BuildingBlock: EBIMEJ_clean_sbu_0, # of connection points: 8
#     Node 14, Type 0, BuildingBlock: EBIMEJ_clean_sbu_0, # of connection points: 8
#     Node 15, Type 0, BuildingBlock: EBIMEJ_clean_sbu_0, # of connection points: 8
#     Edge 16, Type (0, 0), BuildingBlock: OJICUG_clean_linker_0, # of connection points: 2
#     Edge 17, Type (0, 0), BuildingBlock: OJICUG_clean_linker_0, # of connection points: 2
#     Edge 18, Type (0, 0), BuildingBlock: OJICUG_clean_linker_0, # of connection points: 2
#     Edge 19, Type (0, 0), BuildingBlock: OJICUG_clean_linker_0, # of connection points: 2
#     Edge 20, Type (0, 0), BuildingBlock: OJICUG_clean_linker_0, # of connection points: 2
#     Edge 21, Type (0, 0), BuildingBlock: OJICUG_clean_linker_0, # of connection points: 2
#     Edge 22, Type (0, 0), BuildingBlock: OJICUG_clean_linker_0, # of connection points: 2
#     Edge 23, Type (0, 0), BuildingBlock: OJICUG_clean_linker_0, # of connection points: 2
#     Edge 24, Type (0, 0), BuildingBlock: OJICUG_clean_linker_0, # of connection points: 2
#     Edge 25, Type (0, 0), BuildingBlock: OJICUG_clean_linker_0, # of connection points: 2
#     Edge 26, Type (0, 0), BuildingBlock: OJICUG_clean_linker_0, # of connection points: 2
#     Edge 27, Type (0, 0), BuildingBlock: OJICUG_clean_linker_0, # of connection points: 2
#     Edge 28, Type (0, 0), BuildingBlock: OJICUG_clean_linker_0, # of connection points: 2
#     Edge 29, Type (0, 0), BuildingBlock: OJICUG_clean_linker_0, # of connection points: 2
#     Edge 30, Type (0, 0), BuildingBlock: OJICUG_clean_linker_0, # of connection points: 2
#     Edge 31, Type (0, 0), BuildingBlock: OJICUG_clean_linker_0, # of connection points: 2
#     Edge 32, Type (0, 0), BuildingBlock: OJICUG_clean_linker_0, # of connection points: 2
#     Edge 33, Type (0, 0), BuildingBlock: OJICUG_clean_linker_0, # of connection points: 2
#     Edge 34, Type (0, 0), BuildingBlock: OJICUG_clean_linker_0, # of connection points: 2
#     Edge 35, Type (0, 0), BuildingBlock: OJICUG_clean_linker_0, # of connection points: 2
#     Edge 36, Type (0, 0), BuildingBlock: OJICUG_clean_linker_0, # of connection points: 2
#     Edge 37, Type (0, 0), BuildingBlock: OJICUG_clean_linker_0, # of connection points: 2
#     Edge 38, Type (0, 0), BuildingBlock: OJICUG_clean_linker_0, # of connection points: 2
#     Edge 39, Type (0, 0), BuildingBlock: OJICUG_clean_linker_0, # of connection points: 2
#     Edge 40, Type (0, 0), BuildingBlock: OJICUG_clean_linker_0, # of connection points: 2
#     Edge 41, Type (0, 0), BuildingBlock: OJICUG_clean_linker_0, # of connection points: 2
#     Edge 42, Type (0, 0), BuildingBlock: OJICUG_clean_linker_0, # of connection points: 2
#     Edge 43, Type (0, 0), BuildingBlock: OJICUG_clean_linker_0, # of connection points: 2
#     Edge 44, Type (0, 0), BuildingBlock: OJICUG_clean_linker_0, # of connection points: 2
#     Edge 45, Type (0, 0), BuildingBlock: OJICUG_clean_linker_0, # of connection points: 2
#     Edge 46, Type (0, 0), BuildingBlock: OJICUG_clean_linker_0, # of connection points: 2
#     Edge 47, Type (0, 0), BuildingBlock: OJICUG_clean_linker_0, # of connection points: 2
#     Edge 48, Type (0, 0), BuildingBlock: OJICUG_clean_linker_0, # of connection points: 2
#     Edge 49, Type (0, 0), BuildingBlock: OJICUG_clean_linker_0, # of connection points: 2
#     Edge 50, Type (0, 0), BuildingBlock: OJICUG_clean_linker_0, # of connection points: 2
#     Edge 51, Type (0, 0), BuildingBlock: OJICUG_clean_linker_0, # of connection points: 2
#     Edge 52, Type (0, 0), BuildingBlock: OJICUG_clean_linker_0, # of connection points: 2
#     Edge 53, Type (0, 0), BuildingBlock: OJICUG_clean_linker_0, # of connection points: 2
#     Edge 54, Type (0, 0), BuildingBlock: OJICUG_clean_linker_0, # of connection points: 2
#     Edge 55, Type (0, 0), BuildingBlock: OJICUG_clean_linker_0, # of connection points: 2
#     Edge 56, Type (0, 0), BuildingBlock: OJICUG_clean_linker_0, # of connection points: 2
#     Edge 57, Type (0, 0), BuildingBlock: OJICUG_clean_linker_0, # of connection points: 2
#     Edge 58, Type (0, 0), BuildingBlock: OJICUG_clean_linker_0, # of connection points: 2
#     Edge 59, Type (0, 0), BuildingBlock: OJICUG_clean_linker_0, # of connection points: 2
#     Edge 60, Type (0, 0), BuildingBlock: OJICUG_clean_linker_0, # of connection points: 2
#     Edge 61, Type (0, 0), BuildingBlock: OJICUG_clean_linker_0, # of connection points: 2
#     Edge 62, Type (0, 0), BuildingBlock: OJICUG_clean_linker_0, # of connection points: 2
#     Edge 63, Type (0, 0), BuildingBlock: OJICUG_clean_linker_0, # of connection points: 2
#     Edge 64, Type (0, 0), BuildingBlock: OJICUG_clean_linker_0, # of connection points: 2
#     Edge 65, Type (0, 0), BuildingBlock: OJICUG_clean_linker_0, # of connection points: 2
#     Edge 66, Type (0, 0), BuildingBlock: OJICUG_clean_linker_0, # of connection points: 2
#     Edge 67, Type (0, 0), BuildingBlock: OJICUG_clean_linker_0, # of connection points: 2
#     Edge 68, Type (0, 0), BuildingBlock: OJICUG_clean_linker_0, # of connection points: 2
#     Edge 69, Type (0, 0), BuildingBlock: OJICUG_clean_linker_0, # of connection points: 2
#     Edge 70, Type (0, 0), BuildingBlock: OJICUG_clean_linker_0, # of connection points: 2
#     Edge 71, Type (0, 0), BuildingBlock: OJICUG_clean_linker_0, # of connection points: 2
#     Edge 72, Type (0, 0), BuildingBlock: OJICUG_clean_linker_0, # of connection points: 2
#     Edge 73, Type (0, 0), BuildingBlock: OJICUG_clean_linker_0, # of connection points: 2
#     Edge 74, Type (0, 0), BuildingBlock: OJICUG_clean_linker_0, # of connection points: 2
#     Edge 75, Type (0, 0), BuildingBlock: OJICUG_clean_linker_0, # of connection points: 2
#     Edge 76, Type (0, 0), BuildingBlock: OJICUG_clean_linker_0, # of connection points: 2
#     Edge 77, Type (0, 0), BuildingBlock: OJICUG_clean_linker_0, # of connection points: 2
#     Edge 78, Type (0, 0), BuildingBlock: OJICUG_clean_linker_0, # of connection points: 2
#     Edge 79, Type (0, 0), BuildingBlock: OJICUG_clean_linker_0, # of connection points: 2
# Relax obj value: 0.075
# Max RMSD: 0.177
# Mean RMSD: 0.177
data_MOF--net-ecv--node1-EBIMEJ_clean_sbu_0--edge1-OJICUG_clean_linker_0
_symmetry_space_group_name_H-M    P1
_symmetry_Int_Tables_number       1
_symmetry_cell_setting            triclinic
loop_
_symmetry_equiv_pos_as_xyz
'x, y, z'
_cell_length_a     12.190873
_cell_length_b     22.370083
_cell_length_c     106.46312
_cell_angle_alpha  100.98772
_cell_angle_beta   90.000805
_cell_angle_gamma 90.013502
loop_
_atom_site_label
_atom_site_type_symbol
_atom_site_fract_x
_atom_site_fract_y
_atom_site_fract_z
_atom_type_partial_charge
Co0 Co 0.21057 0.21444 0.4378 0.0
Co1 Co 0.11958 0.10234 0.44923 0.0
Co2 Co 0.20561 0.21098 0.46778 0.0
H3 H 0.21512 0.19633 0.45258 0.0
O4 O 0.23987 0.16005 0.44985 0.0
H5 H 0.11752 0.11312 0.46454 0.0
O6 O 0.09177 0.149 0.46759 0.0
Co7 Co 0.12817 0.09129 0.47893 0.0
O8 O 0.0141 0.03299 0.46963 0.0
O9 O 0.99809 0.04657 0.44937 0.0
O10 O 0.20133 0.15335 0.49313 0.0
O11 O 0.18846 0.24316 0.48682 0.0
O12 O 0.2569 0.25075 0.42208 0.0
O13 O 0.33109 0.17238 0.42571 0.0
O14 O 0.25131 0.03504 0.4721 0.0
O15 O 0.23133 0.03361 0.45117 0.0
C16 C 0.34353 0.29744 0.45766 0.0
C17 C 0.08233 0.11525 0.4234 0.0
C18 C 0.07025 0.05661 0.49882 0.0
C19 C 0.05724 0.29676 0.45439 0.0
C20 C 0.96996 0.02132 0.45854 0.0
C21 C 0.20463 0.21157 0.4956 0.0
C22 C 0.32835 0.21077 0.4185 0.0
C23 C 0.27624 1.0131 0.46056 0.0
O24 O 0.30408 0.28129 0.44652 0.0
O25 O 0.32014 0.27243 0.46713 0.0
O26 O 0.12165 0.07735 0.42993 0.0
O27 O 0.08398 0.17209 0.42789 0.0
O28 O 0.16553 0.05052 0.49423 0.0
O29 O 1.00853 0.08355 0.49225 0.0
O30 O 0.09401 0.27732 0.44318 0.0
O31 O 0.08964 0.2738 0.46407 0.0
Co32 Co 0.20949 0.07927 0.85775 0.0
Co33 Co 0.12001 0.19116 0.84593 0.0
Co34 Co 0.20663 0.08166 0.82774 0.0
H35 H 0.21491 0.09693 0.84295 0.0
O36 O 0.23973 0.13329 0.84557 0.0
H37 H 0.11568 0.17894 0.83064 0.0
O38 O 0.09102 0.14268 0.82774 0.0
Co39 Co 0.12259 0.20002 0.81614 0.0
O40 O 1.00302 0.25534 0.82509 0.0
O41 O 0.99831 0.24688 0.84572 0.0
O42 O 0.19881 0.13818 0.80228 0.0
O43 O 0.19086 0.0486 0.80879 0.0
O44 O 0.2662 0.04296 0.87309 0.0
O45 O 0.32279 0.12663 0.87019 0.0
O46 O 0.24667 0.25652 0.8224 0.0
O47 O 0.23194 0.25878 0.84342 0.0
C48 C 0.34046 0.99434 0.83806 0.0
C49 C 0.08701 0.18247 0.87196 0.0
C50 C 0.06528 0.23357 0.79607 0.0
C51 C 0.05963 0.99473 0.84094 0.0
C52 C 0.96332 0.26891 0.83639 0.0
C53 C 0.20508 0.08009 0.79997 0.0
C54 C 0.32934 0.08684 0.87705 0.0
C55 C 0.27465 0.27865 0.83383 0.0
O56 O 0.29745 1.00963 0.84905 0.0
O57 O 0.32218 0.02106 0.8287 0.0
O58 O 0.12556 0.21876 0.86505 0.0
O59 O 0.08697 0.12516 0.86792 0.0
O60 O 0.12387 0.26458 0.80462 0.0
O61 O 0.03988 0.18325 0.79888 0.0
O62 O 0.09558 1.01427 0.8522 0.0
O63 O 0.09172 1.01835 0.83135 0.0
Co64 Co 0.8783 0.94001 0.56478 0.0
Co65 Co 0.8014 0.82451 0.57565 0.0
Co66 Co 0.8916 0.92959 0.59448 0.0
H67 H 0.8921 0.91932 0.57919 0.0
O68 O 0.91821 0.88355 0.57621 0.0
H69 H 0.7872 0.83746 0.59106 0.0
O70 O 0.76599 0.8745 0.59366 0.0
Co71 Co 0.77804 0.81853 0.60601 0.0
O72 O 0.64255 0.79924 0.59514 0.0
O73 O 0.68176 0.76653 0.57514 0.0
O74 O 0.90754 0.85653 0.61644 0.0
O75 O 0.89121 0.95289 0.61384 0.0
O76 O 0.84027 0.98079 0.54951 0.0
O77 O 0.99643 0.94604 0.55121 0.0
O78 O 0.88954 0.75153 0.60047 0.0
O79 O 0.91156 0.76052 0.57996 0.0
C80 C 0.04672 1.00452 0.5842 0.0
C81 C 0.79995 0.82488 0.54862 0.0
C82 C 0.67146 0.82779 0.62648 0.0
C83 C 0.74119 0.02253 0.5834 0.0
C84 C 0.64032 0.75674 0.58539 0.0
C85 C 0.92278 0.91349 0.6205 0.0
C86 C 0.93478 0.97346 0.54473 0.0
C87 C 0.93537 0.73499 0.58958 0.0
O88 O 1.00311 0.99021 0.57318 0.0
O89 O 0.01619 0.98347 0.59393 0.0
O90 O 0.82539 0.79286 0.55697 0.0
O91 O 0.78863 0.88239 0.55171 0.0
O92 O 0.729 0.78219 0.62186 0.0
O93 O 0.67571 0.8671 0.61954 0.0
O94 O 0.76015 0.99861 0.57181 0.0
O95 O 0.7865 1.00156 0.59272 0.0
Co96 Co 0.87024 0.85051 0.23064 0.0
Co97 Co 0.79877 0.96766 0.22015 0.0
Co98 Co 0.89237 0.8634 0.20115 0.0
H99 H 0.88884 0.87252 0.21643 0.0
O100 O 0.91474 0.90811 0.21966 0.0
H101 H 0.78606 0.95467 0.20469 0.0
O102 O 0.76567 0.91758 0.20198 0.0
Co103 Co 0.77694 0.97362 0.1897 0.0
O104 O 0.64415 0.98652 0.20107 0.0
O105 O 0.67873 0.02599 0.22064 0.0
O106 O 0.90289 0.93749 0.17841 0.0
O107 O 0.89687 0.84155 0.18166 0.0
O108 O 0.84652 0.79605 0.24397 0.0
O109 O 0.97928 0.85548 0.24555 0.0
O110 O 0.89195 0.03774 0.19507 0.0
O111 O 0.91021 0.03137 0.21581 0.0
C112 C 0.03803 0.7839 0.21129 0.0
C113 C 0.79667 0.96752 0.24741 0.0
C114 C 0.66529 0.97321 0.17008 0.0
C115 C 0.73893 0.76835 0.21117 0.0
C116 C 0.63826 0.03218 0.21011 0.0
C117 C 0.9245 0.88094 0.17477 0.0
C118 C 0.93113 0.81507 0.25022 0.0
C119 C 0.93644 0.05511 0.20599 0.0
O120 O 0.98655 0.79461 0.22187 0.0
O121 O 0.01736 0.80985 0.2019 0.0
O122 O 0.82082 0.99932 0.23894 0.0
O123 O 0.7892 0.90963 0.24449 0.0
O124 O 0.74114 1.01075 0.17364 0.0
O125 O 0.6545 0.9367 0.17757 0.0
O126 O 0.75322 0.79204 0.22288 0.0
O127 O 0.7877 0.79019 0.20218 0.0
Co128 Co 0.24725 0.71838 0.93842 0.0
Co129 Co 0.12885 0.60833 0.95008 0.0
Co130 Co 0.22035 0.71409 0.96908 0.0
H131 H 0.23462 0.70072 0.95356 0.0
O132 O 0.25495 0.66349 0.95104 0.0
H133 H 0.12759 0.6185 0.96539 0.0
O134 O 0.10273 0.65449 0.96847 0.0
Co135 Co 0.13983 0.59697 0.97977 0.0
O136 O 0.02537 0.54005 0.97064 0.0
O137 O 1.00437 0.55283 0.95036 0.0
O138 O 0.21869 0.65618 0.99388 0.0
O139 O 0.19813 0.74625 0.98801 0.0
O140 O 0.29656 0.75522 0.92259 0.0
O141 O 0.35077 0.67054 0.92485 0.0
O142 O 0.25944 0.53931 0.97269 0.0
O143 O 0.23432 0.53704 0.95179 0.0
C144 C 0.38356 0.77911 0.959 0.0
C145 C 0.10248 0.62374 0.9238 0.0
C146 C 0.07777 0.56066 0.99926 0.0
C147 C 0.08889 0.80269 0.95474 0.0
C148 C 0.979 0.52768 0.95973 0.0
C149 C 0.21764 0.7143 0.99664 0.0
C150 C 0.35479 0.70996 0.91793 0.0
C151 C 0.27901 0.51586 0.96108 0.0
O152 O 0.37993 0.73391 0.94982 0.0
O153 O 0.33947 0.77314 0.9694 0.0
O154 O 0.13089 0.58483 0.93072 0.0
O155 O 0.11977 0.68068 0.92759 0.0
O156 O 0.14406 0.5325 0.99122 0.0
O157 O 0.04821 0.61016 0.99637 0.0
O158 O 0.13651 0.7858 0.94395 0.0
O159 O 0.11035 0.77755 0.9645 0.0
Co160 Co 0.24785 0.56697 0.35493 0.0
Co161 Co 0.13118 0.67536 0.34288 0.0
Co162 Co 0.22639 0.57043 0.3242 0.0
H163 H 0.23855 0.58426 0.33974 0.0
O164 O 0.25846 0.62154 0.3423 0.0
H165 H 0.13441 0.66505 0.32761 0.0
O166 O 0.10921 0.6292 0.32448 0.0
Co167 Co 0.15251 0.68624 0.31333 0.0
O168 O 0.0362 0.74263 0.32188 0.0
O169 O 1.00586 0.72866 0.34195 0.0
O170 O 0.23646 0.62765 0.29974 0.0
O171 O 0.20551 0.53801 0.30534 0.0
O172 O 0.29848 0.52972 0.37062 0.0
O173 O 0.34504 0.61659 0.36889 0.0
O174 O 0.27067 0.74426 0.32082 0.0
O175 O 0.23477 0.74821 0.34155 0.0
C176 C 0.3868 0.50689 0.33456 0.0
C177 C 0.09795 0.66001 0.36914 0.0
C178 C 0.09113 0.72104 0.29369 0.0
C179 C 0.09043 0.48289 0.33855 0.0
C180 C 0.98508 0.75405 0.33247 0.0
C181 C 0.22911 0.56981 0.29683 0.0
C182 C 0.35188 0.57639 0.37559 0.0
C183 C 0.28398 0.76902 0.33248 0.0
O184 O 0.38089 0.55266 0.34359 0.0
O185 O 0.34754 0.51298 0.32395 0.0
O186 O 0.12764 0.69909 0.3623 0.0
O187 O 0.11742 0.60326 0.3654 0.0
O188 O 0.17582 0.7402 0.29991 0.0
O189 O 0.04296 0.68087 0.29844 0.0
O190 O 0.13565 0.5006 0.34944 0.0
O191 O 0.11562 0.50666 0.32869 0.0
Co192 Co 0.87021 0.43643 0.0636 0.0
Co193 Co 0.8007 0.31903 0.0742 0.0
Co194 Co 0.89326 0.42363 0.09308 0.0
H195 H 0.88937 0.41456 0.0778 0.0
O196 O 0.9157 0.37907 0.07459 0.0
H197 H 0.78819 0.33209 0.08957 0.0
O198 O 0.76725 0.36906 0.09232 0.0
Co199 Co 0.78091 0.31267 0.10444 0.0
O200 O 0.64537 0.29825 0.09351 0.0
O201 O 0.6822 0.26006 0.07383 0.0
O202 O 0.91059 0.34833 0.11513 0.0
O203 O 0.89861 0.44496 0.11254 0.0
O204 O 0.8607 0.49988 0.05193 0.0
O205 O 0.95867 0.42304 0.04679 0.0
O206 O 0.89251 0.247 0.09898 0.0
O207 O 0.91336 0.25571 0.07843 0.0
C208 C 0.04012 0.50205 0.08281 0.0
C209 C 0.7936 0.31928 0.04726 0.0
C210 C 0.67709 0.31722 0.12467 0.0
C211 C 0.73915 0.51858 0.08309 0.0
C212 C 0.63996 0.25347 0.08426 0.0
C213 C 0.92968 0.40494 0.11911 0.0
C214 C 0.92657 0.47187 0.04381 0.0
C215 C 0.93812 0.23067 0.08811 0.0
O216 O 0.98953 0.49076 0.07217 0.0
O217 O 0.01785 0.47718 0.09231 0.0
O218 O 0.82229 0.28753 0.05553 0.0
O219 O 0.78438 0.37707 0.05028 0.0
O220 O 0.72984 0.271 0.11934 0.0
O221 O 0.68486 0.35973 0.11857 0.0
O222 O 0.75376 0.49503 0.07138 0.0
O223 O 0.7879 0.49674 0.09209 0.0
Co224 Co 0.89791 0.33944 0.72806 0.0
Co225 Co 0.82463 0.46061 0.71758 0.0
Co226 Co 0.90141 0.35253 0.69839 0.0
H227 H 0.90677 0.36138 0.71368 0.0
O228 O 0.93521 0.39661 0.7167 0.0
H229 H 0.80675 0.44796 0.70248 0.0
O230 O 0.78192 0.41167 0.69982 0.0
Co231 Co 0.79671 0.46886 0.68795 0.0
O232 O 0.66043 0.49974 0.6977 0.0
O233 O 0.71662 0.52545 0.71778 0.0
O234 O 0.92662 0.42942 0.67798 0.0
O235 O 0.89603 0.33233 0.67908 0.0
O236 O 0.8907 0.27628 0.73989 0.0
O237 O 0.98084 0.35569 0.74531 0.0
O238 O 0.90594 0.53662 0.69347 0.0
O239 O 0.94137 0.52064 0.71325 0.0
C240 C 0.0534 0.27034 0.70716 0.0
C241 C 0.82587 0.45891 0.74465 0.0
C242 C 0.68726 0.46479 0.66796 0.0
C243 C 0.74667 0.2628 0.70984 0.0
C244 C 0.66177 0.5366 0.70835 0.0
C245 C 0.93296 0.37292 0.67303 0.0
C246 C 0.95113 0.30653 0.74834 0.0
C247 C 0.95804 0.54983 0.70402 0.0
O248 O 0.01341 0.28344 0.71846 0.0
O249 O 0.0211 0.29425 0.69791 0.0
O250 O 0.85117 0.49096 0.73627 0.0
O251 O 0.81821 0.40094 0.74171 0.0
O252 O 0.74871 0.50859 0.67261 0.0
O253 O 0.68967 0.42398 0.67457 0.0
O254 O 0.77483 0.28376 0.72131 0.0
O255 O 0.78875 0.28395 0.70035 0.0
Co256 Co 0.72916 0.21865 0.93839 0.0
Co257 Co 0.62423 0.10075 0.94838 0.0
Co258 Co 0.6956 0.20909 0.96785 0.0
H259 H 0.71646 0.19698 0.95282 0.0
O260 O 0.74234 0.16093 0.95017 0.0
H261 H 0.61698 0.10891 0.96366 0.0
O262 O 0.5871 0.14377 0.96665 0.0
Co263 Co 0.62498 0.08653 0.978 0.0
O264 O 0.51109 0.03027 0.96813 0.0
O265 O 0.50591 0.04127 0.94758 0.0
O266 O 0.70276 0.14873 0.99167 0.0
O267 O 0.66491 0.23852 0.98639 0.0
O268 O 0.76591 0.25599 0.92242 0.0
O269 O 0.85474 0.18307 0.92655 0.0
O270 O 0.7474 0.03028 0.97127 0.0
O271 O 0.73789 0.03283 0.95038 0.0
C272 C 0.85893 0.28562 0.95913 0.0
C273 C 0.59662 0.122 0.92298 0.0
C274 C 0.57255 0.0532 0.9983 0.0
C275 C 0.56343 0.29772 0.95407 0.0
C276 C 0.47275 1.01705 0.95675 0.0
C277 C 0.69172 0.20649 0.9947 0.0
C278 C 0.84381 0.21961 0.91905 0.0
C279 C 0.77794 1.01062 0.95983 0.0
O280 O 0.86374 0.24672 0.94879 0.0
O281 O 0.80171 0.27544 0.96845 0.0
O282 O 0.63255 0.08145 0.92909 0.0
O283 O 0.60277 0.17858 0.92787 0.0
O284 O 0.64849 0.02987 0.99101 0.0
O285 O 0.52729 0.09607 0.99416 0.0
O286 O 0.61812 0.28547 0.9437 0.0
O287 O 0.57818 0.26803 0.96325 0.0
Co288 Co 0.70477 0.07699 0.35781 0.0
Co289 Co 0.61693 0.19093 0.3463 0.0
Co290 Co 0.70059 0.08122 0.32796 0.0
H291 H 0.70988 0.09582 0.34313 0.0
O292 O 0.73538 0.13198 0.34582 0.0
H293 H 0.61225 0.17926 0.33097 0.0
O294 O 0.58646 0.14321 0.3281 0.0
Co295 Co 0.61925 0.20019 0.31643 0.0
O296 O 0.49971 0.25525 0.32547 0.0
O297 O 0.49698 0.24794 0.34619 0.0
O298 O 0.70032 0.13882 0.30295 0.0
O299 O 0.68261 0.04895 0.30909 0.0
O300 O 0.75251 0.04133 0.37359 0.0
O301 O 0.82567 0.11961 0.36981 0.0
O302 O 0.74271 0.25666 0.32278 0.0
O303 O 0.73058 0.25808 0.34381 0.0
C304 C 0.83501 0.99278 0.33797 0.0
C305 C 0.58178 0.17889 0.37202 0.0
C306 C 0.56572 0.2334 0.29611 0.0
C307 C 0.55375 0.99377 0.34099 0.0
C308 C 0.46139 0.26959 0.33682 0.0
C309 C 0.70169 0.08064 0.30044 0.0
C310 C 0.82382 0.08153 0.37709 0.0
C311 C 0.77221 0.27823 0.33418 0.0
O312 O 0.79368 1.00794 0.34905 0.0
O313 O 0.8151 0.01967 0.32867 0.0
O314 O 0.62179 0.21664 0.36551 0.0
O315 O 0.579 0.12221 0.36736 0.0
O316 O 0.61785 0.26577 0.30509 0.0
O317 O 0.5442 0.18204 0.29866 0.0
O318 O 0.59084 1.01219 0.35223 0.0
O319 O 0.58488 1.01836 0.3315 0.0
Co320 Co 0.40054 0.94467 0.06603 0.0
Co321 Co 0.31616 0.82796 0.07793 0.0
Co322 Co 0.40261 0.93779 0.09598 0.0
H323 H 0.40752 0.9248 0.08066 0.0
O324 O 0.43235 0.8885 0.07789 0.0
H325 H 0.3067 0.84353 0.09324 0.0
O326 O 0.28236 0.8801 0.0957 0.0
Co327 Co 0.30882 0.82699 0.10826 0.0
O328 O 0.2206 0.75778 0.09936 0.0
O329 O 0.20005 0.76797 0.07886 0.0
O330 O 0.43297 0.873 0.1181 0.0
O331 O 0.39584 0.96646 0.11507 0.0
O332 O 0.38024 1.00215 0.05316 0.0
O333 O 0.49763 0.93385 0.0498 0.0
O334 O 0.42099 0.76013 0.1026 0.0
O335 O 0.43025 0.76502 0.08179 0.0
C336 C 0.55878 1.01508 0.08623 0.0
C337 C 0.31562 0.82584 0.0501 0.0
C338 C 0.19129 0.83834 0.12813 0.0
C339 C 0.2493 0.02415 0.08348 0.0
C340 C 0.17982 0.74188 0.08826 0.0
C341 C 0.43273 0.93033 0.12212 0.0
C342 C 0.45466 0.9777 0.04576 0.0
C343 C 0.45966 0.74094 0.09142 0.0
O344 O 0.51964 1.00047 0.07492 0.0
O345 O 0.52418 0.99358 0.09566 0.0
O346 O 0.33286 0.79445 0.0589 0.0
O347 O 0.31889 0.88395 0.05252 0.0
O348 O 0.25995 0.7965 0.12477 0.0
O349 O 0.19079 0.87401 0.12033 0.0
O350 O 0.27674 1.00109 0.07209 0.0
O351 O 0.29164 1.00509 0.09317 0.0
Co352 Co 0.38252 0.84903 0.73015 0.0
Co353 Co 0.30358 0.96647 0.71937 0.0
Co354 Co 0.3947 0.86056 0.70047 0.0
H355 H 0.39533 0.87062 0.71578 0.0
O356 O 0.42046 0.90656 0.71886 0.0
H357 H 0.28929 0.95278 0.70391 0.0
O358 O 0.26872 0.91559 0.70139 0.0
Co359 Co 0.27769 0.97049 0.68881 0.0
O360 O 0.14397 0.98728 0.7 0.0
O361 O 0.18507 0.02567 0.71963 0.0
O362 O 0.40719 0.9335 0.67828 0.0
O363 O 0.39373 0.83737 0.6811 0.0
O364 O 0.36362 0.79091 0.74288 0.0
O365 O 0.48764 0.85584 0.74554 0.0
O366 O 0.38893 0.03759 0.69419 0.0
O367 O 0.41437 0.02962 0.71475 0.0
C368 C 0.54287 0.77962 0.71011 0.0
C369 C 0.30932 0.96773 0.74697 0.0
C370 C 0.1703 0.9616 0.66838 0.0
C371 C 0.24333 0.76815 0.71135 0.0
C372 C 0.1411 0.03215 0.70926 0.0
C373 C 0.42415 0.87664 0.67435 0.0
C374 C 0.44391 0.81246 0.74966 0.0
C375 C 0.43639 0.05454 0.70497 0.0
O376 O 0.49529 0.79149 0.72095 0.0
O377 O 0.51915 0.80541 0.70078 0.0
O378 O 0.32606 0.99923 0.73822 0.0
O379 O 0.30925 0.90962 0.74444 0.0
O380 O 0.22741 1.0073 0.67306 0.0
O381 O 0.1754 0.92197 0.67524 0.0
O382 O 0.26236 0.79168 0.72297 0.0
O383 O 0.28902 0.78915 0.70209 0.0
Co384 Co 0.74475 0.72023 0.43778 0.0
Co385 Co 0.62878 0.61026 0.44966 0.0
Co386 Co 0.72186 0.7154 0.46826 0.0
H387 H 0.73508 0.70194 0.45281 0.0
O388 O 0.75531 0.66469 0.45026 0.0
H389 H 0.62849 0.62123 0.46495 0.0
O390 O 0.6035 0.65731 0.46788 0.0
Co391 Co 0.64114 0.60091 0.4794 0.0
O392 O 0.51182 0.55344 0.47139 0.0
O393 O 0.504 0.55651 0.45041 0.0
O394 O 0.73284 0.65818 0.49232 0.0
O395 O 0.69939 0.74784 0.48694 0.0
O396 O 0.79617 0.75678 0.422 0.0
O397 O 0.84381 0.67052 0.42398 0.0
O398 O 0.759 0.54195 0.47248 0.0
O399 O 0.73315 0.53831 0.45155 0.0
C400 C 0.88448 0.78088 0.45824 0.0
C401 C 0.59702 0.62566 0.42365 0.0
C402 C 0.585 0.566 0.49932 0.0
C403 C 0.58884 0.80503 0.45425 0.0
C404 C 0.47097 0.5372 0.46027 0.0
C405 C 0.72405 0.71587 0.49533 0.0
C406 C 0.85064 0.71028 0.41717 0.0
C407 C 0.77793 0.5176 0.46092 0.0
O408 O 0.88053 0.73761 0.44865 0.0
O409 O 0.84323 0.77231 0.4686 0.0
O410 O 0.62837 0.58622 0.43031 0.0
O411 O 0.6135 0.68255 0.42766 0.0
O412 O 0.64892 0.53723 0.49107 0.0
O413 O 0.55411 0.61509 0.49635 0.0
O414 O 0.63417 0.78796 0.44334 0.0
O415 O 0.61277 0.77979 0.46391 0.0
Co416 Co 0.74884 0.5678 0.85552 0.0
Co417 Co 0.63416 0.67732 0.84356 0.0
Co418 Co 0.72812 0.57212 0.8249 0.0
H419 H 0.74022 0.58571 0.8404 0.0
O420 O 0.76058 0.62291 0.84299 0.0
H421 H 0.63694 0.66696 0.82826 0.0
O422 O 0.61137 0.63114 0.82518 0.0
Co423 Co 0.65444 0.68778 0.8139 0.0
O424 O 0.53671 0.74325 0.82241 0.0
O425 O 0.50947 0.731 0.84266 0.0
O426 O 0.74017 0.62891 0.80054 0.0
O427 O 0.7069 0.53957 0.80613 0.0
O428 O 0.79247 0.53261 0.87171 0.0
O429 O 0.85864 0.61349 0.86854 0.0
O430 O 0.77204 0.74623 0.82135 0.0
O431 O 0.73882 0.7498 0.84214 0.0
C432 C 0.88734 0.50699 0.83515 0.0
C433 C 0.60115 0.66168 0.86982 0.0
C434 C 0.59597 0.72209 0.79404 0.0
C435 C 0.59122 0.4843 0.83904 0.0
C436 C 0.48701 0.75543 0.83309 0.0
C437 C 0.73234 0.57108 0.79766 0.0
C438 C 0.85695 0.5758 0.87586 0.0
C439 C 0.78696 0.77071 0.833 0.0
O440 O 0.88279 0.552 0.84436 0.0
O441 O 0.84873 0.51445 0.82461 0.0
O442 O 0.63098 0.70084 0.863 0.0
O443 O 0.619 0.60483 0.86598 0.0
O444 O 0.67564 0.74414 0.80087 0.0
O445 O 0.55114 0.67946 0.79832 0.0
O446 O 0.63581 0.50175 0.84998 0.0
O447 O 0.61705 0.50843 0.82926 0.0
Co448 Co 0.39188 0.44704 0.56501 0.0
Co449 Co 0.31239 0.32898 0.5767 0.0
Co450 Co 0.40294 0.43783 0.59477 0.0
H451 H 0.40324 0.42598 0.57946 0.0
O452 O 0.42768 0.38976 0.57647 0.0
H453 H 0.30464 0.34479 0.59193 0.0
O454 O 0.28111 0.3814 0.59456 0.0
Co455 Co 0.30992 0.32782 0.60682 0.0
O456 O 0.21526 0.26075 0.59843 0.0
O457 O 0.1968 0.26879 0.57779 0.0
O458 O 0.44266 0.3694 0.61559 0.0
O459 O 0.40317 0.4642 0.61401 0.0
O460 O 0.38689 0.51182 0.55357 0.0
O461 O 0.47706 0.43249 0.54794 0.0
O462 O 0.42368 0.263 0.60138 0.0
O463 O 0.42767 0.26593 0.58046 0.0
C464 C 0.55491 0.516 0.58491 0.0
C465 C 0.31167 0.32626 0.54877 0.0
C466 C 0.1943 0.33656 0.62652 0.0
C467 C 0.24591 0.52637 0.58336 0.0
C468 C 0.1746 0.24423 0.58736 0.0
C469 C 0.44396 0.42598 0.62034 0.0
C470 C 0.44872 0.48244 0.54516 0.0
C471 C 0.4599 0.24304 0.59016 0.0
O472 O 0.50977 0.50391 0.57388 0.0
O473 O 0.52605 0.4921 0.59424 0.0
O474 O 0.3268 0.2952 0.55767 0.0
O475 O 0.3176 0.38443 0.55104 0.0
O476 O 0.25282 0.29127 0.62213 0.0
O477 O 0.20282 0.37699 0.61985 0.0
O478 O 0.26824 0.50293 0.57181 0.0
O479 O 0.2928 0.50707 0.59277 0.0
Co480 Co 0.40273 0.3395 0.22777 0.0
Co481 Co 0.31911 0.45714 0.21581 0.0
Co482 Co 0.40452 0.34672 0.19787 0.0
H483 H 0.40909 0.35956 0.21318 0.0
O484 O 0.43415 0.39585 0.21593 0.0
H485 H 0.30953 0.44153 0.20057 0.0
O486 O 0.28492 0.40503 0.19807 0.0
Co487 Co 0.31251 0.45892 0.18569 0.0
O488 O 0.22268 0.52797 0.19429 0.0
O489 O 0.20424 0.51816 0.21485 0.0
O490 O 0.44725 0.41425 0.17823 0.0
O491 O 0.40009 0.31967 0.17878 0.0
O492 O 0.40517 0.27411 0.23914 0.0
O493 O 0.47737 0.35825 0.24557 0.0
O494 O 0.42273 0.52666 0.19132 0.0
O495 O 0.4344 0.51968 0.212 0.0
C496 C 0.56155 0.26954 0.20765 0.0
C497 C 0.31768 0.45874 0.24343 0.0
C498 C 0.19672 0.44715 0.16571 0.0
C499 C 0.25032 0.26054 0.21027 0.0
C500 C 0.18319 0.54421 0.20545 0.0
C501 C 0.44312 0.35853 0.17282 0.0
C502 C 0.45655 0.30684 0.24813 0.0
C503 C 0.46246 0.5449 0.20248 0.0
O504 O 0.52352 0.28462 0.219 0.0
O505 O 0.52533 0.29035 0.1982 0.0
O506 O 0.33648 0.49035 0.23473 0.0
O507 O 0.31871 0.40059 0.24094 0.0
O508 O 0.25904 0.49149 0.16961 0.0
O509 O 0.20156 0.40937 0.17304 0.0
O510 O 0.2789 0.28316 0.22164 0.0
O511 O 0.29225 0.27972 0.20056 0.0
C512 C 0.34663 0.40185 0.46932 0.0
C513 C 0.39205 0.35689 0.45981 0.0
H514 H 0.32825 0.49733 0.47627 0.0
C515 C 0.45179 0.37281 0.4497 0.0
H516 H 0.29646 0.38999 0.47689 0.0
C517 C 0.46307 0.43323 0.44885 0.0
C518 C 0.41874 0.47853 0.45841 0.0
H519 H 0.48457 0.33819 0.44209 0.0
H520 H 0.51293 0.44443 0.44119 0.0
C521 C 0.35964 0.46263 0.4686 0.0
C522 C 0.84269 0.94929 0.46509 0.0
C523 C 0.90743 0.96558 0.45549 0.0
H524 H 0.78522 0.87706 0.47358 0.0
C525 C 0.94298 0.92113 0.44514 0.0
H526 H 0.81396 0.98334 0.47306 0.0
C527 C 0.9301 0.85984 0.44558 0.0
C528 C 0.88007 0.84353 0.45626 0.0
H529 H 0.99329 0.93329 0.43761 0.0
H530 H 0.96711 0.8258 0.43819 0.0
C531 C 0.82905 0.88842 0.4655 0.0
C532 C 0.44307 0.91681 0.8462 0.0
C533 C 0.39061 0.9352 0.83585 0.0
H534 H 0.50609 0.84275 0.85385 0.0
C535 C 0.35839 0.89235 0.82515 0.0
H536 H 0.46627 0.94965 0.85465 0.0
C537 C 0.3781 0.83114 0.82487 0.0
C538 C 0.43051 0.81282 0.83525 0.0
H539 H 0.31415 0.90584 0.81731 0.0
H540 H 0.35693 0.7983 0.81634 0.0
C541 C 0.46142 0.85579 0.84599 0.0
C542 C 0.93266 0.36936 0.84956 0.0
C543 C 0.89837 0.32405 0.83928 0.0
H544 H 0.96033 0.46476 0.85595 0.0
C545 C 0.83465 0.33958 0.8295 0.0
H546 H 0.98125 0.35798 0.8573 0.0
C547 C 0.82394 0.4002 0.82867 0.0
C548 C 0.87602 0.44552 0.83772 0.0
H549 H 0.80605 0.30498 0.82163 0.0
H550 H 0.78245 0.4108 0.82036 0.0
C551 C 0.92267 0.43033 0.84869 0.0
C552 C 0.67878 0.58805 0.57775 0.0
C553 C 0.61914 0.57129 0.58771 0.0
H554 H 0.73069 0.66078 0.56907 0.0
C555 C 0.58881 0.61534 0.59839 0.0
H556 H 0.70377 0.55434 0.56953 0.0
C557 C 0.60053 0.67673 0.59801 0.0
C558 C 0.64469 0.69362 0.58707 0.0
H559 H 0.54287 0.60292 0.60623 0.0
H560 H 0.5673 0.71046 0.60574 0.0
C561 C 0.69128 0.64905 0.5774 0.0
C562 C 0.05917 0.10717 0.59616 0.0
C563 C 0.10083 0.06257 0.58628 0.0
H564 H 0.03928 0.20198 0.60334 0.0
C565 C 0.15821 0.07922 0.57605 0.0
H566 H 1.01093 0.09529 0.60388 0.0
C567 C 0.17094 0.14019 0.57553 0.0
C568 C 0.12732 0.18454 0.58531 0.0
H569 H 0.18775 0.04502 0.56817 0.0
H570 H 0.21921 0.1526 0.56787 0.0
C571 C 0.07042 0.16784 0.59553 0.0
C572 C 0.59876 0.10699 0.19625 0.0
C573 C 0.64785 0.0932 0.20723 0.0
H574 H 0.53866 0.17786 0.1873 0.0
C575 C 0.70139 0.13939 0.21592 0.0
H576 H 0.55956 0.0719 0.18928 0.0
C577 C 0.69061 0.19958 0.21474 0.0
C578 C 0.6254 0.21391 0.20496 0.0
H579 H 0.74453 0.12984 0.22422 0.0
H580 H 0.72078 0.23497 0.22236 0.0
C581 C 0.58878 0.16751 0.19502 0.0
C582 C 0.14661 0.70723 0.21921 0.0
C583 C 0.09494 0.72667 0.20892 0.0
H584 H 0.20968 0.63151 0.22646 0.0
C585 C 0.06505 0.68473 0.19798 0.0
H586 H 0.16704 0.7393 0.22788 0.0
C587 C 0.08326 0.62349 0.19749 0.0
C588 C 0.13467 0.60387 0.20777 0.0
H589 H 0.02101 0.69869 0.19017 0.0
H590 H 0.06031 0.59145 0.18892 0.0
C591 C 0.16628 0.64582 0.21865 0.0
C592 C 0.34043 0.94745 0.96332 0.0
C593 C 0.40983 0.96113 0.95382 0.0
H594 H 0.27962 0.87852 0.97263 0.0
C595 C 0.45015 0.9142 0.94426 0.0
H596 H 0.30815 0.98329 0.97071 0.0
C597 C 0.43655 0.85378 0.9455 0.0
C598 C 0.38153 0.8406 0.95619 0.0
H599 H 0.50421 0.92416 0.93684 0.0
H600 H 0.47652 0.81811 0.93873 0.0
C601 C 0.32689 0.88747 0.96457 0.0
C602 C 0.84343 0.39551 0.96846 0.0
C603 C 0.88178 0.34931 0.95861 0.0
H604 H 0.83706 0.49078 0.97597 0.0
C605 C 0.92967 0.36495 0.94767 0.0
H606 H 0.80277 0.38512 0.97683 0.0
C607 C 0.94672 0.42586 0.94707 0.0
C608 C 0.91679 0.47141 0.95746 0.0
H609 H 0.95691 0.33026 0.93975 0.0
H610 H 0.99261 0.43682 0.93909 0.0
C611 C 0.85979 0.45608 0.96781 0.0
C612 C 0.33189 0.33986 0.32997 0.0
C613 C 0.3978 0.32522 0.33965 0.0
H614 H 0.27815 0.40987 0.32056 0.0
C615 C 0.43557 0.37137 0.34957 0.0
H616 H 0.3009 0.30462 0.32237 0.0
C617 C 0.42602 0.43195 0.34838 0.0
C618 C 0.3763 0.446 0.33747 0.0
H619 H 0.48627 0.3607 0.35721 0.0
H620 H 0.46611 0.46687 0.35531 0.0
C621 C 0.32166 0.4001 0.32881 0.0
C622 C 0.85474 0.89128 0.32483 0.0
C623 C 0.88594 0.93377 0.33563 0.0
H624 H 0.85539 0.79753 0.31578 0.0
C625 C 0.93902 0.91501 0.3459 0.0
H626 H 0.81027 0.905 0.31702 0.0
C627 C 0.95865 0.85398 0.34553 0.0
C628 C 0.92837 0.81138 0.3347 0.0
H629 H 0.96177 0.94754 0.35442 0.0
H630 H 1.00361 0.84066 0.35334 0.0
C631 C 0.87586 0.83007 0.32437 0.0
C632 C 0.58345 0.11722 0.09883 0.0
C633 C 0.62149 0.07101 0.08895 0.0
H634 H 0.55476 0.21282 0.10466 0.0
C635 C 0.6875 0.08551 0.07926 0.0
H636 H 0.53231 0.10665 0.10645 0.0
C637 C 0.69926 0.14578 0.07819 0.0
C638 C 0.64552 0.19188 0.08688 0.0
H639 H 0.7183 0.05022 0.07166 0.0
H640 H 0.74393 0.15554 0.07001 0.0
C641 C 0.59424 0.17779 0.0977 0.0
C642 C 0.14862 0.57855 0.07486 0.0
C643 C 0.09617 0.55946 0.08514 0.0
H644 H 0.21046 0.65414 0.06747 0.0
C645 C 0.06352 0.60181 0.0959 0.0
H646 H 0.17107 0.54613 0.06632 0.0
C647 C 0.07955 0.66303 0.0962 0.0
C648 C 0.13184 0.68224 0.08594 0.0
H649 H 0.0188 0.58808 0.10369 0.0
H650 H 0.05468 0.69541 0.10464 0.0
C651 C 0.16624 0.63999 0.07524 0.0
C652 C 0.57547 0.6788 0.6971 0.0
C653 C 0.60383 0.72311 0.70777 0.0
H654 H 0.56594 0.58381 0.68921 0.0
C655 C 0.65736 0.70627 0.7182 0.0
H656 H 0.53209 0.69098 0.68906 0.0
C657 C 0.67217 0.64536 0.71856 0.0
C658 C 0.63627 0.60035 0.70833 0.0
H659 H 0.67866 0.74005 0.72657 0.0
H660 H 0.71056 0.6338 0.72696 0.0
C661 C 0.59123 0.61755 0.6974 0.0
C662 C 0.07821 0.1679 0.69459 0.0
C663 C 0.11675 0.21458 0.70433 0.0
H664 H 0.0522 0.07191 0.68886 0.0
C665 C 0.18404 0.20062 0.71398 0.0
H666 H 0.02591 0.17808 0.68704 0.0
C667 C 0.19692 0.14053 0.71517 0.0
C668 C 0.14366 0.09386 0.70659 0.0
H669 H 0.21498 0.23627 0.72151 0.0
H670 H 0.24251 0.13132 0.72333 0.0
C671 C 0.09098 0.10739 0.69578 0.0
C672 C 0.39115 0.93424 0.46909 0.0
C673 C 0.35679 0.95981 0.45851 0.0
H674 H 0.48744 0.86714 0.47618 0.0
C675 C 0.39892 0.93268 0.44643 0.0
H676 H 0.3611 0.95265 0.47861 0.0
C677 C 0.47296 0.8828 0.44507 0.0
C678 C 0.50715 0.85754 0.4557 0.0
H679 H 0.37513 0.95008 0.43801 0.0
H680 H 0.50349 0.86394 0.4356 0.0
C681 C 0.46412 0.88437 0.46772 0.0
C682 C 0.94234 0.37445 0.44532 0.0
C683 C 0.98069 0.35131 0.45605 0.0
H684 H 0.85031 0.44357 0.4382 0.0
C685 C 0.95135 0.38384 0.46821 0.0
H686 H 0.96297 0.35134 0.43572 0.0
C687 C 0.88749 0.43732 0.46959 0.0
C688 C 0.8496 0.46087 0.45889 0.0
H689 H 0.97915 0.36855 0.47673 0.0
H690 H 0.86771 0.46028 0.47922 0.0
C691 C 0.87777 0.42797 0.4467 0.0
C692 C 0.39832 0.35968 0.84752 0.0
C693 C 0.35645 0.33122 0.83553 0.0
H694 H 0.50318 0.42903 0.85804 0.0
C695 C 0.39196 0.35484 0.82474 0.0
H696 H 0.3736 0.3438 0.85608 0.0
C697 C 0.46584 0.40425 0.82584 0.0
C698 C 0.50842 0.43245 0.83778 0.0
H699 H 0.3622 0.33522 0.81527 0.0
H700 H 0.49023 0.42 0.81725 0.0
C701 C 0.47305 0.40907 0.84861 0.0
C702 C 0.89631 0.85293 0.82494 0.0
C703 C 0.85719 0.82811 0.83542 0.0
H704 H 0.98713 0.92338 0.8183 0.0
C705 C 0.88268 0.86047 0.84776 0.0
H706 H 0.87864 0.83048 0.81522 0.0
C707 C 0.94582 0.9147 0.8495 0.0
C708 C 0.98508 0.93918 0.83898 0.0
H709 H 0.85424 0.84387 0.8561 0.0
H710 H 0.96447 0.93735 0.85918 0.0
C711 C 0.95848 0.90713 0.82668 0.0
C712 C 0.56561 0.15596 0.5763 0.0
C713 C 0.53624 0.1883 0.58847 0.0
H714 H 0.64979 0.07992 0.56521 0.0
C715 C 0.57511 0.16506 0.59917 0.0
H716 H 0.53752 0.17131 0.56779 0.0
C717 C 0.64036 0.1117 0.59774 0.0
C718 C 0.66871 0.07905 0.58552 0.0
H719 H 0.55454 0.18802 0.60878 0.0
H720 H 0.66832 0.09606 0.60621 0.0
C721 C 0.63005 0.10266 0.57486 0.0
C722 C 0.12982 0.60436 0.57472 0.0
C723 C 0.16623 0.57995 0.58536 0.0
H724 H 0.03221 0.67077 0.56756 0.0
C725 C 0.12697 0.60846 0.59748 0.0
H726 H 0.15767 0.58481 0.56516 0.0
C727 C 0.05349 0.65854 0.59882 0.0
C728 C 0.01715 0.68263 0.58813 0.0
H729 H 0.15251 0.59198 0.60595 0.0
H730 H 0.02508 0.67846 0.60833 0.0
C731 C 0.05746 0.65449 0.57607 0.0
C732 C 0.57446 0.62681 0.19415 0.0
C733 C 0.53774 0.60037 0.20452 0.0
H734 H 0.66521 0.69889 0.18784 0.0
C735 C 0.56848 0.63017 0.21687 0.0
H736 H 0.5528 0.60593 0.18444 0.0
C737 C 0.63179 0.68404 0.2188 0.0
C738 C 0.66833 0.7109 0.20849 0.0
H739 H 0.54222 0.61238 0.22515 0.0
H740 H 0.65243 0.70461 0.22856 0.0
C741 C 0.63899 0.68072 0.19608 0.0
C742 C 0.13343 0.18595 0.2198 0.0
C743 C 0.16907 0.20807 0.20883 0.0
H744 H 0.0355 0.12178 0.22765 0.0
C745 C 0.12845 0.17807 0.19692 0.0
H746 H 0.16236 0.2069 0.22923 0.0
C747 C 0.05466 0.12854 0.19607 0.0
C748 C 0.01909 0.10666 0.20707 0.0
H749 H 0.15349 0.1928 0.18824 0.0
H750 H 0.02534 0.10731 0.18667 0.0
C751 C 0.06039 0.13638 0.21894 0.0
C752 C 0.37808 0.43096 0.96925 0.0
C753 C 0.35069 0.45932 0.95884 0.0
H754 H 0.46282 0.35892 0.97601 0.0
C755 C 0.39035 0.43177 0.94669 0.0
H756 H 0.34892 0.44965 0.9788 0.0
C757 C 0.45691 0.37895 0.94513 0.0
C758 C 0.48488 0.35114 0.95561 0.0
H759 H 0.37111 0.45134 0.93841 0.0
H760 H 0.48718 0.36006 0.93564 0.0
C761 C 0.44322 0.37802 0.96767 0.0
C762 C 0.9753 0.87952 0.94505 0.0
C763 C 1.00782 0.85521 0.95587 0.0
H764 H 0.87914 0.94614 0.93755 0.0
C765 C 0.9644 0.88325 0.96776 0.0
H766 H 1.0064 0.85968 0.93565 0.0
C767 C 0.89227 0.93326 0.96883 0.0
C768 C 0.85917 0.95779 0.95806 0.0
H769 H 0.98682 0.86689 0.97635 0.0
H770 H 0.86189 0.95259 0.97829 0.0
C771 C 0.90206 0.92961 0.94611 0.0
C772 C 0.37712 0.85889 0.34742 0.0
C773 C 0.35317 0.8267 0.33503 0.0
H774 H 0.45713 0.93585 0.35903 0.0
C775 C 0.39273 0.85197 0.32464 0.0
H776 H 0.34815 0.84192 0.3557 0.0
C777 C 0.45407 0.90646 0.32651 0.0
C778 C 0.47935 0.93825 0.33888 0.0
H779 H 0.37609 0.82964 0.31488 0.0
H780 H 0.48334 0.92306 0.31821 0.0
C781 C 0.43949 0.91336 0.34931 0.0
C782 C 0.96313 0.40282 0.32568 0.0
C783 C 1.00745 0.4312 0.33751 0.0
H784 H 0.85778 0.33399 0.3154 0.0
C785 C 0.97343 0.40827 0.34845 0.0
H786 H 0.98637 0.41823 0.31701 0.0
C787 C 0.89831 0.35914 0.34758 0.0
C788 C 0.85464 0.33051 0.33571 0.0
H789 H 1.00492 0.42841 0.35781 0.0
H790 H 0.87468 0.34362 0.35623 0.0
C791 C 0.88887 0.35371 0.3248 0.0
C792 C 0.56675 0.65567 0.07719 0.0
C793 C 0.53547 0.68569 0.0895 0.0
H794 H 0.65188 0.58145 0.06561 0.0
C795 C 0.57251 0.65978 0.09993 0.0
H796 H 0.54038 0.67305 0.06885 0.0
C797 C 0.63786 0.60616 0.09809 0.0
C798 C 0.6678 0.57579 0.08571 0.0
H799 H 0.55047 0.68084 0.10961 0.0
H800 H 0.66426 0.58838 0.10636 0.0
C801 C 0.6309 0.60215 0.07535 0.0
C802 C 0.13434 0.09993 0.07407 0.0
C803 C 0.1691 0.07705 0.08498 0.0
H804 H 0.03755 0.16501 0.06636 0.0
C805 C 0.1285 0.10664 0.09692 0.0
H806 H 0.16345 0.07933 0.06463 0.0
C807 C 0.05532 0.15642 0.09786 0.0
C808 C 0.02043 0.179 0.08692 0.0
H809 H 0.15295 0.09132 0.10556 0.0
H810 H 0.02589 0.17726 0.10727 0.0
C811 C 0.06193 0.14981 0.07502 0.0
C812 C 0.55919 0.13617 0.71796 0.0
C813 C 0.51777 0.10692 0.70606 0.0
H814 H 0.65979 0.20663 0.72844 0.0
C815 C 0.55217 0.13004 0.69516 0.0
H816 H 0.53522 0.12076 0.72661 0.0
C817 C 0.62521 0.18022 0.69615 0.0
C818 C 0.66596 0.20969 0.70811 0.0
H819 H 0.52269 0.10921 0.68574 0.0
H820 H 0.64959 0.19581 0.68754 0.0
C821 C 0.63108 0.18629 0.71897 0.0
C822 C 0.06722 0.63061 0.69519 0.0
C823 C 0.03618 0.60358 0.70568 0.0
H824 H 0.15578 0.70226 0.68852 0.0
C825 C 0.07487 0.63135 0.71783 0.0
H826 H 0.03937 0.61104 0.68563 0.0
C827 C 0.14024 0.68427 0.71948 0.0
C828 C 0.17092 0.71178 0.70905 0.0
H829 H 0.05288 0.61289 0.72619 0.0
H830 H 0.16704 0.7036 0.72909 0.0
C831 C 0.134 0.68342 0.69683 0.0
C832 C 0.47826 0.1616 0.40434 0.0
C833 C 0.40129 0.20867 0.40725 0.0
H834 H 0.59794 0.11731 0.39121 0.0
C835 C 0.39448 0.25204 0.39922 0.0
H836 H 0.48634 0.12771 0.41032 0.0
C837 C 0.45984 0.24625 0.38812 0.0
C838 C 0.53266 0.19701 0.38494 0.0
H839 H 0.33629 0.28918 0.4013 0.0
H840 H 0.44881 0.27795 0.3817 0.0
C841 C 0.54297 0.15597 0.39339 0.0
C842 C 0.97374 0.13178 0.39116 0.0
C843 C 0.89737 0.08432 0.38835 0.0
H844 H 0.09402 0.17681 0.40413 0.0
C845 C 0.89192 0.04124 0.39645 0.0
H846 H 0.98094 0.16546 0.38512 0.0
C847 C 0.95815 0.04758 0.40751 0.0
C848 C 0.03052 0.09716 0.41059 0.0
H849 H 0.83431 1.00377 0.39445 0.0
H850 H 0.9484 1.01589 0.41396 0.0
C851 C 0.03924 0.138 0.40207 0.0
C852 C 0.53219 0.15197 0.90289 0.0
C853 C 0.53852 0.10672 0.91045 0.0
H854 H 0.46148 0.1814 0.88675 0.0
C855 C 0.47896 0.05249 0.90653 0.0
H856 H 0.57703 0.19434 0.90553 0.0
C857 C 0.41141 0.04517 0.89556 0.0
C858 C 0.40284 0.09182 0.88836 0.0
H859 H 0.48115 1.017 0.91216 0.0
H860 H 0.36454 1.00357 0.89286 0.0
C861 C 0.46548 0.14471 0.89208 0.0
C862 C 0.89825 0.25695 0.89884 0.0
C863 C 0.91421 0.2178 0.90761 0.0
H864 H 0.9432 0.2778 0.88052 0.0
C865 C 0.99753 0.1739 0.90521 0.0
H866 H 0.83487 0.29147 0.9005 0.0
C867 C 0.05934 0.16679 0.89404 0.0
C868 C 0.04007 0.20327 0.88488 0.0
H869 H 0.01263 0.14319 0.91175 0.0
H870 H 0.1191 0.13028 0.89226 0.0
C871 C 0.96102 0.24976 0.88751 0.0
C872 C 0.53338 0.80227 0.65757 0.0
C873 C 0.483 0.85933 0.6618 0.0
H874 H 0.63375 0.74705 0.64308 0.0
C875 C 0.49425 0.9038 0.65412 0.0
H876 H 0.52707 0.76699 0.66323 0.0
C877 C 0.55476 0.89264 0.64281 0.0
C878 C 0.60674 0.83648 0.63862 0.0
H879 H 0.45688 0.94831 0.65688 0.0
H880 H 0.56157 0.92882 0.63738 0.0
C881 C 0.59501 0.79101 0.64608 0.0
C882 C 0.99348 0.88585 0.64067 0.0
C883 C 0.98144 0.93066 0.63307 0.0
H884 H 0.06153 0.86039 0.65733 0.0
C885 C 0.03101 0.98786 0.63741 0.0
H886 H 0.95674 0.84121 0.63783 0.0
C887 C 0.0927 0.99894 0.6489 0.0
C888 C 0.1053 0.95313 0.65626 0.0
H889 H 0.02408 0.02341 0.63183 0.0
H890 H 0.13085 0.04302 0.65198 0.0
C891 C 0.05405 0.89682 0.65198 0.0
C892 C 0.61018 1.00992 0.14978 0.0
C893 C 0.59786 0.96941 0.15834 0.0
H894 H 0.56483 0.0306 0.13144 0.0
C895 C 0.5212 0.92208 0.15546 0.0
H896 H 0.66834 0.04711 0.15181 0.0
C897 C 0.46235 0.91323 0.14408 0.0
C898 C 0.47789 0.95133 0.13514 0.0
H899 H 0.50912 0.89011 0.16181 0.0
H900 H 0.40768 0.87439 0.142 0.0
C901 C 0.55019 1.001 0.13822 0.0
C902 C 0.9821 0.90425 0.15358 0.0
C903 C 0.98558 0.864 0.16231 0.0
H904 H 0.04279 0.92793 0.1363 0.0
C905 C 0.05521 0.81294 0.15938 0.0
H906 H 0.92947 0.94399 0.15536 0.0
C907 C 0.1217 0.80389 0.14826 0.0
C908 C 0.1196 0.84547 0.13979 0.0
H909 H 0.06112 0.78123 0.16587 0.0
H910 H 0.17591 0.76486 0.1464 0.0
C911 C 0.04759 0.89516 0.14257 0.0
C912 C 0.49142 0.73588 0.8867 0.0
C913 C 0.54244 0.67901 0.88243 0.0
H914 H 0.39097 0.79081 0.90126 0.0
C915 C 0.53221 0.63462 0.89017 0.0
H916 H 0.4969 0.77116 0.88104 0.0
C917 C 0.47215 0.64563 0.90153 0.0
C918 C 0.41945 0.70157 0.90575 0.0
H919 H 0.57007 0.59025 0.88741 0.0
H920 H 0.46622 0.60948 0.90697 0.0
C921 C 0.43021 0.74699 0.89825 0.0
C922 C 0.04507 0.64784 0.90281 0.0
C923 C 0.04601 0.60578 0.91113 0.0
H924 H 0.98566 0.67147 0.88556 0.0
C925 C 0.98633 0.55121 0.90748 0.0
H926 H 0.09014 0.69027 0.90514 0.0
C927 C 0.92485 0.54036 0.89597 0.0
C928 C 0.92265 0.58372 0.88792 0.0
H929 H 0.98459 0.51791 0.91364 0.0
H930 H 0.87827 0.49856 0.89347 0.0
C931 C 0.98473 0.63706 0.89148 0.0
C932 C 0.45721 0.6434 0.39271 0.0
C933 C 0.41459 0.5854 0.38786 0.0
H934 H 0.54701 0.70071 0.4073 0.0
C935 C 0.43408 0.5385 0.39478 0.0
H936 H 0.44392 0.68076 0.38773 0.0
C937 C 0.49495 0.55001 0.40634 0.0
C938 C 0.53675 0.60871 0.41117 0.0
H939 H 0.4026 0.49312 0.39127 0.0
H940 H 0.5081 0.5134 0.41151 0.0
C941 C 0.51687 0.6548 0.40407 0.0
C942 C 0.92943 0.74689 0.39761 0.0
C943 C 0.91486 0.70114 0.40496 0.0
H944 H 0.99943 0.77085 0.38055 0.0
C945 C 0.96352 0.64419 0.40057 0.0
H946 H 0.89334 0.79147 0.40075 0.0
C947 C 0.02366 0.63261 0.38923 0.0
C948 C 0.03802 0.67743 0.38167 0.0
H949 H 0.95454 0.60774 0.4059 0.0
H950 H 0.05845 0.58752 0.38635 0.0
C951 C 0.99067 0.7352 0.38607 0.0
C952 C 0.51779 0.39095 0.15362 0.0
C953 C 0.49578 0.34273 0.16003 0.0
H954 H 0.59269 0.4206 0.13787 0.0
C955 C 0.53191 0.28386 0.15448 0.0
H956 H 0.49125 0.43703 0.15747 0.0
C957 C 0.59149 0.27435 0.14289 0.0
C958 C 0.61463 0.32358 0.13677 0.0
H959 H 0.51659 0.24587 0.1592 0.0
H960 H 0.6196 0.22893 0.13876 0.0
C961 C 0.5763 0.3816 0.14226 0.0
C962 C 0.06263 0.38667 0.15053 0.0
C963 C 0.12536 0.43979 0.15404 0.0
H964 H 0.95175 0.33519 0.13722 0.0
C965 C 0.11829 0.4845 0.14631 0.0
H966 H 0.06505 0.35139 0.15623 0.0
C967 C 0.05185 0.47531 0.13519 0.0
C968 C 0.9915 0.42102 0.13153 0.0
H969 H 0.16501 0.52627 0.14878 0.0
H970 H 0.05025 0.50976 0.12929 0.0
C971 C 0.99716 0.37749 0.13954 0.0
C972 C 0.49724 0.39861 0.64096 0.0
C973 C 0.49517 0.44315 0.63323 0.0
H974 H 0.5594 0.37032 0.65758 0.0
C975 C 0.55272 0.49789 0.63741 0.0
H976 H 0.45363 0.35592 0.63814 0.0
C977 C 0.61475 0.50622 0.64884 0.0
C978 C 0.61951 0.46 0.65619 0.0
H979 H 0.55344 0.53287 0.63164 0.0
H980 H 0.66047 0.54806 0.65178 0.0
C981 C 0.55839 0.40677 0.65217 0.0
C982 C 0.06515 0.39642 0.64219 0.0
C983 C 0.123 0.34218 0.63805 0.0
H984 H 0.95877 0.44738 0.65607 0.0
C985 C 0.11151 0.29475 0.64501 0.0
H986 H 0.07141 0.43374 0.63707 0.0
C987 C 0.04568 0.3025 0.65613 0.0
C988 C 0.99073 0.35792 0.66045 0.0
H989 H 0.1546 0.25211 0.64198 0.0
H990 H 0.04091 0.26619 0.66154 0.0
C991 C 1.00014 0.40409 0.65315 0.0
C992 C 0.26206 0.23338 0.53175 0.0
C993 C 0.28514 0.29594 0.53517 0.0
H994 H 0.21792 0.15837 0.51689 0.0
C995 C 0.28056 0.33073 0.52536 0.0
H996 H 0.26387 0.20494 0.53892 0.0
C997 C 0.25374 0.3041 0.51265 0.0
C998 C 0.23069 0.24157 0.50922 0.0
H999 H 0.29808 0.37907 0.52747 0.0
H1000 H 0.25205 0.33257 0.50548 0.0
C1001 C 0.23532 0.20672 0.51902 0.0
C1002 C 0.89426 0.02369 0.52611 0.0
C1003 C 0.96921 0.99447 0.53296 0.0
H1004 H 0.8675 0.06628 0.50995 0.0
C1005 C 0.07771 0.98603 0.52851 0.0
H1006 H 0.81013 0.0309 0.52931 0.0
C1007 C 0.11059 1.00635 0.51744 0.0
C1008 C 0.03562 0.0355 0.51058 0.0
H1009 H 0.13739 0.9638 0.5336 0.0
H1010 H 0.19476 0.99919 0.51424 0.0
C1011 C 0.92713 0.04398 0.51503 0.0
C1012 C 0.24929 0.05803 0.76375 0.0
C1013 C 0.2857 0.99754 0.76056 0.0
H1014 H 0.19376 0.13062 0.77844 0.0
C1015 C 0.2948 0.96393 0.77051 0.0
H1016 H 0.23978 0.08512 0.7564 0.0
C1017 C 0.26781 0.98988 0.78323 0.0
C1018 C 0.23097 0.05034 0.78642 0.0
H1019 H 0.32335 0.91724 0.76849 0.0
H1020 H 0.27708 0.96276 0.79058 0.0
C1021 C 0.22228 0.08395 0.77646 0.0
C1022 C 0.06097 0.31108 0.78187 0.0
C1023 C 0.03459 0.25256 0.78394 0.0
H1024 H 0.0549 0.37408 0.76901 0.0
C1025 C 0.98002 0.21201 0.77423 0.0
H1026 H 0.1026 0.34341 0.7892 0.0
C1027 C 0.95282 0.22955 0.76267 0.0
C1028 C 0.97983 0.28794 0.76057 0.0
H1029 H 0.95907 0.16651 0.77552 0.0
H1030 H 0.91125 0.19723 0.75534 0.0
C1031 C 0.03388 0.32859 0.77031 0.0
C1032 C 0.75484 0.80757 0.51276 0.0
C1033 C 0.74346 0.74439 0.50893 0.0
H1034 H 0.7825 0.88221 0.5282 0.0
C1035 C 0.75088 0.70758 0.51831 0.0
H1036 H 0.75018 0.83716 0.50582 0.0
C1037 C 0.76957 0.73326 0.53118 0.0
C1038 C 0.78095 0.79643 0.53501 0.0
H1039 H 0.7416 0.65862 0.51575 0.0
H1040 H 0.77407 0.70367 0.53812 0.0
C1041 C 0.77344 0.83325 0.52563 0.0
C1042 C 0.76253 0.96104 0.27051 0.0
C1043 C 0.77389 0.99693 0.26099 0.0
H1044 H 0.7314 0.95853 0.29027 0.0
C1045 C 0.76178 0.06022 0.26464 0.0
H1046 H 0.77192 0.91203 0.26812 0.0
C1047 C 0.73833 0.08677 0.27738 0.0
C1048 C 0.72656 0.05093 0.28691 0.0
H1049 H 0.76939 0.08932 0.25764 0.0
H1050 H 0.72899 0.13578 0.27973 0.0
C1051 C 0.73921 0.98762 0.28327 0.0
C1052 C 0.10709 0.79161 0.27818 0.0
C1053 C 0.05092 0.74448 0.28247 0.0
H1054 H 0.11269 0.85115 0.26463 0.0
C1055 C 0.95447 0.72109 0.27616 0.0
H1056 H 0.18141 0.81068 0.2829 0.0
C1057 C 0.91495 0.74439 0.26573 0.0
C1058 C 0.97115 0.79151 0.26144 0.0
H1059 H 0.90936 0.68486 0.27929 0.0
H1060 H 0.84062 0.72535 0.26101 0.0
C1061 C 0.06757 0.81491 0.26775 0.0
C1062 C 0.27512 0.83265 0.02705 0.0
C1063 C 0.28993 0.79629 0.03647 0.0
H1064 H 0.241 0.83639 1.00739 0.0
C1065 C 0.27974 0.73293 0.03258 0.0
H1066 H 0.28224 0.88174 0.02953 0.0
C1067 C 0.25588 0.70695 1.01974 0.0
C1068 C 0.24143 0.74338 1.01033 0.0
H1069 H 0.29015 0.70328 0.03943 0.0
H1070 H 0.24879 0.65787 1.01722 0.0
C1071 C 0.25121 0.80671 1.01424 0.0
C1072 C 0.06998 0.48005 1.01262 0.0
C1073 C 0.03903 0.53808 1.01067 0.0
H1074 H 0.058 0.41345 0.02461 0.0
C1075 C 0.96998 0.574 1.01963 0.0
H1076 H 0.12281 0.45127 1.00584 0.0
C1077 C 0.9327 0.55229 0.03037 0.0
C1078 C 0.96385 0.49429 0.03233 0.0
H1079 H 0.945 0.61896 1.01838 0.0
H1080 H 0.88009 0.5811 0.03717 0.0
C1081 C 0.03276 0.45836 0.02335 0.0
C1082 C 0.26344 0.57741 0.27377 0.0
C1083 C 0.25053 0.54086 0.28317 0.0
H1084 H 0.29418 0.58104 0.25403 0.0
C1085 C 0.25911 0.47754 0.27928 0.0
H1086 H 0.25681 0.62651 0.27632 0.0
C1087 C 0.28061 0.45161 0.26645 0.0
C1088 C 0.29398 0.48809 0.25704 0.0
H1089 H 0.25003 0.44792 0.28616 0.0
H1090 H 0.28719 0.4025 0.26394 0.0
C1091 C 0.28486 0.55144 0.26091 0.0
C1092 C 0.73744 0.19969 1.01742 0.0
C1093 C 0.7163 0.23583 1.00817 0.0
H1094 H 0.77836 0.19717 0.03692 0.0
C1095 C 0.72107 0.29939 1.01193 0.0
H1096 H 0.73437 0.15047 1.01492 0.0
C1097 C 0.74649 0.32606 0.02458 0.0
C1098 C 0.76762 0.28992 0.03384 0.0
H1099 H 0.70602 0.32861 1.00508 0.0
H1100 H 0.74998 0.37529 0.02708 0.0
C1101 C 0.76287 0.22637 0.03008 0.0
C1102 C 0.77304 0.57794 0.77478 0.0
C1103 C 0.75575 0.54167 0.78412 0.0
H1104 H 0.80845 0.58096 0.75516 0.0
C1105 C 0.76171 0.47817 0.7803 0.0
H1106 H 0.76845 0.62713 0.77729 0.0
C1107 C 0.78476 0.45176 0.76754 0.0
C1108 C 0.80238 0.48807 0.75821 0.0
H1109 H 0.7491 0.4488 0.78717 0.0
H1110 H 0.789 0.40258 0.76502 0.0
C1111 C 0.79613 0.55155 0.76203 0.0
C1112 C 0.46139 0.06527 1.01849 0.0
C1113 C 0.54263 0.03393 1.01045 0.0
H1114 H 0.37013 0.07218 0.03594 0.0
C1115 C 0.59513 0.98406 1.01416 0.0
H1116 H 0.4197 0.10399 1.01592 0.0
C1117 C 0.56672 0.9658 0.02562 0.0
C1118 C 0.48533 0.99709 0.03365 0.0
H1119 H 0.65808 0.95898 1.00817 0.0
H1120 H 0.60839 0.92709 0.02819 0.0
C1121 C 0.43307 0.04707 0.02996 0.0
C1122 C 0.49267 0.21026 0.27363 0.0
C1123 C 0.53736 0.25232 0.28386 0.0
H1124 H 0.43273 0.19438 0.25432 0.0
C1125 C 0.55574 0.31242 0.28222 0.0
H1126 H 0.47825 0.16351 0.27456 0.0
C1127 C 0.52982 0.33009 0.27061 0.0
C1128 C 0.48511 0.28802 0.26038 0.0
H1129 H 0.58983 0.34593 0.28992 0.0
H1130 H 0.54422 0.37683 0.26968 0.0
C1131 C 0.4668 0.22791 0.26203 0.0
C1132 C 0.46843 0.71709 0.77541 0.0
C1133 C 0.55795 0.74462 0.78259 0.0
H1134 H 0.36204 0.71708 0.75936 0.0
C1135 C 0.60937 0.79477 0.77888 0.0
H1136 H 0.42705 0.67845 0.77805 0.0
C1137 C 0.572 0.81697 0.76822 0.0
C1138 C 0.48248 0.78946 0.76104 0.0
H1139 H 0.67826 0.81707 0.78427 0.0
H1140 H 0.61322 0.85571 0.7656 0.0
C1141 C 0.43108 0.73929 0.76473 0.0
C1142 C 0.54718 0.46628 0.52411 0.0
C1143 C 0.48318 0.50372 0.53341 0.0
H1144 H 0.62955 0.45665 0.50604 0.0
C1145 C 0.45292 0.56182 0.53142 0.0
H1146 H 0.57142 0.4212 0.52537 0.0
C1147 C 0.48615 0.5821 0.52035 0.0
C1148 C 0.55034 0.54471 0.51106 0.0
H1149 H 0.40382 0.59174 0.53843 0.0
H1150 H 0.46184 0.62715 0.51909 0.0
C1151 C 0.58051 0.48659 0.51305 0.0
loop_
_geom_bond_atom_site_label_1
_geom_bond_atom_site_label_2
_geom_bond_distance
_geom_bond_site_symmetry_2
_ccdc_geom_bond_type
Co0 H3 2.400 . S
Co0 O4 2.009 . S
Co0 O12 2.115 . S
Co0 O13 2.315 . S
Co0 O24 2.053 . S
Co0 O27 2.094 . S
Co0 O30 2.122 . S
Co1 O4 2.126 . S
Co1 H5 2.388 . S
Co1 O6 2.053 . S
Co1 O9 2.047 . S
Co1 O15 2.113 . S
Co1 O26 2.063 . S
Co2 H3 2.388 . S
Co2 O4 2.053 . S
Co2 O6 2.126 . S
Co2 O11 2.063 . S
Co2 O25 2.047 . S
Co2 O31 2.113 . S
H3 Co0 2.400 . S
H3 Co2 2.388 . S
H3 O4 0.760 . S
O4 Co0 2.009 . S
O4 Co1 2.126 . S
O4 Co2 2.053 . S
O4 H3 0.760 . S
H5 Co1 2.388 . S
H5 O6 0.760 . S
H5 Co7 2.400 . S
O6 Co1 2.053 . S
O6 Co2 2.126 . S
O6 H5 0.760 . S
O6 Co7 2.009 . S
Co7 H5 2.400 . S
Co7 O6 2.009 . S
Co7 O8 2.053 1_545 S
Co7 O10 2.094 . S
Co7 O14 2.122 . S
Co7 O28 2.115 . S
Co7 O29 2.315 . S
O8 Co7 2.053 1_565 S
O8 C20 1.259 1_455 S
O9 Co1 2.047 . S
O9 C20 1.257 1_445 S
O10 Co7 2.094 . S
O10 C21 1.253 . S
O11 Co2 2.063 . S
O11 C21 1.268 . S
O12 Co0 2.115 . S
O12 C22 1.281 . S
O13 Co0 2.315 . S
O13 C22 1.252 . S
O14 Co7 2.122 . S
O14 C23 1.272 1_545 S
O15 Co1 2.113 . S
O15 C23 1.245 1_545 S
C16 O24 1.259 . S
C16 O25 1.257 . S
C17 O26 1.268 . S
C17 O27 1.253 . S
C18 O28 1.281 . S
C18 O29 1.252 . S
C19 O30 1.272 . S
C19 O31 1.245 . S
C20 O8 1.259 1_655 S
C20 O9 1.257 1_665 S
C21 O10 1.253 . S
C21 O11 1.268 . S
C22 O12 1.281 . S
C22 O13 1.252 . S
C23 O14 1.272 1_565 S
C23 O15 1.245 1_565 S
O24 Co0 2.053 . S
O24 C16 1.259 . S
O25 Co2 2.047 . S
O25 C16 1.257 . S
O26 Co1 2.063 . S
O26 C17 1.268 . S
O27 Co0 2.094 . S
O27 C17 1.253 . S
O28 Co7 2.115 . S
O28 C18 1.281 . S
O29 Co7 2.315 . S
O29 C18 1.252 . S
O30 Co0 2.122 . S
O30 C19 1.272 . S
O31 Co2 2.113 . S
O31 C19 1.245 . S
Co32 H35 2.400 . S
Co32 O36 2.009 . S
Co32 O44 2.115 . S
Co32 O45 2.315 . S
Co32 O56 2.053 1_545 S
Co32 O59 2.094 . S
Co32 O62 2.126 . S
Co33 O36 2.126 . S
Co33 H37 2.388 . S
Co33 O38 2.053 . S
Co33 O41 2.047 . S
Co33 O47 2.113 . S
Co33 O58 2.063 . S
Co34 H35 2.388 . S
Co34 O36 2.053 . S
Co34 O38 2.126 . S
Co34 O43 2.063 . S
Co34 O57 2.047 1_545 S
Co34 O63 2.113 . S
H35 Co32 2.400 . S
H35 Co34 2.388 . S
H35 O36 0.760 . S
O36 Co32 2.009 . S
O36 Co33 2.126 . S
O36 Co34 2.053 . S
O36 H35 0.760 . S
H37 Co33 2.388 . S
H37 O38 0.760 . S
H37 Co39 2.400 . S
O38 Co33 2.053 . S
O38 Co34 2.126 . S
O38 H37 0.760 . S
O38 Co39 2.009 . S
Co39 H37 2.400 . S
Co39 O38 2.009 . S
Co39 O40 2.053 . S
Co39 O42 2.094 . S
Co39 O46 2.122 . S
Co39 O60 2.115 . S
Co39 O61 2.315 . S
O40 Co39 2.053 . S
O40 C52 1.259 1_455 S
O41 Co33 2.047 . S
O41 C52 1.257 1_455 S
O42 Co39 2.094 . S
O42 C53 1.253 . S
O43 Co34 2.063 . S
O43 C53 1.268 . S
O44 Co32 2.115 . S
O44 C54 1.281 . S
O45 Co32 2.315 . S
O45 C54 1.252 . S
O46 Co39 2.122 . S
O46 C55 1.272 . S
O47 Co33 2.113 . S
O47 C55 1.245 . S
C48 O56 1.259 . S
C48 O57 1.257 . S
C49 O58 1.268 . S
C49 O59 1.253 . S
C50 O60 1.281 . S
C50 O61 1.252 . S
C51 O62 1.271 1_565 S
C51 O63 1.245 1_565 S
C52 O40 1.259 1_655 S
C52 O41 1.257 1_655 S
C53 O42 1.253 . S
C53 O43 1.268 . S
C54 O44 1.281 . S
C54 O45 1.252 . S
C55 O46 1.272 . S
C55 O47 1.245 . S
O56 Co32 2.053 1_565 S
O56 C48 1.259 . S
O57 Co34 2.047 1_565 S
O57 C48 1.257 . S
O58 Co33 2.063 . S
O58 C49 1.268 . S
O59 Co32 2.094 . S
O59 C49 1.253 . S
O60 Co39 2.115 . S
O60 C50 1.281 . S
O61 Co39 2.315 . S
O61 C50 1.252 . S
O62 Co32 2.126 . S
O62 C51 1.271 1_545 S
O63 Co34 2.113 . S
O63 C51 1.245 1_545 S
Co64 H67 2.400 . S
Co64 O68 2.009 . S
Co64 O76 2.115 . S
Co64 O77 2.315 . S
Co64 O88 2.053 1_565 S
Co64 O91 2.094 . S
Co64 O94 2.122 . S
Co65 O68 2.126 . S
Co65 H69 2.388 . S
Co65 O70 2.053 . S
Co65 O73 2.047 . S
Co65 O79 2.113 . S
Co65 O90 2.063 . S
Co66 H67 2.388 . S
Co66 O68 2.053 . S
Co66 O70 2.126 . S
Co66 O75 2.063 . S
Co66 O89 2.047 . S
Co66 O95 2.113 . S
H67 Co64 2.400 . S
H67 Co66 2.388 . S
H67 O68 0.760 . S
O68 Co64 2.009 . S
O68 Co65 2.126 . S
O68 Co66 2.053 . S
O68 H67 0.760 . S
H69 Co65 2.388 . S
H69 O70 0.760 . S
H69 Co71 2.400 . S
O70 Co65 2.053 . S
O70 Co66 2.126 . S
O70 H69 0.760 . S
O70 Co71 2.009 . S
Co71 H69 2.400 . S
Co71 O70 2.009 . S
Co71 O72 2.053 . S
Co71 O74 2.094 . S
Co71 O78 2.122 . S
Co71 O92 2.115 . S
Co71 O93 2.315 . S
O72 Co71 2.053 . S
O72 C84 1.259 . S
O73 Co65 2.047 . S
O73 C84 1.257 . S
O74 Co71 2.094 . S
O74 C85 1.253 . S
O75 Co66 2.063 . S
O75 C85 1.268 . S
O76 Co64 2.115 . S
O76 C86 1.281 . S
O77 Co64 2.315 . S
O77 C86 1.252 . S
O78 Co71 2.122 . S
O78 C87 1.272 . S
O79 Co65 2.113 . S
O79 C87 1.245 . S
C80 O88 1.259 1_455 S
C80 O89 1.257 1_445 S
C81 O90 1.268 . S
C81 O91 1.253 . S
C82 O92 1.281 . S
C82 O93 1.252 . S
C83 O94 1.272 1_545 S
C83 O95 1.245 1_545 S
C84 O72 1.259 . S
C84 O73 1.257 . S
C85 O74 1.253 . S
C85 O75 1.268 . S
C86 O76 1.281 . S
C86 O77 1.252 . S
C87 O78 1.272 . S
C87 O79 1.245 . S
O88 Co64 2.053 1_545 S
O88 C80 1.259 1_655 S
O89 Co66 2.047 . S
O89 C80 1.257 1_665 S
O90 Co65 2.063 . S
O90 C81 1.268 . S
O91 Co64 2.094 . S
O91 C81 1.253 . S
O92 Co71 2.115 . S
O92 C82 1.281 . S
O93 Co71 2.315 . S
O93 C82 1.252 . S
O94 Co64 2.122 . S
O94 C83 1.272 1_565 S
O95 Co66 2.113 . S
O95 C83 1.245 1_565 S
Co96 H99 2.400 . S
Co96 O100 2.009 . S
Co96 O108 2.115 . S
Co96 O109 2.315 . S
Co96 O120 2.053 . S
Co96 O123 2.094 . S
Co96 O126 2.122 . S
Co97 O100 2.126 . S
Co97 H101 2.388 . S
Co97 O102 2.053 . S
Co97 O105 2.047 1_565 S
Co97 O111 2.113 . S
Co97 O122 2.063 . S
Co98 H99 2.388 . S
Co98 O100 2.053 . S
Co98 O102 2.126 . S
Co98 O107 2.063 . S
Co98 O121 2.047 . S
Co98 O127 2.113 . S
H99 Co96 2.400 . S
H99 Co98 2.388 . S
H99 O100 0.760 . S
O100 Co96 2.009 . S
O100 Co97 2.126 . S
O100 Co98 2.053 . S
O100 H99 0.760 . S
H101 Co97 2.388 . S
H101 O102 0.760 . S
H101 Co103 2.400 . S
O102 Co97 2.053 . S
O102 Co98 2.126 . S
O102 H101 0.760 . S
O102 Co103 2.009 . S
Co103 H101 2.400 . S
Co103 O102 2.009 . S
Co103 O104 2.053 1_565 S
Co103 O106 2.094 . S
Co103 O110 2.126 . S
Co103 O124 2.115 . S
Co103 O125 2.315 . S
O104 Co103 2.053 1_545 S
O104 C116 1.259 . S
O105 Co97 2.047 1_545 S
O105 C116 1.257 . S
O106 Co103 2.094 . S
O106 C117 1.253 . S
O107 Co98 2.063 . S
O107 C117 1.268 . S
O108 Co96 2.115 . S
O108 C118 1.281 . S
O109 Co96 2.315 . S
O109 C118 1.252 . S
O110 Co103 2.126 . S
O110 C119 1.271 1_565 S
O111 Co97 2.113 . S
O111 C119 1.245 1_565 S
C112 O120 1.259 1_455 S
C112 O121 1.257 1_455 S
C113 O122 1.268 . S
C113 O123 1.253 . S
C114 O124 1.281 . S
C114 O125 1.252 . S
C115 O126 1.272 . S
C115 O127 1.245 . S
C116 O104 1.259 . S
C116 O105 1.257 . S
C117 O106 1.253 . S
C117 O107 1.268 . S
C118 O108 1.281 . S
C118 O109 1.252 . S
C119 O110 1.271 1_545 S
C119 O111 1.245 1_545 S
O120 Co96 2.053 . S
O120 C112 1.259 1_655 S
O121 Co98 2.047 . S
O121 C112 1.257 1_655 S
O122 Co97 2.063 . S
O122 C113 1.268 . S
O123 Co96 2.094 . S
O123 C113 1.253 . S
O124 Co103 2.115 . S
O124 C114 1.281 . S
O125 Co103 2.315 . S
O125 C114 1.252 . S
O126 Co96 2.122 . S
O126 C115 1.272 . S
O127 Co98 2.113 . S
O127 C115 1.245 . S
Co128 H131 2.400 . S
Co128 O132 2.009 . S
Co128 O140 2.115 . S
Co128 O141 2.315 . S
Co128 O152 2.053 . S
Co128 O155 2.094 . S
Co128 O158 2.122 . S
Co129 O132 2.126 . S
Co129 H133 2.388 . S
Co129 O134 2.053 . S
Co129 O137 2.047 . S
Co129 O143 2.113 . S
Co129 O154 2.063 . S
Co130 H131 2.388 . S
Co130 O132 2.053 . S
Co130 O134 2.126 . S
Co130 O139 2.063 . S
Co130 O153 2.047 . S
Co130 O159 2.113 . S
H131 Co128 2.400 . S
H131 Co130 2.388 . S
H131 O132 0.760 . S
O132 Co128 2.009 . S
O132 Co129 2.126 . S
O132 Co130 2.053 . S
O132 H131 0.760 . S
H133 Co129 2.388 . S
H133 O134 0.760 . S
H133 Co135 2.400 . S
O134 Co129 2.053 . S
O134 Co130 2.126 . S
O134 H133 0.760 . S
O134 Co135 2.009 . S
Co135 H133 2.400 . S
Co135 O134 2.009 . S
Co135 O136 2.053 . S
Co135 O138 2.094 . S
Co135 O142 2.122 . S
Co135 O156 2.115 . S
Co135 O157 2.315 . S
O136 Co135 2.053 . S
O136 C148 1.259 1_455 S
O137 Co129 2.047 . S
O137 C148 1.257 1_455 S
O138 Co135 2.094 . S
O138 C149 1.253 . S
O139 Co130 2.063 . S
O139 C149 1.268 . S
O140 Co128 2.115 . S
O140 C150 1.281 . S
O141 Co128 2.315 . S
O141 C150 1.252 . S
O142 Co135 2.122 . S
O142 C151 1.272 . S
O143 Co129 2.113 . S
O143 C151 1.245 . S
C144 O152 1.259 . S
C144 O153 1.257 . S
C145 O154 1.268 . S
C145 O155 1.253 . S
C146 O156 1.281 . S
C146 O157 1.252 . S
C147 O158 1.272 . S
C147 O159 1.245 . S
C148 O136 1.259 1_655 S
C148 O137 1.257 1_655 S
C149 O138 1.253 . S
C149 O139 1.268 . S
C150 O140 1.281 . S
C150 O141 1.252 . S
C151 O142 1.272 . S
C151 O143 1.245 . S
O152 Co128 2.053 . S
O152 C144 1.259 . S
O153 Co130 2.047 . S
O153 C144 1.257 . S
O154 Co129 2.063 . S
O154 C145 1.268 . S
O155 Co128 2.094 . S
O155 C145 1.253 . S
O156 Co135 2.115 . S
O156 C146 1.281 . S
O157 Co135 2.315 . S
O157 C146 1.252 . S
O158 Co128 2.122 . S
O158 C147 1.272 . S
O159 Co130 2.113 . S
O159 C147 1.245 . S
Co160 H163 2.400 . S
Co160 O164 2.009 . S
Co160 O172 2.115 . S
Co160 O173 2.315 . S
Co160 O184 2.053 . S
Co160 O187 2.094 . S
Co160 O190 2.122 . S
Co161 O164 2.126 . S
Co161 H165 2.388 . S
Co161 O166 2.053 . S
Co161 O169 2.047 . S
Co161 O175 2.113 . S
Co161 O186 2.063 . S
Co162 H163 2.388 . S
Co162 O164 2.053 . S
Co162 O166 2.126 . S
Co162 O171 2.063 . S
Co162 O185 2.047 . S
Co162 O191 2.113 . S
H163 Co160 2.400 . S
H163 Co162 2.388 . S
H163 O164 0.760 . S
O164 Co160 2.009 . S
O164 Co161 2.126 . S
O164 Co162 2.053 . S
O164 H163 0.760 . S
H165 Co161 2.388 . S
H165 O166 0.760 . S
H165 Co167 2.400 . S
O166 Co161 2.053 . S
O166 Co162 2.126 . S
O166 H165 0.760 . S
O166 Co167 2.009 . S
Co167 H165 2.400 . S
Co167 O166 2.009 . S
Co167 O168 2.053 . S
Co167 O170 2.094 . S
Co167 O174 2.122 . S
Co167 O188 2.115 . S
Co167 O189 2.315 . S
O168 Co167 2.053 . S
O168 C180 1.259 1_455 S
O169 Co161 2.047 . S
O169 C180 1.257 1_455 S
O170 Co167 2.094 . S
O170 C181 1.253 . S
O171 Co162 2.063 . S
O171 C181 1.268 . S
O172 Co160 2.115 . S
O172 C182 1.281 . S
O173 Co160 2.315 . S
O173 C182 1.252 . S
O174 Co167 2.122 . S
O174 C183 1.272 . S
O175 Co161 2.113 . S
O175 C183 1.245 . S
C176 O184 1.259 . S
C176 O185 1.257 . S
C177 O186 1.268 . S
C177 O187 1.253 . S
C178 O188 1.281 . S
C178 O189 1.252 . S
C179 O190 1.272 . S
C179 O191 1.245 . S
C180 O168 1.259 1_655 S
C180 O169 1.257 1_655 S
C181 O170 1.253 . S
C181 O171 1.268 . S
C182 O172 1.281 . S
C182 O173 1.252 . S
C183 O174 1.272 . S
C183 O175 1.245 . S
O184 Co160 2.053 . S
O184 C176 1.259 . S
O185 Co162 2.047 . S
O185 C176 1.257 . S
O186 Co161 2.063 . S
O186 C177 1.268 . S
O187 Co160 2.094 . S
O187 C177 1.253 . S
O188 Co167 2.115 . S
O188 C178 1.281 . S
O189 Co167 2.315 . S
O189 C178 1.252 . S
O190 Co160 2.122 . S
O190 C179 1.272 . S
O191 Co162 2.113 . S
O191 C179 1.245 . S
Co192 H195 2.400 . S
Co192 O196 2.009 . S
Co192 O204 2.115 . S
Co192 O205 2.315 . S
Co192 O216 2.053 . S
Co192 O219 2.094 . S
Co192 O222 2.122 . S
Co193 O196 2.126 . S
Co193 H197 2.388 . S
Co193 O198 2.053 . S
Co193 O201 2.047 . S
Co193 O207 2.113 . S
Co193 O218 2.063 . S
Co194 H195 2.388 . S
Co194 O196 2.053 . S
Co194 O198 2.126 . S
Co194 O203 2.063 . S
Co194 O217 2.047 . S
Co194 O223 2.113 . S
H195 Co192 2.400 . S
H195 Co194 2.388 . S
H195 O196 0.760 . S
O196 Co192 2.009 . S
O196 Co193 2.126 . S
O196 Co194 2.053 . S
O196 H195 0.760 . S
H197 Co193 2.388 . S
H197 O198 0.760 . S
H197 Co199 2.400 . S
O198 Co193 2.053 . S
O198 Co194 2.126 . S
O198 H197 0.760 . S
O198 Co199 2.009 . S
Co199 H197 2.400 . S
Co199 O198 2.009 . S
Co199 O200 2.053 . S
Co199 O202 2.094 . S
Co199 O206 2.122 . S
Co199 O220 2.115 . S
Co199 O221 2.315 . S
O200 Co199 2.053 . S
O200 C212 1.259 . S
O201 Co193 2.047 . S
O201 C212 1.257 . S
O202 Co199 2.094 . S
O202 C213 1.253 . S
O203 Co194 2.063 . S
O203 C213 1.268 . S
O204 Co192 2.115 . S
O204 C214 1.281 . S
O205 Co192 2.315 . S
O205 C214 1.252 . S
O206 Co199 2.122 . S
O206 C215 1.272 . S
O207 Co193 2.113 . S
O207 C215 1.245 . S
C208 O216 1.259 1_455 S
C208 O217 1.257 1_455 S
C209 O218 1.268 . S
C209 O219 1.253 . S
C210 O220 1.281 . S
C210 O221 1.252 . S
C211 O222 1.272 . S
C211 O223 1.245 . S
C212 O200 1.259 . S
C212 O201 1.257 . S
C213 O202 1.253 . S
C213 O203 1.268 . S
C214 O204 1.281 . S
C214 O205 1.252 . S
C215 O206 1.272 . S
C215 O207 1.245 . S
O216 Co192 2.053 . S
O216 C208 1.259 1_655 S
O217 Co194 2.047 . S
O217 C208 1.257 1_655 S
O218 Co193 2.063 . S
O218 C209 1.268 . S
O219 Co192 2.094 . S
O219 C209 1.253 . S
O220 Co199 2.115 . S
O220 C210 1.281 . S
O221 Co199 2.315 . S
O221 C210 1.252 . S
O222 Co192 2.122 . S
O222 C211 1.272 . S
O223 Co194 2.113 . S
O223 C211 1.245 . S
Co224 H227 2.400 . S
Co224 O228 2.009 . S
Co224 O236 2.115 . S
Co224 O237 2.315 . S
Co224 O248 2.053 . S
Co224 O251 2.094 . S
Co224 O254 2.122 . S
Co225 O228 2.126 . S
Co225 H229 2.388 . S
Co225 O230 2.053 . S
Co225 O233 2.047 . S
Co225 O239 2.113 . S
Co225 O250 2.063 . S
Co226 H227 2.388 . S
Co226 O228 2.053 . S
Co226 O230 2.126 . S
Co226 O235 2.063 . S
Co226 O249 2.047 . S
Co226 O255 2.113 . S
H227 Co224 2.400 . S
H227 Co226 2.388 . S
H227 O228 0.760 . S
O228 Co224 2.009 . S
O228 Co225 2.126 . S
O228 Co226 2.053 . S
O228 H227 0.760 . S
H229 Co225 2.388 . S
H229 O230 0.760 . S
H229 Co231 2.400 . S
O230 Co225 2.053 . S
O230 Co226 2.126 . S
O230 H229 0.760 . S
O230 Co231 2.009 . S
Co231 H229 2.400 . S
Co231 O230 2.009 . S
Co231 O232 2.053 . S
Co231 O234 2.094 . S
Co231 O238 2.122 . S
Co231 O252 2.115 . S
Co231 O253 2.315 . S
O232 Co231 2.053 . S
O232 C244 1.259 . S
O233 Co225 2.047 . S
O233 C244 1.257 . S
O234 Co231 2.094 . S
O234 C245 1.253 . S
O235 Co226 2.063 . S
O235 C245 1.268 . S
O236 Co224 2.115 . S
O236 C246 1.281 . S
O237 Co224 2.315 . S
O237 C246 1.252 . S
O238 Co231 2.122 . S
O238 C247 1.272 . S
O239 Co225 2.113 . S
O239 C247 1.245 . S
C240 O248 1.259 1_455 S
C240 O249 1.257 1_455 S
C241 O250 1.268 . S
C241 O251 1.253 . S
C242 O252 1.281 . S
C242 O253 1.252 . S
C243 O254 1.272 . S
C243 O255 1.245 . S
C244 O232 1.259 . S
C244 O233 1.257 . S
C245 O234 1.253 . S
C245 O235 1.268 . S
C246 O236 1.281 . S
C246 O237 1.252 . S
C247 O238 1.272 . S
C247 O239 1.245 . S
O248 Co224 2.053 . S
O248 C240 1.259 1_655 S
O249 Co226 2.047 . S
O249 C240 1.257 1_655 S
O250 Co225 2.063 . S
O250 C241 1.268 . S
O251 Co224 2.094 . S
O251 C241 1.253 . S
O252 Co231 2.115 . S
O252 C242 1.281 . S
O253 Co231 2.315 . S
O253 C242 1.252 . S
O254 Co224 2.122 . S
O254 C243 1.272 . S
O255 Co226 2.113 . S
O255 C243 1.245 . S
Co256 H259 2.400 . S
Co256 O260 2.009 . S
Co256 O268 2.115 . S
Co256 O269 2.315 . S
Co256 O280 2.053 . S
Co256 O283 2.094 . S
Co256 O286 2.122 . S
Co257 O260 2.126 . S
Co257 H261 2.388 . S
Co257 O262 2.053 . S
Co257 O265 2.047 . S
Co257 O271 2.113 . S
Co257 O282 2.063 . S
Co258 H259 2.388 . S
Co258 O260 2.053 . S
Co258 O262 2.126 . S
Co258 O267 2.063 . S
Co258 O281 2.047 . S
Co258 O287 2.113 . S
H259 Co256 2.400 . S
H259 Co258 2.388 . S
H259 O260 0.760 . S
O260 Co256 2.009 . S
O260 Co257 2.126 . S
O260 Co258 2.053 . S
O260 H259 0.760 . S
H261 Co257 2.388 . S
H261 O262 0.760 . S
H261 Co263 2.400 . S
O262 Co257 2.053 . S
O262 Co258 2.126 . S
O262 H261 0.760 . S
O262 Co263 2.009 . S
Co263 H261 2.400 . S
Co263 O262 2.009 . S
Co263 O264 2.053 1_545 S
Co263 O266 2.094 . S
Co263 O270 2.122 . S
Co263 O284 2.115 . S
Co263 O285 2.315 . S
O264 Co263 2.053 1_565 S
O264 C276 1.259 . S
O265 Co257 2.047 . S
O265 C276 1.257 1_545 S
O266 Co263 2.094 . S
O266 C277 1.253 . S
O267 Co258 2.063 . S
O267 C277 1.268 . S
O268 Co256 2.115 . S
O268 C278 1.281 . S
O269 Co256 2.315 . S
O269 C278 1.252 . S
O270 Co263 2.122 . S
O270 C279 1.272 1_545 S
O271 Co257 2.113 . S
O271 C279 1.245 1_545 S
C272 O280 1.259 . S
C272 O281 1.257 . S
C273 O282 1.268 . S
C273 O283 1.253 . S
C274 O284 1.281 . S
C274 O285 1.252 . S
C275 O286 1.272 . S
C275 O287 1.245 . S
C276 O264 1.259 . S
C276 O265 1.257 1_565 S
C277 O266 1.253 . S
C277 O267 1.268 . S
C278 O268 1.281 . S
C278 O269 1.252 . S
C279 O270 1.272 1_565 S
C279 O271 1.245 1_565 S
O280 Co256 2.053 . S
O280 C272 1.259 . S
O281 Co258 2.047 . S
O281 C272 1.257 . S
O282 Co257 2.063 . S
O282 C273 1.268 . S
O283 Co256 2.094 . S
O283 C273 1.253 . S
O284 Co263 2.115 . S
O284 C274 1.281 . S
O285 Co263 2.315 . S
O285 C274 1.252 . S
O286 Co256 2.122 . S
O286 C275 1.272 . S
O287 Co258 2.113 . S
O287 C275 1.245 . S
Co288 H291 2.400 . S
Co288 O292 2.009 . S
Co288 O300 2.115 . S
Co288 O301 2.315 . S
Co288 O312 2.053 1_545 S
Co288 O315 2.094 . S
Co288 O318 2.126 . S
Co289 O292 2.126 . S
Co289 H293 2.388 . S
Co289 O294 2.053 . S
Co289 O297 2.047 . S
Co289 O303 2.113 . S
Co289 O314 2.063 . S
Co290 H291 2.388 . S
Co290 O292 2.053 . S
Co290 O294 2.126 . S
Co290 O299 2.063 . S
Co290 O313 2.047 1_545 S
Co290 O319 2.113 . S
H291 Co288 2.400 . S
H291 Co290 2.388 . S
H291 O292 0.760 . S
O292 Co288 2.009 . S
O292 Co289 2.126 . S
O292 Co290 2.053 . S
O292 H291 0.760 . S
H293 Co289 2.388 . S
H293 O294 0.760 . S
H293 Co295 2.400 . S
O294 Co289 2.053 . S
O294 Co290 2.126 . S
O294 H293 0.760 . S
O294 Co295 2.009 . S
Co295 H293 2.400 . S
Co295 O294 2.009 . S
Co295 O296 2.053 . S
Co295 O298 2.094 . S
Co295 O302 2.122 . S
Co295 O316 2.115 . S
Co295 O317 2.315 . S
O296 Co295 2.053 . S
O296 C308 1.259 . S
O297 Co289 2.047 . S
O297 C308 1.257 . S
O298 Co295 2.094 . S
O298 C309 1.253 . S
O299 Co290 2.063 . S
O299 C309 1.268 . S
O300 Co288 2.115 . S
O300 C310 1.281 . S
O301 Co288 2.315 . S
O301 C310 1.252 . S
O302 Co295 2.122 . S
O302 C311 1.272 . S
O303 Co289 2.113 . S
O303 C311 1.245 . S
C304 O312 1.259 . S
C304 O313 1.257 . S
C305 O314 1.268 . S
C305 O315 1.253 . S
C306 O316 1.281 . S
C306 O317 1.252 . S
C307 O318 1.271 1_565 S
C307 O319 1.245 1_565 S
C308 O296 1.259 . S
C308 O297 1.257 . S
C309 O298 1.253 . S
C309 O299 1.268 . S
C310 O300 1.281 . S
C310 O301 1.252 . S
C311 O302 1.272 . S
C311 O303 1.245 . S
O312 Co288 2.053 1_565 S
O312 C304 1.259 . S
O313 Co290 2.047 1_565 S
O313 C304 1.257 . S
O314 Co289 2.063 . S
O314 C305 1.268 . S
O315 Co288 2.094 . S
O315 C305 1.253 . S
O316 Co295 2.115 . S
O316 C306 1.281 . S
O317 Co295 2.315 . S
O317 C306 1.252 . S
O318 Co288 2.126 . S
O318 C307 1.271 1_545 S
O319 Co290 2.113 . S
O319 C307 1.245 1_545 S
Co320 H323 2.400 . S
Co320 O324 2.009 . S
Co320 O332 2.115 . S
Co320 O333 2.315 . S
Co320 O344 2.053 1_565 S
Co320 O347 2.094 . S
Co320 O350 2.122 . S
Co321 O324 2.126 . S
Co321 H325 2.388 . S
Co321 O326 2.053 . S
Co321 O329 2.047 . S
Co321 O335 2.113 . S
Co321 O346 2.063 . S
Co322 H323 2.388 . S
Co322 O324 2.053 . S
Co322 O326 2.126 . S
Co322 O331 2.063 . S
Co322 O345 2.047 . S
Co322 O351 2.113 . S
H323 Co320 2.400 . S
H323 Co322 2.388 . S
H323 O324 0.760 . S
O324 Co320 2.009 . S
O324 Co321 2.126 . S
O324 Co322 2.053 . S
O324 H323 0.760 . S
H325 Co321 2.388 . S
H325 O326 0.760 . S
H325 Co327 2.400 . S
O326 Co321 2.053 . S
O326 Co322 2.126 . S
O326 H325 0.760 . S
O326 Co327 2.009 . S
Co327 H325 2.400 . S
Co327 O326 2.009 . S
Co327 O328 2.053 . S
Co327 O330 2.094 . S
Co327 O334 2.122 . S
Co327 O348 2.115 . S
Co327 O349 2.315 . S
O328 Co327 2.053 . S
O328 C340 1.259 . S
O329 Co321 2.047 . S
O329 C340 1.257 . S
O330 Co327 2.094 . S
O330 C341 1.253 . S
O331 Co322 2.063 . S
O331 C341 1.268 . S
O332 Co320 2.115 . S
O332 C342 1.281 . S
O333 Co320 2.315 . S
O333 C342 1.252 . S
O334 Co327 2.122 . S
O334 C343 1.272 . S
O335 Co321 2.113 . S
O335 C343 1.245 . S
C336 O344 1.259 . S
C336 O345 1.257 1_545 S
C337 O346 1.268 . S
C337 O347 1.253 . S
C338 O348 1.281 . S
C338 O349 1.252 . S
C339 O350 1.272 1_545 S
C339 O351 1.245 1_545 S
C340 O328 1.259 . S
C340 O329 1.257 . S
C341 O330 1.253 . S
C341 O331 1.268 . S
C342 O332 1.281 . S
C342 O333 1.252 . S
C343 O334 1.272 . S
C343 O335 1.245 . S
O344 Co320 2.053 1_545 S
O344 C336 1.259 . S
O345 Co322 2.047 . S
O345 C336 1.257 1_565 S
O346 Co321 2.063 . S
O346 C337 1.268 . S
O347 Co320 2.094 . S
O347 C337 1.253 . S
O348 Co327 2.115 . S
O348 C338 1.281 . S
O349 Co327 2.315 . S
O349 C338 1.252 . S
O350 Co320 2.122 . S
O350 C339 1.272 1_565 S
O351 Co322 2.113 . S
O351 C339 1.245 1_565 S
Co352 H355 2.400 . S
Co352 O356 2.009 . S
Co352 O364 2.115 . S
Co352 O365 2.315 . S
Co352 O376 2.053 . S
Co352 O379 2.094 . S
Co352 O382 2.122 . S
Co353 O356 2.126 . S
Co353 H357 2.388 . S
Co353 O358 2.053 . S
Co353 O361 2.047 1_565 S
Co353 O367 2.113 . S
Co353 O378 2.063 . S
Co354 H355 2.388 . S
Co354 O356 2.053 . S
Co354 O358 2.126 . S
Co354 O363 2.063 . S
Co354 O377 2.047 . S
Co354 O383 2.113 . S
H355 Co352 2.400 . S
H355 Co354 2.388 . S
H355 O356 0.760 . S
O356 Co352 2.009 . S
O356 Co353 2.126 . S
O356 Co354 2.053 . S
O356 H355 0.760 . S
H357 Co353 2.388 . S
H357 O358 0.760 . S
H357 Co359 2.400 . S
O358 Co353 2.053 . S
O358 Co354 2.126 . S
O358 H357 0.760 . S
O358 Co359 2.009 . S
Co359 H357 2.400 . S
Co359 O358 2.009 . S
Co359 O360 2.053 1_565 S
Co359 O362 2.094 . S
Co359 O366 2.126 . S
Co359 O380 2.115 . S
Co359 O381 2.315 . S
O360 Co359 2.053 1_545 S
O360 C372 1.259 . S
O361 Co353 2.047 1_545 S
O361 C372 1.257 . S
O362 Co359 2.094 . S
O362 C373 1.253 . S
O363 Co354 2.063 . S
O363 C373 1.268 . S
O364 Co352 2.115 . S
O364 C374 1.281 . S
O365 Co352 2.315 . S
O365 C374 1.252 . S
O366 Co359 2.126 . S
O366 C375 1.271 1_565 S
O367 Co353 2.113 . S
O367 C375 1.245 1_565 S
C368 O376 1.259 . S
C368 O377 1.257 . S
C369 O378 1.268 . S
C369 O379 1.253 . S
C370 O380 1.281 . S
C370 O381 1.252 . S
C371 O382 1.272 . S
C371 O383 1.245 . S
C372 O360 1.259 . S
C372 O361 1.257 . S
C373 O362 1.253 . S
C373 O363 1.268 . S
C374 O364 1.281 . S
C374 O365 1.252 . S
C375 O366 1.271 1_545 S
C375 O367 1.245 1_545 S
O376 Co352 2.053 . S
O376 C368 1.259 . S
O377 Co354 2.047 . S
O377 C368 1.257 . S
O378 Co353 2.063 . S
O378 C369 1.268 . S
O379 Co352 2.094 . S
O379 C369 1.253 . S
O380 Co359 2.115 . S
O380 C370 1.281 . S
O381 Co359 2.315 . S
O381 C370 1.252 . S
O382 Co352 2.122 . S
O382 C371 1.272 . S
O383 Co354 2.113 . S
O383 C371 1.245 . S
Co384 H387 2.400 . S
Co384 O388 2.009 . S
Co384 O396 2.115 . S
Co384 O397 2.315 . S
Co384 O408 2.053 . S
Co384 O411 2.094 . S
Co384 O414 2.122 . S
Co385 O388 2.126 . S
Co385 H389 2.388 . S
Co385 O390 2.053 . S
Co385 O393 2.047 . S
Co385 O399 2.113 . S
Co385 O410 2.063 . S
Co386 H387 2.388 . S
Co386 O388 2.053 . S
Co386 O390 2.126 . S
Co386 O395 2.063 . S
Co386 O409 2.047 . S
Co386 O415 2.113 . S
H387 Co384 2.400 . S
H387 Co386 2.388 . S
H387 O388 0.760 . S
O388 Co384 2.009 . S
O388 Co385 2.126 . S
O388 Co386 2.053 . S
O388 H387 0.760 . S
H389 Co385 2.388 . S
H389 O390 0.760 . S
H389 Co391 2.400 . S
O390 Co385 2.053 . S
O390 Co386 2.126 . S
O390 H389 0.760 . S
O390 Co391 2.009 . S
Co391 H389 2.400 . S
Co391 O390 2.009 . S
Co391 O392 2.053 . S
Co391 O394 2.094 . S
Co391 O398 2.122 . S
Co391 O412 2.115 . S
Co391 O413 2.315 . S
O392 Co391 2.053 . S
O392 C404 1.259 . S
O393 Co385 2.047 . S
O393 C404 1.257 . S
O394 Co391 2.094 . S
O394 C405 1.253 . S
O395 Co386 2.063 . S
O395 C405 1.268 . S
O396 Co384 2.115 . S
O396 C406 1.281 . S
O397 Co384 2.315 . S
O397 C406 1.252 . S
O398 Co391 2.122 . S
O398 C407 1.272 . S
O399 Co385 2.113 . S
O399 C407 1.245 . S
C400 O408 1.259 . S
C400 O409 1.257 . S
C401 O410 1.268 . S
C401 O411 1.253 . S
C402 O412 1.281 . S
C402 O413 1.252 . S
C403 O414 1.272 . S
C403 O415 1.245 . S
C404 O392 1.259 . S
C404 O393 1.257 . S
C405 O394 1.253 . S
C405 O395 1.268 . S
C406 O396 1.281 . S
C406 O397 1.252 . S
C407 O398 1.272 . S
C407 O399 1.245 . S
O408 Co384 2.053 . S
O408 C400 1.259 . S
O409 Co386 2.047 . S
O409 C400 1.257 . S
O410 Co385 2.063 . S
O410 C401 1.268 . S
O411 Co384 2.094 . S
O411 C401 1.253 . S
O412 Co391 2.115 . S
O412 C402 1.281 . S
O413 Co391 2.315 . S
O413 C402 1.252 . S
O414 Co384 2.122 . S
O414 C403 1.272 . S
O415 Co386 2.113 . S
O415 C403 1.245 . S
Co416 H419 2.400 . S
Co416 O420 2.009 . S
Co416 O428 2.115 . S
Co416 O429 2.315 . S
Co416 O440 2.053 . S
Co416 O443 2.094 . S
Co416 O446 2.122 . S
Co417 O420 2.126 . S
Co417 H421 2.388 . S
Co417 O422 2.053 . S
Co417 O425 2.047 . S
Co417 O431 2.113 . S
Co417 O442 2.063 . S
Co418 H419 2.388 . S
Co418 O420 2.053 . S
Co418 O422 2.126 . S
Co418 O427 2.063 . S
Co418 O441 2.047 . S
Co418 O447 2.113 . S
H419 Co416 2.400 . S
H419 Co418 2.388 . S
H419 O420 0.760 . S
O420 Co416 2.009 . S
O420 Co417 2.126 . S
O420 Co418 2.053 . S
O420 H419 0.760 . S
H421 Co417 2.388 . S
H421 O422 0.760 . S
H421 Co423 2.400 . S
O422 Co417 2.053 . S
O422 Co418 2.126 . S
O422 H421 0.760 . S
O422 Co423 2.009 . S
Co423 H421 2.400 . S
Co423 O422 2.009 . S
Co423 O424 2.053 . S
Co423 O426 2.094 . S
Co423 O430 2.122 . S
Co423 O444 2.115 . S
Co423 O445 2.315 . S
O424 Co423 2.053 . S
O424 C436 1.259 . S
O425 Co417 2.047 . S
O425 C436 1.257 . S
O426 Co423 2.094 . S
O426 C437 1.253 . S
O427 Co418 2.063 . S
O427 C437 1.268 . S
O428 Co416 2.115 . S
O428 C438 1.281 . S
O429 Co416 2.315 . S
O429 C438 1.252 . S
O430 Co423 2.122 . S
O430 C439 1.272 . S
O431 Co417 2.113 . S
O431 C439 1.245 . S
C432 O440 1.259 . S
C432 O441 1.257 . S
C433 O442 1.268 . S
C433 O443 1.253 . S
C434 O444 1.281 . S
C434 O445 1.252 . S
C435 O446 1.272 . S
C435 O447 1.245 . S
C436 O424 1.259 . S
C436 O425 1.257 . S
C437 O426 1.253 . S
C437 O427 1.268 . S
C438 O428 1.281 . S
C438 O429 1.252 . S
C439 O430 1.272 . S
C439 O431 1.245 . S
O440 Co416 2.053 . S
O440 C432 1.259 . S
O441 Co418 2.047 . S
O441 C432 1.257 . S
O442 Co417 2.063 . S
O442 C433 1.268 . S
O443 Co416 2.094 . S
O443 C433 1.253 . S
O444 Co423 2.115 . S
O444 C434 1.281 . S
O445 Co423 2.315 . S
O445 C434 1.252 . S
O446 Co416 2.122 . S
O446 C435 1.272 . S
O447 Co418 2.113 . S
O447 C435 1.245 . S
Co448 H451 2.400 . S
Co448 O452 2.009 . S
Co448 O460 2.115 . S
Co448 O461 2.315 . S
Co448 O472 2.053 . S
Co448 O475 2.094 . S
Co448 O478 2.122 . S
Co449 O452 2.126 . S
Co449 H453 2.388 . S
Co449 O454 2.053 . S
Co449 O457 2.047 . S
Co449 O463 2.113 . S
Co449 O474 2.063 . S
Co450 H451 2.388 . S
Co450 O452 2.053 . S
Co450 O454 2.126 . S
Co450 O459 2.063 . S
Co450 O473 2.047 . S
Co450 O479 2.113 . S
H451 Co448 2.400 . S
H451 Co450 2.388 . S
H451 O452 0.760 . S
O452 Co448 2.009 . S
O452 Co449 2.126 . S
O452 Co450 2.053 . S
O452 H451 0.760 . S
H453 Co449 2.388 . S
H453 O454 0.760 . S
H453 Co455 2.400 . S
O454 Co449 2.053 . S
O454 Co450 2.126 . S
O454 H453 0.760 . S
O454 Co455 2.009 . S
Co455 H453 2.400 . S
Co455 O454 2.009 . S
Co455 O456 2.053 . S
Co455 O458 2.094 . S
Co455 O462 2.122 . S
Co455 O476 2.115 . S
Co455 O477 2.315 . S
O456 Co455 2.053 . S
O456 C468 1.259 . S
O457 Co449 2.047 . S
O457 C468 1.257 . S
O458 Co455 2.094 . S
O458 C469 1.253 . S
O459 Co450 2.063 . S
O459 C469 1.268 . S
O460 Co448 2.115 . S
O460 C470 1.281 . S
O461 Co448 2.315 . S
O461 C470 1.252 . S
O462 Co455 2.122 . S
O462 C471 1.272 . S
O463 Co449 2.113 . S
O463 C471 1.245 . S
C464 O472 1.259 . S
C464 O473 1.257 . S
C465 O474 1.268 . S
C465 O475 1.253 . S
C466 O476 1.281 . S
C466 O477 1.252 . S
C467 O478 1.272 . S
C467 O479 1.245 . S
C468 O456 1.259 . S
C468 O457 1.257 . S
C469 O458 1.253 . S
C469 O459 1.268 . S
C470 O460 1.281 . S
C470 O461 1.252 . S
C471 O462 1.272 . S
C471 O463 1.245 . S
O472 Co448 2.053 . S
O472 C464 1.259 . S
O473 Co450 2.047 . S
O473 C464 1.257 . S
O474 Co449 2.063 . S
O474 C465 1.268 . S
O475 Co448 2.094 . S
O475 C465 1.253 . S
O476 Co455 2.115 . S
O476 C466 1.281 . S
O477 Co455 2.315 . S
O477 C466 1.252 . S
O478 Co448 2.122 . S
O478 C467 1.272 . S
O479 Co450 2.113 . S
O479 C467 1.245 . S
Co480 H483 2.400 . S
Co480 O484 2.009 . S
Co480 O492 2.115 . S
Co480 O493 2.315 . S
Co480 O504 2.053 . S
Co480 O507 2.094 . S
Co480 O510 2.122 . S
Co481 O484 2.126 . S
Co481 H485 2.388 . S
Co481 O486 2.053 . S
Co481 O489 2.047 . S
Co481 O495 2.113 . S
Co481 O506 2.063 . S
Co482 H483 2.388 . S
Co482 O484 2.053 . S
Co482 O486 2.126 . S
Co482 O491 2.063 . S
Co482 O505 2.047 . S
Co482 O511 2.113 . S
H483 Co480 2.400 . S
H483 Co482 2.388 . S
H483 O484 0.760 . S
O484 Co480 2.009 . S
O484 Co481 2.126 . S
O484 Co482 2.053 . S
O484 H483 0.760 . S
H485 Co481 2.388 . S
H485 O486 0.760 . S
H485 Co487 2.400 . S
O486 Co481 2.053 . S
O486 Co482 2.126 . S
O486 H485 0.760 . S
O486 Co487 2.009 . S
Co487 H485 2.400 . S
Co487 O486 2.009 . S
Co487 O488 2.053 . S
Co487 O490 2.094 . S
Co487 O494 2.122 . S
Co487 O508 2.115 . S
Co487 O509 2.315 . S
O488 Co487 2.053 . S
O488 C500 1.259 . S
O489 Co481 2.047 . S
O489 C500 1.257 . S
O490 Co487 2.094 . S
O490 C501 1.253 . S
O491 Co482 2.063 . S
O491 C501 1.268 . S
O492 Co480 2.115 . S
O492 C502 1.281 . S
O493 Co480 2.315 . S
O493 C502 1.252 . S
O494 Co487 2.122 . S
O494 C503 1.272 . S
O495 Co481 2.113 . S
O495 C503 1.245 . S
C496 O504 1.259 . S
C496 O505 1.257 . S
C497 O506 1.268 . S
C497 O507 1.253 . S
C498 O508 1.281 . S
C498 O509 1.252 . S
C499 O510 1.272 . S
C499 O511 1.245 . S
C500 O488 1.259 . S
C500 O489 1.257 . S
C501 O490 1.253 . S
C501 O491 1.268 . S
C502 O492 1.281 . S
C502 O493 1.252 . S
C503 O494 1.272 . S
C503 O495 1.245 . S
O504 Co480 2.053 . S
O504 C496 1.259 . S
O505 Co482 2.047 . S
O505 C496 1.257 . S
O506 Co481 2.063 . S
O506 C497 1.268 . S
O507 Co480 2.094 . S
O507 C497 1.253 . S
O508 Co487 2.115 . S
O508 C498 1.281 . S
O509 Co487 2.315 . S
O509 C498 1.252 . S
O510 Co480 2.122 . S
O510 C499 1.272 . S
O511 Co482 2.113 . S
O511 C499 1.245 . S
C512 C513 1.387 . S
C512 H516 0.950 . S
C512 C521 1.390 . S
C513 C512 1.387 . S
C513 C515 1.387 . S
H514 C521 0.950 . S
C515 C513 1.387 . S
C515 C517 1.390 . S
C515 H519 0.950 . S
H516 C512 0.950 . S
C517 C515 1.390 . S
C517 C518 1.387 . S
C517 H520 0.950 . S
C518 C517 1.387 . S
C518 C521 1.387 . S
H519 C515 0.950 . S
H520 C517 0.950 . S
C521 C512 1.390 . S
C521 H514 0.950 . S
C521 C518 1.387 . S
C522 C523 1.387 . S
C522 H526 0.950 . S
C522 C531 1.390 . S
C523 C522 1.387 . S
C523 C525 1.387 . S
H524 C531 0.950 . S
C525 C523 1.387 . S
C525 C527 1.390 . S
C525 H529 0.950 . S
H526 C522 0.950 . S
C527 C525 1.390 . S
C527 C528 1.387 . S
C527 H530 0.950 . S
C528 C527 1.387 . S
C528 C531 1.387 . S
H529 C525 0.950 . S
H530 C527 0.950 . S
C531 C522 1.390 . S
C531 H524 0.950 . S
C531 C528 1.387 . S
C532 C533 1.387 . S
C532 H536 0.950 . S
C532 C541 1.390 . S
C533 C532 1.387 . S
C533 C535 1.387 . S
H534 C541 0.950 . S
C535 C533 1.387 . S
C535 C537 1.390 . S
C535 H539 0.950 . S
H536 C532 0.950 . S
C537 C535 1.390 . S
C537 C538 1.387 . S
C537 H540 0.950 . S
C538 C537 1.387 . S
C538 C541 1.387 . S
H539 C535 0.950 . S
H540 C537 0.950 . S
C541 C532 1.390 . S
C541 H534 0.950 . S
C541 C538 1.387 . S
C542 C543 1.387 . S
C542 H546 0.950 . S
C542 C551 1.390 . S
C543 C542 1.387 . S
C543 C545 1.387 . S
H544 C551 0.950 . S
C545 C543 1.387 . S
C545 C547 1.390 . S
C545 H549 0.950 . S
H546 C542 0.950 . S
C547 C545 1.390 . S
C547 C548 1.387 . S
C547 H550 0.950 . S
C548 C547 1.387 . S
C548 C551 1.387 . S
H549 C545 0.950 . S
H550 C547 0.950 . S
C551 C542 1.390 . S
C551 H544 0.950 . S
C551 C548 1.387 . S
C552 C553 1.387 . S
C552 H556 0.950 . S
C552 C561 1.390 . S
C553 C552 1.387 . S
C553 C555 1.387 . S
H554 C561 0.950 . S
C555 C553 1.387 . S
C555 C557 1.390 . S
C555 H559 0.950 . S
H556 C552 0.950 . S
C557 C555 1.390 . S
C557 C558 1.387 . S
C557 H560 0.950 . S
C558 C557 1.387 . S
C558 C561 1.387 . S
H559 C555 0.950 . S
H560 C557 0.950 . S
C561 C552 1.390 . S
C561 H554 0.950 . S
C561 C558 1.387 . S
C562 C563 1.387 . S
C562 H566 0.950 1_455 S
C562 C571 1.390 . S
C563 C562 1.387 . S
C563 C565 1.387 . S
H564 C571 0.950 . S
C565 C563 1.387 . S
C565 C567 1.390 . S
C565 H569 0.950 . S
H566 C562 0.950 1_655 S
C567 C565 1.390 . S
C567 C568 1.387 . S
C567 H570 0.950 . S
C568 C567 1.387 . S
C568 C571 1.387 . S
H569 C565 0.950 . S
H570 C567 0.950 . S
C571 C562 1.390 . S
C571 H564 0.950 . S
C571 C568 1.387 . S
C572 C573 1.387 . S
C572 H576 0.950 . S
C572 C581 1.390 . S
C573 C572 1.387 . S
C573 C575 1.387 . S
H574 C581 0.950 . S
C575 C573 1.387 . S
C575 C577 1.390 . S
C575 H579 0.950 . S
H576 C572 0.950 . S
C577 C575 1.390 . S
C577 C578 1.387 . S
C577 H580 0.950 . S
C578 C577 1.387 . S
C578 C581 1.387 . S
H579 C575 0.950 . S
H580 C577 0.950 . S
C581 C572 1.390 . S
C581 H574 0.950 . S
C581 C578 1.387 . S
C582 C583 1.387 . S
C582 H586 0.950 . S
C582 C591 1.390 . S
C583 C582 1.387 . S
C583 C585 1.387 . S
H584 C591 0.950 . S
C585 C583 1.387 . S
C585 C587 1.390 . S
C585 H589 0.950 1_455 S
H586 C582 0.950 . S
C587 C585 1.390 . S
C587 C588 1.387 . S
C587 H590 0.950 . S
C588 C587 1.387 . S
C588 C591 1.387 . S
H589 C585 0.950 1_655 S
H590 C587 0.950 . S
C591 C582 1.390 . S
C591 H584 0.950 . S
C591 C588 1.387 . S
C592 C593 1.387 . S
C592 H596 0.950 . S
C592 C601 1.390 . S
C593 C592 1.387 . S
C593 C595 1.387 . S
H594 C601 0.950 . S
C595 C593 1.387 . S
C595 C597 1.390 . S
C595 H599 0.950 . S
H596 C592 0.950 . S
C597 C595 1.390 . S
C597 C598 1.387 . S
C597 H600 0.950 . S
C598 C597 1.387 . S
C598 C601 1.387 . S
H599 C595 0.950 . S
H600 C597 0.950 . S
C601 C592 1.390 . S
C601 H594 0.950 . S
C601 C598 1.387 . S
C602 C603 1.387 . S
C602 H606 0.950 . S
C602 C611 1.390 . S
C603 C602 1.387 . S
C603 C605 1.387 . S
H604 C611 0.950 . S
C605 C603 1.387 . S
C605 C607 1.390 . S
C605 H609 0.950 . S
H606 C602 0.950 . S
C607 C605 1.390 . S
C607 C608 1.387 . S
C607 H610 0.950 . S
C608 C607 1.387 . S
C608 C611 1.387 . S
H609 C605 0.950 . S
H610 C607 0.950 . S
C611 C602 1.390 . S
C611 H604 0.950 . S
C611 C608 1.387 . S
C612 C613 1.387 . S
C612 H616 0.950 . S
C612 C621 1.390 . S
C613 C612 1.387 . S
C613 C615 1.387 . S
H614 C621 0.950 . S
C615 C613 1.387 . S
C615 C617 1.390 . S
C615 H619 0.950 . S
H616 C612 0.950 . S
C617 C615 1.390 . S
C617 C618 1.387 . S
C617 H620 0.950 . S
C618 C617 1.387 . S
C618 C621 1.387 . S
H619 C615 0.950 . S
H620 C617 0.950 . S
C621 C612 1.390 . S
C621 H614 0.950 . S
C621 C618 1.387 . S
C622 C623 1.387 . S
C622 H626 0.950 . S
C622 C631 1.390 . S
C623 C622 1.387 . S
C623 C625 1.387 . S
H624 C631 0.950 . S
C625 C623 1.387 . S
C625 C627 1.390 . S
C625 H629 0.950 . S
H626 C622 0.950 . S
C627 C625 1.390 . S
C627 C628 1.387 . S
C627 H630 0.950 1_655 S
C628 C627 1.387 . S
C628 C631 1.387 . S
H629 C625 0.950 . S
H630 C627 0.950 1_455 S
C631 C622 1.390 . S
C631 H624 0.950 . S
C631 C628 1.387 . S
C632 C633 1.387 . S
C632 H636 0.950 . S
C632 C641 1.390 . S
C633 C632 1.387 . S
C633 C635 1.387 . S
H634 C641 0.950 . S
C635 C633 1.387 . S
C635 C637 1.390 . S
C635 H639 0.950 . S
H636 C632 0.950 . S
C637 C635 1.390 . S
C637 C638 1.387 . S
C637 H640 0.950 . S
C638 C637 1.387 . S
C638 C641 1.387 . S
H639 C635 0.950 . S
H640 C637 0.950 . S
C641 C632 1.390 . S
C641 H634 0.950 . S
C641 C638 1.387 . S
C642 C643 1.387 . S
C642 H646 0.950 . S
C642 C651 1.390 . S
C643 C642 1.387 . S
C643 C645 1.387 1_455 S
H644 C651 0.950 . S
C645 C643 1.387 1_655 S
C645 C647 1.390 1_655 S
C645 H649 0.950 . S
H646 C642 0.950 . S
C647 C645 1.390 1_455 S
C647 C648 1.387 . S
C647 H650 0.950 1_455 S
C648 C647 1.387 . S
C648 C651 1.387 . S
H649 C645 0.950 . S
H650 C647 0.950 1_655 S
C651 C642 1.390 . S
C651 H644 0.950 . S
C651 C648 1.387 . S
C652 C653 1.387 . S
C652 H656 0.950 . S
C652 C661 1.390 . S
C653 C652 1.387 . S
C653 C655 1.387 . S
H654 C661 0.950 . S
C655 C653 1.387 . S
C655 C657 1.390 . S
C655 H659 0.950 . S
H656 C652 0.950 . S
C657 C655 1.390 . S
C657 C658 1.387 . S
C657 H660 0.950 . S
C658 C657 1.387 . S
C658 C661 1.387 . S
H659 C655 0.950 . S
H660 C657 0.950 . S
C661 C652 1.390 . S
C661 H654 0.950 . S
C661 C658 1.387 . S
C662 C663 1.387 . S
C662 H666 0.950 . S
C662 C671 1.390 . S
C663 C662 1.387 . S
C663 C665 1.387 . S
H664 C671 0.950 . S
C665 C663 1.387 . S
C665 C667 1.390 . S
C665 H669 0.950 . S
H666 C662 0.950 . S
C667 C665 1.390 . S
C667 C668 1.387 . S
C667 H670 0.950 . S
C668 C667 1.387 . S
C668 C671 1.387 . S
H669 C665 0.950 . S
H670 C667 0.950 . S
C671 C662 1.390 . S
C671 H664 0.950 . S
C671 C668 1.387 . S
C672 C673 1.387 . S
C672 H676 0.950 . S
C672 C681 1.390 . S
C673 C672 1.387 . S
C673 C675 1.387 . S
H674 C681 0.950 . S
C675 C673 1.387 . S
C675 C677 1.390 . S
C675 H679 0.950 . S
H676 C672 0.950 . S
C677 C675 1.390 . S
C677 C678 1.387 . S
C677 H680 0.950 . S
C678 C677 1.387 . S
C678 C681 1.387 . S
H679 C675 0.950 . S
H680 C677 0.950 . S
C681 C672 1.390 . S
C681 H674 0.950 . S
C681 C678 1.387 . S
C682 C683 1.387 . S
C682 H686 0.950 . S
C682 C691 1.390 . S
C683 C682 1.387 . S
C683 C685 1.387 . S
H684 C691 0.950 . S
C685 C683 1.387 . S
C685 C687 1.390 . S
C685 H689 0.950 . S
H686 C682 0.950 . S
C687 C685 1.390 . S
C687 C688 1.387 . S
C687 H690 0.950 . S
C688 C687 1.387 . S
C688 C691 1.387 . S
H689 C685 0.950 . S
H690 C687 0.950 . S
C691 C682 1.390 . S
C691 H684 0.950 . S
C691 C688 1.387 . S
C692 C693 1.387 . S
C692 H696 0.950 . S
C692 C701 1.390 . S
C693 C692 1.387 . S
C693 C695 1.387 . S
H694 C701 0.950 . S
C695 C693 1.387 . S
C695 C697 1.390 . S
C695 H699 0.950 . S
H696 C692 0.950 . S
C697 C695 1.390 . S
C697 C698 1.387 . S
C697 H700 0.950 . S
C698 C697 1.387 . S
C698 C701 1.387 . S
H699 C695 0.950 . S
H700 C697 0.950 . S
C701 C692 1.390 . S
C701 H694 0.950 . S
C701 C698 1.387 . S
C702 C703 1.387 . S
C702 H706 0.950 . S
C702 C711 1.390 . S
C703 C702 1.387 . S
C703 C705 1.387 . S
H704 C711 0.950 . S
C705 C703 1.387 . S
C705 C707 1.390 . S
C705 H709 0.950 . S
H706 C702 0.950 . S
C707 C705 1.390 . S
C707 C708 1.387 . S
C707 H710 0.950 . S
C708 C707 1.387 . S
C708 C711 1.387 . S
H709 C705 0.950 . S
H710 C707 0.950 . S
C711 C702 1.390 . S
C711 H704 0.950 . S
C711 C708 1.387 . S
C712 C713 1.387 . S
C712 H716 0.950 . S
C712 C721 1.390 . S
C713 C712 1.387 . S
C713 C715 1.387 . S
H714 C721 0.950 . S
C715 C713 1.387 . S
C715 C717 1.390 . S
C715 H719 0.950 . S
H716 C712 0.950 . S
C717 C715 1.390 . S
C717 C718 1.387 . S
C717 H720 0.950 . S
C718 C717 1.387 . S
C718 C721 1.387 . S
H719 C715 0.950 . S
H720 C717 0.950 . S
C721 C712 1.390 . S
C721 H714 0.950 . S
C721 C718 1.387 . S
C722 C723 1.387 . S
C722 H726 0.950 . S
C722 C731 1.390 . S
C723 C722 1.387 . S
C723 C725 1.387 . S
H724 C731 0.950 . S
C725 C723 1.387 . S
C725 C727 1.390 . S
C725 H729 0.950 . S
H726 C722 0.950 . S
C727 C725 1.390 . S
C727 C728 1.387 . S
C727 H730 0.950 . S
C728 C727 1.387 . S
C728 C731 1.387 . S
H729 C725 0.950 . S
H730 C727 0.950 . S
C731 C722 1.390 . S
C731 H724 0.950 . S
C731 C728 1.387 . S
C732 C733 1.387 . S
C732 H736 0.950 . S
C732 C741 1.390 . S
C733 C732 1.387 . S
C733 C735 1.387 . S
H734 C741 0.950 . S
C735 C733 1.387 . S
C735 C737 1.390 . S
C735 H739 0.950 . S
H736 C732 0.950 . S
C737 C735 1.390 . S
C737 C738 1.387 . S
C737 H740 0.950 . S
C738 C737 1.387 . S
C738 C741 1.387 . S
H739 C735 0.950 . S
H740 C737 0.950 . S
C741 C732 1.390 . S
C741 H734 0.950 . S
C741 C738 1.387 . S
C742 C743 1.387 . S
C742 H746 0.950 . S
C742 C751 1.390 . S
C743 C742 1.387 . S
C743 C745 1.387 . S
H744 C751 0.948 1_655 S
C745 C743 1.387 . S
C745 C747 1.390 . S
C745 H749 0.950 . S
H746 C742 0.950 . S
C747 C745 1.390 . S
C747 C748 1.387 . S
C747 H750 0.950 . S
C748 C747 1.387 . S
C748 C751 1.387 . S
H749 C745 0.950 . S
H750 C747 0.950 . S
C751 C742 1.390 . S
C751 H744 0.948 1_455 S
C751 C748 1.387 . S
C752 C753 1.387 . S
C752 H756 0.950 . S
C752 C761 1.390 . S
C753 C752 1.387 . S
C753 C755 1.387 . S
H754 C761 0.950 . S
C755 C753 1.387 . S
C755 C757 1.390 . S
C755 H759 0.950 . S
H756 C752 0.950 . S
C757 C755 1.390 . S
C757 C758 1.387 . S
C757 H760 0.950 . S
C758 C757 1.387 . S
C758 C761 1.387 . S
H759 C755 0.950 . S
H760 C757 0.950 . S
C761 C752 1.390 . S
C761 H754 0.950 . S
C761 C758 1.387 . S
C762 C763 1.387 . S
C762 H766 0.950 . S
C762 C771 1.390 . S
C763 C762 1.387 . S
C763 C765 1.387 . S
H764 C771 0.950 . S
C765 C763 1.387 . S
C765 C767 1.390 . S
C765 H769 0.950 . S
H766 C762 0.950 . S
C767 C765 1.390 . S
C767 C768 1.387 . S
C767 H770 0.950 . S
C768 C767 1.387 . S
C768 C771 1.387 . S
H769 C765 0.950 . S
H770 C767 0.950 . S
C771 C762 1.390 . S
C771 H764 0.950 . S
C771 C768 1.387 . S
C772 C773 1.387 . S
C772 H776 0.950 . S
C772 C781 1.390 . S
C773 C772 1.387 . S
C773 C775 1.387 . S
H774 C781 0.950 . S
C775 C773 1.387 . S
C775 C777 1.390 . S
C775 H779 0.950 . S
H776 C772 0.950 . S
C777 C775 1.390 . S
C777 C778 1.387 . S
C777 H780 0.950 . S
C778 C777 1.387 . S
C778 C781 1.387 . S
H779 C775 0.950 . S
H780 C777 0.950 . S
C781 C772 1.390 . S
C781 H774 0.950 . S
C781 C778 1.387 . S
C782 C783 1.387 . S
C782 H786 0.950 . S
C782 C791 1.390 . S
C783 C782 1.387 . S
C783 C785 1.387 . S
H784 C791 0.950 . S
C785 C783 1.387 . S
C785 C787 1.390 . S
C785 H789 0.950 1_655 S
H786 C782 0.950 . S
C787 C785 1.390 . S
C787 C788 1.387 . S
C787 H790 0.950 . S
C788 C787 1.387 . S
C788 C791 1.387 . S
H789 C785 0.950 1_455 S
H790 C787 0.950 . S
C791 C782 1.390 . S
C791 H784 0.950 . S
C791 C788 1.387 . S
C792 C793 1.387 . S
C792 H796 0.950 . S
C792 C801 1.390 . S
C793 C792 1.387 . S
C793 C795 1.387 . S
H794 C801 0.950 . S
C795 C793 1.387 . S
C795 C797 1.390 . S
C795 H799 0.950 . S
H796 C792 0.950 . S
C797 C795 1.390 . S
C797 C798 1.387 . S
C797 H800 0.950 . S
C798 C797 1.387 . S
C798 C801 1.387 . S
H799 C795 0.950 . S
H800 C797 0.950 . S
C801 C792 1.390 . S
C801 H794 0.950 . S
C801 C798 1.387 . S
C802 C803 1.387 . S
C802 H806 0.950 . S
C802 C811 1.390 . S
C803 C802 1.387 . S
C803 C805 1.387 . S
H804 C811 0.950 . S
C805 C803 1.387 . S
C805 C807 1.390 . S
C805 H809 0.950 . S
H806 C802 0.950 . S
C807 C805 1.390 . S
C807 C808 1.387 . S
C807 H810 0.950 . S
C808 C807 1.387 . S
C808 C811 1.387 . S
H809 C805 0.950 . S
H810 C807 0.950 . S
C811 C802 1.390 . S
C811 H804 0.950 . S
C811 C808 1.387 . S
C812 C813 1.387 . S
C812 H816 0.950 . S
C812 C821 1.390 . S
C813 C812 1.387 . S
C813 C815 1.387 . S
H814 C821 0.950 . S
C815 C813 1.387 . S
C815 C817 1.390 . S
C815 H819 0.950 . S
H816 C812 0.950 . S
C817 C815 1.390 . S
C817 C818 1.387 . S
C817 H820 0.950 . S
C818 C817 1.387 . S
C818 C821 1.387 . S
H819 C815 0.950 . S
H820 C817 0.950 . S
C821 C812 1.390 . S
C821 H814 0.950 . S
C821 C818 1.387 . S
C822 C823 1.387 . S
C822 H826 0.950 . S
C822 C831 1.390 . S
C823 C822 1.387 . S
C823 C825 1.387 . S
H824 C831 0.950 . S
C825 C823 1.387 . S
C825 C827 1.390 . S
C825 H829 0.950 . S
H826 C822 0.950 . S
C827 C825 1.390 . S
C827 C828 1.387 . S
C827 H830 0.950 . S
C828 C827 1.387 . S
C828 C831 1.387 . S
H829 C825 0.950 . S
H830 C827 0.950 . S
C831 C822 1.390 . S
C831 H824 0.950 . S
C831 C828 1.387 . S
C832 C833 1.387 . S
C832 H836 0.950 . S
C832 C841 1.390 . S
C833 C832 1.387 . S
C833 C835 1.387 . S
H834 C841 0.950 . S
C835 C833 1.387 . S
C835 C837 1.390 . S
C835 H839 0.950 . S
H836 C832 0.950 . S
C837 C835 1.390 . S
C837 C838 1.387 . S
C837 H840 0.950 . S
C838 C837 1.387 . S
C838 C841 1.387 . S
H839 C835 0.950 . S
H840 C837 0.950 . S
C841 C832 1.390 . S
C841 H834 0.950 . S
C841 C838 1.387 . S
C842 C843 1.387 . S
C842 H846 0.950 . S
C842 C851 1.390 . S
C843 C842 1.387 . S
C843 C845 1.387 1_545 S
H844 C851 0.950 1_455 S
C845 C843 1.387 1_565 S
C845 C847 1.390 1_565 S
C845 H849 0.950 . S
H846 C842 0.950 . S
C847 C845 1.390 1_545 S
C847 C848 1.387 1_655 S
C847 H850 0.950 1_645 S
C848 C847 1.387 1_455 S
C848 C851 1.387 1_455 S
H849 C845 0.950 . S
H850 C847 0.950 1_465 S
C851 C842 1.390 . S
C851 H844 0.950 1_655 S
C851 C848 1.387 1_655 S
C852 C853 1.387 . S
C852 H856 0.950 . S
C852 C861 1.390 . S
C853 C852 1.387 . S
C853 C855 1.387 . S
H854 C861 0.950 . S
C855 C853 1.387 . S
C855 C857 1.390 1_545 S
C855 H859 0.950 1_545 S
H856 C852 0.950 . S
C857 C855 1.390 1_565 S
C857 C858 1.387 1_565 S
C857 H860 0.950 . S
C858 C857 1.387 1_545 S
C858 C861 1.387 . S
H859 C855 0.950 1_565 S
H860 C857 0.950 . S
C861 C852 1.390 . S
C861 H854 0.950 . S
C861 C858 1.387 . S
C862 C863 1.387 . S
C862 H866 0.950 . S
C862 C871 1.390 . S
C863 C862 1.387 . S
C863 C865 1.387 . S
H864 C871 0.950 1_455 S
C865 C863 1.387 . S
C865 C867 1.390 . S
C865 H869 0.950 . S
H866 C862 0.950 . S
C867 C865 1.390 . S
C867 C868 1.387 1_655 S
C867 H870 0.950 1_655 S
C868 C867 1.387 1_455 S
C868 C871 1.387 1_455 S
H869 C865 0.950 . S
H870 C867 0.950 1_455 S
C871 C862 1.390 . S
C871 H864 0.950 1_655 S
C871 C868 1.387 1_655 S
C872 C873 1.387 . S
C872 H876 0.950 . S
C872 C881 1.390 . S
C873 C872 1.387 . S
C873 C875 1.387 . S
H874 C881 0.950 . S
C875 C873 1.387 . S
C875 C877 1.390 . S
C875 H879 0.950 . S
H876 C872 0.950 . S
C877 C875 1.390 . S
C877 C878 1.387 . S
C877 H880 0.950 . S
C878 C877 1.387 . S
C878 C881 1.387 . S
H879 C875 0.950 . S
H880 C877 0.950 . S
C881 C872 1.390 . S
C881 H874 0.950 . S
C881 C878 1.387 . S
C882 C883 1.387 1_455 S
C882 H886 0.950 1_455 S
C882 C891 1.390 . S
C883 C882 1.387 1_655 S
C883 C885 1.387 1_655 S
H884 C891 0.950 . S
C885 C883 1.387 1_455 S
C885 C887 1.390 1_565 S
C885 H889 0.950 1_465 S
H886 C882 0.950 1_655 S
C887 C885 1.390 1_545 S
C887 C888 1.387 1_545 S
C887 H890 0.950 . S
C888 C887 1.387 1_565 S
C888 C891 1.387 . S
H889 C885 0.950 1_645 S
H890 C887 0.950 . S
C891 C882 1.390 . S
C891 H884 0.950 . S
C891 C888 1.387 . S
C892 C893 1.387 1_545 S
C892 H896 0.950 . S
C892 C901 1.390 1_545 S
C893 C892 1.387 1_565 S
C893 C895 1.387 . S
H894 C901 0.950 1_545 S
C895 C893 1.387 . S
C895 C897 1.390 . S
C895 H899 0.950 . S
H896 C892 0.950 . S
C897 C895 1.390 . S
C897 C898 1.387 . S
C897 H900 0.950 . S
C898 C897 1.387 . S
C898 C901 1.387 . S
H899 C895 0.950 . S
H900 C897 0.950 . S
C901 C892 1.390 1_565 S
C901 H894 0.950 1_565 S
C901 C898 1.387 . S
C902 C903 1.387 . S
C902 H906 0.950 . S
C902 C911 1.390 1_655 S
C903 C902 1.387 . S
C903 C905 1.387 1_655 S
H904 C911 0.950 . S
C905 C903 1.387 1_455 S
C905 C907 1.390 . S
C905 H909 0.950 . S
H906 C902 0.950 . S
C907 C905 1.390 . S
C907 C908 1.387 . S
C907 H910 0.950 . S
C908 C907 1.387 . S
C908 C911 1.387 . S
H909 C905 0.950 . S
H910 C907 0.950 . S
C911 C902 1.390 1_455 S
C911 H904 0.950 . S
C911 C908 1.387 . S
C912 C913 1.387 . S
C912 H916 0.950 . S
C912 C921 1.390 . S
C913 C912 1.387 . S
C913 C915 1.387 . S
H914 C921 0.950 . S
C915 C913 1.387 . S
C915 C917 1.390 . S
C915 H919 0.950 . S
H916 C912 0.950 . S
C917 C915 1.390 . S
C917 C918 1.387 . S
C917 H920 0.950 . S
C918 C917 1.387 . S
C918 C921 1.387 . S
H919 C915 0.950 . S
H920 C917 0.950 . S
C921 C912 1.390 . S
C921 H914 0.950 . S
C921 C918 1.387 . S
C922 C923 1.387 1_655 S
C922 H926 0.950 1_655 S
C922 C931 1.390 . S
C923 C922 1.387 1_455 S
C923 C925 1.387 1_455 S
H924 C931 0.950 . S
C925 C923 1.387 1_655 S
C925 C927 1.390 . S
C925 H929 0.950 1_655 S
H926 C922 0.950 1_455 S
C927 C925 1.390 . S
C927 C928 1.387 . S
C927 H930 0.950 . S
C928 C927 1.387 . S
C928 C931 1.387 . S
H929 C925 0.950 1_455 S
H930 C927 0.950 . S
C931 C922 1.390 . S
C931 H924 0.950 . S
C931 C928 1.387 . S
C932 C933 1.387 . S
C932 H936 0.950 . S
C932 C941 1.390 . S
C933 C932 1.387 . S
C933 C935 1.387 . S
H934 C941 0.950 . S
C935 C933 1.387 . S
C935 C937 1.390 . S
C935 H939 0.950 . S
H936 C932 0.950 . S
C937 C935 1.390 . S
C937 C938 1.387 . S
C937 H940 0.950 . S
C938 C937 1.387 . S
C938 C941 1.387 . S
H939 C935 0.950 . S
H940 C937 0.950 . S
C941 C932 1.390 . S
C941 H934 0.950 . S
C941 C938 1.387 . S
C942 C943 1.387 . S
C942 H946 0.950 . S
C942 C951 1.390 . S
C943 C942 1.387 . S
C943 C945 1.387 . S
H944 C951 0.950 1_455 S
C945 C943 1.387 . S
C945 C947 1.390 . S
C945 H949 0.950 . S
H946 C942 0.950 . S
C947 C945 1.390 . S
C947 C948 1.387 1_655 S
C947 H950 0.950 1_655 S
C948 C947 1.387 1_455 S
C948 C951 1.387 1_455 S
H949 C945 0.950 . S
H950 C947 0.950 1_455 S
C951 C942 1.390 . S
C951 H944 0.950 1_655 S
C951 C948 1.387 1_655 S
C952 C953 1.387 . S
C952 H956 0.950 . S
C952 C961 1.390 . S
C953 C952 1.387 . S
C953 C955 1.387 . S
H954 C961 0.950 . S
C955 C953 1.387 . S
C955 C957 1.390 . S
C955 H959 0.950 . S
H956 C952 0.950 . S
C957 C955 1.390 . S
C957 C958 1.387 . S
C957 H960 0.950 . S
C958 C957 1.387 . S
C958 C961 1.387 . S
H959 C955 0.950 . S
H960 C957 0.950 . S
C961 C952 1.390 . S
C961 H954 0.950 . S
C961 C958 1.387 . S
C962 C963 1.387 . S
C962 H966 0.950 . S
C962 C971 1.390 . S
C963 C962 1.387 . S
C963 C965 1.387 . S
H964 C971 0.950 1_655 S
C965 C963 1.387 . S
C965 C967 1.390 . S
C965 H969 0.950 . S
H966 C962 0.950 . S
C967 C965 1.390 . S
C967 C968 1.387 1_455 S
C967 H970 0.950 1_455 S
C968 C967 1.387 1_655 S
C968 C971 1.387 1_655 S
H969 C965 0.950 . S
H970 C967 0.950 1_655 S
C971 C962 1.390 . S
C971 H964 0.950 1_455 S
C971 C968 1.387 1_455 S
C972 C973 1.387 . S
C972 H976 0.950 . S
C972 C981 1.390 . S
C973 C972 1.387 . S
C973 C975 1.387 . S
H974 C981 0.950 . S
C975 C973 1.387 . S
C975 C977 1.390 . S
C975 H979 0.950 . S
H976 C972 0.950 . S
C977 C975 1.390 . S
C977 C978 1.387 . S
C977 H980 0.950 . S
C978 C977 1.387 . S
C978 C981 1.387 . S
H979 C975 0.950 . S
H980 C977 0.950 . S
C981 C972 1.390 . S
C981 H974 0.950 . S
C981 C978 1.387 . S
C982 C983 1.387 . S
C982 H986 0.950 . S
C982 C991 1.390 . S
C983 C982 1.387 . S
C983 C985 1.387 . S
H984 C991 0.950 1_655 S
C985 C983 1.387 . S
C985 C987 1.390 . S
C985 H989 0.950 . S
H986 C982 0.950 . S
C987 C985 1.390 . S
C987 C988 1.387 1_455 S
C987 H990 0.950 1_455 S
C988 C987 1.387 1_655 S
C988 C991 1.387 1_655 S
H989 C985 0.950 . S
H990 C987 0.950 1_655 S
C991 C982 1.390 . S
C991 H984 0.950 1_455 S
C991 C988 1.387 1_455 S
C992 C993 1.387 . S
C992 H996 0.950 . S
C992 C1001 1.390 . S
C993 C992 1.387 . S
C993 C995 1.387 . S
H994 C1001 0.950 . S
C995 C993 1.387 . S
C995 C997 1.390 . S
C995 H999 0.950 . S
H996 C992 0.950 . S
C997 C995 1.390 . S
C997 C998 1.387 . S
C997 H1000 0.950 . S
C998 C997 1.387 . S
C998 C1001 1.387 . S
H999 C995 0.950 . S
H1000 C997 0.950 . S
C1001 C992 1.390 . S
C1001 H994 0.950 . S
C1001 C998 1.387 . S
C1002 C1003 1.387 . S
C1002 H1006 0.950 . S
C1002 C1011 1.390 1_565 S
C1003 C1002 1.387 . S
C1003 C1005 1.387 1_655 S
H1004 C1011 0.950 . S
C1005 C1003 1.387 1_455 S
C1005 C1007 1.390 1_565 S
C1005 H1009 0.950 . S
H1006 C1002 0.950 . S
C1007 C1005 1.390 1_545 S
C1007 C1008 1.387 . S
C1007 H1010 0.950 . S
C1008 C1007 1.387 . S
C1008 C1011 1.387 1_455 S
H1009 C1005 0.950 . S
H1010 C1007 0.950 . S
C1011 C1002 1.390 1_545 S
C1011 H1004 0.950 . S
C1011 C1008 1.387 1_655 S
C1012 C1013 1.387 . S
C1012 H1016 0.950 . S
C1012 C1021 1.390 1_565 S
C1013 C1012 1.387 . S
C1013 C1015 1.387 . S
H1014 C1021 0.950 . S
C1015 C1013 1.387 . S
C1015 C1017 1.390 1_565 S
C1015 H1019 0.950 . S
H1016 C1012 0.950 . S
C1017 C1015 1.390 1_545 S
C1017 C1018 1.387 . S
C1017 H1020 0.950 . S
C1018 C1017 1.387 . S
C1018 C1021 1.387 . S
H1019 C1015 0.950 . S
H1020 C1017 0.950 . S
C1021 C1012 1.390 1_545 S
C1021 H1014 0.950 . S
C1021 C1018 1.387 . S
C1022 C1023 1.387 1_655 S
C1022 H1026 0.950 . S
C1022 C1031 1.390 . S
C1023 C1022 1.387 1_455 S
C1023 C1025 1.387 . S
H1024 C1031 0.950 . S
C1025 C1023 1.387 . S
C1025 C1027 1.390 . S
C1025 H1029 0.950 . S
H1026 C1022 0.950 . S
C1027 C1025 1.390 . S
C1027 C1028 1.387 1_455 S
C1027 H1030 0.950 . S
C1028 C1027 1.387 1_655 S
C1028 C1031 1.387 . S
H1029 C1025 0.950 . S
H1030 C1027 0.950 . S
C1031 C1022 1.390 . S
C1031 H1024 0.950 . S
C1031 C1028 1.387 . S
C1032 C1033 1.387 . S
C1032 H1036 0.950 . S
C1032 C1041 1.390 . S
C1033 C1032 1.387 . S
C1033 C1035 1.387 . S
H1034 C1041 0.950 . S
C1035 C1033 1.387 . S
C1035 C1037 1.390 . S
C1035 H1039 0.950 . S
H1036 C1032 0.950 . S
C1037 C1035 1.390 . S
C1037 C1038 1.387 . S
C1037 H1040 0.950 . S
C1038 C1037 1.387 . S
C1038 C1041 1.387 . S
H1039 C1035 0.950 . S
H1040 C1037 0.950 . S
C1041 C1032 1.390 . S
C1041 H1034 0.950 . S
C1041 C1038 1.387 . S
C1042 C1043 1.387 . S
C1042 H1046 0.950 . S
C1042 C1051 1.390 . S
C1043 C1042 1.387 . S
C1043 C1045 1.387 1_565 S
H1044 C1051 0.950 . S
C1045 C1043 1.387 1_545 S
C1045 C1047 1.390 . S
C1045 H1049 0.950 . S
H1046 C1042 0.950 . S
C1047 C1045 1.390 . S
C1047 C1048 1.387 . S
C1047 H1050 0.950 . S
C1048 C1047 1.387 . S
C1048 C1051 1.387 1_545 S
H1049 C1045 0.950 . S
H1050 C1047 0.950 . S
C1051 C1042 1.390 . S
C1051 H1044 0.950 . S
C1051 C1048 1.387 1_565 S
C1052 C1053 1.387 . S
C1052 H1056 0.950 . S
C1052 C1061 1.390 . S
C1053 C1052 1.387 . S
C1053 C1055 1.387 1_455 S
H1054 C1061 0.950 . S
C1055 C1053 1.387 1_655 S
C1055 C1057 1.390 . S
C1055 H1059 0.950 . S
H1056 C1052 0.950 . S
C1057 C1055 1.390 . S
C1057 C1058 1.387 . S
C1057 H1060 0.950 . S
C1058 C1057 1.387 . S
C1058 C1061 1.387 1_655 S
H1059 C1055 0.950 . S
H1060 C1057 0.950 . S
C1061 C1052 1.390 . S
C1061 H1054 0.950 . S
C1061 C1058 1.387 1_455 S
C1062 C1063 1.387 . S
C1062 H1066 0.950 . S
C1062 C1071 1.390 1_554 S
C1063 C1062 1.387 . S
C1063 C1065 1.387 . S
H1064 C1071 0.950 . S
C1065 C1063 1.387 . S
C1065 C1067 1.390 1_554 S
C1065 H1069 0.950 . S
H1066 C1062 0.950 . S
C1067 C1065 1.390 1_556 S
C1067 C1068 1.387 . S
C1067 H1070 0.950 . S
C1068 C1067 1.387 . S
C1068 C1071 1.387 . S
H1069 C1065 0.950 . S
H1070 C1067 0.950 . S
C1071 C1062 1.390 1_556 S
C1071 H1064 0.950 . S
C1071 C1068 1.387 . S
C1072 C1073 1.387 . S
C1072 H1076 0.950 . S
C1072 C1081 1.390 . S
C1073 C1072 1.387 . S
C1073 C1075 1.387 1_456 S
H1074 C1081 0.950 . S
C1075 C1073 1.387 1_654 S
C1075 C1077 1.390 . S
C1075 H1079 0.950 . S
H1076 C1072 0.950 . S
C1077 C1075 1.390 . S
C1077 C1078 1.387 . S
C1077 H1080 0.950 . S
C1078 C1077 1.387 . S
C1078 C1081 1.387 1_654 S
H1079 C1075 0.950 . S
H1080 C1077 0.950 . S
C1081 C1072 1.390 . S
C1081 H1074 0.950 . S
C1081 C1078 1.387 1_456 S
C1082 C1083 1.387 . S
C1082 H1086 0.950 . S
C1082 C1091 1.390 . S
C1083 C1082 1.387 . S
C1083 C1085 1.387 . S
H1084 C1091 0.950 . S
C1085 C1083 1.387 . S
C1085 C1087 1.390 . S
C1085 H1089 0.950 . S
H1086 C1082 0.950 . S
C1087 C1085 1.390 . S
C1087 C1088 1.387 . S
C1087 H1090 0.950 . S
C1088 C1087 1.387 . S
C1088 C1091 1.387 . S
H1089 C1085 0.950 . S
H1090 C1087 0.950 . S
C1091 C1082 1.390 . S
C1091 H1084 0.950 . S
C1091 C1088 1.387 . S
C1092 C1093 1.387 . S
C1092 H1096 0.950 . S
C1092 C1101 1.390 1_556 S
C1093 C1092 1.387 . S
C1093 C1095 1.387 . S
H1094 C1101 0.950 . S
C1095 C1093 1.387 . S
C1095 C1097 1.390 1_556 S
C1095 H1099 0.950 . S
H1096 C1092 0.950 . S
C1097 C1095 1.390 1_554 S
C1097 C1098 1.387 . S
C1097 H1100 0.950 . S
C1098 C1097 1.387 . S
C1098 C1101 1.387 . S
H1099 C1095 0.950 . S
H1100 C1097 0.950 . S
C1101 C1092 1.390 1_554 S
C1101 H1094 0.950 . S
C1101 C1098 1.387 . S
C1102 C1103 1.387 . S
C1102 H1106 0.950 . S
C1102 C1111 1.390 . S
C1103 C1102 1.387 . S
C1103 C1105 1.387 . S
H1104 C1111 0.950 . S
C1105 C1103 1.387 . S
C1105 C1107 1.390 . S
C1105 H1109 0.950 . S
H1106 C1102 0.950 . S
C1107 C1105 1.390 . S
C1107 C1108 1.387 . S
C1107 H1110 0.950 . S
C1108 C1107 1.387 . S
C1108 C1111 1.387 . S
H1109 C1105 0.950 . S
H1110 C1107 0.950 . S
C1111 C1102 1.390 . S
C1111 H1104 0.950 . S
C1111 C1108 1.387 . S
C1112 C1113 1.387 1_554 S
C1112 H1116 0.951 . S
C1112 C1121 1.390 . S
C1113 C1112 1.387 1_556 S
C1113 C1115 1.387 1_545 S
H1114 C1121 0.950 . S
C1115 C1113 1.387 1_565 S
C1115 C1117 1.390 . S
C1115 H1119 0.950 . S
H1116 C1112 0.951 . S
C1117 C1115 1.390 . S
C1117 C1118 1.387 1_556 S
C1117 H1120 0.951 . S
C1118 C1117 1.387 1_554 S
C1118 C1121 1.387 1_565 S
H1119 C1115 0.950 . S
H1120 C1117 0.951 . S
C1121 C1112 1.390 . S
C1121 H1114 0.950 . S
C1121 C1118 1.387 1_545 S
C1122 C1123 1.387 . S
C1122 H1126 0.950 . S
C1122 C1131 1.390 . S
C1123 C1122 1.387 . S
C1123 C1125 1.387 . S
H1124 C1131 0.950 . S
C1125 C1123 1.387 . S
C1125 C1127 1.390 . S
C1125 H1129 0.950 . S
H1126 C1122 0.950 . S
C1127 C1125 1.390 . S
C1127 C1128 1.387 . S
C1127 H1130 0.950 . S
C1128 C1127 1.387 . S
C1128 C1131 1.387 . S
H1129 C1125 0.950 . S
H1130 C1127 0.950 . S
C1131 C1122 1.390 . S
C1131 H1124 0.950 . S
C1131 C1128 1.387 . S
C1132 C1133 1.387 . S
C1132 H1136 0.950 . S
C1132 C1141 1.390 . S
C1133 C1132 1.387 . S
C1133 C1135 1.387 . S
H1134 C1141 0.950 . S
C1135 C1133 1.387 . S
C1135 C1137 1.390 . S
C1135 H1139 0.950 . S
H1136 C1132 0.950 . S
C1137 C1135 1.390 . S
C1137 C1138 1.387 . S
C1137 H1140 0.950 . S
C1138 C1137 1.387 . S
C1138 C1141 1.387 . S
H1139 C1135 0.950 . S
H1140 C1137 0.950 . S
C1141 C1132 1.390 . S
C1141 H1134 0.950 . S
C1141 C1138 1.387 . S
C1142 C1143 1.387 . S
C1142 H1146 0.950 . S
C1142 C1151 1.390 . S
C1143 C1142 1.387 . S
C1143 C1145 1.387 . S
H1144 C1151 0.950 . S
C1145 C1143 1.387 . S
C1145 C1147 1.390 . S
C1145 H1149 0.950 . S
H1146 C1142 0.950 . S
C1147 C1145 1.390 . S
C1147 C1148 1.387 . S
C1147 H1150 0.950 . S
C1148 C1147 1.387 . S
C1148 C1151 1.387 . S
H1149 C1145 0.950 . S
H1150 C1147 0.950 . S
C1151 C1142 1.390 . S
C1151 H1144 0.950 . S
C1151 C1148 1.387 . S
C513 C16 0.983 . S
C518 C404 0.983 . S
C523 C20 0.983 . S
C528 C400 0.983 . S
C533 C48 0.985 . S
C538 C436 0.985 . S
C543 C52 0.986 . S
C548 C432 0.986 . S
C553 C464 0.985 . S
C558 C84 0.985 . S
C563 C80 0.983 . S
C568 C468 0.983 . S
C573 C116 0.983 . S
C578 C496 0.983 . S
C583 C112 0.986 . S
C588 C500 0.986 . S
C593 C276 0.983 . S
C598 C144 0.983 . S
C603 C272 0.983 . S
C608 C148 0.983 . S
C613 C308 0.983 . S
C618 C176 0.983 . S
C623 C304 0.983 . S
C628 C180 0.983 . S
C633 C336 0.983 . S
C638 C212 0.983 . S
C643 C208 0.986 . S
C648 C340 0.986 . S
C653 C368 0.983 . S
C658 C244 0.983 . S
C663 C240 0.983 . S
C668 C372 0.983 . S
C673 C23 1.662 . S
C678 C403 1.662 . S
C683 C19 1.662 1_655 S
C688 C407 1.662 . S
C693 C55 1.663 . S
C698 C435 1.663 . S
C703 C439 1.664 . S
C708 C51 1.664 1_655 S
C713 C471 1.662 . S
C718 C83 1.662 . S
C723 C467 1.662 . S
C728 C87 1.662 1_455 S
C733 C503 1.664 . S
C738 C115 1.664 . S
C743 C499 1.662 . S
C748 C119 1.662 1_455 S
C753 C151 1.663 . S
C758 C275 1.663 . S
C763 C147 1.662 1_655 S
C768 C279 1.662 . S
C773 C183 1.662 . S
C778 C307 1.662 . S
C783 C179 1.663 1_655 S
C788 C311 1.663 . S
C793 C343 1.662 . S
C798 C211 1.662 . S
C803 C339 1.662 . S
C808 C215 1.662 1_455 S
C813 C375 1.662 . S
C818 C243 1.662 . S
C823 C247 1.664 1_455 S
C828 C371 1.664 . S
C833 C22 1.969 . S
C838 C305 1.945 . S
C843 C310 1.969 . S
C848 C17 1.945 . S
C853 C273 1.944 . S
C858 C54 1.968 . S
C863 C278 1.970 . S
C868 C49 1.947 . S
C873 C373 1.945 . S
C878 C82 1.969 . S
C883 C85 1.947 . S
C888 C370 1.971 . S
C893 C114 1.968 . S
C898 C341 1.944 . S
C903 C117 1.947 . S
C908 C338 1.971 . S
C913 C433 1.947 . S
C918 C150 1.971 . S
C923 C145 1.945 . S
C928 C438 1.969 . S
C933 C182 1.968 . S
C938 C401 1.944 . S
C943 C406 1.971 . S
C948 C177 1.947 . S
C953 C501 1.947 . S
C958 C210 1.971 . S
C963 C498 1.970 . S
C968 C213 1.947 . S
C973 C469 1.946 . S
C978 C242 1.970 . S
C983 C466 1.971 . S
C988 C245 1.947 . S
C993 C465 1.753 . S
C998 C21 1.753 . S
C1003 C86 1.531 . S
C1008 C18 1.531 . S
C1013 C369 1.753 . S
C1018 C53 1.753 . S
C1023 C50 1.531 . S
C1028 C246 1.531 . S
C1033 C405 1.754 . S
C1038 C81 1.754 . S
C1043 C113 1.754 . S
C1048 C309 1.754 . S
C1053 C178 1.528 . S
C1058 C118 1.528 . S
C1063 C337 1.753 . S
C1068 C149 1.753 . S
C1073 C146 1.529 . S
C1078 C214 1.529 . S
C1083 C181 1.753 . S
C1088 C497 1.753 . S
C1093 C277 1.754 . S
C1098 C209 1.754 . S
C1103 C437 1.753 . S
C1108 C241 1.753 . S
C1113 C274 1.531 . S
C1118 C342 1.531 . S
C1123 C306 1.529 . S
C1128 C502 1.529 . S
C1133 C434 1.530 . S
C1138 C374 1.530 . S
C1143 C470 1.531 . S
C1148 C402 1.531 . S
