# Generated by pormake.
# Topology smt, (6)-cn, num edge types: 1
# Building blocks:
#     Node 0, Type 0, BuildingBlock: LEVNOQ01_clean_sbu_1, # of connection points: 6
#     Node 1, Type 0, BuildingBlock: LEVNOQ01_clean_sbu_1, # of connection points: 6
#     Node 2, Type 0, BuildingBlock: LEVNOQ01_clean_sbu_1, # of connection points: 6
#     Node 3, Type 0, BuildingBlock: LEVNOQ01_clean_sbu_1, # of connection points: 6
#     Node 4, Type 0, BuildingBlock: LEVNOQ01_clean_sbu_1, # of connection points: 6
#     Node 5, Type 0, BuildingBlock: LEVNOQ01_clean_sbu_1, # of connection points: 6
#     Edge 6, Type (0, 0), BuildingBlock: AJUNOK_clean_linker_0, # of connection points: 2
#     Edge 7, Type (0, 0), BuildingBlock: AJUNOK_clean_linker_0, # of connection points: 2
#     Edge 8, Type (0, 0), BuildingBlock: AJUNOK_clean_linker_0, # of connection points: 2
#     Edge 9, Type (0, 0), BuildingBlock: AJUNOK_clean_linker_0, # of connection points: 2
#     Edge 10, Type (0, 0), BuildingBlock: AJUNOK_clean_linker_0, # of connection points: 2
#     Edge 11, Type (0, 0), BuildingBlock: AJUNOK_clean_linker_0, # of connection points: 2
#     Edge 12, Type (0, 0), BuildingBlock: AJUNOK_clean_linker_0, # of connection points: 2
#     Edge 13, Type (0, 0), BuildingBlock: AJUNOK_clean_linker_0, # of connection points: 2
#     Edge 14, Type (0, 0), BuildingBlock: AJUNOK_clean_linker_0, # of connection points: 2
#     Edge 15, Type (0, 0), BuildingBlock: AJUNOK_clean_linker_0, # of connection points: 2
#     Edge 16, Type (0, 0), BuildingBlock: AJUNOK_clean_linker_0, # of connection points: 2
#     Edge 17, Type (0, 0), BuildingBlock: AJUNOK_clean_linker_0, # of connection points: 2
#     Edge 18, Type (0, 0), BuildingBlock: AJUNOK_clean_linker_0, # of connection points: 2
#     Edge 19, Type (0, 0), BuildingBlock: AJUNOK_clean_linker_0, # of connection points: 2
#     Edge 20, Type (0, 0), BuildingBlock: AJUNOK_clean_linker_0, # of connection points: 2
#     Edge 21, Type (0, 0), BuildingBlock: AJUNOK_clean_linker_0, # of connection points: 2
#     Edge 22, Type (0, 0), BuildingBlock: AJUNOK_clean_linker_0, # of connection points: 2
#     Edge 23, Type (0, 0), BuildingBlock: AJUNOK_clean_linker_0, # of connection points: 2
# Relax obj value: 0.322
# Max RMSD: 0.278
# Mean RMSD: 0.278
data_MOF--net-smt--node1-LEVNOQ01_clean_sbu_1--edge1-AJUNOK_clean_linker_0
_symmetry_space_group_name_H-M    P1
_symmetry_Int_Tables_number       1
_symmetry_cell_setting            triclinic
loop_
_symmetry_equiv_pos_as_xyz
'x, y, z'
_cell_length_a     27.776777
_cell_length_b     27.770146
_cell_length_c     17.273323
_cell_angle_alpha  89.851261
_cell_angle_beta   90.413842
_cell_angle_gamma 120.49834
loop_
_atom_site_label
_atom_site_type_symbol
_atom_site_fract_x
_atom_site_fract_y
_atom_site_fract_z
_atom_type_partial_charge
O0 O 0.26509 -0.00669 0.00844 0.0
Mg1 Mg 0.30633 0.04703 0.10367 0.0
O2 O 0.33964 0.02827 0.93343 0.0
Mg3 Mg 0.41546 0.09056 0.00908 0.0
O4 O 0.36578 0.12687 0.06848 0.0
O5 O 0.29038 0.1079 0.13744 0.0
O6 O 0.4962 0.14387 0.08366 0.0
O7 O 0.43853 0.17334 0.93152 0.0
Mg8 Mg 0.47815 0.11921 0.91364 0.0
O9 O 0.45369 0.04008 0.943 0.0
O10 O 0.5463 0.1781 0.97954 0.0
O11 O 0.44513 0.14271 0.82004 0.0
O12 O 0.51706 0.09005 0.85169 0.0
C13 C 0.37619 0.00679 0.16896 0.0
C14 C 0.28829 -0.00703 0.94563 0.0
C15 C 0.33574 0.14392 0.10322 0.0
C16 C 0.54377 0.17314 0.05214 0.0
C17 C 0.44493 0.18067 0.85877 0.0
C18 C 0.48836 0.0445 0.88961 0.0
O19 O 0.33739 0.01529 0.1888 0.0
O20 O 0.39996 0.02348 0.1033 0.0
O21 O 0.29603 0.47998 0.97216 0.0
Mg22 Mg 0.35044 0.53155 0.05866 0.0
O23 O 0.24617 0.44945 0.07629 0.0
Mg24 Mg 0.30539 0.44122 0.16864 0.0
O25 O 0.38851 0.49054 0.09897 0.0
O26 O 0.43217 0.57137 0.03283 0.0
O27 O 0.36031 0.4418 0.26807 0.0
O28 O 0.30914 0.36633 0.10725 0.0
Mg29 Mg 0.25342 0.33815 0.24581 0.0
O30 O 0.21858 0.38852 0.2362 0.0
O31 O 0.31963 0.36013 0.32518 0.0
O32 O 0.24122 0.28732 0.14952 0.0
O33 O 0.18328 0.30931 0.30562 0.0
C34 C 0.33429 0.56951 0.20836 0.0
C35 C 0.24976 0.46223 0.00475 0.0
C36 C 0.4313 0.5276 0.05998 0.0
C37 C 0.35936 0.41011 0.32176 0.0
C38 C 0.28298 0.31306 0.10617 0.0
C39 C 0.17861 0.35012 0.27861 0.0
O40 O 0.33041 0.57682 0.13682 0.0
O41 O 0.32192 0.5214 0.23302 0.0
O42 O 0.91632 0.24609 0.30794 0.0
Mg43 Mg 0.90112 0.26053 0.42239 0.0
O44 O 0.92817 0.32615 0.2731 0.0
Mg45 Mg 0.8476 0.3214 0.32891 0.0
O46 O 0.82196 0.24209 0.40447 0.0
O47 O 0.84396 0.19149 0.48153 0.0
O48 O 0.78256 0.33525 0.39128 0.0
O49 O 0.77755 0.25451 0.24738 0.0
Mg50 Mg 0.79161 0.36169 0.20612 0.0
O51 O 0.86976 0.39504 0.24892 0.0
O52 O 0.74388 0.36169 0.30005 0.0
O53 O 0.78131 0.29504 0.13768 0.0
O54 O 0.84399 0.43829 0.16319 0.0
C55 C 0.93418 0.37962 0.47667 0.0
C56 C 0.94605 0.2921 0.27467 0.0
C57 C 0.80643 0.19751 0.44578 0.0
C58 C 0.75231 0.35556 0.37079 0.0
C59 C 0.76015 0.2515 0.17818 0.0
C60 C 0.88241 0.43678 0.20364 0.0
O61 O 0.94017 0.33745 0.48448 0.0
O62 O 0.90575 0.38337 0.42143 0.0
O63 O 0.44579 0.78998 0.31035 0.0
Mg64 Mg 0.42011 0.83765 0.36589 0.0
O65 O 0.49515 0.79601 0.41366 0.0
Mg66 Mg 0.50725 0.86409 0.50726 0.0
O67 O 0.4573 0.90022 0.44702 0.0
O68 O 0.49898 0.9091 0.33869 0.0
O69 O 0.51539 0.91746 0.61429 0.0
O70 O 0.58602 0.94377 0.45297 0.0
Mg71 Mg 0.62538 0.90853 0.59219 0.0
O72 O 0.55988 0.83145 0.56393 0.0
O73 O 0.59657 0.94454 0.67322 0.0
O74 O 0.66582 0.9528 0.49047 0.0
O75 O 0.63521 0.84375 0.628 0.0
C76 C 0.3775 0.77369 0.53048 0.0
C77 C 0.47411 0.77419 0.34796 0.0
C78 C 0.47938 0.92936 0.38635 0.0
C79 C 0.54938 0.94133 0.67068 0.0
C80 C 0.63933 0.97012 0.45046 0.0
C81 C 0.58798 0.81067 0.59472 0.0
O82 O 0.37176 0.78435 0.46023 0.0
O83 O 0.42564 0.79573 0.56276 0.0
O84 O 0.68617 0.67823 0.6573 0.0
Mg85 Mg 0.68112 0.62161 0.74332 0.0
O86 O 0.62356 0.59812 0.61058 0.0
Mg87 Mg 0.62463 0.52052 0.66628 0.0
O88 O 0.71473 0.56981 0.72953 0.0
O89 O 0.75525 0.65181 0.79356 0.0
O90 O 0.60582 0.43453 0.71342 0.0
O91 O 0.68359 0.51438 0.5736 0.0
Mg92 Mg 0.5565 0.43163 0.52343 0.0
O93 O 0.5411 0.47727 0.60137 0.0
O94 O 0.54181 0.38115 0.62392 0.0
O95 O 0.63273 0.44438 0.49341 0.0
O96 O 0.57074 0.51131 0.48754 0.0
C97 C 0.57952 0.55045 0.8294 0.0
C98 C 0.64694 0.65105 0.60987 0.0
C99 C 0.75705 0.60906 0.76853 0.0
C100 C 0.56513 0.38738 0.68995 0.0
C101 C 0.67932 0.48005 0.52118 0.0
C102 C 0.53539 0.50054 0.54096 0.0
O103 O 0.62222 0.59878 0.83157 0.0
O104 O 0.57137 0.51821 0.77228 0.0
O105 O 0.12739 0.65025 0.64549 0.0
Mg106 Mg 0.13464 0.59727 0.72462 0.0
O107 O 0.15802 0.69907 0.75005 0.0
Mg108 Mg 0.08919 0.63905 0.84004 0.0
O109 O 0.05574 0.55759 0.76629 0.0
O110 O 0.09396 0.51438 0.70417 0.0
O111 O 0.03425 0.58583 0.94141 0.0
O112 O 0.00908 0.63733 0.78569 0.0
Mg113 Mg 0.04227 0.70646 0.92925 0.0
O114 O 0.11978 0.72329 0.90431 0.0
O115 O 0.00039 0.63424 -0.00327 0.0
O116 O 0.01498 0.71576 0.81982 0.0
O117 O 0.10276 0.77658 0.98259 0.0
C118 C 0.19215 0.61557 0.87192 0.0
C119 C 0.16358 0.69452 0.67785 0.0
C120 C 0.05026 0.51547 0.72628 0.0
C121 C 0.00681 0.59229 -0.00489 0.0
C122 C -0.01131 0.66946 0.78525 0.0
C123 C 0.13725 0.77051 0.93985 0.0
O124 O 0.20376 0.62638 0.80119 0.0
O125 O 0.15398 0.62221 0.90107 0.0
C126 C 0.27764 0.90036 0.93121 0.0
C127 C 0.26205 0.93885 0.90516 0.0
C128 C 0.23848 0.84283 0.93441 0.0
C129 C 0.18362 0.82256 0.90874 0.0
H130 H 0.31769 0.91539 0.95967 0.0
H131 H 0.24947 0.81536 0.9643 0.0
S132 S 0.12743 0.90386 0.8134 0.0
N133 N 0.19202 0.95124 0.83843 0.0
N134 N 0.11908 0.84303 0.8407 0.0
C135 C 0.17055 0.85952 0.87081 0.0
C136 C 0.20982 0.91793 0.86951 0.0
C137 C 0.33238 0.26976 0.16525 0.0
C138 C 0.31583 0.285 0.09658 0.0
C139 C 0.34681 0.22836 0.16552 0.0
C140 C 0.34668 0.20156 0.09684 0.0
H141 H 0.32884 0.28609 0.2205 0.0
H142 H 0.35289 0.21352 0.22077 0.0
S143 S 0.32176 0.23679 0.89915 0.0
N144 N 0.31053 0.27779 0.95626 0.0
N145 N 0.33952 0.20047 0.9565 0.0
C146 C 0.338 0.22182 0.02644 0.0
C147 C 0.32205 0.26355 0.02627 0.0
C148 C 0.02599 0.28401 0.32271 0.0
C149 C 0.00745 0.31348 0.2765 0.0
C150 C 0.08201 0.30002 0.3284 0.0
C151 C 0.12317 0.34565 0.28652 0.0
H152 H -0.00302 0.24731 0.35523 0.0
H153 H 0.09241 0.27409 0.36342 0.0
S154 S 0.10039 0.4455 0.17162 0.0
N155 N 0.03688 0.39731 0.19903 0.0
N156 N 0.14346 0.42644 0.20779 0.0
C157 C 0.10673 0.37888 0.24531 0.0
C158 C 0.04871 0.36294 0.24049 0.0
C159 C 0.72517 0.12017 0.50969 0.0
C160 C 0.75008 0.14798 0.44067 0.0
C161 C 0.68494 0.06331 0.50972 0.0
C162 C 0.66882 0.03159 0.44098 0.0
H163 H 0.74031 0.14137 0.5648 0.0
H164 H 0.66959 0.04288 0.56509 0.0
S165 S 0.71586 0.08701 0.2432 0.0
N166 N 0.75139 0.14171 0.30048 0.0
N167 N 0.67564 0.03389 0.30053 0.0
C168 C 0.68957 0.05982 0.3705 0.0
C169 C 0.73032 0.11841 0.37045 0.0
C170 C 0.56265 0.71871 0.64603 0.0
C171 C 0.57424 0.75313 0.58116 0.0
C172 C 0.58091 0.68018 0.64967 0.0
C173 C 0.61246 0.67593 0.58941 0.0
H174 H 0.54563 0.72634 0.69775 0.0
H175 H 0.5757 0.65803 0.7036 0.0
S176 S 0.6391 0.74611 0.39859 0.0
N177 N 0.60661 0.77168 0.4486 0.0
N178 N 0.64388 0.70103 0.45639 0.0
C179 C 0.61744 0.70458 0.52003 0.0
C180 C 0.59707 0.74259 0.51564 0.0
C181 C 0.90316 0.66249 0.83909 0.0
C182 C 0.92696 0.6447 0.78228 0.0
C183 C 0.84674 0.64559 0.83802 0.0
C184 C 0.81078 0.61032 0.77966 0.0
H185 H 0.92859 0.69112 0.88462 0.0
H186 H 0.83191 0.66307 0.88139 0.0
S187 S 0.84778 0.53918 0.62997 0.0
N188 N 0.90758 0.58026 0.67543 0.0
N189 N 0.80027 0.54916 0.67217 0.0
C190 C 0.83207 0.58693 0.72736 0.0
C191 C 0.89044 0.60399 0.72891 0.0
C192 C 0.36921 0.94705 0.28307 0.0
C193 C 0.40199 -0.01173 0.22825 0.0
C194 C 0.39436 0.93127 0.34115 0.0
C195 C 0.45305 0.95741 0.34716 0.0
H196 H 0.32403 0.92575 0.27951 0.0
H197 H 0.36782 0.89644 0.37845 0.0
S198 S 0.55697 0.07008 0.22274 0.0
N199 N 0.49606 0.0563 0.18667 0.0
N200 N 0.5425 0.02803 0.29743 0.0
C201 C 0.48573 0.00051 0.29562 0.0
C202 C 0.4605 0.01539 0.23549 0.0
C203 C 0.40566 0.39879 0.43932 0.0
C204 C 0.40015 0.43415 0.38608 0.0
C205 C 0.44451 0.42092 0.50016 0.0
C206 C 0.47922 0.47911 0.50926 0.0
H207 H 0.38153 0.35382 0.43218 0.0
H208 H 0.45094 0.39236 0.53555 0.0
S209 S 0.4759 0.58951 0.39431 0.0
N210 N 0.42871 0.53057 0.35272 0.0
N211 N 0.50092 0.5711 0.46817 0.0
C212 C 0.47039 0.51453 0.46151 0.0
C213 C 0.43162 0.49241 0.39892 0.0
C214 C 0.01168 0.51035 0.59722 0.0
C215 C 0.00312 0.4875 0.67249 0.0
C216 C -0.01384 0.47613 0.53253 0.0
C217 C 0.95096 0.41848 0.54229 0.0
H218 H 0.04339 0.55358 0.58739 0.0
H219 H -0.00231 0.49391 0.47504 0.0
S220 S 0.89942 0.34294 0.72813 0.0
N221 N 0.94709 0.40722 0.75384 0.0
N222 N 0.89674 0.34294 0.63255 0.0
C223 C 0.93535 0.39716 0.61771 0.0
C224 C 0.96198 0.43178 0.68317 0.0
C225 C 0.47431 0.94515 0.74421 0.0
C226 C 0.53064 0.95927 0.73897 0.0
C227 C 0.45592 0.96382 0.8062 0.0
C228 C 0.49344 -0.00243 0.86412 0.0
H229 H 0.44469 0.92175 0.69848 0.0
H230 H 0.41414 0.95766 0.80363 0.0
S231 S 0.64106 0.03632 0.88786 0.0
N232 N 0.62135 0.00208 0.80481 0.0
N233 N 0.58521 0.0354 0.92176 0.0
C234 C 0.54729 0.00548 0.86536 0.0
C235 C 0.56669 -0.01236 0.80189 0.0
C236 C 0.44686 0.4855 0.947 0.0
C237 C 0.4669 0.51153 0.01943 0.0
C238 C 0.48366 0.4953 0.88587 0.0
C239 C 0.54142 0.53094 0.89623 0.0
H240 H 0.40236 0.46314 0.93471 0.0
H241 H 0.46657 0.47867 0.82908 0.0
S242 S 0.61457 0.59166 0.08248 0.0
N243 N 0.54752 0.56258 0.1033 0.0
N244 N 0.61728 0.57959 -0.01054 0.0
C245 C 0.56193 0.55002 0.97156 0.0
C246 C 0.52442 0.54043 0.03327 0.0
C247 C -0.01592 0.50219 0.05906 0.0
C248 C -0.01152 0.55488 0.06281 0.0
C249 C 0.96065 0.46439 0.12043 0.0
C250 C 0.93952 0.47795 0.18518 0.0
H251 H -0.00501 0.48861 0.00671 0.0
H252 H 0.95078 0.42169 0.11149 0.0
S253 S 0.95943 0.61599 0.2352 0.0
N254 N -0.01605 0.62337 0.1465 0.0
N255 N 0.9392 0.55107 0.26025 0.0
C256 C 0.95342 0.53328 0.19573 0.0
C257 C -0.02329 0.57178 0.13377 0.0
C258 C 0.4479 0.26006 0.78644 0.0
C259 C 0.47588 0.2378 0.82698 0.0
C260 C 0.47793 0.31026 0.74545 0.0
C261 C 0.53691 0.33967 0.74321 0.0
H262 H 0.40271 0.23742 0.78356 0.0
H263 H 0.45467 0.32535 0.71307 0.0
S264 S 0.62972 0.29789 0.83845 0.0
N265 N 0.56585 0.24829 0.86133 0.0
N266 N 0.62208 0.34328 0.78561 0.0
C267 C 0.5655 0.31884 0.78536 0.0
C268 C 0.5349 0.26748 0.8266 0.0
C269 C 0.20356 0.56713 -0.01199 0.0
C270 C 0.20249 0.57276 0.90718 0.0
C271 C 0.21138 0.52523 0.02114 0.0
C272 C 0.21744 0.48701 0.97449 0.0
H273 H 0.20034 0.59645 0.02575 0.0
H274 H 0.21703 0.52562 0.0833 0.0
S275 S 0.20608 0.47613 0.76098 0.0
N276 N 0.20036 0.53096 0.78185 0.0
N277 N 0.21373 0.45227 0.84496 0.0
C278 C 0.21118 0.48897 0.89434 0.0
C279 C 0.20446 0.53201 0.86042 0.0
C280 C 0.63579 0.17905 0.05174 0.0
C281 C 0.59604 0.18613 0.09294 0.0
C282 C 0.68713 0.19233 0.08467 0.0
C283 C 0.70086 0.21294 0.16036 0.0
H284 H 0.62796 0.16457 -0.00774 0.0
H285 H 0.7181 0.19089 0.04848 0.0
S286 S 0.60905 0.23194 0.2969 0.0
N287 N 0.57175 0.20969 0.21619 0.0
N288 N 0.66849 0.23409 0.2791 0.0
C289 C 0.65975 0.2156 0.20472 0.0
C290 C 0.6074 0.20269 0.17065 0.0
C291 C 0.46515 0.70832 0.24867 0.0
C292 C 0.46101 0.71756 0.32747 0.0
C293 C 0.4235 0.66039 0.21155 0.0
C294 C 0.37682 0.61885 0.25214 0.0
H295 H 0.49674 0.74158 0.21344 0.0
H296 H 0.42729 0.65684 0.14972 0.0
S297 S 0.35604 0.6157 0.46405 0.0
N298 N 0.4136 0.67627 0.44838 0.0
N299 N 0.33554 0.58491 0.37859 0.0
C300 C 0.37643 0.62388 0.3329 0.0
C301 C 0.41902 0.67318 0.37073 0.0
C302 C 0.769 0.44927 0.40481 0.0
C303 C 0.74625 0.39257 0.42549 0.0
C304 C 0.7566 0.48461 0.44693 0.0
C305 C 0.72192 0.46432 0.51164 0.0
H306 H 0.79316 0.46528 0.35227 0.0
H307 H 0.76838 0.5253 0.42339 0.0
S308 S 0.66275 0.32357 0.5994 0.0
N309 N 0.69525 0.32075 0.52128 0.0
N310 N 0.67457 0.38812 0.60344 0.0
C311 C 0.70715 0.41079 0.53999 0.0
C312 C 0.71799 0.37416 0.49557 0.0
C313 C 0.27465 0.71773 0.53469 0.0
C314 C 0.32519 0.74605 0.57639 0.0
C315 C 0.22422 0.70632 0.56697 0.0
C316 C 0.22056 0.71964 0.64438 0.0
H317 H 0.27422 0.70668 0.47445 0.0
H318 H 0.18721 0.6855 0.53061 0.0
S319 S 0.33974 0.78763 0.78353 0.0
N320 N 0.36846 0.78404 0.70186 0.0
N321 N 0.27227 0.75946 0.76479 0.0
C322 C 0.27039 0.74557 0.68895 0.0
C323 C 0.32273 0.7586 0.6549 0.0
loop_
_geom_bond_atom_site_label_1
_geom_bond_atom_site_label_2
_geom_bond_distance
_geom_bond_site_symmetry_2
_ccdc_geom_bond_type
O0 Mg1 1.990 . S
O0 C14 1.253 1_554 S
Mg1 O0 1.990 . S
Mg1 O4 2.180 . S
Mg1 O5 2.117 . S
Mg1 O19 2.030 . S
O2 Mg3 2.072 1_556 S
O2 C14 1.260 . S
Mg3 O2 2.072 1_554 S
Mg3 O4 2.099 . S
Mg3 O6 2.079 . S
Mg3 O7 2.072 1_554 S
Mg3 O9 2.099 1_554 S
Mg3 O20 2.079 . S
O4 Mg1 2.180 . S
O4 Mg3 2.099 . S
O4 C15 1.279 . S
O5 Mg1 2.117 . S
O5 C15 1.250 . S
O6 Mg3 2.079 . S
O6 C16 1.264 . S
O7 Mg3 2.072 1_556 S
O7 C17 1.260 . S
Mg8 O9 2.180 . S
Mg8 O10 2.030 . S
Mg8 O11 1.990 . S
Mg8 O12 2.117 . S
O9 Mg3 2.099 1_556 S
O9 Mg8 2.180 . S
O9 C18 1.279 . S
O10 Mg8 2.030 . S
O10 C16 1.248 1_556 S
O11 Mg8 1.990 . S
O11 C17 1.253 . S
O12 Mg8 2.117 . S
O12 C18 1.250 . S
C13 O19 1.248 . S
C13 O20 1.264 . S
C14 O0 1.253 1_556 S
C14 O2 1.260 . S
C15 O4 1.279 . S
C15 O5 1.250 . S
C16 O6 1.264 . S
C16 O10 1.248 1_554 S
C17 O7 1.260 . S
C17 O11 1.253 . S
C18 O9 1.279 . S
C18 O12 1.250 . S
O19 Mg1 2.030 . S
O19 C13 1.248 . S
O20 Mg3 2.079 . S
O20 C13 1.264 . S
O21 Mg22 1.990 . S
O21 C35 1.253 . S
Mg22 O21 1.990 . S
Mg22 O25 2.180 . S
Mg22 O26 2.117 1_554 S
Mg22 O40 2.030 . S
O23 Mg24 2.072 . S
O23 C35 1.260 . S
Mg24 O23 2.072 . S
Mg24 O25 2.099 . S
Mg24 O27 2.079 . S
Mg24 O28 2.072 . S
Mg24 O30 2.099 . S
Mg24 O41 2.079 . S
O25 Mg22 2.180 . S
O25 Mg24 2.099 . S
O25 C36 1.279 . S
O26 Mg22 2.117 1_556 S
O26 C36 1.250 1_556 S
O27 Mg24 2.079 . S
O27 C37 1.264 . S
O28 Mg24 2.072 . S
O28 C38 1.260 . S
Mg29 O30 2.180 . S
Mg29 O31 2.030 . S
Mg29 O32 1.990 . S
Mg29 O33 2.117 . S
O30 Mg24 2.099 . S
O30 Mg29 2.180 . S
O30 C39 1.279 . S
O31 Mg29 2.030 . S
O31 C37 1.248 . S
O32 Mg29 1.990 . S
O32 C38 1.253 . S
O33 Mg29 2.117 . S
O33 C39 1.250 . S
C34 O40 1.248 . S
C34 O41 1.264 . S
C35 O21 1.253 . S
C35 O23 1.260 . S
C36 O25 1.279 . S
C36 O26 1.250 1_554 S
C37 O27 1.264 . S
C37 O31 1.248 . S
C38 O28 1.260 . S
C38 O32 1.253 . S
C39 O30 1.279 . S
C39 O33 1.250 . S
O40 Mg22 2.030 . S
O40 C34 1.248 . S
O41 Mg24 2.079 . S
O41 C34 1.264 . S
O42 Mg43 1.990 . S
O42 C56 1.253 . S
Mg43 O42 1.990 . S
Mg43 O46 2.180 . S
Mg43 O47 2.117 . S
Mg43 O61 2.030 . S
O44 Mg45 2.072 . S
O44 C56 1.260 . S
Mg45 O44 2.072 . S
Mg45 O46 2.099 . S
Mg45 O48 2.079 . S
Mg45 O49 2.072 . S
Mg45 O51 2.099 . S
Mg45 O62 2.079 . S
O46 Mg43 2.180 . S
O46 Mg45 2.099 . S
O46 C57 1.279 . S
O47 Mg43 2.117 . S
O47 C57 1.250 . S
O48 Mg45 2.079 . S
O48 C58 1.264 . S
O49 Mg45 2.072 . S
O49 C59 1.260 . S
Mg50 O51 2.180 . S
Mg50 O52 2.030 . S
Mg50 O53 1.990 . S
Mg50 O54 2.117 . S
O51 Mg45 2.099 . S
O51 Mg50 2.180 . S
O51 C60 1.279 . S
O52 Mg50 2.030 . S
O52 C58 1.248 . S
O53 Mg50 1.990 . S
O53 C59 1.253 . S
O54 Mg50 2.117 . S
O54 C60 1.250 . S
C55 O61 1.248 . S
C55 O62 1.264 . S
C56 O42 1.253 . S
C56 O44 1.260 . S
C57 O46 1.279 . S
C57 O47 1.250 . S
C58 O48 1.264 . S
C58 O52 1.248 . S
C59 O49 1.260 . S
C59 O53 1.253 . S
C60 O51 1.279 . S
C60 O54 1.250 . S
O61 Mg43 2.030 . S
O61 C55 1.248 . S
O62 Mg45 2.079 . S
O62 C55 1.264 . S
O63 Mg64 1.990 . S
O63 C77 1.253 . S
Mg64 O63 1.990 . S
Mg64 O67 2.180 . S
Mg64 O68 2.117 . S
Mg64 O82 2.030 . S
O65 Mg66 2.072 . S
O65 C77 1.260 . S
Mg66 O65 2.072 . S
Mg66 O67 2.099 . S
Mg66 O69 2.079 . S
Mg66 O70 2.072 . S
Mg66 O72 2.099 . S
Mg66 O83 2.079 . S
O67 Mg64 2.180 . S
O67 Mg66 2.099 . S
O67 C78 1.279 . S
O68 Mg64 2.117 . S
O68 C78 1.250 . S
O69 Mg66 2.079 . S
O69 C79 1.264 . S
O70 Mg66 2.072 . S
O70 C80 1.260 . S
Mg71 O72 2.180 . S
Mg71 O73 2.030 . S
Mg71 O74 1.990 . S
Mg71 O75 2.117 . S
O72 Mg66 2.099 . S
O72 Mg71 2.180 . S
O72 C81 1.279 . S
O73 Mg71 2.030 . S
O73 C79 1.248 . S
O74 Mg71 1.990 . S
O74 C80 1.253 . S
O75 Mg71 2.117 . S
O75 C81 1.250 . S
C76 O82 1.248 . S
C76 O83 1.264 . S
C77 O63 1.253 . S
C77 O65 1.260 . S
C78 O67 1.279 . S
C78 O68 1.250 . S
C79 O69 1.264 . S
C79 O73 1.248 . S
C80 O70 1.260 . S
C80 O74 1.253 . S
C81 O72 1.279 . S
C81 O75 1.250 . S
O82 Mg64 2.030 . S
O82 C76 1.248 . S
O83 Mg66 2.079 . S
O83 C76 1.264 . S
O84 Mg85 1.990 . S
O84 C98 1.253 . S
Mg85 O84 1.990 . S
Mg85 O88 2.180 . S
Mg85 O89 2.117 . S
Mg85 O103 2.030 . S
O86 Mg87 2.072 . S
O86 C98 1.260 . S
Mg87 O86 2.072 . S
Mg87 O88 2.099 . S
Mg87 O90 2.079 . S
Mg87 O91 2.072 . S
Mg87 O93 2.099 . S
Mg87 O104 2.079 . S
O88 Mg85 2.180 . S
O88 Mg87 2.099 . S
O88 C99 1.279 . S
O89 Mg85 2.117 . S
O89 C99 1.250 . S
O90 Mg87 2.079 . S
O90 C100 1.264 . S
O91 Mg87 2.072 . S
O91 C101 1.260 . S
Mg92 O93 2.180 . S
Mg92 O94 2.030 . S
Mg92 O95 1.990 . S
Mg92 O96 2.117 . S
O93 Mg87 2.099 . S
O93 Mg92 2.180 . S
O93 C102 1.279 . S
O94 Mg92 2.030 . S
O94 C100 1.248 . S
O95 Mg92 1.990 . S
O95 C101 1.253 . S
O96 Mg92 2.117 . S
O96 C102 1.250 . S
C97 O103 1.248 . S
C97 O104 1.264 . S
C98 O84 1.253 . S
C98 O86 1.260 . S
C99 O88 1.279 . S
C99 O89 1.250 . S
C100 O90 1.264 . S
C100 O94 1.248 . S
C101 O91 1.260 . S
C101 O95 1.253 . S
C102 O93 1.279 . S
C102 O96 1.250 . S
O103 Mg85 2.030 . S
O103 C97 1.248 . S
O104 Mg87 2.079 . S
O104 C97 1.264 . S
O105 Mg106 1.990 . S
O105 C119 1.253 . S
Mg106 O105 1.990 . S
Mg106 O109 2.180 . S
Mg106 O110 2.117 . S
Mg106 O124 2.030 . S
O107 Mg108 2.072 . S
O107 C119 1.260 . S
Mg108 O107 2.072 . S
Mg108 O109 2.099 . S
Mg108 O111 2.079 . S
Mg108 O112 2.072 . S
Mg108 O114 2.099 . S
Mg108 O125 2.079 . S
O109 Mg106 2.180 . S
O109 Mg108 2.099 . S
O109 C120 1.279 . S
O110 Mg106 2.117 . S
O110 C120 1.250 . S
O111 Mg108 2.079 . S
O111 C121 1.264 . S
O112 Mg108 2.072 . S
O112 C122 1.260 . S
Mg113 O114 2.180 . S
Mg113 O115 2.030 . S
Mg113 O116 1.990 . S
Mg113 O117 2.117 . S
O114 Mg108 2.099 . S
O114 Mg113 2.180 . S
O114 C123 1.279 . S
O115 Mg113 2.030 . S
O115 C121 1.248 . S
O116 Mg113 1.990 . S
O116 C122 1.253 . S
O117 Mg113 2.117 . S
O117 C123 1.250 . S
C118 O124 1.248 . S
C118 O125 1.264 . S
C119 O105 1.253 . S
C119 O107 1.260 . S
C120 O109 1.279 . S
C120 O110 1.250 . S
C121 O111 1.264 . S
C121 O115 1.248 . S
C122 O112 1.260 . S
C122 O116 1.253 . S
C123 O114 1.279 . S
C123 O117 1.250 . S
O124 Mg106 2.030 . S
O124 C118 1.248 . S
O125 Mg108 2.079 . S
O125 C118 1.264 . S
C126 C127 1.369 . S
C126 C128 1.419 . S
C126 H130 0.930 . S
C127 C126 1.369 . S
C127 C136 1.429 . S
C128 C126 1.419 . S
C128 C129 1.363 . S
C128 H131 0.929 . S
C129 C128 1.363 . S
C129 C135 1.428 . S
H130 C126 0.930 . S
H131 C128 0.929 . S
S132 N133 1.613 . S
S132 N134 1.610 . S
N133 S132 1.613 . S
N133 C136 1.350 . S
N134 S132 1.610 . S
N134 C135 1.351 . S
C135 C129 1.428 . S
C135 N134 1.351 . S
C135 C136 1.434 . S
C136 C127 1.429 . S
C136 N133 1.350 . S
C136 C135 1.434 . S
C137 C138 1.369 . S
C137 C139 1.419 . S
C137 H141 0.930 . S
C138 C137 1.369 . S
C138 C147 1.429 . S
C139 C137 1.419 . S
C139 C140 1.363 . S
C139 H142 0.929 . S
C140 C139 1.363 . S
C140 C146 1.428 . S
H141 C137 0.930 . S
H142 C139 0.929 . S
S143 N144 1.613 . S
S143 N145 1.610 . S
N144 S143 1.613 . S
N144 C147 1.350 1_556 S
N145 S143 1.610 . S
N145 C146 1.351 1_556 S
C146 C140 1.428 . S
C146 N145 1.351 1_554 S
C146 C147 1.434 . S
C147 C138 1.429 . S
C147 N144 1.350 1_554 S
C147 C146 1.434 . S
C148 C149 1.369 . S
C148 C150 1.419 . S
C148 H152 0.930 . S
C149 C148 1.369 . S
C149 C158 1.429 . S
C150 C148 1.419 . S
C150 C151 1.363 . S
C150 H153 0.929 . S
C151 C150 1.363 . S
C151 C157 1.428 . S
H152 C148 0.930 . S
H153 C150 0.929 . S
S154 N155 1.613 . S
S154 N156 1.610 . S
N155 S154 1.613 . S
N155 C158 1.350 . S
N156 S154 1.610 . S
N156 C157 1.351 . S
C157 C151 1.428 . S
C157 N156 1.351 . S
C157 C158 1.434 . S
C158 C149 1.429 . S
C158 N155 1.350 . S
C158 C157 1.434 . S
C159 C160 1.369 . S
C159 C161 1.419 . S
C159 H163 0.930 . S
C160 C159 1.369 . S
C160 C169 1.429 . S
C161 C159 1.419 . S
C161 C162 1.363 . S
C161 H164 0.929 . S
C162 C161 1.363 . S
C162 C168 1.428 . S
H163 C159 0.930 . S
H164 C161 0.929 . S
S165 N166 1.613 . S
S165 N167 1.610 . S
N166 S165 1.613 . S
N166 C169 1.350 . S
N167 S165 1.610 . S
N167 C168 1.351 . S
C168 C162 1.428 . S
C168 N167 1.351 . S
C168 C169 1.434 . S
C169 C160 1.429 . S
C169 N166 1.350 . S
C169 C168 1.434 . S
C170 C171 1.369 . S
C170 C172 1.419 . S
C170 H174 0.930 . S
C171 C170 1.369 . S
C171 C180 1.429 . S
C172 C170 1.419 . S
C172 C173 1.363 . S
C172 H175 0.929 . S
C173 C172 1.363 . S
C173 C179 1.428 . S
H174 C170 0.930 . S
H175 C172 0.929 . S
S176 N177 1.613 . S
S176 N178 1.610 . S
N177 S176 1.613 . S
N177 C180 1.350 . S
N178 S176 1.610 . S
N178 C179 1.351 . S
C179 C173 1.428 . S
C179 N178 1.351 . S
C179 C180 1.434 . S
C180 C171 1.429 . S
C180 N177 1.350 . S
C180 C179 1.434 . S
C181 C182 1.369 . S
C181 C183 1.419 . S
C181 H185 0.930 . S
C182 C181 1.369 . S
C182 C191 1.429 . S
C183 C181 1.419 . S
C183 C184 1.363 . S
C183 H186 0.929 . S
C184 C183 1.363 . S
C184 C190 1.428 . S
H185 C181 0.930 . S
H186 C183 0.929 . S
S187 N188 1.613 . S
S187 N189 1.610 . S
N188 S187 1.613 . S
N188 C191 1.350 . S
N189 S187 1.610 . S
N189 C190 1.351 . S
C190 C184 1.428 . S
C190 N189 1.351 . S
C190 C191 1.434 . S
C191 C182 1.429 . S
C191 N188 1.350 . S
C191 C190 1.434 . S
C192 C193 1.369 . S
C192 C194 1.419 . S
C192 H196 0.930 . S
C193 C192 1.369 . S
C193 C202 1.429 1_565 S
C194 C192 1.419 . S
C194 C195 1.363 . S
C194 H197 0.929 . S
C195 C194 1.363 . S
C195 C201 1.428 1_565 S
H196 C192 0.930 . S
H197 C194 0.929 . S
S198 N199 1.613 . S
S198 N200 1.610 . S
N199 S198 1.613 . S
N199 C202 1.350 . S
N200 S198 1.610 . S
N200 C201 1.351 . S
C201 C195 1.428 1_545 S
C201 N200 1.351 . S
C201 C202 1.434 . S
C202 C193 1.429 1_545 S
C202 N199 1.350 . S
C202 C201 1.434 . S
C203 C204 1.369 . S
C203 C205 1.419 . S
C203 H207 0.930 . S
C204 C203 1.369 . S
C204 C213 1.429 . S
C205 C203 1.419 . S
C205 C206 1.363 . S
C205 H208 0.929 . S
C206 C205 1.363 . S
C206 C212 1.428 . S
H207 C203 0.930 . S
H208 C205 0.929 . S
S209 N210 1.613 . S
S209 N211 1.610 . S
N210 S209 1.613 . S
N210 C213 1.350 . S
N211 S209 1.610 . S
N211 C212 1.351 . S
C212 C206 1.428 . S
C212 N211 1.351 . S
C212 C213 1.434 . S
C213 C204 1.429 . S
C213 N210 1.350 . S
C213 C212 1.434 . S
C214 C215 1.369 . S
C214 C216 1.419 . S
C214 H218 0.930 . S
C215 C214 1.369 . S
C215 C224 1.429 1_455 S
C216 C214 1.419 . S
C216 C217 1.363 . S
C216 H219 0.929 . S
C217 C216 1.363 . S
C217 C223 1.428 1_455 S
H218 C214 0.930 . S
H219 C216 0.929 . S
S220 N221 1.613 . S
S220 N222 1.610 . S
N221 S220 1.613 . S
N221 C224 1.350 . S
N222 S220 1.610 . S
N222 C223 1.351 . S
C223 C217 1.428 1_655 S
C223 N222 1.351 . S
C223 C224 1.434 . S
C224 C215 1.429 1_655 S
C224 N221 1.350 . S
C224 C223 1.434 . S
C225 C226 1.369 1_565 S
C225 C227 1.419 1_565 S
C225 H229 0.930 . S
C226 C225 1.369 1_545 S
C226 C235 1.429 . S
C227 C225 1.419 1_545 S
C227 C228 1.363 . S
C227 H230 0.929 1_545 S
C228 C227 1.363 . S
C228 C234 1.428 . S
H229 C225 0.930 . S
H230 C227 0.929 1_565 S
S231 N232 1.613 . S
S231 N233 1.610 . S
N232 S231 1.613 . S
N232 C235 1.350 . S
N233 S231 1.610 . S
N233 C234 1.351 . S
C234 C228 1.428 . S
C234 N233 1.351 . S
C234 C235 1.434 . S
C235 C226 1.429 . S
C235 N232 1.350 . S
C235 C234 1.434 . S
C236 C237 1.369 1_556 S
C236 C238 1.419 . S
C236 H240 0.930 . S
C237 C236 1.369 1_554 S
C237 C246 1.429 . S
C238 C236 1.419 . S
C238 C239 1.363 . S
C238 H241 0.929 . S
C239 C238 1.363 . S
C239 C245 1.428 . S
H240 C236 0.930 . S
H241 C238 0.929 . S
S242 N243 1.613 . S
S242 N244 1.610 1_554 S
N243 S242 1.613 . S
N243 C246 1.350 . S
N244 S242 1.610 1_556 S
N244 C245 1.351 . S
C245 C239 1.428 . S
C245 N244 1.351 . S
C245 C246 1.434 1_556 S
C246 C237 1.429 . S
C246 N243 1.350 . S
C246 C245 1.434 1_554 S
C247 C248 1.369 . S
C247 C249 1.419 . S
C247 H251 0.930 1_655 S
C248 C247 1.369 . S
C248 C257 1.429 . S
C249 C247 1.419 . S
C249 C250 1.363 . S
C249 H252 0.929 . S
C250 C249 1.363 . S
C250 C256 1.428 . S
H251 C247 0.930 1_455 S
H252 C249 0.929 . S
S253 N254 1.613 . S
S253 N255 1.610 . S
N254 S253 1.613 . S
N254 C257 1.350 . S
N255 S253 1.610 . S
N255 C256 1.351 . S
C256 C250 1.428 . S
C256 N255 1.351 . S
C256 C257 1.434 . S
C257 C248 1.429 . S
C257 N254 1.350 . S
C257 C256 1.434 . S
C258 C259 1.369 . S
C258 C260 1.419 . S
C258 H262 0.930 . S
C259 C258 1.369 . S
C259 C268 1.429 . S
C260 C258 1.419 . S
C260 C261 1.363 . S
C260 H263 0.929 . S
C261 C260 1.363 . S
C261 C267 1.428 . S
H262 C258 0.930 . S
H263 C260 0.929 . S
S264 N265 1.613 . S
S264 N266 1.610 . S
N265 S264 1.613 . S
N265 C268 1.350 . S
N266 S264 1.610 . S
N266 C267 1.351 . S
C267 C261 1.428 . S
C267 N266 1.351 . S
C267 C268 1.434 . S
C268 C259 1.429 . S
C268 N265 1.350 . S
C268 C267 1.434 . S
C269 C270 1.369 1_554 S
C269 C271 1.419 . S
C269 H273 0.930 . S
C270 C269 1.369 1_556 S
C270 C279 1.429 . S
C271 C269 1.419 . S
C271 C272 1.363 . S
C271 H274 0.929 . S
C272 C271 1.363 . S
C272 C278 1.428 1_554 S
H273 C269 0.930 . S
H274 C271 0.929 . S
S275 N276 1.613 . S
S275 N277 1.610 . S
N276 S275 1.613 . S
N276 C279 1.350 . S
N277 S275 1.610 . S
N277 C278 1.351 . S
C278 C272 1.428 1_556 S
C278 N277 1.351 . S
C278 C279 1.434 . S
C279 C270 1.429 . S
C279 N276 1.350 . S
C279 C278 1.434 . S
C280 C281 1.369 . S
C280 C282 1.419 . S
C280 H284 0.930 . S
C281 C280 1.369 . S
C281 C290 1.429 . S
C282 C280 1.419 . S
C282 C283 1.363 . S
C282 H285 0.929 . S
C283 C282 1.363 . S
C283 C289 1.428 . S
H284 C280 0.930 . S
H285 C282 0.929 . S
S286 N287 1.613 . S
S286 N288 1.610 . S
N287 S286 1.613 . S
N287 C290 1.350 . S
N288 S286 1.610 . S
N288 C289 1.351 . S
C289 C283 1.428 . S
C289 N288 1.351 . S
C289 C290 1.434 . S
C290 C281 1.429 . S
C290 N287 1.350 . S
C290 C289 1.434 . S
C291 C292 1.369 . S
C291 C293 1.419 . S
C291 H295 0.930 . S
C292 C291 1.369 . S
C292 C301 1.429 . S
C293 C291 1.419 . S
C293 C294 1.363 . S
C293 H296 0.929 . S
C294 C293 1.363 . S
C294 C300 1.428 . S
H295 C291 0.930 . S
H296 C293 0.929 . S
S297 N298 1.613 . S
S297 N299 1.610 . S
N298 S297 1.613 . S
N298 C301 1.350 . S
N299 S297 1.610 . S
N299 C300 1.351 . S
C300 C294 1.428 . S
C300 N299 1.351 . S
C300 C301 1.434 . S
C301 C292 1.429 . S
C301 N298 1.350 . S
C301 C300 1.434 . S
C302 C303 1.369 . S
C302 C304 1.419 . S
C302 H306 0.930 . S
C303 C302 1.369 . S
C303 C312 1.429 . S
C304 C302 1.419 . S
C304 C305 1.363 . S
C304 H307 0.929 . S
C305 C304 1.363 . S
C305 C311 1.428 . S
H306 C302 0.930 . S
H307 C304 0.929 . S
S308 N309 1.613 . S
S308 N310 1.610 . S
N309 S308 1.613 . S
N309 C312 1.350 . S
N310 S308 1.610 . S
N310 C311 1.351 . S
C311 C305 1.428 . S
C311 N310 1.351 . S
C311 C312 1.434 . S
C312 C303 1.429 . S
C312 N309 1.350 . S
C312 C311 1.434 . S
C313 C314 1.369 . S
C313 C315 1.419 . S
C313 H317 0.930 . S
C314 C313 1.369 . S
C314 C323 1.429 . S
C315 C313 1.419 . S
C315 C316 1.363 . S
C315 H318 0.929 . S
C316 C315 1.363 . S
C316 C322 1.428 . S
H317 C313 0.930 . S
H318 C315 0.929 . S
S319 N320 1.613 . S
S319 N321 1.610 . S
N320 S319 1.613 . S
N320 C323 1.350 . S
N321 S319 1.610 . S
N321 C322 1.351 . S
C322 C316 1.428 . S
C322 N321 1.351 . S
C322 C323 1.434 . S
C323 C314 1.429 . S
C323 N320 1.350 . S
C323 C322 1.434 . S
C127 C14 1.694 1_565 S
C129 C123 1.607 . S
C138 C38 1.698 . S
C140 C15 1.612 . S
C149 C56 1.696 1_455 S
C151 C39 1.615 . S
C160 C57 1.617 . S
C162 C80 1.696 1_545 S
C171 C81 1.613 . S
C173 C98 1.697 . S
C182 C122 1.697 1_655 S
C184 C99 1.614 . S
C193 C13 1.346 1_565 S
C195 C78 1.087 . S
C204 C37 1.344 . S
C206 C102 1.089 . S
C215 C120 1.087 . S
C217 C55 1.341 1_455 S
C226 C79 1.341 1_545 S
C228 C18 1.081 . S
C237 C36 1.082 . S
C239 C97 1.342 . S
C248 C121 1.340 1_654 S
C250 C60 1.083 . S
C259 C17 1.208 . S
C261 C100 1.277 . S
C270 C118 1.265 . S
C272 C35 1.217 . S
C281 C16 1.278 . S
C283 C59 1.210 . S
C292 C77 1.219 . S
C294 C34 1.272 . S
C303 C58 1.278 . S
C305 C101 1.208 . S
C314 C76 1.276 . S
C316 C119 1.215 . S
