# Generated by pormake.
# Topology wlb, (5)-cn, num edge types: 1
# Building blocks:
#     Node 0, Type 0, BuildingBlock: XOMCOT_clean_sbu_0, # of connection points: 5
#     Node 1, Type 0, BuildingBlock: XOMCOT_clean_sbu_0, # of connection points: 5
#     Node 2, Type 0, BuildingBlock: XOMCOT_clean_sbu_0, # of connection points: 5
#     Node 3, Type 0, BuildingBlock: XOMCOT_clean_sbu_0, # of connection points: 5
#     Node 4, Type 0, BuildingBlock: XOMCOT_clean_sbu_0, # of connection points: 5
#     Node 5, Type 0, BuildingBlock: XOMCOT_clean_sbu_0, # of connection points: 5
#     Node 6, Type 0, BuildingBlock: XOMCOT_clean_sbu_0, # of connection points: 5
#     Node 7, Type 0, BuildingBlock: XOMCOT_clean_sbu_0, # of connection points: 5
#     Node 8, Type 0, BuildingBlock: XOMCOT_clean_sbu_0, # of connection points: 5
#     Node 9, Type 0, BuildingBlock: XOMCOT_clean_sbu_0, # of connection points: 5
#     Node 10, Type 0, BuildingBlock: XOMCOT_clean_sbu_0, # of connection points: 5
#     Node 11, Type 0, BuildingBlock: XOMCOT_clean_sbu_0, # of connection points: 5
#     Node 12, Type 0, BuildingBlock: XOMCOT_clean_sbu_0, # of connection points: 5
#     Node 13, Type 0, BuildingBlock: XOMCOT_clean_sbu_0, # of connection points: 5
#     Node 14, Type 0, BuildingBlock: XOMCOT_clean_sbu_0, # of connection points: 5
#     Node 15, Type 0, BuildingBlock: XOMCOT_clean_sbu_0, # of connection points: 5
#     Node 16, Type 0, BuildingBlock: XOMCOT_clean_sbu_0, # of connection points: 5
#     Node 17, Type 0, BuildingBlock: XOMCOT_clean_sbu_0, # of connection points: 5
#     Edge 18, Type (0, 0), BuildingBlock: ZUJKAS_clean_linker_0, # of connection points: 2
#     Edge 19, Type (0, 0), BuildingBlock: ZUJKAS_clean_linker_0, # of connection points: 2
#     Edge 20, Type (0, 0), BuildingBlock: ZUJKAS_clean_linker_0, # of connection points: 2
#     Edge 21, Type (0, 0), BuildingBlock: ZUJKAS_clean_linker_0, # of connection points: 2
#     Edge 22, Type (0, 0), BuildingBlock: ZUJKAS_clean_linker_0, # of connection points: 2
#     Edge 23, Type (0, 0), BuildingBlock: ZUJKAS_clean_linker_0, # of connection points: 2
#     Edge 24, Type (0, 0), BuildingBlock: ZUJKAS_clean_linker_0, # of connection points: 2
#     Edge 25, Type (0, 0), BuildingBlock: ZUJKAS_clean_linker_0, # of connection points: 2
#     Edge 26, Type (0, 0), BuildingBlock: ZUJKAS_clean_linker_0, # of connection points: 2
#     Edge 27, Type (0, 0), BuildingBlock: ZUJKAS_clean_linker_0, # of connection points: 2
#     Edge 28, Type (0, 0), BuildingBlock: ZUJKAS_clean_linker_0, # of connection points: 2
#     Edge 29, Type (0, 0), BuildingBlock: ZUJKAS_clean_linker_0, # of connection points: 2
#     Edge 30, Type (0, 0), BuildingBlock: ZUJKAS_clean_linker_0, # of connection points: 2
#     Edge 31, Type (0, 0), BuildingBlock: ZUJKAS_clean_linker_0, # of connection points: 2
#     Edge 32, Type (0, 0), BuildingBlock: ZUJKAS_clean_linker_0, # of connection points: 2
#     Edge 33, Type (0, 0), BuildingBlock: ZUJKAS_clean_linker_0, # of connection points: 2
#     Edge 34, Type (0, 0), BuildingBlock: ZUJKAS_clean_linker_0, # of connection points: 2
#     Edge 35, Type (0, 0), BuildingBlock: ZUJKAS_clean_linker_0, # of connection points: 2
#     Edge 36, Type (0, 0), BuildingBlock: ZUJKAS_clean_linker_0, # of connection points: 2
#     Edge 37, Type (0, 0), BuildingBlock: ZUJKAS_clean_linker_0, # of connection points: 2
#     Edge 38, Type (0, 0), BuildingBlock: ZUJKAS_clean_linker_0, # of connection points: 2
#     Edge 39, Type (0, 0), BuildingBlock: ZUJKAS_clean_linker_0, # of connection points: 2
#     Edge 40, Type (0, 0), BuildingBlock: ZUJKAS_clean_linker_0, # of connection points: 2
#     Edge 41, Type (0, 0), BuildingBlock: ZUJKAS_clean_linker_0, # of connection points: 2
#     Edge 42, Type (0, 0), BuildingBlock: ZUJKAS_clean_linker_0, # of connection points: 2
#     Edge 43, Type (0, 0), BuildingBlock: ZUJKAS_clean_linker_0, # of connection points: 2
#     Edge 44, Type (0, 0), BuildingBlock: ZUJKAS_clean_linker_0, # of connection points: 2
#     Edge 45, Type (0, 0), BuildingBlock: ZUJKAS_clean_linker_0, # of connection points: 2
#     Edge 46, Type (0, 0), BuildingBlock: ZUJKAS_clean_linker_0, # of connection points: 2
#     Edge 47, Type (0, 0), BuildingBlock: ZUJKAS_clean_linker_0, # of connection points: 2
#     Edge 48, Type (0, 0), BuildingBlock: ZUJKAS_clean_linker_0, # of connection points: 2
#     Edge 49, Type (0, 0), BuildingBlock: ZUJKAS_clean_linker_0, # of connection points: 2
#     Edge 50, Type (0, 0), BuildingBlock: ZUJKAS_clean_linker_0, # of connection points: 2
#     Edge 51, Type (0, 0), BuildingBlock: ZUJKAS_clean_linker_0, # of connection points: 2
#     Edge 52, Type (0, 0), BuildingBlock: ZUJKAS_clean_linker_0, # of connection points: 2
#     Edge 53, Type (0, 0), BuildingBlock: ZUJKAS_clean_linker_0, # of connection points: 2
#     Edge 54, Type (0, 0), BuildingBlock: ZUJKAS_clean_linker_0, # of connection points: 2
#     Edge 55, Type (0, 0), BuildingBlock: ZUJKAS_clean_linker_0, # of connection points: 2
#     Edge 56, Type (0, 0), BuildingBlock: ZUJKAS_clean_linker_0, # of connection points: 2
#     Edge 57, Type (0, 0), BuildingBlock: ZUJKAS_clean_linker_0, # of connection points: 2
#     Edge 58, Type (0, 0), BuildingBlock: ZUJKAS_clean_linker_0, # of connection points: 2
#     Edge 59, Type (0, 0), BuildingBlock: ZUJKAS_clean_linker_0, # of connection points: 2
#     Edge 60, Type (0, 0), BuildingBlock: ZUJKAS_clean_linker_0, # of connection points: 2
#     Edge 61, Type (0, 0), BuildingBlock: ZUJKAS_clean_linker_0, # of connection points: 2
#     Edge 62, Type (0, 0), BuildingBlock: ZUJKAS_clean_linker_0, # of connection points: 2
# Relax obj value: 0.313
# Max RMSD: 0.198
# Mean RMSD: 0.198
data_MOF--net-wlb--node1-XOMCOT_clean_sbu_0--edge1-ZUJKAS_clean_linker_0
_symmetry_space_group_name_H-M    P1
_symmetry_Int_Tables_number       1
_symmetry_cell_setting            triclinic
loop_
_symmetry_equiv_pos_as_xyz
'x, y, z'
_cell_length_a     66.384043
_cell_length_b     66.363064
_cell_length_c     50.581382
_cell_angle_alpha  90.005221
_cell_angle_beta   89.998993
_cell_angle_gamma 120.0049
loop_
_atom_site_label
_atom_site_type_symbol
_atom_site_fract_x
_atom_site_fract_y
_atom_site_fract_z
_atom_type_partial_charge
Co0 Co 0.04636 0.20068 0.22976 0.0
C1 C 0.01585 0.22147 0.21982 0.0
C2 C 0.01163 0.207 0.25861 0.0
C3 C 0.99679 0.21575 0.25602 0.0
N4 N 0.02351 0.21043 0.23582 0.0
N5 N -0.00059 0.22467 0.23152 0.0
H6 H 0.0219 0.22725 0.20008 0.0
H7 H 0.01334 0.1983 0.27583 0.0
C8 C 0.00029 0.15744 0.23038 0.0
O9 O 0.99273 0.16893 0.21629 0.0
N10 N 0.06914 0.19119 0.22461 0.0
C11 C 0.08784 0.20153 0.20865 0.0
C12 C 0.09877 0.18856 0.2088 0.0
C13 C 0.06895 0.17221 0.23441 0.0
N14 N 0.08682 0.17009 0.22492 0.0
C15 C 0.04765 0.21581 0.17611 0.0
C16 C 0.02732 0.17224 0.15317 0.0
C17 C 0.03243 0.1915 0.13729 0.0
C18 C 0.04326 0.2136 0.14896 0.0
C19 C 0.03182 0.17526 0.18026 0.0
N20 N 0.04025 0.19663 0.19179 0.0
H21 H 0.05655 0.23303 0.18465 0.0
H22 H 0.02871 0.1603 0.19181 0.0
H23 H 0.09286 0.21712 0.19725 0.0
H24 H 0.05559 0.15981 0.24746 0.0
O25 O 0.07069 0.23287 0.22996 0.0
O26 O 0.05756 0.21036 0.26545 0.0
O27 O 0.02168 0.16734 0.23732 0.0
C28 C 0.07154 0.23078 0.25543 0.0
H29 H 0.98462 0.21505 0.27074 0.0
H30 H 0.11423 0.19237 0.19773 0.0
H31 H 0.01962 0.15491 0.14483 0.0
H32 H 0.04846 0.22907 0.13719 0.0
Co33 Co 0.80087 0.84563 0.22905 0.0
C34 C 0.7792 0.79425 0.21945 0.0
C35 C 0.79464 0.80461 0.25783 0.0
C36 C 0.78537 0.78093 0.2554 0.0
N37 N 0.79105 0.81305 0.23514 0.0
N38 N 0.77567 0.7745 0.23124 0.0
H39 H 0.77356 0.79467 0.19967 0.0
H40 H 0.80363 0.81505 0.27491 0.0
C41 C 0.84437 0.84326 0.23251 0.0
O42 O 0.83373 0.82414 0.21833 0.0
N43 N 0.81041 0.87791 0.22384 0.0
C44 C 0.80055 0.88634 0.20727 0.0
C45 C 0.81319 0.91025 0.20808 0.0
C46 C 0.82882 0.89666 0.23458 0.0
N47 N 0.831 0.91672 0.22522 0.0
C48 C 0.78742 0.8325 0.17494 0.0
C49 C 0.83164 0.8553 0.15367 0.0
C50 C 0.81273 0.842 0.13695 0.0
C51 C 0.79031 0.83094 0.14783 0.0
C52 C 0.82791 0.85643 0.18066 0.0
N53 N 0.80615 0.84377 0.19135 0.0
H54 H 0.76996 0.82429 0.18278 0.0
H55 H 0.8426 0.86799 0.19271 0.0
H56 H 0.78557 0.87583 0.19496 0.0
H57 H 0.84043 0.89562 0.24882 0.0
O58 O 0.7687 0.83769 0.22773 0.0
O59 O 0.78998 0.84685 0.2642 0.0
O60 O 0.83393 0.85448 0.23829 0.0
C61 C 0.76992 0.84048 0.25323 0.0
H62 H 0.78564 0.76936 0.2703 0.0
H63 H 0.80997 0.92192 0.19622 0.0
H64 H 0.84915 0.86514 0.14589 0.0
H65 H 0.77511 0.82088 0.1356 0.0
Co66 Co 0.15456 0.95493 0.23071 0.0
C67 C 0.20608 0.98407 0.22141 0.0
C68 C 0.1956 0.98977 0.25941 0.0
C69 C 0.21929 0.00406 0.25707 0.0
N70 N 0.18722 0.97741 0.23691 0.0
N71 N 0.2258 0.0004 0.23314 0.0
H72 H 0.20573 0.97777 0.20178 0.0
H73 H 0.18508 0.98868 0.27628 0.0
C74 C 0.15778 0.00123 0.23234 0.0
O75 O 0.17684 0.00903 0.2182 0.0
N76 N 0.1222 0.93251 0.22542 0.0
C77 C 0.11357 0.91415 0.2089 0.0
C78 C 0.08969 0.9036 0.20903 0.0
C79 C 0.10359 0.93283 0.23556 0.0
N80 N 0.08346 0.91541 0.22573 0.0
C81 C 0.16815 0.95382 0.17689 0.0
C82 C 0.14557 0.97506 0.15457 0.0
C83 C 0.15919 0.9695 0.13831 0.0
C84 C 0.17011 0.95819 0.14972 0.0
C85 C 0.14416 0.97041 0.18161 0.0
N86 N 0.15677 0.96148 0.19284 0.0
H87 H 0.1762 0.94457 0.18517 0.0
H88 H 0.13247 0.97362 0.19331 0.0
H89 H 0.12395 0.90917 0.19708 0.0
H90 H 0.10478 0.94601 0.24909 0.0
O91 O 0.16195 0.93026 0.23051 0.0
O92 O 0.15283 0.94338 0.26621 0.0
O93 O 0.14626 0.97974 0.23884 0.0
C94 C 0.15894 0.92922 0.25598 0.0
H95 H 0.2308 0.01613 0.27183 0.0
H96 H 0.07785 0.88851 0.19753 0.0
H97 H 0.13572 0.98257 0.14641 0.0
H98 H 0.18037 0.95302 0.1379 0.0
Co99 Co 0.19984 0.04758 0.77061 0.0
C100 C 0.22186 0.01803 0.77902 0.0
C101 C 0.20408 0.01155 0.74196 0.0
C102 C 0.21308 0.99689 0.74404 0.0
N103 N 0.20923 0.02455 0.76412 0.0
N104 N 0.22426 0.00108 0.76736 0.0
H105 H 0.22883 0.02488 0.79821 0.0
H106 H 0.19405 0.01239 0.72558 0.0
C107 C 0.15639 0.00181 0.77009 0.0
O108 O 0.16779 0.9942 0.7843 0.0
N109 N 0.19072 0.07058 0.77606 0.0
C110 C 0.20124 0.08922 0.79208 0.0
C111 C 0.18883 0.10072 0.79149 0.0
C112 C 0.17214 0.07091 0.76588 0.0
N113 N 0.17051 0.08917 0.77506 0.0
C114 C 0.21483 0.04815 0.82425 0.0
C115 C 0.17122 0.02797 0.84702 0.0
C116 C 0.19032 0.03254 0.86294 0.0
C117 C 0.21248 0.04342 0.85134 0.0
C118 C 0.1744 0.03295 0.82004 0.0
N119 N 0.19575 0.04119 0.80854 0.0
H120 H 0.23208 0.05713 0.81584 0.0
H121 H 0.1596 0.03039 0.80857 0.0
H122 H 0.21655 0.0938 0.80383 0.0
H123 H 0.16005 0.05803 0.75217 0.0
O124 O 0.23209 0.07166 0.77051 0.0
O125 O 0.20956 0.0589 0.73499 0.0
O126 O 0.16641 0.02318 0.76302 0.0
C127 C 0.23002 0.07265 0.74506 0.0
H128 H 0.21153 0.98418 0.72956 0.0
H129 H 0.19258 0.11595 0.803 0.0
H130 H 0.15396 0.02087 0.85537 0.0
H131 H 0.22787 0.04793 0.86294 0.0
Co132 Co 0.95167 0.15248 0.77102 0.0
C133 C 0.97934 0.20429 0.7799 0.0
C134 C 0.98568 0.19381 0.74222 0.0
C135 C -0.0007 0.2176 0.74424 0.0
N136 N 0.97334 0.18535 0.76472 0.0
N137 N 0.99525 0.22412 0.76795 0.0
H138 H 0.97288 0.20394 0.79943 0.0
H139 H 0.98504 0.18328 0.72557 0.0
C140 C 0.99865 0.15748 0.77024 0.0
O141 O 0.00556 0.17645 0.78434 0.0
N142 N 0.9301 0.11988 0.77619 0.0
C143 C 0.91166 0.11052 0.79257 0.0
C144 C 0.90101 0.08667 0.79083 0.0
C145 C 0.93049 0.10179 0.76467 0.0
N146 N 0.9129 0.08121 0.77332 0.0
C147 C 0.95015 0.16627 0.82465 0.0
C148 C 0.97183 0.14431 0.84747 0.0
C149 C 0.96612 0.15798 0.8634 0.0
C150 C 0.95463 0.16861 0.85178 0.0
C151 C 0.96721 0.14264 0.8204 0.0
N152 N 0.95804 0.15495 0.80893 0.0
H153 H 0.94055 0.17388 0.81621 0.0
H154 H 0.97078 0.13113 0.80883 0.0
H155 H 0.90651 0.12036 0.80514 0.0
H156 H 0.94329 0.10366 0.75016 0.0
O157 O 0.92626 0.15874 0.77095 0.0
O158 O 0.94017 0.15028 0.73541 0.0
O159 O 0.97731 0.14528 0.76334 0.0
C160 C 0.92546 0.15573 0.74549 0.0
H161 H 0.01117 0.22918 0.72937 0.0
H162 H 0.88601 0.07432 0.80209 0.0
H163 H 0.98007 0.13517 0.85575 0.0
H164 H 0.94893 0.17845 0.86361 0.0
Co165 Co 0.84571 0.79934 0.76863 0.0
C166 C 0.79442 0.77859 0.77833 0.0
C167 C 0.80462 0.79182 0.73904 0.0
C168 C 0.78103 0.78304 0.74146 0.0
N169 N 0.81311 0.78919 0.76223 0.0
N170 N 0.77474 0.77487 0.76625 0.0
H171 H 0.79479 0.77349 0.79838 0.0
H172 H 0.81501 0.8 0.72165 0.0
C173 C 0.84276 0.84251 0.76512 0.0
O174 O 0.82361 0.83161 0.77918 0.0
N175 N 0.87802 0.80925 0.77414 0.0
C176 C 0.8866 0.79963 0.79085 0.0
C177 C 0.91049 0.81265 0.79029 0.0
C178 C 0.89665 0.82788 0.76355 0.0
N179 N 0.91678 0.83044 0.77318 0.0
C180 C 0.83224 0.78579 0.82264 0.0
C181 C 0.85484 0.83 0.84401 0.0
C182 C 0.84143 0.81105 0.86067 0.0
C183 C 0.83047 0.78865 0.84972 0.0
C184 C 0.85612 0.82631 0.81703 0.0
N185 N 0.84356 0.80456 0.80629 0.0
H186 H 0.82409 0.76834 0.81475 0.0
H187 H 0.86761 0.84105 0.80501 0.0
H188 H 0.87619 0.78458 0.80312 0.0
H189 H 0.89548 0.83938 0.74929 0.0
O190 O 0.83816 0.76726 0.77007 0.0
O191 O 0.84735 0.7885 0.73357 0.0
O192 O 0.85421 0.83231 0.75933 0.0
C193 C 0.84117 0.76851 0.74461 0.0
H194 H 0.76954 0.7832 0.72639 0.0
H195 H 0.92225 0.8097 0.80233 0.0
H196 H 0.86418 0.84759 0.85165 0.0
H197 H 0.82082 0.77339 0.862 0.0
Co198 Co 0.71572 0.53427 0.56153 0.0
C199 C 0.68904 0.55953 0.55443 0.0
C200 C 0.68245 0.54194 0.59163 0.0
C201 C 0.66898 0.55232 0.5901 0.0
N202 N 0.69478 0.54612 0.56906 0.0
N203 N 0.67322 0.56337 0.56668 0.0
H204 H 0.6955 0.56594 0.53496 0.0
H205 H 0.68285 0.53156 0.60788 0.0
C206 C 0.66822 0.49328 0.56259 0.0
O207 O 0.66197 0.50592 0.54858 0.0
N208 N 0.73668 0.5227 0.55493 0.0
C209 C 0.7536 0.53087 0.53652 0.0
C210 C 0.76309 0.51661 0.53577 0.0
C211 C 0.73627 0.50384 0.56549 0.0
N212 N 0.75218 0.49969 0.55395 0.0
C213 C 0.717 0.55041 0.50835 0.0
C214 C 0.6946 0.50708 0.48476 0.0
C215 C 0.70102 0.5268 0.46914 0.0
C216 C 0.71275 0.54873 0.48117 0.0
C217 C 0.69902 0.50958 0.51188 0.0
N218 N 0.7087 0.53095 0.52373 0.0
H219 H 0.72699 0.56749 0.51704 0.0
H220 H 0.69505 0.49423 0.52315 0.0
H221 H 0.75821 0.54574 0.52396 0.0
H222 H 0.72407 0.49291 0.5805 0.0
O223 O 0.74158 0.56571 0.56168 0.0
O224 O 0.7279 0.54306 0.59701 0.0
O225 O 0.68956 0.50158 0.56913 0.0
C226 C 0.74262 0.56328 0.58706 0.0
H227 H 0.65696 0.55171 0.60497 0.0
H228 H 0.77682 0.51838 0.52272 0.0
H229 H 0.68612 0.48982 0.47616 0.0
H230 H 0.71898 0.56448 0.46961 0.0
Co231 Co 0.46737 0.18465 0.56164 0.0
C232 C 0.44681 0.1345 0.55182 0.0
C233 C 0.47092 0.14578 0.58425 0.0
C234 C 0.46263 0.12242 0.58001 0.0
N235 N 0.4611 0.15326 0.5664 0.0
N236 N 0.44753 0.1154 0.55956 0.0
H237 H 0.43683 0.1351 0.53523 0.0
H238 H 0.48347 0.15662 0.59901 0.0
C239 C 0.51898 0.21144 0.55611 0.0
O240 O 0.51595 0.22166 0.53546 0.0
N241 N 0.47357 0.21649 0.55799 0.0
C242 C 0.46081 0.22436 0.54564 0.0
C243 C 0.47138 0.24809 0.54896 0.0
C244 C 0.49075 0.23542 0.57017 0.0
N245 N 0.4904 0.25504 0.56417 0.0
C246 C 0.45771 0.18378 0.50587 0.0
C247 C 0.4896 0.17132 0.4891 0.0
C248 C 0.47615 0.17469 0.47019 0.0
C249 C 0.45986 0.18077 0.4789 0.0
C250 C 0.48692 0.17458 0.51584 0.0
N251 N 0.4719 0.18184 0.52394 0.0
H252 H 0.44388 0.18661 0.51215 0.0
H253 H 0.49671 0.17083 0.5301 0.0
H254 H 0.44451 0.21381 0.5356 0.0
H255 H 0.5032 0.23486 0.58347 0.0
O256 O 0.43446 0.1734 0.5613 0.0
O257 O 0.4566 0.18432 0.59725 0.0
O258 O 0.50139 0.19638 0.56926 0.0
C259 C 0.43601 0.17615 0.58682 0.0
H260 H 0.46743 0.1115 0.59108 0.0
H261 H 0.46566 0.25934 0.54045 0.0
H262 H 0.5021 0.16618 0.48334 0.0
H263 H 0.44833 0.18245 0.46508 0.0
Co264 Co 0.81756 0.28275 0.56333 0.0
C265 C 0.86916 0.31113 0.55507 0.0
C266 C 0.85858 0.31637 0.59324 0.0
C267 C 0.88237 0.33031 0.59124 0.0
N268 N 0.85022 0.30463 0.57035 0.0
N269 N 0.8889 0.32688 0.56723 0.0
H270 H 0.86889 0.3051 0.53531 0.0
H271 H 0.84801 0.31516 0.6101 0.0
C272 C 0.82161 0.32938 0.56809 0.0
O273 O 0.84144 0.33801 0.55531 0.0
N274 N 0.78522 0.26079 0.55716 0.0
C275 C 0.77663 0.24271 0.54025 0.0
C276 C 0.75275 0.23213 0.54039 0.0
C277 C 0.7666 0.26096 0.5675 0.0
N278 N 0.74648 0.24366 0.55747 0.0
C279 C 0.83156 0.28276 0.50953 0.0
C280 C 0.8106 0.30592 0.48799 0.0
C281 C 0.82383 0.3 0.47156 0.0
C282 C 0.834 0.28784 0.48255 0.0
C283 C 0.80878 0.30065 0.51492 0.0
N284 N 0.82048 0.29057 0.52577 0.0
H285 H 0.83891 0.27273 0.51741 0.0
H286 H 0.79749 0.30431 0.52676 0.0
H287 H 0.78704 0.23785 0.52829 0.0
H288 H 0.76779 0.2739 0.58139 0.0
O289 O 0.82457 0.25786 0.562 0.0
O290 O 0.81523 0.27 0.59834 0.0
O291 O 0.80941 0.30751 0.57247 0.0
C292 C 0.8213 0.25606 0.58742 0.0
H293 H 0.89394 0.34196 0.60627 0.0
H294 H 0.74095 0.21717 0.52869 0.0
H295 H 0.80184 0.31471 0.48019 0.0
H296 H 0.8435 0.282 0.47035 0.0
Co297 Co 0.86465 0.38213 0.10501 0.0
C298 C 0.88375 0.35154 0.11597 0.0
C299 C 0.86117 0.33977 0.08214 0.0
C300 C 0.869 0.32437 0.08679 0.0
N301 N 0.87037 0.35664 0.10057 0.0
N302 N 0.88305 0.33176 0.10818 0.0
H303 H 0.89357 0.36201 0.13269 0.0
H304 H 0.84931 0.33855 0.06674 0.0
C305 C 0.81288 0.35792 0.10916 0.0
O306 O 0.81558 0.37127 0.12962 0.0
N307 N 0.85908 0.40817 0.10849 0.0
C308 C 0.87169 0.42841 0.12166 0.0
C309 C 0.86167 0.44204 0.11812 0.0
C310 C 0.84258 0.41063 0.09567 0.0
N311 N 0.84324 0.4307 0.10191 0.0
C312 C 0.87399 0.3902 0.16096 0.0
C313 C 0.84024 0.34637 0.17718 0.0
C314 C 0.85411 0.3627 0.1963 0.0
C315 C 0.87141 0.38477 0.18788 0.0
C316 C 0.84355 0.35248 0.15051 0.0
N317 N 0.85941 0.37459 0.14266 0.0
H318 H 0.88838 0.40662 0.15489 0.0
H319 H 0.83366 0.33913 0.1361 0.0
H320 H 0.88755 0.43358 0.13241 0.0
H321 H 0.82998 0.39774 0.08238 0.0
O322 O 0.8977 0.40334 0.1059 0.0
O323 O 0.87602 0.39255 0.06959 0.0
O324 O 0.83069 0.36032 0.09662 0.0
C325 C 0.89653 0.40459 0.08033 0.0
H326 H 0.86416 0.3086 0.07579 0.0
H327 H 0.86761 0.45905 0.12666 0.0
H328 H 0.8274 0.32877 0.18272 0.0
H329 H 0.88298 0.3977 0.20194 0.0
Co330 Co 0.61947 0.48307 0.10253 0.0
C331 C 0.64904 0.53323 0.11217 0.0
C332 C 0.66161 0.522 0.07944 0.0
C333 C 0.67676 0.54534 0.08373 0.0
N334 N 0.64443 0.5145 0.09745 0.0
N335 N 0.66884 0.55231 0.10437 0.0
H336 H 0.63863 0.53259 0.12895 0.0
H337 H 0.66322 0.51117 0.06458 0.0
C338 C 0.64493 0.45669 0.10749 0.0
O339 O 0.63195 0.44613 0.12822 0.0
N340 N 0.59401 0.45122 0.10668 0.0
C341 C 0.57373 0.44343 0.11978 0.0
C342 C 0.56052 0.41968 0.11678 0.0
C343 C 0.59201 0.43219 0.09446 0.0
N344 N 0.57216 0.41263 0.10099 0.0
C345 C 0.61131 0.48518 0.15827 0.0
C346 C 0.65534 0.49632 0.17488 0.0
C347 C 0.63886 0.4938 0.19381 0.0
C348 C 0.6167 0.48851 0.18519 0.0
C349 C 0.64928 0.49303 0.14819 0.0
N350 N 0.62708 0.48625 0.14019 0.0
H351 H 0.59477 0.48271 0.15201 0.0
H352 H 0.66271 0.49652 0.13389 0.0
H353 H 0.56821 0.45406 0.13006 0.0
H354 H 0.60501 0.43255 0.0813 0.0
O355 O 0.59761 0.49414 0.10269 0.0
O356 O 0.60888 0.48298 0.06697 0.0
O357 O 0.6419 0.4716 0.09472 0.0
C358 C 0.59641 0.49118 0.07719 0.0
H359 H 0.69245 0.55625 0.07262 0.0
H360 H 0.54353 0.40851 0.1253 0.0
H361 H 0.673 0.50146 0.18057 0.0
H362 H 0.60363 0.48708 0.19909 0.0
Co363 Co 0.51659 0.13479 0.10316 0.0
C364 C 0.46642 0.11405 0.11276 0.0
C365 C 0.47754 0.13764 0.07985 0.0
C366 C 0.4542 0.12941 0.08415 0.0
N367 N 0.48511 0.12812 0.09798 0.0
N368 N 0.4473 0.11465 0.10492 0.0
H369 H 0.46714 0.10442 0.12966 0.0
H370 H 0.48833 0.15003 0.06493 0.0
C371 C 0.54254 0.18658 0.10808 0.0
O372 O 0.55281 0.18412 0.12906 0.0
N373 N 0.5485 0.14132 0.10733 0.0
C374 C 0.5563 0.1286 0.11994 0.0
C375 C 0.58009 0.1394 0.11727 0.0
C376 C 0.56757 0.15868 0.09556 0.0
N377 N 0.58714 0.15841 0.10207 0.0
C378 C 0.51569 0.12584 0.15918 0.0
C379 C 0.50248 0.15742 0.17497 0.0
C380 C 0.50615 0.14446 0.19426 0.0
C381 C 0.5126 0.12832 0.18606 0.0
C382 C 0.50585 0.15445 0.14835 0.0
N383 N 0.51348 0.13961 0.14073 0.0
H384 H 0.51884 0.11213 0.15329 0.0
H385 H 0.50191 0.16389 0.1338 0.0
H386 H 0.54565 0.11214 0.12963 0.0
H387 H 0.56729 0.17156 0.08274 0.0
O388 O 0.50563 0.10189 0.10388 0.0
O389 O 0.51664 0.12386 0.06778 0.0
O390 O 0.52794 0.16866 0.09501 0.0
C391 C 0.50856 0.10333 0.07837 0.0
H392 H 0.44325 0.1341 0.07298 0.0
H393 H 0.59131 0.13357 0.12565 0.0
H394 H 0.49705 0.16979 0.18034 0.0
H395 H 0.51454 0.11715 0.20021 0.0
Co396 Co 0.38069 0.8658 0.89678 0.0
C397 C 0.35168 0.88803 0.88563 0.0
C398 C 0.34488 0.87157 0.92357 0.0
C399 C 0.33027 0.88049 0.92023 0.0
N400 N 0.35809 0.87597 0.9017 0.0
N401 N 0.33463 0.89082 0.89636 0.0
H402 H 0.35857 0.89419 0.86623 0.0
H403 H 0.34548 0.86202 0.94059 0.0
C404 C 0.33435 0.82302 0.89684 0.0
O405 O 0.32774 0.83433 0.881 0.0
N406 N 0.40323 0.85586 0.8928 0.0
C407 C 0.42232 0.86599 0.87739 0.0
C408 C 0.43289 0.8527 0.87814 0.0
C409 C 0.40247 0.83669 0.90288 0.0
N410 N 0.42035 0.83427 0.8941 0.0
C411 C 0.38304 0.8804 0.84276 0.0
C412 C 0.36229 0.8366 0.82038 0.0
C413 C 0.36798 0.85581 0.80409 0.0
C414 C 0.37913 0.87802 0.81554 0.0
C415 C 0.36658 0.83983 0.84752 0.0
N416 N 0.37513 0.86134 0.85873 0.0
H417 H 0.39215 0.8977 0.85106 0.0
H418 H 0.36307 0.82492 0.85939 0.0
H419 H 0.42779 0.8816 0.86587 0.0
H420 H 0.38865 0.82431 0.9155 0.0
O421 O 0.40532 0.8978 0.89661 0.0
O422 O 0.39144 0.87599 0.93252 0.0
O423 O 0.35548 0.83275 0.90478 0.0
C424 C 0.40577 0.89616 0.92218 0.0
H425 H 0.31742 0.8794 0.93421 0.0
H426 H 0.44845 0.85619 0.86748 0.0
H427 H 0.35431 0.81915 0.81238 0.0
H428 H 0.38495 0.89349 0.80356 0.0
Co429 Co 0.13545 0.51608 0.8982 0.0
C430 C 0.11404 0.4661 0.88675 0.0
C431 C 0.13818 0.47618 0.91906 0.0
C432 C 0.12923 0.45279 0.91424 0.0
N433 N 0.12874 0.48443 0.90165 0.0
N434 N 0.1141 0.44653 0.89388 0.0
H435 H 0.1041 0.46733 0.8705 0.0
H436 H 0.15079 0.48648 0.93404 0.0
C437 C 0.18719 0.54189 0.89312 0.0
O438 O 0.18486 0.55316 0.87306 0.0
N439 N 0.14194 0.54812 0.89581 0.0
C440 C 0.12826 0.55584 0.88555 0.0
C441 C 0.13849 0.57939 0.88983 0.0
C442 C 0.15951 0.56699 0.90767 0.0
N443 N 0.15837 0.58652 0.90352 0.0
C444 C 0.12708 0.51792 0.84233 0.0
C445 C 0.15841 0.50485 0.82507 0.0
C446 C 0.14595 0.50974 0.80631 0.0
C447 C 0.12983 0.51599 0.81522 0.0
C448 C 0.15497 0.50678 0.85192 0.0
N449 N 0.1403 0.51437 0.86035 0.0
H450 H 0.11378 0.52153 0.84871 0.0
H451 H 0.16397 0.50186 0.866 0.0
H452 H 0.11141 0.54514 0.87665 0.0
H453 H 0.17278 0.5664 0.91936 0.0
O454 O 0.10254 0.50511 0.8979 0.0
O455 O 0.12458 0.51485 0.9339 0.0
O456 O 0.16925 0.527 0.90591 0.0
C457 C 0.10404 0.50711 0.92352 0.0
H458 H 0.13349 0.44131 0.92496 0.0
H459 H 0.1314 0.59022 0.88378 0.0
H460 H 0.17033 0.49902 0.81908 0.0
H461 H 0.1194 0.51933 0.80137 0.0
Co462 Co 0.48316 0.61646 0.89471 0.0
C463 C 0.53281 0.64675 0.8835 0.0
C464 C 0.52229 0.65884 0.91728 0.0
C465 C 0.5455 0.67416 0.9124 0.0
N466 N 0.51446 0.64183 0.89901 0.0
N467 N 0.55197 0.66656 0.89103 0.0
H468 H 0.53201 0.63616 0.86682 0.0
H469 H 0.51175 0.66024 0.93268 0.0
C470 C 0.45522 0.64012 0.89066 0.0
O471 O 0.44479 0.62659 0.87025 0.0
N472 N 0.45147 0.59058 0.89149 0.0
C473 C 0.44302 0.57076 0.87729 0.0
C474 C 0.41936 0.55765 0.88127 0.0
C475 C 0.43304 0.58832 0.90526 0.0
N476 N 0.41309 0.56894 0.89862 0.0
C477 C 0.48438 0.60863 0.83859 0.0
C478 C 0.49496 0.65274 0.82294 0.0
C479 C 0.49249 0.63658 0.80358 0.0
C480 C 0.48733 0.61431 0.81171 0.0
C481 C 0.49181 0.64631 0.8495 0.0
N482 N 0.48542 0.6241 0.85708 0.0
H483 H 0.48246 0.5922 0.84449 0.0
H484 H 0.49514 0.65952 0.86406 0.0
H485 H 0.45305 0.56565 0.86519 0.0
H486 H 0.43416 0.60083 0.91973 0.0
O487 O 0.49479 0.59508 0.89369 0.0
O488 O 0.48415 0.60602 0.93008 0.0
O489 O 0.47101 0.6383 0.90314 0.0
C490 C 0.49244 0.59385 0.91927 0.0
H491 H 0.55653 0.69002 0.92319 0.0
H492 H 0.40763 0.54145 0.87146 0.0
H493 H 0.4994 0.67031 0.81767 0.0
H494 H 0.48639 0.60164 0.79753 0.0
Co495 Co 0.53348 0.71566 0.43666 0.0
C496 C 0.55614 0.68717 0.44791 0.0
C497 C 0.53773 0.67833 0.41111 0.0
C498 C 0.54729 0.66426 0.41449 0.0
N499 N 0.54291 0.69243 0.43232 0.0
N500 N 0.55887 0.66993 0.43764 0.0
H501 H 0.56354 0.69534 0.4665 0.0
H502 H 0.52745 0.67815 0.39442 0.0
C503 C 0.48984 0.6698 0.43678 0.0
O504 O 0.50075 0.66234 0.45206 0.0
N505 N 0.52434 0.73888 0.44011 0.0
C506 C 0.53573 0.75889 0.45378 0.0
C507 C 0.52328 0.77031 0.45219 0.0
C508 C 0.50517 0.73831 0.43038 0.0
N509 N 0.50396 0.75732 0.43758 0.0
C510 C 0.54818 0.71848 0.49078 0.0
C511 C 0.50437 0.69788 0.51307 0.0
C512 C 0.5235 0.7033 0.52936 0.0
C513 C 0.54574 0.71445 0.518 0.0
C514 C 0.50766 0.70226 0.48597 0.0
N515 N 0.52914 0.71066 0.47479 0.0
H516 H 0.56548 0.72755 0.48251 0.0
H517 H 0.49282 0.69902 0.47414 0.0
H518 H 0.55184 0.76466 0.46441 0.0
H519 H 0.49217 0.72405 0.4188 0.0
O520 O 0.56578 0.73971 0.4362 0.0
O521 O 0.54341 0.72563 0.40072 0.0
O522 O 0.50014 0.69103 0.42915 0.0
C523 C 0.56381 0.73978 0.41064 0.0
H524 H 0.546 0.65107 0.40091 0.0
H525 H 0.52822 0.78694 0.46117 0.0
H526 H 0.48701 0.69049 0.52122 0.0
H527 H 0.56113 0.71958 0.52988 0.0
Co528 Co 0.28628 0.82043 0.43769 0.0
C529 C 0.31501 0.87202 0.44738 0.0
C530 C 0.32039 0.86182 0.40905 0.0
C531 C 0.33446 0.88553 0.41143 0.0
N532 N 0.30837 0.85324 0.43171 0.0
N533 N 0.33102 0.89187 0.43556 0.0
H534 H 0.3089 0.87152 0.46715 0.0
H535 H 0.31921 0.85142 0.39202 0.0
C536 C 0.33278 0.8244 0.43501 0.0
O537 O 0.34015 0.84296 0.44997 0.0
N538 N 0.26424 0.7879 0.44274 0.0
C539 C 0.24594 0.779 0.45934 0.0
C540 C 0.23579 0.75515 0.45929 0.0
C541 C 0.26495 0.76947 0.43263 0.0
N542 N 0.24781 0.74921 0.44256 0.0
C543 C 0.28606 0.83346 0.49199 0.0
C544 C 0.3078 0.81075 0.51269 0.0
C545 C 0.30253 0.82421 0.52958 0.0
C546 C 0.29091 0.83514 0.51904 0.0
C547 C 0.30255 0.80951 0.48583 0.0
N548 N 0.29344 0.82225 0.47538 0.0
H549 H 0.27659 0.84151 0.48435 0.0
H550 H 0.30556 0.79795 0.47361 0.0
H551 H 0.24077 0.78919 0.47125 0.0
H552 H 0.27823 0.77087 0.41913 0.0
O553 O 0.26139 0.82744 0.43913 0.0
O554 O 0.2741 0.81903 0.40257 0.0
O555 O 0.31133 0.81275 0.42835 0.0
C556 C 0.26001 0.82486 0.41359 0.0
H557 H 0.34623 0.89717 0.39654 0.0
H558 H 0.22088 0.74315 0.4709 0.0
H559 H 0.31558 0.80094 0.52024 0.0
H560 H 0.28592 0.84521 0.53145 0.0
Co561 Co 0.18101 0.46706 0.43898 0.0
C562 C 0.12963 0.44405 0.4489 0.0
C563 C 0.13978 0.46237 0.41206 0.0
C564 C 0.11609 0.45278 0.4149 0.0
N565 N 0.14837 0.4573 0.43365 0.0
N566 N 0.10982 0.44125 0.43807 0.0
H567 H 0.13007 0.43672 0.46765 0.0
H568 H 0.15015 0.47266 0.39552 0.0
C569 C 0.17868 0.51066 0.43751 0.0
O570 O 0.16001 0.4999 0.45238 0.0
N571 N 0.21336 0.4766 0.44344 0.0
C572 C 0.2221 0.46687 0.45979 0.0
C573 C 0.24599 0.48012 0.45932 0.0
C574 C 0.2319 0.49545 0.43305 0.0
N575 N 0.25209 0.49811 0.44258 0.0
C576 C 0.16812 0.45294 0.49301 0.0
C577 C 0.19136 0.49687 0.51504 0.0
C578 C 0.17746 0.47782 0.53133 0.0
C579 C 0.16624 0.45555 0.52011 0.0
C580 C 0.19258 0.49344 0.48797 0.0
N581 N 0.1796 0.47186 0.4769 0.0
H582 H 0.16012 0.43556 0.48496 0.0
H583 H 0.20424 0.50822 0.47609 0.0
H584 H 0.2118 0.45162 0.47181 0.0
H585 H 0.23064 0.50748 0.41968 0.0
O586 O 0.17314 0.43489 0.43954 0.0
O587 O 0.18172 0.45658 0.40344 0.0
O588 O 0.18967 0.50024 0.4306 0.0
C589 C 0.17552 0.43639 0.41399 0.0
H590 H 0.1044 0.45405 0.40098 0.0
H591 H 0.25792 0.47693 0.4707 0.0
H592 H 0.201 0.51432 0.52303 0.0
H593 H 0.1563 0.44022 0.53221 0.0
H594 H 0.89739 0.30421 0.08527 0.0
H595 H 0.91602 0.28483 0.10721 0.0
H596 H 0.91251 0.31439 0.1818 0.0
H597 H 0.89345 0.33335 0.16019 0.0
H598 H 0.95858 0.30726 0.13674 0.0
H599 H 0.88379 0.2441 0.19764 0.0
H600 H 0.88035 0.25881 0.16943 0.0
H601 H 0.89067 0.27388 0.20032 0.0
C602 C 0.90035 0.30636 0.10638 0.0
C603 C 0.89398 0.32033 0.12097 0.0
C604 C 0.91107 0.29538 0.11885 0.0
C605 C 0.91536 0.298 0.14614 0.0
C606 C 0.90904 0.31191 0.16078 0.0
H607 H 0.98159 0.2485 0.25633 0.0
H608 H 0.96109 0.26659 0.23569 0.0
C609 C 0.89841 0.32295 0.14833 0.0
C610 C 0.92723 0.28686 0.15916 0.0
H611 H 0.92018 0.24673 0.20588 0.0
C612 C 0.95019 0.29395 0.15177 0.0
C613 C 0.91622 0.26965 0.17887 0.0
C614 C 0.89133 0.26097 0.18696 0.0
C615 C 0.9626 0.28447 0.16385 0.0
C616 C 0.95153 0.26709 0.18341 0.0
C617 C 0.92859 0.26007 0.19088 0.0
C618 C 0.96339 0.25571 0.196 0.0
C619 C 0.98759 0.2935 0.15592 0.0
C620 C 0.97097 0.24323 0.18059 0.0
C621 C 0.98267 0.23297 0.19229 0.0
C622 C 0.98681 0.2348 0.21969 0.0
C623 C 0.97859 0.24676 0.23521 0.0
C624 C 0.96697 0.25714 0.22345 0.0
H625 H 0.99529 0.31092 0.14647 0.0
H626 H 0.99839 0.29472 0.17328 0.0
H627 H 0.98838 0.28137 0.14142 0.0
H628 H 0.96781 0.24138 0.15948 0.0
H629 H 0.98825 0.22337 0.1799 0.0
H630 H 0.71498 0.58395 0.10524 0.0
H631 H 0.73387 0.62153 0.12789 0.0
H632 H 0.66703 0.60943 0.1546 0.0
H633 H 0.648 0.57187 0.13195 0.0
H634 H 0.72797 0.65961 0.12103 0.0
H635 H 0.70466 0.62506 0.22312 0.0
H636 H 0.702 0.60694 0.19519 0.0
H637 H 0.68011 0.61478 0.20133 0.0
C638 C 0.70427 0.58934 0.11573 0.0
C639 C 0.67997 0.57484 0.11689 0.0
C640 C 0.71511 0.61076 0.1288 0.0
C641 C 0.70188 0.61804 0.14331 0.0
C642 C 0.67761 0.60386 0.14407 0.0
H643 H 0.74167 0.75722 0.19418 0.0
H644 H 0.72438 0.71909 0.17299 0.0
C645 C 0.66676 0.58242 0.13107 0.0
C646 C 0.71344 0.64072 0.15718 0.0
H647 H 0.72051 0.66593 0.21788 0.0
C648 C 0.72645 0.66101 0.14222 0.0
C649 C 0.71171 0.64243 0.18488 0.0
C650 C 0.69906 0.62114 0.20215 0.0
C651 C 0.7373 0.68305 0.15414 0.0
C652 C 0.73471 0.68481 0.18166 0.0
C653 C 0.72222 0.6645 0.19674 0.0
C654 C 0.74473 0.70763 0.1951 0.0
C655 C 0.75164 0.70423 0.13719 0.0
C656 C 0.76133 0.71351 0.21519 0.0
C657 C 0.77122 0.7353 0.2274 0.0
C658 C 0.76462 0.75156 0.21975 0.0
C659 C 0.74751 0.74531 0.20011 0.0
C660 C 0.73761 0.72353 0.18798 0.0
H661 H 0.75707 0.69962 0.11842 0.0
H662 H 0.7411 0.71241 0.13211 0.0
H663 H 0.76744 0.71727 0.14788 0.0
H664 H 0.76695 0.70139 0.22105 0.0
H665 H 0.78445 0.73964 0.24231 0.0
H666 H 0.41561 0.12909 0.10549 0.0
H667 H 0.37817 0.11064 0.12841 0.0
H668 H 0.39053 0.05629 0.15604 0.0
H669 H 0.42794 0.07456 0.13309 0.0
H670 H 0.34009 0.06641 0.12226 0.0
H671 H 0.3753 0.07927 0.22418 0.0
H672 H 0.39319 0.0944 0.19599 0.0
H673 H 0.38555 0.0648 0.20265 0.0
C674 C 0.4103 0.11311 0.11624 0.0
C675 C 0.42483 0.10336 0.11756 0.0
C676 C 0.38896 0.10267 0.12946 0.0
C677 C 0.3818 0.08236 0.14431 0.0
C678 C 0.39601 0.0723 0.14523 0.0
H679 H 0.24318 0.98322 0.19675 0.0
H680 H 0.28122 0.00392 0.17537 0.0
C681 C 0.41737 0.08274 0.13207 0.0
C682 C 0.35922 0.07138 0.15835 0.0
H683 H 0.33443 0.05406 0.21936 0.0
C684 C 0.33883 0.06381 0.1435 0.0
C685 C 0.3577 0.06835 0.18611 0.0
C686 C 0.3791 0.07733 0.20324 0.0
C687 C 0.31688 0.05271 0.15559 0.0
C688 C 0.3153 0.04875 0.18319 0.0
C689 C 0.33571 0.05688 0.19815 0.0
C690 C 0.29258 0.03604 0.19682 0.0
C691 C 0.29558 0.04553 0.13874 0.0
C692 C 0.28668 0.04699 0.21662 0.0
C693 C 0.26493 0.03517 0.22893 0.0
C694 C 0.24875 0.01217 0.22168 0.0
C695 C 0.25503 0.00107 0.20236 0.0
C696 C 0.27676 0.01287 0.19013 0.0
H697 H 0.30003 0.05527 0.11978 0.0
H698 H 0.28744 0.02672 0.13403 0.0
H699 H 0.28256 0.04837 0.14934 0.0
H700 H 0.29873 0.06484 0.22215 0.0
H701 H 0.26057 0.04426 0.24358 0.0
H702 H 0.21219 0.956 0.75993 0.0
H703 H 0.22925 0.93506 0.78178 0.0
H704 H 0.2783 0.99816 0.82185 0.0
H705 H 0.2613 0.01908 0.80021 0.0
H706 H 0.27379 0.94211 0.78147 0.0
H707 H 0.24845 0.95249 0.88272 0.0
H708 H 0.23668 0.95842 0.85351 0.0
H709 H 0.26489 0.97971 0.86573 0.0
C710 C 0.22675 0.96542 0.7732 0.0
C711 C 0.23526 0.98911 0.7786 0.0
C712 C 0.23638 0.95343 0.78576 0.0
C713 C 0.25466 0.96496 0.80388 0.0
C714 C 0.26375 0.98879 0.80852 0.0
H715 H 0.35262 0.92648 0.86154 0.0
H716 H 0.33188 0.94311 0.83869 0.0
C717 C 0.25407 0.00073 0.79611 0.0
C718 C 0.26442 0.95219 0.81786 0.0
H719 H 0.27633 0.93983 0.87943 0.0
C720 C 0.27419 0.94143 0.80288 0.0
C721 C 0.2645 0.95095 0.84578 0.0
C722 C 0.25285 0.9608 0.86289 0.0
C723 C 0.28483 0.93017 0.81512 0.0
C724 C 0.28613 0.93016 0.84305 0.0
C725 C 0.2756 0.94017 0.85802 0.0
C726 C 0.29869 0.92022 0.85713 0.0
C727 C 0.29442 0.91829 0.79803 0.0
C728 C 0.28711 0.90244 0.87582 0.0
C729 C 0.299 0.89305 0.88909 0.0
C730 C 0.32266 0.90131 0.88387 0.0
C731 C 0.3343 0.91947 0.86557 0.0
C732 C 0.32246 0.92893 0.85244 0.0
H733 H 0.28597 0.9138 0.77828 0.0
H734 H 0.31332 0.93022 0.79498 0.0
H735 H 0.29202 0.90214 0.80752 0.0
H736 H 0.2688 0.89559 0.87984 0.0
H737 H 0.28954 0.87896 0.90292 0.0
H738 H 0.07323 0.42876 0.86735 0.0
H739 H 0.05225 0.39088 0.84551 0.0
H740 H 0.10513 0.37531 0.87029 0.0
H741 H 0.12629 0.41318 0.89205 0.0
H742 H 0.06761 0.37316 0.80505 0.0
H743 H 0.04469 0.31842 0.89529 0.0
H744 H 0.05486 0.34923 0.8965 0.0
H745 H 0.07517 0.33907 0.89205 0.0
C746 C 0.08046 0.41733 0.86809 0.0
C747 C 0.10141 0.42398 0.88155 0.0
C748 C 0.0684 0.39566 0.85568 0.0
C749 C 0.07699 0.3802 0.8566 0.0
C750 C 0.09795 0.3868 0.86985 0.0
H751 H 0.0386 0.25967 0.75729 0.0
H752 H 0.05809 0.29818 0.77786 0.0
C753 C 0.11 0.40845 0.88231 0.0
C754 C 0.06427 0.35736 0.84319 0.0
H755 H 0.03737 0.29883 0.85408 0.0
C756 C 0.06091 0.35689 0.81574 0.0
C757 C 0.05535 0.3362 0.85728 0.0
C758 C 0.05747 0.33564 0.88694 0.0
C759 C 0.04916 0.33576 0.80192 0.0
C760 C 0.04087 0.31461 0.8159 0.0
C761 C 0.04392 0.31509 0.8434 0.0
C762 C 0.0288 0.29173 0.80249 0.0
C763 C 0.04542 0.33624 0.77255 0.0
C764 C 0.00598 0.27527 0.80973 0.0
C765 C 0.99484 0.25325 0.79805 0.0
C766 C 0.00635 0.24723 0.77899 0.0
C767 C 0.02914 0.26388 0.77158 0.0
C768 C 0.0403 0.28589 0.78332 0.0
H769 H 0.04734 0.35313 0.76617 0.0
H770 H 0.05857 0.33371 0.76181 0.0
H771 H 0.02789 0.32204 0.76669 0.0
H772 H 0.99682 0.27945 0.82449 0.0
H773 H 0.97719 0.24097 0.80394 0.0
H774 H 0.56013 0.66484 0.83887 0.0
H775 H 0.59781 0.68385 0.81659 0.0
H776 H 0.63188 0.71338 0.89077 0.0
H777 H 0.59413 0.69434 0.91327 0.0
H778 H 0.64725 0.7453 0.84892 0.0
H779 H 0.64721 0.66435 0.82089 0.0
H780 H 0.6219 0.66536 0.81037 0.0
H781 H 0.62739 0.66471 0.84507 0.0
C782 C 0.57565 0.67511 0.85053 0.0
C783 C 0.57419 0.67788 0.87791 0.0
C784 C 0.59716 0.68599 0.83775 0.0
C785 C 0.61763 0.69966 0.85213 0.0
C786 C 0.61625 0.70279 0.87937 0.0
H787 H 0.76456 0.7768 0.8177 0.0
H788 H 0.72598 0.75906 0.83775 0.0
C789 C 0.5947 0.69197 0.89217 0.0
C790 C 0.64048 0.71097 0.83866 0.0
H791 H 0.6774 0.69964 0.80309 0.0
C792 C 0.6539 0.73534 0.83896 0.0
C793 C 0.64902 0.69789 0.82563 0.0
C794 C 0.63576 0.67162 0.82561 0.0
C795 C 0.67561 0.74703 0.82633 0.0
C796 C 0.68417 0.73394 0.81341 0.0
C797 C 0.67068 0.70959 0.81294 0.0
C798 C 0.70745 0.74512 0.80103 0.0
C799 C 0.68907 0.77328 0.8266 0.0
C800 C 0.70979 0.74277 0.77381 0.0
C801 C 0.73186 0.75273 0.7623 0.0
C802 C 0.75195 0.76496 0.77791 0.0
C803 C 0.74947 0.76724 0.80519 0.0
C804 C 0.72743 0.75737 0.81664 0.0
H805 H 0.67771 0.78067 0.83123 0.0
H806 H 0.70279 0.77932 0.842 0.0
H807 H 0.69767 0.78026 0.80726 0.0
H808 H 0.69453 0.7332 0.76151 0.0
H809 H 0.73322 0.75049 0.74131 0.0
H810 H 0.69216 0.60001 0.53325 0.0
H811 H 0.67246 0.61857 0.51216 0.0
H812 H 0.60925 0.57212 0.55379 0.0
H813 H 0.62897 0.5536 0.57512 0.0
H814 H 0.63478 0.5982 0.47946 0.0
H815 H 0.61524 0.63519 0.56768 0.0
H816 H 0.63547 0.62452 0.56859 0.0
H817 H 0.60467 0.6045 0.56991 0.0
C818 C 0.67409 0.59383 0.53799 0.0
C819 C 0.66209 0.57536 0.55583 0.0
C820 C 0.66289 0.60447 0.52598 0.0
C821 C 0.63947 0.59687 0.5316 0.0
C822 C 0.62747 0.57859 0.54962 0.0
H823 H 0.5485 0.6251 0.43324 0.0
H824 H 0.56801 0.60681 0.45556 0.0
C825 C 0.63874 0.56803 0.56178 0.0
C826 C 0.62744 0.60745 0.51762 0.0
H827 H 0.59789 0.63666 0.52722 0.0
C828 C 0.62676 0.60667 0.48987 0.0
C829 C 0.61717 0.61864 0.53128 0.0
C830 C 0.61832 0.621 0.56099 0.0
C831 C 0.61601 0.61672 0.47538 0.0
C832 C 0.60525 0.62741 0.48906 0.0
C833 C 0.60601 0.62828 0.5168 0.0
C834 C 0.59365 0.63839 0.475 0.0
C835 C 0.61676 0.61626 0.44557 0.0
C836 C 0.60136 0.66208 0.47885 0.0
C837 C 0.59017 0.67249 0.46627 0.0
C838 C 0.57102 0.65939 0.44961 0.0
C839 C 0.56343 0.63569 0.44561 0.0
C840 C 0.57456 0.62524 0.45835 0.0
H841 H 0.63071 0.61303 0.43837 0.0
H842 H 0.5999 0.60202 0.43808 0.0
H843 H 0.61962 0.63291 0.43704 0.0
H844 H 0.61608 0.67254 0.4916 0.0
H845 H 0.59658 0.69083 0.46949 0.0
H846 H 0.37448 0.92698 0.42434 0.0
H847 H 0.39491 0.96534 0.44529 0.0
H848 H 0.33469 0.94725 0.4936 0.0
H849 H 0.31414 0.90894 0.47271 0.0
H850 H 0.38352 0.00036 0.44799 0.0
H851 H 0.38706 0.96787 0.54797 0.0
H852 H 0.37975 0.94991 0.51878 0.0
H853 H 0.35825 0.95484 0.53438 0.0
C854 C 0.36551 0.93124 0.43925 0.0
C855 C 0.34275 0.91483 0.44702 0.0
C856 C 0.37725 0.95311 0.45129 0.0
C857 C 0.36646 0.95894 0.47133 0.0
C858 C 0.34353 0.94286 0.47864 0.0
H859 H 0.40679 0.09588 0.53263 0.0
H860 H 0.3876 0.058 0.51066 0.0
C861 C 0.33182 0.92098 0.46667 0.0
C862 C 0.37911 0.9819 0.48449 0.0
H863 H 0.39812 0.00785 0.54469 0.0
C864 C 0.3868 0.00204 0.46911 0.0
C865 C 0.38367 0.984 0.51198 0.0
C866 C 0.37697 0.96303 0.52924 0.0
C867 C 0.39851 0.02425 0.4806 0.0
C868 C 0.40223 0.0263 0.50825 0.0
C869 C 0.39499 0.00619 0.52353 0.0
C870 C 0.41373 0.04917 0.52171 0.0
C871 C 0.40707 0.04533 0.463 0.0
C872 C 0.43442 0.05646 0.53585 0.0
C873 C 0.44539 0.07807 0.54851 0.0
C874 C 0.43581 0.09276 0.54734 0.0
C875 C 0.41484 0.08519 0.53351 0.0
C876 C 0.40387 0.06356 0.52091 0.0
H877 H 0.4084 0.04111 0.44205 0.0
H878 H 0.39463 0.05187 0.46393 0.0
H879 H 0.42435 0.05951 0.46958 0.0
H880 H 0.44226 0.04555 0.53677 0.0
H881 H 0.46162 0.08344 0.55872 0.0
H882 H 0.09236 0.40334 0.4696 0.0
H883 H 0.05445 0.38418 0.49146 0.0
H884 H 0.03786 0.43301 0.45539 0.0
H885 H 0.07576 0.45212 0.43324 0.0
H886 H 0.03725 0.40252 0.52704 0.0
H887 H 0.98069 0.37107 0.43819 0.0
H888 H 0.01157 0.38179 0.43674 0.0
H889 H 0.0008 0.40182 0.43819 0.0
C890 C 0.08061 0.40996 0.46629 0.0
C891 C 0.08699 0.42921 0.4497 0.0
C892 C 0.05895 0.39898 0.47874 0.0
C893 C 0.04325 0.40702 0.47484 0.0
C894 C 0.04951 0.4262 0.45821 0.0
H895 H 0.92335 0.37106 0.57626 0.0
H896 H 0.96146 0.39124 0.55462 0.0
C897 C 0.07114 0.4371 0.44558 0.0
C898 C 0.02065 0.39569 0.48891 0.0
H899 H 0.9619 0.36688 0.47936 0.0
C900 C 0.02075 0.39469 0.51664 0.0
C901 C 0.99919 0.38531 0.47525 0.0
C902 C 0.99795 0.38482 0.44545 0.0
C903 C -4e-05 0.38358 0.53112 0.0
C904 C 0.9785 0.37364 0.51749 0.0
C905 C 0.9784 0.37465 0.48977 0.0
C906 C 0.95588 0.36143 0.53147 0.0
C907 C 0.00118 0.38206 0.5608 0.0
C908 C 0.94002 0.33811 0.52539 0.0
C909 C 0.91825 0.32667 0.53754 0.0
C910 C 0.9119 0.33832 0.55602 0.0
C911 C 0.92793 0.36157 0.5624 0.0
C912 C 0.94968 0.37309 0.55006 0.0
H913 H 0.0184 0.38494 0.56736 0.0
H914 H 0.99844 0.39567 0.57004 0.0
H915 H 0.98747 0.36484 0.56818 0.0
H916 H 0.94447 0.32878 0.51113 0.0
H917 H 0.90636 0.30868 0.53247 0.0
H918 H 0.16065 0.39231 0.43139 0.0
H919 H 0.14716 0.35716 0.40476 0.0
H920 H 0.16293 0.398 0.33351 0.0
H921 H 0.1766 0.43339 0.36005 0.0
H922 H 0.10994 0.34158 0.36824 0.0
H923 H 0.1911 0.35551 0.31996 0.0
H924 H 0.19125 0.37118 0.34924 0.0
H925 H 0.18563 0.37937 0.31743 0.0
C926 C 0.1616 0.39391 0.41005 0.0
C927 C 0.16967 0.41563 0.3978 0.0
C928 C 0.15387 0.37378 0.39488 0.0
C929 C 0.15425 0.37501 0.3672 0.0
C930 C 0.16288 0.39674 0.35487 0.0
H931 H 0.09908 0.27576 0.23968 0.0
H932 H 0.12012 0.31011 0.2677 0.0
C933 C 0.17058 0.41692 0.37005 0.0
C934 C 0.14378 0.35332 0.35139 0.0
H935 H 0.1556 0.32378 0.30435 0.0
C936 C 0.11993 0.33757 0.35442 0.0
C937 C 0.15688 0.34828 0.33329 0.0
C938 C 0.18268 0.36435 0.32984 0.0
C939 C 0.10865 0.3171 0.33938 0.0
C940 C 0.12174 0.31197 0.32128 0.0
C941 C 0.14565 0.32769 0.31835 0.0
C942 C 0.11063 0.29085 0.30445 0.0
C943 C 0.08269 0.30157 0.34239 0.0
C944 C 0.09887 0.26855 0.31578 0.0
C945 C 0.08669 0.24886 0.29981 0.0
C946 C 0.08628 0.25116 0.27222 0.0
C947 C 0.099 0.27342 0.26088 0.0
C948 C 0.11106 0.29308 0.27685 0.0
H949 H 0.07453 0.31082 0.3519 0.0
H950 H 0.07426 0.29485 0.32291 0.0
H951 H 0.07913 0.28648 0.35503 0.0
H952 H 0.09876 0.26641 0.33701 0.0
H953 H 0.07719 0.23193 0.30911 0.0
H954 H 0.56504 0.74419 0.3568 0.0
H955 H 0.59954 0.76513 0.32879 0.0
H956 H 0.64317 0.78784 0.39815 0.0
H957 H 0.6088 0.76742 0.42626 0.0
H958 H 0.65673 0.82264 0.36048 0.0
H959 H 0.64403 0.74067 0.31559 0.0
H960 H 0.61965 0.74515 0.31189 0.0
H961 H 0.62805 0.74094 0.3443 0.0
C962 C 0.58196 0.75383 0.36608 0.0
C963 C 0.58424 0.75401 0.39371 0.0
C964 C 0.60166 0.76566 0.35005 0.0
C965 C 0.62394 0.77764 0.36139 0.0
C966 C 0.62615 0.77861 0.389 0.0
H967 H 0.76649 0.84267 0.30697 0.0
H968 H 0.73092 0.82953 0.33295 0.0
C969 C 0.60648 0.7669 0.40503 0.0
C970 C 0.64505 0.78844 0.34457 0.0
H971 H 0.6748 0.77579 0.29868 0.0
C972 C 0.66069 0.81243 0.34693 0.0
C973 C 0.65023 0.77503 0.32704 0.0
C974 C 0.63475 0.74899 0.32466 0.0
C975 C 0.6813 0.8234 0.33202 0.0
C976 C 0.68643 0.80996 0.31453 0.0
C977 C 0.67072 0.78604 0.31203 0.0
C978 C 0.7082 0.82013 0.29893 0.0
C979 C 0.6973 0.84929 0.33484 0.0
C980 C 0.70718 0.81916 0.27125 0.0
C981 C 0.72741 0.82659 0.25639 0.0
C982 C 0.74903 0.83493 0.26898 0.0
C983 C 0.75011 0.83642 0.29671 0.0
C984 C 0.72983 0.82903 0.31158 0.0
H985 H 0.68835 0.85787 0.34409 0.0
H986 H 0.71223 0.85254 0.3476 0.0
H987 H 0.70426 0.85745 0.31531 0.0
H988 H 0.69063 0.81223 0.26114 0.0
H989 H 0.72599 0.82519 0.23505 0.0
H990 H 0.17474 0.90037 0.23989 0.0
H991 H 0.1869 0.87825 0.26766 0.0
H992 H 0.1668 0.90137 0.33734 0.0
H993 H 0.15497 0.92394 0.30967 0.0
H994 H 0.21099 0.90872 0.34033 0.0
H995 H 0.15103 0.81796 0.30866 0.0
H996 H 0.16593 0.83719 0.28159 0.0
H997 H 0.14582 0.84157 0.30118 0.0
C998 C 0.17255 0.90046 0.2611 0.0
C999 C 0.16391 0.91391 0.27261 0.0
C1000 C 0.17937 0.88766 0.27694 0.0
C1001 C 0.17745 0.88788 0.30456 0.0
C1002 C 0.16828 0.90084 0.31606 0.0
H1003 H 0.22963 0.83799 0.4318 0.0
H1004 H 0.20766 0.85153 0.40577 0.0
C1005 C 0.16152 0.91371 0.30022 0.0
C1006 C 0.18698 0.87637 0.32147 0.0
H1007 H 0.18446 0.82448 0.33352 0.0
C1008 C 0.20499 0.89025 0.33907 0.0
C1009 C 0.17923 0.85229 0.31965 0.0
C1010 C 0.15929 0.83633 0.30193 0.0
C1011 C 0.21588 0.88085 0.35443 0.0
C1012 C 0.20832 0.85685 0.3524 0.0
C1013 C 0.19019 0.84288 0.33498 0.0
C1014 C 0.21948 0.84621 0.36795 0.0
C1015 C 0.23586 0.89682 0.37215 0.0
C1016 C 0.23267 0.8379 0.35521 0.0
C1017 C 0.24521 0.83007 0.37002 0.0
C1018 C 0.24466 0.83037 0.3978 0.0
C1019 C 0.23053 0.83767 0.41043 0.0
C1020 C 0.21802 0.84548 0.39562 0.0
H1021 H 0.24272 0.91544 0.3672 0.0
H1022 H 0.2298 0.89407 0.39298 0.0
H1023 H 0.25028 0.89296 0.37069 0.0
H1024 H 0.23393 0.83826 0.33384 0.0
H1025 H 0.25591 0.82451 0.35974 0.0
H1026 H 0.39147 0.15837 0.56956 0.0
H1027 H 0.35634 0.14453 0.59626 0.0
H1028 H 0.39774 0.16401 0.66734 0.0
H1029 H 0.43313 0.17811 0.6407 0.0
H1030 H 0.34149 0.10896 0.63432 0.0
H1031 H 0.35437 0.19128 0.67838 0.0
H1032 H 0.37026 0.19071 0.64966 0.0
H1033 H 0.37846 0.18629 0.68205 0.0
C1034 C 0.39317 0.15998 0.59087 0.0
C1035 C 0.41507 0.16932 0.60306 0.0
C1036 C 0.37306 0.15206 0.60607 0.0
C1037 C 0.37447 0.15347 0.63372 0.0
C1038 C 0.39633 0.16316 0.64599 0.0
H1039 H 0.27485 0.10053 0.76105 0.0
H1040 H 0.30936 0.12115 0.73319 0.0
C1041 C 0.41651 0.17108 0.63076 0.0
C1042 C 0.35288 0.14325 0.64966 0.0
H1043 H 0.32294 0.15611 0.6951 0.0
C1044 C 0.33733 0.11927 0.64748 0.0
C1045 C 0.34762 0.15678 0.66686 0.0
C1046 C 0.36343 0.18273 0.66931 0.0
C1047 C 0.31682 0.10831 0.66246 0.0
C1048 C 0.3115 0.12182 0.67964 0.0
C1049 C 0.32702 0.14584 0.68178 0.0
C1050 C 0.29031 0.11108 0.69631 0.0
C1051 C 0.30143 0.08224 0.66035 0.0
C1052 C 0.2681 0.09916 0.68481 0.0
C1053 C 0.24832 0.08725 0.70068 0.0
C1054 C 0.25045 0.08725 0.72832 0.0
C1055 C 0.27264 0.10013 0.73981 0.0
C1056 C 0.29238 0.11195 0.72393 0.0
H1057 H 0.31075 0.07391 0.65143 0.0
H1058 H 0.2948 0.07436 0.68008 0.0
H1059 H 0.28628 0.07822 0.64758 0.0
H1060 H 0.2661 0.09868 0.66353 0.0
H1061 H 0.23145 0.0776 0.69128 0.0
H1062 H 0.8203 0.25151 0.64127 0.0
H1063 H 0.83363 0.22916 0.66719 0.0
H1064 H 0.8472 0.20313 0.59527 0.0
H1065 H 0.83409 0.22544 0.56923 0.0
H1066 H 0.81983 0.17934 0.66696 0.0
H1067 H 0.91096 0.23859 0.63453 0.0
H1068 H 0.88837 0.246 0.63111 0.0
H1069 H 0.88978 0.22586 0.60853 0.0
C1070 C 0.82581 0.24076 0.63099 0.0
C1071 C 0.82637 0.2404 0.60322 0.0
C1072 C 0.83339 0.22801 0.64582 0.0
C1073 C 0.84168 0.2148 0.63309 0.0
C1074 C 0.84114 0.21349 0.60541 0.0
H1075 H 0.92052 0.15167 0.69177 0.0
H1076 H 0.89758 0.16286 0.66385 0.0
C1077 C 0.83359 0.2262 0.59059 0.0
C1078 C 0.8523 0.20364 0.64862 0.0
H1079 H 0.90428 0.20675 0.66116 0.0
C1080 C 0.83827 0.18525 0.66571 0.0
C1081 C 0.87636 0.21144 0.64686 0.0
C1082 C 0.89236 0.23167 0.62945 0.0
C1083 C 0.84769 0.17428 0.68101 0.0
C1084 C 0.87183 0.18229 0.67949 0.0
C1085 C 0.88576 0.20055 0.66218 0.0
C1086 C 0.88337 0.17287 0.6965 0.0
C1087 C 0.83169 0.15407 0.69839 0.0
C1088 C 0.88283 0.1746 0.7241 0.0
C1089 C 0.89583 0.16815 0.74008 0.0
C1090 C 0.90982 0.16008 0.72871 0.0
C1091 C 0.90989 0.1578 0.7011 0.0
C1092 C 0.89681 0.16419 0.68513 0.0
H1093 H 0.8134 0.14566 0.69134 0.0
H1094 H 0.83717 0.14078 0.69918 0.0
H1095 H 0.83217 0.16049 0.71877 0.0
H1096 H 0.87305 0.18177 0.73328 0.0
H1097 H 0.89551 0.17023 0.76129 0.0
H1098 H 0.82667 0.72477 0.763 0.0
H1099 H 0.81477 0.6895 0.73711 0.0
H1100 H 0.83184 0.72955 0.66513 0.0
H1101 H 0.84391 0.76505 0.69093 0.0
H1102 H 0.77865 0.67282 0.69928 0.0
H1103 H 0.86166 0.68822 0.65476 0.0
H1104 H 0.86064 0.70402 0.68335 0.0
H1105 H 0.85566 0.71164 0.6509 0.0
C1106 C 0.82824 0.72617 0.74168 0.0
C1107 C 0.8362 0.7477 0.72899 0.0
C1108 C 0.82143 0.70598 0.72693 0.0
C1109 C 0.82265 0.70695 0.69925 0.0
C1110 C 0.83117 0.7285 0.68651 0.0
H1111 H 0.77133 0.60816 0.5717 0.0
H1112 H 0.79219 0.64226 0.6001 0.0
C1113 C 0.83794 0.74874 0.70127 0.0
C1114 C 0.81304 0.68515 0.68373 0.0
H1115 H 0.82689 0.65613 0.63806 0.0
C1116 C 0.78922 0.66903 0.68608 0.0
C1117 C 0.82688 0.6804 0.66643 0.0
C1118 C 0.85268 0.69686 0.66378 0.0
C1119 C 0.77867 0.64852 0.67106 0.0
C1120 C 0.79248 0.64373 0.65369 0.0
C1121 C 0.81638 0.65977 0.65151 0.0
C1122 C 0.78208 0.62273 0.63667 0.0
C1123 C 0.75269 0.63263 0.67321 0.0
C1124 C 0.77017 0.60034 0.64776 0.0
C1125 C 0.75808 0.58079 0.63157 0.0
C1126 C 0.75794 0.58332 0.604 0.0
C1127 C 0.77103 0.60563 0.59288 0.0
C1128 C 0.78299 0.62515 0.60908 0.0
H1129 H 0.74402 0.64155 0.68229 0.0
H1130 H 0.74483 0.62597 0.65347 0.0
H1131 H 0.74905 0.61751 0.68585 0.0
H1132 H 0.76968 0.59805 0.669 0.0
H1133 H 0.74828 0.56381 0.6407 0.0
H1134 H 0.90007 0.40874 0.02643 0.0
H1135 H 0.93583 0.42888 0.00016 0.0
H1136 H 0.97652 0.45111 0.07173 0.0
H1137 H 0.94101 0.43095 0.09809 0.0
H1138 H 0.97263 0.47689 0.00067 0.0
H1139 H 0.00308 0.41589 0.03021 0.0
H1140 H 0.97347 0.40936 0.03498 0.0
H1141 H 0.99595 0.42881 0.05719 0.0
C1142 C 0.91663 0.41804 0.03656 0.0
C1143 C 0.91775 0.41811 0.06431 0.0
C1144 C 0.93701 0.42953 0.02154 0.0
C1145 C 0.95879 0.44114 0.03404 0.0
C1146 C 0.95989 0.44189 0.06173 0.0
H1147 H 0.10148 0.50808 0.97743 0.0
H1148 H 0.06637 0.49394 0.00452 0.0
C1149 C 0.93957 0.43044 0.07674 0.0
C1150 C 0.98043 0.45201 0.01818 0.0
H1151 H 0.02916 0.44875 0.00512 0.0
C1152 C 0.985 0.47075 0.00156 0.0
C1153 C 0.99649 0.44393 0.01947 0.0
C1154 C 0.99199 0.42327 0.03623 0.0
C1155 C 0.00546 0.48188 0.98642 0.0
C1156 C 0.02149 0.47374 0.98765 0.0
C1157 C 0.0169 0.45503 0.00434 0.0
C1158 C 0.04281 0.48384 0.97122 0.0
C1159 C 0.00993 0.50249 0.96961 0.0
C1160 C 0.04118 0.48282 0.94355 0.0
C1161 C 0.06117 0.49089 0.92806 0.0
C1162 C 0.08315 0.49997 0.93997 0.0
C1163 C 0.08479 0.50123 0.96769 0.0
C1164 C 0.06477 0.49315 0.98318 0.0
H1165 H -0.00039 0.51049 0.97645 0.0
H1166 H 0.02865 0.51598 0.96977 0.0
H1167 H 0.00482 0.49664 0.9489 0.0
H1168 H 0.02437 0.47523 0.93393 0.0
H1169 H 0.05931 0.48957 0.90676 0.0
H1170 H 0.49204 0.58987 0.97314 0.0
H1171 H 0.50732 0.56942 0.99938 0.0
H1172 H 0.52491 0.54641 0.92778 0.0
H1173 H 0.50993 0.56693 0.90144 0.0
H1174 H 0.49544 0.52145 0.99938 0.0
H1175 H 0.58692 0.58082 0.96863 0.0
H1176 H 0.56416 0.58781 0.96378 0.0
H1177 H 0.56662 0.56782 0.94188 0.0
C1178 C 0.49904 0.58034 0.963 0.0
C1179 C 0.49996 0.58016 0.93524 0.0
C1180 C 0.50773 0.56867 0.97801 0.0
C1181 C 0.51756 0.55674 0.96549 0.0
C1182 C 0.51777 0.55588 0.9378 0.0
H1183 H 0.59197 0.48873 0.02337 0.0
H1184 H 0.57095 0.50258 0.99592 0.0
C1185 C 0.50911 0.56753 0.9228 0.0
C1186 C 0.52812 0.54567 0.98135 0.0
H1187 H 0.57976 0.54812 0.99425 0.0
C1188 C 0.51387 0.52726 0.99832 0.0
C1189 C 0.55217 0.55333 0.97986 0.0
C1190 C 0.56845 0.57365 0.96275 0.0
C1191 C 0.52302 0.51607 0.01365 0.0
C1192 C 0.5471 0.52381 0.01224 0.0
C1193 C 0.56129 0.54215 0.99517 0.0
C1194 C 0.55818 0.51373 0.02894 0.0
C1195 C 0.50681 0.49586 0.03091 0.0
C1196 C 0.55793 0.5154 0.05657 0.0
C1197 C 0.56988 0.5075 0.07227 0.0
C1198 C 0.58244 0.49794 0.0606 0.0
C1199 C 0.5824 0.49596 0.03293 0.0
C1200 C 0.57043 0.50387 0.01724 0.0
H1201 H 0.48845 0.48803 0.02426 0.0
H1202 H 0.51173 0.48214 0.03102 0.0
H1203 H 0.50784 0.50209 0.0515 0.0
H1204 H 0.54902 0.52341 0.06598 0.0
H1205 H 0.56968 0.50937 0.09353 0.0
H1206 H 0.4896 0.05855 0.09551 0.0
H1207 H 0.47602 0.02352 0.0687 0.0
H1208 H 0.49894 0.06549 0.99805 0.0
H1209 H 0.51225 0.1007 0.02477 0.0
H1210 H 0.45395 0.02939 0.99479 0.0
H1211 H 0.51137 0.99681 0.03065 0.0
H1212 H 0.49644 0.00237 0.05671 0.0
H1213 H 0.5174 0.02611 0.03684 0.0
C1214 C 0.49202 0.06038 0.07429 0.0
C1215 C 0.502 0.08239 0.06223 0.0
C1216 C 0.4844 0.04033 0.05901 0.0
C1217 C 0.48681 0.04192 0.03142 0.0
C1218 C 0.49708 0.0639 0.01935 0.0
H1219 H 0.43711 0.93969 0.90506 0.0
H1220 H 0.4582 0.97497 0.93163 0.0
C1221 C 0.50467 0.08399 0.03462 0.0
C1222 C 0.47699 0.02053 0.01507 0.0
H1223 H 0.47841 0.97034 0.005 0.0
C1224 C 0.45947 0.01659 0.99683 0.0
C1225 C 0.48411 0.00379 0.01792 0.0
C1226 C 0.50352 0.00753 0.03641 0.0
C1227 C 0.44852 0.99615 0.98173 0.0
C1228 C 0.45553 0.97936 0.9847 0.0
C1229 C 0.4731 0.98327 0.00284 0.0
C1230 C 0.44465 0.95762 0.96903 0.0
C1231 C 0.42915 0.99241 0.96316 0.0
C1232 C 0.43076 0.93607 0.98141 0.0
C1233 C 0.4187 0.9158 0.96627 0.0
C1234 C 0.42047 0.91684 0.93855 0.0
C1235 C 0.43526 0.93833 0.92637 0.0
C1236 C 0.44727 0.95852 0.94148 0.0
H1237 H 0.42243 0.0044 0.96749 0.0
H1238 H 0.43578 0.99564 0.94255 0.0
H1239 H 0.4145 0.97422 0.96436 0.0
H1240 H 0.42863 0.93506 0.00269 0.0
H1241 H 0.40746 0.89949 0.97621 0.0
H1242 H 0.01217 0.21174 0.10918 0.0
H1243 H 0.00079 0.20583 0.0625 0.0
H1244 H 0.02722 0.15857 0.05446 0.0
H1245 H 0.03883 0.16451 0.10111 0.0
H1246 H 0.04093 0.19574 0.01316 0.0
H1247 H 0.94574 0.14245 0.03196 0.0
H1248 H 0.96137 0.16918 0.05029 0.0
H1249 H 0.96723 0.14595 0.05625 0.0
C1250 C 0.01574 0.20025 0.09741 0.0
C1251 C 0.02634 0.18854 0.10879 0.0
C1252 C 0.00908 0.19677 0.07085 0.0
C1253 C 0.01299 0.18161 0.05522 0.0
C1254 C 0.02397 0.17024 0.06632 0.0
H1255 H 0.96084 0.12485 0.89937 0.0
H1256 H 0.97244 0.13067 0.94602 0.0
C1257 C 0.03048 0.17356 0.09295 0.0
C1258 C 0.00561 0.17762 0.02724 0.0
H1259 H 0.95758 0.15283 0.98755 0.0
C1260 C 0.02273 0.18636 0.0075 0.0
C1261 C 0.98185 0.16521 0.02008 0.0
C1262 C 0.9629 0.15497 0.04067 0.0
C1263 C 0.01666 0.18329 0.98062 0.0
C1264 C 0.99289 0.17125 0.97346 0.0
C1265 C 0.97578 0.16219 0.9932 0.0
C1266 C 0.9855 0.16776 0.94549 0.0
C1267 C 0.03563 0.19275 0.96003 0.0
C1268 C 0.98874 0.18667 0.92999 0.0
C1269 C 0.98208 0.1834 0.90343 0.0
C1270 C 0.97216 0.16117 0.89191 0.0
C1271 C 0.96868 0.14221 0.90763 0.0
C1272 C 0.97518 0.14547 0.93425 0.0
H1273 H 0.05294 0.19794 0.9687 0.0
H1274 H 0.03176 0.17961 0.94432 0.0
H1275 H 0.03655 0.20828 0.95059 0.0
H1276 H 0.99651 0.20396 0.93844 0.0
H1277 H 0.98513 0.19836 0.89175 0.0
H1278 H 0.80232 0.78845 0.89119 0.0
H1279 H 0.79807 0.7944 0.93811 0.0
H1280 H 0.87039 0.84756 0.94177 0.0
H1281 H 0.87494 0.84151 0.89492 0.0
H1282 H 0.8229 0.79044 0.98177 0.0
H1283 H 0.83534 0.8794 0.97224 0.0
H1284 H 0.82882 0.86016 0.9443 0.0
H1285 H 0.85778 0.87543 0.95759 0.0
C1286 C 0.81739 0.80127 0.902 0.0
C1287 C 0.83896 0.81455 0.88926 0.0
C1288 C 0.81489 0.80473 0.92877 0.0
C1289 C 0.83383 0.82162 0.94327 0.0
C1290 C 0.85545 0.83475 0.93076 0.0
H1291 H 0.84625 0.83529 0.1142 0.0
H1292 H 0.85167 0.83065 0.06718 0.0
C1293 C 0.85799 0.83129 0.90399 0.0
C1294 C 0.83101 0.8252 0.9716 0.0
H1295 H 0.83302 0.8651 0.01574 0.0
C1296 C 0.8251 0.80674 0.98923 0.0
C1297 C 0.83365 0.84642 0.98115 0.0
C1298 C 0.83905 0.86646 0.96286 0.0
C1299 C 0.82204 0.80904 0.01629 0.0
C1300 C 0.8252 0.83044 0.02593 0.0
C1301 C 0.83081 0.8488 0.00826 0.0
C1302 C 0.82238 0.83395 0.05429 0.0
C1303 C 0.81507 0.78846 0.03429 0.0
C1304 C 0.80447 0.83791 0.06248 0.0
C1305 C 0.80141 0.84071 0.0893 0.0
C1306 C 0.81634 0.83977 0.10837 0.0
C1307 C 0.83456 0.83625 0.09999 0.0
C1308 C 0.83755 0.83338 0.07318 0.0
H1309 H 0.8083 0.77195 0.02303 0.0
H1310 H 0.83049 0.79113 0.04571 0.0
H1311 H 0.80157 0.78667 0.04859 0.0
H1312 H 0.79269 0.83857 0.04813 0.0
H1313 H 0.78743 0.84373 0.09508 0.0
H1314 H 0.21781 0.05728 0.90497 0.0
H1315 H 0.21248 0.04583 0.95157 0.0
H1316 H 0.15009 0.98182 0.93193 0.0
H1317 H 0.15541 0.99292 0.88529 0.0
H1318 H 0.1453 0.00588 0.97543 0.0
H1319 H 0.22255 0.99479 0.98534 0.0
H1320 H 0.22848 0.02233 0.97201 0.0
H1321 H 0.21072 0.99611 0.95366 0.0
C1322 C 0.2031 0.04064 0.9105 0.0
C1323 C 0.18707 0.02599 0.89136 0.0
C1324 C 0.20008 0.03415 0.93714 0.0
C1325 C 0.18105 0.01286 0.9451 0.0
C1326 C 0.1649 0.99831 0.92615 0.0
H1327 H 0.1598 0.94323 0.09667 0.0
H1328 H 0.1647 0.95347 0.04969 0.0
C1329 C 0.16791 0.00476 0.89953 0.0
C1330 C 0.17769 0.00589 0.97327 0.0
H1331 H 0.20229 0.99273 0.02483 0.0
C1332 C 0.15772 0.00296 0.98625 0.0
C1333 C 0.19379 0.00181 0.98717 0.0
C1334 C 0.21501 0.0037 0.97384 0.0
C1335 C 0.15361 0.99643 0.01296 0.0
C1336 C 0.17005 0.99302 0.02706 0.0
C1337 C 0.18982 0.99554 0.01397 0.0
C1338 C 0.16708 0.98689 0.05548 0.0
C1339 C 0.13157 0.99296 0.02578 0.0
C1340 C 0.16707 0.00242 0.07427 0.0
C1341 C 0.16443 0.99671 0.1011 0.0
C1342 C 0.16182 0.97536 0.10969 0.0
C1343 C 0.16201 0.95991 0.09078 0.0
C1344 C 0.16469 0.96567 0.06392 0.0
H1345 H 0.11828 0.99063 0.01087 0.0
H1346 H 0.12403 0.97757 0.03906 0.0
H1347 H 0.13562 0.0085 0.03785 0.0
H1348 H 0.16937 0.01909 0.06818 0.0
H1349 H 0.16481 0.0092 0.11517 0.0
H1350 H 0.66273 0.47737 0.22192 0.0
H1351 H 0.67321 0.48349 0.26881 0.0
H1352 H 0.64008 0.52493 0.27662 0.0
H1353 H 0.62932 0.51866 0.22982 0.0
H1354 H 0.70021 0.52392 0.29561 0.0
H1355 H 0.61073 0.479 0.33674 0.0
H1356 H 0.61673 0.47634 0.30253 0.0
H1357 H 0.61595 0.50167 0.3137 0.0
C1358 C 0.65768 0.48778 0.23366 0.0
C1359 C 0.64506 0.4974 0.22227 0.0
C1360 C 0.66363 0.49121 0.26043 0.0
C1361 C 0.65709 0.50433 0.2763 0.0
C1362 C 0.64477 0.51423 0.2649 0.0
H1363 H 0.68365 0.5494 0.4402 0.0
H1364 H 0.67388 0.54478 0.39302 0.0
C1365 C 0.63866 0.51067 0.23817 0.0
C1366 C 0.66369 0.5081 0.30462 0.0
H1367 H 0.64151 0.50031 0.36712 0.0
C1368 C 0.68737 0.51867 0.31125 0.0
C1369 C 0.6469 0.50122 0.32499 0.0
C1370 C 0.62114 0.48873 0.31921 0.0
C1371 C 0.69473 0.52279 0.3377 0.0
C1372 C 0.67795 0.51602 0.35798 0.0
C1373 C 0.6543 0.50556 0.35142 0.0
C1374 C 0.68456 0.51931 0.38622 0.0
C1375 C 0.72039 0.53461 0.3438 0.0
C1376 C 0.6937 0.50643 0.3979 0.0
C1377 C 0.69924 0.50898 0.4248 0.0
C1378 C 0.69577 0.52451 0.44043 0.0
C1379 C 0.68675 0.5375 0.42858 0.0
C1380 C 0.68106 0.53481 0.40172 0.0
H1381 H 0.73121 0.54296 0.32601 0.0
H1382 H 0.72507 0.54803 0.35937 0.0
H1383 H 0.7247 0.52151 0.35131 0.0
H1384 H 0.69628 0.4942 0.38627 0.0
H1385 H 0.70633 0.49888 0.43333 0.0
H1386 H 0.4769 0.20155 0.42884 0.0
H1387 H 0.48092 0.19584 0.38172 0.0
H1388 H 0.48559 0.13483 0.39993 0.0
H1389 H 0.48103 0.14007 0.447 0.0
H1390 H 0.51832 0.19425 0.35667 0.0
H1391 H 0.43428 0.11224 0.34286 0.0
H1392 H 0.44013 0.13098 0.37114 0.0
H1393 H 0.45185 0.11178 0.36962 0.0
C1394 C 0.47852 0.18677 0.42278 0.0
C1395 C 0.4786 0.17124 0.44163 0.0
C1396 C 0.48094 0.18362 0.3959 0.0
C1397 C 0.48328 0.16478 0.38737 0.0
C1398 C 0.48347 0.14929 0.4061 0.0
H1399 H 0.53334 0.14649 0.23591 0.0
H1400 H 0.52771 0.15146 0.28279 0.0
C1401 C 0.48111 0.15246 0.433 0.0
C1402 C 0.48611 0.16168 0.35891 0.0
H1403 H 0.46094 0.12443 0.30704 0.0
C1404 C 0.50577 0.17903 0.34577 0.0
C1405 C 0.46956 0.1419 0.34477 0.0
C1406 C 0.44764 0.12322 0.35769 0.0
C1407 C 0.50953 0.17694 0.31886 0.0
C1408 C 0.4933 0.15687 0.30489 0.0
C1409 C 0.47344 0.1397 0.31792 0.0
C1410 C 0.49653 0.15349 0.27663 0.0
C1411 C 0.53065 0.19636 0.30549 0.0
C1412 C 0.48054 0.15246 0.25778 0.0
C1413 C 0.48363 0.14949 0.23103 0.0
C1414 C 0.50268 0.14732 0.2227 0.0
C1415 C 0.51845 0.148 0.24173 0.0
C1416 C 0.51539 0.15105 0.26847 0.0
H1417 H 0.53835 0.21271 0.31721 0.0
H1418 H 0.54406 0.19117 0.3032 0.0
H1419 H 0.52619 0.19987 0.2855 0.0
H1420 H 0.46578 0.15414 0.26376 0.0
H1421 H 0.47098 0.14867 0.21691 0.0
H1422 H 0.88786 0.37175 0.23305 0.0
H1423 H 0.88251 0.36058 0.27976 0.0
H1424 H 0.80815 0.32854 0.27048 0.0
H1425 H 0.81337 0.33943 0.22372 0.0
H1426 H 0.8624 0.37221 0.31959 0.0
H1427 H 0.81436 0.27663 0.30439 0.0
H1428 H 0.82953 0.29689 0.27795 0.0
H1429 H 0.80119 0.29119 0.28816 0.0
C1430 C 0.87038 0.36241 0.24101 0.0
C1431 C 0.85101 0.35637 0.22472 0.0
C1432 C 0.86735 0.35596 0.26765 0.0
C1433 C 0.84492 0.34337 0.27847 0.0
C1434 C 0.82558 0.3377 0.26237 0.0
H1435 H 0.79076 0.29615 0.43633 0.0
H1436 H 0.79619 0.30717 0.38951 0.0
C1437 C 0.82859 0.344 0.2357 0.0
C1438 C 0.8418 0.33662 0.30675 0.0
H1439 H 0.81558 0.28994 0.34838 0.0
C1440 C 0.85228 0.35422 0.32588 0.0
C1441 C 0.8286 0.31311 0.3149 0.0
C1442 C 0.81796 0.29334 0.29529 0.0
C1443 C 0.84958 0.34897 0.35297 0.0
C1444 C 0.8362 0.32552 0.36107 0.0
C1445 C 0.82573 0.30791 0.34201 0.0
C1446 C 0.83301 0.31891 0.38931 0.0
C1447 C 0.86071 0.36853 0.37279 0.0
C1448 C 0.85189 0.32165 0.40449 0.0
C1449 C 0.84885 0.31536 0.43116 0.0
C1450 C 0.82687 0.30626 0.44311 0.0
C1451 C 0.80795 0.30339 0.42775 0.0
C1452 C 0.81098 0.30955 0.40102 0.0
H1453 H 0.8665 0.38576 0.36355 0.0
H1454 H 0.84841 0.3659 0.38908 0.0
H1455 H 0.87615 0.36877 0.38156 0.0
H1456 H 0.86897 0.32862 0.39567 0.0
H1457 H 0.86378 0.31793 0.44254 0.0
H1458 H 0.37102 0.82569 0.76921 0.0
H1459 H 0.36037 0.82014 0.72235 0.0
H1460 H 0.34144 0.87342 0.7272 0.0
H1461 H 0.35163 0.87884 0.7741 0.0
H1462 H 0.31612 0.80792 0.69972 0.0
H1463 H 0.38691 0.89328 0.6637 0.0
H1464 H 0.38789 0.88148 0.69554 0.0
H1465 H 0.37037 0.89486 0.69094 0.0
C1466 C 0.36448 0.83616 0.76037 0.0
C1467 C 0.36226 0.85278 0.77542 0.0
C1468 C 0.35852 0.83303 0.73357 0.0
C1469 C 0.35041 0.84657 0.7213 0.0
C1470 C 0.3481 0.86312 0.73621 0.0
H1471 H 0.27671 0.82307 0.57251 0.0
H1472 H 0.28824 0.82806 0.61912 0.0
C1473 C 0.354 0.86622 0.763 0.0
C1474 C 0.34379 0.84302 0.69303 0.0
H1475 H 0.3571 0.87021 0.63303 0.0
C1476 C 0.3251 0.82148 0.68509 0.0
C1477 C 0.3557 0.86071 0.67403 0.0
C1478 C 0.37647 0.88384 0.68134 0.0
C1479 C 0.31774 0.8173 0.65864 0.0
C1480 C 0.32925 0.83521 0.63978 0.0
C1481 C 0.3482 0.8566 0.64763 0.0
C1482 C 0.32213 0.832 0.61167 0.0
C1483 C 0.29789 0.79368 0.651 0.0
C1484 C 0.33753 0.83298 0.59208 0.0
C1485 C 0.33106 0.83027 0.56547 0.0
C1486 C 0.30912 0.82673 0.55795 0.0
C1487 C 0.29378 0.82592 0.57765 0.0
C1488 C 0.30024 0.82855 0.60429 0.0
H1489 H 0.29446 0.78037 0.66636 0.0
H1490 H 0.28186 0.79479 0.64849 0.0
H1491 H 0.30156 0.78783 0.63195 0.0
H1492 H 0.35456 0.8358 0.59739 0.0
H1493 H 0.34339 0.83132 0.55074 0.0
H1494 H 0.21111 0.50565 0.56692 0.0
H1495 H 0.206 0.51105 0.61386 0.0
H1496 H 0.13229 0.46324 0.60674 0.0
H1497 H 0.13732 0.45756 0.55999 0.0
H1498 H 0.18023 0.52767 0.63713 0.0
H1499 H 0.14868 0.437 0.66989 0.0
H1500 H 0.16178 0.44755 0.63791 0.0
H1501 H 0.13175 0.43892 0.64341 0.0
C1502 C 0.19383 0.49629 0.57539 0.0
C1503 C 0.17464 0.48105 0.55984 0.0
C1504 C 0.19094 0.49934 0.6022 0.0
C1505 C 0.16883 0.48722 0.61391 0.0
C1506 C 0.14961 0.47226 0.59832 0.0
H1507 H 0.11256 0.48879 0.76815 0.0
H1508 H 0.11838 0.48424 0.72113 0.0
C1509 C 0.1525 0.46907 0.57159 0.0
C1510 C 0.16575 0.49074 0.64225 0.0
H1511 H 0.14486 0.46202 0.70076 0.0
C1512 C 0.17265 0.51334 0.65108 0.0
C1513 C 0.15586 0.47201 0.66043 0.0
C1514 C 0.1493 0.44754 0.65252 0.0
C1515 C 0.16952 0.51765 0.6775 0.0
C1516 C 0.15934 0.49889 0.6955 0.0
C1517 C 0.15251 0.47631 0.68676 0.0
C1518 C 0.15593 0.50237 0.72365 0.0
C1519 C 0.17674 0.54215 0.68595 0.0
C1520 C 0.17514 0.51399 0.74051 0.0
C1521 C 0.17189 0.51656 0.76731 0.0
C1522 C 0.14935 0.5076 0.77768 0.0
C1523 C 0.13013 0.49612 0.76066 0.0
C1524 C 0.13341 0.4934 0.73387 0.0
H1525 H 0.18028 0.55388 0.66876 0.0
H1526 H 0.16303 0.54232 0.69838 0.0
H1527 H 0.19283 0.54918 0.69801 0.0
H1528 H 0.19264 0.52082 0.73297 0.0
H1529 H 0.18701 0.52561 0.77994 0.0
H1530 H 0.52619 0.67732 0.78169 0.0
H1531 H 0.53104 0.68875 0.73512 0.0
H1532 H 0.47224 0.62214 0.71464 0.0
H1533 H 0.46687 0.61076 0.7613 0.0
H1534 H 0.53863 0.66679 0.69135 0.0
H1535 H 0.4566 0.66937 0.68125 0.0
H1536 H 0.46888 0.66899 0.71297 0.0
H1537 H 0.45316 0.64261 0.6942 0.0
C1538 C 0.51413 0.66518 0.76732 0.0
C1539 C 0.49599 0.64321 0.77521 0.0
C1540 C 0.51703 0.67169 0.74072 0.0
C1541 C 0.50178 0.65643 0.72154 0.0
C1542 C 0.48394 0.63432 0.72923 0.0
H1543 H 0.48966 0.66314 0.55186 0.0
H1544 H 0.48482 0.65222 0.59856 0.0
C1545 C 0.48104 0.62777 0.75584 0.0
C1546 C 0.50477 0.6636 0.69344 0.0
H1547 H 0.478 0.67409 0.64199 0.0
C1548 C 0.52544 0.66848 0.68054 0.0
C1549 C 0.4875 0.66578 0.67948 0.0
C1550 C 0.46535 0.66162 0.69268 0.0
C1551 C 0.52913 0.67508 0.65383 0.0
C1552 C 0.51185 0.67726 0.63985 0.0
C1553 C 0.4912 0.67241 0.65278 0.0
C1554 C 0.51473 0.68425 0.61168 0.0
C1555 C 0.55123 0.6791 0.64063 0.0
C1556 C 0.53292 0.70607 0.60366 0.0
C1557 C 0.5357 0.7124 0.57698 0.0
C1558 C 0.5202 0.6971 0.55787 0.0
C1559 C 0.50174 0.67544 0.5661 0.0
C1560 C 0.49901 0.66911 0.59275 0.0
H1561 H 0.55978 0.6711 0.65196 0.0
H1562 H 0.54772 0.6719 0.62026 0.0
H1563 H 0.5636 0.69808 0.63935 0.0
H1564 H 0.54492 0.71823 0.61806 0.0
H1565 H 0.54985 0.72936 0.57135 0.0
H1566 H 0.11481 0.98979 0.25217 0.0
H1567 H 0.09869 0.01569 0.25769 0.0
H1568 H 0.16326 0.07365 0.23035 0.0
H1569 H 0.17955 0.04811 0.22498 0.0
H1570 H 0.14316 0.0832 0.27577 0.0
H1571 H 0.08078 0.04182 0.19249 0.0
H1572 H 0.08007 0.02304 0.21856 0.0
H1573 H 0.10515 0.0373 0.19757 0.0
C1574 C 0.12565 0.00809 0.24759 0.0
C1575 C 0.1484 0.01686 0.23791 0.0
C1576 C 0.11638 0.02282 0.25066 0.0
C1577 C 0.12973 0.04649 0.24414 0.0
C1578 C 0.15268 0.05541 0.23545 0.0
H1579 H 0.10792 0.15452 0.19158 0.0
H1580 H 0.11609 0.12304 0.19944 0.0
C1581 C 0.16192 0.04075 0.23229 0.0
C1582 C 0.11972 0.06202 0.245 0.0
H1583 H 0.08265 0.07481 0.212 0.0
C1584 C 0.12966 0.08121 0.26215 0.0
C1585 C 0.10227 0.0594 0.22701 0.0
C1586 C 0.09146 0.03939 0.20769 0.0
C1587 C 0.1231 0.0983 0.26122 0.0
C1588 C 0.10609 0.09597 0.24275 0.0
C1589 C 0.09561 0.0764 0.2262 0.0
C1590 C 0.10065 0.11478 0.23842 0.0
C1591 C 0.13518 0.11928 0.27903 0.0
C1592 C 0.08911 0.12044 0.25772 0.0
C1593 C 0.08449 0.13856 0.25331 0.0
C1594 C 0.09139 0.15133 0.22957 0.0
C1595 C 0.10275 0.14537 0.21025 0.0
C1596 C 0.10726 0.12725 0.21461 0.0
H1597 H 0.15014 0.11994 0.28968 0.0
H1598 H 0.14152 0.13553 0.26738 0.0
H1599 H 0.12263 0.11875 0.2939 0.0
H1600 H 0.08371 0.11086 0.27614 0.0
H1601 H 0.07581 0.14279 0.26861 0.0
H1602 H 0.01136 0.12496 0.24815 0.0
H1603 H 0.98519 0.08268 0.25115 0.0
H1604 H 0.92769 0.09109 0.22634 0.0
H1605 H 0.95349 0.13302 0.22312 0.0
H1606 H 0.94101 0.0546 0.27983 0.0
H1607 H 0.9314 0.04681 0.1708 0.0
H1608 H 0.95458 0.07209 0.18687 0.0
H1609 H 0.92596 0.06859 0.18459 0.0
C1610 C 0.99309 0.1178 0.24362 0.0
C1611 C 0.98454 0.1323 0.23507 0.0
C1612 C 0.9782 0.09368 0.24534 0.0
C1613 C 0.95464 0.08381 0.2385 0.0
C1614 C 0.94592 0.09837 0.23122 0.0
H1615 H 0.82847 0.95608 0.22145 0.0
H1616 H 0.86027 0.99602 0.22675 0.0
C1617 C 0.96071 0.12234 0.22944 0.0
C1618 C 0.93909 0.05828 0.23776 0.0
H1619 H 0.90367 0.01432 0.19601 0.0
C1620 C 0.93307 0.04565 0.26151 0.0
C1621 C 0.92894 0.04671 0.21377 0.0
C1622 C 0.93569 0.05918 0.18751 0.0
C1623 C 0.91615 0.02187 0.26199 0.0
C1624 C 0.90523 0.01064 0.23812 0.0
C1625 C 0.91196 0.02309 0.2143 0.0
C1626 C 0.88584 0.98632 0.23736 0.0
C1627 C 0.90929 0.00912 0.28803 0.0
C1628 C 0.88971 0.96767 0.24177 0.0
C1629 C 0.87156 0.94474 0.2385 0.0
C1630 C 0.84929 0.94015 0.23068 0.0
C1631 C 0.84545 0.95897 0.22703 0.0
C1632 C 0.86356 0.9818 0.23023 0.0
H1633 H 0.91732 0.02103 0.30512 0.0
H1634 H 0.89008 -0.00023 0.29034 0.0
H1635 H 0.91493 0.99595 0.2884 0.0
H1636 H 0.9069 0.97085 0.24691 0.0
H1637 H 0.87522 0.93071 0.24117 0.0
H1638 H 0.86977 0.82148 0.22885 0.0
H1639 H 0.91147 0.83824 0.23564 0.0
H1640 H 0.91729 0.90381 0.25727 0.0
H1641 H 0.87536 0.88716 0.25034 0.0
H1642 H 0.94872 0.90736 0.21813 0.0
H1643 H 0.95103 0.85596 0.303 0.0
H1644 H 0.93179 0.83797 0.2773 0.0
H1645 H 0.92556 0.85788 0.29472 0.0
C1646 C 0.87982 0.83939 0.23537 0.0
C1647 C 0.86925 0.853 0.23902 0.0
C1648 C 0.90364 0.84888 0.23946 0.0
C1649 C 0.9174 0.87215 0.24734 0.0
C1650 C 0.9069 0.88573 0.25144 0.0
H1651 H 0.06732 0.92518 0.27039 0.0
H1652 H 0.02778 0.91806 0.27821 0.0
C1653 C 0.88296 0.87619 0.2475 0.0
C1654 C 0.94298 0.88258 0.24887 0.0
H1655 H 0.98533 0.87395 0.27548 0.0
C1656 C 0.95681 0.90038 0.23103 0.0
C1657 C 0.95354 0.87366 0.26593 0.0
C1658 C 0.93973 0.85547 0.28652 0.0
C1659 C 0.9807 0.90844 0.2286 0.0
C1660 C 0.99088 0.89824 0.24423 0.0
C1661 C 0.97739 0.88154 0.26329 0.0
C1662 C 0.01496 0.90327 0.23954 0.0
C1663 C 0.99474 0.92739 0.20886 0.0
C1664 C 0.02068 0.89705 0.21536 0.0
C1665 C 0.04311 0.90101 0.21089 0.0
C1666 C 0.0603 0.91126 0.23054 0.0
C1667 C 0.05452 0.91748 0.25479 0.0
C1668 C 0.03196 0.91335 0.25932 0.0
H1669 H 0.98632 0.93782 0.20418 0.0
H1670 H 0.01259 0.93923 0.21635 0.0
H1671 H 0.99617 0.91938 0.19022 0.0
H1672 H 0.00768 0.88892 0.19999 0.0
H1673 H 0.04703 0.89628 0.19191 0.0
H1674 H 0.04551 0.18132 0.77735 0.0
H1675 H 0.07248 0.16663 0.77345 0.0
H1676 H 0.01628 0.09976 0.74887 0.0
H1677 H 0.98901 0.11443 0.75246 0.0
H1678 H 0.06803 0.12885 0.80315 0.0
H1679 H 0.06857 0.11347 0.69501 0.0
H1680 H 0.05835 0.13194 0.70855 0.0
H1681 H 0.04052 0.10089 0.71067 0.0
C1682 C 0.03887 0.16356 0.77081 0.0
C1683 C 0.0151 0.14901 0.76532 0.0
C1684 C 0.05433 0.15521 0.76856 0.0
C1685 C 0.0464 0.13218 0.76074 0.0
C1686 C 0.0228 0.11772 0.75453 0.0
H1687 H 0.12573 0.05895 0.76105 0.0
H1688 H 0.09427 0.06783 0.756 0.0
C1689 C 0.00725 0.1261 0.75669 0.0
C1690 C 0.06272 0.1231 0.7612 0.0
H1691 H 0.09122 0.1034 0.72211 0.0
C1692 C 0.07303 0.1232 0.78544 0.0
C1693 C 0.06901 0.11556 0.73809 0.0
C1694 C 0.05871 0.11555 0.71152 0.0
C1695 C 0.08984 0.1164 0.78716 0.0
C1696 C 0.09673 0.10962 0.76395 0.0
C1697 C 0.0859 0.10874 0.73981 0.0
C1698 C 0.11598 0.1045 0.76446 0.0
C1699 C 0.10024 0.11667 0.81378 0.0
C1700 C 0.13862 0.12232 0.77017 0.0
C1701 C 0.1566 0.11737 0.77294 0.0
C1702 C 0.15229 0.09448 0.77002 0.0
C1703 C 0.1297 0.07678 0.76326 0.0
C1704 C 0.11168 0.08179 0.76045 0.0
H1705 H 0.0893 0.11688 0.83027 0.0
H1706 H 0.10252 0.10128 0.81612 0.0
H1707 H 0.11763 0.13253 0.81537 0.0
H1708 H 0.14229 0.14003 0.77295 0.0
H1709 H 0.17386 0.13146 0.77759 0.0
H1710 H 0.94398 0.06857 0.75691 0.0
H1711 H 0.93594 0.02911 0.74687 0.0
H1712 H 0.86337 0.00225 0.76454 0.0
H1713 H 0.87112 0.04156 0.77386 0.0
H1714 H 0.91783 0.99189 0.78165 0.0
H1715 H 0.86051 0.97073 0.6944 0.0
H1716 H 0.87875 0.00018 0.706 0.0
H1717 H 0.8511 0.98148 0.72146 0.0
C1718 C 0.92624 0.05432 0.75814 0.0
C1719 C 0.90817 0.05822 0.76618 0.0
C1720 C 0.9217 0.03178 0.75252 0.0
C1721 C 0.899 0.01281 0.75454 0.0
C1722 C 0.88093 0.01669 0.76229 0.0
H1723 H 0.82105 0.86783 0.7707 0.0
H1724 H 0.8375 0.90956 0.7643 0.0
C1725 C 0.88544 0.03915 0.76796 0.0
C1726 C 0.89426 0.9887 0.75056 0.0
H1727 H 0.85786 0.93808 0.7184 0.0
C1728 C 0.90509 0.9802 0.76745 0.0
C1729 C 0.87771 0.97356 0.73194 0.0
C1730 C 0.86653 0.98201 0.71224 0.0
C1731 C 0.89865 0.95657 0.76742 0.0
C1732 C 0.88116 0.94118 0.74978 0.0
C1733 C 0.8712 0.94992 0.73197 0.0
C1734 C 0.8712 0.91568 0.75153 0.0
C1735 C 0.9096 0.94798 0.78729 0.0
C1736 C 0.88459 0.90521 0.74592 0.0
C1737 C 0.87521 0.88124 0.74958 0.0
C1738 C 0.85231 0.86744 0.75893 0.0
C1739 C 0.83878 0.87795 0.76366 0.0
C1740 C 0.84812 0.9018 0.75993 0.0
H1741 H 0.92024 0.96149 0.80216 0.0
H1742 H 0.896 0.9324 0.7978 0.0
H1743 H 0.92106 0.94288 0.77684 0.0
H1744 H 0.90236 0.91562 0.73909 0.0
H1745 H 0.88607 0.87367 0.74571 0.0
H1746 H 0.124 0.01302 0.75243 0.0
H1747 H 0.08174 0.98679 0.74905 0.0
H1748 H 0.09015 0.92915 0.77334 0.0
H1749 H 0.13203 0.95498 0.77688 0.0
H1750 H 0.05402 0.94226 0.71977 0.0
H1751 H 0.04552 0.93288 0.8288 0.0
H1752 H 0.07071 0.95628 0.81284 0.0
H1753 H 0.06766 0.92786 0.81532 0.0
C1754 C 0.11684 0.9947 0.75674 0.0
C1755 C 0.13131 0.9861 0.76523 0.0
C1756 C 0.09274 0.97979 0.75482 0.0
C1757 C 0.0829 0.95617 0.76139 0.0
C1758 C 0.09743 0.94742 0.76863 0.0
H1759 H 0.95664 0.82893 0.77745 0.0
H1760 H 0.9963 0.86137 0.77252 0.0
C1761 C 0.12137 0.96222 0.77062 0.0
C1762 C 0.05741 0.94054 0.76192 0.0
H1763 H 0.01339 0.90478 0.80338 0.0
C1764 C 0.04497 0.93431 0.73804 0.0
C1765 C 0.04573 0.93037 0.78585 0.0
C1766 C 0.05801 0.93733 0.81221 0.0
C1767 C 0.02131 0.91711 0.73738 0.0
C1768 C 0.01001 0.90614 0.76119 0.0
C1769 C 0.02223 0.91313 0.78514 0.0
C1770 C 0.9859 0.88638 0.76176 0.0
C1771 C 0.00878 0.90999 0.71122 0.0
C1772 C 0.96696 0.88975 0.75715 0.0
C1773 C 0.9442 0.87125 0.7602 0.0
C1774 C 0.94007 0.84912 0.768 0.0
C1775 C 0.95918 0.84579 0.77187 0.0
C1776 C 0.98185 0.86426 0.76889 0.0
H1777 H 0.02074 0.91826 0.69423 0.0
H1778 H -0.00011 0.89078 0.70891 0.0
H1779 H 0.99523 0.91512 0.71065 0.0
H1780 H 0.96979 0.90682 0.75201 0.0
H1781 H 0.92993 0.87452 0.75738 0.0
H1782 H 0.84596 0.37376 0.58566 0.0
H1783 H 0.83205 0.40135 0.59106 0.0
H1784 H 0.76317 0.34814 0.56746 0.0
H1785 H 0.7768 0.32011 0.5639 0.0
H1786 H 0.81876 0.41742 0.55456 0.0
H1787 H 0.74522 0.37646 0.62451 0.0
H1788 H 0.76492 0.36549 0.61961 0.0
H1789 H 0.7408 0.35732 0.59739 0.0
C1790 C 0.82771 0.36786 0.58232 0.0
C1791 C 0.81241 0.3449 0.57444 0.0
C1792 C 0.81976 0.38362 0.58535 0.0
C1793 C 0.79647 0.37689 0.57989 0.0
C1794 C 0.78102 0.35368 0.57261 0.0
H1795 H 0.75927 0.47458 0.5173 0.0
H1796 H 0.76871 0.44389 0.52511 0.0
C1797 C 0.78885 0.3377 0.57035 0.0
C1798 C 0.78925 0.39482 0.57882 0.0
H1799 H 0.74659 0.40668 0.59666 0.0
C1800 C 0.80313 0.41512 0.56414 0.0
C1801 C 0.76902 0.39214 0.59151 0.0
C1802 C 0.75431 0.37178 0.60937 0.0
C1803 C 0.79718 0.43249 0.56132 0.0
C1804 C 0.7761 0.42905 0.57238 0.0
C1805 C 0.76251 0.40911 0.58773 0.0
C1806 C 0.76791 0.44588 0.56781 0.0
C1807 C 0.81383 0.45451 0.54679 0.0
C1808 C 0.76283 0.45618 0.58915 0.0
C1809 C 0.75683 0.47335 0.58463 0.0
C1810 C 0.75612 0.48061 0.55874 0.0
C1811 C 0.76024 0.4696 0.53744 0.0
C1812 C 0.76572 0.45217 0.54191 0.0
H1813 H 0.83194 0.45774 0.54771 0.0
H1814 H 0.80879 0.45273 0.52564 0.0
H1815 H 0.81363 0.4699 0.55508 0.0
H1816 H 0.76418 0.45144 0.6093 0.0
H1817 H 0.75365 0.4816 0.60131 0.0
H1818 H 0.62129 0.47357 0.55946 0.0
H1819 H 0.59202 0.43277 0.56535 0.0
H1820 H 0.64577 0.41666 0.58423 0.0
H1821 H 0.67537 0.4578 0.57878 0.0
H1822 H 0.58985 0.39735 0.53523 0.0
H1823 H 0.59716 0.38178 0.64188 0.0
H1824 H 0.60931 0.41065 0.62811 0.0
H1825 H 0.62394 0.3943 0.62357 0.0
C1826 C 0.62694 0.46143 0.56516 0.0
C1827 C 0.65066 0.46888 0.56853 0.0
C1828 C 0.61015 0.43812 0.56857 0.0
C1829 C 0.61668 0.42171 0.5754 0.0
C1830 C 0.64032 0.42912 0.57944 0.0
H1831 H 0.53595 0.27071 0.57492 0.0
H1832 H 0.56672 0.31117 0.57998 0.0
C1833 C 0.65721 0.45259 0.57619 0.0
C1834 C 0.59875 0.39672 0.57605 0.0
H1835 H 0.57188 0.34887 0.61597 0.0
C1836 C 0.58589 0.38678 0.55292 0.0
C1837 C 0.59375 0.38295 0.5991 0.0
C1838 C 0.6066 0.39294 0.62467 0.0
C1839 C 0.5681 0.36348 0.55218 0.0
C1840 C 0.56283 0.34981 0.57531 0.0
C1841 C 0.57592 0.35953 0.59836 0.0
C1842 C 0.54381 0.32531 0.57558 0.0
C1843 C 0.55522 0.35356 0.52658 0.0
C1844 C 0.52066 0.3199 0.57223 0.0
C1845 C 0.50296 0.29677 0.56948 0.0
C1846 C 0.50811 0.27863 0.57007 0.0
C1847 C 0.53125 0.28414 0.57465 0.0
C1848 C 0.54892 0.30728 0.57744 0.0
H1849 H 0.5646 0.36477 0.50938 0.0
H1850 H 0.55256 0.33588 0.52304 0.0
H1851 H 0.53785 0.35212 0.52775 0.0
H1852 H 0.51637 0.33363 0.57109 0.0
H1853 H 0.48532 0.29314 0.56645 0.0
H1854 H 0.73076 0.25414 0.60201 0.0
H1855 H 0.69161 0.24791 0.60976 0.0
H1856 H 0.67076 0.21779 0.53204 0.0
H1857 H 0.70965 0.22394 0.52416 0.0
H1858 H 0.66847 0.26564 0.58233 0.0
H1859 H 0.61898 0.16953 0.57798 0.0
H1860 H 0.65023 0.18582 0.58156 0.0
H1861 H 0.63708 0.18188 0.54943 0.0
C1862 C 0.71782 0.24616 0.5866 0.0
C1863 C 0.72331 0.2394 0.56252 0.0
C1864 C 0.69545 0.24251 0.59111 0.0
C1865 C 0.67816 0.23197 0.57168 0.0
C1866 C 0.68363 0.22533 0.54761 0.0
H1867 H 0.5597 0.24185 0.53181 0.0
H1868 H 0.59831 0.24756 0.54041 0.0
C1869 C 0.70591 0.22889 0.54312 0.0
C1870 C 0.65473 0.22898 0.57576 0.0
H1871 H 0.59696 0.18893 0.57096 0.0
C1872 C 0.65281 0.24882 0.58028 0.0
C1873 C 0.63432 0.20698 0.57362 0.0
C1874 C 0.63523 0.18482 0.57067 0.0
C1875 C 0.63102 0.24742 0.58114 0.0
C1876 C 0.6107 0.22568 0.57684 0.0
C1877 C 0.61257 0.20565 0.57391 0.0
C1878 C 0.58753 0.22353 0.57333 0.0
C1879 C 0.63002 0.26929 0.58632 0.0
C1880 C 0.5685 0.20782 0.58871 0.0
C1881 C 0.54625 0.20429 0.58363 0.0
C1882 C 0.54266 0.21632 0.56296 0.0
C1883 C 0.56185 0.23235 0.54794 0.0
C1884 C 0.58402 0.2358 0.55298 0.0
H1885 H 0.64532 0.28207 0.59793 0.0
H1886 H 0.63023 0.27756 0.56717 0.0
H1887 H 0.61393 0.26546 0.59715 0.0
H1888 H 0.57082 0.19803 0.60438 0.0
H1889 H 0.53183 0.19178 0.59553 0.0
H1890 H 0.81612 0.41868 0.05804 0.0
H1891 H 0.7834 0.42517 0.0502 0.0
H1892 H 0.79785 0.46256 0.12393 0.0
H1893 H 0.83052 0.45629 0.13175 0.0
H1894 H 0.74521 0.40898 0.08014 0.0
H1895 H 0.78749 0.50477 0.07577 0.0
H1896 H 0.80372 0.48968 0.07309 0.0
H1897 H 0.79583 0.49556 0.10506 0.0
C1898 C 0.81249 0.42854 0.0724 0.0
C1899 C 0.82593 0.43697 0.09553 0.0
C1900 C 0.79385 0.4323 0.06784 0.0
C1901 C 0.78836 0.44462 0.08629 0.0
C1902 C 0.80213 0.45358 0.10904 0.0
H1903 H 0.65897 0.42969 0.13326 0.0
H1904 H 0.69299 0.426 0.12382 0.0
C1905 C 0.82082 0.44994 0.11352 0.0
C1906 C 0.76699 0.44621 0.08323 0.0
H1907 H 0.74662 0.48422 0.08711 0.0
C1908 C 0.74554 0.42547 0.08119 0.0
C1909 C 0.7674 0.46772 0.08414 0.0
C1910 C 0.78989 0.49069 0.08434 0.0
C1911 C 0.72447 0.42557 0.08155 0.0
C1912 C 0.72486 0.44695 0.08465 0.0
C1913 C 0.74631 0.46779 0.08513 0.0
C1914 C 0.70334 0.44802 0.0891 0.0
C1915 C 0.70201 0.40275 0.07888 0.0
C1916 C 0.69804 0.46196 0.07299 0.0
C1917 C 0.6787 0.46433 0.07853 0.0
C1918 C 0.66437 0.45287 0.10037 0.0
C1919 C 0.66953 0.43863 0.11619 0.0
C1920 C 0.68891 0.43636 0.11071 0.0
H1921 H 0.70467 0.38978 0.06784 0.0
H1922 H 0.69547 0.39553 0.09887 0.0
H1923 H 0.6885 0.40501 0.0686 0.0
H1924 H 0.70904 0.47123 0.05632 0.0
H1925 H 0.67523 0.47547 0.06597 0.0
H1926 H 0.52415 0.1984 0.06635 0.0
H1927 H 0.52926 0.23679 0.05631 0.0
H1928 H 0.57451 0.2656 0.12385 0.0
H1929 H 0.56998 0.22761 0.13364 0.0
H1930 H 0.51705 0.26225 0.08648 0.0
H1931 H 0.61164 0.31296 0.06795 0.0
H1932 H 0.59586 0.28155 0.0689 0.0
H1933 H 0.60552 0.29814 0.09908 0.0
C1934 C 0.53547 0.21299 0.07882 0.0
C1935 C 0.54671 0.20995 0.10076 0.0
C1936 C 0.53835 0.2349 0.07307 0.0
C1937 C 0.55258 0.25415 0.08906 0.0
C1938 C 0.56396 0.25116 0.1108 0.0
H1939 H 0.54647 0.37445 0.131 0.0
H1940 H 0.53993 0.33537 0.12345 0.0
C1941 C 0.56119 0.22934 0.1165 0.0
C1942 C 0.55423 0.277 0.08441 0.0
H1943 H 0.59323 0.33512 0.08021 0.0
C1944 C 0.53369 0.27816 0.08465 0.0
C1945 C 0.57588 0.29772 0.08149 0.0
C1946 C 0.59844 0.29752 0.07904 0.0
C1947 C 0.53431 0.2996 0.08362 0.0
C1948 C 0.55608 0.32042 0.08295 0.0
C1949 C 0.57654 0.31918 0.08111 0.0
C1950 C 0.55818 0.34363 0.08602 0.0
C1951 C 0.51163 0.29969 0.08354 0.0
C1952 C 0.57086 0.36143 0.06767 0.0
C1953 C 0.57478 0.38392 0.07207 0.0
C1954 C 0.56614 0.38904 0.09496 0.0
C1955 C 0.55297 0.37102 0.11294 0.0
C1956 C 0.54918 0.34861 0.10861 0.0
H1957 H 0.4974 0.2834 0.07482 0.0
H1958 H 0.50666 0.30082 0.1042 0.0
H1959 H 0.51309 0.31473 0.07229 0.0
H1960 H 0.57806 0.358 0.05015 0.0
H1961 H 0.58481 0.39734 0.05772 0.0
H1962 H 0.77255 0.34384 0.1364 0.0
H1963 H 0.73471 0.30955 0.12819 0.0
H1964 H 0.76194 0.29388 0.05863 0.0
H1965 H 0.80019 0.3279 0.06714 0.0
H1966 H 0.70444 0.29623 0.08727 0.0
H1967 H 0.7366 0.23395 0.10025 0.0
H1968 H 0.75398 0.26436 0.10853 0.0
H1969 H 0.75088 0.25514 0.07463 0.0
C1970 C 0.77052 0.33321 0.11925 0.0
C1971 C 0.78946 0.33847 0.10257 0.0
C1972 C 0.74884 0.31361 0.11457 0.0
C1973 C 0.74561 0.29891 0.09309 0.0
C1974 C 0.7642 0.30466 0.07569 0.0
H1975 H 0.60303 0.18651 0.05904 0.0
H1976 H 0.64209 0.22008 0.05293 0.0
C1977 C 0.786 0.3242 0.08049 0.0
C1978 C 0.72289 0.2773 0.0896 0.0
H1979 H 0.69687 0.21802 0.09015 0.0
C1980 C 0.70276 0.27911 0.08769 0.0
C1981 C 0.72078 0.255 0.09044 0.0
C1982 C 0.74165 0.25187 0.09381 0.0
C1983 C 0.68053 0.25927 0.08727 0.0
C1984 C 0.67842 0.23696 0.08807 0.0
C1985 C 0.69857 0.23514 0.08931 0.0
C1986 C 0.65546 0.2154 0.09005 0.0
C1987 C 0.65952 0.26242 0.08728 0.0
C1988 C 0.65038 0.20098 0.11227 0.0
C1989 C 0.62823 0.18168 0.11562 0.0
C1990 C 0.61068 0.17647 0.09686 0.0
C1991 C 0.61609 0.19034 0.07404 0.0
C1992 C 0.63836 0.20955 0.07057 0.0
H1993 H 0.6641 0.28041 0.09287 0.0
H1994 H 0.65186 0.25896 0.06716 0.0
H1995 H 0.64604 0.25009 0.10119 0.0
H1996 H 0.66334 0.20513 0.12752 0.0
H1997 H 0.62457 0.17149 0.13351 0.0
H1998 H 0.44026 0.81752 0.8607 0.0
H1999 H 0.44573 0.78424 0.86787 0.0
H2000 H 0.41464 0.7739 0.94519 0.0
H2001 H 0.40887 0.80722 0.93796 0.0
H2002 H 0.47044 0.77651 0.90546 0.0
H2003 H 0.37653 0.70996 0.91186 0.0
H2004 H 0.38651 0.73923 0.9005 0.0
H2005 H 0.38642 0.73342 0.93521 0.0
C2006 C 0.43477 0.80833 0.87933 0.0
C2007 C 0.42411 0.81499 0.89876 0.0
C2008 C 0.43782 0.78924 0.88337 0.0
C2009 C 0.43034 0.77642 0.90692 0.0
C2010 C 0.42009 0.78325 0.92663 0.0
H2011 H 0.47301 0.67143 0.93155 0.0
H2012 H 0.46633 0.70393 0.94039 0.0
C2013 C 0.41684 0.80229 0.9225 0.0
C2014 C 0.43334 0.7559 0.91041 0.0
H2015 H 0.40329 0.6967 0.91602 0.0
C2016 C 0.45581 0.75906 0.90803 0.0
C2017 C 0.41415 0.73317 0.9136 0.0
C2018 C 0.38951 0.7286 0.91523 0.0
C2019 C 0.45957 0.74006 0.90776 0.0
C2020 C 0.44036 0.7173 0.91067 0.0
C2021 C 0.41798 0.71419 0.91399 0.0
C2022 C 0.4428 0.69642 0.90744 0.0
C2023 C 0.4839 0.74449 0.90293 0.0
C2024 C 0.431 0.68085 0.88676 0.0
C2025 C 0.43452 0.66215 0.88188 0.0
C2026 C 0.45001 0.65869 0.89756 0.0
C2027 C 0.46114 0.67377 0.91896 0.0
C2028 C 0.45745 0.69241 0.92395 0.0
H2029 H 0.49567 0.76237 0.89546 0.0
H2030 H 0.49123 0.74239 0.92176 0.0
H2031 H 0.48377 0.73186 0.88842 0.0
H2032 H 0.41955 0.68356 0.87383 0.0
H2033 H 0.42555 0.65081 0.86534 0.0
H2034 H 0.34116 0.79315 0.9284 0.0
H2035 H 0.31283 0.75242 0.93868 0.0
H2036 H 0.26152 0.75705 0.89081 0.0
H2037 H 0.28929 0.79754 0.88094 0.0
H2038 H 0.24397 0.73538 0.93879 0.0
H2039 H 0.29202 0.69785 0.88755 0.0
H2040 H 0.30758 0.71889 0.91299 0.0
H2041 H 0.29947 0.72778 0.88322 0.0
C2042 C 0.32382 0.78546 0.92013 0.0
C2043 C 0.31753 0.79856 0.90374 0.0
C2044 C 0.3077 0.76218 0.92592 0.0
C2045 C 0.28516 0.75164 0.91524 0.0
C2046 C 0.27882 0.76483 0.89925 0.0
H2047 H 0.16222 0.62652 0.88389 0.0
H2048 H 0.19308 0.66607 0.89238 0.0
C2049 C 0.29479 0.788 0.89356 0.0
C2050 C 0.26792 0.72683 0.92014 0.0
H2051 H 0.25525 0.67158 0.90487 0.0
C2052 C 0.24655 0.72141 0.93169 0.0
C2053 C 0.27137 0.70863 0.91097 0.0
C2054 C 0.29375 0.71345 0.89781 0.0
C2055 C 0.22821 0.69836 0.93333 0.0
C2056 C 0.23127 0.68031 0.92296 0.0
C2057 C 0.25301 0.68554 0.91276 0.0
C2058 C 0.21153 0.6563 0.92004 0.0
C2059 C 0.2055 0.69352 0.94557 0.0
C2060 C 0.21165 0.63763 0.93281 0.0
C2061 C 0.1938 0.6148 0.92821 0.0
C2062 C 0.17563 0.61017 0.91037 0.0
C2063 C 0.17551 0.62913 0.89803 0.0
C2064 C 0.19325 0.6519 0.90282 0.0
H2065 H 0.20792 0.70779 0.95904 0.0
H2066 H 0.19331 0.69203 0.92966 0.0
H2067 H 0.19737 0.67691 0.95679 0.0
H2068 H 0.2257 0.64071 0.94612 0.0
H2069 H 0.19452 0.60089 0.93845 0.0
H2070 H 0.19778 0.51757 0.92891 0.0
H2071 H 0.23548 0.52002 0.9355 0.0
H2072 H 0.26635 0.57496 0.8776 0.0
H2073 H 0.22881 0.57254 0.87068 0.0
H2074 H 0.27441 0.53766 0.86876 0.0
H2075 H 0.29539 0.57049 0.97206 0.0
H2076 H 0.26712 0.54544 0.96686 0.0
H2077 H 0.27395 0.57283 0.95238 0.0
C2078 C 0.21267 0.53041 0.91785 0.0
C2079 C 0.21029 0.54483 0.8992 0.0
C2080 C 0.2342 0.53183 0.92172 0.0
C2081 C 0.25369 0.54777 0.90716 0.0
C2082 C 0.25148 0.56255 0.88905 0.0
H2083 H 0.39926 0.59961 0.91259 0.0
H2084 H 0.35949 0.5916 0.91782 0.0
C2085 C 0.23001 0.56115 0.88514 0.0
C2086 C 0.27608 0.54813 0.90934 0.0
H2087 H 0.32153 0.56127 0.95093 0.0
C2088 C 0.28467 0.54268 0.88676 0.0
C2089 C 0.28937 0.55475 0.93285 0.0
C2090 C 0.28116 0.5614 0.95742 0.0
C2091 C 0.30645 0.54409 0.88685 0.0
C2092 C 0.31981 0.55077 0.91034 0.0
C2093 C 0.31108 0.55589 0.93308 0.0
C2094 C 0.34376 0.55462 0.91077 0.0
C2095 C 0.31539 0.53934 0.86152 0.0
C2096 C 0.34811 0.53632 0.90593 0.0
C2097 C 0.37095 0.54082 0.90299 0.0
C2098 C 0.38979 0.56369 0.905 0.0
C2099 C 0.38529 0.58175 0.91124 0.0
C2100 C 0.36251 0.57724 0.91413 0.0
H2101 H 0.30493 0.53877 0.8441 0.0
H2102 H 0.3338 0.55288 0.85806 0.0
H2103 H 0.31458 0.52227 0.86306 0.0
H2104 H 0.33382 0.51867 0.90368 0.0
H2105 H 0.37383 0.5265 0.89861 0.0
H2106 H 0.32373 0.78531 0.40679 0.0
H2107 H 0.35044 0.7705 0.39862 0.0
H2108 H 0.40454 0.8289 0.44107 0.0
H2109 H 0.37838 0.84402 0.44876 0.0
H2110 H 0.42038 0.81953 0.39504 0.0
H2111 H 0.3694 0.73904 0.45481 0.0
H2112 H 0.35426 0.74339 0.42795 0.0
H2113 H 0.36363 0.76287 0.45571 0.0
C2114 C 0.34137 0.79504 0.41423 0.0
C2115 C 0.34888 0.81576 0.42858 0.0
C2116 C 0.35655 0.78649 0.40967 0.0
C2117 C 0.37936 0.79843 0.41958 0.0
C2118 C 0.387 0.81938 0.43328 0.0
H2119 H 0.49489 0.78797 0.4632 0.0
H2120 H 0.46381 0.79623 0.45391 0.0
C2121 C 0.37196 0.82797 0.43772 0.0
C2122 C 0.39545 0.78918 0.41651 0.0
H2123 H 0.40539 0.74613 0.43811 0.0
C2124 C 0.41695 0.8033 0.40408 0.0
C2125 C 0.39092 0.76799 0.42837 0.0
C2126 C 0.3684 0.75245 0.44265 0.0
C2127 C 0.43441 0.79728 0.4042 0.0
C2128 C 0.43022 0.77667 0.41702 0.0
C2129 C 0.40838 0.7619 0.42823 0.0
C2130 C 0.44923 0.77167 0.42172 0.0
C2131 C 0.45759 0.81339 0.39157 0.0
C2132 C 0.45122 0.75506 0.40663 0.0
C2133 C 0.46928 0.75046 0.4116 0.0
C2134 C 0.4855 0.76225 0.43197 0.0
C2135 C 0.48316 0.7788 0.44707 0.0
C2136 C 0.46527 0.78348 0.44193 0.0
H2137 H 0.45683 0.82655 0.37868 0.0
H2138 H 0.47071 0.82265 0.40728 0.0
H2139 H 0.46357 0.80331 0.37966 0.0
H2140 H 0.4389 0.74579 0.39094 0.0
H2141 H 0.47055 0.7378 0.39933 0.0
H2142 H 0.15687 0.53588 0.44321 0.0
H2143 H 0.17305 0.5775 0.43617 0.0
H2144 H 0.23791 0.58366 0.41077 0.0
H2145 H 0.22183 0.5418 0.41789 0.0
H2146 H 0.24245 0.6156 0.45041 0.0
H2147 H 0.18792 0.6159 0.36778 0.0
H2148 H 0.17108 0.5968 0.39419 0.0
H2149 H 0.1907 0.59085 0.37574 0.0
C2150 C 0.1745 0.54599 0.43584 0.0
C2151 C 0.18807 0.53553 0.43114 0.0
C2152 C 0.18365 0.56976 0.43162 0.0
C2153 C 0.20655 0.58359 0.42258 0.0
C2154 C 0.22011 0.57321 0.41751 0.0
H2155 H 0.25739 0.73303 0.39781 0.0
H2156 H 0.2508 0.69362 0.3902 0.0
C2157 C 0.21089 0.54932 0.42157 0.0
C2158 C 0.21666 0.60911 0.42067 0.0
H2159 H 0.20665 0.65068 0.3944 0.0
C2160 C 0.23494 0.62336 0.43779 0.0
C2161 C 0.20704 0.61922 0.40398 0.0
C2162 C 0.18825 0.60493 0.38418 0.0
C2163 C 0.24282 0.64724 0.43989 0.0
C2164 C 0.23197 0.657 0.42465 0.0
C2165 C 0.21475 0.64308 0.40628 0.0
C2166 C 0.2368 0.68104 0.42921 0.0
C2167 C 0.26225 0.66175 0.45892 0.0
C2168 C 0.23087 0.68683 0.45351 0.0
C2169 C 0.2345 0.70917 0.45784 0.0
C2170 C 0.24414 0.72619 0.43794 0.0
C2171 C 0.25014 0.72035 0.41358 0.0
C2172 C 0.24632 0.69787 0.40918 0.0
H2173 H 0.27292 0.65354 0.46334 0.0
H2174 H 0.27376 0.67948 0.45091 0.0
H2175 H 0.25471 0.66347 0.47779 0.0
H2176 H 0.22319 0.67397 0.46908 0.0
H2177 H 0.22996 0.71316 0.47691 0.0
H2178 H 0.46527 0.62284 0.44309 0.0
H2179 H 0.42377 0.59679 0.43608 0.0
H2180 H 0.41644 0.6546 0.40975 0.0
H2181 H 0.45821 0.681 0.41679 0.0
H2182 H 0.38476 0.62688 0.44995 0.0
H2183 H 0.38557 0.5725 0.36739 0.0
H2184 H 0.40499 0.57544 0.39374 0.0
H2185 H 0.41019 0.6007 0.37513 0.0
C2186 C 0.45493 0.63004 0.43554 0.0
C2187 C 0.46502 0.654 0.43054 0.0
C2188 C 0.43123 0.61508 0.43133 0.0
C2189 C 0.41713 0.62373 0.42203 0.0
C2190 C 0.42713 0.64759 0.41669 0.0
H2191 H 0.26803 0.5239 0.39784 0.0
H2192 H 0.30733 0.55681 0.39011 0.0
C2193 C 0.45096 0.66261 0.4207 0.0
C2194 C 0.39168 0.60795 0.42016 0.0
H2195 H 0.35081 0.55596 0.394 0.0
C2196 C 0.37724 0.61161 0.43735 0.0
C2197 C 0.3819 0.58818 0.4035 0.0
C2198 C 0.39643 0.58405 0.3837 0.0
C2199 C 0.35348 0.59521 0.43955 0.0
C2200 C 0.34407 0.57462 0.42431 0.0
C2201 C 0.35817 0.57167 0.40587 0.0
C2202 C 0.3202 0.55515 0.42885 0.0
C2203 C 0.33874 0.59972 0.45868 0.0
C2204 C 0.31463 0.54322 0.45303 0.0
C2205 C 0.29235 0.52446 0.45743 0.0
C2206 C 0.27518 0.51724 0.43774 0.0
C2207 C 0.28083 0.5292 0.41346 0.0
C2208 C 0.30324 0.54791 0.40899 0.0
H2209 H 0.34671 0.61854 0.46335 0.0
H2210 H 0.32101 0.59335 0.4506 0.0
H2211 H 0.33706 0.59029 0.47741 0.0
H2212 H 0.3276 0.54837 0.46847 0.0
H2213 H 0.2885 0.51582 0.47643 0.0
loop_
_geom_bond_atom_site_label_1
_geom_bond_atom_site_label_2
_geom_bond_distance
_geom_bond_site_symmetry_2
_ccdc_geom_bond_type
Co0 N4 2.148 1_455 S
Co0 N10 2.128 . S
Co0 N20 2.194 . S
Co0 O25 2.351 . S
Co0 O26 2.155 . S
Co0 O27 2.094 1_455 S
C1 N4 1.301 . S
C1 N5 1.328 . S
C1 H6 0.930 1_655 S
C2 C3 1.333 . S
C2 N4 1.317 . S
C2 H7 0.930 . S
C3 C2 1.333 . S
C3 N5 1.350 . S
C3 H29 0.931 . S
N4 Co0 2.148 1_655 S
N4 C1 1.301 . S
N4 C2 1.317 . S
N5 C1 1.328 . S
N5 C3 1.350 . S
H6 C1 0.930 1_455 S
H7 C2 0.930 . S
C8 O9 1.224 . S
C8 O27 1.248 . S
O9 C8 1.224 . S
N10 Co0 2.128 . S
N10 C11 1.355 . S
N10 C13 1.311 . S
C11 N10 1.355 . S
C11 C12 1.363 . S
C11 H23 0.929 . S
C12 C11 1.363 . S
C12 N14 1.375 . S
C12 H30 0.931 . S
C13 N10 1.311 . S
C13 N14 1.347 . S
C13 H24 0.929 . S
N14 C12 1.375 . S
N14 C13 1.347 . S
C15 C18 1.365 . S
C15 N20 1.328 . S
C15 H21 0.929 . S
C16 C17 1.362 . S
C16 C19 1.378 . S
C16 H31 0.929 . S
C17 C16 1.362 . S
C17 C18 1.366 . S
C18 C15 1.365 . S
C18 C17 1.366 . S
C18 H32 0.930 . S
C19 C16 1.378 . S
C19 N20 1.315 . S
C19 H22 0.930 . S
N20 Co0 2.194 . S
N20 C15 1.328 . S
N20 C19 1.315 . S
H21 C15 0.929 . S
H22 C19 0.930 . S
H23 C11 0.929 . S
H24 C13 0.929 . S
O25 Co0 2.351 . S
O25 C28 1.244 . S
O26 Co0 2.155 . S
O26 C28 1.240 . S
O27 Co0 2.094 1_655 S
O27 C8 1.248 . S
C28 O25 1.244 . S
C28 O26 1.240 . S
H29 C3 0.931 . S
H30 C12 0.931 . S
H31 C16 0.929 . S
H32 C18 0.930 . S
Co33 N37 2.148 . S
Co33 N43 2.128 . S
Co33 N53 2.194 . S
Co33 O58 2.351 . S
Co33 O59 2.155 . S
Co33 O60 2.096 . S
C34 N37 1.301 . S
C34 N38 1.328 . S
C34 H39 0.930 . S
C35 C36 1.333 . S
C35 N37 1.317 . S
C35 H40 0.930 . S
C36 C35 1.333 . S
C36 N38 1.350 . S
C36 H62 0.931 . S
N37 Co33 2.148 . S
N37 C34 1.301 . S
N37 C35 1.317 . S
N38 C34 1.328 . S
N38 C36 1.350 . S
H39 C34 0.930 . S
H40 C35 0.930 . S
C41 O42 1.224 . S
C41 O60 1.247 . S
O42 C41 1.224 . S
N43 Co33 2.128 . S
N43 C44 1.355 . S
N43 C46 1.311 . S
C44 N43 1.355 . S
C44 C45 1.363 . S
C44 H56 0.929 . S
C45 C44 1.363 . S
C45 N47 1.375 . S
C45 H63 0.931 . S
C46 N43 1.311 . S
C46 N47 1.347 . S
C46 H57 0.929 . S
N47 C45 1.375 . S
N47 C46 1.347 . S
C48 C51 1.365 . S
C48 N53 1.328 . S
C48 H54 0.929 . S
C49 C50 1.362 . S
C49 C52 1.378 . S
C49 H64 0.929 . S
C50 C49 1.362 . S
C50 C51 1.366 . S
C51 C48 1.365 . S
C51 C50 1.366 . S
C51 H65 0.930 . S
C52 C49 1.378 . S
C52 N53 1.315 . S
C52 H55 0.930 . S
N53 Co33 2.194 . S
N53 C48 1.328 . S
N53 C52 1.315 . S
H54 C48 0.929 . S
H55 C52 0.930 . S
H56 C44 0.929 . S
H57 C46 0.929 . S
O58 Co33 2.351 . S
O58 C61 1.244 . S
O59 Co33 2.155 . S
O59 C61 1.240 . S
O60 Co33 2.096 . S
O60 C41 1.247 . S
C61 O58 1.244 . S
C61 O59 1.240 . S
H62 C36 0.931 . S
H63 C45 0.931 . S
H64 C49 0.929 . S
H65 C51 0.930 . S
Co66 N70 2.148 1_565 S
Co66 N76 2.128 . S
Co66 N86 2.194 . S
Co66 O91 2.351 . S
Co66 O92 2.155 . S
Co66 O93 2.096 1_565 S
C67 N70 1.301 . S
C67 N71 1.328 . S
C67 H72 0.930 1_545 S
C68 C69 1.333 . S
C68 N70 1.317 . S
C68 H73 0.930 . S
C69 C68 1.333 . S
C69 N71 1.350 . S
C69 H95 0.931 . S
N70 Co66 2.148 1_545 S
N70 C67 1.301 . S
N70 C68 1.317 . S
N71 C67 1.328 . S
N71 C69 1.350 . S
H72 C67 0.930 1_565 S
H73 C68 0.930 . S
C74 O75 1.224 . S
C74 O93 1.247 . S
O75 C74 1.224 . S
N76 Co66 2.128 . S
N76 C77 1.355 . S
N76 C79 1.311 . S
C77 N76 1.355 . S
C77 C78 1.363 . S
C77 H89 0.929 . S
C78 C77 1.363 . S
C78 N80 1.375 . S
C78 H96 0.931 . S
C79 N76 1.311 . S
C79 N80 1.347 . S
C79 H90 0.929 . S
N80 C78 1.375 . S
N80 C79 1.347 . S
C81 C84 1.365 . S
C81 N86 1.328 . S
C81 H87 0.929 . S
C82 C83 1.362 . S
C82 C85 1.378 . S
C82 H97 0.929 . S
C83 C82 1.362 . S
C83 C84 1.366 . S
C84 C81 1.365 . S
C84 C83 1.366 . S
C84 H98 0.930 . S
C85 C82 1.378 . S
C85 N86 1.315 . S
C85 H88 0.930 . S
N86 Co66 2.194 . S
N86 C81 1.328 . S
N86 C85 1.315 . S
H87 C81 0.929 . S
H88 C85 0.930 . S
H89 C77 0.929 . S
H90 C79 0.929 . S
O91 Co66 2.351 . S
O91 C94 1.244 . S
O92 Co66 2.155 . S
O92 C94 1.240 . S
O93 Co66 2.096 1_545 S
O93 C74 1.247 . S
C94 O91 1.244 . S
C94 O92 1.240 . S
H95 C69 0.931 . S
H96 C78 0.931 . S
H97 C82 0.929 . S
H98 C84 0.930 . S
Co99 N103 2.148 1_545 S
Co99 N109 2.128 . S
Co99 N119 2.194 . S
Co99 O124 2.351 . S
Co99 O125 2.155 . S
Co99 O126 2.094 1_545 S
C100 N103 1.301 . S
C100 N104 1.328 . S
C100 H105 0.930 1_565 S
C101 C102 1.333 . S
C101 N103 1.317 . S
C101 H106 0.930 . S
C102 C101 1.333 . S
C102 N104 1.350 . S
C102 H128 0.931 . S
N103 Co99 2.148 1_565 S
N103 C100 1.301 . S
N103 C101 1.317 . S
N104 C100 1.328 . S
N104 C102 1.350 . S
H105 C100 0.930 1_545 S
H106 C101 0.930 . S
C107 O108 1.224 . S
C107 O126 1.248 . S
O108 C107 1.224 . S
N109 Co99 2.128 . S
N109 C110 1.355 . S
N109 C112 1.311 . S
C110 N109 1.355 . S
C110 C111 1.363 . S
C110 H122 0.929 . S
C111 C110 1.363 . S
C111 N113 1.375 . S
C111 H129 0.931 . S
C112 N109 1.311 . S
C112 N113 1.347 . S
C112 H123 0.929 . S
N113 C111 1.375 . S
N113 C112 1.347 . S
C114 C117 1.365 . S
C114 N119 1.328 . S
C114 H120 0.929 . S
C115 C116 1.362 . S
C115 C118 1.378 . S
C115 H130 0.929 . S
C116 C115 1.362 . S
C116 C117 1.366 . S
C117 C114 1.365 . S
C117 C116 1.366 . S
C117 H131 0.930 . S
C118 C115 1.378 . S
C118 N119 1.315 . S
C118 H121 0.930 . S
N119 Co99 2.194 . S
N119 C114 1.328 . S
N119 C118 1.315 . S
H120 C114 0.929 . S
H121 C118 0.930 . S
H122 C110 0.929 . S
H123 C112 0.929 . S
O124 Co99 2.351 . S
O124 C127 1.244 . S
O125 Co99 2.155 . S
O125 C127 1.240 . S
O126 Co99 2.094 1_565 S
O126 C107 1.248 . S
C127 O124 1.244 . S
C127 O125 1.240 . S
H128 C102 0.931 . S
H129 C111 0.931 . S
H130 C115 0.929 . S
H131 C117 0.930 . S
Co132 N136 2.148 1_655 S
Co132 N142 2.128 . S
Co132 N152 2.194 . S
Co132 O157 2.351 . S
Co132 O158 2.155 . S
Co132 O159 2.096 1_655 S
C133 N136 1.301 . S
C133 N137 1.328 . S
C133 H138 0.930 1_455 S
C134 C135 1.333 . S
C134 N136 1.317 . S
C134 H139 0.930 . S
C135 C134 1.333 . S
C135 N137 1.350 . S
C135 H161 0.931 . S
N136 Co132 2.148 1_455 S
N136 C133 1.301 . S
N136 C134 1.317 . S
N137 C133 1.328 . S
N137 C135 1.350 . S
H138 C133 0.930 1_655 S
H139 C134 0.930 . S
C140 O141 1.224 . S
C140 O159 1.247 . S
O141 C140 1.224 . S
N142 Co132 2.128 . S
N142 C143 1.355 . S
N142 C145 1.311 . S
C143 N142 1.355 . S
C143 C144 1.363 . S
C143 H155 0.929 . S
C144 C143 1.363 . S
C144 N146 1.375 . S
C144 H162 0.931 . S
C145 N142 1.311 . S
C145 N146 1.347 . S
C145 H156 0.929 . S
N146 C144 1.375 . S
N146 C145 1.347 . S
C147 C150 1.365 . S
C147 N152 1.328 . S
C147 H153 0.929 . S
C148 C149 1.362 . S
C148 C151 1.378 . S
C148 H163 0.929 . S
C149 C148 1.362 . S
C149 C150 1.366 . S
C150 C147 1.365 . S
C150 C149 1.366 . S
C150 H164 0.930 . S
C151 C148 1.378 . S
C151 N152 1.315 . S
C151 H154 0.930 . S
N152 Co132 2.194 . S
N152 C147 1.328 . S
N152 C151 1.315 . S
H153 C147 0.929 . S
H154 C151 0.930 . S
H155 C143 0.929 . S
H156 C145 0.929 . S
O157 Co132 2.351 . S
O157 C160 1.244 . S
O158 Co132 2.155 . S
O158 C160 1.240 . S
O159 Co132 2.096 1_455 S
O159 C140 1.247 . S
C160 O157 1.244 . S
C160 O158 1.240 . S
H161 C135 0.931 . S
H162 C144 0.931 . S
H163 C148 0.929 . S
H164 C150 0.930 . S
Co165 N169 2.148 . S
Co165 N175 2.128 . S
Co165 N185 2.194 . S
Co165 O190 2.351 . S
Co165 O191 2.155 . S
Co165 O192 2.096 . S
C166 N169 1.301 . S
C166 N170 1.328 . S
C166 H171 0.930 . S
C167 C168 1.333 . S
C167 N169 1.317 . S
C167 H172 0.930 . S
C168 C167 1.333 . S
C168 N170 1.350 . S
C168 H194 0.931 . S
N169 Co165 2.148 . S
N169 C166 1.301 . S
N169 C167 1.317 . S
N170 C166 1.328 . S
N170 C168 1.350 . S
H171 C166 0.930 . S
H172 C167 0.930 . S
C173 O174 1.224 . S
C173 O192 1.247 . S
O174 C173 1.224 . S
N175 Co165 2.128 . S
N175 C176 1.355 . S
N175 C178 1.311 . S
C176 N175 1.355 . S
C176 C177 1.363 . S
C176 H188 0.929 . S
C177 C176 1.363 . S
C177 N179 1.375 . S
C177 H195 0.931 . S
C178 N175 1.311 . S
C178 N179 1.347 . S
C178 H189 0.929 . S
N179 C177 1.375 . S
N179 C178 1.347 . S
C180 C183 1.365 . S
C180 N185 1.328 . S
C180 H186 0.929 . S
C181 C182 1.362 . S
C181 C184 1.378 . S
C181 H196 0.929 . S
C182 C181 1.362 . S
C182 C183 1.366 . S
C183 C180 1.365 . S
C183 C182 1.366 . S
C183 H197 0.930 . S
C184 C181 1.378 . S
C184 N185 1.315 . S
C184 H187 0.930 . S
N185 Co165 2.194 . S
N185 C180 1.328 . S
N185 C184 1.315 . S
H186 C180 0.929 . S
H187 C184 0.930 . S
H188 C176 0.929 . S
H189 C178 0.929 . S
O190 Co165 2.351 . S
O190 C193 1.244 . S
O191 Co165 2.155 . S
O191 C193 1.240 . S
O192 Co165 2.096 . S
O192 C173 1.247 . S
C193 O190 1.244 . S
C193 O191 1.240 . S
H194 C168 0.931 . S
H195 C177 0.931 . S
H196 C181 0.929 . S
H197 C183 0.930 . S
Co198 N202 2.148 . S
Co198 N208 2.128 . S
Co198 N218 2.194 . S
Co198 O223 2.351 . S
Co198 O224 2.155 . S
Co198 O225 2.096 . S
C199 N202 1.301 . S
C199 N203 1.328 . S
C199 H204 0.930 . S
C200 C201 1.333 . S
C200 N202 1.317 . S
C200 H205 0.930 . S
C201 C200 1.333 . S
C201 N203 1.350 . S
C201 H227 0.931 . S
N202 Co198 2.148 . S
N202 C199 1.301 . S
N202 C200 1.317 . S
N203 C199 1.328 . S
N203 C201 1.350 . S
H204 C199 0.930 . S
H205 C200 0.930 . S
C206 O207 1.224 . S
C206 O225 1.247 . S
O207 C206 1.224 . S
N208 Co198 2.128 . S
N208 C209 1.355 . S
N208 C211 1.311 . S
C209 N208 1.355 . S
C209 C210 1.363 . S
C209 H221 0.929 . S
C210 C209 1.363 . S
C210 N212 1.375 . S
C210 H228 0.931 . S
C211 N208 1.311 . S
C211 N212 1.347 . S
C211 H222 0.929 . S
N212 C210 1.375 . S
N212 C211 1.347 . S
C213 C216 1.365 . S
C213 N218 1.328 . S
C213 H219 0.929 . S
C214 C215 1.362 . S
C214 C217 1.378 . S
C214 H229 0.929 . S
C215 C214 1.362 . S
C215 C216 1.366 . S
C216 C213 1.365 . S
C216 C215 1.366 . S
C216 H230 0.930 . S
C217 C214 1.378 . S
C217 N218 1.315 . S
C217 H220 0.930 . S
N218 Co198 2.194 . S
N218 C213 1.328 . S
N218 C217 1.315 . S
H219 C213 0.929 . S
H220 C217 0.930 . S
H221 C209 0.929 . S
H222 C211 0.929 . S
O223 Co198 2.351 . S
O223 C226 1.244 . S
O224 Co198 2.155 . S
O224 C226 1.240 . S
O225 Co198 2.096 . S
O225 C206 1.247 . S
C226 O223 1.244 . S
C226 O224 1.240 . S
H227 C201 0.931 . S
H228 C210 0.931 . S
H229 C214 0.929 . S
H230 C216 0.930 . S
Co231 N235 2.148 . S
Co231 N241 2.128 . S
Co231 N251 2.194 . S
Co231 O256 2.351 . S
Co231 O257 2.155 . S
Co231 O258 2.096 . S
C232 N235 1.301 . S
C232 N236 1.328 . S
C232 H237 0.930 . S
C233 C234 1.333 . S
C233 N235 1.317 . S
C233 H238 0.930 . S
C234 C233 1.333 . S
C234 N236 1.350 . S
C234 H260 0.931 . S
N235 Co231 2.148 . S
N235 C232 1.301 . S
N235 C233 1.317 . S
N236 C232 1.328 . S
N236 C234 1.350 . S
H237 C232 0.930 . S
H238 C233 0.930 . S
C239 O240 1.224 . S
C239 O258 1.247 . S
O240 C239 1.224 . S
N241 Co231 2.128 . S
N241 C242 1.355 . S
N241 C244 1.311 . S
C242 N241 1.355 . S
C242 C243 1.363 . S
C242 H254 0.929 . S
C243 C242 1.363 . S
C243 N245 1.375 . S
C243 H261 0.931 . S
C244 N241 1.311 . S
C244 N245 1.347 . S
C244 H255 0.929 . S
N245 C243 1.375 . S
N245 C244 1.347 . S
C246 C249 1.365 . S
C246 N251 1.328 . S
C246 H252 0.929 . S
C247 C248 1.362 . S
C247 C250 1.378 . S
C247 H262 0.929 . S
C248 C247 1.362 . S
C248 C249 1.366 . S
C249 C246 1.365 . S
C249 C248 1.366 . S
C249 H263 0.930 . S
C250 C247 1.378 . S
C250 N251 1.315 . S
C250 H253 0.930 . S
N251 Co231 2.194 . S
N251 C246 1.328 . S
N251 C250 1.315 . S
H252 C246 0.929 . S
H253 C250 0.930 . S
H254 C242 0.929 . S
H255 C244 0.929 . S
O256 Co231 2.351 . S
O256 C259 1.244 . S
O257 Co231 2.155 . S
O257 C259 1.240 . S
O258 Co231 2.096 . S
O258 C239 1.247 . S
C259 O256 1.244 . S
C259 O257 1.240 . S
H260 C234 0.931 . S
H261 C243 0.931 . S
H262 C247 0.929 . S
H263 C249 0.930 . S
Co264 N268 2.148 . S
Co264 N274 2.128 . S
Co264 N284 2.194 . S
Co264 O289 2.351 . S
Co264 O290 2.155 . S
Co264 O291 2.096 . S
C265 N268 1.301 . S
C265 N269 1.328 . S
C265 H270 0.930 . S
C266 C267 1.333 . S
C266 N268 1.317 . S
C266 H271 0.930 . S
C267 C266 1.333 . S
C267 N269 1.350 . S
C267 H293 0.931 . S
N268 Co264 2.148 . S
N268 C265 1.301 . S
N268 C266 1.317 . S
N269 C265 1.328 . S
N269 C267 1.350 . S
H270 C265 0.930 . S
H271 C266 0.930 . S
C272 O273 1.224 . S
C272 O291 1.247 . S
O273 C272 1.224 . S
N274 Co264 2.128 . S
N274 C275 1.355 . S
N274 C277 1.311 . S
C275 N274 1.355 . S
C275 C276 1.363 . S
C275 H287 0.929 . S
C276 C275 1.363 . S
C276 N278 1.375 . S
C276 H294 0.931 . S
C277 N274 1.311 . S
C277 N278 1.347 . S
C277 H288 0.929 . S
N278 C276 1.375 . S
N278 C277 1.347 . S
C279 C282 1.365 . S
C279 N284 1.328 . S
C279 H285 0.929 . S
C280 C281 1.362 . S
C280 C283 1.378 . S
C280 H295 0.929 . S
C281 C280 1.362 . S
C281 C282 1.366 . S
C282 C279 1.365 . S
C282 C281 1.366 . S
C282 H296 0.930 . S
C283 C280 1.378 . S
C283 N284 1.315 . S
C283 H286 0.930 . S
N284 Co264 2.194 . S
N284 C279 1.328 . S
N284 C283 1.315 . S
H285 C279 0.929 . S
H286 C283 0.930 . S
H287 C275 0.929 . S
H288 C277 0.929 . S
O289 Co264 2.351 . S
O289 C292 1.244 . S
O290 Co264 2.155 . S
O290 C292 1.240 . S
O291 Co264 2.096 . S
O291 C272 1.247 . S
C292 O289 1.244 . S
C292 O290 1.240 . S
H293 C267 0.931 . S
H294 C276 0.931 . S
H295 C280 0.929 . S
H296 C282 0.930 . S
Co297 N301 2.148 . S
Co297 N307 2.128 . S
Co297 N317 2.194 . S
Co297 O322 2.351 . S
Co297 O323 2.155 . S
Co297 O324 2.096 . S
C298 N301 1.301 . S
C298 N302 1.328 . S
C298 H303 0.930 . S
C299 C300 1.333 . S
C299 N301 1.317 . S
C299 H304 0.930 . S
C300 C299 1.333 . S
C300 N302 1.350 . S
C300 H326 0.931 . S
N301 Co297 2.148 . S
N301 C298 1.301 . S
N301 C299 1.317 . S
N302 C298 1.328 . S
N302 C300 1.350 . S
H303 C298 0.930 . S
H304 C299 0.930 . S
C305 O306 1.224 . S
C305 O324 1.247 . S
O306 C305 1.224 . S
N307 Co297 2.128 . S
N307 C308 1.355 . S
N307 C310 1.311 . S
C308 N307 1.355 . S
C308 C309 1.363 . S
C308 H320 0.929 . S
C309 C308 1.363 . S
C309 N311 1.375 . S
C309 H327 0.931 . S
C310 N307 1.311 . S
C310 N311 1.347 . S
C310 H321 0.929 . S
N311 C309 1.375 . S
N311 C310 1.347 . S
C312 C315 1.365 . S
C312 N317 1.328 . S
C312 H318 0.929 . S
C313 C314 1.362 . S
C313 C316 1.378 . S
C313 H328 0.929 . S
C314 C313 1.362 . S
C314 C315 1.366 . S
C315 C312 1.365 . S
C315 C314 1.366 . S
C315 H329 0.930 . S
C316 C313 1.378 . S
C316 N317 1.315 . S
C316 H319 0.930 . S
N317 Co297 2.194 . S
N317 C312 1.328 . S
N317 C316 1.315 . S
H318 C312 0.929 . S
H319 C316 0.930 . S
H320 C308 0.929 . S
H321 C310 0.929 . S
O322 Co297 2.351 . S
O322 C325 1.244 . S
O323 Co297 2.155 . S
O323 C325 1.240 . S
O324 Co297 2.096 . S
O324 C305 1.247 . S
C325 O322 1.244 . S
C325 O323 1.240 . S
H326 C300 0.931 . S
H327 C309 0.931 . S
H328 C313 0.929 . S
H329 C315 0.930 . S
Co330 N334 2.148 . S
Co330 N340 2.128 . S
Co330 N350 2.194 . S
Co330 O355 2.351 . S
Co330 O356 2.155 . S
Co330 O357 2.096 . S
C331 N334 1.301 . S
C331 N335 1.328 . S
C331 H336 0.930 . S
C332 C333 1.333 . S
C332 N334 1.317 . S
C332 H337 0.930 . S
C333 C332 1.333 . S
C333 N335 1.350 . S
C333 H359 0.931 . S
N334 Co330 2.148 . S
N334 C331 1.301 . S
N334 C332 1.317 . S
N335 C331 1.328 . S
N335 C333 1.350 . S
H336 C331 0.930 . S
H337 C332 0.930 . S
C338 O339 1.224 . S
C338 O357 1.247 . S
O339 C338 1.224 . S
N340 Co330 2.128 . S
N340 C341 1.355 . S
N340 C343 1.311 . S
C341 N340 1.355 . S
C341 C342 1.363 . S
C341 H353 0.929 . S
C342 C341 1.363 . S
C342 N344 1.375 . S
C342 H360 0.931 . S
C343 N340 1.311 . S
C343 N344 1.347 . S
C343 H354 0.929 . S
N344 C342 1.375 . S
N344 C343 1.347 . S
C345 C348 1.365 . S
C345 N350 1.328 . S
C345 H351 0.929 . S
C346 C347 1.362 . S
C346 C349 1.378 . S
C346 H361 0.929 . S
C347 C346 1.362 . S
C347 C348 1.366 . S
C348 C345 1.365 . S
C348 C347 1.366 . S
C348 H362 0.930 . S
C349 C346 1.378 . S
C349 N350 1.315 . S
C349 H352 0.930 . S
N350 Co330 2.194 . S
N350 C345 1.328 . S
N350 C349 1.315 . S
H351 C345 0.929 . S
H352 C349 0.930 . S
H353 C341 0.929 . S
H354 C343 0.929 . S
O355 Co330 2.351 . S
O355 C358 1.244 . S
O356 Co330 2.155 . S
O356 C358 1.240 . S
O357 Co330 2.096 . S
O357 C338 1.247 . S
C358 O355 1.244 . S
C358 O356 1.240 . S
H359 C333 0.931 . S
H360 C342 0.931 . S
H361 C346 0.929 . S
H362 C348 0.930 . S
Co363 N367 2.148 . S
Co363 N373 2.128 . S
Co363 N383 2.194 . S
Co363 O388 2.351 . S
Co363 O389 2.155 . S
Co363 O390 2.096 . S
C364 N367 1.301 . S
C364 N368 1.328 . S
C364 H369 0.930 . S
C365 C366 1.333 . S
C365 N367 1.317 . S
C365 H370 0.930 . S
C366 C365 1.333 . S
C366 N368 1.350 . S
C366 H392 0.931 . S
N367 Co363 2.148 . S
N367 C364 1.301 . S
N367 C365 1.317 . S
N368 C364 1.328 . S
N368 C366 1.350 . S
H369 C364 0.930 . S
H370 C365 0.930 . S
C371 O372 1.224 . S
C371 O390 1.247 . S
O372 C371 1.224 . S
N373 Co363 2.128 . S
N373 C374 1.355 . S
N373 C376 1.311 . S
C374 N373 1.355 . S
C374 C375 1.363 . S
C374 H386 0.929 . S
C375 C374 1.363 . S
C375 N377 1.375 . S
C375 H393 0.931 . S
C376 N373 1.311 . S
C376 N377 1.347 . S
C376 H387 0.929 . S
N377 C375 1.375 . S
N377 C376 1.347 . S
C378 C381 1.365 . S
C378 N383 1.328 . S
C378 H384 0.929 . S
C379 C380 1.362 . S
C379 C382 1.378 . S
C379 H394 0.929 . S
C380 C379 1.362 . S
C380 C381 1.366 . S
C381 C378 1.365 . S
C381 C380 1.366 . S
C381 H395 0.930 . S
C382 C379 1.378 . S
C382 N383 1.315 . S
C382 H385 0.930 . S
N383 Co363 2.194 . S
N383 C378 1.328 . S
N383 C382 1.315 . S
H384 C378 0.929 . S
H385 C382 0.930 . S
H386 C374 0.929 . S
H387 C376 0.929 . S
O388 Co363 2.351 . S
O388 C391 1.244 . S
O389 Co363 2.155 . S
O389 C391 1.240 . S
O390 Co363 2.096 . S
O390 C371 1.247 . S
C391 O388 1.244 . S
C391 O389 1.240 . S
H392 C366 0.931 . S
H393 C375 0.931 . S
H394 C379 0.929 . S
H395 C381 0.930 . S
Co396 N400 2.148 . S
Co396 N406 2.128 . S
Co396 N416 2.194 . S
Co396 O421 2.351 . S
Co396 O422 2.155 . S
Co396 O423 2.096 . S
C397 N400 1.301 . S
C397 N401 1.328 . S
C397 H402 0.930 . S
C398 C399 1.333 . S
C398 N400 1.317 . S
C398 H403 0.930 . S
C399 C398 1.333 . S
C399 N401 1.350 . S
C399 H425 0.931 . S
N400 Co396 2.148 . S
N400 C397 1.301 . S
N400 C398 1.317 . S
N401 C397 1.328 . S
N401 C399 1.350 . S
H402 C397 0.930 . S
H403 C398 0.930 . S
C404 O405 1.224 . S
C404 O423 1.247 . S
O405 C404 1.224 . S
N406 Co396 2.128 . S
N406 C407 1.355 . S
N406 C409 1.311 . S
C407 N406 1.355 . S
C407 C408 1.363 . S
C407 H419 0.929 . S
C408 C407 1.363 . S
C408 N410 1.375 . S
C408 H426 0.931 . S
C409 N406 1.311 . S
C409 N410 1.347 . S
C409 H420 0.929 . S
N410 C408 1.375 . S
N410 C409 1.347 . S
C411 C414 1.365 . S
C411 N416 1.328 . S
C411 H417 0.929 . S
C412 C413 1.362 . S
C412 C415 1.378 . S
C412 H427 0.929 . S
C413 C412 1.362 . S
C413 C414 1.366 . S
C414 C411 1.365 . S
C414 C413 1.366 . S
C414 H428 0.930 . S
C415 C412 1.378 . S
C415 N416 1.315 . S
C415 H418 0.930 . S
N416 Co396 2.194 . S
N416 C411 1.328 . S
N416 C415 1.315 . S
H417 C411 0.929 . S
H418 C415 0.930 . S
H419 C407 0.929 . S
H420 C409 0.929 . S
O421 Co396 2.351 . S
O421 C424 1.244 . S
O422 Co396 2.155 . S
O422 C424 1.240 . S
O423 Co396 2.096 . S
O423 C404 1.247 . S
C424 O421 1.244 . S
C424 O422 1.240 . S
H425 C399 0.931 . S
H426 C408 0.931 . S
H427 C412 0.929 . S
H428 C414 0.930 . S
Co429 N433 2.148 . S
Co429 N439 2.128 . S
Co429 N449 2.194 . S
Co429 O454 2.351 . S
Co429 O455 2.155 . S
Co429 O456 2.096 . S
C430 N433 1.301 . S
C430 N434 1.328 . S
C430 H435 0.930 . S
C431 C432 1.333 . S
C431 N433 1.317 . S
C431 H436 0.930 . S
C432 C431 1.333 . S
C432 N434 1.350 . S
C432 H458 0.931 . S
N433 Co429 2.148 . S
N433 C430 1.301 . S
N433 C431 1.317 . S
N434 C430 1.328 . S
N434 C432 1.350 . S
H435 C430 0.930 . S
H436 C431 0.930 . S
C437 O438 1.224 . S
C437 O456 1.247 . S
O438 C437 1.224 . S
N439 Co429 2.128 . S
N439 C440 1.355 . S
N439 C442 1.311 . S
C440 N439 1.355 . S
C440 C441 1.363 . S
C440 H452 0.929 . S
C441 C440 1.363 . S
C441 N443 1.375 . S
C441 H459 0.931 . S
C442 N439 1.311 . S
C442 N443 1.347 . S
C442 H453 0.929 . S
N443 C441 1.375 . S
N443 C442 1.347 . S
C444 C447 1.365 . S
C444 N449 1.328 . S
C444 H450 0.929 . S
C445 C446 1.362 . S
C445 C448 1.378 . S
C445 H460 0.929 . S
C446 C445 1.362 . S
C446 C447 1.366 . S
C447 C444 1.365 . S
C447 C446 1.366 . S
C447 H461 0.930 . S
C448 C445 1.378 . S
C448 N449 1.315 . S
C448 H451 0.930 . S
N449 Co429 2.194 . S
N449 C444 1.328 . S
N449 C448 1.315 . S
H450 C444 0.929 . S
H451 C448 0.930 . S
H452 C440 0.929 . S
H453 C442 0.929 . S
O454 Co429 2.351 . S
O454 C457 1.244 . S
O455 Co429 2.155 . S
O455 C457 1.240 . S
O456 Co429 2.096 . S
O456 C437 1.247 . S
C457 O454 1.244 . S
C457 O455 1.240 . S
H458 C432 0.931 . S
H459 C441 0.931 . S
H460 C445 0.929 . S
H461 C447 0.930 . S
Co462 N466 2.148 . S
Co462 N472 2.128 . S
Co462 N482 2.194 . S
Co462 O487 2.351 . S
Co462 O488 2.155 . S
Co462 O489 2.096 . S
C463 N466 1.301 . S
C463 N467 1.328 . S
C463 H468 0.930 . S
C464 C465 1.333 . S
C464 N466 1.317 . S
C464 H469 0.930 . S
C465 C464 1.333 . S
C465 N467 1.350 . S
C465 H491 0.931 . S
N466 Co462 2.148 . S
N466 C463 1.301 . S
N466 C464 1.317 . S
N467 C463 1.328 . S
N467 C465 1.350 . S
H468 C463 0.930 . S
H469 C464 0.930 . S
C470 O471 1.224 . S
C470 O489 1.247 . S
O471 C470 1.224 . S
N472 Co462 2.128 . S
N472 C473 1.355 . S
N472 C475 1.311 . S
C473 N472 1.355 . S
C473 C474 1.363 . S
C473 H485 0.929 . S
C474 C473 1.363 . S
C474 N476 1.375 . S
C474 H492 0.931 . S
C475 N472 1.311 . S
C475 N476 1.347 . S
C475 H486 0.929 . S
N476 C474 1.375 . S
N476 C475 1.347 . S
C477 C480 1.365 . S
C477 N482 1.328 . S
C477 H483 0.929 . S
C478 C479 1.362 . S
C478 C481 1.378 . S
C478 H493 0.929 . S
C479 C478 1.362 . S
C479 C480 1.366 . S
C480 C477 1.365 . S
C480 C479 1.366 . S
C480 H494 0.930 . S
C481 C478 1.378 . S
C481 N482 1.315 . S
C481 H484 0.930 . S
N482 Co462 2.194 . S
N482 C477 1.328 . S
N482 C481 1.315 . S
H483 C477 0.929 . S
H484 C481 0.930 . S
H485 C473 0.929 . S
H486 C475 0.929 . S
O487 Co462 2.351 . S
O487 C490 1.244 . S
O488 Co462 2.155 . S
O488 C490 1.240 . S
O489 Co462 2.096 . S
O489 C470 1.247 . S
C490 O487 1.244 . S
C490 O488 1.240 . S
H491 C465 0.931 . S
H492 C474 0.931 . S
H493 C478 0.929 . S
H494 C480 0.930 . S
Co495 N499 2.148 . S
Co495 N505 2.128 . S
Co495 N515 2.194 . S
Co495 O520 2.351 . S
Co495 O521 2.155 . S
Co495 O522 2.096 . S
C496 N499 1.301 . S
C496 N500 1.328 . S
C496 H501 0.930 . S
C497 C498 1.333 . S
C497 N499 1.317 . S
C497 H502 0.930 . S
C498 C497 1.333 . S
C498 N500 1.350 . S
C498 H524 0.931 . S
N499 Co495 2.148 . S
N499 C496 1.301 . S
N499 C497 1.317 . S
N500 C496 1.328 . S
N500 C498 1.350 . S
H501 C496 0.930 . S
H502 C497 0.930 . S
C503 O504 1.224 . S
C503 O522 1.247 . S
O504 C503 1.224 . S
N505 Co495 2.128 . S
N505 C506 1.355 . S
N505 C508 1.311 . S
C506 N505 1.355 . S
C506 C507 1.363 . S
C506 H518 0.929 . S
C507 C506 1.363 . S
C507 N509 1.375 . S
C507 H525 0.931 . S
C508 N505 1.311 . S
C508 N509 1.347 . S
C508 H519 0.929 . S
N509 C507 1.375 . S
N509 C508 1.347 . S
C510 C513 1.365 . S
C510 N515 1.328 . S
C510 H516 0.929 . S
C511 C512 1.362 . S
C511 C514 1.378 . S
C511 H526 0.929 . S
C512 C511 1.362 . S
C512 C513 1.366 . S
C513 C510 1.365 . S
C513 C512 1.366 . S
C513 H527 0.930 . S
C514 C511 1.378 . S
C514 N515 1.315 . S
C514 H517 0.930 . S
N515 Co495 2.194 . S
N515 C510 1.328 . S
N515 C514 1.315 . S
H516 C510 0.929 . S
H517 C514 0.930 . S
H518 C506 0.929 . S
H519 C508 0.929 . S
O520 Co495 2.351 . S
O520 C523 1.244 . S
O521 Co495 2.155 . S
O521 C523 1.240 . S
O522 Co495 2.096 . S
O522 C503 1.247 . S
C523 O520 1.244 . S
C523 O521 1.240 . S
H524 C498 0.931 . S
H525 C507 0.931 . S
H526 C511 0.929 . S
H527 C513 0.930 . S
Co528 N532 2.148 . S
Co528 N538 2.128 . S
Co528 N548 2.194 . S
Co528 O553 2.351 . S
Co528 O554 2.155 . S
Co528 O555 2.096 . S
C529 N532 1.301 . S
C529 N533 1.328 . S
C529 H534 0.930 . S
C530 C531 1.333 . S
C530 N532 1.317 . S
C530 H535 0.930 . S
C531 C530 1.333 . S
C531 N533 1.350 . S
C531 H557 0.931 . S
N532 Co528 2.148 . S
N532 C529 1.301 . S
N532 C530 1.317 . S
N533 C529 1.328 . S
N533 C531 1.350 . S
H534 C529 0.930 . S
H535 C530 0.930 . S
C536 O537 1.224 . S
C536 O555 1.247 . S
O537 C536 1.224 . S
N538 Co528 2.128 . S
N538 C539 1.355 . S
N538 C541 1.311 . S
C539 N538 1.355 . S
C539 C540 1.363 . S
C539 H551 0.929 . S
C540 C539 1.363 . S
C540 N542 1.375 . S
C540 H558 0.931 . S
C541 N538 1.311 . S
C541 N542 1.347 . S
C541 H552 0.929 . S
N542 C540 1.375 . S
N542 C541 1.347 . S
C543 C546 1.365 . S
C543 N548 1.328 . S
C543 H549 0.929 . S
C544 C545 1.362 . S
C544 C547 1.378 . S
C544 H559 0.929 . S
C545 C544 1.362 . S
C545 C546 1.366 . S
C546 C543 1.365 . S
C546 C545 1.366 . S
C546 H560 0.930 . S
C547 C544 1.378 . S
C547 N548 1.315 . S
C547 H550 0.930 . S
N548 Co528 2.194 . S
N548 C543 1.328 . S
N548 C547 1.315 . S
H549 C543 0.929 . S
H550 C547 0.930 . S
H551 C539 0.929 . S
H552 C541 0.929 . S
O553 Co528 2.351 . S
O553 C556 1.244 . S
O554 Co528 2.155 . S
O554 C556 1.240 . S
O555 Co528 2.096 . S
O555 C536 1.247 . S
C556 O553 1.244 . S
C556 O554 1.240 . S
H557 C531 0.931 . S
H558 C540 0.931 . S
H559 C544 0.929 . S
H560 C546 0.930 . S
Co561 N565 2.148 . S
Co561 N571 2.128 . S
Co561 N581 2.194 . S
Co561 O586 2.351 . S
Co561 O587 2.155 . S
Co561 O588 2.096 . S
C562 N565 1.301 . S
C562 N566 1.328 . S
C562 H567 0.930 . S
C563 C564 1.333 . S
C563 N565 1.317 . S
C563 H568 0.930 . S
C564 C563 1.333 . S
C564 N566 1.350 . S
C564 H590 0.931 . S
N565 Co561 2.148 . S
N565 C562 1.301 . S
N565 C563 1.317 . S
N566 C562 1.328 . S
N566 C564 1.350 . S
H567 C562 0.930 . S
H568 C563 0.930 . S
C569 O570 1.224 . S
C569 O588 1.247 . S
O570 C569 1.224 . S
N571 Co561 2.128 . S
N571 C572 1.355 . S
N571 C574 1.311 . S
C572 N571 1.355 . S
C572 C573 1.363 . S
C572 H584 0.929 . S
C573 C572 1.363 . S
C573 N575 1.375 . S
C573 H591 0.931 . S
C574 N571 1.311 . S
C574 N575 1.347 . S
C574 H585 0.929 . S
N575 C573 1.375 . S
N575 C574 1.347 . S
C576 C579 1.365 . S
C576 N581 1.328 . S
C576 H582 0.929 . S
C577 C578 1.362 . S
C577 C580 1.378 . S
C577 H592 0.929 . S
C578 C577 1.362 . S
C578 C579 1.366 . S
C579 C576 1.365 . S
C579 C578 1.366 . S
C579 H593 0.930 . S
C580 C577 1.378 . S
C580 N581 1.315 . S
C580 H583 0.930 . S
N581 Co561 2.194 . S
N581 C576 1.328 . S
N581 C580 1.315 . S
H582 C576 0.929 . S
H583 C580 0.930 . S
H584 C572 0.929 . S
H585 C574 0.929 . S
O586 Co561 2.351 . S
O586 C589 1.244 . S
O587 Co561 2.155 . S
O587 C589 1.240 . S
O588 Co561 2.096 . S
O588 C569 1.247 . S
C589 O586 1.244 . S
C589 O587 1.240 . S
H590 C564 0.931 . S
H591 C573 0.931 . S
H592 C577 0.929 . S
H593 C579 0.930 . S
H594 C602 0.929 . S
H595 C604 0.930 . S
H596 C606 0.930 . S
H597 C609 0.929 . S
H598 C612 0.930 . S
H599 C614 0.960 . S
H600 C614 0.960 . S
H601 C614 0.960 . S
C602 H594 0.929 . S
C602 C603 1.377 . S
C602 C604 1.384 . S
C603 C602 1.377 . S
C603 C609 1.390 . S
C604 H595 0.930 . S
C604 C602 1.384 . S
C604 C605 1.372 . S
C605 C604 1.372 . S
C605 C606 1.400 . S
C605 C610 1.490 . S
C606 H596 0.930 . S
C606 C605 1.400 . S
C606 C609 1.386 . S
H607 C623 0.930 . S
H608 C624 0.931 . S
C609 H597 0.929 . S
C609 C603 1.390 . S
C609 C606 1.386 . S
C610 C605 1.490 . S
C610 C612 1.395 . S
C610 C613 1.403 . S
H611 C617 0.930 . S
C612 H598 0.930 . S
C612 C610 1.395 . S
C612 C615 1.403 . S
C613 C610 1.403 . S
C613 C614 1.524 . S
C613 C617 1.400 . S
C614 H599 0.960 . S
C614 H600 0.960 . S
C614 H601 0.960 . S
C614 C613 1.524 . S
C615 C612 1.403 . S
C615 C616 1.392 . S
C615 C619 1.495 . S
C616 C615 1.392 . S
C616 C617 1.385 . S
C616 C618 1.478 . S
C617 H611 0.930 . S
C617 C613 1.400 . S
C617 C616 1.385 . S
C618 C616 1.478 . S
C618 C620 1.381 . S
C618 C624 1.383 . S
C619 C615 1.495 . S
C619 H625 0.959 . S
C619 H626 0.961 . S
C619 H627 0.960 . S
C620 C618 1.381 . S
C620 C621 1.394 . S
C620 H628 0.930 . S
C621 C620 1.394 . S
C621 C622 1.383 . S
C621 H629 0.929 . S
C622 C621 1.383 . S
C622 C623 1.377 . S
C623 H607 0.930 . S
C623 C622 1.377 . S
C623 C624 1.379 . S
C624 H608 0.931 . S
C624 C618 1.383 . S
C624 C623 1.379 . S
H625 C619 0.959 . S
H626 C619 0.961 . S
H627 C619 0.960 . S
H628 C620 0.930 . S
H629 C621 0.929 . S
H630 C638 0.929 . S
H631 C640 0.930 . S
H632 C642 0.930 . S
H633 C645 0.929 . S
H634 C648 0.930 . S
H635 C650 0.960 . S
H636 C650 0.960 . S
H637 C650 0.960 . S
C638 H630 0.929 . S
C638 C639 1.377 . S
C638 C640 1.384 . S
C639 C638 1.377 . S
C639 C645 1.390 . S
C640 H631 0.930 . S
C640 C638 1.384 . S
C640 C641 1.372 . S
C641 C640 1.372 . S
C641 C642 1.400 . S
C641 C646 1.490 . S
C642 H632 0.930 . S
C642 C641 1.400 . S
C642 C645 1.386 . S
H643 C659 0.930 . S
H644 C660 0.931 . S
C645 H633 0.929 . S
C645 C639 1.390 . S
C645 C642 1.386 . S
C646 C641 1.490 . S
C646 C648 1.395 . S
C646 C649 1.403 . S
H647 C653 0.930 . S
C648 H634 0.930 . S
C648 C646 1.395 . S
C648 C651 1.403 . S
C649 C646 1.403 . S
C649 C650 1.524 . S
C649 C653 1.400 . S
C650 H635 0.960 . S
C650 H636 0.960 . S
C650 H637 0.960 . S
C650 C649 1.524 . S
C651 C648 1.403 . S
C651 C652 1.392 . S
C651 C655 1.495 . S
C652 C651 1.392 . S
C652 C653 1.385 . S
C652 C654 1.478 . S
C653 H647 0.930 . S
C653 C649 1.400 . S
C653 C652 1.385 . S
C654 C652 1.478 . S
C654 C656 1.381 . S
C654 C660 1.383 . S
C655 C651 1.495 . S
C655 H661 0.959 . S
C655 H662 0.961 . S
C655 H663 0.960 . S
C656 C654 1.381 . S
C656 C657 1.394 . S
C656 H664 0.930 . S
C657 C656 1.394 . S
C657 C658 1.383 . S
C657 H665 0.929 . S
C658 C657 1.383 . S
C658 C659 1.377 . S
C659 H643 0.930 . S
C659 C658 1.377 . S
C659 C660 1.379 . S
C660 H644 0.931 . S
C660 C654 1.383 . S
C660 C659 1.379 . S
H661 C655 0.959 . S
H662 C655 0.961 . S
H663 C655 0.960 . S
H664 C656 0.930 . S
H665 C657 0.929 . S
H666 C674 0.929 . S
H667 C676 0.930 . S
H668 C678 0.930 . S
H669 C681 0.929 . S
H670 C684 0.930 . S
H671 C686 0.960 . S
H672 C686 0.960 . S
H673 C686 0.960 . S
C674 H666 0.929 . S
C674 C675 1.377 . S
C674 C676 1.384 . S
C675 C674 1.377 . S
C675 C681 1.390 . S
C676 H667 0.930 . S
C676 C674 1.384 . S
C676 C677 1.372 . S
C677 C676 1.372 . S
C677 C678 1.400 . S
C677 C682 1.490 . S
C678 H668 0.930 . S
C678 C677 1.400 . S
C678 C681 1.386 . S
H679 C695 0.937 . S
H680 C696 0.931 . S
C681 H669 0.929 . S
C681 C675 1.390 . S
C681 C678 1.386 . S
C682 C677 1.490 . S
C682 C684 1.395 . S
C682 C685 1.403 . S
H683 C689 0.930 . S
C684 H670 0.930 . S
C684 C682 1.395 . S
C684 C687 1.403 . S
C685 C682 1.403 . S
C685 C686 1.524 . S
C685 C689 1.400 . S
C686 H671 0.960 . S
C686 H672 0.960 . S
C686 H673 0.960 . S
C686 C685 1.524 . S
C687 C684 1.403 . S
C687 C688 1.392 . S
C687 C691 1.495 . S
C688 C687 1.392 . S
C688 C689 1.385 . S
C688 C690 1.478 . S
C689 H683 0.930 . S
C689 C685 1.400 . S
C689 C688 1.385 . S
C690 C688 1.478 . S
C690 C692 1.381 . S
C690 C696 1.383 . S
C691 C687 1.495 . S
C691 H697 0.959 . S
C691 H698 0.961 . S
C691 H699 0.960 . S
C692 C690 1.381 . S
C692 C693 1.394 . S
C692 H700 0.930 . S
C693 C692 1.394 . S
C693 C694 1.383 . S
C693 H701 0.929 . S
C694 C693 1.383 . S
C694 C695 1.377 . S
C695 H679 0.937 . S
C695 C694 1.377 . S
C695 C696 1.379 . S
C696 H680 0.931 . S
C696 C690 1.383 . S
C696 C695 1.379 . S
H697 C691 0.959 . S
H698 C691 0.961 . S
H699 C691 0.960 . S
H700 C692 0.930 . S
H701 C693 0.929 . S
H702 C710 0.929 . S
H703 C712 0.930 . S
H704 C714 0.930 . S
H705 C717 0.929 1_545 S
H706 C720 0.930 . S
H707 C722 0.960 . S
H708 C722 0.960 . S
H709 C722 0.960 . S
C710 H702 0.929 . S
C710 C711 1.377 . S
C710 C712 1.384 . S
C711 C710 1.377 . S
C711 C717 1.390 . S
C712 H703 0.930 . S
C712 C710 1.384 . S
C712 C713 1.372 . S
C713 C712 1.372 . S
C713 C714 1.400 . S
C713 C718 1.490 . S
C714 H704 0.930 . S
C714 C713 1.400 . S
C714 C717 1.386 . S
H715 C731 0.930 . S
H716 C732 0.931 . S
C717 H705 0.929 1_565 S
C717 C711 1.390 . S
C717 C714 1.386 . S
C718 C713 1.490 . S
C718 C720 1.395 . S
C718 C721 1.403 . S
H719 C725 0.930 . S
C720 H706 0.930 . S
C720 C718 1.395 . S
C720 C723 1.403 . S
C721 C718 1.403 . S
C721 C722 1.524 . S
C721 C725 1.400 . S
C722 H707 0.960 . S
C722 H708 0.960 . S
C722 H709 0.960 . S
C722 C721 1.524 . S
C723 C720 1.403 . S
C723 C724 1.392 . S
C723 C727 1.495 . S
C724 C723 1.392 . S
C724 C725 1.385 . S
C724 C726 1.478 . S
C725 H719 0.930 . S
C725 C721 1.400 . S
C725 C724 1.385 . S
C726 C724 1.478 . S
C726 C728 1.381 . S
C726 C732 1.383 . S
C727 C723 1.495 . S
C727 H733 0.959 . S
C727 H734 0.961 . S
C727 H735 0.960 . S
C728 C726 1.381 . S
C728 C729 1.394 . S
C728 H736 0.930 . S
C729 C728 1.394 . S
C729 C730 1.383 . S
C729 H737 0.929 . S
C730 C729 1.383 . S
C730 C731 1.377 . S
C731 H715 0.930 . S
C731 C730 1.377 . S
C731 C732 1.379 . S
C732 H716 0.931 . S
C732 C726 1.383 . S
C732 C731 1.379 . S
H733 C727 0.959 . S
H734 C727 0.961 . S
H735 C727 0.960 . S
H736 C728 0.930 . S
H737 C729 0.929 . S
H738 C746 0.929 . S
H739 C748 0.930 . S
H740 C750 0.930 . S
H741 C753 0.929 . S
H742 C756 0.930 . S
H743 C758 0.960 . S
H744 C758 0.960 . S
H745 C758 0.960 . S
C746 H738 0.929 . S
C746 C747 1.377 . S
C746 C748 1.384 . S
C747 C746 1.377 . S
C747 C753 1.390 . S
C748 H739 0.930 . S
C748 C746 1.384 . S
C748 C749 1.372 . S
C749 C748 1.372 . S
C749 C750 1.400 . S
C749 C754 1.490 . S
C750 H740 0.930 . S
C750 C749 1.400 . S
C750 C753 1.386 . S
H751 C767 0.930 . S
H752 C768 0.931 . S
C753 H741 0.929 . S
C753 C747 1.390 . S
C753 C750 1.386 . S
C754 C749 1.490 . S
C754 C756 1.395 . S
C754 C757 1.403 . S
H755 C761 0.930 . S
C756 H742 0.930 . S
C756 C754 1.395 . S
C756 C759 1.403 . S
C757 C754 1.403 . S
C757 C758 1.524 . S
C757 C761 1.400 . S
C758 H743 0.960 . S
C758 H744 0.960 . S
C758 H745 0.960 . S
C758 C757 1.524 . S
C759 C756 1.403 . S
C759 C760 1.392 . S
C759 C763 1.495 . S
C760 C759 1.392 . S
C760 C761 1.385 . S
C760 C762 1.478 . S
C761 H755 0.930 . S
C761 C757 1.400 . S
C761 C760 1.385 . S
C762 C760 1.478 . S
C762 C764 1.381 . S
C762 C768 1.383 . S
C763 C759 1.495 . S
C763 H769 0.959 . S
C763 H770 0.961 . S
C763 H771 0.960 . S
C764 C762 1.381 . S
C764 C765 1.394 . S
C764 H772 0.930 . S
C765 C764 1.394 . S
C765 C766 1.383 . S
C765 H773 0.929 . S
C766 C765 1.383 . S
C766 C767 1.377 . S
C767 H751 0.930 . S
C767 C766 1.377 . S
C767 C768 1.379 . S
C768 H752 0.931 . S
C768 C762 1.383 . S
C768 C767 1.379 . S
H769 C763 0.959 . S
H770 C763 0.961 . S
H771 C763 0.960 . S
H772 C764 0.930 . S
H773 C765 0.929 . S
H774 C782 0.929 . S
H775 C784 0.930 . S
H776 C786 0.930 . S
H777 C789 0.929 . S
H778 C792 0.930 . S
H779 C794 0.960 . S
H780 C794 0.960 . S
H781 C794 0.960 . S
C782 H774 0.929 . S
C782 C783 1.377 . S
C782 C784 1.384 . S
C783 C782 1.377 . S
C783 C789 1.390 . S
C784 H775 0.930 . S
C784 C782 1.384 . S
C784 C785 1.372 . S
C785 C784 1.372 . S
C785 C786 1.400 . S
C785 C790 1.490 . S
C786 H776 0.930 . S
C786 C785 1.400 . S
C786 C789 1.386 . S
H787 C803 0.930 . S
H788 C804 0.931 . S
C789 H777 0.929 . S
C789 C783 1.390 . S
C789 C786 1.386 . S
C790 C785 1.490 . S
C790 C792 1.395 . S
C790 C793 1.403 . S
H791 C797 0.930 . S
C792 H778 0.930 . S
C792 C790 1.395 . S
C792 C795 1.403 . S
C793 C790 1.403 . S
C793 C794 1.524 . S
C793 C797 1.400 . S
C794 H779 0.960 . S
C794 H780 0.960 . S
C794 H781 0.960 . S
C794 C793 1.524 . S
C795 C792 1.403 . S
C795 C796 1.392 . S
C795 C799 1.495 . S
C796 C795 1.392 . S
C796 C797 1.385 . S
C796 C798 1.478 . S
C797 H791 0.930 . S
C797 C793 1.400 . S
C797 C796 1.385 . S
C798 C796 1.478 . S
C798 C800 1.381 . S
C798 C804 1.383 . S
C799 C795 1.495 . S
C799 H805 0.959 . S
C799 H806 0.961 . S
C799 H807 0.960 . S
C800 C798 1.381 . S
C800 C801 1.394 . S
C800 H808 0.930 . S
C801 C800 1.394 . S
C801 C802 1.383 . S
C801 H809 0.929 . S
C802 C801 1.383 . S
C802 C803 1.377 . S
C803 H787 0.930 . S
C803 C802 1.377 . S
C803 C804 1.379 . S
C804 H788 0.931 . S
C804 C798 1.383 . S
C804 C803 1.379 . S
H805 C799 0.959 . S
H806 C799 0.961 . S
H807 C799 0.960 . S
H808 C800 0.930 . S
H809 C801 0.929 . S
H810 C818 0.929 . S
H811 C820 0.930 . S
H812 C822 0.930 . S
H813 C825 0.929 . S
H814 C828 0.930 . S
H815 C830 0.960 . S
H816 C830 0.960 . S
H817 C830 0.960 . S
C818 H810 0.929 . S
C818 C819 1.377 . S
C818 C820 1.384 . S
C819 C818 1.377 . S
C819 C825 1.390 . S
C820 H811 0.930 . S
C820 C818 1.384 . S
C820 C821 1.372 . S
C821 C820 1.372 . S
C821 C822 1.400 . S
C821 C826 1.490 . S
C822 H812 0.930 . S
C822 C821 1.400 . S
C822 C825 1.386 . S
H823 C839 0.930 . S
H824 C840 0.931 . S
C825 H813 0.929 . S
C825 C819 1.390 . S
C825 C822 1.386 . S
C826 C821 1.490 . S
C826 C828 1.395 . S
C826 C829 1.403 . S
H827 C833 0.930 . S
C828 H814 0.930 . S
C828 C826 1.395 . S
C828 C831 1.403 . S
C829 C826 1.403 . S
C829 C830 1.524 . S
C829 C833 1.400 . S
C830 H815 0.960 . S
C830 H816 0.960 . S
C830 H817 0.960 . S
C830 C829 1.524 . S
C831 C828 1.403 . S
C831 C832 1.392 . S
C831 C835 1.495 . S
C832 C831 1.392 . S
C832 C833 1.385 . S
C832 C834 1.478 . S
C833 H827 0.930 . S
C833 C829 1.400 . S
C833 C832 1.385 . S
C834 C832 1.478 . S
C834 C836 1.381 . S
C834 C840 1.383 . S
C835 C831 1.495 . S
C835 H841 0.959 . S
C835 H842 0.961 . S
C835 H843 0.960 . S
C836 C834 1.381 . S
C836 C837 1.394 . S
C836 H844 0.930 . S
C837 C836 1.394 . S
C837 C838 1.383 . S
C837 H845 0.929 . S
C838 C837 1.383 . S
C838 C839 1.377 . S
C839 H823 0.930 . S
C839 C838 1.377 . S
C839 C840 1.379 . S
C840 H824 0.931 . S
C840 C834 1.383 . S
C840 C839 1.379 . S
H841 C835 0.959 . S
H842 C835 0.961 . S
H843 C835 0.960 . S
H844 C836 0.930 . S
H845 C837 0.929 . S
H846 C854 0.929 . S
H847 C856 0.930 . S
H848 C858 0.930 . S
H849 C861 0.929 . S
H850 C864 0.930 . S
H851 C866 0.960 . S
H852 C866 0.960 . S
H853 C866 0.960 . S
C854 H846 0.929 . S
C854 C855 1.377 . S
C854 C856 1.384 . S
C855 C854 1.377 . S
C855 C861 1.390 . S
C856 H847 0.930 . S
C856 C854 1.384 . S
C856 C857 1.372 . S
C857 C856 1.372 . S
C857 C858 1.400 . S
C857 C862 1.490 . S
C858 H848 0.930 . S
C858 C857 1.400 . S
C858 C861 1.386 . S
H859 C875 0.930 . S
H860 C876 0.931 . S
C861 H849 0.929 . S
C861 C855 1.390 . S
C861 C858 1.386 . S
C862 C857 1.490 . S
C862 C864 1.395 . S
C862 C865 1.403 . S
H863 C869 0.930 . S
C864 H850 0.930 . S
C864 C862 1.395 . S
C864 C867 1.403 1_565 S
C865 C862 1.403 . S
C865 C866 1.524 . S
C865 C869 1.400 1_565 S
C866 H851 0.960 . S
C866 H852 0.960 . S
C866 H853 0.960 . S
C866 C865 1.524 . S
C867 C864 1.403 1_545 S
C867 C868 1.392 . S
C867 C871 1.495 . S
C868 C867 1.392 . S
C868 C869 1.385 . S
C868 C870 1.478 . S
C869 H863 0.930 . S
C869 C865 1.400 1_545 S
C869 C868 1.385 . S
C870 C868 1.478 . S
C870 C872 1.381 . S
C870 C876 1.383 . S
C871 C867 1.495 . S
C871 H877 0.959 . S
C871 H878 0.961 . S
C871 H879 0.960 . S
C872 C870 1.381 . S
C872 C873 1.394 . S
C872 H880 0.930 . S
C873 C872 1.394 . S
C873 C874 1.383 . S
C873 H881 0.929 . S
C874 C873 1.383 . S
C874 C875 1.377 . S
C875 H859 0.930 . S
C875 C874 1.377 . S
C875 C876 1.379 . S
C876 H860 0.931 . S
C876 C870 1.383 . S
C876 C875 1.379 . S
H877 C871 0.959 . S
H878 C871 0.961 . S
H879 C871 0.960 . S
H880 C872 0.930 . S
H881 C873 0.929 . S
H882 C890 0.929 . S
H883 C892 0.930 . S
H884 C894 0.930 . S
H885 C897 0.929 . S
H886 C900 0.930 . S
H887 C902 0.960 1_655 S
H888 C902 0.960 . S
H889 C902 0.960 . S
C890 H882 0.929 . S
C890 C891 1.377 . S
C890 C892 1.384 . S
C891 C890 1.377 . S
C891 C897 1.390 . S
C892 H883 0.930 . S
C892 C890 1.384 . S
C892 C893 1.372 . S
C893 C892 1.372 . S
C893 C894 1.400 . S
C893 C898 1.490 . S
C894 H884 0.930 . S
C894 C893 1.400 . S
C894 C897 1.386 . S
H895 C911 0.930 . S
H896 C912 0.931 . S
C897 H885 0.929 . S
C897 C891 1.390 . S
C897 C894 1.386 . S
C898 C893 1.490 . S
C898 C900 1.395 . S
C898 C901 1.403 . S
H899 C905 0.930 . S
C900 H886 0.930 . S
C900 C898 1.395 . S
C900 C903 1.403 1_455 S
C901 C898 1.403 . S
C901 C902 1.524 . S
C901 C905 1.400 1_455 S
C902 H887 0.960 1_455 S
C902 H888 0.960 . S
C902 H889 0.960 . S
C902 C901 1.524 . S
C903 C900 1.403 1_655 S
C903 C904 1.392 . S
C903 C907 1.495 . S
C904 C903 1.392 . S
C904 C905 1.385 . S
C904 C906 1.478 . S
C905 H899 0.930 . S
C905 C901 1.400 1_655 S
C905 C904 1.385 . S
C906 C904 1.478 . S
C906 C908 1.381 . S
C906 C912 1.383 . S
C907 C903 1.495 . S
C907 H913 0.959 1_655 S
C907 H914 0.961 . S
C907 H915 0.960 . S
C908 C906 1.381 . S
C908 C909 1.394 . S
C908 H916 0.930 . S
C909 C908 1.394 . S
C909 C910 1.383 . S
C909 H917 0.929 . S
C910 C909 1.383 . S
C910 C911 1.377 . S
C911 H895 0.930 . S
C911 C910 1.377 . S
C911 C912 1.379 . S
C912 H896 0.931 . S
C912 C906 1.383 . S
C912 C911 1.379 . S
H913 C907 0.959 1_455 S
H914 C907 0.961 . S
H915 C907 0.960 . S
H916 C908 0.930 . S
H917 C909 0.929 . S
H918 C926 0.929 . S
H919 C928 0.930 . S
H920 C930 0.930 . S
H921 C933 0.929 . S
H922 C936 0.930 . S
H923 C938 0.960 . S
H924 C938 0.960 . S
H925 C938 0.960 . S
C926 H918 0.929 . S
C926 C927 1.377 . S
C926 C928 1.384 . S
C927 C926 1.377 . S
C927 C933 1.390 . S
C928 H919 0.930 . S
C928 C926 1.384 . S
C928 C929 1.372 . S
C929 C928 1.372 . S
C929 C930 1.400 . S
C929 C934 1.490 . S
C930 H920 0.930 . S
C930 C929 1.400 . S
C930 C933 1.386 . S
H931 C947 0.930 . S
H932 C948 0.931 . S
C933 H921 0.929 . S
C933 C927 1.390 . S
C933 C930 1.386 . S
C934 C929 1.490 . S
C934 C936 1.395 . S
C934 C937 1.403 . S
H935 C941 0.930 . S
C936 H922 0.930 . S
C936 C934 1.395 . S
C936 C939 1.403 . S
C937 C934 1.403 . S
C937 C938 1.524 . S
C937 C941 1.400 . S
C938 H923 0.960 . S
C938 H924 0.960 . S
C938 H925 0.960 . S
C938 C937 1.524 . S
C939 C936 1.403 . S
C939 C940 1.392 . S
C939 C943 1.495 . S
C940 C939 1.392 . S
C940 C941 1.385 . S
C940 C942 1.478 . S
C941 H935 0.930 . S
C941 C937 1.400 . S
C941 C940 1.385 . S
C942 C940 1.478 . S
C942 C944 1.381 . S
C942 C948 1.383 . S
C943 C939 1.495 . S
C943 H949 0.959 . S
C943 H950 0.961 . S
C943 H951 0.960 . S
C944 C942 1.381 . S
C944 C945 1.394 . S
C944 H952 0.930 . S
C945 C944 1.394 . S
C945 C946 1.383 . S
C945 H953 0.929 . S
C946 C945 1.383 . S
C946 C947 1.377 . S
C947 H931 0.930 . S
C947 C946 1.377 . S
C947 C948 1.379 . S
C948 H932 0.931 . S
C948 C942 1.383 . S
C948 C947 1.379 . S
H949 C943 0.959 . S
H950 C943 0.961 . S
H951 C943 0.960 . S
H952 C944 0.930 . S
H953 C945 0.929 . S
H954 C962 0.929 . S
H955 C964 0.930 . S
H956 C966 0.930 . S
H957 C969 0.929 . S
H958 C972 0.930 . S
H959 C974 0.960 . S
H960 C974 0.960 . S
H961 C974 0.960 . S
C962 H954 0.929 . S
C962 C963 1.377 . S
C962 C964 1.384 . S
C963 C962 1.377 . S
C963 C969 1.390 . S
C964 H955 0.930 . S
C964 C962 1.384 . S
C964 C965 1.372 . S
C965 C964 1.372 . S
C965 C966 1.400 . S
C965 C970 1.490 . S
C966 H956 0.930 . S
C966 C965 1.400 . S
C966 C969 1.386 . S
H967 C983 0.930 . S
H968 C984 0.931 . S
C969 H957 0.929 . S
C969 C963 1.390 . S
C969 C966 1.386 . S
C970 C965 1.490 . S
C970 C972 1.395 . S
C970 C973 1.403 . S
H971 C977 0.930 . S
C972 H958 0.930 . S
C972 C970 1.395 . S
C972 C975 1.403 . S
C973 C970 1.403 . S
C973 C974 1.524 . S
C973 C977 1.400 . S
C974 H959 0.960 . S
C974 H960 0.960 . S
C974 H961 0.960 . S
C974 C973 1.524 . S
C975 C972 1.403 . S
C975 C976 1.392 . S
C975 C979 1.495 . S
C976 C975 1.392 . S
C976 C977 1.385 . S
C976 C978 1.478 . S
C977 H971 0.930 . S
C977 C973 1.400 . S
C977 C976 1.385 . S
C978 C976 1.478 . S
C978 C980 1.381 . S
C978 C984 1.383 . S
C979 C975 1.495 . S
C979 H985 0.959 . S
C979 H986 0.961 . S
C979 H987 0.960 . S
C980 C978 1.381 . S
C980 C981 1.394 . S
C980 H988 0.930 . S
C981 C980 1.394 . S
C981 C982 1.383 . S
C981 H989 0.929 . S
C982 C981 1.383 . S
C982 C983 1.377 . S
C983 H967 0.930 . S
C983 C982 1.377 . S
C983 C984 1.379 . S
C984 H968 0.931 . S
C984 C978 1.383 . S
C984 C983 1.379 . S
H985 C979 0.959 . S
H986 C979 0.961 . S
H987 C979 0.960 . S
H988 C980 0.930 . S
H989 C981 0.929 . S
H990 C998 0.929 . S
H991 C1000 0.930 . S
H992 C1002 0.930 . S
H993 C1005 0.929 . S
H994 C1008 0.930 . S
H995 C1010 0.960 . S
H996 C1010 0.960 . S
H997 C1010 0.960 . S
C998 H990 0.929 . S
C998 C999 1.377 . S
C998 C1000 1.384 . S
C999 C998 1.377 . S
C999 C1005 1.390 . S
C1000 H991 0.930 . S
C1000 C998 1.384 . S
C1000 C1001 1.372 . S
C1001 C1000 1.372 . S
C1001 C1002 1.400 . S
C1001 C1006 1.490 . S
C1002 H992 0.930 . S
C1002 C1001 1.400 . S
C1002 C1005 1.386 . S
H1003 C1019 0.930 . S
H1004 C1020 0.931 . S
C1005 H993 0.929 . S
C1005 C999 1.390 . S
C1005 C1002 1.386 . S
C1006 C1001 1.490 . S
C1006 C1008 1.395 . S
C1006 C1009 1.403 . S
H1007 C1013 0.930 . S
C1008 H994 0.930 . S
C1008 C1006 1.395 . S
C1008 C1011 1.403 . S
C1009 C1006 1.403 . S
C1009 C1010 1.524 . S
C1009 C1013 1.400 . S
C1010 H995 0.960 . S
C1010 H996 0.960 . S
C1010 H997 0.960 . S
C1010 C1009 1.524 . S
C1011 C1008 1.403 . S
C1011 C1012 1.392 . S
C1011 C1015 1.495 . S
C1012 C1011 1.392 . S
C1012 C1013 1.385 . S
C1012 C1014 1.478 . S
C1013 H1007 0.930 . S
C1013 C1009 1.400 . S
C1013 C1012 1.385 . S
C1014 C1012 1.478 . S
C1014 C1016 1.381 . S
C1014 C1020 1.383 . S
C1015 C1011 1.495 . S
C1015 H1021 0.959 . S
C1015 H1022 0.961 . S
C1015 H1023 0.960 . S
C1016 C1014 1.381 . S
C1016 C1017 1.394 . S
C1016 H1024 0.930 . S
C1017 C1016 1.394 . S
C1017 C1018 1.383 . S
C1017 H1025 0.929 . S
C1018 C1017 1.383 . S
C1018 C1019 1.377 . S
C1019 H1003 0.930 . S
C1019 C1018 1.377 . S
C1019 C1020 1.379 . S
C1020 H1004 0.931 . S
C1020 C1014 1.383 . S
C1020 C1019 1.379 . S
H1021 C1015 0.959 . S
H1022 C1015 0.961 . S
H1023 C1015 0.960 . S
H1024 C1016 0.930 . S
H1025 C1017 0.929 . S
H1026 C1034 0.929 . S
H1027 C1036 0.930 . S
H1028 C1038 0.930 . S
H1029 C1041 0.929 . S
H1030 C1044 0.930 . S
H1031 C1046 0.960 . S
H1032 C1046 0.960 . S
H1033 C1046 0.960 . S
C1034 H1026 0.929 . S
C1034 C1035 1.377 . S
C1034 C1036 1.384 . S
C1035 C1034 1.377 . S
C1035 C1041 1.390 . S
C1036 H1027 0.930 . S
C1036 C1034 1.384 . S
C1036 C1037 1.372 . S
C1037 C1036 1.372 . S
C1037 C1038 1.400 . S
C1037 C1042 1.490 . S
C1038 H1028 0.930 . S
C1038 C1037 1.400 . S
C1038 C1041 1.386 . S
H1039 C1055 0.930 . S
H1040 C1056 0.931 . S
C1041 H1029 0.929 . S
C1041 C1035 1.390 . S
C1041 C1038 1.386 . S
C1042 C1037 1.490 . S
C1042 C1044 1.395 . S
C1042 C1045 1.403 . S
H1043 C1049 0.930 . S
C1044 H1030 0.930 . S
C1044 C1042 1.395 . S
C1044 C1047 1.403 . S
C1045 C1042 1.403 . S
C1045 C1046 1.524 . S
C1045 C1049 1.400 . S
C1046 H1031 0.960 . S
C1046 H1032 0.960 . S
C1046 H1033 0.960 . S
C1046 C1045 1.524 . S
C1047 C1044 1.403 . S
C1047 C1048 1.392 . S
C1047 C1051 1.495 . S
C1048 C1047 1.392 . S
C1048 C1049 1.385 . S
C1048 C1050 1.478 . S
C1049 H1043 0.930 . S
C1049 C1045 1.400 . S
C1049 C1048 1.385 . S
C1050 C1048 1.478 . S
C1050 C1052 1.381 . S
C1050 C1056 1.383 . S
C1051 C1047 1.495 . S
C1051 H1057 0.959 . S
C1051 H1058 0.961 . S
C1051 H1059 0.960 . S
C1052 C1050 1.381 . S
C1052 C1053 1.394 . S
C1052 H1060 0.930 . S
C1053 C1052 1.394 . S
C1053 C1054 1.383 . S
C1053 H1061 0.929 . S
C1054 C1053 1.383 . S
C1054 C1055 1.377 . S
C1055 H1039 0.930 . S
C1055 C1054 1.377 . S
C1055 C1056 1.379 . S
C1056 H1040 0.931 . S
C1056 C1050 1.383 . S
C1056 C1055 1.379 . S
H1057 C1051 0.959 . S
H1058 C1051 0.961 . S
H1059 C1051 0.960 . S
H1060 C1052 0.930 . S
H1061 C1053 0.929 . S
H1062 C1070 0.929 . S
H1063 C1072 0.930 . S
H1064 C1074 0.930 . S
H1065 C1077 0.929 . S
H1066 C1080 0.930 . S
H1067 C1082 0.960 . S
H1068 C1082 0.960 . S
H1069 C1082 0.960 . S
C1070 H1062 0.929 . S
C1070 C1071 1.377 . S
C1070 C1072 1.384 . S
C1071 C1070 1.377 . S
C1071 C1077 1.390 . S
C1072 H1063 0.930 . S
C1072 C1070 1.384 . S
C1072 C1073 1.372 . S
C1073 C1072 1.372 . S
C1073 C1074 1.400 . S
C1073 C1078 1.490 . S
C1074 H1064 0.930 . S
C1074 C1073 1.400 . S
C1074 C1077 1.386 . S
H1075 C1091 0.930 . S
H1076 C1092 0.931 . S
C1077 H1065 0.929 . S
C1077 C1071 1.390 . S
C1077 C1074 1.386 . S
C1078 C1073 1.490 . S
C1078 C1080 1.395 . S
C1078 C1081 1.403 . S
H1079 C1085 0.930 . S
C1080 H1066 0.930 . S
C1080 C1078 1.395 . S
C1080 C1083 1.403 . S
C1081 C1078 1.403 . S
C1081 C1082 1.524 . S
C1081 C1085 1.400 . S
C1082 H1067 0.960 . S
C1082 H1068 0.960 . S
C1082 H1069 0.960 . S
C1082 C1081 1.524 . S
C1083 C1080 1.403 . S
C1083 C1084 1.392 . S
C1083 C1087 1.495 . S
C1084 C1083 1.392 . S
C1084 C1085 1.385 . S
C1084 C1086 1.478 . S
C1085 H1079 0.930 . S
C1085 C1081 1.400 . S
C1085 C1084 1.385 . S
C1086 C1084 1.478 . S
C1086 C1088 1.381 . S
C1086 C1092 1.383 . S
C1087 C1083 1.495 . S
C1087 H1093 0.959 . S
C1087 H1094 0.961 . S
C1087 H1095 0.960 . S
C1088 C1086 1.381 . S
C1088 C1089 1.394 . S
C1088 H1096 0.930 . S
C1089 C1088 1.394 . S
C1089 C1090 1.383 . S
C1089 H1097 0.929 . S
C1090 C1089 1.383 . S
C1090 C1091 1.377 . S
C1091 H1075 0.930 . S
C1091 C1090 1.377 . S
C1091 C1092 1.379 . S
C1092 H1076 0.931 . S
C1092 C1086 1.383 . S
C1092 C1091 1.379 . S
H1093 C1087 0.959 . S
H1094 C1087 0.961 . S
H1095 C1087 0.960 . S
H1096 C1088 0.930 . S
H1097 C1089 0.929 . S
H1098 C1106 0.929 . S
H1099 C1108 0.930 . S
H1100 C1110 0.930 . S
H1101 C1113 0.929 . S
H1102 C1116 0.930 . S
H1103 C1118 0.960 . S
H1104 C1118 0.960 . S
H1105 C1118 0.960 . S
C1106 H1098 0.929 . S
C1106 C1107 1.377 . S
C1106 C1108 1.384 . S
C1107 C1106 1.377 . S
C1107 C1113 1.390 . S
C1108 H1099 0.930 . S
C1108 C1106 1.384 . S
C1108 C1109 1.372 . S
C1109 C1108 1.372 . S
C1109 C1110 1.400 . S
C1109 C1114 1.490 . S
C1110 H1100 0.930 . S
C1110 C1109 1.400 . S
C1110 C1113 1.386 . S
H1111 C1127 0.930 . S
H1112 C1128 0.931 . S
C1113 H1101 0.929 . S
C1113 C1107 1.390 . S
C1113 C1110 1.386 . S
C1114 C1109 1.490 . S
C1114 C1116 1.395 . S
C1114 C1117 1.403 . S
H1115 C1121 0.930 . S
C1116 H1102 0.930 . S
C1116 C1114 1.395 . S
C1116 C1119 1.403 . S
C1117 C1114 1.403 . S
C1117 C1118 1.524 . S
C1117 C1121 1.400 . S
C1118 H1103 0.960 . S
C1118 H1104 0.960 . S
C1118 H1105 0.960 . S
C1118 C1117 1.524 . S
C1119 C1116 1.403 . S
C1119 C1120 1.392 . S
C1119 C1123 1.495 . S
C1120 C1119 1.392 . S
C1120 C1121 1.385 . S
C1120 C1122 1.478 . S
C1121 H1115 0.930 . S
C1121 C1117 1.400 . S
C1121 C1120 1.385 . S
C1122 C1120 1.478 . S
C1122 C1124 1.381 . S
C1122 C1128 1.383 . S
C1123 C1119 1.495 . S
C1123 H1129 0.959 . S
C1123 H1130 0.961 . S
C1123 H1131 0.960 . S
C1124 C1122 1.381 . S
C1124 C1125 1.394 . S
C1124 H1132 0.930 . S
C1125 C1124 1.394 . S
C1125 C1126 1.383 . S
C1125 H1133 0.929 . S
C1126 C1125 1.383 . S
C1126 C1127 1.377 . S
C1127 H1111 0.930 . S
C1127 C1126 1.377 . S
C1127 C1128 1.379 . S
C1128 H1112 0.931 . S
C1128 C1122 1.383 . S
C1128 C1127 1.379 . S
H1129 C1123 0.959 . S
H1130 C1123 0.961 . S
H1131 C1123 0.960 . S
H1132 C1124 0.930 . S
H1133 C1125 0.929 . S
H1134 C1142 0.929 . S
H1135 C1144 0.930 . S
H1136 C1146 0.930 . S
H1137 C1149 0.929 . S
H1138 C1152 0.930 . S
H1139 C1154 0.960 . S
H1140 C1154 0.960 . S
H1141 C1154 0.960 . S
C1142 H1134 0.929 . S
C1142 C1143 1.377 . S
C1142 C1144 1.384 . S
C1143 C1142 1.377 . S
C1143 C1149 1.390 . S
C1144 H1135 0.930 . S
C1144 C1142 1.384 . S
C1144 C1145 1.372 . S
C1145 C1144 1.372 . S
C1145 C1146 1.400 . S
C1145 C1150 1.490 . S
C1146 H1136 0.930 . S
C1146 C1145 1.400 . S
C1146 C1149 1.386 . S
H1147 C1163 0.930 . S
H1148 C1164 0.931 . S
C1149 H1137 0.929 . S
C1149 C1143 1.390 . S
C1149 C1146 1.386 . S
C1150 C1145 1.490 . S
C1150 C1152 1.395 . S
C1150 C1153 1.403 . S
H1151 C1157 0.930 . S
C1152 H1138 0.930 . S
C1152 C1150 1.395 . S
C1152 C1155 1.403 1_654 S
C1153 C1150 1.403 . S
C1153 C1154 1.524 . S
C1153 C1157 1.400 1_654 S
C1154 H1139 0.960 . S
C1154 H1140 0.960 . S
C1154 H1141 0.960 . S
C1154 C1153 1.524 . S
C1155 C1152 1.403 1_456 S
C1155 C1156 1.392 . S
C1155 C1159 1.495 . S
C1156 C1155 1.392 . S
C1156 C1157 1.385 . S
C1156 C1158 1.478 . S
C1157 H1151 0.930 . S
C1157 C1153 1.400 1_456 S
C1157 C1156 1.385 . S
C1158 C1156 1.478 . S
C1158 C1160 1.381 . S
C1158 C1164 1.383 . S
C1159 C1155 1.495 . S
C1159 H1165 0.959 . S
C1159 H1166 0.961 . S
C1159 H1167 0.960 . S
C1160 C1158 1.381 . S
C1160 C1161 1.394 . S
C1160 H1168 0.930 . S
C1161 C1160 1.394 . S
C1161 C1162 1.383 . S
C1161 H1169 0.929 . S
C1162 C1161 1.383 . S
C1162 C1163 1.377 . S
C1163 H1147 0.930 . S
C1163 C1162 1.377 . S
C1163 C1164 1.379 . S
C1164 H1148 0.931 . S
C1164 C1158 1.383 . S
C1164 C1163 1.379 . S
H1165 C1159 0.959 . S
H1166 C1159 0.961 . S
H1167 C1159 0.960 . S
H1168 C1160 0.930 . S
H1169 C1161 0.929 . S
H1170 C1178 0.929 . S
H1171 C1180 0.951 . S
H1172 C1182 0.930 . S
H1173 C1185 0.929 . S
H1174 C1188 0.930 . S
H1175 C1190 0.960 . S
H1176 C1190 0.960 . S
H1177 C1190 0.960 . S
C1178 H1170 0.929 . S
C1178 C1179 1.377 . S
C1178 C1180 1.384 . S
C1179 C1178 1.377 . S
C1179 C1185 1.390 . S
C1180 H1171 0.951 . S
C1180 C1178 1.384 . S
C1180 C1181 1.372 . S
C1181 C1180 1.372 . S
C1181 C1182 1.400 . S
C1181 C1186 1.490 . S
C1182 H1172 0.930 . S
C1182 C1181 1.400 . S
C1182 C1185 1.386 . S
H1183 C1199 0.930 . S
H1184 C1200 0.931 . S
C1185 H1173 0.929 . S
C1185 C1179 1.390 . S
C1185 C1182 1.386 . S
C1186 C1181 1.490 . S
C1186 C1188 1.395 1_556 S
C1186 C1189 1.403 . S
H1187 C1193 0.930 . S
C1188 H1174 0.930 . S
C1188 C1186 1.395 1_554 S
C1188 C1191 1.403 . S
C1189 C1186 1.403 . S
C1189 C1190 1.524 . S
C1189 C1193 1.400 . S
C1190 H1175 0.960 . S
C1190 H1176 0.960 . S
C1190 H1177 0.960 . S
C1190 C1189 1.524 . S
C1191 C1188 1.403 . S
C1191 C1192 1.392 . S
C1191 C1195 1.495 . S
C1192 C1191 1.392 . S
C1192 C1193 1.385 1_554 S
C1192 C1194 1.478 . S
C1193 H1187 0.930 . S
C1193 C1189 1.400 . S
C1193 C1192 1.385 1_556 S
C1194 C1192 1.478 . S
C1194 C1196 1.381 . S
C1194 C1200 1.383 . S
C1195 C1191 1.495 . S
C1195 H1201 0.959 . S
C1195 H1202 0.961 . S
C1195 H1203 0.960 . S
C1196 C1194 1.381 . S
C1196 C1197 1.394 . S
C1196 H1204 0.930 . S
C1197 C1196 1.394 . S
C1197 C1198 1.383 . S
C1197 H1205 0.929 . S
C1198 C1197 1.383 . S
C1198 C1199 1.377 . S
C1199 H1183 0.930 . S
C1199 C1198 1.377 . S
C1199 C1200 1.379 . S
C1200 H1184 0.931 . S
C1200 C1194 1.383 . S
C1200 C1199 1.379 . S
H1201 C1195 0.959 . S
H1202 C1195 0.961 . S
H1203 C1195 0.960 . S
H1204 C1196 0.930 . S
H1205 C1197 0.929 . S
H1206 C1214 0.929 . S
H1207 C1216 0.930 . S
H1208 C1218 0.930 . S
H1209 C1221 0.929 . S
H1210 C1224 0.930 . S
H1211 C1226 0.960 1_565 S
H1212 C1226 0.960 . S
H1213 C1226 0.960 . S
C1214 H1206 0.929 . S
C1214 C1215 1.377 . S
C1214 C1216 1.384 . S
C1215 C1214 1.377 . S
C1215 C1221 1.390 . S
C1216 H1207 0.930 . S
C1216 C1214 1.384 . S
C1216 C1217 1.372 . S
C1217 C1216 1.372 . S
C1217 C1218 1.400 . S
C1217 C1222 1.490 . S
C1218 H1208 0.930 . S
C1218 C1217 1.400 . S
C1218 C1221 1.386 . S
H1219 C1235 0.930 . S
H1220 C1236 0.931 . S
C1221 H1209 0.929 . S
C1221 C1215 1.390 . S
C1221 C1218 1.386 . S
C1222 C1217 1.490 . S
C1222 C1224 1.395 1_554 S
C1222 C1225 1.403 . S
H1223 C1229 0.930 . S
C1224 H1210 0.930 . S
C1224 C1222 1.395 1_556 S
C1224 C1227 1.403 1_545 S
C1225 C1222 1.403 . S
C1225 C1226 1.524 . S
C1225 C1229 1.400 1_545 S
C1226 H1211 0.960 1_545 S
C1226 H1212 0.960 . S
C1226 H1213 0.960 . S
C1226 C1225 1.524 . S
C1227 C1224 1.403 1_565 S
C1227 C1228 1.392 . S
C1227 C1231 1.495 . S
C1228 C1227 1.392 . S
C1228 C1229 1.385 1_556 S
C1228 C1230 1.478 . S
C1229 H1223 0.930 . S
C1229 C1225 1.400 1_565 S
C1229 C1228 1.385 1_554 S
C1230 C1228 1.478 . S
C1230 C1232 1.381 . S
C1230 C1236 1.383 . S
C1231 C1227 1.495 . S
C1231 H1237 0.959 1_565 S
C1231 H1238 0.961 . S
C1231 H1239 0.960 . S
C1232 C1230 1.381 . S
C1232 C1233 1.394 . S
C1232 H1240 0.930 . S
C1233 C1232 1.394 . S
C1233 C1234 1.383 . S
C1233 H1241 0.929 . S
C1234 C1233 1.383 . S
C1234 C1235 1.377 . S
C1235 H1219 0.930 . S
C1235 C1234 1.377 . S
C1235 C1236 1.379 . S
C1236 H1220 0.931 . S
C1236 C1230 1.383 . S
C1236 C1235 1.379 . S
H1237 C1231 0.959 1_545 S
H1238 C1231 0.961 . S
H1239 C1231 0.960 . S
H1240 C1232 0.930 . S
H1241 C1233 0.929 . S
H1242 C1250 0.929 . S
H1243 C1252 0.930 . S
H1244 C1254 0.930 . S
H1245 C1257 0.929 . S
H1246 C1260 0.930 . S
H1247 C1262 0.960 . S
H1248 C1262 0.960 . S
H1249 C1262 0.960 . S
C1250 H1242 0.929 . S
C1250 C1251 1.377 . S
C1250 C1252 1.384 . S
C1251 C1250 1.377 . S
C1251 C1257 1.390 . S
C1252 H1243 0.930 . S
C1252 C1250 1.384 . S
C1252 C1253 1.372 . S
C1253 C1252 1.372 . S
C1253 C1254 1.400 . S
C1253 C1258 1.490 . S
C1254 H1244 0.930 . S
C1254 C1253 1.400 . S
C1254 C1257 1.386 . S
H1255 C1271 0.930 . S
H1256 C1272 0.931 . S
C1257 H1245 0.929 . S
C1257 C1251 1.390 . S
C1257 C1254 1.386 . S
C1258 C1253 1.490 . S
C1258 C1260 1.395 . S
C1258 C1261 1.403 1_455 S
H1259 C1265 0.930 . S
C1260 H1246 0.930 . S
C1260 C1258 1.395 . S
C1260 C1263 1.403 1_554 S
C1261 C1258 1.403 1_655 S
C1261 C1262 1.524 . S
C1261 C1265 1.400 1_554 S
C1262 H1247 0.960 . S
C1262 H1248 0.960 . S
C1262 H1249 0.960 . S
C1262 C1261 1.524 . S
C1263 C1260 1.403 1_556 S
C1263 C1264 1.392 1_455 S
C1263 C1267 1.495 . S
C1264 C1263 1.392 1_655 S
C1264 C1265 1.385 . S
C1264 C1266 1.478 . S
C1265 H1259 0.930 . S
C1265 C1261 1.400 1_556 S
C1265 C1264 1.385 . S
C1266 C1264 1.478 . S
C1266 C1268 1.381 . S
C1266 C1272 1.383 . S
C1267 C1263 1.495 . S
C1267 H1273 0.959 . S
C1267 H1274 0.961 . S
C1267 H1275 0.960 . S
C1268 C1266 1.381 . S
C1268 C1269 1.394 . S
C1268 H1276 0.930 . S
C1269 C1268 1.394 . S
C1269 C1270 1.383 . S
C1269 H1277 0.929 . S
C1270 C1269 1.383 . S
C1270 C1271 1.377 . S
C1271 H1255 0.930 . S
C1271 C1270 1.377 . S
C1271 C1272 1.379 . S
C1272 H1256 0.931 . S
C1272 C1266 1.383 . S
C1272 C1271 1.379 . S
H1273 C1267 0.959 . S
H1274 C1267 0.961 . S
H1275 C1267 0.960 . S
H1276 C1268 0.930 . S
H1277 C1269 0.929 . S
H1278 C1286 0.929 . S
H1279 C1288 0.930 . S
H1280 C1290 0.930 . S
H1281 C1293 0.929 . S
H1282 C1296 0.930 . S
H1283 C1298 0.960 . S
H1284 C1298 0.960 . S
H1285 C1298 0.960 . S
C1286 H1278 0.929 . S
C1286 C1287 1.377 . S
C1286 C1288 1.384 . S
C1287 C1286 1.377 . S
C1287 C1293 1.390 . S
C1288 H1279 0.930 . S
C1288 C1286 1.384 . S
C1288 C1289 1.372 . S
C1289 C1288 1.372 . S
C1289 C1290 1.400 . S
C1289 C1294 1.490 . S
C1290 H1280 0.930 . S
C1290 C1289 1.400 . S
C1290 C1293 1.386 . S
H1291 C1307 0.930 . S
H1292 C1308 0.931 . S
C1293 H1281 0.929 . S
C1293 C1287 1.390 . S
C1293 C1290 1.386 . S
C1294 C1289 1.490 . S
C1294 C1296 1.395 . S
C1294 C1297 1.403 . S
H1295 C1301 0.930 . S
C1296 H1282 0.930 . S
C1296 C1294 1.395 . S
C1296 C1299 1.403 1_556 S
C1297 C1294 1.403 . S
C1297 C1298 1.524 . S
C1297 C1301 1.400 1_556 S
C1298 H1283 0.960 . S
C1298 H1284 0.960 . S
C1298 H1285 0.960 . S
C1298 C1297 1.524 . S
C1299 C1296 1.403 1_554 S
C1299 C1300 1.392 . S
C1299 C1303 1.495 . S
C1300 C1299 1.392 . S
C1300 C1301 1.385 . S
C1300 C1302 1.478 . S
C1301 H1295 0.930 . S
C1301 C1297 1.400 1_554 S
C1301 C1300 1.385 . S
C1302 C1300 1.478 . S
C1302 C1304 1.381 . S
C1302 C1308 1.383 . S
C1303 C1299 1.495 . S
C1303 H1309 0.959 . S
C1303 H1310 0.961 . S
C1303 H1311 0.960 . S
C1304 C1302 1.381 . S
C1304 C1305 1.394 . S
C1304 H1312 0.930 . S
C1305 C1304 1.394 . S
C1305 C1306 1.383 . S
C1305 H1313 0.929 . S
C1306 C1305 1.383 . S
C1306 C1307 1.377 . S
C1307 H1291 0.930 . S
C1307 C1306 1.377 . S
C1307 C1308 1.379 . S
C1308 H1292 0.931 . S
C1308 C1302 1.383 . S
C1308 C1307 1.379 . S
H1309 C1303 0.959 . S
H1310 C1303 0.961 . S
H1311 C1303 0.960 . S
H1312 C1304 0.930 . S
H1313 C1305 0.929 . S
H1314 C1322 0.929 . S
H1315 C1324 0.930 . S
H1316 C1326 0.930 1_565 S
H1317 C1329 0.929 1_565 S
H1318 C1332 0.930 . S
H1319 C1334 0.960 . S
H1320 C1334 0.960 1_545 S
H1321 C1334 0.960 . S
C1322 H1314 0.929 . S
C1322 C1323 1.377 . S
C1322 C1324 1.384 . S
C1323 C1322 1.377 . S
C1323 C1329 1.390 . S
C1324 H1315 0.930 . S
C1324 C1322 1.384 . S
C1324 C1325 1.372 . S
C1325 C1324 1.372 . S
C1325 C1326 1.400 . S
C1325 C1330 1.490 . S
C1326 H1316 0.930 1_545 S
C1326 C1325 1.400 . S
C1326 C1329 1.386 . S
H1327 C1343 0.930 . S
H1328 C1344 0.931 . S
C1329 H1317 0.929 1_545 S
C1329 C1323 1.390 . S
C1329 C1326 1.386 . S
C1330 C1325 1.490 . S
C1330 C1332 1.395 . S
C1330 C1333 1.360 1_545 S
H1331 C1337 0.930 . S
C1332 H1318 0.930 . S
C1332 C1330 1.395 . S
C1332 C1335 1.403 1_556 S
C1333 C1330 1.360 1_565 S
C1333 C1334 1.554 . S
C1333 C1337 1.413 1_556 S
C1334 H1319 0.960 . S
C1334 H1320 0.960 1_565 S
C1334 H1321 0.960 . S
C1334 C1333 1.554 . S
C1335 C1332 1.403 1_554 S
C1335 C1336 1.392 1_545 S
C1335 C1339 1.495 . S
C1336 C1335 1.392 1_565 S
C1336 C1337 1.385 . S
C1336 C1338 1.478 . S
C1337 H1331 0.930 . S
C1337 C1333 1.413 1_554 S
C1337 C1336 1.385 . S
C1338 C1336 1.478 . S
C1338 C1340 1.350 1_565 S
C1338 C1344 1.383 . S
C1339 C1335 1.495 . S
C1339 H1345 0.959 . S
C1339 H1346 0.961 1_545 S
C1339 H1347 0.960 . S
C1340 C1338 1.350 1_545 S
C1340 C1341 1.377 1_545 S
C1340 H1348 0.981 . S
C1341 C1340 1.377 1_565 S
C1341 C1342 1.383 . S
C1341 H1349 0.929 1_565 S
C1342 C1341 1.383 . S
C1342 C1343 1.377 . S
C1343 H1327 0.930 . S
C1343 C1342 1.377 . S
C1343 C1344 1.379 . S
C1344 H1328 0.931 . S
C1344 C1338 1.383 . S
C1344 C1343 1.379 . S
H1345 C1339 0.959 . S
H1346 C1339 0.961 1_565 S
H1347 C1339 0.960 . S
H1348 C1340 0.981 . S
H1349 C1341 0.929 1_545 S
H1350 C1358 0.929 . S
H1351 C1360 0.930 . S
H1352 C1362 0.930 . S
H1353 C1365 0.929 . S
H1354 C1368 0.930 . S
H1355 C1370 0.960 . S
H1356 C1370 0.960 . S
H1357 C1370 0.960 . S
C1358 H1350 0.929 . S
C1358 C1359 1.377 . S
C1358 C1360 1.384 . S
C1359 C1358 1.377 . S
C1359 C1365 1.390 . S
C1360 H1351 0.930 . S
C1360 C1358 1.384 . S
C1360 C1361 1.372 . S
C1361 C1360 1.372 . S
C1361 C1362 1.400 . S
C1361 C1366 1.490 . S
C1362 H1352 0.930 . S
C1362 C1361 1.400 . S
C1362 C1365 1.386 . S
H1363 C1379 0.930 . S
H1364 C1380 0.931 . S
C1365 H1353 0.929 . S
C1365 C1359 1.390 . S
C1365 C1362 1.386 . S
C1366 C1361 1.490 . S
C1366 C1368 1.395 . S
C1366 C1369 1.403 . S
H1367 C1373 0.930 . S
C1368 H1354 0.930 . S
C1368 C1366 1.395 . S
C1368 C1371 1.403 . S
C1369 C1366 1.403 . S
C1369 C1370 1.524 . S
C1369 C1373 1.400 . S
C1370 H1355 0.960 . S
C1370 H1356 0.960 . S
C1370 H1357 0.960 . S
C1370 C1369 1.524 . S
C1371 C1368 1.403 . S
C1371 C1372 1.392 . S
C1371 C1375 1.495 . S
C1372 C1371 1.392 . S
C1372 C1373 1.385 . S
C1372 C1374 1.478 . S
C1373 H1367 0.930 . S
C1373 C1369 1.400 . S
C1373 C1372 1.385 . S
C1374 C1372 1.478 . S
C1374 C1376 1.381 . S
C1374 C1380 1.383 . S
C1375 C1371 1.495 . S
C1375 H1381 0.959 . S
C1375 H1382 0.961 . S
C1375 H1383 0.960 . S
C1376 C1374 1.381 . S
C1376 C1377 1.394 . S
C1376 H1384 0.930 . S
C1377 C1376 1.394 . S
C1377 C1378 1.383 . S
C1377 H1385 0.929 . S
C1378 C1377 1.383 . S
C1378 C1379 1.377 . S
C1379 H1363 0.930 . S
C1379 C1378 1.377 . S
C1379 C1380 1.379 . S
C1380 H1364 0.931 . S
C1380 C1374 1.383 . S
C1380 C1379 1.379 . S
H1381 C1375 0.959 . S
H1382 C1375 0.961 . S
H1383 C1375 0.960 . S
H1384 C1376 0.930 . S
H1385 C1377 0.929 . S
H1386 C1394 0.929 . S
H1387 C1396 0.930 . S
H1388 C1398 0.930 . S
H1389 C1401 0.929 . S
H1390 C1404 0.930 . S
H1391 C1406 0.960 . S
H1392 C1406 0.960 . S
H1393 C1406 0.960 . S
C1394 H1386 0.929 . S
C1394 C1395 1.377 . S
C1394 C1396 1.384 . S
C1395 C1394 1.377 . S
C1395 C1401 1.390 . S
C1396 H1387 0.930 . S
C1396 C1394 1.384 . S
C1396 C1397 1.372 . S
C1397 C1396 1.372 . S
C1397 C1398 1.400 . S
C1397 C1402 1.490 . S
C1398 H1388 0.930 . S
C1398 C1397 1.400 . S
C1398 C1401 1.386 . S
H1399 C1415 0.930 . S
H1400 C1416 0.931 . S
C1401 H1389 0.929 . S
C1401 C1395 1.390 . S
C1401 C1398 1.386 . S
C1402 C1397 1.490 . S
C1402 C1404 1.395 . S
C1402 C1405 1.403 . S
H1403 C1409 0.930 . S
C1404 H1390 0.930 . S
C1404 C1402 1.395 . S
C1404 C1407 1.403 . S
C1405 C1402 1.403 . S
C1405 C1406 1.524 . S
C1405 C1409 1.400 . S
C1406 H1391 0.960 . S
C1406 H1392 0.960 . S
C1406 H1393 0.960 . S
C1406 C1405 1.524 . S
C1407 C1404 1.403 . S
C1407 C1408 1.392 . S
C1407 C1411 1.495 . S
C1408 C1407 1.392 . S
C1408 C1409 1.385 . S
C1408 C1410 1.478 . S
C1409 H1403 0.930 . S
C1409 C1405 1.400 . S
C1409 C1408 1.385 . S
C1410 C1408 1.478 . S
C1410 C1412 1.381 . S
C1410 C1416 1.383 . S
C1411 C1407 1.495 . S
C1411 H1417 0.959 . S
C1411 H1418 0.961 . S
C1411 H1419 0.960 . S
C1412 C1410 1.381 . S
C1412 C1413 1.394 . S
C1412 H1420 0.930 . S
C1413 C1412 1.394 . S
C1413 C1414 1.383 . S
C1413 H1421 0.929 . S
C1414 C1413 1.383 . S
C1414 C1415 1.377 . S
C1415 H1399 0.930 . S
C1415 C1414 1.377 . S
C1415 C1416 1.379 . S
C1416 H1400 0.931 . S
C1416 C1410 1.383 . S
C1416 C1415 1.379 . S
H1417 C1411 0.959 . S
H1418 C1411 0.961 . S
H1419 C1411 0.960 . S
H1420 C1412 0.930 . S
H1421 C1413 0.929 . S
H1422 C1430 0.929 . S
H1423 C1432 0.930 . S
H1424 C1434 0.930 . S
H1425 C1437 0.929 . S
H1426 C1440 0.930 . S
H1427 C1442 0.960 . S
H1428 C1442 0.960 . S
H1429 C1442 0.960 . S
C1430 H1422 0.929 . S
C1430 C1431 1.377 . S
C1430 C1432 1.384 . S
C1431 C1430 1.377 . S
C1431 C1437 1.390 . S
C1432 H1423 0.930 . S
C1432 C1430 1.384 . S
C1432 C1433 1.372 . S
C1433 C1432 1.372 . S
C1433 C1434 1.400 . S
C1433 C1438 1.490 . S
C1434 H1424 0.930 . S
C1434 C1433 1.400 . S
C1434 C1437 1.386 . S
H1435 C1451 0.930 . S
H1436 C1452 0.931 . S
C1437 H1425 0.929 . S
C1437 C1431 1.390 . S
C1437 C1434 1.386 . S
C1438 C1433 1.490 . S
C1438 C1440 1.395 . S
C1438 C1441 1.403 . S
H1439 C1445 0.930 . S
C1440 H1426 0.930 . S
C1440 C1438 1.395 . S
C1440 C1443 1.403 . S
C1441 C1438 1.403 . S
C1441 C1442 1.524 . S
C1441 C1445 1.400 . S
C1442 H1427 0.960 . S
C1442 H1428 0.960 . S
C1442 H1429 0.960 . S
C1442 C1441 1.524 . S
C1443 C1440 1.403 . S
C1443 C1444 1.392 . S
C1443 C1447 1.495 . S
C1444 C1443 1.392 . S
C1444 C1445 1.385 . S
C1444 C1446 1.478 . S
C1445 H1439 0.930 . S
C1445 C1441 1.400 . S
C1445 C1444 1.385 . S
C1446 C1444 1.478 . S
C1446 C1448 1.381 . S
C1446 C1452 1.383 . S
C1447 C1443 1.495 . S
C1447 H1453 0.959 . S
C1447 H1454 0.961 . S
C1447 H1455 0.960 . S
C1448 C1446 1.381 . S
C1448 C1449 1.394 . S
C1448 H1456 0.930 . S
C1449 C1448 1.394 . S
C1449 C1450 1.383 . S
C1449 H1457 0.929 . S
C1450 C1449 1.383 . S
C1450 C1451 1.377 . S
C1451 H1435 0.930 . S
C1451 C1450 1.377 . S
C1451 C1452 1.379 . S
C1452 H1436 0.931 . S
C1452 C1446 1.383 . S
C1452 C1451 1.379 . S
H1453 C1447 0.959 . S
H1454 C1447 0.961 . S
H1455 C1447 0.960 . S
H1456 C1448 0.930 . S
H1457 C1449 0.929 . S
H1458 C1466 0.929 . S
H1459 C1468 0.930 . S
H1460 C1470 0.930 . S
H1461 C1473 0.929 . S
H1462 C1476 0.930 . S
H1463 C1478 0.960 . S
H1464 C1478 0.960 . S
H1465 C1478 0.960 . S
C1466 H1458 0.929 . S
C1466 C1467 1.377 . S
C1466 C1468 1.384 . S
C1467 C1466 1.377 . S
C1467 C1473 1.390 . S
C1468 H1459 0.930 . S
C1468 C1466 1.384 . S
C1468 C1469 1.372 . S
C1469 C1468 1.372 . S
C1469 C1470 1.400 . S
C1469 C1474 1.490 . S
C1470 H1460 0.930 . S
C1470 C1469 1.400 . S
C1470 C1473 1.386 . S
H1471 C1487 0.930 . S
H1472 C1488 0.931 . S
C1473 H1461 0.929 . S
C1473 C1467 1.390 . S
C1473 C1470 1.386 . S
C1474 C1469 1.490 . S
C1474 C1476 1.395 . S
C1474 C1477 1.403 . S
H1475 C1481 0.930 . S
C1476 H1462 0.930 . S
C1476 C1474 1.395 . S
C1476 C1479 1.403 . S
C1477 C1474 1.403 . S
C1477 C1478 1.524 . S
C1477 C1481 1.400 . S
C1478 H1463 0.960 . S
C1478 H1464 0.960 . S
C1478 H1465 0.960 . S
C1478 C1477 1.524 . S
C1479 C1476 1.403 . S
C1479 C1480 1.392 . S
C1479 C1483 1.495 . S
C1480 C1479 1.392 . S
C1480 C1481 1.385 . S
C1480 C1482 1.478 . S
C1481 H1475 0.930 . S
C1481 C1477 1.400 . S
C1481 C1480 1.385 . S
C1482 C1480 1.478 . S
C1482 C1484 1.381 . S
C1482 C1488 1.383 . S
C1483 C1479 1.495 . S
C1483 H1489 0.959 . S
C1483 H1490 0.961 . S
C1483 H1491 0.960 . S
C1484 C1482 1.381 . S
C1484 C1485 1.394 . S
C1484 H1492 0.930 . S
C1485 C1484 1.394 . S
C1485 C1486 1.383 . S
C1485 H1493 0.929 . S
C1486 C1485 1.383 . S
C1486 C1487 1.377 . S
C1487 H1471 0.930 . S
C1487 C1486 1.377 . S
C1487 C1488 1.379 . S
C1488 H1472 0.931 . S
C1488 C1482 1.383 . S
C1488 C1487 1.379 . S
H1489 C1483 0.959 . S
H1490 C1483 0.961 . S
H1491 C1483 0.960 . S
H1492 C1484 0.930 . S
H1493 C1485 0.929 . S
H1494 C1502 0.929 . S
H1495 C1504 0.930 . S
H1496 C1506 0.930 . S
H1497 C1509 0.929 . S
H1498 C1512 0.930 . S
H1499 C1514 0.960 . S
H1500 C1514 0.960 . S
H1501 C1514 0.960 . S
C1502 H1494 0.929 . S
C1502 C1503 1.377 . S
C1502 C1504 1.384 . S
C1503 C1502 1.377 . S
C1503 C1509 1.390 . S
C1504 H1495 0.930 . S
C1504 C1502 1.384 . S
C1504 C1505 1.372 . S
C1505 C1504 1.372 . S
C1505 C1506 1.400 . S
C1505 C1510 1.490 . S
C1506 H1496 0.930 . S
C1506 C1505 1.400 . S
C1506 C1509 1.386 . S
H1507 C1523 0.930 . S
H1508 C1524 0.931 . S
C1509 H1497 0.929 . S
C1509 C1503 1.390 . S
C1509 C1506 1.386 . S
C1510 C1505 1.490 . S
C1510 C1512 1.395 . S
C1510 C1513 1.403 . S
H1511 C1517 0.930 . S
C1512 H1498 0.930 . S
C1512 C1510 1.395 . S
C1512 C1515 1.403 . S
C1513 C1510 1.403 . S
C1513 C1514 1.524 . S
C1513 C1517 1.400 . S
C1514 H1499 0.960 . S
C1514 H1500 0.960 . S
C1514 H1501 0.960 . S
C1514 C1513 1.524 . S
C1515 C1512 1.403 . S
C1515 C1516 1.392 . S
C1515 C1519 1.495 . S
C1516 C1515 1.392 . S
C1516 C1517 1.385 . S
C1516 C1518 1.478 . S
C1517 H1511 0.930 . S
C1517 C1513 1.400 . S
C1517 C1516 1.385 . S
C1518 C1516 1.478 . S
C1518 C1520 1.381 . S
C1518 C1524 1.383 . S
C1519 C1515 1.495 . S
C1519 H1525 0.959 . S
C1519 H1526 0.961 . S
C1519 H1527 0.960 . S
C1520 C1518 1.381 . S
C1520 C1521 1.394 . S
C1520 H1528 0.930 . S
C1521 C1520 1.394 . S
C1521 C1522 1.383 . S
C1521 H1529 0.929 . S
C1522 C1521 1.383 . S
C1522 C1523 1.377 . S
C1523 H1507 0.930 . S
C1523 C1522 1.377 . S
C1523 C1524 1.379 . S
C1524 H1508 0.931 . S
C1524 C1518 1.383 . S
C1524 C1523 1.379 . S
H1525 C1519 0.959 . S
H1526 C1519 0.961 . S
H1527 C1519 0.960 . S
H1528 C1520 0.930 . S
H1529 C1521 0.929 . S
H1530 C1538 0.929 . S
H1531 C1540 0.930 . S
H1532 C1542 0.930 . S
H1533 C1545 0.929 . S
H1534 C1548 0.930 . S
H1535 C1550 0.960 . S
H1536 C1550 0.960 . S
H1537 C1550 0.960 . S
C1538 H1530 0.929 . S
C1538 C1539 1.377 . S
C1538 C1540 1.384 . S
C1539 C1538 1.377 . S
C1539 C1545 1.390 . S
C1540 H1531 0.930 . S
C1540 C1538 1.384 . S
C1540 C1541 1.372 . S
C1541 C1540 1.372 . S
C1541 C1542 1.400 . S
C1541 C1546 1.490 . S
C1542 H1532 0.930 . S
C1542 C1541 1.400 . S
C1542 C1545 1.386 . S
H1543 C1559 0.930 . S
H1544 C1560 0.931 . S
C1545 H1533 0.929 . S
C1545 C1539 1.390 . S
C1545 C1542 1.386 . S
C1546 C1541 1.490 . S
C1546 C1548 1.395 . S
C1546 C1549 1.403 . S
H1547 C1553 0.930 . S
C1548 H1534 0.930 . S
C1548 C1546 1.395 . S
C1548 C1551 1.403 . S
C1549 C1546 1.403 . S
C1549 C1550 1.524 . S
C1549 C1553 1.400 . S
C1550 H1535 0.960 . S
C1550 H1536 0.960 . S
C1550 H1537 0.960 . S
C1550 C1549 1.524 . S
C1551 C1548 1.403 . S
C1551 C1552 1.392 . S
C1551 C1555 1.495 . S
C1552 C1551 1.392 . S
C1552 C1553 1.385 . S
C1552 C1554 1.478 . S
C1553 H1547 0.930 . S
C1553 C1549 1.400 . S
C1553 C1552 1.385 . S
C1554 C1552 1.478 . S
C1554 C1556 1.381 . S
C1554 C1560 1.383 . S
C1555 C1551 1.495 . S
C1555 H1561 0.959 . S
C1555 H1562 0.961 . S
C1555 H1563 0.960 . S
C1556 C1554 1.381 . S
C1556 C1557 1.394 . S
C1556 H1564 0.930 . S
C1557 C1556 1.394 . S
C1557 C1558 1.383 . S
C1557 H1565 0.929 . S
C1558 C1557 1.383 . S
C1558 C1559 1.377 . S
C1559 H1543 0.930 . S
C1559 C1558 1.377 . S
C1559 C1560 1.379 . S
C1560 H1544 0.931 . S
C1560 C1554 1.383 . S
C1560 C1559 1.379 . S
H1561 C1555 0.959 . S
H1562 C1555 0.961 . S
H1563 C1555 0.960 . S
H1564 C1556 0.930 . S
H1565 C1557 0.929 . S
H1566 C1574 0.929 . S
H1567 C1576 0.930 . S
H1568 C1578 0.930 . S
H1569 C1581 0.929 . S
H1570 C1584 0.930 . S
H1571 C1586 0.960 . S
H1572 C1586 0.960 . S
H1573 C1586 0.960 . S
C1574 H1566 0.929 . S
C1574 C1575 1.377 . S
C1574 C1576 1.384 . S
C1575 C1574 1.377 . S
C1575 C1581 1.390 . S
C1576 H1567 0.930 . S
C1576 C1574 1.384 . S
C1576 C1577 1.372 . S
C1577 C1576 1.372 . S
C1577 C1578 1.400 . S
C1577 C1582 1.490 . S
C1578 H1568 0.930 . S
C1578 C1577 1.400 . S
C1578 C1581 1.386 . S
H1579 C1595 0.930 . S
H1580 C1596 0.931 . S
C1581 H1569 0.929 . S
C1581 C1575 1.390 . S
C1581 C1578 1.386 . S
C1582 C1577 1.490 . S
C1582 C1584 1.395 . S
C1582 C1585 1.403 . S
H1583 C1589 0.930 . S
C1584 H1570 0.930 . S
C1584 C1582 1.395 . S
C1584 C1587 1.403 . S
C1585 C1582 1.403 . S
C1585 C1586 1.524 . S
C1585 C1589 1.400 . S
C1586 H1571 0.960 . S
C1586 H1572 0.960 . S
C1586 H1573 0.960 . S
C1586 C1585 1.524 . S
C1587 C1584 1.403 . S
C1587 C1588 1.392 . S
C1587 C1591 1.495 . S
C1588 C1587 1.392 . S
C1588 C1589 1.385 . S
C1588 C1590 1.478 . S
C1589 H1583 0.930 . S
C1589 C1585 1.400 . S
C1589 C1588 1.385 . S
C1590 C1588 1.478 . S
C1590 C1592 1.381 . S
C1590 C1596 1.383 . S
C1591 C1587 1.495 . S
C1591 H1597 0.959 . S
C1591 H1598 0.961 . S
C1591 H1599 0.960 . S
C1592 C1590 1.381 . S
C1592 C1593 1.394 . S
C1592 H1600 0.930 . S
C1593 C1592 1.394 . S
C1593 C1594 1.383 . S
C1593 H1601 0.929 . S
C1594 C1593 1.383 . S
C1594 C1595 1.377 . S
C1595 H1579 0.930 . S
C1595 C1594 1.377 . S
C1595 C1596 1.379 . S
C1596 H1580 0.931 . S
C1596 C1590 1.383 . S
C1596 C1595 1.379 . S
H1597 C1591 0.959 . S
H1598 C1591 0.961 . S
H1599 C1591 0.960 . S
H1600 C1592 0.930 . S
H1601 C1593 0.929 . S
H1602 C1610 0.929 1_455 S
H1603 C1612 0.930 . S
H1604 C1614 0.930 . S
H1605 C1617 0.929 . S
H1606 C1620 0.930 . S
H1607 C1622 0.960 . S
H1608 C1622 0.960 . S
H1609 C1622 0.960 . S
C1610 H1602 0.929 1_655 S
C1610 C1611 1.377 . S
C1610 C1612 1.384 . S
C1611 C1610 1.377 . S
C1611 C1617 1.390 . S
C1612 H1603 0.930 . S
C1612 C1610 1.384 . S
C1612 C1613 1.372 . S
C1613 C1612 1.372 . S
C1613 C1614 1.400 . S
C1613 C1618 1.490 . S
C1614 H1604 0.930 . S
C1614 C1613 1.400 . S
C1614 C1617 1.386 . S
H1615 C1631 0.930 . S
H1616 C1632 0.931 . S
C1617 H1605 0.929 . S
C1617 C1611 1.390 . S
C1617 C1614 1.386 . S
C1618 C1613 1.490 . S
C1618 C1620 1.395 . S
C1618 C1621 1.403 . S
H1619 C1625 0.930 . S
C1620 H1606 0.930 . S
C1620 C1618 1.395 . S
C1620 C1623 1.403 . S
C1621 C1618 1.403 . S
C1621 C1622 1.524 . S
C1621 C1625 1.400 . S
C1622 H1607 0.960 . S
C1622 H1608 0.960 . S
C1622 H1609 0.960 . S
C1622 C1621 1.524 . S
C1623 C1620 1.403 . S
C1623 C1624 1.392 1_545 S
C1623 C1627 1.495 1_545 S
C1624 C1623 1.392 1_565 S
C1624 C1625 1.361 1_565 S
C1624 C1626 1.502 . S
C1625 H1619 0.930 . S
C1625 C1621 1.400 . S
C1625 C1624 1.361 1_545 S
C1626 C1624 1.502 . S
C1626 C1628 1.381 . S
C1626 C1632 1.383 . S
C1627 C1623 1.495 1_565 S
C1627 H1633 0.959 1_565 S
C1627 H1634 0.961 . S
C1627 H1635 0.960 . S
C1628 C1626 1.381 . S
C1628 C1629 1.394 . S
C1628 H1636 0.930 . S
C1629 C1628 1.394 . S
C1629 C1630 1.383 . S
C1629 H1637 0.929 . S
C1630 C1629 1.383 . S
C1630 C1631 1.377 . S
C1631 H1615 0.930 . S
C1631 C1630 1.377 . S
C1631 C1632 1.379 . S
C1632 H1616 0.931 . S
C1632 C1626 1.383 . S
C1632 C1631 1.379 . S
H1633 C1627 0.959 1_545 S
H1634 C1627 0.961 . S
H1635 C1627 0.960 . S
H1636 C1628 0.930 . S
H1637 C1629 0.929 . S
H1638 C1646 0.929 . S
H1639 C1648 0.930 . S
H1640 C1650 0.930 . S
H1641 C1653 0.929 . S
H1642 C1656 0.930 . S
H1643 C1658 0.960 . S
H1644 C1658 0.960 . S
H1645 C1658 0.960 . S
C1646 H1638 0.929 . S
C1646 C1647 1.377 . S
C1646 C1648 1.384 . S
C1647 C1646 1.377 . S
C1647 C1653 1.390 . S
C1648 H1639 0.930 . S
C1648 C1646 1.384 . S
C1648 C1649 1.372 . S
C1649 C1648 1.372 . S
C1649 C1650 1.400 . S
C1649 C1654 1.490 . S
C1650 H1640 0.930 . S
C1650 C1649 1.400 . S
C1650 C1653 1.386 . S
H1651 C1667 0.930 . S
H1652 C1668 0.931 . S
C1653 H1641 0.929 . S
C1653 C1647 1.390 . S
C1653 C1650 1.386 . S
C1654 C1649 1.490 . S
C1654 C1656 1.395 . S
C1654 C1657 1.403 . S
H1655 C1661 0.930 . S
C1656 H1642 0.930 . S
C1656 C1654 1.395 . S
C1656 C1659 1.403 . S
C1657 C1654 1.403 . S
C1657 C1658 1.524 . S
C1657 C1661 1.400 . S
C1658 H1643 0.960 . S
C1658 H1644 0.960 . S
C1658 H1645 0.960 . S
C1658 C1657 1.524 . S
C1659 C1656 1.403 . S
C1659 C1660 1.392 1_655 S
C1659 C1663 1.495 1_655 S
C1660 C1659 1.392 1_455 S
C1660 C1661 1.385 1_455 S
C1660 C1662 1.478 . S
C1661 H1655 0.930 . S
C1661 C1657 1.400 . S
C1661 C1660 1.385 1_655 S
C1662 C1660 1.478 . S
C1662 C1664 1.381 . S
C1662 C1668 1.383 . S
C1663 C1659 1.495 1_455 S
C1663 H1669 0.959 1_455 S
C1663 H1670 0.961 . S
C1663 H1671 0.960 . S
C1664 C1662 1.381 . S
C1664 C1665 1.394 . S
C1664 H1672 0.930 . S
C1665 C1664 1.394 . S
C1665 C1666 1.383 . S
C1665 H1673 0.929 . S
C1666 C1665 1.383 . S
C1666 C1667 1.377 . S
C1667 H1651 0.930 . S
C1667 C1666 1.377 . S
C1667 C1668 1.379 . S
C1668 H1652 0.931 . S
C1668 C1662 1.383 . S
C1668 C1667 1.379 . S
H1669 C1663 0.959 1_655 S
H1670 C1663 0.961 . S
H1671 C1663 0.960 . S
H1672 C1664 0.930 . S
H1673 C1665 0.929 . S
H1674 C1682 0.929 . S
H1675 C1684 0.930 . S
H1676 C1686 0.930 . S
H1677 C1689 0.910 1_655 S
H1678 C1692 0.930 . S
H1679 C1694 0.960 . S
H1680 C1694 0.960 . S
H1681 C1694 0.960 . S
C1682 H1674 0.929 . S
C1682 C1683 1.377 . S
C1682 C1684 1.384 . S
C1683 C1682 1.377 . S
C1683 C1689 1.390 . S
C1684 H1675 0.930 . S
C1684 C1682 1.384 . S
C1684 C1685 1.372 . S
C1685 C1684 1.372 . S
C1685 C1686 1.400 . S
C1685 C1690 1.490 . S
C1686 H1676 0.930 . S
C1686 C1685 1.400 . S
C1686 C1689 1.386 . S
H1687 C1703 0.930 . S
H1688 C1704 0.931 . S
C1689 H1677 0.910 1_455 S
C1689 C1683 1.390 . S
C1689 C1686 1.386 . S
C1690 C1685 1.490 . S
C1690 C1692 1.395 . S
C1690 C1693 1.403 . S
H1691 C1697 0.930 . S
C1692 H1678 0.930 . S
C1692 C1690 1.395 . S
C1692 C1695 1.403 . S
C1693 C1690 1.403 . S
C1693 C1694 1.524 . S
C1693 C1697 1.400 . S
C1694 H1679 0.960 . S
C1694 H1680 0.960 . S
C1694 H1681 0.960 . S
C1694 C1693 1.524 . S
C1695 C1692 1.403 . S
C1695 C1696 1.392 . S
C1695 C1699 1.495 . S
C1696 C1695 1.392 . S
C1696 C1697 1.385 . S
C1696 C1698 1.478 . S
C1697 H1691 0.930 . S
C1697 C1693 1.400 . S
C1697 C1696 1.385 . S
C1698 C1696 1.478 . S
C1698 C1700 1.381 . S
C1698 C1704 1.383 . S
C1699 C1695 1.495 . S
C1699 H1705 0.959 . S
C1699 H1706 0.961 . S
C1699 H1707 0.960 . S
C1700 C1698 1.381 . S
C1700 C1701 1.394 . S
C1700 H1708 0.930 . S
C1701 C1700 1.394 . S
C1701 C1702 1.383 . S
C1701 H1709 0.929 . S
C1702 C1701 1.383 . S
C1702 C1703 1.377 . S
C1703 H1687 0.930 . S
C1703 C1702 1.377 . S
C1703 C1704 1.379 . S
C1704 H1688 0.931 . S
C1704 C1698 1.383 . S
C1704 C1703 1.379 . S
H1705 C1699 0.959 . S
H1706 C1699 0.961 . S
H1707 C1699 0.960 . S
H1708 C1700 0.930 . S
H1709 C1701 0.929 . S
H1710 C1718 0.929 . S
H1711 C1720 0.930 . S
H1712 C1722 0.930 . S
H1713 C1725 0.929 . S
H1714 C1728 0.930 . S
H1715 C1730 0.995 . S
H1716 C1730 0.951 1_545 S
H1717 C1730 0.911 1_545 S
C1718 H1710 0.929 . S
C1718 C1719 1.377 . S
C1718 C1720 1.384 . S
C1719 C1718 1.377 . S
C1719 C1725 1.390 . S
C1720 H1711 0.930 . S
C1720 C1718 1.384 . S
C1720 C1721 1.372 . S
C1721 C1720 1.372 . S
C1721 C1722 1.400 . S
C1721 C1726 1.516 . S
C1722 H1712 0.930 . S
C1722 C1721 1.400 . S
C1722 C1725 1.386 . S
H1723 C1739 0.930 . S
H1724 C1740 0.931 . S
C1725 H1713 0.929 . S
C1725 C1719 1.390 . S
C1725 C1722 1.386 . S
C1726 C1721 1.516 . S
C1726 C1728 1.380 1_545 S
C1726 C1729 1.391 1_545 S
H1727 C1733 0.930 . S
C1728 H1714 0.930 . S
C1728 C1726 1.380 1_565 S
C1728 C1731 1.403 . S
C1729 C1726 1.391 1_565 S
C1729 C1730 1.550 . S
C1729 C1733 1.400 . S
C1730 H1715 0.995 . S
C1730 H1716 0.951 1_565 S
C1730 H1717 0.911 1_565 S
C1730 C1729 1.550 . S
C1731 C1728 1.403 . S
C1731 C1732 1.392 . S
C1731 C1735 1.495 . S
C1732 C1731 1.392 . S
C1732 C1733 1.385 . S
C1732 C1734 1.478 . S
C1733 H1727 0.930 . S
C1733 C1729 1.400 . S
C1733 C1732 1.385 . S
C1734 C1732 1.478 . S
C1734 C1736 1.381 . S
C1734 C1740 1.383 . S
C1735 C1731 1.495 . S
C1735 H1741 0.959 . S
C1735 H1742 0.961 . S
C1735 H1743 0.960 . S
C1736 C1734 1.381 . S
C1736 C1737 1.394 . S
C1736 H1744 0.930 . S
C1737 C1736 1.394 . S
C1737 C1738 1.383 . S
C1737 H1745 0.929 . S
C1738 C1737 1.383 . S
C1738 C1739 1.377 . S
C1739 H1723 0.930 . S
C1739 C1738 1.377 . S
C1739 C1740 1.379 . S
C1740 H1724 0.931 . S
C1740 C1734 1.383 . S
C1740 C1739 1.379 . S
H1741 C1735 0.959 . S
H1742 C1735 0.961 . S
H1743 C1735 0.960 . S
H1744 C1736 0.930 . S
H1745 C1737 0.929 . S
H1746 C1754 0.929 . S
H1747 C1756 0.930 . S
H1748 C1758 0.930 . S
H1749 C1761 0.929 . S
H1750 C1764 0.930 . S
H1751 C1766 0.960 . S
H1752 C1766 0.960 . S
H1753 C1766 0.960 . S
C1754 H1746 0.929 . S
C1754 C1755 1.377 . S
C1754 C1756 1.384 . S
C1755 C1754 1.377 . S
C1755 C1761 1.390 . S
C1756 H1747 0.930 . S
C1756 C1754 1.384 . S
C1756 C1757 1.372 . S
C1757 C1756 1.372 . S
C1757 C1758 1.400 . S
C1757 C1762 1.490 . S
C1758 H1748 0.930 . S
C1758 C1757 1.400 . S
C1758 C1761 1.386 . S
H1759 C1775 0.930 . S
H1760 C1776 0.931 . S
C1761 H1749 0.929 . S
C1761 C1755 1.390 . S
C1761 C1758 1.386 . S
C1762 C1757 1.490 . S
C1762 C1764 1.395 . S
C1762 C1765 1.403 . S
H1763 C1769 0.930 . S
C1764 H1750 0.930 . S
C1764 C1762 1.395 . S
C1764 C1767 1.403 . S
C1765 C1762 1.403 . S
C1765 C1766 1.524 . S
C1765 C1769 1.400 . S
C1766 H1751 0.960 . S
C1766 H1752 0.960 . S
C1766 H1753 0.960 . S
C1766 C1765 1.524 . S
C1767 C1764 1.403 . S
C1767 C1768 1.394 1_455 S
C1767 C1771 1.495 1_455 S
C1768 C1767 1.394 1_655 S
C1768 C1769 1.358 1_655 S
C1768 C1770 1.502 . S
C1769 H1763 0.930 . S
C1769 C1765 1.400 . S
C1769 C1768 1.358 1_455 S
C1770 C1768 1.502 . S
C1770 C1772 1.381 . S
C1770 C1776 1.383 . S
C1771 C1767 1.495 1_655 S
C1771 H1777 0.959 1_655 S
C1771 H1778 0.961 . S
C1771 H1779 0.960 . S
C1772 C1770 1.381 . S
C1772 C1773 1.394 . S
C1772 H1780 0.930 . S
C1773 C1772 1.394 . S
C1773 C1774 1.383 . S
C1773 H1781 0.929 . S
C1774 C1773 1.383 . S
C1774 C1775 1.377 . S
C1775 H1759 0.930 . S
C1775 C1774 1.377 . S
C1775 C1776 1.379 . S
C1776 H1760 0.931 . S
C1776 C1770 1.383 . S
C1776 C1775 1.379 . S
H1777 C1771 0.959 1_455 S
H1778 C1771 0.961 . S
H1779 C1771 0.960 . S
H1780 C1772 0.930 . S
H1781 C1773 0.929 . S
H1782 C1790 0.929 . S
H1783 C1792 0.930 . S
H1784 C1794 0.930 . S
H1785 C1797 0.929 . S
H1786 C1800 0.930 . S
H1787 C1802 0.960 . S
H1788 C1802 0.960 . S
H1789 C1802 0.960 . S
C1790 H1782 0.929 . S
C1790 C1791 1.377 . S
C1790 C1792 1.384 . S
C1791 C1790 1.377 . S
C1791 C1797 1.390 . S
C1792 H1783 0.930 . S
C1792 C1790 1.384 . S
C1792 C1793 1.372 . S
C1793 C1792 1.372 . S
C1793 C1794 1.400 . S
C1793 C1798 1.490 . S
C1794 H1784 0.930 . S
C1794 C1793 1.400 . S
C1794 C1797 1.386 . S
H1795 C1811 0.930 . S
H1796 C1812 0.931 . S
C1797 H1785 0.929 . S
C1797 C1791 1.390 . S
C1797 C1794 1.386 . S
C1798 C1793 1.490 . S
C1798 C1800 1.395 . S
C1798 C1801 1.403 . S
H1799 C1805 0.930 . S
C1800 H1786 0.930 . S
C1800 C1798 1.395 . S
C1800 C1803 1.403 . S
C1801 C1798 1.403 . S
C1801 C1802 1.524 . S
C1801 C1805 1.400 . S
C1802 H1787 0.960 . S
C1802 H1788 0.960 . S
C1802 H1789 0.960 . S
C1802 C1801 1.524 . S
C1803 C1800 1.403 . S
C1803 C1804 1.392 . S
C1803 C1807 1.495 . S
C1804 C1803 1.392 . S
C1804 C1805 1.385 . S
C1804 C1806 1.478 . S
C1805 H1799 0.930 . S
C1805 C1801 1.400 . S
C1805 C1804 1.385 . S
C1806 C1804 1.478 . S
C1806 C1808 1.381 . S
C1806 C1812 1.383 . S
C1807 C1803 1.495 . S
C1807 H1813 0.959 . S
C1807 H1814 0.961 . S
C1807 H1815 0.960 . S
C1808 C1806 1.381 . S
C1808 C1809 1.394 . S
C1808 H1816 0.930 . S
C1809 C1808 1.394 . S
C1809 C1810 1.383 . S
C1809 H1817 0.929 . S
C1810 C1809 1.383 . S
C1810 C1811 1.377 . S
C1811 H1795 0.930 . S
C1811 C1810 1.377 . S
C1811 C1812 1.379 . S
C1812 H1796 0.931 . S
C1812 C1806 1.383 . S
C1812 C1811 1.379 . S
H1813 C1807 0.959 . S
H1814 C1807 0.961 . S
H1815 C1807 0.960 . S
H1816 C1808 0.930 . S
H1817 C1809 0.929 . S
H1818 C1826 0.929 . S
H1819 C1828 0.930 . S
H1820 C1830 0.930 . S
H1821 C1833 0.929 . S
H1822 C1836 0.930 . S
H1823 C1838 0.960 . S
H1824 C1838 0.960 . S
H1825 C1838 0.960 . S
C1826 H1818 0.929 . S
C1826 C1827 1.377 . S
C1826 C1828 1.384 . S
C1827 C1826 1.377 . S
C1827 C1833 1.390 . S
C1828 H1819 0.930 . S
C1828 C1826 1.384 . S
C1828 C1829 1.372 . S
C1829 C1828 1.372 . S
C1829 C1830 1.400 . S
C1829 C1834 1.490 . S
C1830 H1820 0.930 . S
C1830 C1829 1.400 . S
C1830 C1833 1.386 . S
H1831 C1847 0.930 . S
H1832 C1848 0.931 . S
C1833 H1821 0.929 . S
C1833 C1827 1.390 . S
C1833 C1830 1.386 . S
C1834 C1829 1.490 . S
C1834 C1836 1.395 . S
C1834 C1837 1.403 . S
H1835 C1841 0.930 . S
C1836 H1822 0.930 . S
C1836 C1834 1.395 . S
C1836 C1839 1.403 . S
C1837 C1834 1.403 . S
C1837 C1838 1.524 . S
C1837 C1841 1.400 . S
C1838 H1823 0.960 . S
C1838 H1824 0.960 . S
C1838 H1825 0.960 . S
C1838 C1837 1.524 . S
C1839 C1836 1.403 . S
C1839 C1840 1.392 . S
C1839 C1843 1.495 . S
C1840 C1839 1.392 . S
C1840 C1841 1.385 . S
C1840 C1842 1.478 . S
C1841 H1835 0.930 . S
C1841 C1837 1.400 . S
C1841 C1840 1.385 . S
C1842 C1840 1.478 . S
C1842 C1844 1.381 . S
C1842 C1848 1.383 . S
C1843 C1839 1.495 . S
C1843 H1849 0.959 . S
C1843 H1850 0.961 . S
C1843 H1851 0.960 . S
C1844 C1842 1.381 . S
C1844 C1845 1.394 . S
C1844 H1852 0.930 . S
C1845 C1844 1.394 . S
C1845 C1846 1.383 . S
C1845 H1853 0.929 . S
C1846 C1845 1.383 . S
C1846 C1847 1.377 . S
C1847 H1831 0.930 . S
C1847 C1846 1.377 . S
C1847 C1848 1.379 . S
C1848 H1832 0.931 . S
C1848 C1842 1.383 . S
C1848 C1847 1.379 . S
H1849 C1843 0.959 . S
H1850 C1843 0.961 . S
H1851 C1843 0.960 . S
H1852 C1844 0.930 . S
H1853 C1845 0.929 . S
H1854 C1862 0.929 . S
H1855 C1864 0.930 . S
H1856 C1866 0.930 . S
H1857 C1869 0.929 . S
H1858 C1872 0.930 . S
H1859 C1874 0.960 . S
H1860 C1874 0.960 . S
H1861 C1874 0.960 . S
C1862 H1854 0.929 . S
C1862 C1863 1.377 . S
C1862 C1864 1.384 . S
C1863 C1862 1.377 . S
C1863 C1869 1.390 . S
C1864 H1855 0.930 . S
C1864 C1862 1.384 . S
C1864 C1865 1.372 . S
C1865 C1864 1.372 . S
C1865 C1866 1.400 . S
C1865 C1870 1.490 . S
C1866 H1856 0.930 . S
C1866 C1865 1.400 . S
C1866 C1869 1.386 . S
H1867 C1883 0.930 . S
H1868 C1884 0.931 . S
C1869 H1857 0.929 . S
C1869 C1863 1.390 . S
C1869 C1866 1.386 . S
C1870 C1865 1.490 . S
C1870 C1872 1.395 . S
C1870 C1873 1.403 . S
H1871 C1877 0.930 . S
C1872 H1858 0.930 . S
C1872 C1870 1.395 . S
C1872 C1875 1.403 . S
C1873 C1870 1.403 . S
C1873 C1874 1.524 . S
C1873 C1877 1.400 . S
C1874 H1859 0.960 . S
C1874 H1860 0.960 . S
C1874 H1861 0.960 . S
C1874 C1873 1.524 . S
C1875 C1872 1.403 . S
C1875 C1876 1.392 . S
C1875 C1879 1.495 . S
C1876 C1875 1.392 . S
C1876 C1877 1.385 . S
C1876 C1878 1.478 . S
C1877 H1871 0.930 . S
C1877 C1873 1.400 . S
C1877 C1876 1.385 . S
C1878 C1876 1.478 . S
C1878 C1880 1.381 . S
C1878 C1884 1.383 . S
C1879 C1875 1.495 . S
C1879 H1885 0.959 . S
C1879 H1886 0.961 . S
C1879 H1887 0.960 . S
C1880 C1878 1.381 . S
C1880 C1881 1.394 . S
C1880 H1888 0.930 . S
C1881 C1880 1.394 . S
C1881 C1882 1.383 . S
C1881 H1889 0.929 . S
C1882 C1881 1.383 . S
C1882 C1883 1.377 . S
C1883 H1867 0.930 . S
C1883 C1882 1.377 . S
C1883 C1884 1.379 . S
C1884 H1868 0.931 . S
C1884 C1878 1.383 . S
C1884 C1883 1.379 . S
H1885 C1879 0.959 . S
H1886 C1879 0.961 . S
H1887 C1879 0.960 . S
H1888 C1880 0.930 . S
H1889 C1881 0.929 . S
H1890 C1898 0.929 . S
H1891 C1900 0.930 . S
H1892 C1902 0.930 . S
H1893 C1905 0.929 . S
H1894 C1908 0.930 . S
H1895 C1910 0.960 . S
H1896 C1910 0.960 . S
H1897 C1910 0.960 . S
C1898 H1890 0.929 . S
C1898 C1899 1.377 . S
C1898 C1900 1.384 . S
C1899 C1898 1.377 . S
C1899 C1905 1.390 . S
C1900 H1891 0.930 . S
C1900 C1898 1.384 . S
C1900 C1901 1.372 . S
C1901 C1900 1.372 . S
C1901 C1902 1.400 . S
C1901 C1906 1.490 . S
C1902 H1892 0.930 . S
C1902 C1901 1.400 . S
C1902 C1905 1.386 . S
H1903 C1919 0.930 . S
H1904 C1920 0.931 . S
C1905 H1893 0.929 . S
C1905 C1899 1.390 . S
C1905 C1902 1.386 . S
C1906 C1901 1.490 . S
C1906 C1908 1.395 . S
C1906 C1909 1.403 . S
H1907 C1913 0.930 . S
C1908 H1894 0.930 . S
C1908 C1906 1.395 . S
C1908 C1911 1.403 . S
C1909 C1906 1.403 . S
C1909 C1910 1.524 . S
C1909 C1913 1.400 . S
C1910 H1895 0.960 . S
C1910 H1896 0.960 . S
C1910 H1897 0.960 . S
C1910 C1909 1.524 . S
C1911 C1908 1.403 . S
C1911 C1912 1.392 . S
C1911 C1915 1.495 . S
C1912 C1911 1.392 . S
C1912 C1913 1.385 . S
C1912 C1914 1.478 . S
C1913 H1907 0.930 . S
C1913 C1909 1.400 . S
C1913 C1912 1.385 . S
C1914 C1912 1.478 . S
C1914 C1916 1.381 . S
C1914 C1920 1.383 . S
C1915 C1911 1.495 . S
C1915 H1921 0.959 . S
C1915 H1922 0.961 . S
C1915 H1923 0.960 . S
C1916 C1914 1.381 . S
C1916 C1917 1.394 . S
C1916 H1924 0.930 . S
C1917 C1916 1.394 . S
C1917 C1918 1.383 . S
C1917 H1925 0.929 . S
C1918 C1917 1.383 . S
C1918 C1919 1.377 . S
C1919 H1903 0.930 . S
C1919 C1918 1.377 . S
C1919 C1920 1.379 . S
C1920 H1904 0.931 . S
C1920 C1914 1.383 . S
C1920 C1919 1.379 . S
H1921 C1915 0.959 . S
H1922 C1915 0.961 . S
H1923 C1915 0.960 . S
H1924 C1916 0.930 . S
H1925 C1917 0.929 . S
H1926 C1934 0.929 . S
H1927 C1936 0.930 . S
H1928 C1938 0.930 . S
H1929 C1941 0.929 . S
H1930 C1944 0.930 . S
H1931 C1946 0.960 . S
H1932 C1946 0.960 . S
H1933 C1946 0.960 . S
C1934 H1926 0.929 . S
C1934 C1935 1.377 . S
C1934 C1936 1.384 . S
C1935 C1934 1.377 . S
C1935 C1941 1.390 . S
C1936 H1927 0.930 . S
C1936 C1934 1.384 . S
C1936 C1937 1.372 . S
C1937 C1936 1.372 . S
C1937 C1938 1.400 . S
C1937 C1942 1.490 . S
C1938 H1928 0.930 . S
C1938 C1937 1.400 . S
C1938 C1941 1.386 . S
H1939 C1955 0.930 . S
H1940 C1956 0.931 . S
C1941 H1929 0.929 . S
C1941 C1935 1.390 . S
C1941 C1938 1.386 . S
C1942 C1937 1.490 . S
C1942 C1944 1.395 . S
C1942 C1945 1.403 . S
H1943 C1949 0.930 . S
C1944 H1930 0.930 . S
C1944 C1942 1.395 . S
C1944 C1947 1.403 . S
C1945 C1942 1.403 . S
C1945 C1946 1.524 . S
C1945 C1949 1.400 . S
C1946 H1931 0.960 . S
C1946 H1932 0.960 . S
C1946 H1933 0.960 . S
C1946 C1945 1.524 . S
C1947 C1944 1.403 . S
C1947 C1948 1.392 . S
C1947 C1951 1.495 . S
C1948 C1947 1.392 . S
C1948 C1949 1.385 . S
C1948 C1950 1.478 . S
C1949 H1943 0.930 . S
C1949 C1945 1.400 . S
C1949 C1948 1.385 . S
C1950 C1948 1.478 . S
C1950 C1952 1.381 . S
C1950 C1956 1.383 . S
C1951 C1947 1.495 . S
C1951 H1957 0.959 . S
C1951 H1958 0.961 . S
C1951 H1959 0.960 . S
C1952 C1950 1.381 . S
C1952 C1953 1.394 . S
C1952 H1960 0.930 . S
C1953 C1952 1.394 . S
C1953 C1954 1.383 . S
C1953 H1961 0.929 . S
C1954 C1953 1.383 . S
C1954 C1955 1.377 . S
C1955 H1939 0.930 . S
C1955 C1954 1.377 . S
C1955 C1956 1.379 . S
C1956 H1940 0.931 . S
C1956 C1950 1.383 . S
C1956 C1955 1.379 . S
H1957 C1951 0.959 . S
H1958 C1951 0.961 . S
H1959 C1951 0.960 . S
H1960 C1952 0.930 . S
H1961 C1953 0.929 . S
H1962 C1970 0.929 . S
H1963 C1972 0.930 . S
H1964 C1974 0.930 . S
H1965 C1977 0.929 . S
H1966 C1980 0.930 . S
H1967 C1982 0.960 . S
H1968 C1982 0.960 . S
H1969 C1982 0.960 . S
C1970 H1962 0.929 . S
C1970 C1971 1.377 . S
C1970 C1972 1.384 . S
C1971 C1970 1.377 . S
C1971 C1977 1.390 . S
C1972 H1963 0.930 . S
C1972 C1970 1.384 . S
C1972 C1973 1.372 . S
C1973 C1972 1.372 . S
C1973 C1974 1.400 . S
C1973 C1978 1.490 . S
C1974 H1964 0.930 . S
C1974 C1973 1.400 . S
C1974 C1977 1.386 . S
H1975 C1991 0.930 . S
H1976 C1992 0.931 . S
C1977 H1965 0.929 . S
C1977 C1971 1.390 . S
C1977 C1974 1.386 . S
C1978 C1973 1.490 . S
C1978 C1980 1.395 . S
C1978 C1981 1.403 . S
H1979 C1985 0.930 . S
C1980 H1966 0.930 . S
C1980 C1978 1.395 . S
C1980 C1983 1.403 . S
C1981 C1978 1.403 . S
C1981 C1982 1.524 . S
C1981 C1985 1.400 . S
C1982 H1967 0.960 . S
C1982 H1968 0.960 . S
C1982 H1969 0.960 . S
C1982 C1981 1.524 . S
C1983 C1980 1.403 . S
C1983 C1984 1.392 . S
C1983 C1987 1.495 . S
C1984 C1983 1.392 . S
C1984 C1985 1.385 . S
C1984 C1986 1.478 . S
C1985 H1979 0.930 . S
C1985 C1981 1.400 . S
C1985 C1984 1.385 . S
C1986 C1984 1.478 . S
C1986 C1988 1.381 . S
C1986 C1992 1.383 . S
C1987 C1983 1.495 . S
C1987 H1993 0.959 . S
C1987 H1994 0.961 . S
C1987 H1995 0.960 . S
C1988 C1986 1.381 . S
C1988 C1989 1.394 . S
C1988 H1996 0.930 . S
C1989 C1988 1.394 . S
C1989 C1990 1.383 . S
C1989 H1997 0.929 . S
C1990 C1989 1.383 . S
C1990 C1991 1.377 . S
C1991 H1975 0.930 . S
C1991 C1990 1.377 . S
C1991 C1992 1.379 . S
C1992 H1976 0.931 . S
C1992 C1986 1.383 . S
C1992 C1991 1.379 . S
H1993 C1987 0.959 . S
H1994 C1987 0.961 . S
H1995 C1987 0.960 . S
H1996 C1988 0.930 . S
H1997 C1989 0.929 . S
H1998 C2006 0.929 . S
H1999 C2008 0.930 . S
H2000 C2010 0.930 . S
H2001 C2013 0.929 . S
H2002 C2016 0.930 . S
H2003 C2018 0.960 . S
H2004 C2018 0.960 . S
H2005 C2018 0.960 . S
C2006 H1998 0.929 . S
C2006 C2007 1.377 . S
C2006 C2008 1.384 . S
C2007 C2006 1.377 . S
C2007 C2013 1.390 . S
C2008 H1999 0.930 . S
C2008 C2006 1.384 . S
C2008 C2009 1.372 . S
C2009 C2008 1.372 . S
C2009 C2010 1.400 . S
C2009 C2014 1.490 . S
C2010 H2000 0.930 . S
C2010 C2009 1.400 . S
C2010 C2013 1.386 . S
H2011 C2027 0.930 . S
H2012 C2028 0.931 . S
C2013 H2001 0.929 . S
C2013 C2007 1.390 . S
C2013 C2010 1.386 . S
C2014 C2009 1.490 . S
C2014 C2016 1.395 . S
C2014 C2017 1.403 . S
H2015 C2021 0.930 . S
C2016 H2002 0.930 . S
C2016 C2014 1.395 . S
C2016 C2019 1.403 . S
C2017 C2014 1.403 . S
C2017 C2018 1.524 . S
C2017 C2021 1.400 . S
C2018 H2003 0.960 . S
C2018 H2004 0.960 . S
C2018 H2005 0.960 . S
C2018 C2017 1.524 . S
C2019 C2016 1.403 . S
C2019 C2020 1.392 . S
C2019 C2023 1.495 . S
C2020 C2019 1.392 . S
C2020 C2021 1.385 . S
C2020 C2022 1.478 . S
C2021 H2015 0.930 . S
C2021 C2017 1.400 . S
C2021 C2020 1.385 . S
C2022 C2020 1.478 . S
C2022 C2024 1.381 . S
C2022 C2028 1.383 . S
C2023 C2019 1.495 . S
C2023 H2029 0.959 . S
C2023 H2030 0.961 . S
C2023 H2031 0.960 . S
C2024 C2022 1.381 . S
C2024 C2025 1.394 . S
C2024 H2032 0.930 . S
C2025 C2024 1.394 . S
C2025 C2026 1.383 . S
C2025 H2033 0.929 . S
C2026 C2025 1.383 . S
C2026 C2027 1.377 . S
C2027 H2011 0.930 . S
C2027 C2026 1.377 . S
C2027 C2028 1.379 . S
C2028 H2012 0.931 . S
C2028 C2022 1.383 . S
C2028 C2027 1.379 . S
H2029 C2023 0.959 . S
H2030 C2023 0.961 . S
H2031 C2023 0.960 . S
H2032 C2024 0.930 . S
H2033 C2025 0.929 . S
H2034 C2042 0.929 . S
H2035 C2044 0.930 . S
H2036 C2046 0.930 . S
H2037 C2049 0.929 . S
H2038 C2052 0.930 . S
H2039 C2054 0.960 . S
H2040 C2054 0.960 . S
H2041 C2054 0.960 . S
C2042 H2034 0.929 . S
C2042 C2043 1.377 . S
C2042 C2044 1.384 . S
C2043 C2042 1.377 . S
C2043 C2049 1.390 . S
C2044 H2035 0.930 . S
C2044 C2042 1.384 . S
C2044 C2045 1.372 . S
C2045 C2044 1.372 . S
C2045 C2046 1.400 . S
C2045 C2050 1.490 . S
C2046 H2036 0.930 . S
C2046 C2045 1.400 . S
C2046 C2049 1.386 . S
H2047 C2063 0.930 . S
H2048 C2064 0.931 . S
C2049 H2037 0.929 . S
C2049 C2043 1.390 . S
C2049 C2046 1.386 . S
C2050 C2045 1.490 . S
C2050 C2052 1.395 . S
C2050 C2053 1.403 . S
H2051 C2057 0.930 . S
C2052 H2038 0.930 . S
C2052 C2050 1.395 . S
C2052 C2055 1.403 . S
C2053 C2050 1.403 . S
C2053 C2054 1.524 . S
C2053 C2057 1.400 . S
C2054 H2039 0.960 . S
C2054 H2040 0.960 . S
C2054 H2041 0.960 . S
C2054 C2053 1.524 . S
C2055 C2052 1.403 . S
C2055 C2056 1.392 . S
C2055 C2059 1.495 . S
C2056 C2055 1.392 . S
C2056 C2057 1.385 . S
C2056 C2058 1.478 . S
C2057 H2051 0.930 . S
C2057 C2053 1.400 . S
C2057 C2056 1.385 . S
C2058 C2056 1.478 . S
C2058 C2060 1.381 . S
C2058 C2064 1.383 . S
C2059 C2055 1.495 . S
C2059 H2065 0.959 . S
C2059 H2066 0.961 . S
C2059 H2067 0.960 . S
C2060 C2058 1.381 . S
C2060 C2061 1.394 . S
C2060 H2068 0.930 . S
C2061 C2060 1.394 . S
C2061 C2062 1.383 . S
C2061 H2069 0.929 . S
C2062 C2061 1.383 . S
C2062 C2063 1.377 . S
C2063 H2047 0.930 . S
C2063 C2062 1.377 . S
C2063 C2064 1.379 . S
C2064 H2048 0.931 . S
C2064 C2058 1.383 . S
C2064 C2063 1.379 . S
H2065 C2059 0.959 . S
H2066 C2059 0.961 . S
H2067 C2059 0.960 . S
H2068 C2060 0.930 . S
H2069 C2061 0.929 . S
H2070 C2078 0.929 . S
H2071 C2080 0.930 . S
H2072 C2082 0.930 . S
H2073 C2085 0.929 . S
H2074 C2088 0.930 . S
H2075 C2090 0.960 . S
H2076 C2090 0.960 . S
H2077 C2090 0.960 . S
C2078 H2070 0.929 . S
C2078 C2079 1.377 . S
C2078 C2080 1.384 . S
C2079 C2078 1.377 . S
C2079 C2085 1.390 . S
C2080 H2071 0.930 . S
C2080 C2078 1.384 . S
C2080 C2081 1.372 . S
C2081 C2080 1.372 . S
C2081 C2082 1.400 . S
C2081 C2086 1.490 . S
C2082 H2072 0.930 . S
C2082 C2081 1.400 . S
C2082 C2085 1.386 . S
H2083 C2099 0.930 . S
H2084 C2100 0.931 . S
C2085 H2073 0.929 . S
C2085 C2079 1.390 . S
C2085 C2082 1.386 . S
C2086 C2081 1.490 . S
C2086 C2088 1.395 . S
C2086 C2089 1.403 . S
H2087 C2093 0.930 . S
C2088 H2074 0.930 . S
C2088 C2086 1.395 . S
C2088 C2091 1.403 . S
C2089 C2086 1.403 . S
C2089 C2090 1.524 . S
C2089 C2093 1.400 . S
C2090 H2075 0.960 . S
C2090 H2076 0.960 . S
C2090 H2077 0.960 . S
C2090 C2089 1.524 . S
C2091 C2088 1.403 . S
C2091 C2092 1.392 . S
C2091 C2095 1.495 . S
C2092 C2091 1.392 . S
C2092 C2093 1.385 . S
C2092 C2094 1.478 . S
C2093 H2087 0.930 . S
C2093 C2089 1.400 . S
C2093 C2092 1.385 . S
C2094 C2092 1.478 . S
C2094 C2096 1.381 . S
C2094 C2100 1.383 . S
C2095 C2091 1.495 . S
C2095 H2101 0.959 . S
C2095 H2102 0.961 . S
C2095 H2103 0.960 . S
C2096 C2094 1.381 . S
C2096 C2097 1.394 . S
C2096 H2104 0.930 . S
C2097 C2096 1.394 . S
C2097 C2098 1.383 . S
C2097 H2105 0.929 . S
C2098 C2097 1.383 . S
C2098 C2099 1.377 . S
C2099 H2083 0.930 . S
C2099 C2098 1.377 . S
C2099 C2100 1.379 . S
C2100 H2084 0.931 . S
C2100 C2094 1.383 . S
C2100 C2099 1.379 . S
H2101 C2095 0.959 . S
H2102 C2095 0.961 . S
H2103 C2095 0.960 . S
H2104 C2096 0.930 . S
H2105 C2097 0.929 . S
H2106 C2114 0.929 . S
H2107 C2116 0.930 . S
H2108 C2118 0.930 . S
H2109 C2121 0.929 . S
H2110 C2124 0.930 . S
H2111 C2126 0.960 . S
H2112 C2126 0.960 . S
H2113 C2126 0.960 . S
C2114 H2106 0.929 . S
C2114 C2115 1.377 . S
C2114 C2116 1.384 . S
C2115 C2114 1.377 . S
C2115 C2121 1.390 . S
C2116 H2107 0.930 . S
C2116 C2114 1.384 . S
C2116 C2117 1.372 . S
C2117 C2116 1.372 . S
C2117 C2118 1.400 . S
C2117 C2122 1.490 . S
C2118 H2108 0.930 . S
C2118 C2117 1.400 . S
C2118 C2121 1.386 . S
H2119 C2135 0.930 . S
H2120 C2136 0.931 . S
C2121 H2109 0.929 . S
C2121 C2115 1.390 . S
C2121 C2118 1.386 . S
C2122 C2117 1.490 . S
C2122 C2124 1.395 . S
C2122 C2125 1.403 . S
H2123 C2129 0.930 . S
C2124 H2110 0.930 . S
C2124 C2122 1.395 . S
C2124 C2127 1.403 . S
C2125 C2122 1.403 . S
C2125 C2126 1.524 . S
C2125 C2129 1.400 . S
C2126 H2111 0.960 . S
C2126 H2112 0.960 . S
C2126 H2113 0.960 . S
C2126 C2125 1.524 . S
C2127 C2124 1.403 . S
C2127 C2128 1.392 . S
C2127 C2131 1.495 . S
C2128 C2127 1.392 . S
C2128 C2129 1.385 . S
C2128 C2130 1.478 . S
C2129 H2123 0.930 . S
C2129 C2125 1.400 . S
C2129 C2128 1.385 . S
C2130 C2128 1.478 . S
C2130 C2132 1.381 . S
C2130 C2136 1.383 . S
C2131 C2127 1.495 . S
C2131 H2137 0.959 . S
C2131 H2138 0.961 . S
C2131 H2139 0.960 . S
C2132 C2130 1.381 . S
C2132 C2133 1.394 . S
C2132 H2140 0.930 . S
C2133 C2132 1.394 . S
C2133 C2134 1.383 . S
C2133 H2141 0.929 . S
C2134 C2133 1.383 . S
C2134 C2135 1.377 . S
C2135 H2119 0.930 . S
C2135 C2134 1.377 . S
C2135 C2136 1.379 . S
C2136 H2120 0.931 . S
C2136 C2130 1.383 . S
C2136 C2135 1.379 . S
H2137 C2131 0.959 . S
H2138 C2131 0.961 . S
H2139 C2131 0.960 . S
H2140 C2132 0.930 . S
H2141 C2133 0.929 . S
H2142 C2150 0.929 . S
H2143 C2152 0.930 . S
H2144 C2154 0.930 . S
H2145 C2157 0.929 . S
H2146 C2160 0.930 . S
H2147 C2162 0.960 . S
H2148 C2162 0.960 . S
H2149 C2162 0.960 . S
C2150 H2142 0.929 . S
C2150 C2151 1.377 . S
C2150 C2152 1.384 . S
C2151 C2150 1.377 . S
C2151 C2157 1.390 . S
C2152 H2143 0.930 . S
C2152 C2150 1.384 . S
C2152 C2153 1.372 . S
C2153 C2152 1.372 . S
C2153 C2154 1.400 . S
C2153 C2158 1.490 . S
C2154 H2144 0.930 . S
C2154 C2153 1.400 . S
C2154 C2157 1.386 . S
H2155 C2171 0.930 . S
H2156 C2172 0.931 . S
C2157 H2145 0.929 . S
C2157 C2151 1.390 . S
C2157 C2154 1.386 . S
C2158 C2153 1.490 . S
C2158 C2160 1.395 . S
C2158 C2161 1.403 . S
H2159 C2165 0.930 . S
C2160 H2146 0.930 . S
C2160 C2158 1.395 . S
C2160 C2163 1.403 . S
C2161 C2158 1.403 . S
C2161 C2162 1.524 . S
C2161 C2165 1.400 . S
C2162 H2147 0.960 . S
C2162 H2148 0.960 . S
C2162 H2149 0.960 . S
C2162 C2161 1.524 . S
C2163 C2160 1.403 . S
C2163 C2164 1.392 . S
C2163 C2167 1.495 . S
C2164 C2163 1.392 . S
C2164 C2165 1.385 . S
C2164 C2166 1.478 . S
C2165 H2159 0.930 . S
C2165 C2161 1.400 . S
C2165 C2164 1.385 . S
C2166 C2164 1.478 . S
C2166 C2168 1.381 . S
C2166 C2172 1.383 . S
C2167 C2163 1.495 . S
C2167 H2173 0.959 . S
C2167 H2174 0.961 . S
C2167 H2175 0.960 . S
C2168 C2166 1.381 . S
C2168 C2169 1.394 . S
C2168 H2176 0.930 . S
C2169 C2168 1.394 . S
C2169 C2170 1.383 . S
C2169 H2177 0.929 . S
C2170 C2169 1.383 . S
C2170 C2171 1.377 . S
C2171 H2155 0.930 . S
C2171 C2170 1.377 . S
C2171 C2172 1.379 . S
C2172 H2156 0.931 . S
C2172 C2166 1.383 . S
C2172 C2171 1.379 . S
H2173 C2167 0.959 . S
H2174 C2167 0.961 . S
H2175 C2167 0.960 . S
H2176 C2168 0.930 . S
H2177 C2169 0.929 . S
H2178 C2186 0.929 . S
H2179 C2188 0.930 . S
H2180 C2190 0.930 . S
H2181 C2193 0.929 . S
H2182 C2196 0.930 . S
H2183 C2198 0.960 . S
H2184 C2198 0.960 . S
H2185 C2198 0.960 . S
C2186 H2178 0.929 . S
C2186 C2187 1.377 . S
C2186 C2188 1.384 . S
C2187 C2186 1.377 . S
C2187 C2193 1.390 . S
C2188 H2179 0.930 . S
C2188 C2186 1.384 . S
C2188 C2189 1.372 . S
C2189 C2188 1.372 . S
C2189 C2190 1.400 . S
C2189 C2194 1.490 . S
C2190 H2180 0.930 . S
C2190 C2189 1.400 . S
C2190 C2193 1.386 . S
H2191 C2207 0.930 . S
H2192 C2208 0.931 . S
C2193 H2181 0.929 . S
C2193 C2187 1.390 . S
C2193 C2190 1.386 . S
C2194 C2189 1.490 . S
C2194 C2196 1.395 . S
C2194 C2197 1.403 . S
H2195 C2201 0.930 . S
C2196 H2182 0.930 . S
C2196 C2194 1.395 . S
C2196 C2199 1.403 . S
C2197 C2194 1.403 . S
C2197 C2198 1.524 . S
C2197 C2201 1.400 . S
C2198 H2183 0.960 . S
C2198 H2184 0.960 . S
C2198 H2185 0.960 . S
C2198 C2197 1.524 . S
C2199 C2196 1.403 . S
C2199 C2200 1.392 . S
C2199 C2203 1.495 . S
C2200 C2199 1.392 . S
C2200 C2201 1.385 . S
C2200 C2202 1.478 . S
C2201 H2195 0.930 . S
C2201 C2197 1.400 . S
C2201 C2200 1.385 . S
C2202 C2200 1.478 . S
C2202 C2204 1.381 . S
C2202 C2208 1.383 . S
C2203 C2199 1.495 . S
C2203 H2209 0.959 . S
C2203 H2210 0.961 . S
C2203 H2211 0.960 . S
C2204 C2202 1.381 . S
C2204 C2205 1.394 . S
C2204 H2212 0.930 . S
C2205 C2204 1.394 . S
C2205 C2206 1.383 . S
C2205 H2213 0.929 . S
C2206 C2205 1.383 . S
C2206 C2207 1.377 . S
C2207 H2191 0.930 . S
C2207 C2206 1.377 . S
C2207 C2208 1.379 . S
C2208 H2192 0.931 . S
C2208 C2202 1.383 . S
C2208 C2207 1.379 . S
H2209 C2203 0.959 . S
H2210 C2203 0.961 . S
H2211 C2203 0.960 . S
H2212 C2204 0.930 . S
H2213 C2205 0.929 . S
C603 N302 0.525 . S
C622 N5 0.516 . S
C639 N335 0.522 . S
C658 N38 0.473 . S
C675 N368 0.521 . S
C694 N71 0.477 . S
C711 N104 0.522 . S
C730 N401 0.490 . S
C747 N434 0.543 . S
C766 N137 0.592 . S
C783 N467 0.527 . S
C802 N170 0.483 . S
C819 N203 0.547 . S
C838 N500 0.584 . S
C855 N533 0.521 . S
C874 N236 0.477 . S
C891 N566 0.545 . S
C910 N269 0.596 . S
C927 C589 1.860 . S
C946 C28 1.856 . S
C963 C523 1.859 . S
C982 C61 1.859 . S
C999 C94 1.858 . S
C1018 C556 1.850 . S
C1035 C259 1.860 . S
C1054 C127 1.859 . S
C1071 C292 1.858 . S
C1090 C160 1.856 . S
C1107 C193 1.859 . S
C1126 C226 1.856 . S
C1143 C325 1.859 . S
C1162 C457 1.859 . S
C1179 C490 1.858 . S
C1198 C358 1.855 . S
C1215 C391 1.858 . S
C1234 C424 1.850 . S
C1251 C17 1.170 . S
C1270 C149 1.140 . S
C1287 C182 1.168 . S
C1306 C50 1.157 . S
C1323 C116 1.180 . S
C1342 C83 1.166 . S
C1359 C347 1.178 . S
C1378 C215 1.205 . S
C1395 C248 1.177 . S
C1414 C380 1.152 . S
C1431 C314 1.172 . S
C1450 C281 1.139 . S
C1467 C413 1.182 . S
C1486 C545 1.190 . S
C1503 C578 1.182 . S
C1522 C446 1.191 . S
C1539 C479 1.169 . S
C1558 C512 1.171 . S
C1575 C74 1.005 . S
C1594 N14 1.001 . S
C1611 C8 0.994 . S
C1630 N47 1.033 . S
C1647 C41 0.997 . S
C1666 N80 1.027 . S
C1683 C140 1.008 . S
C1702 N113 0.996 . S
C1719 N146 1.020 . S
C1738 C173 0.966 . S
C1755 C107 0.994 . S
C1774 N179 1.033 . S
C1791 C272 1.007 . S
C1810 N212 0.996 . S
C1827 C206 1.008 . S
C1846 N245 0.995 . S
C1863 N278 1.016 . S
C1882 C239 0.991 . S
C1899 N311 1.015 . S
C1918 C338 0.998 . S
C1935 C371 1.001 . S
C1954 N344 1.011 . S
C1971 C305 1.001 . S
C1990 N377 1.018 . S
C2007 N410 1.015 . S
C2026 C470 1.007 . S
C2043 C404 1.004 . S
C2062 N443 1.003 . S
C2079 C437 1.005 . S
C2098 N476 1.006 . S
C2115 C536 1.006 . S
C2134 N509 0.999 . S
C2151 C569 0.998 . S
C2170 N542 1.025 . S
C2187 C503 0.997 . S
C2206 N575 1.028 . S
