# Generated by pormake.
# Topology ukh, (4)-cn, num edge types: 1
# Building blocks:
#     Node 0, Type 0, BuildingBlock: ICAMEG_clean_sbu_1, # of connection points: 4
#     Node 1, Type 0, BuildingBlock: ICAMEG_clean_sbu_1, # of connection points: 4
#     Node 2, Type 0, BuildingBlock: ICAMEG_clean_sbu_1, # of connection points: 4
#     Node 3, Type 0, BuildingBlock: ICAMEG_clean_sbu_1, # of connection points: 4
#     Node 4, Type 0, BuildingBlock: ICAMEG_clean_sbu_1, # of connection points: 4
#     Node 5, Type 0, BuildingBlock: ICAMEG_clean_sbu_1, # of connection points: 4
#     Node 6, Type 0, BuildingBlock: ICAMEG_clean_sbu_1, # of connection points: 4
#     Node 7, Type 0, BuildingBlock: ICAMEG_clean_sbu_1, # of connection points: 4
#     Node 8, Type 0, BuildingBlock: ICAMEG_clean_sbu_1, # of connection points: 4
#     Node 9, Type 0, BuildingBlock: ICAMEG_clean_sbu_1, # of connection points: 4
#     Node 10, Type 0, BuildingBlock: ICAMEG_clean_sbu_1, # of connection points: 4
#     Node 11, Type 0, BuildingBlock: ICAMEG_clean_sbu_1, # of connection points: 4
#     Edge 12, Type (0, 0), BuildingBlock: AJUNOK_clean_linker_0, # of connection points: 2
#     Edge 13, Type (0, 0), BuildingBlock: AJUNOK_clean_linker_0, # of connection points: 2
#     Edge 14, Type (0, 0), BuildingBlock: AJUNOK_clean_linker_0, # of connection points: 2
#     Edge 15, Type (0, 0), BuildingBlock: AJUNOK_clean_linker_0, # of connection points: 2
#     Edge 16, Type (0, 0), BuildingBlock: AJUNOK_clean_linker_0, # of connection points: 2
#     Edge 17, Type (0, 0), BuildingBlock: AJUNOK_clean_linker_0, # of connection points: 2
#     Edge 18, Type (0, 0), BuildingBlock: AJUNOK_clean_linker_0, # of connection points: 2
#     Edge 19, Type (0, 0), BuildingBlock: AJUNOK_clean_linker_0, # of connection points: 2
#     Edge 20, Type (0, 0), BuildingBlock: AJUNOK_clean_linker_0, # of connection points: 2
#     Edge 21, Type (0, 0), BuildingBlock: AJUNOK_clean_linker_0, # of connection points: 2
#     Edge 22, Type (0, 0), BuildingBlock: AJUNOK_clean_linker_0, # of connection points: 2
#     Edge 23, Type (0, 0), BuildingBlock: AJUNOK_clean_linker_0, # of connection points: 2
#     Edge 24, Type (0, 0), BuildingBlock: AJUNOK_clean_linker_0, # of connection points: 2
#     Edge 25, Type (0, 0), BuildingBlock: AJUNOK_clean_linker_0, # of connection points: 2
#     Edge 26, Type (0, 0), BuildingBlock: AJUNOK_clean_linker_0, # of connection points: 2
#     Edge 27, Type (0, 0), BuildingBlock: AJUNOK_clean_linker_0, # of connection points: 2
#     Edge 28, Type (0, 0), BuildingBlock: AJUNOK_clean_linker_0, # of connection points: 2
#     Edge 29, Type (0, 0), BuildingBlock: AJUNOK_clean_linker_0, # of connection points: 2
#     Edge 30, Type (0, 0), BuildingBlock: AJUNOK_clean_linker_0, # of connection points: 2
#     Edge 31, Type (0, 0), BuildingBlock: AJUNOK_clean_linker_0, # of connection points: 2
#     Edge 32, Type (0, 0), BuildingBlock: AJUNOK_clean_linker_0, # of connection points: 2
#     Edge 33, Type (0, 0), BuildingBlock: AJUNOK_clean_linker_0, # of connection points: 2
#     Edge 34, Type (0, 0), BuildingBlock: AJUNOK_clean_linker_0, # of connection points: 2
#     Edge 35, Type (0, 0), BuildingBlock: AJUNOK_clean_linker_0, # of connection points: 2
# Relax obj value: 0.031
# Max RMSD: 0.046
# Mean RMSD: 0.046
data_MOF--net-ukh--node1-ICAMEG_clean_sbu_1--edge1-AJUNOK_clean_linker_0
_symmetry_space_group_name_H-M    P1
_symmetry_Int_Tables_number       1
_symmetry_cell_setting            triclinic
loop_
_symmetry_equiv_pos_as_xyz
'x, y, z'
_cell_length_a     25.512472
_cell_length_b     25.538834
_cell_length_c     52.524034
_cell_angle_alpha  89.917791
_cell_angle_beta   90.052769
_cell_angle_gamma 120.12028
loop_
_atom_site_label
_atom_site_type_symbol
_atom_site_fract_x
_atom_site_fract_y
_atom_site_fract_z
_atom_type_partial_charge
Co0 Co 0.35735 0.25024 0.02824 0.0
Co1 Co 0.24073 0.20301 0.07208 0.0
O2 O 0.32708 0.24278 0.06332 0.0
C3 C 0.41925 0.37875 0.04495 0.0
O4 O 0.36616 0.36841 0.05296 0.0
C5 C 0.2985 0.16954 0.11502 0.0
O6 O 0.34924 0.18999 0.10226 0.0
O7 O 0.22475 0.12794 0.05281 0.0
O8 O 0.2908 0.16563 0.02007 0.0
H9 H 0.01944 0.10012 0.05028 0.0
H10 H 0.44533 0.28185 0.07052 0.0
O11 O 0.42416 0.33557 0.03529 0.0
H12 H 0.44249 0.11007 0.02646 0.0
H13 H 0.52115 0.31248 0.96223 0.0
H14 H 0.30133 0.2169 0.97699 0.0
H15 H 0.37866 0.15099 0.01134 0.0
H16 H 0.48087 0.30177 0.00578 0.0
O17 O 0.25282 0.16884 0.10477 0.0
H18 H 0.12756 0.13714 0.04194 0.0
H19 H 0.16943 0.18736 0.11957 0.0
H20 H 0.33936 0.22589 0.93314 0.0
H21 H 0.51063 0.24293 0.08606 0.0
H22 H 0.45017 0.2741 0.92554 0.0
H23 H 0.50928 0.15626 0.06402 0.0
O24 O 0.30533 0.28239 0.01551 0.0
H25 H 0.3592 0.38145 0.13012 0.0
H26 H 0.17973 0.27679 0.07472 0.0
H27 H 0.20035 0.37032 0.09674 0.0
H28 H 0.29068 0.42342 0.12467 0.0
H29 H 0.33716 0.28816 0.10773 0.0
H30 H 0.06133 0.14732 0.12905 0.0
H31 H 0.98572 0.10526 0.09407 0.0
O32 O 0.2242 0.23636 0.04105 0.0
C33 C 0.24493 0.12225 0.03121 0.0
C34 C 0.05203 0.11866 0.06565 0.0
C35 C 0.07548 0.14491 0.10988 0.0
N36 N 0.15494 0.16444 0.08024 0.0
C37 C 0.1133 0.13951 0.06107 0.0
C38 C 0.13655 0.16649 0.10449 0.0
C39 C 0.03312 0.12155 0.09023 0.0
C40 C 0.44489 0.24447 0.06071 0.0
N41 N 0.40814 0.21868 0.0401 0.0
C42 C 0.48178 0.22246 0.06965 0.0
C43 C 0.48092 0.17377 0.05731 0.0
C44 C 0.44339 0.14777 0.03625 0.0
C45 C 0.40709 0.17094 0.02787 0.0
C46 C 0.47278 0.29122 0.9653 0.0
C47 C 0.34939 0.23729 0.97385 0.0
C48 C 0.4497 0.28511 0.98991 0.0
N49 N 0.38864 0.25803 0.99394 0.0
C50 C 0.37077 0.24256 0.94897 0.0
C51 C 0.43293 0.26967 0.94472 0.0
C52 C 0.25209 0.26918 0.02203 0.0
C53 C 0.31944 0.35851 0.11814 0.0
C54 C 0.219 0.29933 0.08694 0.0
C55 C 0.23044 0.35237 0.09935 0.0
C56 C 0.28108 0.38211 0.11503 0.0
N57 N 0.25652 0.27604 0.09021 0.0
C58 C 0.30641 0.30522 0.10551 0.0
Co59 Co 0.08851 0.34098 0.36042 0.0
Co60 Co 0.06528 0.25011 0.41205 0.0
O61 O 0.09233 0.33034 0.39735 0.0
C62 C 0.03051 0.40666 0.38211 0.0
O63 O 0.99974 0.36021 0.39724 0.0
C64 C 0.16041 0.33858 0.44922 0.0
O65 O 0.16824 0.38665 0.43682 0.0
O66 O 0.12469 0.24141 0.38988 0.0
O67 O 0.10897 0.2756 0.3529 0.0
H68 H 0.97716 0.02522 0.4074 0.0
H69 H 0.16621 0.44825 0.3921 0.0
O70 O 0.06844 0.40673 0.36636 0.0
H71 H 0.30459 0.43543 0.33022 0.0
H72 H 0.12639 0.46249 0.27997 0.0
H73 H 0.03096 0.2575 0.31696 0.0
H74 H 0.19517 0.36105 0.32938 0.0
H75 H 0.13363 0.44827 0.32604 0.0
O76 O 0.1268 0.28545 0.44031 0.0
H77 H 0.02685 0.12883 0.39016 0.0
H78 H 0.04745 0.20012 0.46493 0.0
H79 H 0.02289 0.26951 0.2708 0.0
H80 H 0.27531 0.52396 0.3935 0.0
H81 H 0.07095 0.37268 0.25199 0.0
H82 H 0.3453 0.51775 0.36241 0.0
O83 O 1.00049 0.28005 0.36026 0.0
H84 H 0.98819 0.3576 0.46867 0.0
H85 H 0.93563 0.16691 0.42503 0.0
H86 H 0.85856 0.17317 0.45066 0.0
H87 H 0.88463 0.26882 0.47302 0.0
H88 H 0.06296 0.35008 0.44229 0.0
H89 H 1.00198 0.09751 0.48302 0.0
H90 H 0.96356 0.00895 0.45416 0.0
O91 O 1.00199 0.21041 0.38536 0.0
C92 C 0.12874 0.24613 0.36555 0.0
C93 C 0.99359 0.06343 0.4202 0.0
C94 C 1.00734 0.10402 0.46262 0.0
N95 N 0.03914 0.17056 0.42643 0.0
C96 C 0.02151 0.12227 0.41053 0.0
C97 C 0.03388 0.16216 0.45224 0.0
C98 C 0.98599 0.05435 0.44641 0.0
C99 C 0.19638 0.44545 0.37846 0.0
N100 N 0.17436 0.40035 0.3607 0.0
C101 C 0.25811 0.48835 0.37936 0.0
C102 C 0.29736 0.4848 0.36193 0.0
C103 C 0.27456 0.4386 0.34388 0.0
C104 C 0.21258 0.39648 0.34356 0.0
C105 C 0.10563 0.4173 0.2879 0.0
C106 C 0.05264 0.30246 0.30888 0.0
C107 C 0.10965 0.40897 0.31397 0.0
N108 N 0.08389 0.35202 0.32409 0.0
C109 C 0.04762 0.30901 0.28274 0.0
C110 C 0.07449 0.3669 0.27221 0.0
C111 C 0.97556 0.22668 0.36934 0.0
C112 C 0.97656 0.31526 0.45943 0.0
C113 C 0.9479 0.20877 0.43471 0.0
C114 C 0.90378 0.21198 0.44923 0.0
C115 C 0.91841 0.26558 0.46176 0.0
N116 N 1.00551 0.25728 0.43286 0.0
C117 C 0.01949 0.31034 0.44473 0.0
Co118 Co 0.7549 0.10047 0.69763 0.0
Co119 Co 0.82075 0.05063 0.74082 0.0
O120 O 0.7693 0.08568 0.7331 0.0
C121 C 0.63122 0.03627 0.7201 0.0
O122 O 0.64606 0.99983 0.73148 0.0
C123 C 0.84281 0.14006 0.78288 0.0
O124 O 0.83164 0.1736 0.76738 0.0
O125 O 0.88984 0.11883 0.72199 0.0
O126 O 0.84 0.12127 0.68716 0.0
H127 H 0.9602 0.97381 0.71604 0.0
H128 H 0.72792 0.16321 0.73848 0.0
O129 O 0.66963 0.07976 0.70632 0.0
H130 H 0.88538 0.32587 0.6857 0.0
H131 H 0.67589 0.18124 0.6292 0.0
H132 H 0.77793 0.06476 0.6471 0.0
H133 H 0.84634 0.21871 0.67478 0.0
H134 H 0.69616 0.1639 0.67343 0.0
O135 O 0.84663 0.09538 0.77428 0.0
H136 H 0.90247 0.02618 0.70933 0.0
H137 H 0.84937 0.9998 0.78693 0.0
H138 H 0.75936 0.08153 0.60256 0.0
H139 H 0.76501 0.26987 0.74987 0.0
H140 H 0.70792 0.14023 0.59338 0.0
H141 H 0.8445 0.35205 0.72343 0.0
O142 O 0.72371 0.01402 0.68921 0.0
H143 H 0.64417 0.95804 0.80144 0.0
H144 H 0.76592 0.91599 0.74085 0.0
H145 H 0.68138 0.83138 0.76358 0.0
H146 H 0.61987 0.85209 0.79419 0.0
H147 H 0.72881 0.04124 0.77824 0.0
H148 H 0.90884 0.94977 0.79483 0.0
H149 H 0.96334 0.93473 0.759 0.0
O150 O 0.79466 1.00209 0.70899 0.0
C151 C 0.88914 0.13287 0.69859 0.0
C152 C 0.93654 0.97996 0.73181 0.0
C153 C 0.90781 0.96657 0.77601 0.0
N154 N 0.87238 0.0163 0.74778 0.0
C155 C 0.90375 0.00969 0.72815 0.0
C156 C 0.87486 0.99585 0.77155 0.0
C157 C 0.93825 0.95802 0.7559 0.0
C158 C 0.76214 0.19876 0.72677 0.0
N159 N 0.785 0.18476 0.70604 0.0
C160 C 0.78314 0.25905 0.73337 0.0
C161 C 0.82781 0.30513 0.71855 0.0
C162 C 0.85083 0.29048 0.6974 0.0
C163 C 0.82878 0.22969 0.69139 0.0
C164 C 0.69867 0.15592 0.63294 0.0
C165 C 0.75637 0.09097 0.64323 0.0
C166 C 0.71029 0.14596 0.65795 0.0
N167 N 0.73943 0.11438 0.66281 0.0
C168 C 0.74558 0.10004 0.61798 0.0
C169 C 0.71664 0.13289 0.61285 0.0
C170 C 0.7496 0.98371 0.69408 0.0
C171 C 0.67084 0.94842 0.78826 0.0
C172 C 0.73947 0.92554 0.75413 0.0
C173 C 0.69163 0.87736 0.76697 0.0
C174 C 0.65717 0.88901 0.78415 0.0
N175 N 0.75313 0.98386 0.75846 0.0
C176 C 0.71916 0.99548 0.77515 0.0
Co177 Co 0.68712 0.75879 0.0339 0.0
Co178 Co 0.78451 0.83629 0.08253 0.0
O179 O 0.70349 0.77755 0.07013 0.0
C180 C 0.62514 0.62469 0.03399 0.0
O181 O 0.66689 0.63119 0.01762 0.0
C182 C 0.69739 0.84003 0.1211 0.0
O183 O 0.64918 0.80129 0.10831 0.0
O184 O 0.78507 0.89986 0.0598 0.0
O185 O 0.74711 0.84554 0.02403 0.0
H186 H 1.00293 0.99582 0.07204 0.0
H187 H 0.58352 0.72511 0.06862 0.0
O188 O 0.62666 0.67178 0.04323 0.0
H189 H 0.57507 0.86487 0.0061 0.0
H190 H 0.5534 0.66373 0.95726 0.0
H191 H 0.76375 0.78415 0.98805 0.0
H192 H 0.65481 0.83747 1.00337 0.0
H193 H 0.57458 0.6891 1.00281 0.0
O194 O 0.75016 0.86085 0.11158 0.0
H195 H 0.89845 0.92784 0.05764 0.0
H196 H 0.8427 0.87281 0.13392 0.0
H197 H 0.74472 0.75998 0.94235 0.0
H198 H 0.50245 0.75058 0.07186 0.0
H199 H 0.63885 0.69942 0.92667 0.0
H200 H 0.49795 0.82108 0.04046 0.0
O201 O 0.75278 0.73827 0.03238 0.0
H202 H 0.69089 0.65347 0.14049 0.0
H203 H 0.87592 0.7998 0.09505 0.0
H204 H 0.87689 0.71984 0.12072 0.0
H205 H 0.78404 0.64611 0.14394 0.0
H206 H 0.69147 0.73312 0.11425 0.0
H207 H 0.94564 0.94429 0.14934 0.0
H208 H 0.02711 1.00554 0.11824 0.0
O209 O 0.82395 0.81446 0.05507 0.0
C210 C 0.77681 0.89644 0.03561 0.0
C211 C 0.96778 0.97026 0.08584 0.0
C212 C 0.9357 0.94086 0.12917 0.0
N213 N 0.86459 0.8956 0.09484 0.0
C214 C 0.90854 0.93114 0.07776 0.0
C215 C 0.87729 0.90091 0.12033 0.0
C216 C 0.98135 0.97525 0.11173 0.0
C217 C 0.58157 0.75541 0.05478 0.0
N218 N 0.6237 0.77952 0.03579 0.0
C219 C 0.5357 0.76986 0.05676 0.0
C220 C 0.53325 0.80947 0.03916 0.0
C221 C 0.57653 0.8341 0.01989 0.0
C222 C 0.62176 0.81862 0.01851 0.0
C223 C 0.59971 0.69043 0.96383 0.0
C224 C 0.71758 0.75813 0.98135 0.0
C225 C 0.61197 0.70508 0.98958 0.0
N226 N 0.67036 0.73898 0.99801 0.0
C227 C 0.70707 0.74442 0.95546 0.0
C228 C 0.64768 0.71043 0.94668 0.0
C229 C 0.80735 0.77019 0.03988 0.0
C230 C 0.73192 0.68585 0.13077 0.0
C231 C 0.83532 0.76832 0.10509 0.0
C232 C 0.83616 0.72294 0.11963 0.0
C233 C 0.7841 0.68161 0.13264 0.0
N234 N 0.78435 0.77321 0.10371 0.0
C235 C 0.73278 0.73184 0.11602 0.0
Co236 Co 0.92276 0.67079 0.36107 0.0
Co237 Co 0.95517 0.76277 0.41337 0.0
O238 O 0.92499 0.68262 0.39814 0.0
C239 C 0.98608 0.60868 0.38096 0.0
O240 O 0.01752 0.65603 0.39552 0.0
C241 C 0.8586 0.67483 0.45024 0.0
O242 O 0.84873 0.62649 0.43755 0.0
O243 O 0.89567 0.77444 0.39263 0.0
O244 O 0.89872 0.73408 0.3551 0.0
H245 H 0.04905 0.98857 0.41054 0.0
H246 H 0.85298 0.56388 0.39425 0.0
O247 O 0.94623 0.60698 0.3658 0.0
H248 H 0.70166 0.56997 0.33774 0.0
H249 H 0.87686 0.54712 0.28097 0.0
H250 H 0.9659 0.75299 0.31648 0.0
H251 H 0.80996 0.64657 0.33383 0.0
H252 H 0.87723 0.56261 0.32734 0.0
O253 O 0.89493 0.72795 0.44196 0.0
H254 H 0.99627 0.88569 0.39257 0.0
H255 H 0.97723 0.8107 0.46659 0.0
H256 H 0.96627 0.7396 0.27001 0.0
H257 H 0.74514 0.486 0.39868 0.0
H258 H 0.92148 0.63603 0.25197 0.0
H259 H 0.66863 0.48883 0.37031 0.0
O260 O 0.00997 0.7331 0.3581 0.0
H261 H 0.02855 0.64957 0.4686 0.0
H262 H 0.0865 0.84155 0.42466 0.0
H263 H 0.16307 0.83141 0.44909 0.0
H264 H 0.13429 0.73509 0.47157 0.0
H265 H 0.95425 0.66075 0.44328 0.0
H266 H 0.0256 0.91262 0.48546 0.0
H267 H 0.06437 1.00262 0.45731 0.0
O268 O 0.01714 0.80183 0.38618 0.0
C269 C 0.88386 0.76606 0.36877 0.0
C270 C 0.03227 0.94974 0.42303 0.0
C271 C 0.01935 0.90709 0.46506 0.0
N272 N 0.98453 0.84216 0.42842 0.0
C273 C 1.00268 0.89131 0.41294 0.0
C274 C 0.9912 0.84938 0.45425 0.0
C275 C 0.04098 0.95757 0.44925 0.0
C276 C 0.81997 0.56524 0.38178 0.0
N277 N 0.83774 0.60974 0.36384 0.0
C278 C 0.75897 0.5211 0.3844 0.0
C279 C 0.71606 0.52275 0.3685 0.0
C280 C 0.73455 0.56829 0.35023 0.0
C281 C 0.79593 0.61169 0.34817 0.0
C282 C 0.89636 0.59246 0.2886 0.0
C283 C 0.94593 0.70777 0.30876 0.0
C284 C 0.89675 0.6015 0.31484 0.0
N285 N 0.92107 0.65862 0.32458 0.0
C286 C 0.94644 0.70048 0.28244 0.0
C287 C 0.92139 0.64236 0.27233 0.0
C288 C 0.03854 0.78558 0.36798 0.0
C289 C 0.04147 0.6921 0.4592 0.0
C290 C 0.07319 0.79933 0.4343 0.0
C291 C 0.11697 0.79395 0.44817 0.0
C292 C 0.10082 0.73998 0.46078 0.0
N293 N 0.01455 0.75254 0.4331 0.0
C294 C 0.99893 0.69912 0.4451 0.0
Co295 Co 0.2559 0.91212 0.69749 0.0
Co296 Co 0.19264 0.9603 0.74367 0.0
O297 O 0.24108 0.92381 0.73327 0.0
C298 C 0.37999 0.979 0.71957 0.0
O299 O 0.36372 0.01379 0.73141 0.0
C300 C 0.16724 0.86379 0.78321 0.0
O301 O 0.19573 0.84247 0.76983 0.0
O302 O 0.12329 0.90155 0.72155 0.0
O303 O 0.1704 0.88955 0.6877 0.0
H304 H 0.07038 0.06113 0.72659 0.0
H305 H 0.28771 0.85 0.73713 0.0
O306 O 0.34205 0.93535 0.70574 0.0
H307 H 0.13015 0.68666 0.68474 0.0
H308 H 0.33878 0.83773 0.62826 0.0
H309 H 0.23046 0.94728 0.64721 0.0
H310 H 0.16573 0.79365 0.67462 0.0
H311 H 0.31785 0.85288 0.67263 0.0
O312 O 0.15798 0.90462 0.77392 0.0
H313 H 0.12287 1.00561 0.71523 0.0
H314 H 0.1595 0.99386 0.79333 0.0
H315 H 0.24954 0.93275 0.60248 0.0
H316 H 0.25405 0.74361 0.74773 0.0
H317 H 0.30421 0.87749 0.59278 0.0
H318 H 0.17454 0.66106 0.72148 0.0
O319 O 0.28371 0.99829 0.68925 0.0
H320 H 0.36585 0.02495 0.80558 0.0
H321 H 0.25181 0.09323 0.7527 0.0
H322 H 0.3372 0.16737 0.77869 0.0
H323 H 0.3948 0.1334 0.8055 0.0
H324 H 0.28114 0.95267 0.77904 0.0
H325 H 0.10402 0.04583 0.80557 0.0
H326 H 0.06027 0.08124 0.77204 0.0
O327 O 0.22636 0.01898 0.71508 0.0
C328 C 0.12292 0.88371 0.69869 0.0
C329 C 0.08917 0.04586 0.74138 0.0
C330 C 0.10803 0.03725 0.7857 0.0
N331 N 0.14464 0.99674 0.75355 0.0
C332 C 0.11914 0.01455 0.73506 0.0
C333 C 0.13872 0.00708 0.77865 0.0
C334 C 0.08366 0.05726 0.76688 0.0
C335 C 0.25342 0.81434 0.72552 0.0
N336 N 0.22859 0.82804 0.70535 0.0
C337 C 0.23439 0.75418 0.73166 0.0
C338 C 0.18971 0.70789 0.71695 0.0
C339 C 0.16471 0.72222 0.69636 0.0
C340 C 0.1848 0.7829 0.69081 0.0
C341 C 0.3146 0.86155 0.63221 0.0
C342 C 0.25337 0.92264 0.64308 0.0
C343 C 0.30258 0.87027 0.65731 0.0
N344 N 0.27171 0.89998 0.66247 0.0
C345 C 0.26447 0.91479 0.61774 0.0
C346 C 0.29521 0.88388 0.61232 0.0
C347 C 0.2644 0.03269 0.69713 0.0
C348 C 0.3407 0.04023 0.79419 0.0
C349 C 0.27636 0.07783 0.76435 0.0
C350 C 0.32477 0.12015 0.77904 0.0
C351 C 0.35705 0.10108 0.79408 0.0
N352 N 0.26002 0.01797 0.7647 0.0
C353 C 0.29197 0.99918 0.77927 0.0
Co354 Co 0.75632 0.67477 0.64702 0.0
Co355 Co 0.82223 0.77623 0.5984 0.0
O356 O 0.76867 0.69258 0.61025 0.0
C357 C 0.63346 0.59414 0.62242 0.0
O358 O 0.65496 0.61765 0.60003 0.0
C359 C 0.83168 0.69535 0.55853 0.0
O360 O 0.81658 0.65117 0.57488 0.0
O361 O 0.8915 0.7778 0.61707 0.0
O362 O 0.84419 0.73792 0.6541 0.0
H363 H 0.96224 0.99761 0.61341 0.0
H364 H 0.72553 0.57373 0.61065 0.0
O365 O 0.66795 0.61106 0.64195 0.0
H366 H 0.87498 0.57238 0.6697 0.0
H367 H 0.67439 0.54215 0.72477 0.0
H368 H 0.79329 0.75179 0.6931 0.0
H369 H 0.84186 0.64732 0.6746 0.0
H370 H 0.69208 0.56274 0.67874 0.0
O371 O 0.84111 0.74692 0.56594 0.0
H372 H 0.91057 0.88971 0.62464 0.0
H373 H 0.84956 0.84264 0.54848 0.0
H374 H 0.77708 0.73324 0.73929 0.0
H375 H 0.75669 0.49754 0.60527 0.0
H376 H 0.71721 0.62776 0.75539 0.0
H377 H 0.83209 0.49653 0.63491 0.0
O378 O 0.73001 0.73571 0.65109 0.0
H379 H 0.63561 0.68422 0.54316 0.0
H380 H 0.77422 0.8617 0.59446 0.0
H381 H 0.68711 0.85957 0.57339 0.0
H382 H 0.61701 0.7704 0.54737 0.0
H383 H 0.72298 0.68807 0.56481 0.0
H384 H 0.90642 0.94964 0.53578 0.0
H385 H 0.96136 0.0285 0.56862 0.0
O386 O 0.80448 0.80981 0.62907 0.0
C387 C 0.89281 0.76884 0.64106 0.0
C388 C 0.93909 0.96376 0.59884 0.0
C389 C 0.90744 0.93684 0.55535 0.0
N390 N 0.87589 0.85934 0.58731 0.0
C391 C 0.90922 0.90238 0.60512 0.0
C392 C 0.87606 0.87596 0.56255 0.0
C393 C 0.93817 0.98104 0.57376 0.0
C394 C 0.75767 0.57327 0.62383 0.0
N395 N 0.78121 0.61469 0.64306 0.0
C396 C 0.77548 0.53015 0.62059 0.0
C397 C 0.81787 0.52967 0.63719 0.0
C398 C 0.84196 0.57223 0.6567 0.0
C399 C 0.82311 0.61469 0.65933 0.0
C400 C 0.70068 0.58829 0.71799 0.0
C401 C 0.76757 0.70576 0.69998 0.0
C402 C 0.71076 0.60024 0.69195 0.0
N403 N 0.7441 0.65841 0.68326 0.0
C404 C 0.75839 0.69554 0.72614 0.0
C405 C 0.72472 0.63635 0.73516 0.0
C406 C 0.75996 0.79078 0.64421 0.0
C407 C 0.6657 0.7233 0.55449 0.0
C408 C 0.74373 0.82238 0.58353 0.0
C409 C 0.69454 0.8216 0.57146 0.0
C410 C 0.65529 0.77162 0.55686 0.0
N411 N 0.7538 0.77481 0.58116 0.0
C412 C 0.71537 0.72572 0.56685 0.0
Co413 Co 0.11287 0.75936 0.98016 0.0
Co414 Co 0.04764 0.81069 0.93613 0.0
O415 O 0.08921 0.7662 0.94514 0.0
C416 C 0.04253 0.63212 0.96189 0.0
O417 O 1.00441 0.64591 0.95135 0.0
C418 C 0.13764 0.83665 0.89368 0.0
O419 O 0.16906 0.82049 0.90812 0.0
O420 O 0.11121 0.88468 0.95429 0.0
O421 O 0.13651 0.84615 0.98754 0.0
H422 H 0.95194 0.93649 0.95598 0.0
H423 H 0.16293 0.72034 0.93802 0.0
O424 O 0.08855 0.67207 0.97404 0.0
H425 H 0.34023 0.88874 0.98006 0.0
H426 H 0.2071 0.6883 0.04596 0.0
H427 H 0.10137 0.80231 0.03129 0.0
H428 H 0.23694 0.8546 0.99575 0.0
H429 H 0.17725 0.69988 1.00261 0.0
O430 O 0.09268 0.83902 0.9029 0.0
H431 H 0.01128 0.88674 0.96536 0.0
H432 H 0.99425 0.82881 0.88847 0.0
H433 H 0.13049 0.79234 0.07496 0.0
H434 H 0.2655 0.75246 0.92191 0.0
H435 H 0.18382 0.73479 0.08254 0.0
H436 H 0.35503 0.83741 0.94293 0.0
O437 O 0.02988 0.73279 0.99331 0.0
H438 H 0.96962 0.63 0.87802 0.0
H439 H 0.91244 0.74289 0.93705 0.0
H440 H 0.83259 0.65072 0.91634 0.0
H441 H 0.86093 0.5937 0.88646 0.0
H442 H 0.04798 0.72158 0.89948 0.0
H443 H 0.93686 0.88007 0.87807 0.0
H444 H 0.91418 0.93322 0.91208 0.0
O445 O 0.99983 0.7835 0.96786 0.0
C446 C 0.1362 0.89037 0.9761 0.0
C447 C 0.96135 0.91325 0.94102 0.0
C448 C 0.95297 0.88167 0.89729 0.0
N449 N 1.006 0.85453 0.92753 0.0
C450 C 0.99491 0.88495 0.94621 0.0
C451 C 0.98604 0.85323 0.90324 0.0
C452 C 0.94016 0.91139 0.91638 0.0
C453 C 0.20169 0.75695 0.94741 0.0
N454 N 0.19393 0.78563 0.96776 0.0
C455 C 0.25965 0.77512 0.93814 0.0
C456 C 0.30986 0.82286 0.9499 0.0
C457 C 0.30157 0.85175 0.97071 0.0
C458 C 0.24294 0.83243 0.97942 0.0
C459 C 0.18378 0.71337 0.04293 0.0
C460 C 0.12434 0.77733 0.03442 0.0
C461 C 0.16654 0.71992 0.01842 0.0
N462 N 0.13717 0.75165 0.0144 0.0
C463 C 0.14085 0.77177 0.05921 0.0
C464 C 0.17075 0.73949 0.06344 0.0
C465 C 0.993 0.75048 0.98703 0.0
C466 C 0.95668 0.65474 0.89082 0.0
C467 C 0.9253 0.7184 0.92411 0.0
C468 C 0.8798 0.66623 0.9124 0.0
C469 C 0.89571 0.6343 0.89563 0.0
N470 N 0.98509 0.73851 0.91918 0.0
C471 C 1.00096 0.70713 0.90287 0.0
Co472 Co 0.3488 0.1043 0.31191 0.0
Co473 Co 0.23237 0.04246 0.26758 0.0
O474 O 0.3186 0.08334 0.27675 0.0
C475 C 0.40368 0.02998 0.2963 0.0
O476 O 0.34902 0.98652 0.29026 0.0
C477 C 0.29696 0.13398 0.22524 0.0
O478 O 0.34826 0.15929 0.23784 0.0
O479 O 0.22138 0.10351 0.28753 0.0
O480 O 0.28686 0.12854 0.3201 0.0
H481 H 0.01053 0.94658 0.28772 0.0
H482 H 0.4382 0.15673 0.26988 0.0
O483 O 0.41158 0.08029 0.30473 0.0
H484 H 0.45032 0.33165 0.31502 0.0
H485 H 0.5122 0.19371 0.37873 0.0
H486 H 0.29199 0.08561 0.36288 0.0
H487 H 0.37949 0.22757 0.32942 0.0
H488 H 0.47231 0.1674 0.33498 0.0
O489 O 0.24888 0.09183 0.23547 0.0
H490 H 0.11987 1.00245 0.29731 0.0
H491 H 0.16052 0.99427 0.21952 0.0
H492 H 0.3299 0.11146 0.40692 0.0
H493 H 0.51046 0.26009 0.25511 0.0
H494 H 0.44078 0.16591 0.41507 0.0
H495 H 0.51667 0.34845 0.27768 0.0
O496 O 0.29156 0.02078 0.3242 0.0
H497 H 0.3416 0.97297 0.20889 0.0
H498 H 0.16087 0.90793 0.26256 0.0
H499 H 0.17335 0.83155 0.23902 0.0
H500 H 0.26421 0.86386 0.21191 0.0
H501 H 0.32749 0.04771 0.2327 0.0
H502 H 0.05174 0.94143 0.20887 0.0
H503 H 0.9758 0.9164 0.24319 0.0
O504 O 0.21163 0.98972 0.29805 0.0
C505 C 0.24232 0.12895 0.30911 0.0
C506 C 0.04318 0.95753 0.27258 0.0
C507 C 0.06629 0.95462 0.22833 0.0
N508 N 0.14669 1.00184 0.25899 0.0
C509 C 0.10517 0.98897 0.2779 0.0
C510 C 0.12791 0.98525 0.23443 0.0
C511 C 0.02372 0.94046 0.2476 0.0
C512 C 0.44099 0.19495 0.27993 0.0
N513 N 0.40457 0.18608 0.30045 0.0
C514 C 0.48182 0.25337 0.27141 0.0
C515 C 0.48522 0.30292 0.28406 0.0
C516 C 0.44794 0.29352 0.30499 0.0
C517 C 0.40765 0.23444 0.31296 0.0
C518 C 0.4638 0.17006 0.37542 0.0
C519 C 0.34027 0.10957 0.36626 0.0
C520 C 0.44093 0.15493 0.35069 0.0
N521 N 0.37985 0.12534 0.34636 0.0
C522 C 0.36149 0.12397 0.39124 0.0
C523 C 0.4237 0.15447 0.3958 0.0
C524 C 0.23783 0.98271 0.31725 0.0
C525 C 0.30156 0.95834 0.22049 0.0
C526 C 0.2004 0.92257 0.25068 0.0
C527 C 0.20724 0.879 0.23742 0.0
C528 C 0.2582 0.89714 0.22222 0.0
N529 N 0.24269 0.9827 0.24866 0.0
C530 C 0.29306 1.00065 0.23394 0.0
Co531 Co 0.25494 0.34164 0.64755 0.0
Co532 Co 0.19408 0.23926 0.59851 0.0
O533 O 0.24474 0.32261 0.61091 0.0
C534 C 0.38192 0.39899 0.6293 0.0
O535 O 0.36625 0.34806 0.61743 0.0
C536 C 0.1838 0.3198 0.55832 0.0
O537 O 0.20232 0.36551 0.57408 0.0
O538 O 0.12247 0.2324 0.61768 0.0
O539 O 0.16743 0.2789 0.65428 0.0
H540 H 0.06562 0.01568 0.61246 0.0
H541 H 0.29274 0.44251 0.61088 0.0
O542 O 0.34258 0.40488 0.64198 0.0
H543 H 0.13409 0.44503 0.66353 0.0
H544 H 0.33324 0.4806 0.72337 0.0
H545 H 0.21602 0.26835 0.69484 0.0
H546 H 0.16554 0.36955 0.67138 0.0
H547 H 0.31741 0.45606 0.6776 0.0
O548 O 0.17246 0.26789 0.56632 0.0
H549 H 0.11236 0.1228 0.62446 0.0
H550 H 0.1659 0.17515 0.5479 0.0
H551 H 0.23032 0.29084 0.74079 0.0
H552 H 0.2632 0.51933 0.60257 0.0
H553 H 0.28937 0.39764 0.75533 0.0
H554 H 0.18319 0.52077 0.62896 0.0
O555 O 0.28018 0.28051 0.654 0.0
H556 H 0.38454 0.34653 0.54594 0.0
H557 H 0.24635 0.15803 0.59138 0.0
H558 H 0.33581 0.16691 0.56972 0.0
H559 H 0.40562 0.26159 0.5466 0.0
H560 H 0.29504 0.33607 0.56812 0.0
H561 H 0.11373 0.0687 0.53456 0.0
H562 H 0.06512 0.98768 0.56716 0.0
O563 O 0.21559 0.20666 0.62847 0.0
C564 C 0.1199 0.24419 0.64129 0.0
C565 C 0.08627 0.05047 0.59802 0.0
C566 C 0.11352 0.08022 0.55437 0.0
N567 N 0.14349 0.1559 0.58699 0.0
C568 C 0.11339 0.11144 0.60473 0.0
C569 C 0.1423 0.14077 0.56196 0.0
C570 C 0.08636 0.03482 0.57264 0.0
C571 C 0.25817 0.44312 0.62254 0.0
N572 N 0.23083 0.40154 0.64154 0.0
C573 C 0.2415 0.4866 0.6177 0.0
C574 C 0.19655 0.48733 0.63249 0.0
C575 C 0.16893 0.4448 0.65187 0.0
C576 C 0.18673 0.40197 0.65615 0.0
C577 C 0.30731 0.4339 0.71729 0.0
C578 C 0.2414 0.31495 0.70102 0.0
C579 C 0.2983 0.41972 0.69139 0.0
N580 N 0.26557 0.36085 0.68357 0.0
C581 C 0.24949 0.3274 0.72706 0.0
C582 C 0.28269 0.38733 0.7352 0.0
C583 C 0.2546 0.2261 0.64619 0.0
C584 C 0.35425 0.30484 0.55578 0.0
C585 C 0.27628 0.19943 0.58149 0.0
C586 C 0.32698 0.20417 0.56917 0.0
C587 C 0.36611 0.25726 0.5562 0.0
N588 N 0.26436 0.24598 0.58078 0.0
C589 C 0.30306 0.29844 0.5683 0.0
Co590 Co 0.93429 0.25968 0.98094 0.0
Co591 Co 0.9605 0.19137 0.93027 0.0
O592 O 0.93362 0.24566 0.944 0.0
C593 C 0.99477 0.3843 0.95907 0.0
O594 O 0.0246 0.36827 0.94364 0.0
C595 C 0.86654 0.18336 0.89211 0.0
O596 O 0.85827 0.22397 0.90386 0.0
O597 O 0.89969 0.12405 0.95219 0.0
O598 O 0.9112 0.17318 0.98887 0.0
H599 H 0.0345 0.0432 0.93827 0.0
H600 H 0.86113 0.29132 0.94738 0.0
O601 O 0.95669 0.3464 0.97485 0.0
H602 H 0.71553 0.1417 0.00812 0.0
H603 H 0.89465 0.34546 0.06014 0.0
H604 H 0.98264 0.22695 0.0257 0.0
H605 H 0.82424 0.17458 0.0108 0.0
H606 H 0.89087 0.32522 0.01406 0.0
O607 O 0.90016 0.16463 0.90164 0.0
H608 H 0.9956 0.10791 0.95402 0.0
H609 H 0.97939 0.15604 0.87812 0.0
H610 H 0.98713 0.24582 0.07188 0.0
H611 H 0.75281 0.26008 0.94412 0.0
H612 H 0.94288 0.30547 0.08939 0.0
H613 H 0.67918 0.18466 0.97462 0.0
O614 O 0.02179 0.28557 0.98248 0.0
H615 H 0.04067 0.37482 0.87268 0.0
H616 H 0.08973 0.23529 0.91746 0.0
H617 H 0.16791 0.31773 0.89165 0.0
H618 H 0.1436 0.38804 0.86875 0.0
H619 H 0.96469 0.2932 0.89917 0.0
H620 H 0.01462 0.08878 0.86156 0.0
H621 H 0.04365 0.03265 0.89173 0.0
O622 O 0.02308 0.21574 0.95741 0.0
C623 C 0.8923 0.1241 0.97627 0.0
C624 C 0.02178 0.06717 0.92492 0.0
C625 C 0.01074 0.09288 0.88188 0.0
N626 N 0.9858 0.13638 0.91707 0.0
C627 C 1.00011 0.1043 0.93374 0.0
C628 C 0.99024 0.13048 0.8914 0.0
C629 C 0.02705 0.06144 0.89881 0.0
C630 C 0.82936 0.25866 0.96077 0.0
N631 N 0.84896 0.23479 0.97922 0.0
C632 C 0.76809 0.24106 0.95881 0.0
C633 C 0.7268 0.1987 0.97592 0.0
C634 C 0.74715 0.17455 0.9947 0.0
C635 C 0.80875 0.19318 0.99607 0.0
C636 C 0.91394 0.31928 0.05274 0.0
C637 C 0.96293 0.2526 0.03318 0.0
C638 C 0.912 0.30774 0.02667 0.0
N639 N 0.93603 0.27447 0.01723 0.0
C640 C 0.96577 0.26329 0.05935 0.0
C641 C 0.941 0.29682 0.06915 0.0
C642 C 0.04815 0.25851 0.97352 0.0
C643 C 0.05158 0.34388 0.8822 0.0
C644 C 0.07832 0.2653 0.90758 0.0
C645 C 0.12302 0.31208 0.89294 0.0
C646 C 0.10937 0.35146 0.8801 0.0
N647 N 0.02118 0.25724 0.90927 0.0
C648 C 1.00804 0.29653 0.89701 0.0
Co649 Co 0.65888 0.91002 0.31758 0.0
Co650 Co 0.77339 0.9622 0.27326 0.0
O651 O 0.68764 0.92672 0.28225 0.0
C652 C 0.60543 0.98276 0.29888 0.0
O653 O 0.66018 0.02273 0.29123 0.0
C654 C 0.70271 0.87233 0.23143 0.0
O655 O 0.65459 0.8445 0.24594 0.0
O656 O 0.77731 0.89608 0.29231 0.0
O657 O 0.72155 0.88652 0.32697 0.0
H658 H 0.99269 0.037 0.29275 0.0
H659 H 0.56682 0.85195 0.2768 0.0
O660 O 0.59614 0.9336 0.30928 0.0
H661 H 0.55839 0.68347 0.32614 0.0
H662 H 0.49816 0.82716 0.38562 0.0
H663 H 0.71759 0.94119 0.36833 0.0
H664 H 0.62936 0.7893 0.33819 0.0
H665 H 0.53627 0.84721 0.34147 0.0
O666 O 0.75234 0.91471 0.24054 0.0
H667 H 0.8839 0.99046 0.30262 0.0
H668 H 0.8463 0.00947 0.22547 0.0
H669 H 0.68168 0.92169 0.41278 0.0
H670 H 0.49448 0.74673 0.26431 0.0
H671 H 0.57112 0.86418 0.42165 0.0
H672 H 0.49013 0.6616 0.289 0.0
O673 O 0.71676 0.99503 0.32745 0.0
H674 H 0.67888 0.04873 0.21506 0.0
H675 H 0.85293 0.09657 0.27073 0.0
H676 H 0.84891 0.17904 0.2481 0.0
H677 H 0.76136 0.15542 0.22006 0.0
H678 H 0.68476 0.96767 0.2379 0.0
H679 H 0.95426 0.05345 0.21452 0.0
H680 H 0.0284 0.06798 0.24834 0.0
O681 O 0.79839 0.01317 0.30451 0.0
C682 C 0.76101 0.87835 0.31528 0.0
C683 C 0.96075 0.0305 0.2778 0.0
C684 C 0.93919 0.03972 0.23391 0.0
N685 N 0.85855 0.99683 0.26461 0.0
C686 C 0.89908 1.00433 0.28329 0.0
C687 C 0.87795 0.01408 0.24015 0.0
C688 C 0.98079 0.04804 0.25291 0.0
C689 C 0.56486 0.81516 0.28776 0.0
N690 N 0.6025 0.82681 0.30811 0.0
C691 C 0.52396 0.75567 0.28054 0.0
C692 C 0.52162 0.70793 0.29437 0.0
C693 C 0.55999 0.72017 0.31518 0.0
C694 C 0.60037 0.78023 0.32182 0.0
C695 C 0.54644 0.85187 0.38201 0.0
C696 C 0.66955 0.91544 0.37205 0.0
C697 C 0.56829 0.86329 0.35705 0.0
N698 N 0.62922 0.89405 0.35235 0.0
C699 C 0.64941 0.90486 0.39725 0.0
C700 C 0.5874 0.87268 0.40222 0.0
C701 C 0.77249 0.02714 0.32168 0.0
C702 C 0.71746 0.05958 0.2271 0.0
C703 C 0.81483 0.08572 0.25842 0.0
C704 C 0.81279 0.13271 0.24568 0.0
C705 C 0.76368 0.11943 0.22995 0.0
N706 N 0.76968 0.02697 0.25532 0.0
C707 C 0.72124 0.01373 0.24 0.0
C708 C 0.57583 0.51194 0.03009 0.0
C709 C 0.57371 0.56254 0.03944 0.0
C710 C 0.5266 0.45297 0.03272 0.0
C711 C 0.47255 0.44154 0.04477 0.0
H712 H 0.6156 0.51778 0.02015 0.0
H713 H 0.53067 0.41619 0.02462 0.0
S714 S 0.44461 0.55748 0.07432 0.0
N715 N 0.51378 0.59673 0.06255 0.0
N716 N 0.42123 0.48599 0.06751 0.0
C717 C 0.47038 0.49143 0.05505 0.0
C718 C 0.52084 0.55175 0.0524 0.0
C719 C 0.01444 0.48336 0.3593 0.0
C720 C 0.01932 0.45813 0.3824 0.0
C721 C 1.0026 0.53145 0.359 0.0
C722 C 0.99743 0.55736 0.38178 0.0
H723 H 0.01874 0.46508 0.34132 0.0
H724 H 0.99846 0.54916 0.34081 0.0
S725 S 1.00774 0.50864 0.44721 0.0
N726 N 0.01762 0.46223 0.42857 0.0
N727 N 0.99825 0.55452 0.428 0.0
C728 C 1.00311 0.53316 0.40498 0.0
C729 C 0.01326 0.48298 0.40528 0.0
C730 C 0.47237 0.99011 0.69803 0.0
C731 C 0.44391 0.99333 0.72045 0.0
C732 C 0.53347 1.00533 0.69805 0.0
C733 C 0.56766 0.02239 0.72062 0.0
H734 H 0.44754 0.97681 0.68024 0.0
H735 H 0.55391 1.00289 0.68034 0.0
S736 S 0.51422 0.03611 0.78446 0.0
N737 N 0.45478 0.01514 0.76579 0.0
N738 N 0.56881 0.04072 0.76599 0.0
C739 C 0.53965 0.0248 0.74322 0.0
C740 C 0.47795 0.01111 0.74308 0.0
C741 C 0.5402 0.50604 0.60403 0.0
C742 C 0.56926 0.54502 0.62473 0.0
C743 C 0.47983 0.45867 0.60577 0.0
C744 C 0.44559 0.44946 0.62802 0.0
H745 H 0.56458 0.51152 0.58644 0.0
H746 H 0.45958 0.42948 0.58942 0.0
S747 S 0.50001 0.53919 0.68755 0.0
N748 N 0.5591 0.57091 0.66827 0.0
N749 N 0.44523 0.48316 0.67124 0.0
C750 C 0.47381 0.48849 0.64876 0.0
C751 C 0.53573 0.53585 0.64721 0.0
C752 C 0.01882 0.47907 0.98233 0.0
C753 C 1.00731 0.4475 0.95917 0.0
C754 C 0.03154 0.53935 0.98297 0.0
C755 C 0.03088 0.56931 0.96059 0.0
H756 H 0.01889 0.45728 1.00004 0.0
H757 H 0.04077 0.56229 1.00116 0.0
S758 S 1.00212 0.50629 0.89524 0.0
N759 N 0.99679 0.45082 0.91334 0.0
N760 N 0.01737 0.56299 0.9147 0.0
C761 C 0.0186 0.53799 0.93738 0.0
C762 C 1.00772 0.47735 0.93663 0.0
C763 C 0.44572 0.95963 0.29677 0.0
C764 C 0.45576 0.01905 0.29523 0.0
C765 C 0.49423 0.94831 0.29771 0.0
C766 C 0.55486 0.99584 0.29664 0.0
H767 H 0.39998 0.92149 0.29796 0.0
H768 H 0.48406 0.90184 0.29939 0.0
S769 S 0.60576 0.15962 0.29124 0.0
N770 N 0.53111 0.12596 0.29192 0.0
N771 N 0.62201 0.10478 0.29317 0.0
C772 C 0.56551 0.0554 0.29437 0.0
C773 C 0.51611 0.06696 0.29383 0.0
C774 C 0.35098 0.17316 0.18341 0.0
C775 C 0.29647 0.14559 0.1974 0.0
C776 C 0.35118 0.179 0.15677 0.0
C777 C 0.29688 0.1575 0.14291 0.0
H778 H 0.394 0.18962 0.19304 0.0
H779 H 0.39444 0.20131 0.14704 0.0
S780 S 0.14158 0.08176 0.17035 0.0
N781 N 0.18666 0.09809 0.19523 0.0
N782 N 0.18683 0.10611 0.14537 0.0
C783 C 0.24203 0.12951 0.15667 0.0
C784 C 0.24188 0.12441 0.18379 0.0
C785 C 0.16306 0.37611 0.49364 0.0
C786 C 0.17728 0.3428 0.47641 0.0
C787 C 0.16654 0.3698 0.52019 0.0
C788 C 0.18406 0.32978 0.53031 0.0
H789 H 0.14601 0.40465 0.48663 0.0
H790 H 0.15321 0.39456 0.53282 0.0
S791 S 0.23647 0.24116 0.49284 0.0
N792 N 0.21558 0.27385 0.47115 0.0
N793 N 0.2248 0.26396 0.52053 0.0
C794 C 0.20231 0.29968 0.51306 0.0
C795 C 0.19816 0.30563 0.48624 0.0
C796 C 0.85529 0.20515 0.82116 0.0
C797 C 0.8442 0.14942 0.811 0.0
C798 C 0.85828 0.2149 0.84766 0.0
C799 C 0.85013 0.16917 0.86494 0.0
H800 H 0.86345 0.24212 0.80857 0.0
H801 H 0.87006 0.25942 0.85459 0.0
S802 S 0.81087 0.01256 0.84869 0.0
N803 N 0.81768 0.04578 0.82096 0.0
N804 N 0.82511 0.06489 0.87028 0.0
C805 C 0.83605 0.11258 0.85514 0.0
C806 C 0.83263 0.1025 0.82833 0.0
C807 C 0.74639 0.89388 0.16145 0.0
C808 C 0.69378 0.85036 0.14882 0.0
C809 C 0.74875 0.89924 0.18795 0.0
C810 C 0.6983 0.86218 0.20333 0.0
H811 H 0.78704 0.92367 0.15084 0.0
H812 H 0.79102 0.93304 0.19632 0.0
S813 S 0.54791 0.74261 0.17988 0.0
N814 N 0.5889 0.77008 0.15379 0.0
N815 N 0.59283 0.78137 0.20374 0.0
C816 C 0.64455 0.8194 0.19101 0.0
C817 C 0.64233 0.81344 0.16379 0.0
C818 C 0.84684 0.64238 0.52109 0.0
C819 C 0.83126 0.68428 0.53066 0.0
C820 C 0.85109 0.63557 0.49466 0.0
C821 C 0.83955 0.67023 0.47705 0.0
H822 H 0.85831 0.61664 0.53406 0.0
H823 H 0.86691 0.60573 0.48805 0.0
S824 S 0.78655 0.77763 0.49184 0.0
N825 N 0.79564 0.75397 0.51986 0.0
N826 N 0.80578 0.74255 0.47071 0.0
C827 C 0.82034 0.70916 0.48629 0.0
C828 C 0.8156 0.7158 0.51296 0.0
C829 C 0.117 0.86641 0.85103 0.0
C830 C 0.14741 0.8435 0.86561 0.0
C831 C 0.12178 0.87027 0.82445 0.0
C832 C 0.15721 0.8514 0.81106 0.0
H833 H 0.08919 0.88187 0.86019 0.0
H834 H 0.09784 0.88896 0.81435 0.0
S835 S 0.2451 0.78644 0.83999 0.0
N836 N 0.21339 0.80025 0.86449 0.0
N837 N 0.22279 0.80794 0.81452 0.0
C838 C 0.18733 0.82756 0.8253 0.0
C839 C 0.18257 0.82376 0.85252 0.0
C840 C 0.18024 0.95452 0.01576 0.0
C841 C 0.16359 0.95027 0.98977 0.0
C842 C 0.20427 0.00942 0.02939 0.0
C843 C 0.2137 0.06289 0.01759 0.0
H844 H 0.17459 0.91502 0.02583 0.0
H845 H 0.21705 0.01034 0.04913 0.0
S846 S 0.1749 0.07721 0.95079 0.0
N847 N 0.1561 1.00543 0.95341 0.0
N848 N 0.20187 0.10782 0.97889 0.0
C849 C 0.19657 0.05938 0.99188 0.0
C850 C 0.1714 1.00348 0.97805 0.0
C851 C 0.19789 0.20181 0.36259 0.0
C852 C 0.1565 0.21549 0.35091 0.0
C853 C 0.22566 0.17477 0.34889 0.0
C854 C 0.21278 0.15909 0.32288 0.0
H855 H 0.2097 0.21284 0.38245 0.0
H856 H 0.25731 0.16573 0.35898 0.0
S857 S 0.10583 0.18322 0.2834 0.0
N858 N 0.1031 0.2098 0.31166 0.0
N859 N 0.15444 0.15884 0.28621 0.0
C860 C 0.17082 0.17181 0.31105 0.0
C861 C 0.14306 0.19995 0.32494 0.0
C862 C 1.00324 0.19855 0.69538 0.0
C863 C 0.94713 0.1611 0.6835 0.0
C864 C 0.05803 0.22542 0.68154 0.0
C865 C 0.05988 0.21552 0.6551 0.0
H866 H 1.0049 0.20781 0.71558 0.0
H867 H 0.09948 0.25405 0.6919 0.0
S868 S 0.92571 0.11686 0.61517 0.0
N869 N 0.89725 0.11333 0.64375 0.0
N870 N 0.99953 0.16258 0.61798 0.0
C871 C 1.00404 0.17715 0.64308 0.0
C872 C 0.94811 0.15041 0.65715 0.0
C873 C 0.8289 0.01074 0.03176 0.0
C874 C 0.80504 0.95372 0.01997 0.0
C875 C 0.85634 0.06494 0.01754 0.0
C876 C 0.86191 0.06516 0.99075 0.0
H877 H 0.82632 0.01376 0.05224 0.0
H878 H 0.87363 0.10716 0.02783 0.0
S879 S 0.80932 0.92837 0.95036 0.0
N880 N 0.79039 0.90148 0.97954 0.0
N881 N 0.84204 1.00256 0.95312 0.0
C882 C 0.83874 0.0085 0.97869 0.0
C883 C 0.8104 0.95325 0.99316 0.0
C884 C 0.82067 0.82351 0.3161 0.0
C885 C 0.79099 0.84903 0.32943 0.0
C886 C 0.84995 0.79675 0.32893 0.0
C887 C 0.85202 0.79495 0.3558 0.0
H888 H 0.82108 0.82379 0.29548 0.0
H889 H 0.87165 0.77773 0.31752 0.0
S890 S 0.78351 0.85744 0.39998 0.0
N891 N 0.76682 0.87155 0.37136 0.0
N892 N 0.82216 0.82239 0.39526 0.0
C893 C 0.82311 0.8209 0.3694 0.0
C894 C 0.79261 0.84748 0.35632 0.0
C895 C 1.00865 0.81846 0.69573 0.0
C896 C 0.06479 0.85533 0.68374 0.0
C897 C 0.95395 0.7903 0.68177 0.0
C898 C 0.95245 0.7982 0.65513 0.0
H899 H 1.00694 0.81053 0.71605 0.0
H900 H 0.91236 0.7622 0.69213 0.0
S901 S 0.08679 0.89534 0.61496 0.0
N902 N 0.11489 0.90114 0.6438 0.0
N903 N 0.01309 0.84902 0.61774 0.0
C904 C 1.00835 0.83611 0.64304 0.0
C905 C 0.06402 0.86435 0.65725 0.0
C906 C 0.13711 0.2426 0.97295 0.0
C907 C 0.1087 0.27319 0.9832 0.0
C908 C 0.18967 0.24817 0.98379 0.0
C909 C 0.2157 0.28426 1.00531 0.0
H910 H 0.11693 0.21111 0.95733 0.0
H911 H 0.20676 0.21986 0.97664 0.0
S912 S 0.16676 0.38204 0.03698 0.0
N913 N 0.11622 0.34756 0.01422 0.0
N914 N 0.21522 0.35731 0.03458 0.0
C915 C 0.19139 0.31918 0.01444 0.0
C916 C 0.13781 0.31384 1.00339 0.0
C917 C 0.84027 0.0708 0.35832 0.0
C918 C 0.81204 0.0796 0.33727 0.0
C919 C 0.89102 0.11948 0.36939 0.0
C920 C 0.91608 0.17879 0.35954 0.0
H921 H 0.82551 0.02549 0.36525 0.0
H922 H 0.91241 0.10951 0.38496 0.0
S923 S 0.85246 0.22538 0.30633 0.0
N924 N 0.80736 0.15131 0.30841 0.0
N925 N 0.90377 0.24371 0.32895 0.0
C926 C 0.88532 0.1885 0.33946 0.0
C927 C 0.83315 0.13859 0.32832 0.0
C928 C 0.78386 0.89767 0.64704 0.0
C929 C 0.74792 0.8371 0.65525 0.0
C930 C 0.77903 0.94439 0.65813 0.0
C931 C 0.73811 0.93283 0.67788 0.0
H932 H 0.81844 0.91027 0.63268 0.0
H933 H 0.81071 0.99046 0.6524 0.0
S934 S 0.6299 0.78339 0.70547 0.0
N935 N 0.66658 0.76813 0.68348 0.0
N936 N 0.6582 0.85747 0.70458 0.0
C937 C 0.69953 0.87282 0.68561 0.0
C938 C 0.70423 0.82455 0.67422 0.0
C939 C 0.83971 0.71257 0.01122 0.0
C940 C 0.85481 0.75883 0.02929 0.0
C941 C 0.88488 0.70572 0.99903 0.0
C942 C 0.94633 0.74403 1.00489 0.0
H943 H 0.79304 0.68319 0.00556 0.0
H944 H 0.87197 0.67255 0.98396 0.0
S945 S 0.01102 0.87204 0.05022 0.0
N946 N 0.93708 0.84274 0.05246 0.0
N947 N 0.02046 0.8299 0.0291 0.0
C948 C 0.96199 0.78879 0.02334 0.0
C949 C 0.91657 0.79609 0.0357 0.0
C950 C 0.12758 0.89082 0.36796 0.0
C951 C 0.09739 0.83229 0.35711 0.0
C952 C 0.17794 0.93877 0.35619 0.0
C953 C 0.20017 0.92997 0.33324 0.0
H954 H 0.11049 0.9009 0.385 0.0
H955 H 0.1966 0.98382 0.36409 0.0
S956 S 0.14593 0.78489 0.29917 0.0
N957 N 0.09936 0.76738 0.32361 0.0
N958 N 0.19464 0.85812 0.30171 0.0
C959 C 0.17417 0.87124 0.32326 0.0
C960 C 0.12268 0.82216 0.33517 0.0
C961 C 0.24666 0.07653 0.65894 0.0
C962 C 0.27679 0.08601 0.68215 0.0
C963 C 0.24196 0.12292 0.64725 0.0
C964 C 0.26739 0.18109 0.65822 0.0
H965 H 0.22239 0.0318 0.65064 0.0
H966 H 0.21531 0.11153 0.63003 0.0
S967 S 0.35607 0.22982 0.71821 0.0
N968 N 0.33615 0.15778 0.71522 0.0
N969 N 0.328 0.24627 0.69308 0.0
C970 C 0.30075 0.19206 0.68089 0.0
C971 C 0.30512 0.14416 0.69292 0.0
loop_
_geom_bond_atom_site_label_1
_geom_bond_atom_site_label_2
_geom_bond_distance
_geom_bond_site_symmetry_2
_ccdc_geom_bond_type
Co0 O2 2.143 . S
Co0 O8 2.074 . S
Co0 O11 2.093 . S
Co0 O24 2.097 . S
Co0 N41 2.151 . S
Co0 N49 2.214 1_554 S
Co1 O2 2.160 . S
Co1 O7 2.058 . S
Co1 O17 2.057 . S
Co1 O32 2.037 . S
Co1 N36 2.145 . S
Co1 N57 2.257 . S
O2 Co0 2.143 . S
O2 Co1 2.160 . S
C3 O4 1.278 . S
C3 O11 1.224 . S
O4 C3 1.278 . S
C5 O6 1.245 . S
C5 O17 1.232 . S
O6 C5 1.245 . S
O7 Co1 2.058 . S
O7 C33 1.269 . S
O8 Co0 2.074 . S
O8 C33 1.257 . S
H9 C34 0.930 . S
H10 C40 0.930 . S
O11 Co0 2.093 . S
O11 C3 1.224 . S
H12 C44 0.929 1_556 S
H13 C46 0.930 . S
H14 C47 0.930 . S
H15 C45 0.929 1_556 S
H16 C48 0.928 . S
O17 Co1 2.057 . S
O17 C5 1.232 . S
H18 C37 0.929 . S
H19 C38 0.929 . S
H20 C50 0.931 . S
H21 C42 0.929 . S
H22 C51 0.930 . S
H23 C43 0.931 . S
O24 Co0 2.097 . S
O24 C52 1.214 . S
H25 C53 0.929 . S
H26 C54 0.929 . S
H27 C55 0.930 . S
H28 C56 0.929 . S
H29 C58 0.930 . S
H30 C35 0.930 . S
H31 C39 0.930 1_655 S
O32 Co1 2.037 . S
O32 C52 1.234 . S
C33 O7 1.269 . S
C33 O8 1.257 . S
C34 H9 0.930 . S
C34 C37 1.388 . S
C34 C39 1.418 . S
C35 H30 0.930 . S
C35 C38 1.404 . S
C35 C39 1.353 . S
N36 Co1 2.145 . S
N36 C37 1.397 . S
N36 C38 1.334 . S
C37 H18 0.929 . S
C37 C34 1.388 . S
C37 N36 1.397 . S
C38 H19 0.929 . S
C38 C35 1.404 . S
C38 N36 1.334 . S
C39 H31 0.930 1_455 S
C39 C34 1.418 . S
C39 C35 1.353 . S
C40 H10 0.930 . S
C40 N41 1.330 . S
C40 C42 1.446 . S
N41 Co0 2.151 . S
N41 C40 1.330 . S
N41 C45 1.418 . S
C42 H21 0.929 . S
C42 C40 1.446 . S
C42 C43 1.332 . S
C43 H23 0.931 . S
C43 C42 1.332 . S
C43 C44 1.267 . S
C44 H12 0.929 1_554 S
C44 C43 1.267 . S
C44 C45 1.251 . S
C45 H15 0.929 1_554 S
C45 N41 1.418 . S
C45 C44 1.251 . S
C46 H13 0.930 . S
C46 C48 1.406 . S
C46 C51 1.261 . S
C47 H14 0.930 . S
C47 N49 1.325 . S
C47 C50 1.357 . S
C48 H16 0.928 . S
C48 C46 1.406 . S
C48 N49 1.261 . S
N49 Co0 2.214 1_556 S
N49 C47 1.325 . S
N49 C48 1.261 . S
C50 H20 0.931 . S
C50 C47 1.357 . S
C50 C51 1.312 . S
C51 H22 0.930 . S
C51 C46 1.261 . S
C51 C50 1.312 . S
C52 O24 1.214 . S
C52 O32 1.234 . S
C53 H25 0.929 . S
C53 C56 1.391 . S
C53 C58 1.391 . S
C54 H26 0.929 . S
C54 C55 1.390 . S
C54 N57 1.391 . S
C55 H27 0.930 . S
C55 C54 1.390 . S
C55 C56 1.392 . S
C56 H28 0.929 . S
C56 C53 1.391 . S
C56 C55 1.392 . S
N57 Co1 2.257 . S
N57 C54 1.391 . S
N57 C58 1.388 . S
C58 H29 0.930 . S
C58 C53 1.391 . S
C58 N57 1.388 . S
Co59 O61 2.143 . S
Co59 O67 2.074 . S
Co59 O70 2.093 . S
Co59 O83 2.097 . S
Co59 N100 2.151 . S
Co59 N108 2.214 . S
Co60 O61 2.160 . S
Co60 O66 2.058 . S
Co60 O76 2.057 . S
Co60 O91 2.048 . S
Co60 N95 2.145 . S
Co60 N116 2.257 1_455 S
O61 Co59 2.143 . S
O61 Co60 2.160 . S
C62 O63 1.278 . S
C62 O70 1.224 . S
O63 C62 1.278 . S
C64 O65 1.245 . S
C64 O76 1.232 . S
O65 C64 1.245 . S
O66 Co60 2.058 . S
O66 C92 1.269 . S
O67 Co59 2.074 . S
O67 C92 1.257 . S
H68 C93 0.930 . S
H69 C99 0.930 . S
O70 Co59 2.093 . S
O70 C62 1.224 . S
H71 C103 0.929 . S
H72 C105 0.930 . S
H73 C106 0.930 . S
H74 C104 0.929 . S
H75 C107 0.928 . S
O76 Co60 2.057 . S
O76 C64 1.232 . S
H77 C96 0.929 . S
H78 C97 0.929 . S
H79 C109 0.931 . S
H80 C101 0.929 . S
H81 C110 0.930 . S
H82 C102 0.931 . S
O83 Co59 2.097 . S
O83 C111 1.214 1_455 S
H84 C112 0.929 . S
H85 C113 0.929 . S
H86 C114 0.930 . S
H87 C115 0.929 . S
H88 C117 0.930 1_455 S
H89 C94 0.930 . S
H90 C98 0.930 1_565 S
O91 Co60 2.048 . S
O91 C111 1.223 1_455 S
C92 O66 1.269 . S
C92 O67 1.257 . S
C93 H68 0.930 . S
C93 C96 1.388 1_655 S
C93 C98 1.418 . S
C94 H89 0.930 . S
C94 C97 1.404 . S
C94 C98 1.353 1_455 S
N95 Co60 2.145 . S
N95 C96 1.397 . S
N95 C97 1.334 . S
C96 H77 0.929 . S
C96 C93 1.388 1_455 S
C96 N95 1.397 . S
C97 H78 0.929 . S
C97 C94 1.404 . S
C97 N95 1.334 . S
C98 H90 0.930 1_545 S
C98 C93 1.418 . S
C98 C94 1.353 1_655 S
C99 H69 0.930 . S
C99 N100 1.330 . S
C99 C101 1.446 . S
N100 Co59 2.151 . S
N100 C99 1.330 . S
N100 C104 1.418 . S
C101 H80 0.929 . S
C101 C99 1.446 . S
C101 C102 1.332 . S
C102 H82 0.931 . S
C102 C101 1.332 . S
C102 C103 1.267 . S
C103 H71 0.929 . S
C103 C102 1.267 . S
C103 C104 1.251 . S
C104 H74 0.929 . S
C104 N100 1.418 . S
C104 C103 1.251 . S
C105 H72 0.930 . S
C105 C107 1.406 . S
C105 C110 1.261 . S
C106 H73 0.930 . S
C106 N108 1.325 . S
C106 C109 1.357 . S
C107 H75 0.928 . S
C107 C105 1.406 . S
C107 N108 1.261 . S
N108 Co59 2.214 . S
N108 C106 1.325 . S
N108 C107 1.261 . S
C109 H79 0.931 . S
C109 C106 1.357 . S
C109 C110 1.312 . S
C110 H81 0.930 . S
C110 C105 1.261 . S
C110 C109 1.312 . S
C111 O83 1.214 1_655 S
C111 O91 1.223 1_655 S
C112 H84 0.929 . S
C112 C115 1.391 . S
C112 C117 1.391 . S
C113 H85 0.929 . S
C113 C114 1.390 . S
C113 N116 1.391 . S
C114 H86 0.930 . S
C114 C113 1.390 . S
C114 C115 1.392 . S
C115 H87 0.929 . S
C115 C112 1.391 . S
C115 C114 1.392 . S
N116 Co60 2.257 1_655 S
N116 C113 1.391 . S
N116 C117 1.388 . S
C117 H88 0.930 1_655 S
C117 C112 1.391 . S
C117 N116 1.388 . S
Co118 O120 2.143 . S
Co118 O126 2.074 . S
Co118 O129 2.093 . S
Co118 O142 2.097 . S
Co118 N159 2.151 . S
Co118 N167 2.214 . S
Co119 O120 2.160 . S
Co119 O125 2.058 . S
Co119 O135 2.057 . S
Co119 O150 2.050 . S
Co119 N154 2.145 . S
Co119 N175 2.257 1_545 S
O120 Co118 2.143 . S
O120 Co119 2.160 . S
C121 O122 1.278 . S
C121 O129 1.224 . S
O122 C121 1.278 . S
C123 O124 1.245 . S
C123 O135 1.232 . S
O124 C123 1.245 . S
O125 Co119 2.058 . S
O125 C151 1.269 . S
O126 Co118 2.074 . S
O126 C151 1.257 . S
H127 C152 0.930 . S
H128 C158 0.930 . S
O129 Co118 2.093 . S
O129 C121 1.224 . S
H130 C162 0.929 . S
H131 C164 0.930 . S
H132 C165 0.930 . S
H133 C163 0.929 . S
H134 C166 0.928 . S
O135 Co119 2.057 . S
O135 C123 1.232 . S
H136 C155 0.929 . S
H137 C156 0.929 . S
H138 C168 0.931 . S
H139 C160 0.929 . S
H140 C169 0.930 . S
H141 C161 0.931 . S
O142 Co118 2.097 . S
O142 C170 1.214 1_545 S
H143 C171 0.929 . S
H144 C172 0.929 . S
H145 C173 0.930 . S
H146 C174 0.929 . S
H147 C176 0.930 1_545 S
H148 C153 0.930 . S
H149 C157 0.930 . S
O150 Co119 2.050 . S
O150 C170 1.235 1_545 S
C151 O125 1.269 . S
C151 O126 1.257 . S
C152 H127 0.930 . S
C152 C155 1.388 1_565 S
C152 C157 1.418 . S
C153 H148 0.930 . S
C153 C156 1.404 . S
C153 C157 1.353 1_545 S
N154 Co119 2.145 . S
N154 C155 1.397 . S
N154 C156 1.334 . S
C155 H136 0.929 . S
C155 C152 1.388 1_545 S
C155 N154 1.397 . S
C156 H137 0.929 . S
C156 C153 1.404 . S
C156 N154 1.334 . S
C157 H149 0.930 . S
C157 C152 1.418 . S
C157 C153 1.353 1_565 S
C158 H128 0.930 . S
C158 N159 1.330 . S
C158 C160 1.446 . S
N159 Co118 2.151 . S
N159 C158 1.330 . S
N159 C163 1.418 . S
C160 H139 0.929 . S
C160 C158 1.446 . S
C160 C161 1.332 . S
C161 H141 0.931 . S
C161 C160 1.332 . S
C161 C162 1.267 . S
C162 H130 0.929 . S
C162 C161 1.267 . S
C162 C163 1.251 . S
C163 H133 0.929 . S
C163 N159 1.418 . S
C163 C162 1.251 . S
C164 H131 0.930 . S
C164 C166 1.406 . S
C164 C169 1.261 . S
C165 H132 0.930 . S
C165 N167 1.325 . S
C165 C168 1.357 . S
C166 H134 0.928 . S
C166 C164 1.406 . S
C166 N167 1.261 . S
N167 Co118 2.214 . S
N167 C165 1.325 . S
N167 C166 1.261 . S
C168 H138 0.931 . S
C168 C165 1.357 . S
C168 C169 1.312 . S
C169 H140 0.930 . S
C169 C164 1.261 . S
C169 C168 1.312 . S
C170 O142 1.214 1_565 S
C170 O150 1.235 1_565 S
C171 H143 0.929 . S
C171 C174 1.391 . S
C171 C176 1.391 . S
C172 H144 0.929 . S
C172 C173 1.390 . S
C172 N175 1.391 . S
C173 H145 0.930 . S
C173 C172 1.390 . S
C173 C174 1.392 . S
C174 H146 0.929 . S
C174 C171 1.391 . S
C174 C173 1.392 . S
N175 Co119 2.257 1_565 S
N175 C172 1.391 . S
N175 C176 1.388 . S
C176 H147 0.930 1_565 S
C176 C171 1.391 . S
C176 N175 1.388 . S
Co177 O179 2.143 . S
Co177 O185 2.074 . S
Co177 O188 2.093 . S
Co177 O201 2.097 . S
Co177 N218 2.151 . S
Co177 N226 2.214 1_554 S
Co178 O179 2.160 . S
Co178 O184 2.058 . S
Co178 O194 2.057 . S
Co178 O209 2.037 . S
Co178 N213 2.145 . S
Co178 N234 2.257 . S
O179 Co177 2.143 . S
O179 Co178 2.160 . S
C180 O181 1.278 . S
C180 O188 1.224 . S
O181 C180 1.278 . S
C182 O183 1.245 . S
C182 O194 1.232 . S
O183 C182 1.245 . S
O184 Co178 2.058 . S
O184 C210 1.269 . S
O185 Co177 2.074 . S
O185 C210 1.257 . S
H186 C211 0.930 . S
H187 C217 0.930 . S
O188 Co177 2.093 . S
O188 C180 1.224 . S
H189 C221 0.929 1_556 S
H190 C223 0.930 . S
H191 C224 0.930 . S
H192 C222 0.929 1_556 S
H193 C225 0.928 . S
O194 Co178 2.057 . S
O194 C182 1.232 . S
H195 C214 0.929 . S
H196 C215 0.929 . S
H197 C227 0.931 . S
H198 C219 0.929 . S
H199 C228 0.930 . S
H200 C220 0.931 . S
O201 Co177 2.097 . S
O201 C229 1.214 . S
H202 C230 0.929 . S
H203 C231 0.929 . S
H204 C232 0.930 . S
H205 C233 0.929 . S
H206 C235 0.930 . S
H207 C212 0.930 . S
H208 C216 0.930 1_455 S
O209 Co178 2.037 . S
O209 C229 1.234 . S
C210 O184 1.269 . S
C210 O185 1.257 . S
C211 H186 0.930 . S
C211 C214 1.388 . S
C211 C216 1.418 . S
C212 H207 0.930 . S
C212 C215 1.404 . S
C212 C216 1.353 . S
N213 Co178 2.145 . S
N213 C214 1.397 . S
N213 C215 1.334 . S
C214 H195 0.929 . S
C214 C211 1.388 . S
C214 N213 1.397 . S
C215 H196 0.929 . S
C215 C212 1.404 . S
C215 N213 1.334 . S
C216 H208 0.930 1_655 S
C216 C211 1.418 . S
C216 C212 1.353 . S
C217 H187 0.930 . S
C217 N218 1.330 . S
C217 C219 1.446 . S
N218 Co177 2.151 . S
N218 C217 1.330 . S
N218 C222 1.418 . S
C219 H198 0.929 . S
C219 C217 1.446 . S
C219 C220 1.332 . S
C220 H200 0.931 . S
C220 C219 1.332 . S
C220 C221 1.267 . S
C221 H189 0.929 1_554 S
C221 C220 1.267 . S
C221 C222 1.251 . S
C222 H192 0.929 1_554 S
C222 N218 1.418 . S
C222 C221 1.251 . S
C223 H190 0.930 . S
C223 C225 1.406 . S
C223 C228 1.261 . S
C224 H191 0.930 . S
C224 N226 1.325 . S
C224 C227 1.357 . S
C225 H193 0.928 . S
C225 C223 1.406 . S
C225 N226 1.261 . S
N226 Co177 2.214 1_556 S
N226 C224 1.325 . S
N226 C225 1.261 . S
C227 H197 0.931 . S
C227 C224 1.357 . S
C227 C228 1.312 . S
C228 H199 0.930 . S
C228 C223 1.261 . S
C228 C227 1.312 . S
C229 O201 1.214 . S
C229 O209 1.234 . S
C230 H202 0.929 . S
C230 C233 1.391 . S
C230 C235 1.391 . S
C231 H203 0.929 . S
C231 C232 1.390 . S
C231 N234 1.391 . S
C232 H204 0.930 . S
C232 C231 1.390 . S
C232 C233 1.392 . S
C233 H205 0.929 . S
C233 C230 1.391 . S
C233 C232 1.392 . S
N234 Co178 2.257 . S
N234 C231 1.391 . S
N234 C235 1.388 . S
C235 H206 0.930 . S
C235 C230 1.391 . S
C235 N234 1.388 . S
Co236 O238 2.143 . S
Co236 O244 2.074 . S
Co236 O247 2.093 . S
Co236 O260 2.097 . S
Co236 N277 2.151 . S
Co236 N285 2.214 . S
Co237 O238 2.160 . S
Co237 O243 2.058 . S
Co237 O253 2.057 . S
Co237 O268 2.048 . S
Co237 N272 2.145 . S
Co237 N293 2.257 1_655 S
O238 Co236 2.143 . S
O238 Co237 2.160 . S
C239 O240 1.278 . S
C239 O247 1.224 . S
O240 C239 1.278 . S
C241 O242 1.245 . S
C241 O253 1.232 . S
O242 C241 1.245 . S
O243 Co237 2.058 . S
O243 C269 1.269 . S
O244 Co236 2.074 . S
O244 C269 1.257 . S
H245 C270 0.930 . S
H246 C276 0.930 . S
O247 Co236 2.093 . S
O247 C239 1.224 . S
H248 C280 0.929 . S
H249 C282 0.930 . S
H250 C283 0.930 . S
H251 C281 0.929 . S
H252 C284 0.928 . S
O253 Co237 2.057 . S
O253 C241 1.232 . S
H254 C273 0.929 . S
H255 C274 0.929 . S
H256 C286 0.931 . S
H257 C278 0.929 . S
H258 C287 0.930 . S
H259 C279 0.931 . S
O260 Co236 2.097 . S
O260 C288 1.214 1_655 S
H261 C289 0.929 . S
H262 C290 0.929 . S
H263 C291 0.930 . S
H264 C292 0.929 . S
H265 C294 0.930 1_655 S
H266 C271 0.930 . S
H267 C275 0.930 1_545 S
O268 Co237 2.048 . S
O268 C288 1.223 1_655 S
C269 O243 1.269 . S
C269 O244 1.257 . S
C270 H245 0.930 . S
C270 C273 1.388 1_455 S
C270 C275 1.418 . S
C271 H266 0.930 . S
C271 C274 1.404 . S
C271 C275 1.353 1_655 S
N272 Co237 2.145 . S
N272 C273 1.397 . S
N272 C274 1.334 . S
C273 H254 0.929 . S
C273 C270 1.388 1_655 S
C273 N272 1.397 . S
C274 H255 0.929 . S
C274 C271 1.404 . S
C274 N272 1.334 . S
C275 H267 0.930 1_565 S
C275 C270 1.418 . S
C275 C271 1.353 1_455 S
C276 H246 0.930 . S
C276 N277 1.330 . S
C276 C278 1.446 . S
N277 Co236 2.151 . S
N277 C276 1.330 . S
N277 C281 1.418 . S
C278 H257 0.929 . S
C278 C276 1.446 . S
C278 C279 1.332 . S
C279 H259 0.931 . S
C279 C278 1.332 . S
C279 C280 1.267 . S
C280 H248 0.929 . S
C280 C279 1.267 . S
C280 C281 1.251 . S
C281 H251 0.929 . S
C281 N277 1.418 . S
C281 C280 1.251 . S
C282 H249 0.930 . S
C282 C284 1.406 . S
C282 C287 1.261 . S
C283 H250 0.930 . S
C283 N285 1.325 . S
C283 C286 1.357 . S
C284 H252 0.928 . S
C284 C282 1.406 . S
C284 N285 1.261 . S
N285 Co236 2.214 . S
N285 C283 1.325 . S
N285 C284 1.261 . S
C286 H256 0.931 . S
C286 C283 1.357 . S
C286 C287 1.312 . S
C287 H258 0.930 . S
C287 C282 1.261 . S
C287 C286 1.312 . S
C288 O260 1.214 1_455 S
C288 O268 1.223 1_455 S
C289 H261 0.929 . S
C289 C292 1.391 . S
C289 C294 1.391 . S
C290 H262 0.929 . S
C290 C291 1.390 . S
C290 N293 1.391 . S
C291 H263 0.930 . S
C291 C290 1.390 . S
C291 C292 1.392 . S
C292 H264 0.929 . S
C292 C289 1.391 . S
C292 C291 1.392 . S
N293 Co237 2.257 1_455 S
N293 C290 1.391 . S
N293 C294 1.388 . S
C294 H265 0.930 1_455 S
C294 C289 1.391 . S
C294 N293 1.388 . S
Co295 O297 2.143 . S
Co295 O303 2.074 . S
Co295 O306 2.093 . S
Co295 O319 2.097 . S
Co295 N336 2.151 . S
Co295 N344 2.214 . S
Co296 O297 2.160 . S
Co296 O302 2.058 . S
Co296 O312 2.057 . S
Co296 O327 2.050 . S
Co296 N331 2.145 . S
Co296 N352 2.257 1_565 S
O297 Co295 2.143 . S
O297 Co296 2.160 . S
C298 O299 1.278 . S
C298 O306 1.224 . S
O299 C298 1.278 . S
C300 O301 1.245 . S
C300 O312 1.232 . S
O301 C300 1.245 . S
O302 Co296 2.058 . S
O302 C328 1.269 . S
O303 Co295 2.074 . S
O303 C328 1.257 . S
H304 C329 0.930 . S
H305 C335 0.930 . S
O306 Co295 2.093 . S
O306 C298 1.224 . S
H307 C339 0.929 . S
H308 C341 0.930 . S
H309 C342 0.930 . S
H310 C340 0.929 . S
H311 C343 0.928 . S
O312 Co296 2.057 . S
O312 C300 1.232 . S
H313 C332 0.929 . S
H314 C333 0.929 . S
H315 C345 0.931 . S
H316 C337 0.929 . S
H317 C346 0.930 . S
H318 C338 0.931 . S
O319 Co295 2.097 . S
O319 C347 1.214 1_565 S
H320 C348 0.929 . S
H321 C349 0.929 . S
H322 C350 0.930 . S
H323 C351 0.929 . S
H324 C353 0.930 1_565 S
H325 C330 0.930 . S
H326 C334 0.930 . S
O327 Co296 2.050 . S
O327 C347 1.235 1_565 S
C328 O302 1.269 . S
C328 O303 1.257 . S
C329 H304 0.930 . S
C329 C332 1.388 1_545 S
C329 C334 1.418 . S
C330 H325 0.930 . S
C330 C333 1.404 . S
C330 C334 1.353 1_565 S
N331 Co296 2.145 . S
N331 C332 1.397 . S
N331 C333 1.334 . S
C332 H313 0.929 . S
C332 C329 1.388 1_565 S
C332 N331 1.397 . S
C333 H314 0.929 . S
C333 C330 1.404 . S
C333 N331 1.334 . S
C334 H326 0.930 . S
C334 C329 1.418 . S
C334 C330 1.353 1_545 S
C335 H305 0.930 . S
C335 N336 1.330 . S
C335 C337 1.446 . S
N336 Co295 2.151 . S
N336 C335 1.330 . S
N336 C340 1.418 . S
C337 H316 0.929 . S
C337 C335 1.446 . S
C337 C338 1.332 . S
C338 H318 0.931 . S
C338 C337 1.332 . S
C338 C339 1.267 . S
C339 H307 0.929 . S
C339 C338 1.267 . S
C339 C340 1.251 . S
C340 H310 0.929 . S
C340 N336 1.418 . S
C340 C339 1.251 . S
C341 H308 0.930 . S
C341 C343 1.406 . S
C341 C346 1.261 . S
C342 H309 0.930 . S
C342 N344 1.325 . S
C342 C345 1.357 . S
C343 H311 0.928 . S
C343 C341 1.406 . S
C343 N344 1.261 . S
N344 Co295 2.214 . S
N344 C342 1.325 . S
N344 C343 1.261 . S
C345 H315 0.931 . S
C345 C342 1.357 . S
C345 C346 1.312 . S
C346 H317 0.930 . S
C346 C341 1.261 . S
C346 C345 1.312 . S
C347 O319 1.214 1_545 S
C347 O327 1.235 1_545 S
C348 H320 0.929 . S
C348 C351 1.391 . S
C348 C353 1.391 . S
C349 H321 0.929 . S
C349 C350 1.390 . S
C349 N352 1.391 . S
C350 H322 0.930 . S
C350 C349 1.390 . S
C350 C351 1.392 . S
C351 H323 0.929 . S
C351 C348 1.391 . S
C351 C350 1.392 . S
N352 Co296 2.257 1_545 S
N352 C349 1.391 . S
N352 C353 1.388 . S
C353 H324 0.930 1_545 S
C353 C348 1.391 . S
C353 N352 1.388 . S
Co354 O356 2.143 . S
Co354 O362 2.074 . S
Co354 O365 2.093 . S
Co354 O378 2.097 . S
Co354 N395 2.151 . S
Co354 N403 2.214 . S
Co355 O356 2.160 . S
Co355 O361 2.058 . S
Co355 O371 2.057 . S
Co355 O386 2.037 . S
Co355 N390 2.145 . S
Co355 N411 2.257 . S
O356 Co354 2.143 . S
O356 Co355 2.160 . S
C357 O358 1.278 . S
C357 O365 1.224 . S
O358 C357 1.278 . S
C359 O360 1.245 . S
C359 O371 1.232 . S
O360 C359 1.245 . S
O361 Co355 2.058 . S
O361 C387 1.269 . S
O362 Co354 2.074 . S
O362 C387 1.257 . S
H363 C388 0.930 . S
H364 C394 0.930 . S
O365 Co354 2.093 . S
O365 C357 1.224 . S
H366 C398 0.929 . S
H367 C400 0.930 . S
H368 C401 0.930 . S
H369 C399 0.929 . S
H370 C402 0.928 . S
O371 Co355 2.057 . S
O371 C359 1.232 . S
H372 C391 0.929 . S
H373 C392 0.929 . S
H374 C404 0.931 . S
H375 C396 0.929 . S
H376 C405 0.930 . S
H377 C397 0.931 . S
O378 Co354 2.097 . S
O378 C406 1.214 . S
H379 C407 0.929 . S
H380 C408 0.929 . S
H381 C409 0.930 . S
H382 C410 0.929 . S
H383 C412 0.930 . S
H384 C389 0.930 . S
H385 C393 0.930 1_545 S
O386 Co355 2.037 . S
O386 C406 1.234 . S
C387 O361 1.269 . S
C387 O362 1.257 . S
C388 H363 0.930 . S
C388 C391 1.388 . S
C388 C393 1.418 . S
C389 H384 0.930 . S
C389 C392 1.404 . S
C389 C393 1.353 . S
N390 Co355 2.145 . S
N390 C391 1.397 . S
N390 C392 1.334 . S
C391 H372 0.929 . S
C391 C388 1.388 . S
C391 N390 1.397 . S
C392 H373 0.929 . S
C392 C389 1.404 . S
C392 N390 1.334 . S
C393 H385 0.930 1_565 S
C393 C388 1.418 . S
C393 C389 1.353 . S
C394 H364 0.930 . S
C394 N395 1.330 . S
C394 C396 1.446 . S
N395 Co354 2.151 . S
N395 C394 1.330 . S
N395 C399 1.418 . S
C396 H375 0.929 . S
C396 C394 1.446 . S
C396 C397 1.332 . S
C397 H377 0.931 . S
C397 C396 1.332 . S
C397 C398 1.267 . S
C398 H366 0.929 . S
C398 C397 1.267 . S
C398 C399 1.251 . S
C399 H369 0.929 . S
C399 N395 1.418 . S
C399 C398 1.251 . S
C400 H367 0.930 . S
C400 C402 1.406 . S
C400 C405 1.261 . S
C401 H368 0.930 . S
C401 N403 1.325 . S
C401 C404 1.357 . S
C402 H370 0.928 . S
C402 C400 1.406 . S
C402 N403 1.261 . S
N403 Co354 2.214 . S
N403 C401 1.325 . S
N403 C402 1.261 . S
C404 H374 0.931 . S
C404 C401 1.357 . S
C404 C405 1.312 . S
C405 H376 0.930 . S
C405 C400 1.261 . S
C405 C404 1.312 . S
C406 O378 1.214 . S
C406 O386 1.234 . S
C407 H379 0.929 . S
C407 C410 1.391 . S
C407 C412 1.391 . S
C408 H380 0.929 . S
C408 C409 1.390 . S
C408 N411 1.391 . S
C409 H381 0.930 . S
C409 C408 1.390 . S
C409 C410 1.392 . S
C410 H382 0.929 . S
C410 C407 1.391 . S
C410 C409 1.392 . S
N411 Co355 2.257 . S
N411 C408 1.391 . S
N411 C412 1.388 . S
C412 H383 0.930 . S
C412 C407 1.391 . S
C412 N411 1.388 . S
Co413 O415 2.143 . S
Co413 O421 2.074 . S
Co413 O424 2.093 . S
Co413 O437 2.097 . S
Co413 N454 2.151 . S
Co413 N462 2.214 1_556 S
Co414 O415 2.160 . S
Co414 O420 2.058 . S
Co414 O430 2.057 . S
Co414 O445 2.050 . S
Co414 N449 2.145 . S
Co414 N470 2.257 1_455 S
O415 Co413 2.143 . S
O415 Co414 2.160 . S
C416 O417 1.278 . S
C416 O424 1.224 . S
O417 C416 1.278 . S
C418 O419 1.245 . S
C418 O430 1.232 . S
O419 C418 1.245 . S
O420 Co414 2.058 . S
O420 C446 1.269 . S
O421 Co413 2.074 . S
O421 C446 1.257 . S
H422 C447 0.930 . S
H423 C453 0.930 . S
O424 Co413 2.093 . S
O424 C416 1.224 . S
H425 C457 0.929 1_554 S
H426 C459 0.930 . S
H427 C460 0.930 . S
H428 C458 0.929 1_554 S
H429 C461 0.928 . S
O430 Co414 2.057 . S
O430 C418 1.232 . S
H431 C450 0.929 . S
H432 C451 0.929 . S
H433 C463 0.931 . S
H434 C455 0.929 . S
H435 C464 0.930 . S
H436 C456 0.931 . S
O437 Co413 2.097 . S
O437 C465 1.214 1_455 S
H438 C466 0.929 . S
H439 C467 0.929 . S
H440 C468 0.930 . S
H441 C469 0.929 . S
H442 C471 0.930 1_455 S
H443 C448 0.930 . S
H444 C452 0.930 . S
O445 Co414 2.050 . S
O445 C465 1.235 1_455 S
C446 O420 1.269 . S
C446 O421 1.257 . S
C447 H422 0.930 . S
C447 C450 1.388 1_655 S
C447 C452 1.418 . S
C448 H443 0.930 . S
C448 C451 1.404 . S
C448 C452 1.353 1_455 S
N449 Co414 2.145 . S
N449 C450 1.397 . S
N449 C451 1.334 . S
C450 H431 0.929 . S
C450 C447 1.388 1_455 S
C450 N449 1.397 . S
C451 H432 0.929 . S
C451 C448 1.404 . S
C451 N449 1.334 . S
C452 H444 0.930 . S
C452 C447 1.418 . S
C452 C448 1.353 1_655 S
C453 H423 0.930 . S
C453 N454 1.330 . S
C453 C455 1.446 . S
N454 Co413 2.151 . S
N454 C453 1.330 . S
N454 C458 1.418 . S
C455 H434 0.929 . S
C455 C453 1.446 . S
C455 C456 1.332 . S
C456 H436 0.931 . S
C456 C455 1.332 . S
C456 C457 1.267 . S
C457 H425 0.929 1_556 S
C457 C456 1.267 . S
C457 C458 1.251 . S
C458 H428 0.929 1_556 S
C458 N454 1.418 . S
C458 C457 1.251 . S
C459 H426 0.930 . S
C459 C461 1.406 . S
C459 C464 1.261 . S
C460 H427 0.930 . S
C460 N462 1.325 . S
C460 C463 1.357 . S
C461 H429 0.928 . S
C461 C459 1.406 . S
C461 N462 1.261 . S
N462 Co413 2.214 1_554 S
N462 C460 1.325 . S
N462 C461 1.261 . S
C463 H433 0.931 . S
C463 C460 1.357 . S
C463 C464 1.312 . S
C464 H435 0.930 . S
C464 C459 1.261 . S
C464 C463 1.312 . S
C465 O437 1.214 1_655 S
C465 O445 1.235 1_655 S
C466 H438 0.929 . S
C466 C469 1.391 . S
C466 C471 1.391 . S
C467 H439 0.929 . S
C467 C468 1.390 . S
C467 N470 1.391 . S
C468 H440 0.930 . S
C468 C467 1.390 . S
C468 C469 1.392 . S
C469 H441 0.929 . S
C469 C466 1.391 . S
C469 C468 1.392 . S
N470 Co414 2.257 1_655 S
N470 C467 1.391 . S
N470 C471 1.388 . S
C471 H442 0.930 1_655 S
C471 C466 1.391 . S
C471 N470 1.388 . S
Co472 O474 2.143 . S
Co472 O480 2.074 . S
Co472 O483 2.093 . S
Co472 O496 2.097 . S
Co472 N513 2.151 . S
Co472 N521 2.214 . S
Co473 O474 2.160 . S
Co473 O479 2.058 . S
Co473 O489 2.057 . S
Co473 O504 2.048 . S
Co473 N508 2.145 . S
Co473 N529 2.257 1_545 S
O474 Co472 2.143 . S
O474 Co473 2.160 . S
C475 O476 1.278 . S
C475 O483 1.224 . S
O476 C475 1.278 . S
C477 O478 1.245 . S
C477 O489 1.232 . S
O478 C477 1.245 . S
O479 Co473 2.058 . S
O479 C505 1.269 . S
O480 Co472 2.074 . S
O480 C505 1.257 . S
H481 C506 0.930 . S
H482 C512 0.930 . S
O483 Co472 2.093 . S
O483 C475 1.224 . S
H484 C516 0.929 . S
H485 C518 0.930 . S
H486 C519 0.930 . S
H487 C517 0.929 . S
H488 C520 0.928 . S
O489 Co473 2.057 . S
O489 C477 1.232 . S
H490 C509 0.929 . S
H491 C510 0.929 . S
H492 C522 0.931 . S
H493 C514 0.929 . S
H494 C523 0.930 . S
H495 C515 0.931 . S
O496 Co472 2.097 . S
O496 C524 1.214 1_545 S
H497 C525 0.929 . S
H498 C526 0.929 . S
H499 C527 0.930 . S
H500 C528 0.929 . S
H501 C530 0.930 1_545 S
H502 C507 0.930 . S
H503 C511 0.930 1_655 S
O504 Co473 2.048 . S
O504 C524 1.223 1_545 S
C505 O479 1.269 . S
C505 O480 1.257 . S
C506 H481 0.930 . S
C506 C509 1.388 1_565 S
C506 C511 1.418 . S
C507 H502 0.930 . S
C507 C510 1.404 . S
C507 C511 1.353 1_545 S
N508 Co473 2.145 . S
N508 C509 1.397 . S
N508 C510 1.334 . S
C509 H490 0.929 . S
C509 C506 1.388 1_545 S
C509 N508 1.397 . S
C510 H491 0.929 . S
C510 C507 1.404 . S
C510 N508 1.334 . S
C511 H503 0.930 1_455 S
C511 C506 1.418 . S
C511 C507 1.353 1_565 S
C512 H482 0.930 . S
C512 N513 1.330 . S
C512 C514 1.446 . S
N513 Co472 2.151 . S
N513 C512 1.330 . S
N513 C517 1.418 . S
C514 H493 0.929 . S
C514 C512 1.446 . S
C514 C515 1.332 . S
C515 H495 0.931 . S
C515 C514 1.332 . S
C515 C516 1.267 . S
C516 H484 0.929 . S
C516 C515 1.267 . S
C516 C517 1.251 . S
C517 H487 0.929 . S
C517 N513 1.418 . S
C517 C516 1.251 . S
C518 H485 0.930 . S
C518 C520 1.406 . S
C518 C523 1.261 . S
C519 H486 0.930 . S
C519 N521 1.325 . S
C519 C522 1.357 . S
C520 H488 0.928 . S
C520 C518 1.406 . S
C520 N521 1.261 . S
N521 Co472 2.214 . S
N521 C519 1.325 . S
N521 C520 1.261 . S
C522 H492 0.931 . S
C522 C519 1.357 . S
C522 C523 1.312 . S
C523 H494 0.930 . S
C523 C518 1.261 . S
C523 C522 1.312 . S
C524 O496 1.214 1_565 S
C524 O504 1.223 1_565 S
C525 H497 0.929 . S
C525 C528 1.391 . S
C525 C530 1.391 . S
C526 H498 0.929 . S
C526 C527 1.390 . S
C526 N529 1.391 . S
C527 H499 0.930 . S
C527 C526 1.390 . S
C527 C528 1.392 . S
C528 H500 0.929 . S
C528 C525 1.391 . S
C528 C527 1.392 . S
N529 Co473 2.257 1_565 S
N529 C526 1.391 . S
N529 C530 1.388 . S
C530 H501 0.930 1_565 S
C530 C525 1.391 . S
C530 N529 1.388 . S
Co531 O533 2.143 . S
Co531 O539 2.074 . S
Co531 O542 2.093 . S
Co531 O555 2.097 . S
Co531 N572 2.151 . S
Co531 N580 2.214 . S
Co532 O533 2.160 . S
Co532 O538 2.058 . S
Co532 O548 2.057 . S
Co532 O563 2.037 . S
Co532 N567 2.145 . S
Co532 N588 2.257 . S
O533 Co531 2.143 . S
O533 Co532 2.160 . S
C534 O535 1.278 . S
C534 O542 1.224 . S
O535 C534 1.278 . S
C536 O537 1.245 . S
C536 O548 1.232 . S
O537 C536 1.245 . S
O538 Co532 2.058 . S
O538 C564 1.269 . S
O539 Co531 2.074 . S
O539 C564 1.257 . S
H540 C565 0.930 . S
H541 C571 0.930 . S
O542 Co531 2.093 . S
O542 C534 1.224 . S
H543 C575 0.929 . S
H544 C577 0.930 . S
H545 C578 0.930 . S
H546 C576 0.929 . S
H547 C579 0.928 . S
O548 Co532 2.057 . S
O548 C536 1.232 . S
H549 C568 0.929 . S
H550 C569 0.929 . S
H551 C581 0.931 . S
H552 C573 0.929 . S
H553 C582 0.930 . S
H554 C574 0.931 . S
O555 Co531 2.097 . S
O555 C583 1.214 . S
H556 C584 0.929 . S
H557 C585 0.929 . S
H558 C586 0.930 . S
H559 C587 0.929 . S
H560 C589 0.930 . S
H561 C566 0.930 . S
H562 C570 0.930 1_565 S
O563 Co532 2.037 . S
O563 C583 1.234 . S
C564 O538 1.269 . S
C564 O539 1.257 . S
C565 H540 0.930 . S
C565 C568 1.388 . S
C565 C570 1.418 . S
C566 H561 0.930 . S
C566 C569 1.404 . S
C566 C570 1.353 . S
N567 Co532 2.145 . S
N567 C568 1.397 . S
N567 C569 1.334 . S
C568 H549 0.929 . S
C568 C565 1.388 . S
C568 N567 1.397 . S
C569 H550 0.929 . S
C569 C566 1.404 . S
C569 N567 1.334 . S
C570 H562 0.930 1_545 S
C570 C565 1.418 . S
C570 C566 1.353 . S
C571 H541 0.930 . S
C571 N572 1.330 . S
C571 C573 1.446 . S
N572 Co531 2.151 . S
N572 C571 1.330 . S
N572 C576 1.418 . S
C573 H552 0.929 . S
C573 C571 1.446 . S
C573 C574 1.332 . S
C574 H554 0.931 . S
C574 C573 1.332 . S
C574 C575 1.267 . S
C575 H543 0.929 . S
C575 C574 1.267 . S
C575 C576 1.251 . S
C576 H546 0.929 . S
C576 N572 1.418 . S
C576 C575 1.251 . S
C577 H544 0.930 . S
C577 C579 1.406 . S
C577 C582 1.261 . S
C578 H545 0.930 . S
C578 N580 1.325 . S
C578 C581 1.357 . S
C579 H547 0.928 . S
C579 C577 1.406 . S
C579 N580 1.261 . S
N580 Co531 2.214 . S
N580 C578 1.325 . S
N580 C579 1.261 . S
C581 H551 0.931 . S
C581 C578 1.357 . S
C581 C582 1.312 . S
C582 H553 0.930 . S
C582 C577 1.261 . S
C582 C581 1.312 . S
C583 O555 1.214 . S
C583 O563 1.234 . S
C584 H556 0.929 . S
C584 C587 1.391 . S
C584 C589 1.391 . S
C585 H557 0.929 . S
C585 C586 1.390 . S
C585 N588 1.391 . S
C586 H558 0.930 . S
C586 C585 1.390 . S
C586 C587 1.392 . S
C587 H559 0.929 . S
C587 C584 1.391 . S
C587 C586 1.392 . S
N588 Co532 2.257 . S
N588 C585 1.391 . S
N588 C589 1.388 . S
C589 H560 0.930 . S
C589 C584 1.391 . S
C589 N588 1.388 . S
Co590 O592 2.143 . S
Co590 O598 2.074 . S
Co590 O601 2.093 . S
Co590 O614 2.097 . S
Co590 N631 2.151 . S
Co590 N639 2.214 1_556 S
Co591 O592 2.160 . S
Co591 O597 2.058 . S
Co591 O607 2.057 . S
Co591 O622 2.050 . S
Co591 N626 2.145 . S
Co591 N647 2.257 1_655 S
O592 Co590 2.143 . S
O592 Co591 2.160 . S
C593 O594 1.278 . S
C593 O601 1.224 . S
O594 C593 1.278 . S
C595 O596 1.245 . S
C595 O607 1.232 . S
O596 C595 1.245 . S
O597 Co591 2.058 . S
O597 C623 1.269 . S
O598 Co590 2.074 . S
O598 C623 1.257 . S
H599 C624 0.930 . S
H600 C630 0.930 . S
O601 Co590 2.093 . S
O601 C593 1.224 . S
H602 C634 0.929 1_554 S
H603 C636 0.930 . S
H604 C637 0.930 . S
H605 C635 0.929 1_554 S
H606 C638 0.928 . S
O607 Co591 2.057 . S
O607 C595 1.232 . S
H608 C627 0.929 . S
H609 C628 0.929 . S
H610 C640 0.931 . S
H611 C632 0.929 . S
H612 C641 0.930 . S
H613 C633 0.931 . S
O614 Co590 2.097 . S
O614 C642 1.214 1_655 S
H615 C643 0.929 . S
H616 C644 0.929 . S
H617 C645 0.930 . S
H618 C646 0.929 . S
H619 C648 0.930 1_655 S
H620 C625 0.930 . S
H621 C629 0.930 . S
O622 Co591 2.050 . S
O622 C642 1.235 1_655 S
C623 O597 1.269 . S
C623 O598 1.257 . S
C624 H599 0.930 . S
C624 C627 1.388 1_455 S
C624 C629 1.418 . S
C625 H620 0.930 . S
C625 C628 1.404 . S
C625 C629 1.353 1_655 S
N626 Co591 2.145 . S
N626 C627 1.397 . S
N626 C628 1.334 . S
C627 H608 0.929 . S
C627 C624 1.388 1_655 S
C627 N626 1.397 . S
C628 H609 0.929 . S
C628 C625 1.404 . S
C628 N626 1.334 . S
C629 H621 0.930 . S
C629 C624 1.418 . S
C629 C625 1.353 1_455 S
C630 H600 0.930 . S
C630 N631 1.330 . S
C630 C632 1.446 . S
N631 Co590 2.151 . S
N631 C630 1.330 . S
N631 C635 1.418 . S
C632 H611 0.929 . S
C632 C630 1.446 . S
C632 C633 1.332 . S
C633 H613 0.931 . S
C633 C632 1.332 . S
C633 C634 1.267 . S
C634 H602 0.929 1_556 S
C634 C633 1.267 . S
C634 C635 1.251 . S
C635 H605 0.929 1_556 S
C635 N631 1.418 . S
C635 C634 1.251 . S
C636 H603 0.930 . S
C636 C638 1.406 . S
C636 C641 1.261 . S
C637 H604 0.930 . S
C637 N639 1.325 . S
C637 C640 1.357 . S
C638 H606 0.928 . S
C638 C636 1.406 . S
C638 N639 1.261 . S
N639 Co590 2.214 1_554 S
N639 C637 1.325 . S
N639 C638 1.261 . S
C640 H610 0.931 . S
C640 C637 1.357 . S
C640 C641 1.312 . S
C641 H612 0.930 . S
C641 C636 1.261 . S
C641 C640 1.312 . S
C642 O614 1.214 1_455 S
C642 O622 1.235 1_455 S
C643 H615 0.929 . S
C643 C646 1.391 . S
C643 C648 1.391 . S
C644 H616 0.929 . S
C644 C645 1.390 . S
C644 N647 1.391 . S
C645 H617 0.930 . S
C645 C644 1.390 . S
C645 C646 1.392 . S
C646 H618 0.929 . S
C646 C643 1.391 . S
C646 C645 1.392 . S
N647 Co591 2.257 1_455 S
N647 C644 1.391 . S
N647 C648 1.388 . S
C648 H619 0.930 1_455 S
C648 C643 1.391 . S
C648 N647 1.388 . S
Co649 O651 2.143 . S
Co649 O657 2.074 . S
Co649 O660 2.093 . S
Co649 O673 2.097 . S
Co649 N690 2.151 . S
Co649 N698 2.214 . S
Co650 O651 2.160 . S
Co650 O656 2.058 . S
Co650 O666 2.057 . S
Co650 O681 2.048 . S
Co650 N685 2.145 . S
Co650 N706 2.257 1_565 S
O651 Co649 2.143 . S
O651 Co650 2.160 . S
C652 O653 1.278 . S
C652 O660 1.224 . S
O653 C652 1.278 . S
C654 O655 1.245 . S
C654 O666 1.232 . S
O655 C654 1.245 . S
O656 Co650 2.058 . S
O656 C682 1.269 . S
O657 Co649 2.074 . S
O657 C682 1.257 . S
H658 C683 0.930 . S
H659 C689 0.930 . S
O660 Co649 2.093 . S
O660 C652 1.224 . S
H661 C693 0.929 . S
H662 C695 0.930 . S
H663 C696 0.930 . S
H664 C694 0.929 . S
H665 C697 0.928 . S
O666 Co650 2.057 . S
O666 C654 1.232 . S
H667 C686 0.929 . S
H668 C687 0.929 . S
H669 C699 0.931 . S
H670 C691 0.929 . S
H671 C700 0.930 . S
H672 C692 0.931 . S
O673 Co649 2.097 . S
O673 C701 1.214 1_565 S
H674 C702 0.929 . S
H675 C703 0.929 . S
H676 C704 0.930 . S
H677 C705 0.929 . S
H678 C707 0.930 1_565 S
H679 C684 0.930 . S
H680 C688 0.930 1_455 S
O681 Co650 2.048 . S
O681 C701 1.223 1_565 S
C682 O656 1.269 . S
C682 O657 1.257 . S
C683 H658 0.930 . S
C683 C686 1.388 1_545 S
C683 C688 1.418 . S
C684 H679 0.930 . S
C684 C687 1.404 . S
C684 C688 1.353 1_565 S
N685 Co650 2.145 . S
N685 C686 1.397 . S
N685 C687 1.334 . S
C686 H667 0.929 . S
C686 C683 1.388 1_565 S
C686 N685 1.397 . S
C687 H668 0.929 . S
C687 C684 1.404 . S
C687 N685 1.334 . S
C688 H680 0.930 1_655 S
C688 C683 1.418 . S
C688 C684 1.353 1_545 S
C689 H659 0.930 . S
C689 N690 1.330 . S
C689 C691 1.446 . S
N690 Co649 2.151 . S
N690 C689 1.330 . S
N690 C694 1.418 . S
C691 H670 0.929 . S
C691 C689 1.446 . S
C691 C692 1.332 . S
C692 H672 0.931 . S
C692 C691 1.332 . S
C692 C693 1.267 . S
C693 H661 0.929 . S
C693 C692 1.267 . S
C693 C694 1.251 . S
C694 H664 0.929 . S
C694 N690 1.418 . S
C694 C693 1.251 . S
C695 H662 0.930 . S
C695 C697 1.406 . S
C695 C700 1.261 . S
C696 H663 0.930 . S
C696 N698 1.325 . S
C696 C699 1.357 . S
C697 H665 0.928 . S
C697 C695 1.406 . S
C697 N698 1.261 . S
N698 Co649 2.214 . S
N698 C696 1.325 . S
N698 C697 1.261 . S
C699 H669 0.931 . S
C699 C696 1.357 . S
C699 C700 1.312 . S
C700 H671 0.930 . S
C700 C695 1.261 . S
C700 C699 1.312 . S
C701 O673 1.214 1_545 S
C701 O681 1.223 1_545 S
C702 H674 0.929 . S
C702 C705 1.391 . S
C702 C707 1.391 . S
C703 H675 0.929 . S
C703 C704 1.390 . S
C703 N706 1.391 . S
C704 H676 0.930 . S
C704 C703 1.390 . S
C704 C705 1.392 . S
C705 H677 0.929 . S
C705 C702 1.391 . S
C705 C704 1.392 . S
N706 Co650 2.257 1_545 S
N706 C703 1.391 . S
N706 C707 1.388 . S
C707 H678 0.930 1_545 S
C707 C702 1.391 . S
C707 N706 1.388 . S
C708 C709 1.369 . S
C708 C710 1.419 . S
C708 H712 0.930 . S
C709 C708 1.369 . S
C709 C718 1.429 . S
C710 C708 1.419 . S
C710 C711 1.363 . S
C710 H713 0.929 . S
C711 C710 1.363 . S
C711 C717 1.428 . S
H712 C708 0.930 . S
H713 C710 0.929 . S
S714 N715 1.613 . S
S714 N716 1.610 . S
N715 S714 1.613 . S
N715 C718 1.350 . S
N716 S714 1.610 . S
N716 C717 1.351 . S
C717 C711 1.428 . S
C717 N716 1.351 . S
C717 C718 1.434 . S
C718 C709 1.429 . S
C718 N715 1.350 . S
C718 C717 1.434 . S
C719 C720 1.369 1_655 S
C719 C721 1.419 . S
C719 H723 0.930 . S
C720 C719 1.369 1_455 S
C720 C729 1.429 . S
C721 C719 1.419 . S
C721 C722 1.363 . S
C721 H724 0.929 . S
C722 C721 1.363 . S
C722 C728 1.428 1_655 S
H723 C719 0.930 . S
H724 C721 0.929 . S
S725 N726 1.613 . S
S725 N727 1.610 . S
N726 S725 1.613 . S
N726 C729 1.350 . S
N727 S725 1.610 . S
N727 C728 1.351 . S
C728 C722 1.428 1_455 S
C728 N727 1.351 . S
C728 C729 1.434 . S
C729 C720 1.429 . S
C729 N726 1.350 . S
C729 C728 1.434 . S
C730 C731 1.369 . S
C730 C732 1.419 . S
C730 H734 0.930 . S
C731 C730 1.369 . S
C731 C740 1.429 1_565 S
C732 C730 1.419 . S
C732 C733 1.363 1_565 S
C732 H735 0.929 . S
C733 C732 1.363 1_545 S
C733 C739 1.428 . S
H734 C730 0.930 . S
H735 C732 0.929 . S
S736 N737 1.613 . S
S736 N738 1.610 . S
N737 S736 1.613 . S
N737 C740 1.350 . S
N738 S736 1.610 . S
N738 C739 1.351 . S
C739 C733 1.428 . S
C739 N738 1.351 . S
C739 C740 1.434 . S
C740 C731 1.429 1_545 S
C740 N737 1.350 . S
C740 C739 1.434 . S
C741 C742 1.369 . S
C741 C743 1.419 . S
C741 H745 0.930 . S
C742 C741 1.369 . S
C742 C751 1.429 . S
C743 C741 1.419 . S
C743 C744 1.363 . S
C743 H746 0.929 . S
C744 C743 1.363 . S
C744 C750 1.428 . S
H745 C741 0.930 . S
H746 C743 0.929 . S
S747 N748 1.613 . S
S747 N749 1.610 . S
N748 S747 1.613 . S
N748 C751 1.350 . S
N749 S747 1.610 . S
N749 C750 1.351 . S
C750 C744 1.428 . S
C750 N749 1.351 . S
C750 C751 1.434 . S
C751 C742 1.429 . S
C751 N748 1.350 . S
C751 C750 1.434 . S
C752 C753 1.369 . S
C752 C754 1.419 1_655 S
C752 H756 0.930 . S
C753 C752 1.369 . S
C753 C762 1.429 . S
C754 C752 1.419 1_455 S
C754 C755 1.363 . S
C754 H757 0.929 . S
C755 C754 1.363 . S
C755 C761 1.428 . S
H756 C752 0.930 . S
H757 C754 0.929 . S
S758 N759 1.613 . S
S758 N760 1.610 1_655 S
N759 S758 1.613 . S
N759 C762 1.350 . S
N760 S758 1.610 1_455 S
N760 C761 1.351 . S
C761 C755 1.428 . S
C761 N760 1.351 . S
C761 C762 1.434 1_455 S
C762 C753 1.429 . S
C762 N759 1.350 . S
C762 C761 1.434 1_655 S
C763 C764 1.369 1_565 S
C763 C765 1.419 . S
C763 H767 0.930 . S
C764 C763 1.369 1_545 S
C764 C773 1.429 . S
C765 C763 1.419 . S
C765 C766 1.363 . S
C765 H768 0.929 . S
C766 C765 1.363 . S
C766 C772 1.428 1_565 S
H767 C763 0.930 . S
H768 C765 0.929 . S
S769 N770 1.613 . S
S769 N771 1.610 . S
N770 S769 1.613 . S
N770 C773 1.350 . S
N771 S769 1.610 . S
N771 C772 1.351 . S
C772 C766 1.428 1_545 S
C772 N771 1.351 . S
C772 C773 1.434 . S
C773 C764 1.429 . S
C773 N770 1.350 . S
C773 C772 1.434 . S
C774 C775 1.369 . S
C774 C776 1.419 . S
C774 H778 0.930 . S
C775 C774 1.369 . S
C775 C784 1.429 . S
C776 C774 1.419 . S
C776 C777 1.363 . S
C776 H779 0.929 . S
C777 C776 1.363 . S
C777 C783 1.428 . S
H778 C774 0.930 . S
H779 C776 0.929 . S
S780 N781 1.613 . S
S780 N782 1.610 . S
N781 S780 1.613 . S
N781 C784 1.350 . S
N782 S780 1.610 . S
N782 C783 1.351 . S
C783 C777 1.428 . S
C783 N782 1.351 . S
C783 C784 1.434 . S
C784 C775 1.429 . S
C784 N781 1.350 . S
C784 C783 1.434 . S
C785 C786 1.369 . S
C785 C787 1.419 . S
C785 H789 0.930 . S
C786 C785 1.369 . S
C786 C795 1.429 . S
C787 C785 1.419 . S
C787 C788 1.363 . S
C787 H790 0.929 . S
C788 C787 1.363 . S
C788 C794 1.428 . S
H789 C785 0.930 . S
H790 C787 0.929 . S
S791 N792 1.613 . S
S791 N793 1.610 . S
N792 S791 1.613 . S
N792 C795 1.350 . S
N793 S791 1.610 . S
N793 C794 1.351 . S
C794 C788 1.428 . S
C794 N793 1.351 . S
C794 C795 1.434 . S
C795 C786 1.429 . S
C795 N792 1.350 . S
C795 C794 1.434 . S
C796 C797 1.369 . S
C796 C798 1.419 . S
C796 H800 0.930 . S
C797 C796 1.369 . S
C797 C806 1.429 . S
C798 C796 1.419 . S
C798 C799 1.363 . S
C798 H801 0.929 . S
C799 C798 1.363 . S
C799 C805 1.428 . S
H800 C796 0.930 . S
H801 C798 0.929 . S
S802 N803 1.613 . S
S802 N804 1.610 . S
N803 S802 1.613 . S
N803 C806 1.350 . S
N804 S802 1.610 . S
N804 C805 1.351 . S
C805 C799 1.428 . S
C805 N804 1.351 . S
C805 C806 1.434 . S
C806 C797 1.429 . S
C806 N803 1.350 . S
C806 C805 1.434 . S
C807 C808 1.369 . S
C807 C809 1.419 . S
C807 H811 0.930 . S
C808 C807 1.369 . S
C808 C817 1.429 . S
C809 C807 1.419 . S
C809 C810 1.363 . S
C809 H812 0.929 . S
C810 C809 1.363 . S
C810 C816 1.428 . S
H811 C807 0.930 . S
H812 C809 0.929 . S
S813 N814 1.613 . S
S813 N815 1.610 . S
N814 S813 1.613 . S
N814 C817 1.350 . S
N815 S813 1.610 . S
N815 C816 1.351 . S
C816 C810 1.428 . S
C816 N815 1.351 . S
C816 C817 1.434 . S
C817 C808 1.429 . S
C817 N814 1.350 . S
C817 C816 1.434 . S
C818 C819 1.369 . S
C818 C820 1.419 . S
C818 H822 0.930 . S
C819 C818 1.369 . S
C819 C828 1.429 . S
C820 C818 1.419 . S
C820 C821 1.363 . S
C820 H823 0.929 . S
C821 C820 1.363 . S
C821 C827 1.428 . S
H822 C818 0.930 . S
H823 C820 0.929 . S
S824 N825 1.613 . S
S824 N826 1.610 . S
N825 S824 1.613 . S
N825 C828 1.350 . S
N826 S824 1.610 . S
N826 C827 1.351 . S
C827 C821 1.428 . S
C827 N826 1.351 . S
C827 C828 1.434 . S
C828 C819 1.429 . S
C828 N825 1.350 . S
C828 C827 1.434 . S
C829 C830 1.369 . S
C829 C831 1.419 . S
C829 H833 0.930 . S
C830 C829 1.369 . S
C830 C839 1.429 . S
C831 C829 1.419 . S
C831 C832 1.363 . S
C831 H834 0.929 . S
C832 C831 1.363 . S
C832 C838 1.428 . S
H833 C829 0.930 . S
H834 C831 0.929 . S
S835 N836 1.613 . S
S835 N837 1.610 . S
N836 S835 1.613 . S
N836 C839 1.350 . S
N837 S835 1.610 . S
N837 C838 1.351 . S
C838 C832 1.428 . S
C838 N837 1.351 . S
C838 C839 1.434 . S
C839 C830 1.429 . S
C839 N836 1.350 . S
C839 C838 1.434 . S
C840 C841 1.369 1_554 S
C840 C842 1.419 1_565 S
C840 H844 0.930 . S
C841 C840 1.369 1_556 S
C841 C850 1.429 . S
C842 C840 1.419 1_545 S
C842 C843 1.363 . S
C842 H845 0.929 . S
C843 C842 1.363 . S
C843 C849 1.428 1_554 S
H844 C840 0.930 . S
H845 C842 0.929 . S
S846 N847 1.613 . S
S846 N848 1.610 . S
N847 S846 1.613 . S
N847 C850 1.350 1_545 S
N848 S846 1.610 . S
N848 C849 1.351 . S
C849 C843 1.428 1_556 S
C849 N848 1.351 . S
C849 C850 1.434 1_545 S
C850 C841 1.429 . S
C850 N847 1.350 1_565 S
C850 C849 1.434 1_565 S
C851 C852 1.369 . S
C851 C853 1.419 . S
C851 H855 0.930 . S
C852 C851 1.369 . S
C852 C861 1.429 . S
C853 C851 1.419 . S
C853 C854 1.363 . S
C853 H856 0.929 . S
C854 C853 1.363 . S
C854 C860 1.428 . S
H855 C851 0.930 . S
H856 C853 0.929 . S
S857 N858 1.613 . S
S857 N859 1.610 . S
N858 S857 1.613 . S
N858 C861 1.350 . S
N859 S857 1.610 . S
N859 C860 1.351 . S
C860 C854 1.428 . S
C860 N859 1.351 . S
C860 C861 1.434 . S
C861 C852 1.429 . S
C861 N858 1.350 . S
C861 C860 1.434 . S
C862 C863 1.369 . S
C862 C864 1.419 1_655 S
C862 H866 0.930 . S
C863 C862 1.369 . S
C863 C872 1.429 . S
C864 C862 1.419 1_455 S
C864 C865 1.363 . S
C864 H867 0.929 . S
C865 C864 1.363 . S
C865 C871 1.428 . S
H866 C862 0.930 . S
H867 C864 0.929 . S
S868 N869 1.613 . S
S868 N870 1.610 1_655 S
N869 S868 1.613 . S
N869 C872 1.350 . S
N870 S868 1.610 1_455 S
N870 C871 1.351 . S
C871 C865 1.428 . S
C871 N870 1.351 . S
C871 C872 1.434 1_455 S
C872 C863 1.429 . S
C872 N869 1.350 . S
C872 C871 1.434 1_655 S
C873 C874 1.369 . S
C873 C875 1.419 1_565 S
C873 H877 0.930 . S
C874 C873 1.369 . S
C874 C883 1.429 1_554 S
C875 C873 1.419 1_545 S
C875 C876 1.363 1_554 S
C875 H878 0.929 . S
C876 C875 1.363 1_556 S
C876 C882 1.428 . S
H877 C873 0.930 . S
H878 C875 0.929 . S
S879 N880 1.613 . S
S879 N881 1.610 1_565 S
N880 S879 1.613 . S
N880 C883 1.350 . S
N881 S879 1.610 1_545 S
N881 C882 1.351 . S
C882 C876 1.428 . S
C882 N881 1.351 . S
C882 C883 1.434 1_545 S
C883 C874 1.429 1_556 S
C883 N880 1.350 . S
C883 C882 1.434 1_565 S
C884 C885 1.369 . S
C884 C886 1.419 . S
C884 H888 0.930 . S
C885 C884 1.369 . S
C885 C894 1.429 . S
C886 C884 1.419 . S
C886 C887 1.363 . S
C886 H889 0.929 . S
C887 C886 1.363 . S
C887 C893 1.428 . S
H888 C884 0.930 . S
H889 C886 0.929 . S
S890 N891 1.613 . S
S890 N892 1.610 . S
N891 S890 1.613 . S
N891 C894 1.350 . S
N892 S890 1.610 . S
N892 C893 1.351 . S
C893 C887 1.428 . S
C893 N892 1.351 . S
C893 C894 1.434 . S
C894 C885 1.429 . S
C894 N891 1.350 . S
C894 C893 1.434 . S
C895 C896 1.369 . S
C895 C897 1.419 1_455 S
C895 H899 0.930 . S
C896 C895 1.369 . S
C896 C905 1.429 . S
C897 C895 1.419 1_655 S
C897 C898 1.363 . S
C897 H900 0.929 . S
C898 C897 1.363 . S
C898 C904 1.428 . S
H899 C895 0.930 . S
H900 C897 0.929 . S
S901 N902 1.613 . S
S901 N903 1.610 1_455 S
N902 S901 1.613 . S
N902 C905 1.350 . S
N903 S901 1.610 1_655 S
N903 C904 1.351 . S
C904 C898 1.428 . S
C904 N903 1.351 . S
C904 C905 1.434 1_655 S
C905 C896 1.429 . S
C905 N902 1.350 . S
C905 C904 1.434 1_455 S
C906 C907 1.369 . S
C906 C908 1.419 . S
C906 H910 0.930 . S
C907 C906 1.369 . S
C907 C916 1.429 1_556 S
C908 C906 1.419 . S
C908 C909 1.363 1_556 S
C908 H911 0.929 . S
C909 C908 1.363 1_554 S
C909 C915 1.428 . S
H910 C906 0.930 . S
H911 C908 0.929 . S
S912 N913 1.613 . S
S912 N914 1.610 . S
N913 S912 1.613 . S
N913 C916 1.350 . S
N914 S912 1.610 . S
N914 C915 1.351 . S
C915 C909 1.428 . S
C915 N914 1.351 . S
C915 C916 1.434 . S
C916 C907 1.429 1_554 S
C916 N913 1.350 . S
C916 C915 1.434 . S
C917 C918 1.369 . S
C917 C919 1.419 . S
C917 H921 0.930 . S
C918 C917 1.369 . S
C918 C927 1.429 . S
C919 C917 1.419 . S
C919 C920 1.363 . S
C919 H922 0.929 . S
C920 C919 1.363 . S
C920 C926 1.428 . S
H921 C917 0.930 . S
H922 C919 0.929 . S
S923 N924 1.613 . S
S923 N925 1.610 . S
N924 S923 1.613 . S
N924 C927 1.350 . S
N925 S923 1.610 . S
N925 C926 1.351 . S
C926 C920 1.428 . S
C926 N925 1.351 . S
C926 C927 1.434 . S
C927 C918 1.429 . S
C927 N924 1.350 . S
C927 C926 1.434 . S
C928 C929 1.369 . S
C928 C930 1.419 . S
C928 H932 0.930 . S
C929 C928 1.369 . S
C929 C938 1.429 . S
C930 C928 1.419 . S
C930 C931 1.363 . S
C930 H933 0.929 . S
C931 C930 1.363 . S
C931 C937 1.428 . S
H932 C928 0.930 . S
H933 C930 0.929 . S
S934 N935 1.613 . S
S934 N936 1.610 . S
N935 S934 1.613 . S
N935 C938 1.350 . S
N936 S934 1.610 . S
N936 C937 1.351 . S
C937 C931 1.428 . S
C937 N936 1.351 . S
C937 C938 1.434 . S
C938 C929 1.429 . S
C938 N935 1.350 . S
C938 C937 1.434 . S
C939 C940 1.369 1_556 S
C939 C941 1.419 . S
C939 H943 0.930 . S
C940 C939 1.369 1_554 S
C940 C949 1.429 . S
C941 C939 1.419 . S
C941 C942 1.363 . S
C941 H944 0.929 . S
C942 C941 1.363 . S
C942 C948 1.428 1_556 S
H943 C939 0.930 . S
H944 C941 0.929 . S
S945 N946 1.613 . S
S945 N947 1.610 . S
N946 S945 1.613 . S
N946 C949 1.350 . S
N947 S945 1.610 . S
N947 C948 1.351 . S
C948 C942 1.428 1_554 S
C948 N947 1.351 . S
C948 C949 1.434 . S
C949 C940 1.429 . S
C949 N946 1.350 . S
C949 C948 1.434 . S
C950 C951 1.369 . S
C950 C952 1.419 . S
C950 H954 0.930 . S
C951 C950 1.369 . S
C951 C960 1.429 . S
C952 C950 1.419 . S
C952 C953 1.363 . S
C952 H955 0.929 . S
C953 C952 1.363 . S
C953 C959 1.428 . S
H954 C950 0.930 . S
H955 C952 0.929 . S
S956 N957 1.613 . S
S956 N958 1.610 . S
N957 S956 1.613 . S
N957 C960 1.350 . S
N958 S956 1.610 . S
N958 C959 1.351 . S
C959 C953 1.428 . S
C959 N958 1.351 . S
C959 C960 1.434 . S
C960 C951 1.429 . S
C960 N957 1.350 . S
C960 C959 1.434 . S
C961 C962 1.369 . S
C961 C963 1.419 . S
C961 H965 0.930 . S
C962 C961 1.369 . S
C962 C971 1.429 . S
C963 C961 1.419 . S
C963 C964 1.363 . S
C963 H966 0.929 . S
C964 C963 1.363 . S
C964 C970 1.428 . S
H965 C961 0.930 . S
H966 C963 0.929 . S
S967 N968 1.613 . S
S967 N969 1.610 . S
N968 S967 1.613 . S
N968 C971 1.350 . S
N969 S967 1.610 . S
N969 C970 1.351 . S
C970 C964 1.428 . S
C970 N969 1.351 . S
C970 C971 1.434 . S
C971 C962 1.429 . S
C971 N968 1.350 . S
C971 C970 1.434 . S
C709 C180 1.391 . S
C711 C3 1.386 . S
C720 C62 1.389 . S
C722 C239 1.387 . S
C731 C298 1.384 . S
C733 C121 1.390 . S
C742 C357 1.386 . S
C744 C534 1.387 . S
C753 C593 1.387 . S
C755 C416 1.389 . S
C764 C475 1.391 . S
C766 C652 1.386 . S
C775 C477 1.627 . S
C777 C5 1.627 . S
C786 C64 1.627 . S
C788 C536 1.627 . S
C797 C123 1.626 . S
C799 C595 1.628 . S
C808 C182 1.628 . S
C810 C654 1.626 . S
C819 C359 1.626 . S
C821 C241 1.628 . S
C830 C418 1.627 . S
C832 C300 1.629 . S
C841 C446 1.585 . S
C843 C33 1.585 . S
C852 C92 1.585 . S
C854 C505 1.585 . S
C863 C151 1.584 . S
C865 C564 1.584 . S
C874 C210 1.583 . S
C876 C623 1.583 . S
C885 C682 1.585 . S
C887 C269 1.585 . S
C896 C328 1.586 . S
C898 C387 1.585 . S
C907 C642 1.513 . S
C909 C52 1.512 . S
C918 C701 1.512 . S
C920 C111 1.513 . S
C929 C406 1.513 . S
C931 C170 1.512 . S
C940 C229 1.511 . S
C942 C465 1.513 . S
C951 C288 1.514 . S
C953 C524 1.511 . S
C962 C347 1.511 . S
C964 C583 1.514 . S
