# Generated by pormake.
# Topology sml, (6)-cn, num edge types: 1
# Building blocks:
#     Node 0, Type 0, BuildingBlock: PAMTUU_clean_sbu_0, # of connection points: 6
#     Node 1, Type 0, BuildingBlock: PAMTUU_clean_sbu_0, # of connection points: 6
#     Node 2, Type 0, BuildingBlock: PAMTUU_clean_sbu_0, # of connection points: 6
#     Node 3, Type 0, BuildingBlock: PAMTUU_clean_sbu_0, # of connection points: 6
#     Node 4, Type 0, BuildingBlock: PAMTUU_clean_sbu_0, # of connection points: 6
#     Node 5, Type 0, BuildingBlock: PAMTUU_clean_sbu_0, # of connection points: 6
#     Edge 6, Type (0, 0), BuildingBlock: FUNLAD_clean_linker_0, # of connection points: 2
#     Edge 7, Type (0, 0), BuildingBlock: FUNLAD_clean_linker_0, # of connection points: 2
#     Edge 8, Type (0, 0), BuildingBlock: FUNLAD_clean_linker_0, # of connection points: 2
#     Edge 9, Type (0, 0), BuildingBlock: FUNLAD_clean_linker_0, # of connection points: 2
#     Edge 10, Type (0, 0), BuildingBlock: FUNLAD_clean_linker_0, # of connection points: 2
#     Edge 11, Type (0, 0), BuildingBlock: FUNLAD_clean_linker_0, # of connection points: 2
#     Edge 12, Type (0, 0), BuildingBlock: FUNLAD_clean_linker_0, # of connection points: 2
#     Edge 13, Type (0, 0), BuildingBlock: FUNLAD_clean_linker_0, # of connection points: 2
#     Edge 14, Type (0, 0), BuildingBlock: FUNLAD_clean_linker_0, # of connection points: 2
#     Edge 15, Type (0, 0), BuildingBlock: FUNLAD_clean_linker_0, # of connection points: 2
#     Edge 16, Type (0, 0), BuildingBlock: FUNLAD_clean_linker_0, # of connection points: 2
#     Edge 17, Type (0, 0), BuildingBlock: FUNLAD_clean_linker_0, # of connection points: 2
#     Edge 18, Type (0, 0), BuildingBlock: FUNLAD_clean_linker_0, # of connection points: 2
#     Edge 19, Type (0, 0), BuildingBlock: FUNLAD_clean_linker_0, # of connection points: 2
#     Edge 20, Type (0, 0), BuildingBlock: FUNLAD_clean_linker_0, # of connection points: 2
#     Edge 21, Type (0, 0), BuildingBlock: FUNLAD_clean_linker_0, # of connection points: 2
#     Edge 22, Type (0, 0), BuildingBlock: FUNLAD_clean_linker_0, # of connection points: 2
#     Edge 23, Type (0, 0), BuildingBlock: FUNLAD_clean_linker_0, # of connection points: 2
# Relax obj value: 0.169
# Max RMSD: 0.220
# Mean RMSD: 0.220
data_MOF--net-sml--node1-PAMTUU_clean_sbu_0--edge1-FUNLAD_clean_linker_0
_symmetry_space_group_name_H-M    P1
_symmetry_Int_Tables_number       1
_symmetry_cell_setting            triclinic
loop_
_symmetry_equiv_pos_as_xyz
'x, y, z'
_cell_length_a     40.388448
_cell_length_b     40.323906
_cell_length_c     27.247783
_cell_angle_alpha  89.980546
_cell_angle_beta   90.00543
_cell_angle_gamma 119.99682
loop_
_atom_site_label
_atom_site_type_symbol
_atom_site_fract_x
_atom_site_fract_y
_atom_site_fract_z
_atom_type_partial_charge
Tb0 Tb 0.20879 0.40953 0.05737 0.0
Tb1 Tb 0.15551 0.40075 0.96051 0.0
C2 C 0.24335 0.45495 0.95904 0.0
C3 C 0.23695 0.41466 0.18641 0.0
C4 C 0.21841 0.41187 0.28658 0.0
C5 C 0.25478 0.41874 0.27218 0.0
C6 C 0.26398 0.4202 0.22241 0.0
C7 C 0.20046 0.40722 0.20053 0.0
C8 C 0.19128 0.40589 0.25018 0.0
C9 C 0.24693 0.41749 0.1342 0.0
O10 O 0.17167 0.43103 0.07876 0.0
O11 O 0.16303 0.45008 1.00313 0.0
O12 O 0.11516 0.37059 0.01847 0.0
O13 O 0.15327 0.35842 0.06976 0.0
O14 O 0.14385 0.42853 0.90373 0.0
O15 O 0.11104 0.36708 0.91146 0.0
O16 O 0.16858 0.35444 0.95603 0.0
O17 O 0.22294 0.37939 1.00354 0.0
O18 O 0.24379 0.45686 1.00729 0.0
O19 O 0.21376 0.42853 0.93532 0.0
C20 C 0.16271 0.45195 0.0513 0.0
O21 O 0.22925 0.38563 0.10937 0.0
O22 O 0.24724 0.44585 0.11076 0.0
C23 C 0.11945 0.35172 0.05481 0.0
C24 C 0.1255 0.39231 0.83153 0.0
C25 C 0.14025 0.3881 0.73127 0.0
C26 C 0.10685 0.38811 0.74613 0.0
C27 C 0.0996 0.39026 0.79588 0.0
C28 C 0.15854 0.39172 0.81711 0.0
C29 C 0.1659 0.38969 0.76743 0.0
C30 C 0.11876 0.39635 0.88354 0.0
C31 C 0.19977 0.35479 0.97094 0.0
H32 H 0.2764 0.42381 0.29934 0.0
H33 H 0.29231 0.42606 0.21205 0.0
H34 H 0.17916 0.4027 0.17312 0.0
H35 H 0.16288 0.40003 0.26007 0.0
H36 H 0.08623 0.38634 0.71932 0.0
H37 H 0.07393 0.39063 0.80648 0.0
H38 H 0.17891 0.39336 0.84427 0.0
H39 H 0.1921 0.39024 0.75734 0.0
Tb40 Tb 0.79656 0.22546 0.40655 0.0
Tb41 Tb 0.7456 0.17369 0.3111 0.0
C42 C 0.77598 0.26149 0.31954 0.0
C43 C 0.82334 0.25727 0.53474 0.0
C44 C 0.80779 0.24557 0.63636 0.0
C45 C 0.84039 0.27874 0.61903 0.0
C46 C 0.84809 0.28448 0.56867 0.0
C47 C 0.79062 0.22429 0.55166 0.0
C48 C 0.78293 0.21846 0.60199 0.0
C49 C 0.8319 0.26313 0.48189 0.0
O50 O 0.73734 0.20952 0.41932 0.0
O51 O 0.70413 0.15623 0.37029 0.0
O52 O 0.75704 0.1357 0.3554 0.0
O53 O 0.77066 0.16642 0.43028 0.0
O54 O 0.70142 0.15903 0.25983 0.0
O55 O 0.73844 0.13498 0.25506 0.0
O56 O 0.8044 0.20907 0.28703 0.0
O57 O 0.83518 0.21671 0.36032 0.0
O58 O 0.80401 0.26561 0.34806 0.0
O59 O 0.74614 0.22773 0.31114 0.0
C60 C 0.70579 0.1779 0.40736 0.0
O61 O 0.83821 0.23786 0.46063 0.0
O62 O 0.80929 0.27047 0.45573 0.0
C63 C 0.76159 0.13612 0.40322 0.0
C64 C 0.71759 0.14783 0.18073 0.0
C65 C 0.73032 0.16284 0.07908 0.0
C66 C 0.69863 0.12875 0.09617 0.0
C67 C 0.69239 0.12134 0.14649 0.0
C68 C 0.74893 0.18215 0.16412 0.0
C69 C 0.75523 0.18961 0.11375 0.0
C70 C 0.71173 0.13876 0.23346 0.0
C71 C 0.83504 0.21645 0.31221 0.0
H72 H 0.86036 0.29997 0.64444 0.0
H73 H 0.87351 0.31006 0.55625 0.0
H74 H 0.77107 0.203 0.52592 0.0
H75 H 0.75733 0.19287 0.61395 0.0
H76 H 0.67852 0.10778 0.07062 0.0
H77 H 0.66803 0.09473 0.15868 0.0
H78 H 0.76879 0.20291 0.1901 0.0
H79 H 0.78011 0.21594 0.10199 0.0
Tb80 Tb 0.55872 0.79759 0.73378 0.0
Tb81 Tb 0.56218 0.74964 0.63707 0.0
C82 C 0.50443 0.77882 0.64265 0.0
C83 C 0.56015 0.82687 0.86261 0.0
C84 C 0.5663 0.81641 0.96393 0.0
C85 C 0.55837 0.84477 0.94722 0.0
C86 C 0.55527 0.84988 0.89699 0.0
C87 C 0.56857 0.79889 0.8789 0.0
C88 C 0.57159 0.79368 0.92912 0.0
C89 C 0.55492 0.83111 0.81006 0.0
O90 O 0.53989 0.74013 0.75865 0.0
O91 O 0.51671 0.70896 0.6856 0.0
O92 O 0.59635 0.74257 0.69249 0.0
O93 O 0.61146 0.79544 0.74023 0.0
O94 O 0.53229 0.70828 0.58294 0.0
O95 O 0.59391 0.73797 0.58578 0.0
O96 O 0.60645 0.80936 0.62748 0.0
O97 O 0.58092 0.83854 0.6742 0.0
O98 O 0.50657 0.77906 0.69085 0.0
O99 O 0.52964 0.77633 0.61511 0.0
C100 C 0.51749 0.70905 0.73392 0.0
O101 O 0.58541 0.84398 0.7827 0.0
O102 O 0.52555 0.80194 0.78987 0.0
C103 C 0.61752 0.76774 0.72589 0.0
C104 C 0.5651 0.72274 0.50775 0.0
C105 C 0.56664 0.73649 0.40593 0.0
C106 C 0.5706 0.70587 0.42382 0.0
C107 C 0.56979 0.69908 0.47427 0.0
C108 C 0.56152 0.75355 0.49031 0.0
C109 C 0.56225 0.76036 0.43985 0.0
C110 C 0.56355 0.71486 0.56063 0.0
C111 C 0.60376 0.83955 0.63927 0.0
H112 H 0.55366 0.86243 0.97301 0.0
H113 H 0.54854 0.87146 0.885 0.0
H114 H 0.57244 0.78084 0.85278 0.0
H115 H 0.57818 0.77192 0.94068 0.0
H116 H 0.57463 0.6873 0.39885 0.0
H117 H 0.57277 0.67527 0.48715 0.0
H118 H 0.55786 0.77214 0.51573 0.0
H119 H 0.5587 0.7839 0.42741 0.0
Tb120 Tb 0.73996 0.56319 0.062 0.0
Tb121 Tb 0.79178 0.56442 0.96672 0.0
C122 C 0.70148 0.51762 0.96604 0.0
C123 C 0.7102 0.55812 0.19173 0.0
C124 C 0.72199 0.55318 0.2931 0.0
C125 C 0.68947 0.55409 0.27633 0.0
C126 C 0.68369 0.5566 0.22611 0.0
C127 C 0.74244 0.55672 0.20807 0.0
C128 C 0.74832 0.55434 0.25829 0.0
C129 C 0.70463 0.56226 0.13915 0.0
O130 O 0.74495 0.51207 0.06449 0.0
O131 O 0.80218 0.53369 0.025 0.0
O132 O 0.82953 0.61214 1.01342 0.0
O133 O 0.79878 0.58873 0.08678 0.0
O134 O 0.80614 0.53403 0.91649 0.0
O135 O 0.83269 0.59551 0.91257 0.0
O136 O 0.7629 0.59489 0.94377 0.0
O137 O 0.75227 0.61355 0.01901 0.0
O138 O 0.69905 0.53793 1.00217 0.0
O139 O 0.73355 0.51826 0.95543 0.0
C140 C 0.77592 0.51015 0.05587 0.0
O141 O 0.73123 0.59337 0.11849 0.0
O142 O 0.69502 0.53226 0.11185 0.0
C143 C 0.82933 0.6123 0.06159 0.0
C144 C 0.81948 0.56218 0.83787 0.0
C145 C 0.805 0.5599 0.73605 0.0
C146 C 0.83853 0.56134 0.75353 0.0
C147 C 0.84567 0.56249 0.80395 0.0
C148 C 0.78579 0.56033 0.82084 0.0
C149 C 0.77859 0.55917 0.77042 0.0
C150 C 0.82783 0.56463 0.89076 0.0
C151 C 0.75521 0.61703 0.97102 0.0
H152 H 0.66886 0.55372 0.30207 0.0
H153 H 0.65872 0.55779 0.21416 0.0
H154 H 0.76319 0.55775 0.182 0.0
H155 H 0.7734 0.5532 0.26982 0.0
H156 H 0.85921 0.56133 0.72824 0.0
H157 H 0.87178 0.56381 0.81645 0.0
H158 H 0.76526 0.56019 0.84657 0.0
H159 H 0.75271 0.5585 0.75837 0.0
Tb160 Tb 0.15543 0.74302 0.40354 0.0
Tb161 Tb 0.20591 0.7908 0.30628 0.0
C162 C 0.16124 0.70206 0.30784 0.0
C163 C 0.12563 0.7164 0.53285 0.0
C164 C 0.138 0.73027 0.63452 0.0
C165 C 0.10514 0.6975 0.61696 0.0
C166 C 0.09906 0.69064 0.56657 0.0
C167 C 0.15828 0.74933 0.54995 0.0
C168 C 0.16441 0.75623 0.60037 0.0
C169 C 0.11947 0.70831 0.48007 0.0
O170 O 0.21469 0.77027 0.42532 0.0
O171 O 0.2409 0.77405 0.34946 0.0
O172 O 0.22451 0.83181 0.36564 0.0
O173 O 0.17003 0.80262 0.4126 0.0
O174 O 0.24366 0.79625 0.24994 0.0
O175 O 0.22425 0.83709 0.25742 0.0
O176 O 0.15019 0.78688 0.29967 0.0
O177 O 0.11386 0.73384 0.34765 0.0
O178 O 0.1614 0.70249 0.35616 0.0
O179 O 0.16932 0.73265 0.28222 0.0
C180 C 0.24275 0.7737 0.39768 0.0
O181 O 0.11186 0.73107 0.4546 0.0
O182 O 0.14455 0.70212 0.45813 0.0
C183 C 0.2028 0.83283 0.4007 0.0
C184 C 0.23291 0.8207 0.17744 0.0
C185 C 0.21627 0.8106 0.07621 0.0
C186 C 0.251 0.8414 0.09317 0.0
C187 C 0.25925 0.84633 0.14339 0.0
C188 C 0.19795 0.79031 0.16089 0.0
C189 C 0.18972 0.78525 0.1107 0.0
C190 C 0.24249 0.82501 0.22991 0.0
C191 C 0.1169 0.75842 0.31393 0.0
H192 H 0.08395 0.67723 0.64218 0.0
H193 H 0.07367 0.66513 0.55392 0.0
H194 H 0.17916 0.76949 0.5243 0.0
H195 H 0.1902 0.7815 0.61259 0.0
H196 H 0.2722 0.86117 0.06756 0.0
H197 H 0.28641 0.86987 0.1556 0.0
H198 H 0.1772 0.7703 0.18677 0.0
H199 H 0.16254 0.76156 0.09889 0.0
Tb200 Tb 0.39641 0.1707 0.72647 0.0
Tb201 Tb 0.39524 0.22189 0.63119 0.0
C202 C 0.4479 0.18453 0.63507 0.0
C203 C 0.40027 0.14502 0.85619 0.0
C204 C 0.40442 0.16135 0.95773 0.0
C205 C 0.39867 0.12576 0.94108 0.0
C206 C 0.39661 0.11772 0.89083 0.0
C207 C 0.40617 0.18063 0.87238 0.0
C208 C 0.40825 0.18873 0.92265 0.0
C209 C 0.39681 0.13577 0.80346 0.0
O210 O 0.44634 0.22735 0.73082 0.0
O211 O 0.4252 0.26308 0.68985 0.0
O212 O 0.34677 0.21054 0.67698 0.0
O213 O 0.36928 0.20258 0.75074 0.0
O214 O 0.42476 0.26719 0.58138 0.0
O215 O 0.36372 0.23045 0.57625 0.0
O216 O 0.36808 0.16287 0.60666 0.0
O217 O 0.34855 0.13181 0.68089 0.0
O218 O 0.42566 0.15899 0.66766 0.0
O219 O 0.44459 0.21444 0.62384 0.0
C220 C 0.44884 0.26034 0.7206 0.0
O221 O 0.36585 0.13112 0.78228 0.0
O222 O 0.42699 0.15659 0.77671 0.0
C223 C 0.34568 0.20918 0.72508 0.0
C224 C 0.39753 0.2522 0.50202 0.0
C225 C 0.40105 0.24076 0.4001 0.0
C226 C 0.38677 0.26405 0.41765 0.0
C227 C 0.38507 0.2697 0.46807 0.0
C228 C 0.41177 0.2289 0.48493 0.0
C229 C 0.41361 0.22331 0.43448 0.0
C230 C 0.39428 0.25735 0.55503 0.0
C231 C 0.34635 0.13218 0.63283 0.0
H232 H 0.39501 0.10376 0.96691 0.0
H233 H 0.39179 0.08999 0.87902 0.0
H234 H 0.40902 0.20209 0.84611 0.0
H235 H 0.41316 0.21657 0.93399 0.0
H236 H 0.37621 0.27742 0.39247 0.0
H237 H 0.37363 0.28747 0.48058 0.0
H238 H 0.42136 0.21494 0.51062 0.0
H239 H 0.42518 0.20556 0.42243 0.0
C240 C 0.31216 0.21019 0.80173 0.0
C241 C 0.31861 0.2175 0.75122 0.0
C242 C 0.28829 0.22006 0.8271 0.0
C243 C 0.27091 0.23818 0.80258 0.0
C244 C 0.27608 0.2439 0.75169 0.0
C245 C 0.29965 0.23368 0.72623 0.0
C246 C 0.24854 0.25288 0.82877 0.0
C247 C 0.25311 0.26176 0.87689 0.0
C248 C 0.23637 0.28273 0.90181 0.0
C249 C 0.2542 0.30314 0.94465 0.0
C250 C 0.24167 0.32577 0.96758 0.0
C251 C 0.21071 0.3283 0.94843 0.0
H252 H 0.18893 0.26758 0.85169 0.0
C253 C 0.19164 0.30654 0.90678 0.0
C254 C 0.20428 0.28388 0.88368 0.0
H255 H 0.16746 0.30761 0.89138 0.0
H256 H 0.32573 0.19702 0.82185 0.0
H257 H 0.28384 0.21355 0.86585 0.0
H258 H 0.26275 0.25739 0.73173 0.0
H259 H 0.30381 0.23945 0.68722 0.0
H260 H 0.23092 0.26028 0.80646 0.0
H261 H 0.27319 0.25724 0.89822 0.0
H262 H 0.27869 0.30249 0.95977 0.0
H263 H 0.25678 0.34177 0.99995 0.0
C264 C 0.08687 0.31525 0.13113 0.0
C265 C 0.08489 0.32395 0.08166 0.0
C266 C 0.05335 0.29251 0.15776 0.0
C267 C 0.01738 0.27791 0.13511 0.0
C268 C 0.01569 0.28475 0.08498 0.0
C269 C 0.04904 0.30783 0.05863 0.0
C270 C -0.01906 0.25702 0.16259 0.0
C271 C -0.02258 0.26454 0.20984 0.0
C272 C 0.93997 0.24932 0.23502 0.0
C273 C 0.93899 0.24851 0.2865 0.0
C274 C 0.90481 0.23718 0.31162 0.0
C275 C 0.87089 0.22678 0.28572 0.0
H276 H 0.9055 0.24004 0.16948 0.0
C277 C 0.87176 0.22731 0.23418 0.0
C278 C 0.9059 0.23857 0.20908 0.0
H279 H 0.84621 0.21968 0.21306 0.0
H280 H 0.11417 0.32717 0.14974 0.0
H281 H 0.05572 0.28683 0.19603 0.0
H282 H -0.01163 0.27352 0.06657 0.0
H283 H 0.04666 0.31366 0.02036 0.0
H284 H 0.95573 0.23749 0.14174 0.0
H285 H 0.00272 0.28401 0.23063 0.0
H286 H 0.96485 0.25704 0.3074 0.0
H287 H 0.90519 0.23717 0.35137 0.0
C288 C 0.72667 0.06472 0.40707 0.0
C289 C 0.75272 0.10012 0.42814 0.0
C290 C 0.71473 0.03077 0.4331 0.0
C291 C 0.72915 0.03161 0.48029 0.0
C292 C 0.75684 0.06671 0.50018 0.0
C293 C 0.76814 0.1008 0.47463 0.0
C294 C 0.71401 -0.00358 0.51025 0.0
C295 C 0.67617 0.97225 0.5138 0.0
C296 C 0.65933 0.93902 0.54736 0.0
C297 C 0.62538 0.92994 0.572 0.0
C298 C 0.60809 0.89826 0.60309 0.0
C299 C 0.62387 0.8744 0.609 0.0
H300 H 0.70146 0.92164 0.53444 0.0
C301 C 0.65772 0.88321 0.58396 0.0
C302 C 0.67559 0.91557 0.55375 0.0
H303 H 0.67032 0.86511 0.58772 0.0
H304 H 0.71428 0.06331 0.37133 0.0
H305 H 0.69374 0.00391 0.4167 0.0
H306 H 0.76843 0.06791 0.53643 0.0
H307 H 0.78847 0.12771 0.49157 0.0
H308 H 0.73365 -0.0075 0.5335 0.0
H309 H 0.6566 0.97891 0.49457 0.0
H310 H 0.61225 0.94751 0.56733 0.0
H311 H 0.58174 0.89187 0.62141 0.0
C312 C 0.65759 0.77439 0.79944 0.0
C313 C 0.64704 0.76251 0.75066 0.0
C314 C 0.68175 0.76468 0.82465 0.0
C315 C 0.69602 0.74329 0.80118 0.0
C316 C 0.68738 0.73368 0.75154 0.0
C317 C 0.6628 0.74279 0.72667 0.0
C318 C 0.71811 0.72854 0.82753 0.0
C319 C 0.71127 0.71706 0.87471 0.0
C320 C 0.72652 0.69428 0.89864 0.0
C321 C 0.72566 0.6916 0.95005 0.0
C322 C 0.73598 0.66735 0.97379 0.0
C323 C 0.74711 0.64497 0.9465 0.0
H324 H 0.73842 0.67243 0.83175 0.0
C325 C 0.74874 0.64822 0.8951 0.0
C326 C 0.73844 0.67241 0.87141 0.0
H327 H 0.75701 0.63128 0.87286 0.0
H328 H 0.64592 0.78973 0.81876 0.0
H329 H 0.68873 0.77344 0.86256 0.0
H330 H 0.69828 0.71752 0.73253 0.0
H331 H 0.65548 0.73365 0.6889 0.0
H332 H 0.73756 0.72339 0.80571 0.0
H333 H 0.69174 0.72239 0.89618 0.0
H334 H 0.71626 0.70779 0.97195 0.0
H335 H 0.73436 0.66555 1.01346 0.0
C336 C 0.08258 0.76433 0.2407 0.0
C337 C 0.08163 0.75175 0.28904 0.0
C338 C 0.0485 0.75361 0.21544 0.0
C339 C 0.01296 0.73039 0.23838 0.0
C340 C 0.01224 0.71989 0.28759 0.0
C341 C 0.04616 0.73009 0.31252 0.0
C342 C 0.97604 0.71507 0.21201 0.0
C343 C 0.97207 0.706 0.16396 0.0
C344 C 0.9344 0.68411 0.13899 0.0
C345 C 0.93313 0.68493 0.08755 0.0
C346 C 0.89889 0.66229 0.06238 0.0
C347 C 0.86514 0.638 0.08818 0.0
H348 H 0.90016 0.65747 0.20434 0.0
C349 C 0.86624 0.6375 0.1397 0.0
C350 C 0.90045 0.66013 0.16485 0.0
H351 H 0.84083 0.61897 0.16076 0.0
H352 H 0.10955 0.78117 0.22177 0.0
H353 H 0.05011 0.76316 0.17794 0.0
H354 H -0.01473 0.70235 0.30625 0.0
H355 H 0.04455 0.72034 0.34996 0.0
H356 H 0.95101 0.70797 0.2341 0.0
H357 H -0.00271 0.71323 0.14212 0.0
H358 H 0.95886 0.7028 0.06665 0.0
H359 H 0.89911 0.66338 0.02266 0.0
C360 C 0.30952 0.06073 0.6293 0.0
C361 C 0.32033 0.09618 0.60714 0.0
C362 C 0.28729 0.02667 0.60364 0.0
C363 C 0.27494 0.02743 0.55565 0.0
C364 C 0.28413 0.06268 0.53439 0.0
C365 C 0.30711 0.09685 0.55964 0.0
C366 C 0.25398 -0.00811 0.52652 0.0
C367 C 0.26533 0.96575 0.52583 0.0
C368 C 0.24833 0.93226 0.49274 0.0
C369 C 0.27258 0.92163 0.46957 0.0
C370 C 0.25765 0.88991 0.43858 0.0
C371 C 0.218 0.8675 0.43134 0.0
H372 H 0.18932 0.91756 0.50334 0.0
C373 C 0.19354 0.87771 0.45512 0.0
C374 C 0.20864 0.91022 0.48517 0.0
H375 H 0.16285 0.8607 0.45032 0.0
H376 H 0.31923 0.05932 0.6659 0.0
H377 H 0.28003 -0.00026 0.62114 0.0
H378 H 0.27473 0.06386 0.49751 0.0
H379 H 0.31474 0.12378 0.54187 0.0
H380 H 0.23175 -0.01088 0.50153 0.0
H381 H 0.29042 0.97099 0.54678 0.0
H382 H 0.30323 0.9381 0.47519 0.0
H383 H 0.27713 0.88235 0.42129 0.0
C384 C 0.14111 0.40854 0.64393 0.0
C385 C 0.14874 0.38722 0.67831 0.0
C386 C 0.14975 0.40839 0.59429 0.0
C387 C 0.16662 0.38713 0.57783 0.0
C388 C 0.17364 0.36535 0.61212 0.0
C389 C 0.16493 0.36545 0.66175 0.0
C390 C 0.17655 0.38611 0.52539 0.0
C391 C 0.18104 0.41271 0.49193 0.0
C392 C 0.1907 0.41143 0.43955 0.0
C393 C 0.18042 0.43025 0.40461 0.0
C394 C 0.18921 0.43019 0.35505 0.0
C395 C 0.20894 0.41164 0.33931 0.0
H396 H 0.2203 0.37929 0.44981 0.0
C397 C 0.21979 0.39325 0.37432 0.0
C398 C 0.21081 0.39313 0.42393 0.0
H399 H 0.23501 0.37869 0.36331 0.0
H400 H 0.12886 0.42582 0.65542 0.0
H401 H 0.14264 0.42466 0.56922 0.0
H402 H 0.18617 0.34833 0.60054 0.0
H403 H 0.1706 0.34818 0.68708 0.0
H404 H 0.1806 0.36252 0.51434 0.0
H405 H 0.1769 0.4363 0.50255 0.0
H406 H 0.16533 0.44495 0.41564 0.0
H407 H 0.18102 0.44517 0.32912 0.0
C408 C 0.7507 0.20667 1.00546 0.0
C409 C 0.73765 0.17 0.02538 0.0
C410 C 0.7574 0.2132 0.95496 0.0
C411 C 0.75142 0.18315 0.92312 0.0
C412 C 0.73818 0.14653 0.94312 0.0
C413 C 0.73153 0.14004 0.9935 0.0
C414 C 0.75743 0.18816 0.86893 0.0
C415 C 0.7793 0.22219 0.84649 0.0
C416 C 0.7856 0.2269 0.79229 0.0
C417 C 0.79911 0.26339 0.77167 0.0
C418 C 0.8061 0.26944 0.72124 0.0
C419 C 0.79994 0.23911 0.69002 0.0
H420 H 0.77066 0.16826 0.77522 0.0
C421 C 0.78666 0.20262 0.71059 0.0
C422 C 0.77973 0.19657 0.76106 0.0
H423 H 0.78239 0.17879 0.6878 0.0
H424 H 0.75505 0.23026 0.02878 0.0
H425 H 0.76643 0.24162 0.94122 0.0
H426 H 0.7332 0.12276 0.91966 0.0
H427 H 0.722 0.11153 1.00752 0.0
H428 H 0.74339 0.16228 0.84702 0.0
H429 H 0.79327 0.2481 0.86837 0.0
H430 H 0.80411 0.28739 0.79467 0.0
H431 H 0.81599 0.29786 0.70663 0.0
C432 C 0.58556 0.7806 0.33288 0.0
C433 C 0.56674 0.74322 0.35213 0.0
C434 C 0.58564 0.78685 0.28232 0.0
C435 C 0.56664 0.75577 0.24977 0.0
C436 C 0.5482 0.71847 0.26904 0.0
C437 C 0.54808 0.71224 0.31953 0.0
C438 C 0.56617 0.76072 0.19559 0.0
C439 C 0.57181 0.7932 0.17376 0.0
C440 C 0.57067 0.79799 0.11958 0.0
C441 C 0.58729 0.83524 0.10029 0.0
C442 C 0.58621 0.84126 0.0499 0.0
C443 C 0.56828 0.8101 0.01745 0.0
H444 H 0.53814 0.73753 0.10015 0.0
C445 C 0.55149 0.77279 0.03666 0.0
C446 C 0.5525 0.76675 0.08707 0.0
H447 H 0.53672 0.74814 1.01282 0.0
H448 H 0.60089 0.80509 0.35681 0.0
H449 H 0.60133 0.81601 0.26911 0.0
H450 H 0.53348 0.69395 0.24495 0.0
H451 H 0.53291 0.68308 0.33304 0.0
H452 H 0.56024 0.7361 0.17326 0.0
H453 H 0.57766 0.81775 0.19623 0.0
H454 H 0.60131 0.85988 0.1243 0.0
H455 H 0.5997 0.87039 0.03632 0.0
C456 C 0.76114 0.53668 0.66255 0.0
C457 C 0.79795 0.5597 0.68226 0.0
C458 C 0.75466 0.53648 0.61199 0.0
C459 C 0.78489 0.55957 0.57985 0.0
C460 C 0.82164 0.58232 0.59963 0.0
C461 C 0.82809 0.58253 0.65008 0.0
C462 C 0.77988 0.56016 0.52559 0.0
C463 C 0.74599 0.54863 0.50319 0.0
C464 C 0.74119 0.54982 0.44894 0.0
C465 C 0.70447 0.52771 0.42876 0.0
C466 C 0.69827 0.5285 0.37834 0.0
C467 C 0.72868 0.55164 0.34668 0.0
H468 H 0.80021 0.59171 0.43102 0.0
C469 C 0.76545 0.5739 0.36678 0.0
C470 C 0.77165 0.57317 0.41724 0.0
H471 H 0.78939 0.59266 0.34364 0.0
H472 H 0.73739 0.51819 0.68611 0.0
H473 H 0.7261 0.51757 0.59848 0.0
H474 H 0.84554 0.60032 0.57594 0.0
H475 H 0.85672 0.601 0.66392 0.0
H476 H 0.80562 0.57114 0.50361 0.0
H477 H 0.72023 0.53759 0.52518 0.0
H478 H 0.68037 0.50958 0.4521 0.0
H479 H 0.66963 0.51071 0.36411 0.0
C480 C 0.15958 0.77399 0.70797 0.0
C481 C 0.14483 0.73704 0.68821 0.0
C482 C 0.16585 0.78023 0.75849 0.0
C483 C 0.15772 0.74959 0.79043 0.0
C484 C 0.14271 0.71269 0.77064 0.0
C485 C 0.13649 0.70647 0.7202 0.0
C486 C 0.16336 0.75447 0.84453 0.0
C487 C 0.18765 0.78796 0.86654 0.0
C488 C 0.19379 0.79259 0.92064 0.0
C489 C 0.21033 0.82955 0.94077 0.0
C490 C 0.21737 0.83543 0.99118 0.0
C491 C 0.20816 0.80442 0.02272 0.0
H492 H 0.17341 0.73274 0.93842 0.0
C493 C 0.19182 0.76743 1.00265 0.0
C494 C 0.18488 0.76155 0.95224 0.0
H495 H 0.18519 0.74304 0.0258 0.0
H496 H 0.1656 0.79804 0.68448 0.0
H497 H 0.17624 0.80892 0.7722 0.0
H498 H 0.13604 0.68852 0.79427 0.0
H499 H 0.12555 0.67772 0.70621 0.0
H500 H 0.14708 0.72899 0.86665 0.0
H501 H 0.20389 0.81342 0.84432 0.0
H502 H 0.21773 0.85405 0.91742 0.0
H503 H 0.22976 0.86427 1.0055 0.0
C504 C 0.39365 0.19833 0.32791 0.0
C505 C 0.40246 0.23446 0.34626 0.0
C506 C 0.39423 0.19227 0.27735 0.0
C507 C 0.40381 0.22231 0.24378 0.0
C508 C 0.41243 0.2583 0.26211 0.0
C509 C 0.41198 0.2644 0.31261 0.0
C510 C 0.40358 0.21694 0.18952 0.0
C511 C 0.40793 0.18921 0.16796 0.0
C512 C 0.4076 0.18375 0.11371 0.0
C513 C 0.42484 0.16371 0.09457 0.0
C514 C 0.42423 0.15687 0.04413 0.0
C515 C 0.40599 0.1696 1.0114 0.0
H516 H 0.3746 0.21101 0.09421 0.0
C517 C 0.38863 0.18962 0.03053 0.0
C518 C 0.38931 0.19654 0.08102 0.0
H519 H 0.37363 0.19917 1.00662 0.0
H520 H 0.38538 0.17436 0.35254 0.0
H521 H 0.38619 0.16375 0.26487 0.0
H522 H 0.41974 0.28196 0.23725 0.0
H523 H 0.41939 0.29273 0.32526 0.0
H524 H 0.40136 0.23781 0.16668 0.0
H525 H 0.41361 0.1705 0.19071 0.0
H526 H 0.43901 0.15335 0.11875 0.0
H527 H 0.43832 0.14178 0.03078 0.0
C528 C 0.14465 0.47417 0.12674 0.0
C529 C 0.15278 0.4784 0.0762 0.0
C530 C 0.13814 0.50046 0.15193 0.0
C531 C 0.14017 0.53209 0.12731 0.0
C532 C 0.1465 0.53533 0.07632 0.0
C533 C 0.15278 0.50875 0.05094 0.0
C534 C 0.1366 0.56251 0.15361 0.0
C535 C 0.14466 0.57023 0.2018 0.0
C536 C 0.14529 0.60295 0.22797 0.0
C537 C 0.14535 0.60304 0.27959 0.0
C538 C 0.14931 0.63465 0.30582 0.0
C539 C 0.15358 0.66704 0.28089 0.0
H540 H 0.14977 0.63694 0.16352 0.0
C541 C 0.15262 0.66662 0.22926 0.0
C542 C 0.14867 0.63509 0.2031 0.0
H543 H 0.15592 0.69111 0.20875 0.0
H544 H 0.14359 0.4506 0.14718 0.0
H545 H 0.1316 0.49574 0.19066 0.0
H546 H 0.14772 0.55912 0.05628 0.0
H547 H 0.15873 0.51264 1.01196 0.0
H548 H 0.12891 0.58007 0.13167 0.0
H549 H 0.15259 0.55268 0.22342 0.0
H550 H 0.14301 0.5788 0.29978 0.0
H551 H 0.14999 0.63404 0.34553 0.0
C552 C 0.6752 0.18388 0.48362 0.0
C553 C 0.67128 0.16713 0.43721 0.0
C554 C 0.6431 0.17644 0.511 0.0
C555 C 0.60617 0.15246 0.49235 0.0
C556 C 0.60211 0.13386 0.44731 0.0
C557 C 0.63443 0.14116 0.41985 0.0
C558 C 0.57191 0.14825 0.51831 0.0
C559 C 0.57321 0.17799 0.54251 0.0
C560 C 0.53976 0.1776 0.56541 0.0
C561 C 0.54011 0.21243 0.56875 0.0
C562 C 0.51008 0.21427 0.59101 0.0
C563 C 0.47915 0.18137 0.61146 0.0
H564 H 0.50812 0.11724 0.58445 0.0
C565 C 0.47881 0.14637 0.60881 0.0
C566 C 0.50882 0.14441 0.58561 0.0
H567 H 0.45533 0.12058 0.62431 0.0
H568 H 0.70319 0.20318 0.49878 0.0
H569 H 0.64732 0.19001 0.54653 0.0
H570 H 0.57394 0.11486 0.43246 0.0
H571 H 0.63053 0.12748 0.38444 0.0
H572 H 0.54482 0.12189 0.51362 0.0
H573 H 0.59967 0.20538 0.54235 0.0
H574 H 0.56373 0.23845 0.55382 0.0
H575 H 0.51148 0.24178 0.59274 0.0
C576 C 0.31118 0.50952 0.95174 0.0
C577 C 0.27657 0.48275 0.92963 0.0
C578 C 0.34201 0.53565 0.92288 0.0
C579 C 0.33867 0.5354 0.87133 0.0
C580 C 0.30403 0.50874 0.84956 0.0
C581 C 0.27348 0.48265 0.87818 0.0
C582 C 0.36949 0.56359 0.83888 0.0
C583 C 0.40681 0.58255 0.8509 0.0
C584 C 0.43648 0.61262 0.81897 0.0
C585 C 0.46899 0.64261 0.84111 0.0
C586 C 0.4959 0.67324 0.81311 0.0
C587 C 0.49117 0.67434 0.76207 0.0
H588 H 0.40878 0.58924 0.74885 0.0
C589 C 0.45982 0.64323 0.73937 0.0
C590 C 0.43271 0.61262 0.76752 0.0
H591 H 0.45558 0.64304 0.70009 0.0
H592 H 0.31441 0.51045 0.99126 0.0
H593 H 0.36789 0.55645 0.94123 0.0
H594 H 0.30049 0.50809 0.81007 0.0
H595 H 0.24724 0.4626 0.85971 0.0
H596 H 0.36063 0.56895 0.80354 0.0
H597 H 0.41589 0.57766 0.88634 0.0
H598 H 0.47292 0.64308 0.8805 0.0
H599 H 0.52001 0.69651 0.83178 0.0
C600 C 0.81184 0.32637 0.27986 0.0
C601 C 0.77723 0.29499 0.29581 0.0
C602 C 0.8118 0.35617 0.25326 0.0
C603 C 0.77714 0.35523 0.24319 0.0
C604 C 0.7429 0.32457 0.26097 0.0
C605 C 0.74286 0.29455 0.28637 0.0
C606 C 0.77501 0.38544 0.21467 0.0
C607 C 0.79817 0.40438 0.17662 0.0
C608 C 0.79194 0.43072 0.14447 0.0
C609 C 0.82265 0.45925 0.11744 0.0
C610 C 0.81751 0.48462 0.08747 0.0
C611 C 0.78146 0.4818 0.08388 0.0
H612 H 0.73063 0.40438 0.15703 0.0
C613 C 0.75054 0.45242 0.10956 0.0
C614 C 0.75558 0.42704 0.13907 0.0
H615 H 0.72221 0.44895 0.10699 0.0
H616 H 0.83872 0.32729 0.28664 0.0
H617 H 0.83877 0.37987 0.24093 0.0
H618 H 0.71586 0.32332 0.25407 0.0
H619 H 0.71578 0.27084 0.29852 0.0
H620 H 0.7515 0.39013 0.22371 0.0
H621 H 0.822 0.40003 0.16804 0.0
H622 H 0.85082 0.46235 0.12017 0.0
H623 H 0.84192 0.50693 0.06808 0.0
C624 C 0.28328 0.78675 0.47232 0.0
C625 C 0.27723 0.77765 0.42213 0.0
C626 C 0.31498 0.78938 0.49645 0.0
C627 C 0.34121 0.7823 0.47109 0.0
C628 C 0.33555 0.77407 0.42059 0.0
C629 C 0.30397 0.77185 0.3963 0.0
C630 C 0.37491 0.78358 0.49543 0.0
C631 C 0.37934 0.78332 0.54458 0.0
C632 C 0.41249 0.78351 0.56898 0.0
C633 C 0.41009 0.77516 0.61945 0.0
C634 C 0.44012 0.77425 0.64383 0.0
C635 C 0.47319 0.78151 0.61814 0.0
H636 H 0.45035 0.8 0.50546 0.0
C637 C 0.47604 0.7907 0.56799 0.0
C638 C 0.44628 0.79203 0.54376 0.0
H639 H 0.50145 0.79709 0.54726 0.0
H640 H 0.26355 0.79207 0.49315 0.0
H641 H 0.31862 0.79725 0.53478 0.0
H642 H 0.35542 0.7689 0.39987 0.0
H643 H 0.30017 0.7649 0.35756 0.0
H644 H 0.39591 0.78301 0.47125 0.0
H645 H 0.35703 0.78122 0.56868 0.0
H646 H 0.38466 0.76886 0.64006 0.0
H647 H 0.4371 0.76715 0.68253 0.0
C648 C 0.67321 0.48303 0.88782 0.0
C649 C 0.66779 0.49378 0.93486 0.0
C650 C 0.64202 0.45917 0.85844 0.0
C651 C 0.60446 0.44473 0.87571 0.0
C652 C 0.59894 0.45697 0.92175 0.0
C653 C 0.63035 0.48135 0.95112 0.0
C654 C 0.57092 0.41591 0.84706 0.0
C655 C 0.57343 0.39033 0.81776 0.0
C656 C 0.54061 0.35816 0.79229 0.0
C657 C 0.54312 0.32544 0.782 0.0
C658 C 0.51336 0.29412 0.75843 0.0
C659 C 0.48045 0.29489 0.74359 0.0
H660 H 0.50544 0.38456 0.78348 0.0
C661 C 0.4781 0.328 0.75249 0.0
C662 C 0.50789 0.35939 0.77704 0.0
H663 H 0.45304 0.32932 0.74137 0.0
H664 H 0.70169 0.49301 0.87352 0.0
H665 H 0.64757 0.45194 0.82228 0.0
H666 H 0.57031 0.4467 0.93567 0.0
H667 H 0.62531 0.48953 0.98699 0.0
H668 H 0.54329 0.41354 0.85364 0.0
H669 H 0.60045 0.39068 0.81546 0.0
H670 H 0.5681 0.32383 0.79287 0.0
H671 H 0.51627 0.26922 0.75168 0.0
loop_
_geom_bond_atom_site_label_1
_geom_bond_atom_site_label_2
_geom_bond_distance
_geom_bond_site_symmetry_2
_ccdc_geom_bond_type
Tb0 C9 2.764 . S
Tb0 O10 2.325 . S
Tb0 O13 2.303 . S
Tb0 O17 2.322 1_554 S
Tb0 O18 2.349 . S
Tb0 O21 2.415 . S
Tb0 O22 2.399 . S
Tb1 O11 2.322 1_556 S
Tb1 O12 2.349 . S
Tb1 O14 2.415 . S
Tb1 O15 2.399 . S
Tb1 O16 2.325 . S
Tb1 O19 2.303 . S
Tb1 C30 2.764 . S
C2 O18 1.261 1_556 S
C2 O19 1.257 . S
C3 C6 1.358 . S
C3 C7 1.332 . S
C3 C9 1.504 . S
C4 C5 1.373 . S
C4 C8 1.308 . S
C5 C4 1.373 . S
C5 C6 1.429 . S
C5 H32 0.932 . S
C6 C3 1.358 . S
C6 C5 1.429 . S
C6 H33 0.930 . S
C7 C3 1.332 . S
C7 C8 1.394 . S
C7 H34 0.932 . S
C8 C4 1.308 . S
C8 C7 1.394 . S
C8 H35 0.929 . S
C9 Tb0 2.764 . S
C9 C3 1.504 . S
C9 O21 1.239 . S
C9 O22 1.263 . S
O10 Tb0 2.325 . S
O10 C20 1.236 . S
O11 Tb1 2.322 1_554 S
O11 C20 1.257 . S
O12 Tb1 2.349 . S
O12 C23 1.261 1_556 S
O13 Tb0 2.303 . S
O13 C23 1.257 . S
O14 Tb1 2.415 . S
O14 C30 1.239 . S
O15 Tb1 2.399 . S
O15 C30 1.263 . S
O16 Tb1 2.325 . S
O16 C31 1.236 . S
O17 Tb0 2.322 1_556 S
O17 C31 1.257 . S
O18 Tb0 2.349 . S
O18 C2 1.261 1_554 S
O19 Tb1 2.303 . S
O19 C2 1.257 . S
C20 O10 1.236 . S
C20 O11 1.257 . S
O21 Tb0 2.415 . S
O21 C9 1.239 . S
O22 Tb0 2.399 . S
O22 C9 1.263 . S
C23 O12 1.261 1_554 S
C23 O13 1.257 . S
C24 C27 1.358 . S
C24 C28 1.332 . S
C24 C30 1.504 . S
C25 C26 1.373 . S
C25 C29 1.308 . S
C26 C25 1.373 . S
C26 C27 1.429 . S
C26 H36 0.932 . S
C27 C24 1.358 . S
C27 C26 1.429 . S
C27 H37 0.930 . S
C28 C24 1.332 . S
C28 C29 1.394 . S
C28 H38 0.932 . S
C29 C25 1.308 . S
C29 C28 1.394 . S
C29 H39 0.929 . S
C30 Tb1 2.764 . S
C30 O14 1.239 . S
C30 O15 1.263 . S
C30 C24 1.504 . S
C31 O16 1.236 . S
C31 O17 1.257 . S
H32 C5 0.932 . S
H33 C6 0.930 . S
H34 C7 0.932 . S
H35 C8 0.929 . S
H36 C26 0.932 . S
H37 C27 0.930 . S
H38 C28 0.932 . S
H39 C29 0.929 . S
Tb40 C49 2.764 . S
Tb40 O50 2.325 . S
Tb40 O53 2.303 . S
Tb40 O57 2.322 . S
Tb40 O58 2.349 . S
Tb40 O61 2.415 . S
Tb40 O62 2.399 . S
Tb41 O51 2.322 . S
Tb41 O52 2.349 . S
Tb41 O54 2.415 . S
Tb41 O55 2.399 . S
Tb41 O56 2.325 . S
Tb41 O59 2.303 . S
Tb41 C70 2.764 . S
C42 O58 1.261 . S
C42 O59 1.257 . S
C43 C46 1.358 . S
C43 C47 1.332 . S
C43 C49 1.504 . S
C44 C45 1.373 . S
C44 C48 1.308 . S
C45 C44 1.373 . S
C45 C46 1.429 . S
C45 H72 0.932 . S
C46 C43 1.358 . S
C46 C45 1.429 . S
C46 H73 0.930 . S
C47 C43 1.332 . S
C47 C48 1.394 . S
C47 H74 0.932 . S
C48 C44 1.308 . S
C48 C47 1.394 . S
C48 H75 0.929 . S
C49 Tb40 2.764 . S
C49 C43 1.504 . S
C49 O61 1.239 . S
C49 O62 1.263 . S
O50 Tb40 2.325 . S
O50 C60 1.236 . S
O51 Tb41 2.322 . S
O51 C60 1.257 . S
O52 Tb41 2.349 . S
O52 C63 1.261 . S
O53 Tb40 2.303 . S
O53 C63 1.257 . S
O54 Tb41 2.415 . S
O54 C70 1.239 . S
O55 Tb41 2.399 . S
O55 C70 1.263 . S
O56 Tb41 2.325 . S
O56 C71 1.236 . S
O57 Tb40 2.322 . S
O57 C71 1.257 . S
O58 Tb40 2.349 . S
O58 C42 1.261 . S
O59 Tb41 2.303 . S
O59 C42 1.257 . S
C60 O50 1.236 . S
C60 O51 1.257 . S
O61 Tb40 2.415 . S
O61 C49 1.239 . S
O62 Tb40 2.399 . S
O62 C49 1.263 . S
C63 O52 1.261 . S
C63 O53 1.257 . S
C64 C67 1.358 . S
C64 C68 1.332 . S
C64 C70 1.504 . S
C65 C66 1.373 . S
C65 C69 1.308 . S
C66 C65 1.373 . S
C66 C67 1.429 . S
C66 H76 0.932 . S
C67 C64 1.358 . S
C67 C66 1.429 . S
C67 H77 0.930 . S
C68 C64 1.332 . S
C68 C69 1.394 . S
C68 H78 0.932 . S
C69 C65 1.308 . S
C69 C68 1.394 . S
C69 H79 0.929 . S
C70 Tb41 2.764 . S
C70 O54 1.239 . S
C70 O55 1.263 . S
C70 C64 1.504 . S
C71 O56 1.236 . S
C71 O57 1.257 . S
H72 C45 0.932 . S
H73 C46 0.930 . S
H74 C47 0.932 . S
H75 C48 0.929 . S
H76 C66 0.932 . S
H77 C67 0.930 . S
H78 C68 0.932 . S
H79 C69 0.929 . S
Tb80 C89 2.764 . S
Tb80 O90 2.325 . S
Tb80 O93 2.303 . S
Tb80 O97 2.322 . S
Tb80 O98 2.349 . S
Tb80 O101 2.415 . S
Tb80 O102 2.399 . S
Tb81 O91 2.322 . S
Tb81 O92 2.349 . S
Tb81 O94 2.415 . S
Tb81 O95 2.399 . S
Tb81 O96 2.325 . S
Tb81 O99 2.303 . S
Tb81 C110 2.764 . S
C82 O98 1.261 . S
C82 O99 1.257 . S
C83 C86 1.358 . S
C83 C87 1.332 . S
C83 C89 1.504 . S
C84 C85 1.373 . S
C84 C88 1.308 . S
C85 C84 1.373 . S
C85 C86 1.429 . S
C85 H112 0.932 . S
C86 C83 1.358 . S
C86 C85 1.429 . S
C86 H113 0.930 . S
C87 C83 1.332 . S
C87 C88 1.394 . S
C87 H114 0.932 . S
C88 C84 1.308 . S
C88 C87 1.394 . S
C88 H115 0.929 . S
C89 Tb80 2.764 . S
C89 C83 1.504 . S
C89 O101 1.239 . S
C89 O102 1.263 . S
O90 Tb80 2.325 . S
O90 C100 1.236 . S
O91 Tb81 2.322 . S
O91 C100 1.257 . S
O92 Tb81 2.349 . S
O92 C103 1.261 . S
O93 Tb80 2.303 . S
O93 C103 1.257 . S
O94 Tb81 2.415 . S
O94 C110 1.239 . S
O95 Tb81 2.399 . S
O95 C110 1.263 . S
O96 Tb81 2.325 . S
O96 C111 1.236 . S
O97 Tb80 2.322 . S
O97 C111 1.257 . S
O98 Tb80 2.349 . S
O98 C82 1.261 . S
O99 Tb81 2.303 . S
O99 C82 1.257 . S
C100 O90 1.236 . S
C100 O91 1.257 . S
O101 Tb80 2.415 . S
O101 C89 1.239 . S
O102 Tb80 2.399 . S
O102 C89 1.263 . S
C103 O92 1.261 . S
C103 O93 1.257 . S
C104 C107 1.358 . S
C104 C108 1.332 . S
C104 C110 1.504 . S
C105 C106 1.373 . S
C105 C109 1.308 . S
C106 C105 1.373 . S
C106 C107 1.429 . S
C106 H116 0.932 . S
C107 C104 1.358 . S
C107 C106 1.429 . S
C107 H117 0.930 . S
C108 C104 1.332 . S
C108 C109 1.394 . S
C108 H118 0.932 . S
C109 C105 1.308 . S
C109 C108 1.394 . S
C109 H119 0.929 . S
C110 Tb81 2.764 . S
C110 O94 1.239 . S
C110 O95 1.263 . S
C110 C104 1.504 . S
C111 O96 1.236 . S
C111 O97 1.257 . S
H112 C85 0.932 . S
H113 C86 0.930 . S
H114 C87 0.932 . S
H115 C88 0.929 . S
H116 C106 0.932 . S
H117 C107 0.930 . S
H118 C108 0.932 . S
H119 C109 0.929 . S
Tb120 C129 2.764 . S
Tb120 O130 2.325 . S
Tb120 O133 2.303 . S
Tb120 O137 2.322 1_554 S
Tb120 O138 2.349 . S
Tb120 O141 2.415 . S
Tb120 O142 2.399 . S
Tb121 O131 2.322 1_556 S
Tb121 O132 2.349 . S
Tb121 O134 2.415 . S
Tb121 O135 2.399 . S
Tb121 O136 2.325 . S
Tb121 O139 2.303 . S
Tb121 C150 2.764 . S
C122 O138 1.261 1_556 S
C122 O139 1.257 . S
C123 C126 1.358 . S
C123 C127 1.332 . S
C123 C129 1.504 . S
C124 C125 1.373 . S
C124 C128 1.308 . S
C125 C124 1.373 . S
C125 C126 1.429 . S
C125 H152 0.932 . S
C126 C123 1.358 . S
C126 C125 1.429 . S
C126 H153 0.930 . S
C127 C123 1.332 . S
C127 C128 1.394 . S
C127 H154 0.932 . S
C128 C124 1.308 . S
C128 C127 1.394 . S
C128 H155 0.929 . S
C129 Tb120 2.764 . S
C129 C123 1.504 . S
C129 O141 1.239 . S
C129 O142 1.263 . S
O130 Tb120 2.325 . S
O130 C140 1.236 . S
O131 Tb121 2.322 1_554 S
O131 C140 1.257 . S
O132 Tb121 2.349 . S
O132 C143 1.261 1_556 S
O133 Tb120 2.303 . S
O133 C143 1.257 . S
O134 Tb121 2.415 . S
O134 C150 1.239 . S
O135 Tb121 2.399 . S
O135 C150 1.263 . S
O136 Tb121 2.325 . S
O136 C151 1.236 . S
O137 Tb120 2.322 1_556 S
O137 C151 1.257 . S
O138 Tb120 2.349 . S
O138 C122 1.261 1_554 S
O139 Tb121 2.303 . S
O139 C122 1.257 . S
C140 O130 1.236 . S
C140 O131 1.257 . S
O141 Tb120 2.415 . S
O141 C129 1.239 . S
O142 Tb120 2.399 . S
O142 C129 1.263 . S
C143 O132 1.261 1_554 S
C143 O133 1.257 . S
C144 C147 1.358 . S
C144 C148 1.332 . S
C144 C150 1.504 . S
C145 C146 1.373 . S
C145 C149 1.308 . S
C146 C145 1.373 . S
C146 C147 1.429 . S
C146 H156 0.932 . S
C147 C144 1.358 . S
C147 C146 1.429 . S
C147 H157 0.930 . S
C148 C144 1.332 . S
C148 C149 1.394 . S
C148 H158 0.932 . S
C149 C145 1.308 . S
C149 C148 1.394 . S
C149 H159 0.929 . S
C150 Tb121 2.764 . S
C150 O134 1.239 . S
C150 O135 1.263 . S
C150 C144 1.504 . S
C151 O136 1.236 . S
C151 O137 1.257 . S
H152 C125 0.932 . S
H153 C126 0.930 . S
H154 C127 0.932 . S
H155 C128 0.929 . S
H156 C146 0.932 . S
H157 C147 0.930 . S
H158 C148 0.932 . S
H159 C149 0.929 . S
Tb160 C169 2.764 . S
Tb160 O170 2.325 . S
Tb160 O173 2.303 . S
Tb160 O177 2.322 . S
Tb160 O178 2.349 . S
Tb160 O181 2.415 . S
Tb160 O182 2.399 . S
Tb161 O171 2.322 . S
Tb161 O172 2.349 . S
Tb161 O174 2.415 . S
Tb161 O175 2.399 . S
Tb161 O176 2.325 . S
Tb161 O179 2.303 . S
Tb161 C190 2.764 . S
C162 O178 1.261 . S
C162 O179 1.257 . S
C163 C166 1.358 . S
C163 C167 1.332 . S
C163 C169 1.504 . S
C164 C165 1.373 . S
C164 C168 1.308 . S
C165 C164 1.373 . S
C165 C166 1.429 . S
C165 H192 0.932 . S
C166 C163 1.358 . S
C166 C165 1.429 . S
C166 H193 0.930 . S
C167 C163 1.332 . S
C167 C168 1.394 . S
C167 H194 0.932 . S
C168 C164 1.308 . S
C168 C167 1.394 . S
C168 H195 0.929 . S
C169 Tb160 2.764 . S
C169 C163 1.504 . S
C169 O181 1.239 . S
C169 O182 1.263 . S
O170 Tb160 2.325 . S
O170 C180 1.236 . S
O171 Tb161 2.322 . S
O171 C180 1.257 . S
O172 Tb161 2.349 . S
O172 C183 1.261 . S
O173 Tb160 2.303 . S
O173 C183 1.257 . S
O174 Tb161 2.415 . S
O174 C190 1.239 . S
O175 Tb161 2.399 . S
O175 C190 1.263 . S
O176 Tb161 2.325 . S
O176 C191 1.236 . S
O177 Tb160 2.322 . S
O177 C191 1.257 . S
O178 Tb160 2.349 . S
O178 C162 1.261 . S
O179 Tb161 2.303 . S
O179 C162 1.257 . S
C180 O170 1.236 . S
C180 O171 1.257 . S
O181 Tb160 2.415 . S
O181 C169 1.239 . S
O182 Tb160 2.399 . S
O182 C169 1.263 . S
C183 O172 1.261 . S
C183 O173 1.257 . S
C184 C187 1.358 . S
C184 C188 1.332 . S
C184 C190 1.504 . S
C185 C186 1.373 . S
C185 C189 1.308 . S
C186 C185 1.373 . S
C186 C187 1.429 . S
C186 H196 0.932 . S
C187 C184 1.358 . S
C187 C186 1.429 . S
C187 H197 0.930 . S
C188 C184 1.332 . S
C188 C189 1.394 . S
C188 H198 0.932 . S
C189 C185 1.308 . S
C189 C188 1.394 . S
C189 H199 0.929 . S
C190 Tb161 2.764 . S
C190 O174 1.239 . S
C190 O175 1.263 . S
C190 C184 1.504 . S
C191 O176 1.236 . S
C191 O177 1.257 . S
H192 C165 0.932 . S
H193 C166 0.930 . S
H194 C167 0.932 . S
H195 C168 0.929 . S
H196 C186 0.932 . S
H197 C187 0.930 . S
H198 C188 0.932 . S
H199 C189 0.929 . S
Tb200 C209 2.764 . S
Tb200 O210 2.325 . S
Tb200 O213 2.303 . S
Tb200 O217 2.322 . S
Tb200 O218 2.349 . S
Tb200 O221 2.415 . S
Tb200 O222 2.399 . S
Tb201 O211 2.322 . S
Tb201 O212 2.349 . S
Tb201 O214 2.415 . S
Tb201 O215 2.399 . S
Tb201 O216 2.325 . S
Tb201 O219 2.303 . S
Tb201 C230 2.764 . S
C202 O218 1.261 . S
C202 O219 1.257 . S
C203 C206 1.358 . S
C203 C207 1.332 . S
C203 C209 1.504 . S
C204 C205 1.373 . S
C204 C208 1.308 . S
C205 C204 1.373 . S
C205 C206 1.429 . S
C205 H232 0.932 . S
C206 C203 1.358 . S
C206 C205 1.429 . S
C206 H233 0.930 . S
C207 C203 1.332 . S
C207 C208 1.394 . S
C207 H234 0.932 . S
C208 C204 1.308 . S
C208 C207 1.394 . S
C208 H235 0.929 . S
C209 Tb200 2.764 . S
C209 C203 1.504 . S
C209 O221 1.239 . S
C209 O222 1.263 . S
O210 Tb200 2.325 . S
O210 C220 1.236 . S
O211 Tb201 2.322 . S
O211 C220 1.257 . S
O212 Tb201 2.349 . S
O212 C223 1.261 . S
O213 Tb200 2.303 . S
O213 C223 1.257 . S
O214 Tb201 2.415 . S
O214 C230 1.239 . S
O215 Tb201 2.399 . S
O215 C230 1.263 . S
O216 Tb201 2.325 . S
O216 C231 1.236 . S
O217 Tb200 2.322 . S
O217 C231 1.257 . S
O218 Tb200 2.349 . S
O218 C202 1.261 . S
O219 Tb201 2.303 . S
O219 C202 1.257 . S
C220 O210 1.236 . S
C220 O211 1.257 . S
O221 Tb200 2.415 . S
O221 C209 1.239 . S
O222 Tb200 2.399 . S
O222 C209 1.263 . S
C223 O212 1.261 . S
C223 O213 1.257 . S
C224 C227 1.358 . S
C224 C228 1.332 . S
C224 C230 1.504 . S
C225 C226 1.373 . S
C225 C229 1.308 . S
C226 C225 1.373 . S
C226 C227 1.429 . S
C226 H236 0.932 . S
C227 C224 1.358 . S
C227 C226 1.429 . S
C227 H237 0.930 . S
C228 C224 1.332 . S
C228 C229 1.394 . S
C228 H238 0.932 . S
C229 C225 1.308 . S
C229 C228 1.394 . S
C229 H239 0.929 . S
C230 Tb201 2.764 . S
C230 O214 1.239 . S
C230 O215 1.263 . S
C230 C224 1.504 . S
C231 O216 1.236 . S
C231 O217 1.257 . S
H232 C205 0.932 . S
H233 C206 0.930 . S
H234 C207 0.932 . S
H235 C208 0.929 . S
H236 C226 0.932 . S
H237 C227 0.930 . S
H238 C228 0.932 . S
H239 C229 0.929 . S
C240 C241 1.386 . S
C240 C242 1.383 . S
C240 H256 0.951 . S
C241 C240 1.386 . S
C241 C245 1.383 . S
C242 C240 1.383 . S
C242 C243 1.402 . S
C242 H257 0.951 . S
C243 C242 1.402 . S
C243 C244 1.375 . S
C243 C246 1.481 . S
C244 C243 1.375 . S
C244 C245 1.367 . S
C244 H258 0.951 . S
C245 C241 1.383 . S
C245 C244 1.367 . S
C245 H259 0.950 . S
C246 C243 1.481 . S
C246 C247 1.297 . S
C246 H260 0.950 . S
C247 C246 1.297 . S
C247 C248 1.479 . S
C247 H261 0.950 . S
C248 C247 1.479 . S
C248 C249 1.375 . S
C248 C254 1.404 . S
C249 C248 1.375 . S
C249 C250 1.369 . S
C249 H262 0.950 . S
C250 C249 1.369 . S
C250 C251 1.392 . S
C250 H263 0.951 . S
C251 C250 1.392 . S
C251 C253 1.384 . S
H252 C254 0.949 . S
C253 C251 1.384 . S
C253 C254 1.385 . S
C253 H255 0.950 . S
C254 C248 1.404 . S
C254 H252 0.949 . S
C254 C253 1.385 . S
H255 C253 0.950 . S
H256 C240 0.951 . S
H257 C242 0.951 . S
H258 C244 0.951 . S
H259 C245 0.950 . S
H260 C246 0.950 . S
H261 C247 0.950 . S
H262 C249 0.950 . S
H263 C250 0.951 . S
C264 C265 1.386 . S
C264 C266 1.383 . S
C264 H280 0.951 . S
C265 C264 1.386 . S
C265 C269 1.383 . S
C266 C264 1.383 . S
C266 C267 1.402 . S
C266 H281 0.951 . S
C267 C266 1.402 . S
C267 C268 1.375 . S
C267 C270 1.481 . S
C268 C267 1.375 . S
C268 C269 1.367 . S
C268 H282 0.951 . S
C269 C265 1.383 . S
C269 C268 1.367 . S
C269 H283 0.950 . S
C270 C267 1.481 . S
C270 C271 1.297 . S
C270 H284 0.950 1_455 S
C271 C270 1.297 . S
C271 C272 1.482 1_455 S
C271 H285 0.947 . S
C272 C271 1.482 1_655 S
C272 C273 1.375 . S
C272 C278 1.404 . S
C273 C272 1.375 . S
C273 C274 1.369 . S
C273 H286 0.950 . S
C274 C273 1.369 . S
C274 C275 1.392 . S
C274 H287 0.951 . S
C275 C274 1.392 . S
C275 C277 1.384 . S
H276 C278 0.949 . S
C277 C275 1.384 . S
C277 C278 1.385 . S
C277 H279 0.950 . S
C278 C272 1.404 . S
C278 H276 0.949 . S
C278 C277 1.385 . S
H279 C277 0.950 . S
H280 C264 0.951 . S
H281 C266 0.951 . S
H282 C268 0.951 . S
H283 C269 0.950 . S
H284 C270 0.950 1_655 S
H285 C271 0.947 . S
H286 C273 0.950 . S
H287 C274 0.951 . S
C288 C289 1.386 . S
C288 C290 1.383 . S
C288 H304 0.951 . S
C289 C288 1.386 . S
C289 C293 1.383 . S
C290 C288 1.383 . S
C290 C291 1.402 . S
C290 H305 0.951 . S
C291 C290 1.402 . S
C291 C292 1.375 . S
C291 C294 1.481 . S
C292 C291 1.375 . S
C292 C293 1.367 . S
C292 H306 0.951 . S
C293 C289 1.383 . S
C293 C292 1.367 . S
C293 H307 0.950 . S
C294 C291 1.481 . S
C294 C295 1.297 1_545 S
C294 H308 0.950 . S
C295 C294 1.297 1_565 S
C295 C296 1.479 . S
C295 H309 0.950 . S
C296 C295 1.479 . S
C296 C297 1.375 . S
C296 C302 1.404 . S
C297 C296 1.375 . S
C297 C298 1.369 . S
C297 H310 0.950 . S
C298 C297 1.369 . S
C298 C299 1.392 . S
C298 H311 0.951 . S
C299 C298 1.392 . S
C299 C301 1.384 . S
H300 C302 0.949 . S
C301 C299 1.384 . S
C301 C302 1.385 . S
C301 H303 0.950 . S
C302 C296 1.404 . S
C302 H300 0.949 . S
C302 C301 1.385 . S
H303 C301 0.950 . S
H304 C288 0.951 . S
H305 C290 0.951 . S
H306 C292 0.951 . S
H307 C293 0.950 . S
H308 C294 0.950 . S
H309 C295 0.950 . S
H310 C297 0.950 . S
H311 C298 0.951 . S
C312 C313 1.386 . S
C312 C314 1.383 . S
C312 H328 0.951 . S
C313 C312 1.386 . S
C313 C317 1.383 . S
C314 C312 1.383 . S
C314 C315 1.402 . S
C314 H329 0.951 . S
C315 C314 1.402 . S
C315 C316 1.375 . S
C315 C318 1.481 . S
C316 C315 1.375 . S
C316 C317 1.367 . S
C316 H330 0.951 . S
C317 C313 1.383 . S
C317 C316 1.367 . S
C317 H331 0.950 . S
C318 C315 1.481 . S
C318 C319 1.297 . S
C318 H332 0.950 . S
C319 C318 1.297 . S
C319 C320 1.479 . S
C319 H333 0.950 . S
C320 C319 1.479 . S
C320 C321 1.375 . S
C320 C326 1.404 . S
C321 C320 1.375 . S
C321 C322 1.369 . S
C321 H334 0.950 . S
C322 C321 1.369 . S
C322 C323 1.392 . S
C322 H335 0.951 . S
C323 C322 1.392 . S
C323 C325 1.384 . S
H324 C326 0.949 . S
C325 C323 1.384 . S
C325 C326 1.385 . S
C325 H327 0.950 . S
C326 C320 1.404 . S
C326 H324 0.949 . S
C326 C325 1.385 . S
H327 C325 0.950 . S
H328 C312 0.951 . S
H329 C314 0.951 . S
H330 C316 0.951 . S
H331 C317 0.950 . S
H332 C318 0.950 . S
H333 C319 0.950 . S
H334 C321 0.950 . S
H335 C322 0.951 . S
C336 C337 1.386 . S
C336 C338 1.383 . S
C336 H352 0.951 . S
C337 C336 1.386 . S
C337 C341 1.383 . S
C338 C336 1.383 . S
C338 C339 1.402 . S
C338 H353 0.951 . S
C339 C338 1.402 . S
C339 C340 1.375 . S
C339 C342 1.481 . S
C340 C339 1.375 . S
C340 C341 1.367 . S
C340 H354 0.951 . S
C341 C337 1.383 . S
C341 C340 1.367 . S
C341 H355 0.950 . S
C342 C339 1.481 . S
C342 C343 1.297 . S
C342 H356 0.950 1_455 S
C343 C342 1.297 . S
C343 C344 1.479 1_455 S
C343 H357 0.950 . S
C344 C343 1.479 1_655 S
C344 C345 1.375 . S
C344 C350 1.404 . S
C345 C344 1.375 . S
C345 C346 1.369 . S
C345 H358 0.950 . S
C346 C345 1.369 . S
C346 C347 1.392 . S
C346 H359 0.951 . S
C347 C346 1.392 . S
C347 C349 1.384 . S
H348 C350 0.949 . S
C349 C347 1.384 . S
C349 C350 1.385 . S
C349 H351 0.950 . S
C350 C344 1.404 . S
C350 H348 0.949 . S
C350 C349 1.385 . S
H351 C349 0.950 . S
H352 C336 0.951 . S
H353 C338 0.951 . S
H354 C340 0.951 . S
H355 C341 0.950 . S
H356 C342 0.950 1_655 S
H357 C343 0.950 . S
H358 C345 0.950 . S
H359 C346 0.951 . S
C360 C361 1.386 . S
C360 C362 1.383 . S
C360 H376 0.951 . S
C361 C360 1.386 . S
C361 C365 1.383 . S
C362 C360 1.383 . S
C362 C363 1.402 . S
C362 H377 0.951 . S
C363 C362 1.402 . S
C363 C364 1.375 . S
C363 C366 1.481 . S
C364 C363 1.375 . S
C364 C365 1.367 . S
C364 H378 0.951 . S
C365 C361 1.383 . S
C365 C364 1.367 . S
C365 H379 0.950 . S
C366 C363 1.481 . S
C366 C367 1.297 1_545 S
C366 H380 0.950 . S
C367 C366 1.297 1_565 S
C367 C368 1.479 . S
C367 H381 0.950 . S
C368 C367 1.479 . S
C368 C369 1.375 . S
C368 C374 1.404 . S
C369 C368 1.375 . S
C369 C370 1.369 . S
C369 H382 0.950 . S
C370 C369 1.369 . S
C370 C371 1.392 . S
C370 H383 0.951 . S
C371 C370 1.392 . S
C371 C373 1.384 . S
H372 C374 0.949 . S
C373 C371 1.384 . S
C373 C374 1.385 . S
C373 H375 0.950 . S
C374 C368 1.404 . S
C374 H372 0.949 . S
C374 C373 1.385 . S
H375 C373 0.950 . S
H376 C360 0.951 . S
H377 C362 0.951 . S
H378 C364 0.951 . S
H379 C365 0.950 . S
H380 C366 0.950 . S
H381 C367 0.950 . S
H382 C369 0.950 . S
H383 C370 0.951 . S
C384 C385 1.386 . S
C384 C386 1.383 . S
C384 H400 0.951 . S
C385 C384 1.386 . S
C385 C389 1.383 . S
C386 C384 1.383 . S
C386 C387 1.402 . S
C386 H401 0.951 . S
C387 C386 1.402 . S
C387 C388 1.375 . S
C387 C390 1.481 . S
C388 C387 1.375 . S
C388 C389 1.367 . S
C388 H402 0.951 . S
C389 C385 1.383 . S
C389 C388 1.367 . S
C389 H403 0.950 . S
C390 C387 1.481 . S
C390 C391 1.297 . S
C390 H404 0.950 . S
C391 C390 1.297 . S
C391 C392 1.479 . S
C391 H405 0.950 . S
C392 C391 1.479 . S
C392 C393 1.375 . S
C392 C398 1.404 . S
C393 C392 1.375 . S
C393 C394 1.369 . S
C393 H406 0.950 . S
C394 C393 1.369 . S
C394 C395 1.392 . S
C394 H407 0.951 . S
C395 C394 1.392 . S
C395 C397 1.384 . S
H396 C398 0.949 . S
C397 C395 1.384 . S
C397 C398 1.385 . S
C397 H399 0.950 . S
C398 C392 1.404 . S
C398 H396 0.949 . S
C398 C397 1.385 . S
H399 C397 0.950 . S
H400 C384 0.951 . S
H401 C386 0.951 . S
H402 C388 0.951 . S
H403 C389 0.950 . S
H404 C390 0.950 . S
H405 C391 0.950 . S
H406 C393 0.950 . S
H407 C394 0.951 . S
C408 C409 1.386 . S
C408 C410 1.383 . S
C408 H424 0.951 . S
C409 C408 1.386 . S
C409 C413 1.383 . S
C410 C408 1.383 . S
C410 C411 1.402 . S
C410 H425 0.951 . S
C411 C410 1.402 . S
C411 C412 1.375 . S
C411 C414 1.481 . S
C412 C411 1.375 . S
C412 C413 1.367 . S
C412 H426 0.951 . S
C413 C409 1.383 . S
C413 C412 1.367 . S
C413 H427 0.950 . S
C414 C411 1.481 . S
C414 C415 1.297 . S
C414 H428 0.950 . S
C415 C414 1.297 . S
C415 C416 1.479 . S
C415 H429 0.950 . S
C416 C415 1.479 . S
C416 C417 1.375 . S
C416 C422 1.404 . S
C417 C416 1.375 . S
C417 C418 1.369 . S
C417 H430 0.950 . S
C418 C417 1.369 . S
C418 C419 1.392 . S
C418 H431 0.951 . S
C419 C418 1.392 . S
C419 C421 1.384 . S
H420 C422 0.949 . S
C421 C419 1.384 . S
C421 C422 1.385 . S
C421 H423 0.950 . S
C422 C416 1.404 . S
C422 H420 0.949 . S
C422 C421 1.385 . S
H423 C421 0.950 . S
H424 C408 0.951 . S
H425 C410 0.951 . S
H426 C412 0.951 . S
H427 C413 0.950 . S
H428 C414 0.950 . S
H429 C415 0.950 . S
H430 C417 0.950 . S
H431 C418 0.951 . S
C432 C433 1.386 . S
C432 C434 1.383 . S
C432 H448 0.951 . S
C433 C432 1.386 . S
C433 C437 1.383 . S
C434 C432 1.383 . S
C434 C435 1.402 . S
C434 H449 0.951 . S
C435 C434 1.402 . S
C435 C436 1.375 . S
C435 C438 1.481 . S
C436 C435 1.375 . S
C436 C437 1.367 . S
C436 H450 0.951 . S
C437 C433 1.383 . S
C437 C436 1.367 . S
C437 H451 0.950 . S
C438 C435 1.481 . S
C438 C439 1.297 . S
C438 H452 0.950 . S
C439 C438 1.297 . S
C439 C440 1.479 . S
C439 H453 0.950 . S
C440 C439 1.479 . S
C440 C441 1.375 . S
C440 C446 1.404 . S
C441 C440 1.375 . S
C441 C442 1.369 . S
C441 H454 0.950 . S
C442 C441 1.369 . S
C442 C443 1.392 . S
C442 H455 0.951 . S
C443 C442 1.392 . S
C443 C445 1.384 . S
H444 C446 0.949 . S
C445 C443 1.384 . S
C445 C446 1.385 . S
C445 H447 0.950 1_554 S
C446 C440 1.404 . S
C446 H444 0.949 . S
C446 C445 1.385 . S
H447 C445 0.950 1_556 S
H448 C432 0.951 . S
H449 C434 0.951 . S
H450 C436 0.951 . S
H451 C437 0.950 . S
H452 C438 0.950 . S
H453 C439 0.950 . S
H454 C441 0.950 . S
H455 C442 0.951 . S
C456 C457 1.386 . S
C456 C458 1.383 . S
C456 H472 0.951 . S
C457 C456 1.386 . S
C457 C461 1.383 . S
C458 C456 1.383 . S
C458 C459 1.402 . S
C458 H473 0.951 . S
C459 C458 1.402 . S
C459 C460 1.375 . S
C459 C462 1.481 . S
C460 C459 1.375 . S
C460 C461 1.367 . S
C460 H474 0.951 . S
C461 C457 1.383 . S
C461 C460 1.367 . S
C461 H475 0.950 . S
C462 C459 1.481 . S
C462 C463 1.297 . S
C462 H476 0.950 . S
C463 C462 1.297 . S
C463 C464 1.479 . S
C463 H477 0.950 . S
C464 C463 1.479 . S
C464 C465 1.375 . S
C464 C470 1.404 . S
C465 C464 1.375 . S
C465 C466 1.369 . S
C465 H478 0.950 . S
C466 C465 1.369 . S
C466 C467 1.392 . S
C466 H479 0.951 . S
C467 C466 1.392 . S
C467 C469 1.384 . S
H468 C470 0.949 . S
C469 C467 1.384 . S
C469 C470 1.385 . S
C469 H471 0.950 . S
C470 C464 1.404 . S
C470 H468 0.949 . S
C470 C469 1.385 . S
H471 C469 0.950 . S
H472 C456 0.951 . S
H473 C458 0.951 . S
H474 C460 0.951 . S
H475 C461 0.950 . S
H476 C462 0.950 . S
H477 C463 0.950 . S
H478 C465 0.950 . S
H479 C466 0.951 . S
C480 C481 1.386 . S
C480 C482 1.383 . S
C480 H496 0.951 . S
C481 C480 1.386 . S
C481 C485 1.383 . S
C482 C480 1.383 . S
C482 C483 1.402 . S
C482 H497 0.951 . S
C483 C482 1.402 . S
C483 C484 1.375 . S
C483 C486 1.481 . S
C484 C483 1.375 . S
C484 C485 1.367 . S
C484 H498 0.951 . S
C485 C481 1.383 . S
C485 C484 1.367 . S
C485 H499 0.950 . S
C486 C483 1.481 . S
C486 C487 1.297 . S
C486 H500 0.950 . S
C487 C486 1.297 . S
C487 C488 1.479 . S
C487 H501 0.950 . S
C488 C487 1.479 . S
C488 C489 1.375 . S
C488 C494 1.404 . S
C489 C488 1.375 . S
C489 C490 1.369 . S
C489 H502 0.950 . S
C490 C489 1.369 . S
C490 C491 1.392 . S
C490 H503 0.951 . S
C491 C490 1.392 . S
C491 C493 1.384 . S
H492 C494 0.949 . S
C493 C491 1.384 . S
C493 C494 1.385 . S
C493 H495 0.950 1_556 S
C494 C488 1.404 . S
C494 H492 0.949 . S
C494 C493 1.385 . S
H495 C493 0.950 1_554 S
H496 C480 0.951 . S
H497 C482 0.951 . S
H498 C484 0.951 . S
H499 C485 0.950 . S
H500 C486 0.950 . S
H501 C487 0.950 . S
H502 C489 0.950 . S
H503 C490 0.951 . S
C504 C505 1.386 . S
C504 C506 1.383 . S
C504 H520 0.951 . S
C505 C504 1.386 . S
C505 C509 1.383 . S
C506 C504 1.383 . S
C506 C507 1.402 . S
C506 H521 0.951 . S
C507 C506 1.402 . S
C507 C508 1.375 . S
C507 C510 1.481 . S
C508 C507 1.375 . S
C508 C509 1.367 . S
C508 H522 0.951 . S
C509 C505 1.383 . S
C509 C508 1.367 . S
C509 H523 0.950 . S
C510 C507 1.481 . S
C510 C511 1.297 . S
C510 H524 0.950 . S
C511 C510 1.297 . S
C511 C512 1.479 . S
C511 H525 0.950 . S
C512 C511 1.479 . S
C512 C513 1.375 . S
C512 C518 1.404 . S
C513 C512 1.375 . S
C513 C514 1.369 . S
C513 H526 0.950 . S
C514 C513 1.369 . S
C514 C515 1.392 . S
C514 H527 0.951 . S
C515 C514 1.392 . S
C515 C517 1.384 . S
H516 C518 0.949 . S
C517 C515 1.384 . S
C517 C518 1.385 . S
C517 H519 0.950 1_554 S
C518 C512 1.404 . S
C518 H516 0.949 . S
C518 C517 1.385 . S
H519 C517 0.950 1_556 S
H520 C504 0.951 . S
H521 C506 0.951 . S
H522 C508 0.951 . S
H523 C509 0.950 . S
H524 C510 0.950 . S
H525 C511 0.950 . S
H526 C513 0.950 . S
H527 C514 0.951 . S
C528 C529 1.386 . S
C528 C530 1.383 . S
C528 H544 0.951 . S
C529 C528 1.386 . S
C529 C533 1.383 . S
C530 C528 1.383 . S
C530 C531 1.402 . S
C530 H545 0.951 . S
C531 C530 1.402 . S
C531 C532 1.375 . S
C531 C534 1.481 . S
C532 C531 1.375 . S
C532 C533 1.367 . S
C532 H546 0.951 . S
C533 C529 1.383 . S
C533 C532 1.367 . S
C533 H547 0.950 . S
C534 C531 1.481 . S
C534 C535 1.297 . S
C534 H548 0.950 . S
C535 C534 1.297 . S
C535 C536 1.479 . S
C535 H549 0.950 . S
C536 C535 1.479 . S
C536 C537 1.375 . S
C536 C542 1.404 . S
C537 C536 1.375 . S
C537 C538 1.369 . S
C537 H550 0.950 . S
C538 C537 1.369 . S
C538 C539 1.392 . S
C538 H551 0.951 . S
C539 C538 1.392 . S
C539 C541 1.384 . S
H540 C542 0.949 . S
C541 C539 1.384 . S
C541 C542 1.385 . S
C541 H543 0.950 . S
C542 C536 1.404 . S
C542 H540 0.949 . S
C542 C541 1.385 . S
H543 C541 0.950 . S
H544 C528 0.951 . S
H545 C530 0.951 . S
H546 C532 0.951 . S
H547 C533 0.950 . S
H548 C534 0.950 . S
H549 C535 0.950 . S
H550 C537 0.950 . S
H551 C538 0.951 . S
C552 C553 1.386 . S
C552 C554 1.383 . S
C552 H568 0.951 . S
C553 C552 1.386 . S
C553 C557 1.383 . S
C554 C552 1.383 . S
C554 C555 1.402 . S
C554 H569 0.951 . S
C555 C554 1.402 . S
C555 C556 1.375 . S
C555 C558 1.481 . S
C556 C555 1.375 . S
C556 C557 1.367 . S
C556 H570 0.951 . S
C557 C553 1.383 . S
C557 C556 1.367 . S
C557 H571 0.950 . S
C558 C555 1.481 . S
C558 C559 1.297 . S
C558 H572 0.950 . S
C559 C558 1.297 . S
C559 C560 1.479 . S
C559 H573 0.950 . S
C560 C559 1.479 . S
C560 C561 1.375 . S
C560 C566 1.404 . S
C561 C560 1.375 . S
C561 C562 1.369 . S
C561 H574 0.950 . S
C562 C561 1.369 . S
C562 C563 1.392 . S
C562 H575 0.951 . S
C563 C562 1.392 . S
C563 C565 1.384 . S
H564 C566 0.949 . S
C565 C563 1.384 . S
C565 C566 1.385 . S
C565 H567 0.950 . S
C566 C560 1.404 . S
C566 H564 0.949 . S
C566 C565 1.385 . S
H567 C565 0.950 . S
H568 C552 0.951 . S
H569 C554 0.951 . S
H570 C556 0.951 . S
H571 C557 0.950 . S
H572 C558 0.950 . S
H573 C559 0.950 . S
H574 C561 0.950 . S
H575 C562 0.951 . S
C576 C577 1.386 . S
C576 C578 1.383 . S
C576 H592 0.951 . S
C577 C576 1.386 . S
C577 C581 1.383 . S
C578 C576 1.383 . S
C578 C579 1.402 . S
C578 H593 0.951 . S
C579 C578 1.402 . S
C579 C580 1.375 . S
C579 C582 1.481 . S
C580 C579 1.375 . S
C580 C581 1.367 . S
C580 H594 0.951 . S
C581 C577 1.383 . S
C581 C580 1.367 . S
C581 H595 0.950 . S
C582 C579 1.481 . S
C582 C583 1.297 . S
C582 H596 0.950 . S
C583 C582 1.297 . S
C583 C584 1.479 . S
C583 H597 0.950 . S
C584 C583 1.479 . S
C584 C585 1.375 . S
C584 C590 1.404 . S
C585 C584 1.375 . S
C585 C586 1.369 . S
C585 H598 0.950 . S
C586 C585 1.369 . S
C586 C587 1.392 . S
C586 H599 0.951 . S
C587 C586 1.392 . S
C587 C589 1.384 . S
H588 C590 0.949 . S
C589 C587 1.384 . S
C589 C590 1.385 . S
C589 H591 0.950 . S
C590 C584 1.404 . S
C590 H588 0.949 . S
C590 C589 1.385 . S
H591 C589 0.950 . S
H592 C576 0.951 . S
H593 C578 0.951 . S
H594 C580 0.951 . S
H595 C581 0.950 . S
H596 C582 0.950 . S
H597 C583 0.950 . S
H598 C585 0.950 . S
H599 C586 0.951 . S
C600 C601 1.386 . S
C600 C602 1.383 . S
C600 H616 0.951 . S
C601 C600 1.386 . S
C601 C605 1.383 . S
C602 C600 1.383 . S
C602 C603 1.402 . S
C602 H617 0.951 . S
C603 C602 1.402 . S
C603 C604 1.375 . S
C603 C606 1.481 . S
C604 C603 1.375 . S
C604 C605 1.367 . S
C604 H618 0.951 . S
C605 C601 1.383 . S
C605 C604 1.367 . S
C605 H619 0.950 . S
C606 C603 1.481 . S
C606 C607 1.297 . S
C606 H620 0.950 . S
C607 C606 1.297 . S
C607 C608 1.479 . S
C607 H621 0.950 . S
C608 C607 1.479 . S
C608 C609 1.375 . S
C608 C614 1.404 . S
C609 C608 1.375 . S
C609 C610 1.369 . S
C609 H622 0.950 . S
C610 C609 1.369 . S
C610 C611 1.392 . S
C610 H623 0.951 . S
C611 C610 1.392 . S
C611 C613 1.384 . S
H612 C614 0.949 . S
C613 C611 1.384 . S
C613 C614 1.385 . S
C613 H615 0.950 . S
C614 C608 1.404 . S
C614 H612 0.949 . S
C614 C613 1.385 . S
H615 C613 0.950 . S
H616 C600 0.951 . S
H617 C602 0.951 . S
H618 C604 0.951 . S
H619 C605 0.950 . S
H620 C606 0.950 . S
H621 C607 0.950 . S
H622 C609 0.950 . S
H623 C610 0.951 . S
C624 C625 1.386 . S
C624 C626 1.383 . S
C624 H640 0.951 . S
C625 C624 1.386 . S
C625 C629 1.383 . S
C626 C624 1.383 . S
C626 C627 1.402 . S
C626 H641 0.951 . S
C627 C626 1.402 . S
C627 C628 1.375 . S
C627 C630 1.481 . S
C628 C627 1.375 . S
C628 C629 1.367 . S
C628 H642 0.951 . S
C629 C625 1.383 . S
C629 C628 1.367 . S
C629 H643 0.950 . S
C630 C627 1.481 . S
C630 C631 1.297 . S
C630 H644 0.950 . S
C631 C630 1.297 . S
C631 C632 1.479 . S
C631 H645 0.950 . S
C632 C631 1.479 . S
C632 C633 1.375 . S
C632 C638 1.404 . S
C633 C632 1.375 . S
C633 C634 1.369 . S
C633 H646 0.950 . S
C634 C633 1.369 . S
C634 C635 1.392 . S
C634 H647 0.951 . S
C635 C634 1.392 . S
C635 C637 1.384 . S
H636 C638 0.949 . S
C637 C635 1.384 . S
C637 C638 1.385 . S
C637 H639 0.950 . S
C638 C632 1.404 . S
C638 H636 0.949 . S
C638 C637 1.385 . S
H639 C637 0.950 . S
H640 C624 0.951 . S
H641 C626 0.951 . S
H642 C628 0.951 . S
H643 C629 0.950 . S
H644 C630 0.950 . S
H645 C631 0.950 . S
H646 C633 0.950 . S
H647 C634 0.951 . S
C648 C649 1.386 . S
C648 C650 1.383 . S
C648 H664 0.951 . S
C649 C648 1.386 . S
C649 C653 1.383 . S
C650 C648 1.383 . S
C650 C651 1.402 . S
C650 H665 0.951 . S
C651 C650 1.402 . S
C651 C652 1.375 . S
C651 C654 1.481 . S
C652 C651 1.375 . S
C652 C653 1.367 . S
C652 H666 0.951 . S
C653 C649 1.383 . S
C653 C652 1.367 . S
C653 H667 0.950 . S
C654 C651 1.481 . S
C654 C655 1.297 . S
C654 H668 0.950 . S
C655 C654 1.297 . S
C655 C656 1.479 . S
C655 H669 0.950 . S
C656 C655 1.479 . S
C656 C657 1.375 . S
C656 C662 1.404 . S
C657 C656 1.375 . S
C657 C658 1.369 . S
C657 H670 0.950 . S
C658 C657 1.369 . S
C658 C659 1.392 . S
C658 H671 0.951 . S
C659 C658 1.392 . S
C659 C661 1.384 . S
H660 C662 0.949 . S
C661 C659 1.384 . S
C661 C662 1.385 . S
C661 H663 0.950 . S
C662 C656 1.404 . S
C662 H660 0.949 . S
C662 C661 1.385 . S
H663 C661 0.950 . S
H664 C648 0.951 . S
H665 C650 0.951 . S
H666 C652 0.951 . S
H667 C653 0.950 . S
H668 C654 0.950 . S
H669 C655 0.950 . S
H670 C657 0.950 . S
H671 C658 0.951 . S
C241 C223 1.336 . S
C251 C31 1.345 . S
C265 C23 1.328 . S
C275 C71 1.356 . S
C289 C63 1.368 . S
C299 C111 1.366 . S
C313 C103 1.329 . S
C323 C151 1.359 . S
C337 C191 1.358 . S
C347 C143 1.305 . S
C361 C231 1.376 . S
C371 C183 1.366 . S
C385 C25 1.257 . S
C395 C4 1.338 . S
C409 C65 1.282 1_556 S
C419 C44 1.325 . S
C433 C105 1.317 . S
C443 C84 1.248 1_554 S
C457 C145 1.287 . S
C467 C124 1.320 . S
C481 C164 1.317 . S
C491 C185 1.233 1_556 S
C505 C225 1.315 . S
C515 C204 1.261 1_554 S
C529 C20 1.601 . S
C539 C162 1.606 . S
C553 C60 1.604 . S
C563 C202 1.607 . S
C577 C2 1.610 . S
C587 C100 1.604 . S
C601 C42 1.605 . S
C611 C140 1.584 . S
C625 C180 1.604 . S
C635 C82 1.607 . S
C649 C122 1.594 . S
C659 C220 1.564 . S
