# Generated by pormake.
# Topology npo, (4)-cn, num edge types: 1
# Building blocks:
#     Node 0, Type 0, BuildingBlock: ICAMEG_clean_sbu_1, # of connection points: 4
#     Node 1, Type 0, BuildingBlock: ICAMEG_clean_sbu_1, # of connection points: 4
#     Node 2, Type 0, BuildingBlock: ICAMEG_clean_sbu_1, # of connection points: 4
#     Node 3, Type 0, BuildingBlock: ICAMEG_clean_sbu_1, # of connection points: 4
#     Node 4, Type 0, BuildingBlock: ICAMEG_clean_sbu_1, # of connection points: 4
#     Node 5, Type 0, BuildingBlock: ICAMEG_clean_sbu_1, # of connection points: 4
#     Edge 6, Type (0, 0), BuildingBlock: TEMPAE_clean_linker_10, # of connection points: 2
#     Edge 7, Type (0, 0), BuildingBlock: TEMPAE_clean_linker_10, # of connection points: 2
#     Edge 8, Type (0, 0), BuildingBlock: TEMPAE_clean_linker_10, # of connection points: 2
#     Edge 9, Type (0, 0), BuildingBlock: TEMPAE_clean_linker_10, # of connection points: 2
#     Edge 10, Type (0, 0), BuildingBlock: TEMPAE_clean_linker_10, # of connection points: 2
#     Edge 11, Type (0, 0), BuildingBlock: TEMPAE_clean_linker_10, # of connection points: 2
#     Edge 12, Type (0, 0), BuildingBlock: TEMPAE_clean_linker_10, # of connection points: 2
#     Edge 13, Type (0, 0), BuildingBlock: TEMPAE_clean_linker_10, # of connection points: 2
#     Edge 14, Type (0, 0), BuildingBlock: TEMPAE_clean_linker_10, # of connection points: 2
#     Edge 15, Type (0, 0), BuildingBlock: TEMPAE_clean_linker_10, # of connection points: 2
#     Edge 16, Type (0, 0), BuildingBlock: TEMPAE_clean_linker_10, # of connection points: 2
#     Edge 17, Type (0, 0), BuildingBlock: TEMPAE_clean_linker_10, # of connection points: 2
# Relax obj value: 0.242
# Max RMSD: 0.245
# Mean RMSD: 0.244
data_MOF--net-npo--node1-ICAMEG_clean_sbu_1--edge1-TEMPAE_clean_linker_10
_symmetry_space_group_name_H-M    P1
_symmetry_Int_Tables_number       1
_symmetry_cell_setting            triclinic
loop_
_symmetry_equiv_pos_as_xyz
'x, y, z'
_cell_length_a     46.672464
_cell_length_b     46.681454
_cell_length_c     26.539818
_cell_angle_alpha  90.062282
_cell_angle_beta   90.062541
_cell_angle_gamma 120.07526
loop_
_atom_site_label
_atom_site_type_symbol
_atom_site_fract_x
_atom_site_fract_y
_atom_site_fract_z
_atom_type_partial_charge
Co0 Co 0.56448 0.12678 0.16643 0.0
Co1 Co 0.55457 0.11961 0.29689 0.0
O2 O 0.54821 0.10052 0.22872 0.0
C3 C 0.49472 0.07217 0.14141 0.0
O4 O 0.48905 0.06193 0.18822 0.0
C5 C 0.58701 0.08853 0.35301 0.0
O6 O 0.61246 0.1183 0.36036 0.0
O7 O 0.60293 0.15042 0.28398 0.0
O8 O 0.60729 0.15679 0.19986 0.0
H9 H 0.59749 0.21261 0.42281 0.0
H10 H 0.53947 0.05394 0.16748 0.0
O11 O 0.52209 0.09739 0.129 0.0
H12 H 0.65173 0.10478 0.09583 0.0
H13 H 0.5804 0.1444 0.97879 0.0
H14 H 0.60384 0.19871 0.14519 0.0
H15 H 0.62835 0.13947 0.12197 0.0
H16 H 0.56034 0.11113 0.05629 0.0
O17 O 0.56363 0.08458 0.3236 0.0
H18 H 0.58874 0.1878 0.33812 0.0
H19 H 0.53241 0.09153 0.40052 0.0
H20 H 0.62467 0.2329 0.06864 0.0
H21 H 0.5616 0.01834 0.141 0.0
H22 H 0.61293 0.20574 0.98465 0.0
H23 H 0.61819 0.04369 0.10491 0.0
O24 O 0.54676 0.15613 0.18749 0.0
H25 H 0.44937 0.00932 0.2999 0.0
H26 H 0.49989 0.12825 0.33828 0.0
H27 H 0.44035 0.09116 0.35396 0.0
H28 H 0.41474 0.03113 0.33504 0.0
H29 H 0.50862 0.04751 0.28355 0.0
H30 H 0.54074 0.11524 0.48587 0.0
H31 H 0.57348 0.17623 0.49748 0.0
O32 O 0.54488 0.15403 0.2722 0.0
C33 C 0.6196 0.16351 0.24398 0.0
C34 C 0.58328 0.18599 0.41828 0.0
C35 C 0.55143 0.13136 0.45367 0.0
N36 N 0.56046 0.13823 0.36431 0.0
C37 C 0.5783 0.1718 0.3704 0.0
C38 C 0.54691 0.11806 0.40522 0.0
C39 C 0.56979 0.16557 0.46015 0.0
C40 C 0.56386 0.06526 0.1512 0.0
N41 N 0.58229 0.09883 0.14558 0.0
C42 C 0.57639 0.04492 0.13654 0.0
C43 C 0.60815 0.05915 0.11638 0.0
C44 C 0.62698 0.09341 0.1113 0.0
C45 C 0.61362 0.11295 0.12632 0.0
C46 C 0.58564 0.15652 0.01516 0.0
C47 C 0.59871 0.18669 0.10883 0.0
C48 C 0.57421 0.13782 0.05921 0.0
N49 N 0.58086 0.15295 0.10534 0.0
C50 C 0.61053 0.20619 0.06559 0.0
C51 C 0.60392 0.19094 0.01848 0.0
C52 C 0.54176 0.16543 0.23027 0.0
C53 C 0.46022 0.03543 0.30821 0.0
C54 C 0.48879 0.10235 0.32887 0.0
C55 C 0.45512 0.08137 0.33834 0.0
C56 C 0.44079 0.04769 0.32785 0.0
N57 N 0.50768 0.0902 0.3094 0.0
C58 C 0.4938 0.05718 0.29921 0.0
Co59 Co 0.44138 0.5636 0.69884 0.0
Co60 Co 0.43982 0.56139 0.82676 0.0
O61 O 0.45261 0.55047 0.76252 0.0
C62 C 0.41521 0.50206 0.638 0.0
O63 O 0.38679 0.50142 0.63532 0.0
C64 C 0.50169 0.5873 0.88674 0.0
O65 O 0.50234 0.6157 0.88983 0.0
O66 O 0.46488 0.60929 0.80829 0.0
O67 O 0.44503 0.6044 0.72988 0.0
H68 H 0.40042 0.62193 0.9379 0.0
H69 H 0.49636 0.54911 0.70195 0.0
O70 O 0.43844 0.52349 0.66575 0.0
H71 H 0.54651 0.66393 0.64055 0.0
H72 H 0.44658 0.58096 0.51073 0.0
H73 H 0.39616 0.58823 0.66987 0.0
H74 H 0.48701 0.63194 0.66062 0.0
H75 H 0.46179 0.56583 0.59128 0.0
O76 O 0.4801 0.56414 0.85904 0.0
H77 H 0.41561 0.60665 0.85749 0.0
H78 H 0.43805 0.54033 0.93381 0.0
H79 H 0.38038 0.60375 0.59022 0.0
H80 H 0.55591 0.58008 0.68163 0.0
H81 H 0.40562 0.60013 0.50985 0.0
H82 H 0.58137 0.63795 0.65075 0.0
O83 O 0.3936 0.53856 0.7178 0.0
H84 H 0.42342 0.44681 0.84177 0.0
H85 H 0.37163 0.51558 0.86546 0.0
H86 H 0.33976 0.456 0.885 0.0
H87 H 0.36572 0.42121 0.87344 0.0
H88 H 0.45428 0.50644 0.82204 0.0
H89 H 0.42332 0.55506 0.0151 0.0
H90 H 0.40427 0.5961 0.01751 0.0
O91 O 0.39883 0.55794 0.79654 0.0
C92 C 0.45895 0.62144 0.76927 0.0
C93 C 0.40869 0.60402 0.93736 0.0
C94 C 0.42154 0.5665 0.98068 0.0
N95 N 0.42777 0.57265 0.89085 0.0
C96 C 0.41732 0.59525 0.8919 0.0
C97 C 0.42991 0.5583 0.93453 0.0
C98 C 0.41086 0.58952 0.982 0.0
C99 C 0.5072 0.57419 0.68816 0.0
N100 N 0.48814 0.58856 0.68211 0.0
C101 C 0.54096 0.59164 0.67688 0.0
C102 C 0.55524 0.62412 0.6596 0.0
C103 C 0.5357 0.63872 0.65389 0.0
C104 C 0.50202 0.62049 0.66547 0.0
C105 C 0.43538 0.58262 0.54549 0.0
C106 C 0.40727 0.58657 0.63512 0.0
C107 C 0.44385 0.57402 0.59123 0.0
N108 N 0.42979 0.576 0.63532 0.0
C109 C 0.39824 0.59541 0.5901 0.0
C110 C 0.41241 0.59337 0.54502 0.0
C111 C 0.38164 0.54451 0.75703 0.0
C112 C 0.41188 0.46173 0.84712 0.0
C113 C 0.38306 0.5006 0.86002 0.0
C114 C 0.36491 0.46687 0.87131 0.0
C115 C 0.37949 0.44737 0.86484 0.0
N116 N 0.41491 0.51456 0.84296 0.0
C117 C 0.42927 0.49553 0.83616 0.0
Co118 Co 0.8763 0.42645 0.31435 0.0
Co119 Co 0.87749 0.44383 0.18682 0.0
O120 O 0.89937 0.44613 0.25103 0.0
C121 C 0.9047 0.48482 0.38297 0.0
O122 O 0.8748 0.48043 0.38835 0.0
C123 C 0.90582 0.41433 0.11766 0.0
O124 O 0.8757 0.38945 0.1104 0.0
O125 O 0.8467 0.39491 0.19481 0.0
O126 O 0.84351 0.38576 0.27851 0.0
H127 H 0.77952 0.40951 0.0727 0.0
H128 H 0.94857 0.45243 0.30568 0.0
O129 O 0.90984 0.46704 0.35178 0.0
H130 H 0.90042 0.33474 0.35094 0.0
H131 H 0.86961 0.39805 0.49892 0.0
H132 H 0.80591 0.38807 0.34507 0.0
H133 H 0.8648 0.35944 0.34128 0.0
H134 H 0.89824 0.42234 0.41888 0.0
O135 O 0.91104 0.43637 0.15061 0.0
H136 H 0.80771 0.41295 0.15299 0.0
H137 H 0.9014 0.47127 0.08349 0.0
H138 H 0.77624 0.36322 0.42422 0.0
H139 H 0.9852 0.42889 0.31573 0.0
H140 H 0.80815 0.36818 0.50194 0.0
H141 H 0.96114 0.36961 0.3384 0.0
O142 O 0.84649 0.4455 0.30499 0.0
H143 H 0.98769 0.54905 0.19096 0.0
H144 H 0.86811 0.50064 0.1594 0.0
H145 H 0.905 0.56097 0.15172 0.0
H146 H 0.96532 0.58554 0.16728 0.0
H147 H 0.94979 0.4889 0.19903 0.0
H148 H 0.87427 0.4683 1.00238 0.0
H149 H 0.81287 0.43726 0.99661 0.0
O150 O 0.84471 0.45223 0.22129 0.0
C151 C 0.83484 0.37612 0.23331 0.0
C152 C 0.80629 0.423 0.07468 0.0
C153 C 0.85946 0.456 0.03521 0.0
N154 N 0.85617 0.44195 0.12289 0.0
C155 C 0.82239 0.42498 0.12003 0.0
C156 C 0.87469 0.45748 0.08122 0.0
C157 C 0.82501 0.43859 0.03201 0.0
C158 C 0.93793 0.42665 0.31579 0.0
N159 N 0.90457 0.40733 0.32287 0.0
C160 C 0.95879 0.41344 0.32132 0.0
C161 C 0.94527 0.38018 0.334 0.0
C162 C 0.9112 0.36059 0.34099 0.0
C163 C 0.89112 0.37466 0.33518 0.0
C164 C 0.85542 0.39581 0.46536 0.0
C165 C 0.81997 0.39043 0.37873 0.0
C166 C 0.87151 0.40963 0.41996 0.0
N167 N 0.85378 0.40695 0.37739 0.0
C168 C 0.80303 0.37626 0.42344 0.0
C169 C 0.82094 0.37905 0.46702 0.0
C170 C 0.83549 0.45305 0.26611 0.0
C171 C 0.96146 0.53864 0.18408 0.0
C172 C 0.89423 0.51118 0.16688 0.0
C173 C 0.91505 0.54534 0.16215 0.0
C174 C 0.94889 0.5591 0.17083 0.0
N175 N 0.90674 0.49125 0.17977 0.0
C176 C 0.93988 0.50459 0.18849 0.0
Co177 Co 0.44733 0.88347 0.80053 0.0
Co178 Co 0.4477 0.87274 0.67342 0.0
O179 O 0.45796 0.90198 0.73222 0.0
C180 C 0.41713 0.91944 0.84818 0.0
O181 O 0.38979 0.89081 0.85339 0.0
C182 C 0.51145 0.93571 0.64741 0.0
O183 O 0.51411 0.94725 0.69328 0.0
O184 O 0.47427 0.85427 0.70295 0.0
O185 O 0.45412 0.84582 0.78128 0.0
H186 H 0.41334 0.76375 0.58904 0.0
H187 H 0.49869 0.95421 0.78995 0.0
O188 O 0.44104 0.92121 0.8224 0.0
H189 H 0.55514 0.90158 0.87288 0.0
H190 H 0.45197 0.88809 0.99057 0.0
H191 H 0.40456 0.81607 0.84164 0.0
H192 H 0.49605 0.8687 0.85043 0.0
H193 H 0.46659 0.91131 0.90498 0.0
O194 O 0.48783 0.90701 0.63574 0.0
H195 H 0.42519 0.80135 0.66117 0.0
H196 H 0.4498 0.88162 0.56162 0.0
H197 H 0.3895 0.79177 0.92658 0.0
H198 H 0.5577 0.98812 0.81254 0.0
H199 H 0.41319 0.82786 1.00183 0.0
H200 H 0.58636 0.96179 0.85417 0.0
O201 O 0.39982 0.85652 0.78053 0.0
H202 H 0.42352 0.96316 0.627 0.0
H203 H 0.38087 0.84284 0.62604 0.0
H204 H 0.3466 0.8645 0.59097 0.0
H205 H 0.36796 0.9251 0.59095 0.0
H206 H 0.45671 0.94046 0.66235 0.0
H207 H 0.43845 0.84489 0.48839 0.0
H208 H 0.41995 0.78547 0.50184 0.0
O209 O 0.40686 0.83717 0.7071 0.0
C210 C 0.46888 0.84001 0.74571 0.0
C211 C 0.42128 0.78957 0.58267 0.0
C212 C 0.43543 0.83512 0.52619 0.0
N213 N 0.43798 0.84363 0.61573 0.0
C214 C 0.42796 0.81099 0.6234 0.0
C215 C 0.44191 0.85582 0.56784 0.0
C216 C 0.42503 0.80178 0.53377 0.0
C217 C 0.51091 0.94257 0.80827 0.0
N218 N 0.49388 0.90947 0.81863 0.0
C219 C 0.54437 0.9619 0.82088 0.0
C220 C 0.56044 0.94711 0.84419 0.0
C221 C 0.54295 0.91333 0.85463 0.0
C222 C 0.50951 0.89479 0.84151 0.0
C223 C 0.44145 0.87209 0.9581 0.0
C224 C 0.41499 0.83198 0.87414 0.0
C225 C 0.44958 0.88512 0.90949 0.0
N226 N 0.43631 0.86513 0.86821 0.0
C227 C 0.40638 0.81805 0.92218 0.0
C228 C 0.41969 0.83831 0.96438 0.0
C229 C 0.38883 0.83583 0.74416 0.0
C230 C 0.41405 0.93672 0.62638 0.0
C231 C 0.39042 0.86926 0.62618 0.0
C232 C 0.37086 0.88137 0.60625 0.0
C233 C 0.38286 0.91536 0.60626 0.0
N234 N 0.42121 0.89039 0.64529 0.0
C235 C 0.4329 0.92371 0.64606 0.0
Co236 Co 0.55816 0.43339 0.19761 0.0
Co237 Co 0.56916 0.44432 0.32797 0.0
O238 O 0.55248 0.45058 0.26272 0.0
C239 C 0.57576 0.50415 0.17528 0.0
O240 O 0.57408 0.51046 0.22299 0.0
C241 C 0.49875 0.42813 0.34977 0.0
O242 O 0.49256 0.42967 0.30196 0.0
O243 O 0.55181 0.39625 0.31384 0.0
O244 O 0.54566 0.39046 0.22978 0.0
H245 H 0.63043 0.4053 0.4382 0.0
H246 H 0.51344 0.462 0.20344 0.0
O247 O 0.57095 0.47596 0.16139 0.0
H248 H 0.44346 0.34785 0.14181 0.0
H249 H 0.54787 0.41557 0.00955 0.0
H250 H 0.58732 0.39215 0.16815 0.0
H251 H 0.50245 0.36932 0.16069 0.0
H252 H 0.54059 0.43724 0.09032 0.0
O253 O 0.52679 0.43266 0.36393 0.0
H254 H 0.60876 0.41344 0.35804 0.0
H255 H 0.56569 0.46243 0.43508 0.0
H256 H 0.59476 0.3697 0.08826 0.0
H257 H 0.4549 0.44185 0.18382 0.0
H258 H 0.575 0.38141 0.00818 0.0
H259 H 0.41932 0.38428 0.15299 0.0
O260 O 0.606 0.44954 0.21196 0.0
H261 H 0.56365 0.54917 0.34091 0.0
H262 H 0.63375 0.49901 0.36536 0.0
H263 H 0.65652 0.55823 0.38396 0.0
H264 H 0.6213 0.58368 0.3721 0.0
H265 H 0.54221 0.49036 0.32162 0.0
H266 H 0.58661 0.45448 0.5161 0.0
H267 H 0.61936 0.42587 0.51802 0.0
O268 O 0.6119 0.45558 0.296 0.0
C269 C 0.54412 0.37891 0.27363 0.0
C270 C 0.61622 0.41784 0.43786 0.0
C271 C 0.59159 0.4454 0.48158 0.0
N272 N 0.58602 0.43843 0.39176 0.0
C273 C 0.60392 0.42257 0.39255 0.0
C274 C 0.5797 0.4497 0.43557 0.0
C275 C 0.60998 0.42936 0.48263 0.0
C276 C 0.49849 0.43719 0.18916 0.0
N277 N 0.51167 0.41709 0.18275 0.0
C278 C 0.46516 0.42578 0.17851 0.0
C279 C 0.4452 0.39346 0.16134 0.0
C280 C 0.45871 0.37301 0.15513 0.0
C281 C 0.49213 0.38528 0.16613 0.0
C282 C 0.5566 0.41031 0.04419 0.0
C283 C 0.57854 0.39727 0.13351 0.0
C284 C 0.55268 0.42263 0.09005 0.0
N285 N 0.56351 0.41597 0.13401 0.0
C286 C 0.58288 0.38453 0.08836 0.0
C287 C 0.5718 0.39113 0.04345 0.0
C288 C 0.62332 0.45665 0.25215 0.0
C289 C 0.5792 0.53835 0.34647 0.0
C290 C 0.61836 0.50992 0.35954 0.0
C291 C 0.63135 0.54346 0.37042 0.0
C292 C 0.61157 0.55771 0.36384 0.0
N293 N 0.58653 0.491 0.34266 0.0
C294 C 0.56707 0.50488 0.33596 0.0
Co295 Co 0.1279 0.56804 0.68501 0.0
Co296 Co 0.12756 0.56356 0.81359 0.0
O297 O 0.10344 0.55394 0.74914 0.0
C298 C 0.06572 0.57228 0.66817 0.0
O299 O 0.05705 0.56577 0.71561 0.0
C300 C 0.06421 0.49784 0.82957 0.0
O301 O 0.0551 0.49658 0.78248 0.0
O302 O 0.14986 0.53924 0.78971 0.0
O303 O 0.1642 0.56159 0.71296 0.0
H304 H 0.22935 0.59964 0.9196 0.0
H305 H 0.05766 0.51242 0.68446 0.0
O306 O 0.09279 0.57497 0.65267 0.0
H307 H 0.12235 0.4668 0.60768 0.0
H308 H 0.14062 0.57472 0.49611 0.0
H309 H 0.19858 0.61245 0.6591 0.0
H310 H 0.14996 0.52471 0.63668 0.0
H311 H 0.10973 0.55557 0.57586 0.0
O312 O 0.09168 0.52167 0.8453 0.0
H313 H 0.19786 0.5882 0.84035 0.0
H314 H 0.10915 0.55792 0.92249 0.0
H315 H 0.23042 0.63196 0.58026 0.0
H316 H 0.02905 0.45468 0.65527 0.0
H317 H 0.20144 0.61308 0.49796 0.0
H318 H 0.06141 0.43136 0.6166 0.0
O319 O 0.15127 0.61473 0.70909 0.0
H320 H 0.0307 0.58122 0.84225 0.0
H321 H 0.15118 0.62916 0.8624 0.0
H322 H 0.12494 0.66073 0.8911 0.0
H323 H 0.06422 0.63673 0.88137 0.0
H324 H 0.05795 0.55078 0.81341 0.0
H325 H 0.13967 0.56877 1.00264 0.0
H326 H 0.20024 0.58994 1.00153 0.0
O327 O 0.16469 0.60602 0.78616 0.0
C328 C 0.16745 0.54607 0.75002 0.0
C329 C 0.20298 0.59051 0.92059 0.0
C330 C 0.15264 0.57315 0.96718 0.0
N331 N 0.15173 0.57262 0.8767 0.0
C332 C 0.18501 0.58405 0.87581 0.0
C333 C 0.13548 0.56697 0.92165 0.0
C334 C 0.18663 0.58503 0.96653 0.0
C335 C 0.07197 0.50281 0.66718 0.0
N336 N 0.10546 0.52228 0.66189 0.0
C337 C 0.0556 0.46991 0.65093 0.0
C338 C 0.07376 0.45682 0.62932 0.0
C339 C 0.10794 0.47668 0.62434 0.0
C340 C 0.12345 0.50948 0.64099 0.0
C341 C 0.15354 0.58308 0.53172 0.0
C342 C 0.18577 0.60397 0.62349 0.0
C343 C 0.13617 0.57239 0.57704 0.0
N344 N 0.15235 0.5827 0.6222 0.0
C345 C 0.20395 0.61517 0.57894 0.0
C346 C 0.18766 0.60459 0.53279 0.0
C347 C 0.16881 0.62504 0.74902 0.0
C348 C 0.05716 0.59189 0.84694 0.0
C349 C 0.12476 0.61851 0.85775 0.0
C350 C 0.11003 0.63653 0.87424 0.0
C351 C 0.07597 0.62304 0.8688 0.0
N352 N 0.10613 0.58783 0.83659 0.0
C353 C 0.07275 0.5746 0.83089 0.0
C354 C 0.551 0.22022 0.20059 0.0
C355 C 0.53473 0.19296 0.23281 0.0
C356 C 0.54949 0.24917 0.20897 0.0
C357 C 0.5306 0.25049 0.2498 0.0
C358 C 0.51252 0.22229 0.28048 0.0
C359 C 0.5151 0.19402 0.27193 0.0
C360 C 0.56943 0.27888 0.1757 0.0
C361 C 0.49137 0.22235 0.32346 0.0
C362 C 0.55699 0.33593 0.30268 0.0
C363 C 0.53628 0.34419 0.27597 0.0
C364 C 0.55487 0.3051 0.29545 0.0
C365 C 0.53096 0.28186 0.2616 0.0
C366 C 0.50853 0.28934 0.23724 0.0
C367 C 0.51176 0.32061 0.24422 0.0
C368 C 0.57953 0.29823 0.32166 0.0
C369 C 0.4821 0.26493 0.20203 0.0
H370 H 0.56642 0.21964 0.1706 0.0
H371 H 0.5022 0.17292 0.29661 0.0
H372 H 0.55324 0.28751 0.15919 0.0
H373 H 0.58855 0.29956 0.19861 0.0
H374 H 0.58193 0.27347 0.14458 0.0
H375 H 0.47644 0.19746 0.34065 0.0
H376 H 0.50739 0.23985 0.35311 0.0
H377 H 0.47439 0.23095 0.3102 0.0
H378 H 0.57631 0.35437 0.32654 0.0
H379 H 0.49572 0.32704 0.2236 0.0
H380 H 0.59559 0.29579 0.29319 0.0
H381 H 0.56651 0.27447 0.34244 0.0
H382 H 0.59551 0.31819 0.34854 0.0
H383 H 0.49382 0.26189 0.16765 0.0
H384 H 0.46443 0.2731 0.19052 0.0
H385 H 0.46807 0.24028 0.22017 0.0
C386 C 0.34184 0.56255 0.78153 0.0
C387 C 0.34805 0.54015 0.75525 0.0
C388 C 0.31069 0.56004 0.78001 0.0
C389 C 0.28473 0.53396 0.75246 0.0
C390 C 0.29059 0.51076 0.72669 0.0
C391 C 0.32243 0.51444 0.72772 0.0
C392 C 0.3059 0.58595 0.80674 0.0
C393 C 0.2633 0.48224 0.69785 0.0
C394 C 0.19996 0.52118 0.78631 0.0
C395 C 0.19531 0.5393 0.74824 0.0
C396 C 0.22805 0.51741 0.78652 0.0
C397 C 0.25228 0.53265 0.74836 0.0
C398 C 0.24711 0.54992 0.70894 0.0
C399 C 0.21861 0.55273 0.70909 0.0
C400 C 0.23244 0.49827 0.82868 0.0
C401 C 0.27261 0.56717 0.66808 0.0
H402 H 0.36172 0.58278 0.8023 0.0
H403 H 0.32719 0.49703 0.7076 0.0
H404 H 0.2989 0.5992 0.77906 0.0
H405 H 0.28542 0.57404 0.83436 0.0
H406 H 0.32858 0.60444 0.82691 0.0
H407 H 0.27119 0.46502 0.683 0.0
H408 H 0.24142 0.4682 0.72251 0.0
H409 H 0.25529 0.49177 0.66575 0.0
H410 H 0.18203 0.51049 0.81649 0.0
H411 H 0.21535 0.56668 0.67928 0.0
H412 H 0.25263 0.51562 0.85407 0.0
H413 H 0.2397 0.4807 0.81336 0.0
H414 H 0.20953 0.48425 0.85135 0.0
H415 H 0.29556 0.58765 0.68488 0.0
H416 H 0.2638 0.57762 0.63826 0.0
H417 H 0.27925 0.54978 0.65029 0.0
C418 C 0.67702 0.19281 0.2102 0.0
C419 C 0.65459 0.19007 0.24765 0.0
C420 C 0.70845 0.22112 0.20647 0.0
C421 C 0.71747 0.24767 0.24045 0.0
C422 C 0.69551 0.24443 0.27983 0.0
C423 C 0.6644 0.21545 0.28328 0.0
C424 C 0.73141 0.22317 0.16481 0.0
C425 C 0.7041 0.2723 0.31659 0.0
C426 C 0.80663 0.31656 0.25657 0.0
C427 C 0.80737 0.34181 0.22707 0.0
C428 C 0.77799 0.2853 0.2596 0.0
C429 C 0.74913 0.27942 0.23338 0.0
C430 C 0.75016 0.30443 0.20183 0.0
C431 C 0.77945 0.33527 0.19863 0.0
C432 C 0.77825 0.25905 0.29246 0.0
C433 C 0.7198 0.29927 0.17365 0.0
H434 H 0.66959 0.17309 0.18286 0.0
H435 H 0.64701 0.21357 0.3119 0.0
H436 H 0.73422 0.24211 0.13697 0.0
H437 H 0.75639 0.23096 0.18019 0.0
H438 H 0.72207 0.19917 0.14484 0.0
H439 H 0.68505 0.26531 0.3464 0.0
H440 H 0.7283 0.28001 0.33481 0.0
H441 H 0.70651 0.29411 0.29608 0.0
H442 H 0.82828 0.32156 0.27841 0.0
H443 H 0.77981 0.35491 0.17644 0.0
H444 H 0.76836 0.23542 0.27137 0.0
H445 H 0.76195 0.25431 0.32551 0.0
H446 H 0.80351 0.26642 0.30628 0.0
H447 H 0.70979 0.27671 0.14989 0.0
H448 H 0.72504 0.32066 0.14922 0.0
H449 H 0.70019 0.29546 0.20094 0.0
C450 C 0.48867 0.80199 0.71416 0.0
C451 C 0.47577 0.81249 0.75313 0.0
C452 C 0.49076 0.7731 0.71919 0.0
C453 C 0.47928 0.7541 0.76391 0.0
C454 C 0.46801 0.76558 0.80433 0.0
C455 C 0.46667 0.79471 0.79863 0.0
C456 C 0.50349 0.76193 0.67555 0.0
C457 C 0.45501 0.74587 0.85235 0.0
C458 C 0.44023 0.66124 0.74972 0.0
C459 C 0.46436 0.65534 0.77066 0.0
C460 C 0.44482 0.69321 0.74768 0.0
C461 C 0.4747 0.72019 0.76596 0.0
C462 C 0.49926 0.71443 0.78722 0.0
C463 C 0.49358 0.68185 0.78998 0.0
C464 C 0.41753 0.69803 0.72611 0.0
C465 C 0.53165 0.74268 0.80616 0.0
H466 H 0.496 0.81562 0.67903 0.0
H467 H 0.45696 0.80265 0.82932 0.0
H468 H 0.52101 0.75407 0.68902 0.0
H469 H 0.48249 0.74023 0.65703 0.0
H470 H 0.51612 0.78173 0.64695 0.0
H471 H 0.45036 0.75983 0.88206 0.0
H472 H 0.43141 0.72273 0.84431 0.0
H473 H 0.47269 0.73864 0.86723 0.0
H474 H 0.41746 0.64061 0.73521 0.0
H475 H 0.51231 0.67722 0.80575 0.0
H476 H 0.42675 0.71447 0.69273 0.0
H477 H 0.40965 0.71023 0.75435 0.0
H478 H 0.39552 0.67427 0.71464 0.0
H479 H 0.54456 0.76041 0.77508 0.0
H480 H 0.54826 0.73409 0.82127 0.0
H481 H 0.52705 0.75639 0.83624 0.0
C482 C 0.66622 0.44552 0.21604 0.0
C483 C 0.65776 0.4633 0.24954 0.0
C484 C 0.69678 0.44663 0.22018 0.0
C485 C 0.71963 0.46655 0.25801 0.0
C486 C 0.71195 0.48604 0.28993 0.0
C487 C 0.68099 0.48392 0.28563 0.0
C488 C 0.70393 0.42521 0.18571 0.0
C489 C 0.73593 0.50824 0.32983 0.0
C490 C 0.7811 0.44087 0.30199 0.0
C491 C 0.80846 0.46059 0.27146 0.0
C492 C 0.75219 0.44306 0.29886 0.0
C493 C 0.75102 0.46605 0.26522 0.0
C494 C 0.77941 0.48749 0.23682 0.0
C495 C 0.80765 0.48425 0.23992 0.0
C496 C 0.72231 0.41953 0.32945 0.0
C497 C 0.77953 0.51292 0.20158 0.0
H498 H 0.64822 0.42927 0.18851 0.0
H499 H 0.67463 0.49786 0.31139 0.0
H500 H 0.72772 0.4405 0.16576 0.0
H501 H 0.7065 0.40664 0.20833 0.0
H502 H 0.68408 0.41196 0.15727 0.0
H503 H 0.72743 0.52398 0.34848 0.0
H504 H 0.73893 0.49295 0.35901 0.0
H505 H 0.76067 0.52449 0.31306 0.0
H506 H 0.78152 0.42232 0.32597 0.0
H507 H 0.82889 0.49973 0.21661 0.0
H508 H 0.70196 0.40276 0.30375 0.0
H509 H 0.7132 0.43344 0.35178 0.0
H510 H 0.72773 0.40424 0.35553 0.0
H511 H 0.76235 0.50025 0.1697 0.0
H512 H 0.80456 0.52981 0.18606 0.0
H513 H 0.77063 0.52793 0.22139 0.0
C514 C 0.34781 0.77748 0.72241 0.0
C515 C 0.35476 0.80715 0.74618 0.0
C516 C 0.31599 0.74965 0.72348 0.0
C517 C 0.29013 0.75162 0.74802 0.0
C518 C 0.29678 0.78167 0.7714 0.0
C519 C 0.3292 0.80902 0.77081 0.0
C520 C 0.31029 0.71788 0.69927 0.0
C521 C 0.26967 0.78486 0.79705 0.0
C522 C 0.20448 0.68171 0.71145 0.0
C523 C 0.19767 0.65925 0.75097 0.0
C524 C 0.23363 0.71284 0.71139 0.0
C525 C 0.25674 0.72144 0.75132 0.0
C526 C 0.24939 0.69942 0.79216 0.0
C527 C 0.2199 0.66884 0.79171 0.0
C528 C 0.24036 0.73594 0.66758 0.0
C529 C 0.27355 0.70725 0.83504 0.0
H530 H 0.36752 0.77573 0.70373 0.0
H531 H 0.33444 0.83199 0.78889 0.0
H532 H 0.30158 0.69801 0.72801 0.0
H533 H 0.29069 0.70965 0.67008 0.0
H534 H 0.33305 0.72057 0.68147 0.0
H535 H 0.27845 0.81041 0.8109 0.0
H536 H 0.24877 0.77784 0.77053 0.0
H537 H 0.25989 0.76763 0.82946 0.0
H538 H 0.18744 0.6747 0.67996 0.0
H539 H 0.21498 0.6519 0.82269 0.0
H540 H 0.26072 0.73725 0.64434 0.0
H541 H 0.24848 0.76134 0.68133 0.0
H542 H 0.21823 0.72764 0.64315 0.0
H543 H 0.2963 0.70812 0.82068 0.0
H544 H 0.2631 0.68856 0.86564 0.0
H545 H 0.28103 0.73193 0.85123 0.0
C546 C 0.39849 0.94696 0.91116 0.0
C547 C 0.42414 0.94669 0.88398 0.0
C548 C 0.40541 0.96897 0.95172 0.0
C549 C 0.4387 0.99039 0.96643 0.0
C550 C 0.46466 0.99123 0.93767 0.0
C551 C 0.45706 0.96988 0.89632 0.0
C552 C 0.37708 0.96828 0.98011 0.0
C553 C 0.50053 0.01315 0.95248 0.0
C554 C 0.47017 0.06385 0.05536 0.0
C555 C 0.47378 0.05025 0.10035 0.0
C556 C 0.4561 0.04402 0.01238 0.0
C557 C 0.44676 0.01011 0.01392 0.0
C558 C 0.449 0.996 0.06001 0.0
C559 C 0.46198 0.01617 0.10292 0.0
C560 C 0.45304 0.05981 0.96463 0.0
C561 C 0.4402 0.96019 0.06307 0.0
H562 H 0.37299 0.92929 0.90171 0.0
H563 H 0.47713 0.96992 0.87577 0.0
H564 H 0.37434 0.95634 0.01728 0.0
H565 H 0.38211 0.99383 0.98717 0.0
H566 H 0.35328 0.95433 0.95938 0.0
H567 H 0.51777 0.01138 0.92552 0.0
H568 H 0.50671 0.03935 0.95468 0.0
H569 H 0.50481 0.00602 0.99044 0.0
H570 H 0.47936 0.09025 0.05332 0.0
H571 H 0.46525 0.00571 0.13743 0.0
H572 H 0.42891 0.04357 0.94594 0.0
H573 H 0.47283 0.06335 0.93795 0.0
H574 H 0.45539 0.08433 0.97199 0.0
H575 H 0.41493 0.94379 0.04806 0.0
H576 H 0.44138 0.95251 0.10227 0.0
H577 H 0.4576 0.95632 0.03948 0.0
C578 C 0.46259 0.44903 0.38276 0.0
C579 C 0.47686 0.42908 0.38909 0.0
C580 C 0.44856 0.45664 0.42384 0.0
C581 C 0.44799 0.44316 0.47196 0.0
C582 C 0.45985 0.42073 0.47736 0.0
C583 C 0.47471 0.41445 0.43608 0.0
C584 C 0.43697 0.4813 0.41661 0.0
C585 C 0.45882 0.405 0.5275 0.0
C586 C 0.45642 0.49656 0.58527 0.0
C587 C 0.42335 0.484 0.5998 0.0
C588 C 0.46464 0.48329 0.54405 0.0
C589 C 0.43929 0.45598 0.51749 0.0
C590 C 0.40599 0.44202 0.53357 0.0
C591 C 0.39834 0.45656 0.57404 0.0
C592 C 0.50041 0.49945 0.52767 0.0
C593 C 0.37844 0.41221 0.50736 0.0
H594 H 0.46468 0.46077 0.34665 0.0
H595 H 0.48579 0.39902 0.44101 0.0
H596 H 0.41199 0.47181 0.43302 0.0
H597 H 0.45406 0.50463 0.43665 0.0
H598 H 0.43617 0.48709 0.37622 0.0
H599 H 0.46345 0.38397 0.52348 0.0
H600 H 0.47803 0.42369 0.55282 0.0
H601 H 0.43446 0.39599 0.54596 0.0
H602 H 0.47594 0.51794 0.60456 0.0
H603 H 0.37275 0.4467 0.58514 0.0
H604 H 0.50283 0.50838 0.48831 0.0
H605 H 0.50897 0.48118 0.5284 0.0
H606 H 0.51707 0.52073 0.55208 0.0
H607 H 0.37525 0.41897 0.46855 0.0
H608 H 0.35449 0.4023 0.52755 0.0
H609 H 0.38477 0.39232 0.50415 0.0
C610 C 0.00683 0.46887 0.86419 0.0
C611 C 0.03988 0.47654 0.86791 0.0
C612 C 0.98507 0.45498 0.90514 0.0
C613 C 0.9964 0.44767 0.95029 0.0
C614 C 0.02906 0.45308 0.95271 0.0
C615 C 0.0506 0.46804 0.91184 0.0
C616 C 0.95077 0.45047 0.90133 0.0
C617 C 0.04183 0.4447 0.99941 0.0
C618 C 0.95697 0.45445 0.0715 0.0
C619 C 0.93175 0.42161 0.07934 0.0
C620 C 0.97841 0.46307 0.03014 0.0
C621 C 0.9754 0.43812 0.99651 0.0
C622 C 0.95133 0.40464 0.0059 0.0
C623 C 0.92942 0.39684 0.04675 0.0
C624 C 0.00321 0.49917 0.0211 0.0
C625 C 0.94812 0.37721 0.972 0.0
H626 H 0.99862 0.47588 0.83058 0.0
H627 H 0.07618 0.474 0.9148 0.0
H628 H 0.93187 0.42501 0.9125 0.0
H629 H 0.94864 0.46779 0.9277 0.0
H630 H 0.94499 0.45521 0.86267 0.0
H631 H 0.06554 0.44521 0.99235 0.0
H632 H 0.04602 0.46286 0.02958 0.0
H633 H 0.02337 0.41983 0.0136 0.0
H634 H 0.9589 0.47386 0.09617 0.0
H635 H 0.91008 0.37141 0.05265 0.0
H636 H 0.99807 0.50699 0.98431 0.0
H637 H 0.02862 0.50299 0.01927 0.0
H638 H 0.00254 0.5155 0.05101 0.0
H639 H 0.93864 0.37916 0.93459 0.0
H640 H 0.93101 0.35232 0.98775 0.0
H641 H 0.97272 0.37951 0.96597 0.0
C642 C 0.54792 0.03662 0.39864 0.0
C643 C 0.58059 0.06181 0.38946 0.0
C644 C 0.54013 0.01533 0.44004 0.0
C645 C 0.56577 0.01839 0.47218 0.0
C646 C 0.59909 0.04199 0.46081 0.0
C647 C 0.60607 0.0638 0.42006 0.0
C648 C 0.50418 0.99105 0.45121 0.0
C649 C 0.62723 0.04516 0.49293 0.0
C650 C 0.53913 0.99156 0.60739 0.0
C651 C 0.53088 0.95828 0.60592 0.0
C652 C 0.55169 0.01178 0.56457 0.0
C653 C 0.55713 0.99869 0.51969 0.0
C654 C 0.55105 0.96577 0.51923 0.0
C655 C 0.53739 0.94575 0.56205 0.0
C656 C 0.55697 0.04645 0.5664 0.0
C657 C 0.55755 0.95119 0.47283 0.0
H658 H 0.52797 0.03484 0.37543 0.0
H659 H 0.6314 0.08304 0.41308 0.0
H660 H 0.50016 0.96562 0.45459 0.0
H661 H 0.49727 0.9974 0.48782 0.0
H662 H 0.48731 0.99104 0.42164 0.0
H663 H 0.65167 0.06094 0.47483 0.0
H664 H 0.62715 0.05634 0.52979 0.0
H665 H 0.62417 0.0204 0.50053 0.0
H666 H 0.53372 0.00122 0.64098 0.0
H667 H 0.53105 0.92001 0.56082 0.0
H668 H 0.53958 0.04839 0.53996 0.0
H669 H 0.58243 0.06463 0.5541 0.0
H670 H 0.553 0.0534 0.60471 0.0
H671 H 0.53857 0.94645 0.44377 0.0
H672 H 0.55675 0.92747 0.48109 0.0
H673 H 0.58207 0.96881 0.45656 0.0
C674 C 0.50753 0.54599 0.93876 0.0
C675 C 0.51992 0.57909 0.92454 0.0
C676 C 0.52088 0.53774 0.97986 0.0
C677 C 0.54808 0.56309 0.00661 0.0
C678 C 0.56194 0.5964 0.99074 0.0
C679 C 0.54734 0.60408 0.95038 0.0
C680 C 0.50484 0.50194 0.996 0.0
C681 C 0.59164 0.62396 0.01714 0.0
C682 C 0.55471 0.53999 0.14162 0.0
C683 C 0.57488 0.52592 0.13571 0.0
C684 C 0.54708 0.55381 0.10029 0.0
C685 C 0.56076 0.55441 0.05234 0.0
C686 C 0.58337 0.54272 0.04734 0.0
C687 C 0.58966 0.52804 0.08886 0.0
C688 C 0.52221 0.56518 0.1071 0.0
C689 C 0.59933 0.54382 0.9974 0.0
H690 H 0.48619 0.52649 0.91938 0.0
H691 H 0.55709 0.62969 0.93952 0.0
H692 H 0.52325 0.49356 0.99557 0.0
H693 H 0.49563 0.49935 0.03523 0.0
H694 H 0.48375 0.48525 0.97129 0.0
H695 H 0.60164 0.6479 0.99689 0.0
H696 H 0.5847 0.62718 0.05581 0.0
H697 H 0.61152 0.61764 0.02071 0.0
H698 H 0.54284 0.53789 0.17761 0.0
H699 H 0.60522 0.51708 0.08424 0.0
H700 H 0.49907 0.5481 0.08664 0.0
H701 H 0.53171 0.59021 0.09088 0.0
H702 H 0.51608 0.56579 0.14739 0.0
H703 H 0.58081 0.52452 0.97201 0.0
H704 H 0.62046 0.53936 1.00174 0.0
H705 H 0.60828 0.56813 0.97884 0.0
C706 C 0.00764 0.54407 0.63588 0.0
C707 C 0.04102 0.56812 0.62955 0.0
C708 C 0.98529 0.53431 0.59528 0.0
C709 C 0.99643 0.54962 0.54763 0.0
C710 C 0.02949 0.57579 0.54228 0.0
C711 C 0.05153 0.58435 0.58307 0.0
C712 C 0.95049 0.5058 0.60241 0.0
C713 C 0.04216 0.59345 0.49267 0.0
C714 C 0.95473 0.49611 0.4327 0.0
C715 C 0.93057 0.50455 0.42093 0.0
C716 C 0.97643 0.51086 0.47347 0.0
C717 C 0.97477 0.53553 0.50234 0.0
C718 C 0.95164 0.54546 0.489 0.0
C719 C 0.9294 0.52944 0.44896 0.0
C720 C 1.00019 0.49894 0.48693 0.0
C721 C 0.9499 0.57247 0.51769 0.0
H722 H 0.99951 0.53114 0.67151 0.0
H723 H 0.07735 0.60297 0.57807 0.0
H724 H 0.93217 0.5123 0.588 0.0
H725 H 0.94725 0.48411 0.58046 0.0
H726 H 0.94487 0.49843 0.64257 0.0
H727 H 0.06641 0.61659 0.49693 0.0
H728 H 0.04528 0.577 0.4658 0.0
H729 H 0.02413 0.59961 0.47586 0.0
H730 H 0.95567 0.47672 0.41156 0.0
H731 H 0.91085 0.53614 0.43994 0.0
H732 H 0.99513 0.48878 0.52576 0.0
H733 H 0.02602 0.51991 0.48629 0.0
H734 H 0.99828 0.47946 0.46076 0.0
H735 H 0.94098 0.56398 0.55654 0.0
H736 H 0.93302 0.57968 0.49943 0.0
H737 H 0.97492 0.59469 0.5208 0.0
loop_
_geom_bond_atom_site_label_1
_geom_bond_atom_site_label_2
_geom_bond_distance
_geom_bond_site_symmetry_2
_ccdc_geom_bond_type
Co0 O2 2.143 . S
Co0 O8 2.074 . S
Co0 O11 2.093 . S
Co0 O24 2.097 . S
Co0 N41 2.151 . S
Co0 N49 2.214 . S
Co1 O2 2.160 . S
Co1 O7 2.058 . S
Co1 O17 2.057 . S
Co1 O32 2.037 . S
Co1 N36 2.145 . S
Co1 N57 2.257 . S
O2 Co0 2.143 . S
O2 Co1 2.160 . S
C3 O4 1.278 . S
C3 O11 1.224 . S
O4 C3 1.278 . S
C5 O6 1.245 . S
C5 O17 1.232 . S
O6 C5 1.245 . S
O7 Co1 2.058 . S
O7 C33 1.269 . S
O8 Co0 2.074 . S
O8 C33 1.257 . S
H9 C34 0.930 . S
H10 C40 0.930 . S
O11 Co0 2.093 . S
O11 C3 1.224 . S
H12 C44 0.929 . S
H13 C46 0.930 . S
H14 C47 0.930 . S
H15 C45 0.929 . S
H16 C48 0.928 . S
O17 Co1 2.057 . S
O17 C5 1.232 . S
H18 C37 0.929 . S
H19 C38 0.929 . S
H20 C50 0.931 . S
H21 C42 0.929 . S
H22 C51 0.930 . S
H23 C43 0.931 . S
O24 Co0 2.097 . S
O24 C52 1.214 . S
H25 C53 0.929 . S
H26 C54 0.929 . S
H27 C55 0.930 . S
H28 C56 0.929 . S
H29 C58 0.930 . S
H30 C35 0.930 . S
H31 C39 0.930 . S
O32 Co1 2.037 . S
O32 C52 1.234 . S
C33 O7 1.269 . S
C33 O8 1.257 . S
C34 H9 0.930 . S
C34 C37 1.388 . S
C34 C39 1.418 . S
C35 H30 0.930 . S
C35 C38 1.404 . S
C35 C39 1.353 . S
N36 Co1 2.145 . S
N36 C37 1.397 . S
N36 C38 1.334 . S
C37 H18 0.929 . S
C37 C34 1.388 . S
C37 N36 1.397 . S
C38 H19 0.929 . S
C38 C35 1.404 . S
C38 N36 1.334 . S
C39 H31 0.930 . S
C39 C34 1.418 . S
C39 C35 1.353 . S
C40 H10 0.930 . S
C40 N41 1.330 . S
C40 C42 1.446 . S
N41 Co0 2.151 . S
N41 C40 1.330 . S
N41 C45 1.418 . S
C42 H21 0.929 . S
C42 C40 1.446 . S
C42 C43 1.332 . S
C43 H23 0.931 . S
C43 C42 1.332 . S
C43 C44 1.267 . S
C44 H12 0.929 . S
C44 C43 1.267 . S
C44 C45 1.251 . S
C45 H15 0.929 . S
C45 N41 1.418 . S
C45 C44 1.251 . S
C46 H13 0.930 . S
C46 C48 1.406 . S
C46 C51 1.261 . S
C47 H14 0.930 . S
C47 N49 1.325 . S
C47 C50 1.357 . S
C48 H16 0.928 . S
C48 C46 1.406 . S
C48 N49 1.261 . S
N49 Co0 2.214 . S
N49 C47 1.325 . S
N49 C48 1.261 . S
C50 H20 0.931 . S
C50 C47 1.357 . S
C50 C51 1.312 . S
C51 H22 0.930 . S
C51 C46 1.261 . S
C51 C50 1.312 . S
C52 O24 1.214 . S
C52 O32 1.234 . S
C53 H25 0.929 . S
C53 C56 1.391 . S
C53 C58 1.391 . S
C54 H26 0.929 . S
C54 C55 1.390 . S
C54 N57 1.391 . S
C55 H27 0.930 . S
C55 C54 1.390 . S
C55 C56 1.392 . S
C56 H28 0.929 . S
C56 C53 1.391 . S
C56 C55 1.392 . S
N57 Co1 2.257 . S
N57 C54 1.391 . S
N57 C58 1.388 . S
C58 H29 0.930 . S
C58 C53 1.391 . S
C58 N57 1.388 . S
Co59 O61 2.143 . S
Co59 O67 2.074 . S
Co59 O70 2.093 . S
Co59 O83 2.097 . S
Co59 N100 2.151 . S
Co59 N108 2.214 . S
Co60 O61 2.160 . S
Co60 O66 2.058 . S
Co60 O76 2.057 . S
Co60 O91 2.037 . S
Co60 N95 2.145 . S
Co60 N116 2.257 . S
O61 Co59 2.143 . S
O61 Co60 2.160 . S
C62 O63 1.278 . S
C62 O70 1.224 . S
O63 C62 1.278 . S
C64 O65 1.245 . S
C64 O76 1.232 . S
O65 C64 1.245 . S
O66 Co60 2.058 . S
O66 C92 1.269 . S
O67 Co59 2.074 . S
O67 C92 1.257 . S
H68 C93 0.930 . S
H69 C99 0.930 . S
O70 Co59 2.093 . S
O70 C62 1.224 . S
H71 C103 0.929 . S
H72 C105 0.930 . S
H73 C106 0.930 . S
H74 C104 0.929 . S
H75 C107 0.928 . S
O76 Co60 2.057 . S
O76 C64 1.232 . S
H77 C96 0.929 . S
H78 C97 0.929 . S
H79 C109 0.931 . S
H80 C101 0.929 . S
H81 C110 0.930 . S
H82 C102 0.931 . S
O83 Co59 2.097 . S
O83 C111 1.214 . S
H84 C112 0.929 . S
H85 C113 0.929 . S
H86 C114 0.930 . S
H87 C115 0.929 . S
H88 C117 0.930 . S
H89 C94 0.930 . S
H90 C98 0.930 . S
O91 Co60 2.037 . S
O91 C111 1.234 . S
C92 O66 1.269 . S
C92 O67 1.257 . S
C93 H68 0.930 . S
C93 C96 1.388 . S
C93 C98 1.418 . S
C94 H89 0.930 . S
C94 C97 1.404 . S
C94 C98 1.353 . S
N95 Co60 2.145 . S
N95 C96 1.397 . S
N95 C97 1.334 . S
C96 H77 0.929 . S
C96 C93 1.388 . S
C96 N95 1.397 . S
C97 H78 0.929 . S
C97 C94 1.404 . S
C97 N95 1.334 . S
C98 H90 0.930 . S
C98 C93 1.418 . S
C98 C94 1.353 . S
C99 H69 0.930 . S
C99 N100 1.330 . S
C99 C101 1.446 . S
N100 Co59 2.151 . S
N100 C99 1.330 . S
N100 C104 1.418 . S
C101 H80 0.929 . S
C101 C99 1.446 . S
C101 C102 1.332 . S
C102 H82 0.931 . S
C102 C101 1.332 . S
C102 C103 1.267 . S
C103 H71 0.929 . S
C103 C102 1.267 . S
C103 C104 1.251 . S
C104 H74 0.929 . S
C104 N100 1.418 . S
C104 C103 1.251 . S
C105 H72 0.930 . S
C105 C107 1.406 . S
C105 C110 1.261 . S
C106 H73 0.930 . S
C106 N108 1.325 . S
C106 C109 1.357 . S
C107 H75 0.928 . S
C107 C105 1.406 . S
C107 N108 1.261 . S
N108 Co59 2.214 . S
N108 C106 1.325 . S
N108 C107 1.261 . S
C109 H79 0.931 . S
C109 C106 1.357 . S
C109 C110 1.312 . S
C110 H81 0.930 . S
C110 C105 1.261 . S
C110 C109 1.312 . S
C111 O83 1.214 . S
C111 O91 1.234 . S
C112 H84 0.929 . S
C112 C115 1.391 . S
C112 C117 1.391 . S
C113 H85 0.929 . S
C113 C114 1.390 . S
C113 N116 1.391 . S
C114 H86 0.930 . S
C114 C113 1.390 . S
C114 C115 1.392 . S
C115 H87 0.929 . S
C115 C112 1.391 . S
C115 C114 1.392 . S
N116 Co60 2.257 . S
N116 C113 1.391 . S
N116 C117 1.388 . S
C117 H88 0.930 . S
C117 C112 1.391 . S
C117 N116 1.388 . S
Co118 O120 2.143 . S
Co118 O126 2.074 . S
Co118 O129 2.093 . S
Co118 O142 2.097 . S
Co118 N159 2.151 . S
Co118 N167 2.214 . S
Co119 O120 2.160 . S
Co119 O125 2.058 . S
Co119 O135 2.057 . S
Co119 O150 2.037 . S
Co119 N154 2.145 . S
Co119 N175 2.257 . S
O120 Co118 2.143 . S
O120 Co119 2.160 . S
C121 O122 1.278 . S
C121 O129 1.224 . S
O122 C121 1.278 . S
C123 O124 1.245 . S
C123 O135 1.232 . S
O124 C123 1.245 . S
O125 Co119 2.058 . S
O125 C151 1.269 . S
O126 Co118 2.074 . S
O126 C151 1.257 . S
H127 C152 0.930 . S
H128 C158 0.930 . S
O129 Co118 2.093 . S
O129 C121 1.224 . S
H130 C162 0.929 . S
H131 C164 0.930 . S
H132 C165 0.930 . S
H133 C163 0.929 . S
H134 C166 0.928 . S
O135 Co119 2.057 . S
O135 C123 1.232 . S
H136 C155 0.929 . S
H137 C156 0.929 . S
H138 C168 0.931 . S
H139 C160 0.929 . S
H140 C169 0.930 . S
H141 C161 0.931 . S
O142 Co118 2.097 . S
O142 C170 1.214 . S
H143 C171 0.929 . S
H144 C172 0.929 . S
H145 C173 0.930 . S
H146 C174 0.929 . S
H147 C176 0.930 . S
H148 C153 0.930 . S
H149 C157 0.930 . S
O150 Co119 2.037 . S
O150 C170 1.234 . S
C151 O125 1.269 . S
C151 O126 1.257 . S
C152 H127 0.930 . S
C152 C155 1.388 . S
C152 C157 1.418 . S
C153 H148 0.930 . S
C153 C156 1.404 . S
C153 C157 1.353 . S
N154 Co119 2.145 . S
N154 C155 1.397 . S
N154 C156 1.334 . S
C155 H136 0.929 . S
C155 C152 1.388 . S
C155 N154 1.397 . S
C156 H137 0.929 . S
C156 C153 1.404 . S
C156 N154 1.334 . S
C157 H149 0.930 . S
C157 C152 1.418 . S
C157 C153 1.353 . S
C158 H128 0.930 . S
C158 N159 1.330 . S
C158 C160 1.446 . S
N159 Co118 2.151 . S
N159 C158 1.330 . S
N159 C163 1.418 . S
C160 H139 0.929 . S
C160 C158 1.446 . S
C160 C161 1.332 . S
C161 H141 0.931 . S
C161 C160 1.332 . S
C161 C162 1.267 . S
C162 H130 0.929 . S
C162 C161 1.267 . S
C162 C163 1.251 . S
C163 H133 0.929 . S
C163 N159 1.418 . S
C163 C162 1.251 . S
C164 H131 0.930 . S
C164 C166 1.406 . S
C164 C169 1.261 . S
C165 H132 0.930 . S
C165 N167 1.325 . S
C165 C168 1.357 . S
C166 H134 0.928 . S
C166 C164 1.406 . S
C166 N167 1.261 . S
N167 Co118 2.214 . S
N167 C165 1.325 . S
N167 C166 1.261 . S
C168 H138 0.931 . S
C168 C165 1.357 . S
C168 C169 1.312 . S
C169 H140 0.930 . S
C169 C164 1.261 . S
C169 C168 1.312 . S
C170 O142 1.214 . S
C170 O150 1.234 . S
C171 H143 0.929 . S
C171 C174 1.391 . S
C171 C176 1.391 . S
C172 H144 0.929 . S
C172 C173 1.390 . S
C172 N175 1.391 . S
C173 H145 0.930 . S
C173 C172 1.390 . S
C173 C174 1.392 . S
C174 H146 0.929 . S
C174 C171 1.391 . S
C174 C173 1.392 . S
N175 Co119 2.257 . S
N175 C172 1.391 . S
N175 C176 1.388 . S
C176 H147 0.930 . S
C176 C171 1.391 . S
C176 N175 1.388 . S
Co177 O179 2.143 . S
Co177 O185 2.074 . S
Co177 O188 2.093 . S
Co177 O201 2.097 . S
Co177 N218 2.151 . S
Co177 N226 2.214 . S
Co178 O179 2.160 . S
Co178 O184 2.058 . S
Co178 O194 2.057 . S
Co178 O209 2.037 . S
Co178 N213 2.145 . S
Co178 N234 2.257 . S
O179 Co177 2.143 . S
O179 Co178 2.160 . S
C180 O181 1.278 . S
C180 O188 1.224 . S
O181 C180 1.278 . S
C182 O183 1.245 . S
C182 O194 1.232 . S
O183 C182 1.245 . S
O184 Co178 2.058 . S
O184 C210 1.269 . S
O185 Co177 2.074 . S
O185 C210 1.257 . S
H186 C211 0.930 . S
H187 C217 0.930 . S
O188 Co177 2.093 . S
O188 C180 1.224 . S
H189 C221 0.929 . S
H190 C223 0.930 . S
H191 C224 0.930 . S
H192 C222 0.929 . S
H193 C225 0.928 . S
O194 Co178 2.057 . S
O194 C182 1.232 . S
H195 C214 0.929 . S
H196 C215 0.929 . S
H197 C227 0.931 . S
H198 C219 0.929 . S
H199 C228 0.930 . S
H200 C220 0.931 . S
O201 Co177 2.097 . S
O201 C229 1.214 . S
H202 C230 0.929 . S
H203 C231 0.929 . S
H204 C232 0.930 . S
H205 C233 0.929 . S
H206 C235 0.930 . S
H207 C212 0.930 . S
H208 C216 0.930 . S
O209 Co178 2.037 . S
O209 C229 1.234 . S
C210 O184 1.269 . S
C210 O185 1.257 . S
C211 H186 0.930 . S
C211 C214 1.388 . S
C211 C216 1.418 . S
C212 H207 0.930 . S
C212 C215 1.404 . S
C212 C216 1.353 . S
N213 Co178 2.145 . S
N213 C214 1.397 . S
N213 C215 1.334 . S
C214 H195 0.929 . S
C214 C211 1.388 . S
C214 N213 1.397 . S
C215 H196 0.929 . S
C215 C212 1.404 . S
C215 N213 1.334 . S
C216 H208 0.930 . S
C216 C211 1.418 . S
C216 C212 1.353 . S
C217 H187 0.930 . S
C217 N218 1.330 . S
C217 C219 1.446 . S
N218 Co177 2.151 . S
N218 C217 1.330 . S
N218 C222 1.418 . S
C219 H198 0.929 . S
C219 C217 1.446 . S
C219 C220 1.332 . S
C220 H200 0.931 . S
C220 C219 1.332 . S
C220 C221 1.267 . S
C221 H189 0.929 . S
C221 C220 1.267 . S
C221 C222 1.251 . S
C222 H192 0.929 . S
C222 N218 1.418 . S
C222 C221 1.251 . S
C223 H190 0.930 . S
C223 C225 1.406 . S
C223 C228 1.261 . S
C224 H191 0.930 . S
C224 N226 1.325 . S
C224 C227 1.357 . S
C225 H193 0.928 . S
C225 C223 1.406 . S
C225 N226 1.261 . S
N226 Co177 2.214 . S
N226 C224 1.325 . S
N226 C225 1.261 . S
C227 H197 0.931 . S
C227 C224 1.357 . S
C227 C228 1.312 . S
C228 H199 0.930 . S
C228 C223 1.261 . S
C228 C227 1.312 . S
C229 O201 1.214 . S
C229 O209 1.234 . S
C230 H202 0.929 . S
C230 C233 1.391 . S
C230 C235 1.391 . S
C231 H203 0.929 . S
C231 C232 1.390 . S
C231 N234 1.391 . S
C232 H204 0.930 . S
C232 C231 1.390 . S
C232 C233 1.392 . S
C233 H205 0.929 . S
C233 C230 1.391 . S
C233 C232 1.392 . S
N234 Co178 2.257 . S
N234 C231 1.391 . S
N234 C235 1.388 . S
C235 H206 0.930 . S
C235 C230 1.391 . S
C235 N234 1.388 . S
Co236 O238 2.143 . S
Co236 O244 2.074 . S
Co236 O247 2.093 . S
Co236 O260 2.097 . S
Co236 N277 2.151 . S
Co236 N285 2.214 . S
Co237 O238 2.160 . S
Co237 O243 2.058 . S
Co237 O253 2.057 . S
Co237 O268 2.037 . S
Co237 N272 2.145 . S
Co237 N293 2.257 . S
O238 Co236 2.143 . S
O238 Co237 2.160 . S
C239 O240 1.278 . S
C239 O247 1.224 . S
O240 C239 1.278 . S
C241 O242 1.245 . S
C241 O253 1.232 . S
O242 C241 1.245 . S
O243 Co237 2.058 . S
O243 C269 1.269 . S
O244 Co236 2.074 . S
O244 C269 1.257 . S
H245 C270 0.930 . S
H246 C276 0.930 . S
O247 Co236 2.093 . S
O247 C239 1.224 . S
H248 C280 0.929 . S
H249 C282 0.930 . S
H250 C283 0.930 . S
H251 C281 0.929 . S
H252 C284 0.928 . S
O253 Co237 2.057 . S
O253 C241 1.232 . S
H254 C273 0.929 . S
H255 C274 0.929 . S
H256 C286 0.931 . S
H257 C278 0.929 . S
H258 C287 0.930 . S
H259 C279 0.931 . S
O260 Co236 2.097 . S
O260 C288 1.214 . S
H261 C289 0.929 . S
H262 C290 0.929 . S
H263 C291 0.930 . S
H264 C292 0.929 . S
H265 C294 0.930 . S
H266 C271 0.930 . S
H267 C275 0.930 . S
O268 Co237 2.037 . S
O268 C288 1.234 . S
C269 O243 1.269 . S
C269 O244 1.257 . S
C270 H245 0.930 . S
C270 C273 1.388 . S
C270 C275 1.418 . S
C271 H266 0.930 . S
C271 C274 1.404 . S
C271 C275 1.353 . S
N272 Co237 2.145 . S
N272 C273 1.397 . S
N272 C274 1.334 . S
C273 H254 0.929 . S
C273 C270 1.388 . S
C273 N272 1.397 . S
C274 H255 0.929 . S
C274 C271 1.404 . S
C274 N272 1.334 . S
C275 H267 0.930 . S
C275 C270 1.418 . S
C275 C271 1.353 . S
C276 H246 0.930 . S
C276 N277 1.330 . S
C276 C278 1.446 . S
N277 Co236 2.151 . S
N277 C276 1.330 . S
N277 C281 1.418 . S
C278 H257 0.929 . S
C278 C276 1.446 . S
C278 C279 1.332 . S
C279 H259 0.931 . S
C279 C278 1.332 . S
C279 C280 1.267 . S
C280 H248 0.929 . S
C280 C279 1.267 . S
C280 C281 1.251 . S
C281 H251 0.929 . S
C281 N277 1.418 . S
C281 C280 1.251 . S
C282 H249 0.930 . S
C282 C284 1.406 . S
C282 C287 1.261 . S
C283 H250 0.930 . S
C283 N285 1.325 . S
C283 C286 1.357 . S
C284 H252 0.928 . S
C284 C282 1.406 . S
C284 N285 1.261 . S
N285 Co236 2.214 . S
N285 C283 1.325 . S
N285 C284 1.261 . S
C286 H256 0.931 . S
C286 C283 1.357 . S
C286 C287 1.312 . S
C287 H258 0.930 . S
C287 C282 1.261 . S
C287 C286 1.312 . S
C288 O260 1.214 . S
C288 O268 1.234 . S
C289 H261 0.929 . S
C289 C292 1.391 . S
C289 C294 1.391 . S
C290 H262 0.929 . S
C290 C291 1.390 . S
C290 N293 1.391 . S
C291 H263 0.930 . S
C291 C290 1.390 . S
C291 C292 1.392 . S
C292 H264 0.929 . S
C292 C289 1.391 . S
C292 C291 1.392 . S
N293 Co237 2.257 . S
N293 C290 1.391 . S
N293 C294 1.388 . S
C294 H265 0.930 . S
C294 C289 1.391 . S
C294 N293 1.388 . S
Co295 O297 2.143 . S
Co295 O303 2.074 . S
Co295 O306 2.093 . S
Co295 O319 2.097 . S
Co295 N336 2.151 . S
Co295 N344 2.214 . S
Co296 O297 2.160 . S
Co296 O302 2.058 . S
Co296 O312 2.057 . S
Co296 O327 2.037 . S
Co296 N331 2.145 . S
Co296 N352 2.257 . S
O297 Co295 2.143 . S
O297 Co296 2.160 . S
C298 O299 1.278 . S
C298 O306 1.224 . S
O299 C298 1.278 . S
C300 O301 1.245 . S
C300 O312 1.232 . S
O301 C300 1.245 . S
O302 Co296 2.058 . S
O302 C328 1.269 . S
O303 Co295 2.074 . S
O303 C328 1.257 . S
H304 C329 0.930 . S
H305 C335 0.930 . S
O306 Co295 2.093 . S
O306 C298 1.224 . S
H307 C339 0.929 . S
H308 C341 0.930 . S
H309 C342 0.930 . S
H310 C340 0.929 . S
H311 C343 0.928 . S
O312 Co296 2.057 . S
O312 C300 1.232 . S
H313 C332 0.929 . S
H314 C333 0.929 . S
H315 C345 0.931 . S
H316 C337 0.929 . S
H317 C346 0.930 . S
H318 C338 0.931 . S
O319 Co295 2.097 . S
O319 C347 1.214 . S
H320 C348 0.929 . S
H321 C349 0.929 . S
H322 C350 0.930 . S
H323 C351 0.929 . S
H324 C353 0.930 . S
H325 C330 0.930 . S
H326 C334 0.930 . S
O327 Co296 2.037 . S
O327 C347 1.234 . S
C328 O302 1.269 . S
C328 O303 1.257 . S
C329 H304 0.930 . S
C329 C332 1.388 . S
C329 C334 1.418 . S
C330 H325 0.930 . S
C330 C333 1.404 . S
C330 C334 1.353 . S
N331 Co296 2.145 . S
N331 C332 1.397 . S
N331 C333 1.334 . S
C332 H313 0.929 . S
C332 C329 1.388 . S
C332 N331 1.397 . S
C333 H314 0.929 . S
C333 C330 1.404 . S
C333 N331 1.334 . S
C334 H326 0.930 . S
C334 C329 1.418 . S
C334 C330 1.353 . S
C335 H305 0.930 . S
C335 N336 1.330 . S
C335 C337 1.446 . S
N336 Co295 2.151 . S
N336 C335 1.330 . S
N336 C340 1.418 . S
C337 H316 0.929 . S
C337 C335 1.446 . S
C337 C338 1.332 . S
C338 H318 0.931 . S
C338 C337 1.332 . S
C338 C339 1.267 . S
C339 H307 0.929 . S
C339 C338 1.267 . S
C339 C340 1.251 . S
C340 H310 0.929 . S
C340 N336 1.418 . S
C340 C339 1.251 . S
C341 H308 0.930 . S
C341 C343 1.406 . S
C341 C346 1.261 . S
C342 H309 0.930 . S
C342 N344 1.325 . S
C342 C345 1.357 . S
C343 H311 0.928 . S
C343 C341 1.406 . S
C343 N344 1.261 . S
N344 Co295 2.214 . S
N344 C342 1.325 . S
N344 C343 1.261 . S
C345 H315 0.931 . S
C345 C342 1.357 . S
C345 C346 1.312 . S
C346 H317 0.930 . S
C346 C341 1.261 . S
C346 C345 1.312 . S
C347 O319 1.214 . S
C347 O327 1.234 . S
C348 H320 0.929 . S
C348 C351 1.391 . S
C348 C353 1.391 . S
C349 H321 0.929 . S
C349 C350 1.390 . S
C349 N352 1.391 . S
C350 H322 0.930 . S
C350 C349 1.390 . S
C350 C351 1.392 . S
C351 H323 0.929 . S
C351 C348 1.391 . S
C351 C350 1.392 . S
N352 Co296 2.257 . S
N352 C349 1.391 . S
N352 C353 1.388 . S
C353 H324 0.930 . S
C353 C348 1.391 . S
C353 N352 1.388 . S
C354 C355 1.391 . S
C354 C356 1.394 . S
C354 H370 0.931 . S
C355 C354 1.391 . S
C355 C359 1.376 . S
C356 C354 1.394 . S
C356 C357 1.369 . S
C356 C360 1.531 . S
C357 C356 1.369 . S
C357 C358 1.410 . S
C357 C365 1.503 . S
C358 C357 1.410 . S
C358 C359 1.392 . S
C358 C361 1.511 . S
C359 C355 1.376 . S
C359 C358 1.392 . S
C359 H371 0.929 . S
C360 C356 1.531 . S
C360 H372 0.960 . S
C360 H373 0.962 . S
C360 H374 0.960 . S
C361 C358 1.511 . S
C361 H375 0.961 . S
C361 H376 0.961 . S
C361 H377 0.961 . S
C362 C363 1.370 . S
C362 C364 1.363 . S
C362 H378 0.931 . S
C363 C362 1.370 . S
C363 C367 1.408 . S
C364 C362 1.363 . S
C364 C365 1.370 . S
C364 C368 1.524 . S
C365 C357 1.503 . S
C365 C364 1.370 . S
C365 C366 1.403 . S
C366 C365 1.403 . S
C366 C367 1.404 . S
C366 C369 1.539 . S
C367 C363 1.408 . S
C367 C366 1.404 . S
C367 H379 0.930 . S
C368 C364 1.524 . S
C368 H380 0.956 . S
C368 H381 0.961 . S
C368 H382 0.961 . S
C369 C366 1.539 . S
C369 H383 0.958 . S
C369 H384 0.961 . S
C369 H385 0.960 . S
H370 C354 0.931 . S
H371 C359 0.929 . S
H372 C360 0.960 . S
H373 C360 0.962 . S
H374 C360 0.960 . S
H375 C361 0.961 . S
H376 C361 0.961 . S
H377 C361 0.961 . S
H378 C362 0.931 . S
H379 C367 0.930 . S
H380 C368 0.956 . S
H381 C368 0.961 . S
H382 C368 0.961 . S
H383 C369 0.958 . S
H384 C369 0.961 . S
H385 C369 0.960 . S
C386 C387 1.391 . S
C386 C388 1.394 . S
C386 H402 0.931 . S
C387 C386 1.391 . S
C387 C391 1.376 . S
C388 C386 1.394 . S
C388 C389 1.369 . S
C388 C392 1.531 . S
C389 C388 1.369 . S
C389 C390 1.410 . S
C389 C397 1.503 . S
C390 C389 1.410 . S
C390 C391 1.392 . S
C390 C393 1.511 . S
C391 C387 1.376 . S
C391 C390 1.392 . S
C391 H403 0.929 . S
C392 C388 1.531 . S
C392 H404 0.960 . S
C392 H405 0.962 . S
C392 H406 0.960 . S
C393 C390 1.511 . S
C393 H407 0.961 . S
C393 H408 0.961 . S
C393 H409 0.961 . S
C394 C395 1.370 . S
C394 C396 1.363 . S
C394 H410 0.931 . S
C395 C394 1.370 . S
C395 C399 1.408 . S
C396 C394 1.363 . S
C396 C397 1.370 . S
C396 C400 1.524 . S
C397 C389 1.503 . S
C397 C396 1.370 . S
C397 C398 1.403 . S
C398 C397 1.403 . S
C398 C399 1.404 . S
C398 C401 1.539 . S
C399 C395 1.408 . S
C399 C398 1.404 . S
C399 H411 0.930 . S
C400 C396 1.524 . S
C400 H412 0.956 . S
C400 H413 0.961 . S
C400 H414 0.961 . S
C401 C398 1.539 . S
C401 H415 0.958 . S
C401 H416 0.961 . S
C401 H417 0.960 . S
H402 C386 0.931 . S
H403 C391 0.929 . S
H404 C392 0.960 . S
H405 C392 0.962 . S
H406 C392 0.960 . S
H407 C393 0.961 . S
H408 C393 0.961 . S
H409 C393 0.961 . S
H410 C394 0.931 . S
H411 C399 0.930 . S
H412 C400 0.956 . S
H413 C400 0.961 . S
H414 C400 0.961 . S
H415 C401 0.958 . S
H416 C401 0.961 . S
H417 C401 0.960 . S
C418 C419 1.391 . S
C418 C420 1.394 . S
C418 H434 0.931 . S
C419 C418 1.391 . S
C419 C423 1.376 . S
C420 C418 1.394 . S
C420 C421 1.369 . S
C420 C424 1.531 . S
C421 C420 1.369 . S
C421 C422 1.410 . S
C421 C429 1.503 . S
C422 C421 1.410 . S
C422 C423 1.392 . S
C422 C425 1.511 . S
C423 C419 1.376 . S
C423 C422 1.392 . S
C423 H435 0.929 . S
C424 C420 1.531 . S
C424 H436 0.960 . S
C424 H437 0.962 . S
C424 H438 0.960 . S
C425 C422 1.511 . S
C425 H439 0.961 . S
C425 H440 0.961 . S
C425 H441 0.961 . S
C426 C427 1.370 . S
C426 C428 1.363 . S
C426 H442 0.931 . S
C427 C426 1.370 . S
C427 C431 1.408 . S
C428 C426 1.363 . S
C428 C429 1.370 . S
C428 C432 1.524 . S
C429 C421 1.503 . S
C429 C428 1.370 . S
C429 C430 1.403 . S
C430 C429 1.403 . S
C430 C431 1.404 . S
C430 C433 1.539 . S
C431 C427 1.408 . S
C431 C430 1.404 . S
C431 H443 0.930 . S
C432 C428 1.524 . S
C432 H444 0.956 . S
C432 H445 0.961 . S
C432 H446 0.961 . S
C433 C430 1.539 . S
C433 H447 0.958 . S
C433 H448 0.961 . S
C433 H449 0.960 . S
H434 C418 0.931 . S
H435 C423 0.929 . S
H436 C424 0.960 . S
H437 C424 0.962 . S
H438 C424 0.960 . S
H439 C425 0.961 . S
H440 C425 0.961 . S
H441 C425 0.961 . S
H442 C426 0.931 . S
H443 C431 0.930 . S
H444 C432 0.956 . S
H445 C432 0.961 . S
H446 C432 0.961 . S
H447 C433 0.958 . S
H448 C433 0.961 . S
H449 C433 0.960 . S
C450 C451 1.391 . S
C450 C452 1.394 . S
C450 H466 0.931 . S
C451 C450 1.391 . S
C451 C455 1.376 . S
C452 C450 1.394 . S
C452 C453 1.369 . S
C452 C456 1.531 . S
C453 C452 1.369 . S
C453 C454 1.410 . S
C453 C461 1.503 . S
C454 C453 1.410 . S
C454 C455 1.392 . S
C454 C457 1.511 . S
C455 C451 1.376 . S
C455 C454 1.392 . S
C455 H467 0.929 . S
C456 C452 1.531 . S
C456 H468 0.960 . S
C456 H469 0.962 . S
C456 H470 0.960 . S
C457 C454 1.511 . S
C457 H471 0.961 . S
C457 H472 0.961 . S
C457 H473 0.961 . S
C458 C459 1.370 . S
C458 C460 1.363 . S
C458 H474 0.931 . S
C459 C458 1.370 . S
C459 C463 1.408 . S
C460 C458 1.363 . S
C460 C461 1.370 . S
C460 C464 1.524 . S
C461 C453 1.503 . S
C461 C460 1.370 . S
C461 C462 1.403 . S
C462 C461 1.403 . S
C462 C463 1.404 . S
C462 C465 1.539 . S
C463 C459 1.408 . S
C463 C462 1.404 . S
C463 H475 0.930 . S
C464 C460 1.524 . S
C464 H476 0.956 . S
C464 H477 0.961 . S
C464 H478 0.961 . S
C465 C462 1.539 . S
C465 H479 0.958 . S
C465 H480 0.961 . S
C465 H481 0.960 . S
H466 C450 0.931 . S
H467 C455 0.929 . S
H468 C456 0.960 . S
H469 C456 0.962 . S
H470 C456 0.960 . S
H471 C457 0.961 . S
H472 C457 0.961 . S
H473 C457 0.961 . S
H474 C458 0.931 . S
H475 C463 0.930 . S
H476 C464 0.956 . S
H477 C464 0.961 . S
H478 C464 0.961 . S
H479 C465 0.958 . S
H480 C465 0.961 . S
H481 C465 0.960 . S
C482 C483 1.391 . S
C482 C484 1.394 . S
C482 H498 0.931 . S
C483 C482 1.391 . S
C483 C487 1.376 . S
C484 C482 1.394 . S
C484 C485 1.369 . S
C484 C488 1.531 . S
C485 C484 1.369 . S
C485 C486 1.410 . S
C485 C493 1.503 . S
C486 C485 1.410 . S
C486 C487 1.392 . S
C486 C489 1.511 . S
C487 C483 1.376 . S
C487 C486 1.392 . S
C487 H499 0.929 . S
C488 C484 1.531 . S
C488 H500 0.960 . S
C488 H501 0.962 . S
C488 H502 0.960 . S
C489 C486 1.511 . S
C489 H503 0.961 . S
C489 H504 0.961 . S
C489 H505 0.961 . S
C490 C491 1.370 . S
C490 C492 1.363 . S
C490 H506 0.931 . S
C491 C490 1.370 . S
C491 C495 1.408 . S
C492 C490 1.363 . S
C492 C493 1.370 . S
C492 C496 1.524 . S
C493 C485 1.503 . S
C493 C492 1.370 . S
C493 C494 1.403 . S
C494 C493 1.403 . S
C494 C495 1.404 . S
C494 C497 1.539 . S
C495 C491 1.408 . S
C495 C494 1.404 . S
C495 H507 0.930 . S
C496 C492 1.524 . S
C496 H508 0.956 . S
C496 H509 0.961 . S
C496 H510 0.961 . S
C497 C494 1.539 . S
C497 H511 0.958 . S
C497 H512 0.961 . S
C497 H513 0.960 . S
H498 C482 0.931 . S
H499 C487 0.929 . S
H500 C488 0.960 . S
H501 C488 0.962 . S
H502 C488 0.960 . S
H503 C489 0.961 . S
H504 C489 0.961 . S
H505 C489 0.961 . S
H506 C490 0.931 . S
H507 C495 0.930 . S
H508 C496 0.956 . S
H509 C496 0.961 . S
H510 C496 0.961 . S
H511 C497 0.958 . S
H512 C497 0.961 . S
H513 C497 0.960 . S
C514 C515 1.391 . S
C514 C516 1.394 . S
C514 H530 0.931 . S
C515 C514 1.391 . S
C515 C519 1.376 . S
C516 C514 1.394 . S
C516 C517 1.369 . S
C516 C520 1.531 . S
C517 C516 1.369 . S
C517 C518 1.410 . S
C517 C525 1.503 . S
C518 C517 1.410 . S
C518 C519 1.392 . S
C518 C521 1.511 . S
C519 C515 1.376 . S
C519 C518 1.392 . S
C519 H531 0.929 . S
C520 C516 1.531 . S
C520 H532 0.960 . S
C520 H533 0.962 . S
C520 H534 0.960 . S
C521 C518 1.511 . S
C521 H535 0.961 . S
C521 H536 0.961 . S
C521 H537 0.961 . S
C522 C523 1.370 . S
C522 C524 1.363 . S
C522 H538 0.931 . S
C523 C522 1.370 . S
C523 C527 1.408 . S
C524 C522 1.363 . S
C524 C525 1.370 . S
C524 C528 1.524 . S
C525 C517 1.503 . S
C525 C524 1.370 . S
C525 C526 1.403 . S
C526 C525 1.403 . S
C526 C527 1.404 . S
C526 C529 1.539 . S
C527 C523 1.408 . S
C527 C526 1.404 . S
C527 H539 0.930 . S
C528 C524 1.524 . S
C528 H540 0.956 . S
C528 H541 0.961 . S
C528 H542 0.961 . S
C529 C526 1.539 . S
C529 H543 0.958 . S
C529 H544 0.961 . S
C529 H545 0.960 . S
H530 C514 0.931 . S
H531 C519 0.929 . S
H532 C520 0.960 . S
H533 C520 0.962 . S
H534 C520 0.960 . S
H535 C521 0.961 . S
H536 C521 0.961 . S
H537 C521 0.961 . S
H538 C522 0.931 . S
H539 C527 0.930 . S
H540 C528 0.956 . S
H541 C528 0.961 . S
H542 C528 0.961 . S
H543 C529 0.958 . S
H544 C529 0.961 . S
H545 C529 0.960 . S
C546 C547 1.391 . S
C546 C548 1.394 . S
C546 H562 0.931 . S
C547 C546 1.391 . S
C547 C551 1.376 . S
C548 C546 1.394 . S
C548 C549 1.369 . S
C548 C552 1.531 . S
C549 C548 1.369 . S
C549 C550 1.410 . S
C549 C557 1.503 1_566 S
C550 C549 1.410 . S
C550 C551 1.392 . S
C550 C553 1.511 . S
C551 C547 1.376 . S
C551 C550 1.392 . S
C551 H563 0.929 . S
C552 C548 1.531 . S
C552 H564 0.960 1_556 S
C552 H565 0.962 . S
C552 H566 0.960 . S
C553 C550 1.511 . S
C553 H567 0.961 . S
C553 H568 0.961 1_565 S
C553 H569 0.961 1_556 S
C554 C555 1.370 . S
C554 C556 1.363 . S
C554 H570 0.931 . S
C555 C554 1.370 . S
C555 C559 1.408 . S
C556 C554 1.363 . S
C556 C557 1.370 . S
C556 C560 1.524 1_554 S
C557 C549 1.503 1_544 S
C557 C556 1.370 . S
C557 C558 1.403 1_545 S
C558 C557 1.403 1_565 S
C558 C559 1.404 1_565 S
C558 C561 1.539 . S
C559 C555 1.408 . S
C559 C558 1.404 1_545 S
C559 H571 0.930 . S
C560 C556 1.524 1_556 S
C560 H572 0.956 . S
C560 H573 0.961 . S
C560 H574 0.961 . S
C561 C558 1.539 . S
C561 H575 0.958 . S
C561 H576 0.961 . S
C561 H577 0.960 . S
H562 C546 0.931 . S
H563 C551 0.929 . S
H564 C552 0.960 1_554 S
H565 C552 0.962 . S
H566 C552 0.960 . S
H567 C553 0.961 . S
H568 C553 0.961 1_545 S
H569 C553 0.961 1_554 S
H570 C554 0.931 . S
H571 C559 0.930 . S
H572 C560 0.956 . S
H573 C560 0.961 . S
H574 C560 0.961 . S
H575 C561 0.958 . S
H576 C561 0.961 . S
H577 C561 0.960 . S
C578 C579 1.391 . S
C578 C580 1.394 . S
C578 H594 0.931 . S
C579 C578 1.391 . S
C579 C583 1.376 . S
C580 C578 1.394 . S
C580 C581 1.369 . S
C580 C584 1.531 . S
C581 C580 1.369 . S
C581 C582 1.410 . S
C581 C589 1.503 . S
C582 C581 1.410 . S
C582 C583 1.392 . S
C582 C585 1.511 . S
C583 C579 1.376 . S
C583 C582 1.392 . S
C583 H595 0.929 . S
C584 C580 1.531 . S
C584 H596 0.960 . S
C584 H597 0.962 . S
C584 H598 0.960 . S
C585 C582 1.511 . S
C585 H599 0.961 . S
C585 H600 0.961 . S
C585 H601 0.961 . S
C586 C587 1.370 . S
C586 C588 1.363 . S
C586 H602 0.931 . S
C587 C586 1.370 . S
C587 C591 1.408 . S
C588 C586 1.363 . S
C588 C589 1.370 . S
C588 C592 1.524 . S
C589 C581 1.503 . S
C589 C588 1.370 . S
C589 C590 1.403 . S
C590 C589 1.403 . S
C590 C591 1.404 . S
C590 C593 1.539 . S
C591 C587 1.408 . S
C591 C590 1.404 . S
C591 H603 0.930 . S
C592 C588 1.524 . S
C592 H604 0.956 . S
C592 H605 0.961 . S
C592 H606 0.961 . S
C593 C590 1.539 . S
C593 H607 0.958 . S
C593 H608 0.961 . S
C593 H609 0.960 . S
H594 C578 0.931 . S
H595 C583 0.929 . S
H596 C584 0.960 . S
H597 C584 0.962 . S
H598 C584 0.960 . S
H599 C585 0.961 . S
H600 C585 0.961 . S
H601 C585 0.961 . S
H602 C586 0.931 . S
H603 C591 0.930 . S
H604 C592 0.956 . S
H605 C592 0.961 . S
H606 C592 0.961 . S
H607 C593 0.958 . S
H608 C593 0.961 . S
H609 C593 0.960 . S
C610 C611 1.391 . S
C610 C612 1.394 1_455 S
C610 H626 0.931 . S
C611 C610 1.391 . S
C611 C615 1.376 . S
C612 C610 1.394 1_655 S
C612 C613 1.369 1_655 S
C612 C616 1.531 . S
C613 C612 1.369 1_455 S
C613 C614 1.410 . S
C613 C621 1.503 1_456 S
C614 C613 1.410 . S
C614 C615 1.392 . S
C614 C617 1.511 1_556 S
C615 C611 1.376 . S
C615 C614 1.392 . S
C615 H627 0.929 . S
C616 C612 1.531 . S
C616 H628 0.960 . S
C616 H629 0.962 . S
C616 H630 0.960 . S
C617 C614 1.511 1_554 S
C617 H631 0.961 . S
C617 H632 0.961 . S
C617 H633 0.961 . S
C618 C619 1.370 . S
C618 C620 1.363 . S
C618 H634 0.931 . S
C619 C618 1.370 . S
C619 C623 1.408 . S
C620 C618 1.363 . S
C620 C621 1.370 . S
C620 C624 1.524 1_655 S
C621 C613 1.503 1_654 S
C621 C620 1.370 . S
C621 C622 1.403 . S
C622 C621 1.403 . S
C622 C623 1.404 . S
C622 C625 1.540 . S
C623 C619 1.408 . S
C623 C622 1.404 . S
C623 H635 0.930 . S
C624 C620 1.524 1_455 S
C624 H636 0.956 . S
C624 H637 0.961 . S
C624 H638 0.961 . S
C625 C622 1.540 . S
C625 H639 0.958 1_554 S
C625 H640 0.962 . S
C625 H641 0.959 1_554 S
H626 C610 0.931 . S
H627 C615 0.929 . S
H628 C616 0.960 . S
H629 C616 0.962 . S
H630 C616 0.960 . S
H631 C617 0.961 . S
H632 C617 0.961 . S
H633 C617 0.961 . S
H634 C618 0.931 . S
H635 C623 0.930 . S
H636 C624 0.956 . S
H637 C624 0.961 . S
H638 C624 0.961 . S
H639 C625 0.958 1_556 S
H640 C625 0.962 . S
H641 C625 0.959 1_556 S
C642 C643 1.391 . S
C642 C644 1.394 . S
C642 H658 0.931 . S
C643 C642 1.391 . S
C643 C647 1.376 . S
C644 C642 1.394 . S
C644 C645 1.369 . S
C644 C648 1.531 1_545 S
C645 C644 1.369 . S
C645 C646 1.410 . S
C645 C653 1.503 1_545 S
C646 C645 1.410 . S
C646 C647 1.392 . S
C646 C649 1.511 . S
C647 C643 1.376 . S
C647 C646 1.392 . S
C647 H659 0.929 . S
C648 C644 1.531 1_565 S
C648 H660 0.960 . S
C648 H661 0.962 . S
C648 H662 0.960 . S
C649 C646 1.511 . S
C649 H663 0.961 . S
C649 H664 0.961 . S
C649 H665 0.961 . S
C650 C651 1.370 . S
C650 C652 1.363 . S
C650 H666 0.931 . S
C651 C650 1.370 . S
C651 C655 1.408 . S
C652 C650 1.363 . S
C652 C653 1.370 . S
C652 C656 1.524 1_565 S
C653 C645 1.503 1_565 S
C653 C652 1.370 . S
C653 C654 1.403 . S
C654 C653 1.403 . S
C654 C655 1.404 . S
C654 C657 1.539 . S
C655 C651 1.408 . S
C655 C654 1.404 . S
C655 H667 0.930 . S
C656 C652 1.524 1_545 S
C656 H668 0.956 . S
C656 H669 0.961 . S
C656 H670 0.961 . S
C657 C654 1.539 . S
C657 H671 0.958 . S
C657 H672 0.961 . S
C657 H673 0.960 . S
H658 C642 0.931 . S
H659 C647 0.929 . S
H660 C648 0.960 . S
H661 C648 0.962 . S
H662 C648 0.960 . S
H663 C649 0.961 . S
H664 C649 0.961 . S
H665 C649 0.961 . S
H666 C650 0.931 . S
H667 C655 0.930 . S
H668 C656 0.956 . S
H669 C656 0.961 . S
H670 C656 0.961 . S
H671 C657 0.958 . S
H672 C657 0.961 . S
H673 C657 0.960 . S
C674 C675 1.391 . S
C674 C676 1.394 . S
C674 H690 0.931 . S
C675 C674 1.391 . S
C675 C679 1.376 . S
C676 C674 1.394 . S
C676 C677 1.369 . S
C676 C680 1.531 . S
C677 C676 1.369 . S
C677 C678 1.410 . S
C677 C685 1.503 1_556 S
C678 C677 1.410 . S
C678 C679 1.392 . S
C678 C681 1.511 . S
C679 C675 1.376 . S
C679 C678 1.392 . S
C679 H691 0.929 . S
C680 C676 1.531 . S
C680 H692 0.960 . S
C680 H693 0.962 . S
C680 H694 0.960 . S
C681 C678 1.511 . S
C681 H695 0.961 . S
C681 H696 0.961 1_556 S
C681 H697 0.961 . S
C682 C683 1.370 . S
C682 C684 1.363 . S
C682 H698 0.931 . S
C683 C682 1.370 . S
C683 C687 1.408 . S
C684 C682 1.363 . S
C684 C685 1.370 . S
C684 C688 1.524 . S
C685 C677 1.503 1_554 S
C685 C684 1.370 . S
C685 C686 1.403 . S
C686 C685 1.403 . S
C686 C687 1.404 . S
C686 C689 1.539 1_554 S
C687 C683 1.408 . S
C687 C686 1.404 . S
C687 H699 0.930 . S
C688 C684 1.524 . S
C688 H700 0.956 . S
C688 H701 0.961 . S
C688 H702 0.961 . S
C689 C686 1.539 1_556 S
C689 H703 0.958 . S
C689 H704 0.961 . S
C689 H705 0.960 . S
H690 C674 0.931 . S
H691 C679 0.929 . S
H692 C680 0.960 . S
H693 C680 0.962 . S
H694 C680 0.960 . S
H695 C681 0.961 . S
H696 C681 0.961 1_554 S
H697 C681 0.961 . S
H698 C682 0.931 . S
H699 C687 0.930 . S
H700 C688 0.956 . S
H701 C688 0.961 . S
H702 C688 0.961 . S
H703 C689 0.958 . S
H704 C689 0.961 . S
H705 C689 0.960 . S
C706 C707 1.391 . S
C706 C708 1.394 . S
C706 H722 0.931 . S
C707 C706 1.391 . S
C707 C711 1.376 . S
C708 C706 1.394 . S
C708 C709 1.369 . S
C708 C712 1.531 1_455 S
C709 C708 1.369 . S
C709 C710 1.410 . S
C709 C717 1.503 1_455 S
C710 C709 1.410 . S
C710 C711 1.392 . S
C710 C713 1.511 . S
C711 C707 1.376 . S
C711 C710 1.392 . S
C711 H723 0.929 . S
C712 C708 1.531 1_655 S
C712 H724 0.960 . S
C712 H725 0.962 . S
C712 H726 0.960 . S
C713 C710 1.511 . S
C713 H727 0.961 . S
C713 H728 0.961 . S
C713 H729 0.961 . S
C714 C715 1.370 . S
C714 C716 1.363 . S
C714 H730 0.931 . S
C715 C714 1.370 . S
C715 C719 1.408 . S
C716 C714 1.363 . S
C716 C717 1.370 . S
C716 C720 1.524 . S
C717 C709 1.503 1_655 S
C717 C716 1.370 . S
C717 C718 1.403 1_655 S
C718 C717 1.403 1_455 S
C718 C719 1.400 1_455 S
C718 C721 1.543 . S
C719 C715 1.408 . S
C719 C718 1.400 1_655 S
C719 H731 0.930 . S
C720 C716 1.524 . S
C720 H732 0.956 . S
C720 H733 0.961 . S
C720 H734 0.961 . S
C721 C718 1.543 . S
C721 H735 0.958 . S
C721 H736 0.961 . S
C721 H737 0.960 . S
H722 C706 0.931 . S
H723 C711 0.929 . S
H724 C712 0.960 . S
H725 C712 0.962 . S
H726 C712 0.960 . S
H727 C713 0.961 . S
H728 C713 0.961 . S
H729 C713 0.961 . S
H730 C714 0.931 . S
H731 C719 0.930 . S
H732 C720 0.956 . S
H733 C720 0.961 . S
H734 C720 0.961 . S
H735 C721 0.958 . S
H736 C721 0.961 . S
H737 C721 0.960 . S
C355 C52 1.322 . S
C363 C269 1.294 . S
C387 C111 1.326 . S
C395 C328 1.281 . S
C419 C33 1.257 . S
C427 C151 1.303 . S
C451 C210 1.320 . S
C459 C92 1.295 . S
C483 C288 1.299 . S
C491 C170 1.309 . S
C515 C229 1.322 . S
C523 C347 1.287 . S
C547 C180 1.465 . S
C555 C3 1.491 . S
C579 C241 1.491 . S
C587 C62 1.491 . S
C611 C300 1.499 . S
C619 C123 1.496 . S
C643 C5 1.500 . S
C651 C182 1.494 . S
C675 C64 1.499 . S
C683 C239 1.480 . S
C707 C298 1.470 . S
C715 C121 1.491 . S
