# Generated by pormake.
# Topology wme, (6)-cn, num edge types: 1
# Building blocks:
#     Node 0, Type 0, BuildingBlock: JUFBIX_clean_sbu_0, # of connection points: 6
#     Node 1, Type 0, BuildingBlock: JUFBIX_clean_sbu_0, # of connection points: 6
#     Node 2, Type 0, BuildingBlock: JUFBIX_clean_sbu_0, # of connection points: 6
#     Node 3, Type 0, BuildingBlock: JUFBIX_clean_sbu_0, # of connection points: 6
#     Node 4, Type 0, BuildingBlock: JUFBIX_clean_sbu_0, # of connection points: 6
#     Node 5, Type 0, BuildingBlock: JUFBIX_clean_sbu_0, # of connection points: 6
#     Node 6, Type 0, BuildingBlock: JUFBIX_clean_sbu_0, # of connection points: 6
#     Node 7, Type 0, BuildingBlock: JUFBIX_clean_sbu_0, # of connection points: 6
#     Node 8, Type 0, BuildingBlock: JUFBIX_clean_sbu_0, # of connection points: 6
#     Node 9, Type 0, BuildingBlock: JUFBIX_clean_sbu_0, # of connection points: 6
#     Node 10, Type 0, BuildingBlock: JUFBIX_clean_sbu_0, # of connection points: 6
#     Node 11, Type 0, BuildingBlock: JUFBIX_clean_sbu_0, # of connection points: 6
#     Edge 12, Type (0, 0), BuildingBlock: OJICUG_clean_linker_0, # of connection points: 2
#     Edge 13, Type (0, 0), BuildingBlock: OJICUG_clean_linker_0, # of connection points: 2
#     Edge 14, Type (0, 0), BuildingBlock: OJICUG_clean_linker_0, # of connection points: 2
#     Edge 15, Type (0, 0), BuildingBlock: OJICUG_clean_linker_0, # of connection points: 2
#     Edge 16, Type (0, 0), BuildingBlock: OJICUG_clean_linker_0, # of connection points: 2
#     Edge 17, Type (0, 0), BuildingBlock: OJICUG_clean_linker_0, # of connection points: 2
#     Edge 18, Type (0, 0), BuildingBlock: OJICUG_clean_linker_0, # of connection points: 2
#     Edge 19, Type (0, 0), BuildingBlock: OJICUG_clean_linker_0, # of connection points: 2
#     Edge 20, Type (0, 0), BuildingBlock: OJICUG_clean_linker_0, # of connection points: 2
#     Edge 21, Type (0, 0), BuildingBlock: OJICUG_clean_linker_0, # of connection points: 2
#     Edge 22, Type (0, 0), BuildingBlock: OJICUG_clean_linker_0, # of connection points: 2
#     Edge 23, Type (0, 0), BuildingBlock: OJICUG_clean_linker_0, # of connection points: 2
#     Edge 24, Type (0, 0), BuildingBlock: OJICUG_clean_linker_0, # of connection points: 2
#     Edge 25, Type (0, 0), BuildingBlock: OJICUG_clean_linker_0, # of connection points: 2
#     Edge 26, Type (0, 0), BuildingBlock: OJICUG_clean_linker_0, # of connection points: 2
#     Edge 27, Type (0, 0), BuildingBlock: OJICUG_clean_linker_0, # of connection points: 2
#     Edge 28, Type (0, 0), BuildingBlock: OJICUG_clean_linker_0, # of connection points: 2
#     Edge 29, Type (0, 0), BuildingBlock: OJICUG_clean_linker_0, # of connection points: 2
#     Edge 30, Type (0, 0), BuildingBlock: OJICUG_clean_linker_0, # of connection points: 2
#     Edge 31, Type (0, 0), BuildingBlock: OJICUG_clean_linker_0, # of connection points: 2
#     Edge 32, Type (0, 0), BuildingBlock: OJICUG_clean_linker_0, # of connection points: 2
#     Edge 33, Type (0, 0), BuildingBlock: OJICUG_clean_linker_0, # of connection points: 2
#     Edge 34, Type (0, 0), BuildingBlock: OJICUG_clean_linker_0, # of connection points: 2
#     Edge 35, Type (0, 0), BuildingBlock: OJICUG_clean_linker_0, # of connection points: 2
#     Edge 36, Type (0, 0), BuildingBlock: OJICUG_clean_linker_0, # of connection points: 2
#     Edge 37, Type (0, 0), BuildingBlock: OJICUG_clean_linker_0, # of connection points: 2
#     Edge 38, Type (0, 0), BuildingBlock: OJICUG_clean_linker_0, # of connection points: 2
#     Edge 39, Type (0, 0), BuildingBlock: OJICUG_clean_linker_0, # of connection points: 2
#     Edge 40, Type (0, 0), BuildingBlock: OJICUG_clean_linker_0, # of connection points: 2
#     Edge 41, Type (0, 0), BuildingBlock: OJICUG_clean_linker_0, # of connection points: 2
#     Edge 42, Type (0, 0), BuildingBlock: OJICUG_clean_linker_0, # of connection points: 2
#     Edge 43, Type (0, 0), BuildingBlock: OJICUG_clean_linker_0, # of connection points: 2
#     Edge 44, Type (0, 0), BuildingBlock: OJICUG_clean_linker_0, # of connection points: 2
#     Edge 45, Type (0, 0), BuildingBlock: OJICUG_clean_linker_0, # of connection points: 2
#     Edge 46, Type (0, 0), BuildingBlock: OJICUG_clean_linker_0, # of connection points: 2
#     Edge 47, Type (0, 0), BuildingBlock: OJICUG_clean_linker_0, # of connection points: 2
# Relax obj value: 0.325
# Max RMSD: 0.238
# Mean RMSD: 0.238
data_MOF--net-wme--node1-JUFBIX_clean_sbu_0--edge1-OJICUG_clean_linker_0
_symmetry_space_group_name_H-M    P1
_symmetry_Int_Tables_number       1
_symmetry_cell_setting            triclinic
loop_
_symmetry_equiv_pos_as_xyz
'x, y, z'
_cell_length_a     25.392623
_cell_length_b     25.423494
_cell_length_c     39.28888
_cell_angle_alpha  89.999623
_cell_angle_beta   89.899911
_cell_angle_gamma 119.9441
loop_
_atom_site_label
_atom_site_type_symbol
_atom_site_fract_x
_atom_site_fract_y
_atom_site_fract_z
_atom_type_partial_charge
Co0 Co 0.17923 0.35674 0.12873 0.0
C1 C 0.20588 0.29436 0.07914 0.0
Co2 Co 0.21535 0.3014 0.14939 0.0
C3 C 0.15319 0.45577 0.12685 0.0
C4 C 0.10918 0.39188 0.08669 0.0
N5 N 0.14849 0.40514 0.11268 0.0
N6 N 0.11786 0.4742 0.11102 0.0
C7 C 0.09028 0.43411 0.08562 0.0
H8 H 0.18036 0.47741 0.14918 0.0
H9 H 0.09368 0.3528 0.07024 0.0
C10 C 0.19472 0.36144 0.20008 0.0
N11 N 0.24014 0.24884 0.16512 0.0
C12 C 0.20815 0.18878 0.15872 0.0
C13 C 0.28813 0.25667 0.1837 0.0
N14 N 0.23332 0.15842 0.17262 0.0
C15 C 0.2843 0.20082 0.18812 0.0
C16 C 0.3047 0.41865 0.13353 0.0
O17 O 0.17015 0.37634 0.17634 0.0
O18 O 0.21894 0.32993 0.19268 0.0
O19 O 0.29867 0.36702 0.14143 0.0
O20 O 0.25772 0.42283 0.12807 0.0
O21 O 0.21317 0.27146 0.10591 0.0
H22 H 0.32352 0.29992 0.19318 0.0
H23 H 0.16773 0.1676 0.14307 0.0
O24 O 0.1916 0.33593 0.08185 0.0
O25 O 0.09938 0.29098 0.12943 0.0
O26 O 0.13169 0.239 0.15783 0.0
C27 C 0.08783 0.24365 0.14579 0.0
H28 H 0.05873 0.4352 0.06753 0.0
H29 H 0.3163 0.19208 0.2016 0.0
Co30 Co 0.8651 0.15849 0.63369 0.0
C31 C 0.84768 0.19049 0.69894 0.0
Co32 Co 0.89739 0.25599 0.63994 0.0
C33 C 0.82416 0.03005 0.64868 0.0
C34 C 0.8088 0.04734 0.5974 0.0
N35 N 0.83406 0.07552 0.627 0.0
N36 N 0.79311 0.97477 0.63367 0.0
C37 C 0.78389 0.98591 0.60137 0.0
H38 H 0.83817 0.03725 0.67507 0.0
H39 H 0.80729 0.07002 0.57444 0.0
C40 C 0.92407 0.22898 0.57653 0.0
N41 N 0.92335 0.33929 0.64406 0.0
C42 C 0.89793 0.36915 0.62875 0.0
C43 C 0.96846 0.38196 0.6632 0.0
N44 N 0.92479 0.42836 0.63772 0.0
C45 C 0.96954 0.43655 0.65931 0.0
C46 C 0.98342 0.22098 0.65306 0.0
O47 O 0.90107 0.17551 0.58866 0.0
O48 O 0.91878 0.26871 0.59343 0.0
O49 O 0.97722 0.26767 0.64924 0.0
O50 O 0.93758 0.16818 0.65013 0.0
O51 O 0.8781 0.24378 0.68674 0.0
H52 H 0.99785 0.37369 0.67951 0.0
H53 H 0.86009 0.34779 0.61129 0.0
O54 O 0.83286 0.14483 0.67956 0.0
O55 O 0.79171 0.14778 0.61704 0.0
O56 O 0.81676 0.24038 0.63098 0.0
C57 C 0.77715 0.18817 0.62057 0.0
H58 H 0.7616 0.9521 0.58171 0.0
H59 H 0.99963 0.47848 0.67237 0.0
Co60 Co 0.6387 0.82487 0.12763 0.0
C61 C 0.69897 0.91599 0.07946 0.0
Co62 Co 0.69327 0.91585 0.15011 0.0
C63 C 0.54014 0.70051 0.12508 0.0
C64 C 0.60357 0.72045 0.0845 0.0
N65 N 0.59061 0.7464 0.11071 0.0
N66 N 0.52145 0.6468 0.10922 0.0
C67 C 0.56124 0.65933 0.08353 0.0
H68 H 0.51895 0.70602 0.14768 0.0
H69 H 0.64258 0.744 0.06791 0.0
C70 C 0.63592 0.83013 0.19925 0.0
N71 N 0.74611 0.99298 0.16736 0.0
C72 C 0.80149 0.02997 0.1537 0.0
C73 C 0.74715 0.01847 0.19771 0.0
N74 N 0.83702 0.07673 0.17411 0.0
C75 C 0.80345 0.06991 0.20206 0.0
C76 C 0.57527 0.88667 0.13619 0.0
O77 O 0.62044 0.79323 0.1743 0.0
O78 O 0.66653 0.88658 0.19351 0.0
O79 O 0.62641 0.93188 0.1451 0.0
O80 O 0.57192 0.83654 0.12861 0.0
O81 O 0.72011 0.94579 0.1065 0.0
H82 H 0.71106 0.99896 0.21642 0.0
H83 H 0.81776 0.02028 0.13038 0.0
O84 O 0.6587 0.85972 0.08147 0.0
O85 O 0.70497 0.81264 0.12686 0.0
O86 O 0.75744 0.89708 0.15536 0.0
C87 C 0.75287 0.84913 0.14251 0.0
H88 H 0.56004 0.62672 0.06538 0.0
H89 H 0.81915 0.09876 0.22433 0.0
Co90 Co 0.85653 0.71034 0.639 0.0
C91 C 0.80305 0.63434 0.69655 0.0
Co92 Co 0.76159 0.64219 0.635 0.0
C93 C 0.98802 0.79309 0.63555 0.0
C94 C 0.94634 0.79007 0.68348 0.0
N95 N 0.93368 0.76837 0.6513 0.0
N96 N 0.03356 0.82758 0.65722 0.0
C97 C 0.00748 0.82598 0.6872 0.0
H98 H 0.99416 0.78602 0.609 0.0
H99 H 0.913 0.77999 0.70331 0.0
C100 C 0.8101 0.71992 0.57779 0.0
N101 N 0.68365 0.58204 0.62611 0.0
C102 C 0.66245 0.52195 0.62847 0.0
C103 C 0.63758 0.58727 0.61285 0.0
N104 N 0.60534 0.48916 0.61662 0.0
C105 C 0.58925 0.53014 0.60699 0.0
C106 C 0.77462 0.74893 0.65791 0.0
O107 O 0.85952 0.74839 0.59481 0.0
O108 O 0.76808 0.66977 0.58958 0.0
O109 O 0.73344 0.69722 0.64759 0.0
O110 O 0.82894 0.75998 0.65831 0.0
O111 O 0.7532 0.61487 0.68092 0.0
H112 H 0.6395 0.62977 0.60704 0.0
H113 H 0.68927 0.50267 0.63767 0.0
O114 O 0.85157 0.67288 0.68199 0.0
O115 O 0.88618 0.66117 0.6202 0.0
O116 O 0.79181 0.58773 0.62246 0.0
C117 C 0.8478 0.60488 0.61787 0.0
H118 H 0.03099 0.85154 0.70969 0.0
H119 H 0.54583 0.51981 0.59638 0.0
Co120 Co 0.16976 0.81711 0.12688 0.0
C121 C 0.08239 0.79265 0.07583 0.0
Co122 Co 0.07683 0.78069 0.14642 0.0
C123 C 0.29402 0.84201 0.12625 0.0
C124 C 0.2771 0.88914 0.08652 0.0
N125 N 0.24927 0.84814 0.11161 0.0
N126 N 0.34879 0.87809 0.11161 0.0
C127 C 0.3382 0.90765 0.08648 0.0
H128 H 0.28692 0.81338 0.14815 0.0
H129 H 0.25479 0.90617 0.07011 0.0
C130 C 0.1573 0.80363 0.19843 0.0
N131 N 0.9991 0.75461 0.16209 0.0
C132 C 0.96399 0.77567 0.14931 0.0
C133 C 0.96978 0.72373 0.19045 0.0
N134 N 0.91464 0.76003 0.16845 0.0
C135 C 0.91771 0.72758 0.19463 0.0
C136 C 0.10663 0.69183 0.13179 0.0
O137 O 0.19702 0.82417 0.17462 0.0
O138 O 0.10196 0.78077 0.19061 0.0
O139 O 0.06129 0.69781 0.14055 0.0
O140 O 0.15712 0.73864 0.12501 0.0
O141 O 0.04974 0.78005 0.10212 0.0
H142 H 0.9868 0.7029 0.20796 0.0
H143 H 0.97653 0.80602 0.12769 0.0
O144 O 0.13866 0.80878 0.07943 0.0
O145 O 0.1842 0.89578 0.12924 0.0
O146 O 0.09534 0.86417 0.15268 0.0
C147 C 0.14687 0.90775 0.14347 0.0
H148 H 0.37215 0.9404 0.06933 0.0
H149 H 0.88575 0.70963 0.21557 0.0
Co150 Co 0.32301 0.15498 0.63375 0.0
C151 C 0.37069 0.16322 0.70038 0.0
Co152 Co 0.38291 0.11682 0.64099 0.0
C153 C 0.21941 0.17856 0.6332 0.0
C154 C 0.30713 0.25755 0.63746 0.0
N155 N 0.27943 0.19676 0.6326 0.0
N156 N 0.20954 0.22588 0.63784 0.0
C157 C 0.26484 0.27535 0.6403 0.0
H158 H 0.18386 0.13152 0.63161 0.0
H159 H 0.35528 0.28751 0.64117 0.0
C160 C 0.32996 0.09957 0.57602 0.0
N161 N 0.43232 0.08281 0.64261 0.0
C162 C 0.49251 0.11423 0.64863 0.0
C163 C 0.42211 0.02996 0.62891 0.0
N164 N 0.52125 0.08507 0.6375 0.0
C165 C 0.47675 0.03119 0.62573 0.0
C166 C 0.26119 0.03684 0.65144 0.0
O167 O 0.30125 0.12491 0.58794 0.0
O168 O 0.37133 0.099 0.59391 0.0
O169 O 0.31302 0.04073 0.64963 0.0
O170 O 0.25609 0.08389 0.64855 0.0
O171 O 0.39261 0.13211 0.68812 0.0
H172 H 0.37892 0.99546 0.61881 0.0
H173 H 0.51567 0.16045 0.65778 0.0
O174 O 0.34359 0.18172 0.68059 0.0
O175 O 0.38999 0.22503 0.61729 0.0
O176 O 0.4528 0.19467 0.63187 0.0
C177 C 0.44369 0.23559 0.61999 0.0
H178 H 0.2742 0.32086 0.64607 0.0
H179 H 0.48331 0.99677 0.61349 0.0
Co180 Co 0.72398 0.8479 0.39821 0.0
C181 C 0.64911 0.78998 0.34076 0.0
Co182 Co 0.65338 0.75328 0.4043 0.0
C183 C 0.80719 0.98035 0.39875 0.0
C184 C 0.80928 0.93458 0.35349 0.0
N185 N 0.78387 0.92459 0.38481 0.0
N186 N 0.84505 0.0242 0.37688 0.0
C187 C 0.84652 0.99536 0.34857 0.0
H188 H 0.79597 0.98871 0.42403 0.0
H189 H 0.80053 0.89966 0.33498 0.0
C190 C 0.72966 0.80643 0.46172 0.0
N191 N 0.59184 0.67605 0.41509 0.0
C192 C 0.53145 0.65475 0.41325 0.0
C193 C 0.59722 0.63126 0.42998 0.0
N194 N 0.49865 0.59867 0.42681 0.0
C195 C 0.54017 0.58362 0.43707 0.0
C196 C 0.76109 0.76358 0.38374 0.0
O197 O 0.7598 0.85387 0.44331 0.0
O198 O 0.67999 0.76348 0.45009 0.0
O199 O 0.70863 0.72356 0.39413 0.0
O200 O 0.77328 0.8181 0.38186 0.0
O201 O 0.62704 0.74148 0.35804 0.0
H202 H 0.63989 0.63375 0.43622 0.0
H203 H 0.51213 0.68091 0.40313 0.0
O204 O 0.68857 0.83933 0.35431 0.0
O205 O 0.67434 0.87944 0.41415 0.0
O206 O 0.59953 0.78552 0.41432 0.0
C207 C 0.61775 0.84204 0.41705 0.0
H208 H 0.87401 0.01671 0.32622 0.0
H209 H 0.53047 0.54141 0.44904 0.0
Co210 Co 0.86831 0.70405 0.89655 0.0
C211 C 0.84553 0.63068 0.83819 0.0
Co212 Co 0.89493 0.6349 0.89974 0.0
C213 C 0.81986 0.78808 0.90087 0.0
C214 C 0.86331 0.78923 0.85392 0.0
N215 N 0.85089 0.7644 0.88544 0.0
N216 N 0.81149 0.82509 0.8796 0.0
C217 C 0.83903 0.82605 0.85026 0.0
H218 H 0.803 0.77779 0.92675 0.0
H219 H 0.88774 0.78021 0.83433 0.0
C220 C 0.92503 0.71051 0.95729 0.0
N221 N 0.9113 0.57296 0.9075 0.0
C222 C 0.87092 0.51292 0.90684 0.0
C223 C 0.96286 0.57739 0.91981 0.0
N224 N 0.89459 0.47963 0.919 0.0
C225 C 0.95278 0.5201 0.92685 0.0
C226 C 0.98941 0.7426 0.87792 0.0
O227 O 0.90264 0.73858 0.94108 0.0
O228 O 0.91792 0.66105 0.94518 0.0
O229 O 0.97854 0.68999 0.88691 0.0
O230 O 0.94622 0.75377 0.87805 0.0
O231 O 0.87459 0.60937 0.85362 0.0
H232 H 1.00432 0.61959 0.92468 0.0
H233 H 0.8241 0.49411 0.89908 0.0
O234 O 0.83657 0.66963 0.85309 0.0
O235 O 0.78917 0.65488 0.91475 0.0
O236 O 0.80971 0.58107 0.91274 0.0
C237 C 0.77105 0.59856 0.91733 0.0
H238 H 0.84293 0.85314 0.8281 0.0
H239 H 0.98561 0.50935 0.93741 0.0
Co240 Co 0.17402 0.86603 0.40856 0.0
C241 C 0.20454 0.8472 0.34293 0.0
Co242 Co 0.2718 0.89887 0.40112 0.0
C243 C 0.0441 0.82033 0.39439 0.0
C244 C 0.06389 0.81214 0.44637 0.0
N245 N 0.09081 0.83434 0.416 0.0
N246 N 0.98933 0.78985 0.41021 0.0
C247 C 1.00209 0.78522 0.44295 0.0
H248 H 0.05011 0.83084 0.36748 0.0
H249 H 0.08762 0.81384 0.46953 0.0
C250 C 0.24577 0.92622 0.46486 0.0
N251 N 0.35528 0.92475 0.39614 0.0
C252 C 0.38523 0.89856 0.41052 0.0
C253 C 0.39747 0.96939 0.37646 0.0
N254 N 0.44393 0.92435 0.40039 0.0
C255 C 0.45178 0.96936 0.37907 0.0
C256 C 0.23485 0.98379 0.38787 0.0
O257 O 0.19192 0.90239 0.45321 0.0
O258 O 0.28583 0.92204 0.44751 0.0
O259 O 0.28239 0.97858 0.39093 0.0
O260 O 0.18257 0.93759 0.39189 0.0
O261 O 0.25837 0.87768 0.35439 0.0
H262 H 0.38893 0.99897 0.36049 0.0
H263 H 0.36425 0.86072 0.42803 0.0
O264 O 0.15975 0.83348 0.36298 0.0
O265 O 0.16415 0.79356 0.42559 0.0
O266 O 0.25665 0.81844 0.41113 0.0
C267 C 0.20475 0.77924 0.42235 0.0
H268 H 0.96915 0.76458 0.46327 0.0
H269 H 0.49315 0.99874 0.36524 0.0
Co270 Co 0.30065 0.15498 0.91025 0.0
C271 C 0.3521 0.18858 0.84574 0.0
Co272 Co 0.3659 0.25349 0.90525 0.0
C273 C 0.2146 0.02634 0.89383 0.0
C274 C 0.24168 0.04269 0.94605 0.0
N275 N 0.24753 0.07154 0.91626 0.0
N276 N 0.18924 0.97063 0.90856 0.0
C277 C 0.20609 0.98123 0.94146 0.0
H278 H 0.21083 0.03401 0.86707 0.0
H279 H 0.26353 0.06485 0.96958 0.0
C280 C 0.30895 0.22547 0.96765 0.0
N281 N 0.42454 0.33693 0.90103 0.0
C282 C 0.4818 0.36573 0.91404 0.0
C283 C 0.42103 0.38037 0.8832 0.0
N284 N 0.51419 0.42493 0.90488 0.0
C285 C 0.47567 0.43423 0.88558 0.0
C286 C 0.24554 0.21855 0.89034 0.0
O287 O 0.28115 0.17184 0.95535 0.0
O288 O 0.35439 0.26658 0.95154 0.0
O289 O 0.29821 0.26547 0.89444 0.0
O290 O 0.23881 0.16586 0.89351 0.0
O291 O 0.37516 0.24132 0.85866 0.0
H292 H 0.38185 0.37314 0.86865 0.0
H293 H 0.49982 0.34373 0.92994 0.0
O294 O 0.32003 0.14217 0.86443 0.0
O295 O 0.36219 0.14287 0.92715 0.0
O296 O 0.43024 0.23663 0.91572 0.0
C297 C 0.41727 0.18359 0.92495 0.0
H298 H 0.19309 0.94699 0.96106 0.0
H299 H 0.48678 0.47639 0.87298 0.0
Co300 Co 0.15967 0.31898 0.40922 0.0
C301 C 0.1709 0.37693 0.34492 0.0
Co302 Co 0.12315 0.38068 0.40505 0.0
C303 C 0.18451 0.21518 0.40728 0.0
C304 C 0.26075 0.30343 0.3987 0.0
N305 N 0.20089 0.27473 0.40677 0.0
N306 N 0.23229 0.20674 0.4004 0.0
C307 C 0.27999 0.26238 0.39515 0.0
H308 H 0.13843 0.17887 0.41165 0.0
H309 H 0.28878 0.3515 0.39376 0.0
C310 C 0.10338 0.31923 0.46782 0.0
N311 N 0.09134 0.43181 0.40669 0.0
C312 C 0.12397 0.49168 0.40006 0.0
C313 C 0.04071 0.42383 0.42243 0.0
N314 N 0.09776 0.52241 0.41252 0.0
C315 C 0.04451 0.47957 0.42607 0.0
C316 C 0.04137 0.26083 0.3898 0.0
O317 O 0.12816 0.29098 0.45448 0.0
O318 O 0.10459 0.36312 0.45164 0.0
O319 O 0.04572 0.31245 0.3945 0.0
O320 O 0.08796 0.2547 0.3922 0.0
O321 O 0.13928 0.39705 0.35844 0.0
H322 H 1.00605 0.38134 0.43321 0.0
H323 H 0.16908 0.51298 0.38917 0.0
O324 O 0.18752 0.3463 0.36313 0.0
O325 O 0.23084 0.38323 0.4277 0.0
O326 O 0.20216 0.4484 0.4158 0.0
C327 C 0.24275 0.43752 0.4264 0.0
H328 H 0.32504 0.27258 0.38737 0.0
H329 H 0.01219 0.48792 0.43951 0.0
Co330 Co 0.83604 0.14483 0.90978 0.0
C331 C 0.7981 0.15737 0.84355 0.0
Co332 Co 0.73764 0.10608 0.90195 0.0
C333 C 0.96428 0.16923 0.91007 0.0
C334 C 0.95423 0.24756 0.90683 0.0
N335 N 0.92172 0.18654 0.91111 0.0
N336 N 0.02126 0.21736 0.90589 0.0
C337 C 0.0145 0.26634 0.90405 0.0
H338 H 0.95353 0.12235 0.91101 0.0
H339 H 0.93558 0.27721 0.90341 0.0
C340 C 0.77204 0.08312 0.96599 0.0
N341 N 0.65405 0.07376 0.8999 0.0
C342 C 0.62681 0.10715 0.89513 0.0
C343 C 0.61006 0.02044 0.91243 0.0
N344 N 0.56875 0.07875 0.90611 0.0
C345 C 0.55758 0.02336 0.91632 0.0
C346 C 0.77967 0.02692 0.8894 0.0
O347 O 0.82672 0.11207 0.95491 0.0
O348 O 0.72997 0.08335 0.94853 0.0
O349 O 0.73125 0.03019 0.89112 0.0
O350 O 0.83147 0.07401 0.89359 0.0
O351 O 0.74472 0.12553 0.85527 0.0
H352 H 0.61712 0.9841 0.92119 0.0
H353 H 0.651 0.15391 0.88689 0.0
O354 O 0.84311 0.17424 0.86357 0.0
O355 O 0.83942 0.21431 0.92755 0.0
O356 O 0.74639 0.184 0.91312 0.0
C357 C 0.79637 0.225 0.92497 0.0
H358 H 0.05019 0.31227 0.89872 0.0
H359 H 0.51591 0.98871 0.92788 0.0
C360 C 0.1267 0.99171 0.16008 0.0
C361 C 0.16764 0.97164 0.15228 0.0
H362 H 0.11613 0.06797 0.17288 0.0
C363 C 0.23057 0.01332 0.15367 0.0
H364 H 0.07814 0.96053 0.15956 0.0
C365 C 0.25216 0.07401 0.16193 0.0
C366 C 0.21139 0.09466 0.16842 0.0
H367 H 0.26347 0.99909 0.14833 0.0
H368 H 0.30068 0.10529 0.16198 0.0
C369 C 0.14845 0.05295 0.16774 0.0
C370 C 0.14889 0.27733 0.6359 0.0
C371 C 0.15311 0.22524 0.64312 0.0
H372 H 0.0923 0.3176 0.63433 0.0
C373 C 0.1025 0.17412 0.6569 0.0
H374 H 0.18693 0.31735 0.62495 0.0
C375 C 0.04839 0.1745 0.66245 0.0
C376 C 0.04373 0.22599 0.65428 0.0
H377 H 0.10464 0.13387 0.6634 0.0
H378 H 0.00951 0.13366 0.67218 0.0
C379 C 0.09486 0.27781 0.64156 0.0
C380 C 0.9447 0.12947 0.19193 0.0
C381 C 0.89992 0.11978 0.16785 0.0
H382 H 0.04025 0.17495 0.20325 0.0
C383 C 0.9176 0.14893 0.13616 0.0
H384 H 0.93192 0.10652 0.2163 0.0
C385 C 0.97886 0.18831 0.12886 0.0
C386 C 0.02388 0.19782 0.15272 0.0
H387 H 0.8837 0.1415 0.11717 0.0
H388 H 0.9911 0.2113 0.10446 0.0
C389 C 1.0064 0.16767 0.18425 0.0
C390 C 0.80864 0.85358 0.67849 0.0
C391 C 0.7648 0.8013 0.66135 0.0
H392 H 0.85228 0.95028 0.68299 0.0
C393 C 0.7227 0.80583 0.6403 0.0
H394 H 0.84172 0.85139 0.69494 0.0
C395 C 0.72909 0.86273 0.63331 0.0
C396 C 0.77751 0.91599 0.64732 0.0
H397 H 0.68868 0.76653 0.62659 0.0
H398 H 0.69843 0.86539 0.61521 0.0
C399 C 0.81489 0.91038 0.67159 0.0
C400 C 0.86206 0.81376 0.18797 0.0
C401 C 0.87252 0.78088 0.16281 0.0
H402 H 0.8172 0.86385 0.20064 0.0
C403 C 0.84654 0.77396 0.13052 0.0
H404 H 0.88294 0.82045 0.21279 0.0
C405 C 0.80914 0.79813 0.12363 0.0
C406 C 0.79863 0.83119 0.14864 0.0
H407 H 0.85504 0.74941 0.11076 0.0
H408 H 0.78811 0.79071 0.09878 0.0
C409 C 0.82575 0.83944 0.18079 0.0
C410 C 0.10698 0.91509 0.62506 0.0
C411 C 0.09505 0.87051 0.64946 0.0
H412 H 0.16967 0.00451 0.60759 0.0
C413 C 0.14108 0.87742 0.67192 0.0
H414 H 0.07159 0.91063 0.60794 0.0
C415 C 0.19719 0.93081 0.67174 0.0
C416 C 0.20645 0.97782 0.64969 0.0
H417 H 0.13188 0.84323 0.69107 0.0
H418 H 0.23152 0.93691 0.69015 0.0
C419 C 0.16225 0.96891 0.62544 0.0
C420 C 0.8772 0.72449 0.41298 0.0
C421 C 0.92951 0.77059 0.39665 0.0
H422 H 0.78106 0.6843 0.42081 0.0
C423 C 0.92191 0.80237 0.36969 0.0
H424 H 0.88124 0.6978 0.43319 0.0
C425 C 0.86428 0.79362 0.36217 0.0
C426 C 0.81311 0.75293 0.38142 0.0
H427 H 0.96089 0.83775 0.3564 0.0
H428 H 0.86067 0.82299 0.34346 0.0
C429 C 0.81946 0.7157 0.40543 0.0
C430 C 0.06063 0.84828 0.85889 0.0
C431 C 0.05159 0.79579 0.87616 0.0
H432 H 0.11154 0.94537 0.85575 0.0
C433 C 0.09578 0.80116 0.89947 0.0
H434 H 0.0271 0.84558 0.84087 0.0
C435 C 0.14387 0.85862 0.90829 0.0
C436 C 0.14893 0.91177 0.89382 0.0
H437 H 0.0899 0.76184 0.91345 0.0
H438 H 0.17497 0.8616 0.928 0.0
C439 C 0.10888 0.90564 0.86755 0.0
C440 C 0.28738 0.14944 0.40216 0.0
C441 C 0.23349 0.15108 0.396 0.0
H442 H 0.33083 0.0956 0.40362 0.0
C443 C 0.18242 0.09873 0.38385 0.0
H444 H 0.32749 0.18904 0.41176 0.0
C445 C 0.1847 0.04554 0.37877 0.0
C446 C 0.23796 0.04332 0.38598 0.0
H447 H 0.14082 0.09892 0.37818 0.0
H448 H 0.14387 0.00542 0.3702 0.0
C449 C 0.28965 0.09615 0.39715 0.0
C450 C 0.18875 0.27292 0.90281 0.0
C451 C 0.18973 0.22274 0.88885 0.0
H452 H 0.13408 0.30934 0.92059 0.0
C453 C 0.13437 0.17116 0.87965 0.0
H454 H 0.2304 0.3126 0.91092 0.0
C455 C 0.07902 0.16895 0.88546 0.0
C456 C 0.07786 0.21833 0.90049 0.0
H457 H 0.13369 0.13151 0.86901 0.0
H458 H 0.03726 0.12866 0.87821 0.0
C459 C 0.13339 0.27062 0.90869 0.0
C460 C 0.96394 0.16629 0.41662 0.0
C461 C 0.98204 0.20592 0.38866 0.0
H462 H 0.90399 0.07641 0.43493 0.0
C463 C 0.94787 0.18832 0.35875 0.0
H464 H 0.99029 0.17954 0.43988 0.0
C465 C 0.89878 0.12934 0.35589 0.0
C466 C 0.88359 0.08782 0.38294 0.0
H467 H 0.96156 0.2185 0.33697 0.0
H468 H 0.87496 0.11489 0.33186 0.0
C469 C 0.91455 0.10767 0.41391 0.0
C470 C 0.8124 0.90451 0.91469 0.0
C471 C 0.78876 0.86507 0.88697 0.0
H472 H 0.82863 0.98835 0.93648 0.0
C473 C 0.75401 0.87443 0.86239 0.0
H474 H 0.83981 0.8983 0.9336 0.0
C475 C 0.74727 0.92561 0.86401 0.0
C476 C 0.77643 0.9681 0.88987 0.0
H477 H 0.73566 0.84421 0.84077 0.0
H478 H 0.72317 0.93405 0.84397 0.0
C479 C 0.80683 0.95619 0.91594 0.0
C480 C 0.15731 0.63063 0.13868 0.0
C481 C 0.10438 0.63254 0.13039 0.0
H482 H 0.20302 0.5793 0.13905 0.0
C483 C 0.05399 0.57996 0.11769 0.0
H484 H 0.19692 0.67048 0.14863 0.0
C485 C 0.05786 0.5274 0.11181 0.0
C486 C 0.1118 0.5264 0.11908 0.0
H487 H 0.01285 0.58031 0.1109 0.0
H488 H 0.01894 0.48782 0.10122 0.0
C489 C 0.16084 0.57826 0.13332 0.0
C490 C 0.67166 0.11727 0.6017 0.0
C491 C 0.71219 0.16894 0.62029 0.0
H492 H 0.57947 0.05016 0.59236 0.0
C493 C 0.68918 0.19357 0.64396 0.0
H494 H 0.68847 0.09702 0.58354 0.0
C495 C 0.62679 0.16533 0.65007 0.0
C496 C 0.58592 0.11261 0.63207 0.0
H497 H 0.71955 0.23239 0.65931 0.0
H498 H 0.61103 0.18415 0.66961 0.0
C499 C 0.60919 0.08963 0.60734 0.0
C500 C 0.46792 0.53361 0.10994 0.0
C501 C 0.46958 0.58861 0.11788 0.0
H502 H 0.41471 0.43579 0.10943 0.0
C503 C 0.41879 0.58595 0.13375 0.0
H504 H 0.50666 0.53407 0.09812 0.0
C505 C 0.36686 0.53024 0.14018 0.0
C506 C 0.36418 0.47536 0.13125 0.0
H507 H 0.41812 0.62705 0.14003 0.0
H508 H 0.32782 0.53022 0.1514 0.0
C509 C 0.41572 0.47734 0.1168 0.0
C510 C 0.8266 0.49665 0.616 0.0
C511 C 0.86874 0.55934 0.61702 0.0
H512 H 0.81112 0.40608 0.62175 0.0
C513 C 0.93042 0.57771 0.62233 0.0
H514 H 0.77869 0.48064 0.61226 0.0
C515 C 0.94892 0.53485 0.6282 0.0
C516 C 0.90647 0.47227 0.62856 0.0
H517 H 0.96428 0.62546 0.62354 0.0
H518 H 0.99648 0.55082 0.63307 0.0
C519 C 0.84525 0.45374 0.62149 0.0
C520 C 0.46315 0.8362 0.14116 0.0
C521 C 0.51854 0.88938 0.13432 0.0
H522 H 0.36625 0.79091 0.13921 0.0
C523 C 0.51747 0.94064 0.12201 0.0
H524 H 0.46257 0.7959 0.1507 0.0
C525 C 0.46168 0.93747 0.11503 0.0
C526 C 0.40626 0.8833 0.12076 0.0
H527 H 0.55949 0.98198 0.11628 0.0
H528 H 0.46192 0.97709 0.10477 0.0
C529 C 0.40782 0.8333 0.13466 0.0
C530 C 0.58241 0.38671 0.63504 0.0
C531 C 0.56991 0.42413 0.61406 0.0
H532 H 0.55248 0.29626 0.65269 0.0
C533 C 0.52113 0.39703 0.59119 0.0
H534 H 0.61957 0.40596 0.65299 0.0
C535 C 0.48287 0.33444 0.59118 0.0
C536 C 0.49294 0.29765 0.61379 0.0
H537 H 0.51133 0.42417 0.57394 0.0
H538 H 0.44354 0.31504 0.57461 0.0
C539 C 0.54432 0.32379 0.63475 0.0
C540 C 0.46796 0.84329 0.41539 0.0
C541 C 0.48741 0.90464 0.40814 0.0
H542 H 0.49329 0.77544 0.42407 0.0
C543 C 0.55037 0.94583 0.40707 0.0
H544 H 0.41999 0.81005 0.41617 0.0
C545 C 0.59254 0.92604 0.41197 0.0
C546 C 0.57311 0.86428 0.41774 0.0
H547 H 0.56715 0.99343 0.40199 0.0
H548 H 0.64051 0.959 0.4099 0.0
C549 C 0.51015 0.82336 0.41993 0.0
C550 C 0.66135 0.57286 0.91636 0.0
C551 C 0.70436 0.5535 0.91942 0.0
H552 H 0.56786 0.54769 0.90943 0.0
C553 C 0.6828 0.49057 0.92002 0.0
H554 H 0.67589 0.6208 0.91561 0.0
C555 C 0.62042 0.44844 0.91647 0.0
C556 C 0.57781 0.46799 0.91182 0.0
H557 H 0.71435 0.47375 0.92207 0.0
H558 H 0.60597 0.40056 0.91591 0.0
C559 C 0.59919 0.53083 0.91246 0.0
C560 C 0.13601 0.6762 0.4452 0.0
C561 C 0.18584 0.71456 0.42459 0.0
H562 H 0.06909 0.58541 0.45776 0.0
C563 C 0.20788 0.68905 0.40091 0.0
H564 H 0.1178 0.69499 0.46344 0.0
C565 C 0.17851 0.6262 0.39667 0.0
C566 C 0.12725 0.58746 0.41654 0.0
H567 H 0.24519 0.7177 0.38408 0.0
H568 H 0.1951 0.60843 0.37699 0.0
C569 C 0.10727 0.61335 0.44139 0.0
C570 C 0.4849 0.08272 0.93631 0.0
C571 C 0.53262 0.1073 0.91243 0.0
H572 H 0.41216 0.08898 0.95984 0.0
C573 C 0.54635 0.16209 0.89603 0.0
H574 H 0.47359 0.04164 0.95013 0.0
C575 C 0.51233 0.19046 0.90263 0.0
C576 C 0.46306 0.16413 0.92526 0.0
H577 H 0.5822 0.18243 0.87726 0.0
H578 H 0.52216 0.23081 0.88832 0.0
C579 C 0.45038 0.11061 0.94247 0.0
C580 C 0.33164 0.53877 0.41215 0.0
C581 C 0.30597 0.48579 0.43194 0.0
H582 H 0.41309 0.61536 0.39408 0.0
C583 C 0.34388 0.47386 0.45255 0.0
H584 H 0.3034 0.54857 0.3957 0.0
C585 C 0.40668 0.51216 0.45191 0.0
C586 C 0.4333 0.56292 0.43018 0.0
H587 H 0.32509 0.43331 0.46817 0.0
H588 H 0.43418 0.50073 0.46783 0.0
C589 C 0.39477 0.57683 0.41111 0.0
C590 C 0.81134 0.37608 0.90499 0.0
C591 C 0.86324 0.41488 0.92422 0.0
H592 H 0.74773 0.28425 0.89091 0.0
C593 C 0.88506 0.38926 0.94807 0.0
H594 H 0.79317 0.39418 0.88643 0.0
C595 C 0.85894 0.32652 0.95063 0.0
C596 C 0.81016 0.28796 0.92957 0.0
H597 H 0.92355 0.41759 0.9641 0.0
H598 H 0.87919 0.3082 0.96776 0.0
C599 C 0.78483 0.31302 0.90775 0.0
C600 C 0.22679 0.37114 0.29422 0.0
C601 C 0.18316 0.38352 0.30782 0.0
H602 H 0.26563 0.3565 0.24978 0.0
C603 C 0.14768 0.39639 0.28536 0.0
H604 H 0.25526 0.36176 0.31074 0.0
C605 C 0.15307 0.39274 0.24992 0.0
C606 C 0.19426 0.3765 0.23653 0.0
H607 H 0.11359 0.40616 0.29516 0.0
H608 H 0.12313 0.39959 0.23322 0.0
C609 C 0.23252 0.36806 0.25914 0.0
C610 C 0.78051 0.1316 0.74815 0.0
C611 C 0.83289 0.1828 0.73576 0.0
H612 H 0.72742 0.08458 0.79205 0.0
C613 C 0.87218 0.22716 0.75902 0.0
H614 H 0.74937 0.09688 0.73081 0.0
C615 C 0.86044 0.21956 0.79403 0.0
C616 C 0.80811 0.1684 0.80646 0.0
H617 H 0.91307 0.26705 0.75021 0.0
H618 H 0.89245 0.25354 0.8114 0.0
C619 C 0.76777 0.12492 0.78314 0.0
C620 C 0.62559 0.85202 0.25944 0.0
C621 C 0.62362 0.8104 0.23521 0.0
H622 H 0.63482 0.87755 0.31177 0.0
C623 C 0.6197 0.75605 0.24652 0.0
H624 H 0.6277 0.8939 0.2516 0.0
C625 C 0.62318 0.74637 0.28152 0.0
C626 C 0.63104 0.79118 0.30525 0.0
H627 H 0.61832 0.72332 0.22837 0.0
H628 H 0.62423 0.70623 0.28974 0.0
C629 C 0.62968 0.84273 0.29396 0.0
C630 C 0.85676 0.61527 0.74373 0.0
C631 C 0.80583 0.61814 0.73222 0.0
H632 H 0.9082 0.61469 0.78685 0.0
C633 C 0.76318 0.61525 0.75596 0.0
H634 H 0.89031 0.61753 0.7258 0.0
C635 C 0.77425 0.61522 0.79081 0.0
C636 C 0.82714 0.61622 0.80234 0.0
H637 H 0.7239 0.61794 0.7477 0.0
H638 H 0.74301 0.6175 0.80877 0.0
C639 C 0.86688 0.61339 0.77857 0.0
C640 C 0.23203 0.84658 0.24738 0.0
C641 C 0.17264 0.80937 0.23532 0.0
H642 H 0.28887 0.88762 0.29099 0.0
C643 C 0.12505 0.78102 0.25929 0.0
H644 H 0.26962 0.86917 0.22972 0.0
C645 C 0.13575 0.79195 0.2941 0.0
C646 C 0.1945 0.83112 0.30618 0.0
H647 H 0.07864 0.75152 0.25113 0.0
H648 H 0.09757 0.77065 0.3115 0.0
C649 C 0.24287 0.85721 0.28251 0.0
C650 C 0.36537 0.22842 0.78628 0.0
C651 C 0.35962 0.18266 0.80875 0.0
H652 H 0.37243 0.25777 0.73438 0.0
C653 C 0.36023 0.13179 0.79536 0.0
H654 H 0.36473 0.26807 0.79584 0.0
C655 C 0.3666 0.12692 0.7602 0.0
C656 C 0.37057 0.17191 0.73769 0.0
H657 H 0.356 0.09596 0.81205 0.0
H658 H 0.36633 0.08688 0.75052 0.0
C659 C 0.36979 0.22264 0.7511 0.0
C660 C 0.23596 0.19881 1.01697 0.0
C661 C 0.2814 0.24299 0.99603 0.0
H662 H 0.17547 0.18061 0.05917 0.0
C663 C 0.29572 0.30398 1.00006 0.0
H664 H 0.22286 0.15142 1.01428 0.0
C665 C 0.26672 0.32047 0.02498 0.0
C666 C 0.2231 0.27648 0.04676 0.0
H667 H 0.32947 0.33923 0.98388 0.0
H668 H 0.28089 0.36798 0.02844 0.0
C669 C 0.20788 0.21545 0.04224 0.0
C670 C 0.03642 0.23564 0.50927 0.0
C671 C 0.06272 0.29625 0.49816 0.0
H672 H 0.97056 0.16588 0.54211 0.0
C673 C 0.0414 0.33297 0.51242 0.0
H674 H 0.05087 0.20574 0.49841 0.0
C675 C 0.99465 0.30993 0.53644 0.0
C676 C 0.96762 0.24932 0.54741 0.0
H677 H 0.05997 0.37973 0.50441 0.0
H678 H 0.98014 0.34022 0.54669 0.0
C679 C 0.98938 0.21243 0.53371 0.0
C680 C 0.77975 0.99785 0.04385 0.0
C681 C 0.71878 0.95097 0.04725 0.0
H682 H 0.8447 0.07635 1.01582 0.0
C683 C 0.67606 0.94773 0.02364 0.0
H684 H 0.81355 1.00205 0.06213 0.0
C685 C 0.69349 0.99172 0.99797 0.0
C686 C 0.75429 0.03951 0.99492 0.0
H687 H 0.62863 0.91327 0.02613 0.0
H688 H 0.65898 0.98816 0.98048 0.0
C689 C 0.79749 0.04108 1.01772 0.0
C690 C 0.83571 0.79862 0.52953 0.0
C691 C 0.79382 0.74708 0.54829 0.0
H692 H 0.84906 0.85885 0.48723 0.0
C693 C 0.73176 0.72145 0.54015 0.0
H694 H 0.88374 0.82038 0.53528 0.0
C695 C 0.71206 0.74447 0.51402 0.0
C696 C 0.75329 0.79379 0.49399 0.0
H697 H 0.69727 0.68278 0.55407 0.0
H698 H 0.66374 0.72166 0.50876 0.0
C699 C 0.81569 0.82134 0.50236 0.0
C700 C 0.96266 0.77426 1.01123 0.0
C701 C 0.96889 0.73847 0.98617 0.0
H702 H 0.99423 0.81964 0.05927 0.0
C703 C 0.01872 0.7283 0.98865 0.0
H704 H 0.92545 0.78353 1.01003 0.0
C705 C 0.05945 0.75069 1.01616 0.0
C706 C 0.05085 0.78296 0.04239 0.0
H707 H 0.02578 0.70189 0.96943 0.0
H708 H 0.09525 0.73942 1.01793 0.0
C709 C 1.00253 0.79533 0.03926 0.0
C710 C 0.32532 0.99473 0.50631 0.0
C711 C 0.26525 0.96843 0.49444 0.0
H712 H 0.39314 0.05788 0.54017 0.0
C713 C 0.22748 0.98918 0.50808 0.0
H714 H 0.35612 0.98076 0.49614 0.0
C715 C 0.24927 0.03469 0.53319 0.0
C716 C 0.30928 0.06034 0.54522 0.0
H717 H 0.18129 0.97079 0.49909 0.0
H718 H 0.21864 0.04841 0.54389 0.0
C719 C 0.34691 0.03983 0.53128 0.0
loop_
_geom_bond_atom_site_label_1
_geom_bond_atom_site_label_2
_geom_bond_distance
_geom_bond_site_symmetry_2
_ccdc_geom_bond_type
Co0 N5 2.057 . S
Co0 O17 2.021 . S
Co0 O20 2.062 . S
Co0 O24 2.117 . S
Co0 O25 2.020 . S
C1 O21 1.259 . S
C1 O24 1.258 . S
Co2 N11 2.057 . S
Co2 O18 2.117 . S
Co2 O19 2.020 . S
Co2 O21 2.021 . S
Co2 O26 2.062 . S
C3 N5 1.316 . S
C3 N6 1.347 . S
C3 H8 0.931 . S
C4 N5 1.375 . S
C4 C7 1.350 . S
C4 H9 0.930 . S
N5 Co0 2.057 . S
N5 C3 1.316 . S
N5 C4 1.375 . S
N6 C3 1.347 . S
N6 C7 1.373 . S
C7 C4 1.350 . S
C7 N6 1.373 . S
C7 H28 0.931 . S
H8 C3 0.931 . S
H9 C4 0.930 . S
C10 O17 1.259 . S
C10 O18 1.258 . S
N11 Co2 2.057 . S
N11 C12 1.316 . S
N11 C13 1.375 . S
C12 N11 1.316 . S
C12 N14 1.347 . S
C12 H23 0.931 . S
C13 N11 1.375 . S
C13 C15 1.350 . S
C13 H22 0.930 . S
N14 C12 1.347 . S
N14 C15 1.373 . S
C15 C13 1.350 . S
C15 N14 1.373 . S
C15 H29 0.931 . S
C16 O19 1.256 . S
C16 O20 1.255 . S
O17 Co0 2.021 . S
O17 C10 1.259 . S
O18 Co2 2.117 . S
O18 C10 1.258 . S
O19 Co2 2.020 . S
O19 C16 1.256 . S
O20 Co0 2.062 . S
O20 C16 1.255 . S
O21 C1 1.259 . S
O21 Co2 2.021 . S
H22 C13 0.930 . S
H23 C12 0.931 . S
O24 Co0 2.117 . S
O24 C1 1.258 . S
O25 Co0 2.020 . S
O25 C27 1.256 . S
O26 Co2 2.062 . S
O26 C27 1.255 . S
C27 O25 1.256 . S
C27 O26 1.255 . S
H28 C7 0.931 . S
H29 C15 0.931 . S
Co30 N35 2.057 . S
Co30 O47 2.021 . S
Co30 O50 2.062 . S
Co30 O54 2.117 . S
Co30 O55 2.020 . S
C31 O51 1.259 . S
C31 O54 1.258 . S
Co32 N41 2.057 . S
Co32 O48 2.117 . S
Co32 O49 2.020 . S
Co32 O51 2.021 . S
Co32 O56 2.062 . S
C33 N35 1.316 . S
C33 N36 1.347 1_545 S
C33 H38 0.931 . S
C34 N35 1.375 . S
C34 C37 1.350 1_545 S
C34 H39 0.930 . S
N35 Co30 2.057 . S
N35 C33 1.316 . S
N35 C34 1.375 . S
N36 C33 1.347 1_565 S
N36 C37 1.373 . S
C37 C34 1.350 1_565 S
C37 N36 1.373 . S
C37 H58 0.931 . S
H38 C33 0.931 . S
H39 C34 0.930 . S
C40 O47 1.259 . S
C40 O48 1.258 . S
N41 Co32 2.057 . S
N41 C42 1.316 . S
N41 C43 1.375 . S
C42 N41 1.316 . S
C42 N44 1.347 . S
C42 H53 0.931 . S
C43 N41 1.375 . S
C43 C45 1.350 . S
C43 H52 0.930 . S
N44 C42 1.347 . S
N44 C45 1.373 . S
C45 C43 1.350 . S
C45 N44 1.373 . S
C45 H59 0.931 . S
C46 O49 1.256 . S
C46 O50 1.255 . S
O47 Co30 2.021 . S
O47 C40 1.259 . S
O48 Co32 2.117 . S
O48 C40 1.258 . S
O49 Co32 2.020 . S
O49 C46 1.256 . S
O50 Co30 2.062 . S
O50 C46 1.255 . S
O51 C31 1.259 . S
O51 Co32 2.021 . S
H52 C43 0.930 . S
H53 C42 0.931 . S
O54 Co30 2.117 . S
O54 C31 1.258 . S
O55 Co30 2.020 . S
O55 C57 1.256 . S
O56 Co32 2.062 . S
O56 C57 1.255 . S
C57 O55 1.256 . S
C57 O56 1.255 . S
H58 C37 0.931 . S
H59 C45 0.931 . S
Co60 N65 2.057 . S
Co60 O77 2.021 . S
Co60 O80 2.062 . S
Co60 O84 2.117 . S
Co60 O85 2.020 . S
C61 O81 1.259 . S
C61 O84 1.258 . S
Co62 N71 2.057 1_565 S
Co62 O78 2.117 . S
Co62 O79 2.020 . S
Co62 O81 2.021 . S
Co62 O86 2.062 . S
C63 N65 1.316 . S
C63 N66 1.347 . S
C63 H68 0.931 . S
C64 N65 1.375 . S
C64 C67 1.350 . S
C64 H69 0.930 . S
N65 Co60 2.057 . S
N65 C63 1.316 . S
N65 C64 1.375 . S
N66 C63 1.347 . S
N66 C67 1.373 . S
C67 C64 1.350 . S
C67 N66 1.373 . S
C67 H88 0.931 . S
H68 C63 0.931 . S
H69 C64 0.930 . S
C70 O77 1.259 . S
C70 O78 1.258 . S
N71 Co62 2.057 1_545 S
N71 C72 1.316 . S
N71 C73 1.375 . S
C72 N71 1.316 . S
C72 N74 1.347 . S
C72 H83 0.931 . S
C73 N71 1.375 . S
C73 C75 1.350 . S
C73 H82 0.922 1_545 S
N74 C72 1.347 . S
N74 C75 1.373 . S
C75 C73 1.350 . S
C75 N74 1.373 . S
C75 H89 0.931 . S
C76 O79 1.256 . S
C76 O80 1.255 . S
O77 Co60 2.021 . S
O77 C70 1.259 . S
O78 Co62 2.117 . S
O78 C70 1.258 . S
O79 Co62 2.020 . S
O79 C76 1.256 . S
O80 Co60 2.062 . S
O80 C76 1.255 . S
O81 C61 1.259 . S
O81 Co62 2.021 . S
H82 C73 0.922 1_565 S
H83 C72 0.931 . S
O84 Co60 2.117 . S
O84 C61 1.258 . S
O85 Co60 2.020 . S
O85 C87 1.256 . S
O86 Co62 2.062 . S
O86 C87 1.255 . S
C87 O85 1.256 . S
C87 O86 1.255 . S
H88 C67 0.931 . S
H89 C75 0.931 . S
Co90 N95 2.057 . S
Co90 O107 2.021 . S
Co90 O110 2.062 . S
Co90 O114 2.117 . S
Co90 O115 2.020 . S
C91 O111 1.259 . S
C91 O114 1.258 . S
Co92 N101 2.057 . S
Co92 O108 2.117 . S
Co92 O109 2.020 . S
Co92 O111 2.021 . S
Co92 O116 2.062 . S
C93 N95 1.316 . S
C93 N96 1.347 1_655 S
C93 H98 0.931 . S
C94 N95 1.375 . S
C94 C97 1.350 1_655 S
C94 H99 0.930 . S
N95 Co90 2.057 . S
N95 C93 1.316 . S
N95 C94 1.375 . S
N96 C93 1.347 1_455 S
N96 C97 1.373 . S
C97 C94 1.350 1_455 S
C97 N96 1.373 . S
C97 H118 0.931 . S
H98 C93 0.931 . S
H99 C94 0.930 . S
C100 O107 1.259 . S
C100 O108 1.258 . S
N101 Co92 2.057 . S
N101 C102 1.316 . S
N101 C103 1.375 . S
C102 N101 1.316 . S
C102 N104 1.347 . S
C102 H113 0.931 . S
C103 N101 1.375 . S
C103 C105 1.350 . S
C103 H112 0.930 . S
N104 C102 1.347 . S
N104 C105 1.373 . S
C105 C103 1.350 . S
C105 N104 1.373 . S
C105 H119 0.931 . S
C106 O109 1.256 . S
C106 O110 1.255 . S
O107 Co90 2.021 . S
O107 C100 1.259 . S
O108 Co92 2.117 . S
O108 C100 1.258 . S
O109 Co92 2.020 . S
O109 C106 1.256 . S
O110 Co90 2.062 . S
O110 C106 1.255 . S
O111 C91 1.259 . S
O111 Co92 2.021 . S
H112 C103 0.930 . S
H113 C102 0.931 . S
O114 Co90 2.117 . S
O114 C91 1.258 . S
O115 Co90 2.020 . S
O115 C117 1.256 . S
O116 Co92 2.062 . S
O116 C117 1.255 . S
C117 O115 1.256 . S
C117 O116 1.255 . S
H118 C97 0.931 . S
H119 C105 0.931 . S
Co120 N125 2.057 . S
Co120 O137 2.021 . S
Co120 O140 2.062 . S
Co120 O144 2.117 . S
Co120 O145 2.020 . S
C121 O141 1.259 . S
C121 O144 1.258 . S
Co122 N131 2.057 1_455 S
Co122 O138 2.117 . S
Co122 O139 2.020 . S
Co122 O141 2.021 . S
Co122 O146 2.062 . S
C123 N125 1.316 . S
C123 N126 1.347 . S
C123 H128 0.931 . S
C124 N125 1.375 . S
C124 C127 1.350 . S
C124 H129 0.930 . S
N125 Co120 2.057 . S
N125 C123 1.316 . S
N125 C124 1.375 . S
N126 C123 1.347 . S
N126 C127 1.373 . S
C127 C124 1.350 . S
C127 N126 1.373 . S
C127 H148 0.931 . S
H128 C123 0.931 . S
H129 C124 0.930 . S
C130 O137 1.259 . S
C130 O138 1.258 . S
N131 Co122 2.057 1_655 S
N131 C132 1.316 . S
N131 C133 1.375 . S
C132 N131 1.316 . S
C132 N134 1.347 . S
C132 H143 0.931 . S
C133 N131 1.375 . S
C133 C135 1.350 . S
C133 H142 0.916 1_655 S
N134 C132 1.347 . S
N134 C135 1.373 . S
C135 C133 1.350 . S
C135 N134 1.373 . S
C135 H149 0.931 . S
C136 O139 1.256 . S
C136 O140 1.255 . S
O137 Co120 2.021 . S
O137 C130 1.259 . S
O138 Co122 2.117 . S
O138 C130 1.258 . S
O139 Co122 2.020 . S
O139 C136 1.256 . S
O140 Co120 2.062 . S
O140 C136 1.255 . S
O141 C121 1.259 . S
O141 Co122 2.021 . S
H142 C133 0.916 1_455 S
H143 C132 0.931 . S
O144 Co120 2.117 . S
O144 C121 1.258 . S
O145 Co120 2.020 . S
O145 C147 1.256 . S
O146 Co122 2.062 . S
O146 C147 1.255 . S
C147 O145 1.256 . S
C147 O146 1.255 . S
H148 C127 0.931 . S
H149 C135 0.931 . S
Co150 N155 2.057 . S
Co150 O167 2.021 . S
Co150 O170 2.062 . S
Co150 O174 2.117 . S
Co150 O175 2.020 . S
C151 O171 1.259 . S
C151 O174 1.258 . S
Co152 N161 2.057 . S
Co152 O168 2.117 . S
Co152 O169 2.020 . S
Co152 O171 2.021 . S
Co152 O176 2.062 . S
C153 N155 1.316 . S
C153 N156 1.347 . S
C153 H158 0.931 . S
C154 N155 1.375 . S
C154 C157 1.350 . S
C154 H159 0.930 . S
N155 Co150 2.057 . S
N155 C153 1.316 . S
N155 C154 1.375 . S
N156 C153 1.347 . S
N156 C157 1.373 . S
C157 C154 1.350 . S
C157 N156 1.373 . S
C157 H178 0.931 . S
H158 C153 0.931 . S
H159 C154 0.930 . S
C160 O167 1.259 . S
C160 O168 1.258 . S
N161 Co152 2.057 . S
N161 C162 1.316 . S
N161 C163 1.375 . S
C162 N161 1.316 . S
C162 N164 1.347 . S
C162 H173 0.931 . S
C163 N161 1.375 . S
C163 C165 1.350 . S
C163 H172 0.930 . S
N164 C162 1.347 . S
N164 C165 1.373 . S
C165 C163 1.350 . S
C165 N164 1.373 . S
C165 H179 0.931 . S
C166 O169 1.256 . S
C166 O170 1.255 . S
O167 Co150 2.021 . S
O167 C160 1.259 . S
O168 Co152 2.117 . S
O168 C160 1.258 . S
O169 Co152 2.020 . S
O169 C166 1.256 . S
O170 Co150 2.062 . S
O170 C166 1.255 . S
O171 C151 1.259 . S
O171 Co152 2.021 . S
H172 C163 0.930 . S
H173 C162 0.931 . S
O174 Co150 2.117 . S
O174 C151 1.258 . S
O175 Co150 2.020 . S
O175 C177 1.256 . S
O176 Co152 2.062 . S
O176 C177 1.255 . S
C177 O175 1.256 . S
C177 O176 1.255 . S
H178 C157 0.931 . S
H179 C165 0.931 . S
Co180 N185 2.057 . S
Co180 O197 2.021 . S
Co180 O200 2.062 . S
Co180 O204 2.117 . S
Co180 O205 2.020 . S
C181 O201 1.259 . S
C181 O204 1.258 . S
Co182 N191 2.057 . S
Co182 O198 2.117 . S
Co182 O199 2.020 . S
Co182 O201 2.021 . S
Co182 O206 2.062 . S
C183 N185 1.316 . S
C183 N186 1.347 1_565 S
C183 H188 0.931 . S
C184 N185 1.375 . S
C184 C187 1.350 1_565 S
C184 H189 0.930 . S
N185 Co180 2.057 . S
N185 C183 1.316 . S
N185 C184 1.375 . S
N186 C183 1.347 1_545 S
N186 C187 1.373 . S
C187 C184 1.350 1_545 S
C187 N186 1.373 . S
C187 H208 0.931 . S
H188 C183 0.931 . S
H189 C184 0.930 . S
C190 O197 1.259 . S
C190 O198 1.258 . S
N191 Co182 2.057 . S
N191 C192 1.316 . S
N191 C193 1.375 . S
C192 N191 1.316 . S
C192 N194 1.347 . S
C192 H203 0.931 . S
C193 N191 1.375 . S
C193 C195 1.350 . S
C193 H202 0.930 . S
N194 C192 1.347 . S
N194 C195 1.373 . S
C195 C193 1.350 . S
C195 N194 1.373 . S
C195 H209 0.931 . S
C196 O199 1.256 . S
C196 O200 1.255 . S
O197 Co180 2.021 . S
O197 C190 1.259 . S
O198 Co182 2.117 . S
O198 C190 1.258 . S
O199 Co182 2.020 . S
O199 C196 1.256 . S
O200 Co180 2.062 . S
O200 C196 1.255 . S
O201 C181 1.259 . S
O201 Co182 2.021 . S
H202 C193 0.930 . S
H203 C192 0.931 . S
O204 Co180 2.117 . S
O204 C181 1.258 . S
O205 Co180 2.020 . S
O205 C207 1.256 . S
O206 Co182 2.062 . S
O206 C207 1.255 . S
C207 O205 1.256 . S
C207 O206 1.255 . S
H208 C187 0.931 . S
H209 C195 0.931 . S
Co210 N215 2.057 . S
Co210 O227 2.021 . S
Co210 O230 2.062 . S
Co210 O234 2.117 . S
Co210 O235 2.020 . S
C211 O231 1.259 . S
C211 O234 1.258 . S
Co212 N221 2.057 . S
Co212 O228 2.117 . S
Co212 O229 2.020 . S
Co212 O231 2.021 . S
Co212 O236 2.062 . S
C213 N215 1.316 . S
C213 N216 1.347 . S
C213 H218 0.931 . S
C214 N215 1.375 . S
C214 C217 1.350 . S
C214 H219 0.930 . S
N215 Co210 2.057 . S
N215 C213 1.316 . S
N215 C214 1.375 . S
N216 C213 1.347 . S
N216 C217 1.373 . S
C217 C214 1.350 . S
C217 N216 1.373 . S
C217 H238 0.931 . S
H218 C213 0.931 . S
H219 C214 0.930 . S
C220 O227 1.259 . S
C220 O228 1.258 . S
N221 Co212 2.057 . S
N221 C222 1.316 . S
N221 C223 1.375 . S
C222 N221 1.316 . S
C222 N224 1.347 . S
C222 H233 0.931 . S
C223 N221 1.375 . S
C223 C225 1.350 . S
C223 H232 0.930 . S
N224 C222 1.347 . S
N224 C225 1.373 . S
C225 C223 1.350 . S
C225 N224 1.373 . S
C225 H239 0.931 . S
C226 O229 1.256 . S
C226 O230 1.255 . S
O227 Co210 2.021 . S
O227 C220 1.259 . S
O228 Co212 2.117 . S
O228 C220 1.258 . S
O229 Co212 2.020 . S
O229 C226 1.256 . S
O230 Co210 2.062 . S
O230 C226 1.255 . S
O231 C211 1.259 . S
O231 Co212 2.021 . S
H232 C223 0.930 . S
H233 C222 0.931 . S
O234 Co210 2.117 . S
O234 C211 1.258 . S
O235 Co210 2.020 . S
O235 C237 1.256 . S
O236 Co212 2.062 . S
O236 C237 1.255 . S
C237 O235 1.256 . S
C237 O236 1.255 . S
H238 C217 0.931 . S
H239 C225 0.931 . S
Co240 N245 2.057 . S
Co240 O257 2.021 . S
Co240 O260 2.062 . S
Co240 O264 2.117 . S
Co240 O265 2.020 . S
C241 O261 1.259 . S
C241 O264 1.258 . S
Co242 N251 2.057 . S
Co242 O258 2.117 . S
Co242 O259 2.020 . S
Co242 O261 2.021 . S
Co242 O266 2.062 . S
C243 N245 1.316 . S
C243 N246 1.347 1_455 S
C243 H248 0.931 . S
C244 N245 1.375 . S
C244 C247 1.350 1_455 S
C244 H249 0.930 . S
N245 Co240 2.057 . S
N245 C243 1.316 . S
N245 C244 1.375 . S
N246 C243 1.347 1_655 S
N246 C247 1.373 . S
C247 C244 1.350 1_655 S
C247 N246 1.373 . S
C247 H268 0.931 . S
H248 C243 0.931 . S
H249 C244 0.930 . S
C250 O257 1.259 . S
C250 O258 1.258 . S
N251 Co242 2.057 . S
N251 C252 1.316 . S
N251 C253 1.375 . S
C252 N251 1.316 . S
C252 N254 1.347 . S
C252 H263 0.931 . S
C253 N251 1.375 . S
C253 C255 1.350 . S
C253 H262 0.930 . S
N254 C252 1.347 . S
N254 C255 1.373 . S
C255 C253 1.350 . S
C255 N254 1.373 . S
C255 H269 0.931 . S
C256 O259 1.256 . S
C256 O260 1.255 . S
O257 Co240 2.021 . S
O257 C250 1.259 . S
O258 Co242 2.117 . S
O258 C250 1.258 . S
O259 Co242 2.020 . S
O259 C256 1.256 . S
O260 Co240 2.062 . S
O260 C256 1.255 . S
O261 C241 1.259 . S
O261 Co242 2.021 . S
H262 C253 0.930 . S
H263 C252 0.931 . S
O264 Co240 2.117 . S
O264 C241 1.258 . S
O265 Co240 2.020 . S
O265 C267 1.256 . S
O266 Co242 2.062 . S
O266 C267 1.255 . S
C267 O265 1.256 . S
C267 O266 1.255 . S
H268 C247 0.931 . S
H269 C255 0.931 . S
Co270 N275 2.057 . S
Co270 O287 2.021 . S
Co270 O290 2.062 . S
Co270 O294 2.117 . S
Co270 O295 2.020 . S
C271 O291 1.259 . S
C271 O294 1.258 . S
Co272 N281 2.057 . S
Co272 O288 2.117 . S
Co272 O289 2.020 . S
Co272 O291 2.021 . S
Co272 O296 2.062 . S
C273 N275 1.316 . S
C273 N276 1.347 1_545 S
C273 H278 0.931 . S
C274 N275 1.375 . S
C274 C277 1.350 1_545 S
C274 H279 0.930 . S
N275 Co270 2.057 . S
N275 C273 1.316 . S
N275 C274 1.375 . S
N276 C273 1.347 1_565 S
N276 C277 1.373 . S
C277 C274 1.350 1_565 S
C277 N276 1.373 . S
C277 H298 0.931 . S
H278 C273 0.931 . S
H279 C274 0.930 . S
C280 O287 1.259 . S
C280 O288 1.258 . S
N281 Co272 2.057 . S
N281 C282 1.316 . S
N281 C283 1.375 . S
C282 N281 1.316 . S
C282 N284 1.347 . S
C282 H293 0.931 . S
C283 N281 1.375 . S
C283 C285 1.350 . S
C283 H292 0.930 . S
N284 C282 1.347 . S
N284 C285 1.373 . S
C285 C283 1.350 . S
C285 N284 1.373 . S
C285 H299 0.931 . S
C286 O289 1.256 . S
C286 O290 1.255 . S
O287 Co270 2.021 . S
O287 C280 1.259 . S
O288 Co272 2.117 . S
O288 C280 1.258 . S
O289 Co272 2.020 . S
O289 C286 1.256 . S
O290 Co270 2.062 . S
O290 C286 1.255 . S
O291 C271 1.259 . S
O291 Co272 2.021 . S
H292 C283 0.930 . S
H293 C282 0.931 . S
O294 Co270 2.117 . S
O294 C271 1.258 . S
O295 Co270 2.020 . S
O295 C297 1.256 . S
O296 Co272 2.062 . S
O296 C297 1.255 . S
C297 O295 1.256 . S
C297 O296 1.255 . S
H298 C277 0.931 . S
H299 C285 0.931 . S
Co300 N305 2.057 . S
Co300 O317 2.021 . S
Co300 O320 2.062 . S
Co300 O324 2.117 . S
Co300 O325 2.020 . S
C301 O321 1.259 . S
C301 O324 1.258 . S
Co302 N311 2.057 . S
Co302 O318 2.117 . S
Co302 O319 2.020 . S
Co302 O321 2.021 . S
Co302 O326 2.062 . S
C303 N305 1.316 . S
C303 N306 1.347 . S
C303 H308 0.931 . S
C304 N305 1.375 . S
C304 C307 1.350 . S
C304 H309 0.930 . S
N305 Co300 2.057 . S
N305 C303 1.316 . S
N305 C304 1.375 . S
N306 C303 1.347 . S
N306 C307 1.373 . S
C307 C304 1.350 . S
C307 N306 1.373 . S
C307 H328 0.931 . S
H308 C303 0.931 . S
H309 C304 0.930 . S
C310 O317 1.259 . S
C310 O318 1.258 . S
N311 Co302 2.057 . S
N311 C312 1.316 . S
N311 C313 1.375 . S
C312 N311 1.316 . S
C312 N314 1.347 . S
C312 H323 0.931 . S
C313 N311 1.375 . S
C313 C315 1.350 . S
C313 H322 0.930 . S
N314 C312 1.347 . S
N314 C315 1.373 . S
C315 C313 1.350 . S
C315 N314 1.373 . S
C315 H329 0.931 . S
C316 O319 1.256 . S
C316 O320 1.255 . S
O317 Co300 2.021 . S
O317 C310 1.259 . S
O318 Co302 2.117 . S
O318 C310 1.258 . S
O319 Co302 2.020 . S
O319 C316 1.256 . S
O320 Co300 2.062 . S
O320 C316 1.255 . S
O321 C301 1.259 . S
O321 Co302 2.021 . S
H322 C313 0.930 . S
H323 C312 0.931 . S
O324 Co300 2.117 . S
O324 C301 1.258 . S
O325 Co300 2.020 . S
O325 C327 1.256 . S
O326 Co302 2.062 . S
O326 C327 1.255 . S
C327 O325 1.256 . S
C327 O326 1.255 . S
H328 C307 0.931 . S
H329 C315 0.931 . S
Co330 N335 2.057 . S
Co330 O347 2.021 . S
Co330 O350 2.062 . S
Co330 O354 2.117 . S
Co330 O355 2.020 . S
C331 O351 1.259 . S
C331 O354 1.258 . S
Co332 N341 2.057 . S
Co332 O348 2.117 . S
Co332 O349 2.020 . S
Co332 O351 2.021 . S
Co332 O356 2.062 . S
C333 N335 1.316 . S
C333 N336 1.347 1_655 S
C333 H338 0.931 . S
C334 N335 1.375 . S
C334 C337 1.350 1_655 S
C334 H339 0.930 . S
N335 Co330 2.057 . S
N335 C333 1.316 . S
N335 C334 1.375 . S
N336 C333 1.347 1_455 S
N336 C337 1.373 . S
C337 C334 1.350 1_455 S
C337 N336 1.373 . S
C337 H358 0.931 . S
H338 C333 0.931 . S
H339 C334 0.930 . S
C340 O347 1.259 . S
C340 O348 1.258 . S
N341 Co332 2.057 . S
N341 C342 1.316 . S
N341 C343 1.375 . S
C342 N341 1.316 . S
C342 N344 1.347 . S
C342 H353 0.931 . S
C343 N341 1.375 . S
C343 C345 1.350 . S
C343 H352 0.930 . S
N344 C342 1.347 . S
N344 C345 1.373 . S
C345 C343 1.350 . S
C345 N344 1.373 . S
C345 H359 0.931 . S
C346 O349 1.256 . S
C346 O350 1.255 . S
O347 Co330 2.021 . S
O347 C340 1.259 . S
O348 Co332 2.117 . S
O348 C340 1.258 . S
O349 Co332 2.020 . S
O349 C346 1.256 . S
O350 Co330 2.062 . S
O350 C346 1.255 . S
O351 C331 1.259 . S
O351 Co332 2.021 . S
H352 C343 0.930 . S
H353 C342 0.931 . S
O354 Co330 2.117 . S
O354 C331 1.258 . S
O355 Co330 2.020 . S
O355 C357 1.256 . S
O356 Co332 2.062 . S
O356 C357 1.255 . S
C357 O355 1.256 . S
C357 O356 1.255 . S
H358 C337 0.931 . S
H359 C345 0.931 . S
C360 C361 1.387 1_545 S
C360 H364 0.950 1_545 S
C360 C369 1.390 . S
C361 C360 1.387 1_565 S
C361 C363 1.387 . S
H362 C369 0.950 . S
C363 C361 1.387 . S
C363 C365 1.380 1_565 S
C363 H367 0.960 . S
H364 C360 0.950 1_565 S
C365 C363 1.380 1_545 S
C365 C366 1.387 . S
C365 H368 0.950 . S
C366 C365 1.387 . S
C366 C369 1.387 . S
H367 C363 0.960 . S
H368 C365 0.950 . S
C369 C360 1.390 . S
C369 H362 0.950 . S
C369 C366 1.387 . S
C370 C371 1.387 . S
C370 H374 0.950 . S
C370 C379 1.390 . S
C371 C370 1.387 . S
C371 C373 1.387 . S
H372 C379 0.950 . S
C373 C371 1.387 . S
C373 C375 1.390 . S
C373 H377 0.950 . S
H374 C370 0.950 . S
C375 C373 1.390 . S
C375 C376 1.387 . S
C375 H378 0.950 . S
C376 C375 1.387 . S
C376 C379 1.387 . S
H377 C373 0.950 . S
H378 C375 0.950 . S
C379 C370 1.390 . S
C379 H372 0.950 . S
C379 C376 1.387 . S
C380 C381 1.387 . S
C380 H384 0.950 . S
C380 C389 1.390 1_655 S
C381 C380 1.387 . S
C381 C383 1.387 . S
H382 C389 0.950 . S
C383 C381 1.387 . S
C383 C385 1.390 . S
C383 H387 0.950 . S
H384 C380 0.950 . S
C385 C383 1.390 . S
C385 C386 1.387 1_655 S
C385 H388 0.950 . S
C386 C385 1.387 1_455 S
C386 C389 1.387 . S
H387 C383 0.950 . S
H388 C385 0.950 . S
C389 C380 1.390 1_455 S
C389 H382 0.950 . S
C389 C386 1.387 . S
C390 C391 1.387 . S
C390 H394 0.950 . S
C390 C399 1.390 . S
C391 C390 1.387 . S
C391 C393 1.387 . S
H392 C399 0.950 . S
C393 C391 1.387 . S
C393 C395 1.390 . S
C393 H397 0.950 . S
H394 C390 0.950 . S
C395 C393 1.390 . S
C395 C396 1.387 . S
C395 H398 0.950 . S
C396 C395 1.387 . S
C396 C399 1.387 . S
H397 C393 0.950 . S
H398 C395 0.950 . S
C399 C390 1.390 . S
C399 H392 0.950 . S
C399 C396 1.387 . S
C400 C401 1.387 . S
C400 H404 0.950 . S
C400 C409 1.390 . S
C401 C400 1.387 . S
C401 C403 1.387 . S
H402 C409 0.950 . S
C403 C401 1.387 . S
C403 C405 1.390 . S
C403 H407 0.950 . S
H404 C400 0.950 . S
C405 C403 1.390 . S
C405 C406 1.387 . S
C405 H408 0.950 . S
C406 C405 1.387 . S
C406 C409 1.387 . S
H407 C403 0.950 . S
H408 C405 0.950 . S
C409 C400 1.390 . S
C409 H402 0.950 . S
C409 C406 1.387 . S
C410 C411 1.387 . S
C410 H414 0.950 . S
C410 C419 1.390 1_565 S
C411 C410 1.387 . S
C411 C413 1.387 . S
H412 C419 0.950 . S
C413 C411 1.387 . S
C413 C415 1.390 . S
C413 H417 0.950 . S
H414 C410 0.950 . S
C415 C413 1.390 . S
C415 C416 1.387 . S
C415 H418 0.950 . S
C416 C415 1.387 . S
C416 C419 1.387 1_565 S
H417 C413 0.950 . S
H418 C415 0.950 . S
C419 C410 1.390 1_545 S
C419 H412 0.950 . S
C419 C416 1.387 1_545 S
C420 C421 1.387 . S
C420 H424 0.950 . S
C420 C429 1.390 . S
C421 C420 1.387 . S
C421 C423 1.387 . S
H422 C429 0.950 . S
C423 C421 1.387 . S
C423 C425 1.390 . S
C423 H427 0.950 . S
H424 C420 0.950 . S
C425 C423 1.390 . S
C425 C426 1.387 . S
C425 H428 0.950 . S
C426 C425 1.387 . S
C426 C429 1.387 . S
H427 C423 0.950 . S
H428 C425 0.950 . S
C429 C420 1.390 . S
C429 H422 0.950 . S
C429 C426 1.387 . S
C430 C431 1.387 . S
C430 H434 0.950 . S
C430 C439 1.390 . S
C431 C430 1.387 . S
C431 C433 1.387 . S
H432 C439 0.950 . S
C433 C431 1.387 . S
C433 C435 1.390 . S
C433 H437 0.950 1_455 S
H434 C430 0.950 . S
C435 C433 1.390 . S
C435 C436 1.387 . S
C435 H438 0.950 . S
C436 C435 1.387 . S
C436 C439 1.387 . S
H437 C433 0.950 1_655 S
H438 C435 0.950 . S
C439 C430 1.390 . S
C439 H432 0.950 . S
C439 C436 1.387 . S
C440 C441 1.387 . S
C440 H444 0.950 . S
C440 C449 1.390 . S
C441 C440 1.387 . S
C441 C443 1.387 . S
H442 C449 0.950 1_565 S
C443 C441 1.387 . S
C443 C445 1.390 . S
C443 H447 0.950 . S
H444 C440 0.950 . S
C445 C443 1.390 . S
C445 C446 1.387 . S
C445 H448 0.950 . S
C446 C445 1.387 . S
C446 C449 1.387 . S
H447 C443 0.950 . S
H448 C445 0.950 . S
C449 C440 1.390 . S
C449 H442 0.950 1_545 S
C449 C446 1.387 . S
C450 C451 1.387 . S
C450 H454 0.950 . S
C450 C459 1.390 . S
C451 C450 1.387 . S
C451 C453 1.387 . S
H452 C459 0.950 . S
C453 C451 1.387 . S
C453 C455 1.390 . S
C453 H457 0.950 . S
H454 C450 0.950 . S
C455 C453 1.390 . S
C455 C456 1.387 . S
C455 H458 0.950 . S
C456 C455 1.387 . S
C456 C459 1.387 . S
H457 C453 0.950 . S
H458 C455 0.950 . S
C459 C450 1.390 . S
C459 H452 0.950 . S
C459 C456 1.387 . S
C460 C461 1.387 . S
C460 H464 0.950 1_655 S
C460 C469 1.390 . S
C461 C460 1.387 . S
C461 C463 1.387 . S
H462 C469 0.950 . S
C463 C461 1.387 . S
C463 C465 1.390 . S
C463 H467 0.950 . S
H464 C460 0.950 1_455 S
C465 C463 1.390 . S
C465 C466 1.387 . S
C465 H468 0.950 . S
C466 C465 1.387 . S
C466 C469 1.387 . S
H467 C463 0.950 . S
H468 C465 0.950 . S
C469 C460 1.390 . S
C469 H462 0.950 . S
C469 C466 1.387 . S
C470 C471 1.387 . S
C470 H474 0.950 . S
C470 C479 1.390 . S
C471 C470 1.387 . S
C471 C473 1.387 . S
H472 C479 0.950 1_545 S
C473 C471 1.387 . S
C473 C475 1.390 . S
C473 H477 0.950 . S
H474 C470 0.950 . S
C475 C473 1.390 . S
C475 C476 1.387 . S
C475 H478 0.950 . S
C476 C475 1.387 . S
C476 C479 1.387 . S
H477 C473 0.950 . S
H478 C475 0.950 . S
C479 C470 1.390 . S
C479 H472 0.950 1_565 S
C479 C476 1.387 . S
C480 C481 1.387 . S
C480 H484 0.950 . S
C480 C489 1.390 . S
C481 C480 1.387 . S
C481 C483 1.387 . S
H482 C489 0.950 . S
C483 C481 1.387 . S
C483 C485 1.390 . S
C483 H487 0.950 . S
H484 C480 0.950 . S
C485 C483 1.390 . S
C485 C486 1.387 . S
C485 H488 0.950 . S
C486 C485 1.387 . S
C486 C489 1.387 . S
H487 C483 0.950 . S
H488 C485 0.950 . S
C489 C480 1.390 . S
C489 H482 0.950 . S
C489 C486 1.387 . S
C490 C491 1.387 . S
C490 H494 0.950 . S
C490 C499 1.390 . S
C491 C490 1.387 . S
C491 C493 1.387 . S
H492 C499 0.950 . S
C493 C491 1.387 . S
C493 C495 1.390 . S
C493 H497 0.950 . S
H494 C490 0.950 . S
C495 C493 1.390 . S
C495 C496 1.387 . S
C495 H498 0.950 . S
C496 C495 1.387 . S
C496 C499 1.387 . S
H497 C493 0.950 . S
H498 C495 0.950 . S
C499 C490 1.390 . S
C499 H492 0.950 . S
C499 C496 1.387 . S
C500 C501 1.387 . S
C500 H504 0.950 . S
C500 C509 1.390 . S
C501 C500 1.387 . S
C501 C503 1.387 . S
H502 C509 0.950 . S
C503 C501 1.387 . S
C503 C505 1.390 . S
C503 H507 0.950 . S
H504 C500 0.950 . S
C505 C503 1.390 . S
C505 C506 1.387 . S
C505 H508 0.950 . S
C506 C505 1.387 . S
C506 C509 1.387 . S
H507 C503 0.950 . S
H508 C505 0.950 . S
C509 C500 1.390 . S
C509 H502 0.950 . S
C509 C506 1.387 . S
C510 C511 1.387 . S
C510 H514 0.950 . S
C510 C519 1.390 . S
C511 C510 1.387 . S
C511 C513 1.387 . S
H512 C519 0.950 . S
C513 C511 1.387 . S
C513 C515 1.390 . S
C513 H517 0.950 . S
H514 C510 0.950 . S
C515 C513 1.390 . S
C515 C516 1.387 . S
C515 H518 0.950 . S
C516 C515 1.387 . S
C516 C519 1.387 . S
H517 C513 0.950 . S
H518 C515 0.950 . S
C519 C510 1.390 . S
C519 H512 0.950 . S
C519 C516 1.387 . S
C520 C521 1.387 . S
C520 H524 0.950 . S
C520 C529 1.390 . S
C521 C520 1.387 . S
C521 C523 1.387 . S
H522 C529 0.950 . S
C523 C521 1.387 . S
C523 C525 1.390 . S
C523 H527 0.950 . S
H524 C520 0.950 . S
C525 C523 1.390 . S
C525 C526 1.387 . S
C525 H528 0.950 . S
C526 C525 1.387 . S
C526 C529 1.387 . S
H527 C523 0.950 . S
H528 C525 0.950 . S
C529 C520 1.390 . S
C529 H522 0.950 . S
C529 C526 1.387 . S
C530 C531 1.387 . S
C530 H534 0.950 . S
C530 C539 1.390 . S
C531 C530 1.387 . S
C531 C533 1.387 . S
H532 C539 0.950 . S
C533 C531 1.387 . S
C533 C535 1.390 . S
C533 H537 0.950 . S
H534 C530 0.950 . S
C535 C533 1.390 . S
C535 C536 1.387 . S
C535 H538 0.950 . S
C536 C535 1.387 . S
C536 C539 1.387 . S
H537 C533 0.950 . S
H538 C535 0.950 . S
C539 C530 1.390 . S
C539 H532 0.950 . S
C539 C536 1.387 . S
C540 C541 1.387 . S
C540 H544 0.950 . S
C540 C549 1.390 . S
C541 C540 1.387 . S
C541 C543 1.387 . S
H542 C549 0.950 . S
C543 C541 1.387 . S
C543 C545 1.390 . S
C543 H547 0.950 . S
H544 C540 0.950 . S
C545 C543 1.390 . S
C545 C546 1.387 . S
C545 H548 0.950 . S
C546 C545 1.387 . S
C546 C549 1.387 . S
H547 C543 0.950 . S
H548 C545 0.950 . S
C549 C540 1.390 . S
C549 H542 0.950 . S
C549 C546 1.387 . S
C550 C551 1.387 . S
C550 H554 0.950 . S
C550 C559 1.390 . S
C551 C550 1.387 . S
C551 C553 1.387 . S
H552 C559 0.950 . S
C553 C551 1.387 . S
C553 C555 1.390 . S
C553 H557 0.950 . S
H554 C550 0.950 . S
C555 C553 1.390 . S
C555 C556 1.387 . S
C555 H558 0.950 . S
C556 C555 1.387 . S
C556 C559 1.387 . S
H557 C553 0.950 . S
H558 C555 0.950 . S
C559 C550 1.390 . S
C559 H552 0.950 . S
C559 C556 1.387 . S
C560 C561 1.387 . S
C560 H564 0.950 . S
C560 C569 1.390 . S
C561 C560 1.387 . S
C561 C563 1.387 . S
H562 C569 0.950 . S
C563 C561 1.387 . S
C563 C565 1.390 . S
C563 H567 0.950 . S
H564 C560 0.950 . S
C565 C563 1.390 . S
C565 C566 1.387 . S
C565 H568 0.950 . S
C566 C565 1.387 . S
C566 C569 1.387 . S
H567 C563 0.950 . S
H568 C565 0.950 . S
C569 C560 1.390 . S
C569 H562 0.950 . S
C569 C566 1.387 . S
C570 C571 1.387 . S
C570 H574 0.950 . S
C570 C579 1.390 . S
C571 C570 1.387 . S
C571 C573 1.387 . S
H572 C579 0.950 . S
C573 C571 1.387 . S
C573 C575 1.390 . S
C573 H577 0.950 . S
H574 C570 0.950 . S
C575 C573 1.390 . S
C575 C576 1.387 . S
C575 H578 0.950 . S
C576 C575 1.387 . S
C576 C579 1.387 . S
H577 C573 0.950 . S
H578 C575 0.950 . S
C579 C570 1.390 . S
C579 H572 0.950 . S
C579 C576 1.387 . S
C580 C581 1.387 . S
C580 H584 0.950 . S
C580 C589 1.390 . S
C581 C580 1.387 . S
C581 C583 1.387 . S
H582 C589 0.950 . S
C583 C581 1.387 . S
C583 C585 1.390 . S
C583 H587 0.950 . S
H584 C580 0.950 . S
C585 C583 1.390 . S
C585 C586 1.387 . S
C585 H588 0.950 . S
C586 C585 1.387 . S
C586 C589 1.387 . S
H587 C583 0.950 . S
H588 C585 0.950 . S
C589 C580 1.390 . S
C589 H582 0.950 . S
C589 C586 1.387 . S
C590 C591 1.387 . S
C590 H594 0.950 . S
C590 C599 1.390 . S
C591 C590 1.387 . S
C591 C593 1.387 . S
H592 C599 0.950 . S
C593 C591 1.387 . S
C593 C595 1.390 . S
C593 H597 0.950 . S
H594 C590 0.950 . S
C595 C593 1.390 . S
C595 C596 1.387 . S
C595 H598 0.950 . S
C596 C595 1.387 . S
C596 C599 1.387 . S
H597 C593 0.950 . S
H598 C595 0.950 . S
C599 C590 1.390 . S
C599 H592 0.950 . S
C599 C596 1.387 . S
C600 C601 1.387 . S
C600 H604 0.950 . S
C600 C609 1.390 . S
C601 C600 1.387 . S
C601 C603 1.387 . S
H602 C609 0.950 . S
C603 C601 1.387 . S
C603 C605 1.390 . S
C603 H607 0.950 . S
H604 C600 0.950 . S
C605 C603 1.390 . S
C605 C606 1.387 . S
C605 H608 0.950 . S
C606 C605 1.387 . S
C606 C609 1.387 . S
H607 C603 0.950 . S
H608 C605 0.950 . S
C609 C600 1.390 . S
C609 H602 0.950 . S
C609 C606 1.387 . S
C610 C611 1.387 . S
C610 H614 0.950 . S
C610 C619 1.390 . S
C611 C610 1.387 . S
C611 C613 1.387 . S
H612 C619 0.950 . S
C613 C611 1.387 . S
C613 C615 1.390 . S
C613 H617 0.950 . S
H614 C610 0.950 . S
C615 C613 1.390 . S
C615 C616 1.387 . S
C615 H618 0.950 . S
C616 C615 1.387 . S
C616 C619 1.387 . S
H617 C613 0.950 . S
H618 C615 0.950 . S
C619 C610 1.390 . S
C619 H612 0.950 . S
C619 C616 1.387 . S
C620 C621 1.387 . S
C620 H624 0.950 . S
C620 C629 1.390 . S
C621 C620 1.387 . S
C621 C623 1.387 . S
H622 C629 0.950 . S
C623 C621 1.387 . S
C623 C625 1.390 . S
C623 H627 0.950 . S
H624 C620 0.950 . S
C625 C623 1.390 . S
C625 C626 1.387 . S
C625 H628 0.950 . S
C626 C625 1.387 . S
C626 C629 1.387 . S
H627 C623 0.950 . S
H628 C625 0.950 . S
C629 C620 1.390 . S
C629 H622 0.950 . S
C629 C626 1.387 . S
C630 C631 1.387 . S
C630 H634 0.950 . S
C630 C639 1.390 . S
C631 C630 1.387 . S
C631 C633 1.387 . S
H632 C639 0.950 . S
C633 C631 1.387 . S
C633 C635 1.390 . S
C633 H637 0.950 . S
H634 C630 0.950 . S
C635 C633 1.390 . S
C635 C636 1.387 . S
C635 H638 0.950 . S
C636 C635 1.387 . S
C636 C639 1.387 . S
H637 C633 0.950 . S
H638 C635 0.950 . S
C639 C630 1.390 . S
C639 H632 0.950 . S
C639 C636 1.387 . S
C640 C641 1.387 . S
C640 H644 0.950 . S
C640 C649 1.390 . S
C641 C640 1.387 . S
C641 C643 1.387 . S
H642 C649 0.950 . S
C643 C641 1.387 . S
C643 C645 1.390 . S
C643 H647 0.950 . S
H644 C640 0.950 . S
C645 C643 1.390 . S
C645 C646 1.387 . S
C645 H648 0.950 . S
C646 C645 1.387 . S
C646 C649 1.387 . S
H647 C643 0.950 . S
H648 C645 0.950 . S
C649 C640 1.390 . S
C649 H642 0.950 . S
C649 C646 1.387 . S
C650 C651 1.387 . S
C650 H654 0.950 . S
C650 C659 1.390 . S
C651 C650 1.387 . S
C651 C653 1.387 . S
H652 C659 0.950 . S
C653 C651 1.387 . S
C653 C655 1.390 . S
C653 H657 0.950 . S
H654 C650 0.950 . S
C655 C653 1.390 . S
C655 C656 1.387 . S
C655 H658 0.950 . S
C656 C655 1.387 . S
C656 C659 1.387 . S
H657 C653 0.950 . S
H658 C655 0.950 . S
C659 C650 1.390 . S
C659 H652 0.950 . S
C659 C656 1.387 . S
C660 C661 1.387 . S
C660 H664 0.950 . S
C660 C669 1.390 1_556 S
C661 C660 1.387 . S
C661 C663 1.387 . S
H662 C669 0.950 . S
C663 C661 1.387 . S
C663 C665 1.390 1_556 S
C663 H667 0.950 . S
H664 C660 0.950 . S
C665 C663 1.390 1_554 S
C665 C666 1.387 . S
C665 H668 0.950 . S
C666 C665 1.387 . S
C666 C669 1.387 . S
H667 C663 0.950 . S
H668 C665 0.950 . S
C669 C660 1.390 1_554 S
C669 H662 0.950 . S
C669 C666 1.387 . S
C670 C671 1.387 . S
C670 H674 0.950 . S
C670 C679 1.390 1_455 S
C671 C670 1.387 . S
C671 C673 1.387 . S
H672 C679 0.950 . S
C673 C671 1.387 . S
C673 C675 1.390 1_455 S
C673 H677 0.950 . S
H674 C670 0.950 . S
C675 C673 1.390 1_655 S
C675 C676 1.387 . S
C675 H678 0.950 . S
C676 C675 1.387 . S
C676 C679 1.387 . S
H677 C673 0.950 . S
H678 C675 0.950 . S
C679 C670 1.390 1_655 S
C679 H672 0.950 . S
C679 C676 1.387 . S
C680 C681 1.387 . S
C680 H684 0.950 . S
C680 C689 1.390 1_564 S
C681 C680 1.387 . S
C681 C683 1.387 . S
H682 C689 0.950 . S
C683 C681 1.387 . S
C683 C685 1.390 1_564 S
C683 H687 0.950 . S
H684 C680 0.950 . S
C685 C683 1.390 1_546 S
C685 C686 1.387 . S
C685 H688 0.950 . S
C686 C685 1.387 . S
C686 C689 1.387 . S
H687 C683 0.950 . S
H688 C685 0.950 . S
C689 C680 1.390 1_546 S
C689 H682 0.950 . S
C689 C686 1.387 . S
C690 C691 1.387 . S
C690 H694 0.950 . S
C690 C699 1.390 . S
C691 C690 1.387 . S
C691 C693 1.387 . S
H692 C699 0.950 . S
C693 C691 1.387 . S
C693 C695 1.390 . S
C693 H697 0.950 . S
H694 C690 0.950 . S
C695 C693 1.390 . S
C695 C696 1.387 . S
C695 H698 0.950 . S
C696 C695 1.387 . S
C696 C699 1.387 . S
H697 C693 0.950 . S
H698 C695 0.950 . S
C699 C690 1.390 . S
C699 H692 0.950 . S
C699 C696 1.387 . S
C700 C701 1.387 1_554 S
C700 H704 0.950 . S
C700 C709 1.404 . S
C701 C700 1.387 1_556 S
C701 C703 1.387 1_655 S
H702 C709 0.952 . S
C703 C701 1.387 1_455 S
C703 C705 1.390 . S
C703 H707 0.950 . S
H704 C700 0.950 . S
C705 C703 1.390 . S
C705 C706 1.387 1_556 S
C705 H708 0.950 . S
C706 C705 1.387 1_554 S
C706 C709 1.372 1_455 S
H707 C703 0.950 . S
H708 C705 0.950 . S
C709 C700 1.404 . S
C709 H702 0.952 . S
C709 C706 1.372 1_655 S
C710 C711 1.387 . S
C710 H714 0.950 . S
C710 C719 1.390 1_565 S
C711 C710 1.387 . S
C711 C713 1.387 . S
H712 C719 0.950 . S
C713 C711 1.387 . S
C713 C715 1.390 1_565 S
C713 H717 0.950 . S
H714 C710 0.950 . S
C715 C713 1.390 1_545 S
C715 C716 1.387 . S
C715 H718 0.950 . S
C716 C715 1.387 . S
C716 C719 1.387 . S
H717 C713 0.950 . S
H718 C715 0.950 . S
C719 C710 1.390 1_545 S
C719 H712 0.950 . S
C719 C716 1.387 . S
C361 C147 1.223 . S
C366 N14 1.227 . S
C371 N156 0.990 . S
C376 C46 1.020 1_455 S
C381 N74 1.229 . S
C386 C27 1.223 . S
C391 C106 1.024 . S
C396 N36 0.996 . S
C401 N134 1.229 . S
C406 C87 1.223 . S
C411 N96 0.994 . S
C416 C166 1.023 1_565 S
C421 N246 0.989 . S
C426 C196 1.019 . S
C431 C226 1.023 1_455 S
C436 N276 0.993 . S
C441 N306 0.991 . S
C446 C256 1.020 1_545 S
C451 C286 1.019 . S
C456 N336 0.990 . S
C461 C316 1.022 1_655 S
C466 N186 0.993 . S
C471 N216 0.992 . S
C476 C346 1.021 1_565 S
C481 C136 1.297 . S
C486 N6 1.336 . S
C491 C57 1.422 . S
C496 N164 1.371 . S
C501 N66 1.337 . S
C506 C16 1.300 . S
C511 C117 1.421 . S
C516 N44 1.370 . S
C521 C76 1.296 . S
C526 N126 1.336 . S
C531 N104 1.368 . S
C536 C177 1.420 . S
C541 N254 1.367 . S
C546 C207 1.419 . S
C551 C237 1.422 . S
C556 N284 1.371 . S
C561 C267 1.420 . S
C566 N314 1.370 . S
C571 N344 1.372 . S
C576 C297 1.423 . S
C581 C327 1.419 . S
C586 N194 1.367 . S
C591 N224 1.368 . S
C596 C357 1.420 . S
C601 C301 1.601 . S
C606 C10 1.617 . S
C611 C31 1.601 . S
C616 C331 1.601 . S
C621 C70 1.617 . S
C626 C181 1.601 . S
C631 C91 1.599 . S
C636 C211 1.599 . S
C641 C130 1.617 . S
C646 C241 1.599 . S
C651 C271 1.599 . S
C656 C151 1.600 . S
C661 C280 1.983 . S
C666 C1 1.890 . S
C671 C310 1.983 . S
C676 C40 1.983 . S
C681 C61 1.890 . S
C686 C340 1.983 . S
C691 C100 1.983 . S
C696 C190 1.983 . S
C701 C220 1.984 . S
C706 C121 1.891 . S
C711 C250 1.986 . S
C716 C160 1.986 . S
