# Generated by pormake.
# Topology msp, (4)-cn, num edge types: 1
# Building blocks:
#     Node 0, Type 0, BuildingBlock: QUQFOY_clean_sbu_3, # of connection points: 4
#     Node 1, Type 0, BuildingBlock: QUQFOY_clean_sbu_3, # of connection points: 4
#     Node 2, Type 0, BuildingBlock: QUQFOY_clean_sbu_3, # of connection points: 4
#     Node 3, Type 0, BuildingBlock: QUQFOY_clean_sbu_3, # of connection points: 4
#     Node 4, Type 0, BuildingBlock: QUQFOY_clean_sbu_3, # of connection points: 4
#     Node 5, Type 0, BuildingBlock: QUQFOY_clean_sbu_3, # of connection points: 4
#     Node 6, Type 0, BuildingBlock: QUQFOY_clean_sbu_3, # of connection points: 4
#     Node 7, Type 0, BuildingBlock: QUQFOY_clean_sbu_3, # of connection points: 4
#     Edge 8, Type (0, 0), BuildingBlock: XIVTED_clean_linker_0, # of connection points: 2
#     Edge 9, Type (0, 0), BuildingBlock: XIVTED_clean_linker_0, # of connection points: 2
#     Edge 10, Type (0, 0), BuildingBlock: XIVTED_clean_linker_0, # of connection points: 2
#     Edge 11, Type (0, 0), BuildingBlock: XIVTED_clean_linker_0, # of connection points: 2
#     Edge 12, Type (0, 0), BuildingBlock: XIVTED_clean_linker_0, # of connection points: 2
#     Edge 13, Type (0, 0), BuildingBlock: XIVTED_clean_linker_0, # of connection points: 2
#     Edge 14, Type (0, 0), BuildingBlock: XIVTED_clean_linker_0, # of connection points: 2
#     Edge 15, Type (0, 0), BuildingBlock: XIVTED_clean_linker_0, # of connection points: 2
#     Edge 16, Type (0, 0), BuildingBlock: XIVTED_clean_linker_0, # of connection points: 2
#     Edge 17, Type (0, 0), BuildingBlock: XIVTED_clean_linker_0, # of connection points: 2
#     Edge 18, Type (0, 0), BuildingBlock: XIVTED_clean_linker_0, # of connection points: 2
#     Edge 19, Type (0, 0), BuildingBlock: XIVTED_clean_linker_0, # of connection points: 2
#     Edge 20, Type (0, 0), BuildingBlock: XIVTED_clean_linker_0, # of connection points: 2
#     Edge 21, Type (0, 0), BuildingBlock: XIVTED_clean_linker_0, # of connection points: 2
#     Edge 22, Type (0, 0), BuildingBlock: XIVTED_clean_linker_0, # of connection points: 2
#     Edge 23, Type (0, 0), BuildingBlock: XIVTED_clean_linker_0, # of connection points: 2
# Relax obj value: 0.150
# Max RMSD: 0.203
# Mean RMSD: 0.202
data_MOF--net-msp--node1-QUQFOY_clean_sbu_3--edge1-XIVTED_clean_linker_0
_symmetry_space_group_name_H-M    P1
_symmetry_Int_Tables_number       1
_symmetry_cell_setting            triclinic
loop_
_symmetry_equiv_pos_as_xyz
'x, y, z'
_cell_length_a     24.631002
_cell_length_b     25.483161
_cell_length_c     39.410245
_cell_angle_alpha  90.588911
_cell_angle_beta   96.041247
_cell_angle_gamma 89.908366
loop_
_atom_site_label
_atom_site_type_symbol
_atom_site_fract_x
_atom_site_fract_y
_atom_site_fract_z
_atom_type_partial_charge
C0 C 0.02574 0.37092 0.39755 0.0
O1 O 0.07266 0.37655 0.38764 0.0
Cd2 Cd 0.11432 0.30987 0.35668 0.0
O3 O -0.00334 0.33063 0.38902 0.0
Cd4 Cd 0.00043 0.25125 0.35142 0.0
C5 C 0.09067 0.20328 0.40876 0.0
O6 O 0.05414 0.28695 0.30827 0.0
O7 O 0.0588 0.20348 0.31475 0.0
O8 O 0.90857 0.2751 0.33123 0.0
C9 C 0.07103 0.24321 0.29806 0.0
O10 O 0.12205 0.23514 0.39549 0.0
C11 C 0.8915 0.22878 0.3249 0.0
O12 O 0.0395 0.20254 0.40018 0.0
O13 O 0.92484 0.19148 0.33205 0.0
C14 C 0.44069 0.36825 0.56737 0.0
O15 O 0.39104 0.37442 0.57294 0.0
Cd16 Cd 0.33576 0.30514 0.58794 0.0
O17 O 0.46726 0.32588 0.57493 0.0
Cd18 Cd 0.46697 0.24032 0.60694 0.0
C19 C 0.39512 0.1984 0.55238 0.0
O20 O 0.3932 0.27828 0.63617 0.0
O21 O 0.40866 0.19658 0.64626 0.0
O22 O 0.54039 0.2796 0.64236 0.0
C23 C 0.38101 0.23741 0.6514 0.0
O24 O 0.39189 0.24325 0.56537 0.0
C25 C 0.56853 0.23822 0.64715 0.0
O26 O 0.44155 0.17668 0.5568 0.0
O27 O 0.55082 0.19695 0.63131 0.0
C28 C 0.92994 0.63637 0.56889 0.0
O29 O 0.88219 0.63015 0.57781 0.0
Cd30 Cd 0.84024 0.68952 0.61316 0.0
O31 O 0.96121 0.67418 0.58034 0.0
Cd32 Cd 0.97139 0.75382 0.62022 0.0
C33 C 0.89411 0.79032 0.56629 0.0
O34 O 0.91027 0.7085 0.65709 0.0
O35 O 0.91719 0.79189 0.6644 0.0
O36 O 0.06127 0.71959 0.63753 0.0
C37 C 0.89728 0.74886 0.67328 0.0
O38 O 0.88516 0.75652 0.5879 0.0
C39 C 0.08132 0.76311 0.64857 0.0
O40 O 0.93951 0.8139 0.57077 0.0
O41 O 0.05078 0.80326 0.64479 0.0
C42 C 0.53229 0.63037 0.3989 0.0
O43 O 0.57588 0.62207 0.38522 0.0
Cd44 Cd 0.61674 0.69192 0.35923 0.0
O45 O 0.50412 0.67184 0.39265 0.0
Cd46 Cd 0.4988 0.74644 0.35217 0.0
C47 C 0.57759 0.7952 0.41321 0.0
O48 O 0.55536 0.71058 0.31205 0.0
O49 O 0.55234 0.79469 0.31202 0.0
O50 O 0.41783 0.70502 0.32752 0.0
C51 C 0.56959 0.75279 0.29912 0.0
O52 O 0.6088 0.76129 0.40131 0.0
C53 C 0.39 0.74674 0.32325 0.0
O54 O 0.52853 0.80136 0.40055 0.0
O55 O 0.4123 0.78943 0.33441 0.0
C56 C 0.52376 0.87695 0.89555 0.0
O57 O 0.56811 0.88531 0.88275 0.0
Cd58 Cd 0.61566 0.82027 0.85543 0.0
O59 O 0.49839 0.83319 0.89081 0.0
Cd60 Cd 0.49727 0.74715 0.85794 0.0
C61 C 0.58564 0.70846 0.90696 0.0
O62 O 0.55059 0.78493 0.81467 0.0
O63 O 0.55546 0.70119 0.81932 0.0
O64 O 0.40473 0.77316 0.84049 0.0
C65 C 0.5696 0.74209 0.8045 0.0
O66 O 0.59598 0.74729 0.88906 0.0
C67 C 0.38861 0.72854 0.82913 0.0
O68 O 0.53638 0.69382 0.9067 0.0
O69 O 0.42218 0.6908 0.83343 0.0
C70 C 0.93412 0.86357 0.06717 0.0
O71 O 0.8885 0.87039 0.07871 0.0
Cd72 Cd 0.84827 0.80325 0.10888 0.0
O73 O 0.96369 0.82363 0.07509 0.0
Cd74 Cd 0.96629 0.74998 0.11584 0.0
C75 C 0.87959 0.69211 0.06048 0.0
O76 O 0.91073 0.78702 0.15633 0.0
O77 O 0.91573 0.70296 0.15767 0.0
O78 O 0.04791 0.79026 0.14043 0.0
C79 C 0.89805 0.74495 0.17017 0.0
O80 O 0.8474 0.72563 0.07188 0.0
C81 C 0.07529 0.74827 0.14459 0.0
O82 O 0.93054 0.69243 0.06984 0.0
O83 O 0.05269 0.70593 0.13302 0.0
C84 C 0.43895 0.12682 0.07937 0.0
O85 O 0.39933 0.11643 0.09634 0.0
Cd86 Cd 0.35934 0.18477 0.125 0.0
O87 O 0.46469 0.17035 0.08366 0.0
Cd88 Cd 0.47333 0.25233 0.12031 0.0
C89 C 0.38714 0.28092 0.06175 0.0
O90 O 0.42478 0.21829 0.16609 0.0
O91 O 0.4146 0.30069 0.15693 0.0
O92 O 0.56433 0.2205 0.13559 0.0
C93 C 0.40468 0.26142 0.17478 0.0
O94 O 0.36747 0.24647 0.08006 0.0
C95 C 0.58432 0.26415 0.14623 0.0
O96 O 0.4347 0.29931 0.0699 0.0
O97 O 0.55347 0.30416 0.14254 0.0
C98 C 0.02762 0.12907 0.89987 0.0
O99 O 0.07129 0.11836 0.88695 0.0
Cd100 Cd 0.1169 0.18866 0.86443 0.0
O101 O 0.00236 0.17219 0.89368 0.0
Cd102 Cd 0.00318 0.24551 0.85188 0.0
C103 C 0.07584 0.29533 0.91501 0.0
O104 O 0.06399 0.2097 0.81411 0.0
O105 O 0.06215 0.29407 0.81515 0.0
O106 O 0.92574 0.204 0.82227 0.0
C107 C 0.07996 0.25227 0.80246 0.0
O108 O 0.10713 0.25959 0.90526 0.0
C109 C 0.89695 0.2451 0.81789 0.0
O110 O 0.02863 0.30317 0.89973 0.0
O111 O 0.91701 0.28771 0.83081 0.0
H112 H 0.04948 0.3672 0.46567 0.0
H113 H 0.89783 0.63734 0.50131 0.0
H114 H 0.96479 0.45977 0.38594 0.0
H115 H -0.00081 0.55349 0.57838 0.0
H116 H 0.91978 0.57208 0.45862 0.0
H117 H 0.0278 0.43326 0.50778 0.0
C118 C 0.02577 0.40141 0.45724 0.0
C119 C 0.00834 0.4083 0.42266 0.0
C120 C 0.93758 0.56805 0.48479 0.0
C121 C -0.01591 0.48418 0.4702 0.0
C122 C 0.92526 0.6053 0.50899 0.0
C123 C 0.94748 0.60061 0.54298 0.0
C124 C 0.97164 0.52553 0.49495 0.0
C125 C 0.98209 0.55845 0.55215 0.0
C126 C 0.01369 0.43918 0.48113 0.0
C127 C 0.97836 0.4532 0.41259 0.0
N128 N -0.00703 0.52224 0.52823 0.0
N129 N 0.96712 0.48963 0.43634 0.0
H130 H 0.47965 0.65076 0.45518 0.0
H131 H 0.50996 0.3544 0.51902 0.0
H132 H 0.55111 0.52559 0.40013 0.0
H133 H 0.42563 0.47394 0.57141 0.0
H134 H 0.5342 0.41996 0.4786 0.0
H135 H 0.46432 0.58881 0.50035 0.0
C136 C 0.49129 0.61004 0.45243 0.0
C137 C 0.51671 0.59297 0.4241 0.0
C138 C 0.51109 0.43214 0.49922 0.0
C139 C 0.50009 0.52254 0.47544 0.0
C140 C 0.49784 0.39483 0.52247 0.0
C141 C 0.46538 0.40898 0.54814 0.0
C142 C 0.49205 0.48385 0.50197 0.0
C143 C 0.4501 0.46163 0.55148 0.0
C144 C 0.48307 0.57491 0.47829 0.0
C145 C 0.53181 0.54021 0.42181 0.0
N146 N 0.46327 0.49731 0.5284 0.0
N147 N 0.52323 0.50681 0.44717 0.0
H148 H 0.39536 0.02961 0.06546 0.0
H149 H 0.55839 0.97855 0.90367 0.0
H150 H 0.51029 0.13988 0.03102 0.0
H151 H 0.44467 0.8682 0.93925 0.0
H152 H 0.53593 0.04108 0.94724 0.0
H153 H 0.41029 0.97181 0.01785 0.0
C154 C 0.42407 0.04158 0.04801 0.0
C155 C 0.45176 0.08967 0.05234 0.0
C156 C 0.51568 0.00332 0.94543 0.0
C157 C 0.46852 0.02368 -0.00261 0.0
C158 C 0.52836 0.96756 0.9205 0.0
C159 C 0.50413 0.91759 0.91827 0.0
C160 C 0.47868 0.98896 0.96841 0.0
C161 C 0.46477 0.90601 0.9403 0.0
C162 C 0.43232 0.00859 0.02068 0.0
C163 C 0.48831 0.10305 0.02881 0.0
N164 N 0.45372 0.94125 0.96473 0.0
N165 N 0.49559 0.07019 0.00229 0.0
H166 H 0.92802 0.85124 -0.00112 0.0
H167 H 0.03262 0.14268 0.96812 0.0
H168 H 0.97717 0.96049 0.08042 0.0
H169 H -0.01605 0.03252 0.88703 0.0
H170 H 0.01234 0.07684 0.00995 0.0
H171 H 0.94901 0.91713 0.95737 0.0
C172 C 0.94399 0.88907 0.00786 0.0
C173 C 0.95126 0.90097 0.04272 0.0
C174 C 0.00538 0.06721 0.98302 0.0
C175 C 0.97495 0.97626 -0.00406 0.0
C176 C 0.01649 0.10483 0.95929 0.0
C177 C 0.00901 0.09268 0.92444 0.0
C178 C -0.01363 0.01747 0.97156 0.0
C179 C -0.01038 0.04303 0.91386 0.0
C180 C 0.95569 0.92668 0.98432 0.0
C181 C 0.97122 0.95036 0.05353 0.0
N182 N 0.97876 0.00711 0.9374 0.0
N183 N 0.9825 0.9864 0.03013 0.0
H184 H 0.67368 0.2024 0.14193 0.0
H185 H 0.79567 0.278 0.33201 0.0
H186 H 0.60965 0.32517 0.20249 0.0
H187 H 0.8703 0.16409 0.26995 0.0
H188 H 0.72035 0.28726 0.2869 0.0
H189 H 0.74562 0.18609 0.1884 0.0
C190 C 0.67562 0.22663 0.16478 0.0
C191 C 0.63582 0.26499 0.16858 0.0
C192 C 0.75288 0.25984 0.2832 0.0
C193 C 0.71586 0.24504 0.22221 0.0
C194 C 0.79531 0.25402 0.30912 0.0
C195 C 0.83917 0.22083 0.30428 0.0
C196 C 0.75524 0.23306 0.25206 0.0
C197 C 0.83699 0.19016 0.27447 0.0
C198 C 0.71607 0.21684 0.19143 0.0
C199 C 0.63988 0.29546 0.19852 0.0
N200 N 0.79617 0.19782 0.24904 0.0
N201 N 0.67872 0.28426 0.22446 0.0
H202 H 0.64424 0.15991 0.65956 0.0
H203 H 0.81991 0.32271 0.80729 0.0
H204 H 0.60243 0.31586 0.69206 0.0
H205 H 0.85601 0.1634 0.77862 0.0
H206 H 0.73794 0.32018 0.76638 0.0
H207 H 0.72214 0.16017 0.70355 0.0
C208 C 0.65161 0.19419 0.67586 0.0
C209 C 0.61725 0.23803 0.67206 0.0
C210 C 0.76375 0.28572 0.76919 0.0
C211 C 0.70534 0.23844 0.72254 0.0
C212 C 0.81035 0.28717 0.79256 0.0
C213 C 0.84476 0.24333 0.79616 0.0
C214 C 0.75209 0.24032 0.74917 0.0
C215 C 0.83053 0.19812 0.77664 0.0
C216 C 0.69583 0.1943 0.70103 0.0
C217 C 0.62833 0.28142 0.6939 0.0
N218 N 0.78549 0.19793 0.75377 0.0
N219 N 0.67141 0.2805 0.71824 0.0
H220 H 0.11365 0.83434 0.69846 0.0
H221 H 0.36662 0.66075 0.77551 0.0
H222 H 0.16606 0.69405 0.64899 0.0
H223 H 0.29763 0.7888 0.82922 0.0
H224 H 0.29495 0.67208 0.72824 0.0
H225 H 0.18736 0.82247 0.7441 0.0
C226 C 0.14161 0.80178 0.69678 0.0
C227 C 0.13341 0.76454 0.67035 0.0
C228 C 0.29502 0.69716 0.7506 0.0
C229 C 0.21684 0.75004 0.7227 0.0
C230 C 0.33535 0.69017 0.77778 0.0
C231 C 0.33805 0.72427 0.80605 0.0
C232 C 0.25733 0.73836 0.75198 0.0
C233 C 0.29713 0.76214 0.80761 0.0
C234 C 0.18317 0.79455 0.72309 0.0
C235 C 0.17064 0.72304 0.66937 0.0
N236 N 0.25868 0.76852 0.78075 0.0
N237 N 0.2106 0.71656 0.69543 0.0
H238 H 0.31947 0.82844 0.30826 0.0
H239 H 0.14393 0.66546 0.16085 0.0
H240 H 0.34284 0.66338 0.2883 0.0
H241 H 0.1228 0.83111 0.1799 0.0
H242 H 0.21854 0.66404 0.20696 0.0
H243 H 0.24343 0.8291 0.26311 0.0
C244 C 0.30812 0.79226 0.29469 0.0
C245 C 0.33784 0.74603 0.30159 0.0
C246 C 0.19764 0.70071 0.20091 0.0
C247 C 0.2524 0.74671 0.24958 0.0
C248 C 0.1555 0.7016 0.17441 0.0
C249 C 0.12688 0.74828 0.16688 0.0
C250 C 0.21067 0.74675 0.21997 0.0
C251 C 0.14361 0.79413 0.18503 0.0
C252 C 0.26513 0.79271 0.26875 0.0
C253 C 0.32125 0.70005 0.28356 0.0
N254 N 0.18406 0.79209 0.21102 0.0
N255 N 0.28 0.7017 0.25804 0.0
H256 H 0.30087 0.28113 0.14824 0.0
H257 H 0.17249 0.20977 0.32057 0.0
H258 H 0.39708 0.23683 0.24116 0.0
H259 H 0.07813 0.27474 0.23266 0.0
H260 H 0.25438 0.21386 0.29048 0.0
H261 H 0.2178 0.27323 0.1771 0.0
C262 C 0.30434 0.27083 0.175 0.0
C263 C 0.35554 0.26083 0.1928 0.0
C264 C 0.21576 0.22672 0.27754 0.0
C265 C 0.26123 0.25122 0.2258 0.0
C266 C 0.16907 0.22402 0.29461 0.0
C267 C 0.11882 0.24148 0.27876 0.0
C268 C 0.21196 0.2465 0.24424 0.0
C269 C 0.11637 0.26081 0.24553 0.0
C270 C 0.25706 0.26596 0.19136 0.0
C271 C 0.35818 0.24557 0.2269 0.0
N272 N 0.16236 0.26261 0.22923 0.0
N273 N 0.31162 0.24153 0.24241 0.0
H274 H 0.34766 0.15816 0.69085 0.0
H275 H 0.1211 0.33516 0.76905 0.0
H276 H 0.31192 0.31815 0.66101 0.0
H277 H 0.14121 0.16887 0.78638 0.0
H278 H 0.19544 0.33173 0.73224 0.0
H279 H 0.27522 0.1628 0.72876 0.0
C280 C 0.32438 0.1941 0.69217 0.0
C281 C 0.33582 0.23785 0.67294 0.0
C282 C 0.18337 0.29603 0.74409 0.0
C283 C 0.25333 0.24361 0.71612 0.0
C284 C 0.14107 0.29803 0.76506 0.0
C285 C 0.12457 0.25214 0.78036 0.0
C286 C 0.20936 0.2479 0.73874 0.0
C287 C 0.15208 0.20509 0.77468 0.0
C288 C 0.28317 0.19683 0.71382 0.0
C289 C 0.30457 0.28355 0.67557 0.0
N290 N 0.19308 0.2042 0.75434 0.0
N291 N 0.2648 0.28529 0.69684 0.0
H292 H 0.60855 0.82389 0.77056 0.0
H293 H 0.85521 0.66316 0.70224 0.0
H294 H 0.63875 0.66033 0.79285 0.0
H295 H 0.83335 0.8304 0.69152 0.0
H296 H 0.77519 0.65998 0.73417 0.0
H297 H 0.68901 0.82539 0.73954 0.0
C298 C 0.63198 0.78816 0.76875 0.0
C299 C 0.61662 0.74185 0.78407 0.0
C300 C 0.78801 0.69738 0.72495 0.0
C301 C 0.70949 0.7434 0.74882 0.0
C302 C 0.8337 0.69925 0.70677 0.0
C303 C 0.85112 0.74718 0.69439 0.0
C304 C 0.75913 0.74372 0.73043 0.0
C305 C 0.82172 0.7927 0.70089 0.0
C306 C 0.67812 0.78908 0.75114 0.0
C307 C 0.64877 0.69677 0.78108 0.0
N308 N 0.77704 0.78978 0.71829 0.0
N309 N 0.69377 0.69867 0.7638 0.0
H310 H 0.84932 0.66026 0.19728 0.0
H311 H 0.61818 0.83688 0.27135 0.0
H312 H 0.84357 0.8294 0.19218 0.0
H313 H 0.62564 0.66803 0.27885 0.0
H314 H 0.69974 0.83469 0.24079 0.0
H315 H 0.7677 0.662 0.22782 0.0
C316 C 0.8312 0.69771 0.20284 0.0
C317 C 0.85304 0.74472 0.19204 0.0
C318 C 0.68342 0.79813 0.24911 0.0
C319 C 0.75952 0.74704 0.22639 0.0
C320 C 0.63674 0.7994 0.26637 0.0
C321 C 0.61528 0.75265 0.27776 0.0
C322 C 0.70881 0.7498 0.24341 0.0
C323 C 0.64086 0.70509 0.27057 0.0
C324 C 0.78447 0.69872 0.22008 0.0
C325 C 0.828 0.79218 0.19994 0.0
N326 N 0.68642 0.70491 0.25404 0.0
N327 N 0.78242 0.7921 0.21644 0.0
H328 H 0.29815 0.20962 0.57723 0.0
H329 H 0.15899 0.12215 0.40166 0.0
H330 H 0.37795 0.12195 0.50252 0.0
H331 H 0.08095 0.21061 0.47656 0.0
H332 H 0.22615 0.0901 0.4467 0.0
H333 H 0.21016 0.18003 0.55058 0.0
C334 C 0.29702 0.18327 0.55541 0.0
C335 C 0.34489 0.16977 0.54106 0.0
C336 C 0.19331 0.11501 0.45361 0.0
C337 C 0.24424 0.13623 0.51012 0.0
C338 C 0.15487 0.13297 0.42793 0.0
C339 C 0.1153 0.16929 0.43567 0.0
C340 C 0.19313 0.13548 0.4868 0.0
C341 C 0.11129 0.18265 0.46979 0.0
C342 C 0.24672 0.16602 0.54035 0.0
C343 C 0.34161 0.13418 0.51371 0.0
N344 N 0.15088 0.16686 0.49413 0.0
N345 N 0.29173 0.1197 0.49842 0.0
H346 H 0.82672 0.7168 0.53734 0.0
H347 H 0.63266 0.8871 0.41634 0.0
H348 H 0.86777 0.88054 0.52967 0.0
H349 H 0.57909 0.76277 0.4779 0.0
H350 H 0.71857 0.89211 0.45377 0.0
H351 H 0.73962 0.73282 0.50459 0.0
C352 C 0.81759 0.75614 0.52816 0.0
C353 C 0.85299 0.79805 0.53732 0.0
C354 C 0.68704 0.86524 0.45982 0.0
C355 C 0.75332 0.8167 0.50038 0.0
C356 C 0.63763 0.8632 0.43903 0.0
C357 C 0.60005 0.8234 0.44367 0.0
C358 C 0.69763 0.82717 0.48499 0.0
C359 C 0.60777 0.79344 0.4733 0.0
C360 C 0.76762 0.76535 0.50993 0.0
C361 C 0.84047 0.8477 0.52375 0.0
N362 N 0.65692 0.79432 0.49217 0.0
N363 N 0.79071 0.85606 0.50609 0.0
H364 H 0.80679 0.61464 0.06634 0.0
H365 H 0.68657 0.70792 0.88771 0.0
H366 H 0.89599 0.6936 -0.00631 0.0
H367 H 0.59077 0.64074 0.96204 0.0
H368 H 0.76817 0.67154 0.91749 0.0
H369 H 0.73731 0.5893 0.02024 0.0
C370 C 0.81296 0.62429 0.04031 0.0
C371 C 0.85626 0.65672 0.03357 0.0
C372 C 0.72945 0.66364 0.92713 0.0
C373 C 0.77628 0.63058 0.98142 0.0
C374 C 0.68265 0.68492 0.91032 0.0
C375 C 0.63213 0.67888 0.92324 0.0
C376 C 0.72626 0.63701 0.95772 0.0
C377 C 0.62928 0.64733 0.95183 0.0
C378 C 0.77309 0.61036 0.01409 0.0
C379 C 0.86284 0.66864 -0.00027 0.0
N380 N 0.67624 0.62852 0.96875 0.0
N381 N 0.82221 0.65687 0.97491 0.0
H382 H 0.32874 0.21598 0.01911 0.0
H383 H 0.12814 0.38846 0.91432 0.0
H384 H 0.36411 0.38037 0.03653 0.0
H385 H 0.0786 0.26924 0.98113 0.0
H386 H 0.21525 0.39684 0.95031 0.0
H387 H 0.24131 0.23892 -0.01133 0.0
C388 C 0.31888 0.25714 0.01524 0.0
C389 C 0.35231 0.29646 0.03124 0.0
C390 C 0.18412 0.37081 0.95795 0.0
C391 C 0.25272 0.32277 -0.00317 0.0
C392 C 0.13406 0.36671 0.9379 0.0
C393 C 0.09751 0.32678 0.94432 0.0
C394 C 0.19615 0.33482 0.9842 0.0
C395 C 0.10655 0.29972 0.97507 0.0
C396 C 0.26868 0.27008 -0.00148 0.0
C397 C 0.33845 0.34913 0.02507 0.0
N398 N 0.15633 0.30233 -0.00685 0.0
N399 N 0.28861 0.36112 0.00853 0.0
loop_
_geom_bond_atom_site_label_1
_geom_bond_atom_site_label_2
_geom_bond_distance
_geom_bond_site_symmetry_2
_ccdc_geom_bond_type
C0 O1 1.306 . S
C0 O3 1.167 . S
O1 C0 1.306 . S
O1 Cd2 2.228 . S
Cd2 O1 2.228 . S
Cd2 O6 2.273 . S
Cd2 O10 2.277 . S
O3 C0 1.167 . S
O3 Cd4 2.211 . S
Cd4 O3 2.211 . S
Cd4 O6 2.411 . S
Cd4 O7 2.333 . S
Cd4 O8 2.352 1_455 S
Cd4 O12 2.277 . S
Cd4 O13 2.356 1_455 S
C5 O10 1.209 . S
C5 O12 1.226 . S
O6 Cd2 2.273 . S
O6 Cd4 2.411 . S
O6 C9 1.320 . S
O7 Cd4 2.333 . S
O7 C9 1.214 . S
O8 Cd4 2.352 1_655 S
O8 C11 1.258 . S
C9 O6 1.320 . S
C9 O7 1.214 . S
O10 Cd2 2.277 . S
O10 C5 1.209 . S
C11 O8 1.258 . S
C11 O13 1.282 . S
O12 Cd4 2.277 . S
O12 C5 1.226 . S
O13 Cd4 2.356 1_655 S
O13 C11 1.282 . S
C14 O15 1.306 . S
C14 O17 1.160 . S
O15 C14 1.306 . S
O15 Cd16 2.228 . S
Cd16 O15 2.228 . S
Cd16 O20 2.273 . S
Cd16 O24 2.277 . S
O17 C14 1.160 . S
O17 Cd18 2.203 . S
Cd18 O17 2.203 . S
Cd18 O20 2.411 . S
Cd18 O21 2.333 . S
Cd18 O22 2.352 . S
Cd18 O26 2.277 . S
Cd18 O27 2.356 . S
C19 O24 1.209 . S
C19 O26 1.226 . S
O20 Cd16 2.273 . S
O20 Cd18 2.411 . S
O20 C23 1.320 . S
O21 Cd18 2.333 . S
O21 C23 1.214 . S
O22 Cd18 2.352 . S
O22 C25 1.258 . S
C23 O20 1.320 . S
C23 O21 1.214 . S
O24 Cd16 2.277 . S
O24 C19 1.209 . S
C25 O22 1.258 . S
C25 O27 1.282 . S
O26 Cd18 2.277 . S
O26 C19 1.226 . S
O27 Cd18 2.356 . S
O27 C25 1.282 . S
C28 O29 1.306 . S
C28 O31 1.167 . S
O29 C28 1.306 . S
O29 Cd30 2.228 . S
Cd30 O29 2.228 . S
Cd30 O34 2.273 . S
Cd30 O38 2.277 . S
O31 C28 1.167 . S
O31 Cd32 2.211 . S
Cd32 O31 2.211 . S
Cd32 O34 2.411 . S
Cd32 O35 2.333 . S
Cd32 O36 2.352 1_655 S
Cd32 O40 2.277 . S
Cd32 O41 2.356 1_655 S
C33 O38 1.209 . S
C33 O40 1.226 . S
O34 Cd30 2.273 . S
O34 Cd32 2.411 . S
O34 C37 1.320 . S
O35 Cd32 2.333 . S
O35 C37 1.214 . S
O36 Cd32 2.352 1_455 S
O36 C39 1.258 . S
C37 O34 1.320 . S
C37 O35 1.214 . S
O38 Cd30 2.277 . S
O38 C33 1.209 . S
C39 O36 1.258 . S
C39 O41 1.282 . S
O40 Cd32 2.277 . S
O40 C33 1.226 . S
O41 Cd32 2.356 1_455 S
O41 C39 1.282 . S
C42 O43 1.306 . S
C42 O45 1.160 . S
O43 C42 1.306 . S
O43 Cd44 2.228 . S
Cd44 O43 2.228 . S
Cd44 O48 2.273 . S
Cd44 O52 2.277 . S
O45 C42 1.160 . S
O45 Cd46 2.203 . S
Cd46 O45 2.203 . S
Cd46 O48 2.411 . S
Cd46 O49 2.333 . S
Cd46 O50 2.352 . S
Cd46 O54 2.277 . S
Cd46 O55 2.356 . S
C47 O52 1.209 . S
C47 O54 1.226 . S
O48 Cd44 2.273 . S
O48 Cd46 2.411 . S
O48 C51 1.320 . S
O49 Cd46 2.333 . S
O49 C51 1.214 . S
O50 Cd46 2.352 . S
O50 C53 1.258 . S
C51 O48 1.320 . S
C51 O49 1.214 . S
O52 Cd44 2.277 . S
O52 C47 1.209 . S
C53 O50 1.258 . S
C53 O55 1.282 . S
O54 Cd46 2.277 . S
O54 C47 1.226 . S
O55 Cd46 2.356 . S
O55 C53 1.282 . S
C56 O57 1.306 . S
C56 O59 1.160 . S
O57 C56 1.306 . S
O57 Cd58 2.228 . S
Cd58 O57 2.228 . S
Cd58 O62 2.273 . S
Cd58 O66 2.277 . S
O59 C56 1.160 . S
O59 Cd60 2.203 . S
Cd60 O59 2.203 . S
Cd60 O62 2.411 . S
Cd60 O63 2.333 . S
Cd60 O64 2.352 . S
Cd60 O68 2.277 . S
Cd60 O69 2.356 . S
C61 O66 1.209 . S
C61 O68 1.226 . S
O62 Cd58 2.273 . S
O62 Cd60 2.411 . S
O62 C65 1.320 . S
O63 Cd60 2.333 . S
O63 C65 1.214 . S
O64 Cd60 2.352 . S
O64 C67 1.258 . S
C65 O62 1.320 . S
C65 O63 1.214 . S
O66 Cd58 2.277 . S
O66 C61 1.209 . S
C67 O64 1.258 . S
C67 O69 1.282 . S
O68 Cd60 2.277 . S
O68 C61 1.226 . S
O69 Cd60 2.356 . S
O69 C67 1.282 . S
C70 O71 1.306 . S
C70 O73 1.167 . S
O71 C70 1.306 . S
O71 Cd72 2.228 . S
Cd72 O71 2.228 . S
Cd72 O76 2.273 . S
Cd72 O80 2.277 . S
O73 C70 1.167 . S
O73 Cd74 2.211 . S
Cd74 O73 2.211 . S
Cd74 O76 2.411 . S
Cd74 O77 2.333 . S
Cd74 O78 2.352 1_655 S
Cd74 O82 2.277 . S
Cd74 O83 2.356 1_655 S
C75 O80 1.209 . S
C75 O82 1.226 . S
O76 Cd72 2.273 . S
O76 Cd74 2.411 . S
O76 C79 1.320 . S
O77 Cd74 2.333 . S
O77 C79 1.214 . S
O78 Cd74 2.352 1_455 S
O78 C81 1.258 . S
C79 O76 1.320 . S
C79 O77 1.214 . S
O80 Cd72 2.277 . S
O80 C75 1.209 . S
C81 O78 1.258 . S
C81 O83 1.282 . S
O82 Cd74 2.277 . S
O82 C75 1.226 . S
O83 Cd74 2.356 1_455 S
O83 C81 1.282 . S
C84 O85 1.306 . S
C84 O87 1.160 . S
O85 C84 1.306 . S
O85 Cd86 2.228 . S
Cd86 O85 2.228 . S
Cd86 O90 2.273 . S
Cd86 O94 2.277 . S
O87 C84 1.160 . S
O87 Cd88 2.203 . S
Cd88 O87 2.203 . S
Cd88 O90 2.411 . S
Cd88 O91 2.333 . S
Cd88 O92 2.352 . S
Cd88 O96 2.277 . S
Cd88 O97 2.356 . S
C89 O94 1.209 . S
C89 O96 1.226 . S
O90 Cd86 2.273 . S
O90 Cd88 2.411 . S
O90 C93 1.320 . S
O91 Cd88 2.333 . S
O91 C93 1.214 . S
O92 Cd88 2.352 . S
O92 C95 1.258 . S
C93 O90 1.320 . S
C93 O91 1.214 . S
O94 Cd86 2.277 . S
O94 C89 1.209 . S
C95 O92 1.258 . S
C95 O97 1.282 . S
O96 Cd88 2.277 . S
O96 C89 1.226 . S
O97 Cd88 2.356 . S
O97 C95 1.282 . S
C98 O99 1.306 . S
C98 O101 1.167 . S
O99 C98 1.306 . S
O99 Cd100 2.228 . S
Cd100 O99 2.228 . S
Cd100 O104 2.273 . S
Cd100 O108 2.277 . S
O101 C98 1.167 . S
O101 Cd102 2.211 . S
Cd102 O101 2.211 . S
Cd102 O104 2.411 . S
Cd102 O105 2.333 . S
Cd102 O106 2.352 1_455 S
Cd102 O110 2.277 . S
Cd102 O111 2.356 1_455 S
C103 O108 1.209 . S
C103 O110 1.226 . S
O104 Cd100 2.273 . S
O104 Cd102 2.411 . S
O104 C107 1.320 . S
O105 Cd102 2.333 . S
O105 C107 1.214 . S
O106 Cd102 2.352 1_655 S
O106 C109 1.258 . S
C107 O104 1.320 . S
C107 O105 1.214 . S
O108 Cd100 2.277 . S
O108 C103 1.209 . S
C109 O106 1.258 . S
C109 O111 1.282 . S
O110 Cd102 2.277 . S
O110 C103 1.226 . S
O111 Cd102 2.356 1_655 S
O111 C109 1.282 . S
H112 C118 0.930 . S
H113 C122 0.930 . S
H114 C127 0.929 . S
H115 C125 0.929 . S
H116 C120 0.929 . S
H117 C126 0.929 . S
C118 H112 0.930 . S
C118 C119 1.367 . S
C118 C126 1.378 . S
C119 C118 1.367 . S
C119 C127 1.433 1_455 S
C120 H116 0.929 . S
C120 C122 1.378 . S
C120 C124 1.350 . S
C121 C124 1.463 1_455 S
C121 C126 1.350 . S
C121 N129 1.427 1_455 S
C122 H113 0.930 . S
C122 C120 1.378 . S
C122 C123 1.367 . S
C123 C122 1.367 . S
C123 C125 1.433 1_655 S
C124 C120 1.350 . S
C124 C121 1.463 1_655 S
C124 N128 1.427 1_655 S
C125 H115 0.929 . S
C125 C123 1.433 1_455 S
C125 N128 1.384 . S
C126 H117 0.929 . S
C126 C118 1.378 . S
C126 C121 1.350 . S
C127 H114 0.929 . S
C127 C119 1.433 1_655 S
C127 N129 1.384 . S
N128 C124 1.427 1_455 S
N128 C125 1.384 . S
N129 C121 1.427 1_655 S
N129 C127 1.384 . S
H130 C136 0.930 . S
H131 C140 0.930 . S
H132 C145 0.929 . S
H133 C143 0.929 . S
H134 C138 0.929 . S
H135 C144 0.929 . S
C136 H130 0.930 . S
C136 C137 1.367 . S
C136 C144 1.378 . S
C137 C136 1.367 . S
C137 C145 1.433 . S
C138 H134 0.929 . S
C138 C140 1.378 . S
C138 C142 1.350 . S
C139 C142 1.463 . S
C139 C144 1.350 . S
C139 N147 1.427 . S
C140 H131 0.930 . S
C140 C138 1.378 . S
C140 C141 1.367 . S
C141 C140 1.367 . S
C141 C143 1.433 . S
C142 C138 1.350 . S
C142 C139 1.463 . S
C142 N146 1.427 . S
C143 H133 0.929 . S
C143 C141 1.433 . S
C143 N146 1.384 . S
C144 H135 0.929 . S
C144 C136 1.378 . S
C144 C139 1.350 . S
C145 H132 0.929 . S
C145 C137 1.433 . S
C145 N147 1.384 . S
N146 C142 1.427 . S
N146 C143 1.384 . S
N147 C139 1.427 . S
N147 C145 1.384 . S
H148 C154 0.930 . S
H149 C158 0.930 . S
H150 C163 0.929 . S
H151 C161 0.929 . S
H152 C156 0.929 1_545 S
H153 C162 0.929 1_565 S
C154 H148 0.930 . S
C154 C155 1.367 . S
C154 C162 1.378 . S
C155 C154 1.367 . S
C155 C163 1.433 . S
C156 H152 0.929 1_565 S
C156 C158 1.378 . S
C156 C160 1.350 . S
C157 C160 1.463 1_544 S
C157 C162 1.350 . S
C157 N165 1.427 . S
C158 H149 0.930 . S
C158 C156 1.378 . S
C158 C159 1.367 . S
C159 C158 1.367 . S
C159 C161 1.433 . S
C160 C156 1.350 . S
C160 C157 1.463 1_566 S
C160 N164 1.427 . S
C161 H151 0.929 . S
C161 C159 1.433 . S
C161 N164 1.384 . S
C162 H153 0.929 1_545 S
C162 C154 1.378 . S
C162 C157 1.350 . S
C163 H150 0.929 . S
C163 C155 1.433 . S
C163 N165 1.384 . S
N164 C160 1.427 . S
N164 C161 1.384 . S
N165 C157 1.427 . S
N165 C163 1.384 . S
H166 C172 0.930 . S
H167 C176 0.930 . S
H168 C181 0.929 . S
H169 C179 0.929 . S
H170 C174 0.929 1_554 S
H171 C180 0.929 1_556 S
C172 H166 0.930 . S
C172 C173 1.367 . S
C172 C180 1.378 . S
C173 C172 1.367 . S
C173 C181 1.433 1_655 S
C174 H170 0.929 1_556 S
C174 C176 1.378 . S
C174 C178 1.350 . S
C175 C178 1.463 1_664 S
C175 C180 1.350 . S
C175 N183 1.427 1_655 S
C176 H167 0.930 . S
C176 C174 1.378 . S
C176 C177 1.367 . S
C177 C176 1.367 . S
C177 C179 1.433 1_455 S
C178 C174 1.350 . S
C178 C175 1.463 1_446 S
C178 N182 1.427 1_455 S
C179 H169 0.929 . S
C179 C177 1.433 1_655 S
C179 N182 1.384 . S
C180 H171 0.929 1_554 S
C180 C172 1.378 . S
C180 C175 1.350 . S
C181 H168 0.929 . S
C181 C173 1.433 1_455 S
C181 N183 1.384 . S
N182 C178 1.427 1_655 S
N182 C179 1.384 . S
N183 C175 1.427 1_455 S
N183 C181 1.384 . S
H184 C190 0.930 . S
H185 C194 0.930 . S
H186 C199 0.929 . S
H187 C197 0.929 . S
H188 C192 0.929 . S
H189 C198 0.929 . S
C190 H184 0.930 . S
C190 C191 1.367 . S
C190 C198 1.378 . S
C191 C190 1.367 . S
C191 C199 1.433 . S
C192 H188 0.929 . S
C192 C194 1.378 . S
C192 C196 1.350 . S
C193 C196 1.463 . S
C193 C198 1.350 . S
C193 N201 1.427 . S
C194 H185 0.930 . S
C194 C192 1.378 . S
C194 C195 1.367 . S
C195 C194 1.367 . S
C195 C197 1.433 . S
C196 C192 1.350 . S
C196 C193 1.463 . S
C196 N200 1.427 . S
C197 H187 0.929 . S
C197 C195 1.433 . S
C197 N200 1.384 . S
C198 H189 0.929 . S
C198 C190 1.378 . S
C198 C193 1.350 . S
C199 H186 0.929 . S
C199 C191 1.433 . S
C199 N201 1.384 . S
N200 C196 1.427 . S
N200 C197 1.384 . S
N201 C193 1.427 . S
N201 C199 1.384 . S
H202 C208 0.930 . S
H203 C212 0.930 . S
H204 C217 0.929 . S
H205 C215 0.929 . S
H206 C210 0.929 . S
H207 C216 0.929 . S
C208 H202 0.930 . S
C208 C209 1.367 . S
C208 C216 1.378 . S
C209 C208 1.367 . S
C209 C217 1.433 . S
C210 H206 0.929 . S
C210 C212 1.378 . S
C210 C214 1.350 . S
C211 C214 1.463 . S
C211 C216 1.350 . S
C211 N219 1.427 . S
C212 H203 0.930 . S
C212 C210 1.378 . S
C212 C213 1.367 . S
C213 C212 1.367 . S
C213 C215 1.433 . S
C214 C210 1.350 . S
C214 C211 1.463 . S
C214 N218 1.427 . S
C215 H205 0.929 . S
C215 C213 1.433 . S
C215 N218 1.384 . S
C216 H207 0.929 . S
C216 C208 1.378 . S
C216 C211 1.350 . S
C217 H204 0.929 . S
C217 C209 1.433 . S
C217 N219 1.384 . S
N218 C214 1.427 . S
N218 C215 1.384 . S
N219 C211 1.427 . S
N219 C217 1.384 . S
H220 C226 0.930 . S
H221 C230 0.930 . S
H222 C235 0.929 . S
H223 C233 0.929 . S
H224 C228 0.929 . S
H225 C234 0.929 . S
C226 H220 0.930 . S
C226 C227 1.367 . S
C226 C234 1.378 . S
C227 C226 1.367 . S
C227 C235 1.433 . S
C228 H224 0.929 . S
C228 C230 1.378 . S
C228 C232 1.350 . S
C229 C232 1.463 . S
C229 C234 1.350 . S
C229 N237 1.427 . S
C230 H221 0.930 . S
C230 C228 1.378 . S
C230 C231 1.367 . S
C231 C230 1.367 . S
C231 C233 1.433 . S
C232 C228 1.350 . S
C232 C229 1.463 . S
C232 N236 1.427 . S
C233 H223 0.929 . S
C233 C231 1.433 . S
C233 N236 1.384 . S
C234 H225 0.929 . S
C234 C226 1.378 . S
C234 C229 1.350 . S
C235 H222 0.929 . S
C235 C227 1.433 . S
C235 N237 1.384 . S
N236 C232 1.427 . S
N236 C233 1.384 . S
N237 C229 1.427 . S
N237 C235 1.384 . S
H238 C244 0.930 . S
H239 C248 0.930 . S
H240 C253 0.929 . S
H241 C251 0.929 . S
H242 C246 0.929 . S
H243 C252 0.929 . S
C244 H238 0.930 . S
C244 C245 1.367 . S
C244 C252 1.378 . S
C245 C244 1.367 . S
C245 C253 1.433 . S
C246 H242 0.929 . S
C246 C248 1.378 . S
C246 C250 1.350 . S
C247 C250 1.463 . S
C247 C252 1.350 . S
C247 N255 1.427 . S
C248 H239 0.930 . S
C248 C246 1.378 . S
C248 C249 1.367 . S
C249 C248 1.367 . S
C249 C251 1.433 . S
C250 C246 1.350 . S
C250 C247 1.463 . S
C250 N254 1.427 . S
C251 H241 0.929 . S
C251 C249 1.433 . S
C251 N254 1.384 . S
C252 H243 0.929 . S
C252 C244 1.378 . S
C252 C247 1.350 . S
C253 H240 0.929 . S
C253 C245 1.433 . S
C253 N255 1.384 . S
N254 C250 1.427 . S
N254 C251 1.384 . S
N255 C247 1.427 . S
N255 C253 1.384 . S
H256 C262 0.930 . S
H257 C266 0.930 . S
H258 C271 0.929 . S
H259 C269 0.929 . S
H260 C264 0.929 . S
H261 C270 0.929 . S
C262 H256 0.930 . S
C262 C263 1.367 . S
C262 C270 1.378 . S
C263 C262 1.367 . S
C263 C271 1.433 . S
C264 H260 0.929 . S
C264 C266 1.378 . S
C264 C268 1.350 . S
C265 C268 1.463 . S
C265 C270 1.350 . S
C265 N273 1.427 . S
C266 H257 0.930 . S
C266 C264 1.378 . S
C266 C267 1.367 . S
C267 C266 1.367 . S
C267 C269 1.433 . S
C268 C264 1.350 . S
C268 C265 1.463 . S
C268 N272 1.427 . S
C269 H259 0.929 . S
C269 C267 1.433 . S
C269 N272 1.384 . S
C270 H261 0.929 . S
C270 C262 1.378 . S
C270 C265 1.350 . S
C271 H258 0.929 . S
C271 C263 1.433 . S
C271 N273 1.384 . S
N272 C268 1.427 . S
N272 C269 1.384 . S
N273 C265 1.427 . S
N273 C271 1.384 . S
H274 C280 0.930 . S
H275 C284 0.930 . S
H276 C289 0.929 . S
H277 C287 0.929 . S
H278 C282 0.929 . S
H279 C288 0.929 . S
C280 H274 0.930 . S
C280 C281 1.367 . S
C280 C288 1.378 . S
C281 C280 1.367 . S
C281 C289 1.433 . S
C282 H278 0.929 . S
C282 C284 1.378 . S
C282 C286 1.350 . S
C283 C286 1.463 . S
C283 C288 1.350 . S
C283 N291 1.427 . S
C284 H275 0.930 . S
C284 C282 1.378 . S
C284 C285 1.367 . S
C285 C284 1.367 . S
C285 C287 1.433 . S
C286 C282 1.350 . S
C286 C283 1.463 . S
C286 N290 1.427 . S
C287 H277 0.929 . S
C287 C285 1.433 . S
C287 N290 1.384 . S
C288 H279 0.929 . S
C288 C280 1.378 . S
C288 C283 1.350 . S
C289 H276 0.929 . S
C289 C281 1.433 . S
C289 N291 1.384 . S
N290 C286 1.427 . S
N290 C287 1.384 . S
N291 C283 1.427 . S
N291 C289 1.384 . S
H292 C298 0.930 . S
H293 C302 0.930 . S
H294 C307 0.929 . S
H295 C305 0.929 . S
H296 C300 0.929 . S
H297 C306 0.929 . S
C298 H292 0.930 . S
C298 C299 1.367 . S
C298 C306 1.378 . S
C299 C298 1.367 . S
C299 C307 1.433 . S
C300 H296 0.929 . S
C300 C302 1.378 . S
C300 C304 1.350 . S
C301 C304 1.463 . S
C301 C306 1.350 . S
C301 N309 1.427 . S
C302 H293 0.930 . S
C302 C300 1.378 . S
C302 C303 1.367 . S
C303 C302 1.367 . S
C303 C305 1.433 . S
C304 C300 1.350 . S
C304 C301 1.463 . S
C304 N308 1.427 . S
C305 H295 0.929 . S
C305 C303 1.433 . S
C305 N308 1.384 . S
C306 H297 0.929 . S
C306 C298 1.378 . S
C306 C301 1.350 . S
C307 H294 0.929 . S
C307 C299 1.433 . S
C307 N309 1.384 . S
N308 C304 1.427 . S
N308 C305 1.384 . S
N309 C301 1.427 . S
N309 C307 1.384 . S
H310 C316 0.930 . S
H311 C320 0.930 . S
H312 C325 0.929 . S
H313 C323 0.929 . S
H314 C318 0.929 . S
H315 C324 0.929 . S
C316 H310 0.930 . S
C316 C317 1.367 . S
C316 C324 1.378 . S
C317 C316 1.367 . S
C317 C325 1.433 . S
C318 H314 0.929 . S
C318 C320 1.378 . S
C318 C322 1.350 . S
C319 C322 1.463 . S
C319 C324 1.350 . S
C319 N327 1.427 . S
C320 H311 0.930 . S
C320 C318 1.378 . S
C320 C321 1.367 . S
C321 C320 1.367 . S
C321 C323 1.433 . S
C322 C318 1.350 . S
C322 C319 1.463 . S
C322 N326 1.427 . S
C323 H313 0.929 . S
C323 C321 1.433 . S
C323 N326 1.384 . S
C324 H315 0.929 . S
C324 C316 1.378 . S
C324 C319 1.350 . S
C325 H312 0.929 . S
C325 C317 1.433 . S
C325 N327 1.384 . S
N326 C322 1.427 . S
N326 C323 1.384 . S
N327 C319 1.427 . S
N327 C325 1.384 . S
H328 C334 0.930 . S
H329 C338 0.930 . S
H330 C343 0.929 . S
H331 C341 0.929 . S
H332 C336 0.929 . S
H333 C342 0.929 . S
C334 H328 0.930 . S
C334 C335 1.367 . S
C334 C342 1.378 . S
C335 C334 1.367 . S
C335 C343 1.433 . S
C336 H332 0.929 . S
C336 C338 1.378 . S
C336 C340 1.350 . S
C337 C340 1.463 . S
C337 C342 1.350 . S
C337 N345 1.427 . S
C338 H329 0.930 . S
C338 C336 1.378 . S
C338 C339 1.367 . S
C339 C338 1.367 . S
C339 C341 1.433 . S
C340 C336 1.350 . S
C340 C337 1.463 . S
C340 N344 1.427 . S
C341 H331 0.929 . S
C341 C339 1.433 . S
C341 N344 1.384 . S
C342 H333 0.929 . S
C342 C334 1.378 . S
C342 C337 1.350 . S
C343 H330 0.929 . S
C343 C335 1.433 . S
C343 N345 1.384 . S
N344 C340 1.427 . S
N344 C341 1.384 . S
N345 C337 1.427 . S
N345 C343 1.384 . S
H346 C352 0.930 . S
H347 C356 0.930 . S
H348 C361 0.929 . S
H349 C359 0.929 . S
H350 C354 0.929 . S
H351 C360 0.929 . S
C352 H346 0.930 . S
C352 C353 1.367 . S
C352 C360 1.378 . S
C353 C352 1.367 . S
C353 C361 1.433 . S
C354 H350 0.929 . S
C354 C356 1.378 . S
C354 C358 1.350 . S
C355 C358 1.463 . S
C355 C360 1.350 . S
C355 N363 1.427 . S
C356 H347 0.930 . S
C356 C354 1.378 . S
C356 C357 1.367 . S
C357 C356 1.367 . S
C357 C359 1.433 . S
C358 C354 1.350 . S
C358 C355 1.463 . S
C358 N362 1.427 . S
C359 H349 0.929 . S
C359 C357 1.433 . S
C359 N362 1.384 . S
C360 H351 0.929 . S
C360 C352 1.378 . S
C360 C355 1.350 . S
C361 H348 0.929 . S
C361 C353 1.433 . S
C361 N363 1.384 . S
N362 C358 1.427 . S
N362 C359 1.384 . S
N363 C355 1.427 . S
N363 C361 1.384 . S
H364 C370 0.930 . S
H365 C374 0.930 . S
H366 C379 0.929 . S
H367 C377 0.929 . S
H368 C372 0.929 . S
H369 C378 0.929 . S
C370 H364 0.930 . S
C370 C371 1.367 . S
C370 C378 1.378 . S
C371 C370 1.367 . S
C371 C379 1.433 . S
C372 H368 0.929 . S
C372 C374 1.378 . S
C372 C376 1.350 . S
C373 C376 1.463 1_554 S
C373 C378 1.350 . S
C373 N381 1.427 . S
C374 H365 0.930 . S
C374 C372 1.378 . S
C374 C375 1.367 . S
C375 C374 1.367 . S
C375 C377 1.433 . S
C376 C372 1.350 . S
C376 C373 1.463 1_556 S
C376 N380 1.427 . S
C377 H367 0.929 . S
C377 C375 1.433 . S
C377 N380 1.384 . S
C378 H369 0.929 . S
C378 C370 1.378 . S
C378 C373 1.350 . S
C379 H366 0.929 . S
C379 C371 1.433 . S
C379 N381 1.384 . S
N380 C376 1.427 . S
N380 C377 1.384 . S
N381 C373 1.427 . S
N381 C379 1.384 . S
H382 C388 0.930 . S
H383 C392 0.930 . S
H384 C397 0.929 . S
H385 C395 0.929 . S
H386 C390 0.929 . S
H387 C396 0.929 . S
C388 H382 0.930 . S
C388 C389 1.367 . S
C388 C396 1.378 . S
C389 C388 1.367 . S
C389 C397 1.433 . S
C390 H386 0.929 . S
C390 C392 1.378 . S
C390 C394 1.350 . S
C391 C394 1.463 1_554 S
C391 C396 1.350 . S
C391 N399 1.427 . S
C392 H383 0.930 . S
C392 C390 1.378 . S
C392 C393 1.367 . S
C393 C392 1.367 . S
C393 C395 1.433 . S
C394 C390 1.350 . S
C394 C391 1.463 1_556 S
C394 N398 1.427 . S
C395 H385 0.929 . S
C395 C393 1.433 . S
C395 N398 1.384 . S
C396 H387 0.929 . S
C396 C388 1.378 . S
C396 C391 1.350 . S
C397 H384 0.929 . S
C397 C389 1.433 . S
C397 N399 1.384 . S
N398 C394 1.427 . S
N398 C395 1.384 . S
N399 C391 1.427 . S
N399 C397 1.384 . S
C119 C0 1.529 . S
C123 C28 1.529 . S
C137 C42 1.533 . S
C141 C14 1.533 . S
C155 C84 1.533 . S
C159 C56 1.533 . S
C173 C70 1.529 . S
C177 C98 1.529 . S
C191 C95 1.777 . S
C195 C11 1.777 . S
C209 C25 1.781 . S
C213 C109 1.781 . S
C227 C39 1.778 . S
C231 C67 1.778 . S
C245 C53 1.781 . S
C249 C81 1.781 . S
C263 C93 1.536 . S
C267 C9 1.536 . S
C281 C23 1.536 . S
C285 C107 1.536 . S
C299 C65 1.539 . S
C303 C37 1.539 . S
C317 C79 1.536 . S
C321 C51 1.536 . S
C335 C19 0.490 . S
C339 C5 0.511 . S
C353 C33 0.488 . S
C357 C47 0.524 . S
C371 C75 0.513 . S
C375 C61 0.489 . S
C389 C89 0.488 . S
C393 C103 0.523 . S
