# Generated by pormake.
# Topology rho, (4)-cn, num edge types: 1
# Building blocks:
#     Node 0, Type 0, BuildingBlock: QUQFOY_clean_sbu_1, # of connection points: 4
#     Node 1, Type 0, BuildingBlock: QUQFOY_clean_sbu_1, # of connection points: 4
#     Node 2, Type 0, BuildingBlock: QUQFOY_clean_sbu_1, # of connection points: 4
#     Node 3, Type 0, BuildingBlock: QUQFOY_clean_sbu_1, # of connection points: 4
#     Node 4, Type 0, BuildingBlock: QUQFOY_clean_sbu_1, # of connection points: 4
#     Node 5, Type 0, BuildingBlock: QUQFOY_clean_sbu_1, # of connection points: 4
#     Node 6, Type 0, BuildingBlock: QUQFOY_clean_sbu_1, # of connection points: 4
#     Node 7, Type 0, BuildingBlock: QUQFOY_clean_sbu_1, # of connection points: 4
#     Node 8, Type 0, BuildingBlock: QUQFOY_clean_sbu_1, # of connection points: 4
#     Node 9, Type 0, BuildingBlock: QUQFOY_clean_sbu_1, # of connection points: 4
#     Node 10, Type 0, BuildingBlock: QUQFOY_clean_sbu_1, # of connection points: 4
#     Node 11, Type 0, BuildingBlock: QUQFOY_clean_sbu_1, # of connection points: 4
#     Node 12, Type 0, BuildingBlock: QUQFOY_clean_sbu_1, # of connection points: 4
#     Node 13, Type 0, BuildingBlock: QUQFOY_clean_sbu_1, # of connection points: 4
#     Node 14, Type 0, BuildingBlock: QUQFOY_clean_sbu_1, # of connection points: 4
#     Node 15, Type 0, BuildingBlock: QUQFOY_clean_sbu_1, # of connection points: 4
#     Node 16, Type 0, BuildingBlock: QUQFOY_clean_sbu_1, # of connection points: 4
#     Node 17, Type 0, BuildingBlock: QUQFOY_clean_sbu_1, # of connection points: 4
#     Node 18, Type 0, BuildingBlock: QUQFOY_clean_sbu_1, # of connection points: 4
#     Node 19, Type 0, BuildingBlock: QUQFOY_clean_sbu_1, # of connection points: 4
#     Node 20, Type 0, BuildingBlock: QUQFOY_clean_sbu_1, # of connection points: 4
#     Node 21, Type 0, BuildingBlock: QUQFOY_clean_sbu_1, # of connection points: 4
#     Node 22, Type 0, BuildingBlock: QUQFOY_clean_sbu_1, # of connection points: 4
#     Node 23, Type 0, BuildingBlock: QUQFOY_clean_sbu_1, # of connection points: 4
#     Node 24, Type 0, BuildingBlock: QUQFOY_clean_sbu_1, # of connection points: 4
#     Node 25, Type 0, BuildingBlock: QUQFOY_clean_sbu_1, # of connection points: 4
#     Node 26, Type 0, BuildingBlock: QUQFOY_clean_sbu_1, # of connection points: 4
#     Node 27, Type 0, BuildingBlock: QUQFOY_clean_sbu_1, # of connection points: 4
#     Node 28, Type 0, BuildingBlock: QUQFOY_clean_sbu_1, # of connection points: 4
#     Node 29, Type 0, BuildingBlock: QUQFOY_clean_sbu_1, # of connection points: 4
#     Node 30, Type 0, BuildingBlock: QUQFOY_clean_sbu_1, # of connection points: 4
#     Node 31, Type 0, BuildingBlock: QUQFOY_clean_sbu_1, # of connection points: 4
#     Node 32, Type 0, BuildingBlock: QUQFOY_clean_sbu_1, # of connection points: 4
#     Node 33, Type 0, BuildingBlock: QUQFOY_clean_sbu_1, # of connection points: 4
#     Node 34, Type 0, BuildingBlock: QUQFOY_clean_sbu_1, # of connection points: 4
#     Node 35, Type 0, BuildingBlock: QUQFOY_clean_sbu_1, # of connection points: 4
#     Node 36, Type 0, BuildingBlock: QUQFOY_clean_sbu_1, # of connection points: 4
#     Node 37, Type 0, BuildingBlock: QUQFOY_clean_sbu_1, # of connection points: 4
#     Node 38, Type 0, BuildingBlock: QUQFOY_clean_sbu_1, # of connection points: 4
#     Node 39, Type 0, BuildingBlock: QUQFOY_clean_sbu_1, # of connection points: 4
#     Node 40, Type 0, BuildingBlock: QUQFOY_clean_sbu_1, # of connection points: 4
#     Node 41, Type 0, BuildingBlock: QUQFOY_clean_sbu_1, # of connection points: 4
#     Node 42, Type 0, BuildingBlock: QUQFOY_clean_sbu_1, # of connection points: 4
#     Node 43, Type 0, BuildingBlock: QUQFOY_clean_sbu_1, # of connection points: 4
#     Node 44, Type 0, BuildingBlock: QUQFOY_clean_sbu_1, # of connection points: 4
#     Node 45, Type 0, BuildingBlock: QUQFOY_clean_sbu_1, # of connection points: 4
#     Node 46, Type 0, BuildingBlock: QUQFOY_clean_sbu_1, # of connection points: 4
#     Node 47, Type 0, BuildingBlock: QUQFOY_clean_sbu_1, # of connection points: 4
#     Edge 48, Type (0, 0), BuildingBlock: XUDNAN_clean_linker_2, # of connection points: 2
#     Edge 49, Type (0, 0), BuildingBlock: XUDNAN_clean_linker_2, # of connection points: 2
#     Edge 50, Type (0, 0), BuildingBlock: XUDNAN_clean_linker_2, # of connection points: 2
#     Edge 51, Type (0, 0), BuildingBlock: XUDNAN_clean_linker_2, # of connection points: 2
#     Edge 52, Type (0, 0), BuildingBlock: XUDNAN_clean_linker_2, # of connection points: 2
#     Edge 53, Type (0, 0), BuildingBlock: XUDNAN_clean_linker_2, # of connection points: 2
#     Edge 54, Type (0, 0), BuildingBlock: XUDNAN_clean_linker_2, # of connection points: 2
#     Edge 55, Type (0, 0), BuildingBlock: XUDNAN_clean_linker_2, # of connection points: 2
#     Edge 56, Type (0, 0), BuildingBlock: XUDNAN_clean_linker_2, # of connection points: 2
#     Edge 57, Type (0, 0), BuildingBlock: XUDNAN_clean_linker_2, # of connection points: 2
#     Edge 58, Type (0, 0), BuildingBlock: XUDNAN_clean_linker_2, # of connection points: 2
#     Edge 59, Type (0, 0), BuildingBlock: XUDNAN_clean_linker_2, # of connection points: 2
#     Edge 60, Type (0, 0), BuildingBlock: XUDNAN_clean_linker_2, # of connection points: 2
#     Edge 61, Type (0, 0), BuildingBlock: XUDNAN_clean_linker_2, # of connection points: 2
#     Edge 62, Type (0, 0), BuildingBlock: XUDNAN_clean_linker_2, # of connection points: 2
#     Edge 63, Type (0, 0), BuildingBlock: XUDNAN_clean_linker_2, # of connection points: 2
#     Edge 64, Type (0, 0), BuildingBlock: XUDNAN_clean_linker_2, # of connection points: 2
#     Edge 65, Type (0, 0), BuildingBlock: XUDNAN_clean_linker_2, # of connection points: 2
#     Edge 66, Type (0, 0), BuildingBlock: XUDNAN_clean_linker_2, # of connection points: 2
#     Edge 67, Type (0, 0), BuildingBlock: XUDNAN_clean_linker_2, # of connection points: 2
#     Edge 68, Type (0, 0), BuildingBlock: XUDNAN_clean_linker_2, # of connection points: 2
#     Edge 69, Type (0, 0), BuildingBlock: XUDNAN_clean_linker_2, # of connection points: 2
#     Edge 70, Type (0, 0), BuildingBlock: XUDNAN_clean_linker_2, # of connection points: 2
#     Edge 71, Type (0, 0), BuildingBlock: XUDNAN_clean_linker_2, # of connection points: 2
#     Edge 72, Type (0, 0), BuildingBlock: XUDNAN_clean_linker_2, # of connection points: 2
#     Edge 73, Type (0, 0), BuildingBlock: XUDNAN_clean_linker_2, # of connection points: 2
#     Edge 74, Type (0, 0), BuildingBlock: XUDNAN_clean_linker_2, # of connection points: 2
#     Edge 75, Type (0, 0), BuildingBlock: XUDNAN_clean_linker_2, # of connection points: 2
#     Edge 76, Type (0, 0), BuildingBlock: XUDNAN_clean_linker_2, # of connection points: 2
#     Edge 77, Type (0, 0), BuildingBlock: XUDNAN_clean_linker_2, # of connection points: 2
#     Edge 78, Type (0, 0), BuildingBlock: XUDNAN_clean_linker_2, # of connection points: 2
#     Edge 79, Type (0, 0), BuildingBlock: XUDNAN_clean_linker_2, # of connection points: 2
#     Edge 80, Type (0, 0), BuildingBlock: XUDNAN_clean_linker_2, # of connection points: 2
#     Edge 81, Type (0, 0), BuildingBlock: XUDNAN_clean_linker_2, # of connection points: 2
#     Edge 82, Type (0, 0), BuildingBlock: XUDNAN_clean_linker_2, # of connection points: 2
#     Edge 83, Type (0, 0), BuildingBlock: XUDNAN_clean_linker_2, # of connection points: 2
#     Edge 84, Type (0, 0), BuildingBlock: XUDNAN_clean_linker_2, # of connection points: 2
#     Edge 85, Type (0, 0), BuildingBlock: XUDNAN_clean_linker_2, # of connection points: 2
#     Edge 86, Type (0, 0), BuildingBlock: XUDNAN_clean_linker_2, # of connection points: 2
#     Edge 87, Type (0, 0), BuildingBlock: XUDNAN_clean_linker_2, # of connection points: 2
#     Edge 88, Type (0, 0), BuildingBlock: XUDNAN_clean_linker_2, # of connection points: 2
#     Edge 89, Type (0, 0), BuildingBlock: XUDNAN_clean_linker_2, # of connection points: 2
#     Edge 90, Type (0, 0), BuildingBlock: XUDNAN_clean_linker_2, # of connection points: 2
#     Edge 91, Type (0, 0), BuildingBlock: XUDNAN_clean_linker_2, # of connection points: 2
#     Edge 92, Type (0, 0), BuildingBlock: XUDNAN_clean_linker_2, # of connection points: 2
#     Edge 93, Type (0, 0), BuildingBlock: XUDNAN_clean_linker_2, # of connection points: 2
#     Edge 94, Type (0, 0), BuildingBlock: XUDNAN_clean_linker_2, # of connection points: 2
#     Edge 95, Type (0, 0), BuildingBlock: XUDNAN_clean_linker_2, # of connection points: 2
#     Edge 96, Type (0, 0), BuildingBlock: XUDNAN_clean_linker_2, # of connection points: 2
#     Edge 97, Type (0, 0), BuildingBlock: XUDNAN_clean_linker_2, # of connection points: 2
#     Edge 98, Type (0, 0), BuildingBlock: XUDNAN_clean_linker_2, # of connection points: 2
#     Edge 99, Type (0, 0), BuildingBlock: XUDNAN_clean_linker_2, # of connection points: 2
#     Edge 100, Type (0, 0), BuildingBlock: XUDNAN_clean_linker_2, # of connection points: 2
#     Edge 101, Type (0, 0), BuildingBlock: XUDNAN_clean_linker_2, # of connection points: 2
#     Edge 102, Type (0, 0), BuildingBlock: XUDNAN_clean_linker_2, # of connection points: 2
#     Edge 103, Type (0, 0), BuildingBlock: XUDNAN_clean_linker_2, # of connection points: 2
#     Edge 104, Type (0, 0), BuildingBlock: XUDNAN_clean_linker_2, # of connection points: 2
#     Edge 105, Type (0, 0), BuildingBlock: XUDNAN_clean_linker_2, # of connection points: 2
#     Edge 106, Type (0, 0), BuildingBlock: XUDNAN_clean_linker_2, # of connection points: 2
#     Edge 107, Type (0, 0), BuildingBlock: XUDNAN_clean_linker_2, # of connection points: 2
#     Edge 108, Type (0, 0), BuildingBlock: XUDNAN_clean_linker_2, # of connection points: 2
#     Edge 109, Type (0, 0), BuildingBlock: XUDNAN_clean_linker_2, # of connection points: 2
#     Edge 110, Type (0, 0), BuildingBlock: XUDNAN_clean_linker_2, # of connection points: 2
#     Edge 111, Type (0, 0), BuildingBlock: XUDNAN_clean_linker_2, # of connection points: 2
#     Edge 112, Type (0, 0), BuildingBlock: XUDNAN_clean_linker_2, # of connection points: 2
#     Edge 113, Type (0, 0), BuildingBlock: XUDNAN_clean_linker_2, # of connection points: 2
#     Edge 114, Type (0, 0), BuildingBlock: XUDNAN_clean_linker_2, # of connection points: 2
#     Edge 115, Type (0, 0), BuildingBlock: XUDNAN_clean_linker_2, # of connection points: 2
#     Edge 116, Type (0, 0), BuildingBlock: XUDNAN_clean_linker_2, # of connection points: 2
#     Edge 117, Type (0, 0), BuildingBlock: XUDNAN_clean_linker_2, # of connection points: 2
#     Edge 118, Type (0, 0), BuildingBlock: XUDNAN_clean_linker_2, # of connection points: 2
#     Edge 119, Type (0, 0), BuildingBlock: XUDNAN_clean_linker_2, # of connection points: 2
#     Edge 120, Type (0, 0), BuildingBlock: XUDNAN_clean_linker_2, # of connection points: 2
#     Edge 121, Type (0, 0), BuildingBlock: XUDNAN_clean_linker_2, # of connection points: 2
#     Edge 122, Type (0, 0), BuildingBlock: XUDNAN_clean_linker_2, # of connection points: 2
#     Edge 123, Type (0, 0), BuildingBlock: XUDNAN_clean_linker_2, # of connection points: 2
#     Edge 124, Type (0, 0), BuildingBlock: XUDNAN_clean_linker_2, # of connection points: 2
#     Edge 125, Type (0, 0), BuildingBlock: XUDNAN_clean_linker_2, # of connection points: 2
#     Edge 126, Type (0, 0), BuildingBlock: XUDNAN_clean_linker_2, # of connection points: 2
#     Edge 127, Type (0, 0), BuildingBlock: XUDNAN_clean_linker_2, # of connection points: 2
#     Edge 128, Type (0, 0), BuildingBlock: XUDNAN_clean_linker_2, # of connection points: 2
#     Edge 129, Type (0, 0), BuildingBlock: XUDNAN_clean_linker_2, # of connection points: 2
#     Edge 130, Type (0, 0), BuildingBlock: XUDNAN_clean_linker_2, # of connection points: 2
#     Edge 131, Type (0, 0), BuildingBlock: XUDNAN_clean_linker_2, # of connection points: 2
#     Edge 132, Type (0, 0), BuildingBlock: XUDNAN_clean_linker_2, # of connection points: 2
#     Edge 133, Type (0, 0), BuildingBlock: XUDNAN_clean_linker_2, # of connection points: 2
#     Edge 134, Type (0, 0), BuildingBlock: XUDNAN_clean_linker_2, # of connection points: 2
#     Edge 135, Type (0, 0), BuildingBlock: XUDNAN_clean_linker_2, # of connection points: 2
#     Edge 136, Type (0, 0), BuildingBlock: XUDNAN_clean_linker_2, # of connection points: 2
#     Edge 137, Type (0, 0), BuildingBlock: XUDNAN_clean_linker_2, # of connection points: 2
#     Edge 138, Type (0, 0), BuildingBlock: XUDNAN_clean_linker_2, # of connection points: 2
#     Edge 139, Type (0, 0), BuildingBlock: XUDNAN_clean_linker_2, # of connection points: 2
#     Edge 140, Type (0, 0), BuildingBlock: XUDNAN_clean_linker_2, # of connection points: 2
#     Edge 141, Type (0, 0), BuildingBlock: XUDNAN_clean_linker_2, # of connection points: 2
#     Edge 142, Type (0, 0), BuildingBlock: XUDNAN_clean_linker_2, # of connection points: 2
#     Edge 143, Type (0, 0), BuildingBlock: XUDNAN_clean_linker_2, # of connection points: 2
# Relax obj value: 0.016
# Max RMSD: 0.061
# Mean RMSD: 0.061
data_MOF--net-rho--node1-QUQFOY_clean_sbu_1--edge1-XUDNAN_clean_linker_2
_symmetry_space_group_name_H-M    P1
_symmetry_Int_Tables_number       1
_symmetry_cell_setting            triclinic
loop_
_symmetry_equiv_pos_as_xyz
'x, y, z'
_cell_length_a     75.978832
_cell_length_b     76.040706
_cell_length_c     76.019061
_cell_angle_alpha  90.027268
_cell_angle_beta   90.010162
_cell_angle_gamma 89.995057
loop_
_atom_site_label
_atom_site_type_symbol
_atom_site_fract_x
_atom_site_fract_y
_atom_site_fract_z
_atom_type_partial_charge
O0 O 0.10956 0.2418 0.43387 0.0
Cd1 Cd 0.10538 0.23308 0.40845 0.0
Cd2 Cd 0.09817 0.26995 0.40326 0.0
O3 O 0.10753 0.27033 0.42889 0.0
O4 O 0.11518 0.20872 0.40835 0.0
O5 O 0.12621 0.23014 0.39213 0.0
C6 C 0.12694 0.21397 0.39733 0.0
C7 C 0.10389 0.29532 0.38637 0.0
C8 C 0.11049 0.25758 0.43931 0.0
C9 C 0.06862 0.24314 0.39778 0.0
O10 O 0.07356 0.25908 0.39891 0.0
O11 O 0.07952 0.23068 0.40023 0.0
O12 O 0.0934 0.29549 0.39963 0.0
O13 O 0.11149 0.28063 0.38255 0.0
O14 O 0.74045 0.07257 0.40253 0.0
Cd15 Cd 0.73181 0.09791 0.4068 0.0
Cd16 Cd 0.76778 0.10496 0.40643 0.0
O17 O 0.7687 0.07855 0.39932 0.0
O18 O 0.70726 0.09917 0.3976 0.0
O19 O 0.72944 0.11398 0.3859 0.0
C20 C 0.71299 0.10961 0.3855 0.0
C21 C 0.78848 0.12479 0.39481 0.0
C22 C 0.75607 0.06754 0.39929 0.0
C23 C 0.74654 0.11167 0.44015 0.0
O24 O 0.76115 0.11131 0.43202 0.0
O25 O 0.7324 0.10709 0.43245 0.0
O26 O 0.79289 0.11267 0.40576 0.0
O27 O 0.7723 0.12516 0.3896 0.0
O28 O 0.89637 0.76416 0.43276 0.0
Cd29 Cd 0.903 0.77158 0.40744 0.0
Cd30 Cd 0.90901 0.7344 0.40713 0.0
O31 O 0.89947 0.73526 0.43261 0.0
O32 O 0.89951 0.79755 0.40895 0.0
O33 O 0.88299 0.78075 0.39207 0.0
C34 C 0.88652 0.79617 0.39821 0.0
C35 C 0.89753 0.71537 0.38588 0.0
C36 C 0.89539 0.7494 0.44055 0.0
C37 C 0.94002 0.75782 0.39988 0.0
O38 O 0.93463 0.74237 0.40325 0.0
O39 O 0.92932 0.77071 0.39985 0.0
O40 O 0.90769 0.70975 0.39827 0.0
O41 O 0.89327 0.73183 0.38596 0.0
O42 O 0.26721 0.93258 0.40271 0.0
Cd43 Cd 0.27528 0.90699 0.40663 0.0
Cd44 Cd 0.23809 0.90063 0.40612 0.0
O45 O 0.23891 0.92707 0.39906 0.0
O46 O 0.30009 0.9056 0.3981 0.0
O47 O 0.27809 0.89131 0.38545 0.0
C48 C 0.2946 0.89547 0.38562 0.0
C49 C 0.21382 0.88432 0.39573 0.0
C50 C 0.25172 0.93786 0.39928 0.0
C51 C 0.25965 0.89285 0.43962 0.0
O52 O 0.24503 0.8936 0.43149 0.0
O53 O 0.27389 0.8973 0.43205 0.0
O54 O 0.21207 0.89697 0.4068 0.0
O55 O 0.22946 0.88095 0.39002 0.0
O56 O 0.07394 0.73937 0.60523 0.0
Cd57 Cd 0.09908 0.73029 0.60048 0.0
Cd58 Cd 0.10599 0.76871 0.60215 0.0
O59 O 0.07966 0.76755 0.60963 0.0
O60 O 0.09738 0.70428 0.6036 0.0
O61 O 0.11325 0.72111 0.62117 0.0
C62 C 0.10744 0.70566 0.61717 0.0
C63 C 0.12243 0.79296 0.61245 0.0
C64 C 0.06881 0.75479 0.6092 0.0
C65 C 0.11327 0.74795 0.56803 0.0
O66 O 0.11257 0.76233 0.57654 0.0
O67 O 0.10893 0.7335 0.57523 0.0
O68 O 0.10946 0.79475 0.60176 0.0
O69 O 0.12599 0.77729 0.61791 0.0
O70 O 0.24316 0.10983 0.57623 0.0
Cd71 Cd 0.23564 0.10295 0.60146 0.0
Cd72 Cd 0.27287 0.0968 0.60171 0.0
O73 O 0.27209 0.10673 0.57639 0.0
O74 O 0.20967 0.10656 0.59999 0.0
O75 O 0.22655 0.1228 0.61707 0.0
C76 C 0.2111 0.11939 0.6109 0.0
C77 C 0.29212 0.10754 0.62317 0.0
C78 C 0.25795 0.11089 0.56847 0.0
C79 C 0.24925 0.06584 0.60851 0.0
O80 O 0.26472 0.07123 0.60517 0.0
O81 O 0.23638 0.07656 0.60873 0.0
O82 O 0.29758 0.09762 0.61051 0.0
O83 O 0.2757 0.11204 0.62321 0.0
O84 O 0.9341 0.26456 0.60829 0.0
Cd85 Cd 0.90926 0.27476 0.60373 0.0
Cd86 Cd 0.90264 0.23762 0.59974 0.0
O87 O 0.92844 0.23606 0.60838 0.0
O88 O 0.91312 0.30049 0.60722 0.0
O89 O 0.8956 0.28503 0.62438 0.0
C90 C 0.90269 0.29997 0.62053 0.0
C91 C 0.88151 0.21786 0.61058 0.0
C92 C 0.93921 0.24875 0.61021 0.0
C93 C 0.89738 0.26117 0.56809 0.0
O94 O 0.8986 0.24561 0.57407 0.0
O95 O 0.89997 0.27434 0.57809 0.0
O96 O 0.89368 0.21292 0.59987 0.0
O97 O 0.88161 0.23407 0.6157 0.0
O98 O 0.76475 0.89716 0.57582 0.0
Cd99 Cd 0.77413 0.90163 0.60098 0.0
Cd100 Cd 0.73855 0.90765 0.60705 0.0
O101 O 0.73629 0.89857 0.58146 0.0
O102 O 0.79847 0.89168 0.60073 0.0
O103 O 0.77727 0.88103 0.6175 0.0
C104 C 0.79333 0.88009 0.61198 0.0
C105 C 0.71819 0.8983 0.62834 0.0
C106 C 0.74886 0.89594 0.57071 0.0
C107 C 0.76387 0.93832 0.61113 0.0
O108 O 0.74804 0.93292 0.61041 0.0
O109 O 0.77656 0.92764 0.60878 0.0
O110 O 0.71387 0.90911 0.61603 0.0
O111 O 0.73411 0.89232 0.62836 0.0
O112 O 0.39617 0.07651 0.26789 0.0
Cd113 Cd 0.40169 0.10263 0.27263 0.0
Cd114 Cd 0.40841 0.09987 0.23562 0.0
O115 O 0.39896 0.07451 0.23906 0.0
O116 O 0.39459 0.10452 0.29786 0.0
O117 O 0.38097 0.11895 0.27673 0.0
C118 C 0.38191 0.11469 0.29314 0.0
C119 C 0.39946 0.11623 0.21101 0.0
C120 C 0.39527 0.06755 0.2538 0.0
C121 C 0.43874 0.10953 0.25981 0.0
O122 O 0.43358 0.10502 0.24454 0.0
O123 O 0.42789 0.11042 0.27254 0.0
O124 O 0.40976 0.10284 0.20959 0.0
O125 O 0.3938 0.12027 0.22652 0.0
O126 O 0.93519 0.39983 0.26069 0.0
Cd127 Cd 0.91068 0.4044 0.27164 0.0
Cd128 Cd 0.90356 0.41011 0.23509 0.0
O129 O 0.92917 0.40122 0.23229 0.0
O130 O 0.91529 0.39995 0.29707 0.0
O131 O 0.89692 0.38366 0.28164 0.0
C132 C 0.90455 0.3869 0.29646 0.0
C133 C 0.88121 0.40016 0.21624 0.0
C134 C 0.94008 0.39862 0.24472 0.0
C135 C 0.89943 0.44083 0.26 0.0
O136 O 0.90029 0.4355 0.24418 0.0
O137 O 0.90195 0.43021 0.27267 0.0
O138 O 0.8933 0.41078 0.21091 0.0
O139 O 0.88214 0.39458 0.23227 0.0
O140 O 0.57492 0.8984 0.2429 0.0
Cd141 Cd 0.60101 0.90379 0.2382 0.0
Cd142 Cd 0.60001 0.90547 0.276 0.0
O143 O 0.57418 0.89731 0.27194 0.0
O144 O 0.60379 0.89685 0.21304 0.0
O145 O 0.61712 0.88292 0.23478 0.0
C146 C 0.61348 0.88393 0.2182 0.0
C147 C 0.6157 0.89532 0.30058 0.0
C148 C 0.56655 0.89577 0.25712 0.0
C149 C 0.61048 0.93818 0.25483 0.0
O150 O 0.60685 0.93086 0.26941 0.0
O151 O 0.60949 0.92967 0.24045 0.0
O152 O 0.60232 0.90559 0.30212 0.0
O153 O 0.61987 0.89002 0.28499 0.0
O154 O 0.10615 0.57485 0.24256 0.0
Cd155 Cd 0.10117 0.59924 0.2318 0.0
Cd156 Cd 0.10248 0.60798 0.26966 0.0
O157 O 0.1095 0.58157 0.27069 0.0
O158 O 0.10369 0.59522 0.20598 0.0
O159 O 0.12154 0.61263 0.22085 0.0
C160 C 0.1172 0.60543 0.20609 0.0
C161 C 0.11392 0.62765 0.29073 0.0
C162 C 0.10954 0.57028 0.2583 0.0
C163 C 0.06853 0.61423 0.24845 0.0
O164 O 0.07695 0.61431 0.2629 0.0
O165 O 0.07584 0.6091 0.23431 0.0
O166 O 0.10286 0.61553 0.29488 0.0
O167 O 0.1193 0.62814 0.27462 0.0
O168 O 0.4318 0.89295 0.76184 0.0
Cd169 Cd 0.40607 0.89919 0.76816 0.0
Cd170 Cd 0.40703 0.90722 0.73228 0.0
O171 O 0.43266 0.8979 0.73323 0.0
O172 O 0.40454 0.89072 0.793 0.0
O173 O 0.38886 0.87906 0.77156 0.0
C174 C 0.3935 0.87893 0.78791 0.0
C175 C 0.38615 0.89656 0.71236 0.0
C176 C 0.44016 0.89298 0.74735 0.0
C177 C 0.39928 0.93694 0.75736 0.0
O178 O 0.40267 0.93228 0.74166 0.0
O179 O 0.39915 0.92562 0.76971 0.0
O180 O 0.39853 0.9071 0.70744 0.0
O181 O 0.38607 0.89146 0.72859 0.0
O182 O 0.11343 0.43128 0.76626 0.0
Cd183 Cd 0.10837 0.40499 0.77078 0.0
Cd184 Cd 0.10049 0.4081 0.73415 0.0
O185 O 0.10989 0.4335 0.73751 0.0
O186 O 0.11659 0.40248 0.79563 0.0
O187 O 0.12929 0.38862 0.77354 0.0
C188 C 0.12903 0.3924 0.79011 0.0
C189 C 0.10804 0.39175 0.70907 0.0
C190 C 0.11384 0.44039 0.75224 0.0
C191 C 0.071 0.39803 0.75913 0.0
O192 O 0.0757 0.40284 0.74382 0.0
O193 O 0.08223 0.39697 0.77152 0.0
O194 O 0.09792 0.40532 0.70819 0.0
O195 O 0.1145 0.38766 0.72424 0.0
O196 O 0.60787 0.07292 0.74437 0.0
Cd197 Cd 0.60433 0.09814 0.73488 0.0
Cd198 Cd 0.59878 0.10442 0.77034 0.0
O199 O 0.6067 0.07848 0.77283 0.0
O200 O 0.61365 0.09693 0.71036 0.0
O201 O 0.62558 0.11365 0.73091 0.0
C202 C 0.62587 0.10774 0.71497 0.0
C203 C 0.60976 0.12574 0.78979 0.0
C204 C 0.60889 0.06769 0.76022 0.0
C205 C 0.56811 0.1098 0.74536 0.0
O206 O 0.57351 0.10882 0.76117 0.0
O207 O 0.57866 0.10703 0.73266 0.0
O208 O 0.59848 0.1141 0.79475 0.0
O209 O 0.61527 0.12504 0.77372 0.0
O210 O 0.90083 0.57624 0.76885 0.0
Cd211 Cd 0.90601 0.60228 0.77394 0.0
Cd212 Cd 0.90847 0.60148 0.73565 0.0
O213 O 0.90049 0.57562 0.73978 0.0
O214 O 0.89839 0.6048 0.79895 0.0
O215 O 0.88492 0.6182 0.77695 0.0
C216 C 0.88551 0.61441 0.79351 0.0
C217 C 0.8992 0.61617 0.71007 0.0
C218 C 0.8986 0.56794 0.75452 0.0
C219 C 0.94057 0.61236 0.75794 0.0
O220 O 0.93348 0.6089 0.74318 0.0
O221 O 0.9319 0.61096 0.77219 0.0
O222 O 0.90985 0.60303 0.70948 0.0
O223 O 0.89308 0.62072 0.72525 0.0
O224 O 0.26563 0.40073 0.07287 0.0
Cd225 Cd 0.2749 0.40475 0.09813 0.0
Cd226 Cd 0.23928 0.41005 0.10394 0.0
O227 O 0.2371 0.40115 0.07826 0.0
O228 O 0.29933 0.39505 0.09763 0.0
O229 O 0.27822 0.38377 0.11411 0.0
C230 C 0.29428 0.38309 0.10853 0.0
C231 C 0.21947 0.40027 0.12553 0.0
C232 C 0.24983 0.39912 0.06758 0.0
C233 C 0.26405 0.44107 0.10868 0.0
O234 O 0.24834 0.43545 0.10748 0.0
O235 O 0.27695 0.43061 0.10656 0.0
O236 O 0.21473 0.41096 0.11327 0.0
O237 O 0.23549 0.39455 0.12525 0.0
O238 O 0.24093 0.57766 0.8969 0.0
Cd239 Cd 0.23539 0.60352 0.90271 0.0
Cd240 Cd 0.27395 0.60322 0.90531 0.0
O241 O 0.27005 0.57734 0.89724 0.0
O242 O 0.21017 0.60593 0.89562 0.0
O243 O 0.23172 0.62007 0.88223 0.0
C244 C 0.21519 0.61616 0.88308 0.0
C245 C 0.29949 0.61822 0.89633 0.0
C246 C 0.25542 0.56953 0.89495 0.0
C247 C 0.25145 0.61332 0.93745 0.0
O248 O 0.2663 0.61038 0.93033 0.0
O249 O 0.23722 0.61163 0.92877 0.0
O250 O 0.30012 0.60498 0.90685 0.0
O251 O 0.2843 0.62266 0.89014 0.0
O252 O 0.40324 0.26601 0.93465 0.0
Cd253 Cd 0.40812 0.27624 0.91002 0.0
Cd254 Cd 0.40719 0.23713 0.9018 0.0
O255 O 0.39957 0.23789 0.92808 0.0
O256 O 0.40553 0.30214 0.91333 0.0
O257 O 0.38767 0.28673 0.89639 0.0
C258 C 0.39199 0.3017 0.90315 0.0
C259 C 0.39862 0.21187 0.88587 0.0
C260 C 0.39958 0.25036 0.93926 0.0
C261 C 0.44067 0.25935 0.89494 0.0
O262 O 0.4324 0.24482 0.89508 0.0
O263 O 0.43333 0.27349 0.90003 0.0
O264 O 0.40945 0.21113 0.89882 0.0
O265 O 0.39204 0.22702 0.882 0.0
O266 O 0.76342 0.43389 0.9006 0.0
Cd267 Cd 0.77311 0.40895 0.90575 0.0
Cd268 Cd 0.73624 0.40287 0.91038 0.0
O269 O 0.73484 0.42853 0.90134 0.0
O270 O 0.79887 0.41149 0.90135 0.0
O271 O 0.78208 0.39399 0.88541 0.0
C272 C 0.79746 0.40045 0.88861 0.0
C273 C 0.71631 0.38165 0.90003 0.0
C274 C 0.74759 0.43912 0.89896 0.0
C275 C 0.76007 0.39817 0.94188 0.0
O276 O 0.74444 0.39919 0.93602 0.0
O277 O 0.77312 0.4006 0.9317 0.0
O278 O 0.71148 0.39402 0.91056 0.0
O279 O 0.73249 0.38162 0.89479 0.0
O280 O 0.60532 0.74579 0.93576 0.0
Cd281 Cd 0.60051 0.73544 0.91114 0.0
Cd282 Cd 0.60261 0.77215 0.90252 0.0
O283 O 0.60967 0.77368 0.92887 0.0
O284 O 0.60347 0.70961 0.91446 0.0
O285 O 0.62111 0.72526 0.89752 0.0
C286 C 0.61703 0.71024 0.90432 0.0
C287 C 0.6153 0.79161 0.88211 0.0
C288 C 0.60917 0.76143 0.94027 0.0
C289 C 0.56802 0.75235 0.89644 0.0
O290 O 0.57669 0.76665 0.89653 0.0
O291 O 0.57519 0.73803 0.90124 0.0
O292 O 0.60455 0.79693 0.89406 0.0
O293 O 0.61966 0.77519 0.8822 0.0
O294 O 0.74711 0.61089 0.07375 0.0
Cd295 Cd 0.73734 0.60737 0.0989 0.0
Cd296 Cd 0.77286 0.59997 0.10507 0.0
O297 O 0.7755 0.60798 0.07915 0.0
O298 O 0.71301 0.61721 0.09748 0.0
O299 O 0.73355 0.62856 0.11459 0.0
C300 C 0.71768 0.62919 0.10852 0.0
C301 C 0.79302 0.6097 0.12635 0.0
C302 C 0.76299 0.61107 0.06846 0.0
C303 C 0.74639 0.57059 0.11031 0.0
O304 O 0.76244 0.57522 0.1094 0.0
O305 O 0.73419 0.58171 0.10752 0.0
O306 O 0.79732 0.59831 0.11455 0.0
O307 O 0.77725 0.61606 0.1258 0.0
O308 O 0.43326 0.76619 0.10742 0.0
Cd309 Cd 0.40827 0.77597 0.10243 0.0
Cd310 Cd 0.40193 0.7392 0.0984 0.0
O311 O 0.42765 0.73767 0.1073 0.0
O312 O 0.41085 0.80173 0.10678 0.0
O313 O 0.39352 0.78497 0.1229 0.0
C314 C 0.39996 0.80034 0.11966 0.0
C315 C 0.38053 0.71978 0.10935 0.0
C316 C 0.43839 0.75036 0.10932 0.0
C317 C 0.3971 0.7625 0.06655 0.0
O318 O 0.3982 0.74696 0.07261 0.0
O319 O 0.39955 0.77569 0.07656 0.0
O320 O 0.39276 0.71457 0.09883 0.0
O321 O 0.38072 0.73607 0.11421 0.0
O322 O 0.57379 0.23942 0.11189 0.0
Cd323 Cd 0.59899 0.23194 0.10487 0.0
Cd324 Cd 0.59831 0.27113 0.09785 0.0
O325 O 0.57315 0.26825 0.10794 0.0
O326 O 0.59714 0.2059 0.10772 0.0
O327 O 0.61447 0.222 0.12444 0.0
C328 C 0.60809 0.20676 0.12057 0.0
C329 C 0.61433 0.29664 0.1049 0.0
C330 C 0.56568 0.25403 0.11257 0.0
C331 C 0.60645 0.24596 0.06779 0.0
O332 O 0.603 0.26149 0.07295 0.0
O333 O 0.60638 0.23314 0.07855 0.0
O334 O 0.60068 0.29708 0.09487 0.0
O335 O 0.61883 0.28162 0.11143 0.0
O336 O 0.89592 0.76098 0.57727 0.0
Cd337 Cd 0.90213 0.76667 0.60309 0.0
Cd338 Cd 0.90961 0.72942 0.60104 0.0
O339 O 0.89988 0.73225 0.57573 0.0
O340 O 0.89474 0.79188 0.60431 0.0
O341 O 0.88178 0.7711 0.61982 0.0
C342 C 0.88238 0.78737 0.61497 0.0
C343 C 0.90137 0.70478 0.61772 0.0
C344 C 0.89542 0.7467 0.56861 0.0
C345 C 0.93956 0.75444 0.60978 0.0
O346 O 0.93458 0.73895 0.60587 0.0
O347 O 0.92854 0.76706 0.61031 0.0
O348 O 0.91164 0.70347 0.6043 0.0
O349 O 0.89535 0.72019 0.62162 0.0
O350 O 0.26598 0.93159 0.60465 0.0
Cd351 Cd 0.27462 0.90622 0.60077 0.0
Cd352 Cd 0.23724 0.89932 0.60109 0.0
O353 O 0.23775 0.92574 0.60828 0.0
O354 O 0.2996 0.90592 0.6089 0.0
O355 O 0.27842 0.89088 0.62203 0.0
C356 C 0.29472 0.89576 0.62159 0.0
C357 C 0.213 0.8828 0.61124 0.0
C358 C 0.25043 0.93668 0.60809 0.0
C359 C 0.25919 0.89193 0.56769 0.0
O360 O 0.24452 0.8925 0.57573 0.0
O361 O 0.27336 0.89648 0.57536 0.0
O362 O 0.21126 0.89543 0.60015 0.0
O363 O 0.22862 0.87954 0.61706 0.0
O364 O 0.10911 0.24384 0.57395 0.0
Cd365 Cd 0.10439 0.23494 0.59924 0.0
Cd366 Cd 0.09862 0.27352 0.60391 0.0
O367 O 0.10792 0.27258 0.57829 0.0
O368 O 0.10843 0.2091 0.59705 0.0
O369 O 0.125 0.22595 0.61386 0.0
C370 C 0.12148 0.21052 0.60772 0.0
C371 C 0.10567 0.29892 0.62028 0.0
C372 C 0.11051 0.25948 0.56819 0.0
C373 C 0.06817 0.24817 0.61026 0.0
O374 O 0.07358 0.26391 0.60858 0.0
O375 O 0.0786 0.23528 0.60808 0.0
O376 O 0.09522 0.29938 0.60699 0.0
O377 O 0.11249 0.28393 0.62439 0.0
O378 O 0.74585 0.07186 0.60592 0.0
Cd379 Cd 0.73594 0.09676 0.60181 0.0
Cd380 Cd 0.77183 0.10507 0.60116 0.0
O381 O 0.77401 0.07868 0.60809 0.0
O382 O 0.71133 0.0963 0.6109 0.0
O383 O 0.73238 0.1125 0.62283 0.0
C384 C 0.71626 0.10702 0.62311 0.0
C385 C 0.79177 0.12576 0.61264 0.0
C386 C 0.76172 0.06731 0.6086 0.0
C387 C 0.74941 0.11113 0.5681 0.0
O388 O 0.76427 0.11125 0.57579 0.0
O389 O 0.73568 0.10605 0.57619 0.0
O390 O 0.79657 0.11396 0.60148 0.0
O391 O 0.77568 0.12533 0.6181 0.0
O392 O 0.93466 0.25863 0.39877 0.0
Cd393 Cd 0.91001 0.26943 0.40302 0.0
Cd394 Cd 0.90304 0.23264 0.40871 0.0
O395 O 0.9289 0.2302 0.40049 0.0
O396 O 0.91476 0.29494 0.39926 0.0
O397 O 0.89668 0.27998 0.38225 0.0
C398 C 0.90425 0.2947 0.38602 0.0
C399 C 0.88137 0.21359 0.39771 0.0
C400 C 0.93971 0.24271 0.39785 0.0
C401 C 0.89783 0.25748 0.43924 0.0
O402 O 0.89885 0.24163 0.43404 0.0
O403 O 0.90069 0.27009 0.42863 0.0
O404 O 0.8931 0.20833 0.40877 0.0
O405 O 0.88222 0.22971 0.39238 0.0
O406 O 0.7619 0.89762 0.43613 0.0
Cd407 Cd 0.77063 0.90246 0.4108 0.0
Cd408 Cd 0.73232 0.90762 0.40612 0.0
O409 O 0.73315 0.89856 0.43179 0.0
O410 O 0.79654 0.8986 0.41281 0.0
O411 O 0.77967 0.88194 0.39609 0.0
C412 C 0.79513 0.88555 0.40214 0.0
C413 C 0.70764 0.89918 0.38937 0.0
C414 C 0.74626 0.8961 0.4419 0.0
C415 C 0.75695 0.93851 0.39979 0.0
O416 O 0.74126 0.9329 0.40145 0.0
O417 O 0.76997 0.92823 0.40197 0.0
O418 O 0.7064 0.90981 0.40248 0.0
O419 O 0.72304 0.89308 0.3856 0.0
O420 O 0.07463 0.7418 0.40278 0.0
Cd421 Cd 0.10026 0.73383 0.40658 0.0
Cd422 Cd 0.10654 0.77076 0.40625 0.0
O423 O 0.08013 0.77005 0.399 0.0
O424 O 0.10171 0.7092 0.3976 0.0
O425 O 0.11591 0.73144 0.38532 0.0
C426 C 0.11174 0.71495 0.38516 0.0
C427 C 0.12316 0.79478 0.39584 0.0
C428 C 0.06932 0.75726 0.39928 0.0
C429 C 0.11408 0.74925 0.43979 0.0
O430 O 0.11324 0.76389 0.43173 0.0
O431 O 0.1099 0.73501 0.43206 0.0
O432 O 0.11043 0.79672 0.4068 0.0
O433 O 0.12643 0.77908 0.39026 0.0
O434 O 0.24513 0.11064 0.43223 0.0
Cd435 Cd 0.23914 0.10436 0.40647 0.0
Cd436 Cd 0.27495 0.09787 0.40736 0.0
O437 O 0.27397 0.10722 0.43293 0.0
O438 O 0.21405 0.11207 0.40512 0.0
O439 O 0.23511 0.12464 0.38963 0.0
C440 C 0.2188 0.12427 0.39439 0.0
C441 C 0.29363 0.10989 0.38612 0.0
C442 C 0.25965 0.11139 0.44051 0.0
C443 C 0.25131 0.06709 0.39962 0.0
O444 O 0.26679 0.07234 0.4032 0.0
O445 O 0.23856 0.07796 0.39927 0.0
O446 O 0.29951 0.09961 0.39829 0.0
O447 O 0.27708 0.1139 0.3864 0.0
O448 O 0.60541 0.93383 0.74404 0.0
Cd449 Cd 0.60173 0.90861 0.73485 0.0
Cd450 Cd 0.60186 0.90098 0.77054 0.0
O451 O 0.60837 0.92749 0.77221 0.0
O452 O 0.6111 0.90838 0.71034 0.0
O453 O 0.62308 0.89317 0.73209 0.0
C454 C 0.6235 0.89815 0.71582 0.0
C455 C 0.61445 0.88098 0.79048 0.0
C456 C 0.60837 0.93868 0.75977 0.0
C457 C 0.5684 0.89405 0.74902 0.0
O458 O 0.57635 0.89432 0.76374 0.0
O459 O 0.57624 0.8989 0.73506 0.0
O460 O 0.60312 0.89258 0.79538 0.0
O461 O 0.61933 0.88115 0.7742 0.0
O462 O 0.07563 0.60961 0.7431 0.0
Cd463 Cd 0.10071 0.60243 0.73556 0.0
Cd464 Cd 0.10314 0.60321 0.77401 0.0
O465 O 0.0771 0.61142 0.77213 0.0
O466 O 0.09926 0.60392 0.70937 0.0
O467 O 0.11586 0.62182 0.72506 0.0
C468 C 0.10975 0.61719 0.7099 0.0
C469 C 0.12317 0.61614 0.79362 0.0
C470 C 0.06846 0.61285 0.75786 0.0
C471 C 0.11103 0.56897 0.75451 0.0
O472 O 0.10885 0.57725 0.76888 0.0
O473 O 0.10893 0.57664 0.73979 0.0
O474 O 0.11061 0.60612 0.79905 0.0
O475 O 0.12377 0.61972 0.77701 0.0
O476 O 0.43424 0.10723 0.76238 0.0
Cd477 Cd 0.40943 0.10224 0.77255 0.0
Cd478 Cd 0.40289 0.09726 0.73578 0.0
O479 O 0.42848 0.10636 0.73389 0.0
O480 O 0.41254 0.10695 0.79819 0.0
O481 O 0.39477 0.12278 0.7816 0.0
C482 C 0.40159 0.11978 0.79686 0.0
C483 C 0.38146 0.10729 0.71592 0.0
C484 C 0.43925 0.1088 0.74648 0.0
C485 C 0.39856 0.06597 0.75996 0.0
O486 O 0.39947 0.07169 0.74428 0.0
O487 O 0.401 0.07628 0.77291 0.0
O488 O 0.39383 0.09674 0.71112 0.0
O489 O 0.38152 0.11269 0.73204 0.0
O490 O 0.8992 0.43095 0.76848 0.0
Cd491 Cd 0.90513 0.40518 0.77465 0.0
Cd492 Cd 0.91173 0.40716 0.73616 0.0
O493 O 0.90208 0.43241 0.73958 0.0
O494 O 0.90204 0.4059 0.80071 0.0
O495 O 0.88478 0.39011 0.78361 0.0
C496 C 0.88869 0.39565 0.79917 0.0
C497 C 0.90378 0.39107 0.71102 0.0
C498 C 0.89825 0.43958 0.75419 0.0
C499 C 0.94197 0.3977 0.7605 0.0
O500 O 0.9368 0.40214 0.74522 0.0
O501 O 0.93121 0.39705 0.77331 0.0
O502 O 0.91387 0.40465 0.71014 0.0
O503 O 0.89765 0.38675 0.72626 0.0
O504 O 0.5728 0.10385 0.24371 0.0
Cd505 Cd 0.59778 0.09864 0.2344 0.0
Cd506 Cd 0.60513 0.10124 0.27146 0.0
O507 O 0.57892 0.10901 0.27167 0.0
O508 O 0.59606 0.10176 0.20842 0.0
O509 O 0.61229 0.11906 0.22523 0.0
C510 C 0.60639 0.11513 0.20979 0.0
C511 C 0.62494 0.11315 0.29206 0.0
C512 C 0.56788 0.10828 0.25908 0.0
C513 C 0.6114 0.0663 0.25219 0.0
O514 O 0.61081 0.0752 0.26633 0.0
O515 O 0.60727 0.07327 0.23757 0.0
O516 O 0.61236 0.1028 0.29668 0.0
O517 O 0.62578 0.11763 0.2757 0.0
O518 O 0.903 0.57479 0.24479 0.0
Cd519 Cd 0.90694 0.59998 0.23563 0.0
Cd520 Cd 0.90711 0.60729 0.27184 0.0
O521 O 0.90024 0.58085 0.27306 0.0
O522 O 0.89812 0.59993 0.21092 0.0
O523 O 0.88573 0.6155 0.23218 0.0
C524 C 0.88567 0.61032 0.21597 0.0
C525 C 0.8955 0.62708 0.29259 0.0
C526 C 0.90005 0.56981 0.26047 0.0
C527 C 0.9404 0.61417 0.24996 0.0
O528 O 0.93254 0.61378 0.26472 0.0
O529 O 0.93249 0.60951 0.23598 0.0
O530 O 0.90669 0.61514 0.29692 0.0
O531 O 0.89011 0.62733 0.27647 0.0
O532 O 0.39839 0.93092 0.26889 0.0
Cd533 Cd 0.40408 0.90492 0.27373 0.0
Cd534 Cd 0.4049 0.90567 0.23556 0.0
O535 O 0.39657 0.93138 0.23986 0.0
O536 O 0.39746 0.90215 0.299 0.0
O537 O 0.38338 0.88867 0.27743 0.0
C538 C 0.38455 0.89235 0.294 0.0
C539 C 0.39517 0.89039 0.21048 0.0
C540 C 0.39535 0.93912 0.25465 0.0
C541 C 0.43816 0.89565 0.25636 0.0
O542 O 0.43042 0.89912 0.24195 0.0
O543 O 0.43 0.89662 0.27095 0.0
O544 O 0.40526 0.90393 0.20937 0.0
O545 O 0.38977 0.88582 0.22592 0.0
O546 O 0.10896 0.43582 0.24416 0.0
Cd547 Cd 0.10546 0.41044 0.23514 0.0
Cd548 Cd 0.09817 0.40513 0.27196 0.0
O549 O 0.10702 0.43093 0.27272 0.0
O550 O 0.11524 0.41123 0.21077 0.0
O551 O 0.12678 0.39484 0.23178 0.0
C552 C 0.12738 0.40051 0.21577 0.0
C553 C 0.10415 0.3877 0.29689 0.0
C554 C 0.10974 0.44135 0.25993 0.0
C555 C 0.06885 0.39917 0.24494 0.0
O556 O 0.07369 0.40051 0.26091 0.0
O557 O 0.0798 0.40165 0.23252 0.0
O558 O 0.09349 0.40082 0.29741 0.0
O559 O 0.11182 0.38439 0.28211 0.0
O560 O 0.74594 0.60857 0.93473 0.0
Cd561 Cd 0.7349 0.60396 0.91025 0.0
Cd562 Cd 0.77216 0.59883 0.90279 0.0
O563 O 0.77435 0.60704 0.92868 0.0
O564 O 0.70932 0.60755 0.91508 0.0
O565 O 0.72409 0.62451 0.89682 0.0
C566 C 0.70942 0.62072 0.90448 0.0
C567 C 0.79201 0.60967 0.88171 0.0
C568 C 0.76192 0.60963 0.9396 0.0
C569 C 0.74745 0.56794 0.89792 0.0
O570 O 0.76322 0.5735 0.89852 0.0
O571 O 0.73466 0.57825 0.90112 0.0
O572 O 0.79678 0.59851 0.89354 0.0
O573 O 0.7759 0.6151 0.88205 0.0
O574 O 0.7575 0.43599 0.11111 0.0
Cd575 Cd 0.76629 0.41054 0.10744 0.0
Cd576 Cd 0.72913 0.4059 0.09977 0.0
O577 O 0.72886 0.4317 0.10862 0.0
O578 O 0.79102 0.41154 0.11635 0.0
O579 O 0.77058 0.39502 0.12867 0.0
C580 C 0.78658 0.40078 0.12865 0.0
C581 C 0.70406 0.38871 0.10589 0.0
C582 C 0.74183 0.44184 0.11163 0.0
C583 C 0.75614 0.3995 0.07069 0.0
O584 O 0.74014 0.40115 0.07534 0.0
O585 O 0.76851 0.40172 0.08176 0.0
O586 O 0.70357 0.40184 0.09525 0.0
O587 O 0.71887 0.38527 0.11346 0.0
O588 O 0.60744 0.74806 0.07466 0.0
Cd589 Cd 0.60379 0.739 0.10002 0.0
Cd590 Cd 0.59823 0.77438 0.10564 0.0
O591 O 0.6066 0.77659 0.0798 0.0
O592 O 0.61329 0.71453 0.09919 0.0
O593 O 0.62509 0.73541 0.11558 0.0
C594 C 0.62554 0.71941 0.10986 0.0
C595 C 0.60936 0.79349 0.12717 0.0
C596 C 0.60873 0.76381 0.06921 0.0
C597 C 0.56742 0.74965 0.11104 0.0
O598 O 0.57281 0.76543 0.10971 0.0
O599 O 0.57805 0.7369 0.1088 0.0
O600 O 0.59833 0.79876 0.11542 0.0
O601 O 0.61452 0.7773 0.12647 0.0
O602 O 0.24405 0.57411 0.10329 0.0
Cd603 Cd 0.233 0.59836 0.09809 0.0
Cd604 Cd 0.27011 0.60783 0.10001 0.0
O605 O 0.2719 0.58155 0.10735 0.0
O606 O 0.20721 0.59442 0.10102 0.0
O607 O 0.22239 0.61201 0.11845 0.0
C608 C 0.20754 0.6048 0.11442 0.0
C609 C 0.29001 0.62848 0.11173 0.0
C610 C 0.25981 0.56995 0.1071 0.0
C611 C 0.24963 0.61325 0.06555 0.0
O612 O 0.26393 0.61356 0.07422 0.0
O613 O 0.23542 0.60808 0.0727 0.0
O614 O 0.29498 0.61634 0.10104 0.0
O615 O 0.27374 0.62842 0.11664 0.0
O616 O 0.40096 0.26195 0.07399 0.0
Cd617 Cd 0.40458 0.27012 0.09956 0.0
Cd618 Cd 0.40474 0.23221 0.10519 0.0
O619 O 0.39747 0.23352 0.07881 0.0
O620 O 0.39668 0.29516 0.0999 0.0
O621 O 0.38312 0.27409 0.11466 0.0
C622 C 0.38379 0.29039 0.10986 0.0
C623 C 0.39577 0.20709 0.12102 0.0
C624 C 0.39765 0.24658 0.06834 0.0
C625 C 0.43773 0.25458 0.11353 0.0
O626 O 0.42989 0.23985 0.11228 0.0
O627 O 0.42992 0.26881 0.10951 0.0
O628 O 0.40666 0.20618 0.10813 0.0
O629 O 0.38931 0.22232 0.12481 0.0
O630 O 0.26604 0.40376 0.93403 0.0
Cd631 Cd 0.27606 0.409 0.90936 0.0
Cd632 Cd 0.23921 0.4058 0.90107 0.0
O633 O 0.23824 0.39839 0.92735 0.0
O634 O 0.30202 0.40658 0.91236 0.0
O635 O 0.2865 0.38868 0.89555 0.0
C636 C 0.30152 0.39302 0.90222 0.0
C637 C 0.21982 0.39293 0.88063 0.0
C638 C 0.25059 0.39928 0.93865 0.0
C639 C 0.25798 0.44103 0.89517 0.0
O640 O 0.24396 0.43191 0.89541 0.0
O641 O 0.27262 0.43427 0.89964 0.0
O642 O 0.21436 0.40332 0.89283 0.0
O643 O 0.23636 0.38901 0.88049 0.0
O644 O 0.57658 0.24381 0.89463 0.0
Cd645 Cd 0.60205 0.23677 0.90102 0.0
Cd646 Cd 0.60204 0.27271 0.90867 0.0
O647 O 0.5766 0.27254 0.89888 0.0
O648 O 0.60251 0.21185 0.89274 0.0
O649 O 0.619 0.23252 0.88084 0.0
C650 C 0.6136 0.21642 0.88079 0.0
C651 C 0.62358 0.2922 0.89859 0.0
C652 C 0.56871 0.25855 0.8942 0.0
C653 C 0.60867 0.24762 0.93869 0.0
O654 O 0.60559 0.26332 0.93384 0.0
O655 O 0.60884 0.23517 0.92748 0.0
O656 O 0.61107 0.29734 0.90886 0.0
O657 O 0.62345 0.276 0.8934 0.0
O658 O 0.43041 0.76473 0.89455 0.0
Cd659 Cd 0.40425 0.76964 0.89995 0.0
Cd660 Cd 0.40695 0.73297 0.90837 0.0
O661 O 0.43248 0.73615 0.89924 0.0
O662 O 0.4021 0.7945 0.89171 0.0
O663 O 0.38769 0.77267 0.87921 0.0
C664 C 0.3918 0.78915 0.87938 0.0
C665 C 0.39073 0.70807 0.89994 0.0
C666 C 0.43943 0.75065 0.89465 0.0
C667 C 0.3971 0.75835 0.93755 0.0
O668 O 0.40137 0.74281 0.93307 0.0
O669 O 0.39658 0.77064 0.92618 0.0
O670 O 0.40392 0.707 0.91054 0.0
O671 O 0.38681 0.72338 0.8937 0.0
H672 H 0.11504 0.35304 0.29897 0.0
H673 H 0.09869 0.39761 0.3307 0.0
H674 H 0.09996 0.37924 0.3573 0.0
H675 H 0.08931 0.32184 0.32093 0.0
H676 H 0.10504 0.30412 0.31979 0.0
H677 H 0.10525 0.32116 0.30337 0.0
H678 H 0.13801 0.32759 0.31027 0.0
H679 H 0.13792 0.3105 0.3267 0.0
H680 H 0.14451 0.33251 0.33254 0.0
H681 H 0.09984 0.35598 0.37981 0.0
H682 H 0.09839 0.3288 0.3973 0.0
H683 H 0.11482 0.29849 0.35178 0.0
C684 C 0.11218 0.35899 0.3116 0.0
C685 C 0.10689 0.3768 0.31279 0.0
C686 C 0.1028 0.38402 0.32947 0.0
C687 C 0.10355 0.37371 0.34468 0.0
C688 C 0.1084 0.35613 0.34306 0.0
C689 C 0.11271 0.34877 0.327 0.0
C690 C 0.11609 0.32915 0.32889 0.0
C691 C 0.10315 0.31844 0.31758 0.0
C692 C 0.13528 0.32468 0.32433 0.0
C693 C 0.11252 0.32663 0.3484 0.0
C694 C 0.10829 0.34246 0.35628 0.0
C695 C 0.10337 0.34353 0.37388 0.0
C696 C 0.10253 0.32799 0.38369 0.0
C697 C 0.1066 0.31155 0.37595 0.0
C698 C 0.11195 0.31091 0.35812 0.0
H699 H 0.67833 0.10114 0.38081 0.0
H700 H 0.72111 0.13057 0.35713 0.0
H701 H 0.70209 0.13745 0.33161 0.0
H702 H 0.66374 0.08123 0.34239 0.0
H703 H 0.64069 0.08207 0.34792 0.0
H704 H 0.65693 0.08137 0.36511 0.0
H705 H 0.64412 0.10998 0.37855 0.0
H706 H 0.62777 0.11075 0.36138 0.0
H707 H 0.64205 0.12933 0.36501 0.0
H708 H 0.67906 0.13851 0.30723 0.0
H709 H 0.65441 0.13352 0.2865 0.0
H710 H 0.62703 0.10354 0.3266 0.0
C711 C 0.68363 0.10935 0.37045 0.0
C712 C 0.70121 0.11539 0.37104 0.0
C713 C 0.70766 0.12588 0.35704 0.0
C714 C 0.69694 0.12987 0.34249 0.0
C715 C 0.67976 0.12337 0.34218 0.0
C716 C 0.67314 0.11342 0.35588 0.0
C717 C 0.65472 0.10695 0.35193 0.0
C718 C 0.65399 0.08671 0.35183 0.0
C719 C 0.64138 0.11472 0.365 0.0
C720 C 0.65213 0.11442 0.33367 0.0
C721 C 0.66661 0.12401 0.32828 0.0
C722 C 0.66756 0.13124 0.31143 0.0
C723 C 0.65349 0.12835 0.29974 0.0
C724 C 0.63872 0.11824 0.30493 0.0
C725 C 0.638 0.11152 0.32225 0.0
H726 H 0.90698 0.681 0.38114 0.0
H727 H 0.87613 0.72287 0.35764 0.0
H728 H 0.86957 0.70363 0.33219 0.0
H729 H 0.92703 0.66704 0.34253 0.0
H730 H 0.92696 0.644 0.34807 0.0
H731 H 0.92731 0.66025 0.36525 0.0
H732 H 0.89923 0.64658 0.37895 0.0
H733 H 0.89881 0.63022 0.36179 0.0
H734 H 0.8798 0.6439 0.36559 0.0
H735 H 0.86879 0.68047 0.30794 0.0
H736 H 0.87421 0.65591 0.28722 0.0
H737 H 0.90565 0.62964 0.32696 0.0
C738 C 0.89853 0.68604 0.37084 0.0
C739 C 0.89198 0.70343 0.37146 0.0
C740 C 0.88121 0.70956 0.35753 0.0
C741 C 0.8774 0.69871 0.34302 0.0
C742 C 0.88438 0.68174 0.34268 0.0
C743 C 0.89466 0.67544 0.35631 0.0
C744 C 0.90167 0.65725 0.3523 0.0
C745 C 0.92194 0.65714 0.35202 0.0
C746 C 0.89444 0.64369 0.36544 0.0
C747 C 0.89411 0.65441 0.33411 0.0
C748 C 0.88401 0.66856 0.32881 0.0
C749 C 0.87649 0.66923 0.31206 0.0
C750 C 0.87963 0.65522 0.30038 0.0
C751 C 0.89028 0.64079 0.30547 0.0
C752 C 0.8973 0.64035 0.32269 0.0
H753 H 0.38195 0.90167 0.32864 0.0
H754 H 0.35527 0.87195 0.28785 0.0
H755 H 0.33025 0.86687 0.30806 0.0
H756 H 0.366 0.87573 0.36671 0.0
H757 H 0.36379 0.8951 0.38022 0.0
H758 H 0.38045 0.89423 0.36336 0.0
H759 H 0.36809 0.92293 0.34974 0.0
H760 H 0.35136 0.92383 0.36644 0.0
H761 H 0.34521 0.92395 0.34354 0.0
H762 H 0.30674 0.86787 0.33186 0.0
H763 H 0.28713 0.8747 0.35694 0.0
H764 H 0.3294 0.90397 0.38177 0.0
C765 C 0.37107 0.89369 0.32406 0.0
C766 C 0.37066 0.88708 0.30668 0.0
C767 C 0.35597 0.87702 0.30115 0.0
C768 C 0.34169 0.87408 0.31255 0.0
C769 C 0.34232 0.88121 0.32945 0.0
C770 C 0.35673 0.89071 0.33521 0.0
C771 C 0.35368 0.89819 0.35343 0.0
C772 C 0.36676 0.89034 0.36671 0.0
C773 C 0.35464 0.91842 0.35326 0.0
C774 C 0.33514 0.89181 0.35689 0.0
C775 C 0.32884 0.88188 0.34302 0.0
C776 C 0.31165 0.87542 0.34289 0.0
C777 C 0.30059 0.87938 0.35719 0.0
C778 C 0.30673 0.88979 0.37139 0.0
C779 C 0.32433 0.89582 0.37125 0.0
H780 H 0.11909 0.6521 0.70678 0.0
H781 H 0.10778 0.60521 0.67628 0.0
H782 H 0.10954 0.6225 0.64894 0.0
H783 H 0.09263 0.68013 0.68243 0.0
H784 H 0.10681 0.69909 0.68359 0.0
H785 H 0.10758 0.68275 0.70067 0.0
H786 H 0.14104 0.67871 0.69557 0.0
H787 H 0.1404 0.69516 0.67851 0.0
H788 H 0.14902 0.67357 0.67384 0.0
H789 H 0.10866 0.64499 0.62543 0.0
H790 H 0.10552 0.67144 0.60699 0.0
H791 H 0.1174 0.70437 0.65209 0.0
C792 C 0.11757 0.64541 0.6943 0.0
C793 C 0.11349 0.62726 0.69364 0.0
C794 C 0.11101 0.61906 0.67709 0.0
C795 C 0.11204 0.62877 0.66147 0.0
C796 C 0.11555 0.64671 0.66256 0.0
C797 C 0.11838 0.65499 0.67851 0.0
C798 C 0.12027 0.67474 0.67601 0.0
C799 C 0.10597 0.68476 0.68628 0.0
C800 C 0.13879 0.68091 0.6813 0.0
C801 C 0.11749 0.67626 0.65628 0.0
C802 C 0.115 0.65988 0.64881 0.0
C803 C 0.1109 0.65787 0.63106 0.0
C804 C 0.10908 0.67299 0.6207 0.0
C805 C 0.11137 0.68996 0.62804 0.0
C806 C 0.11594 0.69156 0.64602 0.0
H807 H 0.32639 0.0975 0.62761 0.0
H808 H 0.28487 0.12814 0.65205 0.0
H809 H 0.30418 0.13364 0.6777 0.0
H810 H 0.34026 0.07617 0.6657 0.0
H811 H 0.36331 0.0762 0.6601 0.0
H812 H 0.34699 0.07643 0.64296 0.0
H813 H 0.36083 0.10474 0.62996 0.0
H814 H 0.37728 0.10456 0.64705 0.0
H815 H 0.36373 0.12376 0.64384 0.0
H816 H 0.32745 0.13358 0.70187 0.0
H817 H 0.35231 0.1279 0.72215 0.0
H818 H 0.37815 0.09716 0.68157 0.0
C819 C 0.32143 0.10567 0.63818 0.0
C820 C 0.30413 0.11248 0.63775 0.0
C821 C 0.29811 0.12287 0.65201 0.0
C822 C 0.309 0.12607 0.66664 0.0
C823 C 0.32588 0.11884 0.66677 0.0
C824 C 0.33207 0.10893 0.65284 0.0
C825 C 0.35024 0.10167 0.65658 0.0
C826 C 0.35018 0.08142 0.65632 0.0
C827 C 0.36382 0.10913 0.64358 0.0
C828 C 0.3532 0.10871 0.67496 0.0
C829 C 0.33911 0.11873 0.6806 0.0
C830 C 0.33862 0.12592 0.69749 0.0
C831 C 0.35281 0.12262 0.70893 0.0
C832 C 0.36723 0.11215 0.70346 0.0
C833 C 0.36742 0.10534 0.68615 0.0
H834 H 0.89283 0.30252 0.65542 0.0
H835 H 0.9064 0.33371 0.6096 0.0
H836 H 0.90464 0.36071 0.6274 0.0
H837 H 0.86283 0.33545 0.67637 0.0
H838 H 0.87051 0.33034 0.69822 0.0
H839 H 0.87034 0.31355 0.68146 0.0
H840 H 0.90355 0.30796 0.68669 0.0
H841 H 0.90385 0.32473 0.70339 0.0
H842 H 0.9188 0.32605 0.68504 0.0
H843 H 0.90474 0.3838 0.65025 0.0
H844 H 0.90696 0.4018 0.67709 0.0
H845 H 0.89346 0.35631 0.7088 0.0
C846 C 0.89494 0.31509 0.64908 0.0
C847 C 0.8996 0.31604 0.63108 0.0
C848 C 0.90276 0.33268 0.62334 0.0
C849 C 0.90173 0.34811 0.63333 0.0
C850 C 0.89753 0.34674 0.6511 0.0
C851 C 0.89413 0.33071 0.65896 0.0
C852 C 0.89148 0.3329 0.67865 0.0
C853 C 0.87267 0.32775 0.68399 0.0
C854 C 0.90524 0.32228 0.68905 0.0
C855 C 0.89443 0.35256 0.68064 0.0
C856 C 0.89767 0.36026 0.6645 0.0
C857 C 0.90195 0.37799 0.66294 0.0
C858 C 0.90323 0.38811 0.67828 0.0
C859 C 0.90025 0.38051 0.69502 0.0
C860 C 0.89547 0.36256 0.69616 0.0
H861 H 0.68418 0.90964 0.63147 0.0
H862 H 0.72333 0.87697 0.65714 0.0
H863 H 0.70245 0.87135 0.68152 0.0
H864 H 0.66838 0.9301 0.66958 0.0
H865 H 0.64576 0.93078 0.66246 0.0
H866 H 0.66318 0.93083 0.64645 0.0
H867 H 0.64964 0.90335 0.63146 0.0
H868 H 0.63212 0.90323 0.64744 0.0
H869 H 0.64549 0.88389 0.64434 0.0
H870 H 0.67778 0.87126 0.70425 0.0
H871 H 0.65177 0.87672 0.72309 0.0
H872 H 0.62909 0.9093 0.68207 0.0
C873 C 0.68832 0.90107 0.64207 0.0
C874 C 0.7054 0.89368 0.64235 0.0
C875 C 0.7103 0.88271 0.65659 0.0
C876 C 0.69852 0.87943 0.67049 0.0
C877 C 0.68186 0.88716 0.6699 0.0
C878 C 0.67677 0.89768 0.65598 0.0
C879 C 0.65853 0.90518 0.65881 0.0
C880 C 0.659 0.92542 0.65936 0.0
C881 C 0.64569 0.89851 0.64468 0.0
C882 C 0.65423 0.89753 0.67667 0.0
C883 C 0.66776 0.88706 0.68284 0.0
C884 C 0.66703 0.87928 0.69944 0.0
C885 C 0.6522 0.88245 0.71005 0.0
C886 C 0.63832 0.89335 0.70404 0.0
C887 C 0.63935 0.90074 0.68701 0.0
H888 H 0.38003 0.10552 0.32781 0.0
H889 H 0.35212 0.13452 0.28735 0.0
H890 H 0.32732 0.13921 0.30797 0.0
H891 H 0.3441 0.08257 0.34338 0.0
H892 H 0.35064 0.08293 0.36617 0.0
H893 H 0.36706 0.08412 0.34918 0.0
H894 H 0.37901 0.11315 0.36249 0.0
H895 H 0.36266 0.112 0.37963 0.0
H896 H 0.36421 0.13135 0.36602 0.0
H897 H 0.3042 0.13778 0.3322 0.0
H898 H 0.28518 0.13052 0.35761 0.0
H899 H 0.32854 0.10229 0.38174 0.0
C900 C 0.36891 0.11325 0.32337 0.0
C901 C 0.36808 0.11976 0.30597 0.0
C902 C 0.35313 0.12953 0.30065 0.0
C903 C 0.33898 0.13225 0.31228 0.0
C904 C 0.34004 0.12521 0.32921 0.0
C905 C 0.35472 0.11602 0.33475 0.0
C906 C 0.35217 0.10856 0.35303 0.0
C907 C 0.35357 0.08836 0.35292 0.0
C908 C 0.36529 0.11676 0.36606 0.0
C909 C 0.33356 0.11455 0.35678 0.0
C910 C 0.32681 0.1243 0.343 0.0
C911 C 0.30947 0.13037 0.34315 0.0
C912 C 0.29875 0.12617 0.35764 0.0
C913 C 0.30536 0.11591 0.37173 0.0
C914 C 0.32309 0.11031 0.37131 0.0
H915 H 0.89362 0.29774 0.35133 0.0
H916 H 0.90935 0.32821 0.39699 0.0
H917 H 0.90791 0.35535 0.37945 0.0
H918 H 0.91932 0.32093 0.321 0.0
H919 H 0.90373 0.32019 0.30315 0.0
H920 H 0.90358 0.30324 0.31966 0.0
H921 H 0.87071 0.30958 0.32607 0.0
H922 H 0.87074 0.32655 0.30951 0.0
H923 H 0.86393 0.33161 0.33165 0.0
H924 H 0.90797 0.37856 0.35693 0.0
H925 H 0.90955 0.39688 0.33031 0.0
H926 H 0.89375 0.35221 0.29845 0.0
C927 C 0.89632 0.31019 0.35769 0.0
C928 C 0.90149 0.31089 0.37556 0.0
C929 C 0.90535 0.32737 0.38334 0.0
C930 C 0.9045 0.34288 0.3735 0.0
C931 C 0.89977 0.34176 0.35585 0.0
C932 C 0.89568 0.3259 0.34795 0.0
C933 C 0.89242 0.32838 0.32837 0.0
C934 C 0.90555 0.31754 0.31741 0.0
C935 C 0.87331 0.32376 0.32362 0.0
C936 C 0.89579 0.34799 0.3265 0.0
C937 C 0.89982 0.3554 0.34261 0.0
C938 C 0.90458 0.37299 0.34427 0.0
C939 C 0.9055 0.38328 0.32905 0.0
C940 C 0.90165 0.37601 0.31234 0.0
C941 C 0.89643 0.35819 0.3111 0.0
H942 H 0.70548 0.88976 0.35436 0.0
H943 H 0.67391 0.89915 0.40097 0.0
H944 H 0.64687 0.89484 0.38363 0.0
H945 H 0.67899 0.91384 0.32597 0.0
H946 H 0.68148 0.89963 0.30714 0.0
H947 H 0.69848 0.9005 0.32359 0.0
H948 H 0.69623 0.86678 0.32784 0.0
H949 H 0.67918 0.86581 0.31136 0.0
H950 H 0.67523 0.85703 0.33303 0.0
H951 H 0.62347 0.89322 0.36118 0.0
H952 H 0.60497 0.89524 0.33464 0.0
H953 H 0.65099 0.88706 0.30188 0.0
C954 C 0.69286 0.89038 0.36096 0.0
C955 C 0.69177 0.89461 0.37905 0.0
C956 C 0.67504 0.89586 0.38715 0.0
C957 C 0.6596 0.89334 0.37742 0.0
C958 C 0.66105 0.8896 0.35955 0.0
C959 C 0.67722 0.8881 0.35134 0.0
C960 C 0.67495 0.88583 0.3316 0.0
C961 C 0.68401 0.90085 0.32149 0.0
C962 C 0.68181 0.86779 0.32561 0.0
C963 C 0.65505 0.88689 0.33001 0.0
C964 C 0.64733 0.88878 0.34637 0.0
C965 C 0.6293 0.89143 0.34832 0.0
C966 C 0.6189 0.89259 0.33316 0.0
C967 C 0.6265 0.8911 0.31623 0.0
C968 C 0.64476 0.8878 0.31467 0.0
H969 H 0.10344 0.62992 0.32504 0.0
H970 H 0.13522 0.65655 0.28584 0.0
H971 H 0.14051 0.68088 0.30684 0.0
H972 H 0.08206 0.66709 0.34071 0.0
H973 H 0.08152 0.66014 0.36337 0.0
H974 H 0.0821 0.644 0.34609 0.0
H975 H 0.11006 0.63008 0.3598 0.0
H976 H 0.10952 0.64617 0.37722 0.0
H977 H 0.12905 0.64367 0.36398 0.0
H978 H 0.13972 0.70374 0.33137 0.0
H979 H 0.13321 0.72268 0.35705 0.0
H980 H 0.10203 0.68069 0.37989 0.0
C981 C 0.11184 0.64066 0.32095 0.0
C982 C 0.119 0.64126 0.30379 0.0
C983 C 0.1297 0.65572 0.29894 0.0
C984 C 0.13277 0.66961 0.31079 0.0
C985 C 0.12514 0.66879 0.32748 0.0
C986 C 0.115 0.65458 0.33257 0.0
C987 C 0.10731 0.65728 0.35075 0.0
C988 C 0.08705 0.65712 0.35019 0.0
C989 C 0.11442 0.64348 0.3637 0.0
C990 C 0.11433 0.67542 0.35498 0.0
C991 C 0.12471 0.68182 0.34149 0.0
C992 C 0.13181 0.69874 0.34209 0.0
C993 C 0.12803 0.70942 0.35674 0.0
C994 C 0.11721 0.70316 0.37057 0.0
C995 C 0.11053 0.68583 0.36968 0.0
H996 H 0.38195 0.90726 0.67823 0.0
H997 H 0.35781 0.87496 0.71861 0.0
H998 H 0.33269 0.86905 0.69874 0.0
H999 H 0.34334 0.92756 0.66397 0.0
H1000 H 0.34938 0.92813 0.64105 0.0
H1001 H 0.36622 0.92818 0.65769 0.0
H1002 H 0.38044 0.90059 0.64359 0.0
H1003 H 0.36365 0.90048 0.62685 0.0
H1004 H 0.36729 0.88117 0.6401 0.0
H1005 H 0.30892 0.86888 0.67519 0.0
H1006 H 0.28881 0.8744 0.65018 0.0
H1007 H 0.32882 0.90676 0.62546 0.0
C1008 C 0.37157 0.89866 0.68281 0.0
C1009 C 0.37192 0.89149 0.69997 0.0
C1010 C 0.3579 0.88051 0.7055 0.0
C1011 C 0.34357 0.87708 0.69429 0.0
C1012 C 0.3435 0.88464 0.67757 0.0
C1013 C 0.3572 0.89512 0.67184 0.0
C1014 C 0.35353 0.90257 0.65373 0.0
C1015 C 0.35309 0.9228 0.65415 0.0
C1016 C 0.36703 0.89579 0.64027 0.0
C1017 C 0.33544 0.89496 0.65029 0.0
C1018 C 0.3299 0.88453 0.6641 0.0
C1019 C 0.31323 0.87684 0.66421 0.0
C1020 C 0.30189 0.88006 0.64995 0.0
C1021 C 0.30724 0.89093 0.63579 0.0
C1022 C 0.32436 0.89822 0.63595 0.0
H1023 H 0.1178 0.35682 0.70728 0.0
H1024 H 0.10436 0.40192 0.67501 0.0
H1025 H 0.1056 0.38336 0.64848 0.0
H1026 H 0.14725 0.33471 0.67453 0.0
H1027 H 0.13945 0.3131 0.68038 0.0
H1028 H 0.14002 0.33032 0.69669 0.0
H1029 H 0.10685 0.32553 0.70288 0.0
H1030 H 0.10616 0.30839 0.68657 0.0
H1031 H 0.09135 0.32684 0.68497 0.0
H1032 H 0.10474 0.35983 0.62608 0.0
H1033 H 0.10215 0.33253 0.60885 0.0
H1034 H 0.11623 0.30199 0.65496 0.0
C1035 C 0.11563 0.36286 0.69457 0.0
C1036 C 0.11113 0.38087 0.69319 0.0
C1037 C 0.10789 0.38819 0.67638 0.0
C1038 C 0.10862 0.37776 0.66121 0.0
C1039 C 0.11262 0.35998 0.66302 0.0
C1040 C 0.11617 0.35254 0.67922 0.0
C1041 C 0.11862 0.33277 0.67756 0.0
C1042 C 0.13746 0.32741 0.68259 0.0
C1043 C 0.10492 0.3228 0.68865 0.0
C1044 C 0.11537 0.33025 0.658 0.0
C1045 C 0.11212 0.34619 0.6499 0.0
C1046 C 0.10754 0.34729 0.6322 0.0
C1047 C 0.10604 0.33169 0.62253 0.0
C1048 C 0.10912 0.31515 0.63051 0.0
C1049 C 0.11414 0.31447 0.64843 0.0
H1050 H 0.68243 0.0957 0.62785 0.0
H1051 H 0.72255 0.12891 0.65126 0.0
H1052 H 0.70285 0.13469 0.67655 0.0
H1053 H 0.64411 0.12123 0.64253 0.0
H1054 H 0.63118 0.10176 0.64647 0.0
H1055 H 0.64781 0.10171 0.62958 0.0
H1056 H 0.66245 0.07451 0.64402 0.0
H1057 H 0.64592 0.07451 0.66096 0.0
H1058 H 0.66889 0.07551 0.66683 0.0
H1059 H 0.67935 0.13486 0.70049 0.0
H1060 H 0.65436 0.12939 0.72067 0.0
H1061 H 0.63005 0.09604 0.68122 0.0
C1062 C 0.687 0.10445 0.63812 0.0
C1063 C 0.70402 0.11192 0.63751 0.0
C1064 C 0.70953 0.12311 0.65138 0.0
C1065 C 0.69843 0.12647 0.6658 0.0
C1066 C 0.68183 0.11861 0.66612 0.0
C1067 C 0.67614 0.1079 0.65257 0.0
C1068 C 0.65817 0.10022 0.65643 0.0
C1069 C 0.64451 0.10662 0.64295 0.0
C1070 C 0.65891 0.08 0.65711 0.0
C1071 C 0.65475 0.10798 0.67443 0.0
C1072 C 0.66845 0.11868 0.67979 0.0
C1073 C 0.66848 0.12666 0.69633 0.0
C1074 C 0.65423 0.12348 0.70771 0.0
C1075 C 0.64019 0.11235 0.70252 0.0
C1076 C 0.64047 0.10473 0.68556 0.0
H1077 H 0.89123 0.70341 0.65254 0.0
H1078 H 0.90331 0.67062 0.6074 0.0
H1079 H 0.90007 0.64412 0.62573 0.0
H1080 H 0.91591 0.67938 0.68259 0.0
H1081 H 0.90106 0.68185 0.70091 0.0
H1082 H 0.90154 0.69821 0.68384 0.0
H1083 H 0.86809 0.69408 0.67876 0.0
H1084 H 0.86749 0.67769 0.69588 0.0
H1085 H 0.85954 0.67244 0.67416 0.0
H1086 H 0.89917 0.62156 0.64914 0.0
H1087 H 0.90109 0.60423 0.67645 0.0
H1088 H 0.88961 0.65101 0.70706 0.0
C1089 C 0.89268 0.69061 0.64645 0.0
C1090 C 0.89736 0.68906 0.6285 0.0
C1091 C 0.89966 0.67213 0.62109 0.0
C1092 C 0.89777 0.65698 0.63139 0.0
C1093 C 0.89358 0.65892 0.64911 0.0
C1094 C 0.89101 0.67528 0.65663 0.0
C1095 C 0.88829 0.67369 0.67637 0.0
C1096 C 0.90255 0.68388 0.68652 0.0
C1097 C 0.86975 0.67984 0.6816 0.0
C1098 C 0.8903 0.65396 0.6788 0.0
C1099 C 0.8931 0.64572 0.66283 0.0
C1100 C 0.89668 0.6278 0.66169 0.0
C1101 C 0.89778 0.61807 0.67729 0.0
C1102 C 0.8953 0.62622 0.69385 0.0
C1103 C 0.89113 0.64435 0.69456 0.0
H1104 H 0.32829 0.37817 0.09781 0.0
H1105 H 0.2874 0.35484 0.13008 0.0
H1106 H 0.30682 0.32937 0.13603 0.0
H1107 H 0.34205 0.33927 0.07759 0.0
H1108 H 0.36506 0.34501 0.07712 0.0
H1109 H 0.34864 0.36204 0.07692 0.0
H1110 H 0.3628 0.37618 0.10454 0.0
H1111 H 0.37933 0.35919 0.10479 0.0
H1112 H 0.36601 0.36308 0.12403 0.0
H1113 H 0.33008 0.30522 0.13631 0.0
H1114 H 0.35493 0.28483 0.13102 0.0
H1115 H 0.38033 0.32442 0.09871 0.0
C1116 C 0.32349 0.36788 0.10639 0.0
C1117 C 0.30633 0.36856 0.11355 0.0
C1118 C 0.30053 0.35467 0.12453 0.0
C1119 C 0.31147 0.34015 0.12798 0.0
C1120 C 0.32822 0.33977 0.12044 0.0
C1121 C 0.33421 0.35335 0.10995 0.0
C1122 C 0.35231 0.34942 0.10261 0.0
C1123 C 0.35198 0.3489 0.08237 0.0
C1124 C 0.36592 0.36276 0.1094 0.0
C1125 C 0.35547 0.33134 0.11029 0.0
C1126 C 0.34151 0.326 0.12065 0.0
C1127 C 0.34116 0.30937 0.1284 0.0
C1128 C 0.35534 0.29787 0.12532 0.0
C1129 C 0.36966 0.30303 0.11454 0.0
C1130 C 0.36972 0.3201 0.10718 0.0
H1131 H 0.35606 0.70622 0.88929 0.0
H1132 H 0.40145 0.67405 0.9021 0.0
H1133 H 0.3835 0.6473 0.89859 0.0
H1134 H 0.32594 0.68179 0.91353 0.0
H1135 H 0.3078 0.68403 0.89841 0.0
H1136 H 0.32467 0.70061 0.89917 0.0
H1137 H 0.33029 0.69655 0.8658 0.0
H1138 H 0.31338 0.67994 0.86494 0.0
H1139 H 0.33529 0.67498 0.85732 0.0
H1140 H 0.36039 0.62442 0.89725 0.0
H1141 H 0.33326 0.60672 0.8987 0.0
H1142 H 0.30221 0.65311 0.88684 0.0
C1143 C 0.3623 0.69351 0.89085 0.0
C1144 C 0.3802 0.6922 0.8958 0.0
C1145 C 0.38779 0.67537 0.89824 0.0
C1146 C 0.37771 0.66008 0.8962 0.0
C1147 C 0.36002 0.66179 0.89172 0.0
C1148 C 0.35233 0.67805 0.88904 0.0
C1149 C 0.33264 0.67619 0.88602 0.0
C1150 C 0.32215 0.68625 0.90012 0.0
C1151 C 0.32761 0.68228 0.86741 0.0
C1152 C 0.33043 0.65643 0.88798 0.0
C1153 C 0.34647 0.64841 0.89102 0.0
C1154 C 0.34778 0.63049 0.89458 0.0
C1155 C 0.33229 0.62055 0.89541 0.0
C1156 C 0.31565 0.62849 0.89269 0.0
C1157 C 0.31478 0.64661 0.88855 0.0
H1158 H 0.3041 0.35836 0.89172 0.0
H1159 H 0.33536 0.40368 0.90682 0.0
H1160 H 0.36226 0.38564 0.90547 0.0
H1161 H 0.3267 0.32805 0.91765 0.0
H1162 H 0.32558 0.31001 0.90229 0.0
H1163 H 0.30896 0.32686 0.90193 0.0
H1164 H 0.31541 0.33271 0.869 0.0
H1165 H 0.33204 0.3158 0.86924 0.0
H1166 H 0.33756 0.33773 0.86214 0.0
H1167 H 0.38515 0.36249 0.90583 0.0
H1168 H 0.40288 0.33544 0.90773 0.0
H1169 H 0.35739 0.30452 0.89236 0.0
C1170 C 0.31667 0.36456 0.89426 0.0
C1171 C 0.31765 0.38248 0.89923 0.0
C1172 C 0.33429 0.39001 0.90292 0.0
C1173 C 0.34967 0.37989 0.90214 0.0
C1174 C 0.34824 0.36219 0.89763 0.0
C1175 C 0.33222 0.35455 0.89367 0.0
C1176 C 0.33428 0.3349 0.89066 0.0
C1177 C 0.32323 0.32434 0.90393 0.0
C1178 C 0.32954 0.33 0.87162 0.0
C1179 C 0.35385 0.33266 0.89404 0.0
C1180 C 0.36163 0.34865 0.89786 0.0
C1181 C 0.37929 0.34993 0.9026 0.0
C1182 C 0.38924 0.33447 0.9037 0.0
C1183 C 0.38157 0.31788 0.90006 0.0
C1184 C 0.3637 0.31704 0.89488 0.0
H1185 H 0.62822 0.32612 0.90968 0.0
H1186 H 0.65228 0.28553 0.87754 0.0
H1187 H 0.6779 0.30496 0.87234 0.0
H1188 H 0.64402 0.36409 0.88428 0.0
H1189 H 0.6475 0.37714 0.90378 0.0
H1190 H 0.63044 0.36067 0.90342 0.0
H1191 H 0.64392 0.34614 0.93117 0.0
H1192 H 0.66102 0.36249 0.93157 0.0
H1193 H 0.6667 0.33948 0.93092 0.0
H1194 H 0.70206 0.32822 0.87274 0.0
H1195 H 0.72235 0.353 0.87871 0.0
H1196 H 0.68211 0.37797 0.91061 0.0
C1197 C 0.6387 0.32139 0.90127 0.0
C1198 C 0.63818 0.30431 0.89394 0.0
C1199 C 0.65233 0.2986 0.88322 0.0
C1200 C 0.66693 0.30955 0.88018 0.0
C1201 C 0.66716 0.32621 0.8879 0.0
C1202 C 0.65334 0.33211 0.89815 0.0
C1203 C 0.65715 0.35008 0.90582 0.0
C1204 C 0.644 0.36381 0.89891 0.0
C1205 C 0.65721 0.3495 0.92607 0.0
C1206 C 0.67542 0.35328 0.89859 0.0
C1207 C 0.68096 0.33945 0.88816 0.0
C1208 C 0.69776 0.33919 0.88073 0.0
C1209 C 0.7092 0.35332 0.88419 0.0
C1210 C 0.70382 0.36748 0.89506 0.0
C1211 C 0.68661 0.36745 0.90212 0.0
H1212 H 0.7062 0.65527 0.89361 0.0
H1213 H 0.6759 0.60972 0.90989 0.0
H1214 H 0.64867 0.62719 0.90838 0.0
H1215 H 0.68298 0.68578 0.91914 0.0
H1216 H 0.68368 0.70347 0.9034 0.0
H1217 H 0.70066 0.68698 0.90337 0.0
H1218 H 0.69426 0.68027 0.87058 0.0
H1219 H 0.67725 0.6968 0.8705 0.0
H1220 H 0.67221 0.67459 0.8639 0.0
H1221 H 0.62529 0.64972 0.90812 0.0
H1222 H 0.60692 0.67637 0.90945 0.0
H1223 H 0.65168 0.70803 0.89348 0.0
C1224 C 0.69376 0.64891 0.89642 0.0
C1225 C 0.69315 0.63109 0.90174 0.0
C1226 C 0.67669 0.62333 0.90576 0.0
C1227 C 0.66112 0.63313 0.90487 0.0
C1228 C 0.66217 0.65073 0.89996 0.0
C1229 C 0.67801 0.65861 0.89576 0.0
C1230 C 0.6755 0.67814 0.89233 0.0
C1231 C 0.68635 0.68924 0.90534 0.0
C1232 C 0.68008 0.68272 0.87318 0.0
C1233 C 0.65588 0.68002 0.89572 0.0
C1234 C 0.64848 0.66395 0.8999 0.0
C1235 C 0.63085 0.66235 0.90463 0.0
C1236 C 0.62054 0.67758 0.90539 0.0
C1237 C 0.62782 0.69426 0.90145 0.0
C1238 C 0.64567 0.69542 0.89625 0.0
H1239 H 0.63037 0.68582 0.09801 0.0
H1240 H 0.65401 0.72561 0.13143 0.0
H1241 H 0.67951 0.70598 0.13659 0.0
H1242 H 0.6455 0.64734 0.12281 0.0
H1243 H 0.64925 0.63466 0.10312 0.0
H1244 H 0.6323 0.65124 0.10349 0.0
H1245 H 0.64639 0.66622 0.0763 0.0
H1246 H 0.66339 0.64976 0.07588 0.0
H1247 H 0.6692 0.67271 0.0771 0.0
H1248 H 0.70356 0.68248 0.13621 0.0
H1249 H 0.72366 0.65751 0.13032 0.0
H1250 H 0.68387 0.63362 0.09706 0.0
C1251 C 0.64074 0.69034 0.10667 0.0
C1252 C 0.64013 0.70724 0.11439 0.0
C1253 C 0.65413 0.71268 0.12545 0.0
C1254 C 0.66867 0.70162 0.12845 0.0
C1255 C 0.66898 0.68514 0.12036 0.0
C1256 C 0.6553 0.67952 0.10976 0.0
C1257 C 0.65912 0.66168 0.1018 0.0
C1258 C 0.64575 0.64792 0.10819 0.0
C1259 C 0.65956 0.66266 0.08158 0.0
C1260 C 0.67723 0.65821 0.1093 0.0
C1261 C 0.68269 0.67179 0.12009 0.0
C1262 C 0.69931 0.67171 0.12792 0.0
C1263 C 0.71065 0.65748 0.1245 0.0
C1264 C 0.70535 0.64356 0.11328 0.0
C1265 C 0.68832 0.64396 0.10579 0.0
H1266 H 0.37677 0.68525 0.10012 0.0
H1267 H 0.35174 0.72676 0.13026 0.0
H1268 H 0.32676 0.70686 0.13673 0.0
H1269 H 0.33873 0.6697 0.07991 0.0
H1270 H 0.34509 0.64687 0.0804 0.0
H1271 H 0.36169 0.66371 0.07991 0.0
H1272 H 0.37565 0.65099 0.1083 0.0
H1273 H 0.35907 0.63406 0.10888 0.0
H1274 H 0.36224 0.64818 0.12766 0.0
H1275 H 0.30318 0.68291 0.13755 0.0
H1276 H 0.2834 0.65752 0.13241 0.0
H1277 H 0.32437 0.63211 0.10184 0.0
C1278 C 0.36621 0.69011 0.10836 0.0
C1279 C 0.36627 0.70757 0.11475 0.0
C1280 C 0.35205 0.71341 0.1253 0.0
C1281 C 0.3378 0.70219 0.12905 0.0
C1282 C 0.33804 0.68513 0.12226 0.0
C1283 C 0.35196 0.67912 0.11221 0.0
C1284 C 0.34865 0.66068 0.10548 0.0
C1285 C 0.34853 0.66023 0.08523 0.0
C1286 C 0.36221 0.64771 0.11304 0.0
C1287 C 0.3305 0.65734 0.11295 0.0
C1288 C 0.32461 0.67149 0.12273 0.0
C1289 C 0.30777 0.67169 0.13009 0.0
C1290 C 0.29663 0.6572 0.12713 0.0
C1291 C 0.30234 0.64276 0.11681 0.0
C1292 C 0.31963 0.64282 0.10995 0.0
H1293 H 0.70189 0.35396 0.11631 0.0
H1294 H 0.67021 0.39891 0.10101 0.0
H1295 H 0.64348 0.38065 0.10238 0.0
H1296 H 0.67949 0.32334 0.09034 0.0
H1297 H 0.68076 0.30535 0.10573 0.0
H1298 H 0.69725 0.32233 0.10604 0.0
H1299 H 0.69078 0.3282 0.13897 0.0
H1300 H 0.67428 0.31117 0.13878 0.0
H1301 H 0.6686 0.33308 0.14584 0.0
H1302 H 0.62079 0.35744 0.10226 0.0
H1303 H 0.60322 0.33029 0.10044 0.0
H1304 H 0.64896 0.29965 0.11565 0.0
C1305 C 0.68926 0.36002 0.11371 0.0
C1306 C 0.6881 0.3779 0.1087 0.0
C1307 C 0.6714 0.38527 0.10492 0.0
C1308 C 0.65612 0.37502 0.10573 0.0
C1309 C 0.65771 0.35737 0.11031 0.0
C1310 C 0.6738 0.34987 0.11429 0.0
C1311 C 0.67188 0.33021 0.11733 0.0
C1312 C 0.683 0.31969 0.10407 0.0
C1313 C 0.67667 0.32538 0.13636 0.0
C1314 C 0.65231 0.32782 0.11396 0.0
C1315 C 0.64442 0.34374 0.11014 0.0
C1316 C 0.62674 0.34491 0.10548 0.0
C1317 C 0.61688 0.3294 0.10443 0.0
C1318 C 0.62467 0.31286 0.10802 0.0
C1319 C 0.64257 0.31212 0.11314 0.0
H1320 H 0.60628 0.87826 0.82532 0.0
H1321 H 0.63543 0.85219 0.78374 0.0
H1322 H 0.64189 0.82746 0.80394 0.0
H1323 H 0.6341 0.86339 0.86252 0.0
H1324 H 0.61527 0.86086 0.87673 0.0
H1325 H 0.61513 0.87736 0.85972 0.0
H1326 H 0.58624 0.86422 0.8472 0.0
H1327 H 0.58633 0.84768 0.86408 0.0
H1328 H 0.58554 0.84127 0.84126 0.0
H1329 H 0.64207 0.80397 0.82796 0.0
H1330 H 0.63603 0.78432 0.85324 0.0
H1331 H 0.60689 0.82632 0.87865 0.0
C1332 C 0.61438 0.86756 0.82053 0.0
C1333 C 0.62042 0.86721 0.80295 0.0
C1334 C 0.63077 0.85282 0.79719 0.0
C1335 C 0.63451 0.83871 0.80858 0.0
C1336 C 0.62793 0.83929 0.82572 0.0
C1337 C 0.61821 0.85346 0.83168 0.0
C1338 C 0.61146 0.85044 0.85015 0.0
C1339 C 0.61947 0.86381 0.86304 0.0
C1340 C 0.5912 0.85092 0.85069 0.0
C1341 C 0.61841 0.83211 0.85353 0.0
C1342 C 0.62805 0.82592 0.83941 0.0
C1343 C 0.63477 0.80882 0.83918 0.0
C1344 C 0.63128 0.79775 0.8536 0.0
C1345 C 0.62108 0.80379 0.86799 0.0
C1346 C 0.61491 0.82132 0.86799 0.0
H1347 H 0.18035 0.6075 0.88045 0.0
H1348 H 0.22154 0.63698 0.85415 0.0
H1349 H 0.20121 0.6431 0.82945 0.0
H1350 H 0.16453 0.5865 0.84331 0.0
H1351 H 0.1417 0.58701 0.84975 0.0
H1352 H 0.15863 0.58711 0.86628 0.0
H1353 H 0.14578 0.61579 0.87949 0.0
H1354 H 0.12873 0.61576 0.863 0.0
H1355 H 0.14273 0.63473 0.86555 0.0
H1356 H 0.1772 0.64309 0.8061 0.0
H1357 H 0.15193 0.63696 0.78647 0.0
H1358 H 0.12674 0.60754 0.82837 0.0
C1359 C 0.18501 0.61562 0.86972 0.0
C1360 C 0.20253 0.62187 0.86932 0.0
C1361 C 0.20815 0.63217 0.85484 0.0
C1362 C 0.19668 0.63571 0.84074 0.0
C1363 C 0.1796 0.62896 0.84137 0.0
C1364 C 0.17378 0.61923 0.85557 0.0
C1365 C 0.15535 0.61228 0.85254 0.0
C1366 C 0.15505 0.59203 0.85299 0.0
C1367 C 0.14238 0.62011 0.86594 0.0
C1368 C 0.15184 0.6192 0.83421 0.0
C1369 C 0.16588 0.62895 0.82801 0.0
C1370 C 0.16603 0.6357 0.81094 0.0
C1371 C 0.15161 0.63215 0.79987 0.0
C1372 C 0.13727 0.62188 0.80589 0.0
C1373 C 0.13735 0.61565 0.82341 0.0
H1374 H 0.39159 0.15471 0.79805 0.0
H1375 H 0.40311 0.10955 0.83095 0.0
H1376 H 0.39955 0.12785 0.85744 0.0
H1377 H 0.41612 0.18464 0.82257 0.0
H1378 H 0.4014 0.20305 0.81995 0.0
H1379 H 0.40202 0.18602 0.80354 0.0
H1380 H 0.36849 0.18112 0.80718 0.0
H1381 H 0.36776 0.1982 0.82364 0.0
H1382 H 0.35962 0.17652 0.82869 0.0
H1383 H 0.39835 0.15107 0.87999 0.0
H1384 H 0.40016 0.17824 0.89751 0.0
H1385 H 0.38957 0.2092 0.85077 0.0
C1386 C 0.39286 0.14862 0.81087 0.0
C1387 C 0.39745 0.13066 0.81247 0.0
C1388 C 0.39953 0.12325 0.82943 0.0
C1389 C 0.39745 0.13352 0.84456 0.0
C1390 C 0.39333 0.15125 0.84258 0.0
C1391 C 0.39103 0.15881 0.82621 0.0
C1392 C 0.38839 0.17857 0.82785 0.0
C1393 C 0.40285 0.18866 0.81789 0.0
C1394 C 0.36997 0.18391 0.82146 0.0
C1395 C 0.39014 0.18093 0.84763 0.0
C1396 C 0.39273 0.16492 0.85582 0.0
C1397 C 0.39604 0.16366 0.87379 0.0
C1398 C 0.39708 0.17919 0.88363 0.0
C1399 C 0.39482 0.1958 0.87554 0.0
C1400 C 0.39092 0.19665 0.85736 0.0
H1401 H 0.85324 0.38788 0.80058 0.0
H1402 H 0.89956 0.3953 0.83311 0.0
H1403 H 0.88122 0.39346 0.85974 0.0
H1404 H 0.82595 0.41488 0.82472 0.0
H1405 H 0.80619 0.40194 0.82253 0.0
H1406 H 0.82306 0.40062 0.80598 0.0
H1407 H 0.82492 0.36688 0.81025 0.0
H1408 H 0.80792 0.36807 0.82675 0.0
H1409 H 0.82879 0.35804 0.8319 0.0
H1410 H 0.85809 0.39541 0.88231 0.0
H1411 H 0.83126 0.40006 0.89989 0.0
H1412 H 0.79916 0.39106 0.85355 0.0
C1413 C 0.85954 0.38847 0.81334 0.0
C1414 C 0.87786 0.39154 0.81481 0.0
C1415 C 0.88559 0.39285 0.8317 0.0
C1416 C 0.87528 0.39177 0.84691 0.0
C1417 C 0.85721 0.38936 0.84506 0.0
C1418 C 0.84935 0.38757 0.82875 0.0
C1419 C 0.82943 0.38683 0.83052 0.0
C1420 C 0.82065 0.40197 0.82034 0.0
C1421 C 0.82235 0.36889 0.8245 0.0
C1422 C 0.82737 0.38916 0.85026 0.0
C1423 C 0.84362 0.39039 0.85835 0.0
C1424 C 0.84528 0.39409 0.87621 0.0
C1425 C 0.82997 0.3968 0.88607 0.0
C1426 C 0.81316 0.39572 0.87812 0.0
C1427 C 0.81184 0.39154 0.86003 0.0
H1428 H 0.61737 0.20428 0.15557 0.0
H1429 H 0.60699 0.17309 0.10892 0.0
H1430 H 0.6093 0.14596 0.12646 0.0
H1431 H 0.64785 0.17203 0.17766 0.0
H1432 H 0.63894 0.17675 0.19913 0.0
H1433 H 0.63945 0.19367 0.18252 0.0
H1434 H 0.60588 0.19825 0.18618 0.0
H1435 H 0.60523 0.18132 0.20267 0.0
H1436 H 0.59126 0.17975 0.18357 0.0
H1437 H 0.60859 0.12273 0.1491 0.0
H1438 H 0.60522 0.10454 0.17569 0.0
H1439 H 0.61607 0.15007 0.20835 0.0
C1440 C 0.6162 0.19169 0.14899 0.0
C1441 C 0.61221 0.19075 0.13084 0.0
C1442 C 0.61016 0.1741 0.12278 0.0
C1443 C 0.6115 0.1586 0.13262 0.0
C1444 C 0.6149 0.15994 0.15057 0.0
C1445 C 0.61733 0.17602 0.15873 0.0
C1446 C 0.61905 0.17374 0.17852 0.0
C1447 C 0.63742 0.17939 0.18483 0.0
C1448 C 0.60449 0.18386 0.1883 0.0
C1449 C 0.6166 0.15399 0.1802 0.0
C1450 C 0.61445 0.14631 0.16386 0.0
C1451 C 0.61059 0.12851 0.16196 0.0
C1452 C 0.60863 0.11829 0.17715 0.0
C1453 C 0.61056 0.12584 0.19407 0.0
C1454 C 0.61492 0.14387 0.19558 0.0
H1455 H 0.88068 0.59853 0.18234 0.0
H1456 H 0.85759 0.63234 0.22213 0.0
H1457 H 0.83214 0.63784 0.20255 0.0
H1458 H 0.86565 0.62337 0.14372 0.0
H1459 H 0.86157 0.60366 0.13119 0.0
H1460 H 0.87862 0.60392 0.14765 0.0
H1461 H 0.8643 0.577 0.1629 0.0
H1462 H 0.84719 0.5767 0.14654 0.0
H1463 H 0.84154 0.57813 0.16953 0.0
H1464 H 0.80804 0.63774 0.17919 0.0
H1465 H 0.78763 0.63188 0.15447 0.0
H1466 H 0.82678 0.59794 0.13047 0.0
C1467 C 0.87045 0.60737 0.18685 0.0
C1468 C 0.8712 0.6151 0.20375 0.0
C1469 C 0.85737 0.62635 0.2092 0.0
C1470 C 0.84286 0.62956 0.19816 0.0
C1471 C 0.84241 0.62145 0.18169 0.0
C1472 C 0.85591 0.61064 0.17606 0.0
C1473 C 0.85186 0.60263 0.15828 0.0
C1474 C 0.86522 0.60877 0.14439 0.0
C1475 C 0.85118 0.58242 0.15939 0.0
C1476 C 0.83382 0.61034 0.15489 0.0
C1477 C 0.82861 0.62129 0.16843 0.0
C1478 C 0.81209 0.62932 0.16845 0.0
C1479 C 0.80057 0.62592 0.15435 0.0
C1480 C 0.8056 0.61451 0.14049 0.0
C1481 C 0.82255 0.60683 0.14077 0.0
H1482 H 0.39018 0.8018 0.15461 0.0
H1483 H 0.40041 0.8343 0.10886 0.0
H1484 H 0.39605 0.86096 0.12676 0.0
H1485 H 0.35737 0.83167 0.17617 0.0
H1486 H 0.36584 0.82723 0.19787 0.0
H1487 H 0.36699 0.81055 0.18104 0.0
H1488 H 0.40067 0.80809 0.18571 0.0
H1489 H 0.39962 0.82472 0.20252 0.0
H1490 H 0.41411 0.82756 0.18396 0.0
H1491 H 0.39411 0.88386 0.14969 0.0
H1492 H 0.39567 0.90179 0.17665 0.0
H1493 H 0.38696 0.85513 0.20828 0.0
C1494 C 0.39099 0.81454 0.14832 0.0
C1495 C 0.39544 0.816 0.1303 0.0
C1496 C 0.39694 0.83289 0.12261 0.0
C1497 C 0.3944 0.84811 0.13266 0.0
C1498 C 0.39041 0.84629 0.15044 0.0
C1499 C 0.38871 0.82997 0.15827 0.0
C1500 C 0.38617 0.83182 0.17801 0.0
C1501 C 0.36801 0.82491 0.1836 0.0
C1502 C 0.40103 0.8225 0.18814 0.0
C1503 C 0.38727 0.85167 0.18007 0.0
C1504 C 0.38944 0.85972 0.16392 0.0
C1505 C 0.39212 0.87777 0.1624 0.0
C1506 C 0.39302 0.88784 0.17779 0.0
C1507 C 0.39125 0.8799 0.19454 0.0
C1508 C 0.38793 0.86162 0.19564 0.0
H1509 H 0.1856 0.41163 0.12966 0.0
H1510 H 0.22543 0.37889 0.15416 0.0
H1511 H 0.20533 0.37343 0.17922 0.0
H1512 H 0.17125 0.43232 0.16817 0.0
H1513 H 0.14841 0.43314 0.16182 0.0
H1514 H 0.16527 0.433 0.14522 0.0
H1515 H 0.15106 0.40555 0.13081 0.0
H1516 H 0.13409 0.40563 0.14737 0.0
H1517 H 0.1472 0.38617 0.14391 0.0
H1518 H 0.18132 0.37349 0.20275 0.0
H1519 H 0.15586 0.37907 0.22233 0.0
H1520 H 0.13221 0.41176 0.18197 0.0
C1521 C 0.19004 0.40306 0.14013 0.0
C1522 C 0.20709 0.39562 0.13989 0.0
C1523 C 0.2124 0.38467 0.154 0.0
C1524 C 0.20107 0.38149 0.16829 0.0
C1525 C 0.18444 0.3893 0.16823 0.0
C1526 C 0.17895 0.39979 0.15444 0.0
C1527 C 0.16087 0.40743 0.15785 0.0
C1528 C 0.1615 0.42767 0.1583 0.0
C1529 C 0.14752 0.40079 0.14417 0.0
C1530 C 0.15713 0.39988 0.17587 0.0
C1531 C 0.17078 0.38935 0.18163 0.0
C1532 C 0.17049 0.38157 0.19826 0.0
C1533 C 0.15597 0.38481 0.2093 0.0
C1534 C 0.14198 0.39579 0.20368 0.0
C1535 C 0.14258 0.40319 0.18664 0.0
H1536 H 0.82667 0.60053 0.87853 0.0
H1537 H 0.78563 0.63106 0.85319 0.0
H1538 H 0.80612 0.63816 0.82887 0.0
H1539 H 0.86388 0.62869 0.86571 0.0
H1540 H 0.87829 0.61014 0.86246 0.0
H1541 H 0.8609 0.60898 0.87853 0.0
H1542 H 0.84883 0.58084 0.86351 0.0
H1543 H 0.86615 0.58191 0.84743 0.0
H1544 H 0.8435 0.58136 0.8404 0.0
H1545 H 0.83057 0.63951 0.8059 0.0
H1546 H 0.85647 0.63498 0.78665 0.0
H1547 H 0.88128 0.60398 0.82765 0.0
C1548 C 0.82203 0.60896 0.86803 0.0
C1549 C 0.80454 0.61528 0.86781 0.0
C1550 C 0.799 0.62613 0.85371 0.0
C1551 C 0.81055 0.63025 0.83984 0.0
C1552 C 0.82765 0.62354 0.84035 0.0
C1553 C 0.83337 0.61321 0.85417 0.0
C1554 C 0.85198 0.60675 0.85122 0.0
C1555 C 0.8645 0.61408 0.86532 0.0
C1556 C 0.85264 0.58652 0.8506 0.0
C1557 C 0.85576 0.61471 0.83337 0.0
C1558 C 0.84165 0.62446 0.82732 0.0
C1559 C 0.84177 0.63212 0.81064 0.0
C1560 C 0.85656 0.62949 0.7998 0.0
C1561 C 0.871 0.61927 0.80567 0.0
C1562 C 0.87062 0.61211 0.82283 0.0
H1563 H 0.40149 0.87601 0.82281 0.0
H1564 H 0.37279 0.85003 0.78086 0.0
H1565 H 0.36628 0.82517 0.80088 0.0
H1566 H 0.4222 0.83891 0.83887 0.0
H1567 H 0.42116 0.84526 0.8617 0.0
H1568 H 0.42142 0.86184 0.84486 0.0
H1569 H 0.39239 0.87493 0.85709 0.0
H1570 H 0.39207 0.85839 0.87405 0.0
H1571 H 0.3734 0.86095 0.85964 0.0
H1572 H 0.36588 0.8016 0.82483 0.0
H1573 H 0.37154 0.78193 0.85017 0.0
H1574 H 0.40035 0.82386 0.87604 0.0
C1575 C 0.39349 0.8653 0.81789 0.0
C1576 C 0.38757 0.86503 0.80026 0.0
C1577 C 0.37735 0.85061 0.79435 0.0
C1578 C 0.37359 0.83642 0.80563 0.0
C1579 C 0.38002 0.83693 0.82284 0.0
C1580 C 0.38964 0.85111 0.82894 0.0
C1581 C 0.39618 0.84804 0.84749 0.0
C1582 C 0.41643 0.84853 0.84826 0.0
C1583 C 0.38802 0.86137 0.86032 0.0
C1584 C 0.38921 0.8297 0.85075 0.0
C1585 C 0.37976 0.82352 0.83649 0.0
C1586 C 0.37303 0.80643 0.83615 0.0
C1587 C 0.3763 0.79534 0.85061 0.0
C1588 C 0.38629 0.80136 0.86517 0.0
C1589 C 0.39248 0.81888 0.86526 0.0
H1590 H 0.18477 0.40028 0.87774 0.0
H1591 H 0.22739 0.37309 0.85124 0.0
H1592 H 0.20763 0.36695 0.82605 0.0
H1593 H 0.1484 0.37219 0.86152 0.0
H1594 H 0.13378 0.39073 0.85937 0.0
H1595 H 0.1506 0.39077 0.87609 0.0
H1596 H 0.16259 0.42029 0.86398 0.0
H1597 H 0.1459 0.42032 0.84722 0.0
H1598 H 0.16877 0.42182 0.84113 0.0
H1599 H 0.18384 0.36686 0.80228 0.0
H1600 H 0.15858 0.37276 0.78255 0.0
H1601 H 0.13198 0.39999 0.82509 0.0
C1602 C 0.18989 0.39266 0.86685 0.0
C1603 C 0.20763 0.38708 0.86653 0.0
C1604 C 0.21382 0.37738 0.85185 0.0
C1605 C 0.20268 0.37384 0.83748 0.0
C1606 C 0.18536 0.37996 0.83805 0.0
C1607 C 0.179 0.38906 0.85246 0.0
C1608 C 0.16039 0.39546 0.8494 0.0
C1609 C 0.14753 0.38676 0.86236 0.0
C1610 C 0.15937 0.41566 0.85049 0.0
C1611 C 0.15738 0.389 0.83083 0.0
C1612 C 0.17181 0.37992 0.8245 0.0
C1613 C 0.17238 0.37372 0.80722 0.0
C1614 C 0.15796 0.37713 0.7961 0.0
C1615 C 0.14323 0.38674 0.80227 0.0
C1616 C 0.14292 0.39241 0.81998 0.0
H1617 H 0.59989 0.13004 0.82406 0.0
H1618 H 0.63187 0.15367 0.78313 0.0
H1619 H 0.63888 0.17846 0.80309 0.0
H1620 H 0.58085 0.16887 0.8391 0.0
H1621 H 0.58064 0.16256 0.86196 0.0
H1622 H 0.57983 0.14596 0.84513 0.0
H1623 H 0.60742 0.13095 0.85847 0.0
H1624 H 0.60831 0.14754 0.87538 0.0
H1625 H 0.62724 0.1436 0.86164 0.0
H1626 H 0.64008 0.20209 0.82698 0.0
H1627 H 0.63516 0.22214 0.8522 0.0
H1628 H 0.60256 0.18245 0.87709 0.0
C1629 C 0.60863 0.14025 0.81934 0.0
C1630 C 0.61538 0.13987 0.80203 0.0
C1631 C 0.62661 0.15363 0.79637 0.0
C1632 C 0.63068 0.16775 0.80762 0.0
C1633 C 0.62352 0.16786 0.82454 0.0
C1634 C 0.6128 0.15437 0.83037 0.0
C1635 C 0.60585 0.15799 0.84866 0.0
C1636 C 0.5856 0.1589 0.8487 0.0
C1637 C 0.61261 0.1442 0.86181 0.0
C1638 C 0.61395 0.17583 0.85211 0.0
C1639 C 0.62425 0.18129 0.83816 0.0
C1640 C 0.63224 0.19782 0.83806 0.0
C1641 C 0.62938 0.20912 0.85246 0.0
C1642 C 0.61857 0.20386 0.86669 0.0
C1643 C 0.61107 0.18685 0.86655 0.0
H1644 H 0.87555 0.41143 0.18258 0.0
H1645 H 0.85279 0.3789 0.22357 0.0
H1646 H 0.82674 0.37357 0.20472 0.0
H1647 H 0.83655 0.43236 0.17015 0.0
H1648 H 0.84174 0.43312 0.14703 0.0
H1649 H 0.85917 0.43287 0.16303 0.0
H1650 H 0.87264 0.4053 0.14813 0.0
H1651 H 0.85525 0.40551 0.13202 0.0
H1652 H 0.8592 0.38603 0.14493 0.0
H1653 H 0.80204 0.37375 0.1819 0.0
H1654 H 0.78125 0.37944 0.15745 0.0
H1655 H 0.82064 0.41189 0.13186 0.0
C1656 C 0.86525 0.40293 0.18753 0.0
C1657 C 0.86627 0.39551 0.20454 0.0
C1658 C 0.85236 0.38465 0.21054 0.0
C1659 C 0.83751 0.38154 0.19992 0.0
C1660 C 0.83681 0.38933 0.18331 0.0
C1661 C 0.85039 0.39973 0.17715 0.0
C1662 C 0.84614 0.4074 0.15928 0.0
C1663 C 0.84588 0.42763 0.15992 0.0
C1664 C 0.85908 0.40065 0.14526 0.0
C1665 C 0.82788 0.39998 0.15644 0.0
C1666 C 0.82273 0.38948 0.17034 0.0
C1667 C 0.80604 0.38181 0.17088 0.0
C1668 C 0.79431 0.38512 0.15693 0.0
C1669 C 0.79931 0.39605 0.14269 0.0
C1670 C 0.81641 0.40336 0.14246 0.0
H1671 H 0.60416 0.88112 0.18362 0.0
H1672 H 0.63358 0.85448 0.22464 0.0
H1673 H 0.63835 0.82922 0.20463 0.0
H1674 H 0.58136 0.84459 0.16916 0.0
H1675 H 0.58151 0.85052 0.1462 0.0
H1676 H 0.58267 0.86738 0.16274 0.0
H1677 H 0.61153 0.87922 0.14895 0.0
H1678 H 0.61039 0.86243 0.13224 0.0
H1679 H 0.62984 0.86449 0.14567 0.0
H1680 H 0.63717 0.80554 0.18089 0.0
H1681 H 0.63012 0.78589 0.15587 0.0
H1682 H 0.60108 0.82826 0.13101 0.0
C1683 C 0.61202 0.87019 0.1883 0.0
C1684 C 0.61863 0.86986 0.20568 0.0
C1685 C 0.62851 0.85511 0.21134 0.0
C1686 C 0.63129 0.8407 0.20006 0.0
C1687 C 0.62414 0.84126 0.18315 0.0
C1688 C 0.6148 0.85572 0.17728 0.0
C1689 C 0.60723 0.85262 0.15913 0.0
C1690 C 0.587 0.85385 0.15934 0.0
C1691 C 0.61523 0.86545 0.1457 0.0
C1692 C 0.61336 0.83399 0.15582 0.0
C1693 C 0.62328 0.82768 0.16969 0.0
C1694 C 0.62961 0.81045 0.16987 0.0
C1695 C 0.62553 0.79937 0.15561 0.0
C1696 C 0.61509 0.80553 0.14144 0.0
C1697 C 0.60919 0.82315 0.14155 0.0
H1698 H 0.15167 0.61654 0.20284 0.0
H1699 H 0.10638 0.59943 0.17254 0.0
H1700 H 0.12408 0.60047 0.14543 0.0
H1701 H 0.17102 0.64574 0.16848 0.0
H1702 H 0.19325 0.63943 0.17385 0.0
H1703 H 0.17655 0.63955 0.1907 0.0
H1704 H 0.18348 0.60697 0.19779 0.0
H1705 H 0.20013 0.60673 0.18097 0.0
H1706 H 0.18254 0.59083 0.18043 0.0
H1707 H 0.14693 0.60028 0.12225 0.0
H1708 H 0.17378 0.5989 0.10416 0.0
H1709 H 0.20488 0.61617 0.14884 0.0
C1710 C 0.1454 0.61346 0.19043 0.0
C1711 C 0.12759 0.60803 0.18979 0.0
C1712 C 0.11997 0.60367 0.17336 0.0
C1713 C 0.1299 0.60427 0.15786 0.0
C1714 C 0.1475 0.60928 0.15895 0.0
C1715 C 0.15522 0.61387 0.17476 0.0
C1716 C 0.17476 0.61741 0.17236 0.0
C1717 C 0.17915 0.63668 0.1766 0.0
C1718 C 0.18588 0.60472 0.18355 0.0
C1719 C 0.17684 0.61364 0.15284 0.0
C1720 C 0.16087 0.60915 0.14538 0.0
C1721 C 0.15948 0.60402 0.12786 0.0
C1722 C 0.17483 0.60323 0.1177 0.0
C1723 C 0.19141 0.60755 0.12503 0.0
C1724 C 0.19235 0.61311 0.14278 0.0
H1725 H 0.38705 0.20486 0.15617 0.0
H1726 H 0.3968 0.17332 0.10963 0.0
H1727 H 0.39497 0.14633 0.12746 0.0
H1728 H 0.41383 0.18074 0.18392 0.0
H1729 H 0.40021 0.1824 0.20326 0.0
H1730 H 0.39915 0.19918 0.18663 0.0
H1731 H 0.36554 0.19437 0.18363 0.0
H1732 H 0.36647 0.17761 0.20037 0.0
H1733 H 0.35719 0.17264 0.17912 0.0
H1734 H 0.39623 0.12331 0.1503 0.0
H1735 H 0.40015 0.10537 0.17698 0.0
H1736 H 0.38962 0.15114 0.20943 0.0
C1737 C 0.38818 0.19222 0.14969 0.0
C1738 C 0.39185 0.19114 0.13148 0.0
C1739 C 0.39386 0.17443 0.12353 0.0
C1740 C 0.3928 0.15902 0.13355 0.0
C1741 C 0.38972 0.16049 0.15154 0.0
C1742 C 0.38733 0.17663 0.15959 0.0
C1743 C 0.38599 0.17453 0.17943 0.0
C1744 C 0.40067 0.18482 0.18886 0.0
C1745 C 0.36771 0.18012 0.18602 0.0
C1746 C 0.3886 0.1548 0.18125 0.0
C1747 C 0.3905 0.14699 0.16494 0.0
C1748 C 0.39443 0.1292 0.16314 0.0
C1749 C 0.3967 0.11912 0.17838 0.0
C1750 C 0.39502 0.1268 0.19527 0.0
C1751 C 0.3906 0.14483 0.19669 0.0
H1752 H 0.87946 0.8215 0.60422 0.0
H1753 H 0.85363 0.78213 0.63645 0.0
H1754 H 0.82888 0.80271 0.64156 0.0
H1755 H 0.8649 0.86053 0.62919 0.0
H1756 H 0.86209 0.87334 0.60944 0.0
H1757 H 0.87856 0.85631 0.61026 0.0
H1758 H 0.8649 0.84181 0.58258 0.0
H1759 H 0.84835 0.8587 0.58173 0.0
H1760 H 0.84191 0.83591 0.58267 0.0
H1761 H 0.80556 0.8269 0.64068 0.0
H1762 H 0.78615 0.85218 0.63392 0.0
H1763 H 0.82755 0.87513 0.60202 0.0
C1764 C 0.86881 0.8173 0.6127 0.0
C1765 C 0.86857 0.80022 0.62005 0.0
C1766 C 0.8542 0.79519 0.6308 0.0
C1767 C 0.84007 0.8068 0.63377 0.0
C1768 C 0.84055 0.8234 0.62595 0.0
C1769 C 0.85464 0.82865 0.61572 0.0
C1770 C 0.85154 0.8466 0.60772 0.0
C1771 C 0.86507 0.85999 0.61457 0.0
C1772 C 0.85168 0.84569 0.58748 0.0
C1773 C 0.83331 0.85054 0.61469 0.0
C1774 C 0.82721 0.83713 0.62532 0.0
C1775 C 0.81032 0.83756 0.63254 0.0
C1776 C 0.79937 0.85197 0.62862 0.0
C1777 C 0.80532 0.86569 0.6175 0.0
C1778 C 0.82261 0.86497 0.61069 0.0
H1779 H 0.87643 0.17939 0.40754 0.0
H1780 H 0.85335 0.22089 0.3759 0.0
H1781 H 0.82801 0.20153 0.36916 0.0
H1782 H 0.86161 0.14213 0.38035 0.0
H1783 H 0.85757 0.12851 0.39932 0.0
H1784 H 0.8746 0.145 0.4 0.0
H1785 H 0.86027 0.1587 0.42775 0.0
H1786 H 0.84323 0.1423 0.42715 0.0
H1787 H 0.83749 0.1653 0.42702 0.0
H1788 H 0.8038 0.17825 0.36823 0.0
H1789 H 0.78318 0.15354 0.37338 0.0
H1790 H 0.82267 0.12766 0.40548 0.0
C1791 C 0.86623 0.18435 0.39892 0.0
C1792 C 0.86693 0.20165 0.39219 0.0
C1793 C 0.85316 0.20765 0.38113 0.0
C1794 C 0.83872 0.19673 0.37722 0.0
C1795 C 0.83831 0.17983 0.38436 0.0
C1796 C 0.85179 0.17367 0.3949 0.0
C1797 C 0.84781 0.15547 0.4019 0.0
C1798 C 0.86119 0.14198 0.39497 0.0
C1799 C 0.84715 0.15546 0.42215 0.0
C1800 C 0.82978 0.15247 0.39402 0.0
C1801 C 0.82453 0.16655 0.3838 0.0
C1802 C 0.80789 0.16706 0.37602 0.0
C1803 C 0.79627 0.15296 0.379 0.0
C1804 C 0.80132 0.1386 0.38974 0.0
C1805 C 0.81843 0.13832 0.39704 0.0
H1806 H 0.79697 0.85049 0.39278 0.0
H1807 H 0.82893 0.89688 0.40192 0.0
H1808 H 0.85581 0.87932 0.39764 0.0
H1809 H 0.82328 0.82197 0.41691 0.0
H1810 H 0.82066 0.80312 0.40276 0.0
H1811 H 0.80377 0.81967 0.40359 0.0
H1812 H 0.80602 0.8238 0.36985 0.0
H1813 H 0.82294 0.80721 0.36891 0.0
H1814 H 0.82704 0.82881 0.36006 0.0
H1815 H 0.87899 0.85674 0.3962 0.0
H1816 H 0.89734 0.83011 0.39825 0.0
H1817 H 0.85115 0.79758 0.3901 0.0
C1818 C 0.80964 0.85699 0.39335 0.0
C1819 C 0.81089 0.87509 0.39751 0.0
C1820 C 0.82768 0.88306 0.39869 0.0
C1821 C 0.84303 0.87321 0.39619 0.0
C1822 C 0.84143 0.85534 0.39254 0.0
C1823 C 0.8252 0.84724 0.39108 0.0
C1824 C 0.82734 0.82748 0.38887 0.0
C1825 C 0.81822 0.81748 0.40393 0.0
C1826 C 0.82042 0.82147 0.37085 0.0
C1827 C 0.84723 0.82574 0.38992 0.0
C1828 C 0.85505 0.84206 0.39177 0.0
C1829 C 0.87309 0.84391 0.39443 0.0
C1830 C 0.8834 0.82871 0.39562 0.0
C1831 C 0.87571 0.81182 0.39412 0.0
C1832 C 0.85743 0.81034 0.39083 0.0
H1833 H 0.1585 0.79582 0.38768 0.0
H1834 H 0.11216 0.82857 0.39361 0.0
H1835 H 0.13033 0.8551 0.38965 0.0
H1836 H 0.18582 0.8218 0.41283 0.0
H1837 H 0.20551 0.81879 0.39995 0.0
H1838 H 0.18868 0.80217 0.39983 0.0
H1839 H 0.18668 0.80419 0.36588 0.0
H1840 H 0.20361 0.82081 0.36589 0.0
H1841 H 0.18267 0.82519 0.35564 0.0
H1842 H 0.15336 0.87785 0.38963 0.0
H1843 H 0.18013 0.8957 0.39355 0.0
H1844 H 0.21235 0.849 0.38759 0.0
C1845 C 0.15216 0.80857 0.38749 0.0
C1846 C 0.13389 0.81017 0.39071 0.0
C1847 C 0.1261 0.82707 0.39103 0.0
C1848 C 0.13631 0.84221 0.38873 0.0
C1849 C 0.15435 0.84029 0.38613 0.0
C1850 C 0.16227 0.82392 0.38541 0.0
C1851 C 0.18217 0.82571 0.38447 0.0
C1852 C 0.19106 0.81658 0.40021 0.0
C1853 C 0.1892 0.81855 0.36692 0.0
C1854 C 0.18418 0.84557 0.38547 0.0
C1855 C 0.1679 0.85367 0.38615 0.0
C1856 C 0.16618 0.87172 0.38872 0.0
C1857 C 0.18146 0.88175 0.39099 0.0
C1858 C 0.19828 0.87377 0.39063 0.0
C1859 C 0.19967 0.85549 0.38743 0.0
H1860 H 0.18435 0.12714 0.40415 0.0
H1861 H 0.22481 0.15331 0.37356 0.0
H1862 H 0.20454 0.1783 0.36842 0.0
H1863 H 0.14605 0.14267 0.37841 0.0
H1864 H 0.13274 0.1451 0.39789 0.0
H1865 H 0.14963 0.12848 0.39706 0.0
H1866 H 0.16353 0.14122 0.42548 0.0
H1867 H 0.1468 0.15791 0.42634 0.0
H1868 H 0.1697 0.16411 0.42616 0.0
H1869 H 0.18058 0.20184 0.36935 0.0
H1870 H 0.1554 0.22139 0.37615 0.0
H1871 H 0.1312 0.17946 0.40633 0.0
C1872 C 0.18886 0.13791 0.396 0.0
C1873 C 0.20615 0.1382 0.38916 0.0
C1874 C 0.21158 0.15272 0.37882 0.0
C1875 C 0.20015 0.16698 0.37584 0.0
C1876 C 0.18332 0.16646 0.38321 0.0
C1877 C 0.17769 0.1522 0.39297 0.0
C1878 C 0.15955 0.15529 0.40059 0.0
C1879 C 0.14621 0.1421 0.39303 0.0
C1880 C 0.15993 0.1546 0.42083 0.0
C1881 C 0.15599 0.17372 0.39402 0.0
C1882 C 0.16972 0.17992 0.38384 0.0
C1883 C 0.16967 0.197 0.37711 0.0
C1884 C 0.15532 0.20803 0.38105 0.0
C1885 C 0.14128 0.20196 0.39172 0.0
C1886 C 0.14162 0.18449 0.39802 0.0
H1887 H 0.20972 0.15471 0.61906 0.0
H1888 H 0.17716 0.10852 0.61123 0.0
H1889 H 0.1505 0.1268 0.61354 0.0
H1890 H 0.17863 0.17886 0.64938 0.0
H1891 H 0.18367 0.1998 0.6395 0.0
H1892 H 0.20021 0.18282 0.64037 0.0
H1893 H 0.20416 0.18499 0.6066 0.0
H1894 H 0.18759 0.20185 0.60561 0.0
H1895 H 0.18529 0.18223 0.59249 0.0
H1896 H 0.12786 0.14991 0.61228 0.0
H1897 H 0.11021 0.17674 0.60807 0.0
H1898 H 0.15665 0.20876 0.6168 0.0
C1899 C 0.19695 0.14842 0.61848 0.0
C1900 C 0.19547 0.13017 0.61519 0.0
C1901 C 0.17857 0.12245 0.61386 0.0
C1902 C 0.16335 0.13272 0.61521 0.0
C1903 C 0.16519 0.15075 0.61787 0.0
C1904 C 0.18152 0.15859 0.61962 0.0
C1905 C 0.17975 0.17848 0.62056 0.0
C1906 C 0.18593 0.1854 0.63853 0.0
C1907 C 0.18979 0.1874 0.60541 0.0
C1908 C 0.15997 0.18056 0.61844 0.0
C1909 C 0.15188 0.16433 0.61713 0.0
C1910 C 0.13397 0.16269 0.61364 0.0
C1911 C 0.12406 0.17801 0.61119 0.0
C1912 C 0.13202 0.19481 0.61229 0.0
C1913 C 0.15016 0.19609 0.61629 0.0
H1914 H 0.82583 0.12998 0.60199 0.0
H1915 H 0.78536 0.15424 0.63413 0.0
H1916 H 0.80501 0.1797 0.63941 0.0
H1917 H 0.8641 0.14573 0.62733 0.0
H1918 H 0.87702 0.14903 0.60773 0.0
H1919 H 0.86052 0.13202 0.60831 0.0
H1920 H 0.84583 0.14529 0.58055 0.0
H1921 H 0.86219 0.16236 0.57993 0.0
H1922 H 0.83917 0.16805 0.58068 0.0
H1923 H 0.82836 0.20388 0.63866 0.0
H1924 H 0.85307 0.22413 0.63219 0.0
H1925 H 0.87776 0.18357 0.6005 0.0
C1926 C 0.82118 0.14044 0.61047 0.0
C1927 C 0.80407 0.14005 0.61774 0.0
C1928 C 0.79847 0.15418 0.62853 0.0
C1929 C 0.80954 0.1687 0.63159 0.0
C1930 C 0.8262 0.16884 0.62384 0.0
C1931 C 0.83201 0.15498 0.6136 0.0
C1932 C 0.84994 0.15869 0.60579 0.0
C1933 C 0.86371 0.14559 0.61271 0.0
C1934 C 0.84923 0.1586 0.58555 0.0
C1935 C 0.85321 0.177 0.61287 0.0
C1936 C 0.83948 0.18262 0.62338 0.0
C1937 C 0.83927 0.1995 0.63062 0.0
C1938 C 0.85336 0.21092 0.62687 0.0
C1939 C 0.86741 0.20543 0.61591 0.0
C1940 C 0.86733 0.18815 0.60907 0.0
H1941 H 0.2116 0.84754 0.61965 0.0
H1942 H 0.17926 0.89407 0.61316 0.0
H1943 H 0.15253 0.8762 0.61727 0.0
H1944 H 0.18528 0.82016 0.59474 0.0
H1945 H 0.18814 0.80062 0.60785 0.0
H1946 H 0.20492 0.81729 0.60774 0.0
H1947 H 0.20299 0.81971 0.64166 0.0
H1948 H 0.18619 0.80296 0.64189 0.0
H1949 H 0.18203 0.82405 0.6519 0.0
H1950 H 0.12952 0.8534 0.61773 0.0
H1951 H 0.11137 0.82678 0.6143 0.0
H1952 H 0.15784 0.79422 0.6204 0.0
C1953 C 0.1989 0.85399 0.61972 0.0
C1954 C 0.19747 0.87223 0.61633 0.0
C1955 C 0.18063 0.88015 0.61587 0.0
C1956 C 0.16537 0.87012 0.61826 0.0
C1957 C 0.16713 0.8521 0.62106 0.0
C1958 C 0.18343 0.84405 0.62187 0.0
C1959 C 0.18145 0.82419 0.62306 0.0
C1960 C 0.19048 0.81503 0.60742 0.0
C1961 C 0.18859 0.81732 0.64068 0.0
C1962 C 0.16156 0.82236 0.62213 0.0
C1963 C 0.1536 0.83869 0.62125 0.0
C1964 C 0.13554 0.84054 0.61877 0.0
C1965 C 0.12534 0.82534 0.61678 0.0
C1966 C 0.13316 0.80846 0.61731 0.0
C1967 C 0.15146 0.80695 0.62042 0.0
H1968 H 0.11182 0.2338 0.46653 0.0
H1969 H 0.11648 0.28953 0.45498 0.0
H1970 H 0.11962 0.29579 0.48668 0.0
H1971 H 0.08549 0.23849 0.50391 0.0
H1972 H 0.09539 0.22068 0.51602 0.0
H1973 H 0.09548 0.22034 0.49236 0.0
H1974 H 0.12944 0.21714 0.49242 0.0
H1975 H 0.12945 0.21742 0.51612 0.0
H1976 H 0.14266 0.233 0.50409 0.0
H1977 H 0.11972 0.29627 0.51975 0.0
H1978 H 0.11663 0.29095 0.55162 0.0
H1979 H 0.11185 0.23491 0.54165 0.0
C1980 C 0.11385 0.2473 0.47061 0.0
C1981 C 0.11398 0.26116 0.4582 0.0
C1982 C 0.11638 0.27866 0.46418 0.0
C1983 C 0.11822 0.28235 0.48218 0.0
C1984 C 0.1177 0.26842 0.49407 0.0
C1985 C 0.11564 0.25123 0.48853 0.0
C1986 C 0.11437 0.23877 0.50404 0.0
C1987 C 0.09663 0.229 0.50408 0.0
C1988 C 0.12991 0.22582 0.50417 0.0
C1989 C 0.11561 0.25169 0.51918 0.0
C1990 C 0.1177 0.2687 0.51315 0.0
C1991 C 0.11829 0.28298 0.52463 0.0
C1992 C 0.1165 0.27981 0.54273 0.0
C1993 C 0.11407 0.2625 0.54922 0.0
C1994 C 0.11389 0.24828 0.5372 0.0
H1995 H 0.72629 0.09999 0.5424 0.0
H1996 H 0.77126 0.13396 0.55154 0.0
H1997 H 0.77267 0.14067 0.51989 0.0
H1998 H 0.74243 0.08096 0.50421 0.0
H1999 H 0.72168 0.0795 0.4928 0.0
H2000 H 0.72216 0.07948 0.51646 0.0
H2001 H 0.70101 0.10619 0.51707 0.0
H2002 H 0.70041 0.10625 0.49336 0.0
H2003 H 0.7067 0.12586 0.50513 0.0
H2004 H 0.77194 0.14083 0.48752 0.0
H2005 H 0.76908 0.13439 0.4559 0.0
H2006 H 0.72452 0.10039 0.46672 0.0
C2007 C 0.73607 0.10924 0.53776 0.0
C2008 C 0.74858 0.11658 0.54944 0.0
C2009 C 0.76153 0.12823 0.54283 0.0
C2010 C 0.76239 0.13219 0.52488 0.0
C2011 C 0.75021 0.12441 0.51364 0.0
C2012 C 0.73723 0.11322 0.51975 0.0
C2013 C 0.72694 0.10531 0.50454 0.0
C2014 C 0.7284 0.08512 0.50451 0.0
C2015 C 0.70762 0.11126 0.50506 0.0
C2016 C 0.73656 0.11334 0.48899 0.0
C2017 C 0.74978 0.12449 0.49462 0.0
C2018 C 0.76143 0.13239 0.48291 0.0
C2019 C 0.75974 0.1286 0.46498 0.0
C2020 C 0.74649 0.11703 0.45886 0.0
C2021 C 0.73451 0.10959 0.47101 0.0
H2022 H 0.9047 0.72556 0.46626 0.0
H2023 H 0.87461 0.77321 0.45721 0.0
H2024 H 0.86838 0.77538 0.48892 0.0
H2025 H 0.87761 0.70847 0.50382 0.0
H2026 H 0.89673 0.70057 0.51542 0.0
H2027 H 0.89661 0.70107 0.4917 0.0
H2028 H 0.92507 0.71982 0.49198 0.0
H2029 H 0.92524 0.71944 0.51564 0.0
H2030 H 0.92546 0.74017 0.50415 0.0
H2031 H 0.86843 0.77474 0.52136 0.0
H2032 H 0.87472 0.77129 0.55295 0.0
H2033 H 0.90479 0.72404 0.54186 0.0
C2034 C 0.89636 0.73613 0.47093 0.0
C2035 C 0.89001 0.74915 0.45926 0.0
C2036 C 0.87958 0.76308 0.46591 0.0
C2037 C 0.87589 0.76438 0.48389 0.0
C2038 C 0.88273 0.75165 0.49513 0.0
C2039 C 0.89269 0.73773 0.48897 0.0
C2040 C 0.89985 0.72685 0.50412 0.0
C2041 C 0.89224 0.70813 0.50374 0.0
C2042 C 0.9201 0.72657 0.50396 0.0
C2043 C 0.89282 0.73718 0.51971 0.0
C2044 C 0.8828 0.7513 0.51415 0.0
C2045 C 0.87599 0.76357 0.52592 0.0
C2046 C 0.8797 0.76154 0.54383 0.0
C2047 C 0.89013 0.74733 0.54988 0.0
C2048 C 0.89648 0.73482 0.53765 0.0
H2049 H 0.28267 0.90246 0.466 0.0
H2050 H 0.23596 0.87133 0.45552 0.0
H2051 H 0.23325 0.86471 0.48711 0.0
H2052 H 0.29961 0.87545 0.50369 0.0
H2053 H 0.30675 0.89463 0.51566 0.0
H2054 H 0.30679 0.89475 0.49194 0.0
H2055 H 0.2873 0.92269 0.49206 0.0
H2056 H 0.28714 0.92262 0.51572 0.0
H2057 H 0.26666 0.92244 0.50376 0.0
H2058 H 0.23316 0.86443 0.51958 0.0
H2059 H 0.23565 0.87058 0.55129 0.0
H2060 H 0.28241 0.9019 0.54163 0.0
C2061 C 0.2722 0.89383 0.47033 0.0
C2062 C 0.2596 0.88728 0.45829 0.0
C2063 C 0.24578 0.87645 0.46451 0.0
C2064 C 0.24417 0.87254 0.48242 0.0
C2065 C 0.25649 0.87956 0.49403 0.0
C2066 C 0.27029 0.88992 0.4883 0.0
C2067 C 0.28064 0.89719 0.50378 0.0
C2068 C 0.29957 0.89008 0.50376 0.0
C2069 C 0.28041 0.91743 0.50383 0.0
C2070 C 0.27014 0.88975 0.51906 0.0
C2071 C 0.25641 0.87943 0.51306 0.0
C2072 C 0.24403 0.87221 0.52447 0.0
C2073 C 0.24552 0.87584 0.54246 0.0
C2074 C 0.2593 0.88658 0.54895 0.0
C2075 C 0.27197 0.89332 0.53709 0.0
H2076 H 0.10417 0.725 0.54142 0.0
H2077 H 0.13383 0.77257 0.5522 0.0
H2078 H 0.1402 0.77578 0.5206 0.0
H2079 H 0.1316 0.70925 0.50366 0.0
H2080 H 0.11265 0.70156 0.49164 0.0
H2081 H 0.11251 0.7014 0.51535 0.0
H2082 H 0.08394 0.71999 0.51533 0.0
H2083 H 0.08402 0.72025 0.49167 0.0
H2084 H 0.08354 0.74066 0.50372 0.0
H2085 H 0.14051 0.77603 0.4881 0.0
H2086 H 0.13458 0.77341 0.45635 0.0
H2087 H 0.10471 0.72569 0.46577 0.0
C2088 C 0.11242 0.73579 0.53715 0.0
C2089 C 0.11863 0.74847 0.54929 0.0
C2090 C 0.12896 0.7627 0.54315 0.0
C2091 C 0.13272 0.76459 0.52522 0.0
C2092 C 0.12606 0.75216 0.51353 0.0
C2093 C 0.11617 0.73799 0.51918 0.0
C2094 C 0.10924 0.7275 0.50364 0.0
C2095 C 0.11697 0.70882 0.50357 0.0
C2096 C 0.08899 0.72708 0.50359 0.0
C2097 C 0.11636 0.7383 0.48843 0.0
C2098 C 0.1262 0.75233 0.4945 0.0
C2099 C 0.13308 0.76494 0.48315 0.0
C2100 C 0.12959 0.76337 0.46514 0.0
C2101 C 0.11931 0.74928 0.45856 0.0
C2102 C 0.11292 0.73639 0.47037 0.0
H2103 H 0.28258 0.10173 0.46695 0.0
H2104 H 0.23561 0.13245 0.45643 0.0
H2105 H 0.23256 0.13873 0.48806 0.0
H2106 H 0.26652 0.08121 0.50434 0.0
H2107 H 0.2869 0.08115 0.51649 0.0
H2108 H 0.28727 0.08133 0.49283 0.0
H2109 H 0.30641 0.10952 0.49321 0.0
H2110 H 0.30615 0.10939 0.51693 0.0
H2111 H 0.29887 0.1286 0.5051 0.0
H2112 H 0.23215 0.13865 0.52046 0.0
H2113 H 0.23436 0.13214 0.55211 0.0
H2114 H 0.2816 0.1015 0.54259 0.0
C2115 C 0.27198 0.11021 0.4713 0.0
C2116 C 0.2594 0.11673 0.45923 0.0
C2117 C 0.24541 0.12735 0.46544 0.0
C2118 C 0.24361 0.13107 0.48338 0.0
C2119 C 0.25592 0.12408 0.495 0.0
C2120 C 0.26989 0.11392 0.48928 0.0
C2121 C 0.28018 0.10663 0.50478 0.0
C2122 C 0.28021 0.08638 0.50459 0.0
C2123 C 0.29902 0.11398 0.50502 0.0
C2124 C 0.26944 0.11379 0.52003 0.0
C2125 C 0.25565 0.12401 0.51402 0.0
C2126 C 0.24306 0.13094 0.52537 0.0
C2127 C 0.24439 0.12711 0.54333 0.0
C2128 C 0.25823 0.11645 0.54982 0.0
C2129 C 0.27112 0.11001 0.53804 0.0
H2130 H 0.89605 0.23627 0.54189 0.0
H2131 H 0.89165 0.29247 0.55106 0.0
H2132 H 0.88874 0.29737 0.5191 0.0
H2133 H 0.92259 0.23915 0.50449 0.0
H2134 H 0.91263 0.2209 0.49309 0.0
H2135 H 0.91242 0.22158 0.51675 0.0
H2136 H 0.87845 0.21862 0.51667 0.0
H2137 H 0.87854 0.21787 0.49298 0.0
H2138 H 0.86539 0.23405 0.50427 0.0
H2139 H 0.88886 0.29642 0.48604 0.0
H2140 H 0.892 0.28968 0.45444 0.0
H2141 H 0.89632 0.2341 0.4668 0.0
C2142 C 0.89413 0.24959 0.53724 0.0
C2143 C 0.894 0.26398 0.54905 0.0
C2144 C 0.89174 0.28122 0.54233 0.0
C2145 C 0.89003 0.28414 0.52417 0.0
C2146 C 0.89055 0.2697 0.51289 0.0
C2147 C 0.89246 0.25275 0.51917 0.0
C2148 C 0.89371 0.23962 0.50421 0.0
C2149 C 0.91139 0.22974 0.50467 0.0
C2150 C 0.87809 0.22678 0.50456 0.0
C2151 C 0.89263 0.25187 0.48853 0.0
C2152 C 0.89064 0.26915 0.49382 0.0
C2153 C 0.89021 0.28291 0.48174 0.0
C2154 C 0.89204 0.27895 0.4638 0.0
C2155 C 0.89434 0.26135 0.45807 0.0
C2156 C 0.89438 0.24767 0.47068 0.0
H2157 H 0.77091 0.8943 0.46832 0.0
H2158 H 0.71472 0.89046 0.45858 0.0
H2159 H 0.70946 0.88743 0.49046 0.0
H2160 H 0.77242 0.86342 0.5058 0.0
H2161 H 0.78865 0.87635 0.5173 0.0
H2162 H 0.78812 0.87634 0.4936 0.0
H2163 H 0.78553 0.91033 0.49365 0.0
H2164 H 0.78598 0.91044 0.5173 0.0
H2165 H 0.76794 0.92064 0.50578 0.0
H2166 H 0.71009 0.88751 0.5236 0.0
H2167 H 0.7166 0.89053 0.55529 0.0
H2168 H 0.77237 0.89422 0.54333 0.0
C2169 C 0.75751 0.89247 0.47282 0.0
C2170 C 0.74324 0.89256 0.46087 0.0
C2171 C 0.7259 0.89039 0.46742 0.0
C2172 C 0.72277 0.88863 0.48553 0.0
C2173 C 0.73711 0.88896 0.49696 0.0
C2174 C 0.75415 0.89073 0.49085 0.0
C2175 C 0.76715 0.89179 0.50593 0.0
C2176 C 0.77983 0.87604 0.50564 0.0
C2177 C 0.77723 0.90934 0.50564 0.0
C2178 C 0.75472 0.89078 0.52148 0.0
C2179 C 0.73746 0.88899 0.51604 0.0
C2180 C 0.72358 0.88869 0.52802 0.0
C2181 C 0.72741 0.89044 0.546 0.0
C2182 C 0.745 0.89253 0.55186 0.0
C2183 C 0.75879 0.89244 0.53936 0.0
H2184 H 0.46569 0.10698 0.23594 0.0
H2185 H 0.45501 0.11895 0.29076 0.0
H2186 H 0.48694 0.12194 0.29622 0.0
H2187 H 0.50274 0.08057 0.24333 0.0
H2188 H 0.5146 0.08799 0.22419 0.0
H2189 H 0.49093 0.08838 0.22429 0.0
H2190 H 0.4913 0.12165 0.21689 0.0
H2191 H 0.51501 0.12135 0.2167 0.0
H2192 H 0.50346 0.13656 0.23076 0.0
H2193 H 0.52034 0.12155 0.29606 0.0
H2194 H 0.55214 0.11786 0.29026 0.0
H2195 H 0.54059 0.10615 0.23554 0.0
C2196 C 0.46999 0.1105 0.24906 0.0
C2197 C 0.45777 0.11278 0.26291 0.0
C2198 C 0.46407 0.1172 0.27991 0.0
C2199 C 0.4822 0.11894 0.28314 0.0
C2200 C 0.49388 0.11631 0.26923 0.0
C2201 C 0.48799 0.11227 0.25251 0.0
C2202 C 0.50321 0.10924 0.24001 0.0
C2203 C 0.50284 0.09043 0.23252 0.0
C2204 C 0.50324 0.12303 0.22522 0.0
C2205 C 0.5186 0.11186 0.25237 0.0
C2206 C 0.51299 0.11606 0.26914 0.0
C2207 C 0.52487 0.11842 0.28293 0.0
C2208 C 0.54292 0.11629 0.2795 0.0
C2209 C 0.54894 0.11177 0.26243 0.0
C2210 C 0.53651 0.10974 0.24872 0.0
H2211 H 0.89883 0.54282 0.23655 0.0
H2212 H 0.8951 0.55372 0.2925 0.0
H2213 H 0.89239 0.52187 0.2984 0.0
H2214 H 0.86801 0.50572 0.23583 0.0
H2215 H 0.88075 0.49385 0.21972 0.0
H2216 H 0.88099 0.51755 0.21989 0.0
H2217 H 0.91501 0.51722 0.22234 0.0
H2218 H 0.91488 0.49356 0.22221 0.0
H2219 H 0.9253 0.50524 0.24003 0.0
H2220 H 0.89231 0.48858 0.29826 0.0
H2221 H 0.89467 0.45676 0.29211 0.0
H2222 H 0.89817 0.46794 0.23621 0.0
C2223 C 0.8972 0.53859 0.25005 0.0
C2224 C 0.89715 0.55083 0.26406 0.0
C2225 C 0.89512 0.54463 0.28153 0.0
C2226 C 0.89355 0.52655 0.28501 0.0
C2227 C 0.89391 0.51485 0.27089 0.0
C2228 C 0.89559 0.52064 0.25375 0.0
C2229 C 0.89643 0.50538 0.24096 0.0
C2230 C 0.8806 0.50564 0.22836 0.0
C2231 C 0.91394 0.50536 0.2308 0.0
C2232 C 0.89533 0.49006 0.25361 0.0
C2233 C 0.89377 0.49576 0.2708 0.0
C2234 C 0.89334 0.48397 0.28483 0.0
C2235 C 0.89471 0.46591 0.2812 0.0
C2236 C 0.89653 0.45979 0.26367 0.0
C2237 C 0.89661 0.47211 0.24974 0.0
H2238 H 0.54013 0.90237 0.28124 0.0
H2239 H 0.55033 0.87895 0.23016 0.0
H2240 H 0.51867 0.87329 0.22636 0.0
H2241 H 0.50229 0.87342 0.29359 0.0
H2242 H 0.49036 0.89124 0.30371 0.0
H2243 H 0.51409 0.89133 0.30373 0.0
H2244 H 0.51401 0.92199 0.28891 0.0
H2245 H 0.49033 0.92198 0.28881 0.0
H2246 H 0.50224 0.92502 0.26854 0.0
H2247 H 0.48634 0.87307 0.22628 0.0
H2248 H 0.45461 0.87855 0.2298 0.0
H2249 H 0.46423 0.90211 0.28092 0.0
C2250 C 0.53569 0.89564 0.26949 0.0
C2251 C 0.5477 0.89098 0.25603 0.0
C2252 C 0.54138 0.88262 0.24063 0.0
C2253 C 0.52342 0.87927 0.23838 0.0
C2254 C 0.51187 0.88435 0.25165 0.0
C2255 C 0.51767 0.89233 0.26693 0.0
C2256 C 0.5022 0.89788 0.27833 0.0
C2257 C 0.50224 0.88787 0.29588 0.0
C2258 C 0.5022 0.9179 0.28131 0.0
C2259 C 0.48687 0.89222 0.26681 0.0
C2260 C 0.49286 0.88426 0.25159 0.0
C2261 C 0.48145 0.87902 0.23825 0.0
C2262 C 0.46346 0.88226 0.24035 0.0
C2263 C 0.45696 0.89062 0.25568 0.0
C2264 C 0.46881 0.89535 0.26924 0.0
H2265 H 0.11109 0.54291 0.23485 0.0
H2266 H 0.11455 0.55475 0.29063 0.0
H2267 H 0.11721 0.523 0.29707 0.0
H2268 H 0.08453 0.50559 0.23878 0.0
H2269 H 0.09498 0.49355 0.22123 0.0
H2270 H 0.095 0.5172 0.22095 0.0
H2271 H 0.12904 0.51728 0.21873 0.0
H2272 H 0.12913 0.49359 0.21896 0.0
H2273 H 0.14184 0.50564 0.23495 0.0
H2274 H 0.11703 0.48966 0.29749 0.0
H2275 H 0.11441 0.45776 0.29184 0.0
H2276 H 0.11139 0.46808 0.23575 0.0
C2277 C 0.11267 0.53891 0.24842 0.0
C2278 C 0.11263 0.5514 0.26223 0.0
C2279 C 0.11461 0.54549 0.2798 0.0
C2280 C 0.11614 0.52746 0.2836 0.0
C2281 C 0.11581 0.51551 0.26968 0.0
C2282 C 0.11424 0.52103 0.25243 0.0
C2283 C 0.11339 0.50557 0.2399 0.0
C2284 C 0.09594 0.50548 0.22962 0.0
C2285 C 0.1293 0.50552 0.2274 0.0
C2286 C 0.11432 0.49044 0.2528 0.0
C2287 C 0.11583 0.49642 0.26991 0.0
C2288 C 0.11605 0.48484 0.28413 0.0
C2289 C 0.11453 0.46673 0.28078 0.0
C2290 C 0.11278 0.46035 0.26334 0.0
C2291 C 0.11291 0.47245 0.24922 0.0
H2292 H 0.46662 0.90381 0.72494 0.0
H2293 H 0.45626 0.87109 0.77054 0.0
H2294 H 0.48796 0.86501 0.77343 0.0
H2295 H 0.50496 0.87798 0.70765 0.0
H2296 H 0.51668 0.89755 0.70119 0.0
H2297 H 0.49295 0.89728 0.70092 0.0
H2298 H 0.49241 0.92465 0.72121 0.0
H2299 H 0.51608 0.92496 0.7216 0.0
H2300 H 0.50393 0.92399 0.74194 0.0
H2301 H 0.52042 0.86531 0.77388 0.0
H2302 H 0.55208 0.87195 0.77183 0.0
H2303 H 0.54235 0.90444 0.72593 0.0
C2304 C 0.47102 0.89496 0.73519 0.0
C2305 C 0.45896 0.8878 0.74744 0.0
C2306 C 0.46525 0.87668 0.76099 0.0
C2307 C 0.48323 0.87309 0.7627 0.0
C2308 C 0.49483 0.8807 0.75075 0.0
C2309 C 0.48905 0.89135 0.7372 0.0
C2310 C 0.50451 0.89916 0.72723 0.0
C2311 C 0.50479 0.8926 0.70811 0.0
C2312 C 0.50421 0.91938 0.72805 0.0
C2313 C 0.51983 0.89167 0.73766 0.0
C2314 C 0.51387 0.88089 0.75103 0.0
C2315 C 0.52529 0.87348 0.76329 0.0
C2316 C 0.54325 0.87738 0.76205 0.0
C2317 C 0.5497 0.88858 0.74864 0.0
C2318 C 0.53784 0.89553 0.73608 0.0
H2319 H 0.10567 0.46707 0.72895 0.0
H2320 H 0.13134 0.45666 0.7789 0.0
H2321 H 0.13588 0.48841 0.78323 0.0
H2322 H 0.13302 0.50588 0.71644 0.0
H2323 H 0.11453 0.51738 0.70705 0.0
H2324 H 0.11518 0.49368 0.70665 0.0
H2325 H 0.08496 0.49261 0.72236 0.0
H2326 H 0.08425 0.51625 0.72289 0.0
H2327 H 0.08218 0.50392 0.74303 0.0
H2328 H 0.13477 0.52086 0.78402 0.0
H2329 H 0.12861 0.5525 0.7809 0.0
H2330 H 0.10398 0.54279 0.7303 0.0
C2331 C 0.11265 0.47147 0.74056 0.0
C2332 C 0.11823 0.45935 0.75355 0.0
C2333 C 0.12695 0.46566 0.76877 0.0
C2334 C 0.12965 0.48369 0.77133 0.0
C2335 C 0.12361 0.49531 0.75855 0.0
C2336 C 0.11539 0.48952 0.7434 0.0
C2337 C 0.10902 0.50497 0.73243 0.0
C2338 C 0.11851 0.50551 0.71458 0.0
C2339 C 0.08891 0.5044 0.73005 0.0
C2340 C 0.11455 0.52026 0.74403 0.0
C2341 C 0.12307 0.51432 0.75895 0.0
C2342 C 0.12837 0.52572 0.77227 0.0
C2343 C 0.12473 0.54367 0.77041 0.0
C2344 C 0.11593 0.55013 0.75531 0.0
C2345 C 0.11102 0.53827 0.74182 0.0
H2346 H 0.46641 0.11184 0.77011 0.0
H2347 H 0.45491 0.11319 0.71418 0.0
H2348 H 0.48664 0.11621 0.70782 0.0
H2349 H 0.50363 0.143 0.76922 0.0
H2350 H 0.51568 0.13086 0.78563 0.0
H2351 H 0.49196 0.13068 0.78578 0.0
H2352 H 0.4922 0.09662 0.78463 0.0
H2353 H 0.51587 0.09668 0.78442 0.0
H2354 H 0.50392 0.08565 0.76716 0.0
H2355 H 0.51992 0.11639 0.70752 0.0
H2356 H 0.55182 0.11383 0.71331 0.0
H2357 H 0.54134 0.11245 0.76944 0.0
C2358 C 0.47048 0.11311 0.75652 0.0
C2359 C 0.45809 0.11234 0.74265 0.0
C2360 C 0.46409 0.11381 0.72505 0.0
C2361 C 0.48211 0.11556 0.7213 0.0
C2362 C 0.49398 0.11592 0.73529 0.0
C2363 C 0.48839 0.11484 0.75255 0.0
C2364 C 0.50383 0.11444 0.76515 0.0
C2365 C 0.50377 0.13072 0.77715 0.0
C2366 C 0.50395 0.09733 0.77597 0.0
C2367 C 0.51901 0.11502 0.75227 0.0
C2368 C 0.51309 0.11603 0.73511 0.0
C2369 C 0.52471 0.11582 0.72091 0.0
C2370 C 0.54282 0.11433 0.72434 0.0
C2371 C 0.54916 0.11301 0.74183 0.0
C2372 C 0.53701 0.11363 0.75592 0.0
H2373 H 0.90625 0.54166 0.73065 0.0
H2374 H 0.88073 0.55163 0.78074 0.0
H2375 H 0.8749 0.51997 0.78414 0.0
H2376 H 0.87792 0.50397 0.71684 0.0
H2377 H 0.89619 0.4921 0.70745 0.0
H2378 H 0.89628 0.51581 0.70759 0.0
H2379 H 0.92628 0.51564 0.72377 0.0
H2380 H 0.92627 0.49198 0.72371 0.0
H2381 H 0.92841 0.50376 0.74418 0.0
H2382 H 0.87445 0.48755 0.78387 0.0
H2383 H 0.87992 0.45586 0.78025 0.0
H2384 H 0.906 0.46596 0.73046 0.0
C2385 C 0.89904 0.53717 0.74209 0.0
C2386 C 0.89382 0.5491 0.75538 0.0
C2387 C 0.88484 0.54273 0.7704 0.0
C2388 C 0.88138 0.52477 0.77241 0.0
C2389 C 0.88702 0.51329 0.75931 0.0
C2390 C 0.89565 0.51916 0.74442 0.0
C2391 C 0.90171 0.50378 0.73318 0.0
C2392 C 0.89247 0.50393 0.71519 0.0
C2393 C 0.92186 0.5038 0.7311 0.0
C2394 C 0.89553 0.48842 0.74434 0.0
C2395 C 0.8869 0.49428 0.75923 0.0
C2396 C 0.88097 0.48277 0.77216 0.0
C2397 C 0.8842 0.46478 0.77001 0.0
C2398 C 0.8933 0.45841 0.75504 0.0
C2399 C 0.89874 0.4704 0.74188 0.0
H2400 H 0.23697 0.54209 0.1088 0.0
H2401 H 0.29248 0.55517 0.11239 0.0
H2402 H 0.29963 0.52359 0.11536 0.0
H2403 H 0.23779 0.50519 0.13991 0.0
H2404 H 0.22209 0.49268 0.12729 0.0
H2405 H 0.22136 0.51636 0.12694 0.0
H2406 H 0.2237 0.51594 0.09292 0.0
H2407 H 0.22448 0.4923 0.09317 0.0
H2408 H 0.24182 0.50458 0.08265 0.0
H2409 H 0.30077 0.49016 0.1155 0.0
H2410 H 0.29573 0.4581 0.11324 0.0
H2411 H 0.23944 0.46738 0.10994 0.0
C2412 C 0.25064 0.5384 0.11046 0.0
C2413 C 0.26416 0.55118 0.11038 0.0
C2414 C 0.28187 0.54567 0.11248 0.0
C2415 C 0.28606 0.52774 0.11418 0.0
C2416 C 0.27241 0.51549 0.1139 0.0
C2417 C 0.25504 0.52063 0.11222 0.0
C2418 C 0.24284 0.5049 0.1115 0.0
C2419 C 0.23028 0.50478 0.12736 0.0
C2420 C 0.23262 0.50441 0.09402 0.0
C2421 C 0.25607 0.49007 0.11263 0.0
C2422 C 0.27305 0.49639 0.11412 0.0
C2423 C 0.2875 0.48508 0.11453 0.0
C2424 C 0.28451 0.46688 0.11322 0.0
C2425 C 0.26719 0.46015 0.11149 0.0
C2426 C 0.25284 0.47201 0.11143 0.0
H2427 H 0.27959 0.54365 0.90303 0.0
H2428 H 0.22962 0.55265 0.87687 0.0
H2429 H 0.22676 0.52087 0.87129 0.0
H2430 H 0.2943 0.506 0.87521 0.0
H2431 H 0.30368 0.49443 0.89365 0.0
H2432 H 0.30315 0.51813 0.89357 0.0
H2433 H 0.28662 0.5179 0.92337 0.0
H2434 H 0.28706 0.49425 0.92352 0.0
H2435 H 0.26637 0.5057 0.92534 0.0
H2436 H 0.22758 0.48841 0.87104 0.0
H2437 H 0.23176 0.4568 0.87658 0.0
H2438 H 0.28106 0.46795 0.90325 0.0
C2439 C 0.26829 0.53894 0.89574 0.0
C2440 C 0.25489 0.55063 0.89025 0.0
C2441 C 0.24005 0.54394 0.88116 0.0
C2442 C 0.23834 0.52591 0.87786 0.0
C2443 C 0.25155 0.51468 0.88376 0.0
C2444 C 0.26626 0.52086 0.89249 0.0
C2445 C 0.27768 0.50571 0.89878 0.0
C2446 C 0.29578 0.5061 0.88976 0.0
C2447 C 0.27953 0.50591 0.91894 0.0
C2448 C 0.26684 0.49011 0.89259 0.0
C2449 C 0.25194 0.49566 0.88377 0.0
C2450 C 0.2393 0.48387 0.87772 0.0
C2451 C 0.24178 0.46593 0.881 0.0
C2452 C 0.25677 0.45987 0.89028 0.0
C2453 C 0.26962 0.47215 0.89587 0.0
H2454 H 0.46709 0.28202 0.90513 0.0
H2455 H 0.45655 0.23612 0.87286 0.0
H2456 H 0.48816 0.23354 0.86616 0.0
H2457 H 0.5048 0.29955 0.87853 0.0
H2458 H 0.51677 0.30621 0.89789 0.0
H2459 H 0.49304 0.30628 0.898 0.0
H2460 H 0.49311 0.28614 0.92547 0.0
H2461 H 0.51678 0.28596 0.92541 0.0
H2462 H 0.5048 0.26551 0.92472 0.0
H2463 H 0.52063 0.23342 0.8659 0.0
H2464 H 0.55234 0.23567 0.8722 0.0
H2465 H 0.54272 0.28164 0.90465 0.0
C2466 C 0.47141 0.27176 0.89623 0.0
C2467 C 0.45935 0.25935 0.88938 0.0
C2468 C 0.46555 0.24579 0.87821 0.0
C2469 C 0.48348 0.24427 0.87426 0.0
C2470 C 0.49509 0.2564 0.88157 0.0
C2471 C 0.48937 0.26994 0.89228 0.0
C2472 C 0.50486 0.28009 0.89981 0.0
C2473 C 0.50486 0.29917 0.89316 0.0
C2474 C 0.50488 0.27937 0.92005 0.0
C2475 C 0.52013 0.26976 0.89212 0.0
C2476 C 0.51413 0.2563 0.88146 0.0
C2477 C 0.52553 0.24408 0.87396 0.0
C2478 C 0.54352 0.24543 0.87767 0.0
C2479 C 0.55 0.25891 0.88878 0.0
C2480 C 0.53817 0.27145 0.8958 0.0
H2481 H 0.77152 0.54104 0.89575 0.0
H2482 H 0.71545 0.55182 0.89324 0.0
H2483 H 0.70952 0.52001 0.8906 0.0
H2484 H 0.77161 0.50323 0.86523 0.0
H2485 H 0.78791 0.49157 0.87791 0.0
H2486 H 0.78783 0.51527 0.87767 0.0
H2487 H 0.78602 0.51563 0.91171 0.0
H2488 H 0.78604 0.49197 0.91205 0.0
H2489 H 0.76845 0.50394 0.92254 0.0
H2490 H 0.70953 0.48685 0.8908 0.0
H2491 H 0.71553 0.45509 0.89396 0.0
H2492 H 0.77157 0.46605 0.89643 0.0
C2493 C 0.758 0.53678 0.89429 0.0
C2494 C 0.74396 0.549 0.89462 0.0
C2495 C 0.72645 0.54276 0.89296 0.0
C2496 C 0.72294 0.5247 0.89142 0.0
C2497 C 0.73706 0.51301 0.89149 0.0
C2498 C 0.75426 0.5188 0.8928 0.0
C2499 C 0.76699 0.5035 0.89371 0.0
C2500 C 0.77931 0.50339 0.87767 0.0
C2501 C 0.77748 0.50378 0.91103 0.0
C2502 C 0.75426 0.48818 0.89314 0.0
C2503 C 0.73707 0.49392 0.89168 0.0
C2504 C 0.72296 0.4822 0.89175 0.0
C2505 C 0.72651 0.46416 0.89357 0.0
C2506 C 0.74402 0.45799 0.89538 0.0
C2507 C 0.75803 0.47025 0.8949 0.0
H2508 H 0.46607 0.72783 0.90405 0.0
H2509 H 0.45565 0.77607 0.87537 0.0
H2510 H 0.4874 0.77983 0.87012 0.0
H2511 H 0.50323 0.74322 0.92615 0.0
H2512 H 0.51541 0.7229 0.92534 0.0
H2513 H 0.49174 0.72251 0.92489 0.0
H2514 H 0.49244 0.70476 0.8958 0.0
H2515 H 0.51616 0.70504 0.8962 0.0
H2516 H 0.50452 0.71322 0.87723 0.0
H2517 H 0.51997 0.78028 0.87059 0.0
H2518 H 0.55165 0.77738 0.87674 0.0
H2519 H 0.54173 0.72885 0.90512 0.0
C2520 C 0.47046 0.73892 0.89628 0.0
C2521 C 0.45835 0.7516 0.89002 0.0
C2522 C 0.46465 0.76618 0.88028 0.0
C2523 C 0.48268 0.7684 0.87716 0.0
C2524 C 0.4943 0.75593 0.88384 0.0
C2525 C 0.48851 0.74143 0.89315 0.0
C2526 C 0.50394 0.73081 0.9001 0.0
C2527 C 0.50355 0.72981 0.92031 0.0
C2528 C 0.50428 0.71236 0.89184 0.0
C2529 C 0.51926 0.74189 0.89364 0.0
C2530 C 0.51334 0.7562 0.88414 0.0
C2531 C 0.5248 0.76899 0.87778 0.0
C2532 C 0.54278 0.76725 0.88141 0.0
C2533 C 0.5492 0.75284 0.89132 0.0
C2534 C 0.53727 0.73984 0.89724 0.0
H2535 H 0.76922 0.54283 0.11379 0.0
H2536 H 0.71356 0.55578 0.11374 0.0
H2537 H 0.70631 0.52424 0.11661 0.0
H2538 H 0.76592 0.50529 0.08755 0.0
H2539 H 0.78261 0.49298 0.09904 0.0
H2540 H 0.78342 0.51662 0.09887 0.0
H2541 H 0.78379 0.51699 0.13296 0.0
H2542 H 0.78302 0.49331 0.13324 0.0
H2543 H 0.76663 0.50584 0.14495 0.0
H2544 H 0.70514 0.49103 0.11698 0.0
H2545 H 0.71015 0.459 0.11479 0.0
H2546 H 0.76659 0.46798 0.11463 0.0
C2547 C 0.75549 0.53912 0.1147 0.0
C2548 C 0.74196 0.55185 0.1136 0.0
C2549 C 0.72417 0.54631 0.11461 0.0
C2550 C 0.71992 0.52841 0.11627 0.0
C2551 C 0.73359 0.5162 0.11699 0.0
C2552 C 0.75102 0.52134 0.11632 0.0
C2553 C 0.76323 0.50559 0.11629 0.0
C2554 C 0.77445 0.50509 0.09944 0.0
C2555 C 0.77485 0.50543 0.13285 0.0
C2556 C 0.74994 0.49075 0.11663 0.0
C2557 C 0.73292 0.49713 0.11719 0.0
C2558 C 0.71842 0.48589 0.11674 0.0
C2559 C 0.72141 0.46771 0.11547 0.0
C2560 C 0.73876 0.4609 0.11461 0.0
C2561 C 0.75316 0.47267 0.11545 0.0
H2562 H 0.54053 0.77371 0.11258 0.0
H2563 H 0.55115 0.7177 0.1158 0.0
H2564 H 0.51924 0.71189 0.11816 0.0
H2565 H 0.5026 0.77432 0.14274 0.0
H2566 H 0.49107 0.79052 0.12983 0.0
H2567 H 0.51479 0.79032 0.13018 0.0
H2568 H 0.51528 0.7881 0.09616 0.0
H2569 H 0.49161 0.78824 0.09571 0.0
H2570 H 0.50354 0.77048 0.08547 0.0
H2571 H 0.48595 0.71209 0.11778 0.0
H2572 H 0.45419 0.71826 0.11457 0.0
H2573 H 0.46553 0.77415 0.1115 0.0
C2574 C 0.53622 0.76023 0.11411 0.0
C2575 C 0.54842 0.74617 0.11408 0.0
C2576 C 0.54211 0.72871 0.11585 0.0
C2577 C 0.52399 0.72528 0.11723 0.0
C2578 C 0.51232 0.73943 0.11688 0.0
C2579 C 0.51821 0.75657 0.11544 0.0
C2580 C 0.50296 0.76937 0.11431 0.0
C2581 C 0.50285 0.78187 0.13021 0.0
C2582 C 0.50338 0.77964 0.09688 0.0
C2583 C 0.48757 0.75674 0.11495 0.0
C2584 C 0.49321 0.73954 0.1166 0.0
C2585 C 0.48138 0.72553 0.11667 0.0
C2586 C 0.46335 0.72917 0.11482 0.0
C2587 C 0.45728 0.7467 0.11284 0.0
C2588 C 0.46964 0.76061 0.11315 0.0
H2589 H 0.5395 0.27735 0.10331 0.0
H2590 H 0.5496 0.23026 0.13391 0.0
H2591 H 0.51799 0.22786 0.14069 0.0
H2592 H 0.5021 0.29445 0.13067 0.0
H2593 H 0.49014 0.3019 0.11159 0.0
H2594 H 0.51387 0.30169 0.1114 0.0
H2595 H 0.51348 0.28248 0.08325 0.0
H2596 H 0.48981 0.28259 0.08339 0.0
H2597 H 0.50154 0.26198 0.08334 0.0
H2598 H 0.48552 0.22812 0.14107 0.0
H2599 H 0.45383 0.23088 0.13484 0.0
H2600 H 0.4639 0.27781 0.10399 0.0
C2601 C 0.53509 0.26686 0.11186 0.0
C2602 C 0.54703 0.25406 0.11821 0.0
C2603 C 0.5407 0.24022 0.12894 0.0
C2604 C 0.52278 0.2388 0.13294 0.0
C2605 C 0.51128 0.25132 0.12612 0.0
C2606 C 0.51713 0.26513 0.11585 0.0
C2607 C 0.50173 0.27571 0.10873 0.0
C2608 C 0.50198 0.29456 0.11604 0.0
C2609 C 0.50164 0.27567 0.08848 0.0
C2610 C 0.48637 0.26531 0.11612 0.0
C2611 C 0.49224 0.25145 0.12631 0.0
C2612 C 0.48072 0.2391 0.13339 0.0
C2613 C 0.46275 0.24075 0.12973 0.0
C2614 C 0.45639 0.25464 0.11908 0.0
C2615 C 0.46835 0.2673 0.11251 0.0
H2616 H 0.6099 0.73956 0.04257 0.0
H2617 H 0.61393 0.79561 0.05271 0.0
H2618 H 0.61675 0.80106 0.02077 0.0
H2619 H 0.64046 0.73795 0.00529 0.0
H2620 H 0.62742 0.72185 0.99374 0.0
H2621 H 0.62736 0.72236 0.01744 0.0
H2622 H 0.59337 0.72525 0.01733 0.0
H2623 H 0.59332 0.7248 0.99367 0.0
H2624 H 0.58324 0.74292 0.00518 0.0
H2625 H 0.61721 0.80041 0.98736 0.0
H2626 H 0.61469 0.79376 0.95562 0.0
H2627 H 0.61001 0.73818 0.9678 0.0
C2628 C 0.61166 0.75299 0.03816 0.0
C2629 C 0.61177 0.76715 0.05021 0.0
C2630 C 0.61387 0.78452 0.04377 0.0
C2631 C 0.61551 0.78775 0.02564 0.0
C2632 C 0.61508 0.77347 0.01412 0.0
C2633 C 0.61324 0.75643 0.02016 0.0
C2634 C 0.61212 0.74346 0.00509 0.0
C2635 C 0.62778 0.73065 0.00542 0.0
C2636 C 0.59446 0.73353 0.00534 0.0
C2637 C 0.61327 0.75587 0.98959 0.0
C2638 C 0.61515 0.77311 0.99502 0.0
C2639 C 0.61588 0.78693 0.98298 0.0
C2640 C 0.61444 0.78302 0.96496 0.0
C2641 C 0.61217 0.76544 0.95915 0.0
C2642 C 0.61181 0.75175 0.97172 0.0
H2643 H 0.22767 0.60391 0.96318 0.0
H2644 H 0.27524 0.63403 0.95395 0.0
H2645 H 0.27754 0.6403 0.98566 0.0
H2646 H 0.21066 0.63066 1.00109 0.0
H2647 H 0.20302 0.61144 0.01268 0.0
H2648 H 0.20331 0.61164 0.98896 0.0
H2649 H 0.22233 0.58337 0.98896 0.0
H2650 H 0.22216 0.58313 0.01262 0.0
H2651 H 0.24281 0.58312 1.00095 0.0
H2652 H 0.27697 0.64047 0.01804 0.0
H2653 H 0.27382 0.63423 0.04963 0.0
H2654 H 0.22683 0.60354 0.03893 0.0
C2655 C 0.23822 0.61227 0.96784 0.0
C2656 C 0.25117 0.61869 0.95613 0.0
C2657 C 0.26515 0.62909 0.96271 0.0
C2658 C 0.26652 0.63278 0.98069 0.0
C2659 C 0.25385 0.6259 0.99198 0.0
C2660 C 0.23993 0.61589 0.9859 0.0
C2661 C 0.22925 0.6086 1.00114 0.0
C2662 C 0.21044 0.61603 1.00095 0.0
C2663 C 0.22914 0.58836 1.00089 0.0
C2664 C 0.23967 0.61566 0.01666 0.0
C2665 C 0.25365 0.62581 0.011 0.0
C2666 C 0.26592 0.63278 0.02267 0.0
C2667 C 0.26405 0.62909 0.0406 0.0
C2668 C 0.25003 0.61848 0.04678 0.0
C2669 C 0.23749 0.61196 0.03464 0.0
H2670 H 0.39948 0.27118 0.04199 0.0
H2671 H 0.38993 0.21564 0.05122 0.0
H2672 H 0.3874 0.21084 0.01917 0.0
H2673 H 0.3699 0.27597 0.00423 0.0
H2674 H 0.38451 0.29094 0.99308 0.0
H2675 H 0.38416 0.29018 0.01677 0.0
H2676 H 0.41774 0.28422 0.01711 0.0
H2677 H 0.4182 0.28493 0.99346 0.0
H2678 H 0.42643 0.26585 0.00487 0.0
H2679 H 0.38784 0.21183 0.98588 0.0
H2680 H 0.39131 0.21851 0.95427 0.0
H2681 H 0.4006 0.2734 0.96709 0.0
C2682 C 0.3966 0.25803 0.03734 0.0
C2683 C 0.39485 0.2438 0.0492 0.0
C2684 C 0.39127 0.22678 0.04245 0.0
C2685 C 0.38979 0.22392 0.02425 0.0
C2686 C 0.39184 0.23821 0.01295 0.0
C2687 C 0.39511 0.25494 0.01926 0.0
C2688 C 0.39762 0.26792 0.00437 0.0
C2689 C 0.38318 0.28209 0.00463 0.0
C2690 C 0.41609 0.27621 0.005 0.0
C2691 C 0.3956 0.25584 0.98867 0.0
C2692 C 0.39214 0.23877 0.99386 0.0
C2693 C 0.39039 0.22518 0.98167 0.0
C2694 C 0.3924 0.22912 0.96372 0.0
C2695 C 0.39618 0.2465 0.95812 0.0
C2696 C 0.39759 0.26 0.97085 0.0
H2697 H 0.73306 0.39697 0.04303 0.0
H2698 H 0.78875 0.39478 0.05572 0.0
H2699 H 0.79573 0.39173 0.02413 0.0
H2700 H 0.73427 0.36587 0.00588 0.0
H2701 H 0.71829 0.37824 0.99348 0.0
H2702 H 0.71764 0.37846 0.01718 0.0
H2703 H 0.71932 0.4125 0.01694 0.0
H2704 H 0.72002 0.41239 0.99329 0.0
H2705 H 0.7372 0.42318 0.0056 0.0
H2706 H 0.79672 0.39144 0.99092 0.0
H2707 H 0.79167 0.39387 0.95892 0.0
H2708 H 0.73531 0.39624 0.96813 0.0
C2709 C 0.74672 0.39553 0.03925 0.0
C2710 C 0.76035 0.39605 0.05193 0.0
C2711 C 0.77806 0.39435 0.0463 0.0
C2712 C 0.78216 0.39259 0.02837 0.0
C2713 C 0.76841 0.39246 0.01622 0.0
C2714 C 0.75104 0.39379 0.02144 0.0
C2715 C 0.73877 0.39436 0.00574 0.0
C2716 C 0.72652 0.37827 0.00556 0.0
C2717 C 0.72821 0.41164 0.00538 0.0
C2718 C 0.75197 0.39356 0.99084 0.0
C2719 C 0.76899 0.39231 0.99714 0.0
C2720 C 0.78344 0.39222 0.98585 0.0
C2721 C 0.78042 0.39363 0.96768 0.0
C2722 C 0.76308 0.39518 0.96095 0.0
C2723 C 0.74872 0.3949 0.97277 0.0
H2724 H 0.60757 0.27102 0.96612 0.0
H2725 H 0.61517 0.21564 0.95438 0.0
H2726 H 0.61738 0.20933 0.98621 0.0
H2727 H 0.63715 0.27309 0.00406 0.0
H2728 H 0.62305 0.2881 0.01582 0.0
H2729 H 0.62345 0.28833 0.99212 0.0
H2730 H 0.58967 0.28361 0.99146 0.0
H2731 H 0.58916 0.28333 0.01512 0.0
H2732 H 0.58028 0.26507 1.00287 0.0
H2733 H 0.61687 0.20893 0.0196 0.0
H2734 H 0.61359 0.21444 0.05148 0.0
H2735 H 0.60628 0.27009 0.04095 0.0
C2736 C 0.60994 0.25757 0.97017 0.0
C2737 C 0.61125 0.24383 0.95768 0.0
C2738 C 0.61418 0.22642 0.96365 0.0
C2739 C 0.61547 0.2227 0.98172 0.0
C2740 C 0.61388 0.23655 0.99365 0.0
C2741 C 0.61124 0.25364 0.98809 0.0
C2742 C 0.60915 0.26607 1.00352 0.0
C2743 C 0.62409 0.2797 1.0039 0.0
C2744 C 0.59099 0.27504 1.00322 0.0
C2745 C 0.61068 0.25326 0.01867 0.0
C2746 C 0.61354 0.23631 0.01275 0.0
C2747 C 0.61478 0.22218 0.02437 0.0
C2748 C 0.61289 0.22545 0.04247 0.0
C2749 C 0.60971 0.24271 0.04879 0.0
C2750 C 0.6088 0.25675 0.03664 0.0
H2751 H 0.73917 0.61478 0.04161 0.0
H2752 H 0.7953 0.61299 0.05222 0.0
H2753 H 0.80129 0.61493 0.02033 0.0
H2754 H 0.73994 0.58762 0.00462 0.0
H2755 H 0.72313 0.59941 0.99276 0.0
H2756 H 0.72335 0.5998 0.01642 0.0
H2757 H 0.72418 0.63387 0.01601 0.0
H2758 H 0.72391 0.6336 0.99231 0.0
H2759 H 0.74123 0.64499 1.00384 0.0
H2760 H 0.80101 0.61468 0.987 0.0
H2761 H 0.79449 0.61205 0.95526 0.0
H2762 H 0.73854 0.61391 0.96677 0.0
C2763 C 0.75275 0.61512 0.03731 0.0
C2764 C 0.76676 0.61381 0.04949 0.0
C2765 C 0.78432 0.61405 0.04319 0.0
C2766 C 0.78786 0.61517 0.02508 0.0
C2767 C 0.77371 0.61613 0.01343 0.0
C2768 C 0.75651 0.61619 0.01932 0.0
C2769 C 0.74363 0.61624 0.00412 0.0
C2770 C 0.73183 0.59979 0.00451 0.0
C2771 C 0.73259 0.63318 0.00407 0.0
C2772 C 0.75625 0.61578 0.98873 0.0
C2773 C 0.77355 0.6159 0.99433 0.0
C2774 C 0.78751 0.61477 0.98247 0.0
C2775 C 0.78366 0.61327 0.96445 0.0
C2776 C 0.76599 0.61282 0.95845 0.0
C2777 C 0.75219 0.61435 0.97084 0.0
H2778 H 0.39736 0.73529 0.96534 0.0
H2779 H 0.38973 0.79042 0.95259 0.0
H2780 H 0.38677 0.79724 0.98423 0.0
H2781 H 0.36686 0.73385 1.00287 0.0
H2782 H 0.38076 0.71909 0.01515 0.0
H2783 H 0.38076 0.71839 0.99145 0.0
H2784 H 0.41454 0.7231 0.9913 0.0
H2785 H 0.41465 0.72386 0.01496 0.0
H2786 H 0.42372 0.74188 1.00251 0.0
H2787 H 0.38716 0.79836 0.01748 0.0
H2788 H 0.39026 0.79359 0.04948 0.0
H2789 H 0.39725 0.73767 0.04031 0.0
C2790 C 0.39479 0.74877 0.96913 0.0
C2791 C 0.39375 0.76231 0.95641 0.0
C2792 C 0.39052 0.77979 0.96204 0.0
C2793 C 0.38881 0.7838 0.98 0.0
C2794 C 0.39023 0.77018 0.99219 0.0
C2795 C 0.39302 0.75299 0.98697 0.0
C2796 C 0.39486 0.74088 1.00268 0.0
C2797 C 0.37992 0.72725 1.00306 0.0
C2798 C 0.41302 0.73191 1.00287 0.0
C2799 C 0.39306 0.75398 0.01758 0.0
C2800 C 0.3903 0.7708 0.01128 0.0
C2801 C 0.38911 0.78521 0.02256 0.0
C2802 C 0.39092 0.78237 0.04073 0.0
C2803 C 0.3939 0.76524 0.04747 0.0
C2804 C 0.39476 0.75089 0.03565 0.0
H2805 H 0.27381 0.39839 0.04067 0.0
H2806 H 0.21794 0.39319 0.05145 0.0
H2807 H 0.21215 0.39031 0.01956 0.0
H2808 H 0.26945 0.42506 1.0035 0.0
H2809 H 0.28763 0.41542 0.9917 0.0
H2810 H 0.28749 0.41522 0.01536 0.0
H2811 H 0.29106 0.38131 0.01522 0.0
H2812 H 0.29126 0.38141 0.99151 0.0
H2813 H 0.27557 0.36799 1.00316 0.0
H2814 H 0.21238 0.39003 0.98615 0.0
H2815 H 0.21856 0.39292 0.95434 0.0
H2816 H 0.27423 0.3987 0.96588 0.0
C2817 C 0.26036 0.39633 0.03641 0.0
C2818 C 0.24634 0.39593 0.04863 0.0
C2819 C 0.22892 0.39348 0.04238 0.0
C2820 C 0.22551 0.3918 0.02428 0.0
C2821 C 0.23964 0.39256 0.01259 0.0
C2822 C 0.25672 0.39472 0.01844 0.0
C2823 C 0.26948 0.3962 1.00323 0.0
C2824 C 0.27907 0.41403 1.00347 0.0
C2825 C 0.28262 0.38081 1.00329 0.0
C2826 C 0.25689 0.39489 0.98786 0.0
C2827 C 0.23975 0.3926 0.99349 0.0
C2828 C 0.22578 0.39167 0.98161 0.0
C2829 C 0.22943 0.39332 0.96355 0.0
C2830 C 0.24689 0.39602 0.95755 0.0
C2831 C 0.26074 0.39658 0.96996 0.0
H2832 H 0.04251 0.60424 0.7818 0.0
H2833 H 0.05219 0.63302 0.73351 0.0
H2834 H 0.02052 0.63935 0.73085 0.0
H2835 H 0.00479 0.58321 0.76708 0.0
H2836 H 0.99291 0.58387 0.7876 0.0
H2837 H 0.01659 0.58407 0.78765 0.0
H2838 H 0.01647 0.6129 0.80579 0.0
H2839 H 0.99273 0.61276 0.80585 0.0
H2840 H 0.00446 0.63171 0.79775 0.0
H2841 H 0.98824 0.63925 0.73088 0.0
H2842 H 0.95662 0.63268 0.73359 0.0
H2843 H 0.96661 0.60398 0.78187 0.0
C2844 C 0.03796 0.61234 0.77101 0.0
C2845 C 0.04979 0.61832 0.75795 0.0
C2846 C 0.04334 0.62839 0.74368 0.0
C2847 C 0.02539 0.63212 0.7421 0.0
C2848 C 0.01397 0.62566 0.75487 0.0
C2849 C 0.01991 0.61602 0.7691 0.0
C2850 C 0.00453 0.60909 0.77985 0.0
C2851 C 0.00472 0.58886 0.78058 0.0
C2852 C 0.00455 0.6171 0.79841 0.0
C2853 C 0.9891 0.61586 0.76908 0.0
C2854 C 0.99494 0.62557 0.75487 0.0
C2855 C 0.98345 0.63197 0.74213 0.0
C2856 C 0.96553 0.62812 0.74374 0.0
C2857 C 0.95918 0.61801 0.75803 0.0
C2858 C 0.97108 0.61211 0.77107 0.0
H2859 H 0.39864 0.96448 0.73405 0.0
H2860 H 0.39355 0.95231 0.78963 0.0
H2861 H 0.39074 0.98402 0.79622 0.0
H2862 H 0.42504 1.00197 0.73908 0.0
H2863 H 0.41505 0.01407 0.7213 0.0
H2864 H 0.41518 0.99042 0.72086 0.0
H2865 H 0.38122 0.99018 0.7176 0.0
H2866 H 0.38099 0.01387 0.718 0.0
H2867 H 0.36788 1.00164 0.73351 0.0
H2868 H 0.39074 0.01731 0.7969 0.0
H2869 H 0.3932 0.04927 0.79157 0.0
H2870 H 0.39795 0.03939 0.73551 0.0
C2871 C 0.39669 0.96841 0.74761 0.0
C2872 C 0.39629 0.95584 0.76132 0.0
C2873 C 0.39385 0.96164 0.77887 0.0
C2874 C 0.39223 0.97964 0.78276 0.0
C2875 C 0.39295 0.99168 0.76894 0.0
C2876 C 0.39503 0.98627 0.7517 0.0
C2877 C 0.39616 1.00183 0.73932 0.0
C2878 C 0.41392 1.00208 0.72958 0.0
C2879 C 0.38064 1.00188 0.72634 0.0
C2880 C 0.39477 0.01687 0.75231 0.0
C2881 C 0.39282 0.01077 0.76931 0.0
C2882 C 0.39207 0.02223 0.78361 0.0
C2883 C 0.3935 0.04038 0.78045 0.0
C2884 C 0.39568 0.04691 0.76312 0.0
C2885 C 0.3961 0.0349 0.7489 0.0
H2886 H 0.04364 0.39988 0.73572 0.0
H2887 H 0.05542 0.3887 0.79048 0.0
H2888 H 0.02362 0.3852 0.79646 0.0
H2889 H 0.00636 0.42573 0.74337 0.0
H2890 H 0.99433 0.41791 0.72449 0.0
H2891 H 0.018 0.41789 0.72425 0.0
H2892 H 0.01803 0.38453 0.71721 0.0
H2893 H 0.99431 0.38446 0.71738 0.0
H2894 H 0.00632 0.36959 0.73142 0.0
H2895 H 0.9902 0.3851 0.79679 0.0
H2896 H 0.95828 0.38842 0.79146 0.0
H2897 H 0.96883 0.39965 0.73646 0.0
C2898 C 0.03962 0.39643 0.74894 0.0
C2899 C 0.0521 0.39452 0.76262 0.0
C2900 C 0.04616 0.39017 0.77975 0.0
C2901 C 0.02811 0.38814 0.78328 0.0
C2902 C 0.01617 0.3904 0.76952 0.0
C2903 C 0.02172 0.39437 0.75268 0.0
C2904 C 0.00629 0.39703 0.74037 0.0
C2905 C 0.00625 0.41575 0.73268 0.0
C2906 C 0.00624 0.38307 0.72573 0.0
C2907 C 0.99113 0.39431 0.75299 0.0
C2908 C 0.99706 0.39036 0.76971 0.0
C2909 C 0.98543 0.38801 0.7837 0.0
C2910 C 0.9673 0.38994 0.78054 0.0
C2911 C 0.96097 0.39425 0.76353 0.0
C2912 C 0.97314 0.39622 0.74959 0.0
H2913 H 0.60972 0.96587 0.73613 0.0
H2914 H 0.61282 0.95453 0.79202 0.0
H2915 H 0.61531 0.98635 0.79824 0.0
H2916 H 0.6404 1.00298 0.73612 0.0
H2917 H 0.62786 0.01495 0.71995 0.0
H2918 H 0.62764 0.99125 0.71993 0.0
H2919 H 0.59358 0.99153 0.72195 0.0
H2920 H 0.59369 0.01518 0.72201 0.0
H2921 H 0.58307 1.00338 0.73961 0.0
H2922 H 0.61533 0.01973 0.79838 0.0
H2923 H 0.61311 0.05162 0.79238 0.0
H2924 H 0.61031 0.04067 0.73638 0.0
C2925 C 0.61114 0.97 0.74969 0.0
C2926 C 0.61109 0.95764 0.76358 0.0
C2927 C 0.61288 0.96371 0.78113 0.0
C2928 C 0.61432 0.98177 0.7848 0.0
C2929 C 0.61407 0.99359 0.77078 0.0
C2930 C 0.61262 0.98792 0.75357 0.0
C2931 C 0.61193 1.00325 0.7409 0.0
C2932 C 0.62791 1.0031 0.72849 0.0
C2933 C 0.59454 1.00333 0.73052 0.0
C2934 C 0.61285 0.01849 0.75368 0.0
C2935 C 0.61419 0.01269 0.77085 0.0
C2936 C 0.61447 0.02441 0.78496 0.0
C2937 C 0.61319 0.04251 0.78142 0.0
C2938 C 0.61161 0.04871 0.7639 0.0
C2939 C 0.61167 0.03644 0.74991 0.0
H2940 H 0.96706 0.39439 0.26827 0.0
H2941 H 0.95599 0.3961 0.21226 0.0
H2942 H 0.98784 0.39371 0.20602 0.0
H2943 H 1.00413 0.42112 0.26719 0.0
H2944 H 0.01605 0.40929 0.28393 0.0
H2945 H 0.99239 0.40904 0.28388 0.0
H2946 H 0.99261 0.37496 0.28308 0.0
H2947 H 0.01633 0.3751 0.28319 0.0
H2948 H 0.00463 0.36374 0.26598 0.0
H2949 H 0.02126 0.39386 0.20608 0.0
H2950 H 0.05306 0.39655 0.21244 0.0
H2951 H 0.04182 0.39479 0.26841 0.0
C2952 C 0.97124 0.39393 0.25466 0.0
C2953 C 0.95895 0.39537 0.24076 0.0
C2954 C 0.9651 0.39493 0.22315 0.0
C2955 C 0.98318 0.39355 0.21948 0.0
C2956 C 0.99495 0.39253 0.23353 0.0
C2957 C 0.98918 0.39259 0.25077 0.0
C2958 C 0.00447 0.39249 0.26354 0.0
C2959 C 1.00424 0.40897 0.27532 0.0
C2960 C 0.00451 0.37556 0.2746 0.0
C2961 C 0.01978 0.39283 0.25082 0.0
C2962 C 0.01407 0.39266 0.23356 0.0
C2963 C 0.02587 0.39378 0.21955 0.0
C2964 C 0.04392 0.39532 0.2233 0.0
C2965 C 0.05001 0.39583 0.24093 0.0
C2966 C 0.03769 0.3943 0.25478 0.0
H2967 H 0.60344 0.03956 0.22888 0.0
H2968 H 0.63006 0.05042 0.27824 0.0
H2969 H 0.63571 0.01881 0.28219 0.0
H2970 H 0.58135 1.00225 0.24327 0.0
H2971 H 0.58318 0.98998 0.22306 0.0
H2972 H 0.58339 0.01363 0.22257 0.0
H2973 H 0.61324 0.01316 0.20612 0.0
H2974 H 0.61309 0.98945 0.20651 0.0
H2975 H 0.63156 1.00134 0.21546 0.0
H2976 H 0.63524 0.98645 0.28298 0.0
H2977 H 0.62903 0.95476 0.28032 0.0
H2978 H 0.60316 0.96387 0.23027 0.0
C2979 C 0.61087 0.0353 0.24026 0.0
C2980 C 0.61639 0.04749 0.25322 0.0
C2981 C 0.6257 0.04136 0.26815 0.0
C2982 C 0.62906 0.02342 0.27048 0.0
C2983 C 0.62307 0.0117 0.25774 0.0
C2984 C 0.61426 0.01732 0.24286 0.0
C2985 C 0.60794 1.00176 0.23203 0.0
C2986 C 0.58777 1.00192 0.23013 0.0
C2987 C 0.617 1.00141 0.21396 0.0
C2988 C 0.61408 0.98658 0.24346 0.0
C2989 C 0.62293 0.9927 0.25813 0.0
C2990 C 0.62863 0.98145 0.2714 0.0
C2991 C 0.62498 0.96349 0.26981 0.0
C2992 C 0.6158 0.95688 0.25502 0.0
C2993 C 0.61058 0.96854 0.2415 0.0
H2994 H 0.04203 0.60372 0.226 0.0
H2995 H 0.05261 0.63622 0.27173 0.0
H2996 H 0.02096 0.64263 0.27454 0.0
H2997 H 1.00399 0.62995 0.20866 0.0
H2998 H 0.99211 0.61049 0.20212 0.0
H2999 H 0.01584 0.61055 0.20191 0.0
H3000 H 0.0161 0.58314 0.22213 0.0
H3001 H 0.99243 0.58304 0.22246 0.0
H3002 H 0.00454 0.58387 0.24283 0.0
H3003 H 0.9885 0.64263 0.27489 0.0
H3004 H 0.95681 0.63619 0.2728 0.0
H3005 H 0.96635 0.60371 0.22682 0.0
C3006 C 0.0377 0.61259 0.23627 0.0
C3007 C 0.0498 0.6196 0.24857 0.0
C3008 C 0.04359 0.63075 0.26214 0.0
C3009 C 0.02564 0.63453 0.2638 0.0
C3010 C 0.014 0.62708 0.25178 0.0
C3011 C 0.01971 0.61639 0.23822 0.0
C3012 C 1.00421 0.60873 0.22819 0.0
C3013 C 1.00403 0.61533 0.20908 0.0
C3014 C 0.00433 0.5885 0.22896 0.0
C3015 C 0.98894 0.61634 0.2386 0.0
C3016 C 0.99496 0.62706 0.252 0.0
C3017 C 0.98359 0.63452 0.26427 0.0
C3018 C 0.96561 0.63073 0.26301 0.0
C3019 C 0.95911 0.61958 0.24957 0.0
C3020 C 0.97091 0.61259 0.23699 0.0
H3021 H 0.40202 0.04098 0.22993 0.0
H3022 H 0.37822 0.05141 0.2808 0.0
H3023 H 0.37291 0.01975 0.28483 0.0
H3024 H 0.37319 1.00305 0.21779 0.0
H3025 H 0.39106 0.99119 0.20767 0.0
H3026 H 0.39101 0.0149 0.20757 0.0
H3027 H 0.42175 0.01503 0.22231 0.0
H3028 H 0.42187 0.99137 0.22252 0.0
H3029 H 0.4249 1.00339 0.24273 0.0
H3030 H 0.37323 0.98732 0.2852 0.0
H3031 H 0.37873 0.9556 0.28162 0.0
H3032 H 0.40192 0.96528 0.23036 0.0
C3033 C 0.39529 0.03662 0.24169 0.0
C3034 C 0.39047 0.0487 0.25502 0.0
C3035 C 0.38204 0.04243 0.27041 0.0
C3036 C 0.37889 0.02446 0.2728 0.0
C3037 C 0.38418 0.01286 0.25967 0.0
C3038 C 0.39211 0.01862 0.24435 0.0
C3039 C 0.39772 1.00316 0.23299 0.0
C3040 C 0.38764 1.00307 0.21546 0.0
C3041 C 0.41775 1.00325 0.22997 0.0
C3042 C 0.39216 0.98787 0.24458 0.0
C3043 C 0.38424 0.99384 0.25982 0.0
C3044 C 0.37914 0.98244 0.2732 0.0
C3045 C 0.38239 0.96445 0.27107 0.0
C3046 C 0.39062 0.95797 0.25566 0.0
C3047 C 0.39528 0.96983 0.24211 0.0
H3048 H 0.73849 0.03983 0.61105 0.0
H3049 H 0.79431 0.05196 0.61256 0.0
H3050 H 0.80102 0.02027 0.61545 0.0
H3051 H 0.73972 1.00325 0.64234 0.0
H3052 H 0.72339 0.99086 0.63041 0.0
H3053 H 0.72306 0.01455 0.6298 0.0
H3054 H 0.72426 0.01372 0.59573 0.0
H3055 H 0.72462 0.99007 0.59623 0.0
H3056 H 0.74181 1.00191 0.58499 0.0
H3057 H 0.80158 0.98686 0.61603 0.0
H3058 H 0.79594 0.95487 0.61443 0.0
H3059 H 0.73973 0.96506 0.61285 0.0
C3060 C 0.75214 0.0359 0.61221 0.0
C3061 C 0.76587 0.04845 0.61159 0.0
C3062 C 0.78354 0.04264 0.61305 0.0
C3063 C 0.78749 0.02465 0.61472 0.0
C3064 C 0.77362 0.01264 0.61502 0.0
C3065 C 0.7563 0.01806 0.61391 0.0
C3066 C 0.74381 1.00255 0.61378 0.0
C3067 C 0.73179 1.00283 0.63005 0.0
C3068 C 0.733 1.00204 0.59667 0.0
C3069 C 0.75681 0.9875 0.61464 0.0
C3070 C 0.77394 0.99354 0.61546 0.0
C3071 C 0.78821 0.98199 0.61558 0.0
C3072 C 0.78486 0.96383 0.61465 0.0
C3073 C 0.76739 0.95738 0.61359 0.0
C3074 C 0.75324 0.96947 0.61382 0.0
H3075 H 0.73229 0.04034 0.39958 0.0
H3076 H 0.78787 0.05163 0.39259 0.0
H3077 H 0.79388 0.01982 0.38972 0.0
H3078 H 0.73767 1.00299 0.42604 0.0
H3079 H 0.71938 0.99105 0.41678 0.0
H3080 H 0.71927 0.01471 0.41671 0.0
H3081 H 0.71485 0.01469 0.38291 0.0
H3082 H 0.71491 0.99099 0.38287 0.0
H3083 H 0.73014 1.0029 0.36913 0.0
H3084 H 0.79408 0.9866 0.38985 0.0
H3085 H 0.78847 0.95477 0.39289 0.0
H3086 H 0.73271 0.96535 0.39958 0.0
C3087 C 0.74571 0.0362 0.39719 0.0
C3088 C 0.7596 0.04856 0.39627 0.0
C3089 C 0.77699 0.04247 0.39329 0.0
C3090 C 0.78053 0.02441 0.39162 0.0
C3091 C 0.76655 0.0126 0.39285 0.0
C3092 C 0.74947 0.01826 0.39548 0.0
C3093 C 0.73692 1.00287 0.39718 0.0
C3094 C 0.72778 1.00292 0.41525 0.0
C3095 C 0.72341 1.00287 0.38212 0.0
C3096 C 0.74964 0.98764 0.39548 0.0
C3097 C 0.76666 0.99351 0.39286 0.0
C3098 C 0.78078 0.98187 0.39171 0.0
C3099 C 0.77745 0.96379 0.39348 0.0
C3100 C 0.76013 0.95748 0.3964 0.0
C3101 C 0.74607 0.96966 0.39716 0.0
H3102 H 0.96702 0.73386 0.40194 0.0
H3103 H 0.95628 0.78892 0.39125 0.0
H3104 H 0.98815 0.79442 0.38809 0.0
H3105 H 0.0046 0.74075 0.42809 0.0
H3106 H 0.01635 0.72177 0.42009 0.0
H3107 H 0.99266 0.72188 0.4201 0.0
H3108 H 0.99249 0.7151 0.38669 0.0
H3109 H 0.01621 0.71493 0.38658 0.0
H3110 H 0.00439 0.72926 0.37185 0.0
H3111 H 0.02139 0.79427 0.3879 0.0
H3112 H 0.05325 0.78848 0.39075 0.0
H3113 H 0.04213 0.73352 0.4016 0.0
C3114 C 0.9713 0.74704 0.39869 0.0
C3115 C 0.95907 0.76094 0.39679 0.0
C3116 C 0.96534 0.77803 0.39273 0.0
C3117 C 0.98344 0.78129 0.39088 0.0
C3118 C 0.99513 0.76733 0.39308 0.0
C3119 C 0.9893 0.75053 0.39684 0.0
C3120 C 0.00459 0.73799 0.39936 0.0
C3121 C 0.00454 0.73015 0.41802 0.0
C3122 C 0.0044 0.72346 0.38527 0.0
C3123 C 0.01995 0.75041 0.39673 0.0
C3124 C 0.01423 0.76724 0.393 0.0
C3125 C 0.02602 0.78109 0.39067 0.0
C3126 C 0.04411 0.77767 0.39233 0.0
C3127 C 0.05027 0.76053 0.39635 0.0
C3128 C 0.03793 0.74674 0.39839 0.0
H3129 H 0.27519 0.04006 0.4017 0.0
H3130 H 0.22007 0.05089 0.39118 0.0
H3131 H 0.21448 0.01902 0.38814 0.0
H3132 H 0.2796 1.00268 0.37168 0.0
H3133 H 0.294 0.99089 0.38638 0.0
H3134 H 0.29385 0.01459 0.38645 0.0
H3135 H 0.28721 0.0145 0.41989 0.0
H3136 H 0.28731 0.99084 0.41992 0.0
H3137 H 0.26835 1.0026 0.42797 0.0
H3138 H 0.21461 0.98574 0.38802 0.0
H3139 H 0.22042 0.95392 0.39088 0.0
H3140 H 0.27547 0.96505 0.40149 0.0
C3141 C 0.26197 0.0358 0.39852 0.0
C3142 C 0.24808 0.04805 0.39662 0.0
C3143 C 0.23095 0.04181 0.39264 0.0
C3144 C 0.22764 0.02372 0.39087 0.0
C3145 C 0.2416 0.01201 0.39305 0.0
C3146 C 0.25844 0.01782 0.39673 0.0
C3147 C 0.27099 1.00254 0.39923 0.0
C3148 C 0.28546 1.00269 0.38509 0.0
C3149 C 0.27893 1.00263 0.41786 0.0
C3150 C 0.25855 0.9872 0.39668 0.0
C3151 C 0.24168 0.99292 0.39301 0.0
C3152 C 0.22781 0.98113 0.39074 0.0
C3153 C 0.23125 0.96306 0.39241 0.0
C3154 C 0.24842 0.9569 0.39636 0.0
C3155 C 0.26222 0.96924 0.39833 0.0
H3156 H 0.0415 0.26665 0.39408 0.0
H3157 H 0.0528 0.21068 0.39506 0.0
H3158 H 0.02099 0.20433 0.39268 0.0
H3159 H 1.00426 0.26504 0.42079 0.0
H3160 H 0.99231 0.28186 0.40911 0.0
H3161 H 0.01598 0.28193 0.40898 0.0
H3162 H 0.01592 0.28158 0.37488 0.0
H3163 H 0.9922 0.28156 0.37491 0.0
H3164 H 1.00406 0.26456 0.36339 0.0
H3165 H 0.98761 0.20421 0.39274 0.0
H3166 H 0.95575 0.21034 0.39518 0.0
H3167 H 0.96667 0.26639 0.39412 0.0
C3168 C 0.03737 0.25303 0.39348 0.0
C3169 C 0.04972 0.23917 0.3947 0.0
C3170 C 0.04364 0.22155 0.39407 0.0
C3171 C 0.02558 0.2178 0.3927 0.0
C3172 C 0.01376 0.23181 0.39187 0.0
C3173 C 0.01944 0.24907 0.39213 0.0
C3174 C 1.00408 0.26176 0.39211 0.0
C3175 C 1.00417 0.27332 0.40874 0.0
C3176 C 1.00407 0.27303 0.37532 0.0
C3177 C 0.98884 0.24896 0.39221 0.0
C3178 C 0.99464 0.23174 0.39191 0.0
C3179 C 0.98292 0.21765 0.39277 0.0
C3180 C 0.96483 0.22127 0.39418 0.0
C3181 C 0.95863 0.23885 0.39478 0.0
C3182 C 0.97088 0.25279 0.39353 0.0
H3183 H 0.27331 0.03897 0.60649 0.0
H3184 H 0.21804 0.04943 0.6166 0.0
H3185 H 0.21261 0.01753 0.61941 0.0
H3186 H 0.26689 1.00163 0.57993 0.0
H3187 H 0.28584 0.98992 0.58806 0.0
H3188 H 0.28562 0.01358 0.58824 0.0
H3189 H 0.29199 0.01353 0.62174 0.0
H3190 H 0.29227 0.98983 0.62166 0.0
H3191 H 0.27769 1.00146 0.63631 0.0
H3192 H 0.21292 0.98426 0.61932 0.0
H3193 H 0.21894 0.95247 0.6163 0.0
H3194 H 0.274 0.964 0.60623 0.0
C3195 C 0.26009 0.03462 0.60953 0.0
C3196 C 0.24612 0.04678 0.61137 0.0
C3197 C 0.22899 0.04042 0.61518 0.0
C3198 C 0.22577 0.02231 0.61682 0.0
C3199 C 0.23981 0.0107 0.61469 0.0
C3200 C 0.25664 0.01662 0.61119 0.0
C3201 C 0.2693 1.00143 0.60869 0.0
C3202 C 0.27738 1.00166 0.59013 0.0
C3203 C 0.28366 1.00157 0.62295 0.0
C3204 C 0.25691 0.98602 0.61105 0.0
C3205 C 0.23998 0.99161 0.61461 0.0
C3206 C 0.22616 0.97973 0.61668 0.0
C3207 C 0.22972 0.96169 0.61493 0.0
C3208 C 0.24696 0.95567 0.61108 0.0
C3209 C 0.2607 0.96809 0.60931 0.0
H3210 H 0.9663 0.27257 0.61165 0.0
H3211 H 0.9551 0.21673 0.61578 0.0
H3212 H 0.98691 0.21068 0.61876 0.0
H3213 H 1.00366 0.2685 0.58522 0.0
H3214 H 0.01558 0.28635 0.59532 0.0
H3215 H 0.9919 0.28642 0.59539 0.0
H3216 H 0.99189 0.28928 0.62936 0.0
H3217 H 0.01561 0.28926 0.6294 0.0
H3218 H 1.00372 0.27341 0.64242 0.0
H3219 H 0.02016 0.21057 0.61884 0.0
H3220 H 0.052 0.21636 0.61593 0.0
H3221 H 0.04128 0.2723 0.61173 0.0
C3222 C 0.97046 0.25908 0.6135 0.0
C3223 C 0.95813 0.24513 0.61355 0.0
C3224 C 0.96424 0.22766 0.61576 0.0
C3225 C 0.9823 0.22409 0.61749 0.0
C3226 C 0.99409 0.23813 0.61707 0.0
C3227 C 0.9884 0.25529 0.6152 0.0
C3228 C 1.00377 0.26793 0.61409 0.0
C3229 C 1.00372 0.27788 0.59645 0.0
C3230 C 1.00374 0.28072 0.62975 0.0
C3231 C 0.01903 0.25517 0.6152 0.0
C3232 C 0.01319 0.23806 0.61708 0.0
C3233 C 0.02487 0.22394 0.61757 0.0
C3234 C 0.04295 0.22737 0.61588 0.0
C3235 C 0.04921 0.2448 0.61366 0.0
C3236 C 0.03701 0.25884 0.61358 0.0
H3237 H 0.04172 0.73094 0.6076 0.0
H3238 H 0.05271 0.78606 0.61771 0.0
H3239 H 0.02084 0.79173 0.62091 0.0
H3240 H 1.00423 0.73761 0.58148 0.0
H3241 H 0.99244 0.71876 0.5897 0.0
H3242 H 0.01611 0.71881 0.5897 0.0
H3243 H 0.01626 0.71247 0.6232 0.0
H3244 H 0.99254 0.71236 0.6233 0.0
H3245 H 0.00439 0.72686 0.63786 0.0
H3246 H 0.98744 0.79167 0.62103 0.0
H3247 H 0.95556 0.78586 0.6181 0.0
H3248 H 0.96677 0.73078 0.60795 0.0
C3249 C 0.0375 0.74418 0.61074 0.0
C3250 C 0.0498 0.75804 0.61245 0.0
C3251 C 0.0436 0.77519 0.61639 0.0
C3252 C 0.0255 0.77854 0.61825 0.0
C3253 C 0.01375 0.76461 0.61621 0.0
C3254 C 0.01953 0.74775 0.61262 0.0
C3255 C 1.00422 0.73522 0.61024 0.0
C3256 C 1.00426 0.72713 0.59168 0.0
C3257 C 0.00437 0.72088 0.6245 0.0
C3258 C 0.9889 0.74771 0.61271 0.0
C3259 C 0.99463 0.76458 0.61627 0.0
C3260 C 0.98282 0.77847 0.61841 0.0
C3261 C 0.96472 0.77503 0.6167 0.0
C3262 C 0.95858 0.75785 0.61284 0.0
C3263 C 0.97094 0.74404 0.61103 0.0
loop_
_geom_bond_atom_site_label_1
_geom_bond_atom_site_label_2
_geom_bond_distance
_geom_bond_site_symmetry_2
_ccdc_geom_bond_type
O0 Cd1 2.223 . S
O0 C8 1.315 . S
Cd1 O0 2.223 . S
Cd1 O4 2.297 . S
Cd1 O5 2.439 . S
Cd1 O11 2.240 . S
Cd2 O3 2.240 . S
Cd2 O10 2.223 . S
Cd2 O12 2.297 . S
Cd2 O13 2.439 . S
O3 Cd2 2.240 . S
O3 C8 1.279 . S
O4 Cd1 2.297 . S
O4 C6 1.247 . S
O5 Cd1 2.439 . S
O5 C6 1.208 . S
C6 O4 1.247 . S
C6 O5 1.208 . S
C7 O12 1.247 . S
C7 O13 1.208 . S
C8 O0 1.315 . S
C8 O3 1.279 . S
C9 O10 1.315 . S
C9 O11 1.279 . S
O10 Cd2 2.223 . S
O10 C9 1.315 . S
O11 Cd1 2.240 . S
O11 C9 1.279 . S
O12 Cd2 2.297 . S
O12 C7 1.247 . S
O13 Cd2 2.439 . S
O13 C7 1.208 . S
O14 Cd15 2.223 . S
O14 C22 1.315 . S
Cd15 O14 2.223 . S
Cd15 O18 2.297 . S
Cd15 O19 2.439 . S
Cd15 O25 2.240 . S
Cd16 O17 2.240 . S
Cd16 O24 2.223 . S
Cd16 O26 2.297 . S
Cd16 O27 2.439 . S
O17 Cd16 2.240 . S
O17 C22 1.279 . S
O18 Cd15 2.297 . S
O18 C20 1.247 . S
O19 Cd15 2.439 . S
O19 C20 1.208 . S
C20 O18 1.247 . S
C20 O19 1.208 . S
C21 O26 1.247 . S
C21 O27 1.208 . S
C22 O14 1.315 . S
C22 O17 1.279 . S
C23 O24 1.315 . S
C23 O25 1.279 . S
O24 Cd16 2.223 . S
O24 C23 1.315 . S
O25 Cd15 2.240 . S
O25 C23 1.279 . S
O26 Cd16 2.297 . S
O26 C21 1.247 . S
O27 Cd16 2.439 . S
O27 C21 1.208 . S
O28 Cd29 2.223 . S
O28 C36 1.315 . S
Cd29 O28 2.223 . S
Cd29 O32 2.297 . S
Cd29 O33 2.439 . S
Cd29 O39 2.240 . S
Cd30 O31 2.240 . S
Cd30 O38 2.223 . S
Cd30 O40 2.297 . S
Cd30 O41 2.439 . S
O31 Cd30 2.240 . S
O31 C36 1.279 . S
O32 Cd29 2.297 . S
O32 C34 1.247 . S
O33 Cd29 2.439 . S
O33 C34 1.208 . S
C34 O32 1.247 . S
C34 O33 1.208 . S
C35 O40 1.247 . S
C35 O41 1.208 . S
C36 O28 1.315 . S
C36 O31 1.279 . S
C37 O38 1.315 . S
C37 O39 1.279 . S
O38 Cd30 2.223 . S
O38 C37 1.315 . S
O39 Cd29 2.240 . S
O39 C37 1.279 . S
O40 Cd30 2.297 . S
O40 C35 1.247 . S
O41 Cd30 2.439 . S
O41 C35 1.208 . S
O42 Cd43 2.223 . S
O42 C50 1.315 . S
Cd43 O42 2.223 . S
Cd43 O46 2.297 . S
Cd43 O47 2.439 . S
Cd43 O53 2.240 . S
Cd44 O45 2.240 . S
Cd44 O52 2.223 . S
Cd44 O54 2.297 . S
Cd44 O55 2.439 . S
O45 Cd44 2.240 . S
O45 C50 1.279 . S
O46 Cd43 2.297 . S
O46 C48 1.247 . S
O47 Cd43 2.439 . S
O47 C48 1.208 . S
C48 O46 1.247 . S
C48 O47 1.208 . S
C49 O54 1.247 . S
C49 O55 1.208 . S
C50 O42 1.315 . S
C50 O45 1.279 . S
C51 O52 1.315 . S
C51 O53 1.279 . S
O52 Cd44 2.223 . S
O52 C51 1.315 . S
O53 Cd43 2.240 . S
O53 C51 1.279 . S
O54 Cd44 2.297 . S
O54 C49 1.247 . S
O55 Cd44 2.439 . S
O55 C49 1.208 . S
O56 Cd57 2.223 . S
O56 C64 1.315 . S
Cd57 O56 2.223 . S
Cd57 O60 2.297 . S
Cd57 O61 2.439 . S
Cd57 O67 2.240 . S
Cd58 O59 2.240 . S
Cd58 O66 2.223 . S
Cd58 O68 2.297 . S
Cd58 O69 2.439 . S
O59 Cd58 2.240 . S
O59 C64 1.279 . S
O60 Cd57 2.297 . S
O60 C62 1.247 . S
O61 Cd57 2.439 . S
O61 C62 1.208 . S
C62 O60 1.247 . S
C62 O61 1.208 . S
C63 O68 1.247 . S
C63 O69 1.208 . S
C64 O56 1.315 . S
C64 O59 1.279 . S
C65 O66 1.315 . S
C65 O67 1.279 . S
O66 Cd58 2.223 . S
O66 C65 1.315 . S
O67 Cd57 2.240 . S
O67 C65 1.279 . S
O68 Cd58 2.297 . S
O68 C63 1.247 . S
O69 Cd58 2.439 . S
O69 C63 1.208 . S
O70 Cd71 2.223 . S
O70 C78 1.315 . S
Cd71 O70 2.223 . S
Cd71 O74 2.297 . S
Cd71 O75 2.439 . S
Cd71 O81 2.240 . S
Cd72 O73 2.240 . S
Cd72 O80 2.223 . S
Cd72 O82 2.297 . S
Cd72 O83 2.439 . S
O73 Cd72 2.240 . S
O73 C78 1.279 . S
O74 Cd71 2.297 . S
O74 C76 1.247 . S
O75 Cd71 2.439 . S
O75 C76 1.208 . S
C76 O74 1.247 . S
C76 O75 1.208 . S
C77 O82 1.247 . S
C77 O83 1.208 . S
C78 O70 1.315 . S
C78 O73 1.279 . S
C79 O80 1.315 . S
C79 O81 1.279 . S
O80 Cd72 2.223 . S
O80 C79 1.315 . S
O81 Cd71 2.240 . S
O81 C79 1.279 . S
O82 Cd72 2.297 . S
O82 C77 1.247 . S
O83 Cd72 2.439 . S
O83 C77 1.208 . S
O84 Cd85 2.223 . S
O84 C92 1.315 . S
Cd85 O84 2.223 . S
Cd85 O88 2.297 . S
Cd85 O89 2.439 . S
Cd85 O95 2.240 . S
Cd86 O87 2.240 . S
Cd86 O94 2.223 . S
Cd86 O96 2.297 . S
Cd86 O97 2.439 . S
O87 Cd86 2.240 . S
O87 C92 1.279 . S
O88 Cd85 2.297 . S
O88 C90 1.247 . S
O89 Cd85 2.439 . S
O89 C90 1.208 . S
C90 O88 1.247 . S
C90 O89 1.208 . S
C91 O96 1.247 . S
C91 O97 1.208 . S
C92 O84 1.315 . S
C92 O87 1.279 . S
C93 O94 1.315 . S
C93 O95 1.279 . S
O94 Cd86 2.223 . S
O94 C93 1.315 . S
O95 Cd85 2.240 . S
O95 C93 1.279 . S
O96 Cd86 2.297 . S
O96 C91 1.247 . S
O97 Cd86 2.439 . S
O97 C91 1.208 . S
O98 Cd99 2.223 . S
O98 C106 1.315 . S
Cd99 O98 2.223 . S
Cd99 O102 2.297 . S
Cd99 O103 2.439 . S
Cd99 O109 2.240 . S
Cd100 O101 2.240 . S
Cd100 O108 2.223 . S
Cd100 O110 2.297 . S
Cd100 O111 2.439 . S
O101 Cd100 2.240 . S
O101 C106 1.279 . S
O102 Cd99 2.297 . S
O102 C104 1.247 . S
O103 Cd99 2.439 . S
O103 C104 1.208 . S
C104 O102 1.247 . S
C104 O103 1.208 . S
C105 O110 1.247 . S
C105 O111 1.208 . S
C106 O98 1.315 . S
C106 O101 1.279 . S
C107 O108 1.315 . S
C107 O109 1.279 . S
O108 Cd100 2.223 . S
O108 C107 1.315 . S
O109 Cd99 2.240 . S
O109 C107 1.279 . S
O110 Cd100 2.297 . S
O110 C105 1.247 . S
O111 Cd100 2.439 . S
O111 C105 1.208 . S
O112 Cd113 2.223 . S
O112 C120 1.315 . S
Cd113 O112 2.223 . S
Cd113 O116 2.297 . S
Cd113 O117 2.439 . S
Cd113 O123 2.240 . S
Cd114 O115 2.240 . S
Cd114 O122 2.223 . S
Cd114 O124 2.297 . S
Cd114 O125 2.439 . S
O115 Cd114 2.240 . S
O115 C120 1.279 . S
O116 Cd113 2.297 . S
O116 C118 1.247 . S
O117 Cd113 2.439 . S
O117 C118 1.208 . S
C118 O116 1.247 . S
C118 O117 1.208 . S
C119 O124 1.247 . S
C119 O125 1.208 . S
C120 O112 1.315 . S
C120 O115 1.279 . S
C121 O122 1.315 . S
C121 O123 1.279 . S
O122 Cd114 2.223 . S
O122 C121 1.315 . S
O123 Cd113 2.240 . S
O123 C121 1.279 . S
O124 Cd114 2.297 . S
O124 C119 1.247 . S
O125 Cd114 2.439 . S
O125 C119 1.208 . S
O126 Cd127 2.223 . S
O126 C134 1.315 . S
Cd127 O126 2.223 . S
Cd127 O130 2.297 . S
Cd127 O131 2.439 . S
Cd127 O137 2.240 . S
Cd128 O129 2.240 . S
Cd128 O136 2.223 . S
Cd128 O138 2.297 . S
Cd128 O139 2.439 . S
O129 Cd128 2.240 . S
O129 C134 1.279 . S
O130 Cd127 2.297 . S
O130 C132 1.247 . S
O131 Cd127 2.439 . S
O131 C132 1.208 . S
C132 O130 1.247 . S
C132 O131 1.208 . S
C133 O138 1.247 . S
C133 O139 1.208 . S
C134 O126 1.315 . S
C134 O129 1.279 . S
C135 O136 1.315 . S
C135 O137 1.279 . S
O136 Cd128 2.223 . S
O136 C135 1.315 . S
O137 Cd127 2.240 . S
O137 C135 1.279 . S
O138 Cd128 2.297 . S
O138 C133 1.247 . S
O139 Cd128 2.439 . S
O139 C133 1.208 . S
O140 Cd141 2.223 . S
O140 C148 1.315 . S
Cd141 O140 2.223 . S
Cd141 O144 2.297 . S
Cd141 O145 2.439 . S
Cd141 O151 2.240 . S
Cd142 O143 2.240 . S
Cd142 O150 2.223 . S
Cd142 O152 2.297 . S
Cd142 O153 2.439 . S
O143 Cd142 2.240 . S
O143 C148 1.279 . S
O144 Cd141 2.297 . S
O144 C146 1.247 . S
O145 Cd141 2.439 . S
O145 C146 1.208 . S
C146 O144 1.247 . S
C146 O145 1.208 . S
C147 O152 1.247 . S
C147 O153 1.208 . S
C148 O140 1.315 . S
C148 O143 1.279 . S
C149 O150 1.315 . S
C149 O151 1.279 . S
O150 Cd142 2.223 . S
O150 C149 1.315 . S
O151 Cd141 2.240 . S
O151 C149 1.279 . S
O152 Cd142 2.297 . S
O152 C147 1.247 . S
O153 Cd142 2.439 . S
O153 C147 1.208 . S
O154 Cd155 2.223 . S
O154 C162 1.315 . S
Cd155 O154 2.223 . S
Cd155 O158 2.297 . S
Cd155 O159 2.439 . S
Cd155 O165 2.240 . S
Cd156 O157 2.240 . S
Cd156 O164 2.223 . S
Cd156 O166 2.297 . S
Cd156 O167 2.439 . S
O157 Cd156 2.240 . S
O157 C162 1.279 . S
O158 Cd155 2.297 . S
O158 C160 1.247 . S
O159 Cd155 2.439 . S
O159 C160 1.208 . S
C160 O158 1.247 . S
C160 O159 1.208 . S
C161 O166 1.247 . S
C161 O167 1.208 . S
C162 O154 1.315 . S
C162 O157 1.279 . S
C163 O164 1.315 . S
C163 O165 1.279 . S
O164 Cd156 2.223 . S
O164 C163 1.315 . S
O165 Cd155 2.240 . S
O165 C163 1.279 . S
O166 Cd156 2.297 . S
O166 C161 1.247 . S
O167 Cd156 2.439 . S
O167 C161 1.208 . S
O168 Cd169 2.223 . S
O168 C176 1.315 . S
Cd169 O168 2.223 . S
Cd169 O172 2.297 . S
Cd169 O173 2.439 . S
Cd169 O179 2.240 . S
Cd170 O171 2.240 . S
Cd170 O178 2.223 . S
Cd170 O180 2.297 . S
Cd170 O181 2.439 . S
O171 Cd170 2.240 . S
O171 C176 1.279 . S
O172 Cd169 2.297 . S
O172 C174 1.247 . S
O173 Cd169 2.439 . S
O173 C174 1.208 . S
C174 O172 1.247 . S
C174 O173 1.208 . S
C175 O180 1.247 . S
C175 O181 1.208 . S
C176 O168 1.315 . S
C176 O171 1.279 . S
C177 O178 1.315 . S
C177 O179 1.279 . S
O178 Cd170 2.223 . S
O178 C177 1.315 . S
O179 Cd169 2.240 . S
O179 C177 1.279 . S
O180 Cd170 2.297 . S
O180 C175 1.247 . S
O181 Cd170 2.439 . S
O181 C175 1.208 . S
O182 Cd183 2.223 . S
O182 C190 1.315 . S
Cd183 O182 2.223 . S
Cd183 O186 2.297 . S
Cd183 O187 2.439 . S
Cd183 O193 2.240 . S
Cd184 O185 2.240 . S
Cd184 O192 2.223 . S
Cd184 O194 2.297 . S
Cd184 O195 2.439 . S
O185 Cd184 2.240 . S
O185 C190 1.279 . S
O186 Cd183 2.297 . S
O186 C188 1.247 . S
O187 Cd183 2.439 . S
O187 C188 1.208 . S
C188 O186 1.247 . S
C188 O187 1.208 . S
C189 O194 1.247 . S
C189 O195 1.208 . S
C190 O182 1.315 . S
C190 O185 1.279 . S
C191 O192 1.315 . S
C191 O193 1.279 . S
O192 Cd184 2.223 . S
O192 C191 1.315 . S
O193 Cd183 2.240 . S
O193 C191 1.279 . S
O194 Cd184 2.297 . S
O194 C189 1.247 . S
O195 Cd184 2.439 . S
O195 C189 1.208 . S
O196 Cd197 2.223 . S
O196 C204 1.315 . S
Cd197 O196 2.223 . S
Cd197 O200 2.297 . S
Cd197 O201 2.439 . S
Cd197 O207 2.240 . S
Cd198 O199 2.240 . S
Cd198 O206 2.223 . S
Cd198 O208 2.297 . S
Cd198 O209 2.439 . S
O199 Cd198 2.240 . S
O199 C204 1.279 . S
O200 Cd197 2.297 . S
O200 C202 1.247 . S
O201 Cd197 2.439 . S
O201 C202 1.208 . S
C202 O200 1.247 . S
C202 O201 1.208 . S
C203 O208 1.247 . S
C203 O209 1.208 . S
C204 O196 1.315 . S
C204 O199 1.279 . S
C205 O206 1.315 . S
C205 O207 1.279 . S
O206 Cd198 2.223 . S
O206 C205 1.315 . S
O207 Cd197 2.240 . S
O207 C205 1.279 . S
O208 Cd198 2.297 . S
O208 C203 1.247 . S
O209 Cd198 2.439 . S
O209 C203 1.208 . S
O210 Cd211 2.223 . S
O210 C218 1.315 . S
Cd211 O210 2.223 . S
Cd211 O214 2.297 . S
Cd211 O215 2.439 . S
Cd211 O221 2.240 . S
Cd212 O213 2.240 . S
Cd212 O220 2.223 . S
Cd212 O222 2.297 . S
Cd212 O223 2.439 . S
O213 Cd212 2.240 . S
O213 C218 1.279 . S
O214 Cd211 2.297 . S
O214 C216 1.247 . S
O215 Cd211 2.439 . S
O215 C216 1.208 . S
C216 O214 1.247 . S
C216 O215 1.208 . S
C217 O222 1.247 . S
C217 O223 1.208 . S
C218 O210 1.315 . S
C218 O213 1.279 . S
C219 O220 1.315 . S
C219 O221 1.279 . S
O220 Cd212 2.223 . S
O220 C219 1.315 . S
O221 Cd211 2.240 . S
O221 C219 1.279 . S
O222 Cd212 2.297 . S
O222 C217 1.247 . S
O223 Cd212 2.439 . S
O223 C217 1.208 . S
O224 Cd225 2.223 . S
O224 C232 1.315 . S
Cd225 O224 2.223 . S
Cd225 O228 2.297 . S
Cd225 O229 2.439 . S
Cd225 O235 2.240 . S
Cd226 O227 2.240 . S
Cd226 O234 2.223 . S
Cd226 O236 2.297 . S
Cd226 O237 2.439 . S
O227 Cd226 2.240 . S
O227 C232 1.279 . S
O228 Cd225 2.297 . S
O228 C230 1.247 . S
O229 Cd225 2.439 . S
O229 C230 1.208 . S
C230 O228 1.247 . S
C230 O229 1.208 . S
C231 O236 1.247 . S
C231 O237 1.208 . S
C232 O224 1.315 . S
C232 O227 1.279 . S
C233 O234 1.315 . S
C233 O235 1.279 . S
O234 Cd226 2.223 . S
O234 C233 1.315 . S
O235 Cd225 2.240 . S
O235 C233 1.279 . S
O236 Cd226 2.297 . S
O236 C231 1.247 . S
O237 Cd226 2.439 . S
O237 C231 1.208 . S
O238 Cd239 2.223 . S
O238 C246 1.315 . S
Cd239 O238 2.223 . S
Cd239 O242 2.297 . S
Cd239 O243 2.439 . S
Cd239 O249 2.240 . S
Cd240 O241 2.240 . S
Cd240 O248 2.223 . S
Cd240 O250 2.297 . S
Cd240 O251 2.439 . S
O241 Cd240 2.240 . S
O241 C246 1.279 . S
O242 Cd239 2.297 . S
O242 C244 1.247 . S
O243 Cd239 2.439 . S
O243 C244 1.208 . S
C244 O242 1.247 . S
C244 O243 1.208 . S
C245 O250 1.247 . S
C245 O251 1.208 . S
C246 O238 1.315 . S
C246 O241 1.279 . S
C247 O248 1.315 . S
C247 O249 1.279 . S
O248 Cd240 2.223 . S
O248 C247 1.315 . S
O249 Cd239 2.240 . S
O249 C247 1.279 . S
O250 Cd240 2.297 . S
O250 C245 1.247 . S
O251 Cd240 2.439 . S
O251 C245 1.208 . S
O252 Cd253 2.223 . S
O252 C260 1.315 . S
Cd253 O252 2.223 . S
Cd253 O256 2.297 . S
Cd253 O257 2.439 . S
Cd253 O263 2.240 . S
Cd254 O255 2.240 . S
Cd254 O262 2.223 . S
Cd254 O264 2.297 . S
Cd254 O265 2.439 . S
O255 Cd254 2.240 . S
O255 C260 1.279 . S
O256 Cd253 2.297 . S
O256 C258 1.247 . S
O257 Cd253 2.439 . S
O257 C258 1.208 . S
C258 O256 1.247 . S
C258 O257 1.208 . S
C259 O264 1.247 . S
C259 O265 1.208 . S
C260 O252 1.315 . S
C260 O255 1.279 . S
C261 O262 1.315 . S
C261 O263 1.279 . S
O262 Cd254 2.223 . S
O262 C261 1.315 . S
O263 Cd253 2.240 . S
O263 C261 1.279 . S
O264 Cd254 2.297 . S
O264 C259 1.247 . S
O265 Cd254 2.439 . S
O265 C259 1.208 . S
O266 Cd267 2.223 . S
O266 C274 1.315 . S
Cd267 O266 2.223 . S
Cd267 O270 2.297 . S
Cd267 O271 2.439 . S
Cd267 O277 2.240 . S
Cd268 O269 2.240 . S
Cd268 O276 2.223 . S
Cd268 O278 2.297 . S
Cd268 O279 2.439 . S
O269 Cd268 2.240 . S
O269 C274 1.279 . S
O270 Cd267 2.297 . S
O270 C272 1.247 . S
O271 Cd267 2.439 . S
O271 C272 1.208 . S
C272 O270 1.247 . S
C272 O271 1.208 . S
C273 O278 1.247 . S
C273 O279 1.208 . S
C274 O266 1.315 . S
C274 O269 1.279 . S
C275 O276 1.315 . S
C275 O277 1.279 . S
O276 Cd268 2.223 . S
O276 C275 1.315 . S
O277 Cd267 2.240 . S
O277 C275 1.279 . S
O278 Cd268 2.297 . S
O278 C273 1.247 . S
O279 Cd268 2.439 . S
O279 C273 1.208 . S
O280 Cd281 2.223 . S
O280 C288 1.315 . S
Cd281 O280 2.223 . S
Cd281 O284 2.297 . S
Cd281 O285 2.439 . S
Cd281 O291 2.240 . S
Cd282 O283 2.240 . S
Cd282 O290 2.223 . S
Cd282 O292 2.297 . S
Cd282 O293 2.439 . S
O283 Cd282 2.240 . S
O283 C288 1.279 . S
O284 Cd281 2.297 . S
O284 C286 1.247 . S
O285 Cd281 2.439 . S
O285 C286 1.208 . S
C286 O284 1.247 . S
C286 O285 1.208 . S
C287 O292 1.247 . S
C287 O293 1.208 . S
C288 O280 1.315 . S
C288 O283 1.279 . S
C289 O290 1.315 . S
C289 O291 1.279 . S
O290 Cd282 2.223 . S
O290 C289 1.315 . S
O291 Cd281 2.240 . S
O291 C289 1.279 . S
O292 Cd282 2.297 . S
O292 C287 1.247 . S
O293 Cd282 2.439 . S
O293 C287 1.208 . S
O294 Cd295 2.223 . S
O294 C302 1.315 . S
Cd295 O294 2.223 . S
Cd295 O298 2.297 . S
Cd295 O299 2.439 . S
Cd295 O305 2.240 . S
Cd296 O297 2.240 . S
Cd296 O304 2.223 . S
Cd296 O306 2.297 . S
Cd296 O307 2.439 . S
O297 Cd296 2.240 . S
O297 C302 1.279 . S
O298 Cd295 2.297 . S
O298 C300 1.247 . S
O299 Cd295 2.439 . S
O299 C300 1.208 . S
C300 O298 1.247 . S
C300 O299 1.208 . S
C301 O306 1.247 . S
C301 O307 1.208 . S
C302 O294 1.315 . S
C302 O297 1.279 . S
C303 O304 1.315 . S
C303 O305 1.279 . S
O304 Cd296 2.223 . S
O304 C303 1.315 . S
O305 Cd295 2.240 . S
O305 C303 1.279 . S
O306 Cd296 2.297 . S
O306 C301 1.247 . S
O307 Cd296 2.439 . S
O307 C301 1.208 . S
O308 Cd309 2.223 . S
O308 C316 1.315 . S
Cd309 O308 2.223 . S
Cd309 O312 2.297 . S
Cd309 O313 2.439 . S
Cd309 O319 2.240 . S
Cd310 O311 2.240 . S
Cd310 O318 2.223 . S
Cd310 O320 2.297 . S
Cd310 O321 2.439 . S
O311 Cd310 2.240 . S
O311 C316 1.279 . S
O312 Cd309 2.297 . S
O312 C314 1.247 . S
O313 Cd309 2.439 . S
O313 C314 1.208 . S
C314 O312 1.247 . S
C314 O313 1.208 . S
C315 O320 1.247 . S
C315 O321 1.208 . S
C316 O308 1.315 . S
C316 O311 1.279 . S
C317 O318 1.315 . S
C317 O319 1.279 . S
O318 Cd310 2.223 . S
O318 C317 1.315 . S
O319 Cd309 2.240 . S
O319 C317 1.279 . S
O320 Cd310 2.297 . S
O320 C315 1.247 . S
O321 Cd310 2.439 . S
O321 C315 1.208 . S
O322 Cd323 2.223 . S
O322 C330 1.315 . S
Cd323 O322 2.223 . S
Cd323 O326 2.297 . S
Cd323 O327 2.439 . S
Cd323 O333 2.240 . S
Cd324 O325 2.240 . S
Cd324 O332 2.223 . S
Cd324 O334 2.297 . S
Cd324 O335 2.439 . S
O325 Cd324 2.240 . S
O325 C330 1.279 . S
O326 Cd323 2.297 . S
O326 C328 1.247 . S
O327 Cd323 2.439 . S
O327 C328 1.208 . S
C328 O326 1.247 . S
C328 O327 1.208 . S
C329 O334 1.247 . S
C329 O335 1.208 . S
C330 O322 1.315 . S
C330 O325 1.279 . S
C331 O332 1.315 . S
C331 O333 1.279 . S
O332 Cd324 2.223 . S
O332 C331 1.315 . S
O333 Cd323 2.240 . S
O333 C331 1.279 . S
O334 Cd324 2.297 . S
O334 C329 1.247 . S
O335 Cd324 2.439 . S
O335 C329 1.208 . S
O336 Cd337 2.223 . S
O336 C344 1.315 . S
Cd337 O336 2.223 . S
Cd337 O340 2.297 . S
Cd337 O341 2.439 . S
Cd337 O347 2.240 . S
Cd338 O339 2.240 . S
Cd338 O346 2.223 . S
Cd338 O348 2.297 . S
Cd338 O349 2.439 . S
O339 Cd338 2.240 . S
O339 C344 1.279 . S
O340 Cd337 2.297 . S
O340 C342 1.247 . S
O341 Cd337 2.439 . S
O341 C342 1.208 . S
C342 O340 1.247 . S
C342 O341 1.208 . S
C343 O348 1.247 . S
C343 O349 1.208 . S
C344 O336 1.315 . S
C344 O339 1.279 . S
C345 O346 1.315 . S
C345 O347 1.279 . S
O346 Cd338 2.223 . S
O346 C345 1.315 . S
O347 Cd337 2.240 . S
O347 C345 1.279 . S
O348 Cd338 2.297 . S
O348 C343 1.247 . S
O349 Cd338 2.439 . S
O349 C343 1.208 . S
O350 Cd351 2.223 . S
O350 C358 1.315 . S
Cd351 O350 2.223 . S
Cd351 O354 2.297 . S
Cd351 O355 2.439 . S
Cd351 O361 2.240 . S
Cd352 O353 2.240 . S
Cd352 O360 2.223 . S
Cd352 O362 2.297 . S
Cd352 O363 2.439 . S
O353 Cd352 2.240 . S
O353 C358 1.279 . S
O354 Cd351 2.297 . S
O354 C356 1.247 . S
O355 Cd351 2.439 . S
O355 C356 1.208 . S
C356 O354 1.247 . S
C356 O355 1.208 . S
C357 O362 1.247 . S
C357 O363 1.208 . S
C358 O350 1.315 . S
C358 O353 1.279 . S
C359 O360 1.315 . S
C359 O361 1.279 . S
O360 Cd352 2.223 . S
O360 C359 1.315 . S
O361 Cd351 2.240 . S
O361 C359 1.279 . S
O362 Cd352 2.297 . S
O362 C357 1.247 . S
O363 Cd352 2.439 . S
O363 C357 1.208 . S
O364 Cd365 2.223 . S
O364 C372 1.315 . S
Cd365 O364 2.223 . S
Cd365 O368 2.297 . S
Cd365 O369 2.439 . S
Cd365 O375 2.240 . S
Cd366 O367 2.240 . S
Cd366 O374 2.223 . S
Cd366 O376 2.297 . S
Cd366 O377 2.439 . S
O367 Cd366 2.240 . S
O367 C372 1.279 . S
O368 Cd365 2.297 . S
O368 C370 1.247 . S
O369 Cd365 2.439 . S
O369 C370 1.208 . S
C370 O368 1.247 . S
C370 O369 1.208 . S
C371 O376 1.247 . S
C371 O377 1.208 . S
C372 O364 1.315 . S
C372 O367 1.279 . S
C373 O374 1.315 . S
C373 O375 1.279 . S
O374 Cd366 2.223 . S
O374 C373 1.315 . S
O375 Cd365 2.240 . S
O375 C373 1.279 . S
O376 Cd366 2.297 . S
O376 C371 1.247 . S
O377 Cd366 2.439 . S
O377 C371 1.208 . S
O378 Cd379 2.223 . S
O378 C386 1.315 . S
Cd379 O378 2.223 . S
Cd379 O382 2.297 . S
Cd379 O383 2.439 . S
Cd379 O389 2.240 . S
Cd380 O381 2.240 . S
Cd380 O388 2.223 . S
Cd380 O390 2.297 . S
Cd380 O391 2.439 . S
O381 Cd380 2.240 . S
O381 C386 1.279 . S
O382 Cd379 2.297 . S
O382 C384 1.247 . S
O383 Cd379 2.439 . S
O383 C384 1.208 . S
C384 O382 1.247 . S
C384 O383 1.208 . S
C385 O390 1.247 . S
C385 O391 1.208 . S
C386 O378 1.315 . S
C386 O381 1.279 . S
C387 O388 1.315 . S
C387 O389 1.279 . S
O388 Cd380 2.223 . S
O388 C387 1.315 . S
O389 Cd379 2.240 . S
O389 C387 1.279 . S
O390 Cd380 2.297 . S
O390 C385 1.247 . S
O391 Cd380 2.439 . S
O391 C385 1.208 . S
O392 Cd393 2.223 . S
O392 C400 1.315 . S
Cd393 O392 2.223 . S
Cd393 O396 2.297 . S
Cd393 O397 2.439 . S
Cd393 O403 2.240 . S
Cd394 O395 2.240 . S
Cd394 O402 2.223 . S
Cd394 O404 2.297 . S
Cd394 O405 2.439 . S
O395 Cd394 2.240 . S
O395 C400 1.279 . S
O396 Cd393 2.297 . S
O396 C398 1.247 . S
O397 Cd393 2.439 . S
O397 C398 1.208 . S
C398 O396 1.247 . S
C398 O397 1.208 . S
C399 O404 1.247 . S
C399 O405 1.208 . S
C400 O392 1.315 . S
C400 O395 1.279 . S
C401 O402 1.315 . S
C401 O403 1.279 . S
O402 Cd394 2.223 . S
O402 C401 1.315 . S
O403 Cd393 2.240 . S
O403 C401 1.279 . S
O404 Cd394 2.297 . S
O404 C399 1.247 . S
O405 Cd394 2.439 . S
O405 C399 1.208 . S
O406 Cd407 2.223 . S
O406 C414 1.315 . S
Cd407 O406 2.223 . S
Cd407 O410 2.297 . S
Cd407 O411 2.439 . S
Cd407 O417 2.240 . S
Cd408 O409 2.240 . S
Cd408 O416 2.223 . S
Cd408 O418 2.297 . S
Cd408 O419 2.439 . S
O409 Cd408 2.240 . S
O409 C414 1.279 . S
O410 Cd407 2.297 . S
O410 C412 1.247 . S
O411 Cd407 2.439 . S
O411 C412 1.208 . S
C412 O410 1.247 . S
C412 O411 1.208 . S
C413 O418 1.247 . S
C413 O419 1.208 . S
C414 O406 1.315 . S
C414 O409 1.279 . S
C415 O416 1.315 . S
C415 O417 1.279 . S
O416 Cd408 2.223 . S
O416 C415 1.315 . S
O417 Cd407 2.240 . S
O417 C415 1.279 . S
O418 Cd408 2.297 . S
O418 C413 1.247 . S
O419 Cd408 2.439 . S
O419 C413 1.208 . S
O420 Cd421 2.223 . S
O420 C428 1.315 . S
Cd421 O420 2.223 . S
Cd421 O424 2.297 . S
Cd421 O425 2.439 . S
Cd421 O431 2.240 . S
Cd422 O423 2.240 . S
Cd422 O430 2.223 . S
Cd422 O432 2.297 . S
Cd422 O433 2.439 . S
O423 Cd422 2.240 . S
O423 C428 1.279 . S
O424 Cd421 2.297 . S
O424 C426 1.247 . S
O425 Cd421 2.439 . S
O425 C426 1.208 . S
C426 O424 1.247 . S
C426 O425 1.208 . S
C427 O432 1.247 . S
C427 O433 1.208 . S
C428 O420 1.315 . S
C428 O423 1.279 . S
C429 O430 1.315 . S
C429 O431 1.279 . S
O430 Cd422 2.223 . S
O430 C429 1.315 . S
O431 Cd421 2.240 . S
O431 C429 1.279 . S
O432 Cd422 2.297 . S
O432 C427 1.247 . S
O433 Cd422 2.439 . S
O433 C427 1.208 . S
O434 Cd435 2.223 . S
O434 C442 1.315 . S
Cd435 O434 2.223 . S
Cd435 O438 2.297 . S
Cd435 O439 2.439 . S
Cd435 O445 2.240 . S
Cd436 O437 2.240 . S
Cd436 O444 2.223 . S
Cd436 O446 2.297 . S
Cd436 O447 2.439 . S
O437 Cd436 2.240 . S
O437 C442 1.279 . S
O438 Cd435 2.297 . S
O438 C440 1.247 . S
O439 Cd435 2.439 . S
O439 C440 1.208 . S
C440 O438 1.247 . S
C440 O439 1.208 . S
C441 O446 1.247 . S
C441 O447 1.208 . S
C442 O434 1.315 . S
C442 O437 1.279 . S
C443 O444 1.315 . S
C443 O445 1.279 . S
O444 Cd436 2.223 . S
O444 C443 1.315 . S
O445 Cd435 2.240 . S
O445 C443 1.279 . S
O446 Cd436 2.297 . S
O446 C441 1.247 . S
O447 Cd436 2.439 . S
O447 C441 1.208 . S
O448 Cd449 2.223 . S
O448 C456 1.315 . S
Cd449 O448 2.223 . S
Cd449 O452 2.297 . S
Cd449 O453 2.439 . S
Cd449 O459 2.240 . S
Cd450 O451 2.240 . S
Cd450 O458 2.223 . S
Cd450 O460 2.297 . S
Cd450 O461 2.439 . S
O451 Cd450 2.240 . S
O451 C456 1.279 . S
O452 Cd449 2.297 . S
O452 C454 1.247 . S
O453 Cd449 2.439 . S
O453 C454 1.208 . S
C454 O452 1.247 . S
C454 O453 1.208 . S
C455 O460 1.247 . S
C455 O461 1.208 . S
C456 O448 1.315 . S
C456 O451 1.279 . S
C457 O458 1.315 . S
C457 O459 1.279 . S
O458 Cd450 2.223 . S
O458 C457 1.315 . S
O459 Cd449 2.240 . S
O459 C457 1.279 . S
O460 Cd450 2.297 . S
O460 C455 1.247 . S
O461 Cd450 2.439 . S
O461 C455 1.208 . S
O462 Cd463 2.223 . S
O462 C470 1.315 . S
Cd463 O462 2.223 . S
Cd463 O466 2.297 . S
Cd463 O467 2.439 . S
Cd463 O473 2.240 . S
Cd464 O465 2.240 . S
Cd464 O472 2.223 . S
Cd464 O474 2.297 . S
Cd464 O475 2.439 . S
O465 Cd464 2.240 . S
O465 C470 1.279 . S
O466 Cd463 2.297 . S
O466 C468 1.247 . S
O467 Cd463 2.439 . S
O467 C468 1.208 . S
C468 O466 1.247 . S
C468 O467 1.208 . S
C469 O474 1.247 . S
C469 O475 1.208 . S
C470 O462 1.315 . S
C470 O465 1.279 . S
C471 O472 1.315 . S
C471 O473 1.279 . S
O472 Cd464 2.223 . S
O472 C471 1.315 . S
O473 Cd463 2.240 . S
O473 C471 1.279 . S
O474 Cd464 2.297 . S
O474 C469 1.247 . S
O475 Cd464 2.439 . S
O475 C469 1.208 . S
O476 Cd477 2.223 . S
O476 C484 1.315 . S
Cd477 O476 2.223 . S
Cd477 O480 2.297 . S
Cd477 O481 2.439 . S
Cd477 O487 2.240 . S
Cd478 O479 2.240 . S
Cd478 O486 2.223 . S
Cd478 O488 2.297 . S
Cd478 O489 2.439 . S
O479 Cd478 2.240 . S
O479 C484 1.279 . S
O480 Cd477 2.297 . S
O480 C482 1.247 . S
O481 Cd477 2.439 . S
O481 C482 1.208 . S
C482 O480 1.247 . S
C482 O481 1.208 . S
C483 O488 1.247 . S
C483 O489 1.208 . S
C484 O476 1.315 . S
C484 O479 1.279 . S
C485 O486 1.315 . S
C485 O487 1.279 . S
O486 Cd478 2.223 . S
O486 C485 1.315 . S
O487 Cd477 2.240 . S
O487 C485 1.279 . S
O488 Cd478 2.297 . S
O488 C483 1.247 . S
O489 Cd478 2.439 . S
O489 C483 1.208 . S
O490 Cd491 2.223 . S
O490 C498 1.315 . S
Cd491 O490 2.223 . S
Cd491 O494 2.297 . S
Cd491 O495 2.439 . S
Cd491 O501 2.240 . S
Cd492 O493 2.240 . S
Cd492 O500 2.223 . S
Cd492 O502 2.297 . S
Cd492 O503 2.439 . S
O493 Cd492 2.240 . S
O493 C498 1.279 . S
O494 Cd491 2.297 . S
O494 C496 1.247 . S
O495 Cd491 2.439 . S
O495 C496 1.208 . S
C496 O494 1.247 . S
C496 O495 1.208 . S
C497 O502 1.247 . S
C497 O503 1.208 . S
C498 O490 1.315 . S
C498 O493 1.279 . S
C499 O500 1.315 . S
C499 O501 1.279 . S
O500 Cd492 2.223 . S
O500 C499 1.315 . S
O501 Cd491 2.240 . S
O501 C499 1.279 . S
O502 Cd492 2.297 . S
O502 C497 1.247 . S
O503 Cd492 2.439 . S
O503 C497 1.208 . S
O504 Cd505 2.223 . S
O504 C512 1.315 . S
Cd505 O504 2.223 . S
Cd505 O508 2.297 . S
Cd505 O509 2.439 . S
Cd505 O515 2.240 . S
Cd506 O507 2.240 . S
Cd506 O514 2.223 . S
Cd506 O516 2.297 . S
Cd506 O517 2.439 . S
O507 Cd506 2.240 . S
O507 C512 1.279 . S
O508 Cd505 2.297 . S
O508 C510 1.247 . S
O509 Cd505 2.439 . S
O509 C510 1.208 . S
C510 O508 1.247 . S
C510 O509 1.208 . S
C511 O516 1.247 . S
C511 O517 1.208 . S
C512 O504 1.315 . S
C512 O507 1.279 . S
C513 O514 1.315 . S
C513 O515 1.279 . S
O514 Cd506 2.223 . S
O514 C513 1.315 . S
O515 Cd505 2.240 . S
O515 C513 1.279 . S
O516 Cd506 2.297 . S
O516 C511 1.247 . S
O517 Cd506 2.439 . S
O517 C511 1.208 . S
O518 Cd519 2.223 . S
O518 C526 1.315 . S
Cd519 O518 2.223 . S
Cd519 O522 2.297 . S
Cd519 O523 2.439 . S
Cd519 O529 2.240 . S
Cd520 O521 2.240 . S
Cd520 O528 2.223 . S
Cd520 O530 2.297 . S
Cd520 O531 2.439 . S
O521 Cd520 2.240 . S
O521 C526 1.279 . S
O522 Cd519 2.297 . S
O522 C524 1.247 . S
O523 Cd519 2.439 . S
O523 C524 1.208 . S
C524 O522 1.247 . S
C524 O523 1.208 . S
C525 O530 1.247 . S
C525 O531 1.208 . S
C526 O518 1.315 . S
C526 O521 1.279 . S
C527 O528 1.315 . S
C527 O529 1.279 . S
O528 Cd520 2.223 . S
O528 C527 1.315 . S
O529 Cd519 2.240 . S
O529 C527 1.279 . S
O530 Cd520 2.297 . S
O530 C525 1.247 . S
O531 Cd520 2.439 . S
O531 C525 1.208 . S
O532 Cd533 2.223 . S
O532 C540 1.315 . S
Cd533 O532 2.223 . S
Cd533 O536 2.297 . S
Cd533 O537 2.439 . S
Cd533 O543 2.240 . S
Cd534 O535 2.240 . S
Cd534 O542 2.223 . S
Cd534 O544 2.297 . S
Cd534 O545 2.439 . S
O535 Cd534 2.240 . S
O535 C540 1.279 . S
O536 Cd533 2.297 . S
O536 C538 1.247 . S
O537 Cd533 2.439 . S
O537 C538 1.208 . S
C538 O536 1.247 . S
C538 O537 1.208 . S
C539 O544 1.247 . S
C539 O545 1.208 . S
C540 O532 1.315 . S
C540 O535 1.279 . S
C541 O542 1.315 . S
C541 O543 1.279 . S
O542 Cd534 2.223 . S
O542 C541 1.315 . S
O543 Cd533 2.240 . S
O543 C541 1.279 . S
O544 Cd534 2.297 . S
O544 C539 1.247 . S
O545 Cd534 2.439 . S
O545 C539 1.208 . S
O546 Cd547 2.223 . S
O546 C554 1.315 . S
Cd547 O546 2.223 . S
Cd547 O550 2.297 . S
Cd547 O551 2.439 . S
Cd547 O557 2.240 . S
Cd548 O549 2.240 . S
Cd548 O556 2.223 . S
Cd548 O558 2.297 . S
Cd548 O559 2.439 . S
O549 Cd548 2.240 . S
O549 C554 1.279 . S
O550 Cd547 2.297 . S
O550 C552 1.247 . S
O551 Cd547 2.439 . S
O551 C552 1.208 . S
C552 O550 1.247 . S
C552 O551 1.208 . S
C553 O558 1.247 . S
C553 O559 1.208 . S
C554 O546 1.315 . S
C554 O549 1.279 . S
C555 O556 1.315 . S
C555 O557 1.279 . S
O556 Cd548 2.223 . S
O556 C555 1.315 . S
O557 Cd547 2.240 . S
O557 C555 1.279 . S
O558 Cd548 2.297 . S
O558 C553 1.247 . S
O559 Cd548 2.439 . S
O559 C553 1.208 . S
O560 Cd561 2.223 . S
O560 C568 1.315 . S
Cd561 O560 2.223 . S
Cd561 O564 2.297 . S
Cd561 O565 2.439 . S
Cd561 O571 2.240 . S
Cd562 O563 2.240 . S
Cd562 O570 2.223 . S
Cd562 O572 2.297 . S
Cd562 O573 2.439 . S
O563 Cd562 2.240 . S
O563 C568 1.279 . S
O564 Cd561 2.297 . S
O564 C566 1.247 . S
O565 Cd561 2.439 . S
O565 C566 1.208 . S
C566 O564 1.247 . S
C566 O565 1.208 . S
C567 O572 1.247 . S
C567 O573 1.208 . S
C568 O560 1.315 . S
C568 O563 1.279 . S
C569 O570 1.315 . S
C569 O571 1.279 . S
O570 Cd562 2.223 . S
O570 C569 1.315 . S
O571 Cd561 2.240 . S
O571 C569 1.279 . S
O572 Cd562 2.297 . S
O572 C567 1.247 . S
O573 Cd562 2.439 . S
O573 C567 1.208 . S
O574 Cd575 2.223 . S
O574 C582 1.315 . S
Cd575 O574 2.223 . S
Cd575 O578 2.297 . S
Cd575 O579 2.439 . S
Cd575 O585 2.240 . S
Cd576 O577 2.240 . S
Cd576 O584 2.223 . S
Cd576 O586 2.297 . S
Cd576 O587 2.439 . S
O577 Cd576 2.240 . S
O577 C582 1.279 . S
O578 Cd575 2.297 . S
O578 C580 1.247 . S
O579 Cd575 2.439 . S
O579 C580 1.208 . S
C580 O578 1.247 . S
C580 O579 1.208 . S
C581 O586 1.247 . S
C581 O587 1.208 . S
C582 O574 1.315 . S
C582 O577 1.279 . S
C583 O584 1.315 . S
C583 O585 1.279 . S
O584 Cd576 2.223 . S
O584 C583 1.315 . S
O585 Cd575 2.240 . S
O585 C583 1.279 . S
O586 Cd576 2.297 . S
O586 C581 1.247 . S
O587 Cd576 2.439 . S
O587 C581 1.208 . S
O588 Cd589 2.223 . S
O588 C596 1.315 . S
Cd589 O588 2.223 . S
Cd589 O592 2.297 . S
Cd589 O593 2.439 . S
Cd589 O599 2.240 . S
Cd590 O591 2.240 . S
Cd590 O598 2.223 . S
Cd590 O600 2.297 . S
Cd590 O601 2.439 . S
O591 Cd590 2.240 . S
O591 C596 1.279 . S
O592 Cd589 2.297 . S
O592 C594 1.247 . S
O593 Cd589 2.439 . S
O593 C594 1.208 . S
C594 O592 1.247 . S
C594 O593 1.208 . S
C595 O600 1.247 . S
C595 O601 1.208 . S
C596 O588 1.315 . S
C596 O591 1.279 . S
C597 O598 1.315 . S
C597 O599 1.279 . S
O598 Cd590 2.223 . S
O598 C597 1.315 . S
O599 Cd589 2.240 . S
O599 C597 1.279 . S
O600 Cd590 2.297 . S
O600 C595 1.247 . S
O601 Cd590 2.439 . S
O601 C595 1.208 . S
O602 Cd603 2.223 . S
O602 C610 1.315 . S
Cd603 O602 2.223 . S
Cd603 O606 2.297 . S
Cd603 O607 2.439 . S
Cd603 O613 2.240 . S
Cd604 O605 2.240 . S
Cd604 O612 2.223 . S
Cd604 O614 2.297 . S
Cd604 O615 2.439 . S
O605 Cd604 2.240 . S
O605 C610 1.279 . S
O606 Cd603 2.297 . S
O606 C608 1.247 . S
O607 Cd603 2.439 . S
O607 C608 1.208 . S
C608 O606 1.247 . S
C608 O607 1.208 . S
C609 O614 1.247 . S
C609 O615 1.208 . S
C610 O602 1.315 . S
C610 O605 1.279 . S
C611 O612 1.315 . S
C611 O613 1.279 . S
O612 Cd604 2.223 . S
O612 C611 1.315 . S
O613 Cd603 2.240 . S
O613 C611 1.279 . S
O614 Cd604 2.297 . S
O614 C609 1.247 . S
O615 Cd604 2.439 . S
O615 C609 1.208 . S
O616 Cd617 2.223 . S
O616 C624 1.315 . S
Cd617 O616 2.223 . S
Cd617 O620 2.297 . S
Cd617 O621 2.439 . S
Cd617 O627 2.240 . S
Cd618 O619 2.240 . S
Cd618 O626 2.223 . S
Cd618 O628 2.297 . S
Cd618 O629 2.439 . S
O619 Cd618 2.240 . S
O619 C624 1.279 . S
O620 Cd617 2.297 . S
O620 C622 1.247 . S
O621 Cd617 2.439 . S
O621 C622 1.208 . S
C622 O620 1.247 . S
C622 O621 1.208 . S
C623 O628 1.247 . S
C623 O629 1.208 . S
C624 O616 1.315 . S
C624 O619 1.279 . S
C625 O626 1.315 . S
C625 O627 1.279 . S
O626 Cd618 2.223 . S
O626 C625 1.315 . S
O627 Cd617 2.240 . S
O627 C625 1.279 . S
O628 Cd618 2.297 . S
O628 C623 1.247 . S
O629 Cd618 2.439 . S
O629 C623 1.208 . S
O630 Cd631 2.223 . S
O630 C638 1.315 . S
Cd631 O630 2.223 . S
Cd631 O634 2.297 . S
Cd631 O635 2.439 . S
Cd631 O641 2.240 . S
Cd632 O633 2.240 . S
Cd632 O640 2.223 . S
Cd632 O642 2.297 . S
Cd632 O643 2.439 . S
O633 Cd632 2.240 . S
O633 C638 1.279 . S
O634 Cd631 2.297 . S
O634 C636 1.247 . S
O635 Cd631 2.439 . S
O635 C636 1.208 . S
C636 O634 1.247 . S
C636 O635 1.208 . S
C637 O642 1.247 . S
C637 O643 1.208 . S
C638 O630 1.315 . S
C638 O633 1.279 . S
C639 O640 1.315 . S
C639 O641 1.279 . S
O640 Cd632 2.223 . S
O640 C639 1.315 . S
O641 Cd631 2.240 . S
O641 C639 1.279 . S
O642 Cd632 2.297 . S
O642 C637 1.247 . S
O643 Cd632 2.439 . S
O643 C637 1.208 . S
O644 Cd645 2.223 . S
O644 C652 1.315 . S
Cd645 O644 2.223 . S
Cd645 O648 2.297 . S
Cd645 O649 2.439 . S
Cd645 O655 2.240 . S
Cd646 O647 2.240 . S
Cd646 O654 2.223 . S
Cd646 O656 2.297 . S
Cd646 O657 2.439 . S
O647 Cd646 2.240 . S
O647 C652 1.279 . S
O648 Cd645 2.297 . S
O648 C650 1.247 . S
O649 Cd645 2.439 . S
O649 C650 1.208 . S
C650 O648 1.247 . S
C650 O649 1.208 . S
C651 O656 1.247 . S
C651 O657 1.208 . S
C652 O644 1.315 . S
C652 O647 1.279 . S
C653 O654 1.315 . S
C653 O655 1.279 . S
O654 Cd646 2.223 . S
O654 C653 1.315 . S
O655 Cd645 2.240 . S
O655 C653 1.279 . S
O656 Cd646 2.297 . S
O656 C651 1.247 . S
O657 Cd646 2.439 . S
O657 C651 1.208 . S
O658 Cd659 2.223 . S
O658 C666 1.315 . S
Cd659 O658 2.223 . S
Cd659 O662 2.297 . S
Cd659 O663 2.439 . S
Cd659 O669 2.240 . S
Cd660 O661 2.240 . S
Cd660 O668 2.223 . S
Cd660 O670 2.297 . S
Cd660 O671 2.439 . S
O661 Cd660 2.240 . S
O661 C666 1.279 . S
O662 Cd659 2.297 . S
O662 C664 1.247 . S
O663 Cd659 2.439 . S
O663 C664 1.208 . S
C664 O662 1.247 . S
C664 O663 1.208 . S
C665 O670 1.247 . S
C665 O671 1.208 . S
C666 O658 1.315 . S
C666 O661 1.279 . S
C667 O668 1.315 . S
C667 O669 1.279 . S
O668 Cd660 2.223 . S
O668 C667 1.315 . S
O669 Cd659 2.240 . S
O669 C667 1.279 . S
O670 Cd660 2.297 . S
O670 C665 1.247 . S
O671 Cd660 2.439 . S
O671 C665 1.208 . S
H672 C684 0.930 . S
H673 C686 0.930 . S
H674 C687 0.930 . S
H675 C691 0.959 . S
H676 C691 0.959 . S
H677 C691 0.961 . S
H678 C692 0.960 . S
H679 C692 0.961 . S
H680 C692 0.959 . S
H681 C695 0.929 . S
H682 C696 0.931 . S
H683 C698 0.930 . S
C684 H672 0.930 . S
C684 C685 1.399 . S
C684 C689 1.399 . S
C685 C684 1.399 . S
C685 C686 1.376 . S
C686 H673 0.930 . S
C686 C685 1.376 . S
C686 C687 1.388 . S
C687 H674 0.930 . S
C687 C686 1.388 . S
C687 C688 1.390 . S
C688 C687 1.390 . S
C688 C689 1.394 . S
C688 C694 1.465 . S
C689 C684 1.399 . S
C689 C688 1.394 . S
C689 C690 1.516 . S
C690 C689 1.516 . S
C690 C691 1.502 . S
C690 C692 1.561 . S
C690 C693 1.526 . S
C691 H675 0.959 . S
C691 H676 0.959 . S
C691 H677 0.961 . S
C691 C690 1.502 . S
C692 H678 0.960 . S
C692 H679 0.961 . S
C692 H680 0.959 . S
C692 C690 1.561 . S
C693 C690 1.526 . S
C693 C694 1.396 . S
C693 C698 1.390 . S
C694 C688 1.465 . S
C694 C693 1.396 . S
C694 C695 1.399 . S
C695 H681 0.929 . S
C695 C694 1.399 . S
C695 C696 1.385 . S
C696 H682 0.931 . S
C696 C695 1.385 . S
C696 C697 1.389 . S
C697 C696 1.389 . S
C697 C698 1.387 . S
C698 H683 0.930 . S
C698 C693 1.390 . S
C698 C697 1.387 . S
H699 C711 0.930 . S
H700 C713 0.930 . S
H701 C714 0.930 . S
H702 C718 0.959 . S
H703 C718 0.959 . S
H704 C718 0.961 . S
H705 C719 0.960 . S
H706 C719 0.961 . S
H707 C719 0.959 . S
H708 C722 0.929 . S
H709 C723 0.931 . S
H710 C725 0.930 . S
C711 H699 0.930 . S
C711 C712 1.399 . S
C711 C716 1.399 . S
C712 C711 1.399 . S
C712 C713 1.376 . S
C713 H700 0.930 . S
C713 C712 1.376 . S
C713 C714 1.388 . S
C714 H701 0.930 . S
C714 C713 1.388 . S
C714 C715 1.390 . S
C715 C714 1.390 . S
C715 C716 1.394 . S
C715 C721 1.465 . S
C716 C711 1.399 . S
C716 C715 1.394 . S
C716 C717 1.516 . S
C717 C716 1.516 . S
C717 C718 1.502 . S
C717 C719 1.561 . S
C717 C720 1.526 . S
C718 H702 0.959 . S
C718 H703 0.959 . S
C718 H704 0.961 . S
C718 C717 1.502 . S
C719 H705 0.960 . S
C719 H706 0.961 . S
C719 H707 0.959 . S
C719 C717 1.561 . S
C720 C717 1.526 . S
C720 C721 1.396 . S
C720 C725 1.390 . S
C721 C715 1.465 . S
C721 C720 1.396 . S
C721 C722 1.399 . S
C722 H708 0.929 . S
C722 C721 1.399 . S
C722 C723 1.385 . S
C723 H709 0.931 . S
C723 C722 1.385 . S
C723 C724 1.389 . S
C724 C723 1.389 . S
C724 C725 1.387 . S
C725 H710 0.930 . S
C725 C720 1.390 . S
C725 C724 1.387 . S
H726 C738 0.930 . S
H727 C740 0.930 . S
H728 C741 0.930 . S
H729 C745 0.959 . S
H730 C745 0.959 . S
H731 C745 0.961 . S
H732 C746 0.960 . S
H733 C746 0.961 . S
H734 C746 0.959 . S
H735 C749 0.929 . S
H736 C750 0.931 . S
H737 C752 0.930 . S
C738 H726 0.930 . S
C738 C739 1.399 . S
C738 C743 1.399 . S
C739 C738 1.399 . S
C739 C740 1.376 . S
C740 H727 0.930 . S
C740 C739 1.376 . S
C740 C741 1.388 . S
C741 H728 0.930 . S
C741 C740 1.388 . S
C741 C742 1.390 . S
C742 C741 1.390 . S
C742 C743 1.394 . S
C742 C748 1.465 . S
C743 C738 1.399 . S
C743 C742 1.394 . S
C743 C744 1.516 . S
C744 C743 1.516 . S
C744 C745 1.502 . S
C744 C746 1.561 . S
C744 C747 1.526 . S
C745 H729 0.959 . S
C745 H730 0.959 . S
C745 H731 0.961 . S
C745 C744 1.502 . S
C746 H732 0.960 . S
C746 H733 0.961 . S
C746 H734 0.959 . S
C746 C744 1.561 . S
C747 C744 1.526 . S
C747 C748 1.396 . S
C747 C752 1.390 . S
C748 C742 1.465 . S
C748 C747 1.396 . S
C748 C749 1.399 . S
C749 H735 0.929 . S
C749 C748 1.399 . S
C749 C750 1.385 . S
C750 H736 0.931 . S
C750 C749 1.385 . S
C750 C751 1.389 . S
C751 C750 1.389 . S
C751 C752 1.387 . S
C752 H737 0.930 . S
C752 C747 1.390 . S
C752 C751 1.387 . S
H753 C765 0.930 . S
H754 C767 0.930 . S
H755 C768 0.930 . S
H756 C772 0.959 . S
H757 C772 0.959 . S
H758 C772 0.961 . S
H759 C773 0.960 . S
H760 C773 0.961 . S
H761 C773 0.959 . S
H762 C776 0.929 . S
H763 C777 0.931 . S
H764 C779 0.930 . S
C765 H753 0.930 . S
C765 C766 1.399 . S
C765 C770 1.399 . S
C766 C765 1.399 . S
C766 C767 1.376 . S
C767 H754 0.930 . S
C767 C766 1.376 . S
C767 C768 1.388 . S
C768 H755 0.930 . S
C768 C767 1.388 . S
C768 C769 1.390 . S
C769 C768 1.390 . S
C769 C770 1.394 . S
C769 C775 1.465 . S
C770 C765 1.399 . S
C770 C769 1.394 . S
C770 C771 1.516 . S
C771 C770 1.516 . S
C771 C772 1.502 . S
C771 C773 1.561 . S
C771 C774 1.526 . S
C772 H756 0.959 . S
C772 H757 0.959 . S
C772 H758 0.961 . S
C772 C771 1.502 . S
C773 H759 0.960 . S
C773 H760 0.961 . S
C773 H761 0.959 . S
C773 C771 1.561 . S
C774 C771 1.526 . S
C774 C775 1.396 . S
C774 C779 1.390 . S
C775 C769 1.465 . S
C775 C774 1.396 . S
C775 C776 1.399 . S
C776 H762 0.929 . S
C776 C775 1.399 . S
C776 C777 1.385 . S
C777 H763 0.931 . S
C777 C776 1.385 . S
C777 C778 1.389 . S
C778 C777 1.389 . S
C778 C779 1.387 . S
C779 H764 0.930 . S
C779 C774 1.390 . S
C779 C778 1.387 . S
H780 C792 0.930 . S
H781 C794 0.930 . S
H782 C795 0.930 . S
H783 C799 0.959 . S
H784 C799 0.959 . S
H785 C799 0.961 . S
H786 C800 0.960 . S
H787 C800 0.961 . S
H788 C800 0.959 . S
H789 C803 0.929 . S
H790 C804 0.931 . S
H791 C806 0.930 . S
C792 H780 0.930 . S
C792 C793 1.399 . S
C792 C797 1.399 . S
C793 C792 1.399 . S
C793 C794 1.376 . S
C794 H781 0.930 . S
C794 C793 1.376 . S
C794 C795 1.388 . S
C795 H782 0.930 . S
C795 C794 1.388 . S
C795 C796 1.390 . S
C796 C795 1.390 . S
C796 C797 1.394 . S
C796 C802 1.465 . S
C797 C792 1.399 . S
C797 C796 1.394 . S
C797 C798 1.516 . S
C798 C797 1.516 . S
C798 C799 1.502 . S
C798 C800 1.561 . S
C798 C801 1.526 . S
C799 H783 0.959 . S
C799 H784 0.959 . S
C799 H785 0.961 . S
C799 C798 1.502 . S
C800 H786 0.960 . S
C800 H787 0.961 . S
C800 H788 0.959 . S
C800 C798 1.561 . S
C801 C798 1.526 . S
C801 C802 1.396 . S
C801 C806 1.390 . S
C802 C796 1.465 . S
C802 C801 1.396 . S
C802 C803 1.399 . S
C803 H789 0.929 . S
C803 C802 1.399 . S
C803 C804 1.385 . S
C804 H790 0.931 . S
C804 C803 1.385 . S
C804 C805 1.389 . S
C805 C804 1.389 . S
C805 C806 1.387 . S
C806 H791 0.930 . S
C806 C801 1.390 . S
C806 C805 1.387 . S
H807 C819 0.930 . S
H808 C821 0.930 . S
H809 C822 0.930 . S
H810 C826 0.959 . S
H811 C826 0.959 . S
H812 C826 0.961 . S
H813 C827 0.960 . S
H814 C827 0.961 . S
H815 C827 0.959 . S
H816 C830 0.929 . S
H817 C831 0.931 . S
H818 C833 0.930 . S
C819 H807 0.930 . S
C819 C820 1.399 . S
C819 C824 1.399 . S
C820 C819 1.399 . S
C820 C821 1.376 . S
C821 H808 0.930 . S
C821 C820 1.376 . S
C821 C822 1.388 . S
C822 H809 0.930 . S
C822 C821 1.388 . S
C822 C823 1.390 . S
C823 C822 1.390 . S
C823 C824 1.394 . S
C823 C829 1.465 . S
C824 C819 1.399 . S
C824 C823 1.394 . S
C824 C825 1.516 . S
C825 C824 1.516 . S
C825 C826 1.502 . S
C825 C827 1.561 . S
C825 C828 1.526 . S
C826 H810 0.959 . S
C826 H811 0.959 . S
C826 H812 0.961 . S
C826 C825 1.502 . S
C827 H813 0.960 . S
C827 H814 0.961 . S
C827 H815 0.959 . S
C827 C825 1.561 . S
C828 C825 1.526 . S
C828 C829 1.396 . S
C828 C833 1.390 . S
C829 C823 1.465 . S
C829 C828 1.396 . S
C829 C830 1.399 . S
C830 H816 0.929 . S
C830 C829 1.399 . S
C830 C831 1.385 . S
C831 H817 0.931 . S
C831 C830 1.385 . S
C831 C832 1.389 . S
C832 C831 1.389 . S
C832 C833 1.387 . S
C833 H818 0.930 . S
C833 C828 1.390 . S
C833 C832 1.387 . S
H834 C846 0.930 . S
H835 C848 0.930 . S
H836 C849 0.930 . S
H837 C853 0.959 . S
H838 C853 0.959 . S
H839 C853 0.961 . S
H840 C854 0.960 . S
H841 C854 0.961 . S
H842 C854 0.959 . S
H843 C857 0.929 . S
H844 C858 0.931 . S
H845 C860 0.930 . S
C846 H834 0.930 . S
C846 C847 1.399 . S
C846 C851 1.399 . S
C847 C846 1.399 . S
C847 C848 1.376 . S
C848 H835 0.930 . S
C848 C847 1.376 . S
C848 C849 1.388 . S
C849 H836 0.930 . S
C849 C848 1.388 . S
C849 C850 1.390 . S
C850 C849 1.390 . S
C850 C851 1.394 . S
C850 C856 1.465 . S
C851 C846 1.399 . S
C851 C850 1.394 . S
C851 C852 1.516 . S
C852 C851 1.516 . S
C852 C853 1.502 . S
C852 C854 1.561 . S
C852 C855 1.526 . S
C853 H837 0.959 . S
C853 H838 0.959 . S
C853 H839 0.961 . S
C853 C852 1.502 . S
C854 H840 0.960 . S
C854 H841 0.961 . S
C854 H842 0.959 . S
C854 C852 1.561 . S
C855 C852 1.526 . S
C855 C856 1.396 . S
C855 C860 1.390 . S
C856 C850 1.465 . S
C856 C855 1.396 . S
C856 C857 1.399 . S
C857 H843 0.929 . S
C857 C856 1.399 . S
C857 C858 1.385 . S
C858 H844 0.931 . S
C858 C857 1.385 . S
C858 C859 1.389 . S
C859 C858 1.389 . S
C859 C860 1.387 . S
C860 H845 0.930 . S
C860 C855 1.390 . S
C860 C859 1.387 . S
H861 C873 0.930 . S
H862 C875 0.930 . S
H863 C876 0.930 . S
H864 C880 0.959 . S
H865 C880 0.959 . S
H866 C880 0.961 . S
H867 C881 0.960 . S
H868 C881 0.961 . S
H869 C881 0.959 . S
H870 C884 0.929 . S
H871 C885 0.931 . S
H872 C887 0.930 . S
C873 H861 0.930 . S
C873 C874 1.399 . S
C873 C878 1.399 . S
C874 C873 1.399 . S
C874 C875 1.376 . S
C875 H862 0.930 . S
C875 C874 1.376 . S
C875 C876 1.388 . S
C876 H863 0.930 . S
C876 C875 1.388 . S
C876 C877 1.390 . S
C877 C876 1.390 . S
C877 C878 1.394 . S
C877 C883 1.465 . S
C878 C873 1.399 . S
C878 C877 1.394 . S
C878 C879 1.516 . S
C879 C878 1.516 . S
C879 C880 1.502 . S
C879 C881 1.561 . S
C879 C882 1.526 . S
C880 H864 0.959 . S
C880 H865 0.959 . S
C880 H866 0.961 . S
C880 C879 1.502 . S
C881 H867 0.960 . S
C881 H868 0.961 . S
C881 H869 0.959 . S
C881 C879 1.561 . S
C882 C879 1.526 . S
C882 C883 1.396 . S
C882 C887 1.390 . S
C883 C877 1.465 . S
C883 C882 1.396 . S
C883 C884 1.399 . S
C884 H870 0.929 . S
C884 C883 1.399 . S
C884 C885 1.385 . S
C885 H871 0.931 . S
C885 C884 1.385 . S
C885 C886 1.389 . S
C886 C885 1.389 . S
C886 C887 1.387 . S
C887 H872 0.930 . S
C887 C882 1.390 . S
C887 C886 1.387 . S
H888 C900 0.930 . S
H889 C902 0.930 . S
H890 C903 0.930 . S
H891 C907 0.959 . S
H892 C907 0.959 . S
H893 C907 0.961 . S
H894 C908 0.960 . S
H895 C908 0.961 . S
H896 C908 0.959 . S
H897 C911 0.929 . S
H898 C912 0.931 . S
H899 C914 0.930 . S
C900 H888 0.930 . S
C900 C901 1.399 . S
C900 C905 1.399 . S
C901 C900 1.399 . S
C901 C902 1.376 . S
C902 H889 0.930 . S
C902 C901 1.376 . S
C902 C903 1.388 . S
C903 H890 0.930 . S
C903 C902 1.388 . S
C903 C904 1.390 . S
C904 C903 1.390 . S
C904 C905 1.394 . S
C904 C910 1.465 . S
C905 C900 1.399 . S
C905 C904 1.394 . S
C905 C906 1.516 . S
C906 C905 1.516 . S
C906 C907 1.502 . S
C906 C908 1.561 . S
C906 C909 1.526 . S
C907 H891 0.959 . S
C907 H892 0.959 . S
C907 H893 0.961 . S
C907 C906 1.502 . S
C908 H894 0.960 . S
C908 H895 0.961 . S
C908 H896 0.959 . S
C908 C906 1.561 . S
C909 C906 1.526 . S
C909 C910 1.396 . S
C909 C914 1.390 . S
C910 C904 1.465 . S
C910 C909 1.396 . S
C910 C911 1.399 . S
C911 H897 0.929 . S
C911 C910 1.399 . S
C911 C912 1.385 . S
C912 H898 0.931 . S
C912 C911 1.385 . S
C912 C913 1.389 . S
C913 C912 1.389 . S
C913 C914 1.387 . S
C914 H899 0.930 . S
C914 C909 1.390 . S
C914 C913 1.387 . S
H915 C927 0.930 . S
H916 C929 0.930 . S
H917 C930 0.930 . S
H918 C934 0.959 . S
H919 C934 0.959 . S
H920 C934 0.961 . S
H921 C935 0.960 . S
H922 C935 0.961 . S
H923 C935 0.959 . S
H924 C938 0.929 . S
H925 C939 0.931 . S
H926 C941 0.930 . S
C927 H915 0.930 . S
C927 C928 1.399 . S
C927 C932 1.399 . S
C928 C927 1.399 . S
C928 C929 1.376 . S
C929 H916 0.930 . S
C929 C928 1.376 . S
C929 C930 1.388 . S
C930 H917 0.930 . S
C930 C929 1.388 . S
C930 C931 1.390 . S
C931 C930 1.390 . S
C931 C932 1.394 . S
C931 C937 1.465 . S
C932 C927 1.399 . S
C932 C931 1.394 . S
C932 C933 1.516 . S
C933 C932 1.516 . S
C933 C934 1.502 . S
C933 C935 1.561 . S
C933 C936 1.526 . S
C934 H918 0.959 . S
C934 H919 0.959 . S
C934 H920 0.961 . S
C934 C933 1.502 . S
C935 H921 0.960 . S
C935 H922 0.961 . S
C935 H923 0.959 . S
C935 C933 1.561 . S
C936 C933 1.526 . S
C936 C937 1.396 . S
C936 C941 1.390 . S
C937 C931 1.465 . S
C937 C936 1.396 . S
C937 C938 1.399 . S
C938 H924 0.929 . S
C938 C937 1.399 . S
C938 C939 1.385 . S
C939 H925 0.931 . S
C939 C938 1.385 . S
C939 C940 1.389 . S
C940 C939 1.389 . S
C940 C941 1.387 . S
C941 H926 0.930 . S
C941 C936 1.390 . S
C941 C940 1.387 . S
H942 C954 0.930 . S
H943 C956 0.930 . S
H944 C957 0.930 . S
H945 C961 0.959 . S
H946 C961 0.959 . S
H947 C961 0.961 . S
H948 C962 0.960 . S
H949 C962 0.961 . S
H950 C962 0.959 . S
H951 C965 0.929 . S
H952 C966 0.931 . S
H953 C968 0.930 . S
C954 H942 0.930 . S
C954 C955 1.399 . S
C954 C959 1.399 . S
C955 C954 1.399 . S
C955 C956 1.376 . S
C956 H943 0.930 . S
C956 C955 1.376 . S
C956 C957 1.388 . S
C957 H944 0.930 . S
C957 C956 1.388 . S
C957 C958 1.390 . S
C958 C957 1.390 . S
C958 C959 1.394 . S
C958 C964 1.465 . S
C959 C954 1.399 . S
C959 C958 1.394 . S
C959 C960 1.516 . S
C960 C959 1.516 . S
C960 C961 1.502 . S
C960 C962 1.561 . S
C960 C963 1.526 . S
C961 H945 0.959 . S
C961 H946 0.959 . S
C961 H947 0.961 . S
C961 C960 1.502 . S
C962 H948 0.960 . S
C962 H949 0.961 . S
C962 H950 0.959 . S
C962 C960 1.561 . S
C963 C960 1.526 . S
C963 C964 1.396 . S
C963 C968 1.390 . S
C964 C958 1.465 . S
C964 C963 1.396 . S
C964 C965 1.399 . S
C965 H951 0.929 . S
C965 C964 1.399 . S
C965 C966 1.385 . S
C966 H952 0.931 . S
C966 C965 1.385 . S
C966 C967 1.389 . S
C967 C966 1.389 . S
C967 C968 1.387 . S
C968 H953 0.930 . S
C968 C963 1.390 . S
C968 C967 1.387 . S
H969 C981 0.930 . S
H970 C983 0.930 . S
H971 C984 0.930 . S
H972 C988 0.959 . S
H973 C988 0.959 . S
H974 C988 0.961 . S
H975 C989 0.960 . S
H976 C989 0.961 . S
H977 C989 0.959 . S
H978 C992 0.929 . S
H979 C993 0.931 . S
H980 C995 0.930 . S
C981 H969 0.930 . S
C981 C982 1.399 . S
C981 C986 1.399 . S
C982 C981 1.399 . S
C982 C983 1.376 . S
C983 H970 0.930 . S
C983 C982 1.376 . S
C983 C984 1.388 . S
C984 H971 0.930 . S
C984 C983 1.388 . S
C984 C985 1.390 . S
C985 C984 1.390 . S
C985 C986 1.394 . S
C985 C991 1.465 . S
C986 C981 1.399 . S
C986 C985 1.394 . S
C986 C987 1.516 . S
C987 C986 1.516 . S
C987 C988 1.502 . S
C987 C989 1.561 . S
C987 C990 1.526 . S
C988 H972 0.959 . S
C988 H973 0.959 . S
C988 H974 0.961 . S
C988 C987 1.502 . S
C989 H975 0.960 . S
C989 H976 0.961 . S
C989 H977 0.959 . S
C989 C987 1.561 . S
C990 C987 1.526 . S
C990 C991 1.396 . S
C990 C995 1.390 . S
C991 C985 1.465 . S
C991 C990 1.396 . S
C991 C992 1.399 . S
C992 H978 0.929 . S
C992 C991 1.399 . S
C992 C993 1.385 . S
C993 H979 0.931 . S
C993 C992 1.385 . S
C993 C994 1.389 . S
C994 C993 1.389 . S
C994 C995 1.387 . S
C995 H980 0.930 . S
C995 C990 1.390 . S
C995 C994 1.387 . S
H996 C1008 0.930 . S
H997 C1010 0.930 . S
H998 C1011 0.930 . S
H999 C1015 0.959 . S
H1000 C1015 0.959 . S
H1001 C1015 0.961 . S
H1002 C1016 0.960 . S
H1003 C1016 0.961 . S
H1004 C1016 0.959 . S
H1005 C1019 0.929 . S
H1006 C1020 0.931 . S
H1007 C1022 0.930 . S
C1008 H996 0.930 . S
C1008 C1009 1.399 . S
C1008 C1013 1.399 . S
C1009 C1008 1.399 . S
C1009 C1010 1.376 . S
C1010 H997 0.930 . S
C1010 C1009 1.376 . S
C1010 C1011 1.388 . S
C1011 H998 0.930 . S
C1011 C1010 1.388 . S
C1011 C1012 1.390 . S
C1012 C1011 1.390 . S
C1012 C1013 1.394 . S
C1012 C1018 1.465 . S
C1013 C1008 1.399 . S
C1013 C1012 1.394 . S
C1013 C1014 1.516 . S
C1014 C1013 1.516 . S
C1014 C1015 1.502 . S
C1014 C1016 1.561 . S
C1014 C1017 1.526 . S
C1015 H999 0.959 . S
C1015 H1000 0.959 . S
C1015 H1001 0.961 . S
C1015 C1014 1.502 . S
C1016 H1002 0.960 . S
C1016 H1003 0.961 . S
C1016 H1004 0.959 . S
C1016 C1014 1.561 . S
C1017 C1014 1.526 . S
C1017 C1018 1.396 . S
C1017 C1022 1.390 . S
C1018 C1012 1.465 . S
C1018 C1017 1.396 . S
C1018 C1019 1.399 . S
C1019 H1005 0.929 . S
C1019 C1018 1.399 . S
C1019 C1020 1.385 . S
C1020 H1006 0.931 . S
C1020 C1019 1.385 . S
C1020 C1021 1.389 . S
C1021 C1020 1.389 . S
C1021 C1022 1.387 . S
C1022 H1007 0.930 . S
C1022 C1017 1.390 . S
C1022 C1021 1.387 . S
H1023 C1035 0.930 . S
H1024 C1037 0.930 . S
H1025 C1038 0.930 . S
H1026 C1042 0.959 . S
H1027 C1042 0.959 . S
H1028 C1042 0.961 . S
H1029 C1043 0.960 . S
H1030 C1043 0.961 . S
H1031 C1043 0.959 . S
H1032 C1046 0.929 . S
H1033 C1047 0.931 . S
H1034 C1049 0.930 . S
C1035 H1023 0.930 . S
C1035 C1036 1.399 . S
C1035 C1040 1.399 . S
C1036 C1035 1.399 . S
C1036 C1037 1.376 . S
C1037 H1024 0.930 . S
C1037 C1036 1.376 . S
C1037 C1038 1.388 . S
C1038 H1025 0.930 . S
C1038 C1037 1.388 . S
C1038 C1039 1.390 . S
C1039 C1038 1.390 . S
C1039 C1040 1.394 . S
C1039 C1045 1.465 . S
C1040 C1035 1.399 . S
C1040 C1039 1.394 . S
C1040 C1041 1.516 . S
C1041 C1040 1.516 . S
C1041 C1042 1.502 . S
C1041 C1043 1.561 . S
C1041 C1044 1.526 . S
C1042 H1026 0.959 . S
C1042 H1027 0.959 . S
C1042 H1028 0.961 . S
C1042 C1041 1.502 . S
C1043 H1029 0.960 . S
C1043 H1030 0.961 . S
C1043 H1031 0.959 . S
C1043 C1041 1.561 . S
C1044 C1041 1.526 . S
C1044 C1045 1.396 . S
C1044 C1049 1.390 . S
C1045 C1039 1.465 . S
C1045 C1044 1.396 . S
C1045 C1046 1.399 . S
C1046 H1032 0.929 . S
C1046 C1045 1.399 . S
C1046 C1047 1.385 . S
C1047 H1033 0.931 . S
C1047 C1046 1.385 . S
C1047 C1048 1.389 . S
C1048 C1047 1.389 . S
C1048 C1049 1.387 . S
C1049 H1034 0.930 . S
C1049 C1044 1.390 . S
C1049 C1048 1.387 . S
H1050 C1062 0.930 . S
H1051 C1064 0.930 . S
H1052 C1065 0.930 . S
H1053 C1069 0.959 . S
H1054 C1069 0.959 . S
H1055 C1069 0.961 . S
H1056 C1070 0.960 . S
H1057 C1070 0.961 . S
H1058 C1070 0.959 . S
H1059 C1073 0.929 . S
H1060 C1074 0.931 . S
H1061 C1076 0.930 . S
C1062 H1050 0.930 . S
C1062 C1063 1.399 . S
C1062 C1067 1.399 . S
C1063 C1062 1.399 . S
C1063 C1064 1.376 . S
C1064 H1051 0.930 . S
C1064 C1063 1.376 . S
C1064 C1065 1.388 . S
C1065 H1052 0.930 . S
C1065 C1064 1.388 . S
C1065 C1066 1.390 . S
C1066 C1065 1.390 . S
C1066 C1067 1.394 . S
C1066 C1072 1.465 . S
C1067 C1062 1.399 . S
C1067 C1066 1.394 . S
C1067 C1068 1.516 . S
C1068 C1067 1.516 . S
C1068 C1069 1.502 . S
C1068 C1070 1.561 . S
C1068 C1071 1.526 . S
C1069 H1053 0.959 . S
C1069 H1054 0.959 . S
C1069 H1055 0.961 . S
C1069 C1068 1.502 . S
C1070 H1056 0.960 . S
C1070 H1057 0.961 . S
C1070 H1058 0.959 . S
C1070 C1068 1.561 . S
C1071 C1068 1.526 . S
C1071 C1072 1.396 . S
C1071 C1076 1.390 . S
C1072 C1066 1.465 . S
C1072 C1071 1.396 . S
C1072 C1073 1.399 . S
C1073 H1059 0.929 . S
C1073 C1072 1.399 . S
C1073 C1074 1.385 . S
C1074 H1060 0.931 . S
C1074 C1073 1.385 . S
C1074 C1075 1.389 . S
C1075 C1074 1.389 . S
C1075 C1076 1.387 . S
C1076 H1061 0.930 . S
C1076 C1071 1.390 . S
C1076 C1075 1.387 . S
H1077 C1089 0.930 . S
H1078 C1091 0.930 . S
H1079 C1092 0.930 . S
H1080 C1096 0.959 . S
H1081 C1096 0.959 . S
H1082 C1096 0.961 . S
H1083 C1097 0.960 . S
H1084 C1097 0.961 . S
H1085 C1097 0.959 . S
H1086 C1100 0.929 . S
H1087 C1101 0.931 . S
H1088 C1103 0.930 . S
C1089 H1077 0.930 . S
C1089 C1090 1.399 . S
C1089 C1094 1.399 . S
C1090 C1089 1.399 . S
C1090 C1091 1.376 . S
C1091 H1078 0.930 . S
C1091 C1090 1.376 . S
C1091 C1092 1.388 . S
C1092 H1079 0.930 . S
C1092 C1091 1.388 . S
C1092 C1093 1.390 . S
C1093 C1092 1.390 . S
C1093 C1094 1.394 . S
C1093 C1099 1.465 . S
C1094 C1089 1.399 . S
C1094 C1093 1.394 . S
C1094 C1095 1.516 . S
C1095 C1094 1.516 . S
C1095 C1096 1.502 . S
C1095 C1097 1.561 . S
C1095 C1098 1.526 . S
C1096 H1080 0.959 . S
C1096 H1081 0.959 . S
C1096 H1082 0.961 . S
C1096 C1095 1.502 . S
C1097 H1083 0.960 . S
C1097 H1084 0.961 . S
C1097 H1085 0.959 . S
C1097 C1095 1.561 . S
C1098 C1095 1.526 . S
C1098 C1099 1.396 . S
C1098 C1103 1.390 . S
C1099 C1093 1.465 . S
C1099 C1098 1.396 . S
C1099 C1100 1.399 . S
C1100 H1086 0.929 . S
C1100 C1099 1.399 . S
C1100 C1101 1.385 . S
C1101 H1087 0.931 . S
C1101 C1100 1.385 . S
C1101 C1102 1.389 . S
C1102 C1101 1.389 . S
C1102 C1103 1.387 . S
C1103 H1088 0.930 . S
C1103 C1098 1.390 . S
C1103 C1102 1.387 . S
H1104 C1116 0.930 . S
H1105 C1118 0.930 . S
H1106 C1119 0.930 . S
H1107 C1123 0.959 . S
H1108 C1123 0.959 . S
H1109 C1123 0.961 . S
H1110 C1124 0.960 . S
H1111 C1124 0.961 . S
H1112 C1124 0.959 . S
H1113 C1127 0.929 . S
H1114 C1128 0.931 . S
H1115 C1130 0.930 . S
C1116 H1104 0.930 . S
C1116 C1117 1.399 . S
C1116 C1121 1.399 . S
C1117 C1116 1.399 . S
C1117 C1118 1.376 . S
C1118 H1105 0.930 . S
C1118 C1117 1.376 . S
C1118 C1119 1.388 . S
C1119 H1106 0.930 . S
C1119 C1118 1.388 . S
C1119 C1120 1.390 . S
C1120 C1119 1.390 . S
C1120 C1121 1.394 . S
C1120 C1126 1.465 . S
C1121 C1116 1.399 . S
C1121 C1120 1.394 . S
C1121 C1122 1.516 . S
C1122 C1121 1.516 . S
C1122 C1123 1.502 . S
C1122 C1124 1.561 . S
C1122 C1125 1.526 . S
C1123 H1107 0.959 . S
C1123 H1108 0.959 . S
C1123 H1109 0.961 . S
C1123 C1122 1.502 . S
C1124 H1110 0.960 . S
C1124 H1111 0.961 . S
C1124 H1112 0.959 . S
C1124 C1122 1.561 . S
C1125 C1122 1.526 . S
C1125 C1126 1.396 . S
C1125 C1130 1.390 . S
C1126 C1120 1.465 . S
C1126 C1125 1.396 . S
C1126 C1127 1.399 . S
C1127 H1113 0.929 . S
C1127 C1126 1.399 . S
C1127 C1128 1.385 . S
C1128 H1114 0.931 . S
C1128 C1127 1.385 . S
C1128 C1129 1.389 . S
C1129 C1128 1.389 . S
C1129 C1130 1.387 . S
C1130 H1115 0.930 . S
C1130 C1125 1.390 . S
C1130 C1129 1.387 . S
H1131 C1143 0.930 . S
H1132 C1145 0.930 . S
H1133 C1146 0.930 . S
H1134 C1150 0.959 . S
H1135 C1150 0.959 . S
H1136 C1150 0.961 . S
H1137 C1151 0.960 . S
H1138 C1151 0.961 . S
H1139 C1151 0.959 . S
H1140 C1154 0.929 . S
H1141 C1155 0.931 . S
H1142 C1157 0.930 . S
C1143 H1131 0.930 . S
C1143 C1144 1.399 . S
C1143 C1148 1.399 . S
C1144 C1143 1.399 . S
C1144 C1145 1.376 . S
C1145 H1132 0.930 . S
C1145 C1144 1.376 . S
C1145 C1146 1.388 . S
C1146 H1133 0.930 . S
C1146 C1145 1.388 . S
C1146 C1147 1.390 . S
C1147 C1146 1.390 . S
C1147 C1148 1.394 . S
C1147 C1153 1.465 . S
C1148 C1143 1.399 . S
C1148 C1147 1.394 . S
C1148 C1149 1.516 . S
C1149 C1148 1.516 . S
C1149 C1150 1.502 . S
C1149 C1151 1.561 . S
C1149 C1152 1.526 . S
C1150 H1134 0.959 . S
C1150 H1135 0.959 . S
C1150 H1136 0.961 . S
C1150 C1149 1.502 . S
C1151 H1137 0.960 . S
C1151 H1138 0.961 . S
C1151 H1139 0.959 . S
C1151 C1149 1.561 . S
C1152 C1149 1.526 . S
C1152 C1153 1.396 . S
C1152 C1157 1.390 . S
C1153 C1147 1.465 . S
C1153 C1152 1.396 . S
C1153 C1154 1.399 . S
C1154 H1140 0.929 . S
C1154 C1153 1.399 . S
C1154 C1155 1.385 . S
C1155 H1141 0.931 . S
C1155 C1154 1.385 . S
C1155 C1156 1.389 . S
C1156 C1155 1.389 . S
C1156 C1157 1.387 . S
C1157 H1142 0.930 . S
C1157 C1152 1.390 . S
C1157 C1156 1.387 . S
H1158 C1170 0.930 . S
H1159 C1172 0.930 . S
H1160 C1173 0.930 . S
H1161 C1177 0.959 . S
H1162 C1177 0.959 . S
H1163 C1177 0.961 . S
H1164 C1178 0.960 . S
H1165 C1178 0.961 . S
H1166 C1178 0.959 . S
H1167 C1181 0.929 . S
H1168 C1182 0.931 . S
H1169 C1184 0.930 . S
C1170 H1158 0.930 . S
C1170 C1171 1.399 . S
C1170 C1175 1.399 . S
C1171 C1170 1.399 . S
C1171 C1172 1.376 . S
C1172 H1159 0.930 . S
C1172 C1171 1.376 . S
C1172 C1173 1.388 . S
C1173 H1160 0.930 . S
C1173 C1172 1.388 . S
C1173 C1174 1.390 . S
C1174 C1173 1.390 . S
C1174 C1175 1.394 . S
C1174 C1180 1.465 . S
C1175 C1170 1.399 . S
C1175 C1174 1.394 . S
C1175 C1176 1.516 . S
C1176 C1175 1.516 . S
C1176 C1177 1.502 . S
C1176 C1178 1.561 . S
C1176 C1179 1.526 . S
C1177 H1161 0.959 . S
C1177 H1162 0.959 . S
C1177 H1163 0.961 . S
C1177 C1176 1.502 . S
C1178 H1164 0.960 . S
C1178 H1165 0.961 . S
C1178 H1166 0.959 . S
C1178 C1176 1.561 . S
C1179 C1176 1.526 . S
C1179 C1180 1.396 . S
C1179 C1184 1.390 . S
C1180 C1174 1.465 . S
C1180 C1179 1.396 . S
C1180 C1181 1.399 . S
C1181 H1167 0.929 . S
C1181 C1180 1.399 . S
C1181 C1182 1.385 . S
C1182 H1168 0.931 . S
C1182 C1181 1.385 . S
C1182 C1183 1.389 . S
C1183 C1182 1.389 . S
C1183 C1184 1.387 . S
C1184 H1169 0.930 . S
C1184 C1179 1.390 . S
C1184 C1183 1.387 . S
H1185 C1197 0.930 . S
H1186 C1199 0.930 . S
H1187 C1200 0.930 . S
H1188 C1204 0.959 . S
H1189 C1204 0.959 . S
H1190 C1204 0.961 . S
H1191 C1205 0.960 . S
H1192 C1205 0.961 . S
H1193 C1205 0.959 . S
H1194 C1208 0.929 . S
H1195 C1209 0.931 . S
H1196 C1211 0.930 . S
C1197 H1185 0.930 . S
C1197 C1198 1.399 . S
C1197 C1202 1.399 . S
C1198 C1197 1.399 . S
C1198 C1199 1.376 . S
C1199 H1186 0.930 . S
C1199 C1198 1.376 . S
C1199 C1200 1.388 . S
C1200 H1187 0.930 . S
C1200 C1199 1.388 . S
C1200 C1201 1.390 . S
C1201 C1200 1.390 . S
C1201 C1202 1.394 . S
C1201 C1207 1.465 . S
C1202 C1197 1.399 . S
C1202 C1201 1.394 . S
C1202 C1203 1.516 . S
C1203 C1202 1.516 . S
C1203 C1204 1.502 . S
C1203 C1205 1.561 . S
C1203 C1206 1.526 . S
C1204 H1188 0.959 . S
C1204 H1189 0.959 . S
C1204 H1190 0.961 . S
C1204 C1203 1.502 . S
C1205 H1191 0.960 . S
C1205 H1192 0.961 . S
C1205 H1193 0.959 . S
C1205 C1203 1.561 . S
C1206 C1203 1.526 . S
C1206 C1207 1.396 . S
C1206 C1211 1.390 . S
C1207 C1201 1.465 . S
C1207 C1206 1.396 . S
C1207 C1208 1.399 . S
C1208 H1194 0.929 . S
C1208 C1207 1.399 . S
C1208 C1209 1.385 . S
C1209 H1195 0.931 . S
C1209 C1208 1.385 . S
C1209 C1210 1.389 . S
C1210 C1209 1.389 . S
C1210 C1211 1.387 . S
C1211 H1196 0.930 . S
C1211 C1206 1.390 . S
C1211 C1210 1.387 . S
H1212 C1224 0.930 . S
H1213 C1226 0.930 . S
H1214 C1227 0.930 . S
H1215 C1231 0.959 . S
H1216 C1231 0.959 . S
H1217 C1231 0.961 . S
H1218 C1232 0.960 . S
H1219 C1232 0.961 . S
H1220 C1232 0.959 . S
H1221 C1235 0.929 . S
H1222 C1236 0.931 . S
H1223 C1238 0.930 . S
C1224 H1212 0.930 . S
C1224 C1225 1.399 . S
C1224 C1229 1.399 . S
C1225 C1224 1.399 . S
C1225 C1226 1.376 . S
C1226 H1213 0.930 . S
C1226 C1225 1.376 . S
C1226 C1227 1.388 . S
C1227 H1214 0.930 . S
C1227 C1226 1.388 . S
C1227 C1228 1.390 . S
C1228 C1227 1.390 . S
C1228 C1229 1.394 . S
C1228 C1234 1.465 . S
C1229 C1224 1.399 . S
C1229 C1228 1.394 . S
C1229 C1230 1.516 . S
C1230 C1229 1.516 . S
C1230 C1231 1.502 . S
C1230 C1232 1.561 . S
C1230 C1233 1.526 . S
C1231 H1215 0.959 . S
C1231 H1216 0.959 . S
C1231 H1217 0.961 . S
C1231 C1230 1.502 . S
C1232 H1218 0.960 . S
C1232 H1219 0.961 . S
C1232 H1220 0.959 . S
C1232 C1230 1.561 . S
C1233 C1230 1.526 . S
C1233 C1234 1.396 . S
C1233 C1238 1.390 . S
C1234 C1228 1.465 . S
C1234 C1233 1.396 . S
C1234 C1235 1.399 . S
C1235 H1221 0.929 . S
C1235 C1234 1.399 . S
C1235 C1236 1.385 . S
C1236 H1222 0.931 . S
C1236 C1235 1.385 . S
C1236 C1237 1.389 . S
C1237 C1236 1.389 . S
C1237 C1238 1.387 . S
C1238 H1223 0.930 . S
C1238 C1233 1.390 . S
C1238 C1237 1.387 . S
H1239 C1251 0.930 . S
H1240 C1253 0.930 . S
H1241 C1254 0.930 . S
H1242 C1258 0.959 . S
H1243 C1258 0.959 . S
H1244 C1258 0.961 . S
H1245 C1259 0.960 . S
H1246 C1259 0.961 . S
H1247 C1259 0.959 . S
H1248 C1262 0.929 . S
H1249 C1263 0.931 . S
H1250 C1265 0.930 . S
C1251 H1239 0.930 . S
C1251 C1252 1.399 . S
C1251 C1256 1.399 . S
C1252 C1251 1.399 . S
C1252 C1253 1.376 . S
C1253 H1240 0.930 . S
C1253 C1252 1.376 . S
C1253 C1254 1.388 . S
C1254 H1241 0.930 . S
C1254 C1253 1.388 . S
C1254 C1255 1.390 . S
C1255 C1254 1.390 . S
C1255 C1256 1.394 . S
C1255 C1261 1.465 . S
C1256 C1251 1.399 . S
C1256 C1255 1.394 . S
C1256 C1257 1.516 . S
C1257 C1256 1.516 . S
C1257 C1258 1.502 . S
C1257 C1259 1.561 . S
C1257 C1260 1.526 . S
C1258 H1242 0.959 . S
C1258 H1243 0.959 . S
C1258 H1244 0.961 . S
C1258 C1257 1.502 . S
C1259 H1245 0.960 . S
C1259 H1246 0.961 . S
C1259 H1247 0.959 . S
C1259 C1257 1.561 . S
C1260 C1257 1.526 . S
C1260 C1261 1.396 . S
C1260 C1265 1.390 . S
C1261 C1255 1.465 . S
C1261 C1260 1.396 . S
C1261 C1262 1.399 . S
C1262 H1248 0.929 . S
C1262 C1261 1.399 . S
C1262 C1263 1.385 . S
C1263 H1249 0.931 . S
C1263 C1262 1.385 . S
C1263 C1264 1.389 . S
C1264 C1263 1.389 . S
C1264 C1265 1.387 . S
C1265 H1250 0.930 . S
C1265 C1260 1.390 . S
C1265 C1264 1.387 . S
H1266 C1278 0.930 . S
H1267 C1280 0.930 . S
H1268 C1281 0.930 . S
H1269 C1285 0.959 . S
H1270 C1285 0.959 . S
H1271 C1285 0.961 . S
H1272 C1286 0.960 . S
H1273 C1286 0.961 . S
H1274 C1286 0.959 . S
H1275 C1289 0.929 . S
H1276 C1290 0.931 . S
H1277 C1292 0.930 . S
C1278 H1266 0.930 . S
C1278 C1279 1.399 . S
C1278 C1283 1.399 . S
C1279 C1278 1.399 . S
C1279 C1280 1.376 . S
C1280 H1267 0.930 . S
C1280 C1279 1.376 . S
C1280 C1281 1.388 . S
C1281 H1268 0.930 . S
C1281 C1280 1.388 . S
C1281 C1282 1.390 . S
C1282 C1281 1.390 . S
C1282 C1283 1.394 . S
C1282 C1288 1.465 . S
C1283 C1278 1.399 . S
C1283 C1282 1.394 . S
C1283 C1284 1.516 . S
C1284 C1283 1.516 . S
C1284 C1285 1.502 . S
C1284 C1286 1.561 . S
C1284 C1287 1.526 . S
C1285 H1269 0.959 . S
C1285 H1270 0.959 . S
C1285 H1271 0.961 . S
C1285 C1284 1.502 . S
C1286 H1272 0.960 . S
C1286 H1273 0.961 . S
C1286 H1274 0.959 . S
C1286 C1284 1.561 . S
C1287 C1284 1.526 . S
C1287 C1288 1.396 . S
C1287 C1292 1.390 . S
C1288 C1282 1.465 . S
C1288 C1287 1.396 . S
C1288 C1289 1.399 . S
C1289 H1275 0.929 . S
C1289 C1288 1.399 . S
C1289 C1290 1.385 . S
C1290 H1276 0.931 . S
C1290 C1289 1.385 . S
C1290 C1291 1.389 . S
C1291 C1290 1.389 . S
C1291 C1292 1.387 . S
C1292 H1277 0.930 . S
C1292 C1287 1.390 . S
C1292 C1291 1.387 . S
H1293 C1305 0.930 . S
H1294 C1307 0.930 . S
H1295 C1308 0.930 . S
H1296 C1312 0.959 . S
H1297 C1312 0.959 . S
H1298 C1312 0.961 . S
H1299 C1313 0.960 . S
H1300 C1313 0.961 . S
H1301 C1313 0.959 . S
H1302 C1316 0.929 . S
H1303 C1317 0.931 . S
H1304 C1319 0.930 . S
C1305 H1293 0.930 . S
C1305 C1306 1.399 . S
C1305 C1310 1.399 . S
C1306 C1305 1.399 . S
C1306 C1307 1.376 . S
C1307 H1294 0.930 . S
C1307 C1306 1.376 . S
C1307 C1308 1.388 . S
C1308 H1295 0.930 . S
C1308 C1307 1.388 . S
C1308 C1309 1.390 . S
C1309 C1308 1.390 . S
C1309 C1310 1.394 . S
C1309 C1315 1.465 . S
C1310 C1305 1.399 . S
C1310 C1309 1.394 . S
C1310 C1311 1.516 . S
C1311 C1310 1.516 . S
C1311 C1312 1.502 . S
C1311 C1313 1.561 . S
C1311 C1314 1.526 . S
C1312 H1296 0.959 . S
C1312 H1297 0.959 . S
C1312 H1298 0.961 . S
C1312 C1311 1.502 . S
C1313 H1299 0.960 . S
C1313 H1300 0.961 . S
C1313 H1301 0.959 . S
C1313 C1311 1.561 . S
C1314 C1311 1.526 . S
C1314 C1315 1.396 . S
C1314 C1319 1.390 . S
C1315 C1309 1.465 . S
C1315 C1314 1.396 . S
C1315 C1316 1.399 . S
C1316 H1302 0.929 . S
C1316 C1315 1.399 . S
C1316 C1317 1.385 . S
C1317 H1303 0.931 . S
C1317 C1316 1.385 . S
C1317 C1318 1.389 . S
C1318 C1317 1.389 . S
C1318 C1319 1.387 . S
C1319 H1304 0.930 . S
C1319 C1314 1.390 . S
C1319 C1318 1.387 . S
H1320 C1332 0.930 . S
H1321 C1334 0.930 . S
H1322 C1335 0.930 . S
H1323 C1339 0.959 . S
H1324 C1339 0.959 . S
H1325 C1339 0.961 . S
H1326 C1340 0.960 . S
H1327 C1340 0.961 . S
H1328 C1340 0.959 . S
H1329 C1343 0.929 . S
H1330 C1344 0.931 . S
H1331 C1346 0.930 . S
C1332 H1320 0.930 . S
C1332 C1333 1.399 . S
C1332 C1337 1.399 . S
C1333 C1332 1.399 . S
C1333 C1334 1.376 . S
C1334 H1321 0.930 . S
C1334 C1333 1.376 . S
C1334 C1335 1.388 . S
C1335 H1322 0.930 . S
C1335 C1334 1.388 . S
C1335 C1336 1.390 . S
C1336 C1335 1.390 . S
C1336 C1337 1.394 . S
C1336 C1342 1.465 . S
C1337 C1332 1.399 . S
C1337 C1336 1.394 . S
C1337 C1338 1.516 . S
C1338 C1337 1.516 . S
C1338 C1339 1.502 . S
C1338 C1340 1.561 . S
C1338 C1341 1.526 . S
C1339 H1323 0.959 . S
C1339 H1324 0.959 . S
C1339 H1325 0.961 . S
C1339 C1338 1.502 . S
C1340 H1326 0.960 . S
C1340 H1327 0.961 . S
C1340 H1328 0.959 . S
C1340 C1338 1.561 . S
C1341 C1338 1.526 . S
C1341 C1342 1.396 . S
C1341 C1346 1.390 . S
C1342 C1336 1.465 . S
C1342 C1341 1.396 . S
C1342 C1343 1.399 . S
C1343 H1329 0.929 . S
C1343 C1342 1.399 . S
C1343 C1344 1.385 . S
C1344 H1330 0.931 . S
C1344 C1343 1.385 . S
C1344 C1345 1.389 . S
C1345 C1344 1.389 . S
C1345 C1346 1.387 . S
C1346 H1331 0.930 . S
C1346 C1341 1.390 . S
C1346 C1345 1.387 . S
H1347 C1359 0.930 . S
H1348 C1361 0.930 . S
H1349 C1362 0.930 . S
H1350 C1366 0.959 . S
H1351 C1366 0.959 . S
H1352 C1366 0.961 . S
H1353 C1367 0.960 . S
H1354 C1367 0.961 . S
H1355 C1367 0.959 . S
H1356 C1370 0.929 . S
H1357 C1371 0.931 . S
H1358 C1373 0.930 . S
C1359 H1347 0.930 . S
C1359 C1360 1.399 . S
C1359 C1364 1.399 . S
C1360 C1359 1.399 . S
C1360 C1361 1.376 . S
C1361 H1348 0.930 . S
C1361 C1360 1.376 . S
C1361 C1362 1.388 . S
C1362 H1349 0.930 . S
C1362 C1361 1.388 . S
C1362 C1363 1.390 . S
C1363 C1362 1.390 . S
C1363 C1364 1.394 . S
C1363 C1369 1.465 . S
C1364 C1359 1.399 . S
C1364 C1363 1.394 . S
C1364 C1365 1.516 . S
C1365 C1364 1.516 . S
C1365 C1366 1.502 . S
C1365 C1367 1.561 . S
C1365 C1368 1.526 . S
C1366 H1350 0.959 . S
C1366 H1351 0.959 . S
C1366 H1352 0.961 . S
C1366 C1365 1.502 . S
C1367 H1353 0.960 . S
C1367 H1354 0.961 . S
C1367 H1355 0.959 . S
C1367 C1365 1.561 . S
C1368 C1365 1.526 . S
C1368 C1369 1.396 . S
C1368 C1373 1.390 . S
C1369 C1363 1.465 . S
C1369 C1368 1.396 . S
C1369 C1370 1.399 . S
C1370 H1356 0.929 . S
C1370 C1369 1.399 . S
C1370 C1371 1.385 . S
C1371 H1357 0.931 . S
C1371 C1370 1.385 . S
C1371 C1372 1.389 . S
C1372 C1371 1.389 . S
C1372 C1373 1.387 . S
C1373 H1358 0.930 . S
C1373 C1368 1.390 . S
C1373 C1372 1.387 . S
H1374 C1386 0.930 . S
H1375 C1388 0.930 . S
H1376 C1389 0.930 . S
H1377 C1393 0.959 . S
H1378 C1393 0.959 . S
H1379 C1393 0.961 . S
H1380 C1394 0.960 . S
H1381 C1394 0.961 . S
H1382 C1394 0.959 . S
H1383 C1397 0.929 . S
H1384 C1398 0.931 . S
H1385 C1400 0.930 . S
C1386 H1374 0.930 . S
C1386 C1387 1.399 . S
C1386 C1391 1.399 . S
C1387 C1386 1.399 . S
C1387 C1388 1.376 . S
C1388 H1375 0.930 . S
C1388 C1387 1.376 . S
C1388 C1389 1.388 . S
C1389 H1376 0.930 . S
C1389 C1388 1.388 . S
C1389 C1390 1.390 . S
C1390 C1389 1.390 . S
C1390 C1391 1.394 . S
C1390 C1396 1.465 . S
C1391 C1386 1.399 . S
C1391 C1390 1.394 . S
C1391 C1392 1.516 . S
C1392 C1391 1.516 . S
C1392 C1393 1.502 . S
C1392 C1394 1.561 . S
C1392 C1395 1.526 . S
C1393 H1377 0.959 . S
C1393 H1378 0.959 . S
C1393 H1379 0.961 . S
C1393 C1392 1.502 . S
C1394 H1380 0.960 . S
C1394 H1381 0.961 . S
C1394 H1382 0.959 . S
C1394 C1392 1.561 . S
C1395 C1392 1.526 . S
C1395 C1396 1.396 . S
C1395 C1400 1.390 . S
C1396 C1390 1.465 . S
C1396 C1395 1.396 . S
C1396 C1397 1.399 . S
C1397 H1383 0.929 . S
C1397 C1396 1.399 . S
C1397 C1398 1.385 . S
C1398 H1384 0.931 . S
C1398 C1397 1.385 . S
C1398 C1399 1.389 . S
C1399 C1398 1.389 . S
C1399 C1400 1.387 . S
C1400 H1385 0.930 . S
C1400 C1395 1.390 . S
C1400 C1399 1.387 . S
H1401 C1413 0.930 . S
H1402 C1415 0.930 . S
H1403 C1416 0.930 . S
H1404 C1420 0.959 . S
H1405 C1420 0.959 . S
H1406 C1420 0.961 . S
H1407 C1421 0.960 . S
H1408 C1421 0.961 . S
H1409 C1421 0.959 . S
H1410 C1424 0.929 . S
H1411 C1425 0.931 . S
H1412 C1427 0.930 . S
C1413 H1401 0.930 . S
C1413 C1414 1.399 . S
C1413 C1418 1.399 . S
C1414 C1413 1.399 . S
C1414 C1415 1.376 . S
C1415 H1402 0.930 . S
C1415 C1414 1.376 . S
C1415 C1416 1.388 . S
C1416 H1403 0.930 . S
C1416 C1415 1.388 . S
C1416 C1417 1.390 . S
C1417 C1416 1.390 . S
C1417 C1418 1.394 . S
C1417 C1423 1.465 . S
C1418 C1413 1.399 . S
C1418 C1417 1.394 . S
C1418 C1419 1.516 . S
C1419 C1418 1.516 . S
C1419 C1420 1.502 . S
C1419 C1421 1.561 . S
C1419 C1422 1.526 . S
C1420 H1404 0.959 . S
C1420 H1405 0.959 . S
C1420 H1406 0.961 . S
C1420 C1419 1.502 . S
C1421 H1407 0.960 . S
C1421 H1408 0.961 . S
C1421 H1409 0.959 . S
C1421 C1419 1.561 . S
C1422 C1419 1.526 . S
C1422 C1423 1.396 . S
C1422 C1427 1.390 . S
C1423 C1417 1.465 . S
C1423 C1422 1.396 . S
C1423 C1424 1.399 . S
C1424 H1410 0.929 . S
C1424 C1423 1.399 . S
C1424 C1425 1.385 . S
C1425 H1411 0.931 . S
C1425 C1424 1.385 . S
C1425 C1426 1.389 . S
C1426 C1425 1.389 . S
C1426 C1427 1.387 . S
C1427 H1412 0.930 . S
C1427 C1422 1.390 . S
C1427 C1426 1.387 . S
H1428 C1440 0.930 . S
H1429 C1442 0.930 . S
H1430 C1443 0.930 . S
H1431 C1447 0.959 . S
H1432 C1447 0.959 . S
H1433 C1447 0.961 . S
H1434 C1448 0.960 . S
H1435 C1448 0.961 . S
H1436 C1448 0.959 . S
H1437 C1451 0.929 . S
H1438 C1452 0.931 . S
H1439 C1454 0.930 . S
C1440 H1428 0.930 . S
C1440 C1441 1.399 . S
C1440 C1445 1.399 . S
C1441 C1440 1.399 . S
C1441 C1442 1.376 . S
C1442 H1429 0.930 . S
C1442 C1441 1.376 . S
C1442 C1443 1.388 . S
C1443 H1430 0.930 . S
C1443 C1442 1.388 . S
C1443 C1444 1.390 . S
C1444 C1443 1.390 . S
C1444 C1445 1.394 . S
C1444 C1450 1.465 . S
C1445 C1440 1.399 . S
C1445 C1444 1.394 . S
C1445 C1446 1.516 . S
C1446 C1445 1.516 . S
C1446 C1447 1.502 . S
C1446 C1448 1.561 . S
C1446 C1449 1.526 . S
C1447 H1431 0.959 . S
C1447 H1432 0.959 . S
C1447 H1433 0.961 . S
C1447 C1446 1.502 . S
C1448 H1434 0.960 . S
C1448 H1435 0.961 . S
C1448 H1436 0.959 . S
C1448 C1446 1.561 . S
C1449 C1446 1.526 . S
C1449 C1450 1.396 . S
C1449 C1454 1.390 . S
C1450 C1444 1.465 . S
C1450 C1449 1.396 . S
C1450 C1451 1.399 . S
C1451 H1437 0.929 . S
C1451 C1450 1.399 . S
C1451 C1452 1.385 . S
C1452 H1438 0.931 . S
C1452 C1451 1.385 . S
C1452 C1453 1.389 . S
C1453 C1452 1.389 . S
C1453 C1454 1.387 . S
C1454 H1439 0.930 . S
C1454 C1449 1.390 . S
C1454 C1453 1.387 . S
H1455 C1467 0.930 . S
H1456 C1469 0.930 . S
H1457 C1470 0.930 . S
H1458 C1474 0.959 . S
H1459 C1474 0.959 . S
H1460 C1474 0.961 . S
H1461 C1475 0.960 . S
H1462 C1475 0.961 . S
H1463 C1475 0.959 . S
H1464 C1478 0.929 . S
H1465 C1479 0.931 . S
H1466 C1481 0.930 . S
C1467 H1455 0.930 . S
C1467 C1468 1.399 . S
C1467 C1472 1.399 . S
C1468 C1467 1.399 . S
C1468 C1469 1.376 . S
C1469 H1456 0.930 . S
C1469 C1468 1.376 . S
C1469 C1470 1.388 . S
C1470 H1457 0.930 . S
C1470 C1469 1.388 . S
C1470 C1471 1.390 . S
C1471 C1470 1.390 . S
C1471 C1472 1.394 . S
C1471 C1477 1.465 . S
C1472 C1467 1.399 . S
C1472 C1471 1.394 . S
C1472 C1473 1.516 . S
C1473 C1472 1.516 . S
C1473 C1474 1.502 . S
C1473 C1475 1.561 . S
C1473 C1476 1.526 . S
C1474 H1458 0.959 . S
C1474 H1459 0.959 . S
C1474 H1460 0.961 . S
C1474 C1473 1.502 . S
C1475 H1461 0.960 . S
C1475 H1462 0.961 . S
C1475 H1463 0.959 . S
C1475 C1473 1.561 . S
C1476 C1473 1.526 . S
C1476 C1477 1.396 . S
C1476 C1481 1.390 . S
C1477 C1471 1.465 . S
C1477 C1476 1.396 . S
C1477 C1478 1.399 . S
C1478 H1464 0.929 . S
C1478 C1477 1.399 . S
C1478 C1479 1.385 . S
C1479 H1465 0.931 . S
C1479 C1478 1.385 . S
C1479 C1480 1.389 . S
C1480 C1479 1.389 . S
C1480 C1481 1.387 . S
C1481 H1466 0.930 . S
C1481 C1476 1.390 . S
C1481 C1480 1.387 . S
H1482 C1494 0.930 . S
H1483 C1496 0.930 . S
H1484 C1497 0.930 . S
H1485 C1501 0.959 . S
H1486 C1501 0.959 . S
H1487 C1501 0.961 . S
H1488 C1502 0.960 . S
H1489 C1502 0.961 . S
H1490 C1502 0.959 . S
H1491 C1505 0.929 . S
H1492 C1506 0.931 . S
H1493 C1508 0.930 . S
C1494 H1482 0.930 . S
C1494 C1495 1.399 . S
C1494 C1499 1.399 . S
C1495 C1494 1.399 . S
C1495 C1496 1.376 . S
C1496 H1483 0.930 . S
C1496 C1495 1.376 . S
C1496 C1497 1.388 . S
C1497 H1484 0.930 . S
C1497 C1496 1.388 . S
C1497 C1498 1.390 . S
C1498 C1497 1.390 . S
C1498 C1499 1.394 . S
C1498 C1504 1.465 . S
C1499 C1494 1.399 . S
C1499 C1498 1.394 . S
C1499 C1500 1.516 . S
C1500 C1499 1.516 . S
C1500 C1501 1.502 . S
C1500 C1502 1.561 . S
C1500 C1503 1.526 . S
C1501 H1485 0.959 . S
C1501 H1486 0.959 . S
C1501 H1487 0.961 . S
C1501 C1500 1.502 . S
C1502 H1488 0.960 . S
C1502 H1489 0.961 . S
C1502 H1490 0.959 . S
C1502 C1500 1.561 . S
C1503 C1500 1.526 . S
C1503 C1504 1.396 . S
C1503 C1508 1.390 . S
C1504 C1498 1.465 . S
C1504 C1503 1.396 . S
C1504 C1505 1.399 . S
C1505 H1491 0.929 . S
C1505 C1504 1.399 . S
C1505 C1506 1.385 . S
C1506 H1492 0.931 . S
C1506 C1505 1.385 . S
C1506 C1507 1.389 . S
C1507 C1506 1.389 . S
C1507 C1508 1.387 . S
C1508 H1493 0.930 . S
C1508 C1503 1.390 . S
C1508 C1507 1.387 . S
H1509 C1521 0.930 . S
H1510 C1523 0.930 . S
H1511 C1524 0.930 . S
H1512 C1528 0.959 . S
H1513 C1528 0.959 . S
H1514 C1528 0.961 . S
H1515 C1529 0.960 . S
H1516 C1529 0.961 . S
H1517 C1529 0.959 . S
H1518 C1532 0.929 . S
H1519 C1533 0.931 . S
H1520 C1535 0.930 . S
C1521 H1509 0.930 . S
C1521 C1522 1.399 . S
C1521 C1526 1.399 . S
C1522 C1521 1.399 . S
C1522 C1523 1.376 . S
C1523 H1510 0.930 . S
C1523 C1522 1.376 . S
C1523 C1524 1.388 . S
C1524 H1511 0.930 . S
C1524 C1523 1.388 . S
C1524 C1525 1.390 . S
C1525 C1524 1.390 . S
C1525 C1526 1.394 . S
C1525 C1531 1.465 . S
C1526 C1521 1.399 . S
C1526 C1525 1.394 . S
C1526 C1527 1.516 . S
C1527 C1526 1.516 . S
C1527 C1528 1.502 . S
C1527 C1529 1.561 . S
C1527 C1530 1.526 . S
C1528 H1512 0.959 . S
C1528 H1513 0.959 . S
C1528 H1514 0.961 . S
C1528 C1527 1.502 . S
C1529 H1515 0.960 . S
C1529 H1516 0.961 . S
C1529 H1517 0.959 . S
C1529 C1527 1.561 . S
C1530 C1527 1.526 . S
C1530 C1531 1.396 . S
C1530 C1535 1.390 . S
C1531 C1525 1.465 . S
C1531 C1530 1.396 . S
C1531 C1532 1.399 . S
C1532 H1518 0.929 . S
C1532 C1531 1.399 . S
C1532 C1533 1.385 . S
C1533 H1519 0.931 . S
C1533 C1532 1.385 . S
C1533 C1534 1.389 . S
C1534 C1533 1.389 . S
C1534 C1535 1.387 . S
C1535 H1520 0.930 . S
C1535 C1530 1.390 . S
C1535 C1534 1.387 . S
H1536 C1548 0.930 . S
H1537 C1550 0.930 . S
H1538 C1551 0.930 . S
H1539 C1555 0.959 . S
H1540 C1555 0.959 . S
H1541 C1555 0.961 . S
H1542 C1556 0.960 . S
H1543 C1556 0.961 . S
H1544 C1556 0.959 . S
H1545 C1559 0.929 . S
H1546 C1560 0.931 . S
H1547 C1562 0.930 . S
C1548 H1536 0.930 . S
C1548 C1549 1.399 . S
C1548 C1553 1.399 . S
C1549 C1548 1.399 . S
C1549 C1550 1.376 . S
C1550 H1537 0.930 . S
C1550 C1549 1.376 . S
C1550 C1551 1.388 . S
C1551 H1538 0.930 . S
C1551 C1550 1.388 . S
C1551 C1552 1.390 . S
C1552 C1551 1.390 . S
C1552 C1553 1.394 . S
C1552 C1558 1.465 . S
C1553 C1548 1.399 . S
C1553 C1552 1.394 . S
C1553 C1554 1.516 . S
C1554 C1553 1.516 . S
C1554 C1555 1.502 . S
C1554 C1556 1.561 . S
C1554 C1557 1.526 . S
C1555 H1539 0.959 . S
C1555 H1540 0.959 . S
C1555 H1541 0.961 . S
C1555 C1554 1.502 . S
C1556 H1542 0.960 . S
C1556 H1543 0.961 . S
C1556 H1544 0.959 . S
C1556 C1554 1.561 . S
C1557 C1554 1.526 . S
C1557 C1558 1.396 . S
C1557 C1562 1.390 . S
C1558 C1552 1.465 . S
C1558 C1557 1.396 . S
C1558 C1559 1.399 . S
C1559 H1545 0.929 . S
C1559 C1558 1.399 . S
C1559 C1560 1.385 . S
C1560 H1546 0.931 . S
C1560 C1559 1.385 . S
C1560 C1561 1.389 . S
C1561 C1560 1.389 . S
C1561 C1562 1.387 . S
C1562 H1547 0.930 . S
C1562 C1557 1.390 . S
C1562 C1561 1.387 . S
H1563 C1575 0.930 . S
H1564 C1577 0.930 . S
H1565 C1578 0.930 . S
H1566 C1582 0.959 . S
H1567 C1582 0.959 . S
H1568 C1582 0.961 . S
H1569 C1583 0.960 . S
H1570 C1583 0.961 . S
H1571 C1583 0.959 . S
H1572 C1586 0.929 . S
H1573 C1587 0.931 . S
H1574 C1589 0.930 . S
C1575 H1563 0.930 . S
C1575 C1576 1.399 . S
C1575 C1580 1.399 . S
C1576 C1575 1.399 . S
C1576 C1577 1.376 . S
C1577 H1564 0.930 . S
C1577 C1576 1.376 . S
C1577 C1578 1.388 . S
C1578 H1565 0.930 . S
C1578 C1577 1.388 . S
C1578 C1579 1.390 . S
C1579 C1578 1.390 . S
C1579 C1580 1.394 . S
C1579 C1585 1.465 . S
C1580 C1575 1.399 . S
C1580 C1579 1.394 . S
C1580 C1581 1.516 . S
C1581 C1580 1.516 . S
C1581 C1582 1.502 . S
C1581 C1583 1.561 . S
C1581 C1584 1.526 . S
C1582 H1566 0.959 . S
C1582 H1567 0.959 . S
C1582 H1568 0.961 . S
C1582 C1581 1.502 . S
C1583 H1569 0.960 . S
C1583 H1570 0.961 . S
C1583 H1571 0.959 . S
C1583 C1581 1.561 . S
C1584 C1581 1.526 . S
C1584 C1585 1.396 . S
C1584 C1589 1.390 . S
C1585 C1579 1.465 . S
C1585 C1584 1.396 . S
C1585 C1586 1.399 . S
C1586 H1572 0.929 . S
C1586 C1585 1.399 . S
C1586 C1587 1.385 . S
C1587 H1573 0.931 . S
C1587 C1586 1.385 . S
C1587 C1588 1.389 . S
C1588 C1587 1.389 . S
C1588 C1589 1.387 . S
C1589 H1574 0.930 . S
C1589 C1584 1.390 . S
C1589 C1588 1.387 . S
H1590 C1602 0.930 . S
H1591 C1604 0.930 . S
H1592 C1605 0.930 . S
H1593 C1609 0.959 . S
H1594 C1609 0.959 . S
H1595 C1609 0.961 . S
H1596 C1610 0.960 . S
H1597 C1610 0.961 . S
H1598 C1610 0.959 . S
H1599 C1613 0.929 . S
H1600 C1614 0.931 . S
H1601 C1616 0.930 . S
C1602 H1590 0.930 . S
C1602 C1603 1.399 . S
C1602 C1607 1.399 . S
C1603 C1602 1.399 . S
C1603 C1604 1.376 . S
C1604 H1591 0.930 . S
C1604 C1603 1.376 . S
C1604 C1605 1.388 . S
C1605 H1592 0.930 . S
C1605 C1604 1.388 . S
C1605 C1606 1.390 . S
C1606 C1605 1.390 . S
C1606 C1607 1.394 . S
C1606 C1612 1.465 . S
C1607 C1602 1.399 . S
C1607 C1606 1.394 . S
C1607 C1608 1.516 . S
C1608 C1607 1.516 . S
C1608 C1609 1.502 . S
C1608 C1610 1.561 . S
C1608 C1611 1.526 . S
C1609 H1593 0.959 . S
C1609 H1594 0.959 . S
C1609 H1595 0.961 . S
C1609 C1608 1.502 . S
C1610 H1596 0.960 . S
C1610 H1597 0.961 . S
C1610 H1598 0.959 . S
C1610 C1608 1.561 . S
C1611 C1608 1.526 . S
C1611 C1612 1.396 . S
C1611 C1616 1.390 . S
C1612 C1606 1.465 . S
C1612 C1611 1.396 . S
C1612 C1613 1.399 . S
C1613 H1599 0.929 . S
C1613 C1612 1.399 . S
C1613 C1614 1.385 . S
C1614 H1600 0.931 . S
C1614 C1613 1.385 . S
C1614 C1615 1.389 . S
C1615 C1614 1.389 . S
C1615 C1616 1.387 . S
C1616 H1601 0.930 . S
C1616 C1611 1.390 . S
C1616 C1615 1.387 . S
H1617 C1629 0.930 . S
H1618 C1631 0.930 . S
H1619 C1632 0.930 . S
H1620 C1636 0.959 . S
H1621 C1636 0.959 . S
H1622 C1636 0.961 . S
H1623 C1637 0.960 . S
H1624 C1637 0.961 . S
H1625 C1637 0.959 . S
H1626 C1640 0.929 . S
H1627 C1641 0.931 . S
H1628 C1643 0.930 . S
C1629 H1617 0.930 . S
C1629 C1630 1.399 . S
C1629 C1634 1.399 . S
C1630 C1629 1.399 . S
C1630 C1631 1.376 . S
C1631 H1618 0.930 . S
C1631 C1630 1.376 . S
C1631 C1632 1.388 . S
C1632 H1619 0.930 . S
C1632 C1631 1.388 . S
C1632 C1633 1.390 . S
C1633 C1632 1.390 . S
C1633 C1634 1.394 . S
C1633 C1639 1.465 . S
C1634 C1629 1.399 . S
C1634 C1633 1.394 . S
C1634 C1635 1.516 . S
C1635 C1634 1.516 . S
C1635 C1636 1.502 . S
C1635 C1637 1.561 . S
C1635 C1638 1.526 . S
C1636 H1620 0.959 . S
C1636 H1621 0.959 . S
C1636 H1622 0.961 . S
C1636 C1635 1.502 . S
C1637 H1623 0.960 . S
C1637 H1624 0.961 . S
C1637 H1625 0.959 . S
C1637 C1635 1.561 . S
C1638 C1635 1.526 . S
C1638 C1639 1.396 . S
C1638 C1643 1.390 . S
C1639 C1633 1.465 . S
C1639 C1638 1.396 . S
C1639 C1640 1.399 . S
C1640 H1626 0.929 . S
C1640 C1639 1.399 . S
C1640 C1641 1.385 . S
C1641 H1627 0.931 . S
C1641 C1640 1.385 . S
C1641 C1642 1.389 . S
C1642 C1641 1.389 . S
C1642 C1643 1.387 . S
C1643 H1628 0.930 . S
C1643 C1638 1.390 . S
C1643 C1642 1.387 . S
H1644 C1656 0.930 . S
H1645 C1658 0.930 . S
H1646 C1659 0.930 . S
H1647 C1663 0.959 . S
H1648 C1663 0.959 . S
H1649 C1663 0.961 . S
H1650 C1664 0.960 . S
H1651 C1664 0.961 . S
H1652 C1664 0.959 . S
H1653 C1667 0.929 . S
H1654 C1668 0.931 . S
H1655 C1670 0.930 . S
C1656 H1644 0.930 . S
C1656 C1657 1.399 . S
C1656 C1661 1.399 . S
C1657 C1656 1.399 . S
C1657 C1658 1.376 . S
C1658 H1645 0.930 . S
C1658 C1657 1.376 . S
C1658 C1659 1.388 . S
C1659 H1646 0.930 . S
C1659 C1658 1.388 . S
C1659 C1660 1.390 . S
C1660 C1659 1.390 . S
C1660 C1661 1.394 . S
C1660 C1666 1.465 . S
C1661 C1656 1.399 . S
C1661 C1660 1.394 . S
C1661 C1662 1.516 . S
C1662 C1661 1.516 . S
C1662 C1663 1.502 . S
C1662 C1664 1.561 . S
C1662 C1665 1.526 . S
C1663 H1647 0.959 . S
C1663 H1648 0.959 . S
C1663 H1649 0.961 . S
C1663 C1662 1.502 . S
C1664 H1650 0.960 . S
C1664 H1651 0.961 . S
C1664 H1652 0.959 . S
C1664 C1662 1.561 . S
C1665 C1662 1.526 . S
C1665 C1666 1.396 . S
C1665 C1670 1.390 . S
C1666 C1660 1.465 . S
C1666 C1665 1.396 . S
C1666 C1667 1.399 . S
C1667 H1653 0.929 . S
C1667 C1666 1.399 . S
C1667 C1668 1.385 . S
C1668 H1654 0.931 . S
C1668 C1667 1.385 . S
C1668 C1669 1.389 . S
C1669 C1668 1.389 . S
C1669 C1670 1.387 . S
C1670 H1655 0.930 . S
C1670 C1665 1.390 . S
C1670 C1669 1.387 . S
H1671 C1683 0.930 . S
H1672 C1685 0.930 . S
H1673 C1686 0.930 . S
H1674 C1690 0.959 . S
H1675 C1690 0.959 . S
H1676 C1690 0.961 . S
H1677 C1691 0.960 . S
H1678 C1691 0.961 . S
H1679 C1691 0.959 . S
H1680 C1694 0.929 . S
H1681 C1695 0.931 . S
H1682 C1697 0.930 . S
C1683 H1671 0.930 . S
C1683 C1684 1.399 . S
C1683 C1688 1.399 . S
C1684 C1683 1.399 . S
C1684 C1685 1.376 . S
C1685 H1672 0.930 . S
C1685 C1684 1.376 . S
C1685 C1686 1.388 . S
C1686 H1673 0.930 . S
C1686 C1685 1.388 . S
C1686 C1687 1.390 . S
C1687 C1686 1.390 . S
C1687 C1688 1.394 . S
C1687 C1693 1.465 . S
C1688 C1683 1.399 . S
C1688 C1687 1.394 . S
C1688 C1689 1.516 . S
C1689 C1688 1.516 . S
C1689 C1690 1.502 . S
C1689 C1691 1.561 . S
C1689 C1692 1.526 . S
C1690 H1674 0.959 . S
C1690 H1675 0.959 . S
C1690 H1676 0.961 . S
C1690 C1689 1.502 . S
C1691 H1677 0.960 . S
C1691 H1678 0.961 . S
C1691 H1679 0.959 . S
C1691 C1689 1.561 . S
C1692 C1689 1.526 . S
C1692 C1693 1.396 . S
C1692 C1697 1.390 . S
C1693 C1687 1.465 . S
C1693 C1692 1.396 . S
C1693 C1694 1.399 . S
C1694 H1680 0.929 . S
C1694 C1693 1.399 . S
C1694 C1695 1.385 . S
C1695 H1681 0.931 . S
C1695 C1694 1.385 . S
C1695 C1696 1.389 . S
C1696 C1695 1.389 . S
C1696 C1697 1.387 . S
C1697 H1682 0.930 . S
C1697 C1692 1.390 . S
C1697 C1696 1.387 . S
H1698 C1710 0.930 . S
H1699 C1712 0.930 . S
H1700 C1713 0.930 . S
H1701 C1717 0.959 . S
H1702 C1717 0.959 . S
H1703 C1717 0.961 . S
H1704 C1718 0.960 . S
H1705 C1718 0.961 . S
H1706 C1718 0.959 . S
H1707 C1721 0.929 . S
H1708 C1722 0.931 . S
H1709 C1724 0.930 . S
C1710 H1698 0.930 . S
C1710 C1711 1.399 . S
C1710 C1715 1.399 . S
C1711 C1710 1.399 . S
C1711 C1712 1.376 . S
C1712 H1699 0.930 . S
C1712 C1711 1.376 . S
C1712 C1713 1.388 . S
C1713 H1700 0.930 . S
C1713 C1712 1.388 . S
C1713 C1714 1.390 . S
C1714 C1713 1.390 . S
C1714 C1715 1.394 . S
C1714 C1720 1.465 . S
C1715 C1710 1.399 . S
C1715 C1714 1.394 . S
C1715 C1716 1.516 . S
C1716 C1715 1.516 . S
C1716 C1717 1.502 . S
C1716 C1718 1.561 . S
C1716 C1719 1.526 . S
C1717 H1701 0.959 . S
C1717 H1702 0.959 . S
C1717 H1703 0.961 . S
C1717 C1716 1.502 . S
C1718 H1704 0.960 . S
C1718 H1705 0.961 . S
C1718 H1706 0.959 . S
C1718 C1716 1.561 . S
C1719 C1716 1.526 . S
C1719 C1720 1.396 . S
C1719 C1724 1.390 . S
C1720 C1714 1.465 . S
C1720 C1719 1.396 . S
C1720 C1721 1.399 . S
C1721 H1707 0.929 . S
C1721 C1720 1.399 . S
C1721 C1722 1.385 . S
C1722 H1708 0.931 . S
C1722 C1721 1.385 . S
C1722 C1723 1.389 . S
C1723 C1722 1.389 . S
C1723 C1724 1.387 . S
C1724 H1709 0.930 . S
C1724 C1719 1.390 . S
C1724 C1723 1.387 . S
H1725 C1737 0.930 . S
H1726 C1739 0.930 . S
H1727 C1740 0.930 . S
H1728 C1744 0.959 . S
H1729 C1744 0.959 . S
H1730 C1744 0.961 . S
H1731 C1745 0.960 . S
H1732 C1745 0.961 . S
H1733 C1745 0.959 . S
H1734 C1748 0.929 . S
H1735 C1749 0.931 . S
H1736 C1751 0.930 . S
C1737 H1725 0.930 . S
C1737 C1738 1.399 . S
C1737 C1742 1.399 . S
C1738 C1737 1.399 . S
C1738 C1739 1.376 . S
C1739 H1726 0.930 . S
C1739 C1738 1.376 . S
C1739 C1740 1.388 . S
C1740 H1727 0.930 . S
C1740 C1739 1.388 . S
C1740 C1741 1.390 . S
C1741 C1740 1.390 . S
C1741 C1742 1.394 . S
C1741 C1747 1.465 . S
C1742 C1737 1.399 . S
C1742 C1741 1.394 . S
C1742 C1743 1.516 . S
C1743 C1742 1.516 . S
C1743 C1744 1.502 . S
C1743 C1745 1.561 . S
C1743 C1746 1.526 . S
C1744 H1728 0.959 . S
C1744 H1729 0.959 . S
C1744 H1730 0.961 . S
C1744 C1743 1.502 . S
C1745 H1731 0.960 . S
C1745 H1732 0.961 . S
C1745 H1733 0.959 . S
C1745 C1743 1.561 . S
C1746 C1743 1.526 . S
C1746 C1747 1.396 . S
C1746 C1751 1.390 . S
C1747 C1741 1.465 . S
C1747 C1746 1.396 . S
C1747 C1748 1.399 . S
C1748 H1734 0.929 . S
C1748 C1747 1.399 . S
C1748 C1749 1.385 . S
C1749 H1735 0.931 . S
C1749 C1748 1.385 . S
C1749 C1750 1.389 . S
C1750 C1749 1.389 . S
C1750 C1751 1.387 . S
C1751 H1736 0.930 . S
C1751 C1746 1.390 . S
C1751 C1750 1.387 . S
H1752 C1764 0.930 . S
H1753 C1766 0.930 . S
H1754 C1767 0.930 . S
H1755 C1771 0.959 . S
H1756 C1771 0.959 . S
H1757 C1771 0.961 . S
H1758 C1772 0.960 . S
H1759 C1772 0.961 . S
H1760 C1772 0.959 . S
H1761 C1775 0.929 . S
H1762 C1776 0.931 . S
H1763 C1778 0.930 . S
C1764 H1752 0.930 . S
C1764 C1765 1.399 . S
C1764 C1769 1.399 . S
C1765 C1764 1.399 . S
C1765 C1766 1.376 . S
C1766 H1753 0.930 . S
C1766 C1765 1.376 . S
C1766 C1767 1.388 . S
C1767 H1754 0.930 . S
C1767 C1766 1.388 . S
C1767 C1768 1.390 . S
C1768 C1767 1.390 . S
C1768 C1769 1.394 . S
C1768 C1774 1.465 . S
C1769 C1764 1.399 . S
C1769 C1768 1.394 . S
C1769 C1770 1.516 . S
C1770 C1769 1.516 . S
C1770 C1771 1.502 . S
C1770 C1772 1.561 . S
C1770 C1773 1.526 . S
C1771 H1755 0.959 . S
C1771 H1756 0.959 . S
C1771 H1757 0.961 . S
C1771 C1770 1.502 . S
C1772 H1758 0.960 . S
C1772 H1759 0.961 . S
C1772 H1760 0.959 . S
C1772 C1770 1.561 . S
C1773 C1770 1.526 . S
C1773 C1774 1.396 . S
C1773 C1778 1.390 . S
C1774 C1768 1.465 . S
C1774 C1773 1.396 . S
C1774 C1775 1.399 . S
C1775 H1761 0.929 . S
C1775 C1774 1.399 . S
C1775 C1776 1.385 . S
C1776 H1762 0.931 . S
C1776 C1775 1.385 . S
C1776 C1777 1.389 . S
C1777 C1776 1.389 . S
C1777 C1778 1.387 . S
C1778 H1763 0.930 . S
C1778 C1773 1.390 . S
C1778 C1777 1.387 . S
H1779 C1791 0.930 . S
H1780 C1793 0.930 . S
H1781 C1794 0.930 . S
H1782 C1798 0.959 . S
H1783 C1798 0.959 . S
H1784 C1798 0.961 . S
H1785 C1799 0.960 . S
H1786 C1799 0.961 . S
H1787 C1799 0.959 . S
H1788 C1802 0.929 . S
H1789 C1803 0.931 . S
H1790 C1805 0.930 . S
C1791 H1779 0.930 . S
C1791 C1792 1.399 . S
C1791 C1796 1.399 . S
C1792 C1791 1.399 . S
C1792 C1793 1.376 . S
C1793 H1780 0.930 . S
C1793 C1792 1.376 . S
C1793 C1794 1.388 . S
C1794 H1781 0.930 . S
C1794 C1793 1.388 . S
C1794 C1795 1.390 . S
C1795 C1794 1.390 . S
C1795 C1796 1.394 . S
C1795 C1801 1.465 . S
C1796 C1791 1.399 . S
C1796 C1795 1.394 . S
C1796 C1797 1.516 . S
C1797 C1796 1.516 . S
C1797 C1798 1.502 . S
C1797 C1799 1.561 . S
C1797 C1800 1.526 . S
C1798 H1782 0.959 . S
C1798 H1783 0.959 . S
C1798 H1784 0.961 . S
C1798 C1797 1.502 . S
C1799 H1785 0.960 . S
C1799 H1786 0.961 . S
C1799 H1787 0.959 . S
C1799 C1797 1.561 . S
C1800 C1797 1.526 . S
C1800 C1801 1.396 . S
C1800 C1805 1.390 . S
C1801 C1795 1.465 . S
C1801 C1800 1.396 . S
C1801 C1802 1.399 . S
C1802 H1788 0.929 . S
C1802 C1801 1.399 . S
C1802 C1803 1.385 . S
C1803 H1789 0.931 . S
C1803 C1802 1.385 . S
C1803 C1804 1.389 . S
C1804 C1803 1.389 . S
C1804 C1805 1.387 . S
C1805 H1790 0.930 . S
C1805 C1800 1.390 . S
C1805 C1804 1.387 . S
H1806 C1818 0.930 . S
H1807 C1820 0.930 . S
H1808 C1821 0.930 . S
H1809 C1825 0.959 . S
H1810 C1825 0.959 . S
H1811 C1825 0.961 . S
H1812 C1826 0.960 . S
H1813 C1826 0.961 . S
H1814 C1826 0.959 . S
H1815 C1829 0.929 . S
H1816 C1830 0.931 . S
H1817 C1832 0.930 . S
C1818 H1806 0.930 . S
C1818 C1819 1.399 . S
C1818 C1823 1.399 . S
C1819 C1818 1.399 . S
C1819 C1820 1.376 . S
C1820 H1807 0.930 . S
C1820 C1819 1.376 . S
C1820 C1821 1.388 . S
C1821 H1808 0.930 . S
C1821 C1820 1.388 . S
C1821 C1822 1.390 . S
C1822 C1821 1.390 . S
C1822 C1823 1.394 . S
C1822 C1828 1.465 . S
C1823 C1818 1.399 . S
C1823 C1822 1.394 . S
C1823 C1824 1.516 . S
C1824 C1823 1.516 . S
C1824 C1825 1.502 . S
C1824 C1826 1.561 . S
C1824 C1827 1.526 . S
C1825 H1809 0.959 . S
C1825 H1810 0.959 . S
C1825 H1811 0.961 . S
C1825 C1824 1.502 . S
C1826 H1812 0.960 . S
C1826 H1813 0.961 . S
C1826 H1814 0.959 . S
C1826 C1824 1.561 . S
C1827 C1824 1.526 . S
C1827 C1828 1.396 . S
C1827 C1832 1.390 . S
C1828 C1822 1.465 . S
C1828 C1827 1.396 . S
C1828 C1829 1.399 . S
C1829 H1815 0.929 . S
C1829 C1828 1.399 . S
C1829 C1830 1.385 . S
C1830 H1816 0.931 . S
C1830 C1829 1.385 . S
C1830 C1831 1.389 . S
C1831 C1830 1.389 . S
C1831 C1832 1.387 . S
C1832 H1817 0.930 . S
C1832 C1827 1.390 . S
C1832 C1831 1.387 . S
H1833 C1845 0.930 . S
H1834 C1847 0.930 . S
H1835 C1848 0.930 . S
H1836 C1852 0.959 . S
H1837 C1852 0.959 . S
H1838 C1852 0.961 . S
H1839 C1853 0.960 . S
H1840 C1853 0.961 . S
H1841 C1853 0.959 . S
H1842 C1856 0.929 . S
H1843 C1857 0.931 . S
H1844 C1859 0.930 . S
C1845 H1833 0.930 . S
C1845 C1846 1.399 . S
C1845 C1850 1.399 . S
C1846 C1845 1.399 . S
C1846 C1847 1.376 . S
C1847 H1834 0.930 . S
C1847 C1846 1.376 . S
C1847 C1848 1.388 . S
C1848 H1835 0.930 . S
C1848 C1847 1.388 . S
C1848 C1849 1.390 . S
C1849 C1848 1.390 . S
C1849 C1850 1.394 . S
C1849 C1855 1.465 . S
C1850 C1845 1.399 . S
C1850 C1849 1.394 . S
C1850 C1851 1.516 . S
C1851 C1850 1.516 . S
C1851 C1852 1.502 . S
C1851 C1853 1.561 . S
C1851 C1854 1.526 . S
C1852 H1836 0.959 . S
C1852 H1837 0.959 . S
C1852 H1838 0.961 . S
C1852 C1851 1.502 . S
C1853 H1839 0.960 . S
C1853 H1840 0.961 . S
C1853 H1841 0.959 . S
C1853 C1851 1.561 . S
C1854 C1851 1.526 . S
C1854 C1855 1.396 . S
C1854 C1859 1.390 . S
C1855 C1849 1.465 . S
C1855 C1854 1.396 . S
C1855 C1856 1.399 . S
C1856 H1842 0.929 . S
C1856 C1855 1.399 . S
C1856 C1857 1.385 . S
C1857 H1843 0.931 . S
C1857 C1856 1.385 . S
C1857 C1858 1.389 . S
C1858 C1857 1.389 . S
C1858 C1859 1.387 . S
C1859 H1844 0.930 . S
C1859 C1854 1.390 . S
C1859 C1858 1.387 . S
H1860 C1872 0.930 . S
H1861 C1874 0.930 . S
H1862 C1875 0.930 . S
H1863 C1879 0.959 . S
H1864 C1879 0.959 . S
H1865 C1879 0.961 . S
H1866 C1880 0.960 . S
H1867 C1880 0.961 . S
H1868 C1880 0.959 . S
H1869 C1883 0.929 . S
H1870 C1884 0.931 . S
H1871 C1886 0.930 . S
C1872 H1860 0.930 . S
C1872 C1873 1.399 . S
C1872 C1877 1.399 . S
C1873 C1872 1.399 . S
C1873 C1874 1.376 . S
C1874 H1861 0.930 . S
C1874 C1873 1.376 . S
C1874 C1875 1.388 . S
C1875 H1862 0.930 . S
C1875 C1874 1.388 . S
C1875 C1876 1.390 . S
C1876 C1875 1.390 . S
C1876 C1877 1.394 . S
C1876 C1882 1.465 . S
C1877 C1872 1.399 . S
C1877 C1876 1.394 . S
C1877 C1878 1.516 . S
C1878 C1877 1.516 . S
C1878 C1879 1.502 . S
C1878 C1880 1.561 . S
C1878 C1881 1.526 . S
C1879 H1863 0.959 . S
C1879 H1864 0.959 . S
C1879 H1865 0.961 . S
C1879 C1878 1.502 . S
C1880 H1866 0.960 . S
C1880 H1867 0.961 . S
C1880 H1868 0.959 . S
C1880 C1878 1.561 . S
C1881 C1878 1.526 . S
C1881 C1882 1.396 . S
C1881 C1886 1.390 . S
C1882 C1876 1.465 . S
C1882 C1881 1.396 . S
C1882 C1883 1.399 . S
C1883 H1869 0.929 . S
C1883 C1882 1.399 . S
C1883 C1884 1.385 . S
C1884 H1870 0.931 . S
C1884 C1883 1.385 . S
C1884 C1885 1.389 . S
C1885 C1884 1.389 . S
C1885 C1886 1.387 . S
C1886 H1871 0.930 . S
C1886 C1881 1.390 . S
C1886 C1885 1.387 . S
H1887 C1899 0.930 . S
H1888 C1901 0.930 . S
H1889 C1902 0.930 . S
H1890 C1906 0.959 . S
H1891 C1906 0.959 . S
H1892 C1906 0.961 . S
H1893 C1907 0.960 . S
H1894 C1907 0.961 . S
H1895 C1907 0.959 . S
H1896 C1910 0.929 . S
H1897 C1911 0.931 . S
H1898 C1913 0.930 . S
C1899 H1887 0.930 . S
C1899 C1900 1.399 . S
C1899 C1904 1.399 . S
C1900 C1899 1.399 . S
C1900 C1901 1.376 . S
C1901 H1888 0.930 . S
C1901 C1900 1.376 . S
C1901 C1902 1.388 . S
C1902 H1889 0.930 . S
C1902 C1901 1.388 . S
C1902 C1903 1.390 . S
C1903 C1902 1.390 . S
C1903 C1904 1.394 . S
C1903 C1909 1.465 . S
C1904 C1899 1.399 . S
C1904 C1903 1.394 . S
C1904 C1905 1.516 . S
C1905 C1904 1.516 . S
C1905 C1906 1.502 . S
C1905 C1907 1.561 . S
C1905 C1908 1.526 . S
C1906 H1890 0.959 . S
C1906 H1891 0.959 . S
C1906 H1892 0.961 . S
C1906 C1905 1.502 . S
C1907 H1893 0.960 . S
C1907 H1894 0.961 . S
C1907 H1895 0.959 . S
C1907 C1905 1.561 . S
C1908 C1905 1.526 . S
C1908 C1909 1.396 . S
C1908 C1913 1.390 . S
C1909 C1903 1.465 . S
C1909 C1908 1.396 . S
C1909 C1910 1.399 . S
C1910 H1896 0.929 . S
C1910 C1909 1.399 . S
C1910 C1911 1.385 . S
C1911 H1897 0.931 . S
C1911 C1910 1.385 . S
C1911 C1912 1.389 . S
C1912 C1911 1.389 . S
C1912 C1913 1.387 . S
C1913 H1898 0.930 . S
C1913 C1908 1.390 . S
C1913 C1912 1.387 . S
H1914 C1926 0.930 . S
H1915 C1928 0.930 . S
H1916 C1929 0.930 . S
H1917 C1933 0.959 . S
H1918 C1933 0.959 . S
H1919 C1933 0.961 . S
H1920 C1934 0.960 . S
H1921 C1934 0.961 . S
H1922 C1934 0.959 . S
H1923 C1937 0.929 . S
H1924 C1938 0.931 . S
H1925 C1940 0.930 . S
C1926 H1914 0.930 . S
C1926 C1927 1.399 . S
C1926 C1931 1.399 . S
C1927 C1926 1.399 . S
C1927 C1928 1.376 . S
C1928 H1915 0.930 . S
C1928 C1927 1.376 . S
C1928 C1929 1.388 . S
C1929 H1916 0.930 . S
C1929 C1928 1.388 . S
C1929 C1930 1.390 . S
C1930 C1929 1.390 . S
C1930 C1931 1.394 . S
C1930 C1936 1.465 . S
C1931 C1926 1.399 . S
C1931 C1930 1.394 . S
C1931 C1932 1.516 . S
C1932 C1931 1.516 . S
C1932 C1933 1.502 . S
C1932 C1934 1.561 . S
C1932 C1935 1.526 . S
C1933 H1917 0.959 . S
C1933 H1918 0.959 . S
C1933 H1919 0.961 . S
C1933 C1932 1.502 . S
C1934 H1920 0.960 . S
C1934 H1921 0.961 . S
C1934 H1922 0.959 . S
C1934 C1932 1.561 . S
C1935 C1932 1.526 . S
C1935 C1936 1.396 . S
C1935 C1940 1.390 . S
C1936 C1930 1.465 . S
C1936 C1935 1.396 . S
C1936 C1937 1.399 . S
C1937 H1923 0.929 . S
C1937 C1936 1.399 . S
C1937 C1938 1.385 . S
C1938 H1924 0.931 . S
C1938 C1937 1.385 . S
C1938 C1939 1.389 . S
C1939 C1938 1.389 . S
C1939 C1940 1.387 . S
C1940 H1925 0.930 . S
C1940 C1935 1.390 . S
C1940 C1939 1.387 . S
H1941 C1953 0.930 . S
H1942 C1955 0.930 . S
H1943 C1956 0.930 . S
H1944 C1960 0.959 . S
H1945 C1960 0.959 . S
H1946 C1960 0.961 . S
H1947 C1961 0.960 . S
H1948 C1961 0.961 . S
H1949 C1961 0.959 . S
H1950 C1964 0.929 . S
H1951 C1965 0.931 . S
H1952 C1967 0.930 . S
C1953 H1941 0.930 . S
C1953 C1954 1.399 . S
C1953 C1958 1.399 . S
C1954 C1953 1.399 . S
C1954 C1955 1.376 . S
C1955 H1942 0.930 . S
C1955 C1954 1.376 . S
C1955 C1956 1.388 . S
C1956 H1943 0.930 . S
C1956 C1955 1.388 . S
C1956 C1957 1.390 . S
C1957 C1956 1.390 . S
C1957 C1958 1.394 . S
C1957 C1963 1.465 . S
C1958 C1953 1.399 . S
C1958 C1957 1.394 . S
C1958 C1959 1.516 . S
C1959 C1958 1.516 . S
C1959 C1960 1.502 . S
C1959 C1961 1.561 . S
C1959 C1962 1.526 . S
C1960 H1944 0.959 . S
C1960 H1945 0.959 . S
C1960 H1946 0.961 . S
C1960 C1959 1.502 . S
C1961 H1947 0.960 . S
C1961 H1948 0.961 . S
C1961 H1949 0.959 . S
C1961 C1959 1.561 . S
C1962 C1959 1.526 . S
C1962 C1963 1.396 . S
C1962 C1967 1.390 . S
C1963 C1957 1.465 . S
C1963 C1962 1.396 . S
C1963 C1964 1.399 . S
C1964 H1950 0.929 . S
C1964 C1963 1.399 . S
C1964 C1965 1.385 . S
C1965 H1951 0.931 . S
C1965 C1964 1.385 . S
C1965 C1966 1.389 . S
C1966 C1965 1.389 . S
C1966 C1967 1.387 . S
C1967 H1952 0.930 . S
C1967 C1962 1.390 . S
C1967 C1966 1.387 . S
H1968 C1980 0.930 . S
H1969 C1982 0.930 . S
H1970 C1983 0.930 . S
H1971 C1987 0.959 . S
H1972 C1987 0.959 . S
H1973 C1987 0.961 . S
H1974 C1988 0.960 . S
H1975 C1988 0.961 . S
H1976 C1988 0.959 . S
H1977 C1991 0.929 . S
H1978 C1992 0.931 . S
H1979 C1994 0.930 . S
C1980 H1968 0.930 . S
C1980 C1981 1.399 . S
C1980 C1985 1.399 . S
C1981 C1980 1.399 . S
C1981 C1982 1.376 . S
C1982 H1969 0.930 . S
C1982 C1981 1.376 . S
C1982 C1983 1.388 . S
C1983 H1970 0.930 . S
C1983 C1982 1.388 . S
C1983 C1984 1.390 . S
C1984 C1983 1.390 . S
C1984 C1985 1.394 . S
C1984 C1990 1.465 . S
C1985 C1980 1.399 . S
C1985 C1984 1.394 . S
C1985 C1986 1.516 . S
C1986 C1985 1.516 . S
C1986 C1987 1.502 . S
C1986 C1988 1.561 . S
C1986 C1989 1.526 . S
C1987 H1971 0.959 . S
C1987 H1972 0.959 . S
C1987 H1973 0.961 . S
C1987 C1986 1.502 . S
C1988 H1974 0.960 . S
C1988 H1975 0.961 . S
C1988 H1976 0.959 . S
C1988 C1986 1.561 . S
C1989 C1986 1.526 . S
C1989 C1990 1.396 . S
C1989 C1994 1.390 . S
C1990 C1984 1.465 . S
C1990 C1989 1.396 . S
C1990 C1991 1.399 . S
C1991 H1977 0.929 . S
C1991 C1990 1.399 . S
C1991 C1992 1.385 . S
C1992 H1978 0.931 . S
C1992 C1991 1.385 . S
C1992 C1993 1.389 . S
C1993 C1992 1.389 . S
C1993 C1994 1.387 . S
C1994 H1979 0.930 . S
C1994 C1989 1.390 . S
C1994 C1993 1.387 . S
H1995 C2007 0.930 . S
H1996 C2009 0.930 . S
H1997 C2010 0.930 . S
H1998 C2014 0.959 . S
H1999 C2014 0.959 . S
H2000 C2014 0.961 . S
H2001 C2015 0.960 . S
H2002 C2015 0.961 . S
H2003 C2015 0.959 . S
H2004 C2018 0.929 . S
H2005 C2019 0.931 . S
H2006 C2021 0.930 . S
C2007 H1995 0.930 . S
C2007 C2008 1.399 . S
C2007 C2012 1.399 . S
C2008 C2007 1.399 . S
C2008 C2009 1.376 . S
C2009 H1996 0.930 . S
C2009 C2008 1.376 . S
C2009 C2010 1.388 . S
C2010 H1997 0.930 . S
C2010 C2009 1.388 . S
C2010 C2011 1.390 . S
C2011 C2010 1.390 . S
C2011 C2012 1.394 . S
C2011 C2017 1.465 . S
C2012 C2007 1.399 . S
C2012 C2011 1.394 . S
C2012 C2013 1.516 . S
C2013 C2012 1.516 . S
C2013 C2014 1.502 . S
C2013 C2015 1.561 . S
C2013 C2016 1.526 . S
C2014 H1998 0.959 . S
C2014 H1999 0.959 . S
C2014 H2000 0.961 . S
C2014 C2013 1.502 . S
C2015 H2001 0.960 . S
C2015 H2002 0.961 . S
C2015 H2003 0.959 . S
C2015 C2013 1.561 . S
C2016 C2013 1.526 . S
C2016 C2017 1.396 . S
C2016 C2021 1.390 . S
C2017 C2011 1.465 . S
C2017 C2016 1.396 . S
C2017 C2018 1.399 . S
C2018 H2004 0.929 . S
C2018 C2017 1.399 . S
C2018 C2019 1.385 . S
C2019 H2005 0.931 . S
C2019 C2018 1.385 . S
C2019 C2020 1.389 . S
C2020 C2019 1.389 . S
C2020 C2021 1.387 . S
C2021 H2006 0.930 . S
C2021 C2016 1.390 . S
C2021 C2020 1.387 . S
H2022 C2034 0.930 . S
H2023 C2036 0.930 . S
H2024 C2037 0.930 . S
H2025 C2041 0.959 . S
H2026 C2041 0.959 . S
H2027 C2041 0.961 . S
H2028 C2042 0.960 . S
H2029 C2042 0.961 . S
H2030 C2042 0.959 . S
H2031 C2045 0.929 . S
H2032 C2046 0.931 . S
H2033 C2048 0.930 . S
C2034 H2022 0.930 . S
C2034 C2035 1.399 . S
C2034 C2039 1.399 . S
C2035 C2034 1.399 . S
C2035 C2036 1.376 . S
C2036 H2023 0.930 . S
C2036 C2035 1.376 . S
C2036 C2037 1.388 . S
C2037 H2024 0.930 . S
C2037 C2036 1.388 . S
C2037 C2038 1.390 . S
C2038 C2037 1.390 . S
C2038 C2039 1.394 . S
C2038 C2044 1.465 . S
C2039 C2034 1.399 . S
C2039 C2038 1.394 . S
C2039 C2040 1.516 . S
C2040 C2039 1.516 . S
C2040 C2041 1.502 . S
C2040 C2042 1.561 . S
C2040 C2043 1.526 . S
C2041 H2025 0.959 . S
C2041 H2026 0.959 . S
C2041 H2027 0.961 . S
C2041 C2040 1.502 . S
C2042 H2028 0.960 . S
C2042 H2029 0.961 . S
C2042 H2030 0.959 . S
C2042 C2040 1.561 . S
C2043 C2040 1.526 . S
C2043 C2044 1.396 . S
C2043 C2048 1.390 . S
C2044 C2038 1.465 . S
C2044 C2043 1.396 . S
C2044 C2045 1.399 . S
C2045 H2031 0.929 . S
C2045 C2044 1.399 . S
C2045 C2046 1.385 . S
C2046 H2032 0.931 . S
C2046 C2045 1.385 . S
C2046 C2047 1.389 . S
C2047 C2046 1.389 . S
C2047 C2048 1.387 . S
C2048 H2033 0.930 . S
C2048 C2043 1.390 . S
C2048 C2047 1.387 . S
H2049 C2061 0.930 . S
H2050 C2063 0.930 . S
H2051 C2064 0.930 . S
H2052 C2068 0.959 . S
H2053 C2068 0.959 . S
H2054 C2068 0.961 . S
H2055 C2069 0.960 . S
H2056 C2069 0.961 . S
H2057 C2069 0.959 . S
H2058 C2072 0.929 . S
H2059 C2073 0.931 . S
H2060 C2075 0.930 . S
C2061 H2049 0.930 . S
C2061 C2062 1.399 . S
C2061 C2066 1.399 . S
C2062 C2061 1.399 . S
C2062 C2063 1.376 . S
C2063 H2050 0.930 . S
C2063 C2062 1.376 . S
C2063 C2064 1.388 . S
C2064 H2051 0.930 . S
C2064 C2063 1.388 . S
C2064 C2065 1.390 . S
C2065 C2064 1.390 . S
C2065 C2066 1.394 . S
C2065 C2071 1.465 . S
C2066 C2061 1.399 . S
C2066 C2065 1.394 . S
C2066 C2067 1.516 . S
C2067 C2066 1.516 . S
C2067 C2068 1.502 . S
C2067 C2069 1.561 . S
C2067 C2070 1.526 . S
C2068 H2052 0.959 . S
C2068 H2053 0.959 . S
C2068 H2054 0.961 . S
C2068 C2067 1.502 . S
C2069 H2055 0.960 . S
C2069 H2056 0.961 . S
C2069 H2057 0.959 . S
C2069 C2067 1.561 . S
C2070 C2067 1.526 . S
C2070 C2071 1.396 . S
C2070 C2075 1.390 . S
C2071 C2065 1.465 . S
C2071 C2070 1.396 . S
C2071 C2072 1.399 . S
C2072 H2058 0.929 . S
C2072 C2071 1.399 . S
C2072 C2073 1.385 . S
C2073 H2059 0.931 . S
C2073 C2072 1.385 . S
C2073 C2074 1.389 . S
C2074 C2073 1.389 . S
C2074 C2075 1.387 . S
C2075 H2060 0.930 . S
C2075 C2070 1.390 . S
C2075 C2074 1.387 . S
H2076 C2088 0.930 . S
H2077 C2090 0.930 . S
H2078 C2091 0.930 . S
H2079 C2095 0.959 . S
H2080 C2095 0.959 . S
H2081 C2095 0.961 . S
H2082 C2096 0.960 . S
H2083 C2096 0.961 . S
H2084 C2096 0.959 . S
H2085 C2099 0.929 . S
H2086 C2100 0.931 . S
H2087 C2102 0.930 . S
C2088 H2076 0.930 . S
C2088 C2089 1.399 . S
C2088 C2093 1.399 . S
C2089 C2088 1.399 . S
C2089 C2090 1.376 . S
C2090 H2077 0.930 . S
C2090 C2089 1.376 . S
C2090 C2091 1.388 . S
C2091 H2078 0.930 . S
C2091 C2090 1.388 . S
C2091 C2092 1.390 . S
C2092 C2091 1.390 . S
C2092 C2093 1.394 . S
C2092 C2098 1.465 . S
C2093 C2088 1.399 . S
C2093 C2092 1.394 . S
C2093 C2094 1.516 . S
C2094 C2093 1.516 . S
C2094 C2095 1.502 . S
C2094 C2096 1.561 . S
C2094 C2097 1.526 . S
C2095 H2079 0.959 . S
C2095 H2080 0.959 . S
C2095 H2081 0.961 . S
C2095 C2094 1.502 . S
C2096 H2082 0.960 . S
C2096 H2083 0.961 . S
C2096 H2084 0.959 . S
C2096 C2094 1.561 . S
C2097 C2094 1.526 . S
C2097 C2098 1.396 . S
C2097 C2102 1.390 . S
C2098 C2092 1.465 . S
C2098 C2097 1.396 . S
C2098 C2099 1.399 . S
C2099 H2085 0.929 . S
C2099 C2098 1.399 . S
C2099 C2100 1.385 . S
C2100 H2086 0.931 . S
C2100 C2099 1.385 . S
C2100 C2101 1.389 . S
C2101 C2100 1.389 . S
C2101 C2102 1.387 . S
C2102 H2087 0.930 . S
C2102 C2097 1.390 . S
C2102 C2101 1.387 . S
H2103 C2115 0.930 . S
H2104 C2117 0.930 . S
H2105 C2118 0.930 . S
H2106 C2122 0.959 . S
H2107 C2122 0.959 . S
H2108 C2122 0.961 . S
H2109 C2123 0.960 . S
H2110 C2123 0.961 . S
H2111 C2123 0.959 . S
H2112 C2126 0.929 . S
H2113 C2127 0.931 . S
H2114 C2129 0.930 . S
C2115 H2103 0.930 . S
C2115 C2116 1.399 . S
C2115 C2120 1.399 . S
C2116 C2115 1.399 . S
C2116 C2117 1.376 . S
C2117 H2104 0.930 . S
C2117 C2116 1.376 . S
C2117 C2118 1.388 . S
C2118 H2105 0.930 . S
C2118 C2117 1.388 . S
C2118 C2119 1.390 . S
C2119 C2118 1.390 . S
C2119 C2120 1.394 . S
C2119 C2125 1.465 . S
C2120 C2115 1.399 . S
C2120 C2119 1.394 . S
C2120 C2121 1.516 . S
C2121 C2120 1.516 . S
C2121 C2122 1.502 . S
C2121 C2123 1.561 . S
C2121 C2124 1.526 . S
C2122 H2106 0.959 . S
C2122 H2107 0.959 . S
C2122 H2108 0.961 . S
C2122 C2121 1.502 . S
C2123 H2109 0.960 . S
C2123 H2110 0.961 . S
C2123 H2111 0.959 . S
C2123 C2121 1.561 . S
C2124 C2121 1.526 . S
C2124 C2125 1.396 . S
C2124 C2129 1.390 . S
C2125 C2119 1.465 . S
C2125 C2124 1.396 . S
C2125 C2126 1.399 . S
C2126 H2112 0.929 . S
C2126 C2125 1.399 . S
C2126 C2127 1.385 . S
C2127 H2113 0.931 . S
C2127 C2126 1.385 . S
C2127 C2128 1.389 . S
C2128 C2127 1.389 . S
C2128 C2129 1.387 . S
C2129 H2114 0.930 . S
C2129 C2124 1.390 . S
C2129 C2128 1.387 . S
H2130 C2142 0.930 . S
H2131 C2144 0.930 . S
H2132 C2145 0.930 . S
H2133 C2149 0.959 . S
H2134 C2149 0.959 . S
H2135 C2149 0.961 . S
H2136 C2150 0.960 . S
H2137 C2150 0.961 . S
H2138 C2150 0.959 . S
H2139 C2153 0.929 . S
H2140 C2154 0.931 . S
H2141 C2156 0.930 . S
C2142 H2130 0.930 . S
C2142 C2143 1.399 . S
C2142 C2147 1.399 . S
C2143 C2142 1.399 . S
C2143 C2144 1.376 . S
C2144 H2131 0.930 . S
C2144 C2143 1.376 . S
C2144 C2145 1.388 . S
C2145 H2132 0.930 . S
C2145 C2144 1.388 . S
C2145 C2146 1.390 . S
C2146 C2145 1.390 . S
C2146 C2147 1.394 . S
C2146 C2152 1.465 . S
C2147 C2142 1.399 . S
C2147 C2146 1.394 . S
C2147 C2148 1.516 . S
C2148 C2147 1.516 . S
C2148 C2149 1.502 . S
C2148 C2150 1.561 . S
C2148 C2151 1.526 . S
C2149 H2133 0.959 . S
C2149 H2134 0.959 . S
C2149 H2135 0.961 . S
C2149 C2148 1.502 . S
C2150 H2136 0.960 . S
C2150 H2137 0.961 . S
C2150 H2138 0.959 . S
C2150 C2148 1.561 . S
C2151 C2148 1.526 . S
C2151 C2152 1.396 . S
C2151 C2156 1.390 . S
C2152 C2146 1.465 . S
C2152 C2151 1.396 . S
C2152 C2153 1.399 . S
C2153 H2139 0.929 . S
C2153 C2152 1.399 . S
C2153 C2154 1.385 . S
C2154 H2140 0.931 . S
C2154 C2153 1.385 . S
C2154 C2155 1.389 . S
C2155 C2154 1.389 . S
C2155 C2156 1.387 . S
C2156 H2141 0.930 . S
C2156 C2151 1.390 . S
C2156 C2155 1.387 . S
H2157 C2169 0.930 . S
H2158 C2171 0.930 . S
H2159 C2172 0.930 . S
H2160 C2176 0.959 . S
H2161 C2176 0.959 . S
H2162 C2176 0.961 . S
H2163 C2177 0.960 . S
H2164 C2177 0.961 . S
H2165 C2177 0.959 . S
H2166 C2180 0.929 . S
H2167 C2181 0.931 . S
H2168 C2183 0.930 . S
C2169 H2157 0.930 . S
C2169 C2170 1.399 . S
C2169 C2174 1.399 . S
C2170 C2169 1.399 . S
C2170 C2171 1.376 . S
C2171 H2158 0.930 . S
C2171 C2170 1.376 . S
C2171 C2172 1.388 . S
C2172 H2159 0.930 . S
C2172 C2171 1.388 . S
C2172 C2173 1.390 . S
C2173 C2172 1.390 . S
C2173 C2174 1.394 . S
C2173 C2179 1.465 . S
C2174 C2169 1.399 . S
C2174 C2173 1.394 . S
C2174 C2175 1.516 . S
C2175 C2174 1.516 . S
C2175 C2176 1.502 . S
C2175 C2177 1.561 . S
C2175 C2178 1.526 . S
C2176 H2160 0.959 . S
C2176 H2161 0.959 . S
C2176 H2162 0.961 . S
C2176 C2175 1.502 . S
C2177 H2163 0.960 . S
C2177 H2164 0.961 . S
C2177 H2165 0.959 . S
C2177 C2175 1.561 . S
C2178 C2175 1.526 . S
C2178 C2179 1.396 . S
C2178 C2183 1.390 . S
C2179 C2173 1.465 . S
C2179 C2178 1.396 . S
C2179 C2180 1.399 . S
C2180 H2166 0.929 . S
C2180 C2179 1.399 . S
C2180 C2181 1.385 . S
C2181 H2167 0.931 . S
C2181 C2180 1.385 . S
C2181 C2182 1.389 . S
C2182 C2181 1.389 . S
C2182 C2183 1.387 . S
C2183 H2168 0.930 . S
C2183 C2178 1.390 . S
C2183 C2182 1.387 . S
H2184 C2196 0.930 . S
H2185 C2198 0.930 . S
H2186 C2199 0.930 . S
H2187 C2203 0.959 . S
H2188 C2203 0.959 . S
H2189 C2203 0.961 . S
H2190 C2204 0.960 . S
H2191 C2204 0.961 . S
H2192 C2204 0.959 . S
H2193 C2207 0.929 . S
H2194 C2208 0.931 . S
H2195 C2210 0.930 . S
C2196 H2184 0.930 . S
C2196 C2197 1.399 . S
C2196 C2201 1.399 . S
C2197 C2196 1.399 . S
C2197 C2198 1.376 . S
C2198 H2185 0.930 . S
C2198 C2197 1.376 . S
C2198 C2199 1.388 . S
C2199 H2186 0.930 . S
C2199 C2198 1.388 . S
C2199 C2200 1.390 . S
C2200 C2199 1.390 . S
C2200 C2201 1.394 . S
C2200 C2206 1.465 . S
C2201 C2196 1.399 . S
C2201 C2200 1.394 . S
C2201 C2202 1.516 . S
C2202 C2201 1.516 . S
C2202 C2203 1.502 . S
C2202 C2204 1.561 . S
C2202 C2205 1.526 . S
C2203 H2187 0.959 . S
C2203 H2188 0.959 . S
C2203 H2189 0.961 . S
C2203 C2202 1.502 . S
C2204 H2190 0.960 . S
C2204 H2191 0.961 . S
C2204 H2192 0.959 . S
C2204 C2202 1.561 . S
C2205 C2202 1.526 . S
C2205 C2206 1.396 . S
C2205 C2210 1.390 . S
C2206 C2200 1.465 . S
C2206 C2205 1.396 . S
C2206 C2207 1.399 . S
C2207 H2193 0.929 . S
C2207 C2206 1.399 . S
C2207 C2208 1.385 . S
C2208 H2194 0.931 . S
C2208 C2207 1.385 . S
C2208 C2209 1.389 . S
C2209 C2208 1.389 . S
C2209 C2210 1.387 . S
C2210 H2195 0.930 . S
C2210 C2205 1.390 . S
C2210 C2209 1.387 . S
H2211 C2223 0.930 . S
H2212 C2225 0.930 . S
H2213 C2226 0.930 . S
H2214 C2230 0.959 . S
H2215 C2230 0.959 . S
H2216 C2230 0.961 . S
H2217 C2231 0.960 . S
H2218 C2231 0.961 . S
H2219 C2231 0.959 . S
H2220 C2234 0.929 . S
H2221 C2235 0.931 . S
H2222 C2237 0.930 . S
C2223 H2211 0.930 . S
C2223 C2224 1.399 . S
C2223 C2228 1.399 . S
C2224 C2223 1.399 . S
C2224 C2225 1.376 . S
C2225 H2212 0.930 . S
C2225 C2224 1.376 . S
C2225 C2226 1.388 . S
C2226 H2213 0.930 . S
C2226 C2225 1.388 . S
C2226 C2227 1.390 . S
C2227 C2226 1.390 . S
C2227 C2228 1.394 . S
C2227 C2233 1.465 . S
C2228 C2223 1.399 . S
C2228 C2227 1.394 . S
C2228 C2229 1.516 . S
C2229 C2228 1.516 . S
C2229 C2230 1.502 . S
C2229 C2231 1.561 . S
C2229 C2232 1.526 . S
C2230 H2214 0.959 . S
C2230 H2215 0.959 . S
C2230 H2216 0.961 . S
C2230 C2229 1.502 . S
C2231 H2217 0.960 . S
C2231 H2218 0.961 . S
C2231 H2219 0.959 . S
C2231 C2229 1.561 . S
C2232 C2229 1.526 . S
C2232 C2233 1.396 . S
C2232 C2237 1.390 . S
C2233 C2227 1.465 . S
C2233 C2232 1.396 . S
C2233 C2234 1.399 . S
C2234 H2220 0.929 . S
C2234 C2233 1.399 . S
C2234 C2235 1.385 . S
C2235 H2221 0.931 . S
C2235 C2234 1.385 . S
C2235 C2236 1.389 . S
C2236 C2235 1.389 . S
C2236 C2237 1.387 . S
C2237 H2222 0.930 . S
C2237 C2232 1.390 . S
C2237 C2236 1.387 . S
H2238 C2250 0.930 . S
H2239 C2252 0.930 . S
H2240 C2253 0.930 . S
H2241 C2257 0.959 . S
H2242 C2257 0.959 . S
H2243 C2257 0.961 . S
H2244 C2258 0.960 . S
H2245 C2258 0.961 . S
H2246 C2258 0.959 . S
H2247 C2261 0.929 . S
H2248 C2262 0.931 . S
H2249 C2264 0.930 . S
C2250 H2238 0.930 . S
C2250 C2251 1.399 . S
C2250 C2255 1.399 . S
C2251 C2250 1.399 . S
C2251 C2252 1.376 . S
C2252 H2239 0.930 . S
C2252 C2251 1.376 . S
C2252 C2253 1.388 . S
C2253 H2240 0.930 . S
C2253 C2252 1.388 . S
C2253 C2254 1.390 . S
C2254 C2253 1.390 . S
C2254 C2255 1.394 . S
C2254 C2260 1.465 . S
C2255 C2250 1.399 . S
C2255 C2254 1.394 . S
C2255 C2256 1.516 . S
C2256 C2255 1.516 . S
C2256 C2257 1.502 . S
C2256 C2258 1.561 . S
C2256 C2259 1.526 . S
C2257 H2241 0.959 . S
C2257 H2242 0.959 . S
C2257 H2243 0.961 . S
C2257 C2256 1.502 . S
C2258 H2244 0.960 . S
C2258 H2245 0.961 . S
C2258 H2246 0.959 . S
C2258 C2256 1.561 . S
C2259 C2256 1.526 . S
C2259 C2260 1.396 . S
C2259 C2264 1.390 . S
C2260 C2254 1.465 . S
C2260 C2259 1.396 . S
C2260 C2261 1.399 . S
C2261 H2247 0.929 . S
C2261 C2260 1.399 . S
C2261 C2262 1.385 . S
C2262 H2248 0.931 . S
C2262 C2261 1.385 . S
C2262 C2263 1.389 . S
C2263 C2262 1.389 . S
C2263 C2264 1.387 . S
C2264 H2249 0.930 . S
C2264 C2259 1.390 . S
C2264 C2263 1.387 . S
H2265 C2277 0.930 . S
H2266 C2279 0.930 . S
H2267 C2280 0.930 . S
H2268 C2284 0.959 . S
H2269 C2284 0.959 . S
H2270 C2284 0.961 . S
H2271 C2285 0.960 . S
H2272 C2285 0.961 . S
H2273 C2285 0.959 . S
H2274 C2288 0.929 . S
H2275 C2289 0.931 . S
H2276 C2291 0.930 . S
C2277 H2265 0.930 . S
C2277 C2278 1.399 . S
C2277 C2282 1.399 . S
C2278 C2277 1.399 . S
C2278 C2279 1.376 . S
C2279 H2266 0.930 . S
C2279 C2278 1.376 . S
C2279 C2280 1.388 . S
C2280 H2267 0.930 . S
C2280 C2279 1.388 . S
C2280 C2281 1.390 . S
C2281 C2280 1.390 . S
C2281 C2282 1.394 . S
C2281 C2287 1.465 . S
C2282 C2277 1.399 . S
C2282 C2281 1.394 . S
C2282 C2283 1.516 . S
C2283 C2282 1.516 . S
C2283 C2284 1.502 . S
C2283 C2285 1.561 . S
C2283 C2286 1.526 . S
C2284 H2268 0.959 . S
C2284 H2269 0.959 . S
C2284 H2270 0.961 . S
C2284 C2283 1.502 . S
C2285 H2271 0.960 . S
C2285 H2272 0.961 . S
C2285 H2273 0.959 . S
C2285 C2283 1.561 . S
C2286 C2283 1.526 . S
C2286 C2287 1.396 . S
C2286 C2291 1.390 . S
C2287 C2281 1.465 . S
C2287 C2286 1.396 . S
C2287 C2288 1.399 . S
C2288 H2274 0.929 . S
C2288 C2287 1.399 . S
C2288 C2289 1.385 . S
C2289 H2275 0.931 . S
C2289 C2288 1.385 . S
C2289 C2290 1.389 . S
C2290 C2289 1.389 . S
C2290 C2291 1.387 . S
C2291 H2276 0.930 . S
C2291 C2286 1.390 . S
C2291 C2290 1.387 . S
H2292 C2304 0.930 . S
H2293 C2306 0.930 . S
H2294 C2307 0.930 . S
H2295 C2311 0.959 . S
H2296 C2311 0.959 . S
H2297 C2311 0.961 . S
H2298 C2312 0.960 . S
H2299 C2312 0.961 . S
H2300 C2312 0.959 . S
H2301 C2315 0.929 . S
H2302 C2316 0.931 . S
H2303 C2318 0.930 . S
C2304 H2292 0.930 . S
C2304 C2305 1.399 . S
C2304 C2309 1.399 . S
C2305 C2304 1.399 . S
C2305 C2306 1.376 . S
C2306 H2293 0.930 . S
C2306 C2305 1.376 . S
C2306 C2307 1.388 . S
C2307 H2294 0.930 . S
C2307 C2306 1.388 . S
C2307 C2308 1.390 . S
C2308 C2307 1.390 . S
C2308 C2309 1.394 . S
C2308 C2314 1.465 . S
C2309 C2304 1.399 . S
C2309 C2308 1.394 . S
C2309 C2310 1.516 . S
C2310 C2309 1.516 . S
C2310 C2311 1.502 . S
C2310 C2312 1.561 . S
C2310 C2313 1.526 . S
C2311 H2295 0.959 . S
C2311 H2296 0.959 . S
C2311 H2297 0.961 . S
C2311 C2310 1.502 . S
C2312 H2298 0.960 . S
C2312 H2299 0.961 . S
C2312 H2300 0.959 . S
C2312 C2310 1.561 . S
C2313 C2310 1.526 . S
C2313 C2314 1.396 . S
C2313 C2318 1.390 . S
C2314 C2308 1.465 . S
C2314 C2313 1.396 . S
C2314 C2315 1.399 . S
C2315 H2301 0.929 . S
C2315 C2314 1.399 . S
C2315 C2316 1.385 . S
C2316 H2302 0.931 . S
C2316 C2315 1.385 . S
C2316 C2317 1.389 . S
C2317 C2316 1.389 . S
C2317 C2318 1.387 . S
C2318 H2303 0.930 . S
C2318 C2313 1.390 . S
C2318 C2317 1.387 . S
H2319 C2331 0.930 . S
H2320 C2333 0.930 . S
H2321 C2334 0.930 . S
H2322 C2338 0.959 . S
H2323 C2338 0.959 . S
H2324 C2338 0.961 . S
H2325 C2339 0.960 . S
H2326 C2339 0.961 . S
H2327 C2339 0.959 . S
H2328 C2342 0.929 . S
H2329 C2343 0.931 . S
H2330 C2345 0.930 . S
C2331 H2319 0.930 . S
C2331 C2332 1.399 . S
C2331 C2336 1.399 . S
C2332 C2331 1.399 . S
C2332 C2333 1.376 . S
C2333 H2320 0.930 . S
C2333 C2332 1.376 . S
C2333 C2334 1.388 . S
C2334 H2321 0.930 . S
C2334 C2333 1.388 . S
C2334 C2335 1.390 . S
C2335 C2334 1.390 . S
C2335 C2336 1.394 . S
C2335 C2341 1.465 . S
C2336 C2331 1.399 . S
C2336 C2335 1.394 . S
C2336 C2337 1.516 . S
C2337 C2336 1.516 . S
C2337 C2338 1.502 . S
C2337 C2339 1.561 . S
C2337 C2340 1.526 . S
C2338 H2322 0.959 . S
C2338 H2323 0.959 . S
C2338 H2324 0.961 . S
C2338 C2337 1.502 . S
C2339 H2325 0.960 . S
C2339 H2326 0.961 . S
C2339 H2327 0.959 . S
C2339 C2337 1.561 . S
C2340 C2337 1.526 . S
C2340 C2341 1.396 . S
C2340 C2345 1.390 . S
C2341 C2335 1.465 . S
C2341 C2340 1.396 . S
C2341 C2342 1.399 . S
C2342 H2328 0.929 . S
C2342 C2341 1.399 . S
C2342 C2343 1.385 . S
C2343 H2329 0.931 . S
C2343 C2342 1.385 . S
C2343 C2344 1.389 . S
C2344 C2343 1.389 . S
C2344 C2345 1.387 . S
C2345 H2330 0.930 . S
C2345 C2340 1.390 . S
C2345 C2344 1.387 . S
H2346 C2358 0.930 . S
H2347 C2360 0.930 . S
H2348 C2361 0.930 . S
H2349 C2365 0.959 . S
H2350 C2365 0.959 . S
H2351 C2365 0.961 . S
H2352 C2366 0.960 . S
H2353 C2366 0.961 . S
H2354 C2366 0.959 . S
H2355 C2369 0.929 . S
H2356 C2370 0.931 . S
H2357 C2372 0.930 . S
C2358 H2346 0.930 . S
C2358 C2359 1.399 . S
C2358 C2363 1.399 . S
C2359 C2358 1.399 . S
C2359 C2360 1.376 . S
C2360 H2347 0.930 . S
C2360 C2359 1.376 . S
C2360 C2361 1.388 . S
C2361 H2348 0.930 . S
C2361 C2360 1.388 . S
C2361 C2362 1.390 . S
C2362 C2361 1.390 . S
C2362 C2363 1.394 . S
C2362 C2368 1.465 . S
C2363 C2358 1.399 . S
C2363 C2362 1.394 . S
C2363 C2364 1.516 . S
C2364 C2363 1.516 . S
C2364 C2365 1.502 . S
C2364 C2366 1.561 . S
C2364 C2367 1.526 . S
C2365 H2349 0.959 . S
C2365 H2350 0.959 . S
C2365 H2351 0.961 . S
C2365 C2364 1.502 . S
C2366 H2352 0.960 . S
C2366 H2353 0.961 . S
C2366 H2354 0.959 . S
C2366 C2364 1.561 . S
C2367 C2364 1.526 . S
C2367 C2368 1.396 . S
C2367 C2372 1.390 . S
C2368 C2362 1.465 . S
C2368 C2367 1.396 . S
C2368 C2369 1.399 . S
C2369 H2355 0.929 . S
C2369 C2368 1.399 . S
C2369 C2370 1.385 . S
C2370 H2356 0.931 . S
C2370 C2369 1.385 . S
C2370 C2371 1.389 . S
C2371 C2370 1.389 . S
C2371 C2372 1.387 . S
C2372 H2357 0.930 . S
C2372 C2367 1.390 . S
C2372 C2371 1.387 . S
H2373 C2385 0.930 . S
H2374 C2387 0.930 . S
H2375 C2388 0.930 . S
H2376 C2392 0.959 . S
H2377 C2392 0.959 . S
H2378 C2392 0.961 . S
H2379 C2393 0.960 . S
H2380 C2393 0.961 . S
H2381 C2393 0.959 . S
H2382 C2396 0.929 . S
H2383 C2397 0.931 . S
H2384 C2399 0.930 . S
C2385 H2373 0.930 . S
C2385 C2386 1.399 . S
C2385 C2390 1.399 . S
C2386 C2385 1.399 . S
C2386 C2387 1.376 . S
C2387 H2374 0.930 . S
C2387 C2386 1.376 . S
C2387 C2388 1.388 . S
C2388 H2375 0.930 . S
C2388 C2387 1.388 . S
C2388 C2389 1.390 . S
C2389 C2388 1.390 . S
C2389 C2390 1.394 . S
C2389 C2395 1.465 . S
C2390 C2385 1.399 . S
C2390 C2389 1.394 . S
C2390 C2391 1.516 . S
C2391 C2390 1.516 . S
C2391 C2392 1.502 . S
C2391 C2393 1.561 . S
C2391 C2394 1.526 . S
C2392 H2376 0.959 . S
C2392 H2377 0.959 . S
C2392 H2378 0.961 . S
C2392 C2391 1.502 . S
C2393 H2379 0.960 . S
C2393 H2380 0.961 . S
C2393 H2381 0.959 . S
C2393 C2391 1.561 . S
C2394 C2391 1.526 . S
C2394 C2395 1.396 . S
C2394 C2399 1.390 . S
C2395 C2389 1.465 . S
C2395 C2394 1.396 . S
C2395 C2396 1.399 . S
C2396 H2382 0.929 . S
C2396 C2395 1.399 . S
C2396 C2397 1.385 . S
C2397 H2383 0.931 . S
C2397 C2396 1.385 . S
C2397 C2398 1.389 . S
C2398 C2397 1.389 . S
C2398 C2399 1.387 . S
C2399 H2384 0.930 . S
C2399 C2394 1.390 . S
C2399 C2398 1.387 . S
H2400 C2412 0.930 . S
H2401 C2414 0.930 . S
H2402 C2415 0.930 . S
H2403 C2419 0.959 . S
H2404 C2419 0.959 . S
H2405 C2419 0.961 . S
H2406 C2420 0.960 . S
H2407 C2420 0.961 . S
H2408 C2420 0.959 . S
H2409 C2423 0.929 . S
H2410 C2424 0.931 . S
H2411 C2426 0.930 . S
C2412 H2400 0.930 . S
C2412 C2413 1.399 . S
C2412 C2417 1.399 . S
C2413 C2412 1.399 . S
C2413 C2414 1.376 . S
C2414 H2401 0.930 . S
C2414 C2413 1.376 . S
C2414 C2415 1.388 . S
C2415 H2402 0.930 . S
C2415 C2414 1.388 . S
C2415 C2416 1.390 . S
C2416 C2415 1.390 . S
C2416 C2417 1.394 . S
C2416 C2422 1.465 . S
C2417 C2412 1.399 . S
C2417 C2416 1.394 . S
C2417 C2418 1.516 . S
C2418 C2417 1.516 . S
C2418 C2419 1.502 . S
C2418 C2420 1.561 . S
C2418 C2421 1.526 . S
C2419 H2403 0.959 . S
C2419 H2404 0.959 . S
C2419 H2405 0.961 . S
C2419 C2418 1.502 . S
C2420 H2406 0.960 . S
C2420 H2407 0.961 . S
C2420 H2408 0.959 . S
C2420 C2418 1.561 . S
C2421 C2418 1.526 . S
C2421 C2422 1.396 . S
C2421 C2426 1.390 . S
C2422 C2416 1.465 . S
C2422 C2421 1.396 . S
C2422 C2423 1.399 . S
C2423 H2409 0.929 . S
C2423 C2422 1.399 . S
C2423 C2424 1.385 . S
C2424 H2410 0.931 . S
C2424 C2423 1.385 . S
C2424 C2425 1.389 . S
C2425 C2424 1.389 . S
C2425 C2426 1.387 . S
C2426 H2411 0.930 . S
C2426 C2421 1.390 . S
C2426 C2425 1.387 . S
H2427 C2439 0.930 . S
H2428 C2441 0.930 . S
H2429 C2442 0.930 . S
H2430 C2446 0.959 . S
H2431 C2446 0.959 . S
H2432 C2446 0.961 . S
H2433 C2447 0.960 . S
H2434 C2447 0.961 . S
H2435 C2447 0.959 . S
H2436 C2450 0.929 . S
H2437 C2451 0.931 . S
H2438 C2453 0.930 . S
C2439 H2427 0.930 . S
C2439 C2440 1.399 . S
C2439 C2444 1.399 . S
C2440 C2439 1.399 . S
C2440 C2441 1.376 . S
C2441 H2428 0.930 . S
C2441 C2440 1.376 . S
C2441 C2442 1.388 . S
C2442 H2429 0.930 . S
C2442 C2441 1.388 . S
C2442 C2443 1.390 . S
C2443 C2442 1.390 . S
C2443 C2444 1.394 . S
C2443 C2449 1.465 . S
C2444 C2439 1.399 . S
C2444 C2443 1.394 . S
C2444 C2445 1.516 . S
C2445 C2444 1.516 . S
C2445 C2446 1.502 . S
C2445 C2447 1.561 . S
C2445 C2448 1.526 . S
C2446 H2430 0.959 . S
C2446 H2431 0.959 . S
C2446 H2432 0.961 . S
C2446 C2445 1.502 . S
C2447 H2433 0.960 . S
C2447 H2434 0.961 . S
C2447 H2435 0.959 . S
C2447 C2445 1.561 . S
C2448 C2445 1.526 . S
C2448 C2449 1.396 . S
C2448 C2453 1.390 . S
C2449 C2443 1.465 . S
C2449 C2448 1.396 . S
C2449 C2450 1.399 . S
C2450 H2436 0.929 . S
C2450 C2449 1.399 . S
C2450 C2451 1.385 . S
C2451 H2437 0.931 . S
C2451 C2450 1.385 . S
C2451 C2452 1.389 . S
C2452 C2451 1.389 . S
C2452 C2453 1.387 . S
C2453 H2438 0.930 . S
C2453 C2448 1.390 . S
C2453 C2452 1.387 . S
H2454 C2466 0.930 . S
H2455 C2468 0.930 . S
H2456 C2469 0.930 . S
H2457 C2473 0.959 . S
H2458 C2473 0.959 . S
H2459 C2473 0.961 . S
H2460 C2474 0.960 . S
H2461 C2474 0.961 . S
H2462 C2474 0.959 . S
H2463 C2477 0.929 . S
H2464 C2478 0.931 . S
H2465 C2480 0.930 . S
C2466 H2454 0.930 . S
C2466 C2467 1.399 . S
C2466 C2471 1.399 . S
C2467 C2466 1.399 . S
C2467 C2468 1.376 . S
C2468 H2455 0.930 . S
C2468 C2467 1.376 . S
C2468 C2469 1.388 . S
C2469 H2456 0.930 . S
C2469 C2468 1.388 . S
C2469 C2470 1.390 . S
C2470 C2469 1.390 . S
C2470 C2471 1.394 . S
C2470 C2476 1.465 . S
C2471 C2466 1.399 . S
C2471 C2470 1.394 . S
C2471 C2472 1.516 . S
C2472 C2471 1.516 . S
C2472 C2473 1.502 . S
C2472 C2474 1.561 . S
C2472 C2475 1.526 . S
C2473 H2457 0.959 . S
C2473 H2458 0.959 . S
C2473 H2459 0.961 . S
C2473 C2472 1.502 . S
C2474 H2460 0.960 . S
C2474 H2461 0.961 . S
C2474 H2462 0.959 . S
C2474 C2472 1.561 . S
C2475 C2472 1.526 . S
C2475 C2476 1.396 . S
C2475 C2480 1.390 . S
C2476 C2470 1.465 . S
C2476 C2475 1.396 . S
C2476 C2477 1.399 . S
C2477 H2463 0.929 . S
C2477 C2476 1.399 . S
C2477 C2478 1.385 . S
C2478 H2464 0.931 . S
C2478 C2477 1.385 . S
C2478 C2479 1.389 . S
C2479 C2478 1.389 . S
C2479 C2480 1.387 . S
C2480 H2465 0.930 . S
C2480 C2475 1.390 . S
C2480 C2479 1.387 . S
H2481 C2493 0.930 . S
H2482 C2495 0.930 . S
H2483 C2496 0.930 . S
H2484 C2500 0.959 . S
H2485 C2500 0.959 . S
H2486 C2500 0.961 . S
H2487 C2501 0.960 . S
H2488 C2501 0.961 . S
H2489 C2501 0.959 . S
H2490 C2504 0.929 . S
H2491 C2505 0.931 . S
H2492 C2507 0.930 . S
C2493 H2481 0.930 . S
C2493 C2494 1.399 . S
C2493 C2498 1.399 . S
C2494 C2493 1.399 . S
C2494 C2495 1.376 . S
C2495 H2482 0.930 . S
C2495 C2494 1.376 . S
C2495 C2496 1.388 . S
C2496 H2483 0.930 . S
C2496 C2495 1.388 . S
C2496 C2497 1.390 . S
C2497 C2496 1.390 . S
C2497 C2498 1.394 . S
C2497 C2503 1.465 . S
C2498 C2493 1.399 . S
C2498 C2497 1.394 . S
C2498 C2499 1.516 . S
C2499 C2498 1.516 . S
C2499 C2500 1.502 . S
C2499 C2501 1.561 . S
C2499 C2502 1.526 . S
C2500 H2484 0.959 . S
C2500 H2485 0.959 . S
C2500 H2486 0.961 . S
C2500 C2499 1.502 . S
C2501 H2487 0.960 . S
C2501 H2488 0.961 . S
C2501 H2489 0.959 . S
C2501 C2499 1.561 . S
C2502 C2499 1.526 . S
C2502 C2503 1.396 . S
C2502 C2507 1.390 . S
C2503 C2497 1.465 . S
C2503 C2502 1.396 . S
C2503 C2504 1.399 . S
C2504 H2490 0.929 . S
C2504 C2503 1.399 . S
C2504 C2505 1.385 . S
C2505 H2491 0.931 . S
C2505 C2504 1.385 . S
C2505 C2506 1.389 . S
C2506 C2505 1.389 . S
C2506 C2507 1.387 . S
C2507 H2492 0.930 . S
C2507 C2502 1.390 . S
C2507 C2506 1.387 . S
H2508 C2520 0.930 . S
H2509 C2522 0.930 . S
H2510 C2523 0.930 . S
H2511 C2527 0.959 . S
H2512 C2527 0.959 . S
H2513 C2527 0.961 . S
H2514 C2528 0.960 . S
H2515 C2528 0.961 . S
H2516 C2528 0.959 . S
H2517 C2531 0.929 . S
H2518 C2532 0.931 . S
H2519 C2534 0.930 . S
C2520 H2508 0.930 . S
C2520 C2521 1.399 . S
C2520 C2525 1.399 . S
C2521 C2520 1.399 . S
C2521 C2522 1.376 . S
C2522 H2509 0.930 . S
C2522 C2521 1.376 . S
C2522 C2523 1.388 . S
C2523 H2510 0.930 . S
C2523 C2522 1.388 . S
C2523 C2524 1.390 . S
C2524 C2523 1.390 . S
C2524 C2525 1.394 . S
C2524 C2530 1.465 . S
C2525 C2520 1.399 . S
C2525 C2524 1.394 . S
C2525 C2526 1.516 . S
C2526 C2525 1.516 . S
C2526 C2527 1.502 . S
C2526 C2528 1.561 . S
C2526 C2529 1.526 . S
C2527 H2511 0.959 . S
C2527 H2512 0.959 . S
C2527 H2513 0.961 . S
C2527 C2526 1.502 . S
C2528 H2514 0.960 . S
C2528 H2515 0.961 . S
C2528 H2516 0.959 . S
C2528 C2526 1.561 . S
C2529 C2526 1.526 . S
C2529 C2530 1.396 . S
C2529 C2534 1.390 . S
C2530 C2524 1.465 . S
C2530 C2529 1.396 . S
C2530 C2531 1.399 . S
C2531 H2517 0.929 . S
C2531 C2530 1.399 . S
C2531 C2532 1.385 . S
C2532 H2518 0.931 . S
C2532 C2531 1.385 . S
C2532 C2533 1.389 . S
C2533 C2532 1.389 . S
C2533 C2534 1.387 . S
C2534 H2519 0.930 . S
C2534 C2529 1.390 . S
C2534 C2533 1.387 . S
H2535 C2547 0.930 . S
H2536 C2549 0.930 . S
H2537 C2550 0.930 . S
H2538 C2554 0.959 . S
H2539 C2554 0.959 . S
H2540 C2554 0.961 . S
H2541 C2555 0.960 . S
H2542 C2555 0.961 . S
H2543 C2555 0.959 . S
H2544 C2558 0.929 . S
H2545 C2559 0.931 . S
H2546 C2561 0.930 . S
C2547 H2535 0.930 . S
C2547 C2548 1.399 . S
C2547 C2552 1.399 . S
C2548 C2547 1.399 . S
C2548 C2549 1.376 . S
C2549 H2536 0.930 . S
C2549 C2548 1.376 . S
C2549 C2550 1.388 . S
C2550 H2537 0.930 . S
C2550 C2549 1.388 . S
C2550 C2551 1.390 . S
C2551 C2550 1.390 . S
C2551 C2552 1.394 . S
C2551 C2557 1.465 . S
C2552 C2547 1.399 . S
C2552 C2551 1.394 . S
C2552 C2553 1.516 . S
C2553 C2552 1.516 . S
C2553 C2554 1.502 . S
C2553 C2555 1.561 . S
C2553 C2556 1.526 . S
C2554 H2538 0.959 . S
C2554 H2539 0.959 . S
C2554 H2540 0.961 . S
C2554 C2553 1.502 . S
C2555 H2541 0.960 . S
C2555 H2542 0.961 . S
C2555 H2543 0.959 . S
C2555 C2553 1.561 . S
C2556 C2553 1.526 . S
C2556 C2557 1.396 . S
C2556 C2561 1.390 . S
C2557 C2551 1.465 . S
C2557 C2556 1.396 . S
C2557 C2558 1.399 . S
C2558 H2544 0.929 . S
C2558 C2557 1.399 . S
C2558 C2559 1.385 . S
C2559 H2545 0.931 . S
C2559 C2558 1.385 . S
C2559 C2560 1.389 . S
C2560 C2559 1.389 . S
C2560 C2561 1.387 . S
C2561 H2546 0.930 . S
C2561 C2556 1.390 . S
C2561 C2560 1.387 . S
H2562 C2574 0.930 . S
H2563 C2576 0.930 . S
H2564 C2577 0.930 . S
H2565 C2581 0.959 . S
H2566 C2581 0.959 . S
H2567 C2581 0.961 . S
H2568 C2582 0.960 . S
H2569 C2582 0.961 . S
H2570 C2582 0.959 . S
H2571 C2585 0.929 . S
H2572 C2586 0.931 . S
H2573 C2588 0.930 . S
C2574 H2562 0.930 . S
C2574 C2575 1.399 . S
C2574 C2579 1.399 . S
C2575 C2574 1.399 . S
C2575 C2576 1.376 . S
C2576 H2563 0.930 . S
C2576 C2575 1.376 . S
C2576 C2577 1.388 . S
C2577 H2564 0.930 . S
C2577 C2576 1.388 . S
C2577 C2578 1.390 . S
C2578 C2577 1.390 . S
C2578 C2579 1.394 . S
C2578 C2584 1.465 . S
C2579 C2574 1.399 . S
C2579 C2578 1.394 . S
C2579 C2580 1.516 . S
C2580 C2579 1.516 . S
C2580 C2581 1.502 . S
C2580 C2582 1.561 . S
C2580 C2583 1.526 . S
C2581 H2565 0.959 . S
C2581 H2566 0.959 . S
C2581 H2567 0.961 . S
C2581 C2580 1.502 . S
C2582 H2568 0.960 . S
C2582 H2569 0.961 . S
C2582 H2570 0.959 . S
C2582 C2580 1.561 . S
C2583 C2580 1.526 . S
C2583 C2584 1.396 . S
C2583 C2588 1.390 . S
C2584 C2578 1.465 . S
C2584 C2583 1.396 . S
C2584 C2585 1.399 . S
C2585 H2571 0.929 . S
C2585 C2584 1.399 . S
C2585 C2586 1.385 . S
C2586 H2572 0.931 . S
C2586 C2585 1.385 . S
C2586 C2587 1.389 . S
C2587 C2586 1.389 . S
C2587 C2588 1.387 . S
C2588 H2573 0.930 . S
C2588 C2583 1.390 . S
C2588 C2587 1.387 . S
H2589 C2601 0.930 . S
H2590 C2603 0.930 . S
H2591 C2604 0.930 . S
H2592 C2608 0.959 . S
H2593 C2608 0.959 . S
H2594 C2608 0.961 . S
H2595 C2609 0.960 . S
H2596 C2609 0.961 . S
H2597 C2609 0.959 . S
H2598 C2612 0.929 . S
H2599 C2613 0.931 . S
H2600 C2615 0.930 . S
C2601 H2589 0.930 . S
C2601 C2602 1.399 . S
C2601 C2606 1.399 . S
C2602 C2601 1.399 . S
C2602 C2603 1.376 . S
C2603 H2590 0.930 . S
C2603 C2602 1.376 . S
C2603 C2604 1.388 . S
C2604 H2591 0.930 . S
C2604 C2603 1.388 . S
C2604 C2605 1.390 . S
C2605 C2604 1.390 . S
C2605 C2606 1.394 . S
C2605 C2611 1.465 . S
C2606 C2601 1.399 . S
C2606 C2605 1.394 . S
C2606 C2607 1.516 . S
C2607 C2606 1.516 . S
C2607 C2608 1.502 . S
C2607 C2609 1.561 . S
C2607 C2610 1.526 . S
C2608 H2592 0.959 . S
C2608 H2593 0.959 . S
C2608 H2594 0.961 . S
C2608 C2607 1.502 . S
C2609 H2595 0.960 . S
C2609 H2596 0.961 . S
C2609 H2597 0.959 . S
C2609 C2607 1.561 . S
C2610 C2607 1.526 . S
C2610 C2611 1.396 . S
C2610 C2615 1.390 . S
C2611 C2605 1.465 . S
C2611 C2610 1.396 . S
C2611 C2612 1.399 . S
C2612 H2598 0.929 . S
C2612 C2611 1.399 . S
C2612 C2613 1.385 . S
C2613 H2599 0.931 . S
C2613 C2612 1.385 . S
C2613 C2614 1.389 . S
C2614 C2613 1.389 . S
C2614 C2615 1.387 . S
C2615 H2600 0.930 . S
C2615 C2610 1.390 . S
C2615 C2614 1.387 . S
H2616 C2628 0.930 . S
H2617 C2630 0.930 . S
H2618 C2631 0.930 . S
H2619 C2635 0.962 . S
H2620 C2635 0.977 . S
H2621 C2635 0.941 1_554 S
H2622 C2636 0.959 1_554 S
H2623 C2636 0.962 . S
H2624 C2636 0.959 . S
H2625 C2639 0.929 . S
H2626 C2640 0.931 . S
H2627 C2642 0.930 . S
C2628 H2616 0.930 . S
C2628 C2629 1.399 . S
C2628 C2633 1.399 . S
C2629 C2628 1.399 . S
C2629 C2630 1.376 . S
C2630 H2617 0.930 . S
C2630 C2629 1.376 . S
C2630 C2631 1.388 . S
C2631 H2618 0.930 . S
C2631 C2630 1.388 . S
C2631 C2632 1.390 . S
C2632 C2631 1.390 . S
C2632 C2633 1.394 . S
C2632 C2638 1.465 1_554 S
C2633 C2628 1.399 . S
C2633 C2632 1.394 . S
C2633 C2634 1.519 1_554 S
C2634 C2633 1.519 1_556 S
C2634 C2635 1.502 . S
C2634 C2636 1.561 . S
C2634 C2637 1.523 . S
C2635 H2619 0.962 . S
C2635 H2620 0.977 . S
C2635 H2621 0.941 1_556 S
C2635 C2634 1.502 . S
C2636 H2622 0.959 1_556 S
C2636 H2623 0.962 . S
C2636 H2624 0.959 . S
C2636 C2634 1.561 . S
C2637 C2634 1.523 . S
C2637 C2638 1.396 . S
C2637 C2642 1.390 . S
C2638 C2632 1.465 1_556 S
C2638 C2637 1.396 . S
C2638 C2639 1.399 . S
C2639 H2625 0.929 . S
C2639 C2638 1.399 . S
C2639 C2640 1.385 . S
C2640 H2626 0.931 . S
C2640 C2639 1.385 . S
C2640 C2641 1.389 . S
C2641 C2640 1.389 . S
C2641 C2642 1.387 . S
C2642 H2627 0.930 . S
C2642 C2637 1.390 . S
C2642 C2641 1.387 . S
H2643 C2655 0.930 . S
H2644 C2657 0.930 . S
H2645 C2658 0.930 . S
H2646 C2662 0.962 . S
H2647 C2662 0.977 . S
H2648 C2662 0.941 1_556 S
H2649 C2663 0.959 1_556 S
H2650 C2663 0.962 . S
H2651 C2663 0.959 . S
H2652 C2666 0.929 . S
H2653 C2667 0.931 . S
H2654 C2669 0.930 . S
C2655 H2643 0.930 . S
C2655 C2656 1.399 . S
C2655 C2660 1.399 . S
C2656 C2655 1.399 . S
C2656 C2657 1.376 . S
C2657 H2644 0.930 . S
C2657 C2656 1.376 . S
C2657 C2658 1.388 . S
C2658 H2645 0.930 . S
C2658 C2657 1.388 . S
C2658 C2659 1.390 . S
C2659 C2658 1.390 . S
C2659 C2660 1.394 . S
C2659 C2665 1.465 1_556 S
C2660 C2655 1.399 . S
C2660 C2659 1.394 . S
C2660 C2661 1.519 1_556 S
C2661 C2660 1.519 1_554 S
C2661 C2662 1.502 . S
C2661 C2663 1.561 . S
C2661 C2664 1.523 . S
C2662 H2646 0.962 . S
C2662 H2647 0.977 . S
C2662 H2648 0.941 1_554 S
C2662 C2661 1.502 . S
C2663 H2649 0.959 1_554 S
C2663 H2650 0.962 . S
C2663 H2651 0.959 . S
C2663 C2661 1.561 . S
C2664 C2661 1.523 . S
C2664 C2665 1.396 . S
C2664 C2669 1.390 . S
C2665 C2659 1.465 1_554 S
C2665 C2664 1.396 . S
C2665 C2666 1.399 . S
C2666 H2652 0.929 . S
C2666 C2665 1.399 . S
C2666 C2667 1.385 . S
C2667 H2653 0.931 . S
C2667 C2666 1.385 . S
C2667 C2668 1.389 . S
C2668 C2667 1.389 . S
C2668 C2669 1.387 . S
C2669 H2654 0.930 . S
C2669 C2664 1.390 . S
C2669 C2668 1.387 . S
H2670 C2682 0.930 . S
H2671 C2684 0.930 . S
H2672 C2685 0.930 . S
H2673 C2689 0.962 . S
H2674 C2689 0.977 . S
H2675 C2689 0.941 1_554 S
H2676 C2690 0.959 1_554 S
H2677 C2690 0.962 . S
H2678 C2690 0.959 . S
H2679 C2693 0.929 . S
H2680 C2694 0.931 . S
H2681 C2696 0.930 . S
C2682 H2670 0.930 . S
C2682 C2683 1.399 . S
C2682 C2687 1.399 . S
C2683 C2682 1.399 . S
C2683 C2684 1.376 . S
C2684 H2671 0.930 . S
C2684 C2683 1.376 . S
C2684 C2685 1.388 . S
C2685 H2672 0.930 . S
C2685 C2684 1.388 . S
C2685 C2686 1.390 . S
C2686 C2685 1.390 . S
C2686 C2687 1.394 . S
C2686 C2692 1.465 1_554 S
C2687 C2682 1.399 . S
C2687 C2686 1.394 . S
C2687 C2688 1.519 1_554 S
C2688 C2687 1.519 1_556 S
C2688 C2689 1.502 . S
C2688 C2690 1.561 . S
C2688 C2691 1.523 . S
C2689 H2673 0.962 . S
C2689 H2674 0.977 . S
C2689 H2675 0.941 1_556 S
C2689 C2688 1.502 . S
C2690 H2676 0.959 1_556 S
C2690 H2677 0.962 . S
C2690 H2678 0.959 . S
C2690 C2688 1.561 . S
C2691 C2688 1.523 . S
C2691 C2692 1.396 . S
C2691 C2696 1.390 . S
C2692 C2686 1.465 1_556 S
C2692 C2691 1.396 . S
C2692 C2693 1.399 . S
C2693 H2679 0.929 . S
C2693 C2692 1.399 . S
C2693 C2694 1.385 . S
C2694 H2680 0.931 . S
C2694 C2693 1.385 . S
C2694 C2695 1.389 . S
C2695 C2694 1.389 . S
C2695 C2696 1.387 . S
C2696 H2681 0.930 . S
C2696 C2691 1.390 . S
C2696 C2695 1.387 . S
H2697 C2709 0.930 . S
H2698 C2711 0.930 . S
H2699 C2712 0.930 . S
H2700 C2716 0.962 . S
H2701 C2716 0.977 . S
H2702 C2716 0.941 1_554 S
H2703 C2717 0.959 1_554 S
H2704 C2717 0.962 . S
H2705 C2717 0.959 . S
H2706 C2720 0.929 . S
H2707 C2721 0.931 . S
H2708 C2723 0.930 . S
C2709 H2697 0.930 . S
C2709 C2710 1.399 . S
C2709 C2714 1.399 . S
C2710 C2709 1.399 . S
C2710 C2711 1.376 . S
C2711 H2698 0.930 . S
C2711 C2710 1.376 . S
C2711 C2712 1.388 . S
C2712 H2699 0.930 . S
C2712 C2711 1.388 . S
C2712 C2713 1.390 . S
C2713 C2712 1.390 . S
C2713 C2714 1.394 . S
C2713 C2719 1.465 1_554 S
C2714 C2709 1.399 . S
C2714 C2713 1.394 . S
C2714 C2715 1.519 1_554 S
C2715 C2714 1.519 1_556 S
C2715 C2716 1.502 . S
C2715 C2717 1.561 . S
C2715 C2718 1.523 . S
C2716 H2700 0.962 . S
C2716 H2701 0.977 . S
C2716 H2702 0.941 1_556 S
C2716 C2715 1.502 . S
C2717 H2703 0.959 1_556 S
C2717 H2704 0.962 . S
C2717 H2705 0.959 . S
C2717 C2715 1.561 . S
C2718 C2715 1.523 . S
C2718 C2719 1.396 . S
C2718 C2723 1.390 . S
C2719 C2713 1.465 1_556 S
C2719 C2718 1.396 . S
C2719 C2720 1.399 . S
C2720 H2706 0.929 . S
C2720 C2719 1.399 . S
C2720 C2721 1.385 . S
C2721 H2707 0.931 . S
C2721 C2720 1.385 . S
C2721 C2722 1.389 . S
C2722 C2721 1.389 . S
C2722 C2723 1.387 . S
C2723 H2708 0.930 . S
C2723 C2718 1.390 . S
C2723 C2722 1.387 . S
H2724 C2736 0.930 . S
H2725 C2738 0.930 . S
H2726 C2739 0.930 . S
H2727 C2743 0.962 . S
H2728 C2743 0.977 . S
H2729 C2743 0.941 1_556 S
H2730 C2744 0.959 1_556 S
H2731 C2744 0.962 . S
H2732 C2744 0.959 . S
H2733 C2747 0.929 . S
H2734 C2748 0.931 . S
H2735 C2750 0.930 . S
C2736 H2724 0.930 . S
C2736 C2737 1.399 . S
C2736 C2741 1.399 . S
C2737 C2736 1.399 . S
C2737 C2738 1.376 . S
C2738 H2725 0.930 . S
C2738 C2737 1.376 . S
C2738 C2739 1.388 . S
C2739 H2726 0.930 . S
C2739 C2738 1.388 . S
C2739 C2740 1.390 . S
C2740 C2739 1.390 . S
C2740 C2741 1.394 . S
C2740 C2746 1.465 1_556 S
C2741 C2736 1.399 . S
C2741 C2740 1.394 . S
C2741 C2742 1.519 1_556 S
C2742 C2741 1.519 1_554 S
C2742 C2743 1.502 . S
C2742 C2744 1.561 . S
C2742 C2745 1.523 . S
C2743 H2727 0.962 . S
C2743 H2728 0.977 . S
C2743 H2729 0.941 1_554 S
C2743 C2742 1.502 . S
C2744 H2730 0.959 1_554 S
C2744 H2731 0.962 . S
C2744 H2732 0.959 . S
C2744 C2742 1.561 . S
C2745 C2742 1.523 . S
C2745 C2746 1.396 . S
C2745 C2750 1.390 . S
C2746 C2740 1.465 1_554 S
C2746 C2745 1.396 . S
C2746 C2747 1.399 . S
C2747 H2733 0.929 . S
C2747 C2746 1.399 . S
C2747 C2748 1.385 . S
C2748 H2734 0.931 . S
C2748 C2747 1.385 . S
C2748 C2749 1.389 . S
C2749 C2748 1.389 . S
C2749 C2750 1.387 . S
C2750 H2735 0.930 . S
C2750 C2745 1.390 . S
C2750 C2749 1.387 . S
H2751 C2763 0.930 . S
H2752 C2765 0.930 . S
H2753 C2766 0.930 . S
H2754 C2770 0.962 . S
H2755 C2770 0.977 . S
H2756 C2770 0.941 1_554 S
H2757 C2771 0.959 1_554 S
H2758 C2771 0.962 . S
H2759 C2771 0.959 . S
H2760 C2774 0.929 . S
H2761 C2775 0.931 . S
H2762 C2777 0.930 . S
C2763 H2751 0.930 . S
C2763 C2764 1.399 . S
C2763 C2768 1.399 . S
C2764 C2763 1.399 . S
C2764 C2765 1.376 . S
C2765 H2752 0.930 . S
C2765 C2764 1.376 . S
C2765 C2766 1.388 . S
C2766 H2753 0.930 . S
C2766 C2765 1.388 . S
C2766 C2767 1.390 . S
C2767 C2766 1.390 . S
C2767 C2768 1.394 . S
C2767 C2773 1.465 1_554 S
C2768 C2763 1.399 . S
C2768 C2767 1.394 . S
C2768 C2769 1.519 1_554 S
C2769 C2768 1.519 1_556 S
C2769 C2770 1.502 . S
C2769 C2771 1.561 . S
C2769 C2772 1.523 . S
C2770 H2754 0.962 . S
C2770 H2755 0.977 . S
C2770 H2756 0.941 1_556 S
C2770 C2769 1.502 . S
C2771 H2757 0.959 1_556 S
C2771 H2758 0.962 . S
C2771 H2759 0.959 . S
C2771 C2769 1.561 . S
C2772 C2769 1.523 . S
C2772 C2773 1.396 . S
C2772 C2777 1.390 . S
C2773 C2767 1.465 1_556 S
C2773 C2772 1.396 . S
C2773 C2774 1.399 . S
C2774 H2760 0.929 . S
C2774 C2773 1.399 . S
C2774 C2775 1.385 . S
C2775 H2761 0.931 . S
C2775 C2774 1.385 . S
C2775 C2776 1.389 . S
C2776 C2775 1.389 . S
C2776 C2777 1.387 . S
C2777 H2762 0.930 . S
C2777 C2772 1.390 . S
C2777 C2776 1.387 . S
H2778 C2790 0.930 . S
H2779 C2792 0.930 . S
H2780 C2793 0.930 . S
H2781 C2797 0.962 . S
H2782 C2797 0.977 . S
H2783 C2797 0.941 1_556 S
H2784 C2798 0.959 1_556 S
H2785 C2798 0.962 . S
H2786 C2798 0.959 . S
H2787 C2801 0.929 . S
H2788 C2802 0.931 . S
H2789 C2804 0.930 . S
C2790 H2778 0.930 . S
C2790 C2791 1.399 . S
C2790 C2795 1.399 . S
C2791 C2790 1.399 . S
C2791 C2792 1.376 . S
C2792 H2779 0.930 . S
C2792 C2791 1.376 . S
C2792 C2793 1.388 . S
C2793 H2780 0.930 . S
C2793 C2792 1.388 . S
C2793 C2794 1.390 . S
C2794 C2793 1.390 . S
C2794 C2795 1.394 . S
C2794 C2800 1.465 1_556 S
C2795 C2790 1.399 . S
C2795 C2794 1.394 . S
C2795 C2796 1.519 1_556 S
C2796 C2795 1.519 1_554 S
C2796 C2797 1.502 . S
C2796 C2798 1.561 . S
C2796 C2799 1.523 . S
C2797 H2781 0.962 . S
C2797 H2782 0.977 . S
C2797 H2783 0.941 1_554 S
C2797 C2796 1.502 . S
C2798 H2784 0.959 1_554 S
C2798 H2785 0.962 . S
C2798 H2786 0.959 . S
C2798 C2796 1.561 . S
C2799 C2796 1.523 . S
C2799 C2800 1.396 . S
C2799 C2804 1.390 . S
C2800 C2794 1.465 1_554 S
C2800 C2799 1.396 . S
C2800 C2801 1.399 . S
C2801 H2787 0.929 . S
C2801 C2800 1.399 . S
C2801 C2802 1.385 . S
C2802 H2788 0.931 . S
C2802 C2801 1.385 . S
C2802 C2803 1.389 . S
C2803 C2802 1.389 . S
C2803 C2804 1.387 . S
C2804 H2789 0.930 . S
C2804 C2799 1.390 . S
C2804 C2803 1.387 . S
H2805 C2817 0.930 . S
H2806 C2819 0.930 . S
H2807 C2820 0.930 . S
H2808 C2824 0.962 . S
H2809 C2824 0.977 . S
H2810 C2824 0.941 1_554 S
H2811 C2825 0.959 1_554 S
H2812 C2825 0.962 . S
H2813 C2825 0.959 . S
H2814 C2828 0.929 . S
H2815 C2829 0.931 . S
H2816 C2831 0.930 . S
C2817 H2805 0.930 . S
C2817 C2818 1.399 . S
C2817 C2822 1.399 . S
C2818 C2817 1.399 . S
C2818 C2819 1.376 . S
C2819 H2806 0.930 . S
C2819 C2818 1.376 . S
C2819 C2820 1.388 . S
C2820 H2807 0.930 . S
C2820 C2819 1.388 . S
C2820 C2821 1.390 . S
C2821 C2820 1.390 . S
C2821 C2822 1.394 . S
C2821 C2827 1.465 1_554 S
C2822 C2817 1.399 . S
C2822 C2821 1.394 . S
C2822 C2823 1.519 1_554 S
C2823 C2822 1.519 1_556 S
C2823 C2824 1.502 . S
C2823 C2825 1.561 . S
C2823 C2826 1.523 . S
C2824 H2808 0.962 . S
C2824 H2809 0.977 . S
C2824 H2810 0.941 1_556 S
C2824 C2823 1.502 . S
C2825 H2811 0.959 1_556 S
C2825 H2812 0.962 . S
C2825 H2813 0.959 . S
C2825 C2823 1.561 . S
C2826 C2823 1.523 . S
C2826 C2827 1.396 . S
C2826 C2831 1.390 . S
C2827 C2821 1.465 1_556 S
C2827 C2826 1.396 . S
C2827 C2828 1.399 . S
C2828 H2814 0.929 . S
C2828 C2827 1.399 . S
C2828 C2829 1.385 . S
C2829 H2815 0.931 . S
C2829 C2828 1.385 . S
C2829 C2830 1.389 . S
C2830 C2829 1.389 . S
C2830 C2831 1.387 . S
C2831 H2816 0.930 . S
C2831 C2826 1.390 . S
C2831 C2830 1.387 . S
H2832 C2844 0.930 . S
H2833 C2846 0.930 . S
H2834 C2847 0.930 . S
H2835 C2851 0.962 . S
H2836 C2851 0.977 . S
H2837 C2851 0.941 1_455 S
H2838 C2852 0.959 1_455 S
H2839 C2852 0.962 . S
H2840 C2852 0.959 . S
H2841 C2855 0.929 . S
H2842 C2856 0.931 . S
H2843 C2858 0.930 . S
C2844 H2832 0.930 . S
C2844 C2845 1.399 . S
C2844 C2849 1.399 . S
C2845 C2844 1.399 . S
C2845 C2846 1.376 . S
C2846 H2833 0.930 . S
C2846 C2845 1.376 . S
C2846 C2847 1.388 . S
C2847 H2834 0.930 . S
C2847 C2846 1.388 . S
C2847 C2848 1.390 . S
C2848 C2847 1.390 . S
C2848 C2849 1.394 . S
C2848 C2854 1.465 1_455 S
C2849 C2844 1.399 . S
C2849 C2848 1.394 . S
C2849 C2850 1.519 1_455 S
C2850 C2849 1.519 1_655 S
C2850 C2851 1.502 . S
C2850 C2852 1.561 . S
C2850 C2853 1.523 . S
C2851 H2835 0.962 . S
C2851 H2836 0.977 . S
C2851 H2837 0.941 1_655 S
C2851 C2850 1.502 . S
C2852 H2838 0.959 1_655 S
C2852 H2839 0.962 . S
C2852 H2840 0.959 . S
C2852 C2850 1.561 . S
C2853 C2850 1.523 . S
C2853 C2854 1.396 . S
C2853 C2858 1.390 . S
C2854 C2848 1.465 1_655 S
C2854 C2853 1.396 . S
C2854 C2855 1.399 . S
C2855 H2841 0.929 . S
C2855 C2854 1.399 . S
C2855 C2856 1.385 . S
C2856 H2842 0.931 . S
C2856 C2855 1.385 . S
C2856 C2857 1.389 . S
C2857 C2856 1.389 . S
C2857 C2858 1.387 . S
C2858 H2843 0.930 . S
C2858 C2853 1.390 . S
C2858 C2857 1.387 . S
H2859 C2871 0.930 . S
H2860 C2873 0.930 . S
H2861 C2874 0.930 . S
H2862 C2878 0.962 . S
H2863 C2878 0.977 . S
H2864 C2878 0.941 1_565 S
H2865 C2879 0.959 1_565 S
H2866 C2879 0.962 . S
H2867 C2879 0.959 . S
H2868 C2882 0.929 . S
H2869 C2883 0.931 . S
H2870 C2885 0.930 . S
C2871 H2859 0.930 . S
C2871 C2872 1.399 . S
C2871 C2876 1.399 . S
C2872 C2871 1.399 . S
C2872 C2873 1.376 . S
C2873 H2860 0.930 . S
C2873 C2872 1.376 . S
C2873 C2874 1.388 . S
C2874 H2861 0.930 . S
C2874 C2873 1.388 . S
C2874 C2875 1.390 . S
C2875 C2874 1.390 . S
C2875 C2876 1.394 . S
C2875 C2881 1.465 1_565 S
C2876 C2871 1.399 . S
C2876 C2875 1.394 . S
C2876 C2877 1.519 1_565 S
C2877 C2876 1.519 1_545 S
C2877 C2878 1.502 . S
C2877 C2879 1.561 . S
C2877 C2880 1.523 . S
C2878 H2862 0.962 . S
C2878 H2863 0.977 . S
C2878 H2864 0.941 1_545 S
C2878 C2877 1.502 . S
C2879 H2865 0.959 1_545 S
C2879 H2866 0.962 . S
C2879 H2867 0.959 . S
C2879 C2877 1.561 . S
C2880 C2877 1.523 . S
C2880 C2881 1.396 . S
C2880 C2885 1.390 . S
C2881 C2875 1.465 1_545 S
C2881 C2880 1.396 . S
C2881 C2882 1.399 . S
C2882 H2868 0.929 . S
C2882 C2881 1.399 . S
C2882 C2883 1.385 . S
C2883 H2869 0.931 . S
C2883 C2882 1.385 . S
C2883 C2884 1.389 . S
C2884 C2883 1.389 . S
C2884 C2885 1.387 . S
C2885 H2870 0.930 . S
C2885 C2880 1.390 . S
C2885 C2884 1.387 . S
H2886 C2898 0.930 . S
H2887 C2900 0.930 . S
H2888 C2901 0.930 . S
H2889 C2905 0.962 . S
H2890 C2905 0.977 . S
H2891 C2905 0.941 1_455 S
H2892 C2906 0.959 1_455 S
H2893 C2906 0.962 . S
H2894 C2906 0.959 . S
H2895 C2909 0.929 . S
H2896 C2910 0.931 . S
H2897 C2912 0.930 . S
C2898 H2886 0.930 . S
C2898 C2899 1.399 . S
C2898 C2903 1.399 . S
C2899 C2898 1.399 . S
C2899 C2900 1.376 . S
C2900 H2887 0.930 . S
C2900 C2899 1.376 . S
C2900 C2901 1.388 . S
C2901 H2888 0.930 . S
C2901 C2900 1.388 . S
C2901 C2902 1.390 . S
C2902 C2901 1.390 . S
C2902 C2903 1.394 . S
C2902 C2908 1.465 1_455 S
C2903 C2898 1.399 . S
C2903 C2902 1.394 . S
C2903 C2904 1.519 1_455 S
C2904 C2903 1.519 1_655 S
C2904 C2905 1.502 . S
C2904 C2906 1.561 . S
C2904 C2907 1.523 . S
C2905 H2889 0.962 . S
C2905 H2890 0.977 . S
C2905 H2891 0.941 1_655 S
C2905 C2904 1.502 . S
C2906 H2892 0.959 1_655 S
C2906 H2893 0.962 . S
C2906 H2894 0.959 . S
C2906 C2904 1.561 . S
C2907 C2904 1.523 . S
C2907 C2908 1.396 . S
C2907 C2912 1.390 . S
C2908 C2902 1.465 1_655 S
C2908 C2907 1.396 . S
C2908 C2909 1.399 . S
C2909 H2895 0.929 . S
C2909 C2908 1.399 . S
C2909 C2910 1.385 . S
C2910 H2896 0.931 . S
C2910 C2909 1.385 . S
C2910 C2911 1.389 . S
C2911 C2910 1.389 . S
C2911 C2912 1.387 . S
C2912 H2897 0.930 . S
C2912 C2907 1.390 . S
C2912 C2911 1.387 . S
H2913 C2925 0.930 . S
H2914 C2927 0.930 . S
H2915 C2928 0.930 . S
H2916 C2932 0.962 . S
H2917 C2932 0.977 . S
H2918 C2932 0.941 1_565 S
H2919 C2933 0.959 1_565 S
H2920 C2933 0.962 . S
H2921 C2933 0.959 . S
H2922 C2936 0.929 . S
H2923 C2937 0.931 . S
H2924 C2939 0.930 . S
C2925 H2913 0.930 . S
C2925 C2926 1.399 . S
C2925 C2930 1.399 . S
C2926 C2925 1.399 . S
C2926 C2927 1.376 . S
C2927 H2914 0.930 . S
C2927 C2926 1.376 . S
C2927 C2928 1.388 . S
C2928 H2915 0.930 . S
C2928 C2927 1.388 . S
C2928 C2929 1.390 . S
C2929 C2928 1.390 . S
C2929 C2930 1.394 . S
C2929 C2935 1.465 1_565 S
C2930 C2925 1.399 . S
C2930 C2929 1.394 . S
C2930 C2931 1.519 1_565 S
C2931 C2930 1.519 1_545 S
C2931 C2932 1.502 . S
C2931 C2933 1.561 . S
C2931 C2934 1.523 . S
C2932 H2916 0.962 . S
C2932 H2917 0.977 . S
C2932 H2918 0.941 1_545 S
C2932 C2931 1.502 . S
C2933 H2919 0.959 1_545 S
C2933 H2920 0.962 . S
C2933 H2921 0.959 . S
C2933 C2931 1.561 . S
C2934 C2931 1.523 . S
C2934 C2935 1.396 . S
C2934 C2939 1.390 . S
C2935 C2929 1.465 1_545 S
C2935 C2934 1.396 . S
C2935 C2936 1.399 . S
C2936 H2922 0.929 . S
C2936 C2935 1.399 . S
C2936 C2937 1.385 . S
C2937 H2923 0.931 . S
C2937 C2936 1.385 . S
C2937 C2938 1.389 . S
C2938 C2937 1.389 . S
C2938 C2939 1.387 . S
C2939 H2924 0.930 . S
C2939 C2934 1.390 . S
C2939 C2938 1.387 . S
H2940 C2952 0.930 . S
H2941 C2954 0.930 . S
H2942 C2955 0.930 . S
H2943 C2959 0.962 . S
H2944 C2959 0.977 . S
H2945 C2959 0.941 1_655 S
H2946 C2960 0.959 1_655 S
H2947 C2960 0.962 . S
H2948 C2960 0.959 . S
H2949 C2963 0.929 . S
H2950 C2964 0.931 . S
H2951 C2966 0.930 . S
C2952 H2940 0.930 . S
C2952 C2953 1.399 . S
C2952 C2957 1.399 . S
C2953 C2952 1.399 . S
C2953 C2954 1.376 . S
C2954 H2941 0.930 . S
C2954 C2953 1.376 . S
C2954 C2955 1.388 . S
C2955 H2942 0.930 . S
C2955 C2954 1.388 . S
C2955 C2956 1.390 . S
C2956 C2955 1.390 . S
C2956 C2957 1.394 . S
C2956 C2962 1.465 1_655 S
C2957 C2952 1.399 . S
C2957 C2956 1.394 . S
C2957 C2958 1.519 1_655 S
C2958 C2957 1.519 1_455 S
C2958 C2959 1.502 . S
C2958 C2960 1.561 . S
C2958 C2961 1.523 . S
C2959 H2943 0.962 . S
C2959 H2944 0.977 . S
C2959 H2945 0.941 1_455 S
C2959 C2958 1.502 . S
C2960 H2946 0.959 1_455 S
C2960 H2947 0.962 . S
C2960 H2948 0.959 . S
C2960 C2958 1.561 . S
C2961 C2958 1.523 . S
C2961 C2962 1.396 . S
C2961 C2966 1.390 . S
C2962 C2956 1.465 1_455 S
C2962 C2961 1.396 . S
C2962 C2963 1.399 . S
C2963 H2949 0.929 . S
C2963 C2962 1.399 . S
C2963 C2964 1.385 . S
C2964 H2950 0.931 . S
C2964 C2963 1.385 . S
C2964 C2965 1.389 . S
C2965 C2964 1.389 . S
C2965 C2966 1.387 . S
C2966 H2951 0.930 . S
C2966 C2961 1.390 . S
C2966 C2965 1.387 . S
H2967 C2979 0.930 . S
H2968 C2981 0.930 . S
H2969 C2982 0.930 . S
H2970 C2986 0.962 . S
H2971 C2986 0.977 . S
H2972 C2986 0.941 1_545 S
H2973 C2987 0.959 1_545 S
H2974 C2987 0.962 . S
H2975 C2987 0.959 . S
H2976 C2990 0.929 . S
H2977 C2991 0.931 . S
H2978 C2993 0.930 . S
C2979 H2967 0.930 . S
C2979 C2980 1.399 . S
C2979 C2984 1.399 . S
C2980 C2979 1.399 . S
C2980 C2981 1.376 . S
C2981 H2968 0.930 . S
C2981 C2980 1.376 . S
C2981 C2982 1.388 . S
C2982 H2969 0.930 . S
C2982 C2981 1.388 . S
C2982 C2983 1.390 . S
C2983 C2982 1.390 . S
C2983 C2984 1.394 . S
C2983 C2989 1.465 1_545 S
C2984 C2979 1.399 . S
C2984 C2983 1.394 . S
C2984 C2985 1.519 1_545 S
C2985 C2984 1.519 1_565 S
C2985 C2986 1.502 . S
C2985 C2987 1.561 . S
C2985 C2988 1.523 . S
C2986 H2970 0.962 . S
C2986 H2971 0.977 . S
C2986 H2972 0.941 1_565 S
C2986 C2985 1.502 . S
C2987 H2973 0.959 1_565 S
C2987 H2974 0.962 . S
C2987 H2975 0.959 . S
C2987 C2985 1.561 . S
C2988 C2985 1.523 . S
C2988 C2989 1.396 . S
C2988 C2993 1.390 . S
C2989 C2983 1.465 1_565 S
C2989 C2988 1.396 . S
C2989 C2990 1.399 . S
C2990 H2976 0.929 . S
C2990 C2989 1.399 . S
C2990 C2991 1.385 . S
C2991 H2977 0.931 . S
C2991 C2990 1.385 . S
C2991 C2992 1.389 . S
C2992 C2991 1.389 . S
C2992 C2993 1.387 . S
C2993 H2978 0.930 . S
C2993 C2988 1.390 . S
C2993 C2992 1.387 . S
H2994 C3006 0.930 . S
H2995 C3008 0.930 . S
H2996 C3009 0.930 . S
H2997 C3013 0.962 . S
H2998 C3013 0.977 . S
H2999 C3013 0.941 1_455 S
H3000 C3014 0.959 1_455 S
H3001 C3014 0.962 . S
H3002 C3014 0.959 . S
H3003 C3017 0.929 . S
H3004 C3018 0.931 . S
H3005 C3020 0.930 . S
C3006 H2994 0.930 . S
C3006 C3007 1.399 . S
C3006 C3011 1.399 . S
C3007 C3006 1.399 . S
C3007 C3008 1.376 . S
C3008 H2995 0.930 . S
C3008 C3007 1.376 . S
C3008 C3009 1.388 . S
C3009 H2996 0.930 . S
C3009 C3008 1.388 . S
C3009 C3010 1.390 . S
C3010 C3009 1.390 . S
C3010 C3011 1.394 . S
C3010 C3016 1.465 1_455 S
C3011 C3006 1.399 . S
C3011 C3010 1.394 . S
C3011 C3012 1.519 1_455 S
C3012 C3011 1.519 1_655 S
C3012 C3013 1.502 . S
C3012 C3014 1.561 . S
C3012 C3015 1.523 . S
C3013 H2997 0.962 . S
C3013 H2998 0.977 . S
C3013 H2999 0.941 1_655 S
C3013 C3012 1.502 . S
C3014 H3000 0.959 1_655 S
C3014 H3001 0.962 . S
C3014 H3002 0.959 . S
C3014 C3012 1.561 . S
C3015 C3012 1.523 . S
C3015 C3016 1.396 . S
C3015 C3020 1.390 . S
C3016 C3010 1.465 1_655 S
C3016 C3015 1.396 . S
C3016 C3017 1.399 . S
C3017 H3003 0.929 . S
C3017 C3016 1.399 . S
C3017 C3018 1.385 . S
C3018 H3004 0.931 . S
C3018 C3017 1.385 . S
C3018 C3019 1.389 . S
C3019 C3018 1.389 . S
C3019 C3020 1.387 . S
C3020 H3005 0.930 . S
C3020 C3015 1.390 . S
C3020 C3019 1.387 . S
H3021 C3033 0.930 . S
H3022 C3035 0.930 . S
H3023 C3036 0.930 . S
H3024 C3040 0.962 . S
H3025 C3040 0.977 . S
H3026 C3040 0.941 1_545 S
H3027 C3041 0.959 1_545 S
H3028 C3041 0.962 . S
H3029 C3041 0.959 . S
H3030 C3044 0.929 . S
H3031 C3045 0.931 . S
H3032 C3047 0.930 . S
C3033 H3021 0.930 . S
C3033 C3034 1.399 . S
C3033 C3038 1.399 . S
C3034 C3033 1.399 . S
C3034 C3035 1.376 . S
C3035 H3022 0.930 . S
C3035 C3034 1.376 . S
C3035 C3036 1.388 . S
C3036 H3023 0.930 . S
C3036 C3035 1.388 . S
C3036 C3037 1.390 . S
C3037 C3036 1.390 . S
C3037 C3038 1.394 . S
C3037 C3043 1.465 1_545 S
C3038 C3033 1.399 . S
C3038 C3037 1.394 . S
C3038 C3039 1.519 1_545 S
C3039 C3038 1.519 1_565 S
C3039 C3040 1.502 . S
C3039 C3041 1.561 . S
C3039 C3042 1.523 . S
C3040 H3024 0.962 . S
C3040 H3025 0.977 . S
C3040 H3026 0.941 1_565 S
C3040 C3039 1.502 . S
C3041 H3027 0.959 1_565 S
C3041 H3028 0.962 . S
C3041 H3029 0.959 . S
C3041 C3039 1.561 . S
C3042 C3039 1.523 . S
C3042 C3043 1.396 . S
C3042 C3047 1.390 . S
C3043 C3037 1.465 1_565 S
C3043 C3042 1.396 . S
C3043 C3044 1.399 . S
C3044 H3030 0.929 . S
C3044 C3043 1.399 . S
C3044 C3045 1.385 . S
C3045 H3031 0.931 . S
C3045 C3044 1.385 . S
C3045 C3046 1.389 . S
C3046 C3045 1.389 . S
C3046 C3047 1.387 . S
C3047 H3032 0.930 . S
C3047 C3042 1.390 . S
C3047 C3046 1.387 . S
H3048 C3060 0.930 . S
H3049 C3062 0.930 . S
H3050 C3063 0.930 . S
H3051 C3067 0.962 . S
H3052 C3067 0.977 . S
H3053 C3067 0.941 1_545 S
H3054 C3068 0.959 1_545 S
H3055 C3068 0.962 . S
H3056 C3068 0.959 . S
H3057 C3071 0.929 . S
H3058 C3072 0.931 . S
H3059 C3074 0.930 . S
C3060 H3048 0.930 . S
C3060 C3061 1.399 . S
C3060 C3065 1.399 . S
C3061 C3060 1.399 . S
C3061 C3062 1.376 . S
C3062 H3049 0.930 . S
C3062 C3061 1.376 . S
C3062 C3063 1.388 . S
C3063 H3050 0.930 . S
C3063 C3062 1.388 . S
C3063 C3064 1.390 . S
C3064 C3063 1.390 . S
C3064 C3065 1.394 . S
C3064 C3070 1.465 1_545 S
C3065 C3060 1.399 . S
C3065 C3064 1.394 . S
C3065 C3066 1.519 1_545 S
C3066 C3065 1.519 1_565 S
C3066 C3067 1.502 . S
C3066 C3068 1.561 . S
C3066 C3069 1.523 . S
C3067 H3051 0.962 . S
C3067 H3052 0.977 . S
C3067 H3053 0.941 1_565 S
C3067 C3066 1.502 . S
C3068 H3054 0.959 1_565 S
C3068 H3055 0.962 . S
C3068 H3056 0.959 . S
C3068 C3066 1.561 . S
C3069 C3066 1.523 . S
C3069 C3070 1.396 . S
C3069 C3074 1.390 . S
C3070 C3064 1.465 1_565 S
C3070 C3069 1.396 . S
C3070 C3071 1.399 . S
C3071 H3057 0.929 . S
C3071 C3070 1.399 . S
C3071 C3072 1.385 . S
C3072 H3058 0.931 . S
C3072 C3071 1.385 . S
C3072 C3073 1.389 . S
C3073 C3072 1.389 . S
C3073 C3074 1.387 . S
C3074 H3059 0.930 . S
C3074 C3069 1.390 . S
C3074 C3073 1.387 . S
H3075 C3087 0.930 . S
H3076 C3089 0.930 . S
H3077 C3090 0.930 . S
H3078 C3094 0.962 . S
H3079 C3094 0.977 . S
H3080 C3094 0.941 1_545 S
H3081 C3095 0.959 1_545 S
H3082 C3095 0.962 . S
H3083 C3095 0.959 . S
H3084 C3098 0.929 . S
H3085 C3099 0.931 . S
H3086 C3101 0.930 . S
C3087 H3075 0.930 . S
C3087 C3088 1.399 . S
C3087 C3092 1.399 . S
C3088 C3087 1.399 . S
C3088 C3089 1.376 . S
C3089 H3076 0.930 . S
C3089 C3088 1.376 . S
C3089 C3090 1.388 . S
C3090 H3077 0.930 . S
C3090 C3089 1.388 . S
C3090 C3091 1.390 . S
C3091 C3090 1.390 . S
C3091 C3092 1.394 . S
C3091 C3097 1.465 1_545 S
C3092 C3087 1.399 . S
C3092 C3091 1.394 . S
C3092 C3093 1.519 1_545 S
C3093 C3092 1.519 1_565 S
C3093 C3094 1.502 . S
C3093 C3095 1.561 . S
C3093 C3096 1.523 . S
C3094 H3078 0.962 . S
C3094 H3079 0.977 . S
C3094 H3080 0.941 1_565 S
C3094 C3093 1.502 . S
C3095 H3081 0.959 1_565 S
C3095 H3082 0.962 . S
C3095 H3083 0.959 . S
C3095 C3093 1.561 . S
C3096 C3093 1.523 . S
C3096 C3097 1.396 . S
C3096 C3101 1.390 . S
C3097 C3091 1.465 1_565 S
C3097 C3096 1.396 . S
C3097 C3098 1.399 . S
C3098 H3084 0.929 . S
C3098 C3097 1.399 . S
C3098 C3099 1.385 . S
C3099 H3085 0.931 . S
C3099 C3098 1.385 . S
C3099 C3100 1.389 . S
C3100 C3099 1.389 . S
C3100 C3101 1.387 . S
C3101 H3086 0.930 . S
C3101 C3096 1.390 . S
C3101 C3100 1.387 . S
H3102 C3114 0.930 . S
H3103 C3116 0.930 . S
H3104 C3117 0.930 . S
H3105 C3121 0.962 . S
H3106 C3121 0.977 . S
H3107 C3121 0.941 1_655 S
H3108 C3122 0.959 1_655 S
H3109 C3122 0.962 . S
H3110 C3122 0.959 . S
H3111 C3125 0.929 . S
H3112 C3126 0.931 . S
H3113 C3128 0.930 . S
C3114 H3102 0.930 . S
C3114 C3115 1.399 . S
C3114 C3119 1.399 . S
C3115 C3114 1.399 . S
C3115 C3116 1.376 . S
C3116 H3103 0.930 . S
C3116 C3115 1.376 . S
C3116 C3117 1.388 . S
C3117 H3104 0.930 . S
C3117 C3116 1.388 . S
C3117 C3118 1.390 . S
C3118 C3117 1.390 . S
C3118 C3119 1.394 . S
C3118 C3124 1.465 1_655 S
C3119 C3114 1.399 . S
C3119 C3118 1.394 . S
C3119 C3120 1.519 1_655 S
C3120 C3119 1.519 1_455 S
C3120 C3121 1.502 . S
C3120 C3122 1.561 . S
C3120 C3123 1.523 . S
C3121 H3105 0.962 . S
C3121 H3106 0.977 . S
C3121 H3107 0.941 1_455 S
C3121 C3120 1.502 . S
C3122 H3108 0.959 1_455 S
C3122 H3109 0.962 . S
C3122 H3110 0.959 . S
C3122 C3120 1.561 . S
C3123 C3120 1.523 . S
C3123 C3124 1.396 . S
C3123 C3128 1.390 . S
C3124 C3118 1.465 1_455 S
C3124 C3123 1.396 . S
C3124 C3125 1.399 . S
C3125 H3111 0.929 . S
C3125 C3124 1.399 . S
C3125 C3126 1.385 . S
C3126 H3112 0.931 . S
C3126 C3125 1.385 . S
C3126 C3127 1.389 . S
C3127 C3126 1.389 . S
C3127 C3128 1.387 . S
C3128 H3113 0.930 . S
C3128 C3123 1.390 . S
C3128 C3127 1.387 . S
H3129 C3141 0.930 . S
H3130 C3143 0.930 . S
H3131 C3144 0.930 . S
H3132 C3148 0.962 . S
H3133 C3148 0.977 . S
H3134 C3148 0.941 1_545 S
H3135 C3149 0.959 1_545 S
H3136 C3149 0.962 . S
H3137 C3149 0.959 . S
H3138 C3152 0.929 . S
H3139 C3153 0.931 . S
H3140 C3155 0.930 . S
C3141 H3129 0.930 . S
C3141 C3142 1.399 . S
C3141 C3146 1.399 . S
C3142 C3141 1.399 . S
C3142 C3143 1.376 . S
C3143 H3130 0.930 . S
C3143 C3142 1.376 . S
C3143 C3144 1.388 . S
C3144 H3131 0.930 . S
C3144 C3143 1.388 . S
C3144 C3145 1.390 . S
C3145 C3144 1.390 . S
C3145 C3146 1.394 . S
C3145 C3151 1.465 1_545 S
C3146 C3141 1.399 . S
C3146 C3145 1.394 . S
C3146 C3147 1.519 1_545 S
C3147 C3146 1.519 1_565 S
C3147 C3148 1.502 . S
C3147 C3149 1.561 . S
C3147 C3150 1.523 . S
C3148 H3132 0.962 . S
C3148 H3133 0.977 . S
C3148 H3134 0.941 1_565 S
C3148 C3147 1.502 . S
C3149 H3135 0.959 1_565 S
C3149 H3136 0.962 . S
C3149 H3137 0.959 . S
C3149 C3147 1.561 . S
C3150 C3147 1.523 . S
C3150 C3151 1.396 . S
C3150 C3155 1.390 . S
C3151 C3145 1.465 1_565 S
C3151 C3150 1.396 . S
C3151 C3152 1.399 . S
C3152 H3138 0.929 . S
C3152 C3151 1.399 . S
C3152 C3153 1.385 . S
C3153 H3139 0.931 . S
C3153 C3152 1.385 . S
C3153 C3154 1.389 . S
C3154 C3153 1.389 . S
C3154 C3155 1.387 . S
C3155 H3140 0.930 . S
C3155 C3150 1.390 . S
C3155 C3154 1.387 . S
H3156 C3168 0.930 . S
H3157 C3170 0.930 . S
H3158 C3171 0.930 . S
H3159 C3175 0.962 . S
H3160 C3175 0.977 . S
H3161 C3175 0.941 1_455 S
H3162 C3176 0.959 1_455 S
H3163 C3176 0.962 . S
H3164 C3176 0.959 . S
H3165 C3179 0.929 . S
H3166 C3180 0.931 . S
H3167 C3182 0.930 . S
C3168 H3156 0.930 . S
C3168 C3169 1.399 . S
C3168 C3173 1.399 . S
C3169 C3168 1.399 . S
C3169 C3170 1.376 . S
C3170 H3157 0.930 . S
C3170 C3169 1.376 . S
C3170 C3171 1.388 . S
C3171 H3158 0.930 . S
C3171 C3170 1.388 . S
C3171 C3172 1.390 . S
C3172 C3171 1.390 . S
C3172 C3173 1.394 . S
C3172 C3178 1.465 1_455 S
C3173 C3168 1.399 . S
C3173 C3172 1.394 . S
C3173 C3174 1.519 1_455 S
C3174 C3173 1.519 1_655 S
C3174 C3175 1.502 . S
C3174 C3176 1.561 . S
C3174 C3177 1.523 . S
C3175 H3159 0.962 . S
C3175 H3160 0.977 . S
C3175 H3161 0.941 1_655 S
C3175 C3174 1.502 . S
C3176 H3162 0.959 1_655 S
C3176 H3163 0.962 . S
C3176 H3164 0.959 . S
C3176 C3174 1.561 . S
C3177 C3174 1.523 . S
C3177 C3178 1.396 . S
C3177 C3182 1.390 . S
C3178 C3172 1.465 1_655 S
C3178 C3177 1.396 . S
C3178 C3179 1.399 . S
C3179 H3165 0.929 . S
C3179 C3178 1.399 . S
C3179 C3180 1.385 . S
C3180 H3166 0.931 . S
C3180 C3179 1.385 . S
C3180 C3181 1.389 . S
C3181 C3180 1.389 . S
C3181 C3182 1.387 . S
C3182 H3167 0.930 . S
C3182 C3177 1.390 . S
C3182 C3181 1.387 . S
H3183 C3195 0.930 . S
H3184 C3197 0.930 . S
H3185 C3198 0.930 . S
H3186 C3202 0.962 . S
H3187 C3202 0.977 . S
H3188 C3202 0.941 1_545 S
H3189 C3203 0.959 1_545 S
H3190 C3203 0.962 . S
H3191 C3203 0.959 . S
H3192 C3206 0.929 . S
H3193 C3207 0.931 . S
H3194 C3209 0.930 . S
C3195 H3183 0.930 . S
C3195 C3196 1.399 . S
C3195 C3200 1.399 . S
C3196 C3195 1.399 . S
C3196 C3197 1.376 . S
C3197 H3184 0.930 . S
C3197 C3196 1.376 . S
C3197 C3198 1.388 . S
C3198 H3185 0.930 . S
C3198 C3197 1.388 . S
C3198 C3199 1.390 . S
C3199 C3198 1.390 . S
C3199 C3200 1.394 . S
C3199 C3205 1.465 1_545 S
C3200 C3195 1.399 . S
C3200 C3199 1.394 . S
C3200 C3201 1.519 1_545 S
C3201 C3200 1.519 1_565 S
C3201 C3202 1.502 . S
C3201 C3203 1.561 . S
C3201 C3204 1.523 . S
C3202 H3186 0.962 . S
C3202 H3187 0.977 . S
C3202 H3188 0.941 1_565 S
C3202 C3201 1.502 . S
C3203 H3189 0.959 1_565 S
C3203 H3190 0.962 . S
C3203 H3191 0.959 . S
C3203 C3201 1.561 . S
C3204 C3201 1.523 . S
C3204 C3205 1.396 . S
C3204 C3209 1.390 . S
C3205 C3199 1.465 1_565 S
C3205 C3204 1.396 . S
C3205 C3206 1.399 . S
C3206 H3192 0.929 . S
C3206 C3205 1.399 . S
C3206 C3207 1.385 . S
C3207 H3193 0.931 . S
C3207 C3206 1.385 . S
C3207 C3208 1.389 . S
C3208 C3207 1.389 . S
C3208 C3209 1.387 . S
C3209 H3194 0.930 . S
C3209 C3204 1.390 . S
C3209 C3208 1.387 . S
H3210 C3222 0.930 . S
H3211 C3224 0.930 . S
H3212 C3225 0.930 . S
H3213 C3229 0.962 . S
H3214 C3229 0.977 . S
H3215 C3229 0.941 1_655 S
H3216 C3230 0.959 1_655 S
H3217 C3230 0.962 . S
H3218 C3230 0.959 . S
H3219 C3233 0.929 . S
H3220 C3234 0.931 . S
H3221 C3236 0.930 . S
C3222 H3210 0.930 . S
C3222 C3223 1.399 . S
C3222 C3227 1.399 . S
C3223 C3222 1.399 . S
C3223 C3224 1.376 . S
C3224 H3211 0.930 . S
C3224 C3223 1.376 . S
C3224 C3225 1.388 . S
C3225 H3212 0.930 . S
C3225 C3224 1.388 . S
C3225 C3226 1.390 . S
C3226 C3225 1.390 . S
C3226 C3227 1.394 . S
C3226 C3232 1.465 1_655 S
C3227 C3222 1.399 . S
C3227 C3226 1.394 . S
C3227 C3228 1.519 1_655 S
C3228 C3227 1.519 1_455 S
C3228 C3229 1.502 . S
C3228 C3230 1.561 . S
C3228 C3231 1.523 . S
C3229 H3213 0.962 . S
C3229 H3214 0.977 . S
C3229 H3215 0.941 1_455 S
C3229 C3228 1.502 . S
C3230 H3216 0.959 1_455 S
C3230 H3217 0.962 . S
C3230 H3218 0.959 . S
C3230 C3228 1.561 . S
C3231 C3228 1.523 . S
C3231 C3232 1.396 . S
C3231 C3236 1.390 . S
C3232 C3226 1.465 1_455 S
C3232 C3231 1.396 . S
C3232 C3233 1.399 . S
C3233 H3219 0.929 . S
C3233 C3232 1.399 . S
C3233 C3234 1.385 . S
C3234 H3220 0.931 . S
C3234 C3233 1.385 . S
C3234 C3235 1.389 . S
C3235 C3234 1.389 . S
C3235 C3236 1.387 . S
C3236 H3221 0.930 . S
C3236 C3231 1.390 . S
C3236 C3235 1.387 . S
H3237 C3249 0.930 . S
H3238 C3251 0.930 . S
H3239 C3252 0.930 . S
H3240 C3256 0.962 . S
H3241 C3256 0.977 . S
H3242 C3256 0.941 1_455 S
H3243 C3257 0.959 1_455 S
H3244 C3257 0.962 . S
H3245 C3257 0.959 . S
H3246 C3260 0.929 . S
H3247 C3261 0.931 . S
H3248 C3263 0.930 . S
C3249 H3237 0.930 . S
C3249 C3250 1.399 . S
C3249 C3254 1.399 . S
C3250 C3249 1.399 . S
C3250 C3251 1.376 . S
C3251 H3238 0.930 . S
C3251 C3250 1.376 . S
C3251 C3252 1.388 . S
C3252 H3239 0.930 . S
C3252 C3251 1.388 . S
C3252 C3253 1.390 . S
C3253 C3252 1.390 . S
C3253 C3254 1.394 . S
C3253 C3259 1.465 1_455 S
C3254 C3249 1.399 . S
C3254 C3253 1.394 . S
C3254 C3255 1.519 1_455 S
C3255 C3254 1.519 1_655 S
C3255 C3256 1.502 . S
C3255 C3257 1.561 . S
C3255 C3258 1.523 . S
C3256 H3240 0.962 . S
C3256 H3241 0.977 . S
C3256 H3242 0.941 1_655 S
C3256 C3255 1.502 . S
C3257 H3243 0.959 1_655 S
C3257 H3244 0.962 . S
C3257 H3245 0.959 . S
C3257 C3255 1.561 . S
C3258 C3255 1.523 . S
C3258 C3259 1.396 . S
C3258 C3263 1.390 . S
C3259 C3253 1.465 1_655 S
C3259 C3258 1.396 . S
C3259 C3260 1.399 . S
C3260 H3246 0.929 . S
C3260 C3259 1.399 . S
C3260 C3261 1.385 . S
C3261 H3247 0.931 . S
C3261 C3260 1.385 . S
C3261 C3262 1.389 . S
C3262 C3261 1.389 . S
C3262 C3263 1.387 . S
C3263 H3248 0.930 . S
C3263 C3258 1.390 . S
C3263 C3262 1.387 . S
C685 C553 1.372 . S
C697 C7 1.364 . S
C712 C20 1.399 . S
C724 C511 1.389 . S
C739 C35 1.416 . S
C751 C525 1.419 . S
C766 C538 1.416 . S
C778 C48 1.410 . S
C793 C468 1.375 . S
C805 C62 1.366 . S
C820 C77 1.376 . S
C832 C483 1.386 . S
C847 C90 1.356 . S
C859 C497 1.354 . S
C874 C105 1.380 . S
C886 C454 1.390 . S
C901 C118 1.411 . S
C913 C441 1.416 . S
C928 C398 1.383 . S
C940 C132 1.374 . S
C955 C413 1.354 . S
C967 C147 1.359 . S
C982 C161 1.419 . S
C994 C426 1.419 . S
C1009 C175 1.404 . S
C1021 C356 1.395 . S
C1036 C189 1.353 . S
C1048 C371 1.356 . S
C1063 C384 1.419 . S
C1075 C202 1.416 . S
C1090 C343 1.360 . S
C1102 C217 1.356 . S
C1117 C230 1.375 . S
C1129 C622 1.385 . S
C1144 C665 1.383 . S
C1156 C245 1.374 . S
C1171 C636 1.352 . S
C1183 C258 1.355 . S
C1198 C651 1.415 . S
C1210 C273 1.409 . S
C1225 C566 1.356 . S
C1237 C286 1.363 . S
C1252 C594 1.419 . S
C1264 C300 1.417 . S
C1279 C315 1.397 . S
C1291 C609 1.387 . S
C1306 C581 1.357 . S
C1318 C329 1.364 . S
C1333 C455 1.407 . S
C1345 C287 1.414 . S
C1360 C244 1.373 . S
C1372 C469 1.384 . S
C1387 C482 1.356 . S
C1399 C259 1.354 . S
C1414 C496 1.357 . S
C1426 C272 1.365 . S
C1441 C328 1.362 . S
C1453 C510 1.357 . S
C1468 C524 1.407 . S
C1480 C301 1.398 . S
C1495 C314 1.353 . S
C1507 C539 1.354 . S
C1522 C231 1.396 . S
C1534 C552 1.405 . S
C1549 C567 1.419 . S
C1561 C216 1.419 . S
C1576 C174 1.419 . S
C1588 C664 1.417 . S
C1603 C637 1.413 . S
C1615 C188 1.406 . S
C1630 C203 1.415 . S
C1642 C650 1.418 . S
C1657 C133 1.403 . S
C1669 C580 1.393 . S
C1684 C146 1.399 . S
C1696 C595 1.389 . S
C1711 C160 1.380 . S
C1723 C608 1.371 . S
C1738 C623 1.371 . S
C1750 C119 1.363 . S
C1765 C342 1.419 . S
C1777 C104 1.417 . S
C1792 C399 1.418 . S
C1804 C21 1.413 . S
C1819 C412 1.375 . S
C1831 C34 1.367 . S
C1846 C427 1.353 . S
C1858 C49 1.357 . S
C1873 C440 1.381 . S
C1885 C6 1.391 . S
C1900 C76 1.353 . S
C1912 C370 1.357 . S
C1927 C385 1.411 . S
C1939 C91 1.404 . S
C1954 C357 1.354 . S
C1966 C63 1.359 . S
C1981 C8 1.526 . S
C1993 C372 1.532 . S
C2008 C387 1.513 . S
C2020 C23 1.505 . S
C2035 C36 1.495 . S
C2047 C344 1.490 . S
C2062 C51 1.491 . S
C2074 C359 1.498 . S
C2089 C65 1.493 . S
C2101 C429 1.489 . S
C2116 C442 1.496 . S
C2128 C78 1.503 . S
C2143 C93 1.525 . S
C2155 C401 1.531 . S
C2170 C414 1.531 . S
C2182 C106 1.525 . S
C2197 C121 1.519 . S
C2209 C512 1.527 . S
C2224 C526 1.532 . S
C2236 C135 1.536 . S
C2251 C148 1.506 . S
C2263 C541 1.499 . S
C2278 C162 1.528 . S
C2290 C554 1.533 . S
C2305 C176 1.495 . S
C2317 C457 1.490 . S
C2332 C190 1.496 . S
C2344 C471 1.491 . S
C2359 C484 1.534 . S
C2371 C205 1.528 . S
C2386 C218 1.500 . S
C2398 C498 1.494 . S
C2413 C610 1.530 . S
C2425 C233 1.524 . S
C2440 C246 1.485 . S
C2452 C639 1.488 . S
C2467 C261 1.503 . S
C2479 C652 1.496 . S
C2494 C569 1.497 . S
C2506 C274 1.505 . S
C2521 C666 1.492 . S
C2533 C289 1.499 . S
C2548 C303 1.532 . S
C2560 C582 1.526 . S
C2575 C597 1.537 . S
C2587 C316 1.534 . S
C2602 C330 1.489 . S
C2614 C625 1.495 . S
C2629 C596 1.535 . S
C2641 C288 1.538 . S
C2656 C247 1.489 . S
C2668 C611 1.494 . S
C2683 C624 1.536 . S
C2695 C260 1.538 . S
C2710 C583 1.531 . S
C2722 C275 1.525 . S
C2737 C653 1.525 . S
C2749 C331 1.531 . S
C2764 C302 1.538 . S
C2776 C568 1.538 . S
C2791 C667 1.534 . S
C2803 C317 1.537 . S
C2818 C232 1.528 . S
C2830 C638 1.521 . S
C2845 C470 1.500 . S
C2857 C219 1.494 . S
C2872 C177 1.528 . S
C2884 C485 1.533 . S
C2899 C191 1.527 . S
C2911 C499 1.519 . S
C2926 C456 1.532 . S
C2938 C204 1.536 . S
C2953 C134 1.520 . S
C2965 C555 1.512 . S
C2980 C513 1.492 . S
C2992 C149 1.488 . S
C3007 C163 1.492 . S
C3019 C527 1.499 . S
C3034 C120 1.496 . S
C3046 C540 1.491 . S
C3061 C386 1.501 . S
C3073 C107 1.509 . S
C3088 C22 1.531 . S
C3100 C415 1.525 . S
C3115 C37 1.530 . S
C3127 C428 1.535 . S
C3142 C443 1.527 . S
C3154 C50 1.520 . S
C3169 C9 1.537 . S
C3181 C400 1.538 . S
C3196 C79 1.493 . S
C3208 C358 1.500 . S
C3223 C92 1.497 . S
C3235 C373 1.505 . S
C3250 C64 1.530 . S
C3262 C345 1.523 . S
