# Generated by pormake.
# Topology tes, (8)-cn, num edge types: 1
# Building blocks:
#     Node 0, Type 0, BuildingBlock: EBIMEJ_clean_sbu_0, # of connection points: 8
#     Node 1, Type 0, BuildingBlock: EBIMEJ_clean_sbu_0, # of connection points: 8
#     Node 2, Type 0, BuildingBlock: EBIMEJ_clean_sbu_0, # of connection points: 8
#     Node 3, Type 0, BuildingBlock: EBIMEJ_clean_sbu_0, # of connection points: 8
#     Node 4, Type 0, BuildingBlock: EBIMEJ_clean_sbu_0, # of connection points: 8
#     Node 5, Type 0, BuildingBlock: EBIMEJ_clean_sbu_0, # of connection points: 8
#     Node 6, Type 0, BuildingBlock: EBIMEJ_clean_sbu_0, # of connection points: 8
#     Node 7, Type 0, BuildingBlock: EBIMEJ_clean_sbu_0, # of connection points: 8
#     Node 8, Type 0, BuildingBlock: EBIMEJ_clean_sbu_0, # of connection points: 8
#     Node 9, Type 0, BuildingBlock: EBIMEJ_clean_sbu_0, # of connection points: 8
#     Node 10, Type 0, BuildingBlock: EBIMEJ_clean_sbu_0, # of connection points: 8
#     Node 11, Type 0, BuildingBlock: EBIMEJ_clean_sbu_0, # of connection points: 8
#     Node 12, Type 0, BuildingBlock: EBIMEJ_clean_sbu_0, # of connection points: 8
#     Node 13, Type 0, BuildingBlock: EBIMEJ_clean_sbu_0, # of connection points: 8
#     Node 14, Type 0, BuildingBlock: EBIMEJ_clean_sbu_0, # of connection points: 8
#     Node 15, Type 0, BuildingBlock: EBIMEJ_clean_sbu_0, # of connection points: 8
#     Node 16, Type 0, BuildingBlock: EBIMEJ_clean_sbu_0, # of connection points: 8
#     Node 17, Type 0, BuildingBlock: EBIMEJ_clean_sbu_0, # of connection points: 8
#     Node 18, Type 0, BuildingBlock: EBIMEJ_clean_sbu_0, # of connection points: 8
#     Node 19, Type 0, BuildingBlock: EBIMEJ_clean_sbu_0, # of connection points: 8
#     Node 20, Type 0, BuildingBlock: EBIMEJ_clean_sbu_0, # of connection points: 8
#     Node 21, Type 0, BuildingBlock: EBIMEJ_clean_sbu_0, # of connection points: 8
#     Node 22, Type 0, BuildingBlock: EBIMEJ_clean_sbu_0, # of connection points: 8
#     Node 23, Type 0, BuildingBlock: EBIMEJ_clean_sbu_0, # of connection points: 8
#     Edge 24, Type (0, 0), BuildingBlock: CIFDUS_clean_linker_0, # of connection points: 2
#     Edge 25, Type (0, 0), BuildingBlock: CIFDUS_clean_linker_0, # of connection points: 2
#     Edge 26, Type (0, 0), BuildingBlock: CIFDUS_clean_linker_0, # of connection points: 2
#     Edge 27, Type (0, 0), BuildingBlock: CIFDUS_clean_linker_0, # of connection points: 2
#     Edge 28, Type (0, 0), BuildingBlock: CIFDUS_clean_linker_0, # of connection points: 2
#     Edge 29, Type (0, 0), BuildingBlock: CIFDUS_clean_linker_0, # of connection points: 2
#     Edge 30, Type (0, 0), BuildingBlock: CIFDUS_clean_linker_0, # of connection points: 2
#     Edge 31, Type (0, 0), BuildingBlock: CIFDUS_clean_linker_0, # of connection points: 2
#     Edge 32, Type (0, 0), BuildingBlock: CIFDUS_clean_linker_0, # of connection points: 2
#     Edge 33, Type (0, 0), BuildingBlock: CIFDUS_clean_linker_0, # of connection points: 2
#     Edge 34, Type (0, 0), BuildingBlock: CIFDUS_clean_linker_0, # of connection points: 2
#     Edge 35, Type (0, 0), BuildingBlock: CIFDUS_clean_linker_0, # of connection points: 2
#     Edge 36, Type (0, 0), BuildingBlock: CIFDUS_clean_linker_0, # of connection points: 2
#     Edge 37, Type (0, 0), BuildingBlock: CIFDUS_clean_linker_0, # of connection points: 2
#     Edge 38, Type (0, 0), BuildingBlock: CIFDUS_clean_linker_0, # of connection points: 2
#     Edge 39, Type (0, 0), BuildingBlock: CIFDUS_clean_linker_0, # of connection points: 2
#     Edge 40, Type (0, 0), BuildingBlock: CIFDUS_clean_linker_0, # of connection points: 2
#     Edge 41, Type (0, 0), BuildingBlock: CIFDUS_clean_linker_0, # of connection points: 2
#     Edge 42, Type (0, 0), BuildingBlock: CIFDUS_clean_linker_0, # of connection points: 2
#     Edge 43, Type (0, 0), BuildingBlock: CIFDUS_clean_linker_0, # of connection points: 2
#     Edge 44, Type (0, 0), BuildingBlock: CIFDUS_clean_linker_0, # of connection points: 2
#     Edge 45, Type (0, 0), BuildingBlock: CIFDUS_clean_linker_0, # of connection points: 2
#     Edge 46, Type (0, 0), BuildingBlock: CIFDUS_clean_linker_0, # of connection points: 2
#     Edge 47, Type (0, 0), BuildingBlock: CIFDUS_clean_linker_0, # of connection points: 2
#     Edge 48, Type (0, 0), BuildingBlock: CIFDUS_clean_linker_0, # of connection points: 2
#     Edge 49, Type (0, 0), BuildingBlock: CIFDUS_clean_linker_0, # of connection points: 2
#     Edge 50, Type (0, 0), BuildingBlock: CIFDUS_clean_linker_0, # of connection points: 2
#     Edge 51, Type (0, 0), BuildingBlock: CIFDUS_clean_linker_0, # of connection points: 2
#     Edge 52, Type (0, 0), BuildingBlock: CIFDUS_clean_linker_0, # of connection points: 2
#     Edge 53, Type (0, 0), BuildingBlock: CIFDUS_clean_linker_0, # of connection points: 2
#     Edge 54, Type (0, 0), BuildingBlock: CIFDUS_clean_linker_0, # of connection points: 2
#     Edge 55, Type (0, 0), BuildingBlock: CIFDUS_clean_linker_0, # of connection points: 2
#     Edge 56, Type (0, 0), BuildingBlock: CIFDUS_clean_linker_0, # of connection points: 2
#     Edge 57, Type (0, 0), BuildingBlock: CIFDUS_clean_linker_0, # of connection points: 2
#     Edge 58, Type (0, 0), BuildingBlock: CIFDUS_clean_linker_0, # of connection points: 2
#     Edge 59, Type (0, 0), BuildingBlock: CIFDUS_clean_linker_0, # of connection points: 2
#     Edge 60, Type (0, 0), BuildingBlock: CIFDUS_clean_linker_0, # of connection points: 2
#     Edge 61, Type (0, 0), BuildingBlock: CIFDUS_clean_linker_0, # of connection points: 2
#     Edge 62, Type (0, 0), BuildingBlock: CIFDUS_clean_linker_0, # of connection points: 2
#     Edge 63, Type (0, 0), BuildingBlock: CIFDUS_clean_linker_0, # of connection points: 2
#     Edge 64, Type (0, 0), BuildingBlock: CIFDUS_clean_linker_0, # of connection points: 2
#     Edge 65, Type (0, 0), BuildingBlock: CIFDUS_clean_linker_0, # of connection points: 2
#     Edge 66, Type (0, 0), BuildingBlock: CIFDUS_clean_linker_0, # of connection points: 2
#     Edge 67, Type (0, 0), BuildingBlock: CIFDUS_clean_linker_0, # of connection points: 2
#     Edge 68, Type (0, 0), BuildingBlock: CIFDUS_clean_linker_0, # of connection points: 2
#     Edge 69, Type (0, 0), BuildingBlock: CIFDUS_clean_linker_0, # of connection points: 2
#     Edge 70, Type (0, 0), BuildingBlock: CIFDUS_clean_linker_0, # of connection points: 2
#     Edge 71, Type (0, 0), BuildingBlock: CIFDUS_clean_linker_0, # of connection points: 2
#     Edge 72, Type (0, 0), BuildingBlock: CIFDUS_clean_linker_0, # of connection points: 2
#     Edge 73, Type (0, 0), BuildingBlock: CIFDUS_clean_linker_0, # of connection points: 2
#     Edge 74, Type (0, 0), BuildingBlock: CIFDUS_clean_linker_0, # of connection points: 2
#     Edge 75, Type (0, 0), BuildingBlock: CIFDUS_clean_linker_0, # of connection points: 2
#     Edge 76, Type (0, 0), BuildingBlock: CIFDUS_clean_linker_0, # of connection points: 2
#     Edge 77, Type (0, 0), BuildingBlock: CIFDUS_clean_linker_0, # of connection points: 2
#     Edge 78, Type (0, 0), BuildingBlock: CIFDUS_clean_linker_0, # of connection points: 2
#     Edge 79, Type (0, 0), BuildingBlock: CIFDUS_clean_linker_0, # of connection points: 2
#     Edge 80, Type (0, 0), BuildingBlock: CIFDUS_clean_linker_0, # of connection points: 2
#     Edge 81, Type (0, 0), BuildingBlock: CIFDUS_clean_linker_0, # of connection points: 2
#     Edge 82, Type (0, 0), BuildingBlock: CIFDUS_clean_linker_0, # of connection points: 2
#     Edge 83, Type (0, 0), BuildingBlock: CIFDUS_clean_linker_0, # of connection points: 2
#     Edge 84, Type (0, 0), BuildingBlock: CIFDUS_clean_linker_0, # of connection points: 2
#     Edge 85, Type (0, 0), BuildingBlock: CIFDUS_clean_linker_0, # of connection points: 2
#     Edge 86, Type (0, 0), BuildingBlock: CIFDUS_clean_linker_0, # of connection points: 2
#     Edge 87, Type (0, 0), BuildingBlock: CIFDUS_clean_linker_0, # of connection points: 2
#     Edge 88, Type (0, 0), BuildingBlock: CIFDUS_clean_linker_0, # of connection points: 2
#     Edge 89, Type (0, 0), BuildingBlock: CIFDUS_clean_linker_0, # of connection points: 2
#     Edge 90, Type (0, 0), BuildingBlock: CIFDUS_clean_linker_0, # of connection points: 2
#     Edge 91, Type (0, 0), BuildingBlock: CIFDUS_clean_linker_0, # of connection points: 2
#     Edge 92, Type (0, 0), BuildingBlock: CIFDUS_clean_linker_0, # of connection points: 2
#     Edge 93, Type (0, 0), BuildingBlock: CIFDUS_clean_linker_0, # of connection points: 2
#     Edge 94, Type (0, 0), BuildingBlock: CIFDUS_clean_linker_0, # of connection points: 2
#     Edge 95, Type (0, 0), BuildingBlock: CIFDUS_clean_linker_0, # of connection points: 2
#     Edge 96, Type (0, 0), BuildingBlock: CIFDUS_clean_linker_0, # of connection points: 2
#     Edge 97, Type (0, 0), BuildingBlock: CIFDUS_clean_linker_0, # of connection points: 2
#     Edge 98, Type (0, 0), BuildingBlock: CIFDUS_clean_linker_0, # of connection points: 2
#     Edge 99, Type (0, 0), BuildingBlock: CIFDUS_clean_linker_0, # of connection points: 2
#     Edge 100, Type (0, 0), BuildingBlock: CIFDUS_clean_linker_0, # of connection points: 2
#     Edge 101, Type (0, 0), BuildingBlock: CIFDUS_clean_linker_0, # of connection points: 2
#     Edge 102, Type (0, 0), BuildingBlock: CIFDUS_clean_linker_0, # of connection points: 2
#     Edge 103, Type (0, 0), BuildingBlock: CIFDUS_clean_linker_0, # of connection points: 2
#     Edge 104, Type (0, 0), BuildingBlock: CIFDUS_clean_linker_0, # of connection points: 2
#     Edge 105, Type (0, 0), BuildingBlock: CIFDUS_clean_linker_0, # of connection points: 2
#     Edge 106, Type (0, 0), BuildingBlock: CIFDUS_clean_linker_0, # of connection points: 2
#     Edge 107, Type (0, 0), BuildingBlock: CIFDUS_clean_linker_0, # of connection points: 2
#     Edge 108, Type (0, 0), BuildingBlock: CIFDUS_clean_linker_0, # of connection points: 2
#     Edge 109, Type (0, 0), BuildingBlock: CIFDUS_clean_linker_0, # of connection points: 2
#     Edge 110, Type (0, 0), BuildingBlock: CIFDUS_clean_linker_0, # of connection points: 2
#     Edge 111, Type (0, 0), BuildingBlock: CIFDUS_clean_linker_0, # of connection points: 2
#     Edge 112, Type (0, 0), BuildingBlock: CIFDUS_clean_linker_0, # of connection points: 2
#     Edge 113, Type (0, 0), BuildingBlock: CIFDUS_clean_linker_0, # of connection points: 2
#     Edge 114, Type (0, 0), BuildingBlock: CIFDUS_clean_linker_0, # of connection points: 2
#     Edge 115, Type (0, 0), BuildingBlock: CIFDUS_clean_linker_0, # of connection points: 2
#     Edge 116, Type (0, 0), BuildingBlock: CIFDUS_clean_linker_0, # of connection points: 2
#     Edge 117, Type (0, 0), BuildingBlock: CIFDUS_clean_linker_0, # of connection points: 2
#     Edge 118, Type (0, 0), BuildingBlock: CIFDUS_clean_linker_0, # of connection points: 2
#     Edge 119, Type (0, 0), BuildingBlock: CIFDUS_clean_linker_0, # of connection points: 2
# Relax obj value: 0.214
# Max RMSD: 0.300
# Mean RMSD: 0.292
data_MOF--net-tes--node1-EBIMEJ_clean_sbu_0--edge1-CIFDUS_clean_linker_0
_symmetry_space_group_name_H-M    P1
_symmetry_Int_Tables_number       1
_symmetry_cell_setting            triclinic
loop_
_symmetry_equiv_pos_as_xyz
'x, y, z'
_cell_length_a     44.469423
_cell_length_b     44.139045
_cell_length_c     45.53364
_cell_angle_alpha  90.814693
_cell_angle_beta   91.635853
_cell_angle_gamma 91.316946
loop_
_atom_site_label
_atom_site_type_symbol
_atom_site_fract_x
_atom_site_fract_y
_atom_site_fract_z
_atom_type_partial_charge
Co0 Co 0.09785 0.37354 0.4286 0.0
Co1 Co 0.13396 0.41169 0.37852 0.0
Co2 Co 0.14561 0.34448 0.39025 0.0
H3 H 0.12817 0.36707 0.4094 0.0
O4 O 0.1381 0.38396 0.41283 0.0
H5 H 0.15019 0.38929 0.35767 0.0
O6 O 0.14087 0.3719 0.35553 0.0
Co7 Co 0.17657 0.38343 0.33268 0.0
O8 O 0.15844 0.41877 0.31044 0.0
O9 O 0.12793 0.43844 0.34347 0.0
O10 O 0.18423 0.33751 0.33156 0.0
O11 O 0.16031 0.31141 0.36632 0.0
O12 O 0.05164 0.37745 0.42515 0.0
O13 O 0.07668 0.3967 0.46029 0.0
O14 O 0.20198 0.42014 0.34605 0.0
O15 O 0.17668 0.43312 0.38536 0.0
C16 C 0.12897 0.31526 0.44773 0.0
C17 C 0.11497 0.44128 0.43026 0.0
C18 C 0.20885 0.377 0.29048 0.0
C19 C 0.07775 0.32271 0.39102 0.0
C20 C 0.13972 0.43861 0.31817 0.0
C21 C 0.17639 0.31265 0.34371 0.0
C22 C 0.05103 0.39269 0.44863 0.0
C23 C 0.19923 0.43754 0.36829 0.0
O24 O 0.10771 0.3342 0.44988 0.0
O25 O 0.14825 0.31759 0.42704 0.0
O26 O 0.11975 0.44431 0.40317 0.0
O27 O 0.11265 0.41546 0.44254 0.0
O28 O 0.2142 0.36567 0.31526 0.0
O29 O 0.18515 0.39185 0.28974 0.0
O30 O 0.07039 0.34087 0.41116 0.0
O31 O 0.10428 0.32403 0.38051 0.0
Co32 Co 0.87806 0.9312 0.59622 0.0
Co33 Co 0.92409 0.87533 0.63029 0.0
Co34 Co 0.85675 0.8864 0.64274 0.0
H35 H 0.87693 0.90766 0.6245 0.0
O36 O 0.89469 0.91098 0.63254 0.0
H37 H 0.90243 0.85522 0.64778 0.0
O38 O 0.88514 0.85145 0.63905 0.0
Co39 Co 0.89835 0.83462 0.67755 0.0
O40 O 0.92894 0.80707 0.65903 0.0
O41 O 0.9515 0.83888 0.62836 0.0
O42 O 0.86249 0.85614 0.69516 0.0
O43 O 0.82705 0.86036 0.66091 0.0
O44 O 0.88821 0.94343 0.55518 0.0
O45 O 0.88506 0.9761 0.58886 0.0
O46 O 0.93883 0.84498 0.69704 0.0
O47 O 0.94304 0.8869 0.67148 0.0
C48 C 0.82303 0.94588 0.63084 0.0
C49 C 0.94303 0.91894 0.59887 0.0
C50 C 0.88281 0.8018 0.71698 0.0
C51 C 0.82921 0.88961 0.57872 0.0
C52 C 0.94963 0.81305 0.64099 0.0
C53 C 0.83511 0.85218 0.68645 0.0
C54 C 0.89007 0.97098 0.56225 0.0
C55 C 0.95206 0.87021 0.69294 0.0
O56 O 0.83955 0.95199 0.60905 0.0
O57 O 0.82855 0.92278 0.6472 0.0
O58 O 0.95669 0.9004 0.6147 0.0
O59 O 0.91688 0.90968 0.59037 0.0
O60 O 0.89544 0.82729 0.72113 0.0
O61 O 0.87867 0.79499 0.69026 0.0
O62 O 0.84335 0.9138 0.57261 0.0
O63 O 0.83482 0.87554 0.60292 0.0
Co64 Co 0.42875 0.63233 0.93705 0.0
Co65 Co 0.39044 0.58927 0.87963 0.0
Co66 Co 0.38255 0.65795 0.89204 0.0
H67 H 0.39983 0.636 0.91279 0.0
O68 O 0.39029 0.61883 0.91502 0.0
H69 H 0.37234 0.61152 0.86019 0.0
O70 O 0.38207 0.62844 0.8573 0.0
Co71 Co 0.34209 0.61621 0.83832 0.0
O72 O 0.3589 0.58261 0.81232 0.0
O73 O 0.39102 0.56154 0.84414 0.0
O74 O 0.33636 0.66243 0.83932 0.0
O75 O 0.36836 0.6907 0.86763 0.0
O76 O 0.46251 0.61167 0.95929 0.0
O77 O 0.43044 0.63583 0.9821 0.0
O78 O 0.31945 0.57796 0.85091 0.0
O79 O 0.34852 0.57153 0.8904 0.0
C80 C 0.40039 0.69196 0.95007 0.0
C81 C 0.42586 0.56805 0.91913 0.0
C82 C 0.29627 0.62734 0.80923 0.0
C83 C 0.45109 0.677 0.89572 0.0
C84 C 0.37766 0.56212 0.8189 0.0
C85 C 0.34704 0.68805 0.84869 0.0
C86 C 0.45331 0.61979 0.98389 0.0
C87 C 0.32464 0.5643 0.87484 0.0
O88 O 0.42116 0.6733 0.95579 0.0
O89 O 0.38198 0.68754 0.92785 0.0
O90 O 0.40615 0.55588 0.90249 0.0
O91 O 0.43305 0.59501 0.9123 0.0
O92 O 0.29747 0.6062 0.82735 0.0
O93 O 0.32079 0.6419 0.80802 0.0
O94 O 0.4568 0.6621 0.91875 0.0
O95 O 0.4251 0.67474 0.88237 0.0
Co96 Co 0.63559 0.17095 0.18748 0.0
Co97 Co 0.67153 0.13771 0.13296 0.0
Co98 Co 0.60673 0.12077 0.14616 0.0
H99 H 0.62899 0.14062 0.16575 0.0
O100 O 0.64628 0.13227 0.16808 0.0
H101 H 0.64885 0.11946 0.11288 0.0
O102 O 0.63146 0.12766 0.11109 0.0
Co103 Co 0.64255 0.09092 0.08914 0.0
O104 O 0.67648 0.10866 0.06527 0.0
O105 O 0.69671 0.14289 0.09705 0.0
O106 O 0.59658 0.09064 0.08114 0.0
O107 O 0.57332 0.10312 0.12258 0.0
O108 O 0.64071 0.21712 0.19198 0.0
O109 O 0.65613 0.1878 0.22455 0.0
O110 O 0.67951 0.06745 0.10157 0.0
O111 O 0.691 0.09608 0.14078 0.0
C112 C 0.57897 0.13467 0.20401 0.0
C113 C 0.70513 0.16328 0.18236 0.0
C114 C 0.63259 0.0474 0.05727 0.0
C115 C 0.5841 0.18736 0.14963 0.0
C116 C 0.69624 0.12911 0.07209 0.0
C117 C 0.57282 0.09391 0.09597 0.0
C118 C 0.65348 0.21481 0.21682 0.0
C119 C 0.6955 0.07237 0.12474 0.0
O120 O 0.59609 0.15832 0.20734 0.0
O121 O 0.58255 0.11546 0.18294 0.0
O122 O 0.70518 0.15427 0.15593 0.0
O123 O 0.68118 0.1663 0.19701 0.0
O124 O 0.62393 0.04858 0.08334 0.0
O125 O 0.64708 0.07064 0.04988 0.0
O126 O 0.60271 0.19628 0.16972 0.0
O127 O 0.58513 0.1605 0.13865 0.0
Co128 Co 0.09125 0.63471 0.07369 0.0
Co129 Co 0.12495 0.58897 0.13011 0.0
Co130 Co 0.13834 0.65699 0.12078 0.0
H131 H 0.11969 0.63637 0.09863 0.0
O132 O 0.12784 0.61889 0.0958 0.0
H133 H 0.14234 0.61119 0.15115 0.0
O134 O 0.13326 0.62805 0.15408 0.0
Co135 Co 0.1715 0.6166 0.17417 0.0
O136 O 0.15267 0.5832 0.19849 0.0
O137 O 0.12195 0.56087 0.16461 0.0
O138 O 0.19101 0.65366 0.15522 0.0
O139 O 0.15609 0.68738 0.14749 0.0
O140 O 0.05426 0.61438 0.05478 0.0
O141 O 0.08421 0.63952 0.02943 0.0
O142 O 0.19264 0.57798 0.16393 0.0
O143 O 0.16746 0.57232 0.12149 0.0
C144 C 0.12922 0.69044 0.06207 0.0
C145 C 0.08994 0.56943 0.08923 0.0
C146 C 0.20752 0.63516 0.21167 0.0
C147 C 0.07413 0.68307 0.11377 0.0
C148 C 0.13414 0.562 0.19047 0.0
C149 C 0.18205 0.6809 0.15715 0.0
C150 C 0.06076 0.62324 0.02966 0.0
C151 C 0.18944 0.56496 0.13902 0.0
O152 O 0.10732 0.67272 0.05399 0.0
O153 O 0.14418 0.68617 0.08636 0.0
O154 O 0.10867 0.55607 0.10521 0.0
O155 O 0.08574 0.59683 0.0969 0.0
O156 O 0.21473 0.62503 0.18702 0.0
O157 O 0.17958 0.63497 0.21509 0.0
O158 O 0.06797 0.66942 0.08956 0.0
O159 O 0.09794 0.67688 0.12911 0.0
Co160 Co 0.62305 0.84668 0.33858 0.0
Co161 Co 0.66998 0.88132 0.38938 0.0
Co162 Co 0.60307 0.89558 0.38219 0.0
H163 H 0.62171 0.87663 0.36078 0.0
O164 O 0.63878 0.88529 0.35678 0.0
H165 H 0.65103 0.89925 0.41143 0.0
O166 O 0.63394 0.89049 0.41514 0.0
Co167 Co 0.65038 0.92904 0.43419 0.0
O168 O 0.68241 0.90707 0.45831 0.0
O169 O 0.70063 0.87716 0.4233 0.0
O170 O 0.61188 0.94653 0.41649 0.0
O171 O 0.57538 0.91305 0.40931 0.0
O172 O 0.62524 0.80025 0.33714 0.0
O173 O 0.63206 0.82682 0.30001 0.0
O174 O 0.68986 0.94859 0.42257 0.0
O175 O 0.6887 0.92386 0.38 0.0
C176 C 0.56832 0.88524 0.32358 0.0
C177 C 0.69396 0.85425 0.33731 0.0
C178 C 0.63894 0.97099 0.46751 0.0
C179 C 0.57497 0.82962 0.37802 0.0
C180 C 0.70175 0.8882 0.44966 0.0
C181 C 0.58538 0.93699 0.42206 0.0
C182 C 0.63074 0.80057 0.3102 0.0
C183 C 0.69989 0.94531 0.39696 0.0
O184 O 0.58484 0.86265 0.31774 0.0
O185 O 0.57329 0.90142 0.34724 0.0
O186 O 0.69944 0.86585 0.3626 0.0
O187 O 0.66739 0.84875 0.32666 0.0
O188 O 0.65547 0.97383 0.44581 0.0
O189 O 0.62919 0.9443 0.47047 0.0
O190 O 0.58949 0.82198 0.35574 0.0
O191 O 0.58053 0.85528 0.39116 0.0
Co192 Co 0.33732 0.3837 0.67372 0.0
Co193 Co 0.39253 0.34518 0.63872 0.0
Co194 Co 0.37839 0.41107 0.62576 0.0
H195 H 0.35886 0.38907 0.64455 0.0
O196 O 0.35607 0.37153 0.63601 0.0
H197 H 0.41223 0.36816 0.6214 0.0
O198 O 0.41454 0.3854 0.63051 0.0
Co199 Co 0.43464 0.37526 0.59325 0.0
O200 O 0.45987 0.34055 0.60818 0.0
O201 O 0.43021 0.31885 0.64114 0.0
O202 O 0.41816 0.41308 0.57323 0.0
O203 O 0.40236 0.44338 0.60882 0.0
O204 O 0.3108 0.35841 0.70069 0.0
O205 O 0.32785 0.40075 0.71446 0.0
O206 O 0.42103 0.33787 0.56991 0.0
O207 O 0.38189 0.32706 0.59742 0.0
C208 C 0.31781 0.43942 0.63787 0.0
C209 C 0.34496 0.31232 0.66776 0.0
C210 C 0.47866 0.3954 0.5681 0.0
C211 C 0.37659 0.43622 0.68967 0.0
C212 C 0.45493 0.32001 0.62699 0.0
C213 C 0.41464 0.43952 0.58433 0.0
C214 C 0.31215 0.37803 0.72098 0.0
C215 C 0.39729 0.3223 0.57429 0.0
O216 O 0.31374 0.42138 0.65941 0.0
O217 O 0.34067 0.43661 0.62126 0.0
O218 O 0.36906 0.31144 0.65352 0.0
O219 O 0.33186 0.33694 0.67493 0.0
O220 O 0.45233 0.39503 0.55734 0.0
O221 O 0.48012 0.38427 0.5933 0.0
O222 O 0.35519 0.41884 0.69694 0.0
O223 O 0.38875 0.43346 0.66462 0.0
Co224 Co 0.88114 0.17711 0.83192 0.0
Co225 Co 0.84143 0.13892 0.88257 0.0
Co226 Co 0.90766 0.12784 0.87284 0.0
H227 H 0.88637 0.14697 0.85287 0.0
O228 O 0.86949 0.1373 0.84897 0.0
H229 H 0.86352 0.12228 0.90346 0.0
O230 O 0.88038 0.1321 0.90673 0.0
Co231 Co 0.86903 0.09332 0.92588 0.0
O232 O 0.83551 0.11098 0.94995 0.0
O233 O 0.81405 0.14161 0.91715 0.0
O234 O 0.90313 0.07284 0.90446 0.0
O235 O 0.93788 0.10859 0.89736 0.0
O236 O 0.8759 0.22034 0.81772 0.0
O237 O 0.87238 0.18374 0.78813 0.0
O238 O 0.83041 0.06985 0.9144 0.0
O239 O 0.82375 0.09514 0.87309 0.0
C240 C 0.93729 0.14148 0.81578 0.0
C241 C 0.81083 0.17534 0.84019 0.0
C242 C 0.89057 0.06437 0.96637 0.0
C243 C 0.93088 0.19611 0.87278 0.0
C244 C 0.815 0.12934 0.94251 0.0
C245 C 0.93069 0.08185 0.90482 0.0
C246 C 0.87174 0.21203 0.79135 0.0
C247 C 0.8165 0.07272 0.88986 0.0
O248 O 0.92022 0.1642 0.81197 0.0
O249 O 0.93369 0.12325 0.83726 0.0
O250 O 0.80895 0.15322 0.85758 0.0
O251 O 0.83591 0.18689 0.83212 0.0
O252 O 0.86694 0.05667 0.95223 0.0
O253 O 0.90209 0.08881 0.95793 0.0
O254 O 0.9117 0.20404 0.85341 0.0
O255 O 0.93057 0.16877 0.88259 0.0
Co256 Co 0.43349 0.09375 0.37955 0.0
Co257 Co 0.38054 0.12881 0.42098 0.0
Co258 Co 0.39046 0.14274 0.35673 0.0
H259 H 0.41164 0.12373 0.37665 0.0
O260 O 0.41539 0.13254 0.39353 0.0
H261 H 0.35866 0.14565 0.39981 0.0
O262 O 0.35603 0.13618 0.38316 0.0
Co263 Co 0.33375 0.17294 0.39428 0.0
O264 O 0.3129 0.15785 0.43051 0.0
O265 O 0.34579 0.12419 0.4474 0.0
O266 O 0.34866 0.1953 0.35822 0.0
O267 O 0.36389 0.15969 0.32716 0.0
O268 O 0.44899 0.05361 0.39339 0.0
O269 O 0.47866 0.0903 0.38653 0.0
O270 O 0.3482 0.19748 0.43027 0.0
O271 O 0.3899 0.17162 0.43816 0.0
C272 C 0.44949 0.13155 0.32656 0.0
C273 C 0.41859 0.09109 0.44182 0.0
C274 C 0.28582 0.18831 0.37182 0.0
C275 C 0.39397 0.0774 0.33017 0.0
C276 C 0.3209 0.13783 0.44886 0.0
C277 C 0.35132 0.18463 0.33214 0.0
C278 C 0.47574 0.06336 0.39462 0.0
C279 C 0.37315 0.19423 0.44407 0.0
O280 O 0.45442 0.1088 0.34296 0.0
O281 O 0.42672 0.14871 0.3304 0.0
O282 O 0.40606 0.11385 0.45239 0.0
O283 O 0.41002 0.08334 0.4158 0.0
O284 O 0.30946 0.20444 0.37239 0.0
O285 O 0.28906 0.16358 0.38464 0.0
O286 O 0.4167 0.06967 0.34536 0.0
O287 O 0.38092 0.10258 0.33493 0.0
Co288 Co 0.07346 0.09502 0.63452 0.0
Co289 Co 0.13651 0.12214 0.59645 0.0
Co290 Co 0.12414 0.13781 0.66067 0.0
H291 H 0.10118 0.12129 0.63884 0.0
O292 O 0.10028 0.1298 0.62178 0.0
H293 H 0.15856 0.13825 0.61921 0.0
O294 O 0.15913 0.12898 0.63579 0.0
Co295 Co 0.1861 0.16373 0.62693 0.0
O296 O 0.2059 0.14902 0.59006 0.0
O297 O 0.17247 0.11429 0.57235 0.0
O298 O 0.17476 0.18589 0.66469 0.0
O299 O 0.15084 0.15237 0.69262 0.0
O300 O 0.04483 0.05909 0.63897 0.0
O301 O 0.03146 0.09634 0.61456 0.0
O302 O 0.17586 0.18915 0.5916 0.0
O303 O 0.1335 0.16472 0.57741 0.0
C304 C 0.06226 0.13225 0.68904 0.0
C305 C 0.09358 0.08812 0.57318 0.0
C306 C 0.23678 0.17777 0.64615 0.0
C307 C 0.10965 0.07439 0.68484 0.0
C308 C 0.19774 0.1285 0.57138 0.0
C309 C 0.16731 0.17593 0.68983 0.0
C310 C 0.0242 0.07077 0.62397 0.0
C311 C 0.15278 0.18675 0.57452 0.0
O312 O 0.05383 0.11082 0.67136 0.0
O313 O 0.08768 0.14653 0.68622 0.0
O314 O 0.11194 0.10731 0.56352 0.0
O315 O 0.09777 0.08109 0.60002 0.0
O316 O 0.21337 0.19159 0.65214 0.0
O317 O 0.23161 0.1559 0.62872 0.0
O318 O 0.08487 0.07154 0.67045 0.0
O319 O 0.12841 0.09605 0.67961 0.0
Co320 Co 0.18771 0.84257 0.89035 0.0
Co321 Co 0.15002 0.89747 0.84599 0.0
Co322 Co 0.13556 0.88294 0.91041 0.0
H323 H 0.15699 0.86394 0.89115 0.0
O324 O 0.14932 0.86079 0.87358 0.0
H325 H 0.13106 0.91627 0.86736 0.0
O326 O 0.13957 0.91938 0.88454 0.0
Co327 Co 0.10038 0.93649 0.87176 0.0
O328 O 0.11251 0.96073 0.83596 0.0
O329 O 0.15119 0.93446 0.81998 0.0
O330 O 0.07879 0.91756 0.90668 0.0
O331 O 0.11438 0.90622 0.93977 0.0
O332 O 0.22885 0.83182 0.87496 0.0
O333 O 0.19786 0.79799 0.88655 0.0
O334 O 0.07852 0.92271 0.83426 0.0
O335 O 0.10847 0.88407 0.82675 0.0
C336 C 0.14804 0.82221 0.93977 0.0
C337 C 0.18645 0.85882 0.82761 0.0
C338 C 0.06879 0.97711 0.88882 0.0
C339 C 0.20027 0.88225 0.94085 0.0
C340 C 0.13359 0.95701 0.81789 0.0
C341 C 0.08812 0.91523 0.93339 0.0
C342 C 0.22315 0.80392 0.87627 0.0
C343 C 0.08438 0.89873 0.82013 0.0
O344 O 0.17191 0.81861 0.9252 0.0
O345 O 0.13062 0.84474 0.93513 0.0
O346 O 0.16775 0.87455 0.81396 0.0
O347 O 0.1913 0.86739 0.85414 0.0
O348 O 0.05926 0.95096 0.88169 0.0
O349 O 0.0968 0.9803 0.88676 0.0
O350 O 0.20944 0.86014 0.92578 0.0
O351 O 0.17452 0.89422 0.93502 0.0
Co352 Co 0.33721 0.84696 0.12354 0.0
Co353 Co 0.37615 0.89664 0.16518 0.0
Co354 Co 0.38977 0.88649 0.10073 0.0
H355 H 0.36903 0.86658 0.1199 0.0
O356 O 0.37779 0.86218 0.13649 0.0
H357 H 0.39375 0.91885 0.14521 0.0
O358 O 0.38481 0.92158 0.12835 0.0
Co359 Co 0.42233 0.94384 0.14158 0.0
O360 O 0.40856 0.96499 0.17891 0.0
O361 O 0.37356 0.9318 0.19368 0.0
O362 O 0.44527 0.92677 0.1066 0.0
O363 O 0.41038 0.91188 0.07279 0.0
O364 O 0.29219 0.84649 0.1333 0.0
O365 O 0.31595 0.80668 0.12659 0.0
O366 O 0.4452 0.93019 0.17838 0.0
O367 O 0.41866 0.88733 0.1826 0.0
C368 C 0.37299 0.82798 0.06922 0.0
C369 C 0.348 0.84477 0.192 0.0
C370 C 0.44082 0.99071 0.11892 0.0
C371 C 0.32324 0.88699 0.07467 0.0
C372 C 0.38842 0.95689 0.19682 0.0
C373 C 0.43663 0.92199 0.07974 0.0
C374 C 0.29115 0.81798 0.13241 0.0
C375 C 0.44122 0.90478 0.19074 0.0
O376 O 0.34997 0.82582 0.08546 0.0
O377 O 0.39319 0.84918 0.07371 0.0
O378 O 0.36124 0.87036 0.19567 0.0
O379 O 0.34034 0.83364 0.1667 0.0
O380 O 0.41565 0.98839 0.13058 0.0
O381 O 0.45552 0.96687 0.12084 0.0
O382 O 0.31274 0.86799 0.09248 0.0
O383 O 0.35092 0.8962 0.07698 0.0
Co384 Co 0.37918 0.42834 0.088 0.0
Co385 Co 0.42681 0.37417 0.12469 0.0
Co386 Co 0.35903 0.38356 0.13532 0.0
H387 H 0.37889 0.40536 0.11707 0.0
O388 O 0.39639 0.40925 0.12541 0.0
H389 H 0.40551 0.35357 0.14208 0.0
O390 O 0.38842 0.34939 0.13317 0.0
Co391 Co 0.40197 0.33203 0.17133 0.0
O392 O 0.43478 0.30581 0.15424 0.0
O393 O 0.45557 0.33909 0.12402 0.0
O394 O 0.35937 0.33912 0.18628 0.0
O395 O 0.3284 0.35706 0.1516 0.0
O396 O 0.3984 0.43199 0.04823 0.0
O397 O 0.3802 0.46986 0.06862 0.0
O398 O 0.44157 0.34519 0.19105 0.0
O399 O 0.4444 0.38743 0.16581 0.0
C400 C 0.3251 0.44337 0.12346 0.0
C401 C 0.4437 0.41401 0.09052 0.0
C402 C 0.39492 0.3015 0.2148 0.0
C403 C 0.33192 0.38606 0.0719 0.0
C404 C 0.45543 0.3133 0.13667 0.0
C405 C 0.33301 0.34421 0.17597 0.0
C406 C 0.39411 0.45988 0.04703 0.0
C407 C 0.45366 0.37102 0.18734 0.0
O408 O 0.34221 0.45056 0.10241 0.0
O409 O 0.32975 0.41917 0.1385 0.0
O410 O 0.45889 0.39913 0.10853 0.0
O411 O 0.41664 0.40454 0.08715 0.0
O412 O 0.40098 0.32945 0.21587 0.0
O413 O 0.39213 0.29124 0.18895 0.0
O414 O 0.34231 0.41237 0.06727 0.0
O415 O 0.34035 0.37102 0.09465 0.0
Co416 Co 0.84145 0.88422 0.17414 0.0
Co417 Co 0.8939 0.845 0.13645 0.0
Co418 Co 0.88319 0.91223 0.12807 0.0
H419 H 0.86261 0.88986 0.14506 0.0
O420 O 0.85882 0.87318 0.13518 0.0
H421 H 0.91525 0.86848 0.1212 0.0
O422 O 0.91809 0.88482 0.13173 0.0
Co423 Co 0.93888 0.87716 0.09428 0.0
O424 O 0.96137 0.83898 0.10718 0.0
O425 O 0.92973 0.81755 0.13864 0.0
O426 O 0.92328 0.91678 0.07564 0.0
O427 O 0.90868 0.9445 0.11359 0.0
O428 O 0.80957 0.86187 0.1975 0.0
O429 O 0.84115 0.89069 0.21892 0.0
O430 O 0.92693 0.8398 0.07021 0.0
O431 O 0.88535 0.82759 0.09361 0.0
C432 C 0.8228 0.94088 0.13973 0.0
C433 C 0.8457 0.81286 0.16482 0.0
C434 C 0.98176 0.89704 0.06711 0.0
C435 C 0.87982 0.93643 0.19257 0.0
C436 C 0.95456 0.81782 0.12495 0.0
C437 C 0.91721 0.9424 0.08743 0.0
C438 C 0.81866 0.8734 0.22163 0.0
C439 C 0.90338 0.82313 0.07212 0.0
O440 O 0.81789 0.92199 0.16036 0.0
O441 O 0.84637 0.93893 0.12405 0.0
O442 O 0.86866 0.81144 0.14896 0.0
O443 O 0.83453 0.83778 0.17378 0.0
O444 O 0.95484 0.89752 0.05801 0.0
O445 O 0.98442 0.88576 0.09218 0.0
O446 O 0.85699 0.9202 0.19833 0.0
O447 O 0.89352 0.93247 0.16837 0.0
Co448 Co 0.13907 0.68014 0.69366 0.0
Co449 Co 0.17616 0.64195 0.63574 0.0
Co450 Co 0.10845 0.6358 0.64831 0.0
H451 H 0.13238 0.65146 0.66955 0.0
O452 O 0.14876 0.64122 0.67166 0.0
H453 H 0.15101 0.62631 0.61646 0.0
O454 O 0.13533 0.63735 0.61396 0.0
Co455 Co 0.14051 0.59741 0.59461 0.0
O456 O 0.17027 0.61779 0.56759 0.0
O457 O 0.20095 0.64354 0.59911 0.0
O458 O 0.09678 0.58443 0.60344 0.0
O459 O 0.07393 0.62381 0.62325 0.0
O460 O 0.16141 0.7206 0.69893 0.0
O461 O 0.14996 0.69496 0.73545 0.0
O462 O 0.17748 0.57216 0.60358 0.0
O463 O 0.19029 0.59822 0.64397 0.0
C464 C 0.08145 0.64677 0.70896 0.0
C465 C 0.20173 0.67491 0.67501 0.0
C466 C 0.12409 0.55945 0.55846 0.0
C467 C 0.08985 0.70208 0.65744 0.0
C468 C 0.19409 0.63378 0.57306 0.0
C469 C 0.07309 0.59918 0.60866 0.0
C470 C 0.16262 0.71863 0.72635 0.0
C471 C 0.19381 0.57512 0.62683 0.0
O472 O 0.1028 0.6653 0.71708 0.0
O473 O 0.0813 0.63349 0.68361 0.0
O474 O 0.21198 0.65477 0.65874 0.0
O475 O 0.17503 0.68231 0.66814 0.0
O476 O 0.1236 0.55522 0.58573 0.0
O477 O 0.13348 0.58542 0.55184 0.0
O478 O 0.10375 0.7052 0.68203 0.0
O479 O 0.09442 0.67916 0.64051 0.0
Co480 Co 0.58867 0.86748 0.92498 0.0
Co481 Co 0.62144 0.90841 0.87275 0.0
Co482 Co 0.63338 0.84129 0.88111 0.0
H483 H 0.61681 0.8625 0.90234 0.0
O484 O 0.62648 0.87947 0.90585 0.0
H485 H 0.63872 0.88723 0.8519 0.0
O486 O 0.62905 0.87031 0.84796 0.0
Co487 Co 0.6681 0.88263 0.83071 0.0
O488 O 0.65488 0.92144 0.81107 0.0
O489 O 0.6168 0.93659 0.83843 0.0
O490 O 0.68515 0.84182 0.84378 0.0
O491 O 0.64771 0.81039 0.85464 0.0
O492 O 0.54322 0.87521 0.92618 0.0
O493 O 0.57179 0.88242 0.96302 0.0
O494 O 0.69187 0.92067 0.8439 0.0
O495 O 0.66383 0.92896 0.88253 0.0
C496 C 0.62351 0.81077 0.93978 0.0
C497 C 0.60192 0.93632 0.9254 0.0
C498 C 0.69915 0.86612 0.79039 0.0
C499 C 0.56639 0.81848 0.88598 0.0
C500 C 0.63361 0.9395 0.81619 0.0
C501 C 0.67265 0.81538 0.84267 0.0
C502 C 0.54537 0.88333 0.95276 0.0
C503 C 0.68729 0.9356 0.86736 0.0
O504 O 0.60235 0.8289 0.94546 0.0
O505 O 0.63886 0.81338 0.91627 0.0
O506 O 0.60616 0.9397 0.89825 0.0
O507 O 0.60101 0.91048 0.93774 0.0
O508 O 0.70885 0.87109 0.81625 0.0
O509 O 0.67136 0.87008 0.78736 0.0
O510 O 0.56127 0.83486 0.90817 0.0
O511 O 0.59136 0.82113 0.87243 0.0
Co512 Co 0.92778 0.14943 0.43098 0.0
Co513 Co 0.89666 0.10162 0.37828 0.0
Co514 Co 0.87924 0.16796 0.38569 0.0
H515 H 0.89866 0.14979 0.40754 0.0
O516 O 0.89091 0.13206 0.41101 0.0
H517 H 0.8797 0.12117 0.35544 0.0
O518 O 0.88796 0.13888 0.35306 0.0
Co519 Co 0.85284 0.12311 0.32928 0.0
O520 O 0.86618 0.08344 0.31145 0.0
O521 O 0.90186 0.07082 0.34438 0.0
O522 O 0.82766 0.16009 0.33949 0.0
O523 O 0.86011 0.19531 0.35841 0.0
O524 O 0.96509 0.1278 0.44513 0.0
O525 O 0.94849 0.16423 0.46927 0.0
O526 O 0.82639 0.08913 0.34513 0.0
O527 O 0.85441 0.08252 0.38564 0.0
C528 C 0.88834 0.2039 0.44347 0.0
C529 C 0.92127 0.07777 0.43161 0.0
C530 C 0.84488 0.1356 0.27734 0.0
C531 C 0.94557 0.19496 0.38916 0.0
C532 C 0.88702 0.06601 0.31989 0.0
C533 C 0.8352 0.18776 0.34569 0.0
C534 C 0.96795 0.14415 0.4679 0.0
C535 C 0.83061 0.07608 0.3696 0.0
O536 O 0.91208 0.18892 0.44922 0.0
O537 O 0.87133 0.19692 0.42064 0.0
O538 O 0.91175 0.07176 0.40558 0.0
O539 O 0.92533 0.10473 0.44184 0.0
O540 O 0.84195 0.1094 0.28737 0.0
O541 O 0.8525 0.15476 0.29691 0.0
O542 O 0.95467 0.17764 0.40923 0.0
O543 O 0.91834 0.19282 0.37881 0.0
Co544 Co 0.5887 0.13391 0.57424 0.0
Co545 Co 0.62208 0.09274 0.63313 0.0
Co546 Co 0.63633 0.15935 0.61967 0.0
H547 H 0.61723 0.13749 0.59894 0.0
O548 O 0.62535 0.11986 0.59715 0.0
H549 H 0.64075 0.11574 0.65269 0.0
O550 O 0.63181 0.13282 0.65477 0.0
Co551 Co 0.67059 0.12248 0.67485 0.0
O552 O 0.65431 0.08751 0.69925 0.0
O553 O 0.618 0.06775 0.66934 0.0
O554 O 0.69046 0.15609 0.65104 0.0
O555 O 0.65597 0.1907 0.64396 0.0
O556 O 0.58909 0.13459 0.52915 0.0
O557 O 0.5541 0.11337 0.55143 0.0
O558 O 0.69168 0.08346 0.66595 0.0
O559 O 0.66405 0.07384 0.62538 0.0
C560 C 0.62512 0.1903 0.56044 0.0
C561 C 0.58469 0.07021 0.59397 0.0
C562 C 0.70085 0.15112 0.71209 0.0
C563 C 0.56925 0.18093 0.61506 0.0
C564 C 0.63301 0.06809 0.69375 0.0
C565 C 0.68275 0.18384 0.65084 0.0
C566 C 0.56496 0.11935 0.52704 0.0
C567 C 0.68711 0.06821 0.64234 0.0
O568 O 0.6021 0.17322 0.55434 0.0
O569 O 0.64187 0.1859 0.58351 0.0
O570 O 0.60457 0.0589 0.61031 0.0
O571 O 0.57937 0.09791 0.59959 0.0
O572 O 0.71113 0.14052 0.68881 0.0
O573 O 0.67332 0.14507 0.71461 0.0
O574 O 0.56201 0.16386 0.59321 0.0
O575 O 0.5957 0.18008 0.62753 0.0
Co576 Co 0.12567 0.3329 0.84116 0.0
Co577 Co 0.16778 0.36792 0.89499 0.0
Co578 Co 0.10044 0.37807 0.88593 0.0
H579 H 0.12114 0.36145 0.86456 0.0
O580 O 0.13779 0.37134 0.86148 0.0
H581 H 0.14666 0.38469 0.91592 0.0
O582 O 0.13027 0.37448 0.91938 0.0
Co583 Co 0.14187 0.41488 0.93727 0.0
O584 O 0.17423 0.39542 0.96218 0.0
O585 O 0.19665 0.36461 0.93049 0.0
O586 O 0.10358 0.43087 0.9174 0.0
O587 O 0.07055 0.39338 0.91202 0.0
O588 O 0.12798 0.28632 0.84244 0.0
O589 O 0.1472 0.31155 0.80897 0.0
O590 O 0.18065 0.43769 0.92747 0.0
O591 O 0.18492 0.41116 0.88637 0.0
C592 C 0.06986 0.36974 0.82585 0.0
C593 C 0.19542 0.34666 0.84244 0.0
C594 C 0.12142 0.44985 0.9733 0.0
C595 C 0.0752 0.31183 0.87634 0.0
C596 C 0.19479 0.37679 0.95623 0.0
C597 C 0.07721 0.41984 0.92139 0.0
C598 C 0.14244 0.28568 0.81915 0.0
C599 C 0.19323 0.43391 0.90305 0.0
O600 O 0.08826 0.34903 0.81899 0.0
O601 O 0.07203 0.38368 0.85084 0.0
O602 O 0.19925 0.35465 0.86919 0.0
O603 O 0.16961 0.34154 0.8298 0.0
O604 O 0.13685 0.45814 0.95203 0.0
O605 O 0.11775 0.4216 0.97421 0.0
O606 O 0.08992 0.30784 0.85325 0.0
O607 O 0.08047 0.33554 0.89284 0.0
Co608 Co 0.38698 0.68713 0.34287 0.0
Co609 Co 0.34592 0.64848 0.39343 0.0
Co610 Co 0.41257 0.63779 0.38239 0.0
H611 H 0.39097 0.65637 0.36285 0.0
O612 O 0.37383 0.64705 0.35901 0.0
H613 H 0.36846 0.63111 0.41306 0.0
O614 O 0.38531 0.64091 0.41664 0.0
Co615 Co 0.37439 0.60067 0.43317 0.0
O616 O 0.34606 0.62197 0.4604 0.0
O617 O 0.32005 0.6512 0.42943 0.0
O618 O 0.40938 0.58504 0.41014 0.0
O619 O 0.44377 0.62068 0.40696 0.0
O620 O 0.39087 0.73389 0.34333 0.0
O621 O 0.36134 0.71071 0.31416 0.0
O622 O 0.33425 0.57942 0.42525 0.0
O623 O 0.32612 0.60484 0.38428 0.0
C624 C 0.44108 0.6503 0.32367 0.0
C625 C 0.31632 0.67452 0.34376 0.0
C626 C 0.39492 0.56043 0.46352 0.0
C627 C 0.44025 0.70338 0.37892 0.0
C628 C 0.32457 0.63994 0.45502 0.0
C629 C 0.43626 0.59458 0.41539 0.0
C630 C 0.37162 0.73606 0.32277 0.0
C631 C 0.31923 0.58247 0.40144 0.0
O632 O 0.42369 0.67277 0.31962 0.0
O633 O 0.43857 0.63341 0.34638 0.0
O634 O 0.31294 0.66349 0.36907 0.0
O635 O 0.34207 0.68091 0.33319 0.0
O636 O 0.38467 0.55624 0.43776 0.0
O637 O 0.39347 0.58752 0.47209 0.0
O638 O 0.42418 0.71042 0.35681 0.0
O639 O 0.43489 0.67854 0.39259 0.0
Co640 Co 0.93454 0.58975 0.88423 0.0
Co641 Co 0.87693 0.62539 0.92117 0.0
Co642 Co 0.89062 0.63404 0.85578 0.0
H643 H 0.91119 0.61813 0.8786 0.0
O644 O 0.91355 0.62812 0.89513 0.0
H645 H 0.8571 0.64128 0.89784 0.0
O646 O 0.85458 0.63081 0.88164 0.0
Co647 Co 0.83499 0.67003 0.89043 0.0
O648 O 0.80892 0.65398 0.92353 0.0
O649 O 0.84025 0.62161 0.94517 0.0
O650 O 0.85882 0.68449 0.85529 0.0
O651 O 0.86559 0.64794 0.82348 0.0
O652 O 0.94397 0.54763 0.89855 0.0
O653 O 0.97807 0.58083 0.89456 0.0
O654 O 0.84239 0.69246 0.92913 0.0
O655 O 0.88477 0.669 0.9396 0.0
C656 C 0.95492 0.62856 0.83391 0.0
C657 C 0.91378 0.58864 0.94433 0.0
C658 C 0.80116 0.70443 0.86499 0.0
C659 C 0.90216 0.57054 0.83065 0.0
C660 C 0.81507 0.63491 0.9436 0.0
C661 C 0.85514 0.67363 0.82924 0.0
C662 C 0.97147 0.55426 0.90187 0.0
C663 C 0.8661 0.69036 0.94513 0.0
O664 O 0.96159 0.61051 0.8547 0.0
O665 O 0.92819 0.639 0.83068 0.0
O666 O 0.9001 0.61085 0.95452 0.0
O667 O 0.90685 0.58156 0.91778 0.0
O668 O 0.82655 0.71227 0.87562 0.0
O669 O 0.7948 0.67694 0.86891 0.0
O670 O 0.92656 0.56852 0.84547 0.0
O671 O 0.88312 0.59096 0.83743 0.0
Co672 Co 0.57761 0.5931 0.14192 0.0
Co673 Co 0.63095 0.62701 0.09679 0.0
Co674 Co 0.62338 0.6429 0.1619 0.0
H675 H 0.60072 0.62329 0.14287 0.0
O676 O 0.59682 0.63114 0.12584 0.0
H677 H 0.65393 0.64429 0.11754 0.0
O678 O 0.65659 0.63551 0.13423 0.0
Co679 Co 0.68028 0.67156 0.12225 0.0
O680 O 0.69899 0.65736 0.08472 0.0
O681 O 0.66505 0.6223 0.06881 0.0
O682 O 0.66819 0.69543 0.15866 0.0
O683 O 0.65149 0.66141 0.19055 0.0
O684 O 0.5749 0.54978 0.127 0.0
O685 O 0.53591 0.57457 0.13371 0.0
O686 O 0.66575 0.69509 0.0868 0.0
O687 O 0.62256 0.66925 0.08029 0.0
C688 C 0.56371 0.63443 0.1937 0.0
C689 C 0.59048 0.59009 0.07836 0.0
C690 C 0.73095 0.68493 0.14127 0.0
C691 C 0.61648 0.5803 0.19125 0.0
C692 C 0.69009 0.63681 0.06637 0.0
C693 C 0.66441 0.68651 0.18499 0.0
C694 C 0.54674 0.55002 0.12518 0.0
C695 C 0.64029 0.69142 0.07367 0.0
O696 O 0.55645 0.61135 0.17739 0.0
O697 O 0.58821 0.65 0.18959 0.0
O698 O 0.60402 0.61119 0.06571 0.0
O699 O 0.59982 0.58527 0.10453 0.0
O700 O 0.70836 0.70095 0.14476 0.0
O701 O 0.72506 0.66137 0.1263 0.0
O702 O 0.59073 0.57475 0.17962 0.0
O703 O 0.63272 0.60287 0.18277 0.0
Co704 Co 0.67784 0.34546 0.38776 0.0
Co705 Co 0.64433 0.40018 0.34896 0.0
Co706 Co 0.6264 0.38425 0.41122 0.0
H707 H 0.64712 0.36598 0.3911 0.0
O708 O 0.63973 0.36325 0.37347 0.0
H709 H 0.62359 0.41833 0.36916 0.0
O710 O 0.63089 0.42133 0.38683 0.0
Co711 Co 0.59238 0.438 0.37178 0.0
O712 O 0.60631 0.46176 0.33639 0.0
O713 O 0.64799 0.43791 0.32439 0.0
O714 O 0.57827 0.43504 0.41436 0.0
O715 O 0.60723 0.40615 0.44266 0.0
O716 O 0.72372 0.34209 0.38849 0.0
O717 O 0.69526 0.30629 0.37353 0.0
O718 O 0.5722 0.42363 0.33381 0.0
O719 O 0.60479 0.38751 0.32571 0.0
C720 C 0.64004 0.32389 0.43894 0.0
C721 C 0.67389 0.35207 0.31934 0.0
C722 C 0.54997 0.47088 0.37758 0.0
C723 C 0.69309 0.38691 0.43634 0.0
C724 C 0.62944 0.4594 0.32072 0.0
C725 C 0.58598 0.4245 0.43931 0.0
C726 C 0.72191 0.31545 0.37833 0.0
C727 C 0.58005 0.40085 0.31897 0.0
O728 O 0.66393 0.3217 0.42404 0.0
O729 O 0.62174 0.34563 0.43461 0.0
O730 O 0.66407 0.37864 0.31792 0.0
O731 O 0.67605 0.33728 0.34327 0.0
O732 O 0.54714 0.44357 0.36955 0.0
O733 O 0.57686 0.47902 0.38305 0.0
O734 O 0.70299 0.36777 0.41836 0.0
O735 O 0.6655 0.395 0.43482 0.0
Co736 Co 0.93243 0.43662 0.64173 0.0
Co737 Co 0.88269 0.40159 0.59602 0.0
Co738 Co 0.88582 0.38919 0.66148 0.0
H739 H 0.90942 0.40682 0.64363 0.0
O740 O 0.91424 0.39729 0.62774 0.0
H741 H 0.85808 0.3863 0.61468 0.0
O742 O 0.8542 0.39626 0.63059 0.0
Co743 Co 0.83272 0.35823 0.61753 0.0
O744 O 0.8116 0.37935 0.58346 0.0
O745 O 0.8496 0.40617 0.56461 0.0
O746 O 0.84582 0.33623 0.65543 0.0
O747 O 0.85631 0.37287 0.68802 0.0
O748 O 0.93202 0.47188 0.61263 0.0
O749 O 0.94329 0.47961 0.65661 0.0
O750 O 0.84436 0.33554 0.58049 0.0
O751 O 0.88947 0.35769 0.58023 0.0
C752 C 0.94578 0.39464 0.69401 0.0
C753 C 0.93969 0.42341 0.57418 0.0
C754 C 0.79095 0.32437 0.62948 0.0
C755 C 0.89712 0.45132 0.69253 0.0
C756 C 0.8221 0.39632 0.56354 0.0
C757 C 0.84651 0.34628 0.68196 0.0
C758 C 0.93987 0.49126 0.63186 0.0
C759 C 0.87062 0.33696 0.5703 0.0
O760 O 0.95395 0.41612 0.67698 0.0
O761 O 0.91981 0.38126 0.69094 0.0
O762 O 0.913 0.41368 0.56809 0.0
O763 O 0.94934 0.4307 0.60033 0.0
O764 O 0.8169 0.31579 0.6237 0.0
O765 O 0.78867 0.35268 0.62909 0.0
O766 O 0.92254 0.45468 0.68099 0.0
O767 O 0.87856 0.43052 0.68247 0.0
H768 H 0.16769 0.25624 0.36559 0.0
H769 H 0.21663 0.3049 0.29998 0.0
H770 H 0.25358 0.26505 0.2985 0.0
H771 H 0.27814 0.22435 0.32565 0.0
H772 H 0.23013 0.1768 0.39252 0.0
H773 H 0.18612 0.20796 0.38341 0.0
C774 C 0.18596 0.2578 0.35035 0.0
C775 C 0.19073 0.28444 0.33437 0.0
C776 C 0.20741 0.23518 0.35022 0.0
C777 C 0.21354 0.28538 0.31368 0.0
C778 C 0.23462 0.26256 0.31279 0.0
C779 C 0.2576 0.22025 0.33747 0.0
C780 C 0.25725 0.19921 0.36019 0.0
C781 C 0.2329 0.23863 0.33259 0.0
C782 C 0.23068 0.19326 0.3751 0.0
C783 C 0.20569 0.21118 0.37003 0.0
H784 H 0.95705 0.96512 0.56302 0.0
H785 H 0.94167 0.94305 0.65341 0.0
H786 H 0.95949 0.99314 0.6694 0.0
H787 H 0.98851 0.03874 0.65826 0.0
H788 H 1.00108 0.06362 0.56853 0.0
H789 H 0.97462 0.01719 0.55122 0.0
C790 C 0.95677 0.9718 0.58603 0.0
C791 C 0.94836 0.95069 0.60704 0.0
C792 C 0.96663 1.0009 0.59508 0.0
C793 C 0.94819 0.95912 0.63691 0.0
C794 C 0.95828 0.98773 0.64609 0.0
C795 C 0.98406 0.03461 0.63495 0.0
C796 C 0.99749 0.05337 0.61447 0.0
C797 C 0.9687 1.00827 0.62547 0.0
C798 C 0.99152 0.04858 0.58439 0.0
C799 C 0.9766 0.02203 0.57461 0.0
H800 H 0.28244 0.80936 0.86625 0.0
H801 H 0.20597 0.7475 0.85816 0.0
H802 H 0.23809 0.7076 0.84042 0.0
H803 H 0.28804 0.6884 0.83644 0.0
H804 H 0.36584 0.74762 0.85028 0.0
H805 H 0.333 0.79094 0.8562 0.0
C806 C 0.27293 0.78718 0.8603 0.0
C807 C 0.24227 0.7809 0.86402 0.0
C808 C 0.2917 0.76408 0.85127 0.0
C809 C 0.22979 0.75241 0.85604 0.0
C810 C 0.24804 0.72972 0.84577 0.0
C811 C 0.29796 0.71093 0.83937 0.0
C812 C 0.32921 0.71491 0.8429 0.0
C813 C 0.27912 0.73502 0.84447 0.0
C814 C 0.34172 0.74415 0.84756 0.0
C815 C 0.32299 0.76878 0.85121 0.0
H816 H 0.47786 0.9947 0.07379 0.0
H817 H 0.43247 0.04859 0.1377 0.0
H818 H 0.46672 0.09152 0.12895 0.0
H819 H 0.51691 0.10735 0.11337 0.0
H820 H 0.56391 0.05163 0.05191 0.0
H821 H 0.52113 0.01621 0.0484 0.0
C822 C 0.47497 0.01622 0.08504 0.0
C823 C 0.45359 0.01854 0.10694 0.0
C824 C 0.4952 0.04025 0.0805 0.0
C825 C 0.44918 0.04646 0.12098 0.0
C826 C 0.46887 0.07085 0.11612 0.0
C827 C 0.51734 0.088 0.09842 0.0
C828 C 0.544 0.08119 0.08408 0.0
C829 C 0.49316 0.06716 0.09747 0.0
C830 C 0.54396 0.05683 0.06388 0.0
C831 C 0.51957 0.03642 0.06204 0.0
H832 H 0.17366 0.7418 0.15296 0.0
H833 H 0.24149 0.67453 0.16681 0.0
H834 H 0.2807 0.71304 0.16606 0.0
H835 H 0.29608 0.76309 0.15329 0.0
H836 H 0.23085 0.83106 0.13301 0.0
H837 H 0.18982 0.79477 0.1438 0.0
C838 C 0.197 0.73573 0.15624 0.0
C839 C 0.2047 0.70532 0.1604 0.0
C840 C 0.21973 0.75787 0.15374 0.0
C841 C 0.23494 0.69776 0.16461 0.0
C842 C 0.25745 0.71972 0.16362 0.0
C843 C 0.27287 0.77012 0.15137 0.0
C844 C 0.26611 0.79912 0.14174 0.0
C845 C 0.25009 0.74942 0.15698 0.0
C846 C 0.23621 0.80845 0.14011 0.0
C847 C 0.21296 0.78779 0.14621 0.0
H848 H 0.59302 0.99766 0.42596 0.0
H849 H 0.52847 0.92497 0.43969 0.0
H850 H 0.48761 0.96087 0.43773 0.0
H851 H 0.47048 0.00905 0.41922 0.0
H852 H 0.53477 0.08052 0.40075 0.0
H853 H 0.57596 0.04876 0.41762 0.0
C854 C 0.57012 0.98978 0.42942 0.0
C855 C 0.56333 0.95874 0.43149 0.0
C856 C 0.54685 0.01008 0.42655 0.0
C857 C 0.53385 0.94882 0.437 0.0
C858 C 0.51057 0.96923 0.43571 0.0
C859 C 0.49352 0.01771 0.41909 0.0
C860 C 0.50007 0.04623 0.40756 0.0
C861 C 0.51677 0.99929 0.42815 0.0
C862 C 0.52963 0.05798 0.40857 0.0
C863 C 0.55302 0.04002 0.41841 0.0
H864 H 0.34801 0.26008 0.6365 0.0
H865 H 0.30996 0.29897 0.71391 0.0
H866 H 0.27657 0.25463 0.7184 0.0
H867 H 0.25204 0.21056 0.69421 0.0
H868 H 0.28769 0.17363 0.61468 0.0
H869 H 0.32974 0.21039 0.61794 0.0
C870 C 0.33293 0.25849 0.65476 0.0
C871 C 0.3301 0.28325 0.67414 0.0
C872 C 0.31373 0.23315 0.65682 0.0
C873 C 0.31104 0.28077 0.69798 0.0
C874 C 0.29238 0.2553 0.70072 0.0
C875 C 0.26954 0.21011 0.67812 0.0
C876 C 0.26662 0.19036 0.65384 0.0
C877 C 0.29244 0.23221 0.6793 0.0
C878 C 0.28961 0.18899 0.63345 0.0
C879 C 0.31333 0.21024 0.6351 0.0
H880 H 0.01101 0.96938 0.90046 0.0
H881 H 0.08135 0.03792 0.89578 0.0
H882 H 0.04436 0.07752 0.9035 0.0
H883 H 0.99123 0.09176 0.90622 0.0
H884 H 0.92231 0.02136 0.9112 0.0
H885 H 0.96024 0.98288 0.90997 0.0
C886 C 0.01856 0.99286 0.90207 0.0
C887 C 0.04863 1.00091 0.8976 0.0
C888 C 0.99751 0.01498 0.90647 0.0
C889 C 0.05808 0.03143 0.89916 0.0
C890 C 0.03701 0.05393 0.90347 0.0
C891 C 0.98461 0.06801 0.90728 0.0
C892 C 0.95406 0.05933 0.90795 0.0
C893 C 1.00651 0.04589 0.90628 0.0
C894 C 0.94568 0.02857 0.91001 0.0
C895 C 0.9673 1.00654 0.90936 0.0
H896 H 0.37023 0.24588 0.21359 0.0
H897 H 0.39658 0.32053 0.27177 0.0
H898 H 0.37817 0.29241 0.31375 0.0
H899 H 0.36005 0.24481 0.33379 0.0
H900 H 0.33715 0.16911 0.27569 0.0
H901 H 0.34737 0.20026 0.23308 0.0
C902 C 0.37202 0.25591 0.2355 0.0
C903 C 0.38529 0.28465 0.24003 0.0
C904 C 0.36144 0.23982 0.25916 0.0
C905 C 0.38694 0.29797 0.26818 0.0
C906 C 0.37618 0.28213 0.292 0.0
C907 C 0.35647 0.23546 0.31176 0.0
C908 C 0.34849 0.20487 0.30751 0.0
C909 C 0.36398 0.25283 0.28774 0.0
C910 C 0.34372 0.19273 0.27909 0.0
C911 C 0.34982 0.21033 0.2549 0.0
H912 H 0.05761 0.1348 0.57469 0.0
H913 H 0.06676 0.04506 0.53819 0.0
H914 H 0.0267 0.05464 0.50152 0.0
H915 H 0.99392 0.09091 0.47707 0.0
H916 H 0.98591 0.18115 0.5134 0.0
H917 H 0.02084 0.16898 0.55377 0.0
C918 C 0.04974 0.11696 0.55948 0.0
C919 C 0.064 0.08903 0.55936 0.0
C920 C 0.02767 0.123 0.53836 0.0
C921 C 0.05507 0.06632 0.53899 0.0
C922 C 0.03271 0.07201 0.51784 0.0
C923 C 0.99993 0.10787 0.49384 0.0
C924 C 0.98832 0.13707 0.49218 0.0
C925 C 0.01967 0.10065 0.51681 0.0
C926 C 0.99525 0.15871 0.51426 0.0
C927 C 0.01497 0.15173 0.53728 0.0
H928 H 0.21732 0.83708 0.78333 0.0
H929 H 0.15437 0.81139 0.84921 0.0
H930 H 0.14688 0.76175 0.82631 0.0
H931 H 0.1512 0.72945 0.78292 0.0
H932 H 0.20525 0.75997 0.71151 0.0
H933 H 0.22387 0.80337 0.74103 0.0
C934 C 0.20283 0.82007 0.79306 0.0
C935 C 0.1874 0.8272 0.81842 0.0
C936 C 0.19677 0.79252 0.77841 0.0
C937 C 0.16746 0.80589 0.83034 0.0
C938 C 0.16283 0.77761 0.81702 0.0
C939 C 0.16754 0.74532 0.77419 0.0
C940 C 0.17688 0.74187 0.74535 0.0
C941 C 0.17639 0.77121 0.7904 0.0
C942 C 0.1978 0.76248 0.73383 0.0
C943 C 0.20834 0.78727 0.7506 0.0
H944 H 0.55055 0.90978 1.00556 0.0
H945 H 0.48488 0.8786 0.93971 0.0
H946 H 0.44419 0.89135 0.97276 0.0
H947 H 0.42851 0.90704 0.0219 0.0
H948 H 0.49581 0.93824 0.08663 0.0
H949 H 0.53499 0.93122 0.05143 0.0
C950 C 0.52737 0.90651 0.998 0.0
C951 C 0.52052 0.89335 0.97042 0.0
C952 C 0.50458 0.91406 0.01674 0.0
C953 C 0.49045 0.88874 0.96104 0.0
C954 C 0.46733 0.896 0.97986 0.0
C955 C 0.4517 0.9127 0.02819 0.0
C956 C 0.45931 0.92255 0.05701 0.0
C957 C 0.47427 0.90806 0.00802 0.0
C958 C 0.48936 0.93023 0.06472 0.0
C959 C 0.51183 0.92614 0.04466 0.0
H960 H 0.37795 0.84969 0.24447 0.0
H961 H 0.30746 0.79839 0.19775 0.0
H962 H 0.30474 0.76279 0.23809 0.0
H963 H 0.32742 0.74265 0.28266 0.0
H964 H 0.40094 0.79111 0.32756 0.0
H965 H 0.39677 0.83237 0.29234 0.0
C966 C 0.3616 0.83105 0.24338 0.0
C967 C 0.34334 0.82615 0.21797 0.0
C968 C 0.36073 0.81036 0.2663 0.0
C969 C 0.32219 0.80206 0.21683 0.0
C970 C 0.32053 0.78186 0.23992 0.0
C971 C 0.34214 0.76255 0.28507 0.0
C972 C 0.36479 0.76384 0.30713 0.0
C973 C 0.34048 0.78521 0.26416 0.0
C974 C 0.38345 0.78976 0.31051 0.0
C975 C 0.38122 0.81313 0.29027 0.0
H976 H 0.53452 0.06807 0.51458 0.0
H977 H 0.55851 0.15514 0.47948 0.0
H978 H 0.51516 0.15161 0.44514 0.0
H979 H 0.46464 0.12965 0.43521 0.0
H980 H 0.43997 0.04316 0.4713 0.0
H981 H 0.48957 0.04048 0.49604 0.0
C982 C 0.53084 0.0856 0.49855 0.0
C983 C 0.54871 0.11209 0.49971 0.0
C984 C 0.5054 0.08392 0.48009 0.0
C985 C 0.54457 0.13467 0.4788 0.0
C986 C 0.51961 0.13286 0.45962 0.0
C987 C 0.47061 0.10996 0.44795 0.0
C988 C 0.44926 0.08671 0.45197 0.0
C989 C 0.49887 0.10862 0.4617 0.0
C990 C 0.4565 0.06118 0.46829 0.0
C991 C 0.48468 0.05968 0.48226 0.0
H992 H 0.14812 0.16717 0.74525 0.0
H993 H 0.20031 0.22864 0.69239 0.0
H994 H 0.20229 0.26564 0.73183 0.0
H995 H 0.17965 0.28458 0.77505 0.0
H996 H 0.12466 0.22662 0.82818 0.0
H997 H 0.13257 0.18402 0.79414 0.0
C998 C 0.16043 0.18841 0.7426 0.0
C999 C 0.17356 0.19531 0.7157 0.0
C1000 C 0.16029 0.21036 0.76494 0.0
C1001 C 0.18985 0.22268 0.71271 0.0
C1002 C 0.19084 0.24405 0.73521 0.0
C1003 C 0.17047 0.26234 0.78006 0.0
C1004 C 0.15166 0.25849 0.80383 0.0
C1005 C 0.17475 0.23869 0.76055 0.0
C1006 C 0.13924 0.22983 0.80976 0.0
C1007 C 0.14366 0.20567 0.79033 0.0
H1008 H 0.97753 0.92295 0.01464 0.0
H1009 H 0.04193 0.88924 0.07807 0.0
H1010 H 0.08205 0.89508 0.0426 0.0
H1011 H 0.09701 0.9043 0.9918 0.0
H1012 H 0.02994 0.93172 0.92775 0.0
H1013 H 0.99269 0.93446 0.9654 0.0
C1014 C 1.00045 0.91732 0.02088 0.0
C1015 C 1.00689 0.90545 0.04863 0.0
C1016 C 0.02282 0.91957 1.00021 0.0
C1017 C 0.0366 0.89842 0.05666 0.0
C1018 C 0.05941 0.90156 0.03637 0.0
C1019 C 0.07433 0.91116 0.98615 0.0
C1020 C 0.06636 0.91823 0.95696 0.0
C1021 C 0.05253 0.91119 1.00775 0.0
C1022 C 0.03685 0.92688 0.95004 0.0
C1023 C 0.01541 0.92814 0.97154 0.0
H1024 H 0.28067 0.37448 0.17424 0.0
H1025 H 0.32964 0.30755 0.22313 0.0
H1026 H 0.29492 0.31171 0.26325 0.0
H1027 H 0.25467 0.33878 0.28648 0.0
H1028 H 0.20407 0.40434 0.23745 0.0
H1029 H 0.23607 0.39688 0.19524 0.0
C1030 C 0.28327 0.36022 0.19332 0.0
C1031 C 0.30801 0.34119 0.19611 0.0
C1032 C 0.26347 0.36306 0.21642 0.0
C1033 C 0.31111 0.32282 0.22089 0.0
C1034 C 0.29134 0.32525 0.24383 0.0
C1035 C 0.25028 0.35099 0.26638 0.0
C1036 C 0.22727 0.37204 0.2649 0.0
C1037 C 0.26817 0.3461 0.24222 0.0
C1038 C 0.2219 0.38806 0.23894 0.0
C1039 C 0.24003 0.38372 0.21484 0.0
H1040 H 0.80724 0.2028 0.78793 0.0
H1041 H 0.75247 0.16607 0.85618 0.0
H1042 H 0.7093 0.16211 0.82186 0.0
H1043 H 0.692 0.1565 0.77025 0.0
H1044 H 0.75162 0.18343 0.70186 0.0
H1045 H 0.78782 0.20421 0.73805 0.0
C1046 C 0.78566 0.19489 0.79562 0.0
C1047 C 0.78324 0.1838 0.82414 0.0
C1048 C 0.7619 0.19032 0.77534 0.0
C1049 C 0.75496 0.1741 0.83398 0.0
C1050 C 0.73037 0.17158 0.81433 0.0
C1051 C 0.71258 0.16769 0.76345 0.0
C1052 C 0.71941 0.16838 0.73364 0.0
C1053 C 0.73429 0.17753 0.78453 0.0
C1054 C 0.74603 0.18271 0.72475 0.0
C1055 C 0.76679 0.19446 0.74546 0.0
H1056 H 0.12976 0.51022 0.97581 0.0
H1057 H 0.07815 0.43658 0.0123 0.0
H1058 H 0.05566 0.47163 0.04687 0.0
H1059 H 0.05864 0.52058 0.07241 0.0
H1060 H 0.11749 0.59118 0.04136 0.0
H1061 H 0.12789 0.56084 0.99777 0.0
C1062 C 0.11335 0.50199 0.99117 0.0
C1063 C 0.10622 0.47099 0.9924 0.0
C1064 C 0.10138 0.52199 0.01144 0.0
C1065 C 0.08453 0.4604 0.01176 0.0
C1066 C 0.07151 0.4804 0.03127 0.0
C1067 C 0.07262 0.52964 0.05529 0.0
C1068 C 0.08665 0.5581 0.05928 0.0
C1069 C 0.0808 0.51093 0.03211 0.0
C1070 C 0.10559 0.5697 0.03788 0.0
C1071 C 0.11208 0.55206 0.0134 0.0
H1072 H 0.77529 0.83203 0.23157 0.0
H1073 H 0.82632 0.90627 0.27253 0.0
H1074 H 0.79375 0.90451 0.31498 0.0
H1075 H 0.74679 0.88596 0.33665 0.0
H1076 H 0.69825 0.80999 0.29646 0.0
H1077 H 0.73455 0.80756 0.25733 0.0
C1078 C 0.77998 0.84714 0.25017 0.0
C1079 C 0.80294 0.86925 0.24906 0.0
C1080 C 0.76149 0.84582 0.27428 0.0
C1081 C 0.80857 0.88907 0.27307 0.0
C1082 C 0.78997 0.88813 0.29722 0.0
C1083 C 0.74463 0.86848 0.31968 0.0
C1084 C 0.71927 0.84896 0.31828 0.0
C1085 C 0.76577 0.8672 0.29756 0.0
C1086 C 0.71683 0.82611 0.29666 0.0
C1087 C 0.7377 0.82457 0.27464 0.0
H1088 H 0.86169 0.04544 0.01267 0.0
H1089 H 0.94732 0.04242 0.97119 0.0
H1090 H 0.96397 1.00306 1.00527 0.0
H1091 H 0.95178 0.96692 0.04498 0.0
H1092 H 0.86734 0.97539 0.08846 0.0
H1093 H 0.85253 0.01542 0.05578 0.0
C1094 C 0.88419 0.03648 0.01158 0.0
C1095 C 0.90319 0.04599 0.9896 0.0
C1096 C 0.89362 0.01478 0.03144 0.0
C1097 C 0.9324 0.03488 0.98811 0.0
C1098 C 0.94181 0.01242 1.00744 0.0
C1099 C 0.93032 0.9778 0.04722 0.0
C1100 C 0.91044 0.96802 0.06864 0.0
C1101 C 0.92225 1.00168 0.02881 0.0
C1102 C 0.88288 0.98244 0.07196 0.0
C1103 C 0.87436 1.00537 0.05331 0.0
H1104 H 0.28826 0.67973 0.78218 0.0
H1105 H 0.24561 0.59268 0.79672 0.0
H1106 H 0.20699 0.60332 0.75894 0.0
H1107 H 0.19201 0.63342 0.71605 0.0
H1108 H 0.23863 0.71775 0.69932 0.0
H1109 H 0.26861 0.71299 0.74482 0.0
C1110 C 0.27006 0.6634 0.77763 0.0
C1111 C 0.26983 0.6353 0.79155 0.0
C1112 C 0.24874 0.66939 0.7557 0.0
C1113 C 0.24615 0.61436 0.78586 0.0
C1114 C 0.22424 0.62041 0.7643 0.0
C1115 C 0.20808 0.65111 0.72309 0.0
C1116 C 0.21324 0.67605 0.70508 0.0
C1117 C 0.22622 0.64726 0.74821 0.0
C1118 C 0.23429 0.69873 0.7135 0.0
C1119 C 0.25153 0.69581 0.73919 0.0
H1120 H 0.12799 0.56359 0.50007 0.0
H1121 H 0.09837 0.50498 0.56929 0.0
H1122 H 0.09016 0.46345 0.53402 0.0
H1123 H 0.09933 0.44272 0.4864 0.0
H1124 H 0.12815 0.50015 0.41596 0.0
H1125 H 0.12978 0.54386 0.44962 0.0
C1126 C 0.1193 0.54182 0.50722 0.0
C1127 C 0.11453 0.53667 0.53698 0.0
C1128 C 0.1152 0.5181 0.48706 0.0
C1129 C 0.10278 0.50887 0.54635 0.0
C1130 C 0.09813 0.48526 0.52633 0.0
C1131 C 0.10503 0.46482 0.47794 0.0
C1132 C 0.1136 0.46825 0.44887 0.0
C1133 C 0.10551 0.48941 0.497 0.0
C1134 C 0.12159 0.49705 0.43847 0.0
C1135 C 0.12247 0.52195 0.45759 0.0
H1136 H 0.38145 0.51795 0.03633 0.0
H1137 H 0.4373 0.44456 0.00925 0.0
H1138 H 0.45792 0.47564 0.97043 0.0
H1139 H 0.4544 0.52076 0.94014 0.0
H1140 H 0.39295 0.59063 0.96316 0.0
H1141 H 0.38095 0.56465 0.00829 0.0
C1142 C 0.39831 0.50897 0.02203 0.0
C1143 C 0.40739 0.47905 0.0249 0.0
C1144 C 0.40935 0.52657 0.99938 0.0
C1145 C 0.42949 0.46747 1.00672 0.0
C1146 C 0.44144 0.48523 0.98474 0.0
C1147 C 0.43928 0.53065 0.95572 0.0
C1148 C 0.42543 0.55789 0.94924 0.0
C1149 C 0.4308 0.51444 0.98032 0.0
C1150 C 0.40476 0.57021 0.96853 0.0
C1151 C 0.39751 0.55512 0.99403 0.0
H1152 H 0.73085 0.8168 0.82835 0.0
H1153 H 0.65612 0.75515 0.84274 0.0
H1154 H 0.69037 0.71279 0.84471 0.0
H1155 H 0.74205 0.69591 0.85278 0.0
H1156 H 0.81607 0.75995 0.84469 0.0
H1157 H 0.78156 0.79868 0.82859 0.0
C1158 C 0.72185 0.79406 0.83103 0.0
C1159 C 0.69127 0.78924 0.83631 0.0
C1160 C 0.74165 0.77028 0.83344 0.0
C1161 C 0.67984 0.75951 0.83938 0.0
C1162 C 0.69937 0.73531 0.84057 0.0
C1163 C 0.75054 0.71817 0.84683 0.0
C1164 C 0.78125 0.72541 0.85024 0.0
C1165 C 0.73045 0.7408 0.83935 0.0
C1166 C 0.79235 0.75409 0.84238 0.0
C1167 C 0.77266 0.77625 0.83333 0.0
H1168 H 0.49258 0.43356 0.06503 0.0
H1169 H 0.41611 0.46304 0.11283 0.0
H1170 H 0.44 0.51252 0.12178 0.0
H1171 H 0.487 0.54182 0.12642 0.0
H1172 H 0.56753 0.50604 0.08983 0.0
H1173 H 0.53841 0.46452 0.06639 0.0
C1174 C 0.48091 0.45141 0.07639 0.0
C1175 C 0.45257 0.44545 0.08747 0.0
C1176 C 0.49616 0.47818 0.08445 0.0
C1177 C 0.43754 0.46787 0.10304 0.0
C1178 C 0.45147 0.49586 0.10874 0.0
C1179 C 0.49796 0.52501 0.11307 0.0
C1180 C 0.5291 0.52621 0.11025 0.0
C1181 C 0.48148 0.5004 0.10123 0.0
C1182 C 0.54345 0.50478 0.0928 0.0
C1183 C 0.52687 0.48131 0.07921 0.0
H1184 H 0.71952 0.26308 0.34846 0.0
H1185 H 0.78125 0.32787 0.39094 0.0
H1186 H 0.82343 0.29517 0.3801 0.0
H1187 H 0.84113 0.24645 0.36295 0.0
H1188 H 0.77867 0.18147 0.32127 0.0
H1189 H 0.73804 0.21692 0.32649 0.0
C1190 C 0.74227 0.27025 0.35498 0.0
C1191 C 0.74755 0.29746 0.37065 0.0
C1192 C 0.76601 0.25162 0.34859 0.0
C1193 C 0.77693 0.30674 0.37898 0.0
C1194 C 0.8009 0.28819 0.37273 0.0
C1195 C 0.81876 0.24019 0.35449 0.0
C1196 C 0.81262 0.21111 0.34254 0.0
C1197 C 0.79551 0.26033 0.3581 0.0
C1198 C 0.78373 0.20356 0.33112 0.0
C1199 C 0.76051 0.22376 0.33412 0.0
H1200 H 0.02423 0.60304 0.64185 0.0
H1201 H 0.05674 0.56143 0.56295 0.0
H1202 H 0.01149 0.52897 0.55888 0.0
H1203 H 0.9684 0.50621 0.58308 0.0
H1204 H 0.94182 0.54149 0.66693 0.0
H1205 H 0.97806 0.58373 0.6633 0.0
C1206 C 0.02097 0.58743 0.62336 0.0
C1207 C 0.04375 0.58416 0.60294 0.0
C1208 C 0.99583 0.56785 0.62213 0.0
C1209 C 0.03955 0.56382 0.57914 0.0
C1210 C 0.01371 0.54539 0.57679 0.0
C1211 C 0.96988 0.52379 0.59998 0.0
C1212 C 0.95285 0.52096 0.62526 0.0
C1213 C 0.99244 0.54627 0.59891 0.0
C1214 C 0.95488 0.54351 0.64728 0.0
C1215 C 0.97578 0.56735 0.64535 0.0
H1216 H 0.79714 0.26539 0.63669 0.0
H1217 H 0.73186 0.33614 0.63966 0.0
H1218 H 0.69203 0.2983 0.64898 0.0
H1219 H 0.67604 0.24473 0.65291 0.0
H1220 H 0.74245 0.17507 0.6459 0.0
H1221 H 0.78193 0.21327 0.64178 0.0
C1222 C 0.7742 0.27262 0.63945 0.0
C1223 C 0.76709 0.30316 0.63716 0.0
C1224 C 0.75181 0.25104 0.64406 0.0
C1225 C 0.73753 0.31246 0.64118 0.0
C1226 C 0.7149 0.29094 0.64642 0.0
C1227 C 0.69918 0.23802 0.65057 0.0
C1228 C 0.70637 0.20725 0.64982 0.0
C1229 C 0.72178 0.26009 0.64734 0.0
C1230 C 0.73635 0.19868 0.64673 0.0
C1231 C 0.75897 0.22044 0.64429 0.0
H1232 H 0.96198 0.49547 0.91318 0.0
H1233 H 0.02904 0.56776 0.91922 0.0
H1234 H 0.06749 0.53163 0.93297 0.0
H1235 H 0.08295 0.47963 0.93238 0.0
H1236 H 0.01687 0.40652 0.92343 0.0
H1237 H 0.97664 0.4432 0.92163 0.0
C1238 C 0.98497 0.50325 0.91788 0.0
C1239 C 0.99325 0.53369 0.91418 0.0
C1240 C 1.00693 0.48237 0.92476 0.0
C1241 C 0.02268 0.54403 0.92104 0.0
C1242 C 0.04452 0.52351 0.92897 0.0
C1243 C 0.05977 0.47153 0.93101 0.0
C1244 C 0.05287 0.44057 0.92726 0.0
C1245 C 0.03711 0.49253 0.92925 0.0
C1246 C 0.02269 0.43043 0.92568 0.0
C1247 C 0.99973 0.45131 0.92461 0.0
H1248 H 0.84727 0.75979 0.1344 0.0
H1249 H 0.80966 0.80166 0.2107 0.0
H1250 H 0.77336 0.75968 0.21436 0.0
H1251 H 0.7461 0.71787 0.18902 0.0
H1252 H 0.78241 0.67698 0.11161 0.0
H1253 H 0.82666 0.71095 0.11591 0.0
C1254 C 0.83166 0.75931 0.15228 0.0
C1255 C 0.82971 0.78445 0.17133 0.0
C1256 C 0.81087 0.73524 0.15401 0.0
C1257 C 0.81008 0.78327 0.19485 0.0
C1258 C 0.78969 0.75914 0.19714 0.0
C1259 C 0.76432 0.71577 0.17379 0.0
C1260 C 0.76111 0.69583 0.14971 0.0
C1261 C 0.78878 0.73603 0.17576 0.0
C1262 C 0.78468 0.6925 0.13023 0.0
C1263 C 0.8097 0.71213 0.13249 0.0
H1264 H 0.5538 0.52452 0.40517 0.0
H1265 H 0.49066 0.45655 0.37008 0.0
H1266 H 0.44868 0.48723 0.38532 0.0
H1267 H 0.43096 0.53528 0.40287 0.0
H1268 H 0.49405 0.6051 0.43431 0.0
H1269 H 0.53572 0.57081 0.42731 0.0
C1270 C 0.53083 0.5165 0.40084 0.0
C1271 C 0.52493 0.48897 0.38601 0.0
C1272 C 0.50717 0.53416 0.40937 0.0
C1273 C 0.49534 0.47817 0.38102 0.0
C1274 C 0.47151 0.49547 0.38991 0.0
C1275 C 0.45373 0.5428 0.40889 0.0
C1276 C 0.45983 0.57263 0.41841 0.0
C1277 C 0.47728 0.52377 0.40341 0.0
C1278 C 0.48924 0.58218 0.4264 0.0
C1279 C 0.51292 0.56277 0.42224 0.0
H1280 H 0.85941 0.74511 0.71249 0.0
H1281 H 0.88386 0.81696 0.77465 0.0
H1282 H 0.87174 0.78416 0.8153 0.0
H1283 H 0.86205 0.73389 0.83269 0.0
H1284 H 0.84102 0.66012 0.77171 0.0
H1285 H 0.84409 0.69511 0.73057 0.0
C1286 C 0.86173 0.75354 0.73496 0.0
C1287 C 0.87287 0.78297 0.74085 0.0
C1288 C 0.85569 0.73432 0.75817 0.0
C1289 C 0.87565 0.79408 0.76982 0.0
C1290 C 0.86872 0.77544 0.793 0.0
C1291 C 0.85721 0.7255 0.81052 0.0
C1292 C 0.85153 0.69462 0.80504 0.0
C1293 C 0.85981 0.7453 0.78736 0.0
C1294 C 0.84575 0.68395 0.77621 0.0
C1295 C 0.84754 0.70384 0.75281 0.0
H1296 H 0.54221 0.62282 0.08925 0.0
H1297 H 0.57215 0.54357 0.04337 0.0
H1298 H 0.5254 0.54118 0.01376 0.0
H1299 H 0.48365 0.56943 0.99321 0.0
H1300 H 0.45637 0.65201 0.03532 0.0
H1301 H 0.49395 0.64517 0.07493 0.0
C1302 C 0.53771 0.60444 0.07354 0.0
C1303 C 0.55992 0.58328 0.06824 0.0
C1304 C 0.51165 0.60426 0.05575 0.0
C1305 C 0.55482 0.55978 0.04767 0.0
C1306 C 0.52832 0.55859 0.03071 0.0
C1307 C 0.48546 0.58539 0.01157 0.0
C1308 C 0.46841 0.61161 0.01126 0.0
C1309 C 0.50766 0.58188 0.03331 0.0
C1310 C 0.4699 0.6319 0.03521 0.0
C1311 C 0.49143 0.62809 0.05764 0.0
H1312 H 0.64442 0.27444 0.20884 0.0
H1313 H 0.69245 0.21082 0.26282 0.0
H1314 H 0.71193 0.2518 0.29438 0.0
H1315 H 0.70675 0.30289 0.31229 0.0
H1316 H 0.65072 0.3649 0.26463 0.0
H1317 H 0.6441 0.32812 0.22427 0.0
C1318 C 0.65947 0.2698 0.22733 0.0
C1319 C 0.66681 0.23996 0.23385 0.0
C1320 C 0.66912 0.2932 0.24651 0.0
C1321 C 0.68629 0.2338 0.2577 0.0
C1322 C 0.69753 0.25713 0.2757 0.0
C1323 C 0.69353 0.30847 0.29284 0.0
C1324 C 0.67823 0.33566 0.29181 0.0
C1325 C 0.68784 0.28656 0.27116 0.0
C1326 C 0.66225 0.34358 0.26606 0.0
C1327 C 0.65814 0.32248 0.24317 0.0
H1328 H 0.04811 0.43455 0.49114 0.0
H1329 H 0.99341 0.37058 0.43955 0.0
H1330 H 0.95165 0.37767 0.47287 0.0
H1331 H 0.93437 0.39616 0.52053 0.0
H1332 H 0.992 0.45655 0.57375 0.0
H1333 H 0.02931 0.45683 0.53567 0.0
C1334 C 0.02691 0.42256 0.48687 0.0
C1335 C 0.02383 0.40175 0.46342 0.0
C1336 C 1.00385 0.42581 0.5066 0.0
C1337 C 0.99614 0.38668 0.45767 0.0
C1338 C 0.97248 0.39053 0.47682 0.0
C1339 C 0.95489 0.40975 0.52358 0.0
C1340 C 0.96065 0.42604 0.55 0.0
C1341 C 0.97662 0.40908 0.50201 0.0
C1342 C 0.98726 0.44356 0.55372 0.0
C1343 C 1.00856 0.44377 0.53198 0.0
H1344 H 0.84117 0.28501 0.67776 0.0
H1345 H 0.84844 0.35923 0.74072 0.0
H1346 H 0.85559 0.32358 0.78048 0.0
H1347 H 0.86493 0.27212 0.79656 0.0
H1348 H 0.85927 0.19788 0.73382 0.0
H1349 H 0.8464 0.23296 0.69454 0.0
C1350 C 0.84388 0.2934 0.7002 0.0
C1351 C 0.84492 0.32471 0.70621 0.0
C1352 C 0.84875 0.27289 0.72286 0.0
C1353 C 0.84801 0.3352 0.73547 0.0
C1354 C 0.85223 0.31489 0.75821 0.0
C1355 C 0.86084 0.26365 0.77428 0.0
C1356 C 0.86353 0.23274 0.76781 0.0
C1357 C 0.85363 0.28382 0.75199 0.0
C1358 C 0.85776 0.2218 0.73907 0.0
C1359 C 0.85029 0.24176 0.7167 0.0
H1360 H 0.95865 0.62817 0.93718 0.0
H1361 H 0.93585 0.54258 0.97615 0.0
H1362 H 0.98496 0.54257 1.00219 0.0
H1363 H 0.02902 0.57205 0.02032 0.0
H1364 H 0.05089 0.65838 0.98219 0.0
H1365 H 1.00781 0.65247 0.94774 0.0
C1366 C 0.9649 0.60929 0.9509 0.0
C1367 C 0.94424 0.58559 0.95539 0.0
C1368 C 0.99272 0.6096 0.96555 0.0
C1369 C 0.95188 0.561 0.97287 0.0
C1370 C 0.97974 0.56103 0.98758 0.0
C1371 C 0.02467 0.5891 1.00388 0.0
C1372 C 0.04195 0.61597 1.00399 0.0
C1373 C 0.99962 0.58592 0.98507 0.0
C1374 C 0.03724 0.63772 0.98239 0.0
C1375 C 0.01258 0.63449 0.96303 0.0
H1376 H 0.6493 0.67955 0.24179 0.0
H1377 H 0.68923 0.7432 0.18189 0.0
H1378 H 0.68364 0.78398 0.21732 0.0
H1379 H 0.65933 0.8025 0.26018 0.0
H1380 H 0.62066 0.74054 0.32195 0.0
H1381 H 0.6327 0.69758 0.28973 0.0
C1382 C 0.65729 0.70222 0.2367 0.0
C1383 C 0.66854 0.70867 0.20889 0.0
C1384 C 0.65331 0.72573 0.2568 0.0
C1385 C 0.67973 0.73786 0.20288 0.0
C1386 C 0.67639 0.76123 0.22298 0.0
C1387 C 0.65397 0.77956 0.26694 0.0
C1388 C 0.63892 0.77434 0.29295 0.0
C1389 C 0.66174 0.75556 0.24914 0.0
C1390 C 0.63213 0.74473 0.30168 0.0
C1391 C 0.63913 0.72037 0.28345 0.0
H1392 H 0.59447 0.40581 0.49542 0.0
H1393 H 0.5338 0.45596 0.43958 0.0
H1394 H 0.49631 0.45505 0.47736 0.0
H1395 H 0.47792 0.43261 0.52222 0.0
H1396 H 0.53724 0.38069 0.57743 0.0
H1397 H 0.57842 0.38985 0.54386 0.0
C1398 C 0.57331 0.4171 0.49171 0.0
C1399 C 0.56669 0.43031 0.46443 0.0
C1400 C 0.55154 0.41581 0.51321 0.0
C1401 C 0.53938 0.44531 0.4602 0.0
C1402 C 0.51782 0.44467 0.48174 0.0
C1403 C 0.50004 0.42384 0.52716 0.0
C1404 C 0.50465 0.40564 0.55174 0.0
C1405 C 0.52321 0.4288 0.50768 0.0
C1406 C 0.53336 0.39468 0.55839 0.0
C1407 C 0.55677 0.39978 0.53919 0.0
H1408 H 0.77431 0.85045 0.67768 0.0
H1409 H 0.84443 0.84466 0.74497 0.0
H1410 H 0.80728 0.84279 0.78261 0.0
H1411 H 0.75645 0.85098 0.79692 0.0
H1412 H 0.68562 0.8617 0.73143 0.0
H1413 H 0.72165 0.85399 0.69234 0.0
C1414 C 0.78139 0.84843 0.70055 0.0
C1415 C 0.81212 0.84764 0.70849 0.0
C1416 C 0.7599 0.84891 0.72235 0.0
C1417 C 0.82098 0.84483 0.73816 0.0
C1418 C 0.79975 0.84412 0.75981 0.0
C1419 C 0.7487 0.85103 0.77411 0.0
C1420 C 0.71874 0.85719 0.76684 0.0
C1421 C 0.76938 0.8473 0.75218 0.0
C1422 C 0.70883 0.85715 0.73732 0.0
C1423 C 0.72937 0.85284 0.71509 0.0
H1424 H 0.19871 0.64893 0.26874 0.0
H1425 H 0.26571 0.64856 0.20185 0.0
H1426 H 0.30299 0.66985 0.23632 0.0
H1427 H 0.31831 0.6807 0.28568 0.0
H1428 H 0.25609 0.67017 0.3562 0.0
H1429 H 0.21477 0.66123 0.32005 0.0
C1430 C 0.22144 0.65383 0.26186 0.0
C1431 C 0.22943 0.64799 0.23281 0.0
C1432 C 0.2435 0.66378 0.28243 0.0
C1433 C 0.25889 0.65377 0.22393 0.0
C1434 C 0.2803 0.6657 0.24366 0.0
C1435 C 0.2957 0.67713 0.29344 0.0
C1436 C 0.29027 0.67569 0.32351 0.0
C1437 C 0.27302 0.66985 0.27303 0.0
C1438 C 0.26077 0.67103 0.33301 0.0
C1439 C 0.23728 0.66575 0.31243 0.0
H1440 H 0.62204 0.08189 0.5506 0.0
H1441 H 0.54444 0.0281 0.57358 0.0
H1442 H 0.55271 0.99325 0.53244 0.0
H1443 H 0.58791 0.97331 0.49715 0.0
H1444 H 0.66702 0.02586 0.47567 0.0
H1445 H 0.65239 0.06646 0.50918 0.0
C1446 C 0.60628 0.06327 0.54567 0.0
C1447 C 0.58256 0.05739 0.56449 0.0
C1448 C 0.61205 0.04282 0.52303 0.0
C1449 C 0.56254 0.03297 0.55881 0.0
C1450 C 0.56753 0.01293 0.53566 0.0
C1451 C 0.60176 0.9938 0.49971 0.0
C1452 C 0.62892 0.99648 0.48506 0.0
C1453 C 0.59321 0.01676 0.51883 0.0
C1454 C 0.64631 0.02333 0.48745 0.0
C1455 C 0.63791 0.04646 0.50643 0.0
H1456 H 0.28113 0.32933 0.7396 0.0
H1457 H 0.30708 0.42126 0.76371 0.0
H1458 H 0.27555 0.4185 0.80684 0.0
H1459 H 0.23615 0.39142 0.834 0.0
H1460 H 0.21351 0.2986 0.81143 0.0
H1461 H 0.24901 0.29963 0.77126 0.0
C1462 C 0.2806 0.34844 0.75465 0.0
C1463 C 0.29614 0.37542 0.7485 0.0
C1464 C 0.26294 0.3465 0.77936 0.0
C1465 C 0.29499 0.40027 0.76802 0.0
C1466 C 0.27705 0.39871 0.79262 0.0
C1467 C 0.23971 0.37131 0.82066 0.0
C1468 C 0.22167 0.34529 0.82424 0.0
C1469 C 0.26033 0.37216 0.79804 0.0
C1470 C 0.22633 0.31915 0.80748 0.0
C1471 C 0.24673 0.31972 0.78493 0.0
H1472 H 0.42203 0.43981 0.52576 0.0
H1473 H 0.41719 0.49874 0.60197 0.0
H1474 H 0.41569 0.54286 0.57041 0.0
H1475 H 0.4078 0.56334 0.52137 0.0
H1476 H 0.40885 0.50376 0.44545 0.0
H1477 H 0.42091 0.46108 0.47682 0.0
C1478 C 0.42137 0.46232 0.53553 0.0
C1479 C 0.41909 0.46608 0.56598 0.0
C1480 C 0.41972 0.48735 0.51734 0.0
C1481 C 0.41835 0.49536 0.57842 0.0
C1482 C 0.41753 0.52055 0.56045 0.0
C1483 C 0.41118 0.54109 0.51174 0.0
C1484 C 0.40685 0.53627 0.48149 0.0
C1485 C 0.41691 0.51662 0.52989 0.0
C1486 C 0.41158 0.50763 0.46893 0.0
C1487 C 0.41841 0.4833 0.48678 0.0
H1488 H 0.75207 0.12735 0.17664 0.0
H1489 H 0.72392 0.20918 0.21915 0.0
H1490 H 0.77128 0.21237 0.24807 0.0
H1491 H 0.81593 0.18668 0.2664 0.0
H1492 H 0.84061 0.1015 0.22742 0.0
H1493 H 0.80037 0.10567 0.1901 0.0
C1494 C 0.75664 0.14612 0.19192 0.0
C1495 C 0.73441 0.16735 0.19714 0.0
C1496 C 0.78353 0.1474 0.20836 0.0
C1497 C 0.74034 0.19183 0.21643 0.0
C1498 C 0.76753 0.19389 0.23235 0.0
C1499 C 0.81326 0.16975 0.24894 0.0
C1500 C 0.8307 0.14372 0.24949 0.0
C1501 C 0.78871 0.17108 0.22931 0.0
C1502 C 0.82716 0.12167 0.22713 0.0
C1503 C 0.80396 0.12384 0.20618 0.0
H1504 H 0.58299 0.93944 0.9803 0.0
H1505 H 0.62368 0.99288 0.91278 0.0
H1506 H 0.63558 0.03329 0.94861 0.0
H1507 H 0.64 0.04973 0.99962 0.0
H1508 H 0.60117 0.99528 0.06763 0.0
H1509 H 0.58318 0.95786 0.03066 0.0
C1510 C 0.594 0.96007 0.97337 0.0
C1511 C 0.60304 0.96305 0.94439 0.0
C1512 C 0.60166 0.98236 0.99408 0.0
C1513 C 0.61674 0.99012 0.93522 0.0
C1514 C 0.6238 0.013 0.95566 0.0
C1515 C 0.62767 0.02961 1.00636 0.0
C1516 C 0.6224 0.02454 0.03605 0.0
C1517 C 0.61745 1.00867 0.98527 0.0
C1518 C 0.60588 0.99898 0.04472 0.0
C1519 C 0.59543 0.9779 0.02371 0.0
H1520 H 0.92769 0.08341 0.49024 0.0
H1521 H 0.91997 0.01681 0.41966 0.0
H1522 H 0.9122 0.97683 0.45535 0.0
H1523 H 0.90056 0.96257 0.50529 0.0
H1524 H 0.90208 0.03045 0.5746 0.0
H1525 H 0.91887 0.06883 0.5402 0.0
C1526 C 0.92476 0.06012 0.48256 0.0
C1527 C 0.92366 0.05304 0.45241 0.0
C1528 C 0.91849 0.03783 0.50279 0.0
C1529 C 0.9204 0.02275 0.44284 0.0
C1530 C 0.91577 1.0 0.46314 0.0
C1531 C 0.90461 0.98578 0.51282 0.0
C1532 C 0.89979 0.99407 0.54205 0.0
C1533 C 0.91344 1.00759 0.49294 0.0
C1534 C 0.9052 0.02396 0.55188 0.0
C1535 C 0.91498 0.04573 0.53237 0.0
H1536 H 0.17661 0.28011 0.46988 0.0
H1537 H 0.08099 0.29165 0.4763 0.0
H1538 H 0.07864 0.25299 0.51382 0.0
H1539 H 0.10369 0.21618 0.54731 0.0
H1540 H 0.19969 0.20667 0.54277 0.0
H1541 H 0.20156 0.243 0.503 0.0
C1542 C 0.1552 0.27405 0.47925 0.0
C1543 C 0.12907 0.28941 0.46975 0.0
C1544 C 0.15391 0.25172 0.5018 0.0
C1545 C 0.10171 0.28085 0.48285 0.0
C1546 C 0.10024 0.25846 0.50454 0.0
C1547 C 0.12499 0.22185 0.53752 0.0
C1548 C 0.15154 0.20834 0.54864 0.0
C1549 C 0.12618 0.24378 0.51459 0.0
C1550 C 0.17881 0.21661 0.53532 0.0
C1551 C 0.17997 0.23755 0.5123 0.0
H1552 H 0.0476 0.93335 0.78481 0.0
H1553 H 0.07029 0.84034 0.79987 0.0
H1554 H 0.03187 0.82366 0.76288 0.0
H1555 H 0.99041 0.83525 0.7267 0.0
H1556 H 0.97092 0.92852 0.70876 0.0
H1557 H 1.00911 0.94507 0.74591 0.0
C1558 C 0.04428 0.90935 0.78003 0.0
C1559 C 0.06207 0.88819 0.79578 0.0
C1560 C 0.02241 0.89989 0.758 0.0
C1561 C 0.05734 0.85729 0.78851 0.0
C1562 C 0.03513 0.84772 0.76727 0.0
C1563 C 0.99449 0.85926 0.7308 0.0
C1564 C 0.9771 0.88052 0.71473 0.0
C1565 C 0.0173 0.86875 0.75195 0.0
C1566 C 0.98348 0.91149 0.72043 0.0
C1567 C 1.00544 0.92099 0.74189 0.0
H1568 H 0.42264 0.8012 0.04335 0.0
H1569 H 0.32577 0.80266 0.03769 0.0
H1570 H 0.32492 0.7632 0.99962 0.0
H1571 H 0.3513 0.72539 0.96892 0.0
H1572 H 0.44796 0.72182 0.97688 0.0
H1573 H 0.44906 0.76407 0.01199 0.0
C1574 C 0.40136 0.79318 0.03358 0.0
C1575 C 0.37431 0.80534 0.04382 0.0
C1576 C 0.40086 0.76949 0.01178 0.0
C1577 C 0.34706 0.79396 0.03073 0.0
C1578 C 0.34648 0.7712 0.00875 0.0
C1579 C 0.37263 0.73405 0.97804 0.0
C1580 C 0.39951 0.71997 0.96984 0.0
C1581 C 0.37318 0.75834 0.99922 0.0
C1582 C 0.42679 0.73172 0.98256 0.0
C1583 C 0.42751 0.7561 1.00283 0.0
H1584 H 0.48466 0.09063 0.29846 0.0
H1585 H 0.46365 0.1855 0.29931 0.0
H1586 H 0.50164 0.19496 0.2622 0.0
H1587 H 0.54246 0.17642 0.23025 0.0
H1588 H 0.55985 0.08079 0.22679 0.0
H1589 H 0.52206 0.07162 0.26393 0.0
C1590 C 0.48828 0.11345 0.29056 0.0
C1591 C 0.47127 0.13739 0.30223 0.0
C1592 C 0.50982 0.11862 0.26866 0.0
C1593 C 0.4762 0.1666 0.29105 0.0
C1594 C 0.49812 0.17203 0.2698 0.0
C1595 C 0.53795 0.15355 0.2376 0.0
C1596 C 0.55446 0.12934 0.22575 0.0
C1597 C 0.51534 0.14828 0.25859 0.0
C1598 C 0.54772 0.09985 0.23531 0.0
C1599 C 0.52606 0.09461 0.2567 0.0
H1600 H 0.17702 0.80679 0.99186 0.0
H1601 H 0.10057 0.78213 0.93567 0.0
H1602 H 0.08865 0.73934 0.96743 0.0
H1603 H 0.10007 0.70817 0.01091 0.0
H1604 H 0.17488 0.73402 0.06907 0.0
H1605 H 0.18683 0.77686 0.03742 0.0
C1606 C 0.15755 0.79222 0.98678 0.0
C1607 C 0.13955 0.79801 0.96133 0.0
C1608 C 0.15049 0.76766 1.00563 0.0
C1609 C 0.11452 0.77869 0.95518 0.0
C1610 C 0.1078 0.75402 0.97334 0.0
C1611 C 0.11908 0.72305 0.01683 0.0
C1612 C 0.13671 0.71713 0.04257 0.0
C1613 C 0.12565 0.74813 0.9986 0.0
C1614 C 0.161 0.73733 0.0495 0.0
C1615 C 0.16785 0.76204 0.0313 0.0
H1616 H 0.47283 0.94152 0.23139 0.0
H1617 H 0.46014 0.84756 0.20614 0.0
H1618 H 0.49758 0.83337 0.24389 0.0
H1619 H 0.53549 0.8476 0.28392 0.0
H1620 H 0.54431 0.94111 0.31211 0.0
H1621 H 0.50731 0.95516 0.27407 0.0
C1622 C 0.4782 0.91786 0.23403 0.0
C1623 C 0.46356 0.89577 0.21511 0.0
C1624 C 0.49936 0.90968 0.25667 0.0
C1625 C 0.47076 0.86524 0.21982 0.0
C1626 C 0.49238 0.85709 0.24158 0.0
C1627 C 0.52929 0.8711 0.28193 0.0
C1628 C 0.54338 0.89322 0.30127 0.0
C1629 C 0.50708 0.87907 0.26012 0.0
C1630 C 0.53428 0.92341 0.29804 0.0
C1631 C 0.51302 0.93153 0.27601 0.0
H1632 H 0.33726 0.22673 0.48106 0.0
H1633 H 0.43036 0.21366 0.46141 0.0
H1634 H 0.44567 0.25188 0.49886 0.0
H1635 H 0.43282 0.28985 0.53715 0.0
H1636 H 0.34013 0.2996 0.56011 0.0
H1637 H 0.32466 0.26214 0.52192 0.0
C1638 C 0.36094 0.23227 0.48487 0.0
C1639 C 0.38257 0.21733 0.46778 0.0
C1640 C 0.36971 0.25386 0.50727 0.0
C1641 C 0.41313 0.22461 0.47381 0.0
C1642 C 0.42191 0.24661 0.49533 0.0
C1643 C 0.40916 0.28388 0.53384 0.0
C1644 C 0.38768 0.2982 0.55157 0.0
C1645 C 0.40045 0.26154 0.51217 0.0
C1646 C 0.35726 0.28937 0.54702 0.0
C1647 C 0.34838 0.26786 0.52501 0.0
H1648 H 0.97666 0.18181 0.78947 0.0
H1649 H 0.95156 0.08697 0.79163 0.0
H1650 H 0.98688 0.07614 0.7528 0.0
H1651 H 0.02365 0.09355 0.7167 0.0
H1652 H 0.0542 0.18694 0.7182 0.0
H1653 H 0.01829 0.19835 0.75671 0.0
C1654 C 0.97903 0.15874 0.78152 0.0
C1655 C 0.96096 0.13526 0.79346 0.0
C1656 C 1.00041 0.15243 0.75962 0.0
C1657 C 0.96491 0.1055 0.78306 0.0
C1658 C 0.98513 0.0993 0.76068 0.0
C1659 C 0.02279 0.11642 0.72558 0.0
C1660 C 0.04177 0.13938 0.7141 0.0
C1661 C 1.00282 0.12256 0.74857 0.0
C1662 C 0.0401 0.16876 0.72631 0.0
C1663 C 0.0194 0.17529 0.74839 0.0
H1664 H 0.22111 0.5263 0.17488 0.0
H1665 H 0.21148 0.5514 0.08406 0.0
H1666 H 0.2523 0.51734 0.07146 0.0
H1667 H 0.29222 0.48086 0.08637 0.0
H1668 H 0.29818 0.4525 0.17653 0.0
H1669 H 0.25784 0.48689 0.18898 0.0
C1670 C 0.22776 0.52429 0.15222 0.0
C1671 C 0.21292 0.54197 0.13053 0.0
C1672 C 0.25099 0.50389 0.14497 0.0
C1673 C 0.22202 0.53837 0.10132 0.0
C1674 C 0.24563 0.51884 0.09412 0.0
C1675 C 0.28473 0.48211 0.10879 0.0
C1676 C 0.29899 0.46392 0.13051 0.0
C1677 C 0.26054 0.50158 0.11575 0.0
C1678 C 0.28816 0.4659 0.15925 0.0
C1679 C 0.26493 0.48576 0.16643 0.0
H1680 H 0.77741 0.03947 0.92479 0.0
H1681 H 0.80042 0.05021 0.83419 0.0
H1682 H 0.7644 0.00927 0.81983 0.0
H1683 H 0.72642 0.9691 0.83268 0.0
H1684 H 0.69947 0.96188 0.92254 0.0
H1685 H 0.73631 1.00203 0.93711 0.0
C1686 C 0.77459 0.03302 0.90181 0.0
C1687 C 0.79242 0.04842 0.88072 0.0
C1688 C 0.75283 0.00962 0.89346 0.0
C1689 C 0.78752 0.03941 0.8511 0.0
C1690 C 0.76678 0.01567 0.84285 0.0
C1691 C 0.72844 0.97618 0.85556 0.0
C1692 C 0.70979 0.96147 0.87643 0.0
C1693 C 0.74932 1.00037 0.86377 0.0
C1694 C 0.71309 0.97201 0.90578 0.0
C1695 C 0.73439 0.99522 0.91417 0.0
H1696 H 0.79133 0.03913 0.33543 0.0
H1697 H 0.81726 0.05839 0.42584 0.0
H1698 H 0.7798 0.02097 0.44184 0.0
H1699 H 0.73892 0.98253 0.43061 0.0
H1700 H 0.71569 0.96006 0.34023 0.0
H1701 H 0.75242 0.99827 0.32413 0.0
C1702 C 0.7888 0.03531 0.3587 0.0
C1703 C 0.80734 0.05241 0.37932 0.0
C1704 C 0.76745 0.0128 0.36788 0.0
C1705 C 0.80365 0.04616 0.40929 0.0
C1706 C 0.78203 0.02457 0.41851 0.0
C1707 C 0.74177 0.98586 0.40731 0.0
C1708 C 0.72379 0.9681 0.38678 0.0
C1709 C 0.76368 1.00771 0.39808 0.0
C1710 C 0.72869 0.97298 0.35674 0.0
C1711 C 0.74984 0.99508 0.34747 0.0
H1712 H 0.79368 0.98038 0.17773 0.0
H1713 H 0.79968 0.95676 0.08597 0.0
H1714 H 0.76114 0.9936 0.07358 0.0
H1715 H 0.72478 0.03258 0.08836 0.0
H1716 H 0.72238 0.06088 0.17921 0.0
H1717 H 0.76007 0.02307 0.19208 0.0
C1718 C 0.78658 0.98327 0.15499 0.0
C1719 C 0.7997 0.96506 0.13287 0.0
C1720 C 0.76479 1.00567 0.14776 0.0
C1721 C 0.79029 0.96999 0.10356 0.0
C1722 C 0.76805 0.9912 0.09642 0.0
C1723 C 0.73236 0.03056 0.11107 0.0
C1724 C 0.71984 0.04969 0.13278 0.0
C1725 C 0.75495 0.00915 0.11827 0.0
C1726 C 0.73094 0.04668 0.1619 0.0
C1727 C 0.75266 0.02484 0.16931 0.0
H1728 H 0.28494 0.47454 0.67697 0.0
H1729 H 0.29924 0.46163 0.58446 0.0
H1730 H 0.26253 0.50058 0.57305 0.0
H1731 H 0.22553 0.53879 0.58883 0.0
H1732 H 0.21492 0.55599 0.68127 0.0
H1733 H 0.2504 0.51573 0.69291 0.0
C1734 C 0.28001 0.48012 0.65426 0.0
C1735 C 0.29506 0.4643 0.63163 0.0
C1736 C 0.25922 0.50371 0.64773 0.0
C1737 C 0.28836 0.47283 0.60247 0.0
C1738 C 0.26716 0.4953 0.59588 0.0
C1739 C 0.23086 0.5338 0.6116 0.0
C1740 C 0.21676 0.5507 0.63407 0.0
C1741 C 0.25229 0.51096 0.61824 0.0
C1742 C 0.22489 0.54376 0.66335 0.0
C1743 C 0.24533 0.52049 0.67005 0.0
H1744 H 0.20655 0.48697 0.41065 0.0
H1745 H 0.24711 0.44952 0.33354 0.0
H1746 H 0.28441 0.49031 0.33449 0.0
H1747 H 0.30832 0.53715 0.35729 0.0
H1748 H 0.27023 0.57427 0.43536 0.0
H1749 H 0.23077 0.53454 0.43365 0.0
C1750 C 0.22356 0.48743 0.3941 0.0
C1751 C 0.2231 0.46387 0.37212 0.0
C1752 C 0.24608 0.51179 0.39463 0.0
C1753 C 0.24597 0.46626 0.35106 0.0
C1754 C 0.26776 0.49008 0.35141 0.0
C1755 C 0.29103 0.53713 0.37357 0.0
C1756 C 0.29237 0.56004 0.39597 0.0
C1757 C 0.26831 0.51318 0.37299 0.0
C1758 C 0.2699 0.55797 0.41733 0.0
C1759 C 0.24719 0.53478 0.41653 0.0
H1760 H 0.23921 0.46392 0.93563 0.0
H1761 H 0.20019 0.45799 0.848 0.0
H1762 H 0.23548 0.49765 0.83213 0.0
H1763 H 0.27792 0.53472 0.84276 0.0
H1764 H 0.32005 0.53739 0.92926 0.0
H1765 H 0.28391 0.49875 0.94544 0.0
C1766 C 0.23839 0.47121 0.913 0.0
C1767 C 0.21643 0.4576 0.89318 0.0
C1768 C 0.25969 0.49374 0.90365 0.0
C1769 C 0.2165 0.4675 0.86388 0.0
C1770 C 0.23682 0.49044 0.85477 0.0
C1771 C 0.27931 0.52702 0.86524 0.0
C1772 C 0.30204 0.53989 0.88473 0.0
C1773 C 0.25858 0.50387 0.87439 0.0
C1774 C 0.3031 0.52867 0.9136 0.0
C1775 C 0.28223 0.50634 0.92294 0.0
H1776 H 0.67721 0.71859 0.03394 0.0
H1777 H 0.58422 0.71232 0.05779 0.0
H1778 H 0.57091 0.74817 0.01904 0.0
H1779 H 0.58581 0.78249 0.97865 0.0
H1780 H 0.67809 0.78497 0.95203 0.0
H1781 H 0.69136 0.74961 0.99107 0.0
C1782 C 0.654 0.72512 0.03077 0.0
C1783 C 0.63184 0.71295 0.04939 0.0
C1784 C 0.64633 0.74515 1.00766 0.0
C1785 C 0.60182 0.72128 0.04419 0.0
C1786 C 0.5942 0.74188 0.02192 0.0
C1787 C 0.60884 0.7752 0.98123 0.0
C1788 C 0.63093 0.78682 0.96218 0.0
C1789 C 0.61625 0.75413 1.00355 0.0
C1790 C 0.66052 0.77658 0.96598 0.0
C1791 C 0.66817 0.75637 0.98853 0.0
H1792 H 0.54094 0.43475 0.28566 0.0
H1793 H 0.57254 0.34354 0.29361 0.0
H1794 H 0.53682 0.32666 0.25423 0.0
H1795 H 0.49502 0.33737 0.21827 0.0
H1796 H 0.46682 0.42941 0.20741 0.0
H1797 H 0.50263 0.44624 0.24668 0.0
C1798 C 0.54017 0.41111 0.27881 0.0
C1799 C 0.55952 0.39043 0.29328 0.0
C1800 C 0.51997 0.40167 0.25541 0.0
C1801 C 0.55818 0.36007 0.28334 0.0
C1802 C 0.53757 0.35038 0.26072 0.0
C1803 C 0.49676 0.3612 0.22434 0.0
C1804 C 0.47767 0.382 0.20971 0.0
C1805 C 0.51811 0.37088 0.2467 0.0
C1806 C 0.4809 0.41279 0.21791 0.0
C1807 C 0.50142 0.42242 0.24059 0.0
H1808 H 0.92575 0.23721 0.48292 0.0
H1809 H 0.833 0.22939 0.45297 0.0
H1810 H 0.8196 0.26826 0.489 0.0
H1811 H 0.83367 0.30447 0.53019 0.0
H1812 H 0.92696 0.31541 0.55737 0.0
H1813 H 0.94035 0.276 0.52178 0.0
C1814 C 0.90253 0.24398 0.48407 0.0
C1815 C 0.88046 0.22963 0.46479 0.0
C1816 C 0.89495 0.26721 0.50473 0.0
C1817 C 0.85067 0.23952 0.46701 0.0
C1818 C 0.84293 0.2619 0.48788 0.0
C1819 C 0.85702 0.29834 0.52842 0.0
C1820 C 0.87916 0.31324 0.5472 0.0
C1821 C 0.86477 0.27589 0.50706 0.0
C1822 C 0.90925 0.3048 0.54372 0.0
C1823 C 0.91695 0.28202 0.5232 0.0
H1824 H 0.95619 0.62343 0.7729 0.0
H1825 H 0.0106 0.65128 0.84872 0.0
H1826 H 0.05381 0.66011 0.8176 0.0
H1827 H 0.07738 0.65819 0.76884 0.0
H1828 H 0.0246 0.62502 0.69373 0.0
H1829 H 0.9805 0.6194 0.72422 0.0
C1830 C 0.97742 0.63164 0.78259 0.0
C1831 C 0.97974 0.63705 0.81334 0.0
C1832 C 1.00295 0.63527 0.76455 0.0
C1833 C 1.00782 0.64725 0.82526 0.0
C1834 C 0.03273 0.65213 0.80741 0.0
C1835 C 0.05629 0.64967 0.75905 0.0
C1836 C 0.0548 0.64207 0.72867 0.0
C1837 C 0.03079 0.64589 0.77702 0.0
C1838 C 0.02694 0.63092 0.71686 0.0
C1839 C 1.00144 0.62784 0.73437 0.0
H1840 H 0.67889 0.29075 0.47427 0.0
H1841 H 0.58451 0.3028 0.45488 0.0
H1842 H 0.57166 0.26294 0.48949 0.0
H1843 H 0.5869 0.22353 0.52513 0.0
H1844 H 0.68088 0.21486 0.54846 0.0
H1845 H 0.69395 0.25402 0.51304 0.0
C1846 C 0.65548 0.28468 0.47758 0.0
C1847 C 0.63276 0.29989 0.46139 0.0
C1848 C 0.64808 0.26206 0.49846 0.0
C1849 C 0.60259 0.29176 0.46669 0.0
C1850 C 0.59518 0.26878 0.48657 0.0
C1851 C 0.61029 0.23018 0.52254 0.0
C1852 C 0.63284 0.21566 0.53955 0.0
C1853 C 0.61767 0.25358 0.50255 0.0
C1854 C 0.66293 0.22528 0.53592 0.0
C1855 C 0.67046 0.24777 0.51548 0.0
H1856 H 0.97364 0.42946 0.738 0.0
H1857 H 0.96692 0.33792 0.70409 0.0
H1858 H 1.00476 0.32215 0.74073 0.0
H1859 H 0.04098 0.33451 0.78223 0.0
H1860 H 0.04361 0.42495 0.81937 0.0
H1861 H 1.00644 0.44073 0.78233 0.0
C1862 C 0.98039 0.40602 0.73872 0.0
C1863 C 0.96748 0.38497 0.71796 0.0
C1864 C 1.00163 0.39685 0.76064 0.0
C1865 C 0.9763 0.35462 0.71965 0.0
C1866 C 0.99809 0.3456 0.74064 0.0
C1867 C 0.03342 0.35768 0.78229 0.0
C1868 C 0.04567 0.37852 0.80368 0.0
C1869 C 0.01113 0.36651 0.76121 0.0
C1870 C 0.03493 0.40831 0.8034 0.0
C1871 C 0.0136 0.41743 0.78205 0.0
H1872 H 0.85181 0.78803 0.05108 0.0
H1873 H 0.94771 0.7976 0.04092 0.0
H1874 H 0.94614 0.75789 1.00354 0.0
H1875 H 0.91785 0.72028 0.97103 0.0
H1876 H 0.82177 0.71182 0.97915 0.0
H1877 H 0.82344 0.74973 0.01874 0.0
C1878 C 0.87242 0.78147 0.04084 0.0
C1879 C 0.89984 0.79688 0.04941 0.0
C1880 C 0.8715 0.75814 0.01827 0.0
C1881 C 0.926 0.7872 0.03518 0.0
C1882 C 0.92526 0.76403 0.01352 0.0
C1883 C 0.89728 0.72642 0.98158 0.0
C1884 C 0.86967 0.71255 0.97145 0.0
C1885 C 0.89817 0.74931 1.00447 0.0
C1886 C 0.84346 0.72174 0.9858 0.0
C1887 C 0.84434 0.7437 0.00875 0.0
H1888 H 0.52985 0.59639 0.22811 0.0
H1889 H 0.55022 0.69113 0.21558 0.0
H1890 H 0.51419 0.70453 0.25328 0.0
H1891 H 0.47546 0.68942 0.28974 0.0
H1892 H 0.45963 0.59443 0.3056 0.0
H1893 H 0.49481 0.58131 0.2673 0.0
C1894 C 0.52652 0.62003 0.23362 0.0
C1895 C 0.54286 0.64268 0.2184 0.0
C1896 C 0.50624 0.62762 0.25618 0.0
C1897 C 0.53826 0.6731 0.22656 0.0
C1898 C 0.51744 0.6808 0.24821 0.0
C1899 C 0.47971 0.66582 0.28489 0.0
C1900 C 0.46426 0.64299 0.30075 0.0
C1901 C 0.50105 0.6583 0.26315 0.0
C1902 C 0.47081 0.6126 0.29411 0.0
C1903 C 0.49103 0.60504 0.27199 0.0
H1904 H 0.78761 0.97939 0.59212 0.0
H1905 H 0.79857 0.95971 0.68421 0.0
H1906 H 0.75858 0.99496 0.69556 0.0
H1907 H 0.72089 0.03289 0.67987 0.0
H1908 H 0.70619 0.04926 0.58757 0.0
H1909 H 0.74649 0.01416 0.57598 0.0
C1910 C 0.78128 0.9827 0.61473 0.0
C1911 C 0.79687 0.96669 0.63729 0.0
C1912 C 0.75727 1.00267 0.62113 0.0
C1913 C 0.7875 0.97134 0.66628 0.0
C1914 C 0.76448 0.99172 0.67282 0.0
C1915 C 0.7263 0.02875 0.65712 0.0
C1916 C 0.71018 0.04435 0.63469 0.0
C1917 C 0.74925 1.00773 0.65052 0.0
C1918 C 0.71772 0.03794 0.60543 0.0
C1919 C 0.74105 0.0178 0.59879 0.0
H1920 H 0.13118 0.5629 0.25053 0.0
H1921 H 0.12915 0.50215 0.1755 0.0
H1922 H 0.13013 0.45853 0.20804 0.0
H1923 H 0.13493 0.43752 0.25808 0.0
H1924 H 0.13252 0.49796 0.33312 0.0
H1925 H 0.12968 0.54154 0.30058 0.0
C1926 C 0.13045 0.54008 0.24133 0.0
C1927 C 0.13008 0.53587 0.21054 0.0
C1928 C 0.13038 0.51495 0.26027 0.0
C1929 C 0.12909 0.50611 0.19903 0.0
C1930 C 0.12989 0.48111 0.21767 0.0
C1931 C 0.13335 0.46021 0.26727 0.0
C1932 C 0.134 0.46441 0.29806 0.0
C1933 C 0.131 0.48522 0.24834 0.0
C1934 C 0.13181 0.49399 0.30958 0.0
C1935 C 0.13037 0.51899 0.29094 0.0
H1936 H 0.70336 0.87755 0.50945 0.0
H1937 H 0.76076 0.88748 0.43535 0.0
H1938 H 0.80529 0.88665 0.46818 0.0
H1939 H 0.8281 0.88763 0.51857 0.0
H1940 H 0.77149 0.87332 0.59252 0.0
H1941 H 0.7269 0.87074 0.55943 0.0
C1942 C 0.72564 0.87893 0.50043 0.0
C1943 C 0.7285 0.88257 0.46973 0.0
C1944 C 0.75145 0.87764 0.51955 0.0
C1945 C 0.75769 0.88432 0.45864 0.0
C1946 C 0.78326 0.88404 0.47752 0.0
C1947 C 0.80608 0.88307 0.5274 0.0
C1948 C 0.80339 0.88039 0.55818 0.0
C1949 C 0.78047 0.88124 0.50807 0.0
C1950 C 0.77451 0.87486 0.56906 0.0
C1951 C 0.74888 0.87377 0.55007 0.0
H1952 H 0.37877 0.43662 0.7495 0.0
H1953 H 0.38966 0.49519 0.6755 0.0
H1954 H 0.39095 0.53969 0.70853 0.0
H1955 H 0.38484 0.56231 0.75868 0.0
H1956 H 0.37806 0.50268 0.83249 0.0
H1957 H 0.37917 0.45857 0.79956 0.0
C1958 C 0.38216 0.45909 0.74064 0.0
C1959 C 0.3843 0.46242 0.70997 0.0
C1960 C 0.38313 0.48456 0.75983 0.0
C1961 C 0.38847 0.4918 0.69896 0.0
C1962 C 0.38883 0.51733 0.71788 0.0
C1963 C 0.38394 0.53964 0.76752 0.0
C1964 C 0.3812 0.53591 0.79813 0.0
C1965 C 0.38552 0.51408 0.74836 0.0
C1966 C 0.38032 0.50631 0.80916 0.0
C1967 C 0.38087 0.481 0.79029 0.0
H1968 H 0.8177 0.13519 1.00251 0.0
H1969 H 0.75526 0.1324 0.92832 0.0
H1970 H 0.71289 0.13276 0.96149 0.0
H1971 H 0.69339 0.13065 0.01194 0.0
H1972 H 0.75574 0.13821 0.08604 0.0
H1973 H 0.79809 0.13947 0.05283 0.0
C1974 C 0.7948 0.13511 0.99364 0.0
C1975 C 0.78971 0.13372 0.96291 0.0
C1976 C 0.77045 0.13608 0.01292 0.0
C1977 C 0.75988 0.13374 0.9518 0.0
C1978 C 0.7356 0.13375 0.97081 0.0
C1979 C 0.71624 0.13306 0.02077 0.0
C1980 C 0.72133 0.13433 0.05151 0.0
C1981 C 0.74056 0.1345 1.00144 0.0
C1982 C 0.75111 0.13752 0.06255 0.0
C1983 C 0.77539 0.13802 0.04353 0.0
H1984 H 0.25852 0.12688 0.57073 0.0
H1985 H 0.17898 0.12246 0.51434 0.0
H1986 H 0.2101 0.12476 0.4709 0.0
H1987 H 0.26004 0.13157 0.44916 0.0
H1988 H 0.33959 0.13204 0.50554 0.0
H1989 H 0.3085 0.12765 0.54881 0.0
C1990 C 0.24812 0.12579 0.54888 0.0
C1991 C 0.21662 0.12435 0.54562 0.0
C1992 C 0.26614 0.12669 0.52407 0.0
C1993 C 0.20325 0.12307 0.51729 0.0
C1994 C 0.22101 0.12469 0.49249 0.0
C1995 C 0.27045 0.13036 0.47094 0.0
C1996 C 0.30193 0.13225 0.47432 0.0
C1997 C 0.25246 0.12704 0.49563 0.0
C1998 C 0.31534 0.13044 0.50252 0.0
C1999 C 0.29761 0.12805 0.52723 0.0
H2000 H 0.0952 1.00202 0.80273 0.0
H2001 H 0.17663 0.96028 0.77506 0.0
H2002 H 0.17802 0.99364 0.73242 0.0
H2003 H 0.15461 0.03412 0.70141 0.0
H2004 H 0.07195 0.07284 0.72944 0.0
H2005 H 0.07271 0.04171 0.77314 0.0
C2006 C 0.1135 1.00023 0.78762 0.0
C2007 C 0.13586 0.97849 0.79253 0.0
C2008 C 0.1139 0.01916 0.76286 0.0
C2009 C 0.1591 0.9767 0.77218 0.0
C2010 C 0.15989 0.99584 0.74764 0.0
C2011 C 0.137 0.03586 0.71728 0.0
C2012 C 0.11315 0.05596 0.71205 0.0
C2013 C 0.13725 0.01711 0.74252 0.0
C2014 C 0.09039 0.05759 0.73276 0.0
C2015 C 0.09082 0.03973 0.75785 0.0
H2016 H 0.26179 0.88968 0.94678 0.0
H2017 H 0.18104 0.89268 0.99667 0.0
H2018 H 0.21144 0.89583 0.04249 0.0
H2019 H 0.26136 0.89285 0.0689 0.0
H2020 H 0.342 0.89425 0.01855 0.0
H2021 H 0.3116 0.89461 0.97294 0.0
C2022 C 0.2508 0.89186 0.96764 0.0
C2023 C 0.21891 0.8912 0.96798 0.0
C2024 C 0.26859 0.89422 0.99408 0.0
C2025 C 0.20534 0.89371 0.99543 0.0
C2026 C 0.22283 0.89519 0.02178 0.0
C2027 C 0.27234 0.89402 0.04798 0.0
C2028 C 0.30425 0.89372 0.04753 0.0
C2029 C 0.25452 0.89483 0.02149 0.0
C2030 C 0.31775 0.89499 0.01995 0.0
C2031 C 0.30025 0.89489 0.99368 0.0
H2032 H 0.38689 0.01581 0.32457 0.0
H2033 H 0.38582 0.09801 0.27473 0.0
H2034 H 0.384 0.0684 0.22879 0.0
H2035 H 0.38652 0.01879 0.20259 0.0
H2036 H 0.38266 0.9366 0.25246 0.0
H2037 H 0.38234 0.96624 0.29828 0.0
C2038 C 0.38546 0.02717 0.30363 0.0
C2039 C 0.3862 0.05912 0.30313 0.0
C2040 C 0.38383 0.00991 0.27721 0.0
C2041 C 0.38466 0.0735 0.27579 0.0
C2042 C 0.38396 0.05654 0.24947 0.0
C2043 C 0.38519 1.00743 0.22349 0.0
C2044 C 0.38474 0.97548 0.22406 0.0
C2045 C 0.3841 0.02471 0.24986 0.0
C2046 C 0.38285 0.96112 0.25134 0.0
C2047 C 0.3828 0.97808 0.27761 0.0
H2048 H 0.45782 0.25098 0.13105 0.0
H2049 H 0.51426 0.33143 0.1398 0.0
H2050 H 0.55898 0.30032 0.14408 0.0
H2051 H 0.58223 0.24982 0.14828 0.0
H2052 H 0.52643 0.16942 0.13462 0.0
H2053 H 0.48187 0.20056 0.12901 0.0
C2054 C 0.47996 0.26168 0.1334 0.0
C2055 C 0.48251 0.29367 0.13497 0.0
C2056 C 0.50592 0.24351 0.13507 0.0
C2057 C 0.5115 0.30701 0.13808 0.0
C2058 C 0.53717 0.28915 0.14076 0.0
C2059 C 0.56039 0.23911 0.14361 0.0
C2060 C 0.55794 0.20711 0.14193 0.0
C2061 C 0.53471 0.25733 0.13966 0.0
C2062 C 0.52928 0.19385 0.13579 0.0
C2063 C 0.50363 0.21172 0.13277 0.0
H2064 H 0.99327 0.1908 0.87797 0.0
H2065 H 0.92317 0.25589 0.88559 0.0
H2066 H 0.96081 0.29702 0.89093 0.0
H2067 H 0.01412 0.31595 0.88851 0.0
H2068 H 0.08386 0.25109 0.87718 0.0
H2069 H 0.04676 0.20945 0.87853 0.0
C2070 C 0.9862 0.21385 0.8817 0.0
C2071 C 0.95496 0.21973 0.88197 0.0
C2072 C 1.00831 0.23798 0.88381 0.0
C2073 C 0.94675 0.25023 0.88572 0.0
C2074 C 0.96843 0.27399 0.8886 0.0
C2075 C 0.02134 0.29269 0.88725 0.0
C2076 C 0.05229 0.28706 0.88341 0.0
C2077 C 0.99938 0.2684 0.88707 0.0
C2078 C 0.06057 0.25648 0.88067 0.0
C2079 C 0.03916 0.23245 0.88124 0.0
H2080 H 0.0125 0.80809 0.14684 0.0
H2081 H 0.93735 0.76401 0.10067 0.0
H2082 H 0.96674 0.71843 0.0938 0.0
H2083 H 0.01466 0.69151 0.09875 0.0
H2084 H 0.08909 0.73341 0.148 0.0
H2085 H 0.05928 0.77863 0.15631 0.0
C2086 C 1.00251 0.78832 0.13565 0.0
C2087 C 0.97261 0.78955 0.12431 0.0
C2088 C 0.01949 0.76157 0.13238 0.0
C2089 C 0.96011 0.76368 0.10981 0.0
C2090 C 0.977 0.73757 0.10579 0.0
C2091 C 0.02431 0.71033 0.11169 0.0
C2092 C 0.05432 0.70875 0.12268 0.0
C2093 C 1.00682 0.73626 0.11671 0.0
C2094 C 0.06612 0.73358 0.13943 0.0
C2095 C 0.04908 0.75969 0.14401 0.0
H2096 H 0.57051 0.76721 0.3839 0.0
H2097 H 0.51763 0.84769 0.38671 0.0
H2098 H 0.47144 0.81644 0.38824 0.0
H2099 H 0.44533 0.76578 0.38443 0.0
H2100 H 0.49823 0.68531 0.38719 0.0
H2101 H 0.54459 0.71658 0.38822 0.0
C2102 C 0.54894 0.77795 0.38567 0.0
C2103 C 0.54789 0.81008 0.38545 0.0
C2104 C 0.5222 0.75963 0.38736 0.0
C2105 C 0.51948 0.82328 0.3874 0.0
C2106 C 0.49289 0.80529 0.38798 0.0
C2107 C 0.46699 0.75507 0.38607 0.0
C2108 C 0.46798 0.72295 0.386 0.0
C2109 C 0.49383 0.7734 0.38744 0.0
C2110 C 0.49649 0.70976 0.38777 0.0
C2111 C 0.52315 0.72774 0.38806 0.0
H2112 H 0.01137 0.82007 0.64331 0.0
H2113 H 0.94052 0.75244 0.63175 0.0
H2114 H 0.97757 0.71227 0.6323 0.0
H2115 H 0.03019 0.69563 0.64029 0.0
H2116 H 0.10028 0.76303 0.65733 0.0
H2117 H 0.06411 0.80349 0.65021 0.0
C2118 C 1.00414 0.79659 0.64016 0.0
C2119 C 0.97307 0.78947 0.63685 0.0
C2120 C 0.02568 0.77331 0.64174 0.0
C2121 C 0.96418 0.75872 0.6339 0.0
C2122 C 0.98544 0.73565 0.63436 0.0
C2123 C 0.03763 0.71919 0.64173 0.0
C2124 C 0.06818 0.72619 0.64876 0.0
C2125 C 0.01627 0.74253 0.6388 0.0
C2126 C 0.0771 0.75692 0.65156 0.0
C2127 C 0.05631 0.78013 0.64762 0.0
H2128 H 0.01564 0.3219 0.38633 0.0
H2129 H 0.09187 0.26383 0.38013 0.0
H2130 H 0.05811 0.21922 0.37734 0.0
H2131 H 1.00682 0.19608 0.38135 0.0
H2132 H 0.93031 0.25414 0.38292 0.0
H2133 H 0.96389 0.29892 0.38243 0.0
C2134 C 0.02486 0.29953 0.38365 0.0
C2135 C 0.05651 0.29649 0.38336 0.0
C2136 C 1.00509 0.27375 0.38137 0.0
C2137 C 0.0678 0.26714 0.38002 0.0
C2138 C 0.04841 0.24148 0.37867 0.0
C2139 C 0.99743 0.21852 0.38077 0.0
C2140 C 0.96583 0.22149 0.38195 0.0
C2141 C 0.01701 0.24439 0.37992 0.0
C2142 C 0.95431 0.25092 0.38147 0.0
C2143 C 0.97362 0.27666 0.38152 0.0
H2144 H 0.44685 0.73677 0.87824 0.0
H2145 H 0.51104 0.66674 0.89373 0.0
H2146 H 0.55256 0.70317 0.88788 0.0
H2147 H 0.57126 0.75641 0.88397 0.0
H2148 H 0.50721 0.82724 0.87284 0.0
H2149 H 0.46577 0.78968 0.87092 0.0
C2150 C 0.46991 0.7293 0.87942 0.0
C2151 C 0.47553 0.69863 0.88595 0.0
C2152 C 0.49406 0.75088 0.87701 0.0
C2153 C 0.50579 0.6899 0.88838 0.0
C2154 C 0.5297 0.71088 0.88519 0.0
C2155 C 0.54832 0.76351 0.88004 0.0
C2156 C 0.54264 0.79478 0.87765 0.0
C2157 C 0.52425 0.74164 0.88018 0.0
C2158 C 0.51248 0.80344 0.87398 0.0
C2159 C 0.48863 0.78187 0.87319 0.0
H2160 H 0.66352 0.05746 0.74553 0.0
H2161 H 0.58818 0.02409 0.69157 0.0
H2162 H 0.57977 0.98279 0.72577 0.0
H2163 H 0.5959 0.95381 0.76979 0.0
H2164 H 0.67155 0.98731 0.82278 0.0
H2165 H 0.67769 0.03059 0.79046 0.0
C2166 C 0.64505 0.04138 0.74129 0.0
C2167 C 0.62664 0.04405 0.71576 0.0
C2168 C 0.64039 0.01747 0.76101 0.0
C2169 C 0.60288 0.02273 0.71086 0.0
C2170 C 0.59801 0.99899 0.73046 0.0
C2171 C 0.61322 0.97102 0.77451 0.0
C2172 C 0.63303 0.96765 0.79885 0.0
C2173 C 0.61685 0.99584 0.75547 0.0
C2174 C 0.65586 0.98967 0.80438 0.0
C2175 C 0.65946 0.01436 0.78581 0.0
H2176 H 0.27134 0.37756 0.07552 0.0
H2177 H 0.34423 0.36971 0.01601 0.0
H2178 H 0.30837 0.36255 0.97447 0.0
H2179 H 0.25587 0.36507 0.9541 0.0
H2180 H 0.18358 0.37589 0.01427 0.0
H2181 H 0.21906 0.3751 0.05589 0.0
C2182 C 0.27928 0.37306 0.05361 0.0
C2183 C 0.31044 0.37326 0.04903 0.0
C2184 C 0.25842 0.37008 0.0296 0.0
C2185 C 0.32037 0.3688 0.02025 0.0
C2186 C 0.29982 0.36508 0.9964 0.0
C2187 C 0.24784 0.36643 0.97633 0.0
C2188 C 0.2169 0.37056 0.9808 0.0
C2189 C 0.2687 0.36657 1.0006 0.0
C2190 C 0.20716 0.37282 0.00994 0.0
C2191 C 0.2275 0.3724 0.03393 0.0
H2192 H 0.88007 0.93796 0.25332 0.0
H2193 H 0.89696 0.99429 0.17877 0.0
H2194 H 0.90186 0.03899 0.21126 0.0
H2195 H 0.89732 0.06306 0.26075 0.0
H2196 H 0.88531 1.0064 0.33591 0.0
H2197 H 0.88284 0.96123 0.30371 0.0
C2198 C 0.88548 0.95991 0.24422 0.0
C2199 C 0.88824 0.96246 0.21335 0.0
C2200 C 0.88903 0.98567 0.26331 0.0
C2201 C 0.89513 0.99131 0.20223 0.0
C2202 C 0.89769 0.01704 0.22089 0.0
C2203 C 0.89496 0.04074 0.27018 0.0
C2204 C 0.89184 0.03831 0.30097 0.0
C2205 C 0.89422 0.01465 0.25144 0.0
C2206 C 0.88837 0.00911 0.31256 0.0
C2207 C 0.88666 0.98321 0.29401 0.0
H2208 H 0.2553 0.64561 0.57463 0.0
H2209 H 0.17889 0.63449 0.51466 0.0
H2210 H 0.21173 0.63889 0.47286 0.0
H2211 H 0.26286 0.64186 0.45277 0.0
H2212 H 0.3395 0.64916 0.51271 0.0
H2213 H 0.30626 0.65068 0.55451 0.0
C2214 C 0.24578 0.64465 0.55244 0.0
C2215 C 0.2145 0.63976 0.54803 0.0
C2216 C 0.26502 0.64645 0.52821 0.0
C2217 C 0.20279 0.63814 0.51892 0.0
C2218 C 0.22162 0.64066 0.49487 0.0
C2219 C 0.27221 0.64454 0.47495 0.0
C2220 C 0.30369 0.6458 0.47949 0.0
C2221 C 0.25286 0.64432 0.49914 0.0
C2222 C 0.31538 0.64838 0.50851 0.0
C2223 C 0.29635 0.6491 0.5325 0.0
H2224 H 0.75083 0.63711 0.06526 0.0
H2225 H 0.6715 0.62569 0.00932 0.0
H2226 H 0.70286 0.62406 0.96583 0.0
H2227 H 0.75332 0.62874 0.94355 0.0
H2228 H 0.8322 0.63622 1.00076 0.0
H2229 H 0.80073 0.63664 0.04375 0.0
C2230 C 0.74044 0.63385 0.04356 0.0
C2231 C 0.70892 0.63154 0.04049 0.0
C2232 C 0.75861 0.63245 0.01882 0.0
C2233 C 0.69574 0.62722 0.01226 0.0
C2234 C 0.71368 0.62653 0.98739 0.0
C2235 C 0.76349 0.6301 0.96548 0.0
C2236 C 0.79505 0.63234 0.96898 0.0
C2237 C 0.74517 0.62953 0.99035 0.0
C2238 C 0.808 0.63407 0.9975 0.0
C2239 C 0.79002 0.63447 0.02212 0.0
H2240 H 0.65919 0.51372 0.30837 0.0
H2241 H 0.59855 0.44494 0.27124 0.0
H2242 H 0.59027 0.47533 0.22758 0.0
H2243 H 0.59736 0.52261 0.20118 0.0
H2244 H 0.65864 0.59202 0.23616 0.0
H2245 H 0.67008 0.56026 0.2788 0.0
C2246 C 0.64471 0.50525 0.2904 0.0
C2247 C 0.62955 0.47695 0.29301 0.0
C2248 C 0.64007 0.52306 0.26494 0.0
C2249 C 0.61054 0.46647 0.26971 0.0
C2250 C 0.60573 0.48392 0.24473 0.0
C2251 C 0.61348 0.53082 0.21795 0.0
C2252 C 0.6269 0.55993 0.21541 0.0
C2253 C 0.61992 0.51244 0.2423 0.0
C2254 C 0.64796 0.56979 0.23736 0.0
C2255 C 0.65438 0.55163 0.2619 0.0
H2256 H 0.76092 0.4036 0.5603 0.0
H2257 H 0.83862 0.39809 0.50619 0.0
H2258 H 0.80592 0.39654 0.46195 0.0
H2259 H 0.75482 0.39222 0.43867 0.0
H2260 H 0.67721 0.4011 0.49251 0.0
H2261 H 0.71008 0.40631 0.53645 0.0
C2262 C 0.77075 0.4027 0.53879 0.0
C2263 C 0.80238 0.40103 0.53674 0.0
C2264 C 0.7517 0.40229 0.51326 0.0
C2265 C 0.81455 0.39981 0.50858 0.0
C2266 C 0.79576 0.39867 0.48321 0.0
C2267 C 0.74507 0.39596 0.45994 0.0
C2268 C 0.71335 0.39627 0.46205 0.0
C2269 C 0.76425 0.39931 0.48525 0.0
C2270 C 0.70136 0.4011 0.48995 0.0
C2271 C 0.72023 0.40381 0.51522 0.0
H2272 H 0.92976 0.50113 0.71215 0.0
H2273 H 0.84909 0.44998 0.73114 0.0
H2274 H 0.84141 0.48321 0.77413 0.0
H2275 H 0.85976 0.52605 0.80863 0.0
H2276 H 0.94198 0.57383 0.78822 0.0
H2277 H 0.94644 0.54333 0.74382 0.0
C2278 C 0.91022 0.49709 0.72536 0.0
C2279 C 0.89008 0.47264 0.71789 0.0
C2280 C 0.90611 0.51614 0.75015 0.0
C2281 C 0.86504 0.46843 0.73586 0.0
C2282 C 0.86069 0.48752 0.76066 0.0
C2283 C 0.87825 0.53015 0.79411 0.0
C2284 C 0.90023 0.55309 0.80176 0.0
C2285 C 0.88128 0.51143 0.76836 0.0
C2286 C 0.92441 0.55715 0.78283 0.0
C2287 C 0.92716 0.53938 0.75742 0.0
H2288 H 0.45068 0.2572 0.63314 0.0
H2289 H 0.5152 0.33123 0.62891 0.0
H2290 H 0.5564 0.29566 0.62845 0.0
H2291 H 0.57465 0.24295 0.62471 0.0
H2292 H 0.51009 0.16878 0.62477 0.0
H2293 H 0.46928 0.20424 0.63168 0.0
C2294 C 0.47378 0.26557 0.63284 0.0
C2295 C 0.47951 0.29721 0.63146 0.0
C2296 C 0.49777 0.24464 0.63163 0.0
C2297 C 0.50981 0.30723 0.63023 0.0
C2298 C 0.53357 0.28678 0.62985 0.0
C2299 C 0.55178 0.2345 0.62708 0.0
C2300 C 0.54581 0.20292 0.62481 0.0
C2301 C 0.52795 0.25533 0.62998 0.0
C2302 C 0.51565 0.19276 0.62686 0.0
C2303 C 0.49212 0.21316 0.63063 0.0
loop_
_geom_bond_atom_site_label_1
_geom_bond_atom_site_label_2
_geom_bond_distance
_geom_bond_site_symmetry_2
_ccdc_geom_bond_type
Co0 H3 2.400 . S
Co0 O4 2.009 . S
Co0 O12 2.115 . S
Co0 O13 2.315 . S
Co0 O24 2.053 . S
Co0 O27 2.094 . S
Co0 O30 2.122 . S
Co1 O4 2.126 . S
Co1 H5 2.388 . S
Co1 O6 2.053 . S
Co1 O9 2.047 . S
Co1 O15 2.113 . S
Co1 O26 2.063 . S
Co2 H3 2.388 . S
Co2 O4 2.053 . S
Co2 O6 2.126 . S
Co2 O11 2.063 . S
Co2 O25 2.047 . S
Co2 O31 2.113 . S
H3 Co0 2.400 . S
H3 Co2 2.388 . S
H3 O4 0.760 . S
O4 Co0 2.009 . S
O4 Co1 2.126 . S
O4 Co2 2.053 . S
O4 H3 0.760 . S
H5 Co1 2.388 . S
H5 O6 0.760 . S
H5 Co7 2.400 . S
O6 Co1 2.053 . S
O6 Co2 2.126 . S
O6 H5 0.760 . S
O6 Co7 2.009 . S
Co7 H5 2.400 . S
Co7 O6 2.009 . S
Co7 O8 2.053 . S
Co7 O10 2.094 . S
Co7 O14 2.122 . S
Co7 O28 2.115 . S
Co7 O29 2.315 . S
O8 Co7 2.053 . S
O8 C20 1.259 . S
O9 Co1 2.047 . S
O9 C20 1.257 . S
O10 Co7 2.094 . S
O10 C21 1.253 . S
O11 Co2 2.063 . S
O11 C21 1.268 . S
O12 Co0 2.115 . S
O12 C22 1.281 . S
O13 Co0 2.315 . S
O13 C22 1.252 . S
O14 Co7 2.122 . S
O14 C23 1.272 . S
O15 Co1 2.113 . S
O15 C23 1.245 . S
C16 O24 1.259 . S
C16 O25 1.257 . S
C17 O26 1.268 . S
C17 O27 1.253 . S
C18 O28 1.281 . S
C18 O29 1.252 . S
C19 O30 1.272 . S
C19 O31 1.245 . S
C20 O8 1.259 . S
C20 O9 1.257 . S
C21 O10 1.253 . S
C21 O11 1.268 . S
C22 O12 1.281 . S
C22 O13 1.252 . S
C23 O14 1.272 . S
C23 O15 1.245 . S
O24 Co0 2.053 . S
O24 C16 1.259 . S
O25 Co2 2.047 . S
O25 C16 1.257 . S
O26 Co1 2.063 . S
O26 C17 1.268 . S
O27 Co0 2.094 . S
O27 C17 1.253 . S
O28 Co7 2.115 . S
O28 C18 1.281 . S
O29 Co7 2.315 . S
O29 C18 1.252 . S
O30 Co0 2.122 . S
O30 C19 1.272 . S
O31 Co2 2.113 . S
O31 C19 1.245 . S
Co32 H35 2.400 . S
Co32 O36 2.009 . S
Co32 O44 2.115 . S
Co32 O45 2.315 . S
Co32 O56 2.053 . S
Co32 O59 2.094 . S
Co32 O62 2.122 . S
Co33 O36 2.126 . S
Co33 H37 2.388 . S
Co33 O38 2.053 . S
Co33 O41 2.047 . S
Co33 O47 2.113 . S
Co33 O58 2.063 . S
Co34 H35 2.388 . S
Co34 O36 2.053 . S
Co34 O38 2.126 . S
Co34 O43 2.063 . S
Co34 O57 2.047 . S
Co34 O63 2.113 . S
H35 Co32 2.400 . S
H35 Co34 2.388 . S
H35 O36 0.760 . S
O36 Co32 2.009 . S
O36 Co33 2.126 . S
O36 Co34 2.053 . S
O36 H35 0.760 . S
H37 Co33 2.388 . S
H37 O38 0.760 . S
H37 Co39 2.400 . S
O38 Co33 2.053 . S
O38 Co34 2.126 . S
O38 H37 0.760 . S
O38 Co39 2.009 . S
Co39 H37 2.400 . S
Co39 O38 2.009 . S
Co39 O40 2.053 . S
Co39 O42 2.094 . S
Co39 O46 2.122 . S
Co39 O60 2.115 . S
Co39 O61 2.315 . S
O40 Co39 2.053 . S
O40 C52 1.259 . S
O41 Co33 2.047 . S
O41 C52 1.257 . S
O42 Co39 2.094 . S
O42 C53 1.253 . S
O43 Co34 2.063 . S
O43 C53 1.268 . S
O44 Co32 2.115 . S
O44 C54 1.281 . S
O45 Co32 2.315 . S
O45 C54 1.252 . S
O46 Co39 2.122 . S
O46 C55 1.272 . S
O47 Co33 2.113 . S
O47 C55 1.245 . S
C48 O56 1.259 . S
C48 O57 1.257 . S
C49 O58 1.268 . S
C49 O59 1.253 . S
C50 O60 1.281 . S
C50 O61 1.252 . S
C51 O62 1.272 . S
C51 O63 1.245 . S
C52 O40 1.259 . S
C52 O41 1.257 . S
C53 O42 1.253 . S
C53 O43 1.268 . S
C54 O44 1.281 . S
C54 O45 1.252 . S
C55 O46 1.272 . S
C55 O47 1.245 . S
O56 Co32 2.053 . S
O56 C48 1.259 . S
O57 Co34 2.047 . S
O57 C48 1.257 . S
O58 Co33 2.063 . S
O58 C49 1.268 . S
O59 Co32 2.094 . S
O59 C49 1.253 . S
O60 Co39 2.115 . S
O60 C50 1.281 . S
O61 Co39 2.315 . S
O61 C50 1.252 . S
O62 Co32 2.122 . S
O62 C51 1.272 . S
O63 Co34 2.113 . S
O63 C51 1.245 . S
Co64 H67 2.400 . S
Co64 O68 2.009 . S
Co64 O76 2.115 . S
Co64 O77 2.315 . S
Co64 O88 2.053 . S
Co64 O91 2.094 . S
Co64 O94 2.122 . S
Co65 O68 2.126 . S
Co65 H69 2.388 . S
Co65 O70 2.053 . S
Co65 O73 2.047 . S
Co65 O79 2.113 . S
Co65 O90 2.063 . S
Co66 H67 2.388 . S
Co66 O68 2.053 . S
Co66 O70 2.126 . S
Co66 O75 2.063 . S
Co66 O89 2.047 . S
Co66 O95 2.113 . S
H67 Co64 2.400 . S
H67 Co66 2.388 . S
H67 O68 0.760 . S
O68 Co64 2.009 . S
O68 Co65 2.126 . S
O68 Co66 2.053 . S
O68 H67 0.760 . S
H69 Co65 2.388 . S
H69 O70 0.760 . S
H69 Co71 2.400 . S
O70 Co65 2.053 . S
O70 Co66 2.126 . S
O70 H69 0.760 . S
O70 Co71 2.009 . S
Co71 H69 2.400 . S
Co71 O70 2.009 . S
Co71 O72 2.053 . S
Co71 O74 2.094 . S
Co71 O78 2.122 . S
Co71 O92 2.115 . S
Co71 O93 2.315 . S
O72 Co71 2.053 . S
O72 C84 1.259 . S
O73 Co65 2.047 . S
O73 C84 1.257 . S
O74 Co71 2.094 . S
O74 C85 1.253 . S
O75 Co66 2.063 . S
O75 C85 1.268 . S
O76 Co64 2.115 . S
O76 C86 1.281 . S
O77 Co64 2.315 . S
O77 C86 1.252 . S
O78 Co71 2.122 . S
O78 C87 1.272 . S
O79 Co65 2.113 . S
O79 C87 1.245 . S
C80 O88 1.259 . S
C80 O89 1.257 . S
C81 O90 1.268 . S
C81 O91 1.253 . S
C82 O92 1.281 . S
C82 O93 1.252 . S
C83 O94 1.272 . S
C83 O95 1.245 . S
C84 O72 1.259 . S
C84 O73 1.257 . S
C85 O74 1.253 . S
C85 O75 1.268 . S
C86 O76 1.281 . S
C86 O77 1.252 . S
C87 O78 1.272 . S
C87 O79 1.245 . S
O88 Co64 2.053 . S
O88 C80 1.259 . S
O89 Co66 2.047 . S
O89 C80 1.257 . S
O90 Co65 2.063 . S
O90 C81 1.268 . S
O91 Co64 2.094 . S
O91 C81 1.253 . S
O92 Co71 2.115 . S
O92 C82 1.281 . S
O93 Co71 2.315 . S
O93 C82 1.252 . S
O94 Co64 2.122 . S
O94 C83 1.272 . S
O95 Co66 2.113 . S
O95 C83 1.245 . S
Co96 H99 2.400 . S
Co96 O100 2.009 . S
Co96 O108 2.115 . S
Co96 O109 2.315 . S
Co96 O120 2.053 . S
Co96 O123 2.094 . S
Co96 O126 2.122 . S
Co97 O100 2.126 . S
Co97 H101 2.388 . S
Co97 O102 2.053 . S
Co97 O105 2.047 . S
Co97 O111 2.113 . S
Co97 O122 2.063 . S
Co98 H99 2.388 . S
Co98 O100 2.053 . S
Co98 O102 2.126 . S
Co98 O107 2.063 . S
Co98 O121 2.047 . S
Co98 O127 2.113 . S
H99 Co96 2.400 . S
H99 Co98 2.388 . S
H99 O100 0.760 . S
O100 Co96 2.009 . S
O100 Co97 2.126 . S
O100 Co98 2.053 . S
O100 H99 0.760 . S
H101 Co97 2.388 . S
H101 O102 0.760 . S
H101 Co103 2.400 . S
O102 Co97 2.053 . S
O102 Co98 2.126 . S
O102 H101 0.760 . S
O102 Co103 2.009 . S
Co103 H101 2.400 . S
Co103 O102 2.009 . S
Co103 O104 2.053 . S
Co103 O106 2.094 . S
Co103 O110 2.122 . S
Co103 O124 2.115 . S
Co103 O125 2.315 . S
O104 Co103 2.053 . S
O104 C116 1.259 . S
O105 Co97 2.047 . S
O105 C116 1.257 . S
O106 Co103 2.094 . S
O106 C117 1.253 . S
O107 Co98 2.063 . S
O107 C117 1.268 . S
O108 Co96 2.115 . S
O108 C118 1.281 . S
O109 Co96 2.315 . S
O109 C118 1.252 . S
O110 Co103 2.122 . S
O110 C119 1.272 . S
O111 Co97 2.113 . S
O111 C119 1.245 . S
C112 O120 1.259 . S
C112 O121 1.257 . S
C113 O122 1.268 . S
C113 O123 1.253 . S
C114 O124 1.281 . S
C114 O125 1.252 . S
C115 O126 1.272 . S
C115 O127 1.245 . S
C116 O104 1.259 . S
C116 O105 1.257 . S
C117 O106 1.253 . S
C117 O107 1.268 . S
C118 O108 1.281 . S
C118 O109 1.252 . S
C119 O110 1.272 . S
C119 O111 1.245 . S
O120 Co96 2.053 . S
O120 C112 1.259 . S
O121 Co98 2.047 . S
O121 C112 1.257 . S
O122 Co97 2.063 . S
O122 C113 1.268 . S
O123 Co96 2.094 . S
O123 C113 1.253 . S
O124 Co103 2.115 . S
O124 C114 1.281 . S
O125 Co103 2.315 . S
O125 C114 1.252 . S
O126 Co96 2.122 . S
O126 C115 1.272 . S
O127 Co98 2.113 . S
O127 C115 1.245 . S
Co128 H131 2.400 . S
Co128 O132 2.009 . S
Co128 O140 2.115 . S
Co128 O141 2.315 . S
Co128 O152 2.053 . S
Co128 O155 2.094 . S
Co128 O158 2.122 . S
Co129 O132 2.126 . S
Co129 H133 2.388 . S
Co129 O134 2.053 . S
Co129 O137 2.047 . S
Co129 O143 2.113 . S
Co129 O154 2.063 . S
Co130 H131 2.388 . S
Co130 O132 2.053 . S
Co130 O134 2.126 . S
Co130 O139 2.063 . S
Co130 O153 2.047 . S
Co130 O159 2.113 . S
H131 Co128 2.400 . S
H131 Co130 2.388 . S
H131 O132 0.760 . S
O132 Co128 2.009 . S
O132 Co129 2.126 . S
O132 Co130 2.053 . S
O132 H131 0.760 . S
H133 Co129 2.388 . S
H133 O134 0.760 . S
H133 Co135 2.400 . S
O134 Co129 2.053 . S
O134 Co130 2.126 . S
O134 H133 0.760 . S
O134 Co135 2.009 . S
Co135 H133 2.400 . S
Co135 O134 2.009 . S
Co135 O136 2.053 . S
Co135 O138 2.094 . S
Co135 O142 2.122 . S
Co135 O156 2.115 . S
Co135 O157 2.315 . S
O136 Co135 2.053 . S
O136 C148 1.259 . S
O137 Co129 2.047 . S
O137 C148 1.257 . S
O138 Co135 2.094 . S
O138 C149 1.253 . S
O139 Co130 2.063 . S
O139 C149 1.268 . S
O140 Co128 2.115 . S
O140 C150 1.281 . S
O141 Co128 2.315 . S
O141 C150 1.252 . S
O142 Co135 2.122 . S
O142 C151 1.272 . S
O143 Co129 2.113 . S
O143 C151 1.245 . S
C144 O152 1.259 . S
C144 O153 1.257 . S
C145 O154 1.268 . S
C145 O155 1.253 . S
C146 O156 1.281 . S
C146 O157 1.252 . S
C147 O158 1.272 . S
C147 O159 1.245 . S
C148 O136 1.259 . S
C148 O137 1.257 . S
C149 O138 1.253 . S
C149 O139 1.268 . S
C150 O140 1.281 . S
C150 O141 1.252 . S
C151 O142 1.272 . S
C151 O143 1.245 . S
O152 Co128 2.053 . S
O152 C144 1.259 . S
O153 Co130 2.047 . S
O153 C144 1.257 . S
O154 Co129 2.063 . S
O154 C145 1.268 . S
O155 Co128 2.094 . S
O155 C145 1.253 . S
O156 Co135 2.115 . S
O156 C146 1.281 . S
O157 Co135 2.315 . S
O157 C146 1.252 . S
O158 Co128 2.122 . S
O158 C147 1.272 . S
O159 Co130 2.113 . S
O159 C147 1.245 . S
Co160 H163 2.400 . S
Co160 O164 2.009 . S
Co160 O172 2.115 . S
Co160 O173 2.315 . S
Co160 O184 2.053 . S
Co160 O187 2.094 . S
Co160 O190 2.122 . S
Co161 O164 2.126 . S
Co161 H165 2.388 . S
Co161 O166 2.053 . S
Co161 O169 2.047 . S
Co161 O175 2.113 . S
Co161 O186 2.063 . S
Co162 H163 2.388 . S
Co162 O164 2.053 . S
Co162 O166 2.126 . S
Co162 O171 2.063 . S
Co162 O185 2.047 . S
Co162 O191 2.113 . S
H163 Co160 2.400 . S
H163 Co162 2.388 . S
H163 O164 0.760 . S
O164 Co160 2.009 . S
O164 Co161 2.126 . S
O164 Co162 2.053 . S
O164 H163 0.760 . S
H165 Co161 2.388 . S
H165 O166 0.760 . S
H165 Co167 2.400 . S
O166 Co161 2.053 . S
O166 Co162 2.126 . S
O166 H165 0.760 . S
O166 Co167 2.009 . S
Co167 H165 2.400 . S
Co167 O166 2.009 . S
Co167 O168 2.053 . S
Co167 O170 2.094 . S
Co167 O174 2.122 . S
Co167 O188 2.115 . S
Co167 O189 2.315 . S
O168 Co167 2.053 . S
O168 C180 1.259 . S
O169 Co161 2.047 . S
O169 C180 1.257 . S
O170 Co167 2.094 . S
O170 C181 1.253 . S
O171 Co162 2.063 . S
O171 C181 1.268 . S
O172 Co160 2.115 . S
O172 C182 1.281 . S
O173 Co160 2.315 . S
O173 C182 1.252 . S
O174 Co167 2.122 . S
O174 C183 1.272 . S
O175 Co161 2.113 . S
O175 C183 1.245 . S
C176 O184 1.259 . S
C176 O185 1.257 . S
C177 O186 1.268 . S
C177 O187 1.253 . S
C178 O188 1.281 . S
C178 O189 1.252 . S
C179 O190 1.272 . S
C179 O191 1.245 . S
C180 O168 1.259 . S
C180 O169 1.257 . S
C181 O170 1.253 . S
C181 O171 1.268 . S
C182 O172 1.281 . S
C182 O173 1.252 . S
C183 O174 1.272 . S
C183 O175 1.245 . S
O184 Co160 2.053 . S
O184 C176 1.259 . S
O185 Co162 2.047 . S
O185 C176 1.257 . S
O186 Co161 2.063 . S
O186 C177 1.268 . S
O187 Co160 2.094 . S
O187 C177 1.253 . S
O188 Co167 2.115 . S
O188 C178 1.281 . S
O189 Co167 2.315 . S
O189 C178 1.252 . S
O190 Co160 2.122 . S
O190 C179 1.272 . S
O191 Co162 2.113 . S
O191 C179 1.245 . S
Co192 H195 2.400 . S
Co192 O196 2.009 . S
Co192 O204 2.115 . S
Co192 O205 2.315 . S
Co192 O216 2.053 . S
Co192 O219 2.094 . S
Co192 O222 2.122 . S
Co193 O196 2.126 . S
Co193 H197 2.388 . S
Co193 O198 2.053 . S
Co193 O201 2.047 . S
Co193 O207 2.113 . S
Co193 O218 2.063 . S
Co194 H195 2.388 . S
Co194 O196 2.053 . S
Co194 O198 2.126 . S
Co194 O203 2.063 . S
Co194 O217 2.047 . S
Co194 O223 2.113 . S
H195 Co192 2.400 . S
H195 Co194 2.388 . S
H195 O196 0.760 . S
O196 Co192 2.009 . S
O196 Co193 2.126 . S
O196 Co194 2.053 . S
O196 H195 0.760 . S
H197 Co193 2.388 . S
H197 O198 0.760 . S
H197 Co199 2.400 . S
O198 Co193 2.053 . S
O198 Co194 2.126 . S
O198 H197 0.760 . S
O198 Co199 2.009 . S
Co199 H197 2.400 . S
Co199 O198 2.009 . S
Co199 O200 2.053 . S
Co199 O202 2.094 . S
Co199 O206 2.122 . S
Co199 O220 2.115 . S
Co199 O221 2.315 . S
O200 Co199 2.053 . S
O200 C212 1.259 . S
O201 Co193 2.047 . S
O201 C212 1.257 . S
O202 Co199 2.094 . S
O202 C213 1.253 . S
O203 Co194 2.063 . S
O203 C213 1.268 . S
O204 Co192 2.115 . S
O204 C214 1.281 . S
O205 Co192 2.315 . S
O205 C214 1.252 . S
O206 Co199 2.122 . S
O206 C215 1.272 . S
O207 Co193 2.113 . S
O207 C215 1.245 . S
C208 O216 1.259 . S
C208 O217 1.257 . S
C209 O218 1.268 . S
C209 O219 1.253 . S
C210 O220 1.281 . S
C210 O221 1.252 . S
C211 O222 1.272 . S
C211 O223 1.245 . S
C212 O200 1.259 . S
C212 O201 1.257 . S
C213 O202 1.253 . S
C213 O203 1.268 . S
C214 O204 1.281 . S
C214 O205 1.252 . S
C215 O206 1.272 . S
C215 O207 1.245 . S
O216 Co192 2.053 . S
O216 C208 1.259 . S
O217 Co194 2.047 . S
O217 C208 1.257 . S
O218 Co193 2.063 . S
O218 C209 1.268 . S
O219 Co192 2.094 . S
O219 C209 1.253 . S
O220 Co199 2.115 . S
O220 C210 1.281 . S
O221 Co199 2.315 . S
O221 C210 1.252 . S
O222 Co192 2.122 . S
O222 C211 1.272 . S
O223 Co194 2.113 . S
O223 C211 1.245 . S
Co224 H227 2.400 . S
Co224 O228 2.009 . S
Co224 O236 2.115 . S
Co224 O237 2.315 . S
Co224 O248 2.053 . S
Co224 O251 2.094 . S
Co224 O254 2.122 . S
Co225 O228 2.126 . S
Co225 H229 2.388 . S
Co225 O230 2.053 . S
Co225 O233 2.047 . S
Co225 O239 2.113 . S
Co225 O250 2.063 . S
Co226 H227 2.388 . S
Co226 O228 2.053 . S
Co226 O230 2.126 . S
Co226 O235 2.063 . S
Co226 O249 2.047 . S
Co226 O255 2.113 . S
H227 Co224 2.400 . S
H227 Co226 2.388 . S
H227 O228 0.760 . S
O228 Co224 2.009 . S
O228 Co225 2.126 . S
O228 Co226 2.053 . S
O228 H227 0.760 . S
H229 Co225 2.388 . S
H229 O230 0.760 . S
H229 Co231 2.400 . S
O230 Co225 2.053 . S
O230 Co226 2.126 . S
O230 H229 0.760 . S
O230 Co231 2.009 . S
Co231 H229 2.400 . S
Co231 O230 2.009 . S
Co231 O232 2.053 . S
Co231 O234 2.094 . S
Co231 O238 2.122 . S
Co231 O252 2.115 . S
Co231 O253 2.315 . S
O232 Co231 2.053 . S
O232 C244 1.259 . S
O233 Co225 2.047 . S
O233 C244 1.257 . S
O234 Co231 2.094 . S
O234 C245 1.253 . S
O235 Co226 2.063 . S
O235 C245 1.268 . S
O236 Co224 2.115 . S
O236 C246 1.281 . S
O237 Co224 2.315 . S
O237 C246 1.252 . S
O238 Co231 2.122 . S
O238 C247 1.272 . S
O239 Co225 2.113 . S
O239 C247 1.245 . S
C240 O248 1.259 . S
C240 O249 1.257 . S
C241 O250 1.268 . S
C241 O251 1.253 . S
C242 O252 1.281 . S
C242 O253 1.252 . S
C243 O254 1.272 . S
C243 O255 1.245 . S
C244 O232 1.259 . S
C244 O233 1.257 . S
C245 O234 1.253 . S
C245 O235 1.268 . S
C246 O236 1.281 . S
C246 O237 1.252 . S
C247 O238 1.272 . S
C247 O239 1.245 . S
O248 Co224 2.053 . S
O248 C240 1.259 . S
O249 Co226 2.047 . S
O249 C240 1.257 . S
O250 Co225 2.063 . S
O250 C241 1.268 . S
O251 Co224 2.094 . S
O251 C241 1.253 . S
O252 Co231 2.115 . S
O252 C242 1.281 . S
O253 Co231 2.315 . S
O253 C242 1.252 . S
O254 Co224 2.122 . S
O254 C243 1.272 . S
O255 Co226 2.113 . S
O255 C243 1.245 . S
Co256 H259 2.400 . S
Co256 O260 2.009 . S
Co256 O268 2.115 . S
Co256 O269 2.315 . S
Co256 O280 2.053 . S
Co256 O283 2.094 . S
Co256 O286 2.122 . S
Co257 O260 2.126 . S
Co257 H261 2.388 . S
Co257 O262 2.053 . S
Co257 O265 2.047 . S
Co257 O271 2.113 . S
Co257 O282 2.063 . S
Co258 H259 2.388 . S
Co258 O260 2.053 . S
Co258 O262 2.126 . S
Co258 O267 2.063 . S
Co258 O281 2.047 . S
Co258 O287 2.113 . S
H259 Co256 2.400 . S
H259 Co258 2.388 . S
H259 O260 0.760 . S
O260 Co256 2.009 . S
O260 Co257 2.126 . S
O260 Co258 2.053 . S
O260 H259 0.760 . S
H261 Co257 2.388 . S
H261 O262 0.760 . S
H261 Co263 2.400 . S
O262 Co257 2.053 . S
O262 Co258 2.126 . S
O262 H261 0.760 . S
O262 Co263 2.009 . S
Co263 H261 2.400 . S
Co263 O262 2.009 . S
Co263 O264 2.053 . S
Co263 O266 2.094 . S
Co263 O270 2.122 . S
Co263 O284 2.115 . S
Co263 O285 2.315 . S
O264 Co263 2.053 . S
O264 C276 1.259 . S
O265 Co257 2.047 . S
O265 C276 1.257 . S
O266 Co263 2.094 . S
O266 C277 1.253 . S
O267 Co258 2.063 . S
O267 C277 1.268 . S
O268 Co256 2.115 . S
O268 C278 1.281 . S
O269 Co256 2.315 . S
O269 C278 1.252 . S
O270 Co263 2.122 . S
O270 C279 1.272 . S
O271 Co257 2.113 . S
O271 C279 1.245 . S
C272 O280 1.259 . S
C272 O281 1.257 . S
C273 O282 1.268 . S
C273 O283 1.253 . S
C274 O284 1.281 . S
C274 O285 1.252 . S
C275 O286 1.272 . S
C275 O287 1.245 . S
C276 O264 1.259 . S
C276 O265 1.257 . S
C277 O266 1.253 . S
C277 O267 1.268 . S
C278 O268 1.281 . S
C278 O269 1.252 . S
C279 O270 1.272 . S
C279 O271 1.245 . S
O280 Co256 2.053 . S
O280 C272 1.259 . S
O281 Co258 2.047 . S
O281 C272 1.257 . S
O282 Co257 2.063 . S
O282 C273 1.268 . S
O283 Co256 2.094 . S
O283 C273 1.253 . S
O284 Co263 2.115 . S
O284 C274 1.281 . S
O285 Co263 2.315 . S
O285 C274 1.252 . S
O286 Co256 2.122 . S
O286 C275 1.272 . S
O287 Co258 2.113 . S
O287 C275 1.245 . S
Co288 H291 2.400 . S
Co288 O292 2.009 . S
Co288 O300 2.115 . S
Co288 O301 2.315 . S
Co288 O312 2.053 . S
Co288 O315 2.094 . S
Co288 O318 2.122 . S
Co289 O292 2.126 . S
Co289 H293 2.388 . S
Co289 O294 2.053 . S
Co289 O297 2.047 . S
Co289 O303 2.113 . S
Co289 O314 2.063 . S
Co290 H291 2.388 . S
Co290 O292 2.053 . S
Co290 O294 2.126 . S
Co290 O299 2.063 . S
Co290 O313 2.047 . S
Co290 O319 2.113 . S
H291 Co288 2.400 . S
H291 Co290 2.388 . S
H291 O292 0.760 . S
O292 Co288 2.009 . S
O292 Co289 2.126 . S
O292 Co290 2.053 . S
O292 H291 0.760 . S
H293 Co289 2.388 . S
H293 O294 0.760 . S
H293 Co295 2.400 . S
O294 Co289 2.053 . S
O294 Co290 2.126 . S
O294 H293 0.760 . S
O294 Co295 2.009 . S
Co295 H293 2.400 . S
Co295 O294 2.009 . S
Co295 O296 2.053 . S
Co295 O298 2.094 . S
Co295 O302 2.122 . S
Co295 O316 2.115 . S
Co295 O317 2.315 . S
O296 Co295 2.053 . S
O296 C308 1.259 . S
O297 Co289 2.047 . S
O297 C308 1.257 . S
O298 Co295 2.094 . S
O298 C309 1.253 . S
O299 Co290 2.063 . S
O299 C309 1.268 . S
O300 Co288 2.115 . S
O300 C310 1.281 . S
O301 Co288 2.315 . S
O301 C310 1.252 . S
O302 Co295 2.122 . S
O302 C311 1.272 . S
O303 Co289 2.113 . S
O303 C311 1.245 . S
C304 O312 1.259 . S
C304 O313 1.257 . S
C305 O314 1.268 . S
C305 O315 1.253 . S
C306 O316 1.281 . S
C306 O317 1.252 . S
C307 O318 1.272 . S
C307 O319 1.245 . S
C308 O296 1.259 . S
C308 O297 1.257 . S
C309 O298 1.253 . S
C309 O299 1.268 . S
C310 O300 1.281 . S
C310 O301 1.252 . S
C311 O302 1.272 . S
C311 O303 1.245 . S
O312 Co288 2.053 . S
O312 C304 1.259 . S
O313 Co290 2.047 . S
O313 C304 1.257 . S
O314 Co289 2.063 . S
O314 C305 1.268 . S
O315 Co288 2.094 . S
O315 C305 1.253 . S
O316 Co295 2.115 . S
O316 C306 1.281 . S
O317 Co295 2.315 . S
O317 C306 1.252 . S
O318 Co288 2.122 . S
O318 C307 1.272 . S
O319 Co290 2.113 . S
O319 C307 1.245 . S
Co320 H323 2.400 . S
Co320 O324 2.009 . S
Co320 O332 2.115 . S
Co320 O333 2.315 . S
Co320 O344 2.053 . S
Co320 O347 2.094 . S
Co320 O350 2.122 . S
Co321 O324 2.126 . S
Co321 H325 2.388 . S
Co321 O326 2.053 . S
Co321 O329 2.047 . S
Co321 O335 2.113 . S
Co321 O346 2.063 . S
Co322 H323 2.388 . S
Co322 O324 2.053 . S
Co322 O326 2.126 . S
Co322 O331 2.063 . S
Co322 O345 2.047 . S
Co322 O351 2.113 . S
H323 Co320 2.400 . S
H323 Co322 2.388 . S
H323 O324 0.760 . S
O324 Co320 2.009 . S
O324 Co321 2.126 . S
O324 Co322 2.053 . S
O324 H323 0.760 . S
H325 Co321 2.388 . S
H325 O326 0.760 . S
H325 Co327 2.400 . S
O326 Co321 2.053 . S
O326 Co322 2.126 . S
O326 H325 0.760 . S
O326 Co327 2.009 . S
Co327 H325 2.400 . S
Co327 O326 2.009 . S
Co327 O328 2.053 . S
Co327 O330 2.094 . S
Co327 O334 2.122 . S
Co327 O348 2.115 . S
Co327 O349 2.315 . S
O328 Co327 2.053 . S
O328 C340 1.259 . S
O329 Co321 2.047 . S
O329 C340 1.257 . S
O330 Co327 2.094 . S
O330 C341 1.253 . S
O331 Co322 2.063 . S
O331 C341 1.268 . S
O332 Co320 2.115 . S
O332 C342 1.281 . S
O333 Co320 2.315 . S
O333 C342 1.252 . S
O334 Co327 2.122 . S
O334 C343 1.272 . S
O335 Co321 2.113 . S
O335 C343 1.245 . S
C336 O344 1.259 . S
C336 O345 1.257 . S
C337 O346 1.268 . S
C337 O347 1.253 . S
C338 O348 1.281 . S
C338 O349 1.252 . S
C339 O350 1.272 . S
C339 O351 1.245 . S
C340 O328 1.259 . S
C340 O329 1.257 . S
C341 O330 1.253 . S
C341 O331 1.268 . S
C342 O332 1.281 . S
C342 O333 1.252 . S
C343 O334 1.272 . S
C343 O335 1.245 . S
O344 Co320 2.053 . S
O344 C336 1.259 . S
O345 Co322 2.047 . S
O345 C336 1.257 . S
O346 Co321 2.063 . S
O346 C337 1.268 . S
O347 Co320 2.094 . S
O347 C337 1.253 . S
O348 Co327 2.115 . S
O348 C338 1.281 . S
O349 Co327 2.315 . S
O349 C338 1.252 . S
O350 Co320 2.122 . S
O350 C339 1.272 . S
O351 Co322 2.113 . S
O351 C339 1.245 . S
Co352 H355 2.400 . S
Co352 O356 2.009 . S
Co352 O364 2.115 . S
Co352 O365 2.315 . S
Co352 O376 2.053 . S
Co352 O379 2.094 . S
Co352 O382 2.122 . S
Co353 O356 2.126 . S
Co353 H357 2.388 . S
Co353 O358 2.053 . S
Co353 O361 2.047 . S
Co353 O367 2.113 . S
Co353 O378 2.063 . S
Co354 H355 2.388 . S
Co354 O356 2.053 . S
Co354 O358 2.126 . S
Co354 O363 2.063 . S
Co354 O377 2.047 . S
Co354 O383 2.113 . S
H355 Co352 2.400 . S
H355 Co354 2.388 . S
H355 O356 0.760 . S
O356 Co352 2.009 . S
O356 Co353 2.126 . S
O356 Co354 2.053 . S
O356 H355 0.760 . S
H357 Co353 2.388 . S
H357 O358 0.760 . S
H357 Co359 2.400 . S
O358 Co353 2.053 . S
O358 Co354 2.126 . S
O358 H357 0.760 . S
O358 Co359 2.009 . S
Co359 H357 2.400 . S
Co359 O358 2.009 . S
Co359 O360 2.053 . S
Co359 O362 2.094 . S
Co359 O366 2.122 . S
Co359 O380 2.115 . S
Co359 O381 2.315 . S
O360 Co359 2.053 . S
O360 C372 1.259 . S
O361 Co353 2.047 . S
O361 C372 1.257 . S
O362 Co359 2.094 . S
O362 C373 1.253 . S
O363 Co354 2.063 . S
O363 C373 1.268 . S
O364 Co352 2.115 . S
O364 C374 1.281 . S
O365 Co352 2.315 . S
O365 C374 1.252 . S
O366 Co359 2.122 . S
O366 C375 1.272 . S
O367 Co353 2.113 . S
O367 C375 1.245 . S
C368 O376 1.259 . S
C368 O377 1.257 . S
C369 O378 1.268 . S
C369 O379 1.253 . S
C370 O380 1.281 . S
C370 O381 1.252 . S
C371 O382 1.272 . S
C371 O383 1.245 . S
C372 O360 1.259 . S
C372 O361 1.257 . S
C373 O362 1.253 . S
C373 O363 1.268 . S
C374 O364 1.281 . S
C374 O365 1.252 . S
C375 O366 1.272 . S
C375 O367 1.245 . S
O376 Co352 2.053 . S
O376 C368 1.259 . S
O377 Co354 2.047 . S
O377 C368 1.257 . S
O378 Co353 2.063 . S
O378 C369 1.268 . S
O379 Co352 2.094 . S
O379 C369 1.253 . S
O380 Co359 2.115 . S
O380 C370 1.281 . S
O381 Co359 2.315 . S
O381 C370 1.252 . S
O382 Co352 2.122 . S
O382 C371 1.272 . S
O383 Co354 2.113 . S
O383 C371 1.245 . S
Co384 H387 2.400 . S
Co384 O388 2.009 . S
Co384 O396 2.115 . S
Co384 O397 2.315 . S
Co384 O408 2.053 . S
Co384 O411 2.094 . S
Co384 O414 2.122 . S
Co385 O388 2.126 . S
Co385 H389 2.388 . S
Co385 O390 2.053 . S
Co385 O393 2.047 . S
Co385 O399 2.113 . S
Co385 O410 2.063 . S
Co386 H387 2.388 . S
Co386 O388 2.053 . S
Co386 O390 2.126 . S
Co386 O395 2.063 . S
Co386 O409 2.047 . S
Co386 O415 2.113 . S
H387 Co384 2.400 . S
H387 Co386 2.388 . S
H387 O388 0.760 . S
O388 Co384 2.009 . S
O388 Co385 2.126 . S
O388 Co386 2.053 . S
O388 H387 0.760 . S
H389 Co385 2.388 . S
H389 O390 0.760 . S
H389 Co391 2.400 . S
O390 Co385 2.053 . S
O390 Co386 2.126 . S
O390 H389 0.760 . S
O390 Co391 2.009 . S
Co391 H389 2.400 . S
Co391 O390 2.009 . S
Co391 O392 2.053 . S
Co391 O394 2.094 . S
Co391 O398 2.122 . S
Co391 O412 2.115 . S
Co391 O413 2.315 . S
O392 Co391 2.053 . S
O392 C404 1.259 . S
O393 Co385 2.047 . S
O393 C404 1.257 . S
O394 Co391 2.094 . S
O394 C405 1.253 . S
O395 Co386 2.063 . S
O395 C405 1.268 . S
O396 Co384 2.115 . S
O396 C406 1.281 . S
O397 Co384 2.315 . S
O397 C406 1.252 . S
O398 Co391 2.122 . S
O398 C407 1.272 . S
O399 Co385 2.113 . S
O399 C407 1.245 . S
C400 O408 1.259 . S
C400 O409 1.257 . S
C401 O410 1.268 . S
C401 O411 1.253 . S
C402 O412 1.281 . S
C402 O413 1.252 . S
C403 O414 1.272 . S
C403 O415 1.245 . S
C404 O392 1.259 . S
C404 O393 1.257 . S
C405 O394 1.253 . S
C405 O395 1.268 . S
C406 O396 1.281 . S
C406 O397 1.252 . S
C407 O398 1.272 . S
C407 O399 1.245 . S
O408 Co384 2.053 . S
O408 C400 1.259 . S
O409 Co386 2.047 . S
O409 C400 1.257 . S
O410 Co385 2.063 . S
O410 C401 1.268 . S
O411 Co384 2.094 . S
O411 C401 1.253 . S
O412 Co391 2.115 . S
O412 C402 1.281 . S
O413 Co391 2.315 . S
O413 C402 1.252 . S
O414 Co384 2.122 . S
O414 C403 1.272 . S
O415 Co386 2.113 . S
O415 C403 1.245 . S
Co416 H419 2.400 . S
Co416 O420 2.009 . S
Co416 O428 2.115 . S
Co416 O429 2.315 . S
Co416 O440 2.053 . S
Co416 O443 2.094 . S
Co416 O446 2.122 . S
Co417 O420 2.126 . S
Co417 H421 2.388 . S
Co417 O422 2.053 . S
Co417 O425 2.047 . S
Co417 O431 2.113 . S
Co417 O442 2.063 . S
Co418 H419 2.388 . S
Co418 O420 2.053 . S
Co418 O422 2.126 . S
Co418 O427 2.063 . S
Co418 O441 2.047 . S
Co418 O447 2.113 . S
H419 Co416 2.400 . S
H419 Co418 2.388 . S
H419 O420 0.760 . S
O420 Co416 2.009 . S
O420 Co417 2.126 . S
O420 Co418 2.053 . S
O420 H419 0.760 . S
H421 Co417 2.388 . S
H421 O422 0.760 . S
H421 Co423 2.400 . S
O422 Co417 2.053 . S
O422 Co418 2.126 . S
O422 H421 0.760 . S
O422 Co423 2.009 . S
Co423 H421 2.400 . S
Co423 O422 2.009 . S
Co423 O424 2.053 . S
Co423 O426 2.094 . S
Co423 O430 2.122 . S
Co423 O444 2.115 . S
Co423 O445 2.315 . S
O424 Co423 2.053 . S
O424 C436 1.259 . S
O425 Co417 2.047 . S
O425 C436 1.257 . S
O426 Co423 2.094 . S
O426 C437 1.253 . S
O427 Co418 2.063 . S
O427 C437 1.268 . S
O428 Co416 2.115 . S
O428 C438 1.281 . S
O429 Co416 2.315 . S
O429 C438 1.252 . S
O430 Co423 2.122 . S
O430 C439 1.272 . S
O431 Co417 2.113 . S
O431 C439 1.245 . S
C432 O440 1.259 . S
C432 O441 1.257 . S
C433 O442 1.268 . S
C433 O443 1.253 . S
C434 O444 1.281 . S
C434 O445 1.252 . S
C435 O446 1.272 . S
C435 O447 1.245 . S
C436 O424 1.259 . S
C436 O425 1.257 . S
C437 O426 1.253 . S
C437 O427 1.268 . S
C438 O428 1.281 . S
C438 O429 1.252 . S
C439 O430 1.272 . S
C439 O431 1.245 . S
O440 Co416 2.053 . S
O440 C432 1.259 . S
O441 Co418 2.047 . S
O441 C432 1.257 . S
O442 Co417 2.063 . S
O442 C433 1.268 . S
O443 Co416 2.094 . S
O443 C433 1.253 . S
O444 Co423 2.115 . S
O444 C434 1.281 . S
O445 Co423 2.315 . S
O445 C434 1.252 . S
O446 Co416 2.122 . S
O446 C435 1.272 . S
O447 Co418 2.113 . S
O447 C435 1.245 . S
Co448 H451 2.400 . S
Co448 O452 2.009 . S
Co448 O460 2.115 . S
Co448 O461 2.315 . S
Co448 O472 2.053 . S
Co448 O475 2.094 . S
Co448 O478 2.122 . S
Co449 O452 2.126 . S
Co449 H453 2.388 . S
Co449 O454 2.053 . S
Co449 O457 2.047 . S
Co449 O463 2.113 . S
Co449 O474 2.063 . S
Co450 H451 2.388 . S
Co450 O452 2.053 . S
Co450 O454 2.126 . S
Co450 O459 2.063 . S
Co450 O473 2.047 . S
Co450 O479 2.113 . S
H451 Co448 2.400 . S
H451 Co450 2.388 . S
H451 O452 0.760 . S
O452 Co448 2.009 . S
O452 Co449 2.126 . S
O452 Co450 2.053 . S
O452 H451 0.760 . S
H453 Co449 2.388 . S
H453 O454 0.760 . S
H453 Co455 2.400 . S
O454 Co449 2.053 . S
O454 Co450 2.126 . S
O454 H453 0.760 . S
O454 Co455 2.009 . S
Co455 H453 2.400 . S
Co455 O454 2.009 . S
Co455 O456 2.053 . S
Co455 O458 2.094 . S
Co455 O462 2.122 . S
Co455 O476 2.115 . S
Co455 O477 2.315 . S
O456 Co455 2.053 . S
O456 C468 1.259 . S
O457 Co449 2.047 . S
O457 C468 1.257 . S
O458 Co455 2.094 . S
O458 C469 1.253 . S
O459 Co450 2.063 . S
O459 C469 1.268 . S
O460 Co448 2.115 . S
O460 C470 1.281 . S
O461 Co448 2.315 . S
O461 C470 1.252 . S
O462 Co455 2.122 . S
O462 C471 1.272 . S
O463 Co449 2.113 . S
O463 C471 1.245 . S
C464 O472 1.259 . S
C464 O473 1.257 . S
C465 O474 1.268 . S
C465 O475 1.253 . S
C466 O476 1.281 . S
C466 O477 1.252 . S
C467 O478 1.272 . S
C467 O479 1.245 . S
C468 O456 1.259 . S
C468 O457 1.257 . S
C469 O458 1.253 . S
C469 O459 1.268 . S
C470 O460 1.281 . S
C470 O461 1.252 . S
C471 O462 1.272 . S
C471 O463 1.245 . S
O472 Co448 2.053 . S
O472 C464 1.259 . S
O473 Co450 2.047 . S
O473 C464 1.257 . S
O474 Co449 2.063 . S
O474 C465 1.268 . S
O475 Co448 2.094 . S
O475 C465 1.253 . S
O476 Co455 2.115 . S
O476 C466 1.281 . S
O477 Co455 2.315 . S
O477 C466 1.252 . S
O478 Co448 2.122 . S
O478 C467 1.272 . S
O479 Co450 2.113 . S
O479 C467 1.245 . S
Co480 H483 2.400 . S
Co480 O484 2.009 . S
Co480 O492 2.115 . S
Co480 O493 2.315 . S
Co480 O504 2.053 . S
Co480 O507 2.094 . S
Co480 O510 2.122 . S
Co481 O484 2.126 . S
Co481 H485 2.388 . S
Co481 O486 2.053 . S
Co481 O489 2.047 . S
Co481 O495 2.113 . S
Co481 O506 2.063 . S
Co482 H483 2.388 . S
Co482 O484 2.053 . S
Co482 O486 2.126 . S
Co482 O491 2.063 . S
Co482 O505 2.047 . S
Co482 O511 2.113 . S
H483 Co480 2.400 . S
H483 Co482 2.388 . S
H483 O484 0.760 . S
O484 Co480 2.009 . S
O484 Co481 2.126 . S
O484 Co482 2.053 . S
O484 H483 0.760 . S
H485 Co481 2.388 . S
H485 O486 0.760 . S
H485 Co487 2.400 . S
O486 Co481 2.053 . S
O486 Co482 2.126 . S
O486 H485 0.760 . S
O486 Co487 2.009 . S
Co487 H485 2.400 . S
Co487 O486 2.009 . S
Co487 O488 2.053 . S
Co487 O490 2.094 . S
Co487 O494 2.122 . S
Co487 O508 2.115 . S
Co487 O509 2.315 . S
O488 Co487 2.053 . S
O488 C500 1.259 . S
O489 Co481 2.047 . S
O489 C500 1.257 . S
O490 Co487 2.094 . S
O490 C501 1.253 . S
O491 Co482 2.063 . S
O491 C501 1.268 . S
O492 Co480 2.115 . S
O492 C502 1.281 . S
O493 Co480 2.315 . S
O493 C502 1.252 . S
O494 Co487 2.122 . S
O494 C503 1.272 . S
O495 Co481 2.113 . S
O495 C503 1.245 . S
C496 O504 1.259 . S
C496 O505 1.257 . S
C497 O506 1.268 . S
C497 O507 1.253 . S
C498 O508 1.281 . S
C498 O509 1.252 . S
C499 O510 1.272 . S
C499 O511 1.245 . S
C500 O488 1.259 . S
C500 O489 1.257 . S
C501 O490 1.253 . S
C501 O491 1.268 . S
C502 O492 1.281 . S
C502 O493 1.252 . S
C503 O494 1.272 . S
C503 O495 1.245 . S
O504 Co480 2.053 . S
O504 C496 1.259 . S
O505 Co482 2.047 . S
O505 C496 1.257 . S
O506 Co481 2.063 . S
O506 C497 1.268 . S
O507 Co480 2.094 . S
O507 C497 1.253 . S
O508 Co487 2.115 . S
O508 C498 1.281 . S
O509 Co487 2.315 . S
O509 C498 1.252 . S
O510 Co480 2.122 . S
O510 C499 1.272 . S
O511 Co482 2.113 . S
O511 C499 1.245 . S
Co512 H515 2.400 . S
Co512 O516 2.009 . S
Co512 O524 2.115 . S
Co512 O525 2.315 . S
Co512 O536 2.053 . S
Co512 O539 2.094 . S
Co512 O542 2.122 . S
Co513 O516 2.126 . S
Co513 H517 2.388 . S
Co513 O518 2.053 . S
Co513 O521 2.047 . S
Co513 O527 2.113 . S
Co513 O538 2.063 . S
Co514 H515 2.388 . S
Co514 O516 2.053 . S
Co514 O518 2.126 . S
Co514 O523 2.063 . S
Co514 O537 2.047 . S
Co514 O543 2.113 . S
H515 Co512 2.400 . S
H515 Co514 2.388 . S
H515 O516 0.760 . S
O516 Co512 2.009 . S
O516 Co513 2.126 . S
O516 Co514 2.053 . S
O516 H515 0.760 . S
H517 Co513 2.388 . S
H517 O518 0.760 . S
H517 Co519 2.400 . S
O518 Co513 2.053 . S
O518 Co514 2.126 . S
O518 H517 0.760 . S
O518 Co519 2.009 . S
Co519 H517 2.400 . S
Co519 O518 2.009 . S
Co519 O520 2.053 . S
Co519 O522 2.094 . S
Co519 O526 2.122 . S
Co519 O540 2.115 . S
Co519 O541 2.315 . S
O520 Co519 2.053 . S
O520 C532 1.259 . S
O521 Co513 2.047 . S
O521 C532 1.257 . S
O522 Co519 2.094 . S
O522 C533 1.253 . S
O523 Co514 2.063 . S
O523 C533 1.268 . S
O524 Co512 2.115 . S
O524 C534 1.281 . S
O525 Co512 2.315 . S
O525 C534 1.252 . S
O526 Co519 2.122 . S
O526 C535 1.272 . S
O527 Co513 2.113 . S
O527 C535 1.245 . S
C528 O536 1.259 . S
C528 O537 1.257 . S
C529 O538 1.268 . S
C529 O539 1.253 . S
C530 O540 1.281 . S
C530 O541 1.252 . S
C531 O542 1.272 . S
C531 O543 1.245 . S
C532 O520 1.259 . S
C532 O521 1.257 . S
C533 O522 1.253 . S
C533 O523 1.268 . S
C534 O524 1.281 . S
C534 O525 1.252 . S
C535 O526 1.272 . S
C535 O527 1.245 . S
O536 Co512 2.053 . S
O536 C528 1.259 . S
O537 Co514 2.047 . S
O537 C528 1.257 . S
O538 Co513 2.063 . S
O538 C529 1.268 . S
O539 Co512 2.094 . S
O539 C529 1.253 . S
O540 Co519 2.115 . S
O540 C530 1.281 . S
O541 Co519 2.315 . S
O541 C530 1.252 . S
O542 Co512 2.122 . S
O542 C531 1.272 . S
O543 Co514 2.113 . S
O543 C531 1.245 . S
Co544 H547 2.400 . S
Co544 O548 2.009 . S
Co544 O556 2.115 . S
Co544 O557 2.315 . S
Co544 O568 2.053 . S
Co544 O571 2.094 . S
Co544 O574 2.122 . S
Co545 O548 2.126 . S
Co545 H549 2.388 . S
Co545 O550 2.053 . S
Co545 O553 2.047 . S
Co545 O559 2.113 . S
Co545 O570 2.063 . S
Co546 H547 2.388 . S
Co546 O548 2.053 . S
Co546 O550 2.126 . S
Co546 O555 2.063 . S
Co546 O569 2.047 . S
Co546 O575 2.113 . S
H547 Co544 2.400 . S
H547 Co546 2.388 . S
H547 O548 0.760 . S
O548 Co544 2.009 . S
O548 Co545 2.126 . S
O548 Co546 2.053 . S
O548 H547 0.760 . S
H549 Co545 2.388 . S
H549 O550 0.760 . S
H549 Co551 2.400 . S
O550 Co545 2.053 . S
O550 Co546 2.126 . S
O550 H549 0.760 . S
O550 Co551 2.009 . S
Co551 H549 2.400 . S
Co551 O550 2.009 . S
Co551 O552 2.053 . S
Co551 O554 2.094 . S
Co551 O558 2.122 . S
Co551 O572 2.115 . S
Co551 O573 2.315 . S
O552 Co551 2.053 . S
O552 C564 1.259 . S
O553 Co545 2.047 . S
O553 C564 1.257 . S
O554 Co551 2.094 . S
O554 C565 1.253 . S
O555 Co546 2.063 . S
O555 C565 1.268 . S
O556 Co544 2.115 . S
O556 C566 1.281 . S
O557 Co544 2.315 . S
O557 C566 1.252 . S
O558 Co551 2.122 . S
O558 C567 1.272 . S
O559 Co545 2.113 . S
O559 C567 1.245 . S
C560 O568 1.259 . S
C560 O569 1.257 . S
C561 O570 1.268 . S
C561 O571 1.253 . S
C562 O572 1.281 . S
C562 O573 1.252 . S
C563 O574 1.272 . S
C563 O575 1.245 . S
C564 O552 1.259 . S
C564 O553 1.257 . S
C565 O554 1.253 . S
C565 O555 1.268 . S
C566 O556 1.281 . S
C566 O557 1.252 . S
C567 O558 1.272 . S
C567 O559 1.245 . S
O568 Co544 2.053 . S
O568 C560 1.259 . S
O569 Co546 2.047 . S
O569 C560 1.257 . S
O570 Co545 2.063 . S
O570 C561 1.268 . S
O571 Co544 2.094 . S
O571 C561 1.253 . S
O572 Co551 2.115 . S
O572 C562 1.281 . S
O573 Co551 2.315 . S
O573 C562 1.252 . S
O574 Co544 2.122 . S
O574 C563 1.272 . S
O575 Co546 2.113 . S
O575 C563 1.245 . S
Co576 H579 2.400 . S
Co576 O580 2.009 . S
Co576 O588 2.115 . S
Co576 O589 2.315 . S
Co576 O600 2.053 . S
Co576 O603 2.094 . S
Co576 O606 2.122 . S
Co577 O580 2.126 . S
Co577 H581 2.388 . S
Co577 O582 2.053 . S
Co577 O585 2.047 . S
Co577 O591 2.113 . S
Co577 O602 2.063 . S
Co578 H579 2.388 . S
Co578 O580 2.053 . S
Co578 O582 2.126 . S
Co578 O587 2.063 . S
Co578 O601 2.047 . S
Co578 O607 2.113 . S
H579 Co576 2.400 . S
H579 Co578 2.388 . S
H579 O580 0.760 . S
O580 Co576 2.009 . S
O580 Co577 2.126 . S
O580 Co578 2.053 . S
O580 H579 0.760 . S
H581 Co577 2.388 . S
H581 O582 0.760 . S
H581 Co583 2.400 . S
O582 Co577 2.053 . S
O582 Co578 2.126 . S
O582 H581 0.760 . S
O582 Co583 2.009 . S
Co583 H581 2.400 . S
Co583 O582 2.009 . S
Co583 O584 2.053 . S
Co583 O586 2.094 . S
Co583 O590 2.122 . S
Co583 O604 2.115 . S
Co583 O605 2.315 . S
O584 Co583 2.053 . S
O584 C596 1.259 . S
O585 Co577 2.047 . S
O585 C596 1.257 . S
O586 Co583 2.094 . S
O586 C597 1.253 . S
O587 Co578 2.063 . S
O587 C597 1.268 . S
O588 Co576 2.115 . S
O588 C598 1.281 . S
O589 Co576 2.315 . S
O589 C598 1.252 . S
O590 Co583 2.122 . S
O590 C599 1.272 . S
O591 Co577 2.113 . S
O591 C599 1.245 . S
C592 O600 1.259 . S
C592 O601 1.257 . S
C593 O602 1.268 . S
C593 O603 1.253 . S
C594 O604 1.281 . S
C594 O605 1.252 . S
C595 O606 1.272 . S
C595 O607 1.245 . S
C596 O584 1.259 . S
C596 O585 1.257 . S
C597 O586 1.253 . S
C597 O587 1.268 . S
C598 O588 1.281 . S
C598 O589 1.252 . S
C599 O590 1.272 . S
C599 O591 1.245 . S
O600 Co576 2.053 . S
O600 C592 1.259 . S
O601 Co578 2.047 . S
O601 C592 1.257 . S
O602 Co577 2.063 . S
O602 C593 1.268 . S
O603 Co576 2.094 . S
O603 C593 1.253 . S
O604 Co583 2.115 . S
O604 C594 1.281 . S
O605 Co583 2.315 . S
O605 C594 1.252 . S
O606 Co576 2.122 . S
O606 C595 1.272 . S
O607 Co578 2.113 . S
O607 C595 1.245 . S
Co608 H611 2.400 . S
Co608 O612 2.009 . S
Co608 O620 2.115 . S
Co608 O621 2.315 . S
Co608 O632 2.053 . S
Co608 O635 2.094 . S
Co608 O638 2.122 . S
Co609 O612 2.126 . S
Co609 H613 2.388 . S
Co609 O614 2.053 . S
Co609 O617 2.047 . S
Co609 O623 2.113 . S
Co609 O634 2.063 . S
Co610 H611 2.388 . S
Co610 O612 2.053 . S
Co610 O614 2.126 . S
Co610 O619 2.063 . S
Co610 O633 2.047 . S
Co610 O639 2.113 . S
H611 Co608 2.400 . S
H611 Co610 2.388 . S
H611 O612 0.760 . S
O612 Co608 2.009 . S
O612 Co609 2.126 . S
O612 Co610 2.053 . S
O612 H611 0.760 . S
H613 Co609 2.388 . S
H613 O614 0.760 . S
H613 Co615 2.400 . S
O614 Co609 2.053 . S
O614 Co610 2.126 . S
O614 H613 0.760 . S
O614 Co615 2.009 . S
Co615 H613 2.400 . S
Co615 O614 2.009 . S
Co615 O616 2.053 . S
Co615 O618 2.094 . S
Co615 O622 2.122 . S
Co615 O636 2.115 . S
Co615 O637 2.315 . S
O616 Co615 2.053 . S
O616 C628 1.259 . S
O617 Co609 2.047 . S
O617 C628 1.257 . S
O618 Co615 2.094 . S
O618 C629 1.253 . S
O619 Co610 2.063 . S
O619 C629 1.268 . S
O620 Co608 2.115 . S
O620 C630 1.281 . S
O621 Co608 2.315 . S
O621 C630 1.252 . S
O622 Co615 2.122 . S
O622 C631 1.272 . S
O623 Co609 2.113 . S
O623 C631 1.245 . S
C624 O632 1.259 . S
C624 O633 1.257 . S
C625 O634 1.268 . S
C625 O635 1.253 . S
C626 O636 1.281 . S
C626 O637 1.252 . S
C627 O638 1.272 . S
C627 O639 1.245 . S
C628 O616 1.259 . S
C628 O617 1.257 . S
C629 O618 1.253 . S
C629 O619 1.268 . S
C630 O620 1.281 . S
C630 O621 1.252 . S
C631 O622 1.272 . S
C631 O623 1.245 . S
O632 Co608 2.053 . S
O632 C624 1.259 . S
O633 Co610 2.047 . S
O633 C624 1.257 . S
O634 Co609 2.063 . S
O634 C625 1.268 . S
O635 Co608 2.094 . S
O635 C625 1.253 . S
O636 Co615 2.115 . S
O636 C626 1.281 . S
O637 Co615 2.315 . S
O637 C626 1.252 . S
O638 Co608 2.122 . S
O638 C627 1.272 . S
O639 Co610 2.113 . S
O639 C627 1.245 . S
Co640 H643 2.400 . S
Co640 O644 2.009 . S
Co640 O652 2.115 . S
Co640 O653 2.315 . S
Co640 O664 2.053 . S
Co640 O667 2.094 . S
Co640 O670 2.122 . S
Co641 O644 2.126 . S
Co641 H645 2.388 . S
Co641 O646 2.053 . S
Co641 O649 2.047 . S
Co641 O655 2.113 . S
Co641 O666 2.063 . S
Co642 H643 2.388 . S
Co642 O644 2.053 . S
Co642 O646 2.126 . S
Co642 O651 2.063 . S
Co642 O665 2.047 . S
Co642 O671 2.113 . S
H643 Co640 2.400 . S
H643 Co642 2.388 . S
H643 O644 0.760 . S
O644 Co640 2.009 . S
O644 Co641 2.126 . S
O644 Co642 2.053 . S
O644 H643 0.760 . S
H645 Co641 2.388 . S
H645 O646 0.760 . S
H645 Co647 2.400 . S
O646 Co641 2.053 . S
O646 Co642 2.126 . S
O646 H645 0.760 . S
O646 Co647 2.009 . S
Co647 H645 2.400 . S
Co647 O646 2.009 . S
Co647 O648 2.053 . S
Co647 O650 2.094 . S
Co647 O654 2.122 . S
Co647 O668 2.115 . S
Co647 O669 2.315 . S
O648 Co647 2.053 . S
O648 C660 1.259 . S
O649 Co641 2.047 . S
O649 C660 1.257 . S
O650 Co647 2.094 . S
O650 C661 1.253 . S
O651 Co642 2.063 . S
O651 C661 1.268 . S
O652 Co640 2.115 . S
O652 C662 1.281 . S
O653 Co640 2.315 . S
O653 C662 1.252 . S
O654 Co647 2.122 . S
O654 C663 1.272 . S
O655 Co641 2.113 . S
O655 C663 1.245 . S
C656 O664 1.259 . S
C656 O665 1.257 . S
C657 O666 1.268 . S
C657 O667 1.253 . S
C658 O668 1.281 . S
C658 O669 1.252 . S
C659 O670 1.272 . S
C659 O671 1.245 . S
C660 O648 1.259 . S
C660 O649 1.257 . S
C661 O650 1.253 . S
C661 O651 1.268 . S
C662 O652 1.281 . S
C662 O653 1.252 . S
C663 O654 1.272 . S
C663 O655 1.245 . S
O664 Co640 2.053 . S
O664 C656 1.259 . S
O665 Co642 2.047 . S
O665 C656 1.257 . S
O666 Co641 2.063 . S
O666 C657 1.268 . S
O667 Co640 2.094 . S
O667 C657 1.253 . S
O668 Co647 2.115 . S
O668 C658 1.281 . S
O669 Co647 2.315 . S
O669 C658 1.252 . S
O670 Co640 2.122 . S
O670 C659 1.272 . S
O671 Co642 2.113 . S
O671 C659 1.245 . S
Co672 H675 2.400 . S
Co672 O676 2.009 . S
Co672 O684 2.115 . S
Co672 O685 2.315 . S
Co672 O696 2.053 . S
Co672 O699 2.094 . S
Co672 O702 2.122 . S
Co673 O676 2.126 . S
Co673 H677 2.388 . S
Co673 O678 2.053 . S
Co673 O681 2.047 . S
Co673 O687 2.113 . S
Co673 O698 2.063 . S
Co674 H675 2.388 . S
Co674 O676 2.053 . S
Co674 O678 2.126 . S
Co674 O683 2.063 . S
Co674 O697 2.047 . S
Co674 O703 2.113 . S
H675 Co672 2.400 . S
H675 Co674 2.388 . S
H675 O676 0.760 . S
O676 Co672 2.009 . S
O676 Co673 2.126 . S
O676 Co674 2.053 . S
O676 H675 0.760 . S
H677 Co673 2.388 . S
H677 O678 0.760 . S
H677 Co679 2.400 . S
O678 Co673 2.053 . S
O678 Co674 2.126 . S
O678 H677 0.760 . S
O678 Co679 2.009 . S
Co679 H677 2.400 . S
Co679 O678 2.009 . S
Co679 O680 2.053 . S
Co679 O682 2.094 . S
Co679 O686 2.122 . S
Co679 O700 2.115 . S
Co679 O701 2.315 . S
O680 Co679 2.053 . S
O680 C692 1.259 . S
O681 Co673 2.047 . S
O681 C692 1.257 . S
O682 Co679 2.094 . S
O682 C693 1.253 . S
O683 Co674 2.063 . S
O683 C693 1.268 . S
O684 Co672 2.115 . S
O684 C694 1.281 . S
O685 Co672 2.315 . S
O685 C694 1.252 . S
O686 Co679 2.122 . S
O686 C695 1.272 . S
O687 Co673 2.113 . S
O687 C695 1.245 . S
C688 O696 1.259 . S
C688 O697 1.257 . S
C689 O698 1.268 . S
C689 O699 1.253 . S
C690 O700 1.281 . S
C690 O701 1.252 . S
C691 O702 1.272 . S
C691 O703 1.245 . S
C692 O680 1.259 . S
C692 O681 1.257 . S
C693 O682 1.253 . S
C693 O683 1.268 . S
C694 O684 1.281 . S
C694 O685 1.252 . S
C695 O686 1.272 . S
C695 O687 1.245 . S
O696 Co672 2.053 . S
O696 C688 1.259 . S
O697 Co674 2.047 . S
O697 C688 1.257 . S
O698 Co673 2.063 . S
O698 C689 1.268 . S
O699 Co672 2.094 . S
O699 C689 1.253 . S
O700 Co679 2.115 . S
O700 C690 1.281 . S
O701 Co679 2.315 . S
O701 C690 1.252 . S
O702 Co672 2.122 . S
O702 C691 1.272 . S
O703 Co674 2.113 . S
O703 C691 1.245 . S
Co704 H707 2.400 . S
Co704 O708 2.009 . S
Co704 O716 2.115 . S
Co704 O717 2.315 . S
Co704 O728 2.053 . S
Co704 O731 2.094 . S
Co704 O734 2.122 . S
Co705 O708 2.126 . S
Co705 H709 2.388 . S
Co705 O710 2.053 . S
Co705 O713 2.047 . S
Co705 O719 2.113 . S
Co705 O730 2.063 . S
Co706 H707 2.388 . S
Co706 O708 2.053 . S
Co706 O710 2.126 . S
Co706 O715 2.063 . S
Co706 O729 2.047 . S
Co706 O735 2.113 . S
H707 Co704 2.400 . S
H707 Co706 2.388 . S
H707 O708 0.760 . S
O708 Co704 2.009 . S
O708 Co705 2.126 . S
O708 Co706 2.053 . S
O708 H707 0.760 . S
H709 Co705 2.388 . S
H709 O710 0.760 . S
H709 Co711 2.400 . S
O710 Co705 2.053 . S
O710 Co706 2.126 . S
O710 H709 0.760 . S
O710 Co711 2.009 . S
Co711 H709 2.400 . S
Co711 O710 2.009 . S
Co711 O712 2.053 . S
Co711 O714 2.094 . S
Co711 O718 2.122 . S
Co711 O732 2.115 . S
Co711 O733 2.315 . S
O712 Co711 2.053 . S
O712 C724 1.259 . S
O713 Co705 2.047 . S
O713 C724 1.257 . S
O714 Co711 2.094 . S
O714 C725 1.253 . S
O715 Co706 2.063 . S
O715 C725 1.268 . S
O716 Co704 2.115 . S
O716 C726 1.281 . S
O717 Co704 2.315 . S
O717 C726 1.252 . S
O718 Co711 2.122 . S
O718 C727 1.272 . S
O719 Co705 2.113 . S
O719 C727 1.245 . S
C720 O728 1.259 . S
C720 O729 1.257 . S
C721 O730 1.268 . S
C721 O731 1.253 . S
C722 O732 1.281 . S
C722 O733 1.252 . S
C723 O734 1.272 . S
C723 O735 1.245 . S
C724 O712 1.259 . S
C724 O713 1.257 . S
C725 O714 1.253 . S
C725 O715 1.268 . S
C726 O716 1.281 . S
C726 O717 1.252 . S
C727 O718 1.272 . S
C727 O719 1.245 . S
O728 Co704 2.053 . S
O728 C720 1.259 . S
O729 Co706 2.047 . S
O729 C720 1.257 . S
O730 Co705 2.063 . S
O730 C721 1.268 . S
O731 Co704 2.094 . S
O731 C721 1.253 . S
O732 Co711 2.115 . S
O732 C722 1.281 . S
O733 Co711 2.315 . S
O733 C722 1.252 . S
O734 Co704 2.122 . S
O734 C723 1.272 . S
O735 Co706 2.113 . S
O735 C723 1.245 . S
Co736 H739 2.400 . S
Co736 O740 2.009 . S
Co736 O748 2.115 . S
Co736 O749 2.315 . S
Co736 O760 2.053 . S
Co736 O763 2.094 . S
Co736 O766 2.122 . S
Co737 O740 2.126 . S
Co737 H741 2.388 . S
Co737 O742 2.053 . S
Co737 O745 2.047 . S
Co737 O751 2.113 . S
Co737 O762 2.063 . S
Co738 H739 2.388 . S
Co738 O740 2.053 . S
Co738 O742 2.126 . S
Co738 O747 2.063 . S
Co738 O761 2.047 . S
Co738 O767 2.113 . S
H739 Co736 2.400 . S
H739 Co738 2.388 . S
H739 O740 0.760 . S
O740 Co736 2.009 . S
O740 Co737 2.126 . S
O740 Co738 2.053 . S
O740 H739 0.760 . S
H741 Co737 2.388 . S
H741 O742 0.760 . S
H741 Co743 2.400 . S
O742 Co737 2.053 . S
O742 Co738 2.126 . S
O742 H741 0.760 . S
O742 Co743 2.009 . S
Co743 H741 2.400 . S
Co743 O742 2.009 . S
Co743 O744 2.053 . S
Co743 O746 2.094 . S
Co743 O750 2.122 . S
Co743 O764 2.115 . S
Co743 O765 2.315 . S
O744 Co743 2.053 . S
O744 C756 1.259 . S
O745 Co737 2.047 . S
O745 C756 1.257 . S
O746 Co743 2.094 . S
O746 C757 1.253 . S
O747 Co738 2.063 . S
O747 C757 1.268 . S
O748 Co736 2.115 . S
O748 C758 1.281 . S
O749 Co736 2.315 . S
O749 C758 1.252 . S
O750 Co743 2.122 . S
O750 C759 1.272 . S
O751 Co737 2.113 . S
O751 C759 1.245 . S
C752 O760 1.259 . S
C752 O761 1.257 . S
C753 O762 1.268 . S
C753 O763 1.253 . S
C754 O764 1.281 . S
C754 O765 1.252 . S
C755 O766 1.272 . S
C755 O767 1.245 . S
C756 O744 1.259 . S
C756 O745 1.257 . S
C757 O746 1.253 . S
C757 O747 1.268 . S
C758 O748 1.281 . S
C758 O749 1.252 . S
C759 O750 1.272 . S
C759 O751 1.245 . S
O760 Co736 2.053 . S
O760 C752 1.259 . S
O761 Co738 2.047 . S
O761 C752 1.257 . S
O762 Co737 2.063 . S
O762 C753 1.268 . S
O763 Co736 2.094 . S
O763 C753 1.253 . S
O764 Co743 2.115 . S
O764 C754 1.281 . S
O765 Co743 2.315 . S
O765 C754 1.252 . S
O766 Co736 2.122 . S
O766 C755 1.272 . S
O767 Co738 2.113 . S
O767 C755 1.245 . S
H768 C774 0.930 . S
H769 C777 0.930 . S
H770 C778 0.930 . S
H771 C779 0.930 . S
H772 C782 0.930 . S
H773 C783 0.930 . S
C774 H768 0.930 . S
C774 C775 1.355 . S
C774 C776 1.415 . S
C775 C774 1.355 . S
C775 C777 1.419 . S
C776 C774 1.415 . S
C776 C781 1.425 . S
C776 C783 1.409 . S
C777 H769 0.930 . S
C777 C775 1.419 . S
C777 C778 1.362 . S
C778 H770 0.930 . S
C778 C777 1.362 . S
C778 C781 1.409 . S
C779 H771 0.930 . S
C779 C780 1.355 . S
C779 C781 1.415 . S
C780 C779 1.355 . S
C780 C782 1.419 . S
C781 C776 1.425 . S
C781 C778 1.409 . S
C781 C779 1.415 . S
C782 H772 0.930 . S
C782 C780 1.419 . S
C782 C783 1.362 . S
C783 H773 0.930 . S
C783 C776 1.409 . S
C783 C782 1.362 . S
H784 C790 0.930 . S
H785 C793 0.930 . S
H786 C794 0.930 . S
H787 C795 0.930 . S
H788 C798 0.936 . S
H789 C799 0.930 . S
C790 H784 0.930 . S
C790 C791 1.355 . S
C790 C792 1.415 . S
C791 C790 1.355 . S
C791 C793 1.419 . S
C792 C790 1.415 . S
C792 C797 1.425 . S
C792 C799 1.409 1_565 S
C793 H785 0.930 . S
C793 C791 1.419 . S
C793 C794 1.362 . S
C794 H786 0.930 . S
C794 C793 1.362 . S
C794 C797 1.409 . S
C795 H787 0.930 . S
C795 C796 1.355 . S
C795 C797 1.415 1_545 S
C796 C795 1.355 . S
C796 C798 1.418 1_655 S
C797 C792 1.425 . S
C797 C794 1.409 . S
C797 C795 1.415 1_565 S
C798 H788 0.936 . S
C798 C796 1.418 1_455 S
C798 C799 1.358 1_455 S
C799 H789 0.930 . S
C799 C792 1.409 1_545 S
C799 C798 1.358 1_655 S
H800 C806 0.930 . S
H801 C809 0.930 . S
H802 C810 0.930 . S
H803 C811 0.930 . S
H804 C814 0.930 . S
H805 C815 0.930 . S
C806 H800 0.930 . S
C806 C807 1.355 . S
C806 C808 1.415 . S
C807 C806 1.355 . S
C807 C809 1.419 . S
C808 C806 1.415 . S
C808 C813 1.425 . S
C808 C815 1.409 . S
C809 H801 0.930 . S
C809 C807 1.419 . S
C809 C810 1.362 . S
C810 H802 0.930 . S
C810 C809 1.362 . S
C810 C813 1.409 . S
C811 H803 0.930 . S
C811 C812 1.355 . S
C811 C813 1.415 . S
C812 C811 1.355 . S
C812 C814 1.419 . S
C813 C808 1.425 . S
C813 C810 1.409 . S
C813 C811 1.415 . S
C814 H804 0.930 . S
C814 C812 1.419 . S
C814 C815 1.362 . S
C815 H805 0.930 . S
C815 C808 1.409 . S
C815 C814 1.362 . S
H816 C822 0.930 . S
H817 C825 0.930 . S
H818 C826 0.930 . S
H819 C827 0.930 . S
H820 C830 0.930 . S
H821 C831 0.930 . S
C822 H816 0.930 . S
C822 C823 1.355 . S
C822 C824 1.415 1_565 S
C823 C822 1.355 . S
C823 C825 1.419 1_565 S
C824 C822 1.415 1_545 S
C824 C829 1.425 . S
C824 C831 1.409 . S
C825 H817 0.930 . S
C825 C823 1.419 1_545 S
C825 C826 1.362 . S
C826 H818 0.930 . S
C826 C825 1.362 . S
C826 C829 1.409 . S
C827 H819 0.930 . S
C827 C828 1.355 . S
C827 C829 1.415 . S
C828 C827 1.355 . S
C828 C830 1.419 . S
C829 C824 1.425 . S
C829 C826 1.409 . S
C829 C827 1.415 . S
C830 H820 0.930 . S
C830 C828 1.419 . S
C830 C831 1.362 . S
C831 H821 0.930 . S
C831 C824 1.409 . S
C831 C830 1.362 . S
H832 C838 0.930 . S
H833 C841 0.930 . S
H834 C842 0.930 . S
H835 C843 0.930 . S
H836 C846 0.930 . S
H837 C847 0.930 . S
C838 H832 0.930 . S
C838 C839 1.355 . S
C838 C840 1.415 . S
C839 C838 1.355 . S
C839 C841 1.419 . S
C840 C838 1.415 . S
C840 C845 1.425 . S
C840 C847 1.409 . S
C841 H833 0.930 . S
C841 C839 1.419 . S
C841 C842 1.362 . S
C842 H834 0.930 . S
C842 C841 1.362 . S
C842 C845 1.409 . S
C843 H835 0.930 . S
C843 C844 1.355 . S
C843 C845 1.415 . S
C844 C843 1.355 . S
C844 C846 1.419 . S
C845 C840 1.425 . S
C845 C842 1.409 . S
C845 C843 1.415 . S
C846 H836 0.930 . S
C846 C844 1.419 . S
C846 C847 1.362 . S
C847 H837 0.930 . S
C847 C840 1.409 . S
C847 C846 1.362 . S
H848 C854 0.930 . S
H849 C857 0.930 . S
H850 C858 0.930 . S
H851 C859 0.930 . S
H852 C862 0.930 . S
H853 C863 0.930 . S
C854 H848 0.930 . S
C854 C855 1.355 . S
C854 C856 1.415 1_565 S
C855 C854 1.355 . S
C855 C857 1.419 . S
C856 C854 1.415 1_545 S
C856 C861 1.425 1_545 S
C856 C863 1.409 . S
C857 H849 0.930 . S
C857 C855 1.419 . S
C857 C858 1.362 . S
C858 H850 0.930 . S
C858 C857 1.362 . S
C858 C861 1.409 . S
C859 H851 0.930 . S
C859 C860 1.355 . S
C859 C861 1.415 1_545 S
C860 C859 1.355 . S
C860 C862 1.419 . S
C861 C856 1.425 1_565 S
C861 C858 1.409 . S
C861 C859 1.415 1_565 S
C862 H852 0.930 . S
C862 C860 1.419 . S
C862 C863 1.362 . S
C863 H853 0.930 . S
C863 C856 1.409 . S
C863 C862 1.362 . S
H864 C870 0.930 . S
H865 C873 0.930 . S
H866 C874 0.930 . S
H867 C875 0.930 . S
H868 C878 0.930 . S
H869 C879 0.930 . S
C870 H864 0.930 . S
C870 C871 1.355 . S
C870 C872 1.415 . S
C871 C870 1.355 . S
C871 C873 1.419 . S
C872 C870 1.415 . S
C872 C877 1.425 . S
C872 C879 1.409 . S
C873 H865 0.930 . S
C873 C871 1.419 . S
C873 C874 1.362 . S
C874 H866 0.930 . S
C874 C873 1.362 . S
C874 C877 1.409 . S
C875 H867 0.930 . S
C875 C876 1.355 . S
C875 C877 1.415 . S
C876 C875 1.355 . S
C876 C878 1.419 . S
C877 C872 1.425 . S
C877 C874 1.409 . S
C877 C875 1.415 . S
C878 H868 0.930 . S
C878 C876 1.419 . S
C878 C879 1.362 . S
C879 H869 0.930 . S
C879 C872 1.409 . S
C879 C878 1.362 . S
H880 C886 0.930 . S
H881 C889 0.930 . S
H882 C890 0.930 . S
H883 C891 0.930 . S
H884 C894 0.930 . S
H885 C895 0.930 . S
C886 H880 0.930 . S
C886 C887 1.355 . S
C886 C888 1.415 1_465 S
C887 C886 1.355 . S
C887 C889 1.419 1_565 S
C888 C886 1.415 1_645 S
C888 C893 1.425 1_655 S
C888 C895 1.409 . S
C889 H881 0.930 . S
C889 C887 1.419 1_545 S
C889 C890 1.362 . S
C890 H882 0.930 . S
C890 C889 1.362 . S
C890 C893 1.409 . S
C891 H883 0.930 . S
C891 C892 1.355 . S
C891 C893 1.415 1_655 S
C892 C891 1.355 . S
C892 C894 1.419 . S
C893 C888 1.425 1_455 S
C893 C890 1.409 . S
C893 C891 1.415 1_455 S
C894 H884 0.930 . S
C894 C892 1.419 . S
C894 C895 1.362 . S
C895 H885 0.930 . S
C895 C888 1.409 . S
C895 C894 1.362 . S
H896 C902 0.930 . S
H897 C905 0.930 . S
H898 C906 0.930 . S
H899 C907 0.930 . S
H900 C910 0.930 . S
H901 C911 0.930 . S
C902 H896 0.930 . S
C902 C903 1.355 . S
C902 C904 1.415 . S
C903 C902 1.355 . S
C903 C905 1.419 . S
C904 C902 1.415 . S
C904 C909 1.425 . S
C904 C911 1.409 . S
C905 H897 0.930 . S
C905 C903 1.419 . S
C905 C906 1.362 . S
C906 H898 0.930 . S
C906 C905 1.362 . S
C906 C909 1.409 . S
C907 H899 0.930 . S
C907 C908 1.355 . S
C907 C909 1.415 . S
C908 C907 1.355 . S
C908 C910 1.419 . S
C909 C904 1.425 . S
C909 C906 1.409 . S
C909 C907 1.415 . S
C910 H900 0.930 . S
C910 C908 1.419 . S
C910 C911 1.362 . S
C911 H901 0.930 . S
C911 C904 1.409 . S
C911 C910 1.362 . S
H912 C918 0.930 . S
H913 C921 0.930 . S
H914 C922 0.930 . S
H915 C923 0.930 . S
H916 C926 0.930 . S
H917 C927 0.930 . S
C918 H912 0.930 . S
C918 C919 1.355 . S
C918 C920 1.415 . S
C919 C918 1.355 . S
C919 C921 1.419 . S
C920 C918 1.415 . S
C920 C925 1.425 . S
C920 C927 1.409 . S
C921 H913 0.930 . S
C921 C919 1.419 . S
C921 C922 1.362 . S
C922 H914 0.930 . S
C922 C921 1.362 . S
C922 C925 1.409 . S
C923 H915 0.930 . S
C923 C924 1.355 . S
C923 C925 1.415 1_655 S
C924 C923 1.355 . S
C924 C926 1.419 . S
C925 C920 1.425 . S
C925 C922 1.409 . S
C925 C923 1.415 1_455 S
C926 H916 0.930 . S
C926 C924 1.419 . S
C926 C927 1.362 1_655 S
C927 H917 0.930 . S
C927 C920 1.409 . S
C927 C926 1.362 1_455 S
H928 C934 0.930 . S
H929 C937 0.930 . S
H930 C938 0.930 . S
H931 C939 0.930 . S
H932 C942 0.930 . S
H933 C943 0.930 . S
C934 H928 0.930 . S
C934 C935 1.355 . S
C934 C936 1.415 . S
C935 C934 1.355 . S
C935 C937 1.419 . S
C936 C934 1.415 . S
C936 C941 1.425 . S
C936 C943 1.409 . S
C937 H929 0.930 . S
C937 C935 1.419 . S
C937 C938 1.362 . S
C938 H930 0.930 . S
C938 C937 1.362 . S
C938 C941 1.409 . S
C939 H931 0.930 . S
C939 C940 1.355 . S
C939 C941 1.415 . S
C940 C939 1.355 . S
C940 C942 1.419 . S
C941 C936 1.425 . S
C941 C938 1.409 . S
C941 C939 1.415 . S
C942 H932 0.930 . S
C942 C940 1.419 . S
C942 C943 1.362 . S
C943 H933 0.930 . S
C943 C936 1.409 . S
C943 C942 1.362 . S
H944 C950 0.930 . S
H945 C953 0.930 . S
H946 C954 0.930 . S
H947 C955 0.930 . S
H948 C958 0.930 . S
H949 C959 0.930 . S
C950 H944 0.930 . S
C950 C951 1.355 1_554 S
C950 C952 1.415 . S
C951 C950 1.355 1_556 S
C951 C953 1.419 . S
C952 C950 1.415 . S
C952 C957 1.425 . S
C952 C959 1.409 . S
C953 H945 0.930 . S
C953 C951 1.419 . S
C953 C954 1.362 . S
C954 H946 0.930 . S
C954 C953 1.362 . S
C954 C957 1.409 1_556 S
C955 H947 0.930 . S
C955 C956 1.355 . S
C955 C957 1.415 . S
C956 C955 1.355 . S
C956 C958 1.419 . S
C957 C952 1.425 . S
C957 C954 1.409 1_554 S
C957 C955 1.415 . S
C958 H948 0.930 . S
C958 C956 1.419 . S
C958 C959 1.362 . S
C959 H949 0.930 . S
C959 C952 1.409 . S
C959 C958 1.362 . S
H960 C966 0.930 . S
H961 C969 0.930 . S
H962 C970 0.930 . S
H963 C971 0.930 . S
H964 C974 0.930 . S
H965 C975 0.930 . S
C966 H960 0.930 . S
C966 C967 1.355 . S
C966 C968 1.415 . S
C967 C966 1.355 . S
C967 C969 1.419 . S
C968 C966 1.415 . S
C968 C973 1.425 . S
C968 C975 1.409 . S
C969 H961 0.930 . S
C969 C967 1.419 . S
C969 C970 1.362 . S
C970 H962 0.930 . S
C970 C969 1.362 . S
C970 C973 1.409 . S
C971 H963 0.930 . S
C971 C972 1.355 . S
C971 C973 1.415 . S
C972 C971 1.355 . S
C972 C974 1.419 . S
C973 C968 1.425 . S
C973 C970 1.409 . S
C973 C971 1.415 . S
C974 H964 0.930 . S
C974 C972 1.419 . S
C974 C975 1.362 . S
C975 H965 0.930 . S
C975 C968 1.409 . S
C975 C974 1.362 . S
H976 C982 0.930 . S
H977 C985 0.930 . S
H978 C986 0.930 . S
H979 C987 0.930 . S
H980 C990 0.930 . S
H981 C991 0.930 . S
C982 H976 0.930 . S
C982 C983 1.355 . S
C982 C984 1.415 . S
C983 C982 1.355 . S
C983 C985 1.419 . S
C984 C982 1.415 . S
C984 C989 1.425 . S
C984 C991 1.409 . S
C985 H977 0.930 . S
C985 C983 1.419 . S
C985 C986 1.362 . S
C986 H978 0.930 . S
C986 C985 1.362 . S
C986 C989 1.409 . S
C987 H979 0.930 . S
C987 C988 1.355 . S
C987 C989 1.415 . S
C988 C987 1.355 . S
C988 C990 1.419 . S
C989 C984 1.425 . S
C989 C986 1.409 . S
C989 C987 1.415 . S
C990 H980 0.930 . S
C990 C988 1.419 . S
C990 C991 1.362 . S
C991 H981 0.930 . S
C991 C984 1.409 . S
C991 C990 1.362 . S
H992 C998 0.930 . S
H993 C1001 0.930 . S
H994 C1002 0.930 . S
H995 C1003 0.930 . S
H996 C1006 0.930 . S
H997 C1007 0.930 . S
C998 H992 0.930 . S
C998 C999 1.355 . S
C998 C1000 1.415 . S
C999 C998 1.355 . S
C999 C1001 1.419 . S
C1000 C998 1.415 . S
C1000 C1005 1.425 . S
C1000 C1007 1.409 . S
C1001 H993 0.930 . S
C1001 C999 1.419 . S
C1001 C1002 1.362 . S
C1002 H994 0.930 . S
C1002 C1001 1.362 . S
C1002 C1005 1.409 . S
C1003 H995 0.930 . S
C1003 C1004 1.355 . S
C1003 C1005 1.415 . S
C1004 C1003 1.355 . S
C1004 C1006 1.419 . S
C1005 C1000 1.425 . S
C1005 C1002 1.409 . S
C1005 C1003 1.415 . S
C1006 H996 0.930 . S
C1006 C1004 1.419 . S
C1006 C1007 1.362 . S
C1007 H997 0.930 . S
C1007 C1000 1.409 . S
C1007 C1006 1.362 . S
H1008 C1014 0.930 . S
H1009 C1017 0.930 . S
H1010 C1018 0.930 . S
H1011 C1019 0.930 . S
H1012 C1022 0.930 . S
H1013 C1023 0.930 1_655 S
C1014 H1008 0.930 . S
C1014 C1015 1.355 . S
C1014 C1016 1.415 1_654 S
C1015 C1014 1.355 . S
C1015 C1017 1.419 1_655 S
C1016 C1014 1.415 1_456 S
C1016 C1021 1.425 1_556 S
C1016 C1023 1.409 . S
C1017 H1009 0.930 . S
C1017 C1015 1.419 1_455 S
C1017 C1018 1.362 . S
C1018 H1010 0.930 . S
C1018 C1017 1.362 . S
C1018 C1021 1.409 . S
C1019 H1011 0.930 . S
C1019 C1020 1.355 . S
C1019 C1021 1.415 1_556 S
C1020 C1019 1.355 . S
C1020 C1022 1.419 . S
C1021 C1016 1.425 1_554 S
C1021 C1018 1.409 . S
C1021 C1019 1.415 1_554 S
C1022 H1012 0.930 . S
C1022 C1020 1.419 . S
C1022 C1023 1.362 . S
C1023 H1013 0.930 1_455 S
C1023 C1016 1.409 . S
C1023 C1022 1.362 . S
H1024 C1030 0.930 . S
H1025 C1033 0.930 . S
H1026 C1034 0.930 . S
H1027 C1035 0.930 . S
H1028 C1038 0.930 . S
H1029 C1039 0.930 . S
C1030 H1024 0.930 . S
C1030 C1031 1.355 . S
C1030 C1032 1.415 . S
C1031 C1030 1.355 . S
C1031 C1033 1.419 . S
C1032 C1030 1.415 . S
C1032 C1037 1.425 . S
C1032 C1039 1.409 . S
C1033 H1025 0.930 . S
C1033 C1031 1.419 . S
C1033 C1034 1.362 . S
C1034 H1026 0.930 . S
C1034 C1033 1.362 . S
C1034 C1037 1.409 . S
C1035 H1027 0.930 . S
C1035 C1036 1.355 . S
C1035 C1037 1.415 . S
C1036 C1035 1.355 . S
C1036 C1038 1.419 . S
C1037 C1032 1.425 . S
C1037 C1034 1.409 . S
C1037 C1035 1.415 . S
C1038 H1028 0.930 . S
C1038 C1036 1.419 . S
C1038 C1039 1.362 . S
C1039 H1029 0.930 . S
C1039 C1032 1.409 . S
C1039 C1038 1.362 . S
H1040 C1046 0.930 . S
H1041 C1049 0.930 . S
H1042 C1050 0.930 . S
H1043 C1051 0.930 . S
H1044 C1054 0.930 . S
H1045 C1055 0.930 . S
C1046 H1040 0.930 . S
C1046 C1047 1.355 . S
C1046 C1048 1.415 . S
C1047 C1046 1.355 . S
C1047 C1049 1.419 . S
C1048 C1046 1.415 . S
C1048 C1053 1.425 . S
C1048 C1055 1.409 . S
C1049 H1041 0.930 . S
C1049 C1047 1.419 . S
C1049 C1050 1.362 . S
C1050 H1042 0.930 . S
C1050 C1049 1.362 . S
C1050 C1053 1.409 . S
C1051 H1043 0.930 . S
C1051 C1052 1.355 . S
C1051 C1053 1.415 . S
C1052 C1051 1.355 . S
C1052 C1054 1.419 . S
C1053 C1048 1.425 . S
C1053 C1050 1.409 . S
C1053 C1051 1.415 . S
C1054 H1044 0.930 . S
C1054 C1052 1.419 . S
C1054 C1055 1.362 . S
C1055 H1045 0.930 . S
C1055 C1048 1.409 . S
C1055 C1054 1.362 . S
H1056 C1062 0.930 . S
H1057 C1065 0.930 . S
H1058 C1066 0.930 . S
H1059 C1067 0.930 . S
H1060 C1070 0.930 . S
H1061 C1071 0.930 . S
C1062 H1056 0.930 . S
C1062 C1063 1.355 . S
C1062 C1064 1.415 . S
C1063 C1062 1.355 . S
C1063 C1065 1.419 . S
C1064 C1062 1.415 . S
C1064 C1069 1.425 . S
C1064 C1071 1.409 . S
C1065 H1057 0.930 . S
C1065 C1063 1.419 . S
C1065 C1066 1.362 . S
C1066 H1058 0.930 . S
C1066 C1065 1.362 . S
C1066 C1069 1.409 . S
C1067 H1059 0.930 . S
C1067 C1068 1.355 . S
C1067 C1069 1.415 . S
C1068 C1067 1.355 . S
C1068 C1070 1.419 . S
C1069 C1064 1.425 . S
C1069 C1066 1.409 . S
C1069 C1067 1.415 . S
C1070 H1060 0.930 . S
C1070 C1068 1.419 . S
C1070 C1071 1.362 . S
C1071 H1061 0.930 . S
C1071 C1064 1.409 . S
C1071 C1070 1.362 . S
H1072 C1078 0.930 . S
H1073 C1081 0.930 . S
H1074 C1082 0.930 . S
H1075 C1083 0.930 . S
H1076 C1086 0.930 . S
H1077 C1087 0.930 . S
C1078 H1072 0.930 . S
C1078 C1079 1.355 . S
C1078 C1080 1.415 . S
C1079 C1078 1.355 . S
C1079 C1081 1.419 . S
C1080 C1078 1.415 . S
C1080 C1085 1.425 . S
C1080 C1087 1.409 . S
C1081 H1073 0.930 . S
C1081 C1079 1.419 . S
C1081 C1082 1.362 . S
C1082 H1074 0.930 . S
C1082 C1081 1.362 . S
C1082 C1085 1.409 . S
C1083 H1075 0.930 . S
C1083 C1084 1.355 . S
C1083 C1085 1.415 . S
C1084 C1083 1.355 . S
C1084 C1086 1.419 . S
C1085 C1080 1.425 . S
C1085 C1082 1.409 . S
C1085 C1083 1.415 . S
C1086 H1076 0.930 . S
C1086 C1084 1.419 . S
C1086 C1087 1.362 . S
C1087 H1077 0.930 . S
C1087 C1080 1.409 . S
C1087 C1086 1.362 . S
H1088 C1094 0.930 . S
H1089 C1097 0.930 . S
H1090 C1098 0.930 . S
H1091 C1099 0.930 . S
H1092 C1102 0.930 . S
H1093 C1103 0.930 . S
C1094 H1088 0.930 . S
C1094 C1095 1.355 1_554 S
C1094 C1096 1.415 . S
C1095 C1094 1.355 1_556 S
C1095 C1097 1.419 . S
C1096 C1094 1.415 . S
C1096 C1101 1.425 1_545 S
C1096 C1103 1.409 1_545 S
C1097 H1089 0.930 . S
C1097 C1095 1.419 . S
C1097 C1098 1.362 1_556 S
C1098 H1090 0.930 . S
C1098 C1097 1.362 1_554 S
C1098 C1101 1.409 1_545 S
C1099 H1091 0.930 . S
C1099 C1100 1.355 . S
C1099 C1101 1.415 . S
C1100 C1099 1.355 . S
C1100 C1102 1.419 . S
C1101 C1096 1.425 1_565 S
C1101 C1098 1.409 1_565 S
C1101 C1099 1.415 . S
C1102 H1092 0.930 . S
C1102 C1100 1.419 . S
C1102 C1103 1.362 . S
C1103 H1093 0.930 . S
C1103 C1096 1.409 1_565 S
C1103 C1102 1.362 . S
H1104 C1110 0.930 . S
H1105 C1113 0.930 . S
H1106 C1114 0.930 . S
H1107 C1115 0.930 . S
H1108 C1118 0.930 . S
H1109 C1119 0.930 . S
C1110 H1104 0.930 . S
C1110 C1111 1.355 . S
C1110 C1112 1.415 . S
C1111 C1110 1.355 . S
C1111 C1113 1.419 . S
C1112 C1110 1.415 . S
C1112 C1117 1.425 . S
C1112 C1119 1.409 . S
C1113 H1105 0.930 . S
C1113 C1111 1.419 . S
C1113 C1114 1.362 . S
C1114 H1106 0.930 . S
C1114 C1113 1.362 . S
C1114 C1117 1.409 . S
C1115 H1107 0.930 . S
C1115 C1116 1.355 . S
C1115 C1117 1.415 . S
C1116 C1115 1.355 . S
C1116 C1118 1.419 . S
C1117 C1112 1.425 . S
C1117 C1114 1.409 . S
C1117 C1115 1.415 . S
C1118 H1108 0.930 . S
C1118 C1116 1.419 . S
C1118 C1119 1.362 . S
C1119 H1109 0.930 . S
C1119 C1112 1.409 . S
C1119 C1118 1.362 . S
H1120 C1126 0.930 . S
H1121 C1129 0.930 . S
H1122 C1130 0.930 . S
H1123 C1131 0.930 . S
H1124 C1134 0.930 . S
H1125 C1135 0.930 . S
C1126 H1120 0.930 . S
C1126 C1127 1.355 . S
C1126 C1128 1.415 . S
C1127 C1126 1.355 . S
C1127 C1129 1.419 . S
C1128 C1126 1.415 . S
C1128 C1133 1.425 . S
C1128 C1135 1.409 . S
C1129 H1121 0.930 . S
C1129 C1127 1.419 . S
C1129 C1130 1.362 . S
C1130 H1122 0.930 . S
C1130 C1129 1.362 . S
C1130 C1133 1.409 . S
C1131 H1123 0.930 . S
C1131 C1132 1.355 . S
C1131 C1133 1.415 . S
C1132 C1131 1.355 . S
C1132 C1134 1.419 . S
C1133 C1128 1.425 . S
C1133 C1130 1.409 . S
C1133 C1131 1.415 . S
C1134 H1124 0.930 . S
C1134 C1132 1.419 . S
C1134 C1135 1.362 . S
C1135 H1125 0.930 . S
C1135 C1128 1.409 . S
C1135 C1134 1.362 . S
H1136 C1142 0.930 . S
H1137 C1145 0.930 . S
H1138 C1146 0.930 . S
H1139 C1147 0.930 . S
H1140 C1150 0.930 . S
H1141 C1151 0.930 . S
C1142 H1136 0.930 . S
C1142 C1143 1.355 . S
C1142 C1144 1.415 1_554 S
C1143 C1142 1.355 . S
C1143 C1145 1.419 . S
C1144 C1142 1.415 1_556 S
C1144 C1149 1.425 . S
C1144 C1151 1.409 . S
C1145 H1137 0.930 . S
C1145 C1143 1.419 . S
C1145 C1146 1.362 1_554 S
C1146 H1138 0.930 . S
C1146 C1145 1.362 1_556 S
C1146 C1149 1.409 . S
C1147 H1139 0.930 . S
C1147 C1148 1.355 . S
C1147 C1149 1.415 . S
C1148 C1147 1.355 . S
C1148 C1150 1.419 . S
C1149 C1144 1.425 . S
C1149 C1146 1.409 . S
C1149 C1147 1.415 . S
C1150 H1140 0.930 . S
C1150 C1148 1.419 . S
C1150 C1151 1.362 . S
C1151 H1141 0.930 . S
C1151 C1144 1.409 . S
C1151 C1150 1.362 . S
H1152 C1158 0.930 . S
H1153 C1161 0.930 . S
H1154 C1162 0.930 . S
H1155 C1163 0.930 . S
H1156 C1166 0.930 . S
H1157 C1167 0.930 . S
C1158 H1152 0.930 . S
C1158 C1159 1.355 . S
C1158 C1160 1.415 . S
C1159 C1158 1.355 . S
C1159 C1161 1.419 . S
C1160 C1158 1.415 . S
C1160 C1165 1.425 . S
C1160 C1167 1.409 . S
C1161 H1153 0.930 . S
C1161 C1159 1.419 . S
C1161 C1162 1.362 . S
C1162 H1154 0.930 . S
C1162 C1161 1.362 . S
C1162 C1165 1.409 . S
C1163 H1155 0.930 . S
C1163 C1164 1.355 . S
C1163 C1165 1.415 . S
C1164 C1163 1.355 . S
C1164 C1166 1.419 . S
C1165 C1160 1.425 . S
C1165 C1162 1.409 . S
C1165 C1163 1.415 . S
C1166 H1156 0.930 . S
C1166 C1164 1.419 . S
C1166 C1167 1.362 . S
C1167 H1157 0.930 . S
C1167 C1160 1.409 . S
C1167 C1166 1.362 . S
H1168 C1174 0.930 . S
H1169 C1177 0.930 . S
H1170 C1178 0.930 . S
H1171 C1179 0.930 . S
H1172 C1182 0.930 . S
H1173 C1183 0.930 . S
C1174 H1168 0.930 . S
C1174 C1175 1.355 . S
C1174 C1176 1.415 . S
C1175 C1174 1.355 . S
C1175 C1177 1.419 . S
C1176 C1174 1.415 . S
C1176 C1181 1.425 . S
C1176 C1183 1.409 . S
C1177 H1169 0.930 . S
C1177 C1175 1.419 . S
C1177 C1178 1.362 . S
C1178 H1170 0.930 . S
C1178 C1177 1.362 . S
C1178 C1181 1.409 . S
C1179 H1171 0.930 . S
C1179 C1180 1.355 . S
C1179 C1181 1.415 . S
C1180 C1179 1.355 . S
C1180 C1182 1.419 . S
C1181 C1176 1.425 . S
C1181 C1178 1.409 . S
C1181 C1179 1.415 . S
C1182 H1172 0.930 . S
C1182 C1180 1.419 . S
C1182 C1183 1.362 . S
C1183 H1173 0.930 . S
C1183 C1176 1.409 . S
C1183 C1182 1.362 . S
H1184 C1190 0.930 . S
H1185 C1193 0.930 . S
H1186 C1194 0.930 . S
H1187 C1195 0.930 . S
H1188 C1198 0.930 . S
H1189 C1199 0.930 . S
C1190 H1184 0.930 . S
C1190 C1191 1.355 . S
C1190 C1192 1.415 . S
C1191 C1190 1.355 . S
C1191 C1193 1.419 . S
C1192 C1190 1.415 . S
C1192 C1197 1.425 . S
C1192 C1199 1.409 . S
C1193 H1185 0.930 . S
C1193 C1191 1.419 . S
C1193 C1194 1.362 . S
C1194 H1186 0.930 . S
C1194 C1193 1.362 . S
C1194 C1197 1.409 . S
C1195 H1187 0.930 . S
C1195 C1196 1.355 . S
C1195 C1197 1.415 . S
C1196 C1195 1.355 . S
C1196 C1198 1.419 . S
C1197 C1192 1.425 . S
C1197 C1194 1.409 . S
C1197 C1195 1.415 . S
C1198 H1188 0.930 . S
C1198 C1196 1.419 . S
C1198 C1199 1.362 . S
C1199 H1189 0.930 . S
C1199 C1192 1.409 . S
C1199 C1198 1.362 . S
H1200 C1206 0.930 . S
H1201 C1209 0.930 . S
H1202 C1210 0.930 . S
H1203 C1211 0.930 . S
H1204 C1214 0.930 . S
H1205 C1215 0.930 . S
C1206 H1200 0.930 . S
C1206 C1207 1.355 . S
C1206 C1208 1.415 . S
C1207 C1206 1.355 . S
C1207 C1209 1.419 . S
C1208 C1206 1.415 . S
C1208 C1213 1.425 . S
C1208 C1215 1.409 . S
C1209 H1201 0.930 . S
C1209 C1207 1.419 . S
C1209 C1210 1.362 . S
C1210 H1202 0.930 . S
C1210 C1209 1.362 . S
C1210 C1213 1.409 . S
C1211 H1203 0.930 . S
C1211 C1212 1.355 . S
C1211 C1213 1.415 1_655 S
C1212 C1211 1.355 . S
C1212 C1214 1.419 1_655 S
C1213 C1208 1.425 . S
C1213 C1210 1.409 . S
C1213 C1211 1.415 1_455 S
C1214 H1204 0.930 . S
C1214 C1212 1.419 1_455 S
C1214 C1215 1.362 . S
C1215 H1205 0.930 . S
C1215 C1208 1.409 . S
C1215 C1214 1.362 . S
H1216 C1222 0.930 . S
H1217 C1225 0.930 . S
H1218 C1226 0.930 . S
H1219 C1227 0.930 . S
H1220 C1230 0.930 . S
H1221 C1231 0.930 . S
C1222 H1216 0.930 . S
C1222 C1223 1.355 . S
C1222 C1224 1.415 . S
C1223 C1222 1.355 . S
C1223 C1225 1.419 . S
C1224 C1222 1.415 . S
C1224 C1229 1.425 . S
C1224 C1231 1.409 . S
C1225 H1217 0.930 . S
C1225 C1223 1.419 . S
C1225 C1226 1.362 . S
C1226 H1218 0.930 . S
C1226 C1225 1.362 . S
C1226 C1229 1.409 . S
C1227 H1219 0.930 . S
C1227 C1228 1.355 . S
C1227 C1229 1.415 . S
C1228 C1227 1.355 . S
C1228 C1230 1.419 . S
C1229 C1224 1.425 . S
C1229 C1226 1.409 . S
C1229 C1227 1.415 . S
C1230 H1220 0.930 . S
C1230 C1228 1.419 . S
C1230 C1231 1.362 . S
C1231 H1221 0.930 . S
C1231 C1224 1.409 . S
C1231 C1230 1.362 . S
H1232 C1238 0.930 . S
H1233 C1241 0.930 . S
H1234 C1242 0.930 . S
H1235 C1243 0.930 . S
H1236 C1246 0.930 . S
H1237 C1247 0.930 1_655 S
C1238 H1232 0.930 . S
C1238 C1239 1.355 . S
C1238 C1240 1.415 1_655 S
C1239 C1238 1.355 . S
C1239 C1241 1.419 1_655 S
C1240 C1238 1.415 1_455 S
C1240 C1245 1.425 . S
C1240 C1247 1.409 . S
C1241 H1233 0.930 . S
C1241 C1239 1.419 1_455 S
C1241 C1242 1.362 . S
C1242 H1234 0.930 . S
C1242 C1241 1.362 . S
C1242 C1245 1.409 . S
C1243 H1235 0.930 . S
C1243 C1244 1.355 . S
C1243 C1245 1.415 . S
C1244 C1243 1.355 . S
C1244 C1246 1.419 . S
C1245 C1240 1.425 . S
C1245 C1242 1.409 . S
C1245 C1243 1.415 . S
C1246 H1236 0.930 . S
C1246 C1244 1.419 . S
C1246 C1247 1.362 . S
C1247 H1237 0.930 1_455 S
C1247 C1240 1.409 . S
C1247 C1246 1.362 . S
H1248 C1254 0.930 . S
H1249 C1257 0.930 . S
H1250 C1258 0.930 . S
H1251 C1259 0.930 . S
H1252 C1262 0.930 . S
H1253 C1263 0.930 . S
C1254 H1248 0.930 . S
C1254 C1255 1.355 . S
C1254 C1256 1.415 . S
C1255 C1254 1.355 . S
C1255 C1257 1.419 . S
C1256 C1254 1.415 . S
C1256 C1261 1.425 . S
C1256 C1263 1.409 . S
C1257 H1249 0.930 . S
C1257 C1255 1.419 . S
C1257 C1258 1.362 . S
C1258 H1250 0.930 . S
C1258 C1257 1.362 . S
C1258 C1261 1.409 . S
C1259 H1251 0.930 . S
C1259 C1260 1.355 . S
C1259 C1261 1.415 . S
C1260 C1259 1.355 . S
C1260 C1262 1.419 . S
C1261 C1256 1.425 . S
C1261 C1258 1.409 . S
C1261 C1259 1.415 . S
C1262 H1252 0.930 . S
C1262 C1260 1.419 . S
C1262 C1263 1.362 . S
C1263 H1253 0.930 . S
C1263 C1256 1.409 . S
C1263 C1262 1.362 . S
H1264 C1270 0.930 . S
H1265 C1273 0.930 . S
H1266 C1274 0.930 . S
H1267 C1275 0.930 . S
H1268 C1278 0.930 . S
H1269 C1279 0.930 . S
C1270 H1264 0.930 . S
C1270 C1271 1.355 . S
C1270 C1272 1.415 . S
C1271 C1270 1.355 . S
C1271 C1273 1.419 . S
C1272 C1270 1.415 . S
C1272 C1277 1.425 . S
C1272 C1279 1.409 . S
C1273 H1265 0.930 . S
C1273 C1271 1.419 . S
C1273 C1274 1.362 . S
C1274 H1266 0.930 . S
C1274 C1273 1.362 . S
C1274 C1277 1.409 . S
C1275 H1267 0.930 . S
C1275 C1276 1.355 . S
C1275 C1277 1.415 . S
C1276 C1275 1.355 . S
C1276 C1278 1.419 . S
C1277 C1272 1.425 . S
C1277 C1274 1.409 . S
C1277 C1275 1.415 . S
C1278 H1268 0.930 . S
C1278 C1276 1.419 . S
C1278 C1279 1.362 . S
C1279 H1269 0.930 . S
C1279 C1272 1.409 . S
C1279 C1278 1.362 . S
H1280 C1286 0.930 . S
H1281 C1289 0.930 . S
H1282 C1290 0.930 . S
H1283 C1291 0.930 . S
H1284 C1294 0.930 . S
H1285 C1295 0.930 . S
C1286 H1280 0.930 . S
C1286 C1287 1.355 . S
C1286 C1288 1.415 . S
C1287 C1286 1.355 . S
C1287 C1289 1.419 . S
C1288 C1286 1.415 . S
C1288 C1293 1.425 . S
C1288 C1295 1.409 . S
C1289 H1281 0.930 . S
C1289 C1287 1.419 . S
C1289 C1290 1.362 . S
C1290 H1282 0.930 . S
C1290 C1289 1.362 . S
C1290 C1293 1.409 . S
C1291 H1283 0.930 . S
C1291 C1292 1.355 . S
C1291 C1293 1.415 . S
C1292 C1291 1.355 . S
C1292 C1294 1.419 . S
C1293 C1288 1.425 . S
C1293 C1290 1.409 . S
C1293 C1291 1.415 . S
C1294 H1284 0.930 . S
C1294 C1292 1.419 . S
C1294 C1295 1.362 . S
C1295 H1285 0.930 . S
C1295 C1288 1.409 . S
C1295 C1294 1.362 . S
H1296 C1302 0.930 . S
H1297 C1305 0.930 . S
H1298 C1306 0.930 . S
H1299 C1307 0.930 . S
H1300 C1310 0.930 . S
H1301 C1311 0.930 . S
C1302 H1296 0.930 . S
C1302 C1303 1.355 . S
C1302 C1304 1.415 . S
C1303 C1302 1.355 . S
C1303 C1305 1.419 . S
C1304 C1302 1.415 . S
C1304 C1309 1.425 . S
C1304 C1311 1.409 . S
C1305 H1297 0.930 . S
C1305 C1303 1.419 . S
C1305 C1306 1.362 1_554 S
C1306 H1298 0.930 . S
C1306 C1305 1.362 1_556 S
C1306 C1309 1.409 1_556 S
C1307 H1299 0.930 . S
C1307 C1308 1.355 . S
C1307 C1309 1.415 1_556 S
C1308 C1307 1.355 . S
C1308 C1310 1.419 1_556 S
C1309 C1304 1.425 . S
C1309 C1306 1.409 1_554 S
C1309 C1307 1.415 1_554 S
C1310 H1300 0.930 . S
C1310 C1308 1.419 1_554 S
C1310 C1311 1.362 . S
C1311 H1301 0.930 . S
C1311 C1304 1.409 . S
C1311 C1310 1.362 . S
H1312 C1318 0.930 . S
H1313 C1321 0.930 . S
H1314 C1322 0.930 . S
H1315 C1323 0.930 . S
H1316 C1326 0.930 . S
H1317 C1327 0.930 . S
C1318 H1312 0.930 . S
C1318 C1319 1.355 . S
C1318 C1320 1.415 . S
C1319 C1318 1.355 . S
C1319 C1321 1.419 . S
C1320 C1318 1.415 . S
C1320 C1325 1.425 . S
C1320 C1327 1.409 . S
C1321 H1313 0.930 . S
C1321 C1319 1.419 . S
C1321 C1322 1.362 . S
C1322 H1314 0.930 . S
C1322 C1321 1.362 . S
C1322 C1325 1.409 . S
C1323 H1315 0.930 . S
C1323 C1324 1.355 . S
C1323 C1325 1.415 . S
C1324 C1323 1.355 . S
C1324 C1326 1.419 . S
C1325 C1320 1.425 . S
C1325 C1322 1.409 . S
C1325 C1323 1.415 . S
C1326 H1316 0.930 . S
C1326 C1324 1.419 . S
C1326 C1327 1.362 . S
C1327 H1317 0.930 . S
C1327 C1320 1.409 . S
C1327 C1326 1.362 . S
H1328 C1334 0.930 . S
H1329 C1337 0.930 . S
H1330 C1338 0.930 . S
H1331 C1339 0.930 . S
H1332 C1342 0.930 . S
H1333 C1343 0.930 1_455 S
C1334 H1328 0.930 . S
C1334 C1335 1.355 . S
C1334 C1336 1.415 1_455 S
C1335 C1334 1.355 . S
C1335 C1337 1.419 . S
C1336 C1334 1.415 1_655 S
C1336 C1341 1.425 . S
C1336 C1343 1.409 . S
C1337 H1329 0.930 . S
C1337 C1335 1.419 . S
C1337 C1338 1.362 1_455 S
C1338 H1330 0.930 . S
C1338 C1337 1.362 1_655 S
C1338 C1341 1.409 . S
C1339 H1331 0.930 . S
C1339 C1340 1.355 . S
C1339 C1341 1.415 . S
C1340 C1339 1.355 . S
C1340 C1342 1.419 . S
C1341 C1336 1.425 . S
C1341 C1338 1.409 . S
C1341 C1339 1.415 . S
C1342 H1332 0.930 . S
C1342 C1340 1.419 . S
C1342 C1343 1.362 . S
C1343 H1333 0.930 1_655 S
C1343 C1336 1.409 . S
C1343 C1342 1.362 . S
H1344 C1350 0.930 . S
H1345 C1353 0.930 . S
H1346 C1354 0.930 . S
H1347 C1355 0.930 . S
H1348 C1358 0.930 . S
H1349 C1359 0.930 . S
C1350 H1344 0.930 . S
C1350 C1351 1.355 . S
C1350 C1352 1.415 . S
C1351 C1350 1.355 . S
C1351 C1353 1.419 . S
C1352 C1350 1.415 . S
C1352 C1357 1.425 . S
C1352 C1359 1.409 . S
C1353 H1345 0.930 . S
C1353 C1351 1.419 . S
C1353 C1354 1.362 . S
C1354 H1346 0.930 . S
C1354 C1353 1.362 . S
C1354 C1357 1.409 . S
C1355 H1347 0.930 . S
C1355 C1356 1.355 . S
C1355 C1357 1.415 . S
C1356 C1355 1.355 . S
C1356 C1358 1.419 . S
C1357 C1352 1.425 . S
C1357 C1354 1.409 . S
C1357 C1355 1.415 . S
C1358 H1348 0.930 . S
C1358 C1356 1.419 . S
C1358 C1359 1.362 . S
C1359 H1349 0.930 . S
C1359 C1352 1.409 . S
C1359 C1358 1.362 . S
H1360 C1366 0.930 . S
H1361 C1369 0.930 . S
H1362 C1370 0.930 . S
H1363 C1371 0.930 . S
H1364 C1374 0.930 . S
H1365 C1375 0.930 . S
C1366 H1360 0.930 . S
C1366 C1367 1.355 . S
C1366 C1368 1.415 . S
C1367 C1366 1.355 . S
C1367 C1369 1.419 . S
C1368 C1366 1.415 . S
C1368 C1373 1.425 . S
C1368 C1375 1.409 . S
C1369 H1361 0.930 . S
C1369 C1367 1.419 . S
C1369 C1370 1.362 . S
C1370 H1362 0.930 . S
C1370 C1369 1.362 . S
C1370 C1373 1.409 . S
C1371 H1363 0.930 . S
C1371 C1372 1.351 1_556 S
C1371 C1373 1.415 1_455 S
C1372 C1371 1.351 1_554 S
C1372 C1374 1.415 1_554 S
C1373 C1368 1.425 . S
C1373 C1370 1.409 . S
C1373 C1371 1.415 1_655 S
C1374 H1364 0.930 . S
C1374 C1372 1.415 1_556 S
C1374 C1375 1.362 1_455 S
C1375 H1365 0.930 . S
C1375 C1368 1.409 . S
C1375 C1374 1.362 1_655 S
H1376 C1382 0.930 . S
H1377 C1385 0.930 . S
H1378 C1386 0.930 . S
H1379 C1387 0.930 . S
H1380 C1390 0.930 . S
H1381 C1391 0.930 . S
C1382 H1376 0.930 . S
C1382 C1383 1.355 . S
C1382 C1384 1.415 . S
C1383 C1382 1.355 . S
C1383 C1385 1.419 . S
C1384 C1382 1.415 . S
C1384 C1389 1.425 . S
C1384 C1391 1.409 . S
C1385 H1377 0.930 . S
C1385 C1383 1.419 . S
C1385 C1386 1.362 . S
C1386 H1378 0.930 . S
C1386 C1385 1.362 . S
C1386 C1389 1.409 . S
C1387 H1379 0.930 . S
C1387 C1388 1.355 . S
C1387 C1389 1.415 . S
C1388 C1387 1.355 . S
C1388 C1390 1.419 . S
C1389 C1384 1.425 . S
C1389 C1386 1.409 . S
C1389 C1387 1.415 . S
C1390 H1380 0.930 . S
C1390 C1388 1.419 . S
C1390 C1391 1.362 . S
C1391 H1381 0.930 . S
C1391 C1384 1.409 . S
C1391 C1390 1.362 . S
H1392 C1398 0.930 . S
H1393 C1401 0.930 . S
H1394 C1402 0.930 . S
H1395 C1403 0.930 . S
H1396 C1406 0.930 . S
H1397 C1407 0.930 . S
C1398 H1392 0.930 . S
C1398 C1399 1.355 . S
C1398 C1400 1.415 . S
C1399 C1398 1.355 . S
C1399 C1401 1.419 . S
C1400 C1398 1.415 . S
C1400 C1405 1.425 . S
C1400 C1407 1.409 . S
C1401 H1393 0.930 . S
C1401 C1399 1.419 . S
C1401 C1402 1.362 . S
C1402 H1394 0.930 . S
C1402 C1401 1.362 . S
C1402 C1405 1.409 . S
C1403 H1395 0.930 . S
C1403 C1404 1.355 . S
C1403 C1405 1.415 . S
C1404 C1403 1.355 . S
C1404 C1406 1.419 . S
C1405 C1400 1.425 . S
C1405 C1402 1.409 . S
C1405 C1403 1.415 . S
C1406 H1396 0.930 . S
C1406 C1404 1.419 . S
C1406 C1407 1.362 . S
C1407 H1397 0.930 . S
C1407 C1400 1.409 . S
C1407 C1406 1.362 . S
H1408 C1414 0.930 . S
H1409 C1417 0.930 . S
H1410 C1418 0.930 . S
H1411 C1419 0.930 . S
H1412 C1422 0.930 . S
H1413 C1423 0.930 . S
C1414 H1408 0.930 . S
C1414 C1415 1.355 . S
C1414 C1416 1.415 . S
C1415 C1414 1.355 . S
C1415 C1417 1.419 . S
C1416 C1414 1.415 . S
C1416 C1421 1.425 . S
C1416 C1423 1.409 . S
C1417 H1409 0.930 . S
C1417 C1415 1.419 . S
C1417 C1418 1.362 . S
C1418 H1410 0.930 . S
C1418 C1417 1.362 . S
C1418 C1421 1.409 . S
C1419 H1411 0.930 . S
C1419 C1420 1.355 . S
C1419 C1421 1.415 . S
C1420 C1419 1.355 . S
C1420 C1422 1.419 . S
C1421 C1416 1.425 . S
C1421 C1418 1.409 . S
C1421 C1419 1.415 . S
C1422 H1412 0.930 . S
C1422 C1420 1.419 . S
C1422 C1423 1.362 . S
C1423 H1413 0.930 . S
C1423 C1416 1.409 . S
C1423 C1422 1.362 . S
H1424 C1430 0.930 . S
H1425 C1433 0.930 . S
H1426 C1434 0.930 . S
H1427 C1435 0.930 . S
H1428 C1438 0.930 . S
H1429 C1439 0.930 . S
C1430 H1424 0.930 . S
C1430 C1431 1.355 . S
C1430 C1432 1.415 . S
C1431 C1430 1.355 . S
C1431 C1433 1.419 . S
C1432 C1430 1.415 . S
C1432 C1437 1.425 . S
C1432 C1439 1.409 . S
C1433 H1425 0.930 . S
C1433 C1431 1.419 . S
C1433 C1434 1.362 . S
C1434 H1426 0.930 . S
C1434 C1433 1.362 . S
C1434 C1437 1.409 . S
C1435 H1427 0.930 . S
C1435 C1436 1.355 . S
C1435 C1437 1.415 . S
C1436 C1435 1.355 . S
C1436 C1438 1.419 . S
C1437 C1432 1.425 . S
C1437 C1434 1.409 . S
C1437 C1435 1.415 . S
C1438 H1428 0.930 . S
C1438 C1436 1.419 . S
C1438 C1439 1.362 . S
C1439 H1429 0.930 . S
C1439 C1432 1.409 . S
C1439 C1438 1.362 . S
H1440 C1446 0.930 . S
H1441 C1449 0.930 . S
H1442 C1450 0.930 . S
H1443 C1451 0.930 . S
H1444 C1454 0.930 . S
H1445 C1455 0.930 . S
C1446 H1440 0.930 . S
C1446 C1447 1.355 . S
C1446 C1448 1.415 . S
C1447 C1446 1.355 . S
C1447 C1449 1.419 . S
C1448 C1446 1.415 . S
C1448 C1453 1.425 1_545 S
C1448 C1455 1.409 . S
C1449 H1441 0.930 . S
C1449 C1447 1.419 . S
C1449 C1450 1.362 1_545 S
C1450 H1442 0.930 . S
C1450 C1449 1.362 1_565 S
C1450 C1453 1.409 . S
C1451 H1443 0.930 . S
C1451 C1452 1.355 . S
C1451 C1453 1.415 . S
C1452 C1451 1.355 . S
C1452 C1454 1.419 . S
C1453 C1448 1.425 1_565 S
C1453 C1450 1.409 . S
C1453 C1451 1.415 . S
C1454 H1444 0.930 . S
C1454 C1452 1.419 . S
C1454 C1455 1.362 1_565 S
C1455 H1445 0.930 . S
C1455 C1448 1.409 . S
C1455 C1454 1.362 1_545 S
H1456 C1462 0.930 . S
H1457 C1465 0.930 . S
H1458 C1466 0.930 . S
H1459 C1467 0.930 . S
H1460 C1470 0.930 . S
H1461 C1471 0.930 . S
C1462 H1456 0.930 . S
C1462 C1463 1.355 . S
C1462 C1464 1.415 . S
C1463 C1462 1.355 . S
C1463 C1465 1.419 . S
C1464 C1462 1.415 . S
C1464 C1469 1.425 . S
C1464 C1471 1.409 . S
C1465 H1457 0.930 . S
C1465 C1463 1.419 . S
C1465 C1466 1.362 . S
C1466 H1458 0.930 . S
C1466 C1465 1.362 . S
C1466 C1469 1.409 . S
C1467 H1459 0.930 . S
C1467 C1468 1.355 . S
C1467 C1469 1.415 . S
C1468 C1467 1.355 . S
C1468 C1470 1.419 . S
C1469 C1464 1.425 . S
C1469 C1466 1.409 . S
C1469 C1467 1.415 . S
C1470 H1460 0.930 . S
C1470 C1468 1.419 . S
C1470 C1471 1.362 . S
C1471 H1461 0.930 . S
C1471 C1464 1.409 . S
C1471 C1470 1.362 . S
H1472 C1478 0.930 . S
H1473 C1481 0.930 . S
H1474 C1482 0.930 . S
H1475 C1483 0.930 . S
H1476 C1486 0.930 . S
H1477 C1487 0.930 . S
C1478 H1472 0.930 . S
C1478 C1479 1.355 . S
C1478 C1480 1.415 . S
C1479 C1478 1.355 . S
C1479 C1481 1.419 . S
C1480 C1478 1.415 . S
C1480 C1485 1.425 . S
C1480 C1487 1.409 . S
C1481 H1473 0.930 . S
C1481 C1479 1.419 . S
C1481 C1482 1.362 . S
C1482 H1474 0.930 . S
C1482 C1481 1.362 . S
C1482 C1485 1.409 . S
C1483 H1475 0.930 . S
C1483 C1484 1.355 . S
C1483 C1485 1.415 . S
C1484 C1483 1.355 . S
C1484 C1486 1.419 . S
C1485 C1480 1.425 . S
C1485 C1482 1.409 . S
C1485 C1483 1.415 . S
C1486 H1476 0.930 . S
C1486 C1484 1.419 . S
C1486 C1487 1.362 . S
C1487 H1477 0.930 . S
C1487 C1480 1.409 . S
C1487 C1486 1.362 . S
H1488 C1494 0.930 . S
H1489 C1497 0.930 . S
H1490 C1498 0.930 . S
H1491 C1499 0.930 . S
H1492 C1502 0.930 . S
H1493 C1503 0.930 . S
C1494 H1488 0.930 . S
C1494 C1495 1.355 . S
C1494 C1496 1.415 . S
C1495 C1494 1.355 . S
C1495 C1497 1.419 . S
C1496 C1494 1.415 . S
C1496 C1501 1.425 . S
C1496 C1503 1.409 . S
C1497 H1489 0.930 . S
C1497 C1495 1.419 . S
C1497 C1498 1.362 . S
C1498 H1490 0.930 . S
C1498 C1497 1.362 . S
C1498 C1501 1.409 . S
C1499 H1491 0.930 . S
C1499 C1500 1.355 . S
C1499 C1501 1.415 . S
C1500 C1499 1.355 . S
C1500 C1502 1.419 . S
C1501 C1496 1.425 . S
C1501 C1498 1.409 . S
C1501 C1499 1.415 . S
C1502 H1492 0.930 . S
C1502 C1500 1.419 . S
C1502 C1503 1.362 . S
C1503 H1493 0.930 . S
C1503 C1496 1.409 . S
C1503 C1502 1.362 . S
H1504 C1510 0.930 . S
H1505 C1513 0.930 . S
H1506 C1514 0.930 . S
H1507 C1515 0.930 . S
H1508 C1518 0.930 . S
H1509 C1519 0.942 . S
C1510 H1504 0.930 . S
C1510 C1511 1.355 . S
C1510 C1512 1.415 . S
C1511 C1510 1.355 . S
C1511 C1513 1.419 . S
C1512 C1510 1.415 . S
C1512 C1517 1.425 1_565 S
C1512 C1519 1.386 1_556 S
C1513 H1505 0.930 . S
C1513 C1511 1.419 . S
C1513 C1514 1.362 1_565 S
C1514 H1506 0.930 . S
C1514 C1513 1.362 1_545 S
C1514 C1517 1.409 . S
C1515 H1507 0.930 . S
C1515 C1516 1.355 1_556 S
C1515 C1517 1.415 . S
C1516 C1515 1.355 1_554 S
C1516 C1518 1.419 . S
C1517 C1512 1.425 1_545 S
C1517 C1514 1.409 . S
C1517 C1515 1.415 . S
C1518 H1508 0.930 . S
C1518 C1516 1.419 . S
C1518 C1519 1.374 1_545 S
C1519 H1509 0.942 . S
C1519 C1512 1.386 1_554 S
C1519 C1518 1.374 1_565 S
H1520 C1526 0.930 . S
H1521 C1529 0.930 . S
H1522 C1530 0.930 . S
H1523 C1531 0.930 . S
H1524 C1534 0.930 . S
H1525 C1535 0.930 . S
C1526 H1520 0.930 . S
C1526 C1527 1.355 . S
C1526 C1528 1.415 . S
C1527 C1526 1.355 . S
C1527 C1529 1.419 . S
C1528 C1526 1.415 . S
C1528 C1533 1.425 . S
C1528 C1535 1.409 . S
C1529 H1521 0.930 . S
C1529 C1527 1.419 . S
C1529 C1530 1.362 1_545 S
C1530 H1522 0.930 . S
C1530 C1529 1.362 1_565 S
C1530 C1533 1.409 1_565 S
C1531 H1523 0.930 . S
C1531 C1532 1.355 1_565 S
C1531 C1533 1.415 1_565 S
C1532 C1531 1.355 1_545 S
C1532 C1534 1.419 . S
C1533 C1528 1.425 . S
C1533 C1530 1.409 1_545 S
C1533 C1531 1.415 1_545 S
C1534 H1524 0.930 . S
C1534 C1532 1.419 . S
C1534 C1535 1.362 . S
C1535 H1525 0.930 . S
C1535 C1528 1.409 . S
C1535 C1534 1.362 . S
H1536 C1542 0.930 . S
H1537 C1545 0.930 . S
H1538 C1546 0.930 . S
H1539 C1547 0.930 . S
H1540 C1550 0.930 . S
H1541 C1551 0.930 . S
C1542 H1536 0.930 . S
C1542 C1543 1.355 . S
C1542 C1544 1.415 . S
C1543 C1542 1.355 . S
C1543 C1545 1.419 . S
C1544 C1542 1.415 . S
C1544 C1549 1.425 . S
C1544 C1551 1.409 . S
C1545 H1537 0.930 . S
C1545 C1543 1.419 . S
C1545 C1546 1.362 . S
C1546 H1538 0.930 . S
C1546 C1545 1.362 . S
C1546 C1549 1.409 . S
C1547 H1539 0.930 . S
C1547 C1548 1.355 . S
C1547 C1549 1.415 . S
C1548 C1547 1.355 . S
C1548 C1550 1.419 . S
C1549 C1544 1.425 . S
C1549 C1546 1.409 . S
C1549 C1547 1.415 . S
C1550 H1540 0.930 . S
C1550 C1548 1.419 . S
C1550 C1551 1.362 . S
C1551 H1541 0.930 . S
C1551 C1544 1.409 . S
C1551 C1550 1.362 . S
H1552 C1558 0.930 . S
H1553 C1561 0.930 . S
H1554 C1562 0.930 . S
H1555 C1563 0.930 . S
H1556 C1566 0.930 . S
H1557 C1567 0.930 . S
C1558 H1552 0.930 . S
C1558 C1559 1.355 . S
C1558 C1560 1.415 . S
C1559 C1558 1.355 . S
C1559 C1561 1.419 . S
C1560 C1558 1.415 . S
C1560 C1565 1.425 1_455 S
C1560 C1567 1.409 . S
C1561 H1553 0.930 . S
C1561 C1559 1.419 . S
C1561 C1562 1.362 1_455 S
C1562 H1554 0.930 . S
C1562 C1561 1.362 1_655 S
C1562 C1565 1.409 . S
C1563 H1555 0.930 . S
C1563 C1564 1.355 . S
C1563 C1565 1.415 . S
C1564 C1563 1.355 . S
C1564 C1566 1.419 . S
C1565 C1560 1.425 1_655 S
C1565 C1562 1.409 . S
C1565 C1563 1.415 . S
C1566 H1556 0.930 . S
C1566 C1564 1.419 . S
C1566 C1567 1.362 1_655 S
C1567 H1557 0.930 . S
C1567 C1560 1.409 . S
C1567 C1566 1.362 1_455 S
H1568 C1574 0.930 . S
H1569 C1577 0.930 . S
H1570 C1578 0.930 . S
H1571 C1579 0.930 . S
H1572 C1582 0.930 . S
H1573 C1583 0.930 1_554 S
C1574 H1568 0.930 . S
C1574 C1575 1.355 . S
C1574 C1576 1.415 . S
C1575 C1574 1.355 . S
C1575 C1577 1.419 . S
C1576 C1574 1.415 . S
C1576 C1581 1.425 1_554 S
C1576 C1583 1.409 1_554 S
C1577 H1569 0.930 . S
C1577 C1575 1.419 . S
C1577 C1578 1.362 1_554 S
C1578 H1570 0.930 . S
C1578 C1577 1.362 1_556 S
C1578 C1581 1.409 . S
C1579 H1571 0.930 . S
C1579 C1580 1.355 . S
C1579 C1581 1.415 . S
C1580 C1579 1.355 . S
C1580 C1582 1.419 . S
C1581 C1576 1.425 1_556 S
C1581 C1578 1.409 . S
C1581 C1579 1.415 . S
C1582 H1572 0.930 . S
C1582 C1580 1.419 . S
C1582 C1583 1.362 . S
C1583 H1573 0.930 1_556 S
C1583 C1576 1.409 1_556 S
C1583 C1582 1.362 . S
H1584 C1590 0.930 . S
H1585 C1593 0.930 . S
H1586 C1594 0.930 . S
H1587 C1595 0.930 . S
H1588 C1598 0.930 . S
H1589 C1599 0.930 . S
C1590 H1584 0.930 . S
C1590 C1591 1.355 . S
C1590 C1592 1.415 . S
C1591 C1590 1.355 . S
C1591 C1593 1.419 . S
C1592 C1590 1.415 . S
C1592 C1597 1.425 . S
C1592 C1599 1.409 . S
C1593 H1585 0.930 . S
C1593 C1591 1.419 . S
C1593 C1594 1.362 . S
C1594 H1586 0.930 . S
C1594 C1593 1.362 . S
C1594 C1597 1.409 . S
C1595 H1587 0.930 . S
C1595 C1596 1.355 . S
C1595 C1597 1.415 . S
C1596 C1595 1.355 . S
C1596 C1598 1.419 . S
C1597 C1592 1.425 . S
C1597 C1594 1.409 . S
C1597 C1595 1.415 . S
C1598 H1588 0.930 . S
C1598 C1596 1.419 . S
C1598 C1599 1.362 . S
C1599 H1589 0.930 . S
C1599 C1592 1.409 . S
C1599 C1598 1.362 . S
H1600 C1606 0.930 . S
H1601 C1609 0.930 . S
H1602 C1610 0.930 . S
H1603 C1611 0.930 . S
H1604 C1614 0.930 . S
H1605 C1615 0.930 . S
C1606 H1600 0.930 . S
C1606 C1607 1.355 . S
C1606 C1608 1.415 1_556 S
C1607 C1606 1.355 . S
C1607 C1609 1.419 . S
C1608 C1606 1.415 1_554 S
C1608 C1613 1.425 1_554 S
C1608 C1615 1.409 . S
C1609 H1601 0.930 . S
C1609 C1607 1.419 . S
C1609 C1610 1.362 . S
C1610 H1602 0.930 . S
C1610 C1609 1.362 . S
C1610 C1613 1.409 . S
C1611 H1603 0.930 . S
C1611 C1612 1.355 . S
C1611 C1613 1.415 1_554 S
C1612 C1611 1.355 . S
C1612 C1614 1.419 . S
C1613 C1608 1.425 1_556 S
C1613 C1610 1.409 . S
C1613 C1611 1.415 1_556 S
C1614 H1604 0.930 . S
C1614 C1612 1.419 . S
C1614 C1615 1.362 . S
C1615 H1605 0.930 . S
C1615 C1608 1.409 . S
C1615 C1614 1.362 . S
H1616 C1622 0.930 . S
H1617 C1625 0.930 . S
H1618 C1626 0.930 . S
H1619 C1627 0.930 . S
H1620 C1630 0.930 . S
H1621 C1631 0.930 . S
C1622 H1616 0.930 . S
C1622 C1623 1.355 . S
C1622 C1624 1.415 . S
C1623 C1622 1.355 . S
C1623 C1625 1.419 . S
C1624 C1622 1.415 . S
C1624 C1629 1.425 . S
C1624 C1631 1.409 . S
C1625 H1617 0.930 . S
C1625 C1623 1.419 . S
C1625 C1626 1.362 . S
C1626 H1618 0.930 . S
C1626 C1625 1.362 . S
C1626 C1629 1.409 . S
C1627 H1619 0.930 . S
C1627 C1628 1.355 . S
C1627 C1629 1.415 . S
C1628 C1627 1.355 . S
C1628 C1630 1.419 . S
C1629 C1624 1.425 . S
C1629 C1626 1.409 . S
C1629 C1627 1.415 . S
C1630 H1620 0.930 . S
C1630 C1628 1.419 . S
C1630 C1631 1.362 . S
C1631 H1621 0.930 . S
C1631 C1624 1.409 . S
C1631 C1630 1.362 . S
H1632 C1638 0.930 . S
H1633 C1641 0.930 . S
H1634 C1642 0.930 . S
H1635 C1643 0.930 . S
H1636 C1646 0.930 . S
H1637 C1647 0.930 . S
C1638 H1632 0.930 . S
C1638 C1639 1.355 . S
C1638 C1640 1.415 . S
C1639 C1638 1.355 . S
C1639 C1641 1.419 . S
C1640 C1638 1.415 . S
C1640 C1645 1.425 . S
C1640 C1647 1.409 . S
C1641 H1633 0.930 . S
C1641 C1639 1.419 . S
C1641 C1642 1.362 . S
C1642 H1634 0.930 . S
C1642 C1641 1.362 . S
C1642 C1645 1.409 . S
C1643 H1635 0.930 . S
C1643 C1644 1.355 . S
C1643 C1645 1.415 . S
C1644 C1643 1.355 . S
C1644 C1646 1.419 . S
C1645 C1640 1.425 . S
C1645 C1642 1.409 . S
C1645 C1643 1.415 . S
C1646 H1636 0.930 . S
C1646 C1644 1.419 . S
C1646 C1647 1.362 . S
C1647 H1637 0.930 . S
C1647 C1640 1.409 . S
C1647 C1646 1.362 . S
H1648 C1654 0.933 . S
H1649 C1657 0.930 . S
H1650 C1658 0.930 . S
H1651 C1659 0.930 . S
H1652 C1662 0.930 . S
H1653 C1663 0.930 . S
C1654 H1648 0.933 . S
C1654 C1655 1.355 . S
C1654 C1656 1.415 1_655 S
C1655 C1654 1.355 . S
C1655 C1657 1.419 . S
C1656 C1654 1.415 1_455 S
C1656 C1661 1.425 1_455 S
C1656 C1663 1.409 . S
C1657 H1649 0.930 . S
C1657 C1655 1.419 . S
C1657 C1658 1.362 . S
C1658 H1650 0.930 . S
C1658 C1657 1.362 . S
C1658 C1661 1.409 . S
C1659 H1651 0.930 . S
C1659 C1660 1.355 . S
C1659 C1661 1.415 1_455 S
C1660 C1659 1.355 . S
C1660 C1662 1.419 . S
C1661 C1656 1.425 1_655 S
C1661 C1658 1.409 . S
C1661 C1659 1.415 1_655 S
C1662 H1652 0.930 . S
C1662 C1660 1.419 . S
C1662 C1663 1.362 . S
C1663 H1653 0.930 . S
C1663 C1656 1.409 . S
C1663 C1662 1.362 . S
H1664 C1670 0.930 . S
H1665 C1673 0.930 . S
H1666 C1674 0.930 . S
H1667 C1675 0.930 . S
H1668 C1678 0.930 . S
H1669 C1679 0.930 . S
C1670 H1664 0.930 . S
C1670 C1671 1.355 . S
C1670 C1672 1.415 . S
C1671 C1670 1.355 . S
C1671 C1673 1.419 . S
C1672 C1670 1.415 . S
C1672 C1677 1.425 . S
C1672 C1679 1.409 . S
C1673 H1665 0.930 . S
C1673 C1671 1.419 . S
C1673 C1674 1.362 . S
C1674 H1666 0.930 . S
C1674 C1673 1.362 . S
C1674 C1677 1.409 . S
C1675 H1667 0.930 . S
C1675 C1676 1.355 . S
C1675 C1677 1.415 . S
C1676 C1675 1.355 . S
C1676 C1678 1.419 . S
C1677 C1672 1.425 . S
C1677 C1674 1.409 . S
C1677 C1675 1.415 . S
C1678 H1668 0.930 . S
C1678 C1676 1.419 . S
C1678 C1679 1.362 . S
C1679 H1669 0.930 . S
C1679 C1672 1.409 . S
C1679 C1678 1.362 . S
H1680 C1686 0.934 . S
H1681 C1689 0.930 . S
H1682 C1690 0.930 . S
H1683 C1691 0.930 . S
H1684 C1694 0.930 . S
H1685 C1695 0.930 . S
C1686 H1680 0.934 . S
C1686 C1687 1.355 . S
C1686 C1688 1.415 1_545 S
C1687 C1686 1.355 . S
C1687 C1689 1.419 . S
C1688 C1686 1.415 1_565 S
C1688 C1693 1.425 . S
C1688 C1695 1.409 . S
C1689 H1681 0.930 . S
C1689 C1687 1.419 . S
C1689 C1690 1.362 . S
C1690 H1682 0.930 . S
C1690 C1689 1.362 . S
C1690 C1693 1.409 1_545 S
C1691 H1683 0.930 . S
C1691 C1692 1.355 . S
C1691 C1693 1.415 . S
C1692 C1691 1.355 . S
C1692 C1694 1.419 . S
C1693 C1688 1.425 . S
C1693 C1690 1.409 1_565 S
C1693 C1691 1.415 . S
C1694 H1684 0.930 . S
C1694 C1692 1.419 . S
C1694 C1695 1.362 . S
C1695 H1685 0.930 . S
C1695 C1688 1.409 . S
C1695 C1694 1.362 . S
H1696 C1702 0.930 . S
H1697 C1705 0.930 . S
H1698 C1706 0.930 . S
H1699 C1707 0.921 1_545 S
H1700 C1710 0.930 . S
H1701 C1711 0.930 . S
C1702 H1696 0.930 . S
C1702 C1703 1.355 . S
C1702 C1704 1.415 1_545 S
C1703 C1702 1.355 . S
C1703 C1705 1.419 . S
C1704 C1702 1.415 1_565 S
C1704 C1709 1.425 1_565 S
C1704 C1711 1.409 . S
C1705 H1697 0.930 . S
C1705 C1703 1.419 . S
C1705 C1706 1.362 . S
C1706 H1698 0.930 . S
C1706 C1705 1.362 . S
C1706 C1709 1.409 . S
C1707 H1699 0.921 1_565 S
C1707 C1708 1.355 . S
C1707 C1709 1.415 1_565 S
C1708 C1707 1.355 . S
C1708 C1710 1.419 . S
C1709 C1704 1.425 1_545 S
C1709 C1706 1.409 . S
C1709 C1707 1.415 1_545 S
C1710 H1700 0.930 . S
C1710 C1708 1.419 . S
C1710 C1711 1.362 . S
C1711 H1701 0.930 . S
C1711 C1704 1.409 . S
C1711 C1710 1.362 . S
H1712 C1718 0.930 . S
H1713 C1721 0.930 . S
H1714 C1722 0.930 . S
H1715 C1723 0.930 . S
H1716 C1726 0.930 . S
H1717 C1727 0.930 . S
C1718 H1712 0.930 . S
C1718 C1719 1.355 . S
C1718 C1720 1.415 1_565 S
C1719 C1718 1.355 . S
C1719 C1721 1.419 . S
C1720 C1718 1.415 1_545 S
C1720 C1725 1.425 1_545 S
C1720 C1727 1.409 . S
C1721 H1713 0.930 . S
C1721 C1719 1.419 . S
C1721 C1722 1.362 . S
C1722 H1714 0.930 . S
C1722 C1721 1.362 . S
C1722 C1725 1.409 . S
C1723 H1715 0.930 . S
C1723 C1724 1.355 . S
C1723 C1725 1.415 1_545 S
C1724 C1723 1.355 . S
C1724 C1726 1.419 . S
C1725 C1720 1.425 1_565 S
C1725 C1722 1.409 . S
C1725 C1723 1.415 1_565 S
C1726 H1716 0.930 . S
C1726 C1724 1.419 . S
C1726 C1727 1.362 . S
C1727 H1717 0.930 . S
C1727 C1720 1.409 . S
C1727 C1726 1.362 . S
H1728 C1734 0.930 . S
H1729 C1737 0.930 . S
H1730 C1738 0.930 . S
H1731 C1739 0.930 . S
H1732 C1742 0.930 . S
H1733 C1743 0.930 . S
C1734 H1728 0.930 . S
C1734 C1735 1.355 . S
C1734 C1736 1.415 . S
C1735 C1734 1.355 . S
C1735 C1737 1.419 . S
C1736 C1734 1.415 . S
C1736 C1741 1.425 . S
C1736 C1743 1.409 . S
C1737 H1729 0.930 . S
C1737 C1735 1.419 . S
C1737 C1738 1.362 . S
C1738 H1730 0.930 . S
C1738 C1737 1.362 . S
C1738 C1741 1.409 . S
C1739 H1731 0.930 . S
C1739 C1740 1.355 . S
C1739 C1741 1.415 . S
C1740 C1739 1.355 . S
C1740 C1742 1.419 . S
C1741 C1736 1.425 . S
C1741 C1738 1.409 . S
C1741 C1739 1.415 . S
C1742 H1732 0.930 . S
C1742 C1740 1.419 . S
C1742 C1743 1.362 . S
C1743 H1733 0.930 . S
C1743 C1736 1.409 . S
C1743 C1742 1.362 . S
H1744 C1750 0.930 . S
H1745 C1753 0.930 . S
H1746 C1754 0.930 . S
H1747 C1755 0.930 . S
H1748 C1758 0.930 . S
H1749 C1759 0.930 . S
C1750 H1744 0.930 . S
C1750 C1751 1.355 . S
C1750 C1752 1.415 . S
C1751 C1750 1.355 . S
C1751 C1753 1.419 . S
C1752 C1750 1.415 . S
C1752 C1757 1.425 . S
C1752 C1759 1.409 . S
C1753 H1745 0.930 . S
C1753 C1751 1.419 . S
C1753 C1754 1.362 . S
C1754 H1746 0.930 . S
C1754 C1753 1.362 . S
C1754 C1757 1.409 . S
C1755 H1747 0.930 . S
C1755 C1756 1.355 . S
C1755 C1757 1.415 . S
C1756 C1755 1.355 . S
C1756 C1758 1.419 . S
C1757 C1752 1.425 . S
C1757 C1754 1.409 . S
C1757 C1755 1.415 . S
C1758 H1748 0.930 . S
C1758 C1756 1.419 . S
C1758 C1759 1.362 . S
C1759 H1749 0.930 . S
C1759 C1752 1.409 . S
C1759 C1758 1.362 . S
H1760 C1766 0.930 . S
H1761 C1769 0.930 . S
H1762 C1770 0.930 . S
H1763 C1771 0.930 . S
H1764 C1774 0.930 . S
H1765 C1775 0.930 . S
C1766 H1760 0.930 . S
C1766 C1767 1.355 . S
C1766 C1768 1.415 . S
C1767 C1766 1.355 . S
C1767 C1769 1.419 . S
C1768 C1766 1.415 . S
C1768 C1773 1.425 . S
C1768 C1775 1.409 . S
C1769 H1761 0.930 . S
C1769 C1767 1.419 . S
C1769 C1770 1.362 . S
C1770 H1762 0.930 . S
C1770 C1769 1.362 . S
C1770 C1773 1.409 . S
C1771 H1763 0.930 . S
C1771 C1772 1.355 . S
C1771 C1773 1.415 . S
C1772 C1771 1.355 . S
C1772 C1774 1.419 . S
C1773 C1768 1.425 . S
C1773 C1770 1.409 . S
C1773 C1771 1.415 . S
C1774 H1764 0.930 . S
C1774 C1772 1.419 . S
C1774 C1775 1.362 . S
C1775 H1765 0.930 . S
C1775 C1768 1.409 . S
C1775 C1774 1.362 . S
H1776 C1782 0.930 . S
H1777 C1785 0.930 . S
H1778 C1786 0.930 . S
H1779 C1787 0.930 . S
H1780 C1790 0.930 . S
H1781 C1791 0.930 . S
C1782 H1776 0.930 . S
C1782 C1783 1.355 . S
C1782 C1784 1.415 . S
C1783 C1782 1.355 . S
C1783 C1785 1.419 . S
C1784 C1782 1.415 . S
C1784 C1789 1.425 1_554 S
C1784 C1791 1.409 . S
C1785 H1777 0.930 . S
C1785 C1783 1.419 . S
C1785 C1786 1.362 1_554 S
C1786 H1778 0.930 . S
C1786 C1785 1.362 1_556 S
C1786 C1789 1.409 . S
C1787 H1779 0.930 . S
C1787 C1788 1.355 . S
C1787 C1789 1.415 . S
C1788 C1787 1.355 . S
C1788 C1790 1.419 . S
C1789 C1784 1.425 1_556 S
C1789 C1786 1.409 . S
C1789 C1787 1.415 . S
C1790 H1780 0.930 . S
C1790 C1788 1.419 . S
C1790 C1791 1.362 1_556 S
C1791 H1781 0.930 . S
C1791 C1784 1.409 . S
C1791 C1790 1.362 1_554 S
H1792 C1798 0.930 . S
H1793 C1801 0.930 . S
H1794 C1802 0.930 . S
H1795 C1803 0.930 . S
H1796 C1806 0.930 . S
H1797 C1807 0.930 . S
C1798 H1792 0.930 . S
C1798 C1799 1.355 . S
C1798 C1800 1.415 . S
C1799 C1798 1.355 . S
C1799 C1801 1.419 . S
C1800 C1798 1.415 . S
C1800 C1805 1.425 . S
C1800 C1807 1.409 . S
C1801 H1793 0.930 . S
C1801 C1799 1.419 . S
C1801 C1802 1.362 . S
C1802 H1794 0.930 . S
C1802 C1801 1.362 . S
C1802 C1805 1.409 . S
C1803 H1795 0.930 . S
C1803 C1804 1.355 . S
C1803 C1805 1.415 . S
C1804 C1803 1.355 . S
C1804 C1806 1.419 . S
C1805 C1800 1.425 . S
C1805 C1802 1.409 . S
C1805 C1803 1.415 . S
C1806 H1796 0.930 . S
C1806 C1804 1.419 . S
C1806 C1807 1.362 . S
C1807 H1797 0.930 . S
C1807 C1800 1.409 . S
C1807 C1806 1.362 . S
H1808 C1814 0.930 . S
H1809 C1817 0.930 . S
H1810 C1818 0.930 . S
H1811 C1819 0.930 . S
H1812 C1822 0.930 . S
H1813 C1823 0.930 . S
C1814 H1808 0.930 . S
C1814 C1815 1.355 . S
C1814 C1816 1.415 . S
C1815 C1814 1.355 . S
C1815 C1817 1.419 . S
C1816 C1814 1.415 . S
C1816 C1821 1.425 . S
C1816 C1823 1.409 . S
C1817 H1809 0.930 . S
C1817 C1815 1.419 . S
C1817 C1818 1.362 . S
C1818 H1810 0.930 . S
C1818 C1817 1.362 . S
C1818 C1821 1.409 . S
C1819 H1811 0.930 . S
C1819 C1820 1.355 . S
C1819 C1821 1.415 . S
C1820 C1819 1.355 . S
C1820 C1822 1.419 . S
C1821 C1816 1.425 . S
C1821 C1818 1.409 . S
C1821 C1819 1.415 . S
C1822 H1812 0.930 . S
C1822 C1820 1.419 . S
C1822 C1823 1.362 . S
C1823 H1813 0.930 . S
C1823 C1816 1.409 . S
C1823 C1822 1.362 . S
H1824 C1830 0.930 . S
H1825 C1833 0.930 . S
H1826 C1834 0.930 . S
H1827 C1835 0.930 . S
H1828 C1838 0.930 . S
H1829 C1839 0.930 . S
C1830 H1824 0.930 . S
C1830 C1831 1.355 . S
C1830 C1832 1.415 . S
C1831 C1830 1.355 . S
C1831 C1833 1.419 . S
C1832 C1830 1.415 . S
C1832 C1837 1.425 1_655 S
C1832 C1839 1.409 . S
C1833 H1825 0.930 . S
C1833 C1831 1.419 . S
C1833 C1834 1.362 1_655 S
C1834 H1826 0.930 . S
C1834 C1833 1.362 1_455 S
C1834 C1837 1.409 . S
C1835 H1827 0.930 . S
C1835 C1836 1.355 . S
C1835 C1837 1.415 . S
C1836 C1835 1.355 . S
C1836 C1838 1.419 . S
C1837 C1832 1.425 1_455 S
C1837 C1834 1.409 . S
C1837 C1835 1.415 . S
C1838 H1828 0.930 . S
C1838 C1836 1.419 . S
C1838 C1839 1.362 1_455 S
C1839 H1829 0.930 . S
C1839 C1832 1.409 . S
C1839 C1838 1.362 1_655 S
H1840 C1846 0.930 . S
H1841 C1849 0.930 . S
H1842 C1850 0.930 . S
H1843 C1851 0.930 . S
H1844 C1854 0.930 . S
H1845 C1855 0.930 . S
C1846 H1840 0.930 . S
C1846 C1847 1.355 . S
C1846 C1848 1.415 . S
C1847 C1846 1.355 . S
C1847 C1849 1.419 . S
C1848 C1846 1.415 . S
C1848 C1853 1.425 . S
C1848 C1855 1.409 . S
C1849 H1841 0.930 . S
C1849 C1847 1.419 . S
C1849 C1850 1.362 . S
C1850 H1842 0.930 . S
C1850 C1849 1.362 . S
C1850 C1853 1.409 . S
C1851 H1843 0.930 . S
C1851 C1852 1.355 . S
C1851 C1853 1.415 . S
C1852 C1851 1.355 . S
C1852 C1854 1.419 . S
C1853 C1848 1.425 . S
C1853 C1850 1.409 . S
C1853 C1851 1.415 . S
C1854 H1844 0.930 . S
C1854 C1852 1.419 . S
C1854 C1855 1.362 . S
C1855 H1845 0.930 . S
C1855 C1848 1.409 . S
C1855 C1854 1.362 . S
H1856 C1862 0.930 . S
H1857 C1865 0.930 . S
H1858 C1866 0.930 . S
H1859 C1867 0.930 . S
H1860 C1870 0.930 . S
H1861 C1871 0.930 . S
C1862 H1856 0.930 . S
C1862 C1863 1.355 . S
C1862 C1864 1.415 . S
C1863 C1862 1.355 . S
C1863 C1865 1.419 . S
C1864 C1862 1.415 . S
C1864 C1869 1.425 1_655 S
C1864 C1871 1.409 . S
C1865 H1857 0.930 . S
C1865 C1863 1.419 . S
C1865 C1866 1.362 1_655 S
C1866 H1858 0.930 . S
C1866 C1865 1.362 1_455 S
C1866 C1869 1.409 . S
C1867 H1859 0.930 . S
C1867 C1868 1.355 . S
C1867 C1869 1.415 . S
C1868 C1867 1.355 . S
C1868 C1870 1.419 . S
C1869 C1864 1.425 1_455 S
C1869 C1866 1.409 . S
C1869 C1867 1.415 . S
C1870 H1860 0.930 . S
C1870 C1868 1.419 . S
C1870 C1871 1.362 1_455 S
C1871 H1861 0.930 . S
C1871 C1864 1.409 . S
C1871 C1870 1.362 1_655 S
H1872 C1878 0.930 . S
H1873 C1881 0.930 . S
H1874 C1882 0.930 1_556 S
H1875 C1883 0.930 . S
H1876 C1886 0.930 . S
H1877 C1887 0.930 . S
C1878 H1872 0.930 . S
C1878 C1879 1.355 . S
C1878 C1880 1.387 1_554 S
C1879 C1878 1.355 . S
C1879 C1881 1.419 . S
C1880 C1878 1.387 1_556 S
C1880 C1885 1.439 . S
C1880 C1887 1.425 . S
C1881 H1873 0.930 . S
C1881 C1879 1.419 . S
C1881 C1882 1.362 . S
C1882 H1874 0.930 1_554 S
C1882 C1881 1.362 . S
C1882 C1885 1.409 1_554 S
C1883 H1875 0.930 . S
C1883 C1884 1.355 . S
C1883 C1885 1.415 . S
C1884 C1883 1.355 . S
C1884 C1886 1.419 . S
C1885 C1880 1.439 . S
C1885 C1882 1.409 1_556 S
C1885 C1883 1.415 . S
C1886 H1876 0.930 . S
C1886 C1884 1.419 . S
C1886 C1887 1.362 . S
C1887 H1877 0.930 . S
C1887 C1880 1.425 . S
C1887 C1886 1.362 . S
H1888 C1894 0.930 . S
H1889 C1897 0.930 . S
H1890 C1898 0.930 . S
H1891 C1899 0.930 . S
H1892 C1902 0.930 . S
H1893 C1903 0.930 . S
C1894 H1888 0.930 . S
C1894 C1895 1.355 . S
C1894 C1896 1.415 . S
C1895 C1894 1.355 . S
C1895 C1897 1.419 . S
C1896 C1894 1.415 . S
C1896 C1901 1.425 . S
C1896 C1903 1.409 . S
C1897 H1889 0.930 . S
C1897 C1895 1.419 . S
C1897 C1898 1.362 . S
C1898 H1890 0.930 . S
C1898 C1897 1.362 . S
C1898 C1901 1.409 . S
C1899 H1891 0.930 . S
C1899 C1900 1.355 . S
C1899 C1901 1.415 . S
C1900 C1899 1.355 . S
C1900 C1902 1.419 . S
C1901 C1896 1.425 . S
C1901 C1898 1.409 . S
C1901 C1899 1.415 . S
C1902 H1892 0.930 . S
C1902 C1900 1.419 . S
C1902 C1903 1.362 . S
C1903 H1893 0.930 . S
C1903 C1896 1.409 . S
C1903 C1902 1.362 . S
H1904 C1910 0.930 1_545 S
H1905 C1913 0.930 . S
H1906 C1914 0.930 . S
H1907 C1915 0.930 . S
H1908 C1918 0.930 . S
H1909 C1919 0.930 . S
C1910 H1904 0.930 1_565 S
C1910 C1911 1.355 . S
C1910 C1912 1.415 1_565 S
C1911 C1910 1.355 . S
C1911 C1913 1.419 . S
C1912 C1910 1.415 1_545 S
C1912 C1917 1.440 . S
C1912 C1919 1.409 . S
C1913 H1905 0.930 . S
C1913 C1911 1.419 . S
C1913 C1914 1.362 . S
C1914 H1906 0.930 . S
C1914 C1913 1.362 . S
C1914 C1917 1.372 1_565 S
C1915 H1907 0.930 . S
C1915 C1916 1.355 . S
C1915 C1917 1.438 . S
C1916 C1915 1.355 . S
C1916 C1918 1.419 . S
C1917 C1912 1.440 . S
C1917 C1914 1.372 1_545 S
C1917 C1915 1.438 . S
C1918 H1908 0.930 . S
C1918 C1916 1.419 . S
C1918 C1919 1.362 . S
C1919 H1909 0.930 . S
C1919 C1912 1.409 . S
C1919 C1918 1.362 . S
H1920 C1926 0.930 . S
H1921 C1929 0.930 . S
H1922 C1930 0.930 . S
H1923 C1931 0.930 . S
H1924 C1934 0.930 . S
H1925 C1935 0.930 . S
C1926 H1920 0.930 . S
C1926 C1927 1.355 . S
C1926 C1928 1.415 . S
C1927 C1926 1.355 . S
C1927 C1929 1.419 . S
C1928 C1926 1.415 . S
C1928 C1933 1.425 . S
C1928 C1935 1.409 . S
C1929 H1921 0.930 . S
C1929 C1927 1.419 . S
C1929 C1930 1.362 . S
C1930 H1922 0.930 . S
C1930 C1929 1.362 . S
C1930 C1933 1.409 . S
C1931 H1923 0.930 . S
C1931 C1932 1.355 . S
C1931 C1933 1.415 . S
C1932 C1931 1.355 . S
C1932 C1934 1.419 . S
C1933 C1928 1.425 . S
C1933 C1930 1.409 . S
C1933 C1931 1.415 . S
C1934 H1924 0.930 . S
C1934 C1932 1.419 . S
C1934 C1935 1.362 . S
C1935 H1925 0.930 . S
C1935 C1928 1.409 . S
C1935 C1934 1.362 . S
H1936 C1942 0.930 . S
H1937 C1945 0.930 . S
H1938 C1946 0.930 . S
H1939 C1947 0.930 . S
H1940 C1950 0.930 . S
H1941 C1951 0.930 . S
C1942 H1936 0.930 . S
C1942 C1943 1.355 . S
C1942 C1944 1.415 . S
C1943 C1942 1.355 . S
C1943 C1945 1.419 . S
C1944 C1942 1.415 . S
C1944 C1949 1.425 . S
C1944 C1951 1.409 . S
C1945 H1937 0.930 . S
C1945 C1943 1.419 . S
C1945 C1946 1.362 . S
C1946 H1938 0.930 . S
C1946 C1945 1.362 . S
C1946 C1949 1.409 . S
C1947 H1939 0.930 . S
C1947 C1948 1.355 . S
C1947 C1949 1.415 . S
C1948 C1947 1.355 . S
C1948 C1950 1.419 . S
C1949 C1944 1.425 . S
C1949 C1946 1.409 . S
C1949 C1947 1.415 . S
C1950 H1940 0.930 . S
C1950 C1948 1.419 . S
C1950 C1951 1.362 . S
C1951 H1941 0.930 . S
C1951 C1944 1.409 . S
C1951 C1950 1.362 . S
H1952 C1958 0.930 . S
H1953 C1961 0.930 . S
H1954 C1962 0.930 . S
H1955 C1963 0.930 . S
H1956 C1966 0.930 . S
H1957 C1967 0.930 . S
C1958 H1952 0.930 . S
C1958 C1959 1.355 . S
C1958 C1960 1.415 . S
C1959 C1958 1.355 . S
C1959 C1961 1.419 . S
C1960 C1958 1.415 . S
C1960 C1965 1.425 . S
C1960 C1967 1.409 . S
C1961 H1953 0.930 . S
C1961 C1959 1.419 . S
C1961 C1962 1.362 . S
C1962 H1954 0.930 . S
C1962 C1961 1.362 . S
C1962 C1965 1.409 . S
C1963 H1955 0.930 . S
C1963 C1964 1.355 . S
C1963 C1965 1.415 . S
C1964 C1963 1.355 . S
C1964 C1966 1.419 . S
C1965 C1960 1.425 . S
C1965 C1962 1.409 . S
C1965 C1963 1.415 . S
C1966 H1956 0.930 . S
C1966 C1964 1.419 . S
C1966 C1967 1.362 . S
C1967 H1957 0.930 . S
C1967 C1960 1.409 . S
C1967 C1966 1.362 . S
H1968 C1974 0.930 . S
H1969 C1977 0.930 . S
H1970 C1978 0.930 . S
H1971 C1979 0.930 . S
H1972 C1982 0.930 . S
H1973 C1983 0.930 . S
C1974 H1968 0.930 . S
C1974 C1975 1.355 . S
C1974 C1976 1.415 1_556 S
C1975 C1974 1.355 . S
C1975 C1977 1.419 . S
C1976 C1974 1.415 1_554 S
C1976 C1981 1.425 1_554 S
C1976 C1983 1.409 . S
C1977 H1969 0.930 . S
C1977 C1975 1.419 . S
C1977 C1978 1.362 . S
C1978 H1970 0.930 . S
C1978 C1977 1.362 . S
C1978 C1981 1.409 . S
C1979 H1971 0.930 . S
C1979 C1980 1.355 . S
C1979 C1981 1.415 1_554 S
C1980 C1979 1.355 . S
C1980 C1982 1.419 . S
C1981 C1976 1.425 1_556 S
C1981 C1978 1.409 . S
C1981 C1979 1.415 1_556 S
C1982 H1972 0.930 . S
C1982 C1980 1.419 . S
C1982 C1983 1.362 . S
C1983 H1973 0.930 . S
C1983 C1976 1.409 . S
C1983 C1982 1.362 . S
H1984 C1990 0.930 . S
H1985 C1993 0.930 . S
H1986 C1994 0.930 . S
H1987 C1995 0.930 . S
H1988 C1998 0.930 . S
H1989 C1999 0.930 . S
C1990 H1984 0.930 . S
C1990 C1991 1.355 . S
C1990 C1992 1.415 . S
C1991 C1990 1.355 . S
C1991 C1993 1.419 . S
C1992 C1990 1.415 . S
C1992 C1997 1.425 . S
C1992 C1999 1.409 . S
C1993 H1985 0.930 . S
C1993 C1991 1.419 . S
C1993 C1994 1.362 . S
C1994 H1986 0.930 . S
C1994 C1993 1.362 . S
C1994 C1997 1.409 . S
C1995 H1987 0.930 . S
C1995 C1996 1.355 . S
C1995 C1997 1.415 . S
C1996 C1995 1.355 . S
C1996 C1998 1.419 . S
C1997 C1992 1.425 . S
C1997 C1994 1.409 . S
C1997 C1995 1.415 . S
C1998 H1988 0.930 . S
C1998 C1996 1.419 . S
C1998 C1999 1.362 . S
C1999 H1989 0.930 . S
C1999 C1992 1.409 . S
C1999 C1998 1.362 . S
H2000 C2006 0.930 . S
H2001 C2009 0.930 . S
H2002 C2010 0.930 . S
H2003 C2011 0.930 . S
H2004 C2014 0.930 . S
H2005 C2015 0.930 1_565 S
C2006 H2000 0.930 . S
C2006 C2007 1.355 . S
C2006 C2008 1.415 . S
C2007 C2006 1.355 . S
C2007 C2009 1.419 . S
C2008 C2006 1.415 . S
C2008 C2013 1.425 1_565 S
C2008 C2015 1.409 1_565 S
C2009 H2001 0.930 . S
C2009 C2007 1.419 . S
C2009 C2010 1.362 1_565 S
C2010 H2002 0.930 . S
C2010 C2009 1.362 1_545 S
C2010 C2013 1.409 . S
C2011 H2003 0.930 . S
C2011 C2012 1.355 . S
C2011 C2013 1.415 . S
C2012 C2011 1.355 . S
C2012 C2014 1.419 . S
C2013 C2008 1.425 1_545 S
C2013 C2010 1.409 . S
C2013 C2011 1.415 . S
C2014 H2004 0.930 . S
C2014 C2012 1.419 . S
C2014 C2015 1.362 . S
C2015 H2005 0.930 1_545 S
C2015 C2008 1.409 1_545 S
C2015 C2014 1.362 . S
H2016 C2022 0.930 . S
H2017 C2025 0.930 . S
H2018 C2026 0.930 . S
H2019 C2027 0.930 . S
H2020 C2030 0.930 . S
H2021 C2031 0.930 . S
C2022 H2016 0.930 . S
C2022 C2023 1.355 . S
C2022 C2024 1.415 . S
C2023 C2022 1.355 . S
C2023 C2025 1.419 . S
C2024 C2022 1.415 . S
C2024 C2029 1.425 1_556 S
C2024 C2031 1.409 . S
C2025 H2017 0.930 . S
C2025 C2023 1.419 . S
C2025 C2026 1.362 1_556 S
C2026 H2018 0.930 . S
C2026 C2025 1.362 1_554 S
C2026 C2029 1.409 . S
C2027 H2019 0.930 . S
C2027 C2028 1.355 . S
C2027 C2029 1.415 . S
C2028 C2027 1.355 . S
C2028 C2030 1.419 . S
C2029 C2024 1.425 1_554 S
C2029 C2026 1.409 . S
C2029 C2027 1.415 . S
C2030 H2020 0.930 . S
C2030 C2028 1.419 . S
C2030 C2031 1.362 1_554 S
C2031 H2021 0.930 . S
C2031 C2024 1.409 . S
C2031 C2030 1.362 1_556 S
H2032 C2038 0.930 . S
H2033 C2041 0.930 . S
H2034 C2042 0.930 . S
H2035 C2043 0.930 . S
H2036 C2046 0.930 . S
H2037 C2047 0.930 . S
C2038 H2032 0.930 . S
C2038 C2039 1.355 . S
C2038 C2040 1.415 . S
C2039 C2038 1.355 . S
C2039 C2041 1.419 . S
C2040 C2038 1.415 . S
C2040 C2045 1.425 . S
C2040 C2047 1.409 1_545 S
C2041 H2033 0.930 . S
C2041 C2039 1.419 . S
C2041 C2042 1.362 . S
C2042 H2034 0.930 . S
C2042 C2041 1.362 . S
C2042 C2045 1.409 . S
C2043 H2035 0.930 . S
C2043 C2044 1.355 . S
C2043 C2045 1.415 1_565 S
C2044 C2043 1.355 . S
C2044 C2046 1.419 . S
C2045 C2040 1.425 . S
C2045 C2042 1.409 . S
C2045 C2043 1.415 1_545 S
C2046 H2036 0.930 . S
C2046 C2044 1.419 . S
C2046 C2047 1.362 . S
C2047 H2037 0.930 . S
C2047 C2040 1.409 1_565 S
C2047 C2046 1.362 . S
H2048 C2054 0.930 . S
H2049 C2057 0.930 . S
H2050 C2058 0.930 . S
H2051 C2059 0.930 . S
H2052 C2062 0.930 . S
H2053 C2063 0.930 . S
C2054 H2048 0.930 . S
C2054 C2055 1.355 . S
C2054 C2056 1.415 . S
C2055 C2054 1.355 . S
C2055 C2057 1.419 . S
C2056 C2054 1.415 . S
C2056 C2061 1.425 . S
C2056 C2063 1.409 . S
C2057 H2049 0.930 . S
C2057 C2055 1.419 . S
C2057 C2058 1.362 . S
C2058 H2050 0.930 . S
C2058 C2057 1.362 . S
C2058 C2061 1.409 . S
C2059 H2051 0.930 . S
C2059 C2060 1.355 . S
C2059 C2061 1.415 . S
C2060 C2059 1.355 . S
C2060 C2062 1.419 . S
C2061 C2056 1.425 . S
C2061 C2058 1.409 . S
C2061 C2059 1.415 . S
C2062 H2052 0.930 . S
C2062 C2060 1.419 . S
C2062 C2063 1.362 . S
C2063 H2053 0.930 . S
C2063 C2056 1.409 . S
C2063 C2062 1.362 . S
H2064 C2070 0.930 . S
H2065 C2073 0.930 . S
H2066 C2074 0.930 . S
H2067 C2075 0.930 . S
H2068 C2078 0.930 . S
H2069 C2079 0.930 . S
C2070 H2064 0.930 . S
C2070 C2071 1.355 . S
C2070 C2072 1.415 1_655 S
C2071 C2070 1.355 . S
C2071 C2073 1.419 . S
C2072 C2070 1.415 1_455 S
C2072 C2077 1.423 1_455 S
C2072 C2079 1.409 . S
C2073 H2065 0.930 . S
C2073 C2071 1.419 . S
C2073 C2074 1.362 . S
C2074 H2066 0.930 . S
C2074 C2073 1.362 . S
C2074 C2077 1.421 . S
C2075 H2067 0.930 . S
C2075 C2076 1.355 . S
C2075 C2077 1.405 1_455 S
C2076 C2075 1.355 . S
C2076 C2078 1.419 . S
C2077 C2072 1.423 1_655 S
C2077 C2074 1.421 . S
C2077 C2075 1.405 1_655 S
C2078 H2068 0.930 . S
C2078 C2076 1.419 . S
C2078 C2079 1.362 . S
C2079 H2069 0.930 . S
C2079 C2072 1.409 . S
C2079 C2078 1.362 . S
H2080 C2086 0.930 . S
H2081 C2089 0.930 . S
H2082 C2090 0.930 . S
H2083 C2091 0.930 . S
H2084 C2094 0.930 . S
H2085 C2095 0.930 . S
C2086 H2080 0.930 . S
C2086 C2087 1.355 . S
C2086 C2088 1.415 1_655 S
C2087 C2086 1.355 . S
C2087 C2089 1.419 . S
C2088 C2086 1.415 1_455 S
C2088 C2093 1.425 . S
C2088 C2095 1.409 . S
C2089 H2081 0.930 . S
C2089 C2087 1.419 . S
C2089 C2090 1.362 . S
C2090 H2082 0.930 . S
C2090 C2089 1.362 . S
C2090 C2093 1.409 1_655 S
C2091 H2083 0.930 . S
C2091 C2092 1.355 . S
C2091 C2093 1.415 . S
C2092 C2091 1.355 . S
C2092 C2094 1.419 . S
C2093 C2088 1.425 . S
C2093 C2090 1.409 1_455 S
C2093 C2091 1.415 . S
C2094 H2084 0.930 . S
C2094 C2092 1.419 . S
C2094 C2095 1.362 . S
C2095 H2085 0.930 . S
C2095 C2088 1.409 . S
C2095 C2094 1.362 . S
H2096 C2102 0.930 . S
H2097 C2105 0.930 . S
H2098 C2106 0.930 . S
H2099 C2107 0.930 . S
H2100 C2110 0.930 . S
H2101 C2111 0.930 . S
C2102 H2096 0.930 . S
C2102 C2103 1.355 . S
C2102 C2104 1.415 . S
C2103 C2102 1.355 . S
C2103 C2105 1.419 . S
C2104 C2102 1.415 . S
C2104 C2109 1.425 . S
C2104 C2111 1.409 . S
C2105 H2097 0.930 . S
C2105 C2103 1.419 . S
C2105 C2106 1.362 . S
C2106 H2098 0.930 . S
C2106 C2105 1.362 . S
C2106 C2109 1.409 . S
C2107 H2099 0.930 . S
C2107 C2108 1.355 . S
C2107 C2109 1.415 . S
C2108 C2107 1.355 . S
C2108 C2110 1.419 . S
C2109 C2104 1.425 . S
C2109 C2106 1.409 . S
C2109 C2107 1.415 . S
C2110 H2100 0.930 . S
C2110 C2108 1.419 . S
C2110 C2111 1.362 . S
C2111 H2101 0.930 . S
C2111 C2104 1.409 . S
C2111 C2110 1.362 . S
H2112 C2118 0.930 1_455 S
H2113 C2121 0.930 . S
H2114 C2122 0.930 . S
H2115 C2123 0.930 . S
H2116 C2126 0.930 . S
H2117 C2127 0.930 . S
C2118 H2112 0.930 1_655 S
C2118 C2119 1.355 . S
C2118 C2120 1.415 1_655 S
C2119 C2118 1.355 . S
C2119 C2121 1.419 . S
C2120 C2118 1.415 1_455 S
C2120 C2125 1.425 . S
C2120 C2127 1.409 . S
C2121 H2113 0.930 . S
C2121 C2119 1.419 . S
C2121 C2122 1.362 . S
C2122 H2114 0.930 . S
C2122 C2121 1.362 . S
C2122 C2125 1.409 1_655 S
C2123 H2115 0.930 . S
C2123 C2124 1.355 . S
C2123 C2125 1.415 . S
C2124 C2123 1.355 . S
C2124 C2126 1.419 . S
C2125 C2120 1.425 . S
C2125 C2122 1.409 1_455 S
C2125 C2123 1.415 . S
C2126 H2116 0.930 . S
C2126 C2124 1.419 . S
C2126 C2127 1.362 . S
C2127 H2117 0.930 . S
C2127 C2120 1.409 . S
C2127 C2126 1.362 . S
H2128 C2134 0.930 . S
H2129 C2137 0.930 . S
H2130 C2138 0.930 . S
H2131 C2139 0.930 . S
H2132 C2142 0.930 . S
H2133 C2143 0.930 . S
C2134 H2128 0.930 . S
C2134 C2135 1.355 . S
C2134 C2136 1.415 . S
C2135 C2134 1.355 . S
C2135 C2137 1.419 . S
C2136 C2134 1.415 . S
C2136 C2141 1.425 1_455 S
C2136 C2143 1.409 1_455 S
C2137 H2129 0.930 . S
C2137 C2135 1.419 . S
C2137 C2138 1.362 . S
C2138 H2130 0.930 . S
C2138 C2137 1.362 . S
C2138 C2141 1.409 1_455 S
C2139 H2131 0.930 . S
C2139 C2140 1.355 . S
C2139 C2141 1.415 . S
C2140 C2139 1.355 . S
C2140 C2142 1.419 . S
C2141 C2136 1.425 1_655 S
C2141 C2138 1.409 1_655 S
C2141 C2139 1.415 . S
C2142 H2132 0.930 . S
C2142 C2140 1.419 . S
C2142 C2143 1.362 . S
C2143 H2133 0.930 . S
C2143 C2136 1.409 1_655 S
C2143 C2142 1.362 . S
H2144 C2150 0.930 . S
H2145 C2153 0.930 . S
H2146 C2154 0.930 . S
H2147 C2155 0.930 . S
H2148 C2158 0.930 . S
H2149 C2159 0.930 . S
C2150 H2144 0.930 . S
C2150 C2151 1.355 . S
C2150 C2152 1.415 . S
C2151 C2150 1.355 . S
C2151 C2153 1.419 . S
C2152 C2150 1.415 . S
C2152 C2157 1.425 . S
C2152 C2159 1.409 . S
C2153 H2145 0.930 . S
C2153 C2151 1.419 . S
C2153 C2154 1.362 . S
C2154 H2146 0.930 . S
C2154 C2153 1.362 . S
C2154 C2157 1.409 . S
C2155 H2147 0.930 . S
C2155 C2156 1.355 . S
C2155 C2157 1.415 . S
C2156 C2155 1.355 . S
C2156 C2158 1.419 . S
C2157 C2152 1.425 . S
C2157 C2154 1.409 . S
C2157 C2155 1.415 . S
C2158 H2148 0.930 . S
C2158 C2156 1.419 . S
C2158 C2159 1.362 . S
C2159 H2149 0.930 . S
C2159 C2152 1.409 . S
C2159 C2158 1.362 . S
H2160 C2166 0.930 . S
H2161 C2169 0.930 . S
H2162 C2170 0.930 . S
H2163 C2171 0.930 . S
H2164 C2174 0.930 . S
H2165 C2175 0.930 . S
C2166 H2160 0.930 . S
C2166 C2167 1.355 . S
C2166 C2168 1.415 1_545 S
C2167 C2166 1.355 . S
C2167 C2169 1.419 . S
C2168 C2166 1.415 1_565 S
C2168 C2173 1.427 . S
C2168 C2175 1.409 . S
C2169 H2161 0.930 . S
C2169 C2167 1.419 . S
C2169 C2170 1.362 . S
C2170 H2162 0.930 . S
C2170 C2169 1.362 . S
C2170 C2173 1.403 1_545 S
C2171 H2163 0.930 . S
C2171 C2172 1.355 . S
C2171 C2173 1.419 . S
C2172 C2171 1.355 . S
C2172 C2174 1.419 . S
C2173 C2168 1.427 . S
C2173 C2170 1.403 1_565 S
C2173 C2171 1.419 . S
C2174 H2164 0.930 . S
C2174 C2172 1.419 . S
C2174 C2175 1.362 . S
C2175 H2165 0.930 . S
C2175 C2168 1.409 . S
C2175 C2174 1.362 . S
H2176 C2182 0.930 . S
H2177 C2185 0.930 . S
H2178 C2186 0.930 . S
H2179 C2187 0.930 . S
H2180 C2190 0.930 . S
H2181 C2191 0.930 . S
C2182 H2176 0.930 . S
C2182 C2183 1.355 . S
C2182 C2184 1.415 . S
C2183 C2182 1.355 . S
C2183 C2185 1.419 . S
C2184 C2182 1.415 . S
C2184 C2189 1.425 1_554 S
C2184 C2191 1.409 . S
C2185 H2177 0.930 . S
C2185 C2183 1.419 . S
C2185 C2186 1.362 1_554 S
C2186 H2178 0.930 . S
C2186 C2185 1.362 1_556 S
C2186 C2189 1.409 . S
C2187 H2179 0.930 . S
C2187 C2188 1.355 . S
C2187 C2189 1.415 . S
C2188 C2187 1.355 . S
C2188 C2190 1.419 . S
C2189 C2184 1.425 1_556 S
C2189 C2186 1.409 . S
C2189 C2187 1.415 . S
C2190 H2180 0.930 . S
C2190 C2188 1.419 . S
C2190 C2191 1.362 1_556 S
C2191 H2181 0.930 . S
C2191 C2184 1.409 . S
C2191 C2190 1.362 1_554 S
H2192 C2198 0.930 . S
H2193 C2201 0.930 . S
H2194 C2202 0.910 1_545 S
H2195 C2203 0.930 . S
H2196 C2206 0.930 . S
H2197 C2207 0.930 . S
C2198 H2192 0.930 . S
C2198 C2199 1.355 . S
C2198 C2200 1.415 . S
C2199 C2198 1.355 . S
C2199 C2201 1.419 . S
C2200 C2198 1.415 . S
C2200 C2205 1.401 1_565 S
C2200 C2207 1.409 . S
C2201 H2193 0.930 . S
C2201 C2199 1.419 . S
C2201 C2202 1.383 . S
C2202 H2194 0.910 1_565 S
C2202 C2201 1.383 . S
C2202 C2205 1.407 1_565 S
C2203 H2195 0.930 . S
C2203 C2204 1.355 . S
C2203 C2205 1.440 . S
C2204 C2203 1.355 . S
C2204 C2206 1.419 . S
C2205 C2200 1.401 1_545 S
C2205 C2202 1.407 1_545 S
C2205 C2203 1.440 . S
C2206 H2196 0.930 . S
C2206 C2204 1.419 . S
C2206 C2207 1.362 1_545 S
C2207 H2197 0.930 . S
C2207 C2200 1.409 . S
C2207 C2206 1.362 1_565 S
H2208 C2214 0.930 . S
H2209 C2217 0.930 . S
H2210 C2218 0.930 . S
H2211 C2219 0.930 . S
H2212 C2222 0.930 . S
H2213 C2223 0.930 . S
C2214 H2208 0.930 . S
C2214 C2215 1.355 . S
C2214 C2216 1.415 . S
C2215 C2214 1.355 . S
C2215 C2217 1.419 . S
C2216 C2214 1.415 . S
C2216 C2221 1.425 . S
C2216 C2223 1.409 . S
C2217 H2209 0.930 . S
C2217 C2215 1.419 . S
C2217 C2218 1.362 . S
C2218 H2210 0.930 . S
C2218 C2217 1.362 . S
C2218 C2221 1.409 . S
C2219 H2211 0.930 . S
C2219 C2220 1.355 . S
C2219 C2221 1.415 . S
C2220 C2219 1.355 . S
C2220 C2222 1.419 . S
C2221 C2216 1.425 . S
C2221 C2218 1.409 . S
C2221 C2219 1.415 . S
C2222 H2212 0.930 . S
C2222 C2220 1.419 . S
C2222 C2223 1.362 . S
C2223 H2213 0.930 . S
C2223 C2216 1.409 . S
C2223 C2222 1.362 . S
H2224 C2230 0.930 . S
H2225 C2233 0.930 . S
H2226 C2234 0.930 . S
H2227 C2235 0.930 . S
H2228 C2238 0.930 . S
H2229 C2239 0.930 . S
C2230 H2224 0.930 . S
C2230 C2231 1.355 . S
C2230 C2232 1.415 . S
C2231 C2230 1.355 . S
C2231 C2233 1.419 . S
C2232 C2230 1.415 . S
C2232 C2237 1.425 1_554 S
C2232 C2239 1.409 . S
C2233 H2225 0.930 . S
C2233 C2231 1.419 . S
C2233 C2234 1.362 1_554 S
C2234 H2226 0.930 . S
C2234 C2233 1.362 1_556 S
C2234 C2237 1.409 . S
C2235 H2227 0.930 . S
C2235 C2236 1.355 . S
C2235 C2237 1.415 . S
C2236 C2235 1.355 . S
C2236 C2238 1.419 . S
C2237 C2232 1.425 1_556 S
C2237 C2234 1.409 . S
C2237 C2235 1.415 . S
C2238 H2228 0.930 . S
C2238 C2236 1.419 . S
C2238 C2239 1.362 1_556 S
C2239 H2229 0.930 . S
C2239 C2232 1.409 . S
C2239 C2238 1.362 1_554 S
H2240 C2246 0.930 . S
H2241 C2249 0.930 . S
H2242 C2250 0.930 . S
H2243 C2251 0.930 . S
H2244 C2254 0.930 . S
H2245 C2255 0.930 . S
C2246 H2240 0.930 . S
C2246 C2247 1.355 . S
C2246 C2248 1.415 . S
C2247 C2246 1.355 . S
C2247 C2249 1.419 . S
C2248 C2246 1.415 . S
C2248 C2253 1.425 . S
C2248 C2255 1.409 . S
C2249 H2241 0.930 . S
C2249 C2247 1.419 . S
C2249 C2250 1.362 . S
C2250 H2242 0.930 . S
C2250 C2249 1.362 . S
C2250 C2253 1.409 . S
C2251 H2243 0.930 . S
C2251 C2252 1.355 . S
C2251 C2253 1.415 . S
C2252 C2251 1.355 . S
C2252 C2254 1.419 . S
C2253 C2248 1.425 . S
C2253 C2250 1.409 . S
C2253 C2251 1.415 . S
C2254 H2244 0.930 . S
C2254 C2252 1.419 . S
C2254 C2255 1.362 . S
C2255 H2245 0.930 . S
C2255 C2248 1.409 . S
C2255 C2254 1.362 . S
H2256 C2262 0.930 . S
H2257 C2265 0.930 . S
H2258 C2266 0.930 . S
H2259 C2267 0.930 . S
H2260 C2270 0.930 . S
H2261 C2271 0.930 . S
C2262 H2256 0.930 . S
C2262 C2263 1.355 . S
C2262 C2264 1.415 . S
C2263 C2262 1.355 . S
C2263 C2265 1.419 . S
C2264 C2262 1.415 . S
C2264 C2269 1.425 . S
C2264 C2271 1.409 . S
C2265 H2257 0.930 . S
C2265 C2263 1.419 . S
C2265 C2266 1.362 . S
C2266 H2258 0.930 . S
C2266 C2265 1.362 . S
C2266 C2269 1.409 . S
C2267 H2259 0.930 . S
C2267 C2268 1.355 . S
C2267 C2269 1.415 . S
C2268 C2267 1.355 . S
C2268 C2270 1.419 . S
C2269 C2264 1.425 . S
C2269 C2266 1.409 . S
C2269 C2267 1.415 . S
C2270 H2260 0.930 . S
C2270 C2268 1.419 . S
C2270 C2271 1.362 . S
C2271 H2261 0.930 . S
C2271 C2264 1.409 . S
C2271 C2270 1.362 . S
H2272 C2278 0.930 . S
H2273 C2281 0.930 . S
H2274 C2282 0.930 . S
H2275 C2283 0.930 . S
H2276 C2286 0.930 . S
H2277 C2287 0.930 . S
C2278 H2272 0.930 . S
C2278 C2279 1.355 . S
C2278 C2280 1.415 . S
C2279 C2278 1.355 . S
C2279 C2281 1.419 . S
C2280 C2278 1.415 . S
C2280 C2285 1.425 . S
C2280 C2287 1.409 . S
C2281 H2273 0.930 . S
C2281 C2279 1.419 . S
C2281 C2282 1.362 . S
C2282 H2274 0.930 . S
C2282 C2281 1.362 . S
C2282 C2285 1.409 . S
C2283 H2275 0.930 . S
C2283 C2284 1.355 . S
C2283 C2285 1.415 . S
C2284 C2283 1.355 . S
C2284 C2286 1.419 . S
C2285 C2280 1.425 . S
C2285 C2282 1.409 . S
C2285 C2283 1.415 . S
C2286 H2276 0.930 . S
C2286 C2284 1.419 . S
C2286 C2287 1.362 . S
C2287 H2277 0.930 . S
C2287 C2280 1.409 . S
C2287 C2286 1.362 . S
H2288 C2294 0.930 . S
H2289 C2297 0.930 . S
H2290 C2298 0.930 . S
H2291 C2299 0.930 . S
H2292 C2302 0.930 . S
H2293 C2303 0.930 . S
C2294 H2288 0.930 . S
C2294 C2295 1.355 . S
C2294 C2296 1.415 . S
C2295 C2294 1.355 . S
C2295 C2297 1.419 . S
C2296 C2294 1.415 . S
C2296 C2301 1.425 . S
C2296 C2303 1.409 . S
C2297 H2289 0.930 . S
C2297 C2295 1.419 . S
C2297 C2298 1.362 . S
C2298 H2290 0.930 . S
C2298 C2297 1.362 . S
C2298 C2301 1.409 . S
C2299 H2291 0.930 . S
C2299 C2300 1.355 . S
C2299 C2301 1.415 . S
C2300 C2299 1.355 . S
C2300 C2302 1.419 . S
C2301 C2296 1.425 . S
C2301 C2298 1.409 . S
C2301 C2299 1.415 . S
C2302 H2292 0.930 . S
C2302 C2300 1.419 . S
C2302 C2303 1.362 . S
C2303 H2293 0.930 . S
C2303 C2296 1.409 . S
C2303 C2302 1.362 . S
C775 C21 1.121 . S
C780 C274 1.129 . S
C791 C49 1.465 . S
C796 C310 1.714 1_655 S
C807 C342 1.363 . S
C812 C85 1.299 . S
C823 C370 1.071 . S
C828 C117 1.123 . S
C839 C149 1.077 . S
C844 C374 1.095 . S
C855 C181 1.291 . S
C860 C278 1.300 . S
C871 C209 1.357 . S
C876 C306 1.535 . S
C887 C338 1.179 . S
C892 C245 1.121 . S
C903 C402 1.112 . S
C908 C277 1.182 . S
C919 C305 1.622 . S
C924 C534 1.780 . S
C935 C337 1.603 . S
C940 C470 1.846 . S
C951 C502 1.293 . S
C956 C373 1.283 . S
C967 C369 1.743 . S
C972 C630 1.906 . S
C983 C566 1.664 . S
C988 C273 1.544 . S
C999 C309 1.080 . S
C1004 C598 1.138 . S
C1015 C434 1.337 . S
C1020 C341 1.334 . S
C1031 C405 1.349 . S
C1036 C18 1.370 . S
C1047 C241 1.545 . S
C1052 C562 1.684 . S
C1063 C594 1.626 1_554 S
C1068 C145 1.376 . S
C1079 C438 1.991 . S
C1084 C177 1.829 . S
C1095 C242 1.269 . S
C1100 C437 1.210 . S
C1111 C82 1.608 . S
C1116 C465 1.493 . S
C1127 C466 1.654 . S
C1132 C17 1.452 . S
C1143 C406 1.965 . S
C1148 C81 1.728 . S
C1159 C501 1.102 . S
C1164 C658 1.054 . S
C1175 C401 1.433 . S
C1180 C694 1.685 . S
C1191 C726 1.306 . S
C1196 C533 1.339 . S
C1207 C469 1.144 . S
C1212 C758 1.106 . S
C1223 C754 1.106 . S
C1228 C565 1.110 . S
C1239 C662 1.293 . S
C1244 C597 1.217 . S
C1255 C433 1.331 . S
C1260 C690 1.552 . S
C1271 C722 1.128 . S
C1276 C629 1.181 . S
C1287 C50 1.156 . S
C1292 C661 1.166 . S
C1303 C689 1.621 . S
C1308 C86 1.782 . S
C1319 C118 1.750 . S
C1324 C721 1.531 . S
C1335 C22 1.909 . S
C1340 C753 1.719 . S
C1351 C757 1.276 . S
C1356 C246 1.349 . S
C1367 C657 1.643 . S
C1372 C150 1.799 . S
C1383 C693 1.083 . S
C1388 C182 1.165 . S
C1399 C725 1.301 . S
C1404 C210 1.331 . S
C1415 C53 1.285 . S
C1420 C498 1.337 . S
C1431 C146 1.652 . S
C1436 C625 1.449 . S
C1447 C561 1.554 . S
C1452 C178 1.686 . S
C1463 C214 2.035 . S
C1468 C593 1.864 . S
C1479 C213 1.310 . S
C1484 C626 1.253 . S
C1495 C113 1.540 . S
C1500 C530 1.700 . S
C1511 C497 1.572 . S
C1516 C114 1.685 . S
C1527 C529 1.791 . S
C1532 C54 2.000 1_545 S
C1543 C16 1.833 . S
C1548 C311 1.765 . S
C1559 C343 2.097 . S
C1564 C55 2.099 . S
C1575 C368 1.589 . S
C1580 C80 1.574 . S
C1591 C272 1.609 . S
C1596 C112 1.582 . S
C1607 C336 1.630 . S
C1612 C144 1.636 . S
C1623 C375 1.745 . S
C1628 C176 1.804 . S
C1639 C279 2.002 . S
C1644 C215 1.996 . S
C1655 C240 1.579 . S
C1660 C304 1.601 . S
C1671 C151 1.721 . S
C1676 C400 1.789 . S
C1687 C247 2.068 . S
C1692 C503 2.063 . S
C1703 C535 2.014 . S
C1708 C183 2.018 . S
C1719 C432 1.922 . S
C1724 C119 1.851 . S
C1735 C208 1.849 . S
C1740 C471 1.814 . S
C1751 C23 2.036 . S
C1756 C631 2.036 . S
C1767 C599 1.891 . S
C1772 C87 1.893 . S
C1783 C695 1.753 . S
C1788 C496 1.785 . S
C1799 C727 1.964 . S
C1804 C407 1.956 . S
C1815 C528 1.832 . S
C1820 C759 1.779 . S
C1831 C656 1.585 . S
C1836 C464 1.602 . S
C1847 C720 1.631 . S
C1852 C560 1.644 . S
C1863 C752 1.537 . S
C1868 C592 1.557 . S
C1879 C439 2.065 . S
C1884 C663 2.068 . S
C1895 C688 1.644 . S
C1900 C624 1.628 . S
C1911 C48 1.862 . S
C1916 C567 1.812 . S
C1927 C148 1.604 . S
C1932 C20 1.611 . S
C1943 C180 1.915 . S
C1948 C51 1.860 . S
C1959 C211 1.701 . S
C1964 C84 1.817 . S
C1975 C244 1.605 . S
C1980 C116 1.609 . S
C1991 C308 1.732 . S
C1996 C276 1.733 . S
C2007 C340 1.936 . S
C2012 C307 1.824 . S
C2023 C339 2.105 . S
C2028 C371 2.162 . S
C2039 C275 1.821 . S
C2044 C372 1.934 . S
C2055 C404 1.926 . S
C2060 C115 1.848 . S
C2071 C243 2.149 . S
C2076 C595 2.114 . S
C2087 C436 1.874 . S
C2092 C147 1.829 . S
C2103 C179 2.078 . S
C2108 C627 2.089 . S
C2119 C52 1.962 . S
C2124 C467 1.858 . S
C2135 C19 2.019 . S
C2140 C531 1.978 . S
C2151 C83 2.048 . S
C2156 C499 2.049 . S
C2167 C564 1.654 . S
C2172 C500 1.648 . S
C2183 C403 1.732 . S
C2188 C596 1.794 . S
C2199 C435 1.854 . S
C2204 C532 1.935 . S
C2215 C468 1.529 . S
C2220 C628 1.525 . S
C2231 C692 1.750 . S
C2236 C660 1.748 . S
C2247 C724 1.923 . S
C2252 C691 1.867 . S
C2263 C756 1.958 . S
C2268 C723 1.838 . S
C2279 C755 2.147 . S
C2284 C659 2.094 . S
C2295 C212 1.812 . S
C2300 C563 1.720 . S
