# Generated by pormake.
# Topology svi, (7)-cn, num edge types: 1
# Building blocks:
#     Node 0, Type 0, BuildingBlock: HICVOG_clean_sbu_0, # of connection points: 7
#     Node 1, Type 0, BuildingBlock: HICVOG_clean_sbu_0, # of connection points: 7
#     Node 2, Type 0, BuildingBlock: HICVOG_clean_sbu_0, # of connection points: 7
#     Node 3, Type 0, BuildingBlock: HICVOG_clean_sbu_0, # of connection points: 7
#     Node 4, Type 0, BuildingBlock: HICVOG_clean_sbu_0, # of connection points: 7
#     Node 5, Type 0, BuildingBlock: HICVOG_clean_sbu_0, # of connection points: 7
#     Node 6, Type 0, BuildingBlock: HICVOG_clean_sbu_0, # of connection points: 7
#     Node 7, Type 0, BuildingBlock: HICVOG_clean_sbu_0, # of connection points: 7
#     Edge 8, Type (0, 0), None
#     Edge 9, Type (0, 0), None
#     Edge 10, Type (0, 0), None
#     Edge 11, Type (0, 0), None
#     Edge 12, Type (0, 0), None
#     Edge 13, Type (0, 0), None
#     Edge 14, Type (0, 0), None
#     Edge 15, Type (0, 0), None
#     Edge 16, Type (0, 0), None
#     Edge 17, Type (0, 0), None
#     Edge 18, Type (0, 0), None
#     Edge 19, Type (0, 0), None
#     Edge 20, Type (0, 0), None
#     Edge 21, Type (0, 0), None
#     Edge 22, Type (0, 0), None
#     Edge 23, Type (0, 0), None
#     Edge 24, Type (0, 0), None
#     Edge 25, Type (0, 0), None
#     Edge 26, Type (0, 0), None
#     Edge 27, Type (0, 0), None
#     Edge 28, Type (0, 0), None
#     Edge 29, Type (0, 0), None
#     Edge 30, Type (0, 0), None
#     Edge 31, Type (0, 0), None
#     Edge 32, Type (0, 0), None
#     Edge 33, Type (0, 0), None
#     Edge 34, Type (0, 0), None
#     Edge 35, Type (0, 0), None
# Relax obj value: 0.340
# Max RMSD: 0.293
# Mean RMSD: 0.252
data_MOF--net-svi--node1-HICVOG_clean_sbu_0--edge1-none
_symmetry_space_group_name_H-M    P1
_symmetry_Int_Tables_number       1
_symmetry_cell_setting            triclinic
loop_
_symmetry_equiv_pos_as_xyz
'x, y, z'
_cell_length_a     15.173331
_cell_length_b     12.398734
_cell_length_c     23.300432
_cell_angle_alpha  96.174717
_cell_angle_beta   96.420339
_cell_angle_gamma 89.887961
loop_
_atom_site_label
_atom_site_type_symbol
_atom_site_fract_x
_atom_site_fract_y
_atom_site_fract_z
_atom_type_partial_charge
Zn0 Zn 0.32151 0.37919 1.01299 0.0
C1 C 0.11091 0.53321 0.07863 0.0
N2 N 0.14817 0.62271 0.06488 0.0
C3 C 0.22734 0.59065 0.04928 0.0
N4 N 0.23921 0.4821 0.05286 0.0
N5 N 0.16603 0.44652 0.07307 0.0
C6 C 0.97758 0.1927 0.04393 0.0
O7 O 1.01956 0.17311 0.99765 0.0
O8 O 0.44716 0.42519 0.99666 0.0
Zn9 Zn 0.14652 0.30474 0.10721 0.0
N10 N 0.27076 0.34682 0.93257 0.0
C11 C 0.20803 0.43457 0.85176 0.0
C12 C 0.21787 0.42524 0.91113 0.0
C13 C 0.3108 0.27357 0.89616 0.0
N14 N 0.25072 0.36449 0.8158 0.0
C15 C 0.30186 0.28364 0.83622 0.0
O16 O 0.23382 0.18162 0.09796 0.0
C17 C 0.31368 0.18237 0.087 0.0
O18 O 0.34218 0.2525 0.05758 0.0
H19 H 0.18895 0.48557 0.94003 0.0
H20 H 0.35506 0.21428 0.91394 0.0
C21 C 0.23299 0.29022 0.22378 0.0
C22 C 0.23338 0.29295 0.28434 0.0
C23 C 0.09603 0.38576 0.27754 0.0
C24 C 0.0949 0.37969 0.21745 0.0
N25 N 0.1631 0.33276 0.19162 0.0
N26 N 0.16454 0.34189 0.30931 0.0
H27 H 0.28546 0.25 0.2024 0.0
C28 C 0.51856 0.3786 0.98148 0.0
O29 O 0.58253 0.44119 0.97006 0.0
O30 O 1.01777 0.24358 0.08987 0.0
H31 H 0.03886 0.40779 0.191 0.0
H32 H 0.16926 0.49963 0.83464 0.0
H33 H 0.04191 0.42239 0.29882 0.0
Zn34 Zn 0.71179 0.14462 0.09988 0.0
C35 C 0.53986 0.26125 0.98513 0.0
N36 N 0.48129 0.18598 0.99516 0.0
C37 C 0.53205 0.11101 1.02184 0.0
N38 N 0.61764 0.14733 0.03211 0.0
N39 N 0.62298 0.23083 1.00237 0.0
C40 C 0.80622 0.42288 0.02978 0.0
O41 O 0.77794 0.37053 0.07009 0.0
O42 O 0.7259 0.99388 0.11612 0.0
Zn43 Zn 0.72875 0.25113 0.96591 0.0
N44 N 0.68824 0.24961 0.16677 0.0
C45 C 0.62227 0.42162 0.18767 0.0
C46 C 0.63659 0.33215 0.14901 0.0
C47 C 0.72583 0.25289 0.22359 0.0
N48 N 0.65776 0.42424 0.24362 0.0
C49 C 0.70914 0.34315 0.26369 0.0
O50 O 0.8366 0.16187 0.98969 0.0
C51 C 0.8805 0.17271 0.03963 0.0
O52 O 0.84067 0.18044 0.08522 0.0
H53 H 0.60853 0.33039 0.10442 0.0
H54 H 0.76625 0.18638 0.2374 0.0
C55 C 0.77965 0.2473 0.85879 0.0
C56 C 0.77544 0.23285 0.79858 0.0
C57 C 0.63293 0.15079 0.79408 0.0
C58 C 0.63677 0.16748 0.85437 0.0
N59 N 0.70983 0.21654 0.88497 0.0
N60 N 0.70162 0.18469 0.76763 0.0
H61 H 0.83605 0.28737 0.885 0.0
C62 C 0.74439 0.94406 0.06846 0.0
O63 O 0.73006 0.99016 1.02026 0.0
O64 O 0.77486 0.4001 0.97762 0.0
H65 H 0.58236 0.14257 0.87636 0.0
H66 H 0.58225 0.48822 0.17356 0.0
H67 H 0.5754 0.11346 0.76837 0.0
Zn68 Zn 0.94185 0.73674 0.1354 0.0
C69 C 0.88816 0.48316 0.04258 0.0
N70 N 0.96451 0.44287 0.06668 0.0
C71 C 1.01407 0.53313 0.0833 0.0
N72 N 0.96575 0.62305 0.07321 0.0
N73 N 0.89197 0.58952 0.04144 0.0
C74 C 0.64682 0.67097 0.02665 0.0
O75 O 0.68733 0.65989 0.07847 0.0
O76 O 0.04303 0.84467 0.14751 0.0
Zn77 Zn 0.8222 0.67774 0.99083 0.0
N78 N 0.91404 0.67861 0.20612 0.0
C79 C 0.88108 0.53154 0.25847 0.0
C80 C 0.90984 0.57016 0.20957 0.0
C81 C 0.88212 0.74954 0.24746 0.0
N82 N 0.85027 0.60235 0.30002 0.0
C83 C 0.84796 0.71065 0.2952 0.0
O84 O 0.84073 0.82666 1.02352 0.0
C85 C 0.80234 0.8522 0.06836 0.0
O86 O 0.83076 0.81832 0.11615 0.0
H87 H 0.92576 0.51395 0.17406 0.0
H88 H 0.88004 0.8351 0.24184 0.0
C89 C 0.79261 0.72917 0.8795 0.0
C90 C 0.80209 0.73707 0.82094 0.0
C91 C 0.93467 0.63502 0.83165 0.0
C92 C 0.9237 0.6263 0.88989 0.0
N93 N 0.8524 0.67338 0.91234 0.0
N94 N 0.87353 0.68925 0.79847 0.0
H95 H 0.73748 0.76662 0.89941 0.0
C96 C 0.04194 0.92831 0.11996 0.0
O97 O 0.9702 0.9526 0.08763 0.0
O98 O 0.69021 0.66209 0.98318 0.0
H99 H 0.97147 0.58338 0.91683 0.0
H100 H 0.88003 0.44542 0.26214 0.0
H101 H 0.99135 0.59896 0.81297 0.0
Zn102 Zn 0.40849 0.82536 0.98729 0.0
C103 C 0.37543 0.09584 0.103 0.0
N104 N 0.46067 0.1218 0.10319 0.0
C105 C 0.48926 0.04981 0.06224 0.0
N106 N 0.42736 0.96719 0.04579 0.0
N107 N 0.35977 0.99718 0.07493 0.0
C108 C 0.12607 0.97294 0.10906 0.0
O109 O 0.13792 0.98603 0.05536 0.0
O110 O 0.52777 0.76131 0.97579 0.0
Zn111 Zn 0.3057 0.90463 0.1191 0.0
N112 N 0.32098 0.8536 0.92 0.0
C113 C 0.16997 0.90838 0.91627 0.0
C114 C 0.25054 0.89 0.94748 0.0
C115 C 0.31228 0.83066 0.86032 0.0
N116 N 0.1617 0.88899 0.85789 0.0
C117 C 0.22916 0.85013 0.82806 0.0
O118 O 0.28145 0.761 0.08179 0.0
C119 C 0.29294 0.67827 0.04749 0.0
O120 O 0.345 0.68331 1.00878 0.0
H121 H 0.25607 0.90053 0.99412 0.0
H122 H 0.36769 0.79859 0.83864 0.0
C123 C 0.31729 0.81487 0.21394 0.0
C124 C 0.34251 0.78329 0.26853 0.0
C125 C 0.48319 0.86666 0.26811 0.0
C126 C 0.45587 0.90152 0.21378 0.0
N127 N 0.37263 0.87545 0.18869 0.0
N128 N 0.42547 0.81039 0.29486 0.0
H129 H 0.25173 0.79553 0.192 0.0
C130 C 0.55767 0.71648 1.02089 0.0
O131 O 0.51258 0.72406 0.06606 0.0
O132 O 0.19234 0.95882 0.14503 0.0
H133 H 0.49966 0.9486 0.19234 0.0
H134 H 0.11384 0.93719 0.93814 0.0
H135 H 0.54878 0.88596 0.2893 0.0
Zn136 Zn 0.2118 0.64459 0.59988 0.0
C137 C 0.0399 0.76117 0.48504 0.0
N138 N 0.98134 0.68594 0.49515 0.0
C139 C 0.03207 0.61097 0.52183 0.0
N140 N 0.11766 0.64728 0.5321 0.0
N141 N 0.123 0.73074 0.50233 0.0
C142 C 0.30625 0.92283 0.52974 0.0
O143 O 0.27792 0.87055 0.57006 0.0
O144 O 0.22592 0.49386 0.61612 0.0
Zn145 Zn 0.2288 0.75099 0.46588 0.0
N146 N 0.18822 0.74958 0.66676 0.0
C147 C 0.12221 0.92157 0.68764 0.0
C148 C 0.13655 0.83209 0.64899 0.0
C149 C 0.2258 0.75289 0.72358 0.0
N150 N 0.15768 0.92421 0.7436 0.0
C151 C 0.20907 0.84314 0.76368 0.0
O152 O 0.33661 0.6617 0.4897 0.0
C153 C 0.38052 0.67266 0.53964 0.0
O154 O 0.34067 0.68046 0.58522 0.0
H155 H 0.10851 0.83032 0.6044 0.0
H156 H 0.26625 0.6864 0.73741 0.0
C157 C 0.27972 0.74716 0.35876 0.0
C158 C 0.27552 0.73271 0.29856 0.0
C159 C 0.13305 0.65055 0.29404 0.0
C160 C 0.13688 0.66725 0.35434 0.0
N161 N 0.20992 0.71636 0.38494 0.0
N162 N 0.20172 0.6845 0.26759 0.0
H163 H 0.33611 0.78726 0.38498 0.0
C164 C 0.2444 0.44401 0.56846 0.0
O165 O 0.23005 0.4901 0.52025 0.0
O166 O 0.27496 0.89994 0.47758 0.0
H167 H 0.08247 0.6423 0.37633 0.0
H168 H 0.08217 0.98815 0.67352 0.0
H169 H 0.07553 0.61318 0.26834 0.0
Zn170 Zn 0.44184 0.23668 0.63541 0.0
C171 C 0.38818 0.98312 0.54255 0.0
N172 N 0.46451 0.94285 0.56669 0.0
C173 C 0.5141 1.03308 0.58336 0.0
N174 N 0.46575 0.12297 0.57324 0.0
N175 N 0.39199 0.08948 0.54143 0.0
C176 C 0.14686 0.17092 0.52664 0.0
O177 O 0.18736 0.15982 0.57846 0.0
O178 O 0.54302 0.34462 0.64751 0.0
Zn179 Zn 0.32224 0.17772 0.49083 0.0
N180 N 0.414 0.17857 0.70613 0.0
C181 C 0.38104 1.0315 0.75849 0.0
C182 C 0.40978 0.07011 0.70959 0.0
C183 C 0.38209 0.24951 0.74747 0.0
N184 N 0.35023 0.10232 0.80004 0.0
C185 C 0.34792 0.21062 0.79521 0.0
O186 O 0.34076 0.32663 0.52353 0.0
C187 C 0.30235 0.35216 0.56836 0.0
O188 O 0.33075 0.31826 0.61616 0.0
H189 H 0.42568 1.0139 0.67407 0.0
H190 H 0.38002 0.33506 0.74186 0.0
C191 C 0.29263 0.22918 0.37951 0.0
C192 C 0.30209 0.23709 0.32095 0.0
C193 C 0.4347 0.13507 0.33164 0.0
C194 C 0.42374 0.12633 0.38988 0.0
N195 N 0.35244 0.17339 0.41234 0.0
N196 N 0.37354 0.1893 0.29847 0.0
H197 H 0.2375 0.26662 0.39943 0.0
C198 C 0.54193 0.42827 0.61996 0.0
O199 O 0.47018 0.4526 0.58766 0.0
O200 O 0.19025 0.16206 0.48318 0.0
H201 H 0.47152 0.08341 0.41681 0.0
H202 H 0.37999 0.94539 0.76216 0.0
H203 H 0.49137 0.09902 0.31295 0.0
Zn204 Zn 0.90852 0.32528 0.4873 0.0
C205 C 0.8754 0.59584 0.603 0.0
N206 N 0.96067 0.62172 0.60316 0.0
C207 C 0.98928 0.54976 0.56223 0.0
N208 N 0.9274 0.46713 0.54578 0.0
N209 N 0.85983 0.49714 0.57493 0.0
C210 C 0.62605 0.47288 0.60904 0.0
O211 O 0.63789 0.48594 0.55533 0.0
O212 O 1.0278 0.26125 0.47579 0.0
Zn213 Zn 0.80573 0.40461 0.6191 0.0
N214 N 0.82102 0.35353 0.42001 0.0
C215 C 0.66998 0.40823 0.41628 0.0
C216 C 0.75055 0.38988 0.44749 0.0
C217 C 0.81233 0.33063 0.36033 0.0
N218 N 0.66172 0.38888 0.3579 0.0
C219 C 0.72921 0.35009 0.32807 0.0
O220 O 0.78155 0.261 0.58178 0.0
C221 C 0.79299 0.17823 0.5475 0.0
O222 O 0.84504 0.18321 0.50879 0.0
H223 H 0.75609 0.40039 0.49414 0.0
H224 H 0.86775 0.29861 0.33865 0.0
C225 C 0.81726 0.31492 0.71396 0.0
C226 C 0.84246 0.28338 0.76855 0.0
C227 C 0.98316 0.36667 0.76813 0.0
C228 C 0.95587 0.40151 0.71379 0.0
N229 N 0.87263 0.37546 0.6887 0.0
N230 N 0.92542 0.31045 0.79489 0.0
H231 H 0.75171 0.29558 0.692 0.0
C232 C 0.05771 0.21642 0.52088 0.0
O233 O 1.01262 0.224 0.56605 0.0
O234 O 0.69234 0.45877 0.645 0.0
H235 H 0.99968 0.44855 0.69235 0.0
H236 H 0.61384 0.43699 0.43816 0.0
H237 H 0.04876 0.38595 0.78932 0.0
Zn238 Zn 0.82155 0.87917 0.51299 0.0
C239 C 0.6109 1.03314 0.57856 0.0
N240 N 0.6482 0.1227 0.56493 0.0
C241 C 0.7274 0.09064 0.54938 0.0
N242 N 0.73924 0.98206 0.55286 0.0
N243 N 0.66603 0.94646 0.57302 0.0
C244 C 0.47758 0.69267 0.54394 0.0
O245 O 0.51957 0.67304 0.49766 0.0
O246 O 0.94723 0.92515 0.49673 0.0
Zn247 Zn 0.64652 0.80471 0.60719 0.0
N248 N 0.77083 0.84684 0.43257 0.0
C249 C 0.70807 0.93459 0.35177 0.0
C250 C 0.71794 0.92526 0.41114 0.0
C251 C 0.81086 0.77359 0.39616 0.0
N252 N 0.75075 0.86451 0.3158 0.0
C253 C 0.80191 0.78366 0.33622 0.0
O254 O 0.73379 0.68158 0.59793 0.0
C255 C 0.81366 0.68236 0.587 0.0
O256 O 0.84218 0.75249 0.55759 0.0
H257 H 0.68904 0.9856 0.44005 0.0
H258 H 0.85512 0.7143 0.41393 0.0
C259 C 0.73299 0.79014 0.72376 0.0
C260 C 0.7334 0.79296 0.78432 0.0
C261 C 0.59616 0.88601 0.77753 0.0
C262 C 0.59501 0.87988 0.71743 0.0
N263 N 0.66314 0.83277 0.6916 0.0
N264 N 0.66463 0.84206 0.8093 0.0
H265 H 0.78541 0.74981 0.70238 0.0
C266 C 1.01865 0.87859 0.48156 0.0
O267 O 0.08263 0.9412 0.47018 0.0
O268 O 0.51776 0.74357 0.58987 0.0
H269 H 0.53902 0.90808 0.69099 0.0
H270 H 0.6693 0.99964 0.33465 0.0
H271 H 0.54209 0.92276 0.79882 0.0
loop_
_geom_bond_atom_site_label_1
_geom_bond_atom_site_label_2
_geom_bond_distance
_geom_bond_site_symmetry_2
_ccdc_geom_bond_type
Zn0 N4 2.020 1_556 S
Zn0 O8 2.019 . S
Zn0 N10 2.119 . S
Zn0 O18 1.975 1_556 S
C1 N2 1.334 . S
C1 N5 1.336 . S
N2 C1 1.334 . S
N2 C3 1.334 . S
C3 N2 1.334 . S
C3 N4 1.336 . S
N4 Zn0 2.020 1_554 S
N4 C3 1.336 . S
N4 N5 1.354 . S
N5 C1 1.336 . S
N5 N4 1.354 . S
N5 Zn9 2.020 . S
C6 O7 1.244 . S
C6 O30 1.257 . S
O7 C6 1.244 . S
O8 Zn0 2.019 . S
O8 C28 1.257 1_556 S
Zn9 N5 2.020 . S
Zn9 O16 1.975 . S
Zn9 N25 2.119 . S
Zn9 O30 2.019 1_455 S
N10 Zn0 2.119 . S
N10 C12 1.334 . S
N10 C13 1.328 . S
C11 C12 1.391 . S
C11 N14 1.329 . S
C11 H32 0.930 . S
C12 N10 1.334 . S
C12 C11 1.391 . S
C12 H19 0.930 . S
C13 N10 1.328 . S
C13 C15 1.392 . S
C13 H20 0.930 . S
N14 C11 1.329 . S
N14 C15 1.331 . S
C15 C13 1.392 . S
C15 N14 1.331 . S
O16 Zn9 1.975 . S
O16 C17 1.252 . S
C17 O16 1.252 . S
C17 O18 1.252 . S
O18 Zn0 1.975 1_554 S
O18 C17 1.252 . S
H19 C12 0.930 . S
H20 C13 0.930 . S
C21 C22 1.392 . S
C21 N25 1.328 . S
C21 H27 0.930 . S
C22 C21 1.392 . S
C22 N26 1.331 . S
C23 C24 1.391 . S
C23 N26 1.329 . S
C23 H33 0.930 . S
C24 C23 1.391 . S
C24 N25 1.334 . S
C24 H31 0.930 . S
N25 Zn9 2.119 . S
N25 C21 1.328 . S
N25 C24 1.334 . S
N26 C22 1.331 . S
N26 C23 1.329 . S
H27 C21 0.930 . S
C28 O8 1.257 1_554 S
C28 O29 1.244 . S
O29 C28 1.244 . S
O30 C6 1.257 . S
O30 Zn9 2.019 1_655 S
H31 C24 0.930 . S
H32 C11 0.930 . S
H33 C23 0.930 . S
Zn34 N38 2.020 . S
Zn34 O42 2.019 1_545 S
Zn34 N44 2.119 . S
Zn34 O52 1.975 . S
C35 N36 1.334 1_556 S
C35 N39 1.336 . S
N36 C35 1.334 1_554 S
N36 C37 1.334 . S
C37 N36 1.334 . S
C37 N38 1.336 . S
N38 Zn34 2.020 . S
N38 C37 1.336 . S
N38 N39 1.354 1_554 S
N39 C35 1.336 . S
N39 N38 1.354 1_556 S
N39 Zn43 2.020 . S
C40 O41 1.244 1_556 S
C40 O64 1.257 . S
O41 C40 1.244 1_554 S
O42 Zn34 2.019 1_565 S
O42 C62 1.257 . S
Zn43 N39 2.020 . S
Zn43 O50 1.975 1_556 S
Zn43 N59 2.119 . S
Zn43 O64 2.019 . S
N44 Zn34 2.119 . S
N44 C46 1.334 . S
N44 C47 1.328 . S
C45 C46 1.391 . S
C45 N48 1.329 . S
C45 H66 0.930 . S
C46 N44 1.334 . S
C46 C45 1.391 . S
C46 H53 0.930 . S
C47 N44 1.328 . S
C47 C49 1.392 . S
C47 H54 0.930 . S
N48 C45 1.329 . S
N48 C49 1.331 . S
C49 C47 1.392 . S
C49 N48 1.331 . S
O50 Zn43 1.975 1_554 S
O50 C51 1.252 . S
C51 O50 1.252 . S
C51 O52 1.252 . S
O52 Zn34 1.975 . S
O52 C51 1.252 . S
H53 C46 0.930 . S
H54 C47 0.930 . S
C55 C56 1.392 . S
C55 N59 1.328 . S
C55 H61 0.930 . S
C56 C55 1.392 . S
C56 N60 1.331 . S
C57 C58 1.391 . S
C57 N60 1.329 . S
C57 H67 0.930 . S
C58 C57 1.391 . S
C58 N59 1.334 . S
C58 H65 0.930 . S
N59 Zn43 2.119 . S
N59 C55 1.328 . S
N59 C58 1.334 . S
N60 C56 1.331 . S
N60 C57 1.329 . S
H61 C55 0.930 . S
C62 O42 1.257 . S
C62 O63 1.244 1_554 S
O63 C62 1.244 1_556 S
O64 C40 1.257 . S
O64 Zn43 2.019 . S
H65 C58 0.930 . S
H66 C45 0.930 . S
H67 C57 0.930 . S
Zn68 N72 2.020 . S
Zn68 O76 2.019 1_655 S
Zn68 N78 2.119 . S
Zn68 O86 1.975 . S
C69 N70 1.334 . S
C69 N73 1.336 . S
N70 C69 1.334 . S
N70 C71 1.334 . S
C71 N70 1.334 . S
C71 N72 1.336 . S
N72 Zn68 2.020 . S
N72 C71 1.336 . S
N72 N73 1.354 . S
N73 C69 1.336 . S
N73 N72 1.354 . S
N73 Zn77 2.020 1_554 S
C74 O75 1.244 1_556 S
C74 O98 1.257 . S
O75 C74 1.244 1_554 S
O76 Zn68 2.019 1_455 S
O76 C96 1.257 . S
Zn77 N73 2.020 1_556 S
Zn77 O84 1.975 1_556 S
Zn77 N93 2.119 . S
Zn77 O98 2.019 . S
N78 Zn68 2.119 . S
N78 C80 1.334 . S
N78 C81 1.328 . S
C79 C80 1.391 . S
C79 N82 1.329 . S
C79 H100 0.930 . S
C80 N78 1.334 . S
C80 C79 1.391 . S
C80 H87 0.930 . S
C81 N78 1.328 . S
C81 C83 1.392 . S
C81 H88 0.930 . S
N82 C79 1.329 . S
N82 C83 1.331 . S
C83 C81 1.392 . S
C83 N82 1.331 . S
O84 Zn77 1.975 1_554 S
O84 C85 1.252 . S
C85 O84 1.252 . S
C85 O86 1.252 . S
O86 Zn68 1.975 . S
O86 C85 1.252 . S
H87 C80 0.930 . S
H88 C81 0.930 . S
C89 C90 1.392 . S
C89 N93 1.328 . S
C89 H95 0.930 . S
C90 C89 1.392 . S
C90 N94 1.331 . S
C91 C92 1.391 . S
C91 N94 1.329 . S
C91 H101 0.930 . S
C92 C91 1.391 . S
C92 N93 1.334 . S
C92 H99 0.930 . S
N93 Zn77 2.119 . S
N93 C89 1.328 . S
N93 C92 1.334 . S
N94 C90 1.331 . S
N94 C91 1.329 . S
H95 C89 0.930 . S
C96 O76 1.257 . S
C96 O97 1.244 . S
O97 C96 1.244 . S
O98 C74 1.257 . S
O98 Zn77 2.019 . S
H99 C92 0.930 . S
H100 C79 0.930 . S
H101 C91 0.930 . S
Zn102 N106 2.020 1_556 S
Zn102 O110 2.019 . S
Zn102 N112 2.119 . S
Zn102 O120 1.975 1_556 S
C103 N104 1.334 . S
C103 N107 1.336 1_545 S
N104 C103 1.334 . S
N104 C105 1.334 1_545 S
C105 N104 1.334 1_565 S
C105 N106 1.336 . S
N106 Zn102 2.020 1_554 S
N106 C105 1.336 . S
N106 N107 1.354 . S
N107 C103 1.336 1_565 S
N107 N106 1.354 . S
N107 Zn111 2.020 . S
C108 O109 1.244 . S
C108 O132 1.257 . S
O109 C108 1.244 . S
O110 Zn102 2.019 . S
O110 C130 1.257 1_556 S
Zn111 N107 2.020 . S
Zn111 O118 1.975 . S
Zn111 N127 2.119 . S
Zn111 O132 2.019 . S
N112 Zn102 2.119 . S
N112 C114 1.334 . S
N112 C115 1.328 . S
C113 C114 1.391 . S
C113 N116 1.329 . S
C113 H134 0.930 . S
C114 N112 1.334 . S
C114 C113 1.391 . S
C114 H121 0.930 . S
C115 N112 1.328 . S
C115 C117 1.392 . S
C115 H122 0.930 . S
N116 C113 1.329 . S
N116 C117 1.331 . S
C117 C115 1.392 . S
C117 N116 1.331 . S
O118 Zn111 1.975 . S
O118 C119 1.252 . S
C119 O118 1.252 . S
C119 O120 1.252 . S
O120 Zn102 1.975 1_554 S
O120 C119 1.252 . S
H121 C114 0.930 . S
H122 C115 0.930 . S
C123 C124 1.392 . S
C123 N127 1.328 . S
C123 H129 0.930 . S
C124 C123 1.392 . S
C124 N128 1.331 . S
C125 C126 1.391 . S
C125 N128 1.329 . S
C125 H135 0.930 . S
C126 C125 1.391 . S
C126 N127 1.334 . S
C126 H133 0.930 . S
N127 Zn111 2.119 . S
N127 C123 1.328 . S
N127 C126 1.334 . S
N128 C124 1.331 . S
N128 C125 1.329 . S
H129 C123 0.930 . S
C130 O110 1.257 1_554 S
C130 O131 1.244 . S
O131 C130 1.244 . S
O132 C108 1.257 . S
O132 Zn111 2.019 . S
H133 C126 0.930 . S
H134 C113 0.930 . S
H135 C125 0.930 . S
Zn136 N140 2.020 . S
Zn136 O144 2.019 . S
Zn136 N146 2.119 . S
Zn136 O154 1.975 . S
C137 N138 1.334 1_455 S
C137 N141 1.336 . S
N138 C137 1.334 1_655 S
N138 C139 1.334 1_655 S
C139 N138 1.334 1_455 S
C139 N140 1.336 . S
N140 Zn136 2.020 . S
N140 C139 1.336 . S
N140 N141 1.354 . S
N141 C137 1.336 . S
N141 N140 1.354 . S
N141 Zn145 2.020 . S
C142 O143 1.239 1_545 S
C142 O166 1.253 1_545 S
O143 C142 1.239 1_565 S
O144 Zn136 2.019 . S
O144 C164 1.257 . S
Zn145 N141 2.020 . S
Zn145 O152 1.975 . S
Zn145 N161 2.119 . S
Zn145 O166 2.019 . S
N146 Zn136 2.119 . S
N146 C148 1.334 . S
N146 C149 1.328 . S
C147 C148 1.391 . S
C147 N150 1.329 . S
C147 H168 0.930 . S
C148 N146 1.334 . S
C148 C147 1.391 . S
C148 H155 0.930 . S
C149 N146 1.328 . S
C149 C151 1.392 . S
C149 H156 0.930 . S
N150 C147 1.329 . S
N150 C151 1.331 . S
C151 C149 1.392 . S
C151 N150 1.331 . S
O152 Zn145 1.975 . S
O152 C153 1.252 . S
C153 O152 1.252 . S
C153 O154 1.252 . S
O154 Zn136 1.975 . S
O154 C153 1.252 . S
H155 C148 0.930 . S
H156 C149 0.930 . S
C157 C158 1.392 . S
C157 N161 1.328 . S
C157 H163 0.930 . S
C158 C157 1.392 . S
C158 N162 1.331 . S
C159 C160 1.391 . S
C159 N162 1.329 . S
C159 H169 0.930 . S
C160 C159 1.391 . S
C160 N161 1.334 . S
C160 H167 0.930 . S
N161 Zn145 2.119 . S
N161 C157 1.328 . S
N161 C160 1.334 . S
N162 C158 1.331 . S
N162 C159 1.329 . S
H163 C157 0.930 . S
C164 O144 1.257 . S
C164 O165 1.244 . S
O165 C164 1.244 . S
O166 C142 1.253 1_565 S
O166 Zn145 2.019 . S
H167 C160 0.930 . S
H168 C147 0.930 . S
H169 C159 0.930 . S
Zn170 N174 2.020 . S
Zn170 O178 2.019 . S
Zn170 N180 2.119 . S
Zn170 O188 1.975 . S
C171 N172 1.334 . S
C171 N175 1.336 1_565 S
N172 C171 1.334 . S
N172 C173 1.334 1_565 S
C173 N172 1.334 1_545 S
C173 N174 1.336 . S
N174 Zn170 2.020 . S
N174 C173 1.336 . S
N174 N175 1.354 . S
N175 C171 1.336 1_545 S
N175 N174 1.354 . S
N175 Zn179 2.020 . S
C176 O177 1.244 . S
C176 O200 1.257 . S
O177 C176 1.244 . S
O178 Zn170 2.019 . S
O178 C198 1.257 . S
Zn179 N175 2.020 . S
Zn179 O186 1.975 . S
Zn179 N195 2.119 . S
Zn179 O200 2.019 . S
N180 Zn170 2.119 . S
N180 C182 1.334 . S
N180 C183 1.328 . S
C181 C182 1.391 . S
C181 N184 1.329 . S
C181 H202 0.930 . S
C182 N180 1.334 . S
C182 C181 1.391 . S
C182 H189 0.930 . S
C183 N180 1.328 . S
C183 C185 1.392 . S
C183 H190 0.930 . S
N184 C181 1.329 . S
N184 C185 1.331 . S
C185 C183 1.392 . S
C185 N184 1.331 . S
O186 Zn179 1.975 . S
O186 C187 1.252 . S
C187 O186 1.252 . S
C187 O188 1.252 . S
O188 Zn170 1.975 . S
O188 C187 1.252 . S
H189 C182 0.930 . S
H190 C183 0.930 . S
C191 C192 1.392 . S
C191 N195 1.328 . S
C191 H197 0.930 . S
C192 C191 1.392 . S
C192 N196 1.331 . S
C193 C194 1.391 . S
C193 N196 1.329 . S
C193 H203 0.930 . S
C194 C193 1.391 . S
C194 N195 1.334 . S
C194 H201 0.930 . S
N195 Zn179 2.119 . S
N195 C191 1.328 . S
N195 C194 1.334 . S
N196 C192 1.331 . S
N196 C193 1.329 . S
H197 C191 0.930 . S
C198 O178 1.257 . S
C198 O199 1.244 . S
O199 C198 1.244 . S
O200 C176 1.257 . S
O200 Zn179 2.019 . S
H201 C194 0.930 . S
H202 C181 0.930 . S
H203 C193 0.930 . S
Zn204 N208 2.020 . S
Zn204 O212 2.019 1_655 S
Zn204 N214 2.119 . S
Zn204 O222 1.975 . S
C205 N206 1.334 . S
C205 N209 1.336 . S
N206 C205 1.334 . S
N206 C207 1.334 . S
C207 N206 1.334 . S
C207 N208 1.336 . S
N208 Zn204 2.020 . S
N208 C207 1.336 . S
N208 N209 1.354 . S
N209 C205 1.336 . S
N209 N208 1.354 . S
N209 Zn213 2.020 . S
C210 O211 1.244 . S
C210 O234 1.257 . S
O211 C210 1.244 . S
O212 Zn204 2.019 1_455 S
O212 C232 1.257 . S
Zn213 N209 2.020 . S
Zn213 O220 1.975 . S
Zn213 N229 2.119 . S
Zn213 O234 2.019 . S
N214 Zn204 2.119 . S
N214 C216 1.334 . S
N214 C217 1.328 . S
C215 C216 1.391 . S
C215 N218 1.329 . S
C215 H236 0.930 . S
C216 N214 1.334 . S
C216 C215 1.391 . S
C216 H223 0.930 . S
C217 N214 1.328 . S
C217 C219 1.392 . S
C217 H224 0.930 . S
N218 C215 1.329 . S
N218 C219 1.331 . S
C219 C217 1.392 . S
C219 N218 1.331 . S
O220 Zn213 1.975 . S
O220 C221 1.252 . S
C221 O220 1.252 . S
C221 O222 1.252 . S
O222 Zn204 1.975 . S
O222 C221 1.252 . S
H223 C216 0.930 . S
H224 C217 0.930 . S
C225 C226 1.392 . S
C225 N229 1.328 . S
C225 H231 0.930 . S
C226 C225 1.392 . S
C226 N230 1.331 . S
C227 C228 1.391 . S
C227 N230 1.329 . S
C227 H237 0.930 . S
C228 C227 1.391 . S
C228 N229 1.334 . S
C228 H235 0.930 . S
N229 Zn213 2.119 . S
N229 C225 1.328 . S
N229 C228 1.334 . S
N230 C226 1.331 . S
N230 C227 1.329 . S
H231 C225 0.930 . S
C232 O212 1.257 . S
C232 O233 1.244 . S
O233 C232 1.244 . S
O234 C210 1.257 . S
O234 Zn213 2.019 . S
H235 C228 0.930 . S
H236 C215 0.930 . S
H237 C227 0.930 . S
Zn238 N242 2.020 . S
Zn238 O246 2.019 . S
Zn238 N248 2.119 . S
Zn238 O256 1.975 . S
C239 N240 1.334 . S
C239 N243 1.336 1_545 S
N240 C239 1.334 . S
N240 C241 1.334 . S
C241 N240 1.334 . S
C241 N242 1.336 1_545 S
N242 Zn238 2.020 . S
N242 C241 1.336 1_565 S
N242 N243 1.354 . S
N243 C239 1.336 1_565 S
N243 N242 1.354 . S
N243 Zn247 2.020 . S
C244 O245 1.244 . S
C244 O268 1.257 . S
O245 C244 1.244 . S
O246 Zn238 2.019 . S
O246 C266 1.257 . S
Zn247 N243 2.020 . S
Zn247 O254 1.975 . S
Zn247 N263 2.119 . S
Zn247 O268 2.019 . S
N248 Zn238 2.119 . S
N248 C250 1.334 . S
N248 C251 1.328 . S
C249 C250 1.391 . S
C249 N252 1.329 . S
C249 H270 0.930 . S
C250 N248 1.334 . S
C250 C249 1.391 . S
C250 H257 0.930 . S
C251 N248 1.328 . S
C251 C253 1.392 . S
C251 H258 0.930 . S
N252 C249 1.329 . S
N252 C253 1.331 . S
C253 C251 1.392 . S
C253 N252 1.331 . S
O254 Zn247 1.975 . S
O254 C255 1.252 . S
C255 O254 1.252 . S
C255 O256 1.252 . S
O256 Zn238 1.975 . S
O256 C255 1.252 . S
H257 C250 0.930 . S
H258 C251 0.930 . S
C259 C260 1.392 . S
C259 N263 1.328 . S
C259 H265 0.930 . S
C260 C259 1.392 . S
C260 N264 1.331 . S
C261 C262 1.391 . S
C261 N264 1.329 . S
C261 H271 0.930 . S
C262 C261 1.391 . S
C262 N263 1.334 . S
C262 H269 0.930 . S
N263 Zn247 2.119 . S
N263 C259 1.328 . S
N263 C262 1.334 . S
N264 C260 1.331 . S
N264 C261 1.329 . S
H265 C259 0.930 . S
C266 O246 1.257 . S
C266 O267 1.244 . S
O267 C266 1.244 . S
O268 C244 1.257 . S
O268 Zn247 2.019 . S
H269 C262 0.930 . S
H270 C249 0.930 . S
H271 C261 0.930 . S
C192 C22 2.079 . S
C49 C219 2.380 . S
C253 C83 2.555 . S
C158 C124 1.623 . S
C90 C260 2.079 . S
C151 C117 2.379 . S
C15 C185 2.555 . S
C56 C226 1.623 . S
C17 C103 1.910 . S
C51 C6 1.825 . S
C85 C62 0.384 . S
C96 C108 0.904 . S
C171 C142 1.529 1_565 S
C232 C176 0.741 . S
C221 C241 1.695 . S
C137 C266 1.878 1_455 S
C255 C205 1.910 . S
C153 C244 1.825 . S
C164 C187 0.384 . S
C198 C210 0.904 . S
C69 C40 1.531 1_554 S
C74 C130 0.741 1_556 S
C3 C119 1.695 . S
C28 C35 1.878 1_554 S
C71 C1 3.560 1_655 S
C105 C37 2.697 1_565 S
C207 C139 2.697 1_655 S
C173 C239 3.559 . S
