# Generated by pormake.
# Topology wgu, (5)-cn, num edge types: 1
# Building blocks:
#     Node 0, Type 0, BuildingBlock: XOMCOT_clean_sbu_1, # of connection points: 5
#     Node 1, Type 0, BuildingBlock: XOMCOT_clean_sbu_1, # of connection points: 5
#     Node 2, Type 0, BuildingBlock: XOMCOT_clean_sbu_1, # of connection points: 5
#     Node 3, Type 0, BuildingBlock: XOMCOT_clean_sbu_1, # of connection points: 5
#     Node 4, Type 0, BuildingBlock: XOMCOT_clean_sbu_1, # of connection points: 5
#     Node 5, Type 0, BuildingBlock: XOMCOT_clean_sbu_1, # of connection points: 5
#     Node 6, Type 0, BuildingBlock: XOMCOT_clean_sbu_1, # of connection points: 5
#     Node 7, Type 0, BuildingBlock: XOMCOT_clean_sbu_1, # of connection points: 5
#     Edge 8, Type (0, 0), BuildingBlock: KIFKEQ_clean_linker_1, # of connection points: 2
#     Edge 9, Type (0, 0), BuildingBlock: KIFKEQ_clean_linker_1, # of connection points: 2
#     Edge 10, Type (0, 0), BuildingBlock: KIFKEQ_clean_linker_1, # of connection points: 2
#     Edge 11, Type (0, 0), BuildingBlock: KIFKEQ_clean_linker_1, # of connection points: 2
#     Edge 12, Type (0, 0), BuildingBlock: KIFKEQ_clean_linker_1, # of connection points: 2
#     Edge 13, Type (0, 0), BuildingBlock: KIFKEQ_clean_linker_1, # of connection points: 2
#     Edge 14, Type (0, 0), BuildingBlock: KIFKEQ_clean_linker_1, # of connection points: 2
#     Edge 15, Type (0, 0), BuildingBlock: KIFKEQ_clean_linker_1, # of connection points: 2
#     Edge 16, Type (0, 0), BuildingBlock: KIFKEQ_clean_linker_1, # of connection points: 2
#     Edge 17, Type (0, 0), BuildingBlock: KIFKEQ_clean_linker_1, # of connection points: 2
#     Edge 18, Type (0, 0), BuildingBlock: KIFKEQ_clean_linker_1, # of connection points: 2
#     Edge 19, Type (0, 0), BuildingBlock: KIFKEQ_clean_linker_1, # of connection points: 2
#     Edge 20, Type (0, 0), BuildingBlock: KIFKEQ_clean_linker_1, # of connection points: 2
#     Edge 21, Type (0, 0), BuildingBlock: KIFKEQ_clean_linker_1, # of connection points: 2
#     Edge 22, Type (0, 0), BuildingBlock: KIFKEQ_clean_linker_1, # of connection points: 2
#     Edge 23, Type (0, 0), BuildingBlock: KIFKEQ_clean_linker_1, # of connection points: 2
#     Edge 24, Type (0, 0), BuildingBlock: KIFKEQ_clean_linker_1, # of connection points: 2
#     Edge 25, Type (0, 0), BuildingBlock: KIFKEQ_clean_linker_1, # of connection points: 2
#     Edge 26, Type (0, 0), BuildingBlock: KIFKEQ_clean_linker_1, # of connection points: 2
#     Edge 27, Type (0, 0), BuildingBlock: KIFKEQ_clean_linker_1, # of connection points: 2
# Relax obj value: 0.209
# Max RMSD: 0.184
# Mean RMSD: 0.172
data_MOF--net-wgu--node1-XOMCOT_clean_sbu_1--edge1-KIFKEQ_clean_linker_1
_symmetry_space_group_name_H-M    P1
_symmetry_Int_Tables_number       1
_symmetry_cell_setting            triclinic
loop_
_symmetry_equiv_pos_as_xyz
'x, y, z'
_cell_length_a     33.541615
_cell_length_b     33.236924
_cell_length_c     29.266688
_cell_angle_alpha  94.538955
_cell_angle_beta   92.287742
_cell_angle_gamma 89.99143
loop_
_atom_site_label
_atom_site_type_symbol
_atom_site_fract_x
_atom_site_fract_y
_atom_site_fract_z
_atom_type_partial_charge
C0 C 0.24888 0.38931 0.13941 0.0
C1 C 0.23007 0.42582 0.13729 0.0
N2 N 0.25284 0.44976 0.11391 0.0
N3 N 0.28342 0.39012 0.11754 0.0
C4 C 0.28519 0.4275 0.10242 0.0
H5 H 0.23733 0.36325 0.15445 0.0
Co6 Co 0.3146 0.34457 0.10645 0.0
C7 C 0.3903 0.37348 0.07027 0.0
O8 O 0.39032 0.34116 0.04131 0.0
N9 N 0.34533 0.29713 0.096 0.0
C10 C 0.39044 0.24931 0.10687 0.0
C11 C 0.38168 0.28965 0.11495 0.0
C12 C 0.3325 0.26069 0.07721 0.0
N13 N 0.35923 0.231 0.08335 0.0
O14 O 0.32653 0.34406 0.17108 0.0
H15 H 0.39971 0.31168 0.13567 0.0
H16 H 0.30255 0.25508 0.06339 0.0
O17 O 0.36179 0.37897 0.09799 0.0
C18 C 0.3051 0.31585 0.1846 0.0
O19 O 0.28255 0.29418 0.1543 0.0
N20 N 0.29715 0.34233 0.04503 0.0
C21 C 0.25927 0.32169 0.96027 0.0
C22 C 0.29153 0.34894 0.96409 0.0
C23 C 0.30953 0.35988 1.00737 0.0
C24 C 0.26339 0.31946 0.04222 0.0
C25 C 0.24431 0.30828 1.00031 0.0
H26 H 0.33316 0.38197 0.01003 0.0
H27 H 0.25228 0.3081 0.07289 0.0
H28 H 0.30853 0.43744 0.08137 0.0
H29 H 0.20144 0.4339 0.15113 0.0
H30 H 0.41683 0.23438 0.11956 0.0
H31 H 0.30296 0.36117 0.93397 0.0
H32 H 0.21941 0.28745 0.99926 0.0
C33 C 0.58188 0.3249 0.44705 0.0
C34 C 0.54376 0.30983 0.44471 0.0
N35 N 0.54164 0.28151 0.47487 0.0
N36 N 0.60375 0.30673 0.47907 0.0
C37 C 0.57849 0.27987 0.49529 0.0
H38 H 0.59301 0.34816 0.42705 0.0
Co39 Co 0.65644 0.32259 0.49188 0.0
C40 C 0.67969 0.30427 0.58521 0.0
O41 O 0.69388 0.34125 0.59088 0.0
N42 N 0.71093 0.33861 0.5026 0.0
C43 C 0.76947 0.37065 0.51164 0.0
C44 C 0.72885 0.37526 0.50594 0.0
C45 C 0.74171 0.31237 0.50613 0.0
N46 N 0.77752 0.33099 0.51154 0.0
O47 O 0.67373 0.27611 0.45487 0.0
H48 H 0.71408 0.4039 0.50419 0.0
H49 H 0.73783 0.28 0.50527 0.0
O50 O 0.66047 0.29242 0.54775 0.0
C51 C 0.68487 0.2866 0.4164 0.0
O52 O 0.68303 0.32493 0.40843 0.0
N53 N 0.63713 0.37018 0.52332 0.0
C54 C 0.59263 0.43996 0.54593 0.0
C55 C 0.59271 0.40737 0.5738 0.0
C56 C 0.61454 0.37234 0.56136 0.0
C57 C 0.63732 0.40166 0.4962 0.0
C58 C 0.61614 0.43694 0.50728 0.0
H59 H 0.6109 0.34621 0.58051 0.0
H60 H 0.65233 0.39845 0.46408 0.0
H61 H 0.58653 0.26038 0.5221 0.0
H62 H 0.51932 0.31894 0.42256 0.0
H63 H 0.79143 0.39467 0.51465 0.0
H64 H 0.57397 0.40783 0.60312 0.0
H65 H 0.61686 0.46105 0.48449 0.0
C66 C 0.77788 0.60887 0.95434 0.0
C67 C 0.79967 0.57458 0.95951 0.0
N68 N 0.78847 0.55861 0.99779 0.0
N69 N 0.75319 0.61516 0.98953 0.0
C70 C 0.76033 0.58373 0.01547 0.0
H71 H 0.77896 0.62688 0.92532 0.0
Co72 Co 0.71578 0.65701 0.99406 0.0
C73 C 0.72257 0.69541 0.08967 0.0
O74 O 0.68377 0.70103 0.08756 0.0
N75 N 0.67865 0.69936 0.99667 0.0
C76 C 0.62632 0.73965 0.98809 0.0
C77 C 0.63902 0.70008 0.98651 0.0
C78 C 0.68916 0.73859 1.00406 0.0
N79 N 0.6581 0.76371 0.9993 0.0
O80 O 0.75224 0.69132 0.96394 0.0
H81 H 0.62063 0.67392 0.97676 0.0
H82 H 0.71965 0.74858 0.01108 0.0
O83 O 0.73942 0.67663 0.05557 0.0
C84 C 0.74035 0.6986 0.92334 0.0
O85 O 0.706 0.68345 0.90701 0.0
N86 N 0.67868 0.62187 0.01832 0.0
C87 C 0.61887 0.56736 0.03695 0.0
C88 C 0.64269 0.58658 0.07263 0.0
C89 C 0.67312 0.61307 0.06255 0.0
C90 C 0.65657 0.6023 0.98328 0.0
C91 C 0.62657 0.57503 0.99175 0.0
H92 H 0.69261 0.62508 0.09038 0.0
H93 H 0.66202 0.60845 0.94832 0.0
H94 H 0.74456 0.57851 0.04594 0.0
H95 H 0.82025 0.56094 0.93528 0.0
H96 H 0.59633 0.74986 0.98044 0.0
H97 H 0.63852 0.58035 0.1079 0.0
H98 H 0.6091 0.56052 0.96315 0.0
C99 C 0.41951 0.82887 0.62161 0.0
C100 C 0.45645 0.84457 0.61498 0.0
N101 N 0.47954 0.81456 0.59735 0.0
N102 N 0.41927 0.78908 0.60849 0.0
C103 C 0.45637 0.78113 0.59387 0.0
H104 H 0.39398 0.84589 0.63345 0.0
Co105 Co 0.37347 0.75791 0.60537 0.0
C106 C 0.39846 0.67359 0.57741 0.0
O107 O 0.3658 0.66934 0.5511 0.0
N108 N 0.32607 0.72799 0.60356 0.0
C109 C 0.27875 0.68542 0.62121 0.0
C110 C 0.31862 0.69526 0.62663 0.0
C111 C 0.29 0.73844 0.58624 0.0
N112 N 0.26099 0.71294 0.59607 0.0
O113 O 0.37488 0.75768 0.67143 0.0
H114 H 0.34057 0.68026 0.64735 0.0
H115 H 0.2844 0.76508 0.56826 0.0
O116 O 0.40575 0.70757 0.60017 0.0
C117 C 0.35287 0.78564 0.68918 0.0
O118 O 0.33432 0.80958 0.66173 0.0
N119 N 0.36997 0.76243 0.54101 0.0
C120 C 0.35502 0.78077 0.44994 0.0
C121 C 0.38178 0.74995 0.46041 0.0
C122 C 0.38969 0.74194 0.50635 0.0
C123 C 0.3465 0.79439 0.53153 0.0
C124 C 0.33798 0.80359 0.48652 0.0
H125 H 0.41209 0.71985 0.5135 0.0
H126 H 0.33358 0.8126 0.55942 0.0
H127 H 0.46555 0.75203 0.57865 0.0
H128 H 0.46536 0.87584 0.62173 0.0
H129 H 0.26366 0.66128 0.6364 0.0
H130 H 0.39698 0.73267 0.43345 0.0
H131 H 0.31747 0.82795 0.48056 0.0
C132 C 0.70021 0.11584 0.93755 0.0
C133 C 0.68102 0.07989 0.94084 0.0
N134 N 0.70756 0.05347 0.95685 0.0
N135 N 0.73888 0.11223 0.95084 0.0
C136 C 0.74256 0.07386 0.96247 0.0
H137 H 0.68636 0.14321 0.92734 0.0
Co138 Co 0.77402 0.15533 0.95621 0.0
C139 C 0.85545 0.12203 0.97341 0.0
O140 O 0.86298 0.15377 1.00218 0.0
N141 N 0.80791 0.20057 0.96051 0.0
C142 C 0.85262 0.24509 0.9415 0.0
C143 C 0.83913 0.20603 0.93389 0.0
C144 C 0.8023 0.23718 0.98287 0.0
N145 N 0.8292 0.26484 0.97215 0.0
O146 O 0.77193 0.15678 0.89031 0.0
H147 H 0.85043 0.18342 0.90912 0.0
H148 H 0.77716 0.24445 1.00379 0.0
O149 O 0.82076 0.11793 0.95331 0.0
C150 C 0.74602 0.18228 0.87782 0.0
O151 O 0.72711 0.20384 0.9097 0.0
N152 N 0.77176 0.15574 0.02066 0.0
C153 C 0.75472 0.16238 0.1137 0.0
C154 C 0.78292 0.13443 0.09681 0.0
C155 C 0.79021 0.13074 0.04986 0.0
C156 C 0.74276 0.18139 0.0363 0.0
C157 C 0.7341 0.18559 0.08262 0.0
H158 H 0.80965 0.10692 0.03743 0.0
H159 H 0.72597 0.19865 0.01234 0.0
H160 H 0.7699 0.06171 0.97653 0.0
H161 H 0.64978 0.07392 0.93237 0.0
H162 H 0.8769 0.25815 0.92437 0.0
H163 H 0.79843 0.1149 0.1195 0.0
H164 H 0.71172 0.20721 0.09404 0.0
C165 C 0.91275 0.72812 0.47383 0.0
C166 C 0.94976 0.71191 0.48198 0.0
N167 N 0.97414 0.74187 0.49949 0.0
N168 N 0.91387 0.76806 0.48626 0.0
C169 C 0.95175 0.77562 0.50176 0.0
H170 H 0.88634 0.7115 0.46126 0.0
Co171 Co 0.86954 0.80095 0.48746 0.0
C172 C 0.90147 0.88715 0.49727 0.0
O173 O 0.86878 0.90126 0.51587 0.0
N174 N 0.82342 0.83225 0.48792 0.0
C175 C 0.77216 0.86901 0.46497 0.0
C176 C 0.8115 0.85936 0.45825 0.0
C177 C 0.79065 0.82515 0.51132 0.0
N178 N 0.75899 0.84717 0.49827 0.0
O179 O 0.86551 0.79557 0.42112 0.0
H180 H 0.82974 0.87008 0.43205 0.0
H181 H 0.78914 0.80183 0.53487 0.0
O182 O 0.90472 0.84917 0.48631 0.0
C183 C 0.8396 0.76859 0.4077 0.0
O184 O 0.82114 0.75049 0.4392 0.0
N185 N 0.87122 0.80169 0.55235 0.0
C186 C 0.86205 0.78931 0.64504 0.0
C187 C 0.87814 0.8256 0.63216 0.0
C188 C 0.88307 0.83101 0.58553 0.0
C189 C 0.85656 0.76599 0.56458 0.0
C190 C 0.85185 0.75911 0.61044 0.0
H191 H 0.89606 0.85877 0.57682 0.0
H192 H 0.8472 0.74297 0.53813 0.0
H193 H 0.96224 0.80477 0.51656 0.0
H194 H 0.95801 0.68048 0.47612 0.0
H195 H 0.75441 0.88944 0.44562 0.0
H196 H 0.88685 0.84953 0.65789 0.0
H197 H 0.8389 0.73082 0.61858 0.0
C198 C 0.18398 0.93108 0.11361 0.0
C199 C 0.2041 0.96709 0.11764 0.0
N200 N 0.23371 0.96477 0.08785 0.0
N201 N 0.20075 0.90592 0.08155 0.0
C202 C 0.23101 0.92737 0.06601 0.0
H203 H 0.15895 0.92337 0.13341 0.0
Co204 Co 0.18258 0.85325 0.07121 0.0
C205 C 0.20961 0.82008 0.98114 0.0
O206 O 0.17436 0.80298 0.97411 0.0
N207 N 0.16373 0.79927 0.06341 0.0
C208 C 0.12689 0.74327 0.0599 0.0
C209 C 0.12603 0.78458 0.05984 0.0
C210 C 0.18685 0.7659 0.06533 0.0
N211 N 0.16518 0.73155 0.06356 0.0
O212 O 0.22478 0.83638 0.11228 0.0
H213 H 0.09912 0.80217 0.05827 0.0
H214 H 0.21904 0.76687 0.06959 0.0
O215 O 0.21698 0.84299 0.01789 0.0
C216 C 0.21331 0.83805 0.15343 0.0
O217 O 0.17627 0.84871 0.16097 0.0
N218 N 0.13938 0.87268 0.03537 0.0
C219 C 0.07443 0.91664 1.00164 0.0
C220 C 0.10909 0.91069 0.97639 0.0
C221 C 0.14148 0.88916 0.99416 0.0
C222 C 0.10632 0.87898 0.0606 0.0
C223 C 0.0734 0.9 0.04415 0.0
H224 H 0.1688 0.88801 0.97588 0.0
H225 H 0.10613 0.86883 0.09482 0.0
H226 H 0.25134 0.91555 0.04049 0.0
H227 H 0.19755 0.99308 0.14078 0.0
H228 H 0.10119 0.72342 0.05805 0.0
H229 H 0.11171 0.92364 0.94384 0.0
H230 H 0.04821 0.90503 0.06588 0.0
C231 C 0.11908 0.22956 0.56456 0.0
C232 C 0.08184 0.24529 0.57109 0.0
N233 N 0.0557 0.22482 0.5418 0.0
N234 N 0.11683 0.19894 0.53147 0.0
C235 C 0.07777 0.19698 0.5177 0.0
H236 H 0.14634 0.23964 0.58295 0.0
Co237 Co 0.16262 0.17015 0.51402 0.0
C238 C 0.13091 0.08593 0.50986 0.0
O239 O 0.15994 0.07693 0.53878 0.0
N240 N 0.21041 0.14432 0.49567 0.0
C241 C 0.26263 0.10792 0.47146 0.0
C242 C 0.22241 0.10697 0.48022 0.0
C243 C 0.24335 0.16743 0.4933 0.0
N244 N 0.27551 0.1462 0.47968 0.0
O245 O 0.15781 0.18912 0.45401 0.0
H246 H 0.20354 0.08071 0.47403 0.0
H247 H 0.24405 0.1995 0.50313 0.0
O248 O 0.12924 0.1215 0.49565 0.0
C249 C 0.17158 0.22507 0.4555 0.0
O250 O 0.17907 0.24424 0.49593 0.0
N251 N 0.17001 0.15526 0.57505 0.0
C252 C 0.17858 0.16121 0.67035 0.0
C253 C 0.14225 0.14858 0.64864 0.0
C254 C 0.1387 0.14523 0.60068 0.0
C255 C 0.20604 0.16525 0.59618 0.0
C256 C 0.21119 0.16739 0.64354 0.0
H257 H 0.10971 0.13848 0.58441 0.0
H258 H 0.23023 0.17572 0.57736 0.0
H259 H 0.06575 0.17544 0.49104 0.0
H260 H 0.0747 0.27048 0.59509 0.0
H261 H 0.2807 0.08271 0.45897 0.0
H262 H 0.11625 0.14407 0.66844 0.0
H263 H 0.23945 0.1783 0.65904 0.0
H264 H 0.26978 0.01202 0.15563 0.0
H265 H 0.26114 0.98913 0.00857 0.0
H266 H 0.30883 0.07255 0.14816 0.0
H267 H 0.30102 0.05016 1.00058 0.0
H268 H 0.39205 0.17084 0.1302 0.0
H269 H 0.37111 0.10057 0.12503 0.0
H270 H 0.28677 0.12332 0.01476 0.0
H271 H 0.30887 0.19344 0.01867 0.0
C272 C 0.27698 0.01971 0.12164 0.0
C273 C 0.26222 0.99624 0.08268 0.0
C274 C 0.29968 0.0542 0.11729 0.0
C275 C 0.30802 0.06632 0.07374 0.0
C276 C 0.29485 0.04174 0.0346 0.0
C277 C 0.27237 0.00674 0.03908 0.0
C278 C 0.36989 0.16078 0.10394 0.0
C279 C 0.35165 0.18815 0.0754 0.0
C280 C 0.35761 0.12044 0.10124 0.0
C281 C 0.3268 0.10645 0.07001 0.0
C282 C 0.31064 0.13302 0.03916 0.0
C283 C 0.32296 0.1734 0.04182 0.0
H284 H 0.00711 0.21515 0.46486 0.0
H285 H 0.00829 0.25282 0.60945 0.0
H286 H 0.93762 0.23777 0.45701 0.0
H287 H 0.93962 0.27542 0.6017 0.0
H288 H 0.84264 0.36255 0.55856 0.0
H289 H 0.90862 0.33248 0.56492 0.0
H290 H 0.86683 0.22705 0.48095 0.0
H291 H 0.80059 0.25771 0.4739 0.0
C292 C 0.99238 0.2276 0.49502 0.0
C293 C 0.01346 0.2329 0.53759 0.0
C294 C 0.95265 0.2406 0.49056 0.0
C295 C 0.93338 0.25912 0.5286 0.0
C296 C 0.95389 0.26227 0.5715 0.0
C297 C 0.9933 0.2493 0.57593 0.0
C298 C 0.84752 0.33307 0.54125 0.0
C299 C 0.81633 0.31255 0.5158 0.0
C300 C 0.88525 0.31562 0.54524 0.0
C301 C 0.89295 0.27722 0.52367 0.0
C302 C 0.86189 0.25671 0.49784 0.0
C303 C 0.82388 0.27409 0.49419 0.0
H304 H 0.63586 0.02213 0.97583 0.0
H305 H 0.76053 0.9921 0.96248 0.0
H306 H 0.62139 0.95276 0.99038 0.0
H307 H 0.74593 0.92275 0.97808 0.0
H308 H 0.71093 0.81219 0.04931 0.0
H309 H 0.72215 0.88384 0.04231 0.0
H310 H 0.62229 0.88532 0.94465 0.0
H311 H 0.61147 0.81334 0.95099 0.0
C312 C 0.66021 1.0008 0.97571 0.0
C313 C 0.69938 0.01274 0.96746 0.0
C314 C 0.65184 0.96106 0.98427 0.0
C315 C 0.68249 0.93244 0.98527 0.0
C316 C 0.72178 0.9444 0.97803 0.0
C317 C 0.73014 0.98413 0.96911 0.0
C318 C 0.69133 0.8278 0.02637 0.0
C319 C 0.66068 0.80697 1.00016 0.0
C320 C 0.69778 0.86878 0.02241 0.0
C321 C 0.67343 0.88992 0.99251 0.0
C322 C 0.64142 0.86971 0.96812 0.0
C323 C 0.63512 0.82856 0.97187 0.0
H324 H 0.00615 0.68064 0.54343 0.0
H325 H 0.03385 0.79448 0.49085 0.0
H326 H 0.07543 0.67369 0.56984 0.0
H327 H 0.10371 0.78699 0.51501 0.0
H328 H 0.21834 0.78154 0.59966 0.0
H329 H 0.14788 0.7888 0.57871 0.0
H330 H 0.13951 0.65993 0.54428 0.0
H331 H 0.20975 0.65295 0.56768 0.0
C332 C 0.02735 0.70393 0.53711 0.0
C333 C 0.01492 0.73804 0.5151 0.0
C334 C 0.06708 0.69993 0.55201 0.0
C335 C 0.09537 0.72968 0.54447 0.0
C336 C 0.08272 0.76383 0.52228 0.0
C337 C 0.0428 0.76812 0.50818 0.0
C338 C 0.20124 0.75489 0.58764 0.0
C339 C 0.21922 0.71673 0.58498 0.0
C340 C 0.16094 0.75898 0.57538 0.0
C341 C 0.13792 0.72502 0.55934 0.0
C342 C 0.15605 0.68671 0.55713 0.0
C343 C 0.19625 0.6826 0.57028 0.0
H344 H 0.73969 0.50308 0.02929 0.0
H345 H 0.86089 0.52422 0.99328 0.0
H346 H 0.75412 0.43122 0.03244 0.0
H347 H 0.87576 0.45267 0.99718 0.0
H348 H 0.85975 0.32456 0.92578 0.0
H349 H 0.85422 0.39654 0.94385 0.0
H350 H 0.79143 0.37573 0.06585 0.0
H351 H 0.79732 0.30295 0.04794 0.0
C352 C 0.76978 0.49254 0.02368 0.0
C353 C 0.79908 0.51896 0.01041 0.0
C354 C 0.77809 0.45139 0.02541 0.0
C355 C 0.8159 0.43613 0.01413 0.0
C356 C 0.84608 0.46333 1.00494 0.0
C357 C 0.83769 0.50426 1.00292 0.0
C358 C 0.84554 0.335 0.95703 0.0
C359 C 0.82882 0.30767 0.98521 0.0
C360 C 0.8424 0.37651 0.96748 0.0
C361 C 0.82246 0.39194 1.0064 0.0
C362 C 0.80664 0.36476 0.03538 0.0
C363 C 0.80993 0.32307 0.025 0.0
H364 H 0.51074 0.87921 0.56113 0.0
H365 H 0.53847 0.759 0.59851 0.0
H366 H 0.57886 0.8873 0.53724 0.0
H367 H 0.60689 0.76692 0.574 0.0
H368 H 0.73529 0.81992 0.57797 0.0
H369 H 0.66709 0.81045 0.60075 0.0
H370 H 0.62251 0.85767 0.47541 0.0
H371 H 0.69053 0.86629 0.45188 0.0
C372 C 0.53149 0.85456 0.56437 0.0
C373 C 0.51944 0.81856 0.582 0.0
C374 C 0.57035 0.85906 0.55028 0.0
C375 C 0.59813 0.82778 0.55386 0.0
C376 C 0.58611 0.79164 0.57125 0.0
C377 C 0.54699 0.78697 0.5849 0.0
C378 C 0.71105 0.82794 0.55497 0.0
C379 C 0.71863 0.84372 0.5129 0.0
C380 C 0.67197 0.82249 0.56809 0.0
C381 C 0.63957 0.83314 0.53974 0.0
C382 C 0.64699 0.8495 0.4981 0.0
C383 C 0.68605 0.85462 0.48474 0.0
H384 H 0.1799 0.47519 0.08801 0.0
H385 H 0.30218 0.51399 0.11072 0.0
H386 H 0.16028 0.54327 0.07231 0.0
H387 H 0.28252 0.58319 0.09667 0.0
H388 H 0.2348 0.69858 0.03478 0.0
H389 H 0.258 0.62951 0.04308 0.0
H390 H 0.15141 0.60528 0.11472 0.0
H391 H 0.12819 0.67333 0.10524 0.0
C392 C 0.20255 0.49853 0.08988 0.0
C393 C 0.24243 0.48952 0.10121 0.0
C394 C 0.19134 0.53766 0.0811 0.0
C395 C 0.21962 0.56912 0.08416 0.0
C396 C 0.25992 0.55977 0.09382 0.0
C397 C 0.27124 0.52024 0.10199 0.0
C398 C 0.2165 0.67833 0.0523 0.0
C399 C 0.17946 0.6912 0.06886 0.0
C400 C 0.22978 0.63881 0.05718 0.0
C401 C 0.2064 0.61148 0.07909 0.0
C402 C 0.16976 0.62491 0.09644 0.0
C403 C 0.1564 0.66406 0.09113 0.0
H404 H 0.34523 0.11189 0.50578 0.0
H405 H 0.2954 0.21658 0.44713 0.0
H406 H 0.41167 0.143 0.50906 0.0
H407 H 0.36139 0.24705 0.44821 0.0
H408 H 0.47137 0.31369 0.49729 0.0
H409 H 0.40788 0.2786 0.49986 0.0
H410 H 0.4673 0.16462 0.46958 0.0
H411 H 0.53137 0.20048 0.46961 0.0
C412 C 0.34874 0.14124 0.49278 0.0
C413 C 0.31523 0.16205 0.47663 0.0
C414 C 0.38677 0.15914 0.49463 0.0
C415 C 0.3921 0.19805 0.47978 0.0
C416 C 0.35855 0.21777 0.46154 0.0
C417 C 0.32067 0.2002 0.46045 0.0
C418 C 0.47076 0.28106 0.49215 0.0
C419 C 0.50602 0.2597 0.48341 0.0
C420 C 0.43434 0.26086 0.49289 0.0
C421 C 0.43197 0.21866 0.48372 0.0
C422 C 0.46777 0.19705 0.47693 0.0
C423 C 0.50451 0.21743 0.47703 0.0
H424 H 0.60811 0.49022 1.00019 0.0
H425 H 0.55692 0.58012 0.09457 0.0
H426 H 0.5537 0.44417 0.01152 0.0
H427 H 0.50077 0.53494 0.10431 0.0
H428 H 0.41912 0.43 0.13766 0.0
H429 H 0.47538 0.47642 0.13303 0.0
H430 H 0.48754 0.43355 0.99086 0.0
H431 H 0.43344 0.3863 0.99651 0.0
C432 C 0.58491 0.50016 0.02319 0.0
C433 C 0.58659 0.5388 0.04625 0.0
C434 C 0.55339 0.47391 0.02948 0.0
C435 C 0.52201 0.48584 0.05821 0.0
C436 C 0.52431 0.52434 0.08219 0.0
C437 C 0.55641 0.55038 0.07652 0.0
C438 C 0.43396 0.4307 0.10553 0.0
C439 C 0.42217 0.40413 0.06766 0.0
C440 C 0.46616 0.4574 0.10272 0.0
C441 C 0.48682 0.45852 0.06173 0.0
C442 C 0.47365 0.43285 0.02354 0.0
C443 C 0.4422 0.40585 0.02663 0.0
H444 H 0.54615 0.47525 0.48202 0.0
H445 H 0.57634 0.48376 0.62729 0.0
H446 H 0.50118 0.53213 0.4929 0.0
H447 H 0.53017 0.54091 0.63838 0.0
H448 H 0.47257 0.67046 0.62221 0.0
H449 H 0.52026 0.61421 0.61784 0.0
H450 H 0.43668 0.54367 0.52858 0.0
H451 H 0.38966 0.59909 0.5326 0.0
C452 C 0.54345 0.48949 0.51635 0.0
C453 C 0.56518 0.47503 0.55374 0.0
C454 C 0.51726 0.52192 0.52265 0.0
C455 C 0.51188 0.54103 0.56655 0.0
C456 C 0.53383 0.52699 0.60409 0.0
C457 C 0.55998 0.49409 0.5978 0.0
C458 C 0.46439 0.64283 0.60189 0.0
C459 C 0.42735 0.63955 0.57745 0.0
C460 C 0.49162 0.61057 0.59955 0.0
C461 C 0.48245 0.57458 0.57245 0.0
C462 C 0.44505 0.57116 0.54909 0.0
C463 C 0.41796 0.60306 0.55157 0.0
H464 H 0.07933 0.9879 0.96056 0.0
H465 H 0.99367 0.90585 0.00908 0.0
H466 H 0.02581 0.03508 0.94495 0.0
H467 H 0.94027 0.95377 0.99495 0.0
H468 H 0.8474 0.04186 0.94074 0.0
H469 H 0.8995 0.98979 0.93917 0.0
H470 H 0.98581 0.07915 0.99398 0.0
H471 H 0.93452 0.13054 0.99501 0.0
C472 C 0.04903 0.97952 0.96718 0.0
C473 C 0.04104 0.94307 0.98648 0.0
C474 C 0.0183 0.00687 0.95871 0.0
C475 C 0.97865 0.99858 0.96923 0.0
C476 C 0.97032 0.96119 0.98623 0.0
C477 C 1.00109 0.93386 0.99481 0.0
C478 C 0.87765 0.05034 0.9518 0.0
C479 C 0.8867 0.09037 0.96813 0.0
C480 C 0.90746 0.02049 0.95121 0.0
C481 C 0.94702 0.03019 0.96637 0.0
C482 C 0.95599 0.0705 0.98138 0.0
C483 C 0.92634 0.10003 0.98234 0.0
H484 H 0.9778 0.86966 0.46993 0.0
H485 H 0.90176 0.96925 0.51316 0.0
H486 H 0.03326 0.91679 0.46526 0.0
H487 H 0.95701 0.01596 0.5093 0.0
H488 H 0.13175 0.00616 0.5254 0.0
H489 H 0.07696 0.95807 0.51676 0.0
H490 H 1.00115 0.04828 0.46007 0.0
H491 H 0.05623 0.097 0.46962 0.0
C492 C 0.97281 0.90155 0.47827 0.0
C493 C 0.93524 0.91548 0.49217 0.0
C494 C 1.00469 0.92863 0.47578 0.0
C495 C 0.9998 0.97038 0.48693 0.0
C496 C 0.96194 0.98425 0.49979 0.0
C497 C 0.93021 0.95725 0.50242 0.0
C498 C 0.10356 0.01578 0.51059 0.0
C499 C 0.09845 0.05569 0.49849 0.0
C500 C 0.07208 0.98795 0.50533 0.0
C501 C 0.03436 0.99912 0.48792 0.0
C502 C 0.02959 0.03867 0.47421 0.0
C503 C 0.06128 0.06658 0.4793 0.0
H504 H 0.27194 0.36752 0.24843 0.0
H505 H 0.32112 0.24817 0.22617 0.0
H506 H 0.23801 0.34691 0.31518 0.0
H507 H 0.28879 0.22762 0.29383 0.0
H508 H 0.18312 0.18678 0.37023 0.0
H509 H 0.22138 0.21209 0.30917 0.0
H510 H 0.2399 0.32533 0.39052 0.0
H511 H 0.20044 0.30078 0.45024 0.0
C512 C 0.27726 0.33755 0.25948 0.0
C513 C 0.29964 0.3096 0.23292 0.0
C514 C 0.25742 0.32546 0.29735 0.0
C515 C 0.25984 0.28523 0.30928 0.0
C516 C 0.28527 0.25846 0.28488 0.0
C517 C 0.30463 0.27044 0.24683 0.0
C518 C 0.19462 0.21736 0.37454 0.0
C519 C 0.18867 0.24171 0.41506 0.0
C520 C 0.21719 0.23169 0.33994 0.0
C521 C 0.23445 0.27058 0.34525 0.0
C522 C 0.22707 0.29536 0.38507 0.0
C523 C 0.20438 0.28117 0.4194 0.0
H524 H 0.79443 0.1739 0.80383 0.0
H525 H 0.67466 0.20476 0.84212 0.0
H526 H 0.77865 0.19425 0.72616 0.0
H527 H 0.65887 0.22452 0.76514 0.0
H528 H 0.6353 0.24184 0.61413 0.0
H529 H 0.65168 0.20206 0.67988 0.0
H530 H 0.76461 0.26443 0.70118 0.0
H531 H 0.74816 0.30404 0.63664 0.0
C532 C 0.76457 0.1841 0.79535 0.0
C533 C 0.73592 0.18817 0.82908 0.0
C534 C 0.75554 0.19587 0.75104 0.0
C535 C 0.71748 0.21106 0.73955 0.0
C536 C 0.68827 0.21259 0.77264 0.0
C537 C 0.69747 0.20161 0.81691 0.0
C538 C 0.6638 0.24644 0.63255 0.0
C539 C 0.69018 0.27637 0.62078 0.0
C540 C 0.67317 0.22381 0.67013 0.0
C541 C 0.70949 0.23011 0.69571 0.0
C542 C 0.73664 0.25849 0.68202 0.0
C543 C 0.72697 0.28151 0.64532 0.0
H544 H 0.87078 0.79719 0.32983 0.0
H545 H 0.78271 0.71524 0.37408 0.0
H546 H 0.84766 0.78021 0.24943 0.0
H547 H 0.76004 0.69906 0.29519 0.0
H548 H 0.6921 0.73253 0.16639 0.0
H549 H 0.72557 0.75109 0.23984 0.0
H550 H 0.83737 0.70826 0.18704 0.0
H551 H 0.80349 0.68886 0.11209 0.0
C552 C 0.84685 0.77548 0.32252 0.0
C553 C 0.82839 0.75793 0.35854 0.0
C554 C 0.83384 0.76562 0.27661 0.0
C555 C 0.80197 0.73845 0.26627 0.0
C556 C 0.78449 0.72026 0.30219 0.0
C557 C 0.79756 0.72969 0.34753 0.0
C558 C 0.72386 0.72705 0.16986 0.0
C559 C 0.74494 0.70861 0.13323 0.0
C560 C 0.74303 0.73788 0.21213 0.0
C561 C 0.78395 0.73097 0.21917 0.0
C562 C 0.80575 0.71405 0.18232 0.0
C563 C 0.78633 0.70275 0.13964 0.0
H564 H 0.27456 0.86691 0.96435 0.0
H565 H 0.21197 0.75716 0.91639 0.0
H566 H 0.31886 0.85726 0.89955 0.0
H567 H 0.2558 0.74759 0.85229 0.0
H568 H 0.35171 0.72701 0.75054 0.0
H569 H 0.32502 0.73391 0.82773 0.0
H570 H 0.30711 0.86133 0.81547 0.0
H571 H 0.33354 0.85439 0.73902 0.0
C572 C 0.27064 0.84049 0.94045 0.0
C573 C 0.23947 0.81308 0.94522 0.0
C574 C 0.2959 0.83499 0.90329 0.0
C575 C 0.2909 0.80161 0.87067 0.0
C576 C 0.2609 0.77333 0.87693 0.0
C577 C 0.23544 0.7791 0.91351 0.0
C578 C 0.34305 0.7566 0.76496 0.0
C579 C 0.34449 0.79009 0.73868 0.0
C580 C 0.32749 0.76055 0.80897 0.0
C581 C 0.31367 0.79817 0.82771 0.0
C582 C 0.31773 0.83202 0.80243 0.0
C583 C 0.33268 0.82797 0.75841 0.0
H584 H 0.71277 0.74959 0.86213 0.0
H585 H 0.82175 0.69824 0.91466 0.0
H586 H 0.74897 0.77781 0.80157 0.0
H587 H 0.85837 0.72629 0.85318 0.0
H588 H 0.87908 0.72311 0.69223 0.0
H589 H 0.85565 0.70834 0.76711 0.0
H590 H 0.80178 0.82633 0.78256 0.0
H591 H 0.82514 0.84103 0.70741 0.0
C592 C 0.74475 0.7451 0.86123 0.0
C593 C 0.76445 0.72168 0.89302 0.0
C594 C 0.76555 0.76144 0.82662 0.0
C595 C 0.80656 0.7542 0.82233 0.0
C596 C 0.82673 0.73224 0.85544 0.0
C597 C 0.80591 0.71647 0.89082 0.0
C598 C 0.86282 0.74616 0.71198 0.0
C599 C 0.85368 0.78312 0.69369 0.0
C600 C 0.84968 0.73782 0.75509 0.0
C601 C 0.82664 0.76605 0.78077 0.0
C602 C 0.81924 0.80383 0.7635 0.0
C603 C 0.83284 0.81237 0.72059 0.0
H604 H 0.34496 0.85435 0.4151 0.0
H605 H 0.3402 0.72648 0.37507 0.0
H606 H 0.31664 0.86834 0.34011 0.0
H607 H 0.31231 0.74077 0.29933 0.0
H608 H 0.2818 0.7916 0.15551 0.0
H609 H 0.32315 0.77731 0.22395 0.0
H610 H 0.24653 0.85324 0.30861 0.0
H611 H 0.20561 0.86698 0.24143 0.0
C612 C 0.33819 0.82918 0.39019 0.0
C613 C 0.3441 0.78922 0.40161 0.0
C614 C 0.32212 0.83725 0.3471 0.0
C615 C 0.31173 0.80565 0.31401 0.0
C616 C 0.32016 0.76577 0.32406 0.0
C617 C 0.33613 0.75762 0.36747 0.0
C618 C 0.27417 0.80539 0.18878 0.0
C619 C 0.24043 0.83036 0.19308 0.0
C620 C 0.29763 0.79707 0.22789 0.0
C621 C 0.28823 0.81439 0.27164 0.0
C622 C 0.25493 0.83985 0.27543 0.0
C623 C 0.23129 0.8475 0.23684 0.0
H624 H 0.23441 0.14273 0.73543 0.0
H625 H 0.1307 0.21661 0.71322 0.0
H626 H 0.25111 0.18353 0.80667 0.0
H627 H 0.14773 0.25805 0.7838 0.0
H628 H 0.18128 0.30713 0.93283 0.0
H629 H 0.157 0.26353 0.86662 0.0
H630 H 0.27737 0.25184 0.81989 0.0
H631 H 0.30181 0.2939 0.8871 0.0
C632 C 0.21459 0.16697 0.74663 0.0
C633 C 0.18133 0.17659 0.71903 0.0
C634 C 0.22444 0.19074 0.7869 0.0
C635 C 0.20136 0.22471 0.80008 0.0
C636 C 0.16614 0.23215 0.77452 0.0
C637 C 0.15615 0.20819 0.73433 0.0
C638 C 0.20247 0.2955 0.90812 0.0
C639 C 0.24351 0.30355 0.91536 0.0
C640 C 0.18854 0.27061 0.8702 0.0
C641 C 0.21539 0.25343 0.83869 0.0
C642 C 0.25609 0.26367 0.84436 0.0
C643 C 0.27001 0.28846 0.88233 0.0
H644 H 0.68258 0.16678 0.15396 0.0
H645 H 0.80939 0.17146 0.18549 0.0
H646 H 0.6698 0.18686 0.23413 0.0
H647 H 0.7966 0.1914 0.26589 0.0
H648 H 0.74814 0.29847 0.36536 0.0
H649 H 0.76836 0.25793 0.2973 0.0
H650 H 0.67744 0.16993 0.31806 0.0
H651 H 0.65752 0.21073 0.38728 0.0
C652 C 0.70769 0.17144 0.17825 0.0
C653 C 0.74699 0.1681 0.1634 0.0
C654 C 0.70037 0.18249 0.22424 0.0
C655 C 0.73221 0.19087 0.25624 0.0
C656 C 0.7715 0.1853 0.2419 0.0
C657 C 0.77881 0.17376 0.19597 0.0
C658 C 0.73314 0.26995 0.35602 0.0
C659 C 0.7012 0.25772 0.38124 0.0
C660 C 0.74487 0.2466 0.31721 0.0
C661 C 0.7244 0.21082 0.30223 0.0
C662 C 0.69365 0.19746 0.32882 0.0
C663 C 0.68242 0.22058 0.36844 0.0
loop_
_geom_bond_atom_site_label_1
_geom_bond_atom_site_label_2
_geom_bond_distance
_geom_bond_site_symmetry_2
_ccdc_geom_bond_type
C0 C1 1.351 . S
C0 N3 1.368 . S
C0 H5 0.931 . S
C1 C0 1.351 . S
C1 N2 1.373 . S
C1 H29 0.930 . S
N2 C1 1.373 . S
N2 C4 1.340 . S
N3 C0 1.368 . S
N3 C4 1.321 . S
N3 Co6 2.135 . S
C4 N2 1.340 . S
C4 N3 1.321 . S
C4 H28 0.930 . S
H5 C0 0.931 . S
Co6 N3 2.135 . S
Co6 N9 2.121 . S
Co6 O14 2.055 . S
Co6 O17 2.039 . S
Co6 N20 2.140 . S
C7 O8 1.227 . S
C7 O17 1.265 . S
O8 C7 1.227 . S
N9 Co6 2.121 . S
N9 C11 1.375 . S
N9 C12 1.313 . S
C10 C11 1.338 . S
C10 N13 1.377 . S
C10 H30 0.930 . S
C11 N9 1.375 . S
C11 C10 1.338 . S
C11 H15 0.931 . S
C12 N9 1.313 . S
C12 N13 1.344 . S
C12 H16 0.930 . S
N13 C10 1.377 . S
N13 C12 1.344 . S
O14 Co6 2.055 . S
O14 C18 1.253 . S
H15 C11 0.931 . S
H16 C12 0.930 . S
O17 Co6 2.039 . S
O17 C7 1.265 . S
C18 O14 1.253 . S
C18 O19 1.227 . S
O19 C18 1.227 . S
N20 Co6 2.140 . S
N20 C23 1.346 1_554 S
N20 C24 1.345 1_554 S
C21 C22 1.387 . S
C21 C25 1.391 . S
C22 C21 1.387 . S
C22 C23 1.369 . S
C22 H31 0.929 . S
C23 N20 1.346 1_556 S
C23 C22 1.369 . S
C23 H26 0.928 . S
C24 N20 1.345 1_556 S
C24 C25 1.371 . S
C24 H27 0.931 1_556 S
C25 C21 1.391 . S
C25 C24 1.371 . S
C25 H32 0.930 . S
H26 C23 0.928 . S
H27 C24 0.931 1_554 S
H28 C4 0.930 . S
H29 C1 0.930 . S
H30 C10 0.930 . S
H31 C22 0.929 . S
H32 C25 0.930 . S
C33 C34 1.351 . S
C33 N36 1.368 . S
C33 H38 0.931 . S
C34 C33 1.351 . S
C34 N35 1.373 . S
C34 H62 0.930 . S
N35 C34 1.373 . S
N35 C37 1.340 . S
N36 C33 1.368 . S
N36 C37 1.321 . S
N36 Co39 2.135 . S
C37 N35 1.340 . S
C37 N36 1.321 . S
C37 H61 0.930 . S
H38 C33 0.931 . S
Co39 N36 2.135 . S
Co39 N42 2.121 . S
Co39 O47 2.055 . S
Co39 O50 2.039 . S
Co39 N53 2.140 . S
C40 O41 1.227 . S
C40 O50 1.265 . S
O41 C40 1.227 . S
N42 Co39 2.121 . S
N42 C44 1.375 . S
N42 C45 1.313 . S
C43 C44 1.338 . S
C43 N46 1.377 . S
C43 H63 0.930 . S
C44 N42 1.375 . S
C44 C43 1.338 . S
C44 H48 0.931 . S
C45 N42 1.313 . S
C45 N46 1.344 . S
C45 H49 0.930 . S
N46 C43 1.377 . S
N46 C45 1.344 . S
O47 Co39 2.055 . S
O47 C51 1.253 . S
H48 C44 0.931 . S
H49 C45 0.930 . S
O50 Co39 2.039 . S
O50 C40 1.265 . S
C51 O47 1.253 . S
C51 O52 1.227 . S
O52 C51 1.227 . S
N53 Co39 2.140 . S
N53 C56 1.346 . S
N53 C57 1.345 . S
C54 C55 1.387 . S
C54 C58 1.391 . S
C55 C54 1.387 . S
C55 C56 1.369 . S
C55 H64 0.929 . S
C56 N53 1.346 . S
C56 C55 1.369 . S
C56 H59 0.928 . S
C57 N53 1.345 . S
C57 C58 1.371 . S
C57 H60 0.931 . S
C58 C54 1.391 . S
C58 C57 1.371 . S
C58 H65 0.930 . S
H59 C56 0.928 . S
H60 C57 0.931 . S
H61 C37 0.930 . S
H62 C34 0.930 . S
H63 C43 0.930 . S
H64 C55 0.929 . S
H65 C58 0.930 . S
C66 C67 1.351 . S
C66 N69 1.368 1_556 S
C66 H71 0.931 . S
C67 C66 1.351 . S
C67 N68 1.373 1_556 S
C67 H95 0.930 . S
N68 C67 1.373 1_554 S
N68 C70 1.340 . S
N69 C66 1.368 1_554 S
N69 C70 1.321 . S
N69 Co72 2.135 . S
C70 N68 1.340 . S
C70 N69 1.321 . S
C70 H94 0.930 . S
H71 C66 0.931 . S
Co72 N69 2.135 . S
Co72 N75 2.121 . S
Co72 O80 2.055 1_554 S
Co72 O83 2.039 . S
Co72 N86 2.140 . S
C73 O74 1.227 . S
C73 O83 1.265 . S
O74 C73 1.227 . S
N75 Co72 2.121 . S
N75 C77 1.375 . S
N75 C78 1.313 . S
C76 C77 1.338 . S
C76 N79 1.377 . S
C76 H96 0.930 . S
C77 N75 1.375 . S
C77 C76 1.338 . S
C77 H81 0.931 . S
C78 N75 1.313 . S
C78 N79 1.344 . S
C78 H82 0.930 1_554 S
N79 C76 1.377 . S
N79 C78 1.344 . S
O80 Co72 2.055 1_556 S
O80 C84 1.253 . S
H81 C77 0.931 . S
H82 C78 0.930 1_556 S
O83 Co72 2.039 . S
O83 C73 1.265 . S
C84 O80 1.253 . S
C84 O85 1.227 . S
O85 C84 1.227 . S
N86 Co72 2.140 . S
N86 C89 1.346 . S
N86 C90 1.355 . S
C87 C88 1.387 . S
C87 C91 1.391 . S
C88 C87 1.387 . S
C88 C89 1.369 . S
C88 H97 0.929 . S
C89 N86 1.346 . S
C89 C88 1.369 . S
C89 H92 0.928 . S
C90 N86 1.355 . S
C90 C91 1.373 . S
C90 H93 0.919 1_554 S
C91 C87 1.391 . S
C91 C90 1.373 . S
C91 H98 0.930 1_554 S
H92 C89 0.928 . S
H93 C90 0.919 1_556 S
H94 C70 0.930 . S
H95 C67 0.930 . S
H96 C76 0.930 . S
H97 C88 0.929 . S
H98 C91 0.930 1_556 S
C99 C100 1.351 . S
C99 N102 1.368 . S
C99 H104 0.931 . S
C100 C99 1.351 . S
C100 N101 1.373 . S
C100 H128 0.930 . S
N101 C100 1.373 . S
N101 C103 1.340 . S
N102 C99 1.368 . S
N102 C103 1.321 . S
N102 Co105 2.135 . S
C103 N101 1.340 . S
C103 N102 1.321 . S
C103 H127 0.930 . S
H104 C99 0.931 . S
Co105 N102 2.135 . S
Co105 N108 2.121 . S
Co105 O113 2.055 . S
Co105 O116 2.039 . S
Co105 N119 2.140 . S
C106 O107 1.227 . S
C106 O116 1.265 . S
O107 C106 1.227 . S
N108 Co105 2.121 . S
N108 C110 1.375 . S
N108 C111 1.313 . S
C109 C110 1.338 . S
C109 N112 1.377 . S
C109 H129 0.930 . S
C110 N108 1.375 . S
C110 C109 1.338 . S
C110 H114 0.931 . S
C111 N108 1.313 . S
C111 N112 1.344 . S
C111 H115 0.930 . S
N112 C109 1.377 . S
N112 C111 1.344 . S
O113 Co105 2.055 . S
O113 C117 1.253 . S
H114 C110 0.931 . S
H115 C111 0.930 . S
O116 Co105 2.039 . S
O116 C106 1.265 . S
C117 O113 1.253 . S
C117 O118 1.227 . S
O118 C117 1.227 . S
N119 Co105 2.140 . S
N119 C122 1.346 . S
N119 C123 1.345 . S
C120 C121 1.387 . S
C120 C124 1.391 . S
C121 C120 1.387 . S
C121 C122 1.369 . S
C121 H130 0.929 . S
C122 N119 1.346 . S
C122 C121 1.369 . S
C122 H125 0.928 . S
C123 N119 1.345 . S
C123 C124 1.371 . S
C123 H126 0.931 . S
C124 C120 1.391 . S
C124 C123 1.371 . S
C124 H131 0.930 . S
H125 C122 0.928 . S
H126 C123 0.931 . S
H127 C103 0.930 . S
H128 C100 0.930 . S
H129 C109 0.930 . S
H130 C121 0.929 . S
H131 C124 0.930 . S
C132 C133 1.351 1_545 S
C132 N135 1.368 . S
C132 H137 0.931 . S
C133 C132 1.351 1_565 S
C133 N134 1.373 . S
C133 H161 0.930 . S
N134 C133 1.373 . S
N134 C136 1.340 . S
N135 C132 1.368 . S
N135 C136 1.321 1_545 S
N135 Co138 2.135 . S
C136 N134 1.340 . S
C136 N135 1.321 1_565 S
C136 H160 0.930 . S
H137 C132 0.931 . S
Co138 N135 2.135 . S
Co138 N141 2.121 . S
Co138 O146 2.055 . S
Co138 O149 2.039 . S
Co138 N152 2.140 1_556 S
C139 O140 1.227 . S
C139 O149 1.265 1_554 S
O140 C139 1.227 . S
N141 Co138 2.121 . S
N141 C143 1.375 1_556 S
N141 C144 1.313 . S
C142 C143 1.338 . S
C142 N145 1.377 1_554 S
C142 H162 0.930 . S
C143 N141 1.375 1_554 S
C143 C142 1.338 . S
C143 H147 0.931 . S
C144 N141 1.313 . S
C144 N145 1.344 . S
C144 H148 0.930 . S
N145 C142 1.377 1_556 S
N145 C144 1.344 . S
O146 Co138 2.055 . S
O146 C150 1.253 . S
H147 C143 0.931 . S
H148 C144 0.930 . S
O149 Co138 2.039 . S
O149 C139 1.265 1_556 S
C150 O146 1.253 . S
C150 O151 1.227 . S
O151 C150 1.227 . S
N152 Co138 2.140 1_554 S
N152 C155 1.346 . S
N152 C156 1.345 . S
C153 C154 1.387 . S
C153 C157 1.391 . S
C154 C153 1.387 . S
C154 C155 1.369 . S
C154 H163 0.929 . S
C155 N152 1.346 . S
C155 C154 1.369 . S
C155 H158 0.928 . S
C156 N152 1.345 . S
C156 C157 1.371 . S
C156 H159 0.931 . S
C157 C153 1.391 . S
C157 C156 1.371 . S
C157 H164 0.930 . S
H158 C155 0.928 . S
H159 C156 0.931 . S
H160 C136 0.930 . S
H161 C133 0.930 . S
H162 C142 0.930 . S
H163 C154 0.929 . S
H164 C157 0.930 . S
C165 C166 1.322 1_655 S
C165 N168 1.376 . S
C165 H170 0.949 . S
C166 C165 1.322 1_455 S
C166 N167 1.373 . S
C166 H194 0.930 . S
N167 C166 1.373 . S
N167 C169 1.340 . S
N168 C165 1.376 . S
N168 C169 1.321 1_655 S
N168 Co171 2.135 . S
C169 N167 1.340 . S
C169 N168 1.321 1_455 S
C169 H193 0.930 . S
H170 C165 0.949 . S
Co171 N168 2.135 . S
Co171 N174 2.121 . S
Co171 O179 2.055 . S
Co171 O182 2.039 . S
Co171 N185 2.140 . S
C172 O173 1.227 . S
C172 O182 1.265 . S
O173 C172 1.227 . S
N174 Co171 2.121 . S
N174 C176 1.375 . S
N174 C177 1.313 . S
C175 C176 1.338 . S
C175 N178 1.377 . S
C175 H195 0.930 . S
C176 N174 1.375 . S
C176 C175 1.338 . S
C176 H180 0.931 . S
C177 N174 1.313 . S
C177 N178 1.344 . S
C177 H181 0.930 . S
N178 C175 1.377 . S
N178 C177 1.344 . S
O179 Co171 2.055 . S
O179 C183 1.253 . S
H180 C176 0.931 . S
H181 C177 0.930 . S
O182 Co171 2.039 . S
O182 C172 1.265 . S
C183 O179 1.253 . S
C183 O184 1.227 . S
O184 C183 1.227 . S
N185 Co171 2.140 . S
N185 C188 1.346 . S
N185 C189 1.345 . S
C186 C187 1.387 . S
C186 C190 1.391 . S
C187 C186 1.387 . S
C187 C188 1.369 . S
C187 H196 0.929 . S
C188 N185 1.346 . S
C188 C187 1.369 . S
C188 H191 0.928 . S
C189 N185 1.345 . S
C189 C190 1.371 . S
C189 H192 0.931 . S
C190 C186 1.391 . S
C190 C189 1.371 . S
C190 H197 0.930 . S
H191 C188 0.928 . S
H192 C189 0.931 . S
H193 C169 0.930 . S
H194 C166 0.930 . S
H195 C175 0.930 . S
H196 C187 0.929 . S
H197 C190 0.930 . S
C198 C199 1.351 . S
C198 N201 1.368 1_545 S
C198 H203 0.931 . S
C199 C198 1.351 . S
C199 N200 1.373 . S
C199 H227 0.930 . S
N200 C199 1.373 . S
N200 C202 1.340 . S
N201 C198 1.368 1_565 S
N201 C202 1.321 1_565 S
N201 Co204 2.135 . S
C202 N200 1.340 . S
C202 N201 1.321 1_545 S
C202 H226 0.930 1_554 S
H203 C198 0.931 . S
Co204 N201 2.135 . S
Co204 N207 2.121 . S
Co204 O212 2.055 . S
Co204 O215 2.039 1_554 S
Co204 N218 2.140 . S
C205 O206 1.227 . S
C205 O215 1.265 . S
O206 C205 1.227 . S
N207 Co204 2.121 . S
N207 C209 1.375 1_554 S
N207 C210 1.313 . S
C208 C209 1.338 . S
C208 N211 1.377 1_556 S
C208 H228 0.930 . S
C209 N207 1.375 1_556 S
C209 C208 1.338 . S
C209 H213 0.931 . S
C210 N207 1.313 . S
C210 N211 1.344 . S
C210 H214 0.930 . S
N211 C208 1.377 1_554 S
N211 C210 1.344 . S
O212 Co204 2.055 . S
O212 C216 1.253 . S
H213 C209 0.931 . S
H214 C210 0.930 . S
O215 Co204 2.039 1_556 S
O215 C205 1.265 . S
C216 O212 1.253 . S
C216 O217 1.227 . S
O217 C216 1.227 . S
N218 Co204 2.140 . S
N218 C221 1.346 . S
N218 C222 1.345 . S
C219 C220 1.387 . S
C219 C223 1.391 . S
C220 C219 1.387 . S
C220 C221 1.369 . S
C220 H229 0.930 1_554 S
C221 N218 1.346 . S
C221 C220 1.369 . S
C221 H224 0.928 1_554 S
C222 N218 1.345 . S
C222 C223 1.371 . S
C222 H225 0.931 . S
C223 C219 1.391 . S
C223 C222 1.371 . S
C223 H230 0.930 . S
H224 C221 0.928 1_556 S
H225 C222 0.931 . S
H226 C202 0.930 1_556 S
H227 C199 0.930 . S
H228 C208 0.930 . S
H229 C220 0.930 1_556 S
H230 C223 0.930 . S
C231 C232 1.351 1_455 S
C231 N234 1.368 . S
C231 H236 0.931 . S
C232 C231 1.351 1_655 S
C232 N233 1.373 . S
C232 H260 0.930 . S
N233 C232 1.373 . S
N233 C235 1.340 . S
N234 C231 1.368 . S
N234 C235 1.321 1_455 S
N234 Co237 2.135 . S
C235 N233 1.340 . S
C235 N234 1.321 1_655 S
C235 H259 0.930 . S
H236 C231 0.931 . S
Co237 N234 2.135 . S
Co237 N240 2.121 . S
Co237 O245 2.055 . S
Co237 O248 2.039 . S
Co237 N251 2.140 . S
C238 O239 1.227 . S
C238 O248 1.265 . S
O239 C238 1.227 . S
N240 Co237 2.121 . S
N240 C242 1.375 . S
N240 C243 1.313 . S
C241 C242 1.338 . S
C241 N244 1.377 . S
C241 H261 0.930 . S
C242 N240 1.375 . S
C242 C241 1.338 . S
C242 H246 0.931 . S
C243 N240 1.313 . S
C243 N244 1.344 . S
C243 H247 0.930 . S
N244 C241 1.377 . S
N244 C243 1.344 . S
O245 Co237 2.055 . S
O245 C249 1.253 . S
H246 C242 0.931 . S
H247 C243 0.930 . S
O248 Co237 2.039 . S
O248 C238 1.265 . S
C249 O245 1.253 . S
C249 O250 1.227 . S
O250 C249 1.227 . S
N251 Co237 2.140 . S
N251 C254 1.346 . S
N251 C255 1.345 . S
C252 C253 1.387 . S
C252 C256 1.391 . S
C253 C252 1.387 . S
C253 C254 1.369 . S
C253 H262 0.929 . S
C254 N251 1.346 . S
C254 C253 1.369 . S
C254 H257 0.928 . S
C255 N251 1.345 . S
C255 C256 1.371 . S
C255 H258 0.931 . S
C256 C252 1.391 . S
C256 C255 1.371 . S
C256 H263 0.930 . S
H257 C254 0.928 . S
H258 C255 0.931 . S
H259 C235 0.930 . S
H260 C232 0.930 . S
H261 C241 0.930 . S
H262 C253 0.929 . S
H263 C256 0.930 . S
H264 C272 0.950 . S
H265 C277 0.950 . S
H266 C274 0.950 . S
H267 C276 0.950 1_556 S
H268 C278 0.950 . S
H269 C280 0.950 1_556 S
H270 C282 0.950 . S
H271 C283 0.950 . S
C272 H264 0.950 . S
C272 C273 1.386 . S
C272 C274 1.391 . S
C273 C272 1.386 . S
C273 C277 1.393 1_554 S
C274 H266 0.950 . S
C274 C272 1.391 . S
C274 C275 1.400 . S
C275 C274 1.400 . S
C275 C276 1.398 . S
C275 C281 1.491 . S
C276 H267 0.950 1_554 S
C276 C275 1.398 . S
C276 C277 1.391 1_554 S
C277 H265 0.950 . S
C277 C273 1.393 1_556 S
C277 C276 1.391 1_556 S
C278 H268 0.950 . S
C278 C279 1.386 . S
C278 C280 1.391 . S
C279 C278 1.386 . S
C279 C283 1.393 . S
C280 H269 0.950 1_554 S
C280 C278 1.391 . S
C280 C281 1.400 . S
C281 C275 1.491 . S
C281 C280 1.400 . S
C281 C282 1.398 . S
C282 H270 0.950 . S
C282 C281 1.398 . S
C282 C283 1.391 . S
C283 H271 0.950 . S
C283 C279 1.393 . S
C283 C282 1.391 . S
H284 C292 0.950 . S
H285 C297 0.950 . S
H286 C294 0.950 . S
H287 C296 0.950 . S
H288 C298 0.950 . S
H289 C300 0.950 . S
H290 C302 0.950 . S
H291 C303 0.950 . S
C292 H284 0.950 . S
C292 C293 1.386 . S
C292 C294 1.391 . S
C293 C292 1.386 . S
C293 C297 1.393 . S
C294 H286 0.950 . S
C294 C292 1.391 . S
C294 C295 1.400 . S
C295 C294 1.400 . S
C295 C296 1.398 . S
C295 C301 1.491 . S
C296 H287 0.950 . S
C296 C295 1.398 . S
C296 C297 1.391 . S
C297 H285 0.950 . S
C297 C293 1.393 . S
C297 C296 1.391 . S
C298 H288 0.950 . S
C298 C299 1.386 . S
C298 C300 1.391 . S
C299 C298 1.386 . S
C299 C303 1.393 . S
C300 H289 0.950 . S
C300 C298 1.391 . S
C300 C301 1.400 . S
C301 C295 1.491 . S
C301 C300 1.400 . S
C301 C302 1.398 . S
C302 H290 0.950 . S
C302 C301 1.398 . S
C302 C303 1.391 . S
C303 H291 0.950 . S
C303 C299 1.393 . S
C303 C302 1.391 . S
H304 C312 0.950 . S
H305 C317 0.950 . S
H306 C314 0.950 . S
H307 C316 0.950 . S
H308 C318 0.950 . S
H309 C320 0.950 . S
H310 C322 0.950 . S
H311 C323 0.950 . S
C312 H304 0.950 . S
C312 C313 1.386 1_554 S
C312 C314 1.391 . S
C313 C312 1.386 1_556 S
C313 C317 1.393 . S
C314 H306 0.950 . S
C314 C312 1.391 . S
C314 C315 1.400 1_554 S
C315 C314 1.400 1_556 S
C315 C316 1.398 . S
C315 C321 1.486 1_556 S
C316 H307 0.950 . S
C316 C315 1.398 . S
C316 C317 1.391 . S
C317 H305 0.950 . S
C317 C313 1.393 . S
C317 C316 1.391 . S
C318 H308 0.950 . S
C318 C319 1.386 1_556 S
C318 C320 1.391 . S
C319 C318 1.386 1_554 S
C319 C323 1.393 . S
C320 H309 0.950 . S
C320 C318 1.391 . S
C320 C321 1.388 1_556 S
C321 C315 1.486 1_554 S
C321 C320 1.388 1_554 S
C321 C322 1.416 . S
C322 H310 0.950 . S
C322 C321 1.416 . S
C322 C323 1.391 . S
C323 H311 0.950 . S
C323 C319 1.393 . S
C323 C322 1.391 . S
H324 C332 0.950 . S
H325 C337 0.950 . S
H326 C334 0.950 . S
H327 C336 0.950 . S
H328 C338 0.950 . S
H329 C340 0.950 . S
H330 C342 0.950 . S
H331 C343 0.950 . S
C332 H324 0.950 . S
C332 C333 1.386 . S
C332 C334 1.391 . S
C333 C332 1.386 . S
C333 C337 1.393 . S
C334 H326 0.950 . S
C334 C332 1.391 . S
C334 C335 1.400 . S
C335 C334 1.400 . S
C335 C336 1.398 . S
C335 C341 1.491 . S
C336 H327 0.950 . S
C336 C335 1.398 . S
C336 C337 1.391 . S
C337 H325 0.950 . S
C337 C333 1.393 . S
C337 C336 1.391 . S
C338 H328 0.950 . S
C338 C339 1.386 . S
C338 C340 1.391 . S
C339 C338 1.386 . S
C339 C343 1.393 . S
C340 H329 0.950 . S
C340 C338 1.391 . S
C340 C341 1.400 . S
C341 C335 1.491 . S
C341 C340 1.400 . S
C341 C342 1.398 . S
C342 H330 0.950 . S
C342 C341 1.398 . S
C342 C343 1.391 . S
C343 H331 0.950 . S
C343 C339 1.393 . S
C343 C342 1.391 . S
H344 C352 0.950 . S
H345 C357 0.950 . S
H346 C354 0.950 . S
H347 C356 0.950 . S
H348 C358 0.950 . S
H349 C360 0.950 . S
H350 C362 0.950 . S
H351 C363 0.950 . S
C352 H344 0.950 . S
C352 C353 1.386 1_556 S
C352 C354 1.391 . S
C353 C352 1.386 1_554 S
C353 C357 1.393 . S
C354 H346 0.950 . S
C354 C352 1.391 . S
C354 C355 1.400 1_556 S
C355 C354 1.400 1_554 S
C355 C356 1.398 . S
C355 C361 1.491 1_554 S
C356 H347 0.950 . S
C356 C355 1.398 . S
C356 C357 1.391 . S
C357 H345 0.950 . S
C357 C353 1.393 . S
C357 C356 1.391 . S
C358 H348 0.950 . S
C358 C359 1.386 1_554 S
C358 C360 1.391 . S
C359 C358 1.386 1_556 S
C359 C363 1.393 . S
C360 H349 0.950 . S
C360 C358 1.391 . S
C360 C361 1.400 1_554 S
C361 C355 1.491 1_556 S
C361 C360 1.400 1_556 S
C361 C362 1.398 . S
C362 H350 0.950 . S
C362 C361 1.398 . S
C362 C363 1.391 . S
C363 H351 0.950 . S
C363 C359 1.393 . S
C363 C362 1.391 . S
H364 C372 0.950 . S
H365 C377 0.950 . S
H366 C374 0.950 . S
H367 C376 0.950 . S
H368 C378 0.950 . S
H369 C380 0.950 . S
H370 C382 0.950 . S
H371 C383 0.950 . S
C372 H364 0.950 . S
C372 C373 1.386 . S
C372 C374 1.391 . S
C373 C372 1.386 . S
C373 C377 1.393 . S
C374 H366 0.950 . S
C374 C372 1.391 . S
C374 C375 1.400 . S
C375 C374 1.400 . S
C375 C376 1.398 . S
C375 C381 1.491 . S
C376 H367 0.950 . S
C376 C375 1.398 . S
C376 C377 1.391 . S
C377 H365 0.950 . S
C377 C373 1.393 . S
C377 C376 1.391 . S
C378 H368 0.950 . S
C378 C379 1.386 . S
C378 C380 1.391 . S
C379 C378 1.386 . S
C379 C383 1.393 . S
C380 H369 0.950 . S
C380 C378 1.391 . S
C380 C381 1.400 . S
C381 C375 1.491 . S
C381 C380 1.400 . S
C381 C382 1.398 . S
C382 H370 0.950 . S
C382 C381 1.398 . S
C382 C383 1.391 . S
C383 H371 0.950 . S
C383 C379 1.393 . S
C383 C382 1.391 . S
H384 C392 0.950 . S
H385 C397 0.950 . S
H386 C394 0.950 . S
H387 C396 0.950 . S
H388 C398 0.950 . S
H389 C400 0.950 . S
H390 C402 0.950 . S
H391 C403 0.950 . S
C392 H384 0.950 . S
C392 C393 1.386 . S
C392 C394 1.391 . S
C393 C392 1.386 . S
C393 C397 1.393 . S
C394 H386 0.950 . S
C394 C392 1.391 . S
C394 C395 1.400 . S
C395 C394 1.400 . S
C395 C396 1.398 . S
C395 C401 1.491 . S
C396 H387 0.950 . S
C396 C395 1.398 . S
C396 C397 1.391 . S
C397 H385 0.950 . S
C397 C393 1.393 . S
C397 C396 1.391 . S
C398 H388 0.950 . S
C398 C399 1.386 . S
C398 C400 1.391 . S
C399 C398 1.386 . S
C399 C403 1.393 . S
C400 H389 0.950 . S
C400 C398 1.391 . S
C400 C401 1.400 . S
C401 C395 1.491 . S
C401 C400 1.400 . S
C401 C402 1.398 . S
C402 H390 0.950 . S
C402 C401 1.398 . S
C402 C403 1.391 . S
C403 H391 0.950 . S
C403 C399 1.393 . S
C403 C402 1.391 . S
H404 C412 0.950 . S
H405 C417 0.950 . S
H406 C414 0.950 . S
H407 C416 0.950 . S
H408 C418 0.950 . S
H409 C420 0.950 . S
H410 C422 0.950 . S
H411 C423 0.950 . S
C412 H404 0.950 . S
C412 C413 1.386 . S
C412 C414 1.391 . S
C413 C412 1.386 . S
C413 C417 1.393 . S
C414 H406 0.950 . S
C414 C412 1.391 . S
C414 C415 1.400 . S
C415 C414 1.400 . S
C415 C416 1.398 . S
C415 C421 1.491 . S
C416 H407 0.950 . S
C416 C415 1.398 . S
C416 C417 1.391 . S
C417 H405 0.950 . S
C417 C413 1.393 . S
C417 C416 1.391 . S
C418 H408 0.950 . S
C418 C419 1.386 . S
C418 C420 1.391 . S
C419 C418 1.386 . S
C419 C423 1.393 . S
C420 H409 0.950 . S
C420 C418 1.391 . S
C420 C421 1.400 . S
C421 C415 1.491 . S
C421 C420 1.400 . S
C421 C422 1.398 . S
C422 H410 0.950 . S
C422 C421 1.398 . S
C422 C423 1.391 . S
C423 H411 0.950 . S
C423 C419 1.393 . S
C423 C422 1.391 . S
H424 C432 0.950 . S
H425 C437 0.950 . S
H426 C434 0.950 . S
H427 C436 0.950 . S
H428 C438 0.950 . S
H429 C440 0.950 . S
H430 C442 0.950 1_556 S
H431 C443 0.950 1_556 S
C432 H424 0.950 . S
C432 C433 1.386 1_556 S
C432 C434 1.391 . S
C433 C432 1.386 1_554 S
C433 C437 1.393 . S
C434 H426 0.950 . S
C434 C432 1.391 . S
C434 C435 1.400 1_556 S
C435 C434 1.400 1_554 S
C435 C436 1.398 . S
C435 C441 1.491 . S
C436 H427 0.950 . S
C436 C435 1.398 . S
C436 C437 1.391 . S
C437 H425 0.950 . S
C437 C433 1.393 . S
C437 C436 1.391 . S
C438 H428 0.950 . S
C438 C439 1.386 . S
C438 C440 1.391 . S
C439 C438 1.386 . S
C439 C443 1.393 . S
C440 H429 0.950 . S
C440 C438 1.391 . S
C440 C441 1.400 . S
C441 C435 1.491 . S
C441 C440 1.400 . S
C441 C442 1.398 . S
C442 H430 0.950 1_554 S
C442 C441 1.398 . S
C442 C443 1.391 . S
C443 H431 0.950 1_554 S
C443 C439 1.393 . S
C443 C442 1.391 . S
H444 C452 0.950 . S
H445 C457 0.950 . S
H446 C454 0.950 . S
H447 C456 0.950 . S
H448 C458 0.950 . S
H449 C460 0.950 . S
H450 C462 0.950 . S
H451 C463 0.950 . S
C452 H444 0.950 . S
C452 C453 1.386 . S
C452 C454 1.391 . S
C453 C452 1.386 . S
C453 C457 1.393 . S
C454 H446 0.950 . S
C454 C452 1.391 . S
C454 C455 1.400 . S
C455 C454 1.400 . S
C455 C456 1.398 . S
C455 C461 1.491 . S
C456 H447 0.950 . S
C456 C455 1.398 . S
C456 C457 1.391 . S
C457 H445 0.950 . S
C457 C453 1.393 . S
C457 C456 1.391 . S
C458 H448 0.950 . S
C458 C459 1.386 . S
C458 C460 1.391 . S
C459 C458 1.386 . S
C459 C463 1.393 . S
C460 H449 0.950 . S
C460 C458 1.391 . S
C460 C461 1.400 . S
C461 C455 1.491 . S
C461 C460 1.400 . S
C461 C462 1.398 . S
C462 H450 0.950 . S
C462 C461 1.398 . S
C462 C463 1.391 . S
C463 H451 0.950 . S
C463 C459 1.393 . S
C463 C462 1.391 . S
H464 C472 0.950 . S
H465 C477 0.950 . S
H466 C474 0.950 . S
H467 C476 0.950 1_655 S
H468 C478 0.953 . S
H469 C480 0.950 . S
H470 C482 0.950 . S
H471 C483 0.950 . S
C472 H464 0.950 . S
C472 C473 1.386 1_545 S
C472 C474 1.391 . S
C473 C472 1.386 1_565 S
C473 C477 1.393 . S
C474 H466 0.950 . S
C474 C472 1.391 . S
C474 C475 1.388 1_445 S
C475 C474 1.388 1_665 S
C475 C476 1.417 1_655 S
C475 C481 1.484 1_565 S
C476 H467 0.950 1_455 S
C476 C475 1.417 1_455 S
C476 C477 1.391 . S
C477 H465 0.950 . S
C477 C473 1.393 . S
C477 C476 1.391 . S
C478 H468 0.953 . S
C478 C479 1.381 1_565 S
C478 C480 1.393 . S
C479 C478 1.381 1_545 S
C479 C483 1.393 . S
C480 H469 0.950 . S
C480 C478 1.393 . S
C480 C481 1.400 1_565 S
C481 C475 1.484 1_545 S
C481 C480 1.400 1_545 S
C481 C482 1.398 . S
C482 H470 0.950 . S
C482 C481 1.398 . S
C482 C483 1.391 . S
C483 H471 0.950 . S
C483 C479 1.393 . S
C483 C482 1.391 . S
H484 C492 0.950 . S
H485 C497 0.950 . S
H486 C494 0.950 . S
H487 C496 0.950 . S
H488 C498 0.950 . S
H489 C500 0.950 . S
H490 C502 0.950 1_655 S
H491 C503 0.950 . S
C492 H484 0.950 . S
C492 C493 1.386 . S
C492 C494 1.391 . S
C493 C492 1.386 . S
C493 C497 1.393 . S
C494 H486 0.950 . S
C494 C492 1.391 . S
C494 C495 1.400 . S
C495 C494 1.400 . S
C495 C496 1.398 1_655 S
C495 C501 1.491 1_665 S
C496 H487 0.950 . S
C496 C495 1.398 1_455 S
C496 C497 1.391 1_455 S
C497 H485 0.950 . S
C497 C493 1.393 . S
C497 C496 1.391 1_655 S
C498 H488 0.950 . S
C498 C499 1.386 . S
C498 C500 1.391 . S
C499 C498 1.386 . S
C499 C503 1.393 . S
C500 H489 0.950 . S
C500 C498 1.391 . S
C500 C501 1.400 . S
C501 C495 1.491 1_445 S
C501 C500 1.400 . S
C501 C502 1.398 . S
C502 H490 0.950 1_455 S
C502 C501 1.398 . S
C502 C503 1.391 . S
C503 H491 0.950 . S
C503 C499 1.393 . S
C503 C502 1.391 . S
H504 C512 0.950 . S
H505 C517 0.950 . S
H506 C514 0.950 . S
H507 C516 0.950 . S
H508 C518 0.950 . S
H509 C520 0.950 . S
H510 C522 0.950 . S
H511 C523 0.950 . S
C512 H504 0.950 . S
C512 C513 1.386 . S
C512 C514 1.391 . S
C513 C512 1.386 . S
C513 C517 1.393 . S
C514 H506 0.950 . S
C514 C512 1.391 . S
C514 C515 1.400 . S
C515 C514 1.400 . S
C515 C516 1.398 . S
C515 C521 1.491 . S
C516 H507 0.950 . S
C516 C515 1.398 . S
C516 C517 1.391 . S
C517 H505 0.950 . S
C517 C513 1.393 . S
C517 C516 1.391 . S
C518 H508 0.950 . S
C518 C519 1.386 . S
C518 C520 1.391 . S
C519 C518 1.386 . S
C519 C523 1.393 . S
C520 H509 0.950 . S
C520 C518 1.391 . S
C520 C521 1.400 . S
C521 C515 1.491 . S
C521 C520 1.400 . S
C521 C522 1.398 . S
C522 H510 0.950 . S
C522 C521 1.398 . S
C522 C523 1.391 . S
C523 H511 0.950 . S
C523 C519 1.393 . S
C523 C522 1.391 . S
H524 C532 0.950 . S
H525 C537 0.950 . S
H526 C534 0.950 . S
H527 C536 0.950 . S
H528 C538 0.950 . S
H529 C540 0.950 . S
H530 C542 0.950 . S
H531 C543 0.950 . S
C532 H524 0.950 . S
C532 C533 1.386 . S
C532 C534 1.391 . S
C533 C532 1.386 . S
C533 C537 1.393 . S
C534 H526 0.950 . S
C534 C532 1.391 . S
C534 C535 1.400 . S
C535 C534 1.400 . S
C535 C536 1.398 . S
C535 C541 1.491 . S
C536 H527 0.950 . S
C536 C535 1.398 . S
C536 C537 1.391 . S
C537 H525 0.950 . S
C537 C533 1.393 . S
C537 C536 1.391 . S
C538 H528 0.950 . S
C538 C539 1.386 . S
C538 C540 1.391 . S
C539 C538 1.386 . S
C539 C543 1.393 . S
C540 H529 0.950 . S
C540 C538 1.391 . S
C540 C541 1.400 . S
C541 C535 1.491 . S
C541 C540 1.400 . S
C541 C542 1.398 . S
C542 H530 0.950 . S
C542 C541 1.398 . S
C542 C543 1.391 . S
C543 H531 0.950 . S
C543 C539 1.393 . S
C543 C542 1.391 . S
H544 C552 0.950 . S
H545 C557 0.950 . S
H546 C554 0.950 . S
H547 C556 0.950 . S
H548 C558 0.950 . S
H549 C560 0.950 . S
H550 C562 0.950 . S
H551 C563 0.950 . S
C552 H544 0.950 . S
C552 C553 1.386 . S
C552 C554 1.391 . S
C553 C552 1.386 . S
C553 C557 1.393 . S
C554 H546 0.950 . S
C554 C552 1.391 . S
C554 C555 1.400 . S
C555 C554 1.400 . S
C555 C556 1.398 . S
C555 C561 1.491 . S
C556 H547 0.950 . S
C556 C555 1.398 . S
C556 C557 1.391 . S
C557 H545 0.950 . S
C557 C553 1.393 . S
C557 C556 1.391 . S
C558 H548 0.950 . S
C558 C559 1.386 . S
C558 C560 1.391 . S
C559 C558 1.386 . S
C559 C563 1.393 . S
C560 H549 0.950 . S
C560 C558 1.391 . S
C560 C561 1.400 . S
C561 C555 1.491 . S
C561 C560 1.400 . S
C561 C562 1.398 . S
C562 H550 0.950 . S
C562 C561 1.398 . S
C562 C563 1.391 . S
C563 H551 0.950 . S
C563 C559 1.393 . S
C563 C562 1.391 . S
H564 C572 0.950 . S
H565 C577 0.950 . S
H566 C574 0.950 . S
H567 C576 0.950 . S
H568 C578 0.950 . S
H569 C580 0.950 . S
H570 C582 0.950 . S
H571 C583 0.950 . S
C572 H564 0.950 . S
C572 C573 1.386 . S
C572 C574 1.391 . S
C573 C572 1.386 . S
C573 C577 1.393 . S
C574 H566 0.950 . S
C574 C572 1.391 . S
C574 C575 1.400 . S
C575 C574 1.400 . S
C575 C576 1.398 . S
C575 C581 1.491 . S
C576 H567 0.950 . S
C576 C575 1.398 . S
C576 C577 1.391 . S
C577 H565 0.950 . S
C577 C573 1.393 . S
C577 C576 1.391 . S
C578 H568 0.950 . S
C578 C579 1.386 . S
C578 C580 1.391 . S
C579 C578 1.386 . S
C579 C583 1.393 . S
C580 H569 0.950 . S
C580 C578 1.391 . S
C580 C581 1.400 . S
C581 C575 1.491 . S
C581 C580 1.400 . S
C581 C582 1.398 . S
C582 H570 0.950 . S
C582 C581 1.398 . S
C582 C583 1.391 . S
C583 H571 0.950 . S
C583 C579 1.393 . S
C583 C582 1.391 . S
H584 C592 0.950 . S
H585 C597 0.950 . S
H586 C594 0.950 . S
H587 C596 0.950 . S
H588 C598 0.950 . S
H589 C600 0.950 . S
H590 C602 0.950 . S
H591 C603 0.950 . S
C592 H584 0.950 . S
C592 C593 1.386 . S
C592 C594 1.391 . S
C593 C592 1.386 . S
C593 C597 1.393 . S
C594 H586 0.950 . S
C594 C592 1.391 . S
C594 C595 1.400 . S
C595 C594 1.400 . S
C595 C596 1.398 . S
C595 C601 1.491 . S
C596 H587 0.950 . S
C596 C595 1.398 . S
C596 C597 1.391 . S
C597 H585 0.950 . S
C597 C593 1.393 . S
C597 C596 1.391 . S
C598 H588 0.950 . S
C598 C599 1.386 . S
C598 C600 1.391 . S
C599 C598 1.386 . S
C599 C603 1.393 . S
C600 H589 0.950 . S
C600 C598 1.391 . S
C600 C601 1.400 . S
C601 C595 1.491 . S
C601 C600 1.400 . S
C601 C602 1.398 . S
C602 H590 0.950 . S
C602 C601 1.398 . S
C602 C603 1.391 . S
C603 H591 0.950 . S
C603 C599 1.393 . S
C603 C602 1.391 . S
H604 C612 0.950 . S
H605 C617 0.950 . S
H606 C614 0.950 . S
H607 C616 0.950 . S
H608 C618 0.950 . S
H609 C620 0.950 . S
H610 C622 0.950 . S
H611 C623 0.950 . S
C612 H604 0.950 . S
C612 C613 1.386 . S
C612 C614 1.391 . S
C613 C612 1.386 . S
C613 C617 1.393 . S
C614 H606 0.950 . S
C614 C612 1.391 . S
C614 C615 1.400 . S
C615 C614 1.400 . S
C615 C616 1.398 . S
C615 C621 1.491 . S
C616 H607 0.950 . S
C616 C615 1.398 . S
C616 C617 1.391 . S
C617 H605 0.950 . S
C617 C613 1.393 . S
C617 C616 1.391 . S
C618 H608 0.950 . S
C618 C619 1.386 . S
C618 C620 1.391 . S
C619 C618 1.386 . S
C619 C623 1.393 . S
C620 H609 0.950 . S
C620 C618 1.391 . S
C620 C621 1.400 . S
C621 C615 1.491 . S
C621 C620 1.400 . S
C621 C622 1.398 . S
C622 H610 0.950 . S
C622 C621 1.398 . S
C622 C623 1.391 . S
C623 H611 0.950 . S
C623 C619 1.393 . S
C623 C622 1.391 . S
H624 C632 0.950 . S
H625 C637 0.950 . S
H626 C634 0.950 . S
H627 C636 0.950 . S
H628 C638 0.950 . S
H629 C640 0.950 . S
H630 C642 0.950 . S
H631 C643 0.950 . S
C632 H624 0.950 . S
C632 C633 1.386 . S
C632 C634 1.391 . S
C633 C632 1.386 . S
C633 C637 1.393 . S
C634 H626 0.950 . S
C634 C632 1.391 . S
C634 C635 1.400 . S
C635 C634 1.400 . S
C635 C636 1.398 . S
C635 C641 1.491 . S
C636 H627 0.950 . S
C636 C635 1.398 . S
C636 C637 1.391 . S
C637 H625 0.950 . S
C637 C633 1.393 . S
C637 C636 1.391 . S
C638 H628 0.950 . S
C638 C639 1.386 . S
C638 C640 1.391 . S
C639 C638 1.386 . S
C639 C643 1.393 . S
C640 H629 0.950 . S
C640 C638 1.391 . S
C640 C641 1.400 . S
C641 C635 1.491 . S
C641 C640 1.400 . S
C641 C642 1.398 . S
C642 H630 0.950 . S
C642 C641 1.398 . S
C642 C643 1.391 . S
C643 H631 0.950 . S
C643 C639 1.393 . S
C643 C642 1.391 . S
H644 C652 0.950 . S
H645 C657 0.950 . S
H646 C654 0.950 . S
H647 C656 0.950 . S
H648 C658 0.950 . S
H649 C660 0.950 . S
H650 C662 0.950 . S
H651 C663 0.950 . S
C652 H644 0.950 . S
C652 C653 1.386 . S
C652 C654 1.391 . S
C653 C652 1.386 . S
C653 C657 1.393 . S
C654 H646 0.950 . S
C654 C652 1.391 . S
C654 C655 1.400 . S
C655 C654 1.400 . S
C655 C656 1.398 . S
C655 C661 1.491 . S
C656 H647 0.950 . S
C656 C655 1.398 . S
C656 C657 1.391 . S
C657 H645 0.950 . S
C657 C653 1.393 . S
C657 C656 1.391 . S
C658 H648 0.950 . S
C658 C659 1.386 . S
C658 C660 1.391 . S
C659 C658 1.386 . S
C659 C663 1.393 . S
C660 H649 0.950 . S
C660 C658 1.391 . S
C660 C661 1.400 . S
C661 C655 1.491 . S
C661 C660 1.400 . S
C661 C662 1.398 . S
C662 H650 0.950 . S
C662 C661 1.398 . S
C662 C663 1.391 . S
C663 H651 0.950 . S
C663 C659 1.393 . S
C663 C662 1.391 . S
C273 N200 0.688 . S
C279 N13 0.683 . S
C293 N233 0.787 . S
C299 N46 0.788 . S
C313 N134 0.752 . S
C319 N79 0.749 . S
C333 N167 0.824 . S
C339 N112 0.811 . S
C353 N68 0.754 . S
C359 N145 0.767 . S
C373 N101 0.843 . S
C379 N178 0.854 . S
C393 N2 0.792 . S
C399 N211 0.785 . S
C413 N244 0.759 . S
C419 N35 0.769 . S
C433 C87 2.011 . S
C439 C7 1.998 . S
C453 C54 2.188 . S
C459 C106 2.182 . S
C473 C219 2.075 . S
C479 C139 2.065 . S
C493 C172 2.392 . S
C499 C238 2.383 . S
C513 C18 1.822 . S
C519 C249 1.836 . S
C533 C150 1.971 . S
C539 C40 1.972 . S
C553 C183 1.794 . S
C559 C73 1.785 . S
C573 C205 1.916 . S
C579 C117 1.893 . S
C593 C84 1.512 . S
C599 C186 1.480 . S
C613 C120 1.329 . S
C619 C216 1.333 . S
C633 C252 1.088 . S
C639 C21 1.081 . S
C653 C153 1.314 . S
C659 C51 1.323 . S
