# Generated by pormake.
# Topology vcm, (7)-cn, num edge types: 1
# Building blocks:
#     Node 0, Type 0, BuildingBlock: HICVOG_clean_sbu_0, # of connection points: 7
#     Node 1, Type 0, BuildingBlock: HICVOG_clean_sbu_0, # of connection points: 7
#     Node 2, Type 0, BuildingBlock: HICVOG_clean_sbu_0, # of connection points: 7
#     Node 3, Type 0, BuildingBlock: HICVOG_clean_sbu_0, # of connection points: 7
#     Node 4, Type 0, BuildingBlock: HICVOG_clean_sbu_0, # of connection points: 7
#     Node 5, Type 0, BuildingBlock: HICVOG_clean_sbu_0, # of connection points: 7
#     Node 6, Type 0, BuildingBlock: HICVOG_clean_sbu_0, # of connection points: 7
#     Node 7, Type 0, BuildingBlock: HICVOG_clean_sbu_0, # of connection points: 7
#     Edge 8, Type (0, 0), BuildingBlock: TEMPAE_clean_linker_10, # of connection points: 2
#     Edge 9, Type (0, 0), BuildingBlock: TEMPAE_clean_linker_10, # of connection points: 2
#     Edge 10, Type (0, 0), BuildingBlock: TEMPAE_clean_linker_10, # of connection points: 2
#     Edge 11, Type (0, 0), BuildingBlock: TEMPAE_clean_linker_10, # of connection points: 2
#     Edge 12, Type (0, 0), BuildingBlock: TEMPAE_clean_linker_10, # of connection points: 2
#     Edge 13, Type (0, 0), BuildingBlock: TEMPAE_clean_linker_10, # of connection points: 2
#     Edge 14, Type (0, 0), BuildingBlock: TEMPAE_clean_linker_10, # of connection points: 2
#     Edge 15, Type (0, 0), BuildingBlock: TEMPAE_clean_linker_10, # of connection points: 2
#     Edge 16, Type (0, 0), BuildingBlock: TEMPAE_clean_linker_10, # of connection points: 2
#     Edge 17, Type (0, 0), BuildingBlock: TEMPAE_clean_linker_10, # of connection points: 2
#     Edge 18, Type (0, 0), BuildingBlock: TEMPAE_clean_linker_10, # of connection points: 2
#     Edge 19, Type (0, 0), BuildingBlock: TEMPAE_clean_linker_10, # of connection points: 2
#     Edge 20, Type (0, 0), BuildingBlock: TEMPAE_clean_linker_10, # of connection points: 2
#     Edge 21, Type (0, 0), BuildingBlock: TEMPAE_clean_linker_10, # of connection points: 2
#     Edge 22, Type (0, 0), BuildingBlock: TEMPAE_clean_linker_10, # of connection points: 2
#     Edge 23, Type (0, 0), BuildingBlock: TEMPAE_clean_linker_10, # of connection points: 2
#     Edge 24, Type (0, 0), BuildingBlock: TEMPAE_clean_linker_10, # of connection points: 2
#     Edge 25, Type (0, 0), BuildingBlock: TEMPAE_clean_linker_10, # of connection points: 2
#     Edge 26, Type (0, 0), BuildingBlock: TEMPAE_clean_linker_10, # of connection points: 2
#     Edge 27, Type (0, 0), BuildingBlock: TEMPAE_clean_linker_10, # of connection points: 2
#     Edge 28, Type (0, 0), BuildingBlock: TEMPAE_clean_linker_10, # of connection points: 2
#     Edge 29, Type (0, 0), BuildingBlock: TEMPAE_clean_linker_10, # of connection points: 2
#     Edge 30, Type (0, 0), BuildingBlock: TEMPAE_clean_linker_10, # of connection points: 2
#     Edge 31, Type (0, 0), BuildingBlock: TEMPAE_clean_linker_10, # of connection points: 2
#     Edge 32, Type (0, 0), BuildingBlock: TEMPAE_clean_linker_10, # of connection points: 2
#     Edge 33, Type (0, 0), BuildingBlock: TEMPAE_clean_linker_10, # of connection points: 2
#     Edge 34, Type (0, 0), BuildingBlock: TEMPAE_clean_linker_10, # of connection points: 2
#     Edge 35, Type (0, 0), BuildingBlock: TEMPAE_clean_linker_10, # of connection points: 2
# Relax obj value: 0.271
# Max RMSD: 0.254
# Mean RMSD: 0.254
data_MOF--net-vcm--node1-HICVOG_clean_sbu_0--edge1-TEMPAE_clean_linker_10
_symmetry_space_group_name_H-M    P1
_symmetry_Int_Tables_number       1
_symmetry_cell_setting            triclinic
loop_
_symmetry_equiv_pos_as_xyz
'x, y, z'
_cell_length_a     40.507995
_cell_length_b     34.151389
_cell_length_c     27.059024
_cell_angle_alpha  89.962645
_cell_angle_beta   89.96227
_cell_angle_gamma 90.000936
loop_
_atom_site_label
_atom_site_type_symbol
_atom_site_fract_x
_atom_site_fract_y
_atom_site_fract_z
_atom_type_partial_charge
Zn0 Zn 0.01227 0.3012 0.18192 0.0
C1 C 0.06067 0.37148 0.08887 0.0
N2 N 0.04634 0.34955 0.05392 0.0
C3 C 0.033 0.32014 0.08023 0.0
N4 N 0.03886 0.32395 0.12924 0.0
N5 N 0.05673 0.35623 0.13445 0.0
C6 C 0.06706 0.44002 0.23697 0.0
O7 O 0.04849 0.41483 0.26093 0.0
O8 O 1.0067 0.2428 0.1742 0.0
Zn9 Zn 0.08647 0.36945 0.18829 0.0
N10 N 0.96992 0.3287 0.18278 0.0
C11 C 0.94419 0.39021 0.16808 0.0
C12 C 0.97228 0.36697 0.16946 0.0
C13 C 0.9402 0.3127 0.1959 0.0
N14 N 0.91473 0.37447 0.18086 0.0
C15 C 0.91148 0.33637 0.19503 0.0
O16 O 0.07832 0.34193 0.25374 0.0
C17 C 0.05703 0.31972 0.27403 0.0
O18 O 0.03278 0.30589 0.2498 0.0
H19 H 0.99592 0.37952 0.16006 0.0
H20 H 0.93906 0.28217 0.20638 0.0
C21 C 0.15837 0.36799 0.1886 0.0
C22 C 0.18955 0.35518 0.17168 0.0
C23 C 0.16281 0.31675 0.11036 0.0
C24 C 0.13222 0.32865 0.12804 0.0
N25 N 0.13045 0.35439 0.16629 0.0
N26 N 0.19055 0.33006 0.13262 0.0
H27 H 0.15606 0.38837 0.21897 0.0
C28 C 0.03242 0.22387 0.18683 0.0
O29 O 0.05969 0.2435 0.19563 0.0
O30 O 0.08543 0.42776 0.20211 0.0
H31 H 0.11008 0.31711 0.11137 0.0
H32 H 0.94577 0.42065 0.15729 0.0
H33 H 0.16454 0.29657 0.07968 0.0
Zn34 Zn 0.50861 0.62808 0.6883 0.0
C35 C 0.55757 0.67802 0.57762 0.0
N36 N 0.54362 0.64877 0.55184 0.0
C37 C 0.53128 0.62584 0.58754 0.0
N38 N 0.53717 0.64031 0.63304 0.0
N39 N 0.55415 0.67316 0.62697 0.0
C40 C 0.55802 0.77205 0.68974 0.0
O41 O 0.53277 0.75035 0.70319 0.0
O42 O 0.50685 0.56961 0.70055 0.0
Zn43 Zn 0.58281 0.69631 0.67694 0.0
N44 N 0.46497 0.64778 0.67091 0.0
C45 C 0.43371 0.69175 0.62116 0.0
C46 C 0.46377 0.67526 0.63451 0.0
C47 C 0.437 0.63643 0.69511 0.0
N48 N 0.40598 0.68087 0.64552 0.0
C49 C 0.40653 0.65372 0.68237 0.0
O50 O 0.56782 0.68759 0.74787 0.0
C51 C 0.54413 0.67332 0.77316 0.0
O52 O 0.52134 0.65315 0.7532 0.0
H53 H 0.48601 0.68494 0.6163 0.0
H54 H 0.43874 0.61537 0.72489 0.0
C55 C 0.65532 0.69035 0.68859 0.0
C56 C 0.68649 0.67421 0.67666 0.0
C57 C 0.66012 0.62867 0.62343 0.0
C58 C 0.62953 0.64438 0.63553 0.0
N59 N 0.62751 0.67528 0.66711 0.0
N60 N 0.6877 0.64391 0.64406 0.0
H61 H 0.65325 0.7148 0.71382 0.0
C62 C 0.52764 0.55563 0.73104 0.0
O63 O 0.54973 0.57912 0.7506 0.0
O64 O 0.58336 0.75527 0.67173 0.0
H65 H 0.60758 0.63192 0.61943 0.0
H66 H 0.43247 0.71359 0.59224 0.0
H67 H 0.66196 0.60438 0.59793 0.0
Zn68 Zn 1.00966 0.69471 0.84581 0.0
C69 C 0.06148 0.62663 0.9375 0.0
N70 N 0.04817 0.6492 0.97274 0.0
C71 C 0.03389 0.67796 0.94643 0.0
N72 N 0.03808 0.67314 0.89718 0.0
N73 N 0.05585 0.64082 0.89179 0.0
C74 C 0.06289 0.55609 0.79461 0.0
O75 O 0.04129 0.5804 0.77539 0.0
O76 O 1.00519 0.75332 0.85222 0.0
Zn77 Zn 0.08466 0.62765 0.8371 0.0
N78 N 0.96647 0.66884 0.85095 0.0
C79 C 0.93727 0.6147 0.88512 0.0
C80 C 0.96632 0.63568 0.87885 0.0
C81 C 0.93825 0.68169 0.82836 0.0
N82 N 0.90939 0.62723 0.86261 0.0
C83 C 0.90863 0.66008 0.83405 0.0
O84 O 0.07414 0.65384 0.77185 0.0
C85 C 0.05199 0.6748 0.75156 0.0
O86 O 0.02779 0.68854 0.77618 0.0
H87 H 0.98865 0.62523 0.89602 0.0
H88 H 0.93916 0.70767 0.8055 0.0
C89 C 0.15676 0.62993 0.83555 0.0
C90 C 0.18782 0.64371 0.85165 0.0
C91 C 0.16077 0.68502 0.90957 0.0
C92 C 0.13028 0.67205 0.89278 0.0
N93 N 0.12872 0.64439 0.8567 0.0
N94 N 0.18863 0.67074 0.88862 0.0
H95 H 0.15472 0.60806 0.80682 0.0
C96 C 0.03067 0.77196 0.8379 0.0
O97 O 0.05756 0.75204 0.82758 0.0
O98 O 0.08438 0.56932 0.82451 0.0
H99 H 0.10803 0.68417 0.90848 0.0
H100 H 0.93691 0.58836 0.90734 0.0
H101 H 0.16232 0.70672 0.93859 0.0
Zn102 Zn 0.58356 0.30045 0.34402 0.0
C103 C 0.53471 0.3699 0.43731 0.0
N104 N 0.54908 0.34787 0.47215 0.0
C105 C 0.56242 0.31856 0.44571 0.0
N106 N 0.55654 0.32253 0.39671 0.0
N107 N 0.53864 0.3548 0.39168 0.0
C108 C 0.53127 0.43999 0.29725 0.0
O109 O 0.55334 0.41575 0.27911 0.0
O110 O 0.58854 0.24183 0.35023 0.0
Zn111 Zn 0.50898 0.36817 0.33786 0.0
N112 N 0.62621 0.32735 0.34533 0.0
C113 C 0.65266 0.38759 0.36468 0.0
C114 C 0.6243 0.36495 0.36152 0.0
C115 C 0.65574 0.31153 0.33101 0.0
N116 N 0.68194 0.37201 0.35075 0.0
C117 C 0.68474 0.33463 0.33369 0.0
O118 O 0.51856 0.34285 0.27162 0.0
C119 C 0.54014 0.32121 0.25109 0.0
O120 O 0.56406 0.30673 0.27552 0.0
H121 H 0.60082 0.37744 0.37184 0.0
H122 H 0.65653 0.28156 0.31822 0.0
C123 C 0.43737 0.36166 0.33294 0.0
C124 C 0.40663 0.34582 0.34703 0.0
C125 C 0.43307 0.31043 0.41131 0.0
C126 C 0.46344 0.32541 0.39662 0.0
N127 N 0.46514 0.35086 0.35797 0.0
N128 N 0.40555 0.32065 0.38602 0.0
H129 H 0.43946 0.38102 0.30141 0.0
C130 C 0.56314 0.22344 0.33515 0.0
O131 O 0.53624 0.24347 0.32525 0.0
O132 O 0.50908 0.42661 0.32595 0.0
H133 H 0.4855 0.31606 0.41553 0.0
H134 H 0.65143 0.41748 0.37777 0.0
H135 H 0.43144 0.29017 0.44197 0.0
Zn136 Zn 0.51066 0.79928 0.17688 0.0
C137 C 0.56252 0.86993 0.08759 0.0
N138 N 0.55031 0.84701 0.05183 0.0
C139 C 0.53619 0.8178 0.07756 0.0
N140 N 0.53934 0.8227 0.12693 0.0
N141 N 0.55635 0.85551 0.13308 0.0
C142 C 0.56605 0.94015 0.2298 0.0
O143 O 0.54326 0.91705 0.24836 0.0
O144 O 0.51061 0.74022 0.17222 0.0
Zn145 Zn 0.58494 0.8674 0.18829 0.0
N146 N 0.4658 0.81976 0.16658 0.0
C147 C 0.43301 0.86574 0.12211 0.0
C148 C 0.46366 0.85038 0.13452 0.0
C149 C 0.43802 0.80466 0.18823 0.0
N150 N 0.40548 0.85047 0.14291 0.0
C151 C 0.40678 0.82047 0.17599 0.0
O152 O 0.57177 0.84274 0.25326 0.0
C153 C 0.54883 0.8228 0.27325 0.0
O154 O 0.52521 0.80847 0.24793 0.0
H155 H 0.48557 0.86291 0.11832 0.0
H156 H 0.44017 0.78046 0.21386 0.0
C157 C 0.65644 0.85853 0.19508 0.0
C158 C 0.68682 0.8409 0.18261 0.0
C159 C 0.65942 0.80233 0.12226 0.0
C160 C 0.62945 0.81921 0.13533 0.0
N161 N 0.62841 0.8471 0.1712 0.0
N162 N 0.68722 0.8133 0.14633 0.0
H163 H 0.65482 0.87995 0.22443 0.0
C164 C 0.53569 0.72374 0.19149 0.0
O165 O 0.56058 0.7457 0.20562 0.0
O166 O 0.58727 0.9258 0.20025 0.0
H167 H 0.60715 0.80955 0.11734 0.0
H168 H 0.43109 0.88979 0.09623 0.0
H169 H 0.66054 0.78016 0.09378 0.0
Zn170 Zn 1.00863 0.12832 0.69021 0.0
C171 C 0.05993 0.17693 0.58011 0.0
N172 N 0.04598 0.14778 0.55417 0.0
C173 C 0.0323 0.12568 0.58962 0.0
N174 N 0.03744 0.14054 0.63515 0.0
N175 N 0.05517 0.17286 0.62933 0.0
C176 C 0.05902 0.27212 0.69086 0.0
O177 O 0.03341 0.25073 0.70354 0.0
O178 O 1.00759 0.06981 0.70322 0.0
Zn179 Zn 0.08311 0.19612 0.67999 0.0
N180 N 0.96489 0.14674 0.67139 0.0
C181 C 0.93333 0.18902 0.61976 0.0
C182 C 0.96354 0.17346 0.63411 0.0
C183 C 0.93693 0.13527 0.6955 0.0
N184 N 0.9056 0.17805 0.64406 0.0
C185 C 0.90631 0.15166 0.68177 0.0
O186 O 0.06686 0.1886 0.75053 0.0
C187 C 0.04267 0.17501 0.77534 0.0
O188 O 0.02011 0.15463 0.7551 0.0
H189 H 0.98577 0.18328 0.61596 0.0
H190 H 0.93877 0.11487 0.72598 0.0
C191 C 0.15557 0.18999 0.69142 0.0
C192 C 0.18645 0.1726 0.68083 0.0
C193 C 0.15923 0.12395 0.63325 0.0
C194 C 0.12891 0.1409 0.64406 0.0
N195 N 0.12746 0.1739 0.67213 0.0
N196 N 0.18711 0.14014 0.65169 0.0
H197 H 0.15393 0.21613 0.71387 0.0
C198 C 0.02623 0.05653 0.73716 0.0
O199 O 0.04614 0.0807 0.76027 0.0
O200 O 0.0845 0.25501 0.67378 0.0
H201 H 0.10668 0.12776 0.62973 0.0
H202 H 0.93197 0.21023 0.59012 0.0
H203 H 0.16063 0.09796 0.6105 0.0
Zn204 Zn 0.51022 0.19483 0.84527 0.0
C205 C 0.56176 0.1271 0.93763 0.0
N206 N 0.54868 0.15018 0.97255 0.0
C207 C 0.53459 0.17883 0.94583 0.0
N208 N 0.53867 0.17348 0.89666 0.0
N209 N 0.55615 0.1409 0.89169 0.0
C210 C 0.56257 0.05588 0.7942 0.0
O211 O 0.54142 0.08051 0.7745 0.0
O212 O 0.50631 0.2536 0.85083 0.0
Zn213 Zn 0.58471 0.12719 0.83689 0.0
N214 N 0.46686 0.16963 0.85175 0.0
C215 C 0.43714 0.11717 0.88894 0.0
C216 C 0.46642 0.13734 0.88123 0.0
C217 C 0.4387 0.1823 0.82884 0.0
N218 N 0.4093 0.12957 0.8662 0.0
C219 C 0.40883 0.16148 0.83599 0.0
O220 O 0.5743 0.15337 0.77146 0.0
C221 C 0.5521 0.17412 0.7509 0.0
O222 O 0.52783 0.1879 0.77535 0.0
H223 H 0.48869 0.12695 0.89862 0.0
H224 H 0.43987 0.20753 0.80474 0.0
C225 C 0.65684 0.1287 0.83545 0.0
C226 C 0.68796 0.14243 0.85135 0.0
C227 C 0.6611 0.18461 0.90847 0.0
C228 C 0.63056 0.17171 0.89184 0.0
N229 N 0.62887 0.14364 0.85627 0.0
N230 N 0.6889 0.16987 0.88782 0.0
H231 H 0.65469 0.10653 0.80712 0.0
C232 C 0.53161 0.27172 0.83481 0.0
O233 O 0.55814 0.25138 0.82374 0.0
O234 O 0.58393 0.0688 0.82452 0.0
H235 H 0.60837 0.18422 0.90724 0.0
H236 H 0.43654 0.09156 0.91247 0.0
H237 H 0.66276 0.20663 0.93709 0.0
Zn238 Zn 0.08333 0.80158 0.34595 0.0
C239 C 0.03218 0.87041 0.43775 0.0
N240 N 0.04554 0.8478 0.47291 0.0
C241 C 0.05955 0.81889 0.44657 0.0
N242 N 0.05512 0.82362 0.39737 0.0
N243 N 0.03747 0.85606 0.39201 0.0
C244 C 0.0275 0.93993 0.29009 0.0
O245 O 0.04714 0.91526 0.26729 0.0
O246 O 0.08736 0.7429 0.35271 0.0
Zn247 Zn 1.00841 0.86886 0.33746 0.0
N248 N 0.12675 0.82706 0.35072 0.0
C249 C 0.15624 0.88102 0.38463 0.0
C250 C 0.12709 0.86025 0.3785 0.0
C251 C 0.1549 0.81398 0.32808 0.0
N252 N 0.18405 0.86828 0.36206 0.0
C253 C 0.18463 0.83542 0.33359 0.0
O254 O 0.01856 0.84191 0.27247 0.0
C255 C 0.04071 0.82102 0.25202 0.0
O256 O 0.06515 0.8076 0.27637 0.0
H257 H 0.10483 0.8709 0.3957 0.0
H258 H 0.15386 0.78799 0.30532 0.0
C259 C 0.9364 0.86634 0.33603 0.0
C260 C 0.90532 0.85275 0.3524 0.0
C261 C 0.93231 0.81261 0.41172 0.0
C262 C 0.96281 0.82537 0.39465 0.0
N263 N 0.96441 0.85236 0.35773 0.0
N264 N 0.90447 0.82641 0.3902 0.0
H265 H 0.93848 0.88767 0.30664 0.0
C266 C 0.06173 0.72445 0.33864 0.0
O267 O 0.03496 0.74459 0.32834 0.0
O268 O 1.00854 0.9272 0.32399 0.0
H269 H 0.98504 0.81358 0.4108 0.0
H270 H 0.15675 0.90738 0.40677 0.0
H271 H 0.93072 0.79145 0.44139 0.0
C272 C 0.22304 0.375 0.24656 0.0
C273 C 0.22131 0.36593 0.19598 0.0
C274 C 0.25367 0.37836 0.27065 0.0
C275 C 0.28322 0.37193 0.2438 0.0
C276 C 0.28169 0.3653 0.19228 0.0
C277 C 0.25085 0.36261 0.16905 0.0
C278 C 0.25428 0.38607 0.32557 0.0
C279 C 0.31252 0.35799 0.16222 0.0
C280 C 0.3678 0.39077 0.30125 0.0
C281 C 0.37576 0.35341 0.31925 0.0
C282 C 0.33749 0.39761 0.27721 0.0
C283 C 0.31507 0.36621 0.2704 0.0
C284 C 0.3233 0.32842 0.28803 0.0
C285 C 0.35333 0.32263 0.31257 0.0
C286 C 0.32928 0.4384 0.25966 0.0
C287 C 0.30047 0.2939 0.28075 0.0
H288 H 0.20064 0.37724 0.2682 0.0
H289 H 0.24993 0.35614 0.12986 0.0
H290 H 0.26035 0.35856 0.34542 0.0
H291 H 0.27362 0.40784 0.33488 0.0
H292 H 0.23011 0.39689 0.33935 0.0
H293 H 0.3075 0.35806 0.12186 0.0
H294 H 0.33155 0.38042 0.17031 0.0
H295 H 0.32303 0.32907 0.17238 0.0
H296 H 0.38484 0.41479 0.30703 0.0
H297 H 0.35946 0.29365 0.32617 0.0
H298 H 0.30618 0.44858 0.27757 0.0
H299 H 0.32485 0.43831 0.21922 0.0
H300 H 0.34927 0.45967 0.26798 0.0
H301 H 0.27637 0.29969 0.29881 0.0
H302 H 0.31078 0.26634 0.29617 0.0
H303 H 0.29566 0.28951 0.24077 0.0
C304 C 0.24887 0.63491 0.85622 0.0
C305 C 0.21967 0.6319 0.82852 0.0
C306 C 0.27997 0.63179 0.83379 0.0
C307 C 0.28206 0.62526 0.78227 0.0
C308 C 0.25279 0.61898 0.75473 0.0
C309 C 0.22189 0.62258 0.77809 0.0
C310 C 0.31047 0.63878 0.86463 0.0
C311 C 0.25398 0.61149 0.6998 0.0
C312 C 0.35267 0.67591 0.71619 0.0
C313 C 0.37535 0.64539 0.70926 0.0
C314 C 0.32237 0.66954 0.73976 0.0
C315 C 0.31414 0.63147 0.7564 0.0
C316 C 0.33681 0.60034 0.74943 0.0
C317 C 0.36733 0.6077 0.72616 0.0
C318 C 0.29923 0.70378 0.74709 0.0
C319 C 0.32867 0.55929 0.7661 0.0
H320 H 0.24747 0.64158 0.89533 0.0
H321 H 0.19968 0.62054 0.756 0.0
H322 H 0.32966 0.61656 0.85642 0.0
H323 H 0.32097 0.6679 0.85539 0.0
H324 H 0.30502 0.63809 0.90487 0.0
H325 H 0.22999 0.60055 0.68549 0.0
H326 H 0.26008 0.63913 0.68025 0.0
H327 H 0.27352 0.5899 0.69071 0.0
H328 H 0.35879 0.70515 0.70352 0.0
H329 H 0.38449 0.58384 0.72017 0.0
H330 H 0.29412 0.70785 0.78705 0.0
H331 H 0.2753 0.69788 0.72864 0.0
H332 H 0.30945 0.73156 0.73213 0.0
H333 H 0.32379 0.55893 0.80644 0.0
H334 H 0.34888 0.53829 0.75789 0.0
H335 H 0.30583 0.5491 0.74751 0.0
C336 C 0.72106 0.69462 0.74975 0.0
C337 C 0.71815 0.68753 0.69889 0.0
C338 C 0.75238 0.69785 0.77218 0.0
C339 C 0.78135 0.69406 0.74301 0.0
C340 C 0.77832 0.69043 0.6911 0.0
C341 C 0.74686 0.687 0.66981 0.0
C342 C 0.7544 0.70188 0.8276 0.0
C343 C 0.80834 0.68663 0.65833 0.0
C344 C 0.86776 0.70897 0.79781 0.0
C345 C 0.87682 0.67025 0.80917 0.0
C346 C 0.83663 0.7175 0.77679 0.0
C347 C 0.81411 0.68667 0.76688 0.0
C348 C 0.82329 0.64767 0.77806 0.0
C349 C 0.85429 0.64005 0.7989 0.0
C350 C 0.82774 0.75944 0.76549 0.0
C351 C 0.80037 0.6137 0.76779 0.0
H352 H 0.69907 0.69476 0.77258 0.0
H353 H 0.74479 0.68189 0.63039 0.0
H354 H 0.76122 0.67321 0.844 0.0
H355 H 0.77379 0.72324 0.83811 0.0
H356 H 0.7305 0.71133 0.84385 0.0
H357 H 0.80209 0.69033 0.61862 0.0
H358 H 0.82734 0.70857 0.66847 0.0
H359 H 0.81942 0.65718 0.6634 0.0
H360 H 0.88457 0.73268 0.80626 0.0
H361 H 0.86095 0.60999 0.80703 0.0
H362 H 0.80529 0.76787 0.78646 0.0
H363 H 0.82186 0.76266 0.72566 0.0
H364 H 0.84797 0.78007 0.77499 0.0
H365 H 0.77656 0.61807 0.78732 0.0
H366 H 0.81096 0.58519 0.7796 0.0
H367 H 0.79491 0.61214 0.72766 0.0
C368 C 0.87296 0.29303 0.24548 0.0
C369 C 0.87787 0.3226 0.21005 0.0
C370 C 0.84124 0.28546 0.26501 0.0
C371 C 0.81395 0.3084 0.24944 0.0
C372 C 0.81848 0.33637 0.21142 0.0
C373 C 0.85014 0.34283 0.19208 0.0
C374 C 0.83736 0.25455 0.30442 0.0
C375 C 0.79032 0.36172 0.19358 0.0
C376 C 0.72275 0.29338 0.27981 0.0
C377 C 0.71818 0.32106 0.31765 0.0
C378 C 0.75439 0.28634 0.2597 0.0
C379 C 0.78194 0.30792 0.27717 0.0
C380 C 0.77773 0.33383 0.31747 0.0
C381 C 0.74614 0.33978 0.3373 0.0
C382 C 0.75791 0.25757 0.21776 0.0
C383 C 0.80618 0.35768 0.33742 0.0
H384 H 0.89397 0.27716 0.26001 0.0
H385 H 0.85335 0.36522 0.16407 0.0
H386 H 0.83603 0.26879 0.3412 0.0
H387 H 0.81416 0.23781 0.29905 0.0
H388 H 0.85849 0.23381 0.30462 0.0
H389 H 0.79733 0.37998 0.16124 0.0
H390 H 0.76885 0.34337 0.1832 0.0
H391 H 0.78227 0.38146 0.22386 0.0
H392 H 0.70156 0.2787 0.26397 0.0
H393 H 0.74318 0.36067 0.36712 0.0
H394 H 0.78091 0.24019 0.22169 0.0
H395 H 0.75944 0.27375 0.18227 0.0
H396 H 0.73654 0.23725 0.21582 0.0
H397 H 0.82744 0.33844 0.34618 0.0
H398 H 0.79938 0.37424 0.37125 0.0
H399 H 0.81448 0.37888 0.30889 0.0
C400 C 0.87145 0.87269 0.27812 0.0
C401 C 0.87352 0.86403 0.32878 0.0
C402 C 0.84063 0.87594 0.2545 0.0
C403 C 0.81127 0.86998 0.28202 0.0
C404 C 0.81319 0.86406 0.33367 0.0
C405 C 0.84421 0.86129 0.35635 0.0
C406 C 0.83962 0.88279 0.19942 0.0
C407 C 0.78259 0.85741 0.36447 0.0
C408 C 0.72616 0.88724 0.22539 0.0
C409 C 0.71805 0.8494 0.2092 0.0
C410 C 0.75667 0.89474 0.24853 0.0
C411 C 0.77925 0.86361 0.25612 0.0
C412 C 0.77095 0.8254 0.24014 0.0
C413 C 0.74066 0.81888 0.21667 0.0
C414 C 0.76489 0.93593 0.26446 0.0
C415 C 0.794 0.79116 0.24814 0.0
H416 H 0.89373 0.87451 0.25612 0.0
H417 H 0.84548 0.85513 0.39562 0.0
H418 H 0.83353 0.85494 0.1804 0.0
H419 H 0.82014 0.90432 0.18981 0.0
H420 H 0.86367 0.89351 0.18501 0.0
H421 H 0.78791 0.85843 0.40473 0.0
H422 H 0.76348 0.87963 0.35584 0.0
H423 H 0.77204 0.82826 0.35562 0.0
H424 H 0.70906 0.9111 0.21898 0.0
H425 H 0.73448 0.78953 0.20454 0.0
H426 H 0.78786 0.9458 0.24588 0.0
H427 H 0.76957 0.93673 0.30483 0.0
H428 H 0.74479 0.95694 0.25566 0.0
H429 H 0.81799 0.79681 0.22968 0.0
H430 H 0.78375 0.76328 0.23361 0.0
H431 H 0.799 0.78746 0.28819 0.0
C432 C 0.74899 0.13362 0.85596 0.0
C433 C 0.71975 0.13022 0.82842 0.0
C434 C 0.78006 0.13034 0.83348 0.0
C435 C 0.78207 0.12316 0.7821 0.0
C436 C 0.75278 0.11636 0.75481 0.0
C437 C 0.72192 0.12019 0.77819 0.0
C438 C 0.81058 0.13793 0.86404 0.0
C439 C 0.7539 0.1081 0.70005 0.0
C440 C 0.85222 0.17366 0.71481 0.0
C441 C 0.87515 0.14332 0.70861 0.0
C442 C 0.82197 0.16728 0.7385 0.0
C443 C 0.81405 0.12934 0.75596 0.0
C444 C 0.83695 0.09836 0.74964 0.0
C445 C 0.86742 0.10577 0.72628 0.0
C446 C 0.79858 0.20136 0.74516 0.0
C447 C 0.82911 0.05744 0.76712 0.0
H448 H 0.74765 0.14082 0.89493 0.0
H449 H 0.69968 0.11781 0.75622 0.0
H450 H 0.82988 0.11577 0.85617 0.0
H451 H 0.8209 0.16702 0.85419 0.0
H452 H 0.80522 0.13768 0.90431 0.0
H453 H 0.72996 0.09667 0.68615 0.0
H454 H 0.75969 0.13553 0.67985 0.0
H455 H 0.7736 0.08662 0.69133 0.0
H456 H 0.85812 0.2028 0.70152 0.0
H457 H 0.88481 0.08204 0.72086 0.0
H458 H 0.79345 0.20589 0.78504 0.0
H459 H 0.77469 0.19498 0.72686 0.0
H460 H 0.80858 0.22905 0.72962 0.0
H461 H 0.82436 0.05751 0.8075 0.0
H462 H 0.84943 0.03653 0.75917 0.0
H463 H 0.80628 0.04683 0.74889 0.0
C464 C 0.35364 0.14158 0.80382 0.0
C465 C 0.377 0.17146 0.811 0.0
C466 C 0.3227 0.14911 0.78279 0.0
C467 C 0.31447 0.18766 0.76811 0.0
C468 C 0.33779 0.21817 0.77492 0.0
C469 C 0.36881 0.20975 0.79633 0.0
C470 C 0.29885 0.11548 0.776 0.0
C471 C 0.3299 0.25964 0.75979 0.0
C472 C 0.24688 0.1839 0.67192 0.0
C473 C 0.21836 0.18687 0.70116 0.0
C474 C 0.27849 0.18798 0.69248 0.0
C475 C 0.28183 0.19477 0.74383 0.0
C476 C 0.25309 0.20115 0.77279 0.0
C477 C 0.22163 0.19719 0.75108 0.0
C478 C 0.30826 0.18133 0.65994 0.0
C479 C 0.25546 0.20861 0.82761 0.0
H480 H 0.35958 0.11181 0.8145 0.0
H481 H 0.38624 0.2333 0.80238 0.0
H482 H 0.27525 0.12191 0.79518 0.0
H483 H 0.2932 0.11166 0.73618 0.0
H484 H 0.30874 0.08739 0.7905 0.0
H485 H 0.35063 0.28006 0.76736 0.0
H486 H 0.32406 0.26073 0.71976 0.0
H487 H 0.30769 0.27002 0.77989 0.0
H488 H 0.24451 0.17628 0.63318 0.0
H489 H 0.19976 0.19926 0.77404 0.0
H490 H 0.31868 0.1519 0.66763 0.0
H491 H 0.3278 0.20319 0.66789 0.0
H492 H 0.30191 0.18292 0.62005 0.0
H493 H 0.26154 0.18081 0.84682 0.0
H494 H 0.23189 0.21997 0.84296 0.0
H495 H 0.27546 0.2298 0.83585 0.0
C496 C 0.2254 0.78628 0.29757 0.0
C497 C 0.21639 0.82506 0.30862 0.0
C498 C 0.25652 0.77759 0.2766 0.0
C499 C 0.2791 0.80834 0.2664 0.0
C500 C 0.26996 0.8474 0.27723 0.0
C501 C 0.23896 0.85517 0.29804 0.0
C502 C 0.26538 0.73558 0.26569 0.0
C503 C 0.29293 0.88128 0.26663 0.0
C504 C 0.37218 0.80032 0.24931 0.0
C505 C 0.37512 0.80716 0.19837 0.0
C506 C 0.34084 0.79715 0.27177 0.0
C507 C 0.31188 0.80078 0.24258 0.0
C508 C 0.31495 0.80415 0.19064 0.0
C509 C 0.34643 0.80748 0.16931 0.0
C510 C 0.33878 0.79336 0.32723 0.0
C511 C 0.28496 0.8078 0.15785 0.0
H512 H 0.20854 0.76264 0.30626 0.0
H513 H 0.23234 0.88528 0.30592 0.0
H514 H 0.27135 0.73217 0.22591 0.0
H515 H 0.28776 0.7272 0.28681 0.0
H516 H 0.24509 0.71504 0.2753 0.0
H517 H 0.28234 0.90987 0.27813 0.0
H518 H 0.3167 0.877 0.28624 0.0
H519 H 0.29844 0.88262 0.22649 0.0
H520 H 0.39415 0.80032 0.27214 0.0
H521 H 0.34852 0.8124 0.12983 0.0
H522 H 0.31937 0.77207 0.33794 0.0
H523 H 0.33197 0.82211 0.34339 0.0
H524 H 0.36266 0.78396 0.34355 0.0
H525 H 0.26594 0.78592 0.16822 0.0
H526 H 0.29123 0.80389 0.11818 0.0
H527 H 0.27389 0.83728 0.16264 0.0
C528 C 0.03641 0.66426 0.30266 0.0
C529 C 0.06296 0.68199 0.32736 0.0
C530 C 0.03787 0.625 0.28768 0.0
C531 C 0.06643 0.60263 0.29808 0.0
C532 C 0.09312 0.62008 0.32378 0.0
C533 C 0.09112 0.65963 0.33797 0.0
C534 C 1.00892 0.60758 0.2602 0.0
C535 C 0.12385 0.59702 0.33591 0.0
C536 C 0.05504 0.49231 0.29877 0.0
C537 C 0.0675 0.48164 0.2523 0.0
C538 C 0.05531 0.53142 0.31454 0.0
C539 C 0.06791 0.56077 0.28279 0.0
C540 C 0.08058 0.55024 0.23578 0.0
C541 C 0.08044 0.51072 0.2212 0.0
C542 C 0.04182 0.54136 0.36506 0.0
C543 C 0.09369 0.58081 0.20055 0.0
H544 H 0.0146 0.6813 0.294 0.0
H545 H 0.11174 0.67311 0.35696 0.0
H546 H 0.01711 0.59657 0.22362 0.0
H547 H 0.99891 0.58222 0.28101 0.0
H548 H 0.98871 0.62909 0.25442 0.0
H549 H 0.14227 0.61471 0.35654 0.0
H550 H 0.11732 0.57096 0.3584 0.0
H551 H 0.13547 0.58623 0.30136 0.0
H552 H 0.04526 0.46996 0.32319 0.0
H553 H 0.08999 0.50267 0.18517 0.0
H554 H 0.02009 0.5609 0.3613 0.0
H555 H 0.06066 0.55743 0.38682 0.0
H556 H 0.03427 0.5149 0.38612 0.0
H557 H 0.07342 0.60082 0.18948 0.0
H558 H 0.10446 0.56764 0.16669 0.0
H559 H 0.11286 0.59883 0.21895 0.0
C560 C 0.50366 0.33738 0.83757 0.0
C561 C 0.53008 0.31387 0.82202 0.0
C562 C 0.50146 0.37683 0.82295 0.0
C563 C 0.52604 0.39293 0.79166 0.0
C564 C 0.55262 0.36923 0.77569 0.0
C565 C 0.55444 0.33016 0.79134 0.0
C566 C 0.4728 0.40129 0.84078 0.0
C567 C 0.5791 0.38511 0.74183 0.0
C568 C 0.50934 0.48612 0.71832 0.0
C569 C 0.52636 0.51406 0.74644 0.0
C570 C 0.50846 0.44661 0.73298 0.0
C571 C 0.52481 0.43493 0.77691 0.0
C572 C 0.54151 0.46321 0.80578 0.0
C573 C 0.54225 0.50231 0.79004 0.0
C574 C 0.49089 0.4173 0.70059 0.0
C575 C 0.55897 0.45207 0.85306 0.0
H576 H 0.4847 0.32494 0.86109 0.0
H577 H 0.57476 0.31213 0.77862 0.0
H578 H 0.48207 0.42692 0.86178 0.0
H579 H 0.45875 0.41275 0.80868 0.0
H580 H 0.45569 0.38442 0.86482 0.0
H581 H 0.59762 0.36252 0.73162 0.0
H582 H 0.56776 0.39669 0.70748 0.0
H583 H 0.59209 0.4098 0.76001 0.0
H584 H 0.49721 0.49498 0.6844 0.0
H585 H 0.5552 0.52381 0.81222 0.0
H586 H 0.47642 0.39624 0.72308 0.0
H587 H 0.50944 0.40032 0.67934 0.0
H588 H 0.474 0.43181 0.67396 0.0
H589 H 0.54163 0.43685 0.87837 0.0
H590 H 0.56939 0.47789 0.87253 0.0
H591 H 0.57937 0.43141 0.84481 0.0
C592 C 0.04512 0.50264 0.73768 0.0
C593 C 0.06303 0.51443 0.77945 0.0
C594 C 0.0453 0.46354 0.72185 0.0
C595 C 0.06358 0.43537 0.74871 0.0
C596 C 0.08176 0.44704 0.79096 0.0
C597 C 0.0813 0.48648 0.80582 0.0
C598 C 0.02578 0.45236 0.67646 0.0
C599 C 0.10111 0.41782 0.82118 0.0
C600 C 0.03611 0.32958 0.7362 0.0
C601 C 0.05964 0.31434 0.70332 0.0
C602 C 0.03743 0.3687 0.75175 0.0
C603 C 0.06259 0.39349 0.73341 0.0
C604 C 0.08622 0.37848 0.69972 0.0
C605 C 0.08459 0.33897 0.68528 0.0
C606 C 0.01203 0.38341 0.78818 0.0
C607 C 0.11333 0.40412 0.67926 0.0
H608 H 0.0311 0.52409 0.71691 0.0
H609 H 0.09498 0.49534 0.83838 0.0
H610 H 0.04218 0.43808 0.649 0.0
H611 H 1.00637 0.43085 0.68651 0.0
H612 H 0.01379 0.47802 0.65872 0.0
H613 H 0.11826 0.43241 0.84733 0.0
H614 H 0.08373 0.39941 0.84279 0.0
H615 H 0.11559 0.39804 0.79695 0.0
H616 H 0.01696 0.31066 0.75083 0.0
H617 H 0.10289 0.32734 0.65999 0.0
H618 H 0.99782 0.40789 0.77164 0.0
H619 H 0.02449 0.39497 0.82163 0.0
H620 H 0.99444 0.36015 0.79967 0.0
H621 H 0.10246 0.42963 0.65975 0.0
H622 H 0.12964 0.3881 0.65316 0.0
H623 H 0.12861 0.41573 0.70995 0.0
C624 C 0.55802 0.6669 0.23885 0.0
C625 C 0.53517 0.68159 0.20453 0.0
C626 C 0.55671 0.62786 0.25482 0.0
C627 C 0.53225 0.60258 0.23548 0.0
C628 C 0.50932 0.61704 0.20038 0.0
C629 C 0.51093 0.65647 0.18551 0.0
C630 C 0.58137 0.61374 0.2927 0.0
C631 C 0.48297 0.5909 0.17884 0.0
C632 C 0.55037 0.49359 0.24138 0.0
C633 C 0.53144 0.48169 0.28215 0.0
C634 C 0.55041 0.53268 0.22544 0.0
C635 C 0.53132 0.56076 0.25116 0.0
C636 C 0.5122 0.549 0.29249 0.0
C637 C 0.51245 0.50956 0.30748 0.0
C638 C 0.57098 0.54395 0.18106 0.0
C639 C 0.49196 0.57813 0.32151 0.0
H640 H 0.57662 0.68619 0.25421 0.0
H641 H 0.49316 0.66765 0.1591 0.0
H642 H 0.56825 0.60209 0.32557 0.0
H643 H 0.59627 0.58944 0.27713 0.0
H644 H 0.59838 0.63735 0.30491 0.0
H645 H 0.46711 0.60654 0.15178 0.0
H646 H 0.49455 0.56546 0.16014 0.0
H647 H 0.46711 0.5792 0.20887 0.0
H648 H 0.56498 0.47221 0.22143 0.0
H649 H 0.498 0.50063 0.3393 0.0
H650 H 0.58986 0.56583 0.19196 0.0
H651 H 0.55514 0.55779 0.15255 0.0
H652 H 0.58372 0.51839 0.16429 0.0
H653 H 0.5087 0.59704 0.34348 0.0
H654 H 0.47449 0.56349 0.34722 0.0
H655 H 0.47769 0.59744 0.2964 0.0
C656 C 0.58611 0.00912 0.21847 0.0
C657 C 0.56765 0.98165 0.24532 0.0
C658 C 0.58745 0.04854 0.23335 0.0
C659 C 0.56996 0.06063 0.27612 0.0
C660 C 0.55177 0.0328 0.30372 0.0
C661 C 0.55068 0.99377 0.28784 0.0
C662 C 0.60669 0.07729 0.20223 0.0
C663 C 0.53304 0.04438 0.34976 0.0
C664 C 0.59059 0.15752 0.33864 0.0
C665 C 0.56488 0.18148 0.32169 0.0
C666 C 0.59278 0.11812 0.32383 0.0
C667 C 0.56899 0.10263 0.29079 0.0
C668 C 0.5433 0.1269 0.2731 0.0
C669 C 0.54138 0.16585 0.28911 0.0
C670 C 0.62053 0.09304 0.34339 0.0
C671 C 0.51783 0.11176 0.2371 0.0
H672 H 0.59908 -1e-05 0.18535 0.0
H673 H 0.53659 0.97263 0.30905 0.0
H674 H 0.58936 0.0932 0.1776 0.0
H675 H 0.61953 0.09927 0.22545 0.0
H676 H 0.62528 0.06226 0.17878 0.0
H677 H 0.52156 0.01882 0.3685 0.0
H678 H 0.54983 0.05916 0.37622 0.0
H679 H 0.51329 0.06554 0.3401 0.0
H680 H 0.6089 0.16952 0.3636 0.0
H681 H 0.52171 0.18432 0.27518 0.0
H682 H 0.63533 0.08138 0.31218 0.0
H683 H 0.61027 0.06755 0.36369 0.0
H684 H 0.63715 0.1095 0.36857 0.0
H685 H 0.53023 0.10004 0.20365 0.0
H686 H 0.50009 0.13482 0.22553 0.0
H687 H 0.5038 0.08732 0.2541 0.0
C688 C 1.00083 0.83647 0.83695 0.0
C689 C 0.02914 0.81436 0.82638 0.0
C690 C 0.9986 0.87601 0.82271 0.0
C691 C 0.02521 0.89369 0.79702 0.0
C692 C 0.05388 0.87154 0.78653 0.0
C693 C 0.05557 0.8323 0.80155 0.0
C694 C 0.96774 0.89882 0.8349 0.0
C695 C 0.08276 0.88923 0.75908 0.0
C696 C 0.01165 0.98623 0.72102 0.0
C697 C 0.02485 0.01492 0.75234 0.0
C698 C 0.01114 0.94662 0.7353 0.0
C699 C 0.02368 0.93566 0.78224 0.0
C700 C 0.03634 0.96469 0.81432 0.0
C701 C 0.03701 0.00387 0.79884 0.0
C702 C 0.99798 0.9164 0.69972 0.0
C703 C 0.04964 0.95431 0.86481 0.0
H704 H 0.98028 0.82282 0.85601 0.0
H705 H 0.07749 0.81545 0.7929 0.0
H706 H 0.97411 0.92469 0.8578 0.0
H707 H 0.95624 0.90991 0.80042 0.0
H708 H 0.94929 0.88087 0.85517 0.0
H709 H 0.10296 0.86779 0.75287 0.0
H710 H 0.0745 0.9006 0.72271 0.0
H711 H 0.09281 0.91438 0.78018 0.0
H712 H 1.00235 0.99462 0.68497 0.0
H713 H 0.04695 0.02595 0.82344 0.0
H714 H 0.97927 0.8977 0.71816 0.0
H715 H 0.01839 0.89698 0.68759 0.0
H716 H 0.98667 0.92994 0.6665 0.0
H717 H 0.03079 0.93791 0.8862 0.0
H718 H 0.057 0.9806 0.88631 0.0
H719 H 0.07148 0.93495 0.86092 0.0
C720 C 0.58411 0.83868 0.68568 0.0
C721 C 0.55846 0.81433 0.70204 0.0
C722 C 0.58571 0.87814 0.70033 0.0
C723 C 0.56124 0.89344 0.73241 0.0
C724 C 0.53523 0.86902 0.74881 0.0
C725 C 0.53404 0.8299 0.7332 0.0
C726 C 0.61368 0.90341 0.68178 0.0
C727 C 0.50877 0.88411 0.78326 0.0
C728 C 0.57933 0.9858 0.80645 0.0
C729 C 0.56239 0.01424 0.77899 0.0
C730 C 0.57937 0.94634 0.79162 0.0
C731 C 0.56231 0.93522 0.74809 0.0
C732 C 0.54539 0.96391 0.72013 0.0
C733 C 0.54547 0.00297 0.73607 0.0
C734 C 0.59721 0.91648 0.82291 0.0
C735 C 0.5271 0.95332 0.67337 0.0
H736 H 0.60308 0.82685 0.66168 0.0
H737 H 0.51426 0.81126 0.7464 0.0
H738 H 0.60368 0.92911 0.66166 0.0
H739 H 0.62815 0.91474 0.71349 0.0
H740 H 0.63058 0.88719 0.65675 0.0
H741 H 0.49054 0.86113 0.79331 0.0
H742 H 0.52017 0.89546 0.81765 0.0
H743 H 0.49543 0.90883 0.76568 0.0
H744 H 0.59226 0.99429 0.83984 0.0
H745 H 0.5325 0.02483 0.71446 0.0
H746 H 0.61425 0.89885 0.79978 0.0
H747 H 0.57904 0.896 0.83948 0.0
H748 H 0.61158 0.93028 0.85317 0.0
H749 H 0.54412 0.93886 0.64692 0.0
H750 H 0.51601 0.9793 0.65507 0.0
H751 H 0.50713 0.93214 0.68191 0.0
C752 C 0.05695 0.164 0.22466 0.0
C753 C 0.0309 0.18153 0.19857 0.0
C754 C 0.05525 0.12485 0.23997 0.0
C755 C 0.02699 0.10233 0.22835 0.0
C756 C 1.00079 0.11958 0.20133 0.0
C757 C 1.00296 0.1591 0.18698 0.0
C758 C 0.08363 0.10767 0.26899 0.0
C759 C 0.97042 0.09632 0.18784 0.0
C760 C 0.03968 0.99228 0.22847 0.0
C761 C 0.02656 0.98146 0.27449 0.0
C762 C 0.03909 0.03133 0.21249 0.0
C763 C 0.02547 0.06046 0.24355 0.0
C764 C 0.01201 0.04975 0.29002 0.0
C765 C 0.01254 0.01028 0.30484 0.0
C766 C 0.05346 0.04148 0.16256 0.0
C767 C 0.99781 0.08009 0.32456 0.0
H768 H 0.07854 0.18115 0.23419 0.0
H769 H 0.98273 0.17247 0.16692 0.0
H770 H 0.07465 0.0965 0.30509 0.0
H771 H 0.09433 0.08247 0.2487 0.0
H772 H 0.10353 0.12937 0.27591 0.0
H773 H 0.95234 0.11391 0.16641 0.0
H774 H 0.97754 0.07036 0.16562 0.0
H775 H 0.9582 0.08537 0.22185 0.0
H776 H 0.05029 0.97011 0.20461 0.0
H777 H 1.00249 0.00209 0.34054 0.0
H778 H 0.07503 0.06114 0.16727 0.0
H779 H 0.03497 0.05748 0.14004 0.0
H780 H 0.06153 0.01511 0.14177 0.0
H781 H 0.01778 0.09982 0.33748 0.0
H782 H 0.98582 0.06666 0.35736 0.0
H783 H 0.9794 0.09845 0.30498 0.0
C784 C 0.0376 0.25033 0.05698 0.0
C785 C 0.01989 0.28549 0.05455 0.0
C786 C 0.03745 0.22397 0.01696 0.0
C787 C 0.01944 0.23346 0.97363 0.0
C788 C 0.99818 0.26639 0.97399 0.0
C789 C 0.99865 0.29196 0.01455 0.0
C790 C 0.05972 0.18864 0.0189 0.0
C791 C 0.97823 0.27762 0.92905 0.0
C792 C 0.05869 0.21641 0.84791 0.0
C793 C 0.03907 0.18639 0.82822 0.0
C794 C 0.05326 0.23079 0.89583 0.0
C795 C 0.02776 0.21455 0.92538 0.0
C796 C 1.0089 0.18293 0.90674 0.0
C797 C 0.0146 0.16941 0.85829 0.0
C798 C 0.07395 0.2647 0.91395 0.0
C799 C 0.98186 0.1644 0.93716 0.0
H800 H 0.05468 0.24566 0.08723 0.0
H801 H 0.98523 0.3194 1.01244 0.0
H802 H 0.04847 0.16336 0.99945 0.0
H803 H 0.08338 0.19564 1.00019 0.0
H804 H 0.06525 0.18004 0.05764 0.0
H805 H 0.95905 0.29977 0.93797 0.0
H806 H 0.99494 0.29018 0.90062 0.0
H807 H 0.96607 0.25161 0.91268 0.0
H808 H 0.0776 0.22985 0.82517 0.0
H809 H 0.9994 0.14603 0.84364 0.0
H810 H 0.08549 0.25732 0.94994 0.0
H811 H 0.058 0.2907 0.91986 0.0
H812 H 0.09377 0.27276 0.88744 0.0
H813 H 0.99034 0.15913 0.97557 0.0
H814 H 0.97337 0.13623 0.92106 0.0
H815 H 0.96044 0.18459 0.93908 0.0
C816 C 0.59143 0.7059 0.51122 0.0
C817 C 0.57075 0.71253 0.55181 0.0
C818 C 0.59188 0.73181 0.47102 0.0
C819 C 0.57111 0.76518 0.47165 0.0
C820 C 0.55376 0.77473 0.51557 0.0
C821 C 0.55366 0.74805 0.55527 0.0
C822 C 0.61117 0.72056 0.42542 0.0
C823 C 0.53208 0.81053 0.51853 0.0
C824 C 0.57631 0.82908 0.35638 0.0
C825 C 0.55166 0.81234 0.32651 0.0
C826 C 0.58183 0.81573 0.40492 0.0
C827 C 0.56255 0.78458 0.42386 0.0
C828 C 0.53665 0.76888 0.39472 0.0
C829 C 0.53144 0.78305 0.34665 0.0
C830 C 0.60931 0.8337 0.43493 0.0
C831 C 0.51544 0.73555 0.41328 0.0
H832 H 0.60441 0.6782 0.50846 0.0
H833 H 0.53711 0.75287 0.58619 0.0
H834 H 0.59397 0.70874 0.39719 0.0
H835 H 0.62365 0.74643 0.40917 0.0
H836 H 0.63003 0.69783 0.43353 0.0
H837 H 0.52726 0.81902 0.55752 0.0
H838 H 0.54344 0.83568 0.49887 0.0
H839 H 0.50804 0.80416 0.50061 0.0
H840 H 0.59197 0.85194 0.3414 0.0
H841 H 0.51233 0.76987 0.3241 0.0
H842 H 0.63069 0.81341 0.43569 0.0
H843 H 0.60137 0.83847 0.47371 0.0
H844 H 0.61767 0.86205 0.41912 0.0
H845 H 0.5309 0.70903 0.41855 0.0
H846 H 0.49513 0.72822 0.38731 0.0
H847 H 0.50451 0.74308 0.44965 0.0
C848 C 0.05656 0.77985 0.17915 0.0
C849 C 0.03669 0.80947 0.19929 0.0
C850 C 0.05122 0.76579 0.13109 0.0
C851 C 0.02555 0.78194 0.10185 0.0
C852 C 1.00632 0.81305 0.12102 0.0
C853 C 0.01196 0.82627 0.16961 0.0
C854 C 0.07232 0.73242 0.11238 0.0
C855 C 0.97906 0.83143 0.09095 0.0
C856 C 0.03667 0.74776 0.96993 0.0
C857 C 0.01967 0.71209 0.97183 0.0
C858 C 0.03573 0.77381 1.01023 0.0
C859 C 0.01761 0.76351 0.05319 0.0
C860 C 0.99689 0.73011 0.05211 0.0
C861 C 0.9982 0.70481 1.01134 0.0
C862 C 0.05741 0.80968 1.00906 0.0
C863 C 0.97679 0.71807 0.09659 0.0
H864 H 0.0757 0.76658 0.20158 0.0
H865 H 0.99656 0.84935 0.1846 0.0
H866 H 0.05666 0.70629 0.10573 0.0
H867 H 0.08395 0.74048 0.07667 0.0
H868 H 0.09211 0.72425 0.13886 0.0
H869 H 0.97025 0.8593 0.10751 0.0
H870 H 0.98746 0.83721 0.0526 0.0
H871 H 0.95787 0.81093 0.08877 0.0
H872 H 0.05383 0.7531 0.93991 0.0
H873 H 0.98531 0.67699 0.01296 0.0
H874 H 0.08108 0.80307 0.02795 0.0
H875 H 0.04562 0.83451 0.02873 0.0
H876 H 0.06303 0.81876 0.97051 0.0
H877 H 0.99346 0.70543 0.12498 0.0
H878 H 0.95791 0.69574 0.08701 0.0
H879 H 0.96425 0.7437 0.1133 0.0
C880 C 0.55835 0.24863 0.46876 0.0
C881 C 0.5758 0.28397 0.47127 0.0
C882 C 0.55846 0.22236 0.50894 0.0
C883 C 0.57624 0.23207 0.5524 0.0
C884 C 0.59739 0.2651 0.55202 0.0
C885 C 0.59692 0.2906 0.51135 0.0
C886 C 0.53635 0.18689 0.507 0.0
C887 C 0.61713 0.27655 0.59706 0.0
C888 C 0.53648 0.21537 0.67788 0.0
C889 C 0.55609 0.1855 0.69804 0.0
C890 C 0.54208 0.22956 0.62989 0.0
C891 C 0.56776 0.2133 0.60073 0.0
C892 C 0.58665 0.18187 0.61986 0.0
C893 C 0.58076 0.16853 0.66838 0.0
C894 C 0.52135 0.26327 0.61126 0.0
C895 C 0.61389 0.16334 0.58988 0.0
H896 H 0.54148 0.24374 0.43828 0.0
H897 H 0.61019 0.31815 0.51347 0.0
H898 H 0.54763 0.16174 0.52673 0.0
H899 H 0.51258 0.1938 0.52543 0.0
H900 H 0.53103 0.17814 0.46827 0.0
H901 H 0.63628 0.29876 0.58815 0.0
H902 H 0.60028 0.28912 0.62527 0.0
H903 H 0.62931 0.25065 0.6137 0.0
H904 H 0.5174 0.2288 0.70029 0.0
H905 H 0.59597 0.14527 0.68337 0.0
H906 H 0.50997 0.25565 0.57525 0.0
H907 H 0.53723 0.28932 0.60522 0.0
H908 H 0.5014 0.27138 0.63752 0.0
H909 H 0.60563 0.15792 0.5514 0.0
H910 H 0.62235 0.13524 0.60627 0.0
H911 H 0.63528 0.18357 0.58809 0.0
C912 C 0.53958 0.74776 0.05516 0.0
C913 C 0.52277 0.78347 0.05175 0.0
C914 C 0.53925 0.72113 0.01545 0.0
C915 C 0.52194 0.73091 0.9716 0.0
C916 C 0.5014 0.76448 0.97106 0.0
C917 C 0.50209 0.79035 1.01124 0.0
C918 C 0.56067 0.68511 0.01833 0.0
C919 C 0.48213 0.77596 0.92556 0.0
C920 C 0.56154 0.71297 0.84653 0.0
C921 C 0.54117 0.68387 0.82636 0.0
C922 C 0.55639 0.72709 0.89461 0.0
C923 C 0.53038 0.71155 0.92376 0.0
C924 C 0.51092 0.68061 0.90477 0.0
C925 C 0.51639 0.6673 0.8562 0.0
C926 C 0.5778 0.76019 0.91322 0.0
C927 C 0.48332 0.6628 0.93477 0.0
H928 H 0.55608 0.74272 0.08606 0.0
H929 H 0.4893 0.81819 1.00854 0.0
H930 H 0.54914 0.66011 0.99867 0.0
H931 H 0.58476 0.69127 1.00035 0.0
H932 H 0.56545 0.67651 0.05729 0.0
H933 H 0.46343 0.79886 0.93376 0.0
H934 H 0.49937 0.78763 0.89724 0.0
H935 H 0.46945 0.75022 0.90938 0.0
H936 H 0.58077 0.726 0.82401 0.0
H937 H 0.50062 0.64458 0.84121 0.0
H938 H 0.58871 0.75245 0.94952 0.0
H939 H 0.5625 0.78681 0.91864 0.0
H940 H 0.59814 0.76744 0.88721 0.0
H941 H 0.49118 0.65796 0.97357 0.0
H942 H 0.47486 0.63451 0.91899 0.0
H943 H 0.46203 0.68322 0.93548 0.0
C944 C 0.05875 0.24669 0.55577 0.0
C945 C 0.07491 0.21048 0.55443 0.0
C946 C 0.06084 0.27265 0.51544 0.0
C947 C 0.07931 0.26172 0.47307 0.0
C948 C 0.09927 0.2277 0.47491 0.0
C949 C 0.09677 0.20246 0.51564 0.0
C950 C 0.0399 0.30914 0.5158 0.0
C951 C 0.11974 0.21501 0.43112 0.0
C952 C 0.04131 0.27817 0.34657 0.0
C953 C 0.06145 0.30758 0.32649 0.0
C954 C 0.04634 0.26409 0.39467 0.0
C955 C 0.07206 0.27993 0.42404 0.0
C956 C 0.09176 0.31064 0.40483 0.0
C957 C 0.08637 0.32395 0.35617 0.0
C958 C 0.02473 0.23116 0.4134 0.0
C959 C 0.11916 0.32859 0.435 0.0
H960 H 0.04136 0.25263 0.58531 0.0
H961 H 0.10908 0.17425 0.51452 0.0
H962 H 0.05241 0.33354 0.49622 0.0
H963 H 0.01631 0.30312 0.49639 0.0
H964 H 0.03405 0.31853 0.55413 0.0
H965 H 0.13823 0.19243 0.44153 0.0
H966 H 0.10325 0.2024 0.40249 0.0
H967 H 0.13278 0.24029 0.41438 0.0
H968 H 0.022 0.26523 0.32417 0.0
H969 H 0.10199 0.34684 0.3412 0.0
H970 H 0.01291 0.23964 0.4488 0.0
H971 H 0.04003 0.20482 0.42063 0.0
H972 H 1.00506 0.22312 0.38668 0.0
H973 H 0.11063 0.33484 0.47316 0.0
H974 H 0.12853 0.35613 0.4182 0.0
H975 H 0.13997 0.3076 0.43774 0.0
C976 C 0.53683 0.24874 0.9689 0.0
C977 C 0.52 0.21297 0.97071 0.0
C978 C 0.53551 0.27487 1.0091 0.0
C979 C 0.51714 0.26455 0.05182 0.0
C980 C 0.4965 0.23109 0.05047 0.0
C981 C 0.49821 0.2057 1.00983 0.0
C982 C 0.5571 0.31081 1.0082 0.0
C983 C 0.47613 0.21903 0.09467 0.0
C984 C 0.55581 0.28023 0.17804 0.0
C985 C 0.53603 0.30988 0.19829 0.0
C986 C 0.55053 0.26639 0.12988 0.0
C987 C 0.52498 0.28277 0.10064 0.0
C988 C 0.50579 0.31387 0.11994 0.0
C989 C 0.51138 0.32689 0.16865 0.0
C990 C 0.57158 0.23301 0.11108 0.0
C991 C 0.47861 0.33246 0.0899 0.0
H992 H 0.55416 0.25412 0.9391 0.0
H993 H 0.48541 0.17781 1.01135 0.0
H994 H 0.54515 0.3356 0.02774 0.0
H995 H 0.58068 0.30428 0.02736 0.0
H996 H 0.5629 0.31991 0.96972 0.0
H997 H 0.45724 0.1968 0.08476 0.0
H998 H 0.4926 0.20624 0.12321 0.0
H999 H 0.46356 0.24467 0.11132 0.0
H1000 H 0.57489 0.26679 0.20041 0.0
H1001 H 0.49602 0.34997 0.18375 0.0
H1002 H 0.58332 0.24115 0.07547 0.0
H1003 H 0.55587 0.20695 0.10421 0.0
H1004 H 0.5913 0.22466 0.1376 0.0
H1005 H 0.48695 0.338 0.05146 0.0
H1006 H 0.47009 0.3605 0.10635 0.0
H1007 H 0.45725 0.3122 0.08801 0.0
C1008 C 0.05632 0.74902 0.46975 0.0
C1009 C 0.07347 0.78457 0.47192 0.0
C1010 C 0.05711 0.72273 0.50984 0.0
C1011 C 0.0752 0.73269 0.55291 0.0
C1012 C 0.09604 0.76599 0.55211 0.0
C1013 C 0.09491 0.79151 0.51151 0.0
C1014 C 0.03532 0.68696 0.50836 0.0
C1015 C 0.1161 0.77768 0.59672 0.0
C1016 C 0.03606 0.716 0.67873 0.0
C1017 C 0.05588 0.68629 0.69876 0.0
C1018 C 0.04144 0.73018 0.6307 0.0
C1019 C 0.0671 0.71405 0.6014 0.0
C1020 C 0.08623 0.68279 0.62043 0.0
C1021 C 0.08056 0.66946 0.66899 0.0
C1022 C 0.02044 0.76368 0.61214 0.0
C1023 C 0.11347 0.66441 0.59028 0.0
H1024 H 0.03916 0.74396 0.4397 0.0
H1025 H 0.10793 0.81924 0.51334 0.0
H1026 H 0.04697 0.66199 0.52793 0.0
H1027 H 0.01162 0.69359 0.52717 0.0
H1028 H 0.02979 0.6781 0.46973 0.0
H1029 H 0.13505 0.80001 0.58736 0.0
H1030 H 0.09942 0.79019 0.6252 0.0
H1031 H 0.12856 0.7519 0.61322 0.0
H1032 H 0.01696 0.72928 0.70123 0.0
H1033 H 0.09592 0.64631 0.6839 0.0
H1034 H 1.00885 0.75582 0.57636 0.0
H1035 H 0.03618 0.7898 0.60565 0.0
H1036 H 1.00063 0.77181 0.63863 0.0
H1037 H 0.10513 0.65897 0.55184 0.0
H1038 H 0.12207 0.63635 0.60661 0.0
H1039 H 0.13478 0.68476 0.58839 0.0
C1040 C 0.09936 0.41159 0.03927 0.0
C1041 C 0.07578 0.4094 0.07704 0.0
C1042 C 0.1063 0.44733 0.01576 0.0
C1043 C 0.08808 0.4811 0.02903 0.0
C1044 C 0.06611 0.47947 0.06991 0.0
C1045 C 0.06047 0.44357 0.09373 0.0
C1046 C 0.13116 0.44798 0.97424 0.0
C1047 C 0.04608 0.51469 0.08547 0.0
C1048 C 0.10014 0.58571 0.98621 0.0
C1049 C 0.07609 0.5884 0.94921 0.0
C1050 C 0.10686 0.54978 1.00945 0.0
C1051 C 0.08808 0.51638 0.99658 0.0
C1052 C 0.06564 0.51847 0.95638 0.0
C1053 C 0.06011 0.55454 0.93293 0.0
C1054 C 0.13268 0.54795 0.04956 0.0
C1055 C 0.04521 0.48354 0.94104 0.0
H1056 H 0.11098 0.38493 0.02617 0.0
H1057 H 0.0417 0.44154 0.12224 0.0
H1058 H 0.11831 0.44274 0.93871 0.0
H1059 H 0.14389 0.47669 0.97179 0.0
H1060 H 0.14994 0.42457 0.97898 0.0
H1061 H 0.03179 0.50918 0.11985 0.0
H1062 H 0.06237 0.5403 0.0917 0.0
H1063 H 0.02857 0.52258 0.05554 0.0
H1064 H 0.11239 0.61213 0.99877 0.0
H1065 H 0.04101 0.55694 0.90502 0.0
H1066 H 0.15073 0.52445 0.04104 0.0
H1067 H 0.12104 0.54038 0.0854 0.0
H1068 H 0.14614 0.5761 0.05373 0.0
H1069 H 0.06142 0.45823 0.93279 0.0
H1070 H 0.02992 0.48969 0.90785 0.0
H1071 H 0.02863 0.47486 0.97184 0.0
C1072 C 0.53299 0.55375 0.59334 0.0
C1073 C 0.51699 0.58736 0.57622 0.0
C1074 C 0.5281 0.51751 0.56999 0.0
C1075 C 0.50629 0.51499 0.52905 0.0
C1076 C 0.48743 0.54812 0.51528 0.0
C1077 C 0.49352 0.58419 0.53843 0.0
C1078 C 0.54878 0.48298 0.58609 0.0
C1079 C 0.46274 0.54631 0.47363 0.0
C1080 C 0.53552 0.44199 0.43321 0.0
C1081 C 0.51977 0.40788 0.44923 0.0
C1082 C 0.52962 0.4779 0.45681 0.0
C1083 C 0.50706 0.47956 0.49694 0.0
C1084 C 0.48867 0.44582 0.5098 0.0
C1085 C 0.49574 0.41008 0.48637 0.0
C1086 C 0.54984 0.5131 0.44173 0.0
C1087 C 0.46303 0.447 0.55024 0.0
H1088 H 0.5517 0.55651 0.62177 0.0
H1089 H 0.48137 0.61042 0.525 0.0
H1090 H 0.53304 0.4569 0.59235 0.0
H1091 H 0.56665 0.47551 0.55643 0.0
H1092 H 0.56274 0.48908 0.62058 0.0
H1093 H 0.44507 0.57116 0.47515 0.0
H1094 H 0.47592 0.54766 0.43777 0.0
H1095 H 0.4487 0.51842 0.47462 0.0
H1096 H 0.55468 0.43992 0.40531 0.0
H1097 H 0.4838 0.38343 0.49888 0.0
H1098 H 0.56654 0.5215 0.47246 0.0
H1099 H 0.53356 0.53846 0.43409 0.0
H1100 H 0.565 0.50737 0.40827 0.0
H1101 H 0.47497 0.45333 0.5862 0.0
H1102 H 0.44929 0.41896 0.55343 0.0
H1103 H 0.4452 0.471 0.54305 0.0
C1104 C 0.56056 0.94206 0.09327 0.0
C1105 C 0.57673 0.90851 0.07633 0.0
C1106 C 0.56563 0.9784 0.07019 0.0
C1107 C 0.58782 0.98111 0.02968 0.0
C1108 C 0.60674 0.94801 0.016 0.0
C1109 C 0.60048 0.91183 0.0389 0.0
C1110 C 0.54487 0.01288 0.08614 0.0
C1111 C 0.632 0.95029 0.9751 0.0
C1112 C 0.56023 0.05492 0.93352 0.0
C1113 C 0.57608 0.0888 0.95001 0.0
C1114 C 0.5655 0.01888 0.95722 0.0
C1115 C 0.58757 0.0168 0.99789 0.0
C1116 C 0.60609 0.05029 1.01128 0.0
C1117 C 0.59959 0.08617 0.9878 0.0
C1118 C 0.54512 0.98397 0.94158 0.0
C1119 C 0.63099 0.04898 0.05269 0.0
H1120 H 0.54164 0.93919 0.12143 0.0
H1121 H 0.61282 0.88566 0.02568 0.0
H1122 H 0.56064 0.03879 0.0932 0.0
H1123 H 0.52745 0.02075 0.05607 0.0
H1124 H 0.53042 0.00655 0.12015 0.0
H1125 H 0.64678 0.92299 0.97206 0.0
H1126 H 0.61953 0.95561 0.93927 0.0
H1127 H 0.64895 0.97529 0.98157 0.0
H1128 H 0.54142 0.05728 0.90517 0.0
H1129 H 0.61159 0.11263 1.00079 0.0
H1130 H 0.52788 0.97587 0.97181 0.0
H1131 H 0.56121 0.95833 0.93451 0.0
H1132 H 0.53051 0.98993 0.90765 0.0
H1133 H 0.61793 0.04948 0.08867 0.0
H1134 H 0.64804 0.07444 0.05138 0.0
H1135 H 0.6457 0.0216 0.05117 0.0
C1136 C 0.03315 0.05354 0.59464 0.0
C1137 C 0.01741 0.08753 0.57818 0.0
C1138 C 0.02775 0.01757 0.57088 0.0
C1139 C 1.00562 0.01566 0.53027 0.0
C1140 C 0.98704 0.04918 0.51718 0.0
C1141 C 0.99365 0.085 0.54072 0.0
C1142 C 0.04799 0.98252 0.58641 0.0
C1143 C 0.96161 0.04764 0.47652 0.0
C1144 C 0.03313 0.94258 0.43329 0.0
C1145 C 0.01742 0.90855 0.44969 0.0
C1146 C 0.02775 0.9785 0.4572 0.0
C1147 C 1.00565 0.98032 0.49791 0.0
C1148 C 0.98719 0.9467 0.51111 0.0
C1149 C 0.99374 0.91096 0.48732 0.0
C1150 C 0.04807 0.01353 0.44179 0.0
C1151 C 0.96176 0.94809 0.55186 0.0
H1152 H 0.05201 0.05579 0.62295 0.0
H1153 H 0.98161 0.11151 0.52797 0.0
H1154 H 0.03176 0.95697 0.59341 0.0
H1155 H 0.06519 0.97439 0.55615 0.0
H1156 H 0.06263 0.9883 0.62035 0.0
H1157 H 0.94868 0.07606 0.4716 0.0
H1158 H 0.97342 0.03944 0.44104 0.0
H1159 H 0.94306 0.0247 0.48504 0.0
H1160 H 0.05196 0.94041 0.4049 0.0
H1161 H 0.98168 0.88442 0.49994 0.0
H1162 H 0.06537 0.02141 0.472 0.0
H1163 H 0.03195 0.03922 0.4351 0.0
H1164 H 0.06262 0.00784 0.40771 0.0
H1165 H 0.97253 0.96043 0.58612 0.0
H1166 H 0.95137 0.91872 0.56025 0.0
H1167 H 0.94129 0.96775 0.54064 0.0
loop_
_geom_bond_atom_site_label_1
_geom_bond_atom_site_label_2
_geom_bond_distance
_geom_bond_site_symmetry_2
_ccdc_geom_bond_type
Zn0 N4 2.020 . S
Zn0 O8 2.019 . S
Zn0 N10 2.119 1_455 S
Zn0 O18 1.975 . S
C1 N2 1.334 . S
C1 N5 1.336 . S
N2 C1 1.334 . S
N2 C3 1.334 . S
C3 N2 1.334 . S
C3 N4 1.336 . S
N4 Zn0 2.020 . S
N4 C3 1.336 . S
N4 N5 1.354 . S
N5 C1 1.336 . S
N5 N4 1.354 . S
N5 Zn9 2.020 . S
C6 O7 1.244 . S
C6 O30 1.257 . S
O7 C6 1.244 . S
O8 Zn0 2.019 . S
O8 C28 1.257 . S
Zn9 N5 2.020 . S
Zn9 O16 1.975 . S
Zn9 N25 2.119 . S
Zn9 O30 2.019 . S
N10 Zn0 2.119 1_655 S
N10 C12 1.334 . S
N10 C13 1.328 . S
C11 C12 1.391 . S
C11 N14 1.329 . S
C11 H32 0.930 . S
C12 N10 1.334 . S
C12 C11 1.391 . S
C12 H19 0.930 . S
C13 N10 1.328 . S
C13 C15 1.392 . S
C13 H20 0.930 . S
N14 C11 1.329 . S
N14 C15 1.331 . S
C15 C13 1.392 . S
C15 N14 1.331 . S
O16 Zn9 1.975 . S
O16 C17 1.252 . S
C17 O16 1.252 . S
C17 O18 1.252 . S
O18 Zn0 1.975 . S
O18 C17 1.252 . S
H19 C12 0.930 . S
H20 C13 0.930 . S
C21 C22 1.392 . S
C21 N25 1.328 . S
C21 H27 0.930 . S
C22 C21 1.392 . S
C22 N26 1.331 . S
C23 C24 1.391 . S
C23 N26 1.329 . S
C23 H33 0.930 . S
C24 C23 1.391 . S
C24 N25 1.334 . S
C24 H31 0.930 . S
N25 Zn9 2.119 . S
N25 C21 1.328 . S
N25 C24 1.334 . S
N26 C22 1.331 . S
N26 C23 1.329 . S
H27 C21 0.930 . S
C28 O8 1.257 . S
C28 O29 1.244 . S
O29 C28 1.244 . S
O30 C6 1.257 . S
O30 Zn9 2.019 . S
H31 C24 0.930 . S
H32 C11 0.930 . S
H33 C23 0.930 . S
Zn34 N38 2.020 . S
Zn34 O42 2.019 . S
Zn34 N44 2.119 . S
Zn34 O52 1.975 . S
C35 N36 1.334 . S
C35 N39 1.336 . S
N36 C35 1.334 . S
N36 C37 1.334 . S
C37 N36 1.334 . S
C37 N38 1.336 . S
N38 Zn34 2.020 . S
N38 C37 1.336 . S
N38 N39 1.354 . S
N39 C35 1.336 . S
N39 N38 1.354 . S
N39 Zn43 2.020 . S
C40 O41 1.244 . S
C40 O64 1.257 . S
O41 C40 1.244 . S
O42 Zn34 2.019 . S
O42 C62 1.257 . S
Zn43 N39 2.020 . S
Zn43 O50 1.975 . S
Zn43 N59 2.119 . S
Zn43 O64 2.019 . S
N44 Zn34 2.119 . S
N44 C46 1.334 . S
N44 C47 1.328 . S
C45 C46 1.391 . S
C45 N48 1.329 . S
C45 H66 0.930 . S
C46 N44 1.334 . S
C46 C45 1.391 . S
C46 H53 0.930 . S
C47 N44 1.328 . S
C47 C49 1.392 . S
C47 H54 0.930 . S
N48 C45 1.329 . S
N48 C49 1.331 . S
C49 C47 1.392 . S
C49 N48 1.331 . S
O50 Zn43 1.975 . S
O50 C51 1.252 . S
C51 O50 1.252 . S
C51 O52 1.252 . S
O52 Zn34 1.975 . S
O52 C51 1.252 . S
H53 C46 0.930 . S
H54 C47 0.930 . S
C55 C56 1.392 . S
C55 N59 1.328 . S
C55 H61 0.930 . S
C56 C55 1.392 . S
C56 N60 1.331 . S
C57 C58 1.391 . S
C57 N60 1.329 . S
C57 H67 0.930 . S
C58 C57 1.391 . S
C58 N59 1.334 . S
C58 H65 0.930 . S
N59 Zn43 2.119 . S
N59 C55 1.328 . S
N59 C58 1.334 . S
N60 C56 1.331 . S
N60 C57 1.329 . S
H61 C55 0.930 . S
C62 O42 1.257 . S
C62 O63 1.244 . S
O63 C62 1.244 . S
O64 C40 1.257 . S
O64 Zn43 2.019 . S
H65 C58 0.930 . S
H66 C45 0.930 . S
H67 C57 0.930 . S
Zn68 N72 2.020 . S
Zn68 O76 2.019 . S
Zn68 N78 2.119 1_455 S
Zn68 O86 1.975 . S
C69 N70 1.334 . S
C69 N73 1.336 . S
N70 C69 1.334 . S
N70 C71 1.334 . S
C71 N70 1.334 . S
C71 N72 1.336 . S
N72 Zn68 2.020 . S
N72 C71 1.336 . S
N72 N73 1.354 . S
N73 C69 1.336 . S
N73 N72 1.354 . S
N73 Zn77 2.020 . S
C74 O75 1.244 . S
C74 O98 1.257 . S
O75 C74 1.244 . S
O76 Zn68 2.019 . S
O76 C96 1.257 . S
Zn77 N73 2.020 . S
Zn77 O84 1.975 . S
Zn77 N93 2.119 . S
Zn77 O98 2.019 . S
N78 Zn68 2.119 1_655 S
N78 C80 1.334 . S
N78 C81 1.328 . S
C79 C80 1.391 . S
C79 N82 1.329 . S
C79 H100 0.930 . S
C80 N78 1.334 . S
C80 C79 1.391 . S
C80 H87 0.930 . S
C81 N78 1.328 . S
C81 C83 1.392 . S
C81 H88 0.930 . S
N82 C79 1.329 . S
N82 C83 1.331 . S
C83 C81 1.392 . S
C83 N82 1.331 . S
O84 Zn77 1.975 . S
O84 C85 1.252 . S
C85 O84 1.252 . S
C85 O86 1.252 . S
O86 Zn68 1.975 . S
O86 C85 1.252 . S
H87 C80 0.930 . S
H88 C81 0.930 . S
C89 C90 1.392 . S
C89 N93 1.328 . S
C89 H95 0.930 . S
C90 C89 1.392 . S
C90 N94 1.331 . S
C91 C92 1.391 . S
C91 N94 1.329 . S
C91 H101 0.930 . S
C92 C91 1.391 . S
C92 N93 1.334 . S
C92 H99 0.930 . S
N93 Zn77 2.119 . S
N93 C89 1.328 . S
N93 C92 1.334 . S
N94 C90 1.331 . S
N94 C91 1.329 . S
H95 C89 0.930 . S
C96 O76 1.257 . S
C96 O97 1.244 . S
O97 C96 1.244 . S
O98 C74 1.257 . S
O98 Zn77 2.019 . S
H99 C92 0.930 . S
H100 C79 0.930 . S
H101 C91 0.930 . S
Zn102 N106 2.020 . S
Zn102 O110 2.019 . S
Zn102 N112 2.119 . S
Zn102 O120 1.975 . S
C103 N104 1.334 . S
C103 N107 1.336 . S
N104 C103 1.334 . S
N104 C105 1.334 . S
C105 N104 1.334 . S
C105 N106 1.336 . S
N106 Zn102 2.020 . S
N106 C105 1.336 . S
N106 N107 1.354 . S
N107 C103 1.336 . S
N107 N106 1.354 . S
N107 Zn111 2.020 . S
C108 O109 1.244 . S
C108 O132 1.257 . S
O109 C108 1.244 . S
O110 Zn102 2.019 . S
O110 C130 1.257 . S
Zn111 N107 2.020 . S
Zn111 O118 1.975 . S
Zn111 N127 2.119 . S
Zn111 O132 2.019 . S
N112 Zn102 2.119 . S
N112 C114 1.334 . S
N112 C115 1.328 . S
C113 C114 1.391 . S
C113 N116 1.329 . S
C113 H134 0.930 . S
C114 N112 1.334 . S
C114 C113 1.391 . S
C114 H121 0.930 . S
C115 N112 1.328 . S
C115 C117 1.392 . S
C115 H122 0.930 . S
N116 C113 1.329 . S
N116 C117 1.331 . S
C117 C115 1.392 . S
C117 N116 1.331 . S
O118 Zn111 1.975 . S
O118 C119 1.252 . S
C119 O118 1.252 . S
C119 O120 1.252 . S
O120 Zn102 1.975 . S
O120 C119 1.252 . S
H121 C114 0.930 . S
H122 C115 0.930 . S
C123 C124 1.392 . S
C123 N127 1.328 . S
C123 H129 0.930 . S
C124 C123 1.392 . S
C124 N128 1.331 . S
C125 C126 1.391 . S
C125 N128 1.329 . S
C125 H135 0.930 . S
C126 C125 1.391 . S
C126 N127 1.334 . S
C126 H133 0.930 . S
N127 Zn111 2.119 . S
N127 C123 1.328 . S
N127 C126 1.334 . S
N128 C124 1.331 . S
N128 C125 1.329 . S
H129 C123 0.930 . S
C130 O110 1.257 . S
C130 O131 1.244 . S
O131 C130 1.244 . S
O132 C108 1.257 . S
O132 Zn111 2.019 . S
H133 C126 0.930 . S
H134 C113 0.930 . S
H135 C125 0.930 . S
Zn136 N140 2.020 . S
Zn136 O144 2.019 . S
Zn136 N146 2.119 . S
Zn136 O154 1.975 . S
C137 N138 1.334 . S
C137 N141 1.336 . S
N138 C137 1.334 . S
N138 C139 1.334 . S
C139 N138 1.334 . S
C139 N140 1.336 . S
N140 Zn136 2.020 . S
N140 C139 1.336 . S
N140 N141 1.354 . S
N141 C137 1.336 . S
N141 N140 1.354 . S
N141 Zn145 2.020 . S
C142 O143 1.244 . S
C142 O166 1.257 . S
O143 C142 1.244 . S
O144 Zn136 2.019 . S
O144 C164 1.257 . S
Zn145 N141 2.020 . S
Zn145 O152 1.975 . S
Zn145 N161 2.119 . S
Zn145 O166 2.019 . S
N146 Zn136 2.119 . S
N146 C148 1.334 . S
N146 C149 1.328 . S
C147 C148 1.391 . S
C147 N150 1.329 . S
C147 H168 0.930 . S
C148 N146 1.334 . S
C148 C147 1.391 . S
C148 H155 0.930 . S
C149 N146 1.328 . S
C149 C151 1.392 . S
C149 H156 0.930 . S
N150 C147 1.329 . S
N150 C151 1.331 . S
C151 C149 1.392 . S
C151 N150 1.331 . S
O152 Zn145 1.975 . S
O152 C153 1.252 . S
C153 O152 1.252 . S
C153 O154 1.252 . S
O154 Zn136 1.975 . S
O154 C153 1.252 . S
H155 C148 0.930 . S
H156 C149 0.930 . S
C157 C158 1.392 . S
C157 N161 1.328 . S
C157 H163 0.930 . S
C158 C157 1.392 . S
C158 N162 1.331 . S
C159 C160 1.391 . S
C159 N162 1.329 . S
C159 H169 0.930 . S
C160 C159 1.391 . S
C160 N161 1.334 . S
C160 H167 0.930 . S
N161 Zn145 2.119 . S
N161 C157 1.328 . S
N161 C160 1.334 . S
N162 C158 1.331 . S
N162 C159 1.329 . S
H163 C157 0.930 . S
C164 O144 1.257 . S
C164 O165 1.244 . S
O165 C164 1.244 . S
O166 C142 1.257 . S
O166 Zn145 2.019 . S
H167 C160 0.930 . S
H168 C147 0.930 . S
H169 C159 0.930 . S
Zn170 N174 2.020 . S
Zn170 O178 2.019 1_455 S
Zn170 N180 2.119 1_455 S
Zn170 O188 1.975 . S
C171 N172 1.334 . S
C171 N175 1.336 . S
N172 C171 1.334 . S
N172 C173 1.334 . S
C173 N172 1.334 . S
C173 N174 1.336 . S
N174 Zn170 2.020 . S
N174 C173 1.336 . S
N174 N175 1.354 . S
N175 C171 1.336 . S
N175 N174 1.354 . S
N175 Zn179 2.020 . S
C176 O177 1.244 . S
C176 O200 1.257 . S
O177 C176 1.244 . S
O178 Zn170 2.019 1_655 S
O178 C198 1.257 1_655 S
Zn179 N175 2.020 . S
Zn179 O186 1.975 . S
Zn179 N195 2.119 . S
Zn179 O200 2.019 . S
N180 Zn170 2.119 1_655 S
N180 C182 1.334 . S
N180 C183 1.328 . S
C181 C182 1.391 . S
C181 N184 1.329 . S
C181 H202 0.930 . S
C182 N180 1.334 . S
C182 C181 1.391 . S
C182 H189 0.930 . S
C183 N180 1.328 . S
C183 C185 1.392 . S
C183 H190 0.930 . S
N184 C181 1.329 . S
N184 C185 1.331 . S
C185 C183 1.392 . S
C185 N184 1.331 . S
O186 Zn179 1.975 . S
O186 C187 1.252 . S
C187 O186 1.252 . S
C187 O188 1.252 . S
O188 Zn170 1.975 . S
O188 C187 1.252 . S
H189 C182 0.930 . S
H190 C183 0.930 . S
C191 C192 1.392 . S
C191 N195 1.328 . S
C191 H197 0.930 . S
C192 C191 1.392 . S
C192 N196 1.331 . S
C193 C194 1.391 . S
C193 N196 1.329 . S
C193 H203 0.930 . S
C194 C193 1.391 . S
C194 N195 1.334 . S
C194 H201 0.930 . S
N195 Zn179 2.119 . S
N195 C191 1.328 . S
N195 C194 1.334 . S
N196 C192 1.331 . S
N196 C193 1.329 . S
H197 C191 0.930 . S
C198 O178 1.257 1_455 S
C198 O199 1.244 . S
O199 C198 1.244 . S
O200 C176 1.257 . S
O200 Zn179 2.019 . S
H201 C194 0.930 . S
H202 C181 0.930 . S
H203 C193 0.930 . S
Zn204 N208 2.020 . S
Zn204 O212 2.019 . S
Zn204 N214 2.119 . S
Zn204 O222 1.975 . S
C205 N206 1.334 . S
C205 N209 1.336 . S
N206 C205 1.334 . S
N206 C207 1.334 . S
C207 N206 1.334 . S
C207 N208 1.336 . S
N208 Zn204 2.020 . S
N208 C207 1.336 . S
N208 N209 1.354 . S
N209 C205 1.336 . S
N209 N208 1.354 . S
N209 Zn213 2.020 . S
C210 O211 1.244 . S
C210 O234 1.257 . S
O211 C210 1.244 . S
O212 Zn204 2.019 . S
O212 C232 1.257 . S
Zn213 N209 2.020 . S
Zn213 O220 1.975 . S
Zn213 N229 2.119 . S
Zn213 O234 2.019 . S
N214 Zn204 2.119 . S
N214 C216 1.334 . S
N214 C217 1.328 . S
C215 C216 1.391 . S
C215 N218 1.329 . S
C215 H236 0.930 . S
C216 N214 1.334 . S
C216 C215 1.391 . S
C216 H223 0.930 . S
C217 N214 1.328 . S
C217 C219 1.392 . S
C217 H224 0.930 . S
N218 C215 1.329 . S
N218 C219 1.331 . S
C219 C217 1.392 . S
C219 N218 1.331 . S
O220 Zn213 1.975 . S
O220 C221 1.252 . S
C221 O220 1.252 . S
C221 O222 1.252 . S
O222 Zn204 1.975 . S
O222 C221 1.252 . S
H223 C216 0.930 . S
H224 C217 0.930 . S
C225 C226 1.392 . S
C225 N229 1.328 . S
C225 H231 0.930 . S
C226 C225 1.392 . S
C226 N230 1.331 . S
C227 C228 1.391 . S
C227 N230 1.329 . S
C227 H237 0.930 . S
C228 C227 1.391 . S
C228 N229 1.334 . S
C228 H235 0.930 . S
N229 Zn213 2.119 . S
N229 C225 1.328 . S
N229 C228 1.334 . S
N230 C226 1.331 . S
N230 C227 1.329 . S
H231 C225 0.930 . S
C232 O212 1.257 . S
C232 O233 1.244 . S
O233 C232 1.244 . S
O234 C210 1.257 . S
O234 Zn213 2.019 . S
H235 C228 0.930 . S
H236 C215 0.930 . S
H237 C227 0.930 . S
Zn238 N242 2.020 . S
Zn238 O246 2.019 . S
Zn238 N248 2.119 . S
Zn238 O256 1.975 . S
C239 N240 1.334 . S
C239 N243 1.336 . S
N240 C239 1.334 . S
N240 C241 1.334 . S
C241 N240 1.334 . S
C241 N242 1.336 . S
N242 Zn238 2.020 . S
N242 C241 1.336 . S
N242 N243 1.354 . S
N243 C239 1.336 . S
N243 N242 1.354 . S
N243 Zn247 2.020 . S
C244 O245 1.244 . S
C244 O268 1.257 1_455 S
O245 C244 1.244 . S
O246 Zn238 2.019 . S
O246 C266 1.257 . S
Zn247 N243 2.020 . S
Zn247 O254 1.975 . S
Zn247 N263 2.119 1_455 S
Zn247 O268 2.019 1_455 S
N248 Zn238 2.119 . S
N248 C250 1.334 . S
N248 C251 1.328 . S
C249 C250 1.391 . S
C249 N252 1.329 . S
C249 H270 0.930 . S
C250 N248 1.334 . S
C250 C249 1.391 . S
C250 H257 0.930 . S
C251 N248 1.328 . S
C251 C253 1.392 . S
C251 H258 0.930 . S
N252 C249 1.329 . S
N252 C253 1.331 . S
C253 C251 1.392 . S
C253 N252 1.331 . S
O254 Zn247 1.975 . S
O254 C255 1.252 . S
C255 O254 1.252 . S
C255 O256 1.252 . S
O256 Zn238 1.975 . S
O256 C255 1.252 . S
H257 C250 0.930 . S
H258 C251 0.930 . S
C259 C260 1.392 . S
C259 N263 1.328 . S
C259 H265 0.930 . S
C260 C259 1.392 . S
C260 N264 1.331 . S
C261 C262 1.391 . S
C261 N264 1.329 . S
C261 H271 0.930 . S
C262 C261 1.391 . S
C262 N263 1.334 . S
C262 H269 0.930 . S
N263 Zn247 2.119 1_655 S
N263 C259 1.328 . S
N263 C262 1.334 . S
N264 C260 1.331 . S
N264 C261 1.329 . S
H265 C259 0.930 . S
C266 O246 1.257 . S
C266 O267 1.244 . S
O267 C266 1.244 . S
O268 C244 1.257 1_655 S
O268 Zn247 2.019 1_655 S
H269 C262 0.930 . S
H270 C249 0.930 . S
H271 C261 0.930 . S
C272 C273 1.391 . S
C272 C274 1.394 . S
C272 H288 0.931 . S
C273 C272 1.391 . S
C273 C277 1.376 . S
C274 C272 1.394 . S
C274 C275 1.369 . S
C274 C278 1.531 . S
C275 C274 1.369 . S
C275 C276 1.410 . S
C275 C283 1.503 . S
C276 C275 1.410 . S
C276 C277 1.392 . S
C276 C279 1.511 . S
C277 C273 1.376 . S
C277 C276 1.392 . S
C277 H289 0.929 . S
C278 C274 1.531 . S
C278 H290 0.960 . S
C278 H291 0.962 . S
C278 H292 0.960 . S
C279 C276 1.511 . S
C279 H293 0.961 . S
C279 H294 0.961 . S
C279 H295 0.961 . S
C280 C281 1.370 . S
C280 C282 1.363 . S
C280 H296 0.931 . S
C281 C280 1.370 . S
C281 C285 1.408 . S
C282 C280 1.363 . S
C282 C283 1.370 . S
C282 C286 1.524 . S
C283 C275 1.503 . S
C283 C282 1.370 . S
C283 C284 1.403 . S
C284 C283 1.403 . S
C284 C285 1.404 . S
C284 C287 1.539 . S
C285 C281 1.408 . S
C285 C284 1.404 . S
C285 H297 0.930 . S
C286 C282 1.524 . S
C286 H298 0.956 . S
C286 H299 0.961 . S
C286 H300 0.961 . S
C287 C284 1.539 . S
C287 H301 0.958 . S
C287 H302 0.961 . S
C287 H303 0.960 . S
H288 C272 0.931 . S
H289 C277 0.929 . S
H290 C278 0.960 . S
H291 C278 0.962 . S
H292 C278 0.960 . S
H293 C279 0.961 . S
H294 C279 0.961 . S
H295 C279 0.961 . S
H296 C280 0.931 . S
H297 C285 0.930 . S
H298 C286 0.956 . S
H299 C286 0.961 . S
H300 C286 0.961 . S
H301 C287 0.958 . S
H302 C287 0.961 . S
H303 C287 0.960 . S
C304 C305 1.391 . S
C304 C306 1.394 . S
C304 H320 0.931 . S
C305 C304 1.391 . S
C305 C309 1.376 . S
C306 C304 1.394 . S
C306 C307 1.369 . S
C306 C310 1.531 . S
C307 C306 1.369 . S
C307 C308 1.410 . S
C307 C315 1.503 . S
C308 C307 1.410 . S
C308 C309 1.392 . S
C308 C311 1.511 . S
C309 C305 1.376 . S
C309 C308 1.392 . S
C309 H321 0.929 . S
C310 C306 1.531 . S
C310 H322 0.960 . S
C310 H323 0.962 . S
C310 H324 0.960 . S
C311 C308 1.511 . S
C311 H325 0.961 . S
C311 H326 0.961 . S
C311 H327 0.961 . S
C312 C313 1.370 . S
C312 C314 1.363 . S
C312 H328 0.931 . S
C313 C312 1.370 . S
C313 C317 1.408 . S
C314 C312 1.363 . S
C314 C315 1.370 . S
C314 C318 1.524 . S
C315 C307 1.503 . S
C315 C314 1.370 . S
C315 C316 1.403 . S
C316 C315 1.403 . S
C316 C317 1.404 . S
C316 C319 1.539 . S
C317 C313 1.408 . S
C317 C316 1.404 . S
C317 H329 0.930 . S
C318 C314 1.524 . S
C318 H330 0.956 . S
C318 H331 0.961 . S
C318 H332 0.961 . S
C319 C316 1.539 . S
C319 H333 0.958 . S
C319 H334 0.961 . S
C319 H335 0.960 . S
H320 C304 0.931 . S
H321 C309 0.929 . S
H322 C310 0.960 . S
H323 C310 0.962 . S
H324 C310 0.960 . S
H325 C311 0.961 . S
H326 C311 0.961 . S
H327 C311 0.961 . S
H328 C312 0.931 . S
H329 C317 0.930 . S
H330 C318 0.956 . S
H331 C318 0.961 . S
H332 C318 0.961 . S
H333 C319 0.958 . S
H334 C319 0.961 . S
H335 C319 0.960 . S
C336 C337 1.391 . S
C336 C338 1.394 . S
C336 H352 0.931 . S
C337 C336 1.391 . S
C337 C341 1.376 . S
C338 C336 1.394 . S
C338 C339 1.369 . S
C338 C342 1.531 . S
C339 C338 1.369 . S
C339 C340 1.410 . S
C339 C347 1.503 . S
C340 C339 1.410 . S
C340 C341 1.392 . S
C340 C343 1.511 . S
C341 C337 1.376 . S
C341 C340 1.392 . S
C341 H353 0.929 . S
C342 C338 1.531 . S
C342 H354 0.960 . S
C342 H355 0.962 . S
C342 H356 0.960 . S
C343 C340 1.511 . S
C343 H357 0.961 . S
C343 H358 0.961 . S
C343 H359 0.961 . S
C344 C345 1.370 . S
C344 C346 1.363 . S
C344 H360 0.931 . S
C345 C344 1.370 . S
C345 C349 1.408 . S
C346 C344 1.363 . S
C346 C347 1.370 . S
C346 C350 1.524 . S
C347 C339 1.503 . S
C347 C346 1.370 . S
C347 C348 1.403 . S
C348 C347 1.403 . S
C348 C349 1.404 . S
C348 C351 1.539 . S
C349 C345 1.408 . S
C349 C348 1.404 . S
C349 H361 0.930 . S
C350 C346 1.524 . S
C350 H362 0.956 . S
C350 H363 0.961 . S
C350 H364 0.961 . S
C351 C348 1.539 . S
C351 H365 0.958 . S
C351 H366 0.961 . S
C351 H367 0.960 . S
H352 C336 0.931 . S
H353 C341 0.929 . S
H354 C342 0.960 . S
H355 C342 0.962 . S
H356 C342 0.960 . S
H357 C343 0.961 . S
H358 C343 0.961 . S
H359 C343 0.961 . S
H360 C344 0.931 . S
H361 C349 0.930 . S
H362 C350 0.956 . S
H363 C350 0.961 . S
H364 C350 0.961 . S
H365 C351 0.958 . S
H366 C351 0.961 . S
H367 C351 0.960 . S
C368 C369 1.391 . S
C368 C370 1.394 . S
C368 H384 0.931 . S
C369 C368 1.391 . S
C369 C373 1.376 . S
C370 C368 1.394 . S
C370 C371 1.369 . S
C370 C374 1.531 . S
C371 C370 1.369 . S
C371 C372 1.410 . S
C371 C379 1.503 . S
C372 C371 1.410 . S
C372 C373 1.392 . S
C372 C375 1.511 . S
C373 C369 1.376 . S
C373 C372 1.392 . S
C373 H385 0.929 . S
C374 C370 1.531 . S
C374 H386 0.960 . S
C374 H387 0.962 . S
C374 H388 0.960 . S
C375 C372 1.511 . S
C375 H389 0.961 . S
C375 H390 0.961 . S
C375 H391 0.961 . S
C376 C377 1.370 . S
C376 C378 1.363 . S
C376 H392 0.931 . S
C377 C376 1.370 . S
C377 C381 1.408 . S
C378 C376 1.363 . S
C378 C379 1.370 . S
C378 C382 1.524 . S
C379 C371 1.503 . S
C379 C378 1.370 . S
C379 C380 1.403 . S
C380 C379 1.403 . S
C380 C381 1.404 . S
C380 C383 1.539 . S
C381 C377 1.408 . S
C381 C380 1.404 . S
C381 H393 0.930 . S
C382 C378 1.524 . S
C382 H394 0.956 . S
C382 H395 0.961 . S
C382 H396 0.961 . S
C383 C380 1.539 . S
C383 H397 0.958 . S
C383 H398 0.961 . S
C383 H399 0.960 . S
H384 C368 0.931 . S
H385 C373 0.929 . S
H386 C374 0.960 . S
H387 C374 0.962 . S
H388 C374 0.960 . S
H389 C375 0.961 . S
H390 C375 0.961 . S
H391 C375 0.961 . S
H392 C376 0.931 . S
H393 C381 0.930 . S
H394 C382 0.956 . S
H395 C382 0.961 . S
H396 C382 0.961 . S
H397 C383 0.958 . S
H398 C383 0.961 . S
H399 C383 0.960 . S
C400 C401 1.391 . S
C400 C402 1.394 . S
C400 H416 0.931 . S
C401 C400 1.391 . S
C401 C405 1.376 . S
C402 C400 1.394 . S
C402 C403 1.369 . S
C402 C406 1.531 . S
C403 C402 1.369 . S
C403 C404 1.410 . S
C403 C411 1.503 . S
C404 C403 1.410 . S
C404 C405 1.392 . S
C404 C407 1.511 . S
C405 C401 1.376 . S
C405 C404 1.392 . S
C405 H417 0.929 . S
C406 C402 1.531 . S
C406 H418 0.960 . S
C406 H419 0.962 . S
C406 H420 0.960 . S
C407 C404 1.511 . S
C407 H421 0.961 . S
C407 H422 0.961 . S
C407 H423 0.961 . S
C408 C409 1.370 . S
C408 C410 1.363 . S
C408 H424 0.931 . S
C409 C408 1.370 . S
C409 C413 1.408 . S
C410 C408 1.363 . S
C410 C411 1.370 . S
C410 C414 1.524 . S
C411 C403 1.503 . S
C411 C410 1.370 . S
C411 C412 1.403 . S
C412 C411 1.403 . S
C412 C413 1.404 . S
C412 C415 1.539 . S
C413 C409 1.408 . S
C413 C412 1.404 . S
C413 H425 0.930 . S
C414 C410 1.524 . S
C414 H426 0.956 . S
C414 H427 0.961 . S
C414 H428 0.961 . S
C415 C412 1.539 . S
C415 H429 0.958 . S
C415 H430 0.961 . S
C415 H431 0.960 . S
H416 C400 0.931 . S
H417 C405 0.929 . S
H418 C406 0.960 . S
H419 C406 0.962 . S
H420 C406 0.960 . S
H421 C407 0.961 . S
H422 C407 0.961 . S
H423 C407 0.961 . S
H424 C408 0.931 . S
H425 C413 0.930 . S
H426 C414 0.956 . S
H427 C414 0.961 . S
H428 C414 0.961 . S
H429 C415 0.958 . S
H430 C415 0.961 . S
H431 C415 0.960 . S
C432 C433 1.391 . S
C432 C434 1.394 . S
C432 H448 0.931 . S
C433 C432 1.391 . S
C433 C437 1.376 . S
C434 C432 1.394 . S
C434 C435 1.369 . S
C434 C438 1.531 . S
C435 C434 1.369 . S
C435 C436 1.410 . S
C435 C443 1.503 . S
C436 C435 1.410 . S
C436 C437 1.392 . S
C436 C439 1.511 . S
C437 C433 1.376 . S
C437 C436 1.392 . S
C437 H449 0.929 . S
C438 C434 1.531 . S
C438 H450 0.960 . S
C438 H451 0.962 . S
C438 H452 0.960 . S
C439 C436 1.511 . S
C439 H453 0.961 . S
C439 H454 0.961 . S
C439 H455 0.961 . S
C440 C441 1.370 . S
C440 C442 1.363 . S
C440 H456 0.931 . S
C441 C440 1.370 . S
C441 C445 1.408 . S
C442 C440 1.363 . S
C442 C443 1.370 . S
C442 C446 1.524 . S
C443 C435 1.503 . S
C443 C442 1.370 . S
C443 C444 1.403 . S
C444 C443 1.403 . S
C444 C445 1.404 . S
C444 C447 1.539 . S
C445 C441 1.408 . S
C445 C444 1.404 . S
C445 H457 0.930 . S
C446 C442 1.524 . S
C446 H458 0.956 . S
C446 H459 0.961 . S
C446 H460 0.961 . S
C447 C444 1.539 . S
C447 H461 0.958 . S
C447 H462 0.961 . S
C447 H463 0.960 . S
H448 C432 0.931 . S
H449 C437 0.929 . S
H450 C438 0.960 . S
H451 C438 0.962 . S
H452 C438 0.960 . S
H453 C439 0.961 . S
H454 C439 0.961 . S
H455 C439 0.961 . S
H456 C440 0.931 . S
H457 C445 0.930 . S
H458 C446 0.956 . S
H459 C446 0.961 . S
H460 C446 0.961 . S
H461 C447 0.958 . S
H462 C447 0.961 . S
H463 C447 0.960 . S
C464 C465 1.391 . S
C464 C466 1.394 . S
C464 H480 0.931 . S
C465 C464 1.391 . S
C465 C469 1.376 . S
C466 C464 1.394 . S
C466 C467 1.369 . S
C466 C470 1.531 . S
C467 C466 1.369 . S
C467 C468 1.410 . S
C467 C475 1.503 . S
C468 C467 1.410 . S
C468 C469 1.392 . S
C468 C471 1.511 . S
C469 C465 1.376 . S
C469 C468 1.392 . S
C469 H481 0.929 . S
C470 C466 1.531 . S
C470 H482 0.960 . S
C470 H483 0.962 . S
C470 H484 0.960 . S
C471 C468 1.511 . S
C471 H485 0.961 . S
C471 H486 0.961 . S
C471 H487 0.961 . S
C472 C473 1.370 . S
C472 C474 1.363 . S
C472 H488 0.931 . S
C473 C472 1.370 . S
C473 C477 1.408 . S
C474 C472 1.363 . S
C474 C475 1.370 . S
C474 C478 1.524 . S
C475 C467 1.503 . S
C475 C474 1.370 . S
C475 C476 1.403 . S
C476 C475 1.403 . S
C476 C477 1.404 . S
C476 C479 1.539 . S
C477 C473 1.408 . S
C477 C476 1.404 . S
C477 H489 0.930 . S
C478 C474 1.524 . S
C478 H490 0.956 . S
C478 H491 0.961 . S
C478 H492 0.961 . S
C479 C476 1.539 . S
C479 H493 0.958 . S
C479 H494 0.961 . S
C479 H495 0.960 . S
H480 C464 0.931 . S
H481 C469 0.929 . S
H482 C470 0.960 . S
H483 C470 0.962 . S
H484 C470 0.960 . S
H485 C471 0.961 . S
H486 C471 0.961 . S
H487 C471 0.961 . S
H488 C472 0.931 . S
H489 C477 0.930 . S
H490 C478 0.956 . S
H491 C478 0.961 . S
H492 C478 0.961 . S
H493 C479 0.958 . S
H494 C479 0.961 . S
H495 C479 0.960 . S
C496 C497 1.391 . S
C496 C498 1.394 . S
C496 H512 0.931 . S
C497 C496 1.391 . S
C497 C501 1.376 . S
C498 C496 1.394 . S
C498 C499 1.369 . S
C498 C502 1.531 . S
C499 C498 1.369 . S
C499 C500 1.410 . S
C499 C507 1.503 . S
C500 C499 1.410 . S
C500 C501 1.392 . S
C500 C503 1.511 . S
C501 C497 1.376 . S
C501 C500 1.392 . S
C501 H513 0.929 . S
C502 C498 1.531 . S
C502 H514 0.960 . S
C502 H515 0.962 . S
C502 H516 0.960 . S
C503 C500 1.511 . S
C503 H517 0.961 . S
C503 H518 0.961 . S
C503 H519 0.961 . S
C504 C505 1.370 . S
C504 C506 1.363 . S
C504 H520 0.931 . S
C505 C504 1.370 . S
C505 C509 1.408 . S
C506 C504 1.363 . S
C506 C507 1.370 . S
C506 C510 1.524 . S
C507 C499 1.503 . S
C507 C506 1.370 . S
C507 C508 1.403 . S
C508 C507 1.403 . S
C508 C509 1.404 . S
C508 C511 1.539 . S
C509 C505 1.408 . S
C509 C508 1.404 . S
C509 H521 0.930 . S
C510 C506 1.524 . S
C510 H522 0.956 . S
C510 H523 0.961 . S
C510 H524 0.961 . S
C511 C508 1.539 . S
C511 H525 0.958 . S
C511 H526 0.961 . S
C511 H527 0.960 . S
H512 C496 0.931 . S
H513 C501 0.929 . S
H514 C502 0.960 . S
H515 C502 0.962 . S
H516 C502 0.960 . S
H517 C503 0.961 . S
H518 C503 0.961 . S
H519 C503 0.961 . S
H520 C504 0.931 . S
H521 C509 0.930 . S
H522 C510 0.956 . S
H523 C510 0.961 . S
H524 C510 0.961 . S
H525 C511 0.958 . S
H526 C511 0.961 . S
H527 C511 0.960 . S
C528 C529 1.391 . S
C528 C530 1.394 . S
C528 H544 0.931 . S
C529 C528 1.391 . S
C529 C533 1.376 . S
C530 C528 1.394 . S
C530 C531 1.369 . S
C530 C534 1.530 1_455 S
C531 C530 1.369 . S
C531 C532 1.410 . S
C531 C539 1.503 . S
C532 C531 1.410 . S
C532 C533 1.392 . S
C532 C535 1.511 . S
C533 C529 1.376 . S
C533 C532 1.392 . S
C533 H545 0.929 . S
C534 C530 1.530 1_655 S
C534 H546 0.960 1_655 S
C534 H547 0.962 . S
C534 H548 0.961 . S
C535 C532 1.511 . S
C535 H549 0.961 . S
C535 H550 0.961 . S
C535 H551 0.961 . S
C536 C537 1.370 . S
C536 C538 1.363 . S
C536 H552 0.931 . S
C537 C536 1.370 . S
C537 C541 1.408 . S
C538 C536 1.363 . S
C538 C539 1.370 . S
C538 C542 1.524 . S
C539 C531 1.503 . S
C539 C538 1.370 . S
C539 C540 1.403 . S
C540 C539 1.403 . S
C540 C541 1.404 . S
C540 C543 1.539 . S
C541 C537 1.408 . S
C541 C540 1.404 . S
C541 H553 0.930 . S
C542 C538 1.524 . S
C542 H554 0.956 . S
C542 H555 0.961 . S
C542 H556 0.961 . S
C543 C540 1.539 . S
C543 H557 0.958 . S
C543 H558 0.961 . S
C543 H559 0.960 . S
H544 C528 0.931 . S
H545 C533 0.929 . S
H546 C534 0.960 1_455 S
H547 C534 0.962 . S
H548 C534 0.961 . S
H549 C535 0.961 . S
H550 C535 0.961 . S
H551 C535 0.961 . S
H552 C536 0.931 . S
H553 C541 0.930 . S
H554 C542 0.956 . S
H555 C542 0.961 . S
H556 C542 0.961 . S
H557 C543 0.958 . S
H558 C543 0.961 . S
H559 C543 0.960 . S
C560 C561 1.391 . S
C560 C562 1.394 . S
C560 H576 0.931 . S
C561 C560 1.391 . S
C561 C565 1.376 . S
C562 C560 1.394 . S
C562 C563 1.369 . S
C562 C566 1.531 . S
C563 C562 1.369 . S
C563 C564 1.410 . S
C563 C571 1.503 . S
C564 C563 1.410 . S
C564 C565 1.392 . S
C564 C567 1.511 . S
C565 C561 1.376 . S
C565 C564 1.392 . S
C565 H577 0.929 . S
C566 C562 1.531 . S
C566 H578 0.960 . S
C566 H579 0.962 . S
C566 H580 0.960 . S
C567 C564 1.511 . S
C567 H581 0.961 . S
C567 H582 0.961 . S
C567 H583 0.961 . S
C568 C569 1.370 . S
C568 C570 1.363 . S
C568 H584 0.931 . S
C569 C568 1.370 . S
C569 C573 1.408 . S
C570 C568 1.363 . S
C570 C571 1.370 . S
C570 C574 1.524 . S
C571 C563 1.503 . S
C571 C570 1.370 . S
C571 C572 1.403 . S
C572 C571 1.403 . S
C572 C573 1.404 . S
C572 C575 1.539 . S
C573 C569 1.408 . S
C573 C572 1.404 . S
C573 H585 0.930 . S
C574 C570 1.524 . S
C574 H586 0.956 . S
C574 H587 0.961 . S
C574 H588 0.961 . S
C575 C572 1.539 . S
C575 H589 0.958 . S
C575 H590 0.961 . S
C575 H591 0.960 . S
H576 C560 0.931 . S
H577 C565 0.929 . S
H578 C566 0.960 . S
H579 C566 0.962 . S
H580 C566 0.960 . S
H581 C567 0.961 . S
H582 C567 0.961 . S
H583 C567 0.961 . S
H584 C568 0.931 . S
H585 C573 0.930 . S
H586 C574 0.956 . S
H587 C574 0.961 . S
H588 C574 0.961 . S
H589 C575 0.958 . S
H590 C575 0.961 . S
H591 C575 0.960 . S
C592 C593 1.391 . S
C592 C594 1.394 . S
C592 H608 0.931 . S
C593 C592 1.391 . S
C593 C597 1.376 . S
C594 C592 1.394 . S
C594 C595 1.369 . S
C594 C598 1.531 1_455 S
C595 C594 1.369 . S
C595 C596 1.410 . S
C595 C603 1.503 . S
C596 C595 1.410 . S
C596 C597 1.392 . S
C596 C599 1.511 . S
C597 C593 1.376 . S
C597 C596 1.392 . S
C597 H609 0.929 . S
C598 C594 1.531 1_655 S
C598 H610 0.960 . S
C598 H611 0.962 . S
C598 H612 0.960 . S
C599 C596 1.511 . S
C599 H613 0.961 . S
C599 H614 0.961 . S
C599 H615 0.961 . S
C600 C601 1.370 . S
C600 C602 1.363 . S
C600 H616 0.931 . S
C601 C600 1.370 . S
C601 C605 1.408 . S
C602 C600 1.363 . S
C602 C603 1.370 . S
C602 C606 1.524 . S
C603 C595 1.503 . S
C603 C602 1.370 . S
C603 C604 1.403 . S
C604 C603 1.403 . S
C604 C605 1.404 . S
C604 C607 1.539 . S
C605 C601 1.408 . S
C605 C604 1.404 . S
C605 H617 0.930 . S
C606 C602 1.524 . S
C606 H618 0.956 . S
C606 H619 0.961 . S
C606 H620 0.961 . S
C607 C604 1.539 . S
C607 H621 0.958 . S
C607 H622 0.961 . S
C607 H623 0.960 . S
H608 C592 0.931 . S
H609 C597 0.929 . S
H610 C598 0.960 . S
H611 C598 0.962 . S
H612 C598 0.960 . S
H613 C599 0.961 . S
H614 C599 0.961 . S
H615 C599 0.961 . S
H616 C600 0.931 . S
H617 C605 0.930 . S
H618 C606 0.956 . S
H619 C606 0.961 . S
H620 C606 0.961 . S
H621 C607 0.958 . S
H622 C607 0.961 . S
H623 C607 0.960 . S
C624 C625 1.391 . S
C624 C626 1.394 . S
C624 H640 0.931 . S
C625 C624 1.391 . S
C625 C629 1.376 . S
C626 C624 1.394 . S
C626 C627 1.369 . S
C626 C630 1.531 . S
C627 C626 1.369 . S
C627 C628 1.410 . S
C627 C635 1.503 . S
C628 C627 1.410 . S
C628 C629 1.392 . S
C628 C631 1.511 . S
C629 C625 1.376 . S
C629 C628 1.392 . S
C629 H641 0.929 . S
C630 C626 1.531 . S
C630 H642 0.960 . S
C630 H643 0.962 . S
C630 H644 0.960 . S
C631 C628 1.511 . S
C631 H645 0.961 . S
C631 H646 0.961 . S
C631 H647 0.961 . S
C632 C633 1.370 . S
C632 C634 1.363 . S
C632 H648 0.931 . S
C633 C632 1.370 . S
C633 C637 1.408 . S
C634 C632 1.363 . S
C634 C635 1.370 . S
C634 C638 1.524 . S
C635 C627 1.503 . S
C635 C634 1.370 . S
C635 C636 1.403 . S
C636 C635 1.403 . S
C636 C637 1.404 . S
C636 C639 1.539 . S
C637 C633 1.408 . S
C637 C636 1.404 . S
C637 H649 0.930 . S
C638 C634 1.524 . S
C638 H650 0.956 . S
C638 H651 0.961 . S
C638 H652 0.961 . S
C639 C636 1.539 . S
C639 H653 0.958 . S
C639 H654 0.961 . S
C639 H655 0.960 . S
H640 C624 0.931 . S
H641 C629 0.929 . S
H642 C630 0.960 . S
H643 C630 0.962 . S
H644 C630 0.960 . S
H645 C631 0.961 . S
H646 C631 0.961 . S
H647 C631 0.961 . S
H648 C632 0.931 . S
H649 C637 0.930 . S
H650 C638 0.956 . S
H651 C638 0.961 . S
H652 C638 0.961 . S
H653 C639 0.958 . S
H654 C639 0.961 . S
H655 C639 0.960 . S
C656 C657 1.391 1_545 S
C656 C658 1.394 . S
C656 H672 0.931 1_545 S
C657 C656 1.391 1_565 S
C657 C661 1.376 . S
C658 C656 1.394 . S
C658 C659 1.369 . S
C658 C662 1.531 . S
C659 C658 1.369 . S
C659 C660 1.410 . S
C659 C667 1.503 . S
C660 C659 1.410 . S
C660 C661 1.392 1_545 S
C660 C663 1.511 . S
C661 C657 1.376 . S
C661 C660 1.392 1_565 S
C661 H673 0.929 . S
C662 C658 1.531 . S
C662 H674 0.960 . S
C662 H675 0.962 . S
C662 H676 0.960 . S
C663 C660 1.511 . S
C663 H677 0.961 . S
C663 H678 0.961 . S
C663 H679 0.961 . S
C664 C665 1.370 . S
C664 C666 1.363 . S
C664 H680 0.931 . S
C665 C664 1.370 . S
C665 C669 1.408 . S
C666 C664 1.363 . S
C666 C667 1.370 . S
C666 C670 1.524 . S
C667 C659 1.503 . S
C667 C666 1.370 . S
C667 C668 1.403 . S
C668 C667 1.403 . S
C668 C669 1.404 . S
C668 C671 1.539 . S
C669 C665 1.408 . S
C669 C668 1.404 . S
C669 H681 0.930 . S
C670 C666 1.524 . S
C670 H682 0.956 . S
C670 H683 0.961 . S
C670 H684 0.961 . S
C671 C668 1.539 . S
C671 H685 0.958 . S
C671 H686 0.961 . S
C671 H687 0.960 . S
H672 C656 0.931 1_565 S
H673 C661 0.929 . S
H674 C662 0.960 . S
H675 C662 0.962 . S
H676 C662 0.960 . S
H677 C663 0.961 . S
H678 C663 0.961 . S
H679 C663 0.961 . S
H680 C664 0.931 . S
H681 C669 0.930 . S
H682 C670 0.956 . S
H683 C670 0.961 . S
H684 C670 0.961 . S
H685 C671 0.958 . S
H686 C671 0.961 . S
H687 C671 0.960 . S
C688 C689 1.391 1_655 S
C688 C690 1.394 . S
C688 H704 0.931 . S
C689 C688 1.391 1_455 S
C689 C693 1.376 . S
C690 C688 1.394 . S
C690 C691 1.369 1_655 S
C690 C694 1.531 . S
C691 C690 1.369 1_455 S
C691 C692 1.410 . S
C691 C699 1.503 . S
C692 C691 1.410 . S
C692 C693 1.392 . S
C692 C695 1.511 . S
C693 C689 1.376 . S
C693 C692 1.392 . S
C693 H705 0.929 . S
C694 C690 1.531 . S
C694 H706 0.960 . S
C694 H707 0.962 . S
C694 H708 0.960 . S
C695 C692 1.511 . S
C695 H709 0.961 . S
C695 H710 0.961 . S
C695 H711 0.961 . S
C696 C697 1.370 1_565 S
C696 C698 1.363 . S
C696 H712 0.931 . S
C697 C696 1.370 1_545 S
C697 C701 1.408 . S
C698 C696 1.363 . S
C698 C699 1.370 . S
C698 C702 1.524 . S
C699 C691 1.503 . S
C699 C698 1.370 . S
C699 C700 1.403 . S
C700 C699 1.403 . S
C700 C701 1.404 1_565 S
C700 C703 1.539 . S
C701 C697 1.408 . S
C701 C700 1.404 1_545 S
C701 H713 0.930 . S
C702 C698 1.524 . S
C702 H714 0.956 1_455 S
C702 H715 0.961 . S
C702 H716 0.961 . S
C703 C700 1.539 . S
C703 H717 0.958 . S
C703 H718 0.961 . S
C703 H719 0.960 . S
H704 C688 0.931 . S
H705 C693 0.929 . S
H706 C694 0.960 . S
H707 C694 0.962 . S
H708 C694 0.960 . S
H709 C695 0.961 . S
H710 C695 0.961 . S
H711 C695 0.961 . S
H712 C696 0.931 . S
H713 C701 0.930 . S
H714 C702 0.956 1_655 S
H715 C702 0.961 . S
H716 C702 0.961 . S
H717 C703 0.958 . S
H718 C703 0.961 . S
H719 C703 0.960 . S
C720 C721 1.391 . S
C720 C722 1.394 . S
C720 H736 0.931 . S
C721 C720 1.391 . S
C721 C725 1.376 . S
C722 C720 1.394 . S
C722 C723 1.369 . S
C722 C726 1.531 . S
C723 C722 1.369 . S
C723 C724 1.410 . S
C723 C731 1.503 . S
C724 C723 1.410 . S
C724 C725 1.392 . S
C724 C727 1.511 . S
C725 C721 1.376 . S
C725 C724 1.392 . S
C725 H737 0.929 . S
C726 C722 1.531 . S
C726 H738 0.960 . S
C726 H739 0.962 . S
C726 H740 0.960 . S
C727 C724 1.511 . S
C727 H741 0.961 . S
C727 H742 0.961 . S
C727 H743 0.961 . S
C728 C729 1.370 1_565 S
C728 C730 1.363 . S
C728 H744 0.931 . S
C729 C728 1.370 1_545 S
C729 C733 1.408 . S
C730 C728 1.363 . S
C730 C731 1.370 . S
C730 C734 1.524 . S
C731 C723 1.503 . S
C731 C730 1.370 . S
C731 C732 1.403 . S
C732 C731 1.403 . S
C732 C733 1.404 1_565 S
C732 C735 1.539 . S
C733 C729 1.408 . S
C733 C732 1.404 1_545 S
C733 H745 0.930 . S
C734 C730 1.524 . S
C734 H746 0.956 . S
C734 H747 0.961 . S
C734 H748 0.961 . S
C735 C732 1.539 . S
C735 H749 0.958 . S
C735 H750 0.961 . S
C735 H751 0.960 . S
H736 C720 0.931 . S
H737 C725 0.929 . S
H738 C726 0.960 . S
H739 C726 0.962 . S
H740 C726 0.960 . S
H741 C727 0.961 . S
H742 C727 0.961 . S
H743 C727 0.961 . S
H744 C728 0.931 . S
H745 C733 0.930 . S
H746 C734 0.956 . S
H747 C734 0.961 . S
H748 C734 0.961 . S
H749 C735 0.958 . S
H750 C735 0.961 . S
H751 C735 0.960 . S
C752 C753 1.391 . S
C752 C754 1.394 . S
C752 H768 0.931 . S
C753 C752 1.391 . S
C753 C757 1.376 . S
C754 C752 1.394 . S
C754 C755 1.369 . S
C754 C758 1.531 . S
C755 C754 1.369 . S
C755 C756 1.414 . S
C755 C763 1.503 . S
C756 C755 1.414 . S
C756 C757 1.394 . S
C756 C759 1.506 1_455 S
C757 C753 1.376 . S
C757 C756 1.394 . S
C757 H769 0.929 1_455 S
C758 C754 1.531 . S
C758 H770 0.960 . S
C758 H771 0.962 . S
C758 H772 0.960 . S
C759 C756 1.506 1_655 S
C759 H773 0.961 . S
C759 H774 0.961 . S
C759 H775 0.961 . S
C760 C761 1.370 . S
C760 C762 1.363 1_565 S
C760 H776 0.931 . S
C761 C760 1.370 . S
C761 C765 1.408 1_465 S
C762 C760 1.363 1_545 S
C762 C763 1.370 . S
C762 C766 1.524 . S
C763 C755 1.503 . S
C763 C762 1.370 . S
C763 C764 1.403 1_455 S
C764 C763 1.403 1_655 S
C764 C765 1.404 . S
C764 C767 1.539 . S
C765 C761 1.408 1_645 S
C765 C764 1.404 . S
C765 H777 0.930 1_545 S
C766 C762 1.524 . S
C766 H778 0.956 . S
C766 H779 0.961 . S
C766 H780 0.961 . S
C767 C764 1.539 . S
C767 H781 0.958 . S
C767 H782 0.961 . S
C767 H783 0.960 . S
H768 C752 0.931 . S
H769 C757 0.929 1_655 S
H770 C758 0.960 . S
H771 C758 0.962 . S
H772 C758 0.960 . S
H773 C759 0.961 . S
H774 C759 0.961 . S
H775 C759 0.961 . S
H776 C760 0.931 . S
H777 C765 0.930 1_565 S
H778 C766 0.956 . S
H779 C766 0.961 . S
H780 C766 0.961 . S
H781 C767 0.958 . S
H782 C767 0.961 . S
H783 C767 0.960 . S
C784 C785 1.391 . S
C784 C786 1.394 . S
C784 H800 0.931 . S
C785 C784 1.391 . S
C785 C789 1.376 . S
C786 C784 1.394 . S
C786 C787 1.369 1_554 S
C786 C790 1.531 . S
C787 C786 1.369 1_556 S
C787 C788 1.429 . S
C787 C795 1.503 . S
C788 C787 1.429 . S
C788 C789 1.394 1_556 S
C788 C791 1.491 1_455 S
C789 C785 1.376 . S
C789 C788 1.394 1_554 S
C789 H801 0.929 1_455 S
C790 C786 1.531 . S
C790 H802 0.960 1_554 S
C790 H803 0.962 1_554 S
C790 H804 0.960 . S
C791 C788 1.491 1_655 S
C791 H805 0.961 . S
C791 H806 0.961 . S
C791 H807 0.961 . S
C792 C793 1.370 . S
C792 C794 1.363 . S
C792 H808 0.931 . S
C793 C792 1.370 . S
C793 C797 1.408 . S
C794 C792 1.363 . S
C794 C795 1.370 . S
C794 C798 1.524 . S
C795 C787 1.503 . S
C795 C794 1.370 . S
C795 C796 1.403 . S
C796 C795 1.403 . S
C796 C797 1.404 . S
C796 C799 1.539 1_455 S
C797 C793 1.408 . S
C797 C796 1.404 . S
C797 H809 0.930 1_455 S
C798 C794 1.524 . S
C798 H810 0.956 . S
C798 H811 0.961 . S
C798 H812 0.961 . S
C799 C796 1.539 1_655 S
C799 H813 0.958 . S
C799 H814 0.961 . S
C799 H815 0.960 . S
H800 C784 0.931 . S
H801 C789 0.929 1_655 S
H802 C790 0.960 1_556 S
H803 C790 0.962 1_556 S
H804 C790 0.960 . S
H805 C791 0.961 . S
H806 C791 0.961 . S
H807 C791 0.961 . S
H808 C792 0.931 . S
H809 C797 0.930 1_655 S
H810 C798 0.956 . S
H811 C798 0.961 . S
H812 C798 0.961 . S
H813 C799 0.958 . S
H814 C799 0.961 . S
H815 C799 0.960 . S
C816 C817 1.391 . S
C816 C818 1.394 . S
C816 H832 0.931 . S
C817 C816 1.391 . S
C817 C821 1.376 . S
C818 C816 1.394 . S
C818 C819 1.369 . S
C818 C822 1.531 . S
C819 C818 1.369 . S
C819 C820 1.410 . S
C819 C827 1.503 . S
C820 C819 1.410 . S
C820 C821 1.392 . S
C820 C823 1.511 . S
C821 C817 1.376 . S
C821 C820 1.392 . S
C821 H833 0.929 . S
C822 C818 1.531 . S
C822 H834 0.960 . S
C822 H835 0.962 . S
C822 H836 0.960 . S
C823 C820 1.511 . S
C823 H837 0.961 . S
C823 H838 0.961 . S
C823 H839 0.961 . S
C824 C825 1.370 . S
C824 C826 1.363 . S
C824 H840 0.931 . S
C825 C824 1.370 . S
C825 C829 1.408 . S
C826 C824 1.363 . S
C826 C827 1.370 . S
C826 C830 1.524 . S
C827 C819 1.503 . S
C827 C826 1.370 . S
C827 C828 1.403 . S
C828 C827 1.403 . S
C828 C829 1.404 . S
C828 C831 1.539 . S
C829 C825 1.408 . S
C829 C828 1.404 . S
C829 H841 0.930 . S
C830 C826 1.524 . S
C830 H842 0.956 . S
C830 H843 0.961 . S
C830 H844 0.961 . S
C831 C828 1.539 . S
C831 H845 0.958 . S
C831 H846 0.961 . S
C831 H847 0.960 . S
H832 C816 0.931 . S
H833 C821 0.929 . S
H834 C822 0.960 . S
H835 C822 0.962 . S
H836 C822 0.960 . S
H837 C823 0.961 . S
H838 C823 0.961 . S
H839 C823 0.961 . S
H840 C824 0.931 . S
H841 C829 0.930 . S
H842 C830 0.956 . S
H843 C830 0.961 . S
H844 C830 0.961 . S
H845 C831 0.958 . S
H846 C831 0.961 . S
H847 C831 0.960 . S
C848 C849 1.391 . S
C848 C850 1.394 . S
C848 H864 0.931 . S
C849 C848 1.391 . S
C849 C853 1.348 1_455 S
C850 C848 1.394 . S
C850 C851 1.369 . S
C850 C854 1.531 . S
C851 C850 1.369 . S
C851 C852 1.410 1_455 S
C851 C859 1.503 . S
C852 C851 1.410 1_655 S
C852 C853 1.395 . S
C852 C855 1.511 . S
C853 C849 1.348 1_655 S
C853 C852 1.395 . S
C853 H865 0.955 . S
C854 C850 1.531 . S
C854 H866 0.960 . S
C854 H867 0.962 . S
C854 H868 0.960 . S
C855 C852 1.511 . S
C855 H869 0.961 . S
C855 H870 0.961 . S
C855 H871 0.961 . S
C856 C857 1.370 . S
C856 C858 1.363 . S
C856 H872 0.931 . S
C857 C856 1.370 . S
C857 C861 1.408 . S
C858 C856 1.363 . S
C858 C859 1.370 1_556 S
C858 C862 1.524 . S
C859 C851 1.503 . S
C859 C858 1.370 1_554 S
C859 C860 1.403 . S
C860 C859 1.403 . S
C860 C861 1.404 1_554 S
C860 C863 1.540 1_455 S
C861 C857 1.408 . S
C861 C860 1.404 1_556 S
C861 H873 0.930 . S
C862 C858 1.524 . S
C862 H874 0.956 1_556 S
C862 H875 0.961 1_556 S
C862 H876 0.961 . S
C863 C860 1.540 1_655 S
C863 H877 0.960 1_655 S
C863 H878 0.959 . S
C863 H879 0.958 . S
H864 C848 0.931 . S
H865 C853 0.955 . S
H866 C854 0.960 . S
H867 C854 0.962 . S
H868 C854 0.960 . S
H869 C855 0.961 . S
H870 C855 0.961 . S
H871 C855 0.961 . S
H872 C856 0.931 . S
H873 C861 0.930 . S
H874 C862 0.956 1_554 S
H875 C862 0.961 1_554 S
H876 C862 0.961 . S
H877 C863 0.960 1_455 S
H878 C863 0.959 . S
H879 C863 0.958 . S
C880 C881 1.391 . S
C880 C882 1.394 . S
C880 H896 0.931 . S
C881 C880 1.391 . S
C881 C885 1.376 . S
C882 C880 1.394 . S
C882 C883 1.369 . S
C882 C886 1.531 . S
C883 C882 1.369 . S
C883 C884 1.410 . S
C883 C891 1.503 . S
C884 C883 1.410 . S
C884 C885 1.392 . S
C884 C887 1.511 . S
C885 C881 1.376 . S
C885 C884 1.392 . S
C885 H897 0.929 . S
C886 C882 1.531 . S
C886 H898 0.960 . S
C886 H899 0.962 . S
C886 H900 0.960 . S
C887 C884 1.511 . S
C887 H901 0.961 . S
C887 H902 0.961 . S
C887 H903 0.961 . S
C888 C889 1.370 . S
C888 C890 1.363 . S
C888 H904 0.931 . S
C889 C888 1.370 . S
C889 C893 1.408 . S
C890 C888 1.363 . S
C890 C891 1.370 . S
C890 C894 1.524 . S
C891 C883 1.503 . S
C891 C890 1.370 . S
C891 C892 1.403 . S
C892 C891 1.403 . S
C892 C893 1.404 . S
C892 C895 1.539 . S
C893 C889 1.408 . S
C893 C892 1.404 . S
C893 H905 0.930 . S
C894 C890 1.524 . S
C894 H906 0.956 . S
C894 H907 0.961 . S
C894 H908 0.961 . S
C895 C892 1.539 . S
C895 H909 0.958 . S
C895 H910 0.961 . S
C895 H911 0.960 . S
H896 C880 0.931 . S
H897 C885 0.929 . S
H898 C886 0.960 . S
H899 C886 0.962 . S
H900 C886 0.960 . S
H901 C887 0.961 . S
H902 C887 0.961 . S
H903 C887 0.961 . S
H904 C888 0.931 . S
H905 C893 0.930 . S
H906 C894 0.956 . S
H907 C894 0.961 . S
H908 C894 0.961 . S
H909 C895 0.958 . S
H910 C895 0.961 . S
H911 C895 0.960 . S
C912 C913 1.391 . S
C912 C914 1.394 . S
C912 H928 0.931 . S
C913 C912 1.391 . S
C913 C917 1.376 . S
C914 C912 1.394 . S
C914 C915 1.369 1_554 S
C914 C918 1.531 . S
C915 C914 1.369 1_556 S
C915 C916 1.410 . S
C915 C923 1.503 . S
C916 C915 1.410 . S
C916 C917 1.392 1_556 S
C916 C919 1.511 . S
C917 C913 1.376 . S
C917 C916 1.392 1_554 S
C917 H929 0.929 . S
C918 C914 1.531 . S
C918 H930 0.960 1_554 S
C918 H931 0.962 1_554 S
C918 H932 0.960 . S
C919 C916 1.511 . S
C919 H933 0.961 . S
C919 H934 0.961 . S
C919 H935 0.961 . S
C920 C921 1.370 . S
C920 C922 1.363 . S
C920 H936 0.931 . S
C921 C920 1.370 . S
C921 C925 1.408 . S
C922 C920 1.363 . S
C922 C923 1.370 . S
C922 C926 1.524 . S
C923 C915 1.503 . S
C923 C922 1.370 . S
C923 C924 1.403 . S
C924 C923 1.403 . S
C924 C925 1.404 . S
C924 C927 1.539 . S
C925 C921 1.408 . S
C925 C924 1.404 . S
C925 H937 0.930 . S
C926 C922 1.524 . S
C926 H938 0.956 . S
C926 H939 0.961 . S
C926 H940 0.961 . S
C927 C924 1.539 . S
C927 H941 0.958 . S
C927 H942 0.961 . S
C927 H943 0.960 . S
H928 C912 0.931 . S
H929 C917 0.929 . S
H930 C918 0.960 1_556 S
H931 C918 0.962 1_556 S
H932 C918 0.960 . S
H933 C919 0.961 . S
H934 C919 0.961 . S
H935 C919 0.961 . S
H936 C920 0.931 . S
H937 C925 0.930 . S
H938 C926 0.956 . S
H939 C926 0.961 . S
H940 C926 0.961 . S
H941 C927 0.958 . S
H942 C927 0.961 . S
H943 C927 0.960 . S
C944 C945 1.391 . S
C944 C946 1.394 . S
C944 H960 0.931 . S
C945 C944 1.391 . S
C945 C949 1.376 . S
C946 C944 1.394 . S
C946 C947 1.369 . S
C946 C950 1.531 . S
C947 C946 1.369 . S
C947 C948 1.410 . S
C947 C955 1.503 . S
C948 C947 1.410 . S
C948 C949 1.392 . S
C948 C951 1.511 . S
C949 C945 1.376 . S
C949 C948 1.392 . S
C949 H961 0.929 . S
C950 C946 1.531 . S
C950 H962 0.955 1_455 S
C950 H963 0.962 . S
C950 H964 0.960 1_455 S
C951 C948 1.511 . S
C951 H965 0.961 . S
C951 H966 0.961 . S
C951 H967 0.961 . S
C952 C953 1.370 . S
C952 C954 1.363 . S
C952 H968 0.931 . S
C953 C952 1.370 . S
C953 C957 1.408 . S
C954 C952 1.363 . S
C954 C955 1.370 . S
C954 C958 1.524 . S
C955 C947 1.503 . S
C955 C954 1.370 . S
C955 C956 1.403 . S
C956 C955 1.403 . S
C956 C957 1.404 . S
C956 C959 1.539 1_455 S
C957 C953 1.408 . S
C957 C956 1.404 . S
C957 H969 0.930 . S
C958 C954 1.524 . S
C958 H970 0.956 . S
C958 H971 0.961 . S
C958 H972 0.961 . S
C959 C956 1.539 1_655 S
C959 H973 0.958 . S
C959 H974 0.961 . S
C959 H975 0.960 . S
H960 C944 0.931 . S
H961 C949 0.929 . S
H962 C950 0.955 1_655 S
H963 C950 0.962 . S
H964 C950 0.960 1_655 S
H965 C951 0.961 . S
H966 C951 0.961 . S
H967 C951 0.961 . S
H968 C952 0.931 . S
H969 C957 0.930 . S
H970 C958 0.956 . S
H971 C958 0.961 . S
H972 C958 0.961 . S
H973 C959 0.958 . S
H974 C959 0.961 . S
H975 C959 0.960 . S
C976 C977 1.391 . S
C976 C978 1.394 . S
C976 H992 0.931 . S
C977 C976 1.391 . S
C977 C981 1.376 . S
C978 C976 1.394 . S
C978 C979 1.369 1_556 S
C978 C982 1.530 1_556 S
C979 C978 1.369 1_554 S
C979 C980 1.410 . S
C979 C987 1.503 . S
C980 C979 1.410 . S
C980 C981 1.392 1_554 S
C980 C983 1.511 . S
C981 C977 1.376 . S
C981 C980 1.392 1_556 S
C981 H993 0.929 . S
C982 C978 1.530 1_554 S
C982 H994 0.963 . S
C982 H995 0.964 . S
C982 H996 0.957 1_554 S
C983 C980 1.511 . S
C983 H997 0.961 . S
C983 H998 0.961 . S
C983 H999 0.961 . S
C984 C985 1.370 . S
C984 C986 1.363 . S
C984 H1000 0.931 . S
C985 C984 1.370 . S
C985 C989 1.408 . S
C986 C984 1.363 . S
C986 C987 1.370 . S
C986 C990 1.524 . S
C987 C979 1.503 . S
C987 C986 1.370 . S
C987 C988 1.403 . S
C988 C987 1.403 . S
C988 C989 1.404 . S
C988 C991 1.539 . S
C989 C985 1.408 . S
C989 C988 1.404 . S
C989 H1001 0.930 . S
C990 C986 1.524 . S
C990 H1002 0.956 . S
C990 H1003 0.961 . S
C990 H1004 0.961 . S
C991 C988 1.539 . S
C991 H1005 0.958 . S
C991 H1006 0.961 . S
C991 H1007 0.960 . S
H992 C976 0.931 . S
H993 C981 0.929 . S
H994 C982 0.963 . S
H995 C982 0.964 . S
H996 C982 0.957 1_556 S
H997 C983 0.961 . S
H998 C983 0.961 . S
H999 C983 0.961 . S
H1000 C984 0.931 . S
H1001 C989 0.930 . S
H1002 C990 0.956 . S
H1003 C990 0.961 . S
H1004 C990 0.961 . S
H1005 C991 0.958 . S
H1006 C991 0.961 . S
H1007 C991 0.960 . S
C1008 C1009 1.391 . S
C1008 C1010 1.394 . S
C1008 H1024 0.931 . S
C1009 C1008 1.391 . S
C1009 C1013 1.376 . S
C1010 C1008 1.394 . S
C1010 C1011 1.369 . S
C1010 C1014 1.531 . S
C1011 C1010 1.369 . S
C1011 C1012 1.410 . S
C1011 C1019 1.503 . S
C1012 C1011 1.410 . S
C1012 C1013 1.392 . S
C1012 C1015 1.511 . S
C1013 C1009 1.376 . S
C1013 C1012 1.392 . S
C1013 H1025 0.929 . S
C1014 C1010 1.531 . S
C1014 H1026 0.960 . S
C1014 H1027 0.962 1_455 S
C1014 H1028 0.960 . S
C1015 C1012 1.511 . S
C1015 H1029 0.961 . S
C1015 H1030 0.961 . S
C1015 H1031 0.961 . S
C1016 C1017 1.370 . S
C1016 C1018 1.363 . S
C1016 H1032 0.931 . S
C1017 C1016 1.370 . S
C1017 C1021 1.408 . S
C1018 C1016 1.363 . S
C1018 C1019 1.370 . S
C1018 C1022 1.524 . S
C1019 C1011 1.503 . S
C1019 C1018 1.370 . S
C1019 C1020 1.403 . S
C1020 C1019 1.403 . S
C1020 C1021 1.404 . S
C1020 C1023 1.539 . S
C1021 C1017 1.408 . S
C1021 C1020 1.404 . S
C1021 H1033 0.930 . S
C1022 C1018 1.524 . S
C1022 H1034 0.956 1_455 S
C1022 H1035 0.961 . S
C1022 H1036 0.961 1_455 S
C1023 C1020 1.539 . S
C1023 H1037 0.958 . S
C1023 H1038 0.961 . S
C1023 H1039 0.960 . S
H1024 C1008 0.931 . S
H1025 C1013 0.929 . S
H1026 C1014 0.960 . S
H1027 C1014 0.962 1_655 S
H1028 C1014 0.960 . S
H1029 C1015 0.961 . S
H1030 C1015 0.961 . S
H1031 C1015 0.961 . S
H1032 C1016 0.931 . S
H1033 C1021 0.930 . S
H1034 C1022 0.956 1_655 S
H1035 C1022 0.961 . S
H1036 C1022 0.961 1_655 S
H1037 C1023 0.958 . S
H1038 C1023 0.961 . S
H1039 C1023 0.960 . S
C1040 C1041 1.391 . S
C1040 C1042 1.394 . S
C1040 H1056 0.931 . S
C1041 C1040 1.391 . S
C1041 C1045 1.376 . S
C1042 C1040 1.394 . S
C1042 C1043 1.369 . S
C1042 C1046 1.531 1_554 S
C1043 C1042 1.369 . S
C1043 C1044 1.410 . S
C1043 C1051 1.503 1_554 S
C1044 C1043 1.410 . S
C1044 C1045 1.392 . S
C1044 C1047 1.511 . S
C1045 C1041 1.376 . S
C1045 C1044 1.392 . S
C1045 H1057 0.929 . S
C1046 C1042 1.531 1_556 S
C1046 H1058 0.960 . S
C1046 H1059 0.962 1_556 S
C1046 H1060 0.960 . S
C1047 C1044 1.511 . S
C1047 H1061 0.961 1_455 S
C1047 H1062 0.961 . S
C1047 H1063 0.961 1_454 S
C1048 C1049 1.370 . S
C1048 C1050 1.363 . S
C1048 H1064 0.931 . S
C1049 C1048 1.370 . S
C1049 C1053 1.408 . S
C1050 C1048 1.363 . S
C1050 C1051 1.370 . S
C1050 C1054 1.524 1_556 S
C1051 C1043 1.503 1_556 S
C1051 C1050 1.370 . S
C1051 C1052 1.403 . S
C1052 C1051 1.403 . S
C1052 C1053 1.404 . S
C1052 C1055 1.539 . S
C1053 C1049 1.408 . S
C1053 C1052 1.404 . S
C1053 H1065 0.930 . S
C1054 C1050 1.524 1_554 S
C1054 H1066 0.956 . S
C1054 H1067 0.961 . S
C1054 H1068 0.961 . S
C1055 C1052 1.539 . S
C1055 H1069 0.958 . S
C1055 H1070 0.961 . S
C1055 H1071 0.960 . S
H1056 C1040 0.931 . S
H1057 C1045 0.929 . S
H1058 C1046 0.960 . S
H1059 C1046 0.962 1_554 S
H1060 C1046 0.960 . S
H1061 C1047 0.961 1_655 S
H1062 C1047 0.961 . S
H1063 C1047 0.961 1_656 S
H1064 C1048 0.931 . S
H1065 C1053 0.930 . S
H1066 C1054 0.956 . S
H1067 C1054 0.961 . S
H1068 C1054 0.961 . S
H1069 C1055 0.958 . S
H1070 C1055 0.961 . S
H1071 C1055 0.960 . S
C1072 C1073 1.391 . S
C1072 C1074 1.394 . S
C1072 H1088 0.931 . S
C1073 C1072 1.391 . S
C1073 C1077 1.376 . S
C1074 C1072 1.394 . S
C1074 C1075 1.369 . S
C1074 C1078 1.531 . S
C1075 C1074 1.369 . S
C1075 C1076 1.410 . S
C1075 C1083 1.503 . S
C1076 C1075 1.410 . S
C1076 C1077 1.392 . S
C1076 C1079 1.511 . S
C1077 C1073 1.376 . S
C1077 C1076 1.392 . S
C1077 H1089 0.929 . S
C1078 C1074 1.531 . S
C1078 H1090 0.960 . S
C1078 H1091 0.962 . S
C1078 H1092 0.960 . S
C1079 C1076 1.511 . S
C1079 H1093 0.961 . S
C1079 H1094 0.961 . S
C1079 H1095 0.961 . S
C1080 C1081 1.370 . S
C1080 C1082 1.363 . S
C1080 H1096 0.931 . S
C1081 C1080 1.370 . S
C1081 C1085 1.408 . S
C1082 C1080 1.363 . S
C1082 C1083 1.370 . S
C1082 C1086 1.524 . S
C1083 C1075 1.503 . S
C1083 C1082 1.370 . S
C1083 C1084 1.403 . S
C1084 C1083 1.403 . S
C1084 C1085 1.404 . S
C1084 C1087 1.539 . S
C1085 C1081 1.408 . S
C1085 C1084 1.404 . S
C1085 H1097 0.930 . S
C1086 C1082 1.524 . S
C1086 H1098 0.956 . S
C1086 H1099 0.961 . S
C1086 H1100 0.961 . S
C1087 C1084 1.539 . S
C1087 H1101 0.958 . S
C1087 H1102 0.961 . S
C1087 H1103 0.960 . S
H1088 C1072 0.931 . S
H1089 C1077 0.929 . S
H1090 C1078 0.960 . S
H1091 C1078 0.962 . S
H1092 C1078 0.960 . S
H1093 C1079 0.961 . S
H1094 C1079 0.961 . S
H1095 C1079 0.961 . S
H1096 C1080 0.931 . S
H1097 C1085 0.930 . S
H1098 C1086 0.956 . S
H1099 C1086 0.961 . S
H1100 C1086 0.961 . S
H1101 C1087 0.958 . S
H1102 C1087 0.961 . S
H1103 C1087 0.960 . S
C1104 C1105 1.391 . S
C1104 C1106 1.394 . S
C1104 H1120 0.931 . S
C1105 C1104 1.391 . S
C1105 C1109 1.376 . S
C1106 C1104 1.394 . S
C1106 C1107 1.369 . S
C1106 C1110 1.531 . S
C1107 C1106 1.369 . S
C1107 C1108 1.410 . S
C1107 C1115 1.503 1_564 S
C1108 C1107 1.410 . S
C1108 C1109 1.392 . S
C1108 C1111 1.511 . S
C1109 C1105 1.376 . S
C1109 C1108 1.392 . S
C1109 H1121 0.929 . S
C1110 C1106 1.531 . S
C1110 H1122 0.960 1_565 S
C1110 H1123 0.962 . S
C1110 H1124 0.960 . S
C1111 C1108 1.511 . S
C1111 H1125 0.961 . S
C1111 H1126 0.961 1_554 S
C1111 H1127 0.961 1_565 S
C1112 C1113 1.370 . S
C1112 C1114 1.363 . S
C1112 H1128 0.931 . S
C1113 C1112 1.370 . S
C1113 C1117 1.408 . S
C1114 C1112 1.363 . S
C1114 C1115 1.370 . S
C1114 C1118 1.524 1_545 S
C1115 C1107 1.503 1_546 S
C1115 C1114 1.370 . S
C1115 C1116 1.403 1_556 S
C1116 C1115 1.403 1_554 S
C1116 C1117 1.404 1_554 S
C1116 C1119 1.539 . S
C1117 C1113 1.408 . S
C1117 C1116 1.404 1_556 S
C1117 H1129 0.930 . S
C1118 C1114 1.524 1_565 S
C1118 H1130 0.956 . S
C1118 H1131 0.961 . S
C1118 H1132 0.961 . S
C1119 C1116 1.539 . S
C1119 H1133 0.958 . S
C1119 H1134 0.961 . S
C1119 H1135 0.960 . S
H1120 C1104 0.931 . S
H1121 C1109 0.929 . S
H1122 C1110 0.960 1_545 S
H1123 C1110 0.962 . S
H1124 C1110 0.960 . S
H1125 C1111 0.961 . S
H1126 C1111 0.961 1_556 S
H1127 C1111 0.961 1_545 S
H1128 C1112 0.931 . S
H1129 C1117 0.930 . S
H1130 C1118 0.956 . S
H1131 C1118 0.961 . S
H1132 C1118 0.961 . S
H1133 C1119 0.958 . S
H1134 C1119 0.961 . S
H1135 C1119 0.960 . S
C1136 C1137 1.391 . S
C1136 C1138 1.394 . S
C1136 H1152 0.931 . S
C1137 C1136 1.391 . S
C1137 C1141 1.376 1_455 S
C1138 C1136 1.394 . S
C1138 C1139 1.369 . S
C1138 C1142 1.531 . S
C1139 C1138 1.369 . S
C1139 C1140 1.410 1_455 S
C1139 C1147 1.503 1_545 S
C1140 C1139 1.410 1_655 S
C1140 C1141 1.392 . S
C1140 C1143 1.511 . S
C1141 C1137 1.376 1_655 S
C1141 C1140 1.392 . S
C1141 H1153 0.929 . S
C1142 C1138 1.531 . S
C1142 H1154 0.960 1_545 S
C1142 H1155 0.962 . S
C1142 H1156 0.960 . S
C1143 C1140 1.511 . S
C1143 H1157 0.961 . S
C1143 H1158 0.961 . S
C1143 H1159 0.961 1_545 S
C1144 C1145 1.370 . S
C1144 C1146 1.363 . S
C1144 H1160 0.931 . S
C1145 C1144 1.370 . S
C1145 C1149 1.408 . S
C1146 C1144 1.363 . S
C1146 C1147 1.370 . S
C1146 C1150 1.524 1_565 S
C1147 C1139 1.503 1_565 S
C1147 C1146 1.370 . S
C1147 C1148 1.403 . S
C1148 C1147 1.403 . S
C1148 C1149 1.404 . S
C1148 C1151 1.539 . S
C1149 C1145 1.408 . S
C1149 C1148 1.404 . S
C1149 H1161 0.930 . S
C1150 C1146 1.524 1_545 S
C1150 H1162 0.956 . S
C1150 H1163 0.961 1_455 S
C1150 H1164 0.961 . S
C1151 C1148 1.539 . S
C1151 H1165 0.955 . S
C1151 H1166 0.963 1_455 S
C1151 H1167 0.961 1_455 S
H1152 C1136 0.931 . S
H1153 C1141 0.929 . S
H1154 C1142 0.960 1_565 S
H1155 C1142 0.962 . S
H1156 C1142 0.960 . S
H1157 C1143 0.961 . S
H1158 C1143 0.961 . S
H1159 C1143 0.961 1_565 S
H1160 C1144 0.931 . S
H1161 C1149 0.930 . S
H1162 C1150 0.956 . S
H1163 C1150 0.961 1_655 S
H1164 C1150 0.961 . S
H1165 C1151 0.955 . S
H1166 C1151 0.963 1_655 S
H1167 C1151 0.961 1_655 S
C273 C22 1.241 . S
C281 C124 1.272 . S
C305 C90 1.324 . S
C313 C49 1.299 . S
C337 C56 1.990 . S
C345 C83 2.007 . S
C369 C15 1.989 . S
C377 C117 2.013 . S
C401 C260 1.239 . S
C409 C158 1.270 . S
C433 C226 1.324 . S
C441 C185 1.300 . S
C465 C219 2.027 . S
C473 C192 2.019 . S
C497 C253 2.011 . S
C505 C151 2.024 . S
C529 C266 0.978 . S
C537 C6 1.010 . S
C561 C232 1.020 . S
C569 C62 1.005 . S
C593 C74 1.010 . S
C601 C176 1.013 . S
C625 C164 0.989 . S
C633 C108 1.014 . S
C657 C142 0.999 . S
C665 C130 0.996 . S
C689 C96 1.026 . S
C697 C198 1.009 . S
C721 C40 1.019 . S
C729 C210 1.005 . S
C753 C28 0.984 . S
C761 C244 1.013 . S
C785 C3 1.528 . S
C793 C187 1.590 . S
C817 C35 1.444 . S
C825 C153 1.582 . S
C849 C255 1.566 . S
C857 C71 1.486 . S
C881 C105 1.521 . S
C889 C221 1.594 . S
C913 C139 1.527 . S
C921 C51 1.592 . S
C945 C171 1.476 . S
C953 C17 1.592 . S
C977 C207 1.526 . S
C985 C119 1.593 . S
C1009 C241 1.528 . S
C1017 C85 1.591 . S
C1041 C1 1.910 . S
C1049 C69 1.942 . S
C1073 C37 1.963 . S
C1081 C103 1.942 . S
C1105 C137 1.955 . S
C1113 C205 1.934 . S
C1137 C173 1.955 . S
C1145 C239 1.933 . S
