# Generated by pormake.
# Topology mdf, (4)-cn, num edge types: 1
# Building blocks:
#     Node 0, Type 0, BuildingBlock: TATPOV_clean_sbu_0, # of connection points: 4
#     Node 1, Type 0, BuildingBlock: TATPOV_clean_sbu_0, # of connection points: 4
#     Node 2, Type 0, BuildingBlock: TATPOV_clean_sbu_0, # of connection points: 4
#     Node 3, Type 0, BuildingBlock: TATPOV_clean_sbu_0, # of connection points: 4
#     Node 4, Type 0, BuildingBlock: TATPOV_clean_sbu_0, # of connection points: 4
#     Node 5, Type 0, BuildingBlock: TATPOV_clean_sbu_0, # of connection points: 4
#     Node 6, Type 0, BuildingBlock: TATPOV_clean_sbu_0, # of connection points: 4
#     Node 7, Type 0, BuildingBlock: TATPOV_clean_sbu_0, # of connection points: 4
#     Edge 8, Type (0, 0), BuildingBlock: FUNLAD_clean_linker_1, # of connection points: 2
#     Edge 9, Type (0, 0), BuildingBlock: FUNLAD_clean_linker_1, # of connection points: 2
#     Edge 10, Type (0, 0), BuildingBlock: FUNLAD_clean_linker_1, # of connection points: 2
#     Edge 11, Type (0, 0), BuildingBlock: FUNLAD_clean_linker_1, # of connection points: 2
#     Edge 12, Type (0, 0), BuildingBlock: FUNLAD_clean_linker_1, # of connection points: 2
#     Edge 13, Type (0, 0), BuildingBlock: FUNLAD_clean_linker_1, # of connection points: 2
#     Edge 14, Type (0, 0), BuildingBlock: FUNLAD_clean_linker_1, # of connection points: 2
#     Edge 15, Type (0, 0), BuildingBlock: FUNLAD_clean_linker_1, # of connection points: 2
#     Edge 16, Type (0, 0), BuildingBlock: FUNLAD_clean_linker_1, # of connection points: 2
#     Edge 17, Type (0, 0), BuildingBlock: FUNLAD_clean_linker_1, # of connection points: 2
#     Edge 18, Type (0, 0), BuildingBlock: FUNLAD_clean_linker_1, # of connection points: 2
#     Edge 19, Type (0, 0), BuildingBlock: FUNLAD_clean_linker_1, # of connection points: 2
#     Edge 20, Type (0, 0), BuildingBlock: FUNLAD_clean_linker_1, # of connection points: 2
#     Edge 21, Type (0, 0), BuildingBlock: FUNLAD_clean_linker_1, # of connection points: 2
#     Edge 22, Type (0, 0), BuildingBlock: FUNLAD_clean_linker_1, # of connection points: 2
#     Edge 23, Type (0, 0), BuildingBlock: FUNLAD_clean_linker_1, # of connection points: 2
# Relax obj value: 0.041
# Max RMSD: 0.067
# Mean RMSD: 0.055
data_MOF--net-mdf--node1-TATPOV_clean_sbu_0--edge1-FUNLAD_clean_linker_1
_symmetry_space_group_name_H-M    P1
_symmetry_Int_Tables_number       1
_symmetry_cell_setting            triclinic
loop_
_symmetry_equiv_pos_as_xyz
'x, y, z'
_cell_length_a     36.576268
_cell_length_b     36.630921
_cell_length_c     15.366956
_cell_angle_alpha  92.109984
_cell_angle_beta   92.145889
_cell_angle_gamma 90.313573
loop_
_atom_site_label
_atom_site_type_symbol
_atom_site_fract_x
_atom_site_fract_y
_atom_site_fract_z
_atom_type_partial_charge
Zn0 Zn 0.23732 0.51686 0.50601 0.0
Zn1 Zn 0.25114 0.55324 0.36375 0.0
O2 O 0.23158 0.59396 0.44746 0.0
O3 O 0.21811 0.56241 0.56153 0.0
O4 O 0.26306 0.57966 0.25438 0.0
O5 O 0.29015 0.50338 0.52136 0.0
O6 O 0.30129 0.53114 0.40023 0.0
C7 C 0.21859 0.59236 0.52313 0.0
C8 C 0.19507 0.48938 0.35908 0.0
O9 O 0.21164 0.51479 0.32131 0.0
O10 O 0.20196 0.48387 0.4388 0.0
C11 C 0.28831 0.60372 0.25613 0.0
O12 O 0.30601 0.61212 0.33022 0.0
C13 C 0.31224 0.51252 0.4646 0.0
Zn14 Zn 0.48503 0.75319 0.4566 0.0
Zn15 Zn 0.44813 0.73699 0.59726 0.0
O16 O 0.40853 0.75995 0.51573 0.0
O17 O 0.43989 0.77376 0.40162 0.0
O18 O 0.41999 0.72129 0.70134 0.0
O19 O 0.49848 0.70078 0.43516 0.0
O20 O 0.47048 0.68787 0.55483 0.0
C21 C 0.4101 0.77374 0.44092 0.0
C22 C 0.51273 0.79156 0.61129 0.0
O23 O 0.48703 0.77455 0.64705 0.0
O24 O 0.51789 0.78662 0.53072 0.0
C25 C 0.40581 0.74337 0.75607 0.0
O26 O 0.40929 0.77868 0.74681 0.0
C27 C 0.48925 0.67788 0.48993 0.0
Zn28 Zn 0.21385 0.02214 0.74871 0.0
Zn29 Zn 0.25542 0.98122 0.85512 0.0
O30 O 0.24004 0.94416 0.75701 0.0
O31 O 0.20375 0.97692 0.67296 0.0
O32 O 0.28521 0.95112 0.93889 0.0
O33 O 0.25797 0.05358 0.72891 0.0
O34 O 0.29223 0.01923 0.81374 0.0
C35 C 0.21907 0.94696 0.68958 0.0
C36 C 0.18544 0.02042 0.9179 0.0
O37 O 0.2131 1.00009 0.93102 0.0
O38 O 0.17986 0.03436 0.84447 0.0
C39 C 0.2697 0.93225 0.99487 0.0
O40 O 0.23384 0.93198 0.99759 0.0
C41 C 0.28884 0.04595 0.76317 0.0
Zn42 Zn 0.02196 0.76887 0.32089 0.0
Zn43 Zn 0.04724 0.73421 0.17819 0.0
O44 O 0.09462 0.74595 0.24959 0.0
O45 O 0.07403 0.77195 0.3694 0.0
O46 O 0.06594 0.70872 0.07072 0.0
O47 O 0.99077 0.72519 0.34389 0.0
O48 O 0.01374 0.69562 0.23105 0.0
C49 C 0.10051 0.76054 0.32521 0.0
C50 C 0.00502 0.80663 0.16424 0.0
O51 O 0.0215 0.7796 0.12937 0.0
O52 O 0.00154 0.80878 0.24598 0.0
C53 C 0.08452 0.72629 0.01773 0.0
O54 O 0.09097 0.76132 0.03295 0.0
C55 C 0.99306 0.6965 0.29617 0.0
Zn56 Zn 0.73829 0.004 0.02848 0.0
Zn57 Zn 0.76571 0.04208 0.90498 0.0
O58 O 0.74172 0.08141 0.98632 0.0
O59 O 0.71504 0.0476 0.08168 0.0
O60 O 0.78964 0.07236 0.81397 0.0
O61 O 0.78757 0.98764 0.07119 0.0
O62 O 0.81022 0.01419 0.9585 0.0
C63 C 0.72161 0.0785 0.05192 0.0
C64 C 0.70825 0.98165 0.86148 0.0
O65 O 0.72819 0.00766 0.8361 0.0
O66 O 0.70889 0.97379 0.941 0.0
C67 C 0.77228 0.08898 0.75426 0.0
O68 O 0.7364 0.08678 0.74841 0.0
C69 C 0.81446 0.99467 0.02523 0.0
Zn70 Zn 0.98243 0.2488 0.9983 0.0
Zn71 Zn 0.93828 0.23444 0.12318 0.0
O72 O 0.90403 0.25216 0.02091 0.0
O73 O 0.94281 0.26605 0.92051 0.0
O74 O 0.90277 0.22039 0.21577 0.0
O75 O 0.99887 0.19728 0.9874 0.0
O76 O 0.9662 0.18568 0.1009 0.0
C77 C 0.9105 0.26425 0.94601 0.0
C78 C 0.99886 0.29275 0.15168 0.0
O79 O 0.97172 0.27561 0.18113 0.0
O80 O 0.00934 0.28541 0.07553 0.0
C81 C 0.87781 0.1969 0.19515 0.0
O82 O 0.8752 0.18337 0.11485 0.0
C83 C 0.98854 0.17539 0.04322 0.0
Zn84 Zn 0.72808 0.49445 0.30087 0.0
Zn85 Zn 0.7428 0.44122 0.40517 0.0
O86 O 0.73236 0.41211 0.28957 0.0
O87 O 0.72633 0.4578 0.20073 0.0
O88 O 0.75548 0.40326 0.49245 0.0
O89 O 0.77522 0.52025 0.32994 0.0
O90 O 0.79078 0.47238 0.40501 0.0
C91 C 0.72767 0.4239 0.21301 0.0
C92 C 0.6752 0.48999 0.4304 0.0
O93 O 0.69634 0.46473 0.45625 0.0
O94 O 0.6825 0.50718 0.36319 0.0
C95 C 0.73898 0.37277 0.49721 0.0
O96 O 0.71222 0.36393 0.44095 0.0
C97 C 0.79896 0.50305 0.37382 0.0
Zn98 Zn 0.50911 0.29089 0.68407 0.0
Zn99 Zn 0.55691 0.27046 0.56995 0.0
O100 O 0.59039 0.28028 0.6796 0.0
O101 O 0.54888 0.29185 0.77707 0.0
O102 O 0.59161 0.25437 0.47755 0.0
O103 O 0.47996 0.24516 0.66568 0.0
O104 O 0.52291 0.22487 0.58015 0.0
C105 C 0.5819 0.28721 0.7581 0.0
C106 C 0.51095 0.34016 0.54636 0.0
O107 O 0.53405 0.3171 0.51811 0.0
O108 O 0.49634 0.3356 0.61856 0.0
C109 C 0.62334 0.26821 0.47124 0.0
O110 O 0.63501 0.29378 0.52779 0.0
C111 C 0.49339 0.21959 0.61976 0.0
H112 H 0.37893 0.74979 0.88194 0.0
C113 C 0.38704 0.72984 0.83236 0.0
H114 H 0.3896 0.67391 0.79519 0.0
H115 H 0.38986 0.61496 0.17474 0.0
H116 H 0.4508 0.59938 0.12989 0.0
H117 H 0.474 0.62125 0.9923 0.0
H118 H 0.43627 0.65846 0.89826 0.0
C119 C 0.38076 0.69409 0.84344 0.0
C120 C 0.36606 0.68068 0.926 0.0
C121 C 0.38868 0.65927 0.98092 0.0
C122 C 0.37558 0.64728 0.06124 0.0
C123 C 0.39854 0.62531 0.11374 0.0
C124 C 0.43361 0.61608 0.08873 0.0
C125 C 0.44665 0.62836 0.01124 0.0
C126 C 0.42462 0.64968 0.95775 0.0
H127 H 0.28436 0.61146 0.11403 0.0
C128 C 0.29888 0.62025 0.17428 0.0
H129 H 0.34224 0.65229 0.23118 0.0
H130 H 0.31318 0.71608 0.83089 0.0
H131 H 0.25417 0.73616 0.88212 0.0
H132 H 0.23574 0.72364 0.0305 0.0
H133 H 0.27413 0.68746 0.1258 0.0
C134 C 0.32674 0.64431 0.17175 0.0
C135 C 0.34014 0.65729 0.08759 0.0
C136 C 0.31796 0.67956 0.03393 0.0
C137 C 0.33021 0.68981 0.95132 0.0
C138 C 0.30609 0.7093 0.89609 0.0
C139 C 0.27218 0.72091 0.92445 0.0
C140 C 0.26166 0.71366 0.00796 0.0
C141 C 0.28389 0.69276 0.06188 0.0
H142 H 0.35104 0.7876 0.42795 0.0
C143 C 0.37766 0.791 0.4001 0.0
H144 H 0.40794 0.81468 0.30203 0.0
H145 H 0.28976 0.83685 0.01273 0.0
H146 H 0.32089 0.78381 0.95402 0.0
H147 H 0.36437 0.7494 0.0463 0.0
H148 H 0.37688 0.76806 0.19711 0.0
C149 C 0.38131 0.81156 0.33009 0.0
C150 C 0.35018 0.82859 0.28237 0.0
C151 C 0.34167 0.81629 0.19541 0.0
C152 C 0.31686 0.8362 0.1423 0.0
C153 C 0.30904 0.82329 0.05553 0.0
C154 C 0.32639 0.79255 0.02124 0.0
C155 C 0.35084 0.77323 0.073 0.0
C156 C 0.35809 0.7845 0.15938 0.0
H157 H 0.32142 0.90903 0.04535 0.0
C158 C 0.2921 0.91018 0.05447 0.0
H159 H 0.24853 0.89313 0.13072 0.0
H160 H 0.36043 0.85979 0.44657 0.0
H161 H 0.33368 0.91613 0.50102 0.0
H162 H 0.29219 0.95172 0.4071 0.0
H163 H 0.27606 0.93042 0.25916 0.0
C164 C 0.27753 0.89133 0.11826 0.0
C165 C 0.30103 0.86876 0.17588 0.0
C166 C 0.30899 0.88075 0.26332 0.0
C167 C 0.33346 0.86053 0.31695 0.0
C168 C 0.34191 0.87388 0.40306 0.0
C169 C 0.32687 0.90631 0.43507 0.0
C170 C 0.30349 0.92634 0.38221 0.0
C171 C 0.29438 0.91375 0.2975 0.0
H172 H 0.16063 0.76352 0.31318 0.0
C173 C 0.13841 0.76825 0.35718 0.0
H174 H 0.12287 0.79006 0.47898 0.0
H175 H 0.25537 0.8298 0.70316 0.0
H176 H 0.24898 0.76794 0.75209 0.0
H177 H 0.21158 0.72222 0.66653 0.0
H178 H 0.17985 0.73858 0.53057 0.0
C179 C 0.14488 0.78612 0.43402 0.0
C180 C 0.1798 0.80517 0.45912 0.0
C181 C 0.19895 0.79506 0.53605 0.0
C182 C 0.22103 0.82117 0.58455 0.0
C183 C 0.23839 0.81094 0.6636 0.0
C184 C 0.23492 0.7755 0.6924 0.0
C185 C 0.21376 0.74978 0.6442 0.0
C186 C 0.19565 0.75942 0.56704 0.0
H187 H 0.18533 0.91582 0.5927 0.0
C188 C 0.21107 0.91539 0.63048 0.0
H189 H 0.26037 0.88709 0.65441 0.0
H190 H 0.15521 0.8304 0.30039 0.0
H191 H 0.16972 0.88866 0.24096 0.0
H192 H 0.21027 0.93282 0.32287 0.0
H193 H 0.23632 0.9186 0.46565 0.0
C194 C 0.23448 0.88774 0.61754 0.0
C195 C 0.22384 0.85713 0.55491 0.0
C196 C 0.21078 0.86473 0.46945 0.0
C197 C 0.18812 0.83891 0.42171 0.0
C198 C 0.17302 0.8485 0.33948 0.0
C199 C 0.18118 0.88198 0.30434 0.0
C200 C 0.204 0.90684 0.3504 0.0
C201 C 0.21866 0.89845 0.4321 0.0
H202 H 0.09587 0.6772 0.93663 0.0
C203 C 0.10081 0.70648 0.94379 0.0
H204 H 0.12792 0.75195 0.8935 0.0
H205 H 0.22286 0.60634 0.76336 0.0
H206 H 0.24178 0.60308 0.91582 0.0
H207 H 0.21537 0.64437 0.02672 0.0
H208 H 0.17127 0.69035 0.98537 0.0
C209 C 0.12306 0.72265 0.88889 0.0
C210 C 0.14186 0.7005 0.82111 0.0
C211 C 0.16857 0.67461 0.84627 0.0
C212 C 0.18328 0.65039 0.78265 0.0
C213 C 0.21011 0.62489 0.80935 0.0
C214 C 0.22136 0.6228 0.89658 0.0
C215 C 0.20651 0.64607 0.95898 0.0
C216 C 0.1809 0.67211 0.93438 0.0
H217 H 0.21269 0.65216 0.54964 0.0
C218 C 0.20399 0.62519 0.56799 0.0
H219 H 0.17266 0.59412 0.65116 0.0
H220 H 0.09533 0.75042 0.74996 0.0
H221 H 0.07568 0.75305 0.59743 0.0
H222 H 0.09823 0.70838 0.48834 0.0
H223 H 0.1414 0.66154 0.53033 0.0
C224 C 0.18108 0.62131 0.63356 0.0
C225 C 0.17083 0.65161 0.69433 0.0
C226 C 0.14536 0.67852 0.66845 0.0
C227 C 0.13152 0.70361 0.73185 0.0
C228 C 0.10639 0.7305 0.70451 0.0
C229 C 0.09485 0.73225 0.6173 0.0
C230 C 0.10756 0.7071 0.55584 0.0
C231 C 0.13243 0.6804 0.58078 0.0
H232 H 0.82227 0.11275 0.70187 0.0
C233 C 0.79291 0.1094 0.69044 0.0
H234 H 0.74754 0.1191 0.60653 0.0
H235 H 0.79991 0.23605 0.35962 0.0
H236 H 0.74955 0.26654 0.43066 0.0
H237 H 0.72372 0.24171 0.5624 0.0
H238 H 0.74607 0.18476 0.61996 0.0
C239 C 0.77696 0.12186 0.61703 0.0
C240 C 0.7979 0.14018 0.54868 0.0
C241 C 0.78681 0.17514 0.52095 0.0
C242 C 0.80363 0.19105 0.44921 0.0
C243 C 0.78899 0.22366 0.41611 0.0
C244 C 0.76015 0.2414 0.45622 0.0
C245 C 0.74561 0.22741 0.53042 0.0
C246 C 0.75868 0.1947 0.56276 0.0
H247 H 0.83608 0.15907 0.24073 0.0
C248 C 0.85398 0.18186 0.26107 0.0
H249 H 0.87217 0.21675 0.36663 0.0
H250 H 0.82122 0.06943 0.56877 0.0
H251 H 0.87333 0.04094 0.50283 0.0
H252 H 0.90994 0.0739 0.39897 0.0
H253 H 0.89358 0.13503 0.35793 0.0
C254 C 0.8552 0.19347 0.34513 0.0
C255 C 0.8344 0.17426 0.41189 0.0
C256 C 0.84617 0.13973 0.44069 0.0
C257 C 0.82674 0.12184 0.50577 0.0
C258 C 0.83647 0.08553 0.52497 0.0
C259 C 0.86614 0.06857 0.48662 0.0
C260 C 0.88664 0.08705 0.42786 0.0
C261 C 0.87685 0.12215 0.40472 0.0
H262 H 0.89089 0.2911 0.82959 0.0
C263 C 0.88162 0.27759 0.88683 0.0
H264 H 0.83503 0.26151 0.9542 0.0
H265 H 0.74488 0.3866 0.76145 0.0
H266 H 0.74145 0.40637 0.91363 0.0
H267 H 0.77619 0.37415 0.02827 0.0
H268 H 0.81111 0.32012 0.99283 0.0
C269 C 0.84556 0.27385 0.89692 0.0
C270 C 0.82013 0.28951 0.83019 0.0
C271 C 0.79932 0.32074 0.85224 0.0
C272 C 0.78166 0.34082 0.78549 0.0
C273 C 0.75997 0.3712 0.80948 0.0
C274 C 0.75778 0.38281 0.89645 0.0
C275 C 0.7771 0.36461 0.96103 0.0
C276 C 0.79727 0.33367 0.93974 0.0
H277 H 0.73799 0.31995 0.56278 0.0
C278 C 0.7501 0.34715 0.56504 0.0
H279 H 0.78586 0.38449 0.6333 0.0
H280 H 0.85078 0.22668 0.76591 0.0
H281 H 0.86617 0.21424 0.61489 0.0
H282 H 0.84898 0.25764 0.50166 0.0
H283 H 0.81123 0.31005 0.53508 0.0
C284 C 0.77491 0.35681 0.62853 0.0
C285 C 0.78737 0.33143 0.6967 0.0
C286 C 0.80884 0.30055 0.67472 0.0
C287 C 0.82283 0.27812 0.74144 0.0
C288 C 0.84176 0.24586 0.71777 0.0
C289 C 0.85064 0.2384 0.63169 0.0
C290 C 0.84052 0.26255 0.56773 0.0
C291 C 0.81893 0.29269 0.58799 0.0
H292 H 0.72172 0.41163 0.07365 0.0
C293 C 0.72099 0.39922 0.13683 0.0
H294 H 0.70562 0.35197 0.20271 0.0
H295 H 0.61401 0.36739 0.81971 0.0
H296 H 0.58477 0.41892 0.89201 0.0
H297 H 0.60142 0.43648 0.04507 0.0
H298 H 0.64824 0.40351 0.1251 0.0
C299 C 0.70753 0.36519 0.1409 0.0
C300 C 0.69043 0.34762 0.06036 0.0
C301 C 0.66096 0.36545 0.01713 0.0
C302 C 0.64932 0.3536 0.93186 0.0
C303 C 0.62234 0.37405 0.88677 0.0
C304 C 0.60556 0.40383 0.92719 0.0
C305 C 0.61507 0.41383 0.0131 0.0
C306 C 0.64233 0.39492 0.05792 0.0
H307 H 0.59942 0.29305 0.89454 0.0
C308 C 0.6096 0.29237 0.82887 0.0
H309 H 0.65511 0.30457 0.75296 0.0
H310 H 0.74405 0.30465 0.12964 0.0
H311 H 0.77129 0.25138 0.05864 0.0
H312 H 0.75108 0.23109 0.9095 0.0
H313 H 0.70231 0.263 0.83158 0.0
C314 C 0.64405 0.30355 0.81745 0.0
C315 C 0.66419 0.32146 0.89348 0.0
C316 C 0.69348 0.30351 0.93635 0.0
C317 C 0.706 0.31603 0.02115 0.0
C318 C 0.73402 0.29653 0.06461 0.0
C319 C 0.7498 0.26598 0.02463 0.0
C320 C 0.73839 0.25453 0.94059 0.0
C321 C 0.71045 0.27294 0.89668 0.0
H322 H 0.68458 0.10417 0.14289 0.0
C323 C 0.70555 0.11022 0.09695 0.0
H324 H 0.73852 0.15228 0.04885 0.0
H325 H 0.61968 0.26559 0.20115 0.0
H326 H 0.61115 0.27416 0.04575 0.0
H327 H 0.64333 0.23504 0.9394 0.0
H328 H 0.68687 0.18953 0.98802 0.0
C329 C 0.71764 0.14476 0.09348 0.0
C330 C 0.7031 0.17248 0.15647 0.0
C331 C 0.67877 0.19969 0.12703 0.0
C332 C 0.65861 0.22075 0.18814 0.0
C333 C 0.63486 0.24816 0.15723 0.0
C334 C 0.62972 0.25333 0.06829 0.0
C335 C 0.64799 0.23146 0.00847 0.0
C336 C 0.6727 0.20528 0.03713 0.0
H337 H 0.67679 0.26158 0.41023 0.0
C338 C 0.64801 0.25403 0.40444 0.0
H339 H 0.60703 0.22447 0.33086 0.0
H340 H 0.75296 0.12808 0.23655 0.0
H341 H 0.75252 0.11036 0.38739 0.0
H342 H 0.70859 0.13803 0.48824 0.0
H343 H 0.66813 0.18611 0.44227 0.0
C344 C 0.63599 0.23102 0.33942 0.0
C345 C 0.66133 0.21313 0.27791 0.0
C346 C 0.68541 0.18558 0.30714 0.0
C347 C 0.70797 0.16697 0.24709 0.0
C348 C 0.7335 0.14122 0.27866 0.0
C349 C 0.73367 0.13098 0.36494 0.0
C350 C 0.70921 0.14676 0.42188 0.0
C351 C 0.68603 0.17442 0.39446 0.0
H352 H 0.35694 0.4837 0.53035 0.0
C353 C 0.35003 0.49914 0.47289 0.0
H354 H 0.36813 0.51551 0.35106 0.0
H355 H 0.5048 0.44835 0.60661 0.0
H356 H 0.50278 0.50691 0.6871 0.0
H357 H 0.4572 0.55335 0.6465 0.0
H358 H 0.41428 0.54213 0.52317 0.0
C359 C 0.3748 0.50178 0.41101 0.0
C360 C 0.40908 0.4802 0.41931 0.0
C361 C 0.43394 0.48727 0.49081 0.0
C362 C 0.45954 0.46022 0.51544 0.0
C363 C 0.48429 0.4679 0.58679 0.0
C364 C 0.48344 0.5013 0.63316 0.0
C365 C 0.45776 0.52745 0.61031 0.0
C366 C 0.43318 0.52064 0.53999 0.0
H367 H 0.51409 0.37666 0.43426 0.0
C368 C 0.50034 0.37188 0.49431 0.0
H369 H 0.46028 0.38949 0.58105 0.0
H370 H 0.37244 0.46278 0.2651 0.0
H371 H 0.37642 0.40571 0.18042 0.0
H372 H 0.41776 0.35683 0.22862 0.0
H373 H 0.45565 0.36481 0.36038 0.0
C374 C 0.47306 0.39387 0.51952 0.0
C375 C 0.45915 0.42567 0.47098 0.0
C376 C 0.43762 0.42043 0.39265 0.0
C377 C 0.4131 0.44827 0.36578 0.0
C378 C 0.39122 0.44234 0.28861 0.0
C379 C 0.39327 0.40977 0.23945 0.0
C380 C 0.41658 0.38226 0.26656 0.0
C381 C 0.43833 0.38726 0.34251 0.0
H382 H 0.68618 0.96392 0.72971 0.0
C383 C 0.68399 0.96032 0.7992 0.0
H384 H 0.65769 0.93264 0.89791 0.0
H385 H 0.53385 0.89843 0.58363 0.0
H386 H 0.52519 0.96399 0.57955 0.0
H387 H 0.56659 0.00642 0.66437 0.0
H388 H 0.61707 0.98365 0.75294 0.0
C389 C 0.65942 0.93653 0.8284 0.0
C390 C 0.63619 0.91187 0.77032 0.0
C391 C 0.60668 0.92579 0.71928 0.0
C392 C 0.58241 0.90129 0.67154 0.0
C393 C 0.55311 0.91581 0.6211 0.0
C394 C 0.54776 0.95338 0.61837 0.0
C395 C 0.57109 0.97727 0.66607 0.0
C396 C 0.60012 0.9638 0.71637 0.0
H397 H 0.53444 0.81894 0.73379 0.0
C398 C 0.53694 0.81707 0.66351 0.0
H399 H 0.56386 0.83698 0.55506 0.0
H400 H 0.69091 0.87628 0.85873 0.0
H401 H 0.69952 0.81077 0.86235 0.0
H402 H 0.65735 0.7684 0.77968 0.0
H403 H 0.60623 0.79126 0.69332 0.0
C404 C 0.56201 0.83766 0.62552 0.0
C405 C 0.58722 0.86302 0.67645 0.0
C406 C 0.61707 0.84914 0.72624 0.0
C407 C 0.64149 0.87359 0.77341 0.0
C408 C 0.67123 0.85898 0.82236 0.0
C409 C 0.67663 0.82141 0.82467 0.0
C410 C 0.65289 0.79756 0.77815 0.0
C411 C 0.62352 0.81109 0.72913 0.0
H412 H 0.01757 0.13036 0.98105 0.0
C413 C 0.00485 0.13885 0.0414 0.0
H414 H 0.00128 0.12859 0.17522 0.0
H415 H 0.0802 0.9978 0.92198 0.0
H416 H 0.0179 0.97981 0.87594 0.0
H417 H 0.9649 0.01233 0.93566 0.0
H418 H 0.97388 0.06265 0.04331 0.0
C419 C 0.01108 0.1192 0.11247 0.0
C420 C 0.03914 0.08995 0.10712 0.0
C421 C 0.03348 0.06013 0.04701 0.0
C422 C 0.06396 0.04186 0.01176 0.0
C423 C 0.05773 0.01281 0.9497 0.0
C424 C 0.02225 0.00223 0.92313 0.0
C425 C 0.99239 0.02054 0.9568 0.0
C426 C 0.99782 0.04931 0.01797 0.0
H427 H 0.16365 0.0146 0.04996 0.0
C428 C 0.15899 0.02691 0.98727 0.0
H429 H 0.12381 0.05806 0.90822 0.0
H430 H 0.05819 0.13781 0.24159 0.0
H431 H 0.12007 0.15333 0.29452 0.0
H432 H 0.17339 0.12359 0.22907 0.0
H433 H 0.16525 0.07803 0.11127 0.0
C434 C 0.12903 0.04715 0.97232 0.0
C435 C 0.09991 0.05392 0.03574 0.0
C436 C 0.10543 0.0797 0.10617 0.0
C437 C 0.07474 0.0973 0.14307 0.0
C438 C 0.08069 0.12395 0.21111 0.0
C439 C 0.11598 0.13301 0.24207 0.0
C440 C 0.14601 0.11623 0.20524 0.0
C441 C 0.14097 0.09006 0.13762 0.0
H442 H 0.9475 0.67031 0.35888 0.0
C443 C 0.96994 0.66506 0.31572 0.0
H444 H 0.99715 0.62527 0.23983 0.0
H445 H 0.87287 0.55562 0.50776 0.0
H446 H 0.91403 0.57691 0.62657 0.0
H447 H 0.97213 0.60792 0.59727 0.0
H448 H 0.98892 0.61858 0.44851 0.0
C449 C 0.97501 0.63097 0.28341 0.0
C450 C 0.9479 0.6017 0.30032 0.0
C451 C 0.93962 0.59352 0.38705 0.0
C452 C 0.90695 0.57415 0.40372 0.0
C453 C 0.89786 0.56913 0.49119 0.0
C454 C 0.92123 0.5813 0.56005 0.0
C455 C 0.9539 0.59886 0.54358 0.0
C456 C 0.9631 0.60503 0.45818 0.0
H457 H 0.85844 0.4998 0.40741 0.0
C458 C 0.83702 0.51703 0.38072 0.0
H459 H 0.82417 0.56571 0.31763 0.0
H460 H 0.96014 0.60562 0.12588 0.0
H461 H 0.92283 0.57824 0.00688 0.0
H462 H 0.86783 0.54198 0.03566 0.0
H463 H 0.84966 0.53319 0.1839 0.0
C464 C 0.84562 0.54922 0.34696 0.0
C465 C 0.88373 0.56141 0.33308 0.0
C466 C 0.89482 0.56512 0.24635 0.0
C467 C 0.92687 0.58546 0.22982 0.0
C468 C 0.93627 0.59018 0.14235 0.0
C469 C 0.91509 0.57456 0.07332 0.0
C470 C 0.8841 0.55418 0.08951 0.0
C471 C 0.8739 0.54949 0.17483 0.0
H472 H 0.315 0.09358 0.7087 0.0
C473 C 0.32058 0.06818 0.74109 0.0
H474 H 0.36186 0.03256 0.78645 0.0
H475 H 0.42622 0.15328 0.50649 0.0
H476 H 0.39146 0.1176 0.39558 0.0
H477 H 0.35509 0.06405 0.43449 0.0
H478 H 0.35274 0.04636 0.58523 0.0
C479 C 0.35545 0.05771 0.75399 0.0
C480 C 0.38572 0.0817 0.727 0.0
C481 C 0.38849 0.09044 0.63825 0.0
C482 C 0.41057 0.12045 0.61546 0.0
C483 C 0.41068 0.13021 0.52723 0.0
C484 C 0.39079 0.10997 0.46289 0.0
C485 C 0.37023 0.07987 0.48481 0.0
C486 C 0.36893 0.07014 0.57143 0.0
H487 H 0.48951 0.16005 0.58635 0.0
C488 C 0.47625 0.18288 0.61917 0.0
H489 H 0.43381 0.2 0.70017 0.0
H490 H 0.39246 0.06683 0.90004 0.0
H491 H 0.432 0.09844 0.00912 0.0
H492 H 0.47211 0.14905 0.96897 0.0
H493 H 0.47274 0.16849 0.8195 0.0
C494 C 0.44612 0.17727 0.66474 0.0
C495 C 0.43092 0.14059 0.68137 0.0
C496 C 0.43181 0.12869 0.76823 0.0
C497 C 0.40909 0.09924 0.79119 0.0
C498 C 0.40937 0.08893 0.87909 0.0
C499 C 0.43196 0.1068 0.94228 0.0
C500 C 0.45452 0.13532 0.9197 0.0
C501 C 0.4545 0.14631 0.83385 0.0
H502 H 0.85202 0.96521 0.11143 0.0
C503 C 0.84968 0.9776 0.04818 0.0
H504 H 0.87367 0.98169 0.92583 0.0
H505 H 0.9992 0.91632 0.21086 0.0
H506 H 0.00603 0.97951 0.26295 0.0
H507 H 0.96667 0.02758 0.20231 0.0
H508 H 0.92083 0.01283 0.08743 0.0
C509 C 0.87631 0.97185 0.99159 0.0
C510 C 0.90566 0.94535 0.01382 0.0
C511 C 0.93224 0.95429 0.08056 0.0
C512 C 0.95435 0.92643 0.11663 0.0
C513 C 0.98109 0.9363 0.1825 0.0
C514 C 0.98538 0.97246 0.21273 0.0
C515 C 0.96321 0.99952 0.17863 0.0
C516 C 0.93691 0.99069 0.1132 0.0
H517 H 0.99635 0.83532 0.04069 0.0
C518 C 0.98948 0.8353 0.10888 0.0
H519 H 0.95985 0.86052 0.20923 0.0
H520 H 0.86216 0.9206 0.87552 0.0
H521 H 0.85453 0.85762 0.82314 0.0
H522 H 0.88871 0.80821 0.89365 0.0
H523 H 0.93099 0.82137 0.01524 0.0
C524 C 0.96606 0.8602 0.14057 0.0
C525 C 0.94905 0.88944 0.08784 0.0
C526 C 0.92391 0.88082 0.0171 0.0
C527 C 0.90304 0.90911 0.97846 0.0
C528 C 0.87825 0.90006 0.90788 0.0
C529 C 0.87361 0.86405 0.87717 0.0
C530 C 0.89293 0.83625 0.91672 0.0
C531 C 0.91754 0.84432 0.98626 0.0
H532 H 0.01597 0.32209 0.27594 0.0
C533 C 0.01915 0.32084 0.20588 0.0
H534 H 0.04559 0.34215 0.09881 0.0
H535 H 0.08743 0.47382 0.39239 0.0
H536 H 0.0222 0.48473 0.40004 0.0
H537 H 0.9775 0.44305 0.32349 0.0
H538 H 0.99766 0.39003 0.23964 0.0
C539 C 0.04246 0.34375 0.16892 0.0
C540 C 0.06858 0.36824 0.21975 0.0
C541 C 0.05619 0.39923 0.2679 0.0
C542 C 0.082 0.42364 0.3108 0.0
C543 C 0.069 0.45439 0.35863 0.0
C544 C 0.03165 0.46105 0.36334 0.0
C545 C 0.00648 0.43755 0.32029 0.0
C546 C 0.01844 0.40707 0.27274 0.0
H547 H 0.16492 0.46798 0.2399 0.0
C548 C 0.16777 0.46601 0.31022 0.0
H549 H 0.14841 0.4411 0.42197 0.0
H550 H 0.10155 0.31089 0.13446 0.0
H551 H 0.16666 0.30048 0.1259 0.0
H552 H 0.21129 0.34297 0.19991 0.0
H553 H 0.19103 0.39617 0.28256 0.0
C554 C 0.14678 0.44228 0.35137 0.0
C555 C 0.12003 0.41744 0.30385 0.0
C556 C 0.13241 0.38639 0.25601 0.0
C557 C 0.10666 0.36183 0.21374 0.0
C558 C 0.11981 0.33078 0.16702 0.0
C559 C 0.15717 0.32433 0.16192 0.0
C560 C 0.18228 0.34824 0.20357 0.0
C561 C 0.17023 0.37882 0.2505 0.0
H562 H 0.51982 0.63458 0.42379 0.0
C563 C 0.50368 0.64057 0.4806 0.0
H564 H 0.48763 0.62179 0.60185 0.0
H565 H 0.56943 0.4908 0.3556 0.0
H566 H 0.51238 0.48826 0.26808 0.0
H567 H 0.46163 0.52995 0.30217 0.0
H568 H 0.46726 0.57379 0.4251 0.0
C569 C 0.50212 0.61578 0.54265 0.0
C570 C 0.52644 0.58334 0.53715 0.0
C571 C 0.52274 0.55815 0.46521 0.0
C572 C 0.55218 0.53473 0.44458 0.0
C573 C 0.54791 0.50963 0.37268 0.0
C574 C 0.51539 0.50787 0.32235 0.0
C575 C 0.48682 0.53136 0.3415 0.0
C576 C 0.4904 0.55643 0.4118 0.0
H577 H 0.63577 0.4846 0.53605 0.0
C578 C 0.64193 0.4993 0.47818 0.0
H579 H 0.62516 0.53946 0.39076 0.0
H580 H 0.53788 0.6208 0.69325 0.0
H581 H 0.59313 0.62043 0.78575 0.0
H582 H 0.64584 0.58258 0.7451 0.0
H583 H 0.64346 0.54457 0.61276 0.0
C584 C 0.61959 0.52589 0.45064 0.0
C585 C 0.58564 0.53752 0.4938 0.0
C586 C 0.58752 0.55908 0.57246 0.0
C587 C 0.5574 0.58151 0.59507 0.0
C588 C 0.56007 0.60352 0.67272 0.0
C589 C 0.5916 0.60353 0.72642 0.0
C590 C 0.62126 0.58219 0.70356 0.0
C591 C 0.61951 0.56039 0.62726 0.0
loop_
_geom_bond_atom_site_label_1
_geom_bond_atom_site_label_2
_geom_bond_distance
_geom_bond_site_symmetry_2
_ccdc_geom_bond_type
Zn0 O3 2.031 . S
Zn0 O5 2.049 . S
Zn0 O10 2.067 . S
Zn1 O2 1.962 . S
Zn1 O4 1.986 . S
Zn1 O6 1.996 . S
Zn1 O9 1.943 . S
O2 Zn1 1.962 . S
O2 C7 1.254 . S
O3 Zn0 2.031 . S
O3 C7 1.269 . S
O4 Zn1 1.986 . S
O4 C11 1.262 . S
O5 Zn0 2.049 . S
O5 C13 1.260 . S
O6 Zn1 1.996 . S
O6 C13 1.257 . S
C7 O2 1.254 . S
C7 O3 1.269 . S
C8 O9 1.249 . S
C8 O10 1.270 . S
O9 Zn1 1.943 . S
O9 C8 1.249 . S
O10 Zn0 2.067 . S
O10 C8 1.270 . S
C11 O4 1.262 . S
C11 O12 1.232 . S
O12 C11 1.232 . S
C13 O5 1.260 . S
C13 O6 1.257 . S
Zn14 O17 2.031 . S
Zn14 O19 2.049 . S
Zn14 O24 2.067 . S
Zn15 O16 1.962 . S
Zn15 O18 1.986 . S
Zn15 O20 1.996 . S
Zn15 O23 1.943 . S
O16 Zn15 1.962 . S
O16 C21 1.254 . S
O17 Zn14 2.031 . S
O17 C21 1.269 . S
O18 Zn15 1.986 . S
O18 C25 1.262 . S
O19 Zn14 2.049 . S
O19 C27 1.260 . S
O20 Zn15 1.996 . S
O20 C27 1.257 . S
C21 O16 1.254 . S
C21 O17 1.269 . S
C22 O23 1.249 . S
C22 O24 1.270 . S
O23 Zn15 1.943 . S
O23 C22 1.249 . S
O24 Zn14 2.067 . S
O24 C22 1.270 . S
C25 O18 1.262 . S
C25 O26 1.232 . S
O26 C25 1.232 . S
C27 O19 1.260 . S
C27 O20 1.257 . S
Zn28 O31 2.031 1_545 S
Zn28 O33 2.049 . S
Zn28 O38 2.067 . S
Zn29 O30 1.962 . S
Zn29 O32 1.986 . S
Zn29 O34 1.996 . S
Zn29 O37 1.943 . S
O30 Zn29 1.962 . S
O30 C35 1.254 . S
O31 Zn28 2.031 1_565 S
O31 C35 1.269 . S
O32 Zn29 1.986 . S
O32 C39 1.262 1_556 S
O33 Zn28 2.049 . S
O33 C41 1.260 . S
O34 Zn29 1.996 . S
O34 C41 1.257 1_565 S
C35 O30 1.254 . S
C35 O31 1.269 . S
C36 O37 1.249 1_545 S
C36 O38 1.270 . S
O37 Zn29 1.943 . S
O37 C36 1.249 1_565 S
O38 Zn28 2.067 . S
O38 C36 1.270 . S
C39 O32 1.262 1_554 S
C39 O40 1.232 1_554 S
O40 C39 1.232 1_556 S
C41 O33 1.260 . S
C41 O34 1.257 1_545 S
Zn42 O45 2.031 1_655 S
Zn42 O47 2.049 . S
Zn42 O52 2.067 . S
Zn43 O44 1.962 . S
Zn43 O46 1.986 . S
Zn43 O48 1.996 . S
Zn43 O51 1.943 . S
O44 Zn43 1.962 . S
O44 C49 1.254 . S
O45 Zn42 2.031 1_455 S
O45 C49 1.269 . S
O46 Zn43 1.986 . S
O46 C53 1.262 1_554 S
O47 Zn42 2.049 . S
O47 C55 1.260 . S
O48 Zn43 1.996 . S
O48 C55 1.257 1_455 S
C49 O44 1.254 . S
C49 O45 1.269 . S
C50 O51 1.249 1_655 S
C50 O52 1.270 . S
O51 Zn43 1.943 . S
O51 C50 1.249 1_455 S
O52 Zn42 2.067 . S
O52 C50 1.270 . S
C53 O46 1.262 1_556 S
C53 O54 1.232 1_556 S
O54 C53 1.232 1_554 S
C55 O47 1.260 . S
C55 O48 1.257 1_655 S
Zn56 O59 2.031 1_564 S
Zn56 O61 2.049 . S
Zn56 O66 2.067 1_554 S
Zn57 O58 1.962 . S
Zn57 O60 1.986 . S
Zn57 O62 1.996 . S
Zn57 O65 1.943 . S
O58 Zn57 1.962 . S
O58 C63 1.258 . S
O59 Zn56 2.031 1_546 S
O59 C63 1.269 . S
O60 Zn57 1.986 . S
O60 C67 1.262 . S
O61 Zn56 2.049 . S
O61 C69 1.260 1_554 S
O62 Zn57 1.996 . S
O62 C69 1.257 1_545 S
C63 O58 1.258 . S
C63 O59 1.269 . S
C64 O65 1.249 1_565 S
C64 O66 1.270 . S
O65 Zn57 1.943 . S
O65 C64 1.249 1_545 S
O66 Zn56 2.067 1_556 S
O66 C64 1.270 . S
C67 O60 1.262 . S
C67 O68 1.232 . S
O68 C67 1.232 . S
C69 O61 1.260 1_556 S
C69 O62 1.257 1_565 S
Zn70 O73 2.031 1_456 S
Zn70 O75 2.049 . S
Zn70 O80 2.067 1_556 S
Zn71 O72 1.962 . S
Zn71 O74 1.986 . S
Zn71 O76 1.996 . S
Zn71 O79 1.943 . S
O72 Zn71 1.962 . S
O72 C77 1.258 . S
O73 Zn70 2.031 1_654 S
O73 C77 1.269 . S
O74 Zn71 1.986 . S
O74 C81 1.262 . S
O75 Zn70 2.049 . S
O75 C83 1.260 1_556 S
O76 Zn71 1.996 . S
O76 C83 1.257 1_655 S
C77 O72 1.258 . S
C77 O73 1.269 . S
C78 O79 1.249 1_455 S
C78 O80 1.270 . S
O79 Zn71 1.943 . S
O79 C78 1.249 1_655 S
O80 Zn70 2.067 1_554 S
O80 C78 1.270 . S
C81 O74 1.262 . S
C81 O82 1.232 . S
O82 C81 1.232 . S
C83 O75 1.260 1_554 S
C83 O76 1.257 1_455 S
Zn84 O87 2.031 . S
Zn84 O89 2.049 . S
Zn84 O94 2.067 . S
Zn85 O86 1.962 . S
Zn85 O88 1.986 . S
Zn85 O90 1.996 . S
Zn85 O93 1.943 . S
O86 Zn85 1.962 . S
O86 C91 1.254 . S
O87 Zn84 2.031 . S
O87 C91 1.269 . S
O88 Zn85 1.986 . S
O88 C95 1.262 . S
O89 Zn84 2.049 . S
O89 C97 1.260 . S
O90 Zn85 1.996 . S
O90 C97 1.257 . S
C91 O86 1.254 . S
C91 O87 1.269 . S
C92 O93 1.249 . S
C92 O94 1.270 . S
O93 Zn85 1.943 . S
O93 C92 1.249 . S
O94 Zn84 2.067 . S
O94 C92 1.270 . S
C95 O88 1.262 . S
C95 O96 1.232 . S
O96 C95 1.232 . S
C97 O89 1.260 . S
C97 O90 1.257 . S
Zn98 O101 2.031 . S
Zn98 O103 2.049 . S
Zn98 O108 2.067 . S
Zn99 O100 1.962 . S
Zn99 O102 1.986 . S
Zn99 O104 1.996 . S
Zn99 O107 1.943 . S
O100 Zn99 1.962 . S
O100 C105 1.254 . S
O101 Zn98 2.031 . S
O101 C105 1.269 . S
O102 Zn99 1.986 . S
O102 C109 1.262 . S
O103 Zn98 2.049 . S
O103 C111 1.260 . S
O104 Zn99 1.996 . S
O104 C111 1.257 . S
C105 O100 1.254 . S
C105 O101 1.269 . S
C106 O107 1.249 . S
C106 O108 1.270 . S
O107 Zn99 1.943 . S
O107 C106 1.249 . S
O108 Zn98 2.067 . S
O108 C106 1.270 . S
C109 O102 1.262 . S
C109 O110 1.232 . S
O110 C109 1.232 . S
C111 O103 1.260 . S
C111 O104 1.257 . S
H112 C113 0.951 . S
C113 H112 0.951 . S
C113 C119 1.265 . S
H114 C119 0.950 . S
H115 C123 0.949 . S
H116 C124 0.950 . S
H117 C125 0.951 . S
H118 C126 0.951 . S
C119 C113 1.265 . S
C119 H114 0.950 . S
C119 C120 1.478 . S
C120 C119 1.478 . S
C120 C121 1.397 1_556 S
C120 C137 1.394 . S
C121 C120 1.397 1_554 S
C121 C122 1.438 . S
C121 C126 1.429 . S
C122 C121 1.438 . S
C122 C123 1.428 . S
C122 C135 1.394 . S
C123 H115 0.949 . S
C123 C122 1.428 . S
C123 C124 1.345 . S
C124 H116 0.950 . S
C124 C123 1.345 . S
C124 C125 1.424 . S
C125 H117 0.951 . S
C125 C124 1.424 . S
C125 C126 1.347 . S
C126 H118 0.951 . S
C126 C121 1.429 . S
C126 C125 1.347 . S
H127 C128 0.951 . S
C128 H127 0.951 . S
C128 C134 1.265 . S
H129 C134 0.950 . S
H130 C138 0.949 . S
H131 C139 0.950 . S
H132 C140 0.951 . S
H133 C141 0.951 . S
C134 C128 1.265 . S
C134 H129 0.950 . S
C134 C135 1.478 . S
C135 C122 1.394 . S
C135 C134 1.478 . S
C135 C136 1.397 1_554 S
C136 C135 1.397 1_556 S
C136 C137 1.438 . S
C136 C141 1.429 . S
C137 C120 1.394 . S
C137 C136 1.438 . S
C137 C138 1.428 . S
C138 H130 0.949 . S
C138 C137 1.428 . S
C138 C139 1.345 . S
C139 H131 0.950 . S
C139 C138 1.345 . S
C139 C140 1.424 . S
C140 H132 0.951 . S
C140 C139 1.424 . S
C140 C141 1.347 . S
C141 H133 0.951 . S
C141 C136 1.429 . S
C141 C140 1.347 . S
H142 C143 0.951 . S
C143 H142 0.951 . S
C143 C149 1.265 . S
H144 C149 0.950 . S
H145 C153 0.949 . S
H146 C154 0.950 . S
H147 C155 0.951 . S
H148 C156 0.951 . S
C149 C143 1.265 . S
C149 H144 0.950 . S
C149 C150 1.478 . S
C150 C149 1.478 . S
C150 C151 1.397 . S
C150 C167 1.394 . S
C151 C150 1.397 . S
C151 C152 1.438 . S
C151 C156 1.429 . S
C152 C151 1.438 . S
C152 C153 1.428 . S
C152 C165 1.394 . S
C153 H145 0.949 . S
C153 C152 1.428 . S
C153 C154 1.345 . S
C154 H146 0.950 . S
C154 C153 1.345 . S
C154 C155 1.424 . S
C155 H147 0.951 . S
C155 C154 1.424 . S
C155 C156 1.347 . S
C156 H148 0.951 . S
C156 C151 1.429 . S
C156 C155 1.347 . S
H157 C158 0.951 . S
C158 H157 0.951 . S
C158 C164 1.265 . S
H159 C164 0.950 . S
H160 C168 0.949 . S
H161 C169 0.950 . S
H162 C170 0.951 . S
H163 C171 0.951 . S
C164 C158 1.265 . S
C164 H159 0.950 . S
C164 C165 1.478 . S
C165 C152 1.394 . S
C165 C164 1.478 . S
C165 C166 1.397 . S
C166 C165 1.397 . S
C166 C167 1.438 . S
C166 C171 1.429 . S
C167 C150 1.394 . S
C167 C166 1.438 . S
C167 C168 1.428 . S
C168 H160 0.949 . S
C168 C167 1.428 . S
C168 C169 1.345 . S
C169 H161 0.950 . S
C169 C168 1.345 . S
C169 C170 1.424 . S
C170 H162 0.951 . S
C170 C169 1.424 . S
C170 C171 1.347 . S
C171 H163 0.951 . S
C171 C166 1.429 . S
C171 C170 1.347 . S
H172 C173 0.951 . S
C173 H172 0.951 . S
C173 C179 1.265 . S
H174 C179 0.950 . S
H175 C183 0.949 . S
H176 C184 0.950 . S
H177 C185 0.951 . S
H178 C186 0.951 . S
C179 C173 1.265 . S
C179 H174 0.950 . S
C179 C180 1.478 . S
C180 C179 1.478 . S
C180 C181 1.397 . S
C180 C197 1.394 . S
C181 C180 1.397 . S
C181 C182 1.438 . S
C181 C186 1.429 . S
C182 C181 1.438 . S
C182 C183 1.428 . S
C182 C195 1.394 . S
C183 H175 0.949 . S
C183 C182 1.428 . S
C183 C184 1.345 . S
C184 H176 0.950 . S
C184 C183 1.345 . S
C184 C185 1.424 . S
C185 H177 0.951 . S
C185 C184 1.424 . S
C185 C186 1.347 . S
C186 H178 0.951 . S
C186 C181 1.429 . S
C186 C185 1.347 . S
H187 C188 0.951 . S
C188 H187 0.951 . S
C188 C194 1.265 . S
H189 C194 0.950 . S
H190 C198 0.949 . S
H191 C199 0.950 . S
H192 C200 0.951 . S
H193 C201 0.951 . S
C194 C188 1.265 . S
C194 H189 0.950 . S
C194 C195 1.478 . S
C195 C182 1.394 . S
C195 C194 1.478 . S
C195 C196 1.397 . S
C196 C195 1.397 . S
C196 C197 1.438 . S
C196 C201 1.429 . S
C197 C180 1.394 . S
C197 C196 1.438 . S
C197 C198 1.428 . S
C198 H190 0.949 . S
C198 C197 1.428 . S
C198 C199 1.345 . S
C199 H191 0.950 . S
C199 C198 1.345 . S
C199 C200 1.424 . S
C200 H192 0.951 . S
C200 C199 1.424 . S
C200 C201 1.347 . S
C201 H193 0.951 . S
C201 C196 1.429 . S
C201 C200 1.347 . S
H202 C203 0.951 . S
C203 H202 0.951 . S
C203 C209 1.265 . S
H204 C209 0.950 . S
H205 C213 0.949 . S
H206 C214 0.950 . S
H207 C215 0.951 . S
H208 C216 0.951 . S
C209 C203 1.265 . S
C209 H204 0.950 . S
C209 C210 1.478 . S
C210 C209 1.478 . S
C210 C211 1.397 . S
C210 C227 1.394 . S
C211 C210 1.397 . S
C211 C212 1.438 . S
C211 C216 1.429 . S
C212 C211 1.438 . S
C212 C213 1.428 . S
C212 C225 1.394 . S
C213 H205 0.949 . S
C213 C212 1.428 . S
C213 C214 1.345 . S
C214 H206 0.950 . S
C214 C213 1.345 . S
C214 C215 1.424 . S
C215 H207 0.951 . S
C215 C214 1.424 . S
C215 C216 1.347 . S
C216 H208 0.951 . S
C216 C211 1.429 . S
C216 C215 1.347 . S
H217 C218 0.951 . S
C218 H217 0.951 . S
C218 C224 1.265 . S
H219 C224 0.950 . S
H220 C228 0.949 . S
H221 C229 0.950 . S
H222 C230 0.951 . S
H223 C231 0.951 . S
C224 C218 1.265 . S
C224 H219 0.950 . S
C224 C225 1.478 . S
C225 C212 1.394 . S
C225 C224 1.478 . S
C225 C226 1.397 . S
C226 C225 1.397 . S
C226 C227 1.438 . S
C226 C231 1.429 . S
C227 C210 1.394 . S
C227 C226 1.438 . S
C227 C228 1.428 . S
C228 H220 0.949 . S
C228 C227 1.428 . S
C228 C229 1.345 . S
C229 H221 0.950 . S
C229 C228 1.345 . S
C229 C230 1.424 . S
C230 H222 0.951 . S
C230 C229 1.424 . S
C230 C231 1.347 . S
C231 H223 0.951 . S
C231 C226 1.429 . S
C231 C230 1.347 . S
H232 C233 0.951 . S
C233 H232 0.951 . S
C233 C239 1.265 . S
H234 C239 0.950 . S
H235 C243 0.949 . S
H236 C244 0.950 . S
H237 C245 0.951 . S
H238 C246 0.951 . S
C239 C233 1.265 . S
C239 H234 0.950 . S
C239 C240 1.478 . S
C240 C239 1.478 . S
C240 C241 1.397 . S
C240 C257 1.394 . S
C241 C240 1.397 . S
C241 C242 1.438 . S
C241 C246 1.429 . S
C242 C241 1.438 . S
C242 C243 1.428 . S
C242 C255 1.394 . S
C243 H235 0.949 . S
C243 C242 1.428 . S
C243 C244 1.345 . S
C244 H236 0.950 . S
C244 C243 1.345 . S
C244 C245 1.424 . S
C245 H237 0.951 . S
C245 C244 1.424 . S
C245 C246 1.347 . S
C246 H238 0.951 . S
C246 C241 1.429 . S
C246 C245 1.347 . S
H247 C248 0.951 . S
C248 H247 0.951 . S
C248 C254 1.265 . S
H249 C254 0.950 . S
H250 C258 0.949 . S
H251 C259 0.950 . S
H252 C260 0.951 . S
H253 C261 0.951 . S
C254 C248 1.265 . S
C254 H249 0.950 . S
C254 C255 1.478 . S
C255 C242 1.394 . S
C255 C254 1.478 . S
C255 C256 1.397 . S
C256 C255 1.397 . S
C256 C257 1.438 . S
C256 C261 1.429 . S
C257 C240 1.394 . S
C257 C256 1.438 . S
C257 C258 1.428 . S
C258 H250 0.949 . S
C258 C257 1.428 . S
C258 C259 1.345 . S
C259 H251 0.950 . S
C259 C258 1.345 . S
C259 C260 1.424 . S
C260 H252 0.951 . S
C260 C259 1.424 . S
C260 C261 1.347 . S
C261 H253 0.951 . S
C261 C256 1.429 . S
C261 C260 1.347 . S
H262 C263 0.951 . S
C263 H262 0.951 . S
C263 C269 1.265 . S
H264 C269 0.950 . S
H265 C273 0.949 . S
H266 C274 0.950 . S
H267 C275 0.951 . S
H268 C276 0.951 . S
C269 C263 1.265 . S
C269 H264 0.950 . S
C269 C270 1.478 . S
C270 C269 1.478 . S
C270 C271 1.397 . S
C270 C287 1.394 . S
C271 C270 1.397 . S
C271 C272 1.438 . S
C271 C276 1.429 . S
C272 C271 1.438 . S
C272 C273 1.428 . S
C272 C285 1.394 . S
C273 H265 0.949 . S
C273 C272 1.428 . S
C273 C274 1.345 . S
C274 H266 0.950 . S
C274 C273 1.345 . S
C274 C275 1.424 . S
C275 H267 0.951 . S
C275 C274 1.424 . S
C275 C276 1.347 . S
C276 H268 0.951 . S
C276 C271 1.429 . S
C276 C275 1.347 . S
H277 C278 0.951 . S
C278 H277 0.951 . S
C278 C284 1.265 . S
H279 C284 0.950 . S
H280 C288 0.949 . S
H281 C289 0.950 . S
H282 C290 0.951 . S
H283 C291 0.951 . S
C284 C278 1.265 . S
C284 H279 0.950 . S
C284 C285 1.478 . S
C285 C272 1.394 . S
C285 C284 1.478 . S
C285 C286 1.397 . S
C286 C285 1.397 . S
C286 C287 1.438 . S
C286 C291 1.429 . S
C287 C270 1.394 . S
C287 C286 1.438 . S
C287 C288 1.428 . S
C288 H280 0.949 . S
C288 C287 1.428 . S
C288 C289 1.345 . S
C289 H281 0.950 . S
C289 C288 1.345 . S
C289 C290 1.424 . S
C290 H282 0.951 . S
C290 C289 1.424 . S
C290 C291 1.347 . S
C291 H283 0.951 . S
C291 C286 1.429 . S
C291 C290 1.347 . S
H292 C293 0.951 . S
C293 H292 0.951 . S
C293 C299 1.265 . S
H294 C299 0.950 . S
H295 C303 0.949 . S
H296 C304 0.950 . S
H297 C305 0.951 . S
H298 C306 0.951 . S
C299 C293 1.265 . S
C299 H294 0.950 . S
C299 C300 1.478 . S
C300 C299 1.478 . S
C300 C301 1.397 . S
C300 C317 1.394 . S
C301 C300 1.397 . S
C301 C302 1.438 1_554 S
C301 C306 1.429 . S
C302 C301 1.438 1_556 S
C302 C303 1.428 . S
C302 C315 1.394 . S
C303 H295 0.949 . S
C303 C302 1.428 . S
C303 C304 1.345 . S
C304 H296 0.950 . S
C304 C303 1.345 . S
C304 C305 1.424 1_556 S
C305 H297 0.951 . S
C305 C304 1.424 1_554 S
C305 C306 1.347 . S
C306 H298 0.951 . S
C306 C301 1.429 . S
C306 C305 1.347 . S
H307 C308 0.951 . S
C308 H307 0.951 . S
C308 C314 1.265 . S
H309 C314 0.950 . S
H310 C318 0.949 . S
H311 C319 0.950 . S
H312 C320 0.951 . S
H313 C321 0.951 . S
C314 C308 1.265 . S
C314 H309 0.950 . S
C314 C315 1.478 . S
C315 C302 1.394 . S
C315 C314 1.478 . S
C315 C316 1.397 . S
C316 C315 1.397 . S
C316 C317 1.438 1_556 S
C316 C321 1.429 . S
C317 C300 1.394 . S
C317 C316 1.438 1_554 S
C317 C318 1.428 . S
C318 H310 0.949 . S
C318 C317 1.428 . S
C318 C319 1.345 . S
C319 H311 0.950 . S
C319 C318 1.345 . S
C319 C320 1.424 1_554 S
C320 H312 0.951 . S
C320 C319 1.424 1_556 S
C320 C321 1.347 . S
C321 H313 0.951 . S
C321 C316 1.429 . S
C321 C320 1.347 . S
H322 C323 0.951 . S
C323 H322 0.951 . S
C323 C329 1.265 . S
H324 C329 0.950 . S
H325 C333 0.949 . S
H326 C334 0.950 . S
H327 C335 0.951 . S
H328 C336 0.951 . S
C329 C323 1.265 . S
C329 H324 0.950 . S
C329 C330 1.478 . S
C330 C329 1.478 . S
C330 C331 1.397 . S
C330 C347 1.394 . S
C331 C330 1.397 . S
C331 C332 1.438 . S
C331 C336 1.429 . S
C332 C331 1.438 . S
C332 C333 1.428 . S
C332 C345 1.394 . S
C333 H325 0.949 . S
C333 C332 1.428 . S
C333 C334 1.345 . S
C334 H326 0.950 . S
C334 C333 1.345 . S
C334 C335 1.424 . S
C335 H327 0.951 . S
C335 C334 1.424 . S
C335 C336 1.347 . S
C336 H328 0.951 . S
C336 C331 1.429 . S
C336 C335 1.347 . S
H337 C338 0.951 . S
C338 H337 0.951 . S
C338 C344 1.265 . S
H339 C344 0.950 . S
H340 C348 0.949 . S
H341 C349 0.950 . S
H342 C350 0.951 . S
H343 C351 0.951 . S
C344 C338 1.265 . S
C344 H339 0.950 . S
C344 C345 1.478 . S
C345 C332 1.394 . S
C345 C344 1.478 . S
C345 C346 1.397 . S
C346 C345 1.397 . S
C346 C347 1.438 . S
C346 C351 1.429 . S
C347 C330 1.394 . S
C347 C346 1.438 . S
C347 C348 1.428 . S
C348 H340 0.949 . S
C348 C347 1.428 . S
C348 C349 1.345 . S
C349 H341 0.950 . S
C349 C348 1.345 . S
C349 C350 1.424 . S
C350 H342 0.951 . S
C350 C349 1.424 . S
C350 C351 1.347 . S
C351 H343 0.951 . S
C351 C346 1.429 . S
C351 C350 1.347 . S
H352 C353 0.951 . S
C353 H352 0.951 . S
C353 C359 1.265 . S
H354 C359 0.950 . S
H355 C363 0.949 . S
H356 C364 0.950 . S
H357 C365 0.951 . S
H358 C366 0.951 . S
C359 C353 1.265 . S
C359 H354 0.950 . S
C359 C360 1.478 . S
C360 C359 1.478 . S
C360 C361 1.397 . S
C360 C377 1.394 . S
C361 C360 1.397 . S
C361 C362 1.438 . S
C361 C366 1.429 . S
C362 C361 1.438 . S
C362 C363 1.428 . S
C362 C375 1.394 . S
C363 H355 0.949 . S
C363 C362 1.428 . S
C363 C364 1.345 . S
C364 H356 0.950 . S
C364 C363 1.345 . S
C364 C365 1.424 . S
C365 H357 0.951 . S
C365 C364 1.424 . S
C365 C366 1.347 . S
C366 H358 0.951 . S
C366 C361 1.429 . S
C366 C365 1.347 . S
H367 C368 0.951 . S
C368 H367 0.951 . S
C368 C374 1.265 . S
H369 C374 0.950 . S
H370 C378 0.949 . S
H371 C379 0.950 . S
H372 C380 0.951 . S
H373 C381 0.951 . S
C374 C368 1.265 . S
C374 H369 0.950 . S
C374 C375 1.478 . S
C375 C362 1.394 . S
C375 C374 1.478 . S
C375 C376 1.397 . S
C376 C375 1.397 . S
C376 C377 1.438 . S
C376 C381 1.429 . S
C377 C360 1.394 . S
C377 C376 1.438 . S
C377 C378 1.428 . S
C378 H370 0.949 . S
C378 C377 1.428 . S
C378 C379 1.345 . S
C379 H371 0.950 . S
C379 C378 1.345 . S
C379 C380 1.424 . S
C380 H372 0.951 . S
C380 C379 1.424 . S
C380 C381 1.347 . S
C381 H373 0.951 . S
C381 C376 1.429 . S
C381 C380 1.347 . S
H382 C383 0.951 . S
C383 H382 0.951 . S
C383 C389 1.265 . S
H384 C389 0.950 . S
H385 C393 0.949 . S
H386 C394 0.950 . S
H387 C395 0.951 . S
H388 C396 0.951 . S
C389 C383 1.265 . S
C389 H384 0.950 . S
C389 C390 1.478 . S
C390 C389 1.478 . S
C390 C391 1.397 . S
C390 C407 1.394 . S
C391 C390 1.397 . S
C391 C392 1.438 . S
C391 C396 1.429 . S
C392 C391 1.438 . S
C392 C393 1.428 . S
C392 C405 1.394 . S
C393 H385 0.949 . S
C393 C392 1.428 . S
C393 C394 1.345 . S
C394 H386 0.950 . S
C394 C393 1.345 . S
C394 C395 1.424 . S
C395 H387 0.951 . S
C395 C394 1.424 . S
C395 C396 1.347 . S
C396 H388 0.951 . S
C396 C391 1.429 . S
C396 C395 1.347 . S
H397 C398 0.951 . S
C398 H397 0.951 . S
C398 C404 1.265 . S
H399 C404 0.950 . S
H400 C408 0.949 . S
H401 C409 0.950 1_554 S
H402 C410 0.951 . S
H403 C411 0.951 . S
C404 C398 1.265 . S
C404 H399 0.950 . S
C404 C405 1.478 . S
C405 C392 1.394 . S
C405 C404 1.478 . S
C405 C406 1.397 . S
C406 C405 1.397 . S
C406 C407 1.438 . S
C406 C411 1.429 . S
C407 C390 1.394 . S
C407 C406 1.438 . S
C407 C408 1.428 . S
C408 H400 0.949 . S
C408 C407 1.428 . S
C408 C409 1.345 . S
C409 H401 0.950 1_556 S
C409 C408 1.345 . S
C409 C410 1.424 . S
C410 H402 0.951 . S
C410 C409 1.424 . S
C410 C411 1.347 . S
C411 H403 0.951 . S
C411 C406 1.429 . S
C411 C410 1.347 . S
H412 C413 0.951 . S
C413 H412 0.951 . S
C413 C419 1.265 . S
H414 C419 0.950 . S
H415 C423 0.949 . S
H416 C424 0.950 . S
H417 C425 0.951 . S
H418 C426 0.951 . S
C419 C413 1.265 . S
C419 H414 0.950 . S
C419 C420 1.478 . S
C420 C419 1.478 . S
C420 C421 1.397 1_554 S
C420 C437 1.394 . S
C421 C420 1.397 1_556 S
C421 C422 1.438 . S
C421 C426 1.429 . S
C422 C421 1.438 . S
C422 C423 1.428 . S
C422 C435 1.394 . S
C423 H415 0.949 . S
C423 C422 1.428 . S
C423 C424 1.345 . S
C424 H416 0.950 . S
C424 C423 1.345 . S
C424 C425 1.424 . S
C425 H417 0.951 . S
C425 C424 1.424 . S
C425 C426 1.347 . S
C426 H418 0.951 . S
C426 C421 1.429 . S
C426 C425 1.347 . S
H427 C428 0.951 . S
C428 H427 0.951 . S
C428 C434 1.265 . S
H429 C434 0.950 . S
H430 C438 0.949 . S
H431 C439 0.950 . S
H432 C440 0.951 . S
H433 C441 0.951 . S
C434 C428 1.265 . S
C434 H429 0.950 . S
C434 C435 1.478 . S
C435 C422 1.394 . S
C435 C434 1.478 . S
C435 C436 1.397 1_556 S
C436 C435 1.397 1_554 S
C436 C437 1.438 . S
C436 C441 1.429 . S
C437 C420 1.394 . S
C437 C436 1.438 . S
C437 C438 1.428 . S
C438 H430 0.949 . S
C438 C437 1.428 . S
C438 C439 1.345 . S
C439 H431 0.950 . S
C439 C438 1.345 . S
C439 C440 1.424 . S
C440 H432 0.951 . S
C440 C439 1.424 . S
C440 C441 1.347 . S
C441 H433 0.951 . S
C441 C436 1.429 . S
C441 C440 1.347 . S
H442 C443 0.951 . S
C443 H442 0.951 . S
C443 C449 1.265 . S
H444 C449 0.950 . S
H445 C453 0.949 . S
H446 C454 0.950 . S
H447 C455 0.951 . S
H448 C456 0.951 . S
C449 C443 1.265 . S
C449 H444 0.950 . S
C449 C450 1.478 . S
C450 C449 1.478 . S
C450 C451 1.397 . S
C450 C467 1.394 . S
C451 C450 1.397 . S
C451 C452 1.438 . S
C451 C456 1.429 . S
C452 C451 1.438 . S
C452 C453 1.428 . S
C452 C465 1.394 . S
C453 H445 0.949 . S
C453 C452 1.428 . S
C453 C454 1.345 . S
C454 H446 0.950 . S
C454 C453 1.345 . S
C454 C455 1.424 . S
C455 H447 0.951 . S
C455 C454 1.424 . S
C455 C456 1.347 . S
C456 H448 0.951 . S
C456 C451 1.429 . S
C456 C455 1.347 . S
H457 C458 0.951 . S
C458 H457 0.951 . S
C458 C464 1.265 . S
H459 C464 0.950 . S
H460 C468 0.949 . S
H461 C469 0.950 . S
H462 C470 0.951 . S
H463 C471 0.951 . S
C464 C458 1.265 . S
C464 H459 0.950 . S
C464 C465 1.478 . S
C465 C452 1.394 . S
C465 C464 1.478 . S
C465 C466 1.397 . S
C466 C465 1.397 . S
C466 C467 1.438 . S
C466 C471 1.429 . S
C467 C450 1.394 . S
C467 C466 1.438 . S
C467 C468 1.428 . S
C468 H460 0.949 . S
C468 C467 1.428 . S
C468 C469 1.345 . S
C469 H461 0.950 . S
C469 C468 1.345 . S
C469 C470 1.424 . S
C470 H462 0.951 . S
C470 C469 1.424 . S
C470 C471 1.347 . S
C471 H463 0.951 . S
C471 C466 1.429 . S
C471 C470 1.347 . S
H472 C473 0.951 . S
C473 H472 0.951 . S
C473 C479 1.265 . S
H474 C479 0.950 . S
H475 C483 0.949 . S
H476 C484 0.950 . S
H477 C485 0.951 . S
H478 C486 0.951 . S
C479 C473 1.265 . S
C479 H474 0.950 . S
C479 C480 1.478 . S
C480 C479 1.478 . S
C480 C481 1.397 . S
C480 C497 1.394 . S
C481 C480 1.397 . S
C481 C482 1.438 . S
C481 C486 1.429 . S
C482 C481 1.438 . S
C482 C483 1.428 . S
C482 C495 1.394 . S
C483 H475 0.949 . S
C483 C482 1.428 . S
C483 C484 1.345 . S
C484 H476 0.950 . S
C484 C483 1.345 . S
C484 C485 1.424 . S
C485 H477 0.951 . S
C485 C484 1.424 . S
C485 C486 1.347 . S
C486 H478 0.951 . S
C486 C481 1.429 . S
C486 C485 1.347 . S
H487 C488 0.951 . S
C488 H487 0.951 . S
C488 C494 1.265 . S
H489 C494 0.950 . S
H490 C498 0.949 . S
H491 C499 0.950 . S
H492 C500 0.951 . S
H493 C501 0.951 . S
C494 C488 1.265 . S
C494 H489 0.950 . S
C494 C495 1.478 . S
C495 C482 1.394 . S
C495 C494 1.478 . S
C495 C496 1.397 . S
C496 C495 1.397 . S
C496 C497 1.438 . S
C496 C501 1.429 . S
C497 C480 1.394 . S
C497 C496 1.438 . S
C497 C498 1.428 . S
C498 H490 0.949 . S
C498 C497 1.428 . S
C498 C499 1.345 . S
C499 H491 0.950 . S
C499 C498 1.345 . S
C499 C500 1.424 . S
C500 H492 0.951 . S
C500 C499 1.424 . S
C500 C501 1.347 . S
C501 H493 0.951 . S
C501 C496 1.429 . S
C501 C500 1.347 . S
H502 C503 0.951 . S
C503 H502 0.951 . S
C503 C509 1.265 . S
H504 C509 0.950 . S
H505 C513 0.949 . S
H506 C514 0.950 . S
H507 C515 0.951 . S
H508 C516 0.951 . S
C509 C503 1.265 . S
C509 H504 0.950 . S
C509 C510 1.478 . S
C510 C509 1.478 . S
C510 C511 1.397 1_556 S
C510 C527 1.394 . S
C511 C510 1.397 1_554 S
C511 C512 1.438 . S
C511 C516 1.429 . S
C512 C511 1.438 . S
C512 C513 1.428 . S
C512 C525 1.394 . S
C513 H505 0.949 . S
C513 C512 1.428 . S
C513 C514 1.345 . S
C514 H506 0.950 . S
C514 C513 1.345 . S
C514 C515 1.424 . S
C515 H507 0.951 . S
C515 C514 1.424 . S
C515 C516 1.347 . S
C516 H508 0.951 . S
C516 C511 1.429 . S
C516 C515 1.347 . S
H517 C518 0.951 . S
C518 H517 0.951 . S
C518 C524 1.265 . S
H519 C524 0.950 . S
H520 C528 0.949 . S
H521 C529 0.950 . S
H522 C530 0.951 . S
H523 C531 0.951 . S
C524 C518 1.265 . S
C524 H519 0.950 . S
C524 C525 1.478 . S
C525 C512 1.394 . S
C525 C524 1.478 . S
C525 C526 1.397 1_554 S
C526 C525 1.397 1_556 S
C526 C527 1.438 . S
C526 C531 1.429 . S
C527 C510 1.394 . S
C527 C526 1.438 . S
C527 C528 1.428 . S
C528 H520 0.949 . S
C528 C527 1.428 . S
C528 C529 1.345 . S
C529 H521 0.950 . S
C529 C528 1.345 . S
C529 C530 1.424 . S
C530 H522 0.951 . S
C530 C529 1.424 . S
C530 C531 1.347 . S
C531 H523 0.951 . S
C531 C526 1.429 . S
C531 C530 1.347 . S
H532 C533 0.951 . S
C533 H532 0.951 . S
C533 C539 1.265 . S
H534 C539 0.950 . S
H535 C543 0.949 . S
H536 C544 0.950 . S
H537 C545 0.951 . S
H538 C546 0.951 . S
C539 C533 1.265 . S
C539 H534 0.950 . S
C539 C540 1.478 . S
C540 C539 1.478 . S
C540 C541 1.397 . S
C540 C557 1.394 . S
C541 C540 1.397 . S
C541 C542 1.438 . S
C541 C546 1.429 . S
C542 C541 1.438 . S
C542 C543 1.428 . S
C542 C555 1.394 . S
C543 H535 0.949 . S
C543 C542 1.428 . S
C543 C544 1.345 . S
C544 H536 0.950 . S
C544 C543 1.345 . S
C544 C545 1.424 . S
C545 H537 0.951 . S
C545 C544 1.424 . S
C545 C546 1.347 . S
C546 H538 0.951 . S
C546 C541 1.429 . S
C546 C545 1.347 . S
H547 C548 0.951 . S
C548 H547 0.951 . S
C548 C554 1.265 . S
H549 C554 0.950 . S
H550 C558 0.949 . S
H551 C559 0.950 1_556 S
H552 C560 0.951 1_556 S
H553 C561 0.951 . S
C554 C548 1.265 . S
C554 H549 0.950 . S
C554 C555 1.478 . S
C555 C542 1.394 . S
C555 C554 1.478 . S
C555 C556 1.397 . S
C556 C555 1.397 . S
C556 C557 1.438 . S
C556 C561 1.429 . S
C557 C540 1.394 . S
C557 C556 1.438 . S
C557 C558 1.428 . S
C558 H550 0.949 . S
C558 C557 1.428 . S
C558 C559 1.345 . S
C559 H551 0.950 1_554 S
C559 C558 1.345 . S
C559 C560 1.424 . S
C560 H552 0.951 1_554 S
C560 C559 1.424 . S
C560 C561 1.347 . S
C561 H553 0.951 . S
C561 C556 1.429 . S
C561 C560 1.347 . S
H562 C563 0.951 . S
C563 H562 0.951 . S
C563 C569 1.265 . S
H564 C569 0.950 . S
H565 C573 0.949 . S
H566 C574 0.950 . S
H567 C575 0.951 . S
H568 C576 0.951 . S
C569 C563 1.265 . S
C569 H564 0.950 . S
C569 C570 1.478 . S
C570 C569 1.478 . S
C570 C571 1.397 . S
C570 C587 1.394 . S
C571 C570 1.397 . S
C571 C572 1.438 . S
C571 C576 1.429 . S
C572 C571 1.438 . S
C572 C573 1.428 . S
C572 C585 1.394 . S
C573 H565 0.949 . S
C573 C572 1.428 . S
C573 C574 1.345 . S
C574 H566 0.950 . S
C574 C573 1.345 . S
C574 C575 1.424 . S
C575 H567 0.951 . S
C575 C574 1.424 . S
C575 C576 1.347 . S
C576 H568 0.951 . S
C576 C571 1.429 . S
C576 C575 1.347 . S
H577 C578 0.951 . S
C578 H577 0.951 . S
C578 C584 1.265 . S
H579 C584 0.950 . S
H580 C588 0.949 . S
H581 C589 0.950 . S
H582 C590 0.951 . S
H583 C591 0.951 . S
C584 C578 1.265 . S
C584 H579 0.950 . S
C584 C585 1.478 . S
C585 C572 1.394 . S
C585 C584 1.478 . S
C585 C586 1.397 . S
C586 C585 1.397 . S
C586 C587 1.438 . S
C586 C591 1.429 . S
C587 C570 1.394 . S
C587 C586 1.438 . S
C587 C588 1.428 . S
C588 H580 0.949 . S
C588 C587 1.428 . S
C588 C589 1.345 . S
C589 H581 0.950 . S
C589 C588 1.345 . S
C589 C590 1.424 . S
C590 H582 0.951 . S
C590 C589 1.424 . S
C590 C591 1.347 . S
C591 H583 0.951 . S
C591 C586 1.429 . S
C591 C590 1.347 . S
C113 C25 1.442 . S
C128 C11 1.445 . S
C143 C21 1.415 . S
C158 C39 1.401 . S
C173 C49 1.384 . S
C188 C35 1.365 . S
C203 C53 1.409 . S
C218 C7 1.387 . S
C233 C67 1.442 . S
C248 C81 1.438 . S
C263 C77 1.355 1_556 S
C278 C95 1.403 . S
C293 C91 1.335 . S
C308 C105 1.326 . S
C323 C63 1.356 1_554 S
C338 C109 1.402 . S
C353 C13 1.320 . S
C368 C106 1.450 . S
C383 C64 1.501 . S
C398 C22 1.577 . S
C413 C83 1.341 . S
C428 C36 1.436 . S
C443 C55 1.181 . S
C458 C97 1.273 . S
C473 C41 1.184 . S
C488 C111 1.277 . S
C503 C69 1.327 . S
C518 C50 1.446 . S
C533 C78 1.492 . S
C548 C8 1.569 . S
C563 C27 1.338 . S
C578 C92 1.439 . S
