# Generated by pormake.
# Topology qtz-x, (6)-cn, num edge types: 1
# Building blocks:
#     Node 0, Type 0, BuildingBlock: BETDIP_clean_sbu_0, # of connection points: 6
#     Node 1, Type 0, BuildingBlock: BETDIP_clean_sbu_0, # of connection points: 6
#     Node 2, Type 0, BuildingBlock: BETDIP_clean_sbu_0, # of connection points: 6
#     Edge 3, Type (0, 0), BuildingBlock: KIFKEQ_clean_linker_1, # of connection points: 2
#     Edge 4, Type (0, 0), BuildingBlock: KIFKEQ_clean_linker_1, # of connection points: 2
#     Edge 5, Type (0, 0), BuildingBlock: KIFKEQ_clean_linker_1, # of connection points: 2
#     Edge 6, Type (0, 0), BuildingBlock: KIFKEQ_clean_linker_1, # of connection points: 2
#     Edge 7, Type (0, 0), BuildingBlock: KIFKEQ_clean_linker_1, # of connection points: 2
#     Edge 8, Type (0, 0), BuildingBlock: KIFKEQ_clean_linker_1, # of connection points: 2
#     Edge 9, Type (0, 0), BuildingBlock: KIFKEQ_clean_linker_1, # of connection points: 2
#     Edge 10, Type (0, 0), BuildingBlock: KIFKEQ_clean_linker_1, # of connection points: 2
#     Edge 11, Type (0, 0), BuildingBlock: KIFKEQ_clean_linker_1, # of connection points: 2
# Relax obj value: 0.233
# Max RMSD: 0.257
# Mean RMSD: 0.238
data_MOF--net-qtz-x--node1-BETDIP_clean_sbu_0--edge1-KIFKEQ_clean_linker_1
_symmetry_space_group_name_H-M    P1
_symmetry_Int_Tables_number       1
_symmetry_cell_setting            triclinic
loop_
_symmetry_equiv_pos_as_xyz
'x, y, z'
_cell_length_a     14.74809
_cell_length_b     14.744159
_cell_length_c     53.310128
_cell_angle_alpha  68.062368
_cell_angle_beta   113.69096
_cell_angle_gamma 120.91039
loop_
_atom_site_label
_atom_site_type_symbol
_atom_site_fract_x
_atom_site_fract_y
_atom_site_fract_z
_atom_type_partial_charge
Tb0 Tb 1.03602 0.62618 0.20225 0.0
Tb1 Tb 0.25528 0.77055 0.19386 0.0
C2 C 0.87818 0.47391 0.22163 0.0
C3 C 0.85819 0.4315 0.24981 0.0
C4 C 0.93657 0.40879 0.27384 0.0
C5 C 0.92013 0.37629 0.30051 0.0
C6 C 0.8243 0.36434 0.30378 0.0
C7 C 0.74443 0.384 0.27965 0.0
C8 C 0.76149 0.41768 0.25296 0.0
C9 C 0.08647 0.83454 0.19195 0.0
C10 C 0.24539 0.69694 0.25483 0.0
C11 C 0.41292 0.91775 0.17405 0.0
C12 C 0.4387 0.9353 0.14795 0.0
C13 C 0.38466 -0.01983 0.12173 0.0
C14 C 0.39567 -0.0202 0.09689 0.0
C15 C 0.46188 0.9356 0.09775 0.0
C16 C 0.52163 0.89757 0.12399 0.0
C17 C 0.51032 0.89758 0.14878 0.0
C18 C 0.20473 0.56194 0.20353 0.0
C19 C 1.04918 0.70682 0.1407 0.0
O20 O 0.95448 0.4607 0.21875 0.0
O21 O 0.88315 0.57068 0.20909 0.0
O22 O 0.1489 0.789 0.20731 0.0
O23 O 0.99045 0.76184 0.18254 0.0
O24 O 0.1457 0.62349 0.24546 0.0
O25 O 0.29998 0.77737 0.23715 0.0
O26 O 0.3263 0.92884 0.17106 0.0
O27 O 0.41824 0.8324 0.19324 0.0
O28 O 0.14201 0.60752 0.18865 0.0
O29 O 0.30106 0.63543 0.21212 0.0
O30 O 0.14955 0.776 0.15097 0.0
O31 O 0.98931 0.62738 0.15763 0.0
H32 H 1.01147 0.41746 0.27212 0.0
H33 H 0.98251 0.36021 0.31861 0.0
H34 H 0.66994 0.376 0.28145 0.0
H35 H 0.69976 0.43455 0.23477 0.0
H36 H 0.33026 0.01165 0.12032 0.0
H37 H 0.34861 0.00984 0.07704 0.0
H38 H 0.57564 0.86562 0.12539 0.0
H39 H 0.5547 0.86427 0.16861 0.0
Tb40 Tb 0.84976 0.16485 0.56241 0.0
Tb41 Tb 0.75256 0.938 0.55895 0.0
C42 C 0.90595 0.33837 0.57489 0.0
C43 C 0.9425 0.37285 0.60126 0.0
C44 C 0.89263 0.30575 0.62326 0.0
C45 C 0.93085 0.33922 0.64837 0.0
C46 C 1.02006 0.44014 0.65204 0.0
C47 C 0.0703 0.50639 0.63 0.0
C48 C 1.03166 0.47309 0.60487 0.0
C49 C 0.98376 0.10832 0.55737 0.0
C50 C 0.83822 -0.02129 0.6187 0.0
C51 C 0.69787 0.76862 0.54463 0.0
C52 C 0.6629 0.74413 0.51681 0.0
C53 C 0.72495 0.81113 0.49719 0.0
C54 C 0.68335 0.79621 0.46969 0.0
C55 C 0.57849 0.71453 0.46108 0.0
C56 C 0.51875 0.6444 0.48109 0.0
C57 C 0.56064 0.65911 0.50867 0.0
C58 C 0.61692 -0.00733 0.56389 0.0
C59 C 0.76483 0.12625 0.50283 0.0
O60 O 0.80391 0.26823 0.56774 0.0
O61 O 0.97339 0.31548 0.57107 0.0
O62 O 0.91721 0.05211 0.57248 0.0
O63 O 0.97927 0.20061 0.54537 0.0
O64 O 0.84968 0.07875 0.60607 0.0
O65 O 0.81128 0.90799 0.60443 0.0
O66 O 0.79998 0.83659 0.55311 0.0
O67 O 0.63008 0.78821 0.54942 0.0
O68 O 0.68454 0.05036 0.54901 0.0
O69 O 0.62077 0.89987 0.57525 0.0
O70 O 0.75532 0.02663 0.51536 0.0
O71 O 0.78828 0.19472 0.51725 0.0
H72 H 0.8241 0.22753 0.62108 0.0
H73 H 0.88927 0.28666 0.66471 0.0
H74 H 0.14028 0.58369 0.63224 0.0
H75 H 0.07204 0.52544 0.58827 0.0
H76 H 0.80402 0.87762 0.50274 0.0
H77 H 0.73247 0.85052 0.45497 0.0
H78 H 0.43753 0.58114 0.47518 0.0
H79 H 0.5111 0.60663 0.52339 0.0
Tb80 Tb 0.80974 0.82886 0.86983 0.0
Tb81 Tb 0.9781 0.7457 0.88906 0.0
C82 C 0.64977 0.86073 0.86423 0.0
C83 C 0.60103 0.85537 0.88441 0.0
C84 C 0.58181 0.76807 0.90748 0.0
C85 C 0.5495 0.77068 0.92839 0.0
C86 C 0.53658 0.86095 0.92685 0.0
C87 C 0.55025 0.9457 0.90299 0.0
C88 C 0.58224 0.94285 0.88198 0.0
C89 C 1.01184 -0.0219 0.87091 0.0
C90 C 0.91699 0.76154 0.93561 0.0
C91 C 0.14122 0.72064 0.89411 0.0
C92 C 0.17545 0.70844 0.87345 0.0
C93 C 0.20369 0.79271 0.85029 0.0
C94 C 0.21395 0.77346 0.82805 0.0
C95 C 0.1961 0.66966 0.82847 0.0
C96 C 0.17695 0.58792 0.85266 0.0
C97 C 0.167 0.6073 0.87496 0.0
C98 C 0.77621 0.59402 0.88766 0.0
C99 C 0.87049 0.81159 0.82308 0.0
O100 O 0.64024 0.76924 0.86291 0.0
O101 O 0.74839 0.93782 0.86431 0.0
O102 O 0.98262 0.89194 0.889 0.0
O103 O 0.926 -0.01452 0.85173 0.0
O104 O 0.83075 0.77199 0.9157 0.0
O105 O 0.99701 0.76513 0.92937 0.0
O106 O 0.14463 0.81505 0.89058 0.0
O107 O 1.05091 0.64096 0.90012 0.0
O108 O 0.80472 0.68184 0.86994 0.0
O109 O 0.86311 0.58593 0.90606 0.0
O110 O 0.95331 0.79521 0.84321 0.0
O111 O 0.79279 0.81439 0.82885 0.0
H112 H 0.59525 0.69925 0.90991 0.0
H113 H 0.53746 0.70301 0.94619 0.0
H114 H 0.54152 0.01665 0.90119 0.0
H115 H 0.5966 0.01105 0.86435 0.0
H116 H 0.21235 0.87218 0.84858 0.0
H117 H 0.23134 0.83881 0.80998 0.0
H118 H 0.16268 0.50703 0.85366 0.0
H119 H 0.14623 0.54123 0.89269 0.0
H120 H 0.96907 0.95059 0.15739 0.0
H121 H 0.24793 0.96234 0.22869 0.0
H122 H 0.99716 0.1257 0.15975 0.0
H123 H 0.27267 0.13356 0.23239 0.0
H124 H 0.35704 0.48617 0.21869 0.0
H125 H 0.33044 0.31521 0.21459 0.0
H126 H 0.98096 0.21955 0.18282 0.0
H127 H 1.00976 0.39505 0.18526 0.0
C128 C 1.03623 -0.00931 0.17366 0.0
C129 C 0.10656 0.94303 0.19275 0.0
C130 C 1.05182 0.09081 0.17526 0.0
C131 C 0.13715 0.14515 0.19636 0.0
C132 C 0.2074 0.09654 0.21544 0.0
C133 C 0.19299 -0.00243 0.21346 0.0
C134 C 0.27443 0.42855 0.21084 0.0
C135 C 0.18546 0.45417 0.20235 0.0
C136 C 0.25882 0.3295 0.20867 0.0
C137 C 0.15325 0.25171 0.19846 0.0
C138 C 1.06386 0.27725 0.19031 0.0
C139 C 0.07995 0.37758 0.19199 0.0
H140 H 0.43942 0.84764 0.58388 0.0
H141 H 0.58637 0.17982 0.54116 0.0
H142 H 0.28521 0.87159 0.58142 0.0
H143 H 0.43509 0.2072 0.54034 0.0
H144 H 0.10353 0.20376 0.51955 0.0
H145 H 0.25417 0.17617 0.52055 0.0
H146 H 0.21863 0.93971 0.59845 0.0
H147 H 1.06329 0.96341 0.5962 0.0
C148 C 0.43947 0.92666 0.57424 0.0
C149 C 0.52556 0.01194 0.56274 0.0
C150 C 0.35093 0.94086 0.57306 0.0
C151 C 0.34633 0.04166 0.56082 0.0
C152 C 0.43363 0.1276 0.54954 0.0
C153 C 0.52152 0.11258 0.55025 0.0
C154 C 0.12756 0.14516 0.53675 0.0
C155 C 0.0715 0.08561 0.55777 0.0
C156 C 0.21513 0.13008 0.53754 0.0
C157 C 0.25078 0.05623 0.55971 0.0
C158 C 0.19349 -0.00393 0.5807 0.0
C159 C 0.10435 0.0098 0.57957 0.0
H160 H 0.09189 0.14488 0.82935 0.0
H161 H 0.18673 0.00607 0.91717 0.0
H162 H 0.2762 0.28977 0.83256 0.0
H163 H 0.36914 0.15463 0.92127 0.0
H164 H 0.71693 0.38799 0.91858 0.0
H165 H 0.53649 0.23715 0.91364 0.0
H166 H 0.40114 0.44706 0.84622 0.0
H167 H 0.58411 0.59418 0.84958 0.0
C168 C 0.15237 0.14618 0.84945 0.0
C169 C 0.12501 0.06446 0.873 0.0
C170 C 0.2583 0.23014 0.85145 0.0
C171 C 0.33934 0.23616 0.87728 0.0
C172 C 0.31105 0.15316 0.90083 0.0
C173 C 0.20574 0.06787 0.89862 0.0
C174 C 0.64845 0.40158 0.90264 0.0
C175 C 0.66469 0.50363 0.88474 0.0
C176 C 0.54405 0.31499 0.89994 0.0
C177 C 0.45195 0.32851 0.87969 0.0
C178 C 0.46894 0.43152 0.86184 0.0
C179 C 0.57407 0.51724 0.86406 0.0
H180 H 0.4025 0.94073 0.9263 0.0
H181 H 0.6312 0.80479 0.9823 0.0
H182 H 0.37797 0.95893 0.96671 0.0
H183 H 0.60619 0.82217 1.02228 0.0
H184 H 0.45583 0.76191 0.08888 0.0
H185 H 0.46567 0.74251 0.04682 0.0
H186 H 0.48186 0.06205 1.00488 0.0
H187 H 0.47201 0.08165 0.04722 0.0
C188 C 0.44748 0.9148 0.94717 0.0
C189 C 0.5178 0.87003 0.95106 0.0
C190 C 0.43352 0.92534 0.97029 0.0
C191 C 0.48941 0.89109 0.99773 0.0
C192 C 0.55999 0.84707 1.00149 0.0
C193 C 0.57409 0.83681 0.97851 0.0
C194 C 0.46246 0.82855 0.0708 0.0
C195 C 0.46494 0.92404 0.07158 0.0
C196 C 0.46774 0.81726 0.04664 0.0
C197 C 0.47568 0.90116 1.02258 0.0
C198 C 0.475 -0.00438 1.02301 0.0
C199 C 0.46967 0.00695 0.04727 0.0
H200 H 0.67744 0.00271 0.4642 0.0
H201 H 0.84049 0.33486 0.47266 0.0
H202 H 0.68731 0.06405 0.41562 0.0
H203 H 0.84883 0.39576 0.42389 0.0
H204 H 0.97382 0.44235 0.35037 0.0
H205 H 0.95057 0.38798 0.39745 0.0
H206 H 0.61609 0.16166 0.36878 0.0
H207 H 0.63977 0.2153 0.32168 0.0
C208 C 0.71436 0.08874 0.45564 0.0
C209 C 0.7587 0.16377 0.47241 0.0
C210 C 0.71921 0.12376 0.42773 0.0
C211 C 0.76908 0.23452 0.41592 0.0
C212 C 0.81083 0.30976 0.43245 0.0
C213 C 0.80513 0.27482 0.46033 0.0
C214 C 0.89536 0.38083 0.35413 0.0
C215 C 0.80876 0.33285 0.33229 0.0
C216 C 0.88168 0.35052 0.38104 0.0
C217 C 0.78139 0.27068 0.38688 0.0
C218 C 0.69455 0.22304 0.36501 0.0
C219 C 0.70787 0.25425 0.33799 0.0
H220 H 1.04061 0.87881 0.80177 0.0
H221 H 0.69182 0.78219 0.77728 0.0
H222 H 1.03655 0.91263 0.75284 0.0
H223 H 0.6879 0.81361 0.72834 0.0
H224 H 0.73835 0.77748 0.64991 0.0
H225 H 0.7457 0.73045 0.69986 0.0
H226 H 0.97476 0.05973 0.70667 0.0
H227 H 0.9652 0.1077 0.6568 0.0
C228 C 0.96287 0.86366 0.78602 0.0
C229 C 0.86651 0.82808 0.79344 0.0
C230 C 0.96078 0.88329 0.75802 0.0
C231 C 0.86191 0.86536 0.73689 0.0
C232 C 0.76505 0.8273 0.7443 0.0
C233 C 0.76749 0.81 0.77226 0.0
C234 C 0.79127 0.83937 0.66217 0.0
C235 C 0.85141 0.94618 0.64944 0.0
C236 C 0.79482 0.81262 0.69065 0.0
C237 C 0.86076 0.89154 0.70704 0.0
C238 C 0.92368 -0.00269 0.69453 0.0
C239 C 0.91805 0.02463 0.66599 0.0
H240 H 0.09802 0.781 0.97987 0.0
H241 H 0.75727 0.7135 0.95903 0.0
H242 H 0.11676 0.76519 1.02861 0.0
H243 H 0.77651 0.69691 1.0083 0.0
H244 H 0.86784 0.56205 0.10937 0.0
H245 H 0.82554 0.57254 0.05897 0.0
H246 H 0.10639 0.88138 0.0524 0.0
H247 H 0.14666 0.8728 0.10173 0.0
C248 C 1.02678 0.76219 0.98566 0.0
C249 C 0.9262 0.74899 0.96543 0.0
C250 C 1.03771 0.75344 1.01364 0.0
C251 C 0.94816 0.73006 1.02226 0.0
C252 C 0.84669 0.71438 1.00226 0.0
C253 C 0.83602 0.72462 0.97405 0.0
C254 C 0.91922 0.63286 0.09701 0.0
C255 C 1.01181 0.71568 0.1098 0.0
C256 C 0.89507 0.63881 0.06821 0.0
C257 C 0.96385 0.727 0.0519 0.0
C258 C 1.05304 0.81152 0.06449 0.0
C259 C 0.07611 0.80631 0.0929 0.0
H260 H 0.4523 0.82481 0.28097 0.0
H261 H 0.14918 0.56194 0.29791 0.0
H262 H 0.53204 0.8239 0.33076 0.0
H263 H 0.22884 0.56165 0.34789 0.0
H264 H 0.4527 0.53201 0.43866 0.0
H265 H 0.371 0.52318 0.38908 0.0
H266 H 0.50997 0.87223 0.36611 0.0
H267 H 0.59015 0.88066 0.41532 0.0
C268 C 0.40244 0.76666 0.29529 0.0
C269 C 0.29405 0.69335 0.28536 0.0
C270 C 0.44815 0.76647 0.32388 0.0
C271 C 0.38673 0.69309 0.34334 0.0
C272 C 0.27884 0.6185 0.33351 0.0
C273 C 0.23299 0.61881 0.30482 0.0
C274 C 0.46537 0.60675 0.423 0.0
C275 C 0.52934 0.70728 0.431 0.0
C276 C 0.41847 0.60168 0.3946 0.0
C277 C 0.43471 0.69702 0.3736 0.0
C278 C 0.49776 0.79722 0.38167 0.0
C279 C 0.54417 0.80217 0.40994 0.0
H280 H 0.2722 0.54226 0.82391 0.0
H281 H 0.09187 0.73561 0.77486 0.0
H282 H 0.24035 0.48981 0.7816 0.0
H283 H 1.05981 0.68337 0.73293 0.0
H284 H 0.09005 0.6446 0.65783 0.0
H285 H 0.14792 0.70517 0.70061 0.0
H286 H 0.09003 0.37997 0.7488 0.0
H287 H 1.03775 0.32029 0.70607 0.0
C288 C 0.22634 0.57394 0.80411 0.0
C289 C 0.18548 0.64388 0.80273 0.0
C290 C 0.20779 0.54371 0.77989 0.0
C291 C 0.14784 0.58269 0.75382 0.0
C292 C 0.10834 0.65363 0.75249 0.0
C293 C 0.12695 0.68384 0.77659 0.0
C294 C 0.0916 0.58623 0.67757 0.0
C295 C 1.05878 0.47738 0.67842 0.0
C296 C 0.12355 0.62078 0.7021 0.0
C297 C 0.12277 0.54731 0.72814 0.0
C298 C 0.09243 0.43892 0.72914 0.0
C299 C 1.06092 0.40438 0.70457 0.0
loop_
_geom_bond_atom_site_label_1
_geom_bond_atom_site_label_2
_geom_bond_distance
_geom_bond_site_symmetry_2
_ccdc_geom_bond_type
Tb0 C2 2.809 . S
Tb0 O20 2.484 . S
Tb0 O21 2.440 . S
Tb0 O22 2.658 1_655 S
Tb0 O23 2.409 . S
Tb0 O24 2.378 1_655 S
Tb0 O28 2.325 . S
Tb0 O31 2.341 . S
Tb1 C11 2.809 . S
Tb1 O22 2.325 . S
Tb1 O25 2.341 . S
Tb1 O26 2.484 . S
Tb1 O27 2.440 . S
Tb1 O28 2.658 1_455 S
Tb1 O29 2.409 . S
Tb1 O30 2.378 1_455 S
C2 Tb0 2.809 . S
C2 C3 1.514 . S
C2 O20 1.248 . S
C2 O21 1.266 . S
C3 C2 1.514 . S
C3 C4 1.359 . S
C3 C8 1.348 . S
C4 C3 1.359 . S
C4 C5 1.380 . S
C4 H32 0.929 . S
C5 C4 1.380 . S
C5 C6 1.347 . S
C5 H33 0.931 . S
C6 C5 1.347 . S
C6 C7 1.369 . S
C7 C6 1.369 . S
C7 C8 1.408 . S
C7 H34 0.930 . S
C8 C3 1.348 . S
C8 C7 1.408 . S
C8 H35 0.930 . S
C9 O22 1.281 1_655 S
C9 O23 1.254 . S
C10 O24 1.236 . S
C10 O25 1.266 . S
C11 Tb1 2.809 . S
C11 C12 1.514 . S
C11 O26 1.248 . S
C11 O27 1.266 . S
C12 C11 1.514 . S
C12 C13 1.359 . S
C12 C17 1.348 . S
C13 C12 1.359 . S
C13 C14 1.380 1_565 S
C13 H36 0.929 1_565 S
C14 C13 1.380 1_545 S
C14 C15 1.347 1_545 S
C14 H37 0.931 . S
C15 C14 1.347 1_565 S
C15 C16 1.369 . S
C16 C15 1.369 . S
C16 C17 1.408 . S
C16 H38 0.930 . S
C17 C12 1.348 . S
C17 C16 1.408 . S
C17 H39 0.930 . S
C18 O28 1.281 1_455 S
C18 O29 1.254 . S
C19 O30 1.236 . S
C19 O31 1.266 . S
O20 Tb0 2.484 . S
O20 C2 1.248 . S
O21 Tb0 2.440 . S
O21 C2 1.266 . S
O22 Tb0 2.658 1_455 S
O22 Tb1 2.325 . S
O22 C9 1.281 1_455 S
O23 Tb0 2.409 . S
O23 C9 1.254 . S
O24 Tb0 2.378 1_455 S
O24 C10 1.236 . S
O25 Tb1 2.341 . S
O25 C10 1.266 . S
O26 Tb1 2.484 . S
O26 C11 1.248 . S
O27 Tb1 2.440 . S
O27 C11 1.266 . S
O28 Tb0 2.325 . S
O28 Tb1 2.658 1_655 S
O28 C18 1.281 1_655 S
O29 Tb1 2.409 . S
O29 C18 1.254 . S
O30 Tb1 2.378 1_655 S
O30 C19 1.236 . S
O31 Tb0 2.341 . S
O31 C19 1.266 . S
H32 C4 0.929 . S
H33 C5 0.931 . S
H34 C7 0.930 . S
H35 C8 0.930 . S
H36 C13 0.929 1_545 S
H37 C14 0.931 . S
H38 C16 0.930 . S
H39 C17 0.930 . S
Tb40 C42 2.809 . S
Tb40 O60 2.484 . S
Tb40 O61 2.440 . S
Tb40 O62 2.658 1_545 S
Tb40 O63 2.409 . S
Tb40 O64 2.378 . S
Tb40 O68 2.325 . S
Tb40 O71 2.341 . S
Tb41 C51 2.809 . S
Tb41 O62 2.325 . S
Tb41 O65 2.341 . S
Tb41 O66 2.484 . S
Tb41 O67 2.440 . S
Tb41 O68 2.658 1_565 S
Tb41 O69 2.409 . S
Tb41 O70 2.378 1_565 S
C42 Tb40 2.809 . S
C42 C43 1.514 . S
C42 O60 1.248 . S
C42 O61 1.266 . S
C43 C42 1.514 . S
C43 C44 1.359 . S
C43 C48 1.348 1_655 S
C44 C43 1.359 . S
C44 C45 1.380 . S
C44 H72 0.929 . S
C45 C44 1.380 . S
C45 C46 1.347 . S
C45 H73 0.931 . S
C46 C45 1.347 . S
C46 C47 1.369 1_655 S
C47 C46 1.369 1_455 S
C47 C48 1.408 . S
C47 H74 0.930 . S
C48 C43 1.348 1_455 S
C48 C47 1.408 . S
C48 H75 0.930 . S
C49 O62 1.281 1_545 S
C49 O63 1.254 . S
C50 O64 1.236 1_565 S
C50 O65 1.266 . S
C51 Tb41 2.809 . S
C51 C52 1.514 . S
C51 O66 1.248 . S
C51 O67 1.266 . S
C52 C51 1.514 . S
C52 C53 1.359 . S
C52 C57 1.348 . S
C53 C52 1.359 . S
C53 C54 1.380 . S
C53 H76 0.929 . S
C54 C53 1.380 . S
C54 C55 1.347 . S
C54 H77 0.931 . S
C55 C54 1.347 . S
C55 C56 1.369 . S
C56 C55 1.369 . S
C56 C57 1.408 . S
C56 H78 0.930 . S
C57 C52 1.348 . S
C57 C56 1.408 . S
C57 H79 0.930 . S
C58 O68 1.281 1_565 S
C58 O69 1.254 . S
C59 O70 1.236 . S
C59 O71 1.266 . S
O60 Tb40 2.484 . S
O60 C42 1.248 . S
O61 Tb40 2.440 . S
O61 C42 1.266 . S
O62 Tb40 2.658 1_565 S
O62 Tb41 2.325 . S
O62 C49 1.281 1_565 S
O63 Tb40 2.409 . S
O63 C49 1.254 . S
O64 Tb40 2.378 . S
O64 C50 1.236 1_545 S
O65 Tb41 2.341 . S
O65 C50 1.266 . S
O66 Tb41 2.484 . S
O66 C51 1.248 . S
O67 Tb41 2.440 . S
O67 C51 1.266 . S
O68 Tb40 2.325 . S
O68 Tb41 2.658 1_545 S
O68 C58 1.281 1_545 S
O69 Tb41 2.409 . S
O69 C58 1.254 . S
O70 Tb41 2.378 1_545 S
O70 C59 1.236 . S
O71 Tb40 2.341 . S
O71 C59 1.266 . S
H72 C44 0.929 . S
H73 C45 0.931 . S
H74 C47 0.930 . S
H75 C48 0.930 . S
H76 C53 0.929 . S
H77 C54 0.931 . S
H78 C56 0.930 . S
H79 C57 0.930 . S
Tb80 C82 2.809 . S
Tb80 O100 2.484 1_545 S
Tb80 O101 2.440 . S
Tb80 O102 2.658 . S
Tb80 O103 2.409 1_655 S
Tb80 O104 2.378 1_545 S
Tb80 O108 2.325 1_545 S
Tb80 O111 2.341 1_545 S
Tb81 C91 2.809 1_655 S
Tb81 O102 2.325 1_565 S
Tb81 O105 2.341 . S
Tb81 O106 2.484 1_655 S
Tb81 O107 2.440 . S
Tb81 O108 2.658 . S
Tb81 O109 2.409 . S
Tb81 O110 2.378 . S
C82 Tb80 2.809 . S
C82 C83 1.514 . S
C82 O100 1.248 1_545 S
C82 O101 1.266 . S
C83 C82 1.514 . S
C83 C84 1.359 1_545 S
C83 C88 1.348 . S
C84 C83 1.359 1_565 S
C84 C85 1.380 . S
C84 H112 0.929 . S
C85 C84 1.380 . S
C85 C86 1.347 1_565 S
C85 H113 0.931 . S
C86 C85 1.347 1_545 S
C86 C87 1.369 . S
C87 C86 1.369 . S
C87 C88 1.408 . S
C87 H114 0.930 . S
C88 C83 1.348 . S
C88 C87 1.408 . S
C88 H115 0.930 . S
C89 O102 1.281 1_455 S
C89 O103 1.254 . S
C90 O104 1.236 . S
C90 O105 1.266 . S
C91 Tb81 2.809 1_455 S
C91 C92 1.514 . S
C91 O106 1.248 . S
C91 O107 1.266 1_455 S
C92 C91 1.514 . S
C92 C93 1.359 . S
C92 C97 1.348 1_455 S
C93 C92 1.359 . S
C93 C94 1.380 . S
C93 H116 0.929 . S
C94 C93 1.380 . S
C94 C95 1.347 . S
C94 H117 0.931 . S
C95 C94 1.347 . S
C95 C96 1.369 . S
C96 C95 1.369 . S
C96 C97 1.408 1_455 S
C96 H118 0.928 . S
C97 C92 1.348 1_655 S
C97 C96 1.408 1_655 S
C97 H119 0.930 . S
C98 O108 1.281 . S
C98 O109 1.254 . S
C99 O110 1.236 . S
C99 O111 1.266 . S
O100 Tb80 2.484 1_565 S
O100 C82 1.248 1_565 S
O101 Tb80 2.440 . S
O101 C82 1.266 . S
O102 Tb80 2.658 . S
O102 Tb81 2.325 1_545 S
O102 C89 1.281 1_655 S
O103 Tb80 2.409 1_455 S
O103 C89 1.254 . S
O104 Tb80 2.378 1_565 S
O104 C90 1.236 . S
O105 Tb81 2.341 . S
O105 C90 1.266 . S
O106 Tb81 2.484 1_455 S
O106 C91 1.248 . S
O107 Tb81 2.440 . S
O107 C91 1.266 1_655 S
O108 Tb80 2.325 1_565 S
O108 Tb81 2.658 . S
O108 C98 1.281 . S
O109 Tb81 2.409 . S
O109 C98 1.254 . S
O110 Tb81 2.378 . S
O110 C99 1.236 . S
O111 Tb80 2.341 1_565 S
O111 C99 1.266 . S
H112 C84 0.929 . S
H113 C85 0.931 . S
H114 C87 0.930 . S
H115 C88 0.930 . S
H116 C93 0.929 . S
H117 C94 0.931 . S
H118 C96 0.928 . S
H119 C97 0.930 . S
H120 C128 0.950 . S
H121 C133 0.950 . S
H122 C130 0.950 . S
H123 C132 0.950 . S
H124 C134 0.950 . S
H125 C136 0.950 . S
H126 C138 0.950 . S
H127 C139 0.950 . S
C128 H120 0.950 . S
C128 C129 1.386 1_655 S
C128 C130 1.391 1_565 S
C129 C128 1.386 1_455 S
C129 C133 1.393 1_565 S
C130 H122 0.950 . S
C130 C128 1.391 1_545 S
C130 C131 1.400 1_655 S
C131 C130 1.400 1_455 S
C131 C132 1.398 . S
C131 C137 1.491 1_455 S
C132 H123 0.950 . S
C132 C131 1.398 . S
C132 C133 1.391 . S
C133 H121 0.950 . S
C133 C129 1.393 1_545 S
C133 C132 1.391 . S
C134 H124 0.950 . S
C134 C135 1.386 1_455 S
C134 C136 1.391 . S
C135 C134 1.386 1_655 S
C135 C139 1.393 . S
C136 H125 0.950 . S
C136 C134 1.391 . S
C136 C137 1.400 1_455 S
C137 C131 1.491 1_655 S
C137 C136 1.400 1_655 S
C137 C138 1.398 . S
C138 H126 0.950 . S
C138 C137 1.398 . S
C138 C139 1.391 . S
C139 H127 0.950 . S
C139 C135 1.393 . S
C139 C138 1.391 . S
H140 C148 0.950 . S
H141 C153 0.950 . S
H142 C150 0.950 . S
H143 C152 0.950 . S
H144 C154 0.950 . S
H145 C156 0.950 . S
H146 C158 0.950 . S
H147 C159 0.950 1_655 S
C148 H140 0.950 . S
C148 C149 1.386 1_565 S
C148 C150 1.391 . S
C149 C148 1.386 1_545 S
C149 C153 1.393 . S
C150 H142 0.950 . S
C150 C148 1.391 . S
C150 C151 1.400 1_565 S
C151 C150 1.400 1_545 S
C151 C152 1.398 . S
C151 C157 1.491 . S
C152 H143 0.950 . S
C152 C151 1.398 . S
C152 C153 1.391 . S
C153 H141 0.950 . S
C153 C149 1.393 . S
C153 C152 1.391 . S
C154 H144 0.950 . S
C154 C155 1.386 . S
C154 C156 1.391 . S
C155 C154 1.386 . S
C155 C159 1.393 1_545 S
C156 H145 0.950 . S
C156 C154 1.391 . S
C156 C157 1.400 . S
C157 C151 1.491 . S
C157 C156 1.400 . S
C157 C158 1.398 1_545 S
C158 H146 0.950 . S
C158 C157 1.398 1_565 S
C158 C159 1.391 . S
C159 H147 0.950 1_455 S
C159 C155 1.393 1_565 S
C159 C158 1.391 . S
H160 C168 0.950 . S
H161 C173 0.950 . S
H162 C170 0.950 . S
H163 C172 0.950 . S
H164 C174 0.950 . S
H165 C176 0.950 . S
H166 C178 0.950 . S
H167 C179 0.950 . S
C168 H160 0.950 . S
C168 C169 1.386 . S
C168 C170 1.391 . S
C169 C168 1.386 . S
C169 C173 1.393 . S
C170 H162 0.950 . S
C170 C168 1.391 . S
C170 C171 1.400 . S
C171 C170 1.400 . S
C171 C172 1.398 . S
C171 C177 1.491 . S
C172 H163 0.950 . S
C172 C171 1.398 . S
C172 C173 1.391 . S
C173 H161 0.950 . S
C173 C169 1.393 . S
C173 C172 1.391 . S
C174 H164 0.950 . S
C174 C175 1.386 . S
C174 C176 1.391 . S
C175 C174 1.386 . S
C175 C179 1.393 . S
C176 H165 0.950 . S
C176 C174 1.391 . S
C176 C177 1.400 . S
C177 C171 1.491 . S
C177 C176 1.400 . S
C177 C178 1.398 . S
C178 H166 0.950 . S
C178 C177 1.398 . S
C178 C179 1.391 . S
C179 H167 0.950 . S
C179 C175 1.393 . S
C179 C178 1.391 . S
H180 C188 0.950 . S
H181 C193 0.950 . S
H182 C190 0.950 . S
H183 C192 0.950 . S
H184 C194 0.950 . S
H185 C196 0.950 . S
H186 C198 0.950 . S
H187 C199 0.950 . S
C188 H180 0.950 . S
C188 C189 1.386 . S
C188 C190 1.391 . S
C189 C188 1.386 . S
C189 C193 1.393 1_545 S
C190 H182 0.950 . S
C190 C188 1.391 . S
C190 C191 1.400 . S
C191 C190 1.400 . S
C191 C192 1.398 1_545 S
C191 C197 1.491 . S
C192 H183 0.950 . S
C192 C191 1.398 1_565 S
C192 C193 1.391 . S
C193 H181 0.950 . S
C193 C189 1.393 1_565 S
C193 C192 1.391 . S
C194 H184 0.950 . S
C194 C195 1.386 1_565 S
C194 C196 1.391 . S
C195 C194 1.386 1_545 S
C195 C199 1.393 1_554 S
C196 H185 0.950 . S
C196 C194 1.391 . S
C196 C197 1.400 1_564 S
C197 C191 1.491 . S
C197 C196 1.400 1_546 S
C197 C198 1.398 . S
C198 H186 0.950 . S
C198 C197 1.398 . S
C198 C199 1.391 . S
C199 H187 0.950 . S
C199 C195 1.393 1_556 S
C199 C198 1.391 . S
H200 C208 0.950 . S
H201 C213 0.950 . S
H202 C210 0.950 . S
H203 C212 0.950 . S
H204 C214 0.950 . S
H205 C216 0.950 . S
H206 C218 0.950 . S
H207 C219 0.950 . S
C208 H200 0.950 . S
C208 C209 1.386 . S
C208 C210 1.391 . S
C209 C208 1.386 . S
C209 C213 1.393 . S
C210 H202 0.950 . S
C210 C208 1.391 . S
C210 C211 1.400 . S
C211 C210 1.400 . S
C211 C212 1.398 . S
C211 C217 1.491 . S
C212 H203 0.950 . S
C212 C211 1.398 . S
C212 C213 1.391 . S
C213 H201 0.950 . S
C213 C209 1.393 . S
C213 C212 1.391 . S
C214 H204 0.950 . S
C214 C215 1.386 . S
C214 C216 1.391 . S
C215 C214 1.386 . S
C215 C219 1.393 . S
C216 H205 0.950 . S
C216 C214 1.391 . S
C216 C217 1.400 . S
C217 C211 1.491 . S
C217 C216 1.400 . S
C217 C218 1.398 . S
C218 H206 0.950 . S
C218 C217 1.398 . S
C218 C219 1.391 . S
C219 H207 0.950 . S
C219 C215 1.393 . S
C219 C218 1.391 . S
H220 C228 0.950 . S
H221 C233 0.950 . S
H222 C230 0.950 . S
H223 C232 0.950 . S
H224 C234 0.950 . S
H225 C236 0.950 . S
H226 C238 0.958 . S
H227 C239 0.950 1_545 S
C228 H220 0.950 . S
C228 C229 1.386 1_545 S
C228 C230 1.391 . S
C229 C228 1.386 1_565 S
C229 C233 1.393 . S
C230 H222 0.950 . S
C230 C228 1.391 . S
C230 C231 1.400 1_545 S
C231 C230 1.400 1_565 S
C231 C232 1.398 . S
C231 C237 1.491 . S
C232 H223 0.950 . S
C232 C231 1.398 . S
C232 C233 1.391 . S
C233 H221 0.950 . S
C233 C229 1.393 . S
C233 C232 1.391 . S
C234 H224 0.950 . S
C234 C235 1.386 . S
C234 C236 1.391 . S
C235 C234 1.386 . S
C235 C239 1.393 . S
C236 H225 0.950 . S
C236 C234 1.391 . S
C236 C237 1.400 . S
C237 C231 1.491 . S
C237 C236 1.400 . S
C237 C238 1.396 1_565 S
C238 H226 0.958 . S
C238 C237 1.396 1_545 S
C238 C239 1.386 1_545 S
C239 H227 0.950 1_565 S
C239 C235 1.393 . S
C239 C238 1.386 1_565 S
H240 C248 0.950 . S
H241 C253 0.950 . S
H242 C250 0.950 1_455 S
H243 C252 0.950 . S
H244 C254 0.950 . S
H245 C256 0.950 1_556 S
H246 C258 0.950 1_455 S
H247 C259 0.950 1_455 S
C248 H240 0.950 . S
C248 C249 1.386 1_455 S
C248 C250 1.391 1_455 S
C249 C248 1.386 1_655 S
C249 C253 1.393 . S
C250 H242 0.950 1_655 S
C250 C248 1.391 1_655 S
C250 C251 1.400 . S
C251 C250 1.400 . S
C251 C252 1.398 . S
C251 C257 1.491 1_556 S
C252 H243 0.950 . S
C252 C251 1.398 . S
C252 C253 1.391 . S
C253 H241 0.950 . S
C253 C249 1.393 . S
C253 C252 1.391 . S
C254 H244 0.950 . S
C254 C255 1.386 . S
C254 C256 1.391 . S
C255 C254 1.386 . S
C255 C259 1.393 . S
C256 H245 0.950 1_554 S
C256 C254 1.391 . S
C256 C257 1.400 . S
C257 C251 1.491 1_554 S
C257 C256 1.400 . S
C257 C258 1.398 . S
C258 H246 0.950 1_655 S
C258 C257 1.398 . S
C258 C259 1.391 . S
C259 H247 0.950 1_655 S
C259 C255 1.393 . S
C259 C258 1.391 . S
H260 C268 0.950 . S
H261 C273 0.950 . S
H262 C270 0.950 . S
H263 C272 0.950 . S
H264 C274 0.950 . S
H265 C276 0.950 . S
H266 C278 0.950 . S
H267 C279 0.950 . S
C268 H260 0.950 . S
C268 C269 1.386 . S
C268 C270 1.391 . S
C269 C268 1.386 . S
C269 C273 1.393 . S
C270 H262 0.950 . S
C270 C268 1.391 . S
C270 C271 1.400 . S
C271 C270 1.400 . S
C271 C272 1.398 . S
C271 C277 1.491 . S
C272 H263 0.950 . S
C272 C271 1.398 . S
C272 C273 1.391 . S
C273 H261 0.950 . S
C273 C269 1.393 . S
C273 C272 1.391 . S
C274 H264 0.950 . S
C274 C275 1.386 . S
C274 C276 1.391 . S
C275 C274 1.386 . S
C275 C279 1.393 . S
C276 H265 0.950 . S
C276 C274 1.391 . S
C276 C277 1.400 . S
C277 C271 1.491 . S
C277 C276 1.400 . S
C277 C278 1.398 . S
C278 H266 0.950 . S
C278 C277 1.398 . S
C278 C279 1.391 . S
C279 H267 0.950 . S
C279 C275 1.393 . S
C279 C278 1.391 . S
H280 C288 0.950 . S
H281 C293 0.950 . S
H282 C290 0.950 1_655 S
H283 C292 0.950 . S
H284 C294 0.950 . S
H285 C296 0.950 . S
H286 C298 0.950 . S
H287 C299 0.950 . S
C288 H280 0.950 . S
C288 C289 1.386 . S
C288 C290 1.391 . S
C289 C288 1.386 . S
C289 C293 1.393 . S
C290 H282 0.950 1_455 S
C290 C288 1.391 . S
C290 C291 1.400 . S
C291 C290 1.400 . S
C291 C292 1.398 . S
C291 C297 1.491 . S
C292 H283 0.950 . S
C292 C291 1.398 . S
C292 C293 1.391 . S
C293 H281 0.950 . S
C293 C289 1.393 . S
C293 C292 1.391 . S
C294 H284 0.950 . S
C294 C295 1.387 . S
C294 C296 1.391 . S
C295 C294 1.387 . S
C295 C299 1.389 1_455 S
C296 H285 0.950 . S
C296 C294 1.391 . S
C296 C297 1.400 . S
C297 C291 1.491 . S
C297 C296 1.400 . S
C297 C298 1.398 1_455 S
C298 H286 0.950 . S
C298 C297 1.398 1_655 S
C298 C299 1.391 . S
C299 H287 0.950 . S
C299 C295 1.389 1_655 S
C299 C298 1.391 . S
C129 C9 1.542 1_455 S
C135 C18 1.542 1_655 S
C149 C58 1.594 1_545 S
C155 C49 1.594 1_455 S
C169 C89 1.331 . S
C175 C98 1.331 . S
C189 C86 0.964 . S
C195 C15 0.968 1_545 S
C209 C59 1.864 . S
C215 C6 1.813 . S
C229 C99 2.413 . S
C235 C50 2.412 . S
C249 C90 2.383 . S
C255 C19 2.329 . S
C269 C10 1.834 . S
C275 C55 1.726 . S
C289 C95 0.991 . S
C295 C46 1.036 1_455 S
