# Generated by pormake.
# Topology uov, (4)-cn, num edge types: 1
# Building blocks:
#     Node 0, Type 0, BuildingBlock: GALJAG_clean_sbu_0, # of connection points: 4
#     Node 1, Type 0, BuildingBlock: GALJAG_clean_sbu_0, # of connection points: 4
#     Node 2, Type 0, BuildingBlock: GALJAG_clean_sbu_0, # of connection points: 4
#     Node 3, Type 0, BuildingBlock: GALJAG_clean_sbu_0, # of connection points: 4
#     Node 4, Type 0, BuildingBlock: GALJAG_clean_sbu_0, # of connection points: 4
#     Node 5, Type 0, BuildingBlock: GALJAG_clean_sbu_0, # of connection points: 4
#     Node 6, Type 0, BuildingBlock: GALJAG_clean_sbu_0, # of connection points: 4
#     Node 7, Type 0, BuildingBlock: GALJAG_clean_sbu_0, # of connection points: 4
#     Edge 8, Type (0, 0), BuildingBlock: UVAHIK_clean_linker_0, # of connection points: 2
#     Edge 9, Type (0, 0), BuildingBlock: UVAHIK_clean_linker_0, # of connection points: 2
#     Edge 10, Type (0, 0), BuildingBlock: UVAHIK_clean_linker_0, # of connection points: 2
#     Edge 11, Type (0, 0), BuildingBlock: UVAHIK_clean_linker_0, # of connection points: 2
#     Edge 12, Type (0, 0), BuildingBlock: UVAHIK_clean_linker_0, # of connection points: 2
#     Edge 13, Type (0, 0), BuildingBlock: UVAHIK_clean_linker_0, # of connection points: 2
#     Edge 14, Type (0, 0), BuildingBlock: UVAHIK_clean_linker_0, # of connection points: 2
#     Edge 15, Type (0, 0), BuildingBlock: UVAHIK_clean_linker_0, # of connection points: 2
#     Edge 16, Type (0, 0), BuildingBlock: UVAHIK_clean_linker_0, # of connection points: 2
#     Edge 17, Type (0, 0), BuildingBlock: UVAHIK_clean_linker_0, # of connection points: 2
#     Edge 18, Type (0, 0), BuildingBlock: UVAHIK_clean_linker_0, # of connection points: 2
#     Edge 19, Type (0, 0), BuildingBlock: UVAHIK_clean_linker_0, # of connection points: 2
#     Edge 20, Type (0, 0), BuildingBlock: UVAHIK_clean_linker_0, # of connection points: 2
#     Edge 21, Type (0, 0), BuildingBlock: UVAHIK_clean_linker_0, # of connection points: 2
#     Edge 22, Type (0, 0), BuildingBlock: UVAHIK_clean_linker_0, # of connection points: 2
#     Edge 23, Type (0, 0), BuildingBlock: UVAHIK_clean_linker_0, # of connection points: 2
# Relax obj value: 0.177
# Max RMSD: 0.147
# Mean RMSD: 0.147
data_MOF--net-uov--node1-GALJAG_clean_sbu_0--edge1-UVAHIK_clean_linker_0
_symmetry_space_group_name_H-M    P1
_symmetry_Int_Tables_number       1
_symmetry_cell_setting            triclinic
loop_
_symmetry_equiv_pos_as_xyz
'x, y, z'
_cell_length_a     37.235011
_cell_length_b     37.189339
_cell_length_c     60.114898
_cell_angle_alpha  90.013163
_cell_angle_beta   89.996778
_cell_angle_gamma 89.91417
loop_
_atom_site_label
_atom_site_type_symbol
_atom_site_fract_x
_atom_site_fract_y
_atom_site_fract_z
_atom_type_partial_charge
In0 In 0.0913 0.24533 0.59868 0.0
O1 O 0.04917 0.28818 0.59281 0.0
O2 O 0.0947 0.30306 0.61191 0.0
C3 C 0.1414 0.2451 0.56613 0.0
C4 C 0.11074 0.22168 0.63943 0.0
C5 C 0.04011 0.20141 0.58265 0.0
O6 O 0.11503 0.26637 0.56617 0.0
O7 O 0.14307 0.22468 0.58284 0.0
O8 O 0.03339 0.22652 0.59617 0.0
O9 O 0.07293 0.19753 0.57791 0.0
C10 C 0.06499 0.31239 0.60363 0.0
O11 O 0.0842 0.20915 0.62902 0.0
O12 O 0.12761 0.24598 0.62925 0.0
In13 In 0.23867 0.95223 0.38824 0.0
O14 O 0.29381 0.93212 0.39887 0.0
O15 O 0.28966 0.96104 0.36838 0.0
C16 C 0.19569 0.91937 0.41796 0.0
C17 C 0.21064 0.92802 0.34989 0.0
C18 C 0.24139 0.01953 0.4046 0.0
O19 O 0.2265 0.90736 0.41319 0.0
O20 O 0.18669 0.94738 0.40754 0.0
O21 O 0.22569 0.01257 0.38644 0.0
O22 O 0.25516 0.99273 0.41418 0.0
C23 C 0.30978 0.94557 0.38231 0.0
O24 O 0.2068 0.96021 0.35621 0.0
O25 O 0.22861 0.90832 0.36289 0.0
In26 In 0.89921 0.73373 0.59859 0.0
O27 O 0.88815 0.67373 0.60032 0.0
O28 O 0.9356 0.69324 0.61584 0.0
C29 C 0.85302 0.73467 0.56404 0.0
C30 C 0.87704 0.76431 0.63692 0.0
C31 C 0.95368 0.76859 0.57847 0.0
O32 O 0.8814 0.71617 0.56408 0.0
O33 O 0.84733 0.75202 0.58175 0.0
O34 O 0.92376 0.78329 0.58234 0.0
O35 O 0.95646 0.73668 0.58536 0.0
C36 C 0.91641 0.66644 0.61099 0.0
O37 O 0.90541 0.7737 0.62709 0.0
O38 O 0.85974 0.73961 0.62737 0.0
In39 In 0.75229 0.03204 0.39141 0.0
O40 O 0.69667 0.05106 0.40177 0.0
O41 O 0.70198 0.0233 0.37092 0.0
C42 C 0.79403 0.06185 0.423 0.0
C43 C 0.7799 0.06108 0.35427 0.0
C44 C 0.75083 0.96312 0.40503 0.0
O45 O 0.76225 0.07238 0.41952 0.0
O46 O 0.80466 0.03705 0.4103 0.0
O47 O 0.76734 0.97241 0.38758 0.0
O48 O 0.73555 0.98843 0.41526 0.0
C49 C 0.68131 0.03804 0.38485 0.0
O50 O 0.78455 0.02841 0.35932 0.0
O51 O 0.76138 0.07896 0.36797 0.0
In52 In 0.926 0.24876 0.11203 0.0
O53 O 0.93388 0.20884 0.14025 0.0
O54 O 0.88883 0.24436 0.14175 0.0
C55 C 0.98699 0.24004 0.08854 0.0
C56 C 0.93288 0.3178 0.12422 0.0
C57 C 0.87948 0.21755 0.08376 0.0
O58 O 0.98352 0.22715 0.10787 0.0
O59 O 0.95996 0.25678 0.0814 0.0
O60 O 0.8847 0.2511 0.08381 0.0
O61 O 0.89675 0.20028 0.09829 0.0
C62 C 0.90636 0.21919 0.15082 0.0
O63 O 0.90725 0.30725 0.11208 0.0
O64 O 0.9543 0.29348 0.13037 0.0
In65 In 0.24657 0.0773 0.89482 0.0
O66 O 0.30631 0.09013 0.89354 0.0
O67 O 0.28726 0.0452 0.87506 0.0
C68 C 0.2238 0.12625 0.92453 0.0
C69 C 0.21836 0.10229 0.85677 0.0
C70 C 0.23245 0.01692 0.91801 0.0
O71 O 0.25643 0.11741 0.92284 0.0
O72 O 0.20294 0.11105 0.91093 0.0
O73 O 0.21824 0.02278 0.89926 0.0
O74 O 0.25322 0.04129 0.92472 0.0
C75 C 0.31371 0.06421 0.88075 0.0
O76 O 0.20644 0.07433 0.86621 0.0
O77 O 0.24395 0.11762 0.86675 0.0
In78 In 0.05922 0.74989 0.10618 0.0
O79 O 0.07352 0.69032 0.10839 0.0
O80 O 0.0255 0.70844 0.12405 0.0
C81 C 0.11006 0.77345 0.07794 0.0
C82 C 0.07952 0.78056 0.14457 0.0
C83 C 0.00038 0.76223 0.08124 0.0
O84 O 0.10132 0.74071 0.07908 0.0
O85 O 0.09399 0.79387 0.09144 0.0
O86 O 0.00319 0.77457 0.10076 0.0
O87 O 0.02709 0.74448 0.07459 0.0
C88 C 0.04581 0.68232 0.11946 0.0
O89 O 0.0542 0.79312 0.13288 0.0
O90 O 0.09449 0.75277 0.13679 0.0
In91 In 0.73863 0.92156 0.88905 0.0
O92 O 0.77726 0.92617 0.8597 0.0
O93 O 0.73904 0.88349 0.85979 0.0
C94 C 0.75623 0.97785 0.91504 0.0
C95 C 0.67173 0.93901 0.87653 0.0
C96 C 0.76068 0.86945 0.91683 0.0
O97 O 0.77025 0.97356 0.89606 0.0
O98 O 0.73362 0.95428 0.9204 0.0
O99 O 0.72825 0.87925 0.91572 0.0
O100 O 0.78157 0.88508 0.90344 0.0
C101 C 0.76439 0.89911 0.84975 0.0
O102 O 0.67855 0.911 0.88765 0.0
O103 O 0.69868 0.95797 0.87169 0.0
C104 C 0.90768 0.60031 0.60718 0.0
C105 C 0.92799 0.62922 0.61533 0.0
C106 C 0.92099 0.56531 0.60847 0.0
C107 C 0.98887 0.50716 0.63499 0.0
H108 H 0.98375 0.45511 0.57916 0.0
C109 C 0.06783 0.37548 0.61813 0.0
C110 C 0.0494 0.34851 0.60644 0.0
C111 C 0.0526 0.40964 0.62057 0.0
C112 C 0.98501 0.46905 0.59496 0.0
H113 H 0.9771 0.64415 0.63236 0.0
H114 H 0.00042 0.58285 0.63459 0.0
H115 H 0.95625 0.51423 0.58212 0.0
H116 H 0.0005 0.33579 0.58848 0.0
H117 H 0.97386 0.39501 0.59297 0.0
H118 H 0.01775 0.46178 0.64778 0.0
C119 C 0.97421 0.58727 0.62725 0.0
C120 C 0.96921 0.5029 0.59666 0.0
C121 C 0.96093 0.62233 0.6259 0.0
C122 C 0.01546 0.35613 0.59744 0.0
C123 C 0.00026 0.39012 0.59992 0.0
C124 C 0.0046 0.47311 0.63331 0.0
C125 C 0.95481 0.55858 0.61798 0.0
C126 C 0.97087 0.52225 0.61669 0.0
C127 C 0.01872 0.41733 0.61137 0.0
C128 C 0.00271 0.45368 0.61328 0.0
H129 H 0.88209 0.60482 0.59906 0.0
H130 H 0.90523 0.54358 0.60152 0.0
H131 H 0.9904 0.52149 0.65064 0.0
H132 H 0.09404 0.37025 0.62524 0.0
H133 H 0.0676 0.43019 0.62931 0.0
C134 C 0.62052 0.03731 0.40205 0.0
C135 C 0.64202 0.03544 0.38293 0.0
C136 C 0.58414 0.02854 0.40097 0.0
C137 C 0.52053 0.97738 0.36549 0.0
H138 H 0.44993 0.01854 0.40552 0.0
C139 C 0.36572 0.95765 0.3608 0.0
C140 C 0.34915 0.94799 0.38092 0.0
C141 C 0.40228 0.96589 0.36027 0.0
C142 C 0.46952 0.00671 0.39437 0.0
H143 H 0.64216 0.02547 0.34743 0.0
H144 H 0.57821 0.01208 0.34523 0.0
H145 H 0.51087 0.04235 0.40521 0.0
H146 H 0.35783 0.93794 0.41604 0.0
H147 H 0.42171 0.9532 0.41516 0.0
H148 H 0.47833 0.94266 0.35418 0.0
C149 C 0.58959 0.01877 0.36127 0.0
C150 C 0.50445 0.02023 0.3942 0.0
C151 C 0.62614 0.02685 0.36246 0.0
C152 C 0.37001 0.94514 0.40029 0.0
C153 C 0.40639 0.95409 0.39985 0.0
C154 C 0.48537 0.96436 0.36538 0.0
C155 C 0.56835 0.01837 0.38064 0.0
C156 C 0.53055 0.00552 0.37991 0.0
C157 C 0.42256 0.96525 0.37993 0.0
C158 C 0.45977 0.97869 0.37998 0.0
H159 H 0.63221 0.04355 0.4181 0.0
H160 H 0.5689 0.02814 0.41631 0.0
H161 H 0.53997 0.96479 0.35458 0.0
H162 H 0.35016 0.96004 0.34564 0.0
H163 H 0.41429 0.97449 0.34475 0.0
C164 C 0.9218 0.38317 0.11751 0.0
C165 C 0.93941 0.35592 0.12941 0.0
C166 C 0.93171 0.41909 0.1204 0.0
C167 C 0.00977 0.47256 0.13809 0.0
H168 H 0.9431 0.55215 0.13244 0.0
C169 C 0.00654 0.6383 0.13903 0.0
C170 C 0.03629 0.64509 0.12531 0.0
C171 C -0.00481 0.60312 0.14289 0.0
C172 C 0.96207 0.53027 0.13439 0.0
H173 H 0.97945 0.34479 0.1547 0.0
H174 H -0.00396 0.40747 0.16021 0.0
H175 H 0.92021 0.49093 0.1341 0.0
H176 H 0.0782 0.62054 0.1054 0.0
H177 H 0.05801 0.55908 0.11175 0.0
H178 H 0.05159 0.51187 0.13863 0.0
C179 C 0.97535 0.40115 0.14817 0.0
C180 C 0.94894 0.49514 0.13505 0.0
C181 C 0.96568 0.36529 0.14512 0.0
C182 C 0.05525 0.61604 0.11611 0.0
C183 C 0.04375 0.58084 0.11985 0.0
C184 C 0.02287 0.50767 0.13757 0.0
C185 C 0.9592 0.42838 0.1354 0.0
C186 C 0.97268 0.46586 0.13658 0.0
C187 C 0.01322 0.57402 0.13299 0.0
C188 C -0.00078 0.5369 0.13536 0.0
H189 H 0.90151 0.37664 0.10524 0.0
H190 H 0.91895 0.43934 0.11013 0.0
H191 H 0.02888 0.45063 0.139 0.0
H192 H 0.99157 0.66022 0.14647 0.0
H193 H 0.97201 0.59876 0.15343 0.0
C194 C 0.35684 0.02882 0.8578 0.0
C195 C 0.35063 0.05538 0.87396 0.0
C196 C 0.39179 0.01794 0.85281 0.0
C197 C 0.46339 0.98129 0.85903 0.0
H198 H 0.54505 0.04558 0.86233 0.0
C199 C 0.60539 0.93195 0.87986 0.0
C200 C 0.63495 0.94989 0.87063 0.0
C201 C 0.5706 0.94432 0.87588 0.0
C202 C 0.52258 0.02726 0.86095 0.0
H203 H 0.37588 0.09236 0.89699 0.0
H204 H 0.43685 0.07271 0.88879 0.0
H205 H 0.48458 0.07035 0.86231 0.0
H206 H 0.65146 0.99363 0.84911 0.0
H207 H 0.59061 0.01477 0.8417 0.0
H208 H 0.50138 0.93822 0.85749 0.0
C209 C 0.4149 0.06073 0.87961 0.0
C210 C 0.48789 0.04147 0.86125 0.0
C211 C 0.37996 0.07185 0.88443 0.0
C212 C 0.6291 0.97949 0.8566 0.0
C213 C 0.59429 0.9917 0.85245 0.0
C214 C 0.49807 0.96711 0.85854 0.0
C215 C 0.42117 0.03316 0.86404 0.0
C216 C 0.4579 0.01859 0.86086 0.0
C217 C 0.56469 0.97469 0.86241 0.0
C218 C 0.52805 0.98987 0.86007 0.0
H219 H 0.33466 0.01594 0.84931 0.0
H220 H 0.39574 -0.00287 0.84044 0.0
H221 H 0.44093 0.96283 0.85889 0.0
H222 H 0.60917 0.90908 0.89079 0.0
H223 H 0.54848 0.93088 0.88408 0.0
C224 C 0.26059 0.06063 0.43495 0.0
C225 C 0.24217 0.05559 0.41481 0.0
C226 C 0.25836 0.09323 0.44626 0.0
C227 C 0.19519 0.16722 0.45348 0.0
H228 H 0.26795 0.19918 0.49518 0.0
C229 C 0.15621 0.25706 0.5263 0.0
C230 C 0.16488 0.24039 0.54658 0.0
C231 C 0.17341 0.24658 0.50667 0.0
C232 C 0.2475 0.19089 0.48344 0.0
H233 H 0.20891 0.08144 0.38993 0.0
H234 H 0.20515 0.13891 0.4097 0.0
H235 H 0.2843 0.1578 0.46527 0.0
H236 H 0.20058 0.20235 0.56264 0.0
H237 H 0.23059 0.18409 0.52847 0.0
H238 H 0.15809 0.19896 0.47218 0.0
C239 C 0.22091 0.11735 0.41688 0.0
C240 C 0.25678 0.16711 0.46637 0.0
C241 C 0.22311 0.08453 0.40553 0.0
C242 C 0.19322 0.21549 0.54722 0.0
C243 C 0.21058 0.20522 0.52764 0.0
C244 C 0.186 0.1912 0.47041 0.0
C245 C 0.23774 0.12172 0.43769 0.0
C246 C 0.23033 0.15361 0.45189 0.0
C247 C 0.19976 0.21951 0.50705 0.0
C248 C 0.2117 0.20195 0.48617 0.0
H249 H 0.27569 0.03888 0.44247 0.0
H250 H 0.2712 0.09527 0.46237 0.0
H251 H 0.17402 0.15723 0.44279 0.0
H252 H 0.13459 0.27652 0.52533 0.0
H253 H 0.16481 0.25829 0.49105 0.0
C254 C 0.13933 0.91925 0.44027 0.0
C255 C 0.17213 0.90281 0.43481 0.0
C256 C 0.11708 0.9044 0.45648 0.0
C257 C 0.11701 0.84277 0.5046 0.0
H258 H 0.01404 0.8439 0.49489 0.0
C259 C 0.01415 0.76796 0.5604 0.0
C260 C 0.98185 0.78604 0.56504 0.0
C261 C 0.03907 0.78275 0.54563 0.0
C262 C 0.04271 0.84377 0.49796 0.0
H263 H 0.20741 0.85787 0.44197 0.0
H264 H 0.16811 0.83143 0.47017 0.0
H265 H 0.05393 0.86717 0.46628 0.0
H266 H 0.9509 0.83439 0.55865 0.0
H267 H -0.00552 0.86028 0.53296 0.0
H268 H 0.10554 0.81891 0.53628 0.0
C269 C 0.15987 0.85613 0.4621 0.0
C270 C 0.06559 0.85708 0.48156 0.0
C271 C 0.18225 0.87111 0.44586 0.0
C272 C 0.97552 0.81979 0.55533 0.0
C273 C 0.00034 0.83448 0.54051 0.0
C274 C 0.09407 0.82927 0.52101 0.0
C275 C 0.12701 0.87264 0.46757 0.0
C276 C 0.10298 0.85704 0.48475 0.0
C277 C 0.03202 0.81579 0.53517 0.0
C278 C 0.05666 0.82993 0.51791 0.0
H279 H 0.1309 0.94385 0.43214 0.0
H280 H 0.09228 0.91816 0.46056 0.0
H281 H 0.14567 0.84272 0.50767 0.0
H282 H 0.01972 0.74188 0.56765 0.0
H283 H 0.06317 0.76766 0.54175 0.0
C284 C 0.77265 0.89924 0.40454 0.0
C285 C 0.75102 0.92619 0.41396 0.0
C286 C 0.77607 0.86583 0.41507 0.0
C287 C 0.74029 0.81057 0.46231 0.0
H288 H 0.84063 0.78632 0.47063 0.0
C289 C 0.80102 0.76232 0.54412 0.0
C290 C 0.83115 0.7396 0.5438 0.0
C291 C 0.78458 0.77267 0.52425 0.0
C292 C 0.81237 0.79195 0.46813 0.0
H293 H 0.71407 0.93862 0.44079 0.0
H294 H 0.72061 0.88122 0.4593 0.0
H295 H 0.82373 0.82816 0.44154 0.0
H296 H 0.86578 0.70733 0.5227 0.0
H297 H 0.83715 0.72566 0.48796 0.0
H298 H 0.7295 0.77626 0.49016 0.0
C299 C 0.73462 0.88526 0.44371 0.0
C300 C 0.80262 0.81597 0.45136 0.0
C301 C 0.73118 0.91845 0.43322 0.0
C302 C 0.84275 0.72513 0.52343 0.0
C303 C 0.82644 0.73565 0.50354 0.0
C304 C 0.7501 0.78675 0.47923 0.0
C305 C 0.75792 0.85889 0.43517 0.0
C306 C 0.76667 0.82684 0.44891 0.0
C307 C 0.79809 0.7606 0.50371 0.0
C308 C 0.78642 0.77841 0.48288 0.0
H309 H 0.78801 0.90444 0.38959 0.0
H310 H 0.7939 0.84592 0.40791 0.0
H311 H 0.71224 0.81776 0.46051 0.0
H312 H 0.7914 0.77373 0.5596 0.0
H313 H 0.76296 0.79216 0.52492 0.0
C314 C 0.80302 0.10077 0.45659 0.0
C315 C 0.81672 0.07601 0.44111 0.0
C316 C 0.82431 0.11258 0.47432 0.0
C317 C 0.90562 0.08779 0.50648 0.0
H318 H 0.90663 0.18865 0.52275 0.0
C319 C 0.02027 0.15421 0.5558 0.0
C320 C 0.0115 0.18113 0.57126 0.0
C321 C 0.99356 0.13856 0.5427 0.0
C322 C 0.9062 0.16028 0.51867 0.0
H323 H 0.86351 0.04467 0.43175 0.0
H324 H 0.90076 0.06573 0.46229 0.0
H325 H 0.86553 0.16782 0.49395 0.0
H326 H 0.96777 0.21158 0.58593 0.0
H327 H 0.92108 0.18413 0.56303 0.0
H328 H 0.94703 0.08051 0.53078 0.0
C329 C 0.87341 0.07548 0.46111 0.0
C330 C 0.88267 0.14835 0.50215 0.0
C331 C 0.85216 0.06366 0.44348 0.0
C332 C 0.97533 0.19092 0.57411 0.0
C333 C 0.94864 0.17541 0.56091 0.0
C334 C 0.92923 0.09975 0.52292 0.0
C335 C 0.85968 0.09983 0.47685 0.0
C336 C 0.88256 0.11208 0.4956 0.0
C337 C 0.9576 0.14964 0.54474 0.0
C338 C 0.93016 0.13621 0.52894 0.0
H339 H 0.77572 0.11062 0.4552 0.0
H340 H 0.81288 0.13119 0.48624 0.0
H341 H 0.90565 0.05952 0.50215 0.0
H342 H 0.04794 0.14617 0.55323 0.0
H343 H 0.00134 0.11897 0.53025 0.0
C344 C 0.75549 0.00445 0.95291 0.0
C345 C 0.76625 0.00687 0.93057 0.0
C346 C 0.76598 0.03043 0.96824 0.0
C347 C 0.79174 0.12224 0.9769 0.0
H348 H 0.84399 0.08507 0.02776 0.0
C349 C 0.85601 0.21316 0.04492 0.0
C350 C 0.85853 0.19894 0.0665 0.0
C351 C 0.8422 0.19222 0.02757 0.0
C352 C 0.82885 0.09595 0.01393 0.0
H353 H 0.79543 0.03898 0.90654 0.0
H354 H 0.81332 0.08532 0.93362 0.0
H355 H 0.82545 0.04435 -0.00165 0.0
H356 H 0.84606 0.15323 0.08738 0.0
H357 H 0.82015 0.1175 0.05754 0.0
H358 H 0.79401 0.17374 0.99285 0.0
C359 C 0.79696 0.06294 0.93908 0.0
C360 C 0.81863 0.0726 -0.00303 0.0
C361 C 0.78691 0.03645 0.92369 0.0
C362 C 0.84474 0.16461 0.0708 0.0
C363 C 0.83029 0.14403 0.05362 0.0
C364 C 0.80152 0.14568 0.99411 0.0
C365 C 0.787 0.0597 0.96153 0.0
C366 C 0.79976 0.08544 0.97844 0.0
C367 C 0.8302 0.15694 0.03161 0.0
C368 C 0.81985 0.13268 0.01298 0.0
H369 H 0.73956 0.98198 0.95873 0.0
H370 H 0.75786 0.02752 0.98546 0.0
H371 H 0.77699 0.1326 0.96275 0.0
H372 H 0.86673 0.23954 0.04119 0.0
H373 H 0.84269 0.20305 0.01085 0.0
C374 C 0.22892 0.15217 0.96269 0.0
C375 C 0.21025 0.14954 0.94245 0.0
C376 C 0.2132 0.16951 0.9809 0.0
C377 C 0.14301 0.23269 -0.00199 0.0
H378 H 0.12418 0.16696 0.0467 0.0
C379 C 0.01914 0.24706 0.05261 0.0
C380 C 0.01959 0.23573 0.07487 0.0
C381 C 0.04912 0.2423 0.0391 0.0
C382 C 0.12989 0.18612 0.03362 0.0
H383 H 0.16186 0.16477 0.92478 0.0
H384 H 0.1349 0.19606 0.95638 0.0
H385 H 0.16662 0.15 0.01765 0.0
H386 H 0.05211 0.21142 0.10071 0.0
H387 H 0.10517 0.2036 0.0771 0.0
H388 H 0.10602 0.26866 0.01363 0.0
C389 C 0.16143 0.18443 0.95825 0.0
C390 C 0.15416 0.17632 0.01696 0.0
C391 C 0.17673 0.16642 0.94024 0.0
C392 C 0.051 0.22019 0.08355 0.0
C393 C 0.08129 0.21567 0.07001 0.0
C394 C 0.11922 0.24276 0.01483 0.0
C395 C 0.17907 0.18523 0.97889 0.0
C396 C 0.1598 0.19895 -0.00139 0.0
C397 C 0.08056 0.22642 0.04755 0.0
C398 C 0.11114 0.21892 0.03232 0.0
H399 H 0.25475 0.13916 0.96481 0.0
H400 H 0.2272 0.1698 0.9967 0.0
H401 H 0.14726 0.25068 0.98408 0.0
H402 H -0.00474 0.259 0.04541 0.0
H403 H 0.04711 0.25009 0.02179 0.0
C404 C 0.13593 0.7708 0.03967 0.0
C405 C 0.13376 0.78781 0.0605 0.0
C406 C 0.15312 0.78785 0.02188 0.0
C407 C 0.21702 0.85801 0.00651 0.0
H408 H 0.15098 0.88264 0.95898 0.0
C409 C 0.23718 0.98355 0.95368 0.0
C410 C 0.22543 0.98457 0.93151 0.0
C411 C 0.2305 0.9536 0.96693 0.0
C412 C 0.17019 0.87538 0.97173 0.0
H413 H 0.14962 0.83457 0.07958 0.0
H414 H 0.18081 0.86374 0.04872 0.0
H415 H 0.1333 0.83872 0.98701 0.0
H416 H 0.19811 0.95477 0.9056 0.0
H417 H 0.18707 0.90167 0.92869 0.0
H418 H 0.25391 0.89462 0.99151 0.0
C419 C 0.16889 0.83753 0.04607 0.0
C420 C 0.15997 0.85026 0.98781 0.0
C421 C 0.15099 0.82094 0.06367 0.0
C422 C 0.20726 0.95473 0.92271 0.0
C423 C 0.20089 0.92441 0.93596 0.0
C424 C 0.22752 0.88261 0.99023 0.0
C425 C 0.16916 0.82164 0.02488 0.0
C426 C 0.18283 0.84236 0.00573 0.0
C427 C 0.2123 0.92358 0.9583 0.0
C428 C 0.20367 0.89274 0.97315 0.0
H429 H 0.12258 0.74536 0.0368 0.0
H430 H 0.15301 0.77519 0.00565 0.0
H431 H 0.23517 0.85205 0.02011 0.0
H432 H 0.25106 0.00624 0.96099 0.0
H433 H 0.23886 0.95452 0.98417 0.0
C434 C 0.80789 0.82882 0.93189 0.0
C435 C 0.77429 0.84545 0.93437 0.0
C436 C 0.82389 0.81129 0.94985 0.0
C437 C 0.83182 0.82149 0.00858 0.0
H438 H 0.88458 0.7317 0.00554 0.0
C439 C 0.93648 0.78192 0.07556 0.0
C440 C 0.96847 0.76734 0.06707 0.0
C441 C 0.90639 0.78586 0.06179 0.0
C442 C 0.8701 0.75691 0.00665 0.0
H443 H 0.7302 0.8555 0.9571 0.0
H444 H 0.75885 0.82559 0.98883 0.0
H445 H 0.84208 0.74701 0.97611 0.0
H446 H -0.00575 0.74567 0.03761 0.0
H447 H 0.94269 0.75359 0.01358 0.0
H448 H 0.86157 0.8328 0.03817 0.0
C449 C 0.77245 0.82578 0.9729 0.0
C450 C 0.84559 0.76545 0.9899 0.0
C451 C 0.75607 0.84269 0.95476 0.0
C452 C 0.96989 0.75682 0.04467 0.0
C453 C 0.9401 0.76099 0.03093 0.0
C454 C 0.85674 0.81321 0.02519 0.0
C455 C 0.80685 0.81069 0.97069 0.0
C456 C 0.82707 0.79829 0.99039 0.0
C457 C 0.90791 0.77546 0.03928 0.0
C458 C 0.87709 0.78138 0.02399 0.0
H459 H 0.82243 0.83061 0.91632 0.0
H460 H 0.85058 0.80013 0.94779 0.0
H461 H 0.81806 0.84716 0.0092 0.0
H462 H 0.93464 0.79004 0.09283 0.0
H463 H 0.88195 0.79691 0.06878 0.0
C464 C 0.10222 0.18092 0.67204 0.0
C465 C 0.12101 0.20915 0.66181 0.0
C466 C 0.11186 0.16919 0.69329 0.0
C467 C 0.18726 0.17021 0.73316 0.0
H468 H 0.11368 0.1463 0.77636 0.0
C469 C 0.22064 0.14544 0.8251 0.0
C470 C 0.20467 0.11543 0.83523 0.0
C471 C 0.20931 0.15693 0.80416 0.0
C472 C 0.13449 0.15257 0.76439 0.0
H473 H 0.16438 0.24746 0.66577 0.0
H474 H 0.1809 0.22736 0.70298 0.0
H475 H 0.09625 0.16627 0.73919 0.0
H476 H 0.16382 0.07435 0.83168 0.0
H477 H 0.14394 0.09451 0.79494 0.0
H478 H 0.22548 0.15677 0.75838 0.0
C479 C 0.15911 0.21385 0.69448 0.0
C480 C 0.12454 0.16395 0.74311 0.0
C481 C 0.14954 0.2255 0.67322 0.0
C482 C 0.17659 0.09758 0.82425 0.0
C483 C 0.16513 0.10919 0.80329 0.0
C484 C 0.19718 0.15897 0.75443 0.0
C485 C 0.14042 0.18552 0.70475 0.0
C486 C 0.15084 0.17301 0.72728 0.0
C487 C 0.18171 0.13872 0.79293 0.0
C488 C 0.17092 0.15017 0.77029 0.0
H489 H 0.08015 0.16777 0.6636 0.0
H490 H 0.09722 0.147 0.70062 0.0
H491 H 0.20818 0.17632 0.72123 0.0
H492 H 0.24226 0.15983 0.8332 0.0
H493 H 0.2222 0.18011 0.79675 0.0
C494 C 0.07679 0.83012 0.17274 0.0
C495 C 0.09086 0.79689 0.16579 0.0
C496 C 0.08782 0.84541 0.19286 0.0
C497 C 0.12687 0.82191 0.247 0.0
H498 H 0.15613 0.92187 0.24936 0.0
C499 C 0.20348 0.87915 0.32185 0.0
C500 C 0.19534 0.91419 0.32894 0.0
C501 C 0.18903 0.86574 0.30212 0.0
C502 C 0.14753 0.89407 0.24908 0.0
H503 H 0.12736 0.75356 0.17439 0.0
H504 H 0.1464 0.78013 0.20952 0.0
H505 H 0.13337 0.89681 0.21456 0.0
H506 H 0.16562 0.96269 0.32105 0.0
H507 H 0.13974 0.93901 0.2867 0.0
H508 H 0.14075 0.819 0.28143 0.0
C509 C 0.12677 0.79428 0.1995 0.0
C510 C 0.13457 0.87974 0.22914 0.0
C511 C 0.11602 0.77919 0.17933 0.0
C512 C 0.17245 0.93561 0.31592 0.0
C513 C 0.15778 0.9221 0.29621 0.0
C514 C 0.13956 0.83626 0.26694 0.0
C515 C 0.1128 0.82753 0.20647 0.0
C516 C 0.12457 0.8434 0.22785 0.0
C517 C 0.16587 0.88696 0.2891 0.0
C518 C 0.15052 0.87237 0.26816 0.0
H519 H 0.05737 0.84435 0.16261 0.0
H520 H 0.07648 0.87097 0.19792 0.0
H521 H 0.11877 0.79395 0.24656 0.0
H522 H 0.22123 0.86208 0.33148 0.0
H523 H 0.19641 0.83882 0.29694 0.0
C524 C 0.88484 0.80887 0.66766 0.0
C525 C 0.86533 0.78051 0.65811 0.0
C526 C 0.87413 0.82375 0.68795 0.0
C527 C 0.79612 0.83093 0.72579 0.0
H528 H 0.86828 0.85307 0.77026 0.0
C529 C 0.75997 0.85806 0.81711 0.0
C530 C 0.77718 0.88687 0.82779 0.0
C531 C 0.77114 0.84678 0.7961 0.0
C532 C 0.84787 0.84743 0.7579 0.0
H533 H 0.81933 0.74546 0.66219 0.0
H534 H 0.80091 0.771 0.69775 0.0
H535 H 0.88679 0.83024 0.73395 0.0
H536 H 0.81977 0.92629 0.825 0.0
H537 H 0.83944 0.90642 0.78812 0.0
H538 H 0.7572 0.84758 0.74987 0.0
C539 C 0.82414 0.7822 0.68943 0.0
C540 C 0.85845 0.83439 0.7371 0.0
C541 C 0.8348 0.76741 0.66913 0.0
C542 C 0.80605 0.90398 0.81714 0.0
C543 C 0.81737 0.89254 0.79611 0.0
C544 C 0.78556 0.84382 0.74659 0.0
C545 C 0.84372 0.81049 0.6991 0.0
C546 C 0.83265 0.8257 0.72088 0.0
C547 C 0.79984 0.86397 0.78533 0.0
C548 C 0.8113 0.85189 0.76293 0.0
H549 H 0.90843 0.81959 0.65947 0.0
H550 H 0.88951 0.84581 0.69481 0.0
H551 H 0.77562 0.82516 0.71352 0.0
H552 H 0.73768 0.84428 0.82492 0.0
H553 H 0.75747 0.82433 0.78836 0.0
C554 C 0.78419 0.11188 0.3273 0.0
C555 C 0.79467 0.07718 0.33382 0.0
C556 C 0.79774 0.12708 0.30781 0.0
C557 C 0.84173 0.10293 0.25458 0.0
H558 H 0.86229 0.20509 0.25245 0.0
C559 C 0.9118 0.17145 0.17991 0.0
C560 C 0.89527 0.203 0.17211 0.0
C561 C 0.90078 0.15588 0.19993 0.0
C562 C 0.85648 0.17656 0.2528 0.0
H563 H 0.82788 0.03129 0.3253 0.0
H564 H 0.85234 0.05815 0.29154 0.0
H565 H 0.84131 0.1782 0.28706 0.0
H566 H 0.85461 0.24324 0.17917 0.0
H567 H 0.83565 0.21621 0.21425 0.0
H568 H 0.85742 0.1014 0.22031 0.0
C569 C 0.83302 0.07336 0.30119 0.0
C570 C 0.84434 0.16115 0.27258 0.0
C571 C 0.81919 0.05804 0.32059 0.0
C572 C 0.86781 0.21889 0.18478 0.0
C573 C 0.85709 0.20356 0.2049 0.0
C574 C 0.85422 0.1183 0.23485 0.0
C575 C 0.82237 0.10804 0.29452 0.0
C576 C 0.83651 0.12419 0.27367 0.0
C577 C 0.87337 0.17184 0.21261 0.0
C578 C 0.86142 0.1553 0.23374 0.0
H579 H 0.76515 0.12719 0.33712 0.0
H580 H 0.78843 0.15356 0.303 0.0
H581 H 0.83543 0.07451 0.2547 0.0
H582 H 0.93303 0.15863 0.17047 0.0
H583 H 0.91393 0.13155 0.2056 0.0
loop_
_geom_bond_atom_site_label_1
_geom_bond_atom_site_label_2
_geom_bond_distance
_geom_bond_site_symmetry_2
_ccdc_geom_bond_type
In0 O1 2.294 . S
In0 O2 2.326 . S
In0 O6 2.266 . S
In0 O7 2.326 . S
In0 O8 2.266 . S
In0 O9 2.326 . S
In0 O11 2.294 . S
In0 O12 2.326 . S
O1 In0 2.294 . S
O1 C10 1.240 . S
O2 In0 2.326 . S
O2 C10 1.252 . S
C3 O6 1.252 . S
C3 O7 1.260 . S
C4 O11 1.240 . S
C4 O12 1.252 . S
C5 O8 1.252 . S
C5 O9 1.260 . S
O6 In0 2.266 . S
O6 C3 1.252 . S
O7 In0 2.326 . S
O7 C3 1.260 . S
O8 In0 2.266 . S
O8 C5 1.252 . S
O9 In0 2.326 . S
O9 C5 1.260 . S
C10 O1 1.240 . S
C10 O2 1.252 . S
O11 In0 2.294 . S
O11 C4 1.240 . S
O12 In0 2.326 . S
O12 C4 1.252 . S
In13 O14 2.294 . S
In13 O15 2.326 . S
In13 O19 2.266 . S
In13 O20 2.326 . S
In13 O21 2.266 . S
In13 O22 2.326 . S
In13 O24 2.294 . S
In13 O25 2.326 . S
O14 In13 2.294 . S
O14 C23 1.240 . S
O15 In13 2.326 . S
O15 C23 1.252 . S
C16 O19 1.252 . S
C16 O20 1.260 . S
C17 O24 1.240 . S
C17 O25 1.252 . S
C18 O21 1.252 . S
C18 O22 1.260 . S
O19 In13 2.266 . S
O19 C16 1.252 . S
O20 In13 2.326 . S
O20 C16 1.260 . S
O21 In13 2.266 . S
O21 C18 1.252 . S
O22 In13 2.326 . S
O22 C18 1.260 . S
C23 O14 1.240 . S
C23 O15 1.252 . S
O24 In13 2.294 . S
O24 C17 1.240 . S
O25 In13 2.326 . S
O25 C17 1.252 . S
In26 O27 2.294 . S
In26 O28 2.326 . S
In26 O32 2.266 . S
In26 O33 2.326 . S
In26 O34 2.266 . S
In26 O35 2.326 . S
In26 O37 2.294 . S
In26 O38 2.326 . S
O27 In26 2.294 . S
O27 C36 1.240 . S
O28 In26 2.326 . S
O28 C36 1.252 . S
C29 O32 1.252 . S
C29 O33 1.260 . S
C30 O37 1.240 . S
C30 O38 1.252 . S
C31 O34 1.252 . S
C31 O35 1.260 . S
O32 In26 2.266 . S
O32 C29 1.252 . S
O33 In26 2.326 . S
O33 C29 1.260 . S
O34 In26 2.266 . S
O34 C31 1.252 . S
O35 In26 2.326 . S
O35 C31 1.260 . S
C36 O27 1.240 . S
C36 O28 1.252 . S
O37 In26 2.294 . S
O37 C30 1.240 . S
O38 In26 2.326 . S
O38 C30 1.252 . S
In39 O40 2.294 . S
In39 O41 2.326 . S
In39 O45 2.266 . S
In39 O46 2.326 . S
In39 O47 2.266 . S
In39 O48 2.326 . S
In39 O50 2.294 . S
In39 O51 2.326 . S
O40 In39 2.294 . S
O40 C49 1.240 . S
O41 In39 2.326 . S
O41 C49 1.252 . S
C42 O45 1.252 . S
C42 O46 1.260 . S
C43 O50 1.240 . S
C43 O51 1.252 . S
C44 O47 1.252 . S
C44 O48 1.260 . S
O45 In39 2.266 . S
O45 C42 1.252 . S
O46 In39 2.326 . S
O46 C42 1.260 . S
O47 In39 2.266 . S
O47 C44 1.252 . S
O48 In39 2.326 . S
O48 C44 1.260 . S
C49 O40 1.240 . S
C49 O41 1.252 . S
O50 In39 2.294 . S
O50 C43 1.240 . S
O51 In39 2.326 . S
O51 C43 1.252 . S
In52 O53 2.294 . S
In52 O54 2.326 . S
In52 O58 2.266 . S
In52 O59 2.326 . S
In52 O60 2.266 . S
In52 O61 2.326 . S
In52 O63 2.294 . S
In52 O64 2.326 . S
O53 In52 2.294 . S
O53 C62 1.240 . S
O54 In52 2.326 . S
O54 C62 1.252 . S
C55 O58 1.252 . S
C55 O59 1.260 . S
C56 O63 1.240 . S
C56 O64 1.252 . S
C57 O60 1.252 . S
C57 O61 1.260 . S
O58 In52 2.266 . S
O58 C55 1.252 . S
O59 In52 2.326 . S
O59 C55 1.260 . S
O60 In52 2.266 . S
O60 C57 1.252 . S
O61 In52 2.326 . S
O61 C57 1.260 . S
C62 O53 1.240 . S
C62 O54 1.252 . S
O63 In52 2.294 . S
O63 C56 1.240 . S
O64 In52 2.326 . S
O64 C56 1.252 . S
In65 O66 2.294 . S
In65 O67 2.326 . S
In65 O71 2.266 . S
In65 O72 2.326 . S
In65 O73 2.266 . S
In65 O74 2.326 . S
In65 O76 2.294 . S
In65 O77 2.326 . S
O66 In65 2.294 . S
O66 C75 1.240 . S
O67 In65 2.326 . S
O67 C75 1.252 . S
C68 O71 1.252 . S
C68 O72 1.260 . S
C69 O76 1.240 . S
C69 O77 1.252 . S
C70 O73 1.252 . S
C70 O74 1.260 . S
O71 In65 2.266 . S
O71 C68 1.252 . S
O72 In65 2.326 . S
O72 C68 1.260 . S
O73 In65 2.266 . S
O73 C70 1.252 . S
O74 In65 2.326 . S
O74 C70 1.260 . S
C75 O66 1.240 . S
C75 O67 1.252 . S
O76 In65 2.294 . S
O76 C69 1.240 . S
O77 In65 2.326 . S
O77 C69 1.252 . S
In78 O79 2.294 . S
In78 O80 2.326 . S
In78 O84 2.266 . S
In78 O85 2.326 . S
In78 O86 2.266 . S
In78 O87 2.326 . S
In78 O89 2.294 . S
In78 O90 2.326 . S
O79 In78 2.294 . S
O79 C88 1.240 . S
O80 In78 2.326 . S
O80 C88 1.252 . S
C81 O84 1.252 . S
C81 O85 1.260 . S
C82 O89 1.240 . S
C82 O90 1.252 . S
C83 O86 1.252 . S
C83 O87 1.260 . S
O84 In78 2.266 . S
O84 C81 1.252 . S
O85 In78 2.326 . S
O85 C81 1.260 . S
O86 In78 2.266 . S
O86 C83 1.252 . S
O87 In78 2.326 . S
O87 C83 1.260 . S
C88 O79 1.240 . S
C88 O80 1.252 . S
O89 In78 2.294 . S
O89 C82 1.240 . S
O90 In78 2.326 . S
O90 C82 1.252 . S
In91 O92 2.294 . S
In91 O93 2.326 . S
In91 O97 2.266 . S
In91 O98 2.326 . S
In91 O99 2.266 . S
In91 O100 2.326 . S
In91 O102 2.294 . S
In91 O103 2.326 . S
O92 In91 2.294 . S
O92 C101 1.240 . S
O93 In91 2.326 . S
O93 C101 1.252 . S
C94 O97 1.252 . S
C94 O98 1.260 . S
C95 O102 1.240 . S
C95 O103 1.252 . S
C96 O99 1.252 . S
C96 O100 1.260 . S
O97 In91 2.266 . S
O97 C94 1.252 . S
O98 In91 2.326 . S
O98 C94 1.260 . S
O99 In91 2.266 . S
O99 C96 1.252 . S
O100 In91 2.326 . S
O100 C96 1.260 . S
C101 O92 1.240 . S
C101 O93 1.252 . S
O102 In91 2.294 . S
O102 C95 1.240 . S
O103 In91 2.326 . S
O103 C95 1.252 . S
C104 C105 1.349 . S
C104 C106 1.327 . S
C104 H129 0.950 . S
C105 C104 1.349 . S
C105 C121 1.349 . S
C106 C104 1.327 . S
C106 C125 1.429 . S
C106 H130 0.950 . S
C107 C124 1.574 . S
C107 C126 1.368 . S
C107 H131 0.949 . S
H108 C112 0.949 . S
C109 C110 1.349 . S
C109 C111 1.327 . S
C109 H132 0.950 . S
C110 C109 1.349 . S
C110 C122 1.349 . S
C111 C109 1.327 . S
C111 C127 1.429 . S
C111 H133 0.950 . S
C112 H108 0.949 . S
C112 C120 1.574 . S
C112 C128 1.368 . S
H113 C121 0.950 . S
H114 C119 0.950 . S
H115 C120 0.949 . S
H116 C122 0.950 . S
H117 C123 0.950 . S
H118 C124 0.949 . S
C119 H114 0.950 . S
C119 C121 1.327 . S
C119 C125 1.429 . S
C120 C112 1.574 . S
C120 H115 0.949 . S
C120 C126 1.368 1_455 S
C121 C105 1.349 . S
C121 H113 0.950 . S
C121 C119 1.327 . S
C122 C110 1.349 . S
C122 H116 0.950 . S
C122 C123 1.327 . S
C123 H117 0.950 . S
C123 C122 1.327 . S
C123 C127 1.429 . S
C124 C107 1.574 . S
C124 H118 0.949 . S
C124 C128 1.368 1_655 S
C125 C106 1.429 . S
C125 C119 1.429 . S
C125 C126 1.523 . S
C126 C107 1.368 . S
C126 C120 1.368 1_655 S
C126 C125 1.523 . S
C127 C111 1.429 . S
C127 C123 1.429 . S
C127 C128 1.523 . S
C128 C112 1.368 . S
C128 C124 1.368 1_455 S
C128 C127 1.523 . S
H129 C104 0.950 . S
H130 C106 0.950 . S
H131 C107 0.949 . S
H132 C109 0.950 . S
H133 C111 0.950 . S
C134 C135 1.349 . S
C134 C136 1.327 . S
C134 H159 0.950 . S
C135 C134 1.349 . S
C135 C151 1.349 . S
C136 C134 1.327 . S
C136 C155 1.429 . S
C136 H160 0.950 . S
C137 C154 1.574 . S
C137 C156 1.368 1_565 S
C137 H161 0.949 . S
H138 C142 0.949 . S
C139 C140 1.349 . S
C139 C141 1.327 . S
C139 H162 0.950 . S
C140 C139 1.349 . S
C140 C152 1.349 . S
C141 C139 1.327 . S
C141 C157 1.429 . S
C141 H163 0.950 . S
C142 H138 0.949 . S
C142 C150 1.574 . S
C142 C158 1.368 1_545 S
H143 C151 0.950 . S
H144 C149 0.950 . S
H145 C150 0.949 . S
H146 C152 0.950 . S
H147 C153 0.950 . S
H148 C154 0.949 . S
C149 H144 0.950 . S
C149 C151 1.327 . S
C149 C155 1.429 . S
C150 C142 1.574 . S
C150 H145 0.949 . S
C150 C156 1.368 . S
C151 C135 1.349 . S
C151 H143 0.950 . S
C151 C149 1.327 . S
C152 C140 1.349 . S
C152 H146 0.950 . S
C152 C153 1.327 . S
C153 H147 0.950 . S
C153 C152 1.327 . S
C153 C157 1.429 . S
C154 C137 1.574 . S
C154 H148 0.949 . S
C154 C158 1.368 . S
C155 C136 1.429 . S
C155 C149 1.429 . S
C155 C156 1.523 . S
C156 C137 1.368 1_545 S
C156 C150 1.368 . S
C156 C155 1.523 . S
C157 C141 1.429 . S
C157 C153 1.429 . S
C157 C158 1.523 . S
C158 C142 1.368 1_565 S
C158 C154 1.368 . S
C158 C157 1.523 . S
H159 C134 0.950 . S
H160 C136 0.950 . S
H161 C137 0.949 . S
H162 C139 0.950 . S
H163 C141 0.950 . S
C164 C165 1.349 . S
C164 C166 1.327 . S
C164 H189 0.950 . S
C165 C164 1.349 . S
C165 C181 1.349 . S
C166 C164 1.327 . S
C166 C185 1.429 . S
C166 H190 0.950 . S
C167 C184 1.574 . S
C167 C186 1.368 1_455 S
C167 H191 0.949 . S
H168 C172 0.949 . S
C169 C170 1.349 . S
C169 C171 1.327 . S
C169 H192 0.950 . S
C170 C169 1.349 . S
C170 C182 1.349 . S
C171 C169 1.327 . S
C171 C187 1.429 . S
C171 H193 0.950 . S
C172 H168 0.949 . S
C172 C180 1.574 . S
C172 C188 1.368 1_655 S
H173 C181 0.950 . S
H174 C179 0.950 . S
H175 C180 0.949 . S
H176 C182 0.950 . S
H177 C183 0.950 . S
H178 C184 0.949 . S
C179 H174 0.950 . S
C179 C181 1.327 . S
C179 C185 1.429 . S
C180 C172 1.574 . S
C180 H175 0.949 . S
C180 C186 1.368 . S
C181 C165 1.349 . S
C181 H173 0.950 . S
C181 C179 1.327 . S
C182 C170 1.349 . S
C182 H176 0.950 . S
C182 C183 1.327 . S
C183 H177 0.950 . S
C183 C182 1.327 . S
C183 C187 1.429 . S
C184 C167 1.574 . S
C184 H178 0.949 . S
C184 C188 1.368 . S
C185 C166 1.429 . S
C185 C179 1.429 . S
C185 C186 1.523 . S
C186 C167 1.368 1_655 S
C186 C180 1.368 . S
C186 C185 1.523 . S
C187 C171 1.429 . S
C187 C183 1.429 . S
C187 C188 1.523 . S
C188 C172 1.368 1_455 S
C188 C184 1.368 . S
C188 C187 1.523 . S
H189 C164 0.950 . S
H190 C166 0.950 . S
H191 C167 0.949 . S
H192 C169 0.950 . S
H193 C171 0.950 . S
C194 C195 1.349 . S
C194 C196 1.327 . S
C194 H219 0.950 . S
C195 C194 1.349 . S
C195 C211 1.349 . S
C196 C194 1.327 . S
C196 C215 1.429 . S
C196 H220 0.950 . S
C197 C214 1.574 . S
C197 C216 1.368 1_565 S
C197 H221 0.949 . S
H198 C202 0.949 . S
C199 C200 1.349 . S
C199 C201 1.327 . S
C199 H222 0.950 . S
C200 C199 1.349 . S
C200 C212 1.349 . S
C201 C199 1.327 . S
C201 C217 1.429 . S
C201 H223 0.950 . S
C202 H198 0.949 . S
C202 C210 1.574 . S
C202 C218 1.368 1_545 S
H203 C211 0.950 . S
H204 C209 0.950 . S
H205 C210 0.949 . S
H206 C212 0.950 . S
H207 C213 0.950 . S
H208 C214 0.949 . S
C209 H204 0.950 . S
C209 C211 1.327 . S
C209 C215 1.429 . S
C210 C202 1.574 . S
C210 H205 0.949 . S
C210 C216 1.368 . S
C211 C195 1.349 . S
C211 H203 0.950 . S
C211 C209 1.327 . S
C212 C200 1.349 . S
C212 H206 0.950 . S
C212 C213 1.327 . S
C213 H207 0.950 . S
C213 C212 1.327 . S
C213 C217 1.429 . S
C214 C197 1.574 . S
C214 H208 0.949 . S
C214 C218 1.368 . S
C215 C196 1.429 . S
C215 C209 1.429 . S
C215 C216 1.523 . S
C216 C197 1.368 1_545 S
C216 C210 1.368 . S
C216 C215 1.523 . S
C217 C201 1.429 . S
C217 C213 1.429 . S
C217 C218 1.523 . S
C218 C202 1.368 1_565 S
C218 C214 1.368 . S
C218 C217 1.523 . S
H219 C194 0.950 . S
H220 C196 0.950 . S
H221 C197 0.949 . S
H222 C199 0.950 . S
H223 C201 0.950 . S
C224 C225 1.349 . S
C224 C226 1.327 1_565 S
C224 H249 0.950 . S
C225 C224 1.349 . S
C225 C241 1.349 1_565 S
C226 C224 1.327 1_545 S
C226 C245 1.429 . S
C226 H250 0.950 . S
C227 C244 1.574 . S
C227 C246 1.368 . S
C227 H251 0.949 . S
H228 C232 0.949 . S
C229 C230 1.349 . S
C229 C231 1.327 . S
C229 H252 0.950 . S
C230 C229 1.349 . S
C230 C242 1.349 . S
C231 C229 1.327 . S
C231 C247 1.429 . S
C231 H253 0.950 . S
C232 H228 0.949 . S
C232 C240 1.574 . S
C232 C248 1.368 . S
H233 C241 0.950 . S
H234 C239 0.950 . S
H235 C240 0.949 . S
H236 C242 0.950 . S
H237 C243 0.950 . S
H238 C244 0.949 . S
C239 H234 0.950 . S
C239 C241 1.327 . S
C239 C245 1.429 . S
C240 C232 1.574 . S
C240 H235 0.949 . S
C240 C246 1.368 . S
C241 C225 1.349 1_545 S
C241 H233 0.950 . S
C241 C239 1.327 . S
C242 C230 1.349 . S
C242 H236 0.950 . S
C242 C243 1.327 . S
C243 H237 0.950 . S
C243 C242 1.327 . S
C243 C247 1.429 . S
C244 C227 1.574 . S
C244 H238 0.949 . S
C244 C248 1.368 . S
C245 C226 1.429 . S
C245 C239 1.429 . S
C245 C246 1.523 . S
C246 C227 1.368 . S
C246 C240 1.368 . S
C246 C245 1.523 . S
C247 C231 1.429 . S
C247 C243 1.429 . S
C247 C248 1.523 . S
C248 C232 1.368 . S
C248 C244 1.368 . S
C248 C247 1.523 . S
H249 C224 0.950 . S
H250 C226 0.950 . S
H251 C227 0.949 . S
H252 C229 0.950 . S
H253 C231 0.950 . S
C254 C255 1.349 . S
C254 C256 1.327 . S
C254 H279 0.950 . S
C255 C254 1.349 . S
C255 C271 1.349 . S
C256 C254 1.327 . S
C256 C275 1.429 . S
C256 H280 0.950 . S
C257 C274 1.574 . S
C257 C276 1.368 . S
C257 H281 0.949 . S
H258 C262 0.949 . S
C259 C260 1.349 1_455 S
C259 C261 1.327 . S
C259 H282 0.950 . S
C260 C259 1.349 1_655 S
C260 C272 1.349 . S
C261 C259 1.327 . S
C261 C277 1.429 . S
C261 H283 0.950 . S
C262 H258 0.949 . S
C262 C270 1.574 . S
C262 C278 1.368 . S
H263 C271 0.950 . S
H264 C269 0.950 . S
H265 C270 0.949 . S
H266 C272 0.950 . S
H267 C273 0.950 1_655 S
H268 C274 0.949 . S
C269 H264 0.950 . S
C269 C271 1.327 . S
C269 C275 1.429 . S
C270 C262 1.574 . S
C270 H265 0.949 . S
C270 C276 1.368 . S
C271 C255 1.349 . S
C271 H263 0.950 . S
C271 C269 1.327 . S
C272 C260 1.349 . S
C272 H266 0.950 . S
C272 C273 1.327 1_655 S
C273 H267 0.950 1_455 S
C273 C272 1.327 1_455 S
C273 C277 1.429 . S
C274 C257 1.574 . S
C274 H268 0.949 . S
C274 C278 1.368 . S
C275 C256 1.429 . S
C275 C269 1.429 . S
C275 C276 1.523 . S
C276 C257 1.368 . S
C276 C270 1.368 . S
C276 C275 1.523 . S
C277 C261 1.429 . S
C277 C273 1.429 . S
C277 C278 1.523 . S
C278 C262 1.368 . S
C278 C274 1.368 . S
C278 C277 1.523 . S
H279 C254 0.950 . S
H280 C256 0.950 . S
H281 C257 0.949 . S
H282 C259 0.950 . S
H283 C261 0.950 . S
C284 C285 1.349 . S
C284 C286 1.327 1_545 S
C284 H309 0.950 . S
C285 C284 1.349 . S
C285 C301 1.349 1_545 S
C286 C284 1.327 1_565 S
C286 C305 1.429 . S
C286 H310 0.950 . S
C287 C304 1.574 . S
C287 C306 1.368 . S
C287 H311 0.949 . S
H288 C292 0.949 . S
C289 C290 1.349 . S
C289 C291 1.327 . S
C289 H312 0.950 . S
C290 C289 1.349 . S
C290 C302 1.349 . S
C291 C289 1.327 . S
C291 C307 1.429 . S
C291 H313 0.950 . S
C292 H288 0.949 . S
C292 C300 1.574 . S
C292 C308 1.368 . S
H293 C301 0.950 1_545 S
H294 C299 0.950 . S
H295 C300 0.949 . S
H296 C302 0.950 . S
H297 C303 0.950 . S
H298 C304 0.949 . S
C299 H294 0.950 . S
C299 C301 1.327 . S
C299 C305 1.429 . S
C300 C292 1.574 . S
C300 H295 0.949 . S
C300 C306 1.368 . S
C301 C285 1.349 1_565 S
C301 H293 0.950 1_565 S
C301 C299 1.327 . S
C302 C290 1.349 . S
C302 H296 0.950 . S
C302 C303 1.327 . S
C303 H297 0.950 . S
C303 C302 1.327 . S
C303 C307 1.429 . S
C304 C287 1.574 . S
C304 H298 0.949 . S
C304 C308 1.368 . S
C305 C286 1.429 . S
C305 C299 1.429 . S
C305 C306 1.523 . S
C306 C287 1.368 . S
C306 C300 1.368 . S
C306 C305 1.523 . S
C307 C291 1.429 . S
C307 C303 1.429 . S
C307 C308 1.523 . S
C308 C292 1.368 . S
C308 C304 1.368 . S
C308 C307 1.523 . S
H309 C284 0.950 . S
H310 C286 0.950 . S
H311 C287 0.949 . S
H312 C289 0.950 . S
H313 C291 0.950 . S
C314 C315 1.349 . S
C314 C316 1.327 . S
C314 H339 0.950 . S
C315 C314 1.349 . S
C315 C331 1.349 . S
C316 C314 1.327 . S
C316 C335 1.429 . S
C316 H340 0.950 . S
C317 C334 1.574 . S
C317 C336 1.368 . S
C317 H341 0.949 . S
H318 C322 0.949 . S
C319 C320 1.349 . S
C319 C321 1.327 1_455 S
C319 H342 0.950 . S
C320 C319 1.349 . S
C320 C332 1.349 1_455 S
C321 C319 1.327 1_655 S
C321 C337 1.429 . S
C321 H343 0.950 1_655 S
C322 H318 0.949 . S
C322 C330 1.574 . S
C322 C338 1.368 . S
H323 C331 0.950 . S
H324 C329 0.950 . S
H325 C330 0.949 . S
H326 C332 0.950 . S
H327 C333 0.950 . S
H328 C334 0.949 . S
C329 H324 0.950 . S
C329 C331 1.327 . S
C329 C335 1.429 . S
C330 C322 1.574 . S
C330 H325 0.949 . S
C330 C336 1.368 . S
C331 C315 1.349 . S
C331 H323 0.950 . S
C331 C329 1.327 . S
C332 C320 1.349 1_655 S
C332 H326 0.950 . S
C332 C333 1.327 . S
C333 H327 0.950 . S
C333 C332 1.327 . S
C333 C337 1.429 . S
C334 C317 1.574 . S
C334 H328 0.949 . S
C334 C338 1.368 . S
C335 C316 1.429 . S
C335 C329 1.429 . S
C335 C336 1.523 . S
C336 C317 1.368 . S
C336 C330 1.368 . S
C336 C335 1.523 . S
C337 C321 1.429 . S
C337 C333 1.429 . S
C337 C338 1.523 . S
C338 C322 1.368 . S
C338 C334 1.368 . S
C338 C337 1.523 . S
H339 C314 0.950 . S
H340 C316 0.950 . S
H341 C317 0.949 . S
H342 C319 0.950 . S
H343 C321 0.950 1_455 S
C344 C345 1.349 . S
C344 C346 1.327 1_565 S
C344 H369 0.950 . S
C345 C344 1.349 . S
C345 C361 1.349 1_565 S
C346 C344 1.327 1_545 S
C346 C365 1.429 . S
C346 H370 0.946 1_545 S
C347 C364 1.574 . S
C347 C366 1.368 . S
C347 H371 0.949 . S
H348 C352 0.949 . S
C349 C350 1.349 . S
C349 C351 1.327 . S
C349 H372 0.950 . S
C350 C349 1.349 . S
C350 C362 1.349 . S
C351 C349 1.327 . S
C351 C367 1.429 . S
C351 H373 0.950 . S
C352 H348 0.949 . S
C352 C360 1.574 . S
C352 C368 1.368 . S
H353 C361 0.950 . S
H354 C359 0.950 . S
H355 C360 0.949 . S
H356 C362 0.950 . S
H357 C363 0.950 . S
H358 C364 0.949 . S
C359 H354 0.950 . S
C359 C361 1.327 . S
C359 C365 1.429 . S
C360 C352 1.574 . S
C360 H355 0.949 . S
C360 C366 1.368 1_554 S
C361 C345 1.349 1_545 S
C361 H353 0.950 . S
C361 C359 1.327 . S
C362 C350 1.349 . S
C362 H356 0.950 . S
C362 C363 1.327 . S
C363 H357 0.950 . S
C363 C362 1.327 . S
C363 C367 1.429 . S
C364 C347 1.574 . S
C364 H358 0.949 . S
C364 C368 1.368 1_556 S
C365 C346 1.429 . S
C365 C359 1.429 . S
C365 C366 1.523 . S
C366 C347 1.368 . S
C366 C360 1.368 1_556 S
C366 C365 1.523 . S
C367 C351 1.429 . S
C367 C363 1.429 . S
C367 C368 1.523 . S
C368 C352 1.368 . S
C368 C364 1.368 1_554 S
C368 C367 1.523 . S
H369 C344 0.950 . S
H370 C346 0.946 1_565 S
H371 C347 0.949 . S
H372 C349 0.950 . S
H373 C351 0.950 . S
C374 C375 1.349 . S
C374 C376 1.327 . S
C374 H399 0.950 . S
C375 C374 1.349 . S
C375 C391 1.349 . S
C376 C374 1.327 . S
C376 C395 1.429 . S
C376 H400 0.950 . S
C377 C394 1.574 . S
C377 C396 1.368 . S
C377 H401 0.949 . S
H378 C382 0.949 . S
C379 C380 1.349 . S
C379 C381 1.327 1_655 S
C379 H402 0.950 . S
C380 C379 1.349 . S
C380 C392 1.349 1_655 S
C381 C379 1.327 1_455 S
C381 C397 1.429 . S
C381 H403 0.950 . S
C382 H378 0.949 . S
C382 C390 1.574 . S
C382 C398 1.368 . S
H383 C391 0.950 . S
H384 C389 0.950 . S
H385 C390 0.949 . S
H386 C392 0.950 . S
H387 C393 0.950 . S
H388 C394 0.949 . S
C389 H384 0.950 . S
C389 C391 1.327 . S
C389 C395 1.429 . S
C390 C382 1.574 . S
C390 H385 0.949 . S
C390 C396 1.368 1_554 S
C391 C375 1.349 . S
C391 H383 0.950 . S
C391 C389 1.327 . S
C392 C380 1.349 1_455 S
C392 H386 0.950 . S
C392 C393 1.327 . S
C393 H387 0.950 . S
C393 C392 1.327 . S
C393 C397 1.429 . S
C394 C377 1.574 . S
C394 H388 0.949 . S
C394 C398 1.368 1_556 S
C395 C376 1.429 . S
C395 C389 1.429 . S
C395 C396 1.523 . S
C396 C377 1.368 . S
C396 C390 1.368 1_556 S
C396 C395 1.523 . S
C397 C381 1.429 . S
C397 C393 1.429 . S
C397 C398 1.523 . S
C398 C382 1.368 . S
C398 C394 1.368 1_554 S
C398 C397 1.523 . S
H399 C374 0.950 . S
H400 C376 0.950 . S
H401 C377 0.949 . S
H402 C379 0.950 . S
H403 C381 0.950 . S
C404 C405 1.349 . S
C404 C406 1.327 . S
C404 H429 0.950 . S
C405 C404 1.349 . S
C405 C421 1.349 . S
C406 C404 1.327 . S
C406 C425 1.429 . S
C406 H430 0.950 . S
C407 C424 1.574 . S
C407 C426 1.368 . S
C407 H431 0.949 . S
H408 C412 0.949 . S
C409 C410 1.349 . S
C409 C411 1.327 1_545 S
C409 H432 0.950 . S
C410 C409 1.349 . S
C410 C422 1.349 1_545 S
C411 C409 1.327 1_565 S
C411 C427 1.429 . S
C411 H433 0.950 . S
C412 H408 0.949 . S
C412 C420 1.574 . S
C412 C428 1.368 . S
H413 C421 0.950 . S
H414 C419 0.950 . S
H415 C420 0.949 . S
H416 C422 0.950 . S
H417 C423 0.950 . S
H418 C424 0.949 . S
C419 H414 0.950 . S
C419 C421 1.327 . S
C419 C425 1.429 . S
C420 C412 1.574 . S
C420 H415 0.949 . S
C420 C426 1.368 1_556 S
C421 C405 1.349 . S
C421 H413 0.950 . S
C421 C419 1.327 . S
C422 C410 1.349 1_565 S
C422 H416 0.950 . S
C422 C423 1.327 . S
C423 H417 0.950 . S
C423 C422 1.327 . S
C423 C427 1.429 . S
C424 C407 1.574 . S
C424 H418 0.949 . S
C424 C428 1.368 1_554 S
C425 C406 1.429 . S
C425 C419 1.429 . S
C425 C426 1.523 . S
C426 C407 1.368 . S
C426 C420 1.368 1_554 S
C426 C425 1.523 . S
C427 C411 1.429 . S
C427 C423 1.429 . S
C427 C428 1.523 . S
C428 C412 1.368 . S
C428 C424 1.368 1_556 S
C428 C427 1.523 . S
H429 C404 0.950 . S
H430 C406 0.950 . S
H431 C407 0.949 . S
H432 C409 0.950 . S
H433 C411 0.950 . S
C434 C435 1.349 . S
C434 C436 1.327 . S
C434 H459 0.950 . S
C435 C434 1.349 . S
C435 C451 1.349 . S
C436 C434 1.327 . S
C436 C455 1.429 . S
C436 H460 0.950 . S
C437 C454 1.574 . S
C437 C456 1.368 1_554 S
C437 H461 0.949 . S
H438 C442 0.949 . S
C439 C440 1.349 1_655 S
C439 C441 1.327 . S
C439 H462 0.950 . S
C440 C439 1.349 1_455 S
C440 C452 1.349 . S
C441 C439 1.327 . S
C441 C457 1.429 . S
C441 H463 0.950 . S
C442 H438 0.949 . S
C442 C450 1.574 . S
C442 C458 1.368 1_556 S
H443 C451 0.950 . S
H444 C449 0.950 . S
H445 C450 0.949 . S
H446 C452 0.950 . S
H447 C453 0.950 . S
H448 C454 0.949 . S
C449 H444 0.950 . S
C449 C451 1.327 . S
C449 C455 1.429 . S
C450 C442 1.574 . S
C450 H445 0.949 . S
C450 C456 1.368 . S
C451 C435 1.349 . S
C451 H443 0.950 . S
C451 C449 1.327 . S
C452 C440 1.349 . S
C452 H446 0.950 . S
C452 C453 1.327 1_455 S
C453 H447 0.950 . S
C453 C452 1.327 1_655 S
C453 C457 1.429 . S
C454 C437 1.574 . S
C454 H448 0.949 . S
C454 C458 1.368 . S
C455 C436 1.429 . S
C455 C449 1.429 . S
C455 C456 1.523 . S
C456 C437 1.368 1_556 S
C456 C450 1.368 . S
C456 C455 1.523 . S
C457 C441 1.429 . S
C457 C453 1.429 . S
C457 C458 1.523 . S
C458 C442 1.368 1_554 S
C458 C454 1.368 . S
C458 C457 1.523 . S
H459 C434 0.950 . S
H460 C436 0.950 . S
H461 C437 0.949 . S
H462 C439 0.950 . S
H463 C441 0.950 . S
C464 C465 1.349 . S
C464 C466 1.327 . S
C464 H489 0.950 . S
C465 C464 1.349 . S
C465 C481 1.349 . S
C466 C464 1.327 . S
C466 C485 1.429 . S
C466 H490 0.950 . S
C467 C484 1.574 . S
C467 C486 1.368 . S
C467 H491 0.949 . S
H468 C472 0.949 . S
C469 C470 1.349 . S
C469 C471 1.327 . S
C469 H492 0.950 . S
C470 C469 1.349 . S
C470 C482 1.349 . S
C471 C469 1.327 . S
C471 C487 1.429 . S
C471 H493 0.950 . S
C472 H468 0.949 . S
C472 C480 1.574 . S
C472 C488 1.368 . S
H473 C481 0.950 . S
H474 C479 0.950 . S
H475 C480 0.949 . S
H476 C482 0.950 . S
H477 C483 0.950 . S
H478 C484 0.949 . S
C479 H474 0.950 . S
C479 C481 1.327 . S
C479 C485 1.429 . S
C480 C472 1.574 . S
C480 H475 0.949 . S
C480 C486 1.368 . S
C481 C465 1.349 . S
C481 H473 0.950 . S
C481 C479 1.327 . S
C482 C470 1.349 . S
C482 H476 0.950 . S
C482 C483 1.327 . S
C483 H477 0.950 . S
C483 C482 1.327 . S
C483 C487 1.429 . S
C484 C467 1.574 . S
C484 H478 0.949 . S
C484 C488 1.368 . S
C485 C466 1.429 . S
C485 C479 1.429 . S
C485 C486 1.523 . S
C486 C467 1.368 . S
C486 C480 1.368 . S
C486 C485 1.523 . S
C487 C471 1.429 . S
C487 C483 1.429 . S
C487 C488 1.523 . S
C488 C472 1.368 . S
C488 C484 1.368 . S
C488 C487 1.523 . S
H489 C464 0.950 . S
H490 C466 0.950 . S
H491 C467 0.949 . S
H492 C469 0.950 . S
H493 C471 0.950 . S
C494 C495 1.349 . S
C494 C496 1.327 . S
C494 H519 0.950 . S
C495 C494 1.349 . S
C495 C511 1.349 . S
C496 C494 1.327 . S
C496 C515 1.429 . S
C496 H520 0.950 . S
C497 C514 1.574 . S
C497 C516 1.368 . S
C497 H521 0.949 . S
H498 C502 0.949 . S
C499 C500 1.349 . S
C499 C501 1.327 . S
C499 H522 0.950 . S
C500 C499 1.349 . S
C500 C512 1.349 . S
C501 C499 1.327 . S
C501 C517 1.429 . S
C501 H523 0.950 . S
C502 H498 0.949 . S
C502 C510 1.574 . S
C502 C518 1.368 . S
H503 C511 0.950 . S
H504 C509 0.950 . S
H505 C510 0.949 . S
H506 C512 0.950 . S
H507 C513 0.950 . S
H508 C514 0.949 . S
C509 H504 0.950 . S
C509 C511 1.327 . S
C509 C515 1.429 . S
C510 C502 1.574 . S
C510 H505 0.949 . S
C510 C516 1.368 . S
C511 C495 1.349 . S
C511 H503 0.950 . S
C511 C509 1.327 . S
C512 C500 1.349 . S
C512 H506 0.950 . S
C512 C513 1.327 . S
C513 H507 0.950 . S
C513 C512 1.327 . S
C513 C517 1.429 . S
C514 C497 1.574 . S
C514 H508 0.949 . S
C514 C518 1.368 . S
C515 C496 1.429 . S
C515 C509 1.429 . S
C515 C516 1.523 . S
C516 C497 1.368 . S
C516 C510 1.368 . S
C516 C515 1.523 . S
C517 C501 1.429 . S
C517 C513 1.429 . S
C517 C518 1.523 . S
C518 C502 1.368 . S
C518 C514 1.368 . S
C518 C517 1.523 . S
H519 C494 0.950 . S
H520 C496 0.950 . S
H521 C497 0.949 . S
H522 C499 0.950 . S
H523 C501 0.950 . S
C524 C525 1.349 . S
C524 C526 1.327 . S
C524 H549 0.950 . S
C525 C524 1.349 . S
C525 C541 1.349 . S
C526 C524 1.327 . S
C526 C545 1.429 . S
C526 H550 0.950 . S
C527 C544 1.574 . S
C527 C546 1.368 . S
C527 H551 0.949 . S
H528 C532 0.949 . S
C529 C530 1.349 . S
C529 C531 1.327 . S
C529 H552 0.950 . S
C530 C529 1.349 . S
C530 C542 1.349 . S
C531 C529 1.327 . S
C531 C547 1.429 . S
C531 H553 0.950 . S
C532 H528 0.949 . S
C532 C540 1.574 . S
C532 C548 1.368 . S
H533 C541 0.950 . S
H534 C539 0.950 . S
H535 C540 0.949 . S
H536 C542 0.950 . S
H537 C543 0.950 . S
H538 C544 0.949 . S
C539 H534 0.950 . S
C539 C541 1.327 . S
C539 C545 1.429 . S
C540 C532 1.574 . S
C540 H535 0.949 . S
C540 C546 1.368 . S
C541 C525 1.349 . S
C541 H533 0.950 . S
C541 C539 1.327 . S
C542 C530 1.349 . S
C542 H536 0.950 . S
C542 C543 1.327 . S
C543 H537 0.950 . S
C543 C542 1.327 . S
C543 C547 1.429 . S
C544 C527 1.574 . S
C544 H538 0.949 . S
C544 C548 1.368 . S
C545 C526 1.429 . S
C545 C539 1.429 . S
C545 C546 1.523 . S
C546 C527 1.368 . S
C546 C540 1.368 . S
C546 C545 1.523 . S
C547 C531 1.429 . S
C547 C543 1.429 . S
C547 C548 1.523 . S
C548 C532 1.368 . S
C548 C544 1.368 . S
C548 C547 1.523 . S
H549 C524 0.950 . S
H550 C526 0.950 . S
H551 C527 0.949 . S
H552 C529 0.950 . S
H553 C531 0.950 . S
C554 C555 1.349 . S
C554 C556 1.327 . S
C554 H579 0.950 . S
C555 C554 1.349 . S
C555 C571 1.349 . S
C556 C554 1.327 . S
C556 C575 1.429 . S
C556 H580 0.950 . S
C557 C574 1.574 . S
C557 C576 1.368 . S
C557 H581 0.949 . S
H558 C562 0.949 . S
C559 C560 1.349 . S
C559 C561 1.327 . S
C559 H582 0.950 . S
C560 C559 1.349 . S
C560 C572 1.349 . S
C561 C559 1.327 . S
C561 C577 1.429 . S
C561 H583 0.950 . S
C562 H558 0.949 . S
C562 C570 1.574 . S
C562 C578 1.368 . S
H563 C571 0.950 . S
H564 C569 0.950 . S
H565 C570 0.949 . S
H566 C572 0.950 . S
H567 C573 0.950 . S
H568 C574 0.949 . S
C569 H564 0.950 . S
C569 C571 1.327 . S
C569 C575 1.429 . S
C570 C562 1.574 . S
C570 H565 0.949 . S
C570 C576 1.368 . S
C571 C555 1.349 . S
C571 H563 0.950 . S
C571 C569 1.327 . S
C572 C560 1.349 . S
C572 H566 0.950 . S
C572 C573 1.327 . S
C573 H567 0.950 . S
C573 C572 1.327 . S
C573 C577 1.429 . S
C574 C557 1.574 . S
C574 H568 0.949 . S
C574 C578 1.368 . S
C575 C556 1.429 . S
C575 C569 1.429 . S
C575 C576 1.523 . S
C576 C557 1.368 . S
C576 C570 1.368 . S
C576 C575 1.523 . S
C577 C561 1.429 . S
C577 C573 1.429 . S
C577 C578 1.523 . S
C578 C562 1.368 . S
C578 C574 1.368 . S
C578 C577 1.523 . S
H579 C554 0.950 . S
H580 C556 0.950 . S
H581 C557 0.949 . S
H582 C559 0.950 . S
H583 C561 0.950 . S
C105 C36 1.555 . S
C110 C10 1.555 . S
C135 C49 1.555 . S
C140 C23 1.555 . S
C165 C56 1.555 . S
C170 C88 1.555 . S
C195 C75 1.555 . S
C200 C95 1.555 . S
C225 C18 0.980 . S
C230 C3 0.970 . S
C255 C16 0.970 . S
C260 C31 0.980 . S
C285 C44 0.980 . S
C290 C29 0.970 . S
C315 C42 0.970 . S
C320 C5 0.980 . S
C345 C94 0.980 . S
C350 C57 0.970 . S
C375 C68 0.970 . S
C380 C55 0.980 . S
C405 C81 0.970 . S
C410 C70 0.980 . S
C435 C96 0.970 . S
C440 C83 0.980 . S
C465 C4 1.750 . S
C470 C69 1.750 . S
C495 C82 1.750 . S
C500 C17 1.750 . S
C525 C30 1.750 . S
C530 C101 1.750 . S
C555 C43 1.750 . S
C560 C62 1.750 . S
