# Generated by pormake.
# Topology unw, (4)-cn, num edge types: 1
# Building blocks:
#     Node 0, Type 0, BuildingBlock: ICAMEG_clean_sbu_1, # of connection points: 4
#     Node 1, Type 0, BuildingBlock: ICAMEG_clean_sbu_1, # of connection points: 4
#     Node 2, Type 0, BuildingBlock: ICAMEG_clean_sbu_1, # of connection points: 4
#     Node 3, Type 0, BuildingBlock: ICAMEG_clean_sbu_1, # of connection points: 4
#     Node 4, Type 0, BuildingBlock: ICAMEG_clean_sbu_1, # of connection points: 4
#     Node 5, Type 0, BuildingBlock: ICAMEG_clean_sbu_1, # of connection points: 4
#     Node 6, Type 0, BuildingBlock: ICAMEG_clean_sbu_1, # of connection points: 4
#     Node 7, Type 0, BuildingBlock: ICAMEG_clean_sbu_1, # of connection points: 4
#     Node 8, Type 0, BuildingBlock: ICAMEG_clean_sbu_1, # of connection points: 4
#     Node 9, Type 0, BuildingBlock: ICAMEG_clean_sbu_1, # of connection points: 4
#     Node 10, Type 0, BuildingBlock: ICAMEG_clean_sbu_1, # of connection points: 4
#     Node 11, Type 0, BuildingBlock: ICAMEG_clean_sbu_1, # of connection points: 4
#     Node 12, Type 0, BuildingBlock: ICAMEG_clean_sbu_1, # of connection points: 4
#     Node 13, Type 0, BuildingBlock: ICAMEG_clean_sbu_1, # of connection points: 4
#     Node 14, Type 0, BuildingBlock: ICAMEG_clean_sbu_1, # of connection points: 4
#     Node 15, Type 0, BuildingBlock: ICAMEG_clean_sbu_1, # of connection points: 4
#     Node 16, Type 0, BuildingBlock: ICAMEG_clean_sbu_1, # of connection points: 4
#     Node 17, Type 0, BuildingBlock: ICAMEG_clean_sbu_1, # of connection points: 4
#     Node 18, Type 0, BuildingBlock: ICAMEG_clean_sbu_1, # of connection points: 4
#     Node 19, Type 0, BuildingBlock: ICAMEG_clean_sbu_1, # of connection points: 4
#     Node 20, Type 0, BuildingBlock: ICAMEG_clean_sbu_1, # of connection points: 4
#     Node 21, Type 0, BuildingBlock: ICAMEG_clean_sbu_1, # of connection points: 4
#     Node 22, Type 0, BuildingBlock: ICAMEG_clean_sbu_1, # of connection points: 4
#     Node 23, Type 0, BuildingBlock: ICAMEG_clean_sbu_1, # of connection points: 4
#     Edge 24, Type (0, 0), BuildingBlock: OJICUG_clean_linker_0, # of connection points: 2
#     Edge 25, Type (0, 0), BuildingBlock: OJICUG_clean_linker_0, # of connection points: 2
#     Edge 26, Type (0, 0), BuildingBlock: OJICUG_clean_linker_0, # of connection points: 2
#     Edge 27, Type (0, 0), BuildingBlock: OJICUG_clean_linker_0, # of connection points: 2
#     Edge 28, Type (0, 0), BuildingBlock: OJICUG_clean_linker_0, # of connection points: 2
#     Edge 29, Type (0, 0), BuildingBlock: OJICUG_clean_linker_0, # of connection points: 2
#     Edge 30, Type (0, 0), BuildingBlock: OJICUG_clean_linker_0, # of connection points: 2
#     Edge 31, Type (0, 0), BuildingBlock: OJICUG_clean_linker_0, # of connection points: 2
#     Edge 32, Type (0, 0), BuildingBlock: OJICUG_clean_linker_0, # of connection points: 2
#     Edge 33, Type (0, 0), BuildingBlock: OJICUG_clean_linker_0, # of connection points: 2
#     Edge 34, Type (0, 0), BuildingBlock: OJICUG_clean_linker_0, # of connection points: 2
#     Edge 35, Type (0, 0), BuildingBlock: OJICUG_clean_linker_0, # of connection points: 2
#     Edge 36, Type (0, 0), BuildingBlock: OJICUG_clean_linker_0, # of connection points: 2
#     Edge 37, Type (0, 0), BuildingBlock: OJICUG_clean_linker_0, # of connection points: 2
#     Edge 38, Type (0, 0), BuildingBlock: OJICUG_clean_linker_0, # of connection points: 2
#     Edge 39, Type (0, 0), BuildingBlock: OJICUG_clean_linker_0, # of connection points: 2
#     Edge 40, Type (0, 0), BuildingBlock: OJICUG_clean_linker_0, # of connection points: 2
#     Edge 41, Type (0, 0), BuildingBlock: OJICUG_clean_linker_0, # of connection points: 2
#     Edge 42, Type (0, 0), BuildingBlock: OJICUG_clean_linker_0, # of connection points: 2
#     Edge 43, Type (0, 0), BuildingBlock: OJICUG_clean_linker_0, # of connection points: 2
#     Edge 44, Type (0, 0), BuildingBlock: OJICUG_clean_linker_0, # of connection points: 2
#     Edge 45, Type (0, 0), BuildingBlock: OJICUG_clean_linker_0, # of connection points: 2
#     Edge 46, Type (0, 0), BuildingBlock: OJICUG_clean_linker_0, # of connection points: 2
#     Edge 47, Type (0, 0), BuildingBlock: OJICUG_clean_linker_0, # of connection points: 2
#     Edge 48, Type (0, 0), BuildingBlock: OJICUG_clean_linker_0, # of connection points: 2
#     Edge 49, Type (0, 0), BuildingBlock: OJICUG_clean_linker_0, # of connection points: 2
#     Edge 50, Type (0, 0), BuildingBlock: OJICUG_clean_linker_0, # of connection points: 2
#     Edge 51, Type (0, 0), BuildingBlock: OJICUG_clean_linker_0, # of connection points: 2
#     Edge 52, Type (0, 0), BuildingBlock: OJICUG_clean_linker_0, # of connection points: 2
#     Edge 53, Type (0, 0), BuildingBlock: OJICUG_clean_linker_0, # of connection points: 2
#     Edge 54, Type (0, 0), BuildingBlock: OJICUG_clean_linker_0, # of connection points: 2
#     Edge 55, Type (0, 0), BuildingBlock: OJICUG_clean_linker_0, # of connection points: 2
#     Edge 56, Type (0, 0), BuildingBlock: OJICUG_clean_linker_0, # of connection points: 2
#     Edge 57, Type (0, 0), BuildingBlock: OJICUG_clean_linker_0, # of connection points: 2
#     Edge 58, Type (0, 0), BuildingBlock: OJICUG_clean_linker_0, # of connection points: 2
#     Edge 59, Type (0, 0), BuildingBlock: OJICUG_clean_linker_0, # of connection points: 2
#     Edge 60, Type (0, 0), BuildingBlock: OJICUG_clean_linker_0, # of connection points: 2
#     Edge 61, Type (0, 0), BuildingBlock: OJICUG_clean_linker_0, # of connection points: 2
#     Edge 62, Type (0, 0), BuildingBlock: OJICUG_clean_linker_0, # of connection points: 2
#     Edge 63, Type (0, 0), BuildingBlock: OJICUG_clean_linker_0, # of connection points: 2
#     Edge 64, Type (0, 0), BuildingBlock: OJICUG_clean_linker_0, # of connection points: 2
#     Edge 65, Type (0, 0), BuildingBlock: OJICUG_clean_linker_0, # of connection points: 2
#     Edge 66, Type (0, 0), BuildingBlock: OJICUG_clean_linker_0, # of connection points: 2
#     Edge 67, Type (0, 0), BuildingBlock: OJICUG_clean_linker_0, # of connection points: 2
#     Edge 68, Type (0, 0), BuildingBlock: OJICUG_clean_linker_0, # of connection points: 2
#     Edge 69, Type (0, 0), BuildingBlock: OJICUG_clean_linker_0, # of connection points: 2
#     Edge 70, Type (0, 0), BuildingBlock: OJICUG_clean_linker_0, # of connection points: 2
#     Edge 71, Type (0, 0), BuildingBlock: OJICUG_clean_linker_0, # of connection points: 2
# Relax obj value: 0.222
# Max RMSD: 0.173
# Mean RMSD: 0.173
data_MOF--net-unw--node1-ICAMEG_clean_sbu_1--edge1-OJICUG_clean_linker_0
_symmetry_space_group_name_H-M    P1
_symmetry_Int_Tables_number       1
_symmetry_cell_setting            triclinic
loop_
_symmetry_equiv_pos_as_xyz
'x, y, z'
_cell_length_a     38.889118
_cell_length_b     38.874955
_cell_length_c     38.883718
_cell_angle_alpha  89.986719
_cell_angle_beta   89.979757
_cell_angle_gamma 90.029847
loop_
_atom_site_label
_atom_site_type_symbol
_atom_site_fract_x
_atom_site_fract_y
_atom_site_fract_z
_atom_type_partial_charge
Co0 Co 0.16101 0.38333 0.27421 0.0
Co1 Co 0.11039 0.33294 0.22166 0.0
O2 O 0.1189 0.37494 0.24801 0.0
C3 C 0.1614 0.43609 0.21969 0.0
O4 O 0.14573 0.41399 0.1996 0.0
C5 C 0.05765 0.33247 0.27622 0.0
O6 O 0.07968 0.34808 0.29643 0.0
O7 O 0.13165 0.30358 0.2578 0.0
O8 O 0.15629 0.33787 0.29716 0.0
H9 H 0.14207 0.21891 0.16974 0.0
H10 H 0.10606 0.43604 0.2744 0.0
O11 O 0.16757 0.42874 0.25102 0.0
H12 H 0.11936 0.40088 0.39554 0.0
H13 H 0.2433 0.45551 0.34343 0.0
H14 H 0.22168 0.34115 0.29303 0.0
H15 H 0.15572 0.37523 0.35029 0.0
H16 H 0.19009 0.44419 0.31078 0.0
O17 O 0.06506 0.32638 0.2449 0.0
H18 H 0.15237 0.2722 0.20254 0.0
H19 H 0.04941 0.30413 0.18511 0.0
H20 H 0.27506 0.35123 0.32573 0.0
H21 H 0.06934 0.46259 0.31886 0.0
H22 H 0.28615 0.40878 0.35119 0.0
H23 H 0.07585 0.44494 0.37991 0.0
O24 O 0.1902 0.36213 0.23791 0.0
H25 H 0.03131 0.42504 0.17758 0.0
H26 H 0.11827 0.33847 0.14557 0.0
H27 H 0.09264 0.3751 0.10054 0.0
H28 H 0.04879 0.41872 0.11646 0.0
H29 H 0.05784 0.38805 0.22182 0.0
H30 H 0.03788 0.25101 0.15234 0.0
H31 H 0.08446 0.20803 0.14437 0.0
O32 O 0.15575 0.33766 0.19859 0.0
C33 C 0.14694 0.30836 0.28639 0.0
C34 C 0.12161 0.23751 0.17288 0.0
C35 C 0.06313 0.25552 0.16315 0.0
N36 N 0.10166 0.29146 0.19533 0.0
C37 C 0.12733 0.26781 0.19131 0.0
C38 C 0.0698 0.28553 0.18175 0.0
C39 C 0.08927 0.23141 0.15869 0.0
C40 C 0.10921 0.42848 0.30096 0.0
N41 N 0.1331 0.4043 0.30979 0.0
C42 C 0.08828 0.44349 0.326 0.0
C43 C 0.09191 0.43354 0.36024 0.0
C44 C 0.11631 0.4088 0.36903 0.0
C45 C 0.13677 0.39433 0.3433 0.0
C46 C 0.2387 0.43029 0.33257 0.0
C47 C 0.22616 0.36616 0.30431 0.0
C48 C 0.20863 0.42375 0.31404 0.0
N49 N 0.20259 0.39191 0.3004 0.0
C50 C 0.25651 0.37176 0.32267 0.0
C51 C 0.26273 0.40406 0.33692 0.0
C52 C 0.18529 0.34696 0.20927 0.0
C53 C 0.05032 0.40606 0.17032 0.0
C54 C 0.09926 0.35745 0.15269 0.0
C55 C 0.08479 0.37807 0.12708 0.0
C56 C 0.06017 0.40253 0.13603 0.0
N57 N 0.08939 0.36103 0.18624 0.0
C58 C 0.06531 0.38497 0.19522 0.0
Co59 Co 0.61059 0.1628 0.27138 0.0
Co60 Co 0.66028 0.11191 0.2184 0.0
O61 O 0.61843 0.12089 0.24477 0.0
C62 C 0.5577 0.16366 0.21719 0.0
O63 O 0.57984 0.1485 0.19678 0.0
C64 C 0.65906 0.05876 0.27233 0.0
O65 O 0.64438 0.08128 0.29269 0.0
O66 O 0.69 0.13207 0.25489 0.0
O67 O 0.65612 0.15764 0.29401 0.0
H68 H 0.775 0.14185 0.1669 0.0
H69 H 0.55753 0.10809 0.27153 0.0
O70 O 0.56516 0.16968 0.24852 0.0
H71 H 0.59357 0.12032 0.3925 0.0
H72 H 0.53942 0.24509 0.34157 0.0
H73 H 0.65336 0.22301 0.2905 0.0
H74 H 0.61907 0.15695 0.34737 0.0
H75 H 0.55015 0.19205 0.30843 0.0
O76 O 0.66557 0.06617 0.24109 0.0
H77 H 0.72193 0.15286 0.19984 0.0
H78 H 0.68783 0.05075 0.18123 0.0
H79 H 0.64386 0.27623 0.32367 0.0
H80 H 0.53112 0.07112 0.31588 0.0
H81 H 0.58653 0.28754 0.34948 0.0
H82 H 0.54922 0.07706 0.37684 0.0
O83 O 0.63182 0.19207 0.23516 0.0
H84 H 0.56653 0.03553 0.17291 0.0
H85 H 0.65522 0.121 0.14243 0.0
H86 H 0.61816 0.09687 0.09693 0.0
H87 H 0.57346 0.05378 0.11207 0.0
H88 H 0.60397 0.06054 0.21763 0.0
H89 H 0.74069 0.03851 0.14831 0.0
H90 H 0.78464 0.0843 0.14086 0.0
O91 O 0.65668 0.15771 0.19597 0.0
C92 C 0.68545 0.14759 0.2834 0.0
C93 C 0.75596 0.12173 0.16982 0.0
C94 C 0.73672 0.06372 0.15943 0.0
N95 N 0.70161 0.10262 0.19206 0.0
C96 C 0.7258 0.12786 0.18832 0.0
C97 C 0.70686 0.07079 0.1781 0.0
C98 C 0.76137 0.08943 0.15525 0.0
C99 C 0.56527 0.11103 0.29806 0.0
N100 N 0.58964 0.13476 0.3069 0.0
C101 C 0.55035 0.08994 0.32303 0.0
C102 C 0.56055 0.09326 0.35723 0.0
C103 C 0.58544 0.11751 0.36603 0.0
C104 C 0.59983 0.13813 0.34036 0.0
C105 C 0.56454 0.24039 0.33056 0.0
C106 C 0.62844 0.2276 0.30191 0.0
C107 C 0.57076 0.21042 0.31175 0.0
N108 N 0.60247 0.20425 0.29792 0.0
C109 C 0.62317 0.25785 0.32055 0.0
C110 C 0.59099 0.2642 0.33499 0.0
C111 C 0.64736 0.18724 0.2067 0.0
C112 C 0.58597 0.05421 0.16597 0.0
C113 C 0.63577 0.1023 0.14921 0.0
C114 C 0.61491 0.08869 0.12334 0.0
C115 C 0.58985 0.0645 0.13185 0.0
N116 N 0.63185 0.09202 0.1826 0.0
C117 C 0.60733 0.06835 0.19116 0.0
Co118 Co 0.88051 0.66443 0.21951 0.0
Co119 Co 0.83091 0.6125 0.27176 0.0
O120 O 0.87268 0.62203 0.24539 0.0
C121 C 0.93376 0.66427 0.27329 0.0
O122 O 0.91147 0.6493 0.29371 0.0
C123 C 0.83214 0.55967 0.21746 0.0
O124 O 0.84629 0.58244 0.19697 0.0
O125 O 0.80106 0.6327 0.23541 0.0
O126 O 0.83478 0.65989 0.19719 0.0
H127 H 0.71581 0.64082 0.32324 0.0
H128 H 0.93327 0.60951 0.21779 0.0
O129 O 0.9262 0.67065 0.24207 0.0
H130 H 0.89626 0.6244 0.09741 0.0
H131 H 0.95147 0.7479 0.15034 0.0
H132 H 0.83785 0.72514 0.20191 0.0
H133 H 0.87131 0.66015 0.14351 0.0
H134 H 0.94077 0.6942 0.18248 0.0
O135 O 0.826 0.56688 0.24881 0.0
H136 H 0.76884 0.65266 0.29049 0.0
H137 H 0.80396 0.55083 0.30859 0.0
H138 H 0.84733 0.77902 0.16977 0.0
H139 H 0.95913 0.57338 0.17246 0.0
H140 H 0.9045 0.79067 0.14371 0.0
H141 H 0.94054 0.58068 0.11179 0.0
O142 O 0.85974 0.69308 0.25643 0.0
H143 H 0.92545 0.53679 0.3166 0.0
H144 H 0.83593 0.62101 0.34781 0.0
H145 H 0.87331 0.59698 0.39308 0.0
H146 H 0.91843 0.55452 0.37757 0.0
H147 H 0.88767 0.5617 0.27211 0.0
H148 H 0.75117 0.53777 0.34131 0.0
H149 H 0.70672 0.583 0.34892 0.0
O150 O 0.83406 0.65814 0.29459 0.0
C151 C 0.80555 0.64914 0.20739 0.0
C152 C 0.73507 0.62094 0.32026 0.0
C153 C 0.7549 0.5631 0.33036 0.0
N154 N 0.78966 0.60261 0.29803 0.0
C155 C 0.76521 0.62754 0.30186 0.0
C156 C 0.78472 0.57063 0.31179 0.0
C157 C 0.72996 0.58849 0.33461 0.0
C158 C 0.92531 0.61302 0.1914 0.0
N159 N 0.90099 0.63701 0.18326 0.0
C160 C 0.93993 0.59241 0.16587 0.0
C161 C 0.92945 0.59649 0.13183 0.0
C162 C 0.90459 0.621 0.12375 0.0
C163 C 0.89051 0.64112 0.14996 0.0
C164 C 0.92642 0.74305 0.16147 0.0
C165 C 0.86271 0.72989 0.19039 0.0
C166 C 0.92022 0.71272 0.17971 0.0
N167 N 0.8886 0.70637 0.19369 0.0
C168 C 0.86796 0.7605 0.17233 0.0
C169 C 0.90005 0.76705 0.15776 0.0
C170 C 0.84377 0.6878 0.28457 0.0
C171 C 0.90582 0.55519 0.32369 0.0
C172 C 0.85555 0.60259 0.34087 0.0
C173 C 0.87659 0.58903 0.36661 0.0
C174 C 0.90189 0.56519 0.35789 0.0
N175 N 0.85953 0.59261 0.3074 0.0
C176 C 0.88427 0.56927 0.29864 0.0
Co177 Co 0.33087 0.88321 0.22122 0.0
Co178 Co 0.3822 0.83281 0.27312 0.0
O179 O 0.37321 0.87483 0.24697 0.0
C180 C 0.33156 0.93623 0.27546 0.0
O181 O 0.34689 0.91397 0.29562 0.0
C182 C 0.43435 0.83309 0.21814 0.0
O183 O 0.41175 0.84817 0.19819 0.0
O184 O 0.36111 0.80341 0.23695 0.0
O185 O 0.33501 0.83759 0.19843 0.0
H186 H 0.35212 0.71806 0.32456 0.0
H187 H 0.38616 0.93564 0.21996 0.0
O188 O 0.32496 0.92876 0.24425 0.0
H189 H 0.37085 0.89996 0.09923 0.0
H190 H 0.24786 0.95552 0.15306 0.0
H191 H 0.26976 0.84118 0.2034 0.0
H192 H 0.33499 0.87475 0.14513 0.0
H193 H 0.30157 0.94405 0.18482 0.0
O194 O 0.42746 0.82696 0.24959 0.0
H195 H 0.34104 0.77141 0.29207 0.0
H196 H 0.44366 0.80461 0.30926 0.0
H197 H 0.21585 0.85142 0.17164 0.0
H198 H 0.4224 0.96175 0.17484 0.0
H199 H 0.20462 0.90896 0.14621 0.0
H200 H 0.41489 0.94384 0.11398 0.0
O201 O 0.30213 0.86229 0.25799 0.0
H202 H 0.46049 0.92561 0.3173 0.0
H203 H 0.37455 0.8379 0.34926 0.0
H204 H 0.39994 0.87463 0.39435 0.0
H205 H 0.44328 0.91883 0.37845 0.0
H206 H 0.43421 0.8885 0.27301 0.0
H207 H 0.45597 0.75147 0.34172 0.0
H208 H 0.40996 0.70783 0.34965 0.0
O209 O 0.33684 0.8368 0.29643 0.0
C210 C 0.34507 0.80816 0.20876 0.0
C211 C 0.37234 0.73697 0.32144 0.0
C212 C 0.43063 0.7557 0.33103 0.0
N213 N 0.39152 0.7913 0.2992 0.0
C214 C 0.36616 0.76729 0.3032 0.0
C215 C 0.42352 0.78572 0.31262 0.0
C216 C 0.4048 0.73122 0.33547 0.0
C217 C 0.38256 0.92797 0.19349 0.0
N218 N 0.35839 0.90388 0.18514 0.0
C219 C 0.40324 0.94273 0.16808 0.0
C220 C 0.39904 0.93263 0.13394 0.0
C221 C 0.37434 0.908 0.12564 0.0
C222 C 0.35416 0.89377 0.15174 0.0
C223 C 0.25252 0.9303 0.16391 0.0
C224 C 0.26521 0.86618 0.19213 0.0
C225 C 0.28287 0.92367 0.18193 0.0
N226 N 0.28898 0.89185 0.19557 0.0
C227 C 0.23457 0.87187 0.1743 0.0
C228 C 0.22827 0.90417 0.16008 0.0
C229 C 0.30726 0.84653 0.28626 0.0
C230 C 0.4417 0.90638 0.32456 0.0
C231 C 0.39334 0.85713 0.34216 0.0
C232 C 0.40767 0.87781 0.3678 0.0
C233 C 0.432 0.90259 0.35886 0.0
N234 N 0.40305 0.86097 0.30859 0.0
C235 C 0.42686 0.88521 0.29962 0.0
Co236 Co 0.11227 0.66343 0.77026 0.0
Co237 Co 0.16172 0.61155 0.71803 0.0
O238 O 0.11984 0.62112 0.74419 0.0
C239 C 0.0597 0.66435 0.71574 0.0
O240 O 0.08175 0.64858 0.69569 0.0
C241 C 0.16021 0.55902 0.77264 0.0
O242 O 0.1454 0.58173 0.79269 0.0
O243 O 0.19146 0.63201 0.75433 0.0
O244 O 0.15763 0.65804 0.7932 0.0
H245 H 0.27681 0.64011 0.6666 0.0
H246 H 0.05862 0.60932 0.77076 0.0
O247 O 0.06702 0.67057 0.74706 0.0
H248 H 0.09409 0.62261 0.89179 0.0
H249 H 0.0416 0.74734 0.83906 0.0
H250 H 0.15557 0.72341 0.7889 0.0
H251 H 0.12029 0.65838 0.84635 0.0
H252 H 0.05195 0.69376 0.80665 0.0
O253 O 0.16676 0.56607 0.74132 0.0
H254 H 0.2237 0.65187 0.6992 0.0
H255 H 0.18897 0.54978 0.68165 0.0
H256 H 0.14646 0.77715 0.82132 0.0
H257 H 0.03151 0.57321 0.81541 0.0
H258 H 0.08911 0.7894 0.84667 0.0
H259 H 0.04932 0.5797 0.8764 0.0
O260 O 0.13395 0.69206 0.73382 0.0
H261 H 0.06765 0.53507 0.67338 0.0
H262 H 0.15685 0.61964 0.64193 0.0
H263 H 0.11975 0.59511 0.59668 0.0
H264 H 0.07479 0.55247 0.61232 0.0
H265 H 0.10514 0.56049 0.71783 0.0
H266 H 0.24187 0.53679 0.64909 0.0
H267 H 0.28616 0.5822 0.64128 0.0
O268 O 0.15843 0.65707 0.69496 0.0
C269 C 0.18692 0.64775 0.78273 0.0
C270 C 0.25763 0.62016 0.66968 0.0
C271 C 0.23803 0.56216 0.65989 0.0
N272 N 0.20306 0.60169 0.69192 0.0
C273 C 0.22743 0.62671 0.68798 0.0
C274 C 0.20815 0.56965 0.67836 0.0
C275 C 0.26287 0.58765 0.65551 0.0
C276 C 0.06625 0.61248 0.7973 0.0
N277 N 0.09083 0.63603 0.80599 0.0
C278 C 0.05092 0.59188 0.82244 0.0
C279 C 0.06096 0.59551 0.85666 0.0
C280 C 0.08609 0.61957 0.8653 0.0
C281 C 0.10088 0.6397 0.83947 0.0
C282 C 0.06673 0.74223 0.82825 0.0
C283 C 0.13064 0.72841 0.80012 0.0
C284 C 0.07273 0.71196 0.80986 0.0
N285 N 0.10445 0.70527 0.79628 0.0
C286 C 0.12559 0.75895 0.81833 0.0
C287 C 0.0934 0.76582 0.83251 0.0
C288 C 0.14938 0.68679 0.70539 0.0
C289 C 0.08721 0.55356 0.66624 0.0
C290 C 0.1373 0.60115 0.64892 0.0
C291 C 0.11641 0.5873 0.62319 0.0
C292 C 0.0912 0.56336 0.63199 0.0
N293 N 0.13325 0.59134 0.68244 0.0
C294 C 0.10859 0.56792 0.69127 0.0
Co295 Co 0.37947 0.1644 0.7197 0.0
Co296 Co 0.32908 0.11249 0.77123 0.0
O297 O 0.37119 0.12197 0.74541 0.0
C298 C 0.43205 0.16388 0.77404 0.0
O299 O 0.40944 0.14901 0.79418 0.0
C300 C 0.33112 0.05969 0.71695 0.0
O301 O 0.34538 0.08255 0.69664 0.0
O302 O 0.29978 0.13268 0.73447 0.0
O303 O 0.33395 0.16019 0.69689 0.0
H304 H 0.21329 0.14097 0.82103 0.0
H305 H 0.43194 0.10919 0.71836 0.0
O306 O 0.42492 0.17029 0.74272 0.0
H307 H 0.39618 0.12456 0.59766 0.0
H308 H 0.45161 0.24765 0.6515 0.0
H309 H 0.33737 0.22545 0.70193 0.0
H310 H 0.37101 0.16037 0.64359 0.0
H311 H 0.44025 0.1939 0.68333 0.0
O312 O 0.32449 0.06687 0.74821 0.0
H313 H 0.26685 0.15276 0.78915 0.0
H314 H 0.30149 0.05082 0.80761 0.0
H315 H 0.3475 0.27938 0.67009 0.0
H316 H 0.45801 0.073 0.6732 0.0
H317 H 0.40499 0.29076 0.64461 0.0
H318 H 0.44004 0.08054 0.61237 0.0
O319 O 0.35852 0.19305 0.75652 0.0
H320 H 0.42286 0.03665 0.81745 0.0
H321 H 0.33298 0.12098 0.84734 0.0
H322 H 0.36962 0.09685 0.89317 0.0
H323 H 0.41491 0.05434 0.87832 0.0
H324 H 0.38581 0.06165 0.7724 0.0
H325 H 0.24817 0.03782 0.83948 0.0
H326 H 0.20368 0.08312 0.84646 0.0
O327 O 0.33198 0.15813 0.7941 0.0
C328 C 0.30462 0.14929 0.70662 0.0
C329 C 0.23255 0.12106 0.81832 0.0
C330 C 0.25211 0.06315 0.82863 0.0
N331 N 0.28745 0.10264 0.79691 0.0
C332 C 0.263 0.12763 0.80041 0.0
C333 C 0.28224 0.07066 0.81055 0.0
C334 C 0.22716 0.08859 0.83254 0.0
C335 C 0.42426 0.11281 0.69189 0.0
N336 N 0.40016 0.13696 0.68358 0.0
C337 C 0.43899 0.09216 0.66646 0.0
C338 C 0.42886 0.09637 0.63234 0.0
C339 C 0.40424 0.12106 0.62407 0.0
C340 C 0.39003 0.14121 0.65019 0.0
C341 C 0.42642 0.24292 0.66237 0.0
C342 C 0.36235 0.23007 0.69064 0.0
C343 C 0.41985 0.21255 0.68043 0.0
N344 N 0.38806 0.20636 0.69409 0.0
C345 C 0.36798 0.26072 0.67276 0.0
C346 C 0.40025 0.26711 0.65852 0.0
C347 C 0.34211 0.18775 0.7844 0.0
C348 C 0.40315 0.05508 0.82425 0.0
C349 C 0.35268 0.10253 0.84068 0.0
C350 C 0.37331 0.08892 0.86674 0.0
C351 C 0.3987 0.06505 0.85839 0.0
N352 N 0.35717 0.09257 0.80727 0.0
C353 C 0.38201 0.0692 0.79888 0.0
Co354 Co 0.83247 0.38387 0.72911 0.0
Co355 Co 0.88117 0.32839 0.77843 0.0
O356 O 0.87383 0.37212 0.75499 0.0
C357 C 0.83342 0.43325 0.78614 0.0
O358 O 0.8401 0.40721 0.80648 0.0
C359 C 0.93461 0.33128 0.72521 0.0
O360 O 0.91197 0.34652 0.70543 0.0
O361 O 0.86121 0.30208 0.73958 0.0
O362 O 0.83347 0.33875 0.7046 0.0
H363 H 0.84762 0.21085 0.82061 0.0
H364 H 0.89124 0.43253 0.72994 0.0
O365 O 0.83035 0.42896 0.75381 0.0
H366 H 0.87444 0.40204 0.60799 0.0
H367 H 0.75541 0.46444 0.66333 0.0
H368 H 0.76874 0.34692 0.70918 0.0
H369 H 0.83662 0.37778 0.65282 0.0
H370 H 0.80782 0.44799 0.69509 0.0
O371 O 0.92726 0.32376 0.75626 0.0
H372 H 0.8384 0.26656 0.79171 0.0
H373 H 0.94086 0.29672 0.81458 0.0
H374 H 0.71605 0.36217 0.67739 0.0
H375 H 0.92946 0.45764 0.68592 0.0
H376 H 0.70914 0.42132 0.6542 0.0
H377 H 0.92122 0.44232 0.62446 0.0
O378 O 0.80205 0.36323 0.76479 0.0
H379 H 0.95837 0.41686 0.83227 0.0
H380 H 0.87042 0.32811 0.85434 0.0
H381 H 0.89429 0.36118 0.90295 0.0
H382 H 0.93865 0.40587 0.89205 0.0
H383 H 0.9336 0.38335 0.7844 0.0
H384 H 0.95129 0.24121 0.84355 0.0
H385 H 0.90442 0.19788 0.84679 0.0
O386 O 0.8349 0.33127 0.80001 0.0
C387 C 0.8441 0.30871 0.71245 0.0
C388 C 0.8682 0.22958 0.81952 0.0
C389 C 0.9264 0.24661 0.83235 0.0
N390 N 0.88894 0.28501 0.80183 0.0
C391 C 0.86309 0.26123 0.8033 0.0
C392 C 0.92036 0.27797 0.8159 0.0
C393 C 0.90008 0.22231 0.83416 0.0
C394 C 0.88731 0.42601 0.70321 0.0
N395 N 0.86164 0.40387 0.69393 0.0
C396 C 0.90911 0.44019 0.67842 0.0
C397 C 0.9045 0.43155 0.64394 0.0
C398 C 0.87827 0.40893 0.63468 0.0
C399 C 0.85699 0.39522 0.66018 0.0
C400 C 0.75818 0.43855 0.6732 0.0
C401 C 0.76606 0.37262 0.6989 0.0
C402 C 0.78778 0.4291 0.69122 0.0
N403 N 0.79151 0.39641 0.70359 0.0
C404 C 0.73611 0.38114 0.68104 0.0
C405 C 0.73223 0.41434 0.66808 0.0
C406 C 0.80602 0.34388 0.79099 0.0
C407 C 0.93914 0.39738 0.83736 0.0
C408 C 0.88966 0.34757 0.84941 0.0
C409 C 0.90313 0.36617 0.87703 0.0
C410 C 0.92802 0.39123 0.87089 0.0
N411 N 0.90078 0.35369 0.81662 0.0
C412 C 0.92512 0.37826 0.81038 0.0
Co413 Co 0.6631 0.88123 0.77286 0.0
Co414 Co 0.61248 0.83197 0.71926 0.0
O415 O 0.62114 0.87353 0.7463 0.0
C416 C 0.66384 0.93503 0.71934 0.0
O417 O 0.64831 0.91326 0.69879 0.0
C418 C 0.55962 0.83119 0.77368 0.0
O419 O 0.58176 0.84639 0.79407 0.0
O420 O 0.63348 0.80178 0.75493 0.0
O421 O 0.65785 0.83544 0.79498 0.0
H422 H 0.6436 0.71879 0.66517 0.0
H423 H 0.60844 0.93425 0.77367 0.0
O424 O 0.67006 0.92704 0.75051 0.0
H425 H 0.62099 0.89704 0.89427 0.0
H426 H 0.74563 0.95151 0.84376 0.0
H427 H 0.72305 0.83807 0.79173 0.0
H428 H 0.65739 0.87191 0.84878 0.0
H429 H 0.69262 0.9413 0.81041 0.0
O430 O 0.56704 0.82531 0.74231 0.0
H431 H 0.65414 0.77134 0.6991 0.0
H432 H 0.55141 0.80421 0.68212 0.0
H433 H 0.7762 0.84703 0.82513 0.0
H434 H 0.57169 0.9603 0.81839 0.0
H435 H 0.78777 0.90412 0.85141 0.0
H436 H 0.57781 0.94161 0.87917 0.0
O437 O 0.69235 0.86049 0.73635 0.0
H438 H 0.53415 0.92536 0.67657 0.0
H439 H 0.62068 0.83883 0.64332 0.0
H440 H 0.59549 0.87646 0.59887 0.0
H441 H 0.55186 0.92008 0.61542 0.0
H442 H 0.56023 0.88738 0.72022 0.0
H443 H 0.53963 0.75184 0.64826 0.0
H444 H 0.58598 0.70878 0.63948 0.0
O445 O 0.65799 0.83683 0.69644 0.0
C446 C 0.64854 0.8061 0.78372 0.0
C447 C 0.62324 0.73745 0.66866 0.0
C448 C 0.56488 0.75598 0.65921 0.0
N449 N 0.60356 0.79103 0.69219 0.0
C450 C 0.6291 0.76732 0.68773 0.0
C451 C 0.57169 0.78556 0.67843 0.0
C452 C 0.5909 0.73182 0.6543 0.0
C453 C 0.61144 0.92624 0.80012 0.0
N454 N 0.63514 0.90177 0.80866 0.0
C455 C 0.59048 0.94096 0.8253 0.0
C456 C 0.5939 0.93044 0.8594 0.0
C457 C 0.61811 0.90541 0.86788 0.0
C458 C 0.6386 0.89124 0.84201 0.0
C459 C 0.74083 0.9265 0.83252 0.0
C460 C 0.72776 0.86289 0.80333 0.0
C461 C 0.71088 0.92059 0.81358 0.0
N462 N 0.70457 0.88901 0.79947 0.0
C463 C 0.75797 0.86785 0.8221 0.0
C464 C 0.76446 0.89989 0.83681 0.0
C465 C 0.68752 0.84585 0.70742 0.0
C466 C 0.55307 0.90639 0.66903 0.0
C467 C 0.60176 0.8578 0.65071 0.0
C468 C 0.58754 0.87899 0.62543 0.0
C469 C 0.56305 0.90344 0.63473 0.0
N470 N 0.59177 0.86081 0.68428 0.0
C471 C 0.5678 0.88473 0.6936 0.0
Co472 Co 0.27239 0.16436 0.3826 0.0
Co473 Co 0.2205 0.11306 0.33211 0.0
O474 O 0.24666 0.12197 0.37412 0.0
C475 C 0.21789 0.16372 0.43523 0.0
O476 O 0.19794 0.1484 0.41278 0.0
C477 C 0.27517 0.06049 0.33237 0.0
O478 O 0.29538 0.08293 0.34738 0.0
O479 O 0.25679 0.13413 0.3028 0.0
O480 O 0.29528 0.1602 0.33707 0.0
H481 H 0.16923 0.14347 0.21745 0.0
H482 H 0.27341 0.10907 0.43503 0.0
O483 O 0.24919 0.17027 0.42806 0.0
H484 H 0.39426 0.12429 0.39965 0.0
H485 H 0.34055 0.24726 0.45509 0.0
H486 H 0.29047 0.22548 0.34066 0.0
H487 H 0.34848 0.16015 0.37429 0.0
H488 H 0.30862 0.19362 0.44355 0.0
O489 O 0.24382 0.06769 0.32622 0.0
H490 H 0.20173 0.15439 0.2708 0.0
H491 H 0.18416 0.05172 0.3038 0.0
H492 H 0.32241 0.27931 0.35098 0.0
H493 H 0.31841 0.07283 0.46129 0.0
H494 H 0.34771 0.29048 0.40856 0.0
H495 H 0.37932 0.0803 0.44353 0.0
O496 O 0.23574 0.1932 0.36163 0.0
H497 H 0.17602 0.03493 0.42491 0.0
H498 H 0.14438 0.12086 0.33715 0.0
H499 H 0.0992 0.09562 0.37391 0.0
H500 H 0.11494 0.05229 0.41814 0.0
H501 H 0.2204 0.06105 0.38778 0.0
H502 H 0.15169 0.03957 0.25066 0.0
H503 H 0.14394 0.08569 0.20712 0.0
O504 O 0.19732 0.15847 0.33614 0.0
C505 C 0.28499 0.15016 0.30762 0.0
C506 C 0.17228 0.12321 0.23631 0.0
C507 C 0.16247 0.06489 0.25493 0.0
N508 N 0.19443 0.10386 0.29059 0.0
C509 C 0.19053 0.12928 0.26663 0.0
C510 C 0.18089 0.0719 0.28496 0.0
C511 C 0.15813 0.09078 0.23051 0.0
C512 C 0.29991 0.11264 0.42742 0.0
N513 N 0.30836 0.13679 0.40333 0.0
C514 C 0.32525 0.09198 0.44226 0.0
C515 C 0.35942 0.09615 0.43225 0.0
C516 C 0.36782 0.12082 0.40762 0.0
C517 C 0.34179 0.141 0.3933 0.0
C518 C 0.32976 0.24263 0.42986 0.0
C519 C 0.30168 0.23001 0.36569 0.0
C520 C 0.31164 0.21232 0.42318 0.0
N521 N 0.29808 0.20624 0.39134 0.0
C522 C 0.31962 0.2606 0.37142 0.0
C523 C 0.33377 0.26687 0.40374 0.0
C524 C 0.20747 0.18807 0.34588 0.0
C525 C 0.16883 0.05371 0.40567 0.0
C526 C 0.15141 0.10207 0.35638 0.0
C527 C 0.12572 0.08782 0.37708 0.0
C528 C 0.13457 0.0635 0.40188 0.0
N529 N 0.18494 0.09227 0.36022 0.0
C530 C 0.19382 0.06847 0.38448 0.0
Co531 Co 0.88142 0.21901 0.33076 0.0
Co532 Co 0.82992 0.2712 0.38078 0.0
O533 O 0.87209 0.24506 0.37279 0.0
C534 C 0.93412 0.27348 0.33213 0.0
O535 O 0.91135 0.29359 0.34675 0.0
C536 C 0.82968 0.21721 0.43408 0.0
O537 O 0.8448 0.19668 0.412 0.0
O538 O 0.80107 0.23456 0.35978 0.0
O539 O 0.83572 0.19618 0.33406 0.0
H540 H 0.71573 0.32184 0.3478 0.0
H541 H 0.93261 0.21832 0.38717 0.0
O542 O 0.92705 0.24213 0.32568 0.0
H543 H 0.8972 0.0974 0.37234 0.0
H544 H 0.95569 0.15 0.25023 0.0
H545 H 0.84092 0.20056 0.26882 0.0
H546 H 0.87285 0.14294 0.33545 0.0
H547 H 0.94294 0.18244 0.30326 0.0
O548 O 0.82347 0.24843 0.42636 0.0
H549 H 0.76938 0.28944 0.33818 0.0
H550 H 0.80038 0.30806 0.44124 0.0
H551 H 0.85245 0.16809 0.21557 0.0
H552 H 0.95784 0.17358 0.42445 0.0
H553 H 0.91021 0.14254 0.20602 0.0
H554 H 0.94005 0.11263 0.41719 0.0
O555 O 0.86114 0.25551 0.30117 0.0
H556 H 0.92132 0.31704 0.45968 0.0
H557 H 0.83474 0.34728 0.37211 0.0
H558 H 0.87087 0.39294 0.39735 0.0
H559 H 0.9145 0.37791 0.44151 0.0
H560 H 0.88482 0.27216 0.43354 0.0
H561 H 0.74691 0.34044 0.45209 0.0
H562 H 0.70422 0.34761 0.40512 0.0
O563 O 0.83462 0.29386 0.33519 0.0
C564 C 0.80614 0.20638 0.34382 0.0
C565 C 0.73421 0.31904 0.36843 0.0
C566 C 0.75169 0.32944 0.42697 0.0
N567 N 0.78818 0.29724 0.38899 0.0
C568 C 0.7647 0.30084 0.3631 0.0
C569 C 0.78191 0.31106 0.42069 0.0
C570 C 0.72775 0.33345 0.40061 0.0
C571 C 0.925 0.19181 0.38368 0.0
N572 N 0.90146 0.1832 0.35908 0.0
C573 C 0.93926 0.16661 0.40494 0.0
C574 C 0.92923 0.13242 0.40088 0.0
C575 C 0.90517 0.12386 0.37573 0.0
C576 C 0.89143 0.14975 0.35497 0.0
C577 C 0.93039 0.16089 0.25416 0.0
C578 C 0.86601 0.18925 0.26499 0.0
C579 C 0.92303 0.1793 0.28412 0.0
N580 N 0.89109 0.19299 0.28932 0.0
C581 C 0.87243 0.17101 0.23472 0.0
C582 C 0.90486 0.15672 0.22936 0.0
C583 C 0.84507 0.28369 0.30585 0.0
C584 C 0.90233 0.32392 0.44054 0.0
C585 C 0.85372 0.34055 0.39127 0.0
C586 C 0.87406 0.36651 0.40551 0.0
C587 C 0.89852 0.35806 0.4303 0.0
N588 N 0.85758 0.30713 0.40151 0.0
C589 C 0.88151 0.29864 0.42577 0.0
Co590 Co 0.7177 0.83169 0.38111 0.0
Co591 Co 0.76954 0.88218 0.32976 0.0
O592 O 0.74352 0.8739 0.37197 0.0
C593 C 0.77236 0.83306 0.43345 0.0
O594 O 0.79224 0.84814 0.41075 0.0
C595 C 0.71491 0.93463 0.32956 0.0
O596 O 0.69479 0.91239 0.34502 0.0
O597 O 0.73312 0.86074 0.30093 0.0
O598 O 0.69459 0.83533 0.33566 0.0
H599 H 0.82043 0.84982 0.21546 0.0
H600 H 0.71709 0.88769 0.43278 0.0
O601 O 0.74108 0.82632 0.42648 0.0
H602 H 0.59605 0.87248 0.39815 0.0
H603 H 0.64947 0.75011 0.45508 0.0
H604 H 0.69931 0.77001 0.34015 0.0
H605 H 0.64157 0.83603 0.37315 0.0
H606 H 0.68161 0.80342 0.44262 0.0
O607 O 0.74623 0.9274 0.3233 0.0
H608 H 0.78818 0.83981 0.26916 0.0
H609 H 0.8057 0.94308 0.30019 0.0
H610 H 0.66713 0.71649 0.35138 0.0
H611 H 0.67236 0.92452 0.45865 0.0
H612 H 0.64194 0.70627 0.40922 0.0
H613 H 0.61136 0.91707 0.44126 0.0
O614 O 0.7542 0.80245 0.36028 0.0
H615 H 0.81444 0.96182 0.42101 0.0
H616 H 0.84568 0.87447 0.33452 0.0
H617 H 0.89103 0.90037 0.37055 0.0
H618 H 0.8755 0.94442 0.41413 0.0
H619 H 0.76987 0.93503 0.38462 0.0
H620 H 0.83793 0.95432 0.24667 0.0
H621 H 0.84557 0.90745 0.20394 0.0
O622 O 0.79268 0.83691 0.33448 0.0
C623 C 0.70484 0.84496 0.30607 0.0
C624 C 0.81743 0.87041 0.23396 0.0
C625 C 0.82721 0.92907 0.25146 0.0
N626 N 0.79546 0.8907 0.28798 0.0
C627 C 0.79931 0.86486 0.26448 0.0
C628 C 0.80892 0.92257 0.2817 0.0
C629 C 0.83149 0.90276 0.22749 0.0
C630 C 0.69056 0.88411 0.42534 0.0
N631 N 0.68191 0.85964 0.40166 0.0
C632 C 0.66536 0.90512 0.43996 0.0
C633 C 0.63114 0.90095 0.43016 0.0
C634 C 0.62254 0.87595 0.40596 0.0
C635 C 0.64843 0.85544 0.39185 0.0
C636 C 0.66021 0.75433 0.42974 0.0
C637 C 0.68815 0.76589 0.36528 0.0
C638 C 0.67844 0.78445 0.42255 0.0
N639 N 0.69192 0.79001 0.39056 0.0
C640 C 0.67008 0.73547 0.37153 0.0
C641 C 0.65599 0.72974 0.404 0.0
C642 C 0.7825 0.80741 0.34448 0.0
C643 C 0.82153 0.94272 0.40205 0.0
C644 C 0.83873 0.89357 0.35349 0.0
C645 C 0.86452 0.90819 0.37377 0.0
C646 C 0.85579 0.93292 0.3982 0.0
N647 N 0.80521 0.90339 0.35738 0.0
C648 C 0.79644 0.92758 0.38129 0.0
Co649 Co 0.11192 0.77364 0.32973 0.0
Co650 Co 0.16156 0.72092 0.38093 0.0
O651 O 0.11975 0.74738 0.37191 0.0
C652 C 0.05885 0.7195 0.32927 0.0
O653 O 0.08086 0.69916 0.34472 0.0
C654 C 0.16135 0.77537 0.43365 0.0
O655 O 0.14622 0.79563 0.41134 0.0
O656 O 0.19131 0.75714 0.36026 0.0
O657 O 0.1574 0.79634 0.33485 0.0
H658 H 0.27598 0.66895 0.35088 0.0
H659 H 0.0588 0.77419 0.38436 0.0
O660 O 0.06647 0.75073 0.32295 0.0
H661 H 0.09467 0.89516 0.37094 0.0
H662 H 0.04093 0.84309 0.24663 0.0
H663 H 0.15484 0.79237 0.26952 0.0
H664 H 0.12037 0.8497 0.33491 0.0
H665 H 0.05153 0.81041 0.3 0.0
O666 O 0.16739 0.74401 0.42639 0.0
H667 H 0.22293 0.70187 0.33984 0.0
H668 H 0.18928 0.68412 0.44224 0.0
H669 H 0.14549 0.82509 0.216 0.0
H670 H 0.03219 0.81887 0.42075 0.0
H671 H 0.08817 0.85072 0.20428 0.0
H672 H 0.05019 0.87984 0.41418 0.0
O673 O 0.13317 0.7372 0.30075 0.0
H674 H 0.06806 0.67666 0.45835 0.0
H675 H 0.15604 0.64486 0.3727 0.0
H676 H 0.11887 0.59978 0.39753 0.0
H677 H 0.07453 0.6156 0.44072 0.0
H678 H 0.10561 0.72095 0.43263 0.0
H679 H 0.24212 0.65123 0.45451 0.0
H680 H 0.28584 0.64336 0.40859 0.0
O681 O 0.15756 0.69803 0.33542 0.0
C682 C 0.18673 0.7857 0.3448 0.0
C683 C 0.25704 0.67205 0.37106 0.0
C684 C 0.23806 0.66214 0.42923 0.0
N685 N 0.20283 0.69451 0.39022 0.0
C686 C 0.22688 0.69054 0.36491 0.0
C687 C 0.2082 0.6808 0.42214 0.0
C688 C 0.26258 0.65774 0.40345 0.0
C689 C 0.06652 0.80072 0.38117 0.0
N690 N 0.09093 0.80937 0.35743 0.0
C691 C 0.05147 0.82588 0.40193 0.0
C692 C 0.06162 0.86007 0.39826 0.0
C693 C 0.08659 0.86869 0.37401 0.0
C694 C 0.1011 0.84283 0.35374 0.0
C695 C 0.06605 0.83215 0.25151 0.0
C696 C 0.12993 0.80371 0.26475 0.0
C697 C 0.07219 0.8136 0.28166 0.0
N698 N 0.10389 0.79986 0.28806 0.0
C699 C 0.12474 0.82209 0.23434 0.0
C700 C 0.09257 0.83642 0.22775 0.0
C701 C 0.14843 0.70864 0.3058 0.0
C702 C 0.08735 0.66944 0.43963 0.0
C703 C 0.13675 0.65193 0.39143 0.0
C704 C 0.11583 0.62629 0.40545 0.0
C705 C 0.09096 0.63518 0.42969 0.0
N706 N 0.13308 0.68545 0.40137 0.0
C707 C 0.10876 0.69437 0.4251 0.0
Co708 Co 0.22311 0.88138 0.66001 0.0
Co709 Co 0.27519 0.83088 0.60901 0.0
O710 O 0.24939 0.8731 0.61797 0.0
C711 C 0.27758 0.93418 0.66033 0.0
O712 O 0.29797 0.9121 0.64504 0.0
C713 C 0.22068 0.83214 0.55645 0.0
O714 O 0.20078 0.84733 0.57903 0.0
O715 O 0.23861 0.80165 0.6297 0.0
O716 O 0.2 0.83606 0.65527 0.0
H717 H 0.32546 0.71568 0.63911 0.0
H718 H 0.22306 0.93412 0.60501 0.0
O719 O 0.24631 0.92666 0.6665 0.0
H720 H 0.10183 0.89936 0.61853 0.0
H721 H 0.15425 0.95358 0.74257 0.0
H722 H 0.20419 0.8391 0.72063 0.0
H723 H 0.147 0.87358 0.65486 0.0
H724 H 0.18673 0.94227 0.68923 0.0
O725 O 0.25195 0.82544 0.56353 0.0
H726 H 0.29343 0.76929 0.65017 0.0
H727 H 0.31141 0.80249 0.54766 0.0
H728 H 0.17166 0.84918 0.77414 0.0
H729 H 0.17869 0.96079 0.56832 0.0
H730 H 0.14643 0.90679 0.78539 0.0
H731 H 0.11759 0.94333 0.57492 0.0
O732 O 0.25936 0.85999 0.68908 0.0
H733 H 0.32101 0.92348 0.53137 0.0
H734 H 0.35127 0.83522 0.61729 0.0
H735 H 0.39697 0.87152 0.59233 0.0
H736 H 0.38193 0.91599 0.54899 0.0
H737 H 0.27609 0.88679 0.55722 0.0
H738 H 0.34341 0.74909 0.53537 0.0
H739 H 0.35071 0.70531 0.58134 0.0
O740 O 0.29808 0.83457 0.6546 0.0
C741 C 0.21026 0.80658 0.64536 0.0
C742 C 0.32261 0.73464 0.61892 0.0
C743 C 0.33265 0.75337 0.56068 0.0
N744 N 0.30096 0.78919 0.59973 0.0
C745 C 0.30463 0.76511 0.62507 0.0
C746 C 0.31449 0.78355 0.56778 0.0
C747 C 0.33673 0.72882 0.58649 0.0
C748 C 0.19648 0.92665 0.60823 0.0
N749 N 0.18758 0.9025 0.63215 0.0
C750 C 0.17149 0.94172 0.5873 0.0
C751 C 0.13722 0.93188 0.59098 0.0
C752 C 0.12836 0.9072 0.61544 0.0
C753 C 0.15405 0.89265 0.63589 0.0
C754 C 0.165 0.92834 0.73789 0.0
C755 C 0.19301 0.86414 0.72519 0.0
C756 C 0.18343 0.92179 0.70776 0.0
N757 N 0.19695 0.88993 0.70163 0.0
C758 C 0.17474 0.86973 0.7556 0.0
C759 C 0.16063 0.90207 0.76191 0.0
C760 C 0.28763 0.84414 0.68415 0.0
C761 C 0.32789 0.90413 0.55016 0.0
C762 C 0.34453 0.85458 0.59851 0.0
C763 C 0.37052 0.87501 0.58442 0.0
C764 C 0.36207 0.89994 0.56009 0.0
N765 N 0.3111 0.8588 0.58856 0.0
C766 C 0.30259 0.88321 0.56477 0.0
Co767 Co 0.15947 0.27433 0.61176 0.0
Co768 Co 0.10937 0.22116 0.66204 0.0
O769 O 0.11745 0.24799 0.62024 0.0
C770 C 0.15928 0.22033 0.55853 0.0
O771 O 0.14371 0.20005 0.58053 0.0
C772 C 0.05693 0.27583 0.66377 0.0
O773 O 0.07885 0.29613 0.64811 0.0
O774 O 0.13097 0.257 0.69157 0.0
O775 O 0.15506 0.29685 0.65741 0.0
H776 H 0.1421 0.16795 0.77517 0.0
H777 H 0.10405 0.27495 0.55952 0.0
O778 O 0.16565 0.25156 0.56614 0.0
H779 H 0.11768 0.3958 0.5956 0.0
H780 H 0.24118 0.34433 0.53959 0.0
H781 H 0.22043 0.29285 0.65364 0.0
H782 H 0.15425 0.35034 0.62054 0.0
H783 H 0.18807 0.31149 0.55101 0.0
O784 O 0.0642 0.24438 0.66932 0.0
H785 H 0.15192 0.20135 0.72214 0.0
H786 H 0.04863 0.18433 0.69104 0.0
H787 H 0.27373 0.32571 0.64345 0.0
H788 H 0.06712 0.31962 0.53367 0.0
H789 H 0.28438 0.35173 0.58606 0.0
H790 H 0.07378 0.38053 0.55179 0.0
O791 O 0.18884 0.23787 0.63243 0.0
H792 H 0.02922 0.17823 0.57032 0.0
H793 H 0.11706 0.14511 0.65557 0.0
H794 H 0.09095 0.10053 0.61871 0.0
H795 H 0.04666 0.11701 0.57575 0.0
H796 H 0.05621 0.222 0.60752 0.0
H797 H 0.03757 0.15099 0.74391 0.0
H798 H 0.08455 0.1425 0.78633 0.0
O799 O 0.15463 0.19812 0.6566 0.0
C800 C 0.14604 0.28575 0.68689 0.0
C801 C 0.12146 0.17131 0.7568 0.0
C802 C 0.06278 0.16183 0.73927 0.0
N803 N 0.10102 0.19438 0.7033 0.0
C804 C 0.12692 0.19007 0.72665 0.0
C805 C 0.06919 0.18074 0.7094 0.0
C806 C 0.08916 0.15708 0.76307 0.0
C807 C 0.10728 0.30145 0.56728 0.0
N808 N 0.13138 0.31008 0.59132 0.0
C809 C 0.08622 0.3266 0.55267 0.0
C810 C 0.08994 0.36077 0.56288 0.0
C811 C 0.11456 0.36935 0.58747 0.0
C812 C 0.13514 0.3435 0.60155 0.0
C813 C 0.23677 0.33323 0.56474 0.0
C814 C 0.22473 0.30437 0.6287 0.0
C815 C 0.20676 0.3146 0.57134 0.0
N816 N 0.20096 0.30066 0.60309 0.0
C817 C 0.25503 0.32282 0.62304 0.0
C818 C 0.261 0.33737 0.59082 0.0
C819 C 0.18408 0.20901 0.64727 0.0
C820 C 0.04842 0.17072 0.58901 0.0
C821 C 0.09785 0.15247 0.63687 0.0
C822 C 0.08312 0.12712 0.61613 0.0
C823 C 0.05825 0.13638 0.59204 0.0
N824 N 0.088 0.18608 0.63379 0.0
C825 C 0.06368 0.19537 0.61022 0.0
Co826 Co 0.77327 0.1144 0.66461 0.0
Co827 Co 0.72024 0.16369 0.61331 0.0
O828 O 0.74707 0.12212 0.62242 0.0
C829 C 0.71977 0.06068 0.66474 0.0
O830 O 0.69929 0.08276 0.64959 0.0
C831 C 0.77453 0.16339 0.5603 0.0
O832 O 0.79507 0.149 0.58284 0.0
O833 O 0.75614 0.19388 0.63388 0.0
O834 O 0.7953 0.16032 0.65979 0.0
H835 H 0.66689 0.27756 0.64311 0.0
H836 H 0.77478 0.06157 0.60973 0.0
O837 O 0.75095 0.06849 0.6711 0.0
H838 H 0.89509 0.0993 0.62349 0.0
H839 H 0.84359 0.04397 0.74744 0.0
H840 H 0.7915 0.15738 0.72492 0.0
H841 H 0.84918 0.12404 0.65963 0.0
H842 H 0.81067 0.05431 0.69419 0.0
O843 O 0.74321 0.16948 0.56771 0.0
H844 H 0.7005 0.22495 0.65425 0.0
H845 H 0.68322 0.1909 0.55193 0.0
H846 H 0.82447 0.14827 0.77832 0.0
H847 H 0.81992 0.03591 0.57323 0.0
H848 H 0.85078 0.09121 0.78986 0.0
H849 H 0.88055 0.05486 0.57995 0.0
O850 O 0.73645 0.13493 0.69359 0.0
H851 H 0.67676 0.06941 0.53644 0.0
H852 H 0.64428 0.15747 0.62173 0.0
H853 H 0.59954 0.11973 0.59722 0.0
H854 H 0.61569 0.07534 0.55421 0.0
H855 H 0.7207 0.10751 0.56184 0.0
H856 H 0.64968 0.24332 0.53955 0.0
H857 H 0.64121 0.28701 0.58539 0.0
O858 O 0.69745 0.15963 0.65893 0.0
C859 C 0.7845 0.18959 0.64974 0.0
C860 C 0.67026 0.25864 0.62297 0.0
C861 C 0.66063 0.23944 0.56484 0.0
N862 N 0.69343 0.20468 0.60391 0.0
C863 C 0.68914 0.22873 0.62917 0.0
C864 C 0.67967 0.20983 0.57198 0.0
C865 C 0.65589 0.26394 0.59057 0.0
C866 C 0.80116 0.06969 0.613 0.0
N867 N 0.80939 0.0941 0.63688 0.0
C868 C 0.82658 0.05519 0.59217 0.0
C869 C 0.8606 0.06586 0.59593 0.0
C870 C 0.86877 0.09081 0.62034 0.0
C871 C 0.84266 0.10477 0.64068 0.0
C872 C 0.83234 0.06897 0.74265 0.0
C873 C 0.80311 0.13256 0.72962 0.0
C874 C 0.81364 0.07496 0.71258 0.0
N875 N 0.79951 0.10652 0.70629 0.0
C876 C 0.82164 0.12752 0.75997 0.0
C877 C 0.83636 0.09549 0.76644 0.0
C878 C 0.70789 0.15018 0.68852 0.0
C879 C 0.66939 0.08872 0.55508 0.0
C880 C 0.6515 0.13818 0.60307 0.0
C881 C 0.62605 0.11692 0.58924 0.0
C882 C 0.63513 0.09203 0.5651 0.0
N883 N 0.68502 0.13479 0.59306 0.0
C884 C 0.69413 0.11045 0.56943 0.0
Co885 Co 0.83279 0.72335 0.60977 0.0
Co886 Co 0.88364 0.7767 0.65907 0.0
O887 O 0.87468 0.7501 0.61736 0.0
C888 C 0.83152 0.77751 0.55681 0.0
O889 O 0.84696 0.79794 0.57875 0.0
C890 C 0.93661 0.72257 0.65846 0.0
O891 O 0.91416 0.7023 0.64357 0.0
O892 O 0.8633 0.74046 0.68888 0.0
O893 O 0.83821 0.70075 0.65531 0.0
H894 H 0.85365 0.82847 0.77363 0.0
H895 H 0.88718 0.72332 0.55641 0.0
O896 O 0.8256 0.74618 0.56436 0.0
H897 H 0.8753 0.60229 0.59254 0.0
H898 H 0.75025 0.65301 0.539 0.0
H899 H 0.77283 0.70408 0.65284 0.0
H900 H 0.83882 0.64737 0.61828 0.0
H901 H 0.80332 0.6862 0.54949 0.0
O902 O 0.92931 0.75389 0.66474 0.0
H903 H 0.84266 0.79543 0.72062 0.0
H904 H 0.94475 0.81403 0.68654 0.0
H905 H 0.7196 0.67086 0.64358 0.0
H906 H 0.92401 0.67904 0.52977 0.0
H907 H 0.70802 0.64505 0.5863 0.0
H908 H 0.91823 0.61804 0.5479 0.0
O909 O 0.80356 0.7595 0.63111 0.0
H910 H 0.9605 0.82149 0.56536 0.0
H911 H 0.87478 0.85267 0.65349 0.0
H912 H 0.89919 0.89792 0.61625 0.0
H913 H 0.94242 0.88242 0.57184 0.0
H914 H 0.93519 0.77703 0.60297 0.0
H915 H 0.95697 0.84706 0.73933 0.0
H916 H 0.91118 0.85456 0.78324 0.0
O917 O 0.83787 0.79921 0.65522 0.0
C918 C 0.84803 0.71177 0.68456 0.0
C919 C 0.87377 0.82554 0.7546 0.0
C920 C 0.93177 0.83594 0.73536 0.0
N921 N 0.89288 0.80323 0.7003 0.0
C922 C 0.86764 0.80699 0.72446 0.0
C923 C 0.92471 0.8172 0.70554 0.0
C924 C 0.90606 0.84013 0.76 0.0
C925 C 0.88433 0.69678 0.56418 0.0
N926 N 0.86078 0.68789 0.58869 0.0
C927 C 0.90533 0.67184 0.54912 0.0
C928 C 0.90211 0.63763 0.55934 0.0
C929 C 0.87804 0.62877 0.5844 0.0
C930 C 0.8575 0.65441 0.59892 0.0
C931 C 0.75506 0.66401 0.5641 0.0
C932 C 0.76814 0.69266 0.62794 0.0
C933 C 0.78505 0.68285 0.57018 0.0
N934 N 0.79136 0.69668 0.60187 0.0
C935 C 0.73788 0.674 0.62281 0.0
C936 C 0.73138 0.65956 0.59065 0.0
C937 C 0.80833 0.78816 0.64629 0.0
C938 C 0.94176 0.82858 0.58468 0.0
C939 C 0.89353 0.84574 0.63416 0.0
C940 C 0.9073 0.87147 0.6132 0.0
C941 C 0.93157 0.86275 0.5883 0.0
N942 N 0.90372 0.8123 0.63049 0.0
C943 C 0.92746 0.80354 0.60613 0.0
Co944 Co 0.32973 0.22275 0.11203 0.0
Co945 Co 0.38066 0.27513 0.16237 0.0
O946 O 0.37182 0.24898 0.12034 0.0
C947 C 0.32974 0.27707 0.05917 0.0
O948 O 0.34488 0.29737 0.08143 0.0
C949 C 0.43343 0.22083 0.16156 0.0
O950 O 0.41092 0.20061 0.14669 0.0
O951 O 0.36004 0.23863 0.19175 0.0
O952 O 0.3342 0.19993 0.15756 0.0
H953 H 0.35024 0.32601 0.27721 0.0
H954 H 0.38494 0.22224 0.05952 0.0
O955 O 0.3235 0.24576 0.06657 0.0
H956 H 0.37111 0.10125 0.09512 0.0
H957 H 0.24746 0.15354 0.03983 0.0
H958 H 0.26889 0.20413 0.15412 0.0
H959 H 0.33473 0.14667 0.1204 0.0
H960 H 0.30076 0.18607 0.05122 0.0
O961 O 0.42619 0.25213 0.16797 0.0
H962 H 0.33939 0.29354 0.22382 0.0
H963 H 0.44182 0.31184 0.19057 0.0
H964 H 0.2154 0.17158 0.14396 0.0
H965 H 0.42169 0.1776 0.03335 0.0
H966 H 0.20441 0.14601 0.08645 0.0
H967 H 0.41493 0.11662 0.05122 0.0
O968 O 0.30061 0.25918 0.13304 0.0
H969 H 0.45814 0.32054 0.06946 0.0
H970 H 0.37219 0.3512 0.15755 0.0
H971 H 0.39699 0.39672 0.1209 0.0
H972 H 0.44033 0.38148 0.07651 0.0
H973 H 0.43246 0.2758 0.10649 0.0
H974 H 0.45389 0.34429 0.24375 0.0
H975 H 0.40786 0.35165 0.28744 0.0
O976 O 0.33507 0.29789 0.15851 0.0
C977 C 0.34423 0.2103 0.18698 0.0
C978 C 0.37046 0.32313 0.25828 0.0
C979 C 0.42865 0.33335 0.23952 0.0
N980 N 0.3898 0.3012 0.2039 0.0
C981 C 0.36443 0.3049 0.22794 0.0
C982 C 0.42167 0.31494 0.20948 0.0
C983 C 0.40281 0.33747 0.26403 0.0
C984 C 0.38166 0.19571 0.06717 0.0
N985 N 0.35762 0.18702 0.09128 0.0
C986 C 0.40262 0.17057 0.05238 0.0
C987 C 0.39884 0.13637 0.06245 0.0
C988 C 0.37427 0.12772 0.08709 0.0
C989 C 0.3538 0.15355 0.10136 0.0
C990 C 0.25202 0.16444 0.06503 0.0
C991 C 0.26444 0.19281 0.12913 0.0
C992 C 0.28213 0.1829 0.07162 0.0
N993 N 0.28812 0.1966 0.10343 0.0
C994 C 0.23404 0.17452 0.12349 0.0
C995 C 0.22787 0.16023 0.0912 0.0
C996 C 0.30555 0.2875 0.14882 0.0
C997 C 0.43935 0.32751 0.08877 0.0
C998 C 0.39099 0.34438 0.13823 0.0
C999 C 0.40498 0.37026 0.11761 0.0
C1000 C 0.42931 0.3617 0.09272 0.0
N1001 N 0.40103 0.31093 0.13425 0.0
C1002 C 0.42484 0.30232 0.10989 0.0
Co1003 Co 0.3831 0.71846 0.82911 0.0
Co1004 Co 0.33223 0.77072 0.8797 0.0
O1005 O 0.37431 0.74457 0.8712 0.0
C1006 C 0.43584 0.7729 0.82976 0.0
O1007 O 0.41325 0.79304 0.84462 0.0
C1008 C 0.33268 0.71665 0.93294 0.0
O1009 O 0.34758 0.69619 0.91067 0.0
O1010 O 0.30311 0.73412 0.85902 0.0
O1011 O 0.33743 0.69566 0.83299 0.0
H1012 H 0.21761 0.82134 0.84824 0.0
H1013 H 0.43498 0.7178 0.88488 0.0
O1014 O 0.42868 0.74154 0.82343 0.0
H1015 H 0.39929 0.59689 0.87065 0.0
H1016 H 0.4563 0.6493 0.74773 0.0
H1017 H 0.34181 0.69999 0.76769 0.0
H1018 H 0.37454 0.64239 0.83399 0.0
H1019 H 0.44424 0.68181 0.80088 0.0
O1020 O 0.32633 0.74789 0.92534 0.0
H1021 H 0.27114 0.78897 0.83789 0.0
H1022 H 0.30349 0.80755 0.94054 0.0
H1023 H 0.35265 0.66746 0.71434 0.0
H1024 H 0.46061 0.67309 0.92192 0.0
H1025 H 0.41026 0.64184 0.70409 0.0
H1026 H 0.44268 0.61215 0.91496 0.0
O1027 O 0.36247 0.75495 0.79977 0.0
H1028 H 0.42455 0.81649 0.95758 0.0
H1029 H 0.33699 0.84678 0.87101 0.0
H1030 H 0.3734 0.89243 0.89587 0.0
H1031 H 0.41752 0.87737 0.93953 0.0
H1032 H 0.38776 0.77162 0.93182 0.0
H1033 H 0.25015 0.8399 0.95211 0.0
H1034 H 0.20684 0.84707 0.90572 0.0
O1035 O 0.33638 0.79339 0.83404 0.0
C1036 C 0.30796 0.70593 0.84301 0.0
C1037 C 0.23636 0.81854 0.86862 0.0
C1038 C 0.25461 0.82892 0.92693 0.0
N1039 N 0.2906 0.79676 0.88845 0.0
C1040 C 0.26679 0.80036 0.86287 0.0
C1041 C 0.28474 0.81056 0.92024 0.0
C1042 C 0.23032 0.83293 0.90088 0.0
C1043 C 0.42731 0.69129 0.88151 0.0
N1044 N 0.40347 0.68267 0.85721 0.0
C1045 C 0.4418 0.66611 0.90264 0.0
C1046 C 0.43169 0.63193 0.89875 0.0
C1047 C 0.40733 0.62335 0.8739 0.0
C1048 C 0.39336 0.64922 0.85327 0.0
C1049 C 0.43106 0.66023 0.75196 0.0
C1050 C 0.36685 0.68865 0.76356 0.0
C1051 C 0.42409 0.67867 0.78199 0.0
N1052 N 0.39222 0.6924 0.78757 0.0
C1053 C 0.37287 0.67038 0.73324 0.0
C1054 C 0.40521 0.65605 0.72749 0.0
C1055 C 0.34649 0.78316 0.8046 0.0
C1056 C 0.40535 0.82338 0.93866 0.0
C1057 C 0.35619 0.84004 0.88994 0.0
C1058 C 0.37668 0.86599 0.90397 0.0
C1059 C 0.40142 0.85753 0.92848 0.0
N1060 N 0.36016 0.80662 0.90012 0.0
C1061 C 0.38436 0.79811 0.9241 0.0
Co1062 Co 0.21813 0.33248 0.88241 0.0
Co1063 Co 0.27051 0.38258 0.83124 0.0
O1064 O 0.24438 0.37445 0.87342 0.0
C1065 C 0.27267 0.33315 0.935 0.0
O1066 O 0.29284 0.34813 0.91249 0.0
C1067 C 0.21622 0.43542 0.83101 0.0
O1068 O 0.19599 0.41332 0.84651 0.0
O1069 O 0.23403 0.36139 0.80231 0.0
O1070 O 0.19511 0.33644 0.83693 0.0
H1071 H 0.32144 0.34997 0.71703 0.0
H1072 H 0.21804 0.38835 0.93422 0.0
O1073 O 0.24136 0.32676 0.92781 0.0
H1074 H 0.09689 0.3745 0.89943 0.0
H1075 H 0.14893 0.25147 0.9561 0.0
H1076 H 0.19924 0.27104 0.84132 0.0
H1077 H 0.14205 0.33765 0.87438 0.0
H1078 H 0.18163 0.30448 0.9438 0.0
O1079 O 0.2475 0.42799 0.82475 0.0
H1080 H 0.28899 0.34013 0.77064 0.0
H1081 H 0.30713 0.44326 0.8018 0.0
H1082 H 0.1665 0.21782 0.8524 0.0
H1083 H 0.17367 0.42557 0.96016 0.0
H1084 H 0.14108 0.20777 0.91016 0.0
H1085 H 0.11261 0.41881 0.94269 0.0
O1086 O 0.25435 0.30296 0.86151 0.0
H1087 H 0.31582 0.46188 0.92259 0.0
H1088 H 0.34657 0.37429 0.83616 0.0
H1089 H 0.39205 0.39987 0.87226 0.0
H1090 H 0.37677 0.44404 0.91581 0.0
H1091 H 0.27112 0.43541 0.88612 0.0
H1092 H 0.33955 0.45433 0.74836 0.0
H1093 H 0.34698 0.40744 0.70561 0.0
O1094 O 0.29329 0.3371 0.83597 0.0
C1095 C 0.2056 0.34585 0.80734 0.0
C1096 C 0.31853 0.37057 0.73553 0.0
C1097 C 0.32865 0.42915 0.7531 0.0
N1098 N 0.29657 0.39096 0.78952 0.0
C1099 C 0.30031 0.36511 0.76601 0.0
C1100 C 0.31026 0.42274 0.7833 0.0
C1101 C 0.33281 0.40283 0.72912 0.0
C1102 C 0.19148 0.38506 0.92675 0.0
N1103 N 0.1826 0.36075 0.903 0.0
C1104 C 0.16649 0.40629 0.94141 0.0
C1105 C 0.13224 0.40251 0.93156 0.0
C1106 C 0.1234 0.37767 0.90728 0.0
C1107 C 0.14909 0.35692 0.89314 0.0
C1108 C 0.15976 0.25562 0.9308 0.0
C1109 C 0.18797 0.267 0.86642 0.0
C1110 C 0.17831 0.28557 0.92369 0.0
N1111 N 0.19192 0.29105 0.89174 0.0
C1112 C 0.16959 0.23675 0.87258 0.0
C1113 C 0.15537 0.23111 0.90501 0.0
C1114 C 0.28272 0.30767 0.84576 0.0
C1115 C 0.32281 0.44273 0.90364 0.0
C1116 C 0.33973 0.39345 0.85512 0.0
C1117 C 0.36559 0.40788 0.87543 0.0
C1118 C 0.357 0.43267 0.89985 0.0
N1119 N 0.30627 0.40352 0.85894 0.0
C1120 C 0.29764 0.42777 0.88284 0.0
Co1121 Co 0.6093 0.27327 0.83279 0.0
Co1122 Co 0.65825 0.22002 0.88404 0.0
O1123 O 0.61666 0.2467 0.87483 0.0
C1124 C 0.55625 0.21919 0.83163 0.0
O1125 O 0.57814 0.19879 0.84716 0.0
C1126 C 0.65779 0.27434 0.93686 0.0
O1127 O 0.64281 0.29461 0.91447 0.0
O1128 O 0.68823 0.25614 0.8637 0.0
O1129 O 0.65482 0.29583 0.83839 0.0
H1130 H 0.77287 0.16802 0.85479 0.0
H1131 H 0.55569 0.2736 0.88695 0.0
O1132 O 0.5639 0.25046 0.8255 0.0
H1133 H 0.59194 0.39456 0.87459 0.0
H1134 H 0.53904 0.34324 0.74952 0.0
H1135 H 0.65273 0.29229 0.77302 0.0
H1136 H 0.61787 0.34926 0.83851 0.0
H1137 H 0.54921 0.31029 0.80281 0.0
O1138 O 0.66384 0.24296 0.92963 0.0
H1139 H 0.71996 0.20104 0.8434 0.0
H1140 H 0.68533 0.18283 0.94539 0.0
H1141 H 0.6438 0.32527 0.71958 0.0
H1142 H 0.52885 0.31811 0.92337 0.0
H1143 H 0.58659 0.35101 0.70755 0.0
H1144 H 0.54705 0.37907 0.91734 0.0
O1145 O 0.63074 0.23699 0.80378 0.0
H1146 H 0.56407 0.17576 0.96063 0.0
H1147 H 0.65251 0.14403 0.87543 0.0
H1148 H 0.61502 0.09897 0.89982 0.0
H1149 H 0.57044 0.11475 0.94277 0.0
H1150 H 0.60195 0.22003 0.93536 0.0
H1151 H 0.73802 0.14983 0.958 0.0
H1152 H 0.78217 0.14215 0.91246 0.0
O1153 O 0.65455 0.19733 0.83833 0.0
C1154 C 0.68401 0.28482 0.84838 0.0
C1155 C 0.75374 0.17102 0.87479 0.0
C1156 C 0.7342 0.16085 0.93273 0.0
N1157 N 0.69936 0.19343 0.89354 0.0
C1158 C 0.72365 0.18956 0.86844 0.0
C1159 C 0.70442 0.17957 0.92545 0.0
C1160 C 0.75896 0.15655 0.90717 0.0
C1161 C 0.5635 0.30012 0.88399 0.0
N1162 N 0.58814 0.30887 0.86052 0.0
C1163 C 0.54832 0.32519 0.90477 0.0
C1164 C 0.55857 0.35938 0.9014 0.0
C1165 C 0.58378 0.36809 0.87743 0.0
C1166 C 0.59841 0.34233 0.85712 0.0
C1167 C 0.56411 0.33226 0.75454 0.0
C1168 C 0.62786 0.30369 0.76812 0.0
C1169 C 0.57001 0.31356 0.78464 0.0
N1170 N 0.60165 0.29976 0.79121 0.0
C1171 C 0.62292 0.32221 0.73775 0.0
C1172 C 0.59081 0.33661 0.73099 0.0
C1173 C 0.64584 0.20832 0.80871 0.0
C1174 C 0.58346 0.16855 0.94201 0.0
C1175 C 0.63312 0.15108 0.89407 0.0
C1176 C 0.61201 0.12546 0.90783 0.0
C1177 C 0.58702 0.13433 0.93194 0.0
N1178 N 0.6295 0.18457 0.90413 0.0
C1179 C 0.60505 0.19348 0.92773 0.0
Co1180 Co 0.77706 0.66844 0.88147 0.0
Co1181 Co 0.72837 0.61236 0.83277 0.0
O1182 O 0.75406 0.62446 0.87416 0.0
C1183 C 0.7239 0.66509 0.93496 0.0
O1184 O 0.70417 0.64983 0.91227 0.0
C1185 C 0.78572 0.56341 0.83398 0.0
O1186 O 0.80592 0.58961 0.84044 0.0
O1187 O 0.76401 0.63312 0.80235 0.0
O1188 O 0.79866 0.66572 0.8352 0.0
H1189 H 0.67689 0.63309 0.71606 0.0
H1190 H 0.78362 0.61358 0.93392 0.0
O1191 O 0.75488 0.67285 0.92758 0.0
H1192 H 0.90192 0.63713 0.89468 0.0
H1193 H 0.84112 0.75651 0.95153 0.0
H1194 H 0.78971 0.73032 0.83861 0.0
H1195 H 0.85294 0.66958 0.87073 0.0
H1196 H 0.81284 0.70062 0.94115 0.0
O1197 O 0.75337 0.56744 0.83091 0.0
H1198 H 0.70846 0.64882 0.76876 0.0
H1199 H 0.6948 0.54791 0.80835 0.0
H1200 H 0.81792 0.7864 0.84778 0.0
H1201 H 0.83186 0.58068 0.95877 0.0
H1202 H 0.84387 0.7998 0.90459 0.0
H1203 H 0.8915 0.59236 0.93908 0.0
O1204 O 0.73795 0.69431 0.8615 0.0
H1205 H 0.68542 0.53882 0.93003 0.0
H1206 H 0.65204 0.61795 0.83669 0.0
H1207 H 0.60728 0.5936 0.87455 0.0
H1208 H 0.6239 0.55369 0.92158 0.0
H1209 H 0.72937 0.56399 0.89177 0.0
H1210 H 0.66328 0.53098 0.75594 0.0
H1211 H 0.65404 0.57378 0.70941 0.0
O1212 O 0.70356 0.6573 0.83347 0.0
C1213 C 0.78994 0.65283 0.80634 0.0
C1214 C 0.68058 0.61426 0.73623 0.0
C1215 C 0.67299 0.55693 0.7586 0.0
N1216 N 0.70306 0.59944 0.79179 0.0
C1217 C 0.69832 0.62306 0.76619 0.0
C1218 C 0.69088 0.56665 0.78819 0.0
C1219 C 0.66781 0.58096 0.7325 0.0
C1220 C 0.80954 0.61896 0.92545 0.0
N1221 N 0.81551 0.64358 0.9011 0.0
C1222 C 0.83673 0.60019 0.93951 0.0
C1223 C 0.87019 0.60673 0.92842 0.0
C1224 C 0.87605 0.63183 0.9035 0.0
C1225 C 0.84822 0.65007 0.88999 0.0
C1226 C 0.83001 0.75093 0.92663 0.0
C1227 C 0.80121 0.73584 0.86331 0.0
C1228 C 0.81395 0.71935 0.92061 0.0
N1229 N 0.8 0.71208 0.88919 0.0
C1230 C 0.81703 0.76769 0.86839 0.0
C1231 C 0.83155 0.7752 0.90028 0.0
C1232 C 0.71103 0.68741 0.84418 0.0
C1233 C 0.67786 0.55611 0.90957 0.0
C1234 C 0.65946 0.60066 0.85716 0.0
C1235 C 0.63401 0.58691 0.87847 0.0
C1236 C 0.64334 0.5645 0.90484 0.0
N1237 N 0.69325 0.59226 0.86194 0.0
C1238 C 0.70261 0.57032 0.88774 0.0
Co1239 Co 0.6607 0.77333 0.11095 0.0
Co1240 Co 0.60954 0.72033 0.16033 0.0
O1241 O 0.61872 0.74668 0.11845 0.0
C1242 C 0.66273 0.71899 0.05815 0.0
O1243 O 0.64692 0.69853 0.07982 0.0
C1244 C 0.55675 0.77473 0.15948 0.0
O1245 O 0.5791 0.79482 0.14417 0.0
O1246 O 0.63008 0.75656 0.19011 0.0
O1247 O 0.65492 0.79617 0.15624 0.0
H1248 H 0.63906 0.66859 0.27503 0.0
H1249 H 0.60674 0.77314 0.05722 0.0
O1250 O 0.6683 0.75036 0.06572 0.0
H1251 H 0.61847 0.89436 0.0927 0.0
H1252 H 0.7439 0.84337 0.04053 0.0
H1253 H 0.72042 0.79249 0.15432 0.0
H1254 H 0.6547 0.84939 0.11897 0.0
H1255 H 0.69066 0.81034 0.05076 0.0
O1256 O 0.56401 0.74343 0.16594 0.0
H1257 H 0.65035 0.70141 0.22192 0.0
H1258 H 0.54812 0.68355 0.18791 0.0
H1259 H 0.77381 0.82554 0.14532 0.0
H1260 H 0.57017 0.81732 0.03005 0.0
H1261 H 0.78583 0.85125 0.08806 0.0
H1262 H 0.57588 0.87841 0.04786 0.0
O1263 O 0.68969 0.73719 0.13266 0.0
H1264 H 0.53238 0.67576 0.06682 0.0
H1265 H 0.61789 0.64428 0.15501 0.0
H1266 H 0.59314 0.59907 0.11799 0.0
H1267 H 0.55001 0.61472 0.07355 0.0
H1268 H 0.55803 0.72018 0.10422 0.0
H1269 H 0.5356 0.65077 0.24081 0.0
H1270 H 0.58131 0.64301 0.28474 0.0
O1271 O 0.65515 0.69751 0.15654 0.0
C1272 C 0.64522 0.7853 0.18558 0.0
C1273 C 0.61898 0.67164 0.256 0.0
C1274 C 0.5609 0.66168 0.23681 0.0
N1275 N 0.60007 0.69398 0.20163 0.0
C1276 C 0.62527 0.69007 0.2258 0.0
C1277 C 0.56813 0.68027 0.20692 0.0
C1278 C 0.58656 0.65733 0.26145 0.0
C1279 C 0.60955 0.79972 0.06485 0.0
N1280 N 0.63293 0.80872 0.08948 0.0
C1281 C 0.5887 0.8246 0.04949 0.0
C1282 C 0.59189 0.85887 0.05953 0.0
C1283 C 0.61577 0.86783 0.0847 0.0
C1284 C 0.63616 0.84226 0.09953 0.0
C1285 C 0.73888 0.83241 0.06562 0.0
C1286 C 0.72531 0.80388 0.12943 0.0
C1287 C 0.7088 0.81368 0.07156 0.0
N1288 N 0.70223 0.7999 0.10323 0.0
C1289 C 0.75566 0.82244 0.12445 0.0
C1290 C 0.7624 0.83682 0.09231 0.0
C1291 C 0.68476 0.70848 0.14773 0.0
C1292 C 0.55108 0.66861 0.08615 0.0
C1293 C 0.5992 0.65128 0.13566 0.0
C1294 C 0.58523 0.62557 0.11483 0.0
C1295 C 0.56102 0.63437 0.08991 0.0
N1296 N 0.58925 0.68478 0.13186 0.0
C1297 C 0.56557 0.69362 0.10747 0.0
Co1298 Co 0.27465 0.61194 0.1628 0.0
Co1299 Co 0.22263 0.66194 0.11115 0.0
O1300 O 0.24901 0.62012 0.12032 0.0
C1301 C 0.22046 0.55896 0.16225 0.0
O1302 O 0.20046 0.58128 0.14682 0.0
C1303 C 0.27734 0.66161 0.05856 0.0
O1304 O 0.29768 0.64694 0.0811 0.0
O1305 O 0.25869 0.69158 0.13213 0.0
O1306 O 0.29724 0.65767 0.15855 0.0
H1307 H 0.17057 0.77641 0.14091 0.0
H1308 H 0.27622 0.55933 0.10773 0.0
O1309 O 0.25171 0.5663 0.16883 0.0
H1310 H 0.39675 0.59574 0.12299 0.0
H1311 H 0.34313 0.54016 0.246 0.0
H1312 H 0.2923 0.6542 0.2238 0.0
H1313 H 0.35069 0.62082 0.15871 0.0
H1314 H 0.3112 0.55132 0.19232 0.0
O1315 O 0.24598 0.66771 0.06578 0.0
H1316 H 0.2034 0.72333 0.15212 0.0
H1317 H 0.18626 0.68974 0.04962 0.0
H1318 H 0.32425 0.64427 0.27767 0.0
H1319 H 0.3215 0.53334 0.07163 0.0
H1320 H 0.34994 0.58689 0.28905 0.0
H1321 H 0.38225 0.55162 0.07912 0.0
O1322 O 0.23777 0.63277 0.19147 0.0
H1323 H 0.17886 0.56844 0.0335 0.0
H1324 H 0.14652 0.65648 0.11888 0.0
H1325 H 0.10162 0.61931 0.09379 0.0
H1326 H 0.1177 0.57494 0.05075 0.0
H1327 H 0.22297 0.60598 0.05947 0.0
H1328 H 0.15346 0.74262 0.03718 0.0
H1329 H 0.14533 0.78632 0.08307 0.0
O1330 O 0.19938 0.65798 0.15653 0.0
C1331 C 0.2868 0.68703 0.14836 0.0
C1332 C 0.17378 0.75748 0.12075 0.0
C1333 C 0.16422 0.73853 0.06252 0.0
N1334 N 0.19634 0.70326 0.1017 0.0
C1335 C 0.19223 0.72731 0.12699 0.0
C1336 C 0.18283 0.70866 0.0697 0.0
C1337 C 0.15967 0.76304 0.08828 0.0
C1338 C 0.30264 0.56716 0.11131 0.0
N1339 N 0.31085 0.59138 0.13539 0.0
C1340 C 0.32814 0.55247 0.09072 0.0
C1341 C 0.36222 0.56277 0.09491 0.0
C1342 C 0.37037 0.58754 0.11951 0.0
C1343 C 0.34419 0.6017 0.1396 0.0
C1344 C 0.33217 0.56531 0.24128 0.0
C1345 C 0.30367 0.62926 0.22842 0.0
C1346 C 0.31404 0.57177 0.21095 0.0
N1347 N 0.30028 0.60351 0.20475 0.0
C1348 C 0.32162 0.62375 0.25904 0.0
C1349 C 0.33598 0.59154 0.26542 0.0
C1350 C 0.20946 0.6484 0.18619 0.0
C1351 C 0.17152 0.58774 0.05216 0.0
C1352 C 0.15371 0.63718 0.1002 0.0
C1353 C 0.12817 0.61626 0.08605 0.0
C1354 C 0.13721 0.59138 0.06188 0.0
N1355 N 0.18728 0.63349 0.09048 0.0
C1356 C 0.19636 0.60915 0.06683 0.0
Co1357 Co 0.7217 0.38226 0.16199 0.0
Co1358 Co 0.77308 0.33146 0.11058 0.0
O1359 O 0.74744 0.37376 0.11965 0.0
C1360 C 0.77646 0.43477 0.16149 0.0
O1361 O 0.79648 0.41254 0.14593 0.0
C1362 C 0.71796 0.33241 0.05865 0.0
O1363 O 0.69833 0.3479 0.08127 0.0
O1364 O 0.73667 0.30243 0.13181 0.0
O1365 O 0.69833 0.33701 0.1576 0.0
H1366 H 0.82329 0.21619 0.14053 0.0
H1367 H 0.72123 0.43491 0.1069 0.0
O1368 O 0.74523 0.42745 0.16812 0.0
H1369 H 0.60001 0.40079 0.12202 0.0
H1370 H 0.65427 0.45498 0.24527 0.0
H1371 H 0.7033 0.34019 0.22291 0.0
H1372 H 0.64551 0.37479 0.15777 0.0
H1373 H 0.68598 0.44338 0.19153 0.0
O1374 O 0.74932 0.32581 0.06542 0.0
H1375 H 0.79156 0.26994 0.15175 0.0
H1376 H 0.80862 0.30278 0.04897 0.0
H1377 H 0.67157 0.35056 0.27684 0.0
H1378 H 0.67653 0.46179 0.07078 0.0
H1379 H 0.6468 0.40832 0.2883 0.0
H1380 H 0.61543 0.44467 0.07819 0.0
O1381 O 0.75816 0.36077 0.19068 0.0
H1382 H 0.81809 0.42362 0.03197 0.0
H1383 H 0.84928 0.33573 0.11795 0.0
H1384 H 0.89472 0.37186 0.09226 0.0
H1385 H 0.87921 0.41614 0.0489 0.0
H1386 H 0.77344 0.3871 0.05853 0.0
H1387 H 0.84031 0.24924 0.03652 0.0
H1388 H 0.84792 0.20556 0.08254 0.0
O1389 O 0.79654 0.33528 0.15589 0.0
C1390 C 0.70844 0.30748 0.14766 0.0
C1391 C 0.82031 0.2351 0.12031 0.0
C1392 C 0.82982 0.25363 0.06193 0.0
N1393 N 0.79866 0.28967 0.10119 0.0
C1394 C 0.8025 0.26566 0.12656 0.0
C1395 C 0.81184 0.28389 0.06912 0.0
C1396 C 0.83408 0.22914 0.08776 0.0
C1397 C 0.69466 0.42757 0.11046 0.0
N1398 N 0.68595 0.40349 0.13452 0.0
C1399 C 0.66948 0.44277 0.08985 0.0
C1400 C 0.6352 0.43312 0.09399 0.0
C1401 C 0.62654 0.40849 0.11857 0.0
C1402 C 0.65241 0.39381 0.13869 0.0
C1403 C 0.66483 0.42967 0.24051 0.0
C1404 C 0.69231 0.36529 0.22756 0.0
C1405 C 0.68281 0.42296 0.21014 0.0
N1406 N 0.69608 0.39102 0.2039 0.0
C1407 C 0.67449 0.37105 0.25821 0.0
C1408 C 0.66064 0.40348 0.26464 0.0
C1409 C 0.78636 0.34489 0.18552 0.0
C1410 C 0.82517 0.40435 0.05077 0.0
C1411 C 0.84234 0.35501 0.09915 0.0
C1412 C 0.86818 0.37534 0.08465 0.0
C1413 C 0.85946 0.40017 0.06031 0.0
N1414 N 0.80879 0.35922 0.08958 0.0
C1415 C 0.80003 0.38352 0.06578 0.0
C1416 C 0.22026 0.51164 0.20521 0.0
C1417 C 0.20568 0.52695 0.17596 0.0
H1418 H 0.21705 0.47135 0.24243 0.0
C1419 C 0.17603 0.51246 0.16128 0.0
H1420 H 0.24292 0.5225 0.21726 0.0
C1421 C 0.16143 0.48279 0.17547 0.0
C1422 C 0.17578 0.46786 0.20504 0.0
H1423 H 0.16429 0.52392 0.13876 0.0
H1424 H 0.13879 0.47176 0.16355 0.0
C1425 C 0.20522 0.4826 0.21984 0.0
C1426 C 0.51044 0.16287 0.17365 0.0
C1427 C 0.52558 0.1775 0.20299 0.0
H1428 H 0.46875 0.16505 0.13758 0.0
C1429 C 0.51059 0.20667 0.21807 0.0
H1430 H 0.52166 0.14041 0.16157 0.0
C1431 C 0.48114 0.2212 0.2039 0.0
C1432 C 0.46566 0.20637 0.17487 0.0
H1433 H 0.52197 0.21867 0.2405 0.0
H1434 H 0.47012 0.24368 0.21613 0.0
C1435 C 0.48035 0.17695 0.15995 0.0
C1436 C 0.77652 0.48159 0.20474 0.0
C1437 C 0.79096 0.46687 0.17512 0.0
H1438 H 0.77886 0.52204 0.24172 0.0
C1439 C 0.81973 0.48238 0.15975 0.0
H1440 H 0.75456 0.46991 0.21733 0.0
C1441 C 0.83341 0.51269 0.1735 0.0
C1442 C 0.81904 0.52718 0.2033 0.0
H1443 H 0.83131 0.47136 0.13693 0.0
H1444 H 0.85527 0.52464 0.16101 0.0
C1445 C 0.79066 0.51123 0.21891 0.0
C1446 C 0.51015 0.81901 0.15894 0.0
C1447 C 0.52491 0.78945 0.1735 0.0
H1448 H 0.46927 0.85599 0.1616 0.0
C1449 C 0.51004 0.77483 0.20298 0.0
H1450 H 0.52129 0.83078 0.13626 0.0
C1451 C 0.48112 0.7897 0.21791 0.0
C1452 C 0.46606 0.81902 0.2032 0.0
H1453 H 0.52114 0.75225 0.21496 0.0
H1454 H 0.4702 0.77783 0.24065 0.0
C1455 C 0.48057 0.83344 0.17343 0.0
C1456 C 0.21668 0.48195 0.78736 0.0
C1457 C 0.20184 0.46734 0.81685 0.0
H1458 H 0.21451 0.52195 0.74983 0.0
C1459 C 0.17258 0.48263 0.83147 0.0
H1460 H 0.23903 0.47043 0.77534 0.0
C1461 C 0.15876 0.51255 0.81708 0.0
C1462 C 0.17349 0.52688 0.78737 0.0
H1463 H 0.16066 0.47169 0.85417 0.0
H1464 H 0.13649 0.5243 0.82899 0.0
C1465 C 0.20242 0.51121 0.77254 0.0
C1466 C 0.50881 0.17583 0.83233 0.0
C1467 C 0.52418 0.20504 0.81764 0.0
H1468 H 0.46694 0.13994 0.83008 0.0
C1469 C 0.50945 0.22007 0.78833 0.0
H1470 H 0.51983 0.16379 0.85491 0.0
C1471 C 0.47999 0.20599 0.77371 0.0
C1472 C 0.46427 0.17709 0.78859 0.0
H1473 H 0.52102 0.2424 0.77629 0.0
H1474 H 0.46915 0.21817 0.75111 0.0
C1475 C 0.47872 0.16221 0.81815 0.0
C1476 C 0.78821 0.49986 0.83938 0.0
C1477 C 0.80081 0.53028 0.82473 0.0
H1478 H 0.79001 0.44476 0.83915 0.0
C1479 C 0.82594 0.52877 0.7989 0.0
H1480 H 0.76863 0.50071 0.85921 0.0
C1481 C 0.83719 0.49699 0.78663 0.0
C1482 C 0.82436 0.46654 0.80104 0.0
H1483 H 0.83559 0.55211 0.78707 0.0
H1484 H 0.85552 0.49614 0.76565 0.0
C1485 C 0.80045 0.4681 0.82804 0.0
C1486 C 0.51246 0.83148 0.81741 0.0
C1487 C 0.52762 0.81704 0.78799 0.0
H1488 H 0.4709 0.8289 0.85365 0.0
C1489 C 0.51282 0.78772 0.77298 0.0
H1490 H 0.52353 0.85404 0.82947 0.0
C1491 C 0.48353 0.77289 0.78728 0.0
C1492 C 0.46801 0.78755 0.81638 0.0
H1493 H 0.52423 0.77584 0.7505 0.0
H1494 H 0.47265 0.7503 0.77509 0.0
C1495 C 0.48253 0.81711 0.83124 0.0
C1496 C 0.15898 0.1765 0.51148 0.0
C1497 C 0.17342 0.20597 0.52657 0.0
H1498 H 0.16169 0.14005 0.47014 0.0
C1499 C 0.20279 0.22091 0.5118 0.0
H1500 H 0.13638 0.16449 0.52253 0.0
C1501 C 0.2177 0.20649 0.48264 0.0
C1502 C 0.20308 0.1773 0.46722 0.0
H1503 H 0.21468 0.24343 0.52315 0.0
H1504 H 0.24034 0.21862 0.47178 0.0
C1505 C 0.17345 0.16252 0.48168 0.0
C1506 C 0.81791 0.16131 0.51282 0.0
C1507 C 0.78853 0.17622 0.52761 0.0
H1508 H 0.85389 0.16244 0.47094 0.0
C1509 C 0.77317 0.20472 0.51165 0.0
H1510 H 0.83021 0.13933 0.52475 0.0
C1511 C 0.78715 0.21839 0.48166 0.0
C1512 C 0.81629 0.20334 0.4666 0.0
H1513 H 0.75069 0.21692 0.5227 0.0
H1514 H 0.77476 0.24044 0.46996 0.0
C1515 C 0.83143 0.1745 0.48219 0.0
C1516 C 0.77275 0.79073 0.4812 0.0
C1517 C 0.78727 0.81984 0.46551 0.0
H1518 H 0.77601 0.75409 0.52196 0.0
C1519 C 0.81686 0.83485 0.47976 0.0
H1520 H 0.75014 0.77844 0.47052 0.0
C1521 C 0.83145 0.82114 0.50961 0.0
C1522 C 0.81715 0.79172 0.52493 0.0
H1523 H 0.82852 0.85727 0.46799 0.0
H1524 H 0.85405 0.83329 0.52049 0.0
C1525 C 0.78778 0.77658 0.51041 0.0
C1526 C 0.1615 0.81951 0.48041 0.0
C1527 C 0.17569 0.78988 0.46543 0.0
H1528 H 0.16458 0.8561 0.52162 0.0
C1529 C 0.20504 0.77487 0.48012 0.0
H1530 H 0.13894 0.83158 0.4694 0.0
C1531 C 0.22015 0.78933 0.50914 0.0
C1532 C 0.20575 0.81864 0.5245 0.0
H1533 H 0.21675 0.75224 0.46883 0.0
H1534 H 0.24273 0.77711 0.51995 0.0
C1535 C 0.17617 0.83353 0.5101 0.0
C1536 C 0.66264 0.98283 0.67636 0.0
C1537 C 0.67747 0.96748 0.70548 0.0
H1538 H 0.66432 0.02493 0.64071 0.0
C1539 C 0.70657 0.9826 0.72059 0.0
H1540 H 0.64024 0.97156 0.66422 0.0
C1541 C 0.7208 0.0124 0.70668 0.0
C1542 C 0.70574 0.02809 0.67787 0.0
H1543 H 0.71873 0.97107 0.74286 0.0
H1544 H 0.74323 0.02353 0.71892 0.0
C1545 C 0.67641 0.01322 0.66291 0.0
C1546 C 0.98414 0.72296 0.70108 0.0
C1547 C 0.96871 0.70804 0.67207 0.0
H1548 H 0.02459 0.7202 0.73811 0.0
C1549 C 0.98315 0.67828 0.65758 0.0
H1550 H 0.9733 0.74571 0.71299 0.0
C1551 C 0.01289 0.6639 0.67173 0.0
C1552 C 0.02794 0.67858 0.70109 0.0
H1553 H 0.97159 0.66629 0.63524 0.0
H1554 H 0.02388 0.64115 0.65998 0.0
C1555 C 0.01325 0.70814 0.71569 0.0
C1556 C 0.29021 0.01077 0.71791 0.0
C1557 C 0.3186 0.02704 0.70266 0.0
H1558 H 0.25462 0.96904 0.71589 0.0
C1559 C 0.33355 0.01268 0.67307 0.0
H1560 H 0.27798 0.02147 0.74055 0.0
C1561 C 0.32042 0.9822 0.65918 0.0
C1562 C 0.29162 0.96638 0.67418 0.0
H1563 H 0.35545 0.02487 0.66087 0.0
H1564 H 0.33243 0.97129 0.63653 0.0
C1565 C 0.27662 0.98096 0.70358 0.0
C1566 C 0.01025 0.31998 0.66531 0.0
C1567 C 0.02552 0.29026 0.67898 0.0
H1568 H 0.96891 0.35627 0.66925 0.0
C1569 C 0.0114 0.27497 0.70849 0.0
H1570 H 0.02084 0.33228 0.64264 0.0
C1571 C 0.98251 0.28913 0.72414 0.0
C1572 C 0.96675 0.31841 0.71014 0.0
H1573 H 0.02295 0.25227 0.71981 0.0
H1574 H 0.97205 0.27662 0.74675 0.0
C1575 C 0.98073 0.33371 0.68053 0.0
C1576 C 0.67126 0.98179 0.3304 0.0
C1577 C 0.70042 0.96654 0.31556 0.0
H1578 H 0.63533 0.02362 0.3284 0.0
C1579 C 0.71517 0.98128 0.28608 0.0
H1580 H 0.65942 0.97074 0.35308 0.0
C1581 C 0.70095 0.0107 0.27154 0.0
C1582 C 0.67219 0.02639 0.28665 0.0
H1583 H 0.73743 0.96978 0.2739 0.0
H1584 H 0.71299 0.02157 0.24887 0.0
C1585 C 0.6575 0.01186 0.31629 0.0
C1586 C 0.98101 0.66262 0.31683 0.0
C1587 C 0.96621 0.67747 0.28742 0.0
H1588 H 0.02258 0.6642 0.35307 0.0
C1589 C 0.98184 0.70627 0.27226 0.0
H1590 H 0.96932 0.64042 0.32897 0.0
C1591 C 0.01153 0.72031 0.28647 0.0
C1592 C 0.02659 0.70534 0.31565 0.0
H1593 H 0.97076 0.71842 0.24976 0.0
H1594 H 0.02301 0.74258 0.27423 0.0
C1595 C 0.01132 0.6762 0.33059 0.0
C1596 C 0.28885 0.98366 0.27516 0.0
C1597 C 0.31806 0.96845 0.2899 0.0
H1598 H 0.25197 0.02423 0.27766 0.0
C1599 C 0.333 0.98342 0.31918 0.0
H1600 H 0.2766 0.97244 0.25278 0.0
C1601 C 0.31913 0.01351 0.33319 0.0
C1602 C 0.28961 0.02837 0.31864 0.0
H1603 H 0.35551 0.97206 0.33102 0.0
H1604 H 0.33123 0.02494 0.35553 0.0
C1605 C 0.27454 0.01309 0.28962 0.0
C1606 C 0.01145 0.2884 0.27588 0.0
C1607 C 0.02584 0.31804 0.29066 0.0
H1608 H 0.97164 0.25063 0.27807 0.0
C1609 C 0.01039 0.33259 0.31988 0.0
H1610 H 0.02309 0.27642 0.25358 0.0
C1611 C 0.98051 0.31804 0.33366 0.0
C1612 C 0.96635 0.28823 0.31896 0.0
H1613 H 0.02115 0.35538 0.33177 0.0
H1614 H 0.96862 0.32995 0.35587 0.0
C1615 C 0.98222 0.27342 0.29013 0.0
C1616 C 0.67934 0.66203 0.98118 0.0
C1617 C 0.70889 0.67754 0.96731 0.0
H1618 H 0.64157 0.66291 0.02143 0.0
C1619 C 0.72294 0.7066 0.98344 0.0
H1620 H 0.66802 0.63961 0.96909 0.0
C1621 C 0.70738 0.72036 0.01257 0.0
C1622 C 0.67792 0.70487 0.02658 0.0
H1623 H 0.74551 0.71927 0.97308 0.0
H1624 H 0.71874 0.7429 0.0244 0.0
C1625 C 0.66421 0.67535 0.01095 0.0
C1626 C 0.32088 0.66001 0.01117 0.0
C1627 C 0.29158 0.67488 0.02614 0.0
H1628 H 0.3568 0.66145 0.96924 0.0
C1629 C 0.27642 0.70372 0.0106 0.0
H1630 H 0.33303 0.6378 0.02279 0.0
C1631 C 0.29044 0.71769 0.98078 0.0
C1632 C 0.31944 0.70263 0.96546 0.0
H1633 H 0.25401 0.71592 0.02182 0.0
H1634 H 0.27815 0.73995 0.96937 0.0
C1635 C 0.33445 0.67352 0.98069 0.0
C1636 C 0.31665 0.33455 0.98188 0.0
C1637 C 0.28718 0.31973 0.96718 0.0
H1638 H 0.35318 0.33276 0.02321 0.0
C1639 C 0.2723 0.29067 0.98261 0.0
H1640 H 0.32859 0.35693 0.97032 0.0
C1641 C 0.28679 0.27641 0.01204 0.0
C1642 C 0.31599 0.29139 0.02705 0.0
H1643 H 0.24977 0.27851 0.97158 0.0
H1644 H 0.27472 0.25398 0.02338 0.0
C1645 C 0.3307 0.32074 0.01196 0.0
C1646 C 0.67307 0.33324 0.01265 0.0
C1647 C 0.70265 0.3184 0.02709 0.0
H1648 H 0.63567 0.33095 0.97214 0.0
C1649 C 0.71674 0.28873 0.01215 0.0
H1650 H 0.6617 0.35607 0.02387 0.0
C1651 C 0.70141 0.27393 0.98342 0.0
C1652 C 0.67214 0.28895 0.9686 0.0
H1653 H 0.73931 0.27654 0.02304 0.0
H1654 H 0.71294 0.25107 0.97239 0.0
C1655 C 0.65818 0.31887 0.98325 0.0
C1656 C 0.14627 0.24477 0.29632 0.0
C1657 C 0.15729 0.27772 0.30638 0.0
H1658 H 0.15295 0.19049 0.30142 0.0
C1659 C 0.18127 0.2807 0.33326 0.0
H1660 H 0.12747 0.24154 0.27601 0.0
C1661 C 0.19615 0.25138 0.34761 0.0
C1662 C 0.18709 0.21848 0.33564 0.0
H1663 H 0.19002 0.30566 0.34198 0.0
H1664 H 0.2159 0.25463 0.36699 0.0
C1665 C 0.16089 0.21544 0.31093 0.0
C1666 C 0.77849 0.16047 0.30813 0.0
C1667 C 0.77564 0.18627 0.33328 0.0
H1668 H 0.75214 0.12782 0.27263 0.0
C1669 C 0.74281 0.19534 0.34541 0.0
H1670 H 0.80338 0.15255 0.29847 0.0
C1671 C 0.7134 0.18092 0.33081 0.0
C1672 C 0.71619 0.15737 0.30352 0.0
H1673 H 0.7397 0.21478 0.36513 0.0
H1674 H 0.68852 0.18972 0.33968 0.0
C1675 C 0.74905 0.14628 0.29327 0.0
C1676 C 0.80828 0.71479 0.33097 0.0
C1677 C 0.83311 0.71809 0.30489 0.0
H1678 H 0.77281 0.7405 0.36411 0.0
C1679 C 0.84472 0.75112 0.2958 0.0
H1680 H 0.79904 0.68973 0.33891 0.0
C1681 C 0.82989 0.78026 0.31051 0.0
C1682 C 0.80289 0.77699 0.33435 0.0
H1683 H 0.86417 0.75458 0.27615 0.0
H1684 H 0.83834 0.80531 0.30171 0.0
C1685 C 0.79319 0.74395 0.34543 0.0
C1686 C 0.24396 0.84805 0.2973 0.0
C1687 C 0.2768 0.83603 0.30644 0.0
H1688 H 0.18969 0.84205 0.30274 0.0
C1689 C 0.27969 0.81088 0.33225 0.0
H1690 H 0.24082 0.86777 0.27786 0.0
C1691 C 0.25028 0.79584 0.34631 0.0
C1692 C 0.21743 0.80593 0.3351 0.0
H1693 H 0.3046 0.80133 0.34024 0.0
H1694 H 0.2534 0.77519 0.36477 0.0
C1695 C 0.21458 0.83327 0.31161 0.0
C1696 C 0.18468 0.71389 0.65888 0.0
C1697 C 0.15999 0.71711 0.6851 0.0
H1698 H 0.21992 0.73974 0.62556 0.0
C1699 C 0.14836 0.75009 0.69425 0.0
H1700 H 0.19391 0.68886 0.65088 0.0
C1701 C 0.16304 0.7793 0.67947 0.0
C1702 C 0.18992 0.77611 0.6555 0.0
H1703 H 0.12899 0.75348 0.714 0.0
H1704 H 0.15458 0.80431 0.68832 0.0
C1705 C 0.19963 0.74311 0.64435 0.0
C1706 C 0.24128 0.14727 0.69551 0.0
C1707 C 0.2741 0.1594 0.68637 0.0
H1708 H 0.18698 0.15292 0.68976 0.0
C1709 C 0.27696 0.1843 0.66029 0.0
H1710 H 0.23816 0.12776 0.71517 0.0
C1711 C 0.24757 0.19899 0.64595 0.0
C1712 C 0.21472 0.18884 0.65714 0.0
H1713 H 0.30184 0.19393 0.65227 0.0
H1714 H 0.25068 0.21946 0.62729 0.0
C1715 C 0.21188 0.16172 0.6809 0.0
C1716 C 0.83279 0.21735 0.68188 0.0
C1717 C 0.80414 0.2205 0.66009 0.0
H1718 H 0.86815 0.24282 0.71524 0.0
C1719 C 0.79223 0.2536 0.65157 0.0
H1720 H 0.84298 0.19233 0.68869 0.0
C1721 C 0.80686 0.28271 0.66673 0.0
C1722 C 0.83351 0.27925 0.69087 0.0
H1723 H 0.77045 0.25702 0.63454 0.0
H1724 H 0.7959 0.30767 0.66101 0.0
C1725 C 0.84725 0.24638 0.69717 0.0
C1726 C 0.7448 0.79806 0.64537 0.0
C1727 C 0.77763 0.80787 0.65693 0.0
H1728 H 0.69048 0.80293 0.65172 0.0
C1729 C 0.78039 0.83405 0.68169 0.0
H1730 H 0.74177 0.77831 0.62595 0.0
C1731 C 0.75093 0.8479 0.69678 0.0
C1732 C 0.71813 0.83615 0.6871 0.0
H1733 H 0.80527 0.84255 0.69089 0.0
H1734 H 0.75398 0.86671 0.71711 0.0
C1735 C 0.71535 0.81222 0.66016 0.0
C1736 C 0.29543 0.14886 0.24415 0.0
C1737 C 0.30502 0.16051 0.27701 0.0
H1738 H 0.30079 0.15495 0.18985 0.0
C1739 C 0.33142 0.18506 0.27986 0.0
H1740 H 0.27551 0.12962 0.24103 0.0
C1741 C 0.34573 0.19984 0.25045 0.0
C1742 C 0.33417 0.19012 0.21759 0.0
H1743 H 0.33977 0.19433 0.30476 0.0
H1744 H 0.3647 0.22001 0.25357 0.0
C1745 C 0.30998 0.16339 0.21474 0.0
C1746 C 0.8465 0.2941 0.24231 0.0
C1747 C 0.83525 0.30398 0.27523 0.0
H1748 H 0.84041 0.29979 0.18801 0.0
C1749 C 0.81157 0.33113 0.2782 0.0
H1750 H 0.86506 0.27358 0.23908 0.0
C1751 C 0.79721 0.34597 0.24888 0.0
C1752 C 0.80645 0.3342 0.21597 0.0
H1753 H 0.80263 0.33973 0.30314 0.0
H1754 H 0.77768 0.36557 0.25213 0.0
C1755 C 0.83236 0.30918 0.21296 0.0
C1756 C 0.67868 0.8326 0.21349 0.0
C1757 C 0.65512 0.80531 0.21633 0.0
H1758 H 0.71285 0.86669 0.23971 0.0
C1759 C 0.64424 0.79487 0.2492 0.0
H1760 H 0.6873 0.84163 0.18858 0.0
C1761 C 0.65868 0.80953 0.2786 0.0
C1762 C 0.68455 0.83463 0.27567 0.0
H1763 H 0.62576 0.77424 0.25232 0.0
H1764 H 0.65092 0.79974 0.3035 0.0
C1765 C 0.69339 0.84698 0.24285 0.0
C1766 C 0.19804 0.64714 0.24948 0.0
C1767 C 0.18896 0.65876 0.21647 0.0
H1768 H 0.19182 0.65326 0.30369 0.0
C1769 C 0.16264 0.68331 0.21317 0.0
H1770 H 0.21789 0.6279 0.25293 0.0
C1771 C 0.14791 0.69814 0.24233 0.0
C1772 C 0.15894 0.68844 0.27537 0.0
H1773 H 0.15468 0.69254 0.18813 0.0
H1774 H 0.12902 0.71832 0.23889 0.0
C1775 C 0.18304 0.6617 0.27864 0.0
C1776 C 0.34798 0.79381 0.74112 0.0
C1777 C 0.33643 0.80341 0.77403 0.0
H1778 H 0.34215 0.79967 0.68682 0.0
C1779 C 0.31232 0.83017 0.77699 0.0
H1780 H 0.36688 0.7736 0.73791 0.0
C1781 C 0.2979 0.84493 0.74764 0.0
C1782 C 0.30753 0.83347 0.71473 0.0
H1783 H 0.30313 0.83852 0.80192 0.0
H1784 H 0.27807 0.86424 0.75086 0.0
C1785 C 0.3338 0.80882 0.71177 0.0
C1786 C 0.1594 0.31052 0.77982 0.0
C1787 C 0.18549 0.33538 0.77686 0.0
H1788 H 0.12635 0.27529 0.75362 0.0
C1789 C 0.19474 0.34727 0.74399 0.0
H1790 H 0.15132 0.30107 0.80475 0.0
C1791 C 0.18014 0.33272 0.71464 0.0
C1792 C 0.15628 0.30571 0.71756 0.0
H1793 H 0.21441 0.36677 0.7408 0.0
H1794 H 0.18902 0.34143 0.6897 0.0
C1795 C 0.14508 0.29568 0.75045 0.0
C1796 C 0.69661 0.14827 0.75185 0.0
C1797 C 0.68736 0.16006 0.71894 0.0
H1798 H 0.69015 0.15367 0.80612 0.0
C1799 C 0.66062 0.18418 0.71587 0.0
H1800 H 0.71677 0.12933 0.75512 0.0
C1801 C 0.64558 0.19841 0.74517 0.0
C1802 C 0.65671 0.18854 0.77813 0.0
H1803 H 0.65252 0.19353 0.69092 0.0
H1804 H 0.62634 0.21829 0.74191 0.0
C1805 C 0.68128 0.16221 0.78115 0.0
C1806 C 0.84929 0.70295 0.74819 0.0
C1807 C 0.83832 0.69201 0.71553 0.0
H1808 H 0.84302 0.69882 0.80254 0.0
C1809 C 0.81492 0.66453 0.7132 0.0
H1810 H 0.86764 0.72375 0.75094 0.0
C1811 C 0.80061 0.65031 0.74289 0.0
C1812 C 0.80959 0.66314 0.77548 0.0
H1813 H 0.8062 0.65519 0.68846 0.0
H1814 H 0.78131 0.63039 0.74014 0.0
C1815 C 0.83515 0.68861 0.77785 0.0
C1816 C 0.24873 0.34822 0.19876 0.0
C1817 C 0.21582 0.33682 0.18905 0.0
H1818 H 0.30299 0.34212 0.19313 0.0
C1819 C 0.21282 0.31275 0.16225 0.0
H1820 H 0.25195 0.36712 0.21899 0.0
C1821 C 0.24214 0.29814 0.14763 0.0
C1822 C 0.27504 0.30759 0.15926 0.0
H1823 H 0.18787 0.30371 0.1538 0.0
H1824 H 0.23891 0.2783 0.12833 0.0
C1825 C 0.27804 0.33389 0.18388 0.0
C1826 C 0.24453 0.69542 0.8446 0.0
C1827 C 0.27731 0.68596 0.83263 0.0
H1828 H 0.19019 0.69028 0.83871 0.0
C1829 C 0.27999 0.65994 0.80767 0.0
H1830 H 0.24153 0.71504 0.86415 0.0
C1831 C 0.25047 0.64592 0.79283 0.0
C1832 C 0.21768 0.6574 0.80288 0.0
H1833 H 0.30483 0.65172 0.79814 0.0
H1834 H 0.25345 0.62727 0.77234 0.0
C1835 C 0.21503 0.68117 0.82999 0.0
C1836 C 0.29221 0.244 0.84578 0.0
C1837 C 0.30261 0.27702 0.83527 0.0
H1838 H 0.29698 0.18979 0.83841 0.0
C1839 C 0.32971 0.28013 0.81153 0.0
H1840 H 0.2717 0.24066 0.86435 0.0
C1841 C 0.34401 0.25092 0.7964 0.0
C1842 C 0.33174 0.21799 0.80495 0.0
H1843 H 0.33869 0.30514 0.80315 0.0
H1844 H 0.3636 0.2543 0.77687 0.0
C1845 C 0.30674 0.21478 0.83088 0.0
C1846 C 0.74762 0.29372 0.85006 0.0
C1847 C 0.71502 0.3046 0.83886 0.0
H1848 H 0.802 0.29796 0.84413 0.0
C1849 C 0.7128 0.33209 0.81548 0.0
H1850 H 0.75028 0.27292 0.86842 0.0
C1851 C 0.74254 0.34636 0.80136 0.0
C1852 C 0.77509 0.33358 0.81053 0.0
H1853 H 0.6881 0.34139 0.8066 0.0
H1854 H 0.73988 0.36627 0.78205 0.0
C1855 C 0.77735 0.30813 0.83612 0.0
C1856 C 0.6951 0.74955 0.84729 0.0
C1857 C 0.68933 0.71667 0.83335 0.0
H1858 H 0.6863 0.80353 0.84297 0.0
C1859 C 0.66577 0.71307 0.80619 0.0
H1860 H 0.7127 0.7532 0.86857 0.0
C1861 C 0.65072 0.74209 0.7913 0.0
C1862 C 0.65876 0.77522 0.80346 0.0
H1863 H 0.66047 0.68809 0.79507 0.0
H1864 H 0.63417 0.7386 0.76917 0.0
C1865 C 0.6799 0.77848 0.83259 0.0
C1866 C 0.71251 0.66208 0.18269 0.0
C1867 C 0.71533 0.68848 0.15814 0.0
H1868 H 0.73889 0.62875 0.21753 0.0
C1869 C 0.74815 0.69805 0.14637 0.0
H1870 H 0.68762 0.65377 0.19203 0.0
C1871 C 0.77757 0.68345 0.16074 0.0
C1872 C 0.7748 0.65922 0.18745 0.0
H1873 H 0.75124 0.71795 0.1271 0.0
H1874 H 0.80244 0.69261 0.15215 0.0
C1875 C 0.74196 0.64772 0.19733 0.0
C1876 C 0.34699 0.74471 0.19812 0.0
C1877 C 0.33503 0.77749 0.18863 0.0
H1878 H 0.34167 0.69034 0.19234 0.0
C1879 C 0.31064 0.7802 0.1621 0.0
H1880 H 0.36612 0.74169 0.21815 0.0
C1881 C 0.2964 0.75069 0.14746 0.0
C1882 C 0.30647 0.71786 0.15883 0.0
H1883 H 0.30112 0.80505 0.15386 0.0
H1884 H 0.27635 0.7537 0.12835 0.0
C1885 C 0.33298 0.7152 0.18325 0.0
C1886 C 0.66161 0.2801 0.18227 0.0
C1887 C 0.68802 0.27706 0.15778 0.0
H1888 H 0.62785 0.25403 0.2169 0.0
C1889 C 0.69718 0.24416 0.14589 0.0
H1890 H 0.65359 0.30506 0.1917 0.0
C1891 C 0.68216 0.21485 0.16014 0.0
C1892 C 0.65794 0.21785 0.18681 0.0
H1893 H 0.7171 0.24091 0.12667 0.0
H1894 H 0.69099 0.18988 0.15152 0.0
C1895 C 0.64684 0.25079 0.19676 0.0
loop_
_geom_bond_atom_site_label_1
_geom_bond_atom_site_label_2
_geom_bond_distance
_geom_bond_site_symmetry_2
_ccdc_geom_bond_type
Co0 O2 2.143 . S
Co0 O8 2.074 . S
Co0 O11 2.093 . S
Co0 O24 2.097 . S
Co0 N41 2.151 . S
Co0 N49 2.214 . S
Co1 O2 2.160 . S
Co1 O7 2.058 . S
Co1 O17 2.057 . S
Co1 O32 2.037 . S
Co1 N36 2.145 . S
Co1 N57 2.257 . S
O2 Co0 2.143 . S
O2 Co1 2.160 . S
C3 O4 1.278 . S
C3 O11 1.224 . S
O4 C3 1.278 . S
C5 O6 1.245 . S
C5 O17 1.232 . S
O6 C5 1.245 . S
O7 Co1 2.058 . S
O7 C33 1.269 . S
O8 Co0 2.074 . S
O8 C33 1.257 . S
H9 C34 0.930 . S
H10 C40 0.930 . S
O11 Co0 2.093 . S
O11 C3 1.224 . S
H12 C44 0.929 . S
H13 C46 0.930 . S
H14 C47 0.930 . S
H15 C45 0.929 . S
H16 C48 0.928 . S
O17 Co1 2.057 . S
O17 C5 1.232 . S
H18 C37 0.929 . S
H19 C38 0.929 . S
H20 C50 0.931 . S
H21 C42 0.929 . S
H22 C51 0.930 . S
H23 C43 0.931 . S
O24 Co0 2.097 . S
O24 C52 1.214 . S
H25 C53 0.929 . S
H26 C54 0.929 . S
H27 C55 0.930 . S
H28 C56 0.929 . S
H29 C58 0.930 . S
H30 C35 0.930 . S
H31 C39 0.930 . S
O32 Co1 2.037 . S
O32 C52 1.234 . S
C33 O7 1.269 . S
C33 O8 1.257 . S
C34 H9 0.930 . S
C34 C37 1.388 . S
C34 C39 1.418 . S
C35 H30 0.930 . S
C35 C38 1.404 . S
C35 C39 1.353 . S
N36 Co1 2.145 . S
N36 C37 1.397 . S
N36 C38 1.334 . S
C37 H18 0.929 . S
C37 C34 1.388 . S
C37 N36 1.397 . S
C38 H19 0.929 . S
C38 C35 1.404 . S
C38 N36 1.334 . S
C39 H31 0.930 . S
C39 C34 1.418 . S
C39 C35 1.353 . S
C40 H10 0.930 . S
C40 N41 1.330 . S
C40 C42 1.446 . S
N41 Co0 2.151 . S
N41 C40 1.330 . S
N41 C45 1.418 . S
C42 H21 0.929 . S
C42 C40 1.446 . S
C42 C43 1.332 . S
C43 H23 0.931 . S
C43 C42 1.332 . S
C43 C44 1.267 . S
C44 H12 0.929 . S
C44 C43 1.267 . S
C44 C45 1.251 . S
C45 H15 0.929 . S
C45 N41 1.418 . S
C45 C44 1.251 . S
C46 H13 0.930 . S
C46 C48 1.406 . S
C46 C51 1.261 . S
C47 H14 0.930 . S
C47 N49 1.325 . S
C47 C50 1.357 . S
C48 H16 0.928 . S
C48 C46 1.406 . S
C48 N49 1.261 . S
N49 Co0 2.214 . S
N49 C47 1.325 . S
N49 C48 1.261 . S
C50 H20 0.931 . S
C50 C47 1.357 . S
C50 C51 1.312 . S
C51 H22 0.930 . S
C51 C46 1.261 . S
C51 C50 1.312 . S
C52 O24 1.214 . S
C52 O32 1.234 . S
C53 H25 0.929 . S
C53 C56 1.391 . S
C53 C58 1.391 . S
C54 H26 0.929 . S
C54 C55 1.390 . S
C54 N57 1.391 . S
C55 H27 0.930 . S
C55 C54 1.390 . S
C55 C56 1.392 . S
C56 H28 0.929 . S
C56 C53 1.391 . S
C56 C55 1.392 . S
N57 Co1 2.257 . S
N57 C54 1.391 . S
N57 C58 1.388 . S
C58 H29 0.930 . S
C58 C53 1.391 . S
C58 N57 1.388 . S
Co59 O61 2.143 . S
Co59 O67 2.074 . S
Co59 O70 2.093 . S
Co59 O83 2.097 . S
Co59 N100 2.151 . S
Co59 N108 2.214 . S
Co60 O61 2.160 . S
Co60 O66 2.058 . S
Co60 O76 2.057 . S
Co60 O91 2.037 . S
Co60 N95 2.145 . S
Co60 N116 2.257 . S
O61 Co59 2.143 . S
O61 Co60 2.160 . S
C62 O63 1.278 . S
C62 O70 1.224 . S
O63 C62 1.278 . S
C64 O65 1.245 . S
C64 O76 1.232 . S
O65 C64 1.245 . S
O66 Co60 2.058 . S
O66 C92 1.269 . S
O67 Co59 2.074 . S
O67 C92 1.257 . S
H68 C93 0.930 . S
H69 C99 0.930 . S
O70 Co59 2.093 . S
O70 C62 1.224 . S
H71 C103 0.929 . S
H72 C105 0.930 . S
H73 C106 0.930 . S
H74 C104 0.929 . S
H75 C107 0.928 . S
O76 Co60 2.057 . S
O76 C64 1.232 . S
H77 C96 0.929 . S
H78 C97 0.929 . S
H79 C109 0.931 . S
H80 C101 0.929 . S
H81 C110 0.930 . S
H82 C102 0.931 . S
O83 Co59 2.097 . S
O83 C111 1.214 . S
H84 C112 0.929 . S
H85 C113 0.929 . S
H86 C114 0.930 . S
H87 C115 0.929 . S
H88 C117 0.930 . S
H89 C94 0.930 . S
H90 C98 0.930 . S
O91 Co60 2.037 . S
O91 C111 1.234 . S
C92 O66 1.269 . S
C92 O67 1.257 . S
C93 H68 0.930 . S
C93 C96 1.388 . S
C93 C98 1.418 . S
C94 H89 0.930 . S
C94 C97 1.404 . S
C94 C98 1.353 . S
N95 Co60 2.145 . S
N95 C96 1.397 . S
N95 C97 1.334 . S
C96 H77 0.929 . S
C96 C93 1.388 . S
C96 N95 1.397 . S
C97 H78 0.929 . S
C97 C94 1.404 . S
C97 N95 1.334 . S
C98 H90 0.930 . S
C98 C93 1.418 . S
C98 C94 1.353 . S
C99 H69 0.930 . S
C99 N100 1.330 . S
C99 C101 1.446 . S
N100 Co59 2.151 . S
N100 C99 1.330 . S
N100 C104 1.418 . S
C101 H80 0.929 . S
C101 C99 1.446 . S
C101 C102 1.332 . S
C102 H82 0.931 . S
C102 C101 1.332 . S
C102 C103 1.267 . S
C103 H71 0.929 . S
C103 C102 1.267 . S
C103 C104 1.251 . S
C104 H74 0.929 . S
C104 N100 1.418 . S
C104 C103 1.251 . S
C105 H72 0.930 . S
C105 C107 1.406 . S
C105 C110 1.261 . S
C106 H73 0.930 . S
C106 N108 1.325 . S
C106 C109 1.357 . S
C107 H75 0.928 . S
C107 C105 1.406 . S
C107 N108 1.261 . S
N108 Co59 2.214 . S
N108 C106 1.325 . S
N108 C107 1.261 . S
C109 H79 0.931 . S
C109 C106 1.357 . S
C109 C110 1.312 . S
C110 H81 0.930 . S
C110 C105 1.261 . S
C110 C109 1.312 . S
C111 O83 1.214 . S
C111 O91 1.234 . S
C112 H84 0.929 . S
C112 C115 1.391 . S
C112 C117 1.391 . S
C113 H85 0.929 . S
C113 C114 1.390 . S
C113 N116 1.391 . S
C114 H86 0.930 . S
C114 C113 1.390 . S
C114 C115 1.392 . S
C115 H87 0.929 . S
C115 C112 1.391 . S
C115 C114 1.392 . S
N116 Co60 2.257 . S
N116 C113 1.391 . S
N116 C117 1.388 . S
C117 H88 0.930 . S
C117 C112 1.391 . S
C117 N116 1.388 . S
Co118 O120 2.143 . S
Co118 O126 2.074 . S
Co118 O129 2.093 . S
Co118 O142 2.097 . S
Co118 N159 2.151 . S
Co118 N167 2.214 . S
Co119 O120 2.160 . S
Co119 O125 2.058 . S
Co119 O135 2.057 . S
Co119 O150 2.037 . S
Co119 N154 2.145 . S
Co119 N175 2.257 . S
O120 Co118 2.143 . S
O120 Co119 2.160 . S
C121 O122 1.278 . S
C121 O129 1.224 . S
O122 C121 1.278 . S
C123 O124 1.245 . S
C123 O135 1.232 . S
O124 C123 1.245 . S
O125 Co119 2.058 . S
O125 C151 1.269 . S
O126 Co118 2.074 . S
O126 C151 1.257 . S
H127 C152 0.930 . S
H128 C158 0.930 . S
O129 Co118 2.093 . S
O129 C121 1.224 . S
H130 C162 0.929 . S
H131 C164 0.930 . S
H132 C165 0.930 . S
H133 C163 0.929 . S
H134 C166 0.928 . S
O135 Co119 2.057 . S
O135 C123 1.232 . S
H136 C155 0.929 . S
H137 C156 0.929 . S
H138 C168 0.931 . S
H139 C160 0.929 . S
H140 C169 0.930 . S
H141 C161 0.931 . S
O142 Co118 2.097 . S
O142 C170 1.214 . S
H143 C171 0.929 . S
H144 C172 0.929 . S
H145 C173 0.930 . S
H146 C174 0.929 . S
H147 C176 0.930 . S
H148 C153 0.930 . S
H149 C157 0.930 . S
O150 Co119 2.037 . S
O150 C170 1.234 . S
C151 O125 1.269 . S
C151 O126 1.257 . S
C152 H127 0.930 . S
C152 C155 1.388 . S
C152 C157 1.418 . S
C153 H148 0.930 . S
C153 C156 1.404 . S
C153 C157 1.353 . S
N154 Co119 2.145 . S
N154 C155 1.397 . S
N154 C156 1.334 . S
C155 H136 0.929 . S
C155 C152 1.388 . S
C155 N154 1.397 . S
C156 H137 0.929 . S
C156 C153 1.404 . S
C156 N154 1.334 . S
C157 H149 0.930 . S
C157 C152 1.418 . S
C157 C153 1.353 . S
C158 H128 0.930 . S
C158 N159 1.330 . S
C158 C160 1.446 . S
N159 Co118 2.151 . S
N159 C158 1.330 . S
N159 C163 1.418 . S
C160 H139 0.929 . S
C160 C158 1.446 . S
C160 C161 1.332 . S
C161 H141 0.931 . S
C161 C160 1.332 . S
C161 C162 1.267 . S
C162 H130 0.929 . S
C162 C161 1.267 . S
C162 C163 1.251 . S
C163 H133 0.929 . S
C163 N159 1.418 . S
C163 C162 1.251 . S
C164 H131 0.930 . S
C164 C166 1.406 . S
C164 C169 1.261 . S
C165 H132 0.930 . S
C165 N167 1.325 . S
C165 C168 1.357 . S
C166 H134 0.928 . S
C166 C164 1.406 . S
C166 N167 1.261 . S
N167 Co118 2.214 . S
N167 C165 1.325 . S
N167 C166 1.261 . S
C168 H138 0.931 . S
C168 C165 1.357 . S
C168 C169 1.312 . S
C169 H140 0.930 . S
C169 C164 1.261 . S
C169 C168 1.312 . S
C170 O142 1.214 . S
C170 O150 1.234 . S
C171 H143 0.929 . S
C171 C174 1.391 . S
C171 C176 1.391 . S
C172 H144 0.929 . S
C172 C173 1.390 . S
C172 N175 1.391 . S
C173 H145 0.930 . S
C173 C172 1.390 . S
C173 C174 1.392 . S
C174 H146 0.929 . S
C174 C171 1.391 . S
C174 C173 1.392 . S
N175 Co119 2.257 . S
N175 C172 1.391 . S
N175 C176 1.388 . S
C176 H147 0.930 . S
C176 C171 1.391 . S
C176 N175 1.388 . S
Co177 O179 2.143 . S
Co177 O185 2.074 . S
Co177 O188 2.093 . S
Co177 O201 2.097 . S
Co177 N218 2.151 . S
Co177 N226 2.214 . S
Co178 O179 2.160 . S
Co178 O184 2.058 . S
Co178 O194 2.057 . S
Co178 O209 2.037 . S
Co178 N213 2.145 . S
Co178 N234 2.257 . S
O179 Co177 2.143 . S
O179 Co178 2.160 . S
C180 O181 1.278 . S
C180 O188 1.224 . S
O181 C180 1.278 . S
C182 O183 1.245 . S
C182 O194 1.232 . S
O183 C182 1.245 . S
O184 Co178 2.058 . S
O184 C210 1.269 . S
O185 Co177 2.074 . S
O185 C210 1.257 . S
H186 C211 0.930 . S
H187 C217 0.930 . S
O188 Co177 2.093 . S
O188 C180 1.224 . S
H189 C221 0.929 . S
H190 C223 0.930 . S
H191 C224 0.930 . S
H192 C222 0.929 . S
H193 C225 0.928 . S
O194 Co178 2.057 . S
O194 C182 1.232 . S
H195 C214 0.929 . S
H196 C215 0.929 . S
H197 C227 0.931 . S
H198 C219 0.929 . S
H199 C228 0.930 . S
H200 C220 0.931 . S
O201 Co177 2.097 . S
O201 C229 1.214 . S
H202 C230 0.929 . S
H203 C231 0.929 . S
H204 C232 0.930 . S
H205 C233 0.929 . S
H206 C235 0.930 . S
H207 C212 0.930 . S
H208 C216 0.930 . S
O209 Co178 2.037 . S
O209 C229 1.234 . S
C210 O184 1.269 . S
C210 O185 1.257 . S
C211 H186 0.930 . S
C211 C214 1.388 . S
C211 C216 1.418 . S
C212 H207 0.930 . S
C212 C215 1.404 . S
C212 C216 1.353 . S
N213 Co178 2.145 . S
N213 C214 1.397 . S
N213 C215 1.334 . S
C214 H195 0.929 . S
C214 C211 1.388 . S
C214 N213 1.397 . S
C215 H196 0.929 . S
C215 C212 1.404 . S
C215 N213 1.334 . S
C216 H208 0.930 . S
C216 C211 1.418 . S
C216 C212 1.353 . S
C217 H187 0.930 . S
C217 N218 1.330 . S
C217 C219 1.446 . S
N218 Co177 2.151 . S
N218 C217 1.330 . S
N218 C222 1.418 . S
C219 H198 0.929 . S
C219 C217 1.446 . S
C219 C220 1.332 . S
C220 H200 0.931 . S
C220 C219 1.332 . S
C220 C221 1.267 . S
C221 H189 0.929 . S
C221 C220 1.267 . S
C221 C222 1.251 . S
C222 H192 0.929 . S
C222 N218 1.418 . S
C222 C221 1.251 . S
C223 H190 0.930 . S
C223 C225 1.406 . S
C223 C228 1.261 . S
C224 H191 0.930 . S
C224 N226 1.325 . S
C224 C227 1.357 . S
C225 H193 0.928 . S
C225 C223 1.406 . S
C225 N226 1.261 . S
N226 Co177 2.214 . S
N226 C224 1.325 . S
N226 C225 1.261 . S
C227 H197 0.931 . S
C227 C224 1.357 . S
C227 C228 1.312 . S
C228 H199 0.930 . S
C228 C223 1.261 . S
C228 C227 1.312 . S
C229 O201 1.214 . S
C229 O209 1.234 . S
C230 H202 0.929 . S
C230 C233 1.391 . S
C230 C235 1.391 . S
C231 H203 0.929 . S
C231 C232 1.390 . S
C231 N234 1.391 . S
C232 H204 0.930 . S
C232 C231 1.390 . S
C232 C233 1.392 . S
C233 H205 0.929 . S
C233 C230 1.391 . S
C233 C232 1.392 . S
N234 Co178 2.257 . S
N234 C231 1.391 . S
N234 C235 1.388 . S
C235 H206 0.930 . S
C235 C230 1.391 . S
C235 N234 1.388 . S
Co236 O238 2.143 . S
Co236 O244 2.074 . S
Co236 O247 2.093 . S
Co236 O260 2.097 . S
Co236 N277 2.151 . S
Co236 N285 2.214 . S
Co237 O238 2.160 . S
Co237 O243 2.058 . S
Co237 O253 2.057 . S
Co237 O268 2.037 . S
Co237 N272 2.145 . S
Co237 N293 2.257 . S
O238 Co236 2.143 . S
O238 Co237 2.160 . S
C239 O240 1.278 . S
C239 O247 1.224 . S
O240 C239 1.278 . S
C241 O242 1.245 . S
C241 O253 1.232 . S
O242 C241 1.245 . S
O243 Co237 2.058 . S
O243 C269 1.269 . S
O244 Co236 2.074 . S
O244 C269 1.257 . S
H245 C270 0.930 . S
H246 C276 0.930 . S
O247 Co236 2.093 . S
O247 C239 1.224 . S
H248 C280 0.929 . S
H249 C282 0.930 . S
H250 C283 0.930 . S
H251 C281 0.929 . S
H252 C284 0.928 . S
O253 Co237 2.057 . S
O253 C241 1.232 . S
H254 C273 0.929 . S
H255 C274 0.929 . S
H256 C286 0.931 . S
H257 C278 0.929 . S
H258 C287 0.930 . S
H259 C279 0.931 . S
O260 Co236 2.097 . S
O260 C288 1.214 . S
H261 C289 0.929 . S
H262 C290 0.929 . S
H263 C291 0.930 . S
H264 C292 0.929 . S
H265 C294 0.930 . S
H266 C271 0.930 . S
H267 C275 0.930 . S
O268 Co237 2.037 . S
O268 C288 1.234 . S
C269 O243 1.269 . S
C269 O244 1.257 . S
C270 H245 0.930 . S
C270 C273 1.388 . S
C270 C275 1.418 . S
C271 H266 0.930 . S
C271 C274 1.404 . S
C271 C275 1.353 . S
N272 Co237 2.145 . S
N272 C273 1.397 . S
N272 C274 1.334 . S
C273 H254 0.929 . S
C273 C270 1.388 . S
C273 N272 1.397 . S
C274 H255 0.929 . S
C274 C271 1.404 . S
C274 N272 1.334 . S
C275 H267 0.930 . S
C275 C270 1.418 . S
C275 C271 1.353 . S
C276 H246 0.930 . S
C276 N277 1.330 . S
C276 C278 1.446 . S
N277 Co236 2.151 . S
N277 C276 1.330 . S
N277 C281 1.418 . S
C278 H257 0.929 . S
C278 C276 1.446 . S
C278 C279 1.332 . S
C279 H259 0.931 . S
C279 C278 1.332 . S
C279 C280 1.267 . S
C280 H248 0.929 . S
C280 C279 1.267 . S
C280 C281 1.251 . S
C281 H251 0.929 . S
C281 N277 1.418 . S
C281 C280 1.251 . S
C282 H249 0.930 . S
C282 C284 1.406 . S
C282 C287 1.261 . S
C283 H250 0.930 . S
C283 N285 1.325 . S
C283 C286 1.357 . S
C284 H252 0.928 . S
C284 C282 1.406 . S
C284 N285 1.261 . S
N285 Co236 2.214 . S
N285 C283 1.325 . S
N285 C284 1.261 . S
C286 H256 0.931 . S
C286 C283 1.357 . S
C286 C287 1.312 . S
C287 H258 0.930 . S
C287 C282 1.261 . S
C287 C286 1.312 . S
C288 O260 1.214 . S
C288 O268 1.234 . S
C289 H261 0.929 . S
C289 C292 1.391 . S
C289 C294 1.391 . S
C290 H262 0.929 . S
C290 C291 1.390 . S
C290 N293 1.391 . S
C291 H263 0.930 . S
C291 C290 1.390 . S
C291 C292 1.392 . S
C292 H264 0.929 . S
C292 C289 1.391 . S
C292 C291 1.392 . S
N293 Co237 2.257 . S
N293 C290 1.391 . S
N293 C294 1.388 . S
C294 H265 0.930 . S
C294 C289 1.391 . S
C294 N293 1.388 . S
Co295 O297 2.143 . S
Co295 O303 2.074 . S
Co295 O306 2.093 . S
Co295 O319 2.097 . S
Co295 N336 2.151 . S
Co295 N344 2.214 . S
Co296 O297 2.160 . S
Co296 O302 2.058 . S
Co296 O312 2.057 . S
Co296 O327 2.037 . S
Co296 N331 2.145 . S
Co296 N352 2.257 . S
O297 Co295 2.143 . S
O297 Co296 2.160 . S
C298 O299 1.278 . S
C298 O306 1.224 . S
O299 C298 1.278 . S
C300 O301 1.245 . S
C300 O312 1.232 . S
O301 C300 1.245 . S
O302 Co296 2.058 . S
O302 C328 1.269 . S
O303 Co295 2.074 . S
O303 C328 1.257 . S
H304 C329 0.930 . S
H305 C335 0.930 . S
O306 Co295 2.093 . S
O306 C298 1.224 . S
H307 C339 0.929 . S
H308 C341 0.930 . S
H309 C342 0.930 . S
H310 C340 0.929 . S
H311 C343 0.928 . S
O312 Co296 2.057 . S
O312 C300 1.232 . S
H313 C332 0.929 . S
H314 C333 0.929 . S
H315 C345 0.931 . S
H316 C337 0.929 . S
H317 C346 0.930 . S
H318 C338 0.931 . S
O319 Co295 2.097 . S
O319 C347 1.214 . S
H320 C348 0.929 . S
H321 C349 0.929 . S
H322 C350 0.930 . S
H323 C351 0.929 . S
H324 C353 0.930 . S
H325 C330 0.930 . S
H326 C334 0.930 . S
O327 Co296 2.037 . S
O327 C347 1.234 . S
C328 O302 1.269 . S
C328 O303 1.257 . S
C329 H304 0.930 . S
C329 C332 1.388 . S
C329 C334 1.418 . S
C330 H325 0.930 . S
C330 C333 1.404 . S
C330 C334 1.353 . S
N331 Co296 2.145 . S
N331 C332 1.397 . S
N331 C333 1.334 . S
C332 H313 0.929 . S
C332 C329 1.388 . S
C332 N331 1.397 . S
C333 H314 0.929 . S
C333 C330 1.404 . S
C333 N331 1.334 . S
C334 H326 0.930 . S
C334 C329 1.418 . S
C334 C330 1.353 . S
C335 H305 0.930 . S
C335 N336 1.330 . S
C335 C337 1.446 . S
N336 Co295 2.151 . S
N336 C335 1.330 . S
N336 C340 1.418 . S
C337 H316 0.929 . S
C337 C335 1.446 . S
C337 C338 1.332 . S
C338 H318 0.931 . S
C338 C337 1.332 . S
C338 C339 1.267 . S
C339 H307 0.929 . S
C339 C338 1.267 . S
C339 C340 1.251 . S
C340 H310 0.929 . S
C340 N336 1.418 . S
C340 C339 1.251 . S
C341 H308 0.930 . S
C341 C343 1.406 . S
C341 C346 1.261 . S
C342 H309 0.930 . S
C342 N344 1.325 . S
C342 C345 1.357 . S
C343 H311 0.928 . S
C343 C341 1.406 . S
C343 N344 1.261 . S
N344 Co295 2.214 . S
N344 C342 1.325 . S
N344 C343 1.261 . S
C345 H315 0.931 . S
C345 C342 1.357 . S
C345 C346 1.312 . S
C346 H317 0.930 . S
C346 C341 1.261 . S
C346 C345 1.312 . S
C347 O319 1.214 . S
C347 O327 1.234 . S
C348 H320 0.929 . S
C348 C351 1.391 . S
C348 C353 1.391 . S
C349 H321 0.929 . S
C349 C350 1.390 . S
C349 N352 1.391 . S
C350 H322 0.930 . S
C350 C349 1.390 . S
C350 C351 1.392 . S
C351 H323 0.929 . S
C351 C348 1.391 . S
C351 C350 1.392 . S
N352 Co296 2.257 . S
N352 C349 1.391 . S
N352 C353 1.388 . S
C353 H324 0.930 . S
C353 C348 1.391 . S
C353 N352 1.388 . S
Co354 O356 2.143 . S
Co354 O362 2.074 . S
Co354 O365 2.093 . S
Co354 O378 2.097 . S
Co354 N395 2.151 . S
Co354 N403 2.214 . S
Co355 O356 2.160 . S
Co355 O361 2.058 . S
Co355 O371 2.057 . S
Co355 O386 2.037 . S
Co355 N390 2.145 . S
Co355 N411 2.257 . S
O356 Co354 2.143 . S
O356 Co355 2.160 . S
C357 O358 1.278 . S
C357 O365 1.224 . S
O358 C357 1.278 . S
C359 O360 1.245 . S
C359 O371 1.232 . S
O360 C359 1.245 . S
O361 Co355 2.058 . S
O361 C387 1.269 . S
O362 Co354 2.074 . S
O362 C387 1.257 . S
H363 C388 0.930 . S
H364 C394 0.930 . S
O365 Co354 2.093 . S
O365 C357 1.224 . S
H366 C398 0.929 . S
H367 C400 0.930 . S
H368 C401 0.930 . S
H369 C399 0.929 . S
H370 C402 0.928 . S
O371 Co355 2.057 . S
O371 C359 1.232 . S
H372 C391 0.929 . S
H373 C392 0.929 . S
H374 C404 0.931 . S
H375 C396 0.929 . S
H376 C405 0.930 . S
H377 C397 0.931 . S
O378 Co354 2.097 . S
O378 C406 1.214 . S
H379 C407 0.929 . S
H380 C408 0.929 . S
H381 C409 0.930 . S
H382 C410 0.929 . S
H383 C412 0.930 . S
H384 C389 0.930 . S
H385 C393 0.930 . S
O386 Co355 2.037 . S
O386 C406 1.234 . S
C387 O361 1.269 . S
C387 O362 1.257 . S
C388 H363 0.930 . S
C388 C391 1.388 . S
C388 C393 1.418 . S
C389 H384 0.930 . S
C389 C392 1.404 . S
C389 C393 1.353 . S
N390 Co355 2.145 . S
N390 C391 1.397 . S
N390 C392 1.334 . S
C391 H372 0.929 . S
C391 C388 1.388 . S
C391 N390 1.397 . S
C392 H373 0.929 . S
C392 C389 1.404 . S
C392 N390 1.334 . S
C393 H385 0.930 . S
C393 C388 1.418 . S
C393 C389 1.353 . S
C394 H364 0.930 . S
C394 N395 1.330 . S
C394 C396 1.446 . S
N395 Co354 2.151 . S
N395 C394 1.330 . S
N395 C399 1.418 . S
C396 H375 0.929 . S
C396 C394 1.446 . S
C396 C397 1.332 . S
C397 H377 0.931 . S
C397 C396 1.332 . S
C397 C398 1.267 . S
C398 H366 0.929 . S
C398 C397 1.267 . S
C398 C399 1.251 . S
C399 H369 0.929 . S
C399 N395 1.418 . S
C399 C398 1.251 . S
C400 H367 0.930 . S
C400 C402 1.406 . S
C400 C405 1.261 . S
C401 H368 0.930 . S
C401 N403 1.325 . S
C401 C404 1.357 . S
C402 H370 0.928 . S
C402 C400 1.406 . S
C402 N403 1.261 . S
N403 Co354 2.214 . S
N403 C401 1.325 . S
N403 C402 1.261 . S
C404 H374 0.931 . S
C404 C401 1.357 . S
C404 C405 1.312 . S
C405 H376 0.930 . S
C405 C400 1.261 . S
C405 C404 1.312 . S
C406 O378 1.214 . S
C406 O386 1.234 . S
C407 H379 0.929 . S
C407 C410 1.391 . S
C407 C412 1.391 . S
C408 H380 0.929 . S
C408 C409 1.390 . S
C408 N411 1.391 . S
C409 H381 0.930 . S
C409 C408 1.390 . S
C409 C410 1.392 . S
C410 H382 0.929 . S
C410 C407 1.391 . S
C410 C409 1.392 . S
N411 Co355 2.257 . S
N411 C408 1.391 . S
N411 C412 1.388 . S
C412 H383 0.930 . S
C412 C407 1.391 . S
C412 N411 1.388 . S
Co413 O415 2.143 . S
Co413 O421 2.074 . S
Co413 O424 2.093 . S
Co413 O437 2.097 . S
Co413 N454 2.151 . S
Co413 N462 2.214 . S
Co414 O415 2.160 . S
Co414 O420 2.058 . S
Co414 O430 2.057 . S
Co414 O445 2.037 . S
Co414 N449 2.145 . S
Co414 N470 2.257 . S
O415 Co413 2.143 . S
O415 Co414 2.160 . S
C416 O417 1.278 . S
C416 O424 1.224 . S
O417 C416 1.278 . S
C418 O419 1.245 . S
C418 O430 1.232 . S
O419 C418 1.245 . S
O420 Co414 2.058 . S
O420 C446 1.269 . S
O421 Co413 2.074 . S
O421 C446 1.257 . S
H422 C447 0.930 . S
H423 C453 0.930 . S
O424 Co413 2.093 . S
O424 C416 1.224 . S
H425 C457 0.929 . S
H426 C459 0.930 . S
H427 C460 0.930 . S
H428 C458 0.929 . S
H429 C461 0.928 . S
O430 Co414 2.057 . S
O430 C418 1.232 . S
H431 C450 0.929 . S
H432 C451 0.929 . S
H433 C463 0.931 . S
H434 C455 0.929 . S
H435 C464 0.930 . S
H436 C456 0.931 . S
O437 Co413 2.097 . S
O437 C465 1.214 . S
H438 C466 0.929 . S
H439 C467 0.929 . S
H440 C468 0.930 . S
H441 C469 0.929 . S
H442 C471 0.930 . S
H443 C448 0.930 . S
H444 C452 0.930 . S
O445 Co414 2.037 . S
O445 C465 1.234 . S
C446 O420 1.269 . S
C446 O421 1.257 . S
C447 H422 0.930 . S
C447 C450 1.388 . S
C447 C452 1.418 . S
C448 H443 0.930 . S
C448 C451 1.404 . S
C448 C452 1.353 . S
N449 Co414 2.145 . S
N449 C450 1.397 . S
N449 C451 1.334 . S
C450 H431 0.929 . S
C450 C447 1.388 . S
C450 N449 1.397 . S
C451 H432 0.929 . S
C451 C448 1.404 . S
C451 N449 1.334 . S
C452 H444 0.930 . S
C452 C447 1.418 . S
C452 C448 1.353 . S
C453 H423 0.930 . S
C453 N454 1.330 . S
C453 C455 1.446 . S
N454 Co413 2.151 . S
N454 C453 1.330 . S
N454 C458 1.418 . S
C455 H434 0.929 . S
C455 C453 1.446 . S
C455 C456 1.332 . S
C456 H436 0.931 . S
C456 C455 1.332 . S
C456 C457 1.267 . S
C457 H425 0.929 . S
C457 C456 1.267 . S
C457 C458 1.251 . S
C458 H428 0.929 . S
C458 N454 1.418 . S
C458 C457 1.251 . S
C459 H426 0.930 . S
C459 C461 1.406 . S
C459 C464 1.261 . S
C460 H427 0.930 . S
C460 N462 1.325 . S
C460 C463 1.357 . S
C461 H429 0.928 . S
C461 C459 1.406 . S
C461 N462 1.261 . S
N462 Co413 2.214 . S
N462 C460 1.325 . S
N462 C461 1.261 . S
C463 H433 0.931 . S
C463 C460 1.357 . S
C463 C464 1.312 . S
C464 H435 0.930 . S
C464 C459 1.261 . S
C464 C463 1.312 . S
C465 O437 1.214 . S
C465 O445 1.234 . S
C466 H438 0.929 . S
C466 C469 1.391 . S
C466 C471 1.391 . S
C467 H439 0.929 . S
C467 C468 1.390 . S
C467 N470 1.391 . S
C468 H440 0.930 . S
C468 C467 1.390 . S
C468 C469 1.392 . S
C469 H441 0.929 . S
C469 C466 1.391 . S
C469 C468 1.392 . S
N470 Co414 2.257 . S
N470 C467 1.391 . S
N470 C471 1.388 . S
C471 H442 0.930 . S
C471 C466 1.391 . S
C471 N470 1.388 . S
Co472 O474 2.143 . S
Co472 O480 2.074 . S
Co472 O483 2.093 . S
Co472 O496 2.097 . S
Co472 N513 2.151 . S
Co472 N521 2.214 . S
Co473 O474 2.160 . S
Co473 O479 2.058 . S
Co473 O489 2.057 . S
Co473 O504 2.037 . S
Co473 N508 2.145 . S
Co473 N529 2.257 . S
O474 Co472 2.143 . S
O474 Co473 2.160 . S
C475 O476 1.278 . S
C475 O483 1.224 . S
O476 C475 1.278 . S
C477 O478 1.245 . S
C477 O489 1.232 . S
O478 C477 1.245 . S
O479 Co473 2.058 . S
O479 C505 1.269 . S
O480 Co472 2.074 . S
O480 C505 1.257 . S
H481 C506 0.930 . S
H482 C512 0.930 . S
O483 Co472 2.093 . S
O483 C475 1.224 . S
H484 C516 0.929 . S
H485 C518 0.930 . S
H486 C519 0.930 . S
H487 C517 0.929 . S
H488 C520 0.928 . S
O489 Co473 2.057 . S
O489 C477 1.232 . S
H490 C509 0.929 . S
H491 C510 0.929 . S
H492 C522 0.931 . S
H493 C514 0.929 . S
H494 C523 0.930 . S
H495 C515 0.931 . S
O496 Co472 2.097 . S
O496 C524 1.214 . S
H497 C525 0.929 . S
H498 C526 0.929 . S
H499 C527 0.930 . S
H500 C528 0.929 . S
H501 C530 0.930 . S
H502 C507 0.930 . S
H503 C511 0.930 . S
O504 Co473 2.037 . S
O504 C524 1.234 . S
C505 O479 1.269 . S
C505 O480 1.257 . S
C506 H481 0.930 . S
C506 C509 1.388 . S
C506 C511 1.418 . S
C507 H502 0.930 . S
C507 C510 1.404 . S
C507 C511 1.353 . S
N508 Co473 2.145 . S
N508 C509 1.397 . S
N508 C510 1.334 . S
C509 H490 0.929 . S
C509 C506 1.388 . S
C509 N508 1.397 . S
C510 H491 0.929 . S
C510 C507 1.404 . S
C510 N508 1.334 . S
C511 H503 0.930 . S
C511 C506 1.418 . S
C511 C507 1.353 . S
C512 H482 0.930 . S
C512 N513 1.330 . S
C512 C514 1.446 . S
N513 Co472 2.151 . S
N513 C512 1.330 . S
N513 C517 1.418 . S
C514 H493 0.929 . S
C514 C512 1.446 . S
C514 C515 1.332 . S
C515 H495 0.931 . S
C515 C514 1.332 . S
C515 C516 1.267 . S
C516 H484 0.929 . S
C516 C515 1.267 . S
C516 C517 1.251 . S
C517 H487 0.929 . S
C517 N513 1.418 . S
C517 C516 1.251 . S
C518 H485 0.930 . S
C518 C520 1.406 . S
C518 C523 1.261 . S
C519 H486 0.930 . S
C519 N521 1.325 . S
C519 C522 1.357 . S
C520 H488 0.928 . S
C520 C518 1.406 . S
C520 N521 1.261 . S
N521 Co472 2.214 . S
N521 C519 1.325 . S
N521 C520 1.261 . S
C522 H492 0.931 . S
C522 C519 1.357 . S
C522 C523 1.312 . S
C523 H494 0.930 . S
C523 C518 1.261 . S
C523 C522 1.312 . S
C524 O496 1.214 . S
C524 O504 1.234 . S
C525 H497 0.929 . S
C525 C528 1.391 . S
C525 C530 1.391 . S
C526 H498 0.929 . S
C526 C527 1.390 . S
C526 N529 1.391 . S
C527 H499 0.930 . S
C527 C526 1.390 . S
C527 C528 1.392 . S
C528 H500 0.929 . S
C528 C525 1.391 . S
C528 C527 1.392 . S
N529 Co473 2.257 . S
N529 C526 1.391 . S
N529 C530 1.388 . S
C530 H501 0.930 . S
C530 C525 1.391 . S
C530 N529 1.388 . S
Co531 O533 2.143 . S
Co531 O539 2.074 . S
Co531 O542 2.093 . S
Co531 O555 2.097 . S
Co531 N572 2.151 . S
Co531 N580 2.214 . S
Co532 O533 2.160 . S
Co532 O538 2.058 . S
Co532 O548 2.057 . S
Co532 O563 2.037 . S
Co532 N567 2.145 . S
Co532 N588 2.257 . S
O533 Co531 2.143 . S
O533 Co532 2.160 . S
C534 O535 1.278 . S
C534 O542 1.224 . S
O535 C534 1.278 . S
C536 O537 1.245 . S
C536 O548 1.232 . S
O537 C536 1.245 . S
O538 Co532 2.058 . S
O538 C564 1.269 . S
O539 Co531 2.074 . S
O539 C564 1.257 . S
H540 C565 0.930 . S
H541 C571 0.930 . S
O542 Co531 2.093 . S
O542 C534 1.224 . S
H543 C575 0.929 . S
H544 C577 0.930 . S
H545 C578 0.930 . S
H546 C576 0.929 . S
H547 C579 0.928 . S
O548 Co532 2.057 . S
O548 C536 1.232 . S
H549 C568 0.929 . S
H550 C569 0.929 . S
H551 C581 0.931 . S
H552 C573 0.929 . S
H553 C582 0.930 . S
H554 C574 0.931 . S
O555 Co531 2.097 . S
O555 C583 1.214 . S
H556 C584 0.929 . S
H557 C585 0.929 . S
H558 C586 0.930 . S
H559 C587 0.929 . S
H560 C589 0.930 . S
H561 C566 0.930 . S
H562 C570 0.930 . S
O563 Co532 2.037 . S
O563 C583 1.234 . S
C564 O538 1.269 . S
C564 O539 1.257 . S
C565 H540 0.930 . S
C565 C568 1.388 . S
C565 C570 1.418 . S
C566 H561 0.930 . S
C566 C569 1.404 . S
C566 C570 1.353 . S
N567 Co532 2.145 . S
N567 C568 1.397 . S
N567 C569 1.334 . S
C568 H549 0.929 . S
C568 C565 1.388 . S
C568 N567 1.397 . S
C569 H550 0.929 . S
C569 C566 1.404 . S
C569 N567 1.334 . S
C570 H562 0.930 . S
C570 C565 1.418 . S
C570 C566 1.353 . S
C571 H541 0.930 . S
C571 N572 1.330 . S
C571 C573 1.446 . S
N572 Co531 2.151 . S
N572 C571 1.330 . S
N572 C576 1.418 . S
C573 H552 0.929 . S
C573 C571 1.446 . S
C573 C574 1.332 . S
C574 H554 0.931 . S
C574 C573 1.332 . S
C574 C575 1.267 . S
C575 H543 0.929 . S
C575 C574 1.267 . S
C575 C576 1.251 . S
C576 H546 0.929 . S
C576 N572 1.418 . S
C576 C575 1.251 . S
C577 H544 0.930 . S
C577 C579 1.406 . S
C577 C582 1.261 . S
C578 H545 0.930 . S
C578 N580 1.325 . S
C578 C581 1.357 . S
C579 H547 0.928 . S
C579 C577 1.406 . S
C579 N580 1.261 . S
N580 Co531 2.214 . S
N580 C578 1.325 . S
N580 C579 1.261 . S
C581 H551 0.931 . S
C581 C578 1.357 . S
C581 C582 1.312 . S
C582 H553 0.930 . S
C582 C577 1.261 . S
C582 C581 1.312 . S
C583 O555 1.214 . S
C583 O563 1.234 . S
C584 H556 0.929 . S
C584 C587 1.391 . S
C584 C589 1.391 . S
C585 H557 0.929 . S
C585 C586 1.390 . S
C585 N588 1.391 . S
C586 H558 0.930 . S
C586 C585 1.390 . S
C586 C587 1.392 . S
C587 H559 0.929 . S
C587 C584 1.391 . S
C587 C586 1.392 . S
N588 Co532 2.257 . S
N588 C585 1.391 . S
N588 C589 1.388 . S
C589 H560 0.930 . S
C589 C584 1.391 . S
C589 N588 1.388 . S
Co590 O592 2.143 . S
Co590 O598 2.074 . S
Co590 O601 2.093 . S
Co590 O614 2.097 . S
Co590 N631 2.151 . S
Co590 N639 2.214 . S
Co591 O592 2.160 . S
Co591 O597 2.058 . S
Co591 O607 2.057 . S
Co591 O622 2.037 . S
Co591 N626 2.145 . S
Co591 N647 2.257 . S
O592 Co590 2.143 . S
O592 Co591 2.160 . S
C593 O594 1.278 . S
C593 O601 1.224 . S
O594 C593 1.278 . S
C595 O596 1.245 . S
C595 O607 1.232 . S
O596 C595 1.245 . S
O597 Co591 2.058 . S
O597 C623 1.269 . S
O598 Co590 2.074 . S
O598 C623 1.257 . S
H599 C624 0.930 . S
H600 C630 0.930 . S
O601 Co590 2.093 . S
O601 C593 1.224 . S
H602 C634 0.929 . S
H603 C636 0.930 . S
H604 C637 0.930 . S
H605 C635 0.929 . S
H606 C638 0.928 . S
O607 Co591 2.057 . S
O607 C595 1.232 . S
H608 C627 0.929 . S
H609 C628 0.929 . S
H610 C640 0.931 . S
H611 C632 0.929 . S
H612 C641 0.930 . S
H613 C633 0.931 . S
O614 Co590 2.097 . S
O614 C642 1.214 . S
H615 C643 0.929 . S
H616 C644 0.929 . S
H617 C645 0.930 . S
H618 C646 0.929 . S
H619 C648 0.930 . S
H620 C625 0.930 . S
H621 C629 0.930 . S
O622 Co591 2.037 . S
O622 C642 1.234 . S
C623 O597 1.269 . S
C623 O598 1.257 . S
C624 H599 0.930 . S
C624 C627 1.388 . S
C624 C629 1.418 . S
C625 H620 0.930 . S
C625 C628 1.404 . S
C625 C629 1.353 . S
N626 Co591 2.145 . S
N626 C627 1.397 . S
N626 C628 1.334 . S
C627 H608 0.929 . S
C627 C624 1.388 . S
C627 N626 1.397 . S
C628 H609 0.929 . S
C628 C625 1.404 . S
C628 N626 1.334 . S
C629 H621 0.930 . S
C629 C624 1.418 . S
C629 C625 1.353 . S
C630 H600 0.930 . S
C630 N631 1.330 . S
C630 C632 1.446 . S
N631 Co590 2.151 . S
N631 C630 1.330 . S
N631 C635 1.418 . S
C632 H611 0.929 . S
C632 C630 1.446 . S
C632 C633 1.332 . S
C633 H613 0.931 . S
C633 C632 1.332 . S
C633 C634 1.267 . S
C634 H602 0.929 . S
C634 C633 1.267 . S
C634 C635 1.251 . S
C635 H605 0.929 . S
C635 N631 1.418 . S
C635 C634 1.251 . S
C636 H603 0.930 . S
C636 C638 1.406 . S
C636 C641 1.261 . S
C637 H604 0.930 . S
C637 N639 1.325 . S
C637 C640 1.357 . S
C638 H606 0.928 . S
C638 C636 1.406 . S
C638 N639 1.261 . S
N639 Co590 2.214 . S
N639 C637 1.325 . S
N639 C638 1.261 . S
C640 H610 0.931 . S
C640 C637 1.357 . S
C640 C641 1.312 . S
C641 H612 0.930 . S
C641 C636 1.261 . S
C641 C640 1.312 . S
C642 O614 1.214 . S
C642 O622 1.234 . S
C643 H615 0.929 . S
C643 C646 1.391 . S
C643 C648 1.391 . S
C644 H616 0.929 . S
C644 C645 1.390 . S
C644 N647 1.391 . S
C645 H617 0.930 . S
C645 C644 1.390 . S
C645 C646 1.392 . S
C646 H618 0.929 . S
C646 C643 1.391 . S
C646 C645 1.392 . S
N647 Co591 2.257 . S
N647 C644 1.391 . S
N647 C648 1.388 . S
C648 H619 0.930 . S
C648 C643 1.391 . S
C648 N647 1.388 . S
Co649 O651 2.143 . S
Co649 O657 2.074 . S
Co649 O660 2.093 . S
Co649 O673 2.097 . S
Co649 N690 2.151 . S
Co649 N698 2.214 . S
Co650 O651 2.160 . S
Co650 O656 2.058 . S
Co650 O666 2.057 . S
Co650 O681 2.037 . S
Co650 N685 2.145 . S
Co650 N706 2.257 . S
O651 Co649 2.143 . S
O651 Co650 2.160 . S
C652 O653 1.278 . S
C652 O660 1.224 . S
O653 C652 1.278 . S
C654 O655 1.245 . S
C654 O666 1.232 . S
O655 C654 1.245 . S
O656 Co650 2.058 . S
O656 C682 1.269 . S
O657 Co649 2.074 . S
O657 C682 1.257 . S
H658 C683 0.930 . S
H659 C689 0.930 . S
O660 Co649 2.093 . S
O660 C652 1.224 . S
H661 C693 0.929 . S
H662 C695 0.930 . S
H663 C696 0.930 . S
H664 C694 0.929 . S
H665 C697 0.928 . S
O666 Co650 2.057 . S
O666 C654 1.232 . S
H667 C686 0.929 . S
H668 C687 0.929 . S
H669 C699 0.931 . S
H670 C691 0.929 . S
H671 C700 0.930 . S
H672 C692 0.931 . S
O673 Co649 2.097 . S
O673 C701 1.214 . S
H674 C702 0.929 . S
H675 C703 0.929 . S
H676 C704 0.930 . S
H677 C705 0.929 . S
H678 C707 0.930 . S
H679 C684 0.930 . S
H680 C688 0.930 . S
O681 Co650 2.037 . S
O681 C701 1.234 . S
C682 O656 1.269 . S
C682 O657 1.257 . S
C683 H658 0.930 . S
C683 C686 1.388 . S
C683 C688 1.418 . S
C684 H679 0.930 . S
C684 C687 1.404 . S
C684 C688 1.353 . S
N685 Co650 2.145 . S
N685 C686 1.397 . S
N685 C687 1.334 . S
C686 H667 0.929 . S
C686 C683 1.388 . S
C686 N685 1.397 . S
C687 H668 0.929 . S
C687 C684 1.404 . S
C687 N685 1.334 . S
C688 H680 0.930 . S
C688 C683 1.418 . S
C688 C684 1.353 . S
C689 H659 0.930 . S
C689 N690 1.330 . S
C689 C691 1.446 . S
N690 Co649 2.151 . S
N690 C689 1.330 . S
N690 C694 1.418 . S
C691 H670 0.929 . S
C691 C689 1.446 . S
C691 C692 1.332 . S
C692 H672 0.931 . S
C692 C691 1.332 . S
C692 C693 1.267 . S
C693 H661 0.929 . S
C693 C692 1.267 . S
C693 C694 1.251 . S
C694 H664 0.929 . S
C694 N690 1.418 . S
C694 C693 1.251 . S
C695 H662 0.930 . S
C695 C697 1.406 . S
C695 C700 1.261 . S
C696 H663 0.930 . S
C696 N698 1.325 . S
C696 C699 1.357 . S
C697 H665 0.928 . S
C697 C695 1.406 . S
C697 N698 1.261 . S
N698 Co649 2.214 . S
N698 C696 1.325 . S
N698 C697 1.261 . S
C699 H669 0.931 . S
C699 C696 1.357 . S
C699 C700 1.312 . S
C700 H671 0.930 . S
C700 C695 1.261 . S
C700 C699 1.312 . S
C701 O673 1.214 . S
C701 O681 1.234 . S
C702 H674 0.929 . S
C702 C705 1.391 . S
C702 C707 1.391 . S
C703 H675 0.929 . S
C703 C704 1.390 . S
C703 N706 1.391 . S
C704 H676 0.930 . S
C704 C703 1.390 . S
C704 C705 1.392 . S
C705 H677 0.929 . S
C705 C702 1.391 . S
C705 C704 1.392 . S
N706 Co650 2.257 . S
N706 C703 1.391 . S
N706 C707 1.388 . S
C707 H678 0.930 . S
C707 C702 1.391 . S
C707 N706 1.388 . S
Co708 O710 2.143 . S
Co708 O716 2.074 . S
Co708 O719 2.093 . S
Co708 O732 2.097 . S
Co708 N749 2.151 . S
Co708 N757 2.214 . S
Co709 O710 2.160 . S
Co709 O715 2.058 . S
Co709 O725 2.057 . S
Co709 O740 2.037 . S
Co709 N744 2.145 . S
Co709 N765 2.257 . S
O710 Co708 2.143 . S
O710 Co709 2.160 . S
C711 O712 1.278 . S
C711 O719 1.224 . S
O712 C711 1.278 . S
C713 O714 1.245 . S
C713 O725 1.232 . S
O714 C713 1.245 . S
O715 Co709 2.058 . S
O715 C741 1.269 . S
O716 Co708 2.074 . S
O716 C741 1.257 . S
H717 C742 0.930 . S
H718 C748 0.930 . S
O719 Co708 2.093 . S
O719 C711 1.224 . S
H720 C752 0.929 . S
H721 C754 0.930 . S
H722 C755 0.930 . S
H723 C753 0.929 . S
H724 C756 0.928 . S
O725 Co709 2.057 . S
O725 C713 1.232 . S
H726 C745 0.929 . S
H727 C746 0.929 . S
H728 C758 0.931 . S
H729 C750 0.929 . S
H730 C759 0.930 . S
H731 C751 0.931 . S
O732 Co708 2.097 . S
O732 C760 1.214 . S
H733 C761 0.929 . S
H734 C762 0.929 . S
H735 C763 0.930 . S
H736 C764 0.929 . S
H737 C766 0.930 . S
H738 C743 0.930 . S
H739 C747 0.930 . S
O740 Co709 2.037 . S
O740 C760 1.234 . S
C741 O715 1.269 . S
C741 O716 1.257 . S
C742 H717 0.930 . S
C742 C745 1.388 . S
C742 C747 1.418 . S
C743 H738 0.930 . S
C743 C746 1.404 . S
C743 C747 1.353 . S
N744 Co709 2.145 . S
N744 C745 1.397 . S
N744 C746 1.334 . S
C745 H726 0.929 . S
C745 C742 1.388 . S
C745 N744 1.397 . S
C746 H727 0.929 . S
C746 C743 1.404 . S
C746 N744 1.334 . S
C747 H739 0.930 . S
C747 C742 1.418 . S
C747 C743 1.353 . S
C748 H718 0.930 . S
C748 N749 1.330 . S
C748 C750 1.446 . S
N749 Co708 2.151 . S
N749 C748 1.330 . S
N749 C753 1.418 . S
C750 H729 0.929 . S
C750 C748 1.446 . S
C750 C751 1.332 . S
C751 H731 0.931 . S
C751 C750 1.332 . S
C751 C752 1.267 . S
C752 H720 0.929 . S
C752 C751 1.267 . S
C752 C753 1.251 . S
C753 H723 0.929 . S
C753 N749 1.418 . S
C753 C752 1.251 . S
C754 H721 0.930 . S
C754 C756 1.406 . S
C754 C759 1.261 . S
C755 H722 0.930 . S
C755 N757 1.325 . S
C755 C758 1.357 . S
C756 H724 0.928 . S
C756 C754 1.406 . S
C756 N757 1.261 . S
N757 Co708 2.214 . S
N757 C755 1.325 . S
N757 C756 1.261 . S
C758 H728 0.931 . S
C758 C755 1.357 . S
C758 C759 1.312 . S
C759 H730 0.930 . S
C759 C754 1.261 . S
C759 C758 1.312 . S
C760 O732 1.214 . S
C760 O740 1.234 . S
C761 H733 0.929 . S
C761 C764 1.391 . S
C761 C766 1.391 . S
C762 H734 0.929 . S
C762 C763 1.390 . S
C762 N765 1.391 . S
C763 H735 0.930 . S
C763 C762 1.390 . S
C763 C764 1.392 . S
C764 H736 0.929 . S
C764 C761 1.391 . S
C764 C763 1.392 . S
N765 Co709 2.257 . S
N765 C762 1.391 . S
N765 C766 1.388 . S
C766 H737 0.930 . S
C766 C761 1.391 . S
C766 N765 1.388 . S
Co767 O769 2.143 . S
Co767 O775 2.074 . S
Co767 O778 2.093 . S
Co767 O791 2.097 . S
Co767 N808 2.151 . S
Co767 N816 2.214 . S
Co768 O769 2.160 . S
Co768 O774 2.058 . S
Co768 O784 2.057 . S
Co768 O799 2.037 . S
Co768 N803 2.145 . S
Co768 N824 2.257 . S
O769 Co767 2.143 . S
O769 Co768 2.160 . S
C770 O771 1.278 . S
C770 O778 1.224 . S
O771 C770 1.278 . S
C772 O773 1.245 . S
C772 O784 1.232 . S
O773 C772 1.245 . S
O774 Co768 2.058 . S
O774 C800 1.269 . S
O775 Co767 2.074 . S
O775 C800 1.257 . S
H776 C801 0.930 . S
H777 C807 0.930 . S
O778 Co767 2.093 . S
O778 C770 1.224 . S
H779 C811 0.929 . S
H780 C813 0.930 . S
H781 C814 0.930 . S
H782 C812 0.929 . S
H783 C815 0.928 . S
O784 Co768 2.057 . S
O784 C772 1.232 . S
H785 C804 0.929 . S
H786 C805 0.929 . S
H787 C817 0.931 . S
H788 C809 0.929 . S
H789 C818 0.930 . S
H790 C810 0.931 . S
O791 Co767 2.097 . S
O791 C819 1.214 . S
H792 C820 0.929 . S
H793 C821 0.929 . S
H794 C822 0.930 . S
H795 C823 0.929 . S
H796 C825 0.930 . S
H797 C802 0.930 . S
H798 C806 0.930 . S
O799 Co768 2.037 . S
O799 C819 1.234 . S
C800 O774 1.269 . S
C800 O775 1.257 . S
C801 H776 0.930 . S
C801 C804 1.388 . S
C801 C806 1.418 . S
C802 H797 0.930 . S
C802 C805 1.404 . S
C802 C806 1.353 . S
N803 Co768 2.145 . S
N803 C804 1.397 . S
N803 C805 1.334 . S
C804 H785 0.929 . S
C804 C801 1.388 . S
C804 N803 1.397 . S
C805 H786 0.929 . S
C805 C802 1.404 . S
C805 N803 1.334 . S
C806 H798 0.930 . S
C806 C801 1.418 . S
C806 C802 1.353 . S
C807 H777 0.930 . S
C807 N808 1.330 . S
C807 C809 1.446 . S
N808 Co767 2.151 . S
N808 C807 1.330 . S
N808 C812 1.418 . S
C809 H788 0.929 . S
C809 C807 1.446 . S
C809 C810 1.332 . S
C810 H790 0.931 . S
C810 C809 1.332 . S
C810 C811 1.267 . S
C811 H779 0.929 . S
C811 C810 1.267 . S
C811 C812 1.251 . S
C812 H782 0.929 . S
C812 N808 1.418 . S
C812 C811 1.251 . S
C813 H780 0.930 . S
C813 C815 1.406 . S
C813 C818 1.261 . S
C814 H781 0.930 . S
C814 N816 1.325 . S
C814 C817 1.357 . S
C815 H783 0.928 . S
C815 C813 1.406 . S
C815 N816 1.261 . S
N816 Co767 2.214 . S
N816 C814 1.325 . S
N816 C815 1.261 . S
C817 H787 0.931 . S
C817 C814 1.357 . S
C817 C818 1.312 . S
C818 H789 0.930 . S
C818 C813 1.261 . S
C818 C817 1.312 . S
C819 O791 1.214 . S
C819 O799 1.234 . S
C820 H792 0.929 . S
C820 C823 1.391 . S
C820 C825 1.391 . S
C821 H793 0.929 . S
C821 C822 1.390 . S
C821 N824 1.391 . S
C822 H794 0.930 . S
C822 C821 1.390 . S
C822 C823 1.392 . S
C823 H795 0.929 . S
C823 C820 1.391 . S
C823 C822 1.392 . S
N824 Co768 2.257 . S
N824 C821 1.391 . S
N824 C825 1.388 . S
C825 H796 0.930 . S
C825 C820 1.391 . S
C825 N824 1.388 . S
Co826 O828 2.143 . S
Co826 O834 2.074 . S
Co826 O837 2.093 . S
Co826 O850 2.097 . S
Co826 N867 2.151 . S
Co826 N875 2.214 . S
Co827 O828 2.160 . S
Co827 O833 2.058 . S
Co827 O843 2.057 . S
Co827 O858 2.037 . S
Co827 N862 2.145 . S
Co827 N883 2.257 . S
O828 Co826 2.143 . S
O828 Co827 2.160 . S
C829 O830 1.278 . S
C829 O837 1.224 . S
O830 C829 1.278 . S
C831 O832 1.245 . S
C831 O843 1.232 . S
O832 C831 1.245 . S
O833 Co827 2.058 . S
O833 C859 1.269 . S
O834 Co826 2.074 . S
O834 C859 1.257 . S
H835 C860 0.930 . S
H836 C866 0.930 . S
O837 Co826 2.093 . S
O837 C829 1.224 . S
H838 C870 0.929 . S
H839 C872 0.930 . S
H840 C873 0.930 . S
H841 C871 0.929 . S
H842 C874 0.928 . S
O843 Co827 2.057 . S
O843 C831 1.232 . S
H844 C863 0.929 . S
H845 C864 0.929 . S
H846 C876 0.931 . S
H847 C868 0.929 . S
H848 C877 0.930 . S
H849 C869 0.931 . S
O850 Co826 2.097 . S
O850 C878 1.214 . S
H851 C879 0.929 . S
H852 C880 0.929 . S
H853 C881 0.930 . S
H854 C882 0.929 . S
H855 C884 0.930 . S
H856 C861 0.930 . S
H857 C865 0.930 . S
O858 Co827 2.037 . S
O858 C878 1.234 . S
C859 O833 1.269 . S
C859 O834 1.257 . S
C860 H835 0.930 . S
C860 C863 1.388 . S
C860 C865 1.418 . S
C861 H856 0.930 . S
C861 C864 1.404 . S
C861 C865 1.353 . S
N862 Co827 2.145 . S
N862 C863 1.397 . S
N862 C864 1.334 . S
C863 H844 0.929 . S
C863 C860 1.388 . S
C863 N862 1.397 . S
C864 H845 0.929 . S
C864 C861 1.404 . S
C864 N862 1.334 . S
C865 H857 0.930 . S
C865 C860 1.418 . S
C865 C861 1.353 . S
C866 H836 0.930 . S
C866 N867 1.330 . S
C866 C868 1.446 . S
N867 Co826 2.151 . S
N867 C866 1.330 . S
N867 C871 1.418 . S
C868 H847 0.929 . S
C868 C866 1.446 . S
C868 C869 1.332 . S
C869 H849 0.931 . S
C869 C868 1.332 . S
C869 C870 1.267 . S
C870 H838 0.929 . S
C870 C869 1.267 . S
C870 C871 1.251 . S
C871 H841 0.929 . S
C871 N867 1.418 . S
C871 C870 1.251 . S
C872 H839 0.930 . S
C872 C874 1.406 . S
C872 C877 1.261 . S
C873 H840 0.930 . S
C873 N875 1.325 . S
C873 C876 1.357 . S
C874 H842 0.928 . S
C874 C872 1.406 . S
C874 N875 1.261 . S
N875 Co826 2.214 . S
N875 C873 1.325 . S
N875 C874 1.261 . S
C876 H846 0.931 . S
C876 C873 1.357 . S
C876 C877 1.312 . S
C877 H848 0.930 . S
C877 C872 1.261 . S
C877 C876 1.312 . S
C878 O850 1.214 . S
C878 O858 1.234 . S
C879 H851 0.929 . S
C879 C882 1.391 . S
C879 C884 1.391 . S
C880 H852 0.929 . S
C880 C881 1.390 . S
C880 N883 1.391 . S
C881 H853 0.930 . S
C881 C880 1.390 . S
C881 C882 1.392 . S
C882 H854 0.929 . S
C882 C879 1.391 . S
C882 C881 1.392 . S
N883 Co827 2.257 . S
N883 C880 1.391 . S
N883 C884 1.388 . S
C884 H855 0.930 . S
C884 C879 1.391 . S
C884 N883 1.388 . S
Co885 O887 2.143 . S
Co885 O893 2.074 . S
Co885 O896 2.093 . S
Co885 O909 2.097 . S
Co885 N926 2.151 . S
Co885 N934 2.214 . S
Co886 O887 2.160 . S
Co886 O892 2.058 . S
Co886 O902 2.057 . S
Co886 O917 2.037 . S
Co886 N921 2.145 . S
Co886 N942 2.257 . S
O887 Co885 2.143 . S
O887 Co886 2.160 . S
C888 O889 1.278 . S
C888 O896 1.224 . S
O889 C888 1.278 . S
C890 O891 1.245 . S
C890 O902 1.232 . S
O891 C890 1.245 . S
O892 Co886 2.058 . S
O892 C918 1.269 . S
O893 Co885 2.074 . S
O893 C918 1.257 . S
H894 C919 0.930 . S
H895 C925 0.930 . S
O896 Co885 2.093 . S
O896 C888 1.224 . S
H897 C929 0.929 . S
H898 C931 0.930 . S
H899 C932 0.930 . S
H900 C930 0.929 . S
H901 C933 0.928 . S
O902 Co886 2.057 . S
O902 C890 1.232 . S
H903 C922 0.929 . S
H904 C923 0.929 . S
H905 C935 0.931 . S
H906 C927 0.929 . S
H907 C936 0.930 . S
H908 C928 0.931 . S
O909 Co885 2.097 . S
O909 C937 1.214 . S
H910 C938 0.929 . S
H911 C939 0.929 . S
H912 C940 0.930 . S
H913 C941 0.929 . S
H914 C943 0.930 . S
H915 C920 0.930 . S
H916 C924 0.930 . S
O917 Co886 2.037 . S
O917 C937 1.234 . S
C918 O892 1.269 . S
C918 O893 1.257 . S
C919 H894 0.930 . S
C919 C922 1.388 . S
C919 C924 1.418 . S
C920 H915 0.930 . S
C920 C923 1.404 . S
C920 C924 1.353 . S
N921 Co886 2.145 . S
N921 C922 1.397 . S
N921 C923 1.334 . S
C922 H903 0.929 . S
C922 C919 1.388 . S
C922 N921 1.397 . S
C923 H904 0.929 . S
C923 C920 1.404 . S
C923 N921 1.334 . S
C924 H916 0.930 . S
C924 C919 1.418 . S
C924 C920 1.353 . S
C925 H895 0.930 . S
C925 N926 1.330 . S
C925 C927 1.446 . S
N926 Co885 2.151 . S
N926 C925 1.330 . S
N926 C930 1.418 . S
C927 H906 0.929 . S
C927 C925 1.446 . S
C927 C928 1.332 . S
C928 H908 0.931 . S
C928 C927 1.332 . S
C928 C929 1.267 . S
C929 H897 0.929 . S
C929 C928 1.267 . S
C929 C930 1.251 . S
C930 H900 0.929 . S
C930 N926 1.418 . S
C930 C929 1.251 . S
C931 H898 0.930 . S
C931 C933 1.406 . S
C931 C936 1.261 . S
C932 H899 0.930 . S
C932 N934 1.325 . S
C932 C935 1.357 . S
C933 H901 0.928 . S
C933 C931 1.406 . S
C933 N934 1.261 . S
N934 Co885 2.214 . S
N934 C932 1.325 . S
N934 C933 1.261 . S
C935 H905 0.931 . S
C935 C932 1.357 . S
C935 C936 1.312 . S
C936 H907 0.930 . S
C936 C931 1.261 . S
C936 C935 1.312 . S
C937 O909 1.214 . S
C937 O917 1.234 . S
C938 H910 0.929 . S
C938 C941 1.391 . S
C938 C943 1.391 . S
C939 H911 0.929 . S
C939 C940 1.390 . S
C939 N942 1.391 . S
C940 H912 0.930 . S
C940 C939 1.390 . S
C940 C941 1.392 . S
C941 H913 0.929 . S
C941 C938 1.391 . S
C941 C940 1.392 . S
N942 Co886 2.257 . S
N942 C939 1.391 . S
N942 C943 1.388 . S
C943 H914 0.930 . S
C943 C938 1.391 . S
C943 N942 1.388 . S
Co944 O946 2.143 . S
Co944 O952 2.074 . S
Co944 O955 2.093 . S
Co944 O968 2.097 . S
Co944 N985 2.151 . S
Co944 N993 2.214 . S
Co945 O946 2.160 . S
Co945 O951 2.058 . S
Co945 O961 2.057 . S
Co945 O976 2.037 . S
Co945 N980 2.145 . S
Co945 N1001 2.257 . S
O946 Co944 2.143 . S
O946 Co945 2.160 . S
C947 O948 1.278 . S
C947 O955 1.224 . S
O948 C947 1.278 . S
C949 O950 1.245 . S
C949 O961 1.232 . S
O950 C949 1.245 . S
O951 Co945 2.058 . S
O951 C977 1.269 . S
O952 Co944 2.074 . S
O952 C977 1.257 . S
H953 C978 0.930 . S
H954 C984 0.930 . S
O955 Co944 2.093 . S
O955 C947 1.224 . S
H956 C988 0.929 . S
H957 C990 0.930 . S
H958 C991 0.930 . S
H959 C989 0.929 . S
H960 C992 0.928 . S
O961 Co945 2.057 . S
O961 C949 1.232 . S
H962 C981 0.929 . S
H963 C982 0.929 . S
H964 C994 0.931 . S
H965 C986 0.929 . S
H966 C995 0.930 . S
H967 C987 0.931 . S
O968 Co944 2.097 . S
O968 C996 1.214 . S
H969 C997 0.929 . S
H970 C998 0.929 . S
H971 C999 0.930 . S
H972 C1000 0.929 . S
H973 C1002 0.930 . S
H974 C979 0.930 . S
H975 C983 0.930 . S
O976 Co945 2.037 . S
O976 C996 1.234 . S
C977 O951 1.269 . S
C977 O952 1.257 . S
C978 H953 0.930 . S
C978 C981 1.388 . S
C978 C983 1.418 . S
C979 H974 0.930 . S
C979 C982 1.404 . S
C979 C983 1.353 . S
N980 Co945 2.145 . S
N980 C981 1.397 . S
N980 C982 1.334 . S
C981 H962 0.929 . S
C981 C978 1.388 . S
C981 N980 1.397 . S
C982 H963 0.929 . S
C982 C979 1.404 . S
C982 N980 1.334 . S
C983 H975 0.930 . S
C983 C978 1.418 . S
C983 C979 1.353 . S
C984 H954 0.930 . S
C984 N985 1.330 . S
C984 C986 1.446 . S
N985 Co944 2.151 . S
N985 C984 1.330 . S
N985 C989 1.418 . S
C986 H965 0.929 . S
C986 C984 1.446 . S
C986 C987 1.332 . S
C987 H967 0.931 . S
C987 C986 1.332 . S
C987 C988 1.267 . S
C988 H956 0.929 . S
C988 C987 1.267 . S
C988 C989 1.251 . S
C989 H959 0.929 . S
C989 N985 1.418 . S
C989 C988 1.251 . S
C990 H957 0.930 . S
C990 C992 1.406 . S
C990 C995 1.261 . S
C991 H958 0.930 . S
C991 N993 1.325 . S
C991 C994 1.357 . S
C992 H960 0.928 . S
C992 C990 1.406 . S
C992 N993 1.261 . S
N993 Co944 2.214 . S
N993 C991 1.325 . S
N993 C992 1.261 . S
C994 H964 0.931 . S
C994 C991 1.357 . S
C994 C995 1.312 . S
C995 H966 0.930 . S
C995 C990 1.261 . S
C995 C994 1.312 . S
C996 O968 1.214 . S
C996 O976 1.234 . S
C997 H969 0.929 . S
C997 C1000 1.391 . S
C997 C1002 1.391 . S
C998 H970 0.929 . S
C998 C999 1.390 . S
C998 N1001 1.391 . S
C999 H971 0.930 . S
C999 C998 1.390 . S
C999 C1000 1.392 . S
C1000 H972 0.929 . S
C1000 C997 1.391 . S
C1000 C999 1.392 . S
N1001 Co945 2.257 . S
N1001 C998 1.391 . S
N1001 C1002 1.388 . S
C1002 H973 0.930 . S
C1002 C997 1.391 . S
C1002 N1001 1.388 . S
Co1003 O1005 2.143 . S
Co1003 O1011 2.074 . S
Co1003 O1014 2.093 . S
Co1003 O1027 2.097 . S
Co1003 N1044 2.151 . S
Co1003 N1052 2.214 . S
Co1004 O1005 2.160 . S
Co1004 O1010 2.058 . S
Co1004 O1020 2.057 . S
Co1004 O1035 2.037 . S
Co1004 N1039 2.145 . S
Co1004 N1060 2.257 . S
O1005 Co1003 2.143 . S
O1005 Co1004 2.160 . S
C1006 O1007 1.278 . S
C1006 O1014 1.224 . S
O1007 C1006 1.278 . S
C1008 O1009 1.245 . S
C1008 O1020 1.232 . S
O1009 C1008 1.245 . S
O1010 Co1004 2.058 . S
O1010 C1036 1.269 . S
O1011 Co1003 2.074 . S
O1011 C1036 1.257 . S
H1012 C1037 0.930 . S
H1013 C1043 0.930 . S
O1014 Co1003 2.093 . S
O1014 C1006 1.224 . S
H1015 C1047 0.929 . S
H1016 C1049 0.930 . S
H1017 C1050 0.930 . S
H1018 C1048 0.929 . S
H1019 C1051 0.928 . S
O1020 Co1004 2.057 . S
O1020 C1008 1.232 . S
H1021 C1040 0.929 . S
H1022 C1041 0.929 . S
H1023 C1053 0.931 . S
H1024 C1045 0.929 . S
H1025 C1054 0.930 . S
H1026 C1046 0.931 . S
O1027 Co1003 2.097 . S
O1027 C1055 1.214 . S
H1028 C1056 0.929 . S
H1029 C1057 0.929 . S
H1030 C1058 0.930 . S
H1031 C1059 0.929 . S
H1032 C1061 0.930 . S
H1033 C1038 0.930 . S
H1034 C1042 0.930 . S
O1035 Co1004 2.037 . S
O1035 C1055 1.234 . S
C1036 O1010 1.269 . S
C1036 O1011 1.257 . S
C1037 H1012 0.930 . S
C1037 C1040 1.388 . S
C1037 C1042 1.418 . S
C1038 H1033 0.930 . S
C1038 C1041 1.404 . S
C1038 C1042 1.353 . S
N1039 Co1004 2.145 . S
N1039 C1040 1.397 . S
N1039 C1041 1.334 . S
C1040 H1021 0.929 . S
C1040 C1037 1.388 . S
C1040 N1039 1.397 . S
C1041 H1022 0.929 . S
C1041 C1038 1.404 . S
C1041 N1039 1.334 . S
C1042 H1034 0.930 . S
C1042 C1037 1.418 . S
C1042 C1038 1.353 . S
C1043 H1013 0.930 . S
C1043 N1044 1.330 . S
C1043 C1045 1.446 . S
N1044 Co1003 2.151 . S
N1044 C1043 1.330 . S
N1044 C1048 1.418 . S
C1045 H1024 0.929 . S
C1045 C1043 1.446 . S
C1045 C1046 1.332 . S
C1046 H1026 0.931 . S
C1046 C1045 1.332 . S
C1046 C1047 1.267 . S
C1047 H1015 0.929 . S
C1047 C1046 1.267 . S
C1047 C1048 1.251 . S
C1048 H1018 0.929 . S
C1048 N1044 1.418 . S
C1048 C1047 1.251 . S
C1049 H1016 0.930 . S
C1049 C1051 1.406 . S
C1049 C1054 1.261 . S
C1050 H1017 0.930 . S
C1050 N1052 1.325 . S
C1050 C1053 1.357 . S
C1051 H1019 0.928 . S
C1051 C1049 1.406 . S
C1051 N1052 1.261 . S
N1052 Co1003 2.214 . S
N1052 C1050 1.325 . S
N1052 C1051 1.261 . S
C1053 H1023 0.931 . S
C1053 C1050 1.357 . S
C1053 C1054 1.312 . S
C1054 H1025 0.930 . S
C1054 C1049 1.261 . S
C1054 C1053 1.312 . S
C1055 O1027 1.214 . S
C1055 O1035 1.234 . S
C1056 H1028 0.929 . S
C1056 C1059 1.391 . S
C1056 C1061 1.391 . S
C1057 H1029 0.929 . S
C1057 C1058 1.390 . S
C1057 N1060 1.391 . S
C1058 H1030 0.930 . S
C1058 C1057 1.390 . S
C1058 C1059 1.392 . S
C1059 H1031 0.929 . S
C1059 C1056 1.391 . S
C1059 C1058 1.392 . S
N1060 Co1004 2.257 . S
N1060 C1057 1.391 . S
N1060 C1061 1.388 . S
C1061 H1032 0.930 . S
C1061 C1056 1.391 . S
C1061 N1060 1.388 . S
Co1062 O1064 2.143 . S
Co1062 O1070 2.074 . S
Co1062 O1073 2.093 . S
Co1062 O1086 2.097 . S
Co1062 N1103 2.151 . S
Co1062 N1111 2.214 . S
Co1063 O1064 2.160 . S
Co1063 O1069 2.058 . S
Co1063 O1079 2.057 . S
Co1063 O1094 2.037 . S
Co1063 N1098 2.145 . S
Co1063 N1119 2.257 . S
O1064 Co1062 2.143 . S
O1064 Co1063 2.160 . S
C1065 O1066 1.278 . S
C1065 O1073 1.224 . S
O1066 C1065 1.278 . S
C1067 O1068 1.245 . S
C1067 O1079 1.232 . S
O1068 C1067 1.245 . S
O1069 Co1063 2.058 . S
O1069 C1095 1.269 . S
O1070 Co1062 2.074 . S
O1070 C1095 1.257 . S
H1071 C1096 0.930 . S
H1072 C1102 0.930 . S
O1073 Co1062 2.093 . S
O1073 C1065 1.224 . S
H1074 C1106 0.929 . S
H1075 C1108 0.930 . S
H1076 C1109 0.930 . S
H1077 C1107 0.929 . S
H1078 C1110 0.928 . S
O1079 Co1063 2.057 . S
O1079 C1067 1.232 . S
H1080 C1099 0.929 . S
H1081 C1100 0.929 . S
H1082 C1112 0.931 . S
H1083 C1104 0.929 . S
H1084 C1113 0.930 . S
H1085 C1105 0.931 . S
O1086 Co1062 2.097 . S
O1086 C1114 1.214 . S
H1087 C1115 0.929 . S
H1088 C1116 0.929 . S
H1089 C1117 0.930 . S
H1090 C1118 0.929 . S
H1091 C1120 0.930 . S
H1092 C1097 0.930 . S
H1093 C1101 0.930 . S
O1094 Co1063 2.037 . S
O1094 C1114 1.234 . S
C1095 O1069 1.269 . S
C1095 O1070 1.257 . S
C1096 H1071 0.930 . S
C1096 C1099 1.388 . S
C1096 C1101 1.418 . S
C1097 H1092 0.930 . S
C1097 C1100 1.404 . S
C1097 C1101 1.353 . S
N1098 Co1063 2.145 . S
N1098 C1099 1.397 . S
N1098 C1100 1.334 . S
C1099 H1080 0.929 . S
C1099 C1096 1.388 . S
C1099 N1098 1.397 . S
C1100 H1081 0.929 . S
C1100 C1097 1.404 . S
C1100 N1098 1.334 . S
C1101 H1093 0.930 . S
C1101 C1096 1.418 . S
C1101 C1097 1.353 . S
C1102 H1072 0.930 . S
C1102 N1103 1.330 . S
C1102 C1104 1.446 . S
N1103 Co1062 2.151 . S
N1103 C1102 1.330 . S
N1103 C1107 1.418 . S
C1104 H1083 0.929 . S
C1104 C1102 1.446 . S
C1104 C1105 1.332 . S
C1105 H1085 0.931 . S
C1105 C1104 1.332 . S
C1105 C1106 1.267 . S
C1106 H1074 0.929 . S
C1106 C1105 1.267 . S
C1106 C1107 1.251 . S
C1107 H1077 0.929 . S
C1107 N1103 1.418 . S
C1107 C1106 1.251 . S
C1108 H1075 0.930 . S
C1108 C1110 1.406 . S
C1108 C1113 1.261 . S
C1109 H1076 0.930 . S
C1109 N1111 1.325 . S
C1109 C1112 1.357 . S
C1110 H1078 0.928 . S
C1110 C1108 1.406 . S
C1110 N1111 1.261 . S
N1111 Co1062 2.214 . S
N1111 C1109 1.325 . S
N1111 C1110 1.261 . S
C1112 H1082 0.931 . S
C1112 C1109 1.357 . S
C1112 C1113 1.312 . S
C1113 H1084 0.930 . S
C1113 C1108 1.261 . S
C1113 C1112 1.312 . S
C1114 O1086 1.214 . S
C1114 O1094 1.234 . S
C1115 H1087 0.929 . S
C1115 C1118 1.391 . S
C1115 C1120 1.391 . S
C1116 H1088 0.929 . S
C1116 C1117 1.390 . S
C1116 N1119 1.391 . S
C1117 H1089 0.930 . S
C1117 C1116 1.390 . S
C1117 C1118 1.392 . S
C1118 H1090 0.929 . S
C1118 C1115 1.391 . S
C1118 C1117 1.392 . S
N1119 Co1063 2.257 . S
N1119 C1116 1.391 . S
N1119 C1120 1.388 . S
C1120 H1091 0.930 . S
C1120 C1115 1.391 . S
C1120 N1119 1.388 . S
Co1121 O1123 2.143 . S
Co1121 O1129 2.074 . S
Co1121 O1132 2.093 . S
Co1121 O1145 2.097 . S
Co1121 N1162 2.151 . S
Co1121 N1170 2.214 . S
Co1122 O1123 2.160 . S
Co1122 O1128 2.058 . S
Co1122 O1138 2.057 . S
Co1122 O1153 2.037 . S
Co1122 N1157 2.145 . S
Co1122 N1178 2.257 . S
O1123 Co1121 2.143 . S
O1123 Co1122 2.160 . S
C1124 O1125 1.278 . S
C1124 O1132 1.224 . S
O1125 C1124 1.278 . S
C1126 O1127 1.245 . S
C1126 O1138 1.232 . S
O1127 C1126 1.245 . S
O1128 Co1122 2.058 . S
O1128 C1154 1.269 . S
O1129 Co1121 2.074 . S
O1129 C1154 1.257 . S
H1130 C1155 0.930 . S
H1131 C1161 0.930 . S
O1132 Co1121 2.093 . S
O1132 C1124 1.224 . S
H1133 C1165 0.929 . S
H1134 C1167 0.930 . S
H1135 C1168 0.930 . S
H1136 C1166 0.929 . S
H1137 C1169 0.928 . S
O1138 Co1122 2.057 . S
O1138 C1126 1.232 . S
H1139 C1158 0.929 . S
H1140 C1159 0.929 . S
H1141 C1171 0.931 . S
H1142 C1163 0.929 . S
H1143 C1172 0.930 . S
H1144 C1164 0.931 . S
O1145 Co1121 2.097 . S
O1145 C1173 1.214 . S
H1146 C1174 0.929 . S
H1147 C1175 0.929 . S
H1148 C1176 0.930 . S
H1149 C1177 0.929 . S
H1150 C1179 0.930 . S
H1151 C1156 0.930 . S
H1152 C1160 0.930 . S
O1153 Co1122 2.037 . S
O1153 C1173 1.234 . S
C1154 O1128 1.269 . S
C1154 O1129 1.257 . S
C1155 H1130 0.930 . S
C1155 C1158 1.388 . S
C1155 C1160 1.418 . S
C1156 H1151 0.930 . S
C1156 C1159 1.404 . S
C1156 C1160 1.353 . S
N1157 Co1122 2.145 . S
N1157 C1158 1.397 . S
N1157 C1159 1.334 . S
C1158 H1139 0.929 . S
C1158 C1155 1.388 . S
C1158 N1157 1.397 . S
C1159 H1140 0.929 . S
C1159 C1156 1.404 . S
C1159 N1157 1.334 . S
C1160 H1152 0.930 . S
C1160 C1155 1.418 . S
C1160 C1156 1.353 . S
C1161 H1131 0.930 . S
C1161 N1162 1.330 . S
C1161 C1163 1.446 . S
N1162 Co1121 2.151 . S
N1162 C1161 1.330 . S
N1162 C1166 1.418 . S
C1163 H1142 0.929 . S
C1163 C1161 1.446 . S
C1163 C1164 1.332 . S
C1164 H1144 0.931 . S
C1164 C1163 1.332 . S
C1164 C1165 1.267 . S
C1165 H1133 0.929 . S
C1165 C1164 1.267 . S
C1165 C1166 1.251 . S
C1166 H1136 0.929 . S
C1166 N1162 1.418 . S
C1166 C1165 1.251 . S
C1167 H1134 0.930 . S
C1167 C1169 1.406 . S
C1167 C1172 1.261 . S
C1168 H1135 0.930 . S
C1168 N1170 1.325 . S
C1168 C1171 1.357 . S
C1169 H1137 0.928 . S
C1169 C1167 1.406 . S
C1169 N1170 1.261 . S
N1170 Co1121 2.214 . S
N1170 C1168 1.325 . S
N1170 C1169 1.261 . S
C1171 H1141 0.931 . S
C1171 C1168 1.357 . S
C1171 C1172 1.312 . S
C1172 H1143 0.930 . S
C1172 C1167 1.261 . S
C1172 C1171 1.312 . S
C1173 O1145 1.214 . S
C1173 O1153 1.234 . S
C1174 H1146 0.929 . S
C1174 C1177 1.391 . S
C1174 C1179 1.391 . S
C1175 H1147 0.929 . S
C1175 C1176 1.390 . S
C1175 N1178 1.391 . S
C1176 H1148 0.930 . S
C1176 C1175 1.390 . S
C1176 C1177 1.392 . S
C1177 H1149 0.929 . S
C1177 C1174 1.391 . S
C1177 C1176 1.392 . S
N1178 Co1122 2.257 . S
N1178 C1175 1.391 . S
N1178 C1179 1.388 . S
C1179 H1150 0.930 . S
C1179 C1174 1.391 . S
C1179 N1178 1.388 . S
Co1180 O1182 2.143 . S
Co1180 O1188 2.074 . S
Co1180 O1191 2.093 . S
Co1180 O1204 2.097 . S
Co1180 N1221 2.151 . S
Co1180 N1229 2.214 . S
Co1181 O1182 2.160 . S
Co1181 O1187 2.058 . S
Co1181 O1197 2.057 . S
Co1181 O1212 2.037 . S
Co1181 N1216 2.145 . S
Co1181 N1237 2.257 . S
O1182 Co1180 2.143 . S
O1182 Co1181 2.160 . S
C1183 O1184 1.278 . S
C1183 O1191 1.224 . S
O1184 C1183 1.278 . S
C1185 O1186 1.245 . S
C1185 O1197 1.232 . S
O1186 C1185 1.245 . S
O1187 Co1181 2.058 . S
O1187 C1213 1.269 . S
O1188 Co1180 2.074 . S
O1188 C1213 1.257 . S
H1189 C1214 0.930 . S
H1190 C1220 0.930 . S
O1191 Co1180 2.093 . S
O1191 C1183 1.224 . S
H1192 C1224 0.929 . S
H1193 C1226 0.930 . S
H1194 C1227 0.930 . S
H1195 C1225 0.929 . S
H1196 C1228 0.928 . S
O1197 Co1181 2.057 . S
O1197 C1185 1.232 . S
H1198 C1217 0.929 . S
H1199 C1218 0.929 . S
H1200 C1230 0.931 . S
H1201 C1222 0.929 . S
H1202 C1231 0.930 . S
H1203 C1223 0.931 . S
O1204 Co1180 2.097 . S
O1204 C1232 1.214 . S
H1205 C1233 0.929 . S
H1206 C1234 0.929 . S
H1207 C1235 0.930 . S
H1208 C1236 0.929 . S
H1209 C1238 0.930 . S
H1210 C1215 0.930 . S
H1211 C1219 0.930 . S
O1212 Co1181 2.037 . S
O1212 C1232 1.234 . S
C1213 O1187 1.269 . S
C1213 O1188 1.257 . S
C1214 H1189 0.930 . S
C1214 C1217 1.388 . S
C1214 C1219 1.418 . S
C1215 H1210 0.930 . S
C1215 C1218 1.404 . S
C1215 C1219 1.353 . S
N1216 Co1181 2.145 . S
N1216 C1217 1.397 . S
N1216 C1218 1.334 . S
C1217 H1198 0.929 . S
C1217 C1214 1.388 . S
C1217 N1216 1.397 . S
C1218 H1199 0.929 . S
C1218 C1215 1.404 . S
C1218 N1216 1.334 . S
C1219 H1211 0.930 . S
C1219 C1214 1.418 . S
C1219 C1215 1.353 . S
C1220 H1190 0.930 . S
C1220 N1221 1.330 . S
C1220 C1222 1.446 . S
N1221 Co1180 2.151 . S
N1221 C1220 1.330 . S
N1221 C1225 1.418 . S
C1222 H1201 0.929 . S
C1222 C1220 1.446 . S
C1222 C1223 1.332 . S
C1223 H1203 0.931 . S
C1223 C1222 1.332 . S
C1223 C1224 1.267 . S
C1224 H1192 0.929 . S
C1224 C1223 1.267 . S
C1224 C1225 1.251 . S
C1225 H1195 0.929 . S
C1225 N1221 1.418 . S
C1225 C1224 1.251 . S
C1226 H1193 0.930 . S
C1226 C1228 1.406 . S
C1226 C1231 1.261 . S
C1227 H1194 0.930 . S
C1227 N1229 1.325 . S
C1227 C1230 1.357 . S
C1228 H1196 0.928 . S
C1228 C1226 1.406 . S
C1228 N1229 1.261 . S
N1229 Co1180 2.214 . S
N1229 C1227 1.325 . S
N1229 C1228 1.261 . S
C1230 H1200 0.931 . S
C1230 C1227 1.357 . S
C1230 C1231 1.312 . S
C1231 H1202 0.930 . S
C1231 C1226 1.261 . S
C1231 C1230 1.312 . S
C1232 O1204 1.214 . S
C1232 O1212 1.234 . S
C1233 H1205 0.929 . S
C1233 C1236 1.391 . S
C1233 C1238 1.391 . S
C1234 H1206 0.929 . S
C1234 C1235 1.390 . S
C1234 N1237 1.391 . S
C1235 H1207 0.930 . S
C1235 C1234 1.390 . S
C1235 C1236 1.392 . S
C1236 H1208 0.929 . S
C1236 C1233 1.391 . S
C1236 C1235 1.392 . S
N1237 Co1181 2.257 . S
N1237 C1234 1.391 . S
N1237 C1238 1.388 . S
C1238 H1209 0.930 . S
C1238 C1233 1.391 . S
C1238 N1237 1.388 . S
Co1239 O1241 2.143 . S
Co1239 O1247 2.074 . S
Co1239 O1250 2.093 . S
Co1239 O1263 2.097 . S
Co1239 N1280 2.151 . S
Co1239 N1288 2.214 . S
Co1240 O1241 2.160 . S
Co1240 O1246 2.058 . S
Co1240 O1256 2.057 . S
Co1240 O1271 2.037 . S
Co1240 N1275 2.145 . S
Co1240 N1296 2.257 . S
O1241 Co1239 2.143 . S
O1241 Co1240 2.160 . S
C1242 O1243 1.278 . S
C1242 O1250 1.224 . S
O1243 C1242 1.278 . S
C1244 O1245 1.245 . S
C1244 O1256 1.232 . S
O1245 C1244 1.245 . S
O1246 Co1240 2.058 . S
O1246 C1272 1.269 . S
O1247 Co1239 2.074 . S
O1247 C1272 1.257 . S
H1248 C1273 0.930 . S
H1249 C1279 0.930 . S
O1250 Co1239 2.093 . S
O1250 C1242 1.224 . S
H1251 C1283 0.929 . S
H1252 C1285 0.930 . S
H1253 C1286 0.930 . S
H1254 C1284 0.929 . S
H1255 C1287 0.928 . S
O1256 Co1240 2.057 . S
O1256 C1244 1.232 . S
H1257 C1276 0.929 . S
H1258 C1277 0.929 . S
H1259 C1289 0.931 . S
H1260 C1281 0.929 . S
H1261 C1290 0.930 . S
H1262 C1282 0.931 . S
O1263 Co1239 2.097 . S
O1263 C1291 1.214 . S
H1264 C1292 0.929 . S
H1265 C1293 0.929 . S
H1266 C1294 0.930 . S
H1267 C1295 0.929 . S
H1268 C1297 0.930 . S
H1269 C1274 0.930 . S
H1270 C1278 0.930 . S
O1271 Co1240 2.037 . S
O1271 C1291 1.234 . S
C1272 O1246 1.269 . S
C1272 O1247 1.257 . S
C1273 H1248 0.930 . S
C1273 C1276 1.388 . S
C1273 C1278 1.418 . S
C1274 H1269 0.930 . S
C1274 C1277 1.404 . S
C1274 C1278 1.353 . S
N1275 Co1240 2.145 . S
N1275 C1276 1.397 . S
N1275 C1277 1.334 . S
C1276 H1257 0.929 . S
C1276 C1273 1.388 . S
C1276 N1275 1.397 . S
C1277 H1258 0.929 . S
C1277 C1274 1.404 . S
C1277 N1275 1.334 . S
C1278 H1270 0.930 . S
C1278 C1273 1.418 . S
C1278 C1274 1.353 . S
C1279 H1249 0.930 . S
C1279 N1280 1.330 . S
C1279 C1281 1.446 . S
N1280 Co1239 2.151 . S
N1280 C1279 1.330 . S
N1280 C1284 1.418 . S
C1281 H1260 0.929 . S
C1281 C1279 1.446 . S
C1281 C1282 1.332 . S
C1282 H1262 0.931 . S
C1282 C1281 1.332 . S
C1282 C1283 1.267 . S
C1283 H1251 0.929 . S
C1283 C1282 1.267 . S
C1283 C1284 1.251 . S
C1284 H1254 0.929 . S
C1284 N1280 1.418 . S
C1284 C1283 1.251 . S
C1285 H1252 0.930 . S
C1285 C1287 1.406 . S
C1285 C1290 1.261 . S
C1286 H1253 0.930 . S
C1286 N1288 1.325 . S
C1286 C1289 1.357 . S
C1287 H1255 0.928 . S
C1287 C1285 1.406 . S
C1287 N1288 1.261 . S
N1288 Co1239 2.214 . S
N1288 C1286 1.325 . S
N1288 C1287 1.261 . S
C1289 H1259 0.931 . S
C1289 C1286 1.357 . S
C1289 C1290 1.312 . S
C1290 H1261 0.930 . S
C1290 C1285 1.261 . S
C1290 C1289 1.312 . S
C1291 O1263 1.214 . S
C1291 O1271 1.234 . S
C1292 H1264 0.929 . S
C1292 C1295 1.391 . S
C1292 C1297 1.391 . S
C1293 H1265 0.929 . S
C1293 C1294 1.390 . S
C1293 N1296 1.391 . S
C1294 H1266 0.930 . S
C1294 C1293 1.390 . S
C1294 C1295 1.392 . S
C1295 H1267 0.929 . S
C1295 C1292 1.391 . S
C1295 C1294 1.392 . S
N1296 Co1240 2.257 . S
N1296 C1293 1.391 . S
N1296 C1297 1.388 . S
C1297 H1268 0.930 . S
C1297 C1292 1.391 . S
C1297 N1296 1.388 . S
Co1298 O1300 2.143 . S
Co1298 O1306 2.074 . S
Co1298 O1309 2.093 . S
Co1298 O1322 2.097 . S
Co1298 N1339 2.151 . S
Co1298 N1347 2.214 . S
Co1299 O1300 2.160 . S
Co1299 O1305 2.058 . S
Co1299 O1315 2.057 . S
Co1299 O1330 2.037 . S
Co1299 N1334 2.145 . S
Co1299 N1355 2.257 . S
O1300 Co1298 2.143 . S
O1300 Co1299 2.160 . S
C1301 O1302 1.278 . S
C1301 O1309 1.224 . S
O1302 C1301 1.278 . S
C1303 O1304 1.245 . S
C1303 O1315 1.232 . S
O1304 C1303 1.245 . S
O1305 Co1299 2.058 . S
O1305 C1331 1.269 . S
O1306 Co1298 2.074 . S
O1306 C1331 1.257 . S
H1307 C1332 0.930 . S
H1308 C1338 0.930 . S
O1309 Co1298 2.093 . S
O1309 C1301 1.224 . S
H1310 C1342 0.929 . S
H1311 C1344 0.930 . S
H1312 C1345 0.930 . S
H1313 C1343 0.929 . S
H1314 C1346 0.928 . S
O1315 Co1299 2.057 . S
O1315 C1303 1.232 . S
H1316 C1335 0.929 . S
H1317 C1336 0.929 . S
H1318 C1348 0.931 . S
H1319 C1340 0.929 . S
H1320 C1349 0.930 . S
H1321 C1341 0.931 . S
O1322 Co1298 2.097 . S
O1322 C1350 1.214 . S
H1323 C1351 0.929 . S
H1324 C1352 0.929 . S
H1325 C1353 0.930 . S
H1326 C1354 0.929 . S
H1327 C1356 0.930 . S
H1328 C1333 0.930 . S
H1329 C1337 0.930 . S
O1330 Co1299 2.037 . S
O1330 C1350 1.234 . S
C1331 O1305 1.269 . S
C1331 O1306 1.257 . S
C1332 H1307 0.930 . S
C1332 C1335 1.388 . S
C1332 C1337 1.418 . S
C1333 H1328 0.930 . S
C1333 C1336 1.404 . S
C1333 C1337 1.353 . S
N1334 Co1299 2.145 . S
N1334 C1335 1.397 . S
N1334 C1336 1.334 . S
C1335 H1316 0.929 . S
C1335 C1332 1.388 . S
C1335 N1334 1.397 . S
C1336 H1317 0.929 . S
C1336 C1333 1.404 . S
C1336 N1334 1.334 . S
C1337 H1329 0.930 . S
C1337 C1332 1.418 . S
C1337 C1333 1.353 . S
C1338 H1308 0.930 . S
C1338 N1339 1.330 . S
C1338 C1340 1.446 . S
N1339 Co1298 2.151 . S
N1339 C1338 1.330 . S
N1339 C1343 1.418 . S
C1340 H1319 0.929 . S
C1340 C1338 1.446 . S
C1340 C1341 1.332 . S
C1341 H1321 0.931 . S
C1341 C1340 1.332 . S
C1341 C1342 1.267 . S
C1342 H1310 0.929 . S
C1342 C1341 1.267 . S
C1342 C1343 1.251 . S
C1343 H1313 0.929 . S
C1343 N1339 1.418 . S
C1343 C1342 1.251 . S
C1344 H1311 0.930 . S
C1344 C1346 1.406 . S
C1344 C1349 1.261 . S
C1345 H1312 0.930 . S
C1345 N1347 1.325 . S
C1345 C1348 1.357 . S
C1346 H1314 0.928 . S
C1346 C1344 1.406 . S
C1346 N1347 1.261 . S
N1347 Co1298 2.214 . S
N1347 C1345 1.325 . S
N1347 C1346 1.261 . S
C1348 H1318 0.931 . S
C1348 C1345 1.357 . S
C1348 C1349 1.312 . S
C1349 H1320 0.930 . S
C1349 C1344 1.261 . S
C1349 C1348 1.312 . S
C1350 O1322 1.214 . S
C1350 O1330 1.234 . S
C1351 H1323 0.929 . S
C1351 C1354 1.391 . S
C1351 C1356 1.391 . S
C1352 H1324 0.929 . S
C1352 C1353 1.390 . S
C1352 N1355 1.391 . S
C1353 H1325 0.930 . S
C1353 C1352 1.390 . S
C1353 C1354 1.392 . S
C1354 H1326 0.929 . S
C1354 C1351 1.391 . S
C1354 C1353 1.392 . S
N1355 Co1299 2.257 . S
N1355 C1352 1.391 . S
N1355 C1356 1.388 . S
C1356 H1327 0.930 . S
C1356 C1351 1.391 . S
C1356 N1355 1.388 . S
Co1357 O1359 2.143 . S
Co1357 O1365 2.074 . S
Co1357 O1368 2.093 . S
Co1357 O1381 2.097 . S
Co1357 N1398 2.151 . S
Co1357 N1406 2.214 . S
Co1358 O1359 2.160 . S
Co1358 O1364 2.058 . S
Co1358 O1374 2.057 . S
Co1358 O1389 2.037 . S
Co1358 N1393 2.145 . S
Co1358 N1414 2.257 . S
O1359 Co1357 2.143 . S
O1359 Co1358 2.160 . S
C1360 O1361 1.278 . S
C1360 O1368 1.224 . S
O1361 C1360 1.278 . S
C1362 O1363 1.245 . S
C1362 O1374 1.232 . S
O1363 C1362 1.245 . S
O1364 Co1358 2.058 . S
O1364 C1390 1.269 . S
O1365 Co1357 2.074 . S
O1365 C1390 1.257 . S
H1366 C1391 0.930 . S
H1367 C1397 0.930 . S
O1368 Co1357 2.093 . S
O1368 C1360 1.224 . S
H1369 C1401 0.929 . S
H1370 C1403 0.930 . S
H1371 C1404 0.930 . S
H1372 C1402 0.929 . S
H1373 C1405 0.928 . S
O1374 Co1358 2.057 . S
O1374 C1362 1.232 . S
H1375 C1394 0.929 . S
H1376 C1395 0.929 . S
H1377 C1407 0.931 . S
H1378 C1399 0.929 . S
H1379 C1408 0.930 . S
H1380 C1400 0.931 . S
O1381 Co1357 2.097 . S
O1381 C1409 1.214 . S
H1382 C1410 0.929 . S
H1383 C1411 0.929 . S
H1384 C1412 0.930 . S
H1385 C1413 0.929 . S
H1386 C1415 0.930 . S
H1387 C1392 0.930 . S
H1388 C1396 0.930 . S
O1389 Co1358 2.037 . S
O1389 C1409 1.234 . S
C1390 O1364 1.269 . S
C1390 O1365 1.257 . S
C1391 H1366 0.930 . S
C1391 C1394 1.388 . S
C1391 C1396 1.418 . S
C1392 H1387 0.930 . S
C1392 C1395 1.404 . S
C1392 C1396 1.353 . S
N1393 Co1358 2.145 . S
N1393 C1394 1.397 . S
N1393 C1395 1.334 . S
C1394 H1375 0.929 . S
C1394 C1391 1.388 . S
C1394 N1393 1.397 . S
C1395 H1376 0.929 . S
C1395 C1392 1.404 . S
C1395 N1393 1.334 . S
C1396 H1388 0.930 . S
C1396 C1391 1.418 . S
C1396 C1392 1.353 . S
C1397 H1367 0.930 . S
C1397 N1398 1.330 . S
C1397 C1399 1.446 . S
N1398 Co1357 2.151 . S
N1398 C1397 1.330 . S
N1398 C1402 1.418 . S
C1399 H1378 0.929 . S
C1399 C1397 1.446 . S
C1399 C1400 1.332 . S
C1400 H1380 0.931 . S
C1400 C1399 1.332 . S
C1400 C1401 1.267 . S
C1401 H1369 0.929 . S
C1401 C1400 1.267 . S
C1401 C1402 1.251 . S
C1402 H1372 0.929 . S
C1402 N1398 1.418 . S
C1402 C1401 1.251 . S
C1403 H1370 0.930 . S
C1403 C1405 1.406 . S
C1403 C1408 1.261 . S
C1404 H1371 0.930 . S
C1404 N1406 1.325 . S
C1404 C1407 1.357 . S
C1405 H1373 0.928 . S
C1405 C1403 1.406 . S
C1405 N1406 1.261 . S
N1406 Co1357 2.214 . S
N1406 C1404 1.325 . S
N1406 C1405 1.261 . S
C1407 H1377 0.931 . S
C1407 C1404 1.357 . S
C1407 C1408 1.312 . S
C1408 H1379 0.930 . S
C1408 C1403 1.261 . S
C1408 C1407 1.312 . S
C1409 O1381 1.214 . S
C1409 O1389 1.234 . S
C1410 H1382 0.929 . S
C1410 C1413 1.391 . S
C1410 C1415 1.391 . S
C1411 H1383 0.929 . S
C1411 C1412 1.390 . S
C1411 N1414 1.391 . S
C1412 H1384 0.930 . S
C1412 C1411 1.390 . S
C1412 C1413 1.392 . S
C1413 H1385 0.929 . S
C1413 C1410 1.391 . S
C1413 C1412 1.392 . S
N1414 Co1358 2.257 . S
N1414 C1411 1.391 . S
N1414 C1415 1.388 . S
C1415 H1386 0.930 . S
C1415 C1410 1.391 . S
C1415 N1414 1.388 . S
C1416 C1417 1.387 . S
C1416 H1420 0.950 . S
C1416 C1425 1.390 . S
C1417 C1416 1.387 . S
C1417 C1419 1.387 . S
H1418 C1425 0.950 . S
C1419 C1417 1.387 . S
C1419 C1421 1.390 . S
C1419 H1423 0.950 . S
H1420 C1416 0.950 . S
C1421 C1419 1.390 . S
C1421 C1422 1.387 . S
C1421 H1424 0.950 . S
C1422 C1421 1.387 . S
C1422 C1425 1.387 . S
H1423 C1419 0.950 . S
H1424 C1421 0.950 . S
C1425 C1416 1.390 . S
C1425 H1418 0.950 . S
C1425 C1422 1.387 . S
C1426 C1427 1.387 . S
C1426 H1430 0.950 . S
C1426 C1435 1.390 . S
C1427 C1426 1.387 . S
C1427 C1429 1.387 . S
H1428 C1435 0.950 . S
C1429 C1427 1.387 . S
C1429 C1431 1.390 . S
C1429 H1433 0.950 . S
H1430 C1426 0.950 . S
C1431 C1429 1.390 . S
C1431 C1432 1.387 . S
C1431 H1434 0.950 . S
C1432 C1431 1.387 . S
C1432 C1435 1.387 . S
H1433 C1429 0.950 . S
H1434 C1431 0.950 . S
C1435 C1426 1.390 . S
C1435 H1428 0.950 . S
C1435 C1432 1.387 . S
C1436 C1437 1.387 . S
C1436 H1440 0.950 . S
C1436 C1445 1.390 . S
C1437 C1436 1.387 . S
C1437 C1439 1.387 . S
H1438 C1445 0.950 . S
C1439 C1437 1.387 . S
C1439 C1441 1.390 . S
C1439 H1443 0.950 . S
H1440 C1436 0.950 . S
C1441 C1439 1.390 . S
C1441 C1442 1.387 . S
C1441 H1444 0.950 . S
C1442 C1441 1.387 . S
C1442 C1445 1.387 . S
H1443 C1439 0.950 . S
H1444 C1441 0.950 . S
C1445 C1436 1.390 . S
C1445 H1438 0.950 . S
C1445 C1442 1.387 . S
C1446 C1447 1.387 . S
C1446 H1450 0.950 . S
C1446 C1455 1.390 . S
C1447 C1446 1.387 . S
C1447 C1449 1.387 . S
H1448 C1455 0.950 . S
C1449 C1447 1.387 . S
C1449 C1451 1.390 . S
C1449 H1453 0.950 . S
H1450 C1446 0.950 . S
C1451 C1449 1.390 . S
C1451 C1452 1.387 . S
C1451 H1454 0.950 . S
C1452 C1451 1.387 . S
C1452 C1455 1.387 . S
H1453 C1449 0.950 . S
H1454 C1451 0.950 . S
C1455 C1446 1.390 . S
C1455 H1448 0.950 . S
C1455 C1452 1.387 . S
C1456 C1457 1.387 . S
C1456 H1460 0.950 . S
C1456 C1465 1.390 . S
C1457 C1456 1.387 . S
C1457 C1459 1.387 . S
H1458 C1465 0.950 . S
C1459 C1457 1.387 . S
C1459 C1461 1.390 . S
C1459 H1463 0.950 . S
H1460 C1456 0.950 . S
C1461 C1459 1.390 . S
C1461 C1462 1.387 . S
C1461 H1464 0.950 . S
C1462 C1461 1.387 . S
C1462 C1465 1.387 . S
H1463 C1459 0.950 . S
H1464 C1461 0.950 . S
C1465 C1456 1.390 . S
C1465 H1458 0.950 . S
C1465 C1462 1.387 . S
C1466 C1467 1.387 . S
C1466 H1470 0.950 . S
C1466 C1475 1.390 . S
C1467 C1466 1.387 . S
C1467 C1469 1.387 . S
H1468 C1475 0.950 . S
C1469 C1467 1.387 . S
C1469 C1471 1.390 . S
C1469 H1473 0.950 . S
H1470 C1466 0.950 . S
C1471 C1469 1.390 . S
C1471 C1472 1.387 . S
C1471 H1474 0.950 . S
C1472 C1471 1.387 . S
C1472 C1475 1.387 . S
H1473 C1469 0.950 . S
H1474 C1471 0.950 . S
C1475 C1466 1.390 . S
C1475 H1468 0.950 . S
C1475 C1472 1.387 . S
C1476 C1477 1.387 . S
C1476 H1480 0.950 . S
C1476 C1485 1.390 . S
C1477 C1476 1.387 . S
C1477 C1479 1.387 . S
H1478 C1485 0.950 . S
C1479 C1477 1.387 . S
C1479 C1481 1.390 . S
C1479 H1483 0.950 . S
H1480 C1476 0.950 . S
C1481 C1479 1.390 . S
C1481 C1482 1.387 . S
C1481 H1484 0.950 . S
C1482 C1481 1.387 . S
C1482 C1485 1.387 . S
H1483 C1479 0.950 . S
H1484 C1481 0.950 . S
C1485 C1476 1.390 . S
C1485 H1478 0.950 . S
C1485 C1482 1.387 . S
C1486 C1487 1.387 . S
C1486 H1490 0.950 . S
C1486 C1495 1.390 . S
C1487 C1486 1.387 . S
C1487 C1489 1.387 . S
H1488 C1495 0.950 . S
C1489 C1487 1.387 . S
C1489 C1491 1.390 . S
C1489 H1493 0.950 . S
H1490 C1486 0.950 . S
C1491 C1489 1.390 . S
C1491 C1492 1.387 . S
C1491 H1494 0.950 . S
C1492 C1491 1.387 . S
C1492 C1495 1.387 . S
H1493 C1489 0.950 . S
H1494 C1491 0.950 . S
C1495 C1486 1.390 . S
C1495 H1488 0.950 . S
C1495 C1492 1.387 . S
C1496 C1497 1.387 . S
C1496 H1500 0.950 . S
C1496 C1505 1.390 . S
C1497 C1496 1.387 . S
C1497 C1499 1.387 . S
H1498 C1505 0.950 . S
C1499 C1497 1.387 . S
C1499 C1501 1.390 . S
C1499 H1503 0.950 . S
H1500 C1496 0.950 . S
C1501 C1499 1.390 . S
C1501 C1502 1.387 . S
C1501 H1504 0.950 . S
C1502 C1501 1.387 . S
C1502 C1505 1.387 . S
H1503 C1499 0.950 . S
H1504 C1501 0.950 . S
C1505 C1496 1.390 . S
C1505 H1498 0.950 . S
C1505 C1502 1.387 . S
C1506 C1507 1.387 . S
C1506 H1510 0.950 . S
C1506 C1515 1.390 . S
C1507 C1506 1.387 . S
C1507 C1509 1.387 . S
H1508 C1515 0.950 . S
C1509 C1507 1.387 . S
C1509 C1511 1.390 . S
C1509 H1513 0.950 . S
H1510 C1506 0.950 . S
C1511 C1509 1.390 . S
C1511 C1512 1.387 . S
C1511 H1514 0.950 . S
C1512 C1511 1.387 . S
C1512 C1515 1.387 . S
H1513 C1509 0.950 . S
H1514 C1511 0.950 . S
C1515 C1506 1.390 . S
C1515 H1508 0.950 . S
C1515 C1512 1.387 . S
C1516 C1517 1.387 . S
C1516 H1520 0.950 . S
C1516 C1525 1.390 . S
C1517 C1516 1.387 . S
C1517 C1519 1.387 . S
H1518 C1525 0.950 . S
C1519 C1517 1.387 . S
C1519 C1521 1.390 . S
C1519 H1523 0.950 . S
H1520 C1516 0.950 . S
C1521 C1519 1.390 . S
C1521 C1522 1.387 . S
C1521 H1524 0.950 . S
C1522 C1521 1.387 . S
C1522 C1525 1.387 . S
H1523 C1519 0.950 . S
H1524 C1521 0.950 . S
C1525 C1516 1.390 . S
C1525 H1518 0.950 . S
C1525 C1522 1.387 . S
C1526 C1527 1.387 . S
C1526 H1530 0.950 . S
C1526 C1535 1.390 . S
C1527 C1526 1.387 . S
C1527 C1529 1.387 . S
H1528 C1535 0.950 . S
C1529 C1527 1.387 . S
C1529 C1531 1.390 . S
C1529 H1533 0.950 . S
H1530 C1526 0.950 . S
C1531 C1529 1.390 . S
C1531 C1532 1.387 . S
C1531 H1534 0.950 . S
C1532 C1531 1.387 . S
C1532 C1535 1.387 . S
H1533 C1529 0.950 . S
H1534 C1531 0.950 . S
C1535 C1526 1.390 . S
C1535 H1528 0.950 . S
C1535 C1532 1.387 . S
C1536 C1537 1.387 . S
C1536 H1540 0.950 . S
C1536 C1545 1.390 . S
C1537 C1536 1.387 . S
C1537 C1539 1.387 1_565 S
H1538 C1545 0.950 . S
C1539 C1537 1.387 1_545 S
C1539 C1541 1.390 . S
C1539 H1543 0.950 . S
H1540 C1536 0.950 . S
C1541 C1539 1.390 . S
C1541 C1542 1.387 . S
C1541 H1544 0.950 . S
C1542 C1541 1.387 . S
C1542 C1545 1.387 1_545 S
H1543 C1539 0.950 . S
H1544 C1541 0.950 . S
C1545 C1536 1.390 . S
C1545 H1538 0.950 . S
C1545 C1542 1.387 1_565 S
C1546 C1547 1.387 . S
C1546 H1550 0.950 . S
C1546 C1555 1.390 1_655 S
C1547 C1546 1.387 . S
C1547 C1549 1.387 . S
H1548 C1555 0.950 . S
C1549 C1547 1.387 . S
C1549 C1551 1.390 1_655 S
C1549 H1553 0.950 . S
H1550 C1546 0.950 . S
C1551 C1549 1.390 1_455 S
C1551 C1552 1.387 . S
C1551 H1554 0.950 . S
C1552 C1551 1.387 . S
C1552 C1555 1.387 . S
H1553 C1549 0.950 . S
H1554 C1551 0.950 . S
C1555 C1546 1.390 1_455 S
C1555 H1548 0.950 . S
C1555 C1552 1.387 . S
C1556 C1557 1.387 1_565 S
C1556 H1560 0.950 . S
C1556 C1565 1.390 . S
C1557 C1556 1.387 1_545 S
C1557 C1559 1.387 . S
H1558 C1565 0.950 . S
C1559 C1557 1.387 . S
C1559 C1561 1.390 . S
C1559 H1563 0.950 . S
H1560 C1556 0.950 . S
C1561 C1559 1.390 . S
C1561 C1562 1.387 1_545 S
C1561 H1564 0.950 . S
C1562 C1561 1.387 1_565 S
C1562 C1565 1.387 . S
H1563 C1559 0.950 . S
H1564 C1561 0.950 . S
C1565 C1556 1.390 . S
C1565 H1558 0.950 . S
C1565 C1562 1.387 . S
C1566 C1567 1.387 . S
C1566 H1570 0.950 . S
C1566 C1575 1.398 . S
C1567 C1566 1.387 . S
C1567 C1569 1.381 1_455 S
H1568 C1575 0.950 . S
C1569 C1567 1.381 1_655 S
C1569 C1571 1.396 . S
C1569 H1573 0.950 . S
H1570 C1566 0.950 . S
C1571 C1569 1.396 . S
C1571 C1572 1.387 . S
C1571 H1574 0.950 . S
C1572 C1571 1.387 . S
C1572 C1575 1.379 1_655 S
H1573 C1569 0.950 . S
H1574 C1571 0.950 . S
C1575 C1566 1.398 . S
C1575 H1568 0.950 . S
C1575 C1572 1.379 1_455 S
C1576 C1577 1.387 1_545 S
C1576 H1580 0.950 . S
C1576 C1585 1.390 . S
C1577 C1576 1.387 1_565 S
C1577 C1579 1.387 . S
H1578 C1585 0.950 . S
C1579 C1577 1.387 . S
C1579 C1581 1.390 . S
C1579 H1583 0.950 . S
H1580 C1576 0.950 . S
C1581 C1579 1.390 . S
C1581 C1582 1.387 1_565 S
C1581 H1584 0.950 . S
C1582 C1581 1.387 1_545 S
C1582 C1585 1.387 . S
H1583 C1579 0.950 . S
H1584 C1581 0.950 . S
C1585 C1576 1.390 . S
C1585 H1578 0.950 . S
C1585 C1582 1.387 . S
C1586 C1587 1.387 1_455 S
C1586 H1590 0.950 . S
C1586 C1595 1.390 . S
C1587 C1586 1.387 1_655 S
C1587 C1589 1.387 . S
H1588 C1595 0.950 . S
C1589 C1587 1.387 . S
C1589 C1591 1.390 . S
C1589 H1593 0.950 . S
H1590 C1586 0.950 . S
C1591 C1589 1.390 . S
C1591 C1592 1.387 1_655 S
C1591 H1594 0.950 . S
C1592 C1591 1.387 1_455 S
C1592 C1595 1.387 . S
H1593 C1589 0.950 . S
H1594 C1591 0.950 . S
C1595 C1586 1.390 . S
C1595 H1588 0.950 . S
C1595 C1592 1.387 . S
C1596 C1597 1.387 . S
C1596 H1600 0.950 . S
C1596 C1605 1.390 1_565 S
C1597 C1596 1.387 . S
C1597 C1599 1.387 . S
H1598 C1605 0.950 . S
C1599 C1597 1.387 . S
C1599 C1601 1.390 1_565 S
C1599 H1603 0.950 . S
H1600 C1596 0.950 . S
C1601 C1599 1.390 1_545 S
C1601 C1602 1.387 . S
C1601 H1604 0.950 . S
C1602 C1601 1.387 . S
C1602 C1605 1.387 . S
H1603 C1599 0.950 . S
H1604 C1601 0.950 . S
C1605 C1596 1.390 1_545 S
C1605 H1598 0.950 . S
C1605 C1602 1.387 . S
C1606 C1607 1.387 . S
C1606 H1610 0.950 . S
C1606 C1615 1.390 . S
C1607 C1606 1.387 . S
C1607 C1609 1.387 1_455 S
H1608 C1615 0.950 . S
C1609 C1607 1.387 1_655 S
C1609 C1611 1.390 . S
C1609 H1613 0.950 . S
H1610 C1606 0.950 . S
C1611 C1609 1.390 . S
C1611 C1612 1.387 . S
C1611 H1614 0.950 . S
C1612 C1611 1.387 . S
C1612 C1615 1.387 1_655 S
H1613 C1609 0.950 . S
H1614 C1611 0.950 . S
C1615 C1606 1.390 . S
C1615 H1608 0.950 . S
C1615 C1612 1.387 1_455 S
C1616 C1617 1.387 . S
C1616 H1620 0.950 . S
C1616 C1625 1.390 . S
C1617 C1616 1.387 . S
C1617 C1619 1.387 1_556 S
H1618 C1625 0.950 . S
C1619 C1617 1.387 1_554 S
C1619 C1621 1.390 . S
C1619 H1623 0.950 . S
H1620 C1616 0.950 . S
C1621 C1619 1.390 . S
C1621 C1622 1.387 . S
C1621 H1624 0.950 . S
C1622 C1621 1.387 . S
C1622 C1625 1.387 1_554 S
H1623 C1619 0.950 . S
H1624 C1621 0.950 . S
C1625 C1616 1.390 . S
C1625 H1618 0.950 . S
C1625 C1622 1.387 1_556 S
C1626 C1627 1.387 . S
C1626 H1630 0.950 . S
C1626 C1635 1.390 . S
C1627 C1626 1.387 . S
C1627 C1629 1.387 1_554 S
H1628 C1635 0.950 . S
C1629 C1627 1.387 1_556 S
C1629 C1631 1.390 . S
C1629 H1633 0.950 . S
H1630 C1626 0.950 . S
C1631 C1629 1.390 . S
C1631 C1632 1.387 . S
C1631 H1634 0.950 . S
C1632 C1631 1.387 . S
C1632 C1635 1.387 1_556 S
H1633 C1629 0.950 . S
H1634 C1631 0.950 . S
C1635 C1626 1.390 . S
C1635 H1628 0.950 . S
C1635 C1632 1.387 1_554 S
C1636 C1637 1.387 1_554 S
C1636 H1640 0.950 . S
C1636 C1645 1.390 . S
C1637 C1636 1.387 1_556 S
C1637 C1639 1.387 . S
H1638 C1645 0.950 . S
C1639 C1637 1.387 . S
C1639 C1641 1.390 . S
C1639 H1643 0.950 . S
H1640 C1636 0.950 . S
C1641 C1639 1.390 . S
C1641 C1642 1.387 1_556 S
C1641 H1644 0.950 . S
C1642 C1641 1.387 1_554 S
C1642 C1645 1.387 . S
H1643 C1639 0.950 . S
H1644 C1641 0.950 . S
C1645 C1636 1.390 . S
C1645 H1638 0.950 . S
C1645 C1642 1.387 . S
C1646 C1647 1.387 1_556 S
C1646 H1650 0.950 . S
C1646 C1655 1.390 . S
C1647 C1646 1.387 1_554 S
C1647 C1649 1.387 . S
H1648 C1655 0.950 . S
C1649 C1647 1.387 . S
C1649 C1651 1.390 . S
C1649 H1653 0.950 . S
H1650 C1646 0.950 . S
C1651 C1649 1.390 . S
C1651 C1652 1.387 1_554 S
C1651 H1654 0.950 . S
C1652 C1651 1.387 1_556 S
C1652 C1655 1.387 . S
H1653 C1649 0.950 . S
H1654 C1651 0.950 . S
C1655 C1646 1.390 . S
C1655 H1648 0.950 . S
C1655 C1652 1.387 . S
C1656 C1657 1.387 . S
C1656 H1660 0.950 . S
C1656 C1665 1.390 . S
C1657 C1656 1.387 . S
C1657 C1659 1.387 . S
H1658 C1665 0.950 . S
C1659 C1657 1.387 . S
C1659 C1661 1.390 . S
C1659 H1663 0.950 . S
H1660 C1656 0.950 . S
C1661 C1659 1.390 . S
C1661 C1662 1.387 . S
C1661 H1664 0.950 . S
C1662 C1661 1.387 . S
C1662 C1665 1.387 . S
H1663 C1659 0.950 . S
H1664 C1661 0.950 . S
C1665 C1656 1.390 . S
C1665 H1658 0.950 . S
C1665 C1662 1.387 . S
C1666 C1667 1.387 . S
C1666 H1670 0.950 . S
C1666 C1675 1.390 . S
C1667 C1666 1.387 . S
C1667 C1669 1.387 . S
H1668 C1675 0.950 . S
C1669 C1667 1.387 . S
C1669 C1671 1.390 . S
C1669 H1673 0.950 . S
H1670 C1666 0.950 . S
C1671 C1669 1.390 . S
C1671 C1672 1.387 . S
C1671 H1674 0.950 . S
C1672 C1671 1.387 . S
C1672 C1675 1.387 . S
H1673 C1669 0.950 . S
H1674 C1671 0.950 . S
C1675 C1666 1.390 . S
C1675 H1668 0.950 . S
C1675 C1672 1.387 . S
C1676 C1677 1.387 . S
C1676 H1680 0.950 . S
C1676 C1685 1.390 . S
C1677 C1676 1.387 . S
C1677 C1679 1.387 . S
H1678 C1685 0.950 . S
C1679 C1677 1.387 . S
C1679 C1681 1.390 . S
C1679 H1683 0.950 . S
H1680 C1676 0.950 . S
C1681 C1679 1.390 . S
C1681 C1682 1.387 . S
C1681 H1684 0.950 . S
C1682 C1681 1.387 . S
C1682 C1685 1.387 . S
H1683 C1679 0.950 . S
H1684 C1681 0.950 . S
C1685 C1676 1.390 . S
C1685 H1678 0.950 . S
C1685 C1682 1.387 . S
C1686 C1687 1.387 . S
C1686 H1690 0.950 . S
C1686 C1695 1.390 . S
C1687 C1686 1.387 . S
C1687 C1689 1.387 . S
H1688 C1695 0.950 . S
C1689 C1687 1.387 . S
C1689 C1691 1.390 . S
C1689 H1693 0.950 . S
H1690 C1686 0.950 . S
C1691 C1689 1.390 . S
C1691 C1692 1.387 . S
C1691 H1694 0.950 . S
C1692 C1691 1.387 . S
C1692 C1695 1.387 . S
H1693 C1689 0.950 . S
H1694 C1691 0.950 . S
C1695 C1686 1.390 . S
C1695 H1688 0.950 . S
C1695 C1692 1.387 . S
C1696 C1697 1.387 . S
C1696 H1700 0.950 . S
C1696 C1705 1.390 . S
C1697 C1696 1.387 . S
C1697 C1699 1.387 . S
H1698 C1705 0.950 . S
C1699 C1697 1.387 . S
C1699 C1701 1.390 . S
C1699 H1703 0.950 . S
H1700 C1696 0.950 . S
C1701 C1699 1.390 . S
C1701 C1702 1.387 . S
C1701 H1704 0.950 . S
C1702 C1701 1.387 . S
C1702 C1705 1.387 . S
H1703 C1699 0.950 . S
H1704 C1701 0.950 . S
C1705 C1696 1.390 . S
C1705 H1698 0.950 . S
C1705 C1702 1.387 . S
C1706 C1707 1.387 . S
C1706 H1710 0.950 . S
C1706 C1715 1.390 . S
C1707 C1706 1.387 . S
C1707 C1709 1.387 . S
H1708 C1715 0.950 . S
C1709 C1707 1.387 . S
C1709 C1711 1.390 . S
C1709 H1713 0.950 . S
H1710 C1706 0.950 . S
C1711 C1709 1.390 . S
C1711 C1712 1.387 . S
C1711 H1714 0.950 . S
C1712 C1711 1.387 . S
C1712 C1715 1.387 . S
H1713 C1709 0.950 . S
H1714 C1711 0.950 . S
C1715 C1706 1.390 . S
C1715 H1708 0.950 . S
C1715 C1712 1.387 . S
C1716 C1717 1.387 . S
C1716 H1720 0.950 . S
C1716 C1725 1.390 . S
C1717 C1716 1.387 . S
C1717 C1719 1.387 . S
H1718 C1725 0.950 . S
C1719 C1717 1.387 . S
C1719 C1721 1.390 . S
C1719 H1723 0.950 . S
H1720 C1716 0.950 . S
C1721 C1719 1.390 . S
C1721 C1722 1.387 . S
C1721 H1724 0.950 . S
C1722 C1721 1.387 . S
C1722 C1725 1.387 . S
H1723 C1719 0.950 . S
H1724 C1721 0.950 . S
C1725 C1716 1.390 . S
C1725 H1718 0.950 . S
C1725 C1722 1.387 . S
C1726 C1727 1.387 . S
C1726 H1730 0.950 . S
C1726 C1735 1.390 . S
C1727 C1726 1.387 . S
C1727 C1729 1.387 . S
H1728 C1735 0.950 . S
C1729 C1727 1.387 . S
C1729 C1731 1.390 . S
C1729 H1733 0.950 . S
H1730 C1726 0.950 . S
C1731 C1729 1.390 . S
C1731 C1732 1.387 . S
C1731 H1734 0.950 . S
C1732 C1731 1.387 . S
C1732 C1735 1.387 . S
H1733 C1729 0.950 . S
H1734 C1731 0.950 . S
C1735 C1726 1.390 . S
C1735 H1728 0.950 . S
C1735 C1732 1.387 . S
C1736 C1737 1.387 . S
C1736 H1740 0.950 . S
C1736 C1745 1.390 . S
C1737 C1736 1.387 . S
C1737 C1739 1.387 . S
H1738 C1745 0.950 . S
C1739 C1737 1.387 . S
C1739 C1741 1.390 . S
C1739 H1743 0.950 . S
H1740 C1736 0.950 . S
C1741 C1739 1.390 . S
C1741 C1742 1.387 . S
C1741 H1744 0.950 . S
C1742 C1741 1.387 . S
C1742 C1745 1.387 . S
H1743 C1739 0.950 . S
H1744 C1741 0.950 . S
C1745 C1736 1.390 . S
C1745 H1738 0.950 . S
C1745 C1742 1.387 . S
C1746 C1747 1.387 . S
C1746 H1750 0.950 . S
C1746 C1755 1.390 . S
C1747 C1746 1.387 . S
C1747 C1749 1.387 . S
H1748 C1755 0.950 . S
C1749 C1747 1.387 . S
C1749 C1751 1.390 . S
C1749 H1753 0.950 . S
H1750 C1746 0.950 . S
C1751 C1749 1.390 . S
C1751 C1752 1.387 . S
C1751 H1754 0.950 . S
C1752 C1751 1.387 . S
C1752 C1755 1.387 . S
H1753 C1749 0.950 . S
H1754 C1751 0.950 . S
C1755 C1746 1.390 . S
C1755 H1748 0.950 . S
C1755 C1752 1.387 . S
C1756 C1757 1.387 . S
C1756 H1760 0.950 . S
C1756 C1765 1.390 . S
C1757 C1756 1.387 . S
C1757 C1759 1.387 . S
H1758 C1765 0.950 . S
C1759 C1757 1.387 . S
C1759 C1761 1.390 . S
C1759 H1763 0.950 . S
H1760 C1756 0.950 . S
C1761 C1759 1.390 . S
C1761 C1762 1.387 . S
C1761 H1764 0.950 . S
C1762 C1761 1.387 . S
C1762 C1765 1.387 . S
H1763 C1759 0.950 . S
H1764 C1761 0.950 . S
C1765 C1756 1.390 . S
C1765 H1758 0.950 . S
C1765 C1762 1.387 . S
C1766 C1767 1.387 . S
C1766 H1770 0.950 . S
C1766 C1775 1.390 . S
C1767 C1766 1.387 . S
C1767 C1769 1.387 . S
H1768 C1775 0.950 . S
C1769 C1767 1.387 . S
C1769 C1771 1.390 . S
C1769 H1773 0.950 . S
H1770 C1766 0.950 . S
C1771 C1769 1.390 . S
C1771 C1772 1.387 . S
C1771 H1774 0.950 . S
C1772 C1771 1.387 . S
C1772 C1775 1.387 . S
H1773 C1769 0.950 . S
H1774 C1771 0.950 . S
C1775 C1766 1.390 . S
C1775 H1768 0.950 . S
C1775 C1772 1.387 . S
C1776 C1777 1.387 . S
C1776 H1780 0.950 . S
C1776 C1785 1.390 . S
C1777 C1776 1.387 . S
C1777 C1779 1.387 . S
H1778 C1785 0.950 . S
C1779 C1777 1.387 . S
C1779 C1781 1.390 . S
C1779 H1783 0.950 . S
H1780 C1776 0.950 . S
C1781 C1779 1.390 . S
C1781 C1782 1.387 . S
C1781 H1784 0.950 . S
C1782 C1781 1.387 . S
C1782 C1785 1.387 . S
H1783 C1779 0.950 . S
H1784 C1781 0.950 . S
C1785 C1776 1.390 . S
C1785 H1778 0.950 . S
C1785 C1782 1.387 . S
C1786 C1787 1.387 . S
C1786 H1790 0.950 . S
C1786 C1795 1.390 . S
C1787 C1786 1.387 . S
C1787 C1789 1.387 . S
H1788 C1795 0.950 . S
C1789 C1787 1.387 . S
C1789 C1791 1.390 . S
C1789 H1793 0.950 . S
H1790 C1786 0.950 . S
C1791 C1789 1.390 . S
C1791 C1792 1.387 . S
C1791 H1794 0.950 . S
C1792 C1791 1.387 . S
C1792 C1795 1.387 . S
H1793 C1789 0.950 . S
H1794 C1791 0.950 . S
C1795 C1786 1.390 . S
C1795 H1788 0.950 . S
C1795 C1792 1.387 . S
C1796 C1797 1.387 . S
C1796 H1800 0.950 . S
C1796 C1805 1.390 . S
C1797 C1796 1.387 . S
C1797 C1799 1.387 . S
H1798 C1805 0.950 . S
C1799 C1797 1.387 . S
C1799 C1801 1.390 . S
C1799 H1803 0.950 . S
H1800 C1796 0.950 . S
C1801 C1799 1.390 . S
C1801 C1802 1.387 . S
C1801 H1804 0.950 . S
C1802 C1801 1.387 . S
C1802 C1805 1.387 . S
H1803 C1799 0.950 . S
H1804 C1801 0.950 . S
C1805 C1796 1.390 . S
C1805 H1798 0.950 . S
C1805 C1802 1.387 . S
C1806 C1807 1.387 . S
C1806 H1810 0.950 . S
C1806 C1815 1.390 . S
C1807 C1806 1.387 . S
C1807 C1809 1.387 . S
H1808 C1815 0.950 . S
C1809 C1807 1.387 . S
C1809 C1811 1.390 . S
C1809 H1813 0.950 . S
H1810 C1806 0.950 . S
C1811 C1809 1.390 . S
C1811 C1812 1.387 . S
C1811 H1814 0.950 . S
C1812 C1811 1.387 . S
C1812 C1815 1.387 . S
H1813 C1809 0.950 . S
H1814 C1811 0.950 . S
C1815 C1806 1.390 . S
C1815 H1808 0.950 . S
C1815 C1812 1.387 . S
C1816 C1817 1.387 . S
C1816 H1820 0.950 . S
C1816 C1825 1.390 . S
C1817 C1816 1.387 . S
C1817 C1819 1.387 . S
H1818 C1825 0.950 . S
C1819 C1817 1.387 . S
C1819 C1821 1.390 . S
C1819 H1823 0.950 . S
H1820 C1816 0.950 . S
C1821 C1819 1.390 . S
C1821 C1822 1.387 . S
C1821 H1824 0.950 . S
C1822 C1821 1.387 . S
C1822 C1825 1.387 . S
H1823 C1819 0.950 . S
H1824 C1821 0.950 . S
C1825 C1816 1.390 . S
C1825 H1818 0.950 . S
C1825 C1822 1.387 . S
C1826 C1827 1.387 . S
C1826 H1830 0.950 . S
C1826 C1835 1.390 . S
C1827 C1826 1.387 . S
C1827 C1829 1.387 . S
H1828 C1835 0.950 . S
C1829 C1827 1.387 . S
C1829 C1831 1.390 . S
C1829 H1833 0.950 . S
H1830 C1826 0.950 . S
C1831 C1829 1.390 . S
C1831 C1832 1.387 . S
C1831 H1834 0.950 . S
C1832 C1831 1.387 . S
C1832 C1835 1.387 . S
H1833 C1829 0.950 . S
H1834 C1831 0.950 . S
C1835 C1826 1.390 . S
C1835 H1828 0.950 . S
C1835 C1832 1.387 . S
C1836 C1837 1.387 . S
C1836 H1840 0.950 . S
C1836 C1845 1.390 . S
C1837 C1836 1.387 . S
C1837 C1839 1.387 . S
H1838 C1845 0.950 . S
C1839 C1837 1.387 . S
C1839 C1841 1.390 . S
C1839 H1843 0.950 . S
H1840 C1836 0.950 . S
C1841 C1839 1.390 . S
C1841 C1842 1.387 . S
C1841 H1844 0.950 . S
C1842 C1841 1.387 . S
C1842 C1845 1.387 . S
H1843 C1839 0.950 . S
H1844 C1841 0.950 . S
C1845 C1836 1.390 . S
C1845 H1838 0.950 . S
C1845 C1842 1.387 . S
C1846 C1847 1.387 . S
C1846 H1850 0.950 . S
C1846 C1855 1.390 . S
C1847 C1846 1.387 . S
C1847 C1849 1.387 . S
H1848 C1855 0.950 . S
C1849 C1847 1.387 . S
C1849 C1851 1.390 . S
C1849 H1853 0.950 . S
H1850 C1846 0.950 . S
C1851 C1849 1.390 . S
C1851 C1852 1.387 . S
C1851 H1854 0.950 . S
C1852 C1851 1.387 . S
C1852 C1855 1.387 . S
H1853 C1849 0.950 . S
H1854 C1851 0.950 . S
C1855 C1846 1.390 . S
C1855 H1848 0.950 . S
C1855 C1852 1.387 . S
C1856 C1857 1.387 . S
C1856 H1860 0.950 . S
C1856 C1865 1.390 . S
C1857 C1856 1.387 . S
C1857 C1859 1.387 . S
H1858 C1865 0.950 . S
C1859 C1857 1.387 . S
C1859 C1861 1.390 . S
C1859 H1863 0.950 . S
H1860 C1856 0.950 . S
C1861 C1859 1.390 . S
C1861 C1862 1.387 . S
C1861 H1864 0.950 . S
C1862 C1861 1.387 . S
C1862 C1865 1.387 . S
H1863 C1859 0.950 . S
H1864 C1861 0.950 . S
C1865 C1856 1.390 . S
C1865 H1858 0.950 . S
C1865 C1862 1.387 . S
C1866 C1867 1.387 . S
C1866 H1870 0.950 . S
C1866 C1875 1.390 . S
C1867 C1866 1.387 . S
C1867 C1869 1.387 . S
H1868 C1875 0.950 . S
C1869 C1867 1.387 . S
C1869 C1871 1.390 . S
C1869 H1873 0.950 . S
H1870 C1866 0.950 . S
C1871 C1869 1.390 . S
C1871 C1872 1.387 . S
C1871 H1874 0.950 . S
C1872 C1871 1.387 . S
C1872 C1875 1.387 . S
H1873 C1869 0.950 . S
H1874 C1871 0.950 . S
C1875 C1866 1.390 . S
C1875 H1868 0.950 . S
C1875 C1872 1.387 . S
C1876 C1877 1.387 . S
C1876 H1880 0.950 . S
C1876 C1885 1.390 . S
C1877 C1876 1.387 . S
C1877 C1879 1.387 . S
H1878 C1885 0.950 . S
C1879 C1877 1.387 . S
C1879 C1881 1.390 . S
C1879 H1883 0.950 . S
H1880 C1876 0.950 . S
C1881 C1879 1.390 . S
C1881 C1882 1.387 . S
C1881 H1884 0.950 . S
C1882 C1881 1.387 . S
C1882 C1885 1.387 . S
H1883 C1879 0.950 . S
H1884 C1881 0.950 . S
C1885 C1876 1.390 . S
C1885 H1878 0.950 . S
C1885 C1882 1.387 . S
C1886 C1887 1.387 . S
C1886 H1890 0.950 . S
C1886 C1895 1.390 . S
C1887 C1886 1.387 . S
C1887 C1889 1.387 . S
H1888 C1895 0.950 . S
C1889 C1887 1.387 . S
C1889 C1891 1.390 . S
C1889 H1893 0.950 . S
H1890 C1886 0.950 . S
C1891 C1889 1.390 . S
C1891 C1892 1.387 . S
C1891 H1894 0.950 . S
C1892 C1891 1.387 . S
C1892 C1895 1.387 . S
H1893 C1889 0.950 . S
H1894 C1891 0.950 . S
C1895 C1886 1.390 . S
C1895 H1888 0.950 . S
C1895 C1892 1.387 . S
C1417 C1301 1.683 . S
C1422 C3 1.683 . S
C1427 C62 1.681 . S
C1432 C949 1.738 . S
C1437 C1360 1.681 . S
C1442 C123 1.738 . S
C1447 C1244 1.739 . S
C1452 C182 1.739 . S
C1457 C1067 1.741 . S
C1462 C241 1.741 . S
C1467 C1124 1.679 . S
C1472 C298 1.679 . S
C1477 C1185 1.741 . S
C1482 C357 1.684 . S
C1487 C418 1.737 . S
C1492 C1006 1.680 . S
C1497 C770 1.684 . S
C1502 C475 1.685 . S
C1507 C831 1.737 . S
C1512 C536 1.737 . S
C1517 C593 1.685 . S
C1522 C888 1.684 . S
C1527 C654 1.736 . S
C1532 C713 1.736 . S
C1537 C416 1.681 . S
C1542 C829 1.681 . S
C1547 C890 1.742 . S
C1552 C239 1.685 . S
C1557 C300 1.738 . S
C1562 C711 1.681 . S
C1567 C772 1.739 . S
C1572 C359 1.739 . S
C1577 C595 1.738 . S
C1582 C64 1.738 . S
C1587 C121 1.679 . S
C1592 C652 1.679 . S
C1597 C180 1.687 . S
C1602 C477 1.743 . S
C1607 C5 1.739 . S
C1612 C534 1.683 . S
C1617 C1183 1.685 . S
C1622 C1242 1.685 . S
C1627 C1303 1.737 . S
C1632 C1008 1.737 . S
C1637 C1065 1.684 . S
C1642 C947 1.683 . S
C1647 C1362 1.736 . S
C1652 C1126 1.736 . S
C1657 C33 0.986 . S
C1662 C524 0.991 . S
C1667 C564 0.976 . S
C1672 C92 0.977 . S
C1677 C170 0.987 . S
C1682 C642 0.986 . S
C1687 C229 0.991 . S
C1692 C682 0.983 . S
C1697 C288 0.987 . S
C1702 C741 0.981 . S
C1707 C328 0.983 . S
C1712 C819 0.991 . S
C1717 C859 0.980 . S
C1722 C387 0.982 . S
C1727 C937 0.994 . S
C1732 C465 0.993 . S
C1737 C505 0.982 . S
C1742 C977 0.982 . S
C1747 C583 0.985 . S
C1752 C1409 0.984 . S
C1757 C1272 0.984 . S
C1762 C623 0.986 . S
C1767 C1350 0.986 . S
C1772 C701 0.985 . S
C1777 C1055 0.985 . S
C1782 C760 0.984 . S
C1787 C1095 0.983 . S
C1792 C800 0.985 . S
C1797 C878 0.983 . S
C1802 C1173 0.984 . S
C1807 C918 0.984 . S
C1812 C1213 0.982 . S
C1817 C52 0.990 . S
C1822 C996 0.989 . S
C1827 C1036 0.981 . S
C1832 C269 0.980 . S
C1837 C1114 0.987 . S
C1842 C347 0.988 . S
C1847 C1154 0.984 . S
C1852 C406 0.991 . S
C1857 C1232 0.994 . S
C1862 C446 0.985 . S
C1867 C1291 0.990 . S
C1872 C151 0.984 . S
C1877 C210 0.983 . S
C1882 C1331 0.984 . S
C1887 C1390 0.976 . S
C1892 C111 0.985 . S
