# Generated by pormake.
# Topology zfj, (5)-cn, num edge types: 1
# Building blocks:
#     Node 0, Type 0, BuildingBlock: XOMCOT_clean_sbu_1, # of connection points: 5
#     Node 1, Type 0, BuildingBlock: XOMCOT_clean_sbu_1, # of connection points: 5
#     Node 2, Type 0, BuildingBlock: XOMCOT_clean_sbu_1, # of connection points: 5
#     Node 3, Type 0, BuildingBlock: XOMCOT_clean_sbu_1, # of connection points: 5
#     Node 4, Type 0, BuildingBlock: XOMCOT_clean_sbu_1, # of connection points: 5
#     Node 5, Type 0, BuildingBlock: XOMCOT_clean_sbu_1, # of connection points: 5
#     Node 6, Type 0, BuildingBlock: XOMCOT_clean_sbu_1, # of connection points: 5
#     Node 7, Type 0, BuildingBlock: XOMCOT_clean_sbu_1, # of connection points: 5
#     Node 8, Type 0, BuildingBlock: XOMCOT_clean_sbu_1, # of connection points: 5
#     Node 9, Type 0, BuildingBlock: XOMCOT_clean_sbu_1, # of connection points: 5
#     Node 10, Type 0, BuildingBlock: XOMCOT_clean_sbu_1, # of connection points: 5
#     Node 11, Type 0, BuildingBlock: XOMCOT_clean_sbu_1, # of connection points: 5
#     Node 12, Type 0, BuildingBlock: XOMCOT_clean_sbu_1, # of connection points: 5
#     Node 13, Type 0, BuildingBlock: XOMCOT_clean_sbu_1, # of connection points: 5
#     Node 14, Type 0, BuildingBlock: XOMCOT_clean_sbu_1, # of connection points: 5
#     Node 15, Type 0, BuildingBlock: XOMCOT_clean_sbu_1, # of connection points: 5
#     Edge 16, Type (0, 0), BuildingBlock: TEMPAE_clean_linker_10, # of connection points: 2
#     Edge 17, Type (0, 0), BuildingBlock: TEMPAE_clean_linker_10, # of connection points: 2
#     Edge 18, Type (0, 0), BuildingBlock: TEMPAE_clean_linker_10, # of connection points: 2
#     Edge 19, Type (0, 0), BuildingBlock: TEMPAE_clean_linker_10, # of connection points: 2
#     Edge 20, Type (0, 0), BuildingBlock: TEMPAE_clean_linker_10, # of connection points: 2
#     Edge 21, Type (0, 0), BuildingBlock: TEMPAE_clean_linker_10, # of connection points: 2
#     Edge 22, Type (0, 0), BuildingBlock: TEMPAE_clean_linker_10, # of connection points: 2
#     Edge 23, Type (0, 0), BuildingBlock: TEMPAE_clean_linker_10, # of connection points: 2
#     Edge 24, Type (0, 0), BuildingBlock: TEMPAE_clean_linker_10, # of connection points: 2
#     Edge 25, Type (0, 0), BuildingBlock: TEMPAE_clean_linker_10, # of connection points: 2
#     Edge 26, Type (0, 0), BuildingBlock: TEMPAE_clean_linker_10, # of connection points: 2
#     Edge 27, Type (0, 0), BuildingBlock: TEMPAE_clean_linker_10, # of connection points: 2
#     Edge 28, Type (0, 0), BuildingBlock: TEMPAE_clean_linker_10, # of connection points: 2
#     Edge 29, Type (0, 0), BuildingBlock: TEMPAE_clean_linker_10, # of connection points: 2
#     Edge 30, Type (0, 0), BuildingBlock: TEMPAE_clean_linker_10, # of connection points: 2
#     Edge 31, Type (0, 0), BuildingBlock: TEMPAE_clean_linker_10, # of connection points: 2
#     Edge 32, Type (0, 0), BuildingBlock: TEMPAE_clean_linker_10, # of connection points: 2
#     Edge 33, Type (0, 0), BuildingBlock: TEMPAE_clean_linker_10, # of connection points: 2
#     Edge 34, Type (0, 0), BuildingBlock: TEMPAE_clean_linker_10, # of connection points: 2
#     Edge 35, Type (0, 0), BuildingBlock: TEMPAE_clean_linker_10, # of connection points: 2
#     Edge 36, Type (0, 0), BuildingBlock: TEMPAE_clean_linker_10, # of connection points: 2
#     Edge 37, Type (0, 0), BuildingBlock: TEMPAE_clean_linker_10, # of connection points: 2
#     Edge 38, Type (0, 0), BuildingBlock: TEMPAE_clean_linker_10, # of connection points: 2
#     Edge 39, Type (0, 0), BuildingBlock: TEMPAE_clean_linker_10, # of connection points: 2
#     Edge 40, Type (0, 0), BuildingBlock: TEMPAE_clean_linker_10, # of connection points: 2
#     Edge 41, Type (0, 0), BuildingBlock: TEMPAE_clean_linker_10, # of connection points: 2
#     Edge 42, Type (0, 0), BuildingBlock: TEMPAE_clean_linker_10, # of connection points: 2
#     Edge 43, Type (0, 0), BuildingBlock: TEMPAE_clean_linker_10, # of connection points: 2
#     Edge 44, Type (0, 0), BuildingBlock: TEMPAE_clean_linker_10, # of connection points: 2
#     Edge 45, Type (0, 0), BuildingBlock: TEMPAE_clean_linker_10, # of connection points: 2
#     Edge 46, Type (0, 0), BuildingBlock: TEMPAE_clean_linker_10, # of connection points: 2
#     Edge 47, Type (0, 0), BuildingBlock: TEMPAE_clean_linker_10, # of connection points: 2
#     Edge 48, Type (0, 0), BuildingBlock: TEMPAE_clean_linker_10, # of connection points: 2
#     Edge 49, Type (0, 0), BuildingBlock: TEMPAE_clean_linker_10, # of connection points: 2
#     Edge 50, Type (0, 0), BuildingBlock: TEMPAE_clean_linker_10, # of connection points: 2
#     Edge 51, Type (0, 0), BuildingBlock: TEMPAE_clean_linker_10, # of connection points: 2
#     Edge 52, Type (0, 0), BuildingBlock: TEMPAE_clean_linker_10, # of connection points: 2
#     Edge 53, Type (0, 0), BuildingBlock: TEMPAE_clean_linker_10, # of connection points: 2
#     Edge 54, Type (0, 0), BuildingBlock: TEMPAE_clean_linker_10, # of connection points: 2
#     Edge 55, Type (0, 0), BuildingBlock: TEMPAE_clean_linker_10, # of connection points: 2
# Relax obj value: 0.172
# Max RMSD: 0.146
# Mean RMSD: 0.146
data_MOF--net-zfj--node1-XOMCOT_clean_sbu_1--edge1-TEMPAE_clean_linker_10
_symmetry_space_group_name_H-M    P1
_symmetry_Int_Tables_number       1
_symmetry_cell_setting            triclinic
loop_
_symmetry_equiv_pos_as_xyz
'x, y, z'
_cell_length_a     35.575975
_cell_length_b     35.643245
_cell_length_c     51.034041
_cell_angle_alpha  90.028206
_cell_angle_beta   90.030891
_cell_angle_gamma 90.007224
loop_
_atom_site_label
_atom_site_type_symbol
_atom_site_fract_x
_atom_site_fract_y
_atom_site_fract_z
_atom_type_partial_charge
C0 C 0.54861 0.24231 0.1695 0.0
C1 C 0.55421 0.2802 0.1718 0.0
N2 N 0.5298 0.29813 0.15585 0.0
N3 N 0.52062 0.23589 0.15235 0.0
C4 C 0.50965 0.27034 0.14431 0.0
H5 H 0.5638 0.2207 0.17994 0.0
Co6 Co 0.50306 0.18803 0.14414 0.0
C7 C 0.47392 0.19195 0.08964 0.0
O8 O 0.48634 0.15783 0.08526 0.0
N9 N 0.48483 0.13929 0.13681 0.0
C10 C 0.44389 0.09355 0.12806 0.0
C11 C 0.44838 0.13152 0.1315 0.0
C12 C 0.50164 0.10517 0.13725 0.0
N13 N 0.47745 0.07708 0.13175 0.0
O14 O 0.45837 0.19719 0.16432 0.0
H15 H 0.42629 0.15229 0.13018 0.0
H16 H 0.53086 0.10042 0.14166 0.0
O17 O 0.47922 0.2076 0.11195 0.0
C18 C 0.4657 0.19332 0.18862 0.0
O19 O 0.50037 0.18544 0.19555 0.0
N20 N 0.54892 0.1789 0.12704 0.0
C21 C 0.62557 0.17774 0.11501 0.0
C22 C 0.60002 0.19704 0.09896 0.0
C23 C 0.56184 0.1977 0.10552 0.0
C24 C 0.57336 0.1596 0.14254 0.0
C25 C 0.61149 0.15776 0.13653 0.0
H26 H 0.54375 0.2161 0.09461 0.0
H27 H 0.56361 0.14773 0.16082 0.0
H28 H 0.48742 0.27475 0.13022 0.0
H29 H 0.57452 0.29316 0.18468 0.0
H30 H 0.41779 0.07905 0.124 0.0
H31 H 0.60972 0.21395 0.08269 0.0
H32 H 0.63006 0.14257 0.14957 0.0
C33 C 0.22817 0.53664 0.66834 0.0
C34 C 0.18958 0.53664 0.66828 0.0
N35 N 0.17791 0.5137 0.64905 0.0
N36 N 0.24091 0.51347 0.64941 0.0
C37 C 0.20944 0.49998 0.63774 0.0
H38 H 0.24596 0.5526 0.68142 0.0
Co39 Co 0.29243 0.5052 0.64441 0.0
C40 C 0.30317 0.48569 0.58908 0.0
O41 O 0.33289 0.50756 0.59006 0.0
N42 N 0.34511 0.49603 0.64066 0.0
C43 C 0.39667 0.46162 0.63426 0.0
C44 C 0.35817 0.46151 0.63447 0.0
C45 C 0.37689 0.5165 0.64469 0.0
N46 N 0.4086 0.49623 0.64064 0.0
O47 O 0.28845 0.45811 0.66241 0.0
H48 H 0.34063 0.43741 0.63042 0.0
H49 H 0.37726 0.54555 0.65053 0.0
O50 O 0.28306 0.48136 0.60977 0.0
C51 C 0.29126 0.46426 0.68695 0.0
O52 O 0.29418 0.49921 0.69488 0.0
N53 N 0.29541 0.55323 0.6293 0.0
C54 C 0.28513 0.62942 0.61826 0.0
C55 C 0.26944 0.60176 0.60204 0.0
C56 C 0.27439 0.5639 0.60811 0.0
C57 C 0.3107 0.57975 0.64529 0.0
C58 C 0.30689 0.61787 0.63975 0.0
H59 H 0.25849 0.5436 0.597 0.0
H60 H 0.32348 0.57144 0.6636 0.0
H61 H 0.20952 0.4803 0.62159 0.0
H62 H 0.17138 0.55247 0.6812 0.0
H63 H 0.41452 0.43764 0.63042 0.0
H64 H 0.2511 0.60918 0.58591 0.0
H65 H 0.31929 0.63809 0.65303 0.0
C66 C 0.01242 0.22546 0.1873 0.0
C67 C 0.01664 0.18747 0.1908 0.0
N68 N 0.0284 0.17225 0.16807 0.0
N69 N 0.02176 0.23455 0.16252 0.0
C70 C 0.03142 0.20148 0.15126 0.0
H71 H 1.0012 0.24479 0.20159 0.0
Co72 Co 0.01476 0.28213 0.14775 0.0
C73 C 0.06903 0.28471 0.10462 0.0
O74 O 0.08334 0.31573 0.11435 0.0
N75 N 0.00686 0.33014 0.13271 0.0
C76 C 0.9895 0.37394 0.10396 0.0
C77 C 0.99417 0.33615 0.10806 0.0
C78 C 0.01003 0.36503 0.14307 0.0
N79 N 0.99957 0.39204 0.12597 0.0
O80 O 0.05933 0.29953 0.16522 0.0
H81 H 0.98837 0.31432 0.0939 0.0
H82 H 0.0189 0.37083 0.1629 0.0
O83 O 0.04289 0.26775 0.11695 0.0
C84 C 0.05137 0.31271 0.18778 0.0
O85 O 0.01589 0.31356 0.19494 0.0
N86 N 0.96983 0.26546 0.13288 0.0
C87 C 0.89817 0.2444 0.11661 0.0
C88 C 0.93013 0.22904 0.1046 0.0
C89 C 0.96592 0.24007 0.11299 0.0
C90 C 0.93913 0.28027 0.14492 0.0
C91 C 0.90302 0.27039 0.13696 0.0
H92 H 0.99023 0.22787 0.10366 0.0
H93 H 0.94285 0.29984 0.16093 0.0
H94 H 0.03917 0.19864 0.13088 0.0
H95 H 0.00924 0.17201 0.2083 0.0
H96 H 0.97972 0.38717 0.08612 0.0
H97 H 0.92747 0.20877 0.08888 0.0
H98 H 0.8791 0.2823 0.14712 0.0
C99 C 0.24631 0.98166 0.67638 0.0
C100 C 0.28432 0.97571 0.67683 0.0
N101 N 0.30001 0.9951 0.65699 0.0
N102 N 0.23772 0.00509 0.65657 0.0
C103 C 0.27107 0.01294 0.64506 0.0
H104 H 0.226 0.96859 0.6892 0.0
Co105 Co 0.18805 0.0164 0.6483 0.0
C106 C 0.18726 0.0476 0.59487 0.0
O107 O 0.15604 0.02856 0.59126 0.0
N108 N 0.13708 0.02795 0.64131 0.0
C109 C 0.08654 0.06339 0.63405 0.0
C110 C 0.1248 0.06341 0.63732 0.0
C111 C 0.10525 0.007 0.6411 0.0
N112 N 0.07425 0.02789 0.63643 0.0
O113 O 0.19029 0.05985 0.6705 0.0
H114 H 0.14266 0.08796 0.6369 0.0
H115 H 0.10434 0.97716 0.64448 0.0
O116 O 0.20392 0.04589 0.61718 0.0
C117 C 0.18168 0.05051 0.69385 0.0
O118 O 0.17358 0.01519 0.69857 0.0
N119 N 0.18648 0.9715 0.62882 0.0
C120 C 0.19952 0.89767 0.61285 0.0
C121 C 0.21535 0.92776 0.59912 0.0
C122 C 0.20905 0.96439 0.60766 0.0
C123 C 0.17048 0.94245 0.64213 0.0
C124 C 0.17594 0.90538 0.63416 0.0
H125 H 0.22543 0.98626 0.59864 0.0
H126 H 0.15606 0.94781 0.66039 0.0
H127 H 0.27392 0.02992 0.62764 0.0
H128 H 0.29913 0.95801 0.69062 0.0
H129 H 0.06896 0.08779 0.63102 0.0
H130 H 0.23445 0.9229 0.58294 0.0
H131 H 0.16438 0.88287 0.64593 0.0
C132 C 0.51007 0.27036 0.83233 0.0
C133 C 0.51169 0.23207 0.82907 0.0
N134 N 0.48988 0.21592 0.84747 0.0
N135 N 0.48732 0.27839 0.85266 0.0
C136 C 0.47535 0.24465 0.86148 0.0
H137 H 0.52493 0.29109 0.82086 0.0
Co138 Co 0.47698 0.32688 0.86424 0.0
C139 C 0.45269 0.31963 0.9193 0.0
O140 O 0.47123 0.35067 0.92439 0.0
N141 N 0.46523 0.37678 0.87497 0.0
C142 C 0.42842 0.42469 0.88657 0.0
C143 C 0.43032 0.38661 0.88296 0.0
C144 C 0.48363 0.41005 0.87312 0.0
N145 N 0.46197 0.4395 0.88031 0.0
O146 O 0.43134 0.32648 0.84428 0.0
H147 H 0.40715 0.36725 0.8853 0.0
H148 H 0.51183 0.41335 0.86589 0.0
O149 O 0.45194 0.30658 0.89589 0.0
C150 C 0.43976 0.34149 0.82238 0.0
O151 O 0.47486 0.35166 0.81858 0.0
N152 N 0.5241 0.32723 0.88118 0.0
C153 C 0.60025 0.31816 0.89454 0.0
C154 C 0.57216 0.29554 0.90583 0.0
C155 C 0.53451 0.30057 0.89897 0.0
C156 C 0.55091 0.34862 0.86944 0.0
C157 C 0.5886 0.34604 0.87677 0.0
H158 H 0.51447 0.2805 0.90618 0.0
H159 H 0.54366 0.36582 0.85281 0.0
H160 H 0.45636 0.24107 0.87782 0.0
H161 H 0.5285 0.21724 0.81475 0.0
H162 H 0.40364 0.44045 0.89207 0.0
H163 H 0.57892 0.27225 0.91854 0.0
H164 H 0.60833 0.36469 0.86735 0.0
C165 C 0.26881 0.53836 0.32702 0.0
C166 C 0.30725 0.54109 0.32697 0.0
N167 N 0.32105 0.51831 0.34573 0.0
N168 N 0.25797 0.51391 0.34565 0.0
C169 C 0.29046 0.50188 0.35671 0.0
H170 H 0.24976 0.55371 0.31446 0.0
Co171 Co 0.20706 0.50449 0.35223 0.0
C172 C 0.20067 0.48816 0.40824 0.0
O173 O 0.17057 0.50953 0.40757 0.0
N174 N 0.15507 0.49399 0.3576 0.0
C175 C 0.10532 0.45776 0.36564 0.0
C176 C 0.14372 0.45989 0.36609 0.0
C177 C 0.12244 0.51181 0.35147 0.0
N178 N 0.09175 0.49033 0.35628 0.0
O179 O 0.21085 0.45721 0.33454 0.0
H180 H 0.16241 0.43744 0.37187 0.0
H181 H 0.12084 0.53911 0.34249 0.0
O182 O 0.21909 0.48198 0.38701 0.0
C183 C 0.20464 0.46355 0.31032 0.0
O184 O 0.20036 0.4986 0.3029 0.0
N185 N 0.20384 0.55297 0.36699 0.0
C186 C 0.21176 0.62931 0.37841 0.0
C187 C 0.23015 0.60216 0.39354 0.0
C188 C 0.22654 0.56433 0.38716 0.0
C189 C 0.1861 0.57907 0.3519 0.0
C190 C 0.18895 0.61729 0.35759 0.0
H191 H 0.24456 0.5447 0.39721 0.0
H192 H 0.17231 0.57059 0.33402 0.0
H193 H 0.29162 0.48231 0.37289 0.0
H194 H 0.32375 0.5585 0.31396 0.0
H195 H 0.08873 0.43378 0.37157 0.0
H196 H 0.2495 0.61015 0.40896 0.0
H197 H 0.17496 0.63732 0.34497 0.0
C198 C 0.97828 0.25547 0.82784 0.0
C199 C 0.98242 0.29264 0.82116 0.0
N200 N 1.00176 0.30997 0.84035 0.0
N201 N 0.99498 0.24922 0.85114 0.0
C202 C 0.00946 0.28294 0.85815 0.0
H203 H 0.96296 0.23454 0.81683 0.0
Co204 Co 0.99447 0.20254 0.8682 0.0
C205 C 0.00564 0.22354 0.92325 0.0
O206 O 0.97527 0.20394 0.92848 0.0
N207 N 0.99557 0.15396 0.88425 0.0
C208 C 0.01568 0.10468 0.90736 0.0
C209 C 0.01844 0.14271 0.90396 0.0
C210 C 0.98129 0.12119 0.87489 0.0
N211 N 0.99229 0.09101 0.88905 0.0
O212 O 0.04207 0.19128 0.85258 0.0
H213 H 0.03853 0.16015 0.91408 0.0
H214 H 0.96473 0.11916 0.85717 0.0
O215 O 0.01841 0.22492 0.89975 0.0
C216 C 0.03483 0.17455 0.83107 0.0
O217 O 0.99939 0.16893 0.82491 0.0
N218 N 0.94515 0.21359 0.88125 0.0
C219 C 0.87054 0.23265 0.89416 0.0
C220 C 0.89998 0.25863 0.89702 0.0
C221 C 0.93677 0.24848 0.89085 0.0
C222 C 0.91683 0.1883 0.87772 0.0
C223 C 0.87989 0.19665 0.88492 0.0
H224 H 0.95846 0.26921 0.8936 0.0
H225 H 0.92208 0.16178 0.86851 0.0
H226 H 0.0241 0.28802 0.8764 0.0
H227 H 0.97036 0.3063 0.80418 0.0
H228 H 0.03198 0.088 0.92098 0.0
H229 H 0.89501 0.28722 0.90318 0.0
H230 H 0.85895 0.17493 0.88257 0.0
C231 C 0.27475 0.00376 0.33498 0.0
C232 C 0.23655 0.00325 0.33119 0.0
N233 N 0.21979 0.01563 0.35323 0.0
N234 N 0.28232 0.01651 0.35925 0.0
C235 C 0.24824 0.0236 0.36997 0.0
H236 H 0.29572 0.99433 0.32115 0.0
Co237 Co 0.33123 0.01893 0.37216 0.0
C238 C 0.3255 0.03465 0.42834 0.0
O239 O 0.35195 0.00923 0.43124 0.0
N240 N 0.38186 0.0223 0.38407 0.0
C241 C 0.43361 0.05053 0.39884 0.0
C242 C 0.39562 0.05389 0.39521 0.0
C243 C 0.41276 1.00062 0.38028 0.0
N244 N 0.44453 0.01705 0.38938 0.0
O245 O 0.33767 0.06637 0.35494 0.0
H246 H 0.37917 0.07864 0.39953 0.0
H247 H 0.4126 0.9741 0.3701 0.0
O248 O 0.31368 0.04285 0.40525 0.0
C249 C 0.35464 0.05905 0.33352 0.0
O250 O 0.36375 0.02397 0.3287 0.0
N251 N 0.32441 0.97029 0.38602 0.0
C252 C 0.30355 0.89544 0.39362 0.0
C253 C 0.2868 0.92414 0.40825 0.0
C254 C 0.29691 0.96134 0.40372 0.0
C255 C 0.34095 0.94262 0.37163 0.0
C256 C 0.33151 0.90497 0.37545 0.0
H257 H 0.28032 0.98272 0.41312 0.0
H258 H 0.35915 0.94989 0.35551 0.0
H259 H 0.24428 0.03369 0.38978 0.0
H260 H 0.2222 0.99296 0.31392 0.0
H261 H 0.45214 0.07208 0.40638 0.0
H262 H 0.26457 0.91812 0.42212 0.0
H263 H 0.34402 0.88385 0.36293 0.0
C264 C 0.47291 0.77109 0.83294 0.0
C265 C 0.46952 0.73299 0.82978 0.0
N266 N 0.48404 0.71595 0.8511 0.0
N267 N 0.48957 0.77831 0.85607 0.0
C268 C 0.49636 0.74417 0.86667 0.0
H269 H 0.46322 0.79233 0.81941 0.0
Co270 Co 0.49706 0.82698 0.86814 0.0
C271 C 0.51289 0.82084 0.92422 0.0
O272 O 0.48908 0.84873 0.9272 0.0
N273 N 0.50588 0.87731 0.87916 0.0
C274 C 0.54023 0.92592 0.89265 0.0
C275 C 0.53833 0.88767 0.89092 0.0
C276 C 0.48917 0.91044 0.87302 0.0
N277 N 0.50951 0.94046 0.88111 0.0
O278 O 0.54453 0.82797 0.85051 0.0
H279 H 0.5604 0.8686 0.89681 0.0
H280 H 0.46431 0.91288 0.86105 0.0
O281 O 0.52002 0.80829 0.90116 0.0
C282 C 0.5388 0.84431 0.82866 0.0
O283 O 0.50478 0.85671 0.82355 0.0
N284 N 0.44814 0.82535 0.88269 0.0
C285 C 0.37175 0.81054 0.89104 0.0
C286 C 0.39945 0.79079 0.9048 0.0
C287 C 0.4373 0.79804 0.89999 0.0
C288 C 0.4215 0.84499 0.86926 0.0
C289 C 0.3832 0.83862 0.8735 0.0
H290 H 0.45752 0.77928 0.90867 0.0
H291 H 0.42972 0.86324 0.85344 0.0
H292 H 0.50871 0.74011 0.88583 0.0
H293 H 0.45712 0.719 0.81306 0.0
H294 H 0.56328 0.94172 0.90099 0.0
H295 H 0.39212 0.76779 0.91769 0.0
H296 H 0.36283 0.85417 0.86207 0.0
C297 C 0.76199 0.48685 0.32073 0.0
C298 C 0.79899 0.49299 0.31421 0.0
N299 N 0.81477 0.51449 0.33295 0.0
N300 N 0.75425 0.50435 0.34351 0.0
C301 C 0.78683 0.5216 0.35023 0.0
H302 H 0.74249 0.46903 0.31026 0.0
Co303 Co 0.70816 0.50019 0.36138 0.0
C304 C 0.74257 0.51251 0.41462 0.0
O305 O 0.74103 0.47652 0.41976 0.0
N306 N 0.66056 0.49744 0.37859 0.0
C307 C 0.61428 0.49333 0.40792 0.0
C308 C 0.65255 0.49387 0.40437 0.0
C309 C 0.62623 0.49884 0.36698 0.0
N310 N 0.59758 0.49655 0.38437 0.0
O311 O 0.69421 0.5479 0.3472 0.0
H312 H 0.67272 0.4912 0.41993 0.0
H313 H 0.6222 0.50173 0.34611 0.0
O314 O 0.72974 0.52525 0.3929 0.0
C315 C 0.68095 0.54231 0.32432 0.0
O316 O 0.67878 0.50762 0.31568 0.0
N317 N 0.72142 0.45021 0.37271 0.0
C318 C 0.73941 0.37504 0.38439 0.0
C319 C 0.76756 0.40233 0.38171 0.0
C320 C 0.75809 0.43936 0.37608 0.0
C321 C 0.69385 0.42348 0.37375 0.0
C322 C 0.70201 0.38632 0.38042 0.0
H323 H 0.7807 0.45935 0.37542 0.0
H324 H 0.66512 0.43029 0.36902 0.0
H325 H 0.79068 0.5372 0.36822 0.0
H326 H 0.8138 0.48034 0.29792 0.0
H327 H 0.59997 0.49017 0.42649 0.0
H328 H 0.79704 0.39539 0.38351 0.0
H329 H 0.67893 0.36672 0.38212 0.0
C330 C 0.02988 0.76498 0.83664 0.0
C331 C 0.03292 0.80322 0.83826 0.0
N332 N 0.00481 0.81616 0.85344 0.0
N333 N 1.00009 0.75344 0.85079 0.0
C334 C 0.98503 0.78536 0.8607 0.0
H335 H 0.04836 0.74658 0.82579 0.0
Co336 Co 0.98788 0.70255 0.85364 0.0
C337 C 0.95837 0.69048 0.9068 0.0
O338 O 0.97687 0.65857 0.90657 0.0
N339 N 0.97505 0.65072 0.8551 0.0
C340 C 0.9368 0.60133 0.85711 0.0
C341 C 0.939 0.63962 0.85814 0.0
C342 C 0.99422 0.61808 0.85171 0.0
N343 N 0.9715 0.58751 0.8529 0.0
O344 O 0.94386 0.71045 0.83271 0.0
H345 H 0.91549 0.65835 0.86121 0.0
H346 H 0.02396 0.61648 0.84783 0.0
O347 O 0.9596 0.71188 0.88657 0.0
C348 C 0.95117 0.71229 0.8083 0.0
O349 O 0.98657 0.71272 0.80098 0.0
N350 N 0.03328 0.69571 0.87223 0.0
C351 C 0.10779 0.7081 0.88727 0.0
C352 C 0.07806 0.7207 0.90292 0.0
C353 C 0.04111 0.71498 0.89481 0.0
C354 C 0.06193 0.68142 0.85755 0.0
C355 C 0.09941 0.68685 0.86488 0.0
H356 H 0.01953 0.72991 0.90531 0.0
H357 H 0.05599 0.66958 0.8385 0.0
H358 H 0.96057 0.78597 0.87328 0.0
H359 H 0.05403 0.82027 0.8287 0.0
H360 H 0.9114 0.58504 0.8596 0.0
H361 H 0.0833 0.73756 0.92021 0.0
H362 H 0.12151 0.67759 0.85181 0.0
C363 C 0.77168 0.01163 0.33175 0.0
C364 C 0.73332 0.01528 0.33041 0.0
N365 N 0.71794 0.99598 0.35044 0.0
N366 N 0.78073 0.99003 0.35244 0.0
C367 C 0.74739 0.98065 0.36341 0.0
H368 H 0.79184 0.02456 0.31873 0.0
Co369 Co 0.83048 0.98033 0.36174 0.0
C370 C 0.8304 0.95991 0.41722 0.0
O371 O 0.86051 0.98113 0.4191 0.0
N372 N 0.88171 0.96945 0.37002 0.0
C373 C 0.93094 0.93332 0.37989 0.0
C374 C 0.89261 0.93463 0.37733 0.0
C375 C 0.91457 0.98863 0.36785 0.0
N376 N 0.94486 0.96731 0.37384 0.0
O377 O 0.82841 0.9342 0.34254 0.0
H378 H 0.8737 0.91126 0.38035 0.0
H379 H 0.91695 0.01707 0.36098 0.0
O380 O 0.81437 0.95598 0.39483 0.0
C381 C 0.84052 0.9422 0.3197 0.0
O382 O 0.85012 0.97718 0.315 0.0
N383 N 0.8319 0.0279 0.3778 0.0
C384 C 0.82156 0.10438 0.38876 0.0
C385 C 0.8011 0.0767 0.40225 0.0
C386 C 0.80665 0.0388 0.39651 0.0
C387 C 0.85149 0.0543 0.36423 0.0
C388 C 0.84825 0.09231 0.37026 0.0
H389 H 0.78797 0.01873 0.40549 0.0
H390 H 0.86748 0.04627 0.34717 0.0
H391 H 0.74478 0.96411 0.38108 0.0
H392 H 0.71803 0.03114 0.31581 0.0
H393 H 0.94728 0.90905 0.38558 0.0
H394 H 0.77892 0.08391 0.41583 0.0
H395 H 0.86521 0.11193 0.35927 0.0
C396 C 0.47582 0.74544 0.17473 0.0
C397 C 0.4696 0.7833 0.17567 0.0
N398 N 0.49032 0.79998 0.15683 0.0
N399 N 0.50076 0.7378 0.15567 0.0
C400 C 0.50916 0.77152 0.14503 0.0
H401 H 0.46251 0.72461 0.18701 0.0
Co402 Co 0.51527 0.68888 0.14792 0.0
C403 C 0.53948 0.68792 0.09293 0.0
O404 O 0.52185 0.65561 0.09112 0.0
N405 N 0.5305 0.63883 0.14132 0.0
C406 C 0.56956 0.59176 0.132 0.0
C407 C 0.56638 0.62983 0.13513 0.0
C408 C 0.51273 0.60522 0.1427 0.0
N409 N 0.5358 0.57635 0.13678 0.0
O410 O 0.56058 0.69577 0.16768 0.0
H411 H 0.58896 0.64988 0.13286 0.0
H412 H 0.48361 0.60144 0.14789 0.0
O413 O 0.53979 0.70536 0.11496 0.0
C414 C 0.55327 0.68964 0.19174 0.0
O415 O 0.51855 0.6812 0.19822 0.0
N416 N 0.46866 0.68262 0.13104 0.0
C417 C 0.39218 0.68849 0.11916 0.0
C418 C 0.41912 0.70716 0.10397 0.0
C419 C 0.45709 0.70443 0.11049 0.0
C420 C 0.44282 0.66397 0.1458 0.0
C421 C 0.4046 0.66569 0.13983 0.0
H422 H 0.47632 0.72294 0.10054 0.0
H423 H 0.45149 0.6503 0.16371 0.0
H424 H 0.52801 0.77491 0.12861 0.0
H425 H 0.45114 0.79715 0.18943 0.0
H426 H 0.59494 0.57644 0.12724 0.0
H427 H 0.41081 0.72632 0.08855 0.0
H428 H 0.38482 0.65111 0.15232 0.0
C429 C 0.73888 0.50355 0.68859 0.0
C430 C 0.70167 0.50789 0.69509 0.0
N431 N 0.68372 0.52449 0.67489 0.0
N432 N 0.74483 0.51741 0.6644 0.0
C433 C 0.71089 0.53103 0.65685 0.0
H434 H 0.75981 0.48913 0.70018 0.0
Co435 Co 0.7905 0.5115 0.64607 0.0
C436 C 0.75359 0.51873 0.59303 0.0
O437 O 0.75229 0.48223 0.59017 0.0
N438 N 0.83741 0.50689 0.62803 0.0
C439 C 0.88149 0.49428 0.59817 0.0
C440 C 0.84352 0.49687 0.6028 0.0
C441 C 0.87256 0.51061 0.63813 0.0
N442 N 0.89974 0.50296 0.62041 0.0
O443 O 0.8049 0.56066 0.6575 0.0
H444 H 0.82211 0.49025 0.58865 0.0
H445 H 0.8784 0.51729 0.65837 0.0
O446 O 0.76814 0.53317 0.61368 0.0
C447 C 0.82017 0.55695 0.67996 0.0
O448 O 0.82319 0.52302 0.68982 0.0
N449 N 0.77732 0.46021 0.63784 0.0
C450 C 0.7611 0.38346 0.63083 0.0
C451 C 0.73228 0.41023 0.63222 0.0
C452 C 0.74088 0.44806 0.63562 0.0
C453 C 0.80543 0.43403 0.6386 0.0
C454 C 0.7982 0.39607 0.63409 0.0
H455 H 0.71777 0.46743 0.63538 0.0
H456 H 0.83395 0.44199 0.64307 0.0
H457 H 0.7054 0.54205 0.63749 0.0
H458 H 0.68862 0.49786 0.7129 0.0
H459 H 0.89467 0.48631 0.57988 0.0
H460 H 0.70297 0.40235 0.631 0.0
H461 H 0.8218 0.37698 0.63342 0.0
C462 C 0.02593 0.72205 0.17189 0.0
C463 C 0.02571 0.68365 0.17379 0.0
N464 N 0.00612 0.66992 0.15342 0.0
N465 N 0.00609 0.73267 0.15062 0.0
C466 C 0.99458 0.70009 0.13951 0.0
H467 H 0.03994 0.74112 0.18516 0.0
Co468 Co 0.99898 0.78326 0.14237 0.0
C469 C 0.97882 0.78687 0.08686 0.0
O470 O 0.00237 0.81523 0.08555 0.0
N471 N 0.99088 0.83517 0.1355 0.0
C472 C 0.9565 0.88629 0.12779 0.0
C473 C 0.9569 0.84789 0.1276 0.0
C474 C 0.01049 0.86697 0.14092 0.0
N475 N 0.99013 0.89841 0.13632 0.0
O476 O 0.95262 0.78296 0.16149 0.0
H477 H 0.93317 0.83019 0.1228 0.0
H478 H 0.03813 0.86749 0.14959 0.0
O479 O 0.97344 0.77021 0.10886 0.0
C480 C 0.96094 0.79166 0.18502 0.0
O481 O 0.99639 0.79841 0.19058 0.0
N482 N 0.0466 0.78274 0.12615 0.0
C483 C 0.12164 0.76885 0.11325 0.0
C484 C 0.09252 0.75175 0.0992 0.0
C485 C 0.05533 0.75829 0.10636 0.0
C486 C 0.07468 0.79954 0.14004 0.0
C487 C 0.11237 0.79364 0.13358 0.0
H488 H 0.03401 0.74121 0.09724 0.0
H489 H 0.0681 0.81481 0.15771 0.0
H490 H 0.97791 0.69842 0.1218 0.0
H491 H 0.03945 0.66696 0.18871 0.0
H492 H 0.93288 0.90394 0.12261 0.0
H493 H 0.09846 0.73174 0.08376 0.0
H494 H 0.13404 0.80607 0.14572 0.0
C495 C 0.74324 0.00339 0.67855 0.0
C496 C 0.78126 0.00693 0.68203 0.0
N497 N 0.79879 0.99311 0.66068 0.0
N498 N 0.73641 0.987 0.65526 0.0
C499 C 0.77082 0.98088 0.64479 0.0
H500 H 0.72182 0.01304 0.69197 0.0
Co501 Co 0.68772 0.97942 0.64282 0.0
C502 C 0.69374 0.96976 0.58614 0.0
O503 O 0.66498 0.9928 0.58453 0.0
N504 N 0.63763 0.97071 0.63125 0.0
C505 C 0.58907 0.93878 0.61482 0.0
C506 C 0.62713 0.93854 0.61921 0.0
C507 C 0.60483 0.98948 0.63468 0.0
N508 N 0.57505 0.97086 0.62462 0.0
O509 O 0.68794 0.93016 0.65781 0.0
H510 H 0.64601 0.9158 0.61434 0.0
H511 H 0.60208 0.0158 0.64482 0.0
O512 O 0.70683 0.9607 0.60872 0.0
C513 C 0.67636 0.93456 0.68123 0.0
O514 O 0.66572 0.96816 0.68876 0.0
N515 N 0.68797 0.02958 0.63105 0.0
C516 C 0.69627 0.10736 0.62475 0.0
C517 C 0.71906 0.08202 0.61085 0.0
C518 C 0.71461 0.04346 0.61434 0.0
C519 C 0.66703 0.05369 0.64568 0.0
C520 C 0.6693 0.09237 0.64195 0.0
H521 H 0.73459 0.02509 0.60496 0.0
H522 H 0.65023 0.04313 0.66165 0.0
H523 H 0.77519 0.96912 0.62549 0.0
H524 H 0.79478 0.01911 0.69901 0.0
H525 H 0.57276 0.91633 0.60616 0.0
H526 H 0.74179 0.09155 0.59846 0.0
H527 H 0.65097 0.11013 0.65342 0.0
C528 C 0.48105 0.24438 0.05804 0.0
C529 C 0.46022 0.21376 0.0671 0.0
C530 C 0.47361 0.26023 0.03341 0.0
C531 C 0.4432 0.24645 0.01817 0.0
C532 C 0.42016 0.21749 0.02833 0.0
C533 C 0.42974 0.20064 0.05233 0.0
C534 C 0.49975 0.29016 0.02305 0.0
C535 C 0.3862 0.20335 0.01361 0.0
C536 C 0.42196 0.31382 0.96277 0.0
C537 C 0.44072 0.29668 0.94182 0.0
C538 C 0.41904 0.29587 0.98717 0.0
C539 C 0.43738 0.26107 0.99109 0.0
C540 C 0.4543 0.24262 0.96946 0.0
C541 C 0.45476 0.26026 0.94484 0.0
C542 C 0.3983 0.31522 0.00914 0.0
C543 C 0.47491 0.2059 0.97277 0.0
H544 H 0.50472 0.25439 0.06943 0.0
H545 H 0.41369 0.17684 0.05941 0.0
H546 H 0.51224 0.28084 0.00421 0.0
H547 H 0.48393 0.31635 0.01913 0.0
H548 H 0.52291 0.29669 0.03694 0.0
H549 H 0.36589 0.18943 0.02698 0.0
H550 H 0.37163 0.22654 0.00324 0.0
H551 H 0.39514 0.18246 0.99877 0.0
H552 H 0.41086 0.34195 0.96035 0.0
H553 H 0.46909 0.24687 0.92862 0.0
H554 H 0.41875 0.32847 0.02269 0.0
H555 H 0.3816 0.29467 0.02061 0.0
H556 H 0.37919 0.33742 1.00167 0.0
H557 H 0.49863 0.20969 0.98668 0.0
H558 H 0.48627 0.19509 0.95395 0.0
H559 H 0.45595 0.18441 0.98119 0.0
C560 C 0.21464 0.50768 0.45366 0.0
C561 C 0.21713 0.48003 0.43421 0.0
C562 C 0.22908 0.50175 0.4788 0.0
C563 C 0.2457 0.4668 0.48504 0.0
C564 C 0.24785 0.43839 0.46559 0.0
C565 C 0.23404 0.44558 0.44014 0.0
C566 C 0.2272 0.53337 0.49853 0.0
C567 C 0.26448 0.40048 0.47174 0.0
C568 C 0.31387 0.47801 0.54115 0.0
C569 C 0.29044 0.47239 0.56295 0.0
C570 C 0.30052 0.47323 0.51554 0.0
C571 C 0.26289 0.46182 0.51148 0.0
C572 C 0.24018 0.45251 0.53339 0.0
C573 C 0.25413 0.45819 0.55895 0.0
C574 C 0.32567 0.48405 0.49292 0.0
C575 C 0.20021 0.43931 0.5299 0.0
H576 H 0.20195 0.53453 0.44902 0.0
H577 H 0.23566 0.42411 0.42513 0.0
H578 H 0.21114 0.52435 0.51605 0.0
H579 H 0.25596 0.54086 0.50516 0.0
H580 H 0.21366 0.55893 0.49041 0.0
H581 H 0.26239 0.38082 0.4549 0.0
H582 H 0.2945 0.40352 0.4772 0.0
H583 H 0.24983 0.38797 0.48883 0.0
H584 H 0.34224 0.48835 0.54398 0.0
H585 H 0.23593 0.45337 0.57563 0.0
H586 H 0.31588 0.51109 0.48456 0.0
H587 H 0.32433 0.46281 0.47708 0.0
H588 H 0.35545 0.48739 0.49906 0.0
H589 H 0.18204 0.46361 0.525 0.0
H590 H 0.1891 0.42602 0.548 0.0
H591 H 0.19818 0.41895 0.5135 0.0
C592 C 0.00358 0.25964 0.96435 0.0
C593 C 0.02522 0.24117 0.94546 0.0
C594 C 0.0187 0.26913 0.98878 0.0
C595 C 0.05633 0.25923 0.99466 0.0
C596 C 0.07915 0.24281 0.97497 0.0
C597 C 0.06329 0.23409 0.95039 0.0
C598 C 0.99346 0.28727 0.00896 0.0
C599 C 0.11933 0.23185 0.98045 0.0
C600 C 0.08765 0.30228 0.05894 0.0
C601 C 0.07532 0.27493 0.07675 0.0
C602 C 0.0848 0.29639 0.03176 0.0
C603 C 0.06953 0.2623 0.0223 0.0
C604 C 0.06063 0.23326 0.0402 0.0
C605 C 0.06352 0.23998 0.06721 0.0
C606 C 0.09485 0.32797 0.01337 0.0
C607 C 0.04479 0.19622 0.03099 0.0
H608 H 0.9741 0.2651 0.96041 0.0
H609 H 0.07985 0.21935 0.93583 0.0
H610 H 0.98747 0.26698 0.0249 0.0
H611 H 0.00757 0.3119 0.0179 0.0
H612 H 0.96628 0.29658 1.00042 0.0
H613 H 0.13515 0.22622 0.96209 0.0
H614 H 0.13404 0.25411 0.99167 0.0
H615 H 0.11969 0.20601 0.99256 0.0
H616 H 0.09692 0.32937 0.06613 0.0
H617 H 0.05451 0.21851 0.08087 0.0
H618 H 0.06873 0.3421 0.00676 0.0
H619 H 0.10942 0.31716 0.9957 0.0
H620 H 0.11307 0.3492 0.02302 0.0
H621 H 0.01548 0.20039 0.02412 0.0
H622 H 0.04455 0.17487 0.04685 0.0
H623 H 0.06131 0.18517 0.01426 0.0
C624 C 0.29319 0.08251 0.45683 0.0
C625 C 0.30404 0.04542 0.45188 0.0
C626 C 0.27499 0.09202 0.48049 0.0
C627 C 0.26668 0.06349 0.49901 0.0
C628 C 0.27702 0.02592 0.49362 0.0
C629 C 0.29592 0.01752 0.47034 0.0
C630 C 0.26525 0.13246 0.4859 0.0
C631 C 0.26781 0.99431 0.51231 0.0
C632 C 0.24513 0.07046 0.57141 0.0
C633 C 0.20651 0.06261 0.5713 0.0
C634 C 0.26486 0.07516 0.54773 0.0
C635 C 0.24549 0.07159 0.52355 0.0
C636 C 0.20593 0.06771 0.52354 0.0
C637 C 0.18694 0.0636 0.54741 0.0
C638 C 0.30693 0.08034 0.54861 0.0
C639 C 0.18402 0.06341 0.49835 0.0
H640 H 0.29987 0.10409 0.44261 0.0
H641 H 0.30404 0.98873 0.46639 0.0
H642 H 0.23473 0.13537 0.48979 0.0
H643 H 0.28024 0.14207 0.50376 0.0
H644 H 0.27295 0.15117 0.46935 0.0
H645 H 0.27718 0.96656 0.50485 0.0
H646 H 0.28148 0.99934 0.53153 0.0
H647 H 0.23702 0.99311 0.51572 0.0
H648 H 0.26043 0.0704 0.58976 0.0
H649 H 0.15691 0.05839 0.54713 0.0
H650 H 0.31626 0.10043 0.53333 0.0
H651 H 0.32088 0.05308 0.54466 0.0
H652 H 0.3165 0.09054 0.56808 0.0
H653 H 0.19344 0.08402 0.48348 0.0
H654 H 0.15331 0.06693 0.50146 0.0
H655 H 0.18899 0.03496 0.4902 0.0
C656 C 0.49789 0.79385 0.96744 0.0
C657 C 0.52463 0.80024 0.94785 0.0
C658 C 0.50756 0.7758 0.99081 0.0
C659 C 0.54529 0.76472 0.99508 0.0
C660 C 0.57266 0.77145 0.97542 0.0
C661 C 0.56183 0.78869 0.95172 0.0
C662 C 0.47712 0.76818 0.01079 0.0
C663 C 0.61329 0.76095 0.97961 0.0
C664 C 0.55864 0.74524 0.06741 0.0
C665 C 0.55086 0.7067 0.06825 0.0
C666 C 0.5609 0.76424 0.04329 0.0
C667 C 0.55474 0.74424 0.01963 0.0
C668 C 0.5504 0.70482 0.02037 0.0
C669 C 0.5489 0.68654 0.04463 0.0
C670 C 0.56669 0.80617 0.04329 0.0
C671 C 0.54322 0.68232 0.99577 0.0
H672 H 0.46903 0.8026 0.96431 0.0
H673 H 0.58253 0.79411 0.93661 0.0
H674 H 0.47542 0.73764 0.01485 0.0
H675 H 0.48394 0.78242 0.02952 0.0
H676 H 0.44904 0.77797 0.00414 0.0
H677 H 0.63117 0.76845 0.96256 0.0
H678 H 0.62428 0.77547 0.99726 0.0
H679 H 0.61582 0.73038 0.98323 0.0
H680 H 0.56072 0.76099 0.08552 0.0
H681 H 0.54362 0.65659 0.04502 0.0
H682 H 0.5393 0.82036 0.04014 0.0
H683 H 0.58569 0.81468 0.02711 0.0
H684 H 0.57857 0.81623 0.06217 0.0
H685 H 0.51428 0.68805 0.98869 0.0
H686 H 0.54596 0.65166 0.99921 0.0
H687 H 0.56289 0.69053 0.97995 0.0
C688 C 0.78009 0.52416 0.45422 0.0
C689 C 0.75291 0.53724 0.43664 0.0
C690 C 0.781 0.53683 0.48015 0.0
C691 C 0.75432 0.56382 0.48854 0.0
C692 C 0.73121 0.58171 0.46965 0.0
C693 C 0.73032 0.56779 0.44379 0.0
C694 C 0.80701 0.51738 0.49923 0.0
C695 C 0.70468 0.61284 0.47719 0.0
C696 C 0.71771 0.52719 0.55221 0.0
C697 C 0.74454 0.54138 0.56965 0.0
C698 C 0.7174 0.53809 0.52589 0.0
C699 C 0.74427 0.5645 0.51692 0.0
C700 C 0.76723 0.58343 0.53542 0.0
C701 C 0.76751 0.57125 0.56171 0.0
C702 C 0.69164 0.51749 0.50721 0.0
C703 C 0.79405 0.61394 0.52721 0.0
H704 H 0.79814 0.50106 0.44842 0.0
H705 H 0.70956 0.57839 0.43011 0.0
H706 H 0.82287 0.5383 0.51088 0.0
H707 H 0.7903 0.50009 0.51308 0.0
H708 H 0.82753 0.49877 0.48921 0.0
H709 H 0.7019 0.63333 0.4609 0.0
H710 H 0.67635 0.60104 0.48097 0.0
H711 H 0.7143 0.6278 0.49506 0.0
H712 H 0.69928 0.50472 0.55857 0.0
H713 H 0.78796 0.58278 0.57526 0.0
H714 H 0.70853 0.4996 0.49385 0.0
H715 H 0.67574 0.5377 0.495 0.0
H716 H 0.67114 0.4993 0.51761 0.0
H717 H 0.82254 0.60191 0.52454 0.0
H718 H 0.7961 0.63573 0.54272 0.0
H719 H 0.78524 0.62742 0.50858 0.0
C720 C 0.99513 0.76257 0.04316 0.0
C721 C 0.96734 0.76948 0.06194 0.0
C722 C 0.9859 0.74953 0.01813 0.0
C723 C 0.94766 0.74409 0.01138 0.0
C724 C 0.91931 0.75075 0.03038 0.0
C725 C 0.92957 0.76307 0.05568 0.0
C726 C 0.01723 0.74185 0.99884 0.0
C727 C 0.87827 0.74599 0.02374 0.0
C728 C 0.94039 0.74278 0.93741 0.0
C729 C 0.94458 0.70432 0.93246 0.0
C730 C 0.93712 0.7562 0.96326 0.0
C731 C 0.93842 0.73054 0.98449 0.0
C732 C 0.93865 0.69156 0.97934 0.0
C733 C 0.94148 0.67896 0.9534 0.0
C734 C 0.93592 0.79798 0.9679 0.0
C735 C 0.94023 0.66312 1.00124 0.0
H736 H 0.02437 0.7676 0.04808 0.0
H737 H 0.90811 0.76903 0.07017 0.0
H738 H 0.01553 0.71247 0.99174 0.0
H739 H 0.01432 0.76047 0.98155 0.0
H740 H 0.0455 0.74637 0.00755 0.0
H741 H 0.85989 0.74974 0.04113 0.0
H742 H 0.87014 0.76691 0.00867 0.0
H743 H 0.87309 0.71781 0.01525 0.0
H744 H 0.94244 0.76258 0.92136 0.0
H745 H 0.94397 0.6491 0.94971 0.0
H746 H 0.96424 0.80788 0.97385 0.0
H747 H 0.91612 0.80493 0.98398 0.0
H748 H 0.92742 0.8135 0.94997 0.0
H749 H 0.96888 0.66305 0.00986 0.0
H750 H 0.93383 0.63431 0.9942 0.0
H751 H 0.92022 0.67043 0.01709 0.0
C752 C 0.77521 0.93373 0.44219 0.0
C753 C 0.8122 0.94733 0.44185 0.0
C754 C 0.75588 0.92913 0.46605 0.0
C755 C 0.77383 0.93893 0.48993 0.0
C756 C 0.8121 0.94964 0.48972 0.0
C757 C 0.83086 0.9533 0.46575 0.0
C758 C 0.7154 0.91655 0.46552 0.0
C759 C 0.83231 0.96099 0.51455 0.0
C760 C 0.71538 0.98735 0.54179 0.0
C761 C 0.71405 0.96047 0.56178 0.0
C762 C 0.73421 0.98027 0.51825 0.0
C763 C 0.75139 0.94492 0.5142 0.0
C764 C 0.7494 0.91719 0.53409 0.0
C765 C 0.73126 0.92555 0.55795 0.0
C766 C 0.73657 0.01117 0.49802 0.0
C767 C 0.76644 0.87885 0.53014 0.0
H768 H 0.7607 0.92858 0.42387 0.0
H769 H 0.85968 0.96316 0.46577 0.0
H770 H 0.70953 0.89688 0.48185 0.0
H771 H 0.69677 0.94125 0.46802 0.0
H772 H 0.70809 0.90271 0.44668 0.0
H773 H 0.86308 0.96407 0.51151 0.0
H774 H 0.82103 0.98827 0.5215 0.0
H775 H 0.82755 0.94016 0.53032 0.0
H776 H 0.70238 0.01453 0.54482 0.0
H777 H 0.72989 0.90466 0.57335 0.0
H778 H 0.72412 0.00161 0.47924 0.0
H779 H 0.76644 0.01826 0.49418 0.0
H780 H 0.72176 0.03709 0.50432 0.0
H781 H 0.75607 0.86643 0.51154 0.0
H782 H 0.75973 0.85945 0.54651 0.0
H783 H 0.79743 0.88122 0.52849 0.0
C784 C 0.46354 0.86383 0.16095 0.0
C785 C 0.49106 0.83966 0.15064 0.0
C786 C 0.46435 0.9025 0.15617 0.0
C787 C 0.49286 0.91769 0.14008 0.0
C788 C 0.52019 0.89365 0.12892 0.0
C789 C 0.51919 0.85498 0.13452 0.0
C790 C 0.43471 0.92716 0.16859 0.0
C791 C 0.55061 0.9088 0.11124 0.0
C792 C 0.46681 0.01375 0.11393 0.0
C793 C 0.48496 0.03741 0.13185 0.0
C794 C 0.47123 0.97466 0.11523 0.0
C795 C 0.49369 0.95889 0.13532 0.0
C796 C 0.51327 0.98278 0.15283 0.0
C797 C 0.5089 0.02182 0.15073 0.0
C798 C 0.4505 0.95022 0.09585 0.0
C799 C 0.53697 0.96711 0.17479 0.0
H800 H 0.44099 0.85278 0.17282 0.0
H801 H 0.54074 0.837 0.12643 0.0
H802 H 0.44828 0.94915 0.18075 0.0
H803 H 0.41821 0.94162 0.15316 0.0
H804 H 0.41499 0.91105 0.18116 0.0
H805 H 0.56819 0.88614 0.10268 0.0
H806 H 0.53795 0.9253 0.09505 0.0
H807 H 0.56908 0.92806 0.12246 0.0
H808 H 0.44874 0.0259 0.09909 0.0
H809 H 0.52272 0.04009 0.16471 0.0
H810 H 0.42729 0.93531 0.10597 0.0
H811 H 0.46958 0.9286 0.08763 0.0
H812 H 0.43836 0.96678 0.07947 0.0
H813 H 0.51853 0.95284 0.18923 0.0
H814 H 0.55315 0.9893 0.18513 0.0
H815 H 0.55692 0.94584 0.16717 0.0
C816 C 0.61917 0.50228 0.68442 0.0
C817 C 0.64338 0.52696 0.67113 0.0
C818 C 0.58035 0.50186 0.67947 0.0
C819 C 0.56494 0.5267 0.66069 0.0
C820 C 0.58886 0.55257 0.64778 0.0
C821 C 0.62776 0.55234 0.6531 0.0
C822 C 0.55605 0.4736 0.6936 0.0
C823 C 0.57354 0.5797 0.62776 0.0
C824 C 0.47563 0.48998 0.6289 0.0
C825 C 0.44741 0.50763 0.64366 0.0
C826 C 0.51385 0.49729 0.63344 0.0
C827 C 0.52442 0.52309 0.65322 0.0
C828 C 0.4961 0.54249 0.66732 0.0
C829 C 0.45792 0.53454 0.66237 0.0
C830 C 0.54296 0.47603 0.61783 0.0
C831 C 0.50612 0.57034 0.68847 0.0
H832 H 0.63063 0.48204 0.69803 0.0
H833 H 0.64602 0.57179 0.64293 0.0
H834 H 0.53181 0.48781 0.70299 0.0
H835 H 0.54456 0.45309 0.67931 0.0
H836 H 0.57184 0.45796 0.70888 0.0
H837 H 0.59503 0.60031 0.62126 0.0
H838 H 0.56342 0.56399 0.61036 0.0
H839 H 0.54913 0.59515 0.63592 0.0
H840 H 0.46778 0.46979 0.61401 0.0
H841 H 0.43639 0.54822 0.67394 0.0
H842 H 0.55875 0.45692 0.63101 0.0
H843 H 0.56357 0.49573 0.6091 0.0
H844 H 0.53021 0.45906 0.60187 0.0
H845 H 0.51853 0.55528 0.70542 0.0
H846 H 0.48122 0.58631 0.6954 0.0
H847 H 0.52756 0.59044 0.68126 0.0
C848 C 0.96839 0.45333 0.12097 0.0
C849 C 0.99874 0.43199 0.13017 0.0
C850 C 0.96742 0.49244 0.12434 0.0
C851 C 0.99809 0.51081 0.13654 0.0
C852 C 0.02898 0.48933 0.14572 0.0
C853 C 0.02865 0.45009 0.14276 0.0
C854 C 0.93343 0.51404 0.11507 0.0
C855 C 0.06261 0.50784 0.15833 0.0
C856 C 0.01194 0.61542 0.12406 0.0
C857 C 1.00034 0.63081 0.14794 0.0
C858 C 0.01128 0.57636 0.11999 0.0
C859 C 0.99767 0.5524 0.14005 0.0
C860 C 0.98441 0.56818 0.16379 0.0
C861 C 0.98653 0.60713 0.16759 0.0
C862 C 0.02651 0.56066 0.09466 0.0
C863 C 0.9686 0.54388 0.18537 0.0
H864 H 0.94511 0.4392 0.11146 0.0
H865 H 0.05225 0.43356 0.14962 0.0
H866 H 0.921 0.52988 0.13167 0.0
H867 H 0.94182 0.53485 0.10002 0.0
H868 H 0.9115 0.49544 0.1066 0.0
H869 H 0.08483 0.4873 0.16364 0.0
H870 H 0.07477 0.52893 0.14478 0.0
H871 H 0.05386 0.52295 0.17632 0.0
H872 H 0.02316 0.63387 0.10911 0.0
H873 H 0.97765 0.61929 0.18605 0.0
H874 H 0.0049 0.54317 0.08485 0.0
H875 H 0.05091 0.54221 0.09885 0.0
H876 H 0.03559 0.58305 0.08091 0.0
H877 H 0.9461 0.52548 0.17751 0.0
H878 H 0.95688 0.56075 0.20176 0.0
H879 H 0.99095 0.52539 0.19328 0.0
C880 C 0.8618 0.01996 0.66866 0.0
C881 C 0.83875 0.99408 0.65549 0.0
C882 C 0.90058 0.02152 0.66411 0.0
C883 C 0.91702 0.99695 0.64561 0.0
C884 C 0.89413 0.9708 0.63209 0.0
C885 C 0.85526 0.96959 0.63725 0.0
C886 C 0.92392 0.04992 0.67895 0.0
C887 C 0.91066 0.94433 0.61209 0.0
C888 C 0.00956 0.0343 0.61989 0.0
C889 C 0.03555 0.01598 0.63609 0.0
C890 C 0.97099 0.0265 0.62154 0.0
C891 C 0.95802 0.99994 0.64007 0.0
C892 C 0.98432 0.97985 0.6555 0.0
C893 C 0.02285 0.98801 0.65324 0.0
C894 C 0.944 0.04824 0.6045 0.0
C895 C 0.97164 0.95149 0.67559 0.0
H896 H 0.84952 0.03965 0.68232 0.0
H897 H 0.83791 0.94928 0.62711 0.0
H898 H 0.94712 0.03561 0.6895 0.0
H899 H 0.93688 0.07 0.66503 0.0
H900 H 0.90705 0.06603 0.6934 0.0
H901 H 0.88916 0.92541 0.60344 0.0
H902 H 0.92404 0.96058 0.59608 0.0
H903 H 0.93296 0.92699 0.62127 0.0
H904 H 0.01941 0.05545 0.60629 0.0
H905 H 0.04282 0.97394 0.6659 0.0
H906 H 0.92779 0.06819 0.61679 0.0
H907 H 0.92351 0.02903 0.59507 0.0
H908 H 0.95873 0.06441 0.58898 0.0
H909 H 0.95758 0.96623 0.69204 0.0
H910 H 0.99551 0.935 0.68361 0.0
H911 H 0.95085 0.93187 0.66693 0.0
C912 C 0.45684 0.65278 0.84497 0.0
C913 C 0.48389 0.67616 0.85659 0.0
C914 C 0.45613 0.61409 0.84988 0.0
C915 C 0.48302 0.59813 0.86701 0.0
C916 C 0.51038 0.62144 0.87893 0.0
C917 C 0.5105 0.66018 0.87358 0.0
C918 C 0.42631 0.59032 0.83685 0.0
C919 C 0.53948 0.60544 0.89733 0.0
C920 C 0.45328 0.50452 0.89577 0.0
C921 C 0.47083 0.47897 0.87881 0.0
C922 C 0.45846 0.54335 0.89296 0.0
C923 C 0.48171 0.55709 0.8726 0.0
C924 C 0.50083 0.53142 0.85611 0.0
C925 C 0.4952 0.49267 0.85944 0.0
C926 C 0.43776 0.5697 0.91109 0.0
C927 C 0.52577 0.54492 0.83413 0.0
H928 H 0.43566 0.66479 0.83226 0.0
H929 H 0.53171 0.67788 0.88248 0.0
H930 H 0.43968 0.56764 0.82523 0.0
H931 H 0.40851 0.57672 0.85195 0.0
H932 H 0.40789 0.60695 0.82365 0.0
H933 H 0.55882 0.6273 0.90504 0.0
H934 H 0.52544 0.5915 0.91411 0.0
H935 H 0.55632 0.58375 0.88707 0.0
H936 H 0.43494 0.49408 0.91105 0.0
H937 H 0.5086 0.4732 0.84609 0.0
H938 H 0.41625 0.58548 0.89984 0.0
H939 H 0.45745 0.59056 0.91959 0.0
H940 H 0.42351 0.55461 0.92733 0.0
H941 H 0.50835 0.55888 0.81895 0.0
H942 H 0.54152 0.52158 0.82477 0.0
H943 H 0.54618 0.56597 0.84149 0.0
C944 C 0.87796 0.52486 0.31431 0.0
C945 C 0.85457 0.52096 0.33627 0.0
C946 C 0.91731 0.52529 0.31687 0.0
C947 C 0.93376 0.52131 0.342 0.0
C948 C 0.91025 0.5195 0.36438 0.0
C949 C 0.87097 0.51949 0.36125 0.0
C950 C 0.94123 0.52782 0.29251 0.0
C951 C 0.92651 0.51497 0.39152 0.0
C952 C 0.02698 0.46976 0.34639 0.0
C953 C 0.0526 0.49888 0.35136 0.0
C954 C 0.98849 0.47685 0.34314 0.0
C955 C 0.97498 0.51415 0.34458 0.0
C956 C 1.00071 0.54391 0.34885 0.0
C957 C 0.03923 0.53592 0.35224 0.0
C958 C 0.96219 0.44421 0.33851 0.0
C959 C 0.98745 0.58406 0.35028 0.0
H960 H 0.86541 0.52647 0.295 0.0
H961 H 0.85317 0.51605 0.37829 0.0
H962 H 0.96414 0.54859 0.29525 0.0
H963 H 0.95459 0.50023 0.28868 0.0
H964 H 0.92451 0.53584 0.275 0.0
H965 H 0.90486 0.5183 0.40704 0.0
H966 H 0.93916 0.48664 0.3934 0.0
H967 H 0.9492 0.53575 0.39494 0.0
H968 H 0.037 0.44116 0.34499 0.0
H969 H 0.05873 0.55857 0.35618 0.0
H970 H 0.94696 0.44804 0.31973 0.0
H971 H 0.94082 0.44304 0.35432 0.0
H972 H 0.9772 0.4169 0.33787 0.0
H973 H 0.97122 0.59129 0.33241 0.0
H974 H 0.01115 0.60415 0.35233 0.0
H975 H 0.9683 0.58761 0.36725 0.0
C976 C 0.98216 0.03795 0.85845 0.0
C977 C 0.98533 0.05171 0.88411 0.0
C978 C 0.98057 0.9991 0.85352 0.0
C979 C 0.98202 0.97346 0.87475 0.0
C980 C 0.98298 0.98737 0.90073 0.0
C981 C 0.98468 0.02623 0.90505 0.0
C982 C 0.97956 0.98548 0.82553 0.0
C983 C 0.98438 0.96118 0.92396 0.0
C984 C 0.96205 0.86929 0.86334 0.0
C985 C 0.99851 0.855 0.86023 0.0
C986 C 0.95603 0.90783 0.86802 0.0
C987 C 0.98724 0.93247 0.86982 0.0
C988 C 0.02407 0.91791 0.86729 0.0
C989 C 0.0292 0.87951 0.86255 0.0
C990 C 0.91635 0.92229 0.87061 0.0
C991 C 0.05822 0.94294 0.86943 0.0
H992 H 0.98289 0.05741 0.84217 0.0
H993 H 0.98648 0.03678 0.92493 0.0
H994 H 0.00694 0.97242 0.82051 0.0
H995 H 0.95758 0.96369 0.82304 0.0
H996 H 0.97408 0.00864 0.81147 0.0
H997 H 0.9808 0.9763 0.94284 0.0
H998 H 0.96219 0.93944 0.92234 0.0
H999 H 0.01187 0.94648 0.92432 0.0
H1000 H 0.93825 0.85054 0.8614 0.0
H1001 H 0.05746 0.86855 0.86068 0.0
H1002 H 0.91058 0.94306 0.85493 0.0
H1003 H 0.91285 0.93696 0.88963 0.0
H1004 H 0.89518 0.89945 0.8693 0.0
H1005 H 0.05699 0.96523 0.85428 0.0
H1006 H 0.08494 0.92719 0.867 0.0
H1007 H 0.05862 0.95703 0.88882 0.0
C1008 C 0.51016 0.01618 0.40481 0.0
C1009 C 0.48302 0.00491 0.38646 0.0
C1010 C 0.5486 0.01002 0.40042 0.0
C1011 C 0.56034 0.99208 0.37707 0.0
C1012 C 0.53296 0.97842 0.35926 0.0
C1013 C 0.49458 0.98498 0.36417 0.0
C1014 C 0.57672 0.02488 0.42003 0.0
C1015 C 0.54426 0.95902 0.33418 0.0
C1016 C 0.65438 0.02379 0.34983 0.0
C1017 C 0.67849 0.99445 0.35719 0.0
C1018 C 0.61597 0.02297 0.35591 0.0
C1019 C 0.60098 0.99206 0.36983 0.0
C1020 C 0.62504 0.9623 0.37742 0.0
C1021 C 0.66354 0.96386 0.37104 0.0
C1022 C 0.59148 0.05555 0.34767 0.0
C1023 C 0.61011 0.92887 0.39227 0.0
H1024 H 0.50131 0.03098 0.4223 0.0
H1025 H 0.47385 0.97636 0.34984 0.0
H1026 H 0.59795 0.00314 0.4248 0.0
H1027 H 0.59192 0.0491 0.41142 0.0
H1028 H 0.56308 0.03423 0.43849 0.0
H1029 H 0.5199 0.94566 0.32424 0.0
H1030 H 0.55688 0.9798 0.3206 0.0
H1031 H 0.56584 0.93728 0.33812 0.0
H1032 H 0.66565 0.04792 0.33965 0.0
H1033 H 0.68184 0.94094 0.37663 0.0
H1034 H 0.57908 0.06912 0.36522 0.0
H1035 H 0.56787 0.04537 0.33536 0.0
H1036 H 0.60733 0.07706 0.33645 0.0
H1037 H 0.59745 0.93818 0.41104 0.0
H1038 H 0.63238 0.90791 0.39657 0.0
H1039 H 0.58754 0.91504 0.38077 0.0
C1040 C 0.48123 0.16239 0.87768 0.0
C1041 C 0.48547 0.17622 0.85212 0.0
C1042 C 0.48081 0.12359 0.88265 0.0
C1043 C 0.48446 0.09801 0.86154 0.0
C1044 C 0.48678 0.11185 0.83558 0.0
C1045 C 0.48743 0.15074 0.83122 0.0
C1046 C 0.47856 0.11009 0.91064 0.0
C1047 C 0.49032 0.08561 0.81248 0.0
C1048 C 0.53296 0.00504 0.87451 0.0
C1049 C 0.5027 0.9798 0.87596 0.0
C1050 C 0.52723 0.04342 0.87011 0.0
C1051 C 0.49027 0.05721 0.86673 0.0
C1052 C 0.45949 0.032 0.86785 0.0
C1053 C 0.46606 0.99358 0.87248 0.0
C1054 C 0.56092 0.06921 0.86897 0.0
C1055 C 0.41969 0.04566 0.86419 0.0
H1056 H 0.47998 0.1819 0.89394 0.0
H1057 H 0.49003 0.16128 0.8114 0.0
H1058 H 0.4573 0.08749 0.91253 0.0
H1059 H 0.50609 0.09812 0.91653 0.0
H1060 H 0.47132 0.13308 0.92445 0.0
H1061 H 0.48777 0.10057 0.79346 0.0
H1062 H 0.51806 0.0714 0.81309 0.0
H1063 H 0.46844 0.06347 0.81339 0.0
H1064 H 0.56144 0.99479 0.87649 0.0
H1065 H 0.44251 0.97441 0.87371 0.0
H1066 H 0.558 0.09189 0.88372 0.0
H1067 H 0.56252 0.08273 0.84942 0.0
H1068 H 0.58776 0.05418 0.87264 0.0
H1069 H 0.41289 0.06699 0.8793 0.0
H1070 H 0.39885 0.02252 0.8655 0.0
H1071 H 0.41678 0.05944 0.84481 0.0
C1072 C 0.3858 0.54329 0.34793 0.0
C1073 C 0.36031 0.51391 0.35256 0.0
C1074 C 0.42432 0.53931 0.3532 0.0
C1075 C 0.43802 0.5051 0.36354 0.0
C1076 C 0.41247 0.47544 0.36865 0.0
C1077 C 0.37392 0.48022 0.36315 0.0
C1078 C 0.45039 0.57181 0.34766 0.0
C1079 C 0.42594 0.43856 0.37971 0.0
C1080 C 0.54298 0.48675 0.35479 0.0
C1081 C 0.55753 0.49777 0.3792 0.0
C1082 C 0.50412 0.48814 0.34962 0.0
C1083 C 0.47905 0.50089 0.36928 0.0
C1084 C 0.49349 0.51169 0.39401 0.0
C1085 C 0.5324 0.51005 0.39863 0.0
C1086 C 0.48991 0.47639 0.32297 0.0
C1087 C 0.46787 0.52575 0.41547 0.0
H1088 H 0.37559 0.56972 0.3403 0.0
H1089 H 0.35456 0.45731 0.36663 0.0
H1090 H 0.46487 0.58051 0.36594 0.0
H1091 H 0.47242 0.56311 0.33352 0.0
H1092 H 0.43532 0.59648 0.33949 0.0
H1093 H 0.40258 0.41833 0.38271 0.0
H1094 H 0.44685 0.42578 0.36628 0.0
H1095 H 0.44024 0.44329 0.39875 0.0
H1096 H 0.56194 0.47675 0.33974 0.0
H1097 H 0.54319 0.5192 0.41741 0.0
H1098 H 0.47639 0.50063 0.31311 0.0
H1099 H 0.46822 0.45423 0.32506 0.0
H1100 H 0.51277 0.46567 0.31018 0.0
H1101 H 0.45395 0.55207 0.40911 0.0
H1102 H 0.48325 0.53132 0.43402 0.0
H1103 H 0.44539 0.50494 0.4194 0.0
C1104 C 0.01422 0.37205 0.82084 0.0
C1105 C 0.00692 0.34995 0.84298 0.0
C1106 C 0.01419 0.41144 0.82234 0.0
C1107 C 0.00583 0.42923 0.84648 0.0
C1108 C 1.00022 0.40699 0.86918 0.0
C1109 C 1.00114 0.36764 0.86719 0.0
C1110 C 0.02112 0.43396 0.79777 0.0
C1111 C 0.99066 0.42467 0.89522 0.0
C1112 C 0.0178 0.5352 0.85509 0.0
C1113 C 0.98121 0.5482 0.85008 0.0
C1114 C 0.02658 0.49666 0.85358 0.0
C1115 C 0.99802 0.47043 0.84724 0.0
C1116 C 0.96128 0.48346 0.84178 0.0
C1117 C 0.9535 0.52198 0.84298 0.0
C1118 C 0.06626 0.48394 0.85908 0.0
C1119 C 0.92986 0.4566 0.83498 0.0
H1120 H 0.01908 0.35841 0.80216 0.0
H1121 H 0.9951 0.35067 0.88429 0.0
H1122 H 0.99437 0.44676 0.79107 0.0
H1123 H 0.04113 0.45716 0.80173 0.0
H1124 H 0.03246 0.41636 0.78163 0.0
H1125 H 0.99106 0.40394 0.91147 0.0
H1126 H 0.01067 0.44758 0.89989 0.0
H1127 H 0.96218 0.43727 0.89416 0.0
H1128 H 0.03945 0.55499 0.86068 0.0
H1129 H 0.9254 0.53148 0.83832 0.0
H1130 H 0.07688 0.46677 0.84252 0.0
H1131 H 0.06669 0.4659 0.87678 0.0
H1132 H 0.08571 0.50791 0.86224 0.0
H1133 H 0.93706 0.4407 0.81699 0.0
H1134 H 0.90266 0.47119 0.83172 0.0
H1135 H 0.92613 0.4359 0.85101 0.0
C1136 C 0.01139 0.95035 0.36672 0.0
C1137 C 0.98411 0.97761 0.37238 0.0
C1138 C 0.04963 0.95965 0.36508 0.0
C1139 C 0.06112 0.99723 0.36917 0.0
C1140 C 0.03384 0.02492 0.37508 0.0
C1141 C 0.99564 0.0148 0.37656 0.0
C1142 C 0.0777 0.92926 0.3585 0.0
C1143 C 0.045 0.06525 0.37968 0.0
C1144 C 0.16561 0.00868 0.3833 0.0
C1145 C 0.17982 0.01606 0.35818 0.0
C1146 C 0.12675 0.00432 0.38749 0.0
C1147 C 0.10157 0.0074 0.36606 0.0
C1148 C 0.11565 0.01679 0.34097 0.0
C1149 C 0.15451 0.02104 0.33737 0.0
C1150 C 0.11289 0.99449 0.41458 0.0
C1151 C 0.08985 0.02055 0.31761 0.0
H1152 H 0.00279 0.9217 0.36302 0.0
H1153 H 0.97483 0.03593 0.38124 0.0
H1154 H 0.09195 0.93599 0.33975 0.0
H1155 H 0.09971 0.92779 0.37388 0.0
H1156 H 0.06434 0.90121 0.35667 0.0
H1157 H 0.02058 0.08318 0.38489 0.0
H1158 H 0.06607 0.0669 0.39568 0.0
H1159 H 0.0584 0.07681 0.36179 0.0
H1160 H 0.18493 0.00457 0.39945 0.0
H1161 H 0.16524 0.02748 0.31804 0.0
H1162 H 0.1029 0.965 0.41476 0.0
H1163 H 0.08872 0.01252 0.42006 0.0
H1164 H 0.13523 0.99759 0.42964 0.0
H1165 H 0.07738 0.99282 0.31288 0.0
H1166 H 0.10479 0.03109 0.29997 0.0
H1167 H 0.06632 0.0399 0.32215 0.0
C1168 C 0.49587 0.354 0.13849 0.0
C1169 C 0.52647 0.33837 0.15215 0.0
C1170 C 0.49287 0.393 0.13467 0.0
C1171 C 0.52078 0.41708 0.14506 0.0
C1172 C 0.55137 0.40169 0.1591 0.0
C1173 C 0.55403 0.36274 0.16221 0.0
C1174 C 0.46008 0.40841 0.11928 0.0
C1175 C 0.58169 0.42641 0.17066 0.0
C1176 C 0.54335 0.51334 0.11796 0.0
C1177 C 0.52741 0.53688 0.13692 0.0
C1178 C 0.53919 0.47427 0.11939 0.0
C1179 C 0.51922 0.45834 0.14064 0.0
C1180 C 0.50159 0.48211 0.15921 0.0
C1181 C 0.50565 0.52121 0.15699 0.0
C1182 C 0.55783 0.45002 0.0989 0.0
C1183 C 0.48051 0.46625 0.18235 0.0
H1184 H 0.47411 0.33598 0.13073 0.0
H1185 H 0.57821 0.35164 0.17239 0.0
H1186 H 0.44424 0.42887 0.13137 0.0
H1187 H 0.47052 0.42367 0.10179 0.0
H1188 H 0.44049 0.38603 0.11271 0.0
H1189 H 0.60259 0.41022 0.18223 0.0
H1190 H 0.59673 0.44138 0.15475 0.0
H1191 H 0.56896 0.44799 0.18358 0.0
H1192 H 0.55974 0.52559 0.10225 0.0
H1193 H 0.49355 0.53946 0.17173 0.0
H1194 H 0.53792 0.42848 0.09155 0.0
H1195 H 0.58202 0.43502 0.10776 0.0
H1196 H 0.56822 0.46672 0.08202 0.0
H1197 H 0.4603 0.44444 0.17586 0.0
H1198 H 0.46497 0.48826 0.19331 0.0
H1199 H 0.50068 0.4526 0.19593 0.0
C1200 C 0.11627 0.48772 0.66051 0.0
C1201 C 0.13932 0.50643 0.64256 0.0
C1202 C 0.07727 0.48502 0.65649 0.0
C1203 C 0.0608 0.50254 0.63435 0.0
C1204 C 0.08424 0.52101 0.61592 0.0
C1205 C 0.12334 0.52241 0.62015 0.0
C1206 C 0.0536 0.46426 0.67629 0.0
C1207 C 0.06787 0.54066 0.59235 0.0
C1208 C 0.96211 0.47474 0.61257 0.0
C1209 C 0.9399 0.50246 0.62445 0.0
C1210 C 1.00135 0.47413 0.61587 0.0
C1211 C 0.01902 0.50248 0.63094 0.0
C1212 C 0.99669 0.53065 0.64293 0.0
C1213 C 0.95737 0.53001 0.63981 0.0
C1214 C 0.02387 0.44298 0.60341 0.0
C1215 C 0.01437 0.56179 0.65876 0.0
H1216 H 0.12887 0.47583 0.67797 0.0
H1217 H 0.14132 0.53751 0.60665 0.0
H1218 H 0.03466 0.48422 0.68647 0.0
H1219 H 0.0356 0.44324 0.66628 0.0
H1220 H 0.07101 0.44968 0.69122 0.0
H1221 H 0.08994 0.55287 0.57953 0.0
H1222 H 0.05074 0.52081 0.58062 0.0
H1223 H 0.04889 0.56352 0.5989 0.0
H1224 H 0.94862 0.45312 0.60097 0.0
H1225 H 0.94028 0.55161 0.64882 0.0
H1226 H 0.04006 0.42775 0.61865 0.0
H1227 H 0.04448 0.45486 0.58939 0.0
H1228 H 0.0058 0.42255 0.59281 0.0
H1229 H 0.02995 0.54988 0.67564 0.0
H1230 H 0.99322 0.58203 0.66628 0.0
H1231 H 0.035 0.57723 0.64653 0.0
C1232 C 0.03715 0.94973 0.13793 0.0
C1233 C 1.00021 0.93696 0.14154 0.0
C1234 C 0.04642 0.98783 0.14164 0.0
C1235 C 0.01814 0.0136 0.14936 0.0
C1236 C 0.98104 1.00058 0.15357 0.0
C1237 C 0.97259 0.96258 0.1496 0.0
C1238 C 0.08627 1.00062 0.1369 0.0
C1239 C 0.95007 0.02687 0.16215 0.0
C1240 C 0.03881 0.10685 0.1825 0.0
C1241 C 0.03114 0.13257 0.16236 0.0
C1242 C 0.03668 0.06796 0.17821 0.0
C1243 C 0.02678 0.05428 0.15309 0.0
C1244 C 0.02112 0.07999 0.13228 0.0
C1245 C 0.02332 0.11879 0.13716 0.0
C1246 C 0.04305 0.04162 0.20094 0.0
C1247 C 0.01065 0.06663 0.10518 0.0
H1248 H 0.05853 0.9301 0.13158 0.0
H1249 H 0.94418 0.9528 0.15298 0.0
H1250 H 0.08678 0.02151 0.12079 0.0
H1251 H 0.09749 0.0147 0.15464 0.0
H1252 H 0.10518 0.97699 0.13165 0.0
H1253 H 0.9228 0.01219 0.16487 0.0
H1254 H 0.95786 0.04063 0.18088 0.0
H1255 H 0.94623 0.04934 0.14735 0.0
H1256 H 0.0456 0.11718 0.20189 0.0
H1257 H 0.01709 0.13827 0.12148 0.0
H1258 H 0.06287 0.01898 0.19534 0.0
H1259 H 0.01608 0.02807 0.20639 0.0
H1260 H 0.05434 0.05635 0.21845 0.0
H1261 H 0.02982 0.04388 0.09875 0.0
H1262 H 0.01159 0.08964 0.09051 0.0
H1263 H 0.98175 0.0549 0.1055 0.0
C1264 C 0.35552 0.02468 0.63608 0.0
C1265 C 0.33916 0.99446 0.64952 0.0
C1266 C 0.39408 0.02465 0.62985 0.0
C1267 C 0.41671 0.99375 0.63734 0.0
C1268 C 0.40015 0.9629 0.65039 0.0
C1269 C 0.36169 0.96355 0.65614 0.0
C1270 C 0.4107 0.05788 0.61568 0.0
C1271 C 0.42316 0.92924 0.6586 0.0
C1272 C 0.51068 0.96952 0.60667 0.0
C1273 C 0.53586 0.98091 0.62627 0.0
C1274 C 0.47188 0.97567 0.60921 0.0
C1275 C 0.45788 0.99334 0.63206 0.0
C1276 C 0.48333 0.00651 0.65134 0.0
C1277 C 0.52203 1.00024 0.64817 0.0
C1278 C 0.44576 0.96158 0.58806 0.0
C1279 C 0.46954 0.02524 0.67608 0.0
H1280 H 0.3384 0.0487 0.63094 0.0
H1281 H 0.34924 0.93959 0.66583 0.0
H1282 H 0.43123 0.07228 0.6286 0.0
H1283 H 0.42619 0.04841 0.59802 0.0
H1284 H 0.3889 0.07845 0.60962 0.0
H1285 H 0.40594 0.9075 0.66855 0.0
H1286 H 0.43672 0.91636 0.64121 0.0
H1287 H 0.44592 0.93814 0.67212 0.0
H1288 H 0.52134 0.95515 0.5895 0.0
H1289 H 0.54127 0.00884 0.66349 0.0
H1290 H 0.42519 0.98363 0.5826 0.0
H1291 H 0.42957 0.93722 0.59552 0.0
H1292 H 0.46121 0.9527 0.57019 0.0
H1293 H 0.44925 0.04786 0.67132 0.0
H1294 H 0.49292 0.03738 0.68777 0.0
H1295 H 0.45456 0.00437 0.68837 0.0
C1296 C 0.83121 0.25917 0.10611 0.0
C1297 C 0.85973 0.2324 0.10911 0.0
C1298 C 0.7936 0.24829 0.10307 0.0
C1299 C 0.78429 0.20966 0.10319 0.0
C1300 C 0.81326 0.18246 0.10447 0.0
C1301 C 0.85074 0.19418 0.10736 0.0
C1302 C 0.76362 0.2782 0.1015 0.0
C1303 C 0.80448 0.14104 0.10468 0.0
C1304 C 0.6897 0.1884 0.13362 0.0
C1305 C 0.66683 0.18264 0.11156 0.0
C1306 C 0.72813 0.19592 0.13106 0.0
C1307 C 0.74427 0.19819 0.10578 0.0
C1308 C 0.72167 0.19171 0.08338 0.0
C1309 C 0.68315 0.18399 0.08653 0.0
C1310 C 0.7512 0.20272 0.15549 0.0
C1311 C 0.73795 0.19394 0.05613 0.0
H1312 H 0.83821 0.28875 0.10704 0.0
H1313 H 0.87272 0.1734 0.10977 0.0
H1314 H 0.74368 0.27203 0.08535 0.0
H1315 H 0.74728 0.27856 0.12002 0.0
H1316 H 0.77573 0.30658 0.09837 0.0
H1317 H 0.83009 0.12366 0.10188 0.0
H1318 H 0.79158 0.13344 0.12375 0.0
H1319 H 0.78388 0.13398 0.08912 0.0
H1320 H 0.67732 0.18839 0.15302 0.0
H1321 H 0.66574 0.17936 0.0694 0.0
H1322 H 0.76151 0.2321 0.15568 0.0
H1323 H 0.77619 0.18412 0.15567 0.0
H1324 H 0.73486 0.19777 0.17371 0.0
H1325 H 0.74719 0.2231 0.05207 0.0
H1326 H 0.71734 0.18549 0.04087 0.0
H1327 H 0.76312 0.17571 0.05454 0.0
C1328 C 0.2708 0.68499 0.58945 0.0
C1329 C 0.27508 0.66964 0.61462 0.0
C1330 C 0.25854 0.72215 0.586 0.0
C1331 C 0.25084 0.74458 0.60825 0.0
C1332 C 0.25579 0.72953 0.63367 0.0
C1333 C 0.26749 0.69224 0.63653 0.0
C1334 C 0.25333 0.73723 0.55861 0.0
C1335 C 0.24818 0.75266 0.65792 0.0
C1336 C 0.25058 0.85078 0.60582 0.0
C1337 C 0.21205 0.8587 0.6077 0.0
C1338 C 0.26358 0.81369 0.60471 0.0
C1339 C 0.23738 0.78383 0.60528 0.0
C1340 C 0.19835 0.79171 0.60574 0.0
C1341 C 0.18614 0.82911 0.60718 0.0
C1342 C 0.30541 0.80648 0.60459 0.0
C1343 C 0.16954 0.76061 0.60599 0.0
H1344 H 0.27688 0.6679 0.57241 0.0
H1345 H 0.2697 0.68054 0.65606 0.0
H1346 H 0.22367 0.74594 0.55573 0.0
H1347 H 0.27104 0.76251 0.55573 0.0
H1348 H 0.26068 0.71623 0.54336 0.0
H1349 H 0.25479 0.7372 0.67625 0.0
H1350 H 0.26517 0.77877 0.65749 0.0
H1351 H 0.21817 0.76107 0.65844 0.0
H1352 H 0.27075 0.87355 0.60664 0.0
H1353 H 0.15635 0.83523 0.60848 0.0
H1354 H 0.31289 0.7861 0.58901 0.0
H1355 H 0.31391 0.79398 0.6236 0.0
H1356 H 0.32189 0.8326 0.60152 0.0
H1357 H 0.17558 0.73999 0.59025 0.0
H1358 H 0.14048 0.77137 0.60338 0.0
H1359 H 0.171 0.74541 0.62494 0.0
C1360 C 0.82169 0.27421 0.91571 0.0
C1361 C 0.83046 0.24388 0.89907 0.0
C1362 C 0.78486 0.28808 0.91772 0.0
C1363 C 0.75547 0.2698 0.90412 0.0
C1364 C 0.7634 0.23752 0.889 0.0
C1365 C 0.80073 0.22568 0.88602 0.0
C1366 C 0.77782 0.32354 0.93317 0.0
C1367 C 0.73259 0.2162 0.87505 0.0
C1368 C 0.65339 0.28978 0.92112 0.0
C1369 C 0.64121 0.30977 0.89886 0.0
C1370 C 0.69056 0.27682 0.92334 0.0
C1371 C 0.71698 0.28604 0.90369 0.0
C1372 C 0.70589 0.30868 0.88232 0.0
C1373 C 0.66814 0.31923 0.87974 0.0
C1374 C 0.70091 0.25144 0.94591 0.0
C1375 C 0.73361 0.32057 0.86147 0.0
H1376 H 0.84361 0.28795 0.92682 0.0
H1377 H 0.80629 0.2028 0.87266 0.0
H1378 H 0.76894 0.3462 0.9196 0.0
H1379 H 0.75467 0.31941 0.9474 0.0
H1380 H 0.80321 0.3331 0.94396 0.0
H1381 H 0.7424 0.18848 0.8678 0.0
H1382 H 0.70827 0.21171 0.8883 0.0
H1383 H 0.72249 0.2327 0.85802 0.0
H1384 H 0.6338 0.28319 0.93665 0.0
H1385 H 0.65996 0.33374 0.86206 0.0
H1386 H 0.72659 0.26167 0.95593 0.0
H1387 H 0.70727 0.22297 0.93827 0.0
H1388 H 0.67795 0.24908 0.96056 0.0
H1389 H 0.76001 0.33089 0.87056 0.0
H1390 H 0.7221 0.34301 0.84867 0.0
H1391 H 0.74088 0.29616 0.84899 0.0
C1392 C 0.24984 0.85022 0.39501 0.0
C1393 C 0.28879 0.85655 0.39496 0.0
C1394 C 0.23519 0.81373 0.39406 0.0
C1395 C 0.26008 0.78284 0.39301 0.0
C1396 C 0.29942 0.78896 0.39371 0.0
C1397 C 0.31331 0.82579 0.39461 0.0
C1398 C 0.1931 0.80835 0.39317 0.0
C1399 C 0.32682 0.75664 0.39277 0.0
C1400 C 0.22453 0.68456 0.40763 0.0
C1401 C 0.22046 0.6697 0.38231 0.0
C1402 C 0.23682 0.72158 0.41147 0.0
C1403 C 0.24508 0.74427 0.38946 0.0
C1404 C 0.23992 0.72983 0.36387 0.0
C1405 C 0.2278 0.69271 0.36061 0.0
C1406 C 0.24186 0.73612 0.43904 0.0
C1407 C 0.24831 0.75323 0.3399 0.0
H1408 H 0.23071 0.87388 0.3948 0.0
H1409 H 0.34341 0.83058 0.39477 0.0
H1410 H 0.18489 0.79635 0.37394 0.0
H1411 H 0.18412 0.78815 0.40847 0.0
H1412 H 0.1776 0.83509 0.39607 0.0
H1413 H 0.35642 0.76602 0.39505 0.0
H1414 H 0.32031 0.73613 0.40846 0.0
H1415 H 0.3241 0.74174 0.37377 0.0
H1416 H 0.2186 0.66701 0.42447 0.0
H1417 H 0.22546 0.6813 0.34099 0.0
H1418 H 0.2255 0.76233 0.44179 0.0
H1419 H 0.27185 0.7431 0.44247 0.0
H1420 H 0.23282 0.71541 0.45403 0.0
H1421 H 0.23229 0.77991 0.34063 0.0
H1422 H 0.24117 0.73839 0.3214 0.0
H1423 H 0.27861 0.76057 0.33949 0.0
C1424 C 0.17777 0.69874 0.88894 0.0
C1425 C 0.1465 0.72228 0.89182 0.0
C1426 C 0.21447 0.71311 0.89074 0.0
C1427 C 0.21991 0.75198 0.89524 0.0
C1428 C 0.18844 0.77567 0.8988 0.0
C1429 C 0.15217 0.76055 0.89706 0.0
C1430 C 0.24741 0.68693 0.88707 0.0
C1431 C 0.19302 0.8173 0.90335 0.0
C1432 C 0.31616 0.78694 0.91657 0.0
C1433 C 0.33179 0.79842 0.89262 0.0
C1434 C 0.27975 0.77181 0.91779 0.0
C1435 C 0.25835 0.76835 0.89452 0.0
C1436 C 0.27359 0.78068 0.8704 0.0
C1437 C 0.31013 0.79539 0.86973 0.0
C1438 C 0.26439 0.75902 0.94387 0.0
C1439 C 0.25154 0.77769 0.84518 0.0
H1440 H 0.1735 0.66916 0.88496 0.0
H1441 H 0.12815 0.7791 0.89874 0.0
H1442 H 0.26285 0.69455 0.86896 0.0
H1443 H 0.26735 0.68978 0.90367 0.0
H1444 H 0.23852 0.65713 0.88557 0.0
H1445 H 0.1658 0.8314 0.90747 0.0
H1446 H 0.21235 0.82248 0.92002 0.0
H1447 H 0.20573 0.83047 0.88576 0.0
H1448 H 0.33258 0.78946 0.93438 0.0
H1449 H 0.32216 0.8034 0.85105 0.0
H1450 H 0.25768 0.72864 0.94302 0.0
H1451 H 0.23783 0.77404 0.9483 0.0
H1452 H 0.2845 0.76389 0.96018 0.0
H1453 H 0.24505 0.74784 0.84099 0.0
H1454 H 0.26703 0.78955 0.82819 0.0
H1455 H 0.22435 0.79268 0.84711 0.0
C1456 C 0.79546 0.15897 0.41483 0.0
C1457 C 0.81205 0.14515 0.39172 0.0
C1458 C 0.78235 0.19609 0.4165 0.0
C1459 C 0.78776 0.22069 0.39511 0.0
C1460 C 0.80629 0.20776 0.37234 0.0
C1461 C 0.81719 0.17009 0.37064 0.0
C1462 C 0.76139 0.2085 0.44073 0.0
C1463 C 0.81383 0.23349 0.3494 0.0
C1464 C 0.7272 0.30546 0.38044 0.0
C1465 C 0.74948 0.33505 0.38999 0.0
C1466 C 0.73804 0.26792 0.38378 0.0
C1467 C 0.7729 0.25964 0.3958 0.0
C1468 C 0.79506 0.28903 0.40616 0.0
C1469 C 0.78259 0.3262 0.40378 0.0
C1470 C 0.71285 0.2372 0.37338 0.0
C1471 C 0.83302 0.28149 0.41834 0.0
H1472 H 0.79198 0.14073 0.4316 0.0
H1473 H 0.82874 0.16028 0.35228 0.0
H1474 H 0.77471 0.23379 0.44932 0.0
H1475 H 0.73218 0.2163 0.43534 0.0
H1476 H 0.76029 0.18623 0.45593 0.0
H1477 H 0.83254 0.22036 0.33458 0.0
H1478 H 0.78695 0.24094 0.3397 0.0
H1479 H 0.82701 0.25997 0.35623 0.0
H1480 H 0.70183 0.31133 0.36949 0.0
H1481 H 0.79951 0.34836 0.41223 0.0
H1482 H 0.71027 0.21418 0.38791 0.0
H1483 H 0.72528 0.22511 0.35533 0.0
H1484 H 0.68427 0.24773 0.3686 0.0
H1485 H 0.83079 0.25985 0.43384 0.0
H1486 H 0.84573 0.30716 0.42696 0.0
H1487 H 0.85239 0.2704 0.40315 0.0
C1488 C 0.32888 0.70303 0.13786 0.0
C1489 C 0.35157 0.69703 0.11577 0.0
C1490 C 0.29133 0.71418 0.1353 0.0
C1491 C 0.27608 0.71994 0.11001 0.0
C1492 C 0.29856 0.71357 0.08757 0.0
C1493 C 0.33605 0.70205 0.09072 0.0
C1494 C 0.26817 0.7205 0.15972 0.0
C1495 C 0.28318 0.7195 0.06031 0.0
C1496 C 0.16976 0.71859 0.10727 0.0
C1497 C 0.16114 0.75691 0.10924 0.0
C1498 C 0.20712 0.70623 0.10633 0.0
C1499 C 0.23657 0.73284 0.10734 0.0
C1500 C 0.22808 0.77165 0.10822 0.0
C1501 C 0.1904 0.78323 0.1093 0.0
C1502 C 0.21503 0.6646 0.10566 0.0
C1503 C 0.25879 0.80086 0.10908 0.0
H1504 H 0.34078 0.70018 0.15731 0.0
H1505 H 0.35333 0.69726 0.07355 0.0
H1506 H 0.25918 0.75026 0.16077 0.0
H1507 H 0.24235 0.70307 0.15906 0.0
H1508 H 0.28392 0.71359 0.1779 0.0
H1509 H 0.30417 0.71285 0.04489 0.0
H1510 H 0.25799 0.70169 0.05722 0.0
H1511 H 0.27417 0.74911 0.05795 0.0
H1512 H 0.14729 0.69805 0.10767 0.0
H1513 H 0.18379 0.81286 0.11063 0.0
H1514 H 0.22792 0.65585 0.12449 0.0
H1515 H 0.2354 0.6579 0.08989 0.0
H1516 H 0.18912 0.64779 0.10248 0.0
H1517 H 0.27427 0.79866 0.1279 0.0
H1518 H 0.24756 0.82982 0.10725 0.0
H1519 H 0.27935 0.79594 0.09311 0.0
C1520 C 0.69541 0.1721 0.64479 0.0
C1521 C 0.70311 0.14876 0.6232 0.0
C1522 C 0.70332 0.21059 0.64414 0.0
C1523 C 0.72134 0.22604 0.62196 0.0
C1524 C 0.72936 0.20301 0.60011 0.0
C1525 C 0.71921 0.16496 0.6007 0.0
C1526 C 0.69302 0.23456 0.6675 0.0
C1527 C 0.74988 0.21821 0.57648 0.0
C1528 C 0.7195 0.33174 0.61347 0.0
C1529 C 0.75222 0.34278 0.62694 0.0
C1530 C 0.70909 0.29388 0.61164 0.0
C1531 C 0.73297 0.26605 0.62221 0.0
C1532 C 0.76705 0.2766 0.63445 0.0
C1533 C 0.77577 0.31475 0.63728 0.0
C1534 C 0.67181 0.28381 0.59931 0.0
C1535 C 0.79397 0.24761 0.64514 0.0
H1536 H 0.68405 0.16045 0.66267 0.0
H1537 H 0.72452 0.14789 0.58355 0.0
H1538 H 0.71889 0.24381 0.67776 0.0
H1539 H 0.67786 0.26014 0.66102 0.0
H1540 H 0.67506 0.21926 0.68174 0.0
H1541 H 0.75417 0.19655 0.56112 0.0
H1542 H 0.73408 0.24197 0.56781 0.0
H1543 H 0.77775 0.2292 0.58256 0.0
H1544 H 0.70153 0.35263 0.60455 0.0
H1545 H 0.80073 0.32234 0.64818 0.0
H1546 H 0.65381 0.26946 0.61397 0.0
H1547 H 0.67601 0.26397 0.58284 0.0
H1548 H 0.65654 0.30882 0.59187 0.0
H1549 H 0.78156 0.234 0.66265 0.0
H1550 H 0.8214 0.26009 0.65083 0.0
H1551 H 0.79907 0.22533 0.63036 0.0
C1552 C 0.34506 0.12171 0.31139 0.0
C1553 C 0.36504 0.08802 0.31408 0.0
C1554 C 0.35375 0.14708 0.29102 0.0
C1555 C 0.3832 0.13845 0.27327 0.0
C1556 C 0.4038 0.10475 0.27642 0.0
C1557 C 0.39439 0.08009 0.29665 0.0
C1558 C 0.33091 0.18247 0.28812 0.0
C1559 C 0.43592 0.09448 0.25836 0.0
C1560 C 0.40313 0.1711 0.20452 0.0
C1561 C 0.43629 0.19128 0.20893 0.0
C1562 C 0.38189 0.15753 0.22578 0.0
C1563 C 0.39434 0.16446 0.25176 0.0
C1564 C 0.42474 0.18932 0.25602 0.0
C1565 C 0.4455 0.20224 0.23452 0.0
C1566 C 0.34907 0.1319 0.22038 0.0
C1567 C 0.43869 0.19812 0.28328 0.0
H1568 H 0.32207 0.12772 0.32467 0.0
H1569 H 0.41018 0.05424 0.29875 0.0
H1570 H 0.34949 0.20713 0.28527 0.0
H1571 H 0.31284 0.18016 0.27047 0.0
H1572 H 0.31261 0.18758 0.30539 0.0
H1573 H 0.44904 0.06721 0.26359 0.0
H1574 H 0.42576 0.09273 0.23785 0.0
H1575 H 0.45795 0.11649 0.25911 0.0
H1576 H 0.39591 0.16265 0.18473 0.0
H1577 H 0.47094 0.21832 0.2379 0.0
H1578 H 0.32617 0.13662 0.23475 0.0
H1579 H 0.35837 0.1023 0.22228 0.0
H1580 H 0.33782 0.13599 0.20027 0.0
H1581 H 0.4149 0.20251 0.29698 0.0
H1582 H 0.45686 0.22348 0.28351 0.0
H1583 H 0.45544 0.17407 0.29066 0.0
C1584 C 0.37582 0.33398 0.80138 0.0
C1585 C 0.41137 0.35097 0.8022 0.0
C1586 C 0.34949 0.34395 0.7819 0.0
C1587 C 0.35869 0.37231 0.76348 0.0
C1588 C 0.39474 0.3891 0.76419 0.0
C1589 C 0.42058 0.37798 0.7833 0.0
C1590 C 0.31173 0.32473 0.78146 0.0
C1591 C 0.40578 0.41993 0.74532 0.0
C1592 C 0.31483 0.4001 0.69899 0.0
C1593 C 0.29791 0.43405 0.70626 0.0
C1594 C 0.33093 0.37654 0.71809 0.0
C1595 C 0.33036 0.38761 0.7448 0.0
C1596 C 0.30926 0.41947 0.75231 0.0
C1597 C 0.29318 0.44219 0.73294 0.0
C1598 C 0.35187 0.34192 0.70942 0.0
C1599 C 0.30759 0.43235 0.78048 0.0
H1600 H 0.36867 0.31286 0.81582 0.0
H1601 H 0.44791 0.3914 0.7838 0.0
H1602 H 0.29069 0.34275 0.79139 0.0
H1603 H 0.30197 0.32001 0.76106 0.0
H1604 H 0.31261 0.29737 0.79185 0.0
H1605 H 0.43509 0.42974 0.74839 0.0
H1606 H 0.40309 0.40994 0.72483 0.0
H1607 H 0.38665 0.44429 0.74769 0.0
H1608 H 0.31823 0.39344 0.6784 0.0
H1609 H 0.27936 0.46804 0.73868 0.0
H1610 H 0.34794 0.31872 0.72366 0.0
H1611 H 0.38238 0.34824 0.70842 0.0
H1612 H 0.34252 0.3324 0.68974 0.0
H1613 H 0.30186 0.40841 0.79374 0.0
H1614 H 0.28564 0.45407 0.78357 0.0
H1615 H 0.33519 0.44443 0.78614 0.0
C1616 C 0.19162 0.44278 0.26478 0.0
C1617 C 0.19536 0.43343 0.29137 0.0
C1618 C 0.17416 0.41839 0.24704 0.0
C1619 C 0.16062 0.38335 0.25597 0.0
C1620 C 0.16789 0.37206 0.28215 0.0
C1621 C 0.185 0.3974 0.29968 0.0
C1622 C 0.16675 0.43193 0.21946 0.0
C1623 C 0.15481 0.3345 0.29223 0.0
C1624 C 0.0685 0.35449 0.22482 0.0
C1625 C 0.08008 0.32946 0.20523 0.0
C1626 C 0.09441 0.37132 0.24179 0.0
C1627 C 0.13306 0.36246 0.2395 0.0
C1628 C 0.14498 0.33642 0.2202 0.0
C1629 C 0.11833 0.32052 0.20301 0.0
C1630 C 0.0804 0.3995 0.26167 0.0
C1631 C 0.18583 0.32572 0.21757 0.0
H1632 H 0.20015 0.47036 0.25807 0.0
H1633 H 0.18801 0.38986 0.32014 0.0
H1634 H 0.17348 0.40976 0.20497 0.0
H1635 H 0.13645 0.43873 0.21732 0.0
H1636 H 0.1833 0.45742 0.21462 0.0
H1637 H 0.16936 0.32665 0.3107 0.0
H1638 H 0.12416 0.33568 0.29617 0.0
H1639 H 0.15963 0.3122 0.27742 0.0
H1640 H 0.039 0.36169 0.22661 0.0
H1641 H 0.12734 0.30088 0.18806 0.0
H1642 H 0.09332 0.42731 0.25787 0.0
H1643 H 0.08877 0.39084 0.28171 0.0
H1644 H 0.04934 0.40272 0.26119 0.0
H1645 H 0.20228 0.35019 0.2106 0.0
H1646 H 0.18998 0.30218 0.20359 0.0
H1647 H 0.19744 0.31754 0.23693 0.0
C1648 C 0.10099 0.1754 0.81308 0.0
C1649 C 0.06428 0.16104 0.81287 0.0
C1650 C 0.12762 0.16345 0.79436 0.0
C1651 C 0.11719 0.13635 0.77532 0.0
C1652 C 0.08025 0.1216 0.77537 0.0
C1653 C 0.0544 0.13416 0.79402 0.0
C1654 C 0.16665 0.17995 0.79475 0.0
C1655 C 0.06789 0.09218 0.75579 0.0
C1656 C 0.16068 0.11372 0.70965 0.0
C1657 C 0.1756 0.07818 0.71498 0.0
C1658 C 0.14508 0.13555 0.72992 0.0
C1659 C 0.14462 0.12135 0.7559 0.0
C1660 C 0.16369 0.08751 0.76162 0.0
C1661 C 0.1788 0.06628 0.74107 0.0
C1662 C 0.12552 0.17176 0.72303 0.0
C1663 C 0.16426 0.07134 0.78896 0.0
H1664 H 0.10864 0.1964 0.8275 0.0
H1665 H 0.02619 0.12265 0.79384 0.0
H1666 H 0.1879 0.15731 0.79651 0.0
H1667 H 0.17216 0.19472 0.77602 0.0
H1668 H 0.17062 0.20006 0.81116 0.0
H1669 H 0.03799 0.08398 0.75834 0.0
H1670 H 0.07166 0.10282 0.73554 0.0
H1671 H 0.08552 0.06667 0.75786 0.0
H1672 H 0.15826 0.12304 0.6895 0.0
H1673 H 0.1909 0.03901 0.74527 0.0
H1674 H 0.13036 0.19333 0.73835 0.0
H1675 H 0.09478 0.16672 0.72182 0.0
H1676 H 0.13516 0.18289 0.70385 0.0
H1677 H 0.16952 0.09351 0.80376 0.0
H1678 H 0.18603 0.0492 0.7911 0.0
H1679 H 0.13645 0.05868 0.79333 0.0
C1680 C 0.6893 0.90983 0.7252 0.0
C1681 C 0.67366 0.90393 0.70035 0.0
C1682 C 0.67538 0.89091 0.7472 0.0
C1683 C 0.6447 0.86603 0.74417 0.0
C1684 C 0.63266 0.85599 0.71859 0.0
C1685 C 0.64727 0.87531 0.69681 0.0
C1686 C 0.68971 0.90197 0.77395 0.0
C1687 C 0.60077 0.82877 0.71447 0.0
C1688 C 0.5978 0.82456 0.80509 0.0
C1689 C 0.5686 0.85036 0.809 0.0
C1690 C 0.62311 0.82892 0.78402 0.0
C1691 C 0.61905 0.85994 0.76685 0.0
C1692 C 0.59023 0.88658 0.77142 0.0
C1693 C 0.56539 0.88131 0.79228 0.0
C1694 C 0.65313 0.79972 0.77964 0.0
C1695 C 0.58515 0.92062 0.75407 0.0
H1696 H 0.70983 0.93204 0.72782 0.0
H1697 H 0.63505 0.87094 0.67757 0.0
H1698 H 0.6704 0.92305 0.78263 0.0
H1699 H 0.6906 0.87745 0.78731 0.0
H1700 H 0.71824 0.91456 0.77284 0.0
H1701 H 0.60048 0.81762 0.69413 0.0
H1702 H 0.60271 0.80498 0.72841 0.0
H1703 H 0.57368 0.84335 0.71804 0.0
H1704 H 0.6 0.80034 0.81784 0.0
H1705 H 0.543 0.90147 0.7954 0.0
H1706 H 0.68044 0.81301 0.77477 0.0
H1707 H 0.64503 0.78181 0.76277 0.0
H1708 H 0.65693 0.78143 0.79706 0.0
H1709 H 0.6113 0.93757 0.75383 0.0
H1710 H 0.5617 0.9389 0.76068 0.0
H1711 H 0.57931 0.91166 0.73365 0.0
C1712 C 0.57281 0.69076 0.23821 0.0
C1713 C 0.58272 0.68553 0.21188 0.0
C1714 C 0.59485 0.67589 0.25843 0.0
C1715 C 0.6275 0.65516 0.25207 0.0
C1716 C 0.64022 0.6542 0.22573 0.0
C1717 C 0.61753 0.66944 0.20579 0.0
C1718 C 0.58035 0.67808 0.28619 0.0
C1719 C 0.67538 0.6332 0.21821 0.0
C1720 C 0.68231 0.60885 0.30779 0.0
C1721 C 0.66657 0.5728 0.30754 0.0
C1722 C 0.6704 0.63622 0.28963 0.0
C1723 C 0.64187 0.62719 0.27126 0.0
C1724 C 0.62541 0.591 0.27154 0.0
C1725 C 0.63812 0.56434 0.28952 0.0
C1726 C 0.68895 0.67427 0.28965 0.0
C1727 C 0.59429 0.58023 0.25277 0.0
H1728 H 0.54613 0.70383 0.24296 0.0
H1729 H 0.62535 0.66552 0.18544 0.0
H1730 H 0.56643 0.65118 0.29129 0.0
H1731 H 0.60367 0.68249 0.30028 0.0
H1732 H 0.55952 0.70105 0.2886 0.0
H1733 H 0.68585 0.64193 0.19864 0.0
H1734 H 0.69792 0.63766 0.23292 0.0
H1735 H 0.66919 0.6027 0.21753 0.0
H1736 H 0.70466 0.61523 0.32153 0.0
H1737 H 0.62568 0.53655 0.28944 0.0
H1738 H 0.66755 0.69689 0.2894 0.0
H1739 H 0.70613 0.67737 0.27164 0.0
H1740 H 0.70751 0.67829 0.30694 0.0
H1741 H 0.57002 0.59947 0.25518 0.0
H1742 H 0.5843 0.55102 0.25584 0.0
H1743 H 0.60425 0.58285 0.23226 0.0
C1744 C 0.81959 0.6241 0.69524 0.0
C1745 C 0.83644 0.58858 0.69476 0.0
C1746 C 0.83286 0.65214 0.71244 0.0
C1747 C 0.86378 0.64429 0.72912 0.0
C1748 C 0.8817 0.60887 0.72772 0.0
C1749 C 0.86769 0.58153 0.7107 0.0
C1750 C 0.81294 0.68946 0.71349 0.0
C1751 C 0.91526 0.59937 0.74468 0.0
C1752 C 0.9306 0.71135 0.76172 0.0
C1753 C 0.92201 0.70519 0.78821 0.0
C1754 C 0.90891 0.69516 0.74175 0.0
C1755 C 0.87796 0.6722 0.74848 0.0
C1756 C 0.8665 0.66973 0.77503 0.0
C1757 C 0.88873 0.68631 0.79467 0.0
C1758 C 0.9219 0.69901 0.71373 0.0
C1759 C 0.83326 0.64608 0.78301 0.0
H1760 H 0.79519 0.6294 0.68307 0.0
H1761 H 0.881 0.55417 0.71013 0.0
H1762 H 0.7969 0.69152 0.73207 0.0
H1763 H 0.83346 0.71289 0.71328 0.0
H1764 H 0.79306 0.69307 0.69689 0.0
H1765 H 0.92656 0.57092 0.74055 0.0
H1766 H 0.93807 0.6201 0.7415 0.0
H1767 H 0.90726 0.60071 0.76567 0.0
H1768 H 0.95594 0.72656 0.75658 0.0
H1769 H 0.88172 0.6817 0.81508 0.0
H1770 H 0.89765 0.70222 0.70024 0.0
H1771 H 0.93728 0.67323 0.70791 0.0
H1772 H 0.94104 0.72337 0.71118 0.0
H1773 H 0.80952 0.64994 0.76917 0.0
H1774 H 0.82356 0.65295 0.80314 0.0
H1775 H 0.84138 0.61602 0.78252 0.0
C1776 C 0.94429 0.801 0.23163 0.0
C1777 C 0.93241 0.79891 0.20547 0.0
C1778 C 0.92151 0.81706 0.25092 0.0
C1779 C 0.88564 0.83097 0.24396 0.0
C1780 C 0.87157 0.82445 0.21834 0.0
C1781 C 0.89534 0.80872 0.19919 0.0
C1782 C 0.93773 0.82309 0.27797 0.0
C1783 C 0.83271 0.83713 0.21057 0.0
C1784 C 0.83574 0.87613 0.302 0.0
C1785 C 0.84747 0.91349 0.29926 0.0
C1786 C 0.84522 0.84903 0.28297 0.0
C1787 C 0.86783 0.85949 0.26128 0.0
C1788 C 0.87826 0.89753 0.25799 0.0
C1789 C 0.86762 0.92394 0.2768 0.0
C1790 C 0.83232 0.8091 0.28677 0.0
C1791 C 0.90281 0.91013 0.23544 0.0
H1792 H 0.97262 0.79246 0.23675 0.0
H1793 H 0.88579 0.80661 0.17907 0.0
H1794 H 0.9439 0.85336 0.28081 0.0
H1795 H 0.91725 0.81465 0.29321 0.0
H1796 H 0.96415 0.80706 0.28102 0.0
H1797 H 0.82261 0.82211 0.19283 0.0
H1798 H 0.81245 0.83254 0.2268 0.0
H1799 H 0.83319 0.8676 0.20618 0.0
H1800 H 0.8197 0.86793 0.31912 0.0
H1801 H 0.8766 0.95278 0.27431 0.0
H1802 H 0.85409 0.79333 0.29775 0.0
H1803 H 0.82774 0.79473 0.26773 0.0
H1804 H 0.80588 0.80798 0.29832 0.0
H1805 H 0.93065 0.89618 0.23671 0.0
H1806 H 0.90736 0.94097 0.23531 0.0
H1807 H 0.88996 0.90198 0.21648 0.0
loop_
_geom_bond_atom_site_label_1
_geom_bond_atom_site_label_2
_geom_bond_distance
_geom_bond_site_symmetry_2
_ccdc_geom_bond_type
C0 C1 1.351 . S
C0 N3 1.368 . S
C0 H5 0.931 . S
C1 C0 1.351 . S
C1 N2 1.373 . S
C1 H29 0.930 . S
N2 C1 1.373 . S
N2 C4 1.340 . S
N3 C0 1.368 . S
N3 C4 1.321 . S
N3 Co6 2.135 . S
C4 N2 1.340 . S
C4 N3 1.321 . S
C4 H28 0.930 . S
H5 C0 0.931 . S
Co6 N3 2.135 . S
Co6 N9 2.121 . S
Co6 O14 2.055 . S
Co6 O17 2.039 . S
Co6 N20 2.140 . S
C7 O8 1.227 . S
C7 O17 1.265 . S
O8 C7 1.227 . S
N9 Co6 2.121 . S
N9 C11 1.375 . S
N9 C12 1.313 . S
C10 C11 1.338 . S
C10 N13 1.377 . S
C10 H30 0.930 . S
C11 N9 1.375 . S
C11 C10 1.338 . S
C11 H15 0.931 . S
C12 N9 1.313 . S
C12 N13 1.344 . S
C12 H16 0.930 . S
N13 C10 1.377 . S
N13 C12 1.344 . S
O14 Co6 2.055 . S
O14 C18 1.253 . S
H15 C11 0.931 . S
H16 C12 0.930 . S
O17 Co6 2.039 . S
O17 C7 1.265 . S
C18 O14 1.253 . S
C18 O19 1.227 . S
O19 C18 1.227 . S
N20 Co6 2.140 . S
N20 C23 1.346 . S
N20 C24 1.345 . S
C21 C22 1.387 . S
C21 C25 1.391 . S
C22 C21 1.387 . S
C22 C23 1.369 . S
C22 H31 0.929 . S
C23 N20 1.346 . S
C23 C22 1.369 . S
C23 H26 0.928 . S
C24 N20 1.345 . S
C24 C25 1.371 . S
C24 H27 0.931 . S
C25 C21 1.391 . S
C25 C24 1.371 . S
C25 H32 0.930 . S
H26 C23 0.928 . S
H27 C24 0.931 . S
H28 C4 0.930 . S
H29 C1 0.930 . S
H30 C10 0.930 . S
H31 C22 0.929 . S
H32 C25 0.930 . S
C33 C34 1.351 . S
C33 N36 1.368 . S
C33 H38 0.931 . S
C34 C33 1.351 . S
C34 N35 1.373 . S
C34 H62 0.930 . S
N35 C34 1.373 . S
N35 C37 1.340 . S
N36 C33 1.368 . S
N36 C37 1.321 . S
N36 Co39 2.135 . S
C37 N35 1.340 . S
C37 N36 1.321 . S
C37 H61 0.930 . S
H38 C33 0.931 . S
Co39 N36 2.135 . S
Co39 N42 2.121 . S
Co39 O47 2.055 . S
Co39 O50 2.039 . S
Co39 N53 2.140 . S
C40 O41 1.227 . S
C40 O50 1.265 . S
O41 C40 1.227 . S
N42 Co39 2.121 . S
N42 C44 1.375 . S
N42 C45 1.313 . S
C43 C44 1.338 . S
C43 N46 1.377 . S
C43 H63 0.930 . S
C44 N42 1.375 . S
C44 C43 1.338 . S
C44 H48 0.931 . S
C45 N42 1.313 . S
C45 N46 1.344 . S
C45 H49 0.930 . S
N46 C43 1.377 . S
N46 C45 1.344 . S
O47 Co39 2.055 . S
O47 C51 1.253 . S
H48 C44 0.931 . S
H49 C45 0.930 . S
O50 Co39 2.039 . S
O50 C40 1.265 . S
C51 O47 1.253 . S
C51 O52 1.227 . S
O52 C51 1.227 . S
N53 Co39 2.140 . S
N53 C56 1.346 . S
N53 C57 1.345 . S
C54 C55 1.387 . S
C54 C58 1.391 . S
C55 C54 1.387 . S
C55 C56 1.369 . S
C55 H64 0.929 . S
C56 N53 1.346 . S
C56 C55 1.369 . S
C56 H59 0.928 . S
C57 N53 1.345 . S
C57 C58 1.371 . S
C57 H60 0.931 . S
C58 C54 1.391 . S
C58 C57 1.371 . S
C58 H65 0.930 . S
H59 C56 0.928 . S
H60 C57 0.931 . S
H61 C37 0.930 . S
H62 C34 0.930 . S
H63 C43 0.930 . S
H64 C55 0.929 . S
H65 C58 0.930 . S
C66 C67 1.351 . S
C66 N69 1.368 . S
C66 H71 0.931 . S
C67 C66 1.351 . S
C67 N68 1.373 . S
C67 H95 0.930 . S
N68 C67 1.373 . S
N68 C70 1.340 . S
N69 C66 1.368 . S
N69 C70 1.321 . S
N69 Co72 2.135 . S
C70 N68 1.340 . S
C70 N69 1.321 . S
C70 H94 0.930 . S
H71 C66 0.931 . S
Co72 N69 2.135 . S
Co72 N75 2.121 . S
Co72 O80 2.055 . S
Co72 O83 2.039 . S
Co72 N86 2.140 1_455 S
C73 O74 1.227 1_455 S
C73 O83 1.265 . S
O74 C73 1.227 1_655 S
N75 Co72 2.121 . S
N75 C77 1.375 1_455 S
N75 C78 1.313 . S
C76 C77 1.338 . S
C76 N79 1.377 1_655 S
C76 H96 0.930 . S
C77 N75 1.375 1_655 S
C77 C76 1.338 . S
C77 H81 0.931 . S
C78 N75 1.313 . S
C78 N79 1.344 . S
C78 H82 0.930 . S
N79 C76 1.377 1_455 S
N79 C78 1.344 . S
O80 Co72 2.055 . S
O80 C84 1.253 . S
H81 C77 0.931 . S
H82 C78 0.930 . S
O83 Co72 2.039 . S
O83 C73 1.265 . S
C84 O80 1.253 . S
C84 O85 1.227 . S
O85 C84 1.227 . S
N86 Co72 2.140 1_655 S
N86 C89 1.346 . S
N86 C90 1.345 . S
C87 C88 1.387 . S
C87 C91 1.391 . S
C88 C87 1.387 . S
C88 C89 1.369 . S
C88 H97 0.929 . S
C89 N86 1.346 . S
C89 C88 1.369 . S
C89 H92 0.928 . S
C90 N86 1.345 . S
C90 C91 1.371 . S
C90 H93 0.931 . S
C91 C87 1.391 . S
C91 C90 1.371 . S
C91 H98 0.930 . S
H92 C89 0.928 . S
H93 C90 0.931 . S
H94 C70 0.930 . S
H95 C67 0.930 . S
H96 C76 0.930 . S
H97 C88 0.929 . S
H98 C91 0.930 . S
C99 C100 1.351 . S
C99 N102 1.368 . S
C99 H104 0.931 . S
C100 C99 1.351 . S
C100 N101 1.373 . S
C100 H128 0.930 . S
N101 C100 1.373 . S
N101 C103 1.340 . S
N102 C99 1.368 . S
N102 C103 1.321 . S
N102 Co105 2.135 . S
C103 N101 1.340 . S
C103 N102 1.321 . S
C103 H127 0.930 . S
H104 C99 0.931 . S
Co105 N102 2.135 . S
Co105 N108 2.121 . S
Co105 O113 2.055 . S
Co105 O116 2.039 . S
Co105 N119 2.140 1_545 S
C106 O107 1.227 1_545 S
C106 O116 1.265 . S
O107 C106 1.227 1_565 S
N108 Co105 2.121 . S
N108 C110 1.375 1_545 S
N108 C111 1.313 . S
C109 C110 1.338 . S
C109 N112 1.377 1_565 S
C109 H129 0.930 . S
C110 N108 1.375 1_565 S
C110 C109 1.338 . S
C110 H114 0.931 . S
C111 N108 1.313 . S
C111 N112 1.344 . S
C111 H115 0.930 . S
N112 C109 1.377 1_545 S
N112 C111 1.344 . S
O113 Co105 2.055 . S
O113 C117 1.253 . S
H114 C110 0.931 . S
H115 C111 0.930 . S
O116 Co105 2.039 . S
O116 C106 1.265 . S
C117 O113 1.253 . S
C117 O118 1.227 . S
O118 C117 1.227 . S
N119 Co105 2.140 1_565 S
N119 C122 1.346 . S
N119 C123 1.345 . S
C120 C121 1.387 . S
C120 C124 1.391 . S
C121 C120 1.387 . S
C121 C122 1.369 . S
C121 H130 0.929 . S
C122 N119 1.346 . S
C122 C121 1.369 . S
C122 H125 0.928 . S
C123 N119 1.345 . S
C123 C124 1.371 . S
C123 H126 0.931 . S
C124 C120 1.391 . S
C124 C123 1.371 . S
C124 H131 0.930 . S
H125 C122 0.928 . S
H126 C123 0.931 . S
H127 C103 0.930 . S
H128 C100 0.930 . S
H129 C109 0.930 . S
H130 C121 0.929 . S
H131 C124 0.930 . S
C132 C133 1.351 . S
C132 N135 1.368 . S
C132 H137 0.931 . S
C133 C132 1.351 . S
C133 N134 1.373 . S
C133 H161 0.930 . S
N134 C133 1.373 . S
N134 C136 1.340 . S
N135 C132 1.368 . S
N135 C136 1.321 . S
N135 Co138 2.135 . S
C136 N134 1.340 . S
C136 N135 1.321 . S
C136 H160 0.930 . S
H137 C132 0.931 . S
Co138 N135 2.135 . S
Co138 N141 2.121 . S
Co138 O146 2.055 . S
Co138 O149 2.039 . S
Co138 N152 2.140 . S
C139 O140 1.227 . S
C139 O149 1.265 . S
O140 C139 1.227 . S
N141 Co138 2.121 . S
N141 C143 1.375 . S
N141 C144 1.313 . S
C142 C143 1.338 . S
C142 N145 1.377 . S
C142 H162 0.930 . S
C143 N141 1.375 . S
C143 C142 1.338 . S
C143 H147 0.931 . S
C144 N141 1.313 . S
C144 N145 1.344 . S
C144 H148 0.930 . S
N145 C142 1.377 . S
N145 C144 1.344 . S
O146 Co138 2.055 . S
O146 C150 1.253 . S
H147 C143 0.931 . S
H148 C144 0.930 . S
O149 Co138 2.039 . S
O149 C139 1.265 . S
C150 O146 1.253 . S
C150 O151 1.227 . S
O151 C150 1.227 . S
N152 Co138 2.140 . S
N152 C155 1.346 . S
N152 C156 1.345 . S
C153 C154 1.387 . S
C153 C157 1.391 . S
C154 C153 1.387 . S
C154 C155 1.369 . S
C154 H163 0.929 . S
C155 N152 1.346 . S
C155 C154 1.369 . S
C155 H158 0.928 . S
C156 N152 1.345 . S
C156 C157 1.371 . S
C156 H159 0.931 . S
C157 C153 1.391 . S
C157 C156 1.371 . S
C157 H164 0.930 . S
H158 C155 0.928 . S
H159 C156 0.931 . S
H160 C136 0.930 . S
H161 C133 0.930 . S
H162 C142 0.930 . S
H163 C154 0.929 . S
H164 C157 0.930 . S
C165 C166 1.351 . S
C165 N168 1.368 . S
C165 H170 0.931 . S
C166 C165 1.351 . S
C166 N167 1.373 . S
C166 H194 0.930 . S
N167 C166 1.373 . S
N167 C169 1.340 . S
N168 C165 1.368 . S
N168 C169 1.321 . S
N168 Co171 2.135 . S
C169 N167 1.340 . S
C169 N168 1.321 . S
C169 H193 0.930 . S
H170 C165 0.931 . S
Co171 N168 2.135 . S
Co171 N174 2.121 . S
Co171 O179 2.055 . S
Co171 O182 2.039 . S
Co171 N185 2.140 . S
C172 O173 1.227 . S
C172 O182 1.265 . S
O173 C172 1.227 . S
N174 Co171 2.121 . S
N174 C176 1.375 . S
N174 C177 1.313 . S
C175 C176 1.338 . S
C175 N178 1.377 . S
C175 H195 0.930 . S
C176 N174 1.375 . S
C176 C175 1.338 . S
C176 H180 0.931 . S
C177 N174 1.313 . S
C177 N178 1.344 . S
C177 H181 0.930 . S
N178 C175 1.377 . S
N178 C177 1.344 . S
O179 Co171 2.055 . S
O179 C183 1.253 . S
H180 C176 0.931 . S
H181 C177 0.930 . S
O182 Co171 2.039 . S
O182 C172 1.265 . S
C183 O179 1.253 . S
C183 O184 1.227 . S
O184 C183 1.227 . S
N185 Co171 2.140 . S
N185 C188 1.346 . S
N185 C189 1.345 . S
C186 C187 1.387 . S
C186 C190 1.391 . S
C187 C186 1.387 . S
C187 C188 1.369 . S
C187 H196 0.929 . S
C188 N185 1.346 . S
C188 C187 1.369 . S
C188 H191 0.928 . S
C189 N185 1.345 . S
C189 C190 1.371 . S
C189 H192 0.931 . S
C190 C186 1.391 . S
C190 C189 1.371 . S
C190 H197 0.930 . S
H191 C188 0.928 . S
H192 C189 0.931 . S
H193 C169 0.930 . S
H194 C166 0.930 . S
H195 C175 0.930 . S
H196 C187 0.929 . S
H197 C190 0.930 . S
C198 C199 1.351 . S
C198 N201 1.368 . S
C198 H203 0.931 . S
C199 C198 1.351 . S
C199 N200 1.373 . S
C199 H227 0.930 . S
N200 C199 1.373 . S
N200 C202 1.340 . S
N201 C198 1.368 . S
N201 C202 1.321 . S
N201 Co204 2.135 . S
C202 N200 1.340 . S
C202 N201 1.321 . S
C202 H226 0.930 . S
H203 C198 0.931 . S
Co204 N201 2.135 . S
Co204 N207 2.121 . S
Co204 O212 2.055 . S
Co204 O215 2.039 . S
Co204 N218 2.140 1_455 S
C205 O206 1.227 1_455 S
C205 O215 1.265 . S
O206 C205 1.227 1_655 S
N207 Co204 2.121 . S
N207 C209 1.375 1_455 S
N207 C210 1.313 . S
C208 C209 1.338 . S
C208 N211 1.377 1_655 S
C208 H228 0.930 . S
C209 N207 1.375 1_655 S
C209 C208 1.338 . S
C209 H213 0.931 . S
C210 N207 1.313 . S
C210 N211 1.344 . S
C210 H214 0.930 . S
N211 C208 1.377 1_455 S
N211 C210 1.344 . S
O212 Co204 2.055 . S
O212 C216 1.253 . S
H213 C209 0.931 . S
H214 C210 0.930 . S
O215 Co204 2.039 . S
O215 C205 1.265 . S
C216 O212 1.253 . S
C216 O217 1.227 . S
O217 C216 1.227 . S
N218 Co204 2.140 1_655 S
N218 C221 1.346 . S
N218 C222 1.345 . S
C219 C220 1.387 . S
C219 C223 1.391 . S
C220 C219 1.387 . S
C220 C221 1.369 . S
C220 H229 0.929 . S
C221 N218 1.346 . S
C221 C220 1.369 . S
C221 H224 0.928 . S
C222 N218 1.345 . S
C222 C223 1.371 . S
C222 H225 0.931 . S
C223 C219 1.391 . S
C223 C222 1.371 . S
C223 H230 0.930 . S
H224 C221 0.928 . S
H225 C222 0.931 . S
H226 C202 0.930 . S
H227 C199 0.930 . S
H228 C208 0.930 . S
H229 C220 0.929 . S
H230 C223 0.930 . S
C231 C232 1.351 . S
C231 N234 1.368 . S
C231 H236 0.931 . S
C232 C231 1.351 . S
C232 N233 1.373 . S
C232 H260 0.930 . S
N233 C232 1.373 . S
N233 C235 1.340 . S
N234 C231 1.368 . S
N234 C235 1.321 . S
N234 Co237 2.135 . S
C235 N233 1.340 . S
C235 N234 1.321 . S
C235 H259 0.930 . S
H236 C231 0.931 . S
Co237 N234 2.135 . S
Co237 N240 2.121 . S
Co237 O245 2.055 . S
Co237 O248 2.039 . S
Co237 N251 2.140 1_545 S
C238 O239 1.227 1_545 S
C238 O248 1.265 . S
O239 C238 1.227 1_565 S
N240 Co237 2.121 . S
N240 C242 1.375 1_545 S
N240 C243 1.313 . S
C241 C242 1.338 . S
C241 N244 1.377 1_565 S
C241 H261 0.930 . S
C242 N240 1.375 1_565 S
C242 C241 1.338 . S
C242 H246 0.931 . S
C243 N240 1.313 . S
C243 N244 1.344 . S
C243 H247 0.930 . S
N244 C241 1.377 1_545 S
N244 C243 1.344 . S
O245 Co237 2.055 . S
O245 C249 1.253 . S
H246 C242 0.931 . S
H247 C243 0.930 . S
O248 Co237 2.039 . S
O248 C238 1.265 . S
C249 O245 1.253 . S
C249 O250 1.227 . S
O250 C249 1.227 . S
N251 Co237 2.140 1_565 S
N251 C254 1.346 . S
N251 C255 1.345 . S
C252 C253 1.387 . S
C252 C256 1.391 . S
C253 C252 1.387 . S
C253 C254 1.369 . S
C253 H262 0.929 . S
C254 N251 1.346 . S
C254 C253 1.369 . S
C254 H257 0.928 . S
C255 N251 1.345 . S
C255 C256 1.371 . S
C255 H258 0.931 . S
C256 C252 1.391 . S
C256 C255 1.371 . S
C256 H263 0.930 . S
H257 C254 0.928 . S
H258 C255 0.931 . S
H259 C235 0.930 . S
H260 C232 0.930 . S
H261 C241 0.930 . S
H262 C253 0.929 . S
H263 C256 0.930 . S
C264 C265 1.351 . S
C264 N267 1.368 . S
C264 H269 0.931 . S
C265 C264 1.351 . S
C265 N266 1.373 . S
C265 H293 0.930 . S
N266 C265 1.373 . S
N266 C268 1.340 . S
N267 C264 1.368 . S
N267 C268 1.321 . S
N267 Co270 2.135 . S
C268 N266 1.340 . S
C268 N267 1.321 . S
C268 H292 0.930 . S
H269 C264 0.931 . S
Co270 N267 2.135 . S
Co270 N273 2.121 . S
Co270 O278 2.055 . S
Co270 O281 2.039 . S
Co270 N284 2.140 . S
C271 O272 1.227 . S
C271 O281 1.265 . S
O272 C271 1.227 . S
N273 Co270 2.121 . S
N273 C275 1.375 . S
N273 C276 1.313 . S
C274 C275 1.338 . S
C274 N277 1.377 . S
C274 H294 0.930 . S
C275 N273 1.375 . S
C275 C274 1.338 . S
C275 H279 0.931 . S
C276 N273 1.313 . S
C276 N277 1.344 . S
C276 H280 0.930 . S
N277 C274 1.377 . S
N277 C276 1.344 . S
O278 Co270 2.055 . S
O278 C282 1.253 . S
H279 C275 0.931 . S
H280 C276 0.930 . S
O281 Co270 2.039 . S
O281 C271 1.265 . S
C282 O278 1.253 . S
C282 O283 1.227 . S
O283 C282 1.227 . S
N284 Co270 2.140 . S
N284 C287 1.346 . S
N284 C288 1.345 . S
C285 C286 1.387 . S
C285 C289 1.391 . S
C286 C285 1.387 . S
C286 C287 1.369 . S
C286 H295 0.929 . S
C287 N284 1.346 . S
C287 C286 1.369 . S
C287 H290 0.928 . S
C288 N284 1.345 . S
C288 C289 1.371 . S
C288 H291 0.931 . S
C289 C285 1.391 . S
C289 C288 1.371 . S
C289 H296 0.930 . S
H290 C287 0.928 . S
H291 C288 0.931 . S
H292 C268 0.930 . S
H293 C265 0.930 . S
H294 C274 0.930 . S
H295 C286 0.929 . S
H296 C289 0.930 . S
C297 C298 1.351 . S
C297 N300 1.368 . S
C297 H302 0.931 . S
C298 C297 1.351 . S
C298 N299 1.373 . S
C298 H326 0.930 . S
N299 C298 1.373 . S
N299 C301 1.340 . S
N300 C297 1.368 . S
N300 C301 1.321 . S
N300 Co303 2.135 . S
C301 N299 1.340 . S
C301 N300 1.321 . S
C301 H325 0.930 . S
H302 C297 0.931 . S
Co303 N300 2.135 . S
Co303 N306 2.121 . S
Co303 O311 2.055 . S
Co303 O314 2.039 . S
Co303 N317 2.140 . S
C304 O305 1.227 . S
C304 O314 1.265 . S
O305 C304 1.227 . S
N306 Co303 2.121 . S
N306 C308 1.375 . S
N306 C309 1.313 . S
C307 C308 1.338 . S
C307 N310 1.377 . S
C307 H327 0.930 . S
C308 N306 1.375 . S
C308 C307 1.338 . S
C308 H312 0.931 . S
C309 N306 1.313 . S
C309 N310 1.344 . S
C309 H313 0.930 . S
N310 C307 1.377 . S
N310 C309 1.344 . S
O311 Co303 2.055 . S
O311 C315 1.253 . S
H312 C308 0.931 . S
H313 C309 0.930 . S
O314 Co303 2.039 . S
O314 C304 1.265 . S
C315 O311 1.253 . S
C315 O316 1.227 . S
O316 C315 1.227 . S
N317 Co303 2.140 . S
N317 C320 1.346 . S
N317 C321 1.345 . S
C318 C319 1.387 . S
C318 C322 1.391 . S
C319 C318 1.387 . S
C319 C320 1.369 . S
C319 H328 0.929 . S
C320 N317 1.346 . S
C320 C319 1.369 . S
C320 H323 0.928 . S
C321 N317 1.345 . S
C321 C322 1.371 . S
C321 H324 0.931 . S
C322 C318 1.391 . S
C322 C321 1.371 . S
C322 H329 0.930 . S
H323 C320 0.928 . S
H324 C321 0.931 . S
H325 C301 0.930 . S
H326 C298 0.930 . S
H327 C307 0.930 . S
H328 C319 0.929 . S
H329 C322 0.930 . S
C330 C331 1.351 . S
C330 N333 1.368 . S
C330 H335 0.931 . S
C331 C330 1.351 . S
C331 N332 1.373 . S
C331 H359 0.930 . S
N332 C331 1.373 . S
N332 C334 1.340 . S
N333 C330 1.368 . S
N333 C334 1.321 . S
N333 Co336 2.135 . S
C334 N332 1.340 . S
C334 N333 1.321 . S
C334 H358 0.930 . S
H335 C330 0.931 . S
Co336 N333 2.135 . S
Co336 N339 2.121 . S
Co336 O344 2.055 . S
Co336 O347 2.039 . S
Co336 N350 2.140 1_655 S
C337 O338 1.227 1_655 S
C337 O347 1.265 . S
O338 C337 1.227 1_455 S
N339 Co336 2.121 . S
N339 C341 1.375 1_655 S
N339 C342 1.313 . S
C340 C341 1.338 . S
C340 N343 1.377 1_455 S
C340 H360 0.930 . S
C341 N339 1.375 1_455 S
C341 C340 1.338 . S
C341 H345 0.931 . S
C342 N339 1.313 . S
C342 N343 1.344 . S
C342 H346 0.930 . S
N343 C340 1.377 1_655 S
N343 C342 1.344 . S
O344 Co336 2.055 . S
O344 C348 1.253 . S
H345 C341 0.931 . S
H346 C342 0.930 . S
O347 Co336 2.039 . S
O347 C337 1.265 . S
C348 O344 1.253 . S
C348 O349 1.227 . S
O349 C348 1.227 . S
N350 Co336 2.140 1_455 S
N350 C353 1.346 . S
N350 C354 1.345 . S
C351 C352 1.387 . S
C351 C355 1.391 . S
C352 C351 1.387 . S
C352 C353 1.369 . S
C352 H361 0.929 . S
C353 N350 1.346 . S
C353 C352 1.369 . S
C353 H356 0.928 . S
C354 N350 1.345 . S
C354 C355 1.371 . S
C354 H357 0.931 . S
C355 C351 1.391 . S
C355 C354 1.371 . S
C355 H362 0.930 . S
H356 C353 0.928 . S
H357 C354 0.931 . S
H358 C334 0.930 . S
H359 C331 0.930 . S
H360 C340 0.930 . S
H361 C352 0.929 . S
H362 C355 0.930 . S
C363 C364 1.351 . S
C363 N366 1.368 . S
C363 H368 0.931 . S
C364 C363 1.351 . S
C364 N365 1.373 . S
C364 H392 0.930 . S
N365 C364 1.373 . S
N365 C367 1.340 . S
N366 C363 1.368 . S
N366 C367 1.321 . S
N366 Co369 2.135 . S
C367 N365 1.340 . S
C367 N366 1.321 . S
C367 H391 0.930 . S
H368 C363 0.931 . S
Co369 N366 2.135 . S
Co369 N372 2.121 . S
Co369 O377 2.055 . S
Co369 O380 2.039 . S
Co369 N383 2.140 1_565 S
C370 O371 1.227 1_565 S
C370 O380 1.265 . S
O371 C370 1.227 1_545 S
N372 Co369 2.121 . S
N372 C374 1.375 1_565 S
N372 C375 1.313 . S
C373 C374 1.338 . S
C373 N376 1.377 1_545 S
C373 H393 0.930 . S
C374 N372 1.375 1_545 S
C374 C373 1.338 . S
C374 H378 0.931 . S
C375 N372 1.313 . S
C375 N376 1.344 . S
C375 H379 0.930 . S
N376 C373 1.377 1_565 S
N376 C375 1.344 . S
O377 Co369 2.055 . S
O377 C381 1.253 . S
H378 C374 0.931 . S
H379 C375 0.930 . S
O380 Co369 2.039 . S
O380 C370 1.265 . S
C381 O377 1.253 . S
C381 O382 1.227 . S
O382 C381 1.227 . S
N383 Co369 2.140 1_545 S
N383 C386 1.346 . S
N383 C387 1.345 . S
C384 C385 1.387 . S
C384 C388 1.391 . S
C385 C384 1.387 . S
C385 C386 1.369 . S
C385 H394 0.929 . S
C386 N383 1.346 . S
C386 C385 1.369 . S
C386 H389 0.928 . S
C387 N383 1.345 . S
C387 C388 1.371 . S
C387 H390 0.931 . S
C388 C384 1.391 . S
C388 C387 1.371 . S
C388 H395 0.930 . S
H389 C386 0.928 . S
H390 C387 0.931 . S
H391 C367 0.930 . S
H392 C364 0.930 . S
H393 C373 0.930 . S
H394 C385 0.929 . S
H395 C388 0.930 . S
C396 C397 1.351 . S
C396 N399 1.368 . S
C396 H401 0.931 . S
C397 C396 1.351 . S
C397 N398 1.373 . S
C397 H425 0.930 . S
N398 C397 1.373 . S
N398 C400 1.340 . S
N399 C396 1.368 . S
N399 C400 1.321 . S
N399 Co402 2.135 . S
C400 N398 1.340 . S
C400 N399 1.321 . S
C400 H424 0.930 . S
H401 C396 0.931 . S
Co402 N399 2.135 . S
Co402 N405 2.121 . S
Co402 O410 2.055 . S
Co402 O413 2.039 . S
Co402 N416 2.140 . S
C403 O404 1.227 . S
C403 O413 1.265 . S
O404 C403 1.227 . S
N405 Co402 2.121 . S
N405 C407 1.375 . S
N405 C408 1.313 . S
C406 C407 1.338 . S
C406 N409 1.377 . S
C406 H426 0.930 . S
C407 N405 1.375 . S
C407 C406 1.338 . S
C407 H411 0.931 . S
C408 N405 1.313 . S
C408 N409 1.344 . S
C408 H412 0.930 . S
N409 C406 1.377 . S
N409 C408 1.344 . S
O410 Co402 2.055 . S
O410 C414 1.253 . S
H411 C407 0.931 . S
H412 C408 0.930 . S
O413 Co402 2.039 . S
O413 C403 1.265 . S
C414 O410 1.253 . S
C414 O415 1.227 . S
O415 C414 1.227 . S
N416 Co402 2.140 . S
N416 C419 1.346 . S
N416 C420 1.345 . S
C417 C418 1.387 . S
C417 C421 1.391 . S
C418 C417 1.387 . S
C418 C419 1.369 . S
C418 H427 0.929 . S
C419 N416 1.346 . S
C419 C418 1.369 . S
C419 H422 0.928 . S
C420 N416 1.345 . S
C420 C421 1.371 . S
C420 H423 0.931 . S
C421 C417 1.391 . S
C421 C420 1.371 . S
C421 H428 0.930 . S
H422 C419 0.928 . S
H423 C420 0.931 . S
H424 C400 0.930 . S
H425 C397 0.930 . S
H426 C406 0.930 . S
H427 C418 0.929 . S
H428 C421 0.930 . S
C429 C430 1.351 . S
C429 N432 1.368 . S
C429 H434 0.931 . S
C430 C429 1.351 . S
C430 N431 1.373 . S
C430 H458 0.930 . S
N431 C430 1.373 . S
N431 C433 1.340 . S
N432 C429 1.368 . S
N432 C433 1.321 . S
N432 Co435 2.135 . S
C433 N431 1.340 . S
C433 N432 1.321 . S
C433 H457 0.930 . S
H434 C429 0.931 . S
Co435 N432 2.135 . S
Co435 N438 2.121 . S
Co435 O443 2.055 . S
Co435 O446 2.039 . S
Co435 N449 2.140 . S
C436 O437 1.227 . S
C436 O446 1.265 . S
O437 C436 1.227 . S
N438 Co435 2.121 . S
N438 C440 1.375 . S
N438 C441 1.313 . S
C439 C440 1.338 . S
C439 N442 1.377 . S
C439 H459 0.930 . S
C440 N438 1.375 . S
C440 C439 1.338 . S
C440 H444 0.931 . S
C441 N438 1.313 . S
C441 N442 1.344 . S
C441 H445 0.930 . S
N442 C439 1.377 . S
N442 C441 1.344 . S
O443 Co435 2.055 . S
O443 C447 1.253 . S
H444 C440 0.931 . S
H445 C441 0.930 . S
O446 Co435 2.039 . S
O446 C436 1.265 . S
C447 O443 1.253 . S
C447 O448 1.227 . S
O448 C447 1.227 . S
N449 Co435 2.140 . S
N449 C452 1.346 . S
N449 C453 1.345 . S
C450 C451 1.387 . S
C450 C454 1.391 . S
C451 C450 1.387 . S
C451 C452 1.369 . S
C451 H460 0.929 . S
C452 N449 1.346 . S
C452 C451 1.369 . S
C452 H455 0.928 . S
C453 N449 1.345 . S
C453 C454 1.371 . S
C453 H456 0.931 . S
C454 C450 1.391 . S
C454 C453 1.371 . S
C454 H461 0.930 . S
H455 C452 0.928 . S
H456 C453 0.931 . S
H457 C433 0.930 . S
H458 C430 0.930 . S
H459 C439 0.930 . S
H460 C451 0.929 . S
H461 C454 0.930 . S
C462 C463 1.351 . S
C462 N465 1.368 . S
C462 H467 0.931 . S
C463 C462 1.351 . S
C463 N464 1.373 . S
C463 H491 0.930 . S
N464 C463 1.373 . S
N464 C466 1.340 . S
N465 C462 1.368 . S
N465 C466 1.321 . S
N465 Co468 2.135 . S
C466 N464 1.340 . S
C466 N465 1.321 . S
C466 H490 0.930 . S
H467 C462 0.931 . S
Co468 N465 2.135 . S
Co468 N471 2.121 . S
Co468 O476 2.055 . S
Co468 O479 2.039 . S
Co468 N482 2.140 1_655 S
C469 O470 1.227 1_655 S
C469 O479 1.265 . S
O470 C469 1.227 1_455 S
N471 Co468 2.121 . S
N471 C473 1.375 1_655 S
N471 C474 1.313 . S
C472 C473 1.338 . S
C472 N475 1.377 1_455 S
C472 H492 0.930 . S
C473 N471 1.375 1_455 S
C473 C472 1.338 . S
C473 H477 0.931 . S
C474 N471 1.313 . S
C474 N475 1.344 . S
C474 H478 0.930 . S
N475 C472 1.377 1_655 S
N475 C474 1.344 . S
O476 Co468 2.055 . S
O476 C480 1.253 . S
H477 C473 0.931 . S
H478 C474 0.930 . S
O479 Co468 2.039 . S
O479 C469 1.265 . S
C480 O476 1.253 . S
C480 O481 1.227 . S
O481 C480 1.227 . S
N482 Co468 2.140 1_455 S
N482 C485 1.346 . S
N482 C486 1.345 . S
C483 C484 1.387 . S
C483 C487 1.391 . S
C484 C483 1.387 . S
C484 C485 1.369 . S
C484 H493 0.929 . S
C485 N482 1.346 . S
C485 C484 1.369 . S
C485 H488 0.928 . S
C486 N482 1.345 . S
C486 C487 1.371 . S
C486 H489 0.931 . S
C487 C483 1.391 . S
C487 C486 1.371 . S
C487 H494 0.930 . S
H488 C485 0.928 . S
H489 C486 0.931 . S
H490 C466 0.930 . S
H491 C463 0.930 . S
H492 C472 0.930 . S
H493 C484 0.929 . S
H494 C487 0.930 . S
C495 C496 1.351 . S
C495 N498 1.368 . S
C495 H500 0.931 . S
C496 C495 1.351 . S
C496 N497 1.373 . S
C496 H524 0.930 . S
N497 C496 1.373 . S
N497 C499 1.340 . S
N498 C495 1.368 . S
N498 C499 1.321 . S
N498 Co501 2.135 . S
C499 N497 1.340 . S
C499 N498 1.321 . S
C499 H523 0.930 . S
H500 C495 0.931 . S
Co501 N498 2.135 . S
Co501 N504 2.121 . S
Co501 O509 2.055 . S
Co501 O512 2.039 . S
Co501 N515 2.140 1_565 S
C502 O503 1.227 1_565 S
C502 O512 1.265 . S
O503 C502 1.227 1_545 S
N504 Co501 2.121 . S
N504 C506 1.375 1_565 S
N504 C507 1.313 . S
C505 C506 1.338 . S
C505 N508 1.377 1_545 S
C505 H525 0.930 . S
C506 N504 1.375 1_545 S
C506 C505 1.338 . S
C506 H510 0.931 . S
C507 N504 1.313 . S
C507 N508 1.344 . S
C507 H511 0.930 . S
N508 C505 1.377 1_565 S
N508 C507 1.344 . S
O509 Co501 2.055 . S
O509 C513 1.253 . S
H510 C506 0.931 . S
H511 C507 0.930 . S
O512 Co501 2.039 . S
O512 C502 1.265 . S
C513 O509 1.253 . S
C513 O514 1.227 . S
O514 C513 1.227 . S
N515 Co501 2.140 1_545 S
N515 C518 1.346 . S
N515 C519 1.345 . S
C516 C517 1.387 . S
C516 C520 1.391 . S
C517 C516 1.387 . S
C517 C518 1.369 . S
C517 H526 0.929 . S
C518 N515 1.346 . S
C518 C517 1.369 . S
C518 H521 0.928 . S
C519 N515 1.345 . S
C519 C520 1.371 . S
C519 H522 0.931 . S
C520 C516 1.391 . S
C520 C519 1.371 . S
C520 H527 0.930 . S
H521 C518 0.928 . S
H522 C519 0.931 . S
H523 C499 0.930 . S
H524 C496 0.930 . S
H525 C505 0.930 . S
H526 C517 0.929 . S
H527 C520 0.930 . S
C528 C529 1.391 . S
C528 C530 1.394 . S
C528 H544 0.931 . S
C529 C528 1.391 . S
C529 C533 1.376 . S
C530 C528 1.394 . S
C530 C531 1.369 . S
C530 C534 1.531 . S
C531 C530 1.369 . S
C531 C532 1.410 . S
C531 C539 1.503 1_554 S
C532 C531 1.410 . S
C532 C533 1.392 . S
C532 C535 1.511 . S
C533 C529 1.376 . S
C533 C532 1.392 . S
C533 H545 0.929 . S
C534 C530 1.531 . S
C534 H546 0.960 1_554 S
C534 H547 0.962 . S
C534 H548 0.960 . S
C535 C532 1.511 . S
C535 H549 0.961 . S
C535 H550 0.961 1_554 S
C535 H551 0.961 . S
C536 C537 1.370 . S
C536 C538 1.363 . S
C536 H552 0.931 . S
C537 C536 1.370 . S
C537 C541 1.408 . S
C538 C536 1.363 . S
C538 C539 1.370 . S
C538 C542 1.524 . S
C539 C531 1.503 1_556 S
C539 C538 1.370 . S
C539 C540 1.403 . S
C540 C539 1.403 . S
C540 C541 1.404 . S
C540 C543 1.539 . S
C541 C537 1.408 . S
C541 C540 1.404 . S
C541 H553 0.930 . S
C542 C538 1.524 . S
C542 H554 0.956 1_556 S
C542 H555 0.961 1_556 S
C542 H556 0.961 . S
C543 C540 1.539 . S
C543 H557 0.958 . S
C543 H558 0.961 . S
C543 H559 0.960 . S
H544 C528 0.931 . S
H545 C533 0.929 . S
H546 C534 0.960 1_556 S
H547 C534 0.962 . S
H548 C534 0.960 . S
H549 C535 0.961 . S
H550 C535 0.961 1_556 S
H551 C535 0.961 . S
H552 C536 0.931 . S
H553 C541 0.930 . S
H554 C542 0.956 1_554 S
H555 C542 0.961 1_554 S
H556 C542 0.961 . S
H557 C543 0.958 . S
H558 C543 0.961 . S
H559 C543 0.960 . S
C560 C561 1.391 . S
C560 C562 1.394 . S
C560 H576 0.931 . S
C561 C560 1.391 . S
C561 C565 1.376 . S
C562 C560 1.394 . S
C562 C563 1.369 . S
C562 C566 1.531 . S
C563 C562 1.369 . S
C563 C564 1.410 . S
C563 C571 1.503 . S
C564 C563 1.410 . S
C564 C565 1.392 . S
C564 C567 1.511 . S
C565 C561 1.376 . S
C565 C564 1.392 . S
C565 H577 0.929 . S
C566 C562 1.531 . S
C566 H578 0.960 . S
C566 H579 0.962 . S
C566 H580 0.960 . S
C567 C564 1.511 . S
C567 H581 0.961 . S
C567 H582 0.961 . S
C567 H583 0.961 . S
C568 C569 1.370 . S
C568 C570 1.363 . S
C568 H584 0.931 . S
C569 C568 1.370 . S
C569 C573 1.408 . S
C570 C568 1.363 . S
C570 C571 1.370 . S
C570 C574 1.524 . S
C571 C563 1.503 . S
C571 C570 1.370 . S
C571 C572 1.403 . S
C572 C571 1.403 . S
C572 C573 1.404 . S
C572 C575 1.539 . S
C573 C569 1.408 . S
C573 C572 1.404 . S
C573 H585 0.930 . S
C574 C570 1.524 . S
C574 H586 0.956 . S
C574 H587 0.961 . S
C574 H588 0.961 . S
C575 C572 1.539 . S
C575 H589 0.958 . S
C575 H590 0.961 . S
C575 H591 0.960 . S
H576 C560 0.931 . S
H577 C565 0.929 . S
H578 C566 0.960 . S
H579 C566 0.962 . S
H580 C566 0.960 . S
H581 C567 0.961 . S
H582 C567 0.961 . S
H583 C567 0.961 . S
H584 C568 0.931 . S
H585 C573 0.930 . S
H586 C574 0.956 . S
H587 C574 0.961 . S
H588 C574 0.961 . S
H589 C575 0.958 . S
H590 C575 0.961 . S
H591 C575 0.960 . S
C592 C593 1.391 . S
C592 C594 1.394 . S
C592 H608 0.931 1_455 S
C593 C592 1.391 . S
C593 C597 1.376 . S
C594 C592 1.394 . S
C594 C595 1.369 . S
C594 C598 1.531 1_455 S
C595 C594 1.369 . S
C595 C596 1.410 . S
C595 C603 1.503 1_556 S
C596 C595 1.410 . S
C596 C597 1.392 . S
C596 C599 1.511 . S
C597 C593 1.376 . S
C597 C596 1.392 . S
C597 H609 0.929 . S
C598 C594 1.531 1_655 S
C598 H610 0.960 1_556 S
C598 H611 0.962 . S
C598 H612 0.960 . S
C599 C596 1.511 . S
C599 H613 0.961 . S
C599 H614 0.938 1_556 S
C599 H615 0.961 . S
C600 C601 1.370 . S
C600 C602 1.363 . S
C600 H616 0.931 1_455 S
C601 C600 1.370 . S
C601 C605 1.408 . S
C602 C600 1.363 . S
C602 C603 1.370 . S
C602 C606 1.524 1_455 S
C603 C595 1.503 1_554 S
C603 C602 1.370 . S
C603 C604 1.403 . S
C604 C603 1.403 . S
C604 C605 1.404 . S
C604 C607 1.539 . S
C605 C601 1.408 . S
C605 C604 1.404 . S
C605 H617 0.930 . S
C606 C602 1.524 1_655 S
C606 H618 0.956 1_554 S
C606 H619 0.961 1_654 S
C606 H620 0.961 . S
C607 C604 1.539 . S
C607 H621 0.958 . S
C607 H622 0.961 . S
C607 H623 0.960 . S
H608 C592 0.931 1_655 S
H609 C597 0.929 . S
H610 C598 0.960 1_554 S
H611 C598 0.962 . S
H612 C598 0.960 . S
H613 C599 0.961 . S
H614 C599 0.938 1_554 S
H615 C599 0.961 . S
H616 C600 0.931 1_655 S
H617 C605 0.930 . S
H618 C606 0.956 1_556 S
H619 C606 0.961 1_456 S
H620 C606 0.961 . S
H621 C607 0.958 . S
H622 C607 0.961 . S
H623 C607 0.960 . S
C624 C625 1.391 . S
C624 C626 1.394 . S
C624 H640 0.931 . S
C625 C624 1.391 . S
C625 C629 1.376 . S
C626 C624 1.394 . S
C626 C627 1.369 . S
C626 C630 1.531 . S
C627 C626 1.369 . S
C627 C628 1.410 . S
C627 C635 1.503 . S
C628 C627 1.410 . S
C628 C629 1.392 . S
C628 C631 1.511 1_545 S
C629 C625 1.376 . S
C629 C628 1.392 . S
C629 H641 0.929 . S
C630 C626 1.531 . S
C630 H642 0.960 . S
C630 H643 0.962 . S
C630 H644 0.960 . S
C631 C628 1.511 1_565 S
C631 H645 0.961 . S
C631 H646 0.961 . S
C631 H647 0.961 1_565 S
C632 C633 1.370 . S
C632 C634 1.363 . S
C632 H648 0.931 1_545 S
C633 C632 1.370 . S
C633 C637 1.408 . S
C634 C632 1.363 . S
C634 C635 1.370 . S
C634 C638 1.524 1_545 S
C635 C627 1.503 . S
C635 C634 1.370 . S
C635 C636 1.403 . S
C636 C635 1.403 . S
C636 C637 1.404 . S
C636 C639 1.539 . S
C637 C633 1.408 . S
C637 C636 1.404 . S
C637 H649 0.930 . S
C638 C634 1.524 1_565 S
C638 H650 0.956 . S
C638 H651 0.961 . S
C638 H652 0.961 . S
C639 C636 1.539 . S
C639 H653 0.958 . S
C639 H654 0.961 . S
C639 H655 0.960 . S
H640 C624 0.931 . S
H641 C629 0.929 . S
H642 C630 0.960 . S
H643 C630 0.962 . S
H644 C630 0.960 . S
H645 C631 0.961 . S
H646 C631 0.961 . S
H647 C631 0.961 1_545 S
H648 C632 0.931 1_565 S
H649 C637 0.930 . S
H650 C638 0.956 . S
H651 C638 0.961 . S
H652 C638 0.961 . S
H653 C639 0.958 . S
H654 C639 0.961 . S
H655 C639 0.960 . S
C656 C657 1.391 . S
C656 C658 1.394 . S
C656 H672 0.931 . S
C657 C656 1.391 . S
C657 C661 1.376 . S
C658 C656 1.394 . S
C658 C659 1.369 . S
C658 C662 1.531 . S
C659 C658 1.369 . S
C659 C660 1.410 . S
C659 C667 1.503 1_556 S
C660 C659 1.410 . S
C660 C661 1.392 . S
C660 C663 1.511 . S
C661 C657 1.376 . S
C661 C660 1.392 . S
C661 H673 0.929 . S
C662 C658 1.531 . S
C662 H674 0.984 . S
C662 H675 0.962 . S
C662 H676 0.960 . S
C663 C660 1.511 . S
C663 H677 0.961 . S
C663 H678 0.961 1_556 S
C663 H679 0.961 . S
C664 C665 1.370 . S
C664 C666 1.363 . S
C664 H680 0.931 . S
C665 C664 1.370 . S
C665 C669 1.408 . S
C666 C664 1.363 . S
C666 C667 1.370 . S
C666 C670 1.524 . S
C667 C659 1.503 1_554 S
C667 C666 1.370 . S
C667 C668 1.403 . S
C668 C667 1.403 . S
C668 C669 1.404 . S
C668 C671 1.539 . S
C669 C665 1.408 . S
C669 C668 1.404 . S
C669 H681 0.930 . S
C670 C666 1.524 . S
C670 H682 0.956 . S
C670 H683 0.961 . S
C670 H684 0.961 . S
C671 C668 1.539 . S
C671 H685 0.958 . S
C671 H686 0.961 . S
C671 H687 0.960 1_554 S
H672 C656 0.931 . S
H673 C661 0.929 . S
H674 C662 0.984 . S
H675 C662 0.962 . S
H676 C662 0.960 . S
H677 C663 0.961 . S
H678 C663 0.961 1_554 S
H679 C663 0.961 . S
H680 C664 0.931 . S
H681 C669 0.930 . S
H682 C670 0.956 . S
H683 C670 0.961 . S
H684 C670 0.961 . S
H685 C671 0.958 . S
H686 C671 0.961 . S
H687 C671 0.960 1_556 S
C688 C689 1.391 . S
C688 C690 1.394 . S
C688 H704 0.931 . S
C689 C688 1.391 . S
C689 C693 1.376 . S
C690 C688 1.394 . S
C690 C691 1.369 . S
C690 C694 1.531 . S
C691 C690 1.369 . S
C691 C692 1.410 . S
C691 C699 1.503 . S
C692 C691 1.410 . S
C692 C693 1.392 . S
C692 C695 1.511 . S
C693 C689 1.376 . S
C693 C692 1.392 . S
C693 H705 0.929 . S
C694 C690 1.531 . S
C694 H706 0.960 . S
C694 H707 0.962 . S
C694 H708 0.960 . S
C695 C692 1.511 . S
C695 H709 0.961 . S
C695 H710 0.961 . S
C695 H711 0.961 . S
C696 C697 1.370 . S
C696 C698 1.363 . S
C696 H712 0.931 . S
C697 C696 1.370 . S
C697 C701 1.408 . S
C698 C696 1.363 . S
C698 C699 1.370 . S
C698 C702 1.524 . S
C699 C691 1.503 . S
C699 C698 1.370 . S
C699 C700 1.403 . S
C700 C699 1.403 . S
C700 C701 1.404 . S
C700 C703 1.539 . S
C701 C697 1.408 . S
C701 C700 1.404 . S
C701 H713 0.930 . S
C702 C698 1.524 . S
C702 H714 0.956 . S
C702 H715 0.961 . S
C702 H716 0.961 . S
C703 C700 1.539 . S
C703 H717 0.958 . S
C703 H718 0.961 . S
C703 H719 0.960 . S
H704 C688 0.931 . S
H705 C693 0.929 . S
H706 C694 0.960 . S
H707 C694 0.962 . S
H708 C694 0.960 . S
H709 C695 0.961 . S
H710 C695 0.961 . S
H711 C695 0.961 . S
H712 C696 0.931 . S
H713 C701 0.930 . S
H714 C702 0.956 . S
H715 C702 0.961 . S
H716 C702 0.961 . S
H717 C703 0.958 . S
H718 C703 0.961 . S
H719 C703 0.960 . S
C720 C721 1.391 . S
C720 C722 1.394 . S
C720 H736 0.931 1_655 S
C721 C720 1.391 . S
C721 C725 1.376 . S
C722 C720 1.394 . S
C722 C723 1.369 . S
C722 C726 1.531 1_655 S
C723 C722 1.369 . S
C723 C724 1.410 . S
C723 C731 1.503 1_554 S
C724 C723 1.410 . S
C724 C725 1.392 . S
C724 C727 1.511 . S
C725 C721 1.376 . S
C725 C724 1.392 . S
C725 H737 0.929 . S
C726 C722 1.531 1_455 S
C726 H738 0.961 1_455 S
C726 H739 0.962 . S
C726 H740 0.960 . S
C727 C724 1.511 . S
C727 H741 0.961 . S
C727 H742 0.961 1_554 S
C727 H743 0.961 . S
C728 C729 1.370 . S
C728 C730 1.363 . S
C728 H744 0.931 1_655 S
C729 C728 1.370 . S
C729 C733 1.408 . S
C730 C728 1.363 . S
C730 C731 1.370 . S
C730 C734 1.524 1_655 S
C731 C723 1.503 1_556 S
C731 C730 1.370 . S
C731 C732 1.403 . S
C732 C731 1.403 . S
C732 C733 1.404 . S
C732 C735 1.539 . S
C733 C729 1.408 . S
C733 C732 1.404 . S
C733 H745 0.930 . S
C734 C730 1.524 1_455 S
C734 H746 0.956 . S
C734 H747 0.961 . S
C734 H748 0.961 . S
C735 C732 1.539 . S
C735 H749 0.958 . S
C735 H750 0.961 . S
C735 H751 0.960 1_556 S
H736 C720 0.931 1_455 S
H737 C725 0.929 . S
H738 C726 0.961 1_655 S
H739 C726 0.962 . S
H740 C726 0.960 . S
H741 C727 0.961 . S
H742 C727 0.961 1_556 S
H743 C727 0.961 . S
H744 C728 0.931 1_455 S
H745 C733 0.930 . S
H746 C734 0.956 . S
H747 C734 0.961 . S
H748 C734 0.961 . S
H749 C735 0.958 . S
H750 C735 0.961 . S
H751 C735 0.960 1_554 S
C752 C753 1.391 1_545 S
C752 C754 1.394 . S
C752 H768 0.931 . S
C753 C752 1.391 1_565 S
C753 C757 1.376 . S
C754 C752 1.394 . S
C754 C755 1.369 1_545 S
C754 C758 1.531 . S
C755 C754 1.369 1_565 S
C755 C756 1.410 . S
C755 C763 1.503 . S
C756 C755 1.410 . S
C756 C757 1.392 . S
C756 C759 1.511 . S
C757 C753 1.376 . S
C757 C756 1.392 . S
C757 H769 0.929 . S
C758 C754 1.531 . S
C758 H770 0.960 . S
C758 H771 0.962 . S
C758 H772 0.960 . S
C759 C756 1.511 . S
C759 H773 0.961 . S
C759 H774 0.961 . S
C759 H775 0.961 . S
C760 C761 1.370 . S
C760 C762 1.363 . S
C760 H776 0.931 . S
C761 C760 1.370 . S
C761 C765 1.408 . S
C762 C760 1.363 . S
C762 C763 1.370 . S
C762 C766 1.524 . S
C763 C755 1.503 . S
C763 C762 1.370 . S
C763 C764 1.403 . S
C764 C763 1.403 . S
C764 C765 1.404 . S
C764 C767 1.539 1_565 S
C765 C761 1.408 . S
C765 C764 1.404 . S
C765 H777 0.930 1_565 S
C766 C762 1.524 . S
C766 H778 0.956 . S
C766 H779 0.961 . S
C766 H780 0.961 . S
C767 C764 1.539 1_545 S
C767 H781 0.958 . S
C767 H782 0.961 . S
C767 H783 0.960 . S
H768 C752 0.931 . S
H769 C757 0.929 . S
H770 C758 0.960 . S
H771 C758 0.962 . S
H772 C758 0.960 . S
H773 C759 0.961 . S
H774 C759 0.961 . S
H775 C759 0.961 . S
H776 C760 0.931 . S
H777 C765 0.930 1_545 S
H778 C766 0.956 . S
H779 C766 0.961 . S
H780 C766 0.961 . S
H781 C767 0.958 . S
H782 C767 0.961 . S
H783 C767 0.960 . S
C784 C785 1.391 . S
C784 C786 1.394 . S
C784 H800 0.931 . S
C785 C784 1.391 . S
C785 C789 1.376 . S
C786 C784 1.394 . S
C786 C787 1.369 . S
C786 C790 1.531 . S
C787 C786 1.369 . S
C787 C788 1.410 . S
C787 C795 1.503 . S
C788 C787 1.410 . S
C788 C789 1.392 . S
C788 C791 1.511 . S
C789 C785 1.376 . S
C789 C788 1.392 . S
C789 H801 0.929 . S
C790 C786 1.531 . S
C790 H802 0.960 . S
C790 H803 0.962 . S
C790 H804 0.960 . S
C791 C788 1.511 . S
C791 H805 0.961 . S
C791 H806 0.961 . S
C791 H807 0.961 . S
C792 C793 1.370 . S
C792 C794 1.363 . S
C792 H808 0.931 . S
C793 C792 1.370 . S
C793 C797 1.408 . S
C794 C792 1.363 . S
C794 C795 1.370 1_545 S
C794 C798 1.524 1_545 S
C795 C787 1.503 . S
C795 C794 1.370 1_565 S
C795 C796 1.403 1_565 S
C796 C795 1.403 1_545 S
C796 C797 1.404 . S
C796 C799 1.539 . S
C797 C793 1.408 . S
C797 C796 1.404 . S
C797 H809 0.930 . S
C798 C794 1.524 1_565 S
C798 H810 0.956 . S
C798 H811 0.961 . S
C798 H812 0.961 . S
C799 C796 1.539 . S
C799 H813 0.958 . S
C799 H814 0.961 . S
C799 H815 0.960 1_545 S
H800 C784 0.931 . S
H801 C789 0.929 . S
H802 C790 0.960 . S
H803 C790 0.962 . S
H804 C790 0.960 . S
H805 C791 0.961 . S
H806 C791 0.961 . S
H807 C791 0.961 . S
H808 C792 0.931 . S
H809 C797 0.930 . S
H810 C798 0.956 . S
H811 C798 0.961 . S
H812 C798 0.961 . S
H813 C799 0.958 . S
H814 C799 0.961 . S
H815 C799 0.960 1_565 S
C816 C817 1.391 . S
C816 C818 1.394 . S
C816 H832 0.931 . S
C817 C816 1.391 . S
C817 C821 1.376 . S
C818 C816 1.394 . S
C818 C819 1.369 . S
C818 C822 1.531 . S
C819 C818 1.369 . S
C819 C820 1.410 . S
C819 C827 1.503 . S
C820 C819 1.410 . S
C820 C821 1.392 . S
C820 C823 1.511 . S
C821 C817 1.376 . S
C821 C820 1.392 . S
C821 H833 0.929 . S
C822 C818 1.531 . S
C822 H834 0.960 . S
C822 H835 0.962 . S
C822 H836 0.960 . S
C823 C820 1.511 . S
C823 H837 0.961 . S
C823 H838 0.961 . S
C823 H839 0.961 . S
C824 C825 1.370 . S
C824 C826 1.363 . S
C824 H840 0.931 . S
C825 C824 1.370 . S
C825 C829 1.408 . S
C826 C824 1.363 . S
C826 C827 1.370 . S
C826 C830 1.524 . S
C827 C819 1.503 . S
C827 C826 1.370 . S
C827 C828 1.403 . S
C828 C827 1.403 . S
C828 C829 1.404 . S
C828 C831 1.539 . S
C829 C825 1.408 . S
C829 C828 1.404 . S
C829 H841 0.930 . S
C830 C826 1.524 . S
C830 H842 0.956 . S
C830 H843 0.961 . S
C830 H844 0.961 . S
C831 C828 1.539 . S
C831 H845 0.958 . S
C831 H846 0.961 . S
C831 H847 0.960 . S
H832 C816 0.931 . S
H833 C821 0.929 . S
H834 C822 0.960 . S
H835 C822 0.962 . S
H836 C822 0.960 . S
H837 C823 0.961 . S
H838 C823 0.961 . S
H839 C823 0.961 . S
H840 C824 0.931 . S
H841 C829 0.930 . S
H842 C830 0.956 . S
H843 C830 0.961 . S
H844 C830 0.961 . S
H845 C831 0.958 . S
H846 C831 0.961 . S
H847 C831 0.960 . S
C848 C849 1.391 1_655 S
C848 C850 1.394 . S
C848 H864 0.931 . S
C849 C848 1.391 1_455 S
C849 C853 1.376 . S
C850 C848 1.394 . S
C850 C851 1.369 . S
C850 C854 1.531 . S
C851 C850 1.369 . S
C851 C852 1.410 1_655 S
C851 C859 1.503 . S
C852 C851 1.410 1_455 S
C852 C853 1.392 . S
C852 C855 1.511 . S
C853 C849 1.376 . S
C853 C852 1.392 . S
C853 H865 0.929 . S
C854 C850 1.531 . S
C854 H866 0.960 . S
C854 H867 0.962 . S
C854 H868 0.960 . S
C855 C852 1.511 . S
C855 H869 0.961 . S
C855 H870 0.961 . S
C855 H871 0.961 . S
C856 C857 1.370 . S
C856 C858 1.363 . S
C856 H872 0.931 . S
C857 C856 1.370 . S
C857 C861 1.408 . S
C858 C856 1.363 . S
C858 C859 1.370 . S
C858 C862 1.524 . S
C859 C851 1.503 . S
C859 C858 1.370 . S
C859 C860 1.403 . S
C860 C859 1.403 . S
C860 C861 1.404 . S
C860 C863 1.539 . S
C861 C857 1.408 . S
C861 C860 1.404 . S
C861 H873 0.930 . S
C862 C858 1.524 . S
C862 H874 0.956 . S
C862 H875 0.961 1_655 S
C862 H876 0.961 . S
C863 C860 1.539 . S
C863 H877 0.958 . S
C863 H878 0.961 . S
C863 H879 0.960 1_655 S
H864 C848 0.931 . S
H865 C853 0.929 . S
H866 C854 0.960 . S
H867 C854 0.962 . S
H868 C854 0.960 . S
H869 C855 0.961 . S
H870 C855 0.961 . S
H871 C855 0.961 . S
H872 C856 0.931 . S
H873 C861 0.930 . S
H874 C862 0.956 . S
H875 C862 0.961 1_455 S
H876 C862 0.961 . S
H877 C863 0.958 . S
H878 C863 0.961 . S
H879 C863 0.960 1_455 S
C880 C881 1.391 1_545 S
C880 C882 1.394 . S
C880 H896 0.931 . S
C881 C880 1.391 1_565 S
C881 C885 1.376 . S
C882 C880 1.394 . S
C882 C883 1.369 1_545 S
C882 C886 1.531 . S
C883 C882 1.369 1_565 S
C883 C884 1.410 . S
C883 C891 1.503 . S
C884 C883 1.410 . S
C884 C885 1.392 . S
C884 C887 1.511 . S
C885 C881 1.376 . S
C885 C884 1.392 . S
C885 H897 0.929 . S
C886 C882 1.531 . S
C886 H898 0.960 . S
C886 H899 0.962 . S
C886 H900 0.960 . S
C887 C884 1.511 . S
C887 H901 0.961 . S
C887 H902 0.961 . S
C887 H903 0.961 . S
C888 C889 1.370 1_565 S
C888 C890 1.363 . S
C888 H904 0.931 . S
C889 C888 1.370 1_545 S
C889 C893 1.408 . S
C890 C888 1.363 . S
C890 C891 1.370 1_455 S
C890 C894 1.524 1_455 S
C891 C883 1.503 . S
C891 C890 1.370 1_655 S
C891 C892 1.403 1_665 S
C892 C891 1.403 1_445 S
C892 C893 1.404 . S
C892 C895 1.539 1_455 S
C893 C889 1.408 . S
C893 C892 1.404 . S
C893 H905 0.930 . S
C894 C890 1.524 1_655 S
C894 H906 0.956 . S
C894 H907 0.961 . S
C894 H908 0.961 1_655 S
C895 C892 1.539 1_655 S
C895 H909 0.958 . S
C895 H910 0.961 1_655 S
C895 H911 0.960 . S
H896 C880 0.931 . S
H897 C885 0.929 . S
H898 C886 0.960 . S
H899 C886 0.962 . S
H900 C886 0.960 . S
H901 C887 0.961 . S
H902 C887 0.961 . S
H903 C887 0.961 . S
H904 C888 0.931 . S
H905 C893 0.930 . S
H906 C894 0.956 . S
H907 C894 0.961 . S
H908 C894 0.961 1_455 S
H909 C895 0.958 . S
H910 C895 0.961 1_455 S
H911 C895 0.960 . S
C912 C913 1.391 . S
C912 C914 1.394 . S
C912 H928 0.931 . S
C913 C912 1.391 . S
C913 C917 1.376 . S
C914 C912 1.394 . S
C914 C915 1.369 . S
C914 C918 1.531 . S
C915 C914 1.369 . S
C915 C916 1.410 . S
C915 C923 1.503 . S
C916 C915 1.410 . S
C916 C917 1.392 . S
C916 C919 1.511 . S
C917 C913 1.376 . S
C917 C916 1.392 . S
C917 H929 0.929 . S
C918 C914 1.531 . S
C918 H930 0.960 . S
C918 H931 0.962 . S
C918 H932 0.960 . S
C919 C916 1.511 . S
C919 H933 0.961 . S
C919 H934 0.961 . S
C919 H935 0.961 . S
C920 C921 1.370 . S
C920 C922 1.363 . S
C920 H936 0.931 . S
C921 C920 1.370 . S
C921 C925 1.408 . S
C922 C920 1.363 . S
C922 C923 1.370 . S
C922 C926 1.524 . S
C923 C915 1.503 . S
C923 C922 1.370 . S
C923 C924 1.403 . S
C924 C923 1.403 . S
C924 C925 1.404 . S
C924 C927 1.539 . S
C925 C921 1.408 . S
C925 C924 1.404 . S
C925 H937 0.930 . S
C926 C922 1.524 . S
C926 H938 0.956 . S
C926 H939 0.961 . S
C926 H940 0.961 . S
C927 C924 1.539 . S
C927 H941 0.958 . S
C927 H942 0.961 . S
C927 H943 0.960 . S
H928 C912 0.931 . S
H929 C917 0.929 . S
H930 C918 0.960 . S
H931 C918 0.962 . S
H932 C918 0.960 . S
H933 C919 0.961 . S
H934 C919 0.961 . S
H935 C919 0.961 . S
H936 C920 0.931 . S
H937 C925 0.930 . S
H938 C926 0.956 . S
H939 C926 0.961 . S
H940 C926 0.961 . S
H941 C927 0.958 . S
H942 C927 0.961 . S
H943 C927 0.960 . S
C944 C945 1.391 . S
C944 C946 1.394 . S
C944 H960 0.931 . S
C945 C944 1.391 . S
C945 C949 1.376 . S
C946 C944 1.394 . S
C946 C947 1.369 . S
C946 C950 1.531 . S
C947 C946 1.369 . S
C947 C948 1.410 . S
C947 C955 1.503 . S
C948 C947 1.410 . S
C948 C949 1.392 . S
C948 C951 1.511 . S
C949 C945 1.376 . S
C949 C948 1.392 . S
C949 H961 0.929 . S
C950 C946 1.531 . S
C950 H962 0.960 . S
C950 H963 0.962 . S
C950 H964 0.960 . S
C951 C948 1.511 . S
C951 H965 0.961 . S
C951 H966 0.961 . S
C951 H967 0.961 . S
C952 C953 1.370 . S
C952 C954 1.363 . S
C952 H968 0.931 . S
C953 C952 1.370 . S
C953 C957 1.408 . S
C954 C952 1.363 . S
C954 C955 1.370 1_455 S
C954 C958 1.524 1_455 S
C955 C947 1.503 . S
C955 C954 1.370 1_655 S
C955 C956 1.403 1_655 S
C956 C955 1.403 1_455 S
C956 C957 1.404 . S
C956 C959 1.539 1_455 S
C957 C953 1.408 . S
C957 C956 1.404 . S
C957 H969 0.930 . S
C958 C954 1.524 1_655 S
C958 H970 0.956 . S
C958 H971 0.961 . S
C958 H972 0.961 . S
C959 C956 1.539 1_655 S
C959 H973 0.958 . S
C959 H974 0.961 1_655 S
C959 H975 0.960 . S
H960 C944 0.931 . S
H961 C949 0.929 . S
H962 C950 0.960 . S
H963 C950 0.962 . S
H964 C950 0.960 . S
H965 C951 0.961 . S
H966 C951 0.961 . S
H967 C951 0.961 . S
H968 C952 0.931 . S
H969 C957 0.930 . S
H970 C958 0.956 . S
H971 C958 0.961 . S
H972 C958 0.961 . S
H973 C959 0.958 . S
H974 C959 0.961 1_455 S
H975 C959 0.960 . S
C976 C977 1.391 . S
C976 C978 1.394 . S
C976 H992 0.931 . S
C977 C976 1.391 . S
C977 C981 1.376 1_455 S
C978 C976 1.394 . S
C978 C979 1.369 1_445 S
C978 C982 1.531 1_545 S
C979 C978 1.369 1_665 S
C979 C980 1.410 1_565 S
C979 C987 1.503 . S
C980 C979 1.410 1_545 S
C980 C981 1.392 . S
C980 C983 1.511 1_545 S
C981 C977 1.376 1_655 S
C981 C980 1.392 . S
C981 H993 0.929 . S
C982 C978 1.531 1_565 S
C982 H994 0.960 . S
C982 H995 0.962 . S
C982 H996 0.960 . S
C983 C980 1.511 1_565 S
C983 H997 0.961 1_565 S
C983 H998 0.961 . S
C983 H999 0.961 . S
C984 C985 1.370 . S
C984 C986 1.363 . S
C984 H1000 0.931 . S
C985 C984 1.370 . S
C985 C989 1.408 . S
C986 C984 1.363 . S
C986 C987 1.370 . S
C986 C990 1.524 . S
C987 C979 1.503 . S
C987 C986 1.370 . S
C987 C988 1.403 1_655 S
C988 C987 1.403 1_455 S
C988 C989 1.404 1_455 S
C988 C991 1.539 . S
C989 C985 1.408 . S
C989 C988 1.404 1_655 S
C989 H1001 0.930 1_655 S
C990 C986 1.524 . S
C990 H1002 0.956 . S
C990 H1003 0.961 . S
C990 H1004 0.961 . S
C991 C988 1.539 . S
C991 H1005 0.958 . S
C991 H1006 0.961 . S
C991 H1007 0.960 . S
H992 C976 0.931 . S
H993 C981 0.929 . S
H994 C982 0.960 . S
H995 C982 0.962 . S
H996 C982 0.960 . S
H997 C983 0.961 1_545 S
H998 C983 0.961 . S
H999 C983 0.961 . S
H1000 C984 0.931 . S
H1001 C989 0.930 1_455 S
H1002 C990 0.956 . S
H1003 C990 0.961 . S
H1004 C990 0.961 . S
H1005 C991 0.958 . S
H1006 C991 0.961 . S
H1007 C991 0.960 . S
C1008 C1009 1.391 . S
C1008 C1010 1.394 . S
C1008 H1024 0.931 . S
C1009 C1008 1.391 . S
C1009 C1013 1.376 1_545 S
C1010 C1008 1.394 . S
C1010 C1011 1.369 1_545 S
C1010 C1014 1.531 . S
C1011 C1010 1.369 1_565 S
C1011 C1012 1.410 . S
C1011 C1019 1.503 . S
C1012 C1011 1.410 . S
C1012 C1013 1.392 . S
C1012 C1015 1.511 . S
C1013 C1009 1.376 1_565 S
C1013 C1012 1.392 . S
C1013 H1025 0.929 . S
C1014 C1010 1.531 . S
C1014 H1026 0.960 . S
C1014 H1027 0.962 . S
C1014 H1028 0.960 . S
C1015 C1012 1.511 . S
C1015 H1029 0.961 . S
C1015 H1030 0.961 . S
C1015 H1031 0.961 . S
C1016 C1017 1.370 . S
C1016 C1018 1.363 . S
C1016 H1032 0.931 1_565 S
C1017 C1016 1.370 . S
C1017 C1021 1.408 . S
C1018 C1016 1.363 . S
C1018 C1019 1.370 . S
C1018 C1022 1.524 1_565 S
C1019 C1011 1.503 . S
C1019 C1018 1.370 . S
C1019 C1020 1.403 . S
C1020 C1019 1.403 . S
C1020 C1021 1.404 . S
C1020 C1023 1.539 . S
C1021 C1017 1.408 . S
C1021 C1020 1.404 . S
C1021 H1033 0.930 . S
C1022 C1018 1.524 1_545 S
C1022 H1034 0.956 . S
C1022 H1035 0.961 . S
C1022 H1036 0.961 . S
C1023 C1020 1.539 . S
C1023 H1037 0.958 . S
C1023 H1038 0.961 . S
C1023 H1039 0.960 . S
H1024 C1008 0.931 . S
H1025 C1013 0.929 . S
H1026 C1014 0.960 . S
H1027 C1014 0.962 . S
H1028 C1014 0.960 . S
H1029 C1015 0.961 . S
H1030 C1015 0.961 . S
H1031 C1015 0.961 . S
H1032 C1016 0.931 1_545 S
H1033 C1021 0.930 . S
H1034 C1022 0.956 . S
H1035 C1022 0.961 . S
H1036 C1022 0.961 . S
H1037 C1023 0.958 . S
H1038 C1023 0.961 . S
H1039 C1023 0.960 . S
C1040 C1041 1.391 . S
C1040 C1042 1.394 . S
C1040 H1056 0.931 . S
C1041 C1040 1.391 . S
C1041 C1045 1.376 . S
C1042 C1040 1.394 . S
C1042 C1043 1.369 . S
C1042 C1046 1.531 . S
C1043 C1042 1.369 . S
C1043 C1044 1.410 . S
C1043 C1051 1.503 . S
C1044 C1043 1.410 . S
C1044 C1045 1.392 . S
C1044 C1047 1.511 . S
C1045 C1041 1.376 . S
C1045 C1044 1.392 . S
C1045 H1057 0.929 . S
C1046 C1042 1.531 . S
C1046 H1058 0.960 . S
C1046 H1059 0.962 . S
C1046 H1060 0.960 . S
C1047 C1044 1.511 . S
C1047 H1061 0.961 . S
C1047 H1062 0.961 . S
C1047 H1063 0.961 . S
C1048 C1049 1.370 . S
C1048 C1050 1.363 . S
C1048 H1064 0.931 . S
C1049 C1048 1.370 . S
C1049 C1053 1.408 . S
C1050 C1048 1.363 . S
C1050 C1051 1.370 1_565 S
C1050 C1054 1.524 1_565 S
C1051 C1043 1.503 . S
C1051 C1050 1.370 1_545 S
C1051 C1052 1.403 1_545 S
C1052 C1051 1.403 1_565 S
C1052 C1053 1.404 . S
C1052 C1055 1.539 1_565 S
C1053 C1049 1.408 . S
C1053 C1052 1.404 . S
C1053 H1065 0.930 . S
C1054 C1050 1.524 1_545 S
C1054 H1066 0.956 . S
C1054 H1067 0.961 . S
C1054 H1068 0.961 1_545 S
C1055 C1052 1.539 1_545 S
C1055 H1069 0.958 . S
C1055 H1070 0.961 1_545 S
C1055 H1071 0.960 . S
H1056 C1040 0.931 . S
H1057 C1045 0.929 . S
H1058 C1046 0.960 . S
H1059 C1046 0.962 . S
H1060 C1046 0.960 . S
H1061 C1047 0.961 . S
H1062 C1047 0.961 . S
H1063 C1047 0.961 . S
H1064 C1048 0.931 . S
H1065 C1053 0.930 . S
H1066 C1054 0.956 . S
H1067 C1054 0.961 . S
H1068 C1054 0.961 1_565 S
H1069 C1055 0.958 . S
H1070 C1055 0.961 1_565 S
H1071 C1055 0.960 . S
C1072 C1073 1.391 . S
C1072 C1074 1.394 . S
C1072 H1088 0.931 . S
C1073 C1072 1.391 . S
C1073 C1077 1.376 . S
C1074 C1072 1.394 . S
C1074 C1075 1.369 . S
C1074 C1078 1.531 . S
C1075 C1074 1.369 . S
C1075 C1076 1.410 . S
C1075 C1083 1.503 . S
C1076 C1075 1.410 . S
C1076 C1077 1.392 . S
C1076 C1079 1.511 . S
C1077 C1073 1.376 . S
C1077 C1076 1.392 . S
C1077 H1089 0.929 . S
C1078 C1074 1.531 . S
C1078 H1090 0.960 . S
C1078 H1091 0.962 . S
C1078 H1092 0.960 . S
C1079 C1076 1.511 . S
C1079 H1093 0.961 . S
C1079 H1094 0.961 . S
C1079 H1095 0.961 . S
C1080 C1081 1.370 . S
C1080 C1082 1.363 . S
C1080 H1096 0.931 . S
C1081 C1080 1.370 . S
C1081 C1085 1.408 . S
C1082 C1080 1.363 . S
C1082 C1083 1.370 . S
C1082 C1086 1.524 . S
C1083 C1075 1.503 . S
C1083 C1082 1.370 . S
C1083 C1084 1.403 . S
C1084 C1083 1.403 . S
C1084 C1085 1.404 . S
C1084 C1087 1.539 . S
C1085 C1081 1.408 . S
C1085 C1084 1.404 . S
C1085 H1097 0.930 . S
C1086 C1082 1.524 . S
C1086 H1098 0.956 . S
C1086 H1099 0.961 . S
C1086 H1100 0.961 . S
C1087 C1084 1.539 . S
C1087 H1101 0.958 . S
C1087 H1102 0.961 . S
C1087 H1103 0.960 . S
H1088 C1072 0.931 . S
H1089 C1077 0.929 . S
H1090 C1078 0.960 . S
H1091 C1078 0.962 . S
H1092 C1078 0.960 . S
H1093 C1079 0.961 . S
H1094 C1079 0.961 . S
H1095 C1079 0.961 . S
H1096 C1080 0.931 . S
H1097 C1085 0.930 . S
H1098 C1086 0.956 . S
H1099 C1086 0.961 . S
H1100 C1086 0.961 . S
H1101 C1087 0.958 . S
H1102 C1087 0.961 . S
H1103 C1087 0.960 . S
C1104 C1105 1.391 . S
C1104 C1106 1.394 . S
C1104 H1120 0.931 . S
C1105 C1104 1.391 . S
C1105 C1109 1.376 1_455 S
C1106 C1104 1.394 . S
C1106 C1107 1.369 . S
C1106 C1110 1.531 . S
C1107 C1106 1.369 . S
C1107 C1108 1.410 1_455 S
C1107 C1115 1.503 . S
C1108 C1107 1.410 1_655 S
C1108 C1109 1.392 . S
C1108 C1111 1.511 . S
C1109 C1105 1.376 1_655 S
C1109 C1108 1.392 . S
C1109 H1121 0.929 . S
C1110 C1106 1.531 . S
C1110 H1122 0.960 . S
C1110 H1123 0.962 . S
C1110 H1124 0.960 . S
C1111 C1108 1.511 . S
C1111 H1125 0.961 . S
C1111 H1126 0.961 . S
C1111 H1127 0.961 . S
C1112 C1113 1.370 1_455 S
C1112 C1114 1.363 . S
C1112 H1128 0.931 . S
C1113 C1112 1.370 1_655 S
C1113 C1117 1.408 . S
C1114 C1112 1.363 . S
C1114 C1115 1.370 . S
C1114 C1118 1.524 . S
C1115 C1107 1.503 . S
C1115 C1114 1.370 . S
C1115 C1116 1.403 1_455 S
C1116 C1115 1.403 1_655 S
C1116 C1117 1.404 . S
C1116 C1119 1.539 . S
C1117 C1113 1.408 . S
C1117 C1116 1.404 . S
C1117 H1129 0.930 . S
C1118 C1114 1.524 . S
C1118 H1130 0.956 . S
C1118 H1131 0.961 . S
C1118 H1132 0.961 . S
C1119 C1116 1.539 . S
C1119 H1133 0.958 . S
C1119 H1134 0.961 . S
C1119 H1135 0.960 . S
H1120 C1104 0.931 . S
H1121 C1109 0.929 . S
H1122 C1110 0.960 . S
H1123 C1110 0.962 . S
H1124 C1110 0.960 . S
H1125 C1111 0.961 . S
H1126 C1111 0.961 . S
H1127 C1111 0.961 . S
H1128 C1112 0.931 . S
H1129 C1117 0.930 . S
H1130 C1118 0.956 . S
H1131 C1118 0.961 . S
H1132 C1118 0.961 . S
H1133 C1119 0.958 . S
H1134 C1119 0.961 . S
H1135 C1119 0.960 . S
C1136 C1137 1.391 . S
C1136 C1138 1.394 . S
C1136 H1152 0.931 . S
C1137 C1136 1.391 . S
C1137 C1141 1.376 1_565 S
C1138 C1136 1.394 . S
C1138 C1139 1.369 1_665 S
C1138 C1142 1.531 1_655 S
C1139 C1138 1.369 1_445 S
C1139 C1140 1.410 1_455 S
C1139 C1147 1.503 . S
C1140 C1139 1.410 1_655 S
C1140 C1141 1.392 . S
C1140 C1143 1.511 . S
C1141 C1137 1.376 1_545 S
C1141 C1140 1.392 . S
C1141 H1153 0.929 . S
C1142 C1138 1.531 1_455 S
C1142 H1154 0.960 . S
C1142 H1155 0.962 . S
C1142 H1156 0.960 . S
C1143 C1140 1.511 . S
C1143 H1157 0.961 . S
C1143 H1158 0.961 1_655 S
C1143 H1159 0.961 . S
C1144 C1145 1.370 . S
C1144 C1146 1.363 . S
C1144 H1160 0.931 . S
C1145 C1144 1.370 . S
C1145 C1149 1.408 . S
C1146 C1144 1.363 . S
C1146 C1147 1.370 . S
C1146 C1150 1.524 1_545 S
C1147 C1139 1.503 . S
C1147 C1146 1.370 . S
C1147 C1148 1.403 . S
C1148 C1147 1.403 . S
C1148 C1149 1.404 . S
C1148 C1151 1.539 . S
C1149 C1145 1.408 . S
C1149 C1148 1.404 . S
C1149 H1161 0.930 . S
C1150 C1146 1.524 1_565 S
C1150 H1162 0.956 . S
C1150 H1163 0.961 1_565 S
C1150 H1164 0.961 . S
C1151 C1148 1.539 . S
C1151 H1165 0.958 . S
C1151 H1166 0.961 . S
C1151 H1167 0.960 . S
H1152 C1136 0.931 . S
H1153 C1141 0.929 . S
H1154 C1142 0.960 . S
H1155 C1142 0.962 . S
H1156 C1142 0.960 . S
H1157 C1143 0.961 . S
H1158 C1143 0.961 1_455 S
H1159 C1143 0.961 . S
H1160 C1144 0.931 . S
H1161 C1149 0.930 . S
H1162 C1150 0.956 . S
H1163 C1150 0.961 1_545 S
H1164 C1150 0.961 . S
H1165 C1151 0.958 . S
H1166 C1151 0.961 . S
H1167 C1151 0.960 . S
C1168 C1169 1.391 . S
C1168 C1170 1.394 . S
C1168 H1184 0.931 . S
C1169 C1168 1.391 . S
C1169 C1173 1.376 . S
C1170 C1168 1.394 . S
C1170 C1171 1.369 . S
C1170 C1174 1.531 . S
C1171 C1170 1.369 . S
C1171 C1172 1.410 . S
C1171 C1179 1.503 . S
C1172 C1171 1.410 . S
C1172 C1173 1.392 . S
C1172 C1175 1.511 . S
C1173 C1169 1.376 . S
C1173 C1172 1.392 . S
C1173 H1185 0.929 . S
C1174 C1170 1.531 . S
C1174 H1186 0.960 . S
C1174 H1187 0.962 . S
C1174 H1188 0.960 . S
C1175 C1172 1.511 . S
C1175 H1189 0.961 . S
C1175 H1190 0.961 . S
C1175 H1191 0.961 . S
C1176 C1177 1.370 . S
C1176 C1178 1.363 . S
C1176 H1192 0.931 . S
C1177 C1176 1.370 . S
C1177 C1181 1.408 . S
C1178 C1176 1.363 . S
C1178 C1179 1.370 . S
C1178 C1182 1.524 . S
C1179 C1171 1.503 . S
C1179 C1178 1.370 . S
C1179 C1180 1.403 . S
C1180 C1179 1.403 . S
C1180 C1181 1.404 . S
C1180 C1183 1.539 . S
C1181 C1177 1.408 . S
C1181 C1180 1.404 . S
C1181 H1193 0.930 . S
C1182 C1178 1.524 . S
C1182 H1194 0.956 . S
C1182 H1195 0.961 . S
C1182 H1196 0.961 . S
C1183 C1180 1.539 . S
C1183 H1197 0.958 . S
C1183 H1198 0.961 . S
C1183 H1199 0.960 . S
H1184 C1168 0.931 . S
H1185 C1173 0.929 . S
H1186 C1174 0.960 . S
H1187 C1174 0.962 . S
H1188 C1174 0.960 . S
H1189 C1175 0.961 . S
H1190 C1175 0.961 . S
H1191 C1175 0.961 . S
H1192 C1176 0.931 . S
H1193 C1181 0.930 . S
H1194 C1182 0.956 . S
H1195 C1182 0.961 . S
H1196 C1182 0.961 . S
H1197 C1183 0.958 . S
H1198 C1183 0.961 . S
H1199 C1183 0.960 . S
C1200 C1201 1.391 . S
C1200 C1202 1.394 . S
C1200 H1216 0.931 . S
C1201 C1200 1.391 . S
C1201 C1205 1.376 . S
C1202 C1200 1.394 . S
C1202 C1203 1.369 . S
C1202 C1206 1.531 . S
C1203 C1202 1.369 . S
C1203 C1204 1.410 . S
C1203 C1211 1.503 . S
C1204 C1203 1.410 . S
C1204 C1205 1.392 . S
C1204 C1207 1.511 . S
C1205 C1201 1.376 . S
C1205 C1204 1.392 . S
C1205 H1217 0.929 . S
C1206 C1202 1.531 . S
C1206 H1218 0.960 . S
C1206 H1219 0.962 . S
C1206 H1220 0.960 . S
C1207 C1204 1.511 . S
C1207 H1221 0.961 . S
C1207 H1222 0.961 . S
C1207 H1223 0.961 . S
C1208 C1209 1.370 . S
C1208 C1210 1.363 . S
C1208 H1224 0.931 . S
C1209 C1208 1.370 . S
C1209 C1213 1.408 . S
C1210 C1208 1.363 . S
C1210 C1211 1.370 1_655 S
C1210 C1214 1.524 1_655 S
C1211 C1203 1.503 . S
C1211 C1210 1.370 1_455 S
C1211 C1212 1.403 1_455 S
C1212 C1211 1.403 1_655 S
C1212 C1213 1.404 . S
C1212 C1215 1.539 1_655 S
C1213 C1209 1.408 . S
C1213 C1212 1.404 . S
C1213 H1225 0.930 . S
C1214 C1210 1.524 1_455 S
C1214 H1226 0.956 . S
C1214 H1227 0.961 . S
C1214 H1228 0.961 1_455 S
C1215 C1212 1.539 1_455 S
C1215 H1229 0.958 . S
C1215 H1230 0.961 . S
C1215 H1231 0.960 . S
H1216 C1200 0.931 . S
H1217 C1205 0.929 . S
H1218 C1206 0.960 . S
H1219 C1206 0.962 . S
H1220 C1206 0.960 . S
H1221 C1207 0.961 . S
H1222 C1207 0.961 . S
H1223 C1207 0.961 . S
H1224 C1208 0.931 . S
H1225 C1213 0.930 . S
H1226 C1214 0.956 . S
H1227 C1214 0.961 . S
H1228 C1214 0.961 1_655 S
H1229 C1215 0.958 . S
H1230 C1215 0.961 . S
H1231 C1215 0.960 . S
C1232 C1233 1.391 1_455 S
C1232 C1234 1.394 . S
C1232 H1248 0.931 . S
C1233 C1232 1.391 1_655 S
C1233 C1237 1.376 . S
C1234 C1232 1.394 . S
C1234 C1235 1.369 1_565 S
C1234 C1238 1.542 . S
C1235 C1234 1.369 1_545 S
C1235 C1236 1.410 1_445 S
C1235 C1243 1.503 . S
C1236 C1235 1.410 1_665 S
C1236 C1237 1.392 . S
C1236 C1239 1.511 1_565 S
C1237 C1233 1.376 . S
C1237 C1236 1.392 . S
C1237 H1249 0.929 . S
C1238 C1234 1.542 . S
C1238 H1250 0.932 1_565 S
C1238 H1251 0.959 1_565 S
C1238 H1252 0.981 . S
C1239 C1236 1.511 1_545 S
C1239 H1253 0.961 . S
C1239 H1254 0.961 . S
C1239 H1255 0.961 . S
C1240 C1241 1.370 . S
C1240 C1242 1.363 . S
C1240 H1256 0.931 . S
C1241 C1240 1.370 . S
C1241 C1245 1.408 . S
C1242 C1240 1.363 . S
C1242 C1243 1.370 . S
C1242 C1246 1.524 . S
C1243 C1235 1.503 . S
C1243 C1242 1.370 . S
C1243 C1244 1.403 . S
C1244 C1243 1.403 . S
C1244 C1245 1.404 . S
C1244 C1247 1.539 . S
C1245 C1241 1.408 . S
C1245 C1244 1.404 . S
C1245 H1257 0.930 . S
C1246 C1242 1.524 . S
C1246 H1258 0.956 . S
C1246 H1259 0.961 1_455 S
C1246 H1260 0.961 . S
C1247 C1244 1.539 . S
C1247 H1261 0.958 . S
C1247 H1262 0.972 . S
C1247 H1263 0.960 1_455 S
H1248 C1232 0.931 . S
H1249 C1237 0.929 . S
H1250 C1238 0.932 1_545 S
H1251 C1238 0.959 1_545 S
H1252 C1238 0.981 . S
H1253 C1239 0.961 . S
H1254 C1239 0.961 . S
H1255 C1239 0.961 . S
H1256 C1240 0.931 . S
H1257 C1245 0.930 . S
H1258 C1246 0.956 . S
H1259 C1246 0.961 1_655 S
H1260 C1246 0.961 . S
H1261 C1247 0.958 . S
H1262 C1247 0.972 . S
H1263 C1247 0.960 1_655 S
C1264 C1265 1.391 . S
C1264 C1266 1.394 . S
C1264 H1280 0.931 . S
C1265 C1264 1.391 . S
C1265 C1269 1.376 . S
C1266 C1264 1.394 . S
C1266 C1267 1.369 . S
C1266 C1270 1.531 . S
C1267 C1266 1.369 . S
C1267 C1268 1.410 . S
C1267 C1275 1.503 . S
C1268 C1267 1.410 . S
C1268 C1269 1.392 . S
C1268 C1271 1.511 1_545 S
C1269 C1265 1.376 . S
C1269 C1268 1.392 . S
C1269 H1281 0.929 1_545 S
C1270 C1266 1.531 . S
C1270 H1282 0.960 . S
C1270 H1283 0.962 . S
C1270 H1284 0.960 . S
C1271 C1268 1.511 1_565 S
C1271 H1285 0.961 . S
C1271 H1286 0.961 . S
C1271 H1287 0.961 . S
C1272 C1273 1.370 . S
C1272 C1274 1.363 . S
C1272 H1288 0.931 . S
C1273 C1272 1.370 . S
C1273 C1277 1.408 1_565 S
C1274 C1272 1.363 . S
C1274 C1275 1.370 1_565 S
C1274 C1278 1.524 . S
C1275 C1267 1.503 . S
C1275 C1274 1.370 1_545 S
C1275 C1276 1.403 . S
C1276 C1275 1.403 . S
C1276 C1277 1.404 . S
C1276 C1279 1.539 . S
C1277 C1273 1.408 1_545 S
C1277 C1276 1.404 . S
C1277 H1289 0.930 . S
C1278 C1274 1.524 . S
C1278 H1290 0.956 . S
C1278 H1291 0.961 . S
C1278 H1292 0.961 . S
C1279 C1276 1.539 . S
C1279 H1293 0.958 . S
C1279 H1294 0.961 . S
C1279 H1295 0.960 . S
H1280 C1264 0.931 . S
H1281 C1269 0.929 1_565 S
H1282 C1270 0.960 . S
H1283 C1270 0.962 . S
H1284 C1270 0.960 . S
H1285 C1271 0.961 . S
H1286 C1271 0.961 . S
H1287 C1271 0.961 . S
H1288 C1272 0.931 . S
H1289 C1277 0.930 . S
H1290 C1278 0.956 . S
H1291 C1278 0.961 . S
H1292 C1278 0.961 . S
H1293 C1279 0.958 . S
H1294 C1279 0.961 . S
H1295 C1279 0.960 . S
C1296 C1297 1.391 . S
C1296 C1298 1.394 . S
C1296 H1312 0.931 . S
C1297 C1296 1.391 . S
C1297 C1301 1.376 . S
C1298 C1296 1.394 . S
C1298 C1299 1.369 . S
C1298 C1302 1.531 . S
C1299 C1298 1.369 . S
C1299 C1300 1.410 . S
C1299 C1307 1.503 . S
C1300 C1299 1.410 . S
C1300 C1301 1.392 . S
C1300 C1303 1.511 . S
C1301 C1297 1.376 . S
C1301 C1300 1.392 . S
C1301 H1313 0.929 . S
C1302 C1298 1.531 . S
C1302 H1314 0.960 . S
C1302 H1315 0.962 . S
C1302 H1316 0.960 . S
C1303 C1300 1.511 . S
C1303 H1317 0.961 . S
C1303 H1318 0.961 . S
C1303 H1319 0.961 . S
C1304 C1305 1.370 . S
C1304 C1306 1.363 . S
C1304 H1320 0.931 . S
C1305 C1304 1.370 . S
C1305 C1309 1.408 . S
C1306 C1304 1.363 . S
C1306 C1307 1.370 . S
C1306 C1310 1.524 . S
C1307 C1299 1.503 . S
C1307 C1306 1.370 . S
C1307 C1308 1.403 . S
C1308 C1307 1.403 . S
C1308 C1309 1.404 . S
C1308 C1311 1.539 . S
C1309 C1305 1.408 . S
C1309 C1308 1.404 . S
C1309 H1321 0.930 . S
C1310 C1306 1.524 . S
C1310 H1322 0.956 . S
C1310 H1323 0.961 . S
C1310 H1324 0.961 . S
C1311 C1308 1.539 . S
C1311 H1325 0.958 . S
C1311 H1326 0.961 . S
C1311 H1327 0.960 . S
H1312 C1296 0.931 . S
H1313 C1301 0.929 . S
H1314 C1302 0.960 . S
H1315 C1302 0.962 . S
H1316 C1302 0.960 . S
H1317 C1303 0.961 . S
H1318 C1303 0.961 . S
H1319 C1303 0.961 . S
H1320 C1304 0.931 . S
H1321 C1309 0.930 . S
H1322 C1310 0.956 . S
H1323 C1310 0.961 . S
H1324 C1310 0.961 . S
H1325 C1311 0.958 . S
H1326 C1311 0.961 . S
H1327 C1311 0.960 . S
C1328 C1329 1.391 . S
C1328 C1330 1.394 . S
C1328 H1344 0.931 . S
C1329 C1328 1.391 . S
C1329 C1333 1.376 . S
C1330 C1328 1.394 . S
C1330 C1331 1.369 . S
C1330 C1334 1.531 . S
C1331 C1330 1.369 . S
C1331 C1332 1.410 . S
C1331 C1339 1.503 . S
C1332 C1331 1.410 . S
C1332 C1333 1.392 . S
C1332 C1335 1.511 . S
C1333 C1329 1.376 . S
C1333 C1332 1.392 . S
C1333 H1345 0.929 . S
C1334 C1330 1.531 . S
C1334 H1346 0.960 . S
C1334 H1347 0.962 . S
C1334 H1348 0.960 . S
C1335 C1332 1.511 . S
C1335 H1349 0.961 . S
C1335 H1350 0.961 . S
C1335 H1351 0.961 . S
C1336 C1337 1.370 . S
C1336 C1338 1.363 . S
C1336 H1352 0.931 . S
C1337 C1336 1.370 . S
C1337 C1341 1.408 . S
C1338 C1336 1.363 . S
C1338 C1339 1.370 . S
C1338 C1342 1.524 . S
C1339 C1331 1.503 . S
C1339 C1338 1.370 . S
C1339 C1340 1.403 . S
C1340 C1339 1.403 . S
C1340 C1341 1.404 . S
C1340 C1343 1.539 . S
C1341 C1337 1.408 . S
C1341 C1340 1.404 . S
C1341 H1353 0.930 . S
C1342 C1338 1.524 . S
C1342 H1354 0.956 . S
C1342 H1355 0.961 . S
C1342 H1356 0.961 . S
C1343 C1340 1.539 . S
C1343 H1357 0.958 . S
C1343 H1358 0.961 . S
C1343 H1359 0.960 . S
H1344 C1328 0.931 . S
H1345 C1333 0.929 . S
H1346 C1334 0.960 . S
H1347 C1334 0.962 . S
H1348 C1334 0.960 . S
H1349 C1335 0.961 . S
H1350 C1335 0.961 . S
H1351 C1335 0.961 . S
H1352 C1336 0.931 . S
H1353 C1341 0.930 . S
H1354 C1342 0.956 . S
H1355 C1342 0.961 . S
H1356 C1342 0.961 . S
H1357 C1343 0.958 . S
H1358 C1343 0.961 . S
H1359 C1343 0.960 . S
C1360 C1361 1.391 . S
C1360 C1362 1.394 . S
C1360 H1376 0.931 . S
C1361 C1360 1.391 . S
C1361 C1365 1.376 . S
C1362 C1360 1.394 . S
C1362 C1363 1.369 . S
C1362 C1366 1.531 . S
C1363 C1362 1.369 . S
C1363 C1364 1.410 . S
C1363 C1371 1.503 . S
C1364 C1363 1.410 . S
C1364 C1365 1.392 . S
C1364 C1367 1.511 . S
C1365 C1361 1.376 . S
C1365 C1364 1.392 . S
C1365 H1377 0.929 . S
C1366 C1362 1.531 . S
C1366 H1378 0.960 . S
C1366 H1379 0.962 . S
C1366 H1380 0.960 . S
C1367 C1364 1.511 . S
C1367 H1381 0.961 . S
C1367 H1382 0.961 . S
C1367 H1383 0.961 . S
C1368 C1369 1.370 . S
C1368 C1370 1.363 . S
C1368 H1384 0.931 . S
C1369 C1368 1.370 . S
C1369 C1373 1.408 . S
C1370 C1368 1.363 . S
C1370 C1371 1.370 . S
C1370 C1374 1.524 . S
C1371 C1363 1.503 . S
C1371 C1370 1.370 . S
C1371 C1372 1.403 . S
C1372 C1371 1.403 . S
C1372 C1373 1.404 . S
C1372 C1375 1.539 . S
C1373 C1369 1.408 . S
C1373 C1372 1.404 . S
C1373 H1385 0.930 . S
C1374 C1370 1.524 . S
C1374 H1386 0.956 . S
C1374 H1387 0.961 . S
C1374 H1388 0.961 . S
C1375 C1372 1.539 . S
C1375 H1389 0.958 . S
C1375 H1390 0.961 . S
C1375 H1391 0.960 . S
H1376 C1360 0.931 . S
H1377 C1365 0.929 . S
H1378 C1366 0.960 . S
H1379 C1366 0.962 . S
H1380 C1366 0.960 . S
H1381 C1367 0.961 . S
H1382 C1367 0.961 . S
H1383 C1367 0.961 . S
H1384 C1368 0.931 . S
H1385 C1373 0.930 . S
H1386 C1374 0.956 . S
H1387 C1374 0.961 . S
H1388 C1374 0.961 . S
H1389 C1375 0.958 . S
H1390 C1375 0.961 . S
H1391 C1375 0.960 . S
C1392 C1393 1.391 . S
C1392 C1394 1.394 . S
C1392 H1408 0.931 . S
C1393 C1392 1.391 . S
C1393 C1397 1.376 . S
C1394 C1392 1.394 . S
C1394 C1395 1.369 . S
C1394 C1398 1.531 . S
C1395 C1394 1.369 . S
C1395 C1396 1.410 . S
C1395 C1403 1.503 . S
C1396 C1395 1.410 . S
C1396 C1397 1.392 . S
C1396 C1399 1.511 . S
C1397 C1393 1.376 . S
C1397 C1396 1.392 . S
C1397 H1409 0.929 . S
C1398 C1394 1.531 . S
C1398 H1410 0.960 . S
C1398 H1411 0.962 . S
C1398 H1412 0.960 . S
C1399 C1396 1.511 . S
C1399 H1413 0.961 . S
C1399 H1414 0.961 . S
C1399 H1415 0.961 . S
C1400 C1401 1.370 . S
C1400 C1402 1.363 . S
C1400 H1416 0.931 . S
C1401 C1400 1.370 . S
C1401 C1405 1.408 . S
C1402 C1400 1.363 . S
C1402 C1403 1.370 . S
C1402 C1406 1.524 . S
C1403 C1395 1.503 . S
C1403 C1402 1.370 . S
C1403 C1404 1.403 . S
C1404 C1403 1.403 . S
C1404 C1405 1.404 . S
C1404 C1407 1.539 . S
C1405 C1401 1.408 . S
C1405 C1404 1.404 . S
C1405 H1417 0.930 . S
C1406 C1402 1.524 . S
C1406 H1418 0.956 . S
C1406 H1419 0.961 . S
C1406 H1420 0.961 . S
C1407 C1404 1.539 . S
C1407 H1421 0.958 . S
C1407 H1422 0.961 . S
C1407 H1423 0.960 . S
H1408 C1392 0.931 . S
H1409 C1397 0.929 . S
H1410 C1398 0.960 . S
H1411 C1398 0.962 . S
H1412 C1398 0.960 . S
H1413 C1399 0.961 . S
H1414 C1399 0.961 . S
H1415 C1399 0.961 . S
H1416 C1400 0.931 . S
H1417 C1405 0.930 . S
H1418 C1406 0.956 . S
H1419 C1406 0.961 . S
H1420 C1406 0.961 . S
H1421 C1407 0.958 . S
H1422 C1407 0.961 . S
H1423 C1407 0.960 . S
C1424 C1425 1.391 . S
C1424 C1426 1.394 . S
C1424 H1440 0.931 . S
C1425 C1424 1.391 . S
C1425 C1429 1.376 . S
C1426 C1424 1.394 . S
C1426 C1427 1.369 . S
C1426 C1430 1.531 . S
C1427 C1426 1.369 . S
C1427 C1428 1.410 . S
C1427 C1435 1.503 . S
C1428 C1427 1.410 . S
C1428 C1429 1.392 . S
C1428 C1431 1.511 . S
C1429 C1425 1.376 . S
C1429 C1428 1.392 . S
C1429 H1441 0.929 . S
C1430 C1426 1.531 . S
C1430 H1442 0.960 . S
C1430 H1443 0.962 . S
C1430 H1444 0.960 . S
C1431 C1428 1.511 . S
C1431 H1445 0.961 . S
C1431 H1446 0.961 . S
C1431 H1447 0.961 . S
C1432 C1433 1.370 . S
C1432 C1434 1.363 . S
C1432 H1448 0.931 . S
C1433 C1432 1.370 . S
C1433 C1437 1.408 . S
C1434 C1432 1.363 . S
C1434 C1435 1.370 . S
C1434 C1438 1.524 . S
C1435 C1427 1.503 . S
C1435 C1434 1.370 . S
C1435 C1436 1.403 . S
C1436 C1435 1.403 . S
C1436 C1437 1.404 . S
C1436 C1439 1.539 . S
C1437 C1433 1.408 . S
C1437 C1436 1.404 . S
C1437 H1449 0.930 . S
C1438 C1434 1.524 . S
C1438 H1450 0.956 . S
C1438 H1451 0.961 . S
C1438 H1452 0.961 . S
C1439 C1436 1.539 . S
C1439 H1453 0.958 . S
C1439 H1454 0.961 . S
C1439 H1455 0.960 . S
H1440 C1424 0.931 . S
H1441 C1429 0.929 . S
H1442 C1430 0.960 . S
H1443 C1430 0.962 . S
H1444 C1430 0.960 . S
H1445 C1431 0.961 . S
H1446 C1431 0.961 . S
H1447 C1431 0.961 . S
H1448 C1432 0.931 . S
H1449 C1437 0.930 . S
H1450 C1438 0.956 . S
H1451 C1438 0.961 . S
H1452 C1438 0.961 . S
H1453 C1439 0.958 . S
H1454 C1439 0.961 . S
H1455 C1439 0.960 . S
C1456 C1457 1.391 . S
C1456 C1458 1.394 . S
C1456 H1472 0.931 . S
C1457 C1456 1.391 . S
C1457 C1461 1.376 . S
C1458 C1456 1.394 . S
C1458 C1459 1.369 . S
C1458 C1462 1.531 . S
C1459 C1458 1.369 . S
C1459 C1460 1.410 . S
C1459 C1467 1.503 . S
C1460 C1459 1.410 . S
C1460 C1461 1.392 . S
C1460 C1463 1.511 . S
C1461 C1457 1.376 . S
C1461 C1460 1.392 . S
C1461 H1473 0.929 . S
C1462 C1458 1.531 . S
C1462 H1474 0.960 . S
C1462 H1475 0.962 . S
C1462 H1476 0.960 . S
C1463 C1460 1.511 . S
C1463 H1477 0.961 . S
C1463 H1478 0.961 . S
C1463 H1479 0.961 . S
C1464 C1465 1.370 . S
C1464 C1466 1.363 . S
C1464 H1480 0.931 . S
C1465 C1464 1.370 . S
C1465 C1469 1.408 . S
C1466 C1464 1.363 . S
C1466 C1467 1.370 . S
C1466 C1470 1.524 . S
C1467 C1459 1.503 . S
C1467 C1466 1.370 . S
C1467 C1468 1.403 . S
C1468 C1467 1.403 . S
C1468 C1469 1.404 . S
C1468 C1471 1.539 . S
C1469 C1465 1.408 . S
C1469 C1468 1.404 . S
C1469 H1481 0.930 . S
C1470 C1466 1.524 . S
C1470 H1482 0.956 . S
C1470 H1483 0.961 . S
C1470 H1484 0.961 . S
C1471 C1468 1.539 . S
C1471 H1485 0.958 . S
C1471 H1486 0.961 . S
C1471 H1487 0.960 . S
H1472 C1456 0.931 . S
H1473 C1461 0.929 . S
H1474 C1462 0.960 . S
H1475 C1462 0.962 . S
H1476 C1462 0.960 . S
H1477 C1463 0.961 . S
H1478 C1463 0.961 . S
H1479 C1463 0.961 . S
H1480 C1464 0.931 . S
H1481 C1469 0.930 . S
H1482 C1470 0.956 . S
H1483 C1470 0.961 . S
H1484 C1470 0.961 . S
H1485 C1471 0.958 . S
H1486 C1471 0.961 . S
H1487 C1471 0.960 . S
C1488 C1489 1.391 . S
C1488 C1490 1.394 . S
C1488 H1504 0.931 . S
C1489 C1488 1.391 . S
C1489 C1493 1.376 . S
C1490 C1488 1.394 . S
C1490 C1491 1.369 . S
C1490 C1494 1.531 . S
C1491 C1490 1.369 . S
C1491 C1492 1.410 . S
C1491 C1499 1.503 . S
C1492 C1491 1.410 . S
C1492 C1493 1.392 . S
C1492 C1495 1.511 . S
C1493 C1489 1.376 . S
C1493 C1492 1.392 . S
C1493 H1505 0.929 . S
C1494 C1490 1.531 . S
C1494 H1506 0.960 . S
C1494 H1507 0.962 . S
C1494 H1508 0.960 . S
C1495 C1492 1.511 . S
C1495 H1509 0.961 . S
C1495 H1510 0.961 . S
C1495 H1511 0.961 . S
C1496 C1497 1.370 . S
C1496 C1498 1.363 . S
C1496 H1512 0.931 . S
C1497 C1496 1.370 . S
C1497 C1501 1.408 . S
C1498 C1496 1.363 . S
C1498 C1499 1.370 . S
C1498 C1502 1.524 . S
C1499 C1491 1.503 . S
C1499 C1498 1.370 . S
C1499 C1500 1.403 . S
C1500 C1499 1.403 . S
C1500 C1501 1.404 . S
C1500 C1503 1.539 . S
C1501 C1497 1.408 . S
C1501 C1500 1.404 . S
C1501 H1513 0.930 . S
C1502 C1498 1.524 . S
C1502 H1514 0.956 . S
C1502 H1515 0.961 . S
C1502 H1516 0.961 . S
C1503 C1500 1.539 . S
C1503 H1517 0.958 . S
C1503 H1518 0.961 . S
C1503 H1519 0.960 . S
H1504 C1488 0.931 . S
H1505 C1493 0.929 . S
H1506 C1494 0.960 . S
H1507 C1494 0.962 . S
H1508 C1494 0.960 . S
H1509 C1495 0.961 . S
H1510 C1495 0.961 . S
H1511 C1495 0.961 . S
H1512 C1496 0.931 . S
H1513 C1501 0.930 . S
H1514 C1502 0.956 . S
H1515 C1502 0.961 . S
H1516 C1502 0.961 . S
H1517 C1503 0.958 . S
H1518 C1503 0.961 . S
H1519 C1503 0.960 . S
C1520 C1521 1.391 . S
C1520 C1522 1.394 . S
C1520 H1536 0.931 . S
C1521 C1520 1.391 . S
C1521 C1525 1.376 . S
C1522 C1520 1.394 . S
C1522 C1523 1.369 . S
C1522 C1526 1.531 . S
C1523 C1522 1.369 . S
C1523 C1524 1.410 . S
C1523 C1531 1.503 . S
C1524 C1523 1.410 . S
C1524 C1525 1.392 . S
C1524 C1527 1.511 . S
C1525 C1521 1.376 . S
C1525 C1524 1.392 . S
C1525 H1537 0.929 . S
C1526 C1522 1.531 . S
C1526 H1538 0.960 . S
C1526 H1539 0.962 . S
C1526 H1540 0.960 . S
C1527 C1524 1.511 . S
C1527 H1541 0.961 . S
C1527 H1542 0.961 . S
C1527 H1543 0.961 . S
C1528 C1529 1.370 . S
C1528 C1530 1.363 . S
C1528 H1544 0.931 . S
C1529 C1528 1.370 . S
C1529 C1533 1.408 . S
C1530 C1528 1.363 . S
C1530 C1531 1.370 . S
C1530 C1534 1.524 . S
C1531 C1523 1.503 . S
C1531 C1530 1.370 . S
C1531 C1532 1.403 . S
C1532 C1531 1.403 . S
C1532 C1533 1.404 . S
C1532 C1535 1.539 . S
C1533 C1529 1.408 . S
C1533 C1532 1.404 . S
C1533 H1545 0.930 . S
C1534 C1530 1.524 . S
C1534 H1546 0.956 . S
C1534 H1547 0.961 . S
C1534 H1548 0.961 . S
C1535 C1532 1.539 . S
C1535 H1549 0.958 . S
C1535 H1550 0.961 . S
C1535 H1551 0.960 . S
H1536 C1520 0.931 . S
H1537 C1525 0.929 . S
H1538 C1526 0.960 . S
H1539 C1526 0.962 . S
H1540 C1526 0.960 . S
H1541 C1527 0.961 . S
H1542 C1527 0.961 . S
H1543 C1527 0.961 . S
H1544 C1528 0.931 . S
H1545 C1533 0.930 . S
H1546 C1534 0.956 . S
H1547 C1534 0.961 . S
H1548 C1534 0.961 . S
H1549 C1535 0.958 . S
H1550 C1535 0.961 . S
H1551 C1535 0.960 . S
C1552 C1553 1.391 . S
C1552 C1554 1.394 . S
C1552 H1568 0.931 . S
C1553 C1552 1.391 . S
C1553 C1557 1.376 . S
C1554 C1552 1.394 . S
C1554 C1555 1.369 . S
C1554 C1558 1.531 . S
C1555 C1554 1.369 . S
C1555 C1556 1.410 . S
C1555 C1563 1.503 . S
C1556 C1555 1.410 . S
C1556 C1557 1.392 . S
C1556 C1559 1.511 . S
C1557 C1553 1.376 . S
C1557 C1556 1.392 . S
C1557 H1569 0.929 . S
C1558 C1554 1.531 . S
C1558 H1570 0.960 . S
C1558 H1571 0.962 . S
C1558 H1572 0.960 . S
C1559 C1556 1.511 . S
C1559 H1573 0.961 . S
C1559 H1574 0.961 . S
C1559 H1575 0.961 . S
C1560 C1561 1.370 . S
C1560 C1562 1.363 . S
C1560 H1576 0.931 . S
C1561 C1560 1.370 . S
C1561 C1565 1.408 . S
C1562 C1560 1.363 . S
C1562 C1563 1.370 . S
C1562 C1566 1.524 . S
C1563 C1555 1.503 . S
C1563 C1562 1.370 . S
C1563 C1564 1.403 . S
C1564 C1563 1.403 . S
C1564 C1565 1.404 . S
C1564 C1567 1.539 . S
C1565 C1561 1.408 . S
C1565 C1564 1.404 . S
C1565 H1577 0.930 . S
C1566 C1562 1.524 . S
C1566 H1578 0.956 . S
C1566 H1579 0.961 . S
C1566 H1580 0.961 . S
C1567 C1564 1.539 . S
C1567 H1581 0.958 . S
C1567 H1582 0.961 . S
C1567 H1583 0.960 . S
H1568 C1552 0.931 . S
H1569 C1557 0.929 . S
H1570 C1558 0.960 . S
H1571 C1558 0.962 . S
H1572 C1558 0.960 . S
H1573 C1559 0.961 . S
H1574 C1559 0.961 . S
H1575 C1559 0.961 . S
H1576 C1560 0.931 . S
H1577 C1565 0.930 . S
H1578 C1566 0.956 . S
H1579 C1566 0.961 . S
H1580 C1566 0.961 . S
H1581 C1567 0.958 . S
H1582 C1567 0.961 . S
H1583 C1567 0.960 . S
C1584 C1585 1.391 . S
C1584 C1586 1.394 . S
C1584 H1600 0.931 . S
C1585 C1584 1.391 . S
C1585 C1589 1.376 . S
C1586 C1584 1.394 . S
C1586 C1587 1.369 . S
C1586 C1590 1.531 . S
C1587 C1586 1.369 . S
C1587 C1588 1.410 . S
C1587 C1595 1.503 . S
C1588 C1587 1.410 . S
C1588 C1589 1.392 . S
C1588 C1591 1.511 . S
C1589 C1585 1.376 . S
C1589 C1588 1.392 . S
C1589 H1601 0.929 . S
C1590 C1586 1.531 . S
C1590 H1602 0.960 . S
C1590 H1603 0.962 . S
C1590 H1604 0.960 . S
C1591 C1588 1.511 . S
C1591 H1605 0.961 . S
C1591 H1606 0.961 . S
C1591 H1607 0.961 . S
C1592 C1593 1.370 . S
C1592 C1594 1.363 . S
C1592 H1608 0.931 . S
C1593 C1592 1.370 . S
C1593 C1597 1.408 . S
C1594 C1592 1.363 . S
C1594 C1595 1.370 . S
C1594 C1598 1.524 . S
C1595 C1587 1.503 . S
C1595 C1594 1.370 . S
C1595 C1596 1.403 . S
C1596 C1595 1.403 . S
C1596 C1597 1.404 . S
C1596 C1599 1.539 . S
C1597 C1593 1.408 . S
C1597 C1596 1.404 . S
C1597 H1609 0.930 . S
C1598 C1594 1.524 . S
C1598 H1610 0.956 . S
C1598 H1611 0.961 . S
C1598 H1612 0.961 . S
C1599 C1596 1.539 . S
C1599 H1613 0.958 . S
C1599 H1614 0.961 . S
C1599 H1615 0.960 . S
H1600 C1584 0.931 . S
H1601 C1589 0.929 . S
H1602 C1590 0.960 . S
H1603 C1590 0.962 . S
H1604 C1590 0.960 . S
H1605 C1591 0.961 . S
H1606 C1591 0.961 . S
H1607 C1591 0.961 . S
H1608 C1592 0.931 . S
H1609 C1597 0.930 . S
H1610 C1598 0.956 . S
H1611 C1598 0.961 . S
H1612 C1598 0.961 . S
H1613 C1599 0.958 . S
H1614 C1599 0.961 . S
H1615 C1599 0.960 . S
C1616 C1617 1.391 . S
C1616 C1618 1.394 . S
C1616 H1632 0.931 . S
C1617 C1616 1.391 . S
C1617 C1621 1.376 . S
C1618 C1616 1.394 . S
C1618 C1619 1.369 . S
C1618 C1622 1.531 . S
C1619 C1618 1.369 . S
C1619 C1620 1.410 . S
C1619 C1627 1.503 . S
C1620 C1619 1.410 . S
C1620 C1621 1.392 . S
C1620 C1623 1.511 . S
C1621 C1617 1.376 . S
C1621 C1620 1.392 . S
C1621 H1633 0.929 . S
C1622 C1618 1.531 . S
C1622 H1634 0.960 . S
C1622 H1635 0.962 . S
C1622 H1636 0.960 . S
C1623 C1620 1.511 . S
C1623 H1637 0.961 . S
C1623 H1638 0.961 . S
C1623 H1639 0.961 . S
C1624 C1625 1.370 . S
C1624 C1626 1.363 . S
C1624 H1640 0.931 . S
C1625 C1624 1.370 . S
C1625 C1629 1.408 . S
C1626 C1624 1.363 . S
C1626 C1627 1.370 . S
C1626 C1630 1.524 . S
C1627 C1619 1.503 . S
C1627 C1626 1.370 . S
C1627 C1628 1.403 . S
C1628 C1627 1.403 . S
C1628 C1629 1.404 . S
C1628 C1631 1.539 . S
C1629 C1625 1.408 . S
C1629 C1628 1.404 . S
C1629 H1641 0.930 . S
C1630 C1626 1.524 . S
C1630 H1642 0.956 . S
C1630 H1643 0.961 . S
C1630 H1644 0.961 . S
C1631 C1628 1.539 . S
C1631 H1645 0.958 . S
C1631 H1646 0.961 . S
C1631 H1647 0.960 . S
H1632 C1616 0.931 . S
H1633 C1621 0.929 . S
H1634 C1622 0.960 . S
H1635 C1622 0.962 . S
H1636 C1622 0.960 . S
H1637 C1623 0.961 . S
H1638 C1623 0.961 . S
H1639 C1623 0.961 . S
H1640 C1624 0.931 . S
H1641 C1629 0.930 . S
H1642 C1630 0.956 . S
H1643 C1630 0.961 . S
H1644 C1630 0.961 . S
H1645 C1631 0.958 . S
H1646 C1631 0.961 . S
H1647 C1631 0.960 . S
C1648 C1649 1.391 . S
C1648 C1650 1.394 . S
C1648 H1664 0.931 . S
C1649 C1648 1.391 . S
C1649 C1653 1.376 . S
C1650 C1648 1.394 . S
C1650 C1651 1.369 . S
C1650 C1654 1.531 . S
C1651 C1650 1.369 . S
C1651 C1652 1.410 . S
C1651 C1659 1.503 . S
C1652 C1651 1.410 . S
C1652 C1653 1.392 . S
C1652 C1655 1.511 . S
C1653 C1649 1.376 . S
C1653 C1652 1.392 . S
C1653 H1665 0.929 . S
C1654 C1650 1.531 . S
C1654 H1666 0.960 . S
C1654 H1667 0.962 . S
C1654 H1668 0.960 . S
C1655 C1652 1.511 . S
C1655 H1669 0.961 . S
C1655 H1670 0.961 . S
C1655 H1671 0.961 . S
C1656 C1657 1.370 . S
C1656 C1658 1.363 . S
C1656 H1672 0.931 . S
C1657 C1656 1.370 . S
C1657 C1661 1.408 . S
C1658 C1656 1.363 . S
C1658 C1659 1.370 . S
C1658 C1662 1.524 . S
C1659 C1651 1.503 . S
C1659 C1658 1.370 . S
C1659 C1660 1.403 . S
C1660 C1659 1.403 . S
C1660 C1661 1.404 . S
C1660 C1663 1.539 . S
C1661 C1657 1.408 . S
C1661 C1660 1.404 . S
C1661 H1673 0.930 . S
C1662 C1658 1.524 . S
C1662 H1674 0.956 . S
C1662 H1675 0.961 . S
C1662 H1676 0.961 . S
C1663 C1660 1.539 . S
C1663 H1677 0.958 . S
C1663 H1678 0.961 . S
C1663 H1679 0.960 . S
H1664 C1648 0.931 . S
H1665 C1653 0.929 . S
H1666 C1654 0.960 . S
H1667 C1654 0.962 . S
H1668 C1654 0.960 . S
H1669 C1655 0.961 . S
H1670 C1655 0.961 . S
H1671 C1655 0.961 . S
H1672 C1656 0.931 . S
H1673 C1661 0.930 . S
H1674 C1662 0.956 . S
H1675 C1662 0.961 . S
H1676 C1662 0.961 . S
H1677 C1663 0.958 . S
H1678 C1663 0.961 . S
H1679 C1663 0.960 . S
C1680 C1681 1.391 . S
C1680 C1682 1.394 . S
C1680 H1696 0.931 . S
C1681 C1680 1.391 . S
C1681 C1685 1.376 . S
C1682 C1680 1.394 . S
C1682 C1683 1.369 . S
C1682 C1686 1.531 . S
C1683 C1682 1.369 . S
C1683 C1684 1.410 . S
C1683 C1691 1.503 . S
C1684 C1683 1.410 . S
C1684 C1685 1.392 . S
C1684 C1687 1.511 . S
C1685 C1681 1.376 . S
C1685 C1684 1.392 . S
C1685 H1697 0.929 . S
C1686 C1682 1.531 . S
C1686 H1698 0.960 . S
C1686 H1699 0.962 . S
C1686 H1700 0.960 . S
C1687 C1684 1.511 . S
C1687 H1701 0.961 . S
C1687 H1702 0.961 . S
C1687 H1703 0.961 . S
C1688 C1689 1.370 . S
C1688 C1690 1.363 . S
C1688 H1704 0.931 . S
C1689 C1688 1.370 . S
C1689 C1693 1.408 . S
C1690 C1688 1.363 . S
C1690 C1691 1.370 . S
C1690 C1694 1.524 . S
C1691 C1683 1.503 . S
C1691 C1690 1.370 . S
C1691 C1692 1.403 . S
C1692 C1691 1.403 . S
C1692 C1693 1.404 . S
C1692 C1695 1.539 . S
C1693 C1689 1.408 . S
C1693 C1692 1.404 . S
C1693 H1705 0.930 . S
C1694 C1690 1.524 . S
C1694 H1706 0.956 . S
C1694 H1707 0.961 . S
C1694 H1708 0.961 . S
C1695 C1692 1.539 . S
C1695 H1709 0.958 . S
C1695 H1710 0.961 . S
C1695 H1711 0.960 . S
H1696 C1680 0.931 . S
H1697 C1685 0.929 . S
H1698 C1686 0.960 . S
H1699 C1686 0.962 . S
H1700 C1686 0.960 . S
H1701 C1687 0.961 . S
H1702 C1687 0.961 . S
H1703 C1687 0.961 . S
H1704 C1688 0.931 . S
H1705 C1693 0.930 . S
H1706 C1694 0.956 . S
H1707 C1694 0.961 . S
H1708 C1694 0.961 . S
H1709 C1695 0.958 . S
H1710 C1695 0.961 . S
H1711 C1695 0.960 . S
C1712 C1713 1.391 . S
C1712 C1714 1.394 . S
C1712 H1728 0.931 . S
C1713 C1712 1.391 . S
C1713 C1717 1.376 . S
C1714 C1712 1.394 . S
C1714 C1715 1.369 . S
C1714 C1718 1.531 . S
C1715 C1714 1.369 . S
C1715 C1716 1.410 . S
C1715 C1723 1.503 . S
C1716 C1715 1.410 . S
C1716 C1717 1.392 . S
C1716 C1719 1.511 . S
C1717 C1713 1.376 . S
C1717 C1716 1.392 . S
C1717 H1729 0.929 . S
C1718 C1714 1.531 . S
C1718 H1730 0.960 . S
C1718 H1731 0.962 . S
C1718 H1732 0.960 . S
C1719 C1716 1.511 . S
C1719 H1733 0.961 . S
C1719 H1734 0.961 . S
C1719 H1735 0.961 . S
C1720 C1721 1.370 . S
C1720 C1722 1.363 . S
C1720 H1736 0.931 . S
C1721 C1720 1.370 . S
C1721 C1725 1.408 . S
C1722 C1720 1.363 . S
C1722 C1723 1.370 . S
C1722 C1726 1.524 . S
C1723 C1715 1.503 . S
C1723 C1722 1.370 . S
C1723 C1724 1.403 . S
C1724 C1723 1.403 . S
C1724 C1725 1.404 . S
C1724 C1727 1.539 . S
C1725 C1721 1.408 . S
C1725 C1724 1.404 . S
C1725 H1737 0.930 . S
C1726 C1722 1.524 . S
C1726 H1738 0.956 . S
C1726 H1739 0.961 . S
C1726 H1740 0.961 . S
C1727 C1724 1.539 . S
C1727 H1741 0.958 . S
C1727 H1742 0.961 . S
C1727 H1743 0.960 . S
H1728 C1712 0.931 . S
H1729 C1717 0.929 . S
H1730 C1718 0.960 . S
H1731 C1718 0.962 . S
H1732 C1718 0.960 . S
H1733 C1719 0.961 . S
H1734 C1719 0.961 . S
H1735 C1719 0.961 . S
H1736 C1720 0.931 . S
H1737 C1725 0.930 . S
H1738 C1726 0.956 . S
H1739 C1726 0.961 . S
H1740 C1726 0.961 . S
H1741 C1727 0.958 . S
H1742 C1727 0.961 . S
H1743 C1727 0.960 . S
C1744 C1745 1.391 . S
C1744 C1746 1.394 . S
C1744 H1760 0.931 . S
C1745 C1744 1.391 . S
C1745 C1749 1.376 . S
C1746 C1744 1.394 . S
C1746 C1747 1.369 . S
C1746 C1750 1.531 . S
C1747 C1746 1.369 . S
C1747 C1748 1.410 . S
C1747 C1755 1.503 . S
C1748 C1747 1.410 . S
C1748 C1749 1.392 . S
C1748 C1751 1.511 . S
C1749 C1745 1.376 . S
C1749 C1748 1.392 . S
C1749 H1761 0.929 . S
C1750 C1746 1.531 . S
C1750 H1762 0.960 . S
C1750 H1763 0.962 . S
C1750 H1764 0.960 . S
C1751 C1748 1.511 . S
C1751 H1765 0.961 . S
C1751 H1766 0.961 . S
C1751 H1767 0.961 . S
C1752 C1753 1.370 . S
C1752 C1754 1.363 . S
C1752 H1768 0.931 . S
C1753 C1752 1.370 . S
C1753 C1757 1.408 . S
C1754 C1752 1.363 . S
C1754 C1755 1.370 . S
C1754 C1758 1.524 . S
C1755 C1747 1.503 . S
C1755 C1754 1.370 . S
C1755 C1756 1.403 . S
C1756 C1755 1.403 . S
C1756 C1757 1.404 . S
C1756 C1759 1.539 . S
C1757 C1753 1.408 . S
C1757 C1756 1.404 . S
C1757 H1769 0.930 . S
C1758 C1754 1.524 . S
C1758 H1770 0.956 . S
C1758 H1771 0.961 . S
C1758 H1772 0.961 . S
C1759 C1756 1.539 . S
C1759 H1773 0.958 . S
C1759 H1774 0.961 . S
C1759 H1775 0.960 . S
H1760 C1744 0.931 . S
H1761 C1749 0.929 . S
H1762 C1750 0.960 . S
H1763 C1750 0.962 . S
H1764 C1750 0.960 . S
H1765 C1751 0.961 . S
H1766 C1751 0.961 . S
H1767 C1751 0.961 . S
H1768 C1752 0.931 . S
H1769 C1757 0.930 . S
H1770 C1758 0.956 . S
H1771 C1758 0.961 . S
H1772 C1758 0.961 . S
H1773 C1759 0.958 . S
H1774 C1759 0.961 . S
H1775 C1759 0.960 . S
C1776 C1777 1.391 . S
C1776 C1778 1.394 . S
C1776 H1792 0.931 . S
C1777 C1776 1.391 . S
C1777 C1781 1.376 . S
C1778 C1776 1.394 . S
C1778 C1779 1.369 . S
C1778 C1782 1.531 . S
C1779 C1778 1.369 . S
C1779 C1780 1.410 . S
C1779 C1787 1.503 . S
C1780 C1779 1.410 . S
C1780 C1781 1.392 . S
C1780 C1783 1.511 . S
C1781 C1777 1.376 . S
C1781 C1780 1.392 . S
C1781 H1793 0.929 . S
C1782 C1778 1.531 . S
C1782 H1794 0.960 . S
C1782 H1795 0.962 . S
C1782 H1796 0.960 . S
C1783 C1780 1.511 . S
C1783 H1797 0.961 . S
C1783 H1798 0.961 . S
C1783 H1799 0.961 . S
C1784 C1785 1.370 . S
C1784 C1786 1.363 . S
C1784 H1800 0.931 . S
C1785 C1784 1.370 . S
C1785 C1789 1.408 . S
C1786 C1784 1.363 . S
C1786 C1787 1.370 . S
C1786 C1790 1.524 . S
C1787 C1779 1.503 . S
C1787 C1786 1.370 . S
C1787 C1788 1.403 . S
C1788 C1787 1.403 . S
C1788 C1789 1.404 . S
C1788 C1791 1.539 . S
C1789 C1785 1.408 . S
C1789 C1788 1.404 . S
C1789 H1801 0.930 . S
C1790 C1786 1.524 . S
C1790 H1802 0.956 . S
C1790 H1803 0.961 . S
C1790 H1804 0.961 . S
C1791 C1788 1.539 . S
C1791 H1805 0.958 . S
C1791 H1806 0.961 . S
C1791 H1807 0.960 . S
H1792 C1776 0.931 . S
H1793 C1781 0.929 . S
H1794 C1782 0.960 . S
H1795 C1782 0.962 . S
H1796 C1782 0.960 . S
H1797 C1783 0.961 . S
H1798 C1783 0.961 . S
H1799 C1783 0.961 . S
H1800 C1784 0.931 . S
H1801 C1789 0.930 . S
H1802 C1790 0.956 . S
H1803 C1790 0.961 . S
H1804 C1790 0.961 . S
H1805 C1791 0.958 . S
H1806 C1791 0.961 . S
H1807 C1791 0.960 . S
C529 C7 1.459 . S
C537 C139 1.453 . S
C561 C172 1.445 . S
C569 C40 1.447 . S
C593 C205 1.461 . S
C601 C73 1.454 . S
C625 C238 1.461 . S
C633 C106 1.457 . S
C657 C271 1.453 . S
C665 C403 1.456 . S
C689 C304 1.466 . S
C697 C436 1.455 . S
C721 C469 1.458 . S
C729 C337 1.458 . S
C753 C370 1.431 . S
C761 C502 1.448 . S
C785 N398 1.260 . S
C793 N13 1.273 . S
C817 N431 1.271 . S
C825 N46 1.267 . S
C849 N79 1.287 . S
C857 N464 1.270 . S
C881 N497 1.255 . S
C889 N112 1.280 . S
C913 N266 1.255 . S
C921 N145 1.278 . S
C945 N299 1.292 . S
C953 N178 1.262 . S
C977 N211 1.262 . S
C985 N332 1.284 . S
C1009 N244 1.244 . S
C1017 N365 1.285 . S
C1041 N134 1.294 . S
C1049 N277 1.261 . S
C1073 N167 1.294 . S
C1081 N310 1.262 . S
C1105 N200 1.256 . S
C1113 N343 1.281 . S
C1137 N376 1.281 . S
C1145 N233 1.271 . S
C1169 N2 1.259 . S
C1177 N409 1.277 . S
C1201 N35 1.272 . S
C1209 N442 1.276 . S
C1233 N475 1.250 . S
C1241 N68 1.285 . S
C1265 N101 1.267 . S
C1273 N508 1.273 . S
C1297 C87 1.308 . S
C1305 C21 1.319 . S
C1329 C54 1.323 . S
C1337 C120 1.326 . S
C1361 C219 1.327 . S
C1369 C153 1.328 . S
C1393 C252 1.332 . S
C1401 C186 1.329 . S
C1425 C351 1.331 . S
C1433 C285 1.328 . S
C1457 C384 1.310 . S
C1465 C318 1.319 . S
C1489 C417 1.323 . S
C1497 C483 1.325 . S
C1521 C516 1.329 . S
C1529 C450 1.327 . S
C1553 C249 1.234 . S
C1561 C18 1.245 . S
C1585 C150 1.205 . S
C1593 C51 1.231 . S
C1617 C183 1.242 . S
C1625 C84 1.228 . S
C1649 C216 1.206 . S
C1657 C117 1.232 . S
C1681 C513 1.227 . S
C1689 C282 1.224 . S
C1713 C414 1.206 . S
C1721 C315 1.230 . S
C1745 C447 1.256 . S
C1753 C348 1.232 . S
C1777 C480 1.219 . S
C1785 C381 1.225 . S
